# Generated by pormake.
# Topology upc, (4)-cn, num edge types: 1
# Building blocks:
#     Node 0, Type 0, BuildingBlock: KOZSID_clean_sbu_0, # of connection points: 4
#     Node 1, Type 0, BuildingBlock: KOZSID_clean_sbu_0, # of connection points: 4
#     Node 2, Type 0, BuildingBlock: KOZSID_clean_sbu_0, # of connection points: 4
#     Node 3, Type 0, BuildingBlock: KOZSID_clean_sbu_0, # of connection points: 4
#     Node 4, Type 0, BuildingBlock: KOZSID_clean_sbu_0, # of connection points: 4
#     Node 5, Type 0, BuildingBlock: KOZSID_clean_sbu_0, # of connection points: 4
#     Node 6, Type 0, BuildingBlock: KOZSID_clean_sbu_0, # of connection points: 4
#     Node 7, Type 0, BuildingBlock: KOZSID_clean_sbu_0, # of connection points: 4
#     Node 8, Type 0, BuildingBlock: KOZSID_clean_sbu_0, # of connection points: 4
#     Node 9, Type 0, BuildingBlock: KOZSID_clean_sbu_0, # of connection points: 4
#     Node 10, Type 0, BuildingBlock: KOZSID_clean_sbu_0, # of connection points: 4
#     Node 11, Type 0, BuildingBlock: KOZSID_clean_sbu_0, # of connection points: 4
#     Node 12, Type 0, BuildingBlock: KOZSID_clean_sbu_0, # of connection points: 4
#     Node 13, Type 0, BuildingBlock: KOZSID_clean_sbu_0, # of connection points: 4
#     Node 14, Type 0, BuildingBlock: KOZSID_clean_sbu_0, # of connection points: 4
#     Node 15, Type 0, BuildingBlock: KOZSID_clean_sbu_0, # of connection points: 4
#     Edge 16, Type (0, 0), BuildingBlock: UVAHIK_clean_linker_0, # of connection points: 2
#     Edge 17, Type (0, 0), BuildingBlock: UVAHIK_clean_linker_0, # of connection points: 2
#     Edge 18, Type (0, 0), BuildingBlock: UVAHIK_clean_linker_0, # of connection points: 2
#     Edge 19, Type (0, 0), BuildingBlock: UVAHIK_clean_linker_0, # of connection points: 2
#     Edge 20, Type (0, 0), BuildingBlock: UVAHIK_clean_linker_0, # of connection points: 2
#     Edge 21, Type (0, 0), BuildingBlock: UVAHIK_clean_linker_0, # of connection points: 2
#     Edge 22, Type (0, 0), BuildingBlock: UVAHIK_clean_linker_0, # of connection points: 2
#     Edge 23, Type (0, 0), BuildingBlock: UVAHIK_clean_linker_0, # of connection points: 2
#     Edge 24, Type (0, 0), BuildingBlock: UVAHIK_clean_linker_0, # of connection points: 2
#     Edge 25, Type (0, 0), BuildingBlock: UVAHIK_clean_linker_0, # of connection points: 2
#     Edge 26, Type (0, 0), BuildingBlock: UVAHIK_clean_linker_0, # of connection points: 2
#     Edge 27, Type (0, 0), BuildingBlock: UVAHIK_clean_linker_0, # of connection points: 2
#     Edge 28, Type (0, 0), BuildingBlock: UVAHIK_clean_linker_0, # of connection points: 2
#     Edge 29, Type (0, 0), BuildingBlock: UVAHIK_clean_linker_0, # of connection points: 2
#     Edge 30, Type (0, 0), BuildingBlock: UVAHIK_clean_linker_0, # of connection points: 2
#     Edge 31, Type (0, 0), BuildingBlock: UVAHIK_clean_linker_0, # of connection points: 2
#     Edge 32, Type (0, 0), BuildingBlock: UVAHIK_clean_linker_0, # of connection points: 2
#     Edge 33, Type (0, 0), BuildingBlock: UVAHIK_clean_linker_0, # of connection points: 2
#     Edge 34, Type (0, 0), BuildingBlock: UVAHIK_clean_linker_0, # of connection points: 2
#     Edge 35, Type (0, 0), BuildingBlock: UVAHIK_clean_linker_0, # of connection points: 2
#     Edge 36, Type (0, 0), BuildingBlock: UVAHIK_clean_linker_0, # of connection points: 2
#     Edge 37, Type (0, 0), BuildingBlock: UVAHIK_clean_linker_0, # of connection points: 2
#     Edge 38, Type (0, 0), BuildingBlock: UVAHIK_clean_linker_0, # of connection points: 2
#     Edge 39, Type (0, 0), BuildingBlock: UVAHIK_clean_linker_0, # of connection points: 2
#     Edge 40, Type (0, 0), BuildingBlock: UVAHIK_clean_linker_0, # of connection points: 2
#     Edge 41, Type (0, 0), BuildingBlock: UVAHIK_clean_linker_0, # of connection points: 2
#     Edge 42, Type (0, 0), BuildingBlock: UVAHIK_clean_linker_0, # of connection points: 2
#     Edge 43, Type (0, 0), BuildingBlock: UVAHIK_clean_linker_0, # of connection points: 2
#     Edge 44, Type (0, 0), BuildingBlock: UVAHIK_clean_linker_0, # of connection points: 2
#     Edge 45, Type (0, 0), BuildingBlock: UVAHIK_clean_linker_0, # of connection points: 2
#     Edge 46, Type (0, 0), BuildingBlock: UVAHIK_clean_linker_0, # of connection points: 2
#     Edge 47, Type (0, 0), BuildingBlock: UVAHIK_clean_linker_0, # of connection points: 2
# Relax obj value: 0.163
# Max RMSD: 0.237
# Mean RMSD: 0.234
data_MOF--net-upc--node1-KOZSID_clean_sbu_0--edge1-UVAHIK_clean_linker_0
_symmetry_space_group_name_H-M    P1
_symmetry_Int_Tables_number       1
_symmetry_cell_setting            triclinic
loop_
_symmetry_equiv_pos_as_xyz
'x, y, z'
_cell_length_a     55.701737
_cell_length_b     55.829843
_cell_length_c     56.933274
_cell_angle_alpha  90.028
_cell_angle_beta   89.979356
_cell_angle_gamma 90.025671
loop_
_atom_site_label
_atom_site_type_symbol
_atom_site_fract_x
_atom_site_fract_y
_atom_site_fract_z
_atom_type_partial_charge
C0 C 0.18094 0.63476 0.12666 0.0
C1 C 0.20207 0.6269 0.11643 0.0
C2 C 0.20106 0.60225 0.11635 0.0
C3 C 0.17937 0.59639 0.12646 0.0
N4 N 0.16668 0.61586 0.13255 0.0
Co5 Co 0.13598 0.61598 0.15028 0.0
N6 N 0.14085 0.58295 0.16237 0.0
C7 C 0.15659 0.56707 0.15337 0.0
C8 C 0.1556 0.54519 0.16429 0.0
C9 C 0.1378 0.54725 0.18084 0.0
C10 C 0.12869 0.57033 0.17903 0.0
N11 N 0.10533 0.61698 0.16829 0.0
C12 C 0.09637 0.60192 0.18495 0.0
C13 C 0.07349 0.60911 0.19171 0.0
C14 C 0.06786 0.62889 0.17857 0.0
C15 C 0.08746 0.63278 0.1645 0.0
N16 N 0.13151 0.64894 0.13792 0.0
C17 C 0.11062 0.6609 0.13685 0.0
C18 C 0.11353 0.6841 0.12926 0.0
C19 C 0.13777 0.68691 0.12562 0.0
C20 C 0.14838 0.66517 0.13113 0.0
N21 N 0.11861 0.60215 0.12309 0.0
C22 C 0.09605 0.57713 0.0859 0.0
C23 C 0.11304 0.59528 0.08135 0.0
C24 C 0.12408 0.60764 0.10023 0.0
C25 C 0.08988 0.57296 0.10933 0.0
C26 C 0.10135 0.58523 0.12734 0.0
N27 N 0.15317 0.62903 0.17726 0.0
C28 C 0.1581 0.66046 0.20562 0.0
C29 C 0.18138 0.65244 0.21063 0.0
C30 C 0.18974 0.63171 0.19962 0.0
C31 C 0.17517 0.62002 0.18328 0.0
C32 C 0.14432 0.64855 0.18884 0.0
H33 H 0.18223 0.60434 0.17472 0.0
H34 H 0.12697 0.65579 0.18446 0.0
H35 H 0.13742 0.62114 0.0964 0.0
H36 H 0.09645 0.58021 0.14481 0.0
C37 C 0.17344 0.57408 0.13626 0.0
C38 C 0.17437 0.66018 0.12993 0.0
C39 C 0.10684 0.57852 0.19149 0.0
C40 C 0.09062 0.65219 0.14911 0.0
H41 H 0.21681 0.63783 0.11021 0.0
H42 H 0.21527 0.59011 0.11121 0.0
H43 H 0.16661 0.52962 0.1608 0.0
H44 H 0.13175 0.53314 0.19244 0.0
H45 H 0.0616 0.60037 0.20404 0.0
H46 H 0.0514 0.63916 0.17919 0.0
H47 H 0.09997 0.69795 0.12837 0.0
H48 H 0.14659 0.70329 0.12029 0.0
H49 H 0.11832 0.59938 0.0635 0.0
H50 H 0.07637 0.55983 0.11398 0.0
H51 H 0.15106 0.67657 0.21369 0.0
H52 H 0.20758 0.6249 0.2032 0.0
C53 C 0.88483 0.17974 0.12701 0.0
C54 C 0.89252 0.20116 0.11734 0.0
C55 C 0.91724 0.20047 0.11742 0.0
C56 C 0.92331 0.17867 0.12704 0.0
N57 N 0.9039 0.1656 0.13265 0.0
Co58 Co 0.90401 0.13462 0.14974 0.0
N59 N 0.93683 0.13979 0.16243 0.0
C60 C 0.95256 0.15609 0.15418 0.0
C61 C 0.97403 0.15576 0.166 0.0
C62 C 0.97184 0.13782 0.18234 0.0
C63 C 0.94915 0.12789 0.17947 0.0
N64 N 0.90331 0.10359 0.16687 0.0
C65 C 0.91842 0.09438 0.18335 0.0
C66 C 0.91178 0.07104 0.18895 0.0
C67 C 0.89225 0.06548 0.17537 0.0
C68 C 0.88796 0.08553 0.16215 0.0
N69 N 0.87115 0.13003 0.13697 0.0
C70 C 0.8595 0.10905 0.13516 0.0
C71 C 0.83624 0.11185 0.12753 0.0
C72 C 0.83309 0.1361 0.12463 0.0
C73 C 0.85469 0.14683 0.1306 0.0
N74 N 0.91832 0.11791 0.12235 0.0
C75 C 0.93971 0.09206 0.08501 0.0
C76 C 0.92176 0.1093 0.0807 0.0
C77 C 0.91116 0.12193 0.09965 0.0
C78 C 0.94688 0.08865 0.10827 0.0
C79 C 0.93621 0.10159 0.12636 0.0
N80 N 0.89036 0.15094 0.17698 0.0
C81 C 0.8582 0.15477 0.20479 0.0
C82 C 0.86571 0.17805 0.21043 0.0
C83 C 0.88671 0.18685 0.20012 0.0
C84 C 0.89895 0.17288 0.18366 0.0
C85 C 0.87077 0.14153 0.18805 0.0
H86 H 0.91468 0.18037 0.1755 0.0
H87 H 0.8639 0.12418 0.18318 0.0
H88 H 0.89716 0.13481 0.09603 0.0
H89 H 0.94268 0.09807 0.14371 0.0
C90 C 0.94558 0.17302 0.1372 0.0
C91 C 0.85941 0.17285 0.1301 0.0
C92 C 0.94123 0.10547 0.19109 0.0
C93 C 0.86855 0.08883 0.14674 0.0
H94 H 0.88143 0.2159 0.11148 0.0
H95 H 0.92925 0.21497 0.11283 0.0
H96 H 0.98934 0.16739 0.16333 0.0
H97 H 0.98565 0.13229 0.19454 0.0
H98 H 0.92067 0.05882 0.20082 0.0
H99 H 0.8824 0.04877 0.17517 0.0
H100 H 0.82257 0.09814 0.1261 0.0
H101 H 0.8166 0.14482 0.11943 0.0
H102 H 0.91565 0.11267 0.06295 0.0
H103 H 0.961 0.07606 0.1126 0.0
H104 H 0.84191 0.14733 0.2122 0.0
H105 H 0.89323 0.20466 0.20419 0.0
C106 C 0.34268 0.88477 0.12366 0.0
C107 C 0.32128 0.89308 0.11429 0.0
C108 C 0.32279 0.9177 0.11404 0.0
C109 C 0.34489 0.92318 0.12339 0.0
N110 N 0.35739 0.90348 0.12916 0.0
Co111 Co 0.38842 0.90299 0.14634 0.0
N112 N 0.38408 0.93595 0.15877 0.0
C113 C 0.36852 0.95211 0.15004 0.0
C114 C 0.37006 0.97396 0.16101 0.0
C115 C 0.38802 0.97152 0.17735 0.0
C116 C 0.39652 0.94821 0.1755 0.0
N117 N 0.41951 0.90169 0.16344 0.0
C118 C 0.42896 0.91657 0.17995 0.0
C119 C 0.45182 0.90905 0.18633 0.0
C120 C 0.45705 0.88935 0.17288 0.0
C121 C 0.43715 0.88576 0.15911 0.0
N122 N 0.39218 0.87001 0.13395 0.0
C123 C 0.41286 0.85778 0.13223 0.0
C124 C 0.40933 0.83455 0.12488 0.0
C125 C 0.38491 0.83206 0.12215 0.0
C126 C 0.37485 0.85392 0.1281 0.0
N127 N 0.40541 0.91659 0.1188 0.0
C128 C 0.43068 0.93772 0.08098 0.0
C129 C 0.4129 0.92021 0.07698 0.0
C130 C 0.40061 0.90971 0.09617 0.0
C131 C 0.43509 0.94445 0.10421 0.0
C132 C 0.42241 0.93391 0.12256 0.0
N133 N 0.37176 0.88994 0.17363 0.0
C134 C 0.36686 0.85739 0.2007 0.0
C135 C 0.34318 0.86451 0.20511 0.0
C136 C 0.33477 0.8857 0.19501 0.0
C137 C 0.34957 0.89846 0.17967 0.0
C138 C 0.38083 0.87032 0.18485 0.0
H139 H 0.34245 0.91435 0.17154 0.0
H140 H 0.39838 0.86352 0.18054 0.0
H141 H 0.38725 0.8961 0.09276 0.0
H142 H 0.42654 0.94013 0.13988 0.0
C143 C 0.35134 0.94538 0.13316 0.0
C144 C 0.34891 0.85923 0.12743 0.0
C145 C 0.41849 0.93967 0.18741 0.0
C146 C 0.43337 0.86631 0.14384 0.0
H147 H 0.30583 0.88269 0.10901 0.0
H148 H 0.30856 0.93008 0.10956 0.0
H149 H 0.35937 0.98977 0.15763 0.0
H150 H 0.39466 0.98555 0.18875 0.0
H151 H 0.46382 0.91743 0.19883 0.0
H152 H 0.47334 0.87881 0.17325 0.0
H153 H 0.42266 0.82052 0.1235 0.0
H154 H 0.37552 0.81592 0.11699 0.0
H155 H 0.40881 0.91443 0.05927 0.0
H156 H 0.44817 0.9582 0.10832 0.0
H157 H 0.37397 0.84101 0.20814 0.0
H158 H 0.31664 0.89189 0.19828 0.0
C159 C 0.63459 0.34163 0.12687 0.0
C160 C 0.6259 0.32039 0.11753 0.0
C161 C 0.60125 0.32207 0.11778 0.0
C162 C 0.59612 0.34411 0.12737 0.0
N163 N 0.61606 0.35641 0.13283 0.0
Co164 Co 0.61717 0.38721 0.15033 0.0
N165 N 0.58434 0.38305 0.16337 0.0
C166 C 0.56785 0.36775 0.15469 0.0
C167 C 0.54601 0.36964 0.16566 0.0
C168 C 0.54875 0.38756 0.18194 0.0
C169 C 0.57226 0.39569 0.1801 0.0
N170 N 0.61924 0.41793 0.16796 0.0
C171 C 0.6049 0.42717 0.18508 0.0
C172 C 0.61342 0.44939 0.1923 0.0
C173 C 0.63298 0.45459 0.17858 0.0
C174 C 0.63559 0.43526 0.16392 0.0
N175 N 0.64994 0.39087 0.13718 0.0
C176 C 0.6624 0.41141 0.13556 0.0
C177 C 0.68548 0.40777 0.12766 0.0
C178 C 0.68767 0.38343 0.12454 0.0
C179 C 0.66579 0.37352 0.1308 0.0
N180 N 0.60285 0.40457 0.12332 0.0
C181 C 0.57694 0.42714 0.08667 0.0
C182 C 0.59455 0.40968 0.08176 0.0
C183 C 0.60738 0.39867 0.10036 0.0
C184 C 0.57382 0.43375 0.11015 0.0
C185 C 0.58649 0.42226 0.12789 0.0
N186 N 0.63074 0.37012 0.1771 0.0
C187 C 0.6641 0.36442 0.20313 0.0
C188 C 0.65687 0.34078 0.20728 0.0
C189 C 0.63519 0.33281 0.19773 0.0
C190 C 0.62209 0.34801 0.18308 0.0
C191 C 0.65083 0.37878 0.18792 0.0
H192 H 0.60582 0.34121 0.17531 0.0
H193 H 0.65776 0.39625 0.1837 0.0
H194 H 0.62044 0.38499 0.09624 0.0
H195 H 0.5822 0.42753 0.14544 0.0
C196 C 0.57414 0.35068 0.13758 0.0
C197 C 0.66031 0.34767 0.13016 0.0
C198 C 0.58119 0.41751 0.19204 0.0
C199 C 0.65455 0.43162 0.14801 0.0
H200 H 0.63609 0.30494 0.11195 0.0
H201 H 0.58863 0.30799 0.11345 0.0
H202 H 0.52996 0.35928 0.16223 0.0
H203 H 0.53471 0.39441 0.19321 0.0
H204 H 0.60576 0.46107 0.20549 0.0
H205 H 0.64406 0.4705 0.17936 0.0
H206 H 0.69969 0.42093 0.1263 0.0
H207 H 0.70367 0.37398 0.11902 0.0
H208 H 0.59786 0.40404 0.06386 0.0
H209 H 0.56119 0.44762 0.11508 0.0
H210 H 0.68086 0.37121 0.21015 0.0
H211 H 0.62893 0.3147 0.2008 0.0
C212 C 0.17932 0.88604 0.378 0.0
C213 C 0.20157 0.89335 0.38613 0.0
C214 C 0.20182 0.91796 0.38476 0.0
C215 C 0.17971 0.92436 0.37597 0.0
N216 N 0.16556 0.90529 0.37212 0.0
Co217 Co 0.13346 0.90588 0.35698 0.0
N218 N 0.13918 0.93763 0.34225 0.0
C219 C 0.15678 0.95292 0.34849 0.0
C220 C 0.15667 0.9736 0.33547 0.0
C221 C 0.13753 0.97141 0.32046 0.0
C222 C 0.12671 0.94953 0.32531 0.0
N223 N 0.10118 0.90585 0.34206 0.0
C224 C 0.09139 0.92063 0.32563 0.0
C225 C 0.06733 0.91498 0.32211 0.0
C226 C 0.06195 0.89641 0.33694 0.0
C227 C 0.08282 0.8917 0.34881 0.0
N228 N 0.1285 0.87391 0.3716 0.0
C229 C 0.1072 0.86322 0.37507 0.0
C230 C 0.10959 0.84011 0.38305 0.0
C231 C 0.1339 0.83602 0.38444 0.0
C232 C 0.14514 0.857 0.3774 0.0
N233 N 0.11921 0.92205 0.38464 0.0
C234 C 0.09444 0.94388 0.42232 0.0
C235 C 0.11112 0.92536 0.42637 0.0
C236 C 0.12326 0.9146 0.40723 0.0
C237 C 0.09138 0.9517 0.39923 0.0
C238 C 0.10379 0.94076 0.38093 0.0
N239 N 0.14717 0.89006 0.32957 0.0
C240 C 0.14864 0.85378 0.30722 0.0
C241 C 0.17312 0.85747 0.30286 0.0
C242 C 0.18321 0.87964 0.30877 0.0
C243 C 0.16973 0.8959 0.32198 0.0
C244 C 0.13597 0.87032 0.32062 0.0
H245 H 0.17841 0.91201 0.32802 0.0
H246 H 0.11787 0.86589 0.32567 0.0
H247 H 0.13553 0.90001 0.41061 0.0
H248 H 0.10024 0.94738 0.36363 0.0
C249 C 0.17443 0.94617 0.36486 0.0
C250 C 0.17147 0.8608 0.3764 0.0
C251 C 0.10303 0.94225 0.3158 0.0
C252 C 0.08652 0.87277 0.36464 0.0
H253 H 0.21626 0.88204 0.39176 0.0
H254 H 0.21705 0.92957 0.38791 0.0
H255 H 0.16918 0.9884 0.33653 0.0
H256 H 0.13181 0.98474 0.30788 0.0
H257 H 0.05463 0.92389 0.31072 0.0
H258 H 0.04483 0.88741 0.33879 0.0
H259 H 0.09545 0.82707 0.38563 0.0
H260 H 0.14213 0.81923 0.38929 0.0
H261 H 0.11421 0.9188 0.444 0.0
H262 H 0.07922 0.96626 0.39517 0.0
H263 H 0.13989 0.83726 0.30209 0.0
H264 H 0.20196 0.88342 0.30534 0.0
C265 C 0.63498 0.17719 0.37715 0.0
C266 C 0.62689 0.19849 0.38684 0.0
C267 C 0.60221 0.19722 0.38716 0.0
C268 C 0.59646 0.17535 0.37754 0.0
N269 N 0.61606 0.16275 0.37154 0.0
Co270 Co 0.61619 0.13206 0.35385 0.0
N271 N 0.58316 0.13686 0.34162 0.0
C272 C 0.56722 0.1526 0.35046 0.0
C273 C 0.54544 0.15176 0.33922 0.0
C274 C 0.54767 0.13407 0.32261 0.0
C275 C 0.57074 0.12488 0.3247 0.0
N276 N 0.61718 0.10132 0.33621 0.0
C277 C 0.60213 0.09223 0.31962 0.0
C278 C 0.60915 0.06921 0.31334 0.0
C279 C 0.62885 0.06366 0.32669 0.0
C280 C 0.63287 0.08344 0.34043 0.0
N281 N 0.64925 0.12784 0.36605 0.0
C282 C 0.66128 0.10707 0.36746 0.0
C283 C 0.68465 0.11027 0.37471 0.0
C284 C 0.68743 0.13458 0.37769 0.0
C285 C 0.66559 0.14491 0.372 0.0
N286 N 0.60244 0.11474 0.38114 0.0
C287 C 0.58096 0.08902 0.41849 0.0
C288 C 0.59868 0.10651 0.42282 0.0
C289 C 0.60936 0.11904 0.40386 0.0
C290 C 0.5742 0.08515 0.39518 0.0
C291 C 0.58491 0.09803 0.37708 0.0
N292 N 0.62934 0.149 0.32678 0.0
C293 C 0.6621 0.15405 0.29989 0.0
C294 C 0.65535 0.1779 0.29607 0.0
C295 C 0.63413 0.18631 0.30624 0.0
C296 C 0.62107 0.17135 0.32117 0.0
C297 C 0.64888 0.13991 0.31536 0.0
H298 H 0.60522 0.17849 0.32943 0.0
H299 H 0.65546 0.12223 0.31931 0.0
H300 H 0.62312 0.13217 0.40751 0.0
H301 H 0.57863 0.09429 0.3597 0.0
C302 C 0.57417 0.16939 0.3676 0.0
C303 C 0.66052 0.17084 0.37309 0.0
C304 C 0.57903 0.103 0.31241 0.0
C305 C 0.65242 0.08682 0.3557 0.0
H306 H 0.63746 0.21375 0.39225 0.0
H307 H 0.58996 0.2115 0.39183 0.0
H308 H 0.52985 0.16284 0.34251 0.0
H309 H 0.53367 0.12815 0.31078 0.0
H310 H 0.60039 0.05723 0.3011 0.0
H311 H 0.63904 0.04716 0.32637 0.0
H312 H 0.69857 0.09681 0.37586 0.0
H313 H 0.70373 0.14372 0.38287 0.0
H314 H 0.6045 0.11021 0.4406 0.0
H315 H 0.56028 0.07233 0.39082 0.0
H316 H 0.67849 0.14691 0.29241 0.0
H317 H 0.62823 0.20457 0.30344 0.0
C318 C 0.33953 0.63553 0.37593 0.0
C319 C 0.31817 0.62699 0.38522 0.0
C320 C 0.31988 0.6024 0.38542 0.0
C321 C 0.34206 0.59715 0.37611 0.0
N322 N 0.35441 0.61697 0.37038 0.0
Co323 Co 0.38557 0.61772 0.35335 0.0
N324 N 0.38162 0.58465 0.34097 0.0
C325 C 0.36612 0.56839 0.34969 0.0
C326 C 0.36805 0.54644 0.33901 0.0
C327 C 0.38619 0.54888 0.32289 0.0
C328 C 0.39441 0.57233 0.32451 0.0
N329 N 0.41675 0.61928 0.33637 0.0
C330 C 0.42639 0.60452 0.31984 0.0
C331 C 0.44889 0.61274 0.313 0.0
C332 C 0.45383 0.63256 0.32638 0.0
C333 C 0.43408 0.63562 0.34046 0.0
N334 N 0.38895 0.65078 0.36571 0.0
C335 C 0.40949 0.66325 0.36741 0.0
C336 C 0.40575 0.68641 0.37483 0.0
C337 C 0.38131 0.68863 0.37761 0.0
C338 C 0.37146 0.66668 0.37163 0.0
N339 N 0.40249 0.60436 0.38099 0.0
C340 C 0.42742 0.58328 0.41896 0.0
C341 C 0.40943 0.60057 0.42287 0.0
C342 C 0.3973 0.61106 0.40359 0.0
C343 C 0.43226 0.57678 0.39576 0.0
C344 C 0.41975 0.5873 0.37733 0.0
N345 N 0.36899 0.63052 0.32594 0.0
C346 C 0.36421 0.66281 0.29857 0.0
C347 C 0.34062 0.65554 0.29405 0.0
C348 C 0.33216 0.63441 0.30427 0.0
C349 C 0.34689 0.62184 0.3198 0.0
C350 C 0.37808 0.6501 0.31464 0.0
H351 H 0.33976 0.60598 0.328 0.0
H352 H 0.39553 0.65707 0.31904 0.0
H353 H 0.38375 0.62449 0.40691 0.0
H354 H 0.42419 0.58123 0.36004 0.0
C355 C 0.34878 0.57502 0.36643 0.0
C356 C 0.34557 0.66115 0.37234 0.0
C357 C 0.41655 0.58095 0.31283 0.0
C358 C 0.43005 0.65502 0.35571 0.0
H359 H 0.30261 0.63721 0.39051 0.0
H360 H 0.30576 0.58987 0.38987 0.0
H361 H 0.35754 0.53053 0.34252 0.0
H362 H 0.39315 0.53471 0.31187 0.0
H363 H 0.46087 0.60479 0.30023 0.0
H364 H 0.46982 0.64356 0.3257 0.0
H365 H 0.41894 0.70059 0.37621 0.0
H366 H 0.37178 0.70467 0.38283 0.0
H367 H 0.40501 0.60616 0.44056 0.0
H368 H 0.44553 0.5632 0.39173 0.0
H369 H 0.37131 0.67918 0.29106 0.0
H370 H 0.31405 0.62819 0.30098 0.0
C371 C 0.88492 0.33977 0.37328 0.0
C372 C 0.89291 0.31857 0.38317 0.0
C373 C 0.91761 0.31975 0.38335 0.0
C374 C 0.92338 0.34161 0.37364 0.0
N375 N 0.90379 0.35423 0.3677 0.0
Co376 Co 0.90358 0.38515 0.35051 0.0
N377 N 0.93671 0.3806 0.33831 0.0
C378 C 0.95273 0.36495 0.34717 0.0
C379 C 0.97475 0.36638 0.33641 0.0
C380 C 0.97259 0.38436 0.3201 0.0
C381 C 0.94927 0.39299 0.32174 0.0
N382 N 0.90254 0.41608 0.33321 0.0
C383 C 0.91768 0.42542 0.31683 0.0
C384 C 0.91025 0.44818 0.3102 0.0
C385 C 0.89032 0.45349 0.32336 0.0
C386 C 0.88654 0.43373 0.33719 0.0
N387 N 0.87045 0.38919 0.36285 0.0
C388 C 0.85831 0.40992 0.36424 0.0
C389 C 0.83504 0.40672 0.37172 0.0
C390 C 0.83238 0.38245 0.37493 0.0
C391 C 0.85426 0.37212 0.36927 0.0
N392 N 0.91717 0.40218 0.37805 0.0
C393 C 0.93827 0.42771 0.41575 0.0
C394 C 0.9207 0.41 0.41984 0.0
C395 C 0.91022 0.39757 0.4007 0.0
C396 C 0.94509 0.43187 0.39251 0.0
C397 C 0.93457 0.41909 0.37424 0.0
N398 N 0.89063 0.36845 0.32317 0.0
C399 C 0.85882 0.36372 0.29514 0.0
C400 C 0.8668 0.34053 0.28978 0.0
C401 C 0.88789 0.33226 0.30032 0.0
C402 C 0.89973 0.34665 0.31672 0.0
C403 C 0.87097 0.37736 0.31185 0.0
H404 H 0.91554 0.33956 0.32507 0.0
H405 H 0.8637 0.39459 0.31652 0.0
H406 H 0.89656 0.38427 0.40417 0.0
H407 H 0.94088 0.42308 0.35694 0.0
C408 C 0.94575 0.34785 0.36402 0.0
C409 C 0.8594 0.3462 0.37003 0.0
C410 C 0.94101 0.41504 0.30984 0.0
C411 C 0.86698 0.43016 0.35238 0.0
H412 H 0.88203 0.30368 0.38907 0.0
H413 H 0.92986 0.30557 0.38827 0.0
H414 H 0.9905 0.35563 0.33994 0.0
H415 H 0.98681 0.39094 0.30887 0.0
H416 H 0.91886 0.46009 0.29779 0.0
H417 H 0.87981 0.46977 0.3228 0.0
H418 H 0.82106 0.42013 0.37283 0.0
H419 H 0.81604 0.37341 0.38011 0.0
H420 H 0.91485 0.40607 0.43756 0.0
H421 H 0.9589 0.44486 0.38832 0.0
H422 H 0.84244 0.37076 0.28756 0.0
H423 H 0.89477 0.31454 0.29647 0.0
C424 C 0.90448 0.36126 0.85562 0.0
C425 C 0.8847 0.36831 0.84251 0.0
C426 C 0.87637 0.38898 0.85243 0.0
C427 C 0.89136 0.39333 0.87104 0.0
N428 N 0.90888 0.37676 0.87351 0.0
Co429 Co 0.93341 0.37545 0.89923 0.0
N430 N 0.92272 0.40708 0.91252 0.0
C431 C 0.90412 0.42061 0.90497 0.0
C432 C 0.90232 0.44227 0.91619 0.0
C433 C 0.92129 0.44294 0.93137 0.0
C434 C 0.93366 0.42157 0.9285 0.0
N435 N 0.95768 0.3741 0.92524 0.0
C436 C 0.96502 0.39141 0.94047 0.0
C437 C 0.98368 0.38333 0.95459 0.0
C438 C 0.98832 0.36032 0.94802 0.0
C439 C 0.97252 0.35563 0.93019 0.0
N440 N 0.94502 0.34442 0.88558 0.0
C441 C 0.96297 0.33055 0.89398 0.0
C442 C 0.96809 0.31111 0.88022 0.0
C443 C 0.95237 0.31253 0.86195 0.0
C444 C 0.93823 0.33268 0.86585 0.0
N445 N 0.95664 0.39279 0.87898 0.0
C446 C 0.98731 0.41442 0.84574 0.0
C447 C 0.99526 0.39527 0.85956 0.0
C448 C 0.97983 0.38503 0.87627 0.0
C449 C 0.96412 0.42308 0.84954 0.0
C450 C 0.9492 0.41205 0.86598 0.0
N451 N 0.90935 0.35745 0.91882 0.0
C452 C 0.8946 0.31884 0.93234 0.0
C453 C 0.87089 0.3272 0.93306 0.0
C454 C 0.86737 0.35167 0.92897 0.0
C455 C 0.88666 0.36633 0.92235 0.0
C456 C 0.9134 0.3342 0.92561 0.0
H457 H 0.88239 0.38459 0.91933 0.0
H458 H 0.93093 0.32656 0.9253 0.0
H459 H 0.9868 0.37059 0.88656 0.0
H460 H 0.93147 0.41904 0.8675 0.0
C461 C 0.89003 0.41324 0.88593 0.0
C462 C 0.91806 0.33937 0.85081 0.0
C463 C 0.95601 0.4161 0.94093 0.0
C464 C 0.97452 0.33622 0.91495 0.0
H465 H 0.87696 0.35935 0.82746 0.0
H466 H 0.8612 0.3996 0.84672 0.0
H467 H 0.88933 0.45633 0.91302 0.0
H468 H 0.92589 0.45771 0.94284 0.0
H469 H 0.99384 0.39322 0.96752 0.0
H470 H 1.00274 0.34902 0.95428 0.0
H471 H 0.98163 0.29753 0.88312 0.0
H472 H 0.9514 0.29999 0.84749 0.0
H473 H 0.01325 0.38825 0.85747 0.0
H474 H 0.95714 0.43783 0.83923 0.0
H475 H 0.8987 0.30037 0.93651 0.0
H476 H 0.8496 0.35946 0.92972 0.0
C477 C 0.15754 0.9142 0.85392 0.0
C478 C 0.15311 0.89445 0.8397 0.0
C479 C 0.13752 0.8799 0.85175 0.0
C480 C 0.13329 0.89142 0.87265 0.0
N481 N 0.14503 0.91246 0.87429 0.0
Co482 Co 0.14513 0.93353 0.90227 0.0
N483 N 0.11585 0.9183 0.91537 0.0
C484 C 0.10707 0.89671 0.90943 0.0
C485 C 0.08552 0.89194 0.92027 0.0
C486 C 0.08053 0.91182 0.93374 0.0
C487 C 0.09943 0.92764 0.93046 0.0
N488 N 0.14512 0.95432 0.93039 0.0
C489 C 0.12657 0.96038 0.94454 0.0
C490 C 0.13394 0.97601 0.96204 0.0
C491 C 0.15797 0.98009 0.95835 0.0
C492 C 0.1639 0.96668 0.93893 0.0
N493 N 0.17416 0.94948 0.88952 0.0
C494 C 0.18941 0.96347 0.90177 0.0
C495 C 0.20728 0.973 0.88808 0.0
C496 C 0.20325 0.96412 0.86598 0.0
C497 C 0.18325 0.94928 0.86746 0.0
N498 N 0.12494 0.95653 0.8853 0.0
C499 C 0.10173 0.98568 0.85213 0.0
C500 C 0.1203 0.99484 0.86623 0.0
C501 C 0.1315 0.98003 0.8829 0.0
C502 C 0.09373 0.96233 0.85667 0.0
C503 C 0.10561 0.94811 0.87304 0.0
N504 N 0.16569 0.90952 0.9182 0.0
C505 C 0.19769 0.88075 0.91346 0.0
C506 C 0.19006 0.86781 0.93309 0.0
C507 C 0.17114 0.87749 0.94648 0.0
C508 C 0.15927 0.8985 0.9388 0.0
C509 C 0.18537 0.90115 0.90632 0.0
H510 H 0.14418 0.90508 0.94883 0.0
H511 H 0.19114 0.90905 0.89011 0.0
H512 H 0.14628 0.9872 0.89293 0.0
H513 H 0.09984 0.92981 0.87478 0.0
C514 C 0.1164 0.88463 0.88979 0.0
C515 C 0.17566 0.93271 0.84869 0.0
C516 C 0.10205 0.95113 0.94207 0.0
C517 C 0.18434 0.97002 0.92502 0.0
H518 H 0.16077 0.89065 0.82263 0.0
H519 H 0.12991 0.86312 0.8458 0.0
H520 H 0.07397 0.87661 0.91749 0.0
H521 H 0.06461 0.91445 0.94429 0.0
H522 H 0.123 0.98396 0.97568 0.0
H523 H 0.16928 0.99266 0.9677 0.0
H524 H 0.22118 0.98544 0.89335 0.0
H525 H 0.21422 0.96771 0.85069 0.0
H526 H 0.127 0.01285 0.86366 0.0
H527 H 0.07886 0.95465 0.847 0.0
H528 H 0.21263 0.87456 0.90288 0.0
H529 H 0.16476 0.86831 0.96202 0.0
C530 C 0.60956 0.14877 0.84454 0.0
C531 C 0.6278 0.14194 0.8293 0.0
C532 C 0.64138 0.12519 0.84093 0.0
C533 C 0.63071 0.12262 0.86252 0.0
N534 N 0.61111 0.1365 0.86501 0.0
Co535 Co 0.59094 0.13858 0.89355 0.0
N536 N 0.60352 0.10791 0.90603 0.0
C537 C 0.62401 0.09712 0.89945 0.0
C538 C 0.62705 0.07526 0.91018 0.0
C539 C 0.6072 0.07222 0.92426 0.0
C540 C 0.59314 0.09252 0.92147 0.0
N541 N 0.57089 0.14043 0.92214 0.0
C542 C 0.56328 0.12251 0.93632 0.0
C543 C 0.54893 0.13135 0.95425 0.0
C544 C 0.54741 0.15568 0.95087 0.0
C545 C 0.56094 0.16032 0.93118 0.0
N546 N 0.57797 0.16922 0.88152 0.0
C547 C 0.56693 0.18611 0.89453 0.0
C548 C 0.56029 0.20574 0.88158 0.0
C549 C 0.5679 0.20099 0.85914 0.0
C550 C 0.5788 0.1786 0.85961 0.0
N551 N 0.5654 0.12117 0.87712 0.0
C552 C 0.53164 0.1005 0.84672 0.0
C553 C 0.5256 0.12042 0.86051 0.0
C554 C 0.54263 0.13026 0.87589 0.0
C555 C 0.55447 0.09042 0.84944 0.0
C556 C 0.57106 0.10107 0.86455 0.0
N557 N 0.61717 0.1564 0.90912 0.0
C558 C 0.64815 0.18649 0.9057 0.0
C559 C 0.6578 0.17998 0.92734 0.0
C560 C 0.64638 0.16174 0.94017 0.0
C561 C 0.6259 0.15026 0.9308 0.0
C562 C 0.6281 0.17456 0.89694 0.0
H563 H 0.61746 0.13611 0.94077 0.0
H564 H 0.62198 0.17978 0.87981 0.0
H565 H 0.53769 0.1458 0.88606 0.0
H566 H 0.58885 0.09359 0.86521 0.0
C567 C 0.63634 0.10515 0.87942 0.0
C568 C 0.59254 0.16841 0.83991 0.0
C569 C 0.57034 0.09731 0.9338 0.0
C570 C 0.56017 0.1814 0.91783 0.0
H571 H 0.63115 0.14861 0.81175 0.0
H572 H 0.65679 0.11561 0.83417 0.0
H573 H 0.64112 0.06231 0.90693 0.0
H574 H 0.60339 0.05663 0.93487 0.0
H575 H 0.54032 0.12124 0.96811 0.0
H576 H 0.53655 0.1682 0.96076 0.0
H577 H 0.55063 0.2214 0.88759 0.0
H578 H 0.56617 0.21296 0.84429 0.0
H579 H 0.508 0.12855 0.85916 0.0
H580 H 0.55993 0.0751 0.83906 0.0
H581 H 0.65647 0.20044 0.89525 0.0
H582 H 0.65337 0.15624 0.95707 0.0
C583 C 0.35932 0.60102 0.85275 0.0
C584 C 0.36452 0.62075 0.83878 0.0
C585 C 0.37989 0.63502 0.8514 0.0
C586 C 0.38323 0.62335 0.87236 0.0
N587 N 0.37117 0.60246 0.87352 0.0
Co588 Co 0.36983 0.58126 0.90139 0.0
N589 N 0.39876 0.59612 0.91547 0.0
C590 C 0.40791 0.61769 0.91003 0.0
C591 C 0.42885 0.62243 0.92199 0.0
C592 C 0.43304 0.60253 0.93566 0.0
C593 C 0.41443 0.5867 0.9312 0.0
N594 N 0.36859 0.56036 0.92949 0.0
C595 C 0.38654 0.55403 0.94433 0.0
C596 C 0.3784 0.53755 0.96078 0.0
C597 C 0.35455 0.53374 0.9561 0.0
C598 C 0.34945 0.54782 0.93699 0.0
N599 N 0.34113 0.56565 0.8875 0.0
C600 C 0.32534 0.55166 0.89904 0.0
C601 C 0.30793 0.54236 0.88467 0.0
C602 C 0.31281 0.55141 0.86283 0.0
C603 C 0.33285 0.56609 0.86515 0.0
N604 N 0.39034 0.55807 0.88502 0.0
C605 C 0.414 0.52864 0.85234 0.0
C606 C 0.39498 0.51971 0.86602 0.0
C607 C 0.38358 0.53465 0.88245 0.0
C608 C 0.4222 0.55188 0.85713 0.0
C609 C 0.41011 0.56625 0.87327 0.0
N610 N 0.34892 0.6054 0.91673 0.0
C611 C 0.31676 0.63387 0.91145 0.0
C612 C 0.32351 0.64661 0.93154 0.0
C613 C 0.34221 0.63699 0.94528 0.0
C614 C 0.35459 0.61624 0.93764 0.0
C615 C 0.32964 0.61382 0.90432 0.0
H616 H 0.36938 0.60965 0.94806 0.0
H617 H 0.32449 0.60612 0.88783 0.0
H618 H 0.36846 0.52764 0.89209 0.0
H619 H 0.41606 0.58448 0.87522 0.0
C620 C 0.3995 0.62994 0.89013 0.0
C621 C 0.34105 0.58289 0.84687 0.0
C622 C 0.4112 0.56349 0.94303 0.0
C623 C 0.32957 0.5448 0.9223 0.0
H624 H 0.35749 0.62472 0.8215 0.0
H625 H 0.38789 0.65175 0.84582 0.0
H626 H 0.44046 0.63785 0.92 0.0
H627 H 0.4481 0.59986 0.94737 0.0
H628 H 0.38855 0.52855 0.9743 0.0
H629 H 0.34291 0.52077 0.96447 0.0
H630 H 0.29376 0.52997 0.88934 0.0
H631 H 0.30236 0.5481 0.84714 0.0
H632 H 0.38809 0.5018 0.86324 0.0
H633 H 0.43739 0.55937 0.8478 0.0
H634 H 0.30195 0.63983 0.9006 0.0
H635 H 0.34793 0.64595 0.9612 0.0
C636 C 0.90871 0.15298 0.65542 0.0
C637 C 0.88905 0.14728 0.66939 0.0
C638 C 0.87565 0.13087 0.65714 0.0
C639 C 0.88771 0.12747 0.63639 0.0
N640 N 0.90804 0.14048 0.63501 0.0
Co641 Co 0.92949 0.14197 0.60731 0.0
N642 N 0.9162 0.11191 0.59402 0.0
C643 C 0.89507 0.10183 0.59968 0.0
C644 C 0.89165 0.08017 0.58865 0.0
C645 C 0.91194 0.0765 0.57533 0.0
C646 C 0.92661 0.09624 0.57888 0.0
N647 N 0.95066 0.14331 0.57944 0.0
C648 C 0.95797 0.12526 0.56527 0.0
C649 C 0.9734 0.1336 0.54801 0.0
C650 C 0.97603 0.15776 0.55184 0.0
C651 C 0.96202 0.16278 0.57112 0.0
N652 N 0.94345 0.17185 0.62029 0.0
C653 C 0.95665 0.18794 0.60825 0.0
C654 C 0.96478 0.20636 0.62207 0.0
C655 C 0.95578 0.2018 0.64402 0.0
C656 C 0.94227 0.18092 0.64233 0.0
N657 N 0.95362 0.12331 0.62443 0.0
C658 C 0.9855 0.10062 0.65537 0.0
C659 C 0.99296 0.12024 0.64184 0.0
C660 C 0.97684 0.1311 0.6262 0.0
C661 C 0.96218 0.09189 0.65215 0.0
C662 C 0.94655 0.10351 0.63677 0.0
N663 N 0.90462 0.16104 0.59102 0.0
C664 C 0.87533 0.19284 0.59358 0.0
C665 C 0.86486 0.18581 0.57246 0.0
C666 C 0.87509 0.16645 0.56026 0.0
C667 C 0.89528 0.15453 0.56967 0.0
C668 C 0.89479 0.18021 0.6026 0.0
H669 H 0.90289 0.13968 0.56005 0.0
H670 H 0.90117 0.18566 0.61956 0.0
H671 H 0.98291 0.14635 0.61621 0.0
H672 H 0.92839 0.09701 0.63564 0.0
C673 C 0.88217 0.11029 0.61916 0.0
C674 C 0.92588 0.1723 0.66084 0.0
C675 C 0.95 0.10032 0.56745 0.0
C676 C 0.96387 0.18333 0.5851 0.0
H677 H 0.8845 0.15463 0.6864 0.0
H678 H 0.85926 0.12223 0.66285 0.0
H679 H 0.87695 0.06776 0.59119 0.0
H680 H 0.91559 0.06088 0.56468 0.0
H681 H 0.98214 0.12324 0.5344 0.0
H682 H 0.98802 0.16981 0.54267 0.0
H683 H 0.97638 0.22103 0.61697 0.0
H684 H 0.95835 0.21298 0.65935 0.0
H685 H 0.01097 0.12734 0.64356 0.0
H686 H 0.95561 0.07685 0.6623 0.0
H687 H 0.86789 0.20758 0.60362 0.0
H688 H 0.8675 0.16053 0.54374 0.0
C689 C 0.35895 0.91519 0.64884 0.0
C690 C 0.36316 0.89562 0.66334 0.0
C691 C 0.37895 0.88095 0.65167 0.0
C692 C 0.3835 0.89223 0.63073 0.0
N693 N 0.37179 0.91324 0.62868 0.0
Co694 Co 0.37214 0.93397 0.60048 0.0
N695 N 0.40161 0.9186 0.58798 0.0
C696 C 0.41028 0.8971 0.5943 0.0
C697 C 0.43199 0.89219 0.58382 0.0
C698 C 0.4372 0.9119 0.5702 0.0
C699 C 0.41826 0.92775 0.57302 0.0
N700 N 0.3726 0.95443 0.57214 0.0
C701 C 0.39137 0.96031 0.55819 0.0
C702 C 0.38427 0.97574 0.54043 0.0
C703 C 0.3602 0.97987 0.54373 0.0
C704 C 0.35397 0.96669 0.5632 0.0
N705 N 0.34291 0.95005 0.61263 0.0
C706 C 0.32788 0.9639 0.60002 0.0
C707 C 0.30979 0.97358 0.61334 0.0
C708 C 0.31344 0.96494 0.63557 0.0
C709 C 0.33345 0.95008 0.63455 0.0
N710 N 0.39206 0.9572 0.6175 0.0
C711 C 0.41461 0.98693 0.65064 0.0
C712 C 0.39638 0.99584 0.636 0.0
C713 C 0.38551 0.98074 0.61936 0.0
C714 C 0.42266 0.96349 0.64667 0.0
C715 C 0.41112 0.94899 0.63027 0.0
N716 N 0.35181 0.9098 0.58448 0.0
C717 C 0.31965 0.88113 0.5889 0.0
C718 C 0.32737 0.86822 0.56928 0.0
C719 C 0.34649 0.87782 0.55609 0.0
C720 C 0.3584 0.89876 0.56395 0.0
C721 C 0.332 0.90147 0.59619 0.0
H722 H 0.37363 0.90528 0.55408 0.0
H723 H 0.3261 0.90942 0.61233 0.0
H724 H 0.37095 0.98774 0.60894 0.0
H725 H 0.41689 0.93065 0.62891 0.0
C726 C 0.40066 0.88526 0.61392 0.0
C727 C 0.3407 0.9337 0.65359 0.0
C728 C 0.41583 0.95107 0.5611 0.0
C729 C 0.33332 0.97019 0.57678 0.0
H730 H 0.35523 0.89199 0.68031 0.0
H731 H 0.38646 0.86425 0.6579 0.0
H732 H 0.44349 0.8769 0.58694 0.0
H733 H 0.45328 0.91439 0.55986 0.0
H734 H 0.39542 0.98352 0.52685 0.0
H735 H 0.34904 0.99232 0.53408 0.0
H736 H 0.29598 0.98595 0.60773 0.0
H737 H 0.30223 0.96867 0.65066 0.0
H738 H 0.38966 0.0139 0.63814 0.0
H739 H 0.43727 0.95598 0.65681 0.0
H740 H 0.30459 0.87498 0.59933 0.0
H741 H 0.35295 0.86863 0.54058 0.0
C742 C 0.61137 0.36124 0.64796 0.0
C743 C 0.62998 0.36781 0.66282 0.0
C744 C 0.6395 0.38847 0.65392 0.0
C745 C 0.62626 0.39333 0.63418 0.0
N746 N 0.60884 0.37701 0.62998 0.0
Co747 Co 0.58585 0.37694 0.60296 0.0
N748 N 0.5972 0.40923 0.59181 0.0
C749 C 0.61538 0.42231 0.60097 0.0
C750 C 0.61728 0.44479 0.59148 0.0
C751 C 0.59884 0.44643 0.57575 0.0
C752 C 0.58678 0.42468 0.57638 0.0
N753 N 0.56301 0.37691 0.57581 0.0
C754 C 0.55637 0.39507 0.56134 0.0
C755 C 0.53936 0.38764 0.54509 0.0
C756 C 0.5345 0.36419 0.54999 0.0
C757 C 0.54886 0.35862 0.56877 0.0
N758 N 0.57361 0.34521 0.61431 0.0
C759 C 0.55677 0.33136 0.60388 0.0
C760 C 0.55148 0.31088 0.61605 0.0
C761 C 0.56572 0.31172 0.63552 0.0
C762 C 0.57901 0.33273 0.63401 0.0
N763 N 0.56152 0.39318 0.6228 0.0
C764 C 0.52907 0.41366 0.65505 0.0
C765 C 0.522 0.3947 0.6405 0.0
C766 C 0.53833 0.38501 0.62427 0.0
C767 C 0.55234 0.42257 0.65261 0.0
C768 C 0.56815 0.41209 0.63667 0.0
N769 N 0.61106 0.36003 0.58371 0.0
C770 C 0.62659 0.32252 0.5681 0.0
C771 C 0.6503 0.33087 0.56911 0.0
C772 C 0.65354 0.35493 0.57528 0.0
C773 C 0.63391 0.36907 0.582 0.0
C774 C 0.60745 0.33732 0.57508 0.0
H775 H 0.63804 0.38704 0.58649 0.0
H776 H 0.59 0.32968 0.57389 0.0
H777 H 0.53212 0.37069 0.61331 0.0
H778 H 0.58589 0.41923 0.63627 0.0
C779 C 0.62843 0.41396 0.62036 0.0
C780 C 0.59668 0.33988 0.65157 0.0
C781 C 0.56473 0.41983 0.56311 0.0
C782 C 0.5463 0.33817 0.58262 0.0
H783 H 0.63592 0.35865 0.67853 0.0
H784 H 0.65404 0.39896 0.66124 0.0
H785 H 0.62975 0.45881 0.59636 0.0
H786 H 0.5943 0.4622 0.56568 0.0
H787 H 0.5307 0.39833 0.53171 0.0
H788 H 0.52099 0.35303 0.5418 0.0
H789 H 0.53874 0.29703 0.61138 0.0
H790 H 0.56627 0.29834 0.64926 0.0
H791 H 0.504 0.38744 0.64163 0.0
H792 H 0.55866 0.43712 0.6636 0.0
H793 H 0.62272 0.30445 0.5623 0.0
H794 H 0.67129 0.36277 0.57601 0.0
C795 C 0.15794 0.60173 0.64733 0.0
C796 C 0.15367 0.62141 0.6617 0.0
C797 C 0.13823 0.63618 0.64974 0.0
C798 C 0.13395 0.62485 0.62875 0.0
N799 N 0.14549 0.60372 0.62697 0.0
Co800 Co 0.14549 0.58291 0.5988 0.0
N801 N 0.11646 0.59857 0.58573 0.0
C802 C 0.10786 0.62017 0.59185 0.0
C803 C 0.08637 0.62521 0.58103 0.0
C804 C 0.08122 0.60549 0.5674 0.0
C805 C 0.09998 0.58949 0.57055 0.0
N806 N 0.14541 0.56241 0.57048 0.0
C807 C 0.12684 0.55666 0.55624 0.0
C808 C 0.13411 0.5411 0.53863 0.0
C809 C 0.15807 0.53674 0.54236 0.0
C810 C 0.16407 0.54992 0.56191 0.0
N811 N 0.17424 0.56648 0.61154 0.0
C812 C 0.18937 0.5524 0.59925 0.0
C813 C 0.20703 0.54254 0.61294 0.0
C814 C 0.20303 0.5513 0.63509 0.0
C815 C 0.18324 0.56641 0.63364 0.0
N816 N 0.12496 0.55994 0.61545 0.0
C817 C 0.10135 0.53056 0.6482 0.0
C818 C 0.11984 0.52141 0.63398 0.0
C819 C 0.13123 0.53634 0.61753 0.0
C820 C 0.09362 0.55405 0.64397 0.0
C821 C 0.1057 0.56839 0.6278 0.0
N822 N 0.16645 0.60685 0.5832 0.0
C823 C 0.19927 0.63467 0.58811 0.0
C824 C 0.19202 0.64804 0.56862 0.0
C825 C 0.17274 0.63905 0.55524 0.0
C826 C 0.16028 0.61829 0.56276 0.0
C827 C 0.18632 0.61464 0.59515 0.0
H828 H 0.14502 0.6122 0.55267 0.0
H829 H 0.19189 0.60647 0.61128 0.0
H830 H 0.14593 0.52914 0.60742 0.0
H831 H 0.10014 0.58677 0.62629 0.0
C832 C 0.11721 0.63196 0.61163 0.0
C833 C 0.17593 0.58307 0.65243 0.0
C834 C 0.10241 0.56607 0.55878 0.0
C835 C 0.18437 0.54617 0.57591 0.0
H836 H 0.16133 0.62504 0.67879 0.0
H837 H 0.13079 0.65299 0.65579 0.0
H838 H 0.07494 0.6406 0.58394 0.0
H839 H 0.06528 0.60307 0.55684 0.0
H840 H 0.12311 0.53336 0.52491 0.0
H841 H 0.16926 0.52412 0.53295 0.0
H842 H 0.22082 0.53 0.60763 0.0
H843 H 0.2139 0.54752 0.65038 0.0
H844 H 0.12635 0.5033 0.63632 0.0
H845 H 0.07881 0.56175 0.65371 0.0
H846 H 0.21452 0.64016 0.59864 0.0
H847 H 0.16662 0.64851 0.53976 0.0
C848 C 0.19495 0.69582 0.11021 0.0
C849 C 0.19295 0.68006 0.12941 0.0
C850 C 0.21179 0.71477 0.11026 0.0
C851 C 0.25152 0.75168 0.15042 0.0
H852 H 0.28141 0.77106 0.09201 0.0
C853 C 0.32844 0.82412 0.14776 0.0
C854 C 0.33047 0.83915 0.12798 0.0
C855 C 0.31184 0.80495 0.14834 0.0
C856 C 0.27308 0.76632 0.10854 0.0
H857 H 0.2076 0.67173 0.16344 0.0
H858 H 0.23703 0.70454 0.16376 0.0
H859 H 0.253 0.73799 0.09225 0.0
H860 H 0.31707 0.8447 0.09276 0.0
H861 H 0.28785 0.81209 0.09383 0.0
H862 H 0.27152 0.78014 0.16669 0.0
C863 C 0.22538 0.70264 0.14866 0.0
C864 C 0.2566 0.74707 0.10868 0.0
C865 C 0.2086 0.68362 0.14848 0.0
C866 C 0.31563 0.83406 0.10859 0.0
C867 C 0.29904 0.8149 0.10911 0.0
C868 C 0.26795 0.77103 0.15027 0.0
C869 C 0.22734 0.71871 0.12953 0.0
C870 C 0.24537 0.73933 0.12958 0.0
C871 C 0.29676 0.79983 0.12898 0.0
C872 C 0.27909 0.77886 0.1293 0.0
H873 H 0.18334 0.69356 0.09511 0.0
H874 H 0.21226 0.72662 0.09523 0.0
H875 H 0.24325 0.74676 0.16694 0.0
H876 H 0.3398 0.8272 0.1629 0.0
H877 H 0.31124 0.79386 0.16392 0.0
C878 C 0.82352 0.19364 0.11093 0.0
C879 C 0.83931 0.19123 0.13007 0.0
C880 C 0.80445 0.21034 0.11138 0.0
C881 C 0.78091 0.26506 0.14396 0.0
H882 H 0.72225 0.25018 0.1105 0.0
C883 C 0.6958 0.32736 0.15007 0.0
C884 C 0.68034 0.32915 0.13056 0.0
C885 C 0.71483 0.3106 0.1506 0.0
C886 C 0.73853 0.25499 0.11974 0.0
H887 H 0.8475 0.20498 0.1645 0.0
H888 H 0.81423 0.23373 0.16577 0.0
H889 H 0.75526 0.22172 0.11035 0.0
H890 H 0.67419 0.3154 0.09556 0.0
H891 H 0.70702 0.2864 0.09629 0.0
H892 H 0.76408 0.29833 0.15343 0.0
C893 C 0.81653 0.22301 0.15009 0.0
C894 C 0.75773 0.23845 0.11964 0.0
C895 C 0.83567 0.20636 0.14952 0.0
C896 C 0.685 0.31401 0.1113 0.0
C897 C 0.70406 0.29728 0.11175 0.0
C898 C 0.76167 0.28162 0.14407 0.0
C899 C 0.80036 0.22534 0.13105 0.0
C900 C 0.77948 0.24312 0.1316 0.0
C901 C 0.71941 0.29511 0.13145 0.0
C902 C 0.74006 0.27706 0.13182 0.0
H903 H 0.82595 0.18258 0.09547 0.0
H904 H 0.79306 0.21162 0.09604 0.0
H905 H 0.79718 0.26984 0.15323 0.0
H906 H 0.69306 0.33891 0.16512 0.0
H907 H 0.72578 0.30969 0.16627 0.0
C908 C 0.19068 0.82307 0.39401 0.0
C909 C 0.18957 0.84035 0.37601 0.0
C910 C 0.20723 0.8039 0.3931 0.0
C911 C 0.26356 0.78205 0.36142 0.0
H912 H 0.24736 0.72205 0.39164 0.0
C913 C 0.32484 0.6965 0.35267 0.0
C914 C 0.32697 0.6811 0.37218 0.0
C915 C 0.30807 0.71552 0.35245 0.0
C916 C 0.25246 0.7387 0.38327 0.0
H917 H 0.20658 0.85152 0.34376 0.0
H918 H 0.23456 0.81797 0.34145 0.0
H919 H 0.21892 0.75507 0.39242 0.0
H920 H 0.31374 0.67491 0.40737 0.0
H921 H 0.28453 0.70761 0.40704 0.0
H922 H 0.297 0.76537 0.35198 0.0
C923 C 0.22275 0.819 0.35651 0.0
C924 C 0.23598 0.75793 0.38377 0.0
C925 C 0.20635 0.8383 0.35761 0.0
C926 C 0.31209 0.68571 0.39167 0.0
C927 C 0.29529 0.70468 0.39147 0.0
C928 C 0.27997 0.76272 0.36077 0.0
C929 C 0.22351 0.80119 0.37417 0.0
C930 C 0.24118 0.7802 0.37306 0.0
C931 C 0.29287 0.72003 0.37186 0.0
C932 C 0.27489 0.74066 0.37187 0.0
H933 H 0.17893 0.82454 0.40909 0.0
H934 H 0.20743 0.79141 0.40762 0.0
H935 H 0.26884 0.79868 0.35316 0.0
H936 H 0.33614 0.69373 0.33742 0.0
H937 H 0.30688 0.72654 0.33685 0.0
C938 C 0.83522 0.31287 0.3508 0.0
C939 C 0.83952 0.32757 0.37042 0.0
C940 C 0.81617 0.29608 0.35057 0.0
C941 C 0.75853 0.2797 0.3827 0.0
H942 H 0.76389 0.22052 0.34758 0.0
C943 C 0.68606 0.20393 0.39187 0.0
C944 C 0.68078 0.18914 0.37249 0.0
C945 C 0.70515 0.22062 0.39115 0.0
C946 C 0.76175 0.23703 0.35733 0.0
H947 H 0.82731 0.33551 0.40558 0.0
H948 H 0.79459 0.30622 0.40562 0.0
H949 H 0.7969 0.24916 0.34721 0.0
H950 H 0.69248 0.17992 0.33745 0.0
H951 H 0.72527 0.20909 0.33586 0.0
H952 H 0.72341 0.26766 0.39276 0.0
C953 C 0.80543 0.30787 0.38993 0.0
C954 C 0.78094 0.25367 0.35712 0.0
C955 C 0.82442 0.32468 0.39005 0.0
C956 C 0.69571 0.1912 0.35261 0.0
C957 C 0.71478 0.20793 0.35181 0.0
C958 C 0.73938 0.26308 0.38291 0.0
C959 C 0.80071 0.29324 0.37012 0.0
C960 C 0.77987 0.27536 0.36993 0.0
C961 C 0.71993 0.22313 0.37106 0.0
C962 C 0.74054 0.24126 0.37036 0.0
H963 H 0.84644 0.3147 0.3354 0.0
H964 H 0.81334 0.28568 0.33476 0.0
H965 H 0.75633 0.29623 0.39239 0.0
H966 H 0.67567 0.20232 0.40786 0.0
H967 H 0.70857 0.23124 0.40669 0.0
C968 C 0.85013 0.2871 0.92782 0.0
C969 C 0.84996 0.31057 0.93698 0.0
C970 C 0.82993 0.27216 0.92982 0.0
C971 C 0.76386 0.27467 0.93802 0.0
H972 H 0.76972 0.20658 0.9499 0.0
C973 C 0.67917 0.21486 0.94559 0.0
C974 C 0.68018 0.19203 0.9353 0.0
C975 C 0.70014 0.22849 0.94867 0.0
C976 C 0.76768 0.22551 0.94633 0.0
H977 H 0.82823 0.33606 0.95641 0.0
H978 H 0.79312 0.3102 0.95961 0.0
H979 H 0.80559 0.23171 0.94946 0.0
H980 H 0.70382 0.16552 0.92016 0.0
H981 H 0.74041 0.18916 0.9253 0.0
H982 H 0.72613 0.26854 0.93428 0.0
C983 C 0.80882 0.30347 0.95055 0.0
C984 C 0.78834 0.23997 0.94611 0.0
C985 C 0.82906 0.31836 0.94867 0.0
C986 C 0.70264 0.18283 0.92869 0.0
C987 C 0.72362 0.19649 0.93162 0.0
C988 C 0.74324 0.26021 0.93808 0.0
C989 C 0.80884 0.28022 0.94094 0.0
C990 C 0.78676 0.26478 0.94187 0.0
C991 C 0.72267 0.21979 0.94119 0.0
C992 C 0.74476 0.23535 0.94216 0.0
H993 H 0.8656 0.28046 0.91833 0.0
H994 H 0.8306 0.25451 0.92195 0.0
H995 H 0.76187 0.29359 0.9343 0.0
H996 H 0.66201 0.22253 0.95045 0.0
H997 H 0.69856 0.24609 0.9565 0.0
C998 C 0.30538 0.68541 0.91782 0.0
C999 C 0.31149 0.67018 0.93663 0.0
C1000 C 0.29165 0.70603 0.92138 0.0
C1001 C 0.27253 0.75252 0.96219 0.0
H1002 H 0.21741 0.7567 0.92084 0.0
C1003 C 0.20816 0.83623 0.9603 0.0
C1004 C 0.20098 0.84368 0.93773 0.0
C1005 C 0.22023 0.81422 0.96349 0.0
C1006 C 0.23281 0.75607 0.93241 0.0
H1007 H 0.30914 0.66607 0.97442 0.0
H1008 H 0.28546 0.70287 0.98075 0.0
H1009 H 0.24233 0.72098 0.92039 0.0
H1010 H 0.19993 0.83304 0.9011 0.0
H1011 H 0.22105 0.79567 0.90644 0.0
H1012 H 0.26354 0.78819 0.97346 0.0
C1013 C 0.29111 0.69826 0.96311 0.0
C1014 C 0.24705 0.73543 0.93223 0.0
C1015 C 0.30473 0.67723 0.95949 0.0
C1016 C 0.20546 0.8282 0.91871 0.0
C1017 C 0.21739 0.80643 0.92185 0.0
C1018 C 0.25837 0.77346 0.96217 0.0
C1019 C 0.28386 0.71251 0.94395 0.0
C1020 C 0.26741 0.73354 0.94669 0.0
C1021 C 0.22513 0.79902 0.94422 0.0
C1022 C 0.23863 0.77579 0.94679 0.0
H1023 H 0.31089 0.68119 0.90005 0.0
H1024 H 0.28688 0.71686 0.90631 0.0
H1025 H 0.28812 0.75162 0.97352 0.0
H1026 H 0.20504 0.84769 0.97535 0.0
H1027 H 0.2257 0.80912 0.98103 0.0
C1028 C 0.67084 0.29035 0.57152 0.0
C1029 C 0.67145 0.31465 0.56476 0.0
C1030 C 0.69121 0.27568 0.56924 0.0
C1031 C 0.75737 0.2792 0.5667 0.0
H1032 H 0.75404 0.21354 0.54483 0.0
C1033 C 0.84391 0.22288 0.55857 0.0
C1034 C 0.84281 0.19848 0.56446 0.0
C1035 C 0.82287 0.23633 0.55565 0.0
C1036 C 0.75536 0.23173 0.55127 0.0
H1037 H 0.69423 0.34192 0.54914 0.0
H1038 H 0.72964 0.31659 0.54574 0.0
H1039 H 0.7177 0.23801 0.54583 0.0
H1040 H 0.81883 0.16897 0.57173 0.0
H1041 H 0.78203 0.1924 0.56722 0.0
H1042 H 0.79465 0.27297 0.57301 0.0
C1043 C 0.7134 0.30896 0.55306 0.0
C1044 C 0.73444 0.24582 0.55176 0.0
C1045 C 0.69299 0.32356 0.5551 0.0
C1046 C 0.82018 0.18763 0.56668 0.0
C1047 C 0.79906 0.20118 0.56412 0.0
C1048 C 0.77819 0.26509 0.5665 0.0
C1049 C 0.71291 0.28489 0.56034 0.0
C1050 C 0.73516 0.26978 0.55944 0.0
C1051 C 0.80004 0.22593 0.55911 0.0
C1052 C 0.77763 0.24109 0.55872 0.0
H1053 H 0.65485 0.28276 0.57937 0.0
H1054 H 0.69019 0.25729 0.57523 0.0
H1055 H 0.75859 0.29742 0.57314 0.0
H1056 H 0.86114 0.23174 0.55698 0.0
H1057 H 0.82461 0.25509 0.55117 0.0
C1058 C 0.21051 0.67917 0.54105 0.0
C1059 C 0.20414 0.67163 0.56385 0.0
C1060 C 0.2243 0.70015 0.53768 0.0
C1061 C 0.26919 0.73632 0.56884 0.0
H1062 H 0.25297 0.78974 0.52841 0.0
C1063 C 0.31167 0.8286 0.5833 0.0
C1064 C 0.31628 0.84421 0.56441 0.0
C1065 C 0.29952 0.80697 0.57996 0.0
C1066 C 0.25806 0.77482 0.53948 0.0
H1067 H 0.20561 0.68169 0.60068 0.0
H1068 H 0.22983 0.71731 0.59484 0.0
H1069 H 0.22801 0.75341 0.52804 0.0
H1070 H 0.3122 0.84861 0.52685 0.0
H1071 H 0.29114 0.81029 0.52082 0.0
H1072 H 0.29911 0.7572 0.58033 0.0
C1073 C 0.22466 0.70689 0.57959 0.0
C1074 C 0.24367 0.75401 0.53928 0.0
C1075 C 0.2108 0.68632 0.58291 0.0
C1076 C 0.309 0.83704 0.54179 0.0
C1077 C 0.29669 0.81517 0.5384 0.0
C1078 C 0.28363 0.75684 0.56884 0.0
C1079 C 0.23209 0.71386 0.55704 0.0
C1080 C 0.24871 0.7348 0.5545 0.0
C1081 C 0.29166 0.79985 0.55753 0.0
C1082 C 0.27792 0.77679 0.55476 0.0
H1083 H 0.20567 0.66842 0.52594 0.0
H1084 H 0.22964 0.70513 0.52005 0.0
H1085 H 0.27386 0.72168 0.58045 0.0
H1086 H 0.31725 0.83326 0.60094 0.0
H1087 H 0.29578 0.79609 0.59527 0.0
C1088 C 0.9652 0.42733 0.27399 0.0
C1089 C 0.95908 0.43083 0.29767 0.0
C1090 C 0.98158 0.44274 0.26266 0.0
C1091 C 0.01025 0.50357 0.26828 0.0
H1092 H 0.05404 0.47927 0.22108 0.0
C1093 C 0.08612 0.56326 0.2283 0.0
C1094 C 0.09132 0.56061 0.20428 0.0
C1095 C 0.07051 0.54723 0.23981 0.0
C1096 C 0.0418 0.48651 0.23403 0.0
H1097 H 0.96568 0.45291 0.3282 0.0
H1098 H 0.99436 0.47951 0.30878 0.0
H1099 H 0.02619 0.45198 0.24049 0.0
H1100 H 0.08379 0.53929 0.17342 0.0
H1101 H 0.05674 0.51134 0.19331 0.0
H1102 H 0.02587 0.53809 0.26184 0.0
C1103 C 0.98629 0.46525 0.29861 0.0
C1104 C 0.02569 0.47076 0.24523 0.0
C1105 C 0.96994 0.44987 0.30987 0.0
C1106 C 0.0805 0.54155 0.19205 0.0
C1107 C 0.06498 0.52548 0.20353 0.0
C1108 C 0.02638 0.51931 0.25713 0.0
C1109 C 0.99233 0.4621 0.27473 0.0
C1110 C 0.0096 0.47898 0.26259 0.0
C1111 C 0.05958 0.52806 0.22761 0.0
C1112 C 0.04246 0.51109 0.23978 0.0
H1113 H 0.95708 0.41282 0.26416 0.0
H1114 H 0.98542 0.43971 0.24425 0.0
H1115 H 0.99796 0.51089 0.28115 0.0
H1116 H 0.09402 0.57787 0.23815 0.0
H1117 H 0.06714 0.54981 0.25836 0.0
C1118 C 0.98025 0.08229 0.19396 0.0
C1119 C 0.95898 0.09041 0.20464 0.0
C1120 C 0.99617 0.06708 0.20596 0.0
C1121 C 0.00976 0.04162 0.26625 0.0
H1122 H 0.04915 0.99797 0.23005 0.0
C1123 C 0.08178 0.98221 0.31203 0.0
C1124 C 0.08793 0.95992 0.30221 0.0
C1125 C 0.06671 0.99826 0.30002 0.0
C1126 C 0.03814 0.00972 0.24065 0.0
H1127 H 0.93758 0.08836 0.23623 0.0
H1128 H 0.96458 0.0611 0.25688 0.0
H1129 H 0.02147 0.0244 0.21005 0.0
H1130 H 0.08243 0.93682 0.27224 0.0
H1131 H 0.05538 0.96411 0.25167 0.0
H1132 H 0.02538 0.02594 0.29691 0.0
C1133 C 0.96968 0.06711 0.23953 0.0
C1134 C 0.02239 0.02543 0.229 0.0
C1135 C 0.95398 0.08271 0.22763 0.0
C1136 C 0.07833 0.954 0.28013 0.0
C1137 C 0.06287 0.96986 0.26827 0.0
C1138 C 0.02522 0.02563 0.27791 0.0
C1139 C 0.99113 0.05892 0.22893 0.0
C1140 C 1.00794 0.04184 0.24153 0.0
C1141 C 0.05671 0.99236 0.27797 0.0
C1142 C 0.03986 0.00941 0.26538 0.0
H1143 H 0.98448 0.08753 0.17612 0.0
H1144 H 0.01252 0.06183 0.19709 0.0
H1145 H 0.99941 0.05399 0.27681 0.0
H1146 H 0.08851 0.9872 0.3292 0.0
H1147 H 0.06305 0.01539 0.30816 0.0
C1148 C 0.56476 0.08269 0.27505 0.0
C1149 C 0.56135 0.08781 0.29899 0.0
C1150 C 0.54894 0.06732 0.26297 0.0
C1151 C 0.50239 0.0196 0.27319 0.0
H1152 H 0.48654 0.03125 0.20794 0.0
C1153 C 0.42962 0.96327 0.22392 0.0
C1154 C 0.43406 0.95734 0.20034 0.0
C1155 C 0.44465 0.97947 0.23594 0.0
C1156 C 0.49092 0.02749 0.22609 0.0
H1157 H 0.53883 0.0805 0.3291 0.0
H1158 H 0.51095 0.05428 0.30812 0.0
H1159 H 0.5134 0.0586 0.22852 0.0
H1160 H 0.45746 0.96399 0.17075 0.0
H1161 H 0.48375 0.99198 0.19156 0.0
H1162 H 0.47989 0.98849 0.27074 0.0
C1163 C 0.52593 0.06184 0.29853 0.0
C1164 C 0.50644 0.04327 0.23797 0.0
C1165 C 0.54176 0.07715 0.31057 0.0
C1166 C 0.45364 0.96821 0.18895 0.0
C1167 C 0.46862 0.98441 0.2009 0.0
C1168 C 0.48684 1.00384 0.26132 0.0
C1169 C 0.52927 0.05651 0.27452 0.0
C1170 C 0.51251 0.03963 0.26175 0.0
C1171 C 0.46448 0.9903 0.22466 0.0
C1172 C 0.48084 1.00745 0.23753 0.0
H1173 H 0.57988 0.09036 0.26575 0.0
H1174 H 0.5525 0.06351 0.24466 0.0
H1175 H 0.50683 0.01575 0.29131 0.0
H1176 H 0.41458 0.95527 0.23308 0.0
H1177 H 0.44054 0.98369 0.25407 0.0
C1178 C 0.55651 0.45548 0.19483 0.0
C1179 C 0.56362 0.43353 0.20474 0.0
C1180 C 0.54022 0.47061 0.20646 0.0
C1181 C 0.51121 0.48139 0.26548 0.0
H1182 H 0.47028 0.52336 0.22905 0.0
C1183 C 0.45437 0.55593 0.31049 0.0
C1184 C 0.43257 0.56326 0.30032 0.0
C1185 C 0.46963 0.53973 0.29891 0.0
C1186 C 0.48127 0.51162 0.23967 0.0
H1187 H 0.55846 0.40994 0.23438 0.0
H1188 H 0.52941 0.43577 0.25442 0.0
H1189 H 0.49696 0.49569 0.20909 0.0
H1190 H 0.40932 0.55851 0.27032 0.0
H1191 H 0.43538 0.52961 0.25035 0.0
H1192 H 0.49478 0.49657 0.29605 0.0
C1193 C 0.53699 0.44186 0.23797 0.0
C1194 C 0.49706 0.49586 0.22809 0.0
C1195 C 0.55356 0.42685 0.22641 0.0
C1196 C 0.42613 0.55344 0.27848 0.0
C1197 C 0.44127 0.53696 0.26696 0.0
C1198 C 0.49524 0.49696 0.27705 0.0
C1199 C 0.53006 0.46413 0.22827 0.0
C1200 C 0.51253 0.48055 0.24075 0.0
C1201 C 0.46344 0.52988 0.27689 0.0
C1202 C 0.48006 0.51256 0.2644 0.0
H1203 H 0.5637 0.46104 0.17801 0.0
H1204 H 0.53591 0.48759 0.19835 0.0
H1205 H 0.52283 0.47026 0.27611 0.0
H1206 H 0.45974 0.56294 0.32744 0.0
H1207 H 0.48653 0.53529 0.3072 0.0
C1208 C 0.08766 0.49164 0.6671 0.0
C1209 C 0.09105 0.51663 0.66829 0.0
C1210 C 0.07761 0.47911 0.68613 0.0
C1211 C 0.03828 0.48843 0.73715 0.0
H1212 H 0.06633 0.43048 0.76265 0.0
C1213 C 1.00429 0.44995 0.82451 0.0
C1214 C 1.00248 0.42498 0.82687 0.0
C1215 C 0.01634 0.46007 0.8054 0.0
C1216 C 0.05804 0.44647 0.75558 0.0
H1217 H 0.08769 0.54759 0.69122 0.0
H1218 H 0.06966 0.52597 0.72369 0.0
H1219 H 0.08438 0.44945 0.72812 0.0
H1220 H 0.01238 0.391 0.8113 0.0
H1221 H 0.03301 0.40861 0.77754 0.0
H1222 H 0.01171 0.48547 0.76401 0.0
C1223 C 0.07441 0.51612 0.70795 0.0
C1224 C 0.06844 0.45733 0.7358 0.0
C1225 C 0.08464 0.52855 0.68918 0.0
C1226 C 0.01367 0.41032 0.81004 0.0
C1227 C 0.02552 0.42046 0.79069 0.0
C1228 C 0.02777 0.47749 0.75668 0.0
C1229 C 0.07057 0.49132 0.70663 0.0
C1230 C 0.05885 0.47864 0.72659 0.0
C1231 C 0.02663 0.44551 0.78786 0.0
C1232 C 0.03767 0.45655 0.76646 0.0
H1233 H 0.09229 0.48183 0.65134 0.0
H1234 H 0.07481 0.45997 0.68458 0.0
H1235 H 0.03021 0.5046 0.73022 0.0
H1236 H 0.99611 0.4617 0.83738 0.0
H1237 H 0.01738 0.4794 0.8043 0.0
C1238 C 0.08523 0.98724 0.81108 0.0
C1239 C 0.09159 0.9994 0.83186 0.0
C1240 C 0.07498 0.99943 0.79219 0.0
C1241 C 0.06856 0.058 0.76389 0.0
H1242 H 0.01187 0.02926 0.73617 0.0
C1243 C 0.01257 0.10464 0.6905 0.0
C1244 C 1.00117 0.09 0.67378 0.0
C1245 C 0.02482 0.09449 0.70957 0.0
C1246 C 0.02792 0.03739 0.74335 0.0
H1247 H 0.0928 0.03437 0.84845 0.0
H1248 H 0.07523 0.05582 0.81501 0.0
H1249 H 0.03075 0.0104 0.76989 0.0
H1250 H 0.99482 0.05329 0.66321 0.0
H1251 H 0.01681 0.03556 0.69583 0.0
H1252 H 0.06604 0.08474 0.737 0.0
C1253 C 0.07809 0.03669 0.81365 0.0
C1254 C 0.03865 0.02662 0.76284 0.0
C1255 C 0.08818 0.02438 0.83279 0.0
C1256 C 1.00318 0.06503 0.67597 0.0
C1257 C 0.01564 0.05489 0.69483 0.0
C1258 C 0.05794 0.0687 0.74415 0.0
C1259 C 0.07105 0.02423 0.79328 0.0
C1260 C 0.05919 0.03665 0.77325 0.0
C1261 C 0.02615 0.06944 0.71226 0.0
C1262 C 0.03756 0.05842 0.73347 0.0
H1263 H 0.0883 0.96818 0.80925 0.0
H1264 H 0.07024 0.9894 0.77657 0.0
H1265 H 0.08448 0.06606 0.77144 0.0
H1266 H 0.01111 0.12395 0.6894 0.0
H1267 H 0.03244 0.10633 0.72266 0.0
C1268 C 0.51124 0.06616 0.82635 0.0
C1269 C 0.51503 0.09095 0.82852 0.0
C1270 C 0.49755 0.05695 0.80783 0.0
C1271 C 0.47976 0.06993 0.74731 0.0
H1272 H 0.4336 0.01894 0.75707 0.0
C1273 C 0.42762 0.02595 0.66971 0.0
C1274 C 0.42418 1.001 0.67097 0.0
C1275 C 0.43663 0.03871 0.68907 0.0
C1276 C 0.44662 0.03298 0.75392 0.0
H1277 H 0.50727 0.12554 0.81306 0.0
H1278 H 0.48348 0.10938 0.78046 0.0
H1279 H 0.45294 0.03764 0.79078 0.0
H1280 H 0.42684 0.97021 0.69414 0.0
H1281 H 0.44335 0.992 0.72707 0.0
H1282 H 0.47418 0.06472 0.71043 0.0
C1283 C 0.49104 0.09712 0.79321 0.0
C1284 C 0.45762 0.04377 0.77332 0.0
C1285 C 0.50444 0.10638 0.81198 0.0
C1286 C 0.42971 0.98929 0.69218 0.0
C1287 C 0.43882 1.00194 0.71136 0.0
C1288 C 0.46896 0.05893 0.72784 0.0
C1289 C 0.48762 0.07228 0.79081 0.0
C1290 C 0.47455 0.06215 0.77024 0.0
C1291 C 0.4424 0.02685 0.71018 0.0
C1292 C 0.45251 0.04001 0.73086 0.0
H1293 H 0.51916 0.05386 0.83885 0.0
H1294 H 0.49541 0.03772 0.80639 0.0
H1295 H 0.4929 0.08392 0.74435 0.0
H1296 H 0.42363 0.0356 0.65369 0.0
H1297 H 0.43891 0.0579 0.68752 0.0
C1298 C 0.50175 0.40903 0.69 0.0
C1299 C 0.51297 0.42387 0.67334 0.0
C1300 C 0.48957 0.41901 0.70924 0.0
C1301 C 0.48728 0.47578 0.74353 0.0
H1302 H 0.43045 0.44792 0.77188 0.0
C1303 C 0.43121 0.52688 0.81156 0.0
C1304 C 0.4243 0.5148 0.8322 0.0
C1305 C 0.44132 0.51451 0.7927 0.0
C1306 C 0.44646 0.45575 0.76426 0.0
H1307 H 0.51891 0.46067 0.6629 0.0
H1308 H 0.49706 0.47807 0.69578 0.0
H1309 H 0.44842 0.42902 0.73724 0.0
H1310 H 0.4221 0.47981 0.84862 0.0
H1311 H 0.43946 0.45805 0.81525 0.0
H1312 H 0.48509 0.5027 0.77019 0.0
C1313 C 0.49833 0.45875 0.69464 0.0
C1314 C 0.45678 0.44493 0.74441 0.0
C1315 C 0.51069 0.4488 0.67563 0.0
C1316 C 0.42713 0.48974 0.83305 0.0
C1317 C 0.4371 0.47726 0.81395 0.0
C1318 C 0.47687 0.48665 0.76314 0.0
C1319 C 0.48818 0.44405 0.71212 0.0
C1320 C 0.47721 0.45497 0.7336 0.0
C1321 C 0.4446 0.4896 0.79368 0.0
C1322 C 0.4562 0.47695 0.77362 0.0
H1323 H 0.50341 0.38974 0.68876 0.0
H1324 H 0.48212 0.40708 0.72234 0.0
H1325 H 0.50339 0.48369 0.73624 0.0
H1326 H 0.42861 0.54602 0.80979 0.0
H1327 H 0.44641 0.52449 0.77715 0.0
C1328 C 0.21946 0.67529 0.21699 0.0
C1329 C 0.19727 0.66709 0.22564 0.0
C1330 C 0.23164 0.69383 0.22845 0.0
C1331 C 0.23256 0.73164 0.28183 0.0
H1332 H 0.22604 0.78482 0.23854 0.0
C1333 C 0.18474 0.81478 0.30714 0.0
C1334 C 0.18848 0.83694 0.29609 0.0
C1335 C 0.1986 0.79502 0.30131 0.0
C1336 C 0.22888 0.77033 0.25086 0.0
H1337 H 0.17189 0.66956 0.25432 0.0
H1338 H 0.19337 0.70142 0.27467 0.0
H1339 H 0.22855 0.74424 0.22338 0.0
H1340 H 0.21081 0.85615 0.27125 0.0
H1341 H 0.23512 0.82105 0.26055 0.0
H1342 H 0.23175 0.75762 0.30939 0.0
C1343 C 0.20126 0.69385 0.25894 0.0
C1344 C 0.23025 0.747 0.24214 0.0
C1345 C 0.18884 0.67578 0.24722 0.0
C1346 C 0.20731 0.83917 0.27978 0.0
C1347 C 0.22123 0.81915 0.27375 0.0
C1348 C 0.23172 0.75498 0.29053 0.0
C1349 C 0.2221 0.70386 0.24904 0.0
C1350 C 0.23033 0.72743 0.25764 0.0
C1351 C 0.21671 0.79674 0.28421 0.0
C1352 C 0.22773 0.77435 0.27521 0.0
H1353 H 0.22648 0.66866 0.20051 0.0
H1354 H 0.24768 0.70128 0.22052 0.0
H1355 H 0.23289 0.71682 0.2941 0.0
H1356 H 0.17096 0.81264 0.32041 0.0
H1357 H 0.19424 0.77807 0.30951 0.0
C1358 C 0.84357 0.21656 0.21687 0.0
C1359 C 0.85009 0.19365 0.22494 0.0
C1360 C 0.82419 0.22868 0.227 0.0
C1361 C 0.77949 0.22685 0.27542 0.0
H1362 H 0.73261 0.23005 0.22515 0.0
C1363 C 0.68319 0.18751 0.26309 0.0
C1364 C 0.67222 0.19435 0.2842 0.0
C1365 C 0.70331 0.19978 0.25489 0.0
C1366 C 0.74551 0.22968 0.23938 0.0
H1367 H 0.84374 0.16697 0.25182 0.0
H1368 H 0.8102 0.18813 0.26968 0.0
H1369 H 0.77528 0.22966 0.21571 0.0
H1370 H 0.6723 0.22051 0.31235 0.0
H1371 H 0.7079 0.2418 0.29818 0.0
H1372 H 0.74969 0.22493 0.29898 0.0
C1373 C 0.81975 0.19668 0.25538 0.0
C1374 C 0.76996 0.22967 0.23402 0.0
C1375 C 0.83881 0.1844 0.24502 0.0
C1376 C 0.68042 0.21495 0.29594 0.0
C1377 C 0.70082 0.22705 0.28792 0.0
C1378 C 0.75503 0.22703 0.2808 0.0
C1379 C 0.81143 0.21828 0.24566 0.0
C1380 C 0.78709 0.22675 0.25191 0.0
C1381 C 0.71303 0.21893 0.26785 0.0
C1382 C 0.73783 0.22694 0.26272 0.0
H1383 H 0.85216 0.2243 0.2016 0.0
H1384 H 0.81822 0.24539 0.21931 0.0
H1385 H 0.79239 0.22486 0.28953 0.0
H1386 H 0.67711 0.17173 0.25372 0.0
H1387 H 0.71243 0.19292 0.23948 0.0
C1388 C 0.33137 0.68154 0.25969 0.0
C1389 C 0.32435 0.67181 0.2813 0.0
C1390 C 0.31925 0.70124 0.25043 0.0
C1391 C 0.29132 0.75422 0.27377 0.0
H1392 H 0.2915 0.77165 0.20789 0.0
C1393 C 0.33418 0.83805 0.23926 0.0
C1394 C 0.32687 0.84826 0.21796 0.0
C1395 C 0.32157 0.81879 0.24877 0.0
C1396 C 0.29061 0.76716 0.22638 0.0
H1397 H 0.29824 0.67369 0.30945 0.0
H1398 H 0.27736 0.70854 0.29357 0.0
H1399 H 0.29055 0.72957 0.21897 0.0
H1400 H 0.29977 0.84763 0.19067 0.0
H1401 H 0.27777 0.81361 0.2072 0.0
H1402 H 0.29261 0.79178 0.28116 0.0
C1403 C 0.29195 0.70081 0.28357 0.0
C1404 C 0.29035 0.743 0.2327 0.0
C1405 C 0.30385 0.68082 0.29262 0.0
C1406 C 0.30566 0.84011 0.20723 0.0
C1407 C 0.29316 0.8206 0.21661 0.0
C1408 C 0.29148 0.77837 0.26745 0.0
C1409 C 0.30013 0.71181 0.26285 0.0
C1410 C 0.29227 0.73631 0.25641 0.0
C1411 C 0.30156 0.80915 0.237 0.0
C1412 C 0.29277 0.78501 0.24369 0.0
H1413 H 0.34716 0.67485 0.25071 0.0
H1414 H 0.32625 0.7094 0.2346 0.0
H1415 H 0.29266 0.7497 0.29222 0.0
H1416 H 0.35045 0.8441 0.24785 0.0
H1417 H 0.32875 0.81024 0.26434 0.0
C1418 C 0.68138 0.30339 0.20696 0.0
C1419 C 0.67362 0.32405 0.21888 0.0
C1420 C 0.70174 0.29102 0.21464 0.0
C1421 C 0.74716 0.28786 0.26251 0.0
H1422 H 0.79326 0.29236 0.21162 0.0
C1423 C 0.84014 0.33329 0.25521 0.0
C1424 C 0.85152 0.32448 0.27541 0.0
C1425 C 0.82114 0.32071 0.2451 0.0
C1426 C 0.78059 0.29045 0.22594 0.0
H1427 H 0.67924 0.34651 0.24934 0.0
H1428 H 0.71447 0.32485 0.26302 0.0
H1429 H 0.75044 0.29251 0.20285 0.0
H1430 H 0.85389 0.29421 0.29919 0.0
H1431 H 0.82008 0.27254 0.28189 0.0
H1432 H 0.77727 0.28782 0.28572 0.0
C1433 C 0.70504 0.31814 0.24773 0.0
C1434 C 0.75605 0.2904 0.22094 0.0
C1435 C 0.68497 0.33068 0.23986 0.0
C1436 C 0.84523 0.30162 0.28381 0.0
C1437 C 0.82591 0.28918 0.27392 0.0
C1438 C 0.77168 0.28778 0.26749 0.0
C1439 C 0.71434 0.29892 0.23456 0.0
C1440 C 0.73913 0.29065 0.2393 0.0
C1441 C 0.81298 0.29922 0.25519 0.0
C1442 C 0.78856 0.29061 0.24934 0.0
H1443 H 0.67295 0.298 0.19064 0.0
H1444 H 0.70848 0.27623 0.20423 0.0
H1445 H 0.73448 0.28758 0.27694 0.0
H1446 H 0.8449 0.35068 0.24815 0.0
H1447 H 0.81147 0.32899 0.23073 0.0
C1448 C 0.92496 0.18033 0.70432 0.0
C1449 C 0.92094 0.1882 0.68129 0.0
C1450 C 0.92076 0.19571 0.72335 0.0
C1451 C 0.8927 0.25513 0.73886 0.0
H1452 H 0.93503 0.25045 0.79269 0.0
C1453 C 0.91428 0.32985 0.80786 0.0
C1454 C 0.91099 0.32299 0.83136 0.0
C1455 C 0.91148 0.31307 0.78978 0.0
C1456 C 0.92298 0.25181 0.77781 0.0
H1457 H 0.90836 0.21768 0.65995 0.0
H1458 H 0.90258 0.24501 0.69266 0.0
H1459 H 0.93862 0.22148 0.7609 0.0
H1460 H 0.90103 0.29385 0.85445 0.0
H1461 H 0.89696 0.26424 0.82283 0.0
H1462 H 0.87824 0.28654 0.7555 0.0
C1463 C 0.90834 0.22692 0.69647 0.0
C1464 C 0.92486 0.23509 0.75961 0.0
C1465 C 0.912 0.21138 0.6776 0.0
C1466 C 0.9037 0.29946 0.83642 0.0
C1467 C 0.90146 0.28257 0.81843 0.0
C1468 C 0.89126 0.27219 0.75683 0.0
C1469 C 0.91277 0.21942 0.71969 0.0
C1470 C 0.90984 0.23653 0.73975 0.0
C1471 C 0.9058 0.28914 0.79502 0.0
C1472 C 0.90642 0.27067 0.7764 0.0
H1473 H 0.93146 0.16235 0.70756 0.0
H1474 H 0.9238 0.18894 0.7409 0.0
H1475 H 0.88035 0.25665 0.72427 0.0
H1476 H 0.92003 0.34787 0.80362 0.0
H1477 H 0.91499 0.31846 0.77182 0.0
C1478 C 0.33211 0.93517 0.69703 0.0
C1479 C 0.32426 0.93059 0.67404 0.0
C1480 C 0.31609 0.93325 0.71595 0.0
C1481 C 0.25437 0.94173 0.73128 0.0
H1482 H 0.26347 0.89749 0.78291 0.0
C1483 C 0.1834 0.93409 0.80513 0.0
C1484 C 0.19167 0.92952 0.82793 0.0
C1485 C 0.19906 0.93226 0.78592 0.0
C1486 C 0.26076 0.9103 0.76891 0.0
H1487 H 0.29408 0.91919 0.65281 0.0
H1488 H 0.26582 0.9169 0.68574 0.0
H1489 H 0.29281 0.8989 0.75111 0.0
H1490 H 0.22224 0.91828 0.84858 0.0
H1491 H 0.24989 0.91653 0.81563 0.0
H1492 H 0.22312 0.95416 0.74925 0.0
C1493 C 0.28429 0.92195 0.68911 0.0
C1494 C 0.27757 0.91093 0.75063 0.0
C1495 C 0.30039 0.92331 0.67035 0.0
C1496 C 0.21557 0.92227 0.83114 0.0
C1497 C 0.23134 0.92096 0.81211 0.0
C1498 C 0.23786 0.94155 0.74981 0.0
C1499 C 0.29193 0.92708 0.71204 0.0
C1500 C 0.27446 0.9266 0.73165 0.0
C1501 C 0.22344 0.92613 0.78916 0.0
C1502 C 0.24074 0.92581 0.76896 0.0
H1503 H 0.3505 0.94057 0.70026 0.0
H1504 H 0.32235 0.93721 0.73353 0.0
H1505 H 0.25169 0.95406 0.71683 0.0
H1506 H 0.16492 0.93934 0.80224 0.0
H1507 H 0.19198 0.93573 0.76855 0.0
C1508 C 0.57707 0.18466 0.80177 0.0
C1509 C 0.59546 0.18336 0.81852 0.0
C1510 C 0.57858 0.20106 0.78322 0.0
C1511 C 0.6211 0.24085 0.75111 0.0
H1512 H 0.56306 0.27513 0.7344 0.0
C1513 C 0.61482 0.30367 0.67027 0.0
C1514 C 0.60052 0.32422 0.67228 0.0
C1515 C 0.6156 0.28691 0.68852 0.0
C1516 C 0.5795 0.26591 0.739 0.0
H1517 H 0.62962 0.19803 0.82941 0.0
H1518 H 0.63236 0.22671 0.79711 0.0
H1519 H 0.56158 0.2444 0.76468 0.0
H1520 H 0.57631 0.34395 0.69474 0.0
H1521 H 0.57799 0.31498 0.72703 0.0
H1522 H 0.63911 0.26278 0.72576 0.0
C1523 C 0.61702 0.21482 0.79784 0.0
C1524 C 0.57858 0.24799 0.75613 0.0
C1525 C 0.6155 0.19842 0.81634 0.0
C1526 C 0.58759 0.32825 0.69302 0.0
C1527 C 0.58837 0.31152 0.7113 0.0
C1528 C 0.62203 0.25879 0.73396 0.0
C1529 C 0.59843 0.21659 0.7812 0.0
C1530 C 0.59935 0.23521 0.76243 0.0
C1531 C 0.60201 0.29039 0.70911 0.0
C1532 C 0.60124 0.2716 0.72771 0.0
H1533 H 0.56133 0.17338 0.80337 0.0
H1534 H 0.56407 0.20172 0.77058 0.0
H1535 H 0.63742 0.23126 0.75536 0.0
H1536 H 0.62465 0.30016 0.65421 0.0
H1537 H 0.62609 0.27077 0.68608 0.0
C1538 C 0.33302 0.58194 0.80333 0.0
C1539 C 0.32514 0.58695 0.82622 0.0
C1540 C 0.31713 0.584 0.78433 0.0
C1541 C 0.25558 0.57564 0.76926 0.0
H1542 H 0.26431 0.61905 0.71688 0.0
C1543 C 0.18411 0.58206 0.6959 0.0
C1544 C 0.1922 0.58629 0.67297 0.0
C1545 C 0.19994 0.58416 0.71494 0.0
C1546 C 0.26171 0.60646 0.7311 0.0
H1547 H 0.29517 0.5993 0.84722 0.0
H1548 H 0.26716 0.60195 0.81414 0.0
H1549 H 0.29382 0.61829 0.74855 0.0
H1550 H 0.22263 0.59711 0.65187 0.0
H1551 H 0.25057 0.5993 0.68455 0.0
H1552 H 0.2243 0.5628 0.75167 0.0
C1553 C 0.28553 0.59649 0.81089 0.0
C1554 C 0.27861 0.60621 0.74931 0.0
C1555 C 0.30149 0.59497 0.82973 0.0
C1556 C 0.2161 0.59338 0.66943 0.0
C1557 C 0.23203 0.59495 0.68829 0.0
C1558 C 0.23899 0.57545 0.75083 0.0
C1559 C 0.29312 0.59076 0.78809 0.0
C1560 C 0.27562 0.59086 0.76854 0.0
C1561 C 0.2243 0.5902 0.71139 0.0
C1562 C 0.24173 0.59089 0.73143 0.0
H1563 H 0.35124 0.57591 0.80027 0.0
H1564 H 0.32334 0.57954 0.76683 0.0
H1565 H 0.25302 0.56355 0.78392 0.0
H1566 H 0.16563 0.57694 0.69905 0.0
H1567 H 0.19299 0.581 0.73242 0.0
C1568 C 0.07691 0.57101 0.04559 0.0
C1569 C 0.08498 0.56169 0.06716 0.0
C1570 C 0.06421 0.55644 0.02958 0.0
C1571 C 0.04833 0.49151 0.01781 0.0
H1572 H 0.99605 0.51853 0.98157 0.0
C1573 C 0.97198 0.43371 0.97875 0.0
C1574 C 0.96918 0.43525 0.95426 0.0
C1575 C 0.98628 0.4503 0.99086 0.0
C1576 C 0.01069 0.51079 0.99152 0.0
H1577 H 0.08719 0.52912 0.08786 0.0
H1578 H 0.06447 0.50456 0.06116 0.0
H1579 H 0.02169 0.54491 0.00513 0.0
H1580 H 0.97761 0.45646 0.92355 0.0
H1581 H 1.00192 0.48617 0.94496 0.0
H1582 H 0.03649 0.45732 0.00507 0.0
C1583 C 0.06804 0.52288 0.05603 0.0
C1584 C 0.02556 0.52592 0.00494 0.0
C1585 C 0.08086 0.53724 0.07173 0.0
C1586 C 0.97968 0.45472 0.94239 0.0
C1587 C 0.99356 0.47169 0.95462 0.0
C1588 C 0.03318 0.47644 0.00487 0.0
C1589 C 0.05924 0.53215 0.03472 0.0
C1590 C 0.04447 0.51649 0.01863 0.0
C1591 C 0.99749 0.46931 0.97892 0.0
C1592 C 0.01403 0.48582 0.99177 0.0
H1593 H 0.07973 0.58972 0.0414 0.0
H1594 H 0.05817 0.56431 0.01325 0.0
H1595 H 0.06305 0.48339 0.02729 0.0
H1596 H 0.96365 0.41922 0.98842 0.0
H1597 H 0.98872 0.44818 0.00962 0.0
C1598 C 0.06959 0.95494 0.97311 0.0
C1599 C 0.08165 0.96429 0.95347 0.0
C1600 C 0.05221 0.9686 0.98504 0.0
C1601 C 0.03272 0.03186 0.99486 0.0
H1602 H 0.97593 1.00213 0.02121 0.0
C1603 C 0.96063 0.08776 0.04549 0.0
C1604 C 0.95139 0.07733 0.0661 0.0
C1605 C 0.97461 0.07417 0.0297 0.0
C1606 C 0.99177 0.01078 0.01418 0.0
H1607 H 0.08527 0.99544 0.93121 0.0
H1608 H 0.05484 0.01921 0.95171 0.0
H1609 H 1.00397 0.97815 0.99826 0.0
H1610 H 0.94861 0.04399 0.08541 0.0
H1611 H 0.97284 0.02063 0.05836 0.0
H1612 H 0.02073 0.06441 0.0111 0.0
C1613 C 0.05871 1.00134 0.95803 0.0
C1614 C 1.00794 0.99693 1.00096 0.0
C1615 C 0.076 0.98764 0.9461 0.0
C1616 C 0.95558 0.05274 0.06986 0.0
C1617 C 0.9694 0.03921 0.05414 0.0
C1618 C 0.01657 0.04571 0.00815 0.0
C1619 C 0.04662 0.99213 0.97782 0.0
C1620 C 0.02882 1.00717 0.99124 0.0
C1621 C 0.97956 0.04973 0.03398 0.0
C1622 C 0.99593 0.03536 0.01826 0.0
H1623 H 0.07416 0.93734 0.97975 0.0
H1624 H 0.04373 0.96095 1.00042 0.0
H1625 H 0.04868 0.04043 0.988 0.0
H1626 H 0.95789 0.10664 0.04206 0.0
H1627 H 0.98177 0.08291 0.01424 0.0
C1628 C 0.46967 0.95322 0.06456 0.0
C1629 C 0.44484 0.94945 0.06171 0.0
C1630 C 0.48278 0.96701 0.0485 0.0
C1631 C 0.4752 0.01481 0.00352 0.0
H1632 H 0.54211 1.001 0.99056 0.0
C1633 C 0.53248 0.07349 0.93983 0.0
C1634 C 0.55638 0.07819 0.94629 0.0
C1635 C 0.51861 0.0567 0.95225 0.0
C1636 C 0.52351 1.00531 0.99413 0.0
H1637 H 0.41459 0.95669 0.03896 0.0
H1638 H 0.43756 0.98056 0.01054 0.0
H1639 H 0.5185 0.97313 0.01401 0.0
H1640 H 0.58408 0.06979 0.97157 0.0
H1641 H 0.56016 0.04029 0.9931 0.0
H1642 H 0.48032 0.0471 0.9837 0.0
C1643 C 0.44684 0.97307 0.02554 0.0
C1644 C 0.50988 0.98924 0.00764 0.0
C1645 C 0.43368 0.9591 0.04167 0.0
C1646 C 0.56601 0.06594 0.96566 0.0
C1647 C 0.5522 0.04907 0.97804 0.0
C1648 C 0.48884 0.03088 0.98994 0.0
C1649 C 0.47157 0.97756 0.02891 0.0
C1650 C 0.48556 0.99385 0.01284 0.0
C1651 C 0.52823 0.0442 0.97159 0.0
C1652 C 0.51331 0.02653 0.98525 0.0
H1653 H 0.47897 0.94592 0.07966 0.0
H1654 H 0.50163 0.97012 0.05201 0.0
H1655 H 0.45669 0.01928 0.00733 0.0
H1656 H 0.52449 0.08293 0.92516 0.0
H1657 H 0.50036 0.05341 0.94657 0.0
C1658 C 0.43073 0.5499 0.9808 0.0
C1659 C 0.43134 0.55174 0.95619 0.0
C1660 C 0.44784 0.53618 0.99285 0.0
C1661 C 0.50838 0.51097 0.99209 0.0
H1662 H 0.48138 0.461 0.03121 0.0
C1663 C 0.56957 0.44542 0.04612 0.0
C1664 C 0.56099 0.43826 0.06831 0.0
C1665 C 0.55462 0.45802 0.03035 0.0
C1666 C 0.48944 0.47507 0.02079 0.0
H1667 H 0.45162 0.54242 0.9251 0.0
H1668 H 0.48226 0.51908 0.94633 0.0
H1669 H 0.4549 0.4871 0.00903 0.0
H1670 H 0.52921 0.43765 0.09039 0.0
H1671 H 0.5041 0.4602 0.06409 0.0
H1672 H 0.54292 0.49974 0.00465 0.0
C1673 C 0.46807 0.52773 0.9562 0.0
C1674 C 0.47411 0.48997 0.00787 0.0
C1675 C 0.45058 0.54109 0.94406 0.0
C1676 C 0.53683 0.44326 0.07377 0.0
C1677 C 0.52211 0.45598 0.05831 0.0
C1678 C 0.52381 0.49635 0.00547 0.0
C1679 C 0.46649 0.52456 0.98068 0.0
C1680 C 0.48331 0.50827 0.99354 0.0
C1681 C 0.53066 0.4638 0.03632 0.0
C1682 C 0.51458 0.47832 0.02037 0.0
H1683 H 0.41649 0.55846 0.99068 0.0
H1684 H 0.44633 0.53441 0.01174 0.0
H1685 H 0.51602 0.52492 0.98118 0.0
H1686 H 0.58802 0.44193 0.0412 0.0
H1687 H 0.56194 0.46329 0.01351 0.0
C1688 C 0.05502 0.95937 0.43749 0.0
C1689 C 0.07962 0.95514 0.44134 0.0
C1690 C 0.04131 0.97259 0.45351 0.0
C1691 C 0.04714 0.01835 0.50058 0.0
H1692 H 0.97963 1.00446 0.51015 0.0
C1693 C 0.98745 0.07564 0.56312 0.0
C1694 C 0.96399 0.08084 0.55562 0.0
C1695 C 1.00166 0.05891 0.55104 0.0
C1696 C 0.9984 0.00878 0.50754 0.0
H1697 H 0.10882 0.96089 0.46577 0.0
H1698 H 0.08477 0.98385 0.4941 0.0
H1699 H 1.00417 0.97728 0.4868 0.0
H1700 H 0.9374 0.07328 0.52895 0.0
H1701 H 0.96194 0.04387 0.50798 0.0
H1702 H 0.04127 0.04999 0.52118 0.0
C1703 C 0.07616 0.97714 0.47837 0.0
C1704 C 0.01256 0.99311 0.49411 0.0
C1705 C 0.08992 0.96373 0.46228 0.0
C1706 C 0.95509 0.06904 0.53564 0.0
C1707 C 0.96926 0.05223 0.52357 0.0
C1708 C 0.03297 0.03402 0.51407 0.0
C1709 C 0.05168 0.98208 0.47404 0.0
C1710 C 0.0371 0.99779 0.49012 0.0
C1711 C 0.99285 0.04698 0.53099 0.0
C1712 C 1.00829 0.02964 0.51753 0.0
H1713 H 0.04639 0.95287 0.42167 0.0
H1714 H 0.02269 0.9761 0.44928 0.0
H1715 H 0.06583 0.02284 0.49771 0.0
H1716 H 0.99487 0.08475 0.57828 0.0
H1717 H 0.01959 0.05529 0.55748 0.0
C1718 C 0.55941 0.08547 0.45774 0.0
C1719 C 0.56899 0.07464 0.43748 0.0
C1720 C 0.54513 0.0722 0.47354 0.0
C1721 C 0.52752 0.00916 0.48987 0.0
H1722 H 0.47025 0.03944 0.51454 0.0
C1723 C 0.44872 0.95432 0.53043 0.0
C1724 C 0.43641 0.96402 0.54977 0.0
C1725 C 0.46635 0.96772 0.51859 0.0
C1726 C 0.4863 0.0307 0.5081 0.0
H1727 H 0.57206 0.04092 0.41882 0.0
H1728 H 0.54732 0.0181 0.44587 0.0
H1729 H 0.4987 0.06291 0.49151 0.0
H1730 H 0.4326 0.99553 0.57153 0.0
H1731 H 0.46345 0.01887 0.55114 0.0
H1732 H 0.5149 0.97686 0.50613 0.0
C1733 C 0.55072 0.03677 0.44982 0.0
C1734 C 0.50274 0.04425 0.49486 0.0
C1735 C 0.56484 0.04998 0.4341 0.0
C1736 C 0.44205 0.98747 0.55688 0.0
C1737 C 0.45959 1.00091 0.54502 0.0
C1738 C 0.51106 0.9956 0.50304 0.0
C1739 C 0.54022 0.04769 0.46961 0.0
C1740 C 0.52352 0.03366 0.48529 0.0
C1741 C 0.47195 0.99134 0.52555 0.0
C1742 C 0.49005 1.00608 0.51221 0.0
H1743 H 0.56211 0.10441 0.46087 0.0
H1744 H 0.53772 0.08126 0.48871 0.0
H1745 H 0.54346 1.00033 0.48327 0.0
H1746 H 0.44418 0.93664 0.52398 0.0
H1747 H 0.47505 0.9598 0.50345 0.0
C1748 C 0.56068 0.45177 0.53181 0.0
C1749 C 0.55096 0.43941 0.55108 0.0
C1750 C 0.54714 0.46914 0.51987 0.0
C1751 C 0.48421 0.48847 0.50863 0.0
H1752 H 0.51448 0.5466 0.48616 0.0
C1753 C 0.4299 0.5614 0.45799 0.0
C1754 C 0.44134 0.57148 0.4383 0.0
C1755 C 0.44286 0.54716 0.47401 0.0
C1756 C 0.5057 0.53039 0.49208 0.0
H1757 H 0.5193 0.43519 0.57267 0.0
H1758 H 0.49558 0.4655 0.55194 0.0
H1759 H 0.53776 0.51791 0.50894 0.0
H1760 H 0.47573 0.57556 0.42091 0.0
H1761 H 0.49802 0.55084 0.44832 0.0
H1762 H 0.45227 0.5007 0.49137 0.0
C1763 C 0.51369 0.46187 0.54599 0.0
C1764 C 0.51913 0.51387 0.5052 0.0
C1765 C 0.52731 0.44462 0.558 0.0
C1766 C 0.46624 0.56792 0.43574 0.0
C1767 C 0.47913 0.55382 0.45167 0.0
C1768 C 0.47079 0.50495 0.49539 0.0
C1769 C 0.52337 0.4744 0.5267 0.0
C1770 C 0.50869 0.49252 0.51349 0.0
C1771 C 0.46763 0.5428 0.47085 0.0
C1772 C 0.48138 0.52608 0.48664 0.0
H1773 H 0.57866 0.44771 0.52574 0.0
H1774 H 0.55512 0.47804 0.50489 0.0
H1775 H 0.47555 0.47215 0.51446 0.0
H1776 H 0.41076 0.56365 0.46046 0.0
H1777 H 0.43337 0.53933 0.48872 0.0
C1778 C 0.95969 0.43115 0.45505 0.0
C1779 C 0.95 0.44205 0.43489 0.0
C1780 C 0.97382 0.44443 0.47096 0.0
C1781 C 0.99094 0.50755 0.48768 0.0
H1782 H 0.04842 0.47755 0.51214 0.0
C1783 C 0.06963 0.56266 0.52804 0.0
C1784 C 0.08188 0.55307 0.54745 0.0
C1785 C 0.05204 0.54919 0.51622 0.0
C1786 C 0.0323 0.4862 0.50575 0.0
H1787 H 0.94655 0.47589 0.41655 0.0
H1788 H 0.97107 0.49873 0.44376 0.0
H1789 H 0.0201 0.45398 0.48905 0.0
H1790 H 0.08564 0.52166 0.56935 0.0
H1791 H 0.05489 0.49819 0.54895 0.0
H1792 H 1.0034 0.53988 0.50401 0.0
C1793 C 0.96786 0.48 0.44756 0.0
C1794 C 0.01594 0.47259 0.49248 0.0
C1795 C 0.95387 0.46678 0.43174 0.0
C1796 C 0.07623 0.52965 0.55465 0.0
C1797 C 0.05875 0.51613 0.54279 0.0
C1798 C 1.00734 0.52117 0.50085 0.0
C1799 C 0.97849 0.46902 0.46723 0.0
C1800 C 0.99509 0.48308 0.48298 0.0
C1801 C 0.04645 0.5256 0.52327 0.0
C1802 C 0.02841 0.51079 0.50994 0.0
H1803 H 0.9572 0.41215 0.45801 0.0
H1804 H 0.98133 0.43533 0.48605 0.0
H1805 H 0.97494 0.5163 0.48115 0.0
H1806 H 0.0742 0.58029 0.52151 0.0
H1807 H 0.04338 0.55702 0.50103 0.0
loop_
_geom_bond_atom_site_label_1
_geom_bond_atom_site_label_2
_geom_bond_distance
_geom_bond_site_symmetry_2
_ccdc_geom_bond_type
C0 C1 1.443 . S
C0 N4 1.376 . S
C0 C38 1.389 . S
C1 C0 1.443 . S
C1 C2 1.340 . S
C1 H41 0.951 . S
C2 C1 1.340 . S
C2 C3 1.439 . S
C2 H42 0.950 . S
C3 C2 1.439 . S
C3 N4 1.374 . S
C3 C37 1.395 . S
N4 C0 1.376 . S
N4 C3 1.374 . S
N4 Co5 2.008 . S
Co5 N4 2.008 . S
Co5 N6 1.995 . S
Co5 N11 2.008 . S
Co5 N16 1.995 . S
Co5 N21 2.282 . S
Co5 N27 2.282 . S
N6 Co5 1.995 . S
N6 C7 1.376 . S
N6 C10 1.383 . S
C7 N6 1.376 . S
C7 C8 1.446 . S
C7 C37 1.391 . S
C8 C7 1.446 . S
C8 C9 1.339 . S
C8 H43 0.949 . S
C9 C8 1.339 . S
C9 C10 1.439 . S
C9 H44 0.950 . S
C10 N6 1.383 . S
C10 C9 1.439 . S
C10 C39 1.392 . S
N11 Co5 2.008 . S
N11 C12 1.376 . S
N11 C15 1.374 . S
C12 N11 1.376 . S
C12 C13 1.443 . S
C12 C39 1.389 . S
C13 C12 1.443 . S
C13 C14 1.340 . S
C13 H45 0.951 . S
C14 C13 1.340 . S
C14 C15 1.439 . S
C14 H46 0.950 . S
C15 N11 1.374 . S
C15 C14 1.439 . S
C15 C40 1.395 . S
N16 Co5 1.995 . S
N16 C17 1.376 . S
N16 C20 1.383 . S
C17 N16 1.376 . S
C17 C18 1.446 . S
C17 C40 1.391 . S
C18 C17 1.446 . S
C18 C19 1.339 . S
C18 H47 0.949 . S
C19 C18 1.339 . S
C19 C20 1.439 . S
C19 H48 0.950 . S
C20 N16 1.383 . S
C20 C19 1.439 . S
C20 C38 1.392 . S
N21 Co5 2.282 . S
N21 C24 1.332 . S
N21 C26 1.332 . S
C22 C23 1.386 . S
C22 C25 1.388 . S
C23 C22 1.386 . S
C23 C24 1.382 . S
C23 H49 0.950 . S
C24 N21 1.332 . S
C24 C23 1.382 . S
C24 H35 0.952 . S
C25 C22 1.388 . S
C25 C26 1.382 . S
C25 H50 0.950 . S
C26 N21 1.332 . S
C26 C25 1.382 . S
C26 H36 0.948 . S
N27 Co5 2.282 . S
N27 C31 1.332 . S
N27 C32 1.332 . S
C28 C29 1.388 . S
C28 C32 1.382 . S
C28 H51 0.950 . S
C29 C28 1.388 . S
C29 C30 1.386 . S
C30 C29 1.386 . S
C30 C31 1.382 . S
C30 H52 0.950 . S
C31 N27 1.332 . S
C31 C30 1.382 . S
C31 H33 0.952 . S
C32 N27 1.332 . S
C32 C28 1.382 . S
C32 H34 0.948 . S
H33 C31 0.952 . S
H34 C32 0.948 . S
H35 C24 0.952 . S
H36 C26 0.948 . S
C37 C3 1.395 . S
C37 C7 1.391 . S
C38 C0 1.389 . S
C38 C20 1.392 . S
C39 C10 1.392 . S
C39 C12 1.389 . S
C40 C15 1.395 . S
C40 C17 1.391 . S
H41 C1 0.951 . S
H42 C2 0.950 . S
H43 C8 0.949 . S
H44 C9 0.950 . S
H45 C13 0.951 . S
H46 C14 0.950 . S
H47 C18 0.949 . S
H48 C19 0.950 . S
H49 C23 0.950 . S
H50 C25 0.950 . S
H51 C28 0.950 . S
H52 C30 0.950 . S
C53 C54 1.443 . S
C53 N57 1.376 . S
C53 C91 1.389 . S
C54 C53 1.443 . S
C54 C55 1.340 . S
C54 H94 0.951 . S
C55 C54 1.340 . S
C55 C56 1.439 . S
C55 H95 0.950 . S
C56 C55 1.439 . S
C56 N57 1.374 . S
C56 C90 1.395 . S
N57 C53 1.376 . S
N57 C56 1.374 . S
N57 Co58 2.008 . S
Co58 N57 2.008 . S
Co58 N59 1.995 . S
Co58 N64 2.008 . S
Co58 N69 1.995 . S
Co58 N74 2.282 . S
Co58 N80 2.282 . S
N59 Co58 1.995 . S
N59 C60 1.376 . S
N59 C63 1.383 . S
C60 N59 1.376 . S
C60 C61 1.446 . S
C60 C90 1.391 . S
C61 C60 1.446 . S
C61 C62 1.339 . S
C61 H96 0.949 . S
C62 C61 1.339 . S
C62 C63 1.439 . S
C62 H97 0.950 . S
C63 N59 1.383 . S
C63 C62 1.439 . S
C63 C92 1.392 . S
N64 Co58 2.008 . S
N64 C65 1.376 . S
N64 C68 1.374 . S
C65 N64 1.376 . S
C65 C66 1.443 . S
C65 C92 1.389 . S
C66 C65 1.443 . S
C66 C67 1.340 . S
C66 H98 0.951 . S
C67 C66 1.340 . S
C67 C68 1.439 . S
C67 H99 0.950 . S
C68 N64 1.374 . S
C68 C67 1.439 . S
C68 C93 1.395 . S
N69 Co58 1.995 . S
N69 C70 1.376 . S
N69 C73 1.383 . S
C70 N69 1.376 . S
C70 C71 1.446 . S
C70 C93 1.391 . S
C71 C70 1.446 . S
C71 C72 1.339 . S
C71 H100 0.949 . S
C72 C71 1.339 . S
C72 C73 1.439 . S
C72 H101 0.950 . S
C73 N69 1.383 . S
C73 C72 1.439 . S
C73 C91 1.392 . S
N74 Co58 2.282 . S
N74 C77 1.332 . S
N74 C79 1.332 . S
C75 C76 1.386 . S
C75 C78 1.388 . S
C76 C75 1.386 . S
C76 C77 1.382 . S
C76 H102 0.950 . S
C77 N74 1.332 . S
C77 C76 1.382 . S
C77 H88 0.952 . S
C78 C75 1.388 . S
C78 C79 1.382 . S
C78 H103 0.950 . S
C79 N74 1.332 . S
C79 C78 1.382 . S
C79 H89 0.948 . S
N80 Co58 2.282 . S
N80 C84 1.332 . S
N80 C85 1.332 . S
C81 C82 1.388 . S
C81 C85 1.382 . S
C81 H104 0.950 . S
C82 C81 1.388 . S
C82 C83 1.386 . S
C83 C82 1.386 . S
C83 C84 1.382 . S
C83 H105 0.950 . S
C84 N80 1.332 . S
C84 C83 1.382 . S
C84 H86 0.952 . S
C85 N80 1.332 . S
C85 C81 1.382 . S
C85 H87 0.948 . S
H86 C84 0.952 . S
H87 C85 0.948 . S
H88 C77 0.952 . S
H89 C79 0.948 . S
C90 C56 1.395 . S
C90 C60 1.391 . S
C91 C53 1.389 . S
C91 C73 1.392 . S
C92 C63 1.392 . S
C92 C65 1.389 . S
C93 C68 1.395 . S
C93 C70 1.391 . S
H94 C54 0.951 . S
H95 C55 0.950 . S
H96 C61 0.949 . S
H97 C62 0.950 . S
H98 C66 0.951 . S
H99 C67 0.950 . S
H100 C71 0.949 . S
H101 C72 0.950 . S
H102 C76 0.950 . S
H103 C78 0.950 . S
H104 C81 0.950 . S
H105 C83 0.950 . S
C106 C107 1.443 . S
C106 N110 1.376 . S
C106 C144 1.389 . S
C107 C106 1.443 . S
C107 C108 1.340 . S
C107 H147 0.951 . S
C108 C107 1.340 . S
C108 C109 1.439 . S
C108 H148 0.950 . S
C109 C108 1.439 . S
C109 N110 1.374 . S
C109 C143 1.395 . S
N110 C106 1.376 . S
N110 C109 1.374 . S
N110 Co111 2.008 . S
Co111 N110 2.008 . S
Co111 N112 1.995 . S
Co111 N117 2.008 . S
Co111 N122 1.995 . S
Co111 N127 2.282 . S
Co111 N133 2.282 . S
N112 Co111 1.995 . S
N112 C113 1.376 . S
N112 C116 1.383 . S
C113 N112 1.376 . S
C113 C114 1.446 . S
C113 C143 1.391 . S
C114 C113 1.446 . S
C114 C115 1.339 . S
C114 H149 0.949 . S
C115 C114 1.339 . S
C115 C116 1.439 . S
C115 H150 0.950 . S
C116 N112 1.383 . S
C116 C115 1.439 . S
C116 C145 1.392 . S
N117 Co111 2.008 . S
N117 C118 1.376 . S
N117 C121 1.374 . S
C118 N117 1.376 . S
C118 C119 1.443 . S
C118 C145 1.389 . S
C119 C118 1.443 . S
C119 C120 1.340 . S
C119 H151 0.951 . S
C120 C119 1.340 . S
C120 C121 1.439 . S
C120 H152 0.950 . S
C121 N117 1.374 . S
C121 C120 1.439 . S
C121 C146 1.395 . S
N122 Co111 1.995 . S
N122 C123 1.376 . S
N122 C126 1.383 . S
C123 N122 1.376 . S
C123 C124 1.446 . S
C123 C146 1.391 . S
C124 C123 1.446 . S
C124 C125 1.339 . S
C124 H153 0.949 . S
C125 C124 1.339 . S
C125 C126 1.439 . S
C125 H154 0.950 . S
C126 N122 1.383 . S
C126 C125 1.439 . S
C126 C144 1.392 . S
N127 Co111 2.282 . S
N127 C130 1.332 . S
N127 C132 1.332 . S
C128 C129 1.386 . S
C128 C131 1.388 . S
C129 C128 1.386 . S
C129 C130 1.382 . S
C129 H155 0.950 . S
C130 N127 1.332 . S
C130 C129 1.382 . S
C130 H141 0.952 . S
C131 C128 1.388 . S
C131 C132 1.382 . S
C131 H156 0.950 . S
C132 N127 1.332 . S
C132 C131 1.382 . S
C132 H142 0.948 . S
N133 Co111 2.282 . S
N133 C137 1.332 . S
N133 C138 1.332 . S
C134 C135 1.388 . S
C134 C138 1.382 . S
C134 H157 0.950 . S
C135 C134 1.388 . S
C135 C136 1.386 . S
C136 C135 1.386 . S
C136 C137 1.382 . S
C136 H158 0.950 . S
C137 N133 1.332 . S
C137 C136 1.382 . S
C137 H139 0.952 . S
C138 N133 1.332 . S
C138 C134 1.382 . S
C138 H140 0.948 . S
H139 C137 0.952 . S
H140 C138 0.948 . S
H141 C130 0.952 . S
H142 C132 0.948 . S
C143 C109 1.395 . S
C143 C113 1.391 . S
C144 C106 1.389 . S
C144 C126 1.392 . S
C145 C116 1.392 . S
C145 C118 1.389 . S
C146 C121 1.395 . S
C146 C123 1.391 . S
H147 C107 0.951 . S
H148 C108 0.950 . S
H149 C114 0.949 . S
H150 C115 0.950 . S
H151 C119 0.951 . S
H152 C120 0.950 . S
H153 C124 0.949 . S
H154 C125 0.950 . S
H155 C129 0.950 . S
H156 C131 0.950 . S
H157 C134 0.950 . S
H158 C136 0.950 . S
C159 C160 1.443 . S
C159 N163 1.376 . S
C159 C197 1.389 . S
C160 C159 1.443 . S
C160 C161 1.340 . S
C160 H200 0.951 . S
C161 C160 1.340 . S
C161 C162 1.439 . S
C161 H201 0.950 . S
C162 C161 1.439 . S
C162 N163 1.374 . S
C162 C196 1.395 . S
N163 C159 1.376 . S
N163 C162 1.374 . S
N163 Co164 2.008 . S
Co164 N163 2.008 . S
Co164 N165 1.995 . S
Co164 N170 2.008 . S
Co164 N175 1.995 . S
Co164 N180 2.282 . S
Co164 N186 2.282 . S
N165 Co164 1.995 . S
N165 C166 1.376 . S
N165 C169 1.383 . S
C166 N165 1.376 . S
C166 C167 1.446 . S
C166 C196 1.391 . S
C167 C166 1.446 . S
C167 C168 1.339 . S
C167 H202 0.949 . S
C168 C167 1.339 . S
C168 C169 1.439 . S
C168 H203 0.950 . S
C169 N165 1.383 . S
C169 C168 1.439 . S
C169 C198 1.392 . S
N170 Co164 2.008 . S
N170 C171 1.376 . S
N170 C174 1.374 . S
C171 N170 1.376 . S
C171 C172 1.443 . S
C171 C198 1.389 . S
C172 C171 1.443 . S
C172 C173 1.340 . S
C172 H204 0.951 . S
C173 C172 1.340 . S
C173 C174 1.439 . S
C173 H205 0.950 . S
C174 N170 1.374 . S
C174 C173 1.439 . S
C174 C199 1.395 . S
N175 Co164 1.995 . S
N175 C176 1.376 . S
N175 C179 1.383 . S
C176 N175 1.376 . S
C176 C177 1.446 . S
C176 C199 1.391 . S
C177 C176 1.446 . S
C177 C178 1.339 . S
C177 H206 0.949 . S
C178 C177 1.339 . S
C178 C179 1.439 . S
C178 H207 0.950 . S
C179 N175 1.383 . S
C179 C178 1.439 . S
C179 C197 1.392 . S
N180 Co164 2.282 . S
N180 C183 1.332 . S
N180 C185 1.332 . S
C181 C182 1.386 . S
C181 C184 1.388 . S
C182 C181 1.386 . S
C182 C183 1.382 . S
C182 H208 0.950 . S
C183 N180 1.332 . S
C183 C182 1.382 . S
C183 H194 0.952 . S
C184 C181 1.388 . S
C184 C185 1.382 . S
C184 H209 0.950 . S
C185 N180 1.332 . S
C185 C184 1.382 . S
C185 H195 0.948 . S
N186 Co164 2.282 . S
N186 C190 1.332 . S
N186 C191 1.332 . S
C187 C188 1.388 . S
C187 C191 1.382 . S
C187 H210 0.950 . S
C188 C187 1.388 . S
C188 C189 1.386 . S
C189 C188 1.386 . S
C189 C190 1.382 . S
C189 H211 0.950 . S
C190 N186 1.332 . S
C190 C189 1.382 . S
C190 H192 0.952 . S
C191 N186 1.332 . S
C191 C187 1.382 . S
C191 H193 0.948 . S
H192 C190 0.952 . S
H193 C191 0.948 . S
H194 C183 0.952 . S
H195 C185 0.948 . S
C196 C162 1.395 . S
C196 C166 1.391 . S
C197 C159 1.389 . S
C197 C179 1.392 . S
C198 C169 1.392 . S
C198 C171 1.389 . S
C199 C174 1.395 . S
C199 C176 1.391 . S
H200 C160 0.951 . S
H201 C161 0.950 . S
H202 C167 0.949 . S
H203 C168 0.950 . S
H204 C172 0.951 . S
H205 C173 0.950 . S
H206 C177 0.949 . S
H207 C178 0.950 . S
H208 C182 0.950 . S
H209 C184 0.950 . S
H210 C187 0.950 . S
H211 C189 0.950 . S
C212 C213 1.443 . S
C212 N216 1.376 . S
C212 C250 1.389 . S
C213 C212 1.443 . S
C213 C214 1.340 . S
C213 H253 0.951 . S
C214 C213 1.340 . S
C214 C215 1.439 . S
C214 H254 0.950 . S
C215 C214 1.439 . S
C215 N216 1.374 . S
C215 C249 1.395 . S
N216 C212 1.376 . S
N216 C215 1.374 . S
N216 Co217 2.008 . S
Co217 N216 2.008 . S
Co217 N218 1.995 . S
Co217 N223 2.008 . S
Co217 N228 1.995 . S
Co217 N233 2.282 . S
Co217 N239 2.282 . S
N218 Co217 1.995 . S
N218 C219 1.376 . S
N218 C222 1.383 . S
C219 N218 1.376 . S
C219 C220 1.446 . S
C219 C249 1.391 . S
C220 C219 1.446 . S
C220 C221 1.339 . S
C220 H255 0.949 . S
C221 C220 1.339 . S
C221 C222 1.439 . S
C221 H256 0.950 . S
C222 N218 1.383 . S
C222 C221 1.439 . S
C222 C251 1.392 . S
N223 Co217 2.008 . S
N223 C224 1.376 . S
N223 C227 1.374 . S
C224 N223 1.376 . S
C224 C225 1.443 . S
C224 C251 1.389 . S
C225 C224 1.443 . S
C225 C226 1.340 . S
C225 H257 0.951 . S
C226 C225 1.340 . S
C226 C227 1.439 . S
C226 H258 0.950 . S
C227 N223 1.374 . S
C227 C226 1.439 . S
C227 C252 1.395 . S
N228 Co217 1.995 . S
N228 C229 1.376 . S
N228 C232 1.383 . S
C229 N228 1.376 . S
C229 C230 1.446 . S
C229 C252 1.391 . S
C230 C229 1.446 . S
C230 C231 1.339 . S
C230 H259 0.949 . S
C231 C230 1.339 . S
C231 C232 1.439 . S
C231 H260 0.950 . S
C232 N228 1.383 . S
C232 C231 1.439 . S
C232 C250 1.392 . S
N233 Co217 2.282 . S
N233 C236 1.332 . S
N233 C238 1.332 . S
C234 C235 1.386 . S
C234 C237 1.388 . S
C235 C234 1.386 . S
C235 C236 1.382 . S
C235 H261 0.950 . S
C236 N233 1.332 . S
C236 C235 1.382 . S
C236 H247 0.952 . S
C237 C234 1.388 . S
C237 C238 1.382 . S
C237 H262 0.950 . S
C238 N233 1.332 . S
C238 C237 1.382 . S
C238 H248 0.948 . S
N239 Co217 2.282 . S
N239 C243 1.332 . S
N239 C244 1.332 . S
C240 C241 1.388 . S
C240 C244 1.382 . S
C240 H263 0.950 . S
C241 C240 1.388 . S
C241 C242 1.386 . S
C242 C241 1.386 . S
C242 C243 1.382 . S
C242 H264 0.950 . S
C243 N239 1.332 . S
C243 C242 1.382 . S
C243 H245 0.952 . S
C244 N239 1.332 . S
C244 C240 1.382 . S
C244 H246 0.948 . S
H245 C243 0.952 . S
H246 C244 0.948 . S
H247 C236 0.952 . S
H248 C238 0.948 . S
C249 C215 1.395 . S
C249 C219 1.391 . S
C250 C212 1.389 . S
C250 C232 1.392 . S
C251 C222 1.392 . S
C251 C224 1.389 . S
C252 C227 1.395 . S
C252 C229 1.391 . S
H253 C213 0.951 . S
H254 C214 0.950 . S
H255 C220 0.949 . S
H256 C221 0.950 . S
H257 C225 0.951 . S
H258 C226 0.950 . S
H259 C230 0.949 . S
H260 C231 0.950 . S
H261 C235 0.950 . S
H262 C237 0.950 . S
H263 C240 0.950 . S
H264 C242 0.950 . S
C265 C266 1.443 . S
C265 N269 1.376 . S
C265 C303 1.389 . S
C266 C265 1.443 . S
C266 C267 1.340 . S
C266 H306 0.951 . S
C267 C266 1.340 . S
C267 C268 1.439 . S
C267 H307 0.950 . S
C268 C267 1.439 . S
C268 N269 1.374 . S
C268 C302 1.395 . S
N269 C265 1.376 . S
N269 C268 1.374 . S
N269 Co270 2.008 . S
Co270 N269 2.008 . S
Co270 N271 1.995 . S
Co270 N276 2.008 . S
Co270 N281 1.995 . S
Co270 N286 2.282 . S
Co270 N292 2.282 . S
N271 Co270 1.995 . S
N271 C272 1.376 . S
N271 C275 1.383 . S
C272 N271 1.376 . S
C272 C273 1.446 . S
C272 C302 1.391 . S
C273 C272 1.446 . S
C273 C274 1.339 . S
C273 H308 0.949 . S
C274 C273 1.339 . S
C274 C275 1.439 . S
C274 H309 0.950 . S
C275 N271 1.383 . S
C275 C274 1.439 . S
C275 C304 1.392 . S
N276 Co270 2.008 . S
N276 C277 1.376 . S
N276 C280 1.374 . S
C277 N276 1.376 . S
C277 C278 1.443 . S
C277 C304 1.389 . S
C278 C277 1.443 . S
C278 C279 1.340 . S
C278 H310 0.951 . S
C279 C278 1.340 . S
C279 C280 1.439 . S
C279 H311 0.950 . S
C280 N276 1.374 . S
C280 C279 1.439 . S
C280 C305 1.395 . S
N281 Co270 1.995 . S
N281 C282 1.376 . S
N281 C285 1.383 . S
C282 N281 1.376 . S
C282 C283 1.446 . S
C282 C305 1.391 . S
C283 C282 1.446 . S
C283 C284 1.339 . S
C283 H312 0.949 . S
C284 C283 1.339 . S
C284 C285 1.439 . S
C284 H313 0.950 . S
C285 N281 1.383 . S
C285 C284 1.439 . S
C285 C303 1.392 . S
N286 Co270 2.282 . S
N286 C289 1.332 . S
N286 C291 1.332 . S
C287 C288 1.386 . S
C287 C290 1.388 . S
C288 C287 1.386 . S
C288 C289 1.382 . S
C288 H314 0.950 . S
C289 N286 1.332 . S
C289 C288 1.382 . S
C289 H300 0.952 . S
C290 C287 1.388 . S
C290 C291 1.382 . S
C290 H315 0.950 . S
C291 N286 1.332 . S
C291 C290 1.382 . S
C291 H301 0.948 . S
N292 Co270 2.282 . S
N292 C296 1.332 . S
N292 C297 1.332 . S
C293 C294 1.388 . S
C293 C297 1.382 . S
C293 H316 0.950 . S
C294 C293 1.388 . S
C294 C295 1.386 . S
C295 C294 1.386 . S
C295 C296 1.382 . S
C295 H317 0.950 . S
C296 N292 1.332 . S
C296 C295 1.382 . S
C296 H298 0.952 . S
C297 N292 1.332 . S
C297 C293 1.382 . S
C297 H299 0.948 . S
H298 C296 0.952 . S
H299 C297 0.948 . S
H300 C289 0.952 . S
H301 C291 0.948 . S
C302 C268 1.395 . S
C302 C272 1.391 . S
C303 C265 1.389 . S
C303 C285 1.392 . S
C304 C275 1.392 . S
C304 C277 1.389 . S
C305 C280 1.395 . S
C305 C282 1.391 . S
H306 C266 0.951 . S
H307 C267 0.950 . S
H308 C273 0.949 . S
H309 C274 0.950 . S
H310 C278 0.951 . S
H311 C279 0.950 . S
H312 C283 0.949 . S
H313 C284 0.950 . S
H314 C288 0.950 . S
H315 C290 0.950 . S
H316 C293 0.950 . S
H317 C295 0.950 . S
C318 C319 1.443 . S
C318 N322 1.376 . S
C318 C356 1.389 . S
C319 C318 1.443 . S
C319 C320 1.340 . S
C319 H359 0.951 . S
C320 C319 1.340 . S
C320 C321 1.439 . S
C320 H360 0.950 . S
C321 C320 1.439 . S
C321 N322 1.374 . S
C321 C355 1.395 . S
N322 C318 1.376 . S
N322 C321 1.374 . S
N322 Co323 2.008 . S
Co323 N322 2.008 . S
Co323 N324 1.995 . S
Co323 N329 2.008 . S
Co323 N334 1.995 . S
Co323 N339 2.282 . S
Co323 N345 2.282 . S
N324 Co323 1.995 . S
N324 C325 1.376 . S
N324 C328 1.383 . S
C325 N324 1.376 . S
C325 C326 1.446 . S
C325 C355 1.391 . S
C326 C325 1.446 . S
C326 C327 1.339 . S
C326 H361 0.949 . S
C327 C326 1.339 . S
C327 C328 1.439 . S
C327 H362 0.950 . S
C328 N324 1.383 . S
C328 C327 1.439 . S
C328 C357 1.392 . S
N329 Co323 2.008 . S
N329 C330 1.376 . S
N329 C333 1.374 . S
C330 N329 1.376 . S
C330 C331 1.443 . S
C330 C357 1.389 . S
C331 C330 1.443 . S
C331 C332 1.340 . S
C331 H363 0.951 . S
C332 C331 1.340 . S
C332 C333 1.439 . S
C332 H364 0.950 . S
C333 N329 1.374 . S
C333 C332 1.439 . S
C333 C358 1.395 . S
N334 Co323 1.995 . S
N334 C335 1.376 . S
N334 C338 1.383 . S
C335 N334 1.376 . S
C335 C336 1.446 . S
C335 C358 1.391 . S
C336 C335 1.446 . S
C336 C337 1.339 . S
C336 H365 0.949 . S
C337 C336 1.339 . S
C337 C338 1.439 . S
C337 H366 0.950 . S
C338 N334 1.383 . S
C338 C337 1.439 . S
C338 C356 1.392 . S
N339 Co323 2.282 . S
N339 C342 1.332 . S
N339 C344 1.332 . S
C340 C341 1.386 . S
C340 C343 1.388 . S
C341 C340 1.386 . S
C341 C342 1.382 . S
C341 H367 0.950 . S
C342 N339 1.332 . S
C342 C341 1.382 . S
C342 H353 0.952 . S
C343 C340 1.388 . S
C343 C344 1.382 . S
C343 H368 0.950 . S
C344 N339 1.332 . S
C344 C343 1.382 . S
C344 H354 0.948 . S
N345 Co323 2.282 . S
N345 C349 1.332 . S
N345 C350 1.332 . S
C346 C347 1.388 . S
C346 C350 1.382 . S
C346 H369 0.950 . S
C347 C346 1.388 . S
C347 C348 1.386 . S
C348 C347 1.386 . S
C348 C349 1.382 . S
C348 H370 0.950 . S
C349 N345 1.332 . S
C349 C348 1.382 . S
C349 H351 0.952 . S
C350 N345 1.332 . S
C350 C346 1.382 . S
C350 H352 0.948 . S
H351 C349 0.952 . S
H352 C350 0.948 . S
H353 C342 0.952 . S
H354 C344 0.948 . S
C355 C321 1.395 . S
C355 C325 1.391 . S
C356 C318 1.389 . S
C356 C338 1.392 . S
C357 C328 1.392 . S
C357 C330 1.389 . S
C358 C333 1.395 . S
C358 C335 1.391 . S
H359 C319 0.951 . S
H360 C320 0.950 . S
H361 C326 0.949 . S
H362 C327 0.950 . S
H363 C331 0.951 . S
H364 C332 0.950 . S
H365 C336 0.949 . S
H366 C337 0.950 . S
H367 C341 0.950 . S
H368 C343 0.950 . S
H369 C346 0.950 . S
H370 C348 0.950 . S
C371 C372 1.443 . S
C371 N375 1.376 . S
C371 C409 1.389 . S
C372 C371 1.443 . S
C372 C373 1.340 . S
C372 H412 0.951 . S
C373 C372 1.340 . S
C373 C374 1.439 . S
C373 H413 0.950 . S
C374 C373 1.439 . S
C374 N375 1.374 . S
C374 C408 1.395 . S
N375 C371 1.376 . S
N375 C374 1.374 . S
N375 Co376 2.008 . S
Co376 N375 2.008 . S
Co376 N377 1.995 . S
Co376 N382 2.008 . S
Co376 N387 1.995 . S
Co376 N392 2.282 . S
Co376 N398 2.282 . S
N377 Co376 1.995 . S
N377 C378 1.376 . S
N377 C381 1.383 . S
C378 N377 1.376 . S
C378 C379 1.446 . S
C378 C408 1.391 . S
C379 C378 1.446 . S
C379 C380 1.339 . S
C379 H414 0.949 . S
C380 C379 1.339 . S
C380 C381 1.439 . S
C380 H415 0.950 . S
C381 N377 1.383 . S
C381 C380 1.439 . S
C381 C410 1.392 . S
N382 Co376 2.008 . S
N382 C383 1.376 . S
N382 C386 1.374 . S
C383 N382 1.376 . S
C383 C384 1.443 . S
C383 C410 1.389 . S
C384 C383 1.443 . S
C384 C385 1.340 . S
C384 H416 0.951 . S
C385 C384 1.340 . S
C385 C386 1.439 . S
C385 H417 0.950 . S
C386 N382 1.374 . S
C386 C385 1.439 . S
C386 C411 1.395 . S
N387 Co376 1.995 . S
N387 C388 1.376 . S
N387 C391 1.383 . S
C388 N387 1.376 . S
C388 C389 1.446 . S
C388 C411 1.391 . S
C389 C388 1.446 . S
C389 C390 1.339 . S
C389 H418 0.949 . S
C390 C389 1.339 . S
C390 C391 1.439 . S
C390 H419 0.950 . S
C391 N387 1.383 . S
C391 C390 1.439 . S
C391 C409 1.392 . S
N392 Co376 2.282 . S
N392 C395 1.332 . S
N392 C397 1.332 . S
C393 C394 1.386 . S
C393 C396 1.388 . S
C394 C393 1.386 . S
C394 C395 1.382 . S
C394 H420 0.950 . S
C395 N392 1.332 . S
C395 C394 1.382 . S
C395 H406 0.952 . S
C396 C393 1.388 . S
C396 C397 1.382 . S
C396 H421 0.950 . S
C397 N392 1.332 . S
C397 C396 1.382 . S
C397 H407 0.948 . S
N398 Co376 2.282 . S
N398 C402 1.332 . S
N398 C403 1.332 . S
C399 C400 1.388 . S
C399 C403 1.382 . S
C399 H422 0.950 . S
C400 C399 1.388 . S
C400 C401 1.386 . S
C401 C400 1.386 . S
C401 C402 1.382 . S
C401 H423 0.950 . S
C402 N398 1.332 . S
C402 C401 1.382 . S
C402 H404 0.952 . S
C403 N398 1.332 . S
C403 C399 1.382 . S
C403 H405 0.948 . S
H404 C402 0.952 . S
H405 C403 0.948 . S
H406 C395 0.952 . S
H407 C397 0.948 . S
C408 C374 1.395 . S
C408 C378 1.391 . S
C409 C371 1.389 . S
C409 C391 1.392 . S
C410 C381 1.392 . S
C410 C383 1.389 . S
C411 C386 1.395 . S
C411 C388 1.391 . S
H412 C372 0.951 . S
H413 C373 0.950 . S
H414 C379 0.949 . S
H415 C380 0.950 . S
H416 C384 0.951 . S
H417 C385 0.950 . S
H418 C389 0.949 . S
H419 C390 0.950 . S
H420 C394 0.950 . S
H421 C396 0.950 . S
H422 C399 0.950 . S
H423 C401 0.950 . S
C424 C425 1.443 . S
C424 N428 1.376 . S
C424 C462 1.389 . S
C425 C424 1.443 . S
C425 C426 1.340 . S
C425 H465 0.951 . S
C426 C425 1.340 . S
C426 C427 1.439 . S
C426 H466 0.950 . S
C427 C426 1.439 . S
C427 N428 1.374 . S
C427 C461 1.395 . S
N428 C424 1.376 . S
N428 C427 1.374 . S
N428 Co429 2.008 . S
Co429 N428 2.008 . S
Co429 N430 1.995 . S
Co429 N435 2.008 . S
Co429 N440 1.995 . S
Co429 N445 2.282 . S
Co429 N451 2.282 . S
N430 Co429 1.995 . S
N430 C431 1.376 . S
N430 C434 1.383 . S
C431 N430 1.376 . S
C431 C432 1.446 . S
C431 C461 1.391 . S
C432 C431 1.446 . S
C432 C433 1.339 . S
C432 H467 0.949 . S
C433 C432 1.339 . S
C433 C434 1.439 . S
C433 H468 0.950 . S
C434 N430 1.383 . S
C434 C433 1.439 . S
C434 C463 1.392 . S
N435 Co429 2.008 . S
N435 C436 1.376 . S
N435 C439 1.374 . S
C436 N435 1.376 . S
C436 C437 1.443 . S
C436 C463 1.389 . S
C437 C436 1.443 . S
C437 C438 1.340 . S
C437 H469 0.951 . S
C438 C437 1.340 . S
C438 C439 1.439 . S
C438 H470 0.950 . S
C439 N435 1.374 . S
C439 C438 1.439 . S
C439 C464 1.395 . S
N440 Co429 1.995 . S
N440 C441 1.376 . S
N440 C444 1.383 . S
C441 N440 1.376 . S
C441 C442 1.446 . S
C441 C464 1.391 . S
C442 C441 1.446 . S
C442 C443 1.339 . S
C442 H471 0.949 . S
C443 C442 1.339 . S
C443 C444 1.439 . S
C443 H472 0.950 . S
C444 N440 1.383 . S
C444 C443 1.439 . S
C444 C462 1.392 . S
N445 Co429 2.282 . S
N445 C448 1.332 . S
N445 C450 1.332 . S
C446 C447 1.386 . S
C446 C449 1.388 . S
C447 C446 1.386 . S
C447 C448 1.382 . S
C447 H473 0.950 . S
C448 N445 1.332 . S
C448 C447 1.382 . S
C448 H459 0.952 . S
C449 C446 1.388 . S
C449 C450 1.382 . S
C449 H474 0.950 . S
C450 N445 1.332 . S
C450 C449 1.382 . S
C450 H460 0.948 . S
N451 Co429 2.282 . S
N451 C455 1.332 . S
N451 C456 1.332 . S
C452 C453 1.388 . S
C452 C456 1.382 . S
C452 H475 0.950 . S
C453 C452 1.388 . S
C453 C454 1.386 . S
C454 C453 1.386 . S
C454 C455 1.382 . S
C454 H476 0.950 . S
C455 N451 1.332 . S
C455 C454 1.382 . S
C455 H457 0.952 . S
C456 N451 1.332 . S
C456 C452 1.382 . S
C456 H458 0.948 . S
H457 C455 0.952 . S
H458 C456 0.948 . S
H459 C448 0.952 . S
H460 C450 0.948 . S
C461 C427 1.395 . S
C461 C431 1.391 . S
C462 C424 1.389 . S
C462 C444 1.392 . S
C463 C434 1.392 . S
C463 C436 1.389 . S
C464 C439 1.395 . S
C464 C441 1.391 . S
H465 C425 0.951 . S
H466 C426 0.950 . S
H467 C432 0.949 . S
H468 C433 0.950 . S
H469 C437 0.951 . S
H470 C438 0.950 . S
H471 C442 0.949 . S
H472 C443 0.950 . S
H473 C447 0.950 . S
H474 C449 0.950 . S
H475 C452 0.950 . S
H476 C454 0.950 . S
C477 C478 1.443 . S
C477 N481 1.376 . S
C477 C515 1.389 . S
C478 C477 1.443 . S
C478 C479 1.340 . S
C478 H518 0.951 . S
C479 C478 1.340 . S
C479 C480 1.439 . S
C479 H519 0.950 . S
C480 C479 1.439 . S
C480 N481 1.374 . S
C480 C514 1.395 . S
N481 C477 1.376 . S
N481 C480 1.374 . S
N481 Co482 2.008 . S
Co482 N481 2.008 . S
Co482 N483 1.995 . S
Co482 N488 2.008 . S
Co482 N493 1.995 . S
Co482 N498 2.282 . S
Co482 N504 2.282 . S
N483 Co482 1.995 . S
N483 C484 1.376 . S
N483 C487 1.383 . S
C484 N483 1.376 . S
C484 C485 1.446 . S
C484 C514 1.391 . S
C485 C484 1.446 . S
C485 C486 1.339 . S
C485 H520 0.949 . S
C486 C485 1.339 . S
C486 C487 1.439 . S
C486 H521 0.950 . S
C487 N483 1.383 . S
C487 C486 1.439 . S
C487 C516 1.392 . S
N488 Co482 2.008 . S
N488 C489 1.376 . S
N488 C492 1.374 . S
C489 N488 1.376 . S
C489 C490 1.443 . S
C489 C516 1.389 . S
C490 C489 1.443 . S
C490 C491 1.340 . S
C490 H522 0.951 . S
C491 C490 1.340 . S
C491 C492 1.439 . S
C491 H523 0.950 . S
C492 N488 1.374 . S
C492 C491 1.439 . S
C492 C517 1.395 . S
N493 Co482 1.995 . S
N493 C494 1.376 . S
N493 C497 1.383 . S
C494 N493 1.376 . S
C494 C495 1.446 . S
C494 C517 1.391 . S
C495 C494 1.446 . S
C495 C496 1.339 . S
C495 H524 0.949 . S
C496 C495 1.339 . S
C496 C497 1.439 . S
C496 H525 0.950 . S
C497 N493 1.383 . S
C497 C496 1.439 . S
C497 C515 1.392 . S
N498 Co482 2.282 . S
N498 C501 1.332 . S
N498 C503 1.332 . S
C499 C500 1.386 . S
C499 C502 1.388 . S
C500 C499 1.386 . S
C500 C501 1.382 . S
C500 H526 0.950 . S
C501 N498 1.332 . S
C501 C500 1.382 . S
C501 H512 0.952 . S
C502 C499 1.388 . S
C502 C503 1.382 . S
C502 H527 0.950 . S
C503 N498 1.332 . S
C503 C502 1.382 . S
C503 H513 0.948 . S
N504 Co482 2.282 . S
N504 C508 1.332 . S
N504 C509 1.332 . S
C505 C506 1.388 . S
C505 C509 1.382 . S
C505 H528 0.950 . S
C506 C505 1.388 . S
C506 C507 1.386 . S
C507 C506 1.386 . S
C507 C508 1.382 . S
C507 H529 0.950 . S
C508 N504 1.332 . S
C508 C507 1.382 . S
C508 H510 0.952 . S
C509 N504 1.332 . S
C509 C505 1.382 . S
C509 H511 0.948 . S
H510 C508 0.952 . S
H511 C509 0.948 . S
H512 C501 0.952 . S
H513 C503 0.948 . S
C514 C480 1.395 . S
C514 C484 1.391 . S
C515 C477 1.389 . S
C515 C497 1.392 . S
C516 C487 1.392 . S
C516 C489 1.389 . S
C517 C492 1.395 . S
C517 C494 1.391 . S
H518 C478 0.951 . S
H519 C479 0.950 . S
H520 C485 0.949 . S
H521 C486 0.950 . S
H522 C490 0.951 . S
H523 C491 0.950 . S
H524 C495 0.949 . S
H525 C496 0.950 . S
H526 C500 0.950 . S
H527 C502 0.950 . S
H528 C505 0.950 . S
H529 C507 0.950 . S
C530 C531 1.443 . S
C530 N534 1.376 . S
C530 C568 1.389 . S
C531 C530 1.443 . S
C531 C532 1.340 . S
C531 H571 0.951 . S
C532 C531 1.340 . S
C532 C533 1.439 . S
C532 H572 0.950 . S
C533 C532 1.439 . S
C533 N534 1.374 . S
C533 C567 1.395 . S
N534 C530 1.376 . S
N534 C533 1.374 . S
N534 Co535 2.008 . S
Co535 N534 2.008 . S
Co535 N536 1.995 . S
Co535 N541 2.008 . S
Co535 N546 1.995 . S
Co535 N551 2.282 . S
Co535 N557 2.282 . S
N536 Co535 1.995 . S
N536 C537 1.376 . S
N536 C540 1.383 . S
C537 N536 1.376 . S
C537 C538 1.446 . S
C537 C567 1.391 . S
C538 C537 1.446 . S
C538 C539 1.339 . S
C538 H573 0.949 . S
C539 C538 1.339 . S
C539 C540 1.439 . S
C539 H574 0.950 . S
C540 N536 1.383 . S
C540 C539 1.439 . S
C540 C569 1.392 . S
N541 Co535 2.008 . S
N541 C542 1.376 . S
N541 C545 1.374 . S
C542 N541 1.376 . S
C542 C543 1.443 . S
C542 C569 1.389 . S
C543 C542 1.443 . S
C543 C544 1.340 . S
C543 H575 0.951 . S
C544 C543 1.340 . S
C544 C545 1.439 . S
C544 H576 0.950 . S
C545 N541 1.374 . S
C545 C544 1.439 . S
C545 C570 1.395 . S
N546 Co535 1.995 . S
N546 C547 1.376 . S
N546 C550 1.383 . S
C547 N546 1.376 . S
C547 C548 1.446 . S
C547 C570 1.391 . S
C548 C547 1.446 . S
C548 C549 1.339 . S
C548 H577 0.949 . S
C549 C548 1.339 . S
C549 C550 1.439 . S
C549 H578 0.950 . S
C550 N546 1.383 . S
C550 C549 1.439 . S
C550 C568 1.392 . S
N551 Co535 2.282 . S
N551 C554 1.332 . S
N551 C556 1.332 . S
C552 C553 1.386 . S
C552 C555 1.388 . S
C553 C552 1.386 . S
C553 C554 1.382 . S
C553 H579 0.950 . S
C554 N551 1.332 . S
C554 C553 1.382 . S
C554 H565 0.952 . S
C555 C552 1.388 . S
C555 C556 1.382 . S
C555 H580 0.950 . S
C556 N551 1.332 . S
C556 C555 1.382 . S
C556 H566 0.948 . S
N557 Co535 2.282 . S
N557 C561 1.332 . S
N557 C562 1.332 . S
C558 C559 1.388 . S
C558 C562 1.382 . S
C558 H581 0.950 . S
C559 C558 1.388 . S
C559 C560 1.386 . S
C560 C559 1.386 . S
C560 C561 1.382 . S
C560 H582 0.950 . S
C561 N557 1.332 . S
C561 C560 1.382 . S
C561 H563 0.952 . S
C562 N557 1.332 . S
C562 C558 1.382 . S
C562 H564 0.948 . S
H563 C561 0.952 . S
H564 C562 0.948 . S
H565 C554 0.952 . S
H566 C556 0.948 . S
C567 C533 1.395 . S
C567 C537 1.391 . S
C568 C530 1.389 . S
C568 C550 1.392 . S
C569 C540 1.392 . S
C569 C542 1.389 . S
C570 C545 1.395 . S
C570 C547 1.391 . S
H571 C531 0.951 . S
H572 C532 0.950 . S
H573 C538 0.949 . S
H574 C539 0.950 . S
H575 C543 0.951 . S
H576 C544 0.950 . S
H577 C548 0.949 . S
H578 C549 0.950 . S
H579 C553 0.950 . S
H580 C555 0.950 . S
H581 C558 0.950 . S
H582 C560 0.950 . S
C583 C584 1.443 . S
C583 N587 1.376 . S
C583 C621 1.389 . S
C584 C583 1.443 . S
C584 C585 1.340 . S
C584 H624 0.951 . S
C585 C584 1.340 . S
C585 C586 1.439 . S
C585 H625 0.950 . S
C586 C585 1.439 . S
C586 N587 1.374 . S
C586 C620 1.395 . S
N587 C583 1.376 . S
N587 C586 1.374 . S
N587 Co588 2.008 . S
Co588 N587 2.008 . S
Co588 N589 1.995 . S
Co588 N594 2.008 . S
Co588 N599 1.995 . S
Co588 N604 2.282 . S
Co588 N610 2.282 . S
N589 Co588 1.995 . S
N589 C590 1.376 . S
N589 C593 1.383 . S
C590 N589 1.376 . S
C590 C591 1.446 . S
C590 C620 1.391 . S
C591 C590 1.446 . S
C591 C592 1.339 . S
C591 H626 0.949 . S
C592 C591 1.339 . S
C592 C593 1.439 . S
C592 H627 0.950 . S
C593 N589 1.383 . S
C593 C592 1.439 . S
C593 C622 1.392 . S
N594 Co588 2.008 . S
N594 C595 1.376 . S
N594 C598 1.374 . S
C595 N594 1.376 . S
C595 C596 1.443 . S
C595 C622 1.389 . S
C596 C595 1.443 . S
C596 C597 1.340 . S
C596 H628 0.951 . S
C597 C596 1.340 . S
C597 C598 1.439 . S
C597 H629 0.950 . S
C598 N594 1.374 . S
C598 C597 1.439 . S
C598 C623 1.395 . S
N599 Co588 1.995 . S
N599 C600 1.376 . S
N599 C603 1.383 . S
C600 N599 1.376 . S
C600 C601 1.446 . S
C600 C623 1.391 . S
C601 C600 1.446 . S
C601 C602 1.339 . S
C601 H630 0.949 . S
C602 C601 1.339 . S
C602 C603 1.439 . S
C602 H631 0.950 . S
C603 N599 1.383 . S
C603 C602 1.439 . S
C603 C621 1.392 . S
N604 Co588 2.282 . S
N604 C607 1.332 . S
N604 C609 1.332 . S
C605 C606 1.386 . S
C605 C608 1.388 . S
C606 C605 1.386 . S
C606 C607 1.382 . S
C606 H632 0.950 . S
C607 N604 1.332 . S
C607 C606 1.382 . S
C607 H618 0.952 . S
C608 C605 1.388 . S
C608 C609 1.382 . S
C608 H633 0.950 . S
C609 N604 1.332 . S
C609 C608 1.382 . S
C609 H619 0.948 . S
N610 Co588 2.282 . S
N610 C614 1.332 . S
N610 C615 1.332 . S
C611 C612 1.388 . S
C611 C615 1.382 . S
C611 H634 0.950 . S
C612 C611 1.388 . S
C612 C613 1.386 . S
C613 C612 1.386 . S
C613 C614 1.382 . S
C613 H635 0.950 . S
C614 N610 1.332 . S
C614 C613 1.382 . S
C614 H616 0.952 . S
C615 N610 1.332 . S
C615 C611 1.382 . S
C615 H617 0.948 . S
H616 C614 0.952 . S
H617 C615 0.948 . S
H618 C607 0.952 . S
H619 C609 0.948 . S
C620 C586 1.395 . S
C620 C590 1.391 . S
C621 C583 1.389 . S
C621 C603 1.392 . S
C622 C593 1.392 . S
C622 C595 1.389 . S
C623 C598 1.395 . S
C623 C600 1.391 . S
H624 C584 0.951 . S
H625 C585 0.950 . S
H626 C591 0.949 . S
H627 C592 0.950 . S
H628 C596 0.951 . S
H629 C597 0.950 . S
H630 C601 0.949 . S
H631 C602 0.950 . S
H632 C606 0.950 . S
H633 C608 0.950 . S
H634 C611 0.950 . S
H635 C613 0.950 . S
C636 C637 1.443 . S
C636 N640 1.376 . S
C636 C674 1.389 . S
C637 C636 1.443 . S
C637 C638 1.340 . S
C637 H677 0.951 . S
C638 C637 1.340 . S
C638 C639 1.439 . S
C638 H678 0.950 . S
C639 C638 1.439 . S
C639 N640 1.374 . S
C639 C673 1.395 . S
N640 C636 1.376 . S
N640 C639 1.374 . S
N640 Co641 2.008 . S
Co641 N640 2.008 . S
Co641 N642 1.995 . S
Co641 N647 2.008 . S
Co641 N652 1.995 . S
Co641 N657 2.282 . S
Co641 N663 2.282 . S
N642 Co641 1.995 . S
N642 C643 1.376 . S
N642 C646 1.383 . S
C643 N642 1.376 . S
C643 C644 1.446 . S
C643 C673 1.391 . S
C644 C643 1.446 . S
C644 C645 1.339 . S
C644 H679 0.949 . S
C645 C644 1.339 . S
C645 C646 1.439 . S
C645 H680 0.950 . S
C646 N642 1.383 . S
C646 C645 1.439 . S
C646 C675 1.392 . S
N647 Co641 2.008 . S
N647 C648 1.376 . S
N647 C651 1.374 . S
C648 N647 1.376 . S
C648 C649 1.443 . S
C648 C675 1.389 . S
C649 C648 1.443 . S
C649 C650 1.340 . S
C649 H681 0.951 . S
C650 C649 1.340 . S
C650 C651 1.439 . S
C650 H682 0.950 . S
C651 N647 1.374 . S
C651 C650 1.439 . S
C651 C676 1.395 . S
N652 Co641 1.995 . S
N652 C653 1.376 . S
N652 C656 1.383 . S
C653 N652 1.376 . S
C653 C654 1.446 . S
C653 C676 1.391 . S
C654 C653 1.446 . S
C654 C655 1.339 . S
C654 H683 0.949 . S
C655 C654 1.339 . S
C655 C656 1.439 . S
C655 H684 0.950 . S
C656 N652 1.383 . S
C656 C655 1.439 . S
C656 C674 1.392 . S
N657 Co641 2.282 . S
N657 C660 1.332 . S
N657 C662 1.332 . S
C658 C659 1.386 . S
C658 C661 1.388 . S
C659 C658 1.386 . S
C659 C660 1.382 . S
C659 H685 0.950 . S
C660 N657 1.332 . S
C660 C659 1.382 . S
C660 H671 0.952 . S
C661 C658 1.388 . S
C661 C662 1.382 . S
C661 H686 0.950 . S
C662 N657 1.332 . S
C662 C661 1.382 . S
C662 H672 0.948 . S
N663 Co641 2.282 . S
N663 C667 1.332 . S
N663 C668 1.332 . S
C664 C665 1.388 . S
C664 C668 1.382 . S
C664 H687 0.950 . S
C665 C664 1.388 . S
C665 C666 1.386 . S
C666 C665 1.386 . S
C666 C667 1.382 . S
C666 H688 0.950 . S
C667 N663 1.332 . S
C667 C666 1.382 . S
C667 H669 0.952 . S
C668 N663 1.332 . S
C668 C664 1.382 . S
C668 H670 0.948 . S
H669 C667 0.952 . S
H670 C668 0.948 . S
H671 C660 0.952 . S
H672 C662 0.948 . S
C673 C639 1.395 . S
C673 C643 1.391 . S
C674 C636 1.389 . S
C674 C656 1.392 . S
C675 C646 1.392 . S
C675 C648 1.389 . S
C676 C651 1.395 . S
C676 C653 1.391 . S
H677 C637 0.951 . S
H678 C638 0.950 . S
H679 C644 0.949 . S
H680 C645 0.950 . S
H681 C649 0.951 . S
H682 C650 0.950 . S
H683 C654 0.949 . S
H684 C655 0.950 . S
H685 C659 0.950 . S
H686 C661 0.950 . S
H687 C664 0.950 . S
H688 C666 0.950 . S
C689 C690 1.443 . S
C689 N693 1.376 . S
C689 C727 1.389 . S
C690 C689 1.443 . S
C690 C691 1.340 . S
C690 H730 0.951 . S
C691 C690 1.340 . S
C691 C692 1.439 . S
C691 H731 0.950 . S
C692 C691 1.439 . S
C692 N693 1.374 . S
C692 C726 1.395 . S
N693 C689 1.376 . S
N693 C692 1.374 . S
N693 Co694 2.008 . S
Co694 N693 2.008 . S
Co694 N695 1.995 . S
Co694 N700 2.008 . S
Co694 N705 1.995 . S
Co694 N710 2.282 . S
Co694 N716 2.282 . S
N695 Co694 1.995 . S
N695 C696 1.376 . S
N695 C699 1.383 . S
C696 N695 1.376 . S
C696 C697 1.446 . S
C696 C726 1.391 . S
C697 C696 1.446 . S
C697 C698 1.339 . S
C697 H732 0.949 . S
C698 C697 1.339 . S
C698 C699 1.439 . S
C698 H733 0.950 . S
C699 N695 1.383 . S
C699 C698 1.439 . S
C699 C728 1.392 . S
N700 Co694 2.008 . S
N700 C701 1.376 . S
N700 C704 1.374 . S
C701 N700 1.376 . S
C701 C702 1.443 . S
C701 C728 1.389 . S
C702 C701 1.443 . S
C702 C703 1.340 . S
C702 H734 0.951 . S
C703 C702 1.340 . S
C703 C704 1.439 . S
C703 H735 0.950 . S
C704 N700 1.374 . S
C704 C703 1.439 . S
C704 C729 1.395 . S
N705 Co694 1.995 . S
N705 C706 1.376 . S
N705 C709 1.383 . S
C706 N705 1.376 . S
C706 C707 1.446 . S
C706 C729 1.391 . S
C707 C706 1.446 . S
C707 C708 1.339 . S
C707 H736 0.949 . S
C708 C707 1.339 . S
C708 C709 1.439 . S
C708 H737 0.950 . S
C709 N705 1.383 . S
C709 C708 1.439 . S
C709 C727 1.392 . S
N710 Co694 2.282 . S
N710 C713 1.332 . S
N710 C715 1.332 . S
C711 C712 1.386 . S
C711 C714 1.388 . S
C712 C711 1.386 . S
C712 C713 1.382 . S
C712 H738 0.950 . S
C713 N710 1.332 . S
C713 C712 1.382 . S
C713 H724 0.952 . S
C714 C711 1.388 . S
C714 C715 1.382 . S
C714 H739 0.950 . S
C715 N710 1.332 . S
C715 C714 1.382 . S
C715 H725 0.948 . S
N716 Co694 2.282 . S
N716 C720 1.332 . S
N716 C721 1.332 . S
C717 C718 1.388 . S
C717 C721 1.382 . S
C717 H740 0.950 . S
C718 C717 1.388 . S
C718 C719 1.386 . S
C719 C718 1.386 . S
C719 C720 1.382 . S
C719 H741 0.950 . S
C720 N716 1.332 . S
C720 C719 1.382 . S
C720 H722 0.952 . S
C721 N716 1.332 . S
C721 C717 1.382 . S
C721 H723 0.948 . S
H722 C720 0.952 . S
H723 C721 0.948 . S
H724 C713 0.952 . S
H725 C715 0.948 . S
C726 C692 1.395 . S
C726 C696 1.391 . S
C727 C689 1.389 . S
C727 C709 1.392 . S
C728 C699 1.392 . S
C728 C701 1.389 . S
C729 C704 1.395 . S
C729 C706 1.391 . S
H730 C690 0.951 . S
H731 C691 0.950 . S
H732 C697 0.949 . S
H733 C698 0.950 . S
H734 C702 0.951 . S
H735 C703 0.950 . S
H736 C707 0.949 . S
H737 C708 0.950 . S
H738 C712 0.950 . S
H739 C714 0.950 . S
H740 C717 0.950 . S
H741 C719 0.950 . S
C742 C743 1.443 . S
C742 N746 1.376 . S
C742 C780 1.389 . S
C743 C742 1.443 . S
C743 C744 1.340 . S
C743 H783 0.951 . S
C744 C743 1.340 . S
C744 C745 1.439 . S
C744 H784 0.950 . S
C745 C744 1.439 . S
C745 N746 1.374 . S
C745 C779 1.395 . S
N746 C742 1.376 . S
N746 C745 1.374 . S
N746 Co747 2.008 . S
Co747 N746 2.008 . S
Co747 N748 1.995 . S
Co747 N753 2.008 . S
Co747 N758 1.995 . S
Co747 N763 2.282 . S
Co747 N769 2.282 . S
N748 Co747 1.995 . S
N748 C749 1.376 . S
N748 C752 1.383 . S
C749 N748 1.376 . S
C749 C750 1.446 . S
C749 C779 1.391 . S
C750 C749 1.446 . S
C750 C751 1.339 . S
C750 H785 0.949 . S
C751 C750 1.339 . S
C751 C752 1.439 . S
C751 H786 0.950 . S
C752 N748 1.383 . S
C752 C751 1.439 . S
C752 C781 1.392 . S
N753 Co747 2.008 . S
N753 C754 1.376 . S
N753 C757 1.374 . S
C754 N753 1.376 . S
C754 C755 1.443 . S
C754 C781 1.389 . S
C755 C754 1.443 . S
C755 C756 1.340 . S
C755 H787 0.951 . S
C756 C755 1.340 . S
C756 C757 1.439 . S
C756 H788 0.950 . S
C757 N753 1.374 . S
C757 C756 1.439 . S
C757 C782 1.395 . S
N758 Co747 1.995 . S
N758 C759 1.376 . S
N758 C762 1.383 . S
C759 N758 1.376 . S
C759 C760 1.446 . S
C759 C782 1.391 . S
C760 C759 1.446 . S
C760 C761 1.339 . S
C760 H789 0.949 . S
C761 C760 1.339 . S
C761 C762 1.439 . S
C761 H790 0.950 . S
C762 N758 1.383 . S
C762 C761 1.439 . S
C762 C780 1.392 . S
N763 Co747 2.282 . S
N763 C766 1.332 . S
N763 C768 1.332 . S
C764 C765 1.386 . S
C764 C767 1.388 . S
C765 C764 1.386 . S
C765 C766 1.382 . S
C765 H791 0.950 . S
C766 N763 1.332 . S
C766 C765 1.382 . S
C766 H777 0.952 . S
C767 C764 1.388 . S
C767 C768 1.382 . S
C767 H792 0.950 . S
C768 N763 1.332 . S
C768 C767 1.382 . S
C768 H778 0.948 . S
N769 Co747 2.282 . S
N769 C773 1.332 . S
N769 C774 1.332 . S
C770 C771 1.388 . S
C770 C774 1.382 . S
C770 H793 0.950 . S
C771 C770 1.388 . S
C771 C772 1.386 . S
C772 C771 1.386 . S
C772 C773 1.382 . S
C772 H794 0.950 . S
C773 N769 1.332 . S
C773 C772 1.382 . S
C773 H775 0.952 . S
C774 N769 1.332 . S
C774 C770 1.382 . S
C774 H776 0.948 . S
H775 C773 0.952 . S
H776 C774 0.948 . S
H777 C766 0.952 . S
H778 C768 0.948 . S
C779 C745 1.395 . S
C779 C749 1.391 . S
C780 C742 1.389 . S
C780 C762 1.392 . S
C781 C752 1.392 . S
C781 C754 1.389 . S
C782 C757 1.395 . S
C782 C759 1.391 . S
H783 C743 0.951 . S
H784 C744 0.950 . S
H785 C750 0.949 . S
H786 C751 0.950 . S
H787 C755 0.951 . S
H788 C756 0.950 . S
H789 C760 0.949 . S
H790 C761 0.950 . S
H791 C765 0.950 . S
H792 C767 0.950 . S
H793 C770 0.950 . S
H794 C772 0.950 . S
C795 C796 1.443 . S
C795 N799 1.376 . S
C795 C833 1.389 . S
C796 C795 1.443 . S
C796 C797 1.340 . S
C796 H836 0.951 . S
C797 C796 1.340 . S
C797 C798 1.439 . S
C797 H837 0.950 . S
C798 C797 1.439 . S
C798 N799 1.374 . S
C798 C832 1.395 . S
N799 C795 1.376 . S
N799 C798 1.374 . S
N799 Co800 2.008 . S
Co800 N799 2.008 . S
Co800 N801 1.995 . S
Co800 N806 2.008 . S
Co800 N811 1.995 . S
Co800 N816 2.282 . S
Co800 N822 2.282 . S
N801 Co800 1.995 . S
N801 C802 1.376 . S
N801 C805 1.383 . S
C802 N801 1.376 . S
C802 C803 1.446 . S
C802 C832 1.391 . S
C803 C802 1.446 . S
C803 C804 1.339 . S
C803 H838 0.949 . S
C804 C803 1.339 . S
C804 C805 1.439 . S
C804 H839 0.950 . S
C805 N801 1.383 . S
C805 C804 1.439 . S
C805 C834 1.392 . S
N806 Co800 2.008 . S
N806 C807 1.376 . S
N806 C810 1.374 . S
C807 N806 1.376 . S
C807 C808 1.443 . S
C807 C834 1.389 . S
C808 C807 1.443 . S
C808 C809 1.340 . S
C808 H840 0.951 . S
C809 C808 1.340 . S
C809 C810 1.439 . S
C809 H841 0.950 . S
C810 N806 1.374 . S
C810 C809 1.439 . S
C810 C835 1.395 . S
N811 Co800 1.995 . S
N811 C812 1.376 . S
N811 C815 1.383 . S
C812 N811 1.376 . S
C812 C813 1.446 . S
C812 C835 1.391 . S
C813 C812 1.446 . S
C813 C814 1.339 . S
C813 H842 0.949 . S
C814 C813 1.339 . S
C814 C815 1.439 . S
C814 H843 0.950 . S
C815 N811 1.383 . S
C815 C814 1.439 . S
C815 C833 1.392 . S
N816 Co800 2.282 . S
N816 C819 1.332 . S
N816 C821 1.332 . S
C817 C818 1.386 . S
C817 C820 1.388 . S
C818 C817 1.386 . S
C818 C819 1.382 . S
C818 H844 0.950 . S
C819 N816 1.332 . S
C819 C818 1.382 . S
C819 H830 0.952 . S
C820 C817 1.388 . S
C820 C821 1.382 . S
C820 H845 0.950 . S
C821 N816 1.332 . S
C821 C820 1.382 . S
C821 H831 0.948 . S
N822 Co800 2.282 . S
N822 C826 1.332 . S
N822 C827 1.332 . S
C823 C824 1.388 . S
C823 C827 1.382 . S
C823 H846 0.950 . S
C824 C823 1.388 . S
C824 C825 1.386 . S
C825 C824 1.386 . S
C825 C826 1.382 . S
C825 H847 0.950 . S
C826 N822 1.332 . S
C826 C825 1.382 . S
C826 H828 0.952 . S
C827 N822 1.332 . S
C827 C823 1.382 . S
C827 H829 0.948 . S
H828 C826 0.952 . S
H829 C827 0.948 . S
H830 C819 0.952 . S
H831 C821 0.948 . S
C832 C798 1.395 . S
C832 C802 1.391 . S
C833 C795 1.389 . S
C833 C815 1.392 . S
C834 C805 1.392 . S
C834 C807 1.389 . S
C835 C810 1.395 . S
C835 C812 1.391 . S
H836 C796 0.951 . S
H837 C797 0.950 . S
H838 C803 0.949 . S
H839 C804 0.950 . S
H840 C808 0.951 . S
H841 C809 0.950 . S
H842 C813 0.949 . S
H843 C814 0.950 . S
H844 C818 0.950 . S
H845 C820 0.950 . S
H846 C823 0.950 . S
H847 C825 0.950 . S
C848 C849 1.349 . S
C848 C850 1.327 . S
C848 H873 0.950 . S
C849 C848 1.349 . S
C849 C865 1.349 . S
C850 C848 1.327 . S
C850 C869 1.429 . S
C850 H874 0.950 . S
C851 C868 1.574 . S
C851 C870 1.368 . S
C851 H875 0.949 . S
H852 C856 0.949 . S
C853 C854 1.349 . S
C853 C855 1.327 . S
C853 H876 0.950 . S
C854 C853 1.349 . S
C854 C866 1.349 . S
C855 C853 1.327 . S
C855 C871 1.429 . S
C855 H877 0.950 . S
C856 H852 0.949 . S
C856 C864 1.574 . S
C856 C872 1.368 . S
H857 C865 0.950 . S
H858 C863 0.950 . S
H859 C864 0.949 . S
H860 C866 0.950 . S
H861 C867 0.950 . S
H862 C868 0.949 . S
C863 H858 0.950 . S
C863 C865 1.327 . S
C863 C869 1.429 . S
C864 C856 1.574 . S
C864 H859 0.949 . S
C864 C870 1.368 . S
C865 C849 1.349 . S
C865 H857 0.950 . S
C865 C863 1.327 . S
C866 C854 1.349 . S
C866 H860 0.950 . S
C866 C867 1.327 . S
C867 H861 0.950 . S
C867 C866 1.327 . S
C867 C871 1.429 . S
C868 C851 1.574 . S
C868 H862 0.949 . S
C868 C872 1.368 . S
C869 C850 1.429 . S
C869 C863 1.429 . S
C869 C870 1.523 . S
C870 C851 1.368 . S
C870 C864 1.368 . S
C870 C869 1.523 . S
C871 C855 1.429 . S
C871 C867 1.429 . S
C871 C872 1.523 . S
C872 C856 1.368 . S
C872 C868 1.368 . S
C872 C871 1.523 . S
H873 C848 0.950 . S
H874 C850 0.950 . S
H875 C851 0.949 . S
H876 C853 0.950 . S
H877 C855 0.950 . S
C878 C879 1.349 . S
C878 C880 1.327 . S
C878 H903 0.950 . S
C879 C878 1.349 . S
C879 C895 1.349 . S
C880 C878 1.327 . S
C880 C899 1.429 . S
C880 H904 0.950 . S
C881 C898 1.574 . S
C881 C900 1.368 . S
C881 H905 0.949 . S
H882 C886 0.949 . S
C883 C884 1.349 . S
C883 C885 1.327 . S
C883 H906 0.950 . S
C884 C883 1.349 . S
C884 C896 1.349 . S
C885 C883 1.327 . S
C885 C901 1.429 . S
C885 H907 0.950 . S
C886 H882 0.949 . S
C886 C894 1.574 . S
C886 C902 1.368 . S
H887 C895 0.950 . S
H888 C893 0.950 . S
H889 C894 0.949 . S
H890 C896 0.950 . S
H891 C897 0.950 . S
H892 C898 0.949 . S
C893 H888 0.950 . S
C893 C895 1.327 . S
C893 C899 1.429 . S
C894 C886 1.574 . S
C894 H889 0.949 . S
C894 C900 1.368 . S
C895 C879 1.349 . S
C895 H887 0.950 . S
C895 C893 1.327 . S
C896 C884 1.349 . S
C896 H890 0.950 . S
C896 C897 1.327 . S
C897 H891 0.950 . S
C897 C896 1.327 . S
C897 C901 1.429 . S
C898 C881 1.574 . S
C898 H892 0.949 . S
C898 C902 1.368 . S
C899 C880 1.429 . S
C899 C893 1.429 . S
C899 C900 1.523 . S
C900 C881 1.368 . S
C900 C894 1.368 . S
C900 C899 1.523 . S
C901 C885 1.429 . S
C901 C897 1.429 . S
C901 C902 1.523 . S
C902 C886 1.368 . S
C902 C898 1.368 . S
C902 C901 1.523 . S
H903 C878 0.950 . S
H904 C880 0.950 . S
H905 C881 0.949 . S
H906 C883 0.950 . S
H907 C885 0.950 . S
C908 C909 1.349 . S
C908 C910 1.327 . S
C908 H933 0.950 . S
C909 C908 1.349 . S
C909 C925 1.349 . S
C910 C908 1.327 . S
C910 C929 1.429 . S
C910 H934 0.950 . S
C911 C928 1.574 . S
C911 C930 1.368 . S
C911 H935 0.949 . S
H912 C916 0.949 . S
C913 C914 1.349 . S
C913 C915 1.327 . S
C913 H936 0.950 . S
C914 C913 1.349 . S
C914 C926 1.349 . S
C915 C913 1.327 . S
C915 C931 1.429 . S
C915 H937 0.950 . S
C916 H912 0.949 . S
C916 C924 1.574 . S
C916 C932 1.368 . S
H917 C925 0.950 . S
H918 C923 0.950 . S
H919 C924 0.949 . S
H920 C926 0.950 . S
H921 C927 0.950 . S
H922 C928 0.949 . S
C923 H918 0.950 . S
C923 C925 1.327 . S
C923 C929 1.429 . S
C924 C916 1.574 . S
C924 H919 0.949 . S
C924 C930 1.368 . S
C925 C909 1.349 . S
C925 H917 0.950 . S
C925 C923 1.327 . S
C926 C914 1.349 . S
C926 H920 0.950 . S
C926 C927 1.327 . S
C927 H921 0.950 . S
C927 C926 1.327 . S
C927 C931 1.429 . S
C928 C911 1.574 . S
C928 H922 0.949 . S
C928 C932 1.368 . S
C929 C910 1.429 . S
C929 C923 1.429 . S
C929 C930 1.523 . S
C930 C911 1.368 . S
C930 C924 1.368 . S
C930 C929 1.523 . S
C931 C915 1.429 . S
C931 C927 1.429 . S
C931 C932 1.523 . S
C932 C916 1.368 . S
C932 C928 1.368 . S
C932 C931 1.523 . S
H933 C908 0.950 . S
H934 C910 0.950 . S
H935 C911 0.949 . S
H936 C913 0.950 . S
H937 C915 0.950 . S
C938 C939 1.349 . S
C938 C940 1.327 . S
C938 H963 0.950 . S
C939 C938 1.349 . S
C939 C955 1.349 . S
C940 C938 1.327 . S
C940 C959 1.429 . S
C940 H964 0.950 . S
C941 C958 1.574 . S
C941 C960 1.368 . S
C941 H965 0.949 . S
H942 C946 0.949 . S
C943 C944 1.349 . S
C943 C945 1.327 . S
C943 H966 0.950 . S
C944 C943 1.349 . S
C944 C956 1.349 . S
C945 C943 1.327 . S
C945 C961 1.429 . S
C945 H967 0.950 . S
C946 H942 0.949 . S
C946 C954 1.574 . S
C946 C962 1.368 . S
H947 C955 0.950 . S
H948 C953 0.950 . S
H949 C954 0.949 . S
H950 C956 0.950 . S
H951 C957 0.950 . S
H952 C958 0.949 . S
C953 H948 0.950 . S
C953 C955 1.327 . S
C953 C959 1.429 . S
C954 C946 1.574 . S
C954 H949 0.949 . S
C954 C960 1.368 . S
C955 C939 1.349 . S
C955 H947 0.950 . S
C955 C953 1.327 . S
C956 C944 1.349 . S
C956 H950 0.950 . S
C956 C957 1.327 . S
C957 H951 0.950 . S
C957 C956 1.327 . S
C957 C961 1.429 . S
C958 C941 1.574 . S
C958 H952 0.949 . S
C958 C962 1.368 . S
C959 C940 1.429 . S
C959 C953 1.429 . S
C959 C960 1.523 . S
C960 C941 1.368 . S
C960 C954 1.368 . S
C960 C959 1.523 . S
C961 C945 1.429 . S
C961 C957 1.429 . S
C961 C962 1.523 . S
C962 C946 1.368 . S
C962 C958 1.368 . S
C962 C961 1.523 . S
H963 C938 0.950 . S
H964 C940 0.950 . S
H965 C941 0.949 . S
H966 C943 0.950 . S
H967 C945 0.950 . S
C968 C969 1.349 . S
C968 C970 1.327 . S
C968 H993 0.950 . S
C969 C968 1.349 . S
C969 C985 1.349 . S
C970 C968 1.327 . S
C970 C989 1.429 . S
C970 H994 0.950 . S
C971 C988 1.574 . S
C971 C990 1.368 . S
C971 H995 0.949 . S
H972 C976 0.949 . S
C973 C974 1.349 . S
C973 C975 1.327 . S
C973 H996 0.950 . S
C974 C973 1.349 . S
C974 C986 1.349 . S
C975 C973 1.327 . S
C975 C991 1.429 . S
C975 H997 0.950 . S
C976 H972 0.949 . S
C976 C984 1.574 . S
C976 C992 1.368 . S
H977 C985 0.950 . S
H978 C983 0.950 . S
H979 C984 0.949 . S
H980 C986 0.950 . S
H981 C987 0.950 . S
H982 C988 0.949 . S
C983 H978 0.950 . S
C983 C985 1.327 . S
C983 C989 1.429 . S
C984 C976 1.574 . S
C984 H979 0.949 . S
C984 C990 1.368 . S
C985 C969 1.349 . S
C985 H977 0.950 . S
C985 C983 1.327 . S
C986 C974 1.349 . S
C986 H980 0.950 . S
C986 C987 1.327 . S
C987 H981 0.950 . S
C987 C986 1.327 . S
C987 C991 1.429 . S
C988 C971 1.574 . S
C988 H982 0.949 . S
C988 C992 1.368 . S
C989 C970 1.429 . S
C989 C983 1.429 . S
C989 C990 1.523 . S
C990 C971 1.368 . S
C990 C984 1.368 . S
C990 C989 1.523 . S
C991 C975 1.429 . S
C991 C987 1.429 . S
C991 C992 1.523 . S
C992 C976 1.368 . S
C992 C988 1.368 . S
C992 C991 1.523 . S
H993 C968 0.950 . S
H994 C970 0.950 . S
H995 C971 0.949 . S
H996 C973 0.950 . S
H997 C975 0.950 . S
C998 C999 1.349 . S
C998 C1000 1.327 . S
C998 H1023 0.950 . S
C999 C998 1.349 . S
C999 C1015 1.349 . S
C1000 C998 1.327 . S
C1000 C1019 1.429 . S
C1000 H1024 0.950 . S
C1001 C1018 1.574 . S
C1001 C1020 1.368 . S
C1001 H1025 0.949 . S
H1002 C1006 0.949 . S
C1003 C1004 1.349 . S
C1003 C1005 1.327 . S
C1003 H1026 0.950 . S
C1004 C1003 1.349 . S
C1004 C1016 1.349 . S
C1005 C1003 1.327 . S
C1005 C1021 1.429 . S
C1005 H1027 0.950 . S
C1006 H1002 0.949 . S
C1006 C1014 1.574 . S
C1006 C1022 1.368 . S
H1007 C1015 0.950 . S
H1008 C1013 0.950 . S
H1009 C1014 0.949 . S
H1010 C1016 0.950 . S
H1011 C1017 0.950 . S
H1012 C1018 0.949 . S
C1013 H1008 0.950 . S
C1013 C1015 1.327 . S
C1013 C1019 1.429 . S
C1014 C1006 1.574 . S
C1014 H1009 0.949 . S
C1014 C1020 1.368 . S
C1015 C999 1.349 . S
C1015 H1007 0.950 . S
C1015 C1013 1.327 . S
C1016 C1004 1.349 . S
C1016 H1010 0.950 . S
C1016 C1017 1.327 . S
C1017 H1011 0.950 . S
C1017 C1016 1.327 . S
C1017 C1021 1.429 . S
C1018 C1001 1.574 . S
C1018 H1012 0.949 . S
C1018 C1022 1.368 . S
C1019 C1000 1.429 . S
C1019 C1013 1.429 . S
C1019 C1020 1.523 . S
C1020 C1001 1.368 . S
C1020 C1014 1.368 . S
C1020 C1019 1.523 . S
C1021 C1005 1.429 . S
C1021 C1017 1.429 . S
C1021 C1022 1.523 . S
C1022 C1006 1.368 . S
C1022 C1018 1.368 . S
C1022 C1021 1.523 . S
H1023 C998 0.950 . S
H1024 C1000 0.950 . S
H1025 C1001 0.949 . S
H1026 C1003 0.950 . S
H1027 C1005 0.950 . S
C1028 C1029 1.349 . S
C1028 C1030 1.327 . S
C1028 H1053 0.950 . S
C1029 C1028 1.349 . S
C1029 C1045 1.349 . S
C1030 C1028 1.327 . S
C1030 C1049 1.429 . S
C1030 H1054 0.950 . S
C1031 C1048 1.574 . S
C1031 C1050 1.368 . S
C1031 H1055 0.949 . S
H1032 C1036 0.949 . S
C1033 C1034 1.349 . S
C1033 C1035 1.327 . S
C1033 H1056 0.950 . S
C1034 C1033 1.349 . S
C1034 C1046 1.349 . S
C1035 C1033 1.327 . S
C1035 C1051 1.429 . S
C1035 H1057 0.950 . S
C1036 H1032 0.949 . S
C1036 C1044 1.574 . S
C1036 C1052 1.368 . S
H1037 C1045 0.950 . S
H1038 C1043 0.950 . S
H1039 C1044 0.949 . S
H1040 C1046 0.950 . S
H1041 C1047 0.950 . S
H1042 C1048 0.949 . S
C1043 H1038 0.950 . S
C1043 C1045 1.327 . S
C1043 C1049 1.429 . S
C1044 C1036 1.574 . S
C1044 H1039 0.949 . S
C1044 C1050 1.368 . S
C1045 C1029 1.349 . S
C1045 H1037 0.950 . S
C1045 C1043 1.327 . S
C1046 C1034 1.349 . S
C1046 H1040 0.950 . S
C1046 C1047 1.327 . S
C1047 H1041 0.950 . S
C1047 C1046 1.327 . S
C1047 C1051 1.429 . S
C1048 C1031 1.574 . S
C1048 H1042 0.949 . S
C1048 C1052 1.368 . S
C1049 C1030 1.429 . S
C1049 C1043 1.429 . S
C1049 C1050 1.523 . S
C1050 C1031 1.368 . S
C1050 C1044 1.368 . S
C1050 C1049 1.523 . S
C1051 C1035 1.429 . S
C1051 C1047 1.429 . S
C1051 C1052 1.523 . S
C1052 C1036 1.368 . S
C1052 C1048 1.368 . S
C1052 C1051 1.523 . S
H1053 C1028 0.950 . S
H1054 C1030 0.950 . S
H1055 C1031 0.949 . S
H1056 C1033 0.950 . S
H1057 C1035 0.950 . S
C1058 C1059 1.349 . S
C1058 C1060 1.327 . S
C1058 H1083 0.950 . S
C1059 C1058 1.349 . S
C1059 C1075 1.349 . S
C1060 C1058 1.327 . S
C1060 C1079 1.429 . S
C1060 H1084 0.950 . S
C1061 C1078 1.574 . S
C1061 C1080 1.368 . S
C1061 H1085 0.949 . S
H1062 C1066 0.949 . S
C1063 C1064 1.349 . S
C1063 C1065 1.327 . S
C1063 H1086 0.950 . S
C1064 C1063 1.349 . S
C1064 C1076 1.349 . S
C1065 C1063 1.327 . S
C1065 C1081 1.429 . S
C1065 H1087 0.950 . S
C1066 H1062 0.949 . S
C1066 C1074 1.574 . S
C1066 C1082 1.368 . S
H1067 C1075 0.950 . S
H1068 C1073 0.950 . S
H1069 C1074 0.949 . S
H1070 C1076 0.950 . S
H1071 C1077 0.950 . S
H1072 C1078 0.949 . S
C1073 H1068 0.950 . S
C1073 C1075 1.327 . S
C1073 C1079 1.429 . S
C1074 C1066 1.574 . S
C1074 H1069 0.949 . S
C1074 C1080 1.368 . S
C1075 C1059 1.349 . S
C1075 H1067 0.950 . S
C1075 C1073 1.327 . S
C1076 C1064 1.349 . S
C1076 H1070 0.950 . S
C1076 C1077 1.327 . S
C1077 H1071 0.950 . S
C1077 C1076 1.327 . S
C1077 C1081 1.429 . S
C1078 C1061 1.574 . S
C1078 H1072 0.949 . S
C1078 C1082 1.368 . S
C1079 C1060 1.429 . S
C1079 C1073 1.429 . S
C1079 C1080 1.523 . S
C1080 C1061 1.368 . S
C1080 C1074 1.368 . S
C1080 C1079 1.523 . S
C1081 C1065 1.429 . S
C1081 C1077 1.429 . S
C1081 C1082 1.523 . S
C1082 C1066 1.368 . S
C1082 C1078 1.368 . S
C1082 C1081 1.523 . S
H1083 C1058 0.950 . S
H1084 C1060 0.950 . S
H1085 C1061 0.949 . S
H1086 C1063 0.950 . S
H1087 C1065 0.950 . S
C1088 C1089 1.349 . S
C1088 C1090 1.327 . S
C1088 H1113 0.950 . S
C1089 C1088 1.349 . S
C1089 C1105 1.349 . S
C1090 C1088 1.327 . S
C1090 C1109 1.429 . S
C1090 H1114 0.950 . S
C1091 C1108 1.574 . S
C1091 C1110 1.368 . S
C1091 H1115 0.949 . S
H1092 C1096 0.949 . S
C1093 C1094 1.349 . S
C1093 C1095 1.327 . S
C1093 H1116 0.950 . S
C1094 C1093 1.349 . S
C1094 C1106 1.349 . S
C1095 C1093 1.327 . S
C1095 C1111 1.429 . S
C1095 H1117 0.950 . S
C1096 H1092 0.949 . S
C1096 C1104 1.574 . S
C1096 C1112 1.368 . S
H1097 C1105 0.950 . S
H1098 C1103 0.950 . S
H1099 C1104 0.949 1_655 S
H1100 C1106 0.950 . S
H1101 C1107 0.950 . S
H1102 C1108 0.949 . S
C1103 H1098 0.950 . S
C1103 C1105 1.327 . S
C1103 C1109 1.429 . S
C1104 C1096 1.574 . S
C1104 H1099 0.949 1_455 S
C1104 C1110 1.368 . S
C1105 C1089 1.349 . S
C1105 H1097 0.950 . S
C1105 C1103 1.327 . S
C1106 C1094 1.349 . S
C1106 H1100 0.950 . S
C1106 C1107 1.327 . S
C1107 H1101 0.950 . S
C1107 C1106 1.327 . S
C1107 C1111 1.429 . S
C1108 C1091 1.574 . S
C1108 H1102 0.949 . S
C1108 C1112 1.368 . S
C1109 C1090 1.429 . S
C1109 C1103 1.429 . S
C1109 C1110 1.523 1_655 S
C1110 C1091 1.368 . S
C1110 C1104 1.368 . S
C1110 C1109 1.523 1_455 S
C1111 C1095 1.429 . S
C1111 C1107 1.429 . S
C1111 C1112 1.523 . S
C1112 C1096 1.368 . S
C1112 C1108 1.368 . S
C1112 C1111 1.523 . S
H1113 C1088 0.950 . S
H1114 C1090 0.950 . S
H1115 C1091 0.949 . S
H1116 C1093 0.950 . S
H1117 C1095 0.950 . S
C1118 C1119 1.349 . S
C1118 C1120 1.327 . S
C1118 H1143 0.950 . S
C1119 C1118 1.349 . S
C1119 C1135 1.349 . S
C1120 C1118 1.327 . S
C1120 C1139 1.429 . S
C1120 H1144 0.950 . S
C1121 C1138 1.574 . S
C1121 C1140 1.368 . S
C1121 H1145 0.949 . S
H1122 C1126 0.949 . S
C1123 C1124 1.349 . S
C1123 C1125 1.327 1_565 S
C1123 H1146 0.950 . S
C1124 C1123 1.349 . S
C1124 C1136 1.349 . S
C1125 C1123 1.327 1_545 S
C1125 C1141 1.429 1_545 S
C1125 H1147 0.950 . S
C1126 H1122 0.949 . S
C1126 C1134 1.574 1_565 S
C1126 C1142 1.368 1_565 S
H1127 C1135 0.950 . S
H1128 C1133 0.950 . S
H1129 C1134 0.932 1_565 S
H1130 C1136 0.950 . S
H1131 C1137 0.950 . S
H1132 C1138 0.949 . S
C1133 H1128 0.950 . S
C1133 C1135 1.327 . S
C1133 C1139 1.429 . S
C1134 C1126 1.574 1_545 S
C1134 H1129 0.932 1_545 S
C1134 C1140 1.368 . S
C1135 C1119 1.349 . S
C1135 H1127 0.950 . S
C1135 C1133 1.327 . S
C1136 C1124 1.349 . S
C1136 H1130 0.950 . S
C1136 C1137 1.327 . S
C1137 H1131 0.950 . S
C1137 C1136 1.327 . S
C1137 C1141 1.429 . S
C1138 C1121 1.574 . S
C1138 H1132 0.949 . S
C1138 C1142 1.368 . S
C1139 C1120 1.429 . S
C1139 C1133 1.429 . S
C1139 C1140 1.523 1_655 S
C1140 C1121 1.368 . S
C1140 C1134 1.368 . S
C1140 C1139 1.523 1_455 S
C1141 C1125 1.429 1_565 S
C1141 C1137 1.429 . S
C1141 C1142 1.523 1_565 S
C1142 C1126 1.368 1_545 S
C1142 C1138 1.368 . S
C1142 C1141 1.523 1_545 S
H1143 C1118 0.950 . S
H1144 C1120 0.950 . S
H1145 C1121 0.949 . S
H1146 C1123 0.950 . S
H1147 C1125 0.950 . S
C1148 C1149 1.349 . S
C1148 C1150 1.327 . S
C1148 H1173 0.950 . S
C1149 C1148 1.349 . S
C1149 C1165 1.349 . S
C1150 C1148 1.327 . S
C1150 C1169 1.429 . S
C1150 H1174 0.950 . S
C1151 C1168 1.574 1_545 S
C1151 C1170 1.368 . S
C1151 H1175 0.949 . S
H1152 C1156 0.949 . S
C1153 C1154 1.349 . S
C1153 C1155 1.327 . S
C1153 H1176 0.950 . S
C1154 C1153 1.349 . S
C1154 C1166 1.349 . S
C1155 C1153 1.327 . S
C1155 C1171 1.429 . S
C1155 H1177 0.950 . S
C1156 H1152 0.949 . S
C1156 C1164 1.574 . S
C1156 C1172 1.368 . S
H1157 C1165 0.950 . S
H1158 C1163 0.950 . S
H1159 C1164 0.949 . S
H1160 C1166 0.950 . S
H1161 C1167 0.950 1_545 S
H1162 C1168 0.949 . S
C1163 H1158 0.950 . S
C1163 C1165 1.327 . S
C1163 C1169 1.429 . S
C1164 C1156 1.574 . S
C1164 H1159 0.949 . S
C1164 C1170 1.368 . S
C1165 C1149 1.349 . S
C1165 H1157 0.950 . S
C1165 C1163 1.327 . S
C1166 C1154 1.349 . S
C1166 H1160 0.950 . S
C1166 C1167 1.327 . S
C1167 H1161 0.950 1_565 S
C1167 C1166 1.327 . S
C1167 C1171 1.429 . S
C1168 C1151 1.574 1_565 S
C1168 H1162 0.949 . S
C1168 C1172 1.368 1_565 S
C1169 C1150 1.429 . S
C1169 C1163 1.429 . S
C1169 C1170 1.523 . S
C1170 C1151 1.368 . S
C1170 C1164 1.368 . S
C1170 C1169 1.523 . S
C1171 C1155 1.429 . S
C1171 C1167 1.429 . S
C1171 C1172 1.523 1_565 S
C1172 C1156 1.368 . S
C1172 C1168 1.368 1_545 S
C1172 C1171 1.523 1_545 S
H1173 C1148 0.950 . S
H1174 C1150 0.950 . S
H1175 C1151 0.949 . S
H1176 C1153 0.950 . S
H1177 C1155 0.950 . S
C1178 C1179 1.349 . S
C1178 C1180 1.327 . S
C1178 H1203 0.950 . S
C1179 C1178 1.349 . S
C1179 C1195 1.349 . S
C1180 C1178 1.327 . S
C1180 C1199 1.429 . S
C1180 H1204 0.950 . S
C1181 C1198 1.574 . S
C1181 C1200 1.368 . S
C1181 H1205 0.949 . S
H1182 C1186 0.949 . S
C1183 C1184 1.349 . S
C1183 C1185 1.327 . S
C1183 H1206 0.950 . S
C1184 C1183 1.349 . S
C1184 C1196 1.349 . S
C1185 C1183 1.327 . S
C1185 C1201 1.429 . S
C1185 H1207 0.950 . S
C1186 H1182 0.949 . S
C1186 C1194 1.574 . S
C1186 C1202 1.368 . S
H1187 C1195 0.950 . S
H1188 C1193 0.950 . S
H1189 C1194 0.949 . S
H1190 C1196 0.950 . S
H1191 C1197 0.950 . S
H1192 C1198 0.949 . S
C1193 H1188 0.950 . S
C1193 C1195 1.327 . S
C1193 C1199 1.429 . S
C1194 C1186 1.574 . S
C1194 H1189 0.949 . S
C1194 C1200 1.368 . S
C1195 C1179 1.349 . S
C1195 H1187 0.950 . S
C1195 C1193 1.327 . S
C1196 C1184 1.349 . S
C1196 H1190 0.950 . S
C1196 C1197 1.327 . S
C1197 H1191 0.950 . S
C1197 C1196 1.327 . S
C1197 C1201 1.429 . S
C1198 C1181 1.574 . S
C1198 H1192 0.949 . S
C1198 C1202 1.368 . S
C1199 C1180 1.429 . S
C1199 C1193 1.429 . S
C1199 C1200 1.523 . S
C1200 C1181 1.368 . S
C1200 C1194 1.368 . S
C1200 C1199 1.523 . S
C1201 C1185 1.429 . S
C1201 C1197 1.429 . S
C1201 C1202 1.523 . S
C1202 C1186 1.368 . S
C1202 C1198 1.368 . S
C1202 C1201 1.523 . S
H1203 C1178 0.950 . S
H1204 C1180 0.950 . S
H1205 C1181 0.949 . S
H1206 C1183 0.950 . S
H1207 C1185 0.950 . S
C1208 C1209 1.349 . S
C1208 C1210 1.327 . S
C1208 H1233 0.950 . S
C1209 C1208 1.349 . S
C1209 C1225 1.349 . S
C1210 C1208 1.327 . S
C1210 C1229 1.429 . S
C1210 H1234 0.950 . S
C1211 C1228 1.574 1_455 S
C1211 C1230 1.368 . S
C1211 H1235 0.949 1_455 S
H1212 C1216 0.949 . S
C1213 C1214 1.349 . S
C1213 C1215 1.327 . S
C1213 H1236 0.950 . S
C1214 C1213 1.349 . S
C1214 C1226 1.349 . S
C1215 C1213 1.327 . S
C1215 C1231 1.429 . S
C1215 H1237 0.950 . S
C1216 H1212 0.949 . S
C1216 C1224 1.574 . S
C1216 C1232 1.368 1_455 S
H1217 C1225 0.950 . S
H1218 C1223 0.950 . S
H1219 C1224 0.949 . S
H1220 C1226 0.950 . S
H1221 C1227 0.950 1_455 S
H1222 C1228 0.949 . S
C1223 H1218 0.950 . S
C1223 C1225 1.327 . S
C1223 C1229 1.429 . S
C1224 C1216 1.574 . S
C1224 H1219 0.949 . S
C1224 C1230 1.368 . S
C1225 C1209 1.349 . S
C1225 H1217 0.950 . S
C1225 C1223 1.327 . S
C1226 C1214 1.349 . S
C1226 H1220 0.950 . S
C1226 C1227 1.327 . S
C1227 H1221 0.950 1_655 S
C1227 C1226 1.327 . S
C1227 C1231 1.429 . S
C1228 C1211 1.574 1_655 S
C1228 H1222 0.949 . S
C1228 C1232 1.368 . S
C1229 C1210 1.429 . S
C1229 C1223 1.429 . S
C1229 C1230 1.523 . S
C1230 C1211 1.368 . S
C1230 C1224 1.368 . S
C1230 C1229 1.523 . S
C1231 C1215 1.429 . S
C1231 C1227 1.429 . S
C1231 C1232 1.523 . S
C1232 C1216 1.368 1_655 S
C1232 C1228 1.368 . S
C1232 C1231 1.523 . S
H1233 C1208 0.950 . S
H1234 C1210 0.950 . S
H1235 C1211 0.949 1_655 S
H1236 C1213 0.950 . S
H1237 C1215 0.950 . S
C1238 C1239 1.349 . S
C1238 C1240 1.327 . S
C1238 H1263 0.950 . S
C1239 C1238 1.349 . S
C1239 C1255 1.349 . S
C1240 C1238 1.327 . S
C1240 C1259 1.429 . S
C1240 H1264 0.950 . S
C1241 C1258 1.555 1_455 S
C1241 C1260 1.368 1_545 S
C1241 H1265 0.949 . S
H1242 C1246 0.949 . S
C1243 C1244 1.349 . S
C1243 C1245 1.327 . S
C1243 H1266 0.950 . S
C1244 C1243 1.349 . S
C1244 C1256 1.349 . S
C1245 C1243 1.327 . S
C1245 C1261 1.429 . S
C1245 H1267 0.950 . S
C1246 H1242 0.949 . S
C1246 C1254 1.574 . S
C1246 C1262 1.368 1_465 S
H1247 C1255 0.950 . S
H1248 C1253 0.950 1_545 S
H1249 C1254 0.949 . S
H1250 C1256 0.950 . S
H1251 C1257 0.950 . S
H1252 C1258 0.965 . S
C1253 H1248 0.950 1_565 S
C1253 C1255 1.327 . S
C1253 C1259 1.429 . S
C1254 C1246 1.574 . S
C1254 H1249 0.949 . S
C1254 C1260 1.368 . S
C1255 C1239 1.349 . S
C1255 H1247 0.950 . S
C1255 C1253 1.327 . S
C1256 C1244 1.349 . S
C1256 H1250 0.950 . S
C1256 C1257 1.327 . S
C1257 H1251 0.950 . S
C1257 C1256 1.327 . S
C1257 C1261 1.429 . S
C1258 C1241 1.555 1_655 S
C1258 H1252 0.965 . S
C1258 C1262 1.371 . S
C1259 C1240 1.429 . S
C1259 C1253 1.429 . S
C1259 C1260 1.523 . S
C1260 C1241 1.368 1_565 S
C1260 C1254 1.368 . S
C1260 C1259 1.523 . S
C1261 C1245 1.429 . S
C1261 C1257 1.429 . S
C1261 C1262 1.523 . S
C1262 C1246 1.368 1_645 S
C1262 C1258 1.371 . S
C1262 C1261 1.523 . S
H1263 C1238 0.950 . S
H1264 C1240 0.950 . S
H1265 C1241 0.949 . S
H1266 C1243 0.950 . S
H1267 C1245 0.950 . S
C1268 C1269 1.349 . S
C1268 C1270 1.327 . S
C1268 H1293 0.950 . S
C1269 C1268 1.349 . S
C1269 C1285 1.349 . S
C1270 C1268 1.327 . S
C1270 C1289 1.429 . S
C1270 H1294 0.950 . S
C1271 C1288 1.574 . S
C1271 C1290 1.368 . S
C1271 H1295 0.949 . S
H1272 C1276 0.949 . S
C1273 C1274 1.349 . S
C1273 C1275 1.327 . S
C1273 H1296 0.950 . S
C1274 C1273 1.349 . S
C1274 C1286 1.349 . S
C1275 C1273 1.327 . S
C1275 C1291 1.429 . S
C1275 H1297 0.950 . S
C1276 H1272 0.949 . S
C1276 C1284 1.574 1_565 S
C1276 C1292 1.368 . S
H1277 C1285 0.950 . S
H1278 C1283 0.950 . S
H1279 C1284 0.949 . S
H1280 C1286 0.950 . S
H1281 C1287 0.950 . S
H1282 C1288 0.949 . S
C1283 H1278 0.950 . S
C1283 C1285 1.327 . S
C1283 C1289 1.429 . S
C1284 C1276 1.574 1_545 S
C1284 H1279 0.949 . S
C1284 C1290 1.368 . S
C1285 C1269 1.349 . S
C1285 H1277 0.950 . S
C1285 C1283 1.327 . S
C1286 C1274 1.349 . S
C1286 H1280 0.950 . S
C1286 C1287 1.327 . S
C1287 H1281 0.950 . S
C1287 C1286 1.327 . S
C1287 C1291 1.429 . S
C1288 C1271 1.574 . S
C1288 H1282 0.949 . S
C1288 C1292 1.368 1_545 S
C1289 C1270 1.429 . S
C1289 C1283 1.429 . S
C1289 C1290 1.523 . S
C1290 C1271 1.368 . S
C1290 C1284 1.368 . S
C1290 C1289 1.523 . S
C1291 C1275 1.429 . S
C1291 C1287 1.429 . S
C1291 C1292 1.523 . S
C1292 C1276 1.368 . S
C1292 C1288 1.368 1_565 S
C1292 C1291 1.523 . S
H1293 C1268 0.950 . S
H1294 C1270 0.950 . S
H1295 C1271 0.949 . S
H1296 C1273 0.950 . S
H1297 C1275 0.950 . S
C1298 C1299 1.349 . S
C1298 C1300 1.327 . S
C1298 H1323 0.950 . S
C1299 C1298 1.349 . S
C1299 C1315 1.349 . S
C1300 C1298 1.327 . S
C1300 C1319 1.429 . S
C1300 H1324 0.950 . S
C1301 C1318 1.574 . S
C1301 C1320 1.368 . S
C1301 H1325 0.949 . S
H1302 C1306 0.949 . S
C1303 C1304 1.349 . S
C1303 C1305 1.327 . S
C1303 H1326 0.950 . S
C1304 C1303 1.349 . S
C1304 C1316 1.349 . S
C1305 C1303 1.327 . S
C1305 C1321 1.429 . S
C1305 H1327 0.950 . S
C1306 H1302 0.949 . S
C1306 C1314 1.574 . S
C1306 C1322 1.368 . S
H1307 C1315 0.950 . S
H1308 C1313 0.950 . S
H1309 C1314 0.949 . S
H1310 C1316 0.950 . S
H1311 C1317 0.950 . S
H1312 C1318 0.949 . S
C1313 H1308 0.950 . S
C1313 C1315 1.327 . S
C1313 C1319 1.429 . S
C1314 C1306 1.574 . S
C1314 H1309 0.949 . S
C1314 C1320 1.368 . S
C1315 C1299 1.349 . S
C1315 H1307 0.950 . S
C1315 C1313 1.327 . S
C1316 C1304 1.349 . S
C1316 H1310 0.950 . S
C1316 C1317 1.327 . S
C1317 H1311 0.950 . S
C1317 C1316 1.327 . S
C1317 C1321 1.429 . S
C1318 C1301 1.574 . S
C1318 H1312 0.949 . S
C1318 C1322 1.368 . S
C1319 C1300 1.429 . S
C1319 C1313 1.429 . S
C1319 C1320 1.523 . S
C1320 C1301 1.368 . S
C1320 C1314 1.368 . S
C1320 C1319 1.523 . S
C1321 C1305 1.429 . S
C1321 C1317 1.429 . S
C1321 C1322 1.523 . S
C1322 C1306 1.368 . S
C1322 C1318 1.368 . S
C1322 C1321 1.523 . S
H1323 C1298 0.950 . S
H1324 C1300 0.950 . S
H1325 C1301 0.949 . S
H1326 C1303 0.950 . S
H1327 C1305 0.950 . S
C1328 C1329 1.349 . S
C1328 C1330 1.327 . S
C1328 H1353 0.950 . S
C1329 C1328 1.349 . S
C1329 C1345 1.349 . S
C1330 C1328 1.327 . S
C1330 C1349 1.429 . S
C1330 H1354 0.950 . S
C1331 C1348 1.574 . S
C1331 C1350 1.368 . S
C1331 H1355 0.949 . S
H1332 C1336 0.949 . S
C1333 C1334 1.349 . S
C1333 C1335 1.327 . S
C1333 H1356 0.950 . S
C1334 C1333 1.349 . S
C1334 C1346 1.349 . S
C1335 C1333 1.327 . S
C1335 C1351 1.429 . S
C1335 H1357 0.950 . S
C1336 H1332 0.949 . S
C1336 C1344 1.574 . S
C1336 C1352 1.368 . S
H1337 C1345 0.950 . S
H1338 C1343 0.950 . S
H1339 C1344 0.949 . S
H1340 C1346 0.950 . S
H1341 C1347 0.950 . S
H1342 C1348 0.949 . S
C1343 H1338 0.950 . S
C1343 C1345 1.327 . S
C1343 C1349 1.429 . S
C1344 C1336 1.574 . S
C1344 H1339 0.949 . S
C1344 C1350 1.368 . S
C1345 C1329 1.349 . S
C1345 H1337 0.950 . S
C1345 C1343 1.327 . S
C1346 C1334 1.349 . S
C1346 H1340 0.950 . S
C1346 C1347 1.327 . S
C1347 H1341 0.950 . S
C1347 C1346 1.327 . S
C1347 C1351 1.429 . S
C1348 C1331 1.574 . S
C1348 H1342 0.949 . S
C1348 C1352 1.368 . S
C1349 C1330 1.429 . S
C1349 C1343 1.429 . S
C1349 C1350 1.523 . S
C1350 C1331 1.368 . S
C1350 C1344 1.368 . S
C1350 C1349 1.523 . S
C1351 C1335 1.429 . S
C1351 C1347 1.429 . S
C1351 C1352 1.523 . S
C1352 C1336 1.368 . S
C1352 C1348 1.368 . S
C1352 C1351 1.523 . S
H1353 C1328 0.950 . S
H1354 C1330 0.950 . S
H1355 C1331 0.949 . S
H1356 C1333 0.950 . S
H1357 C1335 0.950 . S
C1358 C1359 1.349 . S
C1358 C1360 1.327 . S
C1358 H1383 0.950 . S
C1359 C1358 1.349 . S
C1359 C1375 1.349 . S
C1360 C1358 1.327 . S
C1360 C1379 1.429 . S
C1360 H1384 0.950 . S
C1361 C1378 1.574 . S
C1361 C1380 1.368 . S
C1361 H1385 0.949 . S
H1362 C1366 0.949 . S
C1363 C1364 1.349 . S
C1363 C1365 1.327 . S
C1363 H1386 0.950 . S
C1364 C1363 1.349 . S
C1364 C1376 1.349 . S
C1365 C1363 1.327 . S
C1365 C1381 1.429 . S
C1365 H1387 0.950 . S
C1366 H1362 0.949 . S
C1366 C1374 1.574 . S
C1366 C1382 1.368 . S
H1367 C1375 0.950 . S
H1368 C1373 0.950 . S
H1369 C1374 0.949 . S
H1370 C1376 0.950 . S
H1371 C1377 0.950 . S
H1372 C1378 0.949 . S
C1373 H1368 0.950 . S
C1373 C1375 1.327 . S
C1373 C1379 1.429 . S
C1374 C1366 1.574 . S
C1374 H1369 0.949 . S
C1374 C1380 1.368 . S
C1375 C1359 1.349 . S
C1375 H1367 0.950 . S
C1375 C1373 1.327 . S
C1376 C1364 1.349 . S
C1376 H1370 0.950 . S
C1376 C1377 1.327 . S
C1377 H1371 0.950 . S
C1377 C1376 1.327 . S
C1377 C1381 1.429 . S
C1378 C1361 1.574 . S
C1378 H1372 0.949 . S
C1378 C1382 1.368 . S
C1379 C1360 1.429 . S
C1379 C1373 1.429 . S
C1379 C1380 1.523 . S
C1380 C1361 1.368 . S
C1380 C1374 1.368 . S
C1380 C1379 1.523 . S
C1381 C1365 1.429 . S
C1381 C1377 1.429 . S
C1381 C1382 1.523 . S
C1382 C1366 1.368 . S
C1382 C1378 1.368 . S
C1382 C1381 1.523 . S
H1383 C1358 0.950 . S
H1384 C1360 0.950 . S
H1385 C1361 0.949 . S
H1386 C1363 0.950 . S
H1387 C1365 0.950 . S
C1388 C1389 1.349 . S
C1388 C1390 1.327 . S
C1388 H1413 0.950 . S
C1389 C1388 1.349 . S
C1389 C1405 1.349 . S
C1390 C1388 1.327 . S
C1390 C1409 1.429 . S
C1390 H1414 0.950 . S
C1391 C1408 1.574 . S
C1391 C1410 1.368 . S
C1391 H1415 0.949 . S
H1392 C1396 0.949 . S
C1393 C1394 1.349 . S
C1393 C1395 1.327 . S
C1393 H1416 0.950 . S
C1394 C1393 1.349 . S
C1394 C1406 1.349 . S
C1395 C1393 1.327 . S
C1395 C1411 1.429 . S
C1395 H1417 0.950 . S
C1396 H1392 0.949 . S
C1396 C1404 1.574 . S
C1396 C1412 1.368 . S
H1397 C1405 0.950 . S
H1398 C1403 0.950 . S
H1399 C1404 0.949 . S
H1400 C1406 0.950 . S
H1401 C1407 0.950 . S
H1402 C1408 0.949 . S
C1403 H1398 0.950 . S
C1403 C1405 1.327 . S
C1403 C1409 1.429 . S
C1404 C1396 1.574 . S
C1404 H1399 0.949 . S
C1404 C1410 1.368 . S
C1405 C1389 1.349 . S
C1405 H1397 0.950 . S
C1405 C1403 1.327 . S
C1406 C1394 1.349 . S
C1406 H1400 0.950 . S
C1406 C1407 1.327 . S
C1407 H1401 0.950 . S
C1407 C1406 1.327 . S
C1407 C1411 1.429 . S
C1408 C1391 1.574 . S
C1408 H1402 0.949 . S
C1408 C1412 1.368 . S
C1409 C1390 1.429 . S
C1409 C1403 1.429 . S
C1409 C1410 1.523 . S
C1410 C1391 1.368 . S
C1410 C1404 1.368 . S
C1410 C1409 1.523 . S
C1411 C1395 1.429 . S
C1411 C1407 1.429 . S
C1411 C1412 1.523 . S
C1412 C1396 1.368 . S
C1412 C1408 1.368 . S
C1412 C1411 1.523 . S
H1413 C1388 0.950 . S
H1414 C1390 0.950 . S
H1415 C1391 0.949 . S
H1416 C1393 0.950 . S
H1417 C1395 0.950 . S
C1418 C1419 1.349 . S
C1418 C1420 1.327 . S
C1418 H1443 0.950 . S
C1419 C1418 1.349 . S
C1419 C1435 1.349 . S
C1420 C1418 1.327 . S
C1420 C1439 1.429 . S
C1420 H1444 0.950 . S
C1421 C1438 1.574 . S
C1421 C1440 1.368 . S
C1421 H1445 0.949 . S
H1422 C1426 0.949 . S
C1423 C1424 1.349 . S
C1423 C1425 1.327 . S
C1423 H1446 0.950 . S
C1424 C1423 1.349 . S
C1424 C1436 1.349 . S
C1425 C1423 1.327 . S
C1425 C1441 1.429 . S
C1425 H1447 0.950 . S
C1426 H1422 0.949 . S
C1426 C1434 1.574 . S
C1426 C1442 1.368 . S
H1427 C1435 0.950 . S
H1428 C1433 0.950 . S
H1429 C1434 0.949 . S
H1430 C1436 0.950 . S
H1431 C1437 0.950 . S
H1432 C1438 0.949 . S
C1433 H1428 0.950 . S
C1433 C1435 1.327 . S
C1433 C1439 1.429 . S
C1434 C1426 1.574 . S
C1434 H1429 0.949 . S
C1434 C1440 1.368 . S
C1435 C1419 1.349 . S
C1435 H1427 0.950 . S
C1435 C1433 1.327 . S
C1436 C1424 1.349 . S
C1436 H1430 0.950 . S
C1436 C1437 1.327 . S
C1437 H1431 0.950 . S
C1437 C1436 1.327 . S
C1437 C1441 1.429 . S
C1438 C1421 1.574 . S
C1438 H1432 0.949 . S
C1438 C1442 1.368 . S
C1439 C1420 1.429 . S
C1439 C1433 1.429 . S
C1439 C1440 1.523 . S
C1440 C1421 1.368 . S
C1440 C1434 1.368 . S
C1440 C1439 1.523 . S
C1441 C1425 1.429 . S
C1441 C1437 1.429 . S
C1441 C1442 1.523 . S
C1442 C1426 1.368 . S
C1442 C1438 1.368 . S
C1442 C1441 1.523 . S
H1443 C1418 0.950 . S
H1444 C1420 0.950 . S
H1445 C1421 0.949 . S
H1446 C1423 0.950 . S
H1447 C1425 0.950 . S
C1448 C1449 1.349 . S
C1448 C1450 1.327 . S
C1448 H1473 0.950 . S
C1449 C1448 1.349 . S
C1449 C1465 1.349 . S
C1450 C1448 1.327 . S
C1450 C1469 1.429 . S
C1450 H1474 0.950 . S
C1451 C1468 1.574 . S
C1451 C1470 1.368 . S
C1451 H1475 0.949 . S
H1452 C1456 0.949 . S
C1453 C1454 1.349 . S
C1453 C1455 1.327 . S
C1453 H1476 0.950 . S
C1454 C1453 1.349 . S
C1454 C1466 1.349 . S
C1455 C1453 1.327 . S
C1455 C1471 1.429 . S
C1455 H1477 0.950 . S
C1456 H1452 0.949 . S
C1456 C1464 1.574 . S
C1456 C1472 1.368 . S
H1457 C1465 0.950 . S
H1458 C1463 0.950 . S
H1459 C1464 0.949 . S
H1460 C1466 0.950 . S
H1461 C1467 0.950 . S
H1462 C1468 0.949 . S
C1463 H1458 0.950 . S
C1463 C1465 1.327 . S
C1463 C1469 1.429 . S
C1464 C1456 1.574 . S
C1464 H1459 0.949 . S
C1464 C1470 1.368 . S
C1465 C1449 1.349 . S
C1465 H1457 0.950 . S
C1465 C1463 1.327 . S
C1466 C1454 1.349 . S
C1466 H1460 0.950 . S
C1466 C1467 1.327 . S
C1467 H1461 0.950 . S
C1467 C1466 1.327 . S
C1467 C1471 1.429 . S
C1468 C1451 1.574 . S
C1468 H1462 0.949 . S
C1468 C1472 1.368 . S
C1469 C1450 1.429 . S
C1469 C1463 1.429 . S
C1469 C1470 1.523 . S
C1470 C1451 1.368 . S
C1470 C1464 1.368 . S
C1470 C1469 1.523 . S
C1471 C1455 1.429 . S
C1471 C1467 1.429 . S
C1471 C1472 1.523 . S
C1472 C1456 1.368 . S
C1472 C1468 1.368 . S
C1472 C1471 1.523 . S
H1473 C1448 0.950 . S
H1474 C1450 0.950 . S
H1475 C1451 0.949 . S
H1476 C1453 0.950 . S
H1477 C1455 0.950 . S
C1478 C1479 1.349 . S
C1478 C1480 1.327 . S
C1478 H1503 0.950 . S
C1479 C1478 1.349 . S
C1479 C1495 1.349 . S
C1480 C1478 1.327 . S
C1480 C1499 1.429 . S
C1480 H1504 0.950 . S
C1481 C1498 1.574 . S
C1481 C1500 1.368 . S
C1481 H1505 0.949 . S
H1482 C1486 0.949 . S
C1483 C1484 1.349 . S
C1483 C1485 1.327 . S
C1483 H1506 0.950 . S
C1484 C1483 1.349 . S
C1484 C1496 1.349 . S
C1485 C1483 1.327 . S
C1485 C1501 1.429 . S
C1485 H1507 0.950 . S
C1486 H1482 0.949 . S
C1486 C1494 1.574 . S
C1486 C1502 1.368 . S
H1487 C1495 0.950 . S
H1488 C1493 0.950 . S
H1489 C1494 0.949 . S
H1490 C1496 0.950 . S
H1491 C1497 0.950 . S
H1492 C1498 0.949 . S
C1493 H1488 0.950 . S
C1493 C1495 1.327 . S
C1493 C1499 1.429 . S
C1494 C1486 1.574 . S
C1494 H1489 0.949 . S
C1494 C1500 1.368 . S
C1495 C1479 1.349 . S
C1495 H1487 0.950 . S
C1495 C1493 1.327 . S
C1496 C1484 1.349 . S
C1496 H1490 0.950 . S
C1496 C1497 1.327 . S
C1497 H1491 0.950 . S
C1497 C1496 1.327 . S
C1497 C1501 1.429 . S
C1498 C1481 1.574 . S
C1498 H1492 0.949 . S
C1498 C1502 1.368 . S
C1499 C1480 1.429 . S
C1499 C1493 1.429 . S
C1499 C1500 1.523 . S
C1500 C1481 1.368 . S
C1500 C1494 1.368 . S
C1500 C1499 1.523 . S
C1501 C1485 1.429 . S
C1501 C1497 1.429 . S
C1501 C1502 1.523 . S
C1502 C1486 1.368 . S
C1502 C1498 1.368 . S
C1502 C1501 1.523 . S
H1503 C1478 0.950 . S
H1504 C1480 0.950 . S
H1505 C1481 0.949 . S
H1506 C1483 0.950 . S
H1507 C1485 0.950 . S
C1508 C1509 1.349 . S
C1508 C1510 1.327 . S
C1508 H1533 0.950 . S
C1509 C1508 1.349 . S
C1509 C1525 1.349 . S
C1510 C1508 1.327 . S
C1510 C1529 1.429 . S
C1510 H1534 0.950 . S
C1511 C1528 1.574 . S
C1511 C1530 1.368 . S
C1511 H1535 0.949 . S
H1512 C1516 0.949 . S
C1513 C1514 1.349 . S
C1513 C1515 1.327 . S
C1513 H1536 0.950 . S
C1514 C1513 1.349 . S
C1514 C1526 1.349 . S
C1515 C1513 1.327 . S
C1515 C1531 1.429 . S
C1515 H1537 0.950 . S
C1516 H1512 0.949 . S
C1516 C1524 1.574 . S
C1516 C1532 1.368 . S
H1517 C1525 0.950 . S
H1518 C1523 0.950 . S
H1519 C1524 0.949 . S
H1520 C1526 0.950 . S
H1521 C1527 0.950 . S
H1522 C1528 0.949 . S
C1523 H1518 0.950 . S
C1523 C1525 1.327 . S
C1523 C1529 1.429 . S
C1524 C1516 1.574 . S
C1524 H1519 0.949 . S
C1524 C1530 1.368 . S
C1525 C1509 1.349 . S
C1525 H1517 0.950 . S
C1525 C1523 1.327 . S
C1526 C1514 1.349 . S
C1526 H1520 0.950 . S
C1526 C1527 1.327 . S
C1527 H1521 0.950 . S
C1527 C1526 1.327 . S
C1527 C1531 1.429 . S
C1528 C1511 1.574 . S
C1528 H1522 0.949 . S
C1528 C1532 1.368 . S
C1529 C1510 1.429 . S
C1529 C1523 1.429 . S
C1529 C1530 1.523 . S
C1530 C1511 1.368 . S
C1530 C1524 1.368 . S
C1530 C1529 1.523 . S
C1531 C1515 1.429 . S
C1531 C1527 1.429 . S
C1531 C1532 1.523 . S
C1532 C1516 1.368 . S
C1532 C1528 1.368 . S
C1532 C1531 1.523 . S
H1533 C1508 0.950 . S
H1534 C1510 0.950 . S
H1535 C1511 0.949 . S
H1536 C1513 0.950 . S
H1537 C1515 0.950 . S
C1538 C1539 1.349 . S
C1538 C1540 1.327 . S
C1538 H1563 0.950 . S
C1539 C1538 1.349 . S
C1539 C1555 1.349 . S
C1540 C1538 1.327 . S
C1540 C1559 1.429 . S
C1540 H1564 0.950 . S
C1541 C1558 1.574 . S
C1541 C1560 1.368 . S
C1541 H1565 0.949 . S
H1542 C1546 0.949 . S
C1543 C1544 1.349 . S
C1543 C1545 1.327 . S
C1543 H1566 0.950 . S
C1544 C1543 1.349 . S
C1544 C1556 1.349 . S
C1545 C1543 1.327 . S
C1545 C1561 1.429 . S
C1545 H1567 0.950 . S
C1546 H1542 0.949 . S
C1546 C1554 1.574 . S
C1546 C1562 1.368 . S
H1547 C1555 0.950 . S
H1548 C1553 0.950 . S
H1549 C1554 0.949 . S
H1550 C1556 0.950 . S
H1551 C1557 0.950 . S
H1552 C1558 0.949 . S
C1553 H1548 0.950 . S
C1553 C1555 1.327 . S
C1553 C1559 1.429 . S
C1554 C1546 1.574 . S
C1554 H1549 0.949 . S
C1554 C1560 1.368 . S
C1555 C1539 1.349 . S
C1555 H1547 0.950 . S
C1555 C1553 1.327 . S
C1556 C1544 1.349 . S
C1556 H1550 0.950 . S
C1556 C1557 1.327 . S
C1557 H1551 0.950 . S
C1557 C1556 1.327 . S
C1557 C1561 1.429 . S
C1558 C1541 1.574 . S
C1558 H1552 0.949 . S
C1558 C1562 1.368 . S
C1559 C1540 1.429 . S
C1559 C1553 1.429 . S
C1559 C1560 1.523 . S
C1560 C1541 1.368 . S
C1560 C1554 1.368 . S
C1560 C1559 1.523 . S
C1561 C1545 1.429 . S
C1561 C1557 1.429 . S
C1561 C1562 1.523 . S
C1562 C1546 1.368 . S
C1562 C1558 1.368 . S
C1562 C1561 1.523 . S
H1563 C1538 0.950 . S
H1564 C1540 0.950 . S
H1565 C1541 0.949 . S
H1566 C1543 0.950 . S
H1567 C1545 0.950 . S
C1568 C1569 1.349 . S
C1568 C1570 1.327 . S
C1568 H1593 0.950 . S
C1569 C1568 1.349 . S
C1569 C1585 1.349 . S
C1570 C1568 1.327 . S
C1570 C1589 1.429 . S
C1570 H1594 0.950 . S
C1571 C1588 1.574 1_554 S
C1571 C1590 1.368 . S
C1571 H1595 0.949 . S
H1572 C1576 0.949 . S
C1573 C1574 1.349 . S
C1573 C1575 1.327 . S
C1573 H1596 0.950 . S
C1574 C1573 1.349 . S
C1574 C1586 1.349 . S
C1575 C1573 1.327 . S
C1575 C1591 1.429 . S
C1575 H1597 0.950 . S
C1576 H1572 0.949 . S
C1576 C1584 1.574 1_655 S
C1576 C1592 1.368 . S
H1577 C1585 0.950 . S
H1578 C1583 0.950 . S
H1579 C1584 0.949 . S
H1580 C1586 0.950 . S
H1581 C1587 0.950 . S
H1582 C1588 0.949 . S
C1583 H1578 0.950 . S
C1583 C1585 1.327 . S
C1583 C1589 1.429 . S
C1584 C1576 1.574 1_455 S
C1584 H1579 0.949 . S
C1584 C1590 1.368 1_556 S
C1585 C1569 1.349 . S
C1585 H1577 0.950 . S
C1585 C1583 1.327 . S
C1586 C1574 1.349 . S
C1586 H1580 0.950 . S
C1586 C1587 1.327 . S
C1587 H1581 0.950 . S
C1587 C1586 1.327 . S
C1587 C1591 1.429 . S
C1588 C1571 1.574 1_556 S
C1588 H1582 0.949 . S
C1588 C1592 1.368 1_455 S
C1589 C1570 1.429 . S
C1589 C1583 1.429 . S
C1589 C1590 1.523 . S
C1590 C1571 1.368 . S
C1590 C1584 1.368 1_554 S
C1590 C1589 1.523 . S
C1591 C1575 1.429 . S
C1591 C1587 1.429 . S
C1591 C1592 1.523 . S
C1592 C1576 1.368 . S
C1592 C1588 1.368 1_655 S
C1592 C1591 1.523 . S
H1593 C1568 0.950 . S
H1594 C1570 0.950 . S
H1595 C1571 0.949 . S
H1596 C1573 0.950 . S
H1597 C1575 0.950 . S
C1598 C1599 1.349 . S
C1598 C1600 1.327 . S
C1598 H1623 0.950 . S
C1599 C1598 1.349 . S
C1599 C1615 1.349 . S
C1600 C1598 1.327 . S
C1600 C1619 1.429 . S
C1600 H1624 0.950 . S
C1601 C1618 1.574 . S
C1601 C1620 1.368 1_545 S
C1601 H1625 0.949 . S
H1602 C1606 0.949 . S
C1603 C1604 1.349 . S
C1603 C1605 1.327 . S
C1603 H1626 0.950 . S
C1604 C1603 1.349 . S
C1604 C1616 1.349 . S
C1605 C1603 1.327 . S
C1605 C1621 1.403 1_655 S
C1605 H1627 0.950 1_554 S
C1606 H1602 0.949 . S
C1606 C1614 1.595 1_545 S
C1606 C1622 1.368 . S
H1607 C1615 0.950 . S
H1608 C1613 0.950 . S
H1609 C1614 0.965 . S
H1610 C1616 0.950 . S
H1611 C1617 0.950 . S
H1612 C1618 0.949 1_655 S
C1613 H1608 0.950 . S
C1613 C1615 1.327 . S
C1613 C1619 1.429 . S
C1614 C1606 1.595 1_565 S
C1614 H1609 0.965 . S
C1614 C1620 1.330 1_554 S
C1615 C1599 1.349 . S
C1615 H1607 0.950 . S
C1615 C1613 1.327 . S
C1616 C1604 1.349 . S
C1616 H1610 0.950 . S
C1616 C1617 1.327 1_655 S
C1617 H1611 0.950 . S
C1617 C1616 1.327 1_455 S
C1617 C1621 1.437 . S
C1618 C1601 1.574 . S
C1618 H1612 0.949 1_455 S
C1618 C1622 1.368 1_556 S
C1619 C1600 1.429 . S
C1619 C1613 1.429 . S
C1619 C1620 1.523 . S
C1620 C1601 1.368 1_565 S
C1620 C1614 1.330 1_556 S
C1620 C1619 1.523 . S
C1621 C1605 1.403 1_455 S
C1621 C1617 1.437 . S
C1621 C1622 1.541 . S
C1622 C1606 1.368 . S
C1622 C1618 1.368 1_554 S
C1622 C1621 1.541 . S
H1623 C1598 0.950 . S
H1624 C1600 0.950 . S
H1625 C1601 0.949 . S
H1626 C1603 0.950 . S
H1627 C1605 0.950 1_556 S
C1628 C1629 1.349 . S
C1628 C1630 1.327 1_565 S
C1628 H1653 0.950 . S
C1629 C1628 1.349 . S
C1629 C1645 1.349 . S
C1630 C1628 1.327 1_545 S
C1630 C1649 1.432 . S
C1630 H1654 0.950 . S
C1631 C1648 1.574 . S
C1631 C1650 1.368 1_556 S
C1631 H1655 0.940 1_545 S
H1632 C1636 0.949 . S
C1633 C1634 1.349 . S
C1633 C1635 1.327 . S
C1633 H1656 0.950 . S
C1634 C1633 1.349 . S
C1634 C1646 1.349 . S
C1635 C1633 1.327 . S
C1635 C1651 1.429 . S
C1635 H1657 0.950 . S
C1636 H1632 0.949 . S
C1636 C1644 1.574 . S
C1636 C1652 1.368 1_554 S
H1637 C1645 0.950 . S
H1638 C1643 0.950 1_556 S
H1639 C1644 0.949 . S
H1640 C1646 0.950 . S
H1641 C1647 0.950 . S
H1642 C1648 0.949 . S
C1643 H1638 0.950 1_554 S
C1643 C1645 1.327 . S
C1643 C1649 1.408 1_565 S
C1644 C1636 1.574 . S
C1644 H1639 0.949 . S
C1644 C1650 1.368 . S
C1645 C1629 1.349 . S
C1645 H1637 0.950 . S
C1645 C1643 1.327 . S
C1646 C1634 1.349 . S
C1646 H1640 0.950 . S
C1646 C1647 1.327 . S
C1647 H1641 0.950 . S
C1647 C1646 1.327 . S
C1647 C1651 1.429 . S
C1648 C1631 1.574 . S
C1648 H1642 0.949 . S
C1648 C1652 1.368 . S
C1649 C1630 1.432 . S
C1649 C1643 1.408 1_545 S
C1649 C1650 1.541 . S
C1650 C1631 1.368 1_554 S
C1650 C1644 1.368 . S
C1650 C1649 1.541 . S
C1651 C1635 1.429 . S
C1651 C1647 1.429 . S
C1651 C1652 1.523 . S
C1652 C1636 1.368 1_556 S
C1652 C1648 1.368 . S
C1652 C1651 1.523 . S
H1653 C1628 0.950 . S
H1654 C1630 0.950 . S
H1655 C1631 0.940 1_565 S
H1656 C1633 0.950 . S
H1657 C1635 0.950 . S
C1658 C1659 1.349 . S
C1658 C1660 1.327 . S
C1658 H1683 0.950 . S
C1659 C1658 1.349 . S
C1659 C1675 1.349 . S
C1660 C1658 1.327 . S
C1660 C1679 1.429 . S
C1660 H1684 0.950 . S
C1661 C1678 1.574 . S
C1661 C1680 1.368 . S
C1661 H1685 0.949 . S
H1662 C1666 0.949 . S
C1663 C1664 1.349 . S
C1663 C1665 1.327 . S
C1663 H1686 0.950 . S
C1664 C1663 1.349 . S
C1664 C1676 1.349 . S
C1665 C1663 1.327 . S
C1665 C1681 1.429 . S
C1665 H1687 0.950 . S
C1666 H1662 0.949 . S
C1666 C1674 1.574 1_554 S
C1666 C1682 1.368 . S
H1667 C1675 0.950 . S
H1668 C1673 0.950 . S
H1669 C1674 0.949 . S
H1670 C1676 0.950 . S
H1671 C1677 0.950 . S
H1672 C1678 0.949 . S
C1673 H1668 0.950 . S
C1673 C1675 1.327 . S
C1673 C1679 1.429 . S
C1674 C1666 1.574 1_556 S
C1674 H1669 0.949 . S
C1674 C1680 1.368 . S
C1675 C1659 1.349 . S
C1675 H1667 0.950 . S
C1675 C1673 1.327 . S
C1676 C1664 1.349 . S
C1676 H1670 0.950 . S
C1676 C1677 1.327 . S
C1677 H1671 0.950 . S
C1677 C1676 1.327 . S
C1677 C1681 1.429 . S
C1678 C1661 1.574 . S
C1678 H1672 0.949 . S
C1678 C1682 1.368 1_556 S
C1679 C1660 1.429 . S
C1679 C1673 1.429 . S
C1679 C1680 1.523 . S
C1680 C1661 1.368 . S
C1680 C1674 1.368 . S
C1680 C1679 1.523 . S
C1681 C1665 1.429 . S
C1681 C1677 1.429 . S
C1681 C1682 1.523 . S
C1682 C1666 1.368 . S
C1682 C1678 1.368 1_554 S
C1682 C1681 1.523 . S
H1683 C1658 0.950 . S
H1684 C1660 0.950 . S
H1685 C1661 0.949 . S
H1686 C1663 0.950 . S
H1687 C1665 0.950 . S
C1688 C1689 1.349 . S
C1688 C1690 1.327 1_565 S
C1688 H1713 0.950 . S
C1689 C1688 1.349 . S
C1689 C1705 1.349 . S
C1690 C1688 1.327 1_545 S
C1690 C1709 1.431 . S
C1690 H1714 0.950 . S
C1691 C1708 1.574 . S
C1691 C1710 1.368 . S
C1691 H1715 0.970 . S
H1692 C1696 0.949 . S
C1693 C1694 1.349 . S
C1693 C1695 1.327 . S
C1693 H1716 0.950 . S
C1694 C1693 1.349 . S
C1694 C1706 1.349 . S
C1695 C1693 1.327 . S
C1695 C1711 1.429 . S
C1695 H1717 0.950 . S
C1696 H1692 0.949 . S
C1696 C1704 1.574 1_655 S
C1696 C1712 1.368 . S
H1697 C1705 0.950 . S
H1698 C1703 0.950 . S
H1699 C1704 0.949 . S
H1700 C1706 0.950 . S
H1701 C1707 0.950 . S
H1702 C1708 0.949 . S
C1703 H1698 0.950 . S
C1703 C1705 1.327 . S
C1703 C1709 1.409 1_565 S
C1704 C1696 1.574 1_455 S
C1704 H1699 0.949 . S
C1704 C1710 1.368 . S
C1705 C1689 1.349 . S
C1705 H1697 0.950 . S
C1705 C1703 1.327 . S
C1706 C1694 1.349 . S
C1706 H1700 0.950 . S
C1706 C1707 1.327 . S
C1707 H1701 0.950 . S
C1707 C1706 1.327 . S
C1707 C1711 1.429 . S
C1708 C1691 1.574 . S
C1708 H1702 0.949 . S
C1708 C1712 1.368 1_455 S
C1709 C1690 1.431 . S
C1709 C1703 1.409 1_545 S
C1709 C1710 1.541 . S
C1710 C1691 1.368 . S
C1710 C1704 1.368 . S
C1710 C1709 1.541 . S
C1711 C1695 1.429 . S
C1711 C1707 1.429 . S
C1711 C1712 1.523 . S
C1712 C1696 1.368 . S
C1712 C1708 1.368 1_655 S
C1712 C1711 1.523 . S
H1713 C1688 0.950 . S
H1714 C1690 0.950 . S
H1715 C1691 0.970 . S
H1716 C1693 0.950 . S
H1717 C1695 0.950 . S
C1718 C1719 1.349 . S
C1718 C1720 1.327 . S
C1718 H1743 0.950 . S
C1719 C1718 1.349 . S
C1719 C1735 1.349 . S
C1720 C1718 1.327 . S
C1720 C1739 1.429 . S
C1720 H1744 0.950 . S
C1721 C1738 1.574 1_545 S
C1721 C1740 1.368 . S
C1721 H1745 0.949 . S
H1722 C1726 0.949 . S
C1723 C1724 1.349 . S
C1723 C1725 1.327 . S
C1723 H1746 0.950 . S
C1724 C1723 1.349 . S
C1724 C1736 1.349 . S
C1725 C1723 1.327 . S
C1725 C1741 1.429 . S
C1725 H1747 0.950 . S
C1726 H1722 0.949 . S
C1726 C1734 1.574 . S
C1726 C1742 1.368 1_545 S
H1727 C1735 0.950 . S
H1728 C1733 0.950 . S
H1729 C1734 0.949 . S
H1730 C1736 0.950 . S
H1731 C1737 0.950 . S
H1732 C1738 0.949 . S
C1733 H1728 0.950 . S
C1733 C1735 1.327 . S
C1733 C1739 1.429 . S
C1734 C1726 1.574 . S
C1734 H1729 0.949 . S
C1734 C1740 1.368 . S
C1735 C1719 1.349 . S
C1735 H1727 0.950 . S
C1735 C1733 1.327 . S
C1736 C1724 1.349 . S
C1736 H1730 0.950 . S
C1736 C1737 1.327 . S
C1737 H1731 0.950 . S
C1737 C1736 1.327 . S
C1737 C1741 1.429 . S
C1738 C1721 1.574 1_565 S
C1738 H1732 0.949 . S
C1738 C1742 1.368 . S
C1739 C1720 1.429 . S
C1739 C1733 1.429 . S
C1739 C1740 1.523 . S
C1740 C1721 1.368 . S
C1740 C1734 1.368 . S
C1740 C1739 1.523 . S
C1741 C1725 1.429 . S
C1741 C1737 1.429 . S
C1741 C1742 1.523 . S
C1742 C1726 1.368 1_565 S
C1742 C1738 1.368 . S
C1742 C1741 1.523 . S
H1743 C1718 0.950 . S
H1744 C1720 0.950 . S
H1745 C1721 0.949 . S
H1746 C1723 0.950 . S
H1747 C1725 0.950 . S
C1748 C1749 1.349 . S
C1748 C1750 1.327 . S
C1748 H1773 0.950 . S
C1749 C1748 1.349 . S
C1749 C1765 1.349 . S
C1750 C1748 1.327 . S
C1750 C1769 1.429 . S
C1750 H1774 0.950 . S
C1751 C1768 1.574 . S
C1751 C1770 1.368 . S
C1751 H1775 0.949 . S
H1752 C1756 0.949 . S
C1753 C1754 1.349 . S
C1753 C1755 1.327 . S
C1753 H1776 0.950 . S
C1754 C1753 1.349 . S
C1754 C1766 1.349 . S
C1755 C1753 1.327 . S
C1755 C1771 1.429 . S
C1755 H1777 0.950 . S
C1756 H1752 0.949 . S
C1756 C1764 1.574 . S
C1756 C1772 1.368 . S
H1757 C1765 0.950 . S
H1758 C1763 0.950 . S
H1759 C1764 0.949 . S
H1760 C1766 0.950 . S
H1761 C1767 0.950 . S
H1762 C1768 0.949 . S
C1763 H1758 0.950 . S
C1763 C1765 1.327 . S
C1763 C1769 1.429 . S
C1764 C1756 1.574 . S
C1764 H1759 0.949 . S
C1764 C1770 1.368 . S
C1765 C1749 1.349 . S
C1765 H1757 0.950 . S
C1765 C1763 1.327 . S
C1766 C1754 1.349 . S
C1766 H1760 0.950 . S
C1766 C1767 1.327 . S
C1767 H1761 0.950 . S
C1767 C1766 1.327 . S
C1767 C1771 1.429 . S
C1768 C1751 1.574 . S
C1768 H1762 0.949 . S
C1768 C1772 1.368 . S
C1769 C1750 1.429 . S
C1769 C1763 1.429 . S
C1769 C1770 1.523 . S
C1770 C1751 1.368 . S
C1770 C1764 1.368 . S
C1770 C1769 1.523 . S
C1771 C1755 1.429 . S
C1771 C1767 1.429 . S
C1771 C1772 1.523 . S
C1772 C1756 1.368 . S
C1772 C1768 1.368 . S
C1772 C1771 1.523 . S
H1773 C1748 0.950 . S
H1774 C1750 0.950 . S
H1775 C1751 0.949 . S
H1776 C1753 0.950 . S
H1777 C1755 0.950 . S
C1778 C1779 1.349 . S
C1778 C1780 1.327 1_655 S
C1778 H1803 0.950 . S
C1779 C1778 1.349 . S
C1779 C1795 1.349 . S
C1780 C1778 1.327 1_455 S
C1780 C1799 1.430 . S
C1780 H1804 0.950 . S
C1781 C1798 1.574 . S
C1781 C1800 1.368 . S
C1781 H1805 0.949 . S
H1782 C1786 0.949 . S
C1783 C1784 1.349 . S
C1783 C1785 1.327 . S
C1783 H1806 0.950 . S
C1784 C1783 1.349 . S
C1784 C1796 1.349 . S
C1785 C1783 1.327 . S
C1785 C1801 1.429 . S
C1785 H1807 0.950 . S
C1786 H1782 0.949 . S
C1786 C1794 1.574 . S
C1786 C1802 1.368 . S
H1787 C1795 0.950 . S
H1788 C1793 0.950 . S
H1789 C1794 0.949 . S
H1790 C1796 0.950 . S
H1791 C1797 0.950 . S
H1792 C1798 0.949 . S
C1793 H1788 0.950 . S
C1793 C1795 1.327 . S
C1793 C1799 1.410 1_655 S
C1794 C1786 1.574 . S
C1794 H1789 0.949 . S
C1794 C1800 1.368 . S
C1795 C1779 1.349 . S
C1795 H1787 0.950 . S
C1795 C1793 1.327 . S
C1796 C1784 1.349 . S
C1796 H1790 0.950 . S
C1796 C1797 1.327 . S
C1797 H1791 0.950 . S
C1797 C1796 1.327 . S
C1797 C1801 1.429 . S
C1798 C1781 1.574 . S
C1798 H1792 0.949 . S
C1798 C1802 1.368 . S
C1799 C1780 1.430 . S
C1799 C1793 1.410 1_455 S
C1799 C1800 1.541 . S
C1800 C1781 1.368 . S
C1800 C1794 1.368 . S
C1800 C1799 1.541 . S
C1801 C1785 1.429 . S
C1801 C1797 1.429 . S
C1801 C1802 1.523 . S
C1802 C1786 1.368 . S
C1802 C1798 1.368 . S
C1802 C1801 1.523 . S
H1803 C1778 0.950 . S
H1804 C1780 0.950 . S
H1805 C1781 0.949 . S
H1806 C1783 0.950 . S
H1807 C1785 0.950 . S
C849 C38 2.420 . S
C854 C144 2.420 . S
C879 C91 2.421 . S
C884 C197 2.421 . S
C909 C250 2.421 . S
C914 C356 2.421 . S
C939 C409 2.420 . S
C944 C303 2.420 . S
C969 C453 0.890 . S
C974 C559 0.890 . S
C999 C612 0.890 . S
C1004 C506 0.890 . S
C1029 C771 0.890 . S
C1034 C665 0.890 . S
C1059 C824 0.890 . S
C1064 C718 0.890 . S
C1089 C410 2.391 . S
C1094 C39 2.391 . S
C1119 C92 2.390 . S
C1124 C251 2.390 . S
C1149 C304 2.391 . S
C1154 C145 2.391 . S
C1179 C198 2.390 . S
C1184 C357 2.390 . S
C1209 C817 0.905 . S
C1214 C446 0.905 . S
C1239 C499 0.905 . S
C1244 C658 0.905 . S
C1269 C552 0.905 . S
C1274 C711 0.905 . S
C1299 C764 0.905 . S
C1304 C605 0.905 . S
C1329 C29 0.640 . S
C1334 C241 0.640 . S
C1359 C82 0.640 . S
C1364 C294 0.640 . S
C1389 C347 0.640 . S
C1394 C135 0.640 . S
C1419 C188 0.640 . S
C1424 C400 0.640 . S
C1449 C674 1.264 . S
C1454 C462 1.264 . S
C1479 C727 1.264 . S
C1484 C515 1.264 . S
C1509 C568 1.264 . S
C1514 C780 1.264 . S
C1539 C621 1.264 . S
C1544 C833 1.264 . S
C1569 C22 2.355 . S
C1574 C463 2.353 . S
C1599 C516 2.352 . S
C1604 C75 2.355 . S
C1629 C128 2.355 . S
C1634 C569 2.353 . S
C1659 C622 2.352 . S
C1664 C181 2.355 . S
C1689 C234 2.355 . S
C1694 C675 2.352 . S
C1719 C287 2.355 . S
C1724 C728 2.353 . S
C1749 C781 2.352 . S
C1754 C340 2.355 . S
C1779 C393 2.355 . S
C1784 C834 2.353 . S
