# Generated by pormake.
# Topology mmt, (4)-cn, num edge types: 1
# Building blocks:
#     Node 0, Type 0, BuildingBlock: CEKHIL_clean_sbu_0, # of connection points: 4
#     Node 1, Type 0, BuildingBlock: CEKHIL_clean_sbu_0, # of connection points: 4
#     Node 2, Type 0, BuildingBlock: CEKHIL_clean_sbu_0, # of connection points: 4
#     Node 3, Type 0, BuildingBlock: CEKHIL_clean_sbu_0, # of connection points: 4
#     Node 4, Type 0, BuildingBlock: CEKHIL_clean_sbu_0, # of connection points: 4
#     Node 5, Type 0, BuildingBlock: CEKHIL_clean_sbu_0, # of connection points: 4
#     Node 6, Type 0, BuildingBlock: CEKHIL_clean_sbu_0, # of connection points: 4
#     Node 7, Type 0, BuildingBlock: CEKHIL_clean_sbu_0, # of connection points: 4
#     Edge 8, Type (0, 0), BuildingBlock: ZUJKAS_clean_linker_0, # of connection points: 2
#     Edge 9, Type (0, 0), BuildingBlock: ZUJKAS_clean_linker_0, # of connection points: 2
#     Edge 10, Type (0, 0), BuildingBlock: ZUJKAS_clean_linker_0, # of connection points: 2
#     Edge 11, Type (0, 0), BuildingBlock: ZUJKAS_clean_linker_0, # of connection points: 2
#     Edge 12, Type (0, 0), BuildingBlock: ZUJKAS_clean_linker_0, # of connection points: 2
#     Edge 13, Type (0, 0), BuildingBlock: ZUJKAS_clean_linker_0, # of connection points: 2
#     Edge 14, Type (0, 0), BuildingBlock: ZUJKAS_clean_linker_0, # of connection points: 2
#     Edge 15, Type (0, 0), BuildingBlock: ZUJKAS_clean_linker_0, # of connection points: 2
#     Edge 16, Type (0, 0), BuildingBlock: ZUJKAS_clean_linker_0, # of connection points: 2
#     Edge 17, Type (0, 0), BuildingBlock: ZUJKAS_clean_linker_0, # of connection points: 2
#     Edge 18, Type (0, 0), BuildingBlock: ZUJKAS_clean_linker_0, # of connection points: 2
#     Edge 19, Type (0, 0), BuildingBlock: ZUJKAS_clean_linker_0, # of connection points: 2
#     Edge 20, Type (0, 0), BuildingBlock: ZUJKAS_clean_linker_0, # of connection points: 2
#     Edge 21, Type (0, 0), BuildingBlock: ZUJKAS_clean_linker_0, # of connection points: 2
#     Edge 22, Type (0, 0), BuildingBlock: ZUJKAS_clean_linker_0, # of connection points: 2
#     Edge 23, Type (0, 0), BuildingBlock: ZUJKAS_clean_linker_0, # of connection points: 2
# Relax obj value: 0.033
# Max RMSD: 0.050
# Mean RMSD: 0.050
data_MOF--net-mmt--node1-CEKHIL_clean_sbu_0--edge1-ZUJKAS_clean_linker_0
_symmetry_space_group_name_H-M    P1
_symmetry_Int_Tables_number       1
_symmetry_cell_setting            triclinic
loop_
_symmetry_equiv_pos_as_xyz
'x, y, z'
_cell_length_a     28.973533
_cell_length_b     47.710681
_cell_length_c     56.762933
_cell_angle_alpha  89.995848
_cell_angle_beta   90.045678
_cell_angle_gamma 89.997648
loop_
_atom_site_label
_atom_site_type_symbol
_atom_site_fract_x
_atom_site_fract_y
_atom_site_fract_z
_atom_type_partial_charge
Co0 Co 0.0993 0.57532 0.36204 0.0
O1 O 0.05644 0.57884 0.38791 0.0
O2 O 0.0986 0.54123 0.38078 0.0
C3 C 0.13366 0.61752 0.36723 0.0
O4 O 0.14879 0.56443 0.33789 0.0
Co5 Co 0.09648 0.61659 0.31963 0.0
O6 O 0.15683 0.59946 0.31169 0.0
C7 C 0.02667 0.57154 0.32309 0.0
C8 C 0.06888 0.55385 0.3943 0.0
C9 C 0.16988 0.57616 0.32045 0.0
O10 O 0.04842 0.56062 0.34071 0.0
O11 O 0.03835 0.5949 0.3137 0.0
O12 O 0.14589 0.59614 0.37995 0.0
O13 O 0.09881 0.61334 0.35351 0.0
Co14 Co 0.40368 0.9259 0.36144 0.0
O15 O 0.44664 0.92255 0.38732 0.0
O16 O 0.40417 0.96003 0.38012 0.0
C17 C 0.36964 0.88362 0.36674 0.0
O18 O 0.35404 0.93661 0.33728 0.0
Co19 Co 0.4066 0.88454 0.31912 0.0
O20 O 0.34613 0.9015 0.31114 0.0
C21 C 0.47576 0.93001 0.32228 0.0
C22 C 0.434 0.94752 0.39368 0.0
C23 C 0.33299 0.9248 0.31985 0.0
O24 O 0.45432 0.94071 0.34007 0.0
O25 O 0.46414 0.90666 0.31285 0.0
O26 O 0.35731 0.90502 0.37941 0.0
O27 O 0.40441 0.88784 0.35299 0.0
Co28 Co 0.59895 0.42643 0.15421 0.0
O29 O 0.55577 0.42308 0.12842 0.0
O30 O 0.59784 0.4607 0.1357 0.0
C31 C 0.6334 0.38436 0.14851 0.0
O32 O 0.64874 0.43721 0.17826 0.0
Co33 Co 0.59742 0.38476 0.1963 0.0
O34 O 0.65808 0.40172 0.2039 0.0
C35 C 0.52735 0.42982 0.19363 0.0
C36 C 0.5681 0.44814 0.12213 0.0
C37 C 0.67055 0.42524 0.19537 0.0
O38 O 0.54831 0.44079 0.1758 0.0
O39 O 0.53962 0.40651 0.20291 0.0
O40 O 0.64537 0.40594 0.13598 0.0
O41 O 0.5988 0.3883 0.16243 0.0
Co42 Co 0.90361 0.07646 0.15442 0.0
O43 O 0.947 0.07969 0.12876 0.0
O44 O 0.90444 0.04224 0.13586 0.0
C45 C 0.86968 0.11869 0.14871 0.0
O46 O 0.85357 0.06585 0.17835 0.0
Co47 Co 0.90559 0.11806 0.19657 0.0
O48 O 0.84504 0.10109 0.20431 0.0
C49 C 0.9749 0.07259 0.19403 0.0
C50 C 0.93443 0.05472 0.1224 0.0
C51 C 0.83216 0.07772 0.19563 0.0
O52 O 0.95391 0.0618 0.17612 0.0
O53 O 0.96298 0.09597 0.20331 0.0
O54 O 0.85756 0.09719 0.13611 0.0
O55 O 0.90417 0.11459 0.1627 0.0
Co56 Co 0.90379 0.4253 0.6545 0.0
O57 O 0.94596 0.42201 0.62833 0.0
O58 O 0.90363 0.45945 0.6358 0.0
C59 C 0.86988 0.38295 0.6494 0.0
O60 O 0.85491 0.43598 0.67901 0.0
Co61 Co 0.90787 0.38395 0.69673 0.0
O62 O 0.8478 0.40101 0.70532 0.0
C63 C 0.97675 0.4296 0.69327 0.0
C64 C 0.93318 0.44699 0.62208 0.0
C65 C 0.83443 0.42429 0.69665 0.0
O66 O 0.95506 0.44017 0.67549 0.0
O67 O 0.96528 0.40629 0.70282 0.0
O68 O 0.85678 0.40439 0.63697 0.0
O69 O 0.90509 0.38721 0.66286 0.0
Co70 Co 0.59666 0.07562 0.65457 0.0
O71 O 0.55482 0.07888 0.62822 0.0
O72 O 0.59677 0.04136 0.63603 0.0
C73 C 0.6311 0.1178 0.64944 0.0
O74 O 0.64522 0.065 0.67929 0.0
Co75 Co 0.59223 0.11726 0.6966 0.0
O76 O 0.65231 0.10026 0.70533 0.0
C77 C 0.52312 0.07177 0.69305 0.0
C78 C 0.56752 0.05384 0.62212 0.0
C79 C 0.66569 0.07689 0.69686 0.0
O80 O 0.54506 0.06102 0.67544 0.0
O81 O 0.53452 0.09514 0.70252 0.0
O82 O 0.64403 0.09625 0.63712 0.0
O83 O 0.59563 0.11378 0.66275 0.0
Co84 Co 0.40397 0.57612 0.86139 0.0
O85 O 0.44609 0.57925 0.88763 0.0
O86 O 0.40378 0.54186 0.87994 0.0
C87 C 0.37004 0.61843 0.86669 0.0
O88 O 0.35509 0.56558 0.83681 0.0
Co89 Co 0.40776 0.61774 0.81935 0.0
O90 O 0.34754 0.60082 0.8108 0.0
C91 C 0.47668 0.57205 0.82254 0.0
C92 C 0.43322 0.55426 0.89378 0.0
C93 C 0.33436 0.57744 0.81931 0.0
O94 O 0.45524 0.56141 0.84036 0.0
O95 O 0.46503 0.59537 0.81306 0.0
O96 O 0.35695 0.59689 0.87899 0.0
O97 O 0.40522 0.61427 0.85321 0.0
Co98 Co 0.09688 0.92573 0.86184 0.0
O99 O 0.05493 0.92241 0.8881 0.0
O100 O 0.09695 0.95994 0.88047 0.0
C101 C 0.13123 0.88353 0.867 0.0
O102 O 0.14556 0.93641 0.83723 0.0
Co103 Co 0.09277 0.88419 0.81975 0.0
O104 O 0.15304 0.9011 0.81128 0.0
C105 C 0.02363 0.92969 0.82319 0.0
C106 C 0.06766 0.94741 0.8943 0.0
C107 C 0.16627 0.9245 0.81977 0.0
O108 O 0.04537 0.94038 0.8409 0.0
O109 O 0.03518 0.90638 0.81368 0.0
O110 O 0.14416 0.90505 0.87936 0.0
O111 O 0.09585 0.8876 0.8536 0.0
H112 H 0.20186 0.5225 0.32804 0.0
H113 H 0.26395 0.49827 0.30687 0.0
H114 H 0.28864 0.5725 0.26546 0.0
H115 H 0.22747 0.59689 0.28652 0.0
H116 H 0.26799 0.48836 0.25804 0.0
H117 H 0.41841 0.55133 0.2873 0.0
H118 H 0.36349 0.55228 0.30229 0.0
H119 H 0.37185 0.57189 0.27558 0.0
C120 C 0.2209 0.53379 0.31465 0.0
C121 C 0.20951 0.56169 0.30904 0.0
C122 C 0.2563 0.51988 0.30252 0.0
C123 C 0.28132 0.53367 0.28476 0.0
C124 C 0.27046 0.56158 0.27938 0.0
H125 H 0.49682 0.4837 0.18522 0.0
H126 H 0.43557 0.50906 0.20618 0.0
C127 C 0.23513 0.57544 0.29139 0.0
C128 C 0.31708 0.51857 0.27092 0.0
H129 H 0.43098 0.52009 0.25528 0.0
C130 C 0.30369 0.49518 0.25756 0.0
C131 C 0.36357 0.52766 0.27012 0.0
C132 C 0.3804 0.55201 0.28474 0.0
C133 C 0.33535 0.48086 0.24319 0.0
C134 C 0.38188 0.48987 0.24244 0.0
C135 C 0.39526 0.51332 0.25574 0.0
C136 C 0.41765 0.47436 0.22895 0.0
C137 C 0.31852 0.45648 0.22859 0.0
C138 C 0.42796 0.44653 0.23483 0.0
C139 C 0.46271 0.43203 0.22294 0.0
C140 C 0.48835 0.44506 0.20491 0.0
C141 C 0.47768 0.47294 0.19888 0.0
C142 C 0.44281 0.4875 0.2109 0.0
H143 H 0.28056 0.45728 0.22588 0.0
H144 H 0.33569 0.45604 0.21111 0.0
H145 H 0.32672 0.43662 0.23788 0.0
H146 H 0.40966 0.43612 0.24898 0.0
H147 H 0.46986 0.41065 0.22819 0.0
H148 H 0.00476 0.01862 0.18541 0.0
H149 H 0.06422 0.99243 0.20701 0.0
H150 H 0.09144 0.06502 0.25002 0.0
H151 H 0.03231 0.09115 0.22893 0.0
H152 H 0.15899 0.00372 0.2137 0.0
H153 H 0.06588 0.00414 0.29901 0.0
H154 H 0.03811 0.01286 0.27149 0.0
H155 H 0.0732 0.03837 0.28645 0.0
C156 C 0.02354 0.02905 0.19939 0.0
C157 C 0.01329 0.05696 0.20552 0.0
C158 C 0.05744 0.01403 0.21175 0.0
C159 C 0.08151 0.02658 0.2305 0.0
C160 C 0.07248 0.05466 0.23606 0.0
H161 H 0.30045 0.97833 0.32754 0.0
H162 H 0.23897 0.00266 0.30593 0.0
C163 C 0.03873 0.06964 0.22381 0.0
C164 C 0.11646 0.01061 0.2442 0.0
H165 H 0.14435 0.98937 0.29997 0.0
C166 C 0.15564 1.00037 0.23252 0.0
C167 C 0.11212 0.00636 0.2688 0.0
C168 C 0.06987 0.01577 0.28218 0.0
C169 C 0.19113 0.98662 0.24485 0.0
C170 C 0.18695 0.98255 0.26948 0.0
C171 C 0.14763 0.99263 0.28114 0.0
C172 C 0.22276 0.96749 0.28333 0.0
C173 C 0.23337 0.97719 0.23147 0.0
C174 C 0.2331 0.93943 0.27828 0.0
C175 C 0.26809 0.9255 0.29053 0.0
C176 C 0.29345 0.93925 0.3083 0.0
C177 C 0.28182 0.9671 0.31395 0.0
C178 C 0.24672 0.98106 0.30159 0.0
H179 H 0.23676 0.98826 0.21434 0.0
H180 H 0.26522 0.98079 0.24194 0.0
H181 H 0.23062 0.95441 0.2278 0.0
H182 H 0.2143 0.9283 0.26469 0.0
H183 H 0.27555 0.90398 0.28584 0.0
H184 H 0.69879 0.47999 0.18993 0.0
H185 H 0.76061 0.50418 0.21139 0.0
H186 H 0.79292 0.42775 0.24839 0.0
H187 H 0.7319 0.40342 0.22705 0.0
H188 H 0.76656 0.51002 0.26107 0.0
H189 H 0.91977 0.45454 0.22551 0.0
H190 H 0.8641 0.45354 0.21121 0.0
H191 H 0.87529 0.43177 0.23642 0.0
C192 C 0.71947 0.46822 0.20238 0.0
C193 C 0.71022 0.43973 0.20673 0.0
C194 C 0.75469 0.48211 0.21469 0.0
C195 C 0.78169 0.4677 0.23133 0.0
C196 C 0.77309 0.43919 0.23537 0.0
H197 H 1.00039 0.51653 0.3297 0.0
H198 H 0.9393 0.49095 0.30874 0.0
C199 C 0.73788 0.42536 0.22321 0.0
C200 C 0.81713 0.48269 0.24547 0.0
H201 H 0.93216 0.48366 0.25889 0.0
C202 C 0.80281 0.50438 0.26049 0.0
C203 C 0.86435 0.47511 0.24488 0.0
C204 C 0.88201 0.45263 0.2285 0.0
C205 C 0.83432 0.51848 0.27512 0.0
C206 C 0.88157 0.51101 0.27445 0.0
C207 C 0.89589 0.48923 0.25951 0.0
C208 C 0.91701 0.5266 0.28811 0.0
C209 C 0.81664 0.54097 0.29148 0.0
C210 C 0.92472 0.55507 0.28346 0.0
C211 C 0.95942 0.56967 0.29532 0.0
C212 C 0.9875 0.55615 0.31211 0.0
C213 C 0.97928 0.52766 0.31702 0.0
C214 C 0.94453 0.51298 0.30499 0.0
H215 H 0.779 0.53877 0.29474 0.0
H216 H 0.83502 0.54039 0.30865 0.0
H217 H 0.82262 0.56181 0.28336 0.0
H218 H 0.90449 0.5659 0.27023 0.0
H219 H 0.96461 0.59156 0.29101 0.0
H220 H 0.80031 0.02403 0.1881 0.0
H221 H 0.73865 0.9997 0.20941 0.0
H222 H 0.71263 0.07424 0.25023 0.0
H223 H 0.77422 0.09855 0.22937 0.0
H224 H 0.72098 0.02707 0.27784 0.0
H225 H 0.5988 0.00797 0.20423 0.0
H226 H 0.65631 0.99549 0.19886 0.0
H227 H 0.64608 0.03247 0.202 0.0
C228 C 0.78113 0.03536 0.20141 0.0
C229 C 0.79245 0.06327 0.20699 0.0
C230 C 0.74573 0.02144 0.21353 0.0
C231 C 0.7207 0.03523 0.2313 0.0
C232 C 0.73143 0.06317 0.23661 0.0
H233 H 0.50393 0.98438 0.33052 0.0
H234 H 0.56356 0.0107 0.3093 0.0
C235 C 0.76674 0.07705 0.22459 0.0
C236 C 0.68476 0.0203 0.24518 0.0
H237 H 0.58232 0.98531 0.2405 0.0
C238 C 0.69052 0.01805 0.2697 0.0
C239 C 0.645 0.00861 0.23456 0.0
C240 C 0.6358 0.01143 0.2085 0.0
C241 C 0.65819 0.00387 0.2838 0.0
C242 C 0.61862 0.99198 0.27315 0.0
C243 C 0.61269 0.99441 0.24866 0.0
C244 C 0.58364 0.97607 0.28689 0.0
C245 C 0.66734 0.00106 0.30986 0.0
C246 C 0.57485 0.94797 0.28127 0.0
C247 C 0.54077 0.93297 0.29323 0.0
C248 C 0.51438 0.94572 0.31111 0.0
C249 C 0.52375 0.97381 0.31701 0.0
C250 C 0.55793 0.98888 0.30492 0.0
H251 H 0.70404 0.00532 0.31428 0.0
H252 H 0.6457 0.01639 0.31955 0.0
H253 H 0.65831 0.97973 0.31619 0.0
H254 H 0.59424 0.93764 0.26746 0.0
H255 H 0.53479 0.91139 0.28818 0.0
H256 H 0.53258 0.58954 0.78668 0.0
H257 H 0.59205 0.56315 0.76616 0.0
H258 H 0.56915 0.49265 0.8122 0.0
H259 H 0.50853 0.51887 0.83282 0.0
H260 H 0.67316 0.53997 0.78248 0.0
H261 H 0.55696 0.45773 0.74655 0.0
H262 H 0.53544 0.48978 0.75939 0.0
H263 H 0.55523 0.46178 0.778 0.0
C264 C 0.54001 0.56843 0.79259 0.0
C265 C 0.51532 0.55632 0.8114 0.0
C266 C 0.5742 0.55337 0.78078 0.0
C267 C 0.58458 0.52577 0.78735 0.0
C268 C 0.56104 0.51374 0.8065 0.0
H269 H 0.78046 0.40476 0.73264 0.0
H270 H 0.72003 0.42956 0.754 0.0
C271 C 0.52665 0.52886 0.81841 0.0
C272 C 0.62025 0.50992 0.77403 0.0
H273 H 0.63675 0.45259 0.73892 0.0
C274 C 0.6652 0.52086 0.77294 0.0
C275 C 0.60978 0.48506 0.76151 0.0
C276 C 0.56168 0.47294 0.76118 0.0
C277 C 0.70008 0.50748 0.75995 0.0
C278 C 0.68957 0.48271 0.74732 0.0
C279 C 0.6447 0.47165 0.74852 0.0
C280 C 0.72505 0.46751 0.73336 0.0
C281 C 0.74814 0.51967 0.76024 0.0
C282 C 0.74737 0.48036 0.71421 0.0
C283 C 0.78221 0.46621 0.70187 0.0
C284 C 0.79529 0.43888 0.70841 0.0
C285 C 0.7717 0.42583 0.72714 0.0
C286 C 0.73697 0.43996 0.73941 0.0
H287 H 0.75308 0.53447 0.77515 0.0
H288 H 0.77453 0.50286 0.76154 0.0
H289 H 0.75411 0.53135 0.74362 0.0
H290 H 0.73805 0.50142 0.70891 0.0
H291 H 0.79935 0.47687 0.68748 0.0
H292 H 0.72079 0.09734 0.73206 0.0
H293 H 0.78249 0.07329 0.75313 0.0
H294 H 0.7614 0.99975 0.71033 0.0
H295 H 0.69969 0.02381 0.68881 0.0
H296 H 0.77594 0.0251 0.77954 0.0
H297 H 0.90081 0.01075 0.70648 0.0
H298 H 0.85236 0.03442 0.70446 0.0
H299 H 0.84414 0.99739 0.7003 0.0
C300 C 0.72935 0.07611 0.72691 0.0
C301 C 0.70507 0.06255 0.70865 0.0
C302 C 0.76472 0.06239 0.73905 0.0
C303 C 0.77693 0.03482 0.73321 0.0
C304 C 0.75318 0.02122 0.71487 0.0
H305 H 0.96543 0.91154 0.78848 0.0
H306 H 0.90562 0.93786 0.76805 0.0
C307 C 0.71773 0.03498 0.70264 0.0
C308 C 0.81322 0.02007 0.74701 0.0
H309 H 0.91723 0.98685 0.74223 0.0
C310 C 0.80698 0.01687 0.77142 0.0
C311 C 0.85376 0.00942 0.73641 0.0
C312 C 0.86353 0.01335 0.71051 0.0
C313 C 0.83957 0.00269 0.7854 0.0
C314 C 0.87986 0.99178 0.77474 0.0
C315 C 0.8863 0.9952 0.75038 0.0
C316 C 0.91504 0.9758 0.78831 0.0
C317 C 0.82999 0.99882 0.81131 0.0
C318 C 0.9402 0.98831 0.8067 0.0
C319 C 0.97464 0.97321 0.81861 0.0
C320 C 0.98476 0.94538 0.81219 0.0
C321 C 0.95886 0.93291 0.79396 0.0
C322 C 0.92458 0.94796 0.78216 0.0
H323 H 0.79313 0.00264 0.81563 0.0
H324 H 0.83935 0.97732 0.81709 0.0
H325 H 0.85117 0.0139 0.82154 0.0
H326 H 0.93394 0.00994 0.81151 0.0
H327 H 0.99402 0.98357 0.83241 0.0
H328 H 0.30078 0.52431 0.82756 0.0
H329 H 0.23955 0.49986 0.80597 0.0
H330 H 0.21841 0.57294 0.76262 0.0
H331 H 0.27885 0.59763 0.78415 0.0
H332 H 0.13604 0.54838 0.77787 0.0
H333 H 0.25396 0.46936 0.7387 0.0
H334 H 0.25608 0.47148 0.77028 0.0
H335 H 0.27473 0.50081 0.75285 0.0
C336 C 0.28296 0.53526 0.81353 0.0
C337 C 0.29519 0.5629 0.80751 0.0
C338 C 0.24816 0.52117 0.80109 0.0
C339 C 0.22501 0.5344 0.78238 0.0
C340 C 0.23603 0.56225 0.77687 0.0
H341 H 0.00687 0.48327 0.68355 0.0
H342 H 0.06747 0.50963 0.70411 0.0
C343 C 0.27076 0.57631 0.78922 0.0
C344 C 0.1896 0.51928 0.7683 0.0
H345 H 0.17398 0.463 0.73193 0.0
C346 C 0.14432 0.52977 0.76774 0.0
C347 C 0.20056 0.4951 0.75498 0.0
C348 C 0.24903 0.4836 0.75398 0.0
C349 C 0.10942 0.51632 0.75473 0.0
C350 C 0.12032 0.49201 0.74156 0.0
C351 C 0.1657 0.48167 0.74198 0.0
C352 C 0.08472 0.47609 0.72825 0.0
C353 C 0.0609 0.52775 0.75576 0.0
C354 C 0.07536 0.44824 0.73444 0.0
C355 C 0.04116 0.4331 0.72267 0.0
C356 C 0.01545 0.44541 0.70429 0.0
C357 C 0.0258 0.47313 0.69763 0.0
C358 C 0.06017 0.48832 0.7095 0.0
H359 H 0.05622 0.54253 0.77069 0.0
H360 H 0.05332 0.5392 0.73919 0.0
H361 H 0.0354 0.5105 0.75751 0.0
H362 H 0.09401 0.43831 0.74873 0.0
H363 H 0.03451 0.41179 0.72829 0.0
H364 H 0.22306 0.90357 0.78554 0.0
H365 H 0.28465 0.92765 0.76446 0.0
H366 H 0.26021 0.0022 0.80552 0.0
H367 H 0.19864 0.9781 0.82706 0.0
H368 H 0.27737 0.97469 0.73694 0.0
H369 H 0.39966 0.99333 0.81053 0.0
H370 H 0.35191 0.96918 0.81283 0.0
H371 H 0.34245 0.00625 0.81596 0.0
C372 C 0.23088 0.92503 0.79031 0.0
C373 C 0.20569 0.93886 0.80807 0.0
C374 C 0.26618 0.93877 0.77817 0.0
C375 C 0.27741 0.96664 0.78351 0.0
C376 C 0.25278 0.98051 0.80138 0.0
H377 H 0.46335 0.09042 0.7268 0.0
H378 H 0.40373 0.0641 0.74734 0.0
C379 C 0.21742 0.96672 0.81363 0.0
C380 C 0.31352 0.98141 0.76962 0.0
H381 H 0.41607 0.01629 0.77435 0.0
C382 C 0.30785 0.98366 0.74509 0.0
C383 C 0.35335 0.99302 0.78025 0.0
C384 C 0.36257 0.99015 0.80631 0.0
C385 C 0.34026 0.99781 0.73101 0.0
C386 C 0.3798 0.00968 0.74169 0.0
C387 C 0.3857 0.00721 0.76618 0.0
C388 C 0.41477 0.02565 0.728 0.0
C389 C 0.33123 1.00061 0.70494 0.0
C390 C 0.44077 0.01286 0.71006 0.0
C391 C 0.47507 0.02796 0.69809 0.0
C392 C 0.48425 0.05608 0.704 0.0
C393 C 0.45752 0.06882 0.72175 0.0
C394 C 0.42334 0.05378 0.7336 0.0
H395 H 0.2946 0.99621 0.70046 0.0
H396 H 0.34009 0.02198 0.69865 0.0
H397 H 0.3531 0.98538 0.69527 0.0
H398 H 0.43529 0.99102 0.70569 0.0
H399 H 0.49514 0.0174 0.68467 0.0
H400 H 0.09453 0.50406 0.41487 0.0
H401 H 0.07051 0.48573 0.45336 0.0
H402 H 0.98283 0.55775 0.46337 0.0
H403 H 0.00616 0.57598 0.42498 0.0
H404 H 0.08175 0.51118 0.49735 0.0
H405 H 0.89605 0.49319 0.4791 0.0
H406 H 0.93782 0.49861 0.45596 0.0
H407 H 0.9153 0.52798 0.47214 0.0
C408 C 0.06965 0.51579 0.42513 0.0
C409 C 0.05211 0.54142 0.41675 0.0
C410 C 0.05607 0.50534 0.44717 0.0
C411 C 0.02438 0.52016 0.46119 0.0
C412 C 0.00655 0.54561 0.45273 0.0
H413 H 0.90691 0.49682 0.60174 0.0
H414 H 0.93066 0.51548 0.5633 0.0
C415 C 0.02014 0.55608 0.43077 0.0
C416 C 0.01149 0.50975 0.48506 0.0
H417 H 0.91956 0.4904 0.51916 0.0
C418 C 0.04633 0.50646 0.50207 0.0
C419 C 0.96521 0.50378 0.49132 0.0
C420 C 0.92645 0.5058 0.47363 0.0
C421 C 0.0361 0.49783 0.5252 0.0
C422 C 0.98983 0.49181 0.53144 0.0
C423 C 0.95498 0.49514 0.51444 0.0
C424 C 0.977 0.48122 0.55527 0.0
C425 C 0.07487 0.49582 0.54288 0.0
C426 C 0.99501 0.45575 0.56358 0.0
C427 C 0.98159 0.4451 0.5855 0.0
C428 C 0.94959 0.45959 0.59963 0.0
C429 C 0.93181 0.48522 0.59139 0.0
C430 C 0.94524 0.49586 0.56938 0.0
H431 H 0.10516 0.50856 0.53747 0.0
H432 H 0.06344 0.50287 0.56058 0.0
H433 H 0.08622 0.47367 0.54427 0.0
H434 H 0.01879 0.44374 0.55287 0.0
H435 H 0.99576 0.42521 0.59118 0.0
H436 H 0.40829 0.99741 0.41401 0.0
H437 H 0.4313 0.0156 0.45268 0.0
H438 H 0.51956 0.94388 0.46302 0.0
H439 H 0.49634 0.92543 0.42464 0.0
H440 H 0.46403 0.95435 0.50146 0.0
H441 H 0.55203 0.052 0.47321 0.0
H442 H 0.49422 0.0484 0.4622 0.0
H443 H 0.53805 0.02413 0.45291 0.0
C444 C 0.43304 0.98569 0.42439 0.0
C445 C 0.45056 0.96 0.41616 0.0
C446 C 0.4463 0.99617 0.44648 0.0
C447 C 0.4776 0.98128 0.46072 0.0
C448 C 0.49548 0.95579 0.45238 0.0
H449 H 0.5939 0.00389 0.60206 0.0
H450 H 0.57161 0.98547 0.56335 0.0
C451 C 0.48224 0.94532 0.43036 0.0
C452 C 0.49033 0.99154 0.48468 0.0
H453 H 0.53925 0.04647 0.51423 0.0
C454 C 0.48069 0.97444 0.50424 0.0
C455 C 0.51202 0.01776 0.48836 0.0
C456 C 0.52512 0.03657 0.46807 0.0
C457 C 0.49129 0.98305 0.52734 0.0
C458 C 0.51292 0.0093 0.53102 0.0
C459 C 0.52263 0.02637 0.51145 0.0
C460 C 0.5253 0.01968 0.55499 0.0
C461 C 0.47817 0.96426 0.54763 0.0
C462 C 0.50719 0.04517 0.56316 0.0
C463 C 0.52003 0.05579 0.5852 0.0
C464 C 0.55151 0.04122 0.59959 0.0
C465 C 0.56929 0.01552 0.59153 0.0
C466 C 0.55643 0.00491 0.56941 0.0
H467 H 0.45142 0.94874 0.54246 0.0
H468 H 0.50911 0.95252 0.55359 0.0
H469 H 0.46502 0.97669 0.56274 0.0
H470 H 0.48322 0.057 0.55239 0.0
H471 H 0.50573 0.07568 0.59079 0.0
H472 H 0.50576 0.42601 0.09118 0.0
H473 H 0.48342 0.44411 0.05253 0.0
H474 H 0.57029 0.51636 0.06322 0.0
H475 H 0.59334 0.49818 0.10191 0.0
H476 H 0.44108 0.49383 0.03907 0.0
H477 H 0.61627 0.48578 1.00014 0.0
H478 H 0.60118 0.46929 0.0277 0.0
H479 H 0.61347 0.5062 0.02668 0.0
C480 C 0.52 0.44584 0.08541 0.0
C481 C 0.55157 0.46057 0.09963 0.0
C482 C 0.50716 0.45616 0.06326 0.0
C483 C 0.52579 0.48134 0.05472 0.0
C484 C 0.55621 0.49657 0.06918 0.0
H485 H 0.49515 0.576 0.9251 0.0
H486 H 0.51692 0.55755 0.9637 0.0
C487 C 0.56906 0.48627 0.09139 0.0
C488 C 0.51339 0.49144 0.03067 0.0
H489 H 0.55887 0.50768 0.97678 0.0
C490 C 0.46681 0.49677 0.02543 0.0
C491 C 0.54694 0.4952 0.01281 0.0
C492 C 0.59722 0.4886 0.01696 0.0
C493 C 0.453 0.50629 1.00303 0.0
C494 C 0.48656 0.5101 0.98518 0.0
C495 C 0.53313 0.50472 0.99042 0.0
C496 C 0.47427 0.52046 0.9612 0.0
C497 C 0.40272 0.51289 0.99887 0.0
C498 C 0.44382 0.50544 0.94658 0.0
C499 C 0.43128 0.51596 0.92439 0.0
C500 C 0.44911 0.54166 0.91634 0.0
C501 C 0.48064 0.55618 0.93073 0.0
C502 C 0.49316 0.54566 0.95285 0.0
H503 H 0.38359 0.51555 0.01569 0.0
H504 H 0.39877 0.53228 0.98824 0.0
H505 H 0.38655 0.49535 0.98903 0.0
H506 H 0.42954 0.48564 0.9524 0.0
H507 H 0.40704 0.5042 0.91374 0.0
H508 H 0.09444 0.99712 0.9147 0.0
H509 H 0.0725 0.01515 0.95363 0.0
H510 H 0.98306 0.94398 0.96384 0.0
H511 H 0.00513 0.92571 0.92527 0.0
H512 H 0.98641 0.02942 0.97259 0.0
H513 H 0.06434 0.94138 0.02252 0.0
H514 H 0.07662 0.94757 0.99179 0.0
H515 H 0.02389 0.93051 1.00037 0.0
C516 C 0.06992 0.98539 0.92519 0.0
C517 C 0.0518 0.95987 0.9169 0.0
C518 C 0.05746 0.9957 0.94746 0.0
C519 C 0.02688 0.98062 0.96192 0.0
C520 C 0.00759 0.95564 0.95331 0.0
H521 H 0.90832 0.00503 0.10178 0.0
H522 H 0.93106 0.98715 0.06294 0.0
C523 C 0.02002 0.94533 0.93112 0.0
C524 C 0.01496 0.99094 0.98595 0.0
H525 H 0.01765 0.97302 0.04431 0.0
C526 C 0.99349 0.01717 0.98828 0.0
C527 C 0.02406 0.97492 1.00646 0.0
C528 C 0.04887 0.94714 1.00527 0.0
C529 C 0.98004 0.02755 0.01045 0.0
C530 C 0.98908 0.0115 0.03096 0.0
C531 C 0.01061 0.98529 0.02863 0.0
C532 C 0.97682 0.02172 0.05498 0.0
C533 C 0.95524 0.05532 0.01165 0.0
C534 C 0.99594 0.04666 0.06375 0.0
C535 C 0.98306 0.05688 0.0859 0.0
C536 C 0.95099 0.0423 0.09991 0.0
C537 C 0.93307 0.01679 0.09146 0.0
C538 C 0.94598 0.00657 0.06924 0.0
H539 H 0.94004 0.0612 0.99436 0.0
H540 H 0.92729 0.05482 0.02502 0.0
H541 H 0.98015 0.07192 0.01673 0.0
H542 H 0.02064 0.05838 0.05336 0.0
H543 H 0.99778 0.0765 0.09188 0.0
H544 H 0.12468 0.66137 0.33675 0.0
H545 H 0.16596 0.706 0.33736 0.0
H546 H 0.23911 0.68001 0.39989 0.0
H547 H 0.19909 0.6348 0.39883 0.0
H548 H 0.16653 0.7468 0.36884 0.0
H549 H 0.34456 0.70578 0.35979 0.0
H550 H 0.29436 0.68402 0.35553 0.0
H551 H 0.31481 0.69163 0.3848 0.0
C552 C 0.14983 0.66505 0.35053 0.0
C553 C 0.15889 0.64449 0.36765 0.0
C554 C 0.17335 0.69063 0.35089 0.0
C555 C 0.20624 0.69628 0.36844 0.0
C556 C 0.21485 0.6759 0.38579 0.0
H557 H 0.30459 0.86633 0.39846 0.0
H558 H 0.26478 0.82107 0.39969 0.0
C559 C 0.19173 0.65013 0.38526 0.0
C560 C 0.23048 0.72379 0.3688 0.0
H561 H 0.33722 0.7542 0.36874 0.0
C562 C 0.20387 0.74841 0.36875 0.0
C563 C 0.27922 0.72594 0.36838 0.0
C564 C 0.30992 0.70045 0.36689 0.0
C565 C 0.22452 0.77506 0.36833 0.0
C566 C 0.27327 0.77721 0.36869 0.0
C567 C 0.29988 0.75259 0.3687 0.0
C568 C 0.29748 0.80473 0.36826 0.0
C569 C 0.19381 0.80054 0.36678 0.0
C570 C 0.33025 0.81036 0.35066 0.0
C571 C 0.35365 0.83597 0.3502 0.0
C572 C 0.3446 0.85659 0.36726 0.0
C573 C 0.31193 0.85096 0.38493 0.0
C574 C 0.28892 0.82515 0.38555 0.0
H575 H 0.15913 0.79518 0.35971 0.0
H576 H 0.189 0.80943 0.38467 0.0
H577 H 0.2093 0.81693 0.35537 0.0
H578 H 0.3376 0.79494 0.33716 0.0
H579 H 0.37868 0.83965 0.33638 0.0
H580 H 0.80505 0.13544 0.11652 0.0
H581 H 0.7662 0.18097 0.11417 0.0
H582 H 0.83848 0.20824 0.17657 0.0
H583 H 0.87854 0.16325 0.17849 0.0
H584 H 0.70892 0.2067 0.14323 0.0
H585 H 0.86469 0.2726 0.13339 0.0
H586 H 0.86654 0.23493 0.13094 0.0
H587 H 0.86733 0.25147 0.15947 0.0
C588 C 0.81279 0.15122 0.12967 0.0
C589 C 0.84511 0.14585 0.14758 0.0
C590 C 0.79058 0.17723 0.12831 0.0
C591 C 0.80012 0.19832 0.14489 0.0
C592 C 0.83157 0.19269 0.16314 0.0
H593 H 0.62469 0.33975 0.17824 0.0
H594 H 0.66507 0.29488 0.17639 0.0
C595 C 0.85418 0.16684 0.16433 0.0
C596 C 0.77621 0.22589 0.14356 0.0
H597 H 0.79489 0.2966 0.1435 0.0
C598 C 0.72776 0.22635 0.1431 0.0
C599 C 0.80069 0.25158 0.14289 0.0
C600 C 0.85267 0.25266 0.14144 0.0
C601 C 0.70314 0.25172 0.14269 0.0
C602 C 0.7276 0.27741 0.14352 0.0
C603 C 0.77606 0.27695 0.14325 0.0
C604 C 0.70365 0.30495 0.14485 0.0
C605 C 0.65118 0.25064 0.14102 0.0
C606 C 0.71322 0.32611 0.12833 0.0
C607 C 0.69081 0.35206 0.12964 0.0
C608 C 0.65826 0.3573 0.14745 0.0
C609 C 0.64922 0.33627 0.16415 0.0
C610 C 0.67202 0.31048 0.163 0.0
H611 H 0.63926 0.23073 0.13288 0.0
H612 H 0.63629 0.25177 0.159 0.0
H613 H 0.63744 0.26841 0.13051 0.0
H614 H 0.73774 0.32244 0.11426 0.0
H615 H 0.69854 0.36788 0.11653 0.0
H616 H 0.71291 0.12982 0.62755 0.0
H617 H 0.75466 0.17451 0.62759 0.0
H618 H 0.64712 0.21157 0.66988 0.0
H619 H 0.60599 0.16686 0.67045 0.0
H620 H 0.73073 0.22556 0.61121 0.0
H621 H 0.76012 0.232 0.70746 0.0
H622 H 0.7399 0.20046 0.69329 0.0
H623 H 0.70021 0.22835 0.70009 0.0
C624 C 0.69832 0.14747 0.63695 0.0
C625 C 0.65635 0.14478 0.64915 0.0
C626 C 0.72216 0.173 0.63694 0.0
C627 C 0.70448 0.1963 0.6491 0.0
C628 C 0.66211 0.19374 0.6609 0.0
H629 H 0.78795 0.37036 0.62774 0.0
H630 H 0.74785 0.32515 0.62728 0.0
C631 C 0.63847 0.16819 0.66109 0.0
C632 C 0.72987 0.2234 0.6491 0.0
H633 H 0.77528 0.27344 0.68537 0.0
C634 C 0.7407 0.23597 0.62742 0.0
C635 C 0.7435 0.2368 0.67024 0.0
C636 C 0.73578 0.22358 0.69407 0.0
C637 C 0.76406 0.26176 0.6263 0.0
C638 C 0.77591 0.27575 0.64747 0.0
C639 C 0.76572 0.26293 0.66913 0.0
C640 C 0.79989 0.30333 0.64765 0.0
C641 C 0.77666 0.27342 0.60245 0.0
C642 C 0.84172 0.30643 0.65989 0.0
C643 C 0.86424 0.33233 0.66051 0.0
C644 C 0.84549 0.35569 0.64884 0.0
C645 C 0.80346 0.35267 0.63672 0.0
C646 C 0.78069 0.32678 0.63629 0.0
H647 H 0.77755 0.25674 0.58879 0.0
H648 H 0.75034 0.28905 0.59705 0.0
H649 H 0.81083 0.28394 0.6029 0.0
H650 H 0.85715 0.28872 0.66888 0.0
H651 H 0.89656 0.33398 0.67002 0.0
H652 H 0.39642 0.66748 0.84614 0.0
H653 H 0.35689 0.71269 0.84742 0.0
H654 H 0.24811 0.67606 0.88915 0.0
H655 H 0.28831 0.63089 0.88853 0.0
H656 H 0.27468 0.72778 0.83106 0.0
H657 H 0.27802 0.74453 0.92763 0.0
H658 H 0.3113 0.7174 0.91345 0.0
H659 H 0.2509 0.71218 0.91941 0.0
C660 C 0.3642 0.66907 0.85571 0.0
C661 C 0.3456 0.64566 0.86736 0.0
C662 C 0.34161 0.69494 0.85641 0.0
C663 C 0.29988 0.69797 0.86872 0.0
C664 C 0.28085 0.67448 0.88008 0.0
H665 H 0.10571 0.83442 0.84619 0.0
H666 H 0.14669 0.78967 0.84681 0.0
C667 C 0.30369 0.64861 0.87956 0.0
C668 C 0.27579 0.72552 0.86895 0.0
H669 H 0.231 0.77571 0.90529 0.0
C670 C 0.2653 0.7383 0.8473 0.0
C671 C 0.26418 0.7395 0.89014 0.0
C672 C 0.27708 0.72786 0.91397 0.0
C673 C 0.24304 0.76441 0.84623 0.0
C674 C 0.22967 0.77784 0.8674 0.0
C675 C 0.24077 0.76529 0.88906 0.0
C676 C 0.20431 0.80494 0.86744 0.0
C677 C 0.235 0.7776 0.82241 0.0
C678 C 0.22218 0.82825 0.87952 0.0
C679 C 0.19842 0.85381 0.87948 0.0
C680 C 0.15636 0.85652 0.86734 0.0
C681 C 0.13828 0.83309 0.8555 0.0
C682 C 0.16182 0.80751 0.85572 0.0
H683 H 0.25915 0.76916 0.80897 0.0
H684 H 0.19935 0.77283 0.81649 0.0
H685 H 0.23912 0.80072 0.82316 0.0
H686 H 0.25478 0.82674 0.8888 0.0
H687 H 0.21317 0.87148 0.88881 0.0
loop_
_geom_bond_atom_site_label_1
_geom_bond_atom_site_label_2
_geom_bond_distance
_geom_bond_site_symmetry_2
_ccdc_geom_bond_type
Co0 O1 2.216 . S
Co0 O2 2.091 . S
Co0 O4 2.004 . S
Co0 O10 2.021 . S
Co0 O12 2.137 . S
Co0 O13 2.244 . S
O1 Co0 2.216 . S
O1 C8 1.247 . S
O2 Co0 2.091 . S
O2 C8 1.261 . S
C3 O12 1.247 . S
C3 O13 1.272 . S
O4 Co0 2.004 . S
O4 C9 1.259 . S
Co5 O6 2.061 . S
Co5 O11 2.052 . S
Co5 O13 2.135 . S
O6 Co5 2.061 . S
O6 C9 1.235 . S
C7 O10 1.238 . S
C7 O11 1.241 . S
C8 O1 1.247 . S
C8 O2 1.261 . S
C9 O4 1.259 . S
C9 O6 1.235 . S
O10 Co0 2.021 . S
O10 C7 1.238 . S
O11 Co5 2.052 . S
O11 C7 1.241 . S
O12 Co0 2.137 . S
O12 C3 1.247 . S
O13 Co0 2.244 . S
O13 C3 1.272 . S
O13 Co5 2.135 . S
Co14 O15 2.216 . S
Co14 O16 2.091 . S
Co14 O18 2.004 . S
Co14 O24 2.021 . S
Co14 O26 2.137 . S
Co14 O27 2.244 . S
O15 Co14 2.216 . S
O15 C22 1.247 . S
O16 Co14 2.091 . S
O16 C22 1.261 . S
C17 O26 1.247 . S
C17 O27 1.272 . S
O18 Co14 2.004 . S
O18 C23 1.259 . S
Co19 O20 2.061 . S
Co19 O25 2.052 . S
Co19 O27 2.135 . S
O20 Co19 2.061 . S
O20 C23 1.235 . S
C21 O24 1.238 . S
C21 O25 1.241 . S
C22 O15 1.247 . S
C22 O16 1.261 . S
C23 O18 1.259 . S
C23 O20 1.235 . S
O24 Co14 2.021 . S
O24 C21 1.238 . S
O25 Co19 2.052 . S
O25 C21 1.241 . S
O26 Co14 2.137 . S
O26 C17 1.247 . S
O27 Co14 2.244 . S
O27 C17 1.272 . S
O27 Co19 2.135 . S
Co28 O29 2.216 . S
Co28 O30 2.091 . S
Co28 O32 2.004 . S
Co28 O38 2.021 . S
Co28 O40 2.137 . S
Co28 O41 2.244 . S
O29 Co28 2.216 . S
O29 C36 1.247 . S
O30 Co28 2.091 . S
O30 C36 1.261 . S
C31 O40 1.247 . S
C31 O41 1.272 . S
O32 Co28 2.004 . S
O32 C37 1.259 . S
Co33 O34 2.061 . S
Co33 O39 2.052 . S
Co33 O41 2.135 . S
O34 Co33 2.061 . S
O34 C37 1.235 . S
C35 O38 1.238 . S
C35 O39 1.241 . S
C36 O29 1.247 . S
C36 O30 1.261 . S
C37 O32 1.259 . S
C37 O34 1.235 . S
O38 Co28 2.021 . S
O38 C35 1.238 . S
O39 Co33 2.052 . S
O39 C35 1.241 . S
O40 Co28 2.137 . S
O40 C31 1.247 . S
O41 Co28 2.244 . S
O41 C31 1.272 . S
O41 Co33 2.135 . S
Co42 O43 2.216 . S
Co42 O44 2.091 . S
Co42 O46 2.004 . S
Co42 O52 2.021 . S
Co42 O54 2.137 . S
Co42 O55 2.244 . S
O43 Co42 2.216 . S
O43 C50 1.247 . S
O44 Co42 2.091 . S
O44 C50 1.261 . S
C45 O54 1.247 . S
C45 O55 1.272 . S
O46 Co42 2.004 . S
O46 C51 1.259 . S
Co47 O48 2.061 . S
Co47 O53 2.052 . S
Co47 O55 2.135 . S
O48 Co47 2.061 . S
O48 C51 1.235 . S
C49 O52 1.238 . S
C49 O53 1.241 . S
C50 O43 1.247 . S
C50 O44 1.261 . S
C51 O46 1.259 . S
C51 O48 1.235 . S
O52 Co42 2.021 . S
O52 C49 1.238 . S
O53 Co47 2.052 . S
O53 C49 1.241 . S
O54 Co42 2.137 . S
O54 C45 1.247 . S
O55 Co42 2.244 . S
O55 C45 1.272 . S
O55 Co47 2.135 . S
Co56 O57 2.216 . S
Co56 O58 2.091 . S
Co56 O60 2.004 . S
Co56 O66 2.021 . S
Co56 O68 2.137 . S
Co56 O69 2.244 . S
O57 Co56 2.216 . S
O57 C64 1.247 . S
O58 Co56 2.091 . S
O58 C64 1.261 . S
C59 O68 1.247 . S
C59 O69 1.272 . S
O60 Co56 2.004 . S
O60 C65 1.259 . S
Co61 O62 2.061 . S
Co61 O67 2.052 . S
Co61 O69 2.135 . S
O62 Co61 2.061 . S
O62 C65 1.235 . S
C63 O66 1.238 . S
C63 O67 1.241 . S
C64 O57 1.247 . S
C64 O58 1.261 . S
C65 O60 1.259 . S
C65 O62 1.235 . S
O66 Co56 2.021 . S
O66 C63 1.238 . S
O67 Co61 2.052 . S
O67 C63 1.241 . S
O68 Co56 2.137 . S
O68 C59 1.247 . S
O69 Co56 2.244 . S
O69 C59 1.272 . S
O69 Co61 2.135 . S
Co70 O71 2.216 . S
Co70 O72 2.091 . S
Co70 O74 2.004 . S
Co70 O80 2.021 . S
Co70 O82 2.137 . S
Co70 O83 2.244 . S
O71 Co70 2.216 . S
O71 C78 1.247 . S
O72 Co70 2.091 . S
O72 C78 1.261 . S
C73 O82 1.247 . S
C73 O83 1.272 . S
O74 Co70 2.004 . S
O74 C79 1.259 . S
Co75 O76 2.061 . S
Co75 O81 2.052 . S
Co75 O83 2.135 . S
O76 Co75 2.061 . S
O76 C79 1.235 . S
C77 O80 1.238 . S
C77 O81 1.241 . S
C78 O71 1.247 . S
C78 O72 1.261 . S
C79 O74 1.259 . S
C79 O76 1.235 . S
O80 Co70 2.021 . S
O80 C77 1.238 . S
O81 Co75 2.052 . S
O81 C77 1.241 . S
O82 Co70 2.137 . S
O82 C73 1.247 . S
O83 Co70 2.244 . S
O83 C73 1.272 . S
O83 Co75 2.135 . S
Co84 O85 2.216 . S
Co84 O86 2.091 . S
Co84 O88 2.004 . S
Co84 O94 2.021 . S
Co84 O96 2.137 . S
Co84 O97 2.244 . S
O85 Co84 2.216 . S
O85 C92 1.247 . S
O86 Co84 2.091 . S
O86 C92 1.261 . S
C87 O96 1.247 . S
C87 O97 1.272 . S
O88 Co84 2.004 . S
O88 C93 1.259 . S
Co89 O90 2.061 . S
Co89 O95 2.052 . S
Co89 O97 2.135 . S
O90 Co89 2.061 . S
O90 C93 1.235 . S
C91 O94 1.238 . S
C91 O95 1.241 . S
C92 O85 1.247 . S
C92 O86 1.261 . S
C93 O88 1.259 . S
C93 O90 1.235 . S
O94 Co84 2.021 . S
O94 C91 1.238 . S
O95 Co89 2.052 . S
O95 C91 1.241 . S
O96 Co84 2.137 . S
O96 C87 1.247 . S
O97 Co84 2.244 . S
O97 C87 1.272 . S
O97 Co89 2.135 . S
Co98 O99 2.216 . S
Co98 O100 2.091 . S
Co98 O102 2.004 . S
Co98 O108 2.021 . S
Co98 O110 2.137 . S
Co98 O111 2.244 . S
O99 Co98 2.216 . S
O99 C106 1.247 . S
O100 Co98 2.091 . S
O100 C106 1.261 . S
C101 O110 1.247 . S
C101 O111 1.272 . S
O102 Co98 2.004 . S
O102 C107 1.259 . S
Co103 O104 2.061 . S
Co103 O109 2.052 . S
Co103 O111 2.135 . S
O104 Co103 2.061 . S
O104 C107 1.235 . S
C105 O108 1.238 . S
C105 O109 1.241 . S
C106 O99 1.247 . S
C106 O100 1.261 . S
C107 O102 1.259 . S
C107 O104 1.235 . S
O108 Co98 2.021 . S
O108 C105 1.238 . S
O109 Co103 2.052 . S
O109 C105 1.241 . S
O110 Co98 2.137 . S
O110 C101 1.247 . S
O111 Co98 2.244 . S
O111 C101 1.272 . S
O111 Co103 2.135 . S
H112 C120 0.929 . S
H113 C122 0.930 . S
H114 C124 0.930 . S
H115 C127 0.929 . S
H116 C130 0.930 . S
H117 C132 0.960 . S
H118 C132 0.960 . S
H119 C132 0.960 . S
C120 H112 0.929 . S
C120 C121 1.377 . S
C120 C122 1.384 . S
C121 C120 1.377 . S
C121 C127 1.390 . S
C122 H113 0.930 . S
C122 C120 1.384 . S
C122 C123 1.372 . S
C123 C122 1.372 . S
C123 C124 1.400 . S
C123 C128 1.490 . S
C124 H114 0.930 . S
C124 C123 1.400 . S
C124 C127 1.386 . S
H125 C141 0.930 . S
H126 C142 0.931 . S
C127 H115 0.929 . S
C127 C121 1.390 . S
C127 C124 1.386 . S
C128 C123 1.490 . S
C128 C130 1.395 . S
C128 C131 1.403 . S
H129 C135 0.930 . S
C130 H116 0.930 . S
C130 C128 1.395 . S
C130 C133 1.403 . S
C131 C128 1.403 . S
C131 C132 1.524 . S
C131 C135 1.400 . S
C132 H117 0.960 . S
C132 H118 0.960 . S
C132 H119 0.960 . S
C132 C131 1.524 . S
C133 C130 1.403 . S
C133 C134 1.392 . S
C133 C137 1.495 . S
C134 C133 1.392 . S
C134 C135 1.385 . S
C134 C136 1.478 . S
C135 H129 0.930 . S
C135 C131 1.400 . S
C135 C134 1.385 . S
C136 C134 1.478 . S
C136 C138 1.381 . S
C136 C142 1.383 . S
C137 C133 1.495 . S
C137 H143 0.959 . S
C137 H144 0.961 . S
C137 H145 0.960 . S
C138 C136 1.381 . S
C138 C139 1.394 . S
C138 H146 0.930 . S
C139 C138 1.394 . S
C139 C140 1.383 . S
C139 H147 0.929 . S
C140 C139 1.383 . S
C140 C141 1.377 . S
C141 H125 0.930 . S
C141 C140 1.377 . S
C141 C142 1.379 . S
C142 H126 0.931 . S
C142 C136 1.383 . S
C142 C141 1.379 . S
H143 C137 0.959 . S
H144 C137 0.961 . S
H145 C137 0.960 . S
H146 C138 0.930 . S
H147 C139 0.929 . S
H148 C156 0.929 1_565 S
H149 C158 0.930 . S
H150 C160 0.930 . S
H151 C163 0.929 . S
H152 C166 0.930 . S
H153 C168 0.960 . S
H154 C168 0.960 . S
H155 C168 0.960 . S
C156 H148 0.929 1_545 S
C156 C157 1.377 . S
C156 C158 1.384 1_645 S
C157 C156 1.377 . S
C157 C163 1.390 . S
C158 H149 0.930 . S
C158 C156 1.384 1_465 S
C158 C159 1.372 1_565 S
C159 C158 1.372 1_545 S
C159 C160 1.400 . S
C159 C164 1.490 . S
C160 H150 0.930 . S
C160 C159 1.400 . S
C160 C163 1.386 1_455 S
H161 C177 0.930 1_545 S
H162 C178 0.931 . S
C163 H151 0.929 . S
C163 C157 1.390 . S
C163 C160 1.386 1_655 S
C164 C159 1.490 . S
C164 C166 1.395 1_545 S
C164 C167 1.403 . S
H165 C171 0.930 . S
C166 H152 0.930 . S
C166 C164 1.395 1_565 S
C166 C169 1.403 . S
C167 C164 1.403 . S
C167 C168 1.524 . S
C167 C171 1.400 . S
C168 H153 0.960 . S
C168 H154 0.960 . S
C168 H155 0.960 . S
C168 C167 1.524 . S
C169 C166 1.403 . S
C169 C170 1.392 . S
C169 C173 1.495 . S
C170 C169 1.392 . S
C170 C171 1.385 1_565 S
C170 C172 1.478 . S
C171 H165 0.930 . S
C171 C167 1.400 . S
C171 C170 1.385 1_545 S
C172 C170 1.478 . S
C172 C174 1.381 . S
C172 C178 1.383 1_565 S
C173 C169 1.495 . S
C173 H179 0.959 . S
C173 H180 0.961 . S
C173 H181 0.960 . S
C174 C172 1.381 . S
C174 C175 1.394 . S
C174 H182 0.930 . S
C175 C174 1.394 . S
C175 C176 1.383 . S
C175 H183 0.929 . S
C176 C175 1.383 . S
C176 C177 1.377 . S
C177 H161 0.930 1_565 S
C177 C176 1.377 . S
C177 C178 1.379 1_565 S
C178 H162 0.931 . S
C178 C172 1.383 1_545 S
C178 C177 1.379 1_545 S
H179 C173 0.959 . S
H180 C173 0.961 . S
H181 C173 0.960 . S
H182 C174 0.930 . S
H183 C175 0.929 . S
H184 C192 0.929 . S
H185 C194 0.930 . S
H186 C196 0.930 . S
H187 C199 0.929 . S
H188 C202 0.930 . S
H189 C204 0.960 . S
H190 C204 0.960 . S
H191 C204 0.960 . S
C192 H184 0.929 . S
C192 C193 1.377 . S
C192 C194 1.384 . S
C193 C192 1.377 . S
C193 C199 1.390 . S
C194 H185 0.930 . S
C194 C192 1.384 . S
C194 C195 1.372 . S
C195 C194 1.372 . S
C195 C196 1.400 . S
C195 C200 1.490 . S
C196 H186 0.930 . S
C196 C195 1.400 . S
C196 C199 1.386 . S
H197 C213 0.930 . S
H198 C214 0.931 . S
C199 H187 0.929 . S
C199 C193 1.390 . S
C199 C196 1.386 . S
C200 C195 1.490 . S
C200 C202 1.395 . S
C200 C203 1.403 . S
H201 C207 0.930 . S
C202 H188 0.930 . S
C202 C200 1.395 . S
C202 C205 1.403 . S
C203 C200 1.403 . S
C203 C204 1.524 . S
C203 C207 1.400 . S
C204 H189 0.960 . S
C204 H190 0.960 . S
C204 H191 0.960 . S
C204 C203 1.524 . S
C205 C202 1.403 . S
C205 C206 1.392 . S
C205 C209 1.495 . S
C206 C205 1.392 . S
C206 C207 1.385 . S
C206 C208 1.478 . S
C207 H201 0.930 . S
C207 C203 1.400 . S
C207 C206 1.385 . S
C208 C206 1.478 . S
C208 C210 1.381 . S
C208 C214 1.383 . S
C209 C205 1.495 . S
C209 H215 0.959 . S
C209 H216 0.961 . S
C209 H217 0.960 . S
C210 C208 1.381 . S
C210 C211 1.394 . S
C210 H218 0.930 . S
C211 C210 1.394 . S
C211 C212 1.383 1_655 S
C211 H219 0.929 . S
C212 C211 1.383 1_455 S
C212 C213 1.377 . S
C213 H197 0.930 . S
C213 C212 1.377 . S
C213 C214 1.379 1_455 S
C214 H198 0.931 . S
C214 C208 1.383 . S
C214 C213 1.379 1_655 S
H215 C209 0.959 . S
H216 C209 0.961 . S
H217 C209 0.960 . S
H218 C210 0.930 . S
H219 C211 0.929 . S
H220 C228 0.929 . S
H221 C230 0.930 1_565 S
H222 C232 0.930 . S
H223 C235 0.929 . S
H224 C238 0.930 . S
H225 C240 0.960 . S
H226 C240 0.960 . S
H227 C240 0.960 1_545 S
C228 H220 0.929 . S
C228 C229 1.377 . S
C228 C230 1.384 . S
C229 C228 1.377 . S
C229 C235 1.390 . S
C230 H221 0.930 1_545 S
C230 C228 1.384 . S
C230 C231 1.372 . S
C231 C230 1.372 . S
C231 C232 1.400 . S
C231 C236 1.490 . S
C232 H222 0.930 . S
C232 C231 1.400 . S
C232 C235 1.386 . S
H233 C249 0.930 . S
H234 C250 0.931 1_545 S
C235 H223 0.929 . S
C235 C229 1.390 . S
C235 C232 1.386 . S
C236 C231 1.490 . S
C236 C238 1.395 . S
C236 C239 1.403 1_545 S
H237 C243 0.930 . S
C238 H224 0.930 . S
C238 C236 1.395 . S
C238 C241 1.414 . S
C239 C236 1.403 1_565 S
C239 C240 1.524 . S
C239 C243 1.400 . S
C240 H225 0.960 . S
C240 H226 0.960 . S
C240 H227 0.960 1_565 S
C240 C239 1.524 . S
C241 C238 1.414 . S
C241 C242 1.379 1_545 S
C241 C245 1.500 . S
C242 C241 1.379 1_565 S
C242 C243 1.385 . S
C242 C244 1.478 . S
C243 H237 0.930 . S
C243 C239 1.400 . S
C243 C242 1.385 . S
C244 C242 1.478 . S
C244 C246 1.381 . S
C244 C250 1.383 . S
C245 C241 1.500 . S
C245 H251 0.959 . S
C245 H252 0.961 . S
C245 H253 0.960 1_545 S
C246 C244 1.381 . S
C246 C247 1.394 . S
C246 H254 0.930 . S
C247 C246 1.394 . S
C247 C248 1.383 . S
C247 H255 0.929 . S
C248 C247 1.383 . S
C248 C249 1.377 . S
C249 H233 0.930 . S
C249 C248 1.377 . S
C249 C250 1.379 . S
C250 H234 0.931 1_565 S
C250 C244 1.383 . S
C250 C249 1.379 . S
H251 C245 0.959 . S
H252 C245 0.961 . S
H253 C245 0.960 1_565 S
H254 C246 0.930 . S
H255 C247 0.929 . S
H256 C264 0.929 . S
H257 C266 0.930 . S
H258 C268 0.930 . S
H259 C271 0.929 . S
H260 C274 0.930 . S
H261 C276 0.960 . S
H262 C276 0.960 . S
H263 C276 0.960 . S
C264 H256 0.929 . S
C264 C265 1.377 . S
C264 C266 1.384 . S
C265 C264 1.377 . S
C265 C271 1.390 . S
C266 H257 0.930 . S
C266 C264 1.384 . S
C266 C267 1.372 . S
C267 C266 1.372 . S
C267 C268 1.400 . S
C267 C272 1.490 . S
C268 H258 0.930 . S
C268 C267 1.400 . S
C268 C271 1.386 . S
H269 C285 0.930 . S
H270 C286 0.931 . S
C271 H259 0.929 . S
C271 C265 1.390 . S
C271 C268 1.386 . S
C272 C267 1.490 . S
C272 C274 1.395 . S
C272 C275 1.403 . S
H273 C279 0.930 . S
C274 H260 0.930 . S
C274 C272 1.395 . S
C274 C277 1.403 . S
C275 C272 1.403 . S
C275 C276 1.524 . S
C275 C279 1.400 . S
C276 H261 0.960 . S
C276 H262 0.960 . S
C276 H263 0.960 . S
C276 C275 1.524 . S
C277 C274 1.403 . S
C277 C278 1.392 . S
C277 C281 1.495 . S
C278 C277 1.392 . S
C278 C279 1.385 . S
C278 C280 1.478 . S
C279 H273 0.930 . S
C279 C275 1.400 . S
C279 C278 1.385 . S
C280 C278 1.478 . S
C280 C282 1.381 . S
C280 C286 1.383 . S
C281 C277 1.495 . S
C281 H287 0.959 . S
C281 H288 0.961 . S
C281 H289 0.960 . S
C282 C280 1.381 . S
C282 C283 1.394 . S
C282 H290 0.930 . S
C283 C282 1.394 . S
C283 C284 1.383 . S
C283 H291 0.929 . S
C284 C283 1.383 . S
C284 C285 1.377 . S
C285 H269 0.930 . S
C285 C284 1.377 . S
C285 C286 1.379 . S
C286 H270 0.931 . S
C286 C280 1.383 . S
C286 C285 1.379 . S
H287 C281 0.959 . S
H288 C281 0.961 . S
H289 C281 0.960 . S
H290 C282 0.930 . S
H291 C283 0.929 . S
H292 C300 0.929 . S
H293 C302 0.930 . S
H294 C304 0.930 1_565 S
H295 C307 0.932 . S
H296 C310 0.929 1_545 S
H297 C312 0.960 . S
H298 C312 0.960 . S
H299 C312 0.960 . S
C300 H292 0.929 . S
C300 C301 1.377 . S
C300 C302 1.384 . S
C301 C300 1.377 . S
C301 C307 1.390 . S
C302 H293 0.930 . S
C302 C300 1.384 . S
C302 C303 1.372 . S
C303 C302 1.372 . S
C303 C304 1.400 . S
C303 C308 1.490 . S
C304 H294 0.930 1_545 S
C304 C303 1.400 . S
C304 C307 1.386 . S
H305 C321 0.930 . S
H306 C322 0.931 . S
C307 H295 0.932 . S
C307 C301 1.390 . S
C307 C304 1.386 . S
C308 C303 1.490 . S
C308 C310 1.395 1_545 S
C308 C311 1.403 . S
H309 C315 0.930 . S
C310 H296 0.929 1_565 S
C310 C308 1.395 1_565 S
C310 C313 1.403 . S
C311 C308 1.403 . S
C311 C312 1.524 . S
C311 C315 1.400 1_545 S
C312 H297 0.960 . S
C312 H298 0.960 . S
C312 H299 0.960 . S
C312 C311 1.524 . S
C313 C310 1.403 . S
C313 C314 1.392 . S
C313 C317 1.495 . S
C314 C313 1.392 . S
C314 C315 1.385 . S
C314 C316 1.478 . S
C315 H309 0.930 . S
C315 C311 1.400 1_565 S
C315 C314 1.385 . S
C316 C314 1.478 . S
C316 C318 1.381 . S
C316 C322 1.383 . S
C317 C313 1.495 . S
C317 H323 0.959 . S
C317 H324 0.961 . S
C317 H325 0.960 . S
C318 C316 1.381 . S
C318 C319 1.394 1_655 S
C318 H326 0.930 1_565 S
C319 C318 1.394 1_455 S
C319 C320 1.383 . S
C319 H327 0.951 . S
C320 C319 1.383 . S
C320 C321 1.377 . S
C321 H305 0.930 . S
C321 C320 1.377 . S
C321 C322 1.379 1_455 S
C322 H306 0.931 . S
C322 C316 1.383 . S
C322 C321 1.379 1_655 S
H323 C317 0.959 . S
H324 C317 0.961 . S
H325 C317 0.960 . S
H326 C318 0.930 1_545 S
H327 C319 0.951 . S
H328 C336 0.929 . S
H329 C338 0.930 . S
H330 C340 0.930 . S
H331 C343 0.929 . S
H332 C346 0.930 . S
H333 C348 0.960 . S
H334 C348 0.960 . S
H335 C348 0.960 . S
C336 H328 0.929 . S
C336 C337 1.377 . S
C336 C338 1.384 . S
C337 C336 1.377 . S
C337 C343 1.390 . S
C338 H329 0.930 . S
C338 C336 1.384 . S
C338 C339 1.372 . S
C339 C338 1.372 . S
C339 C340 1.400 . S
C339 C344 1.490 . S
C340 H330 0.930 . S
C340 C339 1.400 . S
C340 C343 1.386 . S
H341 C357 0.930 . S
H342 C358 0.931 . S
C343 H331 0.929 . S
C343 C337 1.390 . S
C343 C340 1.386 . S
C344 C339 1.490 . S
C344 C346 1.395 . S
C344 C347 1.403 . S
H345 C351 0.930 . S
C346 H332 0.930 . S
C346 C344 1.395 . S
C346 C349 1.403 . S
C347 C344 1.403 . S
C347 C348 1.524 . S
C347 C351 1.400 . S
C348 H333 0.960 . S
C348 H334 0.960 . S
C348 H335 0.960 . S
C348 C347 1.524 . S
C349 C346 1.403 . S
C349 C350 1.392 . S
C349 C353 1.495 . S
C350 C349 1.392 . S
C350 C351 1.385 . S
C350 C352 1.478 . S
C351 H345 0.930 . S
C351 C347 1.400 . S
C351 C350 1.385 . S
C352 C350 1.478 . S
C352 C354 1.381 1_455 S
C352 C358 1.383 . S
C353 C349 1.495 . S
C353 H359 0.959 . S
C353 H360 0.961 . S
C353 H361 0.960 . S
C354 C352 1.381 1_655 S
C354 C355 1.394 . S
C354 H362 0.930 . S
C355 C354 1.394 . S
C355 C356 1.383 . S
C355 H363 0.929 . S
C356 C355 1.383 . S
C356 C357 1.377 1_655 S
C357 H341 0.930 . S
C357 C356 1.377 1_455 S
C357 C358 1.379 . S
C358 H342 0.931 . S
C358 C352 1.383 . S
C358 C357 1.379 . S
H359 C353 0.959 . S
H360 C353 0.961 . S
H361 C353 0.960 . S
H362 C354 0.930 . S
H363 C355 0.929 . S
H364 C372 0.929 . S
H365 C374 0.930 . S
H366 C376 0.931 1_545 S
H367 C379 0.929 1_545 S
H368 C382 0.930 . S
H369 C384 0.960 . S
H370 C384 0.960 . S
H371 C384 0.960 1_545 S
C372 H364 0.929 . S
C372 C373 1.377 . S
C372 C374 1.384 . S
C373 C372 1.377 . S
C373 C379 1.390 . S
C374 H365 0.930 . S
C374 C372 1.384 . S
C374 C375 1.372 . S
C375 C374 1.372 . S
C375 C376 1.399 . S
C375 C380 1.490 . S
C376 H366 0.931 1_565 S
C376 C375 1.399 . S
C376 C379 1.385 . S
H377 C393 0.930 . S
H378 C394 0.931 . S
C379 H367 0.929 1_565 S
C379 C373 1.390 . S
C379 C376 1.385 . S
C380 C375 1.490 . S
C380 C382 1.395 . S
C380 C383 1.403 . S
H381 C387 0.930 . S
C382 H368 0.930 . S
C382 C380 1.395 . S
C382 C385 1.403 1_565 S
C383 C380 1.403 . S
C383 C384 1.524 . S
C383 C387 1.400 1_565 S
C384 H369 0.960 . S
C384 H370 0.960 . S
C384 H371 0.960 1_565 S
C384 C383 1.524 . S
C385 C382 1.403 1_545 S
C385 C386 1.392 . S
C385 C389 1.495 . S
C386 C385 1.392 . S
C386 C387 1.385 . S
C386 C388 1.478 . S
C387 H381 0.930 . S
C387 C383 1.400 1_545 S
C387 C386 1.385 . S
C388 C386 1.478 . S
C388 C390 1.405 . S
C388 C394 1.383 . S
C389 C385 1.495 . S
C389 H395 0.959 . S
C389 H396 0.961 . S
C389 H397 0.960 1_545 S
C390 C388 1.405 . S
C390 C391 1.405 . S
C390 H398 0.896 1_545 S
C391 C390 1.405 . S
C391 C392 1.383 . S
C391 H399 0.929 1_545 S
C392 C391 1.383 . S
C392 C393 1.377 . S
C393 H377 0.930 . S
C393 C392 1.377 . S
C393 C394 1.379 . S
C394 H378 0.931 . S
C394 C388 1.383 . S
C394 C393 1.379 . S
H395 C389 0.959 . S
H396 C389 0.961 . S
H397 C389 0.960 1_565 S
H398 C390 0.896 1_565 S
H399 C391 0.929 1_565 S
H400 C408 0.929 . S
H401 C410 0.930 . S
H402 C412 0.930 . S
H403 C415 0.929 . S
H404 C418 0.930 . S
H405 C420 0.960 . S
H406 C420 0.960 . S
H407 C420 0.960 . S
C408 H400 0.929 . S
C408 C409 1.377 . S
C408 C410 1.384 . S
C409 C408 1.377 . S
C409 C415 1.390 . S
C410 H401 0.930 . S
C410 C408 1.384 . S
C410 C411 1.372 . S
C411 C410 1.372 . S
C411 C412 1.400 . S
C411 C416 1.490 . S
C412 H402 0.930 . S
C412 C411 1.400 . S
C412 C415 1.386 . S
H413 C429 0.930 . S
H414 C430 0.931 . S
C415 H403 0.929 . S
C415 C409 1.390 . S
C415 C412 1.386 . S
C416 C411 1.490 . S
C416 C418 1.395 . S
C416 C419 1.403 1_455 S
H417 C423 0.930 . S
C418 H404 0.930 . S
C418 C416 1.395 . S
C418 C421 1.403 . S
C419 C416 1.403 1_655 S
C419 C420 1.524 . S
C419 C423 1.400 . S
C420 H405 0.960 . S
C420 H406 0.960 . S
C420 H407 0.960 . S
C420 C419 1.524 . S
C421 C418 1.403 . S
C421 C422 1.392 1_455 S
C421 C425 1.495 . S
C422 C421 1.392 1_655 S
C422 C423 1.385 . S
C422 C424 1.478 . S
C423 H417 0.930 . S
C423 C419 1.400 . S
C423 C422 1.385 . S
C424 C422 1.478 . S
C424 C426 1.381 . S
C424 C430 1.383 . S
C425 C421 1.495 . S
C425 H431 0.959 . S
C425 H432 0.961 . S
C425 H433 0.960 . S
C426 C424 1.381 . S
C426 C427 1.394 . S
C426 H434 0.930 . S
C427 C426 1.394 . S
C427 C428 1.383 . S
C427 H435 0.929 . S
C428 C427 1.383 . S
C428 C429 1.377 . S
C429 H413 0.930 . S
C429 C428 1.377 . S
C429 C430 1.379 . S
C430 H414 0.931 . S
C430 C424 1.383 . S
C430 C429 1.379 . S
H431 C425 0.959 . S
H432 C425 0.961 . S
H433 C425 0.960 . S
H434 C426 0.930 . S
H435 C427 0.929 . S
H436 C444 0.929 . S
H437 C446 0.930 . S
H438 C448 0.930 . S
H439 C451 0.929 . S
H440 C454 0.930 . S
H441 C456 0.960 . S
H442 C456 0.960 . S
H443 C456 0.960 . S
C444 H436 0.929 . S
C444 C445 1.377 . S
C444 C446 1.384 . S
C445 C444 1.377 . S
C445 C451 1.390 . S
C446 H437 0.930 . S
C446 C444 1.384 . S
C446 C447 1.372 . S
C447 C446 1.372 . S
C447 C448 1.400 . S
C447 C452 1.490 . S
C448 H438 0.930 . S
C448 C447 1.400 . S
C448 C451 1.386 . S
H449 C465 0.930 . S
H450 C466 0.931 . S
C451 H439 0.929 . S
C451 C445 1.390 . S
C451 C448 1.386 . S
C452 C447 1.490 . S
C452 C454 1.395 . S
C452 C455 1.403 1_565 S
H453 C459 0.930 . S
C454 H440 0.930 . S
C454 C452 1.395 . S
C454 C457 1.403 . S
C455 C452 1.403 1_545 S
C455 C456 1.524 . S
C455 C459 1.400 . S
C456 H441 0.960 . S
C456 H442 0.960 . S
C456 H443 0.960 . S
C456 C455 1.524 . S
C457 C454 1.403 . S
C457 C458 1.392 1_565 S
C457 C461 1.495 . S
C458 C457 1.392 1_545 S
C458 C459 1.385 . S
C458 C460 1.478 . S
C459 H453 0.930 . S
C459 C455 1.400 . S
C459 C458 1.385 . S
C460 C458 1.478 . S
C460 C462 1.381 . S
C460 C466 1.383 . S
C461 C457 1.495 . S
C461 H467 0.959 . S
C461 H468 0.961 . S
C461 H469 0.960 . S
C462 C460 1.381 . S
C462 C463 1.394 . S
C462 H470 0.930 . S
C463 C462 1.394 . S
C463 C464 1.383 . S
C463 H471 0.929 . S
C464 C463 1.383 . S
C464 C465 1.377 . S
C465 H449 0.930 . S
C465 C464 1.377 . S
C465 C466 1.379 . S
C466 H450 0.931 . S
C466 C460 1.383 . S
C466 C465 1.379 . S
H467 C461 0.959 . S
H468 C461 0.961 . S
H469 C461 0.960 . S
H470 C462 0.930 . S
H471 C463 0.929 . S
H472 C480 0.929 . S
H473 C482 0.930 . S
H474 C484 0.930 . S
H475 C487 0.929 . S
H476 C490 0.930 . S
H477 C492 0.960 . S
H478 C492 0.950 1_554 S
H479 C492 0.960 1_554 S
C480 H472 0.929 . S
C480 C481 1.377 . S
C480 C482 1.384 . S
C481 C480 1.377 . S
C481 C487 1.390 . S
C482 H473 0.930 . S
C482 C480 1.384 . S
C482 C483 1.372 . S
C483 C482 1.372 . S
C483 C484 1.400 . S
C483 C488 1.490 . S
C484 H474 0.930 . S
C484 C483 1.400 . S
C484 C487 1.386 . S
H485 C501 0.930 . S
H486 C502 0.931 . S
C487 H475 0.929 . S
C487 C481 1.390 . S
C487 C484 1.386 . S
C488 C483 1.490 . S
C488 C490 1.395 . S
C488 C491 1.395 1_554 S
H489 C495 0.930 . S
C490 H476 0.930 . S
C490 C488 1.395 . S
C490 C493 1.403 . S
C491 C488 1.395 1_556 S
C491 C492 1.525 . S
C491 C495 1.407 . S
C492 H477 0.960 . S
C492 H478 0.950 1_556 S
C492 H479 0.960 1_556 S
C492 C491 1.525 . S
C493 C490 1.403 . S
C493 C494 1.392 1_554 S
C493 C497 1.495 . S
C494 C493 1.392 1_556 S
C494 C495 1.385 . S
C494 C496 1.478 . S
C495 H489 0.930 . S
C495 C491 1.407 . S
C495 C494 1.385 . S
C496 C494 1.478 . S
C496 C498 1.381 . S
C496 C502 1.383 . S
C497 C493 1.495 . S
C497 H503 0.959 . S
C497 H504 0.962 1_554 S
C497 H505 0.960 1_554 S
C498 C496 1.381 . S
C498 C499 1.394 . S
C498 H506 0.930 . S
C499 C498 1.394 . S
C499 C500 1.383 . S
C499 H507 0.929 . S
C500 C499 1.383 . S
C500 C501 1.377 . S
C501 H485 0.930 . S
C501 C500 1.377 . S
C501 C502 1.379 . S
C502 H486 0.931 . S
C502 C496 1.383 . S
C502 C501 1.379 . S
H503 C497 0.959 . S
H504 C497 0.962 1_556 S
H505 C497 0.960 1_556 S
H506 C498 0.930 . S
H507 C499 0.929 . S
H508 C516 0.929 . S
H509 C518 0.930 1_545 S
H510 C520 0.930 1_655 S
H511 C523 0.929 . S
H512 C526 0.930 . S
H513 C528 0.965 1_554 S
H514 C528 0.959 . S
H515 C528 0.957 . S
C516 H508 0.929 . S
C516 C517 1.377 . S
C516 C518 1.384 . S
C517 C516 1.377 . S
C517 C523 1.390 . S
C518 H509 0.930 1_565 S
C518 C516 1.384 . S
C518 C519 1.372 . S
C519 C518 1.372 . S
C519 C520 1.400 . S
C519 C524 1.490 . S
C520 H510 0.930 1_455 S
C520 C519 1.400 . S
C520 C523 1.386 . S
H521 C537 0.930 . S
H522 C538 0.931 . S
C523 H511 0.929 . S
C523 C517 1.390 . S
C523 C520 1.386 . S
C524 C519 1.490 . S
C524 C526 1.395 1_565 S
C524 C527 1.403 . S
H525 C531 0.930 . S
C526 H512 0.930 . S
C526 C524 1.395 1_545 S
C526 C529 1.406 1_456 S
C527 C524 1.403 . S
C527 C528 1.523 . S
C527 C531 1.400 1_456 S
C528 H513 0.965 1_556 S
C528 H514 0.959 . S
C528 H515 0.957 . S
C528 C527 1.523 . S
C529 C526 1.406 1_654 S
C529 C530 1.390 . S
C529 C533 1.495 1_554 S
C530 C529 1.390 . S
C530 C531 1.385 1_545 S
C530 C532 1.478 . S
C531 H525 0.930 . S
C531 C527 1.400 1_654 S
C531 C530 1.385 1_565 S
C532 C530 1.478 . S
C532 C534 1.381 . S
C532 C538 1.383 . S
C533 C529 1.495 1_556 S
C533 H539 0.969 . S
C533 H540 0.960 1_556 S
C533 H541 0.952 1_556 S
C534 C532 1.381 . S
C534 C535 1.394 . S
C534 H542 0.930 1_655 S
C535 C534 1.394 . S
C535 C536 1.383 . S
C535 H543 0.929 . S
C536 C535 1.383 . S
C536 C537 1.377 . S
C537 H521 0.930 . S
C537 C536 1.377 . S
C537 C538 1.379 . S
C538 H522 0.931 . S
C538 C532 1.383 . S
C538 C537 1.379 . S
H539 C533 0.969 . S
H540 C533 0.960 1_554 S
H541 C533 0.952 1_554 S
H542 C534 0.930 1_455 S
H543 C535 0.929 . S
H544 C552 0.929 . S
H545 C554 0.930 . S
H546 C556 0.930 . S
H547 C559 0.929 . S
H548 C562 0.930 . S
H549 C564 0.960 . S
H550 C564 0.960 . S
H551 C564 0.960 . S
C552 H544 0.929 . S
C552 C553 1.377 . S
C552 C554 1.384 . S
C553 C552 1.377 . S
C553 C559 1.390 . S
C554 H545 0.930 . S
C554 C552 1.384 . S
C554 C555 1.372 . S
C555 C554 1.372 . S
C555 C556 1.400 . S
C555 C560 1.490 . S
C556 H546 0.930 . S
C556 C555 1.400 . S
C556 C559 1.386 . S
H557 C573 0.930 . S
H558 C574 0.931 . S
C559 H547 0.929 . S
C559 C553 1.390 . S
C559 C556 1.386 . S
C560 C555 1.490 . S
C560 C562 1.395 . S
C560 C563 1.403 . S
H561 C567 0.930 . S
C562 H548 0.930 . S
C562 C560 1.395 . S
C562 C565 1.403 . S
C563 C560 1.403 . S
C563 C564 1.524 . S
C563 C567 1.400 . S
C564 H549 0.960 . S
C564 H550 0.960 . S
C564 H551 0.960 . S
C564 C563 1.524 . S
C565 C562 1.403 . S
C565 C566 1.392 . S
C565 C569 1.495 . S
C566 C565 1.392 . S
C566 C567 1.385 . S
C566 C568 1.478 . S
C567 H561 0.930 . S
C567 C563 1.400 . S
C567 C566 1.385 . S
C568 C566 1.478 . S
C568 C570 1.381 . S
C568 C574 1.383 . S
C569 C565 1.495 . S
C569 H575 0.959 . S
C569 H576 0.961 . S
C569 H577 0.960 . S
C570 C568 1.381 . S
C570 C571 1.394 . S
C570 H578 0.930 . S
C571 C570 1.394 . S
C571 C572 1.383 . S
C571 H579 0.929 . S
C572 C571 1.383 . S
C572 C573 1.377 . S
C573 H557 0.930 . S
C573 C572 1.377 . S
C573 C574 1.379 . S
C574 H558 0.931 . S
C574 C568 1.383 . S
C574 C573 1.379 . S
H575 C569 0.959 . S
H576 C569 0.961 . S
H577 C569 0.960 . S
H578 C570 0.930 . S
H579 C571 0.929 . S
H580 C588 0.929 . S
H581 C590 0.930 . S
H582 C592 0.930 . S
H583 C595 0.929 . S
H584 C598 0.930 . S
H585 C600 0.960 . S
H586 C600 0.960 . S
H587 C600 0.960 . S
C588 H580 0.929 . S
C588 C589 1.377 . S
C588 C590 1.384 . S
C589 C588 1.377 . S
C589 C595 1.390 . S
C590 H581 0.930 . S
C590 C588 1.384 . S
C590 C591 1.372 . S
C591 C590 1.372 . S
C591 C592 1.400 . S
C591 C596 1.490 . S
C592 H582 0.930 . S
C592 C591 1.400 . S
C592 C595 1.386 . S
H593 C609 0.930 . S
H594 C610 0.931 . S
C595 H583 0.929 . S
C595 C589 1.390 . S
C595 C592 1.386 . S
C596 C591 1.490 . S
C596 C598 1.395 . S
C596 C599 1.403 . S
H597 C603 0.930 . S
C598 H584 0.930 . S
C598 C596 1.395 . S
C598 C601 1.403 . S
C599 C596 1.403 . S
C599 C600 1.524 . S
C599 C603 1.400 . S
C600 H585 0.960 . S
C600 H586 0.960 . S
C600 H587 0.960 . S
C600 C599 1.524 . S
C601 C598 1.403 . S
C601 C602 1.392 . S
C601 C605 1.495 . S
C602 C601 1.392 . S
C602 C603 1.385 . S
C602 C604 1.478 . S
C603 H597 0.930 . S
C603 C599 1.400 . S
C603 C602 1.385 . S
C604 C602 1.478 . S
C604 C606 1.381 . S
C604 C610 1.383 . S
C605 C601 1.495 . S
C605 H611 0.959 . S
C605 H612 0.961 . S
C605 H613 0.960 . S
C606 C604 1.381 . S
C606 C607 1.394 . S
C606 H614 0.930 . S
C607 C606 1.394 . S
C607 C608 1.383 . S
C607 H615 0.929 . S
C608 C607 1.383 . S
C608 C609 1.377 . S
C609 H593 0.930 . S
C609 C608 1.377 . S
C609 C610 1.379 . S
C610 H594 0.931 . S
C610 C604 1.383 . S
C610 C609 1.379 . S
H611 C605 0.959 . S
H612 C605 0.961 . S
H613 C605 0.960 . S
H614 C606 0.930 . S
H615 C607 0.929 . S
H616 C624 0.929 . S
H617 C626 0.930 . S
H618 C628 0.930 . S
H619 C631 0.929 . S
H620 C634 0.930 . S
H621 C636 0.960 . S
H622 C636 0.960 . S
H623 C636 0.960 . S
C624 H616 0.929 . S
C624 C625 1.377 . S
C624 C626 1.384 . S
C625 C624 1.377 . S
C625 C631 1.390 . S
C626 H617 0.930 . S
C626 C624 1.384 . S
C626 C627 1.372 . S
C627 C626 1.372 . S
C627 C628 1.400 . S
C627 C632 1.490 . S
C628 H618 0.930 . S
C628 C627 1.400 . S
C628 C631 1.386 . S
H629 C645 0.930 . S
H630 C646 0.931 . S
C631 H619 0.929 . S
C631 C625 1.390 . S
C631 C628 1.386 . S
C632 C627 1.490 . S
C632 C634 1.395 . S
C632 C635 1.403 . S
H633 C639 0.930 . S
C634 H620 0.930 . S
C634 C632 1.395 . S
C634 C637 1.403 . S
C635 C632 1.403 . S
C635 C636 1.524 . S
C635 C639 1.400 . S
C636 H621 0.960 . S
C636 H622 0.960 . S
C636 H623 0.960 . S
C636 C635 1.524 . S
C637 C634 1.403 . S
C637 C638 1.392 . S
C637 C641 1.495 . S
C638 C637 1.392 . S
C638 C639 1.385 . S
C638 C640 1.478 . S
C639 H633 0.930 . S
C639 C635 1.400 . S
C639 C638 1.385 . S
C640 C638 1.478 . S
C640 C642 1.381 . S
C640 C646 1.383 . S
C641 C637 1.495 . S
C641 H647 0.959 . S
C641 H648 0.961 . S
C641 H649 0.960 . S
C642 C640 1.381 . S
C642 C643 1.394 . S
C642 H650 0.930 . S
C643 C642 1.394 . S
C643 C644 1.383 . S
C643 H651 0.929 . S
C644 C643 1.383 . S
C644 C645 1.377 . S
C645 H629 0.930 . S
C645 C644 1.377 . S
C645 C646 1.379 . S
C646 H630 0.931 . S
C646 C640 1.383 . S
C646 C645 1.379 . S
H647 C641 0.959 . S
H648 C641 0.961 . S
H649 C641 0.960 . S
H650 C642 0.930 . S
H651 C643 0.929 . S
H652 C660 0.929 . S
H653 C662 0.930 . S
H654 C664 0.930 . S
H655 C667 0.929 . S
H656 C670 0.930 . S
H657 C672 0.960 . S
H658 C672 0.960 . S
H659 C672 0.960 . S
C660 H652 0.929 . S
C660 C661 1.377 . S
C660 C662 1.384 . S
C661 C660 1.377 . S
C661 C667 1.390 . S
C662 H653 0.930 . S
C662 C660 1.384 . S
C662 C663 1.372 . S
C663 C662 1.372 . S
C663 C664 1.400 . S
C663 C668 1.490 . S
C664 H654 0.930 . S
C664 C663 1.400 . S
C664 C667 1.386 . S
H665 C681 0.930 . S
H666 C682 0.931 . S
C667 H655 0.929 . S
C667 C661 1.390 . S
C667 C664 1.386 . S
C668 C663 1.490 . S
C668 C670 1.395 . S
C668 C671 1.403 . S
H669 C675 0.930 . S
C670 H656 0.930 . S
C670 C668 1.395 . S
C670 C673 1.403 . S
C671 C668 1.403 . S
C671 C672 1.524 . S
C671 C675 1.400 . S
C672 H657 0.960 . S
C672 H658 0.960 . S
C672 H659 0.960 . S
C672 C671 1.524 . S
C673 C670 1.403 . S
C673 C674 1.392 . S
C673 C677 1.495 . S
C674 C673 1.392 . S
C674 C675 1.385 . S
C674 C676 1.478 . S
C675 H669 0.930 . S
C675 C671 1.400 . S
C675 C674 1.385 . S
C676 C674 1.478 . S
C676 C678 1.381 . S
C676 C682 1.383 . S
C677 C673 1.495 . S
C677 H683 0.959 . S
C677 H684 0.961 . S
C677 H685 0.960 . S
C678 C676 1.381 . S
C678 C679 1.394 . S
C678 H686 0.930 . S
C679 C678 1.394 . S
C679 C680 1.383 . S
C679 H687 0.929 . S
C680 C679 1.383 . S
C680 C681 1.377 . S
C681 H665 0.930 . S
C681 C680 1.377 . S
C681 C682 1.379 . S
C682 H666 0.931 . S
C682 C676 1.383 . S
C682 C681 1.379 . S
H683 C677 0.959 . S
H684 C677 0.961 . S
H685 C677 0.960 . S
H686 C678 0.930 . S
H687 C679 0.929 . S
C121 C9 1.376 . S
C140 C35 1.361 . S
C157 C49 1.360 . S
C176 C23 1.354 . S
C193 C37 1.376 . S
C212 C7 1.377 . S
C229 C51 1.376 . S
C248 C21 1.381 . S
C265 C91 1.356 . S
C284 C65 1.378 . S
C301 C79 1.370 . S
C320 C105 1.373 . S
C337 C93 1.377 . S
C356 C63 1.360 . S
C373 C107 1.371 . S
C392 C77 1.376 . S
C409 C8 1.520 . S
C428 C64 1.519 . S
C445 C22 1.520 . S
C464 C78 1.514 . S
C481 C36 1.522 . S
C500 C92 1.519 . S
C517 C106 1.521 . S
C536 C50 1.522 . S
C553 C3 1.529 . S
C572 C17 1.521 . S
C589 C45 1.530 . S
C608 C31 1.532 . S
C625 C73 1.528 . S
C644 C59 1.528 . S
C661 C87 1.531 . S
C680 C101 1.526 . S
