# Generated by pormake.
# Topology ulh, (4)-cn, num edge types: 1
# Building blocks:
#     Node 0, Type 0, BuildingBlock: GALJAG_clean_sbu_0, # of connection points: 4
#     Node 1, Type 0, BuildingBlock: GALJAG_clean_sbu_0, # of connection points: 4
#     Node 2, Type 0, BuildingBlock: GALJAG_clean_sbu_0, # of connection points: 4
#     Node 3, Type 0, BuildingBlock: GALJAG_clean_sbu_0, # of connection points: 4
#     Node 4, Type 0, BuildingBlock: GALJAG_clean_sbu_0, # of connection points: 4
#     Node 5, Type 0, BuildingBlock: GALJAG_clean_sbu_0, # of connection points: 4
#     Node 6, Type 0, BuildingBlock: GALJAG_clean_sbu_0, # of connection points: 4
#     Node 7, Type 0, BuildingBlock: GALJAG_clean_sbu_0, # of connection points: 4
#     Node 8, Type 0, BuildingBlock: GALJAG_clean_sbu_0, # of connection points: 4
#     Node 9, Type 0, BuildingBlock: GALJAG_clean_sbu_0, # of connection points: 4
#     Node 10, Type 0, BuildingBlock: GALJAG_clean_sbu_0, # of connection points: 4
#     Node 11, Type 0, BuildingBlock: GALJAG_clean_sbu_0, # of connection points: 4
#     Node 12, Type 0, BuildingBlock: GALJAG_clean_sbu_0, # of connection points: 4
#     Node 13, Type 0, BuildingBlock: GALJAG_clean_sbu_0, # of connection points: 4
#     Node 14, Type 0, BuildingBlock: GALJAG_clean_sbu_0, # of connection points: 4
#     Node 15, Type 0, BuildingBlock: GALJAG_clean_sbu_0, # of connection points: 4
#     Node 16, Type 0, BuildingBlock: GALJAG_clean_sbu_0, # of connection points: 4
#     Node 17, Type 0, BuildingBlock: GALJAG_clean_sbu_0, # of connection points: 4
#     Node 18, Type 0, BuildingBlock: GALJAG_clean_sbu_0, # of connection points: 4
#     Node 19, Type 0, BuildingBlock: GALJAG_clean_sbu_0, # of connection points: 4
#     Node 20, Type 0, BuildingBlock: GALJAG_clean_sbu_0, # of connection points: 4
#     Node 21, Type 0, BuildingBlock: GALJAG_clean_sbu_0, # of connection points: 4
#     Node 22, Type 0, BuildingBlock: GALJAG_clean_sbu_0, # of connection points: 4
#     Node 23, Type 0, BuildingBlock: GALJAG_clean_sbu_0, # of connection points: 4
#     Node 24, Type 0, BuildingBlock: GALJAG_clean_sbu_0, # of connection points: 4
#     Node 25, Type 0, BuildingBlock: GALJAG_clean_sbu_0, # of connection points: 4
#     Node 26, Type 0, BuildingBlock: GALJAG_clean_sbu_0, # of connection points: 4
#     Node 27, Type 0, BuildingBlock: GALJAG_clean_sbu_0, # of connection points: 4
#     Node 28, Type 0, BuildingBlock: GALJAG_clean_sbu_0, # of connection points: 4
#     Node 29, Type 0, BuildingBlock: GALJAG_clean_sbu_0, # of connection points: 4
#     Node 30, Type 0, BuildingBlock: GALJAG_clean_sbu_0, # of connection points: 4
#     Node 31, Type 0, BuildingBlock: GALJAG_clean_sbu_0, # of connection points: 4
#     Node 32, Type 0, BuildingBlock: GALJAG_clean_sbu_0, # of connection points: 4
#     Node 33, Type 0, BuildingBlock: GALJAG_clean_sbu_0, # of connection points: 4
#     Node 34, Type 0, BuildingBlock: GALJAG_clean_sbu_0, # of connection points: 4
#     Node 35, Type 0, BuildingBlock: GALJAG_clean_sbu_0, # of connection points: 4
#     Node 36, Type 0, BuildingBlock: GALJAG_clean_sbu_0, # of connection points: 4
#     Node 37, Type 0, BuildingBlock: GALJAG_clean_sbu_0, # of connection points: 4
#     Node 38, Type 0, BuildingBlock: GALJAG_clean_sbu_0, # of connection points: 4
#     Node 39, Type 0, BuildingBlock: GALJAG_clean_sbu_0, # of connection points: 4
#     Node 40, Type 0, BuildingBlock: GALJAG_clean_sbu_0, # of connection points: 4
#     Node 41, Type 0, BuildingBlock: GALJAG_clean_sbu_0, # of connection points: 4
#     Node 42, Type 0, BuildingBlock: GALJAG_clean_sbu_0, # of connection points: 4
#     Node 43, Type 0, BuildingBlock: GALJAG_clean_sbu_0, # of connection points: 4
#     Node 44, Type 0, BuildingBlock: GALJAG_clean_sbu_0, # of connection points: 4
#     Node 45, Type 0, BuildingBlock: GALJAG_clean_sbu_0, # of connection points: 4
#     Node 46, Type 0, BuildingBlock: GALJAG_clean_sbu_0, # of connection points: 4
#     Node 47, Type 0, BuildingBlock: GALJAG_clean_sbu_0, # of connection points: 4
#     Node 48, Type 0, BuildingBlock: GALJAG_clean_sbu_0, # of connection points: 4
#     Node 49, Type 0, BuildingBlock: GALJAG_clean_sbu_0, # of connection points: 4
#     Node 50, Type 0, BuildingBlock: GALJAG_clean_sbu_0, # of connection points: 4
#     Node 51, Type 0, BuildingBlock: GALJAG_clean_sbu_0, # of connection points: 4
#     Node 52, Type 0, BuildingBlock: GALJAG_clean_sbu_0, # of connection points: 4
#     Node 53, Type 0, BuildingBlock: GALJAG_clean_sbu_0, # of connection points: 4
#     Node 54, Type 0, BuildingBlock: GALJAG_clean_sbu_0, # of connection points: 4
#     Node 55, Type 0, BuildingBlock: GALJAG_clean_sbu_0, # of connection points: 4
#     Node 56, Type 0, BuildingBlock: GALJAG_clean_sbu_0, # of connection points: 4
#     Node 57, Type 0, BuildingBlock: GALJAG_clean_sbu_0, # of connection points: 4
#     Node 58, Type 0, BuildingBlock: GALJAG_clean_sbu_0, # of connection points: 4
#     Node 59, Type 0, BuildingBlock: GALJAG_clean_sbu_0, # of connection points: 4
#     Node 60, Type 0, BuildingBlock: GALJAG_clean_sbu_0, # of connection points: 4
#     Node 61, Type 0, BuildingBlock: GALJAG_clean_sbu_0, # of connection points: 4
#     Node 62, Type 0, BuildingBlock: GALJAG_clean_sbu_0, # of connection points: 4
#     Node 63, Type 0, BuildingBlock: GALJAG_clean_sbu_0, # of connection points: 4
#     Node 64, Type 0, BuildingBlock: GALJAG_clean_sbu_0, # of connection points: 4
#     Node 65, Type 0, BuildingBlock: GALJAG_clean_sbu_0, # of connection points: 4
#     Node 66, Type 0, BuildingBlock: GALJAG_clean_sbu_0, # of connection points: 4
#     Node 67, Type 0, BuildingBlock: GALJAG_clean_sbu_0, # of connection points: 4
#     Node 68, Type 0, BuildingBlock: GALJAG_clean_sbu_0, # of connection points: 4
#     Node 69, Type 0, BuildingBlock: GALJAG_clean_sbu_0, # of connection points: 4
#     Node 70, Type 0, BuildingBlock: GALJAG_clean_sbu_0, # of connection points: 4
#     Node 71, Type 0, BuildingBlock: GALJAG_clean_sbu_0, # of connection points: 4
#     Node 72, Type 0, BuildingBlock: GALJAG_clean_sbu_0, # of connection points: 4
#     Node 73, Type 0, BuildingBlock: GALJAG_clean_sbu_0, # of connection points: 4
#     Node 74, Type 0, BuildingBlock: GALJAG_clean_sbu_0, # of connection points: 4
#     Node 75, Type 0, BuildingBlock: GALJAG_clean_sbu_0, # of connection points: 4
#     Node 76, Type 0, BuildingBlock: GALJAG_clean_sbu_0, # of connection points: 4
#     Node 77, Type 0, BuildingBlock: GALJAG_clean_sbu_0, # of connection points: 4
#     Node 78, Type 0, BuildingBlock: GALJAG_clean_sbu_0, # of connection points: 4
#     Node 79, Type 0, BuildingBlock: GALJAG_clean_sbu_0, # of connection points: 4
#     Node 80, Type 0, BuildingBlock: GALJAG_clean_sbu_0, # of connection points: 4
#     Node 81, Type 0, BuildingBlock: GALJAG_clean_sbu_0, # of connection points: 4
#     Node 82, Type 0, BuildingBlock: GALJAG_clean_sbu_0, # of connection points: 4
#     Node 83, Type 0, BuildingBlock: GALJAG_clean_sbu_0, # of connection points: 4
#     Node 84, Type 0, BuildingBlock: GALJAG_clean_sbu_0, # of connection points: 4
#     Node 85, Type 0, BuildingBlock: GALJAG_clean_sbu_0, # of connection points: 4
#     Node 86, Type 0, BuildingBlock: GALJAG_clean_sbu_0, # of connection points: 4
#     Node 87, Type 0, BuildingBlock: GALJAG_clean_sbu_0, # of connection points: 4
#     Node 88, Type 0, BuildingBlock: GALJAG_clean_sbu_0, # of connection points: 4
#     Node 89, Type 0, BuildingBlock: GALJAG_clean_sbu_0, # of connection points: 4
#     Node 90, Type 0, BuildingBlock: GALJAG_clean_sbu_0, # of connection points: 4
#     Node 91, Type 0, BuildingBlock: GALJAG_clean_sbu_0, # of connection points: 4
#     Node 92, Type 0, BuildingBlock: GALJAG_clean_sbu_0, # of connection points: 4
#     Node 93, Type 0, BuildingBlock: GALJAG_clean_sbu_0, # of connection points: 4
#     Node 94, Type 0, BuildingBlock: GALJAG_clean_sbu_0, # of connection points: 4
#     Node 95, Type 0, BuildingBlock: GALJAG_clean_sbu_0, # of connection points: 4
#     Edge 96, Type (0, 0), BuildingBlock: XIVTED_clean_linker_0, # of connection points: 2
#     Edge 97, Type (0, 0), BuildingBlock: XIVTED_clean_linker_0, # of connection points: 2
#     Edge 98, Type (0, 0), BuildingBlock: XIVTED_clean_linker_0, # of connection points: 2
#     Edge 99, Type (0, 0), BuildingBlock: XIVTED_clean_linker_0, # of connection points: 2
#     Edge 100, Type (0, 0), BuildingBlock: XIVTED_clean_linker_0, # of connection points: 2
#     Edge 101, Type (0, 0), BuildingBlock: XIVTED_clean_linker_0, # of connection points: 2
#     Edge 102, Type (0, 0), BuildingBlock: XIVTED_clean_linker_0, # of connection points: 2
#     Edge 103, Type (0, 0), BuildingBlock: XIVTED_clean_linker_0, # of connection points: 2
#     Edge 104, Type (0, 0), BuildingBlock: XIVTED_clean_linker_0, # of connection points: 2
#     Edge 105, Type (0, 0), BuildingBlock: XIVTED_clean_linker_0, # of connection points: 2
#     Edge 106, Type (0, 0), BuildingBlock: XIVTED_clean_linker_0, # of connection points: 2
#     Edge 107, Type (0, 0), BuildingBlock: XIVTED_clean_linker_0, # of connection points: 2
#     Edge 108, Type (0, 0), BuildingBlock: XIVTED_clean_linker_0, # of connection points: 2
#     Edge 109, Type (0, 0), BuildingBlock: XIVTED_clean_linker_0, # of connection points: 2
#     Edge 110, Type (0, 0), BuildingBlock: XIVTED_clean_linker_0, # of connection points: 2
#     Edge 111, Type (0, 0), BuildingBlock: XIVTED_clean_linker_0, # of connection points: 2
#     Edge 112, Type (0, 0), BuildingBlock: XIVTED_clean_linker_0, # of connection points: 2
#     Edge 113, Type (0, 0), BuildingBlock: XIVTED_clean_linker_0, # of connection points: 2
#     Edge 114, Type (0, 0), BuildingBlock: XIVTED_clean_linker_0, # of connection points: 2
#     Edge 115, Type (0, 0), BuildingBlock: XIVTED_clean_linker_0, # of connection points: 2
#     Edge 116, Type (0, 0), BuildingBlock: XIVTED_clean_linker_0, # of connection points: 2
#     Edge 117, Type (0, 0), BuildingBlock: XIVTED_clean_linker_0, # of connection points: 2
#     Edge 118, Type (0, 0), BuildingBlock: XIVTED_clean_linker_0, # of connection points: 2
#     Edge 119, Type (0, 0), BuildingBlock: XIVTED_clean_linker_0, # of connection points: 2
#     Edge 120, Type (0, 0), BuildingBlock: XIVTED_clean_linker_0, # of connection points: 2
#     Edge 121, Type (0, 0), BuildingBlock: XIVTED_clean_linker_0, # of connection points: 2
#     Edge 122, Type (0, 0), BuildingBlock: XIVTED_clean_linker_0, # of connection points: 2
#     Edge 123, Type (0, 0), BuildingBlock: XIVTED_clean_linker_0, # of connection points: 2
#     Edge 124, Type (0, 0), BuildingBlock: XIVTED_clean_linker_0, # of connection points: 2
#     Edge 125, Type (0, 0), BuildingBlock: XIVTED_clean_linker_0, # of connection points: 2
#     Edge 126, Type (0, 0), BuildingBlock: XIVTED_clean_linker_0, # of connection points: 2
#     Edge 127, Type (0, 0), BuildingBlock: XIVTED_clean_linker_0, # of connection points: 2
#     Edge 128, Type (0, 0), BuildingBlock: XIVTED_clean_linker_0, # of connection points: 2
#     Edge 129, Type (0, 0), BuildingBlock: XIVTED_clean_linker_0, # of connection points: 2
#     Edge 130, Type (0, 0), BuildingBlock: XIVTED_clean_linker_0, # of connection points: 2
#     Edge 131, Type (0, 0), BuildingBlock: XIVTED_clean_linker_0, # of connection points: 2
#     Edge 132, Type (0, 0), BuildingBlock: XIVTED_clean_linker_0, # of connection points: 2
#     Edge 133, Type (0, 0), BuildingBlock: XIVTED_clean_linker_0, # of connection points: 2
#     Edge 134, Type (0, 0), BuildingBlock: XIVTED_clean_linker_0, # of connection points: 2
#     Edge 135, Type (0, 0), BuildingBlock: XIVTED_clean_linker_0, # of connection points: 2
#     Edge 136, Type (0, 0), BuildingBlock: XIVTED_clean_linker_0, # of connection points: 2
#     Edge 137, Type (0, 0), BuildingBlock: XIVTED_clean_linker_0, # of connection points: 2
#     Edge 138, Type (0, 0), BuildingBlock: XIVTED_clean_linker_0, # of connection points: 2
#     Edge 139, Type (0, 0), BuildingBlock: XIVTED_clean_linker_0, # of connection points: 2
#     Edge 140, Type (0, 0), BuildingBlock: XIVTED_clean_linker_0, # of connection points: 2
#     Edge 141, Type (0, 0), BuildingBlock: XIVTED_clean_linker_0, # of connection points: 2
#     Edge 142, Type (0, 0), BuildingBlock: XIVTED_clean_linker_0, # of connection points: 2
#     Edge 143, Type (0, 0), BuildingBlock: XIVTED_clean_linker_0, # of connection points: 2
#     Edge 144, Type (0, 0), BuildingBlock: XIVTED_clean_linker_0, # of connection points: 2
#     Edge 145, Type (0, 0), BuildingBlock: XIVTED_clean_linker_0, # of connection points: 2
#     Edge 146, Type (0, 0), BuildingBlock: XIVTED_clean_linker_0, # of connection points: 2
#     Edge 147, Type (0, 0), BuildingBlock: XIVTED_clean_linker_0, # of connection points: 2
#     Edge 148, Type (0, 0), BuildingBlock: XIVTED_clean_linker_0, # of connection points: 2
#     Edge 149, Type (0, 0), BuildingBlock: XIVTED_clean_linker_0, # of connection points: 2
#     Edge 150, Type (0, 0), BuildingBlock: XIVTED_clean_linker_0, # of connection points: 2
#     Edge 151, Type (0, 0), BuildingBlock: XIVTED_clean_linker_0, # of connection points: 2
#     Edge 152, Type (0, 0), BuildingBlock: XIVTED_clean_linker_0, # of connection points: 2
#     Edge 153, Type (0, 0), BuildingBlock: XIVTED_clean_linker_0, # of connection points: 2
#     Edge 154, Type (0, 0), BuildingBlock: XIVTED_clean_linker_0, # of connection points: 2
#     Edge 155, Type (0, 0), BuildingBlock: XIVTED_clean_linker_0, # of connection points: 2
#     Edge 156, Type (0, 0), BuildingBlock: XIVTED_clean_linker_0, # of connection points: 2
#     Edge 157, Type (0, 0), BuildingBlock: XIVTED_clean_linker_0, # of connection points: 2
#     Edge 158, Type (0, 0), BuildingBlock: XIVTED_clean_linker_0, # of connection points: 2
#     Edge 159, Type (0, 0), BuildingBlock: XIVTED_clean_linker_0, # of connection points: 2
#     Edge 160, Type (0, 0), BuildingBlock: XIVTED_clean_linker_0, # of connection points: 2
#     Edge 161, Type (0, 0), BuildingBlock: XIVTED_clean_linker_0, # of connection points: 2
#     Edge 162, Type (0, 0), BuildingBlock: XIVTED_clean_linker_0, # of connection points: 2
#     Edge 163, Type (0, 0), BuildingBlock: XIVTED_clean_linker_0, # of connection points: 2
#     Edge 164, Type (0, 0), BuildingBlock: XIVTED_clean_linker_0, # of connection points: 2
#     Edge 165, Type (0, 0), BuildingBlock: XIVTED_clean_linker_0, # of connection points: 2
#     Edge 166, Type (0, 0), BuildingBlock: XIVTED_clean_linker_0, # of connection points: 2
#     Edge 167, Type (0, 0), BuildingBlock: XIVTED_clean_linker_0, # of connection points: 2
#     Edge 168, Type (0, 0), BuildingBlock: XIVTED_clean_linker_0, # of connection points: 2
#     Edge 169, Type (0, 0), BuildingBlock: XIVTED_clean_linker_0, # of connection points: 2
#     Edge 170, Type (0, 0), BuildingBlock: XIVTED_clean_linker_0, # of connection points: 2
#     Edge 171, Type (0, 0), BuildingBlock: XIVTED_clean_linker_0, # of connection points: 2
#     Edge 172, Type (0, 0), BuildingBlock: XIVTED_clean_linker_0, # of connection points: 2
#     Edge 173, Type (0, 0), BuildingBlock: XIVTED_clean_linker_0, # of connection points: 2
#     Edge 174, Type (0, 0), BuildingBlock: XIVTED_clean_linker_0, # of connection points: 2
#     Edge 175, Type (0, 0), BuildingBlock: XIVTED_clean_linker_0, # of connection points: 2
#     Edge 176, Type (0, 0), BuildingBlock: XIVTED_clean_linker_0, # of connection points: 2
#     Edge 177, Type (0, 0), BuildingBlock: XIVTED_clean_linker_0, # of connection points: 2
#     Edge 178, Type (0, 0), BuildingBlock: XIVTED_clean_linker_0, # of connection points: 2
#     Edge 179, Type (0, 0), BuildingBlock: XIVTED_clean_linker_0, # of connection points: 2
#     Edge 180, Type (0, 0), BuildingBlock: XIVTED_clean_linker_0, # of connection points: 2
#     Edge 181, Type (0, 0), BuildingBlock: XIVTED_clean_linker_0, # of connection points: 2
#     Edge 182, Type (0, 0), BuildingBlock: XIVTED_clean_linker_0, # of connection points: 2
#     Edge 183, Type (0, 0), BuildingBlock: XIVTED_clean_linker_0, # of connection points: 2
#     Edge 184, Type (0, 0), BuildingBlock: XIVTED_clean_linker_0, # of connection points: 2
#     Edge 185, Type (0, 0), BuildingBlock: XIVTED_clean_linker_0, # of connection points: 2
#     Edge 186, Type (0, 0), BuildingBlock: XIVTED_clean_linker_0, # of connection points: 2
#     Edge 187, Type (0, 0), BuildingBlock: XIVTED_clean_linker_0, # of connection points: 2
#     Edge 188, Type (0, 0), BuildingBlock: XIVTED_clean_linker_0, # of connection points: 2
#     Edge 189, Type (0, 0), BuildingBlock: XIVTED_clean_linker_0, # of connection points: 2
#     Edge 190, Type (0, 0), BuildingBlock: XIVTED_clean_linker_0, # of connection points: 2
#     Edge 191, Type (0, 0), BuildingBlock: XIVTED_clean_linker_0, # of connection points: 2
#     Edge 192, Type (0, 0), BuildingBlock: XIVTED_clean_linker_0, # of connection points: 2
#     Edge 193, Type (0, 0), BuildingBlock: XIVTED_clean_linker_0, # of connection points: 2
#     Edge 194, Type (0, 0), BuildingBlock: XIVTED_clean_linker_0, # of connection points: 2
#     Edge 195, Type (0, 0), BuildingBlock: XIVTED_clean_linker_0, # of connection points: 2
#     Edge 196, Type (0, 0), BuildingBlock: XIVTED_clean_linker_0, # of connection points: 2
#     Edge 197, Type (0, 0), BuildingBlock: XIVTED_clean_linker_0, # of connection points: 2
#     Edge 198, Type (0, 0), BuildingBlock: XIVTED_clean_linker_0, # of connection points: 2
#     Edge 199, Type (0, 0), BuildingBlock: XIVTED_clean_linker_0, # of connection points: 2
#     Edge 200, Type (0, 0), BuildingBlock: XIVTED_clean_linker_0, # of connection points: 2
#     Edge 201, Type (0, 0), BuildingBlock: XIVTED_clean_linker_0, # of connection points: 2
#     Edge 202, Type (0, 0), BuildingBlock: XIVTED_clean_linker_0, # of connection points: 2
#     Edge 203, Type (0, 0), BuildingBlock: XIVTED_clean_linker_0, # of connection points: 2
#     Edge 204, Type (0, 0), BuildingBlock: XIVTED_clean_linker_0, # of connection points: 2
#     Edge 205, Type (0, 0), BuildingBlock: XIVTED_clean_linker_0, # of connection points: 2
#     Edge 206, Type (0, 0), BuildingBlock: XIVTED_clean_linker_0, # of connection points: 2
#     Edge 207, Type (0, 0), BuildingBlock: XIVTED_clean_linker_0, # of connection points: 2
#     Edge 208, Type (0, 0), BuildingBlock: XIVTED_clean_linker_0, # of connection points: 2
#     Edge 209, Type (0, 0), BuildingBlock: XIVTED_clean_linker_0, # of connection points: 2
#     Edge 210, Type (0, 0), BuildingBlock: XIVTED_clean_linker_0, # of connection points: 2
#     Edge 211, Type (0, 0), BuildingBlock: XIVTED_clean_linker_0, # of connection points: 2
#     Edge 212, Type (0, 0), BuildingBlock: XIVTED_clean_linker_0, # of connection points: 2
#     Edge 213, Type (0, 0), BuildingBlock: XIVTED_clean_linker_0, # of connection points: 2
#     Edge 214, Type (0, 0), BuildingBlock: XIVTED_clean_linker_0, # of connection points: 2
#     Edge 215, Type (0, 0), BuildingBlock: XIVTED_clean_linker_0, # of connection points: 2
#     Edge 216, Type (0, 0), BuildingBlock: XIVTED_clean_linker_0, # of connection points: 2
#     Edge 217, Type (0, 0), BuildingBlock: XIVTED_clean_linker_0, # of connection points: 2
#     Edge 218, Type (0, 0), BuildingBlock: XIVTED_clean_linker_0, # of connection points: 2
#     Edge 219, Type (0, 0), BuildingBlock: XIVTED_clean_linker_0, # of connection points: 2
#     Edge 220, Type (0, 0), BuildingBlock: XIVTED_clean_linker_0, # of connection points: 2
#     Edge 221, Type (0, 0), BuildingBlock: XIVTED_clean_linker_0, # of connection points: 2
#     Edge 222, Type (0, 0), BuildingBlock: XIVTED_clean_linker_0, # of connection points: 2
#     Edge 223, Type (0, 0), BuildingBlock: XIVTED_clean_linker_0, # of connection points: 2
#     Edge 224, Type (0, 0), BuildingBlock: XIVTED_clean_linker_0, # of connection points: 2
#     Edge 225, Type (0, 0), BuildingBlock: XIVTED_clean_linker_0, # of connection points: 2
#     Edge 226, Type (0, 0), BuildingBlock: XIVTED_clean_linker_0, # of connection points: 2
#     Edge 227, Type (0, 0), BuildingBlock: XIVTED_clean_linker_0, # of connection points: 2
#     Edge 228, Type (0, 0), BuildingBlock: XIVTED_clean_linker_0, # of connection points: 2
#     Edge 229, Type (0, 0), BuildingBlock: XIVTED_clean_linker_0, # of connection points: 2
#     Edge 230, Type (0, 0), BuildingBlock: XIVTED_clean_linker_0, # of connection points: 2
#     Edge 231, Type (0, 0), BuildingBlock: XIVTED_clean_linker_0, # of connection points: 2
#     Edge 232, Type (0, 0), BuildingBlock: XIVTED_clean_linker_0, # of connection points: 2
#     Edge 233, Type (0, 0), BuildingBlock: XIVTED_clean_linker_0, # of connection points: 2
#     Edge 234, Type (0, 0), BuildingBlock: XIVTED_clean_linker_0, # of connection points: 2
#     Edge 235, Type (0, 0), BuildingBlock: XIVTED_clean_linker_0, # of connection points: 2
#     Edge 236, Type (0, 0), BuildingBlock: XIVTED_clean_linker_0, # of connection points: 2
#     Edge 237, Type (0, 0), BuildingBlock: XIVTED_clean_linker_0, # of connection points: 2
#     Edge 238, Type (0, 0), BuildingBlock: XIVTED_clean_linker_0, # of connection points: 2
#     Edge 239, Type (0, 0), BuildingBlock: XIVTED_clean_linker_0, # of connection points: 2
#     Edge 240, Type (0, 0), BuildingBlock: XIVTED_clean_linker_0, # of connection points: 2
#     Edge 241, Type (0, 0), BuildingBlock: XIVTED_clean_linker_0, # of connection points: 2
#     Edge 242, Type (0, 0), BuildingBlock: XIVTED_clean_linker_0, # of connection points: 2
#     Edge 243, Type (0, 0), BuildingBlock: XIVTED_clean_linker_0, # of connection points: 2
#     Edge 244, Type (0, 0), BuildingBlock: XIVTED_clean_linker_0, # of connection points: 2
#     Edge 245, Type (0, 0), BuildingBlock: XIVTED_clean_linker_0, # of connection points: 2
#     Edge 246, Type (0, 0), BuildingBlock: XIVTED_clean_linker_0, # of connection points: 2
#     Edge 247, Type (0, 0), BuildingBlock: XIVTED_clean_linker_0, # of connection points: 2
#     Edge 248, Type (0, 0), BuildingBlock: XIVTED_clean_linker_0, # of connection points: 2
#     Edge 249, Type (0, 0), BuildingBlock: XIVTED_clean_linker_0, # of connection points: 2
#     Edge 250, Type (0, 0), BuildingBlock: XIVTED_clean_linker_0, # of connection points: 2
#     Edge 251, Type (0, 0), BuildingBlock: XIVTED_clean_linker_0, # of connection points: 2
#     Edge 252, Type (0, 0), BuildingBlock: XIVTED_clean_linker_0, # of connection points: 2
#     Edge 253, Type (0, 0), BuildingBlock: XIVTED_clean_linker_0, # of connection points: 2
#     Edge 254, Type (0, 0), BuildingBlock: XIVTED_clean_linker_0, # of connection points: 2
#     Edge 255, Type (0, 0), BuildingBlock: XIVTED_clean_linker_0, # of connection points: 2
#     Edge 256, Type (0, 0), BuildingBlock: XIVTED_clean_linker_0, # of connection points: 2
#     Edge 257, Type (0, 0), BuildingBlock: XIVTED_clean_linker_0, # of connection points: 2
#     Edge 258, Type (0, 0), BuildingBlock: XIVTED_clean_linker_0, # of connection points: 2
#     Edge 259, Type (0, 0), BuildingBlock: XIVTED_clean_linker_0, # of connection points: 2
#     Edge 260, Type (0, 0), BuildingBlock: XIVTED_clean_linker_0, # of connection points: 2
#     Edge 261, Type (0, 0), BuildingBlock: XIVTED_clean_linker_0, # of connection points: 2
#     Edge 262, Type (0, 0), BuildingBlock: XIVTED_clean_linker_0, # of connection points: 2
#     Edge 263, Type (0, 0), BuildingBlock: XIVTED_clean_linker_0, # of connection points: 2
#     Edge 264, Type (0, 0), BuildingBlock: XIVTED_clean_linker_0, # of connection points: 2
#     Edge 265, Type (0, 0), BuildingBlock: XIVTED_clean_linker_0, # of connection points: 2
#     Edge 266, Type (0, 0), BuildingBlock: XIVTED_clean_linker_0, # of connection points: 2
#     Edge 267, Type (0, 0), BuildingBlock: XIVTED_clean_linker_0, # of connection points: 2
#     Edge 268, Type (0, 0), BuildingBlock: XIVTED_clean_linker_0, # of connection points: 2
#     Edge 269, Type (0, 0), BuildingBlock: XIVTED_clean_linker_0, # of connection points: 2
#     Edge 270, Type (0, 0), BuildingBlock: XIVTED_clean_linker_0, # of connection points: 2
#     Edge 271, Type (0, 0), BuildingBlock: XIVTED_clean_linker_0, # of connection points: 2
#     Edge 272, Type (0, 0), BuildingBlock: XIVTED_clean_linker_0, # of connection points: 2
#     Edge 273, Type (0, 0), BuildingBlock: XIVTED_clean_linker_0, # of connection points: 2
#     Edge 274, Type (0, 0), BuildingBlock: XIVTED_clean_linker_0, # of connection points: 2
#     Edge 275, Type (0, 0), BuildingBlock: XIVTED_clean_linker_0, # of connection points: 2
#     Edge 276, Type (0, 0), BuildingBlock: XIVTED_clean_linker_0, # of connection points: 2
#     Edge 277, Type (0, 0), BuildingBlock: XIVTED_clean_linker_0, # of connection points: 2
#     Edge 278, Type (0, 0), BuildingBlock: XIVTED_clean_linker_0, # of connection points: 2
#     Edge 279, Type (0, 0), BuildingBlock: XIVTED_clean_linker_0, # of connection points: 2
#     Edge 280, Type (0, 0), BuildingBlock: XIVTED_clean_linker_0, # of connection points: 2
#     Edge 281, Type (0, 0), BuildingBlock: XIVTED_clean_linker_0, # of connection points: 2
#     Edge 282, Type (0, 0), BuildingBlock: XIVTED_clean_linker_0, # of connection points: 2
#     Edge 283, Type (0, 0), BuildingBlock: XIVTED_clean_linker_0, # of connection points: 2
#     Edge 284, Type (0, 0), BuildingBlock: XIVTED_clean_linker_0, # of connection points: 2
#     Edge 285, Type (0, 0), BuildingBlock: XIVTED_clean_linker_0, # of connection points: 2
#     Edge 286, Type (0, 0), BuildingBlock: XIVTED_clean_linker_0, # of connection points: 2
#     Edge 287, Type (0, 0), BuildingBlock: XIVTED_clean_linker_0, # of connection points: 2
# Relax obj value: 0.113
# Max RMSD: 0.164
# Mean RMSD: 0.164
data_MOF--net-ulh--node1-GALJAG_clean_sbu_0--edge1-XIVTED_clean_linker_0
_symmetry_space_group_name_H-M    P1
_symmetry_Int_Tables_number       1
_symmetry_cell_setting            triclinic
loop_
_symmetry_equiv_pos_as_xyz
'x, y, z'
_cell_length_a     80.610913
_cell_length_b     80.616351
_cell_length_c     80.615355
_cell_angle_alpha  90.003369
_cell_angle_beta   90.000946
_cell_angle_gamma 90.000507
loop_
_atom_site_label
_atom_site_type_symbol
_atom_site_fract_x
_atom_site_fract_y
_atom_site_fract_z
_atom_type_partial_charge
In0 In 0.05267 0.30715 0.0798 0.0
O1 O 0.05603 0.27916 0.08512 0.0
O2 O 0.03945 0.29337 0.10003 0.0
C3 C 0.08087 0.31773 0.06511 0.0
C4 C 0.0305 0.30533 0.05494 0.0
C5 C 0.05166 0.32938 0.10463 0.0
O6 O 0.08092 0.30613 0.07566 0.0
O7 O 0.0667 0.3232 0.06155 0.0
O8 O 0.04032 0.32849 0.09382 0.0
O9 O 0.06342 0.31921 0.10274 0.0
C10 C 0.04599 0.27948 0.09719 0.0
O11 O 0.03135 0.31766 0.06459 0.0
O12 O 0.04061 0.29378 0.05805 0.0
In13 In 0.94137 0.30038 0.32834 0.0
O14 O 0.96924 0.30352 0.3343 0.0
O15 O 0.95473 0.28646 0.34837 0.0
C16 C 0.93188 0.32877 0.31335 0.0
C17 C 0.94299 0.27852 0.30315 0.0
C18 C 0.91923 0.29985 0.35332 0.0
O19 O 0.94375 0.32845 0.32359 0.0
O20 O 0.92544 0.31486 0.3104 0.0
O21 O 0.92011 0.2883 0.34273 0.0
O22 O 0.92927 0.31165 0.35106 0.0
C23 C 0.96866 0.29311 0.34604 0.0
O24 O 0.93039 0.27981 0.31237 0.0
O25 O 0.95491 0.28798 0.30688 0.0
In26 In 0.95128 0.19446 0.58048 0.0
O27 O 0.9483 0.22235 0.58628 0.0
O28 O 0.96556 0.20793 0.6002 0.0
C29 C 0.92286 0.18484 0.56562 0.0
C30 C 0.9732 0.19547 0.55531 0.0
C31 C 0.95094 0.17251 0.60561 0.0
O32 O 0.92321 0.19682 0.57574 0.0
O33 O 0.93677 0.17844 0.56262 0.0
O34 O 0.96252 0.17281 0.59501 0.0
O35 O 0.93964 0.18311 0.60335 0.0
C36 C 0.95886 0.22186 0.5979 0.0
O37 O 0.97212 0.18323 0.56504 0.0
O38 O 0.96352 0.20735 0.55853 0.0
In39 In 0.05768 0.19908 0.83009 0.0
O40 O 0.0297 0.19664 0.8357 0.0
O41 O 0.04473 0.21206 0.85105 0.0
C42 C 0.06567 0.17055 0.81446 0.0
C43 C 0.05665 0.222 0.8058 0.0
C44 C 0.08058 0.19864 0.85442 0.0
O45 O 0.05458 0.1711 0.82551 0.0
O46 O 0.07203 0.18436 0.81094 0.0
O47 O 0.07951 0.21051 0.84421 0.0
O48 O 0.0703 0.18706 0.85215 0.0
C49 C 0.03056 0.20615 0.84816 0.0
O50 O 0.06938 0.21964 0.81464 0.0
O51 O 0.04434 0.21303 0.80944 0.0
In52 In 0.05206 0.69483 0.92116 0.0
O53 O 0.03253 0.6848 0.93883 0.0
O54 O 0.04679 0.70572 0.94669 0.0
C55 C 0.04767 0.67501 0.89445 0.0
C56 C 0.04194 0.72431 0.90935 0.0
C57 C 0.0813 0.68311 0.93236 0.0
O58 O 0.03909 0.67353 0.90747 0.0
O59 O 0.05809 0.68664 0.89483 0.0
O60 O 0.08037 0.69677 0.92469 0.0
O61 O 0.06764 0.67588 0.93455 0.0
C62 C 0.03548 0.69537 0.95006 0.0
O63 O 0.0572 0.72085 0.91051 0.0
O64 O 0.03217 0.71305 0.91408 0.0
In65 In 0.5532 0.30516 0.17049 0.0
O66 O 0.52494 0.30619 0.16522 0.0
O67 O 0.54079 0.29342 0.14844 0.0
C68 C 0.56109 0.33375 0.18629 0.0
C69 C 0.55259 0.28168 0.1943 0.0
C70 C 0.5767 0.30501 0.14676 0.0
O71 O 0.55039 0.33332 0.17484 0.0
O72 O 0.56702 0.31984 0.19009 0.0
O73 O 0.57505 0.29323 0.15699 0.0
O74 O 0.56669 0.3169 0.14871 0.0
C75 C 0.52627 0.2979 0.15196 0.0
O76 O 0.56514 0.28429 0.1853 0.0
O77 O 0.5402 0.29072 0.1911 0.0
In78 In 0.94664 0.80487 0.4226 0.0
O79 O 0.97033 0.80989 0.43706 0.0
O80 O 0.95009 0.79842 0.44979 0.0
C81 C 0.95295 0.82168 0.39427 0.0
C82 C 0.95026 0.77343 0.41177 0.0
C83 C 0.92031 0.82165 0.4344 0.0
O84 O 0.96175 0.82347 0.40712 0.0
O85 O 0.94133 0.81135 0.39574 0.0
O86 O 0.91937 0.80637 0.43092 0.0
O87 O 0.9343 0.82814 0.43188 0.0
C88 C 0.96476 0.80395 0.4505 0.0
O89 O 0.93665 0.78109 0.41039 0.0
O90 O 0.96157 0.78139 0.41901 0.0
In91 In 0.44619 0.19308 0.66992 0.0
O92 O 0.43418 0.21413 0.68464 0.0
O93 O 0.45887 0.20721 0.69088 0.0
C94 C 0.42435 0.19521 0.64476 0.0
C95 C 0.47527 0.19846 0.65425 0.0
C96 C 0.43611 0.16462 0.68469 0.0
O97 O 0.42609 0.20671 0.65529 0.0
O98 O 0.43356 0.18275 0.647 0.0
O99 O 0.44743 0.16477 0.67387 0.0
O100 O 0.43059 0.17872 0.68842 0.0
C101 C 0.44659 0.21644 0.69392 0.0
O102 O 0.47464 0.19105 0.66805 0.0
O103 O 0.46145 0.20292 0.64853 0.0
In104 In 0.07877 0.05078 0.30437 0.0
O105 O 0.08292 0.05426 0.27628 0.0
O106 O 0.0991 0.03825 0.28967 0.0
C107 C 0.0642 0.07923 0.31455 0.0
C108 C 0.05331 0.02899 0.30313 0.0
C109 C 0.10414 0.04947 0.32607 0.0
O110 O 0.07424 0.07894 0.30251 0.0
O111 O 0.06132 0.06528 0.32093 0.0
O112 O 0.09369 0.03782 0.32476 0.0
O113 O 0.10159 0.0617 0.31663 0.0
C114 C 0.09536 0.04471 0.27595 0.0
O115 O 0.06313 0.02976 0.31532 0.0
O116 O 0.05664 0.03884 0.29142 0.0
In117 In 0.19725 0.32853 0.5579 0.0
O118 O 0.21703 0.31158 0.56876 0.0
O119 O 0.20498 0.30401 0.54639 0.0
C120 C 0.20038 0.35565 0.57744 0.0
C121 C 0.20692 0.34056 0.52839 0.0
C122 C 0.16875 0.31471 0.56861 0.0
O123 O 0.21014 0.34345 0.57842 0.0
O124 O 0.18922 0.35418 0.56661 0.0
O125 O 0.16939 0.32274 0.55515 0.0
O126 O 0.1823 0.31372 0.5763 0.0
C127 C 0.21568 0.3008 0.55742 0.0
O128 O 0.1917 0.33906 0.53189 0.0
O129 O 0.21685 0.33619 0.53964 0.0
In130 In 0.92096 0.44729 0.80438 0.0
O131 O 0.91644 0.44225 0.77645 0.0
O132 O 0.90115 0.45965 0.78909 0.0
C133 C 0.93418 0.41931 0.81698 0.0
C134 C 0.94716 0.46789 0.80128 0.0
C135 C 0.89637 0.44973 0.82684 0.0
O136 O 0.92501 0.41909 0.80425 0.0
O137 O 0.93676 0.43351 0.82297 0.0
O138 O 0.90819 0.46006 0.82631 0.0
O139 O 0.89716 0.43824 0.81623 0.0
C140 C 0.90441 0.45227 0.77575 0.0
O141 O 0.9344 0.47184 0.80948 0.0
O142 O 0.94647 0.45385 0.79442 0.0
In143 In 0.80379 0.16909 0.05693 0.0
O144 O 0.7833 0.18473 0.06859 0.0
O145 O 0.78971 0.18959 0.04345 0.0
C146 C 0.8046 0.14567 0.08078 0.0
C147 C 0.79584 0.15023 0.03051 0.0
C148 C 0.83257 0.18493 0.0637 0.0
O149 O 0.79281 0.15597 0.07959 0.0
O150 O 0.81594 0.1474 0.07012 0.0
O151 O 0.83179 0.17334 0.05318 0.0
O152 O 0.81888 0.18879 0.0701 0.0
C153 C 0.78086 0.19343 0.05579 0.0
O154 O 0.80495 0.16291 0.02895 0.0
O155 O 0.7908 0.14745 0.04503 0.0
In156 In 0.07403 0.94674 0.69035 0.0
O157 O 0.0572 0.96734 0.68085 0.0
O158 O 0.04794 0.95129 0.69983 0.0
C159 C 0.1028 0.95219 0.67412 0.0
C160 C 0.08427 0.9539 0.72123 0.0
C161 C 0.06218 0.91985 0.67453 0.0
O162 O 0.09057 0.96194 0.6729 0.0
O163 O 0.10047 0.93993 0.68355 0.0
O164 O 0.06621 0.9192 0.68971 0.0
O165 O 0.06435 0.93374 0.66773 0.0
C166 C 0.04526 0.96348 0.69032 0.0
O167 O 0.08468 0.93916 0.71581 0.0
O168 O 0.07866 0.96454 0.71125 0.0
In169 In 0.30335 0.3246 0.94251 0.0
O170 O 0.30739 0.33545 0.96867 0.0
O171 O 0.28273 0.33208 0.95964 0.0
C172 C 0.33233 0.31227 0.93146 0.0
C173 C 0.2868 0.29572 0.9428 0.0
C174 C 0.3001 0.3517 0.92309 0.0
O175 O 0.3314 0.3196 0.94533 0.0
O176 O 0.31887 0.31126 0.92361 0.0
O177 O 0.29079 0.33918 0.92157 0.0
O178 O 0.31083 0.35052 0.93439 0.0
C179 C 0.29197 0.33687 0.97131 0.0
O180 O 0.28437 0.30669 0.93183 0.0
O181 O 0.29749 0.2994 0.95369 0.0
In182 In 0.92363 0.55174 0.19327 0.0
O183 O 0.94133 0.53223 0.18317 0.0
O184 O 0.94925 0.5467 0.20391 0.0
C185 C 0.89643 0.54766 0.17409 0.0
C186 C 0.9118 0.54216 0.22291 0.0
C187 C 0.93515 0.58056 0.18102 0.0
O188 O 0.90898 0.53835 0.17285 0.0
O189 O 0.89756 0.55866 0.18512 0.0
O190 O 0.92822 0.57986 0.19509 0.0
O191 O 0.93633 0.56689 0.17357 0.0
C192 C 0.95266 0.53539 0.19357 0.0
O193 O 0.91299 0.55735 0.21915 0.0
O194 O 0.91661 0.53217 0.21188 0.0
In195 In 0.69237 0.17498 0.44338 0.0
O196 O 0.6884 0.16439 0.46968 0.0
O197 O 0.71303 0.16819 0.46073 0.0
C198 C 0.66304 0.18658 0.43237 0.0
C199 C 0.70887 0.20385 0.44359 0.0
C200 C 0.69661 0.1483 0.42355 0.0
O201 O 0.66404 0.1785 0.4458 0.0
O202 O 0.67661 0.18882 0.42502 0.0
O203 O 0.70522 0.16129 0.4221 0.0
O204 O 0.68609 0.14871 0.4351 0.0
C205 C 0.70383 0.16346 0.47244 0.0
O206 O 0.71128 0.19283 0.43267 0.0
O207 O 0.69808 0.20029 0.45444 0.0
In208 In 0.30627 0.0746 0.05442 0.0
O209 O 0.28061 0.0857 0.06096 0.0
O210 O 0.28593 0.07914 0.03594 0.0
C211 C 0.31985 0.06283 0.08252 0.0
C212 C 0.30606 0.0461 0.03718 0.0
C213 C 0.32498 0.10207 0.04979 0.0
O214 O 0.30522 0.06856 0.08233 0.0
O215 O 0.32725 0.06311 0.06876 0.0
O216 O 0.32706 0.08899 0.04141 0.0
O217 O 0.31333 0.10134 0.06017 0.0
C218 C 0.27565 0.08503 0.04609 0.0
O219 O 0.31297 0.05915 0.0318 0.0
O220 O 0.29931 0.04745 0.05129 0.0
In221 In 0.80385 0.92298 0.44324 0.0
O222 O 0.81477 0.94092 0.46196 0.0
O223 O 0.79279 0.94827 0.44904 0.0
C224 C 0.82624 0.89906 0.45065 0.0
C225 C 0.7742 0.91181 0.45377 0.0
C226 C 0.81315 0.93084 0.41186 0.0
O227 O 0.82876 0.91418 0.45375 0.0
O228 O 0.81232 0.89601 0.4443 0.0
O229 O 0.80546 0.91764 0.41519 0.0
O230 O 0.81512 0.94034 0.42405 0.0
C231 C 0.80379 0.95192 0.45965 0.0
O232 O 0.77735 0.91323 0.43847 0.0
O233 O 0.7858 0.91599 0.46336 0.0
In234 In 0.32728 0.05538 0.69575 0.0
O235 O 0.30897 0.06628 0.71425 0.0
O236 O 0.3021 0.0441 0.70144 0.0
C237 C 0.35419 0.07503 0.69953 0.0
C238 C 0.33904 0.02645 0.70735 0.0
C239 C 0.31538 0.06594 0.6664 0.0
O240 O 0.34156 0.07631 0.7087 0.0
O241 O 0.35324 0.06384 0.68866 0.0
O242 O 0.32317 0.05236 0.6676 0.0
O243 O 0.31372 0.07379 0.67979 0.0
C244 C 0.29816 0.05513 0.71189 0.0
O245 O 0.33777 0.02906 0.69191 0.0
O246 O 0.33451 0.03829 0.7165 0.0
In247 In 0.19716 0.57952 0.93975 0.0
O248 O 0.18614 0.5644 0.96102 0.0
O249 O 0.20996 0.55747 0.95205 0.0
C250 C 0.17468 0.6041 0.94181 0.0
C251 C 0.22553 0.59625 0.94585 0.0
C252 C 0.18708 0.56506 0.91117 0.0
O253 O 0.17652 0.59348 0.95322 0.0
O254 O 0.18407 0.60219 0.92942 0.0
O255 O 0.19854 0.57575 0.91142 0.0
O256 O 0.18135 0.56141 0.92521 0.0
C257 C 0.19823 0.55448 0.96198 0.0
O258 O 0.22546 0.58311 0.9373 0.0
O259 O 0.21155 0.6007 0.95117 0.0
In260 In 0.16976 0.94716 0.19187 0.0
O261 O 0.14902 0.96187 0.20357 0.0
O262 O 0.16646 0.9755 0.18919 0.0
C263 C 0.18455 0.93638 0.16374 0.0
C264 C 0.19472 0.94823 0.21416 0.0
C265 C 0.14422 0.92573 0.19346 0.0
O266 O 0.17434 0.94829 0.16362 0.0
O267 O 0.18751 0.93053 0.17789 0.0
O268 O 0.14683 0.93498 0.18109 0.0
O269 O 0.15471 0.92707 0.20507 0.0
C270 C 0.15351 0.97575 0.19804 0.0
O271 O 0.18486 0.93608 0.21316 0.0
O272 O 0.1917 0.95996 0.20424 0.0
In273 In 0.69513 0.91629 0.05174 0.0
O274 O 0.72321 0.91345 0.05674 0.0
O275 O 0.71172 0.89767 0.03899 0.0
C276 C 0.68147 0.9287 0.07959 0.0
C277 C 0.69649 0.94322 0.0319 0.0
C278 C 0.67425 0.89038 0.0496 0.0
O279 O 0.69493 0.92062 0.07992 0.0
O280 O 0.67526 0.93056 0.06537 0.0
O281 O 0.67416 0.90201 0.03903 0.0
O282 O 0.6848 0.89194 0.06108 0.0
C283 C 0.72479 0.90169 0.04649 0.0
O284 O 0.68904 0.93011 0.02757 0.0
O285 O 0.70355 0.94244 0.04583 0.0
In286 In 0.3276 0.4477 0.80631 0.0
O287 O 0.31424 0.44347 0.78164 0.0
O288 O 0.30232 0.45841 0.79987 0.0
C289 C 0.35167 0.42466 0.80429 0.0
C290 C 0.34512 0.47562 0.80098 0.0
C291 C 0.31405 0.43476 0.83396 0.0
O292 O 0.33965 0.42503 0.79418 0.0
O293 O 0.35139 0.43579 0.8153 0.0
O294 O 0.32341 0.44736 0.83452 0.0
O295 O 0.3113 0.42924 0.8196 0.0
C296 C 0.30164 0.4519 0.78565 0.0
O297 O 0.33361 0.4753 0.81164 0.0
O298 O 0.34735 0.46228 0.79321 0.0
In299 In 0.6717 0.05354 0.30358 0.0
O300 O 0.68737 0.05879 0.28069 0.0
O301 O 0.69906 0.04694 0.30133 0.0
C302 C 0.64445 0.07211 0.29721 0.0
C303 C 0.66116 0.02238 0.29751 0.0
C304 C 0.68282 0.0686 0.3312 0.0
O305 O 0.65771 0.07361 0.28901 0.0
O306 O 0.64488 0.06105 0.30824 0.0
O307 O 0.67743 0.05385 0.33156 0.0
O308 O 0.68257 0.07539 0.31712 0.0
C309 C 0.70049 0.05267 0.28678 0.0
O310 O 0.65988 0.02874 0.31178 0.0
O311 O 0.66781 0.03156 0.28678 0.0
In312 In 0.05596 0.80064 0.57884 0.0
O313 O 0.06038 0.78152 0.59942 0.0
O314 O 0.0509 0.7728 0.57657 0.0
C315 C 0.08657 0.81207 0.57066 0.0
C316 C 0.03535 0.7988 0.5527 0.0
C317 C 0.04469 0.82441 0.59974 0.0
O318 O 0.08407 0.80364 0.58358 0.0
O319 O 0.07399 0.81381 0.56166 0.0
O320 O 0.04873 0.82731 0.58494 0.0
O321 O 0.04545 0.80935 0.60379 0.0
C322 C 0.05495 0.76936 0.59126 0.0
O323 O 0.0303 0.80322 0.56691 0.0
O324 O 0.05051 0.7949 0.55196 0.0
In325 In 0.94513 0.80302 0.82351 0.0
O326 O 0.97245 0.8065 0.83164 0.0
O327 O 0.958 0.78704 0.84223 0.0
C328 C 0.93454 0.83198 0.8109 0.0
C329 C 0.94897 0.78356 0.79663 0.0
C330 C 0.92164 0.80241 0.84722 0.0
O331 O 0.94707 0.83122 0.82034 0.0
O332 O 0.92796 0.8182 0.8075 0.0
O333 O 0.92115 0.7927 0.83486 0.0
O334 O 0.93381 0.81224 0.84742 0.0
C335 C 0.97166 0.79459 0.84185 0.0
O336 O 0.93965 0.77955 0.8086 0.0
O337 O 0.95648 0.79719 0.79838 0.0
In338 In 0.94571 0.69761 0.07917 0.0
O339 O 0.94383 0.7259 0.08291 0.0
O340 O 0.95681 0.71152 0.10083 0.0
C341 C 0.91674 0.68874 0.06464 0.0
C342 C 0.96845 0.69836 0.05458 0.0
C343 C 0.94744 0.67471 0.10339 0.0
O344 O 0.91741 0.69977 0.07574 0.0
O345 O 0.9306 0.68291 0.06051 0.0
O346 O 0.95893 0.6766 0.09287 0.0
O347 O 0.93517 0.68426 0.10157 0.0
C348 C 0.95192 0.72565 0.09634 0.0
O349 O 0.96627 0.6858 0.06369 0.0
O350 O 0.95943 0.71066 0.05811 0.0
In351 In 0.0538 0.70246 0.33322 0.0
O352 O 0.0289 0.69427 0.34429 0.0
O353 O 0.03315 0.72007 0.3405 0.0
C354 C 0.06681 0.67461 0.32006 0.0
C355 C 0.05287 0.7205 0.30521 0.0
C356 C 0.07284 0.70648 0.36063 0.0
O357 O 0.05259 0.67471 0.32666 0.0
O358 O 0.07414 0.68839 0.32003 0.0
O359 O 0.07348 0.71641 0.34853 0.0
O360 O 0.0625 0.69491 0.35896 0.0
C361 C 0.02342 0.7089 0.34552 0.0
O362 O 0.06314 0.7234 0.31673 0.0
O363 O 0.04297 0.70864 0.30793 0.0
In364 In 0.05128 0.19127 0.41877 0.0
O365 O 0.03212 0.18138 0.43694 0.0
O366 O 0.04677 0.20221 0.44434 0.0
C367 C 0.04631 0.17206 0.39175 0.0
C368 C 0.04162 0.22111 0.4076 0.0
C369 C 0.08008 0.17873 0.43001 0.0
O370 O 0.03724 0.17104 0.4045 0.0
O371 O 0.05751 0.18291 0.39259 0.0
O372 O 0.07955 0.19264 0.42275 0.0
O373 O 0.06629 0.17159 0.4316 0.0
C374 C 0.03549 0.19195 0.44806 0.0
O375 O 0.05682 0.21723 0.40818 0.0
O376 O 0.03169 0.21007 0.41248 0.0
In377 In 0.55369 0.8073 0.66433 0.0
O378 O 0.55837 0.78226 0.67674 0.0
O379 O 0.55192 0.80302 0.69197 0.0
C380 C 0.57216 0.80043 0.63712 0.0
C381 C 0.52162 0.80302 0.65479 0.0
C382 C 0.56767 0.83512 0.67658 0.0
O383 O 0.56219 0.81242 0.63796 0.0
O384 O 0.57268 0.79151 0.64999 0.0
O385 O 0.55261 0.83487 0.67217 0.0
O386 O 0.57533 0.82168 0.67453 0.0
C387 C 0.55568 0.7878 0.69122 0.0
O388 O 0.53107 0.81327 0.64773 0.0
O389 O 0.52807 0.79577 0.66697 0.0
In390 In 0.94734 0.30654 0.92149 0.0
O391 O 0.96705 0.31679 0.93876 0.0
O392 O 0.95311 0.2957 0.94684 0.0
C393 C 0.95136 0.32596 0.89446 0.0
C394 C 0.95691 0.27672 0.91027 0.0
C395 C 0.91876 0.31866 0.93373 0.0
O396 O 0.96058 0.32715 0.90706 0.0
O397 O 0.94045 0.31482 0.89542 0.0
O398 O 0.91908 0.30523 0.92562 0.0
O399 O 0.93265 0.32551 0.9357 0.0
C400 C 0.96435 0.30619 0.95004 0.0
O401 O 0.9417 0.28033 0.9116 0.0
O402 O 0.96689 0.28802 0.91442 0.0
In403 In 0.44055 0.69608 0.17158 0.0
O404 O 0.42957 0.71591 0.18836 0.0
O405 O 0.45186 0.70386 0.19618 0.0
C406 C 0.42116 0.6983 0.14434 0.0
C407 C 0.46973 0.70656 0.15944 0.0
C408 C 0.42953 0.66764 0.18527 0.0
O409 O 0.4197 0.70809 0.15649 0.0
O410 O 0.43246 0.68761 0.14591 0.0
O411 O 0.44312 0.66818 0.17743 0.0
O412 O 0.42196 0.68126 0.18621 0.0
C413 C 0.4408 0.71457 0.19925 0.0
O414 O 0.46701 0.69128 0.16183 0.0
O415 O 0.45787 0.7161 0.16302 0.0
In416 In 0.07891 0.55433 0.8024 0.0
O417 O 0.06399 0.5311 0.80823 0.0
O418 O 0.05168 0.55103 0.79581 0.0
C419 C 0.10641 0.54915 0.82094 0.0
C420 C 0.08983 0.54805 0.77138 0.0
C421 C 0.0667 0.58176 0.81704 0.0
O422 O 0.09351 0.5404 0.8225 0.0
O423 O 0.10546 0.56017 0.80991 0.0
O424 O 0.07193 0.58205 0.80223 0.0
O425 O 0.06772 0.56786 0.82412 0.0
C426 C 0.05069 0.53662 0.80195 0.0
O427 O 0.09061 0.56246 0.77751 0.0
O428 O 0.0834 0.53729 0.78068 0.0
In429 In 0.19689 0.82665 0.05699 0.0
O430 O 0.1887 0.83724 0.03166 0.0
O431 O 0.21409 0.83103 0.03541 0.0
C432 C 0.16913 0.81569 0.07187 0.0
C433 C 0.21413 0.79812 0.05658 0.0
C434 C 0.20232 0.8545 0.07494 0.0
O435 O 0.16896 0.821 0.0571 0.0
O436 O 0.18316 0.81581 0.07878 0.0
O437 O 0.21067 0.84142 0.07711 0.0
O438 O 0.19167 0.85357 0.06357 0.0
C439 C 0.20321 0.83669 0.02574 0.0
O440 O 0.21984 0.81134 0.06287 0.0
O441 O 0.1997 0.79931 0.05053 0.0
In442 In 0.92466 0.93794 0.30233 0.0
O443 O 0.90367 0.95031 0.28854 0.0
O444 O 0.92024 0.93563 0.27412 0.0
C445 C 0.94025 0.90981 0.31176 0.0
C446 C 0.9495 0.96038 0.30146 0.0
C447 C 0.89954 0.93754 0.32433 0.0
O448 O 0.92971 0.90988 0.30013 0.0
O449 O 0.94319 0.92383 0.31795 0.0
O450 O 0.90292 0.92544 0.31498 0.0
O451 O 0.90908 0.94994 0.32282 0.0
C452 C 0.90748 0.94477 0.27445 0.0
O453 O 0.94002 0.95886 0.31386 0.0
O454 O 0.94613 0.95094 0.28943 0.0
In455 In 0.80518 0.6748 0.55721 0.0
O456 O 0.80734 0.66403 0.53076 0.0
O457 O 0.78351 0.6662 0.54213 0.0
C458 C 0.83513 0.68612 0.56679 0.0
C459 C 0.78871 0.70367 0.55605 0.0
C460 C 0.80221 0.64896 0.57827 0.0
O461 O 0.83354 0.67711 0.55401 0.0
O462 O 0.82178 0.68959 0.57408 0.0
O463 O 0.79399 0.66218 0.58005 0.0
O464 O 0.81164 0.64875 0.56581 0.0
C465 C 0.7918 0.66195 0.52958 0.0
O466 O 0.78667 0.69325 0.56762 0.0
O467 O 0.79918 0.69955 0.54509 0.0
In468 In 0.08348 0.44863 0.19464 0.0
O469 O 0.08544 0.44512 0.22286 0.0
O470 O 0.10428 0.45883 0.21041 0.0
C471 C 0.06845 0.42043 0.18455 0.0
C472 C 0.05919 0.47168 0.19524 0.0
C473 C 0.10913 0.45028 0.17328 0.0
O474 O 0.07905 0.4205 0.19607 0.0
O475 O 0.06513 0.4345 0.17871 0.0
O476 O 0.09908 0.46219 0.17515 0.0
O477 O 0.10612 0.43769 0.18207 0.0
C478 C 0.09885 0.45316 0.22392 0.0
O479 O 0.06816 0.46927 0.18262 0.0
O480 O 0.06278 0.46282 0.20762 0.0
In481 In 0.30292 0.83066 0.44485 0.0
O482 O 0.30684 0.84123 0.47117 0.0
O483 O 0.28223 0.83808 0.46197 0.0
C484 C 0.33215 0.81797 0.4348 0.0
C485 C 0.28601 0.80198 0.44484 0.0
C486 C 0.29957 0.85735 0.42478 0.0
O487 O 0.33102 0.82623 0.44811 0.0
O488 O 0.31876 0.81625 0.42697 0.0
O489 O 0.29022 0.84482 0.42372 0.0
O490 O 0.31043 0.85642 0.43598 0.0
C491 C 0.29142 0.84257 0.4738 0.0
O492 O 0.2841 0.81288 0.43371 0.0
O493 O 0.29644 0.80559 0.45601 0.0
In494 In 0.91609 0.0525 0.69353 0.0
O495 O 0.93133 0.0323 0.68079 0.0
O496 O 0.93613 0.03715 0.70628 0.0
C497 C 0.89098 0.05113 0.67153 0.0
C498 C 0.90031 0.04788 0.72263 0.0
C499 C 0.93171 0.08075 0.68436 0.0
O500 O 0.90067 0.03901 0.67386 0.0
O501 O 0.89407 0.06379 0.68019 0.0
O502 O 0.92033 0.08069 0.6951 0.0
O503 O 0.93551 0.06665 0.67889 0.0
C504 C 0.93991 0.02898 0.69347 0.0
O505 O 0.91407 0.05536 0.72185 0.0
O506 O 0.89476 0.04281 0.70893 0.0
In507 In 0.69837 0.67315 0.94304 0.0
O508 O 0.72202 0.68792 0.93815 0.0
O509 O 0.70384 0.69837 0.95429 0.0
C510 C 0.70044 0.64942 0.91969 0.0
C511 C 0.70562 0.65586 0.97062 0.0
C512 C 0.67015 0.68584 0.93055 0.0
O513 O 0.70982 0.66203 0.91951 0.0
O514 O 0.69028 0.64889 0.93158 0.0
O515 O 0.66991 0.67543 0.94231 0.0
O516 O 0.68441 0.69009 0.92579 0.0
C517 C 0.71767 0.70004 0.94712 0.0
O518 O 0.69381 0.66622 0.97054 0.0
O519 O 0.71355 0.6547 0.95722 0.0
In520 In 0.30463 0.57957 0.55578 0.0
O521 O 0.27843 0.59034 0.55978 0.0
O522 O 0.28752 0.58716 0.53514 0.0
C523 C 0.31506 0.5669 0.58488 0.0
C524 C 0.30464 0.55085 0.53894 0.0
C525 C 0.32434 0.60652 0.55274 0.0
O526 O 0.30139 0.57455 0.58378 0.0
O527 O 0.32306 0.56576 0.57152 0.0
O528 O 0.32557 0.59414 0.54322 0.0
O529 O 0.31317 0.60529 0.5636 0.0
C530 C 0.27579 0.59181 0.54437 0.0
O531 O 0.31573 0.56178 0.53691 0.0
O532 O 0.29349 0.55448 0.54938 0.0
In533 In 0.80554 0.42448 0.9468 0.0
O534 O 0.81669 0.4397 0.96777 0.0
O535 O 0.79263 0.44643 0.95916 0.0
C536 C 0.82772 0.3996 0.94684 0.0
C537 C 0.77865 0.40631 0.95442 0.0
C538 C 0.81532 0.43904 0.91825 0.0
O539 O 0.82716 0.41028 0.95833 0.0
O540 O 0.8173 0.40169 0.93535 0.0
O541 O 0.8032 0.42909 0.9187 0.0
O542 O 0.8217 0.44213 0.93216 0.0
C543 C 0.80449 0.44946 0.96895 0.0
O544 O 0.77764 0.41818 0.94417 0.0
O545 O 0.79273 0.40421 0.96082 0.0
In546 In 0.32492 0.55588 0.19873 0.0
O547 O 0.33592 0.52987 0.19416 0.0
O548 O 0.33199 0.53812 0.219 0.0
C549 C 0.31353 0.56765 0.16963 0.0
C550 C 0.29572 0.55548 0.21471 0.0
C551 C 0.35183 0.57535 0.20305 0.0
O552 O 0.32059 0.55365 0.17054 0.0
O553 O 0.3122 0.57525 0.1832 0.0
O554 O 0.33917 0.57644 0.21222 0.0
O555 O 0.35094 0.56437 0.19197 0.0
C556 C 0.337 0.52674 0.20952 0.0
O557 O 0.30671 0.56634 0.21752 0.0
O558 O 0.29952 0.54475 0.2039 0.0
In559 In 0.1966 0.07632 0.44398 0.0
O560 O 0.22458 0.08239 0.44167 0.0
O561 O 0.20936 0.09692 0.45765 0.0
C562 C 0.18728 0.06198 0.41516 0.0
C563 C 0.19794 0.05128 0.46605 0.0
C564 C 0.17352 0.1004 0.44458 0.0
O565 O 0.19865 0.07276 0.41572 0.0
O566 O 0.18144 0.05799 0.42907 0.0
O567 O 0.17448 0.08947 0.45581 0.0
O568 O 0.18406 0.09901 0.43309 0.0
C569 C 0.22354 0.09449 0.45161 0.0
O570 O 0.18582 0.06117 0.46518 0.0
O571 O 0.20959 0.05421 0.45598 0.0
In572 In 0.17321 0.45116 0.69467 0.0
O573 O 0.16757 0.47902 0.69021 0.0
O574 O 0.15297 0.46541 0.70749 0.0
C575 C 0.18625 0.43887 0.66644 0.0
C576 C 0.19922 0.45457 0.71545 0.0
C577 C 0.14955 0.42772 0.69668 0.0
O578 O 0.17684 0.45144 0.66636 0.0
O579 O 0.18935 0.43309 0.68063 0.0
O580 O 0.16168 0.42815 0.70664 0.0
O581 O 0.14949 0.439 0.68583 0.0
C582 C 0.15561 0.47902 0.70035 0.0
O583 O 0.18632 0.44658 0.7194 0.0
O584 O 0.1988 0.46111 0.70123 0.0
In585 In 0.6942 0.41893 0.55684 0.0
O586 O 0.72041 0.40884 0.56231 0.0
O587 O 0.71272 0.41214 0.5372 0.0
C588 C 0.68222 0.43213 0.5851 0.0
C589 C 0.6939 0.44696 0.53892 0.0
C590 C 0.67575 0.39116 0.55353 0.0
O591 O 0.69635 0.42528 0.58466 0.0
O592 O 0.67453 0.43222 0.57152 0.0
O593 O 0.67435 0.40334 0.54379 0.0
O594 O 0.68647 0.39299 0.56475 0.0
C595 C 0.72401 0.40773 0.54707 0.0
O596 O 0.68329 0.43556 0.53686 0.0
O597 O 0.70464 0.44419 0.55003 0.0
In598 In 0.32482 0.94603 0.30309 0.0
O599 O 0.30851 0.93583 0.28236 0.0
O600 O 0.30244 0.95955 0.2923 0.0
C601 C 0.34919 0.9232 0.30232 0.0
C602 C 0.34297 0.97284 0.29494 0.0
C603 C 0.31097 0.93652 0.33208 0.0
O604 O 0.3379 0.92368 0.29142 0.0
O605 O 0.34801 0.93407 0.31353 0.0
O606 O 0.32134 0.94826 0.33138 0.0
O607 O 0.30723 0.93031 0.31826 0.0
C608 C 0.29878 0.94813 0.28221 0.0
O609 O 0.33178 0.97371 0.30593 0.0
O610 O 0.34448 0.95888 0.28808 0.0
In611 In 0.67148 0.556 0.79813 0.0
O612 O 0.65826 0.53276 0.80813 0.0
O613 O 0.66811 0.53208 0.7837 0.0
C614 C 0.68291 0.57236 0.82494 0.0
C615 C 0.69975 0.55485 0.78062 0.0
C616 C 0.6442 0.57415 0.79087 0.0
O617 O 0.67877 0.55723 0.82571 0.0
O618 O 0.68129 0.57891 0.81085 0.0
O619 O 0.65735 0.57511 0.7824 0.0
O620 O 0.64477 0.56381 0.80255 0.0
C621 C 0.66017 0.52462 0.79488 0.0
O622 O 0.68631 0.56022 0.77451 0.0
O623 O 0.69883 0.54988 0.79548 0.0
In624 In 0.5555 0.30282 0.58243 0.0
O625 O 0.53514 0.31416 0.56629 0.0
O626 O 0.54326 0.28973 0.56054 0.0
C627 C 0.55357 0.32588 0.60657 0.0
C628 C 0.54864 0.27465 0.59911 0.0
C629 C 0.58465 0.31166 0.56836 0.0
O630 O 0.54239 0.32425 0.59567 0.0
O631 O 0.5656 0.31596 0.60519 0.0
O632 O 0.5839 0.301 0.57981 0.0
O633 O 0.57082 0.31724 0.56381 0.0
C634 C 0.53396 0.30176 0.55679 0.0
O635 O 0.55796 0.27466 0.58651 0.0
O636 O 0.54285 0.28861 0.60306 0.0
In637 In 0.44324 0.30155 0.82626 0.0
O638 O 0.46913 0.30772 0.83676 0.0
O639 O 0.46238 0.28242 0.83302 0.0
C640 C 0.42969 0.32993 0.81489 0.0
C641 C 0.44359 0.28494 0.79738 0.0
C642 C 0.42465 0.29658 0.85368 0.0
O643 O 0.44395 0.32976 0.82149 0.0
O644 O 0.42275 0.31598 0.81391 0.0
O645 O 0.42373 0.28722 0.84115 0.0
O646 O 0.43504 0.30818 0.85241 0.0
C647 C 0.47322 0.2926 0.83784 0.0
O648 O 0.43324 0.28185 0.80878 0.0
O649 O 0.45383 0.2964 0.80059 0.0
In650 In 0.44508 0.19377 0.07762 0.0
O651 O 0.46474 0.18382 0.0601 0.0
O652 O 0.451 0.20518 0.05249 0.0
C653 C 0.44911 0.17394 0.10435 0.0
C654 C 0.45507 0.22312 0.08994 0.0
C655 C 0.4166 0.18163 0.06496 0.0
O656 O 0.45847 0.17314 0.09182 0.0
O657 O 0.43795 0.18484 0.10345 0.0
O658 O 0.41685 0.19524 0.07279 0.0
O659 O 0.43047 0.17461 0.06355 0.0
C660 C 0.46216 0.19469 0.04906 0.0
O661 O 0.4398 0.21977 0.0884 0.0
O662 O 0.46486 0.21183 0.08534 0.0
In663 In 0.55356 0.19286 0.32412 0.0
O664 O 0.56415 0.21214 0.30655 0.0
O665 O 0.54253 0.19883 0.29884 0.0
C666 C 0.57255 0.19722 0.35136 0.0
C667 C 0.52435 0.20351 0.33621 0.0
C668 C 0.56567 0.16422 0.31185 0.0
O669 O 0.57352 0.20663 0.33887 0.0
O670 O 0.56203 0.18573 0.35008 0.0
O671 O 0.55149 0.16481 0.31862 0.0
O672 O 0.57326 0.17785 0.31133 0.0
C673 C 0.55328 0.20978 0.29546 0.0
O674 O 0.52769 0.18817 0.33558 0.0
O675 O 0.53551 0.21297 0.33072 0.0
In676 In 0.55007 0.69493 0.42126 0.0
O677 O 0.55381 0.72254 0.41467 0.0
O678 O 0.53511 0.70855 0.4022 0.0
C679 C 0.57819 0.68432 0.43581 0.0
C680 C 0.52915 0.69697 0.44722 0.0
C681 C 0.55006 0.67308 0.39601 0.0
O682 O 0.57815 0.69663 0.42608 0.0
O683 O 0.56415 0.67805 0.43852 0.0
O684 O 0.53857 0.67339 0.40672 0.0
O685 O 0.56142 0.68361 0.39822 0.0
C686 C 0.54254 0.72221 0.40373 0.0
O687 O 0.52897 0.6849 0.43721 0.0
O688 O 0.53953 0.70821 0.44384 0.0
In689 In 0.05752 0.30507 0.67231 0.0
O690 O 0.03179 0.31126 0.66141 0.0
O691 O 0.03763 0.28616 0.66743 0.0
C692 C 0.0715 0.33341 0.68316 0.0
C693 C 0.05776 0.28887 0.70135 0.0
C694 C 0.07539 0.29923 0.64459 0.0
O695 O 0.07862 0.31952 0.68343 0.0
O696 O 0.05687 0.33322 0.67743 0.0
O697 O 0.07667 0.29031 0.6574 0.0
O698 O 0.06494 0.3108 0.64572 0.0
C699 C 0.02714 0.29627 0.66178 0.0
O700 O 0.0676 0.28533 0.68964 0.0
O701 O 0.04772 0.30057 0.69837 0.0
In702 In 0.44923 0.80428 0.91985 0.0
O703 O 0.46805 0.81514 0.93778 0.0
O704 O 0.45498 0.79326 0.94513 0.0
C705 C 0.45219 0.82373 0.89276 0.0
C706 C 0.46121 0.77565 0.90771 0.0
C707 C 0.42024 0.8153 0.93215 0.0
O708 O 0.46163 0.82524 0.90519 0.0
O709 O 0.4415 0.81239 0.89401 0.0
O710 O 0.4212 0.80137 0.92493 0.0
O711 O 0.43368 0.8232 0.93308 0.0
C712 C 0.46561 0.80422 0.9488 0.0
O713 O 0.44572 0.77803 0.90892 0.0
O714 O 0.47018 0.78748 0.91259 0.0
In715 In 0.94328 0.19744 0.1683 0.0
O716 O 0.9692 0.1913 0.15789 0.0
O717 O 0.96271 0.21655 0.16247 0.0
C718 C 0.93028 0.1694 0.18091 0.0
C719 C 0.94311 0.21443 0.19689 0.0
C720 C 0.9251 0.20163 0.14046 0.0
O721 O 0.94467 0.16959 0.17461 0.0
O722 O 0.92281 0.1831 0.18068 0.0
O723 O 0.9239 0.21129 0.15274 0.0
O724 O 0.93555 0.19015 0.14219 0.0
C725 C 0.97351 0.20639 0.15753 0.0
O726 O 0.9329 0.21739 0.18532 0.0
O727 O 0.95345 0.20301 0.19394 0.0
In728 In 0.57548 0.05435 0.8049 0.0
O729 O 0.58305 0.05614 0.77729 0.0
O730 O 0.59531 0.03885 0.79308 0.0
C731 C 0.56222 0.08398 0.81307 0.0
C732 C 0.54938 0.03362 0.80315 0.0
C733 C 0.5985 0.05353 0.82905 0.0
O734 O 0.57369 0.08272 0.80246 0.0
O735 O 0.557 0.07037 0.81863 0.0
O736 O 0.58689 0.04301 0.82825 0.0
O737 O 0.59837 0.06438 0.81778 0.0
C738 C 0.59418 0.04518 0.77885 0.0
O739 O 0.55912 0.03399 0.81542 0.0
O740 O 0.55304 0.04346 0.7915 0.0
In741 In 0.69812 0.32733 0.0547 0.0
O742 O 0.71767 0.30967 0.06462 0.0
O743 O 0.70348 0.3019 0.04362 0.0
C744 C 0.70188 0.35377 0.07493 0.0
C745 C 0.70846 0.33976 0.02557 0.0
C746 C 0.66896 0.31595 0.06635 0.0
O747 O 0.71065 0.34086 0.07634 0.0
O748 O 0.69163 0.35343 0.06316 0.0
O749 O 0.66977 0.324 0.0529 0.0
O750 O 0.68268 0.31345 0.07334 0.0
C751 C 0.71474 0.29847 0.05402 0.0
O752 O 0.69318 0.33781 0.02859 0.0
O753 O 0.71815 0.33541 0.03705 0.0
In754 In 0.42183 0.44844 0.30799 0.0
O755 O 0.41416 0.44513 0.28053 0.0
O756 O 0.40242 0.46373 0.29524 0.0
C757 C 0.4358 0.4198 0.31824 0.0
C758 C 0.4481 0.46889 0.30533 0.0
C759 C 0.39743 0.44957 0.33073 0.0
O760 O 0.42574 0.42019 0.30619 0.0
O761 O 0.43912 0.43375 0.3244 0.0
O762 O 0.40852 0.46066 0.32988 0.0
O763 O 0.39888 0.43796 0.32032 0.0
C764 C 0.40335 0.45649 0.28143 0.0
O765 O 0.43843 0.46913 0.31766 0.0
O766 O 0.44427 0.45864 0.29411 0.0
In767 In 0.3028 0.16967 0.55421 0.0
O768 O 0.28314 0.18616 0.56581 0.0
O769 O 0.29565 0.19507 0.5442 0.0
C770 C 0.29871 0.14207 0.57285 0.0
C771 C 0.29391 0.15869 0.52399 0.0
C772 C 0.33141 0.18218 0.56617 0.0
O773 O 0.28883 0.15419 0.57352 0.0
O774 O 0.3104 0.14379 0.56265 0.0
O775 O 0.33079 0.17514 0.55216 0.0
O776 O 0.31777 0.18303 0.57369 0.0
C777 C 0.28485 0.19769 0.5553 0.0
O778 O 0.30898 0.15935 0.52826 0.0
O779 O 0.28371 0.16349 0.5348 0.0
In780 In 0.581 0.94789 0.19706 0.0
O781 O 0.58605 0.9428 0.22484 0.0
O782 O 0.60068 0.96073 0.21209 0.0
C783 C 0.56796 0.91985 0.18446 0.0
C784 C 0.55489 0.96851 0.20031 0.0
C785 C 0.60516 0.94936 0.1741 0.0
O786 O 0.57713 0.91967 0.1972 0.0
O787 O 0.56506 0.93406 0.17865 0.0
O788 O 0.59318 0.95952 0.17418 0.0
O789 O 0.60489 0.93873 0.18558 0.0
C790 C 0.59783 0.95314 0.22542 0.0
O791 O 0.56774 0.97257 0.19228 0.0
O792 O 0.55547 0.95433 0.20693 0.0
In793 In 0.80212 0.33012 0.44513 0.0
O794 O 0.80443 0.33491 0.47329 0.0
O795 O 0.79057 0.35176 0.45841 0.0
C796 C 0.83051 0.31465 0.43624 0.0
C797 C 0.77871 0.30631 0.44631 0.0
C798 C 0.80195 0.354 0.4218 0.0
O799 O 0.83026 0.32586 0.44718 0.0
O800 O 0.81648 0.31079 0.43062 0.0
O801 O 0.79028 0.34361 0.42317 0.0
O802 O 0.81359 0.35225 0.43212 0.0
C803 C 0.79591 0.34806 0.47261 0.0
O804 O 0.78059 0.31568 0.43391 0.0
O805 O 0.78842 0.30915 0.45827 0.0
In806 In 0.41862 0.55281 0.69677 0.0
O807 O 0.43519 0.53261 0.68623 0.0
O808 O 0.44386 0.54596 0.70743 0.0
C809 C 0.39099 0.54864 0.67823 0.0
C810 C 0.40722 0.54464 0.72705 0.0
C811 C 0.43119 0.5809 0.68358 0.0
O812 O 0.40316 0.53882 0.67746 0.0
O813 O 0.39268 0.56029 0.6885 0.0
O814 O 0.42435 0.58084 0.69771 0.0
O815 O 0.43185 0.56697 0.67658 0.0
C816 C 0.44657 0.53469 0.69684 0.0
O817 O 0.40869 0.55966 0.72272 0.0
O818 O 0.41144 0.53416 0.71625 0.0
In819 In 0.2006 0.16442 0.94268 0.0
O820 O 0.19759 0.1591 0.97066 0.0
O821 O 0.2134 0.14362 0.9562 0.0
C822 C 0.1722 0.1797 0.93359 0.0
C823 C 0.223 0.18921 0.94413 0.0
C824 C 0.20062 0.14005 0.91981 0.0
O825 O 0.1725 0.1689 0.94494 0.0
O826 O 0.18616 0.18314 0.92753 0.0
O827 O 0.21244 0.15031 0.92104 0.0
O828 O 0.18893 0.14221 0.92999 0.0
C829 C 0.20716 0.14668 0.9702 0.0
O830 O 0.2216 0.17985 0.93164 0.0
O831 O 0.21342 0.18576 0.95604 0.0
In832 In 0.80729 0.08174 0.54835 0.0
O833 O 0.81874 0.06566 0.52812 0.0
O834 O 0.79391 0.06042 0.53545 0.0
C835 C 0.8305 0.1058 0.5485 0.0
C836 C 0.78056 0.09995 0.54012 0.0
C837 C 0.81481 0.06701 0.57748 0.0
O838 O 0.82967 0.09509 0.53707 0.0
O839 O 0.8198 0.10419 0.55981 0.0
O840 O 0.80366 0.07796 0.57637 0.0
O841 O 0.82149 0.06314 0.56391 0.0
C842 C 0.80607 0.05661 0.52633 0.0
O843 O 0.77948 0.08822 0.55049 0.0
O844 O 0.79476 0.10203 0.53394 0.0
In845 In 0.30301 0.91519 0.94991 0.0
O846 O 0.27509 0.91076 0.94483 0.0
O847 O 0.28761 0.89566 0.96251 0.0
C848 C 0.31603 0.92829 0.92209 0.0
C849 C 0.30071 0.94125 0.97075 0.0
C850 C 0.32527 0.89037 0.95134 0.0
O851 O 0.30297 0.91958 0.92177 0.0
O852 O 0.32199 0.93067 0.93634 0.0
O853 O 0.32506 0.90198 0.96192 0.0
O854 O 0.3143 0.89137 0.94021 0.0
C855 C 0.27432 0.89885 0.955 0.0
O856 O 0.30843 0.92816 0.9746 0.0
O857 O 0.29384 0.94095 0.95669 0.0
In858 In 0.83225 0.05106 0.20041 0.0
O859 O 0.81867 0.05633 0.22485 0.0
O860 O 0.80634 0.04193 0.20647 0.0
C861 C 0.857 0.07327 0.20234 0.0
C862 C 0.84807 0.0221 0.20593 0.0
C863 C 0.81996 0.06425 0.17226 0.0
O864 O 0.84492 0.07344 0.21239 0.0
O865 O 0.85654 0.06189 0.1916 0.0
O866 O 0.82887 0.05131 0.17208 0.0
O867 O 0.81696 0.06994 0.18649 0.0
C868 C 0.80567 0.04865 0.22059 0.0
O869 O 0.83617 0.02305 0.19576 0.0
O870 O 0.85162 0.03544 0.21322 0.0
In871 In 0.69017 0.57725 0.45057 0.0
O872 O 0.67881 0.56018 0.4699 0.0
O873 O 0.70346 0.55499 0.46182 0.0
C874 C 0.66752 0.60176 0.45073 0.0
C875 C 0.71606 0.59531 0.4613 0.0
C876 C 0.68227 0.56369 0.42101 0.0
O877 O 0.66745 0.59029 0.46143 0.0
O878 O 0.67877 0.60062 0.43991 0.0
O879 O 0.69383 0.57422 0.42239 0.0
O880 O 0.67548 0.55966 0.43447 0.0
C881 C 0.69137 0.55086 0.47092 0.0
O882 O 0.71765 0.58542 0.44918 0.0
O883 O 0.70189 0.5955 0.46788 0.0
In884 In 0.67232 0.94543 0.69735 0.0
O885 O 0.69012 0.93552 0.71682 0.0
O886 O 0.69795 0.95616 0.70211 0.0
C887 C 0.64521 0.92621 0.70159 0.0
C888 C 0.66101 0.975 0.70758 0.0
C889 C 0.68338 0.93296 0.66846 0.0
O890 O 0.65809 0.92453 0.71036 0.0
O891 O 0.64595 0.93774 0.69108 0.0
O892 O 0.67575 0.94668 0.669 0.0
O893 O 0.68555 0.92607 0.68229 0.0
C894 C 0.7014 0.94594 0.71353 0.0
O895 O 0.66231 0.9717 0.69229 0.0
O896 O 0.66535 0.96355 0.7173 0.0
In897 In 0.19527 0.92449 0.55949 0.0
O898 O 0.22279 0.91639 0.56093 0.0
O899 O 0.20658 0.90487 0.54347 0.0
C900 C 0.18705 0.93974 0.58809 0.0
C901 C 0.19713 0.95 0.53807 0.0
C902 C 0.17246 0.90017 0.56072 0.0
O903 O 0.19868 0.9292 0.58747 0.0
O904 O 0.18034 0.94288 0.57434 0.0
O905 O 0.17284 0.91064 0.54902 0.0
O906 O 0.18331 0.90226 0.57181 0.0
C907 C 0.22092 0.90563 0.54961 0.0
O908 O 0.18447 0.94081 0.53914 0.0
O909 O 0.20895 0.94615 0.54762 0.0
In910 In 0.82874 0.44339 0.29831 0.0
O911 O 0.81421 0.4378 0.27461 0.0
O912 O 0.80317 0.45375 0.29255 0.0
C913 C 0.85366 0.42128 0.29627 0.0
C914 C 0.84554 0.4715 0.29212 0.0
C915 C 0.81625 0.43072 0.32652 0.0
O916 O 0.84163 0.42117 0.28617 0.0
O917 O 0.85295 0.4324 0.30726 0.0
O918 O 0.8249 0.44382 0.32649 0.0
O919 O 0.81368 0.42447 0.31242 0.0
C920 C 0.80177 0.44639 0.2788 0.0
O921 O 0.83518 0.47078 0.30387 0.0
O922 O 0.84688 0.45851 0.28358 0.0
In923 In 0.16654 0.05382 0.79765 0.0
O924 O 0.16072 0.02589 0.80041 0.0
O925 O 0.14629 0.04055 0.78382 0.0
C926 C 0.18139 0.06294 0.82627 0.0
C927 C 0.19166 0.0526 0.77564 0.0
C928 C 0.14193 0.07639 0.79751 0.0
O929 O 0.17088 0.05132 0.82577 0.0
O930 O 0.18475 0.06926 0.81241 0.0
O931 O 0.15256 0.0756 0.78599 0.0
O932 O 0.14388 0.06595 0.80901 0.0
C933 C 0.14879 0.02653 0.79023 0.0
O934 O 0.18211 0.06497 0.77685 0.0
O935 O 0.18829 0.0407 0.78524 0.0
In936 In 0.55241 0.80489 0.07969 0.0
O937 O 0.55412 0.77699 0.08615 0.0
O938 O 0.53874 0.79279 0.10072 0.0
C939 C 0.58125 0.81268 0.06449 0.0
C940 C 0.53012 0.80342 0.05485 0.0
C941 C 0.55266 0.82842 0.10339 0.0
O942 O 0.58052 0.80175 0.0757 0.0
O943 O 0.56749 0.81893 0.06063 0.0
O944 O 0.54113 0.82739 0.09279 0.0
O945 O 0.56402 0.81776 0.10183 0.0
C946 C 0.54436 0.77842 0.09836 0.0
O947 O 0.53184 0.8161 0.06389 0.0
O948 O 0.53938 0.79135 0.05858 0.0
In949 In 0.442 0.80263 0.32974 0.0
O950 O 0.43105 0.78217 0.31377 0.0
O951 O 0.45195 0.7955 0.30434 0.0
C952 C 0.42427 0.79893 0.35794 0.0
C953 C 0.47255 0.79448 0.34025 0.0
C954 C 0.42846 0.83033 0.31683 0.0
O955 O 0.42327 0.78881 0.34603 0.0
O956 O 0.43434 0.81065 0.35569 0.0
O957 O 0.44267 0.83053 0.3235 0.0
O958 O 0.42153 0.81635 0.31658 0.0
C959 C 0.44133 0.78417 0.30207 0.0
O960 O 0.46819 0.80951 0.33902 0.0
O961 O 0.46166 0.78401 0.33627 0.0
In962 In 0.44469 0.6966 0.58005 0.0
O963 O 0.44157 0.72456 0.5853 0.0
O964 O 0.45881 0.71063 0.59969 0.0
C965 C 0.41579 0.6867 0.56623 0.0
C966 C 0.46559 0.6984 0.55401 0.0
C967 C 0.4463 0.67394 0.60457 0.0
O968 O 0.41629 0.69805 0.57704 0.0
O969 O 0.42973 0.68102 0.56213 0.0
O970 O 0.45721 0.67483 0.59332 0.0
O971 O 0.43471 0.68439 0.60335 0.0
C972 C 0.45212 0.72448 0.59691 0.0
O973 O 0.46537 0.68614 0.56378 0.0
O974 O 0.45561 0.7099 0.55766 0.0
In975 In 0.55999 0.69738 0.82017 0.0
O976 O 0.53276 0.69497 0.82916 0.0
O977 O 0.54787 0.71468 0.83819 0.0
C978 C 0.56924 0.66843 0.80635 0.0
C979 C 0.5575 0.7173 0.79349 0.0
C980 C 0.58315 0.6975 0.84422 0.0
O981 O 0.55668 0.66937 0.81575 0.0
O982 O 0.57664 0.68197 0.80387 0.0
O983 O 0.58362 0.70744 0.83208 0.0
O984 O 0.57122 0.68736 0.84398 0.0
C985 C 0.53405 0.70743 0.83864 0.0
O986 O 0.56784 0.71986 0.80498 0.0
O987 O 0.54817 0.70488 0.79562 0.0
In988 In 0.5529 0.196 0.92092 0.0
O989 O 0.53154 0.18492 0.93571 0.0
O990 O 0.5393 0.20942 0.94179 0.0
C991 C 0.55318 0.17343 0.89632 0.0
C992 C 0.54628 0.22304 0.90243 0.0
C993 C 0.5806 0.18661 0.93737 0.0
O994 O 0.54115 0.17475 0.90631 0.0
O995 O 0.56511 0.18321 0.89903 0.0
O996 O 0.58089 0.19807 0.92666 0.0
O997 O 0.56646 0.18056 0.94001 0.0
C998 C 0.52971 0.19744 0.94495 0.0
O999 O 0.55564 0.22401 0.91501 0.0
O1000 O 0.54037 0.20887 0.89966 0.0
In1001 In 0.05144 0.80715 0.17381 0.0
O1002 O 0.06312 0.78716 0.19009 0.0
O1003 O 0.03841 0.79467 0.19559 0.0
C1004 C 0.07439 0.805 0.14968 0.0
C1005 C 0.02351 0.7998 0.157 0.0
C1006 C 0.06041 0.83672 0.18692 0.0
O1007 O 0.06416 0.8168 0.15071 0.0
O1008 O 0.07312 0.79413 0.16093 0.0
O1009 O 0.04965 0.8356 0.1756 0.0
O1010 O 0.06578 0.82302 0.19209 0.0
C1011 C 0.05062 0.78563 0.19941 0.0
O1012 O 0.03763 0.79446 0.15302 0.0
O1013 O 0.02318 0.8089 0.16978 0.0
In1014 In 0.45114 0.30533 0.42282 0.0
O1015 O 0.47162 0.31502 0.43977 0.0
O1016 O 0.46103 0.29147 0.44539 0.0
C1017 C 0.45181 0.3281 0.39837 0.0
C1018 C 0.45937 0.27876 0.40444 0.0
C1019 C 0.42237 0.31521 0.4367 0.0
O1020 O 0.463 0.3274 0.40938 0.0
O1021 O 0.4404 0.3175 0.39991 0.0
O1022 O 0.42293 0.30316 0.42665 0.0
O1023 O 0.43622 0.32159 0.44005 0.0
C1024 C 0.47121 0.30268 0.44944 0.0
O1025 O 0.44774 0.27798 0.41497 0.0
O1026 O 0.46683 0.29247 0.40376 0.0
In1027 In 0.95302 0.69264 0.6682 0.0
O1028 O 0.94752 0.71737 0.68114 0.0
O1029 O 0.96214 0.69951 0.69394 0.0
C1030 C 0.93042 0.69429 0.6437 0.0
C1031 C 0.98174 0.69807 0.65181 0.0
C1032 C 0.94072 0.66476 0.68194 0.0
O1033 O 0.93116 0.70506 0.65511 0.0
O1034 O 0.94094 0.68274 0.64481 0.0
O1035 O 0.95351 0.66447 0.67283 0.0
O1036 O 0.93453 0.67895 0.68412 0.0
C1037 C 0.95525 0.71355 0.69424 0.0
O1038 O 0.98121 0.68862 0.6643 0.0
O1039 O 0.96812 0.70459 0.64793 0.0
In1040 In 0.58035 0.55407 0.30415 0.0
O1041 O 0.56443 0.53314 0.31452 0.0
O1042 O 0.55798 0.54302 0.29088 0.0
C1043 C 0.60521 0.55274 0.32644 0.0
C1044 C 0.59741 0.54703 0.27633 0.0
C1045 C 0.56608 0.58249 0.31467 0.0
O1046 O 0.5944 0.5414 0.32532 0.0
O1047 O 0.60332 0.56465 0.31646 0.0
O1048 O 0.57664 0.58239 0.30308 0.0
O1049 O 0.56242 0.56838 0.32027 0.0
C1050 C 0.55456 0.5329 0.30234 0.0
O1051 O 0.58579 0.55758 0.27621 0.0
O1052 O 0.60002 0.54017 0.29011 0.0
In1053 In 0.69387 0.82902 0.55231 0.0
O1054 O 0.71461 0.81429 0.56447 0.0
O1055 O 0.70792 0.80783 0.53976 0.0
C1056 C 0.69337 0.85297 0.57557 0.0
C1057 C 0.702 0.84756 0.52569 0.0
C1058 C 0.66502 0.81359 0.55985 0.0
O1059 O 0.70497 0.84246 0.57458 0.0
O1060 O 0.68195 0.8512 0.56501 0.0
O1061 O 0.66586 0.82453 0.54866 0.0
O1062 O 0.6787 0.81007 0.56648 0.0
C1063 C 0.71703 0.80491 0.55217 0.0
O1064 O 0.69282 0.83491 0.52419 0.0
O1065 O 0.70699 0.85039 0.5402 0.0
In1066 In 0.41989 0.94437 0.80636 0.0
O1067 O 0.41237 0.94225 0.77877 0.0
O1068 O 0.39932 0.95895 0.79458 0.0
C1069 C 0.43515 0.9157 0.81453 0.0
C1070 C 0.44507 0.96616 0.80383 0.0
C1071 C 0.39643 0.94419 0.83012 0.0
O1072 O 0.424 0.91623 0.8035 0.0
O1073 O 0.43884 0.92955 0.82072 0.0
O1074 O 0.40736 0.95542 0.8293 0.0
O1075 O 0.39755 0.93308 0.81914 0.0
C1076 C 0.40082 0.95277 0.78031 0.0
O1077 O 0.4359 0.96529 0.81652 0.0
O1078 O 0.44128 0.95629 0.79226 0.0
In1079 In 0.30224 0.66771 0.0513 0.0
O1080 O 0.30565 0.66577 0.02288 0.0
O1081 O 0.29226 0.64687 0.03538 0.0
C1082 C 0.33034 0.68087 0.06382 0.0
C1083 C 0.28096 0.6935 0.0497 0.0
C1084 C 0.29981 0.64341 0.07401 0.0
O1085 O 0.33058 0.6714 0.0513 0.0
O1086 O 0.31611 0.68377 0.06956 0.0
O1087 O 0.28923 0.65498 0.07304 0.0
O1088 O 0.31146 0.6442 0.06357 0.0
C1089 C 0.29773 0.6523 0.02184 0.0
O1090 O 0.27706 0.67996 0.05658 0.0
O1091 O 0.29523 0.69374 0.04331 0.0
In1092 In 0.57847 0.44863 0.69716 0.0
O1093 O 0.56178 0.46894 0.68708 0.0
O1094 O 0.55345 0.4555 0.70834 0.0
C1095 C 0.60561 0.45273 0.67786 0.0
C1096 C 0.5912 0.45638 0.72705 0.0
C1097 C 0.56599 0.42024 0.68448 0.0
O1098 O 0.59327 0.46234 0.67708 0.0
O1099 O 0.60433 0.44138 0.68851 0.0
O1100 O 0.57285 0.42062 0.69858 0.0
O1101 O 0.56516 0.43405 0.67726 0.0
C1102 C 0.55057 0.46681 0.69784 0.0
O1103 O 0.5894 0.44148 0.7225 0.0
O1104 O 0.58643 0.46709 0.71671 0.0
In1105 In 0.80358 0.83196 0.9445 0.0
O1106 O 0.80994 0.83533 0.97227 0.0
O1107 O 0.79131 0.85054 0.96139 0.0
C1108 C 0.83068 0.8201 0.929 0.0
C1109 C 0.7842 0.8049 0.94774 0.0
C1110 C 0.79986 0.85765 0.92366 0.0
O1111 O 0.83175 0.82803 0.94252 0.0
O1112 O 0.81611 0.81801 0.92373 0.0
O1113 O 0.78977 0.84559 0.92381 0.0
O1114 O 0.81163 0.8566 0.93395 0.0
C1115 C 0.79948 0.84686 0.97415 0.0
O1116 O 0.77911 0.81794 0.94065 0.0
O1117 O 0.79876 0.80572 0.95339 0.0
In1118 In 0.42235 0.05346 0.19714 0.0
O1119 O 0.43803 0.03083 0.19125 0.0
O1120 O 0.44949 0.05076 0.20448 0.0
C1121 C 0.3959 0.04774 0.17731 0.0
C1122 C 0.41076 0.04554 0.22752 0.0
C1123 C 0.43377 0.08179 0.18364 0.0
O1124 O 0.40938 0.03993 0.17577 0.0
O1125 O 0.39568 0.05807 0.18903 0.0
O1126 O 0.42779 0.08152 0.19818 0.0
O1127 O 0.43396 0.06798 0.17634 0.0
C1128 C 0.45099 0.0365 0.19807 0.0
O1129 O 0.40969 0.06019 0.22201 0.0
O1130 O 0.41778 0.03542 0.21794 0.0
In1131 In 0.19506 0.67382 0.44516 0.0
O1132 O 0.19342 0.6674 0.47313 0.0
O1133 O 0.20848 0.65263 0.45724 0.0
C1134 C 0.16634 0.68928 0.43716 0.0
C1135 C 0.21775 0.69831 0.44641 0.0
C1136 C 0.19499 0.64988 0.42192 0.0
O1137 O 0.16694 0.67818 0.44823 0.0
O1138 O 0.18016 0.69287 0.43086 0.0
O1139 O 0.20654 0.66044 0.42297 0.0
O1140 O 0.18344 0.65166 0.43234 0.0
C1141 C 0.203 0.65505 0.47165 0.0
O1142 O 0.21574 0.68929 0.43376 0.0
O1143 O 0.20852 0.69478 0.45857 0.0
In1144 In 0.80621 0.58177 0.05418 0.0
O1145 O 0.81634 0.56432 0.03449 0.0
O1146 O 0.79496 0.55664 0.04817 0.0
C1147 C 0.82546 0.60893 0.05017 0.0
C1148 C 0.77659 0.59357 0.04443 0.0
C1149 C 0.81846 0.56873 0.08242 0.0
O1150 O 0.82626 0.5966 0.04053 0.0
O1151 O 0.8149 0.60757 0.06161 0.0
O1152 O 0.8045 0.57593 0.08218 0.0
O1153 O 0.82583 0.56823 0.06867 0.0
C1154 C 0.80547 0.55327 0.03701 0.0
O1155 O 0.7803 0.59271 0.05966 0.0
O1156 O 0.78767 0.58865 0.03457 0.0
In1157 In 0.30861 0.42035 0.45131 0.0
O1158 O 0.31958 0.43609 0.47208 0.0
O1159 O 0.29527 0.442 0.46365 0.0
C1160 C 0.33107 0.39563 0.45182 0.0
C1161 C 0.28123 0.40269 0.45842 0.0
C1162 C 0.31793 0.43502 0.42269 0.0
O1163 O 0.33007 0.40622 0.46336 0.0
O1164 O 0.32092 0.3977 0.44008 0.0
O1165 O 0.30625 0.42457 0.42319 0.0
O1166 O 0.32421 0.43842 0.43657 0.0
C1167 C 0.30711 0.44549 0.47329 0.0
O1168 O 0.28069 0.41464 0.44826 0.0
O1169 O 0.29519 0.40013 0.46494 0.0
In1170 In 0.83404 0.55569 0.69823 0.0
O1171 O 0.81889 0.56165 0.72129 0.0
O1172 O 0.80691 0.54893 0.70134 0.0
C1173 C 0.86174 0.57393 0.70311 0.0
C1174 C 0.84423 0.5245 0.70449 0.0
C1175 C 0.82195 0.57085 0.67109 0.0
O1176 O 0.84893 0.57566 0.71196 0.0
O1177 O 0.86066 0.56276 0.69224 0.0
O1178 O 0.82728 0.55608 0.67048 0.0
O1179 O 0.82281 0.57761 0.68515 0.0
C1180 C 0.80571 0.5552 0.71567 0.0
O1181 O 0.84466 0.53039 0.68995 0.0
O1182 O 0.8387 0.5342 0.7154 0.0
In1183 In 0.68891 0.07942 0.95299 0.0
O1184 O 0.71489 0.08927 0.94612 0.0
O1185 O 0.70919 0.08434 0.97147 0.0
C1186 C 0.67454 0.06911 0.92478 0.0
C1187 C 0.68926 0.05012 0.96887 0.0
C1188 C 0.67081 0.10722 0.95794 0.0
O1189 O 0.6893 0.07452 0.92493 0.0
O1190 O 0.66739 0.06891 0.93869 0.0
O1191 O 0.66827 0.09407 0.96609 0.0
O1192 O 0.68264 0.10638 0.94777 0.0
C1193 C 0.71974 0.08928 0.96105 0.0
O1194 O 0.68263 0.06294 0.97508 0.0
O1195 O 0.69567 0.05212 0.9547 0.0
In1196 In 0.66734 0.44363 0.19674 0.0
O1197 O 0.68277 0.43778 0.21969 0.0
O1198 O 0.69467 0.44981 0.19928 0.0
C1199 C 0.6396 0.42549 0.20212 0.0
C1200 C 0.65757 0.47489 0.20343 0.0
C1201 C 0.67916 0.42899 0.16919 0.0
O1202 O 0.65262 0.42355 0.21061 0.0
O1203 O 0.64052 0.43673 0.19131 0.0
O1204 O 0.67399 0.44383 0.16897 0.0
O1205 O 0.67815 0.42185 0.18306 0.0
C1206 C 0.69598 0.44385 0.21373 0.0
O1207 O 0.6562 0.46891 0.189 0.0
O1208 O 0.66379 0.46526 0.21402 0.0
In1209 In 0.1944 0.424 0.05031 0.0
O1210 O 0.22174 0.41559 0.05226 0.0
O1211 O 0.20593 0.40457 0.03412 0.0
C1212 C 0.18647 0.43822 0.07953 0.0
C1213 C 0.19661 0.4502 0.02969 0.0
C1214 C 0.17132 0.39984 0.05081 0.0
O1215 O 0.19812 0.42777 0.07835 0.0
O1216 O 0.17951 0.4418 0.06602 0.0
O1217 O 0.17157 0.41084 0.0396 0.0
O1218 O 0.18244 0.40131 0.06172 0.0
C1219 C 0.22006 0.40499 0.04079 0.0
O1220 O 0.18391 0.44102 0.03032 0.0
O1221 O 0.20833 0.44592 0.03918 0.0
In1222 In 0.82975 0.94661 0.80387 0.0
O1223 O 0.81493 0.93427 0.78311 0.0
O1224 O 0.80915 0.95927 0.7892 0.0
C1225 C 0.85498 0.9248 0.80221 0.0
C1226 C 0.84565 0.97561 0.79888 0.0
C1227 C 0.81453 0.93707 0.83221 0.0
O1228 O 0.84498 0.92691 0.7903 0.0
O1229 O 0.85213 0.93358 0.81486 0.0
O1230 O 0.82524 0.94849 0.832 0.0
O1231 O 0.81118 0.93109 0.8182 0.0
C1232 C 0.80589 0.94676 0.78038 0.0
O1233 O 0.83176 0.97502 0.80611 0.0
O1234 O 0.8513 0.96179 0.79431 0.0
In1235 In 0.16661 0.55687 0.30397 0.0
O1236 O 0.16419 0.52866 0.30725 0.0
O1237 O 0.14587 0.54145 0.29315 0.0
C1238 C 0.18121 0.56727 0.3323 0.0
C1239 C 0.1908 0.55591 0.28086 0.0
C1240 C 0.14155 0.57886 0.30249 0.0
O1241 O 0.17044 0.55591 0.3322 0.0
O1242 O 0.18505 0.57267 0.31818 0.0
O1243 O 0.15234 0.57777 0.29115 0.0
O1244 O 0.14342 0.56885 0.31438 0.0
C1245 C 0.15096 0.52783 0.29888 0.0
O1246 O 0.18107 0.5681 0.28234 0.0
O1247 O 0.1881 0.5441 0.29078 0.0
H1248 H 0.02112 0.27843 0.03657 0.0
H1249 H 0.9822 0.33152 0.96361 0.0
H1250 H 0.01491 0.33147 0.04017 0.0
H1251 H 0.96736 0.28084 0.97233 0.0
H1252 H 0.99735 0.33128 0.98996 0.0
H1253 H 0.00415 0.2785 0.01131 0.0
C1254 C 0.0161 0.29006 0.03209 0.0
C1255 C 0.01938 0.30497 0.04043 0.0
C1256 C 0.99072 0.32025 0.98611 0.0
C1257 C 0.00032 0.30517 0.01152 0.0
C1258 C 0.98217 0.32034 0.97107 0.0
C1259 C 0.97355 0.30618 0.96584 0.0
C1260 C 0.99091 0.30578 0.9958 0.0
C1261 C 0.97383 0.29203 0.97598 0.0
C1262 C 0.00642 0.29008 0.01773 0.0
C1263 C 0.0126 0.3197 0.03413 0.0
N1264 N 0.98251 0.29213 0.99044 0.0
N1265 N 0.00353 0.31946 0.01993 0.0
H1266 H 0.91797 0.23311 0.20983 0.0
H1267 H 0.97006 0.26821 0.28557 0.0
H1268 H 0.96776 0.21633 0.22002 0.0
H1269 H 0.91667 0.26465 0.287 0.0
H1270 H 0.97013 0.25192 0.25988 0.0
H1271 H 0.91784 0.24784 0.23644 0.0
C1272 C 0.92888 0.23257 0.21765 0.0
C1273 C 0.9429 0.22351 0.21276 0.0
C1274 C 0.95843 0.25461 0.26591 0.0
C1275 C 0.94288 0.24038 0.24303 0.0
C1276 C 0.95837 0.26391 0.28052 0.0
C1277 C 0.94334 0.26773 0.28839 0.0
C1278 C 0.94332 0.24944 0.25897 0.0
C1279 C 0.92854 0.26188 0.28134 0.0
C1280 C 0.92876 0.24088 0.23284 0.0
C1281 C 0.95669 0.22315 0.22338 0.0
N1282 N 0.92888 0.25317 0.26692 0.0
N1283 N 0.95639 0.23158 0.23798 0.0
H1284 H 0.98307 0.22192 0.53654 0.0
H1285 H 0.01751 0.16716 0.46251 0.0
H1286 H 0.98745 0.16871 0.54025 0.0
H1287 H 0.0341 0.21744 0.47034 0.0
H1288 H 0.00343 0.16796 0.48946 0.0
H1289 H 0.99916 0.2211 0.51073 0.0
C1290 C 0.98752 0.21009 0.53197 0.0
C1291 C 0.98396 0.19535 0.54051 0.0
C1292 C 0.01022 0.17878 0.48528 0.0
C1293 C 0.00201 0.19432 0.51095 0.0
C1294 C 0.01815 0.17837 0.4699 0.0
C1295 C 0.02695 0.19226 0.46424 0.0
C1296 C 0.01082 0.1933 0.49488 0.0
C1297 C 0.02748 0.20645 0.4743 0.0
C1298 C 0.9967 0.20964 0.51729 0.0
C1299 C 0.98999 0.18035 0.53407 0.0
N1300 N 0.01939 0.20667 0.4891 0.0
N1301 N 0.99857 0.18019 0.51955 0.0
H1302 H 0.0298 0.23423 0.7891 0.0
H1303 H 0.08242 0.26939 0.71389 0.0
H1304 H 0.08331 0.23548 0.78989 0.0
H1305 H 0.03344 0.28791 0.72496 0.0
H1306 H 0.0823 0.25424 0.74023 0.0
H1307 H 0.03011 0.25161 0.76412 0.0
C1308 C 0.0416 0.23826 0.78406 0.0
C1309 C 0.05656 0.23345 0.79153 0.0
C1310 C 0.07162 0.26169 0.73691 0.0
C1311 C 0.05699 0.25298 0.76292 0.0
C1312 C 0.07164 0.27025 0.72188 0.0
C1313 C 0.05791 0.27989 0.71728 0.0
C1314 C 0.05763 0.26252 0.74726 0.0
C1315 C 0.04429 0.28065 0.72809 0.0
C1316 C 0.04176 0.24817 0.76986 0.0
C1317 C 0.0715 0.23898 0.78454 0.0
N1318 N 0.04442 0.27194 0.74254 0.0
N1319 N 0.07135 0.24831 0.7705 0.0
H1320 H 0.98003 0.72495 0.03697 0.0
H1321 H 0.01669 0.67063 0.9635 0.0
H1322 H 0.98234 0.67153 0.03929 0.0
H1323 H 0.03346 0.72062 0.97265 0.0
H1324 H 0.0014 0.67129 0.98975 0.0
H1325 H 0.99729 0.72427 0.01191 0.0
C1326 C 0.98426 0.71309 0.03226 0.0
C1327 C 0.97978 0.69827 0.04019 0.0
C1328 C 0.00849 0.68208 0.98603 0.0
C1329 C 0.99921 0.6974 0.01148 0.0
C1330 C 0.01714 0.68174 0.97104 0.0
C1331 C 0.02634 0.69559 0.96593 0.0
C1332 C 0.00878 0.69648 0.99582 0.0
C1333 C 0.02655 0.70966 0.97618 0.0
C1334 C 0.99411 0.71272 0.018 0.0
C1335 C 0.98557 0.68325 0.03358 0.0
N1336 N 0.01777 0.70981 0.99059 0.0
N1337 N 0.99484 0.68318 0.0195 0.0
H1338 H 0.57948 0.26673 0.20839 0.0
H1339 H 0.52766 0.2131 0.27347 0.0
H1340 H 0.52613 0.26954 0.21178 0.0
H1341 H 0.57832 0.22814 0.28198 0.0
H1342 H 0.52737 0.22972 0.24797 0.0
H1343 H 0.57973 0.2483 0.23254 0.0
C1344 C 0.56781 0.26334 0.21413 0.0
C1345 C 0.55276 0.2697 0.20814 0.0
C1346 C 0.53854 0.22933 0.25543 0.0
C1347 C 0.55297 0.24861 0.23565 0.0
C1348 C 0.53874 0.21983 0.26992 0.0
C1349 C 0.55303 0.21932 0.27984 0.0
C1350 C 0.55282 0.23812 0.25072 0.0
C1351 C 0.56703 0.22828 0.27471 0.0
C1352 C 0.56798 0.25291 0.22794 0.0
C1353 C 0.53801 0.26496 0.21608 0.0
N1354 N 0.5666 0.23727 0.26046 0.0
N1355 N 0.53847 0.25465 0.22942 0.0
H1356 H 0.04512 0.79568 0.52056 0.0
H1357 H 0.95411 0.79717 0.48198 0.0
H1358 H 0.00149 0.80227 0.55086 0.0
H1359 H 0.99808 0.80905 0.45387 0.0
H1360 H 0.97103 0.79568 0.50722 0.0
H1361 H 0.02779 0.79696 0.49577 0.0
C1362 C 0.03186 0.7973 0.522 0.0
C1363 C 0.02471 0.79888 0.53779 0.0
C1364 C 0.97694 0.79865 0.49552 0.0
C1365 C 0.00481 0.80032 0.50944 0.0
C1366 C 0.96733 0.79946 0.48113 0.0
C1367 C 0.97473 0.80324 0.46584 0.0
C1368 C 0.99411 0.80139 0.49454 0.0
C1369 C 0.99188 0.80613 0.46542 0.0
C1370 C 0.02199 0.79812 0.50784 0.0
C1371 C 0.00748 0.80103 0.53891 0.0
N1372 N 0.00101 0.80505 0.47954 0.0
N1373 N 0.99807 0.80163 0.5249 0.0
H1374 H 0.47308 0.22858 0.71123 0.0
H1375 H 0.41883 0.26597 0.78422 0.0
H1376 H 0.41965 0.23064 0.70878 0.0
H1377 H 0.46862 0.28305 0.77456 0.0
H1378 H 0.4194 0.25049 0.75808 0.0
H1379 H 0.47231 0.24637 0.73589 0.0
C1380 C 0.4612 0.23287 0.71583 0.0
C1381 C 0.4464 0.22815 0.70799 0.0
C1382 C 0.43016 0.25769 0.76165 0.0
C1383 C 0.44543 0.2482 0.73626 0.0
C1384 C 0.42987 0.26645 0.77659 0.0
C1385 C 0.44371 0.27577 0.78153 0.0
C1386 C 0.44449 0.258 0.75177 0.0
C1387 C 0.45768 0.27603 0.77116 0.0
C1388 C 0.46078 0.24303 0.72986 0.0
C1389 C 0.43135 0.23405 0.71444 0.0
N1390 N 0.45778 0.26714 0.75682 0.0
N1391 N 0.43123 0.24362 0.72833 0.0
H1392 H 0.96816 0.96988 0.27485 0.0
H1393 H 0.03929 0.01227 0.32914 0.0
H1394 H 0.96446 0.97552 0.32794 0.0
H1395 H 0.03335 0.02157 0.27677 0.0
H1396 H 0.01359 0.99599 0.32882 0.0
H1397 H 0.9936 0.98646 0.27516 0.0
C1398 C 0.97266 0.9747 0.28657 0.0
C1399 C 0.96418 0.97137 0.30139 0.0
C1400 C 0.01793 0.00159 0.3174 0.0
C1401 C 0.99341 0.99009 0.30187 0.0
C1402 C 0.03264 0.01077 0.31755 0.0
C1403 C 0.03844 0.01826 0.30295 0.0
C1404 C 0.0091 0.99971 0.3025 0.0
C1405 C 0.0293 0.01601 0.28831 0.0
C1406 C 0.98717 0.98415 0.28673 0.0
C1407 C 0.97057 0.97789 0.31622 0.0
N1408 N 0.01511 0.00689 0.28844 0.0
N1409 N 0.98489 0.98683 0.31611 0.0
H1410 H 0.22213 0.28099 0.53076 0.0
H1411 H 0.26798 0.21042 0.58174 0.0
H1412 H 0.23248 0.28624 0.58301 0.0
H1413 H 0.27898 0.21966 0.53019 0.0
H1414 H 0.25125 0.23583 0.58239 0.0
H1415 H 0.23934 0.25592 0.5302 0.0
C1416 C 0.22799 0.27682 0.54211 0.0
C1417 C 0.22593 0.28566 0.55696 0.0
C1418 C 0.25738 0.23228 0.57097 0.0
C1419 C 0.24538 0.257 0.55642 0.0
C1420 C 0.26684 0.21779 0.57057 0.0
C1421 C 0.27487 0.213 0.55589 0.0
C1422 C 0.25564 0.24181 0.55651 0.0
C1423 C 0.27304 0.22299 0.54177 0.0
C1424 C 0.23785 0.2626 0.54176 0.0
C1425 C 0.23383 0.27979 0.5713 0.0
N1426 N 0.26349 0.23687 0.54237 0.0
N1427 N 0.24312 0.26572 0.57072 0.0
H1428 H 0.97829 0.45841 0.79229 0.0
H1429 H 0.01907 0.54801 0.79741 0.0
H1430 H 0.95029 0.50096 0.80873 0.0
H1431 H 0.04707 0.50318 0.80578 0.0
H1432 H 0.99345 0.53154 0.79695 0.0
H1433 H 0.00348 0.47533 0.79232 0.0
C1434 C 0.97743 0.47136 0.79579 0.0
C1435 C 0.9622 0.47832 0.80054 0.0
C1436 C 0.00522 0.52536 0.7989 0.0
C1437 C 0.99093 0.49772 0.80048 0.0
C1438 C 0.01982 0.5347 0.79911 0.0
C1439 C 0.03517 0.52691 0.80166 0.0
C1440 C 0.00607 0.50809 0.80091 0.0
C1441 C 0.03546 0.50966 0.80385 0.0
C1442 C 0.99181 0.48096 0.79589 0.0
C1443 C 0.96181 0.49513 0.80504 0.0
N1444 N 0.02113 0.50079 0.80329 0.0
N1445 N 0.97597 0.50432 0.80482 0.0
H1446 H 0.76693 0.20915 0.08234 0.0
H1447 H 0.71649 0.27558 0.02901 0.0
H1448 H 0.76915 0.21048 0.02888 0.0
H1449 H 0.73312 0.28496 0.07901 0.0
H1450 H 0.73156 0.24912 0.02934 0.0
H1451 H 0.74997 0.23437 0.08194 0.0
C1452 C 0.76369 0.21465 0.07052 0.0
C1453 C 0.76948 0.20778 0.05562 0.0
C1454 C 0.73188 0.25699 0.04022 0.0
C1455 C 0.75009 0.23652 0.05509 0.0
C1456 C 0.72327 0.27204 0.04006 0.0
C1457 C 0.72364 0.28247 0.05398 0.0
C1458 C 0.74063 0.25225 0.05451 0.0
C1459 C 0.73261 0.27732 0.06798 0.0
C1460 C 0.75411 0.22907 0.07031 0.0
C1461 C 0.76498 0.21544 0.04065 0.0
N1462 N 0.74068 0.26252 0.06792 0.0
N1463 N 0.75552 0.22941 0.04075 0.0
H1464 H 0.03319 0.98457 0.66665 0.0
H1465 H 0.95601 0.01481 0.71969 0.0
H1466 H 0.02117 0.9629 0.71409 0.0
H1467 H 0.9566 0.01766 0.66626 0.0
H1468 H 0.98131 0.99797 0.71875 0.0
H1469 H 0.00662 0.99939 0.66708 0.0
C1470 C 0.02497 0.98296 0.67715 0.0
C1471 C 0.02935 0.97252 0.69036 0.0
C1472 C 0.9758 0.00217 0.70724 0.0
C1473 C 0.99912 0.98947 0.69098 0.0
C1474 C 0.9614 0.01177 0.70777 0.0
C1475 C 0.95423 0.01759 0.69303 0.0
C1476 C 0.98325 0.99868 0.69188 0.0
C1477 C 0.96171 0.01333 0.6779 0.0
C1478 C 0.0098 0.99133 0.67735 0.0
C1479 C 0.01822 0.97081 0.70364 0.0
N1480 N 0.97594 0.00429 0.67772 0.0
N1481 N 0.00367 0.97931 0.70369 0.0
H1482 H 0.23295 0.2074 0.97095 0.0
H1483 H 0.26946 0.28152 0.91738 0.0
H1484 H 0.23759 0.20458 0.91771 0.0
H1485 H 0.28404 0.27349 0.96825 0.0
H1486 H 0.25498 0.2548 0.91765 0.0
H1487 H 0.2493 0.23304 0.97069 0.0
C1488 C 0.23752 0.21212 0.95923 0.0
C1489 C 0.23395 0.20387 0.94433 0.0
C1490 C 0.26141 0.25888 0.92872 0.0
C1491 C 0.25232 0.23327 0.94392 0.0
C1492 C 0.26958 0.27414 0.92861 0.0
C1493 C 0.27794 0.27969 0.94282 0.0
C1494 C 0.26135 0.24926 0.94324 0.0
C1495 C 0.27777 0.26963 0.95702 0.0
C1496 C 0.24684 0.22672 0.95909 0.0
C1497 C 0.24014 0.21052 0.92948 0.0
N1498 N 0.26948 0.25494 0.95692 0.0
N1499 N 0.24887 0.22494 0.92962 0.0
H1500 H 0.0422 0.48384 0.2219 0.0
H1501 H 0.96603 0.51653 0.1688 0.0
H1502 H 0.043 0.48459 0.16839 0.0
H1503 H 0.97591 0.5345 0.21823 0.0
H1504 H 0.99288 0.50226 0.16897 0.0
H1505 H 0.01665 0.50031 0.22144 0.0
C1506 C 0.03706 0.4876 0.21006 0.0
C1507 C 0.0447 0.48288 0.19516 0.0
C1508 C 0.98918 0.50938 0.17974 0.0
C1509 C 0.01539 0.50138 0.19454 0.0
C1510 C 0.97385 0.51744 0.17969 0.0
C1511 C 0.96877 0.52667 0.19353 0.0
C1512 C 0.99936 0.51034 0.19385 0.0
C1513 C 0.97939 0.52752 0.2073 0.0
C1514 C 0.02251 0.49699 0.20981 0.0
C1515 C 0.03753 0.48804 0.18016 0.0
N1516 N 0.99414 0.51933 0.20717 0.0
N1517 N 0.02315 0.49686 0.18023 0.0
H1518 H 0.72643 0.21777 0.41826 0.0
H1519 H 0.7679 0.28823 0.47291 0.0
H1520 H 0.71247 0.22565 0.46932 0.0
H1521 H 0.7629 0.29248 0.41979 0.0
H1522 H 0.74976 0.26381 0.47232 0.0
H1523 H 0.7423 0.24367 0.41892 0.0
C1524 C 0.72671 0.22498 0.4296 0.0
C1525 C 0.71816 0.21961 0.44376 0.0
C1526 C 0.75254 0.27019 0.46083 0.0
C1527 C 0.73637 0.24906 0.44465 0.0
C1528 C 0.7629 0.28408 0.46115 0.0
C1529 C 0.76688 0.29234 0.44637 0.0
C1530 C 0.74643 0.26438 0.44559 0.0
C1531 C 0.76008 0.28647 0.43147 0.0
C1532 C 0.73568 0.23976 0.42995 0.0
C1533 C 0.71886 0.22941 0.45812 0.0
N1534 N 0.75033 0.27273 0.43143 0.0
N1535 N 0.72796 0.24361 0.45826 0.0
H1536 H 0.30824 0.94379 0.00384 0.0
H1537 H 0.31075 0.04226 0.00389 0.0
H1538 H 0.29346 0.97287 0.9614 0.0
H1539 H 0.29999 0.01471 0.04849 0.0
H1540 H 0.30895 0.01646 0.98791 0.0
H1541 H 0.30942 0.96934 0.02045 0.0
C1542 C 0.30519 0.95553 0.99805 0.0
C1543 C 0.3007 0.95625 0.98126 0.0
C1544 C 0.30698 0.01609 0.0012 0.0
C1545 C 0.30236 0.98538 -0.0 0.0
C1546 C 0.30809 0.03076 0.01032 0.0
C1547 C 0.30548 0.03058 0.02751 0.0
C1548 C 0.30357 0.0011 0.00938 0.0
C1549 C 0.30201 0.01536 0.03523 0.0
C1550 C 0.30584 0.97006 0.00752 0.0
C1551 C 0.29689 0.97176 0.97434 0.0
N1552 N 0.30127 0.00117 0.02613 0.0
N1553 N 0.29796 0.98574 0.98369 0.0
H1554 H 0.83245 0.04131 0.51161 0.0
H1555 H 0.77843 0.97422 0.46282 0.0
H1556 H 0.77914 0.03884 0.51584 0.0
H1557 H 0.8294 0.96585 0.47686 0.0
H1558 H 0.77886 0.00048 0.47821 0.0
H1559 H 0.83194 0.01615 0.49458 0.0
C1560 C 0.82063 0.03555 0.50882 0.0
C1561 C 0.80581 0.0421 0.51516 0.0
C1562 C 0.78994 0.99287 0.47789 0.0
C1563 C 0.80515 0.01344 0.49568 0.0
C1564 C 0.78972 0.97795 0.46909 0.0
C1565 C 0.80388 0.96786 0.46864 0.0
C1566 C 0.80451 0.99784 0.48602 0.0
C1567 C 0.81818 0.97323 0.47698 0.0
C1568 C 0.82036 0.02116 0.49919 0.0
C1569 C 0.79085 0.03413 0.51124 0.0
N1570 N 0.81816 0.98791 0.48527 0.0
N1571 N 0.79088 0.02022 0.5017 0.0
H1572 H 0.28343 0.08058 0.72874 0.0
H1573 H 0.21044 0.02603 0.76611 0.0
H1574 H 0.2764 0.02934 0.71495 0.0
H1575 H 0.20655 0.07914 0.76078 0.0
H1576 H 0.23606 0.02659 0.74974 0.0
H1577 H 0.25671 0.08 0.74324 0.0
C1578 C 0.27626 0.06921 0.72879 0.0
C1579 C 0.28209 0.05498 0.72066 0.0
C1580 C 0.22951 0.03809 0.75206 0.0
C1581 C 0.25168 0.0542 0.73728 0.0
C1582 C 0.21493 0.03778 0.7614 0.0
C1583 C 0.20639 0.05256 0.76477 0.0
C1584 C 0.23575 0.05332 0.74636 0.0
C1585 C 0.21274 0.06746 0.7584 0.0
C1586 C 0.261 0.06891 0.73698 0.0
C1587 C 0.2723 0.04059 0.72104 0.0
N1588 N 0.22714 0.06749 0.74964 0.0
N1589 N 0.25763 0.04052 0.72934 0.0
H1590 H 0.22389 0.46884 0.02192 0.0
H1591 H 0.17197 0.54128 0.97884 0.0
H1592 H 0.17097 0.46617 0.01433 0.0
H1593 H 0.22426 0.53418 0.96986 0.0
H1594 H 0.17167 0.51578 0.99535 0.0
H1595 H 0.22456 0.49467 0.00588 0.0
C1596 C 0.21243 0.47366 0.01683 0.0
C1597 C 0.19736 0.46534 0.01939 0.0
C1598 C 0.18321 0.51984 0.98979 0.0
C1599 C 0.198 0.49495 0.00132 0.0
C1600 C 0.18342 0.53443 0.98047 0.0
C1601 C 0.19816 0.53982 0.97296 0.0
C1602 C 0.1979 0.51069 0.99181 0.0
C1603 C 0.21262 0.53043 0.97541 0.0
C1604 C 0.21282 0.48838 0.00769 0.0
C1605 C 0.18287 0.47215 0.01255 0.0
N1606 N 0.21214 0.51633 0.98467 0.0
N1607 N 0.18353 0.48662 0.00392 0.0
H1608 H 0.27915 0.97491 0.2753 0.0
H1609 H 0.20866 0.92192 0.23039 0.0
H1610 H 0.28396 0.92247 0.26577 0.0
H1611 H 0.21424 0.97459 0.2227 0.0
H1612 H 0.23417 0.92197 0.24693 0.0
H1613 H 0.25338 0.97515 0.25914 0.0
C1614 C 0.2748 0.96347 0.26975 0.0
C1615 C 0.2837 0.94866 0.27181 0.0
C1616 C 0.22977 0.93352 0.24165 0.0
C1617 C 0.25417 0.94879 0.25361 0.0
C1618 C 0.21517 0.93352 0.23232 0.0
C1619 C 0.20936 0.94828 0.22517 0.0
C1620 C 0.23847 0.94842 0.24404 0.0
C1621 C 0.21833 0.96294 0.22797 0.0
C1622 C 0.26012 0.96361 0.26054 0.0
C1623 C 0.27751 0.93417 0.2644 0.0
N1624 N 0.23242 0.96265 0.23724 0.0
N1625 N 0.26306 0.93457 0.25573 0.0
H1626 H 0.70362 0.97434 0.04274 0.0
H1627 H 0.69483 0.01939 0.95568 0.0
H1628 H 0.68808 0.94749 0.99913 0.0
H1629 H 0.68529 0.04438 0.00203 0.0
H1630 H 0.69659 0.99293 0.97067 0.0
H1631 H 0.70153 0.00028 0.0272 0.0
C1632 C 0.69989 0.9739 0.02984 0.0
C1633 C 0.69601 0.95875 0.02219 0.0
C1634 C 0.69405 0.00422 0.97751 0.0
C1635 C 0.69369 0.98839 0.00435 0.0
C1636 C 0.6931 0.01929 0.969 0.0
C1637 C 0.6899 0.03406 0.97766 0.0
C1638 C 0.69215 0.00401 0.99481 0.0
C1639 C 0.68771 0.03326 0.99489 0.0
C1640 C 0.6986 0.98871 0.02103 0.0
C1641 C 0.69114 0.95892 0.00548 0.0
N1642 N 0.68904 0.0185 0.00293 0.0
N1643 N 0.69021 0.97353 0.99705 0.0
H1644 H 0.2994 0.44661 0.75218 0.0
H1645 H 0.20121 0.44898 0.74886 0.0
H1646 H 0.27023 0.46035 0.79489 0.0
H1647 H 0.23097 0.46176 0.70627 0.0
H1648 H 0.22635 0.44927 0.76606 0.0
H1649 H 0.27431 0.44827 0.73497 0.0
C1650 C 0.28773 0.45 0.75791 0.0
C1651 C 0.28686 0.45339 0.77495 0.0
C1652 C 0.22731 0.4521 0.75296 0.0
C1653 C 0.25821 0.45501 0.75549 0.0
C1654 C 0.21302 0.45189 0.74316 0.0
C1655 C 0.21404 0.4554 0.72616 0.0
C1656 C 0.24275 0.45544 0.7456 0.0
C1657 C 0.22965 0.45909 0.71936 0.0
C1658 C 0.27347 0.451 0.7481 0.0
C1659 C 0.27144 0.45773 0.78178 0.0
N1660 N 0.24343 0.45884 0.72907 0.0
N1661 N 0.25767 0.45825 0.77206 0.0
H1662 H 0.73177 0.04804 0.2991 0.0
H1663 H 0.77453 0.04037 0.21054 0.0
H1664 H 0.70505 0.0557 0.25337 0.0
H1665 H 0.802 0.05653 0.25354 0.0
H1666 H 0.74898 0.04127 0.22685 0.0
H1667 H 0.75779 0.04677 0.2833 0.0
C1668 C 0.73139 0.04942 0.28574 0.0
C1669 C 0.71627 0.052 0.2775 0.0
C1670 C 0.7606 0.04459 0.23272 0.0
C1671 C 0.74583 0.05033 0.25943 0.0
C1672 C 0.7752 0.04399 0.22346 0.0
C1673 C 0.79039 0.0484 0.23071 0.0
C1674 C 0.76122 0.04937 0.24944 0.0
C1675 C 0.79052 0.05307 0.24748 0.0
C1676 C 0.74621 0.04876 0.27677 0.0
C1677 C 0.71646 0.05377 0.26019 0.0
N1678 N 0.77613 0.05336 0.25634 0.0
N1679 N 0.73099 0.05277 0.25171 0.0
H1680 H 0.95873 0.79376 0.76589 0.0
H1681 H 0.96149 0.70393 0.72598 0.0
H1682 H 0.94277 0.75042 0.79292 0.0
H1683 H 0.94901 0.74691 0.69664 0.0
H1684 H 0.96027 0.72105 0.75105 0.0
H1685 H 0.96068 0.77689 0.74062 0.0
C1686 C 0.95573 0.78067 0.76651 0.0
C1687 C 0.95057 0.77343 0.78147 0.0
C1688 C 0.95784 0.72671 0.73911 0.0
C1689 C 0.953 0.75415 0.75278 0.0
C1690 C 0.95863 0.71701 0.72481 0.0
C1691 C 0.95533 0.72405 0.70924 0.0
C1692 C 0.95409 0.74364 0.7378 0.0
C1693 C 0.95159 0.74103 0.70843 0.0
C1694 C 0.95677 0.77112 0.7521 0.0
C1695 C 0.94674 0.75646 0.7816 0.0
N1696 N 0.95118 0.75031 0.72253 0.0
N1697 N 0.94817 0.74734 0.76749 0.0
H1698 H 0.07729 0.74032 0.29256 0.0
H1699 H 0.02393 0.77465 0.21718 0.0
H1700 H 0.02797 0.72226 0.28229 0.0
H1701 H 0.07739 0.77272 0.21567 0.0
H1702 H 0.02439 0.75836 0.24287 0.0
H1703 H 0.07683 0.75555 0.26623 0.0
C1704 C 0.06635 0.73962 0.28479 0.0
C1705 C 0.05264 0.73003 0.28957 0.0
C1706 C 0.036 0.76143 0.23684 0.0
C1707 C 0.052 0.74746 0.25961 0.0
C1708 C 0.03575 0.77072 0.22222 0.0
C1709 C 0.05064 0.77498 0.2143 0.0
C1710 C 0.05127 0.75668 0.24374 0.0
C1711 C 0.06562 0.76961 0.22135 0.0
C1712 C 0.06614 0.74822 0.26976 0.0
C1713 C 0.03881 0.72948 0.27902 0.0
N1714 N 0.06557 0.76087 0.23578 0.0
N1715 N 0.03878 0.73818 0.26457 0.0
H1716 H 0.55923 0.79808 0.72316 0.0
H1717 H 0.54295 0.70981 0.7638 0.0
H1718 H 0.55378 0.75393 0.69341 0.0
H1719 H 0.57073 0.74813 0.78881 0.0
H1720 H 0.5429 0.72679 0.73854 0.0
H1721 H 0.55974 0.78085 0.74815 0.0
C1722 C 0.55815 0.78474 0.72191 0.0
C1723 C 0.55648 0.77738 0.70623 0.0
C1724 C 0.549 0.73144 0.74957 0.0
C1725 C 0.55682 0.75768 0.73473 0.0
C1726 C 0.54895 0.72184 0.76399 0.0
C1727 C 0.55684 0.72762 0.77839 0.0
C1728 C 0.55673 0.74704 0.74968 0.0
C1729 C 0.56452 0.74322 0.77795 0.0
C1730 C 0.55849 0.77494 0.73614 0.0
C1731 C 0.55516 0.76005 0.70528 0.0
N1732 N 0.56418 0.75246 0.76386 0.0
N1733 N 0.55521 0.75076 0.71938 0.0
H1734 H 0.46727 0.72133 0.21921 0.0
H1735 H 0.41539 0.76627 0.28969 0.0
H1736 H 0.41492 0.73099 0.2137 0.0
H1737 H 0.46654 0.77878 0.28011 0.0
H1738 H 0.41515 0.74932 0.2644 0.0
H1739 H 0.46746 0.73853 0.24432 0.0
C1740 C 0.45582 0.72703 0.22333 0.0
C1741 C 0.44106 0.7248 0.21441 0.0
C1742 C 0.42639 0.75582 0.26786 0.0
C1743 C 0.44117 0.74419 0.2431 0.0
C1744 C 0.42657 0.76541 0.28227 0.0
C1745 C 0.441 0.77394 0.28691 0.0
C1746 C 0.44086 0.75447 0.25827 0.0
C1747 C 0.45514 0.77246 0.27688 0.0
C1748 C 0.45596 0.73687 0.23758 0.0
C1749 C 0.42657 0.73249 0.22021 0.0
N1750 N 0.45477 0.76278 0.26308 0.0
N1751 N 0.42695 0.74175 0.2343 0.0
H1752 H 0.24771 0.69562 0.057 0.0
H1753 H 0.24746 0.79426 0.06094 0.0
H1754 H 0.29015 0.72537 0.0436 0.0
H1755 H 0.20276 0.76666 0.0507 0.0
H1756 H 0.26343 0.7685 0.059 0.0
H1757 H 0.23094 0.72107 0.05873 0.0
C1758 C 0.25346 0.70748 0.05437 0.0
C1759 C 0.27031 0.70842 0.0501 0.0
C1760 C 0.25012 0.76809 0.05718 0.0
C1761 C 0.25139 0.73741 0.05237 0.0
C1762 C 0.24101 0.78275 0.05837 0.0
C1763 C 0.22379 0.78257 0.05593 0.0
C1764 C 0.24193 0.75309 0.05383 0.0
C1765 C 0.21605 0.76732 0.05258 0.0
C1766 C 0.24391 0.72195 0.05534 0.0
C1767 C 0.27718 0.72408 0.04685 0.0
N1768 N 0.22516 0.75314 0.05172 0.0
N1769 N 0.26774 0.73796 0.04819 0.0
H1770 H 0.7846 0.7242 0.52935 0.0
H1771 H 0.73261 0.79205 0.57929 0.0
H1772 H 0.77136 0.7187 0.58092 0.0
H1773 H 0.72841 0.78609 0.52626 0.0
H1774 H 0.75104 0.76795 0.58024 0.0
H1775 H 0.76802 0.7497 0.52817 0.0
C1776 C 0.77828 0.72842 0.54044 0.0
C1777 C 0.77928 0.71934 0.55525 0.0
C1778 C 0.74612 0.77196 0.5684 0.0
C1779 C 0.76052 0.74845 0.55401 0.0
C1780 C 0.73568 0.78574 0.56783 0.0
C1781 C 0.72894 0.79101 0.55268 0.0
C1782 C 0.75004 0.76352 0.55368 0.0
C1783 C 0.73329 0.78236 0.53821 0.0
C1784 C 0.7688 0.7429 0.53973 0.0
C1785 C 0.77084 0.7253 0.56924 0.0
N1786 N 0.74361 0.76904 0.53905 0.0
N1787 N 0.76186 0.73953 0.5683 0.0
H1788 H 0.2286 0.71605 0.47321 0.0
H1789 H 0.26872 0.78808 0.41925 0.0
H1790 H 0.23272 0.71315 0.41993 0.0
H1791 H 0.28219 0.78006 0.47042 0.0
H1792 H 0.25314 0.76201 0.41959 0.0
H1793 H 0.24618 0.74087 0.47289 0.0
C1794 C 0.23328 0.72059 0.46147 0.0
C1795 C 0.22921 0.71258 0.44657 0.0
C1796 C 0.25957 0.76593 0.43072 0.0
C1797 C 0.24904 0.741 0.44609 0.0
C1798 C 0.26839 0.78082 0.43055 0.0
C1799 C 0.27672 0.78621 0.44484 0.0
C1800 C 0.25885 0.75651 0.44535 0.0
C1801 C 0.27595 0.77631 0.45914 0.0
C1802 C 0.24332 0.73471 0.46129 0.0
C1803 C 0.23561 0.71895 0.43169 0.0
N1804 N 0.26704 0.76199 0.45908 0.0
N1805 N 0.24507 0.7329 0.43181 0.0
H1806 H 0.70695 0.73062 0.95683 0.0
H1807 H 0.79554 0.77362 0.95343 0.0
H1808 H 0.75058 0.70452 0.9401 0.0
H1809 H 0.75058 0.8011 0.94401 0.0
H1810 H 0.77938 0.74791 0.95393 0.0
H1811 H 0.72303 0.75643 0.95754 0.0
C1812 C 0.71995 0.73031 0.95344 0.0
C1813 C 0.72748 0.71545 0.94838 0.0
C1814 C 0.77307 0.75958 0.95179 0.0
C1815 C 0.74588 0.7448 0.94933 0.0
C1816 C 0.78224 0.77425 0.95158 0.0
C1817 C 0.77435 0.78949 0.94865 0.0
C1818 C 0.75586 0.76019 0.94938 0.0
C1819 C 0.75712 0.78959 0.94625 0.0
C1820 C 0.72906 0.74503 0.95376 0.0
C1821 C 0.74432 0.71574 0.94402 0.0
N1822 N 0.7484 0.77514 0.94677 0.0
N1823 N 0.753 0.73018 0.94469 0.0
H1824 H 0.27911 0.52887 0.53521 0.0
H1825 H 0.33332 0.46047 0.48864 0.0
H1826 H 0.33045 0.53663 0.5222 0.0
H1827 H 0.28023 0.46385 0.48278 0.0
H1828 H 0.33277 0.48591 0.50529 0.0
H1829 H 0.27959 0.50251 0.52004 0.0
C1830 C 0.29049 0.52499 0.5292 0.0
C1831 C 0.30475 0.53494 0.52988 0.0
C1832 C 0.32125 0.48103 0.50039 0.0
C1833 C 0.30543 0.5048 0.51277 0.0
C1834 C 0.32154 0.46648 0.491 0.0
C1835 C 0.3068 0.4601 0.48431 0.0
C1836 C 0.30609 0.48907 0.50333 0.0
C1837 C 0.29187 0.46841 0.48766 0.0
C1838 C 0.29073 0.51 0.52053 0.0
C1839 C 0.31916 0.52936 0.52188 0.0
N1840 N 0.29188 0.48246 0.49699 0.0
N1841 N 0.31916 0.51461 0.51371 0.0
H1842 H 0.83113 0.46342 0.98443 0.0
H1843 H 0.77952 0.53173 0.03369 0.0
H1844 H 0.77814 0.46845 0.97881 0.0
H1845 H 0.83047 0.53913 0.01906 0.0
H1846 H 0.77907 0.50579 0.01778 0.0
H1847 H 0.83137 0.48848 0.00161 0.0
C1848 C 0.81953 0.46972 0.98694 0.0
C1849 C 0.80459 0.46392 0.98017 0.0
C1850 C 0.79032 0.51312 0.01808 0.0
C1851 C 0.80479 0.49244 -0.00015 0.0
C1852 C 0.79062 0.52785 0.02717 0.0
C1853 C 0.80504 0.53757 0.02762 0.0
C1854 C 0.80466 0.50793 0.00968 0.0
C1855 C 0.81907 0.53203 0.01895 0.0
C1856 C 0.8197 0.48405 0.99665 0.0
C1857 C 0.78992 0.47258 0.98375 0.0
N1858 N 0.81857 0.51751 0.0104 0.0
N1859 N 0.79037 0.48641 0.99341 0.0
H1860 H 0.27363 0.52988 0.21727 0.0
H1861 H 0.20486 0.58247 0.26522 0.0
H1862 H 0.28117 0.58084 0.23181 0.0
H1863 H 0.20919 0.52939 0.27052 0.0
H1864 H 0.22999 0.58246 0.24807 0.0
H1865 H 0.24711 0.5299 0.2322 0.0
C1866 C 0.26966 0.54108 0.22355 0.0
C1867 C 0.27961 0.55536 0.2234 0.0
C1868 C 0.22536 0.57083 0.25292 0.0
C1869 C 0.2493 0.55552 0.24022 0.0
C1870 C 0.21099 0.5708 0.2626 0.0
C1871 C 0.20501 0.55591 0.26933 0.0
C1872 C 0.2336 0.55582 0.24973 0.0
C1873 C 0.21346 0.54115 0.26563 0.0
C1874 C 0.25458 0.54106 0.23207 0.0
C1875 C 0.27391 0.56954 0.23173 0.0
N1876 N 0.22733 0.54146 0.25604 0.0
N1877 N 0.25908 0.56929 0.23975 0.0
H1878 H 0.22432 0.96826 0.52923 0.0
H1879 H 0.17192 0.03858 0.48356 0.0
H1880 H 0.17135 0.96518 0.52221 0.0
H1881 H 0.22405 0.03106 0.474 0.0
H1882 H 0.17185 0.01377 0.50103 0.0
H1883 H 0.22484 0.99324 0.51188 0.0
C1884 C 0.21281 0.97283 0.524 0.0
C1885 C 0.19777 0.96465 0.5271 0.0
C1886 C 0.18331 0.01757 0.49512 0.0
C1887 C 0.19825 0.99326 0.50752 0.0
C1888 C 0.18338 0.03176 0.48523 0.0
C1889 C 0.19802 0.03684 0.47731 0.0
C1890 C 0.19802 0.00851 0.49729 0.0
C1891 C 0.2125 0.02752 0.47985 0.0
C1892 C 0.21313 0.98704 0.5141 0.0
C1893 C 0.18322 0.97107 0.52004 0.0
N1894 N 0.21216 0.01381 0.48968 0.0
N1895 N 0.1838 0.98507 0.51067 0.0
H1896 H 0.665 0.53493 0.48492 0.0
H1897 H 0.71902 0.46936 0.53518 0.0
H1898 H 0.71832 0.53277 0.48077 0.0
H1899 H 0.66851 0.45962 0.52039 0.0
H1900 H 0.71855 0.49496 0.51878 0.0
H1901 H 0.66558 0.50956 0.50163 0.0
C1902 C 0.67683 0.52916 0.48761 0.0
C1903 C 0.69164 0.53591 0.48146 0.0
C1904 C 0.70759 0.48719 0.51912 0.0
C1905 C 0.69238 0.50705 0.50061 0.0
C1906 C 0.70783 0.47265 0.52851 0.0
C1907 C 0.69378 0.46239 0.5291 0.0
C1908 C 0.69311 0.49164 0.51054 0.0
C1909 C 0.67962 0.46717 0.5202 0.0
C1910 C 0.67714 0.51466 0.49706 0.0
C1911 C 0.70662 0.52791 0.48524 0.0
N1912 N 0.6796 0.48153 0.51136 0.0
N1913 N 0.70663 0.51393 0.49467 0.0
H1914 H 0.73112 0.55072 0.7927 0.0
H1915 H 0.77463 0.54861 0.70401 0.0
H1916 H 0.70405 0.55841 0.74717 0.0
H1917 H 0.80114 0.56127 0.74875 0.0
H1918 H 0.74868 0.54838 0.71981 0.0
H1919 H 0.75708 0.55075 0.77691 0.0
C1920 C 0.73065 0.55235 0.77937 0.0
C1921 C 0.71544 0.55458 0.7712 0.0
C1922 C 0.76018 0.55123 0.72614 0.0
C1923 C 0.74501 0.55451 0.75312 0.0
C1924 C 0.77498 0.5513 0.71717 0.0
C1925 C 0.79002 0.55498 0.7251 0.0
C1926 C 0.76048 0.5546 0.74322 0.0
C1927 C 0.78979 0.55843 0.74216 0.0
C1928 C 0.74545 0.55244 0.7704 0.0
C1929 C 0.71553 0.5567 0.75393 0.0
N1930 N 0.77524 0.55806 0.75069 0.0
N1931 N 0.73009 0.55652 0.74543 0.0
H1932 H 0.51915 0.32829 0.54179 0.0
H1933 H 0.47662 0.27581 0.46944 0.0
H1934 H 0.5255 0.27534 0.53724 0.0
H1935 H 0.48758 0.328 0.46492 0.0
H1936 H 0.4914 0.27534 0.49602 0.0
H1937 H 0.50394 0.3284 0.51548 0.0
C1938 C 0.51719 0.31667 0.53533 0.0
C1939 C 0.5236 0.30179 0.54168 0.0
C1940 C 0.49062 0.28686 0.48915 0.0
C1941 C 0.50625 0.30182 0.51162 0.0
C1942 C 0.48221 0.28714 0.47401 0.0
C1943 C 0.48094 0.30195 0.46496 0.0
C1944 C 0.49756 0.30156 0.49542 0.0
C1945 C 0.48836 0.31629 0.47146 0.0
C1946 C 0.50863 0.31676 0.52028 0.0
C1947 C 0.52079 0.28709 0.53276 0.0
N1948 N 0.49625 0.31577 0.48636 0.0
N1949 N 0.51229 0.28747 0.51819 0.0
H1950 H 0.519 0.22414 0.96297 0.0
H1951 H 0.48034 0.16971 0.03526 0.0
H1952 H 0.51462 0.17091 0.95954 0.0
H1953 H 0.46507 0.22034 0.02704 0.0
H1954 H 0.49572 0.17043 0.00907 0.0
H1955 H 0.50161 0.22361 0.98796 0.0
C1956 C 0.51428 0.21237 0.96742 0.0
C1957 C 0.51822 0.19754 0.95921 0.0
C1958 C 0.48895 0.18135 0.01298 0.0
C1959 C 0.49868 0.19683 0.98783 0.0
C1960 C 0.48026 0.18098 0.02794 0.0
C1961 C 0.47145 0.19499 0.03328 0.0
C1962 C 0.48908 0.19594 0.00346 0.0
C1963 C 0.47168 0.20926 0.02331 0.0
C1964 C 0.50436 0.21208 0.98163 0.0
C1965 C 0.51182 0.18263 0.96548 0.0
N1966 N 0.48049 0.20943 0.00892 0.0
N1967 N 0.50251 0.18263 0.97953 0.0
H1968 H 0.51246 0.67128 0.46169 0.0
H1969 H 0.47289 0.72512 0.53447 0.0
H1970 H 0.52295 0.72344 0.4675 0.0
H1971 H 0.48102 0.67239 0.53871 0.0
H1972 H 0.48817 0.72504 0.50817 0.0
H1973 H 0.49733 0.67172 0.48805 0.0
C1974 C 0.51144 0.68285 0.46844 0.0
C1975 C 0.51896 0.69735 0.46244 0.0
C1976 C 0.48667 0.71352 0.51492 0.0
C1977 C 0.50169 0.69793 0.49251 0.0
C1978 C 0.47797 0.71355 0.5299 0.0
C1979 C 0.47575 0.69875 0.53877 0.0
C1980 C 0.4929 0.69852 0.50863 0.0
C1981 C 0.48255 0.68409 0.53229 0.0
C1982 C 0.50292 0.68306 0.48352 0.0
C1983 C 0.51735 0.71198 0.47173 0.0
N1984 N 0.4907 0.68432 0.51753 0.0
N1985 N 0.50883 0.71193 0.48628 0.0
H1986 H 0.48286 0.82975 0.96287 0.0
H1987 H 0.51978 0.77648 0.03703 0.0
H1988 H 0.46841 0.77888 0.97116 0.0
H1989 H 0.51564 0.82979 0.03932 0.0
H1990 H 0.50316 0.77661 0.01156 0.0
H1991 H 0.49747 0.82961 0.98951 0.0
C1992 C 0.48279 0.81855 0.97029 0.0
C1993 C 0.47445 0.8043 0.96483 0.0
C1994 C 0.50579 0.78826 0.01773 0.0
C1995 C 0.49119 0.80402 0.99518 0.0
C1996 C 0.51528 0.78819 0.03222 0.0
C1997 C 0.51907 0.80315 0.04025 0.0
C1998 C 0.50036 0.80341 0.01108 0.0
C1999 C 0.51294 0.81798 0.03352 0.0
C2000 C 0.49104 0.81851 0.98551 0.0
C2001 C 0.47468 0.79014 0.97495 0.0
N2002 N 0.50403 0.81776 0.01921 0.0
N2003 N 0.48304 0.79031 0.9896 0.0
H2004 H 0.46367 0.97418 0.77659 0.0
H2005 H 0.53534 0.01722 0.82915 0.0
H2006 H 0.46016 0.98245 0.82936 0.0
H2007 H 0.52902 0.02663 0.77684 0.0
H2008 H 0.50954 0.00127 0.8291 0.0
H2009 H 0.48921 0.99072 0.77604 0.0
C2010 C 0.46823 0.97956 0.78803 0.0
C2011 C 0.45981 0.97698 0.80305 0.0
C2012 C 0.5138 0.00683 0.81763 0.0
C2013 C 0.48906 0.99559 0.80254 0.0
C2014 C 0.52857 0.01583 0.81763 0.0
C2015 C 0.5343 0.02325 0.80297 0.0
C2016 C 0.50481 0.00502 0.80283 0.0
C2017 C 0.525 0.02112 0.78841 0.0
C2018 C 0.48277 0.98898 0.7877 0.0
C2019 C 0.46624 0.98419 0.81751 0.0
N2020 N 0.51072 0.01213 0.78868 0.0
N2021 N 0.48056 0.99305 0.81693 0.0
H2022 H 0.53465 0.52569 0.27582 0.0
H2023 H 0.46312 0.48548 0.33071 0.0
H2024 H 0.53988 0.51702 0.32838 0.0
H2025 H 0.46795 0.47497 0.27845 0.0
H2026 H 0.48941 0.50064 0.32978 0.0
H2027 H 0.50848 0.51014 0.2762 0.0
C2028 C 0.53033 0.52043 0.28741 0.0
C2029 C 0.53943 0.52259 0.30209 0.0
C2030 C 0.4847 0.49503 0.31852 0.0
C2031 C 0.50947 0.50514 0.30265 0.0
C2032 C 0.46965 0.48649 0.31901 0.0
C2033 C 0.46338 0.47897 0.30463 0.0
C2034 C 0.4934 0.49628 0.30349 0.0
C2035 C 0.47239 0.48057 0.28982 0.0
C2036 C 0.51543 0.51157 0.28761 0.0
C2037 C 0.53328 0.51556 0.31677 0.0
N2038 N 0.48694 0.48913 0.2896 0.0
N2039 N 0.5186 0.50728 0.31671 0.0
H2040 H 0.52371 0.95892 0.20893 0.0
H2041 H 0.48235 0.04825 0.20369 0.0
H2042 H 0.55183 0.00167 0.1932 0.0
H2043 H 0.45512 0.0032 0.19399 0.0
H2044 H 0.50814 0.03202 0.20471 0.0
H2045 H 0.49849 0.97577 0.20868 0.0
C2046 C 0.52459 0.9719 0.20555 0.0
C2047 C 0.53986 0.97893 0.20104 0.0
C2048 C 0.4965 0.02575 0.20235 0.0
C2049 C 0.51109 0.99824 0.20084 0.0
C2050 C 0.48181 0.03495 0.20182 0.0
C2051 C 0.46663 0.02702 0.19872 0.0
C2052 C 0.49588 0.00849 0.20013 0.0
C2053 C 0.46659 0.00979 0.19634 0.0
C2054 C 0.51019 0.98146 0.20532 0.0
C2055 C 0.54028 0.99579 0.1967 0.0
N2056 N 0.48098 0.00108 0.19722 0.0
N2057 N 0.52608 0.00493 0.19678 0.0
H2058 H 0.52954 0.47216 0.7239 0.0
H2059 H 0.46003 0.51742 0.67105 0.0
H2060 H 0.53672 0.48397 0.6722 0.0
H2061 H 0.46778 0.52913 0.72269 0.0
H2062 H 0.48555 0.50085 0.67131 0.0
H2063 H 0.50409 0.48893 0.72383 0.0
C2064 C 0.52572 0.47824 0.71254 0.0
C2065 C 0.53521 0.47675 0.69804 0.0
C2066 C 0.48164 0.50708 0.68256 0.0
C2067 C 0.50615 0.49561 0.69783 0.0
C2068 C 0.46709 0.51645 0.68244 0.0
C2069 C 0.46187 0.52466 0.69686 0.0
C2070 C 0.49079 0.50561 0.69729 0.0
C2071 C 0.47147 0.52305 0.71129 0.0
C2072 C 0.51129 0.48783 0.71253 0.0
C2073 C 0.52978 0.4849 0.68366 0.0
N2074 N 0.48542 0.51358 0.71119 0.0
N2075 N 0.51551 0.49388 0.68386 0.0
H2076 H 0.72424 0.97097 0.71459 0.0
H2077 H 0.79085 0.91961 0.76679 0.0
H2078 H 0.71505 0.92135 0.73241 0.0
H2079 H 0.78864 0.97308 0.76779 0.0
H2080 H 0.76583 0.91923 0.74951 0.0
H2081 H 0.75066 0.97114 0.72969 0.0
C2082 C 0.72783 0.9601 0.72163 0.0
C2083 C 0.71745 0.94615 0.72234 0.0
C2084 C 0.7709 0.93103 0.75345 0.0
C2085 C 0.74763 0.94619 0.73939 0.0
C2086 C 0.78521 0.93127 0.76321 0.0
C2087 C 0.79175 0.9464 0.76875 0.0
C2088 C 0.76327 0.94604 0.74901 0.0
C2089 C 0.78392 0.96114 0.76382 0.0
C2090 C 0.74285 0.96023 0.73025 0.0
C2091 C 0.72265 0.93239 0.73164 0.0
N2092 N 0.77009 0.96061 0.75419 0.0
N2093 N 0.73743 0.93273 0.73975 0.0
H2094 H 0.77104 0.45588 0.28919 0.0
H2095 H 0.72721 0.44783 0.20129 0.0
H2096 H 0.79738 0.43796 0.24617 0.0
H2097 H 0.70059 0.44088 0.24719 0.0
H2098 H 0.75329 0.44881 0.21692 0.0
H2099 H 0.74519 0.4553 0.27324 0.0
C2100 C 0.7714 0.45196 0.27634 0.0
C2101 C 0.78634 0.44695 0.26896 0.0
C2102 C 0.74173 0.44704 0.22353 0.0
C2103 C 0.7569 0.44635 0.25069 0.0
C2104 C 0.72687 0.44653 0.21466 0.0
C2105 C 0.71176 0.44424 0.22299 0.0
C2106 C 0.74142 0.4456 0.24087 0.0
C2107 C 0.71199 0.44259 0.24031 0.0
C2108 C 0.75665 0.45153 0.26731 0.0
C2109 C 0.78609 0.44188 0.25232 0.0
N2110 N 0.72659 0.44344 0.24871 0.0
N2111 N 0.77159 0.4418 0.24368 0.0
H2112 H 0.04158 0.24698 0.08753 0.0
H2113 H 0.99265 0.22996 0.17135 0.0
H2114 H 0.04011 0.27942 0.13 0.0
H2115 H 0.99041 0.19668 0.12959 0.0
H2116 H 0.01583 0.24434 0.15846 0.0
H2117 H 0.02842 0.22505 0.10433 0.0
C2118 C 0.03891 0.24929 0.10049 0.0
C2119 C 0.04165 0.26501 0.10741 0.0
C2120 C 0.01053 0.23375 0.15213 0.0
C2121 C 0.02672 0.24028 0.12653 0.0
C2122 C 0.99733 0.22551 0.15955 0.0
C2123 C 0.98962 0.21229 0.15141 0.0
C2124 C 0.01573 0.22908 0.13616 0.0
C2125 C 0.99612 0.20689 0.1362 0.0
C2126 C 0.03135 0.23685 0.11003 0.0
C2127 C 0.03794 0.26751 0.12417 0.0
N2128 N 0.00861 0.21557 0.12883 0.0
N2129 N 0.03054 0.25536 0.13309 0.0
H2130 H 0.00152 0.28939 0.33728 0.0
H2131 H 0.01707 0.2394 0.42082 0.0
H2132 H 0.96779 0.28633 0.37865 0.0
H2133 H 0.05164 0.23852 0.38007 0.0
H2134 H 0.0025 0.26237 0.40777 0.0
H2135 H 0.02318 0.27629 0.35449 0.0
C2136 C 0.99885 0.28636 0.35009 0.0
C2137 C 0.98287 0.28864 0.35656 0.0
C2138 C 0.0134 0.2574 0.4017 0.0
C2139 C 0.00729 0.27382 0.37615 0.0
C2140 C 0.02173 0.24432 0.4092 0.0
C2141 C 0.03539 0.23705 0.40138 0.0
C2142 C 0.01843 0.26293 0.38595 0.0
C2143 C 0.04108 0.24387 0.38642 0.0
C2144 C 0.01114 0.27885 0.35987 0.0
C2145 C 0.97991 0.28451 0.37315 0.0
N2146 N 0.03232 0.25625 0.37894 0.0
N2147 N 0.99193 0.27718 0.3823 0.0
H2148 H 0.96137 0.25495 0.5895 0.0
H2149 H 0.00748 0.2728 0.67511 0.0
H2150 H 0.96631 0.22081 0.63036 0.0
H2151 H 0.01134 0.30559 0.63309 0.0
H2152 H 0.98538 0.25772 0.66111 0.0
H2153 H 0.9733 0.27704 0.60706 0.0
C2154 C 0.96462 0.25224 0.60226 0.0
C2155 C 0.96315 0.23607 0.6085 0.0
C2156 C 0.99081 0.26838 0.65497 0.0
C2157 C 0.97651 0.26101 0.6285 0.0
C2158 C 0.00336 0.27702 0.66303 0.0
C2159 C 0.01126 0.29028 0.65513 0.0
C2160 C 0.98646 0.2727 0.63866 0.0
C2161 C 0.00547 0.29537 0.63953 0.0
C2162 C 0.97144 0.26478 0.61222 0.0
C2163 C 0.96751 0.23309 0.62503 0.0
N2164 N 0.99363 0.2863 0.63157 0.0
N2165 N 0.97408 0.24538 0.63439 0.0
H2166 H 0.98137 0.2584 0.92356 0.0
H2167 H 0.99768 0.20968 0.83946 0.0
H2168 H 0.94697 0.25944 0.88268 0.0
H2169 H 0.0314 0.21282 0.88085 0.0
H2170 H 0.97584 0.22222 0.85682 0.0
H2171 H 0.99618 0.23568 0.91033 0.0
C2172 C 0.97678 0.25354 0.91189 0.0
C2173 C 0.96311 0.26078 0.90407 0.0
C2174 C 0.98793 0.21983 0.86216 0.0
C2175 C 0.98036 0.23525 0.88843 0.0
C2176 C 0.00033 0.21265 0.8523 0.0
C2177 C 0.01636 0.21054 0.85872 0.0
C2178 C 0.9917 0.2247 0.8785 0.0
C2179 C 0.01926 0.21454 0.87536 0.0
C2180 C 0.98525 0.24062 0.90428 0.0
C2181 C 0.95753 0.25409 0.88903 0.0
N2182 N 0.00712 0.22155 0.8846 0.0
N2183 N 0.96644 0.24189 0.88144 0.0
H2184 H 0.01554 0.74154 0.9203 0.0
H2185 H 0.00538 0.79235 0.83612 0.0
H2186 H 0.05335 0.74201 0.88253 0.0
H2187 H 0.96793 0.78609 0.87376 0.0
H2188 H 0.02586 0.77948 0.85495 0.0
H2189 H 0.00113 0.76381 0.90594 0.0
C2190 C 0.02092 0.74659 0.90906 0.0
C2191 C 0.03548 0.73989 0.90245 0.0
C2192 C 0.01323 0.78126 0.85915 0.0
C2193 C 0.01876 0.76499 0.8855 0.0
C2194 C 0.00161 0.78863 0.84847 0.0
C2195 C 0.98499 0.78999 0.85341 0.0
C2196 C 0.00805 0.77549 0.87481 0.0
C2197 C 0.98061 0.78499 0.86943 0.0
C2198 C 0.01268 0.75927 0.9008 0.0
C2199 C 0.04208 0.74691 0.88795 0.0
N2200 N 0.99201 0.77788 0.87948 0.0
N2201 N 0.03345 0.75889 0.87969 0.0
H2202 H 0.52672 0.29419 0.11879 0.0
H2203 H 0.44259 0.24195 0.11559 0.0
H2204 H 0.4943 0.28979 0.16108 0.0
H2205 H 0.48256 0.23935 0.08018 0.0
H2206 H 0.45711 0.26496 0.12968 0.0
H2207 H 0.50605 0.28039 0.1017 0.0
C2208 C 0.51506 0.29053 0.1244 0.0
C2209 C 0.51225 0.29289 0.14137 0.0
C2210 C 0.46248 0.25953 0.11863 0.0
C2211 C 0.48865 0.27659 0.12198 0.0
C2212 C 0.45419 0.24652 0.11057 0.0
C2213 C 0.46153 0.23874 0.09684 0.0
C2214 C 0.47801 0.26481 0.11267 0.0
C2215 C 0.47659 0.24493 0.09084 0.0
C2216 C 0.50327 0.28259 0.11466 0.0
C2217 C 0.49689 0.2881 0.14801 0.0
N2218 N 0.48435 0.25751 0.09883 0.0
N2219 N 0.48573 0.27983 0.13835 0.0
H2220 H 0.93993 0.76436 0.38095 0.0
H2221 H 0.00933 0.69421 0.37258 0.0
H2222 H 0.97017 0.74822 0.42198 0.0
H2223 H 0.00194 0.73333 0.33688 0.0
H2224 H 0.98598 0.70523 0.38892 0.0
H2225 H 0.95355 0.74363 0.36322 0.0
C2226 C 0.9489 0.75596 0.38639 0.0
C2227 C 0.95408 0.75799 0.40286 0.0
C2228 C 0.98922 0.71105 0.37725 0.0
C2229 C 0.9695 0.73442 0.38283 0.0
C2230 C 0.00245 0.70478 0.36794 0.0
C2231 C 0.00756 0.71303 0.35352 0.0
C2232 C 0.98091 0.72534 0.37179 0.0
C2233 C 0.99841 0.72676 0.34805 0.0
C2234 C 0.95673 0.74427 0.37626 0.0
C2235 C 0.96595 0.74702 0.40929 0.0
N2236 N 0.98555 0.73255 0.35725 0.0
N2237 N 0.97341 0.73578 0.3992 0.0
H2238 H 0.54277 0.27158 0.63205 0.0
H2239 H 0.48123 0.20054 0.62122 0.0
H2240 H 0.54279 0.24374 0.5864 0.0
H2241 H 0.5041 0.20858 0.66887 0.0
H2242 H 0.50432 0.2151 0.60794 0.0
H2243 H 0.52959 0.24812 0.64608 0.0
C2244 C 0.54027 0.26035 0.62508 0.0
C2245 C 0.54371 0.25954 0.60807 0.0
C2246 C 0.50454 0.21328 0.62125 0.0
C2247 C 0.5283 0.23292 0.62387 0.0
C2248 C 0.49137 0.20502 0.62882 0.0
C2249 C 0.4908 0.20349 0.64612 0.0
C2250 C 0.51688 0.22055 0.63114 0.0
C2251 C 0.50417 0.20951 0.65547 0.0
C2252 C 0.53284 0.24696 0.63309 0.0
C2253 C 0.5403 0.24477 0.59956 0.0
N2254 N 0.51649 0.21821 0.64789 0.0
N2255 N 0.53236 0.23215 0.60746 0.0
H2256 H 0.12842 0.03965 0.27312 0.0
H2257 H 0.12035 0.98069 0.1997 0.0
H2258 H 0.08318 0.03971 0.24464 0.0
H2259 H 0.16717 0.00471 0.20905 0.0
H2260 H 0.10619 0.00284 0.21488 0.0
H2261 H 0.14311 0.02779 0.24936 0.0
C2262 C 0.12168 0.03744 0.2617 0.0
C2263 C 0.10459 0.04052 0.26078 0.0
C2264 C 0.1195 0.00356 0.2132 0.0
C2265 C 0.12116 0.0266 0.23378 0.0
C2266 C 0.12757 0.99093 0.20457 0.0
C2267 C 0.1449 0.99096 0.20319 0.0
C2268 C 0.12892 0.01591 0.22103 0.0
C2269 C 0.15376 0.00437 0.2098 0.0
C2270 C 0.13006 0.03076 0.24814 0.0
C2271 C 0.09638 0.03749 0.24576 0.0
N2272 N 0.14571 0.01612 0.21887 0.0
N2273 N 0.10466 0.03027 0.23294 0.0
H2274 H 0.23114 0.3272 0.50984 0.0
H2275 H 0.24833 0.4115 0.46156 0.0
H2276 H 0.19739 0.36859 0.51157 0.0
H2277 H 0.28194 0.37009 0.46534 0.0
H2278 H 0.22632 0.39426 0.47401 0.0
H2279 H 0.24611 0.34053 0.48728 0.0
C2280 C 0.22672 0.33901 0.50517 0.0
C2281 C 0.21319 0.34693 0.51255 0.0
C2282 C 0.23843 0.38889 0.47177 0.0
C2283 C 0.23064 0.36268 0.48721 0.0
C2284 C 0.25092 0.39868 0.46464 0.0
C2285 C 0.26695 0.39221 0.46273 0.0
C2286 C 0.24211 0.37257 0.47677 0.0
C2287 C 0.26979 0.3756 0.46689 0.0
C2288 C 0.2353 0.34668 0.49234 0.0
C2289 C 0.20784 0.36216 0.50609 0.0
N2290 N 0.25756 0.36643 0.47382 0.0
N2291 N 0.21684 0.36979 0.49398 0.0
H2292 H 0.87216 0.50875 0.69298 0.0
H2293 H 0.87117 0.4522 0.77356 0.0
H2294 H 0.83135 0.50355 0.72711 0.0
H2295 H 0.91524 0.46041 0.7445 0.0
H2296 H 0.8545 0.46423 0.75142 0.0
H2297 H 0.88604 0.48513 0.70653 0.0
C2298 C 0.8659 0.50227 0.70295 0.0
C2299 C 0.85073 0.50811 0.70913 0.0
C2300 C 0.86778 0.46317 0.74964 0.0
C2301 C 0.8664 0.48139 0.72463 0.0
C2302 C 0.87726 0.45623 0.76226 0.0
C2303 C 0.89452 0.45549 0.7608 0.0
C2304 C 0.87568 0.46996 0.73567 0.0
C2305 C 0.9019 0.4608 0.74599 0.0
C2306 C 0.87385 0.4889 0.71074 0.0
C2307 C 0.84315 0.49948 0.72214 0.0
N2308 N 0.89245 0.46822 0.73408 0.0
N2309 N 0.85113 0.48669 0.72955 0.0
H2310 H 0.79117 0.11719 0.03169 0.0
H2311 H 0.73798 0.11525 0.94853 0.0
H2312 H 0.78854 0.15883 0.99826 0.0
H2313 H 0.73797 0.07765 0.98653 0.0
H2314 H 0.76166 0.12875 0.96241 0.0
H2315 H 0.77751 0.09995 0.01105 0.0
C2316 C 0.7879 0.12262 0.01983 0.0
C2317 C 0.79072 0.13945 0.01671 0.0
C2318 C 0.75669 0.11733 0.96746 0.0
C2319 C 0.77457 0.11993 0.99313 0.0
C2320 C 0.74329 0.1096 0.9595 0.0
C2321 C 0.73599 0.09548 0.96657 0.0
C2322 C 0.76278 0.11071 0.98241 0.0
C2323 C 0.74315 0.08866 0.98083 0.0
C2324 C 0.78007 0.11279 0.00804 0.0
C2325 C 0.78647 0.14587 0.0011 0.0
N2326 N 0.75603 0.09641 0.98834 0.0
N2327 N 0.77823 0.13616 0.98996 0.0
H2328 H 0.15731 0.99356 0.78689 0.0
H2329 H 0.07085 0.97611 0.74226 0.0
H2330 H 0.11613 0.0275 0.78354 0.0
H2331 H 0.11329 0.94421 0.73613 0.0
H2332 H 0.08514 0.99053 0.76463 0.0
H2333 H 0.13966 0.9716 0.77487 0.0
C2334 C 0.14447 0.99624 0.78398 0.0
C2335 C 0.13816 0.01234 0.78592 0.0
C2336 C 0.09129 0.98019 0.75866 0.0
C2337 C 0.11804 0.98753 0.77246 0.0
C2338 C 0.08308 0.9719 0.74597 0.0
C2339 C 0.09101 0.95912 0.73734 0.0
C2340 C 0.10779 0.976 0.76243 0.0
C2341 C 0.10681 0.95405 0.74258 0.0
C2342 C 0.13445 0.98378 0.77711 0.0
C2343 C 0.12151 0.01529 0.78198 0.0
N2344 N 0.11491 0.96279 0.75458 0.0
N2345 N 0.1121 0.00306 0.77535 0.0
H2346 H 0.21538 0.37311 0.03254 0.0
H2347 H 0.30433 0.36203 0.99088 0.0
H2348 H 0.25381 0.40995 0.03747 0.0
H2349 H 0.26295 0.32858 0.9856 0.0
H2350 H 0.28875 0.37729 0.01235 0.0
H2351 H 0.23527 0.35417 0.02021 0.0
C2352 C 0.22814 0.37713 0.03112 0.0
C2353 C 0.23297 0.39313 0.03576 0.0
C2354 C 0.28327 0.3664 0.00671 0.0
C2355 C 0.25586 0.37164 0.02119 0.0
C2356 C 0.29217 0.35767 0.99456 0.0
C2357 C 0.28476 0.3442 0.9864 0.0
C2358 C 0.26701 0.36143 0.01068 0.0
C2359 C 0.26899 0.33905 0.99146 0.0
C2360 C 0.23953 0.36631 0.02407 0.0
C2361 C 0.24967 0.39768 0.03393 0.0
N2362 N 0.26062 0.34773 0.00315 0.0
N2363 N 0.26052 0.38706 0.02644 0.0
H2364 H 0.8858 0.55516 0.24069 0.0
H2365 H 0.87874 0.47079 0.29169 0.0
H2366 H 0.9211 0.51501 0.24007 0.0
H2367 H 0.83727 0.50376 0.28478 0.0
H2368 H 0.89716 0.49173 0.28005 0.0
H2369 H 0.87068 0.54103 0.26322 0.0
C2370 C 0.89059 0.54362 0.24563 0.0
C2371 C 0.90455 0.53607 0.23848 0.0
C2372 C 0.8841 0.4946 0.28132 0.0
C2373 C 0.88755 0.52003 0.26403 0.0
C2374 C 0.87362 0.48268 0.28804 0.0
C2375 C 0.85656 0.48563 0.28904 0.0
C2376 C 0.87738 0.50941 0.27508 0.0
C2377 C 0.85043 0.50115 0.28418 0.0
C2378 C 0.88195 0.53555 0.25838 0.0
C2379 C 0.91026 0.52111 0.24515 0.0
N2380 N 0.86083 0.51242 0.27703 0.0
N2381 N 0.90168 0.51353 0.25745 0.0
H2382 H 0.74711 0.09269 0.5392 0.0
H2383 H 0.73 0.17606 0.48878 0.0
H2384 H 0.78253 0.1317 0.53 0.0
H2385 H 0.69469 0.13598 0.49045 0.0
H2386 H 0.7463 0.16241 0.51018 0.0
H2387 H 0.72519 0.1103 0.52707 0.0
C2388 C 0.75017 0.10505 0.53492 0.0
C2389 C 0.76663 0.11071 0.5353 0.0
C2390 C 0.73488 0.15662 0.50611 0.0
C2391 C 0.74187 0.13079 0.5217 0.0
C2392 C 0.72555 0.16448 0.49395 0.0
C2393 C 0.71115 0.15701 0.48782 0.0
C2394 C 0.73004 0.1409 0.51188 0.0
C2395 C 0.70578 0.14207 0.49494 0.0
C2396 C 0.73773 0.11505 0.52799 0.0
C2397 C 0.77004 0.12677 0.52965 0.0
N2398 N 0.71546 0.13425 0.5064 0.0
N2399 N 0.75782 0.13617 0.52302 0.0
H2400 H 0.21136 0.11358 0.97027 0.0
H2401 H 0.25954 0.11342 0.05597 0.0
H2402 H 0.21225 0.15612 0.00263 0.0
H2403 H 0.25621 0.07211 0.02221 0.0
H2404 H 0.23745 0.12755 0.04027 0.0
H2405 H 0.22259 0.0966 0.99251 0.0
C2406 C 0.21375 0.11927 0.98222 0.0
C2407 C 0.21112 0.13625 0.98463 0.0
C2408 C 0.24126 0.11521 0.03659 0.0
C2409 C 0.2245 0.11702 0.01011 0.0
C2410 C 0.25375 0.10712 0.04561 0.0
C2411 C 0.25974 0.09171 0.04019 0.0
C2412 C 0.23483 0.10771 0.0222 0.0
C2413 C 0.25203 0.08409 0.02664 0.0
C2414 C 0.22017 0.10959 0.99494 0.0
C2415 C 0.21421 0.14303 0.00035 0.0
N2416 N 0.24014 0.09223 0.01802 0.0
N2417 N 0.22112 0.13345 0.01245 0.0
H2418 H 0.70681 0.83965 0.4927 0.0
H2419 H 0.75746 0.92331 0.48024 0.0
H2420 H 0.70897 0.88014 0.52757 0.0
H2421 H 0.75595 0.88517 0.44283 0.0
H2422 H 0.73504 0.90954 0.49498 0.0
H2423 H 0.72031 0.85747 0.47181 0.0
C2424 C 0.70978 0.85238 0.4958 0.0
C2425 C 0.70707 0.85841 0.5119 0.0
C2426 C 0.73936 0.9042 0.48344 0.0
C2427 C 0.72238 0.87871 0.48831 0.0
C2428 C 0.75214 0.91213 0.47501 0.0
C2429 C 0.75855 0.90526 0.46044 0.0
C2430 C 0.73326 0.88896 0.47754 0.0
C2431 C 0.75124 0.89081 0.45408 0.0
C2432 C 0.71751 0.86251 0.48394 0.0
C2433 C 0.71113 0.87494 0.51537 0.0
N2434 N 0.73917 0.88288 0.46288 0.0
N2435 N 0.71869 0.88442 0.50376 0.0
H2436 H 0.36335 0.00565 0.69529 0.0
H2437 H 0.36846 0.96026 0.7831 0.0
H2438 H 0.32965 0.0126 0.73623 0.0
H2439 H 0.40794 0.95732 0.74716 0.0
H2440 H 0.35098 0.97377 0.76259 0.0
H2441 H 0.37687 0.98297 0.71079 0.0
C2442 C 0.35858 0.00213 0.70735 0.0
C2443 C 0.34555 0.01105 0.71465 0.0
C2444 C 0.36339 0.97005 0.75902 0.0
C2445 C 0.36074 0.98536 0.73225 0.0
C2446 C 0.37335 0.9623 0.77074 0.0
C2447 C 0.38968 0.95793 0.76682 0.0
C2448 C 0.36991 0.97388 0.74333 0.0
C2449 C 0.39538 0.96061 0.7506 0.0
C2450 C 0.36632 0.98929 0.71619 0.0
C2451 C 0.33983 0.00615 0.73028 0.0
N2452 N 0.38559 0.96877 0.73947 0.0
N2453 N 0.34751 0.99374 0.73857 0.0
H2454 H 0.2291 0.62941 0.94988 0.0
H2455 H 0.296 0.61925 0.01614 0.0
H2456 H 0.25593 0.58331 0.95361 0.0
H2457 H 0.2893 0.6666 0.99226 0.0
H2458 H 0.28296 0.60565 0.99236 0.0
H2459 H 0.25198 0.6436 0.96385 0.0
C2460 C 0.24003 0.62237 0.95332 0.0
C2461 C 0.24066 0.60519 0.95074 0.0
C2462 C 0.28474 0.61897 0.99208 0.0
C2463 C 0.2666 0.62121 0.96711 0.0
C2464 C 0.29213 0.62672 0.00565 0.0
C2465 C 0.29359 0.64403 0.00611 0.0
C2466 C 0.27824 0.62868 0.97919 0.0
C2467 C 0.2884 0.6532 0.99229 0.0
C2468 C 0.25309 0.63047 0.96123 0.0
C2469 C 0.25504 0.5966 0.95539 0.0
N2470 N 0.28051 0.64544 0.97954 0.0
N2471 N 0.2673 0.60463 0.96378 0.0
H2472 H 0.75489 0.9162 0.04068 0.0
H2473 H 0.79236 0.8321 0.00375 0.0
H2474 H 0.73025 0.86882 0.04282 0.0
H2475 H 0.79724 0.87978 0.98011 0.0
H2476 H 0.77833 0.84564 0.02728 0.0
H2477 H 0.77898 0.90264 0.0276 0.0
C2478 C 0.75483 0.90288 0.03892 0.0
C2479 C 0.74064 0.89356 0.04262 0.0
C2480 C 0.78301 0.85316 0.01718 0.0
C2481 C 0.76792 0.8781 0.02803 0.0
C2482 C 0.79108 0.84548 0.00387 0.0
C2483 C 0.79581 0.85491 0.99007 0.0
C2484 C 0.78 0.87033 0.01667 0.0
C2485 C 0.79366 0.87215 0.99057 0.0
C2486 C 0.76848 0.89519 0.03144 0.0
C2487 C 0.74098 0.87638 0.03997 0.0
N2488 N 0.78577 0.87932 0.0036 0.0
N2489 N 0.75437 0.8692 0.03272 0.0
H2490 H 0.37839 0.47611 0.80033 0.0
H2491 H 0.38141 0.55792 0.74496 0.0
H2492 H 0.3357 0.50736 0.79288 0.0
H2493 H 0.41777 0.51874 0.7453 0.0
H2494 H 0.36741 0.54462 0.76871 0.0
H2495 H 0.39584 0.4971 0.78736 0.0
C2496 C 0.3728 0.48766 0.79632 0.0
C2497 C 0.35566 0.49006 0.79753 0.0
C2498 C 0.37867 0.53919 0.7638 0.0
C2499 C 0.37537 0.51385 0.78201 0.0
C2500 C 0.38668 0.5468 0.75036 0.0
C2501 C 0.4006 0.53924 0.74316 0.0
C2502 C 0.38488 0.52415 0.77009 0.0
C2503 C 0.40693 0.52481 0.75042 0.0
C2504 C 0.38272 0.4996 0.78882 0.0
C2505 C 0.34893 0.50516 0.79215 0.0
N2506 N 0.39897 0.51769 0.76338 0.0
N2507 N 0.35878 0.51641 0.78424 0.0
H2508 H 0.6311 0.95324 0.22677 0.0
H2509 H 0.63229 0.00795 0.30842 0.0
H2510 H 0.58775 0.96074 0.25708 0.0
H2511 H 0.67353 0.00075 0.27518 0.0
H2512 H 0.61749 0.9852 0.29442 0.0
H2513 H 0.64834 0.96445 0.24887 0.0
C2514 C 0.62529 0.95697 0.23831 0.0
C2515 C 0.60806 0.95624 0.24016 0.0
C2516 C 0.62996 0.98832 0.2905 0.0
C2517 C 0.62758 0.96976 0.26532 0.0
C2518 C 0.63843 0.00119 0.29856 0.0
C2519 C 0.65402 0.00628 0.29274 0.0
C2520 C 0.63727 0.98055 0.27668 0.0
C2521 C 0.66142 0.9973 0.27987 0.0
C2522 C 0.6351 0.96343 0.25092 0.0
C2523 C 0.60106 0.96115 0.25529 0.0
N2524 N 0.65291 0.98503 0.27216 0.0
N2525 N 0.61082 0.9681 0.26722 0.0
H2526 H 0.04034 0.74248 0.57676 0.0
H2527 H 0.01295 0.70427 0.66395 0.0
H2528 H 0.05888 0.76014 0.62376 0.0
H2529 H 0.98463 0.70166 0.61868 0.0
H2530 H 0.03591 0.71716 0.64838 0.0
H2531 H 0.02657 0.71964 0.59112 0.0
C2532 C 0.04187 0.74132 0.59006 0.0
C2533 C 0.05047 0.75342 0.59913 0.0
C2534 C 0.02481 0.71336 0.64183 0.0
C2535 C 0.03459 0.72742 0.61564 0.0
C2536 C 0.01181 0.70594 0.65067 0.0
C2537 C 0.99692 0.7021 0.64254 0.0
C2538 C 0.02288 0.71663 0.6248 0.0
C2539 C 0.9959 0.70462 0.62538 0.0
C2540 C 0.03395 0.72831 0.59825 0.0
C2541 C 0.05216 0.7512 0.61633 0.0
N2542 N 0.00864 0.71183 0.6171 0.0
N2543 N 0.04402 0.73862 0.6241 0.0
H2544 H 0.0204 0.79688 0.12373 0.0
H2545 H 0.95512 0.72858 0.12965 0.0
H2546 H 0.99336 0.79043 0.16939 0.0
H2547 H 0.95998 0.75629 0.08418 0.0
H2548 H 0.9682 0.75144 0.14472 0.0
H2549 H 0.99798 0.78295 0.10874 0.0
C2550 C 0.00951 0.79283 0.13051 0.0
C2551 C 0.00865 0.79469 0.14777 0.0
C2552 C 0.96603 0.75272 0.13153 0.0
C2553 C 0.9833 0.77836 0.13086 0.0
C2554 C 0.95864 0.73967 0.12293 0.0
C2555 C 0.95661 0.74059 0.10568 0.0
C2556 C 0.97192 0.76651 0.12271 0.0
C2557 C 0.96135 0.75518 0.0975 0.0
C2558 C 0.99673 0.78495 0.12196 0.0
C2559 C 0.99438 0.78924 0.15605 0.0
N2560 N 0.96921 0.76744 0.10603 0.0
N2561 N 0.98241 0.7809 0.14756 0.0
H2562 H 0.45946 0.72546 0.6295 0.0
H2563 H 0.50925 0.80845 0.62349 0.0
H2564 H 0.45567 0.7567 0.58629 0.0
H2565 H 0.49824 0.78393 0.66975 0.0
H2566 H 0.48727 0.79223 0.61006 0.0
H2567 H 0.47131 0.74852 0.64495 0.0
C2568 C 0.46094 0.73732 0.62336 0.0
C2569 C 0.45674 0.73922 0.60662 0.0
C2570 C 0.48937 0.79074 0.62324 0.0
C2571 C 0.47071 0.76566 0.62409 0.0
C2572 C 0.50186 0.80005 0.63093 0.0
C2573 C 0.50575 0.79727 0.64767 0.0
C2574 C 0.4809 0.77855 0.6324 0.0
C2575 C 0.49583 0.78624 0.65673 0.0
C2576 C 0.46766 0.75053 0.63218 0.0
C2577 C 0.45879 0.75483 0.59922 0.0
N2578 N 0.48409 0.77707 0.64892 0.0
N2579 N 0.466 0.76742 0.60792 0.0
H2580 H 0.49004 0.69398 0.135 0.0
H2581 H 0.53873 0.78009 0.13118 0.0
H2582 H 0.48462 0.73475 0.16915 0.0
H2583 H 0.53826 0.74577 0.09019 0.0
H2584 H 0.52516 0.75942 0.14845 0.0
H2585 H 0.51317 0.70888 0.12151 0.0
C2586 C 0.49401 0.70585 0.13988 0.0
C2587 C 0.4854 0.71331 0.15303 0.0
C2588 C 0.52817 0.75624 0.13575 0.0
C2589 C 0.51159 0.73021 0.13791 0.0
C2590 C 0.53596 0.76804 0.12591 0.0
C2591 C 0.53935 0.76465 0.10923 0.0
C2592 C 0.52331 0.74104 0.12877 0.0
C2593 C 0.53573 0.74881 0.10302 0.0
C2594 C 0.5071 0.71435 0.13217 0.0
C2595 C 0.49085 0.7287 0.1589 0.0
N2596 N 0.52754 0.73762 0.11273 0.0
N2597 N 0.5035 0.73666 0.15125 0.0
H2598 H 0.11796 0.5603 0.7565 0.0
H2599 H 0.12232 0.47937 0.70034 0.0
H2600 H 0.07884 0.52438 0.7504 0.0
H2601 H 0.16468 0.51077 0.70897 0.0
H2602 H 0.10439 0.50045 0.71243 0.0
H2603 H 0.13326 0.54699 0.73364 0.0
C2604 C 0.11238 0.54995 0.74999 0.0
C2605 C 0.09724 0.54326 0.75538 0.0
C2606 C 0.11755 0.50297 0.71147 0.0
C2607 C 0.11455 0.52801 0.7295 0.0
C2608 C 0.12776 0.49095 0.70448 0.0
C2609 C 0.14492 0.49338 0.7038 0.0
C2610 C 0.12461 0.51735 0.71833 0.0
C2611 C 0.15144 0.50854 0.70929 0.0
C2612 C 0.12114 0.5423 0.73706 0.0
C2613 C 0.09058 0.52978 0.74671 0.0
N2614 N 0.14129 0.51987 0.71671 0.0
N2615 N 0.09933 0.52252 0.73434 0.0
H2616 H 0.19141 0.86462 0.01024 0.0
H2617 H 0.27241 0.86563 0.95424 0.0
H2618 H 0.22627 0.82446 0.00483 0.0
H2619 H 0.24296 0.90926 0.96335 0.0
H2620 H 0.25039 0.84851 0.96584 0.0
H2621 H 0.20498 0.87906 0.98698 0.0
C2622 C 0.20155 0.85862 0.00378 0.0
C2623 C 0.20792 0.84347 0.00948 0.0
C2624 C 0.24851 0.86179 0.96507 0.0
C2625 C 0.22344 0.85978 0.98316 0.0
C2626 C 0.26105 0.87153 0.95837 0.0
C2627 C 0.25945 0.8888 0.95801 0.0
C2628 C 0.23444 0.86942 0.97198 0.0
C2629 C 0.24456 0.89593 0.96345 0.0
C2630 C 0.20935 0.86689 0.99062 0.0
C2631 C 0.22114 0.83623 0.00088 0.0
N2632 N 0.23271 0.88621 0.97062 0.0
N2633 N 0.22856 0.84452 0.98829 0.0
H2634 H 0.8742 0.94784 0.27134 0.0
H2635 H 0.88123 0.01839 0.20894 0.0
H2636 H 0.9199 0.95444 0.24442 0.0
H2637 H 0.83527 0.99134 0.21239 0.0
H2638 H 0.89587 0.99466 0.22093 0.0
H2639 H 0.85936 0.96262 0.24935 0.0
C2640 C 0.88101 0.95205 0.26054 0.0
C2641 C 0.89825 0.95001 0.25962 0.0
C2642 C 0.88266 0.99371 0.21866 0.0
C2643 C 0.88152 0.96735 0.23479 0.0
C2644 C 0.87432 0.00724 0.21189 0.0
C2645 C 0.85708 0.00672 0.20976 0.0
C2646 C 0.87358 0.97982 0.22391 0.0
C2647 C 0.8486 0.99211 0.21381 0.0
C2648 C 0.87255 0.96044 0.248 0.0
C2649 C 0.90657 0.95574 0.24548 0.0
N2650 N 0.85689 0.97933 0.22114 0.0
N2651 N 0.89819 0.96458 0.23379 0.0
H2652 H 0.76236 0.67149 0.51732 0.0
H2653 H 0.75022 0.5918 0.45944 0.0
H2654 H 0.8019 0.63647 0.50907 0.0
H2655 H 0.71155 0.62444 0.47683 0.0
H2656 H 0.77098 0.61018 0.47257 0.0
H2657 H 0.74557 0.65715 0.49684 0.0
C2658 C 0.76757 0.66084 0.51096 0.0
C2659 C 0.7834 0.655 0.51495 0.0
C2660 C 0.75795 0.61334 0.47329 0.0
C2661 C 0.76404 0.63808 0.4918 0.0
C2662 C 0.74615 0.60292 0.46581 0.0
C2663 C 0.72919 0.60654 0.4673 0.0
C2664 C 0.7526 0.62749 0.482 0.0
C2665 C 0.72449 0.62104 0.47561 0.0
C2666 C 0.75796 0.65259 0.4993 0.0
C2667 C 0.78968 0.64128 0.50627 0.0
N2668 N 0.73609 0.63089 0.48266 0.0
N2669 N 0.77983 0.63303 0.49526 0.0
H2670 H 0.13179 0.4563 0.22976 0.0
H2671 H 0.11801 0.5226 0.29496 0.0
H2672 H 0.08408 0.46021 0.25357 0.0
H2673 H 0.16533 0.49786 0.29231 0.0
H2674 H 0.10499 0.49866 0.28166 0.0
H2675 H 0.14463 0.46961 0.25379 0.0
C2676 C 0.12411 0.45961 0.24028 0.0
C2677 C 0.10689 0.45736 0.23972 0.0
C2678 C 0.11814 0.49824 0.28441 0.0
C2679 C 0.12134 0.47296 0.26693 0.0
C2680 C 0.12556 0.51191 0.29192 0.0
C2681 C 0.14274 0.51217 0.29453 0.0
C2682 C 0.12809 0.48504 0.27895 0.0
C2683 C 0.15203 0.49807 0.29044 0.0
C2684 C 0.13143 0.46713 0.254 0.0
C2685 C 0.09742 0.46179 0.2536 0.0
N2686 N 0.14466 0.4852 0.28239 0.0
N2687 N 0.10472 0.46985 0.26651 0.0
H2688 H 0.2546 0.91147 0.54675 0.0
H2689 H 0.26315 0.83229 0.48819 0.0
H2690 H 0.21685 0.8745 0.53851 0.0
H2691 H 0.30295 0.86747 0.4942 0.0
H2692 H 0.24832 0.84539 0.5109 0.0
H2693 H 0.2746 0.89376 0.53174 0.0
C2694 C 0.25066 0.89948 0.54212 0.0
C2695 C 0.23406 0.89447 0.5436 0.0
C2696 C 0.26037 0.85024 0.50747 0.0
C2697 C 0.2566 0.87435 0.52659 0.0
C2698 C 0.26884 0.84272 0.4945 0.0
C2699 C 0.28415 0.84896 0.48927 0.0
C2700 C 0.26703 0.86445 0.51507 0.0
C2701 C 0.2911 0.86237 0.49792 0.0
C2702 C 0.26201 0.88944 0.53352 0.0
C2703 C 0.22949 0.87892 0.53739 0.0
N2704 N 0.28232 0.86993 0.51026 0.0
N2705 N 0.24062 0.86952 0.52907 0.0
H2706 H 0.87876 0.98092 0.79645 0.0
H2707 H 0.86721 0.04504 0.72776 0.0
H2708 H 0.83151 0.00512 0.79006 0.0
H2709 H 0.91433 0.04079 0.75268 0.0
H2710 H 0.85364 0.03237 0.75173 0.0
H2711 H 0.8923 0.00413 0.78241 0.0
C2712 C 0.87131 0.99137 0.79244 0.0
C2713 C 0.85402 0.99112 0.79422 0.0
C2714 C 0.86689 0.0346 0.75218 0.0
C2715 C 0.8693 0.0174 0.77778 0.0
C2716 C 0.87463 0.04176 0.73849 0.0
C2717 C 0.89189 0.04375 0.73827 0.0
C2718 C 0.87657 0.02891 0.76547 0.0
C2719 C 0.90098 0.03939 0.75242 0.0
C2720 C 0.87903 0.00462 0.78448 0.0
C2721 C 0.84489 0.0049 0.78887 0.0
N2722 N 0.89326 0.03173 0.76533 0.0
N2723 N 0.8526 0.01733 0.78045 0.0
H2724 H 0.75834 0.58048 0.01979 0.0
H2725 H 0.70815 0.66411 0.00376 0.0
H2726 H 0.75943 0.62145 0.05409 0.0
H2727 H 0.71345 0.62356 0.96934 0.0
H2728 H 0.72115 0.64684 0.02547 0.0
H2729 H 0.73578 0.59379 0.00483 0.0
C2730 C 0.75355 0.5922 0.02432 0.0
C2731 C 0.76077 0.59999 0.03804 0.0
C2732 C 0.71911 0.64165 0.01326 0.0
C2733 C 0.73533 0.61572 0.02061 0.0
C2734 C 0.71163 0.65144 0.00094 0.0
C2735 C 0.70996 0.64522 0.98479 0.0
C2736 C 0.72467 0.62558 0.00926 0.0
C2737 C 0.71474 0.62884 0.98163 0.0
C2738 C 0.74071 0.59986 0.01576 0.0
C2739 C 0.75411 0.61511 0.04352 0.0
N2740 N 0.72196 0.61966 0.99368 0.0
N2741 N 0.74195 0.62272 0.03454 0.0
H2742 H 0.20861 0.62225 0.46967 0.0
H2743 H 0.25582 0.61672 0.55659 0.0
H2744 H 0.20901 0.66286 0.50445 0.0
H2745 H 0.26143 0.58286 0.51559 0.0
H2746 H 0.2334 0.63091 0.54128 0.0
H2747 H 0.22194 0.60469 0.49023 0.0
C2748 C 0.21133 0.62738 0.4818 0.0
C2749 C 0.20796 0.64404 0.48534 0.0
C2750 C 0.23937 0.62018 0.53583 0.0
C2751 C 0.22371 0.62413 0.50887 0.0
C2752 C 0.25204 0.61206 0.54456 0.0
C2753 C 0.26051 0.59876 0.5372 0.0
C2754 C 0.23511 0.6147 0.51982 0.0
C2755 C 0.25532 0.59321 0.52159 0.0
C2756 C 0.21898 0.61737 0.49354 0.0
C2757 C 0.21151 0.65005 0.50128 0.0
N2758 N 0.24305 0.60124 0.51342 0.0
N2759 N 0.21954 0.64016 0.51243 0.0
H2760 H 0.78059 0.37325 0.95735 0.0
H2761 H 0.69522 0.36498 0.00677 0.0
H2762 H 0.74599 0.41379 0.96142 0.0
H2763 H 0.73676 0.33145 0.00987 0.0
H2764 H 0.70959 0.38009 0.98435 0.0
H2765 H 0.76027 0.35482 0.96993 0.0
C2766 C 0.76852 0.37818 0.96068 0.0
C2767 C 0.76495 0.39503 0.95859 0.0
C2768 C 0.71535 0.36922 0.98974 0.0
C2769 C 0.74178 0.37415 0.97353 0.0
C2770 C 0.70715 0.36057 0.00242 0.0
C2771 C 0.71496 0.3471 0.01019 0.0
C2772 C 0.73127 0.36409 0.98478 0.0
C2773 C 0.73042 0.3419 0.00429 0.0
C2774 C 0.75694 0.36768 0.96791 0.0
C2775 C 0.74913 0.40082 0.96291 0.0
N2776 N 0.73809 0.35045 0.99203 0.0
N2777 N 0.73817 0.39044 0.97055 0.0
H2778 H 0.36259 0.50775 0.19717 0.0
H2779 H 0.37072 0.46205 0.28449 0.0
H2780 H 0.328 0.51138 0.23778 0.0
H2781 H 0.40994 0.46131 0.24819 0.0
H2782 H 0.35225 0.47442 0.26412 0.0
H2783 H 0.37748 0.48572 0.21232 0.0
C2784 C 0.35791 0.50359 0.20906 0.0
C2785 C 0.34421 0.51144 0.21639 0.0
C2786 C 0.36482 0.47142 0.26042 0.0
C2787 C 0.361 0.4865 0.23364 0.0
C2788 C 0.37533 0.46432 0.27206 0.0
C2789 C 0.39185 0.46088 0.26799 0.0
C2790 C 0.37095 0.47559 0.24466 0.0
C2791 C 0.39724 0.46386 0.25172 0.0
C2792 C 0.36643 0.49113 0.21772 0.0
C2793 C 0.33865 0.50576 0.23181 0.0
N2794 N 0.38688 0.47141 0.24067 0.0
N2795 N 0.34712 0.49376 0.23995 0.0
H2796 H 0.25643 0.08634 0.45645 0.0
H2797 H 0.26926 0.17104 0.50517 0.0
H2798 H 0.22202 0.12724 0.45754 0.0
H2799 H 0.30493 0.13129 0.50703 0.0
H2800 H 0.25536 0.15729 0.48218 0.0
H2801 H 0.27747 0.10421 0.46968 0.0
C2802 C 0.25349 0.09918 0.45908 0.0
C2803 C 0.23748 0.10533 0.45621 0.0
C2804 C 0.26637 0.1516 0.48737 0.0
C2805 C 0.2612 0.12567 0.47118 0.0
C2806 C 0.27432 0.1595 0.50046 0.0
C2807 C 0.28809 0.15216 0.50801 0.0
C2808 C 0.2719 0.13592 0.48211 0.0
C2809 C 0.29428 0.13728 0.50145 0.0
C2810 C 0.26542 0.10933 0.46667 0.0
C2811 C 0.23417 0.12198 0.45984 0.0
N2812 N 0.28589 0.12939 0.48907 0.0
N2813 N 0.24585 0.13149 0.46725 0.0
H2814 H 0.79257 0.38127 0.47313 0.0
H2815 H 0.74249 0.38134 0.55828 0.0
H2816 H 0.78937 0.3382 0.50464 0.0
H2817 H 0.74106 0.41962 0.521 0.0
H2818 H 0.76541 0.36791 0.54308 0.0
H2819 H 0.7802 0.39799 0.49498 0.0
C2820 C 0.78946 0.37541 0.48482 0.0
C2821 C 0.79171 0.35835 0.48706 0.0
C2822 C 0.76031 0.37946 0.53848 0.0
C2823 C 0.77703 0.37728 0.51201 0.0
C2824 C 0.74735 0.38714 0.54718 0.0
C2825 C 0.73988 0.40145 0.5407 0.0
C2826 C 0.7658 0.38635 0.52341 0.0
C2827 C 0.74642 0.40847 0.52626 0.0
C2828 C 0.78237 0.38494 0.4973 0.0
C2829 C 0.78771 0.35136 0.50248 0.0
N2830 N 0.7589 0.40079 0.51805 0.0
N2831 N 0.78018 0.3608 0.51432 0.0
H2832 H 0.38196 0.05633 0.24232 0.0
H2833 H 0.37575 0.97049 0.28968 0.0
H2834 H 0.42177 0.02102 0.24742 0.0
H2835 H 0.33576 0.00595 0.29016 0.0
H2836 H 0.39411 0.99152 0.27836 0.0
H2837 H 0.36626 0.04117 0.26371 0.0
C2838 C 0.38759 0.04572 0.24834 0.0
C2839 C 0.40305 0.03974 0.24303 0.0
C2840 C 0.3814 0.99491 0.28108 0.0
C2841 C 0.38526 0.02234 0.26715 0.0
C2842 C 0.37092 0.98286 0.28754 0.0
C2843 C 0.35425 0.98651 0.29065 0.0
C2844 C 0.37508 0.01068 0.27718 0.0
C2845 C 0.34859 0.00273 0.28785 0.0
C2846 C 0.37861 0.03701 0.26043 0.0
C2847 C 0.40979 0.02589 0.25104 0.0
N2848 N 0.35893 0.01419 0.28091 0.0
N2849 N 0.40078 0.01757 0.26252 0.0
H2850 H 0.61715 0.44087 0.74247 0.0
H2851 H 0.67075 0.4991 0.77556 0.0
H2852 H 0.58485 0.48333 0.74615 0.0
H2853 H 0.62933 0.51542 0.80516 0.0
H2854 H 0.65333 0.47724 0.76371 0.0
H2855 H 0.63479 0.45287 0.76434 0.0
C2856 C 0.61354 0.45247 0.74822 0.0
C2857 C 0.59972 0.46129 0.74243 0.0
C2858 C 0.64822 0.48518 0.77326 0.0
C2859 C 0.61962 0.47493 0.76722 0.0
C2860 C 0.65813 0.49768 0.77997 0.0
C2861 C 0.65142 0.509 0.79132 0.0
C2862 C 0.63136 0.4844 0.77758 0.0
C2863 C 0.63496 0.50683 0.79651 0.0
C2864 C 0.62364 0.45933 0.76056 0.0
C2865 C 0.59556 0.47629 0.75017 0.0
N2866 N 0.6253 0.49509 0.78918 0.0
N2867 N 0.60553 0.4827 0.76213 0.0
H2868 H 0.49107 0.3056 0.86387 0.0
H2869 H 0.54402 0.22221 0.86921 0.0
H2870 H 0.49076 0.26585 0.82812 0.0
H2871 H 0.53837 0.25522 0.91087 0.0
H2872 H 0.531 0.24274 0.85134 0.0
H2873 H 0.51404 0.2917 0.87857 0.0
C2874 C 0.49616 0.29421 0.85889 0.0
C2875 C 0.489 0.28672 0.8449 0.0
C2876 C 0.53279 0.2457 0.86432 0.0
C2877 C 0.51503 0.2709 0.86145 0.0
C2878 C 0.54029 0.23399 0.8745 0.0
C2879 C 0.54205 0.23701 0.8915 0.0
C2880 C 0.52658 0.26042 0.87125 0.0
C2881 C 0.53716 0.25249 0.89777 0.0
C2882 C 0.50915 0.28625 0.8673 0.0
C2883 C 0.49585 0.27192 0.83897 0.0
N2884 N 0.52926 0.26355 0.88768 0.0
N2885 N 0.50838 0.26446 0.84732 0.0
H2886 H 0.50705 0.19267 0.36361 0.0
H2887 H 0.46715 0.28223 0.37229 0.0
H2888 H 0.5079 0.23071 0.32606 0.0
H2889 H 0.46142 0.24505 0.41026 0.0
H2890 H 0.47797 0.26129 0.35357 0.0
H2891 H 0.48643 0.20904 0.37918 0.0
C2892 C 0.5025 0.2042 0.35842 0.0
C2893 C 0.50925 0.21052 0.34368 0.0
C2894 C 0.47423 0.25752 0.36591 0.0
C2895 C 0.48601 0.22924 0.36131 0.0
C2896 C 0.46807 0.26953 0.37661 0.0
C2897 C 0.46362 0.26534 0.39284 0.0
C2898 C 0.47645 0.2412 0.37158 0.0
C2899 C 0.46481 0.2487 0.39779 0.0
C2900 C 0.49085 0.21358 0.36734 0.0
C2901 C 0.50313 0.22553 0.3375 0.0
N2902 N 0.47147 0.23722 0.38728 0.0
N2903 N 0.49202 0.23443 0.34641 0.0
H2904 H 0.49214 0.77112 0.32676 0.0
H2905 H 0.54024 0.75544 0.41156 0.0
H2906 H 0.48909 0.80478 0.36815 0.0
H2907 H 0.53503 0.72061 0.37134 0.0
H2908 H 0.52803 0.77718 0.39377 0.0
H2909 H 0.51495 0.75672 0.34036 0.0
C2910 C 0.49661 0.77568 0.33859 0.0
C2911 C 0.48875 0.78899 0.34646 0.0
C2912 C 0.52992 0.76486 0.38878 0.0
C2913 C 0.51432 0.77216 0.36251 0.0
C2914 C 0.53691 0.75252 0.39888 0.0
C2915 C 0.53834 0.73625 0.3929 0.0
C2916 C 0.52463 0.76078 0.37264 0.0
C2917 C 0.53385 0.73298 0.37646 0.0
C2918 C 0.50956 0.76743 0.34642 0.0
C2919 C 0.49494 0.79452 0.36175 0.0
N2920 N 0.52711 0.74507 0.36698 0.0
N2921 N 0.50716 0.7858 0.36953 0.0
H2922 H 0.49982 0.70599 0.83558 0.0
H2923 H 0.4897 0.76126 0.91738 0.0
H2924 H 0.53916 0.72157 0.86833 0.0
H2925 H 0.45028 0.75646 0.88159 0.0
H2926 H 0.50556 0.74039 0.90249 0.0
H2927 H 0.47949 0.71884 0.85466 0.0
C2928 C 0.50411 0.71186 0.84688 0.0
C2929 C 0.52114 0.71297 0.85034 0.0
C2930 C 0.49337 0.74369 0.8979 0.0
C2931 C 0.49824 0.72734 0.87208 0.0
C2932 C 0.48429 0.75556 0.90647 0.0
C2933 C 0.4688 0.76067 0.90056 0.0
C2934 C 0.48712 0.7371 0.88303 0.0
C2935 C 0.46224 0.75281 0.88647 0.0
C2936 C 0.49257 0.71919 0.8577 0.0
C2937 C 0.52615 0.72067 0.86507 0.0
N2938 N 0.47161 0.74159 0.87792 0.0
N2939 N 0.51479 0.72757 0.87531 0.0
H2940 H 0.67231 0.99198 0.73397 0.0
H2941 H 0.58847 0.04323 0.74511 0.0
H2942 H 0.63427 0.99297 0.69644 0.0
H2943 H 0.62584 0.03551 0.78258 0.0
H2944 H 0.60714 0.03043 0.72447 0.0
H2945 H 0.65806 0.01406 0.74879 0.0
C2946 C 0.66105 0.99713 0.72872 0.0
C2947 C 0.65432 0.99062 0.71413 0.0
C2948 C 0.61131 0.03184 0.73716 0.0
C2949 C 0.63749 0.01547 0.73131 0.0
C2950 C 0.6007 0.03915 0.74888 0.0
C2951 C 0.60559 0.04011 0.76555 0.0
C2952 C 0.62686 0.02575 0.74226 0.0
C2953 C 0.62151 0.0347 0.76989 0.0
C2954 C 0.65285 0.00968 0.7372 0.0
C2955 C 0.63979 0.99773 0.70772 0.0
N2956 N 0.63149 0.02768 0.75837 0.0
N2957 N 0.63159 0.00958 0.71658 0.0
H2958 H 0.67227 0.49634 0.2244 0.0
H2959 H 0.58747 0.54309 0.24386 0.0
H2960 H 0.62843 0.49008 0.19448 0.0
H2961 H 0.63012 0.54053 0.276 0.0
H2962 H 0.60401 0.5302 0.22155 0.0
H2963 H 0.65911 0.51956 0.23853 0.0
C2964 C 0.65997 0.50017 0.22056 0.0
C2965 C 0.65132 0.49127 0.20844 0.0
C2966 C 0.6098 0.53283 0.23338 0.0
C2967 C 0.63584 0.51739 0.22501 0.0
C2968 C 0.60042 0.54022 0.24603 0.0
C2969 C 0.60746 0.54262 0.26176 0.0
C2970 C 0.6263 0.52809 0.23656 0.0
C2971 C 0.6242 0.53865 0.26408 0.0
C2972 C 0.6524 0.51336 0.22868 0.0
C2973 C 0.63545 0.49671 0.20382 0.0
N2974 N 0.63299 0.53149 0.25169 0.0
N2975 N 0.62801 0.50922 0.21242 0.0
H2976 H 0.08361 0.33995 0.03983 0.0
H2977 H 0.17074 0.3735 0.07199 0.0
H2978 H 0.11232 0.31561 0.07787 0.0
H2979 H 0.14467 0.39461 0.03027 0.0
H2980 H 0.15047 0.35104 0.07298 0.0
H2981 H 0.10697 0.3584 0.03433 0.0
C2982 C 0.09497 0.33829 0.04681 0.0
C2983 C 0.096 0.32633 0.05942 0.0
C2984 C 0.14922 0.3605 0.06353 0.0
C2985 C 0.12269 0.34765 0.05342 0.0
C2986 C 0.16075 0.37339 0.063 0.0
C2987 C 0.15928 0.38603 0.05112 0.0
C2988 C 0.13602 0.36029 0.05217 0.0
C2989 C 0.14619 0.38517 0.0397 0.0
C2990 C 0.10829 0.34887 0.04371 0.0
C2991 C 0.11101 0.32468 0.06805 0.0
N2992 N 0.13498 0.37259 0.04059 0.0
N2993 N 0.1237 0.3354 0.06506 0.0
H2994 H 0.93713 0.36066 0.32398 0.0
H2995 H 0.85709 0.39434 0.27581 0.0
H2996 H 0.90897 0.33182 0.28877 0.0
H2997 H 0.88147 0.42072 0.31549 0.0
H2998 H 0.87902 0.37333 0.27679 0.0
H2999 H 0.92016 0.38493 0.3171 0.0
C3000 C 0.92762 0.35954 0.31455 0.0
C3001 C 0.92429 0.34419 0.30708 0.0
C3002 C 0.87964 0.3838 0.28519 0.0
C3003 C 0.90474 0.37175 0.29932 0.0
C3004 C 0.86713 0.39577 0.28463 0.0
C3005 C 0.86737 0.40915 0.29573 0.0
C3006 C 0.89247 0.38524 0.29693 0.0
C3007 C 0.88071 0.41048 0.30683 0.0
C3008 C 0.91787 0.37335 0.31071 0.0
C3009 C 0.91181 0.3434 0.29496 0.0
N3010 N 0.89266 0.39862 0.30724 0.0
N3011 N 0.90237 0.35692 0.29159 0.0
H3012 H 0.85657 0.11066 0.52725 0.0
H3013 H 0.89124 0.18919 0.57738 0.0
H3014 H 0.83247 0.13174 0.57015 0.0
H3015 H 0.91951 0.16222 0.54081 0.0
H3016 H 0.86715 0.17171 0.57112 0.0
H3017 H 0.87754 0.1326 0.5287 0.0
C3018 C 0.85565 0.11995 0.53691 0.0
C3019 C 0.84288 0.11929 0.5487 0.0
C3020 C 0.87857 0.16979 0.5643 0.0
C3021 C 0.86672 0.14445 0.55038 0.0
C3022 C 0.89226 0.17985 0.56777 0.0
C3023 C 0.9074 0.17702 0.55971 0.0
C3024 C 0.88008 0.15689 0.55264 0.0
C3025 C 0.90809 0.1647 0.54742 0.0
C3026 C 0.8676 0.13247 0.53773 0.0
C3027 C 0.84221 0.1317 0.56091 0.0
N3028 N 0.89467 0.15499 0.54437 0.0
N3029 N 0.854 0.14372 0.56148 0.0
H3030 H 0.11599 0.07791 0.81913 0.0
H3031 H 0.08656 0.16666 0.78821 0.0
H3032 H 0.13672 0.10247 0.77634 0.0
H3033 H 0.06152 0.13912 0.82665 0.0
H3034 H 0.10296 0.14208 0.78161 0.0
H3035 H 0.09433 0.09902 0.82045 0.0
C3036 C 0.11592 0.08772 0.80995 0.0
C3037 C 0.12827 0.08857 0.79772 0.0
C3038 C 0.09369 0.1413 0.79131 0.0
C3039 C 0.10351 0.11281 0.79916 0.0
C3040 C 0.08429 0.15532 0.79505 0.0
C3041 C 0.0728 0.15495 0.80811 0.0
C3042 C 0.09176 0.12687 0.80087 0.0
C3043 C 0.07029 0.13994 0.81652 0.0
C3044 C 0.1035 0.09973 0.81067 0.0
C3045 C 0.1275 0.10144 0.78605 0.0
N3046 N 0.07991 0.12655 0.81293 0.0
N3047 N 0.11543 0.11316 0.78716 0.0
H3048 H 0.1124 0.68867 0.91968 0.0
H3049 H 0.15049 0.60888 0.96513 0.0
H3050 H 0.08573 0.65875 0.95513 0.0
H3051 H 0.17122 0.63035 0.92069 0.0
H3052 H 0.12943 0.63075 0.96546 0.0
H3053 H 0.13701 0.67122 0.92405 0.0
C3054 C 0.11185 0.67867 0.92864 0.0
C3055 C 0.09702 0.675 0.93694 0.0
C3056 C 0.13866 0.63074 0.95571 0.0
C3057 C 0.1249 0.65505 0.94191 0.0
C3058 C 0.15067 0.61826 0.95551 0.0
C3059 C 0.16247 0.61771 0.94276 0.0
C3060 C 0.13854 0.64279 0.94311 0.0
C3061 C 0.16221 0.63023 0.93066 0.0
C3062 C 0.12582 0.66865 0.93103 0.0
C3063 C 0.0969 0.66186 0.94835 0.0
N3064 N 0.15038 0.64223 0.93108 0.0
N3065 N 0.11058 0.65229 0.95042 0.0
H3066 H 0.58175 0.33717 0.21279 0.0
H3067 H 0.61048 0.42751 0.18493 0.0
H3068 H 0.55738 0.36547 0.17447 0.0
H3069 H 0.63554 0.39828 0.2221 0.0
H3070 H 0.58808 0.40709 0.18435 0.0
H3071 H 0.59828 0.36149 0.21992 0.0
C3072 C 0.57965 0.34863 0.20608 0.0
C3073 C 0.56831 0.34926 0.19288 0.0
C3074 C 0.59836 0.40523 0.19279 0.0
C3075 C 0.58744 0.37711 0.20079 0.0
C3076 C 0.61116 0.41689 0.19314 0.0
C3077 C 0.62499 0.41447 0.20343 0.0
C3078 C 0.59943 0.39098 0.20275 0.0
C3079 C 0.62516 0.40056 0.21388 0.0
C3080 C 0.58915 0.36251 0.21012 0.0
C3081 C 0.56603 0.36443 0.18468 0.0
N3082 N 0.61267 0.38925 0.21313 0.0
N3083 N 0.57572 0.3777 0.1886 0.0
H3084 H 0.82359 0.86582 0.44444 0.0
H3085 H 0.92142 0.85264 0.4475 0.0
H3086 H 0.85836 0.90314 0.46069 0.0
H3087 H 0.88717 0.81348 0.43494 0.0
H3088 H 0.89815 0.87033 0.45501 0.0
H3089 H 0.84616 0.84555 0.44365 0.0
C3090 C 0.83594 0.86969 0.44807 0.0
C3091 C 0.83917 0.88623 0.45248 0.0
C3092 C 0.89566 0.85783 0.45076 0.0
C3093 C 0.86504 0.86316 0.45144 0.0
C3094 C 0.90896 0.84772 0.44643 0.0
C3095 C 0.90619 0.83163 0.44042 0.0
C3096 C 0.87939 0.85192 0.4489 0.0
C3097 C 0.88982 0.82585 0.43945 0.0
C3098 C 0.84882 0.85812 0.4476 0.0
C3099 C 0.85535 0.89055 0.45712 0.0
N3100 N 0.87698 0.83607 0.44346 0.0
N3101 N 0.86771 0.87914 0.4563 0.0
H3102 H 0.35852 0.10152 0.72036 0.0
H3103 H 0.43998 0.13284 0.67315 0.0
H3104 H 0.38263 0.07423 0.68113 0.0
H3105 H 0.41332 0.16175 0.70945 0.0
H3106 H 0.42216 0.10905 0.67955 0.0
H3107 H 0.38129 0.12159 0.71993 0.0
C3108 C 0.36869 0.09966 0.71178 0.0
C3109 C 0.36859 0.08632 0.70064 0.0
C3110 C 0.42038 0.12053 0.68629 0.0
C3111 C 0.39466 0.10922 0.70002 0.0
C3112 C 0.43062 0.13407 0.68272 0.0
C3113 C 0.42798 0.14932 0.69064 0.0
C3114 C 0.40743 0.12232 0.69786 0.0
C3115 C 0.41566 0.15026 0.70291 0.0
C3116 C 0.38169 0.11112 0.71153 0.0
C3117 C 0.38213 0.08444 0.68984 0.0
N3118 N 0.40572 0.13701 0.706 0.0
N3119 N 0.39454 0.09585 0.68969 0.0
H3120 H 0.02569 0.14526 0.38834 0.0
H3121 H 0.07414 0.11126 0.30868 0.0
H3122 H 0.06434 0.17236 0.36309 0.0
H3123 H 0.03998 0.08218 0.33786 0.0
H3124 H 0.06662 0.1358 0.32501 0.0
H3125 H 0.02676 0.12414 0.36656 0.0
C3126 C 0.03423 0.14688 0.37809 0.0
C3127 C 0.04509 0.16045 0.37762 0.0
C3128 C 0.0606 0.12409 0.32767 0.0
C3129 C 0.04647 0.13632 0.35274 0.0
C3130 C 0.06483 0.11011 0.3183 0.0
C3131 C 0.05782 0.09465 0.32208 0.0
C3132 C 0.04928 0.12254 0.34086 0.0
C3133 C 0.04583 0.09384 0.33467 0.0
C3134 C 0.03487 0.13481 0.36568 0.0
C3135 C 0.05586 0.16198 0.36402 0.0
N3136 N 0.04206 0.10754 0.34372 0.0
N3137 N 0.05641 0.14997 0.35221 0.0
H3138 H 0.16594 0.29061 0.59189 0.0
H3139 H 0.07426 0.31653 0.61548 0.0
H3140 H 0.13664 0.32403 0.56211 0.0
H3141 H 0.10179 0.27827 0.64082 0.0
H3142 H 0.09524 0.31676 0.5936 0.0
H3143 H 0.14118 0.2831 0.60749 0.0
C3144 C 0.1542 0.29619 0.58849 0.0
C3145 C 0.15333 0.30812 0.57586 0.0
C3146 C 0.09657 0.30812 0.6038 0.0
C3147 C 0.12494 0.29981 0.59388 0.0
C3148 C 0.0846 0.30799 0.61631 0.0
C3149 C 0.08645 0.29754 0.63011 0.0
C3150 C 0.11056 0.29785 0.6052 0.0
C3151 C 0.09999 0.28664 0.63048 0.0
C3152 C 0.14005 0.29189 0.5974 0.0
C3153 C 0.13781 0.31483 0.57183 0.0
N3154 N 0.11166 0.28725 0.61834 0.0
N3155 N 0.12423 0.31081 0.58103 0.0
H3156 H 0.95769 0.41729 0.84109 0.0
H3157 H 0.93347 0.32493 0.86571 0.0
H3158 H 0.92433 0.38708 0.81213 0.0
H3159 H 0.97074 0.35364 0.89124 0.0
H3160 H 0.93212 0.34627 0.84423 0.0
H3161 H 0.96487 0.39306 0.8577 0.0
C3162 C 0.95202 0.40548 0.8381 0.0
C3163 C 0.94027 0.4042 0.82534 0.0
C3164 C 0.94075 0.34782 0.85441 0.0
C3165 C 0.94827 0.37641 0.84446 0.0
C3166 C 0.94153 0.33564 0.86668 0.0
C3167 C 0.95211 0.33763 0.88037 0.0
C3168 C 0.95052 0.36217 0.85591 0.0
C3169 C 0.96234 0.35168 0.88095 0.0
C3170 C 0.95613 0.39163 0.84759 0.0
C3171 C 0.93341 0.38859 0.82191 0.0
N3172 N 0.96114 0.36351 0.869 0.0
N3173 N 0.93734 0.37533 0.83159 0.0
H3174 H 0.83677 0.21217 0.08319 0.0
H3175 H 0.92613 0.18261 0.11245 0.0
H3176 H 0.86402 0.17262 0.05961 0.0
H3177 H 0.89907 0.22282 0.13516 0.0
H3178 H 0.90571 0.18185 0.09008 0.0
H3179 H 0.86152 0.21952 0.09897 0.0
C3180 C 0.84809 0.20524 0.08109 0.0
C3181 C 0.8483 0.19163 0.07025 0.0
C3182 C 0.90434 0.19099 0.09983 0.0
C3183 C 0.87663 0.19976 0.08852 0.0
C3184 C 0.91599 0.19143 0.11262 0.0
C3185 C 0.91415 0.20265 0.1258 0.0
C3186 C 0.89066 0.20177 0.10028 0.0
C3187 C 0.90087 0.21388 0.12531 0.0
C3188 C 0.86222 0.2094 0.09015 0.0
C3189 C 0.86331 0.18315 0.06791 0.0
N3190 N 0.88951 0.213 0.11287 0.0
N3191 N 0.87681 0.18717 0.0772 0.0
H3192 H 0.0441 0.8222 0.63365 0.0
H3193 H 0.04886 0.92064 0.6437 0.0
H3194 H 0.03972 0.85723 0.59342 0.0
H3195 H 0.06075 0.88681 0.68344 0.0
H3196 H 0.04043 0.89731 0.62659 0.0
H3197 H 0.04502 0.84539 0.65332 0.0
C3198 C 0.04297 0.83475 0.62899 0.0
C3199 C 0.04199 0.83784 0.61188 0.0
C3200 C 0.04477 0.89492 0.63908 0.0
C3201 C 0.04317 0.86432 0.63423 0.0
C3202 C 0.04962 0.90826 0.64887 0.0
C3203 C 0.05574 0.90563 0.66495 0.0
C3204 C 0.04614 0.87873 0.64528 0.0
C3205 C 0.05621 0.88934 0.67106 0.0
C3206 C 0.04361 0.84797 0.64021 0.0
C3207 C 0.04062 0.85431 0.6065 0.0
N3208 N 0.05164 0.87644 0.66113 0.0
N3209 N 0.04139 0.86692 0.61762 0.0
H3210 H 0.36428 0.32219 0.93813 0.0
H3211 H 0.39904 0.27478 0.85809 0.0
H3212 H 0.33562 0.28888 0.90761 0.0
H3213 H 0.42466 0.31526 0.88197 0.0
H3214 H 0.37833 0.27525 0.88025 0.0
H3215 H 0.38906 0.31523 0.92174 0.0
C3216 C 0.3633 0.31316 0.92822 0.0
C3217 C 0.34791 0.30625 0.92403 0.0
C3218 C 0.3886 0.28391 0.88075 0.0
C3219 C 0.37597 0.2983 0.90532 0.0
C3220 C 0.40043 0.28361 0.86812 0.0
C3221 C 0.41342 0.29515 0.86808 0.0
C3222 C 0.38976 0.29585 0.89341 0.0
C3223 C 0.4147 0.30626 0.88144 0.0
C3224 C 0.37738 0.30926 0.91883 0.0
C3225 C 0.34724 0.29466 0.91108 0.0
N3226 N 0.4029 0.30647 0.89348 0.0
N3227 N 0.36103 0.29115 0.90211 0.0
H3228 H 0.96987 0.64956 0.10738 0.0
H3229 H 0.92443 0.6122 0.18751 0.0
H3230 H 0.92663 0.67168 0.12989 0.0
H3231 H 0.95707 0.58409 0.15576 0.0
H3232 H 0.92968 0.63687 0.17038 0.0
H3233 H 0.96961 0.62806 0.12885 0.0
C3234 C 0.9604 0.64995 0.11691 0.0
C3235 C 0.94813 0.66226 0.11677 0.0
C3236 C 0.93585 0.62533 0.16734 0.0
C3237 C 0.94783 0.63787 0.14137 0.0
C3238 C 0.93296 0.61133 0.17715 0.0
C3239 C 0.94021 0.59612 0.1729 0.0
C3240 C 0.94619 0.62406 0.15335 0.0
C3241 C 0.95109 0.59557 0.15933 0.0
C3242 C 0.96026 0.6377 0.12914 0.0
C3243 C 0.9362 0.66227 0.12946 0.0
N3244 N 0.95368 0.60931 0.14998 0.0
N3245 N 0.9363 0.65021 0.14122 0.0
H3246 H 0.63177 0.17393 0.43736 0.0
H3247 H 0.59715 0.21998 0.35651 0.0
H3248 H 0.65877 0.21065 0.40936 0.0
H3249 H 0.57295 0.17804 0.37933 0.0
H3250 H 0.61704 0.22053 0.37938 0.0
H3251 H 0.6073 0.17922 0.41995 0.0
C3252 C 0.6324 0.18336 0.42782 0.0
C3253 C 0.64731 0.19173 0.42462 0.0
C3254 C 0.60728 0.21129 0.37948 0.0
C3255 C 0.61961 0.19774 0.40467 0.0
C3256 C 0.59593 0.21099 0.36643 0.0
C3257 C 0.58355 0.1988 0.36592 0.0
C3258 C 0.60628 0.19929 0.3921 0.0
C3259 C 0.58244 0.18754 0.37916 0.0
C3260 C 0.61851 0.18631 0.41782 0.0
C3261 C 0.64755 0.20378 0.41208 0.0
N3262 N 0.59378 0.18794 0.39164 0.0
N3263 N 0.63398 0.20631 0.40248 0.0
H3264 H 0.34668 0.04265 0.08407 0.0
H3265 H 0.36566 0.06307 0.17842 0.0
H3266 H 0.31247 0.06962 0.11514 0.0
H3267 H 0.39487 0.02935 0.14884 0.0
H3268 H 0.34468 0.06368 0.1565 0.0
H3269 H 0.36304 0.03566 0.10847 0.0
C3270 C 0.34252 0.04697 0.09611 0.0
C3271 C 0.32831 0.05687 0.09761 0.0
C3272 C 0.35556 0.05596 0.15491 0.0
C3273 C 0.34714 0.0491 0.12564 0.0
C3274 C 0.36754 0.0556 0.16741 0.0
C3275 C 0.38211 0.04629 0.16534 0.0
C3276 C 0.35825 0.04705 0.14018 0.0
C3277 C 0.38388 0.03679 0.15089 0.0
C3278 C 0.35186 0.04294 0.11006 0.0
C3279 C 0.32339 0.06199 0.11348 0.0
N3280 N 0.37219 0.03759 0.13877 0.0
N3281 N 0.33296 0.05825 0.1269 0.0
H3282 H 0.87757 0.91228 0.32922 0.0
H3283 H 0.82887 0.959 0.40176 0.0
H3284 H 0.88871 0.96215 0.34518 0.0
H3285 H 0.81814 0.90886 0.38641 0.0
H3286 H 0.84838 0.9616 0.37875 0.0
H3287 H 0.85395 0.91177 0.34816 0.0
C3288 C 0.87503 0.92314 0.33671 0.0
C3289 C 0.8852 0.93724 0.33573 0.0
C3290 C 0.84161 0.9501 0.38025 0.0
C3291 C 0.85808 0.93677 0.35739 0.0
C3292 C 0.83038 0.94864 0.39333 0.0
C3293 C 0.82198 0.93364 0.39607 0.0
C3294 C 0.84456 0.93642 0.36989 0.0
C3295 C 0.82438 0.92064 0.38476 0.0
C3296 C 0.86149 0.92286 0.34748 0.0
C3297 C 0.88126 0.95098 0.34564 0.0
N3298 N 0.83563 0.92225 0.37229 0.0
N3299 N 0.86805 0.95038 0.35611 0.0
H3300 H 0.32632 0.05935 0.63478 0.0
H3301 H 0.27641 0.13684 0.59784 0.0
H3302 H 0.2913 0.08898 0.66231 0.0
H3303 H 0.31875 0.11473 0.57368 0.0
H3304 H 0.27736 0.11496 0.61881 0.0
H3305 H 0.31934 0.07518 0.60965 0.0
C3306 C 0.31693 0.06894 0.63544 0.0
C3307 C 0.30952 0.07305 0.65062 0.0
C3308 C 0.28633 0.11478 0.60881 0.0
C3309 C 0.30153 0.09111 0.62215 0.0
C3310 C 0.28576 0.12725 0.59683 0.0
C3311 C 0.29767 0.12772 0.58417 0.0
C3312 C 0.29891 0.10272 0.60814 0.0
C3313 C 0.30945 0.11492 0.58337 0.0
C3314 C 0.31302 0.07801 0.62116 0.0
C3315 C 0.29746 0.08559 0.65087 0.0
N3316 N 0.3099 0.10302 0.59532 0.0
N3317 N 0.29394 0.09425 0.63689 0.0
H3318 H 0.11056 0.52838 0.84751 0.0
H3319 H 0.19135 0.57632 0.87932 0.0
H3320 H 0.13518 0.56697 0.81978 0.0
H3321 H 0.16447 0.54017 0.90822 0.0
H3322 H 0.17405 0.5694 0.85528 0.0
H3323 H 0.13317 0.52898 0.86776 0.0
C3324 C 0.12084 0.53682 0.84557 0.0
C3325 C 0.1209 0.54778 0.83207 0.0
C3326 C 0.17212 0.5628 0.86682 0.0
C3327 C 0.14675 0.54865 0.85522 0.0
C3328 C 0.18205 0.56669 0.8805 0.0
C3329 C 0.17919 0.55895 0.89581 0.0
C3330 C 0.15926 0.55112 0.86851 0.0
C3331 C 0.16696 0.54658 0.89668 0.0
C3332 C 0.13373 0.53719 0.85714 0.0
C3333 C 0.13456 0.55842 0.83011 0.0
N3334 N 0.15734 0.54318 0.88329 0.0
N3335 N 0.14684 0.55871 0.84165 0.0
H3336 H 0.17418 0.94039 0.13151 0.0
H3337 H 0.22237 0.85885 0.10204 0.0
H3338 H 0.20927 0.91353 0.16169 0.0
H3339 H 0.18496 0.88351 0.07277 0.0
H3340 H 0.22136 0.88171 0.12197 0.0
H3341 H 0.18165 0.92278 0.10784 0.0
C3342 C 0.1837 0.93102 0.13306 0.0
C3343 C 0.19097 0.92826 0.14861 0.0
C3344 C 0.2135 0.88223 0.11109 0.0
C3345 C 0.19944 0.908 0.12174 0.0
C3346 C 0.21412 0.86919 0.0997 0.0
C3347 C 0.2036 0.86919 0.08585 0.0
C3348 C 0.20224 0.89533 0.10865 0.0
C3349 C 0.19318 0.88294 0.08337 0.0
C3350 C 0.1879 0.92092 0.11958 0.0
C3351 C 0.20321 0.91595 0.14996 0.0
N3352 N 0.19263 0.89536 0.09475 0.0
N3353 N 0.20692 0.90617 0.13676 0.0
H3354 H 0.60646 0.96745 0.14533 0.0
H3355 H 0.68783 0.92085 0.1121 0.0
H3356 H 0.63343 0.93084 0.17356 0.0
H3357 H 0.65515 0.94976 0.08111 0.0
H3358 H 0.67088 0.9283 0.13626 0.0
H3359 H 0.62705 0.96494 0.12311 0.0
C3360 C 0.6168 0.95902 0.14691 0.0
C3361 C 0.61817 0.94922 0.16121 0.0
C3362 C 0.66753 0.93314 0.12418 0.0
C3363 C 0.64172 0.94627 0.13592 0.0
C3364 C 0.67724 0.92894 0.11043 0.0
C3365 C 0.67278 0.93457 0.0946 0.0
C3366 C 0.65336 0.94309 0.12204 0.0
C3367 C 0.65893 0.94502 0.09309 0.0
C3368 C 0.62852 0.95755 0.13423 0.0
C3369 C 0.63183 0.93851 0.16266 0.0
N3370 N 0.64966 0.94886 0.10661 0.0
N3371 N 0.64303 0.93725 0.15014 0.0
H3372 H 0.31803 0.38036 0.92509 0.0
H3373 H 0.29017 0.41099 0.83547 0.0
H3374 H 0.28042 0.35609 0.89574 0.0
H3375 H 0.32504 0.43768 0.86606 0.0
H3376 H 0.28402 0.39274 0.85878 0.0
H3377 H 0.31858 0.40312 0.90508 0.0
C3378 C 0.30977 0.3799 0.9145 0.0
C3379 C 0.29928 0.36623 0.91196 0.0
C3380 C 0.29286 0.40271 0.86052 0.0
C3381 C 0.29991 0.39221 0.88897 0.0
C3382 C 0.29636 0.41316 0.84721 0.0
C3383 C 0.30826 0.42576 0.84881 0.0
C3384 C 0.30147 0.4047 0.87552 0.0
C3385 C 0.31581 0.42808 0.86431 0.0
C3386 C 0.31008 0.39292 0.90309 0.0
C3387 C 0.28877 0.36634 0.89811 0.0
N3388 N 0.31247 0.41748 0.87701 0.0
N3389 N 0.28948 0.37904 0.88704 0.0
H3390 H 0.68017 0.11866 0.42497 0.0
H3391 H 0.70237 0.09592 0.33191 0.0
H3392 H 0.71537 0.14607 0.39541 0.0
H3393 H 0.6756 0.06249 0.36397 0.0
H3394 H 0.70866 0.11342 0.35571 0.0
H3395 H 0.67962 0.09699 0.40372 0.0
C3396 C 0.68794 0.12002 0.41409 0.0
C3397 C 0.6977 0.13426 0.41184 0.0
C3398 C 0.70158 0.10217 0.35765 0.0
C3399 C 0.69704 0.10961 0.38746 0.0
C3400 C 0.69796 0.09218 0.34404 0.0
C3401 C 0.68832 0.07784 0.34599 0.0
C3402 C 0.69529 0.09796 0.37332 0.0
C3403 C 0.68304 0.07349 0.36197 0.0
C3404 C 0.68764 0.10764 0.40198 0.0
C3405 C 0.70758 0.13535 0.39758 0.0
N3406 N 0.68638 0.08366 0.37504 0.0
N3407 N 0.70684 0.12329 0.38584 0.0
H3408 H 0.14906 0.89164 0.53763 0.0
H3409 H 0.11341 0.81602 0.5912 0.0
H3410 H 0.16947 0.87651 0.58474 0.0
H3411 H 0.09418 0.83043 0.54337 0.0
H3412 H 0.13578 0.83633 0.58792 0.0
H3413 H 0.13006 0.868 0.53864 0.0
C3414 C 0.14952 0.88335 0.54819 0.0
C3415 C 0.16075 0.88609 0.56117 0.0
C3416 C 0.12679 0.83489 0.57804 0.0
C3417 C 0.13915 0.85897 0.5624 0.0
C3418 C 0.1141 0.82321 0.57987 0.0
C3419 C 0.10187 0.82165 0.5676 0.0
C3420 C 0.12717 0.84507 0.56388 0.0
C3421 C 0.1033 0.83132 0.55319 0.0
C3422 C 0.13873 0.86981 0.54874 0.0
C3423 C 0.16092 0.8749 0.5745 0.0
N3424 N 0.1156 0.84274 0.55181 0.0
N3425 N 0.15024 0.86187 0.57481 0.0
H3426 H 0.91208 0.83673 0.78618 0.0
H3427 H 0.88028 0.92144 0.82441 0.0
H3428 H 0.93824 0.86267 0.82499 0.0
H3429 H 0.86148 0.90137 0.77849 0.0
H3430 H 0.90249 0.90083 0.82403 0.0
H3431 H 0.8947 0.86114 0.7819 0.0
C3432 C 0.91436 0.84771 0.7936 0.0
C3433 C 0.92651 0.84767 0.80605 0.0
C3434 C 0.89362 0.90102 0.81394 0.0
C3435 C 0.90643 0.87552 0.80147 0.0
C3436 C 0.88089 0.91273 0.8142 0.0
C3437 C 0.86894 0.91298 0.80155 0.0
C3438 C 0.8943 0.88934 0.80104 0.0
C3439 C 0.87039 0.90153 0.78854 0.0
C3440 C 0.90441 0.86163 0.79117 0.0
C3441 C 0.92899 0.8622 0.81526 0.0
N3442 N 0.88274 0.89004 0.78872 0.0
N3443 N 0.91882 0.87548 0.81298 0.0
H3444 H 0.85095 0.61381 0.02825 0.0
H3445 H 0.88537 0.69301 0.07709 0.0
H3446 H 0.82572 0.63673 0.06952 0.0
H3447 H 0.91269 0.66684 0.03924 0.0
H3448 H 0.86101 0.67594 0.07081 0.0
H3449 H 0.87132 0.63631 0.02864 0.0
C3450 C 0.8496 0.62368 0.03727 0.0
C3451 C 0.83676 0.62331 0.049 0.0
C3452 C 0.87226 0.67412 0.0637 0.0
C3453 C 0.86003 0.64905 0.04958 0.0
C3454 C 0.88612 0.68393 0.06722 0.0
C3455 C 0.9011 0.68119 0.05881 0.0
C3456 C 0.87344 0.6615 0.05171 0.0
C3457 C 0.90142 0.66924 0.04615 0.0
C3458 C 0.86123 0.63652 0.03751 0.0
C3459 C 0.83553 0.63646 0.06036 0.0
N3460 N 0.88787 0.65971 0.04312 0.0
N3461 N 0.84711 0.64871 0.06047 0.0
H3462 H 0.0929 0.67273 0.29883 0.0
H3463 H 0.11443 0.5802 0.32266 0.0
H3464 H 0.05974 0.64222 0.32769 0.0
H3465 H 0.13827 0.60587 0.2822 0.0
H3466 H 0.09377 0.60234 0.32419 0.0
H3467 H 0.10909 0.64814 0.29184 0.0
C3468 C 0.08892 0.66078 0.30352 0.0
C3469 C 0.07506 0.65948 0.31396 0.0
C3470 C 0.10338 0.60303 0.31483 0.0
C3471 C 0.09368 0.63132 0.30622 0.0
C3472 C 0.11522 0.59044 0.314 0.0
C3473 C 0.12815 0.59132 0.30239 0.0
C3474 C 0.10465 0.61672 0.30415 0.0
C3475 C 0.12853 0.60478 0.29138 0.0
C3476 C 0.09815 0.64674 0.2995 0.0
C3477 C 0.07037 0.64373 0.31962 0.0
N3478 N 0.11708 0.61708 0.29268 0.0
N3479 N 0.07983 0.63026 0.31589 0.0
H3480 H 0.14754 0.10446 0.46602 0.0
H3481 H 0.11182 0.18444 0.41901 0.0
H3482 H 0.17131 0.12689 0.42362 0.0
H3483 H 0.08328 0.15394 0.45246 0.0
H3484 H 0.13624 0.1671 0.42468 0.0
H3485 H 0.12624 0.12606 0.46507 0.0
C3486 C 0.14832 0.11399 0.45658 0.0
C3487 C 0.16106 0.11379 0.44476 0.0
C3488 C 0.12467 0.16437 0.43092 0.0
C3489 C 0.13685 0.13855 0.44364 0.0
C3490 C 0.1108 0.17431 0.42778 0.0
C3491 C 0.09553 0.17047 0.43516 0.0
C3492 C 0.12319 0.15066 0.44161 0.0
C3493 C 0.09481 0.15719 0.44638 0.0
C3494 C 0.13618 0.12631 0.45604 0.0
C3495 C 0.16157 0.12649 0.43285 0.0
N3496 N 0.1084 0.1477 0.44918 0.0
N3497 N 0.14957 0.13833 0.43254 0.0
H3498 H 0.64265 0.89741 0.71934 0.0
H3499 H 0.55952 0.86814 0.67329 0.0
H3500 H 0.61581 0.92833 0.68485 0.0
H3501 H 0.59509 0.83517 0.69591 0.0
H3502 H 0.57617 0.89193 0.68283 0.0
H3503 H 0.62114 0.8762 0.71651 0.0
C3504 C 0.63209 0.89985 0.71139 0.0
C3505 C 0.63112 0.91452 0.70213 0.0
C3506 C 0.58017 0.87947 0.68585 0.0
C3507 C 0.60655 0.89032 0.69876 0.0
C3508 C 0.57068 0.86594 0.68046 0.0
C3509 C 0.5761 0.84973 0.68364 0.0
C3510 C 0.59498 0.87665 0.69464 0.0
C3511 C 0.59061 0.8475 0.69298 0.0
C3512 C 0.61986 0.88772 0.70972 0.0
C3513 C 0.61712 0.91708 0.69206 0.0
N3514 N 0.59957 0.86078 0.69809 0.0
N3515 N 0.60545 0.90501 0.6905 0.0
H3516 H 0.91567 0.34138 0.95828 0.0
H3517 H 0.82885 0.3736 0.92521 0.0
H3518 H 0.88732 0.31527 0.92117 0.0
H3519 H 0.85315 0.39363 0.9685 0.0
H3520 H 0.84912 0.35107 0.92458 0.0
H3521 H 0.89183 0.35914 0.96373 0.0
C3522 C 0.90428 0.33922 0.95147 0.0
C3523 C 0.90345 0.32697 0.93916 0.0
C3524 C 0.84993 0.36029 0.93431 0.0
C3525 C 0.87622 0.34749 0.94506 0.0
C3526 C 0.83843 0.37321 0.93463 0.0
C3527 C 0.83947 0.38559 0.94682 0.0
C3528 C 0.86266 0.35985 0.94618 0.0
C3529 C 0.852 0.3844 0.95881 0.0
C3530 C 0.89067 0.34938 0.95457 0.0
C3531 C 0.88842 0.32461 0.93076 0.0
N3532 N 0.86321 0.37185 0.95809 0.0
N3533 N 0.87544 0.33499 0.93367 0.0
H3534 H 0.43618 0.63541 0.17637 0.0
H3535 H 0.35548 0.60205 0.22369 0.0
H3536 H 0.40538 0.66508 0.20852 0.0
H3537 H 0.3804 0.57495 0.18483 0.0
H3538 H 0.37745 0.62295 0.22274 0.0
H3539 H 0.41967 0.61089 0.18385 0.0
C3540 C 0.42618 0.63668 0.18525 0.0
C3541 C 0.42197 0.65227 0.19168 0.0
C3542 C 0.37821 0.61233 0.21454 0.0
C3543 C 0.40307 0.62449 0.2002 0.0
C3544 C 0.36569 0.60039 0.21511 0.0
C3545 C 0.36602 0.58689 0.20417 0.0
C3546 C 0.39113 0.61077 0.20293 0.0
C3547 C 0.37959 0.58529 0.19336 0.0
C3548 C 0.41671 0.62274 0.18945 0.0
C3549 C 0.40889 0.6533 0.20311 0.0
N3550 N 0.39153 0.59718 0.19289 0.0
N3551 N 0.39982 0.63964 0.20689 0.0
H3552 H 0.04729 0.58201 0.84448 0.0
H3553 H 0.06379 0.67674 0.86468 0.0
H3554 H 0.07187 0.61475 0.81003 0.0
H3555 H 0.03006 0.64606 0.89271 0.0
H3556 H 0.06549 0.65505 0.84352 0.0
H3557 H 0.03945 0.60587 0.86128 0.0
C3558 C 0.05091 0.59429 0.84038 0.0
C3559 C 0.06038 0.59643 0.82595 0.0
C3560 C 0.05753 0.65316 0.85417 0.0
C3561 C 0.05161 0.62385 0.84526 0.0
C3562 C 0.05656 0.66553 0.86626 0.0
C3563 C 0.0469 0.6631 0.88055 0.0
C3564 C 0.04894 0.63819 0.85649 0.0
C3565 C 0.03773 0.64839 0.88193 0.0
C3566 C 0.04638 0.60793 0.84996 0.0
C3567 C 0.06459 0.6126 0.82112 0.0
N3568 N 0.03915 0.63641 0.87017 0.0
N3569 N 0.06039 0.62571 0.83091 0.0
H3570 H 0.16755 0.79662 0.09957 0.0
H3571 H 0.07598 0.82391 0.12171 0.0
H3572 H 0.13676 0.82385 0.06531 0.0
H3573 H 0.10137 0.78449 0.14751 0.0
H3574 H 0.09787 0.82394 0.10074 0.0
H3575 H 0.14332 0.79159 0.11701 0.0
C3576 C 0.15561 0.80137 0.09563 0.0
C3577 C 0.15413 0.81076 0.08106 0.0
C3578 C 0.09857 0.81516 0.11088 0.0
C3579 C 0.12641 0.80529 0.10109 0.0
C3580 C 0.08613 0.81519 0.1229 0.0
C3581 C 0.08697 0.80427 0.13643 0.0
C3582 C 0.11208 0.8043 0.11254 0.0
C3583 C 0.10031 0.79315 0.13731 0.0
C3584 C 0.14178 0.79847 0.10557 0.0
C3585 C 0.13839 0.81655 0.07647 0.0
N3586 N 0.11246 0.79359 0.12562 0.0
N3587 N 0.12515 0.81394 0.0866 0.0
H3588 H 0.93609 0.81881 0.36507 0.0
H3589 H 0.96617 0.9071 0.33318 0.0
H3590 H 0.97408 0.84785 0.38911 0.0
H3591 H 0.92866 0.87797 0.30854 0.0
H3592 H 0.97279 0.88334 0.35071 0.0
H3593 H 0.93655 0.83803 0.34167 0.0
C3594 C 0.9447 0.82913 0.36533 0.0
C3595 C 0.95491 0.83188 0.37916 0.0
C3596 C 0.9633 0.88201 0.3413 0.0
C3597 C 0.95542 0.85401 0.35244 0.0
C3598 C 0.95955 0.89556 0.33124 0.0
C3599 C 0.9467 0.89454 0.31954 0.0
C3600 C 0.95399 0.86737 0.33982 0.0
C3601 C 0.93861 0.87929 0.31747 0.0
C3602 C 0.94496 0.8401 0.35194 0.0
C3603 C 0.96591 0.84535 0.37876 0.0
N3604 N 0.94219 0.86637 0.32773 0.0
N3605 N 0.96571 0.85604 0.36571 0.0
H3606 H 0.8412 0.71123 0.58831 0.0
H3607 H 0.92765 0.67337 0.61719 0.0
H3608 H 0.86538 0.67097 0.56269 0.0
H3609 H 0.9053 0.71672 0.63924 0.0
H3610 H 0.90638 0.67372 0.59557 0.0
H3611 H 0.86606 0.71529 0.60502 0.0
C3612 C 0.8519 0.70343 0.58601 0.0
C3613 C 0.85122 0.69066 0.57421 0.0
C3614 C 0.9062 0.68325 0.60505 0.0
C3615 C 0.87964 0.69498 0.59358 0.0
C3616 C 0.9183 0.68302 0.61743 0.0
C3617 C 0.91813 0.69494 0.63012 0.0
C3618 C 0.89375 0.69542 0.60541 0.0
C3619 C 0.90582 0.70722 0.62976 0.0
C3620 C 0.86608 0.70571 0.59559 0.0
C3621 C 0.86543 0.68096 0.57167 0.0
N3622 N 0.89405 0.70706 0.61768 0.0
N3623 N 0.879 0.68314 0.58149 0.0
H3624 H 0.02997 0.35503 0.10978 0.0
H3625 H 0.07953 0.38863 0.18899 0.0
H3626 H 0.07267 0.33075 0.13107 0.0
H3627 H 0.04369 0.41759 0.16175 0.0
H3628 H 0.07288 0.36466 0.17156 0.0
H3629 H 0.03098 0.37561 0.13213 0.0
C3630 C 0.03947 0.35397 0.11922 0.0
C3631 C 0.05138 0.34133 0.11848 0.0
C3632 C 0.06631 0.3762 0.16956 0.0
C3633 C 0.05256 0.36467 0.14406 0.0
C3634 C 0.07001 0.38984 0.17958 0.0
C3635 C 0.0623 0.40514 0.17664 0.0
C3636 C 0.05479 0.37793 0.15658 0.0
C3637 C 0.05007 0.40604 0.16429 0.0
C3638 C 0.04004 0.36569 0.13196 0.0
C3639 C 0.06336 0.34044 0.13107 0.0
N3640 N 0.04681 0.39267 0.15458 0.0
N3641 N 0.0637 0.35201 0.14329 0.0
H3642 H 0.36387 0.82902 0.44075 0.0
H3643 H 0.3996 0.77657 0.36442 0.0
H3644 H 0.336 0.79283 0.41288 0.0
H3645 H 0.42405 0.8196 0.38482 0.0
H3646 H 0.37914 0.77803 0.38675 0.0
H3647 H 0.38883 0.82136 0.42496 0.0
C3648 C 0.36311 0.81922 0.43158 0.0
C3649 C 0.34787 0.81169 0.42791 0.0
C3650 C 0.3891 0.78703 0.38647 0.0
C3651 C 0.37614 0.80293 0.40989 0.0
C3652 C 0.4008 0.78618 0.37374 0.0
C3653 C 0.41336 0.79814 0.37263 0.0
C3654 C 0.38997 0.79996 0.39814 0.0
C3655 C 0.41442 0.81025 0.38511 0.0
C3656 C 0.37729 0.81492 0.42253 0.0
C3657 C 0.34749 0.79911 0.41591 0.0
N3658 N 0.40274 0.81098 0.39725 0.0
N3659 N 0.36136 0.79522 0.40724 0.0
H3660 H 0.92918 0.17214 0.63145 0.0
H3661 H 0.95822 0.08363 0.66361 0.0
H3662 H 0.9715 0.14608 0.61158 0.0
H3663 H 0.91975 0.11241 0.68718 0.0
H3664 H 0.96536 0.1076 0.64655 0.0
H3665 H 0.92724 0.15161 0.6536 0.0
C3666 C 0.93812 0.16212 0.63181 0.0
C3667 C 0.9504 0.16068 0.61956 0.0
C3668 C 0.95553 0.10879 0.65562 0.0
C3669 C 0.94825 0.1371 0.64489 0.0
C3670 C 0.95147 0.09512 0.66541 0.0
C3671 C 0.93825 0.09601 0.67668 0.0
C3672 C 0.94614 0.12339 0.65698 0.0
C3673 C 0.92999 0.11119 0.67858 0.0
C3674 C 0.93705 0.15043 0.6445 0.0
C3675 C 0.96177 0.14756 0.62071 0.0
N3676 N 0.9339 0.12422 0.66862 0.0
N3677 N 0.96031 0.13617 0.63306 0.0
H3678 H 0.61083 0.71686 0.84688 0.0
H3679 H 0.6663 0.71379 0.91223 0.0
H3680 H 0.58312 0.67906 0.87268 0.0
H3681 H 0.64062 0.66934 0.92716 0.0
H3682 H 0.64438 0.71964 0.89244 0.0
H3683 H 0.63099 0.71702 0.86921 0.0
C3684 C 0.60892 0.70871 0.85739 0.0
C3685 C 0.59533 0.69791 0.85789 0.0
C3686 C 0.64345 0.7085 0.89982 0.0
C3687 C 0.61818 0.69829 0.88406 0.0
C3688 C 0.6559 0.70532 0.91138 0.0
C3689 C 0.65532 0.69099 0.92119 0.0
C3690 C 0.6305 0.69699 0.89773 0.0
C3691 C 0.64151 0.68053 0.91979 0.0
C3692 C 0.62039 0.7089 0.87035 0.0
C3693 C 0.59349 0.68755 0.87176 0.0
N3694 N 0.62976 0.68361 0.90807 0.0
N3695 N 0.60482 0.68795 0.88425 0.0
H3696 H 0.30815 0.57686 0.61676 0.0
H3697 H 0.38597 0.52677 0.6528 0.0
H3698 H 0.33831 0.54293 0.58845 0.0
H3699 H 0.36342 0.56838 0.67781 0.0
H3700 H 0.36412 0.52799 0.63179 0.0
H3701 H 0.32389 0.56934 0.64179 0.0
C3702 C 0.31783 0.56759 0.6159 0.0
C3703 C 0.32212 0.56065 0.60054 0.0
C3704 C 0.36384 0.53673 0.64199 0.0
C3705 C 0.34009 0.55205 0.6289 0.0
C3706 C 0.37628 0.53601 0.654 0.0
C3707 C 0.37663 0.54765 0.6669 0.0
C3708 C 0.35167 0.54919 0.64289 0.0
C3709 C 0.36371 0.55929 0.66793 0.0
C3710 C 0.32686 0.56337 0.63013 0.0
C3711 C 0.33478 0.54873 0.60004 0.0
N3712 N 0.35184 0.5599 0.65596 0.0
N3713 N 0.3434 0.54491 0.61397 0.0
H3714 H 0.81061 0.42709 0.88675 0.0
H3715 H 0.89277 0.4715 0.85274 0.0
H3716 H 0.83902 0.46282 0.91468 0.0
H3717 H 0.8686 0.43045 0.82831 0.0
H3718 H 0.87042 0.47193 0.87334 0.0
H3719 H 0.82864 0.43205 0.86278 0.0
C3720 C 0.82039 0.43626 0.88771 0.0
C3721 C 0.82345 0.44443 0.90275 0.0
C3722 C 0.86996 0.4629 0.8634 0.0
C3723 C 0.84424 0.44998 0.87555 0.0
C3724 C 0.88272 0.46265 0.85166 0.0
C3725 C 0.88263 0.4508 0.83893 0.0
C3726 C 0.85701 0.45126 0.86234 0.0
C3727 C 0.86925 0.43969 0.83804 0.0
C3728 C 0.83076 0.43899 0.87408 0.0
C3729 C 0.83633 0.45614 0.90335 0.0
N3730 N 0.85703 0.44013 0.84964 0.0
N3731 N 0.84636 0.45843 0.89001 0.0
H3732 H 0.27855 0.64081 0.10036 0.0
H3733 H 0.32378 0.56057 0.13789 0.0
H3734 H 0.31939 0.6159 0.07636 0.0
H3735 H 0.29165 0.59291 0.16592 0.0
H3736 H 0.31804 0.57716 0.11296 0.0
H3737 H 0.27912 0.61984 0.12232 0.0
C3738 C 0.28753 0.63085 0.09964 0.0
C3739 C 0.29906 0.63018 0.08665 0.0
C3740 C 0.3121 0.58046 0.12454 0.0
C3741 C 0.29978 0.60616 0.11164 0.0
C3742 C 0.31528 0.57095 0.13871 0.0
C3743 C 0.30831 0.57552 0.15396 0.0
C3744 C 0.30177 0.59448 0.1257 0.0
C3745 C 0.29743 0.5891 0.15441 0.0
C3746 C 0.28787 0.61889 0.11217 0.0
C3747 C 0.31039 0.61696 0.08627 0.0
N3748 N 0.29458 0.59816 0.14052 0.0
N3749 N 0.31054 0.60551 0.09864 0.0
H3750 H 0.19008 0.07572 0.3842 0.0
H3751 H 0.111 0.02622 0.34992 0.0
H3752 H 0.1655 0.0365 0.41106 0.0
H3753 H 0.12975 0.07146 0.32831 0.0
H3754 H 0.13413 0.02649 0.36966 0.0
H3755 H 0.1717 0.07055 0.36054 0.0
C3756 C 0.1811 0.06575 0.38496 0.0
C3757 C 0.17917 0.05664 0.39964 0.0
C3758 C 0.13324 0.03629 0.36051 0.0
C3759 C 0.15798 0.05083 0.37282 0.0
C3760 C 0.12004 0.03615 0.34928 0.0
C3761 C 0.11836 0.04894 0.33761 0.0
C3762 C 0.14488 0.04927 0.36 0.0
C3763 C 0.13048 0.06145 0.33723 0.0
C3764 C 0.17051 0.0629 0.37153 0.0
C3765 C 0.16728 0.04392 0.40001 0.0
N3766 N 0.14317 0.06134 0.34831 0.0
N3767 N 0.15702 0.04151 0.38687 0.0
H3768 H 0.22164 0.36069 0.60343 0.0
H3769 H 0.17456 0.44244 0.63465 0.0
H3770 H 0.18101 0.38347 0.57705 0.0
H3771 H 0.20997 0.41502 0.66395 0.0
H3772 H 0.18046 0.42412 0.61107 0.0
H3773 H 0.22103 0.38352 0.62341 0.0
C3774 C 0.2127 0.37058 0.60176 0.0
C3775 C 0.20124 0.3701 0.58869 0.0
C3776 C 0.1871 0.42227 0.6226 0.0
C3777 C 0.20043 0.39624 0.6115 0.0
C3778 C 0.18381 0.43279 0.63601 0.0
C3779 C 0.19167 0.43012 0.65129 0.0
C3780 C 0.19835 0.40908 0.62453 0.0
C3781 C 0.20351 0.4174 0.65242 0.0
C3782 C 0.21234 0.38361 0.61317 0.0
C3783 C 0.18998 0.38329 0.58705 0.0
N3784 N 0.20638 0.40728 0.63928 0.0
N3785 N 0.18977 0.39576 0.5984 0.0
H3786 H 0.68959 0.4248 0.61759 0.0
H3787 H 0.60923 0.47291 0.65083 0.0
H3788 H 0.65706 0.45432 0.58703 0.0
H3789 H 0.634 0.43424 0.67831 0.0
H3790 H 0.63081 0.47114 0.62956 0.0
H3791 H 0.67335 0.43301 0.64208 0.0
C3792 C 0.67924 0.43324 0.6161 0.0
C3793 C 0.67449 0.43874 0.6003 0.0
C3794 C 0.63163 0.46318 0.64035 0.0
C3795 C 0.65598 0.44814 0.62806 0.0
C3796 C 0.61934 0.46423 0.6525 0.0
C3797 C 0.61972 0.45355 0.66621 0.0
C3798 C 0.64437 0.45139 0.64194 0.0
C3799 C 0.63315 0.44257 0.66781 0.0
C3800 C 0.66994 0.43785 0.63003 0.0
C3801 C 0.66098 0.44963 0.59899 0.0
N3802 N 0.64487 0.44165 0.65573 0.0
N3803 N 0.65214 0.45388 0.61266 0.0
H3804 H 0.31833 0.88559 0.42493 0.0
H3805 H 0.28569 0.91458 0.33628 0.0
H3806 H 0.27868 0.86141 0.39832 0.0
H3807 H 0.32414 0.94021 0.36326 0.0
H3808 H 0.28033 0.89746 0.36063 0.0
H3809 H 0.31833 0.90775 0.40423 0.0
C3810 C 0.30951 0.88503 0.41481 0.0
C3811 C 0.29859 0.87155 0.41324 0.0
C3812 C 0.28978 0.90698 0.36136 0.0
C3813 C 0.29856 0.89686 0.38947 0.0
C3814 C 0.29281 0.91681 0.34747 0.0
C3815 C 0.30549 0.92872 0.34772 0.0
C3816 C 0.29964 0.90892 0.37558 0.0
C3817 C 0.31427 0.93114 0.36254 0.0
C3818 C 0.3095 0.8977 0.40301 0.0
C3819 C 0.28738 0.87151 0.39994 0.0
N3820 N 0.31136 0.92113 0.37582 0.0
N3821 N 0.28776 0.88388 0.38849 0.0
H3822 H 0.69857 0.60219 0.82452 0.0
H3823 H 0.68532 0.61921 0.92046 0.0
H3824 H 0.67994 0.56487 0.85805 0.0
H3825 H 0.71587 0.6503 0.8894 0.0
H3826 H 0.68358 0.59892 0.89802 0.0
H3827 H 0.70544 0.61973 0.8482 0.0
C3828 C 0.69605 0.59763 0.83691 0.0
C3829 C 0.68856 0.58211 0.83936 0.0
C3830 C 0.69082 0.61008 0.89616 0.0
C3831 C 0.69624 0.60222 0.86653 0.0
C3832 C 0.69178 0.6217 0.90894 0.0
C3833 C 0.70066 0.63651 0.90671 0.0
C3834 C 0.69859 0.6134 0.88095 0.0
C3835 C 0.70886 0.63906 0.8916 0.0
C3836 C 0.70002 0.60764 0.85043 0.0
C3837 C 0.68568 0.57677 0.85565 0.0
N3838 N 0.70747 0.6277 0.8792 0.0
N3839 N 0.68933 0.58692 0.86864 0.0
H3840 H 0.67677 0.36355 0.57314 0.0
H3841 H 0.589 0.33148 0.5414 0.0
H3842 H 0.65 0.38528 0.5322 0.0
H3843 H 0.61572 0.30903 0.58197 0.0
H3844 H 0.61337 0.34817 0.53489 0.0
H3845 H 0.65674 0.34081 0.57381 0.0
C3846 C 0.66677 0.36343 0.56416 0.0
C3847 C 0.66489 0.37643 0.55273 0.0
C3848 C 0.61403 0.33942 0.54507 0.0
C3849 C 0.64189 0.35048 0.55348 0.0
C3850 C 0.60013 0.32985 0.54876 0.0
C3851 C 0.60029 0.31902 0.56238 0.0
C3852 C 0.62817 0.33833 0.55519 0.0
C3853 C 0.61506 0.3173 0.57141 0.0
C3854 C 0.65535 0.35043 0.56454 0.0
C3855 C 0.65181 0.37558 0.54131 0.0
N3856 N 0.62834 0.32707 0.56782 0.0
N3857 N 0.6407 0.36293 0.5421 0.0
H3858 H 0.40345 0.33229 0.79397 0.0
H3859 H 0.38011 0.42364 0.82262 0.0
H3860 H 0.43548 0.36201 0.82484 0.0
H3861 H 0.35353 0.39708 0.7845 0.0
H3862 H 0.40124 0.4019 0.82268 0.0
H3863 H 0.386 0.3565 0.78909 0.0
C3864 C 0.40693 0.34401 0.79955 0.0
C3865 C 0.42085 0.34515 0.80992 0.0
C3866 C 0.39087 0.40089 0.81419 0.0
C3867 C 0.40074 0.3729 0.80463 0.0
C3868 C 0.37877 0.41326 0.81419 0.0
C3869 C 0.36497 0.41207 0.80364 0.0
C3870 C 0.38909 0.38712 0.80368 0.0
C3871 C 0.36392 0.39844 0.7929 0.0
C3872 C 0.39695 0.35784 0.79676 0.0
C3873 C 0.42484 0.36064 0.81676 0.0
N3874 N 0.37574 0.38641 0.79331 0.0
N3875 N 0.41468 0.37388 0.81419 0.0
H3876 H 0.41435 0.1581 0.0411 0.0
H3877 H 0.32306 0.13122 0.06702 0.0
H3878 H 0.3844 0.18625 0.07533 0.0
H3879 H 0.35251 0.10576 0.03029 0.0
H3880 H 0.34369 0.15346 0.06776 0.0
H3881 H 0.39033 0.14109 0.03433 0.0
C3882 C 0.4026 0.16084 0.04703 0.0
C3883 C 0.40137 0.17347 0.05892 0.0
C3884 C 0.34554 0.14313 0.05938 0.0
C3885 C 0.37381 0.15381 0.05145 0.0
C3886 C 0.33377 0.13042 0.05895 0.0
C3887 C 0.33619 0.11653 0.04872 0.0
C3888 C 0.35988 0.14188 0.04957 0.0
C3889 C 0.35022 0.11618 0.03846 0.0
C3890 C 0.38888 0.1511 0.04316 0.0
C3891 C 0.38585 0.17659 0.06611 0.0
N3892 N 0.36162 0.12857 0.03929 0.0
N3893 N 0.37269 0.16663 0.06246 0.0
H3894 H 0.55877 0.13191 0.3205 0.0
H3895 H 0.6416 0.09891 0.27659 0.0
H3896 H 0.59103 0.16174 0.28996 0.0
H3897 H 0.61493 0.0713 0.3139 0.0
H3898 H 0.61959 0.11978 0.2768 0.0
H3899 H 0.57568 0.10742 0.31371 0.0
C3900 C 0.56919 0.13322 0.31212 0.0
C3901 C 0.57366 0.14885 0.30594 0.0
C3902 C 0.61845 0.10906 0.28481 0.0
C3903 C 0.59299 0.1211 0.29819 0.0
C3904 C 0.63099 0.09713 0.28465 0.0
C3905 C 0.63019 0.08349 0.2954 0.0
C3906 C 0.60502 0.10737 0.29582 0.0
C3907 C 0.61612 0.08174 0.30553 0.0
C3908 C 0.57888 0.1193 0.30832 0.0
C3909 C 0.58729 0.14993 0.29517 0.0
N3910 N 0.60417 0.09364 0.30563 0.0
N3911 N 0.59653 0.13629 0.29175 0.0
H3912 H 0.60992 0.68796 0.42411 0.0
H3913 H 0.64119 0.60654 0.47164 0.0
H3914 H 0.58087 0.66134 0.46031 0.0
H3915 H 0.66695 0.62872 0.43029 0.0
H3916 H 0.62116 0.62935 0.47095 0.0
H3917 H 0.63342 0.66955 0.42997 0.0
C3918 C 0.60863 0.67851 0.43356 0.0
C3919 C 0.59342 0.67602 0.44161 0.0
C3920 C 0.63126 0.62927 0.46209 0.0
C3921 C 0.62003 0.65483 0.44819 0.0
C3922 C 0.64266 0.61624 0.46246 0.0
C3923 C 0.65561 0.61566 0.45088 0.0
C3924 C 0.63286 0.64181 0.45007 0.0
C3925 C 0.65703 0.62861 0.43934 0.0
C3926 C 0.62197 0.66791 0.43681 0.0
C3927 C 0.59235 0.66354 0.4537 0.0
N3928 N 0.64574 0.64112 0.43916 0.0
N3929 N 0.60541 0.65331 0.4565 0.0
H3930 H 0.14864 0.3997 0.71585 0.0
H3931 H 0.06438 0.3658 0.67522 0.0
H3932 H 0.12077 0.42658 0.6789 0.0
H3933 H 0.09904 0.33537 0.70235 0.0
H3934 H 0.08198 0.39007 0.68078 0.0
H3935 H 0.12765 0.37775 0.71519 0.0
C3936 C 0.13805 0.40103 0.7077 0.0
C3937 C 0.13652 0.41487 0.69729 0.0
C3938 C 0.0856 0.37809 0.68565 0.0
C3939 C 0.11246 0.3899 0.6965 0.0
C3940 C 0.07552 0.3643 0.68257 0.0
C3941 C 0.08037 0.34858 0.68821 0.0
C3942 C 0.10048 0.3761 0.69455 0.0
C3943 C 0.09495 0.34726 0.69763 0.0
C3944 C 0.12608 0.38851 0.70731 0.0
C3945 C 0.1225 0.41602 0.68701 0.0
N3946 N 0.10453 0.3608 0.70043 0.0
N3947 N 0.11104 0.40366 0.68682 0.0
H3948 H 0.35216 0.88691 0.97177 0.0
H3949 H 0.38825 0.80845 0.92245 0.0
H3950 H 0.32668 0.86329 0.93105 0.0
H3951 H 0.41698 0.83934 0.95536 0.0
H3952 H 0.3634 0.82463 0.92963 0.0
H3953 H 0.37392 0.86582 0.96994 0.0
C3954 C 0.35108 0.8772 0.96255 0.0
C3955 C 0.33773 0.87696 0.95142 0.0
C3956 C 0.37512 0.82769 0.93543 0.0
C3957 C 0.36252 0.8528 0.94923 0.0
C3958 C 0.38924 0.8184 0.93142 0.0
C3959 C 0.40466 0.82272 0.93819 0.0
C3960 C 0.37651 0.84122 0.94638 0.0
C3961 C 0.40534 0.83575 0.94971 0.0
C3962 C 0.36349 0.86517 0.96149 0.0
C3963 C 0.33687 0.86403 0.93977 0.0
N3964 N 0.3915 0.8446 0.95335 0.0
N3965 N 0.34916 0.85253 0.93889 0.0
H3966 H 0.90405 0.16808 0.20188 0.0
H3967 H 0.88564 0.07315 0.18436 0.0
H3968 H 0.93782 0.13673 0.17468 0.0
H3969 H 0.85831 0.10226 0.22001 0.0
H3970 H 0.90588 0.09558 0.18193 0.0
H3971 H 0.88823 0.14366 0.21003 0.0
C3972 C 0.90822 0.15598 0.19776 0.0
C3973 C 0.92215 0.15439 0.18746 0.0
C3974 C 0.89558 0.09699 0.19044 0.0
C3975 C 0.90396 0.12636 0.19658 0.0
C3976 C 0.884 0.08421 0.19181 0.0
C3977 C 0.8702 0.08595 0.20228 0.0
C3978 C 0.89323 0.1117 0.19945 0.0
C3979 C 0.86873 0.10047 0.21173 0.0
C3980 C 0.8992 0.14203 0.20245 0.0
C3981 C 0.92711 0.13846 0.1826 0.0
N3982 N 0.88 0.11288 0.20993 0.0
N3983 N 0.91786 0.12503 0.187 0.0
H3984 H 0.57636 0.17062 0.87181 0.0
H3985 H 0.53531 0.08996 0.83254 0.0
H3986 H 0.52977 0.15013 0.88839 0.0
H3987 H 0.57886 0.11358 0.81233 0.0
H3988 H 0.53136 0.11359 0.85103 0.0
H3989 H 0.57632 0.15121 0.84855 0.0
C3990 C 0.56611 0.16203 0.87054 0.0
C3991 C 0.55313 0.16185 0.88214 0.0
C3992 C 0.54163 0.11377 0.84237 0.0
C3993 C 0.55295 0.13964 0.85549 0.0
C3994 C 0.54383 0.10032 0.83174 0.0
C3995 C 0.55752 0.09977 0.82101 0.0
C3996 C 0.55333 0.12667 0.84243 0.0
C3997 C 0.56816 0.11352 0.82044 0.0
C3998 C 0.56604 0.15101 0.8572 0.0
C3999 C 0.54008 0.15059 0.8798 0.0
N4000 N 0.566 0.1263 0.83123 0.0
N4001 N 0.54039 0.13984 0.86681 0.0
H4002 H 0.60114 0.28215 0.1413 0.0
H4003 H 0.63804 0.32956 0.06208 0.0
H4004 H 0.58016 0.3272 0.12138 0.0
H4005 H 0.66459 0.29231 0.08985 0.0
H4006 H 0.61385 0.32519 0.0801 0.0
H4007 H 0.62189 0.28242 0.11915 0.0
C4008 C 0.60088 0.29207 0.13223 0.0
C4009 C 0.58906 0.30477 0.13326 0.0
C4010 C 0.62491 0.31782 0.08207 0.0
C4011 C 0.61263 0.30509 0.10784 0.0
C4012 C 0.63863 0.3202 0.07171 0.0
C4013 C 0.65332 0.31137 0.07461 0.0
C4014 C 0.62594 0.30644 0.09525 0.0
C4015 C 0.65352 0.29949 0.08731 0.0
C4016 C 0.6127 0.29221 0.11959 0.0
C4017 C 0.58919 0.31726 0.12112 0.0
N4018 N 0.64009 0.29745 0.09724 0.0
N4019 N 0.60084 0.31714 0.10894 0.0
H4020 H 0.4732 0.3541 0.39346 0.0
H4021 H 0.42354 0.38829 0.31438 0.0
H4022 H 0.43059 0.32974 0.37209 0.0
H4023 H 0.46054 0.4164 0.34092 0.0
H4024 H 0.42957 0.36432 0.33212 0.0
H4025 H 0.47197 0.37487 0.37131 0.0
C4026 C 0.46365 0.35307 0.38406 0.0
C4027 C 0.45187 0.3403 0.3847 0.0
C4028 C 0.43653 0.37567 0.3339 0.0
C4029 C 0.45043 0.36392 0.35931 0.0
C4030 C 0.43318 0.38929 0.32369 0.0
C4031 C 0.44144 0.40437 0.32631 0.0
C4032 C 0.44825 0.37718 0.34674 0.0
C4033 C 0.45377 0.40504 0.33859 0.0
C4034 C 0.46296 0.36491 0.37141 0.0
C4035 C 0.43982 0.33949 0.37215 0.0
N4036 N 0.45669 0.3917 0.34845 0.0
N4037 N 0.43936 0.35118 0.36002 0.0
H4038 H 0.36319 0.17182 0.55981 0.0
H4039 H 0.39968 0.21801 0.63989 0.0
H4040 H 0.33467 0.20455 0.59109 0.0
H4041 H 0.42177 0.1743 0.61827 0.0
H4042 H 0.37862 0.21777 0.61799 0.0
H4043 H 0.38775 0.17744 0.57698 0.0
C4044 C 0.36221 0.18046 0.57005 0.0
C4045 C 0.34691 0.18761 0.57418 0.0
C4046 C 0.38817 0.20832 0.61797 0.0
C4047 C 0.37473 0.19402 0.59379 0.0
C4048 C 0.40018 0.20846 0.63045 0.0
C4049 C 0.41233 0.19603 0.63099 0.0
C4050 C 0.38842 0.19575 0.6059 0.0
C4051 C 0.41248 0.184 0.6184 0.0
C4052 C 0.37615 0.18357 0.5799 0.0
C4053 C 0.34623 0.19865 0.58762 0.0
N4054 N 0.40064 0.1841 0.60641 0.0
N4055 N 0.35991 0.20144 0.59701 0.0
H4056 H 0.5316 0.8547 0.10785 0.0
H4057 H 0.57945 0.88809 0.18837 0.0
H4058 H 0.57408 0.83036 0.1295 0.0
H4059 H 0.54483 0.91743 0.16001 0.0
H4060 H 0.57385 0.86445 0.17006 0.0
H4061 H 0.53288 0.87568 0.12981 0.0
C4062 C 0.54114 0.85374 0.11726 0.0
C4063 C 0.55285 0.8409 0.11678 0.0
C4064 C 0.56734 0.87601 0.16799 0.0
C4065 C 0.55432 0.8647 0.14195 0.0
C4066 C 0.57044 0.88945 0.1785 0.0
C4067 C 0.5627 0.90474 0.17558 0.0
C4068 C 0.55635 0.87792 0.15457 0.0
C4069 C 0.55117 0.90587 0.16258 0.0
C4070 C 0.54186 0.86569 0.12979 0.0
C4071 C 0.5649 0.84017 0.12933 0.0
N4072 N 0.54844 0.89268 0.15248 0.0
N4073 N 0.56536 0.85193 0.14137 0.0
H4074 H 0.86188 0.32733 0.43922 0.0
H4075 H 0.89455 0.2774 0.35982 0.0
H4076 H 0.83388 0.28897 0.41454 0.0
H4077 H 0.9177 0.32163 0.37914 0.0
H4078 H 0.87485 0.27802 0.38297 0.0
H4079 H 0.8854 0.32145 0.42091 0.0
C4080 C 0.86083 0.3174 0.43023 0.0
C4081 C 0.84587 0.30875 0.42824 0.0
C4082 C 0.88432 0.28752 0.38219 0.0
C4083 C 0.87254 0.30215 0.40713 0.0
C4084 C 0.89552 0.28718 0.36897 0.0
C4085 C 0.90761 0.29959 0.36747 0.0
C4086 C 0.88529 0.30032 0.394 0.0
C4087 C 0.90843 0.31192 0.37974 0.0
C4088 C 0.87419 0.31414 0.41968 0.0
C4089 C 0.84515 0.29604 0.41636 0.0
N4090 N 0.89737 0.31202 0.39243 0.0
N4091 N 0.85822 0.29325 0.40612 0.0
H4092 H 0.4669 0.6471 0.60761 0.0
H4093 H 0.42238 0.6132 0.68986 0.0
H4094 H 0.42667 0.67251 0.63211 0.0
H4095 H 0.45219 0.58292 0.65734 0.0
H4096 H 0.42837 0.63733 0.67223 0.0
H4097 H 0.46595 0.62562 0.6291 0.0
C4098 C 0.45797 0.64822 0.61758 0.0
C4099 C 0.44673 0.66148 0.618 0.0
C4100 C 0.43375 0.62543 0.6691 0.0
C4101 C 0.44562 0.63707 0.64262 0.0
C4102 C 0.43043 0.61171 0.67921 0.0
C4103 C 0.43668 0.59606 0.67493 0.0
C4104 C 0.44351 0.62343 0.65477 0.0
C4105 C 0.44699 0.59476 0.66096 0.0
C4106 C 0.45742 0.63597 0.62982 0.0
C4107 C 0.43545 0.66238 0.63124 0.0
N4108 N 0.45001 0.60823 0.65133 0.0
N4109 N 0.43513 0.65031 0.64299 0.0
H4110 H 0.1061 0.22027 0.86044 0.0
H4111 H 0.14061 0.16777 0.93742 0.0
H4112 H 0.08258 0.17617 0.87961 0.0
H4113 H 0.16888 0.20537 0.91191 0.0
H4114 H 0.11658 0.17458 0.92009 0.0
H4115 H 0.12681 0.21844 0.88262 0.0
C4116 C 0.10525 0.21027 0.86937 0.0
C4117 C 0.09275 0.19824 0.86808 0.0
C4118 C 0.12798 0.18151 0.91846 0.0
C4119 C 0.11625 0.19613 0.89351 0.0
C4120 C 0.14164 0.17771 0.92844 0.0
C4121 C 0.15677 0.1859 0.92595 0.0
C4122 C 0.12951 0.1936 0.90598 0.0
C4123 C 0.15747 0.19864 0.9141 0.0
C4124 C 0.11704 0.20923 0.88203 0.0
C4125 C 0.09214 0.1856 0.88004 0.0
N4126 N 0.14408 0.20199 0.90444 0.0
N4127 N 0.10377 0.18483 0.8922 0.0
H4128 H 0.88427 0.02754 0.64798 0.0
H4129 H 0.80972 0.07993 0.60847 0.0
H4130 H 0.86626 0.07388 0.66783 0.0
H4131 H 0.83578 0.04101 0.58258 0.0
H4132 H 0.82585 0.07364 0.63344 0.0
H4133 H 0.86239 0.02849 0.62687 0.0
C4134 C 0.87562 0.03782 0.64798 0.0
C4135 C 0.87719 0.05076 0.6595 0.0
C4136 C 0.82784 0.06631 0.62236 0.0
C4137 C 0.85214 0.05188 0.63555 0.0
C4138 C 0.81855 0.06981 0.60816 0.0
C4139 C 0.82159 0.06111 0.59342 0.0
C4140 C 0.84017 0.05398 0.62178 0.0
C4141 C 0.8332 0.04814 0.59367 0.0
C4142 C 0.86316 0.03837 0.63596 0.0
C4143 C 0.86561 0.06375 0.65903 0.0
N4144 N 0.8422 0.04508 0.60757 0.0
N4145 N 0.85363 0.06403 0.64719 0.0
H4146 H 0.31141 0.91798 0.89002 0.0
H4147 H 0.39295 0.96448 0.85716 0.0
H4148 H 0.34127 0.95061 0.92016 0.0
H4149 H 0.36966 0.92358 0.83167 0.0
H4150 H 0.37125 0.96313 0.8784 0.0
H4151 H 0.32959 0.92384 0.86633 0.0
C4152 C 0.3216 0.9266 0.89156 0.0
C4153 C 0.32496 0.9337 0.90707 0.0
C4154 C 0.37085 0.95451 0.86811 0.0
C4155 C 0.34581 0.94034 0.88019 0.0
C4156 C 0.38323 0.95527 0.85601 0.0
C4157 C 0.38318 0.94401 0.84275 0.0
C4158 C 0.3583 0.94247 0.86686 0.0
C4159 C 0.37025 0.93239 0.84178 0.0
C4160 C 0.33203 0.92985 0.87809 0.0
C4161 C 0.33835 0.94475 0.90843 0.0
N4162 N 0.35836 0.93189 0.8537 0.0
N4163 N 0.34835 0.94764 0.8952 0.0
H4164 H 0.83198 0.06079 0.14061 0.0
H4165 H 0.78357 0.14096 0.10705 0.0
H4166 H 0.79696 0.08881 0.16981 0.0
H4167 H 0.82659 0.12004 0.08303 0.0
H4168 H 0.78513 0.11909 0.1281 0.0
H4169 H 0.82662 0.07934 0.11708 0.0
C4170 C 0.82294 0.07064 0.14196 0.0
C4171 C 0.81499 0.07337 0.15718 0.0
C4172 C 0.79418 0.11926 0.11818 0.0
C4173 C 0.80892 0.09465 0.13048 0.0
C4174 C 0.7933 0.13173 0.10618 0.0
C4175 C 0.80506 0.13239 0.09338 0.0
C4176 C 0.80684 0.1073 0.11729 0.0
C4177 C 0.81736 0.12007 0.09279 0.0
C4178 C 0.81998 0.08129 0.12859 0.0
C4179 C 0.80346 0.08636 0.15831 0.0
N4180 N 0.81796 0.10806 0.10459 0.0
N4181 N 0.80084 0.09658 0.14518 0.0
H4182 H 0.63106 0.57442 0.32912 0.0
H4183 H 0.66178 0.53753 0.41524 0.0
H4184 H 0.61077 0.53007 0.35116 0.0
H4185 H 0.68597 0.57837 0.39055 0.0
H4186 H 0.64517 0.53265 0.39042 0.0
H4187 H 0.65292 0.57455 0.35011 0.0
C4188 C 0.63126 0.56465 0.33834 0.0
C4189 C 0.61898 0.55231 0.33853 0.0
C4190 C 0.65429 0.54251 0.39028 0.0
C4191 C 0.64398 0.55238 0.3626 0.0
C4192 C 0.66383 0.54527 0.40444 0.0
C4193 C 0.67515 0.55847 0.40498 0.0
C4194 C 0.65589 0.5532 0.37663 0.0
C4195 C 0.67735 0.56807 0.39064 0.0
C4196 C 0.64379 0.56469 0.35028 0.0
C4197 C 0.61993 0.53988 0.35065 0.0
N4198 N 0.66759 0.56542 0.37713 0.0
N4199 N 0.63211 0.54033 0.36231 0.0
H4200 H 0.70696 0.90936 0.66464 0.0
H4201 H 0.67146 0.87873 0.57802 0.0
H4202 H 0.6699 0.93669 0.63741 0.0
H4203 H 0.71522 0.85811 0.60096 0.0
H4204 H 0.6712 0.90071 0.59896 0.0
H4205 H 0.71117 0.8915 0.64063 0.0
C4206 C 0.6999 0.91175 0.65346 0.0
C4207 C 0.688 0.92442 0.65299 0.0
C4208 C 0.68094 0.89146 0.59933 0.0
C4209 C 0.69247 0.90379 0.62555 0.0
C4210 C 0.68104 0.87886 0.58745 0.0
C4211 C 0.6933 0.8665 0.58788 0.0
C4212 C 0.69309 0.8916 0.6118 0.0
C4213 C 0.70548 0.86733 0.60025 0.0
C4214 C 0.70228 0.90153 0.63976 0.0
C4215 C 0.67922 0.92705 0.63822 0.0
N4216 N 0.70499 0.87959 0.6118 0.0
N4217 N 0.68144 0.91662 0.62513 0.0
H4218 H 0.10996 0.97565 0.65058 0.0
H4219 H 0.19053 0.92706 0.61949 0.0
H4220 H 0.13065 0.93298 0.6754 0.0
H4221 H 0.16621 0.96595 0.59194 0.0
H4222 H 0.17267 0.93328 0.64331 0.0
H4223 H 0.13412 0.97624 0.6322 0.0
C4224 C 0.11969 0.96654 0.6523 0.0
C4225 C 0.11819 0.9541 0.66435 0.0
C4226 C 0.17147 0.94067 0.63216 0.0
C4227 C 0.14582 0.95463 0.64335 0.0
C4228 C 0.18175 0.93721 0.61862 0.0
C4229 C 0.17966 0.94586 0.60368 0.0
C4230 C 0.15906 0.95286 0.63068 0.0
C4231 C 0.16807 0.95884 0.60318 0.0
C4232 C 0.13348 0.96687 0.6418 0.0
C4233 C 0.13122 0.94267 0.66612 0.0
N4234 N 0.15806 0.96179 0.61639 0.0
N4235 N 0.14439 0.94309 0.65561 0.0
H4236 H 0.8234 0.38004 0.41942 0.0
H4237 H 0.79337 0.40608 0.32938 0.0
H4238 H 0.78103 0.35792 0.39533 0.0
H4239 H 0.82749 0.43552 0.35824 0.0
H4240 H 0.78784 0.38901 0.35376 0.0
H4241 H 0.82461 0.40094 0.39751 0.0
C4242 C 0.8143 0.37964 0.40954 0.0
C4243 C 0.80217 0.36716 0.40909 0.0
C4244 C 0.79637 0.39933 0.35485 0.0
C4245 C 0.80352 0.39101 0.38396 0.0
C4246 C 0.79952 0.40908 0.34094 0.0
C4247 C 0.81099 0.42214 0.34179 0.0
C4248 C 0.80494 0.40249 0.36968 0.0
C4249 C 0.81857 0.42555 0.35707 0.0
C4250 C 0.81495 0.39162 0.39708 0.0
C4251 C 0.79062 0.36729 0.39609 0.0
N4252 N 0.81559 0.41562 0.37038 0.0
N4253 N 0.79167 0.37893 0.38394 0.0
H4254 H 0.16955 0.05844 0.85783 0.0
H4255 H 0.22213 0.13466 0.89402 0.0
H4256 H 0.20674 0.08494 0.82993 0.0
H4257 H 0.17829 0.11476 0.91742 0.0
H4258 H 0.2201 0.11309 0.8727 0.0
H4259 H 0.1764 0.07525 0.88223 0.0
C4260 C 0.1794 0.06754 0.85695 0.0
C4261 C 0.18748 0.07043 0.84183 0.0
C4262 C 0.211 0.11338 0.88258 0.0
C4263 C 0.19524 0.08979 0.86953 0.0
C4264 C 0.21216 0.12568 0.89473 0.0
C4265 C 0.20026 0.12659 0.90738 0.0
C4266 C 0.1979 0.10187 0.88315 0.0
C4267 C 0.18763 0.1146 0.90777 0.0
C4268 C 0.18322 0.07721 0.87082 0.0
C4269 C 0.2001 0.08242 0.84133 0.0
N4270 N 0.18674 0.10279 0.89579 0.0
N4271 N 0.20349 0.09177 0.85493 0.0
H4272 H 0.58545 0.83319 0.03802 0.0
H4273 H 0.67395 0.86313 0.06963 0.0
H4274 H 0.61254 0.80893 0.07726 0.0
H4275 H 0.64809 0.88545 0.02842 0.0
H4276 H 0.6533 0.841 0.07028 0.0
H4277 H 0.60996 0.84977 0.03166 0.0
C4278 C 0.59669 0.83112 0.04509 0.0
C4279 C 0.59693 0.81982 0.05831 0.0
C4280 C 0.65221 0.85062 0.06098 0.0
C4281 C 0.62495 0.83899 0.05132 0.0
C4282 C 0.66398 0.8633 0.06063 0.0
C4283 C 0.6626 0.87625 0.04908 0.0
C4284 C 0.63887 0.85095 0.04979 0.0
C4285 C 0.64953 0.87576 0.03761 0.0
C4286 C 0.61067 0.84064 0.04149 0.0
C4287 C 0.61183 0.81756 0.067 0.0
N4288 N 0.63806 0.86342 0.03837 0.0
N4289 N 0.62518 0.82728 0.06353 0.0
H4290 H 0.3768 0.92271 0.32186 0.0
H4291 H 0.40266 0.83166 0.29528 0.0
H4292 H 0.35248 0.89578 0.28251 0.0
H4293 H 0.43381 0.86278 0.32568 0.0
H4294 H 0.38501 0.85549 0.28932 0.0
H4295 H 0.3984 0.90147 0.3227 0.0
C4296 C 0.37606 0.91235 0.31333 0.0
C4297 C 0.36275 0.91089 0.3022 0.0
C4298 C 0.39583 0.85722 0.29711 0.0
C4299 C 0.38741 0.88653 0.30313 0.0
C4300 C 0.40591 0.84361 0.30051 0.0
C4301 C 0.41962 0.84527 0.31109 0.0
C4302 C 0.39929 0.87255 0.30458 0.0
C4303 C 0.42334 0.86101 0.31746 0.0
C4304 C 0.38844 0.90027 0.31376 0.0
C4305 C 0.36247 0.89732 0.29135 0.0
N4306 N 0.41305 0.87402 0.31432 0.0
N4307 N 0.37453 0.88556 0.2922 0.0
H4308 H 0.32353 0.63453 0.57177 0.0
H4309 H 0.41201 0.66534 0.54039 0.0
H4310 H 0.35091 0.61124 0.53211 0.0
H4311 H 0.38453 0.68955 0.5794 0.0
H4312 H 0.38792 0.64805 0.53445 0.0
H4313 H 0.34388 0.65699 0.57227 0.0
C4314 C 0.33375 0.63423 0.56305 0.0
C4315 C 0.33565 0.62091 0.552 0.0
C4316 C 0.38703 0.65729 0.54416 0.0
C4317 C 0.35902 0.64656 0.55255 0.0
C4318 C 0.40077 0.66722 0.54752 0.0
C4319 C 0.4003 0.67877 0.56053 0.0
C4320 C 0.37274 0.65878 0.554 0.0
C4321 C 0.38542 0.68075 0.5693 0.0
C4322 C 0.34536 0.64707 0.56334 0.0
C4323 C 0.34905 0.62121 0.54092 0.0
N4324 N 0.37228 0.67065 0.56604 0.0
N4325 N 0.36032 0.63374 0.54159 0.0
H4326 H 0.56204 0.63667 0.81641 0.0
H4327 H 0.64131 0.60024 0.7693 0.0
H4328 H 0.59232 0.66443 0.78213 0.0
H4329 H 0.61492 0.57413 0.80786 0.0
H4330 H 0.61972 0.62156 0.76945 0.0
H4331 H 0.57748 0.61149 0.80906 0.0
C4332 C 0.5717 0.63739 0.8071 0.0
C4333 C 0.57609 0.65266 0.80004 0.0
C4334 C 0.61852 0.61105 0.77772 0.0
C4335 C 0.59383 0.62406 0.79167 0.0
C4336 C 0.63083 0.59885 0.77759 0.0
C4337 C 0.63002 0.58555 0.78875 0.0
C4338 C 0.60537 0.60994 0.78913 0.0
C4339 C 0.61612 0.58431 0.79918 0.0
C4340 C 0.58056 0.62305 0.80296 0.0
C4341 C 0.5887 0.65293 0.78804 0.0
N4342 N 0.60444 0.59647 0.79927 0.0
N4343 N 0.59724 0.6389 0.78437 0.0
H4344 H 0.58218 0.16527 0.96344 0.0
H4345 H 0.6741 0.13656 0.94134 0.0
H4346 H 0.61304 0.19018 0.92753 0.0
H4347 H 0.64236 0.11118 0.97616 0.0
H4348 H 0.65382 0.15902 0.93962 0.0
H4349 H 0.60588 0.14846 0.97184 0.0
C4350 C 0.59405 0.1674 0.95752 0.0
C4351 C 0.59561 0.179 0.94463 0.0
C4352 C 0.65137 0.14865 0.94781 0.0
C4353 C 0.62279 0.15956 0.95401 0.0
C4354 C 0.66295 0.13582 0.94881 0.0
C4355 C 0.65981 0.12188 0.95877 0.0
C4356 C 0.63647 0.14751 0.95675 0.0
C4357 C 0.64523 0.12164 0.96824 0.0
C4358 C 0.60758 0.15775 0.96229 0.0
C4359 C 0.6113 0.18132 0.93748 0.0
N4360 N 0.63401 0.13416 0.96685 0.0
N4361 N 0.62424 0.17149 0.94209 0.0
H4362 H 0.11864 0.92333 0.17145 0.0
H4363 H 0.081 0.84232 0.21312 0.0
H4364 H 0.13682 0.90274 0.21739 0.0
H4365 H 0.05905 0.86655 0.17076 0.0
H4366 H 0.09952 0.866 0.21675 0.0
H4367 H 0.09529 0.90408 0.17235 0.0
C4368 C 0.11769 0.91477 0.18176 0.0
C4369 C 0.12978 0.91449 0.19428 0.0
C4370 C 0.09047 0.8663 0.20683 0.0
C4371 C 0.10304 0.89242 0.19541 0.0
C4372 C 0.07984 0.85281 0.20479 0.0
C4373 C 0.0686 0.85242 0.19151 0.0
C4374 C 0.09003 0.87939 0.19536 0.0
C4375 C 0.06757 0.86634 0.18114 0.0
C4376 C 0.10429 0.90384 0.18232 0.0
C4377 C 0.12784 0.90327 0.20742 0.0
N4378 N 0.07837 0.87915 0.1831 0.0
N4379 N 0.1148 0.89257 0.20757 0.0
H4380 H 0.35603 0.3897 0.4741 0.0
H4381 H 0.39111 0.31147 0.42381 0.0
H4382 H 0.33324 0.36997 0.42986 0.0
H4383 H 0.41847 0.33735 0.46183 0.0
H4384 H 0.36705 0.32917 0.4296 0.0
H4385 H 0.37651 0.36728 0.47312 0.0
C4386 C 0.35529 0.3806 0.46424 0.0
C4387 C 0.34307 0.38179 0.45193 0.0
C4388 C 0.37825 0.33079 0.43684 0.0
C4389 C 0.36633 0.35609 0.45078 0.0
C4390 C 0.39191 0.32061 0.43363 0.0
C4391 C 0.40682 0.32309 0.44224 0.0
C4392 C 0.37954 0.34345 0.44878 0.0
C4393 C 0.40724 0.33515 0.45479 0.0
C4394 C 0.36695 0.3678 0.46369 0.0
C4395 C 0.34259 0.36961 0.4395 0.0
N4396 N 0.39387 0.34499 0.45758 0.0
N4397 N 0.3541 0.35731 0.43919 0.0
H4398 H 0.86557 0.60145 0.72263 0.0
H4399 H 0.94609 0.63222 0.67333 0.0
H4400 H 0.89053 0.57229 0.68532 0.0
H4401 H 0.91651 0.66327 0.70536 0.0
H4402 H 0.92927 0.60826 0.68169 0.0
H4403 H 0.88759 0.62224 0.72062 0.0
C4404 C 0.87582 0.5993 0.71421 0.0
C4405 C 0.87612 0.58525 0.70398 0.0
C4406 C 0.92662 0.62029 0.68704 0.0
C4407 C 0.90127 0.60901 0.70149 0.0
C4408 C 0.93625 0.63393 0.68232 0.0
C4409 C 0.93254 0.64976 0.68851 0.0
C4410 C 0.91327 0.62254 0.69805 0.0
C4411 C 0.91966 0.65131 0.70012 0.0
C4412 C 0.88836 0.61119 0.71302 0.0
C4413 C 0.88973 0.58305 0.69332 0.0
N4414 N 0.91041 0.63792 0.70441 0.0
N4415 N 0.90167 0.59489 0.69222 0.0
H4416 H 0.57184 0.67253 0.37015 0.0
H4417 H 0.5402 0.58553 0.3361 0.0
H4418 H 0.52903 0.64706 0.38975 0.0
H4419 H 0.57905 0.61386 0.31264 0.0
H4420 H 0.53412 0.60913 0.35405 0.0
H4421 H 0.57326 0.65232 0.34766 0.0
C4422 C 0.56268 0.66271 0.36968 0.0
C4423 C 0.55039 0.66136 0.38193 0.0
C4424 C 0.54381 0.61032 0.34482 0.0
C4425 C 0.55196 0.63815 0.35618 0.0
C4426 C 0.54725 0.59686 0.33453 0.0
C4427 C 0.56024 0.59772 0.32298 0.0
C4428 C 0.55358 0.62469 0.34372 0.0
C4429 C 0.56894 0.61269 0.32141 0.0
C4430 C 0.56346 0.65121 0.35678 0.0
C4431 C 0.53877 0.64848 0.38062 0.0
N4432 N 0.56562 0.62552 0.33186 0.0
N4433 N 0.53993 0.63728 0.36806 0.0
H4434 H 0.63344 0.82474 0.55374 0.0
H4435 H 0.59781 0.77833 0.63374 0.0
H4436 H 0.66079 0.78855 0.58214 0.0
H4437 H 0.57225 0.81771 0.60804 0.0
H4438 H 0.61862 0.77788 0.61162 0.0
H4439 H 0.60859 0.81813 0.56992 0.0
C4440 C 0.63412 0.81513 0.56311 0.0
C4441 C 0.64923 0.80734 0.56676 0.0
C4442 C 0.60834 0.78647 0.6107 0.0
C4443 C 0.62098 0.79988 0.58547 0.0
C4444 C 0.59644 0.7867 0.62332 0.0
C4445 C 0.58343 0.79823 0.62283 0.0
C4446 C 0.6072 0.79788 0.59754 0.0
C4447 C 0.58221 0.80875 0.609 0.0
C4448 C 0.61996 0.81143 0.57242 0.0
C4449 C 0.64942 0.795 0.57905 0.0
N4450 N 0.59404 0.80845 0.59701 0.0
N4451 N 0.63558 0.79181 0.58811 0.0
H4452 H 0.46189 0.91206 0.83475 0.0
H4453 H 0.4332 0.82247 0.86475 0.0
H4454 H 0.42281 0.88416 0.81114 0.0
H4455 H 0.47229 0.8507 0.88799 0.0
H4456 H 0.43206 0.84293 0.84242 0.0
H4457 H 0.46895 0.88775 0.85129 0.0
C4458 C 0.45499 0.90069 0.83283 0.0
C4459 C 0.44162 0.90016 0.82171 0.0
C4460 C 0.44102 0.84456 0.85229 0.0
C4461 C 0.44943 0.87234 0.84085 0.0
C4462 C 0.44168 0.83289 0.86505 0.0
C4463 C 0.45273 0.83501 0.87834 0.0
C4464 C 0.45144 0.85851 0.85285 0.0
C4465 C 0.46349 0.84867 0.87805 0.0
C4466 C 0.45899 0.88682 0.84233 0.0
C4467 C 0.43317 0.8851 0.81963 0.0
N4468 N 0.46245 0.85999 0.8656 0.0
N4469 N 0.43705 0.87184 0.82933 0.0
H4470 H 0.33237 0.70552 0.08669 0.0
H4471 H 0.42257 0.67891 0.11658 0.0
H4472 H 0.36234 0.6696 0.06071 0.0
H4473 H 0.39398 0.718 0.13937 0.0
H4474 H 0.40209 0.67729 0.09428 0.0
H4475 H 0.35611 0.71241 0.1041 0.0
C4476 C 0.34405 0.69923 0.08451 0.0
C4477 C 0.34537 0.68685 0.07237 0.0
C4478 C 0.40038 0.68636 0.10405 0.0
C4479 C 0.37257 0.6945 0.09245 0.0
C4480 C 0.41206 0.68728 0.1168 0.0
C4481 C 0.40986 0.69849 0.12993 0.0
C4482 C 0.38633 0.69664 0.10451 0.0
C4483 C 0.39609 0.70909 0.12954 0.0
C4484 C 0.35761 0.70317 0.09447 0.0
C4485 C 0.36081 0.67919 0.06998 0.0
N4486 N 0.38475 0.70779 0.11713 0.0
N4487 N 0.37377 0.68297 0.08011 0.0
H4488 H 0.53189 0.35185 0.60962 0.0
H4489 H 0.57565 0.38829 0.69116 0.0
H4490 H 0.57363 0.32857 0.63371 0.0
H4491 H 0.545 0.41732 0.65828 0.0
H4492 H 0.57043 0.36381 0.67379 0.0
H4493 H 0.53223 0.37361 0.63085 0.0
C4494 C 0.54103 0.35126 0.61945 0.0
C4495 C 0.55286 0.33851 0.61982 0.0
C4496 C 0.56468 0.37551 0.67053 0.0
C4497 C 0.55325 0.36322 0.64416 0.0
C4498 C 0.56756 0.38942 0.68049 0.0
C4499 C 0.56085 0.40484 0.67604 0.0
C4500 C 0.5549 0.37706 0.65616 0.0
C4501 C 0.55053 0.40567 0.66204 0.0
C4502 C 0.54123 0.36366 0.63154 0.0
C4503 C 0.56439 0.33828 0.63287 0.0
N4504 N 0.54795 0.39201 0.65255 0.0
N4505 N 0.56434 0.35049 0.6445 0.0
H4506 H 0.86343 0.82825 0.93355 0.0
H4507 H 0.89223 0.78529 0.84851 0.0
H4508 H 0.83081 0.80007 0.90183 0.0
H4509 H 0.92223 0.82004 0.87603 0.0
H4510 H 0.87084 0.78728 0.87004 0.0
H4511 H 0.88653 0.8219 0.9148 0.0
C4512 C 0.86119 0.82055 0.92277 0.0
C4513 C 0.84519 0.8148 0.91915 0.0
C4514 C 0.88216 0.7944 0.8714 0.0
C4515 C 0.87143 0.80756 0.89764 0.0
C4516 C 0.89435 0.79325 0.85913 0.0
C4517 C 0.90894 0.80262 0.86043 0.0
C4518 C 0.88463 0.80495 0.88508 0.0
C4519 C 0.91109 0.8127 0.87447 0.0
C4520 C 0.87433 0.81699 0.91203 0.0
C4521 C 0.84294 0.80487 0.90501 0.0
N4522 N 0.89905 0.81365 0.88621 0.0
N4523 N 0.85588 0.80165 0.89472 0.0
H4524 H 0.42556 0.11421 0.1904 0.0
H4525 H 0.46958 0.1471 0.10754 0.0
H4526 H 0.45448 0.08374 0.15726 0.0
H4527 H 0.43103 0.17408 0.13305 0.0
H4528 H 0.46882 0.12604 0.12936 0.0
H4529 H 0.43207 0.13849 0.1731 0.0
C4530 C 0.43351 0.11271 0.17967 0.0
C4531 C 0.43935 0.09698 0.17511 0.0
C4532 C 0.46064 0.13666 0.13027 0.0
C4533 C 0.44682 0.12449 0.15539 0.0
C4534 C 0.4611 0.14869 0.11784 0.0
C4535 C 0.45021 0.16223 0.11839 0.0
C4536 C 0.44922 0.13819 0.14336 0.0
C4537 C 0.43952 0.16373 0.13207 0.0
C4538 C 0.43714 0.12651 0.16977 0.0
C4539 C 0.44956 0.09564 0.16109 0.0
N4540 N 0.43919 0.15177 0.14396 0.0
N4541 N 0.45289 0.10918 0.15168 0.0
H4542 H 0.16259 0.71571 0.4165 0.0
H4543 H 0.07232 0.68733 0.38853 0.0
H4544 H 0.13471 0.67737 0.44131 0.0
H4545 H 0.09942 0.72721 0.36532 0.0
H4546 H 0.09325 0.68617 0.4104 0.0
H4547 H 0.13795 0.72293 0.40046 0.0
C4548 C 0.15117 0.709 0.41879 0.0
C4549 C 0.15073 0.6958 0.43012 0.0
C4550 C 0.09453 0.69533 0.40066 0.0
C4551 C 0.12251 0.7038 0.41156 0.0
C4552 C 0.08258 0.696 0.38815 0.0
C4553 C 0.08424 0.70727 0.37498 0.0
C4554 C 0.10835 0.70591 0.39994 0.0
C4555 C 0.09772 0.71826 0.37518 0.0
C4556 C 0.1371 0.7131 0.40958 0.0
C4557 C 0.13559 0.6876 0.43266 0.0
N4558 N 0.10937 0.71717 0.38735 0.0
N4559 N 0.12215 0.69156 0.42325 0.0
H4560 H 0.89264 0.5279 0.14674 0.0
H4561 H 0.8119 0.57645 0.11503 0.0
H4562 H 0.86792 0.56593 0.17516 0.0
H4563 H 0.84327 0.54612 0.08405 0.0
H4564 H 0.82852 0.56817 0.13924 0.0
H4565 H 0.87076 0.52983 0.12579 0.0
C4566 C 0.88248 0.53648 0.14868 0.0
C4567 C 0.8822 0.54693 0.16257 0.0
C4568 C 0.83159 0.56317 0.12716 0.0
C4569 C 0.8572 0.54929 0.13865 0.0
C4570 C 0.82208 0.56783 0.11339 0.0
C4571 C 0.82638 0.56212 0.09754 0.0
C4572 C 0.84535 0.55264 0.12498 0.0
C4573 C 0.83968 0.55099 0.09604 0.0
C4574 C 0.87002 0.53762 0.13671 0.0
C4575 C 0.8687 0.55777 0.16452 0.0
N4576 N 0.84875 0.54671 0.10955 0.0
N4577 N 0.85682 0.5588 0.15261 0.0
H4578 H 0.3134 0.42294 0.39125 0.0
H4579 H 0.39267 0.47151 0.35625 0.0
H4580 H 0.34045 0.45988 0.41895 0.0
H4581 H 0.3709 0.42869 0.33264 0.0
H4582 H 0.37043 0.47095 0.37696 0.0
H4583 H 0.33082 0.42885 0.36705 0.0
C4584 C 0.32275 0.43255 0.39211 0.0
C4585 C 0.32564 0.4408 0.40715 0.0
C4586 C 0.37047 0.46175 0.36717 0.0
C4587 C 0.34571 0.44746 0.3797 0.0
C4588 C 0.38316 0.46206 0.35538 0.0
C4589 C 0.38373 0.45001 0.34286 0.0
C4590 C 0.35824 0.44934 0.36637 0.0
C4591 C 0.37103 0.43811 0.34221 0.0
C4592 C 0.33277 0.43584 0.37836 0.0
C4593 C 0.33794 0.45312 0.40763 0.0
N4594 N 0.35887 0.43801 0.35386 0.0
N4595 N 0.34764 0.45595 0.39416 0.0
H4596 H 0.80298 0.59859 0.67137 0.0
H4597 H 0.81777 0.61892 0.57618 0.0
H4598 H 0.82685 0.56426 0.63798 0.0
H4599 H 0.78617 0.648 0.60814 0.0
H4600 H 0.81982 0.59782 0.59788 0.0
H4601 H 0.79524 0.61583 0.64782 0.0
C4602 C 0.80647 0.59461 0.65901 0.0
C4603 C 0.81571 0.58007 0.6566 0.0
C4604 C 0.81227 0.60871 0.60007 0.0
C4605 C 0.80703 0.59989 0.62953 0.0
C4606 C 0.81111 0.62077 0.58771 0.0
C4607 C 0.80192 0.6353 0.59045 0.0
C4608 C 0.80432 0.61129 0.61535 0.0
C4609 C 0.79347 0.63703 0.60555 0.0
C4610 C 0.80201 0.60445 0.64556 0.0
C4611 C 0.81976 0.57542 0.64034 0.0
N4612 N 0.79503 0.62525 0.6175 0.0
N4613 N 0.81559 0.58544 0.6274 0.0
H4614 H 0.68221 0.07652 0.89243 0.0
H4615 H 0.59926 0.03453 0.85715 0.0
H4616 H 0.64661 0.05046 0.92273 0.0
H4617 H 0.62663 0.07227 0.83084 0.0
H4618 H 0.61967 0.0359 0.87961 0.0
H4619 H 0.66506 0.0706 0.86792 0.0
C4620 C 0.67093 0.06936 0.89386 0.0
C4621 C 0.6657 0.0641 0.90959 0.0
C4622 C 0.62125 0.04381 0.86887 0.0
C4623 C 0.64616 0.0573 0.88181 0.0
C4624 C 0.60963 0.04301 0.85606 0.0
C4625 C 0.61118 0.05343 0.84224 0.0
C4626 C 0.63456 0.05501 0.86776 0.0
C4627 C 0.62489 0.06414 0.84139 0.0
C4628 C 0.66113 0.06606 0.87993 0.0
C4629 C 0.65098 0.05489 0.91083 0.0
N4630 N 0.63603 0.06471 0.85401 0.0
N4631 N 0.6417 0.05184 0.89714 0.0
H4632 H 0.69829 0.40136 0.16899 0.0
H4633 H 0.68554 0.3834 0.07329 0.0
H4634 H 0.67493 0.4366 0.13619 0.0
H4635 H 0.71858 0.35507 0.10443 0.0
H4636 H 0.68279 0.40399 0.0954 0.0
H4637 H 0.70702 0.38515 0.14505 0.0
C4638 C 0.69509 0.40574 0.15669 0.0
C4639 C 0.68573 0.42024 0.15454 0.0
C4640 C 0.69084 0.39341 0.09731 0.0
C4641 C 0.69557 0.40162 0.12702 0.0
C4642 C 0.69241 0.38165 0.0847 0.0
C4643 C 0.70217 0.36743 0.08712 0.0
C4644 C 0.69892 0.39081 0.11251 0.0
C4645 C 0.71086 0.3658 0.10209 0.0
C4646 C 0.70015 0.39651 0.14301 0.0
C4647 C 0.68209 0.42545 0.13835 0.0
N4648 N 0.70885 0.37724 0.11431 0.0
N4649 N 0.68682 0.41599 0.12517 0.0
H4650 H 0.13433 0.42792 0.17038 0.0
H4651 H 0.16593 0.46445 0.08484 0.0
H4652 H 0.116 0.47373 0.14964 0.0
H4653 H 0.19048 0.42428 0.11025 0.0
H4654 H 0.14948 0.46982 0.10968 0.0
H4655 H 0.15646 0.42771 0.14971 0.0
C4656 C 0.13504 0.438 0.16152 0.0
C4657 C 0.12321 0.45077 0.16158 0.0
C4658 C 0.15867 0.46002 0.10997 0.0
C4659 C 0.14849 0.45057 0.13783 0.0
C4660 C 0.1681 0.45698 0.0958 0.0
C4661 C 0.17946 0.4438 0.09547 0.0
C4662 C 0.1604 0.44961 0.12383 0.0
C4663 C 0.18182 0.43454 0.11 0.0
C4664 C 0.14773 0.43791 0.14977 0.0
C4665 C 0.1248 0.46359 0.14994 0.0
N4666 N 0.17214 0.43743 0.12352 0.0
N4667 N 0.1371 0.46306 0.1384 0.0
H4668 H 0.77841 0.86138 0.89751 0.0
H4669 H 0.82509 0.94232 0.86409 0.0
H4670 H 0.81842 0.88587 0.92328 0.0
H4671 H 0.79011 0.9139 0.83521 0.0
H4672 H 0.81847 0.9252 0.88829 0.0
H4673 H 0.77854 0.88369 0.87686 0.0
C4674 C 0.78709 0.87154 0.89891 0.0
C4675 C 0.79857 0.87168 0.91197 0.0
C4676 C 0.81206 0.92288 0.87671 0.0
C4677 C 0.7988 0.8972 0.88849 0.0
C4678 C 0.81576 0.93272 0.86294 0.0
C4679 C 0.8083 0.92936 0.8476 0.0
C4680 C 0.80084 0.90962 0.87509 0.0
C4681 C 0.7963 0.91677 0.84678 0.0
C4682 C 0.78717 0.88426 0.88714 0.0
C4683 C 0.80949 0.88518 0.91328 0.0
N4684 N 0.79308 0.90722 0.86028 0.0
N4685 N 0.80943 0.89732 0.90161 0.0
H4686 H 0.21702 0.64439 0.39664 0.0
H4687 H 0.16873 0.56406 0.36371 0.0
H4688 H 0.1734 0.62392 0.41998 0.0
H4689 H 0.2059 0.59014 0.33536 0.0
H4690 H 0.17417 0.58256 0.38719 0.0
H4691 H 0.21647 0.62165 0.37648 0.0
C4692 C 0.20736 0.63508 0.39754 0.0
C4693 C 0.19512 0.63612 0.40985 0.0
C4694 C 0.1813 0.58407 0.3759 0.0
C4695 C 0.19451 0.61005 0.38701 0.0
C4696 C 0.1783 0.57344 0.36256 0.0
C4697 C 0.18675 0.57572 0.34754 0.0
C4698 C 0.19285 0.59702 0.37417 0.0
C4699 C 0.19899 0.58808 0.34669 0.0
C4700 C 0.20707 0.6221 0.38608 0.0
C4701 C 0.18297 0.62368 0.41056 0.0
N4702 N 0.20155 0.59838 0.35976 0.0
N4703 N 0.18294 0.61119 0.39926 0.0
loop_
_geom_bond_atom_site_label_1
_geom_bond_atom_site_label_2
_geom_bond_distance
_geom_bond_site_symmetry_2
_ccdc_geom_bond_type
In0 O1 2.294 . S
In0 O2 2.326 . S
In0 O6 2.266 . S
In0 O7 2.326 . S
In0 O8 2.266 . S
In0 O9 2.326 . S
In0 O11 2.294 . S
In0 O12 2.326 . S
O1 In0 2.294 . S
O1 C10 1.240 . S
O2 In0 2.326 . S
O2 C10 1.252 . S
C3 O6 1.252 . S
C3 O7 1.260 . S
C4 O11 1.240 . S
C4 O12 1.252 . S
C5 O8 1.252 . S
C5 O9 1.260 . S
O6 In0 2.266 . S
O6 C3 1.252 . S
O7 In0 2.326 . S
O7 C3 1.260 . S
O8 In0 2.266 . S
O8 C5 1.252 . S
O9 In0 2.326 . S
O9 C5 1.260 . S
C10 O1 1.240 . S
C10 O2 1.252 . S
O11 In0 2.294 . S
O11 C4 1.240 . S
O12 In0 2.326 . S
O12 C4 1.252 . S
In13 O14 2.294 . S
In13 O15 2.326 . S
In13 O19 2.266 . S
In13 O20 2.326 . S
In13 O21 2.266 . S
In13 O22 2.326 . S
In13 O24 2.294 . S
In13 O25 2.326 . S
O14 In13 2.294 . S
O14 C23 1.240 . S
O15 In13 2.326 . S
O15 C23 1.252 . S
C16 O19 1.252 . S
C16 O20 1.260 . S
C17 O24 1.240 . S
C17 O25 1.252 . S
C18 O21 1.252 . S
C18 O22 1.260 . S
O19 In13 2.266 . S
O19 C16 1.252 . S
O20 In13 2.326 . S
O20 C16 1.260 . S
O21 In13 2.266 . S
O21 C18 1.252 . S
O22 In13 2.326 . S
O22 C18 1.260 . S
C23 O14 1.240 . S
C23 O15 1.252 . S
O24 In13 2.294 . S
O24 C17 1.240 . S
O25 In13 2.326 . S
O25 C17 1.252 . S
In26 O27 2.294 . S
In26 O28 2.326 . S
In26 O32 2.266 . S
In26 O33 2.326 . S
In26 O34 2.266 . S
In26 O35 2.326 . S
In26 O37 2.294 . S
In26 O38 2.326 . S
O27 In26 2.294 . S
O27 C36 1.240 . S
O28 In26 2.326 . S
O28 C36 1.252 . S
C29 O32 1.252 . S
C29 O33 1.260 . S
C30 O37 1.240 . S
C30 O38 1.252 . S
C31 O34 1.252 . S
C31 O35 1.260 . S
O32 In26 2.266 . S
O32 C29 1.252 . S
O33 In26 2.326 . S
O33 C29 1.260 . S
O34 In26 2.266 . S
O34 C31 1.252 . S
O35 In26 2.326 . S
O35 C31 1.260 . S
C36 O27 1.240 . S
C36 O28 1.252 . S
O37 In26 2.294 . S
O37 C30 1.240 . S
O38 In26 2.326 . S
O38 C30 1.252 . S
In39 O40 2.294 . S
In39 O41 2.326 . S
In39 O45 2.266 . S
In39 O46 2.326 . S
In39 O47 2.266 . S
In39 O48 2.326 . S
In39 O50 2.294 . S
In39 O51 2.326 . S
O40 In39 2.294 . S
O40 C49 1.240 . S
O41 In39 2.326 . S
O41 C49 1.252 . S
C42 O45 1.252 . S
C42 O46 1.260 . S
C43 O50 1.240 . S
C43 O51 1.252 . S
C44 O47 1.252 . S
C44 O48 1.260 . S
O45 In39 2.266 . S
O45 C42 1.252 . S
O46 In39 2.326 . S
O46 C42 1.260 . S
O47 In39 2.266 . S
O47 C44 1.252 . S
O48 In39 2.326 . S
O48 C44 1.260 . S
C49 O40 1.240 . S
C49 O41 1.252 . S
O50 In39 2.294 . S
O50 C43 1.240 . S
O51 In39 2.326 . S
O51 C43 1.252 . S
In52 O53 2.294 . S
In52 O54 2.326 . S
In52 O58 2.266 . S
In52 O59 2.326 . S
In52 O60 2.266 . S
In52 O61 2.326 . S
In52 O63 2.294 . S
In52 O64 2.326 . S
O53 In52 2.294 . S
O53 C62 1.240 . S
O54 In52 2.326 . S
O54 C62 1.252 . S
C55 O58 1.252 . S
C55 O59 1.260 . S
C56 O63 1.240 . S
C56 O64 1.252 . S
C57 O60 1.252 . S
C57 O61 1.260 . S
O58 In52 2.266 . S
O58 C55 1.252 . S
O59 In52 2.326 . S
O59 C55 1.260 . S
O60 In52 2.266 . S
O60 C57 1.252 . S
O61 In52 2.326 . S
O61 C57 1.260 . S
C62 O53 1.240 . S
C62 O54 1.252 . S
O63 In52 2.294 . S
O63 C56 1.240 . S
O64 In52 2.326 . S
O64 C56 1.252 . S
In65 O66 2.294 . S
In65 O67 2.326 . S
In65 O71 2.266 . S
In65 O72 2.326 . S
In65 O73 2.266 . S
In65 O74 2.326 . S
In65 O76 2.294 . S
In65 O77 2.326 . S
O66 In65 2.294 . S
O66 C75 1.240 . S
O67 In65 2.326 . S
O67 C75 1.252 . S
C68 O71 1.252 . S
C68 O72 1.260 . S
C69 O76 1.240 . S
C69 O77 1.252 . S
C70 O73 1.252 . S
C70 O74 1.260 . S
O71 In65 2.266 . S
O71 C68 1.252 . S
O72 In65 2.326 . S
O72 C68 1.260 . S
O73 In65 2.266 . S
O73 C70 1.252 . S
O74 In65 2.326 . S
O74 C70 1.260 . S
C75 O66 1.240 . S
C75 O67 1.252 . S
O76 In65 2.294 . S
O76 C69 1.240 . S
O77 In65 2.326 . S
O77 C69 1.252 . S
In78 O79 2.294 . S
In78 O80 2.326 . S
In78 O84 2.266 . S
In78 O85 2.326 . S
In78 O86 2.266 . S
In78 O87 2.326 . S
In78 O89 2.294 . S
In78 O90 2.326 . S
O79 In78 2.294 . S
O79 C88 1.240 . S
O80 In78 2.326 . S
O80 C88 1.252 . S
C81 O84 1.252 . S
C81 O85 1.260 . S
C82 O89 1.240 . S
C82 O90 1.252 . S
C83 O86 1.252 . S
C83 O87 1.260 . S
O84 In78 2.266 . S
O84 C81 1.252 . S
O85 In78 2.326 . S
O85 C81 1.260 . S
O86 In78 2.266 . S
O86 C83 1.252 . S
O87 In78 2.326 . S
O87 C83 1.260 . S
C88 O79 1.240 . S
C88 O80 1.252 . S
O89 In78 2.294 . S
O89 C82 1.240 . S
O90 In78 2.326 . S
O90 C82 1.252 . S
In91 O92 2.294 . S
In91 O93 2.326 . S
In91 O97 2.266 . S
In91 O98 2.326 . S
In91 O99 2.266 . S
In91 O100 2.326 . S
In91 O102 2.294 . S
In91 O103 2.326 . S
O92 In91 2.294 . S
O92 C101 1.240 . S
O93 In91 2.326 . S
O93 C101 1.252 . S
C94 O97 1.252 . S
C94 O98 1.260 . S
C95 O102 1.240 . S
C95 O103 1.252 . S
C96 O99 1.252 . S
C96 O100 1.260 . S
O97 In91 2.266 . S
O97 C94 1.252 . S
O98 In91 2.326 . S
O98 C94 1.260 . S
O99 In91 2.266 . S
O99 C96 1.252 . S
O100 In91 2.326 . S
O100 C96 1.260 . S
C101 O92 1.240 . S
C101 O93 1.252 . S
O102 In91 2.294 . S
O102 C95 1.240 . S
O103 In91 2.326 . S
O103 C95 1.252 . S
In104 O105 2.294 . S
In104 O106 2.326 . S
In104 O110 2.266 . S
In104 O111 2.326 . S
In104 O112 2.266 . S
In104 O113 2.326 . S
In104 O115 2.294 . S
In104 O116 2.326 . S
O105 In104 2.294 . S
O105 C114 1.240 . S
O106 In104 2.326 . S
O106 C114 1.252 . S
C107 O110 1.252 . S
C107 O111 1.260 . S
C108 O115 1.240 . S
C108 O116 1.252 . S
C109 O112 1.252 . S
C109 O113 1.260 . S
O110 In104 2.266 . S
O110 C107 1.252 . S
O111 In104 2.326 . S
O111 C107 1.260 . S
O112 In104 2.266 . S
O112 C109 1.252 . S
O113 In104 2.326 . S
O113 C109 1.260 . S
C114 O105 1.240 . S
C114 O106 1.252 . S
O115 In104 2.294 . S
O115 C108 1.240 . S
O116 In104 2.326 . S
O116 C108 1.252 . S
In117 O118 2.294 . S
In117 O119 2.326 . S
In117 O123 2.266 . S
In117 O124 2.326 . S
In117 O125 2.266 . S
In117 O126 2.326 . S
In117 O128 2.294 . S
In117 O129 2.326 . S
O118 In117 2.294 . S
O118 C127 1.240 . S
O119 In117 2.326 . S
O119 C127 1.252 . S
C120 O123 1.252 . S
C120 O124 1.260 . S
C121 O128 1.240 . S
C121 O129 1.252 . S
C122 O125 1.252 . S
C122 O126 1.260 . S
O123 In117 2.266 . S
O123 C120 1.252 . S
O124 In117 2.326 . S
O124 C120 1.260 . S
O125 In117 2.266 . S
O125 C122 1.252 . S
O126 In117 2.326 . S
O126 C122 1.260 . S
C127 O118 1.240 . S
C127 O119 1.252 . S
O128 In117 2.294 . S
O128 C121 1.240 . S
O129 In117 2.326 . S
O129 C121 1.252 . S
In130 O131 2.294 . S
In130 O132 2.326 . S
In130 O136 2.266 . S
In130 O137 2.326 . S
In130 O138 2.266 . S
In130 O139 2.326 . S
In130 O141 2.294 . S
In130 O142 2.326 . S
O131 In130 2.294 . S
O131 C140 1.240 . S
O132 In130 2.326 . S
O132 C140 1.252 . S
C133 O136 1.252 . S
C133 O137 1.260 . S
C134 O141 1.240 . S
C134 O142 1.252 . S
C135 O138 1.252 . S
C135 O139 1.260 . S
O136 In130 2.266 . S
O136 C133 1.252 . S
O137 In130 2.326 . S
O137 C133 1.260 . S
O138 In130 2.266 . S
O138 C135 1.252 . S
O139 In130 2.326 . S
O139 C135 1.260 . S
C140 O131 1.240 . S
C140 O132 1.252 . S
O141 In130 2.294 . S
O141 C134 1.240 . S
O142 In130 2.326 . S
O142 C134 1.252 . S
In143 O144 2.294 . S
In143 O145 2.326 . S
In143 O149 2.266 . S
In143 O150 2.326 . S
In143 O151 2.266 . S
In143 O152 2.326 . S
In143 O154 2.294 . S
In143 O155 2.326 . S
O144 In143 2.294 . S
O144 C153 1.240 . S
O145 In143 2.326 . S
O145 C153 1.252 . S
C146 O149 1.252 . S
C146 O150 1.260 . S
C147 O154 1.240 . S
C147 O155 1.252 . S
C148 O151 1.252 . S
C148 O152 1.260 . S
O149 In143 2.266 . S
O149 C146 1.252 . S
O150 In143 2.326 . S
O150 C146 1.260 . S
O151 In143 2.266 . S
O151 C148 1.252 . S
O152 In143 2.326 . S
O152 C148 1.260 . S
C153 O144 1.240 . S
C153 O145 1.252 . S
O154 In143 2.294 . S
O154 C147 1.240 . S
O155 In143 2.326 . S
O155 C147 1.252 . S
In156 O157 2.294 . S
In156 O158 2.326 . S
In156 O162 2.266 . S
In156 O163 2.326 . S
In156 O164 2.266 . S
In156 O165 2.326 . S
In156 O167 2.294 . S
In156 O168 2.326 . S
O157 In156 2.294 . S
O157 C166 1.240 . S
O158 In156 2.326 . S
O158 C166 1.252 . S
C159 O162 1.252 . S
C159 O163 1.260 . S
C160 O167 1.240 . S
C160 O168 1.252 . S
C161 O164 1.252 . S
C161 O165 1.260 . S
O162 In156 2.266 . S
O162 C159 1.252 . S
O163 In156 2.326 . S
O163 C159 1.260 . S
O164 In156 2.266 . S
O164 C161 1.252 . S
O165 In156 2.326 . S
O165 C161 1.260 . S
C166 O157 1.240 . S
C166 O158 1.252 . S
O167 In156 2.294 . S
O167 C160 1.240 . S
O168 In156 2.326 . S
O168 C160 1.252 . S
In169 O170 2.294 . S
In169 O171 2.326 . S
In169 O175 2.266 . S
In169 O176 2.326 . S
In169 O177 2.266 . S
In169 O178 2.326 . S
In169 O180 2.294 . S
In169 O181 2.326 . S
O170 In169 2.294 . S
O170 C179 1.240 . S
O171 In169 2.326 . S
O171 C179 1.252 . S
C172 O175 1.252 . S
C172 O176 1.260 . S
C173 O180 1.240 . S
C173 O181 1.252 . S
C174 O177 1.252 . S
C174 O178 1.260 . S
O175 In169 2.266 . S
O175 C172 1.252 . S
O176 In169 2.326 . S
O176 C172 1.260 . S
O177 In169 2.266 . S
O177 C174 1.252 . S
O178 In169 2.326 . S
O178 C174 1.260 . S
C179 O170 1.240 . S
C179 O171 1.252 . S
O180 In169 2.294 . S
O180 C173 1.240 . S
O181 In169 2.326 . S
O181 C173 1.252 . S
In182 O183 2.294 . S
In182 O184 2.326 . S
In182 O188 2.266 . S
In182 O189 2.326 . S
In182 O190 2.266 . S
In182 O191 2.326 . S
In182 O193 2.294 . S
In182 O194 2.326 . S
O183 In182 2.294 . S
O183 C192 1.240 . S
O184 In182 2.326 . S
O184 C192 1.252 . S
C185 O188 1.252 . S
C185 O189 1.260 . S
C186 O193 1.240 . S
C186 O194 1.252 . S
C187 O190 1.252 . S
C187 O191 1.260 . S
O188 In182 2.266 . S
O188 C185 1.252 . S
O189 In182 2.326 . S
O189 C185 1.260 . S
O190 In182 2.266 . S
O190 C187 1.252 . S
O191 In182 2.326 . S
O191 C187 1.260 . S
C192 O183 1.240 . S
C192 O184 1.252 . S
O193 In182 2.294 . S
O193 C186 1.240 . S
O194 In182 2.326 . S
O194 C186 1.252 . S
In195 O196 2.294 . S
In195 O197 2.326 . S
In195 O201 2.266 . S
In195 O202 2.326 . S
In195 O203 2.266 . S
In195 O204 2.326 . S
In195 O206 2.294 . S
In195 O207 2.326 . S
O196 In195 2.294 . S
O196 C205 1.240 . S
O197 In195 2.326 . S
O197 C205 1.252 . S
C198 O201 1.252 . S
C198 O202 1.260 . S
C199 O206 1.240 . S
C199 O207 1.252 . S
C200 O203 1.252 . S
C200 O204 1.260 . S
O201 In195 2.266 . S
O201 C198 1.252 . S
O202 In195 2.326 . S
O202 C198 1.260 . S
O203 In195 2.266 . S
O203 C200 1.252 . S
O204 In195 2.326 . S
O204 C200 1.260 . S
C205 O196 1.240 . S
C205 O197 1.252 . S
O206 In195 2.294 . S
O206 C199 1.240 . S
O207 In195 2.326 . S
O207 C199 1.252 . S
In208 O209 2.294 . S
In208 O210 2.326 . S
In208 O214 2.266 . S
In208 O215 2.326 . S
In208 O216 2.266 . S
In208 O217 2.326 . S
In208 O219 2.294 . S
In208 O220 2.326 . S
O209 In208 2.294 . S
O209 C218 1.240 . S
O210 In208 2.326 . S
O210 C218 1.252 . S
C211 O214 1.252 . S
C211 O215 1.260 . S
C212 O219 1.240 . S
C212 O220 1.252 . S
C213 O216 1.252 . S
C213 O217 1.260 . S
O214 In208 2.266 . S
O214 C211 1.252 . S
O215 In208 2.326 . S
O215 C211 1.260 . S
O216 In208 2.266 . S
O216 C213 1.252 . S
O217 In208 2.326 . S
O217 C213 1.260 . S
C218 O209 1.240 . S
C218 O210 1.252 . S
O219 In208 2.294 . S
O219 C212 1.240 . S
O220 In208 2.326 . S
O220 C212 1.252 . S
In221 O222 2.294 . S
In221 O223 2.326 . S
In221 O227 2.266 . S
In221 O228 2.326 . S
In221 O229 2.266 . S
In221 O230 2.326 . S
In221 O232 2.294 . S
In221 O233 2.326 . S
O222 In221 2.294 . S
O222 C231 1.240 . S
O223 In221 2.326 . S
O223 C231 1.252 . S
C224 O227 1.252 . S
C224 O228 1.260 . S
C225 O232 1.240 . S
C225 O233 1.252 . S
C226 O229 1.252 . S
C226 O230 1.260 . S
O227 In221 2.266 . S
O227 C224 1.252 . S
O228 In221 2.326 . S
O228 C224 1.260 . S
O229 In221 2.266 . S
O229 C226 1.252 . S
O230 In221 2.326 . S
O230 C226 1.260 . S
C231 O222 1.240 . S
C231 O223 1.252 . S
O232 In221 2.294 . S
O232 C225 1.240 . S
O233 In221 2.326 . S
O233 C225 1.252 . S
In234 O235 2.294 . S
In234 O236 2.326 . S
In234 O240 2.266 . S
In234 O241 2.326 . S
In234 O242 2.266 . S
In234 O243 2.326 . S
In234 O245 2.294 . S
In234 O246 2.326 . S
O235 In234 2.294 . S
O235 C244 1.240 . S
O236 In234 2.326 . S
O236 C244 1.252 . S
C237 O240 1.252 . S
C237 O241 1.260 . S
C238 O245 1.240 . S
C238 O246 1.252 . S
C239 O242 1.252 . S
C239 O243 1.260 . S
O240 In234 2.266 . S
O240 C237 1.252 . S
O241 In234 2.326 . S
O241 C237 1.260 . S
O242 In234 2.266 . S
O242 C239 1.252 . S
O243 In234 2.326 . S
O243 C239 1.260 . S
C244 O235 1.240 . S
C244 O236 1.252 . S
O245 In234 2.294 . S
O245 C238 1.240 . S
O246 In234 2.326 . S
O246 C238 1.252 . S
In247 O248 2.294 . S
In247 O249 2.326 . S
In247 O253 2.266 . S
In247 O254 2.326 . S
In247 O255 2.266 . S
In247 O256 2.326 . S
In247 O258 2.294 . S
In247 O259 2.326 . S
O248 In247 2.294 . S
O248 C257 1.240 . S
O249 In247 2.326 . S
O249 C257 1.252 . S
C250 O253 1.252 . S
C250 O254 1.260 . S
C251 O258 1.240 . S
C251 O259 1.252 . S
C252 O255 1.252 . S
C252 O256 1.260 . S
O253 In247 2.266 . S
O253 C250 1.252 . S
O254 In247 2.326 . S
O254 C250 1.260 . S
O255 In247 2.266 . S
O255 C252 1.252 . S
O256 In247 2.326 . S
O256 C252 1.260 . S
C257 O248 1.240 . S
C257 O249 1.252 . S
O258 In247 2.294 . S
O258 C251 1.240 . S
O259 In247 2.326 . S
O259 C251 1.252 . S
In260 O261 2.294 . S
In260 O262 2.326 . S
In260 O266 2.266 . S
In260 O267 2.326 . S
In260 O268 2.266 . S
In260 O269 2.326 . S
In260 O271 2.294 . S
In260 O272 2.326 . S
O261 In260 2.294 . S
O261 C270 1.240 . S
O262 In260 2.326 . S
O262 C270 1.252 . S
C263 O266 1.252 . S
C263 O267 1.260 . S
C264 O271 1.240 . S
C264 O272 1.252 . S
C265 O268 1.252 . S
C265 O269 1.260 . S
O266 In260 2.266 . S
O266 C263 1.252 . S
O267 In260 2.326 . S
O267 C263 1.260 . S
O268 In260 2.266 . S
O268 C265 1.252 . S
O269 In260 2.326 . S
O269 C265 1.260 . S
C270 O261 1.240 . S
C270 O262 1.252 . S
O271 In260 2.294 . S
O271 C264 1.240 . S
O272 In260 2.326 . S
O272 C264 1.252 . S
In273 O274 2.294 . S
In273 O275 2.326 . S
In273 O279 2.266 . S
In273 O280 2.326 . S
In273 O281 2.266 . S
In273 O282 2.326 . S
In273 O284 2.294 . S
In273 O285 2.326 . S
O274 In273 2.294 . S
O274 C283 1.240 . S
O275 In273 2.326 . S
O275 C283 1.252 . S
C276 O279 1.252 . S
C276 O280 1.260 . S
C277 O284 1.240 . S
C277 O285 1.252 . S
C278 O281 1.252 . S
C278 O282 1.260 . S
O279 In273 2.266 . S
O279 C276 1.252 . S
O280 In273 2.326 . S
O280 C276 1.260 . S
O281 In273 2.266 . S
O281 C278 1.252 . S
O282 In273 2.326 . S
O282 C278 1.260 . S
C283 O274 1.240 . S
C283 O275 1.252 . S
O284 In273 2.294 . S
O284 C277 1.240 . S
O285 In273 2.326 . S
O285 C277 1.252 . S
In286 O287 2.294 . S
In286 O288 2.326 . S
In286 O292 2.266 . S
In286 O293 2.326 . S
In286 O294 2.266 . S
In286 O295 2.326 . S
In286 O297 2.294 . S
In286 O298 2.326 . S
O287 In286 2.294 . S
O287 C296 1.240 . S
O288 In286 2.326 . S
O288 C296 1.252 . S
C289 O292 1.252 . S
C289 O293 1.260 . S
C290 O297 1.240 . S
C290 O298 1.252 . S
C291 O294 1.252 . S
C291 O295 1.260 . S
O292 In286 2.266 . S
O292 C289 1.252 . S
O293 In286 2.326 . S
O293 C289 1.260 . S
O294 In286 2.266 . S
O294 C291 1.252 . S
O295 In286 2.326 . S
O295 C291 1.260 . S
C296 O287 1.240 . S
C296 O288 1.252 . S
O297 In286 2.294 . S
O297 C290 1.240 . S
O298 In286 2.326 . S
O298 C290 1.252 . S
In299 O300 2.294 . S
In299 O301 2.326 . S
In299 O305 2.266 . S
In299 O306 2.326 . S
In299 O307 2.266 . S
In299 O308 2.326 . S
In299 O310 2.294 . S
In299 O311 2.326 . S
O300 In299 2.294 . S
O300 C309 1.240 . S
O301 In299 2.326 . S
O301 C309 1.252 . S
C302 O305 1.252 . S
C302 O306 1.260 . S
C303 O310 1.240 . S
C303 O311 1.252 . S
C304 O307 1.252 . S
C304 O308 1.260 . S
O305 In299 2.266 . S
O305 C302 1.252 . S
O306 In299 2.326 . S
O306 C302 1.260 . S
O307 In299 2.266 . S
O307 C304 1.252 . S
O308 In299 2.326 . S
O308 C304 1.260 . S
C309 O300 1.240 . S
C309 O301 1.252 . S
O310 In299 2.294 . S
O310 C303 1.240 . S
O311 In299 2.326 . S
O311 C303 1.252 . S
In312 O313 2.294 . S
In312 O314 2.326 . S
In312 O318 2.266 . S
In312 O319 2.326 . S
In312 O320 2.266 . S
In312 O321 2.326 . S
In312 O323 2.294 . S
In312 O324 2.326 . S
O313 In312 2.294 . S
O313 C322 1.240 . S
O314 In312 2.326 . S
O314 C322 1.252 . S
C315 O318 1.252 . S
C315 O319 1.260 . S
C316 O323 1.240 . S
C316 O324 1.252 . S
C317 O320 1.252 . S
C317 O321 1.260 . S
O318 In312 2.266 . S
O318 C315 1.252 . S
O319 In312 2.326 . S
O319 C315 1.260 . S
O320 In312 2.266 . S
O320 C317 1.252 . S
O321 In312 2.326 . S
O321 C317 1.260 . S
C322 O313 1.240 . S
C322 O314 1.252 . S
O323 In312 2.294 . S
O323 C316 1.240 . S
O324 In312 2.326 . S
O324 C316 1.252 . S
In325 O326 2.294 . S
In325 O327 2.326 . S
In325 O331 2.266 . S
In325 O332 2.326 . S
In325 O333 2.266 . S
In325 O334 2.326 . S
In325 O336 2.294 . S
In325 O337 2.326 . S
O326 In325 2.294 . S
O326 C335 1.240 . S
O327 In325 2.326 . S
O327 C335 1.252 . S
C328 O331 1.252 . S
C328 O332 1.260 . S
C329 O336 1.240 . S
C329 O337 1.252 . S
C330 O333 1.252 . S
C330 O334 1.260 . S
O331 In325 2.266 . S
O331 C328 1.252 . S
O332 In325 2.326 . S
O332 C328 1.260 . S
O333 In325 2.266 . S
O333 C330 1.252 . S
O334 In325 2.326 . S
O334 C330 1.260 . S
C335 O326 1.240 . S
C335 O327 1.252 . S
O336 In325 2.294 . S
O336 C329 1.240 . S
O337 In325 2.326 . S
O337 C329 1.252 . S
In338 O339 2.294 . S
In338 O340 2.326 . S
In338 O344 2.266 . S
In338 O345 2.326 . S
In338 O346 2.266 . S
In338 O347 2.326 . S
In338 O349 2.294 . S
In338 O350 2.326 . S
O339 In338 2.294 . S
O339 C348 1.240 . S
O340 In338 2.326 . S
O340 C348 1.252 . S
C341 O344 1.252 . S
C341 O345 1.260 . S
C342 O349 1.240 . S
C342 O350 1.252 . S
C343 O346 1.252 . S
C343 O347 1.260 . S
O344 In338 2.266 . S
O344 C341 1.252 . S
O345 In338 2.326 . S
O345 C341 1.260 . S
O346 In338 2.266 . S
O346 C343 1.252 . S
O347 In338 2.326 . S
O347 C343 1.260 . S
C348 O339 1.240 . S
C348 O340 1.252 . S
O349 In338 2.294 . S
O349 C342 1.240 . S
O350 In338 2.326 . S
O350 C342 1.252 . S
In351 O352 2.294 . S
In351 O353 2.326 . S
In351 O357 2.266 . S
In351 O358 2.326 . S
In351 O359 2.266 . S
In351 O360 2.326 . S
In351 O362 2.294 . S
In351 O363 2.326 . S
O352 In351 2.294 . S
O352 C361 1.240 . S
O353 In351 2.326 . S
O353 C361 1.252 . S
C354 O357 1.252 . S
C354 O358 1.260 . S
C355 O362 1.240 . S
C355 O363 1.252 . S
C356 O359 1.252 . S
C356 O360 1.260 . S
O357 In351 2.266 . S
O357 C354 1.252 . S
O358 In351 2.326 . S
O358 C354 1.260 . S
O359 In351 2.266 . S
O359 C356 1.252 . S
O360 In351 2.326 . S
O360 C356 1.260 . S
C361 O352 1.240 . S
C361 O353 1.252 . S
O362 In351 2.294 . S
O362 C355 1.240 . S
O363 In351 2.326 . S
O363 C355 1.252 . S
In364 O365 2.294 . S
In364 O366 2.326 . S
In364 O370 2.266 . S
In364 O371 2.326 . S
In364 O372 2.266 . S
In364 O373 2.326 . S
In364 O375 2.294 . S
In364 O376 2.326 . S
O365 In364 2.294 . S
O365 C374 1.240 . S
O366 In364 2.326 . S
O366 C374 1.252 . S
C367 O370 1.252 . S
C367 O371 1.260 . S
C368 O375 1.240 . S
C368 O376 1.252 . S
C369 O372 1.252 . S
C369 O373 1.260 . S
O370 In364 2.266 . S
O370 C367 1.252 . S
O371 In364 2.326 . S
O371 C367 1.260 . S
O372 In364 2.266 . S
O372 C369 1.252 . S
O373 In364 2.326 . S
O373 C369 1.260 . S
C374 O365 1.240 . S
C374 O366 1.252 . S
O375 In364 2.294 . S
O375 C368 1.240 . S
O376 In364 2.326 . S
O376 C368 1.252 . S
In377 O378 2.294 . S
In377 O379 2.326 . S
In377 O383 2.266 . S
In377 O384 2.326 . S
In377 O385 2.266 . S
In377 O386 2.326 . S
In377 O388 2.294 . S
In377 O389 2.326 . S
O378 In377 2.294 . S
O378 C387 1.240 . S
O379 In377 2.326 . S
O379 C387 1.252 . S
C380 O383 1.252 . S
C380 O384 1.260 . S
C381 O388 1.240 . S
C381 O389 1.252 . S
C382 O385 1.252 . S
C382 O386 1.260 . S
O383 In377 2.266 . S
O383 C380 1.252 . S
O384 In377 2.326 . S
O384 C380 1.260 . S
O385 In377 2.266 . S
O385 C382 1.252 . S
O386 In377 2.326 . S
O386 C382 1.260 . S
C387 O378 1.240 . S
C387 O379 1.252 . S
O388 In377 2.294 . S
O388 C381 1.240 . S
O389 In377 2.326 . S
O389 C381 1.252 . S
In390 O391 2.294 . S
In390 O392 2.326 . S
In390 O396 2.266 . S
In390 O397 2.326 . S
In390 O398 2.266 . S
In390 O399 2.326 . S
In390 O401 2.294 . S
In390 O402 2.326 . S
O391 In390 2.294 . S
O391 C400 1.240 . S
O392 In390 2.326 . S
O392 C400 1.252 . S
C393 O396 1.252 . S
C393 O397 1.260 . S
C394 O401 1.240 . S
C394 O402 1.252 . S
C395 O398 1.252 . S
C395 O399 1.260 . S
O396 In390 2.266 . S
O396 C393 1.252 . S
O397 In390 2.326 . S
O397 C393 1.260 . S
O398 In390 2.266 . S
O398 C395 1.252 . S
O399 In390 2.326 . S
O399 C395 1.260 . S
C400 O391 1.240 . S
C400 O392 1.252 . S
O401 In390 2.294 . S
O401 C394 1.240 . S
O402 In390 2.326 . S
O402 C394 1.252 . S
In403 O404 2.294 . S
In403 O405 2.326 . S
In403 O409 2.266 . S
In403 O410 2.326 . S
In403 O411 2.266 . S
In403 O412 2.326 . S
In403 O414 2.294 . S
In403 O415 2.326 . S
O404 In403 2.294 . S
O404 C413 1.240 . S
O405 In403 2.326 . S
O405 C413 1.252 . S
C406 O409 1.252 . S
C406 O410 1.260 . S
C407 O414 1.240 . S
C407 O415 1.252 . S
C408 O411 1.252 . S
C408 O412 1.260 . S
O409 In403 2.266 . S
O409 C406 1.252 . S
O410 In403 2.326 . S
O410 C406 1.260 . S
O411 In403 2.266 . S
O411 C408 1.252 . S
O412 In403 2.326 . S
O412 C408 1.260 . S
C413 O404 1.240 . S
C413 O405 1.252 . S
O414 In403 2.294 . S
O414 C407 1.240 . S
O415 In403 2.326 . S
O415 C407 1.252 . S
In416 O417 2.294 . S
In416 O418 2.326 . S
In416 O422 2.266 . S
In416 O423 2.326 . S
In416 O424 2.266 . S
In416 O425 2.326 . S
In416 O427 2.294 . S
In416 O428 2.326 . S
O417 In416 2.294 . S
O417 C426 1.240 . S
O418 In416 2.326 . S
O418 C426 1.252 . S
C419 O422 1.252 . S
C419 O423 1.260 . S
C420 O427 1.240 . S
C420 O428 1.252 . S
C421 O424 1.252 . S
C421 O425 1.260 . S
O422 In416 2.266 . S
O422 C419 1.252 . S
O423 In416 2.326 . S
O423 C419 1.260 . S
O424 In416 2.266 . S
O424 C421 1.252 . S
O425 In416 2.326 . S
O425 C421 1.260 . S
C426 O417 1.240 . S
C426 O418 1.252 . S
O427 In416 2.294 . S
O427 C420 1.240 . S
O428 In416 2.326 . S
O428 C420 1.252 . S
In429 O430 2.294 . S
In429 O431 2.326 . S
In429 O435 2.266 . S
In429 O436 2.326 . S
In429 O437 2.266 . S
In429 O438 2.326 . S
In429 O440 2.294 . S
In429 O441 2.326 . S
O430 In429 2.294 . S
O430 C439 1.240 . S
O431 In429 2.326 . S
O431 C439 1.252 . S
C432 O435 1.252 . S
C432 O436 1.260 . S
C433 O440 1.240 . S
C433 O441 1.252 . S
C434 O437 1.252 . S
C434 O438 1.260 . S
O435 In429 2.266 . S
O435 C432 1.252 . S
O436 In429 2.326 . S
O436 C432 1.260 . S
O437 In429 2.266 . S
O437 C434 1.252 . S
O438 In429 2.326 . S
O438 C434 1.260 . S
C439 O430 1.240 . S
C439 O431 1.252 . S
O440 In429 2.294 . S
O440 C433 1.240 . S
O441 In429 2.326 . S
O441 C433 1.252 . S
In442 O443 2.294 . S
In442 O444 2.326 . S
In442 O448 2.266 . S
In442 O449 2.326 . S
In442 O450 2.266 . S
In442 O451 2.326 . S
In442 O453 2.294 . S
In442 O454 2.326 . S
O443 In442 2.294 . S
O443 C452 1.240 . S
O444 In442 2.326 . S
O444 C452 1.252 . S
C445 O448 1.252 . S
C445 O449 1.260 . S
C446 O453 1.240 . S
C446 O454 1.252 . S
C447 O450 1.252 . S
C447 O451 1.260 . S
O448 In442 2.266 . S
O448 C445 1.252 . S
O449 In442 2.326 . S
O449 C445 1.260 . S
O450 In442 2.266 . S
O450 C447 1.252 . S
O451 In442 2.326 . S
O451 C447 1.260 . S
C452 O443 1.240 . S
C452 O444 1.252 . S
O453 In442 2.294 . S
O453 C446 1.240 . S
O454 In442 2.326 . S
O454 C446 1.252 . S
In455 O456 2.294 . S
In455 O457 2.326 . S
In455 O461 2.266 . S
In455 O462 2.326 . S
In455 O463 2.266 . S
In455 O464 2.326 . S
In455 O466 2.294 . S
In455 O467 2.326 . S
O456 In455 2.294 . S
O456 C465 1.240 . S
O457 In455 2.326 . S
O457 C465 1.252 . S
C458 O461 1.252 . S
C458 O462 1.260 . S
C459 O466 1.240 . S
C459 O467 1.252 . S
C460 O463 1.252 . S
C460 O464 1.260 . S
O461 In455 2.266 . S
O461 C458 1.252 . S
O462 In455 2.326 . S
O462 C458 1.260 . S
O463 In455 2.266 . S
O463 C460 1.252 . S
O464 In455 2.326 . S
O464 C460 1.260 . S
C465 O456 1.240 . S
C465 O457 1.252 . S
O466 In455 2.294 . S
O466 C459 1.240 . S
O467 In455 2.326 . S
O467 C459 1.252 . S
In468 O469 2.294 . S
In468 O470 2.326 . S
In468 O474 2.266 . S
In468 O475 2.326 . S
In468 O476 2.266 . S
In468 O477 2.326 . S
In468 O479 2.294 . S
In468 O480 2.326 . S
O469 In468 2.294 . S
O469 C478 1.240 . S
O470 In468 2.326 . S
O470 C478 1.252 . S
C471 O474 1.252 . S
C471 O475 1.260 . S
C472 O479 1.240 . S
C472 O480 1.252 . S
C473 O476 1.252 . S
C473 O477 1.260 . S
O474 In468 2.266 . S
O474 C471 1.252 . S
O475 In468 2.326 . S
O475 C471 1.260 . S
O476 In468 2.266 . S
O476 C473 1.252 . S
O477 In468 2.326 . S
O477 C473 1.260 . S
C478 O469 1.240 . S
C478 O470 1.252 . S
O479 In468 2.294 . S
O479 C472 1.240 . S
O480 In468 2.326 . S
O480 C472 1.252 . S
In481 O482 2.294 . S
In481 O483 2.326 . S
In481 O487 2.266 . S
In481 O488 2.326 . S
In481 O489 2.266 . S
In481 O490 2.326 . S
In481 O492 2.294 . S
In481 O493 2.326 . S
O482 In481 2.294 . S
O482 C491 1.240 . S
O483 In481 2.326 . S
O483 C491 1.252 . S
C484 O487 1.252 . S
C484 O488 1.260 . S
C485 O492 1.240 . S
C485 O493 1.252 . S
C486 O489 1.252 . S
C486 O490 1.260 . S
O487 In481 2.266 . S
O487 C484 1.252 . S
O488 In481 2.326 . S
O488 C484 1.260 . S
O489 In481 2.266 . S
O489 C486 1.252 . S
O490 In481 2.326 . S
O490 C486 1.260 . S
C491 O482 1.240 . S
C491 O483 1.252 . S
O492 In481 2.294 . S
O492 C485 1.240 . S
O493 In481 2.326 . S
O493 C485 1.252 . S
In494 O495 2.294 . S
In494 O496 2.326 . S
In494 O500 2.266 . S
In494 O501 2.326 . S
In494 O502 2.266 . S
In494 O503 2.326 . S
In494 O505 2.294 . S
In494 O506 2.326 . S
O495 In494 2.294 . S
O495 C504 1.240 . S
O496 In494 2.326 . S
O496 C504 1.252 . S
C497 O500 1.252 . S
C497 O501 1.260 . S
C498 O505 1.240 . S
C498 O506 1.252 . S
C499 O502 1.252 . S
C499 O503 1.260 . S
O500 In494 2.266 . S
O500 C497 1.252 . S
O501 In494 2.326 . S
O501 C497 1.260 . S
O502 In494 2.266 . S
O502 C499 1.252 . S
O503 In494 2.326 . S
O503 C499 1.260 . S
C504 O495 1.240 . S
C504 O496 1.252 . S
O505 In494 2.294 . S
O505 C498 1.240 . S
O506 In494 2.326 . S
O506 C498 1.252 . S
In507 O508 2.294 . S
In507 O509 2.326 . S
In507 O513 2.266 . S
In507 O514 2.326 . S
In507 O515 2.266 . S
In507 O516 2.326 . S
In507 O518 2.294 . S
In507 O519 2.326 . S
O508 In507 2.294 . S
O508 C517 1.240 . S
O509 In507 2.326 . S
O509 C517 1.252 . S
C510 O513 1.252 . S
C510 O514 1.260 . S
C511 O518 1.240 . S
C511 O519 1.252 . S
C512 O515 1.252 . S
C512 O516 1.260 . S
O513 In507 2.266 . S
O513 C510 1.252 . S
O514 In507 2.326 . S
O514 C510 1.260 . S
O515 In507 2.266 . S
O515 C512 1.252 . S
O516 In507 2.326 . S
O516 C512 1.260 . S
C517 O508 1.240 . S
C517 O509 1.252 . S
O518 In507 2.294 . S
O518 C511 1.240 . S
O519 In507 2.326 . S
O519 C511 1.252 . S
In520 O521 2.294 . S
In520 O522 2.326 . S
In520 O526 2.266 . S
In520 O527 2.326 . S
In520 O528 2.266 . S
In520 O529 2.326 . S
In520 O531 2.294 . S
In520 O532 2.326 . S
O521 In520 2.294 . S
O521 C530 1.240 . S
O522 In520 2.326 . S
O522 C530 1.252 . S
C523 O526 1.252 . S
C523 O527 1.260 . S
C524 O531 1.240 . S
C524 O532 1.252 . S
C525 O528 1.252 . S
C525 O529 1.260 . S
O526 In520 2.266 . S
O526 C523 1.252 . S
O527 In520 2.326 . S
O527 C523 1.260 . S
O528 In520 2.266 . S
O528 C525 1.252 . S
O529 In520 2.326 . S
O529 C525 1.260 . S
C530 O521 1.240 . S
C530 O522 1.252 . S
O531 In520 2.294 . S
O531 C524 1.240 . S
O532 In520 2.326 . S
O532 C524 1.252 . S
In533 O534 2.294 . S
In533 O535 2.326 . S
In533 O539 2.266 . S
In533 O540 2.326 . S
In533 O541 2.266 . S
In533 O542 2.326 . S
In533 O544 2.294 . S
In533 O545 2.326 . S
O534 In533 2.294 . S
O534 C543 1.240 . S
O535 In533 2.326 . S
O535 C543 1.252 . S
C536 O539 1.252 . S
C536 O540 1.260 . S
C537 O544 1.240 . S
C537 O545 1.252 . S
C538 O541 1.252 . S
C538 O542 1.260 . S
O539 In533 2.266 . S
O539 C536 1.252 . S
O540 In533 2.326 . S
O540 C536 1.260 . S
O541 In533 2.266 . S
O541 C538 1.252 . S
O542 In533 2.326 . S
O542 C538 1.260 . S
C543 O534 1.240 . S
C543 O535 1.252 . S
O544 In533 2.294 . S
O544 C537 1.240 . S
O545 In533 2.326 . S
O545 C537 1.252 . S
In546 O547 2.294 . S
In546 O548 2.326 . S
In546 O552 2.266 . S
In546 O553 2.326 . S
In546 O554 2.266 . S
In546 O555 2.326 . S
In546 O557 2.294 . S
In546 O558 2.326 . S
O547 In546 2.294 . S
O547 C556 1.240 . S
O548 In546 2.326 . S
O548 C556 1.252 . S
C549 O552 1.252 . S
C549 O553 1.260 . S
C550 O557 1.240 . S
C550 O558 1.252 . S
C551 O554 1.252 . S
C551 O555 1.260 . S
O552 In546 2.266 . S
O552 C549 1.252 . S
O553 In546 2.326 . S
O553 C549 1.260 . S
O554 In546 2.266 . S
O554 C551 1.252 . S
O555 In546 2.326 . S
O555 C551 1.260 . S
C556 O547 1.240 . S
C556 O548 1.252 . S
O557 In546 2.294 . S
O557 C550 1.240 . S
O558 In546 2.326 . S
O558 C550 1.252 . S
In559 O560 2.294 . S
In559 O561 2.326 . S
In559 O565 2.266 . S
In559 O566 2.326 . S
In559 O567 2.266 . S
In559 O568 2.326 . S
In559 O570 2.294 . S
In559 O571 2.326 . S
O560 In559 2.294 . S
O560 C569 1.240 . S
O561 In559 2.326 . S
O561 C569 1.252 . S
C562 O565 1.252 . S
C562 O566 1.260 . S
C563 O570 1.240 . S
C563 O571 1.252 . S
C564 O567 1.252 . S
C564 O568 1.260 . S
O565 In559 2.266 . S
O565 C562 1.252 . S
O566 In559 2.326 . S
O566 C562 1.260 . S
O567 In559 2.266 . S
O567 C564 1.252 . S
O568 In559 2.326 . S
O568 C564 1.260 . S
C569 O560 1.240 . S
C569 O561 1.252 . S
O570 In559 2.294 . S
O570 C563 1.240 . S
O571 In559 2.326 . S
O571 C563 1.252 . S
In572 O573 2.294 . S
In572 O574 2.326 . S
In572 O578 2.266 . S
In572 O579 2.326 . S
In572 O580 2.266 . S
In572 O581 2.326 . S
In572 O583 2.294 . S
In572 O584 2.326 . S
O573 In572 2.294 . S
O573 C582 1.240 . S
O574 In572 2.326 . S
O574 C582 1.252 . S
C575 O578 1.252 . S
C575 O579 1.260 . S
C576 O583 1.240 . S
C576 O584 1.252 . S
C577 O580 1.252 . S
C577 O581 1.260 . S
O578 In572 2.266 . S
O578 C575 1.252 . S
O579 In572 2.326 . S
O579 C575 1.260 . S
O580 In572 2.266 . S
O580 C577 1.252 . S
O581 In572 2.326 . S
O581 C577 1.260 . S
C582 O573 1.240 . S
C582 O574 1.252 . S
O583 In572 2.294 . S
O583 C576 1.240 . S
O584 In572 2.326 . S
O584 C576 1.252 . S
In585 O586 2.294 . S
In585 O587 2.326 . S
In585 O591 2.266 . S
In585 O592 2.326 . S
In585 O593 2.266 . S
In585 O594 2.326 . S
In585 O596 2.294 . S
In585 O597 2.326 . S
O586 In585 2.294 . S
O586 C595 1.240 . S
O587 In585 2.326 . S
O587 C595 1.252 . S
C588 O591 1.252 . S
C588 O592 1.260 . S
C589 O596 1.240 . S
C589 O597 1.252 . S
C590 O593 1.252 . S
C590 O594 1.260 . S
O591 In585 2.266 . S
O591 C588 1.252 . S
O592 In585 2.326 . S
O592 C588 1.260 . S
O593 In585 2.266 . S
O593 C590 1.252 . S
O594 In585 2.326 . S
O594 C590 1.260 . S
C595 O586 1.240 . S
C595 O587 1.252 . S
O596 In585 2.294 . S
O596 C589 1.240 . S
O597 In585 2.326 . S
O597 C589 1.252 . S
In598 O599 2.294 . S
In598 O600 2.326 . S
In598 O604 2.266 . S
In598 O605 2.326 . S
In598 O606 2.266 . S
In598 O607 2.326 . S
In598 O609 2.294 . S
In598 O610 2.326 . S
O599 In598 2.294 . S
O599 C608 1.240 . S
O600 In598 2.326 . S
O600 C608 1.252 . S
C601 O604 1.252 . S
C601 O605 1.260 . S
C602 O609 1.240 . S
C602 O610 1.252 . S
C603 O606 1.252 . S
C603 O607 1.260 . S
O604 In598 2.266 . S
O604 C601 1.252 . S
O605 In598 2.326 . S
O605 C601 1.260 . S
O606 In598 2.266 . S
O606 C603 1.252 . S
O607 In598 2.326 . S
O607 C603 1.260 . S
C608 O599 1.240 . S
C608 O600 1.252 . S
O609 In598 2.294 . S
O609 C602 1.240 . S
O610 In598 2.326 . S
O610 C602 1.252 . S
In611 O612 2.294 . S
In611 O613 2.326 . S
In611 O617 2.266 . S
In611 O618 2.326 . S
In611 O619 2.266 . S
In611 O620 2.326 . S
In611 O622 2.294 . S
In611 O623 2.326 . S
O612 In611 2.294 . S
O612 C621 1.240 . S
O613 In611 2.326 . S
O613 C621 1.252 . S
C614 O617 1.252 . S
C614 O618 1.260 . S
C615 O622 1.240 . S
C615 O623 1.252 . S
C616 O619 1.252 . S
C616 O620 1.260 . S
O617 In611 2.266 . S
O617 C614 1.252 . S
O618 In611 2.326 . S
O618 C614 1.260 . S
O619 In611 2.266 . S
O619 C616 1.252 . S
O620 In611 2.326 . S
O620 C616 1.260 . S
C621 O612 1.240 . S
C621 O613 1.252 . S
O622 In611 2.294 . S
O622 C615 1.240 . S
O623 In611 2.326 . S
O623 C615 1.252 . S
In624 O625 2.294 . S
In624 O626 2.326 . S
In624 O630 2.266 . S
In624 O631 2.326 . S
In624 O632 2.266 . S
In624 O633 2.326 . S
In624 O635 2.294 . S
In624 O636 2.326 . S
O625 In624 2.294 . S
O625 C634 1.240 . S
O626 In624 2.326 . S
O626 C634 1.252 . S
C627 O630 1.252 . S
C627 O631 1.260 . S
C628 O635 1.240 . S
C628 O636 1.252 . S
C629 O632 1.252 . S
C629 O633 1.260 . S
O630 In624 2.266 . S
O630 C627 1.252 . S
O631 In624 2.326 . S
O631 C627 1.260 . S
O632 In624 2.266 . S
O632 C629 1.252 . S
O633 In624 2.326 . S
O633 C629 1.260 . S
C634 O625 1.240 . S
C634 O626 1.252 . S
O635 In624 2.294 . S
O635 C628 1.240 . S
O636 In624 2.326 . S
O636 C628 1.252 . S
In637 O638 2.294 . S
In637 O639 2.326 . S
In637 O643 2.266 . S
In637 O644 2.326 . S
In637 O645 2.266 . S
In637 O646 2.326 . S
In637 O648 2.294 . S
In637 O649 2.326 . S
O638 In637 2.294 . S
O638 C647 1.240 . S
O639 In637 2.326 . S
O639 C647 1.252 . S
C640 O643 1.252 . S
C640 O644 1.260 . S
C641 O648 1.240 . S
C641 O649 1.252 . S
C642 O645 1.252 . S
C642 O646 1.260 . S
O643 In637 2.266 . S
O643 C640 1.252 . S
O644 In637 2.326 . S
O644 C640 1.260 . S
O645 In637 2.266 . S
O645 C642 1.252 . S
O646 In637 2.326 . S
O646 C642 1.260 . S
C647 O638 1.240 . S
C647 O639 1.252 . S
O648 In637 2.294 . S
O648 C641 1.240 . S
O649 In637 2.326 . S
O649 C641 1.252 . S
In650 O651 2.294 . S
In650 O652 2.326 . S
In650 O656 2.266 . S
In650 O657 2.326 . S
In650 O658 2.266 . S
In650 O659 2.326 . S
In650 O661 2.294 . S
In650 O662 2.326 . S
O651 In650 2.294 . S
O651 C660 1.240 . S
O652 In650 2.326 . S
O652 C660 1.252 . S
C653 O656 1.252 . S
C653 O657 1.260 . S
C654 O661 1.240 . S
C654 O662 1.252 . S
C655 O658 1.252 . S
C655 O659 1.260 . S
O656 In650 2.266 . S
O656 C653 1.252 . S
O657 In650 2.326 . S
O657 C653 1.260 . S
O658 In650 2.266 . S
O658 C655 1.252 . S
O659 In650 2.326 . S
O659 C655 1.260 . S
C660 O651 1.240 . S
C660 O652 1.252 . S
O661 In650 2.294 . S
O661 C654 1.240 . S
O662 In650 2.326 . S
O662 C654 1.252 . S
In663 O664 2.294 . S
In663 O665 2.326 . S
In663 O669 2.266 . S
In663 O670 2.326 . S
In663 O671 2.266 . S
In663 O672 2.326 . S
In663 O674 2.294 . S
In663 O675 2.326 . S
O664 In663 2.294 . S
O664 C673 1.240 . S
O665 In663 2.326 . S
O665 C673 1.252 . S
C666 O669 1.252 . S
C666 O670 1.260 . S
C667 O674 1.240 . S
C667 O675 1.252 . S
C668 O671 1.252 . S
C668 O672 1.260 . S
O669 In663 2.266 . S
O669 C666 1.252 . S
O670 In663 2.326 . S
O670 C666 1.260 . S
O671 In663 2.266 . S
O671 C668 1.252 . S
O672 In663 2.326 . S
O672 C668 1.260 . S
C673 O664 1.240 . S
C673 O665 1.252 . S
O674 In663 2.294 . S
O674 C667 1.240 . S
O675 In663 2.326 . S
O675 C667 1.252 . S
In676 O677 2.294 . S
In676 O678 2.326 . S
In676 O682 2.266 . S
In676 O683 2.326 . S
In676 O684 2.266 . S
In676 O685 2.326 . S
In676 O687 2.294 . S
In676 O688 2.326 . S
O677 In676 2.294 . S
O677 C686 1.240 . S
O678 In676 2.326 . S
O678 C686 1.252 . S
C679 O682 1.252 . S
C679 O683 1.260 . S
C680 O687 1.240 . S
C680 O688 1.252 . S
C681 O684 1.252 . S
C681 O685 1.260 . S
O682 In676 2.266 . S
O682 C679 1.252 . S
O683 In676 2.326 . S
O683 C679 1.260 . S
O684 In676 2.266 . S
O684 C681 1.252 . S
O685 In676 2.326 . S
O685 C681 1.260 . S
C686 O677 1.240 . S
C686 O678 1.252 . S
O687 In676 2.294 . S
O687 C680 1.240 . S
O688 In676 2.326 . S
O688 C680 1.252 . S
In689 O690 2.294 . S
In689 O691 2.326 . S
In689 O695 2.266 . S
In689 O696 2.326 . S
In689 O697 2.266 . S
In689 O698 2.326 . S
In689 O700 2.294 . S
In689 O701 2.326 . S
O690 In689 2.294 . S
O690 C699 1.240 . S
O691 In689 2.326 . S
O691 C699 1.252 . S
C692 O695 1.252 . S
C692 O696 1.260 . S
C693 O700 1.240 . S
C693 O701 1.252 . S
C694 O697 1.252 . S
C694 O698 1.260 . S
O695 In689 2.266 . S
O695 C692 1.252 . S
O696 In689 2.326 . S
O696 C692 1.260 . S
O697 In689 2.266 . S
O697 C694 1.252 . S
O698 In689 2.326 . S
O698 C694 1.260 . S
C699 O690 1.240 . S
C699 O691 1.252 . S
O700 In689 2.294 . S
O700 C693 1.240 . S
O701 In689 2.326 . S
O701 C693 1.252 . S
In702 O703 2.294 . S
In702 O704 2.326 . S
In702 O708 2.266 . S
In702 O709 2.326 . S
In702 O710 2.266 . S
In702 O711 2.326 . S
In702 O713 2.294 . S
In702 O714 2.326 . S
O703 In702 2.294 . S
O703 C712 1.240 . S
O704 In702 2.326 . S
O704 C712 1.252 . S
C705 O708 1.252 . S
C705 O709 1.260 . S
C706 O713 1.240 . S
C706 O714 1.252 . S
C707 O710 1.252 . S
C707 O711 1.260 . S
O708 In702 2.266 . S
O708 C705 1.252 . S
O709 In702 2.326 . S
O709 C705 1.260 . S
O710 In702 2.266 . S
O710 C707 1.252 . S
O711 In702 2.326 . S
O711 C707 1.260 . S
C712 O703 1.240 . S
C712 O704 1.252 . S
O713 In702 2.294 . S
O713 C706 1.240 . S
O714 In702 2.326 . S
O714 C706 1.252 . S
In715 O716 2.294 . S
In715 O717 2.326 . S
In715 O721 2.266 . S
In715 O722 2.326 . S
In715 O723 2.266 . S
In715 O724 2.326 . S
In715 O726 2.294 . S
In715 O727 2.326 . S
O716 In715 2.294 . S
O716 C725 1.240 . S
O717 In715 2.326 . S
O717 C725 1.252 . S
C718 O721 1.252 . S
C718 O722 1.260 . S
C719 O726 1.240 . S
C719 O727 1.252 . S
C720 O723 1.252 . S
C720 O724 1.260 . S
O721 In715 2.266 . S
O721 C718 1.252 . S
O722 In715 2.326 . S
O722 C718 1.260 . S
O723 In715 2.266 . S
O723 C720 1.252 . S
O724 In715 2.326 . S
O724 C720 1.260 . S
C725 O716 1.240 . S
C725 O717 1.252 . S
O726 In715 2.294 . S
O726 C719 1.240 . S
O727 In715 2.326 . S
O727 C719 1.252 . S
In728 O729 2.294 . S
In728 O730 2.326 . S
In728 O734 2.266 . S
In728 O735 2.326 . S
In728 O736 2.266 . S
In728 O737 2.326 . S
In728 O739 2.294 . S
In728 O740 2.326 . S
O729 In728 2.294 . S
O729 C738 1.240 . S
O730 In728 2.326 . S
O730 C738 1.252 . S
C731 O734 1.252 . S
C731 O735 1.260 . S
C732 O739 1.240 . S
C732 O740 1.252 . S
C733 O736 1.252 . S
C733 O737 1.260 . S
O734 In728 2.266 . S
O734 C731 1.252 . S
O735 In728 2.326 . S
O735 C731 1.260 . S
O736 In728 2.266 . S
O736 C733 1.252 . S
O737 In728 2.326 . S
O737 C733 1.260 . S
C738 O729 1.240 . S
C738 O730 1.252 . S
O739 In728 2.294 . S
O739 C732 1.240 . S
O740 In728 2.326 . S
O740 C732 1.252 . S
In741 O742 2.294 . S
In741 O743 2.326 . S
In741 O747 2.266 . S
In741 O748 2.326 . S
In741 O749 2.266 . S
In741 O750 2.326 . S
In741 O752 2.294 . S
In741 O753 2.326 . S
O742 In741 2.294 . S
O742 C751 1.240 . S
O743 In741 2.326 . S
O743 C751 1.252 . S
C744 O747 1.252 . S
C744 O748 1.260 . S
C745 O752 1.240 . S
C745 O753 1.252 . S
C746 O749 1.252 . S
C746 O750 1.260 . S
O747 In741 2.266 . S
O747 C744 1.252 . S
O748 In741 2.326 . S
O748 C744 1.260 . S
O749 In741 2.266 . S
O749 C746 1.252 . S
O750 In741 2.326 . S
O750 C746 1.260 . S
C751 O742 1.240 . S
C751 O743 1.252 . S
O752 In741 2.294 . S
O752 C745 1.240 . S
O753 In741 2.326 . S
O753 C745 1.252 . S
In754 O755 2.294 . S
In754 O756 2.326 . S
In754 O760 2.266 . S
In754 O761 2.326 . S
In754 O762 2.266 . S
In754 O763 2.326 . S
In754 O765 2.294 . S
In754 O766 2.326 . S
O755 In754 2.294 . S
O755 C764 1.240 . S
O756 In754 2.326 . S
O756 C764 1.252 . S
C757 O760 1.252 . S
C757 O761 1.260 . S
C758 O765 1.240 . S
C758 O766 1.252 . S
C759 O762 1.252 . S
C759 O763 1.260 . S
O760 In754 2.266 . S
O760 C757 1.252 . S
O761 In754 2.326 . S
O761 C757 1.260 . S
O762 In754 2.266 . S
O762 C759 1.252 . S
O763 In754 2.326 . S
O763 C759 1.260 . S
C764 O755 1.240 . S
C764 O756 1.252 . S
O765 In754 2.294 . S
O765 C758 1.240 . S
O766 In754 2.326 . S
O766 C758 1.252 . S
In767 O768 2.294 . S
In767 O769 2.326 . S
In767 O773 2.266 . S
In767 O774 2.326 . S
In767 O775 2.266 . S
In767 O776 2.326 . S
In767 O778 2.294 . S
In767 O779 2.326 . S
O768 In767 2.294 . S
O768 C777 1.240 . S
O769 In767 2.326 . S
O769 C777 1.252 . S
C770 O773 1.252 . S
C770 O774 1.260 . S
C771 O778 1.240 . S
C771 O779 1.252 . S
C772 O775 1.252 . S
C772 O776 1.260 . S
O773 In767 2.266 . S
O773 C770 1.252 . S
O774 In767 2.326 . S
O774 C770 1.260 . S
O775 In767 2.266 . S
O775 C772 1.252 . S
O776 In767 2.326 . S
O776 C772 1.260 . S
C777 O768 1.240 . S
C777 O769 1.252 . S
O778 In767 2.294 . S
O778 C771 1.240 . S
O779 In767 2.326 . S
O779 C771 1.252 . S
In780 O781 2.294 . S
In780 O782 2.326 . S
In780 O786 2.266 . S
In780 O787 2.326 . S
In780 O788 2.266 . S
In780 O789 2.326 . S
In780 O791 2.294 . S
In780 O792 2.326 . S
O781 In780 2.294 . S
O781 C790 1.240 . S
O782 In780 2.326 . S
O782 C790 1.252 . S
C783 O786 1.252 . S
C783 O787 1.260 . S
C784 O791 1.240 . S
C784 O792 1.252 . S
C785 O788 1.252 . S
C785 O789 1.260 . S
O786 In780 2.266 . S
O786 C783 1.252 . S
O787 In780 2.326 . S
O787 C783 1.260 . S
O788 In780 2.266 . S
O788 C785 1.252 . S
O789 In780 2.326 . S
O789 C785 1.260 . S
C790 O781 1.240 . S
C790 O782 1.252 . S
O791 In780 2.294 . S
O791 C784 1.240 . S
O792 In780 2.326 . S
O792 C784 1.252 . S
In793 O794 2.294 . S
In793 O795 2.326 . S
In793 O799 2.266 . S
In793 O800 2.326 . S
In793 O801 2.266 . S
In793 O802 2.326 . S
In793 O804 2.294 . S
In793 O805 2.326 . S
O794 In793 2.294 . S
O794 C803 1.240 . S
O795 In793 2.326 . S
O795 C803 1.252 . S
C796 O799 1.252 . S
C796 O800 1.260 . S
C797 O804 1.240 . S
C797 O805 1.252 . S
C798 O801 1.252 . S
C798 O802 1.260 . S
O799 In793 2.266 . S
O799 C796 1.252 . S
O800 In793 2.326 . S
O800 C796 1.260 . S
O801 In793 2.266 . S
O801 C798 1.252 . S
O802 In793 2.326 . S
O802 C798 1.260 . S
C803 O794 1.240 . S
C803 O795 1.252 . S
O804 In793 2.294 . S
O804 C797 1.240 . S
O805 In793 2.326 . S
O805 C797 1.252 . S
In806 O807 2.294 . S
In806 O808 2.326 . S
In806 O812 2.266 . S
In806 O813 2.326 . S
In806 O814 2.266 . S
In806 O815 2.326 . S
In806 O817 2.294 . S
In806 O818 2.326 . S
O807 In806 2.294 . S
O807 C816 1.240 . S
O808 In806 2.326 . S
O808 C816 1.252 . S
C809 O812 1.252 . S
C809 O813 1.260 . S
C810 O817 1.240 . S
C810 O818 1.252 . S
C811 O814 1.252 . S
C811 O815 1.260 . S
O812 In806 2.266 . S
O812 C809 1.252 . S
O813 In806 2.326 . S
O813 C809 1.260 . S
O814 In806 2.266 . S
O814 C811 1.252 . S
O815 In806 2.326 . S
O815 C811 1.260 . S
C816 O807 1.240 . S
C816 O808 1.252 . S
O817 In806 2.294 . S
O817 C810 1.240 . S
O818 In806 2.326 . S
O818 C810 1.252 . S
In819 O820 2.294 . S
In819 O821 2.326 . S
In819 O825 2.266 . S
In819 O826 2.326 . S
In819 O827 2.266 . S
In819 O828 2.326 . S
In819 O830 2.294 . S
In819 O831 2.326 . S
O820 In819 2.294 . S
O820 C829 1.240 . S
O821 In819 2.326 . S
O821 C829 1.252 . S
C822 O825 1.252 . S
C822 O826 1.260 . S
C823 O830 1.240 . S
C823 O831 1.252 . S
C824 O827 1.252 . S
C824 O828 1.260 . S
O825 In819 2.266 . S
O825 C822 1.252 . S
O826 In819 2.326 . S
O826 C822 1.260 . S
O827 In819 2.266 . S
O827 C824 1.252 . S
O828 In819 2.326 . S
O828 C824 1.260 . S
C829 O820 1.240 . S
C829 O821 1.252 . S
O830 In819 2.294 . S
O830 C823 1.240 . S
O831 In819 2.326 . S
O831 C823 1.252 . S
In832 O833 2.294 . S
In832 O834 2.326 . S
In832 O838 2.266 . S
In832 O839 2.326 . S
In832 O840 2.266 . S
In832 O841 2.326 . S
In832 O843 2.294 . S
In832 O844 2.326 . S
O833 In832 2.294 . S
O833 C842 1.240 . S
O834 In832 2.326 . S
O834 C842 1.252 . S
C835 O838 1.252 . S
C835 O839 1.260 . S
C836 O843 1.240 . S
C836 O844 1.252 . S
C837 O840 1.252 . S
C837 O841 1.260 . S
O838 In832 2.266 . S
O838 C835 1.252 . S
O839 In832 2.326 . S
O839 C835 1.260 . S
O840 In832 2.266 . S
O840 C837 1.252 . S
O841 In832 2.326 . S
O841 C837 1.260 . S
C842 O833 1.240 . S
C842 O834 1.252 . S
O843 In832 2.294 . S
O843 C836 1.240 . S
O844 In832 2.326 . S
O844 C836 1.252 . S
In845 O846 2.294 . S
In845 O847 2.326 . S
In845 O851 2.266 . S
In845 O852 2.326 . S
In845 O853 2.266 . S
In845 O854 2.326 . S
In845 O856 2.294 . S
In845 O857 2.326 . S
O846 In845 2.294 . S
O846 C855 1.240 . S
O847 In845 2.326 . S
O847 C855 1.252 . S
C848 O851 1.252 . S
C848 O852 1.260 . S
C849 O856 1.240 . S
C849 O857 1.252 . S
C850 O853 1.252 . S
C850 O854 1.260 . S
O851 In845 2.266 . S
O851 C848 1.252 . S
O852 In845 2.326 . S
O852 C848 1.260 . S
O853 In845 2.266 . S
O853 C850 1.252 . S
O854 In845 2.326 . S
O854 C850 1.260 . S
C855 O846 1.240 . S
C855 O847 1.252 . S
O856 In845 2.294 . S
O856 C849 1.240 . S
O857 In845 2.326 . S
O857 C849 1.252 . S
In858 O859 2.294 . S
In858 O860 2.326 . S
In858 O864 2.266 . S
In858 O865 2.326 . S
In858 O866 2.266 . S
In858 O867 2.326 . S
In858 O869 2.294 . S
In858 O870 2.326 . S
O859 In858 2.294 . S
O859 C868 1.240 . S
O860 In858 2.326 . S
O860 C868 1.252 . S
C861 O864 1.252 . S
C861 O865 1.260 . S
C862 O869 1.240 . S
C862 O870 1.252 . S
C863 O866 1.252 . S
C863 O867 1.260 . S
O864 In858 2.266 . S
O864 C861 1.252 . S
O865 In858 2.326 . S
O865 C861 1.260 . S
O866 In858 2.266 . S
O866 C863 1.252 . S
O867 In858 2.326 . S
O867 C863 1.260 . S
C868 O859 1.240 . S
C868 O860 1.252 . S
O869 In858 2.294 . S
O869 C862 1.240 . S
O870 In858 2.326 . S
O870 C862 1.252 . S
In871 O872 2.294 . S
In871 O873 2.326 . S
In871 O877 2.266 . S
In871 O878 2.326 . S
In871 O879 2.266 . S
In871 O880 2.326 . S
In871 O882 2.294 . S
In871 O883 2.326 . S
O872 In871 2.294 . S
O872 C881 1.240 . S
O873 In871 2.326 . S
O873 C881 1.252 . S
C874 O877 1.252 . S
C874 O878 1.260 . S
C875 O882 1.240 . S
C875 O883 1.252 . S
C876 O879 1.252 . S
C876 O880 1.260 . S
O877 In871 2.266 . S
O877 C874 1.252 . S
O878 In871 2.326 . S
O878 C874 1.260 . S
O879 In871 2.266 . S
O879 C876 1.252 . S
O880 In871 2.326 . S
O880 C876 1.260 . S
C881 O872 1.240 . S
C881 O873 1.252 . S
O882 In871 2.294 . S
O882 C875 1.240 . S
O883 In871 2.326 . S
O883 C875 1.252 . S
In884 O885 2.294 . S
In884 O886 2.326 . S
In884 O890 2.266 . S
In884 O891 2.326 . S
In884 O892 2.266 . S
In884 O893 2.326 . S
In884 O895 2.294 . S
In884 O896 2.326 . S
O885 In884 2.294 . S
O885 C894 1.240 . S
O886 In884 2.326 . S
O886 C894 1.252 . S
C887 O890 1.252 . S
C887 O891 1.260 . S
C888 O895 1.240 . S
C888 O896 1.252 . S
C889 O892 1.252 . S
C889 O893 1.260 . S
O890 In884 2.266 . S
O890 C887 1.252 . S
O891 In884 2.326 . S
O891 C887 1.260 . S
O892 In884 2.266 . S
O892 C889 1.252 . S
O893 In884 2.326 . S
O893 C889 1.260 . S
C894 O885 1.240 . S
C894 O886 1.252 . S
O895 In884 2.294 . S
O895 C888 1.240 . S
O896 In884 2.326 . S
O896 C888 1.252 . S
In897 O898 2.294 . S
In897 O899 2.326 . S
In897 O903 2.266 . S
In897 O904 2.326 . S
In897 O905 2.266 . S
In897 O906 2.326 . S
In897 O908 2.294 . S
In897 O909 2.326 . S
O898 In897 2.294 . S
O898 C907 1.240 . S
O899 In897 2.326 . S
O899 C907 1.252 . S
C900 O903 1.252 . S
C900 O904 1.260 . S
C901 O908 1.240 . S
C901 O909 1.252 . S
C902 O905 1.252 . S
C902 O906 1.260 . S
O903 In897 2.266 . S
O903 C900 1.252 . S
O904 In897 2.326 . S
O904 C900 1.260 . S
O905 In897 2.266 . S
O905 C902 1.252 . S
O906 In897 2.326 . S
O906 C902 1.260 . S
C907 O898 1.240 . S
C907 O899 1.252 . S
O908 In897 2.294 . S
O908 C901 1.240 . S
O909 In897 2.326 . S
O909 C901 1.252 . S
In910 O911 2.294 . S
In910 O912 2.326 . S
In910 O916 2.266 . S
In910 O917 2.326 . S
In910 O918 2.266 . S
In910 O919 2.326 . S
In910 O921 2.294 . S
In910 O922 2.326 . S
O911 In910 2.294 . S
O911 C920 1.240 . S
O912 In910 2.326 . S
O912 C920 1.252 . S
C913 O916 1.252 . S
C913 O917 1.260 . S
C914 O921 1.240 . S
C914 O922 1.252 . S
C915 O918 1.252 . S
C915 O919 1.260 . S
O916 In910 2.266 . S
O916 C913 1.252 . S
O917 In910 2.326 . S
O917 C913 1.260 . S
O918 In910 2.266 . S
O918 C915 1.252 . S
O919 In910 2.326 . S
O919 C915 1.260 . S
C920 O911 1.240 . S
C920 O912 1.252 . S
O921 In910 2.294 . S
O921 C914 1.240 . S
O922 In910 2.326 . S
O922 C914 1.252 . S
In923 O924 2.294 . S
In923 O925 2.326 . S
In923 O929 2.266 . S
In923 O930 2.326 . S
In923 O931 2.266 . S
In923 O932 2.326 . S
In923 O934 2.294 . S
In923 O935 2.326 . S
O924 In923 2.294 . S
O924 C933 1.240 . S
O925 In923 2.326 . S
O925 C933 1.252 . S
C926 O929 1.252 . S
C926 O930 1.260 . S
C927 O934 1.240 . S
C927 O935 1.252 . S
C928 O931 1.252 . S
C928 O932 1.260 . S
O929 In923 2.266 . S
O929 C926 1.252 . S
O930 In923 2.326 . S
O930 C926 1.260 . S
O931 In923 2.266 . S
O931 C928 1.252 . S
O932 In923 2.326 . S
O932 C928 1.260 . S
C933 O924 1.240 . S
C933 O925 1.252 . S
O934 In923 2.294 . S
O934 C927 1.240 . S
O935 In923 2.326 . S
O935 C927 1.252 . S
In936 O937 2.294 . S
In936 O938 2.326 . S
In936 O942 2.266 . S
In936 O943 2.326 . S
In936 O944 2.266 . S
In936 O945 2.326 . S
In936 O947 2.294 . S
In936 O948 2.326 . S
O937 In936 2.294 . S
O937 C946 1.240 . S
O938 In936 2.326 . S
O938 C946 1.252 . S
C939 O942 1.252 . S
C939 O943 1.260 . S
C940 O947 1.240 . S
C940 O948 1.252 . S
C941 O944 1.252 . S
C941 O945 1.260 . S
O942 In936 2.266 . S
O942 C939 1.252 . S
O943 In936 2.326 . S
O943 C939 1.260 . S
O944 In936 2.266 . S
O944 C941 1.252 . S
O945 In936 2.326 . S
O945 C941 1.260 . S
C946 O937 1.240 . S
C946 O938 1.252 . S
O947 In936 2.294 . S
O947 C940 1.240 . S
O948 In936 2.326 . S
O948 C940 1.252 . S
In949 O950 2.294 . S
In949 O951 2.326 . S
In949 O955 2.266 . S
In949 O956 2.326 . S
In949 O957 2.266 . S
In949 O958 2.326 . S
In949 O960 2.294 . S
In949 O961 2.326 . S
O950 In949 2.294 . S
O950 C959 1.240 . S
O951 In949 2.326 . S
O951 C959 1.252 . S
C952 O955 1.252 . S
C952 O956 1.260 . S
C953 O960 1.240 . S
C953 O961 1.252 . S
C954 O957 1.252 . S
C954 O958 1.260 . S
O955 In949 2.266 . S
O955 C952 1.252 . S
O956 In949 2.326 . S
O956 C952 1.260 . S
O957 In949 2.266 . S
O957 C954 1.252 . S
O958 In949 2.326 . S
O958 C954 1.260 . S
C959 O950 1.240 . S
C959 O951 1.252 . S
O960 In949 2.294 . S
O960 C953 1.240 . S
O961 In949 2.326 . S
O961 C953 1.252 . S
In962 O963 2.294 . S
In962 O964 2.326 . S
In962 O968 2.266 . S
In962 O969 2.326 . S
In962 O970 2.266 . S
In962 O971 2.326 . S
In962 O973 2.294 . S
In962 O974 2.326 . S
O963 In962 2.294 . S
O963 C972 1.240 . S
O964 In962 2.326 . S
O964 C972 1.252 . S
C965 O968 1.252 . S
C965 O969 1.260 . S
C966 O973 1.240 . S
C966 O974 1.252 . S
C967 O970 1.252 . S
C967 O971 1.260 . S
O968 In962 2.266 . S
O968 C965 1.252 . S
O969 In962 2.326 . S
O969 C965 1.260 . S
O970 In962 2.266 . S
O970 C967 1.252 . S
O971 In962 2.326 . S
O971 C967 1.260 . S
C972 O963 1.240 . S
C972 O964 1.252 . S
O973 In962 2.294 . S
O973 C966 1.240 . S
O974 In962 2.326 . S
O974 C966 1.252 . S
In975 O976 2.294 . S
In975 O977 2.326 . S
In975 O981 2.266 . S
In975 O982 2.326 . S
In975 O983 2.266 . S
In975 O984 2.326 . S
In975 O986 2.294 . S
In975 O987 2.326 . S
O976 In975 2.294 . S
O976 C985 1.240 . S
O977 In975 2.326 . S
O977 C985 1.252 . S
C978 O981 1.252 . S
C978 O982 1.260 . S
C979 O986 1.240 . S
C979 O987 1.252 . S
C980 O983 1.252 . S
C980 O984 1.260 . S
O981 In975 2.266 . S
O981 C978 1.252 . S
O982 In975 2.326 . S
O982 C978 1.260 . S
O983 In975 2.266 . S
O983 C980 1.252 . S
O984 In975 2.326 . S
O984 C980 1.260 . S
C985 O976 1.240 . S
C985 O977 1.252 . S
O986 In975 2.294 . S
O986 C979 1.240 . S
O987 In975 2.326 . S
O987 C979 1.252 . S
In988 O989 2.294 . S
In988 O990 2.326 . S
In988 O994 2.266 . S
In988 O995 2.326 . S
In988 O996 2.266 . S
In988 O997 2.326 . S
In988 O999 2.294 . S
In988 O1000 2.326 . S
O989 In988 2.294 . S
O989 C998 1.240 . S
O990 In988 2.326 . S
O990 C998 1.252 . S
C991 O994 1.252 . S
C991 O995 1.260 . S
C992 O999 1.240 . S
C992 O1000 1.252 . S
C993 O996 1.252 . S
C993 O997 1.260 . S
O994 In988 2.266 . S
O994 C991 1.252 . S
O995 In988 2.326 . S
O995 C991 1.260 . S
O996 In988 2.266 . S
O996 C993 1.252 . S
O997 In988 2.326 . S
O997 C993 1.260 . S
C998 O989 1.240 . S
C998 O990 1.252 . S
O999 In988 2.294 . S
O999 C992 1.240 . S
O1000 In988 2.326 . S
O1000 C992 1.252 . S
In1001 O1002 2.294 . S
In1001 O1003 2.326 . S
In1001 O1007 2.266 . S
In1001 O1008 2.326 . S
In1001 O1009 2.266 . S
In1001 O1010 2.326 . S
In1001 O1012 2.294 . S
In1001 O1013 2.326 . S
O1002 In1001 2.294 . S
O1002 C1011 1.240 . S
O1003 In1001 2.326 . S
O1003 C1011 1.252 . S
C1004 O1007 1.252 . S
C1004 O1008 1.260 . S
C1005 O1012 1.240 . S
C1005 O1013 1.252 . S
C1006 O1009 1.252 . S
C1006 O1010 1.260 . S
O1007 In1001 2.266 . S
O1007 C1004 1.252 . S
O1008 In1001 2.326 . S
O1008 C1004 1.260 . S
O1009 In1001 2.266 . S
O1009 C1006 1.252 . S
O1010 In1001 2.326 . S
O1010 C1006 1.260 . S
C1011 O1002 1.240 . S
C1011 O1003 1.252 . S
O1012 In1001 2.294 . S
O1012 C1005 1.240 . S
O1013 In1001 2.326 . S
O1013 C1005 1.252 . S
In1014 O1015 2.294 . S
In1014 O1016 2.326 . S
In1014 O1020 2.266 . S
In1014 O1021 2.326 . S
In1014 O1022 2.266 . S
In1014 O1023 2.326 . S
In1014 O1025 2.294 . S
In1014 O1026 2.326 . S
O1015 In1014 2.294 . S
O1015 C1024 1.240 . S
O1016 In1014 2.326 . S
O1016 C1024 1.252 . S
C1017 O1020 1.252 . S
C1017 O1021 1.260 . S
C1018 O1025 1.240 . S
C1018 O1026 1.252 . S
C1019 O1022 1.252 . S
C1019 O1023 1.260 . S
O1020 In1014 2.266 . S
O1020 C1017 1.252 . S
O1021 In1014 2.326 . S
O1021 C1017 1.260 . S
O1022 In1014 2.266 . S
O1022 C1019 1.252 . S
O1023 In1014 2.326 . S
O1023 C1019 1.260 . S
C1024 O1015 1.240 . S
C1024 O1016 1.252 . S
O1025 In1014 2.294 . S
O1025 C1018 1.240 . S
O1026 In1014 2.326 . S
O1026 C1018 1.252 . S
In1027 O1028 2.294 . S
In1027 O1029 2.326 . S
In1027 O1033 2.266 . S
In1027 O1034 2.326 . S
In1027 O1035 2.266 . S
In1027 O1036 2.326 . S
In1027 O1038 2.294 . S
In1027 O1039 2.326 . S
O1028 In1027 2.294 . S
O1028 C1037 1.240 . S
O1029 In1027 2.326 . S
O1029 C1037 1.252 . S
C1030 O1033 1.252 . S
C1030 O1034 1.260 . S
C1031 O1038 1.240 . S
C1031 O1039 1.252 . S
C1032 O1035 1.252 . S
C1032 O1036 1.260 . S
O1033 In1027 2.266 . S
O1033 C1030 1.252 . S
O1034 In1027 2.326 . S
O1034 C1030 1.260 . S
O1035 In1027 2.266 . S
O1035 C1032 1.252 . S
O1036 In1027 2.326 . S
O1036 C1032 1.260 . S
C1037 O1028 1.240 . S
C1037 O1029 1.252 . S
O1038 In1027 2.294 . S
O1038 C1031 1.240 . S
O1039 In1027 2.326 . S
O1039 C1031 1.252 . S
In1040 O1041 2.294 . S
In1040 O1042 2.326 . S
In1040 O1046 2.266 . S
In1040 O1047 2.326 . S
In1040 O1048 2.266 . S
In1040 O1049 2.326 . S
In1040 O1051 2.294 . S
In1040 O1052 2.326 . S
O1041 In1040 2.294 . S
O1041 C1050 1.240 . S
O1042 In1040 2.326 . S
O1042 C1050 1.252 . S
C1043 O1046 1.252 . S
C1043 O1047 1.260 . S
C1044 O1051 1.240 . S
C1044 O1052 1.252 . S
C1045 O1048 1.252 . S
C1045 O1049 1.260 . S
O1046 In1040 2.266 . S
O1046 C1043 1.252 . S
O1047 In1040 2.326 . S
O1047 C1043 1.260 . S
O1048 In1040 2.266 . S
O1048 C1045 1.252 . S
O1049 In1040 2.326 . S
O1049 C1045 1.260 . S
C1050 O1041 1.240 . S
C1050 O1042 1.252 . S
O1051 In1040 2.294 . S
O1051 C1044 1.240 . S
O1052 In1040 2.326 . S
O1052 C1044 1.252 . S
In1053 O1054 2.294 . S
In1053 O1055 2.326 . S
In1053 O1059 2.266 . S
In1053 O1060 2.326 . S
In1053 O1061 2.266 . S
In1053 O1062 2.326 . S
In1053 O1064 2.294 . S
In1053 O1065 2.326 . S
O1054 In1053 2.294 . S
O1054 C1063 1.240 . S
O1055 In1053 2.326 . S
O1055 C1063 1.252 . S
C1056 O1059 1.252 . S
C1056 O1060 1.260 . S
C1057 O1064 1.240 . S
C1057 O1065 1.252 . S
C1058 O1061 1.252 . S
C1058 O1062 1.260 . S
O1059 In1053 2.266 . S
O1059 C1056 1.252 . S
O1060 In1053 2.326 . S
O1060 C1056 1.260 . S
O1061 In1053 2.266 . S
O1061 C1058 1.252 . S
O1062 In1053 2.326 . S
O1062 C1058 1.260 . S
C1063 O1054 1.240 . S
C1063 O1055 1.252 . S
O1064 In1053 2.294 . S
O1064 C1057 1.240 . S
O1065 In1053 2.326 . S
O1065 C1057 1.252 . S
In1066 O1067 2.294 . S
In1066 O1068 2.326 . S
In1066 O1072 2.266 . S
In1066 O1073 2.326 . S
In1066 O1074 2.266 . S
In1066 O1075 2.326 . S
In1066 O1077 2.294 . S
In1066 O1078 2.326 . S
O1067 In1066 2.294 . S
O1067 C1076 1.240 . S
O1068 In1066 2.326 . S
O1068 C1076 1.252 . S
C1069 O1072 1.252 . S
C1069 O1073 1.260 . S
C1070 O1077 1.240 . S
C1070 O1078 1.252 . S
C1071 O1074 1.252 . S
C1071 O1075 1.260 . S
O1072 In1066 2.266 . S
O1072 C1069 1.252 . S
O1073 In1066 2.326 . S
O1073 C1069 1.260 . S
O1074 In1066 2.266 . S
O1074 C1071 1.252 . S
O1075 In1066 2.326 . S
O1075 C1071 1.260 . S
C1076 O1067 1.240 . S
C1076 O1068 1.252 . S
O1077 In1066 2.294 . S
O1077 C1070 1.240 . S
O1078 In1066 2.326 . S
O1078 C1070 1.252 . S
In1079 O1080 2.294 . S
In1079 O1081 2.326 . S
In1079 O1085 2.266 . S
In1079 O1086 2.326 . S
In1079 O1087 2.266 . S
In1079 O1088 2.326 . S
In1079 O1090 2.294 . S
In1079 O1091 2.326 . S
O1080 In1079 2.294 . S
O1080 C1089 1.240 . S
O1081 In1079 2.326 . S
O1081 C1089 1.252 . S
C1082 O1085 1.252 . S
C1082 O1086 1.260 . S
C1083 O1090 1.240 . S
C1083 O1091 1.252 . S
C1084 O1087 1.252 . S
C1084 O1088 1.260 . S
O1085 In1079 2.266 . S
O1085 C1082 1.252 . S
O1086 In1079 2.326 . S
O1086 C1082 1.260 . S
O1087 In1079 2.266 . S
O1087 C1084 1.252 . S
O1088 In1079 2.326 . S
O1088 C1084 1.260 . S
C1089 O1080 1.240 . S
C1089 O1081 1.252 . S
O1090 In1079 2.294 . S
O1090 C1083 1.240 . S
O1091 In1079 2.326 . S
O1091 C1083 1.252 . S
In1092 O1093 2.294 . S
In1092 O1094 2.326 . S
In1092 O1098 2.266 . S
In1092 O1099 2.326 . S
In1092 O1100 2.266 . S
In1092 O1101 2.326 . S
In1092 O1103 2.294 . S
In1092 O1104 2.326 . S
O1093 In1092 2.294 . S
O1093 C1102 1.240 . S
O1094 In1092 2.326 . S
O1094 C1102 1.252 . S
C1095 O1098 1.252 . S
C1095 O1099 1.260 . S
C1096 O1103 1.240 . S
C1096 O1104 1.252 . S
C1097 O1100 1.252 . S
C1097 O1101 1.260 . S
O1098 In1092 2.266 . S
O1098 C1095 1.252 . S
O1099 In1092 2.326 . S
O1099 C1095 1.260 . S
O1100 In1092 2.266 . S
O1100 C1097 1.252 . S
O1101 In1092 2.326 . S
O1101 C1097 1.260 . S
C1102 O1093 1.240 . S
C1102 O1094 1.252 . S
O1103 In1092 2.294 . S
O1103 C1096 1.240 . S
O1104 In1092 2.326 . S
O1104 C1096 1.252 . S
In1105 O1106 2.294 . S
In1105 O1107 2.326 . S
In1105 O1111 2.266 . S
In1105 O1112 2.326 . S
In1105 O1113 2.266 . S
In1105 O1114 2.326 . S
In1105 O1116 2.294 . S
In1105 O1117 2.326 . S
O1106 In1105 2.294 . S
O1106 C1115 1.240 . S
O1107 In1105 2.326 . S
O1107 C1115 1.252 . S
C1108 O1111 1.252 . S
C1108 O1112 1.260 . S
C1109 O1116 1.240 . S
C1109 O1117 1.252 . S
C1110 O1113 1.252 . S
C1110 O1114 1.260 . S
O1111 In1105 2.266 . S
O1111 C1108 1.252 . S
O1112 In1105 2.326 . S
O1112 C1108 1.260 . S
O1113 In1105 2.266 . S
O1113 C1110 1.252 . S
O1114 In1105 2.326 . S
O1114 C1110 1.260 . S
C1115 O1106 1.240 . S
C1115 O1107 1.252 . S
O1116 In1105 2.294 . S
O1116 C1109 1.240 . S
O1117 In1105 2.326 . S
O1117 C1109 1.252 . S
In1118 O1119 2.294 . S
In1118 O1120 2.326 . S
In1118 O1124 2.266 . S
In1118 O1125 2.326 . S
In1118 O1126 2.266 . S
In1118 O1127 2.326 . S
In1118 O1129 2.294 . S
In1118 O1130 2.326 . S
O1119 In1118 2.294 . S
O1119 C1128 1.240 . S
O1120 In1118 2.326 . S
O1120 C1128 1.252 . S
C1121 O1124 1.252 . S
C1121 O1125 1.260 . S
C1122 O1129 1.240 . S
C1122 O1130 1.252 . S
C1123 O1126 1.252 . S
C1123 O1127 1.260 . S
O1124 In1118 2.266 . S
O1124 C1121 1.252 . S
O1125 In1118 2.326 . S
O1125 C1121 1.260 . S
O1126 In1118 2.266 . S
O1126 C1123 1.252 . S
O1127 In1118 2.326 . S
O1127 C1123 1.260 . S
C1128 O1119 1.240 . S
C1128 O1120 1.252 . S
O1129 In1118 2.294 . S
O1129 C1122 1.240 . S
O1130 In1118 2.326 . S
O1130 C1122 1.252 . S
In1131 O1132 2.294 . S
In1131 O1133 2.326 . S
In1131 O1137 2.266 . S
In1131 O1138 2.326 . S
In1131 O1139 2.266 . S
In1131 O1140 2.326 . S
In1131 O1142 2.294 . S
In1131 O1143 2.326 . S
O1132 In1131 2.294 . S
O1132 C1141 1.240 . S
O1133 In1131 2.326 . S
O1133 C1141 1.252 . S
C1134 O1137 1.252 . S
C1134 O1138 1.260 . S
C1135 O1142 1.240 . S
C1135 O1143 1.252 . S
C1136 O1139 1.252 . S
C1136 O1140 1.260 . S
O1137 In1131 2.266 . S
O1137 C1134 1.252 . S
O1138 In1131 2.326 . S
O1138 C1134 1.260 . S
O1139 In1131 2.266 . S
O1139 C1136 1.252 . S
O1140 In1131 2.326 . S
O1140 C1136 1.260 . S
C1141 O1132 1.240 . S
C1141 O1133 1.252 . S
O1142 In1131 2.294 . S
O1142 C1135 1.240 . S
O1143 In1131 2.326 . S
O1143 C1135 1.252 . S
In1144 O1145 2.294 . S
In1144 O1146 2.326 . S
In1144 O1150 2.266 . S
In1144 O1151 2.326 . S
In1144 O1152 2.266 . S
In1144 O1153 2.326 . S
In1144 O1155 2.294 . S
In1144 O1156 2.326 . S
O1145 In1144 2.294 . S
O1145 C1154 1.240 . S
O1146 In1144 2.326 . S
O1146 C1154 1.252 . S
C1147 O1150 1.252 . S
C1147 O1151 1.260 . S
C1148 O1155 1.240 . S
C1148 O1156 1.252 . S
C1149 O1152 1.252 . S
C1149 O1153 1.260 . S
O1150 In1144 2.266 . S
O1150 C1147 1.252 . S
O1151 In1144 2.326 . S
O1151 C1147 1.260 . S
O1152 In1144 2.266 . S
O1152 C1149 1.252 . S
O1153 In1144 2.326 . S
O1153 C1149 1.260 . S
C1154 O1145 1.240 . S
C1154 O1146 1.252 . S
O1155 In1144 2.294 . S
O1155 C1148 1.240 . S
O1156 In1144 2.326 . S
O1156 C1148 1.252 . S
In1157 O1158 2.294 . S
In1157 O1159 2.326 . S
In1157 O1163 2.266 . S
In1157 O1164 2.326 . S
In1157 O1165 2.266 . S
In1157 O1166 2.326 . S
In1157 O1168 2.294 . S
In1157 O1169 2.326 . S
O1158 In1157 2.294 . S
O1158 C1167 1.240 . S
O1159 In1157 2.326 . S
O1159 C1167 1.252 . S
C1160 O1163 1.252 . S
C1160 O1164 1.260 . S
C1161 O1168 1.240 . S
C1161 O1169 1.252 . S
C1162 O1165 1.252 . S
C1162 O1166 1.260 . S
O1163 In1157 2.266 . S
O1163 C1160 1.252 . S
O1164 In1157 2.326 . S
O1164 C1160 1.260 . S
O1165 In1157 2.266 . S
O1165 C1162 1.252 . S
O1166 In1157 2.326 . S
O1166 C1162 1.260 . S
C1167 O1158 1.240 . S
C1167 O1159 1.252 . S
O1168 In1157 2.294 . S
O1168 C1161 1.240 . S
O1169 In1157 2.326 . S
O1169 C1161 1.252 . S
In1170 O1171 2.294 . S
In1170 O1172 2.326 . S
In1170 O1176 2.266 . S
In1170 O1177 2.326 . S
In1170 O1178 2.266 . S
In1170 O1179 2.326 . S
In1170 O1181 2.294 . S
In1170 O1182 2.326 . S
O1171 In1170 2.294 . S
O1171 C1180 1.240 . S
O1172 In1170 2.326 . S
O1172 C1180 1.252 . S
C1173 O1176 1.252 . S
C1173 O1177 1.260 . S
C1174 O1181 1.240 . S
C1174 O1182 1.252 . S
C1175 O1178 1.252 . S
C1175 O1179 1.260 . S
O1176 In1170 2.266 . S
O1176 C1173 1.252 . S
O1177 In1170 2.326 . S
O1177 C1173 1.260 . S
O1178 In1170 2.266 . S
O1178 C1175 1.252 . S
O1179 In1170 2.326 . S
O1179 C1175 1.260 . S
C1180 O1171 1.240 . S
C1180 O1172 1.252 . S
O1181 In1170 2.294 . S
O1181 C1174 1.240 . S
O1182 In1170 2.326 . S
O1182 C1174 1.252 . S
In1183 O1184 2.294 . S
In1183 O1185 2.326 . S
In1183 O1189 2.266 . S
In1183 O1190 2.326 . S
In1183 O1191 2.266 . S
In1183 O1192 2.326 . S
In1183 O1194 2.294 . S
In1183 O1195 2.326 . S
O1184 In1183 2.294 . S
O1184 C1193 1.240 . S
O1185 In1183 2.326 . S
O1185 C1193 1.252 . S
C1186 O1189 1.252 . S
C1186 O1190 1.260 . S
C1187 O1194 1.240 . S
C1187 O1195 1.252 . S
C1188 O1191 1.252 . S
C1188 O1192 1.260 . S
O1189 In1183 2.266 . S
O1189 C1186 1.252 . S
O1190 In1183 2.326 . S
O1190 C1186 1.260 . S
O1191 In1183 2.266 . S
O1191 C1188 1.252 . S
O1192 In1183 2.326 . S
O1192 C1188 1.260 . S
C1193 O1184 1.240 . S
C1193 O1185 1.252 . S
O1194 In1183 2.294 . S
O1194 C1187 1.240 . S
O1195 In1183 2.326 . S
O1195 C1187 1.252 . S
In1196 O1197 2.294 . S
In1196 O1198 2.326 . S
In1196 O1202 2.266 . S
In1196 O1203 2.326 . S
In1196 O1204 2.266 . S
In1196 O1205 2.326 . S
In1196 O1207 2.294 . S
In1196 O1208 2.326 . S
O1197 In1196 2.294 . S
O1197 C1206 1.240 . S
O1198 In1196 2.326 . S
O1198 C1206 1.252 . S
C1199 O1202 1.252 . S
C1199 O1203 1.260 . S
C1200 O1207 1.240 . S
C1200 O1208 1.252 . S
C1201 O1204 1.252 . S
C1201 O1205 1.260 . S
O1202 In1196 2.266 . S
O1202 C1199 1.252 . S
O1203 In1196 2.326 . S
O1203 C1199 1.260 . S
O1204 In1196 2.266 . S
O1204 C1201 1.252 . S
O1205 In1196 2.326 . S
O1205 C1201 1.260 . S
C1206 O1197 1.240 . S
C1206 O1198 1.252 . S
O1207 In1196 2.294 . S
O1207 C1200 1.240 . S
O1208 In1196 2.326 . S
O1208 C1200 1.252 . S
In1209 O1210 2.294 . S
In1209 O1211 2.326 . S
In1209 O1215 2.266 . S
In1209 O1216 2.326 . S
In1209 O1217 2.266 . S
In1209 O1218 2.326 . S
In1209 O1220 2.294 . S
In1209 O1221 2.326 . S
O1210 In1209 2.294 . S
O1210 C1219 1.240 . S
O1211 In1209 2.326 . S
O1211 C1219 1.252 . S
C1212 O1215 1.252 . S
C1212 O1216 1.260 . S
C1213 O1220 1.240 . S
C1213 O1221 1.252 . S
C1214 O1217 1.252 . S
C1214 O1218 1.260 . S
O1215 In1209 2.266 . S
O1215 C1212 1.252 . S
O1216 In1209 2.326 . S
O1216 C1212 1.260 . S
O1217 In1209 2.266 . S
O1217 C1214 1.252 . S
O1218 In1209 2.326 . S
O1218 C1214 1.260 . S
C1219 O1210 1.240 . S
C1219 O1211 1.252 . S
O1220 In1209 2.294 . S
O1220 C1213 1.240 . S
O1221 In1209 2.326 . S
O1221 C1213 1.252 . S
In1222 O1223 2.294 . S
In1222 O1224 2.326 . S
In1222 O1228 2.266 . S
In1222 O1229 2.326 . S
In1222 O1230 2.266 . S
In1222 O1231 2.326 . S
In1222 O1233 2.294 . S
In1222 O1234 2.326 . S
O1223 In1222 2.294 . S
O1223 C1232 1.240 . S
O1224 In1222 2.326 . S
O1224 C1232 1.252 . S
C1225 O1228 1.252 . S
C1225 O1229 1.260 . S
C1226 O1233 1.240 . S
C1226 O1234 1.252 . S
C1227 O1230 1.252 . S
C1227 O1231 1.260 . S
O1228 In1222 2.266 . S
O1228 C1225 1.252 . S
O1229 In1222 2.326 . S
O1229 C1225 1.260 . S
O1230 In1222 2.266 . S
O1230 C1227 1.252 . S
O1231 In1222 2.326 . S
O1231 C1227 1.260 . S
C1232 O1223 1.240 . S
C1232 O1224 1.252 . S
O1233 In1222 2.294 . S
O1233 C1226 1.240 . S
O1234 In1222 2.326 . S
O1234 C1226 1.252 . S
In1235 O1236 2.294 . S
In1235 O1237 2.326 . S
In1235 O1241 2.266 . S
In1235 O1242 2.326 . S
In1235 O1243 2.266 . S
In1235 O1244 2.326 . S
In1235 O1246 2.294 . S
In1235 O1247 2.326 . S
O1236 In1235 2.294 . S
O1236 C1245 1.240 . S
O1237 In1235 2.326 . S
O1237 C1245 1.252 . S
C1238 O1241 1.252 . S
C1238 O1242 1.260 . S
C1239 O1246 1.240 . S
C1239 O1247 1.252 . S
C1240 O1243 1.252 . S
C1240 O1244 1.260 . S
O1241 In1235 2.266 . S
O1241 C1238 1.252 . S
O1242 In1235 2.326 . S
O1242 C1238 1.260 . S
O1243 In1235 2.266 . S
O1243 C1240 1.252 . S
O1244 In1235 2.326 . S
O1244 C1240 1.260 . S
C1245 O1236 1.240 . S
C1245 O1237 1.252 . S
O1246 In1235 2.294 . S
O1246 C1239 1.240 . S
O1247 In1235 2.326 . S
O1247 C1239 1.252 . S
H1248 C1254 0.930 . S
H1249 C1258 0.930 . S
H1250 C1263 0.929 . S
H1251 C1261 0.929 . S
H1252 C1256 0.929 . S
H1253 C1262 0.929 . S
C1254 H1248 0.930 . S
C1254 C1255 1.367 . S
C1254 C1262 1.378 . S
C1255 C1254 1.367 . S
C1255 C1263 1.433 . S
C1256 H1252 0.929 . S
C1256 C1258 1.378 . S
C1256 C1260 1.350 . S
C1257 C1260 1.463 1_454 S
C1257 C1262 1.350 . S
C1257 N1265 1.427 . S
C1258 H1249 0.930 . S
C1258 C1256 1.378 . S
C1258 C1259 1.367 . S
C1259 C1258 1.367 . S
C1259 C1261 1.433 . S
C1260 C1256 1.350 . S
C1260 C1257 1.463 1_656 S
C1260 N1264 1.427 . S
C1261 H1251 0.929 . S
C1261 C1259 1.433 . S
C1261 N1264 1.384 . S
C1262 H1253 0.929 . S
C1262 C1254 1.378 . S
C1262 C1257 1.350 . S
C1263 H1250 0.929 . S
C1263 C1255 1.433 . S
C1263 N1265 1.384 . S
N1264 C1260 1.427 . S
N1264 C1261 1.384 . S
N1265 C1257 1.427 . S
N1265 C1263 1.384 . S
H1266 C1272 0.930 . S
H1267 C1276 0.930 . S
H1268 C1281 0.929 . S
H1269 C1279 0.929 . S
H1270 C1274 0.929 . S
H1271 C1280 0.929 . S
C1272 H1266 0.930 . S
C1272 C1273 1.367 . S
C1272 C1280 1.378 . S
C1273 C1272 1.367 . S
C1273 C1281 1.433 . S
C1274 H1270 0.929 . S
C1274 C1276 1.378 . S
C1274 C1278 1.350 . S
C1275 C1278 1.463 . S
C1275 C1280 1.350 . S
C1275 N1283 1.427 . S
C1276 H1267 0.930 . S
C1276 C1274 1.378 . S
C1276 C1277 1.367 . S
C1277 C1276 1.367 . S
C1277 C1279 1.433 . S
C1278 C1274 1.350 . S
C1278 C1275 1.463 . S
C1278 N1282 1.427 . S
C1279 H1269 0.929 . S
C1279 C1277 1.433 . S
C1279 N1282 1.384 . S
C1280 H1271 0.929 . S
C1280 C1272 1.378 . S
C1280 C1275 1.350 . S
C1281 H1268 0.929 . S
C1281 C1273 1.433 . S
C1281 N1283 1.384 . S
N1282 C1278 1.427 . S
N1282 C1279 1.384 . S
N1283 C1275 1.427 . S
N1283 C1281 1.384 . S
H1284 C1290 0.930 . S
H1285 C1294 0.930 . S
H1286 C1299 0.929 . S
H1287 C1297 0.929 . S
H1288 C1292 0.929 1_655 S
H1289 C1298 0.929 1_455 S
C1290 H1284 0.930 . S
C1290 C1291 1.367 . S
C1290 C1298 1.378 . S
C1291 C1290 1.367 . S
C1291 C1299 1.433 . S
C1292 H1288 0.929 1_455 S
C1292 C1294 1.378 . S
C1292 C1296 1.350 . S
C1293 C1296 1.463 1_655 S
C1293 C1298 1.350 . S
C1293 N1301 1.427 . S
C1294 H1285 0.930 . S
C1294 C1292 1.378 . S
C1294 C1295 1.367 . S
C1295 C1294 1.367 . S
C1295 C1297 1.433 . S
C1296 C1292 1.350 . S
C1296 C1293 1.463 1_455 S
C1296 N1300 1.427 . S
C1297 H1287 0.929 . S
C1297 C1295 1.433 . S
C1297 N1300 1.384 . S
C1298 H1289 0.929 1_655 S
C1298 C1290 1.378 . S
C1298 C1293 1.350 . S
C1299 H1286 0.929 . S
C1299 C1291 1.433 . S
C1299 N1301 1.384 . S
N1300 C1296 1.427 . S
N1300 C1297 1.384 . S
N1301 C1293 1.427 . S
N1301 C1299 1.384 . S
H1302 C1308 0.930 . S
H1303 C1312 0.930 . S
H1304 C1317 0.929 . S
H1305 C1315 0.929 . S
H1306 C1310 0.929 . S
H1307 C1316 0.929 . S
C1308 H1302 0.930 . S
C1308 C1309 1.367 . S
C1308 C1316 1.378 . S
C1309 C1308 1.367 . S
C1309 C1317 1.433 . S
C1310 H1306 0.929 . S
C1310 C1312 1.378 . S
C1310 C1314 1.350 . S
C1311 C1314 1.463 . S
C1311 C1316 1.350 . S
C1311 N1319 1.427 . S
C1312 H1303 0.930 . S
C1312 C1310 1.378 . S
C1312 C1313 1.367 . S
C1313 C1312 1.367 . S
C1313 C1315 1.433 . S
C1314 C1310 1.350 . S
C1314 C1311 1.463 . S
C1314 N1318 1.427 . S
C1315 H1305 0.929 . S
C1315 C1313 1.433 . S
C1315 N1318 1.384 . S
C1316 H1307 0.929 . S
C1316 C1308 1.378 . S
C1316 C1311 1.350 . S
C1317 H1304 0.929 . S
C1317 C1309 1.433 . S
C1317 N1319 1.384 . S
N1318 C1314 1.427 . S
N1318 C1315 1.384 . S
N1319 C1311 1.427 . S
N1319 C1317 1.384 . S
H1320 C1326 0.930 . S
H1321 C1330 0.930 . S
H1322 C1335 0.929 . S
H1323 C1333 0.929 . S
H1324 C1328 0.929 . S
H1325 C1334 0.929 . S
C1326 H1320 0.930 . S
C1326 C1327 1.367 . S
C1326 C1334 1.378 . S
C1327 C1326 1.367 . S
C1327 C1335 1.433 . S
C1328 H1324 0.929 . S
C1328 C1330 1.378 . S
C1328 C1332 1.350 . S
C1329 C1332 1.463 1_654 S
C1329 C1334 1.350 . S
C1329 N1337 1.427 . S
C1330 H1321 0.930 . S
C1330 C1328 1.378 . S
C1330 C1331 1.367 . S
C1331 C1330 1.367 . S
C1331 C1333 1.433 . S
C1332 C1328 1.350 . S
C1332 C1329 1.463 1_456 S
C1332 N1336 1.427 . S
C1333 H1323 0.929 . S
C1333 C1331 1.433 . S
C1333 N1336 1.384 . S
C1334 H1325 0.929 . S
C1334 C1326 1.378 . S
C1334 C1329 1.350 . S
C1335 H1322 0.929 . S
C1335 C1327 1.433 . S
C1335 N1337 1.384 . S
N1336 C1332 1.427 . S
N1336 C1333 1.384 . S
N1337 C1329 1.427 . S
N1337 C1335 1.384 . S
H1338 C1344 0.930 . S
H1339 C1348 0.930 . S
H1340 C1353 0.929 . S
H1341 C1351 0.929 . S
H1342 C1346 0.929 . S
H1343 C1352 0.929 . S
C1344 H1338 0.930 . S
C1344 C1345 1.367 . S
C1344 C1352 1.378 . S
C1345 C1344 1.367 . S
C1345 C1353 1.433 . S
C1346 H1342 0.929 . S
C1346 C1348 1.378 . S
C1346 C1350 1.350 . S
C1347 C1350 1.463 . S
C1347 C1352 1.350 . S
C1347 N1355 1.427 . S
C1348 H1339 0.930 . S
C1348 C1346 1.378 . S
C1348 C1349 1.367 . S
C1349 C1348 1.367 . S
C1349 C1351 1.433 . S
C1350 C1346 1.350 . S
C1350 C1347 1.463 . S
C1350 N1354 1.427 . S
C1351 H1341 0.929 . S
C1351 C1349 1.433 . S
C1351 N1354 1.384 . S
C1352 H1343 0.929 . S
C1352 C1344 1.378 . S
C1352 C1347 1.350 . S
C1353 H1340 0.929 . S
C1353 C1345 1.433 . S
C1353 N1355 1.384 . S
N1354 C1350 1.427 . S
N1354 C1351 1.384 . S
N1355 C1347 1.427 . S
N1355 C1353 1.384 . S
H1356 C1362 0.930 . S
H1357 C1366 0.930 . S
H1358 C1371 0.929 . S
H1359 C1369 0.929 . S
H1360 C1364 0.929 . S
H1361 C1370 0.929 . S
C1362 H1356 0.930 . S
C1362 C1363 1.367 . S
C1362 C1370 1.378 . S
C1363 C1362 1.367 . S
C1363 C1371 1.433 . S
C1364 H1360 0.929 . S
C1364 C1366 1.378 . S
C1364 C1368 1.350 . S
C1365 C1368 1.463 1_455 S
C1365 C1370 1.350 . S
C1365 N1373 1.427 1_455 S
C1366 H1357 0.930 . S
C1366 C1364 1.378 . S
C1366 C1367 1.367 . S
C1367 C1366 1.367 . S
C1367 C1369 1.433 . S
C1368 C1364 1.350 . S
C1368 C1365 1.463 1_655 S
C1368 N1372 1.427 1_655 S
C1369 H1359 0.929 . S
C1369 C1367 1.433 . S
C1369 N1372 1.384 1_655 S
C1370 H1361 0.929 . S
C1370 C1362 1.378 . S
C1370 C1365 1.350 . S
C1371 H1358 0.929 . S
C1371 C1363 1.433 . S
C1371 N1373 1.384 1_455 S
N1372 C1368 1.427 1_455 S
N1372 C1369 1.384 1_455 S
N1373 C1365 1.427 1_655 S
N1373 C1371 1.384 1_655 S
H1374 C1380 0.930 . S
H1375 C1384 0.930 . S
H1376 C1389 0.929 . S
H1377 C1387 0.929 . S
H1378 C1382 0.929 . S
H1379 C1388 0.929 . S
C1380 H1374 0.930 . S
C1380 C1381 1.367 . S
C1380 C1388 1.378 . S
C1381 C1380 1.367 . S
C1381 C1389 1.433 . S
C1382 H1378 0.929 . S
C1382 C1384 1.378 . S
C1382 C1386 1.350 . S
C1383 C1386 1.463 . S
C1383 C1388 1.350 . S
C1383 N1391 1.427 . S
C1384 H1375 0.930 . S
C1384 C1382 1.378 . S
C1384 C1385 1.367 . S
C1385 C1384 1.367 . S
C1385 C1387 1.433 . S
C1386 C1382 1.350 . S
C1386 C1383 1.463 . S
C1386 N1390 1.427 . S
C1387 H1377 0.929 . S
C1387 C1385 1.433 . S
C1387 N1390 1.384 . S
C1388 H1379 0.929 . S
C1388 C1380 1.378 . S
C1388 C1383 1.350 . S
C1389 H1376 0.929 . S
C1389 C1381 1.433 . S
C1389 N1391 1.384 . S
N1390 C1386 1.427 . S
N1390 C1387 1.384 . S
N1391 C1383 1.427 . S
N1391 C1389 1.384 . S
H1392 C1398 0.930 . S
H1393 C1402 0.930 . S
H1394 C1407 0.929 . S
H1395 C1405 0.929 . S
H1396 C1400 0.929 1_655 S
H1397 C1406 0.929 1_455 S
C1398 H1392 0.930 . S
C1398 C1399 1.367 . S
C1398 C1406 1.378 . S
C1399 C1398 1.367 . S
C1399 C1407 1.433 . S
C1400 H1396 0.929 1_455 S
C1400 C1402 1.378 . S
C1400 C1404 1.350 . S
C1401 C1404 1.463 1_665 S
C1401 C1406 1.350 . S
C1401 N1409 1.409 1_565 S
C1402 H1393 0.930 . S
C1402 C1400 1.378 . S
C1402 C1403 1.367 . S
C1403 C1402 1.367 . S
C1403 C1405 1.433 . S
C1404 C1400 1.350 . S
C1404 C1401 1.463 1_445 S
C1404 N1408 1.409 1_545 S
C1405 H1395 0.929 . S
C1405 C1403 1.433 . S
C1405 N1408 1.354 1_545 S
C1406 H1397 0.929 1_655 S
C1406 C1398 1.378 . S
C1406 C1401 1.350 . S
C1407 H1394 0.929 . S
C1407 C1399 1.433 . S
C1407 N1409 1.354 1_565 S
N1408 C1404 1.409 1_565 S
N1408 C1405 1.354 1_565 S
N1409 C1401 1.409 1_545 S
N1409 C1407 1.354 1_545 S
H1410 C1416 0.930 . S
H1411 C1420 0.930 . S
H1412 C1425 0.929 . S
H1413 C1423 0.929 . S
H1414 C1418 0.929 . S
H1415 C1424 0.929 . S
C1416 H1410 0.930 . S
C1416 C1417 1.367 . S
C1416 C1424 1.378 . S
C1417 C1416 1.367 . S
C1417 C1425 1.433 . S
C1418 H1414 0.929 . S
C1418 C1420 1.378 . S
C1418 C1422 1.350 . S
C1419 C1422 1.463 . S
C1419 C1424 1.350 . S
C1419 N1427 1.427 . S
C1420 H1411 0.930 . S
C1420 C1418 1.378 . S
C1420 C1421 1.367 . S
C1421 C1420 1.367 . S
C1421 C1423 1.433 . S
C1422 C1418 1.350 . S
C1422 C1419 1.463 . S
C1422 N1426 1.427 . S
C1423 H1413 0.929 . S
C1423 C1421 1.433 . S
C1423 N1426 1.384 . S
C1424 H1415 0.929 . S
C1424 C1416 1.378 . S
C1424 C1419 1.350 . S
C1425 H1412 0.929 . S
C1425 C1417 1.433 . S
C1425 N1427 1.384 . S
N1426 C1422 1.427 . S
N1426 C1423 1.384 . S
N1427 C1419 1.427 . S
N1427 C1425 1.384 . S
H1428 C1434 0.930 . S
H1429 C1438 0.930 . S
H1430 C1443 0.929 . S
H1431 C1441 0.929 . S
H1432 C1436 0.929 1_655 S
H1433 C1442 0.929 1_455 S
C1434 H1428 0.930 . S
C1434 C1435 1.367 . S
C1434 C1442 1.378 . S
C1435 C1434 1.367 . S
C1435 C1443 1.433 . S
C1436 H1432 0.929 1_455 S
C1436 C1438 1.378 . S
C1436 C1440 1.350 . S
C1437 C1440 1.463 1_655 S
C1437 C1442 1.350 . S
C1437 N1445 1.427 . S
C1438 H1429 0.930 . S
C1438 C1436 1.378 . S
C1438 C1439 1.367 . S
C1439 C1438 1.367 . S
C1439 C1441 1.433 . S
C1440 C1436 1.350 . S
C1440 C1437 1.463 1_455 S
C1440 N1444 1.427 . S
C1441 H1431 0.929 . S
C1441 C1439 1.433 . S
C1441 N1444 1.384 . S
C1442 H1433 0.929 1_655 S
C1442 C1434 1.378 . S
C1442 C1437 1.350 . S
C1443 H1430 0.929 . S
C1443 C1435 1.433 . S
C1443 N1445 1.384 . S
N1444 C1440 1.427 . S
N1444 C1441 1.384 . S
N1445 C1437 1.427 . S
N1445 C1443 1.384 . S
H1446 C1452 0.930 . S
H1447 C1456 0.930 . S
H1448 C1461 0.929 . S
H1449 C1459 0.929 . S
H1450 C1454 0.929 . S
H1451 C1460 0.929 . S
C1452 H1446 0.930 . S
C1452 C1453 1.367 . S
C1452 C1460 1.378 . S
C1453 C1452 1.367 . S
C1453 C1461 1.433 . S
C1454 H1450 0.929 . S
C1454 C1456 1.378 . S
C1454 C1458 1.350 . S
C1455 C1458 1.463 . S
C1455 C1460 1.350 . S
C1455 N1463 1.427 . S
C1456 H1447 0.930 . S
C1456 C1454 1.378 . S
C1456 C1457 1.367 . S
C1457 C1456 1.367 . S
C1457 C1459 1.433 . S
C1458 C1454 1.350 . S
C1458 C1455 1.463 . S
C1458 N1462 1.427 . S
C1459 H1449 0.929 . S
C1459 C1457 1.433 . S
C1459 N1462 1.384 . S
C1460 H1451 0.929 . S
C1460 C1452 1.378 . S
C1460 C1455 1.350 . S
C1461 H1448 0.929 . S
C1461 C1453 1.433 . S
C1461 N1463 1.384 . S
N1462 C1458 1.427 . S
N1462 C1459 1.384 . S
N1463 C1455 1.427 . S
N1463 C1461 1.384 . S
H1464 C1470 0.930 . S
H1465 C1474 0.930 . S
H1466 C1479 0.929 . S
H1467 C1477 0.929 . S
H1468 C1472 0.929 . S
H1469 C1478 0.929 . S
C1470 H1464 0.930 . S
C1470 C1471 1.367 . S
C1470 C1478 1.378 . S
C1471 C1470 1.367 . S
C1471 C1479 1.433 . S
C1472 H1468 0.929 . S
C1472 C1474 1.378 . S
C1472 C1476 1.350 . S
C1473 C1476 1.463 1_465 S
C1473 C1478 1.350 . S
C1473 N1481 1.427 . S
C1474 H1465 0.930 . S
C1474 C1472 1.378 . S
C1474 C1475 1.367 . S
C1475 C1474 1.367 . S
C1475 C1477 1.433 . S
C1476 C1472 1.350 . S
C1476 C1473 1.463 1_645 S
C1476 N1480 1.427 . S
C1477 H1467 0.929 . S
C1477 C1475 1.433 . S
C1477 N1480 1.384 . S
C1478 H1469 0.929 . S
C1478 C1470 1.378 . S
C1478 C1473 1.350 . S
C1479 H1466 0.929 . S
C1479 C1471 1.433 . S
C1479 N1481 1.384 . S
N1480 C1476 1.427 . S
N1480 C1477 1.384 . S
N1481 C1473 1.427 . S
N1481 C1479 1.384 . S
H1482 C1488 0.930 . S
H1483 C1492 0.930 . S
H1484 C1497 0.929 . S
H1485 C1495 0.929 . S
H1486 C1490 0.929 . S
H1487 C1496 0.929 . S
C1488 H1482 0.930 . S
C1488 C1489 1.367 . S
C1488 C1496 1.378 . S
C1489 C1488 1.367 . S
C1489 C1497 1.433 . S
C1490 H1486 0.929 . S
C1490 C1492 1.378 . S
C1490 C1494 1.350 . S
C1491 C1494 1.463 . S
C1491 C1496 1.350 . S
C1491 N1499 1.427 . S
C1492 H1483 0.930 . S
C1492 C1490 1.378 . S
C1492 C1493 1.367 . S
C1493 C1492 1.367 . S
C1493 C1495 1.433 . S
C1494 C1490 1.350 . S
C1494 C1491 1.463 . S
C1494 N1498 1.427 . S
C1495 H1485 0.929 . S
C1495 C1493 1.433 . S
C1495 N1498 1.384 . S
C1496 H1487 0.929 . S
C1496 C1488 1.378 . S
C1496 C1491 1.350 . S
C1497 H1484 0.929 . S
C1497 C1489 1.433 . S
C1497 N1499 1.384 . S
N1498 C1494 1.427 . S
N1498 C1495 1.384 . S
N1499 C1491 1.427 . S
N1499 C1497 1.384 . S
H1500 C1506 0.930 . S
H1501 C1510 0.930 . S
H1502 C1515 0.929 . S
H1503 C1513 0.929 . S
H1504 C1508 0.929 . S
H1505 C1514 0.929 . S
C1506 H1500 0.930 . S
C1506 C1507 1.367 . S
C1506 C1514 1.378 . S
C1507 C1506 1.367 . S
C1507 C1515 1.433 . S
C1508 H1504 0.929 . S
C1508 C1510 1.378 . S
C1508 C1512 1.350 . S
C1509 C1512 1.463 1_455 S
C1509 C1514 1.350 . S
C1509 N1517 1.427 . S
C1510 H1501 0.930 . S
C1510 C1508 1.378 . S
C1510 C1511 1.367 . S
C1511 C1510 1.367 . S
C1511 C1513 1.433 . S
C1512 C1508 1.350 . S
C1512 C1509 1.463 1_655 S
C1512 N1516 1.427 . S
C1513 H1503 0.929 . S
C1513 C1511 1.433 . S
C1513 N1516 1.384 . S
C1514 H1505 0.929 . S
C1514 C1506 1.378 . S
C1514 C1509 1.350 . S
C1515 H1502 0.929 . S
C1515 C1507 1.433 . S
C1515 N1517 1.384 . S
N1516 C1512 1.427 . S
N1516 C1513 1.384 . S
N1517 C1509 1.427 . S
N1517 C1515 1.384 . S
H1518 C1524 0.930 . S
H1519 C1528 0.930 . S
H1520 C1533 0.929 . S
H1521 C1531 0.929 . S
H1522 C1526 0.929 . S
H1523 C1532 0.929 . S
C1524 H1518 0.930 . S
C1524 C1525 1.367 . S
C1524 C1532 1.378 . S
C1525 C1524 1.367 . S
C1525 C1533 1.433 . S
C1526 H1522 0.929 . S
C1526 C1528 1.378 . S
C1526 C1530 1.350 . S
C1527 C1530 1.463 . S
C1527 C1532 1.350 . S
C1527 N1535 1.427 . S
C1528 H1519 0.930 . S
C1528 C1526 1.378 . S
C1528 C1529 1.367 . S
C1529 C1528 1.367 . S
C1529 C1531 1.433 . S
C1530 C1526 1.350 . S
C1530 C1527 1.463 . S
C1530 N1534 1.427 . S
C1531 H1521 0.929 . S
C1531 C1529 1.433 . S
C1531 N1534 1.384 . S
C1532 H1523 0.929 . S
C1532 C1524 1.378 . S
C1532 C1527 1.350 . S
C1533 H1520 0.929 . S
C1533 C1525 1.433 . S
C1533 N1535 1.384 . S
N1534 C1530 1.427 . S
N1534 C1531 1.384 . S
N1535 C1527 1.427 . S
N1535 C1533 1.384 . S
H1536 C1542 0.930 . S
H1537 C1546 0.930 . S
H1538 C1551 0.929 . S
H1539 C1549 0.929 . S
H1540 C1544 0.929 . S
H1541 C1550 0.929 . S
C1542 H1536 0.930 . S
C1542 C1543 1.367 . S
C1542 C1550 1.378 1_556 S
C1543 C1542 1.367 . S
C1543 C1551 1.433 . S
C1544 H1540 0.929 . S
C1544 C1546 1.378 1_556 S
C1544 C1548 1.350 1_556 S
C1545 C1548 1.463 1_566 S
C1545 C1550 1.350 1_556 S
C1545 N1553 1.427 . S
C1546 H1537 0.930 . S
C1546 C1544 1.378 1_554 S
C1546 C1547 1.367 . S
C1547 C1546 1.367 . S
C1547 C1549 1.433 . S
C1548 C1544 1.350 1_554 S
C1548 C1545 1.463 1_544 S
C1548 N1552 1.427 . S
C1549 H1539 0.929 . S
C1549 C1547 1.433 . S
C1549 N1552 1.384 . S
C1550 H1541 0.929 . S
C1550 C1542 1.378 1_554 S
C1550 C1545 1.350 1_554 S
C1551 H1538 0.929 . S
C1551 C1543 1.433 . S
C1551 N1553 1.384 . S
N1552 C1548 1.427 . S
N1552 C1549 1.384 . S
N1553 C1545 1.427 . S
N1553 C1551 1.384 . S
H1554 C1560 0.930 . S
H1555 C1564 0.930 . S
H1556 C1569 0.929 . S
H1557 C1567 0.929 . S
H1558 C1562 0.929 . S
H1559 C1568 0.929 . S
C1560 H1554 0.930 . S
C1560 C1561 1.367 . S
C1560 C1568 1.378 . S
C1561 C1560 1.367 . S
C1561 C1569 1.433 . S
C1562 H1558 0.929 . S
C1562 C1564 1.378 . S
C1562 C1566 1.350 . S
C1563 C1566 1.463 1_545 S
C1563 C1568 1.350 . S
C1563 N1571 1.427 . S
C1564 H1555 0.930 . S
C1564 C1562 1.378 . S
C1564 C1565 1.367 . S
C1565 C1564 1.367 . S
C1565 C1567 1.433 . S
C1566 C1562 1.350 . S
C1566 C1563 1.463 1_565 S
C1566 N1570 1.427 . S
C1567 H1557 0.929 . S
C1567 C1565 1.433 . S
C1567 N1570 1.384 . S
C1568 H1559 0.929 . S
C1568 C1560 1.378 . S
C1568 C1563 1.350 . S
C1569 H1556 0.929 . S
C1569 C1561 1.433 . S
C1569 N1571 1.384 . S
N1570 C1566 1.427 . S
N1570 C1567 1.384 . S
N1571 C1563 1.427 . S
N1571 C1569 1.384 . S
H1572 C1578 0.930 . S
H1573 C1582 0.930 . S
H1574 C1587 0.929 . S
H1575 C1585 0.929 . S
H1576 C1580 0.929 . S
H1577 C1586 0.929 . S
C1578 H1572 0.930 . S
C1578 C1579 1.367 . S
C1578 C1586 1.378 . S
C1579 C1578 1.367 . S
C1579 C1587 1.433 . S
C1580 H1576 0.929 . S
C1580 C1582 1.378 . S
C1580 C1584 1.350 . S
C1581 C1584 1.463 . S
C1581 C1586 1.350 . S
C1581 N1589 1.427 . S
C1582 H1573 0.930 . S
C1582 C1580 1.378 . S
C1582 C1583 1.367 . S
C1583 C1582 1.367 . S
C1583 C1585 1.433 . S
C1584 C1580 1.350 . S
C1584 C1581 1.463 . S
C1584 N1588 1.427 . S
C1585 H1575 0.929 . S
C1585 C1583 1.433 . S
C1585 N1588 1.384 . S
C1586 H1577 0.929 . S
C1586 C1578 1.378 . S
C1586 C1581 1.350 . S
C1587 H1574 0.929 . S
C1587 C1579 1.433 . S
C1587 N1589 1.384 . S
N1588 C1584 1.427 . S
N1588 C1585 1.384 . S
N1589 C1581 1.427 . S
N1589 C1587 1.384 . S
H1590 C1596 0.930 . S
H1591 C1600 0.930 . S
H1592 C1605 0.929 . S
H1593 C1603 0.929 . S
H1594 C1598 0.929 . S
H1595 C1604 0.929 . S
C1596 H1590 0.930 . S
C1596 C1597 1.367 . S
C1596 C1604 1.378 . S
C1597 C1596 1.367 . S
C1597 C1605 1.433 . S
C1598 H1594 0.929 . S
C1598 C1600 1.378 . S
C1598 C1602 1.350 . S
C1599 C1602 1.463 1_554 S
C1599 C1604 1.350 . S
C1599 N1607 1.427 . S
C1600 H1591 0.930 . S
C1600 C1598 1.378 . S
C1600 C1601 1.367 . S
C1601 C1600 1.367 . S
C1601 C1603 1.433 . S
C1602 C1598 1.350 . S
C1602 C1599 1.463 1_556 S
C1602 N1606 1.427 . S
C1603 H1593 0.929 . S
C1603 C1601 1.433 . S
C1603 N1606 1.384 . S
C1604 H1595 0.929 . S
C1604 C1596 1.378 . S
C1604 C1599 1.350 . S
C1605 H1592 0.929 . S
C1605 C1597 1.433 . S
C1605 N1607 1.384 . S
N1606 C1602 1.427 . S
N1606 C1603 1.384 . S
N1607 C1599 1.427 . S
N1607 C1605 1.384 . S
H1608 C1614 0.930 . S
H1609 C1618 0.930 . S
H1610 C1623 0.929 . S
H1611 C1621 0.929 . S
H1612 C1616 0.929 . S
H1613 C1622 0.929 . S
C1614 H1608 0.930 . S
C1614 C1615 1.367 . S
C1614 C1622 1.378 . S
C1615 C1614 1.367 . S
C1615 C1623 1.433 . S
C1616 H1612 0.929 . S
C1616 C1618 1.378 . S
C1616 C1620 1.350 . S
C1617 C1620 1.463 . S
C1617 C1622 1.350 . S
C1617 N1625 1.427 . S
C1618 H1609 0.930 . S
C1618 C1616 1.378 . S
C1618 C1619 1.367 . S
C1619 C1618 1.367 . S
C1619 C1621 1.433 . S
C1620 C1616 1.350 . S
C1620 C1617 1.463 . S
C1620 N1624 1.427 . S
C1621 H1611 0.929 . S
C1621 C1619 1.433 . S
C1621 N1624 1.384 . S
C1622 H1613 0.929 . S
C1622 C1614 1.378 . S
C1622 C1617 1.350 . S
C1623 H1610 0.929 . S
C1623 C1615 1.433 . S
C1623 N1625 1.384 . S
N1624 C1620 1.427 . S
N1624 C1621 1.384 . S
N1625 C1617 1.427 . S
N1625 C1623 1.384 . S
H1626 C1632 0.930 . S
H1627 C1636 0.930 . S
H1628 C1641 0.929 . S
H1629 C1639 0.929 . S
H1630 C1634 0.929 1_565 S
H1631 C1640 0.929 1_545 S
C1632 H1626 0.930 . S
C1632 C1633 1.367 . S
C1632 C1640 1.378 . S
C1633 C1632 1.367 . S
C1633 C1641 1.433 . S
C1634 H1630 0.929 1_545 S
C1634 C1636 1.378 . S
C1634 C1638 1.350 . S
C1635 C1638 1.463 1_564 S
C1635 C1640 1.350 . S
C1635 N1643 1.427 1_554 S
C1636 H1627 0.930 . S
C1636 C1634 1.378 . S
C1636 C1637 1.367 . S
C1637 C1636 1.367 . S
C1637 C1639 1.433 . S
C1638 C1634 1.350 . S
C1638 C1635 1.463 1_546 S
C1638 N1642 1.427 1_556 S
C1639 H1629 0.929 . S
C1639 C1637 1.433 . S
C1639 N1642 1.384 1_556 S
C1640 H1631 0.929 1_565 S
C1640 C1632 1.378 . S
C1640 C1635 1.350 . S
C1641 H1628 0.929 . S
C1641 C1633 1.433 . S
C1641 N1643 1.384 1_554 S
N1642 C1638 1.427 1_554 S
N1642 C1639 1.384 1_554 S
N1643 C1635 1.427 1_556 S
N1643 C1641 1.384 1_556 S
H1644 C1650 0.930 . S
H1645 C1654 0.930 . S
H1646 C1659 0.929 . S
H1647 C1657 0.929 . S
H1648 C1652 0.929 . S
H1649 C1658 0.929 . S
C1650 H1644 0.930 . S
C1650 C1651 1.367 . S
C1650 C1658 1.378 . S
C1651 C1650 1.367 . S
C1651 C1659 1.433 . S
C1652 H1648 0.929 . S
C1652 C1654 1.378 . S
C1652 C1656 1.350 . S
C1653 C1656 1.463 . S
C1653 C1658 1.350 . S
C1653 N1661 1.427 . S
C1654 H1645 0.930 . S
C1654 C1652 1.378 . S
C1654 C1655 1.367 . S
C1655 C1654 1.367 . S
C1655 C1657 1.433 . S
C1656 C1652 1.350 . S
C1656 C1653 1.463 . S
C1656 N1660 1.427 . S
C1657 H1647 0.929 . S
C1657 C1655 1.433 . S
C1657 N1660 1.384 . S
C1658 H1649 0.929 . S
C1658 C1650 1.378 . S
C1658 C1653 1.350 . S
C1659 H1646 0.929 . S
C1659 C1651 1.433 . S
C1659 N1661 1.384 . S
N1660 C1656 1.427 . S
N1660 C1657 1.384 . S
N1661 C1653 1.427 . S
N1661 C1659 1.384 . S
H1662 C1668 0.930 . S
H1663 C1672 0.930 . S
H1664 C1677 0.929 . S
H1665 C1675 0.929 . S
H1666 C1670 0.929 . S
H1667 C1676 0.929 . S
C1668 H1662 0.930 . S
C1668 C1669 1.367 . S
C1668 C1676 1.378 . S
C1669 C1668 1.367 . S
C1669 C1677 1.433 . S
C1670 H1666 0.929 . S
C1670 C1672 1.378 . S
C1670 C1674 1.350 . S
C1671 C1674 1.463 . S
C1671 C1676 1.350 . S
C1671 N1679 1.427 . S
C1672 H1663 0.930 . S
C1672 C1670 1.378 . S
C1672 C1673 1.367 . S
C1673 C1672 1.367 . S
C1673 C1675 1.433 . S
C1674 C1670 1.350 . S
C1674 C1671 1.463 . S
C1674 N1678 1.427 . S
C1675 H1665 0.929 . S
C1675 C1673 1.433 . S
C1675 N1678 1.384 . S
C1676 H1667 0.929 . S
C1676 C1668 1.378 . S
C1676 C1671 1.350 . S
C1677 H1664 0.929 . S
C1677 C1669 1.433 . S
C1677 N1679 1.384 . S
N1678 C1674 1.427 . S
N1678 C1675 1.384 . S
N1679 C1671 1.427 . S
N1679 C1677 1.384 . S
H1680 C1686 0.930 . S
H1681 C1690 0.930 . S
H1682 C1695 0.929 . S
H1683 C1693 0.929 . S
H1684 C1688 0.929 . S
H1685 C1694 0.929 . S
C1686 H1680 0.930 . S
C1686 C1687 1.367 . S
C1686 C1694 1.378 . S
C1687 C1686 1.367 . S
C1687 C1695 1.433 . S
C1688 H1684 0.929 . S
C1688 C1690 1.378 . S
C1688 C1692 1.350 . S
C1689 C1692 1.463 . S
C1689 C1694 1.350 . S
C1689 N1697 1.427 . S
C1690 H1681 0.930 . S
C1690 C1688 1.378 . S
C1690 C1691 1.367 . S
C1691 C1690 1.367 . S
C1691 C1693 1.433 . S
C1692 C1688 1.350 . S
C1692 C1689 1.463 . S
C1692 N1696 1.427 . S
C1693 H1683 0.929 . S
C1693 C1691 1.433 . S
C1693 N1696 1.384 . S
C1694 H1685 0.929 . S
C1694 C1686 1.378 . S
C1694 C1689 1.350 . S
C1695 H1682 0.929 . S
C1695 C1687 1.433 . S
C1695 N1697 1.384 . S
N1696 C1692 1.427 . S
N1696 C1693 1.384 . S
N1697 C1689 1.427 . S
N1697 C1695 1.384 . S
H1698 C1704 0.930 . S
H1699 C1708 0.930 . S
H1700 C1713 0.929 . S
H1701 C1711 0.929 . S
H1702 C1706 0.929 . S
H1703 C1712 0.929 . S
C1704 H1698 0.930 . S
C1704 C1705 1.367 . S
C1704 C1712 1.378 . S
C1705 C1704 1.367 . S
C1705 C1713 1.433 . S
C1706 H1702 0.929 . S
C1706 C1708 1.378 . S
C1706 C1710 1.350 . S
C1707 C1710 1.463 . S
C1707 C1712 1.350 . S
C1707 N1715 1.427 . S
C1708 H1699 0.930 . S
C1708 C1706 1.378 . S
C1708 C1709 1.367 . S
C1709 C1708 1.367 . S
C1709 C1711 1.433 . S
C1710 C1706 1.350 . S
C1710 C1707 1.463 . S
C1710 N1714 1.427 . S
C1711 H1701 0.929 . S
C1711 C1709 1.433 . S
C1711 N1714 1.384 . S
C1712 H1703 0.929 . S
C1712 C1704 1.378 . S
C1712 C1707 1.350 . S
C1713 H1700 0.929 . S
C1713 C1705 1.433 . S
C1713 N1715 1.384 . S
N1714 C1710 1.427 . S
N1714 C1711 1.384 . S
N1715 C1707 1.427 . S
N1715 C1713 1.384 . S
H1716 C1722 0.930 . S
H1717 C1726 0.930 . S
H1718 C1731 0.929 . S
H1719 C1729 0.929 . S
H1720 C1724 0.929 . S
H1721 C1730 0.929 . S
C1722 H1716 0.930 . S
C1722 C1723 1.367 . S
C1722 C1730 1.378 . S
C1723 C1722 1.367 . S
C1723 C1731 1.433 . S
C1724 H1720 0.929 . S
C1724 C1726 1.378 . S
C1724 C1728 1.350 . S
C1725 C1728 1.463 . S
C1725 C1730 1.350 . S
C1725 N1733 1.427 . S
C1726 H1717 0.930 . S
C1726 C1724 1.378 . S
C1726 C1727 1.367 . S
C1727 C1726 1.367 . S
C1727 C1729 1.433 . S
C1728 C1724 1.350 . S
C1728 C1725 1.463 . S
C1728 N1732 1.427 . S
C1729 H1719 0.929 . S
C1729 C1727 1.433 . S
C1729 N1732 1.384 . S
C1730 H1721 0.929 . S
C1730 C1722 1.378 . S
C1730 C1725 1.350 . S
C1731 H1718 0.929 . S
C1731 C1723 1.433 . S
C1731 N1733 1.384 . S
N1732 C1728 1.427 . S
N1732 C1729 1.384 . S
N1733 C1725 1.427 . S
N1733 C1731 1.384 . S
H1734 C1740 0.930 . S
H1735 C1744 0.930 . S
H1736 C1749 0.929 . S
H1737 C1747 0.929 . S
H1738 C1742 0.929 . S
H1739 C1748 0.929 . S
C1740 H1734 0.930 . S
C1740 C1741 1.367 . S
C1740 C1748 1.378 . S
C1741 C1740 1.367 . S
C1741 C1749 1.433 . S
C1742 H1738 0.929 . S
C1742 C1744 1.378 . S
C1742 C1746 1.350 . S
C1743 C1746 1.463 . S
C1743 C1748 1.350 . S
C1743 N1751 1.427 . S
C1744 H1735 0.930 . S
C1744 C1742 1.378 . S
C1744 C1745 1.367 . S
C1745 C1744 1.367 . S
C1745 C1747 1.433 . S
C1746 C1742 1.350 . S
C1746 C1743 1.463 . S
C1746 N1750 1.427 . S
C1747 H1737 0.929 . S
C1747 C1745 1.433 . S
C1747 N1750 1.384 . S
C1748 H1739 0.929 . S
C1748 C1740 1.378 . S
C1748 C1743 1.350 . S
C1749 H1736 0.929 . S
C1749 C1741 1.433 . S
C1749 N1751 1.384 . S
N1750 C1746 1.427 . S
N1750 C1747 1.384 . S
N1751 C1743 1.427 . S
N1751 C1749 1.384 . S
H1752 C1758 0.930 . S
H1753 C1762 0.930 . S
H1754 C1767 0.929 . S
H1755 C1765 0.929 . S
H1756 C1760 0.929 . S
H1757 C1766 0.929 . S
C1758 H1752 0.930 . S
C1758 C1759 1.367 . S
C1758 C1766 1.378 . S
C1759 C1758 1.367 . S
C1759 C1767 1.433 . S
C1760 H1756 0.929 . S
C1760 C1762 1.378 . S
C1760 C1764 1.350 . S
C1761 C1764 1.463 . S
C1761 C1766 1.350 . S
C1761 N1769 1.427 . S
C1762 H1753 0.930 . S
C1762 C1760 1.378 . S
C1762 C1763 1.367 . S
C1763 C1762 1.367 . S
C1763 C1765 1.433 . S
C1764 C1760 1.350 . S
C1764 C1761 1.463 . S
C1764 N1768 1.427 . S
C1765 H1755 0.929 . S
C1765 C1763 1.433 . S
C1765 N1768 1.384 . S
C1766 H1757 0.929 . S
C1766 C1758 1.378 . S
C1766 C1761 1.350 . S
C1767 H1754 0.929 . S
C1767 C1759 1.433 . S
C1767 N1769 1.384 . S
N1768 C1764 1.427 . S
N1768 C1765 1.384 . S
N1769 C1761 1.427 . S
N1769 C1767 1.384 . S
H1770 C1776 0.930 . S
H1771 C1780 0.930 . S
H1772 C1785 0.929 . S
H1773 C1783 0.929 . S
H1774 C1778 0.929 . S
H1775 C1784 0.929 . S
C1776 H1770 0.930 . S
C1776 C1777 1.367 . S
C1776 C1784 1.378 . S
C1777 C1776 1.367 . S
C1777 C1785 1.433 . S
C1778 H1774 0.929 . S
C1778 C1780 1.378 . S
C1778 C1782 1.350 . S
C1779 C1782 1.463 . S
C1779 C1784 1.350 . S
C1779 N1787 1.427 . S
C1780 H1771 0.930 . S
C1780 C1778 1.378 . S
C1780 C1781 1.367 . S
C1781 C1780 1.367 . S
C1781 C1783 1.433 . S
C1782 C1778 1.350 . S
C1782 C1779 1.463 . S
C1782 N1786 1.427 . S
C1783 H1773 0.929 . S
C1783 C1781 1.433 . S
C1783 N1786 1.384 . S
C1784 H1775 0.929 . S
C1784 C1776 1.378 . S
C1784 C1779 1.350 . S
C1785 H1772 0.929 . S
C1785 C1777 1.433 . S
C1785 N1787 1.384 . S
N1786 C1782 1.427 . S
N1786 C1783 1.384 . S
N1787 C1779 1.427 . S
N1787 C1785 1.384 . S
H1788 C1794 0.930 . S
H1789 C1798 0.930 . S
H1790 C1803 0.929 . S
H1791 C1801 0.929 . S
H1792 C1796 0.929 . S
H1793 C1802 0.929 . S
C1794 H1788 0.930 . S
C1794 C1795 1.367 . S
C1794 C1802 1.378 . S
C1795 C1794 1.367 . S
C1795 C1803 1.433 . S
C1796 H1792 0.929 . S
C1796 C1798 1.378 . S
C1796 C1800 1.350 . S
C1797 C1800 1.463 . S
C1797 C1802 1.350 . S
C1797 N1805 1.427 . S
C1798 H1789 0.930 . S
C1798 C1796 1.378 . S
C1798 C1799 1.367 . S
C1799 C1798 1.367 . S
C1799 C1801 1.433 . S
C1800 C1796 1.350 . S
C1800 C1797 1.463 . S
C1800 N1804 1.427 . S
C1801 H1791 0.929 . S
C1801 C1799 1.433 . S
C1801 N1804 1.384 . S
C1802 H1793 0.929 . S
C1802 C1794 1.378 . S
C1802 C1797 1.350 . S
C1803 H1790 0.929 . S
C1803 C1795 1.433 . S
C1803 N1805 1.384 . S
N1804 C1800 1.427 . S
N1804 C1801 1.384 . S
N1805 C1797 1.427 . S
N1805 C1803 1.384 . S
H1806 C1812 0.930 . S
H1807 C1816 0.930 . S
H1808 C1821 0.929 . S
H1809 C1819 0.929 . S
H1810 C1814 0.929 . S
H1811 C1820 0.929 . S
C1812 H1806 0.930 . S
C1812 C1813 1.367 . S
C1812 C1820 1.378 . S
C1813 C1812 1.367 . S
C1813 C1821 1.433 . S
C1814 H1810 0.929 . S
C1814 C1816 1.378 . S
C1814 C1818 1.350 . S
C1815 C1818 1.463 . S
C1815 C1820 1.350 . S
C1815 N1823 1.427 . S
C1816 H1807 0.930 . S
C1816 C1814 1.378 . S
C1816 C1817 1.367 . S
C1817 C1816 1.367 . S
C1817 C1819 1.433 . S
C1818 C1814 1.350 . S
C1818 C1815 1.463 . S
C1818 N1822 1.427 . S
C1819 H1809 0.929 . S
C1819 C1817 1.433 . S
C1819 N1822 1.384 . S
C1820 H1811 0.929 . S
C1820 C1812 1.378 . S
C1820 C1815 1.350 . S
C1821 H1808 0.929 . S
C1821 C1813 1.433 . S
C1821 N1823 1.384 . S
N1822 C1818 1.427 . S
N1822 C1819 1.384 . S
N1823 C1815 1.427 . S
N1823 C1821 1.384 . S
H1824 C1830 0.930 . S
H1825 C1834 0.930 . S
H1826 C1839 0.929 . S
H1827 C1837 0.929 . S
H1828 C1832 0.929 . S
H1829 C1838 0.929 . S
C1830 H1824 0.930 . S
C1830 C1831 1.367 . S
C1830 C1838 1.378 . S
C1831 C1830 1.367 . S
C1831 C1839 1.433 . S
C1832 H1828 0.929 . S
C1832 C1834 1.378 . S
C1832 C1836 1.350 . S
C1833 C1836 1.463 . S
C1833 C1838 1.350 . S
C1833 N1841 1.427 . S
C1834 H1825 0.930 . S
C1834 C1832 1.378 . S
C1834 C1835 1.367 . S
C1835 C1834 1.367 . S
C1835 C1837 1.433 . S
C1836 C1832 1.350 . S
C1836 C1833 1.463 . S
C1836 N1840 1.427 . S
C1837 H1827 0.929 . S
C1837 C1835 1.433 . S
C1837 N1840 1.384 . S
C1838 H1829 0.929 . S
C1838 C1830 1.378 . S
C1838 C1833 1.350 . S
C1839 H1826 0.929 . S
C1839 C1831 1.433 . S
C1839 N1841 1.384 . S
N1840 C1836 1.427 . S
N1840 C1837 1.384 . S
N1841 C1833 1.427 . S
N1841 C1839 1.384 . S
H1842 C1848 0.930 . S
H1843 C1852 0.930 . S
H1844 C1857 0.929 . S
H1845 C1855 0.929 . S
H1846 C1850 0.929 . S
H1847 C1856 0.929 . S
C1848 H1842 0.930 . S
C1848 C1849 1.367 . S
C1848 C1856 1.378 1_556 S
C1849 C1848 1.367 . S
C1849 C1857 1.433 . S
C1850 H1846 0.929 . S
C1850 C1852 1.378 1_556 S
C1850 C1854 1.350 1_556 S
C1851 C1854 1.463 1_556 S
C1851 C1856 1.350 1_556 S
C1851 N1859 1.427 . S
C1852 H1843 0.930 . S
C1852 C1850 1.378 1_554 S
C1852 C1853 1.367 . S
C1853 C1852 1.367 . S
C1853 C1855 1.433 . S
C1854 C1850 1.350 1_554 S
C1854 C1851 1.463 1_554 S
C1854 N1858 1.427 . S
C1855 H1845 0.929 . S
C1855 C1853 1.433 . S
C1855 N1858 1.384 . S
C1856 H1847 0.929 . S
C1856 C1848 1.378 1_554 S
C1856 C1851 1.350 1_554 S
C1857 H1844 0.929 . S
C1857 C1849 1.433 . S
C1857 N1859 1.384 . S
N1858 C1854 1.427 . S
N1858 C1855 1.384 . S
N1859 C1851 1.427 . S
N1859 C1857 1.384 . S
H1860 C1866 0.930 . S
H1861 C1870 0.930 . S
H1862 C1875 0.929 . S
H1863 C1873 0.929 . S
H1864 C1868 0.929 . S
H1865 C1874 0.929 . S
C1866 H1860 0.930 . S
C1866 C1867 1.367 . S
C1866 C1874 1.378 . S
C1867 C1866 1.367 . S
C1867 C1875 1.433 . S
C1868 H1864 0.929 . S
C1868 C1870 1.378 . S
C1868 C1872 1.350 . S
C1869 C1872 1.463 . S
C1869 C1874 1.350 . S
C1869 N1877 1.427 . S
C1870 H1861 0.930 . S
C1870 C1868 1.378 . S
C1870 C1871 1.367 . S
C1871 C1870 1.367 . S
C1871 C1873 1.433 . S
C1872 C1868 1.350 . S
C1872 C1869 1.463 . S
C1872 N1876 1.427 . S
C1873 H1863 0.929 . S
C1873 C1871 1.433 . S
C1873 N1876 1.384 . S
C1874 H1865 0.929 . S
C1874 C1866 1.378 . S
C1874 C1869 1.350 . S
C1875 H1862 0.929 . S
C1875 C1867 1.433 . S
C1875 N1877 1.384 . S
N1876 C1872 1.427 . S
N1876 C1873 1.384 . S
N1877 C1869 1.427 . S
N1877 C1875 1.384 . S
H1878 C1884 0.930 . S
H1879 C1888 0.930 . S
H1880 C1893 0.929 . S
H1881 C1891 0.929 . S
H1882 C1886 0.907 1_565 S
H1883 C1892 0.907 1_545 S
C1884 H1878 0.930 . S
C1884 C1885 1.367 . S
C1884 C1892 1.378 . S
C1885 C1884 1.367 . S
C1885 C1893 1.433 . S
C1886 H1882 0.907 1_545 S
C1886 C1888 1.378 . S
C1886 C1890 1.350 . S
C1887 C1890 1.463 1_565 S
C1887 C1892 1.350 . S
C1887 N1895 1.427 . S
C1888 H1879 0.930 . S
C1888 C1886 1.378 . S
C1888 C1889 1.367 . S
C1889 C1888 1.367 . S
C1889 C1891 1.433 . S
C1890 C1886 1.350 . S
C1890 C1887 1.463 1_545 S
C1890 N1894 1.427 . S
C1891 H1881 0.929 . S
C1891 C1889 1.433 . S
C1891 N1894 1.384 . S
C1892 H1883 0.907 1_565 S
C1892 C1884 1.378 . S
C1892 C1887 1.350 . S
C1893 H1880 0.929 . S
C1893 C1885 1.433 . S
C1893 N1895 1.384 . S
N1894 C1890 1.427 . S
N1894 C1891 1.384 . S
N1895 C1887 1.427 . S
N1895 C1893 1.384 . S
H1896 C1902 0.930 . S
H1897 C1906 0.930 . S
H1898 C1911 0.929 . S
H1899 C1909 0.929 . S
H1900 C1904 0.929 . S
H1901 C1910 0.929 . S
C1902 H1896 0.930 . S
C1902 C1903 1.367 . S
C1902 C1910 1.378 . S
C1903 C1902 1.367 . S
C1903 C1911 1.433 . S
C1904 H1900 0.929 . S
C1904 C1906 1.378 . S
C1904 C1908 1.350 . S
C1905 C1908 1.463 . S
C1905 C1910 1.350 . S
C1905 N1913 1.427 . S
C1906 H1897 0.930 . S
C1906 C1904 1.378 . S
C1906 C1907 1.367 . S
C1907 C1906 1.367 . S
C1907 C1909 1.433 . S
C1908 C1904 1.350 . S
C1908 C1905 1.463 . S
C1908 N1912 1.427 . S
C1909 H1899 0.929 . S
C1909 C1907 1.433 . S
C1909 N1912 1.384 . S
C1910 H1901 0.929 . S
C1910 C1902 1.378 . S
C1910 C1905 1.350 . S
C1911 H1898 0.929 . S
C1911 C1903 1.433 . S
C1911 N1913 1.384 . S
N1912 C1908 1.427 . S
N1912 C1909 1.384 . S
N1913 C1905 1.427 . S
N1913 C1911 1.384 . S
H1914 C1920 0.930 . S
H1915 C1924 0.930 . S
H1916 C1929 0.929 . S
H1917 C1927 0.929 . S
H1918 C1922 0.929 . S
H1919 C1928 0.929 . S
C1920 H1914 0.930 . S
C1920 C1921 1.367 . S
C1920 C1928 1.378 . S
C1921 C1920 1.367 . S
C1921 C1929 1.433 . S
C1922 H1918 0.929 . S
C1922 C1924 1.378 . S
C1922 C1926 1.350 . S
C1923 C1926 1.463 . S
C1923 C1928 1.350 . S
C1923 N1931 1.427 . S
C1924 H1915 0.930 . S
C1924 C1922 1.378 . S
C1924 C1925 1.367 . S
C1925 C1924 1.367 . S
C1925 C1927 1.433 . S
C1926 C1922 1.350 . S
C1926 C1923 1.463 . S
C1926 N1930 1.427 . S
C1927 H1917 0.929 . S
C1927 C1925 1.433 . S
C1927 N1930 1.384 . S
C1928 H1919 0.929 . S
C1928 C1920 1.378 . S
C1928 C1923 1.350 . S
C1929 H1916 0.929 . S
C1929 C1921 1.433 . S
C1929 N1931 1.384 . S
N1930 C1926 1.427 . S
N1930 C1927 1.384 . S
N1931 C1923 1.427 . S
N1931 C1929 1.384 . S
H1932 C1938 0.930 . S
H1933 C1942 0.930 . S
H1934 C1947 0.929 . S
H1935 C1945 0.929 . S
H1936 C1940 0.929 . S
H1937 C1946 0.929 . S
C1938 H1932 0.930 . S
C1938 C1939 1.367 . S
C1938 C1946 1.378 . S
C1939 C1938 1.367 . S
C1939 C1947 1.433 . S
C1940 H1936 0.929 . S
C1940 C1942 1.378 . S
C1940 C1944 1.350 . S
C1941 C1944 1.463 . S
C1941 C1946 1.350 . S
C1941 N1949 1.427 . S
C1942 H1933 0.930 . S
C1942 C1940 1.378 . S
C1942 C1943 1.367 . S
C1943 C1942 1.367 . S
C1943 C1945 1.433 . S
C1944 C1940 1.350 . S
C1944 C1941 1.463 . S
C1944 N1948 1.427 . S
C1945 H1935 0.929 . S
C1945 C1943 1.433 . S
C1945 N1948 1.384 . S
C1946 H1937 0.929 . S
C1946 C1938 1.378 . S
C1946 C1941 1.350 . S
C1947 H1934 0.929 . S
C1947 C1939 1.433 . S
C1947 N1949 1.384 . S
N1948 C1944 1.427 . S
N1948 C1945 1.384 . S
N1949 C1941 1.427 . S
N1949 C1947 1.384 . S
H1950 C1956 0.930 . S
H1951 C1960 0.930 . S
H1952 C1965 0.929 . S
H1953 C1963 0.929 . S
H1954 C1958 0.929 . S
H1955 C1964 0.929 . S
C1956 H1950 0.930 . S
C1956 C1957 1.367 . S
C1956 C1964 1.378 . S
C1957 C1956 1.367 . S
C1957 C1965 1.433 . S
C1958 H1954 0.929 . S
C1958 C1960 1.378 . S
C1958 C1962 1.350 . S
C1959 C1962 1.463 1_556 S
C1959 C1964 1.350 . S
C1959 N1967 1.427 . S
C1960 H1951 0.930 . S
C1960 C1958 1.378 . S
C1960 C1961 1.367 . S
C1961 C1960 1.367 . S
C1961 C1963 1.433 . S
C1962 C1958 1.350 . S
C1962 C1959 1.463 1_554 S
C1962 N1966 1.427 . S
C1963 H1953 0.929 . S
C1963 C1961 1.433 . S
C1963 N1966 1.384 . S
C1964 H1955 0.929 . S
C1964 C1956 1.378 . S
C1964 C1959 1.350 . S
C1965 H1952 0.929 . S
C1965 C1957 1.433 . S
C1965 N1967 1.384 . S
N1966 C1962 1.427 . S
N1966 C1963 1.384 . S
N1967 C1959 1.427 . S
N1967 C1965 1.384 . S
H1968 C1974 0.930 . S
H1969 C1978 0.930 . S
H1970 C1983 0.929 . S
H1971 C1981 0.929 . S
H1972 C1976 0.929 . S
H1973 C1982 0.929 . S
C1974 H1968 0.930 . S
C1974 C1975 1.367 . S
C1974 C1982 1.378 . S
C1975 C1974 1.367 . S
C1975 C1983 1.433 . S
C1976 H1972 0.929 . S
C1976 C1978 1.378 . S
C1976 C1980 1.350 . S
C1977 C1980 1.463 . S
C1977 C1982 1.350 . S
C1977 N1985 1.427 . S
C1978 H1969 0.930 . S
C1978 C1976 1.378 . S
C1978 C1979 1.367 . S
C1979 C1978 1.367 . S
C1979 C1981 1.433 . S
C1980 C1976 1.350 . S
C1980 C1977 1.463 . S
C1980 N1984 1.427 . S
C1981 H1971 0.929 . S
C1981 C1979 1.433 . S
C1981 N1984 1.384 . S
C1982 H1973 0.929 . S
C1982 C1974 1.378 . S
C1982 C1977 1.350 . S
C1983 H1970 0.929 . S
C1983 C1975 1.433 . S
C1983 N1985 1.384 . S
N1984 C1980 1.427 . S
N1984 C1981 1.384 . S
N1985 C1977 1.427 . S
N1985 C1983 1.384 . S
H1986 C1992 0.930 . S
H1987 C1996 0.930 . S
H1988 C2001 0.929 . S
H1989 C1999 0.929 . S
H1990 C1994 0.929 . S
H1991 C2000 0.929 . S
C1992 H1986 0.930 . S
C1992 C1993 1.367 . S
C1992 C2000 1.378 . S
C1993 C1992 1.367 . S
C1993 C2001 1.433 . S
C1994 H1990 0.929 . S
C1994 C1996 1.378 . S
C1994 C1998 1.350 . S
C1995 C1998 1.463 1_556 S
C1995 C2000 1.350 . S
C1995 N2003 1.427 . S
C1996 H1987 0.930 . S
C1996 C1994 1.378 . S
C1996 C1997 1.367 . S
C1997 C1996 1.367 . S
C1997 C1999 1.433 . S
C1998 C1994 1.350 . S
C1998 C1995 1.463 1_554 S
C1998 N2002 1.427 . S
C1999 H1989 0.929 . S
C1999 C1997 1.433 . S
C1999 N2002 1.384 . S
C2000 H1991 0.929 . S
C2000 C1992 1.378 . S
C2000 C1995 1.350 . S
C2001 H1988 0.929 . S
C2001 C1993 1.433 . S
C2001 N2003 1.384 . S
N2002 C1998 1.427 . S
N2002 C1999 1.384 . S
N2003 C1995 1.427 . S
N2003 C2001 1.384 . S
H2004 C2010 0.930 . S
H2005 C2014 0.930 . S
H2006 C2019 0.929 . S
H2007 C2017 0.929 . S
H2008 C2012 0.929 1_565 S
H2009 C2018 0.929 1_545 S
C2010 H2004 0.930 . S
C2010 C2011 1.367 . S
C2010 C2018 1.378 . S
C2011 C2010 1.367 . S
C2011 C2019 1.433 . S
C2012 H2008 0.929 1_545 S
C2012 C2014 1.378 . S
C2012 C2016 1.350 . S
C2013 C2016 1.463 1_565 S
C2013 C2018 1.350 . S
C2013 N2021 1.427 . S
C2014 H2005 0.930 . S
C2014 C2012 1.378 . S
C2014 C2015 1.367 . S
C2015 C2014 1.367 . S
C2015 C2017 1.433 . S
C2016 C2012 1.350 . S
C2016 C2013 1.463 1_545 S
C2016 N2020 1.427 . S
C2017 H2007 0.929 . S
C2017 C2015 1.433 . S
C2017 N2020 1.384 . S
C2018 H2009 0.929 1_565 S
C2018 C2010 1.378 . S
C2018 C2013 1.350 . S
C2019 H2006 0.929 . S
C2019 C2011 1.433 . S
C2019 N2021 1.384 . S
N2020 C2016 1.427 . S
N2020 C2017 1.384 . S
N2021 C2013 1.427 . S
N2021 C2019 1.384 . S
H2022 C2028 0.930 . S
H2023 C2032 0.930 . S
H2024 C2037 0.929 . S
H2025 C2035 0.929 . S
H2026 C2030 0.929 . S
H2027 C2036 0.929 . S
C2028 H2022 0.930 . S
C2028 C2029 1.367 . S
C2028 C2036 1.378 . S
C2029 C2028 1.367 . S
C2029 C2037 1.433 . S
C2030 H2026 0.929 . S
C2030 C2032 1.378 . S
C2030 C2034 1.350 . S
C2031 C2034 1.463 . S
C2031 C2036 1.350 . S
C2031 N2039 1.427 . S
C2032 H2023 0.930 . S
C2032 C2030 1.378 . S
C2032 C2033 1.367 . S
C2033 C2032 1.367 . S
C2033 C2035 1.433 . S
C2034 C2030 1.350 . S
C2034 C2031 1.463 . S
C2034 N2038 1.427 . S
C2035 H2025 0.929 . S
C2035 C2033 1.433 . S
C2035 N2038 1.384 . S
C2036 H2027 0.929 . S
C2036 C2028 1.378 . S
C2036 C2031 1.350 . S
C2037 H2024 0.929 . S
C2037 C2029 1.433 . S
C2037 N2039 1.384 . S
N2038 C2034 1.427 . S
N2038 C2035 1.384 . S
N2039 C2031 1.427 . S
N2039 C2037 1.384 . S
H2040 C2046 0.930 . S
H2041 C2050 0.930 . S
H2042 C2055 0.929 . S
H2043 C2053 0.929 . S
H2044 C2048 0.929 . S
H2045 C2054 0.929 . S
C2046 H2040 0.930 . S
C2046 C2047 1.367 . S
C2046 C2054 1.378 . S
C2047 C2046 1.367 . S
C2047 C2055 1.433 . S
C2048 H2044 0.929 . S
C2048 C2050 1.378 . S
C2048 C2052 1.350 . S
C2049 C2052 1.463 1_565 S
C2049 C2054 1.350 . S
C2049 N2057 1.427 1_565 S
C2050 H2041 0.930 . S
C2050 C2048 1.378 . S
C2050 C2051 1.367 . S
C2051 C2050 1.367 . S
C2051 C2053 1.433 . S
C2052 C2048 1.350 . S
C2052 C2049 1.463 1_545 S
C2052 N2056 1.427 1_545 S
C2053 H2043 0.929 . S
C2053 C2051 1.433 . S
C2053 N2056 1.384 1_545 S
C2054 H2045 0.929 . S
C2054 C2046 1.378 . S
C2054 C2049 1.350 . S
C2055 H2042 0.929 . S
C2055 C2047 1.433 . S
C2055 N2057 1.384 1_565 S
N2056 C2052 1.427 1_565 S
N2056 C2053 1.384 1_565 S
N2057 C2049 1.427 1_545 S
N2057 C2055 1.384 1_545 S
H2058 C2064 0.930 . S
H2059 C2068 0.930 . S
H2060 C2073 0.929 . S
H2061 C2071 0.929 . S
H2062 C2066 0.929 . S
H2063 C2072 0.929 . S
C2064 H2058 0.930 . S
C2064 C2065 1.367 . S
C2064 C2072 1.378 . S
C2065 C2064 1.367 . S
C2065 C2073 1.433 . S
C2066 H2062 0.929 . S
C2066 C2068 1.378 . S
C2066 C2070 1.350 . S
C2067 C2070 1.463 . S
C2067 C2072 1.350 . S
C2067 N2075 1.427 . S
C2068 H2059 0.930 . S
C2068 C2066 1.378 . S
C2068 C2069 1.367 . S
C2069 C2068 1.367 . S
C2069 C2071 1.433 . S
C2070 C2066 1.350 . S
C2070 C2067 1.463 . S
C2070 N2074 1.427 . S
C2071 H2061 0.929 . S
C2071 C2069 1.433 . S
C2071 N2074 1.384 . S
C2072 H2063 0.929 . S
C2072 C2064 1.378 . S
C2072 C2067 1.350 . S
C2073 H2060 0.929 . S
C2073 C2065 1.433 . S
C2073 N2075 1.384 . S
N2074 C2070 1.427 . S
N2074 C2071 1.384 . S
N2075 C2067 1.427 . S
N2075 C2073 1.384 . S
H2076 C2082 0.930 . S
H2077 C2086 0.930 . S
H2078 C2091 0.929 . S
H2079 C2089 0.929 . S
H2080 C2084 0.929 . S
H2081 C2090 0.929 . S
C2082 H2076 0.930 . S
C2082 C2083 1.367 . S
C2082 C2090 1.378 . S
C2083 C2082 1.367 . S
C2083 C2091 1.433 . S
C2084 H2080 0.929 . S
C2084 C2086 1.378 . S
C2084 C2088 1.350 . S
C2085 C2088 1.463 . S
C2085 C2090 1.350 . S
C2085 N2093 1.427 . S
C2086 H2077 0.930 . S
C2086 C2084 1.378 . S
C2086 C2087 1.367 . S
C2087 C2086 1.367 . S
C2087 C2089 1.433 . S
C2088 C2084 1.350 . S
C2088 C2085 1.463 . S
C2088 N2092 1.427 . S
C2089 H2079 0.929 . S
C2089 C2087 1.433 . S
C2089 N2092 1.384 . S
C2090 H2081 0.929 . S
C2090 C2082 1.378 . S
C2090 C2085 1.350 . S
C2091 H2078 0.929 . S
C2091 C2083 1.433 . S
C2091 N2093 1.384 . S
N2092 C2088 1.427 . S
N2092 C2089 1.384 . S
N2093 C2085 1.427 . S
N2093 C2091 1.384 . S
H2094 C2100 0.930 . S
H2095 C2104 0.930 . S
H2096 C2109 0.929 . S
H2097 C2107 0.929 . S
H2098 C2102 0.929 . S
H2099 C2108 0.929 . S
C2100 H2094 0.930 . S
C2100 C2101 1.367 . S
C2100 C2108 1.378 . S
C2101 C2100 1.367 . S
C2101 C2109 1.433 . S
C2102 H2098 0.929 . S
C2102 C2104 1.378 . S
C2102 C2106 1.350 . S
C2103 C2106 1.463 . S
C2103 C2108 1.350 . S
C2103 N2111 1.427 . S
C2104 H2095 0.930 . S
C2104 C2102 1.378 . S
C2104 C2105 1.367 . S
C2105 C2104 1.367 . S
C2105 C2107 1.433 . S
C2106 C2102 1.350 . S
C2106 C2103 1.463 . S
C2106 N2110 1.427 . S
C2107 H2097 0.929 . S
C2107 C2105 1.433 . S
C2107 N2110 1.384 . S
C2108 H2099 0.929 . S
C2108 C2100 1.378 . S
C2108 C2103 1.350 . S
C2109 H2096 0.929 . S
C2109 C2101 1.433 . S
C2109 N2111 1.384 . S
N2110 C2106 1.427 . S
N2110 C2107 1.384 . S
N2111 C2103 1.427 . S
N2111 C2109 1.384 . S
H2112 C2118 0.930 . S
H2113 C2122 0.930 . S
H2114 C2127 0.929 . S
H2115 C2125 0.929 . S
H2116 C2120 0.929 1_455 S
H2117 C2126 0.929 . S
C2118 H2112 0.930 . S
C2118 C2119 1.367 . S
C2118 C2126 1.378 . S
C2119 C2118 1.367 . S
C2119 C2127 1.433 . S
C2120 H2116 0.929 1_655 S
C2120 C2122 1.378 . S
C2120 C2124 1.349 1_655 S
C2121 C2124 1.466 . S
C2121 C2126 1.350 . S
C2121 N2129 1.427 . S
C2122 H2113 0.930 . S
C2122 C2120 1.378 . S
C2122 C2123 1.367 . S
C2123 C2122 1.367 . S
C2123 C2125 1.433 . S
C2124 C2120 1.349 1_455 S
C2124 C2121 1.466 . S
C2124 N2128 1.425 1_455 S
C2125 H2115 0.929 . S
C2125 C2123 1.433 . S
C2125 N2128 1.384 . S
C2126 H2117 0.929 . S
C2126 C2118 1.378 . S
C2126 C2121 1.350 . S
C2127 H2114 0.929 . S
C2127 C2119 1.433 . S
C2127 N2129 1.384 . S
N2128 C2124 1.425 1_655 S
N2128 C2125 1.384 . S
N2129 C2121 1.427 . S
N2129 C2127 1.384 . S
H2130 C2136 0.930 . S
H2131 C2140 0.930 . S
H2132 C2145 0.929 . S
H2133 C2143 0.929 . S
H2134 C2138 0.925 . S
H2135 C2144 0.929 . S
C2136 H2130 0.930 . S
C2136 C2137 1.367 . S
C2136 C2144 1.378 1_655 S
C2137 C2136 1.367 . S
C2137 C2145 1.433 . S
C2138 H2134 0.925 . S
C2138 C2140 1.378 . S
C2138 C2142 1.350 . S
C2139 C2142 1.473 . S
C2139 C2144 1.353 . S
C2139 N2147 1.414 1_455 S
C2140 H2131 0.930 . S
C2140 C2138 1.378 . S
C2140 C2141 1.367 . S
C2141 C2140 1.367 . S
C2141 C2143 1.433 . S
C2142 C2138 1.350 . S
C2142 C2139 1.473 . S
C2142 N2146 1.427 . S
C2143 H2133 0.929 . S
C2143 C2141 1.433 . S
C2143 N2146 1.384 . S
C2144 H2135 0.929 . S
C2144 C2136 1.378 1_455 S
C2144 C2139 1.353 . S
C2145 H2132 0.929 . S
C2145 C2137 1.433 . S
C2145 N2147 1.384 . S
N2146 C2142 1.427 . S
N2146 C2143 1.384 . S
N2147 C2139 1.414 1_655 S
N2147 C2145 1.384 . S
H2148 C2154 0.930 . S
H2149 C2158 0.930 . S
H2150 C2163 0.929 . S
H2151 C2161 0.929 . S
H2152 C2156 0.950 . S
H2153 C2162 0.929 . S
C2154 H2148 0.930 . S
C2154 C2155 1.367 . S
C2154 C2162 1.378 . S
C2155 C2154 1.367 . S
C2155 C2163 1.433 . S
C2156 H2152 0.950 . S
C2156 C2158 1.357 1_655 S
C2156 C2160 1.350 . S
C2157 C2160 1.470 . S
C2157 C2162 1.350 . S
C2157 N2165 1.427 . S
C2158 H2149 0.930 . S
C2158 C2156 1.357 1_455 S
C2158 C2159 1.367 . S
C2159 C2158 1.367 . S
C2159 C2161 1.433 . S
C2160 C2156 1.350 . S
C2160 C2157 1.470 . S
C2160 N2164 1.419 1_655 S
C2161 H2151 0.929 . S
C2161 C2159 1.433 . S
C2161 N2164 1.384 . S
C2162 H2153 0.929 . S
C2162 C2154 1.378 . S
C2162 C2157 1.350 . S
C2163 H2150 0.929 . S
C2163 C2155 1.433 . S
C2163 N2165 1.384 . S
N2164 C2160 1.419 1_455 S
N2164 C2161 1.384 . S
N2165 C2157 1.427 . S
N2165 C2163 1.384 . S
H2166 C2172 0.930 . S
H2167 C2176 0.930 1_655 S
H2168 C2181 0.929 . S
H2169 C2179 0.929 . S
H2170 C2174 0.929 . S
H2171 C2180 0.929 1_455 S
C2172 H2166 0.930 . S
C2172 C2173 1.367 . S
C2172 C2180 1.378 . S
C2173 C2172 1.367 . S
C2173 C2181 1.433 . S
C2174 H2170 0.929 . S
C2174 C2176 1.378 1_655 S
C2174 C2178 1.363 . S
C2175 C2178 1.480 . S
C2175 C2180 1.350 . S
C2175 N2183 1.427 . S
C2176 H2167 0.930 1_455 S
C2176 C2174 1.378 1_455 S
C2176 C2177 1.367 . S
C2177 C2176 1.367 . S
C2177 C2179 1.433 . S
C2178 C2174 1.363 . S
C2178 C2175 1.480 . S
C2178 N2182 1.396 1_655 S
C2179 H2169 0.929 . S
C2179 C2177 1.433 . S
C2179 N2182 1.384 . S
C2180 H2171 0.929 1_655 S
C2180 C2172 1.378 . S
C2180 C2175 1.350 . S
C2181 H2168 0.929 . S
C2181 C2173 1.433 . S
C2181 N2183 1.384 . S
N2182 C2178 1.396 1_455 S
N2182 C2179 1.384 . S
N2183 C2175 1.427 . S
N2183 C2181 1.384 . S
H2184 C2190 0.930 . S
H2185 C2194 0.930 . S
H2186 C2199 0.929 . S
H2187 C2197 0.929 . S
H2188 C2192 0.929 . S
H2189 C2198 0.929 1_655 S
C2190 H2184 0.930 . S
C2190 C2191 1.367 . S
C2190 C2198 1.378 . S
C2191 C2190 1.367 . S
C2191 C2199 1.433 . S
C2192 H2188 0.929 . S
C2192 C2194 1.378 1_455 S
C2192 C2196 1.355 . S
C2193 C2196 1.475 . S
C2193 C2198 1.350 . S
C2193 N2201 1.427 . S
C2194 H2185 0.930 . S
C2194 C2192 1.378 1_655 S
C2194 C2195 1.367 . S
C2195 C2194 1.367 . S
C2195 C2197 1.433 . S
C2196 C2192 1.355 . S
C2196 C2193 1.475 . S
C2196 N2200 1.410 1_455 S
C2197 H2187 0.929 . S
C2197 C2195 1.433 . S
C2197 N2200 1.384 . S
C2198 H2189 0.929 1_455 S
C2198 C2190 1.378 . S
C2198 C2193 1.350 . S
C2199 H2186 0.929 . S
C2199 C2191 1.433 . S
C2199 N2201 1.384 . S
N2200 C2196 1.410 1_655 S
N2200 C2197 1.384 . S
N2201 C2193 1.427 . S
N2201 C2199 1.384 . S
H2202 C2208 0.930 . S
H2203 C2212 0.930 . S
H2204 C2217 0.929 . S
H2205 C2215 0.929 . S
H2206 C2210 0.929 . S
H2207 C2216 0.929 . S
C2208 H2202 0.930 . S
C2208 C2209 1.367 . S
C2208 C2216 1.378 . S
C2209 C2208 1.367 . S
C2209 C2217 1.433 . S
C2210 H2206 0.929 . S
C2210 C2212 1.378 . S
C2210 C2214 1.350 . S
C2211 C2214 1.463 . S
C2211 C2216 1.350 . S
C2211 N2219 1.427 . S
C2212 H2203 0.930 . S
C2212 C2210 1.378 . S
C2212 C2213 1.367 . S
C2213 C2212 1.367 . S
C2213 C2215 1.433 . S
C2214 C2210 1.350 . S
C2214 C2211 1.463 . S
C2214 N2218 1.427 . S
C2215 H2205 0.929 . S
C2215 C2213 1.433 . S
C2215 N2218 1.384 . S
C2216 H2207 0.929 . S
C2216 C2208 1.378 . S
C2216 C2211 1.350 . S
C2217 H2204 0.929 . S
C2217 C2209 1.433 . S
C2217 N2219 1.384 . S
N2218 C2214 1.427 . S
N2218 C2215 1.384 . S
N2219 C2211 1.427 . S
N2219 C2217 1.384 . S
H2220 C2226 0.930 . S
H2221 C2230 0.930 . S
H2222 C2235 0.929 . S
H2223 C2233 0.929 . S
H2224 C2228 0.929 1_655 S
H2225 C2234 0.929 . S
C2226 H2220 0.930 . S
C2226 C2227 1.367 . S
C2226 C2234 1.378 . S
C2227 C2226 1.367 . S
C2227 C2235 1.433 . S
C2228 H2224 0.929 1_455 S
C2228 C2230 1.378 . S
C2228 C2232 1.349 1_455 S
C2229 C2232 1.467 . S
C2229 C2234 1.350 . S
C2229 N2237 1.427 . S
C2230 H2221 0.930 . S
C2230 C2228 1.378 . S
C2230 C2231 1.367 . S
C2231 C2230 1.367 . S
C2231 C2233 1.433 . S
C2232 C2228 1.349 1_655 S
C2232 C2229 1.467 . S
C2232 N2236 1.423 1_655 S
C2233 H2223 0.929 . S
C2233 C2231 1.433 . S
C2233 N2236 1.384 . S
C2234 H2225 0.929 . S
C2234 C2226 1.378 . S
C2234 C2229 1.350 . S
C2235 H2222 0.929 . S
C2235 C2227 1.433 . S
C2235 N2237 1.384 . S
N2236 C2232 1.423 1_455 S
N2236 C2233 1.384 . S
N2237 C2229 1.427 . S
N2237 C2235 1.384 . S
H2238 C2244 0.930 . S
H2239 C2248 0.930 . S
H2240 C2253 0.929 . S
H2241 C2251 0.929 . S
H2242 C2246 0.929 . S
H2243 C2252 0.929 . S
C2244 H2238 0.930 . S
C2244 C2245 1.367 . S
C2244 C2252 1.378 . S
C2245 C2244 1.367 . S
C2245 C2253 1.433 . S
C2246 H2242 0.929 . S
C2246 C2248 1.378 . S
C2246 C2250 1.350 . S
C2247 C2250 1.463 . S
C2247 C2252 1.350 . S
C2247 N2255 1.427 . S
C2248 H2239 0.930 . S
C2248 C2246 1.378 . S
C2248 C2249 1.367 . S
C2249 C2248 1.367 . S
C2249 C2251 1.433 . S
C2250 C2246 1.350 . S
C2250 C2247 1.463 . S
C2250 N2254 1.427 . S
C2251 H2241 0.929 . S
C2251 C2249 1.433 . S
C2251 N2254 1.384 . S
C2252 H2243 0.929 . S
C2252 C2244 1.378 . S
C2252 C2247 1.350 . S
C2253 H2240 0.929 . S
C2253 C2245 1.433 . S
C2253 N2255 1.384 . S
N2254 C2250 1.427 . S
N2254 C2251 1.384 . S
N2255 C2247 1.427 . S
N2255 C2253 1.384 . S
H2256 C2262 0.930 . S
H2257 C2266 0.930 . S
H2258 C2271 0.929 . S
H2259 C2269 0.929 . S
H2260 C2264 0.929 . S
H2261 C2270 0.929 . S
C2262 H2256 0.930 . S
C2262 C2263 1.367 . S
C2262 C2270 1.378 . S
C2263 C2262 1.367 . S
C2263 C2271 1.433 . S
C2264 H2260 0.929 . S
C2264 C2266 1.378 1_545 S
C2264 C2268 1.351 . S
C2265 C2268 1.471 . S
C2265 C2270 1.350 . S
C2265 N2273 1.427 . S
C2266 H2257 0.930 . S
C2266 C2264 1.378 1_565 S
C2266 C2267 1.367 . S
C2267 C2266 1.367 . S
C2267 C2269 1.433 . S
C2268 C2264 1.351 . S
C2268 C2265 1.471 . S
C2268 N2272 1.418 1_545 S
C2269 H2259 0.929 . S
C2269 C2267 1.433 . S
C2269 N2272 1.384 . S
C2270 H2261 0.929 . S
C2270 C2262 1.378 . S
C2270 C2265 1.350 . S
C2271 H2258 0.929 . S
C2271 C2263 1.433 . S
C2271 N2273 1.384 . S
N2272 C2268 1.418 1_565 S
N2272 C2269 1.384 . S
N2273 C2265 1.427 . S
N2273 C2271 1.384 . S
H2274 C2280 0.930 . S
H2275 C2284 0.930 . S
H2276 C2289 0.929 . S
H2277 C2287 0.929 . S
H2278 C2282 0.929 . S
H2279 C2288 0.929 . S
C2280 H2274 0.930 . S
C2280 C2281 1.367 . S
C2280 C2288 1.378 . S
C2281 C2280 1.367 . S
C2281 C2289 1.433 . S
C2282 H2278 0.929 . S
C2282 C2284 1.378 . S
C2282 C2286 1.350 . S
C2283 C2286 1.463 . S
C2283 C2288 1.350 . S
C2283 N2291 1.427 . S
C2284 H2275 0.930 . S
C2284 C2282 1.378 . S
C2284 C2285 1.367 . S
C2285 C2284 1.367 . S
C2285 C2287 1.433 . S
C2286 C2282 1.350 . S
C2286 C2283 1.463 . S
C2286 N2290 1.427 . S
C2287 H2277 0.929 . S
C2287 C2285 1.433 . S
C2287 N2290 1.384 . S
C2288 H2279 0.929 . S
C2288 C2280 1.378 . S
C2288 C2283 1.350 . S
C2289 H2276 0.929 . S
C2289 C2281 1.433 . S
C2289 N2291 1.384 . S
N2290 C2286 1.427 . S
N2290 C2287 1.384 . S
N2291 C2283 1.427 . S
N2291 C2289 1.384 . S
H2292 C2298 0.930 . S
H2293 C2302 0.930 . S
H2294 C2307 0.929 . S
H2295 C2305 0.929 . S
H2296 C2300 0.929 . S
H2297 C2306 0.929 . S
C2298 H2292 0.930 . S
C2298 C2299 1.367 . S
C2298 C2306 1.378 . S
C2299 C2298 1.367 . S
C2299 C2307 1.433 . S
C2300 H2296 0.929 . S
C2300 C2302 1.378 . S
C2300 C2304 1.350 . S
C2301 C2304 1.463 . S
C2301 C2306 1.350 . S
C2301 N2309 1.427 . S
C2302 H2293 0.930 . S
C2302 C2300 1.378 . S
C2302 C2303 1.367 . S
C2303 C2302 1.367 . S
C2303 C2305 1.433 . S
C2304 C2300 1.350 . S
C2304 C2301 1.463 . S
C2304 N2308 1.427 . S
C2305 H2295 0.929 . S
C2305 C2303 1.433 . S
C2305 N2308 1.384 . S
C2306 H2297 0.929 . S
C2306 C2298 1.378 . S
C2306 C2301 1.350 . S
C2307 H2294 0.929 . S
C2307 C2299 1.433 . S
C2307 N2309 1.384 . S
N2308 C2304 1.427 . S
N2308 C2305 1.384 . S
N2309 C2301 1.427 . S
N2309 C2307 1.384 . S
H2310 C2316 0.930 . S
H2311 C2320 0.930 . S
H2312 C2325 0.929 1_556 S
H2313 C2323 0.929 . S
H2314 C2318 0.929 . S
H2315 C2324 0.929 . S
C2316 H2310 0.930 . S
C2316 C2317 1.367 . S
C2316 C2324 1.378 . S
C2317 C2316 1.367 . S
C2317 C2325 1.433 . S
C2318 H2314 0.929 . S
C2318 C2320 1.378 . S
C2318 C2322 1.350 . S
C2319 C2322 1.451 1_554 S
C2319 C2324 1.367 . S
C2319 N2327 1.420 1_554 S
C2320 H2311 0.930 . S
C2320 C2318 1.378 . S
C2320 C2321 1.367 . S
C2321 C2320 1.367 . S
C2321 C2323 1.433 . S
C2322 C2318 1.350 . S
C2322 C2319 1.451 1_556 S
C2322 N2326 1.427 . S
C2323 H2313 0.929 . S
C2323 C2321 1.433 . S
C2323 N2326 1.384 . S
C2324 H2315 0.929 . S
C2324 C2316 1.378 . S
C2324 C2319 1.367 . S
C2325 H2312 0.929 1_554 S
C2325 C2317 1.433 . S
C2325 N2327 1.384 1_554 S
N2326 C2322 1.427 . S
N2326 C2323 1.384 . S
N2327 C2319 1.420 1_556 S
N2327 C2325 1.384 1_556 S
H2328 C2334 0.930 1_565 S
H2329 C2338 0.930 . S
H2330 C2343 0.929 . S
H2331 C2341 0.929 . S
H2332 C2336 0.929 1_545 S
H2333 C2342 0.929 . S
C2334 H2328 0.930 1_545 S
C2334 C2335 1.367 . S
C2334 C2342 1.378 1_545 S
C2335 C2334 1.367 . S
C2335 C2343 1.433 . S
C2336 H2332 0.929 1_565 S
C2336 C2338 1.378 . S
C2336 C2340 1.350 . S
C2337 C2340 1.480 . S
C2337 C2342 1.363 . S
C2337 N2345 1.396 1_565 S
C2338 H2329 0.930 . S
C2338 C2336 1.378 . S
C2338 C2339 1.367 . S
C2339 C2338 1.367 . S
C2339 C2341 1.433 . S
C2340 C2336 1.350 . S
C2340 C2337 1.480 . S
C2340 N2344 1.427 . S
C2341 H2331 0.929 . S
C2341 C2339 1.433 . S
C2341 N2344 1.384 . S
C2342 H2333 0.929 . S
C2342 C2334 1.378 1_565 S
C2342 C2337 1.363 . S
C2343 H2330 0.929 . S
C2343 C2335 1.433 . S
C2343 N2345 1.384 . S
N2344 C2340 1.427 . S
N2344 C2341 1.384 . S
N2345 C2337 1.396 1_545 S
N2345 C2343 1.384 . S
H2346 C2352 0.930 . S
H2347 C2356 0.930 . S
H2348 C2361 0.929 . S
H2349 C2359 0.929 . S
H2350 C2354 0.929 1_554 S
H2351 C2360 0.929 . S
C2352 H2346 0.930 . S
C2352 C2353 1.367 . S
C2352 C2360 1.378 . S
C2353 C2352 1.367 . S
C2353 C2361 1.433 . S
C2354 H2350 0.929 1_556 S
C2354 C2356 1.378 . S
C2354 C2358 1.349 1_556 S
C2355 C2358 1.464 . S
C2355 C2360 1.350 . S
C2355 N2363 1.427 . S
C2356 H2347 0.930 . S
C2356 C2354 1.378 . S
C2356 C2357 1.367 . S
C2357 C2356 1.367 . S
C2357 C2359 1.433 . S
C2358 C2354 1.349 1_554 S
C2358 C2355 1.464 . S
C2358 N2362 1.426 1_554 S
C2359 H2349 0.929 . S
C2359 C2357 1.433 . S
C2359 N2362 1.384 . S
C2360 H2351 0.929 . S
C2360 C2352 1.378 . S
C2360 C2355 1.350 . S
C2361 H2348 0.929 . S
C2361 C2353 1.433 . S
C2361 N2363 1.384 . S
N2362 C2358 1.426 1_556 S
N2362 C2359 1.384 . S
N2363 C2355 1.427 . S
N2363 C2361 1.384 . S
H2364 C2370 0.930 . S
H2365 C2374 0.930 . S
H2366 C2379 0.929 . S
H2367 C2377 0.929 . S
H2368 C2372 0.929 . S
H2369 C2378 0.929 . S
C2370 H2364 0.930 . S
C2370 C2371 1.367 . S
C2370 C2378 1.378 . S
C2371 C2370 1.367 . S
C2371 C2379 1.433 . S
C2372 H2368 0.929 . S
C2372 C2374 1.378 . S
C2372 C2376 1.350 . S
C2373 C2376 1.463 . S
C2373 C2378 1.350 . S
C2373 N2381 1.427 . S
C2374 H2365 0.930 . S
C2374 C2372 1.378 . S
C2374 C2375 1.367 . S
C2375 C2374 1.367 . S
C2375 C2377 1.433 . S
C2376 C2372 1.350 . S
C2376 C2373 1.463 . S
C2376 N2380 1.427 . S
C2377 H2367 0.929 . S
C2377 C2375 1.433 . S
C2377 N2380 1.384 . S
C2378 H2369 0.929 . S
C2378 C2370 1.378 . S
C2378 C2373 1.350 . S
C2379 H2366 0.929 . S
C2379 C2371 1.433 . S
C2379 N2381 1.384 . S
N2380 C2376 1.427 . S
N2380 C2377 1.384 . S
N2381 C2373 1.427 . S
N2381 C2379 1.384 . S
H2382 C2388 0.930 . S
H2383 C2392 0.930 . S
H2384 C2397 0.929 . S
H2385 C2395 0.929 . S
H2386 C2390 0.929 . S
H2387 C2396 0.929 . S
C2388 H2382 0.930 . S
C2388 C2389 1.367 . S
C2388 C2396 1.378 . S
C2389 C2388 1.367 . S
C2389 C2397 1.433 . S
C2390 H2386 0.929 . S
C2390 C2392 1.378 . S
C2390 C2394 1.350 . S
C2391 C2394 1.463 . S
C2391 C2396 1.350 . S
C2391 N2399 1.427 . S
C2392 H2383 0.930 . S
C2392 C2390 1.378 . S
C2392 C2393 1.367 . S
C2393 C2392 1.367 . S
C2393 C2395 1.433 . S
C2394 C2390 1.350 . S
C2394 C2391 1.463 . S
C2394 N2398 1.427 . S
C2395 H2385 0.929 . S
C2395 C2393 1.433 . S
C2395 N2398 1.384 . S
C2396 H2387 0.929 . S
C2396 C2388 1.378 . S
C2396 C2391 1.350 . S
C2397 H2384 0.929 . S
C2397 C2389 1.433 . S
C2397 N2399 1.384 . S
N2398 C2394 1.427 . S
N2398 C2395 1.384 . S
N2399 C2391 1.427 . S
N2399 C2397 1.384 . S
H2400 C2406 0.930 . S
H2401 C2410 0.930 . S
H2402 C2415 0.929 1_554 S
H2403 C2413 0.929 . S
H2404 C2408 0.929 . S
H2405 C2414 0.929 . S
C2406 H2400 0.930 . S
C2406 C2407 1.367 . S
C2406 C2414 1.378 . S
C2407 C2406 1.367 . S
C2407 C2415 1.433 . S
C2408 H2404 0.929 . S
C2408 C2410 1.378 . S
C2408 C2412 1.350 . S
C2409 C2412 1.451 1_556 S
C2409 C2414 1.367 . S
C2409 N2417 1.420 1_556 S
C2410 H2401 0.930 . S
C2410 C2408 1.378 . S
C2410 C2411 1.367 . S
C2411 C2410 1.367 . S
C2411 C2413 1.433 . S
C2412 C2408 1.350 . S
C2412 C2409 1.451 1_554 S
C2412 N2416 1.427 . S
C2413 H2403 0.929 . S
C2413 C2411 1.433 . S
C2413 N2416 1.384 . S
C2414 H2405 0.929 . S
C2414 C2406 1.378 . S
C2414 C2409 1.367 . S
C2415 H2402 0.929 1_556 S
C2415 C2407 1.433 . S
C2415 N2417 1.384 1_556 S
N2416 C2412 1.427 . S
N2416 C2413 1.384 . S
N2417 C2409 1.420 1_554 S
N2417 C2415 1.384 1_554 S
H2418 C2424 0.930 . S
H2419 C2428 0.930 . S
H2420 C2433 0.929 . S
H2421 C2431 0.929 . S
H2422 C2426 0.929 . S
H2423 C2432 0.929 . S
C2424 H2418 0.930 . S
C2424 C2425 1.367 . S
C2424 C2432 1.378 . S
C2425 C2424 1.367 . S
C2425 C2433 1.433 . S
C2426 H2422 0.929 . S
C2426 C2428 1.378 . S
C2426 C2430 1.350 . S
C2427 C2430 1.463 . S
C2427 C2432 1.350 . S
C2427 N2435 1.427 . S
C2428 H2419 0.930 . S
C2428 C2426 1.378 . S
C2428 C2429 1.367 . S
C2429 C2428 1.367 . S
C2429 C2431 1.433 . S
C2430 C2426 1.350 . S
C2430 C2427 1.463 . S
C2430 N2434 1.427 . S
C2431 H2421 0.929 . S
C2431 C2429 1.433 . S
C2431 N2434 1.384 . S
C2432 H2423 0.929 . S
C2432 C2424 1.378 . S
C2432 C2427 1.350 . S
C2433 H2420 0.929 . S
C2433 C2425 1.433 . S
C2433 N2435 1.384 . S
N2434 C2430 1.427 . S
N2434 C2431 1.384 . S
N2435 C2427 1.427 . S
N2435 C2433 1.384 . S
H2436 C2442 0.930 . S
H2437 C2446 0.930 . S
H2438 C2451 0.929 . S
H2439 C2449 0.929 . S
H2440 C2444 0.929 . S
H2441 C2450 0.945 . S
C2442 H2436 0.930 . S
C2442 C2443 1.367 . S
C2442 C2450 1.362 1_545 S
C2443 C2442 1.367 . S
C2443 C2451 1.433 . S
C2444 H2440 0.929 . S
C2444 C2446 1.378 . S
C2444 C2448 1.350 . S
C2445 C2448 1.470 . S
C2445 C2450 1.350 . S
C2445 N2453 1.420 1_565 S
C2446 H2437 0.930 . S
C2446 C2444 1.378 . S
C2446 C2447 1.367 . S
C2447 C2446 1.367 . S
C2447 C2449 1.433 . S
C2448 C2444 1.350 . S
C2448 C2445 1.470 . S
C2448 N2452 1.427 . S
C2449 H2439 0.929 . S
C2449 C2447 1.433 . S
C2449 N2452 1.384 . S
C2450 H2441 0.945 . S
C2450 C2442 1.362 1_565 S
C2450 C2445 1.350 . S
C2451 H2438 0.929 . S
C2451 C2443 1.433 . S
C2451 N2453 1.384 . S
N2452 C2448 1.427 . S
N2452 C2449 1.384 . S
N2453 C2445 1.420 1_545 S
N2453 C2451 1.384 . S
H2454 C2460 0.930 . S
H2455 C2464 0.930 . S
H2456 C2469 0.929 . S
H2457 C2467 0.929 . S
H2458 C2462 0.929 . S
H2459 C2468 0.929 . S
C2460 H2454 0.930 . S
C2460 C2461 1.367 . S
C2460 C2468 1.378 . S
C2461 C2460 1.367 . S
C2461 C2469 1.433 . S
C2462 H2458 0.929 . S
C2462 C2464 1.378 . S
C2462 C2466 1.350 . S
C2463 C2466 1.463 1_556 S
C2463 C2468 1.350 . S
C2463 N2471 1.427 . S
C2464 H2455 0.930 . S
C2464 C2462 1.378 . S
C2464 C2465 1.367 . S
C2465 C2464 1.367 . S
C2465 C2467 1.433 . S
C2466 C2462 1.350 . S
C2466 C2463 1.463 1_554 S
C2466 N2470 1.426 1_554 S
C2467 H2457 0.929 . S
C2467 C2465 1.433 . S
C2467 N2470 1.360 1_554 S
C2468 H2459 0.929 . S
C2468 C2460 1.378 . S
C2468 C2463 1.350 . S
C2469 H2456 0.929 . S
C2469 C2461 1.433 . S
C2469 N2471 1.384 . S
N2470 C2466 1.426 1_556 S
N2470 C2467 1.360 1_556 S
N2471 C2463 1.427 . S
N2471 C2469 1.384 . S
H2472 C2478 0.930 . S
H2473 C2482 0.930 . S
H2474 C2487 0.929 . S
H2475 C2485 0.929 . S
H2476 C2480 0.929 . S
H2477 C2486 0.949 . S
C2478 H2472 0.930 . S
C2478 C2479 1.367 . S
C2478 C2486 1.378 . S
C2479 C2478 1.367 . S
C2479 C2487 1.433 . S
C2480 H2476 0.929 . S
C2480 C2482 1.378 1_554 S
C2480 C2484 1.352 . S
C2481 C2484 1.473 . S
C2481 C2486 1.350 . S
C2481 N2489 1.427 . S
C2482 H2473 0.930 . S
C2482 C2480 1.378 1_556 S
C2482 C2483 1.367 . S
C2483 C2482 1.367 . S
C2483 C2485 1.433 . S
C2484 C2480 1.352 . S
C2484 C2481 1.473 . S
C2484 N2488 1.414 1_554 S
C2485 H2475 0.929 . S
C2485 C2483 1.433 . S
C2485 N2488 1.384 . S
C2486 H2477 0.949 . S
C2486 C2478 1.378 . S
C2486 C2481 1.350 . S
C2487 H2474 0.929 . S
C2487 C2479 1.433 . S
C2487 N2489 1.384 . S
N2488 C2484 1.414 1_556 S
N2488 C2485 1.384 . S
N2489 C2481 1.427 . S
N2489 C2487 1.384 . S
H2490 C2496 0.930 . S
H2491 C2500 0.930 . S
H2492 C2505 0.929 . S
H2493 C2503 0.929 . S
H2494 C2498 0.929 . S
H2495 C2504 0.929 . S
C2496 H2490 0.930 . S
C2496 C2497 1.367 . S
C2496 C2504 1.378 . S
C2497 C2496 1.367 . S
C2497 C2505 1.433 . S
C2498 H2494 0.929 . S
C2498 C2500 1.378 . S
C2498 C2502 1.350 . S
C2499 C2502 1.463 . S
C2499 C2504 1.350 . S
C2499 N2507 1.427 . S
C2500 H2491 0.930 . S
C2500 C2498 1.378 . S
C2500 C2501 1.367 . S
C2501 C2500 1.367 . S
C2501 C2503 1.433 . S
C2502 C2498 1.350 . S
C2502 C2499 1.463 . S
C2502 N2506 1.427 . S
C2503 H2493 0.929 . S
C2503 C2501 1.433 . S
C2503 N2506 1.384 . S
C2504 H2495 0.929 . S
C2504 C2496 1.378 . S
C2504 C2499 1.350 . S
C2505 H2492 0.929 . S
C2505 C2497 1.433 . S
C2505 N2507 1.384 . S
N2506 C2502 1.427 . S
N2506 C2503 1.384 . S
N2507 C2499 1.427 . S
N2507 C2505 1.384 . S
H2508 C2514 0.930 . S
H2509 C2518 0.930 . S
H2510 C2523 0.929 . S
H2511 C2521 0.929 . S
H2512 C2516 0.904 1_565 S
H2513 C2522 0.929 . S
C2514 H2508 0.930 . S
C2514 C2515 1.367 . S
C2514 C2522 1.378 . S
C2515 C2514 1.367 . S
C2515 C2523 1.433 . S
C2516 H2512 0.904 1_545 S
C2516 C2518 1.378 . S
C2516 C2520 1.349 1_545 S
C2517 C2520 1.464 . S
C2517 C2522 1.350 . S
C2517 N2525 1.427 . S
C2518 H2509 0.930 . S
C2518 C2516 1.378 . S
C2518 C2519 1.367 . S
C2519 C2518 1.367 . S
C2519 C2521 1.433 . S
C2520 C2516 1.349 1_565 S
C2520 C2517 1.464 . S
C2520 N2524 1.426 1_565 S
C2521 H2511 0.929 . S
C2521 C2519 1.433 . S
C2521 N2524 1.384 . S
C2522 H2513 0.929 . S
C2522 C2514 1.378 . S
C2522 C2517 1.350 . S
C2523 H2510 0.929 . S
C2523 C2515 1.433 . S
C2523 N2525 1.384 . S
N2524 C2520 1.426 1_545 S
N2524 C2521 1.384 . S
N2525 C2517 1.427 . S
N2525 C2523 1.384 . S
H2526 C2532 0.930 . S
H2527 C2536 0.930 . S
H2528 C2541 0.929 . S
H2529 C2539 0.929 . S
H2530 C2534 0.929 . S
H2531 C2540 0.900 1_655 S
C2532 H2526 0.930 . S
C2532 C2533 1.367 . S
C2532 C2540 1.378 . S
C2533 C2532 1.367 . S
C2533 C2541 1.433 . S
C2534 H2530 0.929 . S
C2534 C2536 1.378 1_455 S
C2534 C2538 1.353 . S
C2535 C2538 1.474 . S
C2535 C2540 1.350 . S
C2535 N2543 1.427 . S
C2536 H2527 0.930 . S
C2536 C2534 1.378 1_655 S
C2536 C2537 1.367 . S
C2537 C2536 1.367 . S
C2537 C2539 1.433 . S
C2538 C2534 1.353 . S
C2538 C2535 1.474 . S
C2538 N2542 1.413 1_455 S
C2539 H2529 0.929 . S
C2539 C2537 1.433 . S
C2539 N2542 1.384 . S
C2540 H2531 0.900 1_455 S
C2540 C2532 1.378 . S
C2540 C2535 1.350 . S
C2541 H2528 0.929 . S
C2541 C2533 1.433 . S
C2541 N2543 1.384 . S
N2542 C2538 1.413 1_655 S
N2542 C2539 1.384 . S
N2543 C2535 1.427 . S
N2543 C2541 1.384 . S
H2544 C2550 0.930 . S
H2545 C2554 0.930 . S
H2546 C2559 0.929 . S
H2547 C2557 0.929 . S
H2548 C2552 0.929 1_455 S
H2549 C2558 0.929 . S
C2550 H2544 0.930 . S
C2550 C2551 1.367 . S
C2550 C2558 1.378 1_455 S
C2551 C2550 1.367 . S
C2551 C2559 1.433 . S
C2552 H2548 0.929 1_655 S
C2552 C2554 1.378 . S
C2552 C2556 1.350 . S
C2553 C2556 1.478 . S
C2553 C2558 1.358 . S
C2553 N2561 1.403 1_655 S
C2554 H2545 0.930 . S
C2554 C2552 1.378 . S
C2554 C2555 1.367 . S
C2555 C2554 1.367 . S
C2555 C2557 1.433 . S
C2556 C2552 1.350 . S
C2556 C2553 1.478 . S
C2556 N2560 1.427 . S
C2557 H2547 0.929 . S
C2557 C2555 1.433 . S
C2557 N2560 1.384 . S
C2558 H2549 0.929 . S
C2558 C2550 1.378 1_655 S
C2558 C2553 1.358 . S
C2559 H2546 0.929 . S
C2559 C2551 1.433 . S
C2559 N2561 1.384 . S
N2560 C2556 1.427 . S
N2560 C2557 1.384 . S
N2561 C2553 1.403 1_455 S
N2561 C2559 1.384 . S
H2562 C2568 0.930 . S
H2563 C2572 0.930 . S
H2564 C2577 0.929 . S
H2565 C2575 0.929 . S
H2566 C2570 0.929 . S
H2567 C2576 0.929 . S
C2568 H2562 0.930 . S
C2568 C2569 1.367 . S
C2568 C2576 1.378 . S
C2569 C2568 1.367 . S
C2569 C2577 1.433 . S
C2570 H2566 0.929 . S
C2570 C2572 1.378 . S
C2570 C2574 1.350 . S
C2571 C2574 1.463 . S
C2571 C2576 1.350 . S
C2571 N2579 1.427 . S
C2572 H2563 0.930 . S
C2572 C2570 1.378 . S
C2572 C2573 1.367 . S
C2573 C2572 1.367 . S
C2573 C2575 1.433 . S
C2574 C2570 1.350 . S
C2574 C2571 1.463 . S
C2574 N2578 1.427 . S
C2575 H2565 0.929 . S
C2575 C2573 1.433 . S
C2575 N2578 1.384 . S
C2576 H2567 0.929 . S
C2576 C2568 1.378 . S
C2576 C2571 1.350 . S
C2577 H2564 0.929 . S
C2577 C2569 1.433 . S
C2577 N2579 1.384 . S
N2578 C2574 1.427 . S
N2578 C2575 1.384 . S
N2579 C2571 1.427 . S
N2579 C2577 1.384 . S
H2580 C2586 0.930 . S
H2581 C2590 0.930 . S
H2582 C2595 0.929 . S
H2583 C2593 0.929 . S
H2584 C2588 0.929 . S
H2585 C2594 0.929 . S
C2586 H2580 0.930 . S
C2586 C2587 1.367 . S
C2586 C2594 1.378 . S
C2587 C2586 1.367 . S
C2587 C2595 1.433 . S
C2588 H2584 0.929 . S
C2588 C2590 1.378 . S
C2588 C2592 1.350 . S
C2589 C2592 1.463 . S
C2589 C2594 1.350 . S
C2589 N2597 1.427 . S
C2590 H2581 0.930 . S
C2590 C2588 1.378 . S
C2590 C2591 1.367 . S
C2591 C2590 1.367 . S
C2591 C2593 1.433 . S
C2592 C2588 1.350 . S
C2592 C2589 1.463 . S
C2592 N2596 1.427 . S
C2593 H2583 0.929 . S
C2593 C2591 1.433 . S
C2593 N2596 1.384 . S
C2594 H2585 0.929 . S
C2594 C2586 1.378 . S
C2594 C2589 1.350 . S
C2595 H2582 0.929 . S
C2595 C2587 1.433 . S
C2595 N2597 1.384 . S
N2596 C2592 1.427 . S
N2596 C2593 1.384 . S
N2597 C2589 1.427 . S
N2597 C2595 1.384 . S
H2598 C2604 0.930 . S
H2599 C2608 0.930 . S
H2600 C2613 0.929 . S
H2601 C2611 0.929 . S
H2602 C2606 0.929 . S
H2603 C2612 0.929 . S
C2604 H2598 0.930 . S
C2604 C2605 1.367 . S
C2604 C2612 1.378 . S
C2605 C2604 1.367 . S
C2605 C2613 1.433 . S
C2606 H2602 0.929 . S
C2606 C2608 1.378 . S
C2606 C2610 1.350 . S
C2607 C2610 1.463 . S
C2607 C2612 1.350 . S
C2607 N2615 1.427 . S
C2608 H2599 0.930 . S
C2608 C2606 1.378 . S
C2608 C2609 1.367 . S
C2609 C2608 1.367 . S
C2609 C2611 1.433 . S
C2610 C2606 1.350 . S
C2610 C2607 1.463 . S
C2610 N2614 1.427 . S
C2611 H2601 0.929 . S
C2611 C2609 1.433 . S
C2611 N2614 1.384 . S
C2612 H2603 0.929 . S
C2612 C2604 1.378 . S
C2612 C2607 1.350 . S
C2613 H2600 0.929 . S
C2613 C2605 1.433 . S
C2613 N2615 1.384 . S
N2614 C2610 1.427 . S
N2614 C2611 1.384 . S
N2615 C2607 1.427 . S
N2615 C2613 1.384 . S
H2616 C2622 0.930 . S
H2617 C2626 0.930 . S
H2618 C2631 0.929 . S
H2619 C2629 0.929 . S
H2620 C2624 0.929 1_554 S
H2621 C2630 0.929 . S
C2622 H2616 0.930 . S
C2622 C2623 1.367 . S
C2622 C2630 1.378 1_554 S
C2623 C2622 1.367 . S
C2623 C2631 1.433 . S
C2624 H2620 0.929 1_556 S
C2624 C2626 1.378 . S
C2624 C2628 1.350 . S
C2625 C2628 1.475 . S
C2625 C2630 1.354 . S
C2625 N2633 1.411 1_556 S
C2626 H2617 0.930 . S
C2626 C2624 1.378 . S
C2626 C2627 1.367 . S
C2627 C2626 1.367 . S
C2627 C2629 1.433 . S
C2628 C2624 1.350 . S
C2628 C2625 1.475 . S
C2628 N2632 1.427 . S
C2629 H2619 0.929 . S
C2629 C2627 1.433 . S
C2629 N2632 1.384 . S
C2630 H2621 0.929 . S
C2630 C2622 1.378 1_556 S
C2630 C2625 1.354 . S
C2631 H2618 0.929 . S
C2631 C2623 1.433 . S
C2631 N2633 1.384 . S
N2632 C2628 1.427 . S
N2632 C2629 1.384 . S
N2633 C2625 1.411 1_554 S
N2633 C2631 1.384 . S
H2634 C2640 0.930 . S
H2635 C2644 0.930 . S
H2636 C2649 0.929 . S
H2637 C2647 0.929 1_565 S
H2638 C2642 0.929 . S
H2639 C2648 0.929 . S
C2640 H2634 0.930 . S
C2640 C2641 1.367 . S
C2640 C2648 1.378 . S
C2641 C2640 1.367 . S
C2641 C2649 1.433 . S
C2642 H2638 0.929 . S
C2642 C2644 1.378 . S
C2642 C2646 1.366 . S
C2643 C2646 1.452 1_565 S
C2643 C2648 1.350 . S
C2643 N2651 1.427 . S
C2644 H2635 0.930 . S
C2644 C2642 1.378 . S
C2644 C2645 1.367 . S
C2645 C2644 1.367 . S
C2645 C2647 1.433 . S
C2646 C2642 1.366 . S
C2646 C2643 1.452 1_545 S
C2646 N2650 1.421 1_545 S
C2647 H2637 0.929 1_545 S
C2647 C2645 1.433 . S
C2647 N2650 1.384 1_545 S
C2648 H2639 0.929 . S
C2648 C2640 1.378 . S
C2648 C2643 1.350 . S
C2649 H2636 0.929 . S
C2649 C2641 1.433 . S
C2649 N2651 1.384 . S
N2650 C2646 1.421 1_565 S
N2650 C2647 1.384 1_565 S
N2651 C2643 1.427 . S
N2651 C2649 1.384 . S
H2652 C2658 0.930 . S
H2653 C2662 0.930 . S
H2654 C2667 0.929 . S
H2655 C2665 0.929 . S
H2656 C2660 0.929 . S
H2657 C2666 0.929 . S
C2658 H2652 0.930 . S
C2658 C2659 1.367 . S
C2658 C2666 1.378 . S
C2659 C2658 1.367 . S
C2659 C2667 1.433 . S
C2660 H2656 0.929 . S
C2660 C2662 1.378 . S
C2660 C2664 1.350 . S
C2661 C2664 1.463 . S
C2661 C2666 1.350 . S
C2661 N2669 1.427 . S
C2662 H2653 0.930 . S
C2662 C2660 1.378 . S
C2662 C2663 1.367 . S
C2663 C2662 1.367 . S
C2663 C2665 1.433 . S
C2664 C2660 1.350 . S
C2664 C2661 1.463 . S
C2664 N2668 1.427 . S
C2665 H2655 0.929 . S
C2665 C2663 1.433 . S
C2665 N2668 1.384 . S
C2666 H2657 0.929 . S
C2666 C2658 1.378 . S
C2666 C2661 1.350 . S
C2667 H2654 0.929 . S
C2667 C2659 1.433 . S
C2667 N2669 1.384 . S
N2668 C2664 1.427 . S
N2668 C2665 1.384 . S
N2669 C2661 1.427 . S
N2669 C2667 1.384 . S
H2670 C2676 0.930 . S
H2671 C2680 0.930 . S
H2672 C2685 0.929 . S
H2673 C2683 0.929 . S
H2674 C2678 0.929 . S
H2675 C2684 0.929 . S
C2676 H2670 0.930 . S
C2676 C2677 1.367 . S
C2676 C2684 1.378 . S
C2677 C2676 1.367 . S
C2677 C2685 1.433 . S
C2678 H2674 0.929 . S
C2678 C2680 1.378 . S
C2678 C2682 1.350 . S
C2679 C2682 1.463 . S
C2679 C2684 1.350 . S
C2679 N2687 1.427 . S
C2680 H2671 0.930 . S
C2680 C2678 1.378 . S
C2680 C2681 1.367 . S
C2681 C2680 1.367 . S
C2681 C2683 1.433 . S
C2682 C2678 1.350 . S
C2682 C2679 1.463 . S
C2682 N2686 1.427 . S
C2683 H2673 0.929 . S
C2683 C2681 1.433 . S
C2683 N2686 1.384 . S
C2684 H2675 0.929 . S
C2684 C2676 1.378 . S
C2684 C2679 1.350 . S
C2685 H2672 0.929 . S
C2685 C2677 1.433 . S
C2685 N2687 1.384 . S
N2686 C2682 1.427 . S
N2686 C2683 1.384 . S
N2687 C2679 1.427 . S
N2687 C2685 1.384 . S
H2688 C2694 0.930 . S
H2689 C2698 0.930 . S
H2690 C2703 0.929 . S
H2691 C2701 0.929 . S
H2692 C2696 0.929 . S
H2693 C2702 0.929 . S
C2694 H2688 0.930 . S
C2694 C2695 1.367 . S
C2694 C2702 1.378 . S
C2695 C2694 1.367 . S
C2695 C2703 1.433 . S
C2696 H2692 0.929 . S
C2696 C2698 1.378 . S
C2696 C2700 1.350 . S
C2697 C2700 1.463 . S
C2697 C2702 1.350 . S
C2697 N2705 1.427 . S
C2698 H2689 0.930 . S
C2698 C2696 1.378 . S
C2698 C2699 1.367 . S
C2699 C2698 1.367 . S
C2699 C2701 1.433 . S
C2700 C2696 1.350 . S
C2700 C2697 1.463 . S
C2700 N2704 1.427 . S
C2701 H2691 0.929 . S
C2701 C2699 1.433 . S
C2701 N2704 1.384 . S
C2702 H2693 0.929 . S
C2702 C2694 1.378 . S
C2702 C2697 1.350 . S
C2703 H2690 0.929 . S
C2703 C2695 1.433 . S
C2703 N2705 1.384 . S
N2704 C2700 1.427 . S
N2704 C2701 1.384 . S
N2705 C2697 1.427 . S
N2705 C2703 1.384 . S
H2706 C2712 0.930 . S
H2707 C2716 0.930 . S
H2708 C2721 0.929 . S
H2709 C2719 0.929 . S
H2710 C2714 0.929 . S
H2711 C2720 0.929 . S
C2712 H2706 0.930 . S
C2712 C2713 1.367 . S
C2712 C2720 1.378 . S
C2713 C2712 1.367 . S
C2713 C2721 1.433 . S
C2714 H2710 0.929 . S
C2714 C2716 1.378 . S
C2714 C2718 1.350 . S
C2715 C2718 1.458 1_565 S
C2715 C2720 1.355 . S
C2715 N2723 1.426 1_565 S
C2716 H2707 0.930 . S
C2716 C2714 1.378 . S
C2716 C2717 1.367 . S
C2717 C2716 1.367 . S
C2717 C2719 1.433 . S
C2718 C2714 1.350 . S
C2718 C2715 1.458 1_545 S
C2718 N2722 1.427 . S
C2719 H2709 0.929 . S
C2719 C2717 1.433 . S
C2719 N2722 1.384 . S
C2720 H2711 0.929 . S
C2720 C2712 1.378 . S
C2720 C2715 1.355 . S
C2721 H2708 0.929 . S
C2721 C2713 1.433 . S
C2721 N2723 1.384 1_565 S
N2722 C2718 1.427 . S
N2722 C2719 1.384 . S
N2723 C2715 1.426 1_545 S
N2723 C2721 1.384 1_545 S
H2724 C2730 0.930 . S
H2725 C2734 0.930 1_554 S
H2726 C2739 0.929 . S
H2727 C2737 0.929 . S
H2728 C2732 0.929 . S
H2729 C2738 0.929 1_556 S
C2730 H2724 0.930 . S
C2730 C2731 1.367 . S
C2730 C2738 1.378 . S
C2731 C2730 1.367 . S
C2731 C2739 1.433 . S
C2732 H2728 0.929 . S
C2732 C2734 1.378 1_554 S
C2732 C2736 1.363 . S
C2733 C2736 1.480 . S
C2733 C2738 1.350 . S
C2733 N2741 1.427 . S
C2734 H2725 0.930 1_556 S
C2734 C2732 1.378 1_556 S
C2734 C2735 1.367 . S
C2735 C2734 1.367 . S
C2735 C2737 1.433 . S
C2736 C2732 1.363 . S
C2736 C2733 1.480 . S
C2736 N2740 1.396 1_554 S
C2737 H2727 0.929 . S
C2737 C2735 1.433 . S
C2737 N2740 1.384 . S
C2738 H2729 0.929 1_554 S
C2738 C2730 1.378 . S
C2738 C2733 1.350 . S
C2739 H2726 0.929 . S
C2739 C2731 1.433 . S
C2739 N2741 1.384 . S
N2740 C2736 1.396 1_556 S
N2740 C2737 1.384 . S
N2741 C2733 1.427 . S
N2741 C2739 1.384 . S
H2742 C2748 0.930 . S
H2743 C2752 0.930 . S
H2744 C2757 0.929 . S
H2745 C2755 0.929 . S
H2746 C2750 0.929 . S
H2747 C2756 0.929 . S
C2748 H2742 0.930 . S
C2748 C2749 1.367 . S
C2748 C2756 1.378 . S
C2749 C2748 1.367 . S
C2749 C2757 1.433 . S
C2750 H2746 0.929 . S
C2750 C2752 1.378 . S
C2750 C2754 1.350 . S
C2751 C2754 1.463 . S
C2751 C2756 1.350 . S
C2751 N2759 1.427 . S
C2752 H2743 0.930 . S
C2752 C2750 1.378 . S
C2752 C2753 1.367 . S
C2753 C2752 1.367 . S
C2753 C2755 1.433 . S
C2754 C2750 1.350 . S
C2754 C2751 1.463 . S
C2754 N2758 1.427 . S
C2755 H2745 0.929 . S
C2755 C2753 1.433 . S
C2755 N2758 1.384 . S
C2756 H2747 0.929 . S
C2756 C2748 1.378 . S
C2756 C2751 1.350 . S
C2757 H2744 0.929 . S
C2757 C2749 1.433 . S
C2757 N2759 1.384 . S
N2758 C2754 1.427 . S
N2758 C2755 1.384 . S
N2759 C2751 1.427 . S
N2759 C2757 1.384 . S
H2760 C2766 0.930 . S
H2761 C2770 0.930 . S
H2762 C2775 0.929 . S
H2763 C2773 0.929 . S
H2764 C2768 0.938 . S
H2765 C2774 0.929 . S
C2766 H2760 0.930 . S
C2766 C2767 1.367 . S
C2766 C2774 1.378 . S
C2767 C2766 1.367 . S
C2767 C2775 1.433 . S
C2768 H2764 0.938 . S
C2768 C2770 1.378 . S
C2768 C2772 1.350 1_554 S
C2769 C2772 1.463 . S
C2769 C2774 1.350 . S
C2769 N2777 1.427 . S
C2770 H2761 0.930 . S
C2770 C2768 1.378 . S
C2770 C2771 1.367 . S
C2771 C2770 1.367 . S
C2771 C2773 1.433 . S
C2772 C2768 1.350 1_556 S
C2772 C2769 1.463 . S
C2772 N2776 1.427 1_556 S
C2773 H2763 0.929 . S
C2773 C2771 1.433 . S
C2773 N2776 1.384 . S
C2774 H2765 0.929 . S
C2774 C2766 1.378 . S
C2774 C2769 1.350 . S
C2775 H2762 0.929 . S
C2775 C2767 1.433 . S
C2775 N2777 1.384 . S
N2776 C2772 1.427 1_554 S
N2776 C2773 1.384 . S
N2777 C2769 1.427 . S
N2777 C2775 1.384 . S
H2778 C2784 0.930 . S
H2779 C2788 0.930 . S
H2780 C2793 0.929 . S
H2781 C2791 0.929 . S
H2782 C2786 0.929 . S
H2783 C2792 0.929 . S
C2784 H2778 0.930 . S
C2784 C2785 1.367 . S
C2784 C2792 1.378 . S
C2785 C2784 1.367 . S
C2785 C2793 1.433 . S
C2786 H2782 0.929 . S
C2786 C2788 1.378 . S
C2786 C2790 1.350 . S
C2787 C2790 1.463 . S
C2787 C2792 1.350 . S
C2787 N2795 1.427 . S
C2788 H2779 0.930 . S
C2788 C2786 1.378 . S
C2788 C2789 1.367 . S
C2789 C2788 1.367 . S
C2789 C2791 1.433 . S
C2790 C2786 1.350 . S
C2790 C2787 1.463 . S
C2790 N2794 1.427 . S
C2791 H2781 0.929 . S
C2791 C2789 1.433 . S
C2791 N2794 1.384 . S
C2792 H2783 0.929 . S
C2792 C2784 1.378 . S
C2792 C2787 1.350 . S
C2793 H2780 0.929 . S
C2793 C2785 1.433 . S
C2793 N2795 1.384 . S
N2794 C2790 1.427 . S
N2794 C2791 1.384 . S
N2795 C2787 1.427 . S
N2795 C2793 1.384 . S
H2796 C2802 0.930 . S
H2797 C2806 0.930 . S
H2798 C2811 0.929 . S
H2799 C2809 0.929 . S
H2800 C2804 0.929 . S
H2801 C2810 0.929 . S
C2802 H2796 0.930 . S
C2802 C2803 1.367 . S
C2802 C2810 1.378 . S
C2803 C2802 1.367 . S
C2803 C2811 1.433 . S
C2804 H2800 0.929 . S
C2804 C2806 1.378 . S
C2804 C2808 1.350 . S
C2805 C2808 1.463 . S
C2805 C2810 1.350 . S
C2805 N2813 1.427 . S
C2806 H2797 0.930 . S
C2806 C2804 1.378 . S
C2806 C2807 1.367 . S
C2807 C2806 1.367 . S
C2807 C2809 1.433 . S
C2808 C2804 1.350 . S
C2808 C2805 1.463 . S
C2808 N2812 1.427 . S
C2809 H2799 0.929 . S
C2809 C2807 1.433 . S
C2809 N2812 1.384 . S
C2810 H2801 0.929 . S
C2810 C2802 1.378 . S
C2810 C2805 1.350 . S
C2811 H2798 0.929 . S
C2811 C2803 1.433 . S
C2811 N2813 1.384 . S
N2812 C2808 1.427 . S
N2812 C2809 1.384 . S
N2813 C2805 1.427 . S
N2813 C2811 1.384 . S
H2814 C2820 0.930 . S
H2815 C2824 0.930 . S
H2816 C2829 0.929 . S
H2817 C2827 0.929 . S
H2818 C2822 0.929 . S
H2819 C2828 0.929 . S
C2820 H2814 0.930 . S
C2820 C2821 1.367 . S
C2820 C2828 1.378 . S
C2821 C2820 1.367 . S
C2821 C2829 1.433 . S
C2822 H2818 0.929 . S
C2822 C2824 1.378 . S
C2822 C2826 1.350 . S
C2823 C2826 1.463 . S
C2823 C2828 1.350 . S
C2823 N2831 1.427 . S
C2824 H2815 0.930 . S
C2824 C2822 1.378 . S
C2824 C2825 1.367 . S
C2825 C2824 1.367 . S
C2825 C2827 1.433 . S
C2826 C2822 1.350 . S
C2826 C2823 1.463 . S
C2826 N2830 1.427 . S
C2827 H2817 0.929 . S
C2827 C2825 1.433 . S
C2827 N2830 1.384 . S
C2828 H2819 0.929 . S
C2828 C2820 1.378 . S
C2828 C2823 1.350 . S
C2829 H2816 0.929 . S
C2829 C2821 1.433 . S
C2829 N2831 1.384 . S
N2830 C2826 1.427 . S
N2830 C2827 1.384 . S
N2831 C2823 1.427 . S
N2831 C2829 1.384 . S
H2832 C2838 0.930 . S
H2833 C2842 0.930 . S
H2834 C2847 0.929 . S
H2835 C2845 0.917 1_545 S
H2836 C2840 0.929 . S
H2837 C2846 0.929 . S
C2838 H2832 0.930 . S
C2838 C2839 1.367 . S
C2838 C2846 1.378 . S
C2839 C2838 1.367 . S
C2839 C2847 1.433 . S
C2840 H2836 0.929 . S
C2840 C2842 1.378 . S
C2840 C2844 1.365 . S
C2841 C2844 1.453 1_545 S
C2841 C2846 1.350 . S
C2841 N2849 1.427 . S
C2842 H2833 0.930 . S
C2842 C2840 1.378 . S
C2842 C2843 1.367 . S
C2843 C2842 1.367 . S
C2843 C2845 1.433 . S
C2844 C2840 1.365 . S
C2844 C2841 1.453 1_565 S
C2844 N2848 1.421 1_565 S
C2845 H2835 0.917 1_565 S
C2845 C2843 1.433 . S
C2845 N2848 1.384 1_565 S
C2846 H2837 0.929 . S
C2846 C2838 1.378 . S
C2846 C2841 1.350 . S
C2847 H2834 0.929 . S
C2847 C2839 1.433 . S
C2847 N2849 1.384 . S
N2848 C2844 1.421 1_545 S
N2848 C2845 1.384 1_545 S
N2849 C2841 1.427 . S
N2849 C2847 1.384 . S
H2850 C2856 0.930 . S
H2851 C2860 0.930 . S
H2852 C2865 0.929 . S
H2853 C2863 0.929 . S
H2854 C2858 0.929 . S
H2855 C2864 0.929 . S
C2856 H2850 0.930 . S
C2856 C2857 1.367 . S
C2856 C2864 1.378 . S
C2857 C2856 1.367 . S
C2857 C2865 1.433 . S
C2858 H2854 0.929 . S
C2858 C2860 1.378 . S
C2858 C2862 1.350 . S
C2859 C2862 1.463 . S
C2859 C2864 1.350 . S
C2859 N2867 1.427 . S
C2860 H2851 0.930 . S
C2860 C2858 1.378 . S
C2860 C2861 1.367 . S
C2861 C2860 1.367 . S
C2861 C2863 1.433 . S
C2862 C2858 1.350 . S
C2862 C2859 1.463 . S
C2862 N2866 1.427 . S
C2863 H2853 0.929 . S
C2863 C2861 1.433 . S
C2863 N2866 1.384 . S
C2864 H2855 0.929 . S
C2864 C2856 1.378 . S
C2864 C2859 1.350 . S
C2865 H2852 0.929 . S
C2865 C2857 1.433 . S
C2865 N2867 1.384 . S
N2866 C2862 1.427 . S
N2866 C2863 1.384 . S
N2867 C2859 1.427 . S
N2867 C2865 1.384 . S
H2868 C2874 0.930 . S
H2869 C2878 0.930 . S
H2870 C2883 0.929 . S
H2871 C2881 0.929 . S
H2872 C2876 0.929 . S
H2873 C2882 0.929 . S
C2874 H2868 0.930 . S
C2874 C2875 1.367 . S
C2874 C2882 1.378 . S
C2875 C2874 1.367 . S
C2875 C2883 1.433 . S
C2876 H2872 0.929 . S
C2876 C2878 1.378 . S
C2876 C2880 1.350 . S
C2877 C2880 1.463 . S
C2877 C2882 1.350 . S
C2877 N2885 1.427 . S
C2878 H2869 0.930 . S
C2878 C2876 1.378 . S
C2878 C2879 1.367 . S
C2879 C2878 1.367 . S
C2879 C2881 1.433 . S
C2880 C2876 1.350 . S
C2880 C2877 1.463 . S
C2880 N2884 1.427 . S
C2881 H2871 0.929 . S
C2881 C2879 1.433 . S
C2881 N2884 1.384 . S
C2882 H2873 0.929 . S
C2882 C2874 1.378 . S
C2882 C2877 1.350 . S
C2883 H2870 0.929 . S
C2883 C2875 1.433 . S
C2883 N2885 1.384 . S
N2884 C2880 1.427 . S
N2884 C2881 1.384 . S
N2885 C2877 1.427 . S
N2885 C2883 1.384 . S
H2886 C2892 0.930 . S
H2887 C2896 0.930 . S
H2888 C2901 0.929 . S
H2889 C2899 0.929 . S
H2890 C2894 0.929 . S
H2891 C2900 0.929 . S
C2892 H2886 0.930 . S
C2892 C2893 1.367 . S
C2892 C2900 1.378 . S
C2893 C2892 1.367 . S
C2893 C2901 1.433 . S
C2894 H2890 0.929 . S
C2894 C2896 1.378 . S
C2894 C2898 1.350 . S
C2895 C2898 1.463 . S
C2895 C2900 1.350 . S
C2895 N2903 1.427 . S
C2896 H2887 0.930 . S
C2896 C2894 1.378 . S
C2896 C2897 1.367 . S
C2897 C2896 1.367 . S
C2897 C2899 1.433 . S
C2898 C2894 1.350 . S
C2898 C2895 1.463 . S
C2898 N2902 1.427 . S
C2899 H2889 0.929 . S
C2899 C2897 1.433 . S
C2899 N2902 1.384 . S
C2900 H2891 0.929 . S
C2900 C2892 1.378 . S
C2900 C2895 1.350 . S
C2901 H2888 0.929 . S
C2901 C2893 1.433 . S
C2901 N2903 1.384 . S
N2902 C2898 1.427 . S
N2902 C2899 1.384 . S
N2903 C2895 1.427 . S
N2903 C2901 1.384 . S
H2904 C2910 0.930 . S
H2905 C2914 0.930 . S
H2906 C2919 0.929 . S
H2907 C2917 0.929 . S
H2908 C2912 0.929 . S
H2909 C2918 0.929 . S
C2910 H2904 0.930 . S
C2910 C2911 1.367 . S
C2910 C2918 1.378 . S
C2911 C2910 1.367 . S
C2911 C2919 1.433 . S
C2912 H2908 0.929 . S
C2912 C2914 1.378 . S
C2912 C2916 1.350 . S
C2913 C2916 1.463 . S
C2913 C2918 1.350 . S
C2913 N2921 1.427 . S
C2914 H2905 0.930 . S
C2914 C2912 1.378 . S
C2914 C2915 1.367 . S
C2915 C2914 1.367 . S
C2915 C2917 1.433 . S
C2916 C2912 1.350 . S
C2916 C2913 1.463 . S
C2916 N2920 1.427 . S
C2917 H2907 0.929 . S
C2917 C2915 1.433 . S
C2917 N2920 1.384 . S
C2918 H2909 0.929 . S
C2918 C2910 1.378 . S
C2918 C2913 1.350 . S
C2919 H2906 0.929 . S
C2919 C2911 1.433 . S
C2919 N2921 1.384 . S
N2920 C2916 1.427 . S
N2920 C2917 1.384 . S
N2921 C2913 1.427 . S
N2921 C2919 1.384 . S
H2922 C2928 0.930 . S
H2923 C2932 0.930 . S
H2924 C2937 0.929 . S
H2925 C2935 0.929 . S
H2926 C2930 0.929 . S
H2927 C2936 0.929 . S
C2928 H2922 0.930 . S
C2928 C2929 1.367 . S
C2928 C2936 1.378 . S
C2929 C2928 1.367 . S
C2929 C2937 1.433 . S
C2930 H2926 0.929 . S
C2930 C2932 1.378 . S
C2930 C2934 1.350 . S
C2931 C2934 1.463 . S
C2931 C2936 1.350 . S
C2931 N2939 1.427 . S
C2932 H2923 0.930 . S
C2932 C2930 1.378 . S
C2932 C2933 1.367 . S
C2933 C2932 1.367 . S
C2933 C2935 1.433 . S
C2934 C2930 1.350 . S
C2934 C2931 1.463 . S
C2934 N2938 1.427 . S
C2935 H2925 0.929 . S
C2935 C2933 1.433 . S
C2935 N2938 1.384 . S
C2936 H2927 0.929 . S
C2936 C2928 1.378 . S
C2936 C2931 1.350 . S
C2937 H2924 0.929 . S
C2937 C2929 1.433 . S
C2937 N2939 1.384 . S
N2938 C2934 1.427 . S
N2938 C2935 1.384 . S
N2939 C2931 1.427 . S
N2939 C2937 1.384 . S
H2940 C2946 0.930 . S
H2941 C2950 0.930 . S
H2942 C2955 0.929 . S
H2943 C2953 0.929 . S
H2944 C2948 0.929 . S
H2945 C2954 0.929 . S
C2946 H2940 0.930 . S
C2946 C2947 1.367 . S
C2946 C2954 1.378 . S
C2947 C2946 1.367 . S
C2947 C2955 1.433 . S
C2948 H2944 0.929 . S
C2948 C2950 1.378 . S
C2948 C2952 1.350 . S
C2949 C2952 1.459 1_565 S
C2949 C2954 1.353 . S
C2949 N2957 1.427 1_565 S
C2950 H2941 0.930 . S
C2950 C2948 1.378 . S
C2950 C2951 1.367 . S
C2951 C2950 1.367 . S
C2951 C2953 1.433 . S
C2952 C2948 1.350 . S
C2952 C2949 1.459 1_545 S
C2952 N2956 1.427 . S
C2953 H2943 0.929 . S
C2953 C2951 1.433 . S
C2953 N2956 1.384 . S
C2954 H2945 0.929 . S
C2954 C2946 1.378 . S
C2954 C2949 1.353 . S
C2955 H2942 0.929 . S
C2955 C2947 1.433 . S
C2955 N2957 1.384 1_565 S
N2956 C2952 1.427 . S
N2956 C2953 1.384 . S
N2957 C2949 1.427 1_545 S
N2957 C2955 1.384 1_545 S
H2958 C2964 0.930 . S
H2959 C2968 0.930 . S
H2960 C2973 0.929 . S
H2961 C2971 0.929 . S
H2962 C2966 0.929 . S
H2963 C2972 0.929 . S
C2964 H2958 0.930 . S
C2964 C2965 1.367 . S
C2964 C2972 1.378 . S
C2965 C2964 1.367 . S
C2965 C2973 1.433 . S
C2966 H2962 0.929 . S
C2966 C2968 1.378 . S
C2966 C2970 1.350 . S
C2967 C2970 1.463 . S
C2967 C2972 1.350 . S
C2967 N2975 1.427 . S
C2968 H2959 0.930 . S
C2968 C2966 1.378 . S
C2968 C2969 1.367 . S
C2969 C2968 1.367 . S
C2969 C2971 1.433 . S
C2970 C2966 1.350 . S
C2970 C2967 1.463 . S
C2970 N2974 1.427 . S
C2971 H2961 0.929 . S
C2971 C2969 1.433 . S
C2971 N2974 1.384 . S
C2972 H2963 0.929 . S
C2972 C2964 1.378 . S
C2972 C2967 1.350 . S
C2973 H2960 0.929 . S
C2973 C2965 1.433 . S
C2973 N2975 1.384 . S
N2974 C2970 1.427 . S
N2974 C2971 1.384 . S
N2975 C2967 1.427 . S
N2975 C2973 1.384 . S
H2976 C2982 0.930 . S
H2977 C2986 0.930 . S
H2978 C2991 0.929 . S
H2979 C2989 0.929 . S
H2980 C2984 0.929 . S
H2981 C2990 0.929 . S
C2982 H2976 0.930 . S
C2982 C2983 1.367 . S
C2982 C2990 1.378 . S
C2983 C2982 1.367 . S
C2983 C2991 1.433 . S
C2984 H2980 0.929 . S
C2984 C2986 1.378 . S
C2984 C2988 1.350 . S
C2985 C2988 1.463 . S
C2985 C2990 1.350 . S
C2985 N2993 1.427 . S
C2986 H2977 0.930 . S
C2986 C2984 1.378 . S
C2986 C2987 1.367 . S
C2987 C2986 1.367 . S
C2987 C2989 1.433 . S
C2988 C2984 1.350 . S
C2988 C2985 1.463 . S
C2988 N2992 1.427 . S
C2989 H2979 0.929 . S
C2989 C2987 1.433 . S
C2989 N2992 1.384 . S
C2990 H2981 0.929 . S
C2990 C2982 1.378 . S
C2990 C2985 1.350 . S
C2991 H2978 0.929 . S
C2991 C2983 1.433 . S
C2991 N2993 1.384 . S
N2992 C2988 1.427 . S
N2992 C2989 1.384 . S
N2993 C2985 1.427 . S
N2993 C2991 1.384 . S
H2994 C3000 0.930 . S
H2995 C3004 0.930 . S
H2996 C3009 0.929 . S
H2997 C3007 0.929 . S
H2998 C3002 0.929 . S
H2999 C3008 0.929 . S
C3000 H2994 0.930 . S
C3000 C3001 1.367 . S
C3000 C3008 1.378 . S
C3001 C3000 1.367 . S
C3001 C3009 1.433 . S
C3002 H2998 0.929 . S
C3002 C3004 1.378 . S
C3002 C3006 1.350 . S
C3003 C3006 1.463 . S
C3003 C3008 1.350 . S
C3003 N3011 1.427 . S
C3004 H2995 0.930 . S
C3004 C3002 1.378 . S
C3004 C3005 1.367 . S
C3005 C3004 1.367 . S
C3005 C3007 1.433 . S
C3006 C3002 1.350 . S
C3006 C3003 1.463 . S
C3006 N3010 1.427 . S
C3007 H2997 0.929 . S
C3007 C3005 1.433 . S
C3007 N3010 1.384 . S
C3008 H2999 0.929 . S
C3008 C3000 1.378 . S
C3008 C3003 1.350 . S
C3009 H2996 0.929 . S
C3009 C3001 1.433 . S
C3009 N3011 1.384 . S
N3010 C3006 1.427 . S
N3010 C3007 1.384 . S
N3011 C3003 1.427 . S
N3011 C3009 1.384 . S
H3012 C3018 0.930 . S
H3013 C3022 0.930 . S
H3014 C3027 0.929 . S
H3015 C3025 0.929 . S
H3016 C3020 0.929 . S
H3017 C3026 0.929 . S
C3018 H3012 0.930 . S
C3018 C3019 1.367 . S
C3018 C3026 1.378 . S
C3019 C3018 1.367 . S
C3019 C3027 1.433 . S
C3020 H3016 0.929 . S
C3020 C3022 1.378 . S
C3020 C3024 1.350 . S
C3021 C3024 1.463 . S
C3021 C3026 1.350 . S
C3021 N3029 1.427 . S
C3022 H3013 0.930 . S
C3022 C3020 1.378 . S
C3022 C3023 1.367 . S
C3023 C3022 1.367 . S
C3023 C3025 1.433 . S
C3024 C3020 1.350 . S
C3024 C3021 1.463 . S
C3024 N3028 1.427 . S
C3025 H3015 0.929 . S
C3025 C3023 1.433 . S
C3025 N3028 1.384 . S
C3026 H3017 0.929 . S
C3026 C3018 1.378 . S
C3026 C3021 1.350 . S
C3027 H3014 0.929 . S
C3027 C3019 1.433 . S
C3027 N3029 1.384 . S
N3028 C3024 1.427 . S
N3028 C3025 1.384 . S
N3029 C3021 1.427 . S
N3029 C3027 1.384 . S
H3030 C3036 0.930 . S
H3031 C3040 0.930 . S
H3032 C3045 0.929 . S
H3033 C3043 0.929 . S
H3034 C3038 0.929 . S
H3035 C3044 0.929 . S
C3036 H3030 0.930 . S
C3036 C3037 1.367 . S
C3036 C3044 1.378 . S
C3037 C3036 1.367 . S
C3037 C3045 1.433 . S
C3038 H3034 0.929 . S
C3038 C3040 1.378 . S
C3038 C3042 1.350 . S
C3039 C3042 1.463 . S
C3039 C3044 1.350 . S
C3039 N3047 1.427 . S
C3040 H3031 0.930 . S
C3040 C3038 1.378 . S
C3040 C3041 1.367 . S
C3041 C3040 1.367 . S
C3041 C3043 1.433 . S
C3042 C3038 1.350 . S
C3042 C3039 1.463 . S
C3042 N3046 1.427 . S
C3043 H3033 0.929 . S
C3043 C3041 1.433 . S
C3043 N3046 1.384 . S
C3044 H3035 0.929 . S
C3044 C3036 1.378 . S
C3044 C3039 1.350 . S
C3045 H3032 0.929 . S
C3045 C3037 1.433 . S
C3045 N3047 1.384 . S
N3046 C3042 1.427 . S
N3046 C3043 1.384 . S
N3047 C3039 1.427 . S
N3047 C3045 1.384 . S
H3048 C3054 0.930 . S
H3049 C3058 0.930 . S
H3050 C3063 0.929 . S
H3051 C3061 0.929 . S
H3052 C3056 0.929 . S
H3053 C3062 0.929 . S
C3054 H3048 0.930 . S
C3054 C3055 1.367 . S
C3054 C3062 1.378 . S
C3055 C3054 1.367 . S
C3055 C3063 1.433 . S
C3056 H3052 0.929 . S
C3056 C3058 1.378 . S
C3056 C3060 1.350 . S
C3057 C3060 1.463 . S
C3057 C3062 1.350 . S
C3057 N3065 1.427 . S
C3058 H3049 0.930 . S
C3058 C3056 1.378 . S
C3058 C3059 1.367 . S
C3059 C3058 1.367 . S
C3059 C3061 1.433 . S
C3060 C3056 1.350 . S
C3060 C3057 1.463 . S
C3060 N3064 1.427 . S
C3061 H3051 0.929 . S
C3061 C3059 1.433 . S
C3061 N3064 1.384 . S
C3062 H3053 0.929 . S
C3062 C3054 1.378 . S
C3062 C3057 1.350 . S
C3063 H3050 0.929 . S
C3063 C3055 1.433 . S
C3063 N3065 1.384 . S
N3064 C3060 1.427 . S
N3064 C3061 1.384 . S
N3065 C3057 1.427 . S
N3065 C3063 1.384 . S
H3066 C3072 0.930 . S
H3067 C3076 0.930 . S
H3068 C3081 0.929 . S
H3069 C3079 0.929 . S
H3070 C3074 0.929 . S
H3071 C3080 0.929 . S
C3072 H3066 0.930 . S
C3072 C3073 1.367 . S
C3072 C3080 1.378 . S
C3073 C3072 1.367 . S
C3073 C3081 1.433 . S
C3074 H3070 0.929 . S
C3074 C3076 1.378 . S
C3074 C3078 1.350 . S
C3075 C3078 1.463 . S
C3075 C3080 1.350 . S
C3075 N3083 1.427 . S
C3076 H3067 0.930 . S
C3076 C3074 1.378 . S
C3076 C3077 1.367 . S
C3077 C3076 1.367 . S
C3077 C3079 1.433 . S
C3078 C3074 1.350 . S
C3078 C3075 1.463 . S
C3078 N3082 1.427 . S
C3079 H3069 0.929 . S
C3079 C3077 1.433 . S
C3079 N3082 1.384 . S
C3080 H3071 0.929 . S
C3080 C3072 1.378 . S
C3080 C3075 1.350 . S
C3081 H3068 0.929 . S
C3081 C3073 1.433 . S
C3081 N3083 1.384 . S
N3082 C3078 1.427 . S
N3082 C3079 1.384 . S
N3083 C3075 1.427 . S
N3083 C3081 1.384 . S
H3084 C3090 0.930 . S
H3085 C3094 0.930 . S
H3086 C3099 0.929 . S
H3087 C3097 0.929 . S
H3088 C3092 0.929 . S
H3089 C3098 0.929 . S
C3090 H3084 0.930 . S
C3090 C3091 1.367 . S
C3090 C3098 1.378 . S
C3091 C3090 1.367 . S
C3091 C3099 1.433 . S
C3092 H3088 0.929 . S
C3092 C3094 1.378 . S
C3092 C3096 1.350 . S
C3093 C3096 1.463 . S
C3093 C3098 1.350 . S
C3093 N3101 1.427 . S
C3094 H3085 0.930 . S
C3094 C3092 1.378 . S
C3094 C3095 1.367 . S
C3095 C3094 1.367 . S
C3095 C3097 1.433 . S
C3096 C3092 1.350 . S
C3096 C3093 1.463 . S
C3096 N3100 1.427 . S
C3097 H3087 0.929 . S
C3097 C3095 1.433 . S
C3097 N3100 1.384 . S
C3098 H3089 0.929 . S
C3098 C3090 1.378 . S
C3098 C3093 1.350 . S
C3099 H3086 0.929 . S
C3099 C3091 1.433 . S
C3099 N3101 1.384 . S
N3100 C3096 1.427 . S
N3100 C3097 1.384 . S
N3101 C3093 1.427 . S
N3101 C3099 1.384 . S
H3102 C3108 0.930 . S
H3103 C3112 0.930 . S
H3104 C3117 0.929 . S
H3105 C3115 0.929 . S
H3106 C3110 0.929 . S
H3107 C3116 0.929 . S
C3108 H3102 0.930 . S
C3108 C3109 1.367 . S
C3108 C3116 1.378 . S
C3109 C3108 1.367 . S
C3109 C3117 1.433 . S
C3110 H3106 0.929 . S
C3110 C3112 1.378 . S
C3110 C3114 1.350 . S
C3111 C3114 1.463 . S
C3111 C3116 1.350 . S
C3111 N3119 1.427 . S
C3112 H3103 0.930 . S
C3112 C3110 1.378 . S
C3112 C3113 1.367 . S
C3113 C3112 1.367 . S
C3113 C3115 1.433 . S
C3114 C3110 1.350 . S
C3114 C3111 1.463 . S
C3114 N3118 1.427 . S
C3115 H3105 0.929 . S
C3115 C3113 1.433 . S
C3115 N3118 1.384 . S
C3116 H3107 0.929 . S
C3116 C3108 1.378 . S
C3116 C3111 1.350 . S
C3117 H3104 0.929 . S
C3117 C3109 1.433 . S
C3117 N3119 1.384 . S
N3118 C3114 1.427 . S
N3118 C3115 1.384 . S
N3119 C3111 1.427 . S
N3119 C3117 1.384 . S
H3120 C3126 0.930 . S
H3121 C3130 0.930 . S
H3122 C3135 0.929 . S
H3123 C3133 0.929 . S
H3124 C3128 0.929 . S
H3125 C3134 0.929 . S
C3126 H3120 0.930 . S
C3126 C3127 1.367 . S
C3126 C3134 1.378 . S
C3127 C3126 1.367 . S
C3127 C3135 1.433 . S
C3128 H3124 0.929 . S
C3128 C3130 1.378 . S
C3128 C3132 1.350 . S
C3129 C3132 1.463 . S
C3129 C3134 1.350 . S
C3129 N3137 1.427 . S
C3130 H3121 0.930 . S
C3130 C3128 1.378 . S
C3130 C3131 1.367 . S
C3131 C3130 1.367 . S
C3131 C3133 1.433 . S
C3132 C3128 1.350 . S
C3132 C3129 1.463 . S
C3132 N3136 1.427 . S
C3133 H3123 0.929 . S
C3133 C3131 1.433 . S
C3133 N3136 1.384 . S
C3134 H3125 0.929 . S
C3134 C3126 1.378 . S
C3134 C3129 1.350 . S
C3135 H3122 0.929 . S
C3135 C3127 1.433 . S
C3135 N3137 1.384 . S
N3136 C3132 1.427 . S
N3136 C3133 1.384 . S
N3137 C3129 1.427 . S
N3137 C3135 1.384 . S
H3138 C3144 0.930 . S
H3139 C3148 0.930 . S
H3140 C3153 0.929 . S
H3141 C3151 0.929 . S
H3142 C3146 0.929 . S
H3143 C3152 0.929 . S
C3144 H3138 0.930 . S
C3144 C3145 1.367 . S
C3144 C3152 1.378 . S
C3145 C3144 1.367 . S
C3145 C3153 1.433 . S
C3146 H3142 0.929 . S
C3146 C3148 1.378 . S
C3146 C3150 1.350 . S
C3147 C3150 1.463 . S
C3147 C3152 1.350 . S
C3147 N3155 1.427 . S
C3148 H3139 0.930 . S
C3148 C3146 1.378 . S
C3148 C3149 1.367 . S
C3149 C3148 1.367 . S
C3149 C3151 1.433 . S
C3150 C3146 1.350 . S
C3150 C3147 1.463 . S
C3150 N3154 1.427 . S
C3151 H3141 0.929 . S
C3151 C3149 1.433 . S
C3151 N3154 1.384 . S
C3152 H3143 0.929 . S
C3152 C3144 1.378 . S
C3152 C3147 1.350 . S
C3153 H3140 0.929 . S
C3153 C3145 1.433 . S
C3153 N3155 1.384 . S
N3154 C3150 1.427 . S
N3154 C3151 1.384 . S
N3155 C3147 1.427 . S
N3155 C3153 1.384 . S
H3156 C3162 0.930 . S
H3157 C3166 0.930 . S
H3158 C3171 0.929 . S
H3159 C3169 0.929 . S
H3160 C3164 0.929 . S
H3161 C3170 0.929 . S
C3162 H3156 0.930 . S
C3162 C3163 1.367 . S
C3162 C3170 1.378 . S
C3163 C3162 1.367 . S
C3163 C3171 1.433 . S
C3164 H3160 0.929 . S
C3164 C3166 1.378 . S
C3164 C3168 1.350 . S
C3165 C3168 1.463 . S
C3165 C3170 1.350 . S
C3165 N3173 1.427 . S
C3166 H3157 0.930 . S
C3166 C3164 1.378 . S
C3166 C3167 1.367 . S
C3167 C3166 1.367 . S
C3167 C3169 1.433 . S
C3168 C3164 1.350 . S
C3168 C3165 1.463 . S
C3168 N3172 1.427 . S
C3169 H3159 0.929 . S
C3169 C3167 1.433 . S
C3169 N3172 1.384 . S
C3170 H3161 0.929 . S
C3170 C3162 1.378 . S
C3170 C3165 1.350 . S
C3171 H3158 0.929 . S
C3171 C3163 1.433 . S
C3171 N3173 1.384 . S
N3172 C3168 1.427 . S
N3172 C3169 1.384 . S
N3173 C3165 1.427 . S
N3173 C3171 1.384 . S
H3174 C3180 0.930 . S
H3175 C3184 0.930 . S
H3176 C3189 0.929 . S
H3177 C3187 0.929 . S
H3178 C3182 0.929 . S
H3179 C3188 0.929 . S
C3180 H3174 0.930 . S
C3180 C3181 1.367 . S
C3180 C3188 1.378 . S
C3181 C3180 1.367 . S
C3181 C3189 1.433 . S
C3182 H3178 0.929 . S
C3182 C3184 1.378 . S
C3182 C3186 1.350 . S
C3183 C3186 1.463 . S
C3183 C3188 1.350 . S
C3183 N3191 1.427 . S
C3184 H3175 0.930 . S
C3184 C3182 1.378 . S
C3184 C3185 1.367 . S
C3185 C3184 1.367 . S
C3185 C3187 1.433 . S
C3186 C3182 1.350 . S
C3186 C3183 1.463 . S
C3186 N3190 1.427 . S
C3187 H3177 0.929 . S
C3187 C3185 1.433 . S
C3187 N3190 1.384 . S
C3188 H3179 0.929 . S
C3188 C3180 1.378 . S
C3188 C3183 1.350 . S
C3189 H3176 0.929 . S
C3189 C3181 1.433 . S
C3189 N3191 1.384 . S
N3190 C3186 1.427 . S
N3190 C3187 1.384 . S
N3191 C3183 1.427 . S
N3191 C3189 1.384 . S
H3192 C3198 0.930 . S
H3193 C3202 0.930 . S
H3194 C3207 0.929 . S
H3195 C3205 0.929 . S
H3196 C3200 0.929 . S
H3197 C3206 0.929 . S
C3198 H3192 0.930 . S
C3198 C3199 1.367 . S
C3198 C3206 1.378 . S
C3199 C3198 1.367 . S
C3199 C3207 1.433 . S
C3200 H3196 0.929 . S
C3200 C3202 1.378 . S
C3200 C3204 1.350 . S
C3201 C3204 1.463 . S
C3201 C3206 1.350 . S
C3201 N3209 1.427 . S
C3202 H3193 0.930 . S
C3202 C3200 1.378 . S
C3202 C3203 1.367 . S
C3203 C3202 1.367 . S
C3203 C3205 1.433 . S
C3204 C3200 1.350 . S
C3204 C3201 1.463 . S
C3204 N3208 1.427 . S
C3205 H3195 0.929 . S
C3205 C3203 1.433 . S
C3205 N3208 1.384 . S
C3206 H3197 0.929 . S
C3206 C3198 1.378 . S
C3206 C3201 1.350 . S
C3207 H3194 0.929 . S
C3207 C3199 1.433 . S
C3207 N3209 1.384 . S
N3208 C3204 1.427 . S
N3208 C3205 1.384 . S
N3209 C3201 1.427 . S
N3209 C3207 1.384 . S
H3210 C3216 0.930 . S
H3211 C3220 0.930 . S
H3212 C3225 0.929 . S
H3213 C3223 0.929 . S
H3214 C3218 0.929 . S
H3215 C3224 0.929 . S
C3216 H3210 0.930 . S
C3216 C3217 1.367 . S
C3216 C3224 1.378 . S
C3217 C3216 1.367 . S
C3217 C3225 1.433 . S
C3218 H3214 0.929 . S
C3218 C3220 1.378 . S
C3218 C3222 1.350 . S
C3219 C3222 1.463 . S
C3219 C3224 1.350 . S
C3219 N3227 1.427 . S
C3220 H3211 0.930 . S
C3220 C3218 1.378 . S
C3220 C3221 1.367 . S
C3221 C3220 1.367 . S
C3221 C3223 1.433 . S
C3222 C3218 1.350 . S
C3222 C3219 1.463 . S
C3222 N3226 1.427 . S
C3223 H3213 0.929 . S
C3223 C3221 1.433 . S
C3223 N3226 1.384 . S
C3224 H3215 0.929 . S
C3224 C3216 1.378 . S
C3224 C3219 1.350 . S
C3225 H3212 0.929 . S
C3225 C3217 1.433 . S
C3225 N3227 1.384 . S
N3226 C3222 1.427 . S
N3226 C3223 1.384 . S
N3227 C3219 1.427 . S
N3227 C3225 1.384 . S
H3228 C3234 0.930 . S
H3229 C3238 0.930 . S
H3230 C3243 0.929 . S
H3231 C3241 0.929 . S
H3232 C3236 0.929 . S
H3233 C3242 0.929 . S
C3234 H3228 0.930 . S
C3234 C3235 1.367 . S
C3234 C3242 1.378 . S
C3235 C3234 1.367 . S
C3235 C3243 1.433 . S
C3236 H3232 0.929 . S
C3236 C3238 1.378 . S
C3236 C3240 1.350 . S
C3237 C3240 1.463 . S
C3237 C3242 1.350 . S
C3237 N3245 1.427 . S
C3238 H3229 0.930 . S
C3238 C3236 1.378 . S
C3238 C3239 1.367 . S
C3239 C3238 1.367 . S
C3239 C3241 1.433 . S
C3240 C3236 1.350 . S
C3240 C3237 1.463 . S
C3240 N3244 1.427 . S
C3241 H3231 0.929 . S
C3241 C3239 1.433 . S
C3241 N3244 1.384 . S
C3242 H3233 0.929 . S
C3242 C3234 1.378 . S
C3242 C3237 1.350 . S
C3243 H3230 0.929 . S
C3243 C3235 1.433 . S
C3243 N3245 1.384 . S
N3244 C3240 1.427 . S
N3244 C3241 1.384 . S
N3245 C3237 1.427 . S
N3245 C3243 1.384 . S
H3246 C3252 0.930 . S
H3247 C3256 0.930 . S
H3248 C3261 0.929 . S
H3249 C3259 0.929 . S
H3250 C3254 0.929 . S
H3251 C3260 0.929 . S
C3252 H3246 0.930 . S
C3252 C3253 1.367 . S
C3252 C3260 1.378 . S
C3253 C3252 1.367 . S
C3253 C3261 1.433 . S
C3254 H3250 0.929 . S
C3254 C3256 1.378 . S
C3254 C3258 1.350 . S
C3255 C3258 1.463 . S
C3255 C3260 1.350 . S
C3255 N3263 1.427 . S
C3256 H3247 0.930 . S
C3256 C3254 1.378 . S
C3256 C3257 1.367 . S
C3257 C3256 1.367 . S
C3257 C3259 1.433 . S
C3258 C3254 1.350 . S
C3258 C3255 1.463 . S
C3258 N3262 1.427 . S
C3259 H3249 0.929 . S
C3259 C3257 1.433 . S
C3259 N3262 1.384 . S
C3260 H3251 0.929 . S
C3260 C3252 1.378 . S
C3260 C3255 1.350 . S
C3261 H3248 0.929 . S
C3261 C3253 1.433 . S
C3261 N3263 1.384 . S
N3262 C3258 1.427 . S
N3262 C3259 1.384 . S
N3263 C3255 1.427 . S
N3263 C3261 1.384 . S
H3264 C3270 0.930 . S
H3265 C3274 0.930 . S
H3266 C3279 0.929 . S
H3267 C3277 0.929 . S
H3268 C3272 0.929 . S
H3269 C3278 0.929 . S
C3270 H3264 0.930 . S
C3270 C3271 1.367 . S
C3270 C3278 1.378 . S
C3271 C3270 1.367 . S
C3271 C3279 1.433 . S
C3272 H3268 0.929 . S
C3272 C3274 1.378 . S
C3272 C3276 1.350 . S
C3273 C3276 1.463 . S
C3273 C3278 1.350 . S
C3273 N3281 1.427 . S
C3274 H3265 0.930 . S
C3274 C3272 1.378 . S
C3274 C3275 1.367 . S
C3275 C3274 1.367 . S
C3275 C3277 1.433 . S
C3276 C3272 1.350 . S
C3276 C3273 1.463 . S
C3276 N3280 1.427 . S
C3277 H3267 0.929 . S
C3277 C3275 1.433 . S
C3277 N3280 1.384 . S
C3278 H3269 0.929 . S
C3278 C3270 1.378 . S
C3278 C3273 1.350 . S
C3279 H3266 0.929 . S
C3279 C3271 1.433 . S
C3279 N3281 1.384 . S
N3280 C3276 1.427 . S
N3280 C3277 1.384 . S
N3281 C3273 1.427 . S
N3281 C3279 1.384 . S
H3282 C3288 0.930 . S
H3283 C3292 0.930 . S
H3284 C3297 0.929 . S
H3285 C3295 0.929 . S
H3286 C3290 0.929 . S
H3287 C3296 0.929 . S
C3288 H3282 0.930 . S
C3288 C3289 1.367 . S
C3288 C3296 1.378 . S
C3289 C3288 1.367 . S
C3289 C3297 1.433 . S
C3290 H3286 0.929 . S
C3290 C3292 1.378 . S
C3290 C3294 1.350 . S
C3291 C3294 1.463 . S
C3291 C3296 1.350 . S
C3291 N3299 1.427 . S
C3292 H3283 0.930 . S
C3292 C3290 1.378 . S
C3292 C3293 1.367 . S
C3293 C3292 1.367 . S
C3293 C3295 1.433 . S
C3294 C3290 1.350 . S
C3294 C3291 1.463 . S
C3294 N3298 1.427 . S
C3295 H3285 0.929 . S
C3295 C3293 1.433 . S
C3295 N3298 1.384 . S
C3296 H3287 0.929 . S
C3296 C3288 1.378 . S
C3296 C3291 1.350 . S
C3297 H3284 0.929 . S
C3297 C3289 1.433 . S
C3297 N3299 1.384 . S
N3298 C3294 1.427 . S
N3298 C3295 1.384 . S
N3299 C3291 1.427 . S
N3299 C3297 1.384 . S
H3300 C3306 0.930 . S
H3301 C3310 0.930 . S
H3302 C3315 0.929 . S
H3303 C3313 0.929 . S
H3304 C3308 0.929 . S
H3305 C3314 0.929 . S
C3306 H3300 0.930 . S
C3306 C3307 1.367 . S
C3306 C3314 1.378 . S
C3307 C3306 1.367 . S
C3307 C3315 1.433 . S
C3308 H3304 0.929 . S
C3308 C3310 1.378 . S
C3308 C3312 1.350 . S
C3309 C3312 1.463 . S
C3309 C3314 1.350 . S
C3309 N3317 1.427 . S
C3310 H3301 0.930 . S
C3310 C3308 1.378 . S
C3310 C3311 1.367 . S
C3311 C3310 1.367 . S
C3311 C3313 1.433 . S
C3312 C3308 1.350 . S
C3312 C3309 1.463 . S
C3312 N3316 1.427 . S
C3313 H3303 0.929 . S
C3313 C3311 1.433 . S
C3313 N3316 1.384 . S
C3314 H3305 0.929 . S
C3314 C3306 1.378 . S
C3314 C3309 1.350 . S
C3315 H3302 0.929 . S
C3315 C3307 1.433 . S
C3315 N3317 1.384 . S
N3316 C3312 1.427 . S
N3316 C3313 1.384 . S
N3317 C3309 1.427 . S
N3317 C3315 1.384 . S
H3318 C3324 0.930 . S
H3319 C3328 0.930 . S
H3320 C3333 0.929 . S
H3321 C3331 0.929 . S
H3322 C3326 0.929 . S
H3323 C3332 0.929 . S
C3324 H3318 0.930 . S
C3324 C3325 1.367 . S
C3324 C3332 1.378 . S
C3325 C3324 1.367 . S
C3325 C3333 1.433 . S
C3326 H3322 0.929 . S
C3326 C3328 1.378 . S
C3326 C3330 1.350 . S
C3327 C3330 1.463 . S
C3327 C3332 1.350 . S
C3327 N3335 1.427 . S
C3328 H3319 0.930 . S
C3328 C3326 1.378 . S
C3328 C3329 1.367 . S
C3329 C3328 1.367 . S
C3329 C3331 1.433 . S
C3330 C3326 1.350 . S
C3330 C3327 1.463 . S
C3330 N3334 1.427 . S
C3331 H3321 0.929 . S
C3331 C3329 1.433 . S
C3331 N3334 1.384 . S
C3332 H3323 0.929 . S
C3332 C3324 1.378 . S
C3332 C3327 1.350 . S
C3333 H3320 0.929 . S
C3333 C3325 1.433 . S
C3333 N3335 1.384 . S
N3334 C3330 1.427 . S
N3334 C3331 1.384 . S
N3335 C3327 1.427 . S
N3335 C3333 1.384 . S
H3336 C3342 0.930 . S
H3337 C3346 0.930 . S
H3338 C3351 0.929 . S
H3339 C3349 0.929 . S
H3340 C3344 0.929 . S
H3341 C3350 0.929 . S
C3342 H3336 0.930 . S
C3342 C3343 1.367 . S
C3342 C3350 1.378 . S
C3343 C3342 1.367 . S
C3343 C3351 1.433 . S
C3344 H3340 0.929 . S
C3344 C3346 1.378 . S
C3344 C3348 1.350 . S
C3345 C3348 1.463 . S
C3345 C3350 1.350 . S
C3345 N3353 1.427 . S
C3346 H3337 0.930 . S
C3346 C3344 1.378 . S
C3346 C3347 1.367 . S
C3347 C3346 1.367 . S
C3347 C3349 1.433 . S
C3348 C3344 1.350 . S
C3348 C3345 1.463 . S
C3348 N3352 1.427 . S
C3349 H3339 0.929 . S
C3349 C3347 1.433 . S
C3349 N3352 1.384 . S
C3350 H3341 0.929 . S
C3350 C3342 1.378 . S
C3350 C3345 1.350 . S
C3351 H3338 0.929 . S
C3351 C3343 1.433 . S
C3351 N3353 1.384 . S
N3352 C3348 1.427 . S
N3352 C3349 1.384 . S
N3353 C3345 1.427 . S
N3353 C3351 1.384 . S
H3354 C3360 0.930 . S
H3355 C3364 0.930 . S
H3356 C3369 0.929 . S
H3357 C3367 0.929 . S
H3358 C3362 0.929 . S
H3359 C3368 0.929 . S
C3360 H3354 0.930 . S
C3360 C3361 1.367 . S
C3360 C3368 1.378 . S
C3361 C3360 1.367 . S
C3361 C3369 1.433 . S
C3362 H3358 0.929 . S
C3362 C3364 1.378 . S
C3362 C3366 1.350 . S
C3363 C3366 1.463 . S
C3363 C3368 1.350 . S
C3363 N3371 1.427 . S
C3364 H3355 0.930 . S
C3364 C3362 1.378 . S
C3364 C3365 1.367 . S
C3365 C3364 1.367 . S
C3365 C3367 1.433 . S
C3366 C3362 1.350 . S
C3366 C3363 1.463 . S
C3366 N3370 1.427 . S
C3367 H3357 0.929 . S
C3367 C3365 1.433 . S
C3367 N3370 1.384 . S
C3368 H3359 0.929 . S
C3368 C3360 1.378 . S
C3368 C3363 1.350 . S
C3369 H3356 0.929 . S
C3369 C3361 1.433 . S
C3369 N3371 1.384 . S
N3370 C3366 1.427 . S
N3370 C3367 1.384 . S
N3371 C3363 1.427 . S
N3371 C3369 1.384 . S
H3372 C3378 0.930 . S
H3373 C3382 0.930 . S
H3374 C3387 0.929 . S
H3375 C3385 0.929 . S
H3376 C3380 0.929 . S
H3377 C3386 0.929 . S
C3378 H3372 0.930 . S
C3378 C3379 1.367 . S
C3378 C3386 1.378 . S
C3379 C3378 1.367 . S
C3379 C3387 1.433 . S
C3380 H3376 0.929 . S
C3380 C3382 1.378 . S
C3380 C3384 1.350 . S
C3381 C3384 1.463 . S
C3381 C3386 1.350 . S
C3381 N3389 1.427 . S
C3382 H3373 0.930 . S
C3382 C3380 1.378 . S
C3382 C3383 1.367 . S
C3383 C3382 1.367 . S
C3383 C3385 1.433 . S
C3384 C3380 1.350 . S
C3384 C3381 1.463 . S
C3384 N3388 1.427 . S
C3385 H3375 0.929 . S
C3385 C3383 1.433 . S
C3385 N3388 1.384 . S
C3386 H3377 0.929 . S
C3386 C3378 1.378 . S
C3386 C3381 1.350 . S
C3387 H3374 0.929 . S
C3387 C3379 1.433 . S
C3387 N3389 1.384 . S
N3388 C3384 1.427 . S
N3388 C3385 1.384 . S
N3389 C3381 1.427 . S
N3389 C3387 1.384 . S
H3390 C3396 0.930 . S
H3391 C3400 0.930 . S
H3392 C3405 0.929 . S
H3393 C3403 0.929 . S
H3394 C3398 0.929 . S
H3395 C3404 0.929 . S
C3396 H3390 0.930 . S
C3396 C3397 1.367 . S
C3396 C3404 1.378 . S
C3397 C3396 1.367 . S
C3397 C3405 1.433 . S
C3398 H3394 0.929 . S
C3398 C3400 1.378 . S
C3398 C3402 1.350 . S
C3399 C3402 1.463 . S
C3399 C3404 1.350 . S
C3399 N3407 1.427 . S
C3400 H3391 0.930 . S
C3400 C3398 1.378 . S
C3400 C3401 1.367 . S
C3401 C3400 1.367 . S
C3401 C3403 1.433 . S
C3402 C3398 1.350 . S
C3402 C3399 1.463 . S
C3402 N3406 1.427 . S
C3403 H3393 0.929 . S
C3403 C3401 1.433 . S
C3403 N3406 1.384 . S
C3404 H3395 0.929 . S
C3404 C3396 1.378 . S
C3404 C3399 1.350 . S
C3405 H3392 0.929 . S
C3405 C3397 1.433 . S
C3405 N3407 1.384 . S
N3406 C3402 1.427 . S
N3406 C3403 1.384 . S
N3407 C3399 1.427 . S
N3407 C3405 1.384 . S
H3408 C3414 0.930 . S
H3409 C3418 0.930 . S
H3410 C3423 0.929 . S
H3411 C3421 0.929 . S
H3412 C3416 0.929 . S
H3413 C3422 0.929 . S
C3414 H3408 0.930 . S
C3414 C3415 1.367 . S
C3414 C3422 1.378 . S
C3415 C3414 1.367 . S
C3415 C3423 1.433 . S
C3416 H3412 0.929 . S
C3416 C3418 1.378 . S
C3416 C3420 1.350 . S
C3417 C3420 1.463 . S
C3417 C3422 1.350 . S
C3417 N3425 1.427 . S
C3418 H3409 0.930 . S
C3418 C3416 1.378 . S
C3418 C3419 1.367 . S
C3419 C3418 1.367 . S
C3419 C3421 1.433 . S
C3420 C3416 1.350 . S
C3420 C3417 1.463 . S
C3420 N3424 1.427 . S
C3421 H3411 0.929 . S
C3421 C3419 1.433 . S
C3421 N3424 1.384 . S
C3422 H3413 0.929 . S
C3422 C3414 1.378 . S
C3422 C3417 1.350 . S
C3423 H3410 0.929 . S
C3423 C3415 1.433 . S
C3423 N3425 1.384 . S
N3424 C3420 1.427 . S
N3424 C3421 1.384 . S
N3425 C3417 1.427 . S
N3425 C3423 1.384 . S
H3426 C3432 0.930 . S
H3427 C3436 0.930 . S
H3428 C3441 0.929 . S
H3429 C3439 0.929 . S
H3430 C3434 0.929 . S
H3431 C3440 0.929 . S
C3432 H3426 0.930 . S
C3432 C3433 1.367 . S
C3432 C3440 1.378 . S
C3433 C3432 1.367 . S
C3433 C3441 1.433 . S
C3434 H3430 0.929 . S
C3434 C3436 1.378 . S
C3434 C3438 1.350 . S
C3435 C3438 1.463 . S
C3435 C3440 1.350 . S
C3435 N3443 1.427 . S
C3436 H3427 0.930 . S
C3436 C3434 1.378 . S
C3436 C3437 1.367 . S
C3437 C3436 1.367 . S
C3437 C3439 1.433 . S
C3438 C3434 1.350 . S
C3438 C3435 1.463 . S
C3438 N3442 1.427 . S
C3439 H3429 0.929 . S
C3439 C3437 1.433 . S
C3439 N3442 1.384 . S
C3440 H3431 0.929 . S
C3440 C3432 1.378 . S
C3440 C3435 1.350 . S
C3441 H3428 0.929 . S
C3441 C3433 1.433 . S
C3441 N3443 1.384 . S
N3442 C3438 1.427 . S
N3442 C3439 1.384 . S
N3443 C3435 1.427 . S
N3443 C3441 1.384 . S
H3444 C3450 0.930 . S
H3445 C3454 0.930 . S
H3446 C3459 0.929 . S
H3447 C3457 0.929 . S
H3448 C3452 0.929 . S
H3449 C3458 0.929 . S
C3450 H3444 0.930 . S
C3450 C3451 1.367 . S
C3450 C3458 1.378 . S
C3451 C3450 1.367 . S
C3451 C3459 1.433 . S
C3452 H3448 0.929 . S
C3452 C3454 1.378 . S
C3452 C3456 1.350 . S
C3453 C3456 1.463 . S
C3453 C3458 1.350 . S
C3453 N3461 1.427 . S
C3454 H3445 0.930 . S
C3454 C3452 1.378 . S
C3454 C3455 1.367 . S
C3455 C3454 1.367 . S
C3455 C3457 1.433 . S
C3456 C3452 1.350 . S
C3456 C3453 1.463 . S
C3456 N3460 1.427 . S
C3457 H3447 0.929 . S
C3457 C3455 1.433 . S
C3457 N3460 1.384 . S
C3458 H3449 0.929 . S
C3458 C3450 1.378 . S
C3458 C3453 1.350 . S
C3459 H3446 0.929 . S
C3459 C3451 1.433 . S
C3459 N3461 1.384 . S
N3460 C3456 1.427 . S
N3460 C3457 1.384 . S
N3461 C3453 1.427 . S
N3461 C3459 1.384 . S
H3462 C3468 0.930 . S
H3463 C3472 0.930 . S
H3464 C3477 0.929 . S
H3465 C3475 0.929 . S
H3466 C3470 0.929 . S
H3467 C3476 0.929 . S
C3468 H3462 0.930 . S
C3468 C3469 1.367 . S
C3468 C3476 1.378 . S
C3469 C3468 1.367 . S
C3469 C3477 1.433 . S
C3470 H3466 0.929 . S
C3470 C3472 1.378 . S
C3470 C3474 1.350 . S
C3471 C3474 1.463 . S
C3471 C3476 1.350 . S
C3471 N3479 1.427 . S
C3472 H3463 0.930 . S
C3472 C3470 1.378 . S
C3472 C3473 1.367 . S
C3473 C3472 1.367 . S
C3473 C3475 1.433 . S
C3474 C3470 1.350 . S
C3474 C3471 1.463 . S
C3474 N3478 1.427 . S
C3475 H3465 0.929 . S
C3475 C3473 1.433 . S
C3475 N3478 1.384 . S
C3476 H3467 0.929 . S
C3476 C3468 1.378 . S
C3476 C3471 1.350 . S
C3477 H3464 0.929 . S
C3477 C3469 1.433 . S
C3477 N3479 1.384 . S
N3478 C3474 1.427 . S
N3478 C3475 1.384 . S
N3479 C3471 1.427 . S
N3479 C3477 1.384 . S
H3480 C3486 0.930 . S
H3481 C3490 0.930 . S
H3482 C3495 0.929 . S
H3483 C3493 0.929 . S
H3484 C3488 0.929 . S
H3485 C3494 0.929 . S
C3486 H3480 0.930 . S
C3486 C3487 1.367 . S
C3486 C3494 1.378 . S
C3487 C3486 1.367 . S
C3487 C3495 1.433 . S
C3488 H3484 0.929 . S
C3488 C3490 1.378 . S
C3488 C3492 1.350 . S
C3489 C3492 1.463 . S
C3489 C3494 1.350 . S
C3489 N3497 1.427 . S
C3490 H3481 0.930 . S
C3490 C3488 1.378 . S
C3490 C3491 1.367 . S
C3491 C3490 1.367 . S
C3491 C3493 1.433 . S
C3492 C3488 1.350 . S
C3492 C3489 1.463 . S
C3492 N3496 1.427 . S
C3493 H3483 0.929 . S
C3493 C3491 1.433 . S
C3493 N3496 1.384 . S
C3494 H3485 0.929 . S
C3494 C3486 1.378 . S
C3494 C3489 1.350 . S
C3495 H3482 0.929 . S
C3495 C3487 1.433 . S
C3495 N3497 1.384 . S
N3496 C3492 1.427 . S
N3496 C3493 1.384 . S
N3497 C3489 1.427 . S
N3497 C3495 1.384 . S
H3498 C3504 0.930 . S
H3499 C3508 0.930 . S
H3500 C3513 0.929 . S
H3501 C3511 0.929 . S
H3502 C3506 0.929 . S
H3503 C3512 0.929 . S
C3504 H3498 0.930 . S
C3504 C3505 1.367 . S
C3504 C3512 1.378 . S
C3505 C3504 1.367 . S
C3505 C3513 1.433 . S
C3506 H3502 0.929 . S
C3506 C3508 1.378 . S
C3506 C3510 1.350 . S
C3507 C3510 1.463 . S
C3507 C3512 1.350 . S
C3507 N3515 1.427 . S
C3508 H3499 0.930 . S
C3508 C3506 1.378 . S
C3508 C3509 1.367 . S
C3509 C3508 1.367 . S
C3509 C3511 1.433 . S
C3510 C3506 1.350 . S
C3510 C3507 1.463 . S
C3510 N3514 1.427 . S
C3511 H3501 0.929 . S
C3511 C3509 1.433 . S
C3511 N3514 1.384 . S
C3512 H3503 0.929 . S
C3512 C3504 1.378 . S
C3512 C3507 1.350 . S
C3513 H3500 0.929 . S
C3513 C3505 1.433 . S
C3513 N3515 1.384 . S
N3514 C3510 1.427 . S
N3514 C3511 1.384 . S
N3515 C3507 1.427 . S
N3515 C3513 1.384 . S
H3516 C3522 0.930 . S
H3517 C3526 0.930 . S
H3518 C3531 0.929 . S
H3519 C3529 0.929 . S
H3520 C3524 0.929 . S
H3521 C3530 0.929 . S
C3522 H3516 0.930 . S
C3522 C3523 1.367 . S
C3522 C3530 1.378 . S
C3523 C3522 1.367 . S
C3523 C3531 1.433 . S
C3524 H3520 0.929 . S
C3524 C3526 1.378 . S
C3524 C3528 1.350 . S
C3525 C3528 1.463 . S
C3525 C3530 1.350 . S
C3525 N3533 1.427 . S
C3526 H3517 0.930 . S
C3526 C3524 1.378 . S
C3526 C3527 1.367 . S
C3527 C3526 1.367 . S
C3527 C3529 1.433 . S
C3528 C3524 1.350 . S
C3528 C3525 1.463 . S
C3528 N3532 1.427 . S
C3529 H3519 0.929 . S
C3529 C3527 1.433 . S
C3529 N3532 1.384 . S
C3530 H3521 0.929 . S
C3530 C3522 1.378 . S
C3530 C3525 1.350 . S
C3531 H3518 0.929 . S
C3531 C3523 1.433 . S
C3531 N3533 1.384 . S
N3532 C3528 1.427 . S
N3532 C3529 1.384 . S
N3533 C3525 1.427 . S
N3533 C3531 1.384 . S
H3534 C3540 0.930 . S
H3535 C3544 0.930 . S
H3536 C3549 0.929 . S
H3537 C3547 0.929 . S
H3538 C3542 0.929 . S
H3539 C3548 0.929 . S
C3540 H3534 0.930 . S
C3540 C3541 1.367 . S
C3540 C3548 1.378 . S
C3541 C3540 1.367 . S
C3541 C3549 1.433 . S
C3542 H3538 0.929 . S
C3542 C3544 1.378 . S
C3542 C3546 1.350 . S
C3543 C3546 1.463 . S
C3543 C3548 1.350 . S
C3543 N3551 1.427 . S
C3544 H3535 0.930 . S
C3544 C3542 1.378 . S
C3544 C3545 1.367 . S
C3545 C3544 1.367 . S
C3545 C3547 1.433 . S
C3546 C3542 1.350 . S
C3546 C3543 1.463 . S
C3546 N3550 1.427 . S
C3547 H3537 0.929 . S
C3547 C3545 1.433 . S
C3547 N3550 1.384 . S
C3548 H3539 0.929 . S
C3548 C3540 1.378 . S
C3548 C3543 1.350 . S
C3549 H3536 0.929 . S
C3549 C3541 1.433 . S
C3549 N3551 1.384 . S
N3550 C3546 1.427 . S
N3550 C3547 1.384 . S
N3551 C3543 1.427 . S
N3551 C3549 1.384 . S
H3552 C3558 0.930 . S
H3553 C3562 0.930 . S
H3554 C3567 0.929 . S
H3555 C3565 0.929 . S
H3556 C3560 0.929 . S
H3557 C3566 0.929 . S
C3558 H3552 0.930 . S
C3558 C3559 1.367 . S
C3558 C3566 1.378 . S
C3559 C3558 1.367 . S
C3559 C3567 1.433 . S
C3560 H3556 0.929 . S
C3560 C3562 1.378 . S
C3560 C3564 1.350 . S
C3561 C3564 1.463 . S
C3561 C3566 1.350 . S
C3561 N3569 1.427 . S
C3562 H3553 0.930 . S
C3562 C3560 1.378 . S
C3562 C3563 1.367 . S
C3563 C3562 1.367 . S
C3563 C3565 1.433 . S
C3564 C3560 1.350 . S
C3564 C3561 1.463 . S
C3564 N3568 1.427 . S
C3565 H3555 0.929 . S
C3565 C3563 1.433 . S
C3565 N3568 1.384 . S
C3566 H3557 0.929 . S
C3566 C3558 1.378 . S
C3566 C3561 1.350 . S
C3567 H3554 0.929 . S
C3567 C3559 1.433 . S
C3567 N3569 1.384 . S
N3568 C3564 1.427 . S
N3568 C3565 1.384 . S
N3569 C3561 1.427 . S
N3569 C3567 1.384 . S
H3570 C3576 0.930 . S
H3571 C3580 0.930 . S
H3572 C3585 0.929 . S
H3573 C3583 0.929 . S
H3574 C3578 0.929 . S
H3575 C3584 0.929 . S
C3576 H3570 0.930 . S
C3576 C3577 1.367 . S
C3576 C3584 1.378 . S
C3577 C3576 1.367 . S
C3577 C3585 1.433 . S
C3578 H3574 0.929 . S
C3578 C3580 1.378 . S
C3578 C3582 1.350 . S
C3579 C3582 1.463 . S
C3579 C3584 1.350 . S
C3579 N3587 1.427 . S
C3580 H3571 0.930 . S
C3580 C3578 1.378 . S
C3580 C3581 1.367 . S
C3581 C3580 1.367 . S
C3581 C3583 1.433 . S
C3582 C3578 1.350 . S
C3582 C3579 1.463 . S
C3582 N3586 1.427 . S
C3583 H3573 0.929 . S
C3583 C3581 1.433 . S
C3583 N3586 1.384 . S
C3584 H3575 0.929 . S
C3584 C3576 1.378 . S
C3584 C3579 1.350 . S
C3585 H3572 0.929 . S
C3585 C3577 1.433 . S
C3585 N3587 1.384 . S
N3586 C3582 1.427 . S
N3586 C3583 1.384 . S
N3587 C3579 1.427 . S
N3587 C3585 1.384 . S
H3588 C3594 0.930 . S
H3589 C3598 0.930 . S
H3590 C3603 0.929 . S
H3591 C3601 0.929 . S
H3592 C3596 0.929 . S
H3593 C3602 0.929 . S
C3594 H3588 0.930 . S
C3594 C3595 1.367 . S
C3594 C3602 1.378 . S
C3595 C3594 1.367 . S
C3595 C3603 1.433 . S
C3596 H3592 0.929 . S
C3596 C3598 1.378 . S
C3596 C3600 1.350 . S
C3597 C3600 1.463 . S
C3597 C3602 1.350 . S
C3597 N3605 1.427 . S
C3598 H3589 0.930 . S
C3598 C3596 1.378 . S
C3598 C3599 1.367 . S
C3599 C3598 1.367 . S
C3599 C3601 1.433 . S
C3600 C3596 1.350 . S
C3600 C3597 1.463 . S
C3600 N3604 1.427 . S
C3601 H3591 0.929 . S
C3601 C3599 1.433 . S
C3601 N3604 1.384 . S
C3602 H3593 0.929 . S
C3602 C3594 1.378 . S
C3602 C3597 1.350 . S
C3603 H3590 0.929 . S
C3603 C3595 1.433 . S
C3603 N3605 1.384 . S
N3604 C3600 1.427 . S
N3604 C3601 1.384 . S
N3605 C3597 1.427 . S
N3605 C3603 1.384 . S
H3606 C3612 0.930 . S
H3607 C3616 0.930 . S
H3608 C3621 0.929 . S
H3609 C3619 0.929 . S
H3610 C3614 0.929 . S
H3611 C3620 0.929 . S
C3612 H3606 0.930 . S
C3612 C3613 1.367 . S
C3612 C3620 1.378 . S
C3613 C3612 1.367 . S
C3613 C3621 1.433 . S
C3614 H3610 0.929 . S
C3614 C3616 1.378 . S
C3614 C3618 1.350 . S
C3615 C3618 1.463 . S
C3615 C3620 1.350 . S
C3615 N3623 1.427 . S
C3616 H3607 0.930 . S
C3616 C3614 1.378 . S
C3616 C3617 1.367 . S
C3617 C3616 1.367 . S
C3617 C3619 1.433 . S
C3618 C3614 1.350 . S
C3618 C3615 1.463 . S
C3618 N3622 1.427 . S
C3619 H3609 0.929 . S
C3619 C3617 1.433 . S
C3619 N3622 1.384 . S
C3620 H3611 0.929 . S
C3620 C3612 1.378 . S
C3620 C3615 1.350 . S
C3621 H3608 0.929 . S
C3621 C3613 1.433 . S
C3621 N3623 1.384 . S
N3622 C3618 1.427 . S
N3622 C3619 1.384 . S
N3623 C3615 1.427 . S
N3623 C3621 1.384 . S
H3624 C3630 0.930 . S
H3625 C3634 0.930 . S
H3626 C3639 0.929 . S
H3627 C3637 0.929 . S
H3628 C3632 0.929 . S
H3629 C3638 0.929 . S
C3630 H3624 0.930 . S
C3630 C3631 1.367 . S
C3630 C3638 1.378 . S
C3631 C3630 1.367 . S
C3631 C3639 1.433 . S
C3632 H3628 0.929 . S
C3632 C3634 1.378 . S
C3632 C3636 1.350 . S
C3633 C3636 1.463 . S
C3633 C3638 1.350 . S
C3633 N3641 1.427 . S
C3634 H3625 0.930 . S
C3634 C3632 1.378 . S
C3634 C3635 1.367 . S
C3635 C3634 1.367 . S
C3635 C3637 1.433 . S
C3636 C3632 1.350 . S
C3636 C3633 1.463 . S
C3636 N3640 1.427 . S
C3637 H3627 0.929 . S
C3637 C3635 1.433 . S
C3637 N3640 1.384 . S
C3638 H3629 0.929 . S
C3638 C3630 1.378 . S
C3638 C3633 1.350 . S
C3639 H3626 0.929 . S
C3639 C3631 1.433 . S
C3639 N3641 1.384 . S
N3640 C3636 1.427 . S
N3640 C3637 1.384 . S
N3641 C3633 1.427 . S
N3641 C3639 1.384 . S
H3642 C3648 0.930 . S
H3643 C3652 0.930 . S
H3644 C3657 0.929 . S
H3645 C3655 0.929 . S
H3646 C3650 0.929 . S
H3647 C3656 0.929 . S
C3648 H3642 0.930 . S
C3648 C3649 1.367 . S
C3648 C3656 1.378 . S
C3649 C3648 1.367 . S
C3649 C3657 1.433 . S
C3650 H3646 0.929 . S
C3650 C3652 1.378 . S
C3650 C3654 1.350 . S
C3651 C3654 1.463 . S
C3651 C3656 1.350 . S
C3651 N3659 1.427 . S
C3652 H3643 0.930 . S
C3652 C3650 1.378 . S
C3652 C3653 1.367 . S
C3653 C3652 1.367 . S
C3653 C3655 1.433 . S
C3654 C3650 1.350 . S
C3654 C3651 1.463 . S
C3654 N3658 1.427 . S
C3655 H3645 0.929 . S
C3655 C3653 1.433 . S
C3655 N3658 1.384 . S
C3656 H3647 0.929 . S
C3656 C3648 1.378 . S
C3656 C3651 1.350 . S
C3657 H3644 0.929 . S
C3657 C3649 1.433 . S
C3657 N3659 1.384 . S
N3658 C3654 1.427 . S
N3658 C3655 1.384 . S
N3659 C3651 1.427 . S
N3659 C3657 1.384 . S
H3660 C3666 0.930 . S
H3661 C3670 0.930 . S
H3662 C3675 0.929 . S
H3663 C3673 0.929 . S
H3664 C3668 0.929 . S
H3665 C3674 0.929 . S
C3666 H3660 0.930 . S
C3666 C3667 1.367 . S
C3666 C3674 1.378 . S
C3667 C3666 1.367 . S
C3667 C3675 1.433 . S
C3668 H3664 0.929 . S
C3668 C3670 1.378 . S
C3668 C3672 1.350 . S
C3669 C3672 1.463 . S
C3669 C3674 1.350 . S
C3669 N3677 1.427 . S
C3670 H3661 0.930 . S
C3670 C3668 1.378 . S
C3670 C3671 1.367 . S
C3671 C3670 1.367 . S
C3671 C3673 1.433 . S
C3672 C3668 1.350 . S
C3672 C3669 1.463 . S
C3672 N3676 1.427 . S
C3673 H3663 0.929 . S
C3673 C3671 1.433 . S
C3673 N3676 1.384 . S
C3674 H3665 0.929 . S
C3674 C3666 1.378 . S
C3674 C3669 1.350 . S
C3675 H3662 0.929 . S
C3675 C3667 1.433 . S
C3675 N3677 1.384 . S
N3676 C3672 1.427 . S
N3676 C3673 1.384 . S
N3677 C3669 1.427 . S
N3677 C3675 1.384 . S
H3678 C3684 0.930 . S
H3679 C3688 0.930 . S
H3680 C3693 0.929 . S
H3681 C3691 0.929 . S
H3682 C3686 0.929 . S
H3683 C3692 0.929 . S
C3684 H3678 0.930 . S
C3684 C3685 1.367 . S
C3684 C3692 1.378 . S
C3685 C3684 1.367 . S
C3685 C3693 1.433 . S
C3686 H3682 0.929 . S
C3686 C3688 1.378 . S
C3686 C3690 1.350 . S
C3687 C3690 1.463 . S
C3687 C3692 1.350 . S
C3687 N3695 1.427 . S
C3688 H3679 0.930 . S
C3688 C3686 1.378 . S
C3688 C3689 1.367 . S
C3689 C3688 1.367 . S
C3689 C3691 1.433 . S
C3690 C3686 1.350 . S
C3690 C3687 1.463 . S
C3690 N3694 1.427 . S
C3691 H3681 0.929 . S
C3691 C3689 1.433 . S
C3691 N3694 1.384 . S
C3692 H3683 0.929 . S
C3692 C3684 1.378 . S
C3692 C3687 1.350 . S
C3693 H3680 0.929 . S
C3693 C3685 1.433 . S
C3693 N3695 1.384 . S
N3694 C3690 1.427 . S
N3694 C3691 1.384 . S
N3695 C3687 1.427 . S
N3695 C3693 1.384 . S
H3696 C3702 0.930 . S
H3697 C3706 0.930 . S
H3698 C3711 0.929 . S
H3699 C3709 0.929 . S
H3700 C3704 0.929 . S
H3701 C3710 0.929 . S
C3702 H3696 0.930 . S
C3702 C3703 1.367 . S
C3702 C3710 1.378 . S
C3703 C3702 1.367 . S
C3703 C3711 1.433 . S
C3704 H3700 0.929 . S
C3704 C3706 1.378 . S
C3704 C3708 1.350 . S
C3705 C3708 1.463 . S
C3705 C3710 1.350 . S
C3705 N3713 1.427 . S
C3706 H3697 0.930 . S
C3706 C3704 1.378 . S
C3706 C3707 1.367 . S
C3707 C3706 1.367 . S
C3707 C3709 1.433 . S
C3708 C3704 1.350 . S
C3708 C3705 1.463 . S
C3708 N3712 1.427 . S
C3709 H3699 0.929 . S
C3709 C3707 1.433 . S
C3709 N3712 1.384 . S
C3710 H3701 0.929 . S
C3710 C3702 1.378 . S
C3710 C3705 1.350 . S
C3711 H3698 0.929 . S
C3711 C3703 1.433 . S
C3711 N3713 1.384 . S
N3712 C3708 1.427 . S
N3712 C3709 1.384 . S
N3713 C3705 1.427 . S
N3713 C3711 1.384 . S
H3714 C3720 0.930 . S
H3715 C3724 0.930 . S
H3716 C3729 0.929 . S
H3717 C3727 0.929 . S
H3718 C3722 0.929 . S
H3719 C3728 0.929 . S
C3720 H3714 0.930 . S
C3720 C3721 1.367 . S
C3720 C3728 1.378 . S
C3721 C3720 1.367 . S
C3721 C3729 1.433 . S
C3722 H3718 0.929 . S
C3722 C3724 1.378 . S
C3722 C3726 1.350 . S
C3723 C3726 1.463 . S
C3723 C3728 1.350 . S
C3723 N3731 1.427 . S
C3724 H3715 0.930 . S
C3724 C3722 1.378 . S
C3724 C3725 1.367 . S
C3725 C3724 1.367 . S
C3725 C3727 1.433 . S
C3726 C3722 1.350 . S
C3726 C3723 1.463 . S
C3726 N3730 1.427 . S
C3727 H3717 0.929 . S
C3727 C3725 1.433 . S
C3727 N3730 1.384 . S
C3728 H3719 0.929 . S
C3728 C3720 1.378 . S
C3728 C3723 1.350 . S
C3729 H3716 0.929 . S
C3729 C3721 1.433 . S
C3729 N3731 1.384 . S
N3730 C3726 1.427 . S
N3730 C3727 1.384 . S
N3731 C3723 1.427 . S
N3731 C3729 1.384 . S
H3732 C3738 0.930 . S
H3733 C3742 0.930 . S
H3734 C3747 0.929 . S
H3735 C3745 0.929 . S
H3736 C3740 0.929 . S
H3737 C3746 0.929 . S
C3738 H3732 0.930 . S
C3738 C3739 1.367 . S
C3738 C3746 1.378 . S
C3739 C3738 1.367 . S
C3739 C3747 1.433 . S
C3740 H3736 0.929 . S
C3740 C3742 1.378 . S
C3740 C3744 1.350 . S
C3741 C3744 1.463 . S
C3741 C3746 1.350 . S
C3741 N3749 1.427 . S
C3742 H3733 0.930 . S
C3742 C3740 1.378 . S
C3742 C3743 1.367 . S
C3743 C3742 1.367 . S
C3743 C3745 1.433 . S
C3744 C3740 1.350 . S
C3744 C3741 1.463 . S
C3744 N3748 1.427 . S
C3745 H3735 0.929 . S
C3745 C3743 1.433 . S
C3745 N3748 1.384 . S
C3746 H3737 0.929 . S
C3746 C3738 1.378 . S
C3746 C3741 1.350 . S
C3747 H3734 0.929 . S
C3747 C3739 1.433 . S
C3747 N3749 1.384 . S
N3748 C3744 1.427 . S
N3748 C3745 1.384 . S
N3749 C3741 1.427 . S
N3749 C3747 1.384 . S
H3750 C3756 0.930 . S
H3751 C3760 0.930 . S
H3752 C3765 0.929 . S
H3753 C3763 0.929 . S
H3754 C3758 0.929 . S
H3755 C3764 0.929 . S
C3756 H3750 0.930 . S
C3756 C3757 1.367 . S
C3756 C3764 1.378 . S
C3757 C3756 1.367 . S
C3757 C3765 1.433 . S
C3758 H3754 0.929 . S
C3758 C3760 1.378 . S
C3758 C3762 1.350 . S
C3759 C3762 1.463 . S
C3759 C3764 1.350 . S
C3759 N3767 1.427 . S
C3760 H3751 0.930 . S
C3760 C3758 1.378 . S
C3760 C3761 1.367 . S
C3761 C3760 1.367 . S
C3761 C3763 1.433 . S
C3762 C3758 1.350 . S
C3762 C3759 1.463 . S
C3762 N3766 1.427 . S
C3763 H3753 0.929 . S
C3763 C3761 1.433 . S
C3763 N3766 1.384 . S
C3764 H3755 0.929 . S
C3764 C3756 1.378 . S
C3764 C3759 1.350 . S
C3765 H3752 0.929 . S
C3765 C3757 1.433 . S
C3765 N3767 1.384 . S
N3766 C3762 1.427 . S
N3766 C3763 1.384 . S
N3767 C3759 1.427 . S
N3767 C3765 1.384 . S
H3768 C3774 0.930 . S
H3769 C3778 0.930 . S
H3770 C3783 0.929 . S
H3771 C3781 0.929 . S
H3772 C3776 0.929 . S
H3773 C3782 0.929 . S
C3774 H3768 0.930 . S
C3774 C3775 1.367 . S
C3774 C3782 1.378 . S
C3775 C3774 1.367 . S
C3775 C3783 1.433 . S
C3776 H3772 0.929 . S
C3776 C3778 1.378 . S
C3776 C3780 1.350 . S
C3777 C3780 1.463 . S
C3777 C3782 1.350 . S
C3777 N3785 1.427 . S
C3778 H3769 0.930 . S
C3778 C3776 1.378 . S
C3778 C3779 1.367 . S
C3779 C3778 1.367 . S
C3779 C3781 1.433 . S
C3780 C3776 1.350 . S
C3780 C3777 1.463 . S
C3780 N3784 1.427 . S
C3781 H3771 0.929 . S
C3781 C3779 1.433 . S
C3781 N3784 1.384 . S
C3782 H3773 0.929 . S
C3782 C3774 1.378 . S
C3782 C3777 1.350 . S
C3783 H3770 0.929 . S
C3783 C3775 1.433 . S
C3783 N3785 1.384 . S
N3784 C3780 1.427 . S
N3784 C3781 1.384 . S
N3785 C3777 1.427 . S
N3785 C3783 1.384 . S
H3786 C3792 0.930 . S
H3787 C3796 0.930 . S
H3788 C3801 0.929 . S
H3789 C3799 0.929 . S
H3790 C3794 0.929 . S
H3791 C3800 0.929 . S
C3792 H3786 0.930 . S
C3792 C3793 1.367 . S
C3792 C3800 1.378 . S
C3793 C3792 1.367 . S
C3793 C3801 1.433 . S
C3794 H3790 0.929 . S
C3794 C3796 1.378 . S
C3794 C3798 1.350 . S
C3795 C3798 1.463 . S
C3795 C3800 1.350 . S
C3795 N3803 1.427 . S
C3796 H3787 0.930 . S
C3796 C3794 1.378 . S
C3796 C3797 1.367 . S
C3797 C3796 1.367 . S
C3797 C3799 1.433 . S
C3798 C3794 1.350 . S
C3798 C3795 1.463 . S
C3798 N3802 1.427 . S
C3799 H3789 0.929 . S
C3799 C3797 1.433 . S
C3799 N3802 1.384 . S
C3800 H3791 0.929 . S
C3800 C3792 1.378 . S
C3800 C3795 1.350 . S
C3801 H3788 0.929 . S
C3801 C3793 1.433 . S
C3801 N3803 1.384 . S
N3802 C3798 1.427 . S
N3802 C3799 1.384 . S
N3803 C3795 1.427 . S
N3803 C3801 1.384 . S
H3804 C3810 0.930 . S
H3805 C3814 0.930 . S
H3806 C3819 0.929 . S
H3807 C3817 0.929 . S
H3808 C3812 0.929 . S
H3809 C3818 0.929 . S
C3810 H3804 0.930 . S
C3810 C3811 1.367 . S
C3810 C3818 1.378 . S
C3811 C3810 1.367 . S
C3811 C3819 1.433 . S
C3812 H3808 0.929 . S
C3812 C3814 1.378 . S
C3812 C3816 1.350 . S
C3813 C3816 1.463 . S
C3813 C3818 1.350 . S
C3813 N3821 1.427 . S
C3814 H3805 0.930 . S
C3814 C3812 1.378 . S
C3814 C3815 1.367 . S
C3815 C3814 1.367 . S
C3815 C3817 1.433 . S
C3816 C3812 1.350 . S
C3816 C3813 1.463 . S
C3816 N3820 1.427 . S
C3817 H3807 0.929 . S
C3817 C3815 1.433 . S
C3817 N3820 1.384 . S
C3818 H3809 0.929 . S
C3818 C3810 1.378 . S
C3818 C3813 1.350 . S
C3819 H3806 0.929 . S
C3819 C3811 1.433 . S
C3819 N3821 1.384 . S
N3820 C3816 1.427 . S
N3820 C3817 1.384 . S
N3821 C3813 1.427 . S
N3821 C3819 1.384 . S
H3822 C3828 0.930 . S
H3823 C3832 0.930 . S
H3824 C3837 0.929 . S
H3825 C3835 0.929 . S
H3826 C3830 0.929 . S
H3827 C3836 0.929 . S
C3828 H3822 0.930 . S
C3828 C3829 1.367 . S
C3828 C3836 1.378 . S
C3829 C3828 1.367 . S
C3829 C3837 1.433 . S
C3830 H3826 0.929 . S
C3830 C3832 1.378 . S
C3830 C3834 1.350 . S
C3831 C3834 1.463 . S
C3831 C3836 1.350 . S
C3831 N3839 1.427 . S
C3832 H3823 0.930 . S
C3832 C3830 1.378 . S
C3832 C3833 1.367 . S
C3833 C3832 1.367 . S
C3833 C3835 1.433 . S
C3834 C3830 1.350 . S
C3834 C3831 1.463 . S
C3834 N3838 1.427 . S
C3835 H3825 0.929 . S
C3835 C3833 1.433 . S
C3835 N3838 1.384 . S
C3836 H3827 0.929 . S
C3836 C3828 1.378 . S
C3836 C3831 1.350 . S
C3837 H3824 0.929 . S
C3837 C3829 1.433 . S
C3837 N3839 1.384 . S
N3838 C3834 1.427 . S
N3838 C3835 1.384 . S
N3839 C3831 1.427 . S
N3839 C3837 1.384 . S
H3840 C3846 0.930 . S
H3841 C3850 0.930 . S
H3842 C3855 0.929 . S
H3843 C3853 0.929 . S
H3844 C3848 0.929 . S
H3845 C3854 0.929 . S
C3846 H3840 0.930 . S
C3846 C3847 1.367 . S
C3846 C3854 1.378 . S
C3847 C3846 1.367 . S
C3847 C3855 1.433 . S
C3848 H3844 0.929 . S
C3848 C3850 1.378 . S
C3848 C3852 1.350 . S
C3849 C3852 1.463 . S
C3849 C3854 1.350 . S
C3849 N3857 1.427 . S
C3850 H3841 0.930 . S
C3850 C3848 1.378 . S
C3850 C3851 1.367 . S
C3851 C3850 1.367 . S
C3851 C3853 1.433 . S
C3852 C3848 1.350 . S
C3852 C3849 1.463 . S
C3852 N3856 1.427 . S
C3853 H3843 0.929 . S
C3853 C3851 1.433 . S
C3853 N3856 1.384 . S
C3854 H3845 0.929 . S
C3854 C3846 1.378 . S
C3854 C3849 1.350 . S
C3855 H3842 0.929 . S
C3855 C3847 1.433 . S
C3855 N3857 1.384 . S
N3856 C3852 1.427 . S
N3856 C3853 1.384 . S
N3857 C3849 1.427 . S
N3857 C3855 1.384 . S
H3858 C3864 0.930 . S
H3859 C3868 0.930 . S
H3860 C3873 0.929 . S
H3861 C3871 0.929 . S
H3862 C3866 0.929 . S
H3863 C3872 0.929 . S
C3864 H3858 0.930 . S
C3864 C3865 1.367 . S
C3864 C3872 1.378 . S
C3865 C3864 1.367 . S
C3865 C3873 1.433 . S
C3866 H3862 0.929 . S
C3866 C3868 1.378 . S
C3866 C3870 1.350 . S
C3867 C3870 1.463 . S
C3867 C3872 1.350 . S
C3867 N3875 1.427 . S
C3868 H3859 0.930 . S
C3868 C3866 1.378 . S
C3868 C3869 1.367 . S
C3869 C3868 1.367 . S
C3869 C3871 1.433 . S
C3870 C3866 1.350 . S
C3870 C3867 1.463 . S
C3870 N3874 1.427 . S
C3871 H3861 0.929 . S
C3871 C3869 1.433 . S
C3871 N3874 1.384 . S
C3872 H3863 0.929 . S
C3872 C3864 1.378 . S
C3872 C3867 1.350 . S
C3873 H3860 0.929 . S
C3873 C3865 1.433 . S
C3873 N3875 1.384 . S
N3874 C3870 1.427 . S
N3874 C3871 1.384 . S
N3875 C3867 1.427 . S
N3875 C3873 1.384 . S
H3876 C3882 0.930 . S
H3877 C3886 0.930 . S
H3878 C3891 0.929 . S
H3879 C3889 0.929 . S
H3880 C3884 0.929 . S
H3881 C3890 0.929 . S
C3882 H3876 0.930 . S
C3882 C3883 1.367 . S
C3882 C3890 1.378 . S
C3883 C3882 1.367 . S
C3883 C3891 1.433 . S
C3884 H3880 0.929 . S
C3884 C3886 1.378 . S
C3884 C3888 1.350 . S
C3885 C3888 1.463 . S
C3885 C3890 1.350 . S
C3885 N3893 1.427 . S
C3886 H3877 0.930 . S
C3886 C3884 1.378 . S
C3886 C3887 1.367 . S
C3887 C3886 1.367 . S
C3887 C3889 1.433 . S
C3888 C3884 1.350 . S
C3888 C3885 1.463 . S
C3888 N3892 1.427 . S
C3889 H3879 0.929 . S
C3889 C3887 1.433 . S
C3889 N3892 1.384 . S
C3890 H3881 0.929 . S
C3890 C3882 1.378 . S
C3890 C3885 1.350 . S
C3891 H3878 0.929 . S
C3891 C3883 1.433 . S
C3891 N3893 1.384 . S
N3892 C3888 1.427 . S
N3892 C3889 1.384 . S
N3893 C3885 1.427 . S
N3893 C3891 1.384 . S
H3894 C3900 0.930 . S
H3895 C3904 0.930 . S
H3896 C3909 0.929 . S
H3897 C3907 0.929 . S
H3898 C3902 0.929 . S
H3899 C3908 0.929 . S
C3900 H3894 0.930 . S
C3900 C3901 1.367 . S
C3900 C3908 1.378 . S
C3901 C3900 1.367 . S
C3901 C3909 1.433 . S
C3902 H3898 0.929 . S
C3902 C3904 1.378 . S
C3902 C3906 1.350 . S
C3903 C3906 1.463 . S
C3903 C3908 1.350 . S
C3903 N3911 1.427 . S
C3904 H3895 0.930 . S
C3904 C3902 1.378 . S
C3904 C3905 1.367 . S
C3905 C3904 1.367 . S
C3905 C3907 1.433 . S
C3906 C3902 1.350 . S
C3906 C3903 1.463 . S
C3906 N3910 1.427 . S
C3907 H3897 0.929 . S
C3907 C3905 1.433 . S
C3907 N3910 1.384 . S
C3908 H3899 0.929 . S
C3908 C3900 1.378 . S
C3908 C3903 1.350 . S
C3909 H3896 0.929 . S
C3909 C3901 1.433 . S
C3909 N3911 1.384 . S
N3910 C3906 1.427 . S
N3910 C3907 1.384 . S
N3911 C3903 1.427 . S
N3911 C3909 1.384 . S
H3912 C3918 0.930 . S
H3913 C3922 0.930 . S
H3914 C3927 0.929 . S
H3915 C3925 0.929 . S
H3916 C3920 0.929 . S
H3917 C3926 0.929 . S
C3918 H3912 0.930 . S
C3918 C3919 1.367 . S
C3918 C3926 1.378 . S
C3919 C3918 1.367 . S
C3919 C3927 1.433 . S
C3920 H3916 0.929 . S
C3920 C3922 1.378 . S
C3920 C3924 1.350 . S
C3921 C3924 1.463 . S
C3921 C3926 1.350 . S
C3921 N3929 1.427 . S
C3922 H3913 0.930 . S
C3922 C3920 1.378 . S
C3922 C3923 1.367 . S
C3923 C3922 1.367 . S
C3923 C3925 1.433 . S
C3924 C3920 1.350 . S
C3924 C3921 1.463 . S
C3924 N3928 1.427 . S
C3925 H3915 0.929 . S
C3925 C3923 1.433 . S
C3925 N3928 1.384 . S
C3926 H3917 0.929 . S
C3926 C3918 1.378 . S
C3926 C3921 1.350 . S
C3927 H3914 0.929 . S
C3927 C3919 1.433 . S
C3927 N3929 1.384 . S
N3928 C3924 1.427 . S
N3928 C3925 1.384 . S
N3929 C3921 1.427 . S
N3929 C3927 1.384 . S
H3930 C3936 0.930 . S
H3931 C3940 0.930 . S
H3932 C3945 0.929 . S
H3933 C3943 0.929 . S
H3934 C3938 0.929 . S
H3935 C3944 0.929 . S
C3936 H3930 0.930 . S
C3936 C3937 1.367 . S
C3936 C3944 1.378 . S
C3937 C3936 1.367 . S
C3937 C3945 1.433 . S
C3938 H3934 0.929 . S
C3938 C3940 1.378 . S
C3938 C3942 1.350 . S
C3939 C3942 1.463 . S
C3939 C3944 1.350 . S
C3939 N3947 1.427 . S
C3940 H3931 0.930 . S
C3940 C3938 1.378 . S
C3940 C3941 1.367 . S
C3941 C3940 1.367 . S
C3941 C3943 1.433 . S
C3942 C3938 1.350 . S
C3942 C3939 1.463 . S
C3942 N3946 1.427 . S
C3943 H3933 0.929 . S
C3943 C3941 1.433 . S
C3943 N3946 1.384 . S
C3944 H3935 0.929 . S
C3944 C3936 1.378 . S
C3944 C3939 1.350 . S
C3945 H3932 0.929 . S
C3945 C3937 1.433 . S
C3945 N3947 1.384 . S
N3946 C3942 1.427 . S
N3946 C3943 1.384 . S
N3947 C3939 1.427 . S
N3947 C3945 1.384 . S
H3948 C3954 0.930 . S
H3949 C3958 0.930 . S
H3950 C3963 0.929 . S
H3951 C3961 0.929 . S
H3952 C3956 0.929 . S
H3953 C3962 0.929 . S
C3954 H3948 0.930 . S
C3954 C3955 1.367 . S
C3954 C3962 1.378 . S
C3955 C3954 1.367 . S
C3955 C3963 1.433 . S
C3956 H3952 0.929 . S
C3956 C3958 1.378 . S
C3956 C3960 1.350 . S
C3957 C3960 1.463 . S
C3957 C3962 1.350 . S
C3957 N3965 1.427 . S
C3958 H3949 0.930 . S
C3958 C3956 1.378 . S
C3958 C3959 1.367 . S
C3959 C3958 1.367 . S
C3959 C3961 1.433 . S
C3960 C3956 1.350 . S
C3960 C3957 1.463 . S
C3960 N3964 1.427 . S
C3961 H3951 0.929 . S
C3961 C3959 1.433 . S
C3961 N3964 1.384 . S
C3962 H3953 0.929 . S
C3962 C3954 1.378 . S
C3962 C3957 1.350 . S
C3963 H3950 0.929 . S
C3963 C3955 1.433 . S
C3963 N3965 1.384 . S
N3964 C3960 1.427 . S
N3964 C3961 1.384 . S
N3965 C3957 1.427 . S
N3965 C3963 1.384 . S
H3966 C3972 0.930 . S
H3967 C3976 0.930 . S
H3968 C3981 0.929 . S
H3969 C3979 0.929 . S
H3970 C3974 0.929 . S
H3971 C3980 0.929 . S
C3972 H3966 0.930 . S
C3972 C3973 1.367 . S
C3972 C3980 1.378 . S
C3973 C3972 1.367 . S
C3973 C3981 1.433 . S
C3974 H3970 0.929 . S
C3974 C3976 1.378 . S
C3974 C3978 1.350 . S
C3975 C3978 1.463 . S
C3975 C3980 1.350 . S
C3975 N3983 1.427 . S
C3976 H3967 0.930 . S
C3976 C3974 1.378 . S
C3976 C3977 1.367 . S
C3977 C3976 1.367 . S
C3977 C3979 1.433 . S
C3978 C3974 1.350 . S
C3978 C3975 1.463 . S
C3978 N3982 1.427 . S
C3979 H3969 0.929 . S
C3979 C3977 1.433 . S
C3979 N3982 1.384 . S
C3980 H3971 0.929 . S
C3980 C3972 1.378 . S
C3980 C3975 1.350 . S
C3981 H3968 0.929 . S
C3981 C3973 1.433 . S
C3981 N3983 1.384 . S
N3982 C3978 1.427 . S
N3982 C3979 1.384 . S
N3983 C3975 1.427 . S
N3983 C3981 1.384 . S
H3984 C3990 0.930 . S
H3985 C3994 0.930 . S
H3986 C3999 0.929 . S
H3987 C3997 0.929 . S
H3988 C3992 0.929 . S
H3989 C3998 0.929 . S
C3990 H3984 0.930 . S
C3990 C3991 1.367 . S
C3990 C3998 1.378 . S
C3991 C3990 1.367 . S
C3991 C3999 1.433 . S
C3992 H3988 0.929 . S
C3992 C3994 1.378 . S
C3992 C3996 1.350 . S
C3993 C3996 1.463 . S
C3993 C3998 1.350 . S
C3993 N4001 1.427 . S
C3994 H3985 0.930 . S
C3994 C3992 1.378 . S
C3994 C3995 1.367 . S
C3995 C3994 1.367 . S
C3995 C3997 1.433 . S
C3996 C3992 1.350 . S
C3996 C3993 1.463 . S
C3996 N4000 1.427 . S
C3997 H3987 0.929 . S
C3997 C3995 1.433 . S
C3997 N4000 1.384 . S
C3998 H3989 0.929 . S
C3998 C3990 1.378 . S
C3998 C3993 1.350 . S
C3999 H3986 0.929 . S
C3999 C3991 1.433 . S
C3999 N4001 1.384 . S
N4000 C3996 1.427 . S
N4000 C3997 1.384 . S
N4001 C3993 1.427 . S
N4001 C3999 1.384 . S
H4002 C4008 0.930 . S
H4003 C4012 0.930 . S
H4004 C4017 0.929 . S
H4005 C4015 0.929 . S
H4006 C4010 0.929 . S
H4007 C4016 0.929 . S
C4008 H4002 0.930 . S
C4008 C4009 1.367 . S
C4008 C4016 1.378 . S
C4009 C4008 1.367 . S
C4009 C4017 1.433 . S
C4010 H4006 0.929 . S
C4010 C4012 1.378 . S
C4010 C4014 1.350 . S
C4011 C4014 1.463 . S
C4011 C4016 1.350 . S
C4011 N4019 1.427 . S
C4012 H4003 0.930 . S
C4012 C4010 1.378 . S
C4012 C4013 1.367 . S
C4013 C4012 1.367 . S
C4013 C4015 1.433 . S
C4014 C4010 1.350 . S
C4014 C4011 1.463 . S
C4014 N4018 1.427 . S
C4015 H4005 0.929 . S
C4015 C4013 1.433 . S
C4015 N4018 1.384 . S
C4016 H4007 0.929 . S
C4016 C4008 1.378 . S
C4016 C4011 1.350 . S
C4017 H4004 0.929 . S
C4017 C4009 1.433 . S
C4017 N4019 1.384 . S
N4018 C4014 1.427 . S
N4018 C4015 1.384 . S
N4019 C4011 1.427 . S
N4019 C4017 1.384 . S
H4020 C4026 0.930 . S
H4021 C4030 0.930 . S
H4022 C4035 0.929 . S
H4023 C4033 0.929 . S
H4024 C4028 0.929 . S
H4025 C4034 0.929 . S
C4026 H4020 0.930 . S
C4026 C4027 1.367 . S
C4026 C4034 1.378 . S
C4027 C4026 1.367 . S
C4027 C4035 1.433 . S
C4028 H4024 0.929 . S
C4028 C4030 1.378 . S
C4028 C4032 1.350 . S
C4029 C4032 1.463 . S
C4029 C4034 1.350 . S
C4029 N4037 1.427 . S
C4030 H4021 0.930 . S
C4030 C4028 1.378 . S
C4030 C4031 1.367 . S
C4031 C4030 1.367 . S
C4031 C4033 1.433 . S
C4032 C4028 1.350 . S
C4032 C4029 1.463 . S
C4032 N4036 1.427 . S
C4033 H4023 0.929 . S
C4033 C4031 1.433 . S
C4033 N4036 1.384 . S
C4034 H4025 0.929 . S
C4034 C4026 1.378 . S
C4034 C4029 1.350 . S
C4035 H4022 0.929 . S
C4035 C4027 1.433 . S
C4035 N4037 1.384 . S
N4036 C4032 1.427 . S
N4036 C4033 1.384 . S
N4037 C4029 1.427 . S
N4037 C4035 1.384 . S
H4038 C4044 0.930 . S
H4039 C4048 0.930 . S
H4040 C4053 0.929 . S
H4041 C4051 0.929 . S
H4042 C4046 0.929 . S
H4043 C4052 0.929 . S
C4044 H4038 0.930 . S
C4044 C4045 1.367 . S
C4044 C4052 1.378 . S
C4045 C4044 1.367 . S
C4045 C4053 1.433 . S
C4046 H4042 0.929 . S
C4046 C4048 1.378 . S
C4046 C4050 1.350 . S
C4047 C4050 1.463 . S
C4047 C4052 1.350 . S
C4047 N4055 1.427 . S
C4048 H4039 0.930 . S
C4048 C4046 1.378 . S
C4048 C4049 1.367 . S
C4049 C4048 1.367 . S
C4049 C4051 1.433 . S
C4050 C4046 1.350 . S
C4050 C4047 1.463 . S
C4050 N4054 1.427 . S
C4051 H4041 0.929 . S
C4051 C4049 1.433 . S
C4051 N4054 1.384 . S
C4052 H4043 0.929 . S
C4052 C4044 1.378 . S
C4052 C4047 1.350 . S
C4053 H4040 0.929 . S
C4053 C4045 1.433 . S
C4053 N4055 1.384 . S
N4054 C4050 1.427 . S
N4054 C4051 1.384 . S
N4055 C4047 1.427 . S
N4055 C4053 1.384 . S
H4056 C4062 0.930 . S
H4057 C4066 0.930 . S
H4058 C4071 0.929 . S
H4059 C4069 0.929 . S
H4060 C4064 0.929 . S
H4061 C4070 0.929 . S
C4062 H4056 0.930 . S
C4062 C4063 1.367 . S
C4062 C4070 1.378 . S
C4063 C4062 1.367 . S
C4063 C4071 1.433 . S
C4064 H4060 0.929 . S
C4064 C4066 1.378 . S
C4064 C4068 1.350 . S
C4065 C4068 1.463 . S
C4065 C4070 1.350 . S
C4065 N4073 1.427 . S
C4066 H4057 0.930 . S
C4066 C4064 1.378 . S
C4066 C4067 1.367 . S
C4067 C4066 1.367 . S
C4067 C4069 1.433 . S
C4068 C4064 1.350 . S
C4068 C4065 1.463 . S
C4068 N4072 1.427 . S
C4069 H4059 0.929 . S
C4069 C4067 1.433 . S
C4069 N4072 1.384 . S
C4070 H4061 0.929 . S
C4070 C4062 1.378 . S
C4070 C4065 1.350 . S
C4071 H4058 0.929 . S
C4071 C4063 1.433 . S
C4071 N4073 1.384 . S
N4072 C4068 1.427 . S
N4072 C4069 1.384 . S
N4073 C4065 1.427 . S
N4073 C4071 1.384 . S
H4074 C4080 0.930 . S
H4075 C4084 0.930 . S
H4076 C4089 0.929 . S
H4077 C4087 0.929 . S
H4078 C4082 0.929 . S
H4079 C4088 0.929 . S
C4080 H4074 0.930 . S
C4080 C4081 1.367 . S
C4080 C4088 1.378 . S
C4081 C4080 1.367 . S
C4081 C4089 1.433 . S
C4082 H4078 0.929 . S
C4082 C4084 1.378 . S
C4082 C4086 1.350 . S
C4083 C4086 1.463 . S
C4083 C4088 1.350 . S
C4083 N4091 1.427 . S
C4084 H4075 0.930 . S
C4084 C4082 1.378 . S
C4084 C4085 1.367 . S
C4085 C4084 1.367 . S
C4085 C4087 1.433 . S
C4086 C4082 1.350 . S
C4086 C4083 1.463 . S
C4086 N4090 1.427 . S
C4087 H4077 0.929 . S
C4087 C4085 1.433 . S
C4087 N4090 1.384 . S
C4088 H4079 0.929 . S
C4088 C4080 1.378 . S
C4088 C4083 1.350 . S
C4089 H4076 0.929 . S
C4089 C4081 1.433 . S
C4089 N4091 1.384 . S
N4090 C4086 1.427 . S
N4090 C4087 1.384 . S
N4091 C4083 1.427 . S
N4091 C4089 1.384 . S
H4092 C4098 0.930 . S
H4093 C4102 0.930 . S
H4094 C4107 0.929 . S
H4095 C4105 0.929 . S
H4096 C4100 0.929 . S
H4097 C4106 0.929 . S
C4098 H4092 0.930 . S
C4098 C4099 1.367 . S
C4098 C4106 1.378 . S
C4099 C4098 1.367 . S
C4099 C4107 1.433 . S
C4100 H4096 0.929 . S
C4100 C4102 1.378 . S
C4100 C4104 1.350 . S
C4101 C4104 1.463 . S
C4101 C4106 1.350 . S
C4101 N4109 1.427 . S
C4102 H4093 0.930 . S
C4102 C4100 1.378 . S
C4102 C4103 1.367 . S
C4103 C4102 1.367 . S
C4103 C4105 1.433 . S
C4104 C4100 1.350 . S
C4104 C4101 1.463 . S
C4104 N4108 1.427 . S
C4105 H4095 0.929 . S
C4105 C4103 1.433 . S
C4105 N4108 1.384 . S
C4106 H4097 0.929 . S
C4106 C4098 1.378 . S
C4106 C4101 1.350 . S
C4107 H4094 0.929 . S
C4107 C4099 1.433 . S
C4107 N4109 1.384 . S
N4108 C4104 1.427 . S
N4108 C4105 1.384 . S
N4109 C4101 1.427 . S
N4109 C4107 1.384 . S
H4110 C4116 0.930 . S
H4111 C4120 0.930 . S
H4112 C4125 0.929 . S
H4113 C4123 0.929 . S
H4114 C4118 0.929 . S
H4115 C4124 0.929 . S
C4116 H4110 0.930 . S
C4116 C4117 1.367 . S
C4116 C4124 1.378 . S
C4117 C4116 1.367 . S
C4117 C4125 1.433 . S
C4118 H4114 0.929 . S
C4118 C4120 1.378 . S
C4118 C4122 1.350 . S
C4119 C4122 1.463 . S
C4119 C4124 1.350 . S
C4119 N4127 1.427 . S
C4120 H4111 0.930 . S
C4120 C4118 1.378 . S
C4120 C4121 1.367 . S
C4121 C4120 1.367 . S
C4121 C4123 1.433 . S
C4122 C4118 1.350 . S
C4122 C4119 1.463 . S
C4122 N4126 1.427 . S
C4123 H4113 0.929 . S
C4123 C4121 1.433 . S
C4123 N4126 1.384 . S
C4124 H4115 0.929 . S
C4124 C4116 1.378 . S
C4124 C4119 1.350 . S
C4125 H4112 0.929 . S
C4125 C4117 1.433 . S
C4125 N4127 1.384 . S
N4126 C4122 1.427 . S
N4126 C4123 1.384 . S
N4127 C4119 1.427 . S
N4127 C4125 1.384 . S
H4128 C4134 0.930 . S
H4129 C4138 0.930 . S
H4130 C4143 0.929 . S
H4131 C4141 0.929 . S
H4132 C4136 0.929 . S
H4133 C4142 0.929 . S
C4134 H4128 0.930 . S
C4134 C4135 1.367 . S
C4134 C4142 1.378 . S
C4135 C4134 1.367 . S
C4135 C4143 1.433 . S
C4136 H4132 0.929 . S
C4136 C4138 1.378 . S
C4136 C4140 1.350 . S
C4137 C4140 1.463 . S
C4137 C4142 1.350 . S
C4137 N4145 1.427 . S
C4138 H4129 0.930 . S
C4138 C4136 1.378 . S
C4138 C4139 1.367 . S
C4139 C4138 1.367 . S
C4139 C4141 1.433 . S
C4140 C4136 1.350 . S
C4140 C4137 1.463 . S
C4140 N4144 1.427 . S
C4141 H4131 0.929 . S
C4141 C4139 1.433 . S
C4141 N4144 1.384 . S
C4142 H4133 0.929 . S
C4142 C4134 1.378 . S
C4142 C4137 1.350 . S
C4143 H4130 0.929 . S
C4143 C4135 1.433 . S
C4143 N4145 1.384 . S
N4144 C4140 1.427 . S
N4144 C4141 1.384 . S
N4145 C4137 1.427 . S
N4145 C4143 1.384 . S
H4146 C4152 0.930 . S
H4147 C4156 0.930 . S
H4148 C4161 0.929 . S
H4149 C4159 0.929 . S
H4150 C4154 0.929 . S
H4151 C4160 0.929 . S
C4152 H4146 0.930 . S
C4152 C4153 1.367 . S
C4152 C4160 1.378 . S
C4153 C4152 1.367 . S
C4153 C4161 1.433 . S
C4154 H4150 0.929 . S
C4154 C4156 1.378 . S
C4154 C4158 1.350 . S
C4155 C4158 1.463 . S
C4155 C4160 1.350 . S
C4155 N4163 1.427 . S
C4156 H4147 0.930 . S
C4156 C4154 1.378 . S
C4156 C4157 1.367 . S
C4157 C4156 1.367 . S
C4157 C4159 1.433 . S
C4158 C4154 1.350 . S
C4158 C4155 1.463 . S
C4158 N4162 1.427 . S
C4159 H4149 0.929 . S
C4159 C4157 1.433 . S
C4159 N4162 1.384 . S
C4160 H4151 0.929 . S
C4160 C4152 1.378 . S
C4160 C4155 1.350 . S
C4161 H4148 0.929 . S
C4161 C4153 1.433 . S
C4161 N4163 1.384 . S
N4162 C4158 1.427 . S
N4162 C4159 1.384 . S
N4163 C4155 1.427 . S
N4163 C4161 1.384 . S
H4164 C4170 0.930 . S
H4165 C4174 0.930 . S
H4166 C4179 0.929 . S
H4167 C4177 0.929 . S
H4168 C4172 0.929 . S
H4169 C4178 0.929 . S
C4170 H4164 0.930 . S
C4170 C4171 1.367 . S
C4170 C4178 1.378 . S
C4171 C4170 1.367 . S
C4171 C4179 1.433 . S
C4172 H4168 0.929 . S
C4172 C4174 1.378 . S
C4172 C4176 1.350 . S
C4173 C4176 1.463 . S
C4173 C4178 1.350 . S
C4173 N4181 1.427 . S
C4174 H4165 0.930 . S
C4174 C4172 1.378 . S
C4174 C4175 1.367 . S
C4175 C4174 1.367 . S
C4175 C4177 1.433 . S
C4176 C4172 1.350 . S
C4176 C4173 1.463 . S
C4176 N4180 1.427 . S
C4177 H4167 0.929 . S
C4177 C4175 1.433 . S
C4177 N4180 1.384 . S
C4178 H4169 0.929 . S
C4178 C4170 1.378 . S
C4178 C4173 1.350 . S
C4179 H4166 0.929 . S
C4179 C4171 1.433 . S
C4179 N4181 1.384 . S
N4180 C4176 1.427 . S
N4180 C4177 1.384 . S
N4181 C4173 1.427 . S
N4181 C4179 1.384 . S
H4182 C4188 0.930 . S
H4183 C4192 0.930 . S
H4184 C4197 0.929 . S
H4185 C4195 0.929 . S
H4186 C4190 0.929 . S
H4187 C4196 0.929 . S
C4188 H4182 0.930 . S
C4188 C4189 1.367 . S
C4188 C4196 1.378 . S
C4189 C4188 1.367 . S
C4189 C4197 1.433 . S
C4190 H4186 0.929 . S
C4190 C4192 1.378 . S
C4190 C4194 1.350 . S
C4191 C4194 1.463 . S
C4191 C4196 1.350 . S
C4191 N4199 1.427 . S
C4192 H4183 0.930 . S
C4192 C4190 1.378 . S
C4192 C4193 1.367 . S
C4193 C4192 1.367 . S
C4193 C4195 1.433 . S
C4194 C4190 1.350 . S
C4194 C4191 1.463 . S
C4194 N4198 1.427 . S
C4195 H4185 0.929 . S
C4195 C4193 1.433 . S
C4195 N4198 1.384 . S
C4196 H4187 0.929 . S
C4196 C4188 1.378 . S
C4196 C4191 1.350 . S
C4197 H4184 0.929 . S
C4197 C4189 1.433 . S
C4197 N4199 1.384 . S
N4198 C4194 1.427 . S
N4198 C4195 1.384 . S
N4199 C4191 1.427 . S
N4199 C4197 1.384 . S
H4200 C4206 0.930 . S
H4201 C4210 0.930 . S
H4202 C4215 0.929 . S
H4203 C4213 0.929 . S
H4204 C4208 0.929 . S
H4205 C4214 0.929 . S
C4206 H4200 0.930 . S
C4206 C4207 1.367 . S
C4206 C4214 1.378 . S
C4207 C4206 1.367 . S
C4207 C4215 1.433 . S
C4208 H4204 0.929 . S
C4208 C4210 1.378 . S
C4208 C4212 1.350 . S
C4209 C4212 1.463 . S
C4209 C4214 1.350 . S
C4209 N4217 1.427 . S
C4210 H4201 0.930 . S
C4210 C4208 1.378 . S
C4210 C4211 1.367 . S
C4211 C4210 1.367 . S
C4211 C4213 1.433 . S
C4212 C4208 1.350 . S
C4212 C4209 1.463 . S
C4212 N4216 1.427 . S
C4213 H4203 0.929 . S
C4213 C4211 1.433 . S
C4213 N4216 1.384 . S
C4214 H4205 0.929 . S
C4214 C4206 1.378 . S
C4214 C4209 1.350 . S
C4215 H4202 0.929 . S
C4215 C4207 1.433 . S
C4215 N4217 1.384 . S
N4216 C4212 1.427 . S
N4216 C4213 1.384 . S
N4217 C4209 1.427 . S
N4217 C4215 1.384 . S
H4218 C4224 0.930 . S
H4219 C4228 0.930 . S
H4220 C4233 0.929 . S
H4221 C4231 0.929 . S
H4222 C4226 0.929 . S
H4223 C4232 0.929 . S
C4224 H4218 0.930 . S
C4224 C4225 1.367 . S
C4224 C4232 1.378 . S
C4225 C4224 1.367 . S
C4225 C4233 1.433 . S
C4226 H4222 0.929 . S
C4226 C4228 1.378 . S
C4226 C4230 1.350 . S
C4227 C4230 1.463 . S
C4227 C4232 1.350 . S
C4227 N4235 1.427 . S
C4228 H4219 0.930 . S
C4228 C4226 1.378 . S
C4228 C4229 1.367 . S
C4229 C4228 1.367 . S
C4229 C4231 1.433 . S
C4230 C4226 1.350 . S
C4230 C4227 1.463 . S
C4230 N4234 1.427 . S
C4231 H4221 0.929 . S
C4231 C4229 1.433 . S
C4231 N4234 1.384 . S
C4232 H4223 0.929 . S
C4232 C4224 1.378 . S
C4232 C4227 1.350 . S
C4233 H4220 0.929 . S
C4233 C4225 1.433 . S
C4233 N4235 1.384 . S
N4234 C4230 1.427 . S
N4234 C4231 1.384 . S
N4235 C4227 1.427 . S
N4235 C4233 1.384 . S
H4236 C4242 0.930 . S
H4237 C4246 0.930 . S
H4238 C4251 0.929 . S
H4239 C4249 0.929 . S
H4240 C4244 0.929 . S
H4241 C4250 0.929 . S
C4242 H4236 0.930 . S
C4242 C4243 1.367 . S
C4242 C4250 1.378 . S
C4243 C4242 1.367 . S
C4243 C4251 1.433 . S
C4244 H4240 0.929 . S
C4244 C4246 1.378 . S
C4244 C4248 1.350 . S
C4245 C4248 1.463 . S
C4245 C4250 1.350 . S
C4245 N4253 1.427 . S
C4246 H4237 0.930 . S
C4246 C4244 1.378 . S
C4246 C4247 1.367 . S
C4247 C4246 1.367 . S
C4247 C4249 1.433 . S
C4248 C4244 1.350 . S
C4248 C4245 1.463 . S
C4248 N4252 1.427 . S
C4249 H4239 0.929 . S
C4249 C4247 1.433 . S
C4249 N4252 1.384 . S
C4250 H4241 0.929 . S
C4250 C4242 1.378 . S
C4250 C4245 1.350 . S
C4251 H4238 0.929 . S
C4251 C4243 1.433 . S
C4251 N4253 1.384 . S
N4252 C4248 1.427 . S
N4252 C4249 1.384 . S
N4253 C4245 1.427 . S
N4253 C4251 1.384 . S
H4254 C4260 0.930 . S
H4255 C4264 0.930 . S
H4256 C4269 0.929 . S
H4257 C4267 0.929 . S
H4258 C4262 0.929 . S
H4259 C4268 0.929 . S
C4260 H4254 0.930 . S
C4260 C4261 1.367 . S
C4260 C4268 1.378 . S
C4261 C4260 1.367 . S
C4261 C4269 1.433 . S
C4262 H4258 0.929 . S
C4262 C4264 1.378 . S
C4262 C4266 1.350 . S
C4263 C4266 1.463 . S
C4263 C4268 1.350 . S
C4263 N4271 1.427 . S
C4264 H4255 0.930 . S
C4264 C4262 1.378 . S
C4264 C4265 1.367 . S
C4265 C4264 1.367 . S
C4265 C4267 1.433 . S
C4266 C4262 1.350 . S
C4266 C4263 1.463 . S
C4266 N4270 1.427 . S
C4267 H4257 0.929 . S
C4267 C4265 1.433 . S
C4267 N4270 1.384 . S
C4268 H4259 0.929 . S
C4268 C4260 1.378 . S
C4268 C4263 1.350 . S
C4269 H4256 0.929 . S
C4269 C4261 1.433 . S
C4269 N4271 1.384 . S
N4270 C4266 1.427 . S
N4270 C4267 1.384 . S
N4271 C4263 1.427 . S
N4271 C4269 1.384 . S
H4272 C4278 0.930 . S
H4273 C4282 0.930 . S
H4274 C4287 0.929 . S
H4275 C4285 0.929 . S
H4276 C4280 0.929 . S
H4277 C4286 0.929 . S
C4278 H4272 0.930 . S
C4278 C4279 1.367 . S
C4278 C4286 1.378 . S
C4279 C4278 1.367 . S
C4279 C4287 1.433 . S
C4280 H4276 0.929 . S
C4280 C4282 1.378 . S
C4280 C4284 1.350 . S
C4281 C4284 1.463 . S
C4281 C4286 1.350 . S
C4281 N4289 1.427 . S
C4282 H4273 0.930 . S
C4282 C4280 1.378 . S
C4282 C4283 1.367 . S
C4283 C4282 1.367 . S
C4283 C4285 1.433 . S
C4284 C4280 1.350 . S
C4284 C4281 1.463 . S
C4284 N4288 1.427 . S
C4285 H4275 0.929 . S
C4285 C4283 1.433 . S
C4285 N4288 1.384 . S
C4286 H4277 0.929 . S
C4286 C4278 1.378 . S
C4286 C4281 1.350 . S
C4287 H4274 0.929 . S
C4287 C4279 1.433 . S
C4287 N4289 1.384 . S
N4288 C4284 1.427 . S
N4288 C4285 1.384 . S
N4289 C4281 1.427 . S
N4289 C4287 1.384 . S
H4290 C4296 0.930 . S
H4291 C4300 0.930 . S
H4292 C4305 0.929 . S
H4293 C4303 0.929 . S
H4294 C4298 0.929 . S
H4295 C4304 0.929 . S
C4296 H4290 0.930 . S
C4296 C4297 1.367 . S
C4296 C4304 1.378 . S
C4297 C4296 1.367 . S
C4297 C4305 1.433 . S
C4298 H4294 0.929 . S
C4298 C4300 1.378 . S
C4298 C4302 1.350 . S
C4299 C4302 1.463 . S
C4299 C4304 1.350 . S
C4299 N4307 1.427 . S
C4300 H4291 0.930 . S
C4300 C4298 1.378 . S
C4300 C4301 1.367 . S
C4301 C4300 1.367 . S
C4301 C4303 1.433 . S
C4302 C4298 1.350 . S
C4302 C4299 1.463 . S
C4302 N4306 1.427 . S
C4303 H4293 0.929 . S
C4303 C4301 1.433 . S
C4303 N4306 1.384 . S
C4304 H4295 0.929 . S
C4304 C4296 1.378 . S
C4304 C4299 1.350 . S
C4305 H4292 0.929 . S
C4305 C4297 1.433 . S
C4305 N4307 1.384 . S
N4306 C4302 1.427 . S
N4306 C4303 1.384 . S
N4307 C4299 1.427 . S
N4307 C4305 1.384 . S
H4308 C4314 0.930 . S
H4309 C4318 0.930 . S
H4310 C4323 0.929 . S
H4311 C4321 0.929 . S
H4312 C4316 0.929 . S
H4313 C4322 0.929 . S
C4314 H4308 0.930 . S
C4314 C4315 1.367 . S
C4314 C4322 1.378 . S
C4315 C4314 1.367 . S
C4315 C4323 1.433 . S
C4316 H4312 0.929 . S
C4316 C4318 1.378 . S
C4316 C4320 1.350 . S
C4317 C4320 1.463 . S
C4317 C4322 1.350 . S
C4317 N4325 1.427 . S
C4318 H4309 0.930 . S
C4318 C4316 1.378 . S
C4318 C4319 1.367 . S
C4319 C4318 1.367 . S
C4319 C4321 1.433 . S
C4320 C4316 1.350 . S
C4320 C4317 1.463 . S
C4320 N4324 1.427 . S
C4321 H4311 0.929 . S
C4321 C4319 1.433 . S
C4321 N4324 1.384 . S
C4322 H4313 0.929 . S
C4322 C4314 1.378 . S
C4322 C4317 1.350 . S
C4323 H4310 0.929 . S
C4323 C4315 1.433 . S
C4323 N4325 1.384 . S
N4324 C4320 1.427 . S
N4324 C4321 1.384 . S
N4325 C4317 1.427 . S
N4325 C4323 1.384 . S
H4326 C4332 0.930 . S
H4327 C4336 0.930 . S
H4328 C4341 0.929 . S
H4329 C4339 0.929 . S
H4330 C4334 0.929 . S
H4331 C4340 0.929 . S
C4332 H4326 0.930 . S
C4332 C4333 1.367 . S
C4332 C4340 1.378 . S
C4333 C4332 1.367 . S
C4333 C4341 1.433 . S
C4334 H4330 0.929 . S
C4334 C4336 1.378 . S
C4334 C4338 1.350 . S
C4335 C4338 1.463 . S
C4335 C4340 1.350 . S
C4335 N4343 1.427 . S
C4336 H4327 0.930 . S
C4336 C4334 1.378 . S
C4336 C4337 1.367 . S
C4337 C4336 1.367 . S
C4337 C4339 1.433 . S
C4338 C4334 1.350 . S
C4338 C4335 1.463 . S
C4338 N4342 1.427 . S
C4339 H4329 0.929 . S
C4339 C4337 1.433 . S
C4339 N4342 1.384 . S
C4340 H4331 0.929 . S
C4340 C4332 1.378 . S
C4340 C4335 1.350 . S
C4341 H4328 0.929 . S
C4341 C4333 1.433 . S
C4341 N4343 1.384 . S
N4342 C4338 1.427 . S
N4342 C4339 1.384 . S
N4343 C4335 1.427 . S
N4343 C4341 1.384 . S
H4344 C4350 0.930 . S
H4345 C4354 0.930 . S
H4346 C4359 0.929 . S
H4347 C4357 0.929 . S
H4348 C4352 0.929 . S
H4349 C4358 0.929 . S
C4350 H4344 0.930 . S
C4350 C4351 1.367 . S
C4350 C4358 1.378 . S
C4351 C4350 1.367 . S
C4351 C4359 1.433 . S
C4352 H4348 0.929 . S
C4352 C4354 1.378 . S
C4352 C4356 1.350 . S
C4353 C4356 1.463 . S
C4353 C4358 1.350 . S
C4353 N4361 1.427 . S
C4354 H4345 0.930 . S
C4354 C4352 1.378 . S
C4354 C4355 1.367 . S
C4355 C4354 1.367 . S
C4355 C4357 1.433 . S
C4356 C4352 1.350 . S
C4356 C4353 1.463 . S
C4356 N4360 1.427 . S
C4357 H4347 0.929 . S
C4357 C4355 1.433 . S
C4357 N4360 1.384 . S
C4358 H4349 0.929 . S
C4358 C4350 1.378 . S
C4358 C4353 1.350 . S
C4359 H4346 0.929 . S
C4359 C4351 1.433 . S
C4359 N4361 1.384 . S
N4360 C4356 1.427 . S
N4360 C4357 1.384 . S
N4361 C4353 1.427 . S
N4361 C4359 1.384 . S
H4362 C4368 0.930 . S
H4363 C4372 0.930 . S
H4364 C4377 0.929 . S
H4365 C4375 0.929 . S
H4366 C4370 0.929 . S
H4367 C4376 0.929 . S
C4368 H4362 0.930 . S
C4368 C4369 1.367 . S
C4368 C4376 1.378 . S
C4369 C4368 1.367 . S
C4369 C4377 1.433 . S
C4370 H4366 0.929 . S
C4370 C4372 1.378 . S
C4370 C4374 1.350 . S
C4371 C4374 1.463 . S
C4371 C4376 1.350 . S
C4371 N4379 1.427 . S
C4372 H4363 0.930 . S
C4372 C4370 1.378 . S
C4372 C4373 1.367 . S
C4373 C4372 1.367 . S
C4373 C4375 1.433 . S
C4374 C4370 1.350 . S
C4374 C4371 1.463 . S
C4374 N4378 1.427 . S
C4375 H4365 0.929 . S
C4375 C4373 1.433 . S
C4375 N4378 1.384 . S
C4376 H4367 0.929 . S
C4376 C4368 1.378 . S
C4376 C4371 1.350 . S
C4377 H4364 0.929 . S
C4377 C4369 1.433 . S
C4377 N4379 1.384 . S
N4378 C4374 1.427 . S
N4378 C4375 1.384 . S
N4379 C4371 1.427 . S
N4379 C4377 1.384 . S
H4380 C4386 0.930 . S
H4381 C4390 0.930 . S
H4382 C4395 0.929 . S
H4383 C4393 0.929 . S
H4384 C4388 0.929 . S
H4385 C4394 0.929 . S
C4386 H4380 0.930 . S
C4386 C4387 1.367 . S
C4386 C4394 1.378 . S
C4387 C4386 1.367 . S
C4387 C4395 1.433 . S
C4388 H4384 0.929 . S
C4388 C4390 1.378 . S
C4388 C4392 1.350 . S
C4389 C4392 1.463 . S
C4389 C4394 1.350 . S
C4389 N4397 1.427 . S
C4390 H4381 0.930 . S
C4390 C4388 1.378 . S
C4390 C4391 1.367 . S
C4391 C4390 1.367 . S
C4391 C4393 1.433 . S
C4392 C4388 1.350 . S
C4392 C4389 1.463 . S
C4392 N4396 1.427 . S
C4393 H4383 0.929 . S
C4393 C4391 1.433 . S
C4393 N4396 1.384 . S
C4394 H4385 0.929 . S
C4394 C4386 1.378 . S
C4394 C4389 1.350 . S
C4395 H4382 0.929 . S
C4395 C4387 1.433 . S
C4395 N4397 1.384 . S
N4396 C4392 1.427 . S
N4396 C4393 1.384 . S
N4397 C4389 1.427 . S
N4397 C4395 1.384 . S
H4398 C4404 0.930 . S
H4399 C4408 0.930 . S
H4400 C4413 0.929 . S
H4401 C4411 0.929 . S
H4402 C4406 0.929 . S
H4403 C4412 0.929 . S
C4404 H4398 0.930 . S
C4404 C4405 1.367 . S
C4404 C4412 1.378 . S
C4405 C4404 1.367 . S
C4405 C4413 1.433 . S
C4406 H4402 0.929 . S
C4406 C4408 1.378 . S
C4406 C4410 1.350 . S
C4407 C4410 1.463 . S
C4407 C4412 1.350 . S
C4407 N4415 1.427 . S
C4408 H4399 0.930 . S
C4408 C4406 1.378 . S
C4408 C4409 1.367 . S
C4409 C4408 1.367 . S
C4409 C4411 1.433 . S
C4410 C4406 1.350 . S
C4410 C4407 1.463 . S
C4410 N4414 1.427 . S
C4411 H4401 0.929 . S
C4411 C4409 1.433 . S
C4411 N4414 1.384 . S
C4412 H4403 0.929 . S
C4412 C4404 1.378 . S
C4412 C4407 1.350 . S
C4413 H4400 0.929 . S
C4413 C4405 1.433 . S
C4413 N4415 1.384 . S
N4414 C4410 1.427 . S
N4414 C4411 1.384 . S
N4415 C4407 1.427 . S
N4415 C4413 1.384 . S
H4416 C4422 0.930 . S
H4417 C4426 0.930 . S
H4418 C4431 0.929 . S
H4419 C4429 0.929 . S
H4420 C4424 0.929 . S
H4421 C4430 0.929 . S
C4422 H4416 0.930 . S
C4422 C4423 1.367 . S
C4422 C4430 1.378 . S
C4423 C4422 1.367 . S
C4423 C4431 1.433 . S
C4424 H4420 0.929 . S
C4424 C4426 1.378 . S
C4424 C4428 1.350 . S
C4425 C4428 1.463 . S
C4425 C4430 1.350 . S
C4425 N4433 1.427 . S
C4426 H4417 0.930 . S
C4426 C4424 1.378 . S
C4426 C4427 1.367 . S
C4427 C4426 1.367 . S
C4427 C4429 1.433 . S
C4428 C4424 1.350 . S
C4428 C4425 1.463 . S
C4428 N4432 1.427 . S
C4429 H4419 0.929 . S
C4429 C4427 1.433 . S
C4429 N4432 1.384 . S
C4430 H4421 0.929 . S
C4430 C4422 1.378 . S
C4430 C4425 1.350 . S
C4431 H4418 0.929 . S
C4431 C4423 1.433 . S
C4431 N4433 1.384 . S
N4432 C4428 1.427 . S
N4432 C4429 1.384 . S
N4433 C4425 1.427 . S
N4433 C4431 1.384 . S
H4434 C4440 0.930 . S
H4435 C4444 0.930 . S
H4436 C4449 0.929 . S
H4437 C4447 0.929 . S
H4438 C4442 0.929 . S
H4439 C4448 0.929 . S
C4440 H4434 0.930 . S
C4440 C4441 1.367 . S
C4440 C4448 1.378 . S
C4441 C4440 1.367 . S
C4441 C4449 1.433 . S
C4442 H4438 0.929 . S
C4442 C4444 1.378 . S
C4442 C4446 1.350 . S
C4443 C4446 1.463 . S
C4443 C4448 1.350 . S
C4443 N4451 1.427 . S
C4444 H4435 0.930 . S
C4444 C4442 1.378 . S
C4444 C4445 1.367 . S
C4445 C4444 1.367 . S
C4445 C4447 1.433 . S
C4446 C4442 1.350 . S
C4446 C4443 1.463 . S
C4446 N4450 1.427 . S
C4447 H4437 0.929 . S
C4447 C4445 1.433 . S
C4447 N4450 1.384 . S
C4448 H4439 0.929 . S
C4448 C4440 1.378 . S
C4448 C4443 1.350 . S
C4449 H4436 0.929 . S
C4449 C4441 1.433 . S
C4449 N4451 1.384 . S
N4450 C4446 1.427 . S
N4450 C4447 1.384 . S
N4451 C4443 1.427 . S
N4451 C4449 1.384 . S
H4452 C4458 0.930 . S
H4453 C4462 0.930 . S
H4454 C4467 0.929 . S
H4455 C4465 0.929 . S
H4456 C4460 0.929 . S
H4457 C4466 0.929 . S
C4458 H4452 0.930 . S
C4458 C4459 1.367 . S
C4458 C4466 1.378 . S
C4459 C4458 1.367 . S
C4459 C4467 1.433 . S
C4460 H4456 0.929 . S
C4460 C4462 1.378 . S
C4460 C4464 1.350 . S
C4461 C4464 1.463 . S
C4461 C4466 1.350 . S
C4461 N4469 1.427 . S
C4462 H4453 0.930 . S
C4462 C4460 1.378 . S
C4462 C4463 1.367 . S
C4463 C4462 1.367 . S
C4463 C4465 1.433 . S
C4464 C4460 1.350 . S
C4464 C4461 1.463 . S
C4464 N4468 1.427 . S
C4465 H4455 0.929 . S
C4465 C4463 1.433 . S
C4465 N4468 1.384 . S
C4466 H4457 0.929 . S
C4466 C4458 1.378 . S
C4466 C4461 1.350 . S
C4467 H4454 0.929 . S
C4467 C4459 1.433 . S
C4467 N4469 1.384 . S
N4468 C4464 1.427 . S
N4468 C4465 1.384 . S
N4469 C4461 1.427 . S
N4469 C4467 1.384 . S
H4470 C4476 0.930 . S
H4471 C4480 0.930 . S
H4472 C4485 0.929 . S
H4473 C4483 0.929 . S
H4474 C4478 0.929 . S
H4475 C4484 0.929 . S
C4476 H4470 0.930 . S
C4476 C4477 1.367 . S
C4476 C4484 1.378 . S
C4477 C4476 1.367 . S
C4477 C4485 1.433 . S
C4478 H4474 0.929 . S
C4478 C4480 1.378 . S
C4478 C4482 1.350 . S
C4479 C4482 1.463 . S
C4479 C4484 1.350 . S
C4479 N4487 1.427 . S
C4480 H4471 0.930 . S
C4480 C4478 1.378 . S
C4480 C4481 1.367 . S
C4481 C4480 1.367 . S
C4481 C4483 1.433 . S
C4482 C4478 1.350 . S
C4482 C4479 1.463 . S
C4482 N4486 1.427 . S
C4483 H4473 0.929 . S
C4483 C4481 1.433 . S
C4483 N4486 1.384 . S
C4484 H4475 0.929 . S
C4484 C4476 1.378 . S
C4484 C4479 1.350 . S
C4485 H4472 0.929 . S
C4485 C4477 1.433 . S
C4485 N4487 1.384 . S
N4486 C4482 1.427 . S
N4486 C4483 1.384 . S
N4487 C4479 1.427 . S
N4487 C4485 1.384 . S
H4488 C4494 0.930 . S
H4489 C4498 0.930 . S
H4490 C4503 0.929 . S
H4491 C4501 0.929 . S
H4492 C4496 0.929 . S
H4493 C4502 0.929 . S
C4494 H4488 0.930 . S
C4494 C4495 1.367 . S
C4494 C4502 1.378 . S
C4495 C4494 1.367 . S
C4495 C4503 1.433 . S
C4496 H4492 0.929 . S
C4496 C4498 1.378 . S
C4496 C4500 1.350 . S
C4497 C4500 1.463 . S
C4497 C4502 1.350 . S
C4497 N4505 1.427 . S
C4498 H4489 0.930 . S
C4498 C4496 1.378 . S
C4498 C4499 1.367 . S
C4499 C4498 1.367 . S
C4499 C4501 1.433 . S
C4500 C4496 1.350 . S
C4500 C4497 1.463 . S
C4500 N4504 1.427 . S
C4501 H4491 0.929 . S
C4501 C4499 1.433 . S
C4501 N4504 1.384 . S
C4502 H4493 0.929 . S
C4502 C4494 1.378 . S
C4502 C4497 1.350 . S
C4503 H4490 0.929 . S
C4503 C4495 1.433 . S
C4503 N4505 1.384 . S
N4504 C4500 1.427 . S
N4504 C4501 1.384 . S
N4505 C4497 1.427 . S
N4505 C4503 1.384 . S
H4506 C4512 0.930 . S
H4507 C4516 0.930 . S
H4508 C4521 0.929 . S
H4509 C4519 0.929 . S
H4510 C4514 0.929 . S
H4511 C4520 0.929 . S
C4512 H4506 0.930 . S
C4512 C4513 1.367 . S
C4512 C4520 1.378 . S
C4513 C4512 1.367 . S
C4513 C4521 1.433 . S
C4514 H4510 0.929 . S
C4514 C4516 1.378 . S
C4514 C4518 1.350 . S
C4515 C4518 1.463 . S
C4515 C4520 1.350 . S
C4515 N4523 1.427 . S
C4516 H4507 0.930 . S
C4516 C4514 1.378 . S
C4516 C4517 1.367 . S
C4517 C4516 1.367 . S
C4517 C4519 1.433 . S
C4518 C4514 1.350 . S
C4518 C4515 1.463 . S
C4518 N4522 1.427 . S
C4519 H4509 0.929 . S
C4519 C4517 1.433 . S
C4519 N4522 1.384 . S
C4520 H4511 0.929 . S
C4520 C4512 1.378 . S
C4520 C4515 1.350 . S
C4521 H4508 0.929 . S
C4521 C4513 1.433 . S
C4521 N4523 1.384 . S
N4522 C4518 1.427 . S
N4522 C4519 1.384 . S
N4523 C4515 1.427 . S
N4523 C4521 1.384 . S
H4524 C4530 0.930 . S
H4525 C4534 0.930 . S
H4526 C4539 0.929 . S
H4527 C4537 0.929 . S
H4528 C4532 0.929 . S
H4529 C4538 0.929 . S
C4530 H4524 0.930 . S
C4530 C4531 1.367 . S
C4530 C4538 1.378 . S
C4531 C4530 1.367 . S
C4531 C4539 1.433 . S
C4532 H4528 0.929 . S
C4532 C4534 1.378 . S
C4532 C4536 1.350 . S
C4533 C4536 1.463 . S
C4533 C4538 1.350 . S
C4533 N4541 1.427 . S
C4534 H4525 0.930 . S
C4534 C4532 1.378 . S
C4534 C4535 1.367 . S
C4535 C4534 1.367 . S
C4535 C4537 1.433 . S
C4536 C4532 1.350 . S
C4536 C4533 1.463 . S
C4536 N4540 1.427 . S
C4537 H4527 0.929 . S
C4537 C4535 1.433 . S
C4537 N4540 1.384 . S
C4538 H4529 0.929 . S
C4538 C4530 1.378 . S
C4538 C4533 1.350 . S
C4539 H4526 0.929 . S
C4539 C4531 1.433 . S
C4539 N4541 1.384 . S
N4540 C4536 1.427 . S
N4540 C4537 1.384 . S
N4541 C4533 1.427 . S
N4541 C4539 1.384 . S
H4542 C4548 0.930 . S
H4543 C4552 0.930 . S
H4544 C4557 0.929 . S
H4545 C4555 0.929 . S
H4546 C4550 0.929 . S
H4547 C4556 0.929 . S
C4548 H4542 0.930 . S
C4548 C4549 1.367 . S
C4548 C4556 1.378 . S
C4549 C4548 1.367 . S
C4549 C4557 1.433 . S
C4550 H4546 0.929 . S
C4550 C4552 1.378 . S
C4550 C4554 1.350 . S
C4551 C4554 1.463 . S
C4551 C4556 1.350 . S
C4551 N4559 1.427 . S
C4552 H4543 0.930 . S
C4552 C4550 1.378 . S
C4552 C4553 1.367 . S
C4553 C4552 1.367 . S
C4553 C4555 1.433 . S
C4554 C4550 1.350 . S
C4554 C4551 1.463 . S
C4554 N4558 1.427 . S
C4555 H4545 0.929 . S
C4555 C4553 1.433 . S
C4555 N4558 1.384 . S
C4556 H4547 0.929 . S
C4556 C4548 1.378 . S
C4556 C4551 1.350 . S
C4557 H4544 0.929 . S
C4557 C4549 1.433 . S
C4557 N4559 1.384 . S
N4558 C4554 1.427 . S
N4558 C4555 1.384 . S
N4559 C4551 1.427 . S
N4559 C4557 1.384 . S
H4560 C4566 0.930 . S
H4561 C4570 0.930 . S
H4562 C4575 0.929 . S
H4563 C4573 0.929 . S
H4564 C4568 0.929 . S
H4565 C4574 0.929 . S
C4566 H4560 0.930 . S
C4566 C4567 1.367 . S
C4566 C4574 1.378 . S
C4567 C4566 1.367 . S
C4567 C4575 1.433 . S
C4568 H4564 0.929 . S
C4568 C4570 1.378 . S
C4568 C4572 1.350 . S
C4569 C4572 1.463 . S
C4569 C4574 1.350 . S
C4569 N4577 1.427 . S
C4570 H4561 0.930 . S
C4570 C4568 1.378 . S
C4570 C4571 1.367 . S
C4571 C4570 1.367 . S
C4571 C4573 1.433 . S
C4572 C4568 1.350 . S
C4572 C4569 1.463 . S
C4572 N4576 1.427 . S
C4573 H4563 0.929 . S
C4573 C4571 1.433 . S
C4573 N4576 1.384 . S
C4574 H4565 0.929 . S
C4574 C4566 1.378 . S
C4574 C4569 1.350 . S
C4575 H4562 0.929 . S
C4575 C4567 1.433 . S
C4575 N4577 1.384 . S
N4576 C4572 1.427 . S
N4576 C4573 1.384 . S
N4577 C4569 1.427 . S
N4577 C4575 1.384 . S
H4578 C4584 0.930 . S
H4579 C4588 0.930 . S
H4580 C4593 0.929 . S
H4581 C4591 0.929 . S
H4582 C4586 0.929 . S
H4583 C4592 0.929 . S
C4584 H4578 0.930 . S
C4584 C4585 1.367 . S
C4584 C4592 1.378 . S
C4585 C4584 1.367 . S
C4585 C4593 1.433 . S
C4586 H4582 0.929 . S
C4586 C4588 1.378 . S
C4586 C4590 1.350 . S
C4587 C4590 1.463 . S
C4587 C4592 1.350 . S
C4587 N4595 1.427 . S
C4588 H4579 0.930 . S
C4588 C4586 1.378 . S
C4588 C4589 1.367 . S
C4589 C4588 1.367 . S
C4589 C4591 1.433 . S
C4590 C4586 1.350 . S
C4590 C4587 1.463 . S
C4590 N4594 1.427 . S
C4591 H4581 0.929 . S
C4591 C4589 1.433 . S
C4591 N4594 1.384 . S
C4592 H4583 0.929 . S
C4592 C4584 1.378 . S
C4592 C4587 1.350 . S
C4593 H4580 0.929 . S
C4593 C4585 1.433 . S
C4593 N4595 1.384 . S
N4594 C4590 1.427 . S
N4594 C4591 1.384 . S
N4595 C4587 1.427 . S
N4595 C4593 1.384 . S
H4596 C4602 0.930 . S
H4597 C4606 0.930 . S
H4598 C4611 0.929 . S
H4599 C4609 0.929 . S
H4600 C4604 0.929 . S
H4601 C4610 0.929 . S
C4602 H4596 0.930 . S
C4602 C4603 1.367 . S
C4602 C4610 1.378 . S
C4603 C4602 1.367 . S
C4603 C4611 1.433 . S
C4604 H4600 0.929 . S
C4604 C4606 1.378 . S
C4604 C4608 1.350 . S
C4605 C4608 1.463 . S
C4605 C4610 1.350 . S
C4605 N4613 1.427 . S
C4606 H4597 0.930 . S
C4606 C4604 1.378 . S
C4606 C4607 1.367 . S
C4607 C4606 1.367 . S
C4607 C4609 1.433 . S
C4608 C4604 1.350 . S
C4608 C4605 1.463 . S
C4608 N4612 1.427 . S
C4609 H4599 0.929 . S
C4609 C4607 1.433 . S
C4609 N4612 1.384 . S
C4610 H4601 0.929 . S
C4610 C4602 1.378 . S
C4610 C4605 1.350 . S
C4611 H4598 0.929 . S
C4611 C4603 1.433 . S
C4611 N4613 1.384 . S
N4612 C4608 1.427 . S
N4612 C4609 1.384 . S
N4613 C4605 1.427 . S
N4613 C4611 1.384 . S
H4614 C4620 0.930 . S
H4615 C4624 0.930 . S
H4616 C4629 0.929 . S
H4617 C4627 0.929 . S
H4618 C4622 0.929 . S
H4619 C4628 0.929 . S
C4620 H4614 0.930 . S
C4620 C4621 1.367 . S
C4620 C4628 1.378 . S
C4621 C4620 1.367 . S
C4621 C4629 1.433 . S
C4622 H4618 0.929 . S
C4622 C4624 1.378 . S
C4622 C4626 1.350 . S
C4623 C4626 1.463 . S
C4623 C4628 1.350 . S
C4623 N4631 1.427 . S
C4624 H4615 0.930 . S
C4624 C4622 1.378 . S
C4624 C4625 1.367 . S
C4625 C4624 1.367 . S
C4625 C4627 1.433 . S
C4626 C4622 1.350 . S
C4626 C4623 1.463 . S
C4626 N4630 1.427 . S
C4627 H4617 0.929 . S
C4627 C4625 1.433 . S
C4627 N4630 1.384 . S
C4628 H4619 0.929 . S
C4628 C4620 1.378 . S
C4628 C4623 1.350 . S
C4629 H4616 0.929 . S
C4629 C4621 1.433 . S
C4629 N4631 1.384 . S
N4630 C4626 1.427 . S
N4630 C4627 1.384 . S
N4631 C4623 1.427 . S
N4631 C4629 1.384 . S
H4632 C4638 0.930 . S
H4633 C4642 0.930 . S
H4634 C4647 0.929 . S
H4635 C4645 0.929 . S
H4636 C4640 0.929 . S
H4637 C4646 0.929 . S
C4638 H4632 0.930 . S
C4638 C4639 1.367 . S
C4638 C4646 1.378 . S
C4639 C4638 1.367 . S
C4639 C4647 1.433 . S
C4640 H4636 0.929 . S
C4640 C4642 1.378 . S
C4640 C4644 1.350 . S
C4641 C4644 1.463 . S
C4641 C4646 1.350 . S
C4641 N4649 1.427 . S
C4642 H4633 0.930 . S
C4642 C4640 1.378 . S
C4642 C4643 1.367 . S
C4643 C4642 1.367 . S
C4643 C4645 1.433 . S
C4644 C4640 1.350 . S
C4644 C4641 1.463 . S
C4644 N4648 1.427 . S
C4645 H4635 0.929 . S
C4645 C4643 1.433 . S
C4645 N4648 1.384 . S
C4646 H4637 0.929 . S
C4646 C4638 1.378 . S
C4646 C4641 1.350 . S
C4647 H4634 0.929 . S
C4647 C4639 1.433 . S
C4647 N4649 1.384 . S
N4648 C4644 1.427 . S
N4648 C4645 1.384 . S
N4649 C4641 1.427 . S
N4649 C4647 1.384 . S
H4650 C4656 0.930 . S
H4651 C4660 0.930 . S
H4652 C4665 0.929 . S
H4653 C4663 0.929 . S
H4654 C4658 0.929 . S
H4655 C4664 0.929 . S
C4656 H4650 0.930 . S
C4656 C4657 1.367 . S
C4656 C4664 1.378 . S
C4657 C4656 1.367 . S
C4657 C4665 1.433 . S
C4658 H4654 0.929 . S
C4658 C4660 1.378 . S
C4658 C4662 1.350 . S
C4659 C4662 1.463 . S
C4659 C4664 1.350 . S
C4659 N4667 1.427 . S
C4660 H4651 0.930 . S
C4660 C4658 1.378 . S
C4660 C4661 1.367 . S
C4661 C4660 1.367 . S
C4661 C4663 1.433 . S
C4662 C4658 1.350 . S
C4662 C4659 1.463 . S
C4662 N4666 1.427 . S
C4663 H4653 0.929 . S
C4663 C4661 1.433 . S
C4663 N4666 1.384 . S
C4664 H4655 0.929 . S
C4664 C4656 1.378 . S
C4664 C4659 1.350 . S
C4665 H4652 0.929 . S
C4665 C4657 1.433 . S
C4665 N4667 1.384 . S
N4666 C4662 1.427 . S
N4666 C4663 1.384 . S
N4667 C4659 1.427 . S
N4667 C4665 1.384 . S
H4668 C4674 0.930 . S
H4669 C4678 0.930 . S
H4670 C4683 0.929 . S
H4671 C4681 0.929 . S
H4672 C4676 0.929 . S
H4673 C4682 0.929 . S
C4674 H4668 0.930 . S
C4674 C4675 1.367 . S
C4674 C4682 1.378 . S
C4675 C4674 1.367 . S
C4675 C4683 1.433 . S
C4676 H4672 0.929 . S
C4676 C4678 1.378 . S
C4676 C4680 1.350 . S
C4677 C4680 1.463 . S
C4677 C4682 1.350 . S
C4677 N4685 1.427 . S
C4678 H4669 0.930 . S
C4678 C4676 1.378 . S
C4678 C4679 1.367 . S
C4679 C4678 1.367 . S
C4679 C4681 1.433 . S
C4680 C4676 1.350 . S
C4680 C4677 1.463 . S
C4680 N4684 1.427 . S
C4681 H4671 0.929 . S
C4681 C4679 1.433 . S
C4681 N4684 1.384 . S
C4682 H4673 0.929 . S
C4682 C4674 1.378 . S
C4682 C4677 1.350 . S
C4683 H4670 0.929 . S
C4683 C4675 1.433 . S
C4683 N4685 1.384 . S
N4684 C4680 1.427 . S
N4684 C4681 1.384 . S
N4685 C4677 1.427 . S
N4685 C4683 1.384 . S
H4686 C4692 0.930 . S
H4687 C4696 0.930 . S
H4688 C4701 0.929 . S
H4689 C4699 0.929 . S
H4690 C4694 0.929 . S
H4691 C4700 0.929 . S
C4692 H4686 0.930 . S
C4692 C4693 1.367 . S
C4692 C4700 1.378 . S
C4693 C4692 1.367 . S
C4693 C4701 1.433 . S
C4694 H4690 0.929 . S
C4694 C4696 1.378 . S
C4694 C4698 1.350 . S
C4695 C4698 1.463 . S
C4695 C4700 1.350 . S
C4695 N4703 1.427 . S
C4696 H4687 0.930 . S
C4696 C4694 1.378 . S
C4696 C4697 1.367 . S
C4697 C4696 1.367 . S
C4697 C4699 1.433 . S
C4698 C4694 1.350 . S
C4698 C4695 1.463 . S
C4698 N4702 1.427 . S
C4699 H4689 0.929 . S
C4699 C4697 1.433 . S
C4699 N4702 1.384 . S
C4700 H4691 0.929 . S
C4700 C4692 1.378 . S
C4700 C4695 1.350 . S
C4701 H4688 0.929 . S
C4701 C4693 1.433 . S
C4701 N4703 1.384 . S
N4702 C4698 1.427 . S
N4702 C4699 1.384 . S
N4703 C4695 1.427 . S
N4703 C4701 1.384 . S
C1255 C4 1.787 . S
C1259 C400 1.785 . S
C1273 C719 1.784 . S
C1277 C17 1.786 . S
C1291 C30 1.786 . S
C1295 C374 1.784 . S
C1309 C43 1.787 . S
C1313 C693 1.785 . S
C1327 C342 1.786 . S
C1331 C62 1.784 . S
C1345 C69 1.785 . S
C1349 C673 1.787 . S
C1363 C316 1.786 . S
C1367 C88 1.787 . S
C1381 C101 1.787 . S
C1385 C641 1.785 . S
C1399 C446 1.787 . S
C1403 C108 1.786 . S
C1417 C127 1.786 . S
C1421 C777 1.784 . S
C1435 C134 1.786 . S
C1439 C426 1.787 . S
C1453 C153 1.785 . S
C1457 C751 1.787 . S
C1471 C166 1.785 . S
C1475 C504 1.787 . S
C1489 C823 1.787 . S
C1493 C173 1.784 . S
C1507 C472 1.786 . S
C1511 C192 1.784 . S
C1525 C199 1.785 . S
C1529 C797 1.787 . S
C1543 C849 1.785 . S
C1547 C212 1.785 . S
C1561 C842 1.784 . S
C1565 C231 1.786 . S
C1579 C244 1.784 . S
C1583 C927 1.786 . S
C1597 C1213 1.787 . S
C1601 C257 1.785 . S
C1615 C608 1.786 . S
C1619 C264 1.784 . S
C1633 C277 1.786 . S
C1637 C1187 1.786 . S
C1651 C296 1.786 . S
C1655 C576 1.784 . S
C1669 C309 1.786 . S
C1673 C868 1.786 . S
C1687 C329 1.786 . S
C1691 C1037 1.786 . S
C1705 C355 1.784 . S
C1709 C1011 1.786 . S
C1723 C387 1.786 . S
C1727 C979 1.786 . S
C1741 C413 1.786 . S
C1745 C959 1.784 . S
C1759 C1083 1.785 . S
C1763 C433 1.784 . S
C1777 C459 1.787 . S
C1781 C1063 1.785 . S
C1795 C1135 1.787 . S
C1799 C485 1.785 . S
C1813 C517 1.786 . S
C1817 C1109 1.786 . S
C1831 C524 1.786 . S
C1835 C1167 1.784 . S
C1849 C543 1.784 . S
C1853 C1154 1.785 . S
C1867 C550 1.786 . S
C1871 C1239 1.784 . S
C1885 C901 1.787 . S
C1889 C563 1.785 . S
C1903 C881 1.784 . S
C1907 C589 1.786 . S
C1921 C615 1.786 . S
C1925 C1180 1.787 . S
C1939 C634 1.785 . S
C1943 C1024 1.787 . S
C1957 C998 1.786 . S
C1961 C660 1.784 . S
C1975 C680 1.784 . S
C1979 C966 1.786 . S
C1993 C712 1.784 . S
C1997 C940 1.786 . S
C2011 C1070 1.786 . S
C2015 C732 1.784 . S
C2029 C1050 1.786 . S
C2033 C758 1.784 . S
C2047 C784 1.786 . S
C2051 C1128 1.786 . S
C2065 C1102 1.786 . S
C2069 C816 1.784 . S
C2083 C894 1.786 . S
C2087 C1232 1.784 . S
C2101 C920 1.786 . S
C2105 C1206 1.787 . S
C2119 C10 1.404 . S
C2123 C725 1.402 . S
C2137 C23 1.404 . S
C2141 C368 1.402 . S
C2155 C36 1.403 . S
C2159 C699 1.403 . S
C2173 C394 1.399 . S
C2177 C49 1.406 . S
C2191 C56 1.402 . S
C2195 C335 1.404 . S
C2209 C75 1.399 . S
C2213 C654 1.401 . S
C2227 C82 1.398 . S
C2231 C361 1.403 . S
C2245 C628 1.399 . S
C2249 C95 1.401 . S
C2263 C114 1.397 . S
C2267 C270 1.404 . S
C2281 C121 1.398 . S
C2285 C1161 1.406 . S
C2299 C1174 1.402 . S
C2303 C140 1.398 . S
C2317 C147 1.397 . S
C2321 C1193 1.405 . S
C2335 C933 1.406 . S
C2339 C160 1.399 . S
C2353 C1219 1.398 . S
C2357 C179 1.403 . S
C2371 C186 1.404 . S
C2375 C914 1.397 . S
C2389 C836 1.405 . S
C2393 C205 1.400 . S
C2407 C829 1.397 . S
C2411 C218 1.405 . S
C2425 C1057 1.406 . S
C2429 C225 1.398 . S
C2443 C238 1.404 . S
C2447 C1076 1.397 . S
C2461 C251 1.400 . S
C2465 C1089 1.400 . S
C2479 C283 1.402 . S
C2483 C1115 1.403 . S
C2497 C290 1.399 . S
C2501 C810 1.402 . S
C2515 C790 1.398 . S
C2519 C303 1.403 . S
C2533 C322 1.402 . S
C2537 C1031 1.404 . S
C2551 C1005 1.406 . S
C2555 C348 1.397 . S
C2569 C972 1.398 . S
C2573 C381 1.404 . S
C2587 C407 1.402 . S
C2591 C946 1.399 . S
C2605 C420 1.404 . S
C2609 C582 1.398 . S
C2623 C439 1.405 . S
C2627 C855 1.397 . S
C2641 C452 1.405 . S
C2645 C862 1.397 . S
C2659 C465 1.397 . S
C2663 C875 1.406 . S
C2677 C478 1.401 . S
C2681 C1245 1.400 . S
C2695 C907 1.406 . S
C2699 C491 1.398 . S
C2713 C1226 1.399 . S
C2717 C498 1.401 . S
C2731 C1148 1.399 . S
C2735 C511 1.406 . S
C2749 C1141 1.397 . S
C2753 C530 1.405 . S
C2767 C537 1.398 . S
C2771 C745 1.402 . S
C2785 C556 1.404 . S
C2789 C764 1.397 . S
C2803 C569 1.405 . S
C2807 C771 1.400 . S
C2821 C803 1.399 . S
C2825 C595 1.402 . S
C2839 C1122 1.403 . S
C2843 C602 1.398 . S
C2857 C1096 1.406 . S
C2861 C621 1.397 . S
C2875 C647 1.402 . S
C2879 C992 1.399 . S
C2893 C667 1.404 . S
C2897 C1018 1.397 . S
C2911 C953 1.401 . S
C2915 C686 1.405 . S
C2929 C985 1.406 . S
C2933 C706 1.398 . S
C2947 C888 1.398 . S
C2951 C738 1.406 . S
C2965 C1200 1.399 . S
C2969 C1044 1.406 . S
C2983 C3 1.184 . S
C2987 C1214 1.231 . S
C3001 C16 1.184 . S
C3005 C913 1.235 . S
C3019 C835 1.233 . S
C3023 C29 1.195 . S
C3037 C928 1.231 . S
C3041 C42 1.187 . S
C3055 C57 1.194 . S
C3059 C250 1.232 . S
C3073 C68 1.182 . S
C3077 C1199 1.232 . S
C3091 C224 1.232 . S
C3095 C83 1.179 . S
C3109 C237 1.234 . S
C3113 C96 1.193 . S
C3127 C367 1.234 . S
C3131 C107 1.192 . S
C3145 C122 1.175 . S
C3149 C694 1.234 . S
C3163 C133 1.188 . S
C3167 C393 1.231 . S
C3181 C148 1.178 . S
C3185 C720 1.232 . S
C3199 C317 1.234 . S
C3203 C161 1.176 . S
C3217 C172 1.194 . S
C3221 C642 1.233 . S
C3235 C343 1.235 . S
C3239 C187 1.181 . S
C3253 C198 1.187 . S
C3257 C666 1.235 . S
C3271 C211 1.191 . S
C3275 C1121 1.232 . S
C3289 C447 1.232 . S
C3293 C226 1.194 . S
C3307 C239 1.178 . S
C3311 C770 1.235 . S
C3325 C419 1.235 . S
C3329 C252 1.180 . S
C3343 C263 1.185 . S
C3347 C434 1.235 . S
C3361 C785 1.235 . S
C3365 C276 1.186 . S
C3379 C174 1.232 . S
C3383 C291 1.177 . S
C3397 C200 1.232 . S
C3401 C304 1.177 . S
C3415 C902 1.235 . S
C3419 C315 1.182 . S
C3433 C328 1.193 . S
C3437 C1225 1.232 . S
C3451 C1147 1.235 . S
C3455 C341 1.181 . S
C3469 C354 1.182 . S
C3473 C1240 1.232 . S
C3487 C564 1.234 . S
C3491 C369 1.177 . S
C3505 C887 1.235 . S
C3509 C382 1.179 . S
C3523 C395 1.187 . S
C3527 C536 1.231 . S
C3541 C408 1.181 . S
C3545 C551 1.235 . S
C3559 C421 1.176 . S
C3563 C55 1.233 . S
C3577 C432 1.193 . S
C3581 C1004 1.232 . S
C3595 C81 1.232 . S
C3599 C445 1.180 . S
C3613 C458 1.189 . S
C3617 C1030 1.231 . S
C3631 C5 1.233 . S
C3635 C471 1.195 . S
C3649 C484 1.183 . S
C3653 C952 1.235 . S
C3667 C31 1.231 . S
C3671 C499 1.191 . S
C3685 C980 1.232 . S
C3689 C512 1.194 . S
C3703 C523 1.184 . S
C3707 C809 1.235 . S
C3721 C538 1.186 . S
C3725 C135 1.235 . S
C3739 C1084 1.235 . S
C3743 C549 1.187 . S
C3757 C562 1.177 . S
C3761 C109 1.234 . S
C3775 C120 1.234 . S
C3779 C575 1.193 . S
C3793 C588 1.180 . S
C3797 C1095 1.235 . S
C3811 C486 1.232 . S
C3815 C603 1.182 . S
C3829 C614 1.175 . S
C3833 C510 1.233 . S
C3847 C590 1.232 . S
C3851 C629 1.180 . S
C3865 C640 1.180 . S
C3869 C289 1.232 . S
C3883 C655 1.189 . S
C3887 C213 1.231 . S
C3901 C668 1.193 . S
C3905 C302 1.234 . S
C3919 C679 1.178 . S
C3923 C874 1.234 . S
C3937 C577 1.232 . S
C3941 C692 1.194 . S
C3955 C850 1.235 . S
C3959 C707 1.181 . S
C3973 C718 1.192 . S
C3977 C861 1.232 . S
C3991 C991 1.232 . S
C3995 C731 1.179 . S
C4009 C70 1.235 . S
C4013 C746 1.178 . S
C4027 C1017 1.234 . S
C4031 C757 1.189 . S
C4045 C772 1.187 . S
C4049 C94 1.235 . S
C4063 C941 1.234 . S
C4067 C783 1.176 . S
C4081 C796 1.183 . S
C4085 C18 1.235 . S
C4099 C967 1.234 . S
C4103 C811 1.193 . S
C4117 C44 1.235 . S
C4121 C822 1.181 . S
C4135 C497 1.234 . S
C4139 C837 1.177 . S
C4153 C848 1.190 . S
C4157 C1071 1.234 . S
C4171 C863 1.195 . S
C4175 C146 1.232 . S
C4189 C1043 1.231 . S
C4193 C876 1.188 . S
C4207 C889 1.181 . S
C4211 C1056 1.232 . S
C4225 C159 1.235 . S
C4229 C900 1.185 . S
C4243 C798 1.233 . S
C4247 C915 1.176 . S
C4261 C926 1.194 . S
C4265 C824 1.232 . S
C4279 C939 1.187 . S
C4283 C278 1.231 . S
C4297 C601 1.232 . S
C4301 C954 1.191 . S
C4315 C525 1.231 . S
C4319 C965 1.184 . S
C4333 C978 1.189 . S
C4337 C616 1.234 . S
C4351 C993 1.191 . S
C4355 C1188 1.232 . S
C4369 C265 1.232 . S
C4373 C1006 1.194 . S
C4387 C1160 1.234 . S
C4391 C1019 1.189 . S
C4405 C1173 1.235 . S
C4409 C1032 1.186 . S
C4423 C681 1.232 . S
C4427 C1045 1.192 . S
C4441 C1058 1.175 . S
C4445 C380 1.234 . S
C4459 C1069 1.175 . S
C4463 C705 1.234 . S
C4477 C1082 1.177 . S
C4481 C406 1.232 . S
C4495 C627 1.234 . S
C4499 C1097 1.192 . S
C4513 C1108 1.192 . S
C4517 C330 1.234 . S
C4531 C1123 1.193 . S
C4535 C653 1.234 . S
C4549 C1134 1.183 . S
C4553 C356 1.231 . S
C4567 C185 1.235 . S
C4571 C1149 1.178 . S
C4585 C1162 1.177 . S
C4589 C759 1.234 . S
C4603 C1175 1.192 . S
C4607 C460 1.232 . S
C4621 C1186 1.193 . S
C4625 C733 1.234 . S
C4639 C1201 1.175 . S
C4643 C744 1.233 . S
C4657 C473 1.231 . S
C4661 C1212 1.190 . S
C4675 C1110 1.235 . S
C4679 C1227 1.183 . S
C4693 C1136 1.234 . S
C4697 C1238 1.192 . S
