# Generated by pormake.
# Topology rob, (6)-cn, num edge types: 1
# Building blocks:
#     Node 0, Type 0, BuildingBlock: KUMBUR_clean_sbu_1, # of connection points: 6
#     Node 1, Type 0, BuildingBlock: KUMBUR_clean_sbu_1, # of connection points: 6
#     Node 2, Type 0, BuildingBlock: KUMBUR_clean_sbu_1, # of connection points: 6
#     Node 3, Type 0, BuildingBlock: KUMBUR_clean_sbu_1, # of connection points: 6
#     Edge 4, Type (0, 0), BuildingBlock: CIFDUS_clean_linker_0, # of connection points: 2
#     Edge 5, Type (0, 0), BuildingBlock: CIFDUS_clean_linker_0, # of connection points: 2
#     Edge 6, Type (0, 0), BuildingBlock: CIFDUS_clean_linker_0, # of connection points: 2
#     Edge 7, Type (0, 0), BuildingBlock: CIFDUS_clean_linker_0, # of connection points: 2
#     Edge 8, Type (0, 0), BuildingBlock: CIFDUS_clean_linker_0, # of connection points: 2
#     Edge 9, Type (0, 0), BuildingBlock: CIFDUS_clean_linker_0, # of connection points: 2
#     Edge 10, Type (0, 0), BuildingBlock: CIFDUS_clean_linker_0, # of connection points: 2
#     Edge 11, Type (0, 0), BuildingBlock: CIFDUS_clean_linker_0, # of connection points: 2
#     Edge 12, Type (0, 0), BuildingBlock: CIFDUS_clean_linker_0, # of connection points: 2
#     Edge 13, Type (0, 0), BuildingBlock: CIFDUS_clean_linker_0, # of connection points: 2
#     Edge 14, Type (0, 0), BuildingBlock: CIFDUS_clean_linker_0, # of connection points: 2
#     Edge 15, Type (0, 0), BuildingBlock: CIFDUS_clean_linker_0, # of connection points: 2
# Relax obj value: 0.022
# Max RMSD: 0.121
# Mean RMSD: 0.121
data_MOF--net-rob--node1-KUMBUR_clean_sbu_1--edge1-CIFDUS_clean_linker_0
_symmetry_space_group_name_H-M    P1
_symmetry_Int_Tables_number       1
_symmetry_cell_setting            triclinic
loop_
_symmetry_equiv_pos_as_xyz
'x, y, z'
_cell_length_a     16.828533
_cell_length_b     19.790704
_cell_length_c     30.687581
_cell_angle_alpha  109.695
_cell_angle_beta   88.798164
_cell_angle_gamma 90.113845
loop_
_atom_site_label
_atom_site_type_symbol
_atom_site_fract_x
_atom_site_fract_y
_atom_site_fract_z
_atom_type_partial_charge
Tb0 Tb 0.32473 0.18003 0.97524 0.0
C1 C 0.10237 0.45423 0.07877 0.0
N2 N 0.17796 0.43844 0.08676 0.0
C3 C 0.21257 0.56305 0.10935 0.0
C4 C 0.07877 0.52543 0.08616 0.0
C5 C 0.23301 0.49163 0.10233 0.0
C6 C 0.13509 0.58007 0.1012 0.0
C7 C 0.96852 0.4131 0.05619 0.0
C8 C 0.04817 0.39868 0.06346 0.0
C9 C 0.94457 0.48412 0.06391 0.0
C10 C 1.00002 0.53977 0.07811 0.0
Tb11 Tb 0.20046 0.32097 0.07744 0.0
N12 N 0.07372 0.33049 0.05575 0.0
C13 C 0.91568 0.35563 0.04092 0.0
C14 C 0.02169 0.27458 0.04296 0.0
C15 C 0.94237 0.28607 0.03446 0.0
H16 H 0.29193 0.47967 0.11097 0.0
H17 H 0.90167 0.24138 0.02345 0.0
H18 H 0.23858 0.01904 0.93912 0.0
H19 H 0.61546 0.26852 0.04195 0.0
H20 H 0.04094 0.22118 0.03931 0.0
H21 H 0.85416 0.36446 0.03447 0.0
H22 H 0.47697 0.28532 0.02336 0.0
H23 H 0.25624 0.60504 0.12174 0.0
H24 H 0.88402 0.49627 0.05763 0.0
H25 H 0.9824 0.59353 0.08135 0.0
H26 H 0.27854 0.89422 0.92743 0.0
H27 H 0.11916 0.6355 0.10702 0.0
H28 H 0.66838 0.14603 0.02711 0.0
N29 N 0.35073 0.06298 0.96502 0.0
C30 C 0.42635 0.04926 0.97428 0.0
C31 C 0.32055 0.93739 0.94079 0.0
C32 C 0.45241 0.97855 0.96637 0.0
C33 C 0.29774 1.00839 0.9482 0.0
C34 C 0.39826 0.92236 0.9499 0.0
N35 N 0.44947 0.17428 1.0012 0.0
C36 C 0.49833 0.232 0.01789 0.0
C37 C 0.55738 0.09418 1.00087 0.0
C38 C 0.4778 0.10652 0.99212 0.0
C39 C 0.60708 0.15327 0.01941 0.0
C40 C 0.57731 0.22249 0.02804 0.0
H41 H 0.41596 0.86729 0.94387 0.0
H42 H 0.55099 0.91275 0.97143 0.0
H43 H 0.645 0.01278 0.99848 0.0
O44 O 0.39453 0.21431 0.92937 0.0
O45 O 0.34716 0.18135 0.04632 0.0
O46 O 0.32303 0.29902 0.08964 0.0
O47 O 0.33586 0.11148 0.9061 0.0
O48 O 0.32681 0.29512 0.98426 0.0
O49 O 0.31798 0.35628 0.06216 0.0
O50 O 0.14334 0.28454 0.12682 0.0
O51 O 0.16843 0.31317 1.0059 0.0
O52 O 0.20322 0.19791 0.95876 0.0
O53 O 0.18864 0.39223 0.14587 0.0
O54 O 0.18826 0.20577 0.06656 0.0
O55 O 0.20769 0.14175 0.98877 0.0
C56 C 0.34922 0.23512 0.08577 0.0
C57 C 0.35375 0.17294 0.85242 0.0
C58 C 0.39412 0.20262 0.78421 0.0
C59 C 0.31417 0.1971 0.7707 0.0
C60 C 0.27436 0.1683 0.83871 0.0
C61 C 0.25477 0.18093 0.79813 0.0
C62 C 0.4127 0.19206 0.82592 0.0
C63 C 0.345 0.35026 0.02049 0.0
C64 C 0.37755 0.15805 0.89402 0.0
C65 C 0.53132 0.96623 0.97541 0.0
C66 C 0.58428 0.02351 0.99159 0.0
C67 C 0.1671 0.25951 0.96601 0.0
C68 C 0.18876 0.33576 0.20262 0.0
C69 C 0.16562 0.30897 0.27389 0.0
C70 C 0.24702 0.31984 0.28352 0.0
C71 C 0.26972 0.34625 0.21272 0.0
C72 C 0.1373 0.3164 0.23293 0.0
C73 C 0.29861 0.33797 0.25295 0.0
C74 C 0.17566 0.14935 0.02972 0.0
C75 C 0.1563 0.344 0.16061 0.0
H76 H 0.29754 0.20352 0.73843 0.0
H77 H 0.2278 0.15455 0.8591 0.0
H78 H 0.19353 0.1769 0.78746 0.0
H79 H 0.47355 0.19708 0.83747 0.0
H80 H 0.27064 0.31549 0.31503 0.0
H81 H 0.31045 0.36087 0.18964 0.0
H82 H 0.07503 0.30736 0.22457 0.0
H83 H 0.3611 0.34617 0.26065 0.0
Tb84 Tb 0.81425 0.6729 0.9678 0.0
C85 C 0.62735 0.96668 0.09173 0.0
N86 N 0.70123 0.94346 0.0968 0.0
C87 C 0.7488 0.06462 0.12201 0.0
C88 C 0.61085 0.04033 0.10257 0.0
C89 C 0.76195 0.99104 0.1117 0.0
C90 C 0.67283 0.08945 0.1175 0.0
C91 C 0.48956 0.93848 0.07199 0.0
C92 C 0.56766 0.91633 0.07638 0.0
C93 C 0.47254 0.01191 0.08334 0.0
C94 C 0.53331 0.06249 0.09806 0.0
Tb95 Tb 0.71324 0.82334 0.08257 0.0
N96 N 0.5865 0.84567 0.06548 0.0
C97 C 0.43126 0.88613 0.05559 0.0
C98 C 0.52934 0.79449 0.05035 0.0
C99 C 0.45136 0.81382 0.04458 0.0
H100 H 0.8198 0.97258 0.11732 0.0
H101 H 0.40652 0.77291 0.03219 0.0
H102 H 0.70829 0.52268 0.93434 0.0
H103 H 0.11711 0.72843 0.02407 0.0
H104 H 0.54262 0.73876 0.043 0.0
H105 H 0.37072 0.90093 0.05127 0.0
H106 H 0.98023 0.76077 1.01275 0.0
H107 H 0.79693 0.10221 0.13413 0.0
H108 H 0.41317 0.02993 0.0795 0.0
H109 H 0.5205 0.11843 0.10445 0.0
H110 H 0.73252 0.39383 0.91958 0.0
H111 H 0.66252 0.14652 0.12596 0.0
H112 H 0.15564 0.60074 1.00352 0.0
N113 N 0.82651 0.55346 0.95507 0.0
C114 C 0.90083 0.5313 0.96031 0.0
C115 C 0.78025 0.43199 0.93127 0.0
C116 C 0.91793 0.45812 0.95078 0.0
C117 C 0.76634 0.50519 0.94044 0.0
C118 C 0.8564 0.40831 0.93652 0.0
N119 N 0.93926 0.65306 0.98833 0.0
C120 C 0.99501 0.70517 1.00474 0.0
C121 C 0.03784 0.56147 0.98148 0.0
C122 C 0.95957 0.58255 0.97647 0.0
C123 C 0.09497 0.61472 0.9988 0.0
C124 C 0.07328 0.68686 1.01074 0.0
H125 H 0.86715 0.35156 0.92925 0.0
H126 H 1.0079 0.3819 0.9521 0.0
H127 H 0.11511 0.47094 0.97519 0.0
O128 O 0.88294 0.69703 0.91694 0.0
O129 O 0.8353 0.65955 0.03513 0.0
O130 O 0.83057 0.777 0.08005 0.0
O131 O 0.80302 0.6075 0.89796 0.0
O132 O 0.84484 0.78682 0.98269 0.0
O133 O 0.83403 0.84581 0.06212 0.0
O134 O 0.66285 0.78776 0.13452 0.0
O135 O 0.68819 0.83477 1.01518 0.0
O136 O 0.69683 0.71809 0.96601 0.0
O137 O 0.72529 0.88772 0.15249 0.0
O138 O 0.67678 0.71044 0.06517 0.0
O139 O 0.69255 0.64945 0.98596 0.0
C140 C 0.8403 0.70986 0.07583 0.0
C141 C 0.83425 0.66134 0.8411 0.0
C142 C 0.87918 0.67798 0.7688 0.0
C143 C 0.80012 0.69358 0.76112 0.0
C144 C 0.75614 0.6771 0.83262 0.0
C145 C 0.73934 0.69326 0.79285 0.0
C146 C 0.89547 0.66176 0.80913 0.0
C147 C 0.85879 0.84239 0.02012 0.0
C148 C 0.85389 0.64462 0.88298 0.0
C149 C 0.99533 0.43718 0.95655 0.0
C150 C 0.05575 0.48827 0.97065 0.0
C151 C 0.68252 0.78603 0.97374 0.0
C152 C 0.61751 0.88019 0.20208 0.0
C153 C 0.53217 0.8816 0.26833 0.0
C154 C 0.49521 0.94429 0.2665 0.0
C155 C 0.58005 0.94333 0.20174 0.0
C156 C 0.59355 0.84967 0.23571 0.0
C157 C 0.51902 0.97468 0.23346 0.0
C158 C 0.66463 0.65442 0.02763 0.0
C159 C 0.68164 0.846 0.16791 0.0
H160 H 0.78493 0.70522 0.73026 0.0
H161 H 0.70829 0.67655 0.8566 0.0
H162 H 0.67885 0.70531 0.78647 0.0
H163 H 0.95597 0.65045 0.81612 0.0
H164 H 0.449 0.97104 0.2914 0.0
H165 H 0.5982 0.96908 0.17735 0.0
H166 H 0.62245 0.80112 0.23634 0.0
H167 H 0.49052 0.02324 0.23274 0.0
Tb168 Tb 0.32487 0.83702 0.58745 0.0
C169 C 0.10125 0.5628 0.45546 0.0
N170 N 0.17763 0.58282 0.45216 0.0
C171 C 0.21824 0.45919 0.42228 0.0
C172 C 0.08049 0.48989 0.44288 0.0
C173 C 0.23598 0.5323 0.43528 0.0
C174 C 0.14015 0.43785 0.42622 0.0
C175 C 0.9646 0.59738 0.4789 0.0
C176 C 0.04409 0.61583 0.47293 0.0
C177 C 0.94352 0.52474 0.46642 0.0
C178 C 1.00165 0.47134 0.44902 0.0
Tb179 Tb 0.19742 0.70281 0.46973 0.0
N180 N 0.06721 0.68548 0.48576 0.0
C181 C 0.90932 0.65248 0.49855 0.0
C182 C 0.01336 0.73949 0.50492 0.0
C183 C 0.93394 0.72381 0.51179 0.0
H184 H 0.29571 0.54769 0.4299 0.0
H185 H 0.89172 0.76685 0.52727 0.0
H186 H 0.2358 0.9974 0.62981 0.0
H187 H 0.63369 0.76183 0.54979 0.0
H188 H 0.03051 0.79487 0.51529 0.0
H189 H 0.84785 0.64053 0.50413 0.0
H190 H 0.49144 0.74096 0.56059 0.0
H191 H 0.26464 0.41936 0.40881 0.0
H192 H 0.88315 0.50935 0.47159 0.0
H193 H 0.98617 0.41603 0.44249 0.0
H194 H 0.27206 0.1237 0.64501 0.0
H195 H 0.1267 0.38129 0.41671 0.0
H196 H 0.68186 0.88522 0.56268 0.0
N197 N 0.35174 0.95682 0.60626 0.0
C198 C 0.42908 0.97379 0.60189 0.0
C199 C 0.31668 0.08194 0.6324 0.0
C200 C 0.45273 0.04535 0.61075 0.0
C201 C 0.29601 1.00997 0.62288 0.0
C202 C 0.39515 0.09963 0.62558 0.0
N203 N 0.4585 0.8504 0.57792 0.0
C204 C 0.51131 0.79458 0.5658 0.0
C205 C 0.56533 0.93357 0.58198 0.0
C206 C 0.48464 0.91887 0.58786 0.0
C207 C 0.61931 0.87622 0.56767 0.0
C208 C 0.59226 0.80648 0.56008 0.0
H209 H 0.41063 0.15518 0.63198 0.0
H210 H 0.55058 0.11392 0.60701 0.0
H211 H 0.65034 0.01707 0.58419 0.0
O212 O 0.36963 0.79802 0.63846 0.0
O213 O 0.38179 0.84651 0.52427 0.0
O214 O 0.28287 0.77967 0.50117 0.0
O215 O 0.29046 0.88854 0.65673 0.0
O216 O 0.34301 0.71813 0.5597 0.0
O217 O 0.31898 0.66925 0.47981 0.0
O218 O 0.14214 0.72829 0.41631 0.0
O219 O 0.16898 0.68325 0.53511 0.0
O220 O 0.20384 0.79515 0.57741 0.0
O221 O 0.24589 0.66022 0.40216 0.0
O222 O 0.16185 0.818 0.49443 0.0
O223 O 0.21557 0.88468 0.56776 0.0
C224 C 0.34174 0.81173 0.48866 0.0
C225 C 0.38869 0.88987 0.71078 0.0
C226 C 0.4675 0.89348 0.77781 0.0
C227 C 0.47675 0.96791 0.78799 0.0
C228 C 0.40071 0.96386 0.72136 0.0
C229 C 0.44436 1.00217 0.75962 0.0
C230 C 0.42288 0.85471 0.73886 0.0
C231 C 0.35728 0.67073 0.51766 0.0
C232 C 0.33724 0.85011 0.6722 0.0
C233 C 0.53253 0.06013 0.60343 0.0
C234 C 0.58899 1.00463 0.58965 0.0
C235 C 0.17853 0.73209 0.57627 0.0
C236 C 0.15015 0.63753 0.34299 0.0
C237 C 0.0745 0.62119 0.27287 0.0
C238 C 0.07655 0.5465 0.26349 0.0
C239 C 0.15109 0.56286 0.33284 0.0
C240 C 0.11154 0.66635 0.31297 0.0
C241 C 0.11414 0.51789 0.29349 0.0
C242 C 0.16752 0.87686 0.53191 0.0
C243 C 0.18903 0.68642 0.38437 0.0
H244 H 0.50787 1.00034 0.81839 0.0
H245 H 0.37521 0.99279 0.70076 0.0
H246 H 0.45203 0.05895 0.76769 0.0
H247 H 0.41444 0.79745 0.73033 0.0
H248 H 0.05022 0.50995 0.23259 0.0
H249 H 0.18063 0.53896 0.35494 0.0
H250 H 0.10997 0.72407 0.32116 0.0
H251 H 0.1151 0.46057 0.28612 0.0
Tb252 Tb 0.83587 0.33076 0.57253 0.0
C253 C 0.57811 0.08624 0.4852 0.0
N254 N 0.65342 0.09465 0.47102 0.0
C255 C 0.67696 0.96799 0.45084 0.0
C256 C 0.54896 0.01801 0.48223 0.0
C257 C 0.70226 0.03633 0.45283 0.0
C258 C 0.60018 0.95888 0.46596 0.0
C259 C 0.44986 0.13954 0.51495 0.0
C260 C 0.52945 0.14623 0.50178 0.0
C261 C 0.42009 0.07149 0.51125 0.0
C262 C 0.46963 1.01092 0.49514 0.0
Tb263 Tb 0.68633 0.20903 0.47539 0.0
N264 N 0.56004 0.21107 0.5043 0.0
C265 C 0.40215 0.20122 0.53039 0.0
C266 C 0.51249 0.27053 0.51676 0.0
C267 C 0.43343 0.26688 0.53086 0.0
H268 H 0.75994 0.04167 0.43852 0.0
H269 H 0.39639 0.31456 0.54149 0.0
H270 H 0.76659 0.49935 0.61398 0.0
H271 H 0.11692 0.21858 0.49312 0.0
H272 H 0.53479 0.32063 0.51541 0.0
H273 H 0.34074 0.19844 0.54097 0.0
H274 H 0.97976 0.21437 0.52082 0.0
H275 H 0.71625 0.92217 0.4369 0.0
H276 H 0.35896 0.06514 0.52094 0.0
H277 H 0.44607 0.95891 0.49287 0.0
H278 H 0.81561 0.61964 0.62044 0.0
H279 H 0.58074 0.90598 0.46442 0.0
H280 H 0.17828 0.33561 0.50076 0.0
N281 N 0.87218 0.44535 0.58048 0.0
C282 C 0.94761 0.45257 0.56609 0.0
C283 C 0.85317 0.573 0.60492 0.0
C284 C 0.97925 0.52069 0.57127 0.0
C285 C 0.82509 0.50445 0.60041 0.0
C286 C 0.93039 0.58111 0.59 0.0
N287 N 0.95973 0.32626 0.53998 0.0
C288 C 1.00398 0.26505 0.52258 0.0
C289 C 0.07283 0.39667 0.53211 0.0
C290 C 0.99331 0.39122 0.54591 0.0
C291 C 0.11717 0.3337 0.51213 0.0
C292 C 0.08264 0.26759 0.50756 0.0
H293 H 0.95179 0.63416 0.59326 0.0
H294 H 0.08281 0.5775 0.55934 0.0
H295 H 0.16647 0.47 0.52846 0.0
O296 O 0.89739 0.28704 0.61601 0.0
O297 O 0.85225 0.33337 0.50151 0.0
O298 O 0.80838 0.22295 0.45554 0.0
O299 O 0.86254 0.39808 0.6399 0.0
O300 O 0.83027 0.21315 0.55664 0.0
O301 O 0.80281 0.1625 0.47931 0.0
O302 O 0.63286 0.25046 0.42827 0.0
O303 O 0.66322 0.2152 0.54786 0.0
O304 O 0.71508 0.32279 0.59644 0.0
O305 O 0.66107 0.13823 0.40878 0.0
O306 O 0.683 0.32685 0.4926 0.0
O307 O 0.72088 0.38101 0.56886 0.0
C308 C 0.84195 0.28463 0.46054 0.0
C309 C 0.87022 0.34105 0.69609 0.0
C310 C 0.90593 0.32672 0.76955 0.0
C311 C 0.82464 0.33087 0.78215 0.0
C312 C 0.78972 0.34496 0.7095 0.0
C313 C 0.7672 0.33968 0.75225 0.0
C314 C 0.9281 0.33191 0.72616 0.0
C315 C 0.83802 0.16049 0.51682 0.0
C316 C 0.89485 0.34674 0.65105 0.0
C317 C 0.05824 0.52618 0.55729 0.0
C318 C 0.10549 0.4646 0.53882 0.0
C319 C 0.66998 0.26598 0.58855 0.0
C320 C 0.66908 0.19078 0.35029 0.0
C321 C 0.6505 0.21095 0.27686 0.0
C322 C 0.73238 0.19929 0.26703 0.0
C323 C 0.7505 0.17892 0.33968 0.0
C324 C 0.6192 0.20628 0.31867 0.0
C325 C 0.78186 0.18328 0.29825 0.0
C326 C 0.68044 0.38061 0.53226 0.0
C327 C 0.63571 0.18912 0.39465 0.0
H328 H 0.80536 0.32846 0.81549 0.0
H329 H 0.74439 0.3526 0.68709 0.0
H330 H 0.70493 0.34293 0.76241 0.0
H331 H 0.99022 0.32822 0.7155 0.0
H332 H 0.75802 0.20178 0.23493 0.0
H333 H 0.78986 0.16646 0.3634 0.0
H334 H 0.55641 0.21604 0.32704 0.0
H335 H 0.84477 0.17435 0.29036 0.0
H336 H 0.57515 0.55889 0.96093 0.0
H337 H 0.62563 0.62795 0.10671 0.0
H338 H 0.53028 0.54207 0.11762 0.0
H339 H 0.43313 0.44647 0.08609 0.0
H340 H 0.3839 0.3747 0.94019 0.0
H341 H 0.4789 0.46129 0.929 0.0
C342 C 0.56625 0.55437 0.99492 0.0
C343 C 0.60824 0.5996 0.03279 0.0
C344 C 0.51122 0.50439 1.00106 0.0
C345 C 0.59423 0.59406 0.07685 0.0
C346 C 0.53965 0.54482 0.0832 0.0
C347 C 0.4424 0.45034 0.05193 0.0
C348 C 0.40071 0.40466 1.01419 0.0
C349 C 0.49761 0.49985 0.04563 0.0
C350 C 0.41498 0.40933 0.96995 0.0
C351 C 0.46936 0.45887 0.96348 0.0
H352 H 0.42525 0.63188 0.5862 0.0
H353 H 0.43074 0.5833 0.43806 0.0
H354 H 0.53001 0.48988 0.42946 0.0
H355 H 0.61599 0.4213 0.46378 0.0
H356 H 0.61564 0.47424 0.61218 0.0
H357 H 0.51565 0.56729 0.62077 0.0
C358 C 0.44805 0.60096 0.55197 0.0
C359 C 0.41867 0.61398 0.51277 0.0
C360 C 0.50717 0.54841 0.54728 0.0
C361 C 0.45005 0.5735 0.46884 0.0
C362 C 0.50769 0.52036 0.46386 0.0
C363 C 0.59437 0.45345 0.49803 0.0
C364 C 0.62386 0.44076 0.53726 0.0
C365 C 0.53665 0.50718 0.50281 0.0
C366 C 0.59507 0.48321 0.58136 0.0
C367 C 0.53727 0.53621 0.58632 0.0
H368 H 0.09092 0.05156 0.96273 0.0
H369 H 0.13694 0.12278 0.10904 0.0
H370 H 0.04306 0.03488 0.11924 0.0
H371 H 0.94832 0.93711 0.08666 0.0
H372 H 0.89935 0.8682 0.94072 0.0
H373 H 0.99464 0.95475 0.93034 0.0
C374 C 0.08104 0.04728 0.99674 0.0
C375 C 0.12133 0.09339 0.03495 0.0
C376 C 0.02616 0.99707 1.00253 0.0
C377 C 0.1067 0.08801 0.07898 0.0
C378 C 0.05298 0.03771 0.08489 0.0
C379 C 0.95724 0.94189 0.05275 0.0
C380 C 0.91546 0.89686 1.01476 0.0
C381 C 0.01203 0.99217 0.04697 0.0
C382 C 0.93016 0.90234 0.97074 0.0
C383 C 0.98479 0.95187 0.96469 0.0
H384 H 0.90983 0.1262 0.586 0.0
H385 H 0.89988 0.06369 0.43717 0.0
H386 H 1.00005 0.97138 0.42876 0.0
H387 H 0.09335 0.90935 0.46329 0.0
H388 H 0.10383 0.97147 0.61193 0.0
H389 H 1.00293 0.06362 0.62059 0.0
C390 C 0.92912 0.09208 0.55172 0.0
C391 C 0.89573 0.1013 0.51235 0.0
C392 C 0.98838 0.03967 0.54698 0.0
C393 C 0.92247 0.05688 0.46821 0.0
C394 C 0.98068 1.00439 0.46328 0.0
C395 C 0.07377 0.94323 0.49759 0.0
C396 C 0.10799 0.93459 0.53687 0.0
C397 C 0.01438 0.99545 0.50237 0.0
C398 C 0.08116 0.97862 0.58103 0.0
C399 C 0.02235 0.03074 0.58606 0.0
H400 H 0.50651 0.15333 0.24591 0.0
H401 H 0.67822 0.30781 0.23292 0.0
H402 H 0.59729 0.33241 0.17474 0.0
H403 H 0.48071 0.30593 0.12474 0.0
H404 H 0.314 0.1453 0.13317 0.0
H405 H 0.38818 0.12844 0.19686 0.0
C406 C 0.5256 0.19293 0.2307 0.0
C407 C 0.59845 0.22838 0.24351 0.0
C408 C 0.47928 0.20599 0.19672 0.0
C409 C 0.62288 0.27915 0.2232 0.0
C410 C 0.57648 0.2935 0.19011 0.0
C411 C 0.46093 0.2674 0.14073 0.0
C412 C 0.3931 0.22614 0.12433 0.0
C413 C 0.50523 0.25653 0.17611 0.0
C414 C 0.36697 0.17673 0.14516 0.0
C415 C 0.40908 0.16742 0.18159 0.0
H416 H 0.38208 0.867 0.29931 0.0
H417 H 0.62834 0.83143 0.32188 0.0
H418 H 0.59007 0.79843 0.38933 0.0
H419 H 0.48754 0.79338 0.44736 0.0
H420 H 0.24295 0.83517 0.42629 0.0
H421 H 0.27915 0.85228 0.35333 0.0
C422 C 0.42745 0.85185 0.3189 0.0
C423 C 0.50815 0.85251 0.30569 0.0
C424 C 0.40514 0.83445 0.35827 0.0
C425 C 0.56584 0.83112 0.33097 0.0
C426 C 0.54399 0.81286 0.36987 0.0
C427 C 0.44218 0.80465 0.42611 0.0
C428 C 0.36223 0.81075 0.4414 0.0
C429 C 0.46404 0.81626 0.38461 0.0
C430 C 0.30416 0.82701 0.41431 0.0
C431 C 0.32518 0.83807 0.37292 0.0
H432 H 0.55791 0.7344 0.9181 0.0
H433 H 0.74923 0.88689 0.94403 0.0
H434 H 0.705 0.92749 0.88145 0.0
H435 H 0.60807 0.92417 0.82279 0.0
H436 H 0.40613 0.78273 0.80325 0.0
H437 H 0.45933 0.73182 0.85886 0.0
C438 C 0.58988 0.77611 0.90958 0.0
C439 C 0.65645 0.80796 0.93524 0.0
C440 C 0.5623 0.80092 0.87472 0.0
C441 C 0.69774 0.86207 0.92451 0.0
C442 C 0.67247 0.88514 0.88883 0.0
C443 C 0.57496 0.88271 0.83087 0.0
C444 C 0.50263 0.858 0.80889 0.0
C445 C 0.60397 0.8559 0.86434 0.0
C446 C 0.46234 0.80248 0.81901 0.0
C447 C 0.49237 0.77368 0.8512 0.0
H448 H 0.68596 0.19767 0.65007 0.0
H449 H 0.53243 0.34077 0.61157 0.0
H450 H 0.43434 0.33761 0.67096 0.0
H451 H 0.38992 0.28859 0.73087 0.0
H452 H 0.54518 0.1451 0.76918 0.0
H453 H 0.64551 0.15565 0.71405 0.0
C454 C 0.63089 0.22803 0.65497 0.0
C455 C 0.61367 0.26637 0.62546 0.0
C456 C 0.57564 0.2266 0.68951 0.0
C457 C 0.54417 0.3079 0.63267 0.0
C458 C 0.48883 0.3068 0.66691 0.0
C459 C 0.44549 0.25935 0.72711 0.0
C460 C 0.45847 0.2148 0.75362 0.0
C461 C 0.50323 0.26506 0.6949 0.0
C462 C 0.53233 0.17934 0.7492 0.0
C463 C 0.59021 0.18518 0.71751 0.0
H464 H 0.96049 0.77106 0.13226 0.0
H465 H 0.7816 0.60715 0.10733 0.0
H466 H 0.83412 0.56903 0.16933 0.0
H467 H 0.93689 0.57683 0.22638 0.0
H468 H 0.12365 0.73359 0.24599 0.0
H469 H 0.06218 0.78018 0.19056 0.0
C470 C 0.93264 0.72768 0.14102 0.0
C471 C 0.86783 0.69147 0.1155 0.0
C472 C 0.96506 0.70443 0.17538 0.0
C473 C 0.83195 0.6352 0.12661 0.0
C474 C 0.86201 0.61348 0.16192 0.0
C475 C 0.96445 0.621 0.21845 0.0
C476 C 0.035 0.65147 0.24045 0.0
C477 C 0.92981 0.6465 0.18571 0.0
C478 C 0.06885 0.7096 0.23021 0.0
C479 C 0.03397 0.73611 0.19826 0.0
H480 H 0.97931 0.21698 0.42578 0.0
H481 H 0.80631 0.36394 0.4068 0.0
H482 H 0.8884 0.37987 0.34381 0.0
H483 H 0.01584 0.36142 0.30039 0.0
H484 H 0.19084 0.217 0.3217 0.0
H485 H 0.10333 0.19315 0.37925 0.0
C486 C 0.96033 0.25293 0.40802 0.0
C487 C 0.88874 0.29104 0.42136 0.0
C488 C 1.0088 0.26324 0.37308 0.0
C489 C 0.86235 0.33534 0.39728 0.0
C490 C 0.90911 0.34424 0.36137 0.0
C491 C 0.03432 0.3237 0.31696 0.0
C492 C 0.11017 0.29144 0.30691 0.0
C493 C 0.98357 0.31004 0.34992 0.0
C494 C 0.13346 0.24355 0.32933 0.0
C495 C 0.08322 0.22941 0.36198 0.0
H496 H 0.89789 0.2416 0.82331 0.0
H497 H 0.05133 0.39219 0.7891 0.0
H498 H 0.14769 0.38239 0.84526 0.0
H499 H 0.18508 0.33602 0.90784 0.0
H500 H 0.02961 0.18762 0.94241 0.0
H501 H 0.93686 0.19233 0.88309 0.0
C502 C 0.95224 0.27255 0.82818 0.0
C503 C 0.96684 0.31788 0.80203 0.0
C504 C 1.00689 0.26738 0.86094 0.0
C505 C 0.0386 0.35635 0.80831 0.0
C506 C 0.09367 0.35108 0.84065 0.0
C507 C 0.13072 0.305 0.90221 0.0
C508 C 0.11233 0.26339 0.9302 0.0
C509 C 0.07805 0.30746 0.8676 0.0
C510 C 0.04329 0.2216 0.92201 0.0
C511 C 0.99069 0.22393 0.88794 0.0
H512 H 0.17042 0.64047 0.62634 0.0
H513 H 0.05687 0.82472 0.60926 0.0
H514 H 0.95691 0.82622 0.66825 0.0
H515 H 0.89895 0.77369 0.72313 0.0
H516 H 1.00581 0.58498 0.73806 0.0
H517 H 0.11048 0.58657 0.68181 0.0
C518 C 0.1236 0.68071 0.63567 0.0
C519 C 0.12042 0.73183 0.61313 0.0
C520 C 0.06509 0.68058 0.66936 0.0
C521 C 0.06031 0.7845 0.62594 0.0
C522 C 1.00299 0.78536 0.65964 0.0
C523 C 0.94476 0.73253 0.71396 0.0
C524 C 0.9441 0.67932 0.73499 0.0
C525 C 1.00425 0.7333 0.68126 0.0
C526 C 1.0051 0.62723 0.72302 0.0
C527 C 0.06495 0.62791 0.69065 0.0
loop_
_geom_bond_atom_site_label_1
_geom_bond_atom_site_label_2
_geom_bond_distance
_geom_bond_site_symmetry_2
_ccdc_geom_bond_type
Tb0 N29 2.617 . S
Tb0 N35 2.572 . S
Tb0 O44 2.465 . S
Tb0 O45 2.387 1_556 S
Tb0 O47 2.428 . S
Tb0 O48 2.308 . S
Tb0 O52 2.349 . S
Tb0 O55 2.393 . S
Tb0 C64 2.802 . S
C1 N2 1.379 . S
C1 C4 1.416 . S
C1 C8 1.424 1_455 S
N2 C1 1.379 . S
N2 C5 1.334 . S
N2 Tb11 2.617 . S
C3 C5 1.390 . S
C3 C6 1.339 . S
C3 H23 0.930 . S
C4 C1 1.416 . S
C4 C6 1.416 . S
C4 C10 1.448 1_455 S
C5 N2 1.334 . S
C5 C3 1.390 . S
C5 H16 0.930 . S
C6 C3 1.339 . S
C6 C4 1.416 . S
C6 H27 0.930 . S
C7 C8 1.413 . S
C7 C9 1.427 . S
C7 C13 1.416 . S
C8 C1 1.424 1_655 S
C8 C7 1.413 . S
C8 N12 1.361 1_655 S
C9 C7 1.427 . S
C9 C10 1.328 . S
C9 H24 0.929 . S
C10 C4 1.448 1_655 S
C10 C9 1.328 . S
C10 H25 0.930 . S
Tb11 N2 2.617 . S
Tb11 N12 2.572 . S
Tb11 O46 2.349 . S
Tb11 O49 2.393 . S
Tb11 O50 2.465 . S
Tb11 O51 2.387 1_554 S
Tb11 O53 2.428 . S
Tb11 O54 2.308 . S
Tb11 C75 2.802 . S
N12 C8 1.361 1_455 S
N12 Tb11 2.572 . S
N12 C14 1.340 1_455 S
C13 C7 1.416 . S
C13 C15 1.332 . S
C13 H21 0.931 1_554 S
C14 N12 1.340 1_655 S
C14 C15 1.407 . S
C14 H20 0.933 . S
C15 C13 1.332 . S
C15 C14 1.407 . S
C15 H17 0.929 . S
H16 C5 0.930 . S
H17 C15 0.929 . S
H18 C33 0.930 . S
H19 C40 0.929 . S
H20 C14 0.933 . S
H21 C13 0.931 1_556 S
H22 C36 0.930 . S
H23 C3 0.930 . S
H24 C9 0.929 . S
H25 C10 0.930 . S
H26 C31 0.930 . S
H27 C6 0.930 . S
H28 C39 0.931 . S
N29 Tb0 2.617 . S
N29 C30 1.379 . S
N29 C33 1.334 1_545 S
C30 N29 1.379 . S
C30 C32 1.416 1_545 S
C30 C38 1.424 . S
C31 H26 0.930 . S
C31 C33 1.390 . S
C31 C34 1.339 . S
C32 C30 1.416 1_565 S
C32 C34 1.416 . S
C32 C65 1.448 . S
C33 H18 0.930 . S
C33 N29 1.334 1_565 S
C33 C31 1.390 . S
C34 C31 1.339 . S
C34 C32 1.416 . S
C34 H41 0.930 . S
N35 Tb0 2.572 . S
N35 C36 1.340 . S
N35 C38 1.361 . S
C36 H22 0.930 . S
C36 N35 1.340 . S
C36 C40 1.407 1_556 S
C37 C38 1.413 1_554 S
C37 C39 1.416 . S
C37 C66 1.427 . S
C38 C30 1.424 . S
C38 N35 1.361 . S
C38 C37 1.413 1_556 S
C39 H28 0.931 . S
C39 C37 1.416 . S
C39 C40 1.332 . S
C40 H19 0.929 . S
C40 C36 1.407 1_554 S
C40 C39 1.332 . S
H41 C34 0.930 . S
H42 C65 0.929 1_554 S
H43 C66 0.929 . S
O44 Tb0 2.465 . S
O44 C64 1.264 . S
O45 Tb0 2.387 1_554 S
O45 C56 1.264 . S
O46 Tb11 2.349 . S
O46 C56 1.243 . S
O47 Tb0 2.428 . S
O47 C64 1.256 . S
O48 Tb0 2.308 . S
O48 C63 1.266 1_556 S
O49 Tb11 2.393 . S
O49 C63 1.248 . S
O50 Tb11 2.465 . S
O50 C75 1.264 . S
O51 Tb11 2.387 1_556 S
O51 C67 1.264 . S
O52 Tb0 2.349 . S
O52 C67 1.243 . S
O53 Tb11 2.428 . S
O53 C75 1.256 . S
O54 Tb11 2.308 . S
O54 C74 1.266 1_554 S
O55 Tb0 2.393 . S
O55 C74 1.248 . S
C56 O45 1.264 . S
C56 O46 1.243 . S
C57 C60 1.399 . S
C57 C62 1.383 . S
C57 C64 1.496 . S
C58 C59 1.399 . S
C58 C62 1.389 . S
C59 C58 1.399 . S
C59 C61 1.380 . S
C59 H76 0.929 . S
C60 C57 1.399 . S
C60 C61 1.392 . S
C60 H77 0.929 . S
C61 C59 1.380 . S
C61 C60 1.392 . S
C61 H78 0.929 . S
C62 C57 1.383 . S
C62 C58 1.389 . S
C62 H79 0.931 . S
C63 O48 1.266 1_554 S
C63 O49 1.248 . S
C64 Tb0 2.802 . S
C64 O44 1.264 . S
C64 O47 1.256 . S
C64 C57 1.496 . S
C65 C32 1.448 . S
C65 H42 0.929 1_556 S
C65 C66 1.328 1_566 S
C66 C37 1.427 . S
C66 H43 0.929 . S
C66 C65 1.328 1_544 S
C67 O51 1.264 . S
C67 O52 1.243 . S
C68 C71 1.399 . S
C68 C72 1.383 . S
C68 C75 1.496 . S
C69 C70 1.399 . S
C69 C72 1.389 . S
C70 C69 1.399 . S
C70 C73 1.380 . S
C70 H80 0.929 1_455 S
C71 C68 1.399 . S
C71 C73 1.392 . S
C71 H81 0.929 . S
C72 C68 1.383 . S
C72 C69 1.389 . S
C72 H82 0.931 . S
C73 C70 1.380 . S
C73 C71 1.392 . S
C73 H83 0.929 . S
C74 O54 1.266 1_556 S
C74 O55 1.248 . S
C75 Tb11 2.802 . S
C75 O50 1.264 . S
C75 O53 1.256 . S
C75 C68 1.496 . S
H76 C59 0.929 . S
H77 C60 0.929 . S
H78 C61 0.929 . S
H79 C62 0.931 . S
H80 C70 0.929 1_655 S
H81 C71 0.929 . S
H82 C72 0.931 . S
H83 C73 0.929 . S
Tb84 N113 2.617 . S
Tb84 N119 2.572 . S
Tb84 O128 2.465 . S
Tb84 O129 2.387 1_556 S
Tb84 O131 2.428 . S
Tb84 O132 2.308 . S
Tb84 O136 2.349 . S
Tb84 O139 2.393 . S
Tb84 C148 2.802 . S
C85 N86 1.379 . S
C85 C88 1.416 1_565 S
C85 C92 1.424 . S
N86 C85 1.379 . S
N86 C89 1.334 1_565 S
N86 Tb95 2.617 . S
C87 C89 1.390 . S
C87 C90 1.339 . S
C87 H107 0.930 . S
C88 C85 1.416 1_545 S
C88 C90 1.416 . S
C88 C94 1.448 . S
C89 N86 1.334 1_545 S
C89 C87 1.390 . S
C89 H100 0.930 . S
C90 C87 1.339 . S
C90 C88 1.416 . S
C90 H111 0.930 . S
C91 C92 1.413 . S
C91 C93 1.427 . S
C91 C97 1.416 . S
C92 C85 1.424 . S
C92 C91 1.413 . S
C92 N96 1.361 . S
C93 C91 1.427 . S
C93 C94 1.328 1_565 S
C93 H108 0.929 . S
C94 C88 1.448 . S
C94 C93 1.328 1_545 S
C94 H109 0.930 . S
Tb95 N86 2.617 . S
Tb95 N96 2.572 . S
Tb95 O130 2.349 . S
Tb95 O133 2.393 . S
Tb95 O134 2.465 . S
Tb95 O135 2.387 1_554 S
Tb95 O137 2.428 . S
Tb95 O138 2.308 . S
Tb95 C159 2.802 . S
N96 C92 1.361 . S
N96 Tb95 2.572 . S
N96 C98 1.340 . S
C97 C91 1.416 . S
C97 C99 1.332 . S
C97 H105 0.931 1_554 S
C98 N96 1.340 . S
C98 C99 1.407 . S
C98 H104 0.930 . S
C99 C97 1.332 . S
C99 C98 1.407 . S
C99 H101 0.929 . S
H100 C89 0.930 . S
H101 C99 0.929 . S
H102 C117 0.930 . S
H103 C124 0.929 . S
H104 C98 0.930 . S
H105 C97 0.931 1_556 S
H106 C120 0.933 . S
H107 C87 0.930 . S
H108 C93 0.929 . S
H109 C94 0.930 . S
H110 C115 0.930 . S
H111 C90 0.930 . S
H112 C123 0.931 . S
N113 Tb84 2.617 . S
N113 C114 1.379 . S
N113 C117 1.334 . S
C114 N113 1.379 . S
C114 C116 1.416 . S
C114 C122 1.424 1_655 S
C115 H110 0.930 . S
C115 C117 1.390 . S
C115 C118 1.339 . S
C116 C114 1.416 . S
C116 C118 1.416 . S
C116 C149 1.448 1_655 S
C117 H102 0.930 . S
C117 N113 1.334 . S
C117 C115 1.390 . S
C118 C115 1.339 . S
C118 C116 1.416 . S
C118 H125 0.930 . S
N119 Tb84 2.572 . S
N119 C120 1.340 1_655 S
N119 C122 1.361 1_655 S
C120 H106 0.933 . S
C120 N119 1.340 1_455 S
C120 C124 1.407 1_556 S
C121 C122 1.413 1_554 S
C121 C123 1.416 . S
C121 C150 1.427 . S
C122 C114 1.424 1_455 S
C122 N119 1.361 1_455 S
C122 C121 1.413 1_556 S
C123 H112 0.931 . S
C123 C121 1.416 . S
C123 C124 1.332 . S
C124 H103 0.929 . S
C124 C120 1.407 1_554 S
C124 C123 1.332 . S
H125 C118 0.930 . S
H126 C149 0.929 1_554 S
H127 C150 0.929 . S
O128 Tb84 2.465 . S
O128 C148 1.264 . S
O129 Tb84 2.387 1_554 S
O129 C140 1.264 . S
O130 Tb95 2.349 . S
O130 C140 1.243 . S
O131 Tb84 2.428 . S
O131 C148 1.256 . S
O132 Tb84 2.308 . S
O132 C147 1.266 1_556 S
O133 Tb95 2.393 . S
O133 C147 1.248 . S
O134 Tb95 2.465 . S
O134 C159 1.264 . S
O135 Tb95 2.387 1_556 S
O135 C151 1.264 . S
O136 Tb84 2.349 . S
O136 C151 1.243 . S
O137 Tb95 2.428 . S
O137 C159 1.256 . S
O138 Tb95 2.308 . S
O138 C158 1.266 1_554 S
O139 Tb84 2.393 . S
O139 C158 1.248 . S
C140 O129 1.264 . S
C140 O130 1.243 . S
C141 C144 1.399 . S
C141 C146 1.383 . S
C141 C148 1.496 . S
C142 C143 1.399 . S
C142 C146 1.389 . S
C143 C142 1.399 . S
C143 C145 1.380 . S
C143 H160 0.929 1_655 S
C144 C141 1.399 . S
C144 C145 1.392 . S
C144 H161 0.929 . S
C145 C143 1.380 . S
C145 C144 1.392 . S
C145 H162 0.929 . S
C146 C141 1.383 . S
C146 C142 1.389 . S
C146 H163 0.931 . S
C147 O132 1.266 1_554 S
C147 O133 1.248 . S
C148 Tb84 2.802 . S
C148 O128 1.264 . S
C148 O131 1.256 . S
C148 C141 1.496 . S
C149 C116 1.448 1_455 S
C149 H126 0.929 1_556 S
C149 C150 1.328 1_556 S
C150 C121 1.427 . S
C150 H127 0.929 . S
C150 C149 1.328 1_554 S
C151 O135 1.264 . S
C151 O136 1.243 . S
C152 C155 1.399 . S
C152 C156 1.383 . S
C152 C159 1.496 . S
C153 C154 1.399 . S
C153 C156 1.389 . S
C154 C153 1.399 . S
C154 C157 1.380 . S
C154 H164 0.929 . S
C155 C152 1.399 . S
C155 C157 1.392 . S
C155 H165 0.929 . S
C156 C152 1.383 . S
C156 C153 1.389 . S
C156 H166 0.931 . S
C157 C154 1.380 . S
C157 C155 1.392 . S
C157 H167 0.929 . S
C158 O138 1.266 1_556 S
C158 O139 1.248 . S
C159 Tb95 2.802 . S
C159 O134 1.264 . S
C159 O137 1.256 . S
C159 C152 1.496 . S
H160 C143 0.929 1_455 S
H161 C144 0.929 . S
H162 C145 0.929 . S
H163 C146 0.931 . S
H164 C154 0.929 . S
H165 C155 0.929 . S
H166 C156 0.931 . S
H167 C157 0.929 . S
Tb168 N197 2.617 . S
Tb168 N203 2.572 . S
Tb168 O212 2.465 . S
Tb168 O213 2.387 . S
Tb168 O215 2.428 . S
Tb168 O216 2.308 . S
Tb168 O220 2.349 . S
Tb168 O223 2.393 . S
Tb168 C232 2.802 . S
C169 N170 1.379 . S
C169 C172 1.416 . S
C169 C176 1.424 1_455 S
N170 C169 1.379 . S
N170 C173 1.334 . S
N170 Tb179 2.617 . S
C171 C173 1.390 . S
C171 C174 1.339 . S
C171 H191 0.930 . S
C172 C169 1.416 . S
C172 C174 1.416 . S
C172 C178 1.448 1_455 S
C173 N170 1.334 . S
C173 C171 1.390 . S
C173 H184 0.930 . S
C174 C171 1.339 . S
C174 C172 1.416 . S
C174 H195 0.930 . S
C175 C176 1.413 . S
C175 C177 1.427 . S
C175 C181 1.416 . S
C176 C169 1.424 1_655 S
C176 C175 1.413 . S
C176 N180 1.361 1_655 S
C177 C175 1.427 . S
C177 C178 1.328 . S
C177 H192 0.929 . S
C178 C172 1.448 1_655 S
C178 C177 1.328 . S
C178 H193 0.930 . S
Tb179 N170 2.617 . S
Tb179 N180 2.572 . S
Tb179 O214 2.349 . S
Tb179 O217 2.393 . S
Tb179 O218 2.465 . S
Tb179 O219 2.387 . S
Tb179 O221 2.428 . S
Tb179 O222 2.308 . S
Tb179 C243 2.802 . S
N180 C176 1.361 1_455 S
N180 Tb179 2.572 . S
N180 C182 1.340 1_455 S
C181 C175 1.416 . S
C181 C183 1.332 . S
C181 H189 0.931 . S
C182 N180 1.340 1_655 S
C182 C183 1.407 . S
C182 H188 0.933 . S
C183 C181 1.332 . S
C183 C182 1.407 . S
C183 H185 0.929 . S
H184 C173 0.930 . S
H185 C183 0.929 . S
H186 C201 0.930 . S
H187 C208 0.929 . S
H188 C182 0.933 . S
H189 C181 0.931 . S
H190 C204 0.930 . S
H191 C171 0.930 . S
H192 C177 0.929 . S
H193 C178 0.930 . S
H194 C199 0.930 . S
H195 C174 0.930 . S
H196 C207 0.931 . S
N197 Tb168 2.617 . S
N197 C198 1.379 . S
N197 C201 1.334 1_565 S
C198 N197 1.379 . S
C198 C200 1.416 1_565 S
C198 C206 1.424 . S
C199 H194 0.930 . S
C199 C201 1.390 . S
C199 C202 1.339 . S
C200 C198 1.416 1_545 S
C200 C202 1.416 . S
C200 C233 1.448 . S
C201 H186 0.930 . S
C201 N197 1.334 1_545 S
C201 C199 1.390 . S
C202 C199 1.339 . S
C202 C200 1.416 . S
C202 H209 0.930 . S
N203 Tb168 2.572 . S
N203 C204 1.340 . S
N203 C206 1.361 . S
C204 H190 0.930 . S
C204 N203 1.340 . S
C204 C208 1.407 . S
C205 C206 1.413 . S
C205 C207 1.416 . S
C205 C234 1.427 . S
C206 C198 1.424 . S
C206 N203 1.361 . S
C206 C205 1.413 . S
C207 H196 0.931 . S
C207 C205 1.416 . S
C207 C208 1.332 . S
C208 H187 0.929 . S
C208 C204 1.407 . S
C208 C207 1.332 . S
H209 C202 0.930 . S
H210 C233 0.930 . S
H211 C234 0.929 . S
O212 Tb168 2.465 . S
O212 C232 1.264 . S
O213 Tb168 2.387 . S
O213 C224 1.264 . S
O214 Tb179 2.349 . S
O214 C224 1.243 . S
O215 Tb168 2.428 . S
O215 C232 1.256 . S
O216 Tb168 2.308 . S
O216 C231 1.266 . S
O217 Tb179 2.393 . S
O217 C231 1.248 . S
O218 Tb179 2.465 . S
O218 C243 1.264 . S
O219 Tb179 2.387 . S
O219 C235 1.264 . S
O220 Tb168 2.349 . S
O220 C235 1.243 . S
O221 Tb179 2.428 . S
O221 C243 1.256 . S
O222 Tb179 2.308 . S
O222 C242 1.266 . S
O223 Tb168 2.393 . S
O223 C242 1.248 . S
C224 O213 1.264 . S
C224 O214 1.243 . S
C225 C228 1.399 . S
C225 C230 1.383 . S
C225 C232 1.496 . S
C226 C227 1.399 . S
C226 C230 1.389 . S
C227 C226 1.399 . S
C227 C229 1.380 . S
C227 H244 0.929 . S
C228 C225 1.399 . S
C228 C229 1.392 . S
C228 H245 0.929 . S
C229 C227 1.380 . S
C229 C228 1.392 . S
C229 H246 0.929 . S
C230 C225 1.383 . S
C230 C226 1.389 . S
C230 H247 0.931 . S
C231 O216 1.266 . S
C231 O217 1.248 . S
C232 Tb168 2.802 . S
C232 O212 1.264 . S
C232 O215 1.256 . S
C232 C225 1.496 . S
C233 C200 1.448 . S
C233 H210 0.930 . S
C233 C234 1.328 1_545 S
C234 C205 1.427 . S
C234 H211 0.929 . S
C234 C233 1.328 1_565 S
C235 O219 1.264 . S
C235 O220 1.243 . S
C236 C239 1.399 . S
C236 C240 1.383 . S
C236 C243 1.496 . S
C237 C238 1.399 . S
C237 C240 1.389 . S
C238 C237 1.399 . S
C238 C241 1.380 . S
C238 H248 0.929 1_455 S
C239 C236 1.399 . S
C239 C241 1.392 . S
C239 H249 0.929 . S
C240 C236 1.383 . S
C240 C237 1.389 . S
C240 H250 0.931 . S
C241 C238 1.380 . S
C241 C239 1.392 . S
C241 H251 0.929 . S
C242 O222 1.266 . S
C242 O223 1.248 . S
C243 Tb179 2.802 . S
C243 O218 1.264 . S
C243 O221 1.256 . S
C243 C236 1.496 . S
H244 C227 0.929 . S
H245 C228 0.929 . S
H246 C229 0.929 . S
H247 C230 0.931 . S
H248 C238 0.929 1_655 S
H249 C239 0.929 . S
H250 C240 0.931 . S
H251 C241 0.929 . S
Tb252 N281 2.617 . S
Tb252 N287 2.572 . S
Tb252 O296 2.465 . S
Tb252 O297 2.387 . S
Tb252 O299 2.428 . S
Tb252 O300 2.308 . S
Tb252 O304 2.349 . S
Tb252 O307 2.393 . S
Tb252 C316 2.802 . S
C253 N254 1.379 . S
C253 C256 1.416 1_545 S
C253 C260 1.424 . S
N254 C253 1.379 . S
N254 C257 1.334 1_545 S
N254 Tb263 2.617 . S
C255 C257 1.390 . S
C255 C258 1.339 . S
C255 H275 0.930 . S
C256 C253 1.416 1_565 S
C256 C258 1.416 . S
C256 C262 1.448 . S
C257 N254 1.334 1_565 S
C257 C255 1.390 . S
C257 H268 0.930 . S
C258 C255 1.339 . S
C258 C256 1.416 . S
C258 H279 0.930 . S
C259 C260 1.413 . S
C259 C261 1.427 . S
C259 C265 1.416 . S
C260 C253 1.424 . S
C260 C259 1.413 . S
C260 N264 1.361 . S
C261 C259 1.427 . S
C261 C262 1.328 1_545 S
C261 H276 0.929 . S
C262 C256 1.448 . S
C262 C261 1.328 1_565 S
C262 H277 0.930 . S
Tb263 N254 2.617 . S
Tb263 N264 2.572 . S
Tb263 O298 2.349 . S
Tb263 O301 2.393 . S
Tb263 O302 2.465 . S
Tb263 O303 2.387 . S
Tb263 O305 2.428 . S
Tb263 O306 2.308 . S
Tb263 C327 2.802 . S
N264 C260 1.361 . S
N264 Tb263 2.572 . S
N264 C266 1.340 . S
C265 C259 1.416 . S
C265 C267 1.332 . S
C265 H273 0.931 . S
C266 N264 1.340 . S
C266 C267 1.407 . S
C266 H272 0.930 . S
C267 C265 1.332 . S
C267 C266 1.407 . S
C267 H269 0.929 . S
H268 C257 0.930 . S
H269 C267 0.929 . S
H270 C285 0.930 . S
H271 C292 0.929 . S
H272 C266 0.930 . S
H273 C265 0.931 . S
H274 C288 0.933 . S
H275 C255 0.930 . S
H276 C261 0.929 . S
H277 C262 0.930 . S
H278 C283 0.930 . S
H279 C258 0.930 . S
H280 C291 0.931 . S
N281 Tb252 2.617 . S
N281 C282 1.379 . S
N281 C285 1.334 . S
C282 N281 1.379 . S
C282 C284 1.416 . S
C282 C290 1.424 1_655 S
C283 H278 0.930 . S
C283 C285 1.390 . S
C283 C286 1.339 . S
C284 C282 1.416 . S
C284 C286 1.416 . S
C284 C317 1.448 1_655 S
C285 H270 0.930 . S
C285 N281 1.334 . S
C285 C283 1.390 . S
C286 C283 1.339 . S
C286 C284 1.416 . S
C286 H293 0.930 . S
N287 Tb252 2.572 . S
N287 C288 1.340 1_655 S
N287 C290 1.361 1_655 S
C288 H274 0.933 . S
C288 N287 1.340 1_455 S
C288 C292 1.407 . S
C289 C290 1.413 . S
C289 C291 1.416 . S
C289 C318 1.427 . S
C290 C282 1.424 1_455 S
C290 N287 1.361 1_455 S
C290 C289 1.413 . S
C291 H280 0.931 . S
C291 C289 1.416 . S
C291 C292 1.332 . S
C292 H271 0.929 . S
C292 C288 1.407 . S
C292 C291 1.332 . S
H293 C286 0.930 . S
H294 C317 0.930 . S
H295 C318 0.929 . S
O296 Tb252 2.465 . S
O296 C316 1.264 . S
O297 Tb252 2.387 . S
O297 C308 1.264 . S
O298 Tb263 2.349 . S
O298 C308 1.243 . S
O299 Tb252 2.428 . S
O299 C316 1.256 . S
O300 Tb252 2.308 . S
O300 C315 1.266 . S
O301 Tb263 2.393 . S
O301 C315 1.248 . S
O302 Tb263 2.465 . S
O302 C327 1.264 . S
O303 Tb263 2.387 . S
O303 C319 1.264 . S
O304 Tb252 2.349 . S
O304 C319 1.243 . S
O305 Tb263 2.428 . S
O305 C327 1.256 . S
O306 Tb263 2.308 . S
O306 C326 1.266 . S
O307 Tb252 2.393 . S
O307 C326 1.248 . S
C308 O297 1.264 . S
C308 O298 1.243 . S
C309 C312 1.399 . S
C309 C314 1.383 . S
C309 C316 1.496 . S
C310 C311 1.399 . S
C310 C314 1.389 . S
C311 C310 1.399 . S
C311 C313 1.380 . S
C311 H328 0.929 1_655 S
C312 C309 1.399 . S
C312 C313 1.392 . S
C312 H329 0.929 . S
C313 C311 1.380 . S
C313 C312 1.392 . S
C313 H330 0.929 . S
C314 C309 1.383 . S
C314 C310 1.389 . S
C314 H331 0.931 . S
C315 O300 1.266 . S
C315 O301 1.248 . S
C316 Tb252 2.802 . S
C316 O296 1.264 . S
C316 O299 1.256 . S
C316 C309 1.496 . S
C317 C284 1.448 1_455 S
C317 H294 0.930 . S
C317 C318 1.328 . S
C318 C289 1.427 . S
C318 H295 0.929 . S
C318 C317 1.328 . S
C319 O303 1.264 . S
C319 O304 1.243 . S
C320 C323 1.399 . S
C320 C324 1.383 . S
C320 C327 1.496 . S
C321 C322 1.399 . S
C321 C324 1.389 . S
C322 C321 1.399 . S
C322 C325 1.380 . S
C322 H332 0.929 . S
C323 C320 1.399 . S
C323 C325 1.392 . S
C323 H333 0.929 . S
C324 C320 1.383 . S
C324 C321 1.389 . S
C324 H334 0.931 . S
C325 C322 1.380 . S
C325 C323 1.392 . S
C325 H335 0.929 . S
C326 O306 1.266 . S
C326 O307 1.248 . S
C327 Tb263 2.802 . S
C327 O302 1.264 . S
C327 O305 1.256 . S
C327 C320 1.496 . S
H328 C311 0.929 1_455 S
H329 C312 0.929 . S
H330 C313 0.929 . S
H331 C314 0.931 . S
H332 C322 0.929 . S
H333 C323 0.929 . S
H334 C324 0.931 . S
H335 C325 0.929 . S
H336 C342 0.930 . S
H337 C345 0.930 . S
H338 C346 0.930 . S
H339 C347 0.930 . S
H340 C350 0.930 . S
H341 C351 0.930 . S
C342 H336 0.930 . S
C342 C343 1.355 1_556 S
C342 C344 1.415 . S
C343 C342 1.355 1_554 S
C343 C345 1.419 . S
C344 C342 1.415 . S
C344 C349 1.425 1_556 S
C344 C351 1.409 . S
C345 H337 0.930 . S
C345 C343 1.419 . S
C345 C346 1.362 . S
C346 H338 0.930 . S
C346 C345 1.362 . S
C346 C349 1.409 . S
C347 H339 0.930 . S
C347 C348 1.355 . S
C347 C349 1.415 . S
C348 C347 1.355 . S
C348 C350 1.419 1_554 S
C349 C344 1.425 1_554 S
C349 C346 1.409 . S
C349 C347 1.415 . S
C350 H340 0.930 . S
C350 C348 1.419 1_556 S
C350 C351 1.362 . S
C351 H341 0.930 . S
C351 C344 1.409 . S
C351 C350 1.362 . S
H352 C358 0.930 . S
H353 C361 0.930 . S
H354 C362 0.930 . S
H355 C363 0.930 . S
H356 C366 0.930 . S
H357 C367 0.930 . S
C358 H352 0.930 . S
C358 C359 1.355 . S
C358 C360 1.415 . S
C359 C358 1.355 . S
C359 C361 1.419 . S
C360 C358 1.415 . S
C360 C365 1.425 . S
C360 C367 1.409 . S
C361 H353 0.930 . S
C361 C359 1.419 . S
C361 C362 1.362 . S
C362 H354 0.930 . S
C362 C361 1.362 . S
C362 C365 1.409 . S
C363 H355 0.930 . S
C363 C364 1.355 . S
C363 C365 1.415 . S
C364 C363 1.355 . S
C364 C366 1.419 . S
C365 C360 1.425 . S
C365 C362 1.409 . S
C365 C363 1.415 . S
C366 H356 0.930 . S
C366 C364 1.419 . S
C366 C367 1.362 . S
C367 H357 0.930 . S
C367 C360 1.409 . S
C367 C366 1.362 . S
H368 C374 0.930 1_565 S
H369 C377 0.930 . S
H370 C378 0.930 . S
H371 C379 0.930 1_545 S
H372 C382 0.930 . S
H373 C383 0.930 . S
C374 H368 0.930 1_545 S
C374 C375 1.355 1_556 S
C374 C376 1.419 1_545 S
C375 C374 1.355 1_554 S
C375 C377 1.419 . S
C376 C374 1.419 1_565 S
C376 C381 1.422 1_466 S
C376 C383 1.408 . S
C377 H369 0.930 . S
C377 C375 1.419 . S
C377 C378 1.362 1_455 S
C378 H370 0.930 . S
C378 C377 1.362 1_655 S
C378 C381 1.409 . S
C379 H371 0.930 1_565 S
C379 C380 1.355 . S
C379 C381 1.415 1_565 S
C380 C379 1.355 . S
C380 C382 1.419 1_554 S
C381 C376 1.422 1_644 S
C381 C378 1.409 . S
C381 C379 1.415 1_545 S
C382 H372 0.930 . S
C382 C380 1.419 1_556 S
C382 C383 1.362 1_655 S
C383 H373 0.930 . S
C383 C376 1.408 . S
C383 C382 1.362 1_455 S
H384 C390 0.924 1_565 S
H385 C393 0.930 . S
H386 C394 0.930 . S
H387 C395 0.924 1_545 S
H388 C398 0.930 . S
H389 C399 0.930 . S
C390 H384 0.924 1_545 S
C390 C391 1.355 . S
C390 C392 1.415 1_545 S
C391 C390 1.355 . S
C391 C393 1.419 . S
C392 C390 1.415 1_565 S
C392 C397 1.425 1_665 S
C392 C399 1.409 . S
C393 H385 0.930 . S
C393 C391 1.419 . S
C393 C394 1.362 1_655 S
C394 H386 0.930 . S
C394 C393 1.362 1_455 S
C394 C397 1.409 . S
C395 H387 0.924 1_565 S
C395 C396 1.355 . S
C395 C397 1.415 1_565 S
C396 C395 1.355 . S
C396 C398 1.419 . S
C397 C392 1.425 1_445 S
C397 C394 1.409 . S
C397 C395 1.415 1_545 S
C398 H388 0.930 . S
C398 C396 1.419 . S
C398 C399 1.362 1_455 S
C399 H389 0.930 . S
C399 C392 1.409 . S
C399 C398 1.362 1_655 S
H400 C406 0.930 . S
H401 C409 0.930 . S
H402 C410 0.930 . S
H403 C411 0.930 . S
H404 C414 0.930 . S
H405 C415 0.930 . S
C406 H400 0.930 . S
C406 C407 1.355 . S
C406 C408 1.415 . S
C407 C406 1.355 . S
C407 C409 1.419 . S
C408 C406 1.415 . S
C408 C413 1.425 . S
C408 C415 1.409 . S
C409 H401 0.930 . S
C409 C407 1.419 . S
C409 C410 1.362 . S
C410 H402 0.930 . S
C410 C409 1.362 . S
C410 C413 1.409 . S
C411 H403 0.930 . S
C411 C412 1.355 . S
C411 C413 1.415 . S
C412 C411 1.355 . S
C412 C414 1.419 . S
C413 C408 1.425 . S
C413 C410 1.409 . S
C413 C411 1.415 . S
C414 H404 0.930 . S
C414 C412 1.419 . S
C414 C415 1.362 . S
C415 H405 0.930 . S
C415 C408 1.409 . S
C415 C414 1.362 . S
H416 C422 0.930 . S
H417 C425 0.930 . S
H418 C426 0.930 . S
H419 C427 0.930 . S
H420 C430 0.930 . S
H421 C431 0.930 . S
C422 H416 0.930 . S
C422 C423 1.355 . S
C422 C424 1.415 . S
C423 C422 1.355 . S
C423 C425 1.419 . S
C424 C422 1.415 . S
C424 C429 1.425 . S
C424 C431 1.409 . S
C425 H417 0.930 . S
C425 C423 1.419 . S
C425 C426 1.362 . S
C426 H418 0.930 . S
C426 C425 1.362 . S
C426 C429 1.409 . S
C427 H419 0.930 . S
C427 C428 1.355 . S
C427 C429 1.415 . S
C428 C427 1.355 . S
C428 C430 1.419 . S
C429 C424 1.425 . S
C429 C426 1.409 . S
C429 C427 1.415 . S
C430 H420 0.930 . S
C430 C428 1.419 . S
C430 C431 1.362 . S
C431 H421 0.930 . S
C431 C424 1.409 . S
C431 C430 1.362 . S
H432 C438 0.930 . S
H433 C441 0.930 . S
H434 C442 0.930 . S
H435 C443 0.930 . S
H436 C446 0.930 . S
H437 C447 0.930 . S
C438 H432 0.930 . S
C438 C439 1.355 . S
C438 C440 1.415 . S
C439 C438 1.355 . S
C439 C441 1.419 . S
C440 C438 1.415 . S
C440 C445 1.425 . S
C440 C447 1.409 . S
C441 H433 0.930 . S
C441 C439 1.419 . S
C441 C442 1.362 . S
C442 H434 0.930 . S
C442 C441 1.362 . S
C442 C445 1.409 . S
C443 H435 0.930 . S
C443 C444 1.355 . S
C443 C445 1.415 . S
C444 C443 1.355 . S
C444 C446 1.419 . S
C445 C440 1.425 . S
C445 C442 1.409 . S
C445 C443 1.415 . S
C446 H436 0.930 . S
C446 C444 1.419 . S
C446 C447 1.362 . S
C447 H437 0.930 . S
C447 C440 1.409 . S
C447 C446 1.362 . S
H448 C454 0.930 . S
H449 C457 0.930 . S
H450 C458 0.930 . S
H451 C459 0.930 . S
H452 C462 0.930 . S
H453 C463 0.930 . S
C454 H448 0.930 . S
C454 C455 1.355 . S
C454 C456 1.415 . S
C455 C454 1.355 . S
C455 C457 1.419 . S
C456 C454 1.415 . S
C456 C461 1.425 . S
C456 C463 1.409 . S
C457 H449 0.930 . S
C457 C455 1.419 . S
C457 C458 1.362 . S
C458 H450 0.930 . S
C458 C457 1.362 . S
C458 C461 1.409 . S
C459 H451 0.930 . S
C459 C460 1.355 . S
C459 C461 1.415 . S
C460 C459 1.355 . S
C460 C462 1.419 . S
C461 C456 1.425 . S
C461 C458 1.409 . S
C461 C459 1.415 . S
C462 H452 0.930 . S
C462 C460 1.419 . S
C462 C463 1.362 . S
C463 H453 0.930 . S
C463 C456 1.409 . S
C463 C462 1.362 . S
H464 C470 0.930 . S
H465 C473 0.930 . S
H466 C474 0.930 . S
H467 C475 0.930 . S
H468 C478 0.930 . S
H469 C479 0.930 . S
C470 H464 0.930 . S
C470 C471 1.355 . S
C470 C472 1.415 . S
C471 C470 1.355 . S
C471 C473 1.419 . S
C472 C470 1.415 . S
C472 C477 1.425 . S
C472 C479 1.409 1_655 S
C473 H465 0.930 . S
C473 C471 1.419 . S
C473 C474 1.362 . S
C474 H466 0.930 . S
C474 C473 1.362 . S
C474 C477 1.409 . S
C475 H467 0.930 . S
C475 C476 1.355 . S
C475 C477 1.415 . S
C476 C475 1.355 . S
C476 C478 1.419 1_655 S
C477 C472 1.425 . S
C477 C474 1.409 . S
C477 C475 1.415 . S
C478 H468 0.930 . S
C478 C476 1.419 1_455 S
C478 C479 1.362 . S
C479 H469 0.930 . S
C479 C472 1.409 1_455 S
C479 C478 1.362 . S
H480 C486 0.930 . S
H481 C489 0.930 . S
H482 C490 0.930 . S
H483 C491 0.930 . S
H484 C494 0.930 . S
H485 C495 0.930 . S
C486 H480 0.930 . S
C486 C487 1.355 . S
C486 C488 1.415 . S
C487 C486 1.355 . S
C487 C489 1.419 . S
C488 C486 1.415 . S
C488 C493 1.425 . S
C488 C495 1.409 . S
C489 H481 0.930 . S
C489 C487 1.419 . S
C489 C490 1.362 . S
C490 H482 0.930 . S
C490 C489 1.362 . S
C490 C493 1.409 . S
C491 H483 0.930 . S
C491 C492 1.355 . S
C491 C493 1.415 . S
C492 C491 1.355 . S
C492 C494 1.419 . S
C493 C488 1.425 . S
C493 C490 1.409 . S
C493 C491 1.415 . S
C494 H484 0.930 . S
C494 C492 1.419 . S
C494 C495 1.362 . S
C495 H485 0.930 . S
C495 C488 1.409 . S
C495 C494 1.362 . S
H496 C502 0.930 . S
H497 C505 0.930 . S
H498 C506 0.930 . S
H499 C507 0.930 . S
H500 C510 0.930 . S
H501 C511 0.930 1_655 S
C502 H496 0.930 . S
C502 C503 1.355 1_655 S
C502 C504 1.415 1_655 S
C503 C502 1.355 1_455 S
C503 C505 1.419 . S
C504 C502 1.415 1_455 S
C504 C509 1.425 . S
C504 C511 1.409 . S
C505 H497 0.930 . S
C505 C503 1.419 . S
C505 C506 1.362 . S
C506 H498 0.930 . S
C506 C505 1.362 . S
C506 C509 1.409 . S
C507 H499 0.930 . S
C507 C508 1.355 . S
C507 C509 1.415 . S
C508 C507 1.355 . S
C508 C510 1.419 . S
C509 C504 1.425 . S
C509 C506 1.409 . S
C509 C507 1.415 . S
C510 H500 0.930 . S
C510 C508 1.419 . S
C510 C511 1.362 . S
C511 H501 0.930 1_455 S
C511 C504 1.409 . S
C511 C510 1.362 . S
H512 C518 0.930 . S
H513 C521 0.930 . S
H514 C522 0.930 1_655 S
H515 C523 0.930 . S
H516 C526 0.930 . S
H517 C527 0.930 . S
C518 H512 0.930 . S
C518 C519 1.355 . S
C518 C520 1.415 . S
C519 C518 1.355 . S
C519 C521 1.419 . S
C520 C518 1.415 . S
C520 C525 1.425 . S
C520 C527 1.409 . S
C521 H513 0.930 . S
C521 C519 1.419 . S
C521 C522 1.362 . S
C522 H514 0.930 1_455 S
C522 C521 1.362 . S
C522 C525 1.409 . S
C523 H515 0.930 . S
C523 C524 1.355 1_655 S
C523 C525 1.415 1_655 S
C524 C523 1.355 1_455 S
C524 C526 1.419 . S
C525 C520 1.425 . S
C525 C522 1.409 . S
C525 C523 1.415 1_455 S
C526 H516 0.930 . S
C526 C524 1.419 . S
C526 C527 1.362 . S
C527 H517 0.930 . S
C527 C520 1.409 . S
C527 C526 1.362 . S
C343 C158 1.535 1_554 S
C348 C63 1.535 . S
C359 C231 1.505 . S
C364 C326 1.505 . S
C375 C74 1.503 1_554 S
C380 C147 1.503 . S
C391 C315 1.511 . S
C396 C242 1.511 . S
C407 C321 1.284 . S
C412 C56 1.318 . S
C423 C153 1.217 . S
C428 C224 1.332 . S
C439 C151 1.323 . S
C444 C226 1.232 . S
C455 C319 1.357 . S
C460 C58 1.284 . S
C471 C140 1.318 . S
C476 C237 1.285 1_655 S
C487 C308 1.339 . S
C492 C69 1.319 1_655 S
C503 C310 1.271 1_455 S
C508 C67 1.358 . S
C519 C235 1.355 . S
C524 C142 1.296 1_455 S
