# Generated by pormake.
# Topology lcx, (8)-cn, num edge types: 1
# Building blocks:
#     Node 0, Type 0, BuildingBlock: OLANAS_clean_sbu_2, # of connection points: 8
#     Node 1, Type 0, BuildingBlock: OLANAS_clean_sbu_2, # of connection points: 8
#     Node 2, Type 0, BuildingBlock: OLANAS_clean_sbu_2, # of connection points: 8
#     Node 3, Type 0, BuildingBlock: OLANAS_clean_sbu_2, # of connection points: 8
#     Node 4, Type 0, BuildingBlock: OLANAS_clean_sbu_2, # of connection points: 8
#     Node 5, Type 0, BuildingBlock: OLANAS_clean_sbu_2, # of connection points: 8
#     Edge 6, Type (0, 0), BuildingBlock: KIFKEQ_clean_linker_1, # of connection points: 2
#     Edge 7, Type (0, 0), BuildingBlock: KIFKEQ_clean_linker_1, # of connection points: 2
#     Edge 8, Type (0, 0), BuildingBlock: KIFKEQ_clean_linker_1, # of connection points: 2
#     Edge 9, Type (0, 0), BuildingBlock: KIFKEQ_clean_linker_1, # of connection points: 2
#     Edge 10, Type (0, 0), BuildingBlock: KIFKEQ_clean_linker_1, # of connection points: 2
#     Edge 11, Type (0, 0), BuildingBlock: KIFKEQ_clean_linker_1, # of connection points: 2
#     Edge 12, Type (0, 0), BuildingBlock: KIFKEQ_clean_linker_1, # of connection points: 2
#     Edge 13, Type (0, 0), BuildingBlock: KIFKEQ_clean_linker_1, # of connection points: 2
#     Edge 14, Type (0, 0), BuildingBlock: KIFKEQ_clean_linker_1, # of connection points: 2
#     Edge 15, Type (0, 0), BuildingBlock: KIFKEQ_clean_linker_1, # of connection points: 2
#     Edge 16, Type (0, 0), BuildingBlock: KIFKEQ_clean_linker_1, # of connection points: 2
#     Edge 17, Type (0, 0), BuildingBlock: KIFKEQ_clean_linker_1, # of connection points: 2
#     Edge 18, Type (0, 0), BuildingBlock: KIFKEQ_clean_linker_1, # of connection points: 2
#     Edge 19, Type (0, 0), BuildingBlock: KIFKEQ_clean_linker_1, # of connection points: 2
#     Edge 20, Type (0, 0), BuildingBlock: KIFKEQ_clean_linker_1, # of connection points: 2
#     Edge 21, Type (0, 0), BuildingBlock: KIFKEQ_clean_linker_1, # of connection points: 2
#     Edge 22, Type (0, 0), BuildingBlock: KIFKEQ_clean_linker_1, # of connection points: 2
#     Edge 23, Type (0, 0), BuildingBlock: KIFKEQ_clean_linker_1, # of connection points: 2
#     Edge 24, Type (0, 0), BuildingBlock: KIFKEQ_clean_linker_1, # of connection points: 2
#     Edge 25, Type (0, 0), BuildingBlock: KIFKEQ_clean_linker_1, # of connection points: 2
#     Edge 26, Type (0, 0), BuildingBlock: KIFKEQ_clean_linker_1, # of connection points: 2
#     Edge 27, Type (0, 0), BuildingBlock: KIFKEQ_clean_linker_1, # of connection points: 2
#     Edge 28, Type (0, 0), BuildingBlock: KIFKEQ_clean_linker_1, # of connection points: 2
#     Edge 29, Type (0, 0), BuildingBlock: KIFKEQ_clean_linker_1, # of connection points: 2
# Relax obj value: 0.048
# Max RMSD: 0.138
# Mean RMSD: 0.137
data_MOF--net-lcx--node1-OLANAS_clean_sbu_2--edge1-KIFKEQ_clean_linker_1
_symmetry_space_group_name_H-M    P1
_symmetry_Int_Tables_number       1
_symmetry_cell_setting            triclinic
loop_
_symmetry_equiv_pos_as_xyz
'x, y, z'
_cell_length_a     31.640999
_cell_length_b     31.692688
_cell_length_c     31.677584
_cell_angle_alpha  90.058392
_cell_angle_beta   89.809098
_cell_angle_gamma 90.193792
loop_
_atom_site_label
_atom_site_type_symbol
_atom_site_fract_x
_atom_site_fract_y
_atom_site_fract_z
_atom_type_partial_charge
C0 C 0.94855 0.3173 0.48534 0.0
O1 O 0.91222 0.3369 0.48129 0.0
C2 C 0.98913 0.3392 0.47976 0.0
C3 C 0.99682 0.38196 0.47172 0.0
C4 C 0.03937 0.39563 0.46904 0.0
C5 C 0.07294 0.36683 0.47479 0.0
C6 C 0.06265 0.32461 0.48274 0.0
N7 N 0.02203 0.31348 0.48389 0.0
N8 N 0.00858 0.23855 0.43887 0.0
Co9 Co 0.01024 0.25826 0.49738 0.0
N10 N 0.99853 0.20317 0.51134 0.0
C11 C 0.98538 0.13376 0.48894 0.0
C12 C 0.98112 0.1223 0.53193 0.0
C13 C 0.98604 0.15277 0.56425 0.0
C14 C 0.99507 0.19433 0.5523 0.0
C15 C 0.99447 0.17598 0.47956 0.0
N16 N 0.01008 0.2684 0.55792 0.0
N17 N 0.95096 0.27503 0.49423 0.0
N18 N 0.07118 0.25107 0.49859 0.0
C19 C 0.00025 0.19604 0.43821 0.0
O20 O 0.99801 0.17442 0.40282 0.0
C21 C 0.09087 0.28891 0.49098 0.0
O22 O 0.13225 0.29295 0.49087 0.0
C23 C 0.09489 0.21341 0.50573 0.0
C24 C 0.15025 0.16699 0.47928 0.0
C25 C 0.11759 0.19585 0.47183 0.0
C26 C 0.10477 0.20166 0.54729 0.0
C27 C 0.13659 0.1721 0.55486 0.0
C28 C 0.15784 0.15372 0.52076 0.0
C29 C 0.00164 0.23162 0.57904 0.0
O30 O 0.00143 0.22944 0.6205 0.0
C31 C 0.02251 0.3058 0.58004 0.0
C32 C 0.06505 0.31111 0.59167 0.0
C33 C 0.07641 0.3415 0.62168 0.0
C34 C 0.04509 0.36716 0.63938 0.0
C35 C 0.00233 0.36058 0.63002 0.0
C36 C 0.99123 0.33034 0.5996 0.0
C37 C 0.91391 0.24869 0.49402 0.0
C38 C 0.89846 0.23097 0.5318 0.0
C39 C 0.85914 0.21042 0.53216 0.0
C40 C 0.83555 0.20769 0.4951 0.0
C41 C 0.84979 0.22607 0.45755 0.0
C42 C 0.88919 0.24635 0.45711 0.0
C43 C 0.01228 0.26235 0.40044 0.0
C44 C 0.02259 0.29593 0.31936 0.0
C45 C 0.98354 0.27877 0.33093 0.0
C46 C 0.97842 0.2622 0.3716 0.0
C47 C 0.05149 0.27945 0.38804 0.0
C48 C 0.05651 0.29637 0.34748 0.0
H49 H 0.97109 0.40404 0.46795 0.0
H50 H 0.04632 0.42852 0.46291 0.0
H51 H 0.10551 0.37728 0.47331 0.0
H52 H 0.98165 0.11052 0.46416 0.0
H53 H 0.97404 0.08991 0.54016 0.0
H54 H 0.98282 0.1441 0.59715 0.0
H55 H 0.1124 0.20784 0.44025 0.0
H56 H 0.09009 0.21759 0.57367 0.0
H57 H 0.18318 0.13163 0.52701 0.0
H58 H 0.08878 0.2896 0.58003 0.0
H59 H 0.05362 0.38863 0.66469 0.0
H60 H 0.95822 0.32346 0.59352 0.0
H61 H 0.91583 0.23469 0.5609 0.0
H62 H 0.80565 0.1908 0.49565 0.0
H63 H 0.89973 0.26211 0.42874 0.0
H64 H 0.02645 0.31005 0.28837 0.0
H65 H 0.94882 0.24735 0.38006 0.0
H66 H 0.07845 0.2778 0.40871 0.0
C67 C 0.30947 0.49337 0.92907 0.0
O68 O 0.32113 0.48886 0.88944 0.0
C69 C 0.34011 0.49444 0.9638 0.0
C70 C 0.38423 0.49197 0.96212 0.0
C71 C 0.40664 0.49315 0.00072 0.0
C72 C 0.38487 0.49667 0.03969 0.0
C73 C 0.34072 0.49876 0.03875 0.0
N74 N 0.32148 0.49744 0.00144 0.0
N75 N 0.25474 0.44049 0.00676 0.0
Co76 Co 0.26353 0.50093 0.00193 0.0
N77 N 0.20561 0.50456 0.00269 0.0
C78 C 0.14012 0.46995 0.00789 0.0
C79 C 0.12059 0.51005 0.00609 0.0
C80 C 0.14519 0.54732 0.00281 0.0
C81 C 0.18918 0.54317 0.00137 0.0
C82 C 0.18428 0.46842 0.00607 0.0
N83 N 0.26263 0.56192 0.99714 0.0
N84 N 0.26784 0.49551 0.94094 0.0
N85 N 0.26904 0.50564 0.06285 0.0
C86 C 0.21234 0.43165 0.00835 0.0
O87 O 0.19778 0.39299 0.01275 0.0
C88 C 0.31075 0.5033 0.07399 0.0
O89 O 0.32326 0.50686 0.11339 0.0
C90 C 0.23673 0.51447 0.09331 0.0
C91 C 0.19519 0.48992 0.15354 0.0
C92 C 0.22045 0.48141 0.11804 0.0
C93 C 0.22746 0.55652 0.10395 0.0
C94 C 0.20145 0.56517 0.1387 0.0
C95 C 0.18556 0.53198 0.16315 0.0
C96 C 0.22178 0.57612 0.99788 0.0
O97 O 0.21237 0.61625 0.99346 0.0
C98 C 0.29728 0.58879 0.98615 0.0
C99 C 0.32318 0.60548 0.01801 0.0
C100 C 0.35338 0.63649 0.00814 0.0
C101 C 0.35783 0.64986 0.96624 0.0
C102 C 0.33057 0.63514 0.93481 0.0
C103 C 0.3005 0.60429 0.94471 0.0
C104 C 0.23416 0.48806 0.91181 0.0
C105 C 0.20861 0.52174 0.8992 0.0
C106 C 0.17934 0.5162 0.86666 0.0
C107 C 0.17537 0.47682 0.84711 0.0
C108 C 0.20224 0.44361 0.85781 0.0
C109 C 0.23146 0.44912 0.89047 0.0
C110 C 0.28606 0.40878 0.01348 0.0
C111 C 0.33892 0.33942 0.0251 0.0
C112 C 0.33603 0.35787 0.98511 0.0
C113 C 0.30934 0.39262 0.97924 0.0
C114 C 0.28866 0.3893 0.05316 0.0
C115 C 0.31474 0.35442 0.05881 0.0
H116 H 0.40079 0.48922 0.9323 0.0
H117 H 0.44078 0.49139 0.00043 0.0
H118 H 0.40195 0.49779 0.06921 0.0
H119 H 0.1214 0.44146 0.01074 0.0
H120 H 0.08649 0.51225 0.00739 0.0
H121 H 0.13035 0.57801 0.00155 0.0
H122 H 0.22873 0.44928 0.11046 0.0
H123 H 0.24173 0.5822 0.0864 0.0
H124 H 0.16718 0.53939 0.19114 0.0
H125 H 0.31821 0.59607 0.05052 0.0
H126 H 0.37946 0.67552 0.95889 0.0
H127 H 0.27815 0.59406 0.92096 0.0
H128 H 0.21321 0.55272 0.91278 0.0
H129 H 0.15419 0.47328 0.82043 0.0
H130 H 0.25335 0.42404 0.89783 0.0
H131 H 0.35831 0.31157 0.0295 0.0
H132 H 0.30565 0.40595 0.9481 0.0
H133 H 0.26905 0.40002 0.07896 0.0
C134 C 0.07758 0.69058 0.49435 0.0
O135 O 0.11423 0.67128 0.49172 0.0
C136 C 0.03737 0.66783 0.48976 0.0
C137 C 0.0304 0.62476 0.48277 0.0
C138 C 0.98809 0.61051 0.47954 0.0
C139 C 0.95405 0.63913 0.48342 0.0
C140 C 0.96364 0.68169 0.49036 0.0
N141 N 0.00405 0.69319 0.4928 0.0
N142 N 0.01713 0.7644 0.44244 0.0
Co143 Co 0.0149 0.74936 0.50239 0.0
N144 N 0.02596 0.80545 0.51212 0.0
C145 C 0.04051 0.87264 0.48446 0.0
C146 C 0.04536 0.88724 0.52641 0.0
C147 C 0.04041 0.85934 0.56094 0.0
C148 C 0.03053 0.81717 0.55223 0.0
C149 C 0.03052 0.83002 0.47836 0.0
N150 N 0.01442 0.7439 0.5637 0.0
N151 N 0.0745 0.73322 0.50096 0.0
N152 N 0.95373 0.75593 0.50235 0.0
C153 C 0.02518 0.80679 0.43863 0.0
O154 O 0.02804 0.82557 0.40171 0.0
C155 C 0.93481 0.71748 0.49567 0.0
O156 O 0.8935 0.71265 0.49563 0.0
C157 C 0.92889 0.79283 0.51044 0.0
C158 C 0.86781 0.83319 0.48746 0.0
C159 C 0.90275 0.80785 0.47793 0.0
C160 C 0.92042 0.80467 0.5525 0.0
C161 C 0.88611 0.83089 0.5619 0.0
C162 C 0.86105 0.84617 0.52912 0.0
C163 C 0.02403 0.78208 0.58176 0.0
O164 O 0.02439 0.78766 0.62291 0.0
C165 C 0.00162 0.70872 0.58927 0.0
C166 C 0.9583 0.70188 0.59764 0.0
C167 C 0.94559 0.67567 0.63096 0.0
C168 C 0.97626 0.6562 0.65575 0.0
C169 C 0.01919 0.6652 0.65001 0.0
C170 C 0.03192 0.68997 0.61558 0.0
C171 C 0.11172 0.75933 0.50241 0.0
C172 C 0.1291 0.77108 0.54163 0.0
C173 C 0.17064 0.78688 0.5436 0.0
C174 C 0.1941 0.79171 0.50642 0.0
C175 C 0.1775 0.77998 0.46739 0.0
C176 C 0.13623 0.76405 0.46548 0.0
C177 C 0.01442 0.73766 0.40578 0.0
C178 C 0.0063 0.6991 0.32651 0.0
C179 C 0.04499 0.71685 0.33798 0.0
C180 C 0.04905 0.73576 0.37769 0.0
C181 C 0.97534 0.72041 0.39326 0.0
C182 C 0.97148 0.70088 0.35368 0.0
H183 H 0.05649 0.60292 0.47993 0.0
H184 H 0.98169 0.57738 0.47413 0.0
H185 H 0.92166 0.62832 0.48106 0.0
H186 H 0.04469 0.89381 0.45797 0.0
H187 H 0.05315 0.92001 0.53213 0.0
H188 H 0.04434 0.87035 0.59305 0.0
H189 H 0.90681 0.79573 0.44616 0.0
H190 H 0.93777 0.79067 0.57814 0.0
H191 H 0.83322 0.86471 0.53667 0.0
H192 H 0.93451 0.71922 0.58075 0.0
H193 H 0.96634 0.63745 0.68271 0.0
H194 H 0.06492 0.69858 0.61189 0.0
H195 H 0.11161 0.76536 0.57049 0.0
H196 H 0.22594 0.80448 0.50795 0.0
H197 H 0.12443 0.75242 0.43583 0.0
H198 H 0.0031 0.68394 0.29593 0.0
H199 H 0.07829 0.75142 0.38546 0.0
H200 H 0.94761 0.72421 0.41281 0.0
C201 C 0.71465 0.50425 0.93035 0.0
O202 O 0.70114 0.50755 0.89128 0.0
C203 C 0.68565 0.49798 0.96616 0.0
C204 C 0.64158 0.49418 0.96615 0.0
C205 C 0.62082 0.48915 0.00551 0.0
C206 C 0.64412 0.48825 0.04358 0.0
C207 C 0.68808 0.49246 0.04098 0.0
N208 N 0.70574 0.49672 0.00301 0.0
N209 N 0.76232 0.56366 0.0066 0.0
Co210 Co 0.76344 0.50256 0.00141 0.0
N211 N 0.82116 0.50849 -0.0002 0.0
C212 C 0.88016 0.55355 5e-05 0.0
C213 C 0.90594 0.51732 0.99616 0.0
C214 C 0.88772 0.47651 0.9941 0.0
C215 C 0.84365 0.47325 0.99612 0.0
C216 C 0.83634 0.54767 0.00174 0.0
N217 N 0.77415 0.44238 0.99577 0.0
N218 N 0.75658 0.50761 0.94052 0.0
N219 N 0.76074 0.4969 0.06251 0.0
C220 C 0.80275 0.57931 0.00569 0.0
O221 O 0.81102 0.61975 0.01023 0.0
C222 C 0.71946 0.49255 0.07508 0.0
O223 O 0.70881 0.48665 0.11481 0.0
C224 C 0.79475 0.49186 0.09185 0.0
C225 C 0.82914 0.51871 0.15522 0.0
C226 C 0.80579 0.52577 0.11834 0.0
C227 C 0.80888 0.45101 0.10159 0.0
C228 C 0.83343 0.44414 0.13757 0.0
C229 C 0.8436 0.478 0.164 0.0
C230 C 0.81686 0.43539 0.99387 0.0
O231 O 0.83282 0.3973 0.99009 0.0
C232 C 0.74444 0.40831 0.99219 0.0
C233 C 0.72725 0.39 0.02895 0.0
C234 C 0.70849 0.34986 0.02717 0.0
C235 C 0.70597 0.32878 0.9885 0.0
C236 C 0.72229 0.34688 0.95165 0.0
C237 C 0.74108 0.38691 0.95337 0.0
C238 C 0.78808 0.51906 0.9099 0.0
C239 C 0.81626 0.48835 0.89478 0.0
C240 C 0.84392 0.49793 0.86146 0.0
C241 C 0.84335 0.53824 0.84358 0.0
C242 C 0.81366 0.56817 0.85633 0.0
C243 C 0.78611 0.55872 0.88976 0.0
C244 C 0.72709 0.5903 0.01618 0.0
C245 C 0.67439 0.65798 0.03665 0.0
C246 C 0.68445 0.65024 0.99431 0.0
C247 C 0.70979 0.61544 0.98401 0.0
C248 C 0.71853 0.60011 0.05862 0.0
C249 C 0.69255 0.6342 0.06893 0.0
H250 H 0.62381 0.49513 0.93704 0.0
H251 H 0.58676 0.48608 0.00651 0.0
H252 H 0.62833 0.48448 0.0737 0.0
H253 H 0.894 0.58479 0.00158 0.0
H254 H 0.93994 0.52086 0.99466 0.0
H255 H 0.90734 0.44877 0.99091 0.0
H256 H 0.79353 0.5569 0.1121 0.0
H257 H 0.79884 0.42438 0.08274 0.0
H258 H 0.86151 0.47224 0.19258 0.0
H259 H 0.73107 0.40538 0.05917 0.0
H260 H 0.69178 0.29757 0.98718 0.0
H261 H 0.75563 0.40017 0.92533 0.0
H262 H 0.81505 0.4566 0.90728 0.0
H263 H 0.86333 0.54497 0.81644 0.0
H264 H 0.76205 0.58117 0.89877 0.0
H265 H 0.65585 0.68561 0.04478 0.0
H266 H 0.71939 0.6104 0.95161 0.0
H267 H 0.73472 0.58355 0.08348 0.0
C268 C 0.50427 0.06824 0.29954 0.0
O269 O 0.49924 0.10671 0.31429 0.0
C270 C 0.50545 0.03117 0.32731 0.0
C271 C 0.50158 0.02913 0.37127 0.0
C272 C 0.50246 0.98882 0.39049 0.0
C273 C 0.50686 0.95185 0.36576 0.0
C274 C 0.51038 0.95651 0.32197 0.0
N275 N 0.50985 0.9953 0.30587 0.0
N276 N 0.57385 0.00552 0.24619 0.0
Co277 Co 0.51269 -0.00041 0.24813 0.0
N278 N 0.51523 0.00389 0.19037 0.0
C279 C 0.55665 0.01249 0.12938 0.0
C280 C 0.51886 0.01127 0.10559 0.0
C281 C 0.47917 0.00634 0.12581 0.0
C282 C 0.47859 0.00273 0.16983 0.0
C283 C 0.55345 0.00853 0.17326 0.0
N284 N 0.45191 0.99453 0.24042 0.0
N285 N 0.50742 0.05995 0.25718 0.0
N286 N 0.51764 0.93855 0.24866 0.0
C287 C 0.58707 0.0094 0.20511 0.0
O288 O 0.62711 0.01428 0.19491 0.0
C289 C 0.51503 0.92393 0.28929 0.0
O290 O 0.51864 0.88366 0.29855 0.0
C291 C 0.5295 0.91165 0.21436 0.0
C292 C 0.58057 0.86245 0.18507 0.0
C293 C 0.57054 0.89482 0.21329 0.0
C294 C 0.49818 0.89505 0.18771 0.0
C295 C 0.50823 0.86268 0.15912 0.0
C296 C 0.54982 0.8478 0.15703 0.0
C297 C 0.44229 0.99736 0.19839 0.0
O298 O 0.40332 0.99409 0.18444 0.0
C299 C 0.42007 0.98593 0.27154 0.0
C300 C 0.40831 0.94391 0.28016 0.0
C301 C 0.37197 0.93556 0.3042 0.0
C302 C 0.34738 0.96901 0.319 0.0
C303 C 0.35759 0.01086 0.30916 0.0
C304 C 0.39478 0.01921 0.28641 0.0
C305 C 0.50301 0.0927 0.22641 0.0
C306 C 0.46261 0.10908 0.21882 0.0
C307 C 0.45806 0.14807 0.19899 0.0
C308 C 0.49383 0.17037 0.18569 0.0
C309 C 0.53439 0.1544 0.19253 0.0
C310 C 0.53894 0.11505 0.21239 0.0
C311 C 0.6025 0.00993 0.28085 0.0
C312 C 0.6701 0.01482 0.33723 0.0
C313 C 0.65903 0.05063 0.31392 0.0
C314 C 0.62436 0.04831 0.28655 0.0
C315 C 0.61527 0.97398 0.30312 0.0
C316 C 0.64919 0.9764 0.33119 0.0
H317 H 0.49779 0.05741 0.39008 0.0
H318 H 0.49952 0.98623 0.42443 0.0
H319 H 0.50733 0.92099 0.38034 0.0
H320 H 0.587 0.01646 0.11402 0.0
H321 H 0.52032 0.01422 0.07159 0.0
H322 H 0.45024 0.00545 0.1077 0.0
H323 H 0.59372 0.90485 0.23623 0.0
H324 H 0.46574 0.90535 0.19118 0.0
H325 H 0.55714 0.82106 0.13686 0.0
H326 H 0.4262 0.91808 0.26672 0.0
H327 H 0.31928 0.96209 0.3375 0.0
H328 H 0.40266 0.05129 0.27803 0.0
H329 H 0.43499 0.09295 0.23083 0.0
H330 H 0.49003 0.201 0.17089 0.0
H331 H 0.57016 0.10338 0.21949 0.0
H332 H 0.69698 0.01607 0.3584 0.0
H333 H 0.61633 0.07534 0.26745 0.0
H334 H 0.60064 0.9438 0.29694 0.0
C335 C 0.50823 0.92804 0.70794 0.0
O336 O 0.50487 0.88759 0.69923 0.0
C337 C 0.50873 0.96056 0.67485 0.0
C338 C 0.50743 0.95577 0.63097 0.0
C339 C 0.50807 0.99274 0.60587 0.0
C340 C 0.5099 0.03321 0.62482 0.0
C341 C 0.51086 0.03541 0.66892 0.0
N342 N 0.51019 -0.00052 0.6907 0.0
N343 N 0.57381 0.00129 0.75101 0.0
Co344 Co 0.51235 0.00401 0.74836 0.0
N345 N 0.51459 0.00864 0.80614 0.0
C346 C 0.55589 0.01348 0.86739 0.0
C347 C 0.51793 0.0173 0.89084 0.0
C348 C 0.47825 0.01671 0.87032 0.0
C349 C 0.47786 0.01217 0.82638 0.0
C350 C 0.55283 0.00913 0.82355 0.0
N351 N 0.45121 0.0076 0.75547 0.0
N352 N 0.50934 0.94288 0.74856 0.0
N353 N 0.51509 0.06439 0.7388 0.0
C354 C 0.58673 0.0048 0.79213 0.0
O355 O 0.62684 0.00373 0.80283 0.0
C356 C 0.51364 0.07273 0.69644 0.0
O357 O 0.51673 0.11128 0.6814 0.0
C358 C 0.52338 0.09636 0.76958 0.0
C359 C 0.57281 0.14457 0.80295 0.0
C360 C 0.56493 0.11102 0.77539 0.0
C361 C 0.48964 0.11611 0.79065 0.0
C362 C 0.49765 0.14958 0.81853 0.0
C363 C 0.53928 0.16315 0.82482 0.0
C364 C 0.44164 0.01137 0.79758 0.0
O365 O 0.40248 0.0142 0.81136 0.0
C366 C 0.41843 0.0083 0.72423 0.0
C367 C 0.39481 0.04564 0.7191 0.0
C368 C 0.35431 0.04403 0.70134 0.0
C369 C 0.33795 0.00534 0.68787 0.0
C370 C 0.36075 0.96807 0.69285 0.0
C371 C 0.40172 0.96978 0.70949 0.0
C372 C 0.50317 0.91587 0.78424 0.0
C373 C 0.46295 0.89866 0.79195 0.0
C374 C 0.45751 0.86669 0.82182 0.0
C375 C 0.49229 0.8528 0.84503 0.0
C376 C 0.53283 0.86859 0.83664 0.0
C377 C 0.53825 0.90035 0.80627 0.0
C378 C 0.60349 0.99305 0.71774 0.0
C379 C 0.67582 0.98232 0.66793 0.0
C380 C 0.66078 0.94863 0.69212 0.0
C381 C 0.62433 0.95382 0.71674 0.0
C382 C 0.61975 0.02701 0.6941 0.0
C383 C 0.65648 0.02197 0.6696 0.0
H384 H 0.50603 0.92482 0.61655 0.0
H385 H 0.50723 0.99003 0.57183 0.0
H386 H 0.51062 0.06148 0.60569 0.0
H387 H 0.58627 0.01403 0.88297 0.0
H388 H 0.51926 0.02081 0.92479 0.0
H389 H 0.44919 0.01984 0.88815 0.0
H390 H 0.59077 0.097 0.75797 0.0
H391 H 0.45748 0.10591 0.78485 0.0
H392 H 0.54552 0.18978 0.8455 0.0
H393 H 0.4064 0.075 0.73231 0.0
H394 H 0.30611 0.00393 0.67523 0.0
H395 H 0.41871 0.9408 0.7145 0.0
H396 H 0.4363 0.90833 0.77322 0.0
H397 H 0.48846 0.82662 0.8668 0.0
H398 H 0.5697 0.91134 0.79829 0.0
H399 H 0.70536 0.97855 0.65083 0.0
H400 H 0.61402 0.92861 0.73742 0.0
H401 H 0.60559 0.05788 0.69706 0.0
H402 H 0.0858 0.37285 0.37112 0.0
H403 H 0.11188 0.2677 0.28875 0.0
H404 H 0.12893 0.41865 0.32602 0.0
H405 H 0.1554 0.31329 0.24378 0.0
H406 H 0.23991 0.42059 0.18065 0.0
H407 H 0.21899 0.37011 0.23572 0.0
H408 H 0.09939 0.43377 0.24924 0.0
H409 H 0.11904 0.48267 0.19346 0.0
C410 C 0.10281 0.35909 0.34477 0.0
C411 C 0.09576 0.31697 0.33325 0.0
C412 C 0.12702 0.3853 0.3187 0.0
C413 C 0.1447 0.36951 0.2811 0.0
C414 C 0.14213 0.32613 0.27261 0.0
C415 C 0.11753 0.30003 0.29844 0.0
C416 C 0.20885 0.42331 0.19485 0.0
C417 C 0.18131 0.45604 0.18299 0.0
C418 C 0.19721 0.39478 0.22668 0.0
C419 C 0.15822 0.39904 0.24753 0.0
C420 C 0.13025 0.43073 0.23463 0.0
C421 C 0.14147 0.4586 0.20254 0.0
H422 H 0.09538 0.53185 0.86289 0.0
H423 H 0.21701 0.5789 0.82261 0.0
H424 H 0.06062 0.57875 0.81271 0.0
H425 H 0.18236 0.62549 0.77159 0.0
H426 H 0.09702 0.62724 0.64496 0.0
H427 H 0.14 0.60243 0.70441 0.0
H428 H 0.05031 0.65627 0.79205 0.0
H429 H 0.00798 0.6813 0.73317 0.0
C430 C 0.11442 0.5535 0.84436 0.0
C431 C 0.15858 0.55236 0.84667 0.0
C432 C 0.09472 0.58014 0.81556 0.0
C433 C 0.11897 0.6054 0.78812 0.0
C434 C 0.1631 0.60612 0.79228 0.0
C435 C 0.18279 0.57998 0.8217 0.0
C436 C 0.08713 0.63439 0.67694 0.0
C437 C 0.0487 0.65496 0.6846 0.0
C438 C 0.11169 0.62047 0.71087 0.0
C439 C 0.09803 0.62711 0.7527 0.0
C440 C 0.06115 0.65028 0.76012 0.0
C441 C 0.03688 0.66428 0.72644 0.0
H442 H 0.80857 0.51577 0.23836 0.0
H443 H 0.86366 0.5971 0.14382 0.0
H444 H 0.82777 0.56609 0.29338 0.0
H445 H 0.88432 0.64709 0.19887 0.0
H446 H 0.9162 0.73593 0.29914 0.0
H447 H 0.86786 0.69665 0.25348 0.0
H448 H 0.89376 0.58328 0.32461 0.0
H449 H 0.94073 0.62316 0.37064 0.0
C450 C 0.82453 0.54474 0.22942 0.0
C451 C 0.83541 0.55235 0.18705 0.0
C452 C 0.83558 0.57351 0.26091 0.0
C453 C 0.85816 0.6104 0.25079 0.0
C454 C 0.86657 0.61925 0.20791 0.0
C455 C 0.85506 0.59056 0.1763 0.0
C456 C 0.90963 0.70309 0.30614 0.0
C457 C 0.93163 0.68245 0.33844 0.0
C458 C 0.8826 0.6804 0.27961 0.0
C459 C 0.87759 0.63659 0.2847 0.0
C460 C 0.89651 0.61699 0.31979 0.0
C461 C 0.92332 0.63979 0.34643 0.0
H462 H 0.81235 0.42982 0.82029 0.0
H463 H 0.92857 0.49524 0.84857 0.0
H464 H 0.84717 0.3933 0.76169 0.0
H465 H 0.96379 0.45827 0.79079 0.0
H466 H 0.99377 0.44273 0.65347 0.0
H467 H 0.95505 0.46911 0.71468 0.0
H468 H 0.90289 0.34473 0.73592 0.0
H469 H 0.9414 0.31852 0.6742 0.0
C470 C 0.84588 0.43476 0.81519 0.0
C471 C 0.86794 0.46519 0.83876 0.0
C472 C 0.8657 0.41426 0.78139 0.0
C473 C 0.90782 0.42397 0.77085 0.0
C474 C 0.93092 0.45114 0.79736 0.0
C475 C 0.9111 0.47168 0.83091 0.0
C476 C 0.97316 0.42137 0.67062 0.0
C477 C 0.97053 0.37868 0.65914 0.0
C478 C 0.95153 0.43621 0.70603 0.0
C479 C 0.92696 0.40864 0.73086 0.0
C480 C 0.9218 0.36663 0.71757 0.0
C481 C 0.94346 0.35176 0.68199 0.0
H482 H 0.27188 0.0094 0.30263 0.0
H483 H 0.37534 0.08935 0.34187 0.0
H484 H 0.22196 0.05689 0.3354 0.0
H485 H 0.32487 0.13913 0.37227 0.0
H486 H 0.23591 0.16444 0.48494 0.0
H487 H 0.28574 0.13666 0.43439 0.0
H488 H 0.18467 0.11952 0.34422 0.0
H489 H 0.13386 0.14485 0.39678 0.0
C490 C 0.2839 0.03769 0.31769 0.0
C491 C 0.32764 0.0448 0.32119 0.0
C492 C 0.25509 0.06547 0.33588 0.0
C493 C 0.26923 0.10158 0.35744 0.0
C494 C 0.31287 0.11095 0.35705 0.0
C495 C 0.34185 0.08269 0.33928 0.0
C496 C 0.22413 0.15442 0.45444 0.0
C497 C 0.18065 0.15518 0.44548 0.0
C498 C 0.25302 0.13934 0.42491 0.0
C499 C 0.23941 0.12525 0.38514 0.0
C500 C 0.19623 0.12916 0.3749 0.0
C501 C 0.16708 0.14389 0.40485 0.0
H502 H 0.4267 0.81645 0.76012 0.0
H503 H 0.4032 0.85761 0.88779 0.0
H504 H 0.37819 0.75682 0.77042 0.0
H505 H 0.35382 0.79905 0.89778 0.0
H506 H 0.27179 0.69293 0.91494 0.0
H507 H 0.28626 0.7555 0.87205 0.0
H508 H 0.40099 0.69783 0.82626 0.0
H509 H 0.38705 0.63604 0.87012 0.0
C510 C 0.40938 0.81393 0.78958 0.0
C511 C 0.41843 0.84133 0.82327 0.0
C512 C 0.38181 0.77984 0.79546 0.0
C513 C 0.36235 0.77339 0.83482 0.0
C514 C 0.36794 0.80362 0.8669 0.0
C515 C 0.39621 0.83707 0.86134 0.0
C516 C 0.2987 0.69268 0.89368 0.0
C517 C 0.32841 0.65993 0.89564 0.0
C518 C 0.30711 0.72856 0.86943 0.0
C519 C 0.34491 0.73159 0.8463 0.0
C520 C 0.37143 0.69616 0.84355 0.0
C521 C 0.36345 0.66068 0.86848 0.0
H522 H 0.64934 0.95254 0.41313 0.0
H523 H 0.69567 0.91813 0.28975 0.0
H524 H 0.70007 0.90477 0.44559 0.0
H525 H 0.74719 0.87047 0.32211 0.0
H526 H 0.87193 0.87096 0.40964 0.0
H527 H 0.8116 0.89232 0.36608 0.0
H528 H 0.72634 0.83044 0.45316 0.0
H529 H 0.7863 0.80942 0.49638 0.0
C530 C 0.6692 0.93322 0.39303 0.0
C531 C 0.66856 0.93841 0.34917 0.0
C532 C 0.69837 0.90604 0.41146 0.0
C533 C 0.72783 0.88423 0.38629 0.0
C534 C 0.72501 0.88713 0.34216 0.0
C535 C 0.69531 0.91389 0.32369 0.0
C536 C 0.84034 0.86115 0.41868 0.0
C537 C 0.83346 0.83957 0.45667 0.0
C538 C 0.80588 0.8731 0.39378 0.0
C539 C 0.76428 0.86342 0.40665 0.0
C540 C 0.75797 0.8388 0.44286 0.0
C541 C 0.79222 0.82692 0.46757 0.0
H542 H 0.76663 0.27605 0.93484 0.0
H543 H 0.67307 0.35948 0.88283 0.0
H544 H 0.74727 0.22175 0.88354 0.0
H545 H 0.65275 0.30515 0.83206 0.0
H546 H 0.60909 0.20326 0.75244 0.0
H547 H 0.66321 0.25392 0.77484 0.0
H548 H 0.68178 0.18175 0.88898 0.0
H549 H 0.62819 0.13153 0.86616 0.0
C550 C 0.74312 0.28326 0.91114 0.0
C551 C 0.72109 0.32161 0.91262 0.0
C552 C 0.73181 0.25215 0.88202 0.0
C553 C 0.69793 0.25876 0.85425 0.0
C554 C 0.67919 0.29903 0.85276 0.0
C555 C 0.6907 0.33025 0.88183 0.0
C556 C 0.62652 0.19728 0.78119 0.0
C557 C 0.61494 0.16365 0.80762 0.0
C558 C 0.65709 0.22645 0.79426 0.0
C559 C 0.67636 0.22229 0.83397 0.0
C560 C 0.66795 0.18583 0.85804 0.0
C561 C 0.63729 0.1569 0.84505 0.0
H562 H 0.24079 0.75107 0.57622 0.0
H563 H 0.14992 0.84975 0.59832 0.0
H564 H 0.28999 0.78497 0.62502 0.0
H565 H 0.19902 0.884 0.64705 0.0
H566 H 0.29141 0.94016 0.73421 0.0
H567 H 0.24291 0.88455 0.71146 0.0
H568 H 0.32965 0.85124 0.61128 0.0
H569 H 0.37827 0.90684 0.63456 0.0
C570 C 0.23073 0.7791 0.59304 0.0
C571 C 0.19177 0.79802 0.58358 0.0
C572 C 0.25904 0.79873 0.62054 0.0
C573 C 0.24878 0.83755 0.63922 0.0
C574 C 0.20786 0.854 0.63329 0.0
C575 C 0.17955 0.83436 0.60558 0.0
C576 C 0.30056 0.91996 0.70813 0.0
C577 C 0.33822 0.92779 0.68576 0.0
C578 C 0.27274 0.88837 0.695 0.0
C579 C 0.28209 0.86393 0.65924 0.0
C580 C 0.32162 0.86935 0.63916 0.0
C581 C 0.34952 0.90112 0.65236 0.0
H582 H 0.59511 0.80688 0.2476 0.0
H583 H 0.64807 0.85638 0.13227 0.0
H584 H 0.63787 0.74311 0.23979 0.0
H585 H 0.69178 0.79351 0.12502 0.0
H586 H 0.75616 0.67732 0.1054 0.0
H587 H 0.74533 0.7362 0.15419 0.0
H588 H 0.61664 0.69515 0.17439 0.0
H589 H 0.62723 0.63735 0.12466 0.0
C590 C 0.61797 0.80525 0.2221 0.0
C591 C 0.61853 0.83629 0.19048 0.0
C592 C 0.64221 0.76871 0.21754 0.0
C593 C 0.66784 0.76328 0.1817 0.0
C594 C 0.67264 0.79703 0.15322 0.0
C595 C 0.64773 0.83311 0.15731 0.0
C596 C 0.72643 0.67946 0.12236 0.0
C597 C 0.69241 0.65307 0.11142 0.0
C598 C 0.72019 0.7133 0.15001 0.0
C599 C 0.68007 0.72046 0.16762 0.0
C600 C 0.64801 0.6902 0.16153 0.0
C601 C 0.65401 0.65695 0.13319 0.0
H602 H 0.67654 0.0968 0.70829 0.0
H603 H 0.6914 0.02821 0.59134 0.0
H604 H 0.73108 0.14723 0.68533 0.0
H605 H 0.74615 0.07774 0.56905 0.0
H606 H 0.87376 0.13203 0.56162 0.0
H607 H 0.82164 0.08985 0.60031 0.0
H608 H 0.74705 0.2015 0.62252 0.0
H609 H 0.79926 0.24355 0.58351 0.0
C610 C 0.69054 0.09321 0.67724 0.0
C611 C 0.67998 0.0584 0.65166 0.0
C612 C 0.72209 0.12169 0.66442 0.0
C613 C 0.74373 0.1154 0.62614 0.0
C614 C 0.73087 0.08249 0.59934 0.0
C615 C 0.69919 0.05448 0.61183 0.0
C616 C 0.84745 0.14782 0.57681 0.0
C617 C 0.84057 0.19093 0.57009 0.0
C618 C 0.81727 0.12368 0.59827 0.0
C619 C 0.77992 0.1424 0.61345 0.0
C620 C 0.77551 0.18637 0.61105 0.0
C621 C 0.80558 0.21047 0.58922 0.0
H622 H 0.42541 0.20638 0.25178 0.0
H623 H 0.40049 0.13805 0.13683 0.0
H624 H 0.37109 0.25791 0.23341 0.0
H625 H 0.34667 0.18945 0.11787 0.0
H626 H 0.26488 0.2877 0.07715 0.0
H627 H 0.28209 0.23197 0.12761 0.0
H628 H 0.3839 0.30908 0.17619 0.0
H629 H 0.36621 0.36441 0.12601 0.0
C630 C 0.40679 0.20147 0.22354 0.0
C631 C 0.41679 0.16869 0.1955 0.0
C632 C 0.37596 0.23096 0.21292 0.0
C633 C 0.35509 0.22814 0.17394 0.0
C634 C 0.36187 0.1924 0.14832 0.0
C635 C 0.39273 0.16295 0.15898 0.0
C636 C 0.28946 0.29333 0.10024 0.0
C637 C 0.31439 0.32994 0.09807 0.0
C638 C 0.29949 0.26144 0.12884 0.0
C639 C 0.33473 0.26583 0.15538 0.0
C640 C 0.35634 0.30476 0.15645 0.0
C641 C 0.34636 0.33653 0.12774 0.0
H642 H 0.90645 0.73927 0.67223 0.0
H643 H 0.88975 0.61047 0.63182 0.0
H644 H 0.85393 0.72857 0.72814 0.0
H645 H 0.83688 0.59977 0.68686 0.0
H646 H 0.75705 0.57639 0.79339 0.0
H647 H 0.7701 0.61682 0.72886 0.0
H648 H 0.87424 0.68035 0.78987 0.0
H649 H 0.86144 0.63939 0.85379 0.0
C650 C 0.88954 0.70951 0.67363 0.0
C651 C 0.90202 0.67562 0.64786 0.0
C652 C 0.85982 0.70325 0.70591 0.0
C653 C 0.84178 0.66316 0.71237 0.0
C654 C 0.84996 0.63112 0.68264 0.0
C655 C 0.88012 0.63721 0.65087 0.0
C656 C 0.781 0.6009 0.79372 0.0
C657 C 0.80814 0.60506 0.8285 0.0
C658 C 0.78876 0.62372 0.75665 0.0
C659 C 0.82351 0.65136 0.75407 0.0
C660 C 0.84699 0.65959 0.79088 0.0
C661 C 0.8396 0.63631 0.82768 0.0
H662 H 0.90553 0.31305 0.34256 0.0
H663 H 0.98344 0.2505 0.24986 0.0
H664 H 0.85907 0.33791 0.28659 0.0
H665 H 0.93666 0.27458 0.19378 0.0
H666 H 0.90875 0.4056 0.12741 0.0
H667 H 0.93541 0.34787 0.17031 0.0
H668 H 0.81139 0.33122 0.22564 0.0
H669 H 0.78503 0.38953 0.18237 0.0
C670 C 0.91154 0.30302 0.31039 0.0
C671 C 0.94843 0.28075 0.30029 0.0
C672 C 0.88493 0.31719 0.27822 0.0
C673 C 0.89481 0.30905 0.23557 0.0
C674 C 0.92876 0.28214 0.22621 0.0
C675 C 0.95541 0.26821 0.25828 0.0
C676 C 0.88688 0.38818 0.14728 0.0
C677 C 0.84498 0.4015 0.15157 0.0
C678 C 0.90201 0.35509 0.17194 0.0
C679 C 0.87556 0.33513 0.20177 0.0
C680 C 0.83257 0.34618 0.20324 0.0
C681 C 0.81739 0.37917 0.17826 0.0
H682 H 0.10796 0.27721 0.6679 0.0
H683 H 0.13486 0.4043 0.62728 0.0
H684 H 0.15655 0.28605 0.72723 0.0
H685 H 0.18407 0.41294 0.68573 0.0
H686 H 0.26046 0.43011 0.79691 0.0
H687 H 0.24781 0.39027 0.73185 0.0
H688 H 0.13354 0.33874 0.7863 0.0
H689 H 0.14586 0.37931 0.85065 0.0
C690 C 0.12622 0.30611 0.67022 0.0
C691 C 0.11765 0.34024 0.64332 0.0
C692 C 0.15376 0.31125 0.70433 0.0
C693 C 0.17362 0.35032 0.7114 0.0
C694 C 0.16944 0.38235 0.68098 0.0
C695 C 0.14135 0.37747 0.6474 0.0
C696 C 0.23395 0.40841 0.79567 0.0
C697 C 0.20417 0.40743 0.82862 0.0
C698 C 0.22657 0.38589 0.75839 0.0
C699 C 0.18959 0.36167 0.75391 0.0
C700 C 0.16258 0.35674 0.78897 0.0
C701 C 0.16958 0.37986 0.8259 0.0
H702 H 0.04687 0.74897 0.25861 0.0
H703 H 0.1218 0.67999 0.34838 0.0
H704 H 0.09638 0.7304 0.20237 0.0
H705 H 0.17055 0.65975 0.29216 0.0
H706 H 0.24895 0.61447 0.19007 0.0
H707 H 0.22075 0.66965 0.23626 0.0
H708 H 0.1021 0.66367 0.16906 0.0
H709 H 0.13095 0.60972 0.12288 0.0
C710 C 0.07467 0.73072 0.26637 0.0
C711 C 0.0804 0.71531 0.30749 0.0
C712 C 0.10289 0.71987 0.2342 0.0
C713 C 0.13696 0.69273 0.2424 0.0
C714 C 0.14487 0.68088 0.28455 0.0
C715 C 0.11688 0.69226 0.31687 0.0
C716 C 0.21771 0.62689 0.18391 0.0
C717 C 0.19206 0.60833 0.15294 0.0
C718 C 0.20129 0.65796 0.21072 0.0
C719 C 0.15884 0.67056 0.20707 0.0
C720 C 0.13499 0.65519 0.17281 0.0
C721 C 0.15147 0.62427 0.14608 0.0
H722 H 0.66275 0.87812 0.64335 0.0
H723 H 0.72471 0.94008 0.74735 0.0
H724 H 0.72601 0.83587 0.63072 0.0
H725 H 0.78852 0.89859 0.73427 0.0
H726 H 0.84349 0.77069 0.60471 0.0
H727 H 0.78714 0.7853 0.65579 0.0
H728 H 0.82963 0.91461 0.66423 0.0
H729 H 0.88492 0.90011 0.61243 0.0
C730 C 0.68905 0.88081 0.66502 0.0
C731 C 0.68892 0.91192 0.69648 0.0
C732 C 0.72539 0.8568 0.65777 0.0
C733 C 0.76234 0.86428 0.68133 0.0
C734 C 0.76051 0.89219 0.71573 0.0
C735 C 0.72393 0.91565 0.7234 0.0
C736 C 0.84219 0.80155 0.61944 0.0
C737 C 0.86845 0.83435 0.6049 0.0
C738 C 0.80972 0.80998 0.64831 0.0
C739 C 0.80372 0.85116 0.66357 0.0
C740 C 0.83367 0.88247 0.65329 0.0
C741 C 0.86555 0.87423 0.6238 0.0
H742 H 0.7425 0.27984 0.0618 0.0
H743 H 0.64004 0.36799 0.076 0.0
H744 H 0.70883 0.2323 0.11255 0.0
H745 H 0.6053 0.32013 0.12572 0.0
H746 H 0.55138 0.23338 0.22073 0.0
H747 H 0.60219 0.28361 0.19143 0.0
H748 H 0.64883 0.18668 0.10733 0.0
H749 H 0.59871 0.13629 0.13789 0.0
C750 C 0.71323 0.28941 0.07681 0.0
C751 C 0.69373 0.32741 0.06528 0.0
C752 C 0.69369 0.26204 0.10544 0.0
C753 C 0.65397 0.27192 0.12276 0.0
C754 C 0.63604 0.31153 0.11339 0.0
C755 C 0.65583 0.33907 0.08494 0.0
C756 C 0.57336 0.22269 0.19672 0.0
C757 C 0.57108 0.18119 0.18122 0.0
C758 C 0.6022 0.25151 0.17969 0.0
C759 C 0.62916 0.23954 0.14646 0.0
C760 C 0.62884 0.19704 0.1331 0.0
C761 C 0.60013 0.16807 0.15048 0.0
H762 H 0.28357 0.05451 0.74792 0.0
H763 H 0.35899 0.11342 0.6508 0.0
H764 H 0.22324 0.09821 0.7284 0.0
H765 H 0.29876 0.15754 0.6313 0.0
H766 H 0.18454 0.22862 0.59709 0.0
H767 H 0.23843 0.21057 0.64942 0.0
H768 H 0.18727 0.0843 0.65706 0.0
H769 H 0.13444 0.1022 0.60415 0.0
C770 C 0.28775 0.0784 0.72379 0.0
C771 C 0.32566 0.08067 0.70064 0.0
C772 C 0.25321 0.10318 0.7125 0.0
C773 C 0.25615 0.13082 0.67804 0.0
C774 C 0.29567 0.1367 0.65823 0.0
C775 C 0.33022 0.11157 0.66936 0.0
C776 C 0.18364 0.19771 0.61168 0.0
C777 C 0.1554 0.16673 0.59698 0.0
C778 C 0.21467 0.1873 0.64123 0.0
C779 C 0.21726 0.146 0.657 0.0
C780 C 0.18583 0.11653 0.64579 0.0
C781 C 0.15542 0.1267 0.61566 0.0
H782 H 0.43752 0.65141 0.0157 0.0
H783 H 0.31689 0.68068 0.07217 0.0
H784 H 0.47005 0.70955 0.0544 0.0
H785 H 0.34918 0.73961 0.11052 0.0
H786 H 0.4409 0.82258 0.19482 0.0
H787 H 0.40136 0.76375 0.16377 0.0
H788 H 0.46388 0.78582 0.0443 0.0
H789 H 0.50372 0.84388 0.07564 0.0
C790 C 0.41831 0.66958 0.03745 0.0
C791 C 0.37482 0.66166 0.04104 0.0
C792 C 0.43667 0.70331 0.05903 0.0
C793 C 0.41185 0.73001 0.08443 0.0
C794 C 0.36904 0.71979 0.09095 0.0
C795 C 0.35065 0.68582 0.06938 0.0
C796 C 0.44491 0.81574 0.16153 0.0
C797 C 0.47529 0.83763 0.13752 0.0
C798 C 0.42264 0.7818 0.14388 0.0
C799 C 0.4305 0.76935 0.10198 0.0
C800 C 0.45814 0.79379 0.07708 0.0
C801 C 0.4804 0.82748 0.09471 0.0
H802 H 0.76543 0.24071 0.45137 0.0
H803 H 0.87352 0.20225 0.37763 0.0
H804 H 0.7185 0.20999 0.39972 0.0
H805 H 0.82635 0.17378 0.32368 0.0
H806 H 0.74458 0.05254 0.30941 0.0
H807 H 0.79097 0.11005 0.32803 0.0
H808 H 0.68329 0.19343 0.33791 0.0
H809 H 0.6363 0.1341 0.32156 0.0
C810 C 0.77908 0.22703 0.42309 0.0
C811 C 0.82305 0.22213 0.41936 0.0
C812 C 0.75206 0.20973 0.393 0.0
C813 C 0.76847 0.1877 0.35808 0.0
C814 C 0.81256 0.18894 0.35107 0.0
C815 C 0.8397 0.20572 0.3817 0.0
C816 C 0.73079 0.08326 0.31524 0.0
C817 C 0.68673 0.08846 0.31582 0.0
C818 C 0.75758 0.11672 0.32518 0.0
C819 C 0.74108 0.15659 0.3355 0.0
C820 C 0.69713 0.16292 0.33135 0.0
C821 C 0.67015 0.12906 0.32173 0.0
H822 H 0.42002 0.34556 0.97663 0.0
H823 H 0.30065 0.3203 0.91619 0.0
H824 H 0.45401 0.29285 0.93197 0.0
H825 H 0.33463 0.26675 0.87144 0.0
H826 H 0.43493 0.19527 0.78141 0.0
H827 H 0.3928 0.25073 0.81574 0.0
H828 H 0.44391 0.21439 0.93657 0.0
H829 H 0.48591 0.15976 0.90231 0.0
C830 C 0.40143 0.32957 0.95276 0.0
C831 C 0.35787 0.33676 0.94976 0.0
C832 C 0.42065 0.29903 0.92763 0.0
C833 C 0.39663 0.27485 0.89917 0.0
C834 C 0.35377 0.28474 0.89335 0.0
C835 C 0.33445 0.31554 0.91862 0.0
C836 C 0.43585 0.19838 0.81546 0.0
C837 C 0.46355 0.17351 0.83939 0.0
C838 C 0.41211 0.23026 0.835 0.0
C839 C 0.4161 0.23759 0.87859 0.0
C840 C 0.44115 0.21021 0.90273 0.0
C841 C 0.46471 0.1786 0.88332 0.0
H842 H 0.1627 0.82556 0.39606 0.0
H843 H 0.25447 0.7445 0.45475 0.0
H844 H 0.2158 0.84824 0.34468 0.0
H845 H 0.30746 0.76602 0.40281 0.0
H846 H 0.3911 0.88563 0.37042 0.0
H847 H 0.34395 0.83248 0.40009 0.0
H848 H 0.26641 0.83844 0.28814 0.0
H849 H 0.31368 0.89241 0.2591 0.0
C850 C 0.19378 0.81132 0.39678 0.0
C851 C 0.20481 0.78389 0.42957 0.0
C852 C 0.2243 0.82417 0.36731 0.0
C853 C 0.26627 0.80952 0.37007 0.0
C854 C 0.27578 0.77859 0.40031 0.0
C855 C 0.24542 0.76608 0.42988 0.0
C856 C 0.3653 0.87378 0.3513 0.0
C857 C 0.3561 0.89263 0.31247 0.0
C858 C 0.33799 0.84344 0.3683 0.0
C859 C 0.30082 0.83166 0.3468 0.0
C860 C 0.29432 0.8473 0.3058 0.0
C861 C 0.32171 0.87764 0.28884 0.0
H862 H 0.64159 0.64255 0.91929 0.0
H863 H 0.7052 0.73277 0.99925 0.0
H864 H 0.61504 0.70075 0.87554 0.0
H865 H 0.67888 0.79048 0.95602 0.0
H866 H 0.5563 0.8663 0.91872 0.0
H867 H 0.603 0.81455 0.95128 0.0
H868 H 0.63404 0.76465 0.82812 0.0
H869 H 0.58752 0.81721 0.79558 0.0
C870 C 0.65065 0.67467 0.92681 0.0
C871 C 0.67454 0.68338 0.96301 0.0
C872 C 0.63564 0.70792 0.90184 0.0
C873 C 0.64447 0.75014 0.91285 0.0
C874 C 0.67105 0.75835 0.94722 0.0
C875 C 0.68602 0.72535 0.97192 0.0
C876 C 0.57446 0.84534 0.89866 0.0
C877 C 0.56903 0.84595 0.85481 0.0
C878 C 0.60101 0.81561 0.91716 0.0
C879 C 0.62197 0.78543 0.89216 0.0
C880 C 0.6181 0.78742 0.84805 0.0
C881 C 0.59203 0.81772 0.82948 0.0
loop_
_geom_bond_atom_site_label_1
_geom_bond_atom_site_label_2
_geom_bond_distance
_geom_bond_site_symmetry_2
_ccdc_geom_bond_type
C0 O1 1.201 . S
C0 C2 1.493 . S
C0 N17 1.318 . S
O1 C0 1.201 . S
C2 C0 1.493 . S
C2 C3 1.381 . S
C2 N7 1.335 1_655 S
C3 C2 1.381 . S
C3 C4 1.411 1_655 S
C3 H49 0.931 . S
C4 C3 1.411 1_455 S
C4 C5 1.384 . S
C4 H50 0.930 . S
C5 C4 1.384 . S
C5 C6 1.376 . S
C5 H51 0.929 . S
C6 C5 1.376 . S
C6 N7 1.330 . S
C6 C21 1.484 . S
N7 C2 1.335 1_455 S
N7 C6 1.330 . S
N7 Co9 1.859 . S
N8 Co9 1.962 . S
N8 C19 1.318 . S
N8 C43 1.421 . S
Co9 N7 1.859 . S
Co9 N8 1.962 . S
Co9 N10 1.859 . S
Co9 N16 1.958 . S
Co9 N17 1.962 1_455 S
Co9 N18 1.958 . S
N10 Co9 1.859 . S
N10 C14 1.330 . S
N10 C15 1.335 . S
C11 C12 1.411 . S
C11 C15 1.381 . S
C11 H52 0.931 . S
C12 C11 1.411 . S
C12 C13 1.384 . S
C12 H53 0.930 . S
C13 C12 1.384 . S
C13 C14 1.376 . S
C13 H54 0.929 . S
C14 N10 1.330 . S
C14 C13 1.376 . S
C14 C29 1.484 . S
C15 N10 1.335 . S
C15 C11 1.381 . S
C15 C19 1.493 . S
N16 Co9 1.958 . S
N16 C29 1.344 . S
N16 C31 1.425 . S
N17 C0 1.318 . S
N17 Co9 1.962 1_655 S
N17 C37 1.421 . S
N18 Co9 1.958 . S
N18 C21 1.344 . S
N18 C23 1.425 . S
C19 N8 1.318 . S
C19 C15 1.493 . S
C19 O20 1.201 . S
O20 C19 1.201 . S
C21 C6 1.484 . S
C21 N18 1.344 . S
C21 O22 1.268 . S
O22 C21 1.268 . S
C23 N18 1.425 . S
C23 C25 1.392 . S
C23 C26 1.368 . S
C24 C25 1.382 . S
C24 C28 1.386 . S
C25 C23 1.392 . S
C25 C24 1.382 . S
C25 H55 0.928 . S
C26 C23 1.368 . S
C26 C27 1.367 . S
C26 H56 0.930 . S
C27 C26 1.367 . S
C27 C28 1.369 . S
C28 C24 1.386 . S
C28 C27 1.369 . S
C28 H57 0.930 . S
C29 C14 1.484 . S
C29 N16 1.344 . S
C29 O30 1.268 . S
O30 C29 1.268 . S
C31 N16 1.425 . S
C31 C32 1.368 . S
C31 C36 1.392 1_455 S
C32 C31 1.368 . S
C32 C33 1.367 . S
C32 H58 0.930 . S
C33 C32 1.367 . S
C33 C34 1.369 . S
C34 C33 1.369 . S
C34 C35 1.386 1_455 S
C34 H59 0.930 . S
C35 C34 1.386 1_655 S
C35 C36 1.382 . S
C36 C31 1.392 1_655 S
C36 C35 1.382 . S
C36 H60 0.928 . S
C37 N17 1.421 . S
C37 C38 1.371 . S
C37 C42 1.385 . S
C38 C37 1.371 . S
C38 C39 1.367 . S
C38 H61 0.931 . S
C39 C38 1.367 . S
C39 C40 1.401 . S
C40 C39 1.401 . S
C40 C41 1.385 . S
C40 H62 0.930 . S
C41 C40 1.385 . S
C41 C42 1.402 . S
C42 C37 1.385 . S
C42 C41 1.402 . S
C42 H63 0.929 . S
C43 N8 1.421 . S
C43 C46 1.385 1_455 S
C43 C47 1.371 . S
C44 C45 1.385 1_455 S
C44 C48 1.401 . S
C44 H64 0.930 . S
C45 C44 1.385 1_655 S
C45 C46 1.402 . S
C46 C43 1.385 1_655 S
C46 C45 1.402 . S
C46 H65 0.929 . S
C47 C43 1.371 . S
C47 C48 1.367 . S
C47 H66 0.931 . S
C48 C44 1.401 . S
C48 C47 1.367 . S
H49 C3 0.931 . S
H50 C4 0.930 . S
H51 C5 0.929 . S
H52 C11 0.931 . S
H53 C12 0.930 . S
H54 C13 0.929 . S
H55 C25 0.928 . S
H56 C26 0.930 . S
H57 C28 0.930 . S
H58 C32 0.930 . S
H59 C34 0.930 . S
H60 C36 0.928 . S
H61 C38 0.931 . S
H62 C40 0.930 . S
H63 C42 0.929 . S
H64 C44 0.930 . S
H65 C46 0.929 . S
H66 C47 0.931 . S
C67 O68 1.201 . S
C67 C69 1.493 . S
C67 N84 1.318 . S
O68 C67 1.201 . S
C69 C67 1.493 . S
C69 C70 1.381 . S
C69 N74 1.335 1_556 S
C70 C69 1.381 . S
C70 C71 1.411 1_556 S
C70 H116 0.931 . S
C71 C70 1.411 1_554 S
C71 C72 1.384 . S
C71 H117 0.930 . S
C72 C71 1.384 . S
C72 C73 1.376 . S
C72 H118 0.929 . S
C73 C72 1.376 . S
C73 N74 1.330 . S
C73 C88 1.484 . S
N74 C69 1.335 1_554 S
N74 C73 1.330 . S
N74 Co76 1.859 . S
N75 Co76 1.962 . S
N75 C86 1.318 . S
N75 C110 1.421 . S
Co76 N74 1.859 . S
Co76 N75 1.962 . S
Co76 N77 1.859 . S
Co76 N83 1.958 . S
Co76 N84 1.962 1_554 S
Co76 N85 1.958 . S
N77 Co76 1.859 . S
N77 C81 1.330 . S
N77 C82 1.335 . S
C78 C79 1.411 . S
C78 C82 1.381 . S
C78 H119 0.931 . S
C79 C78 1.411 . S
C79 C80 1.384 . S
C79 H120 0.930 . S
C80 C79 1.384 . S
C80 C81 1.376 . S
C80 H121 0.929 . S
C81 N77 1.330 . S
C81 C80 1.376 . S
C81 C96 1.484 . S
C82 N77 1.335 . S
C82 C78 1.381 . S
C82 C86 1.493 . S
N83 Co76 1.958 . S
N83 C96 1.344 . S
N83 C98 1.425 . S
N84 C67 1.318 . S
N84 Co76 1.962 1_556 S
N84 C104 1.421 . S
N85 Co76 1.958 . S
N85 C88 1.344 . S
N85 C90 1.425 . S
C86 N75 1.318 . S
C86 C82 1.493 . S
C86 O87 1.201 . S
O87 C86 1.201 . S
C88 C73 1.484 . S
C88 N85 1.344 . S
C88 O89 1.268 . S
O89 C88 1.268 . S
C90 N85 1.425 . S
C90 C92 1.392 . S
C90 C93 1.368 . S
C91 C92 1.382 . S
C91 C95 1.386 . S
C92 C90 1.392 . S
C92 C91 1.382 . S
C92 H122 0.928 . S
C93 C90 1.368 . S
C93 C94 1.367 . S
C93 H123 0.930 . S
C94 C93 1.367 . S
C94 C95 1.369 . S
C95 C91 1.386 . S
C95 C94 1.369 . S
C95 H124 0.930 . S
C96 C81 1.484 . S
C96 N83 1.344 . S
C96 O97 1.268 . S
O97 C96 1.268 . S
C98 N83 1.425 . S
C98 C99 1.368 . S
C98 C103 1.392 1_554 S
C99 C98 1.368 . S
C99 C100 1.367 . S
C99 H125 0.930 . S
C100 C99 1.367 . S
C100 C101 1.369 1_554 S
C101 C100 1.369 1_556 S
C101 C102 1.386 . S
C101 H126 0.930 . S
C102 C101 1.386 . S
C102 C103 1.382 . S
C103 C98 1.392 1_556 S
C103 C102 1.382 . S
C103 H127 0.928 . S
C104 N84 1.421 . S
C104 C105 1.371 . S
C104 C109 1.385 . S
C105 C104 1.371 . S
C105 C106 1.367 . S
C105 H128 0.931 . S
C106 C105 1.367 . S
C106 C107 1.401 . S
C107 C106 1.401 . S
C107 C108 1.385 . S
C107 H129 0.930 . S
C108 C107 1.385 . S
C108 C109 1.402 . S
C109 C104 1.385 . S
C109 C108 1.402 . S
C109 H130 0.929 . S
C110 N75 1.421 . S
C110 C113 1.385 1_554 S
C110 C114 1.371 . S
C111 C112 1.385 1_554 S
C111 C115 1.401 . S
C111 H131 0.930 . S
C112 C111 1.385 1_556 S
C112 C113 1.402 . S
C113 C110 1.385 1_556 S
C113 C112 1.402 . S
C113 H132 0.929 . S
C114 C110 1.371 . S
C114 C115 1.367 . S
C114 H133 0.931 . S
C115 C111 1.401 . S
C115 C114 1.367 . S
H116 C70 0.931 . S
H117 C71 0.930 . S
H118 C72 0.929 . S
H119 C78 0.931 . S
H120 C79 0.930 . S
H121 C80 0.929 . S
H122 C92 0.928 . S
H123 C93 0.930 . S
H124 C95 0.930 . S
H125 C99 0.930 . S
H126 C101 0.930 . S
H127 C103 0.928 . S
H128 C105 0.931 . S
H129 C107 0.930 . S
H130 C109 0.929 . S
H131 C111 0.930 . S
H132 C113 0.929 . S
H133 C114 0.931 . S
C134 O135 1.201 . S
C134 C136 1.493 . S
C134 N151 1.318 . S
O135 C134 1.201 . S
C136 C134 1.493 . S
C136 C137 1.381 . S
C136 N141 1.335 . S
C137 C136 1.381 . S
C137 C138 1.411 1_455 S
C137 H183 0.931 . S
C138 C137 1.411 1_655 S
C138 C139 1.384 . S
C138 H184 0.930 . S
C139 C138 1.384 . S
C139 C140 1.376 . S
C139 H185 0.929 . S
C140 C139 1.376 . S
C140 N141 1.330 1_655 S
C140 C155 1.484 . S
N141 C136 1.335 . S
N141 C140 1.330 1_455 S
N141 Co143 1.859 . S
N142 Co143 1.962 . S
N142 C153 1.318 1_455 S
N142 C177 1.421 . S
Co143 N141 1.859 . S
Co143 N142 1.962 . S
Co143 N144 1.859 . S
Co143 N150 1.958 . S
Co143 N151 1.962 . S
Co143 N152 1.958 1_455 S
N144 Co143 1.859 . S
N144 C148 1.330 1_455 S
N144 C149 1.335 1_455 S
C145 C146 1.411 . S
C145 C149 1.381 . S
C145 H186 0.931 . S
C146 C145 1.411 . S
C146 C147 1.384 . S
C146 H187 0.930 . S
C147 C146 1.384 . S
C147 C148 1.376 . S
C147 H188 0.929 . S
C148 N144 1.330 1_655 S
C148 C147 1.376 . S
C148 C163 1.483 1_655 S
C149 N144 1.335 1_655 S
C149 C145 1.381 . S
C149 C153 1.493 . S
N150 Co143 1.958 . S
N150 C163 1.346 . S
N150 C165 1.425 . S
N151 C134 1.318 . S
N151 Co143 1.962 . S
N151 C171 1.421 . S
N152 Co143 1.958 1_655 S
N152 C155 1.344 . S
N152 C157 1.425 . S
C153 N142 1.318 1_655 S
C153 C149 1.493 . S
C153 O154 1.201 . S
O154 C153 1.201 . S
C155 C140 1.484 . S
C155 N152 1.344 . S
C155 O156 1.268 . S
O156 C155 1.268 . S
C157 N152 1.425 . S
C157 C159 1.392 . S
C157 C160 1.368 . S
C158 C159 1.382 . S
C158 C162 1.386 . S
C159 C157 1.392 . S
C159 C158 1.382 . S
C159 H189 0.928 . S
C160 C157 1.368 . S
C160 C161 1.367 . S
C160 H190 0.930 . S
C161 C160 1.367 . S
C161 C162 1.369 . S
C162 C158 1.386 . S
C162 C161 1.369 . S
C162 H191 0.930 . S
C163 C148 1.483 1_455 S
C163 N150 1.346 . S
C163 O164 1.268 1_455 S
O164 C163 1.268 1_655 S
C165 N150 1.425 . S
C165 C166 1.368 1_455 S
C165 C170 1.392 . S
C166 C165 1.368 1_655 S
C166 C167 1.367 . S
C166 H192 0.930 . S
C167 C166 1.367 . S
C167 C168 1.369 1_655 S
C168 C167 1.369 1_455 S
C168 C169 1.386 . S
C168 H193 0.930 . S
C169 C168 1.386 . S
C169 C170 1.382 . S
C170 C165 1.392 . S
C170 C169 1.382 . S
C170 H194 0.928 . S
C171 N151 1.421 . S
C171 C172 1.371 . S
C171 C176 1.385 . S
C172 C171 1.371 . S
C172 C173 1.367 . S
C172 H195 0.931 . S
C173 C172 1.367 . S
C173 C174 1.401 . S
C174 C173 1.401 . S
C174 C175 1.385 . S
C174 H196 0.930 . S
C175 C174 1.385 . S
C175 C176 1.402 . S
C176 C171 1.385 . S
C176 C175 1.402 . S
C176 H197 0.929 . S
C177 N142 1.421 . S
C177 C180 1.385 . S
C177 C181 1.371 1_455 S
C178 C179 1.385 . S
C178 C182 1.401 1_455 S
C178 H198 0.930 . S
C179 C178 1.385 . S
C179 C180 1.402 . S
C180 C177 1.385 . S
C180 C179 1.402 . S
C180 H199 0.929 . S
C181 C177 1.371 1_655 S
C181 C182 1.367 . S
C181 H200 0.931 . S
C182 C178 1.401 1_655 S
C182 C181 1.367 . S
H183 C137 0.931 . S
H184 C138 0.930 . S
H185 C139 0.929 . S
H186 C145 0.931 . S
H187 C146 0.930 . S
H188 C147 0.929 . S
H189 C159 0.928 . S
H190 C160 0.930 . S
H191 C162 0.930 . S
H192 C166 0.930 . S
H193 C168 0.930 . S
H194 C170 0.928 . S
H195 C172 0.931 . S
H196 C174 0.930 . S
H197 C176 0.929 . S
H198 C178 0.930 . S
H199 C180 0.929 . S
H200 C181 0.931 . S
C201 O202 1.201 . S
C201 C203 1.493 . S
C201 N218 1.318 . S
O202 C201 1.201 . S
C203 C201 1.493 . S
C203 C204 1.381 . S
C203 N208 1.335 1_556 S
C204 C203 1.381 . S
C204 C205 1.411 1_556 S
C204 H250 0.931 . S
C205 C204 1.411 1_554 S
C205 C206 1.384 . S
C205 H251 0.930 . S
C206 C205 1.384 . S
C206 C207 1.376 . S
C206 H252 0.929 . S
C207 C206 1.376 . S
C207 N208 1.330 . S
C207 C222 1.484 . S
N208 C203 1.335 1_554 S
N208 C207 1.330 . S
N208 Co210 1.859 . S
N209 Co210 1.962 . S
N209 C220 1.318 . S
N209 C244 1.421 . S
Co210 N208 1.859 . S
Co210 N209 1.962 . S
Co210 N211 1.859 . S
Co210 N217 1.958 . S
Co210 N218 1.962 1_554 S
Co210 N219 1.958 . S
N211 Co210 1.859 . S
N211 C215 1.330 . S
N211 C216 1.335 . S
C212 C213 1.411 . S
C212 C216 1.381 . S
C212 H253 0.931 . S
C213 C212 1.411 . S
C213 C214 1.384 . S
C213 H254 0.930 . S
C214 C213 1.384 . S
C214 C215 1.376 . S
C214 H255 0.929 . S
C215 N211 1.330 . S
C215 C214 1.376 . S
C215 C230 1.484 . S
C216 N211 1.335 . S
C216 C212 1.381 . S
C216 C220 1.493 . S
N217 Co210 1.958 . S
N217 C230 1.344 . S
N217 C232 1.425 . S
N218 C201 1.318 . S
N218 Co210 1.962 1_556 S
N218 C238 1.421 . S
N219 Co210 1.958 . S
N219 C222 1.344 . S
N219 C224 1.425 . S
C220 N209 1.318 . S
C220 C216 1.493 . S
C220 O221 1.201 . S
O221 C220 1.201 . S
C222 C207 1.484 . S
C222 N219 1.344 . S
C222 O223 1.268 . S
O223 C222 1.268 . S
C224 N219 1.425 . S
C224 C226 1.392 . S
C224 C227 1.368 . S
C225 C226 1.382 . S
C225 C229 1.386 . S
C226 C224 1.392 . S
C226 C225 1.382 . S
C226 H256 0.928 . S
C227 C224 1.368 . S
C227 C228 1.367 . S
C227 H257 0.930 . S
C228 C227 1.367 . S
C228 C229 1.369 . S
C229 C225 1.386 . S
C229 C228 1.369 . S
C229 H258 0.930 . S
C230 C215 1.484 . S
C230 N217 1.344 . S
C230 O231 1.268 . S
O231 C230 1.268 . S
C232 N217 1.425 . S
C232 C233 1.368 . S
C232 C237 1.392 1_554 S
C233 C232 1.368 . S
C233 C234 1.367 . S
C233 H259 0.930 . S
C234 C233 1.367 . S
C234 C235 1.369 1_554 S
C235 C234 1.369 1_556 S
C235 C236 1.386 . S
C235 H260 0.930 . S
C236 C235 1.386 . S
C236 C237 1.382 . S
C237 C232 1.392 1_556 S
C237 C236 1.382 . S
C237 H261 0.928 . S
C238 N218 1.421 . S
C238 C239 1.371 . S
C238 C243 1.385 . S
C239 C238 1.371 . S
C239 C240 1.367 . S
C239 H262 0.931 . S
C240 C239 1.367 . S
C240 C241 1.401 . S
C241 C240 1.401 . S
C241 C242 1.385 . S
C241 H263 0.930 . S
C242 C241 1.385 . S
C242 C243 1.402 . S
C243 C238 1.385 . S
C243 C242 1.402 . S
C243 H264 0.929 . S
C244 N209 1.421 . S
C244 C247 1.385 1_554 S
C244 C248 1.371 . S
C245 C246 1.385 1_554 S
C245 C249 1.401 . S
C245 H265 0.930 . S
C246 C245 1.385 1_556 S
C246 C247 1.402 . S
C247 C244 1.385 1_556 S
C247 C246 1.402 . S
C247 H266 0.929 . S
C248 C244 1.371 . S
C248 C249 1.367 . S
C248 H267 0.931 . S
C249 C245 1.401 . S
C249 C248 1.367 . S
H250 C204 0.931 . S
H251 C205 0.930 . S
H252 C206 0.929 . S
H253 C212 0.931 . S
H254 C213 0.930 . S
H255 C214 0.929 . S
H256 C226 0.928 . S
H257 C227 0.930 . S
H258 C229 0.930 . S
H259 C233 0.930 . S
H260 C235 0.930 . S
H261 C237 0.928 . S
H262 C239 0.931 . S
H263 C241 0.930 . S
H264 C243 0.929 . S
H265 C245 0.930 . S
H266 C247 0.929 . S
H267 C248 0.931 . S
C268 O269 1.201 . S
C268 C270 1.493 . S
C268 N285 1.318 . S
O269 C268 1.201 . S
C270 C268 1.493 . S
C270 C271 1.381 . S
C270 N275 1.335 1_545 S
C271 C270 1.381 . S
C271 C272 1.411 1_545 S
C271 H317 0.931 . S
C272 C271 1.411 1_565 S
C272 C273 1.384 . S
C272 H318 0.930 . S
C273 C272 1.384 . S
C273 C274 1.376 . S
C273 H319 0.929 . S
C274 C273 1.376 . S
C274 N275 1.330 . S
C274 C289 1.484 . S
N275 C270 1.335 1_565 S
N275 C274 1.330 . S
N275 Co277 1.859 . S
N276 Co277 1.962 . S
N276 C287 1.318 . S
N276 C311 1.421 . S
Co277 N275 1.859 . S
Co277 N276 1.962 . S
Co277 N278 1.859 . S
Co277 N284 1.958 . S
Co277 N285 1.962 1_565 S
Co277 N286 1.958 . S
N278 Co277 1.859 . S
N278 C282 1.330 . S
N278 C283 1.335 . S
C279 C280 1.411 . S
C279 C283 1.381 . S
C279 H320 0.931 . S
C280 C279 1.411 . S
C280 C281 1.384 . S
C280 H321 0.930 . S
C281 C280 1.384 . S
C281 C282 1.376 . S
C281 H322 0.929 . S
C282 N278 1.330 . S
C282 C281 1.376 . S
C282 C297 1.484 . S
C283 N278 1.335 . S
C283 C279 1.381 . S
C283 C287 1.493 . S
N284 Co277 1.958 . S
N284 C297 1.344 . S
N284 C299 1.426 . S
N285 C268 1.318 . S
N285 Co277 1.962 1_545 S
N285 C305 1.421 . S
N286 Co277 1.958 . S
N286 C289 1.344 . S
N286 C291 1.425 . S
C287 N276 1.318 . S
C287 C283 1.493 . S
C287 O288 1.201 . S
O288 C287 1.201 . S
C289 C274 1.484 . S
C289 N286 1.344 . S
C289 O290 1.268 . S
O290 C289 1.268 . S
C291 N286 1.425 . S
C291 C293 1.392 . S
C291 C294 1.368 . S
C292 C293 1.382 . S
C292 C296 1.386 . S
C293 C291 1.392 . S
C293 C292 1.382 . S
C293 H323 0.928 . S
C294 C291 1.368 . S
C294 C295 1.367 . S
C294 H324 0.930 . S
C295 C294 1.367 . S
C295 C296 1.369 . S
C296 C292 1.386 . S
C296 C295 1.369 . S
C296 H325 0.930 . S
C297 C282 1.484 . S
C297 N284 1.344 . S
C297 O298 1.268 . S
O298 C297 1.268 . S
C299 N284 1.426 . S
C299 C300 1.380 . S
C299 C304 1.378 1_565 S
C300 C299 1.380 . S
C300 C301 1.367 . S
C300 H326 0.930 . S
C301 C300 1.367 . S
C301 C302 1.369 1_565 S
C302 C301 1.369 1_545 S
C302 C303 1.386 . S
C302 H327 0.930 . S
C303 C302 1.386 . S
C303 C304 1.382 . S
C304 C299 1.378 1_545 S
C304 C303 1.382 . S
C304 H328 0.928 . S
C305 N285 1.421 . S
C305 C306 1.371 . S
C305 C310 1.385 . S
C306 C305 1.371 . S
C306 C307 1.367 . S
C306 H329 0.931 . S
C307 C306 1.367 . S
C307 C308 1.401 . S
C308 C307 1.401 . S
C308 C309 1.385 . S
C308 H330 0.930 . S
C309 C308 1.385 . S
C309 C310 1.402 . S
C310 C305 1.385 . S
C310 C309 1.402 . S
C310 H331 0.929 . S
C311 N276 1.421 . S
C311 C314 1.385 1_565 S
C311 C315 1.371 . S
C312 C313 1.385 1_565 S
C312 C316 1.401 . S
C312 H332 0.930 . S
C313 C312 1.385 1_545 S
C313 C314 1.402 . S
C314 C311 1.385 1_545 S
C314 C313 1.402 . S
C314 H333 0.929 . S
C315 C311 1.371 . S
C315 C316 1.367 . S
C315 H334 0.931 . S
C316 C312 1.401 . S
C316 C315 1.367 . S
H317 C271 0.931 . S
H318 C272 0.930 . S
H319 C273 0.929 . S
H320 C279 0.931 . S
H321 C280 0.930 . S
H322 C281 0.929 . S
H323 C293 0.928 . S
H324 C294 0.930 . S
H325 C296 0.930 . S
H326 C300 0.930 . S
H327 C302 0.930 . S
H328 C304 0.928 . S
H329 C306 0.931 . S
H330 C308 0.930 . S
H331 C310 0.929 . S
H332 C312 0.930 . S
H333 C314 0.929 . S
H334 C315 0.931 . S
C335 O336 1.201 . S
C335 C337 1.493 . S
C335 N352 1.318 . S
O336 C335 1.201 . S
C337 C335 1.493 . S
C337 C338 1.381 . S
C337 N342 1.335 1_565 S
C338 C337 1.381 . S
C338 C339 1.411 1_565 S
C338 H384 0.931 . S
C339 C338 1.411 1_545 S
C339 C340 1.384 . S
C339 H385 0.930 . S
C340 C339 1.384 . S
C340 C341 1.376 . S
C340 H386 0.929 . S
C341 C340 1.376 . S
C341 N342 1.330 . S
C341 C356 1.484 . S
N342 C337 1.335 1_545 S
N342 C341 1.330 . S
N342 Co344 1.859 . S
N343 Co344 1.962 . S
N343 C354 1.318 . S
N343 C378 1.421 . S
Co344 N342 1.859 . S
Co344 N343 1.962 . S
Co344 N345 1.859 . S
Co344 N351 1.958 . S
Co344 N352 1.962 1_545 S
Co344 N353 1.958 . S
N345 Co344 1.859 . S
N345 C349 1.330 . S
N345 C350 1.335 . S
C346 C347 1.411 . S
C346 C350 1.381 . S
C346 H387 0.931 . S
C347 C346 1.411 . S
C347 C348 1.384 . S
C347 H388 0.930 . S
C348 C347 1.384 . S
C348 C349 1.376 . S
C348 H389 0.929 . S
C349 N345 1.330 . S
C349 C348 1.376 . S
C349 C364 1.484 . S
C350 N345 1.335 . S
C350 C346 1.381 . S
C350 C354 1.493 . S
N351 Co344 1.958 . S
N351 C364 1.344 . S
N351 C366 1.425 . S
N352 C335 1.318 . S
N352 Co344 1.962 1_565 S
N352 C372 1.421 . S
N353 Co344 1.958 . S
N353 C356 1.344 . S
N353 C358 1.425 . S
C354 N343 1.318 . S
C354 C350 1.493 . S
C354 O355 1.201 . S
O355 C354 1.201 . S
C356 C341 1.484 . S
C356 N353 1.344 . S
C356 O357 1.268 . S
O357 C356 1.268 . S
C358 N353 1.425 . S
C358 C360 1.392 . S
C358 C361 1.368 . S
C359 C360 1.382 . S
C359 C363 1.386 . S
C360 C358 1.392 . S
C360 C359 1.382 . S
C360 H390 0.928 . S
C361 C358 1.368 . S
C361 C362 1.367 . S
C361 H391 0.930 . S
C362 C361 1.367 . S
C362 C363 1.369 . S
C363 C359 1.386 . S
C363 C362 1.369 . S
C363 H392 0.930 . S
C364 C349 1.484 . S
C364 N351 1.344 . S
C364 O365 1.268 . S
O365 C364 1.268 . S
C366 N351 1.425 . S
C366 C367 1.368 . S
C366 C371 1.392 1_545 S
C367 C366 1.368 . S
C367 C368 1.367 . S
C367 H393 0.930 . S
C368 C367 1.367 . S
C368 C369 1.356 1_545 S
C369 C368 1.356 1_565 S
C369 C370 1.398 . S
C369 H394 0.931 . S
C370 C369 1.398 . S
C370 C371 1.382 . S
C371 C366 1.392 1_565 S
C371 C370 1.382 . S
C371 H395 0.928 . S
C372 N352 1.421 . S
C372 C373 1.371 . S
C372 C377 1.385 . S
C373 C372 1.371 . S
C373 C374 1.367 . S
C373 H396 0.931 . S
C374 C373 1.367 . S
C374 C375 1.401 . S
C375 C374 1.401 . S
C375 C376 1.385 . S
C375 H397 0.930 . S
C376 C375 1.385 . S
C376 C377 1.402 . S
C377 C372 1.385 . S
C377 C376 1.402 . S
C377 H398 0.929 . S
C378 N343 1.421 . S
C378 C381 1.385 1_545 S
C378 C382 1.371 . S
C379 C380 1.385 1_545 S
C379 C383 1.401 . S
C379 H399 0.930 . S
C380 C379 1.385 1_565 S
C380 C381 1.402 . S
C381 C378 1.385 1_565 S
C381 C380 1.402 . S
C381 H400 0.929 . S
C382 C378 1.371 . S
C382 C383 1.367 . S
C382 H401 0.931 . S
C383 C379 1.401 . S
C383 C382 1.367 . S
H384 C338 0.931 . S
H385 C339 0.930 . S
H386 C340 0.929 . S
H387 C346 0.931 . S
H388 C347 0.930 . S
H389 C348 0.929 . S
H390 C360 0.928 . S
H391 C361 0.930 . S
H392 C363 0.930 . S
H393 C367 0.930 . S
H394 C369 0.931 . S
H395 C371 0.928 . S
H396 C373 0.931 . S
H397 C375 0.930 . S
H398 C377 0.929 . S
H399 C379 0.930 . S
H400 C381 0.929 . S
H401 C382 0.931 . S
H402 C410 0.950 . S
H403 C415 0.950 . S
H404 C412 0.950 . S
H405 C414 0.950 . S
H406 C416 0.950 . S
H407 C418 0.950 . S
H408 C420 0.950 . S
H409 C421 0.950 . S
C410 H402 0.950 . S
C410 C411 1.386 . S
C410 C412 1.391 . S
C411 C410 1.386 . S
C411 C415 1.393 . S
C412 H404 0.950 . S
C412 C410 1.391 . S
C412 C413 1.400 . S
C413 C412 1.400 . S
C413 C414 1.398 . S
C413 C419 1.491 . S
C414 H405 0.950 . S
C414 C413 1.398 . S
C414 C415 1.391 . S
C415 H403 0.950 . S
C415 C411 1.393 . S
C415 C414 1.391 . S
C416 H406 0.950 . S
C416 C417 1.386 . S
C416 C418 1.391 . S
C417 C416 1.386 . S
C417 C421 1.393 . S
C418 H407 0.950 . S
C418 C416 1.391 . S
C418 C419 1.400 . S
C419 C413 1.491 . S
C419 C418 1.400 . S
C419 C420 1.398 . S
C420 H408 0.950 . S
C420 C419 1.398 . S
C420 C421 1.391 . S
C421 H409 0.950 . S
C421 C417 1.393 . S
C421 C420 1.391 . S
H422 C430 0.950 . S
H423 C435 0.950 . S
H424 C432 0.950 . S
H425 C434 0.950 . S
H426 C436 0.950 . S
H427 C438 0.950 . S
H428 C440 0.950 . S
H429 C441 0.950 . S
C430 H422 0.950 . S
C430 C431 1.386 . S
C430 C432 1.391 . S
C431 C430 1.386 . S
C431 C435 1.393 . S
C432 H424 0.950 . S
C432 C430 1.391 . S
C432 C433 1.400 . S
C433 C432 1.400 . S
C433 C434 1.398 . S
C433 C439 1.491 . S
C434 H425 0.950 . S
C434 C433 1.398 . S
C434 C435 1.391 . S
C435 H423 0.950 . S
C435 C431 1.393 . S
C435 C434 1.391 . S
C436 H426 0.950 . S
C436 C437 1.386 . S
C436 C438 1.391 . S
C437 C436 1.386 . S
C437 C441 1.393 . S
C438 H427 0.950 . S
C438 C436 1.391 . S
C438 C439 1.400 . S
C439 C433 1.491 . S
C439 C438 1.400 . S
C439 C440 1.398 . S
C440 H428 0.950 . S
C440 C439 1.398 . S
C440 C441 1.391 . S
C441 H429 0.950 . S
C441 C437 1.393 . S
C441 C440 1.391 . S
H442 C450 0.950 . S
H443 C455 0.950 . S
H444 C452 0.950 . S
H445 C454 0.950 . S
H446 C456 0.950 . S
H447 C458 0.950 . S
H448 C460 0.950 . S
H449 C461 0.950 . S
C450 H442 0.950 . S
C450 C451 1.386 . S
C450 C452 1.391 . S
C451 C450 1.386 . S
C451 C455 1.393 . S
C452 H444 0.950 . S
C452 C450 1.391 . S
C452 C453 1.400 . S
C453 C452 1.400 . S
C453 C454 1.398 . S
C453 C459 1.491 . S
C454 H445 0.950 . S
C454 C453 1.398 . S
C454 C455 1.391 . S
C455 H443 0.950 . S
C455 C451 1.393 . S
C455 C454 1.391 . S
C456 H446 0.950 . S
C456 C457 1.386 . S
C456 C458 1.391 . S
C457 C456 1.386 . S
C457 C461 1.393 . S
C458 H447 0.950 . S
C458 C456 1.391 . S
C458 C459 1.400 . S
C459 C453 1.491 . S
C459 C458 1.400 . S
C459 C460 1.398 . S
C460 H448 0.950 . S
C460 C459 1.398 . S
C460 C461 1.391 . S
C461 H449 0.950 . S
C461 C457 1.393 . S
C461 C460 1.391 . S
H462 C470 0.950 . S
H463 C475 0.950 . S
H464 C472 0.950 . S
H465 C474 0.950 . S
H466 C476 0.950 . S
H467 C478 0.950 . S
H468 C480 0.950 . S
H469 C481 0.950 . S
C470 H462 0.950 . S
C470 C471 1.386 . S
C470 C472 1.391 . S
C471 C470 1.386 . S
C471 C475 1.393 . S
C472 H464 0.950 . S
C472 C470 1.391 . S
C472 C473 1.400 . S
C473 C472 1.400 . S
C473 C474 1.398 . S
C473 C479 1.491 . S
C474 H465 0.950 . S
C474 C473 1.398 . S
C474 C475 1.391 . S
C475 H463 0.950 . S
C475 C471 1.393 . S
C475 C474 1.391 . S
C476 H466 0.950 . S
C476 C477 1.386 . S
C476 C478 1.391 . S
C477 C476 1.386 . S
C477 C481 1.393 . S
C478 H467 0.950 . S
C478 C476 1.391 . S
C478 C479 1.400 . S
C479 C473 1.491 . S
C479 C478 1.400 . S
C479 C480 1.398 . S
C480 H468 0.950 . S
C480 C479 1.398 . S
C480 C481 1.391 . S
C481 H469 0.950 . S
C481 C477 1.393 . S
C481 C480 1.391 . S
H482 C490 0.950 . S
H483 C495 0.950 . S
H484 C492 0.950 . S
H485 C494 0.950 . S
H486 C496 0.950 . S
H487 C498 0.950 . S
H488 C500 0.950 . S
H489 C501 0.950 . S
C490 H482 0.950 . S
C490 C491 1.386 . S
C490 C492 1.391 . S
C491 C490 1.386 . S
C491 C495 1.393 . S
C492 H484 0.950 . S
C492 C490 1.391 . S
C492 C493 1.400 . S
C493 C492 1.400 . S
C493 C494 1.398 . S
C493 C499 1.491 . S
C494 H485 0.950 . S
C494 C493 1.398 . S
C494 C495 1.391 . S
C495 H483 0.950 . S
C495 C491 1.393 . S
C495 C494 1.391 . S
C496 H486 0.950 . S
C496 C497 1.386 . S
C496 C498 1.391 . S
C497 C496 1.386 . S
C497 C501 1.393 . S
C498 H487 0.950 . S
C498 C496 1.391 . S
C498 C499 1.400 . S
C499 C493 1.491 . S
C499 C498 1.400 . S
C499 C500 1.398 . S
C500 H488 0.950 . S
C500 C499 1.398 . S
C500 C501 1.391 . S
C501 H489 0.950 . S
C501 C497 1.393 . S
C501 C500 1.391 . S
H502 C510 0.950 . S
H503 C515 0.950 . S
H504 C512 0.950 . S
H505 C514 0.950 . S
H506 C516 0.950 . S
H507 C518 0.950 . S
H508 C520 0.950 . S
H509 C521 0.950 . S
C510 H502 0.950 . S
C510 C511 1.386 . S
C510 C512 1.391 . S
C511 C510 1.386 . S
C511 C515 1.393 . S
C512 H504 0.950 . S
C512 C510 1.391 . S
C512 C513 1.400 . S
C513 C512 1.400 . S
C513 C514 1.398 . S
C513 C519 1.491 . S
C514 H505 0.950 . S
C514 C513 1.398 . S
C514 C515 1.391 . S
C515 H503 0.950 . S
C515 C511 1.393 . S
C515 C514 1.391 . S
C516 H506 0.950 . S
C516 C517 1.386 . S
C516 C518 1.391 . S
C517 C516 1.386 . S
C517 C521 1.393 . S
C518 H507 0.950 . S
C518 C516 1.391 . S
C518 C519 1.400 . S
C519 C513 1.491 . S
C519 C518 1.400 . S
C519 C520 1.398 . S
C520 H508 0.950 . S
C520 C519 1.398 . S
C520 C521 1.391 . S
C521 H509 0.950 . S
C521 C517 1.393 . S
C521 C520 1.391 . S
H522 C530 0.950 . S
H523 C535 0.950 . S
H524 C532 0.950 . S
H525 C534 0.950 . S
H526 C536 0.950 . S
H527 C538 0.950 . S
H528 C540 0.950 . S
H529 C541 0.950 . S
C530 H522 0.950 . S
C530 C531 1.386 . S
C530 C532 1.391 . S
C531 C530 1.386 . S
C531 C535 1.393 . S
C532 H524 0.950 . S
C532 C530 1.391 . S
C532 C533 1.400 . S
C533 C532 1.400 . S
C533 C534 1.398 . S
C533 C539 1.491 . S
C534 H525 0.950 . S
C534 C533 1.398 . S
C534 C535 1.391 . S
C535 H523 0.950 . S
C535 C531 1.393 . S
C535 C534 1.391 . S
C536 H526 0.950 . S
C536 C537 1.386 . S
C536 C538 1.391 . S
C537 C536 1.386 . S
C537 C541 1.393 . S
C538 H527 0.950 . S
C538 C536 1.391 . S
C538 C539 1.400 . S
C539 C533 1.491 . S
C539 C538 1.400 . S
C539 C540 1.398 . S
C540 H528 0.950 . S
C540 C539 1.398 . S
C540 C541 1.391 . S
C541 H529 0.950 . S
C541 C537 1.393 . S
C541 C540 1.391 . S
H542 C550 0.950 . S
H543 C555 0.950 . S
H544 C552 0.950 . S
H545 C554 0.950 . S
H546 C556 0.950 . S
H547 C558 0.950 . S
H548 C560 0.950 . S
H549 C561 0.950 . S
C550 H542 0.950 . S
C550 C551 1.386 . S
C550 C552 1.391 . S
C551 C550 1.386 . S
C551 C555 1.393 . S
C552 H544 0.950 . S
C552 C550 1.391 . S
C552 C553 1.400 . S
C553 C552 1.400 . S
C553 C554 1.398 . S
C553 C559 1.491 . S
C554 H545 0.950 . S
C554 C553 1.398 . S
C554 C555 1.391 . S
C555 H543 0.950 . S
C555 C551 1.393 . S
C555 C554 1.391 . S
C556 H546 0.950 . S
C556 C557 1.386 . S
C556 C558 1.391 . S
C557 C556 1.386 . S
C557 C561 1.393 . S
C558 H547 0.950 . S
C558 C556 1.391 . S
C558 C559 1.400 . S
C559 C553 1.491 . S
C559 C558 1.400 . S
C559 C560 1.398 . S
C560 H548 0.950 . S
C560 C559 1.398 . S
C560 C561 1.391 . S
C561 H549 0.950 . S
C561 C557 1.393 . S
C561 C560 1.391 . S
H562 C570 0.950 . S
H563 C575 0.950 . S
H564 C572 0.950 . S
H565 C574 0.950 . S
H566 C576 0.950 . S
H567 C578 0.950 . S
H568 C580 0.950 . S
H569 C581 0.950 . S
C570 H562 0.950 . S
C570 C571 1.386 . S
C570 C572 1.391 . S
C571 C570 1.386 . S
C571 C575 1.393 . S
C572 H564 0.950 . S
C572 C570 1.391 . S
C572 C573 1.400 . S
C573 C572 1.400 . S
C573 C574 1.398 . S
C573 C579 1.491 . S
C574 H565 0.950 . S
C574 C573 1.398 . S
C574 C575 1.391 . S
C575 H563 0.950 . S
C575 C571 1.393 . S
C575 C574 1.391 . S
C576 H566 0.950 . S
C576 C577 1.386 . S
C576 C578 1.391 . S
C577 C576 1.386 . S
C577 C581 1.393 . S
C578 H567 0.950 . S
C578 C576 1.391 . S
C578 C579 1.400 . S
C579 C573 1.491 . S
C579 C578 1.400 . S
C579 C580 1.398 . S
C580 H568 0.950 . S
C580 C579 1.398 . S
C580 C581 1.391 . S
C581 H569 0.950 . S
C581 C577 1.393 . S
C581 C580 1.391 . S
H582 C590 0.950 . S
H583 C595 0.950 . S
H584 C592 0.950 . S
H585 C594 0.950 . S
H586 C596 0.950 . S
H587 C598 0.950 . S
H588 C600 0.950 . S
H589 C601 0.950 . S
C590 H582 0.950 . S
C590 C591 1.386 . S
C590 C592 1.391 . S
C591 C590 1.386 . S
C591 C595 1.393 . S
C592 H584 0.950 . S
C592 C590 1.391 . S
C592 C593 1.400 . S
C593 C592 1.400 . S
C593 C594 1.398 . S
C593 C599 1.491 . S
C594 H585 0.950 . S
C594 C593 1.398 . S
C594 C595 1.391 . S
C595 H583 0.950 . S
C595 C591 1.393 . S
C595 C594 1.391 . S
C596 H586 0.950 . S
C596 C597 1.386 . S
C596 C598 1.391 . S
C597 C596 1.386 . S
C597 C601 1.393 . S
C598 H587 0.950 . S
C598 C596 1.391 . S
C598 C599 1.400 . S
C599 C593 1.491 . S
C599 C598 1.400 . S
C599 C600 1.398 . S
C600 H588 0.950 . S
C600 C599 1.398 . S
C600 C601 1.391 . S
C601 H589 0.950 . S
C601 C597 1.393 . S
C601 C600 1.391 . S
H602 C610 0.950 . S
H603 C615 0.950 . S
H604 C612 0.950 . S
H605 C614 0.950 . S
H606 C616 0.950 . S
H607 C618 0.950 . S
H608 C620 0.950 . S
H609 C621 0.950 . S
C610 H602 0.950 . S
C610 C611 1.386 . S
C610 C612 1.391 . S
C611 C610 1.386 . S
C611 C615 1.393 . S
C612 H604 0.950 . S
C612 C610 1.391 . S
C612 C613 1.400 . S
C613 C612 1.400 . S
C613 C614 1.398 . S
C613 C619 1.491 . S
C614 H605 0.950 . S
C614 C613 1.398 . S
C614 C615 1.391 . S
C615 H603 0.950 . S
C615 C611 1.393 . S
C615 C614 1.391 . S
C616 H606 0.950 . S
C616 C617 1.386 . S
C616 C618 1.391 . S
C617 C616 1.386 . S
C617 C621 1.393 . S
C618 H607 0.950 . S
C618 C616 1.391 . S
C618 C619 1.400 . S
C619 C613 1.491 . S
C619 C618 1.400 . S
C619 C620 1.398 . S
C620 H608 0.950 . S
C620 C619 1.398 . S
C620 C621 1.391 . S
C621 H609 0.950 . S
C621 C617 1.393 . S
C621 C620 1.391 . S
H622 C630 0.950 . S
H623 C635 0.950 . S
H624 C632 0.950 . S
H625 C634 0.950 . S
H626 C636 0.950 . S
H627 C638 0.950 . S
H628 C640 0.950 . S
H629 C641 0.950 . S
C630 H622 0.950 . S
C630 C631 1.386 . S
C630 C632 1.391 . S
C631 C630 1.386 . S
C631 C635 1.393 . S
C632 H624 0.950 . S
C632 C630 1.391 . S
C632 C633 1.400 . S
C633 C632 1.400 . S
C633 C634 1.398 . S
C633 C639 1.491 . S
C634 H625 0.950 . S
C634 C633 1.398 . S
C634 C635 1.391 . S
C635 H623 0.950 . S
C635 C631 1.393 . S
C635 C634 1.391 . S
C636 H626 0.950 . S
C636 C637 1.386 . S
C636 C638 1.391 . S
C637 C636 1.386 . S
C637 C641 1.393 . S
C638 H627 0.950 . S
C638 C636 1.391 . S
C638 C639 1.400 . S
C639 C633 1.491 . S
C639 C638 1.400 . S
C639 C640 1.398 . S
C640 H628 0.950 . S
C640 C639 1.398 . S
C640 C641 1.391 . S
C641 H629 0.950 . S
C641 C637 1.393 . S
C641 C640 1.391 . S
H642 C650 0.950 . S
H643 C655 0.950 . S
H644 C652 0.950 . S
H645 C654 0.950 . S
H646 C656 0.950 . S
H647 C658 0.950 . S
H648 C660 0.950 . S
H649 C661 0.950 . S
C650 H642 0.950 . S
C650 C651 1.386 . S
C650 C652 1.391 . S
C651 C650 1.386 . S
C651 C655 1.393 . S
C652 H644 0.950 . S
C652 C650 1.391 . S
C652 C653 1.400 . S
C653 C652 1.400 . S
C653 C654 1.398 . S
C653 C659 1.491 . S
C654 H645 0.950 . S
C654 C653 1.398 . S
C654 C655 1.391 . S
C655 H643 0.950 . S
C655 C651 1.393 . S
C655 C654 1.391 . S
C656 H646 0.950 . S
C656 C657 1.386 . S
C656 C658 1.391 . S
C657 C656 1.386 . S
C657 C661 1.393 . S
C658 H647 0.950 . S
C658 C656 1.391 . S
C658 C659 1.400 . S
C659 C653 1.491 . S
C659 C658 1.400 . S
C659 C660 1.398 . S
C660 H648 0.950 . S
C660 C659 1.398 . S
C660 C661 1.391 . S
C661 H649 0.950 . S
C661 C657 1.393 . S
C661 C660 1.391 . S
H662 C670 0.950 . S
H663 C675 0.950 1_455 S
H664 C672 0.950 . S
H665 C674 0.950 . S
H666 C676 0.950 . S
H667 C678 0.950 . S
H668 C680 0.950 . S
H669 C681 0.950 . S
C670 H662 0.950 . S
C670 C671 1.386 . S
C670 C672 1.391 . S
C671 C670 1.386 . S
C671 C675 1.393 . S
C672 H664 0.950 . S
C672 C670 1.391 . S
C672 C673 1.400 . S
C673 C672 1.400 . S
C673 C674 1.398 . S
C673 C679 1.491 . S
C674 H665 0.950 . S
C674 C673 1.398 . S
C674 C675 1.391 . S
C675 H663 0.950 1_655 S
C675 C671 1.393 . S
C675 C674 1.391 . S
C676 H666 0.950 . S
C676 C677 1.386 . S
C676 C678 1.391 . S
C677 C676 1.386 . S
C677 C681 1.393 . S
C678 H667 0.950 . S
C678 C676 1.391 . S
C678 C679 1.400 . S
C679 C673 1.491 . S
C679 C678 1.400 . S
C679 C680 1.398 . S
C680 H668 0.950 . S
C680 C679 1.398 . S
C680 C681 1.391 . S
C681 H669 0.950 . S
C681 C677 1.393 . S
C681 C680 1.391 . S
H682 C690 0.950 . S
H683 C695 0.950 . S
H684 C692 0.950 . S
H685 C694 0.950 . S
H686 C696 0.950 . S
H687 C698 0.950 . S
H688 C700 0.950 . S
H689 C701 0.950 . S
C690 H682 0.950 . S
C690 C691 1.386 . S
C690 C692 1.391 . S
C691 C690 1.386 . S
C691 C695 1.393 . S
C692 H684 0.950 . S
C692 C690 1.391 . S
C692 C693 1.400 . S
C693 C692 1.400 . S
C693 C694 1.398 . S
C693 C699 1.491 . S
C694 H685 0.950 . S
C694 C693 1.398 . S
C694 C695 1.391 . S
C695 H683 0.950 . S
C695 C691 1.393 . S
C695 C694 1.391 . S
C696 H686 0.950 . S
C696 C697 1.386 . S
C696 C698 1.391 . S
C697 C696 1.386 . S
C697 C701 1.393 . S
C698 H687 0.950 . S
C698 C696 1.391 . S
C698 C699 1.400 . S
C699 C693 1.491 . S
C699 C698 1.400 . S
C699 C700 1.398 . S
C700 H688 0.950 . S
C700 C699 1.398 . S
C700 C701 1.391 . S
C701 H689 0.950 . S
C701 C697 1.393 . S
C701 C700 1.391 . S
H702 C710 0.950 . S
H703 C715 0.950 . S
H704 C712 0.950 . S
H705 C714 0.950 . S
H706 C716 0.950 . S
H707 C718 0.950 . S
H708 C720 0.950 . S
H709 C721 0.950 . S
C710 H702 0.950 . S
C710 C711 1.386 . S
C710 C712 1.391 . S
C711 C710 1.386 . S
C711 C715 1.393 . S
C712 H704 0.950 . S
C712 C710 1.391 . S
C712 C713 1.400 . S
C713 C712 1.400 . S
C713 C714 1.398 . S
C713 C719 1.491 . S
C714 H705 0.950 . S
C714 C713 1.398 . S
C714 C715 1.391 . S
C715 H703 0.950 . S
C715 C711 1.393 . S
C715 C714 1.391 . S
C716 H706 0.950 . S
C716 C717 1.386 . S
C716 C718 1.391 . S
C717 C716 1.386 . S
C717 C721 1.393 . S
C718 H707 0.950 . S
C718 C716 1.391 . S
C718 C719 1.400 . S
C719 C713 1.491 . S
C719 C718 1.400 . S
C719 C720 1.398 . S
C720 H708 0.950 . S
C720 C719 1.398 . S
C720 C721 1.391 . S
C721 H709 0.950 . S
C721 C717 1.393 . S
C721 C720 1.391 . S
H722 C730 0.950 . S
H723 C735 0.950 . S
H724 C732 0.950 . S
H725 C734 0.950 . S
H726 C736 0.950 . S
H727 C738 0.950 . S
H728 C740 0.950 . S
H729 C741 0.950 . S
C730 H722 0.950 . S
C730 C731 1.386 . S
C730 C732 1.391 . S
C731 C730 1.386 . S
C731 C735 1.393 . S
C732 H724 0.950 . S
C732 C730 1.391 . S
C732 C733 1.400 . S
C733 C732 1.400 . S
C733 C734 1.398 . S
C733 C739 1.491 . S
C734 H725 0.950 . S
C734 C733 1.398 . S
C734 C735 1.391 . S
C735 H723 0.950 . S
C735 C731 1.393 . S
C735 C734 1.391 . S
C736 H726 0.950 . S
C736 C737 1.386 . S
C736 C738 1.391 . S
C737 C736 1.386 . S
C737 C741 1.393 . S
C738 H727 0.950 . S
C738 C736 1.391 . S
C738 C739 1.400 . S
C739 C733 1.491 . S
C739 C738 1.400 . S
C739 C740 1.398 . S
C740 H728 0.950 . S
C740 C739 1.398 . S
C740 C741 1.391 . S
C741 H729 0.950 . S
C741 C737 1.393 . S
C741 C740 1.391 . S
H742 C750 0.950 . S
H743 C755 0.950 . S
H744 C752 0.950 . S
H745 C754 0.950 . S
H746 C756 0.950 . S
H747 C758 0.950 . S
H748 C760 0.950 . S
H749 C761 0.950 . S
C750 H742 0.950 . S
C750 C751 1.386 . S
C750 C752 1.391 . S
C751 C750 1.386 . S
C751 C755 1.393 . S
C752 H744 0.950 . S
C752 C750 1.391 . S
C752 C753 1.400 . S
C753 C752 1.400 . S
C753 C754 1.398 . S
C753 C759 1.491 . S
C754 H745 0.950 . S
C754 C753 1.398 . S
C754 C755 1.391 . S
C755 H743 0.950 . S
C755 C751 1.393 . S
C755 C754 1.391 . S
C756 H746 0.950 . S
C756 C757 1.386 . S
C756 C758 1.391 . S
C757 C756 1.386 . S
C757 C761 1.393 . S
C758 H747 0.950 . S
C758 C756 1.391 . S
C758 C759 1.400 . S
C759 C753 1.491 . S
C759 C758 1.400 . S
C759 C760 1.398 . S
C760 H748 0.950 . S
C760 C759 1.398 . S
C760 C761 1.391 . S
C761 H749 0.950 . S
C761 C757 1.393 . S
C761 C760 1.391 . S
H762 C770 0.950 . S
H763 C775 0.950 . S
H764 C772 0.950 . S
H765 C774 0.950 . S
H766 C776 0.950 . S
H767 C778 0.950 . S
H768 C780 0.950 . S
H769 C781 0.950 . S
C770 H762 0.950 . S
C770 C771 1.386 . S
C770 C772 1.391 . S
C771 C770 1.386 . S
C771 C775 1.393 . S
C772 H764 0.950 . S
C772 C770 1.391 . S
C772 C773 1.400 . S
C773 C772 1.400 . S
C773 C774 1.398 . S
C773 C779 1.491 . S
C774 H765 0.950 . S
C774 C773 1.398 . S
C774 C775 1.391 . S
C775 H763 0.950 . S
C775 C771 1.393 . S
C775 C774 1.391 . S
C776 H766 0.950 . S
C776 C777 1.386 . S
C776 C778 1.391 . S
C777 C776 1.386 . S
C777 C781 1.393 . S
C778 H767 0.950 . S
C778 C776 1.391 . S
C778 C779 1.400 . S
C779 C773 1.491 . S
C779 C778 1.400 . S
C779 C780 1.398 . S
C780 H768 0.950 . S
C780 C779 1.398 . S
C780 C781 1.391 . S
C781 H769 0.950 . S
C781 C777 1.393 . S
C781 C780 1.391 . S
H782 C790 0.950 . S
H783 C795 0.950 . S
H784 C792 0.950 . S
H785 C794 0.950 . S
H786 C796 0.950 . S
H787 C798 0.950 . S
H788 C800 0.950 . S
H789 C801 0.950 . S
C790 H782 0.950 . S
C790 C791 1.386 . S
C790 C792 1.391 . S
C791 C790 1.386 . S
C791 C795 1.393 . S
C792 H784 0.950 . S
C792 C790 1.391 . S
C792 C793 1.400 . S
C793 C792 1.400 . S
C793 C794 1.398 . S
C793 C799 1.491 . S
C794 H785 0.950 . S
C794 C793 1.398 . S
C794 C795 1.391 . S
C795 H783 0.950 . S
C795 C791 1.393 . S
C795 C794 1.391 . S
C796 H786 0.950 . S
C796 C797 1.386 . S
C796 C798 1.391 . S
C797 C796 1.386 . S
C797 C801 1.393 . S
C798 H787 0.950 . S
C798 C796 1.391 . S
C798 C799 1.400 . S
C799 C793 1.491 . S
C799 C798 1.400 . S
C799 C800 1.398 . S
C800 H788 0.950 . S
C800 C799 1.398 . S
C800 C801 1.391 . S
C801 H789 0.950 . S
C801 C797 1.393 . S
C801 C800 1.391 . S
H802 C810 0.950 . S
H803 C815 0.950 . S
H804 C812 0.950 . S
H805 C814 0.950 . S
H806 C816 0.950 . S
H807 C818 0.950 . S
H808 C820 0.950 . S
H809 C821 0.950 . S
C810 H802 0.950 . S
C810 C811 1.386 . S
C810 C812 1.391 . S
C811 C810 1.386 . S
C811 C815 1.393 . S
C812 H804 0.950 . S
C812 C810 1.391 . S
C812 C813 1.400 . S
C813 C812 1.400 . S
C813 C814 1.398 . S
C813 C819 1.491 . S
C814 H805 0.950 . S
C814 C813 1.398 . S
C814 C815 1.391 . S
C815 H803 0.950 . S
C815 C811 1.393 . S
C815 C814 1.391 . S
C816 H806 0.950 . S
C816 C817 1.386 . S
C816 C818 1.391 . S
C817 C816 1.386 . S
C817 C821 1.393 . S
C818 H807 0.950 . S
C818 C816 1.391 . S
C818 C819 1.400 . S
C819 C813 1.491 . S
C819 C818 1.400 . S
C819 C820 1.398 . S
C820 H808 0.950 . S
C820 C819 1.398 . S
C820 C821 1.391 . S
C821 H809 0.950 . S
C821 C817 1.393 . S
C821 C820 1.391 . S
H822 C830 0.950 . S
H823 C835 0.950 . S
H824 C832 0.950 . S
H825 C834 0.950 . S
H826 C836 0.950 . S
H827 C838 0.950 . S
H828 C840 0.950 . S
H829 C841 0.950 . S
C830 H822 0.950 . S
C830 C831 1.386 . S
C830 C832 1.391 . S
C831 C830 1.386 . S
C831 C835 1.393 . S
C832 H824 0.950 . S
C832 C830 1.391 . S
C832 C833 1.400 . S
C833 C832 1.400 . S
C833 C834 1.398 . S
C833 C839 1.491 . S
C834 H825 0.950 . S
C834 C833 1.398 . S
C834 C835 1.391 . S
C835 H823 0.950 . S
C835 C831 1.393 . S
C835 C834 1.391 . S
C836 H826 0.950 . S
C836 C837 1.386 . S
C836 C838 1.391 . S
C837 C836 1.386 . S
C837 C841 1.393 . S
C838 H827 0.950 . S
C838 C836 1.391 . S
C838 C839 1.400 . S
C839 C833 1.491 . S
C839 C838 1.400 . S
C839 C840 1.398 . S
C840 H828 0.950 . S
C840 C839 1.398 . S
C840 C841 1.391 . S
C841 H829 0.950 . S
C841 C837 1.393 . S
C841 C840 1.391 . S
H842 C850 0.950 . S
H843 C855 0.950 . S
H844 C852 0.950 . S
H845 C854 0.950 . S
H846 C856 0.950 . S
H847 C858 0.950 . S
H848 C860 0.950 . S
H849 C861 0.950 . S
C850 H842 0.950 . S
C850 C851 1.386 . S
C850 C852 1.391 . S
C851 C850 1.386 . S
C851 C855 1.393 . S
C852 H844 0.950 . S
C852 C850 1.391 . S
C852 C853 1.400 . S
C853 C852 1.400 . S
C853 C854 1.398 . S
C853 C859 1.491 . S
C854 H845 0.950 . S
C854 C853 1.398 . S
C854 C855 1.391 . S
C855 H843 0.950 . S
C855 C851 1.393 . S
C855 C854 1.391 . S
C856 H846 0.950 . S
C856 C857 1.386 . S
C856 C858 1.391 . S
C857 C856 1.386 . S
C857 C861 1.393 . S
C858 H847 0.950 . S
C858 C856 1.391 . S
C858 C859 1.400 . S
C859 C853 1.491 . S
C859 C858 1.400 . S
C859 C860 1.398 . S
C860 H848 0.950 . S
C860 C859 1.398 . S
C860 C861 1.391 . S
C861 H849 0.950 . S
C861 C857 1.393 . S
C861 C860 1.391 . S
H862 C870 0.950 . S
H863 C875 0.950 . S
H864 C872 0.950 . S
H865 C874 0.950 . S
H866 C876 0.950 . S
H867 C878 0.950 . S
H868 C880 0.950 . S
H869 C881 0.950 . S
C870 H862 0.950 . S
C870 C871 1.386 . S
C870 C872 1.391 . S
C871 C870 1.386 . S
C871 C875 1.393 . S
C872 H864 0.950 . S
C872 C870 1.391 . S
C872 C873 1.400 . S
C873 C872 1.400 . S
C873 C874 1.398 . S
C873 C879 1.491 . S
C874 H865 0.950 . S
C874 C873 1.398 . S
C874 C875 1.391 . S
C875 H863 0.950 . S
C875 C871 1.393 . S
C875 C874 1.391 . S
C876 H866 0.950 . S
C876 C877 1.386 . S
C876 C878 1.391 . S
C877 C876 1.386 . S
C877 C881 1.393 . S
C878 H867 0.950 . S
C878 C876 1.391 . S
C878 C879 1.400 . S
C879 C873 1.491 . S
C879 C878 1.400 . S
C879 C880 1.398 . S
C880 H868 0.950 . S
C880 C879 1.398 . S
C880 C881 1.391 . S
C881 H869 0.950 . S
C881 C877 1.393 . S
C881 C880 1.391 . S
C411 C48 1.230 . S
C417 C91 1.241 . S
C431 C106 1.225 . S
C437 C169 1.232 . S
C451 C225 1.352 . S
C457 C182 1.333 . S
C471 C240 1.296 . S
C477 C35 1.337 . S
C491 C303 1.031 . S
C497 C24 1.040 . S
C511 C374 1.198 . S
C517 C102 1.241 . S
C531 C316 1.224 . S
C537 C158 1.239 . S
C551 C236 1.071 . S
C557 C359 1.088 . S
C571 C173 1.279 . S
C577 C370 1.329 . S
C591 C292 1.338 . S
C597 C249 1.330 . S
C611 C383 1.494 . S
C617 C39 1.501 . S
C631 C307 1.478 . S
C637 C115 1.486 . S
C651 C167 1.281 . S
C657 C242 1.277 . S
C671 C45 1.286 . S
C677 C228 1.295 . S
C691 C33 1.387 . S
C697 C108 1.386 . S
C711 C179 1.412 . S
C717 C94 1.381 . S
C731 C380 1.244 . S
C737 C161 1.232 . S
C751 C234 1.302 . S
C757 C309 1.286 . S
C771 C368 1.225 . S
C777 C27 1.221 . S
C791 C100 1.175 . S
C797 C295 1.172 . S
C811 C41 1.462 . S
C817 C313 1.457 . S
C831 C112 1.395 . S
C837 C362 1.373 . S
C851 C175 1.421 . S
C857 C301 1.414 . S
C871 C246 1.486 . S
C877 C376 1.509 . S
