# Generated by pormake.
# Topology wna, (6)-cn, num edge types: 1
# Building blocks:
#     Node 0, Type 0, BuildingBlock: BETGAK_clean_sbu_0, # of connection points: 6
#     Node 1, Type 0, BuildingBlock: BETGAK_clean_sbu_0, # of connection points: 6
#     Node 2, Type 0, BuildingBlock: BETGAK_clean_sbu_0, # of connection points: 6
#     Node 3, Type 0, BuildingBlock: BETGAK_clean_sbu_0, # of connection points: 6
#     Node 4, Type 0, BuildingBlock: BETGAK_clean_sbu_0, # of connection points: 6
#     Node 5, Type 0, BuildingBlock: BETGAK_clean_sbu_0, # of connection points: 6
#     Node 6, Type 0, BuildingBlock: BETGAK_clean_sbu_0, # of connection points: 6
#     Node 7, Type 0, BuildingBlock: BETGAK_clean_sbu_0, # of connection points: 6
#     Node 8, Type 0, BuildingBlock: BETGAK_clean_sbu_0, # of connection points: 6
#     Node 9, Type 0, BuildingBlock: BETGAK_clean_sbu_0, # of connection points: 6
#     Node 10, Type 0, BuildingBlock: BETGAK_clean_sbu_0, # of connection points: 6
#     Node 11, Type 0, BuildingBlock: BETGAK_clean_sbu_0, # of connection points: 6
#     Node 12, Type 0, BuildingBlock: BETGAK_clean_sbu_0, # of connection points: 6
#     Node 13, Type 0, BuildingBlock: BETGAK_clean_sbu_0, # of connection points: 6
#     Node 14, Type 0, BuildingBlock: BETGAK_clean_sbu_0, # of connection points: 6
#     Node 15, Type 0, BuildingBlock: BETGAK_clean_sbu_0, # of connection points: 6
#     Node 16, Type 0, BuildingBlock: BETGAK_clean_sbu_0, # of connection points: 6
#     Node 17, Type 0, BuildingBlock: BETGAK_clean_sbu_0, # of connection points: 6
#     Node 18, Type 0, BuildingBlock: BETGAK_clean_sbu_0, # of connection points: 6
#     Node 19, Type 0, BuildingBlock: BETGAK_clean_sbu_0, # of connection points: 6
#     Node 20, Type 0, BuildingBlock: BETGAK_clean_sbu_0, # of connection points: 6
#     Node 21, Type 0, BuildingBlock: BETGAK_clean_sbu_0, # of connection points: 6
#     Node 22, Type 0, BuildingBlock: BETGAK_clean_sbu_0, # of connection points: 6
#     Node 23, Type 0, BuildingBlock: BETGAK_clean_sbu_0, # of connection points: 6
#     Node 24, Type 0, BuildingBlock: BETGAK_clean_sbu_0, # of connection points: 6
#     Node 25, Type 0, BuildingBlock: BETGAK_clean_sbu_0, # of connection points: 6
#     Node 26, Type 0, BuildingBlock: BETGAK_clean_sbu_0, # of connection points: 6
#     Node 27, Type 0, BuildingBlock: BETGAK_clean_sbu_0, # of connection points: 6
#     Node 28, Type 0, BuildingBlock: BETGAK_clean_sbu_0, # of connection points: 6
#     Node 29, Type 0, BuildingBlock: BETGAK_clean_sbu_0, # of connection points: 6
#     Node 30, Type 0, BuildingBlock: BETGAK_clean_sbu_0, # of connection points: 6
#     Node 31, Type 0, BuildingBlock: BETGAK_clean_sbu_0, # of connection points: 6
#     Node 32, Type 0, BuildingBlock: BETGAK_clean_sbu_0, # of connection points: 6
#     Node 33, Type 0, BuildingBlock: BETGAK_clean_sbu_0, # of connection points: 6
#     Node 34, Type 0, BuildingBlock: BETGAK_clean_sbu_0, # of connection points: 6
#     Node 35, Type 0, BuildingBlock: BETGAK_clean_sbu_0, # of connection points: 6
#     Edge 36, Type (0, 0), None
#     Edge 37, Type (0, 0), None
#     Edge 38, Type (0, 0), None
#     Edge 39, Type (0, 0), None
#     Edge 40, Type (0, 0), None
#     Edge 41, Type (0, 0), None
#     Edge 42, Type (0, 0), None
#     Edge 43, Type (0, 0), None
#     Edge 44, Type (0, 0), None
#     Edge 45, Type (0, 0), None
#     Edge 46, Type (0, 0), None
#     Edge 47, Type (0, 0), None
#     Edge 48, Type (0, 0), None
#     Edge 49, Type (0, 0), None
#     Edge 50, Type (0, 0), None
#     Edge 51, Type (0, 0), None
#     Edge 52, Type (0, 0), None
#     Edge 53, Type (0, 0), None
#     Edge 54, Type (0, 0), None
#     Edge 55, Type (0, 0), None
#     Edge 56, Type (0, 0), None
#     Edge 57, Type (0, 0), None
#     Edge 58, Type (0, 0), None
#     Edge 59, Type (0, 0), None
#     Edge 60, Type (0, 0), None
#     Edge 61, Type (0, 0), None
#     Edge 62, Type (0, 0), None
#     Edge 63, Type (0, 0), None
#     Edge 64, Type (0, 0), None
#     Edge 65, Type (0, 0), None
#     Edge 66, Type (0, 0), None
#     Edge 67, Type (0, 0), None
#     Edge 68, Type (0, 0), None
#     Edge 69, Type (0, 0), None
#     Edge 70, Type (0, 0), None
#     Edge 71, Type (0, 0), None
#     Edge 72, Type (0, 0), None
#     Edge 73, Type (0, 0), None
#     Edge 74, Type (0, 0), None
#     Edge 75, Type (0, 0), None
#     Edge 76, Type (0, 0), None
#     Edge 77, Type (0, 0), None
#     Edge 78, Type (0, 0), None
#     Edge 79, Type (0, 0), None
#     Edge 80, Type (0, 0), None
#     Edge 81, Type (0, 0), None
#     Edge 82, Type (0, 0), None
#     Edge 83, Type (0, 0), None
#     Edge 84, Type (0, 0), None
#     Edge 85, Type (0, 0), None
#     Edge 86, Type (0, 0), None
#     Edge 87, Type (0, 0), None
#     Edge 88, Type (0, 0), None
#     Edge 89, Type (0, 0), None
#     Edge 90, Type (0, 0), None
#     Edge 91, Type (0, 0), None
#     Edge 92, Type (0, 0), None
#     Edge 93, Type (0, 0), None
#     Edge 94, Type (0, 0), None
#     Edge 95, Type (0, 0), None
#     Edge 96, Type (0, 0), None
#     Edge 97, Type (0, 0), None
#     Edge 98, Type (0, 0), None
#     Edge 99, Type (0, 0), None
#     Edge 100, Type (0, 0), None
#     Edge 101, Type (0, 0), None
#     Edge 102, Type (0, 0), None
#     Edge 103, Type (0, 0), None
#     Edge 104, Type (0, 0), None
#     Edge 105, Type (0, 0), None
#     Edge 106, Type (0, 0), None
#     Edge 107, Type (0, 0), None
#     Edge 108, Type (0, 0), None
#     Edge 109, Type (0, 0), None
#     Edge 110, Type (0, 0), None
#     Edge 111, Type (0, 0), None
#     Edge 112, Type (0, 0), None
#     Edge 113, Type (0, 0), None
#     Edge 114, Type (0, 0), None
#     Edge 115, Type (0, 0), None
#     Edge 116, Type (0, 0), None
#     Edge 117, Type (0, 0), None
#     Edge 118, Type (0, 0), None
#     Edge 119, Type (0, 0), None
#     Edge 120, Type (0, 0), None
#     Edge 121, Type (0, 0), None
#     Edge 122, Type (0, 0), None
#     Edge 123, Type (0, 0), None
#     Edge 124, Type (0, 0), None
#     Edge 125, Type (0, 0), None
#     Edge 126, Type (0, 0), None
#     Edge 127, Type (0, 0), None
#     Edge 128, Type (0, 0), None
#     Edge 129, Type (0, 0), None
#     Edge 130, Type (0, 0), None
#     Edge 131, Type (0, 0), None
#     Edge 132, Type (0, 0), None
#     Edge 133, Type (0, 0), None
#     Edge 134, Type (0, 0), None
#     Edge 135, Type (0, 0), None
#     Edge 136, Type (0, 0), None
#     Edge 137, Type (0, 0), None
#     Edge 138, Type (0, 0), None
#     Edge 139, Type (0, 0), None
#     Edge 140, Type (0, 0), None
#     Edge 141, Type (0, 0), None
#     Edge 142, Type (0, 0), None
#     Edge 143, Type (0, 0), None
# Relax obj value: 0.127
# Max RMSD: 0.235
# Mean RMSD: 0.216
data_MOF--net-wna--node1-BETGAK_clean_sbu_0--edge1-none
_symmetry_space_group_name_H-M    P1
_symmetry_Int_Tables_number       1
_symmetry_cell_setting            triclinic
loop_
_symmetry_equiv_pos_as_xyz
'x, y, z'
_cell_length_a     17.530038
_cell_length_b     17.530765
_cell_length_c     104.8485
_cell_angle_alpha  90.000576
_cell_angle_beta   90.003738
_cell_angle_gamma 119.99565
loop_
_atom_site_label
_atom_site_type_symbol
_atom_site_fract_x
_atom_site_fract_y
_atom_site_fract_z
_atom_type_partial_charge
La0 La 0.1976 0.3221 0.18454 0.0
La1 La 0.18965 0.29761 0.21399 0.0
C2 C 0.19224 0.37828 0.16277 0.0
C3 C 0.23962 0.39896 0.15055 0.0
C4 C 0.25892 0.33876 0.14457 0.0
C5 C 0.28675 0.35135 0.13186 0.0
C6 C 0.29644 0.42463 0.12504 0.0
C7 C 0.28442 0.48841 0.13142 0.0
C8 C 0.25585 0.47539 0.14406 0.0
C9 C 0.24894 0.20731 0.19139 0.0
C10 C 0.37364 0.41816 0.19998 0.0
C11 C 0.16118 0.24158 0.23694 0.0
C12 C 0.1479 0.25422 0.25082 0.0
C13 C 0.21585 0.27714 0.2598 0.0
C14 C 0.1996 0.27463 0.27302 0.0
C15 C 0.11466 0.24892 0.27776 0.0
C16 C 1.0472 0.22758 0.26873 0.0
C17 C 1.06341 0.22984 0.25554 0.0
C18 C 0.16234 0.42593 0.20481 0.0
C19 C 1.03443 0.16197 0.19555 0.0
O20 O 0.14835 0.29485 0.166 0.0
O21 O 0.23267 0.43062 0.17246 0.0
O22 O 0.24765 0.23137 0.17971 0.0
O23 O 0.22489 0.25013 0.19815 0.0
O24 O 0.32807 0.42451 0.19042 0.0
O25 O 0.33394 0.36531 0.20996 0.0
O26 O 0.2399 0.2846 0.2318 0.0
O27 O 1.09976 0.23003 0.22878 0.0
O28 O 0.19977 0.42774 0.21556 0.0
O29 O 0.13669 0.35101 0.20011 0.0
O30 O 1.08014 0.1721 0.2062 0.0
O31 O 1.06105 0.22466 0.18695 0.0
H32 H 0.24784 0.2796 0.14945 0.0
H33 H 0.29626 0.30163 0.12718 0.0
H34 H 0.29042 0.54507 0.12637 0.0
H35 H 0.24135 0.52252 0.14851 0.0
H36 H 0.28139 0.29463 0.25662 0.0
H37 H 0.25382 0.29221 0.27954 0.0
H38 H 0.98046 0.20552 0.27183 0.0
H39 H 1.0085 0.20925 0.24904 0.0
La40 La 0.84703 0.90946 0.18437 0.0
La41 La 0.8706 0.9237 0.21382 0.0
C42 C 0.79172 0.85035 0.16248 0.0
C43 C 0.77094 0.87796 0.15034 0.0
C44 C 0.8317 0.95711 0.14433 0.0
C45 C 0.81881 0.97276 0.13166 0.0
C46 C 0.74472 0.90993 0.12489 0.0
C47 C 0.68038 0.83471 0.13132 0.0
C48 C 0.69367 0.81875 0.14392 0.0
C49 C 0.96195 0.07493 0.19159 0.0
C50 C 0.7504 0.98814 0.19991 0.0
C51 C 0.92642 0.94957 0.23676 0.0
C52 C 0.91291 0.92362 0.25062 0.0
C53 C 0.89689 0.97352 0.25964 0.0
C54 C 0.89895 0.9592 0.27284 0.0
C55 C 0.9179 0.89486 0.27752 0.0
C56 C 0.93214 0.84383 0.26844 0.0
C57 C 0.92995 0.85809 0.25526 0.0
C58 C 0.74196 0.76906 0.20447 0.0
C59 C 1.00606 0.90433 0.19528 0.0
O60 O 0.8751 0.88995 0.16574 0.0
O61 O 0.73901 0.83698 0.17217 0.0
O62 O 0.93827 1.05093 0.17987 0.0
O63 O 0.91876 1.00726 0.19816 0.0
O64 O 0.74431 0.9368 0.19028 0.0
O65 O 0.80287 1.00053 0.20992 0.0
O66 O 0.88548 0.98748 0.23163 0.0
O67 O 0.936 0.89843 0.22861 0.0
O68 O 0.74003 0.80451 0.21523 0.0
O69 O 0.81709 0.81818 0.1998 0.0
O70 O 0.99598 0.93946 0.20598 0.0
O71 O 0.94348 0.86904 0.18666 0.0
H72 H 0.8915 1.00448 0.14915 0.0
H73 H 0.86897 1.03154 0.12694 0.0
H74 H 0.62306 0.78462 0.12631 0.0
H75 H 0.64607 0.75741 0.14839 0.0
H76 H 0.8854 1.02582 0.25651 0.0
H77 H 0.88665 0.99964 0.27938 0.0
H78 H 0.94878 0.79491 0.27147 0.0
H79 H 0.94499 0.81966 0.24871 0.0
La80 La 0.25873 0.97014 0.1841 0.0
La81 La 0.2446 0.97928 0.21345 0.0
C82 C 0.31783 0.97353 0.16223 0.0
C83 C 0.28969 0.92459 0.15015 0.0
C84 C 0.21003 0.90552 0.14424 0.0
C85 C 0.19373 0.87646 0.13159 0.0
C86 C 0.25642 0.86533 0.12476 0.0
C87 C 0.33212 0.87675 0.13111 0.0
C88 C 0.34874 0.90655 0.14368 0.0
C89 C 1.093 0.91867 0.1913 0.0
C90 C 0.18025 0.79475 0.19969 0.0
C91 C 0.21823 1.01008 0.23626 0.0
C92 C 0.24664 1.02643 0.24994 0.0
C93 C 0.2175 0.95697 0.25878 0.0
C94 C 0.23221 0.97401 0.27194 0.0
C95 C 0.27554 1.06106 0.27671 0.0
C96 C 0.30659 0.13034 0.26779 0.0
C97 C 0.2922 0.1133 0.25465 0.0
C98 C 0.39967 1.00608 0.2042 0.0
C99 C 0.26286 0.13404 0.1951 0.0
O100 O 0.27846 1.01757 0.16547 0.0
O101 O 0.33124 0.93441 0.17195 0.0
O102 O 0.11715 0.91941 0.17957 0.0
O103 O 0.16065 0.94318 0.19786 0.0
O104 O 0.23134 0.83994 0.19004 0.0
O105 O 0.16747 0.83489 0.20964 0.0
O106 O 0.1841 0.93062 0.23141 0.0
O107 O 0.26592 0.07087 0.2279 0.0
O108 O 0.36415 0.96881 0.21496 0.0
O109 O 0.35048 1.03191 0.19949 0.0
O110 O 0.22821 0.08856 0.20577 0.0
O111 O 0.29744 0.10682 0.18635 0.0
H112 H 0.16277 0.91789 0.1491 0.0
H113 H 0.1346 0.86744 0.12694 0.0
H114 H 0.38211 0.86964 0.12605 0.0
H115 H 0.41043 0.92075 0.14808 0.0
H116 H 0.18089 0.8892 0.25558 0.0
H117 H 0.20818 0.9185 0.27839 0.0
H118 H 0.33873 0.19819 0.27094 0.0
H119 H 0.31378 0.16863 0.24821 0.0
La120 La 0.34919 0.16765 0.38348 0.0
La121 La 0.33588 0.1664 0.35399 0.0
C122 C 0.39512 0.15484 0.40563 0.0
C123 C 0.41131 0.19747 0.41819 0.0
C124 C 0.34486 0.20467 0.42465 0.0
C125 C 0.35452 0.22696 0.43757 0.0
C126 C 0.43098 0.2432 0.44413 0.0
C127 C 0.5003 0.24342 0.43737 0.0
C128 C 0.49026 0.22021 0.42451 0.0
C129 C 0.24025 0.22508 0.3758 0.0
C130 C 0.45333 0.34547 0.36902 0.0
C131 C 0.28455 0.14424 0.33091 0.0
C132 C 0.29079 0.11977 0.31744 0.0
C133 C 0.35936 0.17579 0.30917 0.0
C134 C 0.35605 0.15562 0.29609 0.0
C135 C 0.28351 0.07954 0.29087 0.0
C136 C 0.21589 1.0232 0.29927 0.0
C137 C 0.21972 1.04293 0.3123 0.0
C138 C 0.45642 0.1309 0.36399 0.0
C139 C 0.19326 1.00851 0.37106 0.0
O140 O 0.31322 0.11327 0.40164 0.0
O141 O 0.45188 0.19788 0.39649 0.0
O142 O 0.25907 0.21973 0.38763 0.0
O143 O 0.28483 0.20148 0.36938 0.0
O144 O 0.45718 0.29682 0.37833 0.0
O145 O 0.40149 0.30897 0.35886 0.0
O146 O 0.34398 0.22046 0.33561 0.0
O147 O 0.255 0.08187 0.3395 0.0
O148 O 0.46276 0.16932 0.35316 0.0
O149 O 0.38073 0.10721 0.36816 0.0
O150 O 0.20762 1.05743 0.3607 0.0
O151 O 0.25255 1.03209 0.38011 0.0
H152 H 0.28342 0.18817 0.41997 0.0
H153 H 0.30044 0.22684 0.44259 0.0
H154 H 0.55954 0.25469 0.44225 0.0
H155 H 0.5421 0.21475 0.41971 0.0
H156 H 0.41466 0.23613 0.31273 0.0
H157 H 0.41014 0.20041 0.29006 0.0
H158 H 0.15783 0.96519 0.29574 0.0
H159 H 0.16496 0.99925 0.31832 0.0
La160 La 0.99945 0.21333 0.38348 0.0
La161 La 1.00044 0.20665 0.35532 0.0
C162 C 0.99799 0.25174 0.40657 0.0
C163 C 0.95051 0.22009 0.41878 0.0
C164 C 0.95234 0.15199 0.42563 0.0
C165 C 0.93023 0.1397 0.43856 0.0
C166 C 0.90573 0.19503 0.44482 0.0
C167 C 0.89516 0.25683 0.43763 0.0
C168 C 0.91785 0.26954 0.42473 0.0
C169 C 0.96424 1.05772 0.37418 0.0
C170 C 0.8194 0.14698 0.3698 0.0
C171 C 1.0098 0.1781 0.33158 0.0
C172 C 1.04712 0.2108 0.31846 0.0
C173 C 1.0078 0.24405 0.31009 0.0
C174 C 1.03169 0.25914 0.29711 0.0
C175 C 1.09521 0.24073 0.29195 0.0
C176 C 0.13665 0.21028 0.30045 0.0
C177 C 0.11286 0.19545 0.31345 0.0
C178 C 1.03884 0.36379 0.36528 0.0
C179 C 0.16758 0.23903 0.37166 0.0
O180 O 1.03841 0.21153 0.4022 0.0
O181 O 0.96228 0.27488 0.39749 0.0
O182 O 0.99599 0.08709 0.38538 0.0
O183 O 0.94059 0.10809 0.36946 0.0
O184 O 0.86878 0.19404 0.37941 0.0
O185 O 0.85664 0.13078 0.35983 0.0
O186 O 0.95461 0.19963 0.33647 0.0
O187 O 1.05893 0.1716 0.3404 0.0
O188 O 0.99736 0.33035 0.35475 0.0
O189 O 1.06425 0.31265 0.36924 0.0
O190 O 0.12015 0.20126 0.36127 0.0
O191 O 0.13869 0.27328 0.38016 0.0
H192 H 0.97686 0.11235 0.4213 0.0
H193 H 0.93806 0.09101 0.44387 0.0
H194 H 0.87715 0.30099 0.44221 0.0
H195 H 0.91636 0.32275 0.41969 0.0
H196 H 0.9561 0.25571 0.31345 0.0
H197 H 0.99903 0.2841 0.29105 0.0
H198 H 0.18486 0.19389 0.29698 0.0
H199 H 0.14331 0.16802 0.31946 0.0
La200 La 0.94769 0.82102 0.38324 0.0
La201 La 0.96053 0.82537 0.35498 0.0
C202 C 0.90081 0.77878 0.40603 0.0
C203 C 0.92962 0.75826 0.41812 0.0
C204 C 1.00645 0.8214 0.42439 0.0
C205 C 1.02129 0.80912 0.43713 0.0
C206 C 0.95992 0.7334 0.44374 0.0
C207 C 0.88747 0.66693 0.43709 0.0
C208 C 0.87227 0.67952 0.42441 0.0
C209 C 0.10311 0.94345 0.3747 0.0
C210 C 1.02209 0.70979 0.37042 0.0
C211 C 0.99117 0.86172 0.33125 0.0
C212 C 0.95852 0.86616 0.31815 0.0
C213 C 0.92116 0.7926 0.30995 0.0
C214 C 0.9052 0.80117 0.29699 0.0
C215 C 0.92718 0.88384 0.2917 0.0
C216 C 0.96223 0.95682 0.30004 0.0
C217 C 0.97749 0.94803 0.313 0.0
C218 C 0.80161 0.70888 0.36472 0.0
C219 C 0.93362 0.96674 0.37018 0.0
O220 O 0.94589 0.86001 0.40197 0.0
O221 O 0.87628 0.72117 0.39675 0.0
O222 O 1.07113 0.9444 0.38576 0.0
O223 O 1.05614 0.86877 0.36978 0.0
O224 O 0.9757 0.71411 0.38 0.0
O225 O 1.03672 0.75963 0.36009 0.0
O226 O 0.96958 0.78527 0.33626 0.0
O227 O 0.99698 0.9177 0.33995 0.0
O228 O 0.83624 0.6988 0.35446 0.0
O229 O 0.85251 0.78599 0.36845 0.0
O230 O 0.9701 0.95236 0.3601 0.0
O231 O 0.89504 0.90562 0.37893 0.0
H232 H 1.0523 0.88267 0.41975 0.0
H233 H 1.07796 0.86101 0.44202 0.0
H234 H 0.83845 0.60829 0.44197 0.0
H235 H 0.81245 0.63019 0.41979 0.0
H236 H 0.90659 0.72856 0.31344 0.0
H237 H 0.87664 0.74273 0.29107 0.0
H238 H 0.98158 1.02196 0.29648 0.0
H239 H 1.00789 1.00648 0.31891 0.0
La240 La 1.01148 0.83612 0.85567 0.0
La241 La 1.00177 0.81056 0.88495 0.0
C242 C 1.04112 0.89602 0.833 0.0
C243 C 1.06054 0.88893 0.81929 0.0
C244 C 0.99614 0.82924 0.81079 0.0
C245 C 1.01351 0.83306 0.7976 0.0
C246 C 1.09538 0.89734 0.79249 0.0
C247 C 0.15988 0.95588 0.8011 0.0
C248 C 0.14271 0.95161 0.81423 0.0
C249 C 1.03905 0.70755 0.86459 0.0
C250 C 0.16638 0.97058 0.87422 0.0
C251 C 1.0041 0.75402 0.90678 0.0
C252 C 0.95803 0.74003 0.919 0.0
C253 C 0.94706 0.80687 0.92459 0.0
C254 C 0.92294 0.80095 0.93739 0.0
C255 C 0.90832 0.72768 0.94467 0.0
C256 C 0.91032 0.65699 0.93867 0.0
C257 C 0.93557 0.66343 0.92593 0.0
C258 C 0.95063 0.92561 0.87805 0.0
C259 C 0.82718 0.71477 0.86933 0.0
O260 O 0.96192 0.84519 0.83765 0.0
O261 O 0.10247 0.91237 0.84143 0.0
O262 O 1.00295 0.70708 0.85378 0.0
O263 O 1.06399 0.78177 0.86951 0.0
O264 O 0.12141 0.96073 0.86353 0.0
O265 O 0.13865 0.9081 0.88286 0.0
O266 O 1.05419 0.83626 0.90329 0.0
O267 O 0.95957 0.70198 0.89728 0.0
O268 O 0.95168 0.90163 0.88974 0.0
O269 O 0.97489 0.88274 0.87138 0.0
O270 O 0.87281 0.70691 0.87874 0.0
O271 O 0.86719 0.76964 0.85957 0.0
H272 H 0.93162 0.78084 0.81427 0.0
H273 H 0.96213 0.78598 0.79141 0.0
H274 H 0.223 1.00751 0.79767 0.0
H275 H 0.19326 0.99974 0.82044 0.0
H276 H 0.96279 0.86621 0.91935 0.0
H277 H 0.92122 0.85593 0.94182 0.0
H278 H 0.90015 0.60008 0.94411 0.0
H279 H 0.94337 0.61116 0.92177 0.0
La280 La 0.3296 0.20759 0.85563 0.0
La281 La 0.3552 0.22342 0.88491 0.0
C282 C 0.26969 0.17777 0.83296 0.0
C283 C 0.2767 0.20468 0.81925 0.0
C284 C 0.33507 0.19841 0.81067 0.0
C285 C 0.33091 0.21211 0.79749 0.0
C286 C 0.26762 0.23147 0.79248 0.0
C287 C 0.21046 0.23907 0.80117 0.0
C288 C 0.21501 0.22593 0.81429 0.0
C289 C 0.45817 0.36368 0.86456 0.0
C290 C 0.19519 0.22805 0.87418 0.0
C291 C 0.41179 0.28248 0.90674 0.0
C292 C 0.42587 0.25066 0.91897 0.0
C293 C 0.35904 0.17301 0.92459 0.0
C294 C 0.36503 0.1551 0.93741 0.0
C295 C 0.43837 0.21389 0.94467 0.0
C296 C 0.50903 0.28643 0.93864 0.0
C297 C 0.50251 0.30494 0.92589 0.0
C298 C 0.24 1.05727 0.87804 0.0
C299 C 0.45081 0.14442 0.86929 0.0
O300 O 0.32067 0.14945 0.83757 0.0
O301 O 0.25316 0.22238 0.84143 0.0
O302 O 0.45868 0.32809 0.85375 0.0
O303 O 0.38395 0.3144 0.86947 0.0
O304 O 0.205 0.19287 0.86349 0.0
O305 O 0.25772 0.26284 0.88282 0.0
O306 O 0.32953 0.25026 0.90324 0.0
O307 O 0.46381 0.28988 0.89723 0.0
O308 O 0.26415 0.08235 0.88971 0.0
O309 O 0.28287 0.12431 0.87135 0.0
O310 O 0.45877 0.19801 0.87869 0.0
O311 O 0.39592 0.12959 0.85953 0.0
H312 H 0.38262 0.18085 0.81407 0.0
H313 H 0.37692 0.20648 0.79122 0.0
H314 H 0.15962 0.252 0.79781 0.0
H315 H 0.1678 0.22953 0.82056 0.0
H316 H 0.29965 0.12929 0.91937 0.0
H317 H 0.31008 0.09851 0.94186 0.0
H318 H 0.56599 0.33326 0.94406 0.0
H319 H 0.55477 0.36491 0.9217 0.0
La320 La 0.95806 0.15389 0.8556 0.0
La321 La 0.94243 0.16405 0.88489 0.0
C322 C 0.98778 0.12361 0.83292 0.0
C323 C 0.96097 0.10357 0.81921 0.0
C324 C 0.96779 0.16824 0.81058 0.0
C325 C 0.95419 0.15022 0.79741 0.0
C326 C 0.9344 0.06734 0.79242 0.0
C327 C 0.92629 1.00257 0.80115 0.0
C328 C 0.9393 1.02042 0.81428 0.0
C329 C 0.80204 0.12649 0.86456 0.0
C330 C 0.93767 0.99926 0.87421 0.0
C331 C 0.8836 0.16202 0.90671 0.0
C332 C 0.91565 0.20817 0.91893 0.0
C333 C 0.99344 0.21913 0.92453 0.0
C334 C 1.01158 0.24327 0.93733 0.0
C335 C 0.95289 0.25791 0.9446 0.0
C336 C 0.88024 0.25593 0.93859 0.0
C337 C 0.8615 0.23067 0.92585 0.0
C338 C 0.10853 0.21499 0.878 0.0
C339 C 1.02122 0.3384 0.86923 0.0
O340 O 1.01605 0.20292 0.83752 0.0
O341 O 0.94322 1.06255 0.84141 0.0
O342 O 0.83752 0.16243 0.85373 0.0
O343 O 0.85137 0.1016 0.86947 0.0
O344 O 0.97274 1.04405 0.8635 0.0
O345 O 0.90301 1.02715 0.88284 0.0
O346 O 0.91571 0.11185 0.90324 0.0
O347 O 0.87613 0.20648 0.89719 0.0
O348 O 1.08355 0.21422 0.88968 0.0
O349 O 1.04143 0.19067 0.87131 0.0
O350 O 0.96758 0.29283 0.87862 0.0
O351 O 1.03608 0.29827 0.85948 0.0
H352 H 0.98569 0.23349 0.81395 0.0
H353 H 0.96021 0.20189 0.79111 0.0
H354 H 0.91303 0.93862 0.79783 0.0
H355 H 0.93526 0.96955 0.82057 0.0
H356 H 1.03706 0.20337 0.91929 0.0
H357 H 1.06825 0.24498 0.94176 0.0
H358 H 0.83349 0.26613 0.94402 0.0
H359 H 0.80144 0.22287 0.92167 0.0
La360 La 0.87022 0.96839 0.71512 0.0
La361 La 0.84549 0.96377 0.68545 0.0
C362 C 0.93015 0.99425 0.73779 0.0
C363 C 0.921 1.01366 0.75147 0.0
C364 C 0.86633 0.94706 0.7601 0.0
C365 C 0.86863 0.96483 0.77325 0.0
C366 C 0.92641 1.04952 0.77823 0.0
C367 C 0.97978 0.11623 0.7695 0.0
C368 C 0.97709 0.09856 0.75639 0.0
C369 C 0.74201 0.99554 0.70639 0.0
C370 C 0.99959 0.12856 0.69683 0.0
C371 C 0.79218 0.97132 0.66358 0.0
C372 C 0.78219 0.93129 0.65093 0.0
C373 C 0.85314 0.9296 0.64495 0.0
C374 C 0.84918 0.91044 0.63196 0.0
C375 C 0.77391 0.89161 0.62486 0.0
C376 C 0.70009 0.8852 0.63114 0.0
C377 C 0.70446 0.90546 0.64408 0.0
C378 C 0.96192 0.91453 0.69245 0.0
C379 C 0.74792 0.78835 0.70042 0.0
O380 O 0.87768 0.91585 0.73299 0.0
O381 O 0.94957 1.0566 0.72941 0.0
O382 O 0.74211 0.96202 0.7174 0.0
O383 O 0.81584 1.02024 0.70146 0.0
O384 O 0.99264 0.08186 0.70725 0.0
O385 O 0.93568 0.10123 0.68845 0.0
O386 O 0.87324 1.02245 0.66752 0.0
O387 O 0.73916 0.92156 0.67268 0.0
O388 O 0.9396 0.91701 0.68071 0.0
O389 O 0.91679 0.93617 0.69901 0.0
O390 O 0.7396 0.83668 0.6915 0.0
O391 O 0.80353 0.82512 0.71024 0.0
H392 H 0.82326 0.88053 0.75676 0.0
H393 H 0.82557 0.91154 0.77953 0.0
H394 H 1.02639 0.18181 0.77283 0.0
H395 H 1.02143 0.15121 0.75011 0.0
H396 H 0.91364 0.94836 0.65008 0.0
H397 H 0.90665 0.91533 0.62731 0.0
H398 H 0.64157 0.8717 0.62584 0.0
H399 H 0.64914 0.90644 0.64853 0.0
La400 La 0.1938 0.93244 0.71521 0.0
La401 La 0.20273 0.91526 0.68556 0.0
C402 C 0.16473 0.96423 0.73782 0.0
C403 C 0.14659 0.93611 0.75151 0.0
C404 C 0.21428 0.9505 0.76008 0.0
C405 C 0.19733 0.93539 0.77325 0.0
C406 C 0.11238 0.90645 0.77829 0.0
C407 C 1.04458 0.89048 0.76961 0.0
C408 C 1.06146 0.90506 0.75648 0.0
C409 C 0.16804 0.77808 0.70627 0.0
C410 C 1.03644 0.90407 0.69649 0.0
C411 C 0.19986 0.85668 0.66367 0.0
C412 C 0.24387 0.88776 0.65128 0.0
C413 C 0.25208 0.96393 0.6455 0.0
C414 C 0.27446 0.98076 0.63262 0.0
C415 C 0.2899 0.92229 0.62543 0.0
C416 C 0.29037 0.85126 0.63157 0.0
C417 C 0.26695 0.83385 0.64439 0.0
C418 C 0.25163 0.08039 0.69278 0.0
C419 C 0.37567 0.99074 0.70116 0.0
O420 O 0.24389 0.99401 0.73305 0.0
O421 O 0.10322 0.91844 0.72945 0.0
O422 O 0.2008 0.811 0.71735 0.0
O423 O 0.14368 0.82748 0.70133 0.0
O424 O 1.08169 0.9424 0.70707 0.0
O425 O 1.06497 0.86893 0.68805 0.0
O426 O 0.14908 0.88781 0.66729 0.0
O427 O 0.24622 0.85087 0.67306 0.0
O428 O 0.25119 1.05663 0.68104 0.0
O429 O 0.22842 1.01295 0.69926 0.0
O430 O 0.32853 0.93532 0.69205 0.0
O431 O 0.33774 1.00881 0.71089 0.0
H432 H 0.28097 0.97563 0.75669 0.0
H433 H 0.25143 0.94757 0.7795 0.0
H434 H 0.97871 0.8698 0.77299 0.0
H435 H 1.00794 0.8947 0.75023 0.0
H436 H 0.23566 1.00726 0.65068 0.0
H437 H 0.27423 1.03617 0.62808 0.0
H438 H 0.30119 0.80467 0.62621 0.0
H439 H 0.26108 0.7749 0.64869 0.0
La440 La 0.23212 0.29498 0.71518 0.0
La441 La 0.25009 0.31875 0.6855 0.0
C442 C 0.19933 0.2353 0.73786 0.0
C443 C 0.22779 0.24464 0.75153 0.0
C444 C 0.21566 0.2993 0.76013 0.0
C445 C 0.23102 0.2971 0.77329 0.0
C446 C 0.25803 0.23945 0.77829 0.0
C447 C 0.27161 0.18613 0.76958 0.0
C448 C 0.2567 0.18869 0.75647 0.0
C449 C 0.38678 0.42278 0.70619 0.0
C450 C 0.26217 0.16541 0.69683 0.0
C451 C 0.30954 0.37259 0.66361 0.0
C452 C 0.27945 0.38657 0.65122 0.0
C453 C 0.20344 0.31932 0.64532 0.0
C454 C 0.18714 0.32631 0.63246 0.0
C455 C 0.246 0.40094 0.62543 0.0
C456 C 0.31705 0.47158 0.63171 0.0
C457 C 0.3339 0.46415 0.64451 0.0
C458 C 1.0848 0.20268 0.69273 0.0
C459 C 0.17355 0.41707 0.7006 0.0
O460 O 0.17221 0.28685 0.73307 0.0
O461 O 0.24301 0.21687 0.72947 0.0
O462 O 0.3539 0.42332 0.71725 0.0
O463 O 0.33736 0.34867 0.70136 0.0
O464 O 0.22285 0.17248 0.70728 0.0
O465 O 0.29796 0.22899 0.68839 0.0
O466 O 0.27616 0.29045 0.66728 0.0
O467 O 0.31706 0.42579 0.67296 0.0
O468 O 0.10882 0.22508 0.68097 0.0
O469 O 0.15204 0.24772 0.69921 0.0
O470 O 0.22908 0.42466 0.69155 0.0
O471 O 0.15552 0.36194 0.71046 0.0
H472 H 0.19211 0.34226 0.75677 0.0
H473 H 0.2206 0.3401 0.77956 0.0
H474 H 0.29068 0.13963 0.77293 0.0
H475 H 0.26508 0.14431 0.7502 0.0
H476 H 0.1597 0.25911 0.65037 0.0
H477 H 0.13177 0.27128 0.62781 0.0
H478 H 0.36398 0.52948 0.62647 0.0
H479 H 0.39275 0.51667 0.64891 0.0
La480 La 0.86665 0.64917 0.51891 0.0
La481 La 0.86585 0.6377 0.54717 0.0
C482 C 0.8674 0.69299 0.49603 0.0
C483 C 0.91488 0.70961 0.48383 0.0
C484 C 0.91611 0.64084 0.47708 0.0
C485 C 0.93895 0.65099 0.46417 0.0
C486 C 0.96125 0.73006 0.45785 0.0
C487 C 0.96862 0.80152 0.46494 0.0
C488 C 0.94514 0.79115 0.47781 0.0
C489 C 0.90152 0.52743 0.52764 0.0
C490 C 1.04703 0.76034 0.5328 0.0
C491 C 0.85673 0.59447 0.57065 0.0
C492 C 0.82801 0.59591 0.58408 0.0
C493 C 0.89156 0.62821 0.59386 0.0
C494 C 0.86697 0.62022 0.60677 0.0
C495 C 0.77766 0.57956 0.6104 0.0
C496 C 0.714 0.54881 0.60056 0.0
C497 C 0.73869 0.55626 0.58761 0.0
C498 C 0.82754 0.75782 0.53774 0.0
C499 C 0.70021 0.50358 0.53067 0.0
O500 O 0.82576 0.61173 0.50015 0.0
O501 O 0.90427 0.75033 0.50528 0.0
O502 O 0.87149 0.52729 0.51638 0.0
O503 O 0.92427 0.60038 0.53265 0.0
O504 O 0.99817 0.75878 0.52315 0.0
O505 O 1.00952 0.70659 0.54271 0.0
O506 O 0.92085 0.66663 0.56574 0.0
O507 O 0.79809 0.54714 0.56203 0.0
O508 O 0.8679 0.76398 0.54833 0.0
O509 O 0.80278 0.6821 0.53349 0.0
O510 O 0.7489 0.51203 0.54085 0.0
O511 O 0.72769 0.56792 0.52237 0.0
H512 H 0.8936 0.5772 0.48148 0.0
H513 H 0.93358 0.59522 0.45894 0.0
H514 H 0.98485 0.86304 0.4603 0.0
H515 H 0.9443 0.84493 0.48278 0.0
H516 H 0.96085 0.65778 0.59152 0.0
H517 H 0.91838 0.64579 0.61393 0.0
H518 H 0.64455 0.51616 0.60287 0.0
H519 H 0.68762 0.52901 0.58041 0.0
La520 La 0.51693 0.25154 0.51879 0.0
La521 La 0.53104 0.26331 0.5483 0.0
C522 C 0.46997 0.19232 0.49669 0.0
C523 C 0.45329 0.21845 0.48414 0.0
C524 C 0.5191 0.2926 0.47769 0.0
C525 C 0.50918 0.30509 0.46478 0.0
C526 C 0.43308 0.24421 0.45821 0.0
C527 C 0.36429 0.17454 0.46496 0.0
C528 C 0.3746 0.16152 0.47782 0.0
C529 C 0.62776 0.41712 0.52646 0.0
C530 C 0.41327 0.32574 0.53351 0.0
C531 C 0.58078 0.28818 0.57145 0.0
C532 C 0.5646 0.25892 0.58509 0.0
C533 C 0.55568 0.31194 0.59437 0.0
C534 C 0.55788 0.29553 0.60746 0.0
C535 C 0.56906 0.22537 0.61171 0.0
C536 C 0.57441 0.1702 0.60239 0.0
C537 C 0.5726 0.18689 0.5893 0.0
C538 C 0.40837 0.10858 0.53827 0.0
C539 C 0.67304 0.24835 0.53103 0.0
O540 O 0.55205 0.23262 0.50059 0.0
O541 O 0.41363 0.17899 0.50587 0.0
O542 O 0.60795 0.39354 0.51463 0.0
O543 O 0.5831 0.34895 0.53288 0.0
O544 O 0.41055 0.27529 0.52396 0.0
O545 O 0.46341 0.33876 0.5438 0.0
O546 O 0.53661 0.32232 0.56622 0.0
O547 O 0.59705 0.24159 0.5633 0.0
O548 O 0.40187 0.14196 0.54897 0.0
O549 O 0.48447 0.15944 0.53411 0.0
O550 O 0.65941 0.28374 0.54137 0.0
O551 O 0.61304 0.2119 0.52209 0.0
H552 H 0.5803 0.33808 0.48238 0.0
H553 H 0.56283 0.3595 0.45976 0.0
H554 H 0.30533 0.12606 0.46008 0.0
H555 H 0.32325 0.10384 0.4826 0.0
H556 H 0.55037 0.36844 0.59149 0.0
H557 H 0.5524 0.33906 0.61426 0.0
H558 H 0.58431 0.11627 0.60516 0.0
H559 H 0.58118 0.14526 0.58251 0.0
La560 La 0.91918 0.3058 0.51909 0.0
La561 La 0.90465 0.29977 0.5474 0.0
C562 C 0.96807 0.30894 0.49645 0.0
C563 C 0.93952 0.25879 0.48443 0.0
C564 C 0.86129 0.24213 0.47828 0.0
C565 C 0.84598 0.2138 0.46559 0.0
C566 C 0.90827 0.20118 0.45892 0.0
C567 C 0.98237 0.21022 0.46547 0.0
C568 C 0.99801 0.23921 0.4781 0.0
C569 C 0.7628 0.27246 0.5273 0.0
C570 C 0.84452 0.1214 0.53231 0.0
C571 C 0.87102 0.30782 0.57092 0.0
C572 C 0.90319 0.3376 0.58425 0.0
C573 C 0.88112 0.27444 0.59396 0.0
C574 C 0.89833 0.29941 0.60686 0.0
C575 C 0.93827 0.3886 0.61052 0.0
C576 C 0.96205 0.45206 0.60076 0.0
C577 C 0.94434 0.42697 0.58785 0.0
C578 C 1.06418 0.34119 0.53806 0.0
C579 C 0.92972 0.46529 0.53168 0.0
O580 O 0.92345 0.34616 0.50027 0.0
O581 O 0.99119 0.27581 0.50589 0.0
O582 O 0.79459 0.3034 0.51615 0.0
O583 O 0.81048 0.2466 0.53247 0.0
O584 O 0.89095 0.17121 0.52267 0.0
O585 O 0.82966 0.15739 0.54253 0.0
O586 O 0.87855 0.24359 0.56592 0.0
O587 O 0.88152 0.36634 0.56233 0.0
O588 O 1.02908 0.29798 0.54843 0.0
O589 O 1.01337 0.3667 0.53402 0.0
O590 O 0.89158 0.4142 0.54169 0.0
O591 O 0.96972 0.44306 0.52312 0.0
H592 H 0.81455 0.25605 0.48297 0.0
H593 H 0.78805 0.20666 0.46078 0.0
H594 H 1.03212 0.202 0.46054 0.0
H595 H 1.05885 0.25194 0.48262 0.0
H596 H 0.8479 0.20496 0.5916 0.0
H597 H 0.87963 0.24844 0.61399 0.0
H598 H 0.99161 0.52124 0.60313 0.0
H599 H 0.96066 0.4776 0.58073 0.0
La600 La 1.00648 0.49708 0.71561 0.0
La601 La 1.01124 0.50847 0.6875 0.0
C602 C 1.03618 0.48747 0.73886 0.0
C603 C 1.05015 0.53113 0.75136 0.0
C604 C 0.97839 0.52338 0.75844 0.0
C605 C 0.98747 0.54283 0.77146 0.0
C606 C 1.06834 0.57045 0.77759 0.0
C607 C 0.14196 0.58631 0.77025 0.0
C608 C 0.13278 0.56631 0.75726 0.0
C609 C 0.88878 0.53384 0.70583 0.0
C610 C 0.12588 0.6829 0.70348 0.0
C611 C 0.98088 0.50745 0.66363 0.0
C612 C 0.97511 0.46984 0.65057 0.0
C613 C 1.03944 0.51928 0.64132 0.0
C614 C 1.02844 0.49228 0.62849 0.0
C615 C 0.95242 0.41501 0.62442 0.0
C616 C 0.88877 0.3646 0.63373 0.0
C617 C 0.89976 0.39173 0.64657 0.0
C618 C 0.12403 0.46379 0.69802 0.0
C619 C 0.86926 0.3362 0.70184 0.0
O620 O 0.9574 0.45287 0.73389 0.0
O621 O 1.09868 0.52356 0.73027 0.0
O622 O 0.88178 0.49661 0.71673 0.0
O623 O 0.96547 0.56174 0.70175 0.0
O624 O 0.11783 0.63048 0.71302 0.0
O625 O 1.07809 0.64976 0.69293 0.0
O626 O 1.05805 0.55612 0.6689 0.0
O627 O 0.92123 0.46052 0.67215 0.0
O628 O 0.13731 0.50969 0.68778 0.0
O629 O 1.04605 0.43775 0.70128 0.0
O630 O 0.88384 0.38877 0.69196 0.0
O631 O 0.9297 0.35982 0.7107 0.0
H632 H 0.9137 0.49648 0.75418 0.0
H633 H 0.92992 0.53079 0.77689 0.0
H634 H 0.20494 0.60674 0.77475 0.0
H635 H 0.18892 0.5722 0.75207 0.0
H636 H 1.09748 0.58067 0.64394 0.0
H637 H 1.07946 0.53263 0.62171 0.0
H638 H 0.82861 0.30552 0.63103 0.0
H639 H 0.84772 0.35275 0.65329 0.0
La640 La 0.66761 0.54228 0.71554 0.0
La641 La 0.65628 0.53408 0.6874 0.0
C642 C 0.67757 0.58351 0.73871 0.0
C643 C 0.63437 0.55441 0.75124 0.0
C644 C 0.64103 0.48961 0.75828 0.0
C645 C 0.62195 0.47943 0.7713 0.0
C646 C 0.59569 0.53359 0.77748 0.0
C647 C 0.58099 0.59234 0.7702 0.0
C648 C 0.60069 0.60301 0.7572 0.0
C649 C 0.62968 0.38675 0.70605 0.0
C650 C 0.48191 0.47572 0.70335 0.0
C651 C 0.65774 0.50386 0.66356 0.0
C652 C 0.69614 0.5354 0.6505 0.0
C653 C 0.65052 0.55669 0.64141 0.0
C654 C 0.67768 0.57257 0.62857 0.0
C655 C 0.75118 0.56714 0.62432 0.0
C656 C 0.79778 0.54734 0.63349 0.0
C657 C 0.77057 0.53147 0.64633 0.0
C658 C 0.70165 0.69221 0.69774 0.0
C659 C 0.82812 0.56401 0.70182 0.0
O660 O 0.71274 0.53961 0.73383 0.0
O661 O 0.64068 0.60862 0.73006 0.0
O662 O 0.66669 0.41756 0.71695 0.0
O663 O 0.60256 0.43579 0.70178 0.0
O664 O 0.53444 0.52067 0.71286 0.0
O665 O 0.51493 0.46035 0.69284 0.0
O666 O 0.60935 0.533 0.66873 0.0
O667 O 0.70396 0.49075 0.67215 0.0
O668 O 0.6559 0.65947 0.68749 0.0
O669 O 0.72727 0.6401 0.70109 0.0
O670 O 0.77554 0.5259 0.69195 0.0
O671 O 0.80483 0.60121 0.71066 0.0
H672 H 0.66674 0.4509 0.75397 0.0
H673 H 0.63311 0.4332 0.7767 0.0
H674 H 0.56165 0.6356 0.77474 0.0
H675 H 0.5957 0.65388 0.75204 0.0
H676 H 0.59189 0.55859 0.64414 0.0
H677 H 0.64036 0.58854 0.62194 0.0
H678 H 0.85364 0.54074 0.63068 0.0
H679 H 0.80629 0.51305 0.6529 0.0
La680 La 0.62466 0.15904 0.71595 0.0
La681 La 0.62849 0.1525 0.68804 0.0
C682 C 0.5885 0.1306 0.7393 0.0
C683 C 0.61913 0.11629 0.75169 0.0
C684 C 0.68329 0.18801 0.75876 0.0
C685 C 0.69394 0.17884 0.77176 0.0
C686 C 0.64077 0.09794 0.77788 0.0
C687 C 0.58322 1.02427 0.77054 0.0
C688 C 0.57213 1.03353 0.75757 0.0
C689 C 0.77838 0.27603 0.70589 0.0
C690 C 0.68934 1.03823 0.70372 0.0
C691 C 0.65299 0.18042 0.66409 0.0
C692 C 0.61832 0.19053 0.65151 0.0
C693 C 0.56753 0.1172 0.64362 0.0
C694 C 0.54869 0.1282 0.63093 0.0
C695 C 0.58073 0.21292 0.62567 0.0
C696 C 0.62888 0.28607 0.63374 0.0
C697 C 0.64746 0.27503 0.64642 0.0
C698 C 0.47209 1.04002 0.6988 0.0
C699 C 0.59881 0.29534 0.70226 0.0
O700 O 0.63311 0.20907 0.73426 0.0
O701 O 0.55998 0.06775 0.73074 0.0
O702 O 0.74839 0.28427 0.71673 0.0
O703 O 0.72959 0.19891 0.70196 0.0
O704 O 0.64625 1.04728 0.71336 0.0
O705 O 0.70312 0.08548 0.69315 0.0
O706 O 0.61809 0.10262 0.66937 0.0
O707 O 0.67622 0.24228 0.67265 0.0
O708 O 0.50519 1.02557 0.68872 0.0
O709 O 0.52359 0.11853 0.70191 0.0
O710 O 0.63473 0.27952 0.69224 0.0
O711 O 0.56414 0.23624 0.71132 0.0
H712 H 0.72078 0.25279 0.75452 0.0
H713 H 0.73929 0.23641 0.77721 0.0
H714 H 0.54078 0.96125 0.77503 0.0
H715 H 0.52181 0.97739 0.75238 0.0
H716 H 0.54475 1.05108 0.6471 0.0
H717 H 0.51025 0.07001 0.62516 0.0
H718 H 0.65596 0.35242 0.6301 0.0
H719 H 0.68809 0.33316 0.65209 0.0
La720 La 0.68175 0.1713 0.18875 0.0
La721 La 0.67186 0.14583 0.21809 0.0
C722 C 0.71412 0.23061 0.16608 0.0
C723 C 0.72188 0.21911 0.15209 0.0
C724 C 0.78156 0.195 0.14711 0.0
C725 C 0.79796 0.19901 0.1339 0.0
C726 C 0.75527 0.22729 0.12529 0.0
C727 C 0.69427 0.24942 0.13032 0.0
C728 C 0.67807 0.24556 0.14349 0.0
C729 C 0.70754 1.04231 0.19786 0.0
C730 C 0.8355 0.30639 0.20739 0.0
C731 C 0.67477 0.08852 0.23982 0.0
C732 C 0.62796 0.07295 0.25199 0.0
C733 C 0.61281 0.13751 0.25744 0.0
C734 C 0.58775 0.13088 0.2702 0.0
C735 C 0.57644 1.05913 0.27757 0.0
C736 C 0.5827 0.99037 0.2717 0.0
C737 C 0.60886 0.99757 0.259 0.0
C738 C 0.62101 0.26064 0.21116 0.0
C739 C 0.49684 1.04968 0.20225 0.0
O740 O 0.63608 0.19662 0.17139 0.0
O741 O 0.77259 0.23011 0.1738 0.0
O742 O 0.66936 1.04038 0.18716 0.0
O743 O 0.73367 0.11706 0.20266 0.0
O744 O 0.79041 0.29631 0.1967 0.0
O745 O 0.80846 0.24377 0.21599 0.0
O746 O 0.72369 0.17123 0.23645 0.0
O747 O 0.63119 1.03669 0.23024 0.0
O748 O 0.62143 0.23648 0.22286 0.0
O749 O 0.64605 0.21834 0.20451 0.0
O750 O 0.54192 1.04363 0.21192 0.0
O751 O 0.537 0.10191 0.19225 0.0
H752 H 0.81751 0.17538 0.15344 0.0
H753 H 0.84479 0.18067 0.13044 0.0
H754 H 0.66124 0.27311 0.12414 0.0
H755 H 0.63335 0.26655 0.147 0.0
H756 H 0.62601 0.19583 0.25212 0.0
H757 H 0.58286 0.18437 0.27454 0.0
H758 H 0.57517 0.93475 0.27722 0.0
H759 H 0.61997 0.94709 0.25494 0.0
La760 La 0.99789 0.54235 0.18878 0.0
La761 La 1.02253 0.55936 0.21818 0.0
C762 C 0.93892 0.51425 0.16609 0.0
C763 C 0.95016 0.53388 0.1521 0.0
C764 C 0.97328 0.61755 0.14718 0.0
C765 C 0.96889 0.63014 0.13397 0.0
C766 C 0.94116 0.55949 0.12532 0.0
C767 C 0.92006 0.47651 0.1303 0.0
C768 C 0.92433 0.46397 0.14345 0.0
C769 C 0.12666 0.69763 0.19777 0.0
C770 C 0.86277 0.56259 0.20718 0.0
C771 C 1.07731 0.62 0.23999 0.0
C772 C 1.09015 0.58901 0.25238 0.0
C773 C 1.02313 0.51107 0.25791 0.0
C774 C 1.02778 0.49335 0.27078 0.0
C775 C 0.10001 0.55261 0.27817 0.0
C776 C 0.17077 0.62582 0.27228 0.0
C777 C 0.16556 0.64416 0.25948 0.0
C778 C 0.9076 0.3935 0.2113 0.0
C779 C 0.11915 0.47977 0.20269 0.0
O780 O 0.9746 0.47177 0.17141 0.0
O781 O 0.93755 0.57223 0.17382 0.0
O782 O 0.1286 0.66101 0.18711 0.0
O783 O 1.05196 0.64913 0.20259 0.0
O784 O 0.87269 0.52641 0.19661 0.0
O785 O 0.9256 0.59906 0.21574 0.0
O786 O 0.99534 0.58743 0.23633 0.0
O787 O 0.13017 0.62666 0.23065 0.0
O788 O 0.93128 0.41839 0.223 0.0
O789 O 0.95036 0.46064 0.20464 0.0
O790 O 0.12528 0.53177 0.21224 0.0
O791 O 1.06697 0.46698 0.19264 0.0
H792 H 0.99242 0.67285 0.15354 0.0
H793 H 0.98648 0.69521 0.13057 0.0
H794 H 0.89684 0.42 0.12408 0.0
H795 H 0.90412 0.39835 0.14692 0.0
H796 H 0.96462 0.46683 0.25256 0.0
H797 H 0.97271 0.4364 0.27514 0.0
H798 H 0.22679 0.67301 0.27783 0.0
H799 H 0.21784 0.70446 0.25536 0.0
La800 La 0.62546 0.48744 0.18875 0.0
La801 La 0.61007 0.4966 0.21813 0.0
C802 C 0.65271 0.45565 0.16607 0.0
C803 C 0.63325 0.44739 0.15209 0.0
C804 C 0.54941 0.3875 0.14714 0.0
C805 C 0.53683 0.37061 0.13394 0.0
C806 C 0.60767 0.413 0.1253 0.0
C807 C 0.69086 0.47419 0.1303 0.0
C808 C 0.70338 0.4909 0.14345 0.0
C809 C 0.47063 0.46115 0.1979 0.0
C810 C 0.60632 0.33302 0.20728 0.0
C811 C 0.55067 0.49328 0.23993 0.0
C812 C 0.58196 0.54071 0.25206 0.0
C813 C 0.66154 0.55593 0.25757 0.0
C814 C 0.68002 0.58196 0.27031 0.0
C815 C 0.61974 0.59411 0.27758 0.0
C816 C 0.54488 0.58772 0.27164 0.0
C817 C 0.52589 0.56064 0.25897 0.0
C818 C 0.77569 0.54763 0.21111 0.0
C819 C 0.68838 0.67195 0.20244 0.0
O820 O 0.69601 0.5338 0.17137 0.0
O821 O 0.59427 0.39681 0.1738 0.0
O822 O 0.50667 0.49939 0.18719 0.0
O823 O 0.51941 0.43513 0.20268 0.0
O824 O 0.64169 0.3785 0.19663 0.0
O825 O 0.57067 0.35991 0.2159 0.0
O826 O 0.58543 0.44528 0.23653 0.0
O827 O 0.54087 0.53593 0.23036 0.0
O828 O 0.75132 0.54711 0.22282 0.0
O829 O 0.70821 0.52271 0.2045 0.0
O830 O 0.63726 0.62653 0.21208 0.0
O831 O 0.70063 0.63213 0.1924 0.0
H832 H 0.49395 0.35178 0.1535 0.0
H833 H 0.47162 0.32365 0.13051 0.0
H834 H 0.74749 0.50699 0.12409 0.0
H835 H 0.76913 0.53575 0.14694 0.0
H836 H 0.70657 0.54216 0.25234 0.0
H837 H 0.73829 0.58694 0.27471 0.0
H838 H 0.49688 0.59585 0.27708 0.0
H839 H 0.46442 0.54951 0.25486 0.0
La840 La 0.53785 0.30283 0.04844 0.0
La841 La 0.51295 0.29652 1.01881 0.0
C842 C 0.59705 0.32777 0.07115 0.0
C843 C 0.58833 0.34989 0.0847 0.0
C844 C 0.53996 0.28382 0.09378 0.0
C845 C 0.54352 0.30448 0.10684 0.0
C846 C 0.59662 0.39164 0.11125 0.0
C847 C 0.64315 0.45777 0.10209 0.0
C848 C 0.63921 0.43724 0.08908 0.0
C849 C 0.41023 0.33057 0.03959 0.0
C850 C 0.66689 0.46248 1.03003 0.0
C851 C 0.45818 0.30114 0.99694 0.0
C852 C 0.44557 0.25753 0.98454 0.0
C853 C 0.51356 0.24917 0.97881 0.0
C854 C 0.50817 0.22671 0.96593 0.0
C855 C 0.43438 0.21132 0.95872 0.0
C856 C 0.36288 0.21112 0.96482 0.0
C857 C 0.36874 0.23463 0.97764 0.0
C858 C 0.6291 0.24707 1.02594 0.0
C859 C 0.41529 0.12223 1.03395 0.0
O860 O 0.54129 0.24994 0.06649 0.0
O861 O 0.62045 0.38977 0.06258 0.0
O862 O 0.41025 0.29765 0.05066 0.0
O863 O 0.48396 0.35464 0.03468 0.0
O864 O 0.65985 0.41679 0.04057 0.0
O865 O 0.60339 0.43417 1.02156 0.0
O866 O 0.54003 0.35147 1.00063 0.0
O867 O 0.40554 0.25441 1.00627 0.0
O868 O 0.60662 0.24907 1.01419 0.0
O869 O 0.58403 0.26901 1.03246 0.0
O870 O 0.40675 0.17021 1.02502 0.0
O871 O 0.47159 0.15945 0.04368 0.0
H872 H 0.50168 0.21555 0.09087 0.0
H873 H 0.50766 0.25132 0.11354 0.0
H874 H 0.68387 0.52576 0.105 0.0
H875 H 0.67853 0.48993 0.08246 0.0
H876 H 0.57319 0.26547 0.98401 0.0
H877 H 0.56384 0.22684 0.96142 0.0
H878 H 0.30559 0.20043 0.95944 0.0
H879 H 0.31566 0.24062 0.9819 0.0
La880 La 0.86362 0.26749 0.04837 0.0
La881 La 0.87005 0.24929 1.01874 0.0
C882 C 0.83854 0.30137 0.07109 0.0
C883 C 0.81696 0.2706 0.08465 0.0
C884 C 0.88335 0.28831 0.09367 0.0
C885 C 0.86314 0.27129 0.10675 0.0
C886 C 0.77613 0.23733 0.11122 0.0
C887 C 0.70968 0.21765 0.10211 0.0
C888 C 0.72976 0.23415 0.08909 0.0
C889 C 0.83613 0.11231 0.03948 0.0
C890 C 0.704 0.23708 1.02996 0.0
C891 C 0.86559 0.19026 0.99686 0.0
C892 C 0.90933 0.22142 0.98447 0.0
C893 C 0.91759 0.29774 0.97874 0.0
C894 C 0.9401 0.31488 0.96587 0.0
C895 C 0.95562 0.25658 0.95865 0.0
C896 C 0.95598 0.18536 0.96475 0.0
C897 C 0.93244 0.16764 0.97756 0.0
C898 C 0.91947 0.41478 1.02592 0.0
C899 C 1.0443 0.32569 1.0339 0.0
O900 O 0.91649 0.32425 0.0664 0.0
O901 O 0.77645 0.26213 0.06255 0.0
O902 O 0.86917 0.14527 0.05054 0.0
O903 O 0.81191 0.16191 1.03458 0.0
O904 O 0.74968 0.27564 0.04051 0.0
O905 O 0.73238 0.20207 1.02148 0.0
O906 O 0.81527 0.22177 1.00055 0.0
O907 O 0.91219 0.18413 1.00619 0.0
O908 O 0.91755 0.39048 1.01417 0.0
O909 O 0.89743 0.34766 1.03242 0.0
O910 O 0.99638 0.26938 1.02494 0.0
O911 O 1.00704 0.34458 0.04364 0.0
H912 H 0.95151 0.31825 0.09071 0.0
H913 H 0.91653 0.28861 0.11341 0.0
H914 H 0.64179 0.19043 0.10507 0.0
H915 H 0.67685 0.22075 0.08251 0.0
H916 H 0.90116 0.34097 0.98394 0.0
H917 H 0.93986 0.37037 0.96136 0.0
H918 H 0.96679 0.13884 0.95937 0.0
H919 H 0.92654 0.10861 0.98183 0.0
La920 La 0.89919 0.62867 0.04844 0.0
La921 La 0.91718 0.65346 1.01881 0.0
C922 C 0.86572 0.56965 0.07117 0.0
C923 C 0.8968 0.57858 0.08471 0.0
C924 C 0.87892 0.62675 0.0938 0.0
C925 C 0.89622 0.6233 0.10686 0.0
C926 C 0.93068 0.5705 0.11126 0.0
C927 C 0.9505 0.52421 0.10209 0.0
C928 C 0.9337 0.52804 0.08907 0.0
C929 C 1.05427 0.75637 0.03953 0.0
C930 C 0.92954 0.49963 1.02998 0.0
C931 C 0.97612 0.70824 0.99692 0.0
C932 C 0.94489 0.7208 0.98454 0.0
C933 C 0.86854 0.65272 0.97882 0.0
C934 C 0.85136 0.65803 0.96595 0.0
C935 C 0.90966 0.73182 0.95872 0.0
C936 C 0.98088 0.80343 0.96482 0.0
C937 C 0.99863 0.79765 0.97763 0.0
C938 C 0.75178 0.53724 1.02598 0.0
C939 C 0.84079 0.7511 1.034 0.0
O940 O 0.84307 0.62501 0.06652 0.0
O941 O 0.90446 0.54655 0.06258 0.0
O942 O 1.02145 0.75643 0.0506 0.0
O943 O 1.00463 0.68257 0.03463 0.0
O944 O 0.89104 0.50666 0.04054 0.0
O945 O 0.96454 0.5631 1.02151 0.0
O946 O 0.94478 0.62642 1.0006 0.0
O947 O 0.98212 0.76086 1.00626 0.0
O948 O 0.776 0.55982 1.01423 0.0
O949 O 0.81887 0.58231 1.03249 0.0
O950 O 0.89726 0.75969 1.02505 0.0
O951 O 0.82187 0.69484 0.04372 0.0
H952 H 0.84862 0.66477 0.09091 0.0
H953 H 0.87875 0.659 0.11357 0.0
H954 H 0.97811 0.48375 0.10497 0.0
H955 H 0.94723 0.48887 0.08245 0.0
H956 H 0.82534 0.59308 0.98403 0.0
H957 H 0.79587 0.60229 0.96144 0.0
H958 H 1.02738 0.86072 0.95943 0.0
H959 H 1.05768 0.85081 0.98189 0.0
La960 La 0.52848 0.98655 0.85111 0.0
La961 La 0.52088 0.96258 0.88062 0.0
C962 C 0.52285 1.0428 0.82938 0.0
C963 C 0.57127 1.06512 0.81725 0.0
C964 C 0.59389 1.00705 0.81137 0.0
C965 C 0.6235 1.0211 0.79875 0.0
C966 C 0.63168 0.09376 0.79192 0.0
C967 C 0.61603 0.15547 0.79822 0.0
C968 C 0.58566 0.14096 0.81076 0.0
C969 C 0.57972 0.87214 0.85821 0.0
C970 C 0.70498 0.08326 0.86659 0.0
C971 C 0.49202 0.90543 0.90343 0.0
C972 C 0.48581 0.91881 0.91741 0.0
C973 C 0.44075 0.96023 0.92224 0.0
C974 C 0.42342 0.95853 0.9354 0.0
C975 C 0.44963 0.91447 0.94413 0.0
C976 C 0.49748 0.87588 0.93924 0.0
C977 C 0.51528 0.87819 0.92612 0.0
C978 C 0.49391 0.09056 0.8714 0.0
C979 C 0.36556 0.8268 0.86215 0.0
O980 O 0.48045 0.95912 0.83251 0.0
O981 O 0.5618 0.09508 0.83914 0.0
O982 O 0.57884 0.89556 0.84648 0.0
O983 O 0.55504 0.91504 0.86479 0.0
O984 O 0.65956 0.08824 0.85688 0.0
O985 O 0.66539 1.03227 0.87675 0.0
O986 O 0.56937 0.93951 0.89791 0.0
O987 O 0.4323 0.9047 0.89585 0.0
O988 O 0.53267 0.09337 0.88208 0.0
O989 O 0.46787 1.01551 0.86672 0.0
O990 O 0.41126 0.83716 0.8728 0.0
O991 O 0.39204 0.88927 0.85352 0.0
H992 H 0.58418 0.94839 0.81625 0.0
H993 H 0.63564 0.97292 0.79412 0.0
H994 H 0.62068 0.21151 0.79315 0.0
H995 H 0.5685 0.18639 0.81514 0.0
H996 H 0.41672 0.99189 0.91581 0.0
H997 H 0.3882 0.99088 0.93867 0.0
H998 H 0.51802 0.84011 0.94543 0.0
H999 H 0.54906 0.84464 0.9227 0.0
La1000 La 0.17913 0.57403 0.85107 0.0
La1001 La 0.20308 0.59025 0.88059 0.0
C1002 C 0.12315 0.5118 0.82933 0.0
C1003 C 0.10095 0.53702 0.81712 0.0
C1004 C 0.15935 0.61699 0.81108 0.0
C1005 C 0.14549 0.63141 0.7984 0.0
C1006 C 1.07269 0.56652 0.79164 0.0
C1007 C 1.01073 0.4899 0.79806 0.0
C1008 C 1.02504 0.47516 0.81068 0.0
C1009 C 0.29364 0.73959 0.85818 0.0
C1010 C 1.08243 0.65381 0.86658 0.0
C1011 C 0.26019 0.61825 0.90341 0.0
C1012 C 0.24701 0.59875 0.91739 0.0
C1013 C 0.20611 0.51233 0.92223 0.0
C1014 C 0.20808 0.49684 0.9354 0.0
C1015 C 0.2519 0.56722 0.94413 0.0
C1016 C 0.28996 0.65359 0.93921 0.0
C1017 C 0.28739 0.66891 0.9261 0.0
C1018 C 1.07509 0.43537 0.87134 0.0
C1019 C 0.339 0.57099 0.86212 0.0
O1020 O 0.20678 0.55325 0.83249 0.0
O1021 O 1.07073 0.49887 0.83906 0.0
O1022 O 0.27011 0.71535 0.84644 0.0
O1023 O 0.25071 0.67201 0.86476 0.0
O1024 O 1.07754 0.60361 0.85685 0.0
O1025 O 0.13336 0.66505 0.87674 0.0
O1026 O 0.22629 0.66172 0.89789 0.0
O1027 O 0.26071 0.5592 0.89581 0.0
O1028 O 1.07226 0.47128 0.88203 0.0
O1029 O 0.15017 0.48441 0.86667 0.0
O1030 O 0.32856 0.60619 0.87278 0.0
O1031 O 0.27657 0.53504 0.85349 0.0
H1032 H 0.21811 0.66622 0.81591 0.0
H1033 H 0.19385 0.69121 0.79368 0.0
H1034 H 0.95457 0.43821 0.79305 0.0
H1035 H 0.97939 0.41307 0.81516 0.0
H1036 H 0.17466 0.45656 0.91582 0.0
H1037 H 0.17613 0.42931 0.93868 0.0
H1038 H 0.32553 0.70997 0.9454 0.0
H1039 H 0.32057 0.73622 0.92267 0.0
La1040 La 0.59189 0.63737 0.8511 0.0
La1041 La 0.57526 0.64477 0.88063 0.0
C1042 C 0.65435 0.64421 0.82937 0.0
C1043 C 0.62904 0.59754 0.81709 0.0
C1044 C 0.54942 0.57718 0.81104 0.0
C1045 C 0.53505 0.54971 0.79832 0.0
C1046 C 0.5996 0.54138 0.79154 0.0
C1047 C 0.67583 0.55488 0.79796 0.0
C1048 C 0.69055 0.58316 0.81061 0.0
C1049 C 0.42625 0.58634 0.85817 0.0
C1050 C 0.51193 0.46077 0.86657 0.0
C1051 C 0.54702 0.67365 0.90344 0.0
C1052 C 0.56667 0.67993 0.91742 0.0
C1053 C 0.65315 0.72534 0.92225 0.0
C1054 C 0.66879 0.74276 0.93541 0.0
C1055 C 0.59852 0.7163 0.94415 0.0
C1056 C 0.51209 0.6681 0.93926 0.0
C1057 C 0.4966 0.65021 0.92614 0.0
C1058 C 0.73021 0.67163 0.87142 0.0
C1059 C 0.59497 0.8002 0.86218 0.0
O1060 O 0.61346 0.68682 0.83258 0.0
O1061 O 0.66659 0.60383 0.83904 0.0
O1062 O 0.45063 0.58716 0.84644 0.0
O1063 O 0.49374 0.61089 0.86477 0.0
O1064 O 0.56236 0.50619 0.85686 0.0
O1065 O 0.50047 0.50033 0.87673 0.0
O1066 O 0.50373 0.59629 0.89792 0.0
O1067 O 0.60596 0.73335 0.89585 0.0
O1068 O 0.69422 0.63291 0.8821 0.0
O1069 O 0.68126 0.69772 0.86674 0.0
O1070 O 0.55946 0.75441 0.87282 0.0
O1071 O 0.63111 0.7738 0.85357 0.0
H1072 H 0.50047 0.58703 0.8159 0.0
H1073 H 0.47556 0.53918 0.7936 0.0
H1074 H 0.72725 0.55005 0.79293 0.0
H1075 H 0.75239 0.59872 0.8151 0.0
H1076 H 0.70884 0.74959 0.91582 0.0
H1077 H 0.73636 0.77826 0.93868 0.0
H1078 H 0.45577 0.64734 0.94545 0.0
H1079 H 0.42926 0.61616 0.92273 0.0
La1080 La 0.6751 0.83212 0.04914 0.0
La1081 La 0.67764 0.84175 1.02101 0.0
C1082 C 0.7074 0.82496 0.07235 0.0
C1083 C 0.72249 0.87056 0.08471 0.0
C1084 C 0.65194 0.8671 0.09161 0.0
C1085 C 0.66133 0.88829 0.10456 0.0
C1086 C 0.74131 0.91341 0.11081 0.0
C1087 C 0.81414 0.92534 0.10362 0.0
C1088 C 0.80462 0.90358 0.09069 0.0
C1089 C 0.55703 0.86884 0.03954 0.0
C1090 C 0.79367 1.01706 0.03672 0.0
C1091 C 0.64519 0.83856 0.99718 0.0
C1092 C 0.63923 0.80013 0.98417 0.0
C1093 C 0.69984 0.85164 0.97466 0.0
C1094 C 0.68799 0.82353 0.96187 0.0
C1095 C 0.61478 0.74272 0.95809 0.0
C1096 C 0.55514 0.69014 0.96773 0.0
C1097 C 0.56688 0.71857 0.98052 0.0
C1098 C 0.7909 0.79738 1.0314 0.0
C1099 C 0.53621 0.67063 0.03563 0.0
O1100 O 0.62809 0.78936 0.06754 0.0
O1101 O 0.76894 0.86014 0.06361 0.0
O1102 O 0.55096 0.83257 0.05049 0.0
O1103 O 0.63319 0.89604 0.03529 0.0
O1104 O 0.78649 0.96506 0.04628 0.0
O1105 O 0.74493 0.98343 1.02626 0.0
O1106 O 0.72254 0.88867 1.00231 0.0
O1107 O 0.5865 0.79162 1.00581 0.0
O1108 O 0.80359 0.84276 1.02112 0.0
O1109 O 0.71323 0.77167 0.03479 0.0
O1110 O 0.55047 0.72259 1.02568 0.0
O1111 O 0.59669 0.69458 0.04449 0.0
H1112 H 0.58772 0.84214 0.08727 0.0
H1113 H 0.60444 0.87929 0.10989 0.0
H1114 H 0.87639 0.94378 0.1082 0.0
H1115 H 0.8598 0.90629 0.08562 0.0
H1116 H 0.75505 0.91581 0.977 0.0
H1117 H 0.73474 0.86745 0.95488 0.0
H1118 H 0.49838 0.62706 0.96542 0.0
H1119 H 0.51775 0.67749 0.98748 0.0
La1120 La 0.33457 0.87565 0.04909 0.0
La1121 La 0.32455 0.86843 1.02097 0.0
C1122 C 0.34165 0.91488 0.0723 0.0
C1123 C 0.29577 0.88372 0.08462 0.0
C1124 C 0.29909 0.81631 0.09144 0.0
C1125 C 0.27768 0.80393 0.10439 0.0
C1126 C 0.25249 0.85853 0.11069 0.0
C1127 C 0.24051 0.91962 0.10356 0.0
C1128 C 0.26249 0.93244 0.09064 0.0
C1129 C 0.29783 0.72085 0.03949 0.0
C1130 C 0.14946 0.80922 0.03673 0.0
C1131 C 0.32743 0.83901 0.99715 0.0
C1132 C 0.36588 0.87146 0.98415 0.0
C1133 C 0.31446 0.88078 0.97463 0.0
C1134 C 0.34256 0.89702 0.96185 0.0
C1135 C 0.42327 0.90439 0.95807 0.0
C1136 C 0.47577 0.89714 0.9677 0.0
C1137 C 0.44735 0.88046 0.98049 0.0
C1138 C 0.36898 1.02609 1.03135 0.0
C1139 C 0.49598 0.89852 0.03555 0.0
O1140 O 0.3777 0.87164 0.06747 0.0
O1141 O 0.30631 0.94116 0.06357 0.0
O1142 O 0.33432 0.75117 0.05043 0.0
O1143 O 0.27047 0.76972 0.03526 0.0
O1144 O 0.20162 0.85417 0.04627 0.0
O1145 O 0.18294 0.79403 1.02627 0.0
O1146 O 0.27754 0.86651 1.00229 0.0
O1147 O 0.37429 0.82707 1.00577 0.0
O1148 O 0.32347 0.99335 1.02108 0.0
O1149 O 0.39477 0.97418 0.03473 0.0
O1150 O 0.4439 0.86066 1.02562 0.0
O1151 O 0.47209 0.93507 0.04441 0.0
H1152 H 0.32418 0.77727 0.08706 0.0
H1153 H 0.28672 0.75589 0.10967 0.0
H1154 H 0.22199 0.96324 0.10819 0.0
H1155 H 0.25982 0.98512 0.08563 0.0
H1156 H 0.25036 0.87199 0.97698 0.0
H1157 H 0.29871 0.90002 0.95486 0.0
H1158 H 0.53877 0.90327 0.96539 0.0
H1159 H 0.48835 0.87224 0.98745 0.0
La1160 La 0.2905 0.49144 0.04914 0.0
La1161 La 0.29826 0.48875 1.02098 0.0
C1162 C 0.25016 0.45948 0.07233 0.0
C1163 C 0.28031 0.4453 0.08478 0.0
C1164 C 0.34646 0.51652 0.09169 0.0
C1165 C 0.3578 0.50779 0.10469 0.0
C1166 C 0.30345 0.4278 0.11096 0.0
C1167 C 0.24343 0.35443 0.10377 0.0
C1168 C 0.23162 0.3633 0.09081 0.0
C1169 C 0.44551 0.60943 0.03961 0.0
C1170 C 0.35739 0.37295 0.03681 0.0
C1171 C 0.32793 0.52116 0.99717 0.0
C1172 C 0.29543 0.52697 0.98415 0.0
C1173 C 0.2864 0.46634 0.97464 0.0
C1174 C 0.27002 0.47804 0.96186 0.0
C1175 C 0.26224 0.55113 0.95807 0.0
C1176 C 0.26925 0.61081 0.9677 0.0
C1177 C 0.28606 0.59922 0.98049 0.0
C1178 C 0.14047 0.37549 1.03132 0.0
C1179 C 0.26813 0.63012 0.03551 0.0
O1180 O 0.29343 0.53869 0.06748 0.0
O1181 O 0.22487 0.39774 0.06364 0.0
O1182 O 0.41508 0.61554 0.05054 0.0
O1183 O 0.3966 0.53333 0.03534 0.0
O1184 O 0.31246 0.38021 0.04634 0.0
O1185 O 0.37256 0.42152 1.02632 0.0
O1186 O 0.30077 0.44385 1.0023 0.0
O1187 O 0.33949 0.57984 1.00578 0.0
O1188 O 0.17328 0.36282 1.02105 0.0
O1189 O 0.19237 0.45316 0.03471 0.0
O1190 O 0.30621 0.61591 1.02561 0.0
O1191 O 0.2313 0.56964 0.04436 0.0
H1192 H 0.38535 0.58069 0.08733 0.0
H1193 H 0.40502 0.5651 0.11001 0.0
H1194 H 0.20001 0.29215 0.10838 0.0
H1195 H 0.17981 0.30762 0.08573 0.0
H1196 H 0.29549 0.41121 0.977 0.0
H1197 H 0.26724 0.43127 0.95487 0.0
H1198 H 0.2628 0.66748 0.96537 0.0
H1199 H 0.29405 0.64838 0.98744 0.0
La1200 La 0.34379 0.50719 0.52192 0.0
La1201 La 0.33519 0.48355 0.55141 0.0
C1202 C 0.37367 0.56578 0.49917 0.0
C1203 C 0.39164 0.55623 0.48545 0.0
C1204 C 0.32475 0.49994 0.47697 0.0
C1205 C 0.3413 0.50213 0.46378 0.0
C1206 C 0.42493 0.56148 0.45861 0.0
C1207 C 0.49193 0.6164 0.4672 0.0
C1208 C 0.47552 0.61371 0.48035 0.0
C1209 C 0.37057 0.37929 0.53111 0.0
C1210 C 0.49995 0.6398 0.5404 0.0
C1211 C 0.33912 0.42888 0.57331 0.0
C1212 C 0.29385 0.41397 0.58562 0.0
C1213 C 0.28373 0.4805 0.5915 0.0
C1214 C 0.25994 0.47313 0.60434 0.0
C1215 C 0.24506 0.39882 0.61137 0.0
C1216 C 0.24663 0.32872 0.60511 0.0
C1217 C 0.27139 0.33654 0.59234 0.0
C1218 C 0.28535 0.59908 0.54419 0.0
C1219 C 0.16089 0.3867 0.53591 0.0
O1220 O 0.29437 0.51738 0.50394 0.0
O1221 O 0.43494 0.58098 0.50755 0.0
O1222 O 0.33486 0.37783 0.52022 0.0
O1223 O 0.3957 0.45375 0.5359 0.0
O1224 O 0.45436 0.63104 0.5298 0.0
O1225 O 0.47244 0.57704 0.54897 0.0
O1226 O 0.38754 0.51125 0.56975 0.0
O1227 O 0.29477 0.37596 0.56387 0.0
O1228 O 0.28626 0.57596 0.55593 0.0
O1229 O 0.30892 0.55515 0.53765 0.0
O1230 O 0.20712 0.37922 0.54525 0.0
O1231 O 0.19982 0.44089 0.52604 0.0
H1232 H 0.25894 0.45562 0.48047 0.0
H1233 H 0.28786 0.45777 0.45761 0.0
H1234 H 0.55669 0.66421 0.46374 0.0
H1235 H 0.52825 0.65919 0.48652 0.0
H1236 H 0.29964 0.54056 0.58644 0.0
H1237 H 0.2586 0.5277 0.60897 0.0
H1238 H 0.2363 0.27107 0.61036 0.0
H1239 H 0.27873 0.28456 0.58796 0.0
La1240 La 0.66091 0.87052 0.52136 0.0
La1241 La 0.68984 0.89167 0.55092 0.0
C1242 C 0.5985 0.83775 0.49883 0.0
C1243 C 0.60736 0.866 0.48516 0.0
C1244 C 0.66103 0.85298 0.47648 0.0
C1245 C 0.65818 0.86816 0.46333 0.0
C1246 C 0.60084 0.89586 0.45843 0.0
C1247 C 0.54868 0.91053 0.46721 0.0
C1248 C 0.55195 0.89586 0.48032 0.0
C1249 C 0.79049 1.02581 0.52985 0.0
C1250 C 0.53174 0.89876 0.54008 0.0
C1251 C 0.74816 0.95558 0.57249 0.0
C1252 C 0.76356 0.92761 0.58495 0.0
C1253 C 0.69956 0.84865 0.59064 0.0
C1254 C 0.70613 0.83286 0.60353 0.0
C1255 C 0.77729 0.89521 0.61081 0.0
C1256 C 0.8451 0.97013 0.60479 0.0
C1257 C 0.83795 0.98642 0.59195 0.0
C1258 C 0.57347 0.72578 0.54426 0.0
C1259 C 0.78293 0.8098 0.53544 0.0
O1260 O 0.64901 0.80896 0.5035 0.0
O1261 O 0.58248 0.88294 0.50727 0.0
O1262 O 0.78965 0.99101 0.51891 0.0
O1263 O 0.71705 0.97743 0.53494 0.0
O1264 O 0.5388 0.86028 0.52953 0.0
O1265 O 0.59563 0.93475 0.54849 0.0
O1266 O 0.66545 0.92181 0.56911 0.0
O1267 O 0.79941 0.96049 0.56301 0.0
O1268 O 0.59778 0.75105 0.55594 0.0
O1269 O 0.61658 0.79231 0.53755 0.0
O1270 O 0.7923 0.86539 0.54462 0.0
O1271 O 0.7273 0.79307 0.52569 0.0
H1272 H 0.70363 0.82881 0.47977 0.0
H1273 H 0.70034 0.85697 0.45699 0.0
H1274 H 0.50248 0.9302 0.46394 0.0
H1275 H 0.50852 0.90518 0.48665 0.0
H1276 H 0.64186 0.80179 0.58536 0.0
H1277 H 0.65335 0.77451 0.60799 0.0
H1278 H 0.90018 1.0197 0.61023 0.0
H1279 H 0.88781 1.04766 0.58772 0.0
La1280 La 0.29861 0.83016 0.5217 0.0
La1281 La 0.28063 0.83746 0.55123 0.0
C1282 C 0.33134 0.80208 0.4991 0.0
C1283 C 0.30406 0.78243 0.48541 0.0
C1284 C 0.31048 0.84728 0.47686 0.0
C1285 C 0.29589 0.82935 0.46369 0.0
C1286 C 0.27543 0.7464 0.45867 0.0
C1287 C 0.2678 0.68151 0.46733 0.0
C1288 C 0.28183 0.69927 0.48044 0.0
C1289 C 0.14313 0.80293 0.53047 0.0
C1290 C 0.27301 0.67276 0.54018 0.0
C1291 C 0.2215 0.8326 0.57314 0.0
C1292 C 0.25218 0.87658 0.58554 0.0
C1293 C 0.32952 0.88698 0.59123 0.0
C1294 C 0.34668 0.90983 0.6041 0.0
C1295 C 0.28736 0.92356 0.61136 0.0
C1296 C 0.21477 0.92149 0.60531 0.0
C1297 C 0.19708 0.89764 0.59251 0.0
C1298 C 0.44645 0.88781 0.54413 0.0
C1299 C 0.35705 1.01205 0.53585 0.0
O1300 O 0.35861 0.88102 0.50378 0.0
O1301 O 0.28686 0.74033 0.50749 0.0
O1302 O 0.17769 0.83768 0.51956 0.0
O1303 O 0.19213 0.77801 0.53545 0.0
O1304 O 0.31074 0.71874 0.52964 0.0
O1305 O 0.23694 0.70012 0.54866 0.0
O1306 O 0.25414 0.78327 0.56946 0.0
O1307 O 0.2144 0.87847 0.56379 0.0
O1308 O 0.42209 0.88639 0.55587 0.0
O1309 O 0.37919 0.86485 0.53761 0.0
O1310 O 0.30247 0.96487 0.54505 0.0
O1311 O 0.37458 0.97402 0.52607 0.0
H1312 H 0.32876 0.91254 0.48027 0.0
H1313 H 0.30162 0.88111 0.45744 0.0
H1314 H 0.25408 0.61751 0.46396 0.0
H1315 H 0.27803 0.64827 0.48668 0.0
H1316 H 0.37373 0.8721 0.58598 0.0
H1317 H 0.40327 0.91155 0.60856 0.0
H1318 H 0.16749 0.93089 0.61073 0.0
H1319 H 0.13723 0.89003 0.58828 0.0
La1320 La 0.20577 0.64283 0.3816 0.0
La1321 La 0.17654 0.63403 0.35207 0.0
C1322 C 0.26828 0.67254 0.40411 0.0
C1323 C 0.25961 0.69221 0.41777 0.0
C1324 C 0.2049 0.6259 0.42643 0.0
C1325 C 0.20785 0.64395 0.43957 0.0
C1326 C 0.26636 0.72857 0.4445 0.0
C1327 C 0.31955 0.79508 0.43574 0.0
C1328 C 0.31612 0.77715 0.42263 0.0
C1329 C 1.07635 0.66869 0.37305 0.0
C1330 C 0.33501 0.79939 0.36278 0.0
C1331 C 0.11746 0.6373 0.33047 0.0
C1332 C 0.10468 0.59389 0.31806 0.0
C1333 C 0.17223 0.58435 0.31242 0.0
C1334 C 0.16758 0.56282 0.29952 0.0
C1335 C 1.09484 0.54928 0.2922 0.0
C1336 C 1.02353 0.55006 0.2982 0.0
C1337 C 1.02873 0.57281 0.31104 0.0
C1338 C 0.29262 0.58424 0.35875 0.0
C1339 C 1.0833 0.46017 0.36769 0.0
O1340 O 0.21727 0.59326 0.39948 0.0
O1341 O 0.28474 0.73374 0.39565 0.0
O1342 O 1.07718 0.63519 0.38403 0.0
O1343 O 0.14971 0.69337 0.36797 0.0
O1344 O 0.32785 0.75432 0.37338 0.0
O1345 O 0.27117 0.77129 0.35436 0.0
O1346 O 0.19949 0.68921 0.33393 0.0
O1347 O 1.06681 0.58978 0.33992 0.0
O1348 O 0.26828 0.58511 0.34707 0.0
O1349 O 0.24976 0.60798 0.36545 0.0
O1350 O 1.07319 0.50665 0.35864 0.0
O1351 O 0.13968 0.49898 0.37735 0.0
H1352 H 0.16139 0.55939 0.42312 0.0
H1353 H 0.16484 0.5909 0.44589 0.0
H1354 H 0.36662 0.8606 0.43903 0.0
H1355 H 0.36025 0.82957 0.41631 0.0
H1356 H 0.23113 0.59926 0.31772 0.0
H1357 H 0.22307 0.56221 0.29507 0.0
H1358 H 0.96708 0.54073 0.29272 0.0
H1359 H 0.97603 0.57973 0.31525 0.0
La1360 La 0.52262 0.59577 0.38103 0.0
La1361 La 0.53141 0.58176 0.35153 0.0
C1362 C 0.49332 0.62458 0.40381 0.0
C1363 C 0.4749 0.59703 0.41753 0.0
C1364 C 0.54142 0.60678 0.42602 0.0
C1365 C 0.52472 0.59266 0.43921 0.0
C1366 C 0.44134 0.5695 0.44437 0.0
C1367 C 0.37468 0.55823 0.43577 0.0
C1368 C 0.39123 0.5717 0.42261 0.0
C1369 C 0.49537 0.44132 0.37168 0.0
C1370 C 0.36634 0.57212 0.36259 0.0
C1371 C 0.52887 0.52502 0.32956 0.0
C1372 C 0.57462 0.55768 0.31733 0.0
C1373 C 0.58168 0.63336 0.31155 0.0
C1374 C 0.60536 0.65108 0.29873 0.0
C1375 C 0.62326 0.59403 0.29162 0.0
C1376 C 0.62548 0.52405 0.29781 0.0
C1377 C 0.60071 0.50568 0.31057 0.0
C1378 C 0.5816 0.74697 0.35887 0.0
C1379 C 0.70511 0.65777 0.36701 0.0
O1380 O 0.57247 0.65434 0.39905 0.0
O1381 O 0.43184 0.57945 0.39541 0.0
O1382 O 0.53082 0.47478 0.38262 0.0
O1383 O 0.47058 0.49106 0.36697 0.0
O1384 O 0.41184 0.60885 0.37319 0.0
O1385 O 0.39406 0.53725 0.35399 0.0
O1386 O 0.47877 0.55686 0.33321 0.0
O1387 O 0.57362 0.51672 0.33897 0.0
O1388 O 0.58066 0.72324 0.34712 0.0
O1389 O 0.55781 0.67928 0.36537 0.0
O1390 O 0.65843 0.60331 0.35778 0.0
O1391 O 0.66652 0.67371 0.37685 0.0
H1392 H 0.60707 0.62745 0.42253 0.0
H1393 H 0.57787 0.60105 0.44538 0.0
H1394 H 0.31015 0.54216 0.43921 0.0
H1395 H 0.33881 0.56514 0.41643 0.0
H1396 H 0.5631 0.67536 0.31665 0.0
H1397 H 0.60366 0.7056 0.29414 0.0
H1398 H 0.63825 0.47857 0.2925 0.0
H1399 H 0.59593 0.44725 0.31488 0.0
La1400 La 0.568 0.96535 0.38118 0.0
La1401 La 0.58618 0.98898 0.35167 0.0
C1402 C 0.53533 0.90574 0.40386 0.0
C1403 C 0.56307 0.91297 0.41753 0.0
C1404 C 0.55842 0.97231 0.4261 0.0
C1405 C 0.57308 0.96864 0.43925 0.0
C1406 C 0.59183 0.9049 0.44425 0.0
C1407 C 0.59775 0.84672 0.43558 0.0
C1408 C 0.58364 0.85076 0.42248 0.0
C1409 C 0.72348 0.09323 0.37228 0.0
C1410 C 0.59443 0.83307 0.36292 0.0
C1411 C 0.64544 1.04304 0.32978 0.0
C1412 C 0.61334 1.05439 0.31741 0.0
C1413 C 0.53793 0.98493 0.3117 0.0
C1414 C 0.52032 0.9894 0.29883 0.0
C1415 C 0.57717 1.06375 0.2916 0.0
C1416 C 0.6471 0.13664 0.29768 0.0
C1417 C 0.66536 0.1317 0.31049 0.0
C1418 C 0.42038 0.87348 0.35871 0.0
C1419 C 0.50832 0.08668 0.36671 0.0
O1420 O 0.50997 0.95896 0.39918 0.0
O1421 O 0.5779 0.8863 0.39542 0.0
O1422 O 0.68914 0.09404 0.38319 0.0
O1423 O 0.67449 1.01894 0.36743 0.0
O1424 O 0.55629 0.84152 0.3734 0.0
O1425 O 0.63087 0.89641 0.35444 0.0
O1426 O 0.61481 0.96154 0.33356 0.0
O1427 O 0.65121 0.09599 0.33906 0.0
O1428 O 0.44504 0.89576 0.34697 0.0
O1429 O 0.48737 0.91825 0.36527 0.0
O1430 O 0.56424 0.09464 0.3577 0.0
O1431 O 0.4906 1.03151 0.37655 0.0
H1432 H 0.54141 1.02028 0.42271 0.0
H1433 H 0.5687 1.01539 0.44552 0.0
H1434 H 0.61014 0.79551 0.43893 0.0
H1435 H 0.58601 0.80282 0.41623 0.0
H1436 H 0.49595 0.92491 0.31692 0.0
H1437 H 0.46588 0.93266 0.29432 0.0
H1438 H 0.69244 0.19441 0.29227 0.0
H1439 H 0.7236 0.18595 0.31474 0.0
loop_
_geom_bond_atom_site_label_1
_geom_bond_atom_site_label_2
_geom_bond_distance
_geom_bond_site_symmetry_2
_ccdc_geom_bond_type
La0 C2 2.928 . S
La0 O20 2.521 . S
La0 O21 2.628 . S
La0 O22 2.554 . S
La0 O23 2.757 . S
La0 O24 2.470 . S
La0 O29 2.482 . S
La0 O31 2.503 . S
La1 C11 2.928 . S
La1 O23 2.482 . S
La1 O25 2.503 . S
La1 O26 2.521 . S
La1 O27 2.628 . S
La1 O28 2.554 . S
La1 O29 2.757 . S
La1 O30 2.470 . S
C2 La0 2.928 . S
C2 C3 1.503 . S
C2 O20 1.261 . S
C2 O21 1.243 . S
C3 C2 1.503 . S
C3 C4 1.394 . S
C3 C8 1.373 . S
C4 C3 1.394 . S
C4 C5 1.380 . S
C4 H32 0.930 . S
C5 C4 1.380 . S
C5 C6 1.376 . S
C5 H33 0.930 . S
C6 C5 1.376 . S
C6 C7 1.370 . S
C7 C6 1.370 . S
C7 C8 1.396 . S
C7 H34 0.929 . S
C8 C3 1.373 . S
C8 C7 1.396 . S
C8 H35 0.929 . S
C9 O22 1.240 . S
C9 O23 1.289 . S
C10 O24 1.258 . S
C10 O25 1.256 . S
C11 La1 2.928 . S
C11 C12 1.503 . S
C11 O26 1.261 . S
C11 O27 1.243 . S
C12 C11 1.503 . S
C12 C13 1.394 . S
C12 C17 1.373 . S
C13 C12 1.394 . S
C13 C14 1.380 . S
C13 H36 0.930 . S
C14 C13 1.380 . S
C14 C15 1.376 1_455 S
C14 H37 0.936 . S
C15 C14 1.376 1_655 S
C15 C16 1.370 . S
C16 C15 1.370 . S
C16 C17 1.396 1_655 S
C16 H38 0.929 . S
C17 C12 1.373 . S
C17 C16 1.396 1_455 S
C17 H39 0.929 . S
C18 O28 1.240 . S
C18 O29 1.289 . S
C19 O30 1.258 . S
C19 O31 1.256 . S
O20 La0 2.521 . S
O20 C2 1.261 . S
O21 La0 2.628 . S
O21 C2 1.243 . S
O22 La0 2.554 . S
O22 C9 1.240 . S
O23 La0 2.757 . S
O23 La1 2.482 . S
O23 C9 1.289 . S
O24 La0 2.470 . S
O24 C10 1.258 . S
O25 La1 2.503 . S
O25 C10 1.256 . S
O26 La1 2.521 . S
O26 C11 1.261 . S
O27 La1 2.628 . S
O27 C11 1.243 . S
O28 La1 2.554 . S
O28 C18 1.240 . S
O29 La0 2.482 . S
O29 La1 2.757 . S
O29 C18 1.289 . S
O30 La1 2.470 . S
O30 C19 1.258 . S
O31 La0 2.503 . S
O31 C19 1.256 . S
H32 C4 0.930 . S
H33 C5 0.930 . S
H34 C7 0.929 . S
H35 C8 0.929 . S
H36 C13 0.930 . S
H37 C14 0.936 . S
H38 C16 0.929 . S
H39 C17 0.929 . S
La40 C42 2.928 . S
La40 O60 2.521 . S
La40 O61 2.628 . S
La40 O62 2.554 1_565 S
La40 O63 2.757 1_565 S
La40 O64 2.470 . S
La40 O69 2.482 . S
La40 O71 2.503 . S
La41 C51 2.928 . S
La41 O63 2.482 1_565 S
La41 O65 2.503 . S
La41 O66 2.521 . S
La41 O67 2.628 . S
La41 O68 2.554 . S
La41 O69 2.757 . S
La41 O70 2.470 . S
C42 La40 2.928 . S
C42 C43 1.503 . S
C42 O60 1.261 . S
C42 O61 1.243 . S
C43 C42 1.503 . S
C43 C44 1.394 1_565 S
C43 C48 1.373 . S
C44 C43 1.394 1_545 S
C44 C45 1.380 . S
C44 H72 0.930 . S
C45 C44 1.380 . S
C45 C46 1.376 1_545 S
C45 H73 0.930 . S
C46 C45 1.376 1_565 S
C46 C47 1.370 . S
C47 C46 1.370 . S
C47 C48 1.396 . S
C47 H74 0.929 . S
C48 C43 1.373 . S
C48 C47 1.396 . S
C48 H75 0.929 . S
C49 O62 1.240 . S
C49 O63 1.289 . S
C50 O64 1.258 . S
C50 O65 1.256 . S
C51 La41 2.928 . S
C51 C52 1.503 . S
C51 O66 1.261 . S
C51 O67 1.243 . S
C52 C51 1.503 . S
C52 C53 1.394 . S
C52 C57 1.373 . S
C53 C52 1.394 . S
C53 C54 1.380 . S
C53 H76 0.930 . S
C54 C53 1.380 . S
C54 C55 1.376 . S
C54 H77 0.930 . S
C55 C54 1.376 . S
C55 C56 1.370 . S
C56 C55 1.370 . S
C56 C57 1.396 . S
C56 H78 0.929 . S
C57 C52 1.373 . S
C57 C56 1.396 . S
C57 H79 0.929 . S
C58 O68 1.240 . S
C58 O69 1.289 . S
C59 O70 1.258 . S
C59 O71 1.256 . S
O60 La40 2.521 . S
O60 C42 1.261 . S
O61 La40 2.628 . S
O61 C42 1.243 . S
O62 La40 2.554 1_545 S
O62 C49 1.240 . S
O63 La40 2.757 1_545 S
O63 La41 2.482 1_545 S
O63 C49 1.289 . S
O64 La40 2.470 . S
O64 C50 1.258 . S
O65 La41 2.503 . S
O65 C50 1.256 . S
O66 La41 2.521 . S
O66 C51 1.261 . S
O67 La41 2.628 . S
O67 C51 1.243 . S
O68 La41 2.554 . S
O68 C58 1.240 . S
O69 La40 2.482 . S
O69 La41 2.757 . S
O69 C58 1.289 . S
O70 La41 2.470 . S
O70 C59 1.258 . S
O71 La40 2.503 . S
O71 C59 1.256 . S
H72 C44 0.930 . S
H73 C45 0.930 . S
H74 C47 0.929 . S
H75 C48 0.929 . S
H76 C53 0.930 . S
H77 C54 0.930 . S
H78 C56 0.929 . S
H79 C57 0.929 . S
La80 C82 2.928 . S
La80 O100 2.521 . S
La80 O101 2.628 . S
La80 O102 2.554 1_455 S
La80 O103 2.757 1_455 S
La80 O104 2.470 . S
La80 O109 2.482 . S
La80 O111 2.503 . S
La81 C91 2.928 . S
La81 O103 2.482 1_455 S
La81 O105 2.503 . S
La81 O106 2.521 . S
La81 O107 2.628 . S
La81 O108 2.554 . S
La81 O109 2.757 . S
La81 O110 2.470 . S
C82 La80 2.928 . S
C82 C83 1.503 . S
C82 O100 1.261 . S
C82 O101 1.243 . S
C83 C82 1.503 . S
C83 C84 1.394 1_455 S
C83 C88 1.373 . S
C84 C83 1.394 1_655 S
C84 C85 1.380 . S
C84 H112 0.930 . S
C85 C84 1.380 . S
C85 C86 1.376 1_655 S
C85 H113 0.930 . S
C86 C85 1.376 1_455 S
C86 C87 1.370 . S
C87 C86 1.370 . S
C87 C88 1.396 . S
C87 H114 0.929 . S
C88 C83 1.373 . S
C88 C87 1.396 . S
C88 H115 0.929 . S
C89 O102 1.240 . S
C89 O103 1.289 . S
C90 O104 1.258 . S
C90 O105 1.256 . S
C91 La81 2.928 . S
C91 C92 1.503 . S
C91 O106 1.261 . S
C91 O107 1.243 . S
C92 C91 1.503 . S
C92 C93 1.394 . S
C92 C97 1.373 . S
C93 C92 1.394 . S
C93 C94 1.380 . S
C93 H116 0.930 . S
C94 C93 1.380 . S
C94 C95 1.376 1_565 S
C94 H117 0.927 . S
C95 C94 1.376 1_545 S
C95 C96 1.370 . S
C96 C95 1.370 . S
C96 C97 1.396 1_545 S
C96 H118 0.929 . S
C97 C92 1.373 . S
C97 C96 1.396 1_565 S
C97 H119 0.929 . S
C98 O108 1.240 . S
C98 O109 1.289 . S
C99 O110 1.258 . S
C99 O111 1.256 . S
O100 La80 2.521 . S
O100 C82 1.261 . S
O101 La80 2.628 . S
O101 C82 1.243 . S
O102 La80 2.554 1_655 S
O102 C89 1.240 . S
O103 La80 2.757 1_655 S
O103 La81 2.482 1_655 S
O103 C89 1.289 . S
O104 La80 2.470 . S
O104 C90 1.258 . S
O105 La81 2.503 . S
O105 C90 1.256 . S
O106 La81 2.521 . S
O106 C91 1.261 . S
O107 La81 2.628 . S
O107 C91 1.243 . S
O108 La81 2.554 . S
O108 C98 1.240 . S
O109 La80 2.482 . S
O109 La81 2.757 . S
O109 C98 1.289 . S
O110 La81 2.470 . S
O110 C99 1.258 . S
O111 La80 2.503 . S
O111 C99 1.256 . S
H112 C84 0.930 . S
H113 C85 0.930 . S
H114 C87 0.929 . S
H115 C88 0.929 . S
H116 C93 0.930 . S
H117 C94 0.927 . S
H118 C96 0.929 . S
H119 C97 0.929 . S
La120 C122 2.928 . S
La120 O140 2.521 . S
La120 O141 2.628 . S
La120 O142 2.554 . S
La120 O143 2.757 . S
La120 O144 2.470 . S
La120 O149 2.482 . S
La120 O151 2.503 . S
La121 C131 2.928 . S
La121 O143 2.482 . S
La121 O145 2.503 . S
La121 O146 2.521 . S
La121 O147 2.628 . S
La121 O148 2.554 . S
La121 O149 2.757 . S
La121 O150 2.470 . S
C122 La120 2.928 . S
C122 C123 1.503 . S
C122 O140 1.261 . S
C122 O141 1.243 . S
C123 C122 1.503 . S
C123 C124 1.394 . S
C123 C128 1.373 . S
C124 C123 1.394 . S
C124 C125 1.380 . S
C124 H152 0.930 . S
C125 C124 1.380 . S
C125 C126 1.376 . S
C125 H153 0.930 . S
C126 C125 1.376 . S
C126 C127 1.370 . S
C127 C126 1.370 . S
C127 C128 1.396 . S
C127 H154 0.929 . S
C128 C123 1.373 . S
C128 C127 1.396 . S
C128 H155 0.929 . S
C129 O142 1.240 . S
C129 O143 1.289 . S
C130 O144 1.258 . S
C130 O145 1.256 . S
C131 La121 2.928 . S
C131 C132 1.503 . S
C131 O146 1.261 . S
C131 O147 1.243 . S
C132 C131 1.503 . S
C132 C133 1.394 . S
C132 C137 1.373 . S
C133 C132 1.394 . S
C133 C134 1.380 . S
C133 H156 0.930 . S
C134 C133 1.380 . S
C134 C135 1.376 1_545 S
C134 H157 0.930 . S
C135 C134 1.376 1_565 S
C135 C136 1.370 . S
C136 C135 1.370 . S
C136 C137 1.396 1_565 S
C136 H158 0.929 . S
C137 C132 1.373 . S
C137 C136 1.396 1_545 S
C137 H159 0.929 . S
C138 O148 1.240 . S
C138 O149 1.289 . S
C139 O150 1.258 . S
C139 O151 1.256 . S
O140 La120 2.521 . S
O140 C122 1.261 . S
O141 La120 2.628 . S
O141 C122 1.243 . S
O142 La120 2.554 . S
O142 C129 1.240 . S
O143 La120 2.757 . S
O143 La121 2.482 . S
O143 C129 1.289 . S
O144 La120 2.470 . S
O144 C130 1.258 . S
O145 La121 2.503 . S
O145 C130 1.256 . S
O146 La121 2.521 . S
O146 C131 1.261 . S
O147 La121 2.628 . S
O147 C131 1.243 . S
O148 La121 2.554 . S
O148 C138 1.240 . S
O149 La120 2.482 . S
O149 La121 2.757 . S
O149 C138 1.289 . S
O150 La121 2.470 . S
O150 C139 1.258 . S
O151 La120 2.503 . S
O151 C139 1.256 . S
H152 C124 0.930 . S
H153 C125 0.930 . S
H154 C127 0.929 . S
H155 C128 0.929 . S
H156 C133 0.930 . S
H157 C134 0.930 . S
H158 C136 0.929 . S
H159 C137 0.929 . S
La160 C162 2.928 . S
La160 O180 2.521 . S
La160 O181 2.628 . S
La160 O182 2.554 1_545 S
La160 O183 2.754 1_545 S
La160 O184 2.470 . S
La160 O189 2.482 . S
La160 O191 2.503 . S
La161 C171 2.928 . S
La161 O183 2.478 1_545 S
La161 O185 2.503 . S
La161 O186 2.521 . S
La161 O187 2.628 . S
La161 O188 2.554 . S
La161 O189 2.757 . S
La161 O190 2.470 . S
C162 La160 2.928 . S
C162 C163 1.503 . S
C162 O180 1.261 . S
C162 O181 1.243 . S
C163 C162 1.503 . S
C163 C164 1.394 . S
C163 C168 1.373 . S
C164 C163 1.394 . S
C164 C165 1.380 1_545 S
C164 H192 0.930 1_545 S
C165 C164 1.380 1_565 S
C165 C166 1.376 1_565 S
C165 H193 0.930 . S
C166 C165 1.376 1_545 S
C166 C167 1.370 . S
C167 C166 1.370 . S
C167 C168 1.396 . S
C167 H194 0.929 . S
C168 C163 1.373 . S
C168 C167 1.396 . S
C168 H195 0.929 . S
C169 O182 1.240 . S
C169 O183 1.294 . S
C170 O184 1.258 . S
C170 O185 1.256 . S
C171 La161 2.928 . S
C171 C172 1.503 . S
C171 O186 1.261 . S
C171 O187 1.243 . S
C172 C171 1.503 . S
C172 C173 1.394 . S
C172 C177 1.373 . S
C173 C172 1.394 . S
C173 C174 1.380 . S
C173 H196 0.930 . S
C174 C173 1.380 . S
C174 C175 1.376 1_655 S
C174 H197 0.930 . S
C175 C174 1.376 1_455 S
C175 C176 1.370 . S
C176 C175 1.370 . S
C176 C177 1.396 1_455 S
C176 H198 0.929 . S
C177 C172 1.373 . S
C177 C176 1.396 1_655 S
C177 H199 0.929 . S
C178 O188 1.240 . S
C178 O189 1.289 . S
C179 O190 1.258 . S
C179 O191 1.256 . S
O180 La160 2.521 . S
O180 C162 1.261 . S
O181 La160 2.628 . S
O181 C162 1.243 . S
O182 La160 2.554 1_565 S
O182 C169 1.240 . S
O183 La160 2.754 1_565 S
O183 La161 2.478 1_565 S
O183 C169 1.294 . S
O184 La160 2.470 . S
O184 C170 1.258 . S
O185 La161 2.503 . S
O185 C170 1.256 . S
O186 La161 2.521 . S
O186 C171 1.261 . S
O187 La161 2.628 . S
O187 C171 1.243 . S
O188 La161 2.554 . S
O188 C178 1.240 . S
O189 La160 2.482 . S
O189 La161 2.757 . S
O189 C178 1.289 . S
O190 La161 2.470 . S
O190 C179 1.258 . S
O191 La160 2.503 . S
O191 C179 1.256 . S
H192 C164 0.930 1_565 S
H193 C165 0.930 . S
H194 C167 0.929 . S
H195 C168 0.929 . S
H196 C173 0.930 . S
H197 C174 0.930 . S
H198 C176 0.929 . S
H199 C177 0.929 . S
La200 C202 2.928 . S
La200 O220 2.521 . S
La200 O221 2.628 . S
La200 O222 2.554 1_655 S
La200 O223 2.752 1_655 S
La200 O224 2.470 . S
La200 O229 2.482 . S
La200 O231 2.503 . S
La201 C211 2.928 . S
La201 O223 2.478 1_655 S
La201 O225 2.503 . S
La201 O226 2.521 . S
La201 O227 2.628 . S
La201 O228 2.554 . S
La201 O229 2.757 . S
La201 O230 2.470 . S
C202 La200 2.928 . S
C202 C203 1.503 . S
C202 O220 1.261 . S
C202 O221 1.243 . S
C203 C202 1.503 . S
C203 C204 1.394 . S
C203 C208 1.373 . S
C204 C203 1.394 . S
C204 C205 1.380 1_655 S
C204 H232 0.930 1_655 S
C205 C204 1.380 1_455 S
C205 C206 1.376 1_455 S
C205 H233 0.930 . S
C206 C205 1.376 1_655 S
C206 C207 1.370 . S
C207 C206 1.370 . S
C207 C208 1.396 . S
C207 H234 0.929 . S
C208 C203 1.373 . S
C208 C207 1.396 . S
C208 H235 0.929 . S
C209 O222 1.240 . S
C209 O223 1.297 . S
C210 O224 1.258 . S
C210 O225 1.256 . S
C211 La201 2.928 . S
C211 C212 1.503 . S
C211 O226 1.261 . S
C211 O227 1.243 . S
C212 C211 1.503 . S
C212 C213 1.394 . S
C212 C217 1.373 . S
C213 C212 1.394 . S
C213 C214 1.380 . S
C213 H236 0.930 . S
C214 C213 1.380 . S
C214 C215 1.376 . S
C214 H237 0.930 . S
C215 C214 1.376 . S
C215 C216 1.370 . S
C216 C215 1.370 . S
C216 C217 1.396 . S
C216 H238 0.929 . S
C217 C212 1.373 . S
C217 C216 1.396 . S
C217 H239 0.929 . S
C218 O228 1.240 . S
C218 O229 1.289 . S
C219 O230 1.258 . S
C219 O231 1.256 . S
O220 La200 2.521 . S
O220 C202 1.261 . S
O221 La200 2.628 . S
O221 C202 1.243 . S
O222 La200 2.554 1_455 S
O222 C209 1.240 . S
O223 La200 2.752 1_455 S
O223 La201 2.478 1_455 S
O223 C209 1.297 . S
O224 La200 2.470 . S
O224 C210 1.258 . S
O225 La201 2.503 . S
O225 C210 1.256 . S
O226 La201 2.521 . S
O226 C211 1.261 . S
O227 La201 2.628 . S
O227 C211 1.243 . S
O228 La201 2.554 . S
O228 C218 1.240 . S
O229 La200 2.482 . S
O229 La201 2.757 . S
O229 C218 1.289 . S
O230 La201 2.470 . S
O230 C219 1.258 . S
O231 La200 2.503 . S
O231 C219 1.256 . S
H232 C204 0.930 1_455 S
H233 C205 0.930 . S
H234 C207 0.929 . S
H235 C208 0.929 . S
H236 C213 0.930 . S
H237 C214 0.930 . S
H238 C216 0.929 . S
H239 C217 0.929 . S
La240 C242 2.928 . S
La240 O260 2.521 . S
La240 O261 2.628 . S
La240 O262 2.554 . S
La240 O263 2.757 . S
La240 O264 2.470 . S
La240 O269 2.482 . S
La240 O271 2.503 . S
La241 C251 2.928 . S
La241 O263 2.482 . S
La241 O265 2.503 . S
La241 O266 2.521 . S
La241 O267 2.628 . S
La241 O268 2.554 . S
La241 O269 2.757 . S
La241 O270 2.470 . S
C242 La240 2.928 . S
C242 C243 1.503 . S
C242 O260 1.261 . S
C242 O261 1.243 . S
C243 C242 1.503 . S
C243 C244 1.394 . S
C243 C248 1.373 . S
C244 C243 1.394 . S
C244 C245 1.380 . S
C244 H272 0.930 . S
C245 C244 1.380 . S
C245 C246 1.376 1_655 S
C245 H273 0.936 . S
C246 C245 1.376 1_455 S
C246 C247 1.370 . S
C247 C246 1.370 . S
C247 C248 1.396 1_455 S
C247 H274 0.929 . S
C248 C243 1.373 . S
C248 C247 1.396 1_655 S
C248 H275 0.929 . S
C249 O262 1.240 . S
C249 O263 1.289 . S
C250 O264 1.258 . S
C250 O265 1.256 . S
C251 La241 2.928 . S
C251 C252 1.503 . S
C251 O266 1.261 . S
C251 O267 1.243 . S
C252 C251 1.503 . S
C252 C253 1.394 . S
C252 C257 1.373 . S
C253 C252 1.394 . S
C253 C254 1.380 . S
C253 H276 0.930 . S
C254 C253 1.380 . S
C254 C255 1.376 . S
C254 H277 0.930 . S
C255 C254 1.376 . S
C255 C256 1.370 . S
C256 C255 1.370 . S
C256 C257 1.396 . S
C256 H278 0.929 . S
C257 C252 1.373 . S
C257 C256 1.396 . S
C257 H279 0.929 . S
C258 O268 1.240 . S
C258 O269 1.289 . S
C259 O270 1.258 . S
C259 O271 1.256 . S
O260 La240 2.521 . S
O260 C242 1.261 . S
O261 La240 2.628 . S
O261 C242 1.243 . S
O262 La240 2.554 . S
O262 C249 1.240 . S
O263 La240 2.757 . S
O263 La241 2.482 . S
O263 C249 1.289 . S
O264 La240 2.470 . S
O264 C250 1.258 . S
O265 La241 2.503 . S
O265 C250 1.256 . S
O266 La241 2.521 . S
O266 C251 1.261 . S
O267 La241 2.628 . S
O267 C251 1.243 . S
O268 La241 2.554 . S
O268 C258 1.240 . S
O269 La240 2.482 . S
O269 La241 2.757 . S
O269 C258 1.289 . S
O270 La241 2.470 . S
O270 C259 1.258 . S
O271 La240 2.503 . S
O271 C259 1.256 . S
H272 C244 0.930 . S
H273 C245 0.936 . S
H274 C247 0.929 . S
H275 C248 0.929 . S
H276 C253 0.930 . S
H277 C254 0.930 . S
H278 C256 0.929 . S
H279 C257 0.929 . S
La280 C282 2.928 . S
La280 O300 2.521 . S
La280 O301 2.628 . S
La280 O302 2.554 . S
La280 O303 2.757 . S
La280 O304 2.470 . S
La280 O309 2.482 1_545 S
La280 O311 2.503 . S
La281 C291 2.928 . S
La281 O303 2.482 . S
La281 O305 2.503 . S
La281 O306 2.521 . S
La281 O307 2.628 . S
La281 O308 2.554 1_545 S
La281 O309 2.757 1_545 S
La281 O310 2.470 . S
C282 La280 2.928 . S
C282 C283 1.503 . S
C282 O300 1.261 . S
C282 O301 1.243 . S
C283 C282 1.503 . S
C283 C284 1.394 . S
C283 C288 1.373 . S
C284 C283 1.394 . S
C284 C285 1.380 . S
C284 H312 0.930 . S
C285 C284 1.380 . S
C285 C286 1.376 . S
C285 H313 0.930 . S
C286 C285 1.376 . S
C286 C287 1.370 . S
C287 C286 1.370 . S
C287 C288 1.396 . S
C287 H314 0.929 . S
C288 C283 1.373 . S
C288 C287 1.396 . S
C288 H315 0.929 . S
C289 O302 1.240 . S
C289 O303 1.289 . S
C290 O304 1.258 . S
C290 O305 1.256 . S
C291 La281 2.928 . S
C291 C292 1.503 . S
C291 O306 1.261 . S
C291 O307 1.243 . S
C292 C291 1.503 . S
C292 C293 1.394 1_545 S
C292 C297 1.373 . S
C293 C292 1.394 1_565 S
C293 C294 1.380 . S
C293 H316 0.930 . S
C294 C293 1.380 . S
C294 C295 1.376 1_565 S
C294 H317 0.930 . S
C295 C294 1.376 1_545 S
C295 C296 1.370 . S
C296 C295 1.370 . S
C296 C297 1.396 . S
C296 H318 0.929 . S
C297 C292 1.373 . S
C297 C296 1.396 . S
C297 H319 0.929 . S
C298 O308 1.240 . S
C298 O309 1.289 . S
C299 O310 1.258 . S
C299 O311 1.256 . S
O300 La280 2.521 . S
O300 C282 1.261 . S
O301 La280 2.628 . S
O301 C282 1.243 . S
O302 La280 2.554 . S
O302 C289 1.240 . S
O303 La280 2.757 . S
O303 La281 2.482 . S
O303 C289 1.289 . S
O304 La280 2.470 . S
O304 C290 1.258 . S
O305 La281 2.503 . S
O305 C290 1.256 . S
O306 La281 2.521 . S
O306 C291 1.261 . S
O307 La281 2.628 . S
O307 C291 1.243 . S
O308 La281 2.554 1_565 S
O308 C298 1.240 . S
O309 La280 2.482 1_565 S
O309 La281 2.757 1_565 S
O309 C298 1.289 . S
O310 La281 2.470 . S
O310 C299 1.258 . S
O311 La280 2.503 . S
O311 C299 1.256 . S
H312 C284 0.930 . S
H313 C285 0.930 . S
H314 C287 0.929 . S
H315 C288 0.929 . S
H316 C293 0.930 . S
H317 C294 0.930 . S
H318 C296 0.929 . S
H319 C297 0.929 . S
La320 C322 2.928 . S
La320 O340 2.521 . S
La320 O341 2.628 . S
La320 O342 2.554 . S
La320 O343 2.757 . S
La320 O344 2.470 . S
La320 O349 2.482 1_655 S
La320 O351 2.503 . S
La321 C331 2.928 . S
La321 O343 2.482 . S
La321 O345 2.503 . S
La321 O346 2.521 . S
La321 O347 2.628 . S
La321 O348 2.554 1_655 S
La321 O349 2.757 1_655 S
La321 O350 2.470 . S
C322 La320 2.928 . S
C322 C323 1.503 . S
C322 O340 1.261 . S
C322 O341 1.243 . S
C323 C322 1.503 . S
C323 C324 1.394 . S
C323 C328 1.373 . S
C324 C323 1.394 . S
C324 C325 1.380 . S
C324 H352 0.930 . S
C325 C324 1.380 . S
C325 C326 1.376 1_545 S
C325 H353 0.927 . S
C326 C325 1.376 1_565 S
C326 C327 1.370 . S
C327 C326 1.370 . S
C327 C328 1.396 1_565 S
C327 H354 0.929 . S
C328 C323 1.373 . S
C328 C327 1.396 1_545 S
C328 H355 0.929 . S
C329 O342 1.240 . S
C329 O343 1.289 . S
C330 O344 1.258 . S
C330 O345 1.256 . S
C331 La321 2.928 . S
C331 C332 1.503 . S
C331 O346 1.261 . S
C331 O347 1.243 . S
C332 C331 1.503 . S
C332 C333 1.394 1_655 S
C332 C337 1.373 . S
C333 C332 1.394 1_455 S
C333 C334 1.380 . S
C333 H356 0.930 . S
C334 C333 1.380 . S
C334 C335 1.376 1_455 S
C334 H357 0.930 . S
C335 C334 1.376 1_655 S
C335 C336 1.370 . S
C336 C335 1.370 . S
C336 C337 1.396 . S
C336 H358 0.929 . S
C337 C332 1.373 . S
C337 C336 1.396 . S
C337 H359 0.929 . S
C338 O348 1.240 . S
C338 O349 1.289 . S
C339 O350 1.258 . S
C339 O351 1.256 . S
O340 La320 2.521 . S
O340 C322 1.261 . S
O341 La320 2.628 . S
O341 C322 1.243 . S
O342 La320 2.554 . S
O342 C329 1.240 . S
O343 La320 2.757 . S
O343 La321 2.482 . S
O343 C329 1.289 . S
O344 La320 2.470 . S
O344 C330 1.258 . S
O345 La321 2.503 . S
O345 C330 1.256 . S
O346 La321 2.521 . S
O346 C331 1.261 . S
O347 La321 2.628 . S
O347 C331 1.243 . S
O348 La321 2.554 1_455 S
O348 C338 1.240 . S
O349 La320 2.482 1_455 S
O349 La321 2.757 1_455 S
O349 C338 1.289 . S
O350 La321 2.470 . S
O350 C339 1.258 . S
O351 La320 2.503 . S
O351 C339 1.256 . S
H352 C324 0.930 . S
H353 C325 0.927 . S
H354 C327 0.929 . S
H355 C328 0.929 . S
H356 C333 0.930 . S
H357 C334 0.930 . S
H358 C336 0.929 . S
H359 C337 0.929 . S
La360 C362 2.928 . S
La360 O380 2.521 . S
La360 O381 2.628 . S
La360 O382 2.554 . S
La360 O383 2.757 . S
La360 O384 2.470 . S
La360 O389 2.482 . S
La360 O391 2.503 . S
La361 C371 2.928 . S
La361 O383 2.482 . S
La361 O385 2.503 . S
La361 O386 2.521 . S
La361 O387 2.628 . S
La361 O388 2.554 . S
La361 O389 2.757 . S
La361 O390 2.470 . S
C362 La360 2.928 . S
C362 C363 1.503 . S
C362 O380 1.261 . S
C362 O381 1.243 . S
C363 C362 1.503 . S
C363 C364 1.394 . S
C363 C368 1.373 . S
C364 C363 1.394 . S
C364 C365 1.380 . S
C364 H392 0.930 . S
C365 C364 1.380 . S
C365 C366 1.376 1_565 S
C365 H393 0.930 . S
C366 C365 1.376 1_545 S
C366 C367 1.370 . S
C367 C366 1.370 . S
C367 C368 1.396 1_545 S
C367 H394 0.929 . S
C368 C363 1.373 . S
C368 C367 1.396 1_565 S
C368 H395 0.929 . S
C369 O382 1.240 . S
C369 O383 1.289 . S
C370 O384 1.258 . S
C370 O385 1.256 . S
C371 La361 2.928 . S
C371 C372 1.503 . S
C371 O386 1.261 . S
C371 O387 1.243 . S
C372 C371 1.503 . S
C372 C373 1.394 . S
C372 C377 1.373 . S
C373 C372 1.394 . S
C373 C374 1.380 . S
C373 H396 0.930 . S
C374 C373 1.380 . S
C374 C375 1.376 . S
C374 H397 0.930 . S
C375 C374 1.376 . S
C375 C376 1.370 . S
C376 C375 1.370 . S
C376 C377 1.396 . S
C376 H398 0.929 . S
C377 C372 1.373 . S
C377 C376 1.396 . S
C377 H399 0.929 . S
C378 O388 1.240 . S
C378 O389 1.289 . S
C379 O390 1.258 . S
C379 O391 1.256 . S
O380 La360 2.521 . S
O380 C362 1.261 . S
O381 La360 2.628 . S
O381 C362 1.243 . S
O382 La360 2.554 . S
O382 C369 1.240 . S
O383 La360 2.757 . S
O383 La361 2.482 . S
O383 C369 1.289 . S
O384 La360 2.470 . S
O384 C370 1.258 . S
O385 La361 2.503 . S
O385 C370 1.256 . S
O386 La361 2.521 . S
O386 C371 1.261 . S
O387 La361 2.628 . S
O387 C371 1.243 . S
O388 La361 2.554 . S
O388 C378 1.240 . S
O389 La360 2.482 . S
O389 La361 2.757 . S
O389 C378 1.289 . S
O390 La361 2.470 . S
O390 C379 1.258 . S
O391 La360 2.503 . S
O391 C379 1.256 . S
H392 C364 0.930 . S
H393 C365 0.930 . S
H394 C367 0.929 . S
H395 C368 0.929 . S
H396 C373 0.930 . S
H397 C374 0.930 . S
H398 C376 0.929 . S
H399 C377 0.929 . S
La400 C402 2.928 . S
La400 O420 2.521 . S
La400 O421 2.628 . S
La400 O422 2.554 . S
La400 O423 2.757 . S
La400 O424 2.470 . S
La400 O429 2.478 1_565 S
La400 O431 2.503 . S
La401 C411 2.928 . S
La401 O423 2.482 . S
La401 O425 2.503 . S
La401 O426 2.521 . S
La401 O427 2.628 . S
La401 O428 2.554 1_565 S
La401 O429 2.754 1_565 S
La401 O430 2.470 . S
C402 La400 2.928 . S
C402 C403 1.503 . S
C402 O420 1.261 . S
C402 O421 1.243 . S
C403 C402 1.503 . S
C403 C404 1.394 . S
C403 C408 1.373 . S
C404 C403 1.394 . S
C404 C405 1.380 . S
C404 H432 0.930 . S
C405 C404 1.380 . S
C405 C406 1.376 1_455 S
C405 H433 0.930 . S
C406 C405 1.376 1_655 S
C406 C407 1.370 . S
C407 C406 1.370 . S
C407 C408 1.396 1_655 S
C407 H434 0.929 . S
C408 C403 1.373 . S
C408 C407 1.396 1_455 S
C408 H435 0.929 . S
C409 O422 1.240 . S
C409 O423 1.289 . S
C410 O424 1.258 . S
C410 O425 1.256 . S
C411 La401 2.928 . S
C411 C412 1.503 . S
C411 O426 1.261 . S
C411 O427 1.243 . S
C412 C411 1.503 . S
C412 C413 1.394 . S
C412 C417 1.373 . S
C413 C412 1.394 . S
C413 C414 1.380 1_565 S
C413 H436 0.930 1_565 S
C414 C413 1.380 1_545 S
C414 C415 1.376 1_545 S
C414 H437 0.930 . S
C415 C414 1.376 1_565 S
C415 C416 1.370 . S
C416 C415 1.370 . S
C416 C417 1.396 . S
C416 H438 0.929 . S
C417 C412 1.373 . S
C417 C416 1.396 . S
C417 H439 0.929 . S
C418 O428 1.240 . S
C418 O429 1.294 . S
C419 O430 1.258 . S
C419 O431 1.256 . S
O420 La400 2.521 . S
O420 C402 1.261 . S
O421 La400 2.628 . S
O421 C402 1.243 . S
O422 La400 2.554 . S
O422 C409 1.240 . S
O423 La400 2.757 . S
O423 La401 2.482 . S
O423 C409 1.289 . S
O424 La400 2.470 . S
O424 C410 1.258 . S
O425 La401 2.503 . S
O425 C410 1.256 . S
O426 La401 2.521 . S
O426 C411 1.261 . S
O427 La401 2.628 . S
O427 C411 1.243 . S
O428 La401 2.554 1_545 S
O428 C418 1.240 . S
O429 La400 2.478 1_545 S
O429 La401 2.754 1_545 S
O429 C418 1.294 . S
O430 La401 2.470 . S
O430 C419 1.258 . S
O431 La400 2.503 . S
O431 C419 1.256 . S
H432 C404 0.930 . S
H433 C405 0.930 . S
H434 C407 0.929 . S
H435 C408 0.929 . S
H436 C413 0.930 1_545 S
H437 C414 0.930 . S
H438 C416 0.929 . S
H439 C417 0.929 . S
La440 C442 2.928 . S
La440 O460 2.521 . S
La440 O461 2.628 . S
La440 O462 2.554 . S
La440 O463 2.757 . S
La440 O464 2.470 . S
La440 O469 2.479 1_455 S
La440 O471 2.503 . S
La441 C451 2.928 . S
La441 O463 2.482 . S
La441 O465 2.503 . S
La441 O466 2.521 . S
La441 O467 2.628 . S
La441 O468 2.554 1_455 S
La441 O469 2.753 1_455 S
La441 O470 2.470 . S
C442 La440 2.928 . S
C442 C443 1.503 . S
C442 O460 1.261 . S
C442 O461 1.243 . S
C443 C442 1.503 . S
C443 C444 1.394 . S
C443 C448 1.373 . S
C444 C443 1.394 . S
C444 C445 1.380 . S
C444 H472 0.930 . S
C445 C444 1.380 . S
C445 C446 1.376 . S
C445 H473 0.930 . S
C446 C445 1.376 . S
C446 C447 1.370 . S
C447 C446 1.370 . S
C447 C448 1.396 . S
C447 H474 0.929 . S
C448 C443 1.373 . S
C448 C447 1.396 . S
C448 H475 0.929 . S
C449 O462 1.240 . S
C449 O463 1.289 . S
C450 O464 1.258 . S
C450 O465 1.256 . S
C451 La441 2.928 . S
C451 C452 1.503 . S
C451 O466 1.261 . S
C451 O467 1.243 . S
C452 C451 1.503 . S
C452 C453 1.394 . S
C452 C457 1.373 . S
C453 C452 1.394 . S
C453 C454 1.380 1_455 S
C453 H476 0.930 1_455 S
C454 C453 1.380 1_655 S
C454 C455 1.376 1_655 S
C454 H477 0.930 . S
C455 C454 1.376 1_455 S
C455 C456 1.370 . S
C456 C455 1.370 . S
C456 C457 1.396 . S
C456 H478 0.929 . S
C457 C452 1.373 . S
C457 C456 1.396 . S
C457 H479 0.929 . S
C458 O468 1.240 . S
C458 O469 1.296 . S
C459 O470 1.258 . S
C459 O471 1.256 . S
O460 La440 2.521 . S
O460 C442 1.261 . S
O461 La440 2.628 . S
O461 C442 1.243 . S
O462 La440 2.554 . S
O462 C449 1.240 . S
O463 La440 2.757 . S
O463 La441 2.482 . S
O463 C449 1.289 . S
O464 La440 2.470 . S
O464 C450 1.258 . S
O465 La441 2.503 . S
O465 C450 1.256 . S
O466 La441 2.521 . S
O466 C451 1.261 . S
O467 La441 2.628 . S
O467 C451 1.243 . S
O468 La441 2.554 1_655 S
O468 C458 1.240 . S
O469 La440 2.479 1_655 S
O469 La441 2.753 1_655 S
O469 C458 1.296 . S
O470 La441 2.470 . S
O470 C459 1.258 . S
O471 La440 2.503 . S
O471 C459 1.256 . S
H472 C444 0.930 . S
H473 C445 0.930 . S
H474 C447 0.929 . S
H475 C448 0.929 . S
H476 C453 0.930 1_655 S
H477 C454 0.930 . S
H478 C456 0.929 . S
H479 C457 0.929 . S
La480 C482 2.928 . S
La480 O500 2.521 . S
La480 O501 2.628 . S
La480 O502 2.554 . S
La480 O503 2.757 . S
La480 O504 2.470 . S
La480 O509 2.482 . S
La480 O511 2.503 . S
La481 C491 2.928 . S
La481 O503 2.482 . S
La481 O505 2.503 . S
La481 O506 2.521 . S
La481 O507 2.628 . S
La481 O508 2.554 . S
La481 O509 2.757 . S
La481 O510 2.470 . S
C482 La480 2.928 . S
C482 C483 1.503 . S
C482 O500 1.261 . S
C482 O501 1.243 . S
C483 C482 1.503 . S
C483 C484 1.394 . S
C483 C488 1.373 . S
C484 C483 1.394 . S
C484 C485 1.380 . S
C484 H512 0.930 . S
C485 C484 1.380 . S
C485 C486 1.376 1_655 S
C485 H513 0.930 . S
C486 C485 1.376 1_455 S
C486 C487 1.370 1_455 S
C487 C486 1.370 1_655 S
C487 C488 1.396 . S
C487 H514 0.929 1_655 S
C488 C483 1.373 . S
C488 C487 1.396 . S
C488 H515 0.929 . S
C489 O502 1.240 . S
C489 O503 1.289 . S
C490 O504 1.258 . S
C490 O505 1.256 . S
C491 La481 2.928 . S
C491 C492 1.503 . S
C491 O506 1.261 . S
C491 O507 1.243 . S
C492 C491 1.503 . S
C492 C493 1.394 . S
C492 C497 1.373 . S
C493 C492 1.394 . S
C493 C494 1.380 . S
C493 H516 0.930 . S
C494 C493 1.380 . S
C494 C495 1.376 . S
C494 H517 0.930 . S
C495 C494 1.376 . S
C495 C496 1.370 . S
C496 C495 1.370 . S
C496 C497 1.396 . S
C496 H518 0.929 . S
C497 C492 1.373 . S
C497 C496 1.396 . S
C497 H519 0.929 . S
C498 O508 1.240 . S
C498 O509 1.289 . S
C499 O510 1.258 . S
C499 O511 1.256 . S
O500 La480 2.521 . S
O500 C482 1.261 . S
O501 La480 2.628 . S
O501 C482 1.243 . S
O502 La480 2.554 . S
O502 C489 1.240 . S
O503 La480 2.757 . S
O503 La481 2.482 . S
O503 C489 1.289 . S
O504 La480 2.470 . S
O504 C490 1.258 . S
O505 La481 2.503 . S
O505 C490 1.256 . S
O506 La481 2.521 . S
O506 C491 1.261 . S
O507 La481 2.628 . S
O507 C491 1.243 . S
O508 La481 2.554 . S
O508 C498 1.240 . S
O509 La480 2.482 . S
O509 La481 2.757 . S
O509 C498 1.289 . S
O510 La481 2.470 . S
O510 C499 1.258 . S
O511 La480 2.503 . S
O511 C499 1.256 . S
H512 C484 0.930 . S
H513 C485 0.930 . S
H514 C487 0.929 1_455 S
H515 C488 0.929 . S
H516 C493 0.930 . S
H517 C494 0.930 . S
H518 C496 0.929 . S
H519 C497 0.929 . S
La520 C522 2.928 . S
La520 O540 2.521 . S
La520 O541 2.628 . S
La520 O542 2.554 . S
La520 O543 2.757 . S
La520 O544 2.470 . S
La520 O549 2.482 . S
La520 O551 2.503 . S
La521 C531 2.928 . S
La521 O543 2.482 . S
La521 O545 2.503 . S
La521 O546 2.521 . S
La521 O547 2.628 . S
La521 O548 2.554 . S
La521 O549 2.757 . S
La521 O550 2.470 . S
C522 La520 2.928 . S
C522 C523 1.503 . S
C522 O540 1.261 . S
C522 O541 1.243 . S
C523 C522 1.503 . S
C523 C524 1.394 . S
C523 C528 1.373 . S
C524 C523 1.394 . S
C524 C525 1.380 . S
C524 H552 0.930 . S
C525 C524 1.380 . S
C525 C526 1.376 . S
C525 H553 0.930 . S
C526 C525 1.376 . S
C526 C527 1.370 . S
C527 C526 1.370 . S
C527 C528 1.396 . S
C527 H554 0.929 . S
C528 C523 1.373 . S
C528 C527 1.396 . S
C528 H555 0.929 . S
C529 O542 1.240 . S
C529 O543 1.289 . S
C530 O544 1.258 . S
C530 O545 1.256 . S
C531 La521 2.928 . S
C531 C532 1.503 . S
C531 O546 1.261 . S
C531 O547 1.243 . S
C532 C531 1.503 . S
C532 C533 1.394 . S
C532 C537 1.373 . S
C533 C532 1.394 . S
C533 C534 1.380 . S
C533 H556 0.930 . S
C534 C533 1.380 . S
C534 C535 1.376 . S
C534 H557 0.930 . S
C535 C534 1.376 . S
C535 C536 1.370 . S
C536 C535 1.370 . S
C536 C537 1.396 . S
C536 H558 0.929 . S
C537 C532 1.373 . S
C537 C536 1.396 . S
C537 H559 0.929 . S
C538 O548 1.240 . S
C538 O549 1.289 . S
C539 O550 1.258 . S
C539 O551 1.256 . S
O540 La520 2.521 . S
O540 C522 1.261 . S
O541 La520 2.628 . S
O541 C522 1.243 . S
O542 La520 2.554 . S
O542 C529 1.240 . S
O543 La520 2.757 . S
O543 La521 2.482 . S
O543 C529 1.289 . S
O544 La520 2.470 . S
O544 C530 1.258 . S
O545 La521 2.503 . S
O545 C530 1.256 . S
O546 La521 2.521 . S
O546 C531 1.261 . S
O547 La521 2.628 . S
O547 C531 1.243 . S
O548 La521 2.554 . S
O548 C538 1.240 . S
O549 La520 2.482 . S
O549 La521 2.757 . S
O549 C538 1.289 . S
O550 La521 2.470 . S
O550 C539 1.258 . S
O551 La520 2.503 . S
O551 C539 1.256 . S
H552 C524 0.930 . S
H553 C525 0.930 . S
H554 C527 0.929 . S
H555 C528 0.929 . S
H556 C533 0.930 . S
H557 C534 0.930 . S
H558 C536 0.929 . S
H559 C537 0.929 . S
La560 C562 2.928 . S
La560 O580 2.521 . S
La560 O581 2.628 . S
La560 O582 2.554 . S
La560 O583 2.757 . S
La560 O584 2.470 . S
La560 O589 2.482 . S
La560 O591 2.503 . S
La561 C571 2.928 . S
La561 O583 2.482 . S
La561 O585 2.503 . S
La561 O586 2.521 . S
La561 O587 2.628 . S
La561 O588 2.554 . S
La561 O589 2.757 . S
La561 O590 2.470 . S
C562 La560 2.928 . S
C562 C563 1.503 . S
C562 O580 1.261 . S
C562 O581 1.243 . S
C563 C562 1.503 . S
C563 C564 1.394 . S
C563 C568 1.373 . S
C564 C563 1.394 . S
C564 C565 1.380 . S
C564 H592 0.930 . S
C565 C564 1.380 . S
C565 C566 1.376 1_545 S
C565 H593 0.930 . S
C566 C565 1.376 1_565 S
C566 C567 1.370 1_565 S
C567 C566 1.370 1_545 S
C567 C568 1.396 . S
C567 H594 0.929 1_545 S
C568 C563 1.373 . S
C568 C567 1.396 . S
C568 H595 0.929 . S
C569 O582 1.240 . S
C569 O583 1.289 . S
C570 O584 1.258 . S
C570 O585 1.256 . S
C571 La561 2.928 . S
C571 C572 1.503 . S
C571 O586 1.261 . S
C571 O587 1.243 . S
C572 C571 1.503 . S
C572 C573 1.394 . S
C572 C577 1.373 . S
C573 C572 1.394 . S
C573 C574 1.380 . S
C573 H596 0.930 . S
C574 C573 1.380 . S
C574 C575 1.376 . S
C574 H597 0.930 . S
C575 C574 1.376 . S
C575 C576 1.370 . S
C576 C575 1.370 . S
C576 C577 1.396 . S
C576 H598 0.929 . S
C577 C572 1.373 . S
C577 C576 1.396 . S
C577 H599 0.929 . S
C578 O588 1.240 . S
C578 O589 1.289 . S
C579 O590 1.258 . S
C579 O591 1.256 . S
O580 La560 2.521 . S
O580 C562 1.261 . S
O581 La560 2.628 . S
O581 C562 1.243 . S
O582 La560 2.554 . S
O582 C569 1.240 . S
O583 La560 2.757 . S
O583 La561 2.482 . S
O583 C569 1.289 . S
O584 La560 2.470 . S
O584 C570 1.258 . S
O585 La561 2.503 . S
O585 C570 1.256 . S
O586 La561 2.521 . S
O586 C571 1.261 . S
O587 La561 2.628 . S
O587 C571 1.243 . S
O588 La561 2.554 . S
O588 C578 1.240 . S
O589 La560 2.482 . S
O589 La561 2.757 . S
O589 C578 1.289 . S
O590 La561 2.470 . S
O590 C579 1.258 . S
O591 La560 2.503 . S
O591 C579 1.256 . S
H592 C564 0.930 . S
H593 C565 0.930 . S
H594 C567 0.929 1_565 S
H595 C568 0.929 . S
H596 C573 0.930 . S
H597 C574 0.930 . S
H598 C576 0.929 . S
H599 C577 0.929 . S
La600 C602 2.928 . S
La600 O620 2.521 . S
La600 O621 2.629 1_655 S
La600 O622 2.554 . S
La600 O623 2.757 . S
La600 O624 2.470 . S
La600 O629 2.482 . S
La600 O631 2.503 . S
La601 C611 2.928 . S
La601 O623 2.482 . S
La601 O625 2.503 1_655 S
La601 O626 2.521 . S
La601 O627 2.628 . S
La601 O628 2.554 1_655 S
La601 O629 2.757 . S
La601 O630 2.470 . S
C602 La600 2.928 . S
C602 C603 1.503 . S
C602 O620 1.261 . S
C602 O621 1.244 1_655 S
C603 C602 1.503 . S
C603 C604 1.394 . S
C603 C608 1.373 1_655 S
C604 C603 1.394 . S
C604 C605 1.380 . S
C604 H632 0.930 . S
C605 C604 1.380 . S
C605 C606 1.376 1_655 S
C605 H633 0.930 . S
C606 C605 1.376 1_455 S
C606 C607 1.370 . S
C607 C606 1.370 . S
C607 C608 1.396 . S
C607 H634 0.929 . S
C608 C603 1.373 1_455 S
C608 C607 1.396 . S
C608 H635 0.929 . S
C609 O622 1.240 . S
C609 O623 1.289 . S
C610 O624 1.258 1_455 S
C610 O625 1.256 . S
C611 La601 2.928 . S
C611 C612 1.503 . S
C611 O626 1.261 . S
C611 O627 1.243 . S
C612 C611 1.503 . S
C612 C613 1.394 . S
C612 C617 1.373 . S
C613 C612 1.394 . S
C613 C614 1.380 . S
C613 H636 0.930 . S
C614 C613 1.380 . S
C614 C615 1.376 . S
C614 H637 0.930 . S
C615 C614 1.376 . S
C615 C616 1.370 . S
C616 C615 1.370 . S
C616 C617 1.396 . S
C616 H638 0.929 . S
C617 C612 1.373 . S
C617 C616 1.396 . S
C617 H639 0.929 . S
C618 O628 1.240 . S
C618 O629 1.289 1_455 S
C619 O630 1.258 . S
C619 O631 1.256 . S
O620 La600 2.521 . S
O620 C602 1.261 . S
O621 La600 2.629 1_455 S
O621 C602 1.244 1_455 S
O622 La600 2.554 . S
O622 C609 1.240 . S
O623 La600 2.757 . S
O623 La601 2.482 . S
O623 C609 1.289 . S
O624 La600 2.470 . S
O624 C610 1.258 1_655 S
O625 La601 2.503 1_455 S
O625 C610 1.256 . S
O626 La601 2.521 . S
O626 C611 1.261 . S
O627 La601 2.628 . S
O627 C611 1.243 . S
O628 La601 2.554 1_455 S
O628 C618 1.240 . S
O629 La600 2.482 . S
O629 La601 2.757 . S
O629 C618 1.289 1_655 S
O630 La601 2.470 . S
O630 C619 1.258 . S
O631 La600 2.503 . S
O631 C619 1.256 . S
H632 C604 0.930 . S
H633 C605 0.930 . S
H634 C607 0.929 . S
H635 C608 0.929 . S
H636 C613 0.930 . S
H637 C614 0.930 . S
H638 C616 0.929 . S
H639 C617 0.929 . S
La640 C642 2.928 . S
La640 O660 2.521 . S
La640 O661 2.628 . S
La640 O662 2.554 . S
La640 O663 2.757 . S
La640 O664 2.470 . S
La640 O669 2.482 . S
La640 O671 2.503 . S
La641 C651 2.928 . S
La641 O663 2.482 . S
La641 O665 2.503 . S
La641 O666 2.521 . S
La641 O667 2.628 . S
La641 O668 2.554 . S
La641 O669 2.757 . S
La641 O670 2.470 . S
C642 La640 2.928 . S
C642 C643 1.503 . S
C642 O660 1.261 . S
C642 O661 1.243 . S
C643 C642 1.503 . S
C643 C644 1.394 . S
C643 C648 1.373 . S
C644 C643 1.394 . S
C644 C645 1.380 . S
C644 H672 0.930 . S
C645 C644 1.380 . S
C645 C646 1.376 . S
C645 H673 0.930 . S
C646 C645 1.376 . S
C646 C647 1.370 . S
C647 C646 1.370 . S
C647 C648 1.396 . S
C647 H674 0.929 . S
C648 C643 1.373 . S
C648 C647 1.396 . S
C648 H675 0.929 . S
C649 O662 1.240 . S
C649 O663 1.289 . S
C650 O664 1.258 . S
C650 O665 1.256 . S
C651 La641 2.928 . S
C651 C652 1.503 . S
C651 O666 1.261 . S
C651 O667 1.243 . S
C652 C651 1.503 . S
C652 C653 1.394 . S
C652 C657 1.373 . S
C653 C652 1.394 . S
C653 C654 1.380 . S
C653 H676 0.930 . S
C654 C653 1.380 . S
C654 C655 1.376 . S
C654 H677 0.930 . S
C655 C654 1.376 . S
C655 C656 1.370 . S
C656 C655 1.370 . S
C656 C657 1.396 . S
C656 H678 0.929 . S
C657 C652 1.373 . S
C657 C656 1.396 . S
C657 H679 0.929 . S
C658 O668 1.240 . S
C658 O669 1.289 . S
C659 O670 1.258 . S
C659 O671 1.256 . S
O660 La640 2.521 . S
O660 C642 1.261 . S
O661 La640 2.628 . S
O661 C642 1.243 . S
O662 La640 2.554 . S
O662 C649 1.240 . S
O663 La640 2.757 . S
O663 La641 2.482 . S
O663 C649 1.289 . S
O664 La640 2.470 . S
O664 C650 1.258 . S
O665 La641 2.503 . S
O665 C650 1.256 . S
O666 La641 2.521 . S
O666 C651 1.261 . S
O667 La641 2.628 . S
O667 C651 1.243 . S
O668 La641 2.554 . S
O668 C658 1.240 . S
O669 La640 2.482 . S
O669 La641 2.757 . S
O669 C658 1.289 . S
O670 La641 2.470 . S
O670 C659 1.258 . S
O671 La640 2.503 . S
O671 C659 1.256 . S
H672 C644 0.930 . S
H673 C645 0.930 . S
H674 C647 0.929 . S
H675 C648 0.929 . S
H676 C653 0.930 . S
H677 C654 0.930 . S
H678 C656 0.929 . S
H679 C657 0.929 . S
La680 C682 2.928 . S
La680 O700 2.521 . S
La680 O701 2.629 1_545 S
La680 O702 2.554 . S
La680 O703 2.757 . S
La680 O704 2.470 . S
La680 O709 2.482 . S
La680 O711 2.503 . S
La681 C691 2.928 . S
La681 O703 2.482 . S
La681 O705 2.503 1_545 S
La681 O706 2.521 . S
La681 O707 2.628 . S
La681 O708 2.554 1_545 S
La681 O709 2.757 . S
La681 O710 2.470 . S
C682 La680 2.928 . S
C682 C683 1.503 . S
C682 O700 1.261 . S
C682 O701 1.243 1_545 S
C683 C682 1.503 . S
C683 C684 1.394 . S
C683 C688 1.373 1_545 S
C684 C683 1.394 . S
C684 C685 1.380 . S
C684 H712 0.930 . S
C685 C684 1.380 . S
C685 C686 1.376 1_545 S
C685 H713 0.930 . S
C686 C685 1.376 1_565 S
C686 C687 1.370 . S
C687 C686 1.370 . S
C687 C688 1.396 . S
C687 H714 0.929 . S
C688 C683 1.373 1_565 S
C688 C687 1.396 . S
C688 H715 0.929 . S
C689 O702 1.240 . S
C689 O703 1.289 . S
C690 O704 1.258 1_565 S
C690 O705 1.256 . S
C691 La681 2.928 . S
C691 C692 1.503 . S
C691 O706 1.261 . S
C691 O707 1.243 . S
C692 C691 1.503 . S
C692 C693 1.394 . S
C692 C697 1.373 . S
C693 C692 1.394 . S
C693 C694 1.380 . S
C693 H716 0.930 . S
C694 C693 1.380 . S
C694 C695 1.376 . S
C694 H717 0.930 . S
C695 C694 1.376 . S
C695 C696 1.370 . S
C696 C695 1.370 . S
C696 C697 1.396 . S
C696 H718 0.929 . S
C697 C692 1.373 . S
C697 C696 1.396 . S
C697 H719 0.929 . S
C698 O708 1.240 . S
C698 O709 1.289 1_565 S
C699 O710 1.258 . S
C699 O711 1.256 . S
O700 La680 2.521 . S
O700 C682 1.261 . S
O701 La680 2.629 1_565 S
O701 C682 1.243 1_565 S
O702 La680 2.554 . S
O702 C689 1.240 . S
O703 La680 2.757 . S
O703 La681 2.482 . S
O703 C689 1.289 . S
O704 La680 2.470 . S
O704 C690 1.258 1_545 S
O705 La681 2.503 1_565 S
O705 C690 1.256 . S
O706 La681 2.521 . S
O706 C691 1.261 . S
O707 La681 2.628 . S
O707 C691 1.243 . S
O708 La681 2.554 1_565 S
O708 C698 1.240 . S
O709 La680 2.482 . S
O709 La681 2.757 . S
O709 C698 1.289 1_545 S
O710 La681 2.470 . S
O710 C699 1.258 . S
O711 La680 2.503 . S
O711 C699 1.256 . S
H712 C684 0.930 . S
H713 C685 0.930 . S
H714 C687 0.929 . S
H715 C688 0.929 . S
H716 C693 0.930 . S
H717 C694 0.930 . S
H718 C696 0.929 . S
H719 C697 0.929 . S
La720 C722 2.928 . S
La720 O740 2.521 . S
La720 O741 2.628 . S
La720 O742 2.554 1_545 S
La720 O743 2.757 . S
La720 O744 2.470 . S
La720 O749 2.482 . S
La720 O751 2.503 1_545 S
La721 C731 2.928 . S
La721 O743 2.482 . S
La721 O745 2.503 . S
La721 O746 2.521 . S
La721 O747 2.628 . S
La721 O748 2.554 . S
La721 O749 2.757 . S
La721 O750 2.470 . S
C722 La720 2.928 . S
C722 C723 1.503 . S
C722 O740 1.261 . S
C722 O741 1.243 . S
C723 C722 1.503 . S
C723 C724 1.394 . S
C723 C728 1.373 . S
C724 C723 1.394 . S
C724 C725 1.380 . S
C724 H752 0.930 . S
C725 C724 1.380 . S
C725 C726 1.376 . S
C725 H753 0.930 . S
C726 C725 1.376 . S
C726 C727 1.370 . S
C727 C726 1.370 . S
C727 C728 1.396 . S
C727 H754 0.929 . S
C728 C723 1.373 . S
C728 C727 1.396 . S
C728 H755 0.929 . S
C729 O742 1.240 . S
C729 O743 1.289 1_565 S
C730 O744 1.258 . S
C730 O745 1.256 . S
C731 La721 2.928 . S
C731 C732 1.503 . S
C731 O746 1.261 . S
C731 O747 1.243 . S
C732 C731 1.503 . S
C732 C733 1.394 . S
C732 C737 1.373 1_545 S
C733 C732 1.394 . S
C733 C734 1.380 . S
C733 H756 0.930 . S
C734 C733 1.380 . S
C734 C735 1.376 1_545 S
C734 H757 0.930 . S
C735 C734 1.376 1_565 S
C735 C736 1.370 . S
C736 C735 1.370 . S
C736 C737 1.396 . S
C736 H758 0.929 . S
C737 C732 1.373 1_565 S
C737 C736 1.396 . S
C737 H759 0.929 . S
C738 O748 1.240 . S
C738 O749 1.289 . S
C739 O750 1.258 1_565 S
C739 O751 1.256 . S
O740 La720 2.521 . S
O740 C722 1.261 . S
O741 La720 2.628 . S
O741 C722 1.243 . S
O742 La720 2.554 1_565 S
O742 C729 1.240 . S
O743 La720 2.757 . S
O743 La721 2.482 . S
O743 C729 1.289 1_545 S
O744 La720 2.470 . S
O744 C730 1.258 . S
O745 La721 2.503 . S
O745 C730 1.256 . S
O746 La721 2.521 . S
O746 C731 1.261 . S
O747 La721 2.628 . S
O747 C731 1.243 . S
O748 La721 2.554 . S
O748 C738 1.240 . S
O749 La720 2.482 . S
O749 La721 2.757 . S
O749 C738 1.289 . S
O750 La721 2.470 . S
O750 C739 1.258 1_545 S
O751 La720 2.503 1_565 S
O751 C739 1.256 . S
H752 C724 0.930 . S
H753 C725 0.930 . S
H754 C727 0.929 . S
H755 C728 0.929 . S
H756 C733 0.930 . S
H757 C734 0.930 . S
H758 C736 0.929 . S
H759 C737 0.929 . S
La760 C762 2.928 . S
La760 O780 2.521 . S
La760 O781 2.628 . S
La760 O782 2.554 1_655 S
La760 O783 2.757 . S
La760 O784 2.470 . S
La760 O789 2.482 . S
La760 O791 2.503 1_655 S
La761 C771 2.928 . S
La761 O783 2.482 . S
La761 O785 2.503 . S
La761 O786 2.521 . S
La761 O787 2.628 . S
La761 O788 2.554 . S
La761 O789 2.757 . S
La761 O790 2.470 . S
C762 La760 2.928 . S
C762 C763 1.503 . S
C762 O780 1.261 . S
C762 O781 1.243 . S
C763 C762 1.503 . S
C763 C764 1.394 . S
C763 C768 1.373 . S
C764 C763 1.394 . S
C764 C765 1.380 . S
C764 H792 0.930 . S
C765 C764 1.380 . S
C765 C766 1.376 . S
C765 H793 0.930 . S
C766 C765 1.376 . S
C766 C767 1.370 . S
C767 C766 1.370 . S
C767 C768 1.396 . S
C767 H794 0.929 . S
C768 C763 1.373 . S
C768 C767 1.396 . S
C768 H795 0.929 . S
C769 O782 1.240 . S
C769 O783 1.289 1_455 S
C770 O784 1.258 . S
C770 O785 1.256 . S
C771 La761 2.928 . S
C771 C772 1.503 . S
C771 O786 1.261 . S
C771 O787 1.243 . S
C772 C771 1.503 . S
C772 C773 1.394 . S
C772 C777 1.373 1_655 S
C773 C772 1.394 . S
C773 C774 1.380 . S
C773 H796 0.930 . S
C774 C773 1.380 . S
C774 C775 1.376 1_655 S
C774 H797 0.930 . S
C775 C774 1.376 1_455 S
C775 C776 1.370 . S
C776 C775 1.370 . S
C776 C777 1.396 . S
C776 H798 0.929 . S
C777 C772 1.373 1_455 S
C777 C776 1.396 . S
C777 H799 0.929 . S
C778 O788 1.240 . S
C778 O789 1.289 . S
C779 O790 1.258 1_455 S
C779 O791 1.256 . S
O780 La760 2.521 . S
O780 C762 1.261 . S
O781 La760 2.628 . S
O781 C762 1.243 . S
O782 La760 2.554 1_455 S
O782 C769 1.240 . S
O783 La760 2.757 . S
O783 La761 2.482 . S
O783 C769 1.289 1_655 S
O784 La760 2.470 . S
O784 C770 1.258 . S
O785 La761 2.503 . S
O785 C770 1.256 . S
O786 La761 2.521 . S
O786 C771 1.261 . S
O787 La761 2.628 . S
O787 C771 1.243 . S
O788 La761 2.554 . S
O788 C778 1.240 . S
O789 La760 2.482 . S
O789 La761 2.757 . S
O789 C778 1.289 . S
O790 La761 2.470 . S
O790 C779 1.258 1_655 S
O791 La760 2.503 1_455 S
O791 C779 1.256 . S
H792 C764 0.930 . S
H793 C765 0.930 . S
H794 C767 0.929 . S
H795 C768 0.929 . S
H796 C773 0.930 . S
H797 C774 0.930 . S
H798 C776 0.929 . S
H799 C777 0.929 . S
La800 C802 2.928 . S
La800 O820 2.521 . S
La800 O821 2.628 . S
La800 O822 2.554 . S
La800 O823 2.757 . S
La800 O824 2.470 . S
La800 O829 2.482 . S
La800 O831 2.503 . S
La801 C811 2.928 . S
La801 O823 2.482 . S
La801 O825 2.503 . S
La801 O826 2.521 . S
La801 O827 2.628 . S
La801 O828 2.554 . S
La801 O829 2.757 . S
La801 O830 2.470 . S
C802 La800 2.928 . S
C802 C803 1.503 . S
C802 O820 1.261 . S
C802 O821 1.243 . S
C803 C802 1.503 . S
C803 C804 1.394 . S
C803 C808 1.373 . S
C804 C803 1.394 . S
C804 C805 1.380 . S
C804 H832 0.930 . S
C805 C804 1.380 . S
C805 C806 1.376 . S
C805 H833 0.930 . S
C806 C805 1.376 . S
C806 C807 1.370 . S
C807 C806 1.370 . S
C807 C808 1.396 . S
C807 H834 0.929 . S
C808 C803 1.373 . S
C808 C807 1.396 . S
C808 H835 0.929 . S
C809 O822 1.240 . S
C809 O823 1.289 . S
C810 O824 1.258 . S
C810 O825 1.256 . S
C811 La801 2.928 . S
C811 C812 1.503 . S
C811 O826 1.261 . S
C811 O827 1.243 . S
C812 C811 1.503 . S
C812 C813 1.394 . S
C812 C817 1.373 . S
C813 C812 1.394 . S
C813 C814 1.380 . S
C813 H836 0.930 . S
C814 C813 1.380 . S
C814 C815 1.376 . S
C814 H837 0.930 . S
C815 C814 1.376 . S
C815 C816 1.370 . S
C816 C815 1.370 . S
C816 C817 1.396 . S
C816 H838 0.929 . S
C817 C812 1.373 . S
C817 C816 1.396 . S
C817 H839 0.929 . S
C818 O828 1.240 . S
C818 O829 1.289 . S
C819 O830 1.258 . S
C819 O831 1.256 . S
O820 La800 2.521 . S
O820 C802 1.261 . S
O821 La800 2.628 . S
O821 C802 1.243 . S
O822 La800 2.554 . S
O822 C809 1.240 . S
O823 La800 2.757 . S
O823 La801 2.482 . S
O823 C809 1.289 . S
O824 La800 2.470 . S
O824 C810 1.258 . S
O825 La801 2.503 . S
O825 C810 1.256 . S
O826 La801 2.521 . S
O826 C811 1.261 . S
O827 La801 2.628 . S
O827 C811 1.243 . S
O828 La801 2.554 . S
O828 C818 1.240 . S
O829 La800 2.482 . S
O829 La801 2.757 . S
O829 C818 1.289 . S
O830 La801 2.470 . S
O830 C819 1.258 . S
O831 La800 2.503 . S
O831 C819 1.256 . S
H832 C804 0.930 . S
H833 C805 0.930 . S
H834 C807 0.929 . S
H835 C808 0.929 . S
H836 C813 0.930 . S
H837 C814 0.930 . S
H838 C816 0.929 . S
H839 C817 0.929 . S
La840 C842 2.928 . S
La840 O860 2.521 . S
La840 O861 2.628 . S
La840 O862 2.554 . S
La840 O863 2.757 1_554 S
La840 O864 2.470 . S
La840 O869 2.482 . S
La840 O871 2.503 . S
La841 C851 2.928 . S
La841 O863 2.482 . S
La841 O865 2.503 . S
La841 O866 2.521 . S
La841 O867 2.628 . S
La841 O868 2.554 . S
La841 O869 2.757 1_556 S
La841 O870 2.470 . S
C842 La840 2.928 . S
C842 C843 1.503 . S
C842 O860 1.261 . S
C842 O861 1.243 . S
C843 C842 1.503 . S
C843 C844 1.394 . S
C843 C848 1.373 . S
C844 C843 1.394 . S
C844 C845 1.380 . S
C844 H872 0.930 . S
C845 C844 1.380 . S
C845 C846 1.376 . S
C845 H873 0.930 . S
C846 C845 1.376 . S
C846 C847 1.370 . S
C847 C846 1.370 . S
C847 C848 1.396 . S
C847 H874 0.929 . S
C848 C843 1.373 . S
C848 C847 1.396 . S
C848 H875 0.929 . S
C849 O862 1.240 . S
C849 O863 1.289 1_554 S
C850 O864 1.258 . S
C850 O865 1.256 1_554 S
C851 La841 2.928 . S
C851 C852 1.503 . S
C851 O866 1.261 . S
C851 O867 1.243 . S
C852 C851 1.503 . S
C852 C853 1.394 . S
C852 C857 1.373 . S
C853 C852 1.394 . S
C853 C854 1.380 . S
C853 H876 0.930 . S
C854 C853 1.380 . S
C854 C855 1.376 1_545 S
C854 H877 0.930 . S
C855 C854 1.376 1_565 S
C855 C856 1.370 1_565 S
C856 C855 1.370 1_545 S
C856 C857 1.396 . S
C856 H878 0.929 1_545 S
C857 C852 1.373 . S
C857 C856 1.396 . S
C857 H879 0.929 . S
C858 O868 1.240 . S
C858 O869 1.289 1_556 S
C859 O870 1.258 . S
C859 O871 1.256 1_556 S
O860 La840 2.521 . S
O860 C842 1.261 . S
O861 La840 2.628 . S
O861 C842 1.243 . S
O862 La840 2.554 . S
O862 C849 1.240 . S
O863 La840 2.757 1_556 S
O863 La841 2.482 . S
O863 C849 1.289 1_556 S
O864 La840 2.470 . S
O864 C850 1.258 . S
O865 La841 2.503 . S
O865 C850 1.256 1_556 S
O866 La841 2.521 . S
O866 C851 1.261 . S
O867 La841 2.628 . S
O867 C851 1.243 . S
O868 La841 2.554 . S
O868 C858 1.240 . S
O869 La840 2.482 . S
O869 La841 2.757 1_554 S
O869 C858 1.289 1_554 S
O870 La841 2.470 . S
O870 C859 1.258 . S
O871 La840 2.503 . S
O871 C859 1.256 1_554 S
H872 C844 0.930 . S
H873 C845 0.930 . S
H874 C847 0.929 . S
H875 C848 0.929 . S
H876 C853 0.930 . S
H877 C854 0.930 . S
H878 C856 0.929 1_565 S
H879 C857 0.929 . S
La880 C882 2.928 . S
La880 O900 2.521 . S
La880 O901 2.628 . S
La880 O902 2.554 . S
La880 O903 2.757 1_554 S
La880 O904 2.470 . S
La880 O909 2.482 . S
La880 O911 2.503 . S
La881 C891 2.928 . S
La881 O903 2.482 . S
La881 O905 2.503 . S
La881 O906 2.521 . S
La881 O907 2.628 . S
La881 O908 2.554 . S
La881 O909 2.757 1_556 S
La881 O910 2.470 . S
C882 La880 2.928 . S
C882 C883 1.503 . S
C882 O900 1.261 . S
C882 O901 1.243 . S
C883 C882 1.503 . S
C883 C884 1.394 . S
C883 C888 1.373 . S
C884 C883 1.394 . S
C884 C885 1.380 . S
C884 H912 0.930 . S
C885 C884 1.380 . S
C885 C886 1.376 . S
C885 H913 0.930 . S
C886 C885 1.376 . S
C886 C887 1.370 . S
C887 C886 1.370 . S
C887 C888 1.396 . S
C887 H914 0.929 . S
C888 C883 1.373 . S
C888 C887 1.396 . S
C888 H915 0.929 . S
C889 O902 1.240 . S
C889 O903 1.289 1_554 S
C890 O904 1.258 . S
C890 O905 1.256 1_554 S
C891 La881 2.928 . S
C891 C892 1.503 . S
C891 O906 1.261 . S
C891 O907 1.243 . S
C892 C891 1.503 . S
C892 C893 1.394 . S
C892 C897 1.373 . S
C893 C892 1.394 . S
C893 C894 1.380 . S
C893 H916 0.930 . S
C894 C893 1.380 . S
C894 C895 1.376 1_655 S
C894 H917 0.930 . S
C895 C894 1.376 1_455 S
C895 C896 1.370 1_455 S
C896 C895 1.370 1_655 S
C896 C897 1.396 . S
C896 H918 0.929 1_655 S
C897 C892 1.373 . S
C897 C896 1.396 . S
C897 H919 0.929 . S
C898 O908 1.240 . S
C898 O909 1.289 1_556 S
C899 O910 1.258 . S
C899 O911 1.256 1_556 S
O900 La880 2.521 . S
O900 C882 1.261 . S
O901 La880 2.628 . S
O901 C882 1.243 . S
O902 La880 2.554 . S
O902 C889 1.240 . S
O903 La880 2.757 1_556 S
O903 La881 2.482 . S
O903 C889 1.289 1_556 S
O904 La880 2.470 . S
O904 C890 1.258 . S
O905 La881 2.503 . S
O905 C890 1.256 1_556 S
O906 La881 2.521 . S
O906 C891 1.261 . S
O907 La881 2.628 . S
O907 C891 1.243 . S
O908 La881 2.554 . S
O908 C898 1.240 . S
O909 La880 2.482 . S
O909 La881 2.757 1_554 S
O909 C898 1.289 1_554 S
O910 La881 2.470 . S
O910 C899 1.258 . S
O911 La880 2.503 . S
O911 C899 1.256 1_554 S
H912 C884 0.930 . S
H913 C885 0.930 . S
H914 C887 0.929 . S
H915 C888 0.929 . S
H916 C893 0.930 . S
H917 C894 0.930 . S
H918 C896 0.929 1_455 S
H919 C897 0.929 . S
La920 C922 2.928 . S
La920 O940 2.521 . S
La920 O941 2.628 . S
La920 O942 2.554 . S
La920 O943 2.757 1_554 S
La920 O944 2.470 . S
La920 O949 2.482 . S
La920 O951 2.503 . S
La921 C931 2.928 . S
La921 O943 2.482 . S
La921 O945 2.503 . S
La921 O946 2.521 . S
La921 O947 2.628 . S
La921 O948 2.554 . S
La921 O949 2.757 1_556 S
La921 O950 2.470 . S
C922 La920 2.928 . S
C922 C923 1.503 . S
C922 O940 1.261 . S
C922 O941 1.243 . S
C923 C922 1.503 . S
C923 C924 1.394 . S
C923 C928 1.373 . S
C924 C923 1.394 . S
C924 C925 1.380 . S
C924 H952 0.930 . S
C925 C924 1.380 . S
C925 C926 1.376 . S
C925 H953 0.930 . S
C926 C925 1.376 . S
C926 C927 1.370 . S
C927 C926 1.370 . S
C927 C928 1.396 . S
C927 H954 0.929 . S
C928 C923 1.373 . S
C928 C927 1.396 . S
C928 H955 0.929 . S
C929 O942 1.240 . S
C929 O943 1.289 1_554 S
C930 O944 1.258 . S
C930 O945 1.256 1_554 S
C931 La921 2.928 . S
C931 C932 1.503 . S
C931 O946 1.261 . S
C931 O947 1.243 . S
C932 C931 1.503 . S
C932 C933 1.394 . S
C932 C937 1.373 . S
C933 C932 1.394 . S
C933 C934 1.380 . S
C933 H956 0.930 . S
C934 C933 1.380 . S
C934 C935 1.376 . S
C934 H957 0.930 . S
C935 C934 1.376 . S
C935 C936 1.370 . S
C936 C935 1.370 . S
C936 C937 1.396 . S
C936 H958 0.929 . S
C937 C932 1.373 . S
C937 C936 1.396 . S
C937 H959 0.929 . S
C938 O948 1.240 . S
C938 O949 1.289 1_556 S
C939 O950 1.258 . S
C939 O951 1.256 1_556 S
O940 La920 2.521 . S
O940 C922 1.261 . S
O941 La920 2.628 . S
O941 C922 1.243 . S
O942 La920 2.554 . S
O942 C929 1.240 . S
O943 La920 2.757 1_556 S
O943 La921 2.482 . S
O943 C929 1.289 1_556 S
O944 La920 2.470 . S
O944 C930 1.258 . S
O945 La921 2.503 . S
O945 C930 1.256 1_556 S
O946 La921 2.521 . S
O946 C931 1.261 . S
O947 La921 2.628 . S
O947 C931 1.243 . S
O948 La921 2.554 . S
O948 C938 1.240 . S
O949 La920 2.482 . S
O949 La921 2.757 1_554 S
O949 C938 1.289 1_554 S
O950 La921 2.470 . S
O950 C939 1.258 . S
O951 La920 2.503 . S
O951 C939 1.256 1_554 S
H952 C924 0.930 . S
H953 C925 0.930 . S
H954 C927 0.929 . S
H955 C928 0.929 . S
H956 C933 0.930 . S
H957 C934 0.930 . S
H958 C936 0.929 . S
H959 C937 0.929 . S
La960 C962 2.928 . S
La960 O980 2.521 . S
La960 O981 2.628 . S
La960 O982 2.554 . S
La960 O983 2.757 . S
La960 O984 2.470 . S
La960 O989 2.482 . S
La960 O991 2.503 . S
La961 C971 2.928 . S
La961 O983 2.482 . S
La961 O985 2.503 1_565 S
La961 O986 2.521 . S
La961 O987 2.628 . S
La961 O988 2.554 1_565 S
La961 O989 2.757 . S
La961 O990 2.470 . S
C962 La960 2.928 . S
C962 C963 1.503 . S
C962 O980 1.261 . S
C962 O981 1.243 . S
C963 C962 1.503 . S
C963 C964 1.394 . S
C963 C968 1.373 1_565 S
C964 C963 1.394 . S
C964 C965 1.380 . S
C964 H992 0.930 . S
C965 C964 1.380 . S
C965 C966 1.376 1_565 S
C965 H993 0.930 . S
C966 C965 1.376 1_545 S
C966 C967 1.370 . S
C967 C966 1.370 . S
C967 C968 1.396 . S
C967 H994 0.929 . S
C968 C963 1.373 1_545 S
C968 C967 1.396 . S
C968 H995 0.929 . S
C969 O982 1.240 . S
C969 O983 1.289 . S
C970 O984 1.258 1_545 S
C970 O985 1.256 . S
C971 La961 2.928 . S
C971 C972 1.503 . S
C971 O986 1.261 . S
C971 O987 1.243 . S
C972 C971 1.503 . S
C972 C973 1.394 . S
C972 C977 1.373 . S
C973 C972 1.394 . S
C973 C974 1.380 . S
C973 H996 0.930 . S
C974 C973 1.380 . S
C974 C975 1.376 . S
C974 H997 0.930 . S
C975 C974 1.376 . S
C975 C976 1.370 . S
C976 C975 1.370 . S
C976 C977 1.396 . S
C976 H998 0.929 . S
C977 C972 1.373 . S
C977 C976 1.396 . S
C977 H999 0.929 . S
C978 O988 1.240 . S
C978 O989 1.289 1_545 S
C979 O990 1.258 . S
C979 O991 1.256 . S
O980 La960 2.521 . S
O980 C962 1.261 . S
O981 La960 2.628 . S
O981 C962 1.243 . S
O982 La960 2.554 . S
O982 C969 1.240 . S
O983 La960 2.757 . S
O983 La961 2.482 . S
O983 C969 1.289 . S
O984 La960 2.470 . S
O984 C970 1.258 1_565 S
O985 La961 2.503 1_545 S
O985 C970 1.256 . S
O986 La961 2.521 . S
O986 C971 1.261 . S
O987 La961 2.628 . S
O987 C971 1.243 . S
O988 La961 2.554 1_545 S
O988 C978 1.240 . S
O989 La960 2.482 . S
O989 La961 2.757 . S
O989 C978 1.289 1_565 S
O990 La961 2.470 . S
O990 C979 1.258 . S
O991 La960 2.503 . S
O991 C979 1.256 . S
H992 C964 0.930 . S
H993 C965 0.930 . S
H994 C967 0.929 . S
H995 C968 0.929 . S
H996 C973 0.930 . S
H997 C974 0.930 . S
H998 C976 0.929 . S
H999 C977 0.929 . S
La1000 C1002 2.928 . S
La1000 O1020 2.521 . S
La1000 O1021 2.628 . S
La1000 O1022 2.554 . S
La1000 O1023 2.757 . S
La1000 O1024 2.470 . S
La1000 O1029 2.482 . S
La1000 O1031 2.503 . S
La1001 C1011 2.928 . S
La1001 O1023 2.482 . S
La1001 O1025 2.503 1_455 S
La1001 O1026 2.521 . S
La1001 O1027 2.628 . S
La1001 O1028 2.554 1_455 S
La1001 O1029 2.757 . S
La1001 O1030 2.470 . S
C1002 La1000 2.928 . S
C1002 C1003 1.503 . S
C1002 O1020 1.261 . S
C1002 O1021 1.243 . S
C1003 C1002 1.503 . S
C1003 C1004 1.394 . S
C1003 C1008 1.373 1_455 S
C1004 C1003 1.394 . S
C1004 C1005 1.380 . S
C1004 H1032 0.930 . S
C1005 C1004 1.380 . S
C1005 C1006 1.376 1_455 S
C1005 H1033 0.930 . S
C1006 C1005 1.376 1_655 S
C1006 C1007 1.370 . S
C1007 C1006 1.370 . S
C1007 C1008 1.396 . S
C1007 H1034 0.929 . S
C1008 C1003 1.373 1_655 S
C1008 C1007 1.396 . S
C1008 H1035 0.929 . S
C1009 O1022 1.240 . S
C1009 O1023 1.289 . S
C1010 O1024 1.258 1_655 S
C1010 O1025 1.256 . S
C1011 La1001 2.928 . S
C1011 C1012 1.503 . S
C1011 O1026 1.261 . S
C1011 O1027 1.243 . S
C1012 C1011 1.503 . S
C1012 C1013 1.394 . S
C1012 C1017 1.373 . S
C1013 C1012 1.394 . S
C1013 C1014 1.380 . S
C1013 H1036 0.930 . S
C1014 C1013 1.380 . S
C1014 C1015 1.376 . S
C1014 H1037 0.930 . S
C1015 C1014 1.376 . S
C1015 C1016 1.370 . S
C1016 C1015 1.370 . S
C1016 C1017 1.396 . S
C1016 H1038 0.929 . S
C1017 C1012 1.373 . S
C1017 C1016 1.396 . S
C1017 H1039 0.929 . S
C1018 O1028 1.240 . S
C1018 O1029 1.289 1_655 S
C1019 O1030 1.258 . S
C1019 O1031 1.256 . S
O1020 La1000 2.521 . S
O1020 C1002 1.261 . S
O1021 La1000 2.628 . S
O1021 C1002 1.243 . S
O1022 La1000 2.554 . S
O1022 C1009 1.240 . S
O1023 La1000 2.757 . S
O1023 La1001 2.482 . S
O1023 C1009 1.289 . S
O1024 La1000 2.470 . S
O1024 C1010 1.258 1_455 S
O1025 La1001 2.503 1_655 S
O1025 C1010 1.256 . S
O1026 La1001 2.521 . S
O1026 C1011 1.261 . S
O1027 La1001 2.628 . S
O1027 C1011 1.243 . S
O1028 La1001 2.554 1_655 S
O1028 C1018 1.240 . S
O1029 La1000 2.482 . S
O1029 La1001 2.757 . S
O1029 C1018 1.289 1_455 S
O1030 La1001 2.470 . S
O1030 C1019 1.258 . S
O1031 La1000 2.503 . S
O1031 C1019 1.256 . S
H1032 C1004 0.930 . S
H1033 C1005 0.930 . S
H1034 C1007 0.929 . S
H1035 C1008 0.929 . S
H1036 C1013 0.930 . S
H1037 C1014 0.930 . S
H1038 C1016 0.929 . S
H1039 C1017 0.929 . S
La1040 C1042 2.928 . S
La1040 O1060 2.521 . S
La1040 O1061 2.628 . S
La1040 O1062 2.554 . S
La1040 O1063 2.757 . S
La1040 O1064 2.470 . S
La1040 O1069 2.482 . S
La1040 O1071 2.503 . S
La1041 C1051 2.928 . S
La1041 O1063 2.482 . S
La1041 O1065 2.503 . S
La1041 O1066 2.521 . S
La1041 O1067 2.628 . S
La1041 O1068 2.554 . S
La1041 O1069 2.757 . S
La1041 O1070 2.470 . S
C1042 La1040 2.928 . S
C1042 C1043 1.503 . S
C1042 O1060 1.261 . S
C1042 O1061 1.243 . S
C1043 C1042 1.503 . S
C1043 C1044 1.394 . S
C1043 C1048 1.373 . S
C1044 C1043 1.394 . S
C1044 C1045 1.380 . S
C1044 H1072 0.930 . S
C1045 C1044 1.380 . S
C1045 C1046 1.376 . S
C1045 H1073 0.930 . S
C1046 C1045 1.376 . S
C1046 C1047 1.370 . S
C1047 C1046 1.370 . S
C1047 C1048 1.396 . S
C1047 H1074 0.929 . S
C1048 C1043 1.373 . S
C1048 C1047 1.396 . S
C1048 H1075 0.929 . S
C1049 O1062 1.240 . S
C1049 O1063 1.289 . S
C1050 O1064 1.258 . S
C1050 O1065 1.256 . S
C1051 La1041 2.928 . S
C1051 C1052 1.503 . S
C1051 O1066 1.261 . S
C1051 O1067 1.243 . S
C1052 C1051 1.503 . S
C1052 C1053 1.394 . S
C1052 C1057 1.373 . S
C1053 C1052 1.394 . S
C1053 C1054 1.380 . S
C1053 H1076 0.930 . S
C1054 C1053 1.380 . S
C1054 C1055 1.376 . S
C1054 H1077 0.930 . S
C1055 C1054 1.376 . S
C1055 C1056 1.370 . S
C1056 C1055 1.370 . S
C1056 C1057 1.396 . S
C1056 H1078 0.929 . S
C1057 C1052 1.373 . S
C1057 C1056 1.396 . S
C1057 H1079 0.929 . S
C1058 O1068 1.240 . S
C1058 O1069 1.289 . S
C1059 O1070 1.258 . S
C1059 O1071 1.256 . S
O1060 La1040 2.521 . S
O1060 C1042 1.261 . S
O1061 La1040 2.628 . S
O1061 C1042 1.243 . S
O1062 La1040 2.554 . S
O1062 C1049 1.240 . S
O1063 La1040 2.757 . S
O1063 La1041 2.482 . S
O1063 C1049 1.289 . S
O1064 La1040 2.470 . S
O1064 C1050 1.258 . S
O1065 La1041 2.503 . S
O1065 C1050 1.256 . S
O1066 La1041 2.521 . S
O1066 C1051 1.261 . S
O1067 La1041 2.628 . S
O1067 C1051 1.243 . S
O1068 La1041 2.554 . S
O1068 C1058 1.240 . S
O1069 La1040 2.482 . S
O1069 La1041 2.757 . S
O1069 C1058 1.289 . S
O1070 La1041 2.470 . S
O1070 C1059 1.258 . S
O1071 La1040 2.503 . S
O1071 C1059 1.256 . S
H1072 C1044 0.930 . S
H1073 C1045 0.930 . S
H1074 C1047 0.929 . S
H1075 C1048 0.929 . S
H1076 C1053 0.930 . S
H1077 C1054 0.930 . S
H1078 C1056 0.929 . S
H1079 C1057 0.929 . S
La1080 C1082 2.928 . S
La1080 O1100 2.521 . S
La1080 O1101 2.628 . S
La1080 O1102 2.554 . S
La1080 O1103 2.757 1_554 S
La1080 O1104 2.470 . S
La1080 O1109 2.482 . S
La1080 O1111 2.503 . S
La1081 C1091 2.928 . S
La1081 O1103 2.482 . S
La1081 O1105 2.503 . S
La1081 O1106 2.521 . S
La1081 O1107 2.628 . S
La1081 O1108 2.554 . S
La1081 O1109 2.757 1_556 S
La1081 O1110 2.470 . S
C1082 La1080 2.928 . S
C1082 C1083 1.503 . S
C1082 O1100 1.261 . S
C1082 O1101 1.243 . S
C1083 C1082 1.503 . S
C1083 C1084 1.394 . S
C1083 C1088 1.373 . S
C1084 C1083 1.394 . S
C1084 C1085 1.380 . S
C1084 H1112 0.930 . S
C1085 C1084 1.380 . S
C1085 C1086 1.376 1_565 S
C1085 H1113 0.930 . S
C1086 C1085 1.376 1_545 S
C1086 C1087 1.370 1_545 S
C1087 C1086 1.370 1_565 S
C1087 C1088 1.396 . S
C1087 H1114 0.929 1_565 S
C1088 C1083 1.373 . S
C1088 C1087 1.396 . S
C1088 H1115 0.929 . S
C1089 O1102 1.240 . S
C1089 O1103 1.289 1_554 S
C1090 O1104 1.258 . S
C1090 O1105 1.256 1_554 S
C1091 La1081 2.928 . S
C1091 C1092 1.503 . S
C1091 O1106 1.261 . S
C1091 O1107 1.243 . S
C1092 C1091 1.503 . S
C1092 C1093 1.394 . S
C1092 C1097 1.373 . S
C1093 C1092 1.394 . S
C1093 C1094 1.380 . S
C1093 H1116 0.930 . S
C1094 C1093 1.380 . S
C1094 C1095 1.376 . S
C1094 H1117 0.930 . S
C1095 C1094 1.376 . S
C1095 C1096 1.370 . S
C1096 C1095 1.370 . S
C1096 C1097 1.396 . S
C1096 H1118 0.929 . S
C1097 C1092 1.373 . S
C1097 C1096 1.396 . S
C1097 H1119 0.929 . S
C1098 O1108 1.240 . S
C1098 O1109 1.289 1_556 S
C1099 O1110 1.258 . S
C1099 O1111 1.256 1_556 S
O1100 La1080 2.521 . S
O1100 C1082 1.261 . S
O1101 La1080 2.628 . S
O1101 C1082 1.243 . S
O1102 La1080 2.554 . S
O1102 C1089 1.240 . S
O1103 La1080 2.757 1_556 S
O1103 La1081 2.482 . S
O1103 C1089 1.289 1_556 S
O1104 La1080 2.470 . S
O1104 C1090 1.258 . S
O1105 La1081 2.503 . S
O1105 C1090 1.256 1_556 S
O1106 La1081 2.521 . S
O1106 C1091 1.261 . S
O1107 La1081 2.628 . S
O1107 C1091 1.243 . S
O1108 La1081 2.554 . S
O1108 C1098 1.240 . S
O1109 La1080 2.482 . S
O1109 La1081 2.757 1_554 S
O1109 C1098 1.289 1_554 S
O1110 La1081 2.470 . S
O1110 C1099 1.258 . S
O1111 La1080 2.503 . S
O1111 C1099 1.256 1_554 S
H1112 C1084 0.930 . S
H1113 C1085 0.930 . S
H1114 C1087 0.929 1_545 S
H1115 C1088 0.929 . S
H1116 C1093 0.930 . S
H1117 C1094 0.930 . S
H1118 C1096 0.929 . S
H1119 C1097 0.929 . S
La1120 C1122 2.928 . S
La1120 O1140 2.521 . S
La1120 O1141 2.628 . S
La1120 O1142 2.554 . S
La1120 O1143 2.757 1_554 S
La1120 O1144 2.470 . S
La1120 O1149 2.482 . S
La1120 O1151 2.503 . S
La1121 C1131 2.928 . S
La1121 O1143 2.482 . S
La1121 O1145 2.503 . S
La1121 O1146 2.521 . S
La1121 O1147 2.628 . S
La1121 O1148 2.554 . S
La1121 O1149 2.757 1_556 S
La1121 O1150 2.470 . S
C1122 La1120 2.928 . S
C1122 C1123 1.503 . S
C1122 O1140 1.261 . S
C1122 O1141 1.243 . S
C1123 C1122 1.503 . S
C1123 C1124 1.394 . S
C1123 C1128 1.373 . S
C1124 C1123 1.394 . S
C1124 C1125 1.380 . S
C1124 H1152 0.930 . S
C1125 C1124 1.380 . S
C1125 C1126 1.376 1_455 S
C1125 H1153 0.930 . S
C1126 C1125 1.376 1_655 S
C1126 C1127 1.370 1_655 S
C1127 C1126 1.370 1_455 S
C1127 C1128 1.396 . S
C1127 H1154 0.929 1_455 S
C1128 C1123 1.373 . S
C1128 C1127 1.396 . S
C1128 H1155 0.929 . S
C1129 O1142 1.240 . S
C1129 O1143 1.289 1_554 S
C1130 O1144 1.258 . S
C1130 O1145 1.256 1_554 S
C1131 La1121 2.928 . S
C1131 C1132 1.503 . S
C1131 O1146 1.261 . S
C1131 O1147 1.243 . S
C1132 C1131 1.503 . S
C1132 C1133 1.394 . S
C1132 C1137 1.373 . S
C1133 C1132 1.394 . S
C1133 C1134 1.380 . S
C1133 H1156 0.930 . S
C1134 C1133 1.380 . S
C1134 C1135 1.376 . S
C1134 H1157 0.930 . S
C1135 C1134 1.376 . S
C1135 C1136 1.370 . S
C1136 C1135 1.370 . S
C1136 C1137 1.396 . S
C1136 H1158 0.929 . S
C1137 C1132 1.373 . S
C1137 C1136 1.396 . S
C1137 H1159 0.929 . S
C1138 O1148 1.240 . S
C1138 O1149 1.289 1_556 S
C1139 O1150 1.258 . S
C1139 O1151 1.256 1_556 S
O1140 La1120 2.521 . S
O1140 C1122 1.261 . S
O1141 La1120 2.628 . S
O1141 C1122 1.243 . S
O1142 La1120 2.554 . S
O1142 C1129 1.240 . S
O1143 La1120 2.757 1_556 S
O1143 La1121 2.482 . S
O1143 C1129 1.289 1_556 S
O1144 La1120 2.470 . S
O1144 C1130 1.258 . S
O1145 La1121 2.503 . S
O1145 C1130 1.256 1_556 S
O1146 La1121 2.521 . S
O1146 C1131 1.261 . S
O1147 La1121 2.628 . S
O1147 C1131 1.243 . S
O1148 La1121 2.554 . S
O1148 C1138 1.240 . S
O1149 La1120 2.482 . S
O1149 La1121 2.757 1_554 S
O1149 C1138 1.289 1_554 S
O1150 La1121 2.470 . S
O1150 C1139 1.258 . S
O1151 La1120 2.503 . S
O1151 C1139 1.256 1_554 S
H1152 C1124 0.930 . S
H1153 C1125 0.930 . S
H1154 C1127 0.929 1_655 S
H1155 C1128 0.929 . S
H1156 C1133 0.930 . S
H1157 C1134 0.930 . S
H1158 C1136 0.929 . S
H1159 C1137 0.929 . S
La1160 C1162 2.928 . S
La1160 O1180 2.521 . S
La1160 O1181 2.628 . S
La1160 O1182 2.554 . S
La1160 O1183 2.757 1_554 S
La1160 O1184 2.470 . S
La1160 O1189 2.482 . S
La1160 O1191 2.503 . S
La1161 C1171 2.928 . S
La1161 O1183 2.482 . S
La1161 O1185 2.503 . S
La1161 O1186 2.521 . S
La1161 O1187 2.628 . S
La1161 O1188 2.554 . S
La1161 O1189 2.757 1_556 S
La1161 O1190 2.470 . S
C1162 La1160 2.928 . S
C1162 C1163 1.503 . S
C1162 O1180 1.261 . S
C1162 O1181 1.243 . S
C1163 C1162 1.503 . S
C1163 C1164 1.394 . S
C1163 C1168 1.373 . S
C1164 C1163 1.394 . S
C1164 C1165 1.380 . S
C1164 H1192 0.930 . S
C1165 C1164 1.380 . S
C1165 C1166 1.376 . S
C1165 H1193 0.930 . S
C1166 C1165 1.376 . S
C1166 C1167 1.370 . S
C1167 C1166 1.370 . S
C1167 C1168 1.396 . S
C1167 H1194 0.929 . S
C1168 C1163 1.373 . S
C1168 C1167 1.396 . S
C1168 H1195 0.929 . S
C1169 O1182 1.240 . S
C1169 O1183 1.289 1_554 S
C1170 O1184 1.258 . S
C1170 O1185 1.256 1_554 S
C1171 La1161 2.928 . S
C1171 C1172 1.503 . S
C1171 O1186 1.261 . S
C1171 O1187 1.243 . S
C1172 C1171 1.503 . S
C1172 C1173 1.394 . S
C1172 C1177 1.373 . S
C1173 C1172 1.394 . S
C1173 C1174 1.380 . S
C1173 H1196 0.930 . S
C1174 C1173 1.380 . S
C1174 C1175 1.376 . S
C1174 H1197 0.930 . S
C1175 C1174 1.376 . S
C1175 C1176 1.370 . S
C1176 C1175 1.370 . S
C1176 C1177 1.396 . S
C1176 H1198 0.929 . S
C1177 C1172 1.373 . S
C1177 C1176 1.396 . S
C1177 H1199 0.929 . S
C1178 O1188 1.240 . S
C1178 O1189 1.289 1_556 S
C1179 O1190 1.258 . S
C1179 O1191 1.256 1_556 S
O1180 La1160 2.521 . S
O1180 C1162 1.261 . S
O1181 La1160 2.628 . S
O1181 C1162 1.243 . S
O1182 La1160 2.554 . S
O1182 C1169 1.240 . S
O1183 La1160 2.757 1_556 S
O1183 La1161 2.482 . S
O1183 C1169 1.289 1_556 S
O1184 La1160 2.470 . S
O1184 C1170 1.258 . S
O1185 La1161 2.503 . S
O1185 C1170 1.256 1_556 S
O1186 La1161 2.521 . S
O1186 C1171 1.261 . S
O1187 La1161 2.628 . S
O1187 C1171 1.243 . S
O1188 La1161 2.554 . S
O1188 C1178 1.240 . S
O1189 La1160 2.482 . S
O1189 La1161 2.757 1_554 S
O1189 C1178 1.289 1_554 S
O1190 La1161 2.470 . S
O1190 C1179 1.258 . S
O1191 La1160 2.503 . S
O1191 C1179 1.256 1_554 S
H1192 C1164 0.930 . S
H1193 C1165 0.930 . S
H1194 C1167 0.929 . S
H1195 C1168 0.929 . S
H1196 C1173 0.930 . S
H1197 C1174 0.930 . S
H1198 C1176 0.929 . S
H1199 C1177 0.929 . S
La1200 C1202 2.928 . S
La1200 O1220 2.521 . S
La1200 O1221 2.628 . S
La1200 O1222 2.554 . S
La1200 O1223 2.757 . S
La1200 O1224 2.470 . S
La1200 O1229 2.482 . S
La1200 O1231 2.503 . S
La1201 C1211 2.928 . S
La1201 O1223 2.482 . S
La1201 O1225 2.503 . S
La1201 O1226 2.521 . S
La1201 O1227 2.628 . S
La1201 O1228 2.554 . S
La1201 O1229 2.757 . S
La1201 O1230 2.470 . S
C1202 La1200 2.928 . S
C1202 C1203 1.503 . S
C1202 O1220 1.261 . S
C1202 O1221 1.243 . S
C1203 C1202 1.503 . S
C1203 C1204 1.394 . S
C1203 C1208 1.373 . S
C1204 C1203 1.394 . S
C1204 C1205 1.380 . S
C1204 H1232 0.930 . S
C1205 C1204 1.380 . S
C1205 C1206 1.376 . S
C1205 H1233 0.930 . S
C1206 C1205 1.376 . S
C1206 C1207 1.370 . S
C1207 C1206 1.370 . S
C1207 C1208 1.396 . S
C1207 H1234 0.929 . S
C1208 C1203 1.373 . S
C1208 C1207 1.396 . S
C1208 H1235 0.929 . S
C1209 O1222 1.240 . S
C1209 O1223 1.289 . S
C1210 O1224 1.258 . S
C1210 O1225 1.256 . S
C1211 La1201 2.928 . S
C1211 C1212 1.503 . S
C1211 O1226 1.261 . S
C1211 O1227 1.243 . S
C1212 C1211 1.503 . S
C1212 C1213 1.394 . S
C1212 C1217 1.373 . S
C1213 C1212 1.394 . S
C1213 C1214 1.380 . S
C1213 H1236 0.930 . S
C1214 C1213 1.380 . S
C1214 C1215 1.376 1_455 S
C1214 H1237 0.930 . S
C1215 C1214 1.376 1_655 S
C1215 C1216 1.370 1_655 S
C1216 C1215 1.370 1_455 S
C1216 C1217 1.396 . S
C1216 H1238 0.929 1_455 S
C1217 C1212 1.373 . S
C1217 C1216 1.396 . S
C1217 H1239 0.929 . S
C1218 O1228 1.240 . S
C1218 O1229 1.289 . S
C1219 O1230 1.258 . S
C1219 O1231 1.256 . S
O1220 La1200 2.521 . S
O1220 C1202 1.261 . S
O1221 La1200 2.628 . S
O1221 C1202 1.243 . S
O1222 La1200 2.554 . S
O1222 C1209 1.240 . S
O1223 La1200 2.757 . S
O1223 La1201 2.482 . S
O1223 C1209 1.289 . S
O1224 La1200 2.470 . S
O1224 C1210 1.258 . S
O1225 La1201 2.503 . S
O1225 C1210 1.256 . S
O1226 La1201 2.521 . S
O1226 C1211 1.261 . S
O1227 La1201 2.628 . S
O1227 C1211 1.243 . S
O1228 La1201 2.554 . S
O1228 C1218 1.240 . S
O1229 La1200 2.482 . S
O1229 La1201 2.757 . S
O1229 C1218 1.289 . S
O1230 La1201 2.470 . S
O1230 C1219 1.258 . S
O1231 La1200 2.503 . S
O1231 C1219 1.256 . S
H1232 C1204 0.930 . S
H1233 C1205 0.930 . S
H1234 C1207 0.929 . S
H1235 C1208 0.929 . S
H1236 C1213 0.930 . S
H1237 C1214 0.930 . S
H1238 C1216 0.929 1_655 S
H1239 C1217 0.929 . S
La1240 C1242 2.928 . S
La1240 O1260 2.521 . S
La1240 O1261 2.628 . S
La1240 O1262 2.554 . S
La1240 O1263 2.757 . S
La1240 O1264 2.470 . S
La1240 O1269 2.482 . S
La1240 O1271 2.503 . S
La1241 C1251 2.928 . S
La1241 O1263 2.482 . S
La1241 O1265 2.503 . S
La1241 O1266 2.521 . S
La1241 O1267 2.628 . S
La1241 O1268 2.554 . S
La1241 O1269 2.757 . S
La1241 O1270 2.470 . S
C1242 La1240 2.928 . S
C1242 C1243 1.503 . S
C1242 O1260 1.261 . S
C1242 O1261 1.243 . S
C1243 C1242 1.503 . S
C1243 C1244 1.394 . S
C1243 C1248 1.373 . S
C1244 C1243 1.394 . S
C1244 C1245 1.380 . S
C1244 H1272 0.930 . S
C1245 C1244 1.380 . S
C1245 C1246 1.376 . S
C1245 H1273 0.930 . S
C1246 C1245 1.376 . S
C1246 C1247 1.370 . S
C1247 C1246 1.370 . S
C1247 C1248 1.396 . S
C1247 H1274 0.929 . S
C1248 C1243 1.373 . S
C1248 C1247 1.396 . S
C1248 H1275 0.929 . S
C1249 O1262 1.240 . S
C1249 O1263 1.289 . S
C1250 O1264 1.258 . S
C1250 O1265 1.256 . S
C1251 La1241 2.928 . S
C1251 C1252 1.503 . S
C1251 O1266 1.261 . S
C1251 O1267 1.243 . S
C1252 C1251 1.503 . S
C1252 C1253 1.394 . S
C1252 C1257 1.373 . S
C1253 C1252 1.394 . S
C1253 C1254 1.380 . S
C1253 H1276 0.930 . S
C1254 C1253 1.380 . S
C1254 C1255 1.376 . S
C1254 H1277 0.930 . S
C1255 C1254 1.376 . S
C1255 C1256 1.370 . S
C1256 C1255 1.370 . S
C1256 C1257 1.396 . S
C1256 H1278 0.929 . S
C1257 C1252 1.373 . S
C1257 C1256 1.396 . S
C1257 H1279 0.929 . S
C1258 O1268 1.240 . S
C1258 O1269 1.289 . S
C1259 O1270 1.258 . S
C1259 O1271 1.256 . S
O1260 La1240 2.521 . S
O1260 C1242 1.261 . S
O1261 La1240 2.628 . S
O1261 C1242 1.243 . S
O1262 La1240 2.554 . S
O1262 C1249 1.240 . S
O1263 La1240 2.757 . S
O1263 La1241 2.482 . S
O1263 C1249 1.289 . S
O1264 La1240 2.470 . S
O1264 C1250 1.258 . S
O1265 La1241 2.503 . S
O1265 C1250 1.256 . S
O1266 La1241 2.521 . S
O1266 C1251 1.261 . S
O1267 La1241 2.628 . S
O1267 C1251 1.243 . S
O1268 La1241 2.554 . S
O1268 C1258 1.240 . S
O1269 La1240 2.482 . S
O1269 La1241 2.757 . S
O1269 C1258 1.289 . S
O1270 La1241 2.470 . S
O1270 C1259 1.258 . S
O1271 La1240 2.503 . S
O1271 C1259 1.256 . S
H1272 C1244 0.930 . S
H1273 C1245 0.930 . S
H1274 C1247 0.929 . S
H1275 C1248 0.929 . S
H1276 C1253 0.930 . S
H1277 C1254 0.930 . S
H1278 C1256 0.929 . S
H1279 C1257 0.929 . S
La1280 C1282 2.928 . S
La1280 O1300 2.521 . S
La1280 O1301 2.628 . S
La1280 O1302 2.554 . S
La1280 O1303 2.757 . S
La1280 O1304 2.470 . S
La1280 O1309 2.482 . S
La1280 O1311 2.503 . S
La1281 C1291 2.928 . S
La1281 O1303 2.482 . S
La1281 O1305 2.503 . S
La1281 O1306 2.521 . S
La1281 O1307 2.628 . S
La1281 O1308 2.554 . S
La1281 O1309 2.757 . S
La1281 O1310 2.470 . S
C1282 La1280 2.928 . S
C1282 C1283 1.503 . S
C1282 O1300 1.261 . S
C1282 O1301 1.243 . S
C1283 C1282 1.503 . S
C1283 C1284 1.394 . S
C1283 C1288 1.373 . S
C1284 C1283 1.394 . S
C1284 C1285 1.380 . S
C1284 H1312 0.930 . S
C1285 C1284 1.380 . S
C1285 C1286 1.376 . S
C1285 H1313 0.930 . S
C1286 C1285 1.376 . S
C1286 C1287 1.370 . S
C1287 C1286 1.370 . S
C1287 C1288 1.396 . S
C1287 H1314 0.929 . S
C1288 C1283 1.373 . S
C1288 C1287 1.396 . S
C1288 H1315 0.929 . S
C1289 O1302 1.240 . S
C1289 O1303 1.289 . S
C1290 O1304 1.258 . S
C1290 O1305 1.256 . S
C1291 La1281 2.928 . S
C1291 C1292 1.503 . S
C1291 O1306 1.261 . S
C1291 O1307 1.243 . S
C1292 C1291 1.503 . S
C1292 C1293 1.394 . S
C1292 C1297 1.373 . S
C1293 C1292 1.394 . S
C1293 C1294 1.380 . S
C1293 H1316 0.930 . S
C1294 C1293 1.380 . S
C1294 C1295 1.376 1_565 S
C1294 H1317 0.930 . S
C1295 C1294 1.376 1_545 S
C1295 C1296 1.370 1_545 S
C1296 C1295 1.370 1_565 S
C1296 C1297 1.396 . S
C1296 H1318 0.929 1_565 S
C1297 C1292 1.373 . S
C1297 C1296 1.396 . S
C1297 H1319 0.929 . S
C1298 O1308 1.240 . S
C1298 O1309 1.289 . S
C1299 O1310 1.258 . S
C1299 O1311 1.256 . S
O1300 La1280 2.521 . S
O1300 C1282 1.261 . S
O1301 La1280 2.628 . S
O1301 C1282 1.243 . S
O1302 La1280 2.554 . S
O1302 C1289 1.240 . S
O1303 La1280 2.757 . S
O1303 La1281 2.482 . S
O1303 C1289 1.289 . S
O1304 La1280 2.470 . S
O1304 C1290 1.258 . S
O1305 La1281 2.503 . S
O1305 C1290 1.256 . S
O1306 La1281 2.521 . S
O1306 C1291 1.261 . S
O1307 La1281 2.628 . S
O1307 C1291 1.243 . S
O1308 La1281 2.554 . S
O1308 C1298 1.240 . S
O1309 La1280 2.482 . S
O1309 La1281 2.757 . S
O1309 C1298 1.289 . S
O1310 La1281 2.470 . S
O1310 C1299 1.258 . S
O1311 La1280 2.503 . S
O1311 C1299 1.256 . S
H1312 C1284 0.930 . S
H1313 C1285 0.930 . S
H1314 C1287 0.929 . S
H1315 C1288 0.929 . S
H1316 C1293 0.930 . S
H1317 C1294 0.930 . S
H1318 C1296 0.929 1_545 S
H1319 C1297 0.929 . S
La1320 C1322 2.928 . S
La1320 O1340 2.521 . S
La1320 O1341 2.628 . S
La1320 O1342 2.554 1_455 S
La1320 O1343 2.757 . S
La1320 O1344 2.470 . S
La1320 O1349 2.482 . S
La1320 O1351 2.503 1_455 S
La1321 C1331 2.928 . S
La1321 O1343 2.482 . S
La1321 O1345 2.503 . S
La1321 O1346 2.521 . S
La1321 O1347 2.627 . S
La1321 O1348 2.554 . S
La1321 O1349 2.757 . S
La1321 O1350 2.470 . S
C1322 La1320 2.928 . S
C1322 C1323 1.503 . S
C1322 O1340 1.261 . S
C1322 O1341 1.243 . S
C1323 C1322 1.503 . S
C1323 C1324 1.394 . S
C1323 C1328 1.373 . S
C1324 C1323 1.394 . S
C1324 C1325 1.380 . S
C1324 H1352 0.930 . S
C1325 C1324 1.380 . S
C1325 C1326 1.376 . S
C1325 H1353 0.930 . S
C1326 C1325 1.376 . S
C1326 C1327 1.370 . S
C1327 C1326 1.370 . S
C1327 C1328 1.396 . S
C1327 H1354 0.929 . S
C1328 C1323 1.373 . S
C1328 C1327 1.396 . S
C1328 H1355 0.929 . S
C1329 O1342 1.240 . S
C1329 O1343 1.289 1_655 S
C1330 O1344 1.258 . S
C1330 O1345 1.256 . S
C1331 La1321 2.928 . S
C1331 C1332 1.503 . S
C1331 O1346 1.261 . S
C1331 O1347 1.242 . S
C1332 C1331 1.503 . S
C1332 C1333 1.394 . S
C1332 C1337 1.373 1_455 S
C1333 C1332 1.394 . S
C1333 C1334 1.380 . S
C1333 H1356 0.930 . S
C1334 C1333 1.380 . S
C1334 C1335 1.376 1_455 S
C1334 H1357 0.930 . S
C1335 C1334 1.376 1_655 S
C1335 C1336 1.370 . S
C1336 C1335 1.370 . S
C1336 C1337 1.396 . S
C1336 H1358 0.929 . S
C1337 C1332 1.373 1_655 S
C1337 C1336 1.396 . S
C1337 H1359 0.929 . S
C1338 O1348 1.240 . S
C1338 O1349 1.289 . S
C1339 O1350 1.258 1_655 S
C1339 O1351 1.256 . S
O1340 La1320 2.521 . S
O1340 C1322 1.261 . S
O1341 La1320 2.628 . S
O1341 C1322 1.243 . S
O1342 La1320 2.554 1_655 S
O1342 C1329 1.240 . S
O1343 La1320 2.757 . S
O1343 La1321 2.482 . S
O1343 C1329 1.289 1_455 S
O1344 La1320 2.470 . S
O1344 C1330 1.258 . S
O1345 La1321 2.503 . S
O1345 C1330 1.256 . S
O1346 La1321 2.521 . S
O1346 C1331 1.261 . S
O1347 La1321 2.627 . S
O1347 C1331 1.242 . S
O1348 La1321 2.554 . S
O1348 C1338 1.240 . S
O1349 La1320 2.482 . S
O1349 La1321 2.757 . S
O1349 C1338 1.289 . S
O1350 La1321 2.470 . S
O1350 C1339 1.258 1_455 S
O1351 La1320 2.503 1_655 S
O1351 C1339 1.256 . S
H1352 C1324 0.930 . S
H1353 C1325 0.930 . S
H1354 C1327 0.929 . S
H1355 C1328 0.929 . S
H1356 C1333 0.930 . S
H1357 C1334 0.930 . S
H1358 C1336 0.929 . S
H1359 C1337 0.929 . S
La1360 C1362 2.928 . S
La1360 O1380 2.521 . S
La1360 O1381 2.628 . S
La1360 O1382 2.554 . S
La1360 O1383 2.757 . S
La1360 O1384 2.470 . S
La1360 O1389 2.482 . S
La1360 O1391 2.503 . S
La1361 C1371 2.928 . S
La1361 O1383 2.482 . S
La1361 O1385 2.503 . S
La1361 O1386 2.521 . S
La1361 O1387 2.628 . S
La1361 O1388 2.554 . S
La1361 O1389 2.757 . S
La1361 O1390 2.470 . S
C1362 La1360 2.928 . S
C1362 C1363 1.503 . S
C1362 O1380 1.261 . S
C1362 O1381 1.243 . S
C1363 C1362 1.503 . S
C1363 C1364 1.394 . S
C1363 C1368 1.373 . S
C1364 C1363 1.394 . S
C1364 C1365 1.380 . S
C1364 H1392 0.930 . S
C1365 C1364 1.380 . S
C1365 C1366 1.376 . S
C1365 H1393 0.930 . S
C1366 C1365 1.376 . S
C1366 C1367 1.370 . S
C1367 C1366 1.370 . S
C1367 C1368 1.396 . S
C1367 H1394 0.929 . S
C1368 C1363 1.373 . S
C1368 C1367 1.396 . S
C1368 H1395 0.929 . S
C1369 O1382 1.240 . S
C1369 O1383 1.289 . S
C1370 O1384 1.258 . S
C1370 O1385 1.256 . S
C1371 La1361 2.928 . S
C1371 C1372 1.503 . S
C1371 O1386 1.261 . S
C1371 O1387 1.243 . S
C1372 C1371 1.503 . S
C1372 C1373 1.394 . S
C1372 C1377 1.373 . S
C1373 C1372 1.394 . S
C1373 C1374 1.380 . S
C1373 H1396 0.930 . S
C1374 C1373 1.380 . S
C1374 C1375 1.376 . S
C1374 H1397 0.930 . S
C1375 C1374 1.376 . S
C1375 C1376 1.370 . S
C1376 C1375 1.370 . S
C1376 C1377 1.396 . S
C1376 H1398 0.929 . S
C1377 C1372 1.373 . S
C1377 C1376 1.396 . S
C1377 H1399 0.929 . S
C1378 O1388 1.240 . S
C1378 O1389 1.289 . S
C1379 O1390 1.258 . S
C1379 O1391 1.256 . S
O1380 La1360 2.521 . S
O1380 C1362 1.261 . S
O1381 La1360 2.628 . S
O1381 C1362 1.243 . S
O1382 La1360 2.554 . S
O1382 C1369 1.240 . S
O1383 La1360 2.757 . S
O1383 La1361 2.482 . S
O1383 C1369 1.289 . S
O1384 La1360 2.470 . S
O1384 C1370 1.258 . S
O1385 La1361 2.503 . S
O1385 C1370 1.256 . S
O1386 La1361 2.521 . S
O1386 C1371 1.261 . S
O1387 La1361 2.628 . S
O1387 C1371 1.243 . S
O1388 La1361 2.554 . S
O1388 C1378 1.240 . S
O1389 La1360 2.482 . S
O1389 La1361 2.757 . S
O1389 C1378 1.289 . S
O1390 La1361 2.470 . S
O1390 C1379 1.258 . S
O1391 La1360 2.503 . S
O1391 C1379 1.256 . S
H1392 C1364 0.930 . S
H1393 C1365 0.930 . S
H1394 C1367 0.929 . S
H1395 C1368 0.929 . S
H1396 C1373 0.930 . S
H1397 C1374 0.930 . S
H1398 C1376 0.929 . S
H1399 C1377 0.929 . S
La1400 C1402 2.928 . S
La1400 O1420 2.521 . S
La1400 O1421 2.628 . S
La1400 O1422 2.554 1_565 S
La1400 O1423 2.757 . S
La1400 O1424 2.470 . S
La1400 O1429 2.482 . S
La1400 O1431 2.503 1_565 S
La1401 C1411 2.928 . S
La1401 O1423 2.482 . S
La1401 O1425 2.503 . S
La1401 O1426 2.521 . S
La1401 O1427 2.628 1_565 S
La1401 O1428 2.554 . S
La1401 O1429 2.757 . S
La1401 O1430 2.470 . S
C1402 La1400 2.928 . S
C1402 C1403 1.503 . S
C1402 O1420 1.261 . S
C1402 O1421 1.243 . S
C1403 C1402 1.503 . S
C1403 C1404 1.394 . S
C1403 C1408 1.373 . S
C1404 C1403 1.394 . S
C1404 C1405 1.380 . S
C1404 H1432 0.930 . S
C1405 C1404 1.380 . S
C1405 C1406 1.376 . S
C1405 H1433 0.930 . S
C1406 C1405 1.376 . S
C1406 C1407 1.370 . S
C1407 C1406 1.370 . S
C1407 C1408 1.396 . S
C1407 H1434 0.929 . S
C1408 C1403 1.373 . S
C1408 C1407 1.396 . S
C1408 H1435 0.929 . S
C1409 O1422 1.240 . S
C1409 O1423 1.289 1_545 S
C1410 O1424 1.258 . S
C1410 O1425 1.256 . S
C1411 La1401 2.928 . S
C1411 C1412 1.503 . S
C1411 O1426 1.261 . S
C1411 O1427 1.243 1_565 S
C1412 C1411 1.503 . S
C1412 C1413 1.394 . S
C1412 C1417 1.373 1_565 S
C1413 C1412 1.394 . S
C1413 C1414 1.380 . S
C1413 H1436 0.930 . S
C1414 C1413 1.380 . S
C1414 C1415 1.376 1_565 S
C1414 H1437 0.930 . S
C1415 C1414 1.376 1_545 S
C1415 C1416 1.370 . S
C1416 C1415 1.370 . S
C1416 C1417 1.396 . S
C1416 H1438 0.929 . S
C1417 C1412 1.373 1_545 S
C1417 C1416 1.396 . S
C1417 H1439 0.929 . S
C1418 O1428 1.240 . S
C1418 O1429 1.289 . S
C1419 O1430 1.258 1_545 S
C1419 O1431 1.256 . S
O1420 La1400 2.521 . S
O1420 C1402 1.261 . S
O1421 La1400 2.628 . S
O1421 C1402 1.243 . S
O1422 La1400 2.554 1_545 S
O1422 C1409 1.240 . S
O1423 La1400 2.757 . S
O1423 La1401 2.482 . S
O1423 C1409 1.289 1_565 S
O1424 La1400 2.470 . S
O1424 C1410 1.258 . S
O1425 La1401 2.503 . S
O1425 C1410 1.256 . S
O1426 La1401 2.521 . S
O1426 C1411 1.261 . S
O1427 La1401 2.628 1_545 S
O1427 C1411 1.243 1_545 S
O1428 La1401 2.554 . S
O1428 C1418 1.240 . S
O1429 La1400 2.482 . S
O1429 La1401 2.757 . S
O1429 C1418 1.289 . S
O1430 La1401 2.470 . S
O1430 C1419 1.258 1_565 S
O1431 La1400 2.503 1_545 S
O1431 C1419 1.256 . S
H1432 C1404 0.930 . S
H1433 C1405 0.930 . S
H1434 C1407 0.929 . S
H1435 C1408 0.929 . S
H1436 C1413 0.930 . S
H1437 C1414 0.930 . S
H1438 C1416 0.929 . S
H1439 C1417 0.929 . S
C9 C99 2.306 1_545 S
C19 C49 2.307 1_455 S
C89 C59 2.306 . S
C129 C179 2.405 1_455 S
C219 C169 2.407 . S
C209 C139 2.407 1_565 S
C258 C330 2.306 1_565 S
C298 C250 2.307 1_455 S
C338 C290 2.306 . S
C378 C410 2.405 1_655 S
C450 C418 2.407 . S
C370 C458 2.407 1_565 S
C579 C489 2.386 . S
C529 C499 2.386 . S
C539 C569 2.385 . S
C609 C659 2.417 . S
C699 C649 2.418 . S
C619 C689 2.419 . S
C738 C810 2.332 . S
C778 C730 2.335 . S
C770 C818 2.333 . S
C890 C858 2.180 1_554 S
C898 C930 2.182 1_556 S
C850 C938 2.180 1_554 S
C969 C1059 2.332 . S
C1009 C979 2.335 . S
C1049 C1019 2.333 . S
C1089 C1139 2.180 1_554 S
C1129 C1179 2.182 1_554 S
C1169 C1099 2.180 1_554 S
C1218 C1290 2.386 . S
C1258 C1210 2.386 . S
C1250 C1298 2.385 . S
C1338 C1370 2.417 . S
C1378 C1410 2.418 . S
C1330 C1418 2.419 . S
C10 C809 2.428 . S
C729 C50 2.427 . S
C90 C769 2.429 . S
C130 C1369 2.299 . S
C1409 C170 2.298 . S
C210 C1329 2.298 . S
C1058 C259 2.428 . S
C299 C978 2.427 . S
C339 C1018 2.429 . S
C658 C379 2.299 . S
C698 C419 2.298 . S
C618 C459 2.298 . S
C490 C1289 2.368 1_655 S
C530 C1209 2.367 . S
C1249 C570 2.368 1_565 S
C409 C610 2.343 . S
C449 C650 2.344 . S
C369 C690 2.343 . S
C98 C739 2.415 . S
C779 C18 2.413 . S
C819 C58 2.416 . S
C1138 C859 2.342 1_565 S
C1178 C899 2.340 1_455 S
C939 C1098 2.340 . S
C329 C970 2.415 . S
C249 C1010 2.412 . S
C289 C1050 2.416 . S
C1090 C889 2.342 1_565 S
C929 C1130 2.340 1_655 S
C1170 C849 2.340 . S
C1219 C578 2.368 1_455 S
C1259 C498 2.367 . S
C1299 C538 2.368 1_565 S
C1339 C178 2.343 . S
C218 C1379 2.343 . S
C138 C1419 2.343 . S
C1166 C6 3.399 . S
C1086 C46 3.401 1_545 S
C86 C1126 3.401 1_455 S
C526 C126 3.511 . S
C166 C566 3.511 1_545 S
C206 C486 3.510 1_655 S
C255 C935 3.399 . S
C295 C855 3.401 1_545 S
C335 C895 3.401 1_655 S
C1255 C375 3.511 . S
C1295 C415 3.510 1_545 S
C1215 C455 3.510 1_655 S
C606 C1006 3.512 1_455 S
C646 C1046 3.512 . S
C686 C966 3.512 1_565 S
C735 C1415 3.512 1_565 S
C1335 C775 3.513 1_655 S
C815 C1375 3.512 . S
C175 C15 1.501 1_455 S
C215 C55 1.501 . S
C135 C95 1.500 1_565 S
C246 C406 1.501 1_455 S
C446 C286 1.501 . S
C326 C366 1.500 1_565 S
C655 C495 1.586 . S
C695 C535 1.587 . S
C615 C575 1.586 . S
C886 C726 2.064 . S
C766 C926 2.064 . S
C806 C846 2.065 . S
C975 C1135 2.064 . S
C1175 C1015 2.064 . S
C1055 C1095 2.065 . S
C1206 C1366 1.586 . S
C1406 C1246 1.587 . S
C1286 C1326 1.586 . S
