# Generated by pormake.
# Topology ull, (4)-cn, num edge types: 1
# Building blocks:
#     Node 0, Type 0, BuildingBlock: NAHDIM_clean_sbu_0, # of connection points: 4
#     Node 1, Type 0, BuildingBlock: NAHDIM_clean_sbu_0, # of connection points: 4
#     Node 2, Type 0, BuildingBlock: NAHDIM_clean_sbu_0, # of connection points: 4
#     Node 3, Type 0, BuildingBlock: NAHDIM_clean_sbu_0, # of connection points: 4
#     Node 4, Type 0, BuildingBlock: NAHDIM_clean_sbu_0, # of connection points: 4
#     Node 5, Type 0, BuildingBlock: NAHDIM_clean_sbu_0, # of connection points: 4
#     Node 6, Type 0, BuildingBlock: NAHDIM_clean_sbu_0, # of connection points: 4
#     Node 7, Type 0, BuildingBlock: NAHDIM_clean_sbu_0, # of connection points: 4
#     Node 8, Type 0, BuildingBlock: NAHDIM_clean_sbu_0, # of connection points: 4
#     Node 9, Type 0, BuildingBlock: NAHDIM_clean_sbu_0, # of connection points: 4
#     Node 10, Type 0, BuildingBlock: NAHDIM_clean_sbu_0, # of connection points: 4
#     Node 11, Type 0, BuildingBlock: NAHDIM_clean_sbu_0, # of connection points: 4
#     Node 12, Type 0, BuildingBlock: NAHDIM_clean_sbu_0, # of connection points: 4
#     Node 13, Type 0, BuildingBlock: NAHDIM_clean_sbu_0, # of connection points: 4
#     Node 14, Type 0, BuildingBlock: NAHDIM_clean_sbu_0, # of connection points: 4
#     Node 15, Type 0, BuildingBlock: NAHDIM_clean_sbu_0, # of connection points: 4
#     Node 16, Type 0, BuildingBlock: NAHDIM_clean_sbu_0, # of connection points: 4
#     Node 17, Type 0, BuildingBlock: NAHDIM_clean_sbu_0, # of connection points: 4
#     Node 18, Type 0, BuildingBlock: NAHDIM_clean_sbu_0, # of connection points: 4
#     Node 19, Type 0, BuildingBlock: NAHDIM_clean_sbu_0, # of connection points: 4
#     Node 20, Type 0, BuildingBlock: NAHDIM_clean_sbu_0, # of connection points: 4
#     Node 21, Type 0, BuildingBlock: NAHDIM_clean_sbu_0, # of connection points: 4
#     Node 22, Type 0, BuildingBlock: NAHDIM_clean_sbu_0, # of connection points: 4
#     Node 23, Type 0, BuildingBlock: NAHDIM_clean_sbu_0, # of connection points: 4
#     Node 24, Type 0, BuildingBlock: NAHDIM_clean_sbu_0, # of connection points: 4
#     Node 25, Type 0, BuildingBlock: NAHDIM_clean_sbu_0, # of connection points: 4
#     Node 26, Type 0, BuildingBlock: NAHDIM_clean_sbu_0, # of connection points: 4
#     Node 27, Type 0, BuildingBlock: NAHDIM_clean_sbu_0, # of connection points: 4
#     Node 28, Type 0, BuildingBlock: NAHDIM_clean_sbu_0, # of connection points: 4
#     Node 29, Type 0, BuildingBlock: NAHDIM_clean_sbu_0, # of connection points: 4
#     Node 30, Type 0, BuildingBlock: NAHDIM_clean_sbu_0, # of connection points: 4
#     Node 31, Type 0, BuildingBlock: NAHDIM_clean_sbu_0, # of connection points: 4
#     Node 32, Type 0, BuildingBlock: NAHDIM_clean_sbu_0, # of connection points: 4
#     Node 33, Type 0, BuildingBlock: NAHDIM_clean_sbu_0, # of connection points: 4
#     Node 34, Type 0, BuildingBlock: NAHDIM_clean_sbu_0, # of connection points: 4
#     Node 35, Type 0, BuildingBlock: NAHDIM_clean_sbu_0, # of connection points: 4
#     Node 36, Type 0, BuildingBlock: NAHDIM_clean_sbu_0, # of connection points: 4
#     Node 37, Type 0, BuildingBlock: NAHDIM_clean_sbu_0, # of connection points: 4
#     Node 38, Type 0, BuildingBlock: NAHDIM_clean_sbu_0, # of connection points: 4
#     Node 39, Type 0, BuildingBlock: NAHDIM_clean_sbu_0, # of connection points: 4
#     Node 40, Type 0, BuildingBlock: NAHDIM_clean_sbu_0, # of connection points: 4
#     Node 41, Type 0, BuildingBlock: NAHDIM_clean_sbu_0, # of connection points: 4
#     Node 42, Type 0, BuildingBlock: NAHDIM_clean_sbu_0, # of connection points: 4
#     Node 43, Type 0, BuildingBlock: NAHDIM_clean_sbu_0, # of connection points: 4
#     Node 44, Type 0, BuildingBlock: NAHDIM_clean_sbu_0, # of connection points: 4
#     Node 45, Type 0, BuildingBlock: NAHDIM_clean_sbu_0, # of connection points: 4
#     Node 46, Type 0, BuildingBlock: NAHDIM_clean_sbu_0, # of connection points: 4
#     Node 47, Type 0, BuildingBlock: NAHDIM_clean_sbu_0, # of connection points: 4
#     Edge 48, Type (0, 0), BuildingBlock: XIVTED_clean_linker_0, # of connection points: 2
#     Edge 49, Type (0, 0), BuildingBlock: XIVTED_clean_linker_0, # of connection points: 2
#     Edge 50, Type (0, 0), BuildingBlock: XIVTED_clean_linker_0, # of connection points: 2
#     Edge 51, Type (0, 0), BuildingBlock: XIVTED_clean_linker_0, # of connection points: 2
#     Edge 52, Type (0, 0), BuildingBlock: XIVTED_clean_linker_0, # of connection points: 2
#     Edge 53, Type (0, 0), BuildingBlock: XIVTED_clean_linker_0, # of connection points: 2
#     Edge 54, Type (0, 0), BuildingBlock: XIVTED_clean_linker_0, # of connection points: 2
#     Edge 55, Type (0, 0), BuildingBlock: XIVTED_clean_linker_0, # of connection points: 2
#     Edge 56, Type (0, 0), BuildingBlock: XIVTED_clean_linker_0, # of connection points: 2
#     Edge 57, Type (0, 0), BuildingBlock: XIVTED_clean_linker_0, # of connection points: 2
#     Edge 58, Type (0, 0), BuildingBlock: XIVTED_clean_linker_0, # of connection points: 2
#     Edge 59, Type (0, 0), BuildingBlock: XIVTED_clean_linker_0, # of connection points: 2
#     Edge 60, Type (0, 0), BuildingBlock: XIVTED_clean_linker_0, # of connection points: 2
#     Edge 61, Type (0, 0), BuildingBlock: XIVTED_clean_linker_0, # of connection points: 2
#     Edge 62, Type (0, 0), BuildingBlock: XIVTED_clean_linker_0, # of connection points: 2
#     Edge 63, Type (0, 0), BuildingBlock: XIVTED_clean_linker_0, # of connection points: 2
#     Edge 64, Type (0, 0), BuildingBlock: XIVTED_clean_linker_0, # of connection points: 2
#     Edge 65, Type (0, 0), BuildingBlock: XIVTED_clean_linker_0, # of connection points: 2
#     Edge 66, Type (0, 0), BuildingBlock: XIVTED_clean_linker_0, # of connection points: 2
#     Edge 67, Type (0, 0), BuildingBlock: XIVTED_clean_linker_0, # of connection points: 2
#     Edge 68, Type (0, 0), BuildingBlock: XIVTED_clean_linker_0, # of connection points: 2
#     Edge 69, Type (0, 0), BuildingBlock: XIVTED_clean_linker_0, # of connection points: 2
#     Edge 70, Type (0, 0), BuildingBlock: XIVTED_clean_linker_0, # of connection points: 2
#     Edge 71, Type (0, 0), BuildingBlock: XIVTED_clean_linker_0, # of connection points: 2
#     Edge 72, Type (0, 0), BuildingBlock: XIVTED_clean_linker_0, # of connection points: 2
#     Edge 73, Type (0, 0), BuildingBlock: XIVTED_clean_linker_0, # of connection points: 2
#     Edge 74, Type (0, 0), BuildingBlock: XIVTED_clean_linker_0, # of connection points: 2
#     Edge 75, Type (0, 0), BuildingBlock: XIVTED_clean_linker_0, # of connection points: 2
#     Edge 76, Type (0, 0), BuildingBlock: XIVTED_clean_linker_0, # of connection points: 2
#     Edge 77, Type (0, 0), BuildingBlock: XIVTED_clean_linker_0, # of connection points: 2
#     Edge 78, Type (0, 0), BuildingBlock: XIVTED_clean_linker_0, # of connection points: 2
#     Edge 79, Type (0, 0), BuildingBlock: XIVTED_clean_linker_0, # of connection points: 2
#     Edge 80, Type (0, 0), BuildingBlock: XIVTED_clean_linker_0, # of connection points: 2
#     Edge 81, Type (0, 0), BuildingBlock: XIVTED_clean_linker_0, # of connection points: 2
#     Edge 82, Type (0, 0), BuildingBlock: XIVTED_clean_linker_0, # of connection points: 2
#     Edge 83, Type (0, 0), BuildingBlock: XIVTED_clean_linker_0, # of connection points: 2
#     Edge 84, Type (0, 0), BuildingBlock: XIVTED_clean_linker_0, # of connection points: 2
#     Edge 85, Type (0, 0), BuildingBlock: XIVTED_clean_linker_0, # of connection points: 2
#     Edge 86, Type (0, 0), BuildingBlock: XIVTED_clean_linker_0, # of connection points: 2
#     Edge 87, Type (0, 0), BuildingBlock: XIVTED_clean_linker_0, # of connection points: 2
#     Edge 88, Type (0, 0), BuildingBlock: XIVTED_clean_linker_0, # of connection points: 2
#     Edge 89, Type (0, 0), BuildingBlock: XIVTED_clean_linker_0, # of connection points: 2
#     Edge 90, Type (0, 0), BuildingBlock: XIVTED_clean_linker_0, # of connection points: 2
#     Edge 91, Type (0, 0), BuildingBlock: XIVTED_clean_linker_0, # of connection points: 2
#     Edge 92, Type (0, 0), BuildingBlock: XIVTED_clean_linker_0, # of connection points: 2
#     Edge 93, Type (0, 0), BuildingBlock: XIVTED_clean_linker_0, # of connection points: 2
#     Edge 94, Type (0, 0), BuildingBlock: XIVTED_clean_linker_0, # of connection points: 2
#     Edge 95, Type (0, 0), BuildingBlock: XIVTED_clean_linker_0, # of connection points: 2
#     Edge 96, Type (0, 0), BuildingBlock: XIVTED_clean_linker_0, # of connection points: 2
#     Edge 97, Type (0, 0), BuildingBlock: XIVTED_clean_linker_0, # of connection points: 2
#     Edge 98, Type (0, 0), BuildingBlock: XIVTED_clean_linker_0, # of connection points: 2
#     Edge 99, Type (0, 0), BuildingBlock: XIVTED_clean_linker_0, # of connection points: 2
#     Edge 100, Type (0, 0), BuildingBlock: XIVTED_clean_linker_0, # of connection points: 2
#     Edge 101, Type (0, 0), BuildingBlock: XIVTED_clean_linker_0, # of connection points: 2
#     Edge 102, Type (0, 0), BuildingBlock: XIVTED_clean_linker_0, # of connection points: 2
#     Edge 103, Type (0, 0), BuildingBlock: XIVTED_clean_linker_0, # of connection points: 2
#     Edge 104, Type (0, 0), BuildingBlock: XIVTED_clean_linker_0, # of connection points: 2
#     Edge 105, Type (0, 0), BuildingBlock: XIVTED_clean_linker_0, # of connection points: 2
#     Edge 106, Type (0, 0), BuildingBlock: XIVTED_clean_linker_0, # of connection points: 2
#     Edge 107, Type (0, 0), BuildingBlock: XIVTED_clean_linker_0, # of connection points: 2
#     Edge 108, Type (0, 0), BuildingBlock: XIVTED_clean_linker_0, # of connection points: 2
#     Edge 109, Type (0, 0), BuildingBlock: XIVTED_clean_linker_0, # of connection points: 2
#     Edge 110, Type (0, 0), BuildingBlock: XIVTED_clean_linker_0, # of connection points: 2
#     Edge 111, Type (0, 0), BuildingBlock: XIVTED_clean_linker_0, # of connection points: 2
#     Edge 112, Type (0, 0), BuildingBlock: XIVTED_clean_linker_0, # of connection points: 2
#     Edge 113, Type (0, 0), BuildingBlock: XIVTED_clean_linker_0, # of connection points: 2
#     Edge 114, Type (0, 0), BuildingBlock: XIVTED_clean_linker_0, # of connection points: 2
#     Edge 115, Type (0, 0), BuildingBlock: XIVTED_clean_linker_0, # of connection points: 2
#     Edge 116, Type (0, 0), BuildingBlock: XIVTED_clean_linker_0, # of connection points: 2
#     Edge 117, Type (0, 0), BuildingBlock: XIVTED_clean_linker_0, # of connection points: 2
#     Edge 118, Type (0, 0), BuildingBlock: XIVTED_clean_linker_0, # of connection points: 2
#     Edge 119, Type (0, 0), BuildingBlock: XIVTED_clean_linker_0, # of connection points: 2
#     Edge 120, Type (0, 0), BuildingBlock: XIVTED_clean_linker_0, # of connection points: 2
#     Edge 121, Type (0, 0), BuildingBlock: XIVTED_clean_linker_0, # of connection points: 2
#     Edge 122, Type (0, 0), BuildingBlock: XIVTED_clean_linker_0, # of connection points: 2
#     Edge 123, Type (0, 0), BuildingBlock: XIVTED_clean_linker_0, # of connection points: 2
#     Edge 124, Type (0, 0), BuildingBlock: XIVTED_clean_linker_0, # of connection points: 2
#     Edge 125, Type (0, 0), BuildingBlock: XIVTED_clean_linker_0, # of connection points: 2
#     Edge 126, Type (0, 0), BuildingBlock: XIVTED_clean_linker_0, # of connection points: 2
#     Edge 127, Type (0, 0), BuildingBlock: XIVTED_clean_linker_0, # of connection points: 2
#     Edge 128, Type (0, 0), BuildingBlock: XIVTED_clean_linker_0, # of connection points: 2
#     Edge 129, Type (0, 0), BuildingBlock: XIVTED_clean_linker_0, # of connection points: 2
#     Edge 130, Type (0, 0), BuildingBlock: XIVTED_clean_linker_0, # of connection points: 2
#     Edge 131, Type (0, 0), BuildingBlock: XIVTED_clean_linker_0, # of connection points: 2
#     Edge 132, Type (0, 0), BuildingBlock: XIVTED_clean_linker_0, # of connection points: 2
#     Edge 133, Type (0, 0), BuildingBlock: XIVTED_clean_linker_0, # of connection points: 2
#     Edge 134, Type (0, 0), BuildingBlock: XIVTED_clean_linker_0, # of connection points: 2
#     Edge 135, Type (0, 0), BuildingBlock: XIVTED_clean_linker_0, # of connection points: 2
#     Edge 136, Type (0, 0), BuildingBlock: XIVTED_clean_linker_0, # of connection points: 2
#     Edge 137, Type (0, 0), BuildingBlock: XIVTED_clean_linker_0, # of connection points: 2
#     Edge 138, Type (0, 0), BuildingBlock: XIVTED_clean_linker_0, # of connection points: 2
#     Edge 139, Type (0, 0), BuildingBlock: XIVTED_clean_linker_0, # of connection points: 2
#     Edge 140, Type (0, 0), BuildingBlock: XIVTED_clean_linker_0, # of connection points: 2
#     Edge 141, Type (0, 0), BuildingBlock: XIVTED_clean_linker_0, # of connection points: 2
#     Edge 142, Type (0, 0), BuildingBlock: XIVTED_clean_linker_0, # of connection points: 2
#     Edge 143, Type (0, 0), BuildingBlock: XIVTED_clean_linker_0, # of connection points: 2
# Relax obj value: 0.162
# Max RMSD: 0.220
# Mean RMSD: 0.213
data_MOF--net-ull--node1-NAHDIM_clean_sbu_0--edge1-XIVTED_clean_linker_0
_symmetry_space_group_name_H-M    P1
_symmetry_Int_Tables_number       1
_symmetry_cell_setting            triclinic
loop_
_symmetry_equiv_pos_as_xyz
'x, y, z'
_cell_length_a     59.047359
_cell_length_b     60.177462
_cell_length_c     60.177453
_cell_angle_alpha  90.009661
_cell_angle_beta   90.033698
_cell_angle_gamma 89.990641
loop_
_atom_site_label
_atom_site_type_symbol
_atom_site_fract_x
_atom_site_fract_y
_atom_site_fract_z
_atom_type_partial_charge
C0 C 0.04348 0.3514 0.16579 0.0
O1 O 0.04507 0.36764 0.1803 0.0
O2 O 0.0007 0.38025 0.19258 0.0
Zn3 Zn 0.99702 0.34885 0.18148 0.0
O4 O 0.97079 0.34665 0.16035 0.0
C5 C 0.00798 0.32795 0.22269 0.0
O6 O 0.02443 0.34262 0.22193 0.0
O7 O 0.02492 0.34085 0.16396 0.0
C8 C 0.9504 0.35172 0.16476 0.0
O9 O 0.94521 0.35886 0.18475 0.0
C10 C 0.99271 0.3877 0.21071 0.0
O11 O 0.97992 0.37478 0.22304 0.0
O12 O 0.99358 0.32741 0.20699 0.0
C13 C 0.58854 0.01745 0.19476 0.0
O14 O 0.58417 0.0235 0.17422 0.0
O15 O 0.63137 0.03061 0.15547 0.0
Zn16 Zn 0.63205 0.00446 0.17637 0.0
O17 O 0.66148 0.00447 0.19337 0.0
C18 C 0.64557 0.96494 0.15269 0.0
O19 O 0.66571 0.97116 0.15955 0.0
O20 O 0.60733 0.00813 0.19909 0.0
C21 C 0.66344 0.99102 0.20954 0.0
O22 O 0.64676 0.9772 0.21375 0.0
C23 C 0.6472 0.03327 0.14143 0.0
O24 O 0.66403 0.01899 0.14108 0.0
O25 O 0.62835 0.97631 0.15834 0.0
C26 C 0.95311 0.64923 0.15424 0.0
O27 O 0.9489 0.63644 0.17144 0.0
O28 O 0.99721 0.62585 0.19066 0.0
Zn29 Zn -6e-05 0.65325 0.17166 0.0
O30 O 0.02723 0.65206 0.15189 0.0
C31 C 0.98628 0.68138 0.20653 0.0
O32 O 0.96961 0.66692 0.2064 0.0
O33 O 0.97277 0.65747 0.15175 0.0
C34 C 0.04771 0.65219 0.15834 0.0
O35 O 0.05223 0.6525 0.17972 0.0
C36 C 0.9913 0.60659 0.18424 0.0
O37 O 0.98706 0.60312 0.16309 0.0
O38 O 0.00212 0.67933 0.1924 0.0
C39 C 0.41943 0.99703 0.21218 0.0
O40 O 0.40347 0.00732 0.22338 0.0
O41 O 0.38285 0.9746 0.1538 0.0
Zn42 Zn 0.38666 0.99878 0.17651 0.0
O43 O 0.36161 0.99641 0.19897 0.0
C44 C 0.39894 0.03174 0.14476 0.0
O45 O 0.4129 0.01588 0.13863 0.0
O46 O 0.41635 0.99294 0.19169 0.0
C47 C 0.34206 0.00471 0.19601 0.0
O48 O 0.33774 0.01554 0.17754 0.0
C49 C 0.36947 0.97599 0.13733 0.0
O50 O 0.3571 0.99396 0.1348 0.0
O51 O 0.38612 0.02853 0.16139 0.0
C52 C 0.04109 0.61349 0.84298 0.0
O53 O 0.03905 0.5947 0.83205 0.0
O54 O -0.00022 0.59355 0.80773 0.0
Zn55 Zn 0.99749 0.62362 0.8226 0.0
O56 O 0.97081 0.62524 0.84329 0.0
C57 C 0.98865 0.64716 0.78059 0.0
O58 O 0.98155 0.62778 0.7734 0.0
O59 O 0.02561 0.62811 0.84131 0.0
C60 C 0.95111 0.63132 0.83734 0.0
O61 O 0.94724 0.63594 0.81635 0.0
C62 C 0.98506 0.58193 0.79758 0.0
O63 O 0.9643 0.58939 0.79519 0.0
O64 O 0.996 0.6489 0.80038 0.0
C65 C 0.41734 0.00061 0.78607 0.0
O66 O 0.40196 0.98928 0.7751 0.0
O67 O 0.38181 0.02213 0.84548 0.0
Zn68 Zn 0.38543 0.99761 0.82305 0.0
O69 O 0.35889 0.9988 0.8018 0.0
C70 C 0.36944 0.96033 0.84799 0.0
O71 O 0.35023 0.97103 0.84538 0.0
O72 O 0.41419 0.00477 0.80654 0.0
C73 C 0.35033 0.98205 0.79206 0.0
O74 O 0.35897 0.96224 0.79559 0.0
C75 C 0.36276 0.02973 0.85173 0.0
O76 O 0.34407 0.02098 0.84374 0.0
O77 O 0.38735 0.96829 0.83937 0.0
C78 C 0.96247 0.36336 0.84015 0.0
O79 O 0.96111 0.38071 0.82698 0.0
O80 O 0.00365 0.3891 0.80751 0.0
Zn81 Zn 0.007 0.3582 0.81994 0.0
O82 O 0.03492 0.35681 0.83897 0.0
C83 C 0.9955 0.33591 0.77896 0.0
O84 O 0.98017 0.3517 0.77787 0.0
O85 O 0.98009 0.35122 0.83955 0.0
C86 C 0.03424 0.36642 0.85776 0.0
O87 O 0.01576 0.37715 0.8635 0.0
C88 C 0.01573 0.39723 0.79205 0.0
O89 O 0.03185 0.38509 0.78316 0.0
O90 O 0.00903 0.33546 0.79539 0.0
C91 C 0.58013 0.98956 0.80564 0.0
O92 O 0.57869 0.9849 0.82692 0.0
O93 O 0.62825 0.98286 0.84141 0.0
Zn94 Zn 0.62555 0.00534 0.8168 0.0
O95 O 0.65221 0.00164 0.79647 0.0
C96 C 0.61054 0.03975 0.84564 0.0
O97 O 0.59575 0.02426 0.8507 0.0
O98 O 0.5978 0.99913 0.79831 0.0
C99 C 0.66967 0.01394 0.79616 0.0
O100 O 0.67123 0.03063 0.81016 0.0
C101 C 0.62616 0.96211 0.83803 0.0
O102 O 0.62204 0.95491 0.81782 0.0
O103 O 0.62503 0.03586 0.83054 0.0
C104 C 0.2007 0.02823 0.38489 0.0
O105 O 0.17993 0.03601 0.38419 0.0
O106 O 0.1667 0.03562 0.33904 0.0
Zn107 Zn 0.18762 0.00946 0.34278 0.0
O108 O 0.20724 0.00671 0.31566 0.0
C109 C 0.15495 0.98126 0.36338 0.0
O110 O 0.15327 0.9987 0.37638 0.0
O111 O 0.2077 0.01588 0.36917 0.0
C112 C 0.22553 0.99566 0.31681 0.0
O113 O 0.23068 0.98554 0.33549 0.0
C114 C 0.14662 0.03389 0.33166 0.0
O115 O 0.13922 0.01442 0.32498 0.0
O116 O 0.16923 0.98157 0.34758 0.0
C117 C 0.96008 0.14332 0.3834 0.0
O118 O 0.975 0.1426 0.3996 0.0
O119 O 0.99294 0.1884 0.39981 0.0
Zn120 Zn 0.99185 0.17499 0.36904 0.0
O121 O 0.01736 0.15359 0.36378 0.0
C122 C 0.00174 0.21699 0.34712 0.0
O123 O 0.01316 0.22097 0.36541 0.0
O124 O 0.96329 0.15676 0.36742 0.0
C125 C 0.03739 0.15843 0.35781 0.0
O126 O 0.0432 0.17935 0.35537 0.0
C127 C 0.00962 0.19583 0.41094 0.0
O128 O 0.03004 0.19577 0.40231 0.0
O129 O 0.99128 0.19864 0.34509 0.0
C130 C 0.77023 0.99635 0.3949 0.0
O131 O 0.75976 0.00555 0.37796 0.0
O132 O 0.83052 0.96901 0.36465 0.0
Zn133 Zn 0.809 0.99481 0.365 0.0
O134 O 0.78779 0.99254 0.33891 0.0
C135 C 0.8394 0.02638 0.38225 0.0
O136 O 0.83883 0.01177 0.39847 0.0
O137 O 0.7911 0.99152 0.39317 0.0
C138 C 0.78873 0.00412 0.32128 0.0
O139 O 0.80477 0.01908 0.31908 0.0
C140 C 0.84668 0.96716 0.35087 0.0
O141 O 0.84947 0.98252 0.3356 0.0
O142 O 0.82709 0.02315 0.36523 0.0
C143 C 0.03364 0.86535 0.36806 0.0
O144 O 0.01451 0.87095 0.3777 0.0
O145 O 0.00735 0.80711 0.38531 0.0
Zn146 Zn 0.0074 0.82691 0.35819 0.0
O147 O 0.97985 0.84644 0.35579 0.0
C148 C 0.99076 0.79448 0.32883 0.0
O149 O 0.97419 0.79549 0.34338 0.0
O150 O 0.03502 0.84665 0.35832 0.0
C151 C 0.96329 0.84739 0.36921 0.0
O152 O 0.96299 0.83433 0.38669 0.0
C153 C 0.01354 0.81317 0.40462 0.0
O154 O 0.01916 0.834 0.40804 0.0
O155 O 0.00787 0.807 0.33144 0.0
C156 C 0.20089 0.97851 0.60365 0.0
O157 O 0.17865 0.97861 0.60295 0.0
O158 O 0.16949 0.96342 0.65026 0.0
Zn159 Zn 0.19203 0.98846 0.64914 0.0
O160 O 0.21263 0.98725 0.67582 0.0
C161 C 0.16662 0.02775 0.6627 0.0
O162 O 0.1691 0.01964 0.68282 0.0
O163 O 0.21078 0.98324 0.62181 0.0
C164 C 0.22527 0.0035 0.68114 0.0
O165 O 0.22411 0.02198 0.66956 0.0
C166 C 0.15781 0.95799 0.66711 0.0
O167 O 0.16017 0.96917 0.68572 0.0
O168 O 0.17535 0.01752 0.64633 0.0
C169 C 0.05404 0.14802 0.63129 0.0
O170 O 0.04572 0.14949 0.61109 0.0
O171 O 0.02062 0.19015 0.60917 0.0
Zn172 Zn 0.01685 0.17711 0.63981 0.0
O173 O 0.99097 0.15553 0.63927 0.0
C174 C 0.00082 0.21824 0.66047 0.0
O175 O 0.98943 0.22057 0.64188 0.0
O176 O 0.04469 0.15896 0.64686 0.0
C177 C 0.97239 0.15673 0.64982 0.0
O178 O 0.96833 0.17399 0.66258 0.0
C179 C 0.00464 0.19565 0.5961 0.0
O180 O 0.98349 0.19391 0.60261 0.0
O181 O 0.01314 0.20111 0.66318 0.0
C182 C 0.81141 0.01689 0.59984 0.0
O183 O 0.83356 0.01585 0.59821 0.0
O184 O 0.84357 0.03055 0.64901 0.0
Zn185 Zn 0.82052 0.00612 0.64579 0.0
O186 O 0.80002 0.00764 0.6723 0.0
C187 C 0.84755 0.97083 0.66169 0.0
O188 O 0.8484 0.98453 0.67868 0.0
O189 O 0.80208 0.01232 0.61831 0.0
C190 C 0.78478 0.99315 0.67559 0.0
O191 O 0.7826 0.97663 0.66147 0.0
C192 C 0.86368 0.02887 0.64172 0.0
O193 O 0.87005 0.01039 0.63192 0.0
O194 O 0.836 0.9763 0.64473 0.0
C195 C 0.95014 0.83861 0.65393 0.0
O196 O 0.94629 0.82149 0.64093 0.0
O197 O 0.99388 0.80602 0.62806 0.0
Zn198 Zn 0.9958 0.81993 0.65853 0.0
O199 O 0.02419 0.83816 0.66232 0.0
C200 C 0.98268 0.77844 0.67773 0.0
O201 O 0.97032 0.77775 0.65958 0.0
O202 O 0.96939 0.84068 0.66319 0.0
C203 C 0.04013 0.83936 0.64819 0.0
O204 O 0.03897 0.82746 0.62993 0.0
C205 C 0.98926 0.81658 0.61033 0.0
O206 O 0.98666 0.83825 0.61116 0.0
O207 O 0.99507 0.79535 0.68131 0.0
C208 C 0.41841 0.20015 0.00525 0.0
O209 O 0.42399 0.1795 0.00977 0.0
O210 O 0.38059 0.15859 0.0219 0.0
Zn211 Zn 0.37439 0.1807 0.99763 0.0
O212 O 0.3445 0.19588 0.00279 0.0
C213 C 0.35714 0.15088 0.96573 0.0
O214 O 0.34067 0.15074 0.98041 0.0
O215 O 0.39847 0.20434 0.9985 0.0
C216 C 0.33491 0.20632 0.98703 0.0
O217 O 0.34428 0.20619 0.96724 0.0
C218 C 0.3723 0.15945 0.04135 0.0
O219 O 0.35852 0.17575 0.04663 0.0
O220 O 0.37404 0.16357 0.96894 0.0
C221 C 0.42897 0.79897 0.99888 0.0
O222 O 0.4346 0.81974 0.99503 0.0
O223 O 0.38481 0.83337 0.9709 0.0
Zn224 Zn 0.38228 0.81566 0.99949 0.0
O225 O 0.3535 0.7974 0.99916 0.0
C226 C 0.36958 0.85442 0.02324 0.0
O227 O 0.35685 0.85661 0.00547 0.0
O228 O 0.40824 0.79408 0.00176 0.0
C229 C 0.33775 0.79861 0.01351 0.0
O230 O 0.33966 0.81259 0.03016 0.0
C231 C 0.36783 0.83598 0.95814 0.0
O232 O 0.34863 0.82615 0.96313 0.0
O233 O 0.3823 0.83745 0.02496 0.0
C234 C 0.19424 0.39932 0.99728 0.0
O235 O 0.17207 0.40053 0.99594 0.0
O236 O 0.15921 0.3543 0.98594 0.0
Zn237 Zn 0.18414 0.3541 0.00864 0.0
O238 O 0.20352 0.32697 0.00416 0.0
C239 C 0.15599 0.3384 0.04295 0.0
O240 O 0.15298 0.32288 0.02786 0.0
O241 O 0.20333 0.38122 0.00353 0.0
C242 C 0.21316 0.31686 0.02011 0.0
O243 O 0.2101 0.32397 0.04053 0.0
C244 C 0.16299 0.35077 0.96546 0.0
O245 O 0.1837 0.3462 0.95892 0.0
O246 O 0.16966 0.35418 0.03885 0.0
C247 C 0.58021 0.20238 0.98695 0.0
O248 O 0.57649 0.18162 0.98125 0.0
O249 O 0.62129 0.16497 0.96989 0.0
Zn250 Zn 0.62486 0.18541 0.99615 0.0
O251 O 0.65426 0.20249 0.99399 0.0
C252 C 0.63999 0.15113 0.02366 0.0
O253 O 0.6542 0.15016 0.00689 0.0
O254 O 0.5993 0.20758 0.99523 0.0
C255 C 0.66622 0.20681 0.01103 0.0
O256 O 0.65956 0.19965 0.03058 0.0
C257 C 0.63313 0.16526 0.95227 0.0
O258 O 0.64948 0.17991 0.9502 0.0
O259 O 0.62471 0.16603 0.02353 0.0
C260 C 0.77534 0.62039 0.99427 0.0
O261 O 0.7633 0.63552 0.00465 0.0
O262 O 0.83582 0.65565 0.97256 0.0
Zn263 Zn 0.81181 0.6532 0.99609 0.0
O264 O 0.78959 0.67855 0.99311 0.0
C265 C 0.84184 0.66758 0.02999 0.0
O266 O 0.84556 0.68302 0.01499 0.0
O267 O 0.79603 0.62425 0.99002 0.0
C268 C 0.77881 0.68641 0.00961 0.0
O269 O 0.78263 0.67826 0.02951 0.0
C270 C 0.83026 0.65459 0.95218 0.0
O271 O 0.80871 0.65327 0.94689 0.0
O272 O 0.8271 0.65272 0.026 0.0
C273 C 0.58149 0.7891 0.98917 0.0
O274 O 0.59717 0.78099 0.97597 0.0
O275 O 0.61627 0.84502 0.02347 0.0
Zn276 Zn 0.61484 0.82372 0.99744 0.0
O277 O 0.64074 0.80182 -0.00028 0.0
C278 C 0.62994 0.85765 0.96776 0.0
O279 O 0.64285 0.86231 0.98492 0.0
O280 O 0.58526 0.80722 0.99939 0.0
C281 C 0.65312 0.79594 0.98348 0.0
O282 O 0.64901 0.80407 0.96362 0.0
C283 C 0.63402 0.84719 0.03526 0.0
O284 O 0.65202 0.83529 0.03046 0.0
O285 O 0.61643 0.84126 0.96894 0.0
C286 C 0.18779 0.60595 0.00783 0.0
O287 O 0.16562 0.60763 0.00881 0.0
O288 O 0.16221 0.65722 0.02042 0.0
Zn289 Zn 0.18382 0.65173 0.99518 0.0
O290 O 0.20745 0.67592 0.9935 0.0
C291 C 0.16651 0.63445 0.95313 0.0
O292 O 0.18147 0.61858 0.95616 0.0
O293 O 0.19931 0.62262 0.00149 0.0
C294 C 0.20562 0.69419 0.00397 0.0
O295 O 0.18733 0.69801 0.01578 0.0
C296 C 0.16782 0.65421 0.0406 0.0
O297 O 0.18872 0.64836 0.04532 0.0
O298 O 0.16526 0.65024 0.96711 0.0
C299 C 0.78249 0.38538 0.99932 0.0
O300 O 0.77126 0.37039 0.9879 0.0
O301 O 0.84141 0.34855 0.02259 0.0
Zn302 Zn 0.81965 0.35343 0.99722 0.0
O303 O 0.7971 0.32819 0.99522 0.0
C304 C 0.85119 0.34061 0.96382 0.0
O305 O 0.85276 0.32328 0.97701 0.0
O306 O 0.80316 0.38191 0.00405 0.0
C307 C 0.79858 0.31078 0.0071 0.0
O308 O 0.81575 0.30856 0.0208 0.0
C309 C 0.83505 0.35249 0.04239 0.0
O310 O 0.81411 0.35896 0.04595 0.0
O311 O 0.83746 0.35609 0.96882 0.0
C312 C 0.54749 0.84668 0.66793 0.0
O313 O 0.55106 0.8608 0.68421 0.0
O314 O 0.50524 0.8693 0.70527 0.0
Zn315 Zn 0.50168 0.84171 0.68672 0.0
O316 O 0.47349 0.84354 0.66798 0.0
C317 C 0.48343 0.81615 0.7221 0.0
O318 O 0.46907 0.83283 0.72231 0.0
O319 O 0.52848 0.83688 0.66648 0.0
C320 C 0.47494 0.85075 0.64817 0.0
O321 O 0.49467 0.85752 0.64072 0.0
C322 C 0.50805 0.88886 0.69784 0.0
O323 O 0.50873 0.89216 0.67627 0.0
O324 O 0.49914 0.81594 0.70769 0.0
C325 C 0.08023 0.48347 0.71071 0.0
O326 O 0.09427 0.46871 0.71903 0.0
O327 O 0.11747 0.51182 0.65303 0.0
Zn328 Zn 0.11456 0.48789 0.67628 0.0
O329 O 0.14092 0.48869 0.6979 0.0
C330 C 0.12948 0.44565 0.65737 0.0
O331 O 0.14885 0.45027 0.66707 0.0
O332 O 0.08537 0.49329 0.69271 0.0
C333 C 0.16041 0.49592 0.69254 0.0
O334 O 0.16388 0.50286 0.67213 0.0
C335 C 0.12005 0.53238 0.65717 0.0
O336 O 0.12173 0.53901 0.6779 0.0
O337 O 0.11282 0.45879 0.65983 0.0
C338 C 0.4706 0.13554 0.63952 0.0
O339 O 0.48463 0.11858 0.63942 0.0
O340 O 0.49877 0.11855 0.68771 0.0
Zn341 Zn 0.50166 0.14819 0.67243 0.0
O342 O 0.52897 0.14924 0.65257 0.0
C343 C 0.48569 0.17518 0.70801 0.0
O344 O 0.46869 0.16116 0.70658 0.0
O345 O 0.47427 0.15148 0.65289 0.0
C346 C 0.54917 0.1525 0.65909 0.0
O347 O 0.55327 0.15498 0.6804 0.0
C348 C 0.50609 0.11419 0.70708 0.0
O349 O 0.51752 0.1294 0.71802 0.0
O350 O 0.50236 0.17298 0.69484 0.0
C351 C 0.92723 0.507 0.71416 0.0
O352 O 0.91179 0.51917 0.72409 0.0
O353 O 0.89099 0.47633 0.65778 0.0
Zn354 Zn 0.89295 0.50174 0.67949 0.0
O355 O 0.86754 0.4987 0.70177 0.0
C356 C 0.87206 0.53529 0.6529 0.0
O357 O 0.85448 0.52224 0.65581 0.0
O358 O 0.923 0.49893 0.69508 0.0
C359 C 0.85754 0.51506 0.71083 0.0
O360 O 0.86399 0.53537 0.70594 0.0
C361 C 0.87248 0.46666 0.65301 0.0
O362 O 0.85364 0.47331 0.66253 0.0
O363 O 0.89075 0.53028 0.66212 0.0
C364 C 0.5552 0.15137 0.34216 0.0
O365 O 0.56 0.14041 0.32388 0.0
O366 O 0.51159 0.12381 0.30837 0.0
Zn367 Zn 0.50811 0.15233 0.32563 0.0
O368 O 0.48039 0.15187 0.34515 0.0
C369 C 0.49642 0.17336 0.28465 0.0
O370 O 0.48877 0.15329 0.28049 0.0
O371 O 0.53498 0.15775 0.34566 0.0
C372 C 0.46025 0.15511 0.33842 0.0
O373 O 0.45643 0.15811 0.31713 0.0
C374 C 0.51956 0.10539 0.31508 0.0
O375 O 0.526 0.1033 0.33588 0.0
O376 O 0.50556 0.17731 0.30338 0.0
C377 C 0.91794 0.52047 0.30321 0.0
O378 O 0.92154 0.52653 0.32389 0.0
O379 O 0.87412 0.53487 0.34065 0.0
Zn380 Zn 0.87389 0.50821 0.32029 0.0
O381 O 0.84478 0.50737 0.30272 0.0
C382 C 0.86014 0.4743 0.35033 0.0
O383 O 0.84113 0.48553 0.3487 0.0
O384 O 0.89923 0.51135 0.29817 0.0
C385 C 0.83791 0.4894 0.29392 0.0
O386 O 0.84968 0.47111 0.29692 0.0
C387 C 0.85598 0.54359 0.34794 0.0
O388 O 0.83638 0.53531 0.34176 0.0
O389 O 0.87721 0.48062 0.33912 0.0
C390 C 0.4562 0.8478 0.33749 0.0
O391 O 0.45409 0.86386 0.32286 0.0
O392 O 0.49718 0.87437 0.306 0.0
Zn393 Zn 0.50098 0.84347 0.31809 0.0
O394 O 0.52921 0.84213 0.33665 0.0
C395 C 0.48491 0.82046 0.2799 0.0
O396 O 0.46767 0.8338 0.28343 0.0
O397 O 0.4745 0.83666 0.33815 0.0
C398 C 0.53539 0.82405 0.34571 0.0
O399 O 0.52377 0.80584 0.34179 0.0
C400 C 0.50592 0.88091 0.28787 0.0
O401 O 0.51883 0.86725 0.27649 0.0
O402 O 0.50188 0.82139 0.29288 0.0
C403 C 0.08765 0.50164 0.28065 0.0
O404 O 0.10426 0.5098 0.26867 0.0
O405 O 0.12351 0.48121 0.34002 0.0
Zn406 Zn 0.12026 0.50479 0.31673 0.0
O407 O 0.14602 0.50127 0.29506 0.0
C408 C 0.13986 0.53741 0.34375 0.0
O409 O 0.15635 0.52283 0.34217 0.0
O410 O 0.09035 0.49948 0.30149 0.0
C411 C 0.15574 0.51743 0.28538 0.0
O412 O 0.14884 0.5378 0.28938 0.0
C413 C 0.1171 0.4613 0.33687 0.0
O414 O 0.10848 0.45567 0.31754 0.0
O415 O 0.12167 0.53399 0.33295 0.0
C416 C 0.69678 0.51919 0.89138 0.0
O417 O 0.67518 0.52307 0.88789 0.0
O418 O 0.67123 0.52738 0.84143 0.0
Zn419 Zn 0.69339 0.50243 0.84691 0.0
O420 O 0.71719 0.50369 0.82302 0.0
C421 C 0.66793 0.46548 0.86496 0.0
O422 O 0.67283 0.47529 0.88384 0.0
O423 O 0.70823 0.50931 0.87642 0.0
C424 C 0.73015 0.48763 0.81791 0.0
O425 O 0.72778 0.46847 0.82811 0.0
C426 C 0.65021 0.52413 0.83824 0.0
O427 O 0.64255 0.50369 0.83684 0.0
O428 O 0.67622 0.47317 0.84704 0.0
C429 C 0.44907 0.64959 0.87707 0.0
O430 O 0.44548 0.66578 0.89128 0.0
O431 O 0.49729 0.68442 0.89909 0.0
Zn432 Zn 0.49643 0.66638 0.87091 0.0
O433 O 0.52254 0.64525 0.86894 0.0
C434 C 0.4819 0.70202 0.84349 0.0
O435 O 0.466 0.70276 0.85874 0.0
O436 O 0.46833 0.64766 0.86785 0.0
C437 C 0.54211 0.65014 0.8617 0.0
O438 O 0.54667 0.67078 0.85616 0.0
C439 C 0.49398 0.67731 0.9187 0.0
O440 O 0.4896 0.65614 0.92187 0.0
O441 O 0.49738 0.68745 0.84509 0.0
C442 C 0.29202 0.48867 0.89951 0.0
O443 O 0.3142 0.48717 0.90036 0.0
O444 O 0.32415 0.47276 0.85398 0.0
Zn445 Zn 0.30145 0.4979 0.85373 0.0
O446 O 0.28018 0.49593 0.82735 0.0
C447 C 0.33677 0.52906 0.8443 0.0
O448 O 0.34317 0.51273 0.83124 0.0
O449 O 0.28262 0.49406 0.88128 0.0
C450 C 0.2826 0.50544 0.80863 0.0
O451 O 0.3006 0.51774 0.80503 0.0
C452 C 0.33155 0.46189 0.83739 0.0
O453 O 0.32403 0.46661 0.81739 0.0
O454 O 0.31854 0.52701 0.85534 0.0
C455 C 0.52932 0.37006 0.85818 0.0
O456 O 0.51103 0.37699 0.86849 0.0
O457 O 0.50178 0.31309 0.87775 0.0
Zn458 Zn 0.50113 0.33181 0.84975 0.0
O459 O 0.47284 0.35056 0.84716 0.0
C460 C 0.4858 0.29628 0.82279 0.0
O461 O 0.46967 0.29663 0.83783 0.0
O462 O 0.52904 0.35127 0.84853 0.0
C463 C 0.46027 0.35599 0.86342 0.0
O464 O 0.46553 0.34916 0.8835 0.0
C465 C 0.5104 0.31933 0.89609 0.0
O466 O 0.51822 0.33967 0.89793 0.0
O467 O 0.5017 0.31045 0.82407 0.0
C468 C 0.69767 0.48778 0.09778 0.0
O469 O 0.67551 0.48909 0.09625 0.0
O470 O 0.665 0.47486 0.14642 0.0
Zn471 Zn 0.68816 0.49935 0.14311 0.0
O472 O 0.70849 0.50122 0.17019 0.0
C473 C 0.65524 0.53226 0.15247 0.0
O474 O 0.65148 0.51837 0.1689 0.0
O475 O 0.70713 0.49243 0.11619 0.0
C476 C 0.71201 0.48442 0.18255 0.0
O477 O 0.70172 0.46563 0.17801 0.0
C478 C 0.66884 0.45493 0.14043 0.0
O479 O 0.68891 0.44965 0.13263 0.0
O480 O 0.67112 0.52802 0.13885 0.0
C481 C 0.54237 0.65337 0.12328 0.0
O482 O 0.54607 0.66831 0.10779 0.0
O483 O 0.50221 0.68712 0.0957 0.0
Zn484 Zn 0.49795 0.67444 0.12645 0.0
O485 O 0.46891 0.65717 0.12831 0.0
C486 C 0.48089 0.70944 0.15532 0.0
O487 O 0.46144 0.70475 0.14582 0.0
O488 O 0.52338 0.6531 0.13322 0.0
C489 C 0.46292 0.64938 0.14704 0.0
O490 O 0.4754 0.65362 0.16462 0.0
C491 C 0.48902 0.70117 0.08665 0.0
O492 O 0.471 0.70798 0.09746 0.0
O493 O 0.49854 0.69883 0.14949 0.0
C494 C 0.27066 0.5032 0.10549 0.0
O495 O 0.2594 0.49344 0.12158 0.0
O496 O 0.3323 0.52641 0.13787 0.0
Zn497 Zn 0.30846 0.50256 0.13673 0.0
O498 O 0.28703 0.50631 0.16251 0.0
C499 C 0.33713 0.46849 0.15325 0.0
O500 O 0.33914 0.48313 0.16933 0.0
O501 O 0.29155 0.50749 0.10817 0.0
C502 C 0.27738 0.49014 0.17223 0.0
O503 O 0.28165 0.46976 0.16562 0.0
C504 C 0.33786 0.53708 0.15526 0.0
O505 O 0.3279 0.53245 0.17422 0.0
O506 O 0.32398 0.47276 0.13708 0.0
C507 C 0.44893 0.34464 0.13837 0.0
O508 O 0.44512 0.32627 0.12719 0.0
O509 O 0.49439 0.31136 0.11337 0.0
Zn510 Zn 0.49624 0.32935 0.14154 0.0
O511 O 0.52342 0.34928 0.14132 0.0
C512 C 0.48596 0.29088 0.1669 0.0
O513 O 0.47224 0.28774 0.14999 0.0
O514 O 0.46874 0.34873 0.14557 0.0
C515 C 0.54354 0.34246 0.13827 0.0
O516 O 0.54717 0.32122 0.13469 0.0
C517 C 0.48745 0.31852 0.09471 0.0
O518 O 0.48162 0.3395 0.09271 0.0
O519 O 0.49833 0.30815 0.16726 0.0
C520 C 0.90809 0.72333 0.50305 0.0
O521 O 0.89122 0.73258 0.49224 0.0
O522 O 0.87852 0.66191 0.52863 0.0
Zn523 Zn 0.87881 0.68428 0.50374 0.0
O524 O 0.85122 0.70394 0.5065 0.0
C525 C 0.86069 0.65718 0.46956 0.0
O526 O 0.84304 0.65888 0.48273 0.0
O527 O 0.90684 0.70288 0.50821 0.0
C528 C 0.8414 0.71295 0.49 0.0
O529 O 0.8493 0.7095 0.46989 0.0
C530 C 0.86057 0.65569 0.53847 0.0
O531 O 0.84098 0.66399 0.5323 0.0
O532 O 0.87881 0.66739 0.47471 0.0
C533 C 0.92629 0.29157 0.50712 0.0
O534 O 0.9118 0.28538 0.52247 0.0
O535 O 0.8906 0.34701 0.47203 0.0
Zn536 Zn 0.89233 0.32521 0.49751 0.0
O537 O 0.86604 0.30372 0.49512 0.0
C538 C 0.87321 0.3522 0.53216 0.0
O539 O 0.85482 0.34972 0.52013 0.0
O540 O 0.92168 0.30829 0.49502 0.0
C541 C 0.85613 0.29477 0.5116 0.0
O542 O 0.86314 0.2993 0.53182 0.0
C543 C 0.87167 0.35243 0.46352 0.0
O544 O 0.85303 0.3434 0.47128 0.0
O545 O 0.89138 0.34266 0.52606 0.0
C546 C 0.68289 0.89663 0.49077 0.0
O547 O 0.66075 0.89515 0.48914 0.0
O548 O 0.65558 0.84696 0.47709 0.0
Zn549 Zn 0.67847 0.85045 0.50167 0.0
O550 O 0.70171 0.82611 0.49935 0.0
C551 C 0.6504 0.83359 0.53657 0.0
O552 O 0.64876 0.8168 0.52271 0.0
O553 O 0.69413 0.87966 0.49683 0.0
C554 C 0.71281 0.81882 0.51591 0.0
O555 O 0.70879 0.82704 0.53574 0.0
C556 C 0.65137 0.82865 0.46738 0.0
O557 O 0.66195 0.81054 0.47377 0.0
O558 O 0.66266 0.85012 0.5313 0.0
C559 C 0.08328 0.69299 0.49106 0.0
O560 O 0.08014 0.67223 0.48503 0.0
O561 O 0.12716 0.65718 0.47504 0.0
Zn562 Zn 0.12781 0.67674 0.5022 0.0
O563 O 0.15675 0.69427 0.50108 0.0
C564 C 0.11618 0.63917 0.52897 0.0
O565 O 0.10654 0.63316 0.51024 0.0
O566 O 0.10198 0.69846 0.49998 0.0
C567 C 0.16467 0.70531 0.51731 0.0
O568 O 0.154 0.70496 0.53646 0.0
C569 C 0.14478 0.64672 0.46897 0.0
O570 O 0.16341 0.64866 0.48076 0.0
O571 O 0.1262 0.65785 0.52995 0.0
C572 C 0.3083 0.11616 0.47412 0.0
O573 O 0.32909 0.11813 0.46662 0.0
O574 O 0.33922 0.16593 0.46979 0.0
Zn575 Zn 0.3168 0.15959 0.49414 0.0
O576 O 0.29319 0.18366 0.49654 0.0
C577 C 0.34978 0.14151 0.52293 0.0
O578 O 0.35245 0.1289 0.50533 0.0
O579 O 0.30016 0.13128 0.48654 0.0
C580 C 0.29504 0.20316 0.48864 0.0
O581 O 0.31399 0.20907 0.47887 0.0
C582 C 0.33402 0.16662 0.4493 0.0
O583 O 0.31269 0.1645 0.44341 0.0
O584 O 0.33447 0.15635 0.52269 0.0
C585 C 0.08255 0.27957 0.48449 0.0
O586 O 0.09908 0.27172 0.47218 0.0
O587 O 0.114 0.33567 0.51956 0.0
Zn588 Zn 0.11305 0.31701 0.49165 0.0
O589 O 0.14058 0.29704 0.4904 0.0
C590 C 0.12038 0.35657 0.46639 0.0
O591 O 0.1291 0.36307 0.4854 0.0
O592 O 0.08473 0.29856 0.49346 0.0
C593 C 0.15993 0.3045 0.48491 0.0
O594 O 0.16198 0.32555 0.47952 0.0
C595 C 0.12762 0.33243 0.53561 0.0
O596 O 0.14224 0.31602 0.5345 0.0
O597 O 0.11219 0.33709 0.46485 0.0
C598 C 0.72774 0.12073 0.50277 0.0
O599 O 0.73884 0.13408 0.48939 0.0
O600 O 0.66928 0.15986 0.52599 0.0
Zn601 Zn 0.69337 0.15561 0.50275 0.0
O602 O 0.71663 0.18005 0.50547 0.0
C603 C 0.66377 0.17033 0.46865 0.0
O604 O 0.6603 0.18583 0.48364 0.0
O605 O 0.70818 0.12631 0.50956 0.0
C606 C 0.72719 0.18816 0.48896 0.0
O607 O 0.72253 0.18091 0.46888 0.0
C608 C 0.67434 0.15959 0.54652 0.0
O609 O 0.69566 0.15742 0.55238 0.0
O610 O 0.67824 0.15521 0.47268 0.0
C611 C 0.28568 0.88159 0.50105 0.0
O612 O 0.27459 0.86711 0.48886 0.0
O613 O 0.34728 0.84606 0.52161 0.0
Zn614 Zn 0.32175 0.84872 0.49982 0.0
O615 O 0.29987 0.82341 0.50431 0.0
C616 C 0.34871 0.83265 0.46467 0.0
O617 O 0.35174 0.81692 0.47952 0.0
O618 O 0.306 0.87747 0.50664 0.0
C619 C 0.29045 0.81325 0.48827 0.0
O620 O 0.29533 0.81905 0.46778 0.0
C621 C 0.34377 0.84505 0.54241 0.0
O622 O 0.32285 0.84497 0.54983 0.0
O623 O 0.33541 0.84863 0.46921 0.0
H624 H 0.05109 0.48159 0.30029 0.0
H625 H 0.01734 0.41926 0.18869 0.0
H626 H 0.07955 0.49701 0.23605 0.0
H627 H 0.9868 0.40536 0.25235 0.0
H628 H 0.03558 0.45191 0.20469 0.0
H629 H 0.02287 0.45813 0.28215 0.0
C630 C 0.05119 0.48035 0.28233 0.0
C631 C 0.06799 0.49098 0.2697 0.0
C632 C 0.02465 0.44192 0.21511 0.0
C633 C 0.03585 0.46392 0.24884 0.0
C634 C 0.01421 0.42324 0.20598 0.0
C635 C 0.00079 0.40934 0.21929 0.0
C636 C 0.02186 0.44665 0.2378 0.0
C637 C 0.99717 0.41547 0.24151 0.0
C638 C 0.03507 0.46691 0.27198 0.0
C639 C 0.06712 0.48892 0.24649 0.0
N640 N 0.00792 0.43349 0.25016 0.0
N641 N 0.05155 0.47536 0.23684 0.0
H642 H 0.59347 0.0092 0.23931 0.0
H643 H 0.50409 0.10246 0.27241 0.0
H644 H 0.54985 0.04251 0.19231 0.0
H645 H 0.54624 0.06831 0.32006 0.0
H646 H 0.51655 0.07658 0.24376 0.0
H647 H 0.5724 0.02638 0.26969 0.0
C648 C 0.57926 0.01987 0.23536 0.0
C649 C 0.57367 0.02471 0.21319 0.0
C650 C 0.5229 0.07454 0.26053 0.0
C651 C 0.54958 0.04458 0.24796 0.0
C652 C 0.51579 0.08934 0.27692 0.0
C653 C 0.5244 0.08776 0.29861 0.0
C654 C 0.53894 0.05813 0.26575 0.0
C655 C 0.53929 0.07025 0.30353 0.0
C656 C 0.56724 0.0297 0.25275 0.0
C657 C 0.55495 0.0385 0.20912 0.0
N658 N 0.54635 0.05631 0.28713 0.0
N659 N 0.54378 0.04817 0.22633 0.0
H660 H 0.00334 0.60631 0.22805 0.0
H661 H 0.91541 0.51125 0.25865 0.0
H662 H 0.96726 0.56791 0.17888 0.0
H663 H 0.95616 0.54599 0.30706 0.0
H664 H 0.93783 0.52807 0.229 0.0
H665 H 0.99003 0.58093 0.25678 0.0
C666 C 0.99282 0.59236 0.22325 0.0
C667 C 0.98614 0.58941 0.20106 0.0
C668 C 0.94208 0.53178 0.24611 0.0
C669 C 0.97059 0.56036 0.23398 0.0
C670 C 0.92928 0.52217 0.26307 0.0
C671 C 0.93366 0.52751 0.28539 0.0
C672 C 0.95927 0.54699 0.25148 0.0
C673 C 0.95199 0.54158 0.2901 0.0
C674 C 0.98523 0.57784 0.23968 0.0
C675 C 0.9727 0.5709 0.19579 0.0
N676 N 0.9639 0.55108 0.27329 0.0
N677 N 0.96508 0.55726 0.21219 0.0
H678 H 0.48202 0.91408 0.30822 0.0
H679 H 0.45557 0.97488 0.1942 0.0
H680 H 0.51428 0.89721 0.24611 0.0
H681 H 0.42641 0.99411 0.2571 0.0
H682 H 0.48208 0.95077 0.21386 0.0
H683 H 0.46637 0.94735 0.29093 0.0
C684 C 0.48605 0.91751 0.291 0.0
C685 C 0.49917 0.90263 0.27848 0.0
C686 C 0.47013 0.96053 0.2234 0.0
C687 C 0.48112 0.94066 0.2585 0.0
C688 C 0.45498 0.97434 0.21218 0.0
C689 C 0.43842 0.98619 0.224 0.0
C690 C 0.46857 0.95839 0.24659 0.0
C691 C 0.43868 0.98505 0.24728 0.0
C692 C 0.47712 0.93655 0.28114 0.0
C693 C 0.50405 0.90809 0.25633 0.0
N694 N 0.45324 0.97107 0.25779 0.0
N695 N 0.49474 0.92649 0.24695 0.0
H696 H 0.07043 0.47535 0.75448 0.0
H697 H 0.9702 0.56459 0.75803 0.0
H698 H 0.04457 0.50874 0.69627 0.0
H699 H 0.01713 0.55282 0.8117 0.0
H700 H 0.98825 0.53441 0.7369 0.0
H701 H 0.04128 0.49371 0.77685 0.0
C702 C 0.05839 0.48621 0.74632 0.0
C703 C 0.06031 0.491 0.72358 0.0
C704 C 0.99422 0.53819 0.7535 0.0
C705 C 0.02697 0.51188 0.74903 0.0
C706 C 0.9839 0.55528 0.76557 0.0
C707 C 0.99248 0.56135 0.78645 0.0
C708 C 0.01284 0.5269 0.76266 0.0
C709 C 0.01027 0.54884 0.79549 0.0
C710 C 0.04182 0.4967 0.75911 0.0
C711 C 0.04403 0.50498 0.71385 0.0
N712 N 0.01997 0.53229 0.78349 0.0
N713 N 0.02819 0.51515 0.72668 0.0
H714 H 0.42595 0.0005 0.74129 0.0
H715 H 0.51279 0.10178 0.75048 0.0
H716 H 0.45103 0.02671 0.8034 0.0
H717 H 0.48295 0.07918 0.68898 0.0
H718 H 0.49607 0.06983 0.76947 0.0
H719 H 0.45255 0.02439 0.72142 0.0
C720 C 0.43728 0.01101 0.75078 0.0
C721 C 0.43595 0.01188 0.77405 0.0
C722 C 0.49342 0.07172 0.75177 0.0
C723 C 0.46632 0.03943 0.75137 0.0
C724 C 0.503 0.08995 0.7409 0.0
C725 C 0.49897 0.09337 0.71817 0.0
C726 C 0.47969 0.05683 0.73983 0.0
C727 C 0.48626 0.07739 0.70659 0.0
C728 C 0.45244 0.02471 0.73941 0.0
C729 C 0.45122 0.0257 0.78544 0.0
N730 N 0.47687 0.05997 0.71759 0.0
N731 N 0.46555 0.03914 0.77399 0.0
H732 H 0.93553 0.51009 0.75888 0.0
H733 H 0.0303 0.41594 0.75294 0.0
H734 H 0.96436 0.48517 0.69786 0.0
H735 H 0.98764 0.42862 0.80978 0.0
H736 H 0.01521 0.44949 0.7352 0.0
H737 H 0.96378 0.48899 0.7798 0.0
C738 C 0.94807 0.50056 0.74985 0.0
C739 C 0.94717 0.49885 0.72661 0.0
C740 C 0.00944 0.44506 0.75169 0.0
C741 C 0.97939 0.47461 0.75045 0.0
C742 C 0.01805 0.42595 0.76184 0.0
C743 C 0.00978 0.41918 0.78263 0.0
C744 C 0.99254 0.45746 0.76247 0.0
C745 C 0.99412 0.43294 0.79352 0.0
C746 C 0.96414 0.48845 0.76182 0.0
C747 C 0.9641 0.48652 0.7158 0.0
N748 N 0.9858 0.45126 0.7832 0.0
N749 N 0.9793 0.47457 0.72782 0.0
H750 H 0.57744 0.99652 0.76072 0.0
H751 H 0.50157 0.88926 0.74274 0.0
H752 H 0.54564 0.96039 0.81424 0.0
H753 H 0.52573 0.93003 0.68873 0.0
H754 H 0.5139 0.91763 0.76901 0.0
H755 H 0.55492 0.97534 0.73407 0.0
C756 C 0.56546 0.98437 0.7669 0.0
C757 C 0.56371 0.97996 0.78975 0.0
C758 C 0.51628 0.92054 0.75141 0.0
C759 C 0.53806 0.95546 0.75929 0.0
C760 C 0.50929 0.9043 0.73639 0.0
C761 C 0.51292 0.90715 0.71352 0.0
C762 C 0.52727 0.93968 0.74358 0.0
C763 C 0.52275 0.92708 0.70623 0.0
C764 C 0.5526 0.97227 0.75165 0.0
C765 C 0.54774 0.9642 0.79679 0.0
N766 N 0.52989 0.94246 0.72124 0.0
N767 N 0.5358 0.95228 0.7816 0.0
H768 H 0.19057 0.05217 0.42213 0.0
H769 H 0.31953 0.08213 0.44599 0.0
H770 H 0.2467 0.02226 0.38723 0.0
H771 H 0.26325 0.10957 0.48265 0.0
H772 H 0.29361 0.05619 0.42791 0.0
H773 H 0.21721 0.06931 0.44792 0.0
C774 C 0.2085 0.04901 0.42003 0.0
C775 C 0.21644 0.03605 0.40229 0.0
C776 C 0.28697 0.0677 0.44012 0.0
C777 C 0.24709 0.05579 0.43168 0.0
C778 C 0.30177 0.08252 0.45046 0.0
C779 C 0.29349 0.09829 0.4656 0.0
C780 C 0.26371 0.06875 0.44484 0.0
C781 C 0.27035 0.09787 0.4709 0.0
C782 C 0.22372 0.05879 0.43479 0.0
C783 C 0.23984 0.0323 0.40055 0.0
N784 N 0.25623 0.08354 0.46032 0.0
N785 N 0.25437 0.04239 0.41488 0.0
H786 H 0.93327 0.24812 0.51871 0.0
H787 H 0.03097 0.23226 0.42861 0.0
H788 H 0.96343 0.30217 0.48205 0.0
H789 H 0.97759 0.18506 0.44141 0.0
H790 H 0.01714 0.25502 0.45975 0.0
H791 H 0.9608 0.22265 0.50208 0.0
C792 C 0.94601 0.25474 0.5076 0.0
C793 C 0.94568 0.27718 0.50125 0.0
C794 C 0.00888 0.23939 0.45601 0.0
C795 C 0.97721 0.24821 0.48241 0.0
C796 C 0.01677 0.22639 0.43836 0.0
C797 C 0.00506 0.20705 0.43224 0.0
C798 C 0.98945 0.23269 0.46769 0.0
C799 C 0.98679 0.20012 0.44538 0.0
C800 C 0.96167 0.24019 0.49811 0.0
C801 C 0.96276 0.28488 0.48697 0.0
N802 N 0.97939 0.21305 0.46236 0.0
N803 N 0.97767 0.27034 0.47775 0.0
H804 H 0.6649 0.93263 0.46914 0.0
H805 H 0.78669 0.97653 0.43248 0.0
H806 H 0.72822 0.90582 0.49302 0.0
H807 H 0.7242 0.99687 0.40122 0.0
H808 H 0.76492 0.95689 0.46074 0.0
H809 H 0.6858 0.96217 0.45025 0.0
C810 C 0.68316 0.93314 0.47072 0.0
C811 C 0.69487 0.9165 0.48236 0.0
C812 C 0.75595 0.96589 0.44787 0.0
C813 C 0.71885 0.9502 0.46073 0.0
C814 C 0.76837 0.97715 0.43173 0.0
C815 C 0.75726 0.98801 0.41419 0.0
C816 C 0.73222 0.96537 0.44644 0.0
C817 C 0.73349 0.98849 0.41427 0.0
C818 C 0.69508 0.94999 0.45988 0.0
C819 C 0.71852 0.91811 0.48396 0.0
N820 N 0.72175 0.97703 0.42996 0.0
N821 N 0.72974 0.9345 0.47305 0.0
H822 H 0.03373 0.81884 0.44526 0.0
H823 H 0.04509 0.68819 0.46563 0.0
H824 H 0.00301 0.76885 0.40353 0.0
H825 H 0.08492 0.73766 0.4999 0.0
H826 H 0.02282 0.71788 0.44861 0.0
H827 H 0.04575 0.78967 0.47094 0.0
C828 C 0.0292 0.80178 0.44165 0.0
C829 C 0.01769 0.79625 0.422 0.0
C830 C 0.03624 0.72222 0.46009 0.0
C831 C 0.03148 0.76278 0.4513 0.0
C832 C 0.04893 0.70527 0.46988 0.0
C833 C 0.06718 0.71044 0.48391 0.0
C834 C 0.04182 0.7445 0.46435 0.0
C835 C 0.07122 0.73289 0.48893 0.0
C836 C 0.03613 0.78512 0.45631 0.0
C837 C 0.01214 0.77386 0.41831 0.0
N838 N 0.05883 0.7491 0.47895 0.0
N839 N 0.01931 0.75793 0.43268 0.0
H840 H 0.247 0.977 0.599 0.0
H841 H 0.24098 0.89333 0.49667 0.0
H842 H 0.1849 0.96006 0.5651 0.0
H843 H 0.30318 0.91337 0.52867 0.0
H844 H 0.22068 0.92154 0.51806 0.0
H845 H 0.26833 0.95781 0.57008 0.0
C846 C 0.23785 0.96948 0.58533 0.0
C847 C 0.2141 0.96986 0.58465 0.0
C848 C 0.23882 0.91996 0.52018 0.0
C849 C 0.23842 0.94764 0.55155 0.0
C850 C 0.25043 0.90386 0.50795 0.0
C851 C 0.27376 0.90073 0.51113 0.0
C852 C 0.25062 0.93293 0.53579 0.0
C853 C 0.28515 0.91498 0.52586 0.0
C854 C 0.25005 0.9585 0.56879 0.0
C855 C 0.20318 0.96001 0.56641 0.0
N856 N 0.27342 0.93025 0.53783 0.0
N857 N 0.21541 0.94903 0.55074 0.0
H858 H 0.98151 0.22694 0.57195 0.0
H859 H 0.08037 0.2342 0.48188 0.0
H860 H 0.04037 0.18453 0.57002 0.0
H861 H 0.04276 0.29133 0.50466 0.0
H862 H 0.05515 0.21023 0.50344 0.0
H863 H 0.99443 0.24493 0.53747 0.0
C864 C 0.99687 0.22113 0.56401 0.0
C865 C 0.01018 0.20458 0.57396 0.0
C866 C 0.05214 0.22798 0.50325 0.0
C867 C 0.02458 0.22451 0.53457 0.0
C868 C 0.06645 0.24168 0.4909 0.0
C869 C 0.06408 0.26484 0.49209 0.0
C870 C 0.03531 0.23755 0.51667 0.0
C871 C 0.04554 0.27357 0.50381 0.0
C872 C 0.00417 0.23134 0.5444 0.0
C873 C 0.02988 0.19755 0.56306 0.0
N874 N 0.03206 0.25993 0.516 0.0
N875 N 0.03656 0.20764 0.544 0.0
H876 H 0.76529 0.02113 0.5974 0.0
H877 H 0.77112 0.1059 0.49576 0.0
H878 H 0.82654 0.03527 0.56091 0.0
H879 H 0.70995 0.0905 0.53189 0.0
H880 H 0.79064 0.07621 0.51583 0.0
H881 H 0.74376 0.04233 0.57004 0.0
C882 C 0.77419 0.02846 0.58348 0.0
C883 C 0.79781 0.02669 0.58164 0.0
C884 C 0.77287 0.07915 0.51917 0.0
C885 C 0.77327 0.05122 0.55032 0.0
C886 C 0.7617 0.0961 0.50769 0.0
C887 C 0.73895 0.10093 0.51237 0.0
C888 C 0.76122 0.06701 0.53551 0.0
C889 C 0.72758 0.08757 0.52791 0.0
C890 C 0.76188 0.04059 0.56785 0.0
C891 C 0.80839 0.03636 0.56312 0.0
N892 N 0.7389 0.07141 0.53908 0.0
N893 N 0.79608 0.04846 0.54834 0.0
H894 H 0.9448 0.70982 0.52739 0.0
H895 H 0.96971 0.83226 0.57202 0.0
H896 H 0.9123 0.76872 0.50165 0.0
H897 H 0.99537 0.77227 0.60226 0.0
H898 H 0.95502 0.81009 0.54112 0.0
H899 H 0.96992 0.73329 0.54943 0.0
C900 C 0.94316 0.7277 0.52609 0.0
C901 C 0.9261 0.7373 0.51297 0.0
C902 C 0.96414 0.80183 0.55437 0.0
C903 C 0.9547 0.76428 0.53838 0.0
C904 C 0.97259 0.81449 0.572 0.0
C905 C 0.98348 0.80407 0.58993 0.0
C906 C 0.96664 0.77861 0.55469 0.0
C907 C 0.98681 0.78099 0.58895 0.0
C908 C 0.95749 0.7411 0.53874 0.0
C909 C 0.925 0.76058 0.51175 0.0
N910 N 0.97821 0.76903 0.57177 0.0
N911 N 0.93887 0.77328 0.52457 0.0
H912 H 0.50262 0.27579 0.09113 0.0
H913 H 0.41203 0.24484 0.99891 0.0
H914 H 0.46169 0.32463 0.05725 0.0
H915 H 0.45894 0.19766 0.02727 0.0
H916 H 0.43341 0.27501 0.01615 0.0
H917 H 0.49039 0.24787 0.06432 0.0
C918 C 0.49127 0.28071 0.07786 0.0
C919 C 0.4829 0.30251 0.07662 0.0
C920 C 0.43924 0.25809 0.01832 0.0
C921 C 0.46859 0.2705 0.04596 0.0
C922 C 0.42704 0.24083 0.00847 0.0
C923 C 0.43346 0.21863 0.01198 0.0
C924 C 0.45787 0.25311 0.03197 0.0
C925 C 0.45319 0.21448 0.02432 0.0
C926 C 0.4843 0.26475 0.06252 0.0
C927 C 0.46843 0.30798 0.05893 0.0
N928 N 0.46447 0.23153 0.03416 0.0
N929 N 0.46144 0.29199 0.0445 0.0
H930 H 0.472 0.80168 0.98175 0.0
H931 H 0.47478 0.67124 0.9598 0.0
H932 H 0.42398 0.75488 0.00882 0.0
H933 H 0.50899 0.72023 0.91963 0.0
H934 H 0.46578 0.70028 0.98694 0.0
H935 H 0.49518 0.77053 0.96882 0.0
C936 C 0.46654 0.78489 0.98539 0.0
C937 C 0.44564 0.78086 0.99573 0.0
C938 C 0.47563 0.70455 0.97237 0.0
C939 C 0.47197 0.74526 0.98087 0.0
C940 C 0.48079 0.68799 0.95689 0.0
C941 C 0.49213 0.69345 0.93715 0.0
C942 C 0.48192 0.72665 0.96806 0.0
C943 C 0.49973 0.71539 0.93437 0.0
C944 C 0.47975 0.76713 0.97794 0.0
C945 C 0.43966 0.75875 0.00035 0.0
N946 N 0.49421 0.73124 0.94949 0.0
N947 N 0.45254 0.74177 0.99253 0.0
H948 H 0.30626 0.46846 0.93783 0.0
H949 H 0.18049 0.43672 0.97514 0.0
H950 H 0.24592 0.49106 0.90414 0.0
H951 H 0.24049 0.40293 0.9984 0.0
H952 H 0.20449 0.4631 0.95521 0.0
H953 H 0.28252 0.45089 0.96606 0.0
C954 C 0.28803 0.47003 0.93653 0.0
C955 C 0.27805 0.48096 0.91839 0.0
C956 C 0.21239 0.45007 0.9649 0.0
C957 C 0.25082 0.46084 0.95062 0.0
C958 C 0.19871 0.43504 0.97636 0.0
C959 C 0.20849 0.41737 0.98818 0.0
C960 C 0.23602 0.44747 0.96533 0.0
C961 C 0.23221 0.41612 0.98926 0.0
C962 C 0.2745 0.45993 0.95263 0.0
C963 C 0.25434 0.48256 0.91767 0.0
N964 N 0.24516 0.43083 0.97778 0.0
N965 N 0.24153 0.47241 0.93344 0.0
H966 H 0.58279 0.2471 0.99529 0.0
H967 H 0.49664 0.27585 0.89798 0.0
H968 H 0.5418 0.19806 0.96175 0.0
H969 H 0.53392 0.32533 0.93488 0.0
H970 H 0.50866 0.24777 0.9248 0.0
H971 H 0.56081 0.27642 0.97737 0.0
C972 C 0.56893 0.24248 0.98444 0.0
C973 C 0.56441 0.22007 0.97971 0.0
C974 C 0.51397 0.26482 0.92722 0.0
C975 C 0.53933 0.25359 0.95889 0.0
C976 C 0.50711 0.28088 0.91188 0.0
C977 C 0.51459 0.30293 0.91396 0.0
C978 C 0.52859 0.27079 0.94466 0.0
C979 C 0.52795 0.3085 0.93245 0.0
C980 C 0.55639 0.25925 0.97417 0.0
C981 C 0.54608 0.2151 0.96569 0.0
N982 N 0.53479 0.29248 0.94689 0.0
N983 N 0.53446 0.23173 0.9555 0.0
H984 H 0.67714 0.5409 0.9263 0.0
H985 H 0.79525 0.58626 0.97142 0.0
H986 H 0.74213 0.51942 0.90143 0.0
H987 H 0.73023 0.60957 0.99451 0.0
H988 H 0.7762 0.55706 0.95042 0.0
H989 H 0.69633 0.56131 0.95583 0.0
C990 C 0.69545 0.54024 0.9272 0.0
C991 C 0.70806 0.52872 0.91114 0.0
C992 C 0.7661 0.56838 0.96029 0.0
C993 C 0.73016 0.55221 0.94487 0.0
C994 C 0.77697 0.58507 0.97233 0.0
C995 C 0.76429 0.60063 0.98447 0.0
C996 C 0.74235 0.5673 0.96028 0.0
C997 C 0.74067 0.5981 0.98519 0.0
C998 C 0.7064 0.55192 0.94409 0.0
C999 C 0.73172 0.52826 0.91331 0.0
N1000 N 0.73045 0.58194 0.97301 0.0
N1001 N 0.74202 0.5401 0.92969 0.0
H1002 H 0.47273 0.73978 0.06832 0.0
H1003 H 0.574 0.74491 0.9809 0.0
H1004 H 0.52063 0.68683 0.05677 0.0
H1005 H 0.54337 0.80252 0.01127 0.0
H1006 H 0.54488 0.72157 0.99801 0.0
H1007 H 0.48916 0.76027 0.03702 0.0
C1008 C 0.48639 0.73226 0.05896 0.0
C1009 C 0.49574 0.71183 0.06551 0.0
C1010 C 0.54432 0.73938 0.00054 0.0
C1011 C 0.51445 0.7351 0.0298 0.0
C1012 C 0.56088 0.75273 0.99075 0.0
C1013 C 0.56147 0.77562 0.9952 0.0
C1014 C 0.52823 0.74904 0.01475 0.0
C1015 C 0.54387 0.78487 0.00786 0.0
C1016 C 0.49576 0.74399 0.04115 0.0
C1017 C 0.51325 0.70277 0.05261 0.0
N1018 N 0.52815 0.7715 0.01749 0.0
N1019 N 0.52224 0.7146 0.03555 0.0
H1020 H 0.16881 0.57019 0.02898 0.0
H1021 H 0.28879 0.52466 0.06959 0.0
H1022 H 0.23316 0.59664 0.00758 0.0
H1023 H 0.22493 0.50343 0.09732 0.0
H1024 H 0.26834 0.54551 0.04123 0.0
H1025 H 0.18877 0.54043 0.04849 0.0
C1026 C 0.18712 0.56957 0.0281 0.0
C1027 C 0.19936 0.58614 0.01691 0.0
C1028 C 0.25878 0.53608 0.05335 0.0
C1029 C 0.22228 0.55217 0.03928 0.0
C1030 C 0.27046 0.52411 0.06955 0.0
C1031 C 0.25855 0.51259 0.08612 0.0
C1032 C 0.23501 0.53662 0.05374 0.0
C1033 C 0.23481 0.51229 0.08503 0.0
C1034 C 0.1985 0.55259 0.0393 0.0
C1035 C 0.22305 0.5844 0.01624 0.0
N1036 N 0.2238 0.5244 0.0693 0.0
N1037 N 0.23374 0.56787 0.02747 0.0
H1038 H 0.74376 0.48391 0.09477 0.0
H1039 H 0.73773 0.39695 0.99504 0.0
H1040 H 0.68205 0.46812 0.05967 0.0
H1041 H 0.79996 0.41735 0.02676 0.0
H1042 H 0.71753 0.42574 0.01577 0.0
H1043 H 0.76511 0.4626 0.06736 0.0
C1044 C 0.73472 0.47618 0.08115 0.0
C1045 C 0.71105 0.4776 0.07966 0.0
C1046 C 0.73565 0.42409 0.01799 0.0
C1047 C 0.73538 0.45294 0.0483 0.0
C1048 C 0.74721 0.40765 0.00614 0.0
C1049 C 0.77054 0.40454 0.00935 0.0
C1050 C 0.74749 0.43741 0.03326 0.0
C1051 C 0.78194 0.41899 0.02388 0.0
C1052 C 0.74692 0.46399 0.06548 0.0
C1053 C 0.70026 0.46736 0.06155 0.0
N1054 N 0.77026 0.43461 0.03546 0.0
N1055 N 0.71248 0.45523 0.04674 0.0
H1056 H 0.97793 0.21563 0.30794 0.0
H1057 H 0.03362 0.32718 0.26053 0.0
H1058 H 0.02536 0.256 0.34472 0.0
H1059 H 0.97898 0.29265 0.22764 0.0
H1060 H 0.03152 0.30055 0.29102 0.0
H1061 H 0.97873 0.24294 0.27783 0.0
C1062 C 0.98848 0.23024 0.30971 0.0
C1063 C 0.00162 0.2335 0.32889 0.0
C1064 C 0.01994 0.29881 0.27717 0.0
C1065 C 0.00267 0.26478 0.29446 0.0
C1066 C 0.02115 0.31401 0.25971 0.0
C1067 C 0.00648 0.31214 0.24146 0.0
C1068 C 0.00402 0.28149 0.27636 0.0
C1069 C 0.99062 0.29474 0.24138 0.0
C1070 C 0.98891 0.24584 0.29252 0.0
C1071 C 0.01495 0.25277 0.33026 0.0
N1072 N 0.98987 0.28004 0.25852 0.0
N1073 N 0.01519 0.26762 0.31327 0.0
H1074 H 0.75437 0.97373 0.32038 0.0
H1075 H 0.70016 0.01895 0.20712 0.0
H1076 H 0.78354 0.02734 0.28226 0.0
H1077 H 0.67233 0.965 0.24572 0.0
H1078 H 0.73183 0.02131 0.23327 0.0
H1079 H 0.72517 0.96942 0.29212 0.0
C1080 C 0.75469 0.98459 0.30602 0.0
C1081 C 0.77141 0.001 0.30376 0.0
C1082 C 0.71884 0.00889 0.23594 0.0
C1083 C 0.73785 0.99615 0.27124 0.0
C1084 C 0.70076 0.00751 0.221 0.0
C1085 C 0.68348 0.99182 0.22429 0.0
C1086 C 0.71963 0.9945 0.25431 0.0
C1087 C 0.68519 0.97742 0.24255 0.0
C1088 C 0.73797 0.9821 0.28986 0.0
C1089 C 0.77095 0.0145 0.28473 0.0
N1090 N 0.70286 0.97918 0.25689 0.0
N1091 N 0.75438 0.01184 0.26924 0.0
H1092 H 0.01925 0.71285 0.21334 0.0
H1093 H 0.9566 0.76553 0.31895 0.0
H1094 H 0.95465 0.69042 0.23835 0.0
H1095 H 0.02219 0.78735 0.29597 0.0
H1096 H 0.95514 0.7389 0.28848 0.0
H1097 H 0.02016 0.74127 0.24244 0.0
C1098 C 0.00523 0.71395 0.22488 0.0
C1099 C 0.98687 0.69919 0.22344 0.0
C1100 C 0.96985 0.74952 0.29005 0.0
C1101 C 0.98783 0.73161 0.25676 0.0
C1102 C 0.9707 0.76476 0.30746 0.0
C1103 C 0.98958 0.77866 0.31006 0.0
C1104 C 0.98802 0.74811 0.27506 0.0
C1105 C 0.00732 0.77693 0.29462 0.0
C1106 C 0.00577 0.73015 0.2415 0.0
C1107 C 0.96918 0.70138 0.23884 0.0
N1108 N 0.00612 0.76189 0.2778 0.0
N1109 N 0.97013 0.71724 0.25486 0.0
H1110 H 0.22067 0.01554 0.27608 0.0
H1111 H 0.34537 0.98266 0.23563 0.0
H1112 H 0.26704 0.97557 0.31458 0.0
H1113 H 0.29869 0.02107 0.19591 0.0
H1114 H 0.31642 0.97916 0.26429 0.0
H1115 H 0.24846 0.01683 0.24602 0.0
C1116 C 0.23664 0.00693 0.27818 0.0
C1117 C 0.24157 0.99549 0.29793 0.0
C1118 C 0.31246 0.98831 0.24929 0.0
C1119 C 0.27349 0.997 0.26362 0.0
C1120 C 0.32901 0.99035 0.2329 0.0
C1121 C 0.32448 0.00224 0.21334 0.0
C1122 C 0.29119 0.99828 0.24617 0.0
C1123 C 0.30295 0.01179 0.21074 0.0
C1124 C 0.25251 0.0077 0.26101 0.0
C1125 C 0.26252 0.98463 0.29969 0.0
N1126 N 0.28712 0.00965 0.227 0.0
N1127 N 0.27773 0.98573 0.2828 0.0
H1128 H 0.00488 0.68909 0.78878 0.0
H1129 H 0.96112 0.73852 0.67294 0.0
H1130 H 0.9703 0.65019 0.73892 0.0
H1131 H 0.00451 0.77481 0.71788 0.0
H1132 H 0.96226 0.70678 0.69814 0.0
H1133 H 0.00303 0.72138 0.76417 0.0
C1134 C 0.9969 0.68732 0.77266 0.0
C1135 C 0.98776 0.66687 0.76589 0.0
C1136 C 0.97153 0.72168 0.70251 0.0
C1137 C 0.98552 0.70381 0.73769 0.0
C1138 C 0.97084 0.73986 0.68815 0.0
C1139 C 0.98278 0.75937 0.69327 0.0
C1140 C 0.98417 0.723 0.72225 0.0
C1141 C 0.99509 0.76009 0.71323 0.0
C1142 C 0.99587 0.70577 0.75862 0.0
C1143 C 0.97762 0.66559 0.74483 0.0
N1144 N 0.99547 0.74217 0.72699 0.0
N1145 N 0.97675 0.6838 0.73151 0.0
H1146 H 0.25272 0.03554 0.69907 0.0
H1147 H 0.32483 0.94979 0.77183 0.0
H1148 H 0.23685 0.96567 0.70381 0.0
H1149 H 0.33175 0.02101 0.77718 0.0
H1150 H 0.29332 0.95513 0.74599 0.0
H1151 H 0.28238 0.03049 0.72697 0.0
C1152 C 0.25539 0.01916 0.70605 0.0
C1153 C 0.24231 0.001 0.69902 0.0
C1154 C 0.30168 0.96959 0.75288 0.0
C1155 C 0.27638 0.99506 0.73086 0.0
C1156 C 0.31973 0.96655 0.76759 0.0
C1157 C 0.331 0.98497 0.77665 0.0
C1158 C 0.29497 0.99121 0.74703 0.0
C1159 C 0.32357 0.00631 0.77061 0.0
C1160 C 0.27232 0.01629 0.722 0.0
C1161 C 0.24651 0.98016 0.70871 0.0
N1162 N 0.30611 0.00884 0.7561 0.0
N1163 N 0.26327 0.97774 0.72401 0.0
H1164 H 0.97516 0.25618 0.66064 0.0
H1165 H 0.0233 0.29944 0.7774 0.0
H1166 H 0.02383 0.21992 0.70006 0.0
H1167 H 0.9704 0.33278 0.74075 0.0
H1168 H 0.02456 0.27075 0.7487 0.0
H1169 H 0.9739 0.28488 0.68932 0.0
C1170 C 0.98557 0.25422 0.67533 0.0
C1171 C -0.00037 0.23558 0.67792 0.0
C1172 C 0.01267 0.28433 0.74693 0.0
C1173 C 0.99831 0.26848 0.71085 0.0
C1174 C 0.01196 0.30077 0.7633 0.0
C1175 C 0.9967 0.31857 0.76151 0.0
C1176 C 0.99806 0.28571 0.72855 0.0
C1177 C 0.98242 0.31937 0.74286 0.0
C1178 C 0.98483 0.27064 0.69172 0.0
C1179 C 0.01273 0.23398 0.69734 0.0
N1180 N 0.98346 0.30319 0.72711 0.0
N1181 N 0.01178 0.25022 0.71302 0.0
H1182 H 0.78474 0.02528 0.70783 0.0
H1183 H 0.67211 0.97999 0.76607 0.0
H1184 H 0.74907 0.9663 0.6867 0.0
H1185 H 0.70812 0.03836 0.78831 0.0
H1186 H 0.70099 0.97404 0.73779 0.0
H1187 H 0.75773 0.02963 0.73823 0.0
C1188 C 0.77128 0.01319 0.70962 0.0
C1189 C 0.76911 0.99544 0.69462 0.0
C1190 C 0.70264 0.98812 0.74888 0.0
C1191 C 0.7381 0.00038 0.7294 0.0
C1192 C 0.68613 0.99155 0.76506 0.0
C1193 C 0.68763 0.00979 0.77955 0.0
C1194 C 0.72081 0.00305 0.74707 0.0
C1195 C 0.70625 0.02412 0.77747 0.0
C1196 C 0.75586 0.0157 0.727 0.0
C1197 C 0.75137 0.98027 0.69781 0.0
N1198 N 0.72207 0.0205 0.76146 0.0
N1199 N 0.73651 0.98314 0.7148 0.0
H1200 H 0.23589 0.29081 0.05009 0.0
H1201 H 0.30926 0.22938 0.95697 0.0
H1202 H 0.22614 0.30047 0.97963 0.0
H1203 H 0.31429 0.21452 0.02699 0.0
H1204 H 0.27762 0.25429 0.96487 0.0
H1205 H 0.26353 0.26169 0.04196 0.0
C1206 C 0.23946 0.28673 0.03291 0.0
C1207 C 0.2288 0.29822 0.01551 0.0
C1208 C 0.28553 0.24546 0.9785 0.0
C1209 C 0.26049 0.26496 0.0061 0.0
C1210 C 0.30362 0.23124 0.974 0.0
C1211 C 0.31456 0.21997 0.99136 0.0
C1212 C 0.27841 0.24859 0.00055 0.0
C1213 C 0.30643 0.22294 0.01309 0.0
C1214 C 0.25523 0.27008 0.02828 0.0
C1215 C 0.23402 0.29214 0.99358 0.0
N1216 N 0.28896 0.2371 0.01708 0.0
N1217 N 0.2496 0.27604 0.9895 0.0
H1218 H 0.24478 0.69282 0.97957 0.0
H1219 H 0.29935 0.79897 0.03908 0.0
H1220 H 0.20953 0.73242 0.02838 0.0
H1221 H 0.33017 0.76523 0.98345 0.0
H1222 H 0.26656 0.77439 0.0359 0.0
H1223 H 0.27646 0.71887 0.98113 0.0
C1224 C 0.24365 0.70704 0.99056 0.0
C1225 C 0.22447 0.7104 0.00391 0.0
C1226 C 0.28047 0.77241 0.02435 0.0
C1227 C 0.26078 0.74025 0.00586 0.0
C1228 C 0.29923 0.78642 0.02619 0.0
C1229 C 0.31759 0.78413 0.01156 0.0
C1230 C 0.2801 0.75589 0.00785 0.0
C1231 C 0.31643 0.7676 0.99512 0.0
C1232 C 0.26175 0.72192 0.99142 0.0
C1233 C 0.22396 0.72916 0.01779 0.0
N1234 N 0.29806 0.75407 0.99378 0.0
N1235 N 0.24189 0.7433 0.01849 0.0
H1236 H 0.79252 0.27564 0.03531 0.0
H1237 H 0.6804 0.2313 0.97524 0.0
H1238 H 0.76328 0.30731 0.97766 0.0
H1239 H 0.69903 0.21374 0.04236 0.0
H1240 H 0.71372 0.25542 0.97316 0.0
H1241 H 0.76132 0.24896 0.03533 0.0
C1242 C 0.77963 0.27691 0.02256 0.0
C1243 C 0.78046 0.29381 0.00652 0.0
C1244 C 0.71052 0.24623 0.9883 0.0
C1245 C 0.74474 0.26327 0.00645 0.0
C1246 C 0.69156 0.2324 0.98949 0.0
C1247 C 0.68686 0.22058 0.00906 0.0
C1248 C 0.725 0.24806 0.00673 0.0
C1249 C 0.70191 0.22266 0.027 0.0
C1250 C 0.76178 0.26171 0.02264 0.0
C1251 C 0.76325 0.29462 0.99041 0.0
N1252 N 0.7203 0.23613 0.0254 0.0
N1253 N 0.74609 0.27957 0.99079 0.0
H1254 H 0.75137 0.70568 0.04086 0.0
H1255 H 0.68263 0.77917 0.95253 0.0
H1256 H 0.76582 0.70614 0.97054 0.0
H1257 H 0.66698 0.77696 0.02257 0.0
H1258 H 0.71385 0.75326 0.9589 0.0
H1259 H 0.72122 0.73277 0.03462 0.0
C1260 C 0.74828 0.71153 0.02412 0.0
C1261 C 0.76114 0.70356 0.0062 0.0
C1262 C 0.7036 0.75845 0.97288 0.0
C1263 C 0.72653 0.73458 0.99891 0.0
C1264 C 0.68574 0.77325 0.96925 0.0
C1265 C 0.6721 0.78023 0.98703 0.0
C1266 C 0.7079 0.75057 0.99446 0.0
C1267 C 0.67699 0.77201 0.00834 0.0
C1268 C 0.73102 0.72699 0.02056 0.0
C1269 C 0.75633 0.71178 0.98486 0.0
N1270 N 0.69446 0.75762 0.01145 0.0
N1271 N 0.7394 0.72679 0.98181 0.0
H1272 H 0.51198 0.70498 0.80895 0.0
H1273 H 0.45218 0.81174 0.75537 0.0
H1274 H 0.45166 0.73556 0.83559 0.0
H1275 H 0.51164 0.78041 0.72776 0.0
H1276 H 0.4512 0.78339 0.78436 0.0
H1277 H 0.51173 0.73199 0.77863 0.0
C1278 C 0.49866 0.71735 0.80841 0.0
C1279 C 0.48184 0.71804 0.82487 0.0
C1280 C 0.46443 0.78266 0.77193 0.0
C1281 C 0.48146 0.74901 0.79021 0.0
C1282 C 0.46499 0.79885 0.75534 0.0
C1283 C 0.48206 0.7985 0.73914 0.0
C1284 C 0.48109 0.766 0.77236 0.0
C1285 C 0.49819 0.78136 0.73993 0.0
C1286 C 0.49852 0.73276 0.79109 0.0
C1287 C 0.46499 0.73442 0.8233 0.0
N1288 N 0.49734 0.76585 0.75631 0.0
N1289 N 0.46526 0.74927 0.80631 0.0
H1290 H 0.24205 0.4835 0.81163 0.0
H1291 H 0.20317 0.5129 0.68747 0.0
H1292 H 0.28266 0.52206 0.76613 0.0
H1293 H 0.15991 0.48084 0.73557 0.0
H1294 H 0.23327 0.51463 0.71532 0.0
H1295 H 0.21266 0.48056 0.78324 0.0
C1296 C 0.24484 0.49131 0.79565 0.0
C1297 C 0.26488 0.5031 0.79131 0.0
C1298 C 0.2172 0.50721 0.71978 0.0
C1299 C 0.23118 0.49977 0.75865 0.0
C1300 C 0.19999 0.50618 0.70386 0.0
C1301 C 0.17893 0.49674 0.70917 0.0
C1302 C 0.21339 0.49867 0.74118 0.0
C1303 C 0.17583 0.48831 0.73072 0.0
C1304 C 0.228 0.48965 0.77944 0.0
C1305 C 0.26748 0.51286 0.77026 0.0
N1306 N 0.19286 0.48947 0.74591 0.0
N1307 N 0.25083 0.51098 0.75473 0.0
H1308 H 0.51741 0.28949 0.79006 0.0
H1309 H 0.45307 0.18392 0.73906 0.0
H1310 H 0.45417 0.26391 0.81539 0.0
H1311 H 0.51761 0.20755 0.71506 0.0
H1312 H 0.45283 0.21374 0.76654 0.0
H1313 H 0.51736 0.26029 0.76179 0.0
C1314 C 0.50348 0.27778 0.78965 0.0
C1315 C 0.48578 0.27914 0.80516 0.0
C1316 C 0.46705 0.21243 0.75527 0.0
C1317 C 0.48565 0.24566 0.77285 0.0
C1318 C 0.4672 0.19538 0.73955 0.0
C1319 C 0.48539 0.19321 0.72472 0.0
C1320 C 0.48522 0.22746 0.7562 0.0
C1321 C 0.50323 0.20858 0.72616 0.0
C1322 C 0.50348 0.26109 0.77352 0.0
C1323 C 0.46819 0.2635 0.80381 0.0
N1324 N 0.50269 0.22505 0.74162 0.0
N1325 N 0.46859 0.24742 0.78797 0.0
H1326 H 0.83008 0.54599 0.73056 0.0
H1327 H 0.75987 0.45675 0.80123 0.0
H1328 H 0.84184 0.47528 0.72677 0.0
H1329 H 0.74228 0.52628 0.79713 0.0
H1330 H 0.79078 0.46322 0.77494 0.0
H1331 H 0.79875 0.53916 0.75615 0.0
C1332 C 0.82611 0.52903 0.73512 0.0
C1333 C 0.83863 0.51119 0.7265 0.0
C1334 C 0.7801 0.47704 0.77976 0.0
C1335 C 0.80275 0.50324 0.75584 0.0
C1336 C 0.76245 0.47336 0.79477 0.0
C1337 C 0.74845 0.49099 0.80143 0.0
C1338 C 0.78388 0.49854 0.77144 0.0
C1339 C 0.75261 0.51216 0.79248 0.0
C1340 C 0.80817 0.52513 0.74971 0.0
C1341 C 0.83265 0.48955 0.73299 0.0
N1342 N 0.76997 0.51535 0.77803 0.0
N1343 N 0.81518 0.48618 0.7473 0.0
H1344 H 0.47471 0.17096 0.24467 0.0
H1345 H 0.51063 0.29299 0.20552 0.0
H1346 H 0.51348 0.21582 0.28579 0.0
H1347 H 0.46437 0.25082 0.16931 0.0
H1348 H 0.51292 0.26474 0.2347 0.0
H1349 H 0.47182 0.19982 0.21643 0.0
C1350 C 0.48262 0.1869 0.24779 0.0
C1351 C 0.49438 0.19097 0.26764 0.0
C1352 C 0.50223 0.26172 0.22039 0.0
C1353 C 0.49116 0.22415 0.23526 0.0
C1354 C 0.50093 0.27782 0.20372 0.0
C1355 C 0.4873 0.27425 0.18493 0.0
C1356 C 0.48991 0.24188 0.21819 0.0
C1357 C 0.47509 0.2543 0.18349 0.0
C1358 C 0.48092 0.20341 0.23164 0.0
C1359 C 0.50424 0.21197 0.27074 0.0
N1360 N 0.47674 0.23886 0.19985 0.0
N1361 N 0.50246 0.22778 0.25468 0.0
H1362 H 0.81395 0.52511 0.27813 0.0
H1363 H 0.72661 0.45043 0.20906 0.0
H1364 H 0.81559 0.45339 0.27688 0.0
H1365 H 0.73529 0.52081 0.19801 0.0
H1366 H 0.75567 0.45191 0.23787 0.0
H1367 H 0.78167 0.52439 0.25261 0.0
C1368 C 0.80744 0.50921 0.27262 0.0
C1369 C 0.81758 0.48927 0.27954 0.0
C1370 C 0.75117 0.46704 0.22919 0.0
C1371 C 0.78064 0.48837 0.2504 0.0
C1372 C 0.73452 0.46624 0.21276 0.0
C1373 C 0.7286 0.48551 0.20097 0.0
C1374 C 0.76193 0.48728 0.23399 0.0
C1375 C 0.73941 0.50552 0.20658 0.0
C1376 C 0.78906 0.50883 0.258 0.0
C1377 C 0.80842 0.46917 0.27186 0.0
N1378 N 0.7556 0.50588 0.22266 0.0
N1379 N 0.7905 0.46924 0.25769 0.0
H1380 H 0.51761 0.72091 0.18078 0.0
H1381 H 0.45025 0.81281 0.25073 0.0
H1382 H 0.447 0.73653 0.17055 0.0
H1383 H 0.5184 0.79192 0.26621 0.0
H1384 H 0.44949 0.78636 0.22 0.0
H1385 H 0.51895 0.74828 0.21076 0.0
C1386 C 0.5024 0.73013 0.18478 0.0
C1387 C 0.48214 0.72637 0.17314 0.0
C1388 C 0.46462 0.78755 0.2301 0.0
C1389 C 0.48358 0.75775 0.20748 0.0
C1390 C 0.46508 0.80268 0.24766 0.0
C1391 C 0.48441 0.80457 0.26112 0.0
C1392 C 0.48365 0.77422 0.22586 0.0
C1393 C 0.50312 0.79099 0.25631 0.0
C1394 C 0.50317 0.74573 0.20194 0.0
C1395 C 0.46297 0.73882 0.17909 0.0
N1396 N 0.50228 0.7764 0.23907 0.0
N1397 N 0.46417 0.75394 0.19583 0.0
H1398 H 0.26347 0.53032 0.18868 0.0
H1399 H 0.17307 0.47727 0.2724 0.0
H1400 H 0.25294 0.45972 0.19617 0.0
H1401 H 0.18095 0.54788 0.26222 0.0
H1402 H 0.20348 0.47056 0.24578 0.0
H1403 H 0.2346 0.53707 0.2169 0.0
C1404 C 0.25515 0.51621 0.19631 0.0
C1405 C 0.26059 0.4944 0.18997 0.0
C1406 C 0.19858 0.48752 0.24938 0.0
C1407 C 0.22744 0.50205 0.22232 0.0
C1408 C 0.18121 0.49139 0.2646 0.0
C1409 C 0.17439 0.51319 0.26952 0.0
C1410 C 0.20928 0.50558 0.23898 0.0
C1411 C 0.1856 0.5308 0.2589 0.0
C1412 C 0.23863 0.5201 0.21242 0.0
C1413 C 0.24926 0.4768 0.20048 0.0
N1414 N 0.20247 0.5266 0.24412 0.0
N1415 N 0.23319 0.48102 0.21609 0.0
H1416 H 0.8151 0.73343 0.45857 0.0
H1417 H 0.73933 0.79874 0.54748 0.0
H1418 H 0.82265 0.72595 0.52955 0.0
H1419 H 0.72737 0.80069 0.47671 0.0
H1420 H 0.76998 0.77213 0.54131 0.0
H1421 H 0.78302 0.75828 0.46491 0.0
C1422 C 0.81 0.73698 0.47549 0.0
C1423 C 0.82163 0.72763 0.49355 0.0
C1424 C 0.76059 0.77832 0.52714 0.0
C1425 C 0.78493 0.75611 0.50094 0.0
C1426 C 0.74309 0.79353 0.53065 0.0
C1427 C 0.7308 0.80203 0.51259 0.0
C1428 C 0.76592 0.77163 0.50539 0.0
C1429 C 0.73641 0.79462 0.49115 0.0
C1430 C 0.79165 0.75115 0.4791 0.0
C1431 C 0.81421 0.73279 0.51512 0.0
N1432 N 0.75361 0.77993 0.48815 0.0
N1433 N 0.79639 0.74674 0.5182 0.0
H1434 H 0.74269 0.20502 0.52845 0.0
H1435 H 0.83792 0.28114 0.47197 0.0
H1436 H 0.75326 0.20908 0.45758 0.0
H1437 H 0.83015 0.27367 0.54291 0.0
H1438 H 0.80604 0.2559 0.46635 0.0
H1439 H 0.77362 0.23137 0.53401 0.0
C1440 C 0.75145 0.2115 0.51404 0.0
C1441 C 0.74537 0.20476 0.4925 0.0
C1442 C 0.8113 0.25978 0.48315 0.0
C1443 C 0.78091 0.23496 0.49878 0.0
C1444 C 0.82952 0.27421 0.48638 0.0
C1445 C 0.83679 0.27952 0.50796 0.0
C1446 C 0.80018 0.25059 0.50161 0.0
C1447 C 0.82519 0.27003 0.52598 0.0
C1448 C 0.76916 0.22653 0.51724 0.0
C1449 C 0.75736 0.21375 0.47448 0.0
N1450 N 0.80748 0.25604 0.5224 0.0
N1451 N 0.77457 0.22835 0.47803 0.0
H1452 H 0.26902 0.7864 0.45816 0.0
H1453 H 0.18653 0.73134 0.54805 0.0
H1454 H 0.27291 0.80041 0.52843 0.0
H1455 H 0.18865 0.7119 0.479 0.0
H1456 H 0.21843 0.75642 0.54144 0.0
H1457 H 0.23972 0.75878 0.46564 0.0
C1458 C 0.26377 0.78363 0.47517 0.0
C1459 C 0.27339 0.79581 0.49267 0.0
C1460 C 0.21198 0.74657 0.52778 0.0
C1461 C 0.23975 0.76423 0.50138 0.0
C1462 C 0.19376 0.73224 0.53154 0.0
C1463 C 0.18481 0.71957 0.51404 0.0
C1464 C 0.22124 0.74832 0.50634 0.0
C1465 C 0.19492 0.7214 0.49299 0.0
C1466 C 0.24705 0.76782 0.47945 0.0
C1467 C 0.26595 0.79143 0.51441 0.0
N1468 N 0.21248 0.73558 0.48972 0.0
N1469 N 0.24949 0.77609 0.51813 0.0
H1470 H 0.20337 0.31464 0.47259 0.0
H1471 H 0.25271 0.19508 0.50529 0.0
H1472 H 0.16249 0.26106 0.4984 0.0
H1473 H 0.29247 0.24602 0.47321 0.0
H1474 H 0.21999 0.2198 0.50462 0.0
H1475 H 0.23656 0.29042 0.47411 0.0
C1476 C 0.20135 0.29777 0.47856 0.0
C1477 C 0.18009 0.28987 0.48536 0.0
C1478 C 0.23586 0.22561 0.49775 0.0
C1479 C 0.21808 0.26207 0.48723 0.0
C1480 C 0.25461 0.21151 0.49818 0.0
C1481 C 0.2754 0.21846 0.48925 0.0
C1482 C 0.23786 0.24688 0.48837 0.0
C1483 C 0.27679 0.23994 0.48026 0.0
C1484 C 0.22033 0.28395 0.47942 0.0
C1485 C 0.17852 0.26786 0.49295 0.0
N1486 N 0.25826 0.25338 0.48003 0.0
N1487 N 0.19726 0.25476 0.4937 0.0
H1488 H 0.04668 0.31794 0.13513 0.0
H1489 H 0.15706 0.36831 0.07737 0.0
H1490 H 0.08309 0.37462 0.16083 0.0
H1491 H 0.12344 0.30855 0.05523 0.0
H1492 H 0.13175 0.36957 0.10949 0.0
H1493 H 0.0762 0.31284 0.10725 0.0
C1494 C 0.06097 0.32922 0.13503 0.0
C1495 C 0.0623 0.34686 0.15023 0.0
C1496 C 0.13004 0.35609 0.0977 0.0
C1497 C 0.09613 0.34119 0.1182 0.0
C1498 C 0.14448 0.35535 0.07934 0.0
C1499 C 0.14223 0.33841 0.06347 0.0
C1500 C 0.11315 0.33982 0.10013 0.0
C1501 C 0.1257 0.32202 0.06695 0.0
C1502 C 0.07785 0.32629 0.11909 0.0
C1503 C 0.0813 0.36086 0.14938 0.0
N1504 N 0.11169 0.32323 0.0848 0.0
N1505 N 0.09737 0.35785 0.13349 0.0
H1506 H 0.6149 0.06586 0.13736 0.0
H1507 H 0.67238 0.11934 0.02947 0.0
H1508 H 0.67754 0.04276 0.10846 0.0
H1509 H 0.6116 0.14557 0.05949 0.0
H1510 H 0.6746 0.09159 0.0588 0.0
H1511 H 0.61345 0.09551 0.10955 0.0
C1512 C 0.62838 0.06705 0.12522 0.0
C1513 C 0.64635 0.05175 0.12521 0.0
C1514 C 0.66079 0.10343 0.05907 0.0
C1515 C 0.64475 0.08561 0.09334 0.0
C1516 C 0.65949 0.11931 0.04228 0.0
C1517 C 0.64172 0.13479 0.04196 0.0
C1518 C 0.64415 0.10287 0.07571 0.0
C1519 C 0.62558 0.13395 0.05907 0.0
C1520 C 0.62754 0.08399 0.10936 0.0
C1521 C 0.66335 0.05413 0.10911 0.0
N1522 N 0.62713 0.11818 0.07522 0.0
N1523 N 0.66208 0.07067 0.09381 0.0
H1524 H 0.95454 0.67894 0.11996 0.0
H1525 H 0.83883 0.63805 0.06467 0.0
H1526 H 0.91143 0.62939 0.14997 0.0
H1527 H 0.87746 0.69428 0.04128 0.0
H1528 H 0.86463 0.63478 0.09636 0.0
H1529 H 0.92609 0.68485 0.09123 0.0
C1530 C 0.93904 0.66932 0.12056 0.0
C1531 C 0.93542 0.65355 0.13736 0.0
C1532 C 0.86734 0.64792 0.08437 0.0
C1533 C 0.9027 0.66021 0.10436 0.0
C1534 C 0.85263 0.64981 0.06627 0.0
C1535 C 0.85607 0.66639 0.05021 0.0
C1536 C 0.88571 0.66263 0.08633 0.0
C1537 C 0.87418 0.68119 0.05318 0.0
C1538 C 0.92275 0.67276 0.10415 0.0
C1539 C 0.91494 0.6417 0.13732 0.0
N1540 N 0.8884 0.67885 0.07078 0.0
N1541 N 0.8994 0.64516 0.12097 0.0
H1542 H 0.39374 0.85559 0.0622 0.0
H1543 H 0.34354 0.97355 0.0996 0.0
H1544 H 0.34433 0.89246 0.02425 0.0
H1545 H 0.3931 0.93686 0.13755 0.0
H1546 H 0.34291 0.94354 0.07225 0.0
H1547 H 0.39308 0.88476 0.09049 0.0
C1548 C 0.38272 0.86978 0.05983 0.0
C1549 C 0.36911 0.8716 0.0408 0.0
C1550 C 0.35389 0.94203 0.08659 0.0
C1551 C 0.36828 0.90506 0.07308 0.0
C1552 C 0.35425 0.95917 0.10222 0.0
C1553 C 0.36843 0.95776 0.12088 0.0
C1554 C 0.36782 0.92333 0.08962 0.0
C1555 C 0.38193 0.9387 0.12341 0.0
C1556 C 0.38235 0.88644 0.07599 0.0
C1557 C 0.35514 0.89036 0.03863 0.0
N1558 N 0.38132 0.92227 0.10794 0.0
N1559 N 0.35512 0.90636 0.05454 0.0
H1560 H 0.07658 0.58534 0.85101 0.0
H1561 H 0.13383 0.66468 0.94173 0.0
H1562 H 0.05075 0.65022 0.86826 0.0
H1563 H 0.16083 0.60066 0.92309 0.0
H1564 H 0.1044 0.66048 0.91355 0.0
H1565 H 0.10846 0.59133 0.87614 0.0
C1566 C 0.07764 0.60089 0.86001 0.0
C1567 C 0.06089 0.61727 0.85758 0.0
C1568 C 0.11683 0.6474 0.91553 0.0
C1569 C 0.09741 0.62423 0.88642 0.0
C1570 C 0.13368 0.6498 0.93161 0.0
C1571 C 0.14977 0.63293 0.93488 0.0
C1572 C 0.11597 0.62796 0.90264 0.0
C1573 C 0.14875 0.61406 0.9212 0.0
C1574 C 0.09589 0.60431 0.87436 0.0
C1575 C 0.06321 0.6371 0.86966 0.0
N1576 N 0.13205 0.61203 0.90578 0.0
N1577 N 0.08108 0.63998 0.88361 0.0
H1578 H 0.39792 0.05509 0.86703 0.0
H1579 H 0.32214 0.12444 0.95212 0.0
H1580 H 0.32544 0.04728 0.87236 0.0
H1581 H 0.39163 0.14076 0.93697 0.0
H1582 H 0.323 0.09586 0.92331 0.0
H1583 H 0.39607 0.08598 0.89325 0.0
C1584 C 0.3816 0.05986 0.87372 0.0
C1585 C 0.3618 0.04852 0.86754 0.0
C1586 C 0.33801 0.1058 0.92617 0.0
C1587 C 0.35958 0.08392 0.8976 0.0
C1588 C 0.33754 0.12213 0.94263 0.0
C1589 C 0.35688 0.13495 0.94704 0.0
C1590 C 0.35803 0.1021 0.91416 0.0
C1591 C 0.37633 0.13126 0.93415 0.0
C1592 C 0.38055 0.07757 0.88863 0.0
C1593 C 0.34113 0.05553 0.87667 0.0
N1594 N 0.37646 0.11505 0.91842 0.0
N1595 N 0.34057 0.07271 0.89133 0.0
H1596 H 0.88386 0.31153 0.94984 0.0
H1597 H 0.92433 0.38796 0.8484 0.0
H1598 H 0.85264 0.37418 0.93298 0.0
H1599 H 0.95947 0.3287 0.86958 0.0
H1600 H 0.89593 0.38153 0.8772 0.0
H1601 H 0.90966 0.31593 0.91846 0.0
C1602 C 0.88234 0.32617 0.93948 0.0
C1603 C 0.86611 0.34257 0.94415 0.0
C1604 C 0.9098 0.36988 0.87549 0.0
C1605 C 0.89568 0.34773 0.90815 0.0
C1606 C 0.92602 0.37351 0.85901 0.0
C1607 C 0.9444 0.35891 0.85662 0.0
C1608 C 0.91192 0.35147 0.88969 0.0
C1609 C 0.94566 0.34046 0.87085 0.0
C1610 C 0.89712 0.32869 0.92157 0.0
C1611 C 0.86493 0.36116 0.93008 0.0
N1612 N 0.92969 0.33732 0.88681 0.0
N1613 N 0.87957 0.36326 0.91277 0.0
H1614 H 0.60949 0.85051 0.92742 0.0
H1615 H 0.64084 0.97057 0.88027 0.0
H1616 H 0.65131 0.89759 0.96275 0.0
H1617 H 0.61506 0.91787 0.83866 0.0
H1618 H 0.6427 0.94461 0.91137 0.0
H1619 H 0.60938 0.87545 0.89526 0.0
C1620 C 0.6187 0.86605 0.9284 0.0
C1621 C 0.63039 0.87201 0.94782 0.0
C1622 C 0.63673 0.93869 0.89542 0.0
C1623 C 0.63018 0.90063 0.9112 0.0
C1624 C 0.63559 0.95352 0.87766 0.0
C1625 C 0.62777 0.94638 0.85683 0.0
C1626 C 0.62976 0.91658 0.89243 0.0
C1627 C 0.62125 0.92407 0.85442 0.0
C1628 C 0.61866 0.88024 0.91003 0.0
C1629 C 0.64208 0.89231 0.94813 0.0
N1630 N 0.62227 0.90998 0.87206 0.0
N1631 N 0.64155 0.90594 0.93016 0.0
H1632 H 0.15718 0.07726 0.34083 0.0
H1633 H 0.02836 0.11418 0.35347 0.0
H1634 H 0.1007 0.03431 0.32557 0.0
H1635 H 0.08324 0.1615 0.35067 0.0
H1636 H 0.05502 0.08443 0.34512 0.0
H1637 H 0.13079 0.10818 0.34587 0.0
C1638 C 0.13925 0.07436 0.33837 0.0
C1639 C 0.13112 0.05314 0.33285 0.0
C1640 C 0.06125 0.10132 0.34624 0.0
C1641 C 0.10086 0.08838 0.33883 0.0
C1642 C 0.04605 0.11833 0.35113 0.0
C1643 C 0.05359 0.14038 0.35284 0.0
C1644 C 0.08426 0.1063 0.34326 0.0
C1645 C 0.0767 0.14474 0.34951 0.0
C1646 C 0.12421 0.09203 0.34124 0.0
C1647 C 0.10773 0.05037 0.32983 0.0
N1648 N 0.09126 0.12781 0.345 0.0
N1649 N 0.09341 0.06775 0.33305 0.0
H1650 H 0.92779 0.13729 0.35099 0.0
H1651 H 0.86709 0.03805 0.41665 0.0
H1652 H 0.94779 0.11429 0.41606 0.0
H1653 H 0.84798 0.05792 0.3503 0.0
H1654 H 0.8949 0.06791 0.41751 0.0
H1655 H 0.89673 0.11028 0.35117 0.0
C1656 C 0.92559 0.12666 0.36535 0.0
C1657 C 0.9405 0.12798 0.38349 0.0
C1658 C 0.88458 0.06584 0.40277 0.0
C1659 C 0.90505 0.09708 0.38379 0.0
C1660 C 0.86866 0.04877 0.40227 0.0
C1661 C 0.85525 0.04538 0.38332 0.0
C1662 C 0.88725 0.07968 0.38416 0.0
C1663 C 0.858 0.05989 0.36524 0.0
C1664 C 0.90787 0.11124 0.36543 0.0
C1665 C 0.93682 0.11381 0.40166 0.0
N1666 N 0.87378 0.07635 0.36605 0.0
N1667 N 0.91954 0.09895 0.4013 0.0
H1668 H 0.84659 0.93367 0.38167 0.0
H1669 H 0.95965 0.87715 0.33508 0.0
H1670 H 0.8833 0.95774 0.32449 0.0
H1671 H 0.92558 0.85538 0.39471 0.0
H1672 H 0.93051 0.90531 0.32975 0.0
H1673 H 0.874 0.90355 0.38546 0.0
C1674 C 0.86037 0.93259 0.36984 0.0
C1675 C 0.86269 0.94834 0.35276 0.0
C1676 C 0.92935 0.89436 0.34398 0.0
C1677 C 0.89418 0.91384 0.35706 0.0
C1678 C 0.94599 0.87822 0.34704 0.0
C1679 C 0.94512 0.8639 0.36545 0.0
C1680 C 0.91164 0.89626 0.3594 0.0
C1681 C 0.92697 0.86609 0.38033 0.0
C1682 C 0.87604 0.91538 0.37205 0.0
C1683 C 0.88087 0.94604 0.33794 0.0
N1684 N 0.91097 0.88202 0.37701 0.0
N1685 N 0.89594 0.92915 0.34047 0.0
H1686 H 0.12099 0.97714 0.39381 0.0
H1687 H 0.07385 0.86224 0.34529 0.0
H1688 H 0.15221 0.94289 0.3387 0.0
H1689 H 0.03764 0.90377 0.39175 0.0
H1690 H 0.10502 0.88915 0.34541 0.0
H1691 H 0.0928 0.94773 0.39622 0.0
C1692 C 0.12202 0.96335 0.38228 0.0
C1693 C 0.13892 0.96257 0.36592 0.0
C1694 C 0.09026 0.89229 0.35561 0.0
C1695 C 0.10653 0.92878 0.36856 0.0
C1696 C 0.07249 0.87694 0.35558 0.0
C1697 C 0.05306 0.88084 0.36843 0.0
C1698 C 0.0886 0.91155 0.36871 0.0
C1699 C 0.05221 0.90014 0.38147 0.0
C1700 C 0.10585 0.94657 0.38364 0.0
C1701 C 0.13941 0.94422 0.35151 0.0
N1702 N 0.0697 0.91476 0.38125 0.0
N1703 N 0.12337 0.92807 0.3531 0.0
H1704 H 0.07518 0.84899 0.61996 0.0
H1705 H 0.12779 0.94327 0.69868 0.0
H1706 H 0.04802 0.8659 0.68438 0.0
H1707 H 0.15054 0.93036 0.63172 0.0
H1708 H 0.10024 0.91314 0.69492 0.0
H1709 H 0.10484 0.87679 0.62523 0.0
C1710 C 0.07552 0.85845 0.63527 0.0
C1711 C 0.059 0.85516 0.6517 0.0
C1712 C 0.1113 0.91688 0.68108 0.0
C1713 C 0.0929 0.8871 0.65783 0.0
C1714 C 0.12706 0.93407 0.68322 0.0
C1715 C 0.14145 0.93943 0.66546 0.0
C1716 C 0.10998 0.90491 0.66106 0.0
C1717 C 0.13974 0.9269 0.64583 0.0
C1718 C 0.09244 0.87437 0.63826 0.0
C1719 C 0.06033 0.86791 0.67122 0.0
N1720 N 0.12428 0.91028 0.64416 0.0
N1721 N 0.07693 0.88336 0.67371 0.0
H1722 H 0.1444 0.05338 0.69351 0.0
H1723 H 0.07979 0.12512 0.60136 0.0
H1724 H 0.1564 0.04748 0.62298 0.0
H1725 H 0.07138 0.13567 0.67183 0.0
H1726 H 0.10916 0.09775 0.60922 0.0
H1727 H 0.11891 0.08461 0.68623 0.0
C1728 C 0.14181 0.05873 0.67651 0.0
C1729 C 0.15245 0.04768 0.65882 0.0
C1730 C 0.10102 0.10613 0.62299 0.0
C1731 C 0.12322 0.08335 0.65038 0.0
C1732 C 0.0842 0.12177 0.61851 0.0
C1733 C 0.07299 0.13261 0.63596 0.0
C1734 C 0.10661 0.10111 0.64512 0.0
C1735 C 0.07954 0.12767 0.65785 0.0
C1736 C 0.12725 0.07657 0.67237 0.0
C1737 C 0.1485 0.0554 0.63715 0.0
N1738 N 0.0958 0.11215 0.66182 0.0
N1739 N 0.13411 0.07264 0.63355 0.0
H1740 H 0.97724 0.11785 0.62694 0.0
H1741 H 0.85642 0.06908 0.66193 0.0
H1742 H 0.93037 0.1532 0.66919 0.0
H1743 H 0.90684 0.03201 0.62552 0.0
H1744 H 0.88254 0.10054 0.66391 0.0
H1745 H 0.95081 0.08689 0.62516 0.0
C1746 C 0.96134 0.11915 0.63582 0.0
C1747 C 0.95604 0.13819 0.64827 0.0
C1748 C 0.88789 0.0855 0.65553 0.0
C1749 C 0.92562 0.10261 0.64631 0.0
C1750 C 0.87299 0.06753 0.65438 0.0
C1751 C 0.87945 0.04786 0.64352 0.0
C1752 C 0.90937 0.08384 0.64567 0.0
C1753 C 0.90113 0.04681 0.63406 0.0
C1754 C 0.94626 0.1014 0.63483 0.0
C1755 C 0.93518 0.13885 0.65942 0.0
N1756 N 0.91527 0.06456 0.63532 0.0
N1757 N 0.9207 0.1213 0.65817 0.0
H1758 H 0.91107 0.84465 0.62998 0.0
H1759 H 0.87763 0.95695 0.69328 0.0
H1760 H 0.95022 0.87311 0.6835 0.0
H1761 H 0.84801 0.93733 0.63067 0.0
H1762 H 0.90098 0.92352 0.69269 0.0
H1763 H 0.88445 0.87573 0.63282 0.0
C1764 C 0.91397 0.85731 0.64246 0.0
C1765 C 0.93297 0.85634 0.65645 0.0
C1766 C 0.88933 0.92648 0.6791 0.0
C1767 C 0.9026 0.89189 0.65977 0.0
C1768 C 0.87594 0.94556 0.67945 0.0
C1769 C 0.86092 0.95003 0.66193 0.0
C1770 C 0.88765 0.91164 0.66117 0.0
C1771 C 0.85945 0.93461 0.64447 0.0
C1772 C 0.89882 0.87509 0.644 0.0
C1773 C 0.93589 0.87325 0.67227 0.0
N1774 N 0.87268 0.91611 0.64451 0.0
N1775 N 0.9209 0.89032 0.67347 0.0
H1776 H 0.37083 0.06733 0.15188 0.0
H1777 H 0.40269 0.12554 0.03663 0.0
H1778 H 0.42187 0.04267 0.10683 0.0
H1779 H 0.35462 0.15317 0.08309 0.0
H1780 H 0.41074 0.09576 0.0629 0.0
H1781 H 0.36558 0.09964 0.12779 0.0
C1782 C 0.38105 0.06878 0.13701 0.0
C1783 C 0.39674 0.0522 0.13131 0.0
C1784 C 0.39849 0.10837 0.06742 0.0
C1785 C 0.39072 0.08907 0.10361 0.0
C1786 C 0.39384 0.12538 0.05239 0.0
C1787 C 0.37784 0.14183 0.05761 0.0
C1788 C 0.38699 0.10766 0.08783 0.0
C1789 C 0.36703 0.14081 0.07835 0.0
C1790 C 0.37803 0.08723 0.12326 0.0
C1791 C 0.40953 0.05498 0.11186 0.0
N1792 N 0.37171 0.12393 0.09266 0.0
N1793 N 0.40614 0.07298 0.09867 0.0
H1794 H 0.40686 0.93826 0.86385 0.0
H1795 H 0.33338 0.84846 0.93048 0.0
H1796 H 0.33379 0.93599 0.8635 0.0
H1797 H 0.40451 0.85961 0.94288 0.0
H1798 H 0.33438 0.87684 0.90158 0.0
H1799 H 0.4073 0.90596 0.88866 0.0
C1800 C 0.39092 0.93088 0.86883 0.0
C1801 C 0.37024 0.93994 0.86172 0.0
C1802 C 0.34981 0.87301 0.91054 0.0
C1803 C 0.37065 0.90301 0.89 0.0
C1804 C 0.34928 0.85674 0.92702 0.0
C1805 C 0.36885 0.85175 0.93928 0.0
C1806 C 0.37008 0.88439 0.90616 0.0
C1807 C 0.38897 0.86301 0.93395 0.0
C1808 C 0.3912 0.91249 0.88304 0.0
C1809 C 0.35012 0.92969 0.8687 0.0
N1810 N 0.38904 0.87889 0.91785 0.0
N1811 N 0.35084 0.91182 0.88247 0.0
H1812 H 0.03636 0.38146 0.90054 0.0
H1813 H 0.16394 0.34141 0.92085 0.0
H1814 H 0.07596 0.34762 0.85063 0.0
H1815 H 0.11958 0.36466 0.97292 0.0
H1816 H 0.13288 0.34553 0.89419 0.0
H1817 H 0.0678 0.37769 0.92656 0.0
C1818 C 0.0517 0.37329 0.89501 0.0
C1819 C 0.0535 0.3648 0.87337 0.0
C1820 C 0.12996 0.34968 0.91147 0.0
C1821 C 0.08962 0.3604 0.90314 0.0
C1822 C 0.14768 0.34735 0.92669 0.0
C1823 C 0.14435 0.35268 0.94916 0.0
C1824 C 0.10883 0.35754 0.91875 0.0
C1825 C 0.12292 0.3603 0.95578 0.0
C1826 C 0.06964 0.37108 0.90992 0.0
C1827 C 0.07381 0.35436 0.86717 0.0
N1828 N 0.10602 0.36255 0.94064 0.0
N1829 N 0.0911 0.35246 0.88199 0.0
H1830 H 0.65724 0.15799 0.9139 0.0
H1831 H 0.58188 0.05311 0.87865 0.0
H1832 H 0.59897 0.13471 0.95044 0.0
H1833 H 0.64209 0.07322 0.84328 0.0
H1834 H 0.58606 0.08523 0.90297 0.0
H1835 H 0.65033 0.12918 0.88594 0.0
C1836 C 0.64294 0.14691 0.91599 0.0
C1837 C 0.62876 0.14867 0.93463 0.0
C1838 C 0.59831 0.08273 0.88982 0.0
C1839 C 0.62075 0.11574 0.90272 0.0
C1840 C 0.59591 0.06438 0.87588 0.0
C1841 C 0.61176 0.06035 0.859 0.0
C1842 C 0.61675 0.09718 0.88696 0.0
C1843 C 0.62951 0.07562 0.85614 0.0
C1844 C 0.63901 0.13047 0.90003 0.0
C1845 C 0.61046 0.1339 0.93645 0.0
N1846 N 0.63163 0.09329 0.8701 0.0
N1847 N 0.60705 0.11804 0.92076 0.0
H1848 H 0.95501 0.62793 0.8825 0.0
H1849 H 0.82454 0.65366 0.90698 0.0
H1850 H 0.90644 0.64213 0.83074 0.0
H1851 H 0.87614 0.65112 0.95778 0.0
H1852 H 0.85379 0.64818 0.87874 0.0
H1853 H 0.92571 0.63453 0.91025 0.0
C1854 C 0.93815 0.63236 0.87694 0.0
C1855 C 0.93319 0.63448 0.85423 0.0
C1856 C 0.85871 0.64893 0.89606 0.0
C1857 C 0.89951 0.64214 0.88602 0.0
C1858 C 0.84202 0.65208 0.9122 0.0
C1859 C 0.84789 0.65281 0.9348 0.0
C1860 C 0.8814 0.64633 0.90257 0.0
C1861 C 0.87082 0.65067 0.94057 0.0
C1862 C 0.92144 0.63622 0.89283 0.0
C1863 C 0.91103 0.64032 0.84807 0.0
N1864 N 0.8867 0.64741 0.92458 0.0
N1865 N 0.89499 0.64391 0.86388 0.0
H1866 H 0.67858 0.93613 0.13914 0.0
H1867 H 0.59984 0.87424 0.05026 0.0
H1868 H 0.60745 0.95054 0.1308 0.0
H1869 H 0.66979 0.85718 0.06241 0.0
H1870 H 0.6019 0.90168 0.08019 0.0
H1871 H 0.67526 0.90645 0.11173 0.0
C1872 C 0.66221 0.93299 0.13163 0.0
C1873 C 0.64329 0.94593 0.13723 0.0
C1874 C 0.61676 0.89187 0.07636 0.0
C1875 C 0.63939 0.91197 0.10564 0.0
C1876 C 0.61562 0.87621 0.05925 0.0
C1877 C 0.6347 0.86343 0.05374 0.0
C1878 C 0.63717 0.89484 0.08801 0.0
C1879 C 0.65466 0.86667 0.06601 0.0
C1880 C 0.66033 0.91601 0.11595 0.0
C1881 C 0.6225 0.94101 0.12698 0.0
N1882 N 0.65539 0.8821 0.08248 0.0
N1883 N 0.62114 0.9245 0.11159 0.0
H1884 H 0.09374 0.65055 0.16532 0.0
H1885 H 0.12272 0.66322 0.03596 0.0
H1886 H 0.04359 0.65545 0.11329 0.0
H1887 H 0.17341 0.64836 0.08553 0.0
H1888 H 0.09393 0.66341 0.0649 0.0
H1889 H 0.12358 0.65221 0.13705 0.0
C1890 C 0.08899 0.65195 0.14799 0.0
C1891 C 0.06612 0.65282 0.14168 0.0
C1892 C 0.11135 0.66014 0.0695 0.0
C1893 C 0.1001 0.65486 0.10934 0.0
C1894 C 0.12784 0.66011 0.05296 0.0
C1895 C 0.15052 0.65568 0.0583 0.0
C1896 C 0.11751 0.65577 0.09161 0.0
C1897 C 0.15611 0.65179 0.08065 0.0
C1898 C 0.10603 0.6529 0.13188 0.0
C1899 C 0.06096 0.65467 0.11898 0.0
N1900 N 0.13969 0.65188 0.09651 0.0
N1901 N 0.0778 0.65565 0.10368 0.0
H1902 H 0.95592 0.33768 0.12191 0.0
H1903 H 0.82753 0.36147 0.08641 0.0
H1904 H 0.90519 0.36225 0.16737 0.0
H1905 H 0.87947 0.33945 0.04098 0.0
H1906 H 0.85503 0.35996 0.11674 0.0
H1907 H 0.92747 0.33638 0.09261 0.0
C1908 C 0.93876 0.34276 0.12577 0.0
C1909 C 0.93297 0.35018 0.14715 0.0
C1910 C 0.86039 0.35539 0.10015 0.0
C1911 C 0.90023 0.34874 0.11353 0.0
C1912 C 0.84469 0.35622 0.08281 0.0
C1913 C 0.85123 0.35067 0.06108 0.0
C1914 C 0.8828 0.34895 0.09575 0.0
C1915 C 0.87369 0.34396 0.05744 0.0
C1916 C 0.92251 0.34201 0.10899 0.0
C1917 C 0.91044 0.35647 0.15113 0.0
N1918 N 0.88866 0.34336 0.07458 0.0
N1919 N 0.89489 0.35567 0.13445 0.0
H1920 H 0.61915 0.80313 0.55058 0.0
H1921 H 0.58702 0.86974 0.6614 0.0
H1922 H 0.65133 0.86455 0.57003 0.0
H1923 H 0.54716 0.81594 0.63447 0.0
H1924 H 0.61383 0.86532 0.6307 0.0
H1925 H 0.59575 0.80486 0.58396 0.0
C1926 C 0.6214 0.81692 0.56193 0.0
C1927 C 0.63712 0.8338 0.55741 0.0
C1928 C 0.59927 0.85443 0.63159 0.0
C1929 C 0.61035 0.83588 0.5957 0.0
C1930 C 0.58399 0.85689 0.64915 0.0
C1931 C 0.56474 0.84327 0.65044 0.0
C1932 C 0.59533 0.83815 0.61531 0.0
C1933 C 0.56169 0.82691 0.63408 0.0
C1934 C 0.60799 0.81792 0.58097 0.0
C1935 C 0.63933 0.85124 0.57278 0.0
N1936 N 0.57678 0.82484 0.61719 0.0
N1937 N 0.62603 0.85186 0.59121 0.0
H1938 H 0.12872 0.57723 0.659 0.0
H1939 H 0.1008 0.59643 0.53033 0.0
H1940 H 0.11155 0.52461 0.61321 0.0
H1941 H 0.13184 0.64679 0.57137 0.0
H1942 H 0.10198 0.57077 0.56161 0.0
H1943 H 0.12773 0.60375 0.62809 0.0
C1944 C 0.12478 0.57124 0.64247 0.0
C1945 C 0.1202 0.54865 0.63871 0.0
C1946 C 0.10855 0.58742 0.56381 0.0
C1947 C 0.11888 0.5789 0.60336 0.0
C1948 C 0.10781 0.60214 0.54595 0.0
C1949 C 0.11626 0.62381 0.5482 0.0
C1950 C 0.11769 0.59439 0.5842 0.0
C1951 C 0.12517 0.63022 0.56889 0.0
C1952 C 0.12424 0.58638 0.62485 0.0
C1953 C 0.11523 0.54184 0.61693 0.0
N1954 N 0.12563 0.61557 0.58612 0.0
N1955 N 0.11461 0.5569 0.60014 0.0
H1956 H 0.38105 0.10896 0.52982 0.0
H1957 H 0.4378 0.16769 0.63523 0.0
H1958 H 0.35471 0.16919 0.559 0.0
H1959 H 0.45929 0.10462 0.60828 0.0
H1960 H 0.40667 0.16842 0.6083 0.0
H1961 H 0.40909 0.10684 0.55937 0.0
C1962 C 0.38108 0.12171 0.54254 0.0
C1963 C 0.36558 0.13935 0.54186 0.0
C1964 C 0.41816 0.15439 0.60837 0.0
C1965 C 0.39786 0.1371 0.57581 0.0
C1966 C 0.43594 0.15398 0.62371 0.0
C1967 C 0.45125 0.13612 0.62393 0.0
C1968 C 0.41574 0.13686 0.59313 0.0
C1969 C 0.44798 0.11877 0.60868 0.0
C1970 C 0.39713 0.12048 0.55945 0.0
C1971 C 0.36637 0.15531 0.55888 0.0
N1972 N 0.43067 0.11964 0.59387 0.0
N1973 N 0.38238 0.15389 0.5751 0.0
H1974 H 0.90928 0.3652 0.55771 0.0
H1975 H 0.83555 0.44554 0.63527 0.0
H1976 H 0.83693 0.37328 0.55107 0.0
H1977 H 0.90864 0.44618 0.63322 0.0
H1978 H 0.83545 0.41614 0.60723 0.0
H1979 H 0.909 0.3918 0.58839 0.0
C1980 C 0.89331 0.37245 0.56279 0.0
C1981 C 0.87311 0.3671 0.55171 0.0
C1982 C 0.8515 0.42269 0.61296 0.0
C1983 C 0.87269 0.39759 0.5868 0.0
C1984 C 0.85158 0.43946 0.62899 0.0
C1985 C 0.87213 0.44842 0.63653 0.0
C1986 C 0.87213 0.41474 0.60449 0.0
C1987 C 0.89238 0.43986 0.62781 0.0
C1988 C 0.89318 0.38769 0.58027 0.0
C1989 C 0.85292 0.377 0.55904 0.0
N1990 N 0.89186 0.42351 0.61225 0.0
N1991 N 0.85324 0.39181 0.57609 0.0
H1992 H 0.59791 0.13346 0.34479 0.0
H1993 H 0.62835 0.1974 0.45764 0.0
H1994 H 0.55266 0.17877 0.37828 0.0
H1995 H 0.66672 0.14131 0.43346 0.0
H1996 H 0.60327 0.19419 0.4256 0.0
H1997 H 0.62595 0.13941 0.37427 0.0
C1998 C 0.59393 0.14476 0.35824 0.0
C1999 C 0.57286 0.15554 0.35913 0.0
C2000 C 0.61723 0.18263 0.42724 0.0
C2001 C 0.60484 0.16246 0.39279 0.0
C2002 C 0.63163 0.18449 0.44551 0.0
C2003 C 0.6496 0.16949 0.44835 0.0
C2004 C 0.62083 0.16572 0.41155 0.0
C2005 C 0.653 0.15315 0.43201 0.0
C2006 C 0.60991 0.14809 0.37508 0.0
C2007 C 0.56861 0.16998 0.37697 0.0
N2008 N 0.63869 0.15164 0.41434 0.0
N2009 N 0.58444 0.173 0.39307 0.0
H2010 H 0.89351 0.56555 0.36348 0.0
H2011 H 0.82348 0.63671 0.45209 0.0
H2012 H 0.82065 0.56392 0.36922 0.0
H2013 H 0.89546 0.64424 0.44209 0.0
H2014 H 0.82219 0.6107 0.42107 0.0
H2015 H 0.89469 0.59494 0.39153 0.0
C2016 C 0.87775 0.57143 0.37055 0.0
C2017 C 0.85695 0.56215 0.36406 0.0
C2018 C 0.83826 0.61811 0.42555 0.0
C2019 C 0.8582 0.59576 0.39623 0.0
C2020 C 0.83903 0.63298 0.4433 0.0
C2021 C 0.85964 0.64259 0.44979 0.0
C2022 C 0.85829 0.61263 0.41424 0.0
C2023 C 0.8792 0.6372 0.43768 0.0
C2024 C 0.87844 0.58824 0.38655 0.0
C2025 C 0.83708 0.5705 0.37375 0.0
N2026 N 0.87808 0.62244 0.42057 0.0
N2027 N 0.83821 0.58672 0.38942 0.0
H2028 H 0.38039 0.80231 0.45139 0.0
H2029 H 0.41687 0.87119 0.34345 0.0
H2030 H 0.34774 0.86309 0.43071 0.0
H2031 H 0.45443 0.81532 0.36934 0.0
H2032 H 0.38863 0.86589 0.37264 0.0
H2033 H 0.40474 0.80424 0.41872 0.0
C2034 C 0.37821 0.81599 0.4399 0.0
C2035 C 0.36212 0.83267 0.44391 0.0
C2036 C 0.40298 0.85472 0.37185 0.0
C2037 C 0.39004 0.83501 0.40645 0.0
C2038 C 0.41911 0.85771 0.35516 0.0
C2039 C 0.43816 0.84378 0.35404 0.0
C2040 C 0.40588 0.83765 0.38751 0.0
C2041 C 0.44011 0.82655 0.36965 0.0
C2042 C 0.39217 0.8171 0.42125 0.0
C2043 C 0.36001 0.84993 0.42835 0.0
N2044 N 0.42423 0.82404 0.38578 0.0
N2045 N 0.37391 0.85072 0.41037 0.0
H2046 H 0.1028 0.41791 0.33708 0.0
H2047 H 0.13687 0.39889 0.46445 0.0
H2048 H 0.13443 0.46763 0.37851 0.0
H2049 H 0.10414 0.3488 0.42431 0.0
H2050 H 0.13688 0.42385 0.43262 0.0
H2051 H 0.10405 0.39186 0.36827 0.0
C2052 C 0.11008 0.42333 0.35269 0.0
C2053 C 0.11847 0.44501 0.3552 0.0
C2054 C 0.1297 0.40741 0.43072 0.0
C2055 C 0.11989 0.41533 0.39093 0.0
C2056 C 0.12968 0.39312 0.44893 0.0
C2057 C 0.12045 0.37172 0.44707 0.0
C2058 C 0.12042 0.4003 0.41044 0.0
C2059 C 0.1114 0.36518 0.4265 0.0
C2060 C 0.11076 0.40845 0.37049 0.0
C2061 C 0.12771 0.45111 0.37581 0.0
N2062 N 0.11159 0.37943 0.40897 0.0
N2063 N 0.12812 0.43637 0.39286 0.0
H2064 H 0.60397 0.52263 0.83806 0.0
H2065 H 0.58688 0.65399 0.84976 0.0
H2066 H 0.66003 0.56866 0.84034 0.0
H2067 H 0.5352 0.60542 0.86453 0.0
H2068 H 0.61349 0.62361 0.84217 0.0
H2069 H 0.57787 0.55366 0.84286 0.0
C2070 C 0.6108 0.53928 0.83937 0.0
C2071 C 0.63424 0.54303 0.83893 0.0
C2072 C 0.59632 0.61967 0.84711 0.0
C2073 C 0.60441 0.57865 0.84456 0.0
C2074 C 0.58115 0.63698 0.85146 0.0
C2075 C 0.55881 0.63224 0.85785 0.0
C2076 C 0.58898 0.59754 0.84894 0.0
C2077 C 0.55228 0.60989 0.85975 0.0
C2078 C 0.59588 0.55699 0.84223 0.0
C2079 C 0.64208 0.565 0.84069 0.0
N2080 N 0.56725 0.59341 0.85524 0.0
N2081 N 0.62719 0.58201 0.8435 0.0
H2082 H 0.40655 0.64558 0.89554 0.0
H2083 H 0.3757 0.53877 0.82196 0.0
H2084 H 0.45046 0.61659 0.84603 0.0
H2085 H 0.33194 0.56381 0.87368 0.0
H2086 H 0.40179 0.56927 0.82895 0.0
H2087 H 0.3777 0.61767 0.88642 0.0
C2088 C 0.41011 0.63343 0.88273 0.0
C2089 C 0.43102 0.63338 0.87163 0.0
C2090 C 0.38645 0.56821 0.83875 0.0
C2091 C 0.39813 0.60151 0.8611 0.0
C2092 C 0.37149 0.55077 0.83473 0.0
C2093 C 0.35165 0.54862 0.84734 0.0
C2094 C 0.38166 0.58369 0.85558 0.0
C2095 C 0.34708 0.56479 0.86359 0.0
C2096 C 0.39364 0.61751 0.87754 0.0
C2097 C 0.43467 0.61725 0.85515 0.0
N2098 N 0.36205 0.58159 0.86734 0.0
N2099 N 0.41845 0.602 0.85045 0.0
H2100 H 0.35512 0.43858 0.80569 0.0
H2101 H 0.43156 0.37354 0.8946 0.0
H2102 H 0.34873 0.44652 0.87672 0.0
H2103 H 0.44342 0.37139 0.82385 0.0
H2104 H 0.39933 0.39819 0.88818 0.0
H2105 H 0.38567 0.41177 0.81184 0.0
C2106 C 0.36005 0.43462 0.82257 0.0
C2107 C 0.34938 0.4449 0.8407 0.0
C2108 C 0.40896 0.3923 0.87405 0.0
C2109 C 0.38434 0.41423 0.84786 0.0
C2110 C 0.42737 0.37819 0.87771 0.0
C2111 C 0.44029 0.37043 0.85975 0.0
C2112 C 0.40336 0.39868 0.85227 0.0
C2113 C 0.43401 0.37702 0.83821 0.0
C2114 C 0.37753 0.41935 0.82607 0.0
C2115 C 0.35651 0.4391 0.86221 0.0
N2116 N 0.41601 0.39077 0.83508 0.0
N2117 N 0.37353 0.42421 0.86518 0.0
H2118 H 0.53948 0.40363 0.88692 0.0
H2119 H 0.65493 0.43922 0.82976 0.0
H2120 H 0.56715 0.36653 0.83188 0.0
H2121 H 0.63928 0.45343 0.89839 0.0
H2122 H 0.62182 0.4146 0.82813 0.0
H2123 H 0.57458 0.42496 0.88904 0.0
C2124 C 0.55292 0.40002 0.87521 0.0
C2125 C 0.55039 0.3833 0.85918 0.0
C2126 C 0.62584 0.42296 0.84358 0.0
C2127 C 0.59061 0.40771 0.86149 0.0
C2128 C 0.64471 0.43698 0.84453 0.0
C2129 C 0.64986 0.44846 0.86422 0.0
C2130 C 0.61185 0.42077 0.86231 0.0
C2131 C 0.63601 0.44494 0.88285 0.0
C2132 C 0.57301 0.4121 0.87654 0.0
C2133 C 0.56844 0.37926 0.84452 0.0
N2134 N 0.61751 0.43164 0.88135 0.0
N2135 N 0.58777 0.39151 0.84591 0.0
H2136 H 0.5887 0.3345 0.13081 0.0
H2137 H 0.62486 0.46081 0.15345 0.0
H2138 H 0.54172 0.38683 0.14771 0.0
H2139 H 0.67133 0.41072 0.12977 0.0
H2140 H 0.59467 0.43314 0.15365 0.0
H2141 H 0.61969 0.3615 0.13231 0.0
C2142 C 0.5849 0.35164 0.13484 0.0
C2143 C 0.56257 0.35842 0.13908 0.0
C2144 C 0.61148 0.42817 0.14844 0.0
C2145 C 0.59791 0.38934 0.1409 0.0
C2146 C 0.62875 0.44396 0.14837 0.0
C2147 C 0.65065 0.43809 0.14151 0.0
C2148 C 0.6161 0.4063 0.14166 0.0
C2149 C 0.65468 0.416 0.13513 0.0
C2150 C 0.60259 0.36704 0.13569 0.0
C2151 C 0.55864 0.38084 0.14425 0.0
N2152 N 0.63756 0.4009 0.13532 0.0
N2153 N 0.57612 0.39546 0.14502 0.0
H2154 H 0.65771 0.56433 0.12008 0.0
H2155 H 0.54124 0.62198 0.15616 0.0
H2156 H 0.6183 0.54427 0.17706 0.0
H2157 H 0.58331 0.64647 0.10287 0.0
H2158 H 0.56966 0.59369 0.16423 0.0
H2159 H 0.63114 0.59489 0.11373 0.0
C2160 C 0.64355 0.56641 0.13133 0.0
C2161 C 0.64019 0.55164 0.14908 0.0
C2162 C 0.57275 0.60529 0.15082 0.0
C2163 C 0.60966 0.58651 0.14184 0.0
C2164 C 0.55649 0.62145 0.14617 0.0
C2165 C 0.55985 0.6366 0.12875 0.0
C2166 C 0.59251 0.60413 0.13789 0.0
C2167 C 0.57999 0.63513 0.11643 0.0
C2168 C 0.62839 0.58386 0.12769 0.0
C2169 C 0.62156 0.55518 0.16313 0.0
N2170 N 0.59551 0.61911 0.12117 0.0
N2171 N 0.60696 0.57217 0.15914 0.0
H2172 H 0.44409 0.63178 0.18471 0.0
H2173 H 0.35822 0.55379 0.11805 0.0
H2174 H 0.43662 0.63293 0.11334 0.0
H2175 H 0.35747 0.56026 0.18951 0.0
H2176 H 0.38747 0.58231 0.11616 0.0
H2177 H 0.41274 0.60537 0.18699 0.0
C2178 C 0.43579 0.62657 0.16953 0.0
C2179 C 0.44307 0.63451 0.14879 0.0
C2180 C 0.38087 0.57756 0.13226 0.0
C2181 C 0.40727 0.60417 0.15129 0.0
C2182 C 0.3642 0.56121 0.13337 0.0
C2183 C 0.35541 0.55457 0.15399 0.0
C2184 C 0.38899 0.58728 0.15192 0.0
C2185 C 0.36377 0.56486 0.17326 0.0
C2186 C 0.41788 0.6115 0.17085 0.0
C2187 C 0.43162 0.62723 0.12968 0.0
N2188 N 0.38017 0.58064 0.17176 0.0
N2189 N 0.4144 0.61237 0.13139 0.0
H2190 H 0.40712 0.34642 0.11843 0.0
H2191 H 0.3705 0.45726 0.18262 0.0
H2192 H 0.44907 0.3802 0.16654 0.0
H2193 H 0.3366 0.43388 0.12348 0.0
H2194 H 0.39617 0.42558 0.18051 0.0
H2195 H 0.37802 0.37505 0.12351 0.0
C2196 C 0.41015 0.35975 0.13016 0.0
C2197 C 0.43062 0.36101 0.14198 0.0
C2198 C 0.38305 0.42732 0.16804 0.0
C2199 C 0.39743 0.39366 0.14791 0.0
C2200 C 0.36833 0.44538 0.16927 0.0
C2201 C 0.35148 0.44834 0.15309 0.0
C2202 C 0.3809 0.412 0.15057 0.0
C2203 C 0.34945 0.43232 0.13622 0.0
C2204 C 0.39357 0.3761 0.133 0.0
C2205 C 0.43364 0.37865 0.15695 0.0
N2206 N 0.36406 0.41486 0.13535 0.0
N2207 N 0.41725 0.39426 0.15947 0.0
H2208 H 0.90621 0.5627 0.63873 0.0
H2209 H 0.82546 0.63546 0.56028 0.0
H2210 H 0.83415 0.55201 0.6328 0.0
H2211 H 0.89849 0.63813 0.55793 0.0
H2212 H 0.82799 0.60744 0.58959 0.0
H2213 H 0.90331 0.59316 0.612 0.0
C2214 C 0.88975 0.56684 0.63193 0.0
C2215 C 0.87041 0.5547 0.63792 0.0
C2216 C 0.84346 0.61419 0.58268 0.0
C2217 C 0.86699 0.58951 0.60729 0.0
C2218 C 0.84203 0.63021 0.56596 0.0
C2219 C 0.86179 0.63909 0.55655 0.0
C2220 C 0.86481 0.60708 0.59014 0.0
C2221 C 0.8828 0.63167 0.56461 0.0
C2222 C 0.88812 0.58419 0.61661 0.0
C2223 C 0.84953 0.56083 0.62857 0.0
N2224 N 0.88375 0.61609 0.58092 0.0
N2225 N 0.84839 0.57777 0.61369 0.0
H2226 H 0.82578 0.4543 0.37315 0.0
H2227 H 0.90683 0.37287 0.44176 0.0
H2228 H 0.89798 0.45064 0.3625 0.0
H2229 H 0.83381 0.37041 0.44449 0.0
H2230 H 0.90422 0.40155 0.41304 0.0
H2231 H 0.82863 0.42376 0.39962 0.0
C2232 C 0.84225 0.44703 0.37632 0.0
C2233 C 0.86169 0.45511 0.36563 0.0
C2234 C 0.88878 0.39465 0.41987 0.0
C2235 C 0.86509 0.42011 0.39608 0.0
C2236 C 0.89025 0.3783 0.43629 0.0
C2237 C 0.8705 0.36925 0.44561 0.0
C2238 C 0.86741 0.40211 0.41281 0.0
C2239 C 0.84949 0.3769 0.43782 0.0
C2240 C 0.84386 0.42955 0.39144 0.0
C2241 C 0.88255 0.44495 0.37037 0.0
N2242 N 0.84851 0.39294 0.42197 0.0
N2243 N 0.88373 0.42805 0.38535 0.0
H2244 H 0.55405 0.78835 0.36735 0.0
H2245 H 0.63057 0.8637 0.44689 0.0
H2246 H 0.55925 0.85968 0.36153 0.0
H2247 H 0.63491 0.79209 0.44543 0.0
H2248 H 0.6036 0.86236 0.41622 0.0
H2249 H 0.58315 0.78913 0.3963 0.0
C2250 C 0.5614 0.80416 0.37205 0.0
C2251 C 0.55413 0.82399 0.36205 0.0
C2252 C 0.61048 0.84693 0.42255 0.0
C2253 C 0.58728 0.82501 0.39528 0.0
C2254 C 0.62584 0.84767 0.44014 0.0
C2255 C 0.63499 0.82796 0.44879 0.0
C2256 C 0.60405 0.82632 0.4136 0.0
C2257 C 0.62828 0.80769 0.43928 0.0
C2258 C 0.578 0.80459 0.38858 0.0
C2259 C 0.56429 0.84398 0.36879 0.0
N2260 N 0.61314 0.80739 0.42225 0.0
N2261 N 0.58022 0.84398 0.38507 0.0
H2262 H 0.10908 0.63889 0.44089 0.0
H2263 H 0.17683 0.54974 0.36807 0.0
H2264 H 0.17926 0.62178 0.4516 0.0
H2265 H 0.10695 0.56721 0.35614 0.0
H2266 H 0.17859 0.57787 0.39716 0.0
H2267 H 0.10841 0.61429 0.40857 0.0
C2268 C 0.12437 0.63001 0.43642 0.0
C2269 C 0.14424 0.63232 0.44905 0.0
C2270 C 0.1629 0.57568 0.38811 0.0
C2271 C 0.14358 0.60414 0.41205 0.0
C2272 C 0.16188 0.55962 0.37144 0.0
C2273 C 0.14165 0.55599 0.35974 0.0
C2274 C 0.14351 0.58819 0.39324 0.0
C2275 C 0.12288 0.56939 0.36478 0.0
C2276 C 0.12398 0.61598 0.41794 0.0
C2277 C 0.16354 0.62046 0.44242 0.0
N2278 N 0.12421 0.58479 0.38128 0.0
N2279 N 0.1627 0.60683 0.42444 0.0
H2280 H 0.46299 0.15333 0.38373 0.0
H2281 H 0.3297 0.16641 0.40385 0.0
H2282 H 0.41487 0.16089 0.3302 0.0
H2283 H 0.37975 0.16735 0.45619 0.0
H2284 H 0.36026 0.16397 0.37645 0.0
H2285 H 0.43224 0.15739 0.4104 0.0
C2286 C 0.44593 0.15578 0.37756 0.0
C2287 C 0.44152 0.15677 0.35467 0.0
C2288 C 0.36452 0.16484 0.39393 0.0
C2289 C 0.40614 0.16151 0.38521 0.0
C2290 C 0.34709 0.16628 0.40958 0.0
C2291 C 0.35216 0.16703 0.43236 0.0
C2292 C 0.38714 0.16402 0.40114 0.0
C2293 C 0.37501 0.16678 0.43882 0.0
C2294 C 0.42837 0.15818 0.39282 0.0
C2295 C 0.41906 0.16002 0.34769 0.0
N2296 N 0.39161 0.16518 0.42331 0.0
N2297 N 0.40219 0.16225 0.36291 0.0
H2298 H 0.09349 0.43433 0.63103 0.0
H2299 H 0.15781 0.33425 0.57022 0.0
H2300 H 0.16151 0.41398 0.64786 0.0
H2301 H 0.09653 0.36464 0.5455 0.0
H2302 H 0.15735 0.36003 0.60169 0.0
H2303 H 0.09214 0.40526 0.6028 0.0
C2304 C 0.10809 0.42363 0.62894 0.0
C2305 C 0.12772 0.42673 0.64173 0.0
C2306 C 0.14398 0.36099 0.5894 0.0
C2307 C 0.12629 0.39342 0.60932 0.0
C2308 C 0.1442 0.34626 0.57145 0.0
C2309 C 0.12724 0.34737 0.55513 0.0
C2310 C 0.12658 0.37681 0.59112 0.0
C2311 C 0.11003 0.36327 0.5576 0.0
C2312 C 0.10733 0.40708 0.61274 0.0
C2313 C 0.14607 0.41229 0.63829 0.0
N2314 N 0.11015 0.37735 0.57523 0.0
N2315 N 0.14495 0.39631 0.62234 0.0
H2316 H 0.67897 0.15977 0.59188 0.0
H2317 H 0.54566 0.15092 0.61383 0.0
H2318 H 0.62847 0.16051 0.53997 0.0
H2319 H 0.59479 0.15764 0.66658 0.0
H2320 H 0.57608 0.15375 0.58668 0.0
H2321 H 0.64869 0.15869 0.6196 0.0
C2322 C 0.66153 0.15981 0.5863 0.0
C2323 C 0.65627 0.16016 0.56355 0.0
C2324 C 0.58025 0.15465 0.60418 0.0
C2325 C 0.62155 0.1588 0.59519 0.0
C2326 C 0.56287 0.15298 0.61974 0.0
C2327 C 0.56767 0.15402 0.64257 0.0
C2328 C 0.6027 0.1573 0.61142 0.0
C2329 C 0.59031 0.15675 0.64916 0.0
C2330 C 0.64426 0.15918 0.60215 0.0
C2331 C 0.63336 0.16022 0.55731 0.0
N2332 N 0.607 0.15824 0.63366 0.0
N2333 N 0.61688 0.15944 0.57302 0.0
H2334 H 0.43097 0.84007 0.65843 0.0
H2335 H 0.3887 0.84946 0.5325 0.0
H2336 H 0.47365 0.86042 0.60386 0.0
H2337 H 0.34296 0.84115 0.58784 0.0
H2338 H 0.42036 0.85105 0.55844 0.0
H2339 H 0.39874 0.83835 0.63287 0.0
C2340 C 0.43356 0.84424 0.64111 0.0
C2341 C 0.45505 0.85039 0.63327 0.0
C2342 C 0.40341 0.84888 0.56493 0.0
C2343 C 0.41833 0.84829 0.60397 0.0
C2344 C 0.3853 0.84789 0.55012 0.0
C2345 C 0.36311 0.84521 0.55801 0.0
C2346 C 0.39938 0.84705 0.58785 0.0
C2347 C 0.35978 0.84329 0.58103 0.0
C2348 C 0.41516 0.84325 0.62654 0.0
C2349 C 0.45741 0.85562 0.61066 0.0
N2350 N 0.37774 0.84423 0.59516 0.0
N2351 N 0.4393 0.85436 0.59681 0.0
loop_
_geom_bond_atom_site_label_1
_geom_bond_atom_site_label_2
_geom_bond_distance
_geom_bond_site_symmetry_2
_ccdc_geom_bond_type
C0 O1 1.160 . S
C0 O7 1.185 . S
O1 C0 1.160 . S
O2 Zn3 1.899 . S
O2 C10 1.284 . S
Zn3 O2 1.899 . S
Zn3 O4 2.032 . S
Zn3 O7 2.086 . S
Zn3 O12 1.977 . S
O4 Zn3 2.032 . S
O4 C8 1.278 1_455 S
C5 O6 1.203 . S
C5 O12 1.267 . S
O6 C5 1.203 . S
O7 C0 1.185 . S
O7 Zn3 2.086 . S
C8 O4 1.278 1_655 S
C8 O9 1.211 . S
O9 C8 1.211 . S
C10 O2 1.284 . S
C10 O11 1.273 . S
O11 C10 1.273 . S
O12 Zn3 1.977 . S
O12 C5 1.267 . S
C13 O14 1.160 . S
C13 O20 1.185 . S
O14 C13 1.160 . S
O15 Zn16 1.899 . S
O15 C23 1.284 . S
Zn16 O15 1.899 . S
Zn16 O17 2.032 . S
Zn16 O20 2.086 . S
Zn16 O25 1.977 1_545 S
O17 Zn16 2.032 . S
O17 C21 1.278 . S
C18 O19 1.203 . S
C18 O25 1.267 . S
O19 C18 1.203 . S
O20 C13 1.185 . S
O20 Zn16 2.086 . S
C21 O17 1.278 . S
C21 O22 1.211 1_545 S
O22 C21 1.211 1_565 S
C23 O15 1.284 . S
C23 O24 1.273 . S
O24 C23 1.273 . S
O25 Zn16 1.977 1_565 S
O25 C18 1.267 . S
C26 O27 1.160 . S
C26 O33 1.185 . S
O27 C26 1.160 . S
O28 Zn29 1.899 . S
O28 C36 1.284 . S
Zn29 O28 1.899 . S
Zn29 O30 2.032 . S
Zn29 O33 2.086 . S
Zn29 O38 1.977 . S
O30 Zn29 2.032 . S
O30 C34 1.278 1_655 S
C31 O32 1.203 . S
C31 O38 1.267 . S
O32 C31 1.203 . S
O33 C26 1.185 . S
O33 Zn29 2.086 . S
C34 O30 1.278 1_455 S
C34 O35 1.211 . S
O35 C34 1.211 . S
C36 O28 1.284 . S
C36 O37 1.273 . S
O37 C36 1.273 . S
O38 Zn29 1.977 . S
O38 C31 1.267 . S
C39 O40 1.160 . S
C39 O46 1.185 . S
O40 C39 1.160 . S
O41 Zn42 1.899 . S
O41 C49 1.284 . S
Zn42 O41 1.899 . S
Zn42 O43 2.032 . S
Zn42 O46 2.086 . S
Zn42 O51 1.977 1_565 S
O43 Zn42 2.032 . S
O43 C47 1.278 . S
C44 O45 1.203 . S
C44 O51 1.267 . S
O45 C44 1.203 . S
O46 C39 1.185 . S
O46 Zn42 2.086 . S
C47 O43 1.278 . S
C47 O48 1.211 1_565 S
O48 C47 1.211 1_545 S
C49 O41 1.284 . S
C49 O50 1.273 . S
O50 C49 1.273 . S
O51 Zn42 1.977 1_545 S
O51 C44 1.267 . S
C52 O53 1.160 . S
C52 O59 1.185 . S
O53 C52 1.160 . S
O54 Zn55 1.899 . S
O54 C62 1.284 . S
Zn55 O54 1.899 . S
Zn55 O56 2.032 . S
Zn55 O59 2.086 . S
Zn55 O64 1.977 . S
O56 Zn55 2.032 . S
O56 C60 1.278 1_455 S
C57 O58 1.203 . S
C57 O64 1.267 . S
O58 C57 1.203 . S
O59 C52 1.185 . S
O59 Zn55 2.086 . S
C60 O56 1.278 1_655 S
C60 O61 1.211 . S
O61 C60 1.211 . S
C62 O54 1.284 . S
C62 O63 1.273 . S
O63 C62 1.273 . S
O64 Zn55 1.977 . S
O64 C57 1.267 . S
C65 O66 1.160 . S
C65 O72 1.185 . S
O66 C65 1.160 . S
O67 Zn68 1.899 . S
O67 C75 1.284 . S
Zn68 O67 1.899 . S
Zn68 O69 2.032 . S
Zn68 O72 2.086 . S
Zn68 O77 1.977 1_545 S
O69 Zn68 2.032 . S
O69 C73 1.278 . S
C70 O71 1.203 . S
C70 O77 1.267 . S
O71 C70 1.203 . S
O72 C65 1.185 . S
O72 Zn68 2.086 . S
C73 O69 1.278 . S
C73 O74 1.211 1_545 S
O74 C73 1.211 1_565 S
C75 O67 1.284 . S
C75 O76 1.273 . S
O76 C75 1.273 . S
O77 Zn68 1.977 1_565 S
O77 C70 1.267 . S
C78 O79 1.160 . S
C78 O85 1.185 . S
O79 C78 1.160 . S
O80 Zn81 1.899 . S
O80 C88 1.284 . S
Zn81 O80 1.899 . S
Zn81 O82 2.032 . S
Zn81 O85 2.086 . S
Zn81 O90 1.977 . S
O82 Zn81 2.032 . S
O82 C86 1.278 1_655 S
C83 O84 1.203 . S
C83 O90 1.267 . S
O84 C83 1.203 . S
O85 C78 1.185 . S
O85 Zn81 2.086 . S
C86 O82 1.278 1_455 S
C86 O87 1.211 . S
O87 C86 1.211 . S
C88 O80 1.284 . S
C88 O89 1.273 . S
O89 C88 1.273 . S
O90 Zn81 1.977 . S
O90 C83 1.267 . S
C91 O92 1.160 . S
C91 O98 1.185 . S
O92 C91 1.160 . S
O93 Zn94 1.899 . S
O93 C101 1.284 . S
Zn94 O93 1.899 . S
Zn94 O95 2.032 . S
Zn94 O98 2.086 . S
Zn94 O103 1.977 1_565 S
O95 Zn94 2.032 . S
O95 C99 1.278 . S
C96 O97 1.203 . S
C96 O103 1.267 . S
O97 C96 1.203 . S
O98 C91 1.185 . S
O98 Zn94 2.086 . S
C99 O95 1.278 . S
C99 O100 1.211 1_565 S
O100 C99 1.211 1_545 S
C101 O93 1.284 . S
C101 O102 1.273 . S
O102 C101 1.273 . S
O103 Zn94 1.977 1_545 S
O103 C96 1.267 . S
C104 O105 1.160 . S
C104 O111 1.185 . S
O105 C104 1.160 . S
O106 Zn107 1.899 . S
O106 C114 1.284 . S
Zn107 O106 1.899 . S
Zn107 O108 2.032 . S
Zn107 O111 2.086 . S
Zn107 O116 1.988 . S
O108 Zn107 2.032 . S
O108 C112 1.278 . S
C109 O110 1.201 . S
C109 O116 1.262 1_565 S
O110 C109 1.201 . S
O111 C104 1.185 . S
O111 Zn107 2.086 . S
C112 O108 1.278 . S
C112 O113 1.211 . S
O113 C112 1.211 . S
C114 O106 1.284 . S
C114 O115 1.273 . S
O115 C114 1.273 . S
O116 Zn107 1.988 . S
O116 C109 1.262 1_545 S
C117 O118 1.160 . S
C117 O124 1.185 . S
O118 C117 1.160 . S
O119 Zn120 1.899 . S
O119 C127 1.284 . S
Zn120 O119 1.899 . S
Zn120 O121 2.032 . S
Zn120 O124 2.086 . S
Zn120 O129 1.977 . S
O121 Zn120 2.032 . S
O121 C125 1.278 1_655 S
C122 O123 1.203 . S
C122 O129 1.267 . S
O123 C122 1.203 . S
O124 C117 1.185 . S
O124 Zn120 2.086 . S
C125 O121 1.278 1_455 S
C125 O126 1.211 . S
O126 C125 1.211 . S
C127 O119 1.284 . S
C127 O128 1.273 . S
O128 C127 1.273 . S
O129 Zn120 1.977 . S
O129 C122 1.267 . S
C130 O131 1.160 . S
C130 O137 1.185 . S
O131 C130 1.160 . S
O132 Zn133 1.899 . S
O132 C140 1.284 . S
Zn133 O132 1.899 . S
Zn133 O134 2.032 . S
Zn133 O137 2.086 . S
Zn133 O142 1.988 . S
O134 Zn133 2.032 . S
O134 C138 1.278 . S
C135 O136 1.201 . S
C135 O142 1.262 1_545 S
O136 C135 1.201 . S
O137 C130 1.185 . S
O137 Zn133 2.086 . S
C138 O134 1.278 . S
C138 O139 1.211 . S
O139 C138 1.211 . S
C140 O132 1.284 . S
C140 O141 1.273 . S
O141 C140 1.273 . S
O142 Zn133 1.988 . S
O142 C135 1.262 1_565 S
C143 O144 1.160 . S
C143 O150 1.185 . S
O144 C143 1.160 . S
O145 Zn146 1.899 . S
O145 C153 1.284 . S
Zn146 O145 1.899 . S
Zn146 O147 2.032 . S
Zn146 O150 2.086 . S
Zn146 O155 1.977 . S
O147 Zn146 2.032 . S
O147 C151 1.278 1_455 S
C148 O149 1.203 . S
C148 O155 1.267 . S
O149 C148 1.203 . S
O150 C143 1.185 . S
O150 Zn146 2.086 . S
C151 O147 1.278 1_655 S
C151 O152 1.211 . S
O152 C151 1.211 . S
C153 O145 1.284 . S
C153 O154 1.273 . S
O154 C153 1.273 . S
O155 Zn146 1.977 . S
O155 C148 1.267 . S
C156 O157 1.160 . S
C156 O163 1.185 . S
O157 C156 1.160 . S
O158 Zn159 1.899 . S
O158 C166 1.284 . S
Zn159 O158 1.899 . S
Zn159 O160 2.032 . S
Zn159 O163 2.086 . S
Zn159 O168 1.988 . S
O160 Zn159 2.032 . S
O160 C164 1.278 . S
C161 O162 1.201 . S
C161 O168 1.262 1_545 S
O162 C161 1.201 . S
O163 C156 1.185 . S
O163 Zn159 2.086 . S
C164 O160 1.278 . S
C164 O165 1.211 . S
O165 C164 1.211 . S
C166 O158 1.284 . S
C166 O167 1.273 . S
O167 C166 1.273 . S
O168 Zn159 1.988 . S
O168 C161 1.262 1_565 S
C169 O170 1.160 . S
C169 O176 1.185 . S
O170 C169 1.160 . S
O171 Zn172 1.899 . S
O171 C179 1.284 . S
Zn172 O171 1.899 . S
Zn172 O173 2.032 . S
Zn172 O176 2.086 . S
Zn172 O181 1.977 . S
O173 Zn172 2.032 . S
O173 C177 1.278 1_455 S
C174 O175 1.203 . S
C174 O181 1.267 . S
O175 C174 1.203 . S
O176 C169 1.185 . S
O176 Zn172 2.086 . S
C177 O173 1.278 1_655 S
C177 O178 1.211 . S
O178 C177 1.211 . S
C179 O171 1.284 . S
C179 O180 1.273 . S
O180 C179 1.273 . S
O181 Zn172 1.977 . S
O181 C174 1.267 . S
C182 O183 1.160 . S
C182 O189 1.185 . S
O183 C182 1.160 . S
O184 Zn185 1.899 . S
O184 C192 1.284 . S
Zn185 O184 1.899 . S
Zn185 O186 2.032 . S
Zn185 O189 2.086 . S
Zn185 O194 1.988 . S
O186 Zn185 2.032 . S
O186 C190 1.278 . S
C187 O188 1.201 . S
C187 O194 1.262 1_565 S
O188 C187 1.201 . S
O189 C182 1.185 . S
O189 Zn185 2.086 . S
C190 O186 1.278 . S
C190 O191 1.211 . S
O191 C190 1.211 . S
C192 O184 1.284 . S
C192 O193 1.273 . S
O193 C192 1.273 . S
O194 Zn185 1.988 . S
O194 C187 1.262 1_545 S
C195 O196 1.160 . S
C195 O202 1.185 . S
O196 C195 1.160 . S
O197 Zn198 1.899 . S
O197 C205 1.284 . S
Zn198 O197 1.899 . S
Zn198 O199 2.032 . S
Zn198 O202 2.086 . S
Zn198 O207 1.977 . S
O199 Zn198 2.032 . S
O199 C203 1.278 1_655 S
C200 O201 1.203 . S
C200 O207 1.267 . S
O201 C200 1.203 . S
O202 C195 1.185 . S
O202 Zn198 2.086 . S
C203 O199 1.278 1_455 S
C203 O204 1.211 . S
O204 C203 1.211 . S
C205 O197 1.284 . S
C205 O206 1.273 . S
O206 C205 1.273 . S
O207 Zn198 1.977 . S
O207 C200 1.267 . S
C208 O209 1.160 . S
C208 O215 1.185 . S
O209 C208 1.160 . S
O210 Zn211 1.899 . S
O210 C218 1.284 . S
Zn211 O210 1.899 . S
Zn211 O212 2.032 . S
Zn211 O215 2.086 . S
Zn211 O220 1.977 1_554 S
O212 Zn211 2.032 . S
O212 C216 1.278 . S
C213 O214 1.203 . S
C213 O220 1.267 . S
O214 C213 1.203 . S
O215 C208 1.185 . S
O215 Zn211 2.086 . S
C216 O212 1.278 . S
C216 O217 1.211 1_554 S
O217 C216 1.211 1_556 S
C218 O210 1.284 . S
C218 O219 1.273 . S
O219 C218 1.273 . S
O220 Zn211 1.977 1_556 S
O220 C213 1.267 . S
C221 O222 1.160 . S
C221 O228 1.185 . S
O222 C221 1.160 . S
O223 Zn224 1.899 . S
O223 C231 1.284 . S
Zn224 O223 1.899 . S
Zn224 O225 2.032 . S
Zn224 O228 2.086 . S
Zn224 O233 1.977 1_556 S
O225 Zn224 2.032 . S
O225 C229 1.278 . S
C226 O227 1.203 . S
C226 O233 1.267 . S
O227 C226 1.203 . S
O228 C221 1.185 . S
O228 Zn224 2.086 . S
C229 O225 1.278 . S
C229 O230 1.211 1_556 S
O230 C229 1.211 1_554 S
C231 O223 1.284 . S
C231 O232 1.273 . S
O232 C231 1.273 . S
O233 Zn224 1.977 1_554 S
O233 C226 1.267 . S
C234 O235 1.160 . S
C234 O241 1.185 . S
O235 C234 1.160 . S
O236 Zn237 1.899 . S
O236 C244 1.284 . S
Zn237 O236 1.899 . S
Zn237 O238 2.032 . S
Zn237 O241 2.086 . S
Zn237 O246 1.988 . S
O238 Zn237 2.032 . S
O238 C242 1.278 . S
C239 O240 1.201 . S
C239 O246 1.262 1_554 S
O240 C239 1.201 . S
O241 C234 1.185 . S
O241 Zn237 2.086 . S
C242 O238 1.278 . S
C242 O243 1.211 . S
O243 C242 1.211 . S
C244 O236 1.284 . S
C244 O245 1.273 . S
O245 C244 1.273 . S
O246 Zn237 1.988 . S
O246 C239 1.262 1_556 S
C247 O248 1.160 . S
C247 O254 1.185 . S
O248 C247 1.160 . S
O249 Zn250 1.899 . S
O249 C257 1.284 . S
Zn250 O249 1.899 . S
Zn250 O251 2.032 . S
Zn250 O254 2.086 . S
Zn250 O259 1.977 1_556 S
O251 Zn250 2.032 . S
O251 C255 1.278 . S
C252 O253 1.203 . S
C252 O259 1.267 . S
O253 C252 1.203 . S
O254 C247 1.185 . S
O254 Zn250 2.086 . S
C255 O251 1.278 . S
C255 O256 1.211 1_556 S
O256 C255 1.211 1_554 S
C257 O249 1.284 . S
C257 O258 1.273 . S
O258 C257 1.273 . S
O259 Zn250 1.977 1_554 S
O259 C252 1.267 . S
C260 O261 1.160 . S
C260 O267 1.185 . S
O261 C260 1.160 . S
O262 Zn263 1.899 . S
O262 C270 1.284 . S
Zn263 O262 1.899 . S
Zn263 O264 2.032 . S
Zn263 O267 2.086 . S
Zn263 O272 1.988 . S
O264 Zn263 2.032 . S
O264 C268 1.278 . S
C265 O266 1.201 . S
C265 O272 1.262 1_554 S
O266 C265 1.201 . S
O267 C260 1.185 . S
O267 Zn263 2.086 . S
C268 O264 1.278 . S
C268 O269 1.211 . S
O269 C268 1.211 . S
C270 O262 1.284 . S
C270 O271 1.273 . S
O271 C270 1.273 . S
O272 Zn263 1.988 . S
O272 C265 1.262 1_556 S
C273 O274 1.160 . S
C273 O280 1.185 . S
O274 C273 1.160 . S
O275 Zn276 1.899 . S
O275 C283 1.284 . S
Zn276 O275 1.899 . S
Zn276 O277 2.032 . S
Zn276 O280 2.086 . S
Zn276 O285 1.977 1_554 S
O277 Zn276 2.032 . S
O277 C281 1.278 . S
C278 O279 1.203 . S
C278 O285 1.267 . S
O279 C278 1.203 . S
O280 C273 1.185 . S
O280 Zn276 2.086 . S
C281 O277 1.278 . S
C281 O282 1.211 1_554 S
O282 C281 1.211 1_556 S
C283 O275 1.284 . S
C283 O284 1.273 . S
O284 C283 1.273 . S
O285 Zn276 1.977 1_556 S
O285 C278 1.267 . S
C286 O287 1.160 . S
C286 O293 1.185 . S
O287 C286 1.160 . S
O288 Zn289 1.899 . S
O288 C296 1.284 . S
Zn289 O288 1.899 . S
Zn289 O290 2.032 . S
Zn289 O293 2.086 . S
Zn289 O298 1.988 . S
O290 Zn289 2.032 . S
O290 C294 1.278 . S
C291 O292 1.201 . S
C291 O298 1.262 1_556 S
O292 C291 1.201 . S
O293 C286 1.185 . S
O293 Zn289 2.086 . S
C294 O290 1.278 . S
C294 O295 1.211 . S
O295 C294 1.211 . S
C296 O288 1.284 . S
C296 O297 1.273 . S
O297 C296 1.273 . S
O298 Zn289 1.988 . S
O298 C291 1.262 1_554 S
C299 O300 1.160 . S
C299 O306 1.185 . S
O300 C299 1.160 . S
O301 Zn302 1.899 . S
O301 C309 1.284 . S
Zn302 O301 1.899 . S
Zn302 O303 2.032 . S
Zn302 O306 2.086 . S
Zn302 O311 1.988 . S
O303 Zn302 2.032 . S
O303 C307 1.278 . S
C304 O305 1.201 . S
C304 O311 1.262 1_556 S
O305 C304 1.201 . S
O306 C299 1.185 . S
O306 Zn302 2.086 . S
C307 O303 1.278 . S
C307 O308 1.211 . S
O308 C307 1.211 . S
C309 O301 1.284 . S
C309 O310 1.273 . S
O310 C309 1.273 . S
O311 Zn302 1.988 . S
O311 C304 1.262 1_554 S
C312 O313 1.160 . S
C312 O319 1.185 . S
O313 C312 1.160 . S
O314 Zn315 1.899 . S
O314 C322 1.284 . S
Zn315 O314 1.899 . S
Zn315 O316 2.032 . S
Zn315 O319 2.086 . S
Zn315 O324 1.977 . S
O316 Zn315 2.032 . S
O316 C320 1.278 . S
C317 O318 1.203 . S
C317 O324 1.267 . S
O318 C317 1.203 . S
O319 C312 1.185 . S
O319 Zn315 2.086 . S
C320 O316 1.278 . S
C320 O321 1.211 . S
O321 C320 1.211 . S
C322 O314 1.284 . S
C322 O323 1.273 . S
O323 C322 1.273 . S
O324 Zn315 1.977 . S
O324 C317 1.267 . S
C325 O326 1.160 . S
C325 O332 1.185 . S
O326 C325 1.160 . S
O327 Zn328 1.899 . S
O327 C335 1.284 . S
Zn328 O327 1.899 . S
Zn328 O329 2.032 . S
Zn328 O332 2.086 . S
Zn328 O337 1.977 . S
O329 Zn328 2.032 . S
O329 C333 1.278 . S
C330 O331 1.203 . S
C330 O337 1.267 . S
O331 C330 1.203 . S
O332 C325 1.185 . S
O332 Zn328 2.086 . S
C333 O329 1.278 . S
C333 O334 1.211 . S
O334 C333 1.211 . S
C335 O327 1.284 . S
C335 O336 1.273 . S
O336 C335 1.273 . S
O337 Zn328 1.977 . S
O337 C330 1.267 . S
C338 O339 1.160 . S
C338 O345 1.185 . S
O339 C338 1.160 . S
O340 Zn341 1.899 . S
O340 C348 1.284 . S
Zn341 O340 1.899 . S
Zn341 O342 2.032 . S
Zn341 O345 2.086 . S
Zn341 O350 1.977 . S
O342 Zn341 2.032 . S
O342 C346 1.278 . S
C343 O344 1.203 . S
C343 O350 1.267 . S
O344 C343 1.203 . S
O345 C338 1.185 . S
O345 Zn341 2.086 . S
C346 O342 1.278 . S
C346 O347 1.211 . S
O347 C346 1.211 . S
C348 O340 1.284 . S
C348 O349 1.273 . S
O349 C348 1.273 . S
O350 Zn341 1.977 . S
O350 C343 1.267 . S
C351 O352 1.160 . S
C351 O358 1.185 . S
O352 C351 1.160 . S
O353 Zn354 1.899 . S
O353 C361 1.284 . S
Zn354 O353 1.899 . S
Zn354 O355 2.032 . S
Zn354 O358 2.086 . S
Zn354 O363 1.977 . S
O355 Zn354 2.032 . S
O355 C359 1.278 . S
C356 O357 1.203 . S
C356 O363 1.267 . S
O357 C356 1.203 . S
O358 C351 1.185 . S
O358 Zn354 2.086 . S
C359 O355 1.278 . S
C359 O360 1.211 . S
O360 C359 1.211 . S
C361 O353 1.284 . S
C361 O362 1.273 . S
O362 C361 1.273 . S
O363 Zn354 1.977 . S
O363 C356 1.267 . S
C364 O365 1.160 . S
C364 O371 1.185 . S
O365 C364 1.160 . S
O366 Zn367 1.899 . S
O366 C374 1.284 . S
Zn367 O366 1.899 . S
Zn367 O368 2.032 . S
Zn367 O371 2.086 . S
Zn367 O376 1.977 . S
O368 Zn367 2.032 . S
O368 C372 1.278 . S
C369 O370 1.203 . S
C369 O376 1.267 . S
O370 C369 1.203 . S
O371 C364 1.185 . S
O371 Zn367 2.086 . S
C372 O368 1.278 . S
C372 O373 1.211 . S
O373 C372 1.211 . S
C374 O366 1.284 . S
C374 O375 1.273 . S
O375 C374 1.273 . S
O376 Zn367 1.977 . S
O376 C369 1.267 . S
C377 O378 1.160 . S
C377 O384 1.185 . S
O378 C377 1.160 . S
O379 Zn380 1.899 . S
O379 C387 1.284 . S
Zn380 O379 1.899 . S
Zn380 O381 2.032 . S
Zn380 O384 2.086 . S
Zn380 O389 1.977 . S
O381 Zn380 2.032 . S
O381 C385 1.278 . S
C382 O383 1.203 . S
C382 O389 1.267 . S
O383 C382 1.203 . S
O384 C377 1.185 . S
O384 Zn380 2.086 . S
C385 O381 1.278 . S
C385 O386 1.211 . S
O386 C385 1.211 . S
C387 O379 1.284 . S
C387 O388 1.273 . S
O388 C387 1.273 . S
O389 Zn380 1.977 . S
O389 C382 1.267 . S
C390 O391 1.160 . S
C390 O397 1.185 . S
O391 C390 1.160 . S
O392 Zn393 1.899 . S
O392 C400 1.284 . S
Zn393 O392 1.899 . S
Zn393 O394 2.032 . S
Zn393 O397 2.086 . S
Zn393 O402 1.977 . S
O394 Zn393 2.032 . S
O394 C398 1.278 . S
C395 O396 1.203 . S
C395 O402 1.267 . S
O396 C395 1.203 . S
O397 C390 1.185 . S
O397 Zn393 2.086 . S
C398 O394 1.278 . S
C398 O399 1.211 . S
O399 C398 1.211 . S
C400 O392 1.284 . S
C400 O401 1.273 . S
O401 C400 1.273 . S
O402 Zn393 1.977 . S
O402 C395 1.267 . S
C403 O404 1.160 . S
C403 O410 1.185 . S
O404 C403 1.160 . S
O405 Zn406 1.899 . S
O405 C413 1.284 . S
Zn406 O405 1.899 . S
Zn406 O407 2.032 . S
Zn406 O410 2.086 . S
Zn406 O415 1.977 . S
O407 Zn406 2.032 . S
O407 C411 1.278 . S
C408 O409 1.203 . S
C408 O415 1.267 . S
O409 C408 1.203 . S
O410 C403 1.185 . S
O410 Zn406 2.086 . S
C411 O407 1.278 . S
C411 O412 1.211 . S
O412 C411 1.211 . S
C413 O405 1.284 . S
C413 O414 1.273 . S
O414 C413 1.273 . S
O415 Zn406 1.977 . S
O415 C408 1.267 . S
C416 O417 1.160 . S
C416 O423 1.185 . S
O417 C416 1.160 . S
O418 Zn419 1.899 . S
O418 C426 1.284 . S
Zn419 O418 1.899 . S
Zn419 O420 2.032 . S
Zn419 O423 2.086 . S
Zn419 O428 1.977 . S
O420 Zn419 2.032 . S
O420 C424 1.278 . S
C421 O422 1.203 . S
C421 O428 1.267 . S
O422 C421 1.203 . S
O423 C416 1.185 . S
O423 Zn419 2.086 . S
C424 O420 1.278 . S
C424 O425 1.211 . S
O425 C424 1.211 . S
C426 O418 1.284 . S
C426 O427 1.273 . S
O427 C426 1.273 . S
O428 Zn419 1.977 . S
O428 C421 1.267 . S
C429 O430 1.160 . S
C429 O436 1.185 . S
O430 C429 1.160 . S
O431 Zn432 1.899 . S
O431 C439 1.284 . S
Zn432 O431 1.899 . S
Zn432 O433 2.032 . S
Zn432 O436 2.086 . S
Zn432 O441 1.977 . S
O433 Zn432 2.032 . S
O433 C437 1.278 . S
C434 O435 1.203 . S
C434 O441 1.267 . S
O435 C434 1.203 . S
O436 C429 1.185 . S
O436 Zn432 2.086 . S
C437 O433 1.278 . S
C437 O438 1.211 . S
O438 C437 1.211 . S
C439 O431 1.284 . S
C439 O440 1.273 . S
O440 C439 1.273 . S
O441 Zn432 1.977 . S
O441 C434 1.267 . S
C442 O443 1.160 . S
C442 O449 1.185 . S
O443 C442 1.160 . S
O444 Zn445 1.899 . S
O444 C452 1.284 . S
Zn445 O444 1.899 . S
Zn445 O446 2.032 . S
Zn445 O449 2.086 . S
Zn445 O454 1.977 . S
O446 Zn445 2.032 . S
O446 C450 1.278 . S
C447 O448 1.203 . S
C447 O454 1.267 . S
O448 C447 1.203 . S
O449 C442 1.185 . S
O449 Zn445 2.086 . S
C450 O446 1.278 . S
C450 O451 1.211 . S
O451 C450 1.211 . S
C452 O444 1.284 . S
C452 O453 1.273 . S
O453 C452 1.273 . S
O454 Zn445 1.977 . S
O454 C447 1.267 . S
C455 O456 1.160 . S
C455 O462 1.185 . S
O456 C455 1.160 . S
O457 Zn458 1.899 . S
O457 C465 1.284 . S
Zn458 O457 1.899 . S
Zn458 O459 2.032 . S
Zn458 O462 2.086 . S
Zn458 O467 1.977 . S
O459 Zn458 2.032 . S
O459 C463 1.278 . S
C460 O461 1.203 . S
C460 O467 1.267 . S
O461 C460 1.203 . S
O462 C455 1.185 . S
O462 Zn458 2.086 . S
C463 O459 1.278 . S
C463 O464 1.211 . S
O464 C463 1.211 . S
C465 O457 1.284 . S
C465 O466 1.273 . S
O466 C465 1.273 . S
O467 Zn458 1.977 . S
O467 C460 1.267 . S
C468 O469 1.160 . S
C468 O475 1.185 . S
O469 C468 1.160 . S
O470 Zn471 1.899 . S
O470 C478 1.284 . S
Zn471 O470 1.899 . S
Zn471 O472 2.032 . S
Zn471 O475 2.086 . S
Zn471 O480 1.977 . S
O472 Zn471 2.032 . S
O472 C476 1.278 . S
C473 O474 1.203 . S
C473 O480 1.267 . S
O474 C473 1.203 . S
O475 C468 1.185 . S
O475 Zn471 2.086 . S
C476 O472 1.278 . S
C476 O477 1.211 . S
O477 C476 1.211 . S
C478 O470 1.284 . S
C478 O479 1.273 . S
O479 C478 1.273 . S
O480 Zn471 1.977 . S
O480 C473 1.267 . S
C481 O482 1.160 . S
C481 O488 1.185 . S
O482 C481 1.160 . S
O483 Zn484 1.899 . S
O483 C491 1.284 . S
Zn484 O483 1.899 . S
Zn484 O485 2.032 . S
Zn484 O488 2.086 . S
Zn484 O493 1.977 . S
O485 Zn484 2.032 . S
O485 C489 1.278 . S
C486 O487 1.203 . S
C486 O493 1.267 . S
O487 C486 1.203 . S
O488 C481 1.185 . S
O488 Zn484 2.086 . S
C489 O485 1.278 . S
C489 O490 1.211 . S
O490 C489 1.211 . S
C491 O483 1.284 . S
C491 O492 1.273 . S
O492 C491 1.273 . S
O493 Zn484 1.977 . S
O493 C486 1.267 . S
C494 O495 1.160 . S
C494 O501 1.185 . S
O495 C494 1.160 . S
O496 Zn497 1.899 . S
O496 C504 1.284 . S
Zn497 O496 1.899 . S
Zn497 O498 2.032 . S
Zn497 O501 2.086 . S
Zn497 O506 1.977 . S
O498 Zn497 2.032 . S
O498 C502 1.278 . S
C499 O500 1.203 . S
C499 O506 1.267 . S
O500 C499 1.203 . S
O501 C494 1.185 . S
O501 Zn497 2.086 . S
C502 O498 1.278 . S
C502 O503 1.211 . S
O503 C502 1.211 . S
C504 O496 1.284 . S
C504 O505 1.273 . S
O505 C504 1.273 . S
O506 Zn497 1.977 . S
O506 C499 1.267 . S
C507 O508 1.160 . S
C507 O514 1.185 . S
O508 C507 1.160 . S
O509 Zn510 1.899 . S
O509 C517 1.284 . S
Zn510 O509 1.899 . S
Zn510 O511 2.032 . S
Zn510 O514 2.086 . S
Zn510 O519 1.977 . S
O511 Zn510 2.032 . S
O511 C515 1.278 . S
C512 O513 1.203 . S
C512 O519 1.267 . S
O513 C512 1.203 . S
O514 C507 1.185 . S
O514 Zn510 2.086 . S
C515 O511 1.278 . S
C515 O516 1.211 . S
O516 C515 1.211 . S
C517 O509 1.284 . S
C517 O518 1.273 . S
O518 C517 1.273 . S
O519 Zn510 1.977 . S
O519 C512 1.267 . S
C520 O521 1.160 . S
C520 O527 1.185 . S
O521 C520 1.160 . S
O522 Zn523 1.899 . S
O522 C530 1.284 . S
Zn523 O522 1.899 . S
Zn523 O524 2.032 . S
Zn523 O527 2.086 . S
Zn523 O532 1.977 . S
O524 Zn523 2.032 . S
O524 C528 1.278 . S
C525 O526 1.203 . S
C525 O532 1.267 . S
O526 C525 1.203 . S
O527 C520 1.185 . S
O527 Zn523 2.086 . S
C528 O524 1.278 . S
C528 O529 1.211 . S
O529 C528 1.211 . S
C530 O522 1.284 . S
C530 O531 1.273 . S
O531 C530 1.273 . S
O532 Zn523 1.977 . S
O532 C525 1.267 . S
C533 O534 1.160 . S
C533 O540 1.185 . S
O534 C533 1.160 . S
O535 Zn536 1.899 . S
O535 C543 1.284 . S
Zn536 O535 1.899 . S
Zn536 O537 2.032 . S
Zn536 O540 2.086 . S
Zn536 O545 1.977 . S
O537 Zn536 2.032 . S
O537 C541 1.278 . S
C538 O539 1.203 . S
C538 O545 1.267 . S
O539 C538 1.203 . S
O540 C533 1.185 . S
O540 Zn536 2.086 . S
C541 O537 1.278 . S
C541 O542 1.211 . S
O542 C541 1.211 . S
C543 O535 1.284 . S
C543 O544 1.273 . S
O544 C543 1.273 . S
O545 Zn536 1.977 . S
O545 C538 1.267 . S
C546 O547 1.160 . S
C546 O553 1.185 . S
O547 C546 1.160 . S
O548 Zn549 1.899 . S
O548 C556 1.284 . S
Zn549 O548 1.899 . S
Zn549 O550 2.032 . S
Zn549 O553 2.086 . S
Zn549 O558 1.977 . S
O550 Zn549 2.032 . S
O550 C554 1.278 . S
C551 O552 1.203 . S
C551 O558 1.267 . S
O552 C551 1.203 . S
O553 C546 1.185 . S
O553 Zn549 2.086 . S
C554 O550 1.278 . S
C554 O555 1.211 . S
O555 C554 1.211 . S
C556 O548 1.284 . S
C556 O557 1.273 . S
O557 C556 1.273 . S
O558 Zn549 1.977 . S
O558 C551 1.267 . S
C559 O560 1.160 . S
C559 O566 1.185 . S
O560 C559 1.160 . S
O561 Zn562 1.899 . S
O561 C569 1.284 . S
Zn562 O561 1.899 . S
Zn562 O563 2.032 . S
Zn562 O566 2.086 . S
Zn562 O571 1.977 . S
O563 Zn562 2.032 . S
O563 C567 1.278 . S
C564 O565 1.203 . S
C564 O571 1.267 . S
O565 C564 1.203 . S
O566 C559 1.185 . S
O566 Zn562 2.086 . S
C567 O563 1.278 . S
C567 O568 1.211 . S
O568 C567 1.211 . S
C569 O561 1.284 . S
C569 O570 1.273 . S
O570 C569 1.273 . S
O571 Zn562 1.977 . S
O571 C564 1.267 . S
C572 O573 1.160 . S
C572 O579 1.185 . S
O573 C572 1.160 . S
O574 Zn575 1.899 . S
O574 C582 1.284 . S
Zn575 O574 1.899 . S
Zn575 O576 2.032 . S
Zn575 O579 2.086 . S
Zn575 O584 1.977 . S
O576 Zn575 2.032 . S
O576 C580 1.278 . S
C577 O578 1.203 . S
C577 O584 1.267 . S
O578 C577 1.203 . S
O579 C572 1.185 . S
O579 Zn575 2.086 . S
C580 O576 1.278 . S
C580 O581 1.211 . S
O581 C580 1.211 . S
C582 O574 1.284 . S
C582 O583 1.273 . S
O583 C582 1.273 . S
O584 Zn575 1.977 . S
O584 C577 1.267 . S
C585 O586 1.160 . S
C585 O592 1.185 . S
O586 C585 1.160 . S
O587 Zn588 1.899 . S
O587 C595 1.284 . S
Zn588 O587 1.899 . S
Zn588 O589 2.032 . S
Zn588 O592 2.086 . S
Zn588 O597 1.977 . S
O589 Zn588 2.032 . S
O589 C593 1.278 . S
C590 O591 1.203 . S
C590 O597 1.267 . S
O591 C590 1.203 . S
O592 C585 1.185 . S
O592 Zn588 2.086 . S
C593 O589 1.278 . S
C593 O594 1.211 . S
O594 C593 1.211 . S
C595 O587 1.284 . S
C595 O596 1.273 . S
O596 C595 1.273 . S
O597 Zn588 1.977 . S
O597 C590 1.267 . S
C598 O599 1.160 . S
C598 O605 1.185 . S
O599 C598 1.160 . S
O600 Zn601 1.899 . S
O600 C608 1.284 . S
Zn601 O600 1.899 . S
Zn601 O602 2.032 . S
Zn601 O605 2.086 . S
Zn601 O610 1.977 . S
O602 Zn601 2.032 . S
O602 C606 1.278 . S
C603 O604 1.203 . S
C603 O610 1.267 . S
O604 C603 1.203 . S
O605 C598 1.185 . S
O605 Zn601 2.086 . S
C606 O602 1.278 . S
C606 O607 1.211 . S
O607 C606 1.211 . S
C608 O600 1.284 . S
C608 O609 1.273 . S
O609 C608 1.273 . S
O610 Zn601 1.977 . S
O610 C603 1.267 . S
C611 O612 1.160 . S
C611 O618 1.185 . S
O612 C611 1.160 . S
O613 Zn614 1.899 . S
O613 C621 1.284 . S
Zn614 O613 1.899 . S
Zn614 O615 2.032 . S
Zn614 O618 2.086 . S
Zn614 O623 1.977 . S
O615 Zn614 2.032 . S
O615 C619 1.278 . S
C616 O617 1.203 . S
C616 O623 1.267 . S
O617 C616 1.203 . S
O618 C611 1.185 . S
O618 Zn614 2.086 . S
C619 O615 1.278 . S
C619 O620 1.211 . S
O620 C619 1.211 . S
C621 O613 1.284 . S
C621 O622 1.273 . S
O622 C621 1.273 . S
O623 Zn614 1.977 . S
O623 C616 1.267 . S
H624 C630 0.930 . S
H625 C634 0.930 . S
H626 C639 0.929 . S
H627 C637 0.929 . S
H628 C632 0.929 . S
H629 C638 0.929 . S
C630 H624 0.930 . S
C630 C631 1.367 . S
C630 C638 1.378 . S
C631 C630 1.367 . S
C631 C639 1.433 . S
C632 H628 0.929 . S
C632 C634 1.378 . S
C632 C636 1.350 . S
C633 C636 1.463 . S
C633 C638 1.350 . S
C633 N641 1.427 . S
C634 H625 0.930 . S
C634 C632 1.378 . S
C634 C635 1.367 . S
C635 C634 1.367 . S
C635 C637 1.433 . S
C636 C632 1.350 . S
C636 C633 1.463 . S
C636 N640 1.427 . S
C637 H627 0.929 . S
C637 C635 1.433 . S
C637 N640 1.384 . S
C638 H629 0.929 . S
C638 C630 1.378 . S
C638 C633 1.350 . S
C639 H626 0.929 . S
C639 C631 1.433 . S
C639 N641 1.384 . S
N640 C636 1.427 . S
N640 C637 1.384 . S
N641 C633 1.427 . S
N641 C639 1.384 . S
H642 C648 0.930 . S
H643 C652 0.930 . S
H644 C657 0.929 . S
H645 C655 0.929 . S
H646 C650 0.929 . S
H647 C656 0.929 . S
C648 H642 0.930 . S
C648 C649 1.367 . S
C648 C656 1.378 . S
C649 C648 1.367 . S
C649 C657 1.433 . S
C650 H646 0.929 . S
C650 C652 1.378 . S
C650 C654 1.350 . S
C651 C654 1.463 . S
C651 C656 1.350 . S
C651 N659 1.427 . S
C652 H643 0.930 . S
C652 C650 1.378 . S
C652 C653 1.367 . S
C653 C652 1.367 . S
C653 C655 1.433 . S
C654 C650 1.350 . S
C654 C651 1.463 . S
C654 N658 1.427 . S
C655 H645 0.929 . S
C655 C653 1.433 . S
C655 N658 1.384 . S
C656 H647 0.929 . S
C656 C648 1.378 . S
C656 C651 1.350 . S
C657 H644 0.929 . S
C657 C649 1.433 . S
C657 N659 1.384 . S
N658 C654 1.427 . S
N658 C655 1.384 . S
N659 C651 1.427 . S
N659 C657 1.384 . S
H660 C666 0.930 . S
H661 C670 0.930 . S
H662 C675 0.929 . S
H663 C673 0.929 . S
H664 C668 0.929 . S
H665 C674 0.929 . S
C666 H660 0.930 . S
C666 C667 1.367 . S
C666 C674 1.378 . S
C667 C666 1.367 . S
C667 C675 1.433 . S
C668 H664 0.929 . S
C668 C670 1.378 . S
C668 C672 1.350 . S
C669 C672 1.463 . S
C669 C674 1.350 . S
C669 N677 1.427 . S
C670 H661 0.930 . S
C670 C668 1.378 . S
C670 C671 1.367 . S
C671 C670 1.367 . S
C671 C673 1.433 . S
C672 C668 1.350 . S
C672 C669 1.463 . S
C672 N676 1.427 . S
C673 H663 0.929 . S
C673 C671 1.433 . S
C673 N676 1.384 . S
C674 H665 0.929 . S
C674 C666 1.378 . S
C674 C669 1.350 . S
C675 H662 0.929 . S
C675 C667 1.433 . S
C675 N677 1.384 . S
N676 C672 1.427 . S
N676 C673 1.384 . S
N677 C669 1.427 . S
N677 C675 1.384 . S
H678 C684 0.930 . S
H679 C688 0.930 . S
H680 C693 0.929 . S
H681 C691 0.929 . S
H682 C686 0.929 . S
H683 C692 0.929 . S
C684 H678 0.930 . S
C684 C685 1.367 . S
C684 C692 1.378 . S
C685 C684 1.367 . S
C685 C693 1.433 . S
C686 H682 0.929 . S
C686 C688 1.378 . S
C686 C690 1.350 . S
C687 C690 1.463 . S
C687 C692 1.350 . S
C687 N695 1.427 . S
C688 H679 0.930 . S
C688 C686 1.378 . S
C688 C689 1.367 . S
C689 C688 1.367 . S
C689 C691 1.433 . S
C690 C686 1.350 . S
C690 C687 1.463 . S
C690 N694 1.427 . S
C691 H681 0.929 . S
C691 C689 1.433 . S
C691 N694 1.384 . S
C692 H683 0.929 . S
C692 C684 1.378 . S
C692 C687 1.350 . S
C693 H680 0.929 . S
C693 C685 1.433 . S
C693 N695 1.384 . S
N694 C690 1.427 . S
N694 C691 1.384 . S
N695 C687 1.427 . S
N695 C693 1.384 . S
H696 C702 0.930 . S
H697 C706 0.930 . S
H698 C711 0.929 . S
H699 C709 0.929 . S
H700 C704 0.929 . S
H701 C710 0.929 . S
C702 H696 0.930 . S
C702 C703 1.367 . S
C702 C710 1.378 . S
C703 C702 1.367 . S
C703 C711 1.433 . S
C704 H700 0.929 . S
C704 C706 1.378 . S
C704 C708 1.350 . S
C705 C708 1.463 . S
C705 C710 1.350 . S
C705 N713 1.427 . S
C706 H697 0.930 . S
C706 C704 1.378 . S
C706 C707 1.367 . S
C707 C706 1.367 . S
C707 C709 1.433 . S
C708 C704 1.350 . S
C708 C705 1.463 . S
C708 N712 1.427 . S
C709 H699 0.929 . S
C709 C707 1.433 . S
C709 N712 1.384 . S
C710 H701 0.929 . S
C710 C702 1.378 . S
C710 C705 1.350 . S
C711 H698 0.929 . S
C711 C703 1.433 . S
C711 N713 1.384 . S
N712 C708 1.427 . S
N712 C709 1.384 . S
N713 C705 1.427 . S
N713 C711 1.384 . S
H714 C720 0.930 . S
H715 C724 0.930 . S
H716 C729 0.929 . S
H717 C727 0.929 . S
H718 C722 0.929 . S
H719 C728 0.929 . S
C720 H714 0.930 . S
C720 C721 1.367 . S
C720 C728 1.378 . S
C721 C720 1.367 . S
C721 C729 1.433 . S
C722 H718 0.929 . S
C722 C724 1.378 . S
C722 C726 1.350 . S
C723 C726 1.463 . S
C723 C728 1.350 . S
C723 N731 1.427 . S
C724 H715 0.930 . S
C724 C722 1.378 . S
C724 C725 1.367 . S
C725 C724 1.367 . S
C725 C727 1.433 . S
C726 C722 1.350 . S
C726 C723 1.463 . S
C726 N730 1.427 . S
C727 H717 0.929 . S
C727 C725 1.433 . S
C727 N730 1.384 . S
C728 H719 0.929 . S
C728 C720 1.378 . S
C728 C723 1.350 . S
C729 H716 0.929 . S
C729 C721 1.433 . S
C729 N731 1.384 . S
N730 C726 1.427 . S
N730 C727 1.384 . S
N731 C723 1.427 . S
N731 C729 1.384 . S
H732 C738 0.930 . S
H733 C742 0.930 . S
H734 C747 0.929 . S
H735 C745 0.929 . S
H736 C740 0.929 . S
H737 C746 0.929 . S
C738 H732 0.930 . S
C738 C739 1.367 . S
C738 C746 1.378 . S
C739 C738 1.367 . S
C739 C747 1.433 . S
C740 H736 0.929 . S
C740 C742 1.378 . S
C740 C744 1.350 . S
C741 C744 1.463 . S
C741 C746 1.350 . S
C741 N749 1.427 . S
C742 H733 0.930 . S
C742 C740 1.378 . S
C742 C743 1.367 . S
C743 C742 1.367 . S
C743 C745 1.433 . S
C744 C740 1.350 . S
C744 C741 1.463 . S
C744 N748 1.427 . S
C745 H735 0.929 . S
C745 C743 1.433 . S
C745 N748 1.384 . S
C746 H737 0.929 . S
C746 C738 1.378 . S
C746 C741 1.350 . S
C747 H734 0.929 . S
C747 C739 1.433 . S
C747 N749 1.384 . S
N748 C744 1.427 . S
N748 C745 1.384 . S
N749 C741 1.427 . S
N749 C747 1.384 . S
H750 C756 0.930 . S
H751 C760 0.930 . S
H752 C765 0.929 . S
H753 C763 0.929 . S
H754 C758 0.929 . S
H755 C764 0.929 . S
C756 H750 0.930 . S
C756 C757 1.367 . S
C756 C764 1.378 . S
C757 C756 1.367 . S
C757 C765 1.433 . S
C758 H754 0.929 . S
C758 C760 1.378 . S
C758 C762 1.350 . S
C759 C762 1.463 . S
C759 C764 1.350 . S
C759 N767 1.427 . S
C760 H751 0.930 . S
C760 C758 1.378 . S
C760 C761 1.367 . S
C761 C760 1.367 . S
C761 C763 1.433 . S
C762 C758 1.350 . S
C762 C759 1.463 . S
C762 N766 1.427 . S
C763 H753 0.929 . S
C763 C761 1.433 . S
C763 N766 1.384 . S
C764 H755 0.929 . S
C764 C756 1.378 . S
C764 C759 1.350 . S
C765 H752 0.929 . S
C765 C757 1.433 . S
C765 N767 1.384 . S
N766 C762 1.427 . S
N766 C763 1.384 . S
N767 C759 1.427 . S
N767 C765 1.384 . S
H768 C774 0.930 . S
H769 C778 0.930 . S
H770 C783 0.929 . S
H771 C781 0.929 . S
H772 C776 0.929 . S
H773 C782 0.929 . S
C774 H768 0.930 . S
C774 C775 1.367 . S
C774 C782 1.378 . S
C775 C774 1.367 . S
C775 C783 1.433 . S
C776 H772 0.929 . S
C776 C778 1.378 . S
C776 C780 1.350 . S
C777 C780 1.463 . S
C777 C782 1.350 . S
C777 N785 1.427 . S
C778 H769 0.930 . S
C778 C776 1.378 . S
C778 C779 1.367 . S
C779 C778 1.367 . S
C779 C781 1.433 . S
C780 C776 1.350 . S
C780 C777 1.463 . S
C780 N784 1.427 . S
C781 H771 0.929 . S
C781 C779 1.433 . S
C781 N784 1.384 . S
C782 H773 0.929 . S
C782 C774 1.378 . S
C782 C777 1.350 . S
C783 H770 0.929 . S
C783 C775 1.433 . S
C783 N785 1.384 . S
N784 C780 1.427 . S
N784 C781 1.384 . S
N785 C777 1.427 . S
N785 C783 1.384 . S
H786 C792 0.930 . S
H787 C796 0.930 . S
H788 C801 0.929 . S
H789 C799 0.929 . S
H790 C794 0.929 . S
H791 C800 0.929 . S
C792 H786 0.930 . S
C792 C793 1.367 . S
C792 C800 1.378 . S
C793 C792 1.367 . S
C793 C801 1.433 . S
C794 H790 0.929 . S
C794 C796 1.378 . S
C794 C798 1.350 . S
C795 C798 1.463 . S
C795 C800 1.350 . S
C795 N803 1.427 . S
C796 H787 0.930 . S
C796 C794 1.378 . S
C796 C797 1.367 . S
C797 C796 1.367 . S
C797 C799 1.433 . S
C798 C794 1.350 . S
C798 C795 1.463 . S
C798 N802 1.427 . S
C799 H789 0.929 . S
C799 C797 1.433 . S
C799 N802 1.384 . S
C800 H791 0.929 . S
C800 C792 1.378 . S
C800 C795 1.350 . S
C801 H788 0.929 . S
C801 C793 1.433 . S
C801 N803 1.384 . S
N802 C798 1.427 . S
N802 C799 1.384 . S
N803 C795 1.427 . S
N803 C801 1.384 . S
H804 C810 0.930 . S
H805 C814 0.930 . S
H806 C819 0.929 . S
H807 C817 0.929 . S
H808 C812 0.929 . S
H809 C818 0.929 . S
C810 H804 0.930 . S
C810 C811 1.367 . S
C810 C818 1.378 . S
C811 C810 1.367 . S
C811 C819 1.433 . S
C812 H808 0.929 . S
C812 C814 1.378 . S
C812 C816 1.350 . S
C813 C816 1.463 . S
C813 C818 1.350 . S
C813 N821 1.427 . S
C814 H805 0.930 . S
C814 C812 1.378 . S
C814 C815 1.367 . S
C815 C814 1.367 . S
C815 C817 1.433 . S
C816 C812 1.350 . S
C816 C813 1.463 . S
C816 N820 1.427 . S
C817 H807 0.929 . S
C817 C815 1.433 . S
C817 N820 1.384 . S
C818 H809 0.929 . S
C818 C810 1.378 . S
C818 C813 1.350 . S
C819 H806 0.929 . S
C819 C811 1.433 . S
C819 N821 1.384 . S
N820 C816 1.427 . S
N820 C817 1.384 . S
N821 C813 1.427 . S
N821 C819 1.384 . S
H822 C828 0.930 . S
H823 C832 0.930 . S
H824 C837 0.929 . S
H825 C835 0.929 . S
H826 C830 0.929 . S
H827 C836 0.929 . S
C828 H822 0.930 . S
C828 C829 1.367 . S
C828 C836 1.378 . S
C829 C828 1.367 . S
C829 C837 1.433 . S
C830 H826 0.929 . S
C830 C832 1.378 . S
C830 C834 1.350 . S
C831 C834 1.463 . S
C831 C836 1.350 . S
C831 N839 1.427 . S
C832 H823 0.930 . S
C832 C830 1.378 . S
C832 C833 1.367 . S
C833 C832 1.367 . S
C833 C835 1.433 . S
C834 C830 1.350 . S
C834 C831 1.463 . S
C834 N838 1.427 . S
C835 H825 0.929 . S
C835 C833 1.433 . S
C835 N838 1.384 . S
C836 H827 0.929 . S
C836 C828 1.378 . S
C836 C831 1.350 . S
C837 H824 0.929 . S
C837 C829 1.433 . S
C837 N839 1.384 . S
N838 C834 1.427 . S
N838 C835 1.384 . S
N839 C831 1.427 . S
N839 C837 1.384 . S
H840 C846 0.930 . S
H841 C850 0.930 . S
H842 C855 0.929 . S
H843 C853 0.929 . S
H844 C848 0.929 . S
H845 C854 0.929 . S
C846 H840 0.930 . S
C846 C847 1.367 . S
C846 C854 1.378 . S
C847 C846 1.367 . S
C847 C855 1.433 . S
C848 H844 0.929 . S
C848 C850 1.378 . S
C848 C852 1.350 . S
C849 C852 1.463 . S
C849 C854 1.350 . S
C849 N857 1.427 . S
C850 H841 0.930 . S
C850 C848 1.378 . S
C850 C851 1.367 . S
C851 C850 1.367 . S
C851 C853 1.433 . S
C852 C848 1.350 . S
C852 C849 1.463 . S
C852 N856 1.427 . S
C853 H843 0.929 . S
C853 C851 1.433 . S
C853 N856 1.384 . S
C854 H845 0.929 . S
C854 C846 1.378 . S
C854 C849 1.350 . S
C855 H842 0.929 . S
C855 C847 1.433 . S
C855 N857 1.384 . S
N856 C852 1.427 . S
N856 C853 1.384 . S
N857 C849 1.427 . S
N857 C855 1.384 . S
H858 C864 0.930 . S
H859 C868 0.930 . S
H860 C873 0.929 . S
H861 C871 0.929 . S
H862 C866 0.929 . S
H863 C872 0.929 . S
C864 H858 0.930 . S
C864 C865 1.367 . S
C864 C872 1.378 . S
C865 C864 1.367 . S
C865 C873 1.433 . S
C866 H862 0.929 . S
C866 C868 1.378 . S
C866 C870 1.350 . S
C867 C870 1.463 . S
C867 C872 1.350 . S
C867 N875 1.427 . S
C868 H859 0.930 . S
C868 C866 1.378 . S
C868 C869 1.367 . S
C869 C868 1.367 . S
C869 C871 1.433 . S
C870 C866 1.350 . S
C870 C867 1.463 . S
C870 N874 1.427 . S
C871 H861 0.929 . S
C871 C869 1.433 . S
C871 N874 1.384 . S
C872 H863 0.929 . S
C872 C864 1.378 . S
C872 C867 1.350 . S
C873 H860 0.929 . S
C873 C865 1.433 . S
C873 N875 1.384 . S
N874 C870 1.427 . S
N874 C871 1.384 . S
N875 C867 1.427 . S
N875 C873 1.384 . S
H876 C882 0.930 . S
H877 C886 0.930 . S
H878 C891 0.929 . S
H879 C889 0.929 . S
H880 C884 0.929 . S
H881 C890 0.929 . S
C882 H876 0.930 . S
C882 C883 1.367 . S
C882 C890 1.378 . S
C883 C882 1.367 . S
C883 C891 1.433 . S
C884 H880 0.929 . S
C884 C886 1.378 . S
C884 C888 1.350 . S
C885 C888 1.463 . S
C885 C890 1.350 . S
C885 N893 1.427 . S
C886 H877 0.930 . S
C886 C884 1.378 . S
C886 C887 1.367 . S
C887 C886 1.367 . S
C887 C889 1.433 . S
C888 C884 1.350 . S
C888 C885 1.463 . S
C888 N892 1.427 . S
C889 H879 0.929 . S
C889 C887 1.433 . S
C889 N892 1.384 . S
C890 H881 0.929 . S
C890 C882 1.378 . S
C890 C885 1.350 . S
C891 H878 0.929 . S
C891 C883 1.433 . S
C891 N893 1.384 . S
N892 C888 1.427 . S
N892 C889 1.384 . S
N893 C885 1.427 . S
N893 C891 1.384 . S
H894 C900 0.930 . S
H895 C904 0.930 . S
H896 C909 0.929 . S
H897 C907 0.929 . S
H898 C902 0.929 . S
H899 C908 0.929 . S
C900 H894 0.930 . S
C900 C901 1.367 . S
C900 C908 1.378 . S
C901 C900 1.367 . S
C901 C909 1.433 . S
C902 H898 0.929 . S
C902 C904 1.378 . S
C902 C906 1.350 . S
C903 C906 1.463 . S
C903 C908 1.350 . S
C903 N911 1.427 . S
C904 H895 0.930 . S
C904 C902 1.378 . S
C904 C905 1.367 . S
C905 C904 1.367 . S
C905 C907 1.433 . S
C906 C902 1.350 . S
C906 C903 1.463 . S
C906 N910 1.427 . S
C907 H897 0.929 . S
C907 C905 1.433 . S
C907 N910 1.384 . S
C908 H899 0.929 . S
C908 C900 1.378 . S
C908 C903 1.350 . S
C909 H896 0.929 . S
C909 C901 1.433 . S
C909 N911 1.384 . S
N910 C906 1.427 . S
N910 C907 1.384 . S
N911 C903 1.427 . S
N911 C909 1.384 . S
H912 C918 0.930 . S
H913 C922 0.930 . S
H914 C927 0.929 . S
H915 C925 0.929 . S
H916 C920 0.929 . S
H917 C926 0.929 . S
C918 H912 0.930 . S
C918 C919 1.367 . S
C918 C926 1.378 . S
C919 C918 1.367 . S
C919 C927 1.433 . S
C920 H916 0.929 . S
C920 C922 1.378 . S
C920 C924 1.350 . S
C921 C924 1.463 . S
C921 C926 1.350 . S
C921 N929 1.427 . S
C922 H913 0.930 . S
C922 C920 1.378 . S
C922 C923 1.367 . S
C923 C922 1.367 . S
C923 C925 1.433 . S
C924 C920 1.350 . S
C924 C921 1.463 . S
C924 N928 1.427 . S
C925 H915 0.929 . S
C925 C923 1.433 . S
C925 N928 1.384 . S
C926 H917 0.929 . S
C926 C918 1.378 . S
C926 C921 1.350 . S
C927 H914 0.929 . S
C927 C919 1.433 . S
C927 N929 1.384 . S
N928 C924 1.427 . S
N928 C925 1.384 . S
N929 C921 1.427 . S
N929 C927 1.384 . S
H930 C936 0.930 . S
H931 C940 0.930 . S
H932 C945 0.929 . S
H933 C943 0.929 . S
H934 C938 0.929 . S
H935 C944 0.929 . S
C936 H930 0.930 . S
C936 C937 1.367 . S
C936 C944 1.378 . S
C937 C936 1.367 . S
C937 C945 1.433 . S
C938 H934 0.929 . S
C938 C940 1.378 . S
C938 C942 1.350 . S
C939 C942 1.463 . S
C939 C944 1.350 . S
C939 N947 1.427 . S
C940 H931 0.930 . S
C940 C938 1.378 . S
C940 C941 1.367 . S
C941 C940 1.367 . S
C941 C943 1.433 . S
C942 C938 1.350 . S
C942 C939 1.463 . S
C942 N946 1.427 . S
C943 H933 0.929 . S
C943 C941 1.433 . S
C943 N946 1.384 . S
C944 H935 0.929 . S
C944 C936 1.378 . S
C944 C939 1.350 . S
C945 H932 0.929 . S
C945 C937 1.433 . S
C945 N947 1.384 . S
N946 C942 1.427 . S
N946 C943 1.384 . S
N947 C939 1.427 . S
N947 C945 1.384 . S
H948 C954 0.930 . S
H949 C958 0.930 . S
H950 C963 0.929 . S
H951 C961 0.929 . S
H952 C956 0.929 . S
H953 C962 0.929 . S
C954 H948 0.930 . S
C954 C955 1.367 . S
C954 C962 1.378 . S
C955 C954 1.367 . S
C955 C963 1.433 . S
C956 H952 0.929 . S
C956 C958 1.378 . S
C956 C960 1.350 . S
C957 C960 1.463 . S
C957 C962 1.350 . S
C957 N965 1.427 . S
C958 H949 0.930 . S
C958 C956 1.378 . S
C958 C959 1.367 . S
C959 C958 1.367 . S
C959 C961 1.433 . S
C960 C956 1.350 . S
C960 C957 1.463 . S
C960 N964 1.427 . S
C961 H951 0.929 . S
C961 C959 1.433 . S
C961 N964 1.384 . S
C962 H953 0.929 . S
C962 C954 1.378 . S
C962 C957 1.350 . S
C963 H950 0.929 . S
C963 C955 1.433 . S
C963 N965 1.384 . S
N964 C960 1.427 . S
N964 C961 1.384 . S
N965 C957 1.427 . S
N965 C963 1.384 . S
H966 C972 0.930 . S
H967 C976 0.930 . S
H968 C981 0.929 . S
H969 C979 0.929 . S
H970 C974 0.929 . S
H971 C980 0.929 . S
C972 H966 0.930 . S
C972 C973 1.367 . S
C972 C980 1.378 . S
C973 C972 1.367 . S
C973 C981 1.433 . S
C974 H970 0.929 . S
C974 C976 1.378 . S
C974 C978 1.350 . S
C975 C978 1.463 . S
C975 C980 1.350 . S
C975 N983 1.427 . S
C976 H967 0.930 . S
C976 C974 1.378 . S
C976 C977 1.367 . S
C977 C976 1.367 . S
C977 C979 1.433 . S
C978 C974 1.350 . S
C978 C975 1.463 . S
C978 N982 1.427 . S
C979 H969 0.929 . S
C979 C977 1.433 . S
C979 N982 1.384 . S
C980 H971 0.929 . S
C980 C972 1.378 . S
C980 C975 1.350 . S
C981 H968 0.929 . S
C981 C973 1.433 . S
C981 N983 1.384 . S
N982 C978 1.427 . S
N982 C979 1.384 . S
N983 C975 1.427 . S
N983 C981 1.384 . S
H984 C990 0.930 . S
H985 C994 0.930 . S
H986 C999 0.929 . S
H987 C997 0.929 . S
H988 C992 0.929 . S
H989 C998 0.929 . S
C990 H984 0.930 . S
C990 C991 1.367 . S
C990 C998 1.378 . S
C991 C990 1.367 . S
C991 C999 1.433 . S
C992 H988 0.929 . S
C992 C994 1.378 . S
C992 C996 1.350 . S
C993 C996 1.463 . S
C993 C998 1.350 . S
C993 N1001 1.427 . S
C994 H985 0.930 . S
C994 C992 1.378 . S
C994 C995 1.367 . S
C995 C994 1.367 . S
C995 C997 1.433 . S
C996 C992 1.350 . S
C996 C993 1.463 . S
C996 N1000 1.427 . S
C997 H987 0.929 . S
C997 C995 1.433 . S
C997 N1000 1.384 . S
C998 H989 0.929 . S
C998 C990 1.378 . S
C998 C993 1.350 . S
C999 H986 0.929 . S
C999 C991 1.433 . S
C999 N1001 1.384 . S
N1000 C996 1.427 . S
N1000 C997 1.384 . S
N1001 C993 1.427 . S
N1001 C999 1.384 . S
H1002 C1008 0.930 . S
H1003 C1012 0.930 . S
H1004 C1017 0.929 . S
H1005 C1015 0.929 . S
H1006 C1010 0.929 . S
H1007 C1016 0.929 . S
C1008 H1002 0.930 . S
C1008 C1009 1.367 . S
C1008 C1016 1.378 . S
C1009 C1008 1.367 . S
C1009 C1017 1.433 . S
C1010 H1006 0.929 . S
C1010 C1012 1.378 . S
C1010 C1014 1.350 . S
C1011 C1014 1.463 . S
C1011 C1016 1.350 . S
C1011 N1019 1.427 . S
C1012 H1003 0.930 . S
C1012 C1010 1.378 . S
C1012 C1013 1.367 . S
C1013 C1012 1.367 . S
C1013 C1015 1.433 . S
C1014 C1010 1.350 . S
C1014 C1011 1.463 . S
C1014 N1018 1.427 . S
C1015 H1005 0.929 . S
C1015 C1013 1.433 . S
C1015 N1018 1.384 . S
C1016 H1007 0.929 . S
C1016 C1008 1.378 . S
C1016 C1011 1.350 . S
C1017 H1004 0.929 . S
C1017 C1009 1.433 . S
C1017 N1019 1.384 . S
N1018 C1014 1.427 . S
N1018 C1015 1.384 . S
N1019 C1011 1.427 . S
N1019 C1017 1.384 . S
H1020 C1026 0.930 . S
H1021 C1030 0.930 . S
H1022 C1035 0.929 . S
H1023 C1033 0.929 . S
H1024 C1028 0.929 . S
H1025 C1034 0.929 . S
C1026 H1020 0.930 . S
C1026 C1027 1.367 . S
C1026 C1034 1.378 . S
C1027 C1026 1.367 . S
C1027 C1035 1.433 . S
C1028 H1024 0.929 . S
C1028 C1030 1.378 . S
C1028 C1032 1.350 . S
C1029 C1032 1.463 . S
C1029 C1034 1.350 . S
C1029 N1037 1.427 . S
C1030 H1021 0.930 . S
C1030 C1028 1.378 . S
C1030 C1031 1.367 . S
C1031 C1030 1.367 . S
C1031 C1033 1.433 . S
C1032 C1028 1.350 . S
C1032 C1029 1.463 . S
C1032 N1036 1.427 . S
C1033 H1023 0.929 . S
C1033 C1031 1.433 . S
C1033 N1036 1.384 . S
C1034 H1025 0.929 . S
C1034 C1026 1.378 . S
C1034 C1029 1.350 . S
C1035 H1022 0.929 . S
C1035 C1027 1.433 . S
C1035 N1037 1.384 . S
N1036 C1032 1.427 . S
N1036 C1033 1.384 . S
N1037 C1029 1.427 . S
N1037 C1035 1.384 . S
H1038 C1044 0.930 . S
H1039 C1048 0.930 . S
H1040 C1053 0.929 . S
H1041 C1051 0.929 . S
H1042 C1046 0.929 . S
H1043 C1052 0.929 . S
C1044 H1038 0.930 . S
C1044 C1045 1.367 . S
C1044 C1052 1.378 . S
C1045 C1044 1.367 . S
C1045 C1053 1.433 . S
C1046 H1042 0.929 . S
C1046 C1048 1.378 . S
C1046 C1050 1.350 . S
C1047 C1050 1.463 . S
C1047 C1052 1.350 . S
C1047 N1055 1.427 . S
C1048 H1039 0.930 . S
C1048 C1046 1.378 . S
C1048 C1049 1.367 . S
C1049 C1048 1.367 . S
C1049 C1051 1.433 . S
C1050 C1046 1.350 . S
C1050 C1047 1.463 . S
C1050 N1054 1.427 . S
C1051 H1041 0.929 . S
C1051 C1049 1.433 . S
C1051 N1054 1.384 . S
C1052 H1043 0.929 . S
C1052 C1044 1.378 . S
C1052 C1047 1.350 . S
C1053 H1040 0.929 . S
C1053 C1045 1.433 . S
C1053 N1055 1.384 . S
N1054 C1050 1.427 . S
N1054 C1051 1.384 . S
N1055 C1047 1.427 . S
N1055 C1053 1.384 . S
H1056 C1062 0.930 . S
H1057 C1066 0.930 . S
H1058 C1071 0.929 . S
H1059 C1069 0.929 . S
H1060 C1064 0.929 . S
H1061 C1070 0.929 . S
C1062 H1056 0.930 . S
C1062 C1063 1.367 . S
C1062 C1070 1.378 . S
C1063 C1062 1.367 . S
C1063 C1071 1.433 . S
C1064 H1060 0.929 . S
C1064 C1066 1.378 . S
C1064 C1068 1.350 . S
C1065 C1068 1.463 1_655 S
C1065 C1070 1.350 . S
C1065 N1073 1.431 . S
C1066 H1057 0.930 . S
C1066 C1064 1.378 . S
C1066 C1067 1.367 . S
C1067 C1066 1.367 . S
C1067 C1069 1.433 . S
C1068 C1064 1.350 . S
C1068 C1065 1.463 1_455 S
C1068 N1072 1.431 . S
C1069 H1059 0.929 . S
C1069 C1067 1.433 . S
C1069 N1072 1.392 . S
C1070 H1061 0.929 . S
C1070 C1062 1.378 . S
C1070 C1065 1.350 . S
C1071 H1058 0.929 . S
C1071 C1063 1.433 . S
C1071 N1073 1.392 . S
N1072 C1068 1.431 . S
N1072 C1069 1.392 . S
N1073 C1065 1.431 . S
N1073 C1071 1.392 . S
H1074 C1080 0.930 . S
H1075 C1084 0.930 . S
H1076 C1089 0.929 . S
H1077 C1087 0.929 . S
H1078 C1082 0.929 . S
H1079 C1088 0.929 . S
C1080 H1074 0.930 . S
C1080 C1081 1.367 . S
C1080 C1088 1.378 . S
C1081 C1080 1.367 . S
C1081 C1089 1.433 1_565 S
C1082 H1078 0.929 . S
C1082 C1084 1.378 . S
C1082 C1086 1.305 1_545 S
C1083 C1086 1.479 . S
C1083 C1088 1.350 . S
C1083 N1091 1.427 1_565 S
C1084 H1075 0.930 . S
C1084 C1082 1.378 . S
C1084 C1085 1.367 . S
C1085 C1084 1.367 . S
C1085 C1087 1.433 1_545 S
C1086 C1082 1.305 1_565 S
C1086 C1083 1.479 . S
C1086 N1090 1.461 . S
C1087 H1077 0.929 . S
C1087 C1085 1.433 1_565 S
C1087 N1090 1.384 . S
C1088 H1079 0.929 . S
C1088 C1080 1.378 . S
C1088 C1083 1.350 . S
C1089 H1076 0.929 . S
C1089 C1081 1.433 1_545 S
C1089 N1091 1.384 . S
N1090 C1086 1.461 . S
N1090 C1087 1.384 . S
N1091 C1083 1.427 1_545 S
N1091 C1089 1.384 . S
H1092 C1098 0.930 . S
H1093 C1102 0.930 . S
H1094 C1107 0.929 . S
H1095 C1105 0.929 . S
H1096 C1100 0.929 . S
H1097 C1106 0.929 . S
C1098 H1092 0.930 . S
C1098 C1099 1.367 1_455 S
C1098 C1106 1.378 . S
C1099 C1098 1.367 1_655 S
C1099 C1107 1.433 . S
C1100 H1096 0.929 . S
C1100 C1102 1.378 . S
C1100 C1104 1.350 1_655 S
C1101 C1104 1.463 1_655 S
C1101 C1106 1.350 1_655 S
C1101 N1109 1.427 . S
C1102 H1093 0.930 . S
C1102 C1100 1.378 . S
C1102 C1103 1.367 1_655 S
C1103 C1102 1.367 1_455 S
C1103 C1105 1.433 . S
C1104 C1100 1.350 1_455 S
C1104 C1101 1.463 1_455 S
C1104 N1108 1.427 . S
C1105 H1095 0.929 . S
C1105 C1103 1.433 . S
C1105 N1108 1.384 . S
C1106 H1097 0.929 . S
C1106 C1098 1.378 . S
C1106 C1101 1.350 1_455 S
C1107 H1094 0.929 . S
C1107 C1099 1.433 . S
C1107 N1109 1.384 . S
N1108 C1104 1.427 . S
N1108 C1105 1.384 . S
N1109 C1101 1.427 . S
N1109 C1107 1.384 . S
H1110 C1116 0.930 . S
H1111 C1120 0.930 . S
H1112 C1125 0.900 1_565 S
H1113 C1123 0.929 . S
H1114 C1118 0.929 . S
H1115 C1124 0.929 . S
C1116 H1110 0.930 . S
C1116 C1117 1.367 . S
C1116 C1124 1.378 . S
C1117 C1116 1.367 . S
C1117 C1125 1.480 . S
C1118 H1114 0.929 . S
C1118 C1120 1.378 . S
C1118 C1122 1.306 1_565 S
C1119 C1122 1.480 . S
C1119 C1124 1.350 . S
C1119 N1127 1.427 1_545 S
C1120 H1111 0.930 . S
C1120 C1118 1.378 . S
C1120 C1121 1.367 . S
C1121 C1120 1.367 . S
C1121 C1123 1.433 1_565 S
C1122 C1118 1.306 1_545 S
C1122 C1119 1.480 . S
C1122 N1126 1.459 . S
C1123 H1113 0.929 . S
C1123 C1121 1.433 1_545 S
C1123 N1126 1.384 . S
C1124 H1115 0.929 . S
C1124 C1116 1.378 . S
C1124 C1119 1.350 . S
C1125 H1112 0.900 1_545 S
C1125 C1117 1.480 . S
C1125 N1127 1.370 1_545 S
N1126 C1122 1.459 . S
N1126 C1123 1.384 . S
N1127 C1119 1.427 1_565 S
N1127 C1125 1.370 1_565 S
H1128 C1134 0.930 . S
H1129 C1138 0.930 . S
H1130 C1143 0.929 . S
H1131 C1141 0.929 . S
H1132 C1136 0.929 . S
H1133 C1142 0.929 . S
C1134 H1128 0.930 . S
C1134 C1135 1.367 . S
C1134 C1142 1.378 . S
C1135 C1134 1.367 . S
C1135 C1143 1.433 . S
C1136 H1132 0.929 . S
C1136 C1138 1.378 . S
C1136 C1140 1.350 . S
C1137 C1140 1.463 1_455 S
C1137 C1142 1.350 . S
C1137 N1145 1.424 1_455 S
C1138 H1129 0.930 . S
C1138 C1136 1.378 . S
C1138 C1139 1.367 . S
C1139 C1138 1.367 . S
C1139 C1141 1.433 . S
C1140 C1136 1.350 . S
C1140 C1137 1.463 1_655 S
C1140 N1144 1.424 1_655 S
C1141 H1131 0.929 . S
C1141 C1139 1.433 . S
C1141 N1144 1.379 1_655 S
C1142 H1133 0.929 . S
C1142 C1134 1.378 . S
C1142 C1137 1.350 . S
C1143 H1130 0.929 . S
C1143 C1135 1.433 . S
C1143 N1145 1.379 1_455 S
N1144 C1140 1.424 1_455 S
N1144 C1141 1.379 1_455 S
N1145 C1137 1.424 1_655 S
N1145 C1143 1.379 1_655 S
H1146 C1152 0.930 1_545 S
H1147 C1156 0.930 . S
H1148 C1161 0.929 . S
H1149 C1159 0.929 . S
H1150 C1154 0.929 . S
H1151 C1160 0.929 . S
C1152 H1146 0.930 1_565 S
C1152 C1153 1.367 . S
C1152 C1160 1.378 1_565 S
C1153 C1152 1.367 . S
C1153 C1161 1.433 . S
C1154 H1150 0.929 . S
C1154 C1156 1.378 . S
C1154 C1158 1.350 . S
C1155 C1158 1.463 . S
C1155 C1160 1.350 1_565 S
C1155 N1163 1.427 . S
C1156 H1147 0.930 . S
C1156 C1154 1.378 . S
C1156 C1157 1.367 1_565 S
C1157 C1156 1.367 1_545 S
C1157 C1159 1.433 . S
C1158 C1154 1.350 . S
C1158 C1155 1.463 . S
C1158 N1162 1.427 1_565 S
C1159 H1149 0.929 . S
C1159 C1157 1.433 . S
C1159 N1162 1.384 . S
C1160 H1151 0.929 . S
C1160 C1152 1.378 1_545 S
C1160 C1155 1.350 1_545 S
C1161 H1148 0.929 . S
C1161 C1153 1.433 . S
C1161 N1163 1.384 . S
N1162 C1158 1.427 1_545 S
N1162 C1159 1.384 . S
N1163 C1155 1.427 . S
N1163 C1161 1.384 . S
H1164 C1170 0.923 1_655 S
H1165 C1174 0.923 1_455 S
H1166 C1179 0.929 . S
H1167 C1177 0.929 . S
H1168 C1172 0.929 . S
H1169 C1178 0.929 . S
C1170 H1164 0.923 1_455 S
C1170 C1171 1.380 . S
C1170 C1178 1.372 1_455 S
C1171 C1170 1.380 . S
C1171 C1179 1.433 . S
C1172 H1168 0.929 . S
C1172 C1174 1.372 1_455 S
C1172 C1176 1.350 1_455 S
C1173 C1176 1.463 1_455 S
C1173 C1178 1.350 1_455 S
C1173 N1181 1.427 . S
C1174 H1165 0.923 1_655 S
C1174 C1172 1.372 1_655 S
C1174 C1175 1.380 . S
C1175 C1174 1.380 . S
C1175 C1177 1.433 . S
C1176 C1172 1.350 1_655 S
C1176 C1173 1.463 1_655 S
C1176 N1180 1.427 . S
C1177 H1167 0.929 . S
C1177 C1175 1.433 . S
C1177 N1180 1.384 . S
C1178 H1169 0.929 . S
C1178 C1170 1.372 1_655 S
C1178 C1173 1.350 1_655 S
C1179 H1166 0.929 . S
C1179 C1171 1.433 . S
C1179 N1181 1.384 . S
N1180 C1176 1.427 . S
N1180 C1177 1.384 . S
N1181 C1173 1.427 . S
N1181 C1179 1.384 . S
H1182 C1188 0.930 . S
H1183 C1192 0.930 . S
H1184 C1197 0.929 . S
H1185 C1195 0.929 . S
H1186 C1190 0.929 . S
H1187 C1196 0.929 . S
C1188 H1182 0.930 . S
C1188 C1189 1.367 . S
C1188 C1196 1.378 . S
C1189 C1188 1.367 . S
C1189 C1197 1.433 1_545 S
C1190 H1186 0.929 . S
C1190 C1192 1.378 . S
C1190 C1194 1.305 1_565 S
C1191 C1194 1.479 . S
C1191 C1196 1.350 . S
C1191 N1199 1.427 1_545 S
C1192 H1183 0.930 . S
C1192 C1190 1.378 . S
C1192 C1193 1.367 . S
C1193 C1192 1.367 . S
C1193 C1195 1.433 1_565 S
C1194 C1190 1.305 1_545 S
C1194 C1191 1.479 . S
C1194 N1198 1.460 . S
C1195 H1185 0.929 . S
C1195 C1193 1.433 1_545 S
C1195 N1198 1.384 . S
C1196 H1187 0.929 . S
C1196 C1188 1.378 . S
C1196 C1191 1.350 . S
C1197 H1184 0.929 . S
C1197 C1189 1.433 1_565 S
C1197 N1199 1.384 . S
N1198 C1194 1.460 . S
N1198 C1195 1.384 . S
N1199 C1191 1.427 1_565 S
N1199 C1197 1.384 . S
H1200 C1206 0.930 1_554 S
H1201 C1210 0.930 . S
H1202 C1215 0.929 . S
H1203 C1213 0.929 . S
H1204 C1208 0.929 . S
H1205 C1214 0.929 . S
C1206 H1200 0.930 1_556 S
C1206 C1207 1.367 . S
C1206 C1214 1.378 1_556 S
C1207 C1206 1.367 . S
C1207 C1215 1.433 . S
C1208 H1204 0.929 . S
C1208 C1210 1.378 . S
C1208 C1212 1.350 . S
C1209 C1212 1.463 . S
C1209 C1214 1.350 1_556 S
C1209 N1217 1.427 . S
C1210 H1201 0.930 . S
C1210 C1208 1.378 . S
C1210 C1211 1.367 1_556 S
C1211 C1210 1.367 1_554 S
C1211 C1213 1.433 . S
C1212 C1208 1.350 . S
C1212 C1209 1.463 . S
C1212 N1216 1.427 1_556 S
C1213 H1203 0.929 . S
C1213 C1211 1.433 . S
C1213 N1216 1.384 . S
C1214 H1205 0.929 . S
C1214 C1206 1.378 1_554 S
C1214 C1209 1.350 1_554 S
C1215 H1202 0.929 . S
C1215 C1207 1.433 . S
C1215 N1217 1.384 . S
N1216 C1212 1.427 1_554 S
N1216 C1213 1.384 . S
N1217 C1209 1.427 . S
N1217 C1215 1.384 . S
H1218 C1224 0.930 . S
H1219 C1228 0.930 . S
H1220 C1233 0.929 . S
H1221 C1231 0.929 . S
H1222 C1226 0.929 . S
H1223 C1232 0.929 . S
C1224 H1218 0.930 . S
C1224 C1225 1.367 . S
C1224 C1232 1.378 . S
C1225 C1224 1.367 . S
C1225 C1233 1.433 . S
C1226 H1222 0.929 . S
C1226 C1228 1.378 . S
C1226 C1230 1.350 1_556 S
C1227 C1230 1.463 . S
C1227 C1232 1.350 . S
C1227 N1235 1.437 . S
C1228 H1219 0.930 . S
C1228 C1226 1.378 . S
C1228 C1229 1.367 . S
C1229 C1228 1.367 . S
C1229 C1231 1.433 1_556 S
C1230 C1226 1.350 1_554 S
C1230 C1227 1.463 . S
C1230 N1234 1.427 . S
C1231 H1221 0.929 . S
C1231 C1229 1.433 1_554 S
C1231 N1234 1.384 . S
C1232 H1223 0.929 . S
C1232 C1224 1.378 . S
C1232 C1227 1.350 . S
C1233 H1220 0.929 . S
C1233 C1225 1.433 . S
C1233 N1235 1.391 . S
N1234 C1230 1.427 . S
N1234 C1231 1.384 . S
N1235 C1227 1.437 . S
N1235 C1233 1.391 . S
H1236 C1242 0.930 . S
H1237 C1246 0.930 . S
H1238 C1251 0.929 . S
H1239 C1249 0.929 . S
H1240 C1244 0.929 . S
H1241 C1250 0.929 . S
C1242 H1236 0.930 . S
C1242 C1243 1.367 . S
C1242 C1250 1.378 . S
C1243 C1242 1.367 . S
C1243 C1251 1.433 . S
C1244 H1240 0.929 . S
C1244 C1246 1.378 1_554 S
C1244 C1248 1.350 . S
C1245 C1248 1.463 . S
C1245 C1250 1.350 . S
C1245 N1253 1.427 . S
C1246 H1237 0.930 . S
C1246 C1244 1.378 1_556 S
C1246 C1247 1.367 . S
C1247 C1246 1.367 . S
C1247 C1249 1.433 . S
C1248 C1244 1.350 . S
C1248 C1245 1.463 . S
C1248 N1252 1.427 1_554 S
C1249 H1239 0.929 . S
C1249 C1247 1.433 . S
C1249 N1252 1.384 . S
C1250 H1241 0.929 . S
C1250 C1242 1.378 . S
C1250 C1245 1.350 . S
C1251 H1238 0.929 . S
C1251 C1243 1.433 . S
C1251 N1253 1.384 . S
N1252 C1248 1.427 1_556 S
N1252 C1249 1.384 . S
N1253 C1245 1.427 . S
N1253 C1251 1.384 . S
H1254 C1260 0.930 . S
H1255 C1264 0.930 . S
H1256 C1269 0.929 . S
H1257 C1267 0.929 . S
H1258 C1262 0.929 . S
H1259 C1268 0.929 . S
C1260 H1254 0.930 . S
C1260 C1261 1.367 1_554 S
C1260 C1268 1.378 . S
C1261 C1260 1.367 1_556 S
C1261 C1269 1.433 . S
C1262 H1258 0.929 . S
C1262 C1264 1.378 . S
C1262 C1266 1.350 . S
C1263 C1266 1.463 . S
C1263 C1268 1.350 1_556 S
C1263 N1271 1.427 . S
C1264 H1255 0.930 . S
C1264 C1262 1.378 . S
C1264 C1265 1.367 1_556 S
C1265 C1264 1.367 1_554 S
C1265 C1267 1.433 . S
C1266 C1262 1.350 . S
C1266 C1263 1.463 . S
C1266 N1270 1.427 1_556 S
C1267 H1257 0.929 . S
C1267 C1265 1.433 . S
C1267 N1270 1.384 . S
C1268 H1259 0.929 . S
C1268 C1260 1.378 . S
C1268 C1263 1.350 1_554 S
C1269 H1256 0.929 . S
C1269 C1261 1.433 . S
C1269 N1271 1.384 . S
N1270 C1266 1.427 1_554 S
N1270 C1267 1.384 . S
N1271 C1263 1.427 . S
N1271 C1269 1.384 . S
H1272 C1278 0.930 . S
H1273 C1282 0.930 . S
H1274 C1287 0.929 . S
H1275 C1285 0.929 . S
H1276 C1280 0.929 . S
H1277 C1286 0.929 . S
C1278 H1272 0.930 . S
C1278 C1279 1.367 . S
C1278 C1286 1.378 . S
C1279 C1278 1.367 . S
C1279 C1287 1.433 . S
C1280 H1276 0.929 . S
C1280 C1282 1.378 . S
C1280 C1284 1.350 . S
C1281 C1284 1.463 . S
C1281 C1286 1.350 . S
C1281 N1289 1.427 . S
C1282 H1273 0.930 . S
C1282 C1280 1.378 . S
C1282 C1283 1.367 . S
C1283 C1282 1.367 . S
C1283 C1285 1.433 . S
C1284 C1280 1.350 . S
C1284 C1281 1.463 . S
C1284 N1288 1.427 . S
C1285 H1275 0.929 . S
C1285 C1283 1.433 . S
C1285 N1288 1.384 . S
C1286 H1277 0.929 . S
C1286 C1278 1.378 . S
C1286 C1281 1.350 . S
C1287 H1274 0.929 . S
C1287 C1279 1.433 . S
C1287 N1289 1.384 . S
N1288 C1284 1.427 . S
N1288 C1285 1.384 . S
N1289 C1281 1.427 . S
N1289 C1287 1.384 . S
H1290 C1296 0.930 . S
H1291 C1300 0.930 . S
H1292 C1305 0.929 . S
H1293 C1303 0.929 . S
H1294 C1298 0.929 . S
H1295 C1304 0.929 . S
C1296 H1290 0.930 . S
C1296 C1297 1.367 . S
C1296 C1304 1.378 . S
C1297 C1296 1.367 . S
C1297 C1305 1.433 . S
C1298 H1294 0.929 . S
C1298 C1300 1.378 . S
C1298 C1302 1.350 . S
C1299 C1302 1.463 . S
C1299 C1304 1.350 . S
C1299 N1307 1.427 . S
C1300 H1291 0.930 . S
C1300 C1298 1.378 . S
C1300 C1301 1.367 . S
C1301 C1300 1.367 . S
C1301 C1303 1.433 . S
C1302 C1298 1.350 . S
C1302 C1299 1.463 . S
C1302 N1306 1.427 . S
C1303 H1293 0.929 . S
C1303 C1301 1.433 . S
C1303 N1306 1.384 . S
C1304 H1295 0.929 . S
C1304 C1296 1.378 . S
C1304 C1299 1.350 . S
C1305 H1292 0.929 . S
C1305 C1297 1.433 . S
C1305 N1307 1.384 . S
N1306 C1302 1.427 . S
N1306 C1303 1.384 . S
N1307 C1299 1.427 . S
N1307 C1305 1.384 . S
H1308 C1314 0.930 . S
H1309 C1318 0.930 . S
H1310 C1323 0.929 . S
H1311 C1321 0.929 . S
H1312 C1316 0.929 . S
H1313 C1322 0.929 . S
C1314 H1308 0.930 . S
C1314 C1315 1.367 . S
C1314 C1322 1.378 . S
C1315 C1314 1.367 . S
C1315 C1323 1.433 . S
C1316 H1312 0.929 . S
C1316 C1318 1.378 . S
C1316 C1320 1.350 . S
C1317 C1320 1.463 . S
C1317 C1322 1.350 . S
C1317 N1325 1.427 . S
C1318 H1309 0.930 . S
C1318 C1316 1.378 . S
C1318 C1319 1.367 . S
C1319 C1318 1.367 . S
C1319 C1321 1.433 . S
C1320 C1316 1.350 . S
C1320 C1317 1.463 . S
C1320 N1324 1.427 . S
C1321 H1311 0.929 . S
C1321 C1319 1.433 . S
C1321 N1324 1.384 . S
C1322 H1313 0.929 . S
C1322 C1314 1.378 . S
C1322 C1317 1.350 . S
C1323 H1310 0.929 . S
C1323 C1315 1.433 . S
C1323 N1325 1.384 . S
N1324 C1320 1.427 . S
N1324 C1321 1.384 . S
N1325 C1317 1.427 . S
N1325 C1323 1.384 . S
H1326 C1332 0.930 . S
H1327 C1336 0.930 . S
H1328 C1341 0.929 . S
H1329 C1339 0.929 . S
H1330 C1334 0.929 . S
H1331 C1340 0.929 . S
C1332 H1326 0.930 . S
C1332 C1333 1.367 . S
C1332 C1340 1.378 . S
C1333 C1332 1.367 . S
C1333 C1341 1.433 . S
C1334 H1330 0.929 . S
C1334 C1336 1.378 . S
C1334 C1338 1.350 . S
C1335 C1338 1.463 . S
C1335 C1340 1.350 . S
C1335 N1343 1.427 . S
C1336 H1327 0.930 . S
C1336 C1334 1.378 . S
C1336 C1337 1.367 . S
C1337 C1336 1.367 . S
C1337 C1339 1.433 . S
C1338 C1334 1.350 . S
C1338 C1335 1.463 . S
C1338 N1342 1.427 . S
C1339 H1329 0.929 . S
C1339 C1337 1.433 . S
C1339 N1342 1.384 . S
C1340 H1331 0.929 . S
C1340 C1332 1.378 . S
C1340 C1335 1.350 . S
C1341 H1328 0.929 . S
C1341 C1333 1.433 . S
C1341 N1343 1.384 . S
N1342 C1338 1.427 . S
N1342 C1339 1.384 . S
N1343 C1335 1.427 . S
N1343 C1341 1.384 . S
H1344 C1350 0.930 . S
H1345 C1354 0.930 . S
H1346 C1359 0.929 . S
H1347 C1357 0.929 . S
H1348 C1352 0.929 . S
H1349 C1358 0.929 . S
C1350 H1344 0.930 . S
C1350 C1351 1.367 . S
C1350 C1358 1.378 . S
C1351 C1350 1.367 . S
C1351 C1359 1.433 . S
C1352 H1348 0.929 . S
C1352 C1354 1.378 . S
C1352 C1356 1.350 . S
C1353 C1356 1.463 . S
C1353 C1358 1.350 . S
C1353 N1361 1.427 . S
C1354 H1345 0.930 . S
C1354 C1352 1.378 . S
C1354 C1355 1.367 . S
C1355 C1354 1.367 . S
C1355 C1357 1.433 . S
C1356 C1352 1.350 . S
C1356 C1353 1.463 . S
C1356 N1360 1.427 . S
C1357 H1347 0.929 . S
C1357 C1355 1.433 . S
C1357 N1360 1.384 . S
C1358 H1349 0.929 . S
C1358 C1350 1.378 . S
C1358 C1353 1.350 . S
C1359 H1346 0.929 . S
C1359 C1351 1.433 . S
C1359 N1361 1.384 . S
N1360 C1356 1.427 . S
N1360 C1357 1.384 . S
N1361 C1353 1.427 . S
N1361 C1359 1.384 . S
H1362 C1368 0.930 . S
H1363 C1372 0.930 . S
H1364 C1377 0.929 . S
H1365 C1375 0.929 . S
H1366 C1370 0.929 . S
H1367 C1376 0.929 . S
C1368 H1362 0.930 . S
C1368 C1369 1.367 . S
C1368 C1376 1.378 . S
C1369 C1368 1.367 . S
C1369 C1377 1.433 . S
C1370 H1366 0.929 . S
C1370 C1372 1.378 . S
C1370 C1374 1.350 . S
C1371 C1374 1.463 . S
C1371 C1376 1.350 . S
C1371 N1379 1.427 . S
C1372 H1363 0.930 . S
C1372 C1370 1.378 . S
C1372 C1373 1.367 . S
C1373 C1372 1.367 . S
C1373 C1375 1.433 . S
C1374 C1370 1.350 . S
C1374 C1371 1.463 . S
C1374 N1378 1.427 . S
C1375 H1365 0.929 . S
C1375 C1373 1.433 . S
C1375 N1378 1.384 . S
C1376 H1367 0.929 . S
C1376 C1368 1.378 . S
C1376 C1371 1.350 . S
C1377 H1364 0.929 . S
C1377 C1369 1.433 . S
C1377 N1379 1.384 . S
N1378 C1374 1.427 . S
N1378 C1375 1.384 . S
N1379 C1371 1.427 . S
N1379 C1377 1.384 . S
H1380 C1386 0.930 . S
H1381 C1390 0.930 . S
H1382 C1395 0.929 . S
H1383 C1393 0.929 . S
H1384 C1388 0.929 . S
H1385 C1394 0.929 . S
C1386 H1380 0.930 . S
C1386 C1387 1.367 . S
C1386 C1394 1.378 . S
C1387 C1386 1.367 . S
C1387 C1395 1.433 . S
C1388 H1384 0.929 . S
C1388 C1390 1.378 . S
C1388 C1392 1.350 . S
C1389 C1392 1.463 . S
C1389 C1394 1.350 . S
C1389 N1397 1.427 . S
C1390 H1381 0.930 . S
C1390 C1388 1.378 . S
C1390 C1391 1.367 . S
C1391 C1390 1.367 . S
C1391 C1393 1.433 . S
C1392 C1388 1.350 . S
C1392 C1389 1.463 . S
C1392 N1396 1.427 . S
C1393 H1383 0.929 . S
C1393 C1391 1.433 . S
C1393 N1396 1.384 . S
C1394 H1385 0.929 . S
C1394 C1386 1.378 . S
C1394 C1389 1.350 . S
C1395 H1382 0.929 . S
C1395 C1387 1.433 . S
C1395 N1397 1.384 . S
N1396 C1392 1.427 . S
N1396 C1393 1.384 . S
N1397 C1389 1.427 . S
N1397 C1395 1.384 . S
H1398 C1404 0.930 . S
H1399 C1408 0.930 . S
H1400 C1413 0.929 . S
H1401 C1411 0.929 . S
H1402 C1406 0.929 . S
H1403 C1412 0.929 . S
C1404 H1398 0.930 . S
C1404 C1405 1.367 . S
C1404 C1412 1.378 . S
C1405 C1404 1.367 . S
C1405 C1413 1.433 . S
C1406 H1402 0.929 . S
C1406 C1408 1.378 . S
C1406 C1410 1.350 . S
C1407 C1410 1.463 . S
C1407 C1412 1.350 . S
C1407 N1415 1.427 . S
C1408 H1399 0.930 . S
C1408 C1406 1.378 . S
C1408 C1409 1.367 . S
C1409 C1408 1.367 . S
C1409 C1411 1.433 . S
C1410 C1406 1.350 . S
C1410 C1407 1.463 . S
C1410 N1414 1.427 . S
C1411 H1401 0.929 . S
C1411 C1409 1.433 . S
C1411 N1414 1.384 . S
C1412 H1403 0.929 . S
C1412 C1404 1.378 . S
C1412 C1407 1.350 . S
C1413 H1400 0.929 . S
C1413 C1405 1.433 . S
C1413 N1415 1.384 . S
N1414 C1410 1.427 . S
N1414 C1411 1.384 . S
N1415 C1407 1.427 . S
N1415 C1413 1.384 . S
H1416 C1422 0.930 . S
H1417 C1426 0.930 . S
H1418 C1431 0.929 . S
H1419 C1429 0.929 . S
H1420 C1424 0.929 . S
H1421 C1430 0.929 . S
C1422 H1416 0.930 . S
C1422 C1423 1.367 . S
C1422 C1430 1.378 . S
C1423 C1422 1.367 . S
C1423 C1431 1.433 . S
C1424 H1420 0.929 . S
C1424 C1426 1.378 . S
C1424 C1428 1.350 . S
C1425 C1428 1.463 . S
C1425 C1430 1.350 . S
C1425 N1433 1.427 . S
C1426 H1417 0.930 . S
C1426 C1424 1.378 . S
C1426 C1427 1.367 . S
C1427 C1426 1.367 . S
C1427 C1429 1.433 . S
C1428 C1424 1.350 . S
C1428 C1425 1.463 . S
C1428 N1432 1.427 . S
C1429 H1419 0.929 . S
C1429 C1427 1.433 . S
C1429 N1432 1.384 . S
C1430 H1421 0.929 . S
C1430 C1422 1.378 . S
C1430 C1425 1.350 . S
C1431 H1418 0.929 . S
C1431 C1423 1.433 . S
C1431 N1433 1.384 . S
N1432 C1428 1.427 . S
N1432 C1429 1.384 . S
N1433 C1425 1.427 . S
N1433 C1431 1.384 . S
H1434 C1440 0.930 . S
H1435 C1444 0.930 . S
H1436 C1449 0.929 . S
H1437 C1447 0.929 . S
H1438 C1442 0.929 . S
H1439 C1448 0.929 . S
C1440 H1434 0.930 . S
C1440 C1441 1.367 . S
C1440 C1448 1.378 . S
C1441 C1440 1.367 . S
C1441 C1449 1.433 . S
C1442 H1438 0.929 . S
C1442 C1444 1.378 . S
C1442 C1446 1.350 . S
C1443 C1446 1.463 . S
C1443 C1448 1.350 . S
C1443 N1451 1.427 . S
C1444 H1435 0.930 . S
C1444 C1442 1.378 . S
C1444 C1445 1.367 . S
C1445 C1444 1.367 . S
C1445 C1447 1.433 . S
C1446 C1442 1.350 . S
C1446 C1443 1.463 . S
C1446 N1450 1.427 . S
C1447 H1437 0.929 . S
C1447 C1445 1.433 . S
C1447 N1450 1.384 . S
C1448 H1439 0.929 . S
C1448 C1440 1.378 . S
C1448 C1443 1.350 . S
C1449 H1436 0.929 . S
C1449 C1441 1.433 . S
C1449 N1451 1.384 . S
N1450 C1446 1.427 . S
N1450 C1447 1.384 . S
N1451 C1443 1.427 . S
N1451 C1449 1.384 . S
H1452 C1458 0.930 . S
H1453 C1462 0.930 . S
H1454 C1467 0.929 . S
H1455 C1465 0.929 . S
H1456 C1460 0.929 . S
H1457 C1466 0.929 . S
C1458 H1452 0.930 . S
C1458 C1459 1.367 . S
C1458 C1466 1.378 . S
C1459 C1458 1.367 . S
C1459 C1467 1.433 . S
C1460 H1456 0.929 . S
C1460 C1462 1.378 . S
C1460 C1464 1.350 . S
C1461 C1464 1.463 . S
C1461 C1466 1.350 . S
C1461 N1469 1.427 . S
C1462 H1453 0.930 . S
C1462 C1460 1.378 . S
C1462 C1463 1.367 . S
C1463 C1462 1.367 . S
C1463 C1465 1.433 . S
C1464 C1460 1.350 . S
C1464 C1461 1.463 . S
C1464 N1468 1.427 . S
C1465 H1455 0.929 . S
C1465 C1463 1.433 . S
C1465 N1468 1.384 . S
C1466 H1457 0.929 . S
C1466 C1458 1.378 . S
C1466 C1461 1.350 . S
C1467 H1454 0.929 . S
C1467 C1459 1.433 . S
C1467 N1469 1.384 . S
N1468 C1464 1.427 . S
N1468 C1465 1.384 . S
N1469 C1461 1.427 . S
N1469 C1467 1.384 . S
H1470 C1476 0.930 . S
H1471 C1480 0.930 . S
H1472 C1485 0.929 . S
H1473 C1483 0.929 . S
H1474 C1478 0.929 . S
H1475 C1484 0.929 . S
C1476 H1470 0.930 . S
C1476 C1477 1.367 . S
C1476 C1484 1.378 . S
C1477 C1476 1.367 . S
C1477 C1485 1.433 . S
C1478 H1474 0.929 . S
C1478 C1480 1.378 . S
C1478 C1482 1.350 . S
C1479 C1482 1.463 . S
C1479 C1484 1.350 . S
C1479 N1487 1.427 . S
C1480 H1471 0.930 . S
C1480 C1478 1.378 . S
C1480 C1481 1.367 . S
C1481 C1480 1.367 . S
C1481 C1483 1.433 . S
C1482 C1478 1.350 . S
C1482 C1479 1.463 . S
C1482 N1486 1.427 . S
C1483 H1473 0.929 . S
C1483 C1481 1.433 . S
C1483 N1486 1.384 . S
C1484 H1475 0.929 . S
C1484 C1476 1.378 . S
C1484 C1479 1.350 . S
C1485 H1472 0.929 . S
C1485 C1477 1.433 . S
C1485 N1487 1.384 . S
N1486 C1482 1.427 . S
N1486 C1483 1.384 . S
N1487 C1479 1.427 . S
N1487 C1485 1.384 . S
H1488 C1494 0.930 . S
H1489 C1498 0.930 . S
H1490 C1503 0.929 . S
H1491 C1501 0.929 . S
H1492 C1496 0.929 . S
H1493 C1502 0.929 . S
C1494 H1488 0.930 . S
C1494 C1495 1.367 . S
C1494 C1502 1.378 . S
C1495 C1494 1.367 . S
C1495 C1503 1.433 . S
C1496 H1492 0.929 . S
C1496 C1498 1.378 . S
C1496 C1500 1.350 . S
C1497 C1500 1.463 . S
C1497 C1502 1.350 . S
C1497 N1505 1.427 . S
C1498 H1489 0.930 . S
C1498 C1496 1.378 . S
C1498 C1499 1.367 . S
C1499 C1498 1.367 . S
C1499 C1501 1.433 . S
C1500 C1496 1.350 . S
C1500 C1497 1.463 . S
C1500 N1504 1.427 . S
C1501 H1491 0.929 . S
C1501 C1499 1.433 . S
C1501 N1504 1.384 . S
C1502 H1493 0.929 . S
C1502 C1494 1.378 . S
C1502 C1497 1.350 . S
C1503 H1490 0.929 . S
C1503 C1495 1.433 . S
C1503 N1505 1.384 . S
N1504 C1500 1.427 . S
N1504 C1501 1.384 . S
N1505 C1497 1.427 . S
N1505 C1503 1.384 . S
H1506 C1512 0.930 . S
H1507 C1516 0.930 . S
H1508 C1521 0.929 . S
H1509 C1519 0.929 . S
H1510 C1514 0.929 . S
H1511 C1520 0.929 . S
C1512 H1506 0.930 . S
C1512 C1513 1.367 . S
C1512 C1520 1.378 . S
C1513 C1512 1.367 . S
C1513 C1521 1.433 . S
C1514 H1510 0.929 . S
C1514 C1516 1.378 . S
C1514 C1518 1.350 . S
C1515 C1518 1.463 . S
C1515 C1520 1.350 . S
C1515 N1523 1.427 . S
C1516 H1507 0.930 . S
C1516 C1514 1.378 . S
C1516 C1517 1.367 . S
C1517 C1516 1.367 . S
C1517 C1519 1.433 . S
C1518 C1514 1.350 . S
C1518 C1515 1.463 . S
C1518 N1522 1.427 . S
C1519 H1509 0.929 . S
C1519 C1517 1.433 . S
C1519 N1522 1.384 . S
C1520 H1511 0.929 . S
C1520 C1512 1.378 . S
C1520 C1515 1.350 . S
C1521 H1508 0.929 . S
C1521 C1513 1.433 . S
C1521 N1523 1.384 . S
N1522 C1518 1.427 . S
N1522 C1519 1.384 . S
N1523 C1515 1.427 . S
N1523 C1521 1.384 . S
H1524 C1530 0.930 . S
H1525 C1534 0.930 . S
H1526 C1539 0.929 . S
H1527 C1537 0.929 . S
H1528 C1532 0.929 . S
H1529 C1538 0.929 . S
C1530 H1524 0.930 . S
C1530 C1531 1.367 . S
C1530 C1538 1.378 . S
C1531 C1530 1.367 . S
C1531 C1539 1.433 . S
C1532 H1528 0.929 . S
C1532 C1534 1.378 . S
C1532 C1536 1.350 . S
C1533 C1536 1.463 . S
C1533 C1538 1.350 . S
C1533 N1541 1.427 . S
C1534 H1525 0.930 . S
C1534 C1532 1.378 . S
C1534 C1535 1.367 . S
C1535 C1534 1.367 . S
C1535 C1537 1.433 . S
C1536 C1532 1.350 . S
C1536 C1533 1.463 . S
C1536 N1540 1.427 . S
C1537 H1527 0.929 . S
C1537 C1535 1.433 . S
C1537 N1540 1.384 . S
C1538 H1529 0.929 . S
C1538 C1530 1.378 . S
C1538 C1533 1.350 . S
C1539 H1526 0.929 . S
C1539 C1531 1.433 . S
C1539 N1541 1.384 . S
N1540 C1536 1.427 . S
N1540 C1537 1.384 . S
N1541 C1533 1.427 . S
N1541 C1539 1.384 . S
H1542 C1548 0.930 . S
H1543 C1552 0.930 . S
H1544 C1557 0.929 . S
H1545 C1555 0.929 . S
H1546 C1550 0.929 . S
H1547 C1556 0.929 . S
C1548 H1542 0.930 . S
C1548 C1549 1.367 . S
C1548 C1556 1.378 . S
C1549 C1548 1.367 . S
C1549 C1557 1.433 . S
C1550 H1546 0.929 . S
C1550 C1552 1.378 . S
C1550 C1554 1.350 . S
C1551 C1554 1.463 . S
C1551 C1556 1.350 . S
C1551 N1559 1.427 . S
C1552 H1543 0.930 . S
C1552 C1550 1.378 . S
C1552 C1553 1.367 . S
C1553 C1552 1.367 . S
C1553 C1555 1.433 . S
C1554 C1550 1.350 . S
C1554 C1551 1.463 . S
C1554 N1558 1.427 . S
C1555 H1545 0.929 . S
C1555 C1553 1.433 . S
C1555 N1558 1.384 . S
C1556 H1547 0.929 . S
C1556 C1548 1.378 . S
C1556 C1551 1.350 . S
C1557 H1544 0.929 . S
C1557 C1549 1.433 . S
C1557 N1559 1.384 . S
N1558 C1554 1.427 . S
N1558 C1555 1.384 . S
N1559 C1551 1.427 . S
N1559 C1557 1.384 . S
H1560 C1566 0.930 . S
H1561 C1570 0.930 . S
H1562 C1575 0.929 . S
H1563 C1573 0.929 . S
H1564 C1568 0.929 . S
H1565 C1574 0.929 . S
C1566 H1560 0.930 . S
C1566 C1567 1.367 . S
C1566 C1574 1.378 . S
C1567 C1566 1.367 . S
C1567 C1575 1.433 . S
C1568 H1564 0.929 . S
C1568 C1570 1.378 . S
C1568 C1572 1.350 . S
C1569 C1572 1.463 . S
C1569 C1574 1.350 . S
C1569 N1577 1.427 . S
C1570 H1561 0.930 . S
C1570 C1568 1.378 . S
C1570 C1571 1.367 . S
C1571 C1570 1.367 . S
C1571 C1573 1.433 . S
C1572 C1568 1.350 . S
C1572 C1569 1.463 . S
C1572 N1576 1.427 . S
C1573 H1563 0.929 . S
C1573 C1571 1.433 . S
C1573 N1576 1.384 . S
C1574 H1565 0.929 . S
C1574 C1566 1.378 . S
C1574 C1569 1.350 . S
C1575 H1562 0.929 . S
C1575 C1567 1.433 . S
C1575 N1577 1.384 . S
N1576 C1572 1.427 . S
N1576 C1573 1.384 . S
N1577 C1569 1.427 . S
N1577 C1575 1.384 . S
H1578 C1584 0.930 . S
H1579 C1588 0.930 . S
H1580 C1593 0.929 . S
H1581 C1591 0.929 . S
H1582 C1586 0.929 . S
H1583 C1592 0.929 . S
C1584 H1578 0.930 . S
C1584 C1585 1.367 . S
C1584 C1592 1.378 . S
C1585 C1584 1.367 . S
C1585 C1593 1.433 . S
C1586 H1582 0.929 . S
C1586 C1588 1.378 . S
C1586 C1590 1.350 . S
C1587 C1590 1.463 . S
C1587 C1592 1.350 . S
C1587 N1595 1.427 . S
C1588 H1579 0.930 . S
C1588 C1586 1.378 . S
C1588 C1589 1.367 . S
C1589 C1588 1.367 . S
C1589 C1591 1.433 . S
C1590 C1586 1.350 . S
C1590 C1587 1.463 . S
C1590 N1594 1.427 . S
C1591 H1581 0.929 . S
C1591 C1589 1.433 . S
C1591 N1594 1.384 . S
C1592 H1583 0.929 . S
C1592 C1584 1.378 . S
C1592 C1587 1.350 . S
C1593 H1580 0.929 . S
C1593 C1585 1.433 . S
C1593 N1595 1.384 . S
N1594 C1590 1.427 . S
N1594 C1591 1.384 . S
N1595 C1587 1.427 . S
N1595 C1593 1.384 . S
H1596 C1602 0.930 . S
H1597 C1606 0.930 . S
H1598 C1611 0.929 . S
H1599 C1609 0.929 . S
H1600 C1604 0.929 . S
H1601 C1610 0.929 . S
C1602 H1596 0.930 . S
C1602 C1603 1.367 . S
C1602 C1610 1.378 . S
C1603 C1602 1.367 . S
C1603 C1611 1.433 . S
C1604 H1600 0.929 . S
C1604 C1606 1.378 . S
C1604 C1608 1.350 . S
C1605 C1608 1.463 . S
C1605 C1610 1.350 . S
C1605 N1613 1.427 . S
C1606 H1597 0.930 . S
C1606 C1604 1.378 . S
C1606 C1607 1.367 . S
C1607 C1606 1.367 . S
C1607 C1609 1.433 . S
C1608 C1604 1.350 . S
C1608 C1605 1.463 . S
C1608 N1612 1.427 . S
C1609 H1599 0.929 . S
C1609 C1607 1.433 . S
C1609 N1612 1.384 . S
C1610 H1601 0.929 . S
C1610 C1602 1.378 . S
C1610 C1605 1.350 . S
C1611 H1598 0.929 . S
C1611 C1603 1.433 . S
C1611 N1613 1.384 . S
N1612 C1608 1.427 . S
N1612 C1609 1.384 . S
N1613 C1605 1.427 . S
N1613 C1611 1.384 . S
H1614 C1620 0.930 . S
H1615 C1624 0.930 . S
H1616 C1629 0.929 . S
H1617 C1627 0.929 . S
H1618 C1622 0.929 . S
H1619 C1628 0.929 . S
C1620 H1614 0.930 . S
C1620 C1621 1.367 . S
C1620 C1628 1.378 . S
C1621 C1620 1.367 . S
C1621 C1629 1.433 . S
C1622 H1618 0.929 . S
C1622 C1624 1.378 . S
C1622 C1626 1.350 . S
C1623 C1626 1.463 . S
C1623 C1628 1.350 . S
C1623 N1631 1.427 . S
C1624 H1615 0.930 . S
C1624 C1622 1.378 . S
C1624 C1625 1.367 . S
C1625 C1624 1.367 . S
C1625 C1627 1.433 . S
C1626 C1622 1.350 . S
C1626 C1623 1.463 . S
C1626 N1630 1.427 . S
C1627 H1617 0.929 . S
C1627 C1625 1.433 . S
C1627 N1630 1.384 . S
C1628 H1619 0.929 . S
C1628 C1620 1.378 . S
C1628 C1623 1.350 . S
C1629 H1616 0.929 . S
C1629 C1621 1.433 . S
C1629 N1631 1.384 . S
N1630 C1626 1.427 . S
N1630 C1627 1.384 . S
N1631 C1623 1.427 . S
N1631 C1629 1.384 . S
H1632 C1638 0.930 . S
H1633 C1642 0.930 . S
H1634 C1647 0.929 . S
H1635 C1645 0.929 . S
H1636 C1640 0.929 . S
H1637 C1646 0.929 . S
C1638 H1632 0.930 . S
C1638 C1639 1.367 . S
C1638 C1646 1.378 . S
C1639 C1638 1.367 . S
C1639 C1647 1.433 . S
C1640 H1636 0.929 . S
C1640 C1642 1.378 . S
C1640 C1644 1.350 . S
C1641 C1644 1.463 . S
C1641 C1646 1.350 . S
C1641 N1649 1.427 . S
C1642 H1633 0.930 . S
C1642 C1640 1.378 . S
C1642 C1643 1.367 . S
C1643 C1642 1.367 . S
C1643 C1645 1.433 . S
C1644 C1640 1.350 . S
C1644 C1641 1.463 . S
C1644 N1648 1.427 . S
C1645 H1635 0.929 . S
C1645 C1643 1.433 . S
C1645 N1648 1.384 . S
C1646 H1637 0.929 . S
C1646 C1638 1.378 . S
C1646 C1641 1.350 . S
C1647 H1634 0.929 . S
C1647 C1639 1.433 . S
C1647 N1649 1.384 . S
N1648 C1644 1.427 . S
N1648 C1645 1.384 . S
N1649 C1641 1.427 . S
N1649 C1647 1.384 . S
H1650 C1656 0.930 . S
H1651 C1660 0.930 . S
H1652 C1665 0.929 . S
H1653 C1663 0.929 . S
H1654 C1658 0.929 . S
H1655 C1664 0.929 . S
C1656 H1650 0.930 . S
C1656 C1657 1.367 . S
C1656 C1664 1.378 . S
C1657 C1656 1.367 . S
C1657 C1665 1.433 . S
C1658 H1654 0.929 . S
C1658 C1660 1.378 . S
C1658 C1662 1.350 . S
C1659 C1662 1.463 . S
C1659 C1664 1.350 . S
C1659 N1667 1.427 . S
C1660 H1651 0.930 . S
C1660 C1658 1.378 . S
C1660 C1661 1.367 . S
C1661 C1660 1.367 . S
C1661 C1663 1.433 . S
C1662 C1658 1.350 . S
C1662 C1659 1.463 . S
C1662 N1666 1.427 . S
C1663 H1653 0.929 . S
C1663 C1661 1.433 . S
C1663 N1666 1.384 . S
C1664 H1655 0.929 . S
C1664 C1656 1.378 . S
C1664 C1659 1.350 . S
C1665 H1652 0.929 . S
C1665 C1657 1.433 . S
C1665 N1667 1.384 . S
N1666 C1662 1.427 . S
N1666 C1663 1.384 . S
N1667 C1659 1.427 . S
N1667 C1665 1.384 . S
H1668 C1674 0.930 . S
H1669 C1678 0.930 . S
H1670 C1683 0.929 . S
H1671 C1681 0.929 . S
H1672 C1676 0.929 . S
H1673 C1682 0.929 . S
C1674 H1668 0.930 . S
C1674 C1675 1.367 . S
C1674 C1682 1.378 . S
C1675 C1674 1.367 . S
C1675 C1683 1.433 . S
C1676 H1672 0.929 . S
C1676 C1678 1.378 . S
C1676 C1680 1.350 . S
C1677 C1680 1.463 . S
C1677 C1682 1.350 . S
C1677 N1685 1.427 . S
C1678 H1669 0.930 . S
C1678 C1676 1.378 . S
C1678 C1679 1.367 . S
C1679 C1678 1.367 . S
C1679 C1681 1.433 . S
C1680 C1676 1.350 . S
C1680 C1677 1.463 . S
C1680 N1684 1.427 . S
C1681 H1671 0.929 . S
C1681 C1679 1.433 . S
C1681 N1684 1.384 . S
C1682 H1673 0.929 . S
C1682 C1674 1.378 . S
C1682 C1677 1.350 . S
C1683 H1670 0.929 . S
C1683 C1675 1.433 . S
C1683 N1685 1.384 . S
N1684 C1680 1.427 . S
N1684 C1681 1.384 . S
N1685 C1677 1.427 . S
N1685 C1683 1.384 . S
H1686 C1692 0.930 . S
H1687 C1696 0.930 . S
H1688 C1701 0.929 . S
H1689 C1699 0.929 . S
H1690 C1694 0.929 . S
H1691 C1700 0.929 . S
C1692 H1686 0.930 . S
C1692 C1693 1.367 . S
C1692 C1700 1.378 . S
C1693 C1692 1.367 . S
C1693 C1701 1.433 . S
C1694 H1690 0.929 . S
C1694 C1696 1.378 . S
C1694 C1698 1.350 . S
C1695 C1698 1.463 . S
C1695 C1700 1.350 . S
C1695 N1703 1.427 . S
C1696 H1687 0.930 . S
C1696 C1694 1.378 . S
C1696 C1697 1.367 . S
C1697 C1696 1.367 . S
C1697 C1699 1.433 . S
C1698 C1694 1.350 . S
C1698 C1695 1.463 . S
C1698 N1702 1.427 . S
C1699 H1689 0.929 . S
C1699 C1697 1.433 . S
C1699 N1702 1.384 . S
C1700 H1691 0.929 . S
C1700 C1692 1.378 . S
C1700 C1695 1.350 . S
C1701 H1688 0.929 . S
C1701 C1693 1.433 . S
C1701 N1703 1.384 . S
N1702 C1698 1.427 . S
N1702 C1699 1.384 . S
N1703 C1695 1.427 . S
N1703 C1701 1.384 . S
H1704 C1710 0.930 . S
H1705 C1714 0.930 . S
H1706 C1719 0.929 . S
H1707 C1717 0.929 . S
H1708 C1712 0.929 . S
H1709 C1718 0.929 . S
C1710 H1704 0.930 . S
C1710 C1711 1.367 . S
C1710 C1718 1.378 . S
C1711 C1710 1.367 . S
C1711 C1719 1.433 . S
C1712 H1708 0.929 . S
C1712 C1714 1.378 . S
C1712 C1716 1.350 . S
C1713 C1716 1.463 . S
C1713 C1718 1.350 . S
C1713 N1721 1.427 . S
C1714 H1705 0.930 . S
C1714 C1712 1.378 . S
C1714 C1715 1.367 . S
C1715 C1714 1.367 . S
C1715 C1717 1.433 . S
C1716 C1712 1.350 . S
C1716 C1713 1.463 . S
C1716 N1720 1.427 . S
C1717 H1707 0.929 . S
C1717 C1715 1.433 . S
C1717 N1720 1.384 . S
C1718 H1709 0.929 . S
C1718 C1710 1.378 . S
C1718 C1713 1.350 . S
C1719 H1706 0.929 . S
C1719 C1711 1.433 . S
C1719 N1721 1.384 . S
N1720 C1716 1.427 . S
N1720 C1717 1.384 . S
N1721 C1713 1.427 . S
N1721 C1719 1.384 . S
H1722 C1728 0.930 . S
H1723 C1732 0.930 . S
H1724 C1737 0.929 . S
H1725 C1735 0.929 . S
H1726 C1730 0.929 . S
H1727 C1736 0.929 . S
C1728 H1722 0.930 . S
C1728 C1729 1.367 . S
C1728 C1736 1.378 . S
C1729 C1728 1.367 . S
C1729 C1737 1.433 . S
C1730 H1726 0.929 . S
C1730 C1732 1.378 . S
C1730 C1734 1.350 . S
C1731 C1734 1.463 . S
C1731 C1736 1.350 . S
C1731 N1739 1.427 . S
C1732 H1723 0.930 . S
C1732 C1730 1.378 . S
C1732 C1733 1.367 . S
C1733 C1732 1.367 . S
C1733 C1735 1.433 . S
C1734 C1730 1.350 . S
C1734 C1731 1.463 . S
C1734 N1738 1.427 . S
C1735 H1725 0.929 . S
C1735 C1733 1.433 . S
C1735 N1738 1.384 . S
C1736 H1727 0.929 . S
C1736 C1728 1.378 . S
C1736 C1731 1.350 . S
C1737 H1724 0.929 . S
C1737 C1729 1.433 . S
C1737 N1739 1.384 . S
N1738 C1734 1.427 . S
N1738 C1735 1.384 . S
N1739 C1731 1.427 . S
N1739 C1737 1.384 . S
H1740 C1746 0.930 . S
H1741 C1750 0.930 . S
H1742 C1755 0.929 . S
H1743 C1753 0.929 . S
H1744 C1748 0.929 . S
H1745 C1754 0.929 . S
C1746 H1740 0.930 . S
C1746 C1747 1.367 . S
C1746 C1754 1.378 . S
C1747 C1746 1.367 . S
C1747 C1755 1.433 . S
C1748 H1744 0.929 . S
C1748 C1750 1.378 . S
C1748 C1752 1.350 . S
C1749 C1752 1.463 . S
C1749 C1754 1.350 . S
C1749 N1757 1.427 . S
C1750 H1741 0.930 . S
C1750 C1748 1.378 . S
C1750 C1751 1.367 . S
C1751 C1750 1.367 . S
C1751 C1753 1.433 . S
C1752 C1748 1.350 . S
C1752 C1749 1.463 . S
C1752 N1756 1.427 . S
C1753 H1743 0.929 . S
C1753 C1751 1.433 . S
C1753 N1756 1.384 . S
C1754 H1745 0.929 . S
C1754 C1746 1.378 . S
C1754 C1749 1.350 . S
C1755 H1742 0.929 . S
C1755 C1747 1.433 . S
C1755 N1757 1.384 . S
N1756 C1752 1.427 . S
N1756 C1753 1.384 . S
N1757 C1749 1.427 . S
N1757 C1755 1.384 . S
H1758 C1764 0.930 . S
H1759 C1768 0.930 . S
H1760 C1773 0.929 . S
H1761 C1771 0.929 . S
H1762 C1766 0.929 . S
H1763 C1772 0.929 . S
C1764 H1758 0.930 . S
C1764 C1765 1.367 . S
C1764 C1772 1.378 . S
C1765 C1764 1.367 . S
C1765 C1773 1.433 . S
C1766 H1762 0.929 . S
C1766 C1768 1.378 . S
C1766 C1770 1.350 . S
C1767 C1770 1.463 . S
C1767 C1772 1.350 . S
C1767 N1775 1.427 . S
C1768 H1759 0.930 . S
C1768 C1766 1.378 . S
C1768 C1769 1.367 . S
C1769 C1768 1.367 . S
C1769 C1771 1.433 . S
C1770 C1766 1.350 . S
C1770 C1767 1.463 . S
C1770 N1774 1.427 . S
C1771 H1761 0.929 . S
C1771 C1769 1.433 . S
C1771 N1774 1.384 . S
C1772 H1763 0.929 . S
C1772 C1764 1.378 . S
C1772 C1767 1.350 . S
C1773 H1760 0.929 . S
C1773 C1765 1.433 . S
C1773 N1775 1.384 . S
N1774 C1770 1.427 . S
N1774 C1771 1.384 . S
N1775 C1767 1.427 . S
N1775 C1773 1.384 . S
H1776 C1782 0.930 . S
H1777 C1786 0.930 . S
H1778 C1791 0.929 . S
H1779 C1789 0.929 . S
H1780 C1784 0.929 . S
H1781 C1790 0.929 . S
C1782 H1776 0.930 . S
C1782 C1783 1.367 . S
C1782 C1790 1.378 . S
C1783 C1782 1.367 . S
C1783 C1791 1.433 . S
C1784 H1780 0.929 . S
C1784 C1786 1.378 . S
C1784 C1788 1.350 . S
C1785 C1788 1.463 . S
C1785 C1790 1.350 . S
C1785 N1793 1.427 . S
C1786 H1777 0.930 . S
C1786 C1784 1.378 . S
C1786 C1787 1.367 . S
C1787 C1786 1.367 . S
C1787 C1789 1.433 . S
C1788 C1784 1.350 . S
C1788 C1785 1.463 . S
C1788 N1792 1.427 . S
C1789 H1779 0.929 . S
C1789 C1787 1.433 . S
C1789 N1792 1.384 . S
C1790 H1781 0.929 . S
C1790 C1782 1.378 . S
C1790 C1785 1.350 . S
C1791 H1778 0.929 . S
C1791 C1783 1.433 . S
C1791 N1793 1.384 . S
N1792 C1788 1.427 . S
N1792 C1789 1.384 . S
N1793 C1785 1.427 . S
N1793 C1791 1.384 . S
H1794 C1800 0.930 . S
H1795 C1804 0.930 . S
H1796 C1809 0.929 . S
H1797 C1807 0.929 . S
H1798 C1802 0.929 . S
H1799 C1808 0.929 . S
C1800 H1794 0.930 . S
C1800 C1801 1.367 . S
C1800 C1808 1.378 . S
C1801 C1800 1.367 . S
C1801 C1809 1.433 . S
C1802 H1798 0.929 . S
C1802 C1804 1.378 . S
C1802 C1806 1.350 . S
C1803 C1806 1.463 . S
C1803 C1808 1.350 . S
C1803 N1811 1.427 . S
C1804 H1795 0.930 . S
C1804 C1802 1.378 . S
C1804 C1805 1.367 . S
C1805 C1804 1.367 . S
C1805 C1807 1.433 . S
C1806 C1802 1.350 . S
C1806 C1803 1.463 . S
C1806 N1810 1.427 . S
C1807 H1797 0.929 . S
C1807 C1805 1.433 . S
C1807 N1810 1.384 . S
C1808 H1799 0.929 . S
C1808 C1800 1.378 . S
C1808 C1803 1.350 . S
C1809 H1796 0.929 . S
C1809 C1801 1.433 . S
C1809 N1811 1.384 . S
N1810 C1806 1.427 . S
N1810 C1807 1.384 . S
N1811 C1803 1.427 . S
N1811 C1809 1.384 . S
H1812 C1818 0.930 . S
H1813 C1822 0.930 . S
H1814 C1827 0.929 . S
H1815 C1825 0.929 . S
H1816 C1820 0.929 . S
H1817 C1826 0.929 . S
C1818 H1812 0.930 . S
C1818 C1819 1.367 . S
C1818 C1826 1.378 . S
C1819 C1818 1.367 . S
C1819 C1827 1.433 . S
C1820 H1816 0.929 . S
C1820 C1822 1.378 . S
C1820 C1824 1.350 . S
C1821 C1824 1.463 . S
C1821 C1826 1.350 . S
C1821 N1829 1.427 . S
C1822 H1813 0.930 . S
C1822 C1820 1.378 . S
C1822 C1823 1.367 . S
C1823 C1822 1.367 . S
C1823 C1825 1.433 . S
C1824 C1820 1.350 . S
C1824 C1821 1.463 . S
C1824 N1828 1.427 . S
C1825 H1815 0.929 . S
C1825 C1823 1.433 . S
C1825 N1828 1.384 . S
C1826 H1817 0.929 . S
C1826 C1818 1.378 . S
C1826 C1821 1.350 . S
C1827 H1814 0.929 . S
C1827 C1819 1.433 . S
C1827 N1829 1.384 . S
N1828 C1824 1.427 . S
N1828 C1825 1.384 . S
N1829 C1821 1.427 . S
N1829 C1827 1.384 . S
H1830 C1836 0.930 . S
H1831 C1840 0.930 . S
H1832 C1845 0.929 . S
H1833 C1843 0.929 . S
H1834 C1838 0.929 . S
H1835 C1844 0.929 . S
C1836 H1830 0.930 . S
C1836 C1837 1.367 . S
C1836 C1844 1.378 . S
C1837 C1836 1.367 . S
C1837 C1845 1.433 . S
C1838 H1834 0.929 . S
C1838 C1840 1.378 . S
C1838 C1842 1.350 . S
C1839 C1842 1.463 . S
C1839 C1844 1.350 . S
C1839 N1847 1.427 . S
C1840 H1831 0.930 . S
C1840 C1838 1.378 . S
C1840 C1841 1.367 . S
C1841 C1840 1.367 . S
C1841 C1843 1.433 . S
C1842 C1838 1.350 . S
C1842 C1839 1.463 . S
C1842 N1846 1.427 . S
C1843 H1833 0.929 . S
C1843 C1841 1.433 . S
C1843 N1846 1.384 . S
C1844 H1835 0.929 . S
C1844 C1836 1.378 . S
C1844 C1839 1.350 . S
C1845 H1832 0.929 . S
C1845 C1837 1.433 . S
C1845 N1847 1.384 . S
N1846 C1842 1.427 . S
N1846 C1843 1.384 . S
N1847 C1839 1.427 . S
N1847 C1845 1.384 . S
H1848 C1854 0.930 . S
H1849 C1858 0.930 . S
H1850 C1863 0.929 . S
H1851 C1861 0.929 . S
H1852 C1856 0.929 . S
H1853 C1862 0.929 . S
C1854 H1848 0.930 . S
C1854 C1855 1.367 . S
C1854 C1862 1.378 . S
C1855 C1854 1.367 . S
C1855 C1863 1.433 . S
C1856 H1852 0.929 . S
C1856 C1858 1.378 . S
C1856 C1860 1.350 . S
C1857 C1860 1.463 . S
C1857 C1862 1.350 . S
C1857 N1865 1.427 . S
C1858 H1849 0.930 . S
C1858 C1856 1.378 . S
C1858 C1859 1.367 . S
C1859 C1858 1.367 . S
C1859 C1861 1.433 . S
C1860 C1856 1.350 . S
C1860 C1857 1.463 . S
C1860 N1864 1.427 . S
C1861 H1851 0.929 . S
C1861 C1859 1.433 . S
C1861 N1864 1.384 . S
C1862 H1853 0.929 . S
C1862 C1854 1.378 . S
C1862 C1857 1.350 . S
C1863 H1850 0.929 . S
C1863 C1855 1.433 . S
C1863 N1865 1.384 . S
N1864 C1860 1.427 . S
N1864 C1861 1.384 . S
N1865 C1857 1.427 . S
N1865 C1863 1.384 . S
H1866 C1872 0.930 . S
H1867 C1876 0.930 . S
H1868 C1881 0.929 . S
H1869 C1879 0.929 . S
H1870 C1874 0.929 . S
H1871 C1880 0.929 . S
C1872 H1866 0.930 . S
C1872 C1873 1.367 . S
C1872 C1880 1.378 . S
C1873 C1872 1.367 . S
C1873 C1881 1.433 . S
C1874 H1870 0.929 . S
C1874 C1876 1.378 . S
C1874 C1878 1.350 . S
C1875 C1878 1.463 . S
C1875 C1880 1.350 . S
C1875 N1883 1.427 . S
C1876 H1867 0.930 . S
C1876 C1874 1.378 . S
C1876 C1877 1.367 . S
C1877 C1876 1.367 . S
C1877 C1879 1.433 . S
C1878 C1874 1.350 . S
C1878 C1875 1.463 . S
C1878 N1882 1.427 . S
C1879 H1869 0.929 . S
C1879 C1877 1.433 . S
C1879 N1882 1.384 . S
C1880 H1871 0.929 . S
C1880 C1872 1.378 . S
C1880 C1875 1.350 . S
C1881 H1868 0.929 . S
C1881 C1873 1.433 . S
C1881 N1883 1.384 . S
N1882 C1878 1.427 . S
N1882 C1879 1.384 . S
N1883 C1875 1.427 . S
N1883 C1881 1.384 . S
H1884 C1890 0.930 . S
H1885 C1894 0.930 . S
H1886 C1899 0.929 . S
H1887 C1897 0.929 . S
H1888 C1892 0.929 . S
H1889 C1898 0.929 . S
C1890 H1884 0.930 . S
C1890 C1891 1.367 . S
C1890 C1898 1.378 . S
C1891 C1890 1.367 . S
C1891 C1899 1.433 . S
C1892 H1888 0.929 . S
C1892 C1894 1.378 . S
C1892 C1896 1.350 . S
C1893 C1896 1.463 . S
C1893 C1898 1.350 . S
C1893 N1901 1.427 . S
C1894 H1885 0.930 . S
C1894 C1892 1.378 . S
C1894 C1895 1.367 . S
C1895 C1894 1.367 . S
C1895 C1897 1.433 . S
C1896 C1892 1.350 . S
C1896 C1893 1.463 . S
C1896 N1900 1.427 . S
C1897 H1887 0.929 . S
C1897 C1895 1.433 . S
C1897 N1900 1.384 . S
C1898 H1889 0.929 . S
C1898 C1890 1.378 . S
C1898 C1893 1.350 . S
C1899 H1886 0.929 . S
C1899 C1891 1.433 . S
C1899 N1901 1.384 . S
N1900 C1896 1.427 . S
N1900 C1897 1.384 . S
N1901 C1893 1.427 . S
N1901 C1899 1.384 . S
H1902 C1908 0.930 . S
H1903 C1912 0.930 . S
H1904 C1917 0.929 . S
H1905 C1915 0.929 . S
H1906 C1910 0.929 . S
H1907 C1916 0.929 . S
C1908 H1902 0.930 . S
C1908 C1909 1.367 . S
C1908 C1916 1.378 . S
C1909 C1908 1.367 . S
C1909 C1917 1.433 . S
C1910 H1906 0.929 . S
C1910 C1912 1.378 . S
C1910 C1914 1.350 . S
C1911 C1914 1.463 . S
C1911 C1916 1.350 . S
C1911 N1919 1.427 . S
C1912 H1903 0.930 . S
C1912 C1910 1.378 . S
C1912 C1913 1.367 . S
C1913 C1912 1.367 . S
C1913 C1915 1.433 . S
C1914 C1910 1.350 . S
C1914 C1911 1.463 . S
C1914 N1918 1.427 . S
C1915 H1905 0.929 . S
C1915 C1913 1.433 . S
C1915 N1918 1.384 . S
C1916 H1907 0.929 . S
C1916 C1908 1.378 . S
C1916 C1911 1.350 . S
C1917 H1904 0.929 . S
C1917 C1909 1.433 . S
C1917 N1919 1.384 . S
N1918 C1914 1.427 . S
N1918 C1915 1.384 . S
N1919 C1911 1.427 . S
N1919 C1917 1.384 . S
H1920 C1926 0.930 . S
H1921 C1930 0.930 . S
H1922 C1935 0.929 . S
H1923 C1933 0.929 . S
H1924 C1928 0.929 . S
H1925 C1934 0.929 . S
C1926 H1920 0.930 . S
C1926 C1927 1.367 . S
C1926 C1934 1.378 . S
C1927 C1926 1.367 . S
C1927 C1935 1.433 . S
C1928 H1924 0.929 . S
C1928 C1930 1.378 . S
C1928 C1932 1.350 . S
C1929 C1932 1.463 . S
C1929 C1934 1.350 . S
C1929 N1937 1.427 . S
C1930 H1921 0.930 . S
C1930 C1928 1.378 . S
C1930 C1931 1.367 . S
C1931 C1930 1.367 . S
C1931 C1933 1.433 . S
C1932 C1928 1.350 . S
C1932 C1929 1.463 . S
C1932 N1936 1.427 . S
C1933 H1923 0.929 . S
C1933 C1931 1.433 . S
C1933 N1936 1.384 . S
C1934 H1925 0.929 . S
C1934 C1926 1.378 . S
C1934 C1929 1.350 . S
C1935 H1922 0.929 . S
C1935 C1927 1.433 . S
C1935 N1937 1.384 . S
N1936 C1932 1.427 . S
N1936 C1933 1.384 . S
N1937 C1929 1.427 . S
N1937 C1935 1.384 . S
H1938 C1944 0.930 . S
H1939 C1948 0.930 . S
H1940 C1953 0.929 . S
H1941 C1951 0.929 . S
H1942 C1946 0.929 . S
H1943 C1952 0.929 . S
C1944 H1938 0.930 . S
C1944 C1945 1.367 . S
C1944 C1952 1.378 . S
C1945 C1944 1.367 . S
C1945 C1953 1.433 . S
C1946 H1942 0.929 . S
C1946 C1948 1.378 . S
C1946 C1950 1.350 . S
C1947 C1950 1.463 . S
C1947 C1952 1.350 . S
C1947 N1955 1.427 . S
C1948 H1939 0.930 . S
C1948 C1946 1.378 . S
C1948 C1949 1.367 . S
C1949 C1948 1.367 . S
C1949 C1951 1.433 . S
C1950 C1946 1.350 . S
C1950 C1947 1.463 . S
C1950 N1954 1.427 . S
C1951 H1941 0.929 . S
C1951 C1949 1.433 . S
C1951 N1954 1.384 . S
C1952 H1943 0.929 . S
C1952 C1944 1.378 . S
C1952 C1947 1.350 . S
C1953 H1940 0.929 . S
C1953 C1945 1.433 . S
C1953 N1955 1.384 . S
N1954 C1950 1.427 . S
N1954 C1951 1.384 . S
N1955 C1947 1.427 . S
N1955 C1953 1.384 . S
H1956 C1962 0.930 . S
H1957 C1966 0.930 . S
H1958 C1971 0.929 . S
H1959 C1969 0.929 . S
H1960 C1964 0.929 . S
H1961 C1970 0.929 . S
C1962 H1956 0.930 . S
C1962 C1963 1.367 . S
C1962 C1970 1.378 . S
C1963 C1962 1.367 . S
C1963 C1971 1.433 . S
C1964 H1960 0.929 . S
C1964 C1966 1.378 . S
C1964 C1968 1.350 . S
C1965 C1968 1.463 . S
C1965 C1970 1.350 . S
C1965 N1973 1.427 . S
C1966 H1957 0.930 . S
C1966 C1964 1.378 . S
C1966 C1967 1.367 . S
C1967 C1966 1.367 . S
C1967 C1969 1.433 . S
C1968 C1964 1.350 . S
C1968 C1965 1.463 . S
C1968 N1972 1.427 . S
C1969 H1959 0.929 . S
C1969 C1967 1.433 . S
C1969 N1972 1.384 . S
C1970 H1961 0.929 . S
C1970 C1962 1.378 . S
C1970 C1965 1.350 . S
C1971 H1958 0.929 . S
C1971 C1963 1.433 . S
C1971 N1973 1.384 . S
N1972 C1968 1.427 . S
N1972 C1969 1.384 . S
N1973 C1965 1.427 . S
N1973 C1971 1.384 . S
H1974 C1980 0.930 . S
H1975 C1984 0.930 . S
H1976 C1989 0.929 . S
H1977 C1987 0.929 . S
H1978 C1982 0.929 . S
H1979 C1988 0.929 . S
C1980 H1974 0.930 . S
C1980 C1981 1.367 . S
C1980 C1988 1.378 . S
C1981 C1980 1.367 . S
C1981 C1989 1.433 . S
C1982 H1978 0.929 . S
C1982 C1984 1.378 . S
C1982 C1986 1.350 . S
C1983 C1986 1.463 . S
C1983 C1988 1.350 . S
C1983 N1991 1.427 . S
C1984 H1975 0.930 . S
C1984 C1982 1.378 . S
C1984 C1985 1.367 . S
C1985 C1984 1.367 . S
C1985 C1987 1.433 . S
C1986 C1982 1.350 . S
C1986 C1983 1.463 . S
C1986 N1990 1.427 . S
C1987 H1977 0.929 . S
C1987 C1985 1.433 . S
C1987 N1990 1.384 . S
C1988 H1979 0.929 . S
C1988 C1980 1.378 . S
C1988 C1983 1.350 . S
C1989 H1976 0.929 . S
C1989 C1981 1.433 . S
C1989 N1991 1.384 . S
N1990 C1986 1.427 . S
N1990 C1987 1.384 . S
N1991 C1983 1.427 . S
N1991 C1989 1.384 . S
H1992 C1998 0.930 . S
H1993 C2002 0.930 . S
H1994 C2007 0.929 . S
H1995 C2005 0.929 . S
H1996 C2000 0.929 . S
H1997 C2006 0.929 . S
C1998 H1992 0.930 . S
C1998 C1999 1.367 . S
C1998 C2006 1.378 . S
C1999 C1998 1.367 . S
C1999 C2007 1.433 . S
C2000 H1996 0.929 . S
C2000 C2002 1.378 . S
C2000 C2004 1.350 . S
C2001 C2004 1.463 . S
C2001 C2006 1.350 . S
C2001 N2009 1.427 . S
C2002 H1993 0.930 . S
C2002 C2000 1.378 . S
C2002 C2003 1.367 . S
C2003 C2002 1.367 . S
C2003 C2005 1.433 . S
C2004 C2000 1.350 . S
C2004 C2001 1.463 . S
C2004 N2008 1.427 . S
C2005 H1995 0.929 . S
C2005 C2003 1.433 . S
C2005 N2008 1.384 . S
C2006 H1997 0.929 . S
C2006 C1998 1.378 . S
C2006 C2001 1.350 . S
C2007 H1994 0.929 . S
C2007 C1999 1.433 . S
C2007 N2009 1.384 . S
N2008 C2004 1.427 . S
N2008 C2005 1.384 . S
N2009 C2001 1.427 . S
N2009 C2007 1.384 . S
H2010 C2016 0.930 . S
H2011 C2020 0.930 . S
H2012 C2025 0.929 . S
H2013 C2023 0.929 . S
H2014 C2018 0.929 . S
H2015 C2024 0.929 . S
C2016 H2010 0.930 . S
C2016 C2017 1.367 . S
C2016 C2024 1.378 . S
C2017 C2016 1.367 . S
C2017 C2025 1.433 . S
C2018 H2014 0.929 . S
C2018 C2020 1.378 . S
C2018 C2022 1.350 . S
C2019 C2022 1.463 . S
C2019 C2024 1.350 . S
C2019 N2027 1.427 . S
C2020 H2011 0.930 . S
C2020 C2018 1.378 . S
C2020 C2021 1.367 . S
C2021 C2020 1.367 . S
C2021 C2023 1.433 . S
C2022 C2018 1.350 . S
C2022 C2019 1.463 . S
C2022 N2026 1.427 . S
C2023 H2013 0.929 . S
C2023 C2021 1.433 . S
C2023 N2026 1.384 . S
C2024 H2015 0.929 . S
C2024 C2016 1.378 . S
C2024 C2019 1.350 . S
C2025 H2012 0.929 . S
C2025 C2017 1.433 . S
C2025 N2027 1.384 . S
N2026 C2022 1.427 . S
N2026 C2023 1.384 . S
N2027 C2019 1.427 . S
N2027 C2025 1.384 . S
H2028 C2034 0.930 . S
H2029 C2038 0.930 . S
H2030 C2043 0.929 . S
H2031 C2041 0.929 . S
H2032 C2036 0.929 . S
H2033 C2042 0.929 . S
C2034 H2028 0.930 . S
C2034 C2035 1.367 . S
C2034 C2042 1.378 . S
C2035 C2034 1.367 . S
C2035 C2043 1.433 . S
C2036 H2032 0.929 . S
C2036 C2038 1.378 . S
C2036 C2040 1.350 . S
C2037 C2040 1.463 . S
C2037 C2042 1.350 . S
C2037 N2045 1.427 . S
C2038 H2029 0.930 . S
C2038 C2036 1.378 . S
C2038 C2039 1.367 . S
C2039 C2038 1.367 . S
C2039 C2041 1.433 . S
C2040 C2036 1.350 . S
C2040 C2037 1.463 . S
C2040 N2044 1.427 . S
C2041 H2031 0.929 . S
C2041 C2039 1.433 . S
C2041 N2044 1.384 . S
C2042 H2033 0.929 . S
C2042 C2034 1.378 . S
C2042 C2037 1.350 . S
C2043 H2030 0.929 . S
C2043 C2035 1.433 . S
C2043 N2045 1.384 . S
N2044 C2040 1.427 . S
N2044 C2041 1.384 . S
N2045 C2037 1.427 . S
N2045 C2043 1.384 . S
H2046 C2052 0.930 . S
H2047 C2056 0.930 . S
H2048 C2061 0.929 . S
H2049 C2059 0.929 . S
H2050 C2054 0.929 . S
H2051 C2060 0.929 . S
C2052 H2046 0.930 . S
C2052 C2053 1.367 . S
C2052 C2060 1.378 . S
C2053 C2052 1.367 . S
C2053 C2061 1.433 . S
C2054 H2050 0.929 . S
C2054 C2056 1.378 . S
C2054 C2058 1.350 . S
C2055 C2058 1.463 . S
C2055 C2060 1.350 . S
C2055 N2063 1.427 . S
C2056 H2047 0.930 . S
C2056 C2054 1.378 . S
C2056 C2057 1.367 . S
C2057 C2056 1.367 . S
C2057 C2059 1.433 . S
C2058 C2054 1.350 . S
C2058 C2055 1.463 . S
C2058 N2062 1.427 . S
C2059 H2049 0.929 . S
C2059 C2057 1.433 . S
C2059 N2062 1.384 . S
C2060 H2051 0.929 . S
C2060 C2052 1.378 . S
C2060 C2055 1.350 . S
C2061 H2048 0.929 . S
C2061 C2053 1.433 . S
C2061 N2063 1.384 . S
N2062 C2058 1.427 . S
N2062 C2059 1.384 . S
N2063 C2055 1.427 . S
N2063 C2061 1.384 . S
H2064 C2070 0.930 . S
H2065 C2074 0.930 . S
H2066 C2079 0.929 . S
H2067 C2077 0.929 . S
H2068 C2072 0.929 . S
H2069 C2078 0.929 . S
C2070 H2064 0.930 . S
C2070 C2071 1.367 . S
C2070 C2078 1.378 . S
C2071 C2070 1.367 . S
C2071 C2079 1.433 . S
C2072 H2068 0.929 . S
C2072 C2074 1.378 . S
C2072 C2076 1.350 . S
C2073 C2076 1.463 . S
C2073 C2078 1.350 . S
C2073 N2081 1.427 . S
C2074 H2065 0.930 . S
C2074 C2072 1.378 . S
C2074 C2075 1.367 . S
C2075 C2074 1.367 . S
C2075 C2077 1.433 . S
C2076 C2072 1.350 . S
C2076 C2073 1.463 . S
C2076 N2080 1.427 . S
C2077 H2067 0.929 . S
C2077 C2075 1.433 . S
C2077 N2080 1.384 . S
C2078 H2069 0.929 . S
C2078 C2070 1.378 . S
C2078 C2073 1.350 . S
C2079 H2066 0.929 . S
C2079 C2071 1.433 . S
C2079 N2081 1.384 . S
N2080 C2076 1.427 . S
N2080 C2077 1.384 . S
N2081 C2073 1.427 . S
N2081 C2079 1.384 . S
H2082 C2088 0.930 . S
H2083 C2092 0.930 . S
H2084 C2097 0.929 . S
H2085 C2095 0.929 . S
H2086 C2090 0.929 . S
H2087 C2096 0.929 . S
C2088 H2082 0.930 . S
C2088 C2089 1.367 . S
C2088 C2096 1.378 . S
C2089 C2088 1.367 . S
C2089 C2097 1.433 . S
C2090 H2086 0.929 . S
C2090 C2092 1.378 . S
C2090 C2094 1.350 . S
C2091 C2094 1.463 . S
C2091 C2096 1.350 . S
C2091 N2099 1.427 . S
C2092 H2083 0.930 . S
C2092 C2090 1.378 . S
C2092 C2093 1.367 . S
C2093 C2092 1.367 . S
C2093 C2095 1.433 . S
C2094 C2090 1.350 . S
C2094 C2091 1.463 . S
C2094 N2098 1.427 . S
C2095 H2085 0.929 . S
C2095 C2093 1.433 . S
C2095 N2098 1.384 . S
C2096 H2087 0.929 . S
C2096 C2088 1.378 . S
C2096 C2091 1.350 . S
C2097 H2084 0.929 . S
C2097 C2089 1.433 . S
C2097 N2099 1.384 . S
N2098 C2094 1.427 . S
N2098 C2095 1.384 . S
N2099 C2091 1.427 . S
N2099 C2097 1.384 . S
H2100 C2106 0.930 . S
H2101 C2110 0.930 . S
H2102 C2115 0.929 . S
H2103 C2113 0.929 . S
H2104 C2108 0.929 . S
H2105 C2114 0.929 . S
C2106 H2100 0.930 . S
C2106 C2107 1.367 . S
C2106 C2114 1.378 . S
C2107 C2106 1.367 . S
C2107 C2115 1.433 . S
C2108 H2104 0.929 . S
C2108 C2110 1.378 . S
C2108 C2112 1.350 . S
C2109 C2112 1.463 . S
C2109 C2114 1.350 . S
C2109 N2117 1.427 . S
C2110 H2101 0.930 . S
C2110 C2108 1.378 . S
C2110 C2111 1.367 . S
C2111 C2110 1.367 . S
C2111 C2113 1.433 . S
C2112 C2108 1.350 . S
C2112 C2109 1.463 . S
C2112 N2116 1.427 . S
C2113 H2103 0.929 . S
C2113 C2111 1.433 . S
C2113 N2116 1.384 . S
C2114 H2105 0.929 . S
C2114 C2106 1.378 . S
C2114 C2109 1.350 . S
C2115 H2102 0.929 . S
C2115 C2107 1.433 . S
C2115 N2117 1.384 . S
N2116 C2112 1.427 . S
N2116 C2113 1.384 . S
N2117 C2109 1.427 . S
N2117 C2115 1.384 . S
H2118 C2124 0.930 . S
H2119 C2128 0.930 . S
H2120 C2133 0.929 . S
H2121 C2131 0.929 . S
H2122 C2126 0.929 . S
H2123 C2132 0.929 . S
C2124 H2118 0.930 . S
C2124 C2125 1.367 . S
C2124 C2132 1.378 . S
C2125 C2124 1.367 . S
C2125 C2133 1.433 . S
C2126 H2122 0.929 . S
C2126 C2128 1.378 . S
C2126 C2130 1.350 . S
C2127 C2130 1.463 . S
C2127 C2132 1.350 . S
C2127 N2135 1.427 . S
C2128 H2119 0.930 . S
C2128 C2126 1.378 . S
C2128 C2129 1.367 . S
C2129 C2128 1.367 . S
C2129 C2131 1.433 . S
C2130 C2126 1.350 . S
C2130 C2127 1.463 . S
C2130 N2134 1.427 . S
C2131 H2121 0.929 . S
C2131 C2129 1.433 . S
C2131 N2134 1.384 . S
C2132 H2123 0.929 . S
C2132 C2124 1.378 . S
C2132 C2127 1.350 . S
C2133 H2120 0.929 . S
C2133 C2125 1.433 . S
C2133 N2135 1.384 . S
N2134 C2130 1.427 . S
N2134 C2131 1.384 . S
N2135 C2127 1.427 . S
N2135 C2133 1.384 . S
H2136 C2142 0.930 . S
H2137 C2146 0.930 . S
H2138 C2151 0.929 . S
H2139 C2149 0.929 . S
H2140 C2144 0.929 . S
H2141 C2150 0.929 . S
C2142 H2136 0.930 . S
C2142 C2143 1.367 . S
C2142 C2150 1.378 . S
C2143 C2142 1.367 . S
C2143 C2151 1.433 . S
C2144 H2140 0.929 . S
C2144 C2146 1.378 . S
C2144 C2148 1.350 . S
C2145 C2148 1.463 . S
C2145 C2150 1.350 . S
C2145 N2153 1.427 . S
C2146 H2137 0.930 . S
C2146 C2144 1.378 . S
C2146 C2147 1.367 . S
C2147 C2146 1.367 . S
C2147 C2149 1.433 . S
C2148 C2144 1.350 . S
C2148 C2145 1.463 . S
C2148 N2152 1.427 . S
C2149 H2139 0.929 . S
C2149 C2147 1.433 . S
C2149 N2152 1.384 . S
C2150 H2141 0.929 . S
C2150 C2142 1.378 . S
C2150 C2145 1.350 . S
C2151 H2138 0.929 . S
C2151 C2143 1.433 . S
C2151 N2153 1.384 . S
N2152 C2148 1.427 . S
N2152 C2149 1.384 . S
N2153 C2145 1.427 . S
N2153 C2151 1.384 . S
H2154 C2160 0.930 . S
H2155 C2164 0.930 . S
H2156 C2169 0.929 . S
H2157 C2167 0.929 . S
H2158 C2162 0.929 . S
H2159 C2168 0.929 . S
C2160 H2154 0.930 . S
C2160 C2161 1.367 . S
C2160 C2168 1.378 . S
C2161 C2160 1.367 . S
C2161 C2169 1.433 . S
C2162 H2158 0.929 . S
C2162 C2164 1.378 . S
C2162 C2166 1.350 . S
C2163 C2166 1.463 . S
C2163 C2168 1.350 . S
C2163 N2171 1.427 . S
C2164 H2155 0.930 . S
C2164 C2162 1.378 . S
C2164 C2165 1.367 . S
C2165 C2164 1.367 . S
C2165 C2167 1.433 . S
C2166 C2162 1.350 . S
C2166 C2163 1.463 . S
C2166 N2170 1.427 . S
C2167 H2157 0.929 . S
C2167 C2165 1.433 . S
C2167 N2170 1.384 . S
C2168 H2159 0.929 . S
C2168 C2160 1.378 . S
C2168 C2163 1.350 . S
C2169 H2156 0.929 . S
C2169 C2161 1.433 . S
C2169 N2171 1.384 . S
N2170 C2166 1.427 . S
N2170 C2167 1.384 . S
N2171 C2163 1.427 . S
N2171 C2169 1.384 . S
H2172 C2178 0.930 . S
H2173 C2182 0.930 . S
H2174 C2187 0.929 . S
H2175 C2185 0.929 . S
H2176 C2180 0.929 . S
H2177 C2186 0.929 . S
C2178 H2172 0.930 . S
C2178 C2179 1.367 . S
C2178 C2186 1.378 . S
C2179 C2178 1.367 . S
C2179 C2187 1.433 . S
C2180 H2176 0.929 . S
C2180 C2182 1.378 . S
C2180 C2184 1.350 . S
C2181 C2184 1.463 . S
C2181 C2186 1.350 . S
C2181 N2189 1.427 . S
C2182 H2173 0.930 . S
C2182 C2180 1.378 . S
C2182 C2183 1.367 . S
C2183 C2182 1.367 . S
C2183 C2185 1.433 . S
C2184 C2180 1.350 . S
C2184 C2181 1.463 . S
C2184 N2188 1.427 . S
C2185 H2175 0.929 . S
C2185 C2183 1.433 . S
C2185 N2188 1.384 . S
C2186 H2177 0.929 . S
C2186 C2178 1.378 . S
C2186 C2181 1.350 . S
C2187 H2174 0.929 . S
C2187 C2179 1.433 . S
C2187 N2189 1.384 . S
N2188 C2184 1.427 . S
N2188 C2185 1.384 . S
N2189 C2181 1.427 . S
N2189 C2187 1.384 . S
H2190 C2196 0.930 . S
H2191 C2200 0.930 . S
H2192 C2205 0.929 . S
H2193 C2203 0.929 . S
H2194 C2198 0.929 . S
H2195 C2204 0.929 . S
C2196 H2190 0.930 . S
C2196 C2197 1.367 . S
C2196 C2204 1.378 . S
C2197 C2196 1.367 . S
C2197 C2205 1.433 . S
C2198 H2194 0.929 . S
C2198 C2200 1.378 . S
C2198 C2202 1.350 . S
C2199 C2202 1.463 . S
C2199 C2204 1.350 . S
C2199 N2207 1.427 . S
C2200 H2191 0.930 . S
C2200 C2198 1.378 . S
C2200 C2201 1.367 . S
C2201 C2200 1.367 . S
C2201 C2203 1.433 . S
C2202 C2198 1.350 . S
C2202 C2199 1.463 . S
C2202 N2206 1.427 . S
C2203 H2193 0.929 . S
C2203 C2201 1.433 . S
C2203 N2206 1.384 . S
C2204 H2195 0.929 . S
C2204 C2196 1.378 . S
C2204 C2199 1.350 . S
C2205 H2192 0.929 . S
C2205 C2197 1.433 . S
C2205 N2207 1.384 . S
N2206 C2202 1.427 . S
N2206 C2203 1.384 . S
N2207 C2199 1.427 . S
N2207 C2205 1.384 . S
H2208 C2214 0.930 . S
H2209 C2218 0.930 . S
H2210 C2223 0.929 . S
H2211 C2221 0.929 . S
H2212 C2216 0.929 . S
H2213 C2222 0.929 . S
C2214 H2208 0.930 . S
C2214 C2215 1.367 . S
C2214 C2222 1.378 . S
C2215 C2214 1.367 . S
C2215 C2223 1.433 . S
C2216 H2212 0.929 . S
C2216 C2218 1.378 . S
C2216 C2220 1.350 . S
C2217 C2220 1.463 . S
C2217 C2222 1.350 . S
C2217 N2225 1.427 . S
C2218 H2209 0.930 . S
C2218 C2216 1.378 . S
C2218 C2219 1.367 . S
C2219 C2218 1.367 . S
C2219 C2221 1.433 . S
C2220 C2216 1.350 . S
C2220 C2217 1.463 . S
C2220 N2224 1.427 . S
C2221 H2211 0.929 . S
C2221 C2219 1.433 . S
C2221 N2224 1.384 . S
C2222 H2213 0.929 . S
C2222 C2214 1.378 . S
C2222 C2217 1.350 . S
C2223 H2210 0.929 . S
C2223 C2215 1.433 . S
C2223 N2225 1.384 . S
N2224 C2220 1.427 . S
N2224 C2221 1.384 . S
N2225 C2217 1.427 . S
N2225 C2223 1.384 . S
H2226 C2232 0.930 . S
H2227 C2236 0.930 . S
H2228 C2241 0.929 . S
H2229 C2239 0.929 . S
H2230 C2234 0.929 . S
H2231 C2240 0.929 . S
C2232 H2226 0.930 . S
C2232 C2233 1.367 . S
C2232 C2240 1.378 . S
C2233 C2232 1.367 . S
C2233 C2241 1.433 . S
C2234 H2230 0.929 . S
C2234 C2236 1.378 . S
C2234 C2238 1.350 . S
C2235 C2238 1.463 . S
C2235 C2240 1.350 . S
C2235 N2243 1.427 . S
C2236 H2227 0.930 . S
C2236 C2234 1.378 . S
C2236 C2237 1.367 . S
C2237 C2236 1.367 . S
C2237 C2239 1.433 . S
C2238 C2234 1.350 . S
C2238 C2235 1.463 . S
C2238 N2242 1.427 . S
C2239 H2229 0.929 . S
C2239 C2237 1.433 . S
C2239 N2242 1.384 . S
C2240 H2231 0.929 . S
C2240 C2232 1.378 . S
C2240 C2235 1.350 . S
C2241 H2228 0.929 . S
C2241 C2233 1.433 . S
C2241 N2243 1.384 . S
N2242 C2238 1.427 . S
N2242 C2239 1.384 . S
N2243 C2235 1.427 . S
N2243 C2241 1.384 . S
H2244 C2250 0.930 . S
H2245 C2254 0.930 . S
H2246 C2259 0.929 . S
H2247 C2257 0.929 . S
H2248 C2252 0.929 . S
H2249 C2258 0.929 . S
C2250 H2244 0.930 . S
C2250 C2251 1.367 . S
C2250 C2258 1.378 . S
C2251 C2250 1.367 . S
C2251 C2259 1.433 . S
C2252 H2248 0.929 . S
C2252 C2254 1.378 . S
C2252 C2256 1.350 . S
C2253 C2256 1.463 . S
C2253 C2258 1.350 . S
C2253 N2261 1.427 . S
C2254 H2245 0.930 . S
C2254 C2252 1.378 . S
C2254 C2255 1.367 . S
C2255 C2254 1.367 . S
C2255 C2257 1.433 . S
C2256 C2252 1.350 . S
C2256 C2253 1.463 . S
C2256 N2260 1.427 . S
C2257 H2247 0.929 . S
C2257 C2255 1.433 . S
C2257 N2260 1.384 . S
C2258 H2249 0.929 . S
C2258 C2250 1.378 . S
C2258 C2253 1.350 . S
C2259 H2246 0.929 . S
C2259 C2251 1.433 . S
C2259 N2261 1.384 . S
N2260 C2256 1.427 . S
N2260 C2257 1.384 . S
N2261 C2253 1.427 . S
N2261 C2259 1.384 . S
H2262 C2268 0.930 . S
H2263 C2272 0.930 . S
H2264 C2277 0.929 . S
H2265 C2275 0.929 . S
H2266 C2270 0.929 . S
H2267 C2276 0.929 . S
C2268 H2262 0.930 . S
C2268 C2269 1.367 . S
C2268 C2276 1.378 . S
C2269 C2268 1.367 . S
C2269 C2277 1.433 . S
C2270 H2266 0.929 . S
C2270 C2272 1.378 . S
C2270 C2274 1.350 . S
C2271 C2274 1.463 . S
C2271 C2276 1.350 . S
C2271 N2279 1.427 . S
C2272 H2263 0.930 . S
C2272 C2270 1.378 . S
C2272 C2273 1.367 . S
C2273 C2272 1.367 . S
C2273 C2275 1.433 . S
C2274 C2270 1.350 . S
C2274 C2271 1.463 . S
C2274 N2278 1.427 . S
C2275 H2265 0.929 . S
C2275 C2273 1.433 . S
C2275 N2278 1.384 . S
C2276 H2267 0.929 . S
C2276 C2268 1.378 . S
C2276 C2271 1.350 . S
C2277 H2264 0.929 . S
C2277 C2269 1.433 . S
C2277 N2279 1.384 . S
N2278 C2274 1.427 . S
N2278 C2275 1.384 . S
N2279 C2271 1.427 . S
N2279 C2277 1.384 . S
H2280 C2286 0.930 . S
H2281 C2290 0.930 . S
H2282 C2295 0.929 . S
H2283 C2293 0.929 . S
H2284 C2288 0.929 . S
H2285 C2294 0.929 . S
C2286 H2280 0.930 . S
C2286 C2287 1.367 . S
C2286 C2294 1.378 . S
C2287 C2286 1.367 . S
C2287 C2295 1.433 . S
C2288 H2284 0.929 . S
C2288 C2290 1.378 . S
C2288 C2292 1.350 . S
C2289 C2292 1.463 . S
C2289 C2294 1.350 . S
C2289 N2297 1.427 . S
C2290 H2281 0.930 . S
C2290 C2288 1.378 . S
C2290 C2291 1.367 . S
C2291 C2290 1.367 . S
C2291 C2293 1.433 . S
C2292 C2288 1.350 . S
C2292 C2289 1.463 . S
C2292 N2296 1.427 . S
C2293 H2283 0.929 . S
C2293 C2291 1.433 . S
C2293 N2296 1.384 . S
C2294 H2285 0.929 . S
C2294 C2286 1.378 . S
C2294 C2289 1.350 . S
C2295 H2282 0.929 . S
C2295 C2287 1.433 . S
C2295 N2297 1.384 . S
N2296 C2292 1.427 . S
N2296 C2293 1.384 . S
N2297 C2289 1.427 . S
N2297 C2295 1.384 . S
H2298 C2304 0.930 . S
H2299 C2308 0.930 . S
H2300 C2313 0.929 . S
H2301 C2311 0.929 . S
H2302 C2306 0.929 . S
H2303 C2312 0.929 . S
C2304 H2298 0.930 . S
C2304 C2305 1.367 . S
C2304 C2312 1.378 . S
C2305 C2304 1.367 . S
C2305 C2313 1.433 . S
C2306 H2302 0.929 . S
C2306 C2308 1.378 . S
C2306 C2310 1.350 . S
C2307 C2310 1.463 . S
C2307 C2312 1.350 . S
C2307 N2315 1.427 . S
C2308 H2299 0.930 . S
C2308 C2306 1.378 . S
C2308 C2309 1.367 . S
C2309 C2308 1.367 . S
C2309 C2311 1.433 . S
C2310 C2306 1.350 . S
C2310 C2307 1.463 . S
C2310 N2314 1.427 . S
C2311 H2301 0.929 . S
C2311 C2309 1.433 . S
C2311 N2314 1.384 . S
C2312 H2303 0.929 . S
C2312 C2304 1.378 . S
C2312 C2307 1.350 . S
C2313 H2300 0.929 . S
C2313 C2305 1.433 . S
C2313 N2315 1.384 . S
N2314 C2310 1.427 . S
N2314 C2311 1.384 . S
N2315 C2307 1.427 . S
N2315 C2313 1.384 . S
H2316 C2322 0.930 . S
H2317 C2326 0.930 . S
H2318 C2331 0.929 . S
H2319 C2329 0.929 . S
H2320 C2324 0.929 . S
H2321 C2330 0.929 . S
C2322 H2316 0.930 . S
C2322 C2323 1.367 . S
C2322 C2330 1.378 . S
C2323 C2322 1.367 . S
C2323 C2331 1.433 . S
C2324 H2320 0.929 . S
C2324 C2326 1.378 . S
C2324 C2328 1.350 . S
C2325 C2328 1.463 . S
C2325 C2330 1.350 . S
C2325 N2333 1.427 . S
C2326 H2317 0.930 . S
C2326 C2324 1.378 . S
C2326 C2327 1.367 . S
C2327 C2326 1.367 . S
C2327 C2329 1.433 . S
C2328 C2324 1.350 . S
C2328 C2325 1.463 . S
C2328 N2332 1.427 . S
C2329 H2319 0.929 . S
C2329 C2327 1.433 . S
C2329 N2332 1.384 . S
C2330 H2321 0.929 . S
C2330 C2322 1.378 . S
C2330 C2325 1.350 . S
C2331 H2318 0.929 . S
C2331 C2323 1.433 . S
C2331 N2333 1.384 . S
N2332 C2328 1.427 . S
N2332 C2329 1.384 . S
N2333 C2325 1.427 . S
N2333 C2331 1.384 . S
H2334 C2340 0.930 . S
H2335 C2344 0.930 . S
H2336 C2349 0.929 . S
H2337 C2347 0.929 . S
H2338 C2342 0.929 . S
H2339 C2348 0.929 . S
C2340 H2334 0.930 . S
C2340 C2341 1.367 . S
C2340 C2348 1.378 . S
C2341 C2340 1.367 . S
C2341 C2349 1.433 . S
C2342 H2338 0.929 . S
C2342 C2344 1.378 . S
C2342 C2346 1.350 . S
C2343 C2346 1.463 . S
C2343 C2348 1.350 . S
C2343 N2351 1.427 . S
C2344 H2335 0.930 . S
C2344 C2342 1.378 . S
C2344 C2345 1.367 . S
C2345 C2344 1.367 . S
C2345 C2347 1.433 . S
C2346 C2342 1.350 . S
C2346 C2343 1.463 . S
C2346 N2350 1.427 . S
C2347 H2337 0.929 . S
C2347 C2345 1.433 . S
C2347 N2350 1.384 . S
C2348 H2339 0.929 . S
C2348 C2340 1.378 . S
C2348 C2343 1.350 . S
C2349 H2336 0.929 . S
C2349 C2341 1.433 . S
C2349 N2351 1.384 . S
N2350 C2346 1.427 . S
N2350 C2347 1.384 . S
N2351 C2343 1.427 . S
N2351 C2349 1.384 . S
C631 C403 1.293 . S
C635 C10 1.345 . S
C649 C13 1.301 . S
C653 C374 1.344 . S
C667 C36 1.344 . S
C671 C377 1.300 . S
C685 C400 1.345 . S
C689 C39 1.288 . S
C703 C325 1.284 . S
C707 C62 1.345 . S
C721 C65 1.284 . S
C725 C348 1.345 . S
C739 C351 1.288 . S
C743 C88 1.344 . S
C757 C91 1.301 . S
C761 C322 1.344 . S
C775 C104 0.981 . S
C779 C572 0.984 . S
C793 C533 1.289 . S
C797 C127 1.344 . S
C811 C546 0.978 . S
C815 C130 0.993 . S
C829 C153 1.345 . S
C833 C559 1.286 . S
C847 C156 0.999 . S
C851 C611 0.992 . S
C865 C179 1.344 . S
C869 C585 1.288 . S
C883 C182 0.998 . S
C887 C598 0.981 . S
C901 C520 1.290 . S
C905 C205 1.345 . S
C919 C517 1.344 . S
C923 C208 1.300 . S
C937 C221 1.285 . S
C941 C439 1.345 . S
C955 C442 0.981 . S
C959 C234 0.984 . S
C973 C247 1.301 . S
C977 C465 1.344 . S
C991 C416 0.979 . S
C995 C260 0.989 . S
C1009 C491 1.344 . S
C1013 C273 1.293 . S
C1027 C286 0.978 . S
C1031 C494 0.993 . S
C1045 C468 1.000 . S
C1049 C299 0.984 . S
C1063 C122 1.129 . S
C1067 C5 1.112 . S
C1081 C138 1.317 . S
C1085 C21 1.319 . S
C1099 C31 1.119 . S
C1103 C148 1.115 . S
C1117 C112 1.315 . S
C1121 C47 1.318 . S
C1135 C57 1.129 . S
C1139 C200 1.113 . S
C1153 C164 1.302 . S
C1157 C73 1.305 . S
C1171 C174 1.111 . S
C1175 C83 1.126 . S
C1189 C190 1.317 . S
C1193 C99 1.319 . S
C1207 C242 1.302 . S
C1211 C216 1.305 . S
C1225 C294 1.313 . S
C1229 C229 1.316 . S
C1243 C307 1.308 . S
C1247 C255 1.311 . S
C1261 C268 1.301 . S
C1265 C281 1.304 . S
C1279 C434 1.124 . S
C1283 C317 1.112 . S
C1297 C450 1.306 . S
C1301 C333 1.309 . S
C1315 C460 1.121 . S
C1319 C343 1.114 . S
C1333 C359 1.305 . S
C1337 C424 1.302 . S
C1351 C369 1.113 . S
C1355 C512 1.123 . S
C1369 C385 1.306 . S
C1373 C476 1.304 . S
C1387 C486 1.126 . S
C1391 C395 1.119 . S
C1405 C502 1.316 . S
C1409 C411 1.319 . S
C1423 C528 1.304 . S
C1427 C554 1.301 . S
C1441 C606 1.316 . S
C1445 C541 1.319 . S
C1459 C619 1.301 . S
C1463 C567 1.304 . S
C1477 C593 1.306 . S
C1481 C580 1.303 . S
C1495 C0 1.155 . S
C1499 C239 1.135 . S
C1513 C23 1.405 . S
C1517 C252 1.297 . S
C1531 C26 1.158 . S
C1535 C265 1.136 . S
C1549 C226 1.319 . S
C1553 C49 1.408 . S
C1567 C52 1.144 . S
C1571 C291 1.123 . S
C1585 C75 1.406 . S
C1589 C213 1.303 . S
C1603 C304 1.118 . S
C1607 C78 1.141 . S
C1621 C278 1.316 . S
C1625 C101 1.408 . S
C1639 C114 1.325 . S
C1643 C125 1.255 . S
C1657 C117 1.152 . S
C1661 C135 1.126 . S
C1675 C140 1.324 . S
C1679 C151 1.248 . S
C1693 C109 1.132 . S
C1697 C143 1.156 . S
C1711 C203 1.266 . S
C1715 C166 1.329 . S
C1729 C161 1.117 . S
C1733 C169 1.140 . S
C1747 C177 1.251 . S
C1751 C192 1.324 . S
C1765 C195 1.139 . S
C1769 C187 1.113 . S
C1783 C44 1.309 . S
C1787 C218 1.407 . S
C1801 C70 1.319 . S
C1805 C231 1.408 . S
C1819 C86 1.268 . S
C1823 C244 1.329 . S
C1837 C257 1.408 . S
C1841 C96 1.312 . S
C1855 C60 1.265 . S
C1859 C270 1.328 . S
C1873 C18 1.299 . S
C1877 C283 1.405 . S
C1891 C34 1.248 . S
C1895 C296 1.324 . S
C1909 C8 1.267 . S
C1913 C309 1.329 . S
C1927 C551 1.115 . S
C1931 C312 1.139 . S
C1945 C335 1.407 . S
C1949 C564 1.304 . S
C1963 C577 1.127 . S
C1967 C338 1.153 . S
C1981 C538 1.316 . S
C1985 C361 1.408 . S
C1999 C364 1.138 . S
C2003 C603 1.113 . S
C2017 C387 1.405 . S
C2021 C525 1.298 . S
C2035 C616 1.113 . S
C2039 C390 1.138 . S
C2053 C413 1.406 . S
C2057 C590 1.302 . S
C2071 C426 1.329 . S
C2075 C437 1.265 . S
C2089 C429 1.139 . S
C2093 C447 1.112 . S
C2107 C452 1.328 . S
C2111 C463 1.264 . S
C2125 C455 1.140 . S
C2129 C421 1.117 . S
C2143 C515 1.255 . S
C2147 C478 1.327 . S
C2161 C473 1.131 . S
C2165 C481 1.156 . S
C2179 C489 1.248 . S
C2183 C504 1.325 . S
C2197 C507 1.138 . S
C2201 C499 1.113 . S
C2215 C356 1.318 . S
C2219 C530 1.408 . S
C2233 C382 1.297 . S
C2237 C543 1.405 . S
C2251 C398 1.250 . S
C2255 C556 1.325 . S
C2269 C569 1.405 . S
C2273 C408 1.301 . S
C2287 C372 1.268 . S
C2291 C582 1.328 . S
C2305 C330 1.319 . S
C2309 C595 1.408 . S
C2323 C608 1.329 . S
C2327 C346 1.268 . S
C2341 C320 1.249 . S
C2345 C621 1.324 . S
