# Generated by pormake.
# Topology wke, (5)-cn, num edge types: 1
# Building blocks:
#     Node 0, Type 0, BuildingBlock: XOMCOT_clean_sbu_0, # of connection points: 5
#     Node 1, Type 0, BuildingBlock: XOMCOT_clean_sbu_0, # of connection points: 5
#     Node 2, Type 0, BuildingBlock: XOMCOT_clean_sbu_0, # of connection points: 5
#     Node 3, Type 0, BuildingBlock: XOMCOT_clean_sbu_0, # of connection points: 5
#     Node 4, Type 0, BuildingBlock: XOMCOT_clean_sbu_0, # of connection points: 5
#     Node 5, Type 0, BuildingBlock: XOMCOT_clean_sbu_0, # of connection points: 5
#     Node 6, Type 0, BuildingBlock: XOMCOT_clean_sbu_0, # of connection points: 5
#     Node 7, Type 0, BuildingBlock: XOMCOT_clean_sbu_0, # of connection points: 5
#     Node 8, Type 0, BuildingBlock: XOMCOT_clean_sbu_0, # of connection points: 5
#     Node 9, Type 0, BuildingBlock: XOMCOT_clean_sbu_0, # of connection points: 5
#     Node 10, Type 0, BuildingBlock: XOMCOT_clean_sbu_0, # of connection points: 5
#     Node 11, Type 0, BuildingBlock: XOMCOT_clean_sbu_0, # of connection points: 5
#     Edge 12, Type (0, 0), BuildingBlock: UVAHIK_clean_linker_0, # of connection points: 2
#     Edge 13, Type (0, 0), BuildingBlock: UVAHIK_clean_linker_0, # of connection points: 2
#     Edge 14, Type (0, 0), BuildingBlock: UVAHIK_clean_linker_0, # of connection points: 2
#     Edge 15, Type (0, 0), BuildingBlock: UVAHIK_clean_linker_0, # of connection points: 2
#     Edge 16, Type (0, 0), BuildingBlock: UVAHIK_clean_linker_0, # of connection points: 2
#     Edge 17, Type (0, 0), BuildingBlock: UVAHIK_clean_linker_0, # of connection points: 2
#     Edge 18, Type (0, 0), BuildingBlock: UVAHIK_clean_linker_0, # of connection points: 2
#     Edge 19, Type (0, 0), BuildingBlock: UVAHIK_clean_linker_0, # of connection points: 2
#     Edge 20, Type (0, 0), BuildingBlock: UVAHIK_clean_linker_0, # of connection points: 2
#     Edge 21, Type (0, 0), BuildingBlock: UVAHIK_clean_linker_0, # of connection points: 2
#     Edge 22, Type (0, 0), BuildingBlock: UVAHIK_clean_linker_0, # of connection points: 2
#     Edge 23, Type (0, 0), BuildingBlock: UVAHIK_clean_linker_0, # of connection points: 2
#     Edge 24, Type (0, 0), BuildingBlock: UVAHIK_clean_linker_0, # of connection points: 2
#     Edge 25, Type (0, 0), BuildingBlock: UVAHIK_clean_linker_0, # of connection points: 2
#     Edge 26, Type (0, 0), BuildingBlock: UVAHIK_clean_linker_0, # of connection points: 2
#     Edge 27, Type (0, 0), BuildingBlock: UVAHIK_clean_linker_0, # of connection points: 2
#     Edge 28, Type (0, 0), BuildingBlock: UVAHIK_clean_linker_0, # of connection points: 2
#     Edge 29, Type (0, 0), BuildingBlock: UVAHIK_clean_linker_0, # of connection points: 2
#     Edge 30, Type (0, 0), BuildingBlock: UVAHIK_clean_linker_0, # of connection points: 2
#     Edge 31, Type (0, 0), BuildingBlock: UVAHIK_clean_linker_0, # of connection points: 2
#     Edge 32, Type (0, 0), BuildingBlock: UVAHIK_clean_linker_0, # of connection points: 2
#     Edge 33, Type (0, 0), BuildingBlock: UVAHIK_clean_linker_0, # of connection points: 2
#     Edge 34, Type (0, 0), BuildingBlock: UVAHIK_clean_linker_0, # of connection points: 2
#     Edge 35, Type (0, 0), BuildingBlock: UVAHIK_clean_linker_0, # of connection points: 2
#     Edge 36, Type (0, 0), BuildingBlock: UVAHIK_clean_linker_0, # of connection points: 2
#     Edge 37, Type (0, 0), BuildingBlock: UVAHIK_clean_linker_0, # of connection points: 2
#     Edge 38, Type (0, 0), BuildingBlock: UVAHIK_clean_linker_0, # of connection points: 2
#     Edge 39, Type (0, 0), BuildingBlock: UVAHIK_clean_linker_0, # of connection points: 2
#     Edge 40, Type (0, 0), BuildingBlock: UVAHIK_clean_linker_0, # of connection points: 2
#     Edge 41, Type (0, 0), BuildingBlock: UVAHIK_clean_linker_0, # of connection points: 2
# Relax obj value: 0.149
# Max RMSD: 0.151
# Mean RMSD: 0.151
data_MOF--net-wke--node1-XOMCOT_clean_sbu_0--edge1-UVAHIK_clean_linker_0
_symmetry_space_group_name_H-M    P1
_symmetry_Int_Tables_number       1
_symmetry_cell_setting            triclinic
loop_
_symmetry_equiv_pos_as_xyz
'x, y, z'
_cell_length_a     90.57306
_cell_length_b     90.495683
_cell_length_c     22.047526
_cell_angle_alpha  89.998429
_cell_angle_beta   90.004312
_cell_angle_gamma 119.96293
loop_
_atom_site_label
_atom_site_type_symbol
_atom_site_fract_x
_atom_site_fract_y
_atom_site_fract_z
_atom_type_partial_charge
Co0 Co 0.10592 0.42468 0.2987 0.0
C1 C 0.10162 0.42167 0.16359 0.0
C2 C 0.08498 0.39841 0.20999 0.0
C3 C 0.08278 0.39542 0.14864 0.0
N4 N 0.09649 0.41499 0.21964 0.0
N5 N 0.09328 0.41007 0.11944 0.0
H6 H 0.11199 0.43431 0.15469 0.0
H7 H 0.07893 0.38896 0.2453 0.0
C8 C 0.0685 0.4088 0.31458 0.0
O9 O 0.06837 0.41632 0.26372 0.0
N10 N 0.11539 0.43381 0.37733 0.0
C11 C 0.12877 0.44939 0.38869 0.0
C12 C 0.13091 0.45147 0.4505 0.0
C13 C 0.10962 0.42654 0.43202 0.0
N14 N 0.11884 0.43711 0.47767 0.0
C15 C 0.11272 0.45645 0.24428 0.0
C16 C 0.09244 0.46258 0.32189 0.0
C17 C 0.10164 0.47459 0.27676 0.0
C18 C 0.11196 0.47141 0.23781 0.0
C19 C 0.09355 0.4478 0.32666 0.0
N20 N 0.10297 0.44442 0.28633 0.0
H21 H 0.1219 0.45507 0.2176 0.0
H22 H 0.08726 0.43939 0.36441 0.0
H23 H 0.13624 0.45869 0.35439 0.0
H24 H 0.09863 0.41399 0.43828 0.0
O25 O 0.12859 0.43382 0.26665 0.0
O26 O 0.11315 0.408 0.30665 0.0
O27 O 0.08257 0.41099 0.33598 0.0
C28 C 0.12731 0.41929 0.28116 0.0
H29 H 0.07428 0.38331 0.1274 0.0
H30 H 0.1406 0.4627 0.47358 0.0
H31 H 0.08458 0.46466 0.3539 0.0
H32 H 0.11996 0.48073 0.20427 0.0
Co33 Co 0.6799 0.10318 0.81365 0.0
C34 C 0.67974 0.09952 0.67827 0.0
C35 C 0.68831 0.08448 0.72527 0.0
C36 C 0.68943 0.08243 0.66401 0.0
N37 N 0.68188 0.09491 0.73443 0.0
N38 N 0.68404 0.09191 0.63445 0.0
H39 H 0.67603 0.10887 0.66899 0.0
H40 H 0.69219 0.07894 0.76093 0.0
C41 C 0.65935 0.06549 0.8229 0.0
O42 O 0.65259 0.06572 0.77038 0.0
N43 N 0.67854 0.11148 0.89269 0.0
C44 C 0.67517 0.12409 0.90461 0.0
C45 C 0.67479 0.1258 0.9665 0.0
C46 C 0.68031 0.10576 0.94706 0.0
N47 N 0.678 0.11425 0.99309 0.0
C48 C 0.65519 0.10983 0.75635 0.0
C49 C 0.62791 0.08786 0.82777 0.0
C50 C 0.62551 0.09769 0.78409 0.0
C51 C 0.63941 0.1088 0.74807 0.0
C52 C 0.64387 0.08926 0.83435 0.0
N53 N 0.65715 0.09958 0.79709 0.0
H54 H 0.66602 0.11964 0.73239 0.0
H55 H 0.64563 0.08254 0.87151 0.0
H56 H 0.67301 0.13142 0.87063 0.0
H57 H 0.68289 0.09538 0.95275 0.0
O58 O 0.69326 0.12636 0.7859 0.0
O59 O 0.70379 0.11111 0.82659 0.0
O60 O 0.67041 0.07946 0.84759 0.0
C61 C 0.70652 0.12549 0.80339 0.0
H62 H 0.69396 0.07462 0.64304 0.0
H63 H 0.67244 0.13492 0.99006 0.0
H64 H 0.61764 0.07939 0.85759 0.0
H65 H 0.63833 0.11724 0.71581 0.0
Co66 Co 0.5663 0.67373 0.2969 0.0
C67 C 0.57109 0.67435 0.16324 0.0
C68 C 0.57502 0.65545 0.20706 0.0
C69 C 0.57684 0.65444 0.14555 0.0
N70 N 0.5716 0.66804 0.21829 0.0
N71 N 0.57429 0.66628 0.11776 0.0
H72 H 0.56778 0.68416 0.15639 0.0
H73 H 0.57561 0.64711 0.24079 0.0
C74 C 0.59588 0.6752 0.33973 0.0
O75 O 0.58423 0.65902 0.34409 0.0
N76 N 0.56087 0.67913 0.37545 0.0
C77 C 0.55127 0.68635 0.38683 0.0
C78 C 0.55071 0.68829 0.44859 0.0
C79 C 0.56582 0.67654 0.4302 0.0
N80 N 0.55986 0.68212 0.47575 0.0
C81 C 0.5329 0.65862 0.24199 0.0
C82 C 0.51989 0.6299 0.31511 0.0
C83 C 0.50938 0.631 0.27075 0.0
C84 C 0.51603 0.64559 0.23383 0.0
C85 C 0.53661 0.6431 0.32135 0.0
N86 N 0.54281 0.6571 0.28524 0.0
H87 H 0.53805 0.66975 0.21312 0.0
H88 H 0.54484 0.64213 0.35474 0.0
H89 H 0.54505 0.68991 0.35267 0.0
H90 H 0.57377 0.67089 0.43663 0.0
O91 O 0.56495 0.69324 0.26094 0.0
O92 O 0.58821 0.69653 0.2966 0.0
O93 O 0.59145 0.68578 0.31938 0.0
C94 C 0.58052 0.70364 0.2712 0.0
H95 H 0.57963 0.64546 0.12333 0.0
H96 H 0.54386 0.69358 0.47174 0.0
H97 H 0.51539 0.61873 0.34367 0.0
H98 H 0.50831 0.64688 0.19908 0.0
Co99 Co 0.87932 0.5699 0.80286 0.0
C100 C 0.88398 0.57256 0.66991 0.0
C101 C 0.90258 0.59531 0.71535 0.0
C102 C 0.9048 0.5979 0.65367 0.0
N103 N 0.88955 0.57944 0.72534 0.0
N104 N 0.89306 0.58361 0.62517 0.0
H105 H 0.87305 0.56002 0.66261 0.0
H106 H 0.90963 0.60454 0.7504 0.0
C107 C 0.90875 0.57649 0.88095 0.0
O108 O 0.89989 0.56042 0.89766 0.0
N109 N 0.86879 0.56083 0.88186 0.0
C110 C 0.85336 0.54718 0.89396 0.0
C111 C 0.85049 0.54618 0.95557 0.0
C112 C 0.8745 0.56847 0.93639 0.0
N113 N 0.86391 0.5595 0.98222 0.0
C114 C 0.86796 0.5344 0.78272 0.0
C115 C 0.89985 0.53828 0.76331 0.0
C116 C 0.88575 0.52178 0.76774 0.0
C117 C 0.86956 0.51998 0.77508 0.0
C118 C 0.89762 0.55237 0.77084 0.0
N119 N 0.882 0.55026 0.7854 0.0
H120 H 0.85539 0.53276 0.78572 0.0
H121 H 0.90858 0.56501 0.76679 0.0
H122 H 0.84428 0.53883 0.86081 0.0
H123 H 0.886 0.58062 0.94257 0.0
O124 O 0.85714 0.5617 0.76809 0.0
O125 O 0.87276 0.58712 0.81094 0.0
O126 O 0.90256 0.58251 0.84244 0.0
C127 C 0.85866 0.57624 0.78389 0.0
H128 H 0.91418 0.60951 0.63156 0.0
H129 H 0.83938 0.53638 0.97887 0.0
H130 H 0.91257 0.54035 0.75603 0.0
H131 H 0.85818 0.50751 0.775 0.0
Co132 Co 0.31632 0.88307 0.29826 0.0
C133 C 0.31866 0.88738 0.16534 0.0
C134 C 0.31811 0.90823 0.20968 0.0
C135 C 0.31851 0.91067 0.14788 0.0
N136 N 0.31827 0.89367 0.22042 0.0
N137 N 0.31878 0.89752 0.12004 0.0
H138 H 0.31866 0.87554 0.15872 0.0
H139 H 0.31727 0.91627 0.2442 0.0
C140 C 0.33992 0.91223 0.37711 0.0
O141 O 0.3466 0.90297 0.39491 0.0
N142 N 0.31376 0.87227 0.37735 0.0
C143 C 0.31148 0.85666 0.3899 0.0
C144 C 0.30938 0.85387 0.45144 0.0
C145 C 0.31196 0.87823 0.43152 0.0
N146 N 0.30984 0.86753 0.47772 0.0
C147 C 0.33825 0.86915 0.27795 0.0
C148 C 0.36818 0.89978 0.2638 0.0
C149 C 0.36888 0.88464 0.26625 0.0
C150 C 0.35353 0.86915 0.27088 0.0
C151 C 0.35251 0.89913 0.27054 0.0
N152 N 0.338 0.88404 0.28271 0.0
H153 H 0.32661 0.85709 0.27854 0.0
H154 H 0.35213 0.91086 0.26743 0.0
H155 H 0.31067 0.84746 0.35715 0.0
H156 H 0.31184 0.89004 0.43704 0.0
O157 O 0.30145 0.86116 0.26294 0.0
O158 O 0.2929 0.87798 0.30423 0.0
O159 O 0.32784 0.9063 0.33815 0.0
C160 C 0.28894 0.86366 0.27716 0.0
H161 H 0.31798 0.92101 0.12524 0.0
H162 H 0.30774 0.84264 0.47488 0.0
H163 H 0.37963 0.91204 0.25831 0.0
H164 H 0.35327 0.85706 0.26887 0.0
Co165 Co 0.43474 0.32181 0.7862 0.0
C166 C 0.43148 0.32261 0.65315 0.0
C167 C 0.40915 0.31949 0.69875 0.0
C168 C 0.40656 0.31917 0.6371 0.0
N169 N 0.42478 0.3217 0.70861 0.0
N170 N 0.42058 0.32106 0.60833 0.0
H171 H 0.44388 0.32388 0.64605 0.0
H172 H 0.40015 0.31795 0.73384 0.0
C173 C 0.42727 0.34452 0.86178 0.0
O174 O 0.44345 0.35255 0.87726 0.0
N175 N 0.44426 0.32111 0.86529 0.0
C176 C 0.45789 0.31923 0.8767 0.0
C177 C 0.4594 0.3179 0.93824 0.0
C178 C 0.43702 0.3196 0.92043 0.0
N179 N 0.44632 0.31827 0.96582 0.0
C180 C 0.47008 0.34741 0.76875 0.0
C181 C 0.46423 0.37379 0.74002 0.0
C182 C 0.48102 0.37735 0.74826 0.0
C183 C 0.48389 0.36384 0.76096 0.0
C184 C 0.45077 0.35718 0.74914 0.0
N185 N 0.45377 0.34446 0.76744 0.0
H186 H 0.47258 0.33712 0.77524 0.0
H187 H 0.43787 0.35467 0.74329 0.0
H188 H 0.46574 0.31782 0.84306 0.0
H189 H 0.42506 0.31927 0.9274 0.0
O190 O 0.44356 0.30816 0.75239 0.0
O191 O 0.41818 0.29791 0.79589 0.0
O192 O 0.42153 0.3319 0.82507 0.0
C193 C 0.4293 0.29496 0.76935 0.0
H194 H 0.39516 0.31763 0.61537 0.0
H195 H 0.46904 0.31616 0.96072 0.0
H196 H 0.4615 0.38383 0.72873 0.0
H197 H 0.49673 0.36595 0.76473 0.0
Co198 Co 0.57566 0.87731 0.21465 0.0
C199 C 0.57856 0.8815 0.34738 0.0
C200 C 0.59977 0.90232 0.30234 0.0
C201 C 0.60202 0.90476 0.36415 0.0
N202 N 0.58503 0.88777 0.29209 0.0
N203 N 0.58869 0.89163 0.39242 0.0
H204 H 0.56666 0.86974 0.3543 0.0
H205 H 0.60842 0.91041 0.26744 0.0
C206 C 0.57907 0.90565 0.13703 0.0
O207 O 0.56308 0.89554 0.1214 0.0
N208 N 0.56674 0.86659 0.13587 0.0
C209 C 0.55327 0.85107 0.1235 0.0
C210 C 0.55232 0.84835 0.06182 0.0
C211 C 0.57434 0.87252 0.08143 0.0
N212 N 0.56551 0.86195 0.03527 0.0
C213 C 0.53972 0.86332 0.23938 0.0
C214 C 0.54151 0.89433 0.2589 0.0
C215 C 0.52547 0.87956 0.25623 0.0
C216 C 0.52471 0.8638 0.24873 0.0
C217 C 0.55615 0.89321 0.24967 0.0
N218 N 0.55505 0.87801 0.23491 0.0
H219 H 0.53898 0.85111 0.23638 0.0
H220 H 0.56841 0.90471 0.25291 0.0
H221 H 0.545 0.84185 0.1564 0.0
H222 H 0.58631 0.88426 0.07574 0.0
O223 O 0.56974 0.8554 0.24849 0.0
O224 O 0.59428 0.87299 0.20327 0.0
O225 O 0.58622 0.90057 0.17526 0.0
C226 C 0.58473 0.85852 0.23063 0.0
H227 H 0.61289 0.91516 0.38647 0.0
H228 H 0.54261 0.83719 0.0385 0.0
H229 H 0.54274 0.90667 0.26773 0.0
H230 H 0.51263 0.85198 0.24865 0.0
Co231 Co 0.68487 0.59128 0.70865 0.0
C232 C 0.68476 0.59493 0.84379 0.0
C233 C 0.69698 0.6189 0.79722 0.0
C234 C 0.69826 0.62202 0.85853 0.0
N235 N 0.68825 0.60191 0.78778 0.0
N236 N 0.69059 0.60693 0.88783 0.0
H237 H 0.67887 0.58149 0.85279 0.0
H238 H 0.70231 0.62841 0.76174 0.0
C239 C 0.66953 0.61368 0.6985 0.0
O240 O 0.6614 0.60729 0.74973 0.0
N241 N 0.68199 0.5811 0.62966 0.0
C242 C 0.67646 0.56455 0.6179 0.0
C243 C 0.67559 0.56228 0.55604 0.0
C244 C 0.68458 0.58874 0.57518 0.0
N245 N 0.68068 0.57749 0.52928 0.0
C246 C 0.65832 0.56107 0.76418 0.0
C247 C 0.63163 0.55913 0.6973 0.0
C248 C 0.62842 0.54569 0.73681 0.0
C249 C 0.64208 0.54691 0.77072 0.0
C250 C 0.64815 0.57303 0.69173 0.0
N251 N 0.66125 0.57418 0.72624 0.0
H252 H 0.66873 0.56083 0.78683 0.0
H253 H 0.65047 0.58232 0.65695 0.0
H254 H 0.67317 0.55479 0.65196 0.0
H255 H 0.68888 0.60217 0.56932 0.0
O256 O 0.69589 0.57894 0.73601 0.0
O257 O 0.70912 0.60478 0.695 0.0
O258 O 0.6786 0.60805 0.67473 0.0
C259 C 0.71007 0.59206 0.71818 0.0
H260 H 0.70447 0.63447 0.87969 0.0
H261 H 0.67165 0.55037 0.53261 0.0
H262 H 0.62159 0.55871 0.66937 0.0
H263 H 0.64053 0.53656 0.79964 0.0
Co264 Co 0.10571 0.68727 0.1997 0.0
C265 C 0.10211 0.68725 0.33514 0.0
C266 C 0.08766 0.69648 0.28797 0.0
C267 C 0.08558 0.6976 0.3492 0.0
N268 N 0.09776 0.68967 0.27894 0.0
N269 N 0.09468 0.69179 0.37887 0.0
H270 H 0.11109 0.68307 0.34454 0.0
H271 H 0.08231 0.70055 0.25221 0.0
C272 C 0.06801 0.66678 0.19248 0.0
O273 O 0.06846 0.66043 0.24564 0.0
N274 N 0.11369 0.68548 0.1206 0.0
C275 C 0.12613 0.68189 0.1085 0.0
C276 C 0.12766 0.68133 0.04658 0.0
C277 C 0.10791 0.68723 0.06632 0.0
N278 N 0.1162 0.68467 0.02018 0.0
C279 C 0.11271 0.66288 0.25761 0.0
C280 C 0.09032 0.63514 0.18881 0.0
C281 C 0.10055 0.63303 0.23165 0.0
C282 C 0.11185 0.64717 0.26636 0.0
C283 C 0.09158 0.65104 0.18161 0.0
N284 N 0.10214 0.66457 0.21757 0.0
H285 H 0.12262 0.67387 0.2806 0.0
H286 H 0.0846 0.65255 0.14485 0.0
H287 H 0.13348 0.67972 0.14237 0.0
H288 H 0.09766 0.68999 0.0608 0.0
O289 O 0.12898 0.70071 0.22629 0.0
O290 O 0.11372 0.71118 0.18538 0.0
O291 O 0.08188 0.67765 0.1667 0.0
C292 C 0.12815 0.71395 0.20814 0.0
H293 H 0.07796 0.70236 0.37006 0.0
H294 H 0.13664 0.67881 0.02287 0.0
H295 H 0.08167 0.62468 0.16 0.0
H296 H 0.12058 0.64635 0.29791 0.0
Co297 Co 0.42124 0.10848 0.70276 0.0
C298 C 0.41726 0.10472 0.83818 0.0
C299 C 0.39346 0.0929 0.79066 0.0
C300 C 0.39015 0.09095 0.85187 0.0
N301 N 0.41047 0.10126 0.78185 0.0
N302 N 0.40514 0.0984 0.88178 0.0
H303 H 0.43064 0.11228 0.84782 0.0
H304 H 0.38408 0.08862 0.75475 0.0
C305 C 0.40091 0.07063 0.69584 0.0
O306 O 0.40621 0.0703 0.75104 0.0
N307 N 0.43142 0.11579 0.62383 0.0
C308 C 0.44789 0.12699 0.61169 0.0
C309 C 0.45003 0.1283 0.54973 0.0
C310 C 0.42372 0.11056 0.56953 0.0
N311 N 0.43483 0.11796 0.52334 0.0
C312 C 0.45159 0.11303 0.76138 0.0
C313 C 0.45462 0.08882 0.69483 0.0
C314 C 0.46733 0.09869 0.73697 0.0
C315 C 0.46566 0.11089 0.77066 0.0
C316 C 0.44073 0.09132 0.68719 0.0
N317 N 0.43894 0.10288 0.72185 0.0
H318 H 0.45147 0.12357 0.78362 0.0
H319 H 0.43198 0.08457 0.65077 0.0
H320 H 0.45765 0.13363 0.64555 0.0
H321 H 0.41034 0.1013 0.56405 0.0
O322 O 0.43275 0.13183 0.72938 0.0
O323 O 0.40705 0.11853 0.68752 0.0
O324 O 0.40568 0.08489 0.66938 0.0
C325 C 0.41944 0.13243 0.71093 0.0
H326 H 0.37765 0.08455 0.87255 0.0
H327 H 0.46184 0.13637 0.52599 0.0
H328 H 0.45559 0.07952 0.66676 0.0
H329 H 0.47558 0.11935 0.80167 0.0
Co330 Co 0.30598 0.41656 0.19615 0.0
C331 C 0.30631 0.41302 0.33162 0.0
C332 C 0.29762 0.38944 0.28428 0.0
C333 C 0.29673 0.38624 0.34551 0.0
N334 N 0.30392 0.40628 0.27536 0.0
N335 N 0.3022 0.4011 0.37528 0.0
H336 H 0.31021 0.4261 0.34118 0.0
H337 H 0.29376 0.38006 0.24847 0.0
C338 C 0.32772 0.40068 0.18867 0.0
O339 O 0.33378 0.40747 0.24206 0.0
N340 N 0.30745 0.42623 0.11704 0.0
C341 C 0.31045 0.44208 0.10489 0.0
C342 C 0.31105 0.44419 0.04296 0.0
C343 C 0.30608 0.41883 0.06277 0.0
N344 N 0.30831 0.42957 0.0166 0.0
C345 C 0.32912 0.44828 0.25362 0.0
C346 C 0.3572 0.45537 0.18372 0.0
C347 C 0.35834 0.46766 0.225 0.0
C348 C 0.34409 0.46388 0.26062 0.0
C349 C 0.34197 0.43991 0.17821 0.0
N350 N 0.32825 0.43621 0.21426 0.0
H351 H 0.3179 0.44651 0.27689 0.0
H352 H 0.34101 0.43145 0.14207 0.0
H353 H 0.31221 0.45148 0.13873 0.0
H354 H 0.30383 0.40598 0.05728 0.0
O355 O 0.29203 0.42575 0.22272 0.0
O356 O 0.28217 0.40013 0.18166 0.0
O357 O 0.31643 0.40308 0.16305 0.0
C358 C 0.27904 0.41158 0.20431 0.0
H359 H 0.29236 0.37392 0.3663 0.0
H360 H 0.31318 0.45556 0.01923 0.0
H361 H 0.36779 0.45787 0.15436 0.0
H362 H 0.34414 0.4733 0.29106 0.0
Co363 Co 0.88163 0.31037 0.71336 0.0
C364 C 0.88596 0.31186 0.84617 0.0
C365 C 0.90547 0.30908 0.80124 0.0
C366 C 0.9078 0.30907 0.86305 0.0
N367 N 0.89182 0.31089 0.79088 0.0
N368 N 0.89548 0.31074 0.89128 0.0
H369 H 0.87488 0.31323 0.85302 0.0
H370 H 0.91295 0.30746 0.76642 0.0
C371 C 0.91054 0.33243 0.63287 0.0
O372 O 0.90159 0.33959 0.61674 0.0
N373 N 0.87112 0.30916 0.63455 0.0
C374 C 0.85682 0.30969 0.62163 0.0
C375 C 0.85397 0.30781 0.56004 0.0
C376 C 0.87609 0.30593 0.5806 0.0
N377 N 0.86622 0.30563 0.53412 0.0
C378 C 0.87095 0.33482 0.73905 0.0
C379 C 0.90322 0.36258 0.75419 0.0
C380 C 0.88917 0.36508 0.75561 0.0
C381 C 0.87282 0.35085 0.74985 0.0
C382 C 0.90072 0.34627 0.74382 0.0
N383 N 0.88483 0.33288 0.73147 0.0
H384 H 0.85829 0.32396 0.73803 0.0
H385 H 0.91164 0.34448 0.74516 0.0
H386 H 0.84856 0.31083 0.65401 0.0
H387 H 0.88675 0.30378 0.57544 0.0
O388 O 0.85943 0.29673 0.7483 0.0
O389 O 0.87458 0.28646 0.70515 0.0
O390 O 0.90472 0.32058 0.67283 0.0
C391 C 0.86062 0.28353 0.73255 0.0
H392 H 0.91748 0.30734 0.88537 0.0
H393 H 0.84375 0.30826 0.53623 0.0
H394 H 0.91602 0.37311 0.76141 0.0
H395 H 0.86155 0.3521 0.75273 0.0
C396 C 0.03709 0.39653 0.32588 0.0
C397 C 0.05244 0.39834 0.34807 0.0
C398 C 0.02192 0.38692 0.35772 0.0
C399 C 0.00528 0.37074 0.51025 0.0
H400 H 0.96294 0.3442 0.42214 0.0
C401 C 0.93892 0.33389 0.62708 0.0
C402 C 0.92684 0.33757 0.60203 0.0
C403 C 0.95441 0.33911 0.59733 0.0
C404 C 0.97468 0.35153 0.44732 0.0
H405 H 0.06389 0.39131 0.42085 0.0
H406 H 0.03727 0.37434 0.47623 0.0
H407 H 0.98993 0.35725 0.36741 0.0
H408 H 0.92128 0.34915 0.52574 0.0
H409 H 0.94812 0.35808 0.47398 0.0
H410 H 0.98987 0.36515 0.5901 0.0
C411 C 0.03704 0.38053 0.43448 0.0
C412 C 0.99012 0.35906 0.41602 0.0
C413 C 0.05227 0.3902 0.40262 0.0
C414 C 0.93038 0.34625 0.54643 0.0
C415 C 0.94569 0.35122 0.51646 0.0
C416 C 0.9898 0.3631 0.54167 0.0
C417 C 0.02171 0.37882 0.4124 0.0
C418 C 0.00556 0.36914 0.44685 0.0
C419 C 0.95789 0.34778 0.54165 0.0
C420 C 0.97435 0.35382 0.51018 0.0
H421 H 0.03678 0.40268 0.28414 0.0
H422 H 0.0104 0.38614 0.34001 0.0
H423 H 0.01693 0.37853 0.53528 0.0
H424 H 0.93649 0.32721 0.66992 0.0
H425 H 0.96362 0.33628 0.61758 0.0
C426 C 0.63956 0.03411 0.83196 0.0
C427 C 0.65324 0.04917 0.85528 0.0
C428 C 0.63335 0.01874 0.86326 0.0
C429 C 0.63201 0.00135 0.0158 0.0
H430 H 0.61529 0.95901 0.92658 0.0
C431 C 0.60471 0.93492 0.13059 0.0
C432 C 0.58898 0.92236 0.10702 0.0
C433 C 0.61408 0.95061 0.10106 0.0
C434 C 0.61989 0.97075 0.95203 0.0
H435 H 0.67136 0.0599 0.92934 0.0
H436 H 0.66071 0.03295 0.9835 0.0
H437 H 0.62931 0.98608 0.87226 0.0
H438 H 0.57079 0.91628 0.03388 0.0
H439 H 0.58716 0.94354 0.98239 0.0
H440 H 0.62251 0.98586 0.09562 0.0
C441 C 0.65459 0.03309 0.94148 0.0
C442 C 0.62787 0.98624 0.92097 0.0
C443 C 0.66075 0.04851 0.91027 0.0
C444 C 0.58283 0.92573 0.05338 0.0
C445 C 0.59226 0.94128 0.02357 0.0
C446 C 0.62415 0.98582 0.04696 0.0
C447 C 0.64076 0.01804 0.91845 0.0
C448 C 0.63371 0.00171 0.95229 0.0
C449 C 0.60796 0.95387 0.04705 0.0
C450 C 0.61772 0.97038 0.01516 0.0
H451 H 0.63342 0.03418 0.7899 0.0
H452 H 0.62248 0.00748 0.84475 0.0
H453 H 0.6362 0.01301 0.04126 0.0
H454 H 0.60975 0.93265 0.17191 0.0
H455 H 0.62619 0.96011 0.11994 0.0
C456 C 0.65383 0.62926 0.67622 0.0
C457 C 0.66813 0.62736 0.66745 0.0
C458 C 0.6521 0.64156 0.6437 0.0
C459 C 0.66739 0.66653 0.50161 0.0
H460 H 0.63725 0.68262 0.55649 0.0
C461 C 0.62039 0.69289 0.40821 0.0
C462 C 0.61302 0.68054 0.36246 0.0
C463 C 0.63372 0.69379 0.4434 0.0
C464 C 0.64611 0.67873 0.5406 0.0
H465 H 0.69238 0.63752 0.62106 0.0
H466 H 0.68976 0.65946 0.5663 0.0
H467 H 0.648 0.67006 0.6289 0.0
H468 H 0.61459 0.66074 0.31305 0.0
H469 H 0.63765 0.66228 0.37309 0.0
H470 H 0.66549 0.6752 0.41336 0.0
C471 C 0.67952 0.65107 0.59633 0.0
C472 C 0.65201 0.67117 0.58206 0.0
C473 C 0.68105 0.63852 0.62785 0.0
C474 C 0.62018 0.6704 0.34809 0.0
C475 C 0.6335 0.67138 0.38254 0.0
C476 C 0.66176 0.67437 0.46048 0.0
C477 C 0.66482 0.6525 0.6026 0.0
C478 C 0.6619 0.66406 0.56239 0.0
C479 C 0.63983 0.68242 0.43273 0.0
C480 C 0.65019 0.67958 0.47868 0.0
H481 H 0.64367 0.6208 0.70645 0.0
H482 H 0.64043 0.64196 0.64909 0.0
H483 H 0.67503 0.66132 0.48434 0.0
H484 H 0.61488 0.70071 0.42029 0.0
H485 H 0.63846 0.70257 0.48127 0.0
C486 C 0.0367 0.64656 0.18496 0.0
C487 C 0.05159 0.66017 0.16033 0.0
C488 C 0.02129 0.63971 0.15367 0.0
C489 C 0.0037 0.6361 0.9999 0.0
H490 H 0.9612 0.61838 0.0885 0.0
C491 C 0.93688 0.60368 0.88522 0.0
C492 C 0.92524 0.58779 0.91052 0.0
C493 C 0.9524 0.61431 0.91419 0.0
C494 C 0.97298 0.62328 0.06321 0.0
H495 H 0.06191 0.67754 0.08401 0.0
H496 H 0.03486 0.66577 0.0298 0.0
H497 H 0.98817 0.63424 0.14243 0.0
H498 H 0.92059 0.57067 0.98622 0.0
H499 H 0.94751 0.58927 0.03682 0.0
H500 H 0.98834 0.62503 0.92065 0.0
C501 C 0.03518 0.6602 0.07289 0.0
C502 C 0.98843 0.63231 0.09406 0.0
C503 C 0.05066 0.667 0.10411 0.0
C504 C 0.92933 0.5828 0.96539 0.0
C505 C 0.94468 0.59349 0.99467 0.0
C506 C 0.98821 0.6272 0.96892 0.0
C507 C 0.02033 0.64638 0.09714 0.0
C508 C 0.00398 0.63846 0.06308 0.0
C509 C 0.95637 0.60934 0.96939 0.0
C510 C 0.97273 0.62038 1.00059 0.0
H511 H 0.03697 0.64093 0.22801 0.0
H512 H 0.0102 0.62887 0.17323 0.0
H513 H 0.01543 0.64051 0.97469 0.0
H514 H 0.93404 0.60784 0.84293 0.0
H515 H 0.96121 0.62649 0.8939 0.0
C516 C 0.39204 0.05452 0.5978 0.0
C517 C 0.39163 0.05453 0.6615 0.0
C518 C 0.38501 0.03914 0.56577 0.0
C519 C 0.37338 0.99405 0.58855 0.0
H520 H 0.35326 0.98804 0.42885 0.0
C521 C 0.33601 0.93722 0.39965 0.0
C522 C 0.3457 0.92908 0.40518 0.0
C523 C 0.34102 0.95266 0.42946 0.0
C524 C 0.35868 0.98943 0.47368 0.0
H525 H 0.38263 0.0385 0.74147 0.0
H526 H 0.36981 0.01171 0.68577 0.0
H527 H 0.36162 0.01425 0.48505 0.0
H528 H 0.36857 0.93103 0.44437 0.0
H529 H 0.37759 0.95813 0.49461 0.0
H530 H 0.36995 0.96908 0.57832 0.0
C531 C 0.37609 0.02353 0.66041 0.0
C532 C 0.36368 0.00456 0.50563 0.0
C533 C 0.38332 0.03889 0.6924 0.0
C534 C 0.36073 0.93689 0.43972 0.0
C535 C 0.36583 0.95239 0.46891 0.0
C536 C 0.36825 0.9789 0.55694 0.0
C537 C 0.37723 0.02344 0.59677 0.0
C538 C 0.37119 0.00711 0.56337 0.0
C539 C 0.35592 0.96036 0.46496 0.0
C540 C 0.36098 0.97643 0.49885 0.0
H541 H 0.39846 0.0664 0.57275 0.0
H542 H 0.3863 0.03961 0.51689 0.0
H543 H 0.37936 0.99561 0.63241 0.0
H544 H 0.32432 0.93146 0.37354 0.0
H545 H 0.33297 0.95831 0.42589 0.0
C546 C 0.42042 0.35848 0.946 0.0
C547 C 0.41545 0.34894 0.8921 0.0
C548 C 0.40911 0.36207 0.97671 0.0
C549 C 0.37242 0.36765 0.95718 0.0
H550 H 0.36712 0.35995 0.13086 0.0
C551 C 0.32887 0.38419 0.09905 0.0
C552 C 0.33541 0.392 0.15542 0.0
C553 C 0.33683 0.37686 0.06633 0.0
C554 C 0.36856 0.36233 0.08249 0.0
H555 H 0.39487 0.3359 0.82744 0.0
H556 H 0.37514 0.34256 0.88082 0.0
H557 H 0.38475 0.35149 0.07378 0.0
H558 H 0.35531 0.39809 0.22188 0.0
H559 H 0.36937 0.38578 0.16449 0.0
H560 H 0.35684 0.37914 0.96602 0.0
C561 C 0.38777 0.3471 0.8993 0.0
C562 C 0.3786 0.35741 0.04984 0.0
C563 C 0.39902 0.34327 0.86895 0.0
C564 C 0.34988 0.39209 0.17877 0.0
C565 C 0.35789 0.38491 0.14594 0.0
C566 C 0.36252 0.37277 0.98998 0.0
C567 C 0.39268 0.35638 0.9538 0.0
C568 C 0.38084 0.36027 0.98709 0.0
C569 C 0.35155 0.37729 0.08913 0.0
C570 C 0.36072 0.37044 0.05324 0.0
H571 H 0.43296 0.36296 0.96519 0.0
H572 H 0.41327 0.36942 0.01829 0.0
H573 H 0.37405 0.37008 0.90884 0.0
H574 H 0.3177 0.38385 0.07991 0.0
H575 H 0.33147 0.3709 0.02313 0.0
C576 C 0.09944 0.60723 0.18491 0.0
C577 C 0.10025 0.61653 0.2371 0.0
C578 C 0.09947 0.59186 0.18969 0.0
C579 C 0.0908 0.55705 0.29629 0.0
H580 H 0.11818 0.54783 0.18397 0.0
C581 C 0.10151 0.49966 0.32501 0.0
C582 C 0.10118 0.49074 0.27235 0.0
C583 C 0.10127 0.51494 0.32092 0.0
C584 C 0.1103 0.55011 0.21522 0.0
H585 H 0.10159 0.61691 0.33531 0.0
H586 H 0.10183 0.5901 0.34367 0.0
H587 H 0.11803 0.57463 0.17684 0.0
H588 H 0.10013 0.49077 0.17412 0.0
H589 H 0.09965 0.51744 0.16693 0.0
H590 H 0.08305 0.53251 0.3346 0.0
C591 C 0.10103 0.59466 0.29905 0.0
C592 C 0.11023 0.56548 0.21116 0.0
C593 C 0.10105 0.61008 0.29425 0.0
C594 C 0.1006 0.49745 0.21549 0.0
C595 C 0.10035 0.51273 0.2114 0.0
C596 C 0.09086 0.54166 0.3003 0.0
C597 C 0.10029 0.5854 0.24678 0.0
C598 C 0.10046 0.56912 0.25158 0.0
C599 C 0.1007 0.52167 0.26407 0.0
C600 C 0.1006 0.53801 0.25977 0.0
H601 H 0.09906 0.61195 0.14014 0.0
H602 H 0.09871 0.58496 0.14859 0.0
H603 H 0.08296 0.55937 0.32756 0.0
H604 H 0.10228 0.49501 0.36949 0.0
H605 H 0.10185 0.52165 0.36233 0.0
C606 C 0.49002 0.09779 0.79958 0.0
C607 C 0.4829 0.09724 0.74245 0.0
C608 C 0.50508 0.09716 0.80442 0.0
C609 C 0.53311 0.08552 0.71922 0.0
H610 H 0.56715 0.11535 0.83537 0.0
C611 C 0.60198 0.09707 0.72183 0.0
C612 C 0.60891 0.09716 0.77895 0.0
C613 C 0.58639 0.0967 0.71729 0.0
C614 C 0.5577 0.10682 0.80314 0.0
H615 H 0.48607 0.09577 0.64554 0.0
H616 H 0.51237 0.09477 0.65389 0.0
H617 H 0.5402 0.11514 0.82809 0.0
H618 H 0.60509 0.09725 0.87606 0.0
H619 H 0.57785 0.09641 0.86811 0.0
H620 H 0.55075 0.07736 0.69392 0.0
C621 C 0.50616 0.09534 0.69509 0.0
C622 C 0.54224 0.10667 0.79905 0.0
C623 C 0.49107 0.0959 0.69029 0.0
C624 C 0.59998 0.09695 0.83138 0.0
C625 C 0.58447 0.09667 0.82685 0.0
C626 C 0.54861 0.08573 0.72317 0.0
C627 C 0.5134 0.09606 0.75218 0.0
C628 C 0.52975 0.09601 0.75706 0.0
C629 C 0.5775 0.09654 0.76978 0.0
C630 C 0.56107 0.09637 0.76522 0.0
H631 H 0.48391 0.09864 0.84061 0.0
H632 H 0.51017 0.09746 0.84914 0.0
H633 H 0.52368 0.07698 0.68698 0.0
H634 H 0.60854 0.09715 0.68065 0.0
H635 H 0.58142 0.09677 0.67268 0.0
C636 C 0.48166 0.60798 0.31219 0.0
C637 C 0.49189 0.61651 0.26181 0.0
C638 C 0.46609 0.593 0.30454 0.0
C639 C 0.44485 0.55721 0.19893 0.0
H640 H 0.40532 0.54504 0.29979 0.0
C641 C 0.38186 0.49332 0.17335 0.0
C642 C 0.37371 0.48487 0.22723 0.0
C643 C 0.39576 0.50988 0.17507 0.0
C644 C 0.41632 0.54822 0.27166 0.0
H645 H 0.4935 0.61649 0.16372 0.0
H646 H 0.4661 0.59039 0.15019 0.0
H647 H 0.42993 0.57377 0.3057 0.0
H648 H 0.37396 0.48706 0.3252 0.0
H649 H 0.39831 0.51599 0.32824 0.0
H650 H 0.43135 0.53161 0.1655 0.0
C651 C 0.47027 0.59519 0.19568 0.0
C652 C 0.43038 0.56467 0.27491 0.0
C653 C 0.48585 0.61022 0.20336 0.0
C654 C 0.37986 0.4933 0.2829 0.0
C655 C 0.39376 0.50988 0.28461 0.0
C656 C 0.43079 0.54077 0.19564 0.0
C657 C 0.46041 0.58622 0.2463 0.0
C658 C 0.44488 0.56929 0.23908 0.0
C659 C 0.4018 0.51838 0.23068 0.0
C660 C 0.41645 0.53604 0.23248 0.0
H661 H 0.4859 0.61266 0.35775 0.0
H662 H 0.45887 0.58635 0.3445 0.0
H663 H 0.45594 0.56027 0.17149 0.0
H664 H 0.37722 0.48731 0.12963 0.0
H665 H 0.40155 0.51617 0.13271 0.0
C666 C 0.89964 0.5056 0.72756 0.0
C667 C 0.88784 0.50652 0.76661 0.0
C668 C 0.90167 0.49127 0.72793 0.0
C669 C 0.89335 0.45403 0.82266 0.0
H670 H 0.89685 0.4346 0.67032 0.0
C671 C 0.88081 0.3853 0.8006 0.0
C672 C 0.89149 0.38241 0.76221 0.0
C673 C 0.88227 0.40138 0.80354 0.0
C674 C 0.89613 0.44002 0.71327 0.0
H675 H 0.86917 0.49319 0.83736 0.0
H676 H 0.87234 0.46809 0.83668 0.0
H677 H 0.89575 0.46098 0.66996 0.0
H678 H 0.91224 0.39415 0.69748 0.0
H679 H 0.91483 0.42232 0.70285 0.0
H680 H 0.89331 0.43282 0.86579 0.0
C681 C 0.88019 0.47851 0.80632 0.0
C682 C 0.89552 0.45514 0.71308 0.0
C683 C 0.87818 0.49281 0.80603 0.0
C684 C 0.90391 0.39604 0.72781 0.0
C685 C 0.90529 0.4121 0.73043 0.0
C686 C 0.89389 0.43888 0.82281 0.0
C687 C 0.89199 0.47757 0.76744 0.0
C688 C 0.89387 0.46219 0.76774 0.0
C689 C 0.89437 0.41489 0.76788 0.0
C690 C 0.89506 0.4316 0.76808 0.0
H691 H 0.90719 0.51589 0.69633 0.0
H692 H 0.91095 0.49098 0.69769 0.0
H693 H 0.89243 0.45931 0.86564 0.0
H694 H 0.87123 0.37507 0.82805 0.0
H695 H 0.87358 0.40311 0.83246 0.0
C696 C 0.4956 0.86885 0.29377 0.0
C697 C 0.5097 0.88068 0.25975 0.0
C698 C 0.48061 0.86969 0.29506 0.0
C699 C 0.46355 0.89865 0.26335 0.0
H700 H 0.42023 0.85643 0.25761 0.0
C701 C 0.39889 0.89622 0.22762 0.0
C702 C 0.38538 0.8848 0.26489 0.0
C703 C 0.41428 0.89608 0.22667 0.0
C704 C 0.43223 0.86833 0.25971 0.0
H705 H 0.51905 0.90256 0.1999 0.0
H706 H 0.49288 0.90393 0.20164 0.0
H707 H 0.44664 0.85549 0.25747 0.0
H708 H 0.37771 0.86468 0.33188 0.0
H709 H 0.40436 0.86432 0.32953 0.0
H710 H 0.44904 0.91145 0.26499 0.0
C711 C 0.4935 0.89422 0.22839 0.0
C712 C 0.44737 0.86779 0.25984 0.0
C713 C 0.5085 0.89342 0.22736 0.0
C714 C 0.38768 0.87338 0.30155 0.0
C715 C 0.40298 0.87319 0.30035 0.0
C716 C 0.44839 0.89918 0.2629 0.0
C717 C 0.47933 0.88232 0.26205 0.0
C718 C 0.46323 0.88294 0.26194 0.0
C719 C 0.41642 0.88447 0.26276 0.0
C720 C 0.43257 0.88402 0.26141 0.0
H721 H 0.49621 0.85902 0.3198 0.0
H722 H 0.47005 0.8605 0.32231 0.0
H723 H 0.47553 0.91055 0.26579 0.0
H724 H 0.3975 0.90506 0.19839 0.0
H725 H 0.42438 0.90483 0.19685 0.0
C726 C 0.5075 0.40129 0.79287 0.0
C727 C 0.49548 0.39508 0.74577 0.0
C728 C 0.52112 0.41801 0.79167 0.0
C729 C 0.53663 0.46017 0.71638 0.0
H730 H 0.57984 0.469 0.78382 0.0
C731 C 0.60159 0.52313 0.68611 0.0
C732 C 0.61144 0.52981 0.73907 0.0
C733 C 0.58654 0.50731 0.68713 0.0
C734 C 0.56781 0.46673 0.76526 0.0
H735 H 0.48823 0.40141 0.66032 0.0
H736 H 0.51242 0.43051 0.6567 0.0
H737 H 0.5558 0.44003 0.78294 0.0
H738 H 0.61249 0.52538 0.83538 0.0
H739 H 0.58658 0.49756 0.8364 0.0
H740 H 0.54911 0.48699 0.69679 0.0
C741 C 0.51112 0.42264 0.69556 0.0
C742 C 0.55396 0.45013 0.76496 0.0
C743 C 0.49731 0.40594 0.69733 0.0
C744 C 0.60549 0.52051 0.79342 0.0
C745 C 0.59061 0.5046 0.79417 0.0
C746 C 0.55062 0.47678 0.71578 0.0
C747 C 0.52324 0.4289 0.74273 0.0
C748 C 0.53811 0.44661 0.74111 0.0
C749 C 0.58115 0.49773 0.74086 0.0
C750 C 0.56627 0.48022 0.74078 0.0
H751 H 0.50621 0.39326 0.83129 0.0
H752 H 0.52986 0.42242 0.82965 0.0
H753 H 0.52461 0.45806 0.69836 0.0
H754 H 0.60583 0.52974 0.64318 0.0
H755 H 0.57952 0.50223 0.64532 0.0
C756 C 0.12076 0.44777 0.58227 0.0
C757 C 0.11598 0.43407 0.54195 0.0
C758 C 0.11797 0.44489 0.64454 0.0
C759 C 0.11131 0.4138 0.76413 0.0
H760 H 0.09389 0.43837 0.85599 0.0
C761 C 0.0916 0.39877 0.01572 0.0
C762 C 0.09573 0.4126 0.05474 0.0
C763 C 0.09388 0.40122 0.95309 0.0
C764 C 0.09896 0.43156 0.83119 0.0
H765 H 0.10463 0.40662 0.53567 0.0
H766 H 0.09965 0.40157 0.64456 0.0
H767 H 0.09812 0.44286 0.7469 0.0
H768 H 0.1054 0.43988 0.05791 0.0
H769 H 0.1098 0.44422 0.94898 0.0
H770 H 0.11232 0.40262 0.84842 0.0
C771 C 0.10564 0.41455 0.62785 0.0
C772 C 0.10135 0.43411 0.76863 0.0
C773 C 0.10834 0.41742 0.56543 0.0
C774 C 0.10225 0.42896 0.02943 0.0
C775 C 0.10457 0.43141 0.96679 0.0
C776 C 0.10898 0.41129 0.82676 0.0
C777 C 0.11041 0.42826 0.66807 0.0
C778 C 0.10758 0.42529 0.7344 0.0
C779 C 0.10039 0.41757 0.92781 0.0
C780 C 0.1028 0.42016 0.8611 0.0
H781 H 0.12647 0.46072 0.56569 0.0
H782 H 0.12194 0.45574 0.67437 0.0
H783 H 0.11635 0.40699 0.73915 0.0
H784 H 0.08673 0.38602 0.03345 0.0
H785 H 0.09036 0.39023 0.9244 0.0
C786 C 0.67237 0.09889 0.54436 0.0
C787 C 0.68347 0.0939 0.5697 0.0
C788 C 0.67176 0.10075 0.48166 0.0
C789 C 0.69649 0.10688 0.341 0.0
H790 H 0.6529 0.09184 0.26283 0.0
C791 C 0.68864 0.105 0.08016 0.0
C792 C 0.67846 0.11141 0.05718 0.0
C793 C 0.68921 0.10247 0.14248 0.0
C794 C 0.66518 0.09622 0.28409 0.0
H795 H 0.70276 0.08715 0.54847 0.0
H796 H 0.70135 0.08996 0.43925 0.0
H797 H 0.654 0.08821 0.37199 0.0
H798 H 0.66065 0.11983 0.08156 0.0
H799 H 0.66177 0.11557 0.19018 0.0
H800 H 0.70764 0.11482 0.25287 0.0
C801 C 0.69328 0.09264 0.46797 0.0
C802 C 0.66582 0.09418 0.34666 0.0
C803 C 0.69392 0.09083 0.53068 0.0
C804 C 0.66877 0.11508 0.09783 0.0
C805 C 0.66926 0.11245 0.16002 0.0
C806 C 0.69584 0.10886 0.27836 0.0
C807 C 0.68218 0.09762 0.44268 0.0
C808 C 0.68149 0.09956 0.37594 0.0
C809 C 0.67952 0.10617 0.18306 0.0
C810 C 0.68018 0.10363 0.2493 0.0
H811 H 0.66399 0.10117 0.57285 0.0
H812 H 0.66321 0.1048 0.46379 0.0
H813 H 0.7088 0.1114 0.36219 0.0
H814 H 0.69635 0.10218 0.05009 0.0
H815 H 0.69714 0.09748 0.15888 0.0
C816 C 0.56497 0.6686 0.56472 0.0
C817 C 0.56259 0.68156 0.53998 0.0
C818 C 0.56716 0.66783 0.62723 0.0
C819 C 0.55985 0.68327 0.77425 0.0
H820 H 0.58993 0.66784 0.83604 0.0
C821 C 0.57501 0.68398 0.03026 0.0
C822 C 0.57402 0.66897 0.0531 0.0
C823 C 0.5744 0.68634 0.96774 0.0
C824 C 0.58142 0.67209 0.81942 0.0
H825 H 0.56121 0.70421 0.56128 0.0
H826 H 0.56531 0.70309 0.67001 0.0
H827 H 0.58764 0.67057 0.72689 0.0
H828 H 0.57148 0.64465 0.02666 0.0
H829 H 0.57076 0.64899 0.91845 0.0
H830 H 0.55378 0.6849 0.86707 0.0
C831 C 0.56504 0.69322 0.64147 0.0
C832 C 0.58004 0.6736 0.75683 0.0
C833 C 0.56271 0.69389 0.57905 0.0
C834 C 0.57257 0.6565 0.01144 0.0
C835 C 0.57213 0.65896 0.94906 0.0
C836 C 0.56134 0.6819 0.83687 0.0
C837 C 0.56717 0.6801 0.66652 0.0
C838 C 0.56912 0.67906 0.73333 0.0
C839 C 0.57296 0.67386 0.92649 0.0
C840 C 0.57202 0.67614 0.86012 0.0
H841 H 0.56473 0.65879 0.53595 0.0
H842 H 0.56847 0.65737 0.64484 0.0
H843 H 0.55109 0.68725 0.75796 0.0
H844 H 0.57639 0.69401 0.06044 0.0
H845 H 0.57524 0.69805 0.95162 0.0
C846 C 0.88329 0.56491 0.5346 0.0
C847 C 0.89011 0.5812 0.56065 0.0
C848 C 0.88049 0.56265 0.47194 0.0
C849 C 0.89266 0.58674 0.32612 0.0
H850 H 0.85327 0.54604 0.26445 0.0
C851 C 0.88346 0.57089 0.06995 0.0
C852 C 0.86682 0.56287 0.04638 0.0
C853 C 0.88628 0.57328 0.13248 0.0
C854 C 0.86424 0.55759 0.2808 0.0
H855 H 0.89888 0.6078 0.54138 0.0
H856 H 0.89375 0.60388 0.43277 0.0
H857 H 0.85794 0.54989 0.37336 0.0
H858 H 0.84013 0.55155 0.06993 0.0
H859 H 0.84501 0.55606 0.17884 0.0
H860 H 0.89865 0.59473 0.23374 0.0
C861 C 0.891 0.59287 0.46022 0.0
C862 C 0.86707 0.55968 0.34342 0.0
C863 C 0.89392 0.59514 0.52268 0.0
C864 C 0.85308 0.55757 0.08673 0.0
C865 C 0.8559 0.5601 0.14925 0.0
C866 C 0.88977 0.58471 0.26355 0.0
C867 C 0.88431 0.57661 0.43385 0.0
C868 C 0.88132 0.57429 0.36701 0.0
C869 C 0.87254 0.56785 0.17309 0.0
C870 C 0.87553 0.5701 0.23995 0.0
H871 H 0.88039 0.55396 0.56255 0.0
H872 H 0.87558 0.54998 0.45331 0.0
H873 H 0.9039 0.59806 0.34234 0.0
H874 H 0.89431 0.57486 0.04018 0.0
H875 H 0.89925 0.57903 0.14898 0.0
C876 C 0.31701 0.88721 0.56507 0.0
C877 C 0.30929 0.8705 0.54188 0.0
C878 C 0.31751 0.89008 0.6276 0.0
C879 C 0.3154 0.86948 0.77437 0.0
H880 H 0.30815 0.90503 0.8406 0.0
C881 C 0.31065 0.87775 0.03261 0.0
C882 C 0.31814 0.89446 0.05554 0.0
C883 C 0.30946 0.87479 0.97002 0.0
C884 C 0.31042 0.89518 0.82283 0.0
H885 H 0.29546 0.84373 0.56664 0.0
H886 H 0.29637 0.84874 0.67547 0.0
H887 H 0.30588 0.89996 0.73145 0.0
H888 H 0.33066 0.92117 0.03041 0.0
H889 H 0.32875 0.91605 0.92143 0.0
H890 H 0.32008 0.86478 0.86553 0.0
C891 C 0.30229 0.85963 0.64529 0.0
C892 C 0.30909 0.89226 0.76022 0.0
C893 C 0.30177 0.85675 0.58281 0.0
C894 C 0.32459 0.90814 0.01432 0.0
C895 C 0.32345 0.90519 0.95177 0.0
C896 C 0.31678 0.87243 0.83693 0.0
C897 C 0.31033 0.87633 0.66853 0.0
C898 C 0.31155 0.87936 0.73521 0.0
C899 C 0.31579 0.88847 0.92875 0.0
C900 C 0.31431 0.88533 0.86203 0.0
H901 H 0.32317 0.89811 0.53512 0.0
H902 H 0.32397 0.90311 0.64397 0.0
H903 H 0.31767 0.85963 0.75654 0.0
H904 H 0.30531 0.8669 0.06295 0.0
H905 H 0.30325 0.86174 0.95401 0.0
C906 C 0.43953 0.32787 0.51881 0.0
C907 C 0.42305 0.32078 0.54358 0.0
C908 C 0.44187 0.32746 0.45621 0.0
C909 C 0.41912 0.30525 0.31508 0.0
H910 H 0.45673 0.34415 0.23635 0.0
C911 C 0.4268 0.31184 0.05338 0.0
C912 C 0.44332 0.3179 0.03031 0.0
C913 C 0.42409 0.31197 0.11588 0.0
C914 C 0.44626 0.33312 0.25773 0.0
H915 H 0.39612 0.30754 0.52099 0.0
H916 H 0.40023 0.3073 0.41228 0.0
H917 H 0.45253 0.34491 0.34522 0.0
H918 H 0.46994 0.32902 0.0552 0.0
H919 H 0.4652 0.32907 0.16385 0.0
H920 H 0.4128 0.29355 0.22724 0.0
C921 C 0.41136 0.31296 0.44133 0.0
C922 C 0.44386 0.33353 0.32024 0.0
C923 C 0.40901 0.31331 0.50389 0.0
C924 C 0.45703 0.32406 0.07131 0.0
C925 C 0.45434 0.32428 0.13363 0.0
C926 C 0.42148 0.30488 0.25247 0.0
C927 C 0.42782 0.32001 0.4166 0.0
C928 C 0.4303 0.31959 0.34984 0.0
C929 C 0.43786 0.3183 0.15671 0.0
C930 C 0.43512 0.31878 0.2231 0.0
H931 H 0.45067 0.33388 0.54762 0.0
H932 H 0.45474 0.33284 0.43897 0.0
H933 H 0.4087 0.29417 0.33637 0.0
H934 H 0.41593 0.30689 0.02326 0.0
H935 H 0.41124 0.30737 0.13217 0.0
C936 C 0.57675 0.87205 0.48028 0.0
C937 C 0.58624 0.8887 0.45702 0.0
C938 C 0.5747 0.86921 0.5429 0.0
C939 C 0.59354 0.88964 0.69076 0.0
H940 H 0.55026 0.8545 0.75496 0.0
C941 C 0.57808 0.88167 0.94801 0.0
C942 C 0.56891 0.86495 0.97102 0.0
C943 C 0.58057 0.8846 0.88551 0.0
C944 C 0.5625 0.86424 0.73776 0.0
H945 H 0.6007 0.91543 0.48173 0.0
H946 H 0.59703 0.91051 0.59075 0.0
H947 H 0.5536 0.8596 0.646 0.0
H948 H 0.55565 0.83821 0.94587 0.0
H949 H 0.55996 0.84331 0.83712 0.0
H950 H 0.60237 0.89434 0.78272 0.0
C951 C 0.59144 0.8996 0.56064 0.0
C952 C 0.56442 0.86716 0.67518 0.0
C953 C 0.59353 0.90243 0.49802 0.0
C954 C 0.56253 0.85124 0.92988 0.0
C955 C 0.56499 0.85417 0.86741 0.0
C956 C 0.59159 0.88674 0.75339 0.0
C957 C 0.58205 0.88294 0.58397 0.0
C958 C 0.57998 0.87989 0.65078 0.0
C959 C 0.57393 0.87088 0.84437 0.0
C960 C 0.57606 0.87398 0.77769 0.0
H961 H 0.57118 0.86115 0.45018 0.0
H962 H 0.56762 0.85619 0.55913 0.0
H963 H 0.60579 0.89936 0.67362 0.0
H964 H 0.58294 0.89255 0.97811 0.0
H965 H 0.58733 0.89764 0.86934 0.0
C966 C 0.67042 0.56804 0.42485 0.0
C967 C 0.68146 0.58086 0.46515 0.0
C968 C 0.67124 0.57119 0.36259 0.0
C969 C 0.70015 0.59898 0.24364 0.0
H970 H 0.65864 0.58316 0.15029 0.0
C971 C 0.70116 0.61687 0.99193 0.0
C972 C 0.68946 0.60418 0.95257 0.0
C973 C 0.70008 0.61422 0.05457 0.0
C974 C 0.67035 0.58748 0.17554 0.0
H975 H 0.70207 0.60703 0.47156 0.0
H976 H 0.70347 0.61258 0.36267 0.0
H977 H 0.65694 0.57826 0.25948 0.0
H978 H 0.6673 0.5788 0.94881 0.0
H979 H 0.66572 0.574 0.05779 0.0
H980 H 0.71358 0.60801 0.15978 0.0
C981 C 0.69422 0.60006 0.37938 0.0
C982 C 0.66937 0.5847 0.23812 0.0
C983 C 0.69331 0.59694 0.44176 0.0
C984 C 0.67665 0.58878 0.97755 0.0
C985 C 0.6756 0.58611 0.04021 0.0
C986 C 0.70114 0.60168 0.18102 0.0
C987 C 0.6832 0.58721 0.33914 0.0
C988 C 0.68425 0.59041 0.27283 0.0
C989 C 0.68731 0.5988 0.0795 0.0
C990 C 0.68625 0.59596 0.14618 0.0
H991 H 0.66101 0.55559 0.44147 0.0
H992 H 0.66268 0.56099 0.33269 0.0
H993 H 0.71184 0.6033 0.26905 0.0
H994 H 0.71131 0.62882 0.97448 0.0
H995 H 0.70919 0.62436 0.08351 0.0
C996 C 0.09362 0.70162 0.48278 0.0
C997 C 0.09647 0.69101 0.44366 0.0
C998 C 0.09528 0.7008 0.5455 0.0
C999 C 0.09601 0.67282 0.66658 0.0
H1000 H 0.11728 0.71459 0.76082 0.0
C1001 C 0.11671 0.67526 0.91545 0.0
C1002 C 0.1133 0.68514 0.95613 0.0
C1003 C 0.11409 0.6758 0.85328 0.0
C1004 C 0.11114 0.70281 0.7352 0.0
H1005 H 0.10312 0.67108 0.44039 0.0
H1006 H 0.10648 0.67001 0.54947 0.0
H1007 H 0.11401 0.71594 0.65152 0.0
H1008 H 0.10451 0.70338 0.96335 0.0
H1009 H 0.09982 0.70425 0.85461 0.0
H1010 H 0.09336 0.65973 0.75029 0.0
C1011 C 0.10274 0.67881 0.53166 0.0
C1012 C 0.10925 0.70357 0.67257 0.0
C1013 C 0.10103 0.67958 0.46894 0.0
C1014 C 0.10713 0.69552 0.93324 0.0
C1015 C 0.1046 0.69615 0.87095 0.0
C1016 C 0.09797 0.67208 0.72914 0.0
C1017 C 0.09986 0.6894 0.57072 0.0
C1018 C 0.1017 0.68858 0.63746 0.0
C1019 C 0.10807 0.68629 0.83032 0.0
C1020 C 0.10561 0.68706 0.7641 0.0
H1021 H 0.09027 0.7107 0.46505 0.0
H1022 H 0.09278 0.70901 0.57428 0.0
H1023 H 0.08986 0.66101 0.64111 0.0
H1024 H 0.12128 0.66698 0.93168 0.0
H1025 H 0.11701 0.66817 0.82307 0.0
C1026 C 0.39485 0.09848 0.98587 0.0
C1027 C 0.40771 0.0998 0.94666 0.0
C1028 C 0.39736 0.09988 0.04862 0.0
C1029 C 0.42432 0.09719 0.16981 0.0
H1030 H 0.40781 0.12221 0.26384 0.0
C1031 C 0.44411 0.11721 0.41854 0.0
C1032 C 0.43132 0.11525 0.45929 0.0
C1033 C 0.44079 0.11473 0.35639 0.0
C1034 C 0.41233 0.11503 0.23829 0.0
H1035 H 0.43324 0.10336 0.94339 0.0
H1036 H 0.43779 0.1063 0.05243 0.0
H1037 H 0.40299 0.11917 0.15463 0.0
H1038 H 0.40501 0.10921 0.46658 0.0
H1039 H 0.39918 0.10478 0.35793 0.0
H1040 H 0.43388 0.09329 0.25353 0.0
C1041 C 0.42565 0.10396 0.03469 0.0
C1042 C 0.40955 0.11325 0.17569 0.0
C1043 C 0.42312 0.1025 0.97194 0.0
C1044 C 0.4151 0.11068 0.43645 0.0
C1045 C 0.4118 0.10831 0.37418 0.0
C1046 C 0.42717 0.09904 0.23236 0.0
C1047 C 0.4128 0.10267 0.07383 0.0
C1048 C 0.41555 0.10435 0.14062 0.0
C1049 C 0.42462 0.11032 0.33348 0.0
C1050 C 0.42125 0.10802 0.26725 0.0
H1051 H 0.38288 0.09657 0.96821 0.0
H1052 H 0.3871 0.09862 0.07742 0.0
H1053 H 0.42885 0.08999 0.14444 0.0
H1054 H 0.45667 0.12052 0.43472 0.0
H1055 H 0.45097 0.11651 0.32614 0.0
C1056 C 0.31765 0.43969 0.91197 0.0
C1057 C 0.30807 0.42627 0.95257 0.0
C1058 C 0.3173 0.43658 0.84981 0.0
C1059 C 0.29104 0.40619 0.73161 0.0
H1060 H 0.33281 0.42783 0.63763 0.0
C1061 C 0.2928 0.39009 0.47935 0.0
C1062 C 0.30304 0.40365 0.44011 0.0
C1063 C 0.2936 0.39256 0.54208 0.0
C1064 C 0.321 0.42184 0.66306 0.0
H1065 H 0.29058 0.39907 0.95965 0.0
H1066 H 0.29003 0.39361 0.85096 0.0
H1067 H 0.3339 0.43262 0.74679 0.0
H1068 H 0.32236 0.43045 0.43666 0.0
H1069 H 0.32339 0.43487 0.54572 0.0
H1070 H 0.27809 0.39559 0.64795 0.0
C1071 C 0.29776 0.40655 0.86734 0.0
C1072 C 0.32164 0.42456 0.72562 0.0
C1073 C 0.29819 0.40965 0.92961 0.0
C1074 C 0.31413 0.41975 0.46528 0.0
C1075 C 0.31489 0.42224 0.52801 0.0
C1076 C 0.29039 0.40353 0.669 0.0
C1077 C 0.30729 0.41999 0.82677 0.0
C1078 C 0.30666 0.4168 0.76054 0.0
C1079 C 0.30463 0.40868 0.56719 0.0
C1080 C 0.30536 0.41135 0.63393 0.0
H1081 H 0.32555 0.4526 0.92826 0.0
H1082 H 0.32468 0.44722 0.81965 0.0
H1083 H 0.27926 0.40022 0.75719 0.0
H1084 H 0.28399 0.37755 0.46173 0.0
H1085 H 0.28566 0.38178 0.57093 0.0
C1086 C 0.88542 0.31023 0.44715 0.0
C1087 C 0.86895 0.30465 0.46998 0.0
C1088 C 0.88824 0.3104 0.38463 0.0
C1089 C 0.86927 0.31143 0.23709 0.0
H1090 H 0.90089 0.29846 0.17163 0.0
C1091 C 0.87615 0.30481 0.97897 0.0
C1092 C 0.89259 0.3104 0.9559 0.0
C1093 C 0.87328 0.30402 0.04159 0.0
C1094 C 0.89217 0.30233 0.18916 0.0
H1095 H 0.84247 0.29433 0.44461 0.0
H1096 H 0.84736 0.29459 0.33584 0.0
H1097 H 0.89583 0.29686 0.28072 0.0
H1098 H 0.91896 0.31993 0.98107 0.0
H1099 H 0.91401 0.31867 0.09007 0.0
H1100 H 0.86567 0.31699 0.14572 0.0
C1101 C 0.85816 0.29913 0.36623 0.0
C1102 C 0.88925 0.30138 0.25179 0.0
C1103 C 0.85534 0.29894 0.4287 0.0
C1104 C 0.9061 0.31532 0.99715 0.0
C1105 C 0.90324 0.31457 0.05976 0.0
C1106 C 0.87221 0.3124 0.17452 0.0
C1107 C 0.87467 0.30503 0.34331 0.0
C1108 C 0.87774 0.30591 0.27657 0.0
C1109 C 0.88678 0.30884 0.08287 0.0
C1110 C 0.8837 0.30786 0.14966 0.0
H1111 H 0.89625 0.31498 0.47739 0.0
H1112 H 0.90115 0.31523 0.36861 0.0
H1113 H 0.86056 0.31531 0.25464 0.0
H1114 H 0.86538 0.30066 0.94873 0.0
H1115 H 0.86039 0.2993 0.05764 0.0
C1116 C 0.139 0.39939 0.27623 0.0
C1117 C 0.14126 0.41581 0.26838 0.0
C1118 C 0.15227 0.39621 0.26306 0.0
C1119 C 0.19347 0.41477 0.18026 0.0
H1120 H 0.20352 0.38763 0.29097 0.0
C1121 C 0.25985 0.42368 0.21105 0.0
C1122 C 0.26177 0.40926 0.20656 0.0
C1123 C 0.2437 0.42193 0.21235 0.0
C1124 C 0.20066 0.39498 0.25917 0.0
H1125 H 0.15916 0.44178 0.24143 0.0
H1126 H 0.18235 0.43641 0.22014 0.0
H1127 H 0.17772 0.38952 0.30568 0.0
H1128 H 0.24837 0.38167 0.20064 0.0
H1129 H 0.21978 0.37857 0.2049 0.0
H1130 H 0.21692 0.42101 0.13601 0.0
C1131 C 0.17026 0.42584 0.2348 0.0
C1132 C 0.18591 0.39607 0.26746 0.0
C1133 C 0.157 0.42897 0.24752 0.0
C1134 C 0.24719 0.39298 0.20395 0.0
C1135 C 0.23092 0.3912 0.20651 0.0
C1136 C 0.20826 0.41385 0.17252 0.0
C1137 C 0.16805 0.40941 0.24205 0.0
C1138 C 0.18242 0.40638 0.22907 0.0
C1139 C 0.22911 0.40572 0.21017 0.0
C1140 C 0.21218 0.40431 0.21278 0.0
H1141 H 0.12695 0.38898 0.29204 0.0
H1142 H 0.15012 0.3834 0.26874 0.0
H1143 H 0.19094 0.42245 0.14888 0.0
H1144 H 0.27086 0.4364 0.21288 0.0
H1145 H 0.2426 0.43329 0.21583 0.0
C1146 C 0.83099 0.26386 0.76674 0.0
C1147 C 0.84654 0.26614 0.74488 0.0
C1148 C 0.81742 0.24757 0.77811 0.0
C1149 C 0.80038 0.20229 0.73944 0.0
H1150 H 0.76925 0.1962 0.87053 0.0
C1151 C 0.73826 0.13851 0.8011 0.0
C1152 C 0.72378 0.1404 0.79909 0.0
C1153 C 0.75459 0.15284 0.79786 0.0
C1154 C 0.77791 0.19772 0.83403 0.0
H1155 H 0.86019 0.25318 0.71821 0.0
H1156 H 0.83643 0.22451 0.73933 0.0
H1157 H 0.79594 0.22311 0.86103 0.0
H1158 H 0.71492 0.15861 0.79257 0.0
H1159 H 0.74341 0.18362 0.78857 0.0
H1160 H 0.78212 0.1767 0.71294 0.0
C1161 C 0.83469 0.23537 0.7468 0.0
C1162 C 0.79313 0.21314 0.82824 0.0
C1163 C 0.8483 0.25177 0.73491 0.0
C1164 C 0.72586 0.15679 0.79399 0.0
C1165 C 0.74212 0.17108 0.79204 0.0
C1166 C 0.78522 0.18672 0.74586 0.0
C1167 C 0.81908 0.23311 0.76858 0.0
C1168 C 0.80427 0.21584 0.77965 0.0
C1169 C 0.7566 0.16923 0.79402 0.0
C1170 C 0.77367 0.18455 0.79212 0.0
H1171 H 0.82917 0.27467 0.77441 0.0
H1172 H 0.80548 0.24633 0.79331 0.0
H1173 H 0.80861 0.20396 0.70132 0.0
H1174 H 0.73696 0.12598 0.80484 0.0
H1175 H 0.76563 0.15118 0.7994 0.0
C1176 C 0.60436 0.8473 0.20704 0.0
C1177 C 0.59034 0.84591 0.23928 0.0
C1178 C 0.60877 0.83457 0.21179 0.0
C1179 C 0.60257 0.79791 0.3048 0.0
H1180 H 0.60442 0.77783 0.1516 0.0
C1181 C 0.58062 0.72772 0.21722 0.0
C1182 C 0.58827 0.72203 0.25941 0.0
C1183 C 0.58619 0.74506 0.21152 0.0
C1184 C 0.60419 0.78346 0.19472 0.0
H1185 H 0.57041 0.83058 0.30372 0.0
H1186 H 0.57816 0.80846 0.31231 0.0
H1187 H 0.60418 0.80471 0.15216 0.0
H1188 H 0.60816 0.72986 0.32698 0.0
H1189 H 0.6177 0.76041 0.31806 0.0
H1190 H 0.60169 0.7762 0.34719 0.0
C1191 C 0.58577 0.81936 0.28345 0.0
C1192 C 0.60415 0.79887 0.19508 0.0
C1193 C 0.58124 0.83194 0.27813 0.0
C1194 C 0.60212 0.734 0.29397 0.0
C1195 C 0.60751 0.75141 0.28906 0.0
C1196 C 0.60278 0.78258 0.30447 0.0
C1197 C 0.59939 0.82038 0.24955 0.0
C1198 C 0.6027 0.80591 0.25002 0.0
C1199 C 0.59934 0.75703 0.24859 0.0
C1200 C 0.60295 0.7749 0.2493 0.0
H1201 H 0.61161 0.85795 0.17677 0.0
H1202 H 0.61936 0.83569 0.18531 0.0
H1203 H 0.60161 0.80317 0.34781 0.0
H1204 H 0.56994 0.7187 0.18996 0.0
H1205 H 0.57952 0.74898 0.18047 0.0
C1206 C 0.82861 0.56651 0.75562 0.0
C1207 C 0.84472 0.57984 0.77271 0.0
C1208 C 0.81518 0.56955 0.7458 0.0
C1209 C 0.80065 0.60029 0.77972 0.0
H1210 H 0.76671 0.57366 0.65804 0.0
C1211 C 0.74194 0.60764 0.71888 0.0
C1212 C 0.72637 0.59224 0.72255 0.0
C1213 C 0.75737 0.60765 0.7224 0.0
C1214 C 0.77612 0.58118 0.69209 0.0
H1215 H 0.85953 0.60688 0.7923 0.0
H1216 H 0.83608 0.61237 0.7734 0.0
H1217 H 0.79232 0.57139 0.66662 0.0
H1218 H 0.71464 0.56481 0.7323 0.0
H1219 H 0.74158 0.56482 0.73698 0.0
H1220 H 0.78432 0.6102 0.80429 0.0
C1221 C 0.83375 0.59947 0.76882 0.0
C1222 C 0.79074 0.57983 0.69734 0.0
C1223 C 0.8472 0.59635 0.77937 0.0
C1224 C 0.72646 0.57687 0.72954 0.0
C1225 C 0.74184 0.57685 0.73188 0.0
C1226 C 0.7861 0.60183 0.77376 0.0
C1227 C 0.81756 0.58607 0.75198 0.0
C1228 C 0.80298 0.58902 0.74227 0.0
C1229 C 0.7574 0.59223 0.72833 0.0
C1230 C 0.77356 0.59198 0.73083 0.0
H1231 H 0.82627 0.5536 0.75072 0.0
H1232 H 0.80282 0.55883 0.73443 0.0
H1233 H 0.8097 0.60744 0.81517 0.0
H1234 H 0.7422 0.61967 0.71365 0.0
H1235 H 0.76925 0.61965 0.71949 0.0
C1236 C 0.25749 0.85329 0.27561 0.0
C1237 C 0.27118 0.85056 0.26365 0.0
C1238 C 0.24073 0.84049 0.26322 0.0
C1239 C 0.2162 0.79983 0.17734 0.0
H1240 H 0.18107 0.78917 0.29781 0.0
C1241 C 0.1595 0.73307 0.21492 0.0
C1242 C 0.14318 0.73117 0.21114 0.0
C1243 C 0.17391 0.74926 0.21595 0.0
C1244 C 0.19071 0.79221 0.26341 0.0
H1245 H 0.27808 0.83232 0.22951 0.0
H1246 H 0.24913 0.81007 0.2095 0.0
H1247 H 0.20892 0.81502 0.30895 0.0
H1248 H 0.12901 0.74464 0.20672 0.0
H1249 H 0.15447 0.77322 0.21066 0.0
H1250 H 0.19832 0.77644 0.13412 0.0
C1251 C 0.25119 0.82215 0.22688 0.0
C1252 C 0.20662 0.807 0.26958 0.0
C1253 C 0.26783 0.83489 0.23891 0.0
C1254 C 0.14149 0.74579 0.20943 0.0
C1255 C 0.15596 0.76207 0.21182 0.0
C1256 C 0.20044 0.78498 0.17176 0.0
C1257 C 0.23741 0.82476 0.23872 0.0
C1258 C 0.21972 0.81068 0.22758 0.0
C1259 C 0.17227 0.76387 0.21439 0.0
C1260 C 0.18775 0.78084 0.21556 0.0
H1261 H 0.25972 0.86527 0.29459 0.0
H1262 H 0.2304 0.84293 0.27258 0.0
H1263 H 0.22583 0.80251 0.14326 0.0
H1264 H 0.16117 0.72202 0.21606 0.0
H1265 H 0.18638 0.75039 0.21841 0.0
C1266 C 0.44023 0.27502 0.7502 0.0
C1267 C 0.42637 0.27751 0.76157 0.0
C1268 C 0.43782 0.25858 0.74606 0.0
C1269 C 0.40777 0.2147 0.70919 0.0
H1270 H 0.43631 0.20446 0.81167 0.0
C1271 C 0.40322 0.14825 0.71057 0.0
C1272 C 0.41868 0.14829 0.71652 0.0
C1273 C 0.40273 0.16338 0.71796 0.0
C1274 C 0.42838 0.20713 0.78212 0.0
H1275 H 0.39906 0.2648 0.77583 0.0
H1276 H 0.39479 0.23586 0.76692 0.0
H1277 H 0.43816 0.23216 0.81928 0.0
H1278 H 0.44578 0.16418 0.73296 0.0
H1279 H 0.44508 0.19047 0.74361 0.0
H1280 H 0.39848 0.18994 0.67007 0.0
C1281 C 0.40751 0.24672 0.76192 0.0
C1282 C 0.42938 0.22297 0.78686 0.0
C1283 C 0.40996 0.26322 0.7672 0.0
C1284 C 0.43364 0.16371 0.72882 0.0
C1285 C 0.43319 0.17879 0.73542 0.0
C1286 C 0.40694 0.19888 0.70371 0.0
C1287 C 0.42147 0.2443 0.7522 0.0
C1288 C 0.41929 0.22699 0.74987 0.0
C1289 C 0.41772 0.17883 0.73086 0.0
C1290 C 0.41747 0.19503 0.73943 0.0
H1291 H 0.45303 0.28578 0.74581 0.0
H1292 H 0.44877 0.25701 0.73806 0.0
H1293 H 0.39989 0.21757 0.68008 0.0
H1294 H 0.39148 0.13651 0.70127 0.0
H1295 H 0.39057 0.16289 0.7146 0.0
loop_
_geom_bond_atom_site_label_1
_geom_bond_atom_site_label_2
_geom_bond_distance
_geom_bond_site_symmetry_2
_ccdc_geom_bond_type
Co0 N4 2.148 . S
Co0 N10 2.128 . S
Co0 N20 2.194 . S
Co0 O25 2.351 . S
Co0 O26 2.155 . S
Co0 O27 2.096 . S
C1 N4 1.301 . S
C1 N5 1.328 . S
C1 H6 0.930 . S
C2 C3 1.333 . S
C2 N4 1.317 . S
C2 H7 0.930 . S
C3 C2 1.333 . S
C3 N5 1.350 . S
C3 H29 0.931 . S
N4 Co0 2.148 . S
N4 C1 1.301 . S
N4 C2 1.317 . S
N5 C1 1.328 . S
N5 C3 1.350 . S
H6 C1 0.930 . S
H7 C2 0.930 . S
C8 O9 1.224 . S
C8 O27 1.247 . S
O9 C8 1.224 . S
N10 Co0 2.128 . S
N10 C11 1.355 . S
N10 C13 1.311 . S
C11 N10 1.355 . S
C11 C12 1.363 . S
C11 H23 0.929 . S
C12 C11 1.363 . S
C12 N14 1.375 . S
C12 H30 0.931 . S
C13 N10 1.311 . S
C13 N14 1.347 . S
C13 H24 0.929 . S
N14 C12 1.375 . S
N14 C13 1.347 . S
C15 C18 1.365 . S
C15 N20 1.328 . S
C15 H21 0.929 . S
C16 C17 1.362 . S
C16 C19 1.378 . S
C16 H31 0.929 . S
C17 C16 1.362 . S
C17 C18 1.366 . S
C18 C15 1.365 . S
C18 C17 1.366 . S
C18 H32 0.930 . S
C19 C16 1.378 . S
C19 N20 1.315 . S
C19 H22 0.930 . S
N20 Co0 2.194 . S
N20 C15 1.328 . S
N20 C19 1.315 . S
H21 C15 0.929 . S
H22 C19 0.930 . S
H23 C11 0.929 . S
H24 C13 0.929 . S
O25 Co0 2.351 . S
O25 C28 1.244 . S
O26 Co0 2.155 . S
O26 C28 1.240 . S
O27 Co0 2.096 . S
O27 C8 1.247 . S
C28 O25 1.244 . S
C28 O26 1.240 . S
H29 C3 0.931 . S
H30 C12 0.931 . S
H31 C16 0.929 . S
H32 C18 0.930 . S
Co33 N37 2.148 . S
Co33 N43 2.128 . S
Co33 N53 2.194 . S
Co33 O58 2.351 . S
Co33 O59 2.155 . S
Co33 O60 2.096 . S
C34 N37 1.301 . S
C34 N38 1.328 . S
C34 H39 0.930 . S
C35 C36 1.333 . S
C35 N37 1.317 . S
C35 H40 0.930 . S
C36 C35 1.333 . S
C36 N38 1.350 . S
C36 H62 0.931 . S
N37 Co33 2.148 . S
N37 C34 1.301 . S
N37 C35 1.317 . S
N38 C34 1.328 . S
N38 C36 1.350 . S
H39 C34 0.930 . S
H40 C35 0.930 . S
C41 O42 1.224 . S
C41 O60 1.247 . S
O42 C41 1.224 . S
N43 Co33 2.128 . S
N43 C44 1.355 . S
N43 C46 1.311 . S
C44 N43 1.355 . S
C44 C45 1.363 . S
C44 H56 0.929 . S
C45 C44 1.363 . S
C45 N47 1.375 1_556 S
C45 H63 0.931 1_556 S
C46 N43 1.311 . S
C46 N47 1.347 1_556 S
C46 H57 0.929 . S
N47 C45 1.375 1_554 S
N47 C46 1.347 1_554 S
C48 C51 1.365 . S
C48 N53 1.328 . S
C48 H54 0.929 . S
C49 C50 1.362 . S
C49 C52 1.378 . S
C49 H64 0.929 . S
C50 C49 1.362 . S
C50 C51 1.366 . S
C51 C48 1.365 . S
C51 C50 1.366 . S
C51 H65 0.930 . S
C52 C49 1.378 . S
C52 N53 1.315 . S
C52 H55 0.930 . S
N53 Co33 2.194 . S
N53 C48 1.328 . S
N53 C52 1.315 . S
H54 C48 0.929 . S
H55 C52 0.930 . S
H56 C44 0.929 . S
H57 C46 0.929 . S
O58 Co33 2.351 . S
O58 C61 1.244 . S
O59 Co33 2.155 . S
O59 C61 1.240 . S
O60 Co33 2.096 . S
O60 C41 1.247 . S
C61 O58 1.244 . S
C61 O59 1.240 . S
H62 C36 0.931 . S
H63 C45 0.931 1_554 S
H64 C49 0.929 . S
H65 C51 0.930 . S
Co66 N70 2.148 . S
Co66 N76 2.128 . S
Co66 N86 2.194 . S
Co66 O91 2.351 . S
Co66 O92 2.155 . S
Co66 O93 2.096 . S
C67 N70 1.301 . S
C67 N71 1.328 . S
C67 H72 0.930 . S
C68 C69 1.333 . S
C68 N70 1.317 . S
C68 H73 0.930 . S
C69 C68 1.333 . S
C69 N71 1.350 . S
C69 H95 0.931 . S
N70 Co66 2.148 . S
N70 C67 1.301 . S
N70 C68 1.317 . S
N71 C67 1.328 . S
N71 C69 1.350 . S
H72 C67 0.930 . S
H73 C68 0.930 . S
C74 O75 1.224 . S
C74 O93 1.247 . S
O75 C74 1.224 . S
N76 Co66 2.128 . S
N76 C77 1.355 . S
N76 C79 1.311 . S
C77 N76 1.355 . S
C77 C78 1.363 . S
C77 H89 0.929 . S
C78 C77 1.363 . S
C78 N80 1.375 . S
C78 H96 0.931 . S
C79 N76 1.311 . S
C79 N80 1.347 . S
C79 H90 0.929 . S
N80 C78 1.375 . S
N80 C79 1.347 . S
C81 C84 1.365 . S
C81 N86 1.328 . S
C81 H87 0.929 . S
C82 C83 1.362 . S
C82 C85 1.378 . S
C82 H97 0.929 . S
C83 C82 1.362 . S
C83 C84 1.366 . S
C84 C81 1.365 . S
C84 C83 1.366 . S
C84 H98 0.930 . S
C85 C82 1.378 . S
C85 N86 1.315 . S
C85 H88 0.930 . S
N86 Co66 2.194 . S
N86 C81 1.328 . S
N86 C85 1.315 . S
H87 C81 0.929 . S
H88 C85 0.930 . S
H89 C77 0.929 . S
H90 C79 0.929 . S
O91 Co66 2.351 . S
O91 C94 1.244 . S
O92 Co66 2.155 . S
O92 C94 1.240 . S
O93 Co66 2.096 . S
O93 C74 1.247 . S
C94 O91 1.244 . S
C94 O92 1.240 . S
H95 C69 0.931 . S
H96 C78 0.931 . S
H97 C82 0.929 . S
H98 C84 0.930 . S
Co99 N103 2.148 . S
Co99 N109 2.128 . S
Co99 N119 2.194 . S
Co99 O124 2.351 . S
Co99 O125 2.155 . S
Co99 O126 2.096 . S
C100 N103 1.301 . S
C100 N104 1.328 . S
C100 H105 0.930 . S
C101 C102 1.333 . S
C101 N103 1.317 . S
C101 H106 0.930 . S
C102 C101 1.333 . S
C102 N104 1.350 . S
C102 H128 0.931 . S
N103 Co99 2.148 . S
N103 C100 1.301 . S
N103 C101 1.317 . S
N104 C100 1.328 . S
N104 C102 1.350 . S
H105 C100 0.930 . S
H106 C101 0.930 . S
C107 O108 1.224 . S
C107 O126 1.247 . S
O108 C107 1.224 . S
N109 Co99 2.128 . S
N109 C110 1.355 . S
N109 C112 1.311 . S
C110 N109 1.355 . S
C110 C111 1.363 . S
C110 H122 0.929 . S
C111 C110 1.363 . S
C111 N113 1.375 1_556 S
C111 H129 0.931 1_556 S
C112 N109 1.311 . S
C112 N113 1.347 1_556 S
C112 H123 0.929 . S
N113 C111 1.375 1_554 S
N113 C112 1.347 1_554 S
C114 C117 1.365 . S
C114 N119 1.328 . S
C114 H120 0.929 . S
C115 C116 1.362 . S
C115 C118 1.378 . S
C115 H130 0.929 . S
C116 C115 1.362 . S
C116 C117 1.366 . S
C117 C114 1.365 . S
C117 C116 1.366 . S
C117 H131 0.930 . S
C118 C115 1.378 . S
C118 N119 1.315 . S
C118 H121 0.930 . S
N119 Co99 2.194 . S
N119 C114 1.328 . S
N119 C118 1.315 . S
H120 C114 0.929 . S
H121 C118 0.930 . S
H122 C110 0.929 . S
H123 C112 0.929 . S
O124 Co99 2.351 . S
O124 C127 1.244 . S
O125 Co99 2.155 . S
O125 C127 1.240 . S
O126 Co99 2.096 . S
O126 C107 1.247 . S
C127 O124 1.244 . S
C127 O125 1.240 . S
H128 C102 0.931 . S
H129 C111 0.931 1_554 S
H130 C115 0.929 . S
H131 C117 0.930 . S
Co132 N136 2.148 . S
Co132 N142 2.128 . S
Co132 N152 2.194 . S
Co132 O157 2.351 . S
Co132 O158 2.155 . S
Co132 O159 2.096 . S
C133 N136 1.301 . S
C133 N137 1.328 . S
C133 H138 0.930 . S
C134 C135 1.333 . S
C134 N136 1.317 . S
C134 H139 0.930 . S
C135 C134 1.333 . S
C135 N137 1.350 . S
C135 H161 0.931 . S
N136 Co132 2.148 . S
N136 C133 1.301 . S
N136 C134 1.317 . S
N137 C133 1.328 . S
N137 C135 1.350 . S
H138 C133 0.930 . S
H139 C134 0.930 . S
C140 O141 1.224 . S
C140 O159 1.247 . S
O141 C140 1.224 . S
N142 Co132 2.128 . S
N142 C143 1.355 . S
N142 C145 1.311 . S
C143 N142 1.355 . S
C143 C144 1.363 . S
C143 H155 0.929 . S
C144 C143 1.363 . S
C144 N146 1.375 . S
C144 H162 0.931 . S
C145 N142 1.311 . S
C145 N146 1.347 . S
C145 H156 0.929 . S
N146 C144 1.375 . S
N146 C145 1.347 . S
C147 C150 1.365 . S
C147 N152 1.328 . S
C147 H153 0.929 . S
C148 C149 1.362 . S
C148 C151 1.378 . S
C148 H163 0.929 . S
C149 C148 1.362 . S
C149 C150 1.366 . S
C150 C147 1.365 . S
C150 C149 1.366 . S
C150 H164 0.930 . S
C151 C148 1.378 . S
C151 N152 1.315 . S
C151 H154 0.930 . S
N152 Co132 2.194 . S
N152 C147 1.328 . S
N152 C151 1.315 . S
H153 C147 0.929 . S
H154 C151 0.930 . S
H155 C143 0.929 . S
H156 C145 0.929 . S
O157 Co132 2.351 . S
O157 C160 1.244 . S
O158 Co132 2.155 . S
O158 C160 1.240 . S
O159 Co132 2.096 . S
O159 C140 1.247 . S
C160 O157 1.244 . S
C160 O158 1.240 . S
H161 C135 0.931 . S
H162 C144 0.931 . S
H163 C148 0.929 . S
H164 C150 0.930 . S
Co165 N169 2.148 . S
Co165 N175 2.128 . S
Co165 N185 2.194 . S
Co165 O190 2.351 . S
Co165 O191 2.155 . S
Co165 O192 2.096 . S
C166 N169 1.301 . S
C166 N170 1.328 . S
C166 H171 0.930 . S
C167 C168 1.333 . S
C167 N169 1.317 . S
C167 H172 0.930 . S
C168 C167 1.333 . S
C168 N170 1.350 . S
C168 H194 0.931 . S
N169 Co165 2.148 . S
N169 C166 1.301 . S
N169 C167 1.317 . S
N170 C166 1.328 . S
N170 C168 1.350 . S
H171 C166 0.930 . S
H172 C167 0.930 . S
C173 O174 1.224 . S
C173 O192 1.247 . S
O174 C173 1.224 . S
N175 Co165 2.128 . S
N175 C176 1.355 . S
N175 C178 1.311 . S
C176 N175 1.355 . S
C176 C177 1.363 . S
C176 H188 0.929 . S
C177 C176 1.363 . S
C177 N179 1.375 1_556 S
C177 H195 0.931 1_556 S
C178 N175 1.311 . S
C178 N179 1.347 1_556 S
C178 H189 0.929 . S
N179 C177 1.375 1_554 S
N179 C178 1.347 1_554 S
C180 C183 1.365 . S
C180 N185 1.328 . S
C180 H186 0.929 . S
C181 C182 1.362 . S
C181 C184 1.378 . S
C181 H196 0.929 . S
C182 C181 1.362 . S
C182 C183 1.366 . S
C183 C180 1.365 . S
C183 C182 1.366 . S
C183 H197 0.930 . S
C184 C181 1.378 . S
C184 N185 1.315 . S
C184 H187 0.930 . S
N185 Co165 2.194 . S
N185 C180 1.328 . S
N185 C184 1.315 . S
H186 C180 0.929 . S
H187 C184 0.930 . S
H188 C176 0.929 . S
H189 C178 0.929 . S
O190 Co165 2.351 . S
O190 C193 1.244 . S
O191 Co165 2.155 . S
O191 C193 1.240 . S
O192 Co165 2.096 . S
O192 C173 1.247 . S
C193 O190 1.244 . S
C193 O191 1.240 . S
H194 C168 0.931 . S
H195 C177 0.931 1_554 S
H196 C181 0.929 . S
H197 C183 0.930 . S
Co198 N202 2.148 . S
Co198 N208 2.128 . S
Co198 N218 2.194 . S
Co198 O223 2.351 . S
Co198 O224 2.155 . S
Co198 O225 2.096 . S
C199 N202 1.301 . S
C199 N203 1.328 . S
C199 H204 0.930 . S
C200 C201 1.333 . S
C200 N202 1.317 . S
C200 H205 0.930 . S
C201 C200 1.333 . S
C201 N203 1.350 . S
C201 H227 0.931 . S
N202 Co198 2.148 . S
N202 C199 1.301 . S
N202 C200 1.317 . S
N203 C199 1.328 . S
N203 C201 1.350 . S
H204 C199 0.930 . S
H205 C200 0.930 . S
C206 O207 1.224 . S
C206 O225 1.247 . S
O207 C206 1.224 . S
N208 Co198 2.128 . S
N208 C209 1.355 . S
N208 C211 1.311 . S
C209 N208 1.355 . S
C209 C210 1.363 . S
C209 H221 0.929 . S
C210 C209 1.363 . S
C210 N212 1.375 1_554 S
C210 H228 0.931 1_554 S
C211 N208 1.311 . S
C211 N212 1.347 1_554 S
C211 H222 0.929 . S
N212 C210 1.375 1_556 S
N212 C211 1.347 1_556 S
C213 C216 1.365 . S
C213 N218 1.328 . S
C213 H219 0.929 . S
C214 C215 1.362 . S
C214 C217 1.378 . S
C214 H229 0.929 . S
C215 C214 1.362 . S
C215 C216 1.366 . S
C216 C213 1.365 . S
C216 C215 1.366 . S
C216 H230 0.930 . S
C217 C214 1.378 . S
C217 N218 1.315 . S
C217 H220 0.930 . S
N218 Co198 2.194 . S
N218 C213 1.328 . S
N218 C217 1.315 . S
H219 C213 0.929 . S
H220 C217 0.930 . S
H221 C209 0.929 . S
H222 C211 0.929 . S
O223 Co198 2.351 . S
O223 C226 1.244 . S
O224 Co198 2.155 . S
O224 C226 1.240 . S
O225 Co198 2.096 . S
O225 C206 1.247 . S
C226 O223 1.244 . S
C226 O224 1.240 . S
H227 C201 0.931 . S
H228 C210 0.931 1_556 S
H229 C214 0.929 . S
H230 C216 0.930 . S
Co231 N235 2.148 . S
Co231 N241 2.128 . S
Co231 N251 2.194 . S
Co231 O256 2.351 . S
Co231 O257 2.155 . S
Co231 O258 2.096 . S
C232 N235 1.301 . S
C232 N236 1.328 . S
C232 H237 0.930 . S
C233 C234 1.333 . S
C233 N235 1.317 . S
C233 H238 0.930 . S
C234 C233 1.333 . S
C234 N236 1.350 . S
C234 H260 0.931 . S
N235 Co231 2.148 . S
N235 C232 1.301 . S
N235 C233 1.317 . S
N236 C232 1.328 . S
N236 C234 1.350 . S
H237 C232 0.930 . S
H238 C233 0.930 . S
C239 O240 1.224 . S
C239 O258 1.247 . S
O240 C239 1.224 . S
N241 Co231 2.128 . S
N241 C242 1.355 . S
N241 C244 1.311 . S
C242 N241 1.355 . S
C242 C243 1.363 . S
C242 H254 0.929 . S
C243 C242 1.363 . S
C243 N245 1.375 . S
C243 H261 0.931 . S
C244 N241 1.311 . S
C244 N245 1.347 . S
C244 H255 0.929 . S
N245 C243 1.375 . S
N245 C244 1.347 . S
C246 C249 1.365 . S
C246 N251 1.328 . S
C246 H252 0.929 . S
C247 C248 1.362 . S
C247 C250 1.378 . S
C247 H262 0.929 . S
C248 C247 1.362 . S
C248 C249 1.366 . S
C249 C246 1.365 . S
C249 C248 1.366 . S
C249 H263 0.930 . S
C250 C247 1.378 . S
C250 N251 1.315 . S
C250 H253 0.930 . S
N251 Co231 2.194 . S
N251 C246 1.328 . S
N251 C250 1.315 . S
H252 C246 0.929 . S
H253 C250 0.930 . S
H254 C242 0.929 . S
H255 C244 0.929 . S
O256 Co231 2.351 . S
O256 C259 1.244 . S
O257 Co231 2.155 . S
O257 C259 1.240 . S
O258 Co231 2.096 . S
O258 C239 1.247 . S
C259 O256 1.244 . S
C259 O257 1.240 . S
H260 C234 0.931 . S
H261 C243 0.931 . S
H262 C247 0.929 . S
H263 C249 0.930 . S
Co264 N268 2.148 . S
Co264 N274 2.128 . S
Co264 N284 2.194 . S
Co264 O289 2.351 . S
Co264 O290 2.155 . S
Co264 O291 2.096 . S
C265 N268 1.301 . S
C265 N269 1.328 . S
C265 H270 0.930 . S
C266 C267 1.333 . S
C266 N268 1.317 . S
C266 H271 0.930 . S
C267 C266 1.333 . S
C267 N269 1.350 . S
C267 H293 0.931 . S
N268 Co264 2.148 . S
N268 C265 1.301 . S
N268 C266 1.317 . S
N269 C265 1.328 . S
N269 C267 1.350 . S
H270 C265 0.930 . S
H271 C266 0.930 . S
C272 O273 1.224 . S
C272 O291 1.247 . S
O273 C272 1.224 . S
N274 Co264 2.128 . S
N274 C275 1.355 . S
N274 C277 1.311 . S
C275 N274 1.355 . S
C275 C276 1.363 . S
C275 H287 0.929 . S
C276 C275 1.363 . S
C276 N278 1.375 1_554 S
C276 H294 0.931 1_554 S
C277 N274 1.311 . S
C277 N278 1.347 1_554 S
C277 H288 0.929 . S
N278 C276 1.375 1_556 S
N278 C277 1.347 1_556 S
C279 C282 1.365 . S
C279 N284 1.328 . S
C279 H285 0.929 . S
C280 C281 1.362 . S
C280 C283 1.378 . S
C280 H295 0.929 . S
C281 C280 1.362 . S
C281 C282 1.366 . S
C282 C279 1.365 . S
C282 C281 1.366 . S
C282 H296 0.930 . S
C283 C280 1.378 . S
C283 N284 1.315 . S
C283 H286 0.930 . S
N284 Co264 2.194 . S
N284 C279 1.328 . S
N284 C283 1.315 . S
H285 C279 0.929 . S
H286 C283 0.930 . S
H287 C275 0.929 . S
H288 C277 0.929 . S
O289 Co264 2.351 . S
O289 C292 1.244 . S
O290 Co264 2.155 . S
O290 C292 1.240 . S
O291 Co264 2.096 . S
O291 C272 1.247 . S
C292 O289 1.244 . S
C292 O290 1.240 . S
H293 C267 0.931 . S
H294 C276 0.931 1_556 S
H295 C280 0.929 . S
H296 C282 0.930 . S
Co297 N301 2.148 . S
Co297 N307 2.128 . S
Co297 N317 2.194 . S
Co297 O322 2.351 . S
Co297 O323 2.155 . S
Co297 O324 2.096 . S
C298 N301 1.301 . S
C298 N302 1.328 . S
C298 H303 0.930 . S
C299 C300 1.333 . S
C299 N301 1.317 . S
C299 H304 0.930 . S
C300 C299 1.333 . S
C300 N302 1.350 . S
C300 H326 0.931 . S
N301 Co297 2.148 . S
N301 C298 1.301 . S
N301 C299 1.317 . S
N302 C298 1.328 . S
N302 C300 1.350 . S
H303 C298 0.930 . S
H304 C299 0.930 . S
C305 O306 1.224 . S
C305 O324 1.247 . S
O306 C305 1.224 . S
N307 Co297 2.128 . S
N307 C308 1.355 . S
N307 C310 1.311 . S
C308 N307 1.355 . S
C308 C309 1.363 . S
C308 H320 0.929 . S
C309 C308 1.363 . S
C309 N311 1.375 . S
C309 H327 0.931 . S
C310 N307 1.311 . S
C310 N311 1.347 . S
C310 H321 0.929 . S
N311 C309 1.375 . S
N311 C310 1.347 . S
C312 C315 1.365 . S
C312 N317 1.328 . S
C312 H318 0.929 . S
C313 C314 1.362 . S
C313 C316 1.378 . S
C313 H328 0.929 . S
C314 C313 1.362 . S
C314 C315 1.366 . S
C315 C312 1.365 . S
C315 C314 1.366 . S
C315 H329 0.930 . S
C316 C313 1.378 . S
C316 N317 1.315 . S
C316 H319 0.930 . S
N317 Co297 2.194 . S
N317 C312 1.328 . S
N317 C316 1.315 . S
H318 C312 0.929 . S
H319 C316 0.930 . S
H320 C308 0.929 . S
H321 C310 0.929 . S
O322 Co297 2.351 . S
O322 C325 1.244 . S
O323 Co297 2.155 . S
O323 C325 1.240 . S
O324 Co297 2.096 . S
O324 C305 1.247 . S
C325 O322 1.244 . S
C325 O323 1.240 . S
H326 C300 0.931 . S
H327 C309 0.931 . S
H328 C313 0.929 . S
H329 C315 0.930 . S
Co330 N334 2.148 . S
Co330 N340 2.128 . S
Co330 N350 2.194 . S
Co330 O355 2.351 . S
Co330 O356 2.155 . S
Co330 O357 2.096 . S
C331 N334 1.301 . S
C331 N335 1.328 . S
C331 H336 0.930 . S
C332 C333 1.333 . S
C332 N334 1.317 . S
C332 H337 0.930 . S
C333 C332 1.333 . S
C333 N335 1.350 . S
C333 H359 0.931 . S
N334 Co330 2.148 . S
N334 C331 1.301 . S
N334 C332 1.317 . S
N335 C331 1.328 . S
N335 C333 1.350 . S
H336 C331 0.930 . S
H337 C332 0.930 . S
C338 O339 1.224 . S
C338 O357 1.247 . S
O339 C338 1.224 . S
N340 Co330 2.128 . S
N340 C341 1.355 . S
N340 C343 1.311 . S
C341 N340 1.355 . S
C341 C342 1.363 . S
C341 H353 0.929 . S
C342 C341 1.363 . S
C342 N344 1.375 1_554 S
C342 H360 0.931 1_554 S
C343 N340 1.311 . S
C343 N344 1.347 1_554 S
C343 H354 0.929 . S
N344 C342 1.375 1_556 S
N344 C343 1.347 1_556 S
C345 C348 1.365 . S
C345 N350 1.328 . S
C345 H351 0.929 . S
C346 C347 1.362 . S
C346 C349 1.378 . S
C346 H361 0.929 . S
C347 C346 1.362 . S
C347 C348 1.366 . S
C348 C345 1.365 . S
C348 C347 1.366 . S
C348 H362 0.930 . S
C349 C346 1.378 . S
C349 N350 1.315 . S
C349 H352 0.930 . S
N350 Co330 2.194 . S
N350 C345 1.328 . S
N350 C349 1.315 . S
H351 C345 0.929 . S
H352 C349 0.930 . S
H353 C341 0.929 . S
H354 C343 0.929 . S
O355 Co330 2.351 . S
O355 C358 1.244 . S
O356 Co330 2.155 . S
O356 C358 1.240 . S
O357 Co330 2.096 . S
O357 C338 1.247 . S
C358 O355 1.244 . S
C358 O356 1.240 . S
H359 C333 0.931 . S
H360 C342 0.931 1_556 S
H361 C346 0.929 . S
H362 C348 0.930 . S
Co363 N367 2.148 . S
Co363 N373 2.128 . S
Co363 N383 2.194 . S
Co363 O388 2.351 . S
Co363 O389 2.155 . S
Co363 O390 2.096 . S
C364 N367 1.301 . S
C364 N368 1.328 . S
C364 H369 0.930 . S
C365 C366 1.333 . S
C365 N367 1.317 . S
C365 H370 0.930 . S
C366 C365 1.333 . S
C366 N368 1.350 . S
C366 H392 0.931 . S
N367 Co363 2.148 . S
N367 C364 1.301 . S
N367 C365 1.317 . S
N368 C364 1.328 . S
N368 C366 1.350 . S
H369 C364 0.930 . S
H370 C365 0.930 . S
C371 O372 1.224 . S
C371 O390 1.247 . S
O372 C371 1.224 . S
N373 Co363 2.128 . S
N373 C374 1.355 . S
N373 C376 1.311 . S
C374 N373 1.355 . S
C374 C375 1.363 . S
C374 H386 0.929 . S
C375 C374 1.363 . S
C375 N377 1.375 . S
C375 H393 0.931 . S
C376 N373 1.311 . S
C376 N377 1.347 . S
C376 H387 0.929 . S
N377 C375 1.375 . S
N377 C376 1.347 . S
C378 C381 1.365 . S
C378 N383 1.328 . S
C378 H384 0.929 . S
C379 C380 1.362 . S
C379 C382 1.378 . S
C379 H394 0.929 . S
C380 C379 1.362 . S
C380 C381 1.366 . S
C381 C378 1.365 . S
C381 C380 1.366 . S
C381 H395 0.930 . S
C382 C379 1.378 . S
C382 N383 1.315 . S
C382 H385 0.930 . S
N383 Co363 2.194 . S
N383 C378 1.328 . S
N383 C382 1.315 . S
H384 C378 0.929 . S
H385 C382 0.930 . S
H386 C374 0.929 . S
H387 C376 0.929 . S
O388 Co363 2.351 . S
O388 C391 1.244 . S
O389 Co363 2.155 . S
O389 C391 1.240 . S
O390 Co363 2.096 . S
O390 C371 1.247 . S
C391 O388 1.244 . S
C391 O389 1.240 . S
H392 C366 0.931 . S
H393 C375 0.931 . S
H394 C379 0.929 . S
H395 C381 0.930 . S
C396 C397 1.349 . S
C396 C398 1.327 . S
C396 H421 0.950 . S
C397 C396 1.349 . S
C397 C413 1.349 . S
C398 C396 1.327 . S
C398 C417 1.429 . S
C398 H422 0.950 . S
C399 C416 1.574 1_455 S
C399 C418 1.368 . S
C399 H423 0.949 . S
H400 C404 0.949 . S
C401 C402 1.349 . S
C401 C403 1.327 . S
C401 H424 0.950 . S
C402 C401 1.349 . S
C402 C414 1.349 . S
C403 C401 1.327 . S
C403 C419 1.429 . S
C403 H425 0.950 . S
C404 H400 0.949 . S
C404 C412 1.574 1_655 S
C404 C420 1.368 . S
H405 C413 0.950 . S
H406 C411 0.950 . S
H407 C412 0.949 . S
H408 C414 0.950 . S
H409 C415 0.950 . S
H410 C416 0.949 . S
C411 H406 0.950 . S
C411 C413 1.327 . S
C411 C417 1.429 . S
C412 C404 1.574 1_455 S
C412 H407 0.949 . S
C412 C418 1.368 . S
C413 C397 1.349 . S
C413 H405 0.950 . S
C413 C411 1.327 . S
C414 C402 1.349 . S
C414 H408 0.950 . S
C414 C415 1.327 . S
C415 H409 0.950 . S
C415 C414 1.327 . S
C415 C419 1.429 . S
C416 C399 1.574 1_655 S
C416 H410 0.949 . S
C416 C420 1.368 . S
C417 C398 1.429 . S
C417 C411 1.429 . S
C417 C418 1.523 . S
C418 C399 1.368 . S
C418 C412 1.368 . S
C418 C417 1.523 . S
C419 C403 1.429 . S
C419 C415 1.429 . S
C419 C420 1.523 . S
C420 C404 1.368 . S
C420 C416 1.368 . S
C420 C419 1.523 . S
H421 C396 0.950 . S
H422 C398 0.950 . S
H423 C399 0.949 . S
H424 C401 0.950 . S
H425 C403 0.950 . S
C426 C427 1.349 . S
C426 C428 1.327 . S
C426 H451 0.950 . S
C427 C426 1.349 . S
C427 C443 1.349 . S
C428 C426 1.327 . S
C428 C447 1.429 . S
C428 H452 0.950 . S
C429 C446 1.574 1_545 S
C429 C448 1.368 1_554 S
C429 H453 0.949 . S
H430 C434 0.949 . S
C431 C432 1.349 . S
C431 C433 1.327 . S
C431 H454 0.950 . S
C432 C431 1.349 . S
C432 C444 1.349 . S
C433 C431 1.327 . S
C433 C449 1.429 . S
C433 H455 0.950 . S
C434 H430 0.949 . S
C434 C442 1.574 1_565 S
C434 C450 1.368 1_556 S
H435 C443 0.950 . S
H436 C441 0.950 1_554 S
H437 C442 0.949 . S
H438 C444 0.950 . S
H439 C445 0.950 1_556 S
H440 C446 0.949 . S
C441 H436 0.950 1_556 S
C441 C443 1.327 . S
C441 C447 1.429 . S
C442 C434 1.574 1_545 S
C442 H437 0.949 . S
C442 C448 1.368 . S
C443 C427 1.349 . S
C443 H435 0.950 . S
C443 C441 1.327 . S
C444 C432 1.349 . S
C444 H438 0.950 . S
C444 C445 1.327 . S
C445 H439 0.950 1_554 S
C445 C444 1.327 . S
C445 C449 1.429 . S
C446 C429 1.574 1_565 S
C446 H440 0.949 . S
C446 C450 1.368 . S
C447 C428 1.429 . S
C447 C441 1.429 . S
C447 C448 1.523 . S
C448 C429 1.368 1_556 S
C448 C442 1.368 . S
C448 C447 1.523 . S
C449 C433 1.429 . S
C449 C445 1.429 . S
C449 C450 1.523 . S
C450 C434 1.368 1_554 S
C450 C446 1.368 . S
C450 C449 1.523 . S
H451 C426 0.950 . S
H452 C428 0.950 . S
H453 C429 0.949 . S
H454 C431 0.950 . S
H455 C433 0.950 . S
C456 C457 1.349 . S
C456 C458 1.327 . S
C456 H481 0.950 . S
C457 C456 1.349 . S
C457 C473 1.349 . S
C458 C456 1.327 . S
C458 C477 1.429 . S
C458 H482 0.950 . S
C459 C476 1.574 . S
C459 C478 1.368 . S
C459 H483 0.949 . S
H460 C464 0.949 . S
C461 C462 1.349 . S
C461 C463 1.327 . S
C461 H484 0.950 . S
C462 C461 1.349 . S
C462 C474 1.349 . S
C463 C461 1.327 . S
C463 C479 1.429 . S
C463 H485 0.950 . S
C464 H460 0.949 . S
C464 C472 1.574 . S
C464 C480 1.368 . S
H465 C473 0.950 . S
H466 C471 0.950 . S
H467 C472 0.949 . S
H468 C474 0.950 . S
H469 C475 0.950 . S
H470 C476 0.949 . S
C471 H466 0.950 . S
C471 C473 1.327 . S
C471 C477 1.429 . S
C472 C464 1.574 . S
C472 H467 0.949 . S
C472 C478 1.368 . S
C473 C457 1.349 . S
C473 H465 0.950 . S
C473 C471 1.327 . S
C474 C462 1.349 . S
C474 H468 0.950 . S
C474 C475 1.327 . S
C475 H469 0.950 . S
C475 C474 1.327 . S
C475 C479 1.429 . S
C476 C459 1.574 . S
C476 H470 0.949 . S
C476 C480 1.368 . S
C477 C458 1.429 . S
C477 C471 1.429 . S
C477 C478 1.523 . S
C478 C459 1.368 . S
C478 C472 1.368 . S
C478 C477 1.523 . S
C479 C463 1.429 . S
C479 C475 1.429 . S
C479 C480 1.523 . S
C480 C464 1.368 . S
C480 C476 1.368 . S
C480 C479 1.523 . S
H481 C456 0.950 . S
H482 C458 0.950 . S
H483 C459 0.949 . S
H484 C461 0.950 . S
H485 C463 0.950 . S
C486 C487 1.349 . S
C486 C488 1.327 . S
C486 H511 0.950 . S
C487 C486 1.349 . S
C487 C503 1.349 . S
C488 C486 1.327 . S
C488 C507 1.429 . S
C488 H512 0.950 . S
C489 C506 1.574 1_455 S
C489 C508 1.368 1_556 S
C489 H513 0.949 . S
H490 C494 0.949 . S
C491 C492 1.349 . S
C491 C493 1.327 . S
C491 H514 0.950 . S
C492 C491 1.349 . S
C492 C504 1.349 . S
C493 C491 1.327 . S
C493 C509 1.429 . S
C493 H515 0.950 . S
C494 H490 0.949 . S
C494 C502 1.574 1_655 S
C494 C510 1.368 1_554 S
H495 C503 0.950 . S
H496 C501 0.950 1_556 S
H497 C502 0.949 . S
H498 C504 0.950 . S
H499 C505 0.950 1_554 S
H500 C506 0.949 . S
C501 H496 0.950 1_554 S
C501 C503 1.327 . S
C501 C507 1.429 . S
C502 C494 1.574 1_455 S
C502 H497 0.949 . S
C502 C508 1.368 . S
C503 C487 1.349 . S
C503 H495 0.950 . S
C503 C501 1.327 . S
C504 C492 1.349 . S
C504 H498 0.950 . S
C504 C505 1.327 . S
C505 H499 0.950 1_556 S
C505 C504 1.327 . S
C505 C509 1.429 . S
C506 C489 1.574 1_655 S
C506 H500 0.949 . S
C506 C510 1.368 . S
C507 C488 1.429 . S
C507 C501 1.429 . S
C507 C508 1.523 . S
C508 C489 1.368 1_554 S
C508 C502 1.368 . S
C508 C507 1.523 . S
C509 C493 1.429 . S
C509 C505 1.429 . S
C509 C510 1.523 . S
C510 C494 1.368 1_556 S
C510 C506 1.368 . S
C510 C509 1.523 . S
H511 C486 0.950 . S
H512 C488 0.950 . S
H513 C489 0.949 . S
H514 C491 0.950 . S
H515 C493 0.950 . S
C516 C517 1.349 . S
C516 C518 1.327 . S
C516 H541 0.950 . S
C517 C516 1.349 . S
C517 C533 1.349 . S
C518 C516 1.327 . S
C518 C537 1.429 . S
C518 H542 0.950 . S
C519 C536 1.574 1_545 S
C519 C538 1.368 . S
C519 H543 0.949 . S
H520 C524 0.949 . S
C521 C522 1.349 . S
C521 C523 1.327 . S
C521 H544 0.950 . S
C522 C521 1.349 . S
C522 C534 1.349 . S
C523 C521 1.327 . S
C523 C539 1.429 . S
C523 H545 0.950 . S
C524 H520 0.949 . S
C524 C532 1.574 1_565 S
C524 C540 1.368 . S
H525 C533 0.950 . S
H526 C531 0.950 . S
H527 C532 0.949 . S
H528 C534 0.950 . S
H529 C535 0.950 . S
H530 C536 0.949 . S
C531 H526 0.950 . S
C531 C533 1.327 . S
C531 C537 1.429 . S
C532 C524 1.574 1_545 S
C532 H527 0.949 . S
C532 C538 1.368 . S
C533 C517 1.349 . S
C533 H525 0.950 . S
C533 C531 1.327 . S
C534 C522 1.349 . S
C534 H528 0.950 . S
C534 C535 1.327 . S
C535 H529 0.950 . S
C535 C534 1.327 . S
C535 C539 1.429 . S
C536 C519 1.574 1_565 S
C536 H530 0.949 . S
C536 C540 1.368 . S
C537 C518 1.429 . S
C537 C531 1.429 . S
C537 C538 1.523 . S
C538 C519 1.368 . S
C538 C532 1.368 . S
C538 C537 1.523 . S
C539 C523 1.429 . S
C539 C535 1.429 . S
C539 C540 1.523 . S
C540 C524 1.368 . S
C540 C536 1.368 . S
C540 C539 1.523 . S
H541 C516 0.950 . S
H542 C518 0.950 . S
H543 C519 0.949 . S
H544 C521 0.950 . S
H545 C523 0.950 . S
C546 C547 1.349 . S
C546 C548 1.327 . S
C546 H571 0.950 . S
C547 C546 1.349 . S
C547 C563 1.349 . S
C548 C546 1.327 . S
C548 C567 1.429 . S
C548 H572 0.950 . S
C549 C566 1.574 . S
C549 C568 1.368 . S
C549 H573 0.949 . S
H550 C554 0.949 . S
C551 C552 1.349 . S
C551 C553 1.327 . S
C551 H574 0.950 . S
C552 C551 1.349 . S
C552 C564 1.349 . S
C553 C551 1.327 . S
C553 C569 1.429 . S
C553 H575 0.950 . S
C554 H550 0.949 . S
C554 C562 1.574 . S
C554 C570 1.368 . S
H555 C563 0.950 . S
H556 C561 0.950 . S
H557 C562 0.949 . S
H558 C564 0.950 . S
H559 C565 0.950 . S
H560 C566 0.949 . S
C561 H556 0.950 . S
C561 C563 1.327 . S
C561 C567 1.429 . S
C562 C554 1.574 . S
C562 H557 0.949 . S
C562 C568 1.368 1_554 S
C563 C547 1.349 . S
C563 H555 0.950 . S
C563 C561 1.327 . S
C564 C552 1.349 . S
C564 H558 0.950 . S
C564 C565 1.327 . S
C565 H559 0.950 . S
C565 C564 1.327 . S
C565 C569 1.429 . S
C566 C549 1.574 . S
C566 H560 0.949 . S
C566 C570 1.368 1_556 S
C567 C548 1.429 . S
C567 C561 1.429 . S
C567 C568 1.523 . S
C568 C549 1.368 . S
C568 C562 1.368 1_556 S
C568 C567 1.523 . S
C569 C553 1.429 . S
C569 C565 1.429 . S
C569 C570 1.523 . S
C570 C554 1.368 . S
C570 C566 1.368 1_554 S
C570 C569 1.523 . S
H571 C546 0.950 . S
H572 C548 0.950 . S
H573 C549 0.949 . S
H574 C551 0.950 . S
H575 C553 0.950 . S
C576 C577 1.349 . S
C576 C578 1.327 . S
C576 H601 0.950 . S
C577 C576 1.349 . S
C577 C593 1.349 . S
C578 C576 1.327 . S
C578 C597 1.429 . S
C578 H602 0.950 . S
C579 C596 1.574 . S
C579 C598 1.368 . S
C579 H603 0.949 . S
H580 C584 0.949 . S
C581 C582 1.349 . S
C581 C583 1.327 . S
C581 H604 0.950 . S
C582 C581 1.349 . S
C582 C594 1.349 . S
C583 C581 1.327 . S
C583 C599 1.429 . S
C583 H605 0.950 . S
C584 H580 0.949 . S
C584 C592 1.574 . S
C584 C600 1.368 . S
H585 C593 0.950 . S
H586 C591 0.950 . S
H587 C592 0.949 . S
H588 C594 0.950 . S
H589 C595 0.950 . S
H590 C596 0.949 . S
C591 H586 0.950 . S
C591 C593 1.327 . S
C591 C597 1.429 . S
C592 C584 1.574 . S
C592 H587 0.949 . S
C592 C598 1.368 . S
C593 C577 1.349 . S
C593 H585 0.950 . S
C593 C591 1.327 . S
C594 C582 1.349 . S
C594 H588 0.950 . S
C594 C595 1.327 . S
C595 H589 0.950 . S
C595 C594 1.327 . S
C595 C599 1.429 . S
C596 C579 1.574 . S
C596 H590 0.949 . S
C596 C600 1.368 . S
C597 C578 1.429 . S
C597 C591 1.429 . S
C597 C598 1.523 . S
C598 C579 1.368 . S
C598 C592 1.368 . S
C598 C597 1.523 . S
C599 C583 1.429 . S
C599 C595 1.429 . S
C599 C600 1.523 . S
C600 C584 1.368 . S
C600 C596 1.368 . S
C600 C599 1.523 . S
H601 C576 0.950 . S
H602 C578 0.950 . S
H603 C579 0.949 . S
H604 C581 0.950 . S
H605 C583 0.950 . S
C606 C607 1.349 . S
C606 C608 1.327 . S
C606 H631 0.950 . S
C607 C606 1.349 . S
C607 C623 1.349 . S
C608 C606 1.327 . S
C608 C627 1.429 . S
C608 H632 0.950 . S
C609 C626 1.574 . S
C609 C628 1.368 . S
C609 H633 0.949 . S
H610 C614 0.949 . S
C611 C612 1.349 . S
C611 C613 1.327 . S
C611 H634 0.950 . S
C612 C611 1.349 . S
C612 C624 1.349 . S
C613 C611 1.327 . S
C613 C629 1.429 . S
C613 H635 0.950 . S
C614 H610 0.949 . S
C614 C622 1.574 . S
C614 C630 1.368 . S
H615 C623 0.950 . S
H616 C621 0.950 . S
H617 C622 0.949 . S
H618 C624 0.950 . S
H619 C625 0.950 . S
H620 C626 0.949 . S
C621 H616 0.950 . S
C621 C623 1.327 . S
C621 C627 1.429 . S
C622 C614 1.574 . S
C622 H617 0.949 . S
C622 C628 1.368 . S
C623 C607 1.349 . S
C623 H615 0.950 . S
C623 C621 1.327 . S
C624 C612 1.349 . S
C624 H618 0.950 . S
C624 C625 1.327 . S
C625 H619 0.950 . S
C625 C624 1.327 . S
C625 C629 1.429 . S
C626 C609 1.574 . S
C626 H620 0.949 . S
C626 C630 1.368 . S
C627 C608 1.429 . S
C627 C621 1.429 . S
C627 C628 1.523 . S
C628 C609 1.368 . S
C628 C622 1.368 . S
C628 C627 1.523 . S
C629 C613 1.429 . S
C629 C625 1.429 . S
C629 C630 1.523 . S
C630 C614 1.368 . S
C630 C626 1.368 . S
C630 C629 1.523 . S
H631 C606 0.950 . S
H632 C608 0.950 . S
H633 C609 0.949 . S
H634 C611 0.950 . S
H635 C613 0.950 . S
C636 C637 1.349 . S
C636 C638 1.327 . S
C636 H661 0.950 . S
C637 C636 1.349 . S
C637 C653 1.349 . S
C638 C636 1.327 . S
C638 C657 1.429 . S
C638 H662 0.950 . S
C639 C656 1.574 . S
C639 C658 1.368 . S
C639 H663 0.949 . S
H640 C644 0.949 . S
C641 C642 1.349 . S
C641 C643 1.327 . S
C641 H664 0.950 . S
C642 C641 1.349 . S
C642 C654 1.349 . S
C643 C641 1.327 . S
C643 C659 1.429 . S
C643 H665 0.950 . S
C644 H640 0.949 . S
C644 C652 1.574 . S
C644 C660 1.368 . S
H645 C653 0.950 . S
H646 C651 0.950 . S
H647 C652 0.949 . S
H648 C654 0.950 . S
H649 C655 0.950 . S
H650 C656 0.949 . S
C651 H646 0.950 . S
C651 C653 1.327 . S
C651 C657 1.429 . S
C652 C644 1.574 . S
C652 H647 0.949 . S
C652 C658 1.368 . S
C653 C637 1.349 . S
C653 H645 0.950 . S
C653 C651 1.327 . S
C654 C642 1.349 . S
C654 H648 0.950 . S
C654 C655 1.327 . S
C655 H649 0.950 . S
C655 C654 1.327 . S
C655 C659 1.429 . S
C656 C639 1.574 . S
C656 H650 0.949 . S
C656 C660 1.368 . S
C657 C638 1.429 . S
C657 C651 1.429 . S
C657 C658 1.523 . S
C658 C639 1.368 . S
C658 C652 1.368 . S
C658 C657 1.523 . S
C659 C643 1.429 . S
C659 C655 1.429 . S
C659 C660 1.523 . S
C660 C644 1.368 . S
C660 C656 1.368 . S
C660 C659 1.523 . S
H661 C636 0.950 . S
H662 C638 0.950 . S
H663 C639 0.949 . S
H664 C641 0.950 . S
H665 C643 0.950 . S
C666 C667 1.349 . S
C666 C668 1.327 . S
C666 H691 0.950 . S
C667 C666 1.349 . S
C667 C683 1.349 . S
C668 C666 1.327 . S
C668 C687 1.429 . S
C668 H692 0.950 . S
C669 C686 1.574 . S
C669 C688 1.368 . S
C669 H693 0.949 . S
H670 C674 0.949 . S
C671 C672 1.349 . S
C671 C673 1.327 . S
C671 H694 0.950 . S
C672 C671 1.349 . S
C672 C684 1.349 . S
C673 C671 1.327 . S
C673 C689 1.429 . S
C673 H695 0.950 . S
C674 H670 0.949 . S
C674 C682 1.574 . S
C674 C690 1.368 . S
H675 C683 0.950 . S
H676 C681 0.950 . S
H677 C682 0.949 . S
H678 C684 0.950 . S
H679 C685 0.950 . S
H680 C686 0.949 . S
C681 H676 0.950 . S
C681 C683 1.327 . S
C681 C687 1.429 . S
C682 C674 1.574 . S
C682 H677 0.949 . S
C682 C688 1.368 . S
C683 C667 1.349 . S
C683 H675 0.950 . S
C683 C681 1.327 . S
C684 C672 1.349 . S
C684 H678 0.950 . S
C684 C685 1.327 . S
C685 H679 0.950 . S
C685 C684 1.327 . S
C685 C689 1.429 . S
C686 C669 1.574 . S
C686 H680 0.949 . S
C686 C690 1.368 . S
C687 C668 1.429 . S
C687 C681 1.429 . S
C687 C688 1.523 . S
C688 C669 1.368 . S
C688 C682 1.368 . S
C688 C687 1.523 . S
C689 C673 1.429 . S
C689 C685 1.429 . S
C689 C690 1.523 . S
C690 C674 1.368 . S
C690 C686 1.368 . S
C690 C689 1.523 . S
H691 C666 0.950 . S
H692 C668 0.950 . S
H693 C669 0.949 . S
H694 C671 0.950 . S
H695 C673 0.950 . S
C696 C697 1.349 . S
C696 C698 1.327 . S
C696 H721 0.950 . S
C697 C696 1.349 . S
C697 C713 1.349 . S
C698 C696 1.327 . S
C698 C717 1.429 . S
C698 H722 0.950 . S
C699 C716 1.574 . S
C699 C718 1.368 . S
C699 H723 0.949 . S
H700 C704 0.949 . S
C701 C702 1.349 . S
C701 C703 1.327 . S
C701 H724 0.950 . S
C702 C701 1.349 . S
C702 C714 1.349 . S
C703 C701 1.327 . S
C703 C719 1.429 . S
C703 H725 0.950 . S
C704 H700 0.949 . S
C704 C712 1.574 . S
C704 C720 1.368 . S
H705 C713 0.950 . S
H706 C711 0.950 . S
H707 C712 0.949 . S
H708 C714 0.950 . S
H709 C715 0.950 . S
H710 C716 0.949 . S
C711 H706 0.950 . S
C711 C713 1.327 . S
C711 C717 1.429 . S
C712 C704 1.574 . S
C712 H707 0.949 . S
C712 C718 1.368 . S
C713 C697 1.349 . S
C713 H705 0.950 . S
C713 C711 1.327 . S
C714 C702 1.349 . S
C714 H708 0.950 . S
C714 C715 1.327 . S
C715 H709 0.950 . S
C715 C714 1.327 . S
C715 C719 1.429 . S
C716 C699 1.574 . S
C716 H710 0.949 . S
C716 C720 1.368 . S
C717 C698 1.429 . S
C717 C711 1.429 . S
C717 C718 1.523 . S
C718 C699 1.368 . S
C718 C712 1.368 . S
C718 C717 1.523 . S
C719 C703 1.429 . S
C719 C715 1.429 . S
C719 C720 1.523 . S
C720 C704 1.368 . S
C720 C716 1.368 . S
C720 C719 1.523 . S
H721 C696 0.950 . S
H722 C698 0.950 . S
H723 C699 0.949 . S
H724 C701 0.950 . S
H725 C703 0.950 . S
C726 C727 1.349 . S
C726 C728 1.327 . S
C726 H751 0.950 . S
C727 C726 1.349 . S
C727 C743 1.349 . S
C728 C726 1.327 . S
C728 C747 1.429 . S
C728 H752 0.950 . S
C729 C746 1.574 . S
C729 C748 1.368 . S
C729 H753 0.949 . S
H730 C734 0.949 . S
C731 C732 1.349 . S
C731 C733 1.327 . S
C731 H754 0.950 . S
C732 C731 1.349 . S
C732 C744 1.349 . S
C733 C731 1.327 . S
C733 C749 1.429 . S
C733 H755 0.950 . S
C734 H730 0.949 . S
C734 C742 1.574 . S
C734 C750 1.368 . S
H735 C743 0.950 . S
H736 C741 0.950 . S
H737 C742 0.949 . S
H738 C744 0.950 . S
H739 C745 0.950 . S
H740 C746 0.949 . S
C741 H736 0.950 . S
C741 C743 1.327 . S
C741 C747 1.429 . S
C742 C734 1.574 . S
C742 H737 0.949 . S
C742 C748 1.368 . S
C743 C727 1.349 . S
C743 H735 0.950 . S
C743 C741 1.327 . S
C744 C732 1.349 . S
C744 H738 0.950 . S
C744 C745 1.327 . S
C745 H739 0.950 . S
C745 C744 1.327 . S
C745 C749 1.429 . S
C746 C729 1.574 . S
C746 H740 0.949 . S
C746 C750 1.368 . S
C747 C728 1.429 . S
C747 C741 1.429 . S
C747 C748 1.523 . S
C748 C729 1.368 . S
C748 C742 1.368 . S
C748 C747 1.523 . S
C749 C733 1.429 . S
C749 C745 1.429 . S
C749 C750 1.523 . S
C750 C734 1.368 . S
C750 C746 1.368 . S
C750 C749 1.523 . S
H751 C726 0.950 . S
H752 C728 0.950 . S
H753 C729 0.949 . S
H754 C731 0.950 . S
H755 C733 0.950 . S
C756 C757 1.349 . S
C756 C758 1.327 . S
C756 H781 0.950 . S
C757 C756 1.349 . S
C757 C773 1.349 . S
C758 C756 1.327 . S
C758 C777 1.429 . S
C758 H782 0.950 . S
C759 C776 1.574 . S
C759 C778 1.368 . S
C759 H783 0.949 . S
H760 C764 0.949 . S
C761 C762 1.349 . S
C761 C763 1.327 1_554 S
C761 H784 0.950 . S
C762 C761 1.349 . S
C762 C774 1.349 . S
C763 C761 1.327 1_556 S
C763 C779 1.429 . S
C763 H785 0.950 . S
C764 H760 0.949 . S
C764 C772 1.574 . S
C764 C780 1.368 . S
H765 C773 0.950 . S
H766 C771 0.950 . S
H767 C772 0.949 . S
H768 C774 0.950 . S
H769 C775 0.950 . S
H770 C776 0.949 . S
C771 H766 0.950 . S
C771 C773 1.327 . S
C771 C777 1.429 . S
C772 C764 1.574 . S
C772 H767 0.949 . S
C772 C778 1.368 . S
C773 C757 1.349 . S
C773 H765 0.950 . S
C773 C771 1.327 . S
C774 C762 1.349 . S
C774 H768 0.950 . S
C774 C775 1.327 1_554 S
C775 H769 0.950 . S
C775 C774 1.327 1_556 S
C775 C779 1.429 . S
C776 C759 1.574 . S
C776 H770 0.949 . S
C776 C780 1.368 . S
C777 C758 1.429 . S
C777 C771 1.429 . S
C777 C778 1.523 . S
C778 C759 1.368 . S
C778 C772 1.368 . S
C778 C777 1.523 . S
C779 C763 1.429 . S
C779 C775 1.429 . S
C779 C780 1.523 . S
C780 C764 1.368 . S
C780 C776 1.368 . S
C780 C779 1.523 . S
H781 C756 0.950 . S
H782 C758 0.950 . S
H783 C759 0.949 . S
H784 C761 0.950 . S
H785 C763 0.950 . S
C786 C787 1.349 . S
C786 C788 1.327 . S
C786 H811 0.950 . S
C787 C786 1.349 . S
C787 C803 1.349 . S
C788 C786 1.327 . S
C788 C807 1.429 . S
C788 H812 0.950 . S
C789 C806 1.574 . S
C789 C808 1.368 . S
C789 H813 0.949 . S
H790 C794 0.949 . S
C791 C792 1.349 . S
C791 C793 1.327 . S
C791 H814 0.950 . S
C792 C791 1.349 . S
C792 C804 1.349 . S
C793 C791 1.327 . S
C793 C809 1.429 . S
C793 H815 0.950 . S
C794 H790 0.949 . S
C794 C802 1.574 . S
C794 C810 1.368 . S
H795 C803 0.950 . S
H796 C801 0.950 . S
H797 C802 0.949 . S
H798 C804 0.950 . S
H799 C805 0.950 . S
H800 C806 0.949 . S
C801 H796 0.950 . S
C801 C803 1.327 . S
C801 C807 1.429 . S
C802 C794 1.574 . S
C802 H797 0.949 . S
C802 C808 1.368 . S
C803 C787 1.349 . S
C803 H795 0.950 . S
C803 C801 1.327 . S
C804 C792 1.349 . S
C804 H798 0.950 . S
C804 C805 1.327 . S
C805 H799 0.950 . S
C805 C804 1.327 . S
C805 C809 1.429 . S
C806 C789 1.574 . S
C806 H800 0.949 . S
C806 C810 1.368 . S
C807 C788 1.429 . S
C807 C801 1.429 . S
C807 C808 1.523 . S
C808 C789 1.368 . S
C808 C802 1.368 . S
C808 C807 1.523 . S
C809 C793 1.429 . S
C809 C805 1.429 . S
C809 C810 1.523 . S
C810 C794 1.368 . S
C810 C806 1.368 . S
C810 C809 1.523 . S
H811 C786 0.950 . S
H812 C788 0.950 . S
H813 C789 0.949 . S
H814 C791 0.950 . S
H815 C793 0.950 . S
C816 C817 1.349 . S
C816 C818 1.327 . S
C816 H841 0.950 . S
C817 C816 1.349 . S
C817 C833 1.349 . S
C818 C816 1.327 . S
C818 C837 1.429 . S
C818 H842 0.950 . S
C819 C836 1.574 . S
C819 C838 1.368 . S
C819 H843 0.949 . S
H820 C824 0.949 . S
C821 C822 1.349 . S
C821 C823 1.327 1_554 S
C821 H844 0.950 . S
C822 C821 1.349 . S
C822 C834 1.349 . S
C823 C821 1.327 1_556 S
C823 C839 1.429 . S
C823 H845 0.950 . S
C824 H820 0.949 . S
C824 C832 1.574 . S
C824 C840 1.368 . S
H825 C833 0.950 . S
H826 C831 0.950 . S
H827 C832 0.949 . S
H828 C834 0.950 . S
H829 C835 0.950 . S
H830 C836 0.949 . S
C831 H826 0.950 . S
C831 C833 1.327 . S
C831 C837 1.429 . S
C832 C824 1.574 . S
C832 H827 0.949 . S
C832 C838 1.368 . S
C833 C817 1.349 . S
C833 H825 0.950 . S
C833 C831 1.327 . S
C834 C822 1.349 . S
C834 H828 0.950 . S
C834 C835 1.327 1_554 S
C835 H829 0.950 . S
C835 C834 1.327 1_556 S
C835 C839 1.429 . S
C836 C819 1.574 . S
C836 H830 0.949 . S
C836 C840 1.368 . S
C837 C818 1.429 . S
C837 C831 1.429 . S
C837 C838 1.523 . S
C838 C819 1.368 . S
C838 C832 1.368 . S
C838 C837 1.523 . S
C839 C823 1.429 . S
C839 C835 1.429 . S
C839 C840 1.523 . S
C840 C824 1.368 . S
C840 C836 1.368 . S
C840 C839 1.523 . S
H841 C816 0.950 . S
H842 C818 0.950 . S
H843 C819 0.949 . S
H844 C821 0.950 . S
H845 C823 0.950 . S
C846 C847 1.349 . S
C846 C848 1.327 . S
C846 H871 0.950 . S
C847 C846 1.349 . S
C847 C863 1.349 . S
C848 C846 1.327 . S
C848 C867 1.429 . S
C848 H872 0.950 . S
C849 C866 1.574 . S
C849 C868 1.368 . S
C849 H873 0.949 . S
H850 C854 0.949 . S
C851 C852 1.349 . S
C851 C853 1.327 . S
C851 H874 0.950 . S
C852 C851 1.349 . S
C852 C864 1.349 . S
C853 C851 1.327 . S
C853 C869 1.429 . S
C853 H875 0.950 . S
C854 H850 0.949 . S
C854 C862 1.574 . S
C854 C870 1.368 . S
H855 C863 0.950 . S
H856 C861 0.950 . S
H857 C862 0.949 . S
H858 C864 0.950 . S
H859 C865 0.950 . S
H860 C866 0.949 . S
C861 H856 0.950 . S
C861 C863 1.327 . S
C861 C867 1.429 . S
C862 C854 1.574 . S
C862 H857 0.949 . S
C862 C868 1.368 . S
C863 C847 1.349 . S
C863 H855 0.950 . S
C863 C861 1.327 . S
C864 C852 1.349 . S
C864 H858 0.950 . S
C864 C865 1.327 . S
C865 H859 0.950 . S
C865 C864 1.327 . S
C865 C869 1.429 . S
C866 C849 1.574 . S
C866 H860 0.949 . S
C866 C870 1.368 . S
C867 C848 1.429 . S
C867 C861 1.429 . S
C867 C868 1.523 . S
C868 C849 1.368 . S
C868 C862 1.368 . S
C868 C867 1.523 . S
C869 C853 1.429 . S
C869 C865 1.429 . S
C869 C870 1.523 . S
C870 C854 1.368 . S
C870 C866 1.368 . S
C870 C869 1.523 . S
H871 C846 0.950 . S
H872 C848 0.950 . S
H873 C849 0.949 . S
H874 C851 0.950 . S
H875 C853 0.950 . S
C876 C877 1.349 . S
C876 C878 1.327 . S
C876 H901 0.950 . S
C877 C876 1.349 . S
C877 C893 1.349 . S
C878 C876 1.327 . S
C878 C897 1.429 . S
C878 H902 0.950 . S
C879 C896 1.574 . S
C879 C898 1.368 . S
C879 H903 0.949 . S
H880 C884 0.949 . S
C881 C882 1.349 . S
C881 C883 1.327 1_554 S
C881 H904 0.950 . S
C882 C881 1.349 . S
C882 C894 1.349 . S
C883 C881 1.327 1_556 S
C883 C899 1.429 . S
C883 H905 0.950 . S
C884 H880 0.949 . S
C884 C892 1.574 . S
C884 C900 1.368 . S
H885 C893 0.950 . S
H886 C891 0.950 . S
H887 C892 0.949 . S
H888 C894 0.950 . S
H889 C895 0.950 . S
H890 C896 0.949 . S
C891 H886 0.950 . S
C891 C893 1.327 . S
C891 C897 1.429 . S
C892 C884 1.574 . S
C892 H887 0.949 . S
C892 C898 1.368 . S
C893 C877 1.349 . S
C893 H885 0.950 . S
C893 C891 1.327 . S
C894 C882 1.349 . S
C894 H888 0.950 . S
C894 C895 1.327 1_554 S
C895 H889 0.950 . S
C895 C894 1.327 1_556 S
C895 C899 1.429 . S
C896 C879 1.574 . S
C896 H890 0.949 . S
C896 C900 1.368 . S
C897 C878 1.429 . S
C897 C891 1.429 . S
C897 C898 1.523 . S
C898 C879 1.368 . S
C898 C892 1.368 . S
C898 C897 1.523 . S
C899 C883 1.429 . S
C899 C895 1.429 . S
C899 C900 1.523 . S
C900 C884 1.368 . S
C900 C896 1.368 . S
C900 C899 1.523 . S
H901 C876 0.950 . S
H902 C878 0.950 . S
H903 C879 0.949 . S
H904 C881 0.950 . S
H905 C883 0.950 . S
C906 C907 1.349 . S
C906 C908 1.327 . S
C906 H931 0.950 . S
C907 C906 1.349 . S
C907 C923 1.349 . S
C908 C906 1.327 . S
C908 C927 1.429 . S
C908 H932 0.950 . S
C909 C926 1.574 . S
C909 C928 1.368 . S
C909 H933 0.949 . S
H910 C914 0.949 . S
C911 C912 1.349 . S
C911 C913 1.327 . S
C911 H934 0.950 . S
C912 C911 1.349 . S
C912 C924 1.349 . S
C913 C911 1.327 . S
C913 C929 1.429 . S
C913 H935 0.950 . S
C914 H910 0.949 . S
C914 C922 1.574 . S
C914 C930 1.368 . S
H915 C923 0.950 . S
H916 C921 0.950 . S
H917 C922 0.949 . S
H918 C924 0.950 . S
H919 C925 0.950 . S
H920 C926 0.949 . S
C921 H916 0.950 . S
C921 C923 1.327 . S
C921 C927 1.429 . S
C922 C914 1.574 . S
C922 H917 0.949 . S
C922 C928 1.368 . S
C923 C907 1.349 . S
C923 H915 0.950 . S
C923 C921 1.327 . S
C924 C912 1.349 . S
C924 H918 0.950 . S
C924 C925 1.327 . S
C925 H919 0.950 . S
C925 C924 1.327 . S
C925 C929 1.429 . S
C926 C909 1.574 . S
C926 H920 0.949 . S
C926 C930 1.368 . S
C927 C908 1.429 . S
C927 C921 1.429 . S
C927 C928 1.523 . S
C928 C909 1.368 . S
C928 C922 1.368 . S
C928 C927 1.523 . S
C929 C913 1.429 . S
C929 C925 1.429 . S
C929 C930 1.523 . S
C930 C914 1.368 . S
C930 C926 1.368 . S
C930 C929 1.523 . S
H931 C906 0.950 . S
H932 C908 0.950 . S
H933 C909 0.949 . S
H934 C911 0.950 . S
H935 C913 0.950 . S
C936 C937 1.349 . S
C936 C938 1.327 . S
C936 H961 0.950 . S
C937 C936 1.349 . S
C937 C953 1.349 . S
C938 C936 1.327 . S
C938 C957 1.429 . S
C938 H962 0.950 . S
C939 C956 1.574 . S
C939 C958 1.368 . S
C939 H963 0.949 . S
H940 C944 0.949 . S
C941 C942 1.349 . S
C941 C943 1.327 . S
C941 H964 0.950 . S
C942 C941 1.349 . S
C942 C954 1.349 . S
C943 C941 1.327 . S
C943 C959 1.429 . S
C943 H965 0.950 . S
C944 H940 0.949 . S
C944 C952 1.574 . S
C944 C960 1.368 . S
H945 C953 0.950 . S
H946 C951 0.950 . S
H947 C952 0.949 . S
H948 C954 0.950 . S
H949 C955 0.950 . S
H950 C956 0.949 . S
C951 H946 0.950 . S
C951 C953 1.327 . S
C951 C957 1.429 . S
C952 C944 1.574 . S
C952 H947 0.949 . S
C952 C958 1.368 . S
C953 C937 1.349 . S
C953 H945 0.950 . S
C953 C951 1.327 . S
C954 C942 1.349 . S
C954 H948 0.950 . S
C954 C955 1.327 . S
C955 H949 0.950 . S
C955 C954 1.327 . S
C955 C959 1.429 . S
C956 C939 1.574 . S
C956 H950 0.949 . S
C956 C960 1.368 . S
C957 C938 1.429 . S
C957 C951 1.429 . S
C957 C958 1.523 . S
C958 C939 1.368 . S
C958 C952 1.368 . S
C958 C957 1.523 . S
C959 C943 1.429 . S
C959 C955 1.429 . S
C959 C960 1.523 . S
C960 C944 1.368 . S
C960 C956 1.368 . S
C960 C959 1.523 . S
H961 C936 0.950 . S
H962 C938 0.950 . S
H963 C939 0.949 . S
H964 C941 0.950 . S
H965 C943 0.950 . S
C966 C967 1.349 . S
C966 C968 1.327 . S
C966 H991 0.950 . S
C967 C966 1.349 . S
C967 C983 1.349 . S
C968 C966 1.327 . S
C968 C987 1.429 . S
C968 H992 0.950 . S
C969 C986 1.574 . S
C969 C988 1.368 . S
C969 H993 0.949 . S
H970 C974 0.949 . S
C971 C972 1.349 . S
C971 C973 1.327 1_556 S
C971 H994 0.950 . S
C972 C971 1.349 . S
C972 C984 1.349 . S
C973 C971 1.327 1_554 S
C973 C989 1.429 . S
C973 H995 0.950 . S
C974 H970 0.949 . S
C974 C982 1.574 . S
C974 C990 1.368 . S
H975 C983 0.950 . S
H976 C981 0.950 . S
H977 C982 0.949 . S
H978 C984 0.950 . S
H979 C985 0.950 . S
H980 C986 0.949 . S
C981 H976 0.950 . S
C981 C983 1.327 . S
C981 C987 1.429 . S
C982 C974 1.574 . S
C982 H977 0.949 . S
C982 C988 1.368 . S
C983 C967 1.349 . S
C983 H975 0.950 . S
C983 C981 1.327 . S
C984 C972 1.349 . S
C984 H978 0.950 . S
C984 C985 1.327 1_556 S
C985 H979 0.950 . S
C985 C984 1.327 1_554 S
C985 C989 1.429 . S
C986 C969 1.574 . S
C986 H980 0.949 . S
C986 C990 1.368 . S
C987 C968 1.429 . S
C987 C981 1.429 . S
C987 C988 1.523 . S
C988 C969 1.368 . S
C988 C982 1.368 . S
C988 C987 1.523 . S
C989 C973 1.429 . S
C989 C985 1.429 . S
C989 C990 1.523 . S
C990 C974 1.368 . S
C990 C986 1.368 . S
C990 C989 1.523 . S
H991 C966 0.950 . S
H992 C968 0.950 . S
H993 C969 0.949 . S
H994 C971 0.950 . S
H995 C973 0.950 . S
C996 C997 1.349 . S
C996 C998 1.327 . S
C996 H1021 0.950 . S
C997 C996 1.349 . S
C997 C1013 1.349 . S
C998 C996 1.327 . S
C998 C1017 1.429 . S
C998 H1022 0.950 . S
C999 C1016 1.574 . S
C999 C1018 1.368 . S
C999 H1023 0.949 . S
H1000 C1004 0.949 . S
C1001 C1002 1.349 . S
C1001 C1003 1.327 . S
C1001 H1024 0.950 . S
C1002 C1001 1.349 . S
C1002 C1014 1.349 . S
C1003 C1001 1.327 . S
C1003 C1019 1.429 . S
C1003 H1025 0.950 . S
C1004 H1000 0.949 . S
C1004 C1012 1.574 . S
C1004 C1020 1.368 . S
H1005 C1013 0.950 . S
H1006 C1011 0.950 . S
H1007 C1012 0.949 . S
H1008 C1014 0.950 . S
H1009 C1015 0.950 . S
H1010 C1016 0.949 . S
C1011 H1006 0.950 . S
C1011 C1013 1.327 . S
C1011 C1017 1.429 . S
C1012 C1004 1.574 . S
C1012 H1007 0.949 . S
C1012 C1018 1.368 . S
C1013 C997 1.349 . S
C1013 H1005 0.950 . S
C1013 C1011 1.327 . S
C1014 C1002 1.349 . S
C1014 H1008 0.950 . S
C1014 C1015 1.327 . S
C1015 H1009 0.950 . S
C1015 C1014 1.327 . S
C1015 C1019 1.429 . S
C1016 C999 1.574 . S
C1016 H1010 0.949 . S
C1016 C1020 1.368 . S
C1017 C998 1.429 . S
C1017 C1011 1.429 . S
C1017 C1018 1.523 . S
C1018 C999 1.368 . S
C1018 C1012 1.368 . S
C1018 C1017 1.523 . S
C1019 C1003 1.429 . S
C1019 C1015 1.429 . S
C1019 C1020 1.523 . S
C1020 C1004 1.368 . S
C1020 C1016 1.368 . S
C1020 C1019 1.523 . S
H1021 C996 0.950 . S
H1022 C998 0.950 . S
H1023 C999 0.949 . S
H1024 C1001 0.950 . S
H1025 C1003 0.950 . S
C1026 C1027 1.349 . S
C1026 C1028 1.327 1_556 S
C1026 H1051 0.950 . S
C1027 C1026 1.349 . S
C1027 C1043 1.349 . S
C1028 C1026 1.327 1_554 S
C1028 C1047 1.429 . S
C1028 H1052 0.950 . S
C1029 C1046 1.574 . S
C1029 C1048 1.368 . S
C1029 H1053 0.949 . S
H1030 C1034 0.949 . S
C1031 C1032 1.349 . S
C1031 C1033 1.327 . S
C1031 H1054 0.950 . S
C1032 C1031 1.349 . S
C1032 C1044 1.349 . S
C1033 C1031 1.327 . S
C1033 C1049 1.429 . S
C1033 H1055 0.950 . S
C1034 H1030 0.949 . S
C1034 C1042 1.574 . S
C1034 C1050 1.368 . S
H1035 C1043 0.950 . S
H1036 C1041 0.950 . S
H1037 C1042 0.949 . S
H1038 C1044 0.950 . S
H1039 C1045 0.950 . S
H1040 C1046 0.949 . S
C1041 H1036 0.950 . S
C1041 C1043 1.327 1_554 S
C1041 C1047 1.429 . S
C1042 C1034 1.574 . S
C1042 H1037 0.949 . S
C1042 C1048 1.368 . S
C1043 C1027 1.349 . S
C1043 H1035 0.950 . S
C1043 C1041 1.327 1_556 S
C1044 C1032 1.349 . S
C1044 H1038 0.950 . S
C1044 C1045 1.327 . S
C1045 H1039 0.950 . S
C1045 C1044 1.327 . S
C1045 C1049 1.429 . S
C1046 C1029 1.574 . S
C1046 H1040 0.949 . S
C1046 C1050 1.368 . S
C1047 C1028 1.429 . S
C1047 C1041 1.429 . S
C1047 C1048 1.523 . S
C1048 C1029 1.368 . S
C1048 C1042 1.368 . S
C1048 C1047 1.523 . S
C1049 C1033 1.429 . S
C1049 C1045 1.429 . S
C1049 C1050 1.523 . S
C1050 C1034 1.368 . S
C1050 C1046 1.368 . S
C1050 C1049 1.523 . S
H1051 C1026 0.950 . S
H1052 C1028 0.950 . S
H1053 C1029 0.949 . S
H1054 C1031 0.950 . S
H1055 C1033 0.950 . S
C1056 C1057 1.349 . S
C1056 C1058 1.327 . S
C1056 H1081 0.950 . S
C1057 C1056 1.349 . S
C1057 C1073 1.349 . S
C1058 C1056 1.327 . S
C1058 C1077 1.429 . S
C1058 H1082 0.950 . S
C1059 C1076 1.574 . S
C1059 C1078 1.368 . S
C1059 H1083 0.949 . S
H1060 C1064 0.949 . S
C1061 C1062 1.349 . S
C1061 C1063 1.327 . S
C1061 H1084 0.950 . S
C1062 C1061 1.349 . S
C1062 C1074 1.349 . S
C1063 C1061 1.327 . S
C1063 C1079 1.429 . S
C1063 H1085 0.950 . S
C1064 H1060 0.949 . S
C1064 C1072 1.574 . S
C1064 C1080 1.368 . S
H1065 C1073 0.950 . S
H1066 C1071 0.950 . S
H1067 C1072 0.949 . S
H1068 C1074 0.950 . S
H1069 C1075 0.950 . S
H1070 C1076 0.949 . S
C1071 H1066 0.950 . S
C1071 C1073 1.327 . S
C1071 C1077 1.429 . S
C1072 C1064 1.574 . S
C1072 H1067 0.949 . S
C1072 C1078 1.368 . S
C1073 C1057 1.349 . S
C1073 H1065 0.950 . S
C1073 C1071 1.327 . S
C1074 C1062 1.349 . S
C1074 H1068 0.950 . S
C1074 C1075 1.327 . S
C1075 H1069 0.950 . S
C1075 C1074 1.327 . S
C1075 C1079 1.429 . S
C1076 C1059 1.574 . S
C1076 H1070 0.949 . S
C1076 C1080 1.368 . S
C1077 C1058 1.429 . S
C1077 C1071 1.429 . S
C1077 C1078 1.523 . S
C1078 C1059 1.368 . S
C1078 C1072 1.368 . S
C1078 C1077 1.523 . S
C1079 C1063 1.429 . S
C1079 C1075 1.429 . S
C1079 C1080 1.523 . S
C1080 C1064 1.368 . S
C1080 C1076 1.368 . S
C1080 C1079 1.523 . S
H1081 C1056 0.950 . S
H1082 C1058 0.950 . S
H1083 C1059 0.949 . S
H1084 C1061 0.950 . S
H1085 C1063 0.950 . S
C1086 C1087 1.349 . S
C1086 C1088 1.327 . S
C1086 H1111 0.950 . S
C1087 C1086 1.349 . S
C1087 C1103 1.349 . S
C1088 C1086 1.327 . S
C1088 C1107 1.429 . S
C1088 H1112 0.950 . S
C1089 C1106 1.574 . S
C1089 C1108 1.368 . S
C1089 H1113 0.949 . S
H1090 C1094 0.949 . S
C1091 C1092 1.349 . S
C1091 C1093 1.327 1_556 S
C1091 H1114 0.950 . S
C1092 C1091 1.349 . S
C1092 C1104 1.349 . S
C1093 C1091 1.327 1_554 S
C1093 C1109 1.429 . S
C1093 H1115 0.950 . S
C1094 H1090 0.949 . S
C1094 C1102 1.574 . S
C1094 C1110 1.368 . S
H1095 C1103 0.950 . S
H1096 C1101 0.950 . S
H1097 C1102 0.949 . S
H1098 C1104 0.950 . S
H1099 C1105 0.950 . S
H1100 C1106 0.949 . S
C1101 H1096 0.950 . S
C1101 C1103 1.327 . S
C1101 C1107 1.429 . S
C1102 C1094 1.574 . S
C1102 H1097 0.949 . S
C1102 C1108 1.368 . S
C1103 C1087 1.349 . S
C1103 H1095 0.950 . S
C1103 C1101 1.327 . S
C1104 C1092 1.349 . S
C1104 H1098 0.950 . S
C1104 C1105 1.327 1_556 S
C1105 H1099 0.950 . S
C1105 C1104 1.327 1_554 S
C1105 C1109 1.429 . S
C1106 C1089 1.574 . S
C1106 H1100 0.949 . S
C1106 C1110 1.368 . S
C1107 C1088 1.429 . S
C1107 C1101 1.429 . S
C1107 C1108 1.523 . S
C1108 C1089 1.368 . S
C1108 C1102 1.368 . S
C1108 C1107 1.523 . S
C1109 C1093 1.429 . S
C1109 C1105 1.429 . S
C1109 C1110 1.523 . S
C1110 C1094 1.368 . S
C1110 C1106 1.368 . S
C1110 C1109 1.523 . S
H1111 C1086 0.950 . S
H1112 C1088 0.950 . S
H1113 C1089 0.949 . S
H1114 C1091 0.950 . S
H1115 C1093 0.950 . S
C1116 C1117 1.349 . S
C1116 C1118 1.327 . S
C1116 H1141 0.950 . S
C1117 C1116 1.349 . S
C1117 C1133 1.349 . S
C1118 C1116 1.327 . S
C1118 C1137 1.429 . S
C1118 H1142 0.950 . S
C1119 C1136 1.574 . S
C1119 C1138 1.368 . S
C1119 H1143 0.949 . S
H1120 C1124 0.949 . S
C1121 C1122 1.349 . S
C1121 C1123 1.327 . S
C1121 H1144 0.950 . S
C1122 C1121 1.349 . S
C1122 C1134 1.349 . S
C1123 C1121 1.327 . S
C1123 C1139 1.429 . S
C1123 H1145 0.950 . S
C1124 H1120 0.949 . S
C1124 C1132 1.574 . S
C1124 C1140 1.368 . S
H1125 C1133 0.950 . S
H1126 C1131 0.950 . S
H1127 C1132 0.949 . S
H1128 C1134 0.950 . S
H1129 C1135 0.950 . S
H1130 C1136 0.949 . S
C1131 H1126 0.950 . S
C1131 C1133 1.327 . S
C1131 C1137 1.429 . S
C1132 C1124 1.574 . S
C1132 H1127 0.949 . S
C1132 C1138 1.368 . S
C1133 C1117 1.349 . S
C1133 H1125 0.950 . S
C1133 C1131 1.327 . S
C1134 C1122 1.349 . S
C1134 H1128 0.950 . S
C1134 C1135 1.327 . S
C1135 H1129 0.950 . S
C1135 C1134 1.327 . S
C1135 C1139 1.429 . S
C1136 C1119 1.574 . S
C1136 H1130 0.949 . S
C1136 C1140 1.368 . S
C1137 C1118 1.429 . S
C1137 C1131 1.429 . S
C1137 C1138 1.523 . S
C1138 C1119 1.368 . S
C1138 C1132 1.368 . S
C1138 C1137 1.523 . S
C1139 C1123 1.429 . S
C1139 C1135 1.429 . S
C1139 C1140 1.523 . S
C1140 C1124 1.368 . S
C1140 C1136 1.368 . S
C1140 C1139 1.523 . S
H1141 C1116 0.950 . S
H1142 C1118 0.950 . S
H1143 C1119 0.949 . S
H1144 C1121 0.950 . S
H1145 C1123 0.950 . S
C1146 C1147 1.349 . S
C1146 C1148 1.327 . S
C1146 H1171 0.950 . S
C1147 C1146 1.349 . S
C1147 C1163 1.349 . S
C1148 C1146 1.327 . S
C1148 C1167 1.429 . S
C1148 H1172 0.950 . S
C1149 C1166 1.574 . S
C1149 C1168 1.368 . S
C1149 H1173 0.949 . S
H1150 C1154 0.949 . S
C1151 C1152 1.349 . S
C1151 C1153 1.327 . S
C1151 H1174 0.950 . S
C1152 C1151 1.349 . S
C1152 C1164 1.349 . S
C1153 C1151 1.327 . S
C1153 C1169 1.429 . S
C1153 H1175 0.950 . S
C1154 H1150 0.949 . S
C1154 C1162 1.574 . S
C1154 C1170 1.368 . S
H1155 C1163 0.950 . S
H1156 C1161 0.950 . S
H1157 C1162 0.949 . S
H1158 C1164 0.950 . S
H1159 C1165 0.950 . S
H1160 C1166 0.949 . S
C1161 H1156 0.950 . S
C1161 C1163 1.327 . S
C1161 C1167 1.429 . S
C1162 C1154 1.574 . S
C1162 H1157 0.949 . S
C1162 C1168 1.368 . S
C1163 C1147 1.349 . S
C1163 H1155 0.950 . S
C1163 C1161 1.327 . S
C1164 C1152 1.349 . S
C1164 H1158 0.950 . S
C1164 C1165 1.327 . S
C1165 H1159 0.950 . S
C1165 C1164 1.327 . S
C1165 C1169 1.429 . S
C1166 C1149 1.574 . S
C1166 H1160 0.949 . S
C1166 C1170 1.368 . S
C1167 C1148 1.429 . S
C1167 C1161 1.429 . S
C1167 C1168 1.523 . S
C1168 C1149 1.368 . S
C1168 C1162 1.368 . S
C1168 C1167 1.523 . S
C1169 C1153 1.429 . S
C1169 C1165 1.429 . S
C1169 C1170 1.523 . S
C1170 C1154 1.368 . S
C1170 C1166 1.368 . S
C1170 C1169 1.523 . S
H1171 C1146 0.950 . S
H1172 C1148 0.950 . S
H1173 C1149 0.949 . S
H1174 C1151 0.950 . S
H1175 C1153 0.950 . S
C1176 C1177 1.349 . S
C1176 C1178 1.327 . S
C1176 H1201 0.950 . S
C1177 C1176 1.349 . S
C1177 C1193 1.349 . S
C1178 C1176 1.327 . S
C1178 C1197 1.429 . S
C1178 H1202 0.950 . S
C1179 C1196 1.574 . S
C1179 C1198 1.368 . S
C1179 H1203 0.949 . S
H1180 C1184 0.949 . S
C1181 C1182 1.349 . S
C1181 C1183 1.327 . S
C1181 H1204 0.950 . S
C1182 C1181 1.349 . S
C1182 C1194 1.349 . S
C1183 C1181 1.327 . S
C1183 C1199 1.429 . S
C1183 H1205 0.950 . S
C1184 H1180 0.949 . S
C1184 C1192 1.574 . S
C1184 C1200 1.368 . S
H1185 C1193 0.950 . S
H1186 C1191 0.950 . S
H1187 C1192 0.949 . S
H1188 C1194 0.950 . S
H1189 C1195 0.950 . S
H1190 C1196 0.949 . S
C1191 H1186 0.950 . S
C1191 C1193 1.327 . S
C1191 C1197 1.429 . S
C1192 C1184 1.574 . S
C1192 H1187 0.949 . S
C1192 C1198 1.368 . S
C1193 C1177 1.349 . S
C1193 H1185 0.950 . S
C1193 C1191 1.327 . S
C1194 C1182 1.349 . S
C1194 H1188 0.950 . S
C1194 C1195 1.327 . S
C1195 H1189 0.950 . S
C1195 C1194 1.327 . S
C1195 C1199 1.429 . S
C1196 C1179 1.574 . S
C1196 H1190 0.949 . S
C1196 C1200 1.368 . S
C1197 C1178 1.429 . S
C1197 C1191 1.429 . S
C1197 C1198 1.523 . S
C1198 C1179 1.368 . S
C1198 C1192 1.368 . S
C1198 C1197 1.523 . S
C1199 C1183 1.429 . S
C1199 C1195 1.429 . S
C1199 C1200 1.523 . S
C1200 C1184 1.368 . S
C1200 C1196 1.368 . S
C1200 C1199 1.523 . S
H1201 C1176 0.950 . S
H1202 C1178 0.950 . S
H1203 C1179 0.949 . S
H1204 C1181 0.950 . S
H1205 C1183 0.950 . S
C1206 C1207 1.349 . S
C1206 C1208 1.327 . S
C1206 H1231 0.950 . S
C1207 C1206 1.349 . S
C1207 C1223 1.349 . S
C1208 C1206 1.327 . S
C1208 C1227 1.429 . S
C1208 H1232 0.950 . S
C1209 C1226 1.574 . S
C1209 C1228 1.368 . S
C1209 H1233 0.949 . S
H1210 C1214 0.949 . S
C1211 C1212 1.349 . S
C1211 C1213 1.327 . S
C1211 H1234 0.950 . S
C1212 C1211 1.349 . S
C1212 C1224 1.349 . S
C1213 C1211 1.327 . S
C1213 C1229 1.429 . S
C1213 H1235 0.950 . S
C1214 H1210 0.949 . S
C1214 C1222 1.574 . S
C1214 C1230 1.368 . S
H1215 C1223 0.950 . S
H1216 C1221 0.950 . S
H1217 C1222 0.949 . S
H1218 C1224 0.950 . S
H1219 C1225 0.950 . S
H1220 C1226 0.949 . S
C1221 H1216 0.950 . S
C1221 C1223 1.327 . S
C1221 C1227 1.429 . S
C1222 C1214 1.574 . S
C1222 H1217 0.949 . S
C1222 C1228 1.368 . S
C1223 C1207 1.349 . S
C1223 H1215 0.950 . S
C1223 C1221 1.327 . S
C1224 C1212 1.349 . S
C1224 H1218 0.950 . S
C1224 C1225 1.327 . S
C1225 H1219 0.950 . S
C1225 C1224 1.327 . S
C1225 C1229 1.429 . S
C1226 C1209 1.574 . S
C1226 H1220 0.949 . S
C1226 C1230 1.368 . S
C1227 C1208 1.429 . S
C1227 C1221 1.429 . S
C1227 C1228 1.523 . S
C1228 C1209 1.368 . S
C1228 C1222 1.368 . S
C1228 C1227 1.523 . S
C1229 C1213 1.429 . S
C1229 C1225 1.429 . S
C1229 C1230 1.523 . S
C1230 C1214 1.368 . S
C1230 C1226 1.368 . S
C1230 C1229 1.523 . S
H1231 C1206 0.950 . S
H1232 C1208 0.950 . S
H1233 C1209 0.949 . S
H1234 C1211 0.950 . S
H1235 C1213 0.950 . S
C1236 C1237 1.349 . S
C1236 C1238 1.327 . S
C1236 H1261 0.950 . S
C1237 C1236 1.349 . S
C1237 C1253 1.349 . S
C1238 C1236 1.327 . S
C1238 C1257 1.429 . S
C1238 H1262 0.950 . S
C1239 C1256 1.574 . S
C1239 C1258 1.368 . S
C1239 H1263 0.949 . S
H1240 C1244 0.949 . S
C1241 C1242 1.349 . S
C1241 C1243 1.327 . S
C1241 H1264 0.950 . S
C1242 C1241 1.349 . S
C1242 C1254 1.349 . S
C1243 C1241 1.327 . S
C1243 C1259 1.429 . S
C1243 H1265 0.950 . S
C1244 H1240 0.949 . S
C1244 C1252 1.574 . S
C1244 C1260 1.368 . S
H1245 C1253 0.950 . S
H1246 C1251 0.950 . S
H1247 C1252 0.949 . S
H1248 C1254 0.950 . S
H1249 C1255 0.950 . S
H1250 C1256 0.949 . S
C1251 H1246 0.950 . S
C1251 C1253 1.327 . S
C1251 C1257 1.429 . S
C1252 C1244 1.574 . S
C1252 H1247 0.949 . S
C1252 C1258 1.368 . S
C1253 C1237 1.349 . S
C1253 H1245 0.950 . S
C1253 C1251 1.327 . S
C1254 C1242 1.349 . S
C1254 H1248 0.950 . S
C1254 C1255 1.327 . S
C1255 H1249 0.950 . S
C1255 C1254 1.327 . S
C1255 C1259 1.429 . S
C1256 C1239 1.574 . S
C1256 H1250 0.949 . S
C1256 C1260 1.368 . S
C1257 C1238 1.429 . S
C1257 C1251 1.429 . S
C1257 C1258 1.523 . S
C1258 C1239 1.368 . S
C1258 C1252 1.368 . S
C1258 C1257 1.523 . S
C1259 C1243 1.429 . S
C1259 C1255 1.429 . S
C1259 C1260 1.523 . S
C1260 C1244 1.368 . S
C1260 C1256 1.368 . S
C1260 C1259 1.523 . S
H1261 C1236 0.950 . S
H1262 C1238 0.950 . S
H1263 C1239 0.949 . S
H1264 C1241 0.950 . S
H1265 C1243 0.950 . S
C1266 C1267 1.349 . S
C1266 C1268 1.327 . S
C1266 H1291 0.950 . S
C1267 C1266 1.349 . S
C1267 C1283 1.349 . S
C1268 C1266 1.327 . S
C1268 C1287 1.429 . S
C1268 H1292 0.950 . S
C1269 C1286 1.574 . S
C1269 C1288 1.368 . S
C1269 H1293 0.949 . S
H1270 C1274 0.949 . S
C1271 C1272 1.349 . S
C1271 C1273 1.327 . S
C1271 H1294 0.950 . S
C1272 C1271 1.349 . S
C1272 C1284 1.349 . S
C1273 C1271 1.327 . S
C1273 C1289 1.429 . S
C1273 H1295 0.950 . S
C1274 H1270 0.949 . S
C1274 C1282 1.574 . S
C1274 C1290 1.368 . S
H1275 C1283 0.950 . S
H1276 C1281 0.950 . S
H1277 C1282 0.949 . S
H1278 C1284 0.950 . S
H1279 C1285 0.950 . S
H1280 C1286 0.949 . S
C1281 H1276 0.950 . S
C1281 C1283 1.327 . S
C1281 C1287 1.429 . S
C1282 C1274 1.574 . S
C1282 H1277 0.949 . S
C1282 C1288 1.368 . S
C1283 C1267 1.349 . S
C1283 H1275 0.950 . S
C1283 C1281 1.327 . S
C1284 C1272 1.349 . S
C1284 H1278 0.950 . S
C1284 C1285 1.327 . S
C1285 H1279 0.950 . S
C1285 C1284 1.327 . S
C1285 C1289 1.429 . S
C1286 C1269 1.574 . S
C1286 H1280 0.949 . S
C1286 C1290 1.368 . S
C1287 C1268 1.429 . S
C1287 C1281 1.429 . S
C1287 C1288 1.523 . S
C1288 C1269 1.368 . S
C1288 C1282 1.368 . S
C1288 C1287 1.523 . S
C1289 C1273 1.429 . S
C1289 C1285 1.429 . S
C1289 C1290 1.523 . S
C1290 C1274 1.368 . S
C1290 C1286 1.368 . S
C1290 C1289 1.523 . S
H1291 C1266 0.950 . S
H1292 C1268 0.950 . S
H1293 C1269 0.949 . S
H1294 C1271 0.950 . S
H1295 C1273 0.950 . S
C397 C8 1.002 . S
C402 C371 1.002 . S
C427 C41 1.002 . S
C432 C206 1.002 . S
C457 C239 1.001 . S
C462 C74 1.001 . S
C487 C272 1.002 . S
C492 C107 1.002 . S
C517 C305 1.002 . S
C522 C140 1.002 . S
C547 C173 1.001 . S
C552 C338 1.001 . S
C577 C281 1.633 . S
C582 C17 1.633 . S
C607 C314 1.633 . S
C612 C50 1.633 . S
C637 C83 1.633 . S
C642 C347 1.633 . S
C667 C116 1.633 . S
C672 C380 1.633 . S
C697 C215 1.633 . S
C702 C149 1.633 . S
C727 C182 1.633 . S
C732 C248 1.633 . S
C757 N14 1.299 . S
C762 N5 1.300 . S
C787 N38 1.300 . S
C792 N47 1.299 . S
C817 N80 1.299 . S
C822 N71 1.300 . S
C847 N104 1.300 . S
C852 N113 1.299 . S
C877 N146 1.299 . S
C882 N137 1.300 . S
C907 N170 1.300 . S
C912 N179 1.299 . S
C937 N203 1.300 . S
C942 N212 1.299 . S
C967 N245 1.299 . S
C972 N236 1.300 . S
C997 N269 1.300 . S
C1002 N278 1.299 . S
C1027 N302 1.300 . S
C1032 N311 1.299 . S
C1057 N344 1.299 . S
C1062 N335 1.300 . S
C1087 N377 1.299 . S
C1092 N368 1.300 . S
C1117 C28 1.140 . S
C1122 C358 1.140 . S
C1147 C391 1.141 . S
C1152 C61 1.141 . S
C1177 C226 1.140 . S
C1182 C94 1.140 . S
C1207 C127 1.141 . S
C1212 C259 1.141 . S
C1237 C160 1.141 . S
C1242 C292 1.141 . S
C1267 C193 1.140 . S
C1272 C325 1.140 . S
