# Generated by pormake.
# Topology ukd, (4)-cn, num edge types: 1
# Building blocks:
#     Node 0, Type 0, BuildingBlock: CEKHIL_clean_sbu_0, # of connection points: 4
#     Node 1, Type 0, BuildingBlock: CEKHIL_clean_sbu_0, # of connection points: 4
#     Node 2, Type 0, BuildingBlock: CEKHIL_clean_sbu_0, # of connection points: 4
#     Node 3, Type 0, BuildingBlock: CEKHIL_clean_sbu_0, # of connection points: 4
#     Node 4, Type 0, BuildingBlock: CEKHIL_clean_sbu_0, # of connection points: 4
#     Node 5, Type 0, BuildingBlock: CEKHIL_clean_sbu_0, # of connection points: 4
#     Node 6, Type 0, BuildingBlock: CEKHIL_clean_sbu_0, # of connection points: 4
#     Node 7, Type 0, BuildingBlock: CEKHIL_clean_sbu_0, # of connection points: 4
#     Node 8, Type 0, BuildingBlock: CEKHIL_clean_sbu_0, # of connection points: 4
#     Node 9, Type 0, BuildingBlock: CEKHIL_clean_sbu_0, # of connection points: 4
#     Node 10, Type 0, BuildingBlock: CEKHIL_clean_sbu_0, # of connection points: 4
#     Node 11, Type 0, BuildingBlock: CEKHIL_clean_sbu_0, # of connection points: 4
#     Node 12, Type 0, BuildingBlock: CEKHIL_clean_sbu_0, # of connection points: 4
#     Node 13, Type 0, BuildingBlock: CEKHIL_clean_sbu_0, # of connection points: 4
#     Node 14, Type 0, BuildingBlock: CEKHIL_clean_sbu_0, # of connection points: 4
#     Node 15, Type 0, BuildingBlock: CEKHIL_clean_sbu_0, # of connection points: 4
#     Node 16, Type 0, BuildingBlock: CEKHIL_clean_sbu_0, # of connection points: 4
#     Node 17, Type 0, BuildingBlock: CEKHIL_clean_sbu_0, # of connection points: 4
#     Node 18, Type 0, BuildingBlock: CEKHIL_clean_sbu_0, # of connection points: 4
#     Node 19, Type 0, BuildingBlock: CEKHIL_clean_sbu_0, # of connection points: 4
#     Node 20, Type 0, BuildingBlock: CEKHIL_clean_sbu_0, # of connection points: 4
#     Node 21, Type 0, BuildingBlock: CEKHIL_clean_sbu_0, # of connection points: 4
#     Node 22, Type 0, BuildingBlock: CEKHIL_clean_sbu_0, # of connection points: 4
#     Node 23, Type 0, BuildingBlock: CEKHIL_clean_sbu_0, # of connection points: 4
#     Node 24, Type 0, BuildingBlock: CEKHIL_clean_sbu_0, # of connection points: 4
#     Node 25, Type 0, BuildingBlock: CEKHIL_clean_sbu_0, # of connection points: 4
#     Node 26, Type 0, BuildingBlock: CEKHIL_clean_sbu_0, # of connection points: 4
#     Node 27, Type 0, BuildingBlock: CEKHIL_clean_sbu_0, # of connection points: 4
#     Node 28, Type 0, BuildingBlock: CEKHIL_clean_sbu_0, # of connection points: 4
#     Node 29, Type 0, BuildingBlock: CEKHIL_clean_sbu_0, # of connection points: 4
#     Node 30, Type 0, BuildingBlock: CEKHIL_clean_sbu_0, # of connection points: 4
#     Node 31, Type 0, BuildingBlock: CEKHIL_clean_sbu_0, # of connection points: 4
#     Edge 32, Type (0, 0), BuildingBlock: OJICUG_clean_linker_0, # of connection points: 2
#     Edge 33, Type (0, 0), BuildingBlock: OJICUG_clean_linker_0, # of connection points: 2
#     Edge 34, Type (0, 0), BuildingBlock: OJICUG_clean_linker_0, # of connection points: 2
#     Edge 35, Type (0, 0), BuildingBlock: OJICUG_clean_linker_0, # of connection points: 2
#     Edge 36, Type (0, 0), BuildingBlock: OJICUG_clean_linker_0, # of connection points: 2
#     Edge 37, Type (0, 0), BuildingBlock: OJICUG_clean_linker_0, # of connection points: 2
#     Edge 38, Type (0, 0), BuildingBlock: OJICUG_clean_linker_0, # of connection points: 2
#     Edge 39, Type (0, 0), BuildingBlock: OJICUG_clean_linker_0, # of connection points: 2
#     Edge 40, Type (0, 0), BuildingBlock: OJICUG_clean_linker_0, # of connection points: 2
#     Edge 41, Type (0, 0), BuildingBlock: OJICUG_clean_linker_0, # of connection points: 2
#     Edge 42, Type (0, 0), BuildingBlock: OJICUG_clean_linker_0, # of connection points: 2
#     Edge 43, Type (0, 0), BuildingBlock: OJICUG_clean_linker_0, # of connection points: 2
#     Edge 44, Type (0, 0), BuildingBlock: OJICUG_clean_linker_0, # of connection points: 2
#     Edge 45, Type (0, 0), BuildingBlock: OJICUG_clean_linker_0, # of connection points: 2
#     Edge 46, Type (0, 0), BuildingBlock: OJICUG_clean_linker_0, # of connection points: 2
#     Edge 47, Type (0, 0), BuildingBlock: OJICUG_clean_linker_0, # of connection points: 2
#     Edge 48, Type (0, 0), BuildingBlock: OJICUG_clean_linker_0, # of connection points: 2
#     Edge 49, Type (0, 0), BuildingBlock: OJICUG_clean_linker_0, # of connection points: 2
#     Edge 50, Type (0, 0), BuildingBlock: OJICUG_clean_linker_0, # of connection points: 2
#     Edge 51, Type (0, 0), BuildingBlock: OJICUG_clean_linker_0, # of connection points: 2
#     Edge 52, Type (0, 0), BuildingBlock: OJICUG_clean_linker_0, # of connection points: 2
#     Edge 53, Type (0, 0), BuildingBlock: OJICUG_clean_linker_0, # of connection points: 2
#     Edge 54, Type (0, 0), BuildingBlock: OJICUG_clean_linker_0, # of connection points: 2
#     Edge 55, Type (0, 0), BuildingBlock: OJICUG_clean_linker_0, # of connection points: 2
#     Edge 56, Type (0, 0), BuildingBlock: OJICUG_clean_linker_0, # of connection points: 2
#     Edge 57, Type (0, 0), BuildingBlock: OJICUG_clean_linker_0, # of connection points: 2
#     Edge 58, Type (0, 0), BuildingBlock: OJICUG_clean_linker_0, # of connection points: 2
#     Edge 59, Type (0, 0), BuildingBlock: OJICUG_clean_linker_0, # of connection points: 2
#     Edge 60, Type (0, 0), BuildingBlock: OJICUG_clean_linker_0, # of connection points: 2
#     Edge 61, Type (0, 0), BuildingBlock: OJICUG_clean_linker_0, # of connection points: 2
#     Edge 62, Type (0, 0), BuildingBlock: OJICUG_clean_linker_0, # of connection points: 2
#     Edge 63, Type (0, 0), BuildingBlock: OJICUG_clean_linker_0, # of connection points: 2
#     Edge 64, Type (0, 0), BuildingBlock: OJICUG_clean_linker_0, # of connection points: 2
#     Edge 65, Type (0, 0), BuildingBlock: OJICUG_clean_linker_0, # of connection points: 2
#     Edge 66, Type (0, 0), BuildingBlock: OJICUG_clean_linker_0, # of connection points: 2
#     Edge 67, Type (0, 0), BuildingBlock: OJICUG_clean_linker_0, # of connection points: 2
#     Edge 68, Type (0, 0), BuildingBlock: OJICUG_clean_linker_0, # of connection points: 2
#     Edge 69, Type (0, 0), BuildingBlock: OJICUG_clean_linker_0, # of connection points: 2
#     Edge 70, Type (0, 0), BuildingBlock: OJICUG_clean_linker_0, # of connection points: 2
#     Edge 71, Type (0, 0), BuildingBlock: OJICUG_clean_linker_0, # of connection points: 2
#     Edge 72, Type (0, 0), BuildingBlock: OJICUG_clean_linker_0, # of connection points: 2
#     Edge 73, Type (0, 0), BuildingBlock: OJICUG_clean_linker_0, # of connection points: 2
#     Edge 74, Type (0, 0), BuildingBlock: OJICUG_clean_linker_0, # of connection points: 2
#     Edge 75, Type (0, 0), BuildingBlock: OJICUG_clean_linker_0, # of connection points: 2
#     Edge 76, Type (0, 0), BuildingBlock: OJICUG_clean_linker_0, # of connection points: 2
#     Edge 77, Type (0, 0), BuildingBlock: OJICUG_clean_linker_0, # of connection points: 2
#     Edge 78, Type (0, 0), BuildingBlock: OJICUG_clean_linker_0, # of connection points: 2
#     Edge 79, Type (0, 0), BuildingBlock: OJICUG_clean_linker_0, # of connection points: 2
#     Edge 80, Type (0, 0), BuildingBlock: OJICUG_clean_linker_0, # of connection points: 2
#     Edge 81, Type (0, 0), BuildingBlock: OJICUG_clean_linker_0, # of connection points: 2
#     Edge 82, Type (0, 0), BuildingBlock: OJICUG_clean_linker_0, # of connection points: 2
#     Edge 83, Type (0, 0), BuildingBlock: OJICUG_clean_linker_0, # of connection points: 2
#     Edge 84, Type (0, 0), BuildingBlock: OJICUG_clean_linker_0, # of connection points: 2
#     Edge 85, Type (0, 0), BuildingBlock: OJICUG_clean_linker_0, # of connection points: 2
#     Edge 86, Type (0, 0), BuildingBlock: OJICUG_clean_linker_0, # of connection points: 2
#     Edge 87, Type (0, 0), BuildingBlock: OJICUG_clean_linker_0, # of connection points: 2
#     Edge 88, Type (0, 0), BuildingBlock: OJICUG_clean_linker_0, # of connection points: 2
#     Edge 89, Type (0, 0), BuildingBlock: OJICUG_clean_linker_0, # of connection points: 2
#     Edge 90, Type (0, 0), BuildingBlock: OJICUG_clean_linker_0, # of connection points: 2
#     Edge 91, Type (0, 0), BuildingBlock: OJICUG_clean_linker_0, # of connection points: 2
#     Edge 92, Type (0, 0), BuildingBlock: OJICUG_clean_linker_0, # of connection points: 2
#     Edge 93, Type (0, 0), BuildingBlock: OJICUG_clean_linker_0, # of connection points: 2
#     Edge 94, Type (0, 0), BuildingBlock: OJICUG_clean_linker_0, # of connection points: 2
#     Edge 95, Type (0, 0), BuildingBlock: OJICUG_clean_linker_0, # of connection points: 2
# Relax obj value: 0.046
# Max RMSD: 0.077
# Mean RMSD: 0.077
data_MOF--net-ukd--node1-CEKHIL_clean_sbu_0--edge1-OJICUG_clean_linker_0
_symmetry_space_group_name_H-M    P1
_symmetry_Int_Tables_number       1
_symmetry_cell_setting            triclinic
loop_
_symmetry_equiv_pos_as_xyz
'x, y, z'
_cell_length_a     32.898868
_cell_length_b     32.897818
_cell_length_c     50.725441
_cell_angle_alpha  89.997135
_cell_angle_beta   90.000294
_cell_angle_gamma 89.993222
loop_
_atom_site_label
_atom_site_type_symbol
_atom_site_fract_x
_atom_site_fract_y
_atom_site_fract_z
_atom_type_partial_charge
Co0 Co 0.22364 0.17908 0.33871 0.0
O1 O 0.2526 0.12902 0.33239 0.0
O2 O 0.25459 0.16402 0.36965 0.0
C3 C 0.24009 0.20897 0.3 0.0
O4 O 0.19965 0.23231 0.35228 0.0
Co5 Co 0.15173 0.20577 0.30315 0.0
O6 O 0.15795 0.25872 0.32164 0.0
C7 C 0.13838 0.14318 0.34404 0.0
C8 C 0.26681 0.13271 0.35614 0.0
C9 C 0.17705 0.26125 0.34345 0.0
O10 O 0.17486 0.14853 0.35258 0.0
O11 O 0.12453 0.1606 0.3233 0.0
O12 O 0.26544 0.20943 0.31964 0.0
O13 O 0.20762 0.18762 0.30359 0.0
Co14 Co 0.07933 0.97353 0.58889 0.0
O15 O 0.12939 1.00241 0.58246 0.0
O16 O 0.09457 0.00448 0.61979 0.0
C17 C 0.04932 0.99004 0.55022 0.0
O18 O 0.02613 0.94963 0.60256 0.0
Co19 Co 0.05242 0.90165 0.55339 0.0
O20 O 0.99956 0.90794 0.57198 0.0
C21 C 0.11515 0.88822 0.59418 0.0
C22 C 0.12582 0.01666 0.60621 0.0
C23 C 0.99713 0.92706 0.59379 0.0
O24 O 0.10988 0.92471 0.60271 0.0
O25 O 0.09763 0.87438 0.57347 0.0
O26 O 0.04896 0.01538 0.56987 0.0
O27 O 0.07063 0.95752 0.55378 0.0
Co28 Co 0.28415 0.82918 0.83887 0.0
O29 O 0.25526 0.87926 0.83251 0.0
O30 O 0.2532 0.84429 0.86979 0.0
C31 C 0.26771 0.79927 0.80016 0.0
O32 O 0.30806 0.77592 0.85247 0.0
Co33 Co 0.35606 0.80236 0.80334 0.0
O34 O 0.3497 0.74942 0.82183 0.0
C35 C 0.36943 0.86502 0.84418 0.0
C36 C 0.24101 0.8756 0.85625 0.0
C37 C 0.33058 0.74693 0.84363 0.0
O38 O 0.33296 0.85969 0.85274 0.0
O39 O 0.38326 0.84757 0.82345 0.0
O40 O 0.24234 0.79886 0.81979 0.0
O41 O 0.3002 0.82059 0.80376 0.0
Co42 Co 0.42842 0.03413 0.08863 0.0
O43 O 0.37847 0.00503 0.08226 0.0
O44 O 0.41337 1.00315 0.11956 0.0
C45 C 0.45844 0.01773 0.04996 0.0
O46 O 0.48157 0.05828 0.10224 0.0
Co47 Co 0.45497 0.10609 0.05306 0.0
O48 O 0.5079 0.1 0.07159 0.0
C49 C 0.39222 0.11928 0.09387 0.0
C50 C 0.38214 0.99082 0.10601 0.0
C51 C 0.51046 0.08092 0.09341 0.0
O52 O 0.39769 0.08284 0.10245 0.0
O53 O 0.40964 0.13315 0.07314 0.0
O54 O 0.45894 0.99239 0.06962 0.0
O55 O 0.43699 0.05014 0.05352 0.0
Co56 Co 0.22333 0.82875 0.16525 0.0
O57 O 0.25237 0.87874 0.1716 0.0
O58 O 0.25431 0.84379 0.13432 0.0
C59 C 0.23975 0.79882 0.20396 0.0
O60 O 0.19922 0.77556 0.15167 0.0
Co61 Co 0.15138 0.8022 0.20084 0.0
O62 O 0.15751 0.74925 0.18234 0.0
C63 C 0.13816 0.86488 0.15998 0.0
C64 C 0.26658 0.87506 0.14785 0.0
C65 C 0.17658 0.74668 0.16052 0.0
O66 O 0.1746 0.85941 0.15141 0.0
O67 O 0.1243 0.8475 0.18073 0.0
O68 O 0.26508 0.7983 0.1843 0.0
O69 O 0.20731 0.82022 0.20037 0.0
Co70 Co 0.4285 0.97364 0.41557 0.0
O71 O 0.37854 1.00277 0.42191 0.0
O72 O 0.41349 0.00461 0.38462 0.0
C73 C 0.45852 0.99002 0.45424 0.0
O74 O 0.48165 0.94949 0.40197 0.0
Co75 Co 0.455 0.90165 0.45111 0.0
O76 O 0.50795 0.90772 0.4326 0.0
C77 C 0.39226 0.88851 0.4103 0.0
C78 C 0.38224 0.01695 0.39815 0.0
C79 C 0.51053 0.92683 0.4108 0.0
O80 O 0.39776 0.92496 0.40173 0.0
O81 O 0.40966 0.87461 0.43103 0.0
O82 O 0.45901 0.01536 0.43459 0.0
O83 O 0.43705 0.95761 0.45069 0.0
Co84 Co 0.28469 0.17883 0.66519 0.0
O85 O 0.25582 0.12876 0.6716 0.0
O86 O 0.25372 0.16364 0.63429 0.0
C87 C 0.26822 0.20878 0.70389 0.0
O88 O 0.30858 0.23207 0.65154 0.0
Co89 Co 0.35659 0.20574 0.70068 0.0
O90 O 0.35024 0.25862 0.68214 0.0
C91 C 0.36998 0.14299 0.6599 0.0
C92 C 0.24156 0.13236 0.64786 0.0
C93 C 0.33112 0.26107 0.66034 0.0
O94 O 0.3335 0.1483 0.65135 0.0
O95 O 0.38381 0.16049 0.68061 0.0
O96 O 0.24286 0.20918 0.68424 0.0
O97 O 0.30073 0.18748 0.7003 0.0
Co98 Co 0.07867 0.03419 0.91541 0.0
O99 O 0.12873 0.0053 0.92184 0.0
O100 O 0.09393 1.00329 0.8845 0.0
C101 C 0.0486 0.01769 0.95406 0.0
O102 O 0.02548 0.05809 0.90171 0.0
Co103 Co 0.05167 0.10607 0.95087 0.0
O104 O 0.99882 0.09973 0.93228 0.0
C105 C 0.11448 0.11952 0.91015 0.0
C106 C 0.12519 0.9911 0.89808 0.0
C107 C 0.99645 0.08062 0.91047 0.0
O108 O 0.10924 0.08303 0.90161 0.0
O109 O 0.09691 0.13336 0.93083 0.0
O110 O 0.04828 0.99234 0.9344 0.0
O111 O 0.06991 0.0502 0.95051 0.0
Co112 Co 0.78477 0.82921 0.66552 0.0
O113 O 0.75579 0.87924 0.67192 0.0
O114 O 0.75381 0.84436 0.63461 0.0
C115 C 0.76834 0.79918 0.70419 0.0
O116 O 0.80875 0.77603 0.65187 0.0
Co117 Co 0.85672 0.80241 0.701 0.0
O118 O 0.85049 0.74952 0.68244 0.0
C119 C 0.87002 0.86515 0.66021 0.0
C120 C 0.74157 0.87562 0.64817 0.0
C121 C 0.83136 0.74706 0.66064 0.0
O122 O 0.83353 0.85983 0.65168 0.0
O123 O 0.8839 0.84765 0.68091 0.0
O124 O 0.74299 0.79879 0.68455 0.0
O125 O 0.80081 0.82055 0.70063 0.0
Co126 Co 0.92896 0.03499 0.41538 0.0
O127 O 0.87893 0.00608 0.42184 0.0
O128 O 0.91371 0.00399 0.3845 0.0
C129 C 0.95904 0.01858 0.45403 0.0
O130 O 0.98214 0.05892 0.40167 0.0
Co131 Co 0.9558 0.10698 0.45079 0.0
O132 O 0.00867 0.10065 0.43223 0.0
C133 C 0.89304 0.12026 0.41001 0.0
C134 C 0.88248 0.99181 0.3981 0.0
C135 C 0.01112 0.0815 0.41044 0.0
O136 O 0.89834 0.08375 0.40152 0.0
O137 O 0.91057 0.13418 0.43069 0.0
O138 O 0.95939 0.99321 0.4344 0.0
O139 O 0.93769 0.05107 0.45047 0.0
Co140 Co 0.72319 0.17859 0.16501 0.0
O141 O 0.75191 0.12844 0.1715 0.0
O142 O 0.75423 0.16325 0.13417 0.0
C143 C 0.73959 0.20857 0.20371 0.0
O144 O 0.6995 0.23188 0.15129 0.0
Co145 Co 0.65123 0.20575 0.20038 0.0
O146 O 0.65788 0.25861 0.18185 0.0
C147 C 0.63781 0.14298 0.15962 0.0
C148 C 0.76627 0.13196 0.14778 0.0
C149 C 0.67706 0.26098 0.16007 0.0
O150 O 0.67433 0.14817 0.15111 0.0
O151 O 0.62396 0.16055 0.1803 0.0
O152 O 0.76503 0.20884 0.18411 0.0
O153 O 0.70705 0.18735 0.20009 0.0
Co154 Co 0.57902 0.97331 0.91518 0.0
O155 O 0.62904 1.00228 0.92154 0.0
O156 O 0.59412 0.00426 0.88425 0.0
C157 C 0.54906 0.98976 0.95386 0.0
O158 O 0.52582 0.94931 0.90157 0.0
Co159 Co 0.5523 0.9014 0.95072 0.0
O160 O 0.49936 0.90767 0.93222 0.0
C161 C 0.61505 0.88809 0.90994 0.0
C162 C 0.62539 0.0165 0.89779 0.0
C163 C 0.49685 0.92677 0.91041 0.0
O164 O 0.60964 0.92453 0.90135 0.0
O165 O 0.5976 0.87425 0.93066 0.0
O166 O 0.54862 0.01511 0.93421 0.0
O167 O 0.57043 0.95729 0.95029 0.0
Co168 Co 0.78425 0.17851 0.83859 0.0
O169 O 0.75521 0.12854 0.83219 0.0
O170 O 0.75325 0.16342 0.8695 0.0
C171 C 0.76791 0.20856 0.79992 0.0
O172 O 0.80831 0.23166 0.85225 0.0
Co173 Co 0.85627 0.20516 0.80312 0.0
O174 O 0.85012 0.25806 0.82167 0.0
C175 C 0.86943 0.14243 0.84394 0.0
C176 C 0.74099 0.13218 0.85594 0.0
C177 C 0.83098 0.26057 0.84346 0.0
O178 O 0.83295 0.14782 0.85245 0.0
O179 O 0.88336 0.15988 0.82324 0.0
O180 O 0.74253 0.20901 0.81955 0.0
O181 O 0.80034 0.18713 0.80349 0.0
Co182 Co 0.57945 0.03437 0.58891 0.0
O183 O 0.62947 0.0054 0.58255 0.0
O184 O 0.59459 1.00346 0.61985 0.0
C185 C 0.54944 0.01789 0.55025 0.0
O186 O 0.52625 0.0584 0.60252 0.0
Co187 Co 0.5527 0.10625 0.55333 0.0
O188 O 0.49979 0.10002 0.57186 0.0
C189 C 0.61542 0.11962 0.59413 0.0
C190 C 0.62585 0.99121 0.60631 0.0
C191 C 0.49729 0.08096 0.59368 0.0
O192 O 0.61005 0.08317 0.60271 0.0
O193 O 0.59796 0.13344 0.5734 0.0
O194 O 0.54903 0.99255 0.56991 0.0
O195 O 0.57082 0.05035 0.5538 0.0
Co196 Co 0.72349 0.8297 0.33916 0.0
O197 O 0.75226 0.87983 0.33277 0.0
O198 O 0.75448 0.8449 0.37005 0.0
C199 C 0.73996 0.79977 0.30046 0.0
O200 O 0.69972 0.7764 0.35277 0.0
Co201 Co 0.6516 0.80276 0.30365 0.0
O202 O 0.65814 0.74983 0.32213 0.0
C203 C 0.6381 0.86532 0.34454 0.0
C204 C 0.76658 0.87621 0.3565 0.0
C205 C 0.67727 0.74737 0.34393 0.0
O206 O 0.67462 0.8601 0.35306 0.0
O207 O 0.62429 0.84785 0.32381 0.0
O208 O 0.76536 0.79944 0.32008 0.0
O209 O 0.70743 0.82104 0.30406 0.0
Co210 Co 0.92843 0.97285 0.08898 0.0
O211 O 0.87827 1.00159 0.0826 0.0
O212 O 0.91325 0.00391 0.11985 0.0
C213 C 0.95826 0.98926 0.05024 0.0
O214 O 0.98177 0.94912 0.10257 0.0
Co215 Co 0.95527 0.90086 0.05354 0.0
O216 O 0.00821 0.90735 0.07199 0.0
C217 C 0.89287 0.88747 0.09454 0.0
C218 C 0.88192 0.01597 0.1063 0.0
C219 C 0.01075 0.92657 0.09375 0.0
O220 O 0.89809 0.92402 0.10298 0.0
O221 O 0.91027 0.87357 0.07381 0.0
O222 O 0.95861 0.01468 0.06984 0.0
O223 O 0.93702 0.95672 0.05387 0.0
Co224 Co 0.72351 0.67855 0.83893 0.0
O225 O 0.75236 0.62846 0.83254 0.0
O226 O 0.7544 0.6633 0.86986 0.0
C227 C 0.74008 0.70853 0.80026 0.0
O228 O 0.69963 0.73181 0.85256 0.0
Co229 Co 0.65171 0.70551 0.80335 0.0
O230 O 0.65809 0.75839 0.82189 0.0
C231 C 0.63816 0.64283 0.84416 0.0
C232 C 0.76658 0.63203 0.85629 0.0
C233 C 0.67715 0.76083 0.84372 0.0
O234 O 0.67463 0.64807 0.85273 0.0
O235 O 0.62438 0.66033 0.82343 0.0
O236 O 0.76541 0.70887 0.81992 0.0
O237 O 0.70756 0.68724 0.80381 0.0
Co238 Co 0.57921 0.47343 0.08854 0.0
O239 O 0.62912 0.50268 0.0823 0.0
O240 O 0.59407 0.50429 0.11955 0.0
C241 C 0.54926 0.48992 0.04985 0.0
O242 O 0.52609 0.44913 0.10204 0.0
Co243 Co 0.55289 0.40156 0.05284 0.0
O244 O 0.49991 0.40738 0.07136 0.0
C245 C 0.61555 0.38832 0.0937 0.0
C246 C 0.62533 0.51674 0.10608 0.0
C247 C 0.49727 0.42642 0.09318 0.0
O248 O 0.61001 0.42473 0.10231 0.0
O249 O 0.59821 0.37448 0.07294 0.0
O250 O 0.54866 0.51517 0.06955 0.0
O251 O 0.57078 0.45754 0.05338 0.0
Co252 Co 0.78415 0.32921 0.3385 0.0
O253 O 0.75514 0.37922 0.33208 0.0
O254 O 0.7532 0.34439 0.36941 0.0
C255 C 0.76772 0.29912 0.29984 0.0
O256 O 0.80818 0.27607 0.3522 0.0
Co257 Co 0.85608 0.30236 0.30302 0.0
O258 O 0.84993 0.24952 0.32165 0.0
C259 C 0.86939 0.36519 0.34376 0.0
C260 C 0.74095 0.37563 0.35584 0.0
C261 C 0.83082 0.2471 0.34346 0.0
O262 O 0.83291 0.35987 0.3523 0.0
O263 O 0.88325 0.34766 0.32306 0.0
O264 O 0.74237 0.29873 0.31949 0.0
O265 O 0.80019 0.3205 0.3034 0.0
Co266 Co 0.92884 0.53461 0.58872 0.0
O267 O 0.87876 0.50575 0.58234 0.0
O268 O 0.91373 0.50357 0.61961 0.0
C269 C 0.9587 0.51822 0.54999 0.0
O270 O 0.9821 0.55846 0.60234 0.0
Co271 Co 0.95565 0.60659 0.55327 0.0
O272 O 0.00858 0.60024 0.57177 0.0
C273 C 0.89305 0.6199 0.59416 0.0
C274 C 0.88243 0.49143 0.60607 0.0
C275 C 0.01107 0.58105 0.59355 0.0
O276 O 0.89835 0.58339 0.60266 0.0
O277 O 0.9105 0.63379 0.57345 0.0
O278 O 0.95913 0.49282 0.56961 0.0
O279 O 0.93741 0.55073 0.55362 0.0
Co280 Co 0.72363 0.32925 0.66514 0.0
O281 O 0.75253 0.37931 0.67154 0.0
O282 O 0.75461 0.3444 0.63424 0.0
C283 C 0.74004 0.29929 0.70383 0.0
O284 O 0.6997 0.27603 0.65151 0.0
Co285 Co 0.65168 0.30246 0.70064 0.0
O286 O 0.65805 0.24954 0.68214 0.0
C287 C 0.63836 0.36516 0.65982 0.0
C288 C 0.76679 0.37568 0.6478 0.0
C289 C 0.67717 0.24705 0.66034 0.0
O290 O 0.67484 0.35982 0.65127 0.0
O291 O 0.62451 0.34771 0.68054 0.0
O292 O 0.76542 0.29888 0.6842 0.0
O293 O 0.70756 0.32063 0.70024 0.0
Co294 Co 0.92861 0.47299 0.91535 0.0
O295 O 0.87851 0.50184 0.92173 0.0
O296 O 0.91347 0.50404 0.88447 0.0
C297 C 0.95846 0.48936 0.95409 0.0
O298 O 0.98188 0.44915 0.90172 0.0
Co299 Co 0.95547 0.401 0.95078 0.0
O300 O 0.0084 0.40741 0.93229 0.0
C301 C 0.89285 0.38769 0.9099 0.0
C302 C 0.88216 0.51617 0.89801 0.0
C303 C 0.01087 0.42659 0.91051 0.0
O304 O 0.89813 0.42421 0.90141 0.0
O305 O 0.91032 0.3738 0.93061 0.0
O306 O 0.95888 0.51478 0.93447 0.0
O307 O 0.93719 0.45685 0.95045 0.0
Co308 Co 0.78402 0.67845 0.16588 0.0
O309 O 0.75472 0.62859 0.1722 0.0
O310 O 0.75308 0.66354 0.13491 0.0
C311 C 0.76767 0.70858 0.20453 0.0
O312 O 0.80837 0.7315 0.15228 0.0
Co313 Co 0.85605 0.70468 0.20146 0.0
O314 O 0.85034 0.7576 0.18287 0.0
C315 C 0.86905 0.64192 0.16065 0.0
C316 C 0.74064 0.63232 0.14842 0.0
C317 C 0.83122 0.76026 0.16107 0.0
O318 O 0.83263 0.64754 0.15208 0.0
O319 O 0.88299 0.65926 0.18139 0.0
O320 O 0.74237 0.70912 0.18486 0.0
O321 O 0.80001 0.68698 0.20101 0.0
Co322 Co 0.57935 0.53477 0.41528 0.0
O323 O 0.62932 0.50566 0.42158 0.0
O324 O 0.59436 0.50388 0.3843 0.0
C325 C 0.54939 0.51826 0.45395 0.0
O326 O 0.52617 0.55894 0.40173 0.0
Co327 Co 0.55282 0.60663 0.45093 0.0
O328 O 0.49987 0.6006 0.43242 0.0
C329 C 0.61553 0.61993 0.41012 0.0
C330 C 0.62562 0.49152 0.39781 0.0
C331 C 0.49728 0.58156 0.4106 0.0
O332 O 0.61004 0.58352 0.40149 0.0
O333 O 0.59814 0.63374 0.43087 0.0
O334 O 0.54888 0.49298 0.43427 0.0
O335 O 0.57082 0.55069 0.45042 0.0
Co336 Co 0.28452 0.32904 0.16499 0.0
O337 O 0.25581 0.37921 0.1714 0.0
O338 O 0.25343 0.34425 0.13414 0.0
C339 C 0.26815 0.29922 0.20374 0.0
O340 O 0.30819 0.2757 0.15136 0.0
Co341 Co 0.3565 0.302 0.20039 0.0
O342 O 0.34986 0.24908 0.18193 0.0
C343 C 0.3699 0.36456 0.15948 0.0
C344 C 0.24139 0.37557 0.1477 0.0
C345 C 0.33065 0.24664 0.16016 0.0
O346 O 0.33336 0.35938 0.151 0.0
O347 O 0.38377 0.34708 0.18019 0.0
O348 O 0.24269 0.29887 0.18415 0.0
O349 O 0.3007 0.32042 0.20008 0.0
Co350 Co 0.42853 0.53437 0.91511 0.0
O351 O 0.37858 0.50531 0.92152 0.0
O352 O 0.4134 0.5034 0.88419 0.0
C353 C 0.4586 0.51795 0.95377 0.0
O354 O 0.48168 0.55847 0.90147 0.0
Co355 Co 0.45516 0.60631 0.95066 0.0
O356 O 0.50808 0.60013 0.93213 0.0
C357 C 0.3924 0.61956 0.90988 0.0
C358 C 0.38219 0.49109 0.89777 0.0
C359 C 0.51061 0.58106 0.91031 0.0
O360 O 0.39782 0.58311 0.9013 0.0
O361 O 0.40984 0.63342 0.9306 0.0
O362 O 0.45906 0.49262 0.93411 0.0
O363 O 0.43716 0.55038 0.95022 0.0
Co364 Co 0.22351 0.67872 0.66532 0.0
O365 O 0.25248 0.62869 0.6717 0.0
O366 O 0.25454 0.66364 0.63442 0.0
C367 C 0.23986 0.70868 0.70403 0.0
O368 O 0.19954 0.73193 0.65169 0.0
Co369 Co 0.1515 0.70544 0.70079 0.0
O370 O 0.15777 0.75837 0.68227 0.0
C371 C 0.13829 0.64276 0.65994 0.0
C372 C 0.26675 0.63235 0.64797 0.0
C373 C 0.17693 0.76088 0.66049 0.0
O374 O 0.17478 0.64813 0.65142 0.0
O375 O 0.12439 0.6602 0.68066 0.0
O376 O 0.26525 0.70912 0.6844 0.0
O377 O 0.2074 0.68731 0.70042 0.0
Co378 Co 0.07878 0.47361 0.41501 0.0
O379 O 0.1288 0.50251 0.4215 0.0
O380 O 0.09405 0.50464 0.38414 0.0
C381 C 0.04872 0.48998 0.45368 0.0
O382 O 0.02561 0.44967 0.40129 0.0
Co383 Co 0.05192 0.40161 0.45044 0.0
O384 O 0.99905 0.40797 0.43187 0.0
C385 C 0.11477 0.38838 0.4097 0.0
C386 C 0.12527 0.5168 0.39776 0.0
C387 C 0.99661 0.42711 0.41007 0.0
O388 O 0.10941 0.42485 0.40116 0.0
O389 O 0.09725 0.37449 0.43039 0.0
O390 O 0.04835 0.51537 0.43405 0.0
O391 O 0.07007 0.4575 0.45009 0.0
Co392 Co 0.28438 0.67897 0.33901 0.0
O393 O 0.25568 0.6288 0.33259 0.0
O394 O 0.25332 0.66373 0.36987 0.0
C395 C 0.26795 0.7088 0.30028 0.0
O396 O 0.30805 0.73229 0.35267 0.0
Co397 Co 0.3563 0.7061 0.3036 0.0
O398 O 0.34969 0.75898 0.32211 0.0
C399 C 0.36976 0.64342 0.34443 0.0
C400 C 0.24128 0.63241 0.3563 0.0
C401 C 0.3305 0.76137 0.34389 0.0
O402 O 0.33325 0.6486 0.35295 0.0
O403 O 0.38358 0.66095 0.32373 0.0
O404 O 0.24252 0.70915 0.31988 0.0
O405 O 0.30052 0.68762 0.30393 0.0
Co406 Co 0.07845 0.53406 0.0891 0.0
O407 O 0.12859 0.50535 0.08257 0.0
O408 O 0.09386 0.50303 0.11993 0.0
C409 C 0.04844 0.51765 0.05042 0.0
O410 O 0.02519 0.55775 0.10286 0.0
Co411 Co 0.05122 0.60601 0.05375 0.0
O412 O 0.99841 0.59941 0.07234 0.0
C413 C 0.11413 0.61941 0.09442 0.0
C414 C 0.12513 0.49101 0.1063 0.0
C415 C 0.99608 0.58021 0.09412 0.0
O416 O 0.1089 0.58291 0.10297 0.0
O417 O 0.09652 0.63325 0.07375 0.0
O418 O 0.04817 0.49221 0.07002 0.0
O419 O 0.06964 0.55021 0.05403 0.0
Co420 Co 0.22334 0.32876 0.83888 0.0
O421 O 0.2523 0.37877 0.83243 0.0
O422 O 0.25438 0.34396 0.86976 0.0
C423 C 0.23974 0.29872 0.8002 0.0
O424 O 0.19935 0.27559 0.85259 0.0
Co425 Co 0.15138 0.30194 0.80342 0.0
O426 O 0.15761 0.24907 0.82201 0.0
C427 C 0.13812 0.36474 0.84419 0.0
C428 C 0.26658 0.37519 0.85616 0.0
C429 C 0.17673 0.24663 0.84382 0.0
O430 O 0.1746 0.3594 0.85273 0.0
O431 O 0.12423 0.34723 0.8235 0.0
O432 O 0.2651 0.29831 0.81984 0.0
O433 O 0.20727 0.32008 0.80378 0.0
Co434 Co 0.42888 0.4736 0.58874 0.0
O435 O 0.37885 0.50256 0.58237 0.0
O436 O 0.41375 0.50452 0.61968 0.0
C437 C 0.45886 0.49008 0.55007 0.0
O438 O 0.48209 0.44961 0.60236 0.0
Co439 Co 0.45565 0.40171 0.5532 0.0
O440 O 0.50857 0.40797 0.57172 0.0
C441 C 0.39295 0.38834 0.59401 0.0
C442 C 0.38248 0.51676 0.60613 0.0
C443 C 0.51106 0.42705 0.59353 0.0
O444 O 0.39829 0.42481 0.60257 0.0
O445 O 0.41042 0.3745 0.57329 0.0
O446 O 0.45928 0.51541 0.56973 0.0
O447 O 0.4375 0.4576 0.55363 0.0
C448 C 0.14016 0.36468 0.36577 0.0
C449 C 0.13819 0.3594 0.39325 0.0
H450 H 0.15387 0.33759 0.3284 0.0
C451 C 0.15422 0.32362 0.40431 0.0
H452 H 0.12797 0.39182 0.35661 0.0
C453 C 0.1697 0.29281 0.38814 0.0
C454 C 0.16864 0.29679 0.36055 0.0
H455 H 0.15332 0.31873 0.42542 0.0
H456 H 0.18009 0.26486 0.39721 0.0
C457 C 0.15482 0.33352 0.34958 0.0
C458 C 0.96567 0.91982 0.63852 0.0
C459 C 0.96162 0.91873 0.61094 0.0
H460 H 0.9398 0.90356 0.67583 0.0
C461 C 0.92484 0.90497 0.60001 0.0
H462 H 0.99366 0.93016 0.64755 0.0
C463 C 0.89369 0.89041 0.61624 0.0
C464 C 0.89902 0.88848 0.64372 0.0
H465 H 0.92072 0.904 0.57883 0.0
H466 H 0.8665 0.87827 0.60711 0.0
C467 C 0.93486 0.90444 0.65473 0.0
C468 C 0.36718 0.64337 0.86593 0.0
C469 C 0.36904 0.64858 0.89342 0.0
H470 H 0.3537 0.67058 0.82856 0.0
C471 C 0.35301 0.68436 0.90448 0.0
H472 H 0.37938 0.61624 0.85676 0.0
C473 C 0.33766 0.71524 0.88831 0.0
C474 C 0.33886 0.71133 0.86072 0.0
H475 H 0.35382 0.68919 0.92559 0.0
H476 H 0.32728 0.74318 0.89739 0.0
C477 C 0.35266 0.67459 0.84974 0.0
C478 C 0.58273 0.10324 0.09949 0.0
C479 C 0.54603 0.08937 0.11049 0.0
H480 H 0.64105 0.13004 0.10649 0.0
C481 C 0.54213 0.08823 0.13808 0.0
H482 H 0.58673 0.10425 0.07831 0.0
C483 C 0.57298 0.10364 0.15423 0.0
C484 C 0.60874 0.11968 0.14316 0.0
H485 H 0.51421 0.07781 0.14717 0.0
H486 H 0.56816 0.10447 0.17535 0.0
C487 C 0.61394 0.11783 0.11567 0.0
C488 C 0.15431 0.6744 0.15446 0.0
C489 C 0.16809 0.71112 0.14345 0.0
H490 H 0.12747 0.61608 0.14751 0.0
C491 C 0.16903 0.71506 0.11586 0.0
H492 H 0.15345 0.67037 0.17565 0.0
C493 C 0.1535 0.68423 0.09973 0.0
C494 C 0.13754 0.64845 0.11083 0.0
H495 H 0.17938 0.743 0.10676 0.0
H496 H 0.15253 0.68909 0.07862 0.0
C497 C 0.13961 0.64321 0.13831 0.0
C498 C 0.54234 0.91987 0.36615 0.0
C499 C 0.54615 0.91848 0.39374 0.0
H500 H 0.56852 0.90399 0.32885 0.0
C501 C 0.58281 0.9045 0.40473 0.0
H502 H 0.51446 0.93039 0.35706 0.0
C503 C 0.61408 0.89007 0.38855 0.0
C504 C 0.60899 0.88849 0.36104 0.0
H505 H 0.58674 0.90329 0.42592 0.0
H506 H 0.64117 0.87777 0.39772 0.0
C507 C 0.57326 0.90462 0.34998 0.0
C508 C 0.35313 0.3334 0.65416 0.0
C509 C 0.33941 0.29662 0.64321 0.0
H510 H 0.37977 0.39177 0.64711 0.0
C511 C 0.33834 0.29261 0.61562 0.0
H512 H 0.35407 0.33748 0.67534 0.0
C513 C 0.35371 0.32346 0.59944 0.0
C514 C 0.36963 0.3593 0.61048 0.0
H515 H 0.32804 0.26462 0.60657 0.0
H516 H 0.3546 0.31855 0.57833 0.0
C517 C 0.36766 0.36459 0.63795 0.0
C518 C 0.92414 0.10266 0.9042 0.0
C519 C 0.96095 0.0889 0.8933 0.0
H520 H 0.86581 0.12933 0.89704 0.0
C521 C 0.96504 0.08777 0.86572 0.0
H522 H 0.91999 0.10365 0.92537 0.0
C523 C 0.93426 0.10312 0.84948 0.0
C524 C 0.89839 0.11909 0.86046 0.0
H525 H 0.99305 0.07743 0.85671 0.0
H526 H 0.93922 0.10398 0.82838 0.0
C527 C 0.89301 0.11718 0.88793 0.0
C528 C 0.85375 0.68472 0.5997 0.0
C529 C 0.86981 0.64891 0.61069 0.0
H530 H 0.82799 0.7435 0.60689 0.0
C531 C 0.86805 0.64362 0.63818 0.0
H532 H 0.85449 0.68961 0.57859 0.0
C533 C 0.85355 0.67479 0.65442 0.0
C534 C 0.83968 0.71154 0.6435 0.0
H535 H 0.88028 0.61646 0.6473 0.0
H536 H 0.85465 0.67071 0.6756 0.0
C537 C 0.83842 0.71553 0.61592 0.0
C538 C 0.07352 0.10392 0.34952 0.0
C539 C 0.10934 0.11992 0.36054 0.0
H540 H 0.01471 0.07824 0.35668 0.0
C541 C 0.11462 0.11808 0.38802 0.0
H542 H 0.06864 0.10473 0.32841 0.0
C543 C 0.08343 0.10359 0.40425 0.0
C544 C 0.04667 0.08979 0.39331 0.0
H545 H 0.14178 0.13025 0.39716 0.0
H546 H 0.0875 0.10463 0.42543 0.0
C547 C 0.04268 0.0886 0.36573 0.0
C548 C 0.64079 0.36458 0.13766 0.0
C549 C 0.6389 0.3593 0.11018 0.0
H550 H 0.65423 0.33744 0.17506 0.0
C551 C 0.65486 0.32346 0.09915 0.0
H552 H 0.62867 0.39177 0.14681 0.0
C553 C 0.67013 0.29259 0.11535 0.0
C554 C 0.66895 0.29656 0.14293 0.0
H555 H 0.65402 0.31858 0.07804 0.0
H556 H 0.68044 0.26459 0.1063 0.0
C557 C 0.65526 0.33337 0.15388 0.0
C558 C 0.42454 0.90464 0.90432 0.0
C559 C 0.46126 0.91846 0.89333 0.0
H560 H 0.36617 0.87795 0.89731 0.0
C561 C 0.46515 0.91966 0.86574 0.0
H562 H 0.42054 0.9036 0.9255 0.0
C563 C 0.43427 0.90433 0.84958 0.0
C564 C 0.39849 0.88831 0.86064 0.0
H565 H 0.49309 0.93005 0.85666 0.0
H566 H 0.43909 0.90354 0.82846 0.0
C567 C 0.3933 0.89014 0.88813 0.0
C568 C 0.8678 0.36397 0.8659 0.0
C569 C 0.86959 0.35868 0.89339 0.0
H570 H 0.85431 0.3369 0.82849 0.0
C571 C 0.85353 0.32289 0.9044 0.0
H572 H 0.88002 0.39112 0.85677 0.0
C573 C 0.83816 0.29209 0.88818 0.0
C574 C 0.83936 0.29608 0.8606 0.0
H575 H 0.85431 0.31799 0.9255 0.0
H576 H 0.82773 0.26413 0.89722 0.0
C577 C 0.85325 0.33282 0.84967 0.0
C578 C 0.39379 0.11772 0.61597 0.0
C579 C 0.39903 0.11965 0.64345 0.0
H580 H 0.42096 0.10411 0.5786 0.0
C581 C 0.43482 0.10366 0.65452 0.0
H582 H 0.36665 0.12989 0.6068 0.0
C583 C 0.46567 0.08825 0.63836 0.0
C584 C 0.46173 0.08934 0.61078 0.0
H585 H 0.43967 0.10453 0.67563 0.0
H586 H 0.49362 0.07788 0.64744 0.0
C587 C 0.42499 0.10313 0.59979 0.0
C588 C 0.65528 0.67501 0.35001 0.0
C589 C 0.66906 0.71174 0.36101 0.0
H590 H 0.62859 0.61665 0.357 0.0
C591 C 0.67025 0.71563 0.3886 0.0
H592 H 0.65425 0.67102 0.32883 0.0
C593 C 0.65491 0.68473 0.40475 0.0
C594 C 0.63889 0.64897 0.39367 0.0
H595 H 0.68061 0.74357 0.39769 0.0
H596 H 0.65409 0.68955 0.42587 0.0
C597 C 0.64077 0.64378 0.36619 0.0
C598 C 0.11428 0.88988 0.11601 0.0
C599 C 0.10915 0.88821 0.14351 0.0
H600 H 0.087 0.90321 0.07864 0.0
C601 C 0.07345 0.9044 0.15457 0.0
H602 H 0.14136 0.87756 0.10684 0.0
C603 C 0.04256 0.91973 0.1384 0.0
C604 C 0.04639 0.91836 0.11082 0.0
H605 H 0.06867 0.90372 0.1757 0.0
H606 H 0.01467 0.93023 0.14749 0.0
C607 C 0.08305 0.9044 0.09982 0.0
C608 C 0.65509 0.83316 0.84984 0.0
C609 C 0.66881 0.79639 0.86082 0.0
H610 H 0.62836 0.89151 0.85685 0.0
C611 C 0.66983 0.79241 0.88841 0.0
H612 H 0.65419 0.83723 0.82866 0.0
C613 C 0.6544 0.82325 0.90457 0.0
C614 C 0.63845 0.85906 0.8935 0.0
H615 H 0.68014 0.76443 0.89748 0.0
H616 H 0.65346 0.81836 0.92567 0.0
C617 C 0.64048 0.86435 0.86602 0.0
C618 C 0.46552 0.41931 0.13784 0.0
C619 C 0.4617 0.41791 0.11025 0.0
H620 H 0.43941 0.40336 0.17514 0.0
C621 C 0.42508 0.40382 0.09926 0.0
H622 H 0.49337 0.42991 0.14692 0.0
C623 C 0.39386 0.3893 0.11546 0.0
C624 C 0.39897 0.38775 0.14296 0.0
H625 H 0.42114 0.4026 0.07807 0.0
H626 H 0.3668 0.37693 0.10629 0.0
C627 C 0.43465 0.40397 0.15401 0.0
C628 C 0.86762 0.14376 0.36604 0.0
C629 C 0.86967 0.14922 0.3935 0.0
H630 H 0.85385 0.17063 0.3286 0.0
C631 C 0.85376 0.18512 0.40448 0.0
H632 H 0.87971 0.11653 0.35694 0.0
C633 C 0.83829 0.21584 0.38823 0.0
C634 C 0.83925 0.21167 0.36066 0.0
H635 H 0.85473 0.19014 0.42557 0.0
H636 H 0.82798 0.24388 0.39723 0.0
C637 C 0.85298 0.17484 0.34978 0.0
C638 C 0.11455 0.61771 0.61595 0.0
C639 C 0.1093 0.61946 0.64343 0.0
H640 H 0.0874 0.60432 0.57854 0.0
C641 C 0.07353 0.60337 0.65445 0.0
H642 H 0.14168 0.62996 0.60681 0.0
C643 C 0.04269 0.58803 0.63825 0.0
C644 C 0.04664 0.58931 0.61066 0.0
H645 H 0.06867 0.6041 0.67557 0.0
H646 H 0.01475 0.57759 0.6473 0.0
C647 C 0.08336 0.6032 0.59972 0.0
C648 C 0.65472 0.18447 0.59951 0.0
C649 C 0.63873 0.14868 0.61058 0.0
H650 H 0.68041 0.2433 0.60658 0.0
C651 C 0.6406 0.14348 0.63807 0.0
H652 H 0.65389 0.1893 0.5784 0.0
C653 C 0.65512 0.17471 0.65425 0.0
C654 C 0.66889 0.21145 0.64326 0.0
H655 H 0.62844 0.11634 0.64725 0.0
H656 H 0.6541 0.1707 0.67544 0.0
C657 C 0.67006 0.21535 0.61567 0.0
C658 C 0.07329 0.40408 0.84962 0.0
C659 C 0.10911 0.3881 0.86066 0.0
H660 H 0.01448 0.4298 0.85675 0.0
C661 C 0.11439 0.39001 0.88814 0.0
H662 H 0.0684 0.40322 0.82852 0.0
C663 C 0.0832 0.40456 0.90435 0.0
C664 C 0.04644 0.41832 0.8934 0.0
H665 H 0.14156 0.37786 0.89729 0.0
H666 H 0.08727 0.40356 0.92553 0.0
C667 C 0.04245 0.41945 0.86581 0.0
C668 C 0.85329 0.82284 0.10015 0.0
C669 C 0.86978 0.85844 0.11115 0.0
H670 H 0.82716 0.76423 0.10733 0.0
C671 C 0.86858 0.86351 0.13866 0.0
H672 H 0.85363 0.81812 0.07902 0.0
C673 C 0.85412 0.83233 0.15491 0.0
C674 C 0.83972 0.7958 0.14397 0.0
H675 H 0.88118 0.8905 0.14777 0.0
H676 H 0.8556 0.83625 0.17609 0.0
C677 C 0.83799 0.79202 0.11639 0.0
C678 C 0.42501 0.60392 0.40456 0.0
C679 C 0.46168 0.58999 0.39354 0.0
H680 H 0.36667 0.63071 0.39759 0.0
C681 C 0.4655 0.58875 0.36595 0.0
H682 H 0.42107 0.60502 0.42575 0.0
C683 C 0.4346 0.6041 0.34981 0.0
C684 C 0.39887 0.62018 0.3609 0.0
H685 H 0.49339 0.57828 0.35685 0.0
H686 H 0.43936 0.60483 0.32869 0.0
C687 C 0.39376 0.61845 0.3884 0.0
C688 C 0.35285 0.18408 0.09929 0.0
C689 C 0.36887 0.14828 0.11034 0.0
H690 H 0.3272 0.24292 0.10641 0.0
C691 C 0.36702 0.14304 0.13782 0.0
H692 H 0.35365 0.18893 0.07818 0.0
C693 C 0.35254 0.17426 0.15403 0.0
C694 C 0.33878 0.21103 0.14306 0.0
H695 H 0.3792 0.11589 0.14698 0.0
H696 H 0.35361 0.17024 0.17521 0.0
C697 C 0.33755 0.21496 0.11548 0.0
C698 C 0.58292 0.60324 0.90426 0.0
C699 C 0.54621 0.58943 0.89324 0.0
H700 H 0.6413 0.62993 0.89729 0.0
C701 C 0.54235 0.58826 0.86565 0.0
H702 H 0.58689 0.60428 0.92545 0.0
C703 C 0.57327 0.60358 0.84951 0.0
C704 C 0.60904 0.61958 0.8606 0.0
H705 H 0.51443 0.57787 0.85655 0.0
H706 H 0.56848 0.60439 0.82839 0.0
C707 C 0.61418 0.61775 0.8881 0.0
C708 C 0.16976 0.79249 0.61579 0.0
C709 C 0.16861 0.79645 0.64338 0.0
H710 H 0.15358 0.81848 0.5785 0.0
C711 C 0.15483 0.8332 0.65434 0.0
H712 H 0.18012 0.76452 0.60673 0.0
C713 C 0.14031 0.86441 0.63813 0.0
C714 C 0.13844 0.85916 0.61065 0.0
H715 H 0.15382 0.83725 0.67552 0.0
H716 H 0.12815 0.89157 0.64729 0.0
C717 C 0.15442 0.82335 0.59961 0.0
C718 C 0.96509 0.41984 0.36536 0.0
C719 C 0.96108 0.4188 0.39294 0.0
H720 H 0.93917 0.40353 0.32807 0.0
C721 C 0.92428 0.4051 0.40389 0.0
H722 H 0.99309 0.43013 0.3563 0.0
C723 C 0.8931 0.39055 0.38769 0.0
C724 C 0.89841 0.38855 0.36021 0.0
H725 H 0.92019 0.40418 0.42507 0.0
H726 H 0.86592 0.37845 0.39685 0.0
C727 C 0.93426 0.40446 0.34917 0.0
C728 C 0.33753 0.7929 0.38862 0.0
C729 C 0.33867 0.79693 0.36104 0.0
H730 H 0.35374 0.81879 0.42593 0.0
C731 C 0.3524 0.83372 0.35011 0.0
H732 H 0.3272 0.76491 0.39765 0.0
C733 C 0.36693 0.86489 0.36634 0.0
C734 C 0.36887 0.85955 0.39381 0.0
H735 H 0.3534 0.83782 0.32893 0.0
H736 H 0.37908 0.89207 0.3572 0.0
C737 C 0.35287 0.82372 0.40483 0.0
C738 C 0.92375 0.60215 0.1004 0.0
C739 C 0.96055 0.58836 0.1113 0.0
H740 H 0.86544 0.62887 0.10754 0.0
C741 C 0.96459 0.58711 0.13888 0.0
H742 H 0.91963 0.60322 0.07923 0.0
C743 C 0.93379 0.60244 0.15512 0.0
C744 C 0.89797 0.61851 0.14414 0.0
H745 H 0.99258 0.57672 0.14789 0.0
H746 H 0.93873 0.60324 0.17622 0.0
C747 C 0.89261 0.61666 0.11666 0.0
C748 C 0.16912 0.21527 0.88856 0.0
C749 C 0.16832 0.21114 0.86098 0.0
H750 H 0.15254 0.18947 0.92583 0.0
C751 C 0.15473 0.1743 0.85004 0.0
H752 H 0.17931 0.24331 0.8976 0.0
C753 C 0.14008 0.14316 0.86625 0.0
C754 C 0.13786 0.14856 0.89371 0.0
H755 H 0.15398 0.17013 0.82886 0.0
H756 H 0.1281 0.11592 0.85709 0.0
C757 C 0.15364 0.18448 0.90474 0.0
C758 C 0.58336 0.40486 0.59965 0.0
C759 C 0.54663 0.41871 0.61063 0.0
H760 H 0.64169 0.3781 0.60669 0.0
C761 C 0.54271 0.4199 0.63821 0.0
H762 H 0.58738 0.40382 0.57847 0.0
C763 C 0.57356 0.40453 0.65439 0.0
C764 C 0.60933 0.38848 0.64334 0.0
H765 H 0.51477 0.43031 0.64729 0.0
H766 H 0.56872 0.40373 0.67551 0.0
C767 C 0.61456 0.39032 0.61585 0.0
C768 C 0.22534 0.25309 0.2316 0.0
C769 C 0.261 0.27603 0.22832 0.0
H770 H 0.19074 0.21399 0.25682 0.0
C771 C 0.28972 0.27681 0.24884 0.0
H772 H 0.20262 0.25191 0.21616 0.0
C773 C 0.28291 0.25513 0.27216 0.0
C774 C 0.24724 0.23219 0.27543 0.0
H775 H 0.3175 0.29423 0.24692 0.0
H776 H 0.30562 0.25631 0.28759 0.0
C777 C 0.21853 0.2314 0.25491 0.0
C778 C 0.02693 0.96873 0.50507 0.0
C779 C 0.02611 0.99732 0.52567 0.0
H780 H 0.00647 0.95305 0.46628 0.0
C781 C 1.00314 0.03299 0.52248 0.0
H782 H 0.04437 0.94094 0.50692 0.0
C783 C 0.98146 0.03993 0.49917 0.0
C784 C 0.98228 0.01134 0.47858 0.0
H785 H 1.00193 0.05561 0.53797 0.0
H786 H 0.96402 0.06771 0.49732 0.0
C787 C 0.00525 0.97567 0.48177 0.0
C788 C 0.2825 0.75509 0.73178 0.0
C789 C 0.24695 0.73197 0.72857 0.0
H790 H 0.31696 0.79442 0.75694 0.0
C791 C 0.21828 0.73109 0.74912 0.0
H792 H 0.30517 0.75635 0.71633 0.0
C793 C 0.22504 0.75287 0.77241 0.0
C794 C 0.2606 0.77599 0.77562 0.0
H795 H 0.19058 0.71353 0.74725 0.0
H796 H 0.20237 0.7516 0.78787 0.0
C797 C 0.28926 0.77687 0.75507 0.0
C798 C 0.5049 0.97506 0.02225 0.0
C799 C 0.48175 0.01061 0.02543 0.0
H800 H 0.54427 0.94058 0.99712 0.0
C801 C 0.48083 0.03923 0.00485 0.0
H802 H 0.50619 0.95243 0.03773 0.0
C803 C 0.50262 0.03244 0.98157 0.0
C804 C 0.52577 0.99689 0.97839 0.0
H805 H 0.46325 0.06692 0.0067 0.0
H806 H 0.50133 0.05508 0.96609 0.0
C807 C 0.52668 0.96828 0.99897 0.0
C808 C 0.22506 0.75482 0.2724 0.0
C809 C 0.26076 0.73194 0.27569 0.0
H810 H 0.1904 0.79384 0.24714 0.0
C811 C 0.28946 0.73113 0.25516 0.0
H812 H 0.20235 0.75603 0.28784 0.0
C813 C 0.28261 0.75274 0.23182 0.0
C814 C 0.24692 0.77564 0.22854 0.0
H815 H 0.31727 0.71375 0.25709 0.0
H816 H 0.30531 0.75154 0.21638 0.0
C817 C 0.21821 0.77645 0.24906 0.0
C818 C 0.5051 0.03261 0.48191 0.0
C819 C 0.48189 0.99711 0.47876 0.0
H820 H 0.54459 0.06704 0.50698 0.0
C821 C 0.48099 0.9685 0.49934 0.0
H822 H 0.50638 0.05524 0.46642 0.0
C823 C 0.50286 0.97525 0.52259 0.0
C824 C 0.52607 0.01076 0.52574 0.0
H825 H 0.46336 0.94083 0.49751 0.0
H826 H 0.50158 0.95263 0.53808 0.0
C827 C 0.52696 0.03937 0.50516 0.0
C828 C 0.28264 0.25261 0.77239 0.0
C829 C 0.24698 0.27556 0.77562 0.0
H830 H 0.31735 0.21359 0.74717 0.0
C831 C 0.21837 0.27646 0.75504 0.0
H832 H 0.30528 0.25135 0.78787 0.0
C833 C 0.22529 0.25486 0.7317 0.0
C834 C 0.26096 0.23191 0.72847 0.0
H835 H 0.19058 0.29389 0.75692 0.0
H836 H 0.20266 0.25613 0.71622 0.0
C837 C 0.28956 0.23102 0.74905 0.0
C838 C 1.00241 0.97474 0.98181 0.0
C839 C 0.02533 0.01044 0.97859 0.0
H840 H 0.96331 0.94003 0.00698 0.0
C841 C 0.02607 0.03908 0.99915 0.0
H842 H 1.00126 0.95208 0.96634 0.0
C843 C 0.00437 0.03217 0.02245 0.0
C844 C 0.98146 0.99648 0.02567 0.0
H845 H 0.04347 0.06689 0.99729 0.0
H846 H 0.00553 0.05484 0.03791 0.0
C847 C 0.9807 0.96784 0.00511 0.0
C848 C 0.72555 0.75282 0.73189 0.0
C849 C 0.76116 0.77587 0.72872 0.0
H850 H 0.69095 0.71353 0.75699 0.0
C851 C 0.78978 0.77667 0.7493 0.0
H852 H 0.70292 0.75161 0.71641 0.0
C853 C 0.78292 0.75488 0.77257 0.0
C854 C 0.7473 0.73183 0.77574 0.0
H855 H 0.81752 0.79417 0.74746 0.0
H856 H 0.80555 0.75608 0.78806 0.0
C857 C 0.71869 0.73103 0.75516 0.0
C858 C 0.71808 0.23111 0.24879 0.0
C859 C 0.74676 0.23185 0.22825 0.0
H860 H 0.70221 0.25171 0.28752 0.0
C861 C 0.78242 0.25482 0.23148 0.0
H862 H 0.69029 0.21368 0.24691 0.0
C863 C 0.78924 0.27658 0.25476 0.0
C864 C 0.76056 0.27583 0.2753 0.0
H865 H 0.80511 0.25598 0.21603 0.0
H866 H 0.81702 0.29401 0.25664 0.0
C867 C 0.7249 0.25286 0.27208 0.0
C868 C 0.78945 0.231 0.75483 0.0
C869 C 0.76082 0.23189 0.77539 0.0
H870 H 0.80534 0.25153 0.71608 0.0
C871 C 0.72528 0.25506 0.7722 0.0
H872 H 0.81714 0.2134 0.75668 0.0
C873 C 0.71852 0.27687 0.74893 0.0
C874 C 0.74715 0.27597 0.72836 0.0
H875 H 0.70263 0.25634 0.78767 0.0
H876 H 0.69083 0.29446 0.74708 0.0
C877 C 0.78269 0.25281 0.73155 0.0
C878 C 0.71843 0.77723 0.25539 0.0
C879 C 0.74705 0.77636 0.27596 0.0
H880 H 0.70251 0.75656 0.21668 0.0
C881 C 0.78255 0.75311 0.27282 0.0
H882 H 0.69078 0.79489 0.2572 0.0
C883 C 0.78926 0.73116 0.24959 0.0
C884 C 0.76063 0.73203 0.22902 0.0
H885 H 0.80518 0.75184 0.2883 0.0
H886 H 0.81691 0.7135 0.24778 0.0
C887 C 0.72515 0.7553 0.23216 0.0
C888 C 0.52732 0.46873 0.00459 0.0
C889 C 0.52598 0.49707 0.02532 0.0
H890 H 0.50716 0.45311 0.96572 0.0
C891 C 0.50239 0.53236 0.02228 0.0
H892 H 0.54526 0.44124 0.00632 0.0
C893 C 0.48059 0.53916 0.99901 0.0
C894 C 0.48193 0.51081 0.97829 0.0
H895 H 0.50075 0.55478 0.03788 0.0
H896 H 0.46265 0.56665 0.99728 0.0
C897 C 0.50552 0.47553 0.98132 0.0
C898 C 0.02641 0.46851 0.49881 0.0
C899 C 0.02553 0.49716 0.47825 0.0
H900 H 0.00606 0.45272 0.5376 0.0
C901 C 1.00255 0.53281 0.4815 0.0
H902 H 0.04386 0.44074 0.49691 0.0
C903 C 0.98093 0.53968 0.50483 0.0
C904 C 0.98183 0.51103 0.52539 0.0
H905 H 1.0013 0.55547 0.46603 0.0
H906 H 0.96349 0.56745 0.50673 0.0
C907 C 0.00479 0.47538 0.52214 0.0
C908 C 0.026 0.53917 0.00532 0.0
C909 C 0.02526 0.51044 0.02584 0.0
H910 H 0.00555 0.55502 0.96656 0.0
C911 C 1.00245 0.47471 0.02254 0.0
H912 H 0.04332 0.56701 0.00726 0.0
C913 C 0.98084 0.46783 0.9992 0.0
C914 C 0.98159 0.49656 0.97868 0.0
H915 H 1.0013 0.45198 0.03797 0.0
H916 H 0.96352 0.43999 0.99726 0.0
C917 C 0.0044 0.53229 0.98199 0.0
C918 C 0.50297 0.47553 0.48165 0.0
C919 C 0.52612 0.51108 0.47849 0.0
H920 H 0.46364 0.44099 0.50676 0.0
C921 C 0.52704 0.53965 0.49909 0.0
H922 H 0.50167 0.45293 0.46615 0.0
C923 C 0.50528 0.53282 0.52237 0.0
C924 C 0.48214 0.49726 0.52553 0.0
H925 H 0.54462 0.56735 0.49726 0.0
H926 H 0.50658 0.55542 0.53787 0.0
C927 C 0.48121 0.46869 0.50493 0.0
C928 C 0.3197 0.07886 0.34991 0.0
C929 C 0.29612 0.10296 0.36695 0.0
H930 H 0.366 0.03324 0.34642 0.0
C931 C 0.30104 0.09849 0.39429 0.0
H932 H 0.31669 0.08181 0.32872 0.0
C933 C 0.32864 0.07009 0.40439 0.0
C934 C 0.35257 0.04635 0.38734 0.0
H935 H 0.28323 0.11659 0.40788 0.0
H936 H 0.33165 0.06713 0.42557 0.0
C937 C 0.34802 0.05118 0.36 0.0
C938 C 0.17954 0.06961 0.59981 0.0
C939 C 0.15561 0.046 0.61693 0.0
H940 H 0.22502 0.11601 0.59617 0.0
C941 C 0.16025 0.05093 0.64425 0.0
H942 H 0.17646 0.06657 0.57863 0.0
C943 C 0.18865 0.0786 0.65426 0.0
C944 C 0.21221 0.10259 0.63714 0.0
H945 H 0.14227 0.0331 0.65789 0.0
H946 H 0.19172 0.08165 0.67543 0.0
C947 C 0.20722 0.098 0.60981 0.0
C948 C 0.20671 0.90987 0.89436 0.0
C949 C 0.21166 0.90534 0.86702 0.0
H950 H 0.17595 0.9412 0.92559 0.0
C951 C 0.18804 0.92933 0.84994 0.0
H952 H 0.22455 0.89184 0.90797 0.0
C953 C 0.15962 0.95695 0.85999 0.0
C954 C 0.15501 0.96182 0.88732 0.0
H955 H 0.19108 0.92633 0.82876 0.0
H956 H 0.1416 0.97479 0.84637 0.0
C957 C 0.17901 0.93821 0.90441 0.0
C958 C 0.31956 0.92878 0.15416 0.0
C959 C 0.29596 0.90478 0.13708 0.0
H960 H 0.3659 0.97434 0.15772 0.0
C961 C 0.30088 0.90934 0.10975 0.0
H962 H 0.31654 0.92576 0.17534 0.0
C963 C 0.32851 0.93774 0.0997 0.0
C964 C 0.35246 0.9614 0.11678 0.0
H965 H 0.28305 0.8913 0.09613 0.0
H966 H 0.33153 0.94077 0.07852 0.0
C967 C 0.34791 0.95647 0.14411 0.0
C968 C 0.68857 0.92934 0.65448 0.0
C969 C 0.71221 0.90536 0.6374 0.0
H970 H 0.64214 0.97482 0.65803 0.0
C971 C 0.7073 0.90992 0.61007 0.0
H972 H 0.69159 0.92632 0.67566 0.0
C973 C 0.67962 0.93827 0.60001 0.0
C974 C 0.65561 0.96189 0.61709 0.0
H975 H 0.72516 0.8919 0.59646 0.0
H976 H 0.6766 0.94128 0.57883 0.0
C977 C 0.66018 0.95698 0.64442 0.0
C978 C 0.82892 0.93871 0.40453 0.0
C979 C 0.85266 0.9625 0.3874 0.0
H980 H 0.78356 0.8922 0.40818 0.0
C981 C 0.84777 0.95778 0.36007 0.0
H982 H 0.8322 0.94158 0.4257 0.0
C983 C 0.81932 0.93015 0.35008 0.0
C984 C 0.79595 0.90598 0.36721 0.0
H985 H 0.86559 0.97576 0.34642 0.0
H986 H 0.81606 0.92727 0.32891 0.0
C987 C 0.80119 0.91036 0.39453 0.0
C988 C 0.81915 0.07818 0.15427 0.0
C989 C 0.79558 0.10209 0.13711 0.0
H990 H 0.86553 0.03267 0.15798 0.0
C991 C 0.80054 0.09736 0.10979 0.0
H992 H 0.81611 0.08134 0.17544 0.0
C993 C 0.82819 0.0689 0.09983 0.0
C994 C 0.85214 0.04536 0.11699 0.0
H995 H 0.78273 0.11532 0.09612 0.0
H996 H 0.83125 0.06576 0.07866 0.0
C997 C 0.84753 0.05044 0.14431 0.0
C998 C 0.65954 0.0509 0.85968 0.0
C999 C 0.65511 0.04586 0.88701 0.0
H1000 H 0.69082 0.08169 0.82844 0.0
C1001 C 0.67921 0.06938 0.90409 0.0
H1002 H 0.64143 0.03315 0.84607 0.0
C1003 C 0.70685 0.09777 0.89404 0.0
C1004 C 0.71163 0.10245 0.8667 0.0
H1005 H 0.67629 0.06627 0.92527 0.0
H1006 H 0.72478 0.1157 0.90765 0.0
C1007 C 0.6879 0.07857 0.84962 0.0
C1008 C 0.81951 0.57827 0.84993 0.0
C1009 C 0.79588 0.60221 0.86704 0.0
H1010 H 0.8659 0.53276 0.84632 0.0
C1011 C 0.80077 0.59755 0.89437 0.0
H1012 H 0.81652 0.58137 0.82875 0.0
C1013 C 0.82841 0.56912 0.90439 0.0
C1014 C 0.85241 0.54555 0.88728 0.0
H1015 H 0.78292 0.61553 0.908 0.0
H1016 H 0.83142 0.56602 0.92556 0.0
C1017 C 0.84787 0.55056 0.85995 0.0
C1018 C 0.68761 0.57856 0.15451 0.0
C1019 C 0.7113 0.60266 0.13753 0.0
H1020 H 0.64128 0.53296 0.15787 0.0
C1021 C 0.70651 0.59825 0.11018 0.0
H1022 H 0.69053 0.58146 0.1757 0.0
C1023 C 0.67894 0.5699 0.1 0.0
C1024 C 0.65492 0.54613 0.11698 0.0
H1025 H 0.7244 0.61636 0.09664 0.0
H1026 H 0.67604 0.56699 0.07881 0.0
C1027 C 0.65933 0.55092 0.14433 0.0
C1028 C 0.7068 0.40998 0.39397 0.0
C1029 C 0.71167 0.40543 0.36663 0.0
H1030 H 0.67625 0.44141 0.42523 0.0
C1031 C 0.68807 0.4295 0.34957 0.0
H1032 H 0.72463 0.3919 0.40756 0.0
C1033 C 0.65977 0.45722 0.35966 0.0
C1034 C 0.65527 0.46212 0.387 0.0
H1035 H 0.69105 0.42649 0.32839 0.0
H1036 H 0.64177 0.47512 0.34607 0.0
C1037 C 0.67923 0.43841 0.40405 0.0
C1038 C 0.8481 0.4571 0.64413 0.0
C1039 C 0.85269 0.46206 0.61681 0.0
H1040 H 0.81669 0.42637 0.67534 0.0
C1041 C 0.82873 0.43845 0.5997 0.0
H1042 H 0.8661 0.47494 0.65776 0.0
C1043 C 0.80108 0.41005 0.60973 0.0
C1044 C 0.79614 0.40545 0.63705 0.0
H1045 H 0.83177 0.4415 0.57852 0.0
H1046 H 0.78326 0.39203 0.5961 0.0
C1047 C 0.81973 0.42942 0.65416 0.0
C1048 C 0.17893 0.43816 0.09978 0.0
C1049 C 0.15506 0.46175 0.11696 0.0
H1050 H 0.22448 0.39183 0.09605 0.0
C1051 C 0.15992 0.45688 0.14427 0.0
H1052 H 0.17568 0.44115 0.07861 0.0
C1053 C 0.18846 0.42929 0.15421 0.0
C1054 C 0.21195 0.40532 0.13704 0.0
H1055 H 0.142 0.4747 0.15795 0.0
H1056 H 0.19169 0.42629 0.17538 0.0
C1057 C 0.20675 0.40985 0.10973 0.0
C1058 C 0.3288 0.43782 0.90418 0.0
C1059 C 0.3525 0.46166 0.88705 0.0
H1060 H 0.28354 0.39122 0.90784 0.0
C1061 C 0.34766 0.45688 0.85973 0.0
H1062 H 0.33204 0.44073 0.92535 0.0
C1063 C 0.31929 0.42916 0.84974 0.0
C1064 C 0.29595 0.40498 0.86687 0.0
H1065 H 0.36546 0.47489 0.84608 0.0
H1066 H 0.31606 0.42626 0.82856 0.0
C1067 C 0.30115 0.4094 0.89419 0.0
C1068 C 0.32885 0.56984 0.59982 0.0
C1069 C 0.35272 0.5461 0.6169 0.0
H1070 H 0.28343 0.61631 0.59626 0.0
C1071 C 0.34803 0.55087 0.64423 0.0
H1072 H 0.33199 0.56693 0.57864 0.0
C1073 C 0.31963 0.57852 0.65429 0.0
C1074 C 0.29612 0.60262 0.6372 0.0
H1075 H 0.36596 0.53293 0.65785 0.0
H1076 H 0.3165 0.58143 0.67546 0.0
C1077 C 0.30118 0.5982 0.60987 0.0
C1078 C 0.17876 0.56994 0.40424 0.0
C1079 C 0.1551 0.54613 0.38708 0.0
H1080 H 0.2241 0.61647 0.40795 0.0
C1081 C 0.16009 0.55083 0.35977 0.0
H1082 H 0.1754 0.56709 0.42541 0.0
C1083 C 0.18858 0.57846 0.34981 0.0
C1084 C 0.21187 0.60264 0.36697 0.0
H1085 H 0.14233 0.53283 0.3461 0.0
H1086 H 0.19192 0.58131 0.32864 0.0
C1087 C 0.20652 0.59829 0.39428 0.0
loop_
_geom_bond_atom_site_label_1
_geom_bond_atom_site_label_2
_geom_bond_distance
_geom_bond_site_symmetry_2
_ccdc_geom_bond_type
Co0 O1 2.216 . S
Co0 O2 2.091 . S
Co0 O4 2.004 . S
Co0 O10 2.021 . S
Co0 O12 2.137 . S
Co0 O13 2.244 . S
O1 Co0 2.216 . S
O1 C8 1.247 . S
O2 Co0 2.091 . S
O2 C8 1.261 . S
C3 O12 1.247 . S
C3 O13 1.272 . S
O4 Co0 2.004 . S
O4 C9 1.259 . S
Co5 O6 2.061 . S
Co5 O11 2.052 . S
Co5 O13 2.135 . S
O6 Co5 2.061 . S
O6 C9 1.235 . S
C7 O10 1.238 . S
C7 O11 1.241 . S
C8 O1 1.247 . S
C8 O2 1.261 . S
C9 O4 1.259 . S
C9 O6 1.235 . S
O10 Co0 2.021 . S
O10 C7 1.238 . S
O11 Co5 2.052 . S
O11 C7 1.241 . S
O12 Co0 2.137 . S
O12 C3 1.247 . S
O13 Co0 2.244 . S
O13 C3 1.272 . S
O13 Co5 2.135 . S
Co14 O15 2.216 1_565 S
Co14 O16 2.091 1_565 S
Co14 O18 1.988 1_455 S
Co14 O24 2.021 . S
Co14 O26 2.137 1_565 S
Co14 O27 2.244 . S
O15 Co14 2.216 1_545 S
O15 C22 1.247 . S
O16 Co14 2.091 1_545 S
O16 C22 1.261 . S
C17 O26 1.247 1_565 S
C17 O27 1.272 . S
O18 Co14 1.988 1_655 S
O18 C23 1.269 . S
Co19 O20 2.061 1_455 S
Co19 O25 2.052 . S
Co19 O27 2.135 . S
O20 Co19 2.061 1_655 S
O20 C23 1.235 . S
C21 O24 1.238 . S
C21 O25 1.241 . S
C22 O15 1.247 . S
C22 O16 1.261 . S
C23 O18 1.269 . S
C23 O20 1.235 . S
O24 Co14 2.021 . S
O24 C21 1.238 . S
O25 Co19 2.052 . S
O25 C21 1.241 . S
O26 Co14 2.137 1_545 S
O26 C17 1.247 1_545 S
O27 Co14 2.244 . S
O27 C17 1.272 . S
O27 Co19 2.135 . S
Co28 O29 2.216 . S
Co28 O30 2.091 . S
Co28 O32 2.004 . S
Co28 O38 2.021 . S
Co28 O40 2.137 . S
Co28 O41 2.244 . S
O29 Co28 2.216 . S
O29 C36 1.247 . S
O30 Co28 2.091 . S
O30 C36 1.261 . S
C31 O40 1.247 . S
C31 O41 1.272 . S
O32 Co28 2.004 . S
O32 C37 1.259 . S
Co33 O34 2.061 . S
Co33 O39 2.052 . S
Co33 O41 2.135 . S
O34 Co33 2.061 . S
O34 C37 1.235 . S
C35 O38 1.238 . S
C35 O39 1.241 . S
C36 O29 1.247 . S
C36 O30 1.261 . S
C37 O32 1.259 . S
C37 O34 1.235 . S
O38 Co28 2.021 . S
O38 C35 1.238 . S
O39 Co33 2.052 . S
O39 C35 1.241 . S
O40 Co28 2.137 . S
O40 C31 1.247 . S
O41 Co28 2.244 . S
O41 C31 1.272 . S
O41 Co33 2.135 . S
Co42 O43 2.216 1_545 S
Co42 O44 2.091 1_545 S
Co42 O46 2.004 . S
Co42 O52 2.021 . S
Co42 O54 2.137 1_545 S
Co42 O55 2.244 . S
O43 Co42 2.216 1_565 S
O43 C50 1.247 . S
O44 Co42 2.091 1_565 S
O44 C50 1.261 . S
C45 O54 1.247 1_545 S
C45 O55 1.272 . S
O46 Co42 2.004 . S
O46 C51 1.259 . S
Co47 O48 2.061 . S
Co47 O53 2.052 . S
Co47 O55 2.135 . S
O48 Co47 2.061 . S
O48 C51 1.235 . S
C49 O52 1.238 . S
C49 O53 1.241 . S
C50 O43 1.247 . S
C50 O44 1.261 . S
C51 O46 1.259 . S
C51 O48 1.235 . S
O52 Co42 2.021 . S
O52 C49 1.238 . S
O53 Co47 2.052 . S
O53 C49 1.241 . S
O54 Co42 2.137 1_565 S
O54 C45 1.247 1_565 S
O55 Co42 2.244 . S
O55 C45 1.272 . S
O55 Co47 2.135 . S
Co56 O57 2.216 . S
Co56 O58 2.091 . S
Co56 O60 2.004 . S
Co56 O66 2.021 . S
Co56 O68 2.137 . S
Co56 O69 2.244 . S
O57 Co56 2.216 . S
O57 C64 1.247 . S
O58 Co56 2.091 . S
O58 C64 1.261 . S
C59 O68 1.247 . S
C59 O69 1.272 . S
O60 Co56 2.004 . S
O60 C65 1.259 . S
Co61 O62 2.061 . S
Co61 O67 2.052 . S
Co61 O69 2.135 . S
O62 Co61 2.061 . S
O62 C65 1.235 . S
C63 O66 1.238 . S
C63 O67 1.241 . S
C64 O57 1.247 . S
C64 O58 1.261 . S
C65 O60 1.259 . S
C65 O62 1.235 . S
O66 Co56 2.021 . S
O66 C63 1.238 . S
O67 Co61 2.052 . S
O67 C63 1.241 . S
O68 Co56 2.137 . S
O68 C59 1.247 . S
O69 Co56 2.244 . S
O69 C59 1.272 . S
O69 Co61 2.135 . S
Co70 O71 2.216 1_565 S
Co70 O72 2.091 1_565 S
Co70 O74 2.004 . S
Co70 O80 2.021 . S
Co70 O82 2.137 1_565 S
Co70 O83 2.244 . S
O71 Co70 2.216 1_545 S
O71 C78 1.247 . S
O72 Co70 2.091 1_545 S
O72 C78 1.261 . S
C73 O82 1.247 1_565 S
C73 O83 1.272 . S
O74 Co70 2.004 . S
O74 C79 1.259 . S
Co75 O76 2.061 . S
Co75 O81 2.052 . S
Co75 O83 2.135 . S
O76 Co75 2.061 . S
O76 C79 1.235 . S
C77 O80 1.238 . S
C77 O81 1.241 . S
C78 O71 1.247 . S
C78 O72 1.261 . S
C79 O74 1.259 . S
C79 O76 1.235 . S
O80 Co70 2.021 . S
O80 C77 1.238 . S
O81 Co75 2.052 . S
O81 C77 1.241 . S
O82 Co70 2.137 1_545 S
O82 C73 1.247 1_545 S
O83 Co70 2.244 . S
O83 C73 1.272 . S
O83 Co75 2.135 . S
Co84 O85 2.216 . S
Co84 O86 2.091 . S
Co84 O88 2.004 . S
Co84 O94 2.021 . S
Co84 O96 2.137 . S
Co84 O97 2.244 . S
O85 Co84 2.216 . S
O85 C92 1.247 . S
O86 Co84 2.091 . S
O86 C92 1.261 . S
C87 O96 1.247 . S
C87 O97 1.272 . S
O88 Co84 2.004 . S
O88 C93 1.259 . S
Co89 O90 2.061 . S
Co89 O95 2.052 . S
Co89 O97 2.135 . S
O90 Co89 2.061 . S
O90 C93 1.235 . S
C91 O94 1.238 . S
C91 O95 1.241 . S
C92 O85 1.247 . S
C92 O86 1.261 . S
C93 O88 1.259 . S
C93 O90 1.235 . S
O94 Co84 2.021 . S
O94 C91 1.238 . S
O95 Co89 2.052 . S
O95 C91 1.241 . S
O96 Co84 2.137 . S
O96 C87 1.247 . S
O97 Co84 2.244 . S
O97 C87 1.272 . S
O97 Co89 2.135 . S
Co98 O99 2.216 1_545 S
Co98 O100 2.091 1_545 S
Co98 O102 1.988 1_455 S
Co98 O108 2.021 . S
Co98 O110 2.137 1_545 S
Co98 O111 2.244 . S
O99 Co98 2.216 1_565 S
O99 C106 1.247 . S
O100 Co98 2.091 1_565 S
O100 C106 1.261 . S
C101 O110 1.247 1_545 S
C101 O111 1.272 . S
O102 Co98 1.988 1_655 S
O102 C107 1.269 . S
Co103 O104 2.061 1_455 S
Co103 O109 2.052 . S
Co103 O111 2.135 . S
O104 Co103 2.061 1_655 S
O104 C107 1.235 . S
C105 O108 1.238 . S
C105 O109 1.241 . S
C106 O99 1.247 . S
C106 O100 1.261 . S
C107 O102 1.269 . S
C107 O104 1.235 . S
O108 Co98 2.021 . S
O108 C105 1.238 . S
O109 Co103 2.052 . S
O109 C105 1.241 . S
O110 Co98 2.137 1_565 S
O110 C101 1.247 1_565 S
O111 Co98 2.244 . S
O111 C101 1.272 . S
O111 Co103 2.135 . S
Co112 O113 2.216 . S
Co112 O114 2.091 . S
Co112 O116 2.004 . S
Co112 O122 2.021 . S
Co112 O124 2.137 . S
Co112 O125 2.244 . S
O113 Co112 2.216 . S
O113 C120 1.247 . S
O114 Co112 2.091 . S
O114 C120 1.261 . S
C115 O124 1.247 . S
C115 O125 1.272 . S
O116 Co112 2.004 . S
O116 C121 1.259 . S
Co117 O118 2.061 . S
Co117 O123 2.052 . S
Co117 O125 2.135 . S
O118 Co117 2.061 . S
O118 C121 1.235 . S
C119 O122 1.238 . S
C119 O123 1.241 . S
C120 O113 1.247 . S
C120 O114 1.261 . S
C121 O116 1.259 . S
C121 O118 1.235 . S
O122 Co112 2.021 . S
O122 C119 1.238 . S
O123 Co117 2.052 . S
O123 C119 1.241 . S
O124 Co112 2.137 . S
O124 C115 1.247 . S
O125 Co112 2.244 . S
O125 C115 1.272 . S
O125 Co117 2.135 . S
Co126 O127 2.216 1_545 S
Co126 O128 2.091 1_545 S
Co126 O130 1.988 1_655 S
Co126 O136 2.021 . S
Co126 O138 2.137 1_545 S
Co126 O139 2.244 . S
O127 Co126 2.216 1_565 S
O127 C134 1.247 . S
O128 Co126 2.091 1_565 S
O128 C134 1.261 . S
C129 O138 1.247 1_545 S
C129 O139 1.272 . S
O130 Co126 1.988 1_455 S
O130 C135 1.269 . S
Co131 O132 2.061 1_655 S
Co131 O137 2.052 . S
Co131 O139 2.135 . S
O132 Co131 2.061 1_455 S
O132 C135 1.235 . S
C133 O136 1.238 . S
C133 O137 1.241 . S
C134 O127 1.247 . S
C134 O128 1.261 . S
C135 O130 1.269 . S
C135 O132 1.235 . S
O136 Co126 2.021 . S
O136 C133 1.238 . S
O137 Co131 2.052 . S
O137 C133 1.241 . S
O138 Co126 2.137 1_565 S
O138 C129 1.247 1_565 S
O139 Co126 2.244 . S
O139 C129 1.272 . S
O139 Co131 2.135 . S
Co140 O141 2.216 . S
Co140 O142 2.091 . S
Co140 O144 2.004 . S
Co140 O150 2.021 . S
Co140 O152 2.137 . S
Co140 O153 2.244 . S
O141 Co140 2.216 . S
O141 C148 1.247 . S
O142 Co140 2.091 . S
O142 C148 1.261 . S
C143 O152 1.247 . S
C143 O153 1.272 . S
O144 Co140 2.004 . S
O144 C149 1.259 . S
Co145 O146 2.061 . S
Co145 O151 2.052 . S
Co145 O153 2.135 . S
O146 Co145 2.061 . S
O146 C149 1.235 . S
C147 O150 1.238 . S
C147 O151 1.241 . S
C148 O141 1.247 . S
C148 O142 1.261 . S
C149 O144 1.259 . S
C149 O146 1.235 . S
O150 Co140 2.021 . S
O150 C147 1.238 . S
O151 Co145 2.052 . S
O151 C147 1.241 . S
O152 Co140 2.137 . S
O152 C143 1.247 . S
O153 Co140 2.244 . S
O153 C143 1.272 . S
O153 Co145 2.135 . S
Co154 O155 2.216 1_565 S
Co154 O156 2.091 1_565 S
Co154 O158 2.004 . S
Co154 O164 2.021 . S
Co154 O166 2.137 1_565 S
Co154 O167 2.244 . S
O155 Co154 2.216 1_545 S
O155 C162 1.247 . S
O156 Co154 2.091 1_545 S
O156 C162 1.261 . S
C157 O166 1.247 1_565 S
C157 O167 1.272 . S
O158 Co154 2.004 . S
O158 C163 1.259 . S
Co159 O160 2.061 . S
Co159 O165 2.052 . S
Co159 O167 2.135 . S
O160 Co159 2.061 . S
O160 C163 1.235 . S
C161 O164 1.238 . S
C161 O165 1.241 . S
C162 O155 1.247 . S
C162 O156 1.261 . S
C163 O158 1.259 . S
C163 O160 1.235 . S
O164 Co154 2.021 . S
O164 C161 1.238 . S
O165 Co159 2.052 . S
O165 C161 1.241 . S
O166 Co154 2.137 1_545 S
O166 C157 1.247 1_545 S
O167 Co154 2.244 . S
O167 C157 1.272 . S
O167 Co159 2.135 . S
Co168 O169 2.216 . S
Co168 O170 2.091 . S
Co168 O172 2.004 . S
Co168 O178 2.021 . S
Co168 O180 2.137 . S
Co168 O181 2.244 . S
O169 Co168 2.216 . S
O169 C176 1.247 . S
O170 Co168 2.091 . S
O170 C176 1.261 . S
C171 O180 1.247 . S
C171 O181 1.272 . S
O172 Co168 2.004 . S
O172 C177 1.259 . S
Co173 O174 2.061 . S
Co173 O179 2.052 . S
Co173 O181 2.135 . S
O174 Co173 2.061 . S
O174 C177 1.235 . S
C175 O178 1.238 . S
C175 O179 1.241 . S
C176 O169 1.247 . S
C176 O170 1.261 . S
C177 O172 1.259 . S
C177 O174 1.235 . S
O178 Co168 2.021 . S
O178 C175 1.238 . S
O179 Co173 2.052 . S
O179 C175 1.241 . S
O180 Co168 2.137 . S
O180 C171 1.247 . S
O181 Co168 2.244 . S
O181 C171 1.272 . S
O181 Co173 2.135 . S
Co182 O183 2.216 1_545 S
Co182 O184 2.091 1_545 S
Co182 O186 2.004 . S
Co182 O192 2.021 . S
Co182 O194 2.137 1_545 S
Co182 O195 2.244 . S
O183 Co182 2.216 1_565 S
O183 C190 1.247 . S
O184 Co182 2.091 1_565 S
O184 C190 1.261 . S
C185 O194 1.247 1_545 S
C185 O195 1.272 . S
O186 Co182 2.004 . S
O186 C191 1.259 . S
Co187 O188 2.061 . S
Co187 O193 2.052 . S
Co187 O195 2.135 . S
O188 Co187 2.061 . S
O188 C191 1.235 . S
C189 O192 1.238 . S
C189 O193 1.241 . S
C190 O183 1.247 . S
C190 O184 1.261 . S
C191 O186 1.259 . S
C191 O188 1.235 . S
O192 Co182 2.021 . S
O192 C189 1.238 . S
O193 Co187 2.052 . S
O193 C189 1.241 . S
O194 Co182 2.137 1_565 S
O194 C185 1.247 1_565 S
O195 Co182 2.244 . S
O195 C185 1.272 . S
O195 Co187 2.135 . S
Co196 O197 2.216 . S
Co196 O198 2.091 . S
Co196 O200 2.004 . S
Co196 O206 2.021 . S
Co196 O208 2.137 . S
Co196 O209 2.244 . S
O197 Co196 2.216 . S
O197 C204 1.247 . S
O198 Co196 2.091 . S
O198 C204 1.261 . S
C199 O208 1.247 . S
C199 O209 1.272 . S
O200 Co196 2.004 . S
O200 C205 1.259 . S
Co201 O202 2.061 . S
Co201 O207 2.052 . S
Co201 O209 2.135 . S
O202 Co201 2.061 . S
O202 C205 1.235 . S
C203 O206 1.238 . S
C203 O207 1.241 . S
C204 O197 1.247 . S
C204 O198 1.261 . S
C205 O200 1.259 . S
C205 O202 1.235 . S
O206 Co196 2.021 . S
O206 C203 1.238 . S
O207 Co201 2.052 . S
O207 C203 1.241 . S
O208 Co196 2.137 . S
O208 C199 1.247 . S
O209 Co196 2.244 . S
O209 C199 1.272 . S
O209 Co201 2.135 . S
Co210 O211 2.216 1_565 S
Co210 O212 2.091 1_565 S
Co210 O214 1.988 1_655 S
Co210 O220 2.021 . S
Co210 O222 2.137 1_565 S
Co210 O223 2.244 . S
O211 Co210 2.216 1_545 S
O211 C218 1.247 . S
O212 Co210 2.091 1_545 S
O212 C218 1.261 . S
C213 O222 1.247 1_565 S
C213 O223 1.272 . S
O214 Co210 1.988 1_455 S
O214 C219 1.269 . S
Co215 O216 2.061 1_655 S
Co215 O221 2.052 . S
Co215 O223 2.135 . S
O216 Co215 2.061 1_455 S
O216 C219 1.235 . S
C217 O220 1.238 . S
C217 O221 1.241 . S
C218 O211 1.247 . S
C218 O212 1.261 . S
C219 O214 1.269 . S
C219 O216 1.235 . S
O220 Co210 2.021 . S
O220 C217 1.238 . S
O221 Co215 2.052 . S
O221 C217 1.241 . S
O222 Co210 2.137 1_545 S
O222 C213 1.247 1_545 S
O223 Co210 2.244 . S
O223 C213 1.272 . S
O223 Co215 2.135 . S
Co224 O225 2.216 . S
Co224 O226 2.091 . S
Co224 O228 2.004 . S
Co224 O234 2.021 . S
Co224 O236 2.137 . S
Co224 O237 2.244 . S
O225 Co224 2.216 . S
O225 C232 1.247 . S
O226 Co224 2.091 . S
O226 C232 1.261 . S
C227 O236 1.247 . S
C227 O237 1.272 . S
O228 Co224 2.004 . S
O228 C233 1.259 . S
Co229 O230 2.061 . S
Co229 O235 2.052 . S
Co229 O237 2.135 . S
O230 Co229 2.061 . S
O230 C233 1.235 . S
C231 O234 1.238 . S
C231 O235 1.241 . S
C232 O225 1.247 . S
C232 O226 1.261 . S
C233 O228 1.259 . S
C233 O230 1.235 . S
O234 Co224 2.021 . S
O234 C231 1.238 . S
O235 Co229 2.052 . S
O235 C231 1.241 . S
O236 Co224 2.137 . S
O236 C227 1.247 . S
O237 Co224 2.244 . S
O237 C227 1.272 . S
O237 Co229 2.135 . S
Co238 O239 2.216 . S
Co238 O240 2.091 . S
Co238 O242 2.004 . S
Co238 O248 2.021 . S
Co238 O250 2.137 . S
Co238 O251 2.244 . S
O239 Co238 2.216 . S
O239 C246 1.247 . S
O240 Co238 2.091 . S
O240 C246 1.261 . S
C241 O250 1.247 . S
C241 O251 1.272 . S
O242 Co238 2.004 . S
O242 C247 1.259 . S
Co243 O244 2.061 . S
Co243 O249 2.052 . S
Co243 O251 2.135 . S
O244 Co243 2.061 . S
O244 C247 1.235 . S
C245 O248 1.238 . S
C245 O249 1.241 . S
C246 O239 1.247 . S
C246 O240 1.261 . S
C247 O242 1.259 . S
C247 O244 1.235 . S
O248 Co238 2.021 . S
O248 C245 1.238 . S
O249 Co243 2.052 . S
O249 C245 1.241 . S
O250 Co238 2.137 . S
O250 C241 1.247 . S
O251 Co238 2.244 . S
O251 C241 1.272 . S
O251 Co243 2.135 . S
Co252 O253 2.216 . S
Co252 O254 2.091 . S
Co252 O256 2.004 . S
Co252 O262 2.021 . S
Co252 O264 2.137 . S
Co252 O265 2.244 . S
O253 Co252 2.216 . S
O253 C260 1.247 . S
O254 Co252 2.091 . S
O254 C260 1.261 . S
C255 O264 1.247 . S
C255 O265 1.272 . S
O256 Co252 2.004 . S
O256 C261 1.259 . S
Co257 O258 2.061 . S
Co257 O263 2.052 . S
Co257 O265 2.135 . S
O258 Co257 2.061 . S
O258 C261 1.235 . S
C259 O262 1.238 . S
C259 O263 1.241 . S
C260 O253 1.247 . S
C260 O254 1.261 . S
C261 O256 1.259 . S
C261 O258 1.235 . S
O262 Co252 2.021 . S
O262 C259 1.238 . S
O263 Co257 2.052 . S
O263 C259 1.241 . S
O264 Co252 2.137 . S
O264 C255 1.247 . S
O265 Co252 2.244 . S
O265 C255 1.272 . S
O265 Co257 2.135 . S
Co266 O267 2.216 . S
Co266 O268 2.091 . S
Co266 O270 1.987 1_655 S
Co266 O276 2.021 . S
Co266 O278 2.137 . S
Co266 O279 2.244 . S
O267 Co266 2.216 . S
O267 C274 1.247 . S
O268 Co266 2.091 . S
O268 C274 1.261 . S
C269 O278 1.247 . S
C269 O279 1.272 . S
O270 Co266 1.987 1_455 S
O270 C275 1.269 . S
Co271 O272 2.061 1_655 S
Co271 O277 2.052 . S
Co271 O279 2.135 . S
O272 Co271 2.061 1_455 S
O272 C275 1.235 . S
C273 O276 1.238 . S
C273 O277 1.241 . S
C274 O267 1.247 . S
C274 O268 1.261 . S
C275 O270 1.269 . S
C275 O272 1.235 . S
O276 Co266 2.021 . S
O276 C273 1.238 . S
O277 Co271 2.052 . S
O277 C273 1.241 . S
O278 Co266 2.137 . S
O278 C269 1.247 . S
O279 Co266 2.244 . S
O279 C269 1.272 . S
O279 Co271 2.135 . S
Co280 O281 2.216 . S
Co280 O282 2.091 . S
Co280 O284 2.004 . S
Co280 O290 2.021 . S
Co280 O292 2.137 . S
Co280 O293 2.244 . S
O281 Co280 2.216 . S
O281 C288 1.247 . S
O282 Co280 2.091 . S
O282 C288 1.261 . S
C283 O292 1.247 . S
C283 O293 1.272 . S
O284 Co280 2.004 . S
O284 C289 1.259 . S
Co285 O286 2.061 . S
Co285 O291 2.052 . S
Co285 O293 2.135 . S
O286 Co285 2.061 . S
O286 C289 1.235 . S
C287 O290 1.238 . S
C287 O291 1.241 . S
C288 O281 1.247 . S
C288 O282 1.261 . S
C289 O284 1.259 . S
C289 O286 1.235 . S
O290 Co280 2.021 . S
O290 C287 1.238 . S
O291 Co285 2.052 . S
O291 C287 1.241 . S
O292 Co280 2.137 . S
O292 C283 1.247 . S
O293 Co280 2.244 . S
O293 C283 1.272 . S
O293 Co285 2.135 . S
Co294 O295 2.216 . S
Co294 O296 2.091 . S
Co294 O298 1.987 1_655 S
Co294 O304 2.021 . S
Co294 O306 2.137 . S
Co294 O307 2.244 . S
O295 Co294 2.216 . S
O295 C302 1.247 . S
O296 Co294 2.091 . S
O296 C302 1.261 . S
C297 O306 1.247 . S
C297 O307 1.272 . S
O298 Co294 1.987 1_455 S
O298 C303 1.269 . S
Co299 O300 2.061 1_655 S
Co299 O305 2.052 . S
Co299 O307 2.135 . S
O300 Co299 2.061 1_455 S
O300 C303 1.235 . S
C301 O304 1.238 . S
C301 O305 1.241 . S
C302 O295 1.247 . S
C302 O296 1.261 . S
C303 O298 1.269 . S
C303 O300 1.235 . S
O304 Co294 2.021 . S
O304 C301 1.238 . S
O305 Co299 2.052 . S
O305 C301 1.241 . S
O306 Co294 2.137 . S
O306 C297 1.247 . S
O307 Co294 2.244 . S
O307 C297 1.272 . S
O307 Co299 2.135 . S
Co308 O309 2.216 . S
Co308 O310 2.091 . S
Co308 O312 2.004 . S
Co308 O318 2.021 . S
Co308 O320 2.137 . S
Co308 O321 2.244 . S
O309 Co308 2.216 . S
O309 C316 1.247 . S
O310 Co308 2.091 . S
O310 C316 1.261 . S
C311 O320 1.247 . S
C311 O321 1.272 . S
O312 Co308 2.004 . S
O312 C317 1.259 . S
Co313 O314 2.061 . S
Co313 O319 2.052 . S
Co313 O321 2.135 . S
O314 Co313 2.061 . S
O314 C317 1.235 . S
C315 O318 1.238 . S
C315 O319 1.241 . S
C316 O309 1.247 . S
C316 O310 1.261 . S
C317 O312 1.259 . S
C317 O314 1.235 . S
O318 Co308 2.021 . S
O318 C315 1.238 . S
O319 Co313 2.052 . S
O319 C315 1.241 . S
O320 Co308 2.137 . S
O320 C311 1.247 . S
O321 Co308 2.244 . S
O321 C311 1.272 . S
O321 Co313 2.135 . S
Co322 O323 2.216 . S
Co322 O324 2.091 . S
Co322 O326 2.004 . S
Co322 O332 2.021 . S
Co322 O334 2.137 . S
Co322 O335 2.244 . S
O323 Co322 2.216 . S
O323 C330 1.247 . S
O324 Co322 2.091 . S
O324 C330 1.261 . S
C325 O334 1.247 . S
C325 O335 1.272 . S
O326 Co322 2.004 . S
O326 C331 1.259 . S
Co327 O328 2.061 . S
Co327 O333 2.052 . S
Co327 O335 2.135 . S
O328 Co327 2.061 . S
O328 C331 1.235 . S
C329 O332 1.238 . S
C329 O333 1.241 . S
C330 O323 1.247 . S
C330 O324 1.261 . S
C331 O326 1.259 . S
C331 O328 1.235 . S
O332 Co322 2.021 . S
O332 C329 1.238 . S
O333 Co327 2.052 . S
O333 C329 1.241 . S
O334 Co322 2.137 . S
O334 C325 1.247 . S
O335 Co322 2.244 . S
O335 C325 1.272 . S
O335 Co327 2.135 . S
Co336 O337 2.216 . S
Co336 O338 2.091 . S
Co336 O340 2.004 . S
Co336 O346 2.021 . S
Co336 O348 2.137 . S
Co336 O349 2.244 . S
O337 Co336 2.216 . S
O337 C344 1.247 . S
O338 Co336 2.091 . S
O338 C344 1.261 . S
C339 O348 1.247 . S
C339 O349 1.272 . S
O340 Co336 2.004 . S
O340 C345 1.259 . S
Co341 O342 2.061 . S
Co341 O347 2.052 . S
Co341 O349 2.135 . S
O342 Co341 2.061 . S
O342 C345 1.235 . S
C343 O346 1.238 . S
C343 O347 1.241 . S
C344 O337 1.247 . S
C344 O338 1.261 . S
C345 O340 1.259 . S
C345 O342 1.235 . S
O346 Co336 2.021 . S
O346 C343 1.238 . S
O347 Co341 2.052 . S
O347 C343 1.241 . S
O348 Co336 2.137 . S
O348 C339 1.247 . S
O349 Co336 2.244 . S
O349 C339 1.272 . S
O349 Co341 2.135 . S
Co350 O351 2.216 . S
Co350 O352 2.091 . S
Co350 O354 2.004 . S
Co350 O360 2.021 . S
Co350 O362 2.137 . S
Co350 O363 2.244 . S
O351 Co350 2.216 . S
O351 C358 1.247 . S
O352 Co350 2.091 . S
O352 C358 1.261 . S
C353 O362 1.247 . S
C353 O363 1.272 . S
O354 Co350 2.004 . S
O354 C359 1.259 . S
Co355 O356 2.061 . S
Co355 O361 2.052 . S
Co355 O363 2.135 . S
O356 Co355 2.061 . S
O356 C359 1.235 . S
C357 O360 1.238 . S
C357 O361 1.241 . S
C358 O351 1.247 . S
C358 O352 1.261 . S
C359 O354 1.259 . S
C359 O356 1.235 . S
O360 Co350 2.021 . S
O360 C357 1.238 . S
O361 Co355 2.052 . S
O361 C357 1.241 . S
O362 Co350 2.137 . S
O362 C353 1.247 . S
O363 Co350 2.244 . S
O363 C353 1.272 . S
O363 Co355 2.135 . S
Co364 O365 2.216 . S
Co364 O366 2.091 . S
Co364 O368 2.004 . S
Co364 O374 2.021 . S
Co364 O376 2.137 . S
Co364 O377 2.244 . S
O365 Co364 2.216 . S
O365 C372 1.247 . S
O366 Co364 2.091 . S
O366 C372 1.261 . S
C367 O376 1.247 . S
C367 O377 1.272 . S
O368 Co364 2.004 . S
O368 C373 1.259 . S
Co369 O370 2.061 . S
Co369 O375 2.052 . S
Co369 O377 2.135 . S
O370 Co369 2.061 . S
O370 C373 1.235 . S
C371 O374 1.238 . S
C371 O375 1.241 . S
C372 O365 1.247 . S
C372 O366 1.261 . S
C373 O368 1.259 . S
C373 O370 1.235 . S
O374 Co364 2.021 . S
O374 C371 1.238 . S
O375 Co369 2.052 . S
O375 C371 1.241 . S
O376 Co364 2.137 . S
O376 C367 1.247 . S
O377 Co364 2.244 . S
O377 C367 1.272 . S
O377 Co369 2.135 . S
Co378 O379 2.216 . S
Co378 O380 2.091 . S
Co378 O382 1.987 1_455 S
Co378 O388 2.021 . S
Co378 O390 2.137 . S
Co378 O391 2.244 . S
O379 Co378 2.216 . S
O379 C386 1.247 . S
O380 Co378 2.091 . S
O380 C386 1.261 . S
C381 O390 1.247 . S
C381 O391 1.272 . S
O382 Co378 1.987 1_655 S
O382 C387 1.269 . S
Co383 O384 2.061 1_455 S
Co383 O389 2.052 . S
Co383 O391 2.135 . S
O384 Co383 2.061 1_655 S
O384 C387 1.235 . S
C385 O388 1.238 . S
C385 O389 1.241 . S
C386 O379 1.247 . S
C386 O380 1.261 . S
C387 O382 1.269 . S
C387 O384 1.235 . S
O388 Co378 2.021 . S
O388 C385 1.238 . S
O389 Co383 2.052 . S
O389 C385 1.241 . S
O390 Co378 2.137 . S
O390 C381 1.247 . S
O391 Co378 2.244 . S
O391 C381 1.272 . S
O391 Co383 2.135 . S
Co392 O393 2.216 . S
Co392 O394 2.091 . S
Co392 O396 2.004 . S
Co392 O402 2.021 . S
Co392 O404 2.137 . S
Co392 O405 2.244 . S
O393 Co392 2.216 . S
O393 C400 1.247 . S
O394 Co392 2.091 . S
O394 C400 1.261 . S
C395 O404 1.247 . S
C395 O405 1.272 . S
O396 Co392 2.004 . S
O396 C401 1.259 . S
Co397 O398 2.061 . S
Co397 O403 2.052 . S
Co397 O405 2.135 . S
O398 Co397 2.061 . S
O398 C401 1.235 . S
C399 O402 1.238 . S
C399 O403 1.241 . S
C400 O393 1.247 . S
C400 O394 1.261 . S
C401 O396 1.259 . S
C401 O398 1.235 . S
O402 Co392 2.021 . S
O402 C399 1.238 . S
O403 Co397 2.052 . S
O403 C399 1.241 . S
O404 Co392 2.137 . S
O404 C395 1.247 . S
O405 Co392 2.244 . S
O405 C395 1.272 . S
O405 Co397 2.135 . S
Co406 O407 2.216 . S
Co406 O408 2.091 . S
Co406 O410 1.987 1_455 S
Co406 O416 2.021 . S
Co406 O418 2.137 . S
Co406 O419 2.244 . S
O407 Co406 2.216 . S
O407 C414 1.247 . S
O408 Co406 2.091 . S
O408 C414 1.261 . S
C409 O418 1.247 . S
C409 O419 1.272 . S
O410 Co406 1.987 1_655 S
O410 C415 1.269 . S
Co411 O412 2.061 1_455 S
Co411 O417 2.052 . S
Co411 O419 2.135 . S
O412 Co411 2.061 1_655 S
O412 C415 1.235 . S
C413 O416 1.238 . S
C413 O417 1.241 . S
C414 O407 1.247 . S
C414 O408 1.261 . S
C415 O410 1.269 . S
C415 O412 1.235 . S
O416 Co406 2.021 . S
O416 C413 1.238 . S
O417 Co411 2.052 . S
O417 C413 1.241 . S
O418 Co406 2.137 . S
O418 C409 1.247 . S
O419 Co406 2.244 . S
O419 C409 1.272 . S
O419 Co411 2.135 . S
Co420 O421 2.216 . S
Co420 O422 2.091 . S
Co420 O424 2.004 . S
Co420 O430 2.021 . S
Co420 O432 2.137 . S
Co420 O433 2.244 . S
O421 Co420 2.216 . S
O421 C428 1.247 . S
O422 Co420 2.091 . S
O422 C428 1.261 . S
C423 O432 1.247 . S
C423 O433 1.272 . S
O424 Co420 2.004 . S
O424 C429 1.259 . S
Co425 O426 2.061 . S
Co425 O431 2.052 . S
Co425 O433 2.135 . S
O426 Co425 2.061 . S
O426 C429 1.235 . S
C427 O430 1.238 . S
C427 O431 1.241 . S
C428 O421 1.247 . S
C428 O422 1.261 . S
C429 O424 1.259 . S
C429 O426 1.235 . S
O430 Co420 2.021 . S
O430 C427 1.238 . S
O431 Co425 2.052 . S
O431 C427 1.241 . S
O432 Co420 2.137 . S
O432 C423 1.247 . S
O433 Co420 2.244 . S
O433 C423 1.272 . S
O433 Co425 2.135 . S
Co434 O435 2.216 . S
Co434 O436 2.091 . S
Co434 O438 2.004 . S
Co434 O444 2.021 . S
Co434 O446 2.137 . S
Co434 O447 2.244 . S
O435 Co434 2.216 . S
O435 C442 1.247 . S
O436 Co434 2.091 . S
O436 C442 1.261 . S
C437 O446 1.247 . S
C437 O447 1.272 . S
O438 Co434 2.004 . S
O438 C443 1.259 . S
Co439 O440 2.061 . S
Co439 O445 2.052 . S
Co439 O447 2.135 . S
O440 Co439 2.061 . S
O440 C443 1.235 . S
C441 O444 1.238 . S
C441 O445 1.241 . S
C442 O435 1.247 . S
C442 O436 1.261 . S
C443 O438 1.259 . S
C443 O440 1.235 . S
O444 Co434 2.021 . S
O444 C441 1.238 . S
O445 Co439 2.052 . S
O445 C441 1.241 . S
O446 Co434 2.137 . S
O446 C437 1.247 . S
O447 Co434 2.244 . S
O447 C437 1.272 . S
O447 Co439 2.135 . S
C448 C449 1.387 . S
C448 H452 0.950 . S
C448 C457 1.390 . S
C449 C448 1.387 . S
C449 C451 1.387 . S
H450 C457 0.950 . S
C451 C449 1.387 . S
C451 C453 1.390 . S
C451 H455 0.950 . S
H452 C448 0.950 . S
C453 C451 1.390 . S
C453 C454 1.387 . S
C453 H456 0.950 . S
C454 C453 1.387 . S
C454 C457 1.387 . S
H455 C451 0.950 . S
H456 C453 0.950 . S
C457 C448 1.390 . S
C457 H450 0.950 . S
C457 C454 1.387 . S
C458 C459 1.387 . S
C458 H462 0.950 . S
C458 C467 1.390 . S
C459 C458 1.387 . S
C459 C461 1.387 . S
H460 C467 0.950 . S
C461 C459 1.387 . S
C461 C463 1.390 . S
C461 H465 0.950 . S
H462 C458 0.950 . S
C463 C461 1.390 . S
C463 C464 1.387 . S
C463 H466 0.950 . S
C464 C463 1.387 . S
C464 C467 1.387 . S
H465 C461 0.950 . S
H466 C463 0.950 . S
C467 C458 1.390 . S
C467 H460 0.950 . S
C467 C464 1.387 . S
C468 C469 1.387 . S
C468 H472 0.950 . S
C468 C477 1.390 . S
C469 C468 1.387 . S
C469 C471 1.387 . S
H470 C477 0.950 . S
C471 C469 1.387 . S
C471 C473 1.390 . S
C471 H475 0.950 . S
H472 C468 0.950 . S
C473 C471 1.390 . S
C473 C474 1.387 . S
C473 H476 0.950 . S
C474 C473 1.387 . S
C474 C477 1.387 . S
H475 C471 0.950 . S
H476 C473 0.950 . S
C477 C468 1.390 . S
C477 H470 0.950 . S
C477 C474 1.387 . S
C478 C479 1.387 . S
C478 H482 0.950 . S
C478 C487 1.390 . S
C479 C478 1.387 . S
C479 C481 1.387 . S
H480 C487 0.950 . S
C481 C479 1.387 . S
C481 C483 1.390 . S
C481 H485 0.950 . S
H482 C478 0.950 . S
C483 C481 1.390 . S
C483 C484 1.387 . S
C483 H486 0.950 . S
C484 C483 1.387 . S
C484 C487 1.387 . S
H485 C481 0.950 . S
H486 C483 0.950 . S
C487 C478 1.390 . S
C487 H480 0.950 . S
C487 C484 1.387 . S
C488 C489 1.387 . S
C488 H492 0.950 . S
C488 C497 1.390 . S
C489 C488 1.387 . S
C489 C491 1.387 . S
H490 C497 0.950 . S
C491 C489 1.387 . S
C491 C493 1.390 . S
C491 H495 0.950 . S
H492 C488 0.950 . S
C493 C491 1.390 . S
C493 C494 1.387 . S
C493 H496 0.950 . S
C494 C493 1.387 . S
C494 C497 1.387 . S
H495 C491 0.950 . S
H496 C493 0.950 . S
C497 C488 1.390 . S
C497 H490 0.950 . S
C497 C494 1.387 . S
C498 C499 1.387 . S
C498 H502 0.950 . S
C498 C507 1.390 . S
C499 C498 1.387 . S
C499 C501 1.387 . S
H500 C507 0.950 . S
C501 C499 1.387 . S
C501 C503 1.390 . S
C501 H505 0.950 . S
H502 C498 0.950 . S
C503 C501 1.390 . S
C503 C504 1.387 . S
C503 H506 0.950 . S
C504 C503 1.387 . S
C504 C507 1.387 . S
H505 C501 0.950 . S
H506 C503 0.950 . S
C507 C498 1.390 . S
C507 H500 0.950 . S
C507 C504 1.387 . S
C508 C509 1.387 . S
C508 H512 0.950 . S
C508 C517 1.390 . S
C509 C508 1.387 . S
C509 C511 1.387 . S
H510 C517 0.950 . S
C511 C509 1.387 . S
C511 C513 1.390 . S
C511 H515 0.950 . S
H512 C508 0.950 . S
C513 C511 1.390 . S
C513 C514 1.387 . S
C513 H516 0.950 . S
C514 C513 1.387 . S
C514 C517 1.387 . S
H515 C511 0.950 . S
H516 C513 0.950 . S
C517 C508 1.390 . S
C517 H510 0.950 . S
C517 C514 1.387 . S
C518 C519 1.387 . S
C518 H522 0.950 . S
C518 C527 1.390 . S
C519 C518 1.387 . S
C519 C521 1.387 . S
H520 C527 0.950 . S
C521 C519 1.387 . S
C521 C523 1.390 . S
C521 H525 0.950 . S
H522 C518 0.950 . S
C523 C521 1.390 . S
C523 C524 1.387 . S
C523 H526 0.950 . S
C524 C523 1.387 . S
C524 C527 1.387 . S
H525 C521 0.950 . S
H526 C523 0.950 . S
C527 C518 1.390 . S
C527 H520 0.950 . S
C527 C524 1.387 . S
C528 C529 1.387 . S
C528 H532 0.950 . S
C528 C537 1.390 . S
C529 C528 1.387 . S
C529 C531 1.387 . S
H530 C537 0.950 . S
C531 C529 1.387 . S
C531 C533 1.390 . S
C531 H535 0.950 . S
H532 C528 0.950 . S
C533 C531 1.390 . S
C533 C534 1.387 . S
C533 H536 0.950 . S
C534 C533 1.387 . S
C534 C537 1.387 . S
H535 C531 0.950 . S
H536 C533 0.950 . S
C537 C528 1.390 . S
C537 H530 0.950 . S
C537 C534 1.387 . S
C538 C539 1.387 . S
C538 H542 0.950 . S
C538 C547 1.390 . S
C539 C538 1.387 . S
C539 C541 1.387 . S
H540 C547 0.950 . S
C541 C539 1.387 . S
C541 C543 1.390 . S
C541 H545 0.950 . S
H542 C538 0.950 . S
C543 C541 1.390 . S
C543 C544 1.387 . S
C543 H546 0.950 . S
C544 C543 1.387 . S
C544 C547 1.387 . S
H545 C541 0.950 . S
H546 C543 0.950 . S
C547 C538 1.390 . S
C547 H540 0.950 . S
C547 C544 1.387 . S
C548 C549 1.387 . S
C548 H552 0.950 . S
C548 C557 1.390 . S
C549 C548 1.387 . S
C549 C551 1.387 . S
H550 C557 0.950 . S
C551 C549 1.387 . S
C551 C553 1.390 . S
C551 H555 0.950 . S
H552 C548 0.950 . S
C553 C551 1.390 . S
C553 C554 1.387 . S
C553 H556 0.950 . S
C554 C553 1.387 . S
C554 C557 1.387 . S
H555 C551 0.950 . S
H556 C553 0.950 . S
C557 C548 1.390 . S
C557 H550 0.950 . S
C557 C554 1.387 . S
C558 C559 1.387 . S
C558 H562 0.950 . S
C558 C567 1.390 . S
C559 C558 1.387 . S
C559 C561 1.387 . S
H560 C567 0.950 . S
C561 C559 1.387 . S
C561 C563 1.390 . S
C561 H565 0.950 . S
H562 C558 0.950 . S
C563 C561 1.390 . S
C563 C564 1.387 . S
C563 H566 0.950 . S
C564 C563 1.387 . S
C564 C567 1.387 . S
H565 C561 0.950 . S
H566 C563 0.950 . S
C567 C558 1.390 . S
C567 H560 0.950 . S
C567 C564 1.387 . S
C568 C569 1.387 . S
C568 H572 0.950 . S
C568 C577 1.390 . S
C569 C568 1.387 . S
C569 C571 1.387 . S
H570 C577 0.950 . S
C571 C569 1.387 . S
C571 C573 1.390 . S
C571 H575 0.950 . S
H572 C568 0.950 . S
C573 C571 1.390 . S
C573 C574 1.387 . S
C573 H576 0.950 . S
C574 C573 1.387 . S
C574 C577 1.387 . S
H575 C571 0.950 . S
H576 C573 0.950 . S
C577 C568 1.390 . S
C577 H570 0.950 . S
C577 C574 1.387 . S
C578 C579 1.387 . S
C578 H582 0.950 . S
C578 C587 1.390 . S
C579 C578 1.387 . S
C579 C581 1.387 . S
H580 C587 0.950 . S
C581 C579 1.387 . S
C581 C583 1.390 . S
C581 H585 0.950 . S
H582 C578 0.950 . S
C583 C581 1.390 . S
C583 C584 1.387 . S
C583 H586 0.950 . S
C584 C583 1.387 . S
C584 C587 1.387 . S
H585 C581 0.950 . S
H586 C583 0.950 . S
C587 C578 1.390 . S
C587 H580 0.950 . S
C587 C584 1.387 . S
C588 C589 1.387 . S
C588 H592 0.950 . S
C588 C597 1.390 . S
C589 C588 1.387 . S
C589 C591 1.387 . S
H590 C597 0.950 . S
C591 C589 1.387 . S
C591 C593 1.390 . S
C591 H595 0.950 . S
H592 C588 0.950 . S
C593 C591 1.390 . S
C593 C594 1.387 . S
C593 H596 0.950 . S
C594 C593 1.387 . S
C594 C597 1.387 . S
H595 C591 0.950 . S
H596 C593 0.950 . S
C597 C588 1.390 . S
C597 H590 0.950 . S
C597 C594 1.387 . S
C598 C599 1.387 . S
C598 H602 0.950 . S
C598 C607 1.390 . S
C599 C598 1.387 . S
C599 C601 1.387 . S
H600 C607 0.950 . S
C601 C599 1.387 . S
C601 C603 1.390 . S
C601 H605 0.950 . S
H602 C598 0.950 . S
C603 C601 1.390 . S
C603 C604 1.387 . S
C603 H606 0.950 . S
C604 C603 1.387 . S
C604 C607 1.387 . S
H605 C601 0.950 . S
H606 C603 0.950 . S
C607 C598 1.390 . S
C607 H600 0.950 . S
C607 C604 1.387 . S
C608 C609 1.387 . S
C608 H612 0.950 . S
C608 C617 1.390 . S
C609 C608 1.387 . S
C609 C611 1.387 . S
H610 C617 0.950 . S
C611 C609 1.387 . S
C611 C613 1.390 . S
C611 H615 0.950 . S
H612 C608 0.950 . S
C613 C611 1.390 . S
C613 C614 1.387 . S
C613 H616 0.950 . S
C614 C613 1.387 . S
C614 C617 1.387 . S
H615 C611 0.950 . S
H616 C613 0.950 . S
C617 C608 1.390 . S
C617 H610 0.950 . S
C617 C614 1.387 . S
C618 C619 1.387 . S
C618 H622 0.950 . S
C618 C627 1.390 . S
C619 C618 1.387 . S
C619 C621 1.387 . S
H620 C627 0.950 . S
C621 C619 1.387 . S
C621 C623 1.390 . S
C621 H625 0.950 . S
H622 C618 0.950 . S
C623 C621 1.390 . S
C623 C624 1.387 . S
C623 H626 0.950 . S
C624 C623 1.387 . S
C624 C627 1.387 . S
H625 C621 0.950 . S
H626 C623 0.950 . S
C627 C618 1.390 . S
C627 H620 0.950 . S
C627 C624 1.387 . S
C628 C629 1.387 . S
C628 H632 0.950 . S
C628 C637 1.390 . S
C629 C628 1.387 . S
C629 C631 1.387 . S
H630 C637 0.950 . S
C631 C629 1.387 . S
C631 C633 1.390 . S
C631 H635 0.950 . S
H632 C628 0.950 . S
C633 C631 1.390 . S
C633 C634 1.387 . S
C633 H636 0.950 . S
C634 C633 1.387 . S
C634 C637 1.387 . S
H635 C631 0.950 . S
H636 C633 0.950 . S
C637 C628 1.390 . S
C637 H630 0.950 . S
C637 C634 1.387 . S
C638 C639 1.387 . S
C638 H642 0.950 . S
C638 C647 1.390 . S
C639 C638 1.387 . S
C639 C641 1.387 . S
H640 C647 0.950 . S
C641 C639 1.387 . S
C641 C643 1.390 . S
C641 H645 0.950 . S
H642 C638 0.950 . S
C643 C641 1.390 . S
C643 C644 1.387 . S
C643 H646 0.950 . S
C644 C643 1.387 . S
C644 C647 1.387 . S
H645 C641 0.950 . S
H646 C643 0.950 . S
C647 C638 1.390 . S
C647 H640 0.950 . S
C647 C644 1.387 . S
C648 C649 1.387 . S
C648 H652 0.950 . S
C648 C657 1.390 . S
C649 C648 1.387 . S
C649 C651 1.387 . S
H650 C657 0.950 . S
C651 C649 1.387 . S
C651 C653 1.390 . S
C651 H655 0.950 . S
H652 C648 0.950 . S
C653 C651 1.390 . S
C653 C654 1.387 . S
C653 H656 0.950 . S
C654 C653 1.387 . S
C654 C657 1.387 . S
H655 C651 0.950 . S
H656 C653 0.950 . S
C657 C648 1.390 . S
C657 H650 0.950 . S
C657 C654 1.387 . S
C658 C659 1.387 . S
C658 H662 0.950 . S
C658 C667 1.390 . S
C659 C658 1.387 . S
C659 C661 1.387 . S
H660 C667 0.950 . S
C661 C659 1.387 . S
C661 C663 1.390 . S
C661 H665 0.950 . S
H662 C658 0.950 . S
C663 C661 1.390 . S
C663 C664 1.387 . S
C663 H666 0.950 . S
C664 C663 1.387 . S
C664 C667 1.387 . S
H665 C661 0.950 . S
H666 C663 0.950 . S
C667 C658 1.390 . S
C667 H660 0.950 . S
C667 C664 1.387 . S
C668 C669 1.387 . S
C668 H672 0.950 . S
C668 C677 1.390 . S
C669 C668 1.387 . S
C669 C671 1.387 . S
H670 C677 0.950 . S
C671 C669 1.387 . S
C671 C673 1.390 . S
C671 H675 0.950 . S
H672 C668 0.950 . S
C673 C671 1.390 . S
C673 C674 1.387 . S
C673 H676 0.950 . S
C674 C673 1.387 . S
C674 C677 1.387 . S
H675 C671 0.950 . S
H676 C673 0.950 . S
C677 C668 1.390 . S
C677 H670 0.950 . S
C677 C674 1.387 . S
C678 C679 1.387 . S
C678 H682 0.950 . S
C678 C687 1.390 . S
C679 C678 1.387 . S
C679 C681 1.387 . S
H680 C687 0.950 . S
C681 C679 1.387 . S
C681 C683 1.390 . S
C681 H685 0.950 . S
H682 C678 0.950 . S
C683 C681 1.390 . S
C683 C684 1.387 . S
C683 H686 0.950 . S
C684 C683 1.387 . S
C684 C687 1.387 . S
H685 C681 0.950 . S
H686 C683 0.950 . S
C687 C678 1.390 . S
C687 H680 0.950 . S
C687 C684 1.387 . S
C688 C689 1.387 . S
C688 H692 0.950 . S
C688 C697 1.390 . S
C689 C688 1.387 . S
C689 C691 1.387 . S
H690 C697 0.950 . S
C691 C689 1.387 . S
C691 C693 1.390 . S
C691 H695 0.950 . S
H692 C688 0.950 . S
C693 C691 1.390 . S
C693 C694 1.387 . S
C693 H696 0.950 . S
C694 C693 1.387 . S
C694 C697 1.387 . S
H695 C691 0.950 . S
H696 C693 0.950 . S
C697 C688 1.390 . S
C697 H690 0.950 . S
C697 C694 1.387 . S
C698 C699 1.387 . S
C698 H702 0.950 . S
C698 C707 1.390 . S
C699 C698 1.387 . S
C699 C701 1.387 . S
H700 C707 0.950 . S
C701 C699 1.387 . S
C701 C703 1.390 . S
C701 H705 0.950 . S
H702 C698 0.950 . S
C703 C701 1.390 . S
C703 C704 1.387 . S
C703 H706 0.950 . S
C704 C703 1.387 . S
C704 C707 1.387 . S
H705 C701 0.950 . S
H706 C703 0.950 . S
C707 C698 1.390 . S
C707 H700 0.950 . S
C707 C704 1.387 . S
C708 C709 1.387 . S
C708 H712 0.950 . S
C708 C717 1.390 . S
C709 C708 1.387 . S
C709 C711 1.387 . S
H710 C717 0.950 . S
C711 C709 1.387 . S
C711 C713 1.390 . S
C711 H715 0.950 . S
H712 C708 0.950 . S
C713 C711 1.390 . S
C713 C714 1.387 . S
C713 H716 0.950 . S
C714 C713 1.387 . S
C714 C717 1.387 . S
H715 C711 0.950 . S
H716 C713 0.950 . S
C717 C708 1.390 . S
C717 H710 0.950 . S
C717 C714 1.387 . S
C718 C719 1.387 . S
C718 H722 0.950 . S
C718 C727 1.390 . S
C719 C718 1.387 . S
C719 C721 1.387 . S
H720 C727 0.950 . S
C721 C719 1.387 . S
C721 C723 1.390 . S
C721 H725 0.950 . S
H722 C718 0.950 . S
C723 C721 1.390 . S
C723 C724 1.387 . S
C723 H726 0.950 . S
C724 C723 1.387 . S
C724 C727 1.387 . S
H725 C721 0.950 . S
H726 C723 0.950 . S
C727 C718 1.390 . S
C727 H720 0.950 . S
C727 C724 1.387 . S
C728 C729 1.387 . S
C728 H732 0.950 . S
C728 C737 1.390 . S
C729 C728 1.387 . S
C729 C731 1.387 . S
H730 C737 0.950 . S
C731 C729 1.387 . S
C731 C733 1.390 . S
C731 H735 0.950 . S
H732 C728 0.950 . S
C733 C731 1.390 . S
C733 C734 1.387 . S
C733 H736 0.950 . S
C734 C733 1.387 . S
C734 C737 1.387 . S
H735 C731 0.950 . S
H736 C733 0.950 . S
C737 C728 1.390 . S
C737 H730 0.950 . S
C737 C734 1.387 . S
C738 C739 1.387 . S
C738 H742 0.950 . S
C738 C747 1.390 . S
C739 C738 1.387 . S
C739 C741 1.387 . S
H740 C747 0.950 . S
C741 C739 1.387 . S
C741 C743 1.390 . S
C741 H745 0.950 . S
H742 C738 0.950 . S
C743 C741 1.390 . S
C743 C744 1.387 . S
C743 H746 0.950 . S
C744 C743 1.387 . S
C744 C747 1.387 . S
H745 C741 0.950 . S
H746 C743 0.950 . S
C747 C738 1.390 . S
C747 H740 0.950 . S
C747 C744 1.387 . S
C748 C749 1.387 . S
C748 H752 0.950 . S
C748 C757 1.390 . S
C749 C748 1.387 . S
C749 C751 1.387 . S
H750 C757 0.950 . S
C751 C749 1.387 . S
C751 C753 1.390 . S
C751 H755 0.950 . S
H752 C748 0.950 . S
C753 C751 1.390 . S
C753 C754 1.387 . S
C753 H756 0.950 . S
C754 C753 1.387 . S
C754 C757 1.387 . S
H755 C751 0.950 . S
H756 C753 0.950 . S
C757 C748 1.390 . S
C757 H750 0.950 . S
C757 C754 1.387 . S
C758 C759 1.387 . S
C758 H762 0.950 . S
C758 C767 1.390 . S
C759 C758 1.387 . S
C759 C761 1.387 . S
H760 C767 0.950 . S
C761 C759 1.387 . S
C761 C763 1.390 . S
C761 H765 0.950 . S
H762 C758 0.950 . S
C763 C761 1.390 . S
C763 C764 1.387 . S
C763 H766 0.950 . S
C764 C763 1.387 . S
C764 C767 1.387 . S
H765 C761 0.950 . S
H766 C763 0.950 . S
C767 C758 1.390 . S
C767 H760 0.950 . S
C767 C764 1.387 . S
C768 C769 1.387 . S
C768 H772 0.950 . S
C768 C777 1.390 . S
C769 C768 1.387 . S
C769 C771 1.387 . S
H770 C777 0.950 . S
C771 C769 1.387 . S
C771 C773 1.390 . S
C771 H775 0.950 . S
H772 C768 0.950 . S
C773 C771 1.390 . S
C773 C774 1.387 . S
C773 H776 0.950 . S
C774 C773 1.387 . S
C774 C777 1.387 . S
H775 C771 0.950 . S
H776 C773 0.950 . S
C777 C768 1.390 . S
C777 H770 0.950 . S
C777 C774 1.387 . S
C778 C779 1.387 . S
C778 H782 0.950 . S
C778 C787 1.390 1_455 S
C779 C778 1.387 . S
C779 C781 1.387 1_565 S
H780 C787 0.950 . S
C781 C779 1.387 1_545 S
C781 C783 1.390 1_455 S
C781 H785 0.950 . S
H782 C778 0.950 . S
C783 C781 1.390 1_655 S
C783 C784 1.387 . S
C783 H786 0.950 . S
C784 C783 1.387 . S
C784 C787 1.387 1_545 S
H785 C781 0.950 . S
H786 C783 0.950 . S
C787 C778 1.390 1_655 S
C787 H780 0.950 . S
C787 C784 1.387 1_565 S
C788 C789 1.387 . S
C788 H792 0.950 . S
C788 C797 1.390 . S
C789 C788 1.387 . S
C789 C791 1.387 . S
H790 C797 0.950 . S
C791 C789 1.387 . S
C791 C793 1.390 . S
C791 H795 0.950 . S
H792 C788 0.950 . S
C793 C791 1.390 . S
C793 C794 1.387 . S
C793 H796 0.950 . S
C794 C793 1.387 . S
C794 C797 1.387 . S
H795 C791 0.950 . S
H796 C793 0.950 . S
C797 C788 1.390 . S
C797 H790 0.950 . S
C797 C794 1.387 . S
C798 C799 1.387 1_565 S
C798 H802 0.950 . S
C798 C807 1.390 1_554 S
C799 C798 1.387 1_545 S
C799 C801 1.387 . S
H800 C807 0.950 . S
C801 C799 1.387 . S
C801 C803 1.390 1_554 S
C801 H805 0.950 . S
H802 C798 0.950 . S
C803 C801 1.390 1_556 S
C803 C804 1.387 1_545 S
C803 H806 0.950 . S
C804 C803 1.387 1_565 S
C804 C807 1.387 . S
H805 C801 0.950 . S
H806 C803 0.950 . S
C807 C798 1.390 1_556 S
C807 H800 0.950 . S
C807 C804 1.387 . S
C808 C809 1.387 . S
C808 H812 0.950 . S
C808 C817 1.390 . S
C809 C808 1.387 . S
C809 C811 1.387 . S
H810 C817 0.950 . S
C811 C809 1.387 . S
C811 C813 1.390 . S
C811 H815 0.950 . S
H812 C808 0.950 . S
C813 C811 1.390 . S
C813 C814 1.387 . S
C813 H816 0.950 . S
C814 C813 1.387 . S
C814 C817 1.387 . S
H815 C811 0.950 . S
H816 C813 0.950 . S
C817 C808 1.390 . S
C817 H810 0.950 . S
C817 C814 1.387 . S
C818 C819 1.387 1_545 S
C818 H822 0.950 . S
C818 C827 1.390 . S
C819 C818 1.387 1_565 S
C819 C821 1.387 . S
H820 C827 0.950 . S
C821 C819 1.387 . S
C821 C823 1.390 . S
C821 H825 0.950 . S
H822 C818 0.950 . S
C823 C821 1.390 . S
C823 C824 1.387 1_565 S
C823 H826 0.950 . S
C824 C823 1.387 1_545 S
C824 C827 1.387 . S
H825 C821 0.950 . S
H826 C823 0.950 . S
C827 C818 1.390 . S
C827 H820 0.950 . S
C827 C824 1.387 . S
C828 C829 1.387 . S
C828 H832 0.950 . S
C828 C837 1.390 . S
C829 C828 1.387 . S
C829 C831 1.387 . S
H830 C837 0.950 . S
C831 C829 1.387 . S
C831 C833 1.390 . S
C831 H835 0.950 . S
H832 C828 0.950 . S
C833 C831 1.390 . S
C833 C834 1.387 . S
C833 H836 0.950 . S
C834 C833 1.387 . S
C834 C837 1.387 . S
H835 C831 0.950 . S
H836 C833 0.950 . S
C837 C828 1.390 . S
C837 H830 0.950 . S
C837 C834 1.387 . S
C838 C839 1.387 1_565 S
C838 H842 0.950 . S
C838 C847 1.390 1_456 S
C839 C838 1.387 1_545 S
C839 C841 1.387 . S
H840 C847 0.950 . S
C841 C839 1.387 . S
C841 C843 1.390 1_456 S
C841 H845 0.950 . S
H842 C838 0.950 . S
C843 C841 1.390 1_654 S
C843 C844 1.387 1_545 S
C843 H846 0.950 . S
C844 C843 1.387 1_565 S
C844 C847 1.387 . S
H845 C841 0.950 . S
H846 C843 0.950 . S
C847 C838 1.390 1_654 S
C847 H840 0.950 . S
C847 C844 1.387 . S
C848 C849 1.387 . S
C848 H852 0.950 . S
C848 C857 1.390 . S
C849 C848 1.387 . S
C849 C851 1.387 . S
H850 C857 0.950 . S
C851 C849 1.387 . S
C851 C853 1.390 . S
C851 H855 0.950 . S
H852 C848 0.950 . S
C853 C851 1.390 . S
C853 C854 1.387 . S
C853 H856 0.950 . S
C854 C853 1.387 . S
C854 C857 1.387 . S
H855 C851 0.950 . S
H856 C853 0.950 . S
C857 C848 1.390 . S
C857 H850 0.950 . S
C857 C854 1.387 . S
C858 C859 1.387 . S
C858 H862 0.950 . S
C858 C867 1.390 . S
C859 C858 1.387 . S
C859 C861 1.387 . S
H860 C867 0.950 . S
C861 C859 1.387 . S
C861 C863 1.390 . S
C861 H865 0.950 . S
H862 C858 0.950 . S
C863 C861 1.390 . S
C863 C864 1.387 . S
C863 H866 0.950 . S
C864 C863 1.387 . S
C864 C867 1.387 . S
H865 C861 0.950 . S
H866 C863 0.950 . S
C867 C858 1.390 . S
C867 H860 0.950 . S
C867 C864 1.387 . S
C868 C869 1.387 . S
C868 H872 0.950 . S
C868 C877 1.390 . S
C869 C868 1.387 . S
C869 C871 1.387 . S
H870 C877 0.950 . S
C871 C869 1.387 . S
C871 C873 1.390 . S
C871 H875 0.950 . S
H872 C868 0.950 . S
C873 C871 1.390 . S
C873 C874 1.387 . S
C873 H876 0.950 . S
C874 C873 1.387 . S
C874 C877 1.387 . S
H875 C871 0.950 . S
H876 C873 0.950 . S
C877 C868 1.390 . S
C877 H870 0.950 . S
C877 C874 1.387 . S
C878 C879 1.387 . S
C878 H882 0.950 . S
C878 C887 1.390 . S
C879 C878 1.387 . S
C879 C881 1.387 . S
H880 C887 0.950 . S
C881 C879 1.387 . S
C881 C883 1.390 . S
C881 H885 0.950 . S
H882 C878 0.950 . S
C883 C881 1.390 . S
C883 C884 1.387 . S
C883 H886 0.950 . S
C884 C883 1.387 . S
C884 C887 1.387 . S
H885 C881 0.950 . S
H886 C883 0.950 . S
C887 C878 1.390 . S
C887 H880 0.950 . S
C887 C884 1.387 . S
C888 C889 1.387 . S
C888 H892 0.950 . S
C888 C897 1.390 1_554 S
C889 C888 1.387 . S
C889 C891 1.387 . S
H890 C897 0.950 . S
C891 C889 1.387 . S
C891 C893 1.390 1_554 S
C891 H895 0.950 . S
H892 C888 0.950 . S
C893 C891 1.390 1_556 S
C893 C894 1.387 . S
C893 H896 0.950 . S
C894 C893 1.387 . S
C894 C897 1.387 . S
H895 C891 0.950 . S
H896 C893 0.950 . S
C897 C888 1.390 1_556 S
C897 H890 0.950 . S
C897 C894 1.387 . S
C898 C899 1.387 . S
C898 H902 0.950 . S
C898 C907 1.390 1_455 S
C899 C898 1.387 . S
C899 C901 1.387 . S
H900 C907 0.950 . S
C901 C899 1.387 . S
C901 C903 1.390 1_455 S
C901 H905 0.950 . S
H902 C898 0.950 . S
C903 C901 1.390 1_655 S
C903 C904 1.387 . S
C903 H906 0.950 . S
C904 C903 1.387 . S
C904 C907 1.387 . S
H905 C901 0.950 . S
H906 C903 0.950 . S
C907 C898 1.390 1_655 S
C907 H900 0.950 . S
C907 C904 1.387 . S
C908 C909 1.387 1_655 S
C908 H912 0.950 . S
C908 C917 1.390 1_554 S
C909 C908 1.387 1_455 S
C909 C911 1.387 . S
H910 C917 0.950 . S
C911 C909 1.387 . S
C911 C913 1.390 1_554 S
C911 H915 0.950 . S
H912 C908 0.950 . S
C913 C911 1.390 1_556 S
C913 C914 1.387 1_455 S
C913 H916 0.950 . S
C914 C913 1.387 1_655 S
C914 C917 1.387 . S
H915 C911 0.950 . S
H916 C913 0.950 . S
C917 C908 1.390 1_556 S
C917 H910 0.950 . S
C917 C914 1.387 . S
C918 C919 1.387 . S
C918 H922 0.950 . S
C918 C927 1.390 . S
C919 C918 1.387 . S
C919 C921 1.387 . S
H920 C927 0.950 . S
C921 C919 1.387 . S
C921 C923 1.390 . S
C921 H925 0.950 . S
H922 C918 0.950 . S
C923 C921 1.390 . S
C923 C924 1.387 . S
C923 H926 0.950 . S
C924 C923 1.387 . S
C924 C927 1.387 . S
H925 C921 0.950 . S
H926 C923 0.950 . S
C927 C918 1.390 . S
C927 H920 0.950 . S
C927 C924 1.387 . S
C928 C929 1.387 . S
C928 H932 0.950 . S
C928 C937 1.390 . S
C929 C928 1.387 . S
C929 C931 1.387 . S
H930 C937 0.950 . S
C931 C929 1.387 . S
C931 C933 1.390 . S
C931 H935 0.950 . S
H932 C928 0.950 . S
C933 C931 1.390 . S
C933 C934 1.387 . S
C933 H936 0.950 . S
C934 C933 1.387 . S
C934 C937 1.387 . S
H935 C931 0.950 . S
H936 C933 0.950 . S
C937 C928 1.390 . S
C937 H930 0.950 . S
C937 C934 1.387 . S
C938 C939 1.387 . S
C938 H942 0.950 . S
C938 C947 1.390 . S
C939 C938 1.387 . S
C939 C941 1.387 . S
H940 C947 0.950 . S
C941 C939 1.387 . S
C941 C943 1.390 . S
C941 H945 0.950 . S
H942 C938 0.950 . S
C943 C941 1.390 . S
C943 C944 1.387 . S
C943 H946 0.950 . S
C944 C943 1.387 . S
C944 C947 1.387 . S
H945 C941 0.950 . S
H946 C943 0.950 . S
C947 C938 1.390 . S
C947 H940 0.950 . S
C947 C944 1.387 . S
C948 C949 1.387 . S
C948 H952 0.950 . S
C948 C957 1.390 . S
C949 C948 1.387 . S
C949 C951 1.387 . S
H950 C957 0.950 . S
C951 C949 1.387 . S
C951 C953 1.390 . S
C951 H955 0.950 . S
H952 C948 0.950 . S
C953 C951 1.390 . S
C953 C954 1.387 . S
C953 H956 0.950 . S
C954 C953 1.387 . S
C954 C957 1.387 . S
H955 C951 0.950 . S
H956 C953 0.950 . S
C957 C948 1.390 . S
C957 H950 0.950 . S
C957 C954 1.387 . S
C958 C959 1.387 . S
C958 H962 0.950 . S
C958 C967 1.390 . S
C959 C958 1.387 . S
C959 C961 1.387 . S
H960 C967 0.950 . S
C961 C959 1.387 . S
C961 C963 1.390 . S
C961 H965 0.950 . S
H962 C958 0.950 . S
C963 C961 1.390 . S
C963 C964 1.387 . S
C963 H966 0.950 . S
C964 C963 1.387 . S
C964 C967 1.387 . S
H965 C961 0.950 . S
H966 C963 0.950 . S
C967 C958 1.390 . S
C967 H960 0.950 . S
C967 C964 1.387 . S
C968 C969 1.387 . S
C968 H972 0.950 . S
C968 C977 1.390 . S
C969 C968 1.387 . S
C969 C971 1.387 . S
H970 C977 0.950 . S
C971 C969 1.387 . S
C971 C973 1.390 . S
C971 H975 0.950 . S
H972 C968 0.950 . S
C973 C971 1.390 . S
C973 C974 1.387 . S
C973 H976 0.950 . S
C974 C973 1.387 . S
C974 C977 1.387 . S
H975 C971 0.950 . S
H976 C973 0.950 . S
C977 C968 1.390 . S
C977 H970 0.950 . S
C977 C974 1.387 . S
C978 C979 1.387 . S
C978 H982 0.950 . S
C978 C987 1.390 . S
C979 C978 1.387 . S
C979 C981 1.387 . S
H980 C987 0.950 . S
C981 C979 1.387 . S
C981 C983 1.390 . S
C981 H985 0.950 . S
H982 C978 0.950 . S
C983 C981 1.390 . S
C983 C984 1.387 . S
C983 H986 0.950 . S
C984 C983 1.387 . S
C984 C987 1.387 . S
H985 C981 0.950 . S
H986 C983 0.950 . S
C987 C978 1.390 . S
C987 H980 0.950 . S
C987 C984 1.387 . S
C988 C989 1.387 . S
C988 H992 0.950 . S
C988 C997 1.390 . S
C989 C988 1.387 . S
C989 C991 1.387 . S
H990 C997 0.950 . S
C991 C989 1.387 . S
C991 C993 1.390 . S
C991 H995 0.950 . S
H992 C988 0.950 . S
C993 C991 1.390 . S
C993 C994 1.387 . S
C993 H996 0.950 . S
C994 C993 1.387 . S
C994 C997 1.387 . S
H995 C991 0.950 . S
H996 C993 0.950 . S
C997 C988 1.390 . S
C997 H990 0.950 . S
C997 C994 1.387 . S
C998 C999 1.387 . S
C998 H1002 0.950 . S
C998 C1007 1.390 . S
C999 C998 1.387 . S
C999 C1001 1.387 . S
H1000 C1007 0.950 . S
C1001 C999 1.387 . S
C1001 C1003 1.390 . S
C1001 H1005 0.950 . S
H1002 C998 0.950 . S
C1003 C1001 1.390 . S
C1003 C1004 1.387 . S
C1003 H1006 0.950 . S
C1004 C1003 1.387 . S
C1004 C1007 1.387 . S
H1005 C1001 0.950 . S
H1006 C1003 0.950 . S
C1007 C998 1.390 . S
C1007 H1000 0.950 . S
C1007 C1004 1.387 . S
C1008 C1009 1.387 . S
C1008 H1012 0.950 . S
C1008 C1017 1.390 . S
C1009 C1008 1.387 . S
C1009 C1011 1.387 . S
H1010 C1017 0.950 . S
C1011 C1009 1.387 . S
C1011 C1013 1.390 . S
C1011 H1015 0.950 . S
H1012 C1008 0.950 . S
C1013 C1011 1.390 . S
C1013 C1014 1.387 . S
C1013 H1016 0.950 . S
C1014 C1013 1.387 . S
C1014 C1017 1.387 . S
H1015 C1011 0.950 . S
H1016 C1013 0.950 . S
C1017 C1008 1.390 . S
C1017 H1010 0.950 . S
C1017 C1014 1.387 . S
C1018 C1019 1.387 . S
C1018 H1022 0.950 . S
C1018 C1027 1.390 . S
C1019 C1018 1.387 . S
C1019 C1021 1.387 . S
H1020 C1027 0.950 . S
C1021 C1019 1.387 . S
C1021 C1023 1.390 . S
C1021 H1025 0.950 . S
H1022 C1018 0.950 . S
C1023 C1021 1.390 . S
C1023 C1024 1.387 . S
C1023 H1026 0.950 . S
C1024 C1023 1.387 . S
C1024 C1027 1.387 . S
H1025 C1021 0.950 . S
H1026 C1023 0.950 . S
C1027 C1018 1.390 . S
C1027 H1020 0.950 . S
C1027 C1024 1.387 . S
C1028 C1029 1.387 . S
C1028 H1032 0.950 . S
C1028 C1037 1.390 . S
C1029 C1028 1.387 . S
C1029 C1031 1.387 . S
H1030 C1037 0.950 . S
C1031 C1029 1.387 . S
C1031 C1033 1.390 . S
C1031 H1035 0.950 . S
H1032 C1028 0.950 . S
C1033 C1031 1.390 . S
C1033 C1034 1.387 . S
C1033 H1036 0.950 . S
C1034 C1033 1.387 . S
C1034 C1037 1.387 . S
H1035 C1031 0.950 . S
H1036 C1033 0.950 . S
C1037 C1028 1.390 . S
C1037 H1030 0.950 . S
C1037 C1034 1.387 . S
C1038 C1039 1.387 . S
C1038 H1042 0.950 . S
C1038 C1047 1.390 . S
C1039 C1038 1.387 . S
C1039 C1041 1.387 . S
H1040 C1047 0.950 . S
C1041 C1039 1.387 . S
C1041 C1043 1.390 . S
C1041 H1045 0.950 . S
H1042 C1038 0.950 . S
C1043 C1041 1.390 . S
C1043 C1044 1.387 . S
C1043 H1046 0.950 . S
C1044 C1043 1.387 . S
C1044 C1047 1.387 . S
H1045 C1041 0.950 . S
H1046 C1043 0.950 . S
C1047 C1038 1.390 . S
C1047 H1040 0.950 . S
C1047 C1044 1.387 . S
C1048 C1049 1.387 . S
C1048 H1052 0.950 . S
C1048 C1057 1.390 . S
C1049 C1048 1.387 . S
C1049 C1051 1.387 . S
H1050 C1057 0.950 . S
C1051 C1049 1.387 . S
C1051 C1053 1.390 . S
C1051 H1055 0.950 . S
H1052 C1048 0.950 . S
C1053 C1051 1.390 . S
C1053 C1054 1.387 . S
C1053 H1056 0.950 . S
C1054 C1053 1.387 . S
C1054 C1057 1.387 . S
H1055 C1051 0.950 . S
H1056 C1053 0.950 . S
C1057 C1048 1.390 . S
C1057 H1050 0.950 . S
C1057 C1054 1.387 . S
C1058 C1059 1.387 . S
C1058 H1062 0.950 . S
C1058 C1067 1.390 . S
C1059 C1058 1.387 . S
C1059 C1061 1.387 . S
H1060 C1067 0.950 . S
C1061 C1059 1.387 . S
C1061 C1063 1.390 . S
C1061 H1065 0.950 . S
H1062 C1058 0.950 . S
C1063 C1061 1.390 . S
C1063 C1064 1.387 . S
C1063 H1066 0.950 . S
C1064 C1063 1.387 . S
C1064 C1067 1.387 . S
H1065 C1061 0.950 . S
H1066 C1063 0.950 . S
C1067 C1058 1.390 . S
C1067 H1060 0.950 . S
C1067 C1064 1.387 . S
C1068 C1069 1.387 . S
C1068 H1072 0.950 . S
C1068 C1077 1.390 . S
C1069 C1068 1.387 . S
C1069 C1071 1.387 . S
H1070 C1077 0.950 . S
C1071 C1069 1.387 . S
C1071 C1073 1.390 . S
C1071 H1075 0.950 . S
H1072 C1068 0.950 . S
C1073 C1071 1.390 . S
C1073 C1074 1.387 . S
C1073 H1076 0.950 . S
C1074 C1073 1.387 . S
C1074 C1077 1.387 . S
H1075 C1071 0.950 . S
H1076 C1073 0.950 . S
C1077 C1068 1.390 . S
C1077 H1070 0.950 . S
C1077 C1074 1.387 . S
C1078 C1079 1.387 . S
C1078 H1082 0.950 . S
C1078 C1087 1.390 . S
C1079 C1078 1.387 . S
C1079 C1081 1.387 . S
H1080 C1087 0.950 . S
C1081 C1079 1.387 . S
C1081 C1083 1.390 . S
C1081 H1085 0.950 . S
H1082 C1078 0.950 . S
C1083 C1081 1.390 . S
C1083 C1084 1.387 . S
C1083 H1086 0.950 . S
C1084 C1083 1.387 . S
C1084 C1087 1.387 . S
H1085 C1081 0.950 . S
H1086 C1083 0.950 . S
C1087 C1078 1.390 . S
C1087 H1080 0.950 . S
C1087 C1084 1.387 . S
C449 C385 1.363 . S
C454 C9 1.348 . S
C459 C23 1.346 . S
C464 C119 1.365 . S
C469 C357 1.363 . S
C474 C37 1.348 . S
C479 C51 1.348 . S
C484 C147 1.363 . S
C489 C65 1.349 . S
C494 C413 1.363 . S
C499 C79 1.347 . S
C504 C203 1.365 . S
C509 C93 1.349 . S
C514 C441 1.363 . S
C519 C107 1.348 . S
C524 C175 1.363 . S
C529 C273 1.363 . S
C534 C121 1.348 . S
C539 C7 1.363 . S
C544 C135 1.348 . S
C549 C245 1.365 . S
C554 C149 1.346 . S
C559 C163 1.346 . S
C564 C35 1.365 . S
C569 C301 1.365 . S
C574 C177 1.346 . S
C579 C91 1.365 . S
C584 C191 1.346 . S
C589 C205 1.346 . S
C594 C329 1.365 . S
C599 C63 1.365 . S
C604 C219 1.347 . S
C609 C233 1.349 . S
C614 C161 1.363 . S
C619 C247 1.347 . S
C624 C343 1.365 . S
C629 C133 1.363 . S
C634 C261 1.349 . S
C639 C371 1.363 . S
C644 C275 1.348 . S
C649 C189 1.365 . S
C654 C289 1.346 . S
C659 C427 1.365 . S
C664 C303 1.346 . S
C669 C217 1.365 . S
C674 C317 1.348 . S
C679 C331 1.348 . S
C684 C399 1.363 . S
C689 C49 1.363 . S
C694 C345 1.349 . S
C699 C359 1.346 . S
C704 C231 1.365 . S
C709 C373 1.349 . S
C714 C21 1.363 . S
C719 C387 1.349 . S
C724 C259 1.364 . S
C729 C401 1.349 . S
C734 C77 1.364 . S
C739 C415 1.346 . S
C744 C315 1.365 . S
C749 C429 1.349 . S
C754 C105 1.364 . S
C759 C443 1.346 . S
C764 C287 1.365 . S
C769 C339 1.521 . S
C774 C3 1.521 . S
C779 C17 1.522 . S
C784 C129 1.522 . S
C789 C367 1.522 . S
C794 C31 1.522 . S
C799 C45 1.521 . S
C804 C157 1.521 . S
C809 C395 1.521 . S
C814 C59 1.521 . S
C819 C73 1.521 . S
C824 C185 1.521 . S
C829 C423 1.522 . S
C834 C87 1.522 . S
C839 C101 1.521 . S
C844 C213 1.521 . S
C849 C115 1.522 . S
C854 C227 1.522 . S
C859 C143 1.521 . S
C864 C255 1.521 . S
C869 C171 1.521 . S
C874 C283 1.521 . S
C879 C199 1.521 . S
C884 C311 1.521 . S
C889 C241 1.521 . S
C894 C353 1.521 . S
C899 C381 1.521 . S
C904 C269 1.521 . S
C909 C409 1.521 . S
C914 C297 1.521 . S
C919 C325 1.521 . S
C924 C437 1.521 . S
C929 C8 1.477 . S
C934 C78 1.478 . S
C939 C22 1.477 . S
C944 C92 1.478 . S
C949 C36 1.478 . S
C954 C106 1.477 . S
C959 C64 1.477 . S
C964 C50 1.477 . S
C969 C120 1.478 . S
C974 C190 1.477 . S
C979 C134 1.478 . S
C984 C204 1.478 . S
C989 C148 1.478 . S
C994 C218 1.477 . S
C999 C162 1.478 . S
C1004 C176 1.478 . S
C1009 C232 1.477 . S
C1014 C302 1.477 . S
C1019 C316 1.478 . S
C1024 C246 1.478 . S
C1029 C260 1.477 . S
C1034 C330 1.477 . S
C1039 C274 1.478 . S
C1044 C288 1.477 . S
C1049 C414 1.478 . S
C1054 C344 1.477 . S
C1059 C358 1.478 . S
C1064 C428 1.478 . S
C1069 C442 1.478 . S
C1074 C372 1.478 . S
C1079 C386 1.478 . S
C1084 C400 1.478 . S
