# Generated by pormake.
# Topology vba, (4)-cn, num edge types: 1
# Building blocks:
#     Node 0, Type 0, BuildingBlock: GALJAG_clean_sbu_0, # of connection points: 4
#     Node 1, Type 0, BuildingBlock: GALJAG_clean_sbu_0, # of connection points: 4
#     Node 2, Type 0, BuildingBlock: GALJAG_clean_sbu_0, # of connection points: 4
#     Node 3, Type 0, BuildingBlock: GALJAG_clean_sbu_0, # of connection points: 4
#     Node 4, Type 0, BuildingBlock: GALJAG_clean_sbu_0, # of connection points: 4
#     Node 5, Type 0, BuildingBlock: GALJAG_clean_sbu_0, # of connection points: 4
#     Node 6, Type 0, BuildingBlock: GALJAG_clean_sbu_0, # of connection points: 4
#     Node 7, Type 0, BuildingBlock: GALJAG_clean_sbu_0, # of connection points: 4
#     Node 8, Type 0, BuildingBlock: GALJAG_clean_sbu_0, # of connection points: 4
#     Node 9, Type 0, BuildingBlock: GALJAG_clean_sbu_0, # of connection points: 4
#     Node 10, Type 0, BuildingBlock: GALJAG_clean_sbu_0, # of connection points: 4
#     Node 11, Type 0, BuildingBlock: GALJAG_clean_sbu_0, # of connection points: 4
#     Node 12, Type 0, BuildingBlock: GALJAG_clean_sbu_0, # of connection points: 4
#     Node 13, Type 0, BuildingBlock: GALJAG_clean_sbu_0, # of connection points: 4
#     Node 14, Type 0, BuildingBlock: GALJAG_clean_sbu_0, # of connection points: 4
#     Node 15, Type 0, BuildingBlock: GALJAG_clean_sbu_0, # of connection points: 4
#     Node 16, Type 0, BuildingBlock: GALJAG_clean_sbu_0, # of connection points: 4
#     Node 17, Type 0, BuildingBlock: GALJAG_clean_sbu_0, # of connection points: 4
#     Node 18, Type 0, BuildingBlock: GALJAG_clean_sbu_0, # of connection points: 4
#     Node 19, Type 0, BuildingBlock: GALJAG_clean_sbu_0, # of connection points: 4
#     Node 20, Type 0, BuildingBlock: GALJAG_clean_sbu_0, # of connection points: 4
#     Node 21, Type 0, BuildingBlock: GALJAG_clean_sbu_0, # of connection points: 4
#     Node 22, Type 0, BuildingBlock: GALJAG_clean_sbu_0, # of connection points: 4
#     Node 23, Type 0, BuildingBlock: GALJAG_clean_sbu_0, # of connection points: 4
#     Node 24, Type 0, BuildingBlock: GALJAG_clean_sbu_0, # of connection points: 4
#     Node 25, Type 0, BuildingBlock: GALJAG_clean_sbu_0, # of connection points: 4
#     Node 26, Type 0, BuildingBlock: GALJAG_clean_sbu_0, # of connection points: 4
#     Node 27, Type 0, BuildingBlock: GALJAG_clean_sbu_0, # of connection points: 4
#     Node 28, Type 0, BuildingBlock: GALJAG_clean_sbu_0, # of connection points: 4
#     Node 29, Type 0, BuildingBlock: GALJAG_clean_sbu_0, # of connection points: 4
#     Node 30, Type 0, BuildingBlock: GALJAG_clean_sbu_0, # of connection points: 4
#     Node 31, Type 0, BuildingBlock: GALJAG_clean_sbu_0, # of connection points: 4
#     Edge 32, Type (0, 0), None
#     Edge 33, Type (0, 0), None
#     Edge 34, Type (0, 0), None
#     Edge 35, Type (0, 0), None
#     Edge 36, Type (0, 0), None
#     Edge 37, Type (0, 0), None
#     Edge 38, Type (0, 0), None
#     Edge 39, Type (0, 0), None
#     Edge 40, Type (0, 0), None
#     Edge 41, Type (0, 0), None
#     Edge 42, Type (0, 0), None
#     Edge 43, Type (0, 0), None
#     Edge 44, Type (0, 0), None
#     Edge 45, Type (0, 0), None
#     Edge 46, Type (0, 0), None
#     Edge 47, Type (0, 0), None
#     Edge 48, Type (0, 0), None
#     Edge 49, Type (0, 0), None
#     Edge 50, Type (0, 0), None
#     Edge 51, Type (0, 0), None
#     Edge 52, Type (0, 0), None
#     Edge 53, Type (0, 0), None
#     Edge 54, Type (0, 0), None
#     Edge 55, Type (0, 0), None
#     Edge 56, Type (0, 0), None
#     Edge 57, Type (0, 0), None
#     Edge 58, Type (0, 0), None
#     Edge 59, Type (0, 0), None
#     Edge 60, Type (0, 0), None
#     Edge 61, Type (0, 0), None
#     Edge 62, Type (0, 0), None
#     Edge 63, Type (0, 0), None
#     Edge 64, Type (0, 0), None
#     Edge 65, Type (0, 0), None
#     Edge 66, Type (0, 0), None
#     Edge 67, Type (0, 0), None
#     Edge 68, Type (0, 0), None
#     Edge 69, Type (0, 0), None
#     Edge 70, Type (0, 0), None
#     Edge 71, Type (0, 0), None
#     Edge 72, Type (0, 0), None
#     Edge 73, Type (0, 0), None
#     Edge 74, Type (0, 0), None
#     Edge 75, Type (0, 0), None
#     Edge 76, Type (0, 0), None
#     Edge 77, Type (0, 0), None
#     Edge 78, Type (0, 0), None
#     Edge 79, Type (0, 0), None
#     Edge 80, Type (0, 0), None
#     Edge 81, Type (0, 0), None
#     Edge 82, Type (0, 0), None
#     Edge 83, Type (0, 0), None
#     Edge 84, Type (0, 0), None
#     Edge 85, Type (0, 0), None
#     Edge 86, Type (0, 0), None
#     Edge 87, Type (0, 0), None
#     Edge 88, Type (0, 0), None
#     Edge 89, Type (0, 0), None
#     Edge 90, Type (0, 0), None
#     Edge 91, Type (0, 0), None
#     Edge 92, Type (0, 0), None
#     Edge 93, Type (0, 0), None
#     Edge 94, Type (0, 0), None
#     Edge 95, Type (0, 0), None
# Relax obj value: 0.079
# Max RMSD: 0.280
# Mean RMSD: 0.277
data_MOF--net-vba--node1-GALJAG_clean_sbu_0--edge1-none
_symmetry_space_group_name_H-M    P1
_symmetry_Int_Tables_number       1
_symmetry_cell_setting            triclinic
loop_
_symmetry_equiv_pos_as_xyz
'x, y, z'
_cell_length_a     9.2625857
_cell_length_b     45.645127
_cell_length_c     24.793125
_cell_angle_alpha  90.001162
_cell_angle_beta   90.000008
_cell_angle_gamma 89.986196
loop_
_atom_site_label
_atom_site_type_symbol
_atom_site_fract_x
_atom_site_fract_y
_atom_site_fract_z
_atom_type_partial_charge
In0 In 0.29515 0.02579 -0.00833 0.0
O1 O 0.24661 0.02049 0.9036 0.0
O2 O 0.44822 0.04101 0.92788 0.0
C3 C 0.1798 0.01323 0.08627 0.0
C4 C 0.46747 -0.01985 -0.01059 0.0
C5 C 0.17569 0.07827 -0.00599 0.0
O6 O 0.11437 0.00742 0.04231 0.0
O7 O 0.3054 0.02428 0.08201 0.0
O8 O 0.30889 0.07457 0.00539 0.0
O9 O 0.10463 0.05553 0.98111 0.0
C10 C 0.36729 0.03186 0.89005 0.0
O11 O 0.50896 0.00472 0.00848 0.0
O12 O 0.33609 -0.02166 0.97446 0.0
In13 In 0.98865 0.15971 -0.00834 0.0
O14 O 0.03719 0.16501 0.9036 0.0
O15 O 0.83558 0.14449 0.92788 0.0
C16 C 0.104 0.17227 0.08627 0.0
C17 C 0.81632 0.20535 -0.01059 0.0
C18 C 0.10809 0.10722 -0.006 0.0
O19 O 0.16943 0.17808 0.04231 0.0
O20 O 0.9784 0.16122 0.082 0.0
O21 O 0.9749 0.11092 0.00539 0.0
O22 O 0.17916 0.12996 0.9811 0.0
C23 C 0.91651 0.15363 0.89005 0.0
O24 O 0.77483 0.18078 0.00848 0.0
O25 O 0.9477 0.20715 0.97445 0.0
In26 In 0.29475 0.15975 0.23271 0.0
O27 O 0.50843 0.18076 0.21546 0.0
O28 O 0.336 0.20722 0.2496 0.0
C29 C 0.17562 0.10723 0.23048 0.0
C30 C 0.36739 0.1537 0.3343 0.0
C31 C 0.17873 0.17224 0.13821 0.0
O32 O 0.30875 0.11095 0.21903 0.0
O33 O 0.10445 0.12996 0.24339 0.0
O34 O 0.11348 0.17807 0.1822 0.0
O35 O 0.30438 0.1612 0.1424 0.0
C36 C 0.46717 0.20538 0.2344 0.0
O37 O 0.24668 0.16509 0.32082 0.0
O38 O 0.44819 0.14455 0.29642 0.0
In39 In 0.98905 0.02576 0.23272 0.0
O40 O 0.77538 0.00474 0.21547 0.0
O41 O 0.9478 -0.02171 0.24961 0.0
C42 C 0.10817 0.07827 0.23048 0.0
C43 C 0.91639 0.03181 0.3343 0.0
C44 C 0.10507 0.01326 0.13821 0.0
O45 O 0.97505 0.07455 0.21903 0.0
O46 O 0.17934 0.05554 0.24339 0.0
O47 O 0.17033 0.00743 0.1822 0.0
O48 O 0.97941 0.0243 0.1424 0.0
C49 C 0.81664 -0.01987 0.2344 0.0
O50 O 0.03711 0.02042 0.32082 0.0
O51 O 0.8356 0.04095 0.29642 0.0
In52 In 0.73866 0.90971 0.98191 0.0
O53 O 0.52484 0.93078 0.96509 0.0
O54 O 0.69772 0.95716 -0.00088 0.0
C55 C 0.85812 0.85723 0.97957 0.0
C56 C 0.66652 0.90364 0.08353 0.0
C57 C 0.85401 0.92227 0.8873 0.0
O58 O 0.72492 0.86093 0.96819 0.0
O59 O 0.92918 0.87997 -0.00753 0.0
O60 O 0.91944 0.92808 0.93126 0.0
O61 O 0.72841 0.91122 0.89157 0.0
C62 C 0.56633 0.95535 0.98417 0.0
O63 O 0.78719 0.91501 0.06998 0.0
O64 O 0.58559 0.89449 0.04569 0.0
In65 In 0.04516 0.77579 0.98191 0.0
O66 O 0.99662 0.77049 0.06998 0.0
O67 O 0.19823 0.79101 0.0457 0.0
C68 C 0.92981 0.76323 0.88731 0.0
C69 C 0.21748 0.73015 0.98417 0.0
C70 C 0.92572 0.82828 0.97957 0.0
O71 O 0.86438 0.75742 0.93127 0.0
O72 O 0.05541 0.77428 0.89157 0.0
O73 O 0.05891 0.82458 0.96819 0.0
O74 O 0.85465 0.80554 -0.00753 0.0
C75 C 0.1173 0.78187 0.08353 0.0
O76 O 0.25898 0.75472 0.9651 0.0
O77 O 0.0861 0.72835 -0.00088 0.0
In78 In 0.73905 0.77575 0.74086 0.0
O79 O 0.78712 0.77041 0.65276 0.0
O80 O 0.58562 0.79095 0.67715 0.0
C81 C 0.85508 0.76326 0.83537 0.0
C82 C 0.56663 0.73012 0.73918 0.0
C83 C 0.85819 0.82827 0.7431 0.0
O84 O 0.92033 0.75743 0.79138 0.0
O85 O 0.72942 0.7743 0.83118 0.0
O86 O 0.72506 0.82454 0.75455 0.0
O87 O 0.92935 0.80554 0.73018 0.0
C88 C 0.66641 0.7818 0.63928 0.0
O89 O 0.52538 0.75474 0.75811 0.0
O90 O 0.6978 0.72828 0.72398 0.0
In91 In 0.04476 0.90974 0.74086 0.0
O92 O 0.99669 0.91508 0.65276 0.0
O93 O 0.1982 0.89455 0.67715 0.0
C94 C 0.92873 0.92224 0.83537 0.0
C95 C 0.21717 0.95537 0.73917 0.0
C96 C 0.92563 0.85723 0.7431 0.0
O97 O 0.86348 0.92806 0.79137 0.0
O98 O 0.05439 0.9112 0.83118 0.0
O99 O 0.05876 0.86095 0.75455 0.0
O100 O 0.85446 0.87996 0.73018 0.0
C101 C 0.11741 0.90369 0.63927 0.0
O102 O 0.25843 0.93075 0.75811 0.0
O103 O 0.086 0.95721 0.72397 0.0
In104 In 0.29499 0.52577 0.49166 0.0
O105 O 0.24658 0.52047 0.40359 0.0
O106 O 0.44815 0.54099 0.42792 0.0
C107 C 0.17941 0.51321 0.58623 0.0
C108 C 0.46743 0.48014 0.48942 0.0
C109 C 0.17569 0.57827 0.494 0.0
O110 O 0.11405 0.50741 0.54225 0.0
O111 O 0.30505 0.52424 0.582 0.0
O112 O 0.30886 0.57455 0.50541 0.0
O113 O 0.10458 0.55554 0.48107 0.0
C114 C 0.36729 0.53184 0.39006 0.0
O115 O 0.50883 0.50471 0.50852 0.0
O116 O 0.33607 0.47833 0.47444 0.0
In117 In 0.98886 0.65974 0.49166 0.0
O118 O 0.03728 0.66504 0.40358 0.0
O119 O 0.83572 0.64451 0.42791 0.0
C120 C 0.1044 0.6723 0.58623 0.0
C121 C 0.81643 0.70536 0.4894 0.0
C122 C 0.10817 0.60723 0.49399 0.0
O123 O 0.16978 0.6781 0.54225 0.0
O124 O 0.97876 0.66127 0.58199 0.0
O125 O 0.975 0.61095 0.5054 0.0
O126 O 0.17929 0.62996 0.48107 0.0
C127 C 0.91658 0.65366 0.39006 0.0
O128 O 0.77502 0.6808 0.5085 0.0
O129 O 0.94779 0.70718 0.47443 0.0
In130 In 0.29512 0.65971 0.73265 0.0
O131 O 0.24687 0.66507 0.82074 0.0
O132 O 0.44833 0.64449 0.79642 0.0
C133 C 0.17919 0.67226 0.63815 0.0
C134 C 0.46773 0.70531 0.73438 0.0
C135 C 0.17567 0.60723 0.73036 0.0
O136 O 0.11398 0.67809 0.68215 0.0
O137 O 0.30478 0.66119 0.64233 0.0
O138 O 0.30884 0.61092 0.71895 0.0
O139 O 0.10463 0.62997 0.74328 0.0
C140 C 0.36749 0.65366 0.83427 0.0
O141 O 0.50894 0.68069 0.71545 0.0
O142 O 0.33655 0.70717 0.74956 0.0
In143 In 0.98862 0.52579 0.73265 0.0
O144 O 0.0369 0.52043 0.82073 0.0
O145 O 0.83542 0.54101 0.79642 0.0
C146 C 0.1046 0.51325 0.63815 0.0
C147 C 0.81602 0.48019 0.73437 0.0
C148 C 0.10805 0.57828 0.73037 0.0
O149 O 0.16979 0.50741 0.68215 0.0
O150 O 0.979 0.52432 0.64232 0.0
O151 O 0.97488 0.57459 0.71894 0.0
O152 O 0.1791 0.55554 0.74327 0.0
C153 C 0.91627 0.53184 0.83427 0.0
O154 O 0.7748 0.50481 0.71544 0.0
O155 O 0.9472 0.47834 0.74955 0.0
In156 In 0.73881 0.40973 0.48191 0.0
O157 O 0.52497 0.43079 0.46506 0.0
O158 O 0.69773 0.45717 0.49914 0.0
C159 C 0.85812 0.35723 0.47958 0.0
C160 C 0.66652 0.40366 0.58351 0.0
C161 C 0.85439 0.42229 0.38735 0.0
O162 O 0.72495 0.36094 0.46817 0.0
O163 O 0.92923 0.37995 0.4925 0.0
O164 O 0.91975 0.42809 0.43133 0.0
O165 O 0.72875 0.41126 0.39158 0.0
C166 C 0.56637 0.45536 0.48416 0.0
O167 O 0.78722 0.41503 0.56999 0.0
O168 O 0.58566 0.39451 0.54566 0.0
In169 In 0.04494 0.27576 0.48192 0.0
O170 O 0.99653 0.27046 0.57 0.0
O171 O 0.19809 0.29099 0.54567 0.0
C172 C 0.92941 0.2632 0.38735 0.0
C173 C 0.21738 0.23014 0.48417 0.0
C174 C 0.92564 0.32827 0.47958 0.0
O175 O 0.86402 0.2574 0.43132 0.0
O176 O 0.05504 0.27423 0.39159 0.0
O177 O 0.0588 0.32455 0.46818 0.0
O178 O 0.85452 0.30554 0.4925 0.0
C179 C 0.11723 0.28184 0.58352 0.0
O180 O 0.25878 0.2547 0.46507 0.0
O181 O 0.08602 0.22832 0.49914 0.0
In182 In 0.73868 0.27579 0.24092 0.0
O183 O 0.78694 0.27043 0.15284 0.0
O184 O 0.58547 0.29101 0.17716 0.0
C185 C 0.85462 0.26324 0.33542 0.0
C186 C 0.56607 0.23019 0.2392 0.0
C187 C 0.85814 0.32827 0.24321 0.0
O188 O 0.91983 0.25741 0.29142 0.0
O189 O 0.72903 0.27431 0.33125 0.0
O190 O 0.72497 0.32458 0.25463 0.0
O191 O 0.92918 0.30553 0.2303 0.0
C192 C 0.66631 0.28184 0.13931 0.0
O193 O 0.52486 0.25481 0.25813 0.0
O194 O 0.69725 0.22833 0.22402 0.0
In195 In 0.04518 0.40971 0.24093 0.0
O196 O 0.259 0.43069 0.25814 0.0
O197 O 0.0866 0.45716 0.22403 0.0
C198 C 0.92575 0.35722 0.24321 0.0
C199 C 0.11753 0.40366 0.13931 0.0
C200 C 0.9292 0.42225 0.33543 0.0
O201 O 0.05892 0.36091 0.25463 0.0
O202 O 0.85471 0.37996 0.2303 0.0
O203 O 0.86401 0.42809 0.29142 0.0
O204 O 0.0548 0.41118 0.33126 0.0
C205 C 0.21778 0.45531 0.23921 0.0
O206 O 0.99691 0.41507 0.15285 0.0
O207 O 0.19838 0.39449 0.17716 0.0
In208 In 0.79498 0.02577 0.49167 0.0
O209 O 0.7466 0.02046 0.40359 0.0
O210 O 0.94815 0.04099 0.42792 0.0
C211 C 0.67943 0.0132 0.58623 0.0
C212 C 0.96743 -0.01986 0.48942 0.0
C213 C 0.67563 0.07827 0.494 0.0
O214 O 0.61406 0.0074 0.54226 0.0
O215 O 0.80506 0.02424 0.582 0.0
O216 O 0.8088 0.07455 0.50541 0.0
O217 O 0.60454 0.05554 0.48107 0.0
C218 C 0.86731 0.03183 0.39007 0.0
O219 O 1.00882 0.00471 0.50852 0.0
O220 O 0.83607 -0.02167 0.47444 0.0
In221 In 0.48877 0.15973 0.49167 0.0
O222 O 0.53717 0.16504 0.40359 0.0
O223 O 0.33561 0.14451 0.42792 0.0
C224 C 0.60435 0.17229 0.58624 0.0
C225 C 0.31632 0.20535 0.48943 0.0
C226 C 0.60809 0.10722 0.49399 0.0
O227 O 0.66971 0.17809 0.54226 0.0
O228 O 0.47871 0.16126 0.58201 0.0
O229 O 0.47492 0.11094 0.5054 0.0
O230 O 0.67919 0.12995 0.48107 0.0
C231 C 0.41646 0.15367 0.39007 0.0
O232 O 0.27492 0.18078 0.50853 0.0
O233 O 0.44768 0.20717 0.47446 0.0
In234 In 0.79514 0.1597 0.73265 0.0
O235 O 1.00895 0.18069 0.71544 0.0
O236 O 0.83656 0.20716 0.74956 0.0
C237 C 0.67571 0.10722 0.73037 0.0
C238 C 0.86755 0.15366 0.83426 0.0
C239 C 0.67916 0.17225 0.63816 0.0
O240 O 0.80887 0.11091 0.71895 0.0
O241 O 0.60467 0.12996 0.74329 0.0
O242 O 0.61397 0.17808 0.68216 0.0
O243 O 0.80476 0.16118 0.64233 0.0
C244 C 0.96773 0.20531 0.73437 0.0
O245 O 0.74691 0.16507 0.82074 0.0
O246 O 0.94838 0.14449 0.79641 0.0
In247 In 0.48866 0.02579 0.73265 0.0
O248 O 0.27485 0.0048 0.71544 0.0
O249 O 0.44724 -0.02167 0.74955 0.0
C250 C 0.60809 0.07827 0.73038 0.0
C251 C 0.41625 0.03183 0.83427 0.0
C252 C 0.60463 0.01324 0.63816 0.0
O253 O 0.47493 0.07458 0.71895 0.0
O254 O 0.67914 0.05553 0.74329 0.0
O255 O 0.66983 0.00741 0.68216 0.0
O256 O 0.47903 0.02431 0.64233 0.0
C257 C 0.31607 -0.01982 0.73437 0.0
O258 O 0.53689 0.02043 0.82074 0.0
O259 O 0.33543 0.041 0.79642 0.0
In260 In 0.23883 0.90973 0.48191 0.0
O261 O 0.02498 0.93079 0.46506 0.0
O262 O 0.19774 0.95717 0.49914 0.0
C263 C 0.35818 0.85723 0.47958 0.0
C264 C 0.16649 0.90367 0.58351 0.0
C265 C 0.35438 0.9223 0.38734 0.0
O266 O 0.22501 0.86095 0.46817 0.0
O267 O 0.42927 0.87996 0.49251 0.0
O268 O 0.41975 0.9281 0.43132 0.0
O269 O 0.22875 0.91126 0.39158 0.0
C270 C 0.06638 0.95536 0.48416 0.0
O271 O 0.28721 0.91504 0.56999 0.0
O272 O 0.08566 0.89451 0.54565 0.0
In273 In 0.54504 0.77577 0.48191 0.0
O274 O 0.75888 0.75471 0.46505 0.0
O275 O 0.58612 0.72833 0.49912 0.0
C276 C 0.42572 0.82828 0.47958 0.0
C277 C 0.61735 0.78183 0.58351 0.0
C278 C 0.42946 0.76321 0.38734 0.0
O279 O 0.55888 0.82456 0.46817 0.0
O280 O 0.35461 0.80555 0.4925 0.0
O281 O 0.3641 0.75741 0.43132 0.0
O282 O 0.5551 0.77424 0.39157 0.0
C283 C 0.71748 0.73015 0.48415 0.0
O284 O 0.49663 0.77046 0.56998 0.0
O285 O 0.69819 0.79099 0.54566 0.0
In286 In 0.23866 0.77579 0.24093 0.0
O287 O 0.28689 0.77043 0.15284 0.0
O288 O 0.08543 0.79101 0.17716 0.0
C289 C 0.35465 0.76325 0.33542 0.0
C290 C 0.06607 0.73019 0.2392 0.0
C291 C 0.3581 0.82828 0.2432 0.0
O292 O 0.41984 0.75742 0.29142 0.0
O293 O 0.22904 0.77432 0.33125 0.0
O294 O 0.22493 0.82459 0.25463 0.0
O295 O 0.42914 0.80554 0.23029 0.0
C296 C 0.16625 0.78184 0.13931 0.0
O297 O 0.02485 0.75481 0.25814 0.0
O298 O 0.19725 0.72834 0.22402 0.0
In299 In 0.54514 0.90971 0.24092 0.0
O300 O 0.49691 0.91507 0.15283 0.0
O301 O 0.69838 0.89449 0.17716 0.0
C302 C 0.42918 0.92226 0.33542 0.0
C303 C 0.71774 0.95532 0.2392 0.0
C304 C 0.42571 0.85723 0.2432 0.0
O305 O 0.36398 0.92809 0.29142 0.0
O306 O 0.55478 0.91119 0.33125 0.0
O307 O 0.55888 0.86092 0.25463 0.0
O308 O 0.35466 0.87997 0.23029 0.0
C309 C 0.61756 0.90367 0.13931 0.0
O310 O 0.75895 0.93069 0.25813 0.0
O311 O 0.58656 0.95717 0.22402 0.0
In312 In 0.79516 0.52579 -0.00834 0.0
O313 O 1.00897 0.50472 0.00848 0.0
O314 O 0.83609 0.47835 0.97446 0.0
C315 C 0.6757 0.57827 -0.006 0.0
C316 C 0.86732 0.53186 0.89005 0.0
C317 C 0.67981 0.51323 0.08627 0.0
O318 O 0.80889 0.57458 0.00538 0.0
O319 O 0.60464 0.55554 0.9811 0.0
O320 O 0.61437 0.50743 0.04231 0.0
O321 O 0.80541 0.52428 0.082 0.0
C322 C 0.96747 0.48015 -0.01059 0.0
O323 O 0.74663 0.52049 0.90359 0.0
O324 O 0.94824 0.54101 0.92788 0.0
In325 In 0.48865 0.65971 -0.00834 0.0
O326 O 0.53715 0.66501 0.90359 0.0
O327 O 0.33555 0.64449 0.92789 0.0
C328 C 0.60402 0.67227 0.08627 0.0
C329 C 0.31634 0.70535 -0.01059 0.0
C330 C 0.6081 0.60722 -0.00601 0.0
O331 O 0.66944 0.67807 0.04231 0.0
O332 O 0.47841 0.66122 0.082 0.0
O333 O 0.47491 0.61093 0.00538 0.0
O334 O 0.67916 0.62996 0.98109 0.0
C335 C 0.41646 0.65364 0.89005 0.0
O336 O 0.27485 0.68079 0.00849 0.0
O337 O 0.44772 0.70715 0.97446 0.0
In338 In 0.79478 0.65974 0.23271 0.0
O339 O 0.74676 0.66508 0.32082 0.0
O340 O 0.94826 0.64455 0.2964 0.0
C341 C 0.67875 0.67224 0.1382 0.0
C342 C 0.96718 0.70538 0.2344 0.0
C343 C 0.67564 0.60723 0.23048 0.0
O344 O 0.6135 0.67807 0.1822 0.0
O345 O 0.80441 0.6612 0.14239 0.0
O346 O 0.80877 0.61095 0.21903 0.0
O347 O 0.60448 0.62996 0.2434 0.0
C348 C 0.86749 0.6537 0.33429 0.0
O349 O 1.00844 0.68076 0.21546 0.0
O350 O 0.83601 0.70722 0.24961 0.0
In351 In 0.48906 0.52576 0.23272 0.0
O352 O 0.5371 0.52042 0.32082 0.0
O353 O 0.3356 0.54095 0.29641 0.0
C354 C 0.60508 0.51326 0.13821 0.0
C355 C 0.31667 0.48012 0.23441 0.0
C356 C 0.6082 0.57827 0.23049 0.0
O357 O 0.67034 0.50743 0.1822 0.0
O358 O 0.47942 0.5243 0.1424 0.0
O359 O 0.47507 0.57455 0.21903 0.0
O360 O 0.67936 0.55554 0.2434 0.0
C361 C 0.41637 0.5318 0.3343 0.0
O362 O 0.27541 0.50474 0.21547 0.0
O363 O 0.44784 0.47828 0.24961 0.0
In364 In 0.23865 0.40971 0.98191 0.0
O365 O 0.28717 0.41501 0.06998 0.0
O366 O 0.08557 0.39449 0.04569 0.0
C367 C 0.354 0.42227 0.88731 0.0
C368 C 0.06633 0.45535 0.98417 0.0
C369 C 0.35811 0.35722 0.97958 0.0
O370 O 0.41943 0.42807 0.93127 0.0
O371 O 0.2284 0.41122 0.89157 0.0
O372 O 0.22491 0.36092 0.9682 0.0
O373 O 0.42917 0.37996 -0.00752 0.0
C374 C 0.16648 0.40364 0.08353 0.0
O375 O 0.02484 0.43078 0.96509 0.0
O376 O 0.19771 0.45715 -0.00088 0.0
In377 In 0.54516 0.27579 0.98191 0.0
O378 O 0.75896 0.25471 0.96509 0.0
O379 O 0.58609 0.22834 -0.00088 0.0
C380 C 0.42571 0.32828 0.97958 0.0
C381 C 0.61735 0.28186 0.08352 0.0
C382 C 0.42979 0.26323 0.88731 0.0
O383 O 0.5589 0.32457 0.96819 0.0
O384 O 0.35464 0.30554 -0.00752 0.0
O385 O 0.36436 0.25743 0.93127 0.0
O386 O 0.55539 0.27428 0.89157 0.0
C387 C 0.71747 0.23015 0.98416 0.0
O388 O 0.49665 0.27049 0.06998 0.0
O389 O 0.69826 0.29101 0.04569 0.0
In390 In 0.23902 0.27576 0.74086 0.0
O391 O 0.28705 0.27041 0.65276 0.0
O392 O 0.08554 0.29095 0.67717 0.0
C393 C 0.35505 0.26326 0.83537 0.0
C394 C 0.06663 0.23012 0.73918 0.0
C395 C 0.35816 0.32827 0.7431 0.0
O396 O 0.4203 0.25743 0.79138 0.0
O397 O 0.2294 0.2743 0.83118 0.0
O398 O 0.22504 0.32455 0.75455 0.0
O399 O 0.42932 0.30554 0.73018 0.0
C400 C 0.16631 0.2818 0.63929 0.0
O401 O 0.02536 0.25474 0.75812 0.0
O402 O 0.19779 0.22828 0.72397 0.0
In403 In 0.54474 0.40974 0.74086 0.0
O404 O 0.4967 0.41508 0.65275 0.0
O405 O 0.69821 0.39455 0.67716 0.0
C406 C 0.42872 0.42224 0.83537 0.0
C407 C 0.71713 0.45538 0.73917 0.0
C408 C 0.42561 0.35723 0.74309 0.0
O409 O 0.36346 0.42806 0.79138 0.0
O410 O 0.55438 0.4112 0.83118 0.0
O411 O 0.55873 0.36095 0.75454 0.0
O412 O 0.35444 0.37996 0.73018 0.0
C413 C 0.61744 0.4037 0.63928 0.0
O414 O 0.7584 0.43076 0.75811 0.0
O415 O 0.58596 0.45722 0.72397 0.0
loop_
_geom_bond_atom_site_label_1
_geom_bond_atom_site_label_2
_geom_bond_distance
_geom_bond_site_symmetry_2
_ccdc_geom_bond_type
In0 O1 2.292 . S
In0 O2 2.324 . S
In0 O6 2.267 1_556 S
In0 O7 2.328 1_556 S
In0 O8 2.267 1_556 S
In0 O9 2.325 . S
In0 O11 2.294 1_556 S
In0 O12 2.326 . S
O1 In0 2.292 . S
O1 C10 1.240 . S
O2 In0 2.324 . S
O2 C10 1.252 . S
C3 O6 1.252 . S
C3 O7 1.260 . S
C4 O11 1.240 . S
C4 O12 1.252 1_554 S
C5 O8 1.252 . S
C5 O9 1.260 1_554 S
O6 In0 2.267 1_554 S
O6 C3 1.252 . S
O7 In0 2.328 1_554 S
O7 C3 1.260 . S
O8 In0 2.267 1_554 S
O8 C5 1.252 . S
O9 In0 2.325 . S
O9 C5 1.260 1_556 S
C10 O1 1.240 . S
C10 O2 1.252 . S
O11 In0 2.294 1_554 S
O11 C4 1.240 . S
O12 In0 2.326 . S
O12 C4 1.252 1_556 S
In13 O14 2.292 1_655 S
In13 O15 2.324 . S
In13 O19 2.267 1_656 S
In13 O20 2.328 1_656 S
In13 O21 2.267 1_556 S
In13 O22 2.325 1_655 S
In13 O24 2.294 1_556 S
In13 O25 2.326 . S
O14 In13 2.292 1_455 S
O14 C23 1.240 1_455 S
O15 In13 2.324 . S
O15 C23 1.252 . S
C16 O19 1.252 . S
C16 O20 1.260 . S
C17 O24 1.240 . S
C17 O25 1.252 1_554 S
C18 O21 1.252 1_455 S
C18 O22 1.260 1_554 S
O19 In13 2.267 1_454 S
O19 C16 1.252 . S
O20 In13 2.328 1_454 S
O20 C16 1.260 . S
O21 In13 2.267 1_554 S
O21 C18 1.252 1_655 S
O22 In13 2.325 1_455 S
O22 C18 1.260 1_556 S
C23 O14 1.240 1_655 S
C23 O15 1.252 . S
O24 In13 2.294 1_554 S
O24 C17 1.240 . S
O25 In13 2.326 . S
O25 C17 1.252 1_556 S
In26 O27 2.294 . S
In26 O28 2.326 . S
In26 O32 2.266 . S
In26 O33 2.326 . S
In26 O34 2.266 . S
In26 O35 2.326 . S
In26 O37 2.294 . S
In26 O38 2.326 . S
O27 In26 2.294 . S
O27 C36 1.240 . S
O28 In26 2.326 . S
O28 C36 1.252 . S
C29 O32 1.252 . S
C29 O33 1.260 . S
C30 O37 1.240 . S
C30 O38 1.252 . S
C31 O34 1.252 . S
C31 O35 1.260 . S
O32 In26 2.266 . S
O32 C29 1.252 . S
O33 In26 2.326 . S
O33 C29 1.260 . S
O34 In26 2.266 . S
O34 C31 1.252 . S
O35 In26 2.326 . S
O35 C31 1.260 . S
C36 O27 1.240 . S
C36 O28 1.252 . S
O37 In26 2.294 . S
O37 C30 1.240 . S
O38 In26 2.326 . S
O38 C30 1.252 . S
In39 O40 2.294 . S
In39 O41 2.326 . S
In39 O45 2.266 . S
In39 O46 2.326 1_655 S
In39 O47 2.266 1_655 S
In39 O48 2.326 1_655 S
In39 O50 2.294 1_655 S
In39 O51 2.326 . S
O40 In39 2.294 . S
O40 C49 1.240 . S
O41 In39 2.326 . S
O41 C49 1.252 . S
C42 O45 1.252 1_455 S
C42 O46 1.260 . S
C43 O50 1.240 1_655 S
C43 O51 1.252 . S
C44 O47 1.252 . S
C44 O48 1.260 . S
O45 In39 2.266 . S
O45 C42 1.252 1_655 S
O46 In39 2.326 1_455 S
O46 C42 1.260 . S
O47 In39 2.266 1_455 S
O47 C44 1.252 . S
O48 In39 2.326 1_455 S
O48 C44 1.260 . S
C49 O40 1.240 . S
C49 O41 1.252 . S
O50 In39 2.294 1_455 S
O50 C43 1.240 1_455 S
O51 In39 2.326 . S
O51 C43 1.252 . S
In52 O53 2.294 1_554 S
In52 O54 2.326 . S
In52 O58 2.267 1_554 S
In52 O59 2.325 . S
In52 O60 2.267 1_554 S
In52 O61 2.328 1_554 S
In52 O63 2.292 . S
In52 O64 2.324 . S
O53 In52 2.294 1_556 S
O53 C62 1.240 . S
O54 In52 2.326 . S
O54 C62 1.252 1_554 S
C55 O58 1.252 . S
C55 O59 1.260 1_556 S
C56 O63 1.240 . S
C56 O64 1.252 . S
C57 O60 1.252 . S
C57 O61 1.260 . S
O58 In52 2.267 1_556 S
O58 C55 1.252 . S
O59 In52 2.325 . S
O59 C55 1.260 1_554 S
O60 In52 2.267 1_556 S
O60 C57 1.252 . S
O61 In52 2.328 1_556 S
O61 C57 1.260 . S
C62 O53 1.240 . S
C62 O54 1.252 1_556 S
O63 In52 2.292 . S
O63 C56 1.240 . S
O64 In52 2.324 . S
O64 C56 1.252 . S
In65 O66 2.292 1_455 S
In65 O67 2.324 . S
In65 O71 2.267 1_454 S
In65 O72 2.328 1_454 S
In65 O73 2.267 1_554 S
In65 O74 2.325 1_455 S
In65 O76 2.294 1_554 S
In65 O77 2.326 . S
O66 In65 2.292 1_655 S
O66 C75 1.240 1_655 S
O67 In65 2.324 . S
O67 C75 1.252 . S
C68 O71 1.252 . S
C68 O72 1.260 . S
C69 O76 1.240 . S
C69 O77 1.252 1_556 S
C70 O73 1.252 1_655 S
C70 O74 1.260 1_556 S
O71 In65 2.267 1_656 S
O71 C68 1.252 . S
O72 In65 2.328 1_656 S
O72 C68 1.260 . S
O73 In65 2.267 1_556 S
O73 C70 1.252 1_455 S
O74 In65 2.325 1_655 S
O74 C70 1.260 1_554 S
C75 O66 1.240 1_455 S
C75 O67 1.252 . S
O76 In65 2.294 1_556 S
O76 C69 1.240 . S
O77 In65 2.326 . S
O77 C69 1.252 1_554 S
In78 O79 2.294 . S
In78 O80 2.326 . S
In78 O84 2.266 . S
In78 O85 2.326 . S
In78 O86 2.266 . S
In78 O87 2.326 . S
In78 O89 2.294 . S
In78 O90 2.326 . S
O79 In78 2.294 . S
O79 C88 1.240 . S
O80 In78 2.326 . S
O80 C88 1.252 . S
C81 O84 1.252 . S
C81 O85 1.260 . S
C82 O89 1.240 . S
C82 O90 1.252 . S
C83 O86 1.252 . S
C83 O87 1.260 . S
O84 In78 2.266 . S
O84 C81 1.252 . S
O85 In78 2.326 . S
O85 C81 1.260 . S
O86 In78 2.266 . S
O86 C83 1.252 . S
O87 In78 2.326 . S
O87 C83 1.260 . S
C88 O79 1.240 . S
C88 O80 1.252 . S
O89 In78 2.294 . S
O89 C82 1.240 . S
O90 In78 2.326 . S
O90 C82 1.252 . S
In91 O92 2.294 1_455 S
In91 O93 2.326 . S
In91 O97 2.266 1_455 S
In91 O98 2.326 1_455 S
In91 O99 2.266 . S
In91 O100 2.326 1_455 S
In91 O102 2.294 . S
In91 O103 2.326 . S
O92 In91 2.294 1_655 S
O92 C101 1.240 1_655 S
O93 In91 2.326 . S
O93 C101 1.252 . S
C94 O97 1.252 . S
C94 O98 1.260 . S
C95 O102 1.240 . S
C95 O103 1.252 . S
C96 O99 1.252 1_655 S
C96 O100 1.260 . S
O97 In91 2.266 1_655 S
O97 C94 1.252 . S
O98 In91 2.326 1_655 S
O98 C94 1.260 . S
O99 In91 2.266 . S
O99 C96 1.252 1_455 S
O100 In91 2.326 1_655 S
O100 C96 1.260 . S
C101 O92 1.240 1_455 S
C101 O93 1.252 . S
O102 In91 2.294 . S
O102 C95 1.240 . S
O103 In91 2.326 . S
O103 C95 1.252 . S
In104 O105 2.294 . S
In104 O106 2.326 . S
In104 O110 2.266 . S
In104 O111 2.326 . S
In104 O112 2.266 . S
In104 O113 2.326 . S
In104 O115 2.294 . S
In104 O116 2.326 . S
O105 In104 2.294 . S
O105 C114 1.240 . S
O106 In104 2.326 . S
O106 C114 1.252 . S
C107 O110 1.252 . S
C107 O111 1.260 . S
C108 O115 1.240 . S
C108 O116 1.252 . S
C109 O112 1.252 . S
C109 O113 1.260 . S
O110 In104 2.266 . S
O110 C107 1.252 . S
O111 In104 2.326 . S
O111 C107 1.260 . S
O112 In104 2.266 . S
O112 C109 1.252 . S
O113 In104 2.326 . S
O113 C109 1.260 . S
C114 O105 1.240 . S
C114 O106 1.252 . S
O115 In104 2.294 . S
O115 C108 1.240 . S
O116 In104 2.326 . S
O116 C108 1.252 . S
In117 O118 2.294 1_655 S
In117 O119 2.326 . S
In117 O123 2.266 1_655 S
In117 O124 2.326 1_655 S
In117 O125 2.266 . S
In117 O126 2.326 1_655 S
In117 O128 2.294 . S
In117 O129 2.326 . S
O118 In117 2.294 1_455 S
O118 C127 1.240 1_455 S
O119 In117 2.326 . S
O119 C127 1.252 . S
C120 O123 1.252 . S
C120 O124 1.260 . S
C121 O128 1.240 . S
C121 O129 1.252 . S
C122 O125 1.252 1_455 S
C122 O126 1.260 . S
O123 In117 2.266 1_455 S
O123 C120 1.252 . S
O124 In117 2.326 1_455 S
O124 C120 1.260 . S
O125 In117 2.266 . S
O125 C122 1.252 1_655 S
O126 In117 2.326 1_455 S
O126 C122 1.260 . S
C127 O118 1.240 1_655 S
C127 O119 1.252 . S
O128 In117 2.294 . S
O128 C121 1.240 . S
O129 In117 2.326 . S
O129 C121 1.252 . S
In130 O131 2.294 . S
In130 O132 2.326 . S
In130 O136 2.266 . S
In130 O137 2.326 . S
In130 O138 2.266 . S
In130 O139 2.326 . S
In130 O141 2.294 . S
In130 O142 2.326 . S
O131 In130 2.294 . S
O131 C140 1.240 . S
O132 In130 2.326 . S
O132 C140 1.252 . S
C133 O136 1.252 . S
C133 O137 1.260 . S
C134 O141 1.240 . S
C134 O142 1.252 . S
C135 O138 1.252 . S
C135 O139 1.260 . S
O136 In130 2.266 . S
O136 C133 1.252 . S
O137 In130 2.326 . S
O137 C133 1.260 . S
O138 In130 2.266 . S
O138 C135 1.252 . S
O139 In130 2.326 . S
O139 C135 1.260 . S
C140 O131 1.240 . S
C140 O132 1.252 . S
O141 In130 2.294 . S
O141 C134 1.240 . S
O142 In130 2.326 . S
O142 C134 1.252 . S
In143 O144 2.294 1_655 S
In143 O145 2.326 . S
In143 O149 2.266 1_655 S
In143 O150 2.326 1_655 S
In143 O151 2.266 . S
In143 O152 2.326 1_655 S
In143 O154 2.294 . S
In143 O155 2.326 . S
O144 In143 2.294 1_455 S
O144 C153 1.240 1_455 S
O145 In143 2.326 . S
O145 C153 1.252 . S
C146 O149 1.252 . S
C146 O150 1.260 . S
C147 O154 1.240 . S
C147 O155 1.252 . S
C148 O151 1.252 1_455 S
C148 O152 1.260 . S
O149 In143 2.266 1_455 S
O149 C146 1.252 . S
O150 In143 2.326 1_455 S
O150 C146 1.260 . S
O151 In143 2.266 . S
O151 C148 1.252 1_655 S
O152 In143 2.326 1_455 S
O152 C148 1.260 . S
C153 O144 1.240 1_655 S
C153 O145 1.252 . S
O154 In143 2.294 . S
O154 C147 1.240 . S
O155 In143 2.326 . S
O155 C147 1.252 . S
In156 O157 2.294 . S
In156 O158 2.326 . S
In156 O162 2.266 . S
In156 O163 2.326 . S
In156 O164 2.266 . S
In156 O165 2.326 . S
In156 O167 2.294 . S
In156 O168 2.326 . S
O157 In156 2.294 . S
O157 C166 1.240 . S
O158 In156 2.326 . S
O158 C166 1.252 . S
C159 O162 1.252 . S
C159 O163 1.260 . S
C160 O167 1.240 . S
C160 O168 1.252 . S
C161 O164 1.252 . S
C161 O165 1.260 . S
O162 In156 2.266 . S
O162 C159 1.252 . S
O163 In156 2.326 . S
O163 C159 1.260 . S
O164 In156 2.266 . S
O164 C161 1.252 . S
O165 In156 2.326 . S
O165 C161 1.260 . S
C166 O157 1.240 . S
C166 O158 1.252 . S
O167 In156 2.294 . S
O167 C160 1.240 . S
O168 In156 2.326 . S
O168 C160 1.252 . S
In169 O170 2.294 1_455 S
In169 O171 2.326 . S
In169 O175 2.266 1_455 S
In169 O176 2.326 1_455 S
In169 O177 2.266 . S
In169 O178 2.326 1_455 S
In169 O180 2.294 . S
In169 O181 2.326 . S
O170 In169 2.294 1_655 S
O170 C179 1.240 1_655 S
O171 In169 2.326 . S
O171 C179 1.252 . S
C172 O175 1.252 . S
C172 O176 1.260 . S
C173 O180 1.240 . S
C173 O181 1.252 . S
C174 O177 1.252 1_655 S
C174 O178 1.260 . S
O175 In169 2.266 1_655 S
O175 C172 1.252 . S
O176 In169 2.326 1_655 S
O176 C172 1.260 . S
O177 In169 2.266 . S
O177 C174 1.252 1_455 S
O178 In169 2.326 1_655 S
O178 C174 1.260 . S
C179 O170 1.240 1_455 S
C179 O171 1.252 . S
O180 In169 2.294 . S
O180 C173 1.240 . S
O181 In169 2.326 . S
O181 C173 1.252 . S
In182 O183 2.294 . S
In182 O184 2.326 . S
In182 O188 2.266 . S
In182 O189 2.326 . S
In182 O190 2.266 . S
In182 O191 2.326 . S
In182 O193 2.294 . S
In182 O194 2.326 . S
O183 In182 2.294 . S
O183 C192 1.240 . S
O184 In182 2.326 . S
O184 C192 1.252 . S
C185 O188 1.252 . S
C185 O189 1.260 . S
C186 O193 1.240 . S
C186 O194 1.252 . S
C187 O190 1.252 . S
C187 O191 1.260 . S
O188 In182 2.266 . S
O188 C185 1.252 . S
O189 In182 2.326 . S
O189 C185 1.260 . S
O190 In182 2.266 . S
O190 C187 1.252 . S
O191 In182 2.326 . S
O191 C187 1.260 . S
C192 O183 1.240 . S
C192 O184 1.252 . S
O193 In182 2.294 . S
O193 C186 1.240 . S
O194 In182 2.326 . S
O194 C186 1.252 . S
In195 O196 2.294 . S
In195 O197 2.326 . S
In195 O201 2.266 . S
In195 O202 2.326 1_455 S
In195 O203 2.266 1_455 S
In195 O204 2.326 1_455 S
In195 O206 2.294 1_455 S
In195 O207 2.326 . S
O196 In195 2.294 . S
O196 C205 1.240 . S
O197 In195 2.326 . S
O197 C205 1.252 . S
C198 O201 1.252 1_655 S
C198 O202 1.260 . S
C199 O206 1.240 1_455 S
C199 O207 1.252 . S
C200 O203 1.252 . S
C200 O204 1.260 . S
O201 In195 2.266 . S
O201 C198 1.252 1_455 S
O202 In195 2.326 1_655 S
O202 C198 1.260 . S
O203 In195 2.266 1_655 S
O203 C200 1.252 . S
O204 In195 2.326 1_655 S
O204 C200 1.260 . S
C205 O196 1.240 . S
C205 O197 1.252 . S
O206 In195 2.294 1_655 S
O206 C199 1.240 1_655 S
O207 In195 2.326 . S
O207 C199 1.252 . S
In208 O209 2.294 . S
In208 O210 2.326 . S
In208 O214 2.266 . S
In208 O215 2.326 . S
In208 O216 2.266 . S
In208 O217 2.326 . S
In208 O219 2.294 . S
In208 O220 2.326 . S
O209 In208 2.294 . S
O209 C218 1.240 . S
O210 In208 2.326 . S
O210 C218 1.252 . S
C211 O214 1.252 . S
C211 O215 1.260 . S
C212 O219 1.240 . S
C212 O220 1.252 . S
C213 O216 1.252 . S
C213 O217 1.260 . S
O214 In208 2.266 . S
O214 C211 1.252 . S
O215 In208 2.326 . S
O215 C211 1.260 . S
O216 In208 2.266 . S
O216 C213 1.252 . S
O217 In208 2.326 . S
O217 C213 1.260 . S
C218 O209 1.240 . S
C218 O210 1.252 . S
O219 In208 2.294 . S
O219 C212 1.240 . S
O220 In208 2.326 . S
O220 C212 1.252 . S
In221 O222 2.294 . S
In221 O223 2.326 . S
In221 O227 2.266 . S
In221 O228 2.326 . S
In221 O229 2.266 . S
In221 O230 2.326 . S
In221 O232 2.294 . S
In221 O233 2.326 . S
O222 In221 2.294 . S
O222 C231 1.240 . S
O223 In221 2.326 . S
O223 C231 1.252 . S
C224 O227 1.252 . S
C224 O228 1.260 . S
C225 O232 1.240 . S
C225 O233 1.252 . S
C226 O229 1.252 . S
C226 O230 1.260 . S
O227 In221 2.266 . S
O227 C224 1.252 . S
O228 In221 2.326 . S
O228 C224 1.260 . S
O229 In221 2.266 . S
O229 C226 1.252 . S
O230 In221 2.326 . S
O230 C226 1.260 . S
C231 O222 1.240 . S
C231 O223 1.252 . S
O232 In221 2.294 . S
O232 C225 1.240 . S
O233 In221 2.326 . S
O233 C225 1.252 . S
In234 O235 2.294 . S
In234 O236 2.326 . S
In234 O240 2.266 . S
In234 O241 2.326 . S
In234 O242 2.266 . S
In234 O243 2.326 . S
In234 O245 2.294 . S
In234 O246 2.326 . S
O235 In234 2.294 . S
O235 C244 1.240 . S
O236 In234 2.326 . S
O236 C244 1.252 . S
C237 O240 1.252 . S
C237 O241 1.260 . S
C238 O245 1.240 . S
C238 O246 1.252 . S
C239 O242 1.252 . S
C239 O243 1.260 . S
O240 In234 2.266 . S
O240 C237 1.252 . S
O241 In234 2.326 . S
O241 C237 1.260 . S
O242 In234 2.266 . S
O242 C239 1.252 . S
O243 In234 2.326 . S
O243 C239 1.260 . S
C244 O235 1.240 . S
C244 O236 1.252 . S
O245 In234 2.294 . S
O245 C238 1.240 . S
O246 In234 2.326 . S
O246 C238 1.252 . S
In247 O248 2.294 . S
In247 O249 2.326 . S
In247 O253 2.266 . S
In247 O254 2.326 . S
In247 O255 2.266 . S
In247 O256 2.326 . S
In247 O258 2.294 . S
In247 O259 2.326 . S
O248 In247 2.294 . S
O248 C257 1.240 . S
O249 In247 2.326 . S
O249 C257 1.252 . S
C250 O253 1.252 . S
C250 O254 1.260 . S
C251 O258 1.240 . S
C251 O259 1.252 . S
C252 O255 1.252 . S
C252 O256 1.260 . S
O253 In247 2.266 . S
O253 C250 1.252 . S
O254 In247 2.326 . S
O254 C250 1.260 . S
O255 In247 2.266 . S
O255 C252 1.252 . S
O256 In247 2.326 . S
O256 C252 1.260 . S
C257 O248 1.240 . S
C257 O249 1.252 . S
O258 In247 2.294 . S
O258 C251 1.240 . S
O259 In247 2.326 . S
O259 C251 1.252 . S
In260 O261 2.294 . S
In260 O262 2.326 . S
In260 O266 2.266 . S
In260 O267 2.326 . S
In260 O268 2.266 . S
In260 O269 2.326 . S
In260 O271 2.294 . S
In260 O272 2.326 . S
O261 In260 2.294 . S
O261 C270 1.240 . S
O262 In260 2.326 . S
O262 C270 1.252 . S
C263 O266 1.252 . S
C263 O267 1.260 . S
C264 O271 1.240 . S
C264 O272 1.252 . S
C265 O268 1.252 . S
C265 O269 1.260 . S
O266 In260 2.266 . S
O266 C263 1.252 . S
O267 In260 2.326 . S
O267 C263 1.260 . S
O268 In260 2.266 . S
O268 C265 1.252 . S
O269 In260 2.326 . S
O269 C265 1.260 . S
C270 O261 1.240 . S
C270 O262 1.252 . S
O271 In260 2.294 . S
O271 C264 1.240 . S
O272 In260 2.326 . S
O272 C264 1.252 . S
In273 O274 2.294 . S
In273 O275 2.326 . S
In273 O279 2.266 . S
In273 O280 2.326 . S
In273 O281 2.266 . S
In273 O282 2.326 . S
In273 O284 2.294 . S
In273 O285 2.326 . S
O274 In273 2.294 . S
O274 C283 1.240 . S
O275 In273 2.326 . S
O275 C283 1.252 . S
C276 O279 1.252 . S
C276 O280 1.260 . S
C277 O284 1.240 . S
C277 O285 1.252 . S
C278 O281 1.252 . S
C278 O282 1.260 . S
O279 In273 2.266 . S
O279 C276 1.252 . S
O280 In273 2.326 . S
O280 C276 1.260 . S
O281 In273 2.266 . S
O281 C278 1.252 . S
O282 In273 2.326 . S
O282 C278 1.260 . S
C283 O274 1.240 . S
C283 O275 1.252 . S
O284 In273 2.294 . S
O284 C277 1.240 . S
O285 In273 2.326 . S
O285 C277 1.252 . S
In286 O287 2.294 . S
In286 O288 2.326 . S
In286 O292 2.266 . S
In286 O293 2.326 . S
In286 O294 2.266 . S
In286 O295 2.326 . S
In286 O297 2.294 . S
In286 O298 2.326 . S
O287 In286 2.294 . S
O287 C296 1.240 . S
O288 In286 2.326 . S
O288 C296 1.252 . S
C289 O292 1.252 . S
C289 O293 1.260 . S
C290 O297 1.240 . S
C290 O298 1.252 . S
C291 O294 1.252 . S
C291 O295 1.260 . S
O292 In286 2.266 . S
O292 C289 1.252 . S
O293 In286 2.326 . S
O293 C289 1.260 . S
O294 In286 2.266 . S
O294 C291 1.252 . S
O295 In286 2.326 . S
O295 C291 1.260 . S
C296 O287 1.240 . S
C296 O288 1.252 . S
O297 In286 2.294 . S
O297 C290 1.240 . S
O298 In286 2.326 . S
O298 C290 1.252 . S
In299 O300 2.294 . S
In299 O301 2.326 . S
In299 O305 2.266 . S
In299 O306 2.326 . S
In299 O307 2.266 . S
In299 O308 2.326 . S
In299 O310 2.294 . S
In299 O311 2.326 . S
O300 In299 2.294 . S
O300 C309 1.240 . S
O301 In299 2.326 . S
O301 C309 1.252 . S
C302 O305 1.252 . S
C302 O306 1.260 . S
C303 O310 1.240 . S
C303 O311 1.252 . S
C304 O307 1.252 . S
C304 O308 1.260 . S
O305 In299 2.266 . S
O305 C302 1.252 . S
O306 In299 2.326 . S
O306 C302 1.260 . S
O307 In299 2.266 . S
O307 C304 1.252 . S
O308 In299 2.326 . S
O308 C304 1.260 . S
C309 O300 1.240 . S
C309 O301 1.252 . S
O310 In299 2.294 . S
O310 C303 1.240 . S
O311 In299 2.326 . S
O311 C303 1.252 . S
In312 O313 2.294 1_556 S
In312 O314 2.326 . S
In312 O318 2.267 1_556 S
In312 O319 2.325 . S
In312 O320 2.267 1_556 S
In312 O321 2.328 1_556 S
In312 O323 2.292 . S
In312 O324 2.324 . S
O313 In312 2.294 1_554 S
O313 C322 1.240 . S
O314 In312 2.326 . S
O314 C322 1.252 1_556 S
C315 O318 1.252 . S
C315 O319 1.260 1_554 S
C316 O323 1.240 . S
C316 O324 1.252 . S
C317 O320 1.252 . S
C317 O321 1.260 . S
O318 In312 2.267 1_554 S
O318 C315 1.252 . S
O319 In312 2.325 . S
O319 C315 1.260 1_556 S
O320 In312 2.267 1_554 S
O320 C317 1.252 . S
O321 In312 2.328 1_554 S
O321 C317 1.260 . S
C322 O313 1.240 . S
C322 O314 1.252 1_554 S
O323 In312 2.292 . S
O323 C316 1.240 . S
O324 In312 2.324 . S
O324 C316 1.252 . S
In325 O326 2.292 . S
In325 O327 2.324 . S
In325 O331 2.267 1_556 S
In325 O332 2.328 1_556 S
In325 O333 2.267 1_556 S
In325 O334 2.325 . S
In325 O336 2.294 1_556 S
In325 O337 2.326 . S
O326 In325 2.292 . S
O326 C335 1.240 . S
O327 In325 2.324 . S
O327 C335 1.252 . S
C328 O331 1.252 . S
C328 O332 1.260 . S
C329 O336 1.240 . S
C329 O337 1.252 1_554 S
C330 O333 1.252 . S
C330 O334 1.260 1_554 S
O331 In325 2.267 1_554 S
O331 C328 1.252 . S
O332 In325 2.328 1_554 S
O332 C328 1.260 . S
O333 In325 2.267 1_554 S
O333 C330 1.252 . S
O334 In325 2.325 . S
O334 C330 1.260 1_556 S
C335 O326 1.240 . S
C335 O327 1.252 . S
O336 In325 2.294 1_554 S
O336 C329 1.240 . S
O337 In325 2.326 . S
O337 C329 1.252 1_556 S
In338 O339 2.294 . S
In338 O340 2.326 . S
In338 O344 2.266 . S
In338 O345 2.326 . S
In338 O346 2.266 . S
In338 O347 2.326 . S
In338 O349 2.294 . S
In338 O350 2.326 . S
O339 In338 2.294 . S
O339 C348 1.240 . S
O340 In338 2.326 . S
O340 C348 1.252 . S
C341 O344 1.252 . S
C341 O345 1.260 . S
C342 O349 1.240 . S
C342 O350 1.252 . S
C343 O346 1.252 . S
C343 O347 1.260 . S
O344 In338 2.266 . S
O344 C341 1.252 . S
O345 In338 2.326 . S
O345 C341 1.260 . S
O346 In338 2.266 . S
O346 C343 1.252 . S
O347 In338 2.326 . S
O347 C343 1.260 . S
C348 O339 1.240 . S
C348 O340 1.252 . S
O349 In338 2.294 . S
O349 C342 1.240 . S
O350 In338 2.326 . S
O350 C342 1.252 . S
In351 O352 2.294 . S
In351 O353 2.326 . S
In351 O357 2.266 . S
In351 O358 2.326 . S
In351 O359 2.266 . S
In351 O360 2.326 . S
In351 O362 2.294 . S
In351 O363 2.326 . S
O352 In351 2.294 . S
O352 C361 1.240 . S
O353 In351 2.326 . S
O353 C361 1.252 . S
C354 O357 1.252 . S
C354 O358 1.260 . S
C355 O362 1.240 . S
C355 O363 1.252 . S
C356 O359 1.252 . S
C356 O360 1.260 . S
O357 In351 2.266 . S
O357 C354 1.252 . S
O358 In351 2.326 . S
O358 C354 1.260 . S
O359 In351 2.266 . S
O359 C356 1.252 . S
O360 In351 2.326 . S
O360 C356 1.260 . S
C361 O352 1.240 . S
C361 O353 1.252 . S
O362 In351 2.294 . S
O362 C355 1.240 . S
O363 In351 2.326 . S
O363 C355 1.252 . S
In364 O365 2.292 . S
In364 O366 2.324 . S
In364 O370 2.267 1_554 S
In364 O371 2.328 1_554 S
In364 O372 2.267 1_554 S
In364 O373 2.325 . S
In364 O375 2.294 1_554 S
In364 O376 2.326 . S
O365 In364 2.292 . S
O365 C374 1.240 . S
O366 In364 2.324 . S
O366 C374 1.252 . S
C367 O370 1.252 . S
C367 O371 1.260 . S
C368 O375 1.240 . S
C368 O376 1.252 1_556 S
C369 O372 1.252 . S
C369 O373 1.260 1_556 S
O370 In364 2.267 1_556 S
O370 C367 1.252 . S
O371 In364 2.328 1_556 S
O371 C367 1.260 . S
O372 In364 2.267 1_556 S
O372 C369 1.252 . S
O373 In364 2.325 . S
O373 C369 1.260 1_554 S
C374 O365 1.240 . S
C374 O366 1.252 . S
O375 In364 2.294 1_556 S
O375 C368 1.240 . S
O376 In364 2.326 . S
O376 C368 1.252 1_554 S
In377 O378 2.294 1_554 S
In377 O379 2.326 . S
In377 O383 2.267 1_554 S
In377 O384 2.325 . S
In377 O385 2.267 1_554 S
In377 O386 2.328 1_554 S
In377 O388 2.292 . S
In377 O389 2.324 . S
O378 In377 2.294 1_556 S
O378 C387 1.240 . S
O379 In377 2.326 . S
O379 C387 1.252 1_554 S
C380 O383 1.252 . S
C380 O384 1.260 1_556 S
C381 O388 1.240 . S
C381 O389 1.252 . S
C382 O385 1.252 . S
C382 O386 1.260 . S
O383 In377 2.267 1_556 S
O383 C380 1.252 . S
O384 In377 2.325 . S
O384 C380 1.260 1_554 S
O385 In377 2.267 1_556 S
O385 C382 1.252 . S
O386 In377 2.328 1_556 S
O386 C382 1.260 . S
C387 O378 1.240 . S
C387 O379 1.252 1_556 S
O388 In377 2.292 . S
O388 C381 1.240 . S
O389 In377 2.324 . S
O389 C381 1.252 . S
In390 O391 2.294 . S
In390 O392 2.326 . S
In390 O396 2.266 . S
In390 O397 2.326 . S
In390 O398 2.266 . S
In390 O399 2.326 . S
In390 O401 2.294 . S
In390 O402 2.326 . S
O391 In390 2.294 . S
O391 C400 1.240 . S
O392 In390 2.326 . S
O392 C400 1.252 . S
C393 O396 1.252 . S
C393 O397 1.260 . S
C394 O401 1.240 . S
C394 O402 1.252 . S
C395 O398 1.252 . S
C395 O399 1.260 . S
O396 In390 2.266 . S
O396 C393 1.252 . S
O397 In390 2.326 . S
O397 C393 1.260 . S
O398 In390 2.266 . S
O398 C395 1.252 . S
O399 In390 2.326 . S
O399 C395 1.260 . S
C400 O391 1.240 . S
C400 O392 1.252 . S
O401 In390 2.294 . S
O401 C394 1.240 . S
O402 In390 2.326 . S
O402 C394 1.252 . S
In403 O404 2.294 . S
In403 O405 2.326 . S
In403 O409 2.266 . S
In403 O410 2.326 . S
In403 O411 2.266 . S
In403 O412 2.326 . S
In403 O414 2.294 . S
In403 O415 2.326 . S
O404 In403 2.294 . S
O404 C413 1.240 . S
O405 In403 2.326 . S
O405 C413 1.252 . S
C406 O409 1.252 . S
C406 O410 1.260 . S
C407 O414 1.240 . S
C407 O415 1.252 . S
C408 O411 1.252 . S
C408 O412 1.260 . S
O409 In403 2.266 . S
O409 C406 1.252 . S
O410 In403 2.326 . S
O410 C406 1.260 . S
O411 In403 2.266 . S
O411 C408 1.252 . S
O412 In403 2.326 . S
O412 C408 1.260 . S
C413 O404 1.240 . S
C413 O405 1.252 . S
O414 In403 2.294 . S
O414 C407 1.240 . S
O415 In403 2.326 . S
O415 C407 1.252 . S
C3 C44 2.215 . S
C31 C16 2.215 . S
C94 C57 2.215 . S
C81 C68 2.215 . S
C107 C146 2.235 . S
C120 C133 2.236 . S
C200 C161 2.235 . S
C185 C172 2.236 . S
C211 C252 2.236 . S
C224 C239 2.235 . S
C265 C302 2.236 . S
C278 C289 2.235 . S
C317 C354 2.215 . S
C341 C328 2.215 . S
C406 C367 2.215 . S
C393 C382 2.215 . S
C4 C62 1.621 1_544 S
C387 C17 1.621 1_556 S
C36 C186 1.586 . S
C303 C49 1.586 1_565 S
C329 C69 1.621 1_554 S
C82 C134 1.586 . S
C95 C257 1.586 1_565 S
C166 C108 1.595 . S
C283 C121 1.595 . S
C147 C407 1.586 . S
C173 C225 1.595 . S
C205 C355 1.586 . S
C270 C212 1.595 1_465 S
C244 C394 1.586 1_655 S
C290 C342 1.586 1_455 S
C368 C322 1.621 1_456 S
C10 C251 2.223 . S
C23 C238 2.222 . S
C231 C30 2.238 . S
C218 C43 2.239 . S
C56 C309 2.223 . S
C75 C296 2.222 . S
C88 C277 2.238 . S
C264 C101 2.239 . S
C114 C361 2.238 . S
C348 C127 2.239 . S
C335 C140 2.223 . S
C153 C316 2.222 . S
C160 C413 2.238 . S
C179 C400 2.239 . S
C381 C192 2.223 . S
C199 C374 2.222 . S
C18 C5 1.598 . S
C29 C42 1.568 . S
C70 C55 1.598 . S
C83 C96 1.568 . S
C122 C109 1.574 . S
C135 C148 1.575 . S
C159 C174 1.574 . S
C187 C198 1.575 . S
C213 C226 1.575 . S
C250 C237 1.574 . S
C263 C276 1.575 . S
C304 C291 1.574 . S
C330 C315 1.598 . S
C343 C356 1.568 . S
C369 C380 1.598 . S
C408 C395 1.568 . S
