# Generated by pormake.
# Topology oof, (8)-cn, num edge types: 1
# Building blocks:
#     Node 0, Type 0, BuildingBlock: VETTIZ_charged_sbu_0, # of connection points: 8
#     Node 1, Type 0, BuildingBlock: VETTIZ_charged_sbu_0, # of connection points: 8
#     Node 2, Type 0, BuildingBlock: VETTIZ_charged_sbu_0, # of connection points: 8
#     Node 3, Type 0, BuildingBlock: VETTIZ_charged_sbu_0, # of connection points: 8
#     Edge 4, Type (0, 0), BuildingBlock: TEMPAE_clean_linker_10, # of connection points: 2
#     Edge 5, Type (0, 0), BuildingBlock: TEMPAE_clean_linker_10, # of connection points: 2
#     Edge 6, Type (0, 0), BuildingBlock: TEMPAE_clean_linker_10, # of connection points: 2
#     Edge 7, Type (0, 0), BuildingBlock: TEMPAE_clean_linker_10, # of connection points: 2
#     Edge 8, Type (0, 0), BuildingBlock: TEMPAE_clean_linker_10, # of connection points: 2
#     Edge 9, Type (0, 0), BuildingBlock: TEMPAE_clean_linker_10, # of connection points: 2
#     Edge 10, Type (0, 0), BuildingBlock: TEMPAE_clean_linker_10, # of connection points: 2
#     Edge 11, Type (0, 0), BuildingBlock: TEMPAE_clean_linker_10, # of connection points: 2
#     Edge 12, Type (0, 0), BuildingBlock: TEMPAE_clean_linker_10, # of connection points: 2
#     Edge 13, Type (0, 0), BuildingBlock: TEMPAE_clean_linker_10, # of connection points: 2
#     Edge 14, Type (0, 0), BuildingBlock: TEMPAE_clean_linker_10, # of connection points: 2
#     Edge 15, Type (0, 0), BuildingBlock: TEMPAE_clean_linker_10, # of connection points: 2
#     Edge 16, Type (0, 0), BuildingBlock: TEMPAE_clean_linker_10, # of connection points: 2
#     Edge 17, Type (0, 0), BuildingBlock: TEMPAE_clean_linker_10, # of connection points: 2
#     Edge 18, Type (0, 0), BuildingBlock: TEMPAE_clean_linker_10, # of connection points: 2
#     Edge 19, Type (0, 0), BuildingBlock: TEMPAE_clean_linker_10, # of connection points: 2
# Relax obj value: 0.130
# Max RMSD: 0.230
# Mean RMSD: 0.230
data_MOF--net-oof--node1-VETTIZ_charged_sbu_0--edge1-TEMPAE_clean_linker_10
_symmetry_space_group_name_H-M    P1
_symmetry_Int_Tables_number       1
_symmetry_cell_setting            triclinic
loop_
_symmetry_equiv_pos_as_xyz
'x, y, z'
_cell_length_a     16.920688
_cell_length_b     54.77064
_cell_length_c     16.655574
_cell_angle_alpha  89.872566
_cell_angle_beta   97.436487
_cell_angle_gamma 88.508703
loop_
_atom_site_label
_atom_site_type_symbol
_atom_site_fract_x
_atom_site_fract_y
_atom_site_fract_z
_atom_type_partial_charge
Fe0 Fe 0.07613 0.15206 0.39992 0.0
O1 O 1.00542 0.17474 0.32664 0.0
Fe2 Fe 0.09702 0.10248 0.27226 0.0
Fe3 Fe 0.93206 0.19797 0.37276 0.0
O4 O 0.03206 0.12724 0.32106 0.0
O5 O 0.02735 0.12719 0.31266 0.0
O6 O 0.99583 0.17401 0.32032 0.0
Fe7 Fe 0.95335 0.14891 0.23841 0.0
C8 C 0.96742 0.16296 0.51712 0.0
O9 O 0.1167 0.18364 0.46674 0.0
O10 O 0.03683 0.2147 0.4021 0.0
O11 O 0.04276 0.1569 0.1716 0.0
O12 O 0.0892 0.11923 0.15664 0.0
O13 O 0.2025 0.119 0.30238 0.0
O14 O 0.17239 0.15723 0.33653 0.0
O15 O 0.90683 0.21077 0.25628 0.0
O16 O 0.88223 0.17692 0.17446 0.0
C17 C 0.22083 0.14111 0.31436 0.0
O18 O 0.92667 0.11781 0.15825 0.0
O19 O 0.98534 0.08904 0.24356 0.0
O20 O 0.98634 0.14645 0.4698 0.0
O21 O 0.95376 0.18457 0.49061 0.0
C22 C 0.10168 0.20653 0.44473 0.0
C23 C 0.87736 0.20029 0.18986 0.0
C24 C 0.81102 0.15682 0.32734 0.0
O25 O 0.83077 0.17837 0.34833 0.0
O26 O 0.85838 0.14119 0.30042 0.0
C27 C 0.0721 0.14074 0.12866 0.0
O28 O 0.11098 0.08875 0.38703 0.0
O29 O 0.13445 0.12259 0.46727 0.0
C30 C 0.95015 0.09501 0.17378 0.0
C31 C 0.11768 0.09949 0.45652 0.0
Fe32 Fe 0.93009 0.95037 0.7772 0.0
O33 O 0.98899 0.92596 0.72025 0.0
Fe34 Fe 0.06661 0.90175 0.79508 0.0
Fe35 Fe 0.93723 0.90262 0.63911 0.0
O36 O 0.99542 0.92587 0.72779 0.0
O37 O 0.01461 0.87825 0.71402 0.0
O38 O 0.00661 0.87816 0.70733 0.0
Fe39 Fe 0.07354 0.85353 0.65934 0.0
C40 C 0.79868 0.91295 0.73304 0.0
O41 O 0.9094 0.9649 0.66502 0.0
O42 O 0.87607 0.93313 0.57691 0.0
O43 O 0.18212 0.86946 0.68898 0.0
O44 O 0.15864 0.90767 0.72734 0.0
O45 O 0.1086 0.93148 0.87084 0.0
O46 O 0.03999 0.96412 0.80496 0.0
O47 O 0.02518 0.90794 0.56669 0.0
O48 O 0.05846 0.86937 0.54611 0.0
C49 C 0.09539 0.95495 0.85765 0.0
O50 O 0.09148 0.83905 0.77297 0.0
O51 O 0.13116 0.87154 0.85565 0.0
O52 O 0.82135 0.9343 0.75264 0.0
O53 O 0.8441 0.89712 0.7051 0.0
C54 C 0.88179 0.95634 0.59522 0.0
C55 C 0.04634 0.8912 0.52082 0.0
C56 C 0.90156 0.84961 0.58405 0.0
O57 O 0.89027 0.87294 0.56749 0.0
O58 O 0.96432 0.83975 0.62557 0.0
C59 C 0.20526 0.89096 0.70602 0.0
O60 O 0.98023 0.89576 0.86811 0.0
O61 O 0.94607 0.93424 0.89046 0.0
C62 C 0.1224 0.84819 0.84105 0.0
C63 C 0.95724 0.91221 0.91419 0.0
Fe64 Fe 0.58939 0.64916 0.31248 0.0
O65 O 0.52291 0.67324 0.24066 0.0
Fe66 Fe 0.60666 0.601 0.17705 0.0
Fe67 Fe 0.4554 0.69778 0.28827 0.0
O68 O 0.5432 0.62526 0.22974 0.0
O69 O 0.53709 0.62508 0.22372 0.0
O70 O 0.51445 0.67295 0.23321 0.0
Fe71 Fe 0.45845 0.64804 0.15988 0.0
C72 C 0.47877 0.66053 0.42691 0.0
O73 O 0.63132 0.67897 0.38702 0.0
O74 O 0.56418 0.71198 0.32062 0.0
O75 O 0.53522 0.65389 0.07662 0.0
O76 O 0.59208 0.61716 0.06314 0.0
O77 O 0.71272 0.61764 0.20711 0.0
O78 O 0.68722 0.65479 0.25312 0.0
O79 O 0.43433 0.71099 0.17294 0.0
O80 O 0.38478 0.67717 0.10269 0.0
C81 C 0.73412 0.63901 0.22721 0.0
O82 O 0.41102 0.61698 0.0943 0.0
O83 O 0.50067 0.58594 0.1423 0.0
O84 O 0.49698 0.64387 0.37933 0.0
O85 O 0.4712 0.68258 0.40296 0.0
C86 C 0.61987 0.70242 0.37267 0.0
C87 C 0.39075 0.70082 0.11331 0.0
C88 C 0.32696 0.65931 0.25508 0.0
O89 O 0.34787 0.68134 0.26292 0.0
O90 O 0.37513 0.64238 0.23835 0.0
C91 C 0.56704 0.63798 0.03449 0.0
O92 O 0.62083 0.58638 0.29141 0.0
O93 O 0.64559 0.61899 0.37772 0.0
C94 C 0.43298 0.59395 0.10566 0.0
C95 C 0.63235 0.5959 0.36293 0.0
Fe96 Fe 0.44148 0.44874 0.82613 0.0
O97 O 0.50458 0.42548 0.76739 0.0
Fe98 Fe 0.57307 0.39908 0.84429 0.0
Fe99 Fe 0.45525 0.40402 0.67827 0.0
O100 O 0.5096 0.42503 0.77714 0.0
O101 O 0.52821 0.37816 0.75145 0.0
O102 O 0.5198 0.37806 0.74458 0.0
Fe103 Fe 0.58979 0.3541 0.69777 0.0
C104 C 0.31075 0.41363 0.76434 0.0
O105 O 0.43449 0.46615 0.71793 0.0
O106 O 0.40181 0.43651 0.62107 0.0
O107 O 0.69707 0.36975 0.73724 0.0
O108 O 0.67394 0.40641 0.79052 0.0
O109 O 0.6064 0.42613 0.93545 0.0
O110 O 0.55173 0.46069 0.87159 0.0
O111 O 0.54607 0.40964 0.60825 0.0
O112 O 0.58223 0.3714 0.58738 0.0
C113 C 0.59455 0.44991 0.93152 0.0
O114 O 0.59933 0.33733 0.80817 0.0
O115 O 0.63133 0.36762 0.9018 0.0
O116 O 0.33266 0.43492 0.78475 0.0
O117 O 0.3577 0.39787 0.73831 0.0
C118 C 0.41248 0.45926 0.64429 0.0
C119 C 0.567 0.39302 0.56123 0.0
C120 C 0.4227 0.35198 0.60714 0.0
O121 O 0.41024 0.37568 0.59914 0.0
O122 O 0.48137 0.3412 0.65276 0.0
C123 C 0.72028 0.39057 0.7632 0.0
O124 O 0.47729 0.39104 0.90271 0.0
O125 O 0.44164 0.42871 0.93263 0.0
C126 C 0.62471 0.34474 0.88027 0.0
C127 C 0.44984 0.40607 0.9507 0.0
C128 C 1.00068 0.15926 1.00076 0.0
C129 C 0.06414 0.14467 0.03911 0.0
C130 C 0.98458 0.16083 0.91582 0.0
C131 C 0.03518 0.1484 0.86697 0.0
C132 C 0.10075 0.13412 0.90533 0.0
C133 C 0.11315 0.13193 0.99067 0.0
C134 C 0.91219 0.1755 0.87844 0.0
C135 C 0.15781 0.12099 0.8566 0.0
C136 C 0.95928 0.13762 0.6426 0.0
C137 C 0.98366 0.15878 0.60621 0.0
C138 C 0.97545 0.1339 0.72725 0.0
C139 C 0.02039 0.1512 0.77625 0.0
C140 C 0.04804 0.17203 0.73875 0.0
C141 C 0.0279 0.17581 0.65491 0.0
C142 C 0.94291 0.11174 0.76433 0.0
C143 C 0.09978 0.19028 0.78709 0.0
H144 H 0.96109 0.16871 0.03722 0.0
H145 H 0.16155 0.12033 0.01955 0.0
H146 H 0.93124 0.1923 0.8499 0.0
H147 H 0.87725 0.16482 0.83029 0.0
H148 H 0.87251 0.18096 0.92384 0.0
H149 H 0.21393 0.1152 0.8948 0.0
H150 H 0.1296 0.10442 0.82911 0.0
H151 H 0.1728 0.13278 0.8067 0.0
H152 H 0.92582 0.12429 0.6051 0.0
H153 H 0.04875 0.1919 0.62689 0.0
H154 H 0.90789 0.1174 0.81342 0.0
H155 H 0.99268 0.09965 0.79189 0.0
H156 H 0.90427 0.10104 0.71903 0.0
H157 H 0.06484 0.20012 0.82937 0.0
H158 H 0.12371 0.20395 0.74779 0.0
H159 H 0.15058 0.18069 0.82411 0.0
C160 C 0.99102 0.87781 0.38359 0.0
C161 C 0.03367 0.89513 0.43232 0.0
C162 C 0.97441 0.88099 0.29964 0.0
C163 C 1.00405 0.90153 0.26271 0.0
C164 C 0.04751 0.91913 0.31164 0.0
C165 C 0.06012 0.916 0.39638 0.0
C166 C 0.92427 0.86247 0.25065 0.0
C167 C 0.08061 0.94129 0.27504 0.0
C168 C 0.02699 0.893 0.04037 0.0
C169 C 0.96335 0.90741 1.0021 0.0
C170 C 0.04214 0.89154 0.12515 0.0
C171 C 0.99062 0.90403 0.17279 0.0
C172 C 0.92482 0.91803 0.13426 0.0
C173 C 0.91298 0.91996 0.04937 0.0
C174 C 0.11483 0.87726 0.16377 0.0
C175 C 0.86727 0.93112 0.18254 0.0
H176 H 0.96867 0.86194 0.41159 0.0
H177 H 0.09207 0.92955 0.43426 0.0
H178 H 0.87329 0.87183 0.21319 0.0
H179 H 0.96024 0.85288 0.2087 0.0
H180 H 0.9006 0.84861 0.28944 0.0
H181 H 0.03224 0.95527 0.26085 0.0
H182 H 0.12856 0.94955 0.31745 0.0
H183 H 0.10464 0.93666 0.21787 0.0
H184 H 0.06743 0.88385 1.0041 0.0
H185 H 0.86447 0.9314 0.01981 0.0
H186 H 0.09666 0.86196 0.20045 0.0
H187 H 0.15275 0.88925 0.20543 0.0
H188 H 0.15114 0.86964 0.11825 0.0
H189 H 0.84744 0.91859 0.22799 0.0
H190 H 0.8139 0.93856 0.14337 0.0
H191 H 0.89743 0.94649 0.21587 0.0
C192 C 0.50305 0.65831 0.90719 0.0
C193 C 0.56236 0.64232 0.94588 0.0
C194 C 0.48922 0.66026 0.82248 0.0
C195 C 0.5374 0.64645 0.77481 0.0
C196 C 0.59893 0.6308 0.81339 0.0
C197 C 0.60993 0.62864 0.89842 0.0
C198 C 0.42156 0.67666 0.78392 0.0
C199 C 0.65286 0.61624 0.76484 0.0
C200 C 0.46073 0.63633 0.55153 0.0
C201 C 0.4935 0.65609 0.51524 0.0
C202 C 0.47383 0.63302 0.63626 0.0
C203 C 0.5244 0.64904 0.68476 0.0
C204 C 0.56007 0.66839 0.64745 0.0
C205 C 0.54281 0.67196 0.56363 0.0
C206 C 0.43248 0.61268 0.6739 0.0
C207 C 0.61637 0.68542 0.69604 0.0
H208 H 0.46487 0.66863 0.94304 0.0
H209 H 0.6555 0.61615 0.92775 0.0
H210 H 0.44532 0.69162 0.74983 0.0
H211 H 0.381 0.66612 0.73997 0.0
H212 H 0.38627 0.68489 0.82925 0.0
H213 H 0.701 0.60613 0.80405 0.0
H214 H 0.61751 0.60292 0.7262 0.0
H215 H 0.68044 0.62856 0.72398 0.0
H216 H 0.42303 0.62397 0.51405 0.0
H217 H 0.56926 0.68707 0.53557 0.0
H218 H 0.40468 0.61945 0.7267 0.0
H219 H 0.47681 0.59815 0.69615 0.0
H220 H 0.38551 0.60455 0.63006 0.0
H221 H 0.58391 0.69618 0.73832 0.0
H222 H 0.64394 0.69834 0.65696 0.0
H223 H 0.66454 0.67474 0.73316 0.0
C224 C 0.39965 0.40902 0.0859 0.0
C225 C 0.45488 0.39933 0.03782 0.0
C226 C 0.41515 0.40832 0.17118 0.0
C227 C 0.48768 0.39764 0.20947 0.0
C228 C 0.54169 0.38671 0.16098 0.0
C229 C 0.52442 0.38756 0.07603 0.0
C230 C 0.35482 0.41956 0.22033 0.0
C231 C 0.61972 0.37512 0.19865 0.0
C232 C 0.56499 0.41609 0.42769 0.0
C233 C 0.54657 0.39555 0.47148 0.0
C234 C 0.54709 0.41694 0.34214 0.0
C235 C 0.50654 0.39739 0.30013 0.0
C236 C 0.48572 0.37709 0.34472 0.0
C237 C 0.50717 0.37626 0.42889 0.0
C238 C 0.57271 0.43852 0.29628 0.0
C239 C 0.44133 0.356 0.30351 0.0
H240 H 0.34559 0.41796 0.0566 0.0
H241 H 0.56809 0.38038 0.03947 0.0
H242 H 0.33485 0.40556 0.26099 0.0
H243 H 0.38257 0.43423 0.2593 0.0
H244 H 0.30181 0.42739 0.18158 0.0
H245 H 0.6543 0.36686 0.15274 0.0
H246 H 0.65657 0.38909 0.23274 0.0
H247 H 0.60884 0.36071 0.24251 0.0
H248 H 0.59533 0.43106 0.45979 0.0
H249 H 0.49203 0.36034 0.46177 0.0
H250 H 0.60599 0.43221 0.24663 0.0
H251 H 0.6112 0.45085 0.33598 0.0
H252 H 0.51935 0.449 0.26785 0.0
H253 H 0.38602 0.36281 0.26622 0.0
H254 H 0.42505 0.34231 0.34746 0.0
H255 H 0.47863 0.34672 0.26209 0.0
C256 C 0.69223 0.13435 0.36095 0.0
C257 C 0.72507 0.15256 0.31774 0.0
C258 C 0.60894 0.13327 0.35927 0.0
C259 C 0.55848 0.15066 0.31273 0.0
C260 C 0.59204 0.16852 0.26706 0.0
C261 C 0.67486 0.16926 0.27041 0.0
C262 C 0.575 0.11395 0.40866 0.0
C263 C 0.54067 0.18709 0.21548 0.0
C264 C 0.34351 0.13415 0.25032 0.0
C265 C 0.30402 0.14703 0.30674 0.0
C266 C 0.42603 0.13549 0.2509 0.0
C267 C 0.47042 0.14992 0.30988 0.0
C268 C 0.43051 0.16384 0.36492 0.0
C269 C 0.34733 0.16235 0.36237 0.0
C270 C 0.46591 0.12091 0.18976 0.0
C271 C 0.47602 0.17957 0.42831 0.0
H272 H 0.73149 0.12165 0.39812 0.0
H273 H 0.70086 0.18325 0.23671 0.0
H274 H 0.5407 0.12276 0.45367 0.0
H275 H 0.53298 0.10266 0.36883 0.0
H276 H 0.62214 0.10175 0.44118 0.0
H277 H 0.57651 0.19964 0.18311 0.0
H278 H 0.4984 0.17766 0.17009 0.0
H279 H 0.50463 0.19816 0.25381 0.0
H280 H 0.30985 0.12239 0.20687 0.0
H281 H 0.31694 0.1721 0.40652 0.0
H282 H 0.50793 0.10708 0.22144 0.0
H283 H 0.50123 0.13306 0.15562 0.0
H284 H 0.42226 0.11137 0.14589 0.0
H285 H 0.51804 0.16795 0.46957 0.0
H286 H 0.43596 0.18983 0.46487 0.0
H287 H 0.51208 0.19282 0.39927 0.0
C288 C 0.6723 0.89312 0.67571 0.0
C289 C 0.7138 0.90747 0.73589 0.0
C290 C 0.58925 0.8907 0.67089 0.0
C291 C 0.54707 0.90234 0.72902 0.0
C292 C 0.5894 0.91598 0.79196 0.0
C293 C 0.67198 0.91869 0.79387 0.0
C294 C 0.54632 0.87632 0.60207 0.0
C295 C 0.54738 0.92789 0.85693 0.0
C296 C 0.32306 0.91542 0.67972 0.0
C297 C 0.29194 0.89492 0.71343 0.0
C298 C 0.40615 0.91799 0.68355 0.0
C299 C 0.45882 0.90005 0.72449 0.0
C300 C 0.42712 0.87978 0.76098 0.0
C301 C 0.34424 0.87729 0.75385 0.0
C302 C 0.43761 0.93959 0.64238 0.0
C303 C 0.48066 0.8607 0.80766 0.0
H304 H 0.70422 0.88469 0.63014 0.0
H305 H 0.70396 0.92974 0.84065 0.0
H306 H 0.51404 0.86114 0.62616 0.0
H307 H 0.50118 0.88829 0.56573 0.0
H308 H 0.58765 0.86857 0.56148 0.0
H309 H 0.58956 0.93665 0.90422 0.0
H310 H 0.5038 0.94198 0.82953 0.0
H311 H 0.51348 0.91411 0.88634 0.0
H312 H 0.28253 0.92899 0.64828 0.0
H313 H 0.32004 0.86156 0.78092 0.0
H314 H 0.47556 0.93311 0.59673 0.0
H315 H 0.47561 0.95054 0.68728 0.0
H316 H 0.38897 0.95164 0.61178 0.0
H317 H 0.51766 0.85114 0.76657 0.0
H318 H 0.44638 0.84688 0.83659 0.0
H319 H 0.52201 0.86952 0.85544 0.0
C320 C 0.8618 0.63258 0.17012 0.0
C321 C 0.8191 0.64442 0.22621 0.0
C322 C 0.94465 0.63457 0.17433 0.0
C323 C 0.98622 0.64835 0.23723 0.0
C324 C 0.94329 0.66071 0.29335 0.0
C325 C 0.85995 0.6588 0.28663 0.0
C326 C 0.98773 0.62179 0.11173 0.0
C327 C 0.98559 0.67545 0.36157 0.0
C328 C 0.21003 0.63522 0.28639 0.0
C329 C 0.24067 0.65506 0.24864 0.0
C330 C 0.127 0.63294 0.28441 0.0
C331 C 0.07422 0.65058 0.24197 0.0
C332 C 0.10545 0.6702 0.20191 0.0
C333 C 0.18808 0.67229 0.20641 0.0
C334 C 0.09573 0.61195 0.32875 0.0
C335 C 0.05169 0.689 0.15398 0.0
H336 H 0.83028 0.62148 0.12319 0.0
H337 H 0.82724 0.66767 0.33077 0.0
H338 H 0.02145 0.63518 0.08051 0.0
H339 H 0.0316 0.60815 0.14162 0.0
H340 H 0.9463 0.6123 0.06554 0.0
H341 H 0.94378 0.6835 0.40112 0.0
H342 H 0.03044 0.66368 0.39909 0.0
H343 H 0.01816 0.69045 0.33676 0.0
H344 H 0.2508 0.622 0.31935 0.0
H345 H 0.21183 0.68747 0.17616 0.0
H346 H 0.05703 0.60062 0.28565 0.0
H347 H 0.05849 0.61908 0.3741 0.0
H348 H 0.14447 0.6001 0.36021 0.0
H349 H 0.01163 0.67989 0.10579 0.0
H350 H 0.08579 0.70293 0.12533 0.0
H351 H 0.01336 0.69847 0.19399 0.0
C352 C 0.8357 0.41631 0.73833 0.0
C353 C 0.80669 0.39489 0.76835 0.0
C354 C 0.91818 0.41898 0.73682 0.0
C355 C 0.97263 0.40008 0.76841 0.0
C356 C 0.94325 0.37879 0.80116 0.0
C357 C 0.86075 0.37632 0.79956 0.0
C358 C 0.94698 0.44173 0.69979 0.0
C359 C 0.99892 0.35858 0.83799 0.0
C360 C 0.1817 0.39542 0.70549 0.0
C361 C 0.22632 0.40793 0.76838 0.0
C362 C 0.09887 0.39296 0.70412 0.0
C363 C 0.06038 0.40263 0.76838 0.0
C364 C 0.10607 0.41444 0.83352 0.0
C365 C 0.18812 0.41726 0.83207 0.0
C366 C 0.05229 0.38054 0.63296 0.0
C367 C 0.06826 0.42424 0.90461 0.0
H368 H 0.79381 0.43054 0.71345 0.0
H369 H 0.83824 0.35978 0.8233 0.0
H370 H 0.988 0.45148 0.74544 0.0
H371 H 0.9811 0.43667 0.64942 0.0
H372 H 0.89708 0.45443 0.67612 0.0
H373 H 0.96665 0.34375 0.86435 0.0
H374 H 0.03283 0.35058 0.79131 0.0
H375 H 0.04297 0.36604 0.88629 0.0
H376 H 0.21095 0.38852 0.65564 0.0
H377 H 0.22267 0.42689 0.88093 0.0
H378 H 1.00278 0.39279 0.60544 0.0
H379 H 0.02525 0.3638 0.65363 0.0
H380 H 0.09016 0.37538 0.58562 0.0
H381 H 0.02345 0.43881 0.88389 0.0
H382 H 0.11279 0.43187 0.95223 0.0
H383 H 0.03643 0.40951 0.93189 0.0
C384 C 0.407 0.31534 0.52312 0.0
C385 C 0.37028 0.33476 0.56025 0.0
C386 C 0.36695 0.29376 0.50323 0.0
C387 C 0.28734 0.29179 0.519 0.0
C388 C 0.24766 0.3121 0.5504 0.0
C389 C 0.29005 0.33343 0.57141 0.0
C390 C 0.41152 0.27259 0.46997 0.0
C391 C 0.16174 0.31089 0.56519 0.0
C392 C 0.16649 0.24329 0.40358 0.0
C393 C 0.1615 0.22546 0.4634 0.0
C394 C 0.20665 0.26493 0.4212 0.0
C395 C 0.24538 0.26861 0.50023 0.0
C396 C 0.24535 0.25 0.55991 0.0
C397 C 0.20261 0.22855 0.5409 0.0
C398 C 0.20479 0.28425 0.3559 0.0
C399 C 0.28842 0.25311 0.64422 0.0
H400 H 0.46951 0.31638 0.51531 0.0
H401 H 0.26229 0.34825 0.60156 0.0
H402 H 0.41566 0.25697 0.51299 0.0
H403 H 0.37895 0.26631 0.41195 0.0
H404 H 0.4728 0.27738 0.45958 0.0
H405 H 0.13856 0.3286 0.58615 0.0
H406 H 0.12396 0.3055 0.50887 0.0
H407 H 0.15585 0.29673 0.61162 0.0
H408 H 0.13536 0.24078 0.34312 0.0
H409 H 0.19827 0.21488 0.58721 0.0
H410 H 0.26629 0.28867 0.34566 0.0
H411 H 0.17625 0.30131 0.37548 0.0
H412 H 0.17155 0.27845 0.29743 0.0
H413 H 0.35182 0.25728 0.64132 0.0
H414 H 0.28587 0.23654 0.68232 0.0
H415 H 0.26153 0.26879 0.67401 0.0
C416 C 0.72064 0.32588 0.99284 0.0
C417 C 0.65094 0.32463 0.93789 0.0
C418 C 0.75462 0.30462 0.0327 0.0
C419 C 0.71813 0.28177 0.01645 0.0
C420 C 0.64572 0.28076 0.96408 0.0
C421 C 0.61272 0.30218 0.92635 0.0
C422 C 0.8309 0.30644 0.09 0.0
C423 C 0.60455 0.25689 0.94528 0.0
C424 C 0.84681 0.22372 0.05976 0.0
C425 C 0.8261 0.21688 0.13504 0.0
C426 C 0.81069 0.24457 0.01911 0.0
C427 C 0.75401 0.25889 0.0557 0.0
C428 C 0.7306 0.25124 0.12995 0.0
C429 C 0.76665 0.23031 0.16833 0.0
C430 C 0.83554 0.25183 0.93882 0.0
C431 C 0.6705 0.26583 0.17116 0.0
H432 H 0.75071 0.3431 1.00136 0.0
H433 H 0.55828 0.30115 0.88438 0.0
H434 H 0.82339 0.29839 0.14966 0.0
H435 H 0.87928 0.29581 0.06591 0.0
H436 H 0.84973 0.32563 0.09909 0.0
H437 H 0.54805 0.25932 0.90364 0.0
H438 H 0.64467 0.24411 0.91703 0.0
H439 H 0.59108 0.24813 1.00187 0.0
H440 H 0.89418 0.2137 0.03515 0.0
H441 H 0.75178 0.22521 0.22744 0.0
H442 H 0.86671 0.26943 0.94524 0.0
H443 H 0.78224 0.25464 0.89309 0.0
H444 H 0.87584 0.23789 0.91591 0.0
H445 H 0.69402 0.28416 0.18712 0.0
H446 H 0.65655 0.25679 0.22724 0.0
H447 H 0.61424 0.26863 0.12964 0.0
C448 C 0.74464 0.72313 0.4292 0.0
C449 C 0.6623 0.72061 0.42515 0.0
C450 C 0.7801 0.74487 0.45872 0.0
C451 C 0.73133 0.76438 0.48247 0.0
C452 C 0.64886 0.76119 0.48249 0.0
C453 C 0.61575 0.73918 0.45523 0.0
C454 C 0.86895 0.74738 0.46117 0.0
C455 C 0.59463 0.78154 0.50646 0.0
C456 C 0.82522 0.81431 0.61517 0.0
C457 C 0.84004 0.8319 0.55799 0.0
C458 C 0.78987 0.7923 0.59134 0.0
C459 C 0.76608 0.78813 0.50826 0.0
C460 C 0.77464 0.80671 0.45056 0.0
C461 C 0.81259 0.82845 0.47615 0.0
C462 C 0.78276 0.77293 0.65467 0.0
C463 C 0.74702 0.80316 0.36167 0.0
H464 H 0.78024 0.70887 0.40497 0.0
H465 H 0.5518 0.73709 0.45189 0.0
H466 H 0.88127 0.76144 0.41671 0.0
H467 H 0.8954 0.75358 0.52193 0.0
H468 H 0.89904 0.72994 0.44695 0.0
H469 H 0.53189 0.77583 0.50447 0.0
H470 H 0.61559 0.78795 0.56846 0.0
H471 H 0.59604 0.79735 0.46491 0.0
H472 H 0.84695 0.81706 0.67863 0.0
H473 H 0.82521 0.84191 0.43202 0.0
H474 H 0.81957 0.75659 0.64281 0.0
H475 H 0.72025 0.76706 0.65161 0.0
H476 H 0.80261 0.77938 0.71705 0.0
H477 H 0.78294 0.78825 0.33791 0.0
H478 H 0.7526 0.81998 0.32565 0.0
H479 H 0.68387 0.79762 0.35271 0.0
C480 C 0.28769 0.73298 0.11515 0.0
C481 C 0.33312 0.71818 0.06866 0.0
C482 C 0.25079 0.75478 0.0843 0.0
C483 C 0.2575 0.76175 1.00384 0.0
C484 C 0.29855 0.746 0.95443 0.0
C485 C 0.33704 0.72444 0.98791 0.0
C486 C 0.20872 0.77102 0.13955 0.0
C487 C 0.30445 0.75242 0.86734 0.0
C488 C 0.10605 0.80837 0.90487 0.0
C489 C 0.15185 0.82932 0.90188 0.0
C490 C 0.1396 0.78639 0.93801 0.0
C491 C 0.22062 0.78542 0.97173 0.0
C492 C 0.26557 0.80706 0.97529 0.0
C493 C 0.23077 0.82881 0.93944 0.0
C494 C 0.08956 0.76384 0.93214 0.0
C495 C 0.35138 0.80693 0.01358 0.0
H496 H 0.28574 0.72827 0.17817 0.0
H497 H 0.37354 0.71331 0.95261 0.0
H498 H 0.23962 0.78864 0.14793 0.0
H499 H 0.14663 0.77524 0.11211 0.0
H500 H 0.20715 0.76257 0.20001 0.0
H501 H 0.33264 0.7374 0.83538 0.0
H502 H 0.24424 0.75665 0.83463 0.0
H503 H 0.34026 0.76901 0.86473 0.0
H504 H 0.04491 0.80874 0.87555 0.0
H505 H 0.26666 0.8448 0.93606 0.0
H506 H 0.08961 0.75543 0.99275 0.0
H507 H 0.11555 0.75008 0.89359 0.0
H508 H 0.0268 0.76786 0.90589 0.0
H509 H 0.35694 0.79889 0.07535 0.0
H510 H 0.37594 0.82556 0.01757 0.0
H511 H 0.3882 0.79536 0.9774 0.0
C512 C 0.93035 0.06929 0.04476 0.0
C513 C 0.9796 0.07899 0.11043 0.0
C514 C 0.9584 0.04952 1.00009 0.0
C515 C 0.03695 0.03956 0.02191 0.0
C516 C 0.08793 0.05042 0.08399 0.0
C517 C 0.05856 0.06941 0.12745 0.0
C518 C 0.90311 0.03848 0.93248 0.0
C519 C 0.17234 0.04083 0.10925 0.0
C520 C 0.0852 0.97233 0.98984 0.0
C521 C 0.12133 0.97321 0.91892 0.0
C522 C 0.05618 0.9938 0.02315 0.0
C523 C 0.06578 1.01668 0.9858 0.0
C524 C 0.11133 1.01781 0.92045 0.0
C525 C 0.14029 0.99606 0.8891 0.0
C526 C 0.01132 0.99185 0.09552 0.0
C527 C 0.12451 0.0418 0.87978 0.0
H528 H 0.86925 0.07601 0.03156 0.0
H529 H 0.09772 0.07567 0.17916 0.0
H530 H 0.93313 0.03676 0.87725 0.0
H531 H 0.88789 1.0198 0.95019 0.0
H532 H 0.84706 0.04951 0.91776 0.0
H533 H 0.20666 0.05288 0.15387 0.0
H534 H 0.17086 1.02243 0.1369 0.0
H535 H 0.20508 0.039 0.05597 0.0
H536 H 0.0701 0.95474 0.01291 0.0
H537 H 0.1675 0.99677 0.83365 0.0
H538 H 0.95078 1.00029 0.08124 0.0
H539 H 0.04261 1.00199 0.14728 0.0
H540 H 1.00538 0.9726 0.1146 0.0
H541 H 0.06675 0.04916 0.84882 0.0
H542 H 0.16674 0.03977 0.83426 0.0
H543 H 0.14779 0.05552 0.9251 0.0
C544 C 0.09332 0.06761 0.55601 0.0
C545 C 0.0643 0.08751 0.50709 0.0
C546 C 0.04451 0.04762 0.56609 0.0
C547 C 0.96741 0.04664 0.52056 0.0
C548 C 0.93558 0.06772 0.47744 0.0
C549 C 0.98309 0.08824 0.47508 0.0
C550 C 0.07778 0.02702 0.62178 0.0
C551 C 0.85401 0.06855 0.42805 0.0
C552 C 0.9231 0.9796 0.48279 0.0
C553 C 0.86543 0.976 0.53449 0.0
C554 C 0.9509 1.00318 0.47052 0.0
C555 C 0.92325 1.0232 0.51453 0.0
C556 C 0.85656 1.02001 0.55654 0.0
C557 C 0.82492 0.99665 0.56065 0.0
C558 C 0.01411 1.00607 0.41534 0.0
C559 C 0.82191 0.04047 0.603 0.0
H560 H 0.15579 0.06672 0.58093 0.0
H561 H 0.96007 0.10323 0.43575 0.0
H562 H 0.02993 1.01783 0.64917 0.0
H563 H 0.10859 1.0133 0.58718 0.0
H564 H 0.12216 0.03379 0.6712 0.0
H565 H 0.81162 0.07836 0.463 0.0
H566 H 0.85505 0.079 0.37093 0.0
H567 H 0.83084 0.0502 0.41221 0.0
H568 H 0.95358 0.96386 0.46029 0.0
H569 H 0.77856 0.99392 0.59888 0.0
H570 H 0.01186 1.02467 0.38834 0.0
H571 H 0.00705 0.99246 0.36569 0.0
H572 H 0.07385 1.00279 0.45016 0.0
H573 H 0.86656 0.05427 0.62442 0.0
H574 H 0.79656 0.03333 0.65642 0.0
H575 H 0.77245 0.0497 0.5631 0.0
C576 C 0.39315 0.56512 0.99883 0.0
C577 C 0.38248 0.57353 0.0761 0.0
C578 C 0.42342 0.54124 0.98859 0.0
C579 C 0.44787 0.52636 0.05817 0.0
C580 C 0.4221 0.53353 0.13279 0.0
C581 C 0.37907 0.55577 0.13652 0.0
C582 C 0.43441 0.53313 0.90412 0.0
C583 C 0.44618 0.51974 0.21116 0.0
C584 C 0.53424 0.46116 0.05156 0.0
C585 C 0.59695 0.4648 1.006 0.0
C586 C 0.48257 0.48068 0.06674 0.0
C587 C 0.50488 0.50499 0.05318 0.0
C588 C 0.58173 0.50865 0.02969 0.0
C589 C 0.62494 0.48861 1.00259 0.0
C590 C 0.40207 0.47449 0.08991 0.0
C591 C 0.61681 0.53365 0.02722 0.0
H592 H 0.3893 0.57805 0.94898 0.0
H593 H 0.36491 0.56184 0.19513 0.0
H594 H 0.44493 0.51311 0.90011 0.0
H595 H 0.38065 0.53837 0.86139 0.0
H596 H 0.4851 0.54275 0.88354 0.0
H597 H 0.39484 0.50924 0.22636 0.0
H598 H 0.49801 0.50707 0.2091 0.0
H599 H 0.4618 0.53273 0.26142 0.0
H600 H 0.51689 0.44281 0.06196 0.0
H601 H 0.67575 0.4919 0.97086 0.0
H602 H 0.35848 0.49002 0.08422 0.0
H603 H 0.40969 0.46753 0.15312 0.0
H604 H 0.3758 0.45975 0.05042 0.0
H605 H 0.60971 0.54046 0.9639 0.0
H606 H 0.68184 0.53254 0.04825 0.0
H607 H 0.58874 0.54703 0.06552 0.0
C608 C 0.45102 0.477 0.51649 0.0
C609 C 0.41193 0.4796 0.58522 0.0
C610 C 0.48098 0.49755 0.48033 0.0
C611 C 0.47382 0.52104 0.51544 0.0
C612 C 0.42931 0.52384 0.58114 0.0
C613 C 0.39633 0.5033 0.61282 0.0
C614 C 0.52516 0.49336 0.40844 0.0
C615 C 0.42408 0.54794 0.62428 0.0
C616 C 0.63616 0.56524 0.47587 0.0
C617 C 0.59328 0.58155 0.42087 0.0
C618 C 0.59717 0.54613 0.51045 0.0
C619 C 0.51459 0.54259 0.48586 0.0
C620 C 0.47114 0.55945 0.43163 0.0
C621 C 0.51051 0.57908 0.40205 0.0
C622 C 0.6451 0.52897 0.56999 0.0
C623 C 0.38441 0.55581 0.39998 0.0
H624 H 0.4641 0.45885 0.49496 0.0
H625 H 0.36592 0.50548 0.66595 0.0
H626 H 0.48991 0.4815 0.36408 0.0
H627 H 0.53792 0.51044 0.37739 0.0
H628 H 0.5825 0.48358 0.42894 0.0
H629 H 0.38293 0.54749 0.67109 0.0
H630 H 0.4843 0.55255 0.6542 0.0
H631 H 0.404 0.56285 0.58089 0.0
H632 H 0.70032 0.56668 0.48872 0.0
H633 H 0.47768 0.59133 0.35763 0.0
H634 H 0.65306 0.51106 0.54062 0.0
H635 H 0.61303 0.5258 0.62302 0.0
H636 H 0.70494 0.5361 0.59161 0.0
H637 H 0.37617 0.53701 0.37612 0.0
H638 H 0.36188 0.56903 0.35111 0.0
H639 H 0.34708 0.55796 0.44957 0.0
loop_
_geom_bond_atom_site_label_1
_geom_bond_atom_site_label_2
_geom_bond_distance
_geom_bond_site_symmetry_2
_ccdc_geom_bond_type
Fe0 O1 1.886 . S
Fe0 O4 1.715 . S
Fe0 O9 2.077 . S
Fe0 O14 1.935 . S
Fe0 O20 2.077 . S
Fe0 O29 1.935 . S
O1 Fe0 1.886 . S
O1 Fe3 1.715 1_455 S
Fe2 O4 1.886 . S
Fe2 O5 1.715 1_455 S
Fe2 O12 1.935 . S
Fe2 O13 2.077 . S
Fe2 O19 1.935 1_455 S
Fe2 O28 2.077 . S
Fe3 O1 1.715 1_655 S
Fe3 O6 1.886 . S
Fe3 O10 1.935 1_655 S
Fe3 O15 2.077 . S
Fe3 O21 1.935 . S
Fe3 O25 2.077 . S
O4 Fe0 1.715 . S
O4 Fe2 1.886 . S
O5 Fe2 1.715 1_655 S
O5 Fe7 1.886 . S
O6 Fe3 1.886 . S
O6 Fe7 1.715 . S
Fe7 O5 1.886 . S
Fe7 O6 1.715 . S
Fe7 O11 2.077 . S
Fe7 O16 1.935 . S
Fe7 O18 2.077 . S
Fe7 O26 1.935 . S
C8 O20 1.381 1_655 S
C8 O21 1.421 . S
O9 Fe0 2.077 . S
O9 C22 1.381 . S
O10 Fe3 1.935 1_455 S
O10 C22 1.421 . S
O11 Fe7 2.077 . S
O11 C27 1.381 1_655 S
O12 Fe2 1.935 . S
O12 C27 1.421 . S
O13 Fe2 2.077 . S
O13 C17 1.381 . S
O14 Fe0 1.935 . S
O14 C17 1.421 . S
O15 Fe3 2.077 . S
O15 C23 1.381 . S
O16 Fe7 1.935 . S
O16 C23 1.421 . S
C17 O13 1.381 . S
C17 O14 1.421 . S
O18 Fe7 2.077 . S
O18 C30 1.381 . S
O19 Fe2 1.935 1_655 S
O19 C30 1.421 . S
O20 Fe0 2.077 . S
O20 C8 1.381 1_455 S
O21 Fe3 1.935 . S
O21 C8 1.421 . S
C22 O9 1.381 . S
C22 O10 1.421 . S
C23 O15 1.381 . S
C23 O16 1.421 . S
C24 O25 1.381 . S
C24 O26 1.421 . S
O25 Fe3 2.077 . S
O25 C24 1.381 . S
O26 Fe7 1.935 . S
O26 C24 1.421 . S
C27 O11 1.381 1_455 S
C27 O12 1.421 . S
O28 Fe2 2.077 . S
O28 C31 1.381 . S
O29 Fe0 1.935 . S
O29 C31 1.421 . S
C30 O18 1.381 . S
C30 O19 1.421 . S
C31 O28 1.381 . S
C31 O29 1.421 . S
Fe32 O33 1.886 . S
Fe32 O36 1.715 1_655 S
Fe32 O41 2.077 . S
Fe32 O46 1.935 1_655 S
Fe32 O52 2.077 . S
Fe32 O61 1.935 . S
O33 Fe32 1.886 . S
O33 Fe35 1.715 . S
Fe34 O36 1.886 . S
Fe34 O37 1.715 . S
Fe34 O44 1.935 . S
Fe34 O45 2.077 . S
Fe34 O51 1.935 . S
Fe34 O60 2.077 . S
Fe35 O33 1.715 . S
Fe35 O38 1.886 . S
Fe35 O42 1.935 . S
Fe35 O47 2.077 . S
Fe35 O53 1.935 . S
Fe35 O57 2.077 . S
O36 Fe32 1.715 1_455 S
O36 Fe34 1.886 . S
O37 Fe34 1.715 . S
O37 Fe39 1.886 . S
O38 Fe35 1.886 . S
O38 Fe39 1.715 1_655 S
Fe39 O37 1.886 . S
Fe39 O38 1.715 1_455 S
Fe39 O43 2.077 . S
Fe39 O48 1.935 . S
Fe39 O50 2.077 . S
Fe39 O58 1.935 1_455 S
C40 O52 1.381 . S
C40 O53 1.421 . S
O41 Fe32 2.077 . S
O41 C54 1.381 . S
O42 Fe35 1.935 . S
O42 C54 1.421 . S
O43 Fe39 2.077 . S
O43 C59 1.381 . S
O44 Fe34 1.935 . S
O44 C59 1.421 . S
O45 Fe34 2.077 . S
O45 C49 1.381 . S
O46 Fe32 1.935 1_455 S
O46 C49 1.421 . S
O47 Fe35 2.077 . S
O47 C55 1.381 1_655 S
O48 Fe39 1.935 . S
O48 C55 1.421 . S
C49 O45 1.381 . S
C49 O46 1.421 . S
O50 Fe39 2.077 . S
O50 C62 1.381 . S
O51 Fe34 1.935 . S
O51 C62 1.421 . S
O52 Fe32 2.077 . S
O52 C40 1.381 . S
O53 Fe35 1.935 . S
O53 C40 1.421 . S
C54 O41 1.381 . S
C54 O42 1.421 . S
C55 O47 1.381 1_455 S
C55 O48 1.421 . S
C56 O57 1.381 . S
C56 O58 1.421 . S
O57 Fe35 2.077 . S
O57 C56 1.381 . S
O58 Fe39 1.935 1_655 S
O58 C56 1.421 . S
C59 O43 1.381 . S
C59 O44 1.421 . S
O60 Fe34 2.077 . S
O60 C63 1.381 1_455 S
O61 Fe32 1.935 . S
O61 C63 1.421 . S
C62 O50 1.381 . S
C62 O51 1.421 . S
C63 O60 1.381 1_655 S
C63 O61 1.421 . S
Fe64 O65 1.886 . S
Fe64 O68 1.715 . S
Fe64 O73 2.077 . S
Fe64 O78 1.935 . S
Fe64 O84 2.077 . S
Fe64 O93 1.935 . S
O65 Fe64 1.886 . S
O65 Fe67 1.715 . S
Fe66 O68 1.886 . S
Fe66 O69 1.715 . S
Fe66 O76 1.935 . S
Fe66 O77 2.077 . S
Fe66 O83 1.935 . S
Fe66 O92 2.077 . S
Fe67 O65 1.715 . S
Fe67 O70 1.886 . S
Fe67 O74 1.935 . S
Fe67 O79 2.077 . S
Fe67 O85 1.935 . S
Fe67 O89 2.077 . S
O68 Fe64 1.715 . S
O68 Fe66 1.886 . S
O69 Fe66 1.715 . S
O69 Fe71 1.886 . S
O70 Fe67 1.886 . S
O70 Fe71 1.715 . S
Fe71 O69 1.886 . S
Fe71 O70 1.715 . S
Fe71 O75 2.077 . S
Fe71 O80 1.935 . S
Fe71 O82 2.077 . S
Fe71 O90 1.935 . S
C72 O84 1.381 . S
C72 O85 1.421 . S
O73 Fe64 2.077 . S
O73 C86 1.381 . S
O74 Fe67 1.935 . S
O74 C86 1.421 . S
O75 Fe71 2.077 . S
O75 C91 1.381 . S
O76 Fe66 1.935 . S
O76 C91 1.421 . S
O77 Fe66 2.077 . S
O77 C81 1.381 . S
O78 Fe64 1.935 . S
O78 C81 1.421 . S
O79 Fe67 2.077 . S
O79 C87 1.381 . S
O80 Fe71 1.935 . S
O80 C87 1.421 . S
C81 O77 1.381 . S
C81 O78 1.421 . S
O82 Fe71 2.077 . S
O82 C94 1.381 . S
O83 Fe66 1.935 . S
O83 C94 1.421 . S
O84 Fe64 2.077 . S
O84 C72 1.381 . S
O85 Fe67 1.935 . S
O85 C72 1.421 . S
C86 O73 1.381 . S
C86 O74 1.421 . S
C87 O79 1.381 . S
C87 O80 1.421 . S
C88 O89 1.381 . S
C88 O90 1.421 . S
O89 Fe67 2.077 . S
O89 C88 1.381 . S
O90 Fe71 1.935 . S
O90 C88 1.421 . S
C91 O75 1.381 . S
C91 O76 1.421 . S
O92 Fe66 2.077 . S
O92 C95 1.381 . S
O93 Fe64 1.935 . S
O93 C95 1.421 . S
C94 O82 1.381 . S
C94 O83 1.421 . S
C95 O92 1.381 . S
C95 O93 1.421 . S
Fe96 O97 1.886 . S
Fe96 O100 1.715 . S
Fe96 O105 2.077 . S
Fe96 O110 1.935 . S
Fe96 O116 2.077 . S
Fe96 O125 1.935 . S
O97 Fe96 1.886 . S
O97 Fe99 1.715 . S
Fe98 O100 1.886 . S
Fe98 O101 1.715 . S
Fe98 O108 1.935 . S
Fe98 O109 2.077 . S
Fe98 O115 1.935 . S
Fe98 O124 2.077 . S
Fe99 O97 1.715 . S
Fe99 O102 1.886 . S
Fe99 O106 1.935 . S
Fe99 O111 2.077 . S
Fe99 O117 1.935 . S
Fe99 O121 2.077 . S
O100 Fe96 1.715 . S
O100 Fe98 1.886 . S
O101 Fe98 1.715 . S
O101 Fe103 1.886 . S
O102 Fe99 1.886 . S
O102 Fe103 1.715 . S
Fe103 O101 1.886 . S
Fe103 O102 1.715 . S
Fe103 O107 2.077 . S
Fe103 O112 1.935 . S
Fe103 O114 2.077 . S
Fe103 O122 1.935 . S
C104 O116 1.381 . S
C104 O117 1.421 . S
O105 Fe96 2.077 . S
O105 C118 1.381 . S
O106 Fe99 1.935 . S
O106 C118 1.421 . S
O107 Fe103 2.077 . S
O107 C123 1.381 . S
O108 Fe98 1.935 . S
O108 C123 1.421 . S
O109 Fe98 2.077 . S
O109 C113 1.381 . S
O110 Fe96 1.935 . S
O110 C113 1.421 . S
O111 Fe99 2.077 . S
O111 C119 1.381 . S
O112 Fe103 1.935 . S
O112 C119 1.421 . S
C113 O109 1.381 . S
C113 O110 1.421 . S
O114 Fe103 2.077 . S
O114 C126 1.381 . S
O115 Fe98 1.935 . S
O115 C126 1.421 . S
O116 Fe96 2.077 . S
O116 C104 1.381 . S
O117 Fe99 1.935 . S
O117 C104 1.421 . S
C118 O105 1.381 . S
C118 O106 1.421 . S
C119 O111 1.381 . S
C119 O112 1.421 . S
C120 O121 1.381 . S
C120 O122 1.421 . S
O121 Fe99 2.077 . S
O121 C120 1.381 . S
O122 Fe103 1.935 . S
O122 C120 1.421 . S
C123 O107 1.381 . S
C123 O108 1.421 . S
O124 Fe98 2.077 . S
O124 C127 1.381 . S
O125 Fe96 1.935 . S
O125 C127 1.421 . S
C126 O114 1.381 . S
C126 O115 1.421 . S
C127 O124 1.381 . S
C127 O125 1.421 . S
C128 C129 1.391 1_655 S
C128 C130 1.394 . S
C128 H144 0.931 . S
C129 C128 1.391 1_455 S
C129 C133 1.376 . S
C130 C128 1.394 . S
C130 C131 1.369 1_655 S
C130 C134 1.531 . S
C131 C130 1.369 1_455 S
C131 C132 1.410 . S
C131 C139 1.503 1_455 S
C132 C131 1.410 . S
C132 C133 1.392 . S
C132 C135 1.511 . S
C133 C129 1.376 . S
C133 C132 1.392 . S
C133 H145 0.929 . S
C134 C130 1.531 . S
C134 H146 0.960 . S
C134 H147 0.962 . S
C134 H148 0.960 . S
C135 C132 1.511 . S
C135 H149 0.961 . S
C135 H150 0.961 . S
C135 H151 0.961 . S
C136 C137 1.370 . S
C136 C138 1.363 . S
C136 H152 0.931 . S
C137 C136 1.370 . S
C137 C141 1.408 . S
C138 C136 1.363 . S
C138 C139 1.370 . S
C138 C142 1.524 1_655 S
C139 C131 1.503 1_655 S
C139 C138 1.370 . S
C139 C140 1.403 . S
C140 C139 1.403 . S
C140 C141 1.404 . S
C140 C143 1.539 . S
C141 C137 1.408 . S
C141 C140 1.404 . S
C141 H153 0.930 . S
C142 C138 1.524 1_455 S
C142 H154 0.956 1_455 S
C142 H155 0.961 . S
C142 H156 0.961 . S
C143 C140 1.539 . S
C143 H157 0.958 . S
C143 H158 0.961 . S
C143 H159 0.960 1_655 S
H144 C128 0.931 . S
H145 C133 0.929 . S
H146 C134 0.960 . S
H147 C134 0.962 . S
H148 C134 0.960 . S
H149 C135 0.961 . S
H150 C135 0.961 . S
H151 C135 0.961 . S
H152 C136 0.931 . S
H153 C141 0.930 . S
H154 C142 0.956 1_655 S
H155 C142 0.961 . S
H156 C142 0.961 . S
H157 C143 0.958 . S
H158 C143 0.961 . S
H159 C143 0.960 1_455 S
C160 C161 1.391 . S
C160 C162 1.394 . S
C160 H176 0.931 . S
C161 C160 1.391 . S
C161 C165 1.376 1_455 S
C162 C160 1.394 . S
C162 C163 1.369 1_455 S
C162 C166 1.531 . S
C163 C162 1.369 1_655 S
C163 C164 1.410 . S
C163 C171 1.503 . S
C164 C163 1.410 . S
C164 C165 1.392 . S
C164 C167 1.511 . S
C165 C161 1.376 1_655 S
C165 C164 1.392 . S
C165 H177 0.929 . S
C166 C162 1.531 . S
C166 H178 0.960 . S
C166 H179 0.962 . S
C166 H180 0.960 . S
C167 C164 1.511 . S
C167 H181 0.961 . S
C167 H182 0.961 . S
C167 H183 0.961 . S
C168 C169 1.370 1_455 S
C168 C170 1.363 . S
C168 H184 0.931 . S
C169 C168 1.370 1_655 S
C169 C173 1.408 . S
C170 C168 1.363 . S
C170 C171 1.370 1_455 S
C170 C174 1.524 . S
C171 C163 1.503 . S
C171 C170 1.370 1_655 S
C171 C172 1.403 . S
C172 C171 1.403 . S
C172 C173 1.404 . S
C172 C175 1.539 . S
C173 C169 1.408 . S
C173 C172 1.404 . S
C173 H185 0.930 . S
C174 C170 1.524 . S
C174 H186 0.956 . S
C174 H187 0.961 . S
C174 H188 0.961 . S
C175 C172 1.539 . S
C175 H189 0.958 . S
C175 H190 0.961 . S
C175 H191 0.960 . S
H176 C160 0.931 . S
H177 C165 0.929 . S
H178 C166 0.960 . S
H179 C166 0.962 . S
H180 C166 0.960 . S
H181 C167 0.961 . S
H182 C167 0.961 . S
H183 C167 0.961 . S
H184 C168 0.931 . S
H185 C173 0.930 . S
H186 C174 0.956 . S
H187 C174 0.961 . S
H188 C174 0.961 . S
H189 C175 0.958 . S
H190 C175 0.961 . S
H191 C175 0.960 . S
C192 C193 1.391 . S
C192 C194 1.394 . S
C192 H208 0.931 . S
C193 C192 1.391 . S
C193 C197 1.376 . S
C194 C192 1.394 . S
C194 C195 1.369 . S
C194 C198 1.531 . S
C195 C194 1.369 . S
C195 C196 1.410 . S
C195 C203 1.503 . S
C196 C195 1.410 . S
C196 C197 1.392 . S
C196 C199 1.511 . S
C197 C193 1.376 . S
C197 C196 1.392 . S
C197 H209 0.929 . S
C198 C194 1.531 . S
C198 H210 0.960 . S
C198 H211 0.962 . S
C198 H212 0.960 . S
C199 C196 1.511 . S
C199 H213 0.961 . S
C199 H214 0.961 . S
C199 H215 0.961 . S
C200 C201 1.370 . S
C200 C202 1.363 . S
C200 H216 0.931 . S
C201 C200 1.370 . S
C201 C205 1.408 . S
C202 C200 1.363 . S
C202 C203 1.370 . S
C202 C206 1.524 . S
C203 C195 1.503 . S
C203 C202 1.370 . S
C203 C204 1.403 . S
C204 C203 1.403 . S
C204 C205 1.404 . S
C204 C207 1.539 . S
C205 C201 1.408 . S
C205 C204 1.404 . S
C205 H217 0.930 . S
C206 C202 1.524 . S
C206 H218 0.956 . S
C206 H219 0.961 . S
C206 H220 0.961 . S
C207 C204 1.539 . S
C207 H221 0.958 . S
C207 H222 0.961 . S
C207 H223 0.960 . S
H208 C192 0.931 . S
H209 C197 0.929 . S
H210 C198 0.960 . S
H211 C198 0.962 . S
H212 C198 0.960 . S
H213 C199 0.961 . S
H214 C199 0.961 . S
H215 C199 0.961 . S
H216 C200 0.931 . S
H217 C205 0.930 . S
H218 C206 0.956 . S
H219 C206 0.961 . S
H220 C206 0.961 . S
H221 C207 0.958 . S
H222 C207 0.961 . S
H223 C207 0.960 . S
C224 C225 1.391 . S
C224 C226 1.394 . S
C224 H240 0.931 . S
C225 C224 1.391 . S
C225 C229 1.376 . S
C226 C224 1.394 . S
C226 C227 1.369 . S
C226 C230 1.531 . S
C227 C226 1.369 . S
C227 C228 1.410 . S
C227 C235 1.503 . S
C228 C227 1.410 . S
C228 C229 1.392 . S
C228 C231 1.511 . S
C229 C225 1.376 . S
C229 C228 1.392 . S
C229 H241 0.929 . S
C230 C226 1.531 . S
C230 H242 0.960 . S
C230 H243 0.962 . S
C230 H244 0.960 . S
C231 C228 1.511 . S
C231 H245 0.961 . S
C231 H246 0.961 . S
C231 H247 0.961 . S
C232 C233 1.370 . S
C232 C234 1.363 . S
C232 H248 0.931 . S
C233 C232 1.370 . S
C233 C237 1.408 . S
C234 C232 1.363 . S
C234 C235 1.370 . S
C234 C238 1.524 . S
C235 C227 1.503 . S
C235 C234 1.370 . S
C235 C236 1.403 . S
C236 C235 1.403 . S
C236 C237 1.404 . S
C236 C239 1.539 . S
C237 C233 1.408 . S
C237 C236 1.404 . S
C237 H249 0.930 . S
C238 C234 1.524 . S
C238 H250 0.956 . S
C238 H251 0.961 . S
C238 H252 0.961 . S
C239 C236 1.539 . S
C239 H253 0.958 . S
C239 H254 0.961 . S
C239 H255 0.960 . S
H240 C224 0.931 . S
H241 C229 0.929 . S
H242 C230 0.960 . S
H243 C230 0.962 . S
H244 C230 0.960 . S
H245 C231 0.961 . S
H246 C231 0.961 . S
H247 C231 0.961 . S
H248 C232 0.931 . S
H249 C237 0.930 . S
H250 C238 0.956 . S
H251 C238 0.961 . S
H252 C238 0.961 . S
H253 C239 0.958 . S
H254 C239 0.961 . S
H255 C239 0.960 . S
C256 C257 1.391 . S
C256 C258 1.394 . S
C256 H272 0.931 . S
C257 C256 1.391 . S
C257 C261 1.376 . S
C258 C256 1.394 . S
C258 C259 1.369 . S
C258 C262 1.531 . S
C259 C258 1.369 . S
C259 C260 1.410 . S
C259 C267 1.503 . S
C260 C259 1.410 . S
C260 C261 1.392 . S
C260 C263 1.511 . S
C261 C257 1.376 . S
C261 C260 1.392 . S
C261 H273 0.929 . S
C262 C258 1.531 . S
C262 H274 0.960 . S
C262 H275 0.962 . S
C262 H276 0.960 . S
C263 C260 1.511 . S
C263 H277 0.961 . S
C263 H278 0.961 . S
C263 H279 0.961 . S
C264 C265 1.370 . S
C264 C266 1.363 . S
C264 H280 0.931 . S
C265 C264 1.370 . S
C265 C269 1.408 . S
C266 C264 1.363 . S
C266 C267 1.370 . S
C266 C270 1.524 . S
C267 C259 1.503 . S
C267 C266 1.370 . S
C267 C268 1.403 . S
C268 C267 1.403 . S
C268 C269 1.404 . S
C268 C271 1.539 . S
C269 C265 1.408 . S
C269 C268 1.404 . S
C269 H281 0.930 . S
C270 C266 1.524 . S
C270 H282 0.956 . S
C270 H283 0.961 . S
C270 H284 0.961 . S
C271 C268 1.539 . S
C271 H285 0.958 . S
C271 H286 0.961 . S
C271 H287 0.960 . S
H272 C256 0.931 . S
H273 C261 0.929 . S
H274 C262 0.960 . S
H275 C262 0.962 . S
H276 C262 0.960 . S
H277 C263 0.961 . S
H278 C263 0.961 . S
H279 C263 0.961 . S
H280 C264 0.931 . S
H281 C269 0.930 . S
H282 C270 0.956 . S
H283 C270 0.961 . S
H284 C270 0.961 . S
H285 C271 0.958 . S
H286 C271 0.961 . S
H287 C271 0.960 . S
C288 C289 1.391 . S
C288 C290 1.394 . S
C288 H304 0.931 . S
C289 C288 1.391 . S
C289 C293 1.376 . S
C290 C288 1.394 . S
C290 C291 1.369 . S
C290 C294 1.531 . S
C291 C290 1.369 . S
C291 C292 1.410 . S
C291 C299 1.503 . S
C292 C291 1.410 . S
C292 C293 1.392 . S
C292 C295 1.511 . S
C293 C289 1.376 . S
C293 C292 1.392 . S
C293 H305 0.929 . S
C294 C290 1.531 . S
C294 H306 0.960 . S
C294 H307 0.962 . S
C294 H308 0.960 . S
C295 C292 1.511 . S
C295 H309 0.961 . S
C295 H310 0.961 . S
C295 H311 0.961 . S
C296 C297 1.370 . S
C296 C298 1.363 . S
C296 H312 0.931 . S
C297 C296 1.370 . S
C297 C301 1.408 . S
C298 C296 1.363 . S
C298 C299 1.370 . S
C298 C302 1.524 . S
C299 C291 1.503 . S
C299 C298 1.370 . S
C299 C300 1.403 . S
C300 C299 1.403 . S
C300 C301 1.404 . S
C300 C303 1.539 . S
C301 C297 1.408 . S
C301 C300 1.404 . S
C301 H313 0.930 . S
C302 C298 1.524 . S
C302 H314 0.956 . S
C302 H315 0.961 . S
C302 H316 0.961 . S
C303 C300 1.539 . S
C303 H317 0.958 . S
C303 H318 0.961 . S
C303 H319 0.960 . S
H304 C288 0.931 . S
H305 C293 0.929 . S
H306 C294 0.960 . S
H307 C294 0.962 . S
H308 C294 0.960 . S
H309 C295 0.961 . S
H310 C295 0.961 . S
H311 C295 0.961 . S
H312 C296 0.931 . S
H313 C301 0.930 . S
H314 C302 0.956 . S
H315 C302 0.961 . S
H316 C302 0.961 . S
H317 C303 0.958 . S
H318 C303 0.961 . S
H319 C303 0.960 . S
C320 C321 1.391 . S
C320 C322 1.394 . S
C320 H336 0.931 . S
C321 C320 1.391 . S
C321 C325 1.376 . S
C322 C320 1.394 . S
C322 C323 1.369 . S
C322 C326 1.531 . S
C323 C322 1.369 . S
C323 C324 1.410 . S
C323 C331 1.503 1_655 S
C324 C323 1.410 . S
C324 C325 1.392 . S
C324 C327 1.511 . S
C325 C321 1.376 . S
C325 C324 1.392 . S
C325 H337 0.929 . S
C326 C322 1.531 . S
C326 H338 0.960 . S
C326 H339 0.962 . S
C326 H340 0.960 . S
C327 C324 1.511 . S
C327 H341 0.961 . S
C327 H342 0.961 1_655 S
C327 H343 0.961 . S
C328 C329 1.370 . S
C328 C330 1.363 . S
C328 H344 0.931 . S
C329 C328 1.370 . S
C329 C333 1.408 . S
C330 C328 1.363 . S
C330 C331 1.370 . S
C330 C334 1.524 . S
C331 C323 1.503 1_455 S
C331 C330 1.370 . S
C331 C332 1.403 . S
C332 C331 1.403 . S
C332 C333 1.404 . S
C332 C335 1.539 . S
C333 C329 1.408 . S
C333 C332 1.404 . S
C333 H345 0.930 . S
C334 C330 1.524 . S
C334 H346 0.956 . S
C334 H347 0.961 . S
C334 H348 0.961 . S
C335 C332 1.539 . S
C335 H349 0.958 . S
C335 H350 0.961 . S
C335 H351 0.960 1_455 S
H336 C320 0.931 . S
H337 C325 0.929 . S
H338 C326 0.960 . S
H339 C326 0.962 . S
H340 C326 0.960 . S
H341 C327 0.961 . S
H342 C327 0.961 1_455 S
H343 C327 0.961 . S
H344 C328 0.931 . S
H345 C333 0.930 . S
H346 C334 0.956 . S
H347 C334 0.961 . S
H348 C334 0.961 . S
H349 C335 0.958 . S
H350 C335 0.961 . S
H351 C335 0.960 1_655 S
C352 C353 1.391 . S
C352 C354 1.394 . S
C352 H368 0.931 . S
C353 C352 1.391 . S
C353 C357 1.376 . S
C354 C352 1.394 . S
C354 C355 1.369 . S
C354 C358 1.531 . S
C355 C354 1.369 . S
C355 C356 1.410 . S
C355 C363 1.503 1_655 S
C356 C355 1.410 . S
C356 C357 1.392 . S
C356 C359 1.511 . S
C357 C353 1.376 . S
C357 C356 1.392 . S
C357 H369 0.929 . S
C358 C354 1.531 . S
C358 H370 0.960 1_655 S
C358 H371 0.962 . S
C358 H372 0.960 . S
C359 C356 1.511 . S
C359 H373 0.961 . S
C359 H374 0.961 1_655 S
C359 H375 0.961 . S
C360 C361 1.370 . S
C360 C362 1.363 . S
C360 H376 0.931 . S
C361 C360 1.370 . S
C361 C365 1.408 . S
C362 C360 1.363 . S
C362 C363 1.370 . S
C362 C366 1.524 . S
C363 C355 1.503 1_455 S
C363 C362 1.370 . S
C363 C364 1.403 . S
C364 C363 1.403 . S
C364 C365 1.404 . S
C364 C367 1.539 . S
C365 C361 1.408 . S
C365 C364 1.404 . S
C365 H377 0.930 . S
C366 C362 1.524 . S
C366 H378 0.956 1_455 S
C366 H379 0.961 1_455 S
C366 H380 0.961 . S
C367 C364 1.539 . S
C367 H381 0.958 . S
C367 H382 0.961 . S
C367 H383 0.960 . S
H368 C352 0.931 . S
H369 C357 0.929 . S
H370 C358 0.960 1_455 S
H371 C358 0.962 . S
H372 C358 0.960 . S
H373 C359 0.961 . S
H374 C359 0.961 1_455 S
H375 C359 0.961 . S
H376 C360 0.931 . S
H377 C365 0.930 . S
H378 C366 0.956 1_655 S
H379 C366 0.961 1_655 S
H380 C366 0.961 . S
H381 C367 0.958 . S
H382 C367 0.961 . S
H383 C367 0.960 . S
C384 C385 1.391 . S
C384 C386 1.394 . S
C384 H400 0.931 . S
C385 C384 1.391 . S
C385 C389 1.376 . S
C386 C384 1.394 . S
C386 C387 1.369 . S
C386 C390 1.531 . S
C387 C386 1.369 . S
C387 C388 1.410 . S
C387 C395 1.503 . S
C388 C387 1.410 . S
C388 C389 1.392 . S
C388 C391 1.511 . S
C389 C385 1.376 . S
C389 C388 1.392 . S
C389 H401 0.929 . S
C390 C386 1.531 . S
C390 H402 0.960 . S
C390 H403 0.962 . S
C390 H404 0.960 . S
C391 C388 1.511 . S
C391 H405 0.961 . S
C391 H406 0.961 . S
C391 H407 0.961 . S
C392 C393 1.370 . S
C392 C394 1.363 . S
C392 H408 0.931 . S
C393 C392 1.370 . S
C393 C397 1.408 . S
C394 C392 1.363 . S
C394 C395 1.370 . S
C394 C398 1.524 . S
C395 C387 1.503 . S
C395 C394 1.370 . S
C395 C396 1.403 . S
C396 C395 1.403 . S
C396 C397 1.404 . S
C396 C399 1.539 . S
C397 C393 1.408 . S
C397 C396 1.404 . S
C397 H409 0.930 . S
C398 C394 1.524 . S
C398 H410 0.956 . S
C398 H411 0.961 . S
C398 H412 0.961 . S
C399 C396 1.539 . S
C399 H413 0.958 . S
C399 H414 0.961 . S
C399 H415 0.960 . S
H400 C384 0.931 . S
H401 C389 0.929 . S
H402 C390 0.960 . S
H403 C390 0.962 . S
H404 C390 0.960 . S
H405 C391 0.961 . S
H406 C391 0.961 . S
H407 C391 0.961 . S
H408 C392 0.931 . S
H409 C397 0.930 . S
H410 C398 0.956 . S
H411 C398 0.961 . S
H412 C398 0.961 . S
H413 C399 0.958 . S
H414 C399 0.961 . S
H415 C399 0.960 . S
C416 C417 1.391 . S
C416 C418 1.394 1_556 S
C416 H432 0.931 . S
C417 C416 1.391 . S
C417 C421 1.376 . S
C418 C416 1.394 1_554 S
C418 C419 1.369 1_554 S
C418 C422 1.531 . S
C419 C418 1.369 1_556 S
C419 C420 1.410 . S
C419 C427 1.503 1_556 S
C420 C419 1.410 . S
C420 C421 1.392 . S
C420 C423 1.511 . S
C421 C417 1.376 . S
C421 C420 1.392 . S
C421 H433 0.929 . S
C422 C418 1.531 . S
C422 H434 0.960 . S
C422 H435 0.962 . S
C422 H436 0.960 . S
C423 C420 1.511 . S
C423 H437 0.961 . S
C423 H438 0.961 . S
C423 H439 0.961 . S
C424 C425 1.370 . S
C424 C426 1.359 1_554 S
C424 H440 0.931 . S
C425 C424 1.370 . S
C425 C429 1.408 . S
C426 C424 1.359 1_556 S
C426 C427 1.364 1_556 S
C426 C430 1.534 . S
C427 C419 1.503 1_554 S
C427 C426 1.364 1_554 S
C427 C428 1.403 . S
C428 C427 1.403 . S
C428 C429 1.404 . S
C428 C431 1.539 . S
C429 C425 1.408 . S
C429 C428 1.404 . S
C429 H441 0.930 . S
C430 C426 1.534 . S
C430 H442 0.956 . S
C430 H443 0.961 . S
C430 H444 0.961 . S
C431 C428 1.539 . S
C431 H445 0.958 . S
C431 H446 0.961 . S
C431 H447 0.960 . S
H432 C416 0.931 . S
H433 C421 0.929 . S
H434 C422 0.960 . S
H435 C422 0.962 . S
H436 C422 0.960 . S
H437 C423 0.961 . S
H438 C423 0.961 . S
H439 C423 0.961 . S
H440 C424 0.931 . S
H441 C429 0.930 . S
H442 C430 0.956 . S
H443 C430 0.961 . S
H444 C430 0.961 . S
H445 C431 0.958 . S
H446 C431 0.961 . S
H447 C431 0.960 . S
C448 C449 1.391 . S
C448 C450 1.394 . S
C448 H464 0.931 . S
C449 C448 1.391 . S
C449 C453 1.376 . S
C450 C448 1.394 . S
C450 C451 1.369 . S
C450 C454 1.531 . S
C451 C450 1.369 . S
C451 C452 1.410 . S
C451 C459 1.503 . S
C452 C451 1.410 . S
C452 C453 1.392 . S
C452 C455 1.511 . S
C453 C449 1.376 . S
C453 C452 1.392 . S
C453 H465 0.929 . S
C454 C450 1.531 . S
C454 H466 0.960 . S
C454 H467 0.962 . S
C454 H468 0.960 . S
C455 C452 1.511 . S
C455 H469 0.961 . S
C455 H470 0.961 . S
C455 H471 0.961 . S
C456 C457 1.370 . S
C456 C458 1.363 . S
C456 H472 0.931 . S
C457 C456 1.370 . S
C457 C461 1.408 . S
C458 C456 1.363 . S
C458 C459 1.370 . S
C458 C462 1.524 . S
C459 C451 1.503 . S
C459 C458 1.370 . S
C459 C460 1.403 . S
C460 C459 1.403 . S
C460 C461 1.404 . S
C460 C463 1.539 . S
C461 C457 1.408 . S
C461 C460 1.404 . S
C461 H473 0.930 . S
C462 C458 1.524 . S
C462 H474 0.956 . S
C462 H475 0.961 . S
C462 H476 0.961 . S
C463 C460 1.539 . S
C463 H477 0.958 . S
C463 H478 0.961 . S
C463 H479 0.960 . S
H464 C448 0.931 . S
H465 C453 0.929 . S
H466 C454 0.960 . S
H467 C454 0.962 . S
H468 C454 0.960 . S
H469 C455 0.961 . S
H470 C455 0.961 . S
H471 C455 0.961 . S
H472 C456 0.931 . S
H473 C461 0.930 . S
H474 C462 0.956 . S
H475 C462 0.961 . S
H476 C462 0.961 . S
H477 C463 0.958 . S
H478 C463 0.961 . S
H479 C463 0.960 . S
C480 C481 1.391 . S
C480 C482 1.394 . S
C480 H496 0.931 . S
C481 C480 1.391 . S
C481 C485 1.376 . S
C482 C480 1.394 . S
C482 C483 1.369 . S
C482 C486 1.531 . S
C483 C482 1.369 . S
C483 C484 1.410 . S
C483 C491 1.503 1_554 S
C484 C483 1.410 . S
C484 C485 1.392 . S
C484 C487 1.511 1_554 S
C485 C481 1.376 . S
C485 C484 1.392 . S
C485 H497 0.929 . S
C486 C482 1.531 . S
C486 H498 0.960 . S
C486 H499 0.962 . S
C486 H500 0.960 . S
C487 C484 1.511 1_556 S
C487 H501 0.961 . S
C487 H502 0.961 . S
C487 H503 0.961 . S
C488 C489 1.370 . S
C488 C490 1.363 . S
C488 H504 0.931 . S
C489 C488 1.370 . S
C489 C493 1.408 . S
C490 C488 1.363 . S
C490 C491 1.370 . S
C490 C494 1.524 . S
C491 C483 1.503 1_556 S
C491 C490 1.370 . S
C491 C492 1.403 1_556 S
C492 C491 1.403 1_554 S
C492 C493 1.404 1_554 S
C492 C495 1.539 . S
C493 C489 1.408 . S
C493 C492 1.404 1_556 S
C493 H505 0.930 . S
C494 C490 1.524 . S
C494 H506 0.956 . S
C494 H507 0.961 . S
C494 H508 0.961 . S
C495 C492 1.539 . S
C495 H509 0.958 . S
C495 H510 0.961 . S
C495 H511 0.960 . S
H496 C480 0.931 . S
H497 C485 0.929 . S
H498 C486 0.960 . S
H499 C486 0.962 . S
H500 C486 0.960 . S
H501 C487 0.961 . S
H502 C487 0.961 . S
H503 C487 0.961 . S
H504 C488 0.931 . S
H505 C493 0.930 . S
H506 C494 0.956 . S
H507 C494 0.961 . S
H508 C494 0.961 . S
H509 C495 0.958 . S
H510 C495 0.961 . S
H511 C495 0.960 . S
C512 C513 1.391 . S
C512 C514 1.394 1_554 S
C512 H528 0.931 1_554 S
C513 C512 1.391 . S
C513 C517 1.376 . S
C514 C512 1.394 1_556 S
C514 C515 1.369 1_556 S
C514 C518 1.531 . S
C515 C514 1.369 1_554 S
C515 C516 1.410 1_655 S
C515 C523 1.503 1_644 S
C516 C515 1.410 1_455 S
C516 C517 1.392 1_455 S
C516 C519 1.511 . S
C517 C513 1.376 . S
C517 C516 1.392 1_655 S
C517 H529 0.929 1_655 S
C518 C514 1.531 . S
C518 H530 0.960 . S
C518 H531 0.962 . S
C518 H532 0.960 . S
C519 C516 1.511 . S
C519 H533 0.961 . S
C519 H534 0.961 1_545 S
C519 H535 0.961 . S
C520 C521 1.370 . S
C520 C522 1.363 1_455 S
C520 H536 0.931 . S
C521 C520 1.370 . S
C521 C525 1.408 . S
C522 C520 1.363 1_655 S
C522 C523 1.370 1_655 S
C522 C526 1.524 1_556 S
C523 C515 1.503 1_466 S
C523 C522 1.370 1_455 S
C523 C524 1.403 . S
C524 C523 1.403 . S
C524 C525 1.404 . S
C524 C527 1.539 1_565 S
C525 C521 1.408 . S
C525 C524 1.404 . S
C525 H537 0.930 . S
C526 C522 1.524 1_554 S
C526 H538 0.956 . S
C526 H539 0.961 . S
C526 H540 0.961 . S
C527 C524 1.539 1_545 S
C527 H541 0.958 . S
C527 H542 0.961 . S
C527 H543 0.960 . S
H528 C512 0.931 1_556 S
H529 C517 0.929 1_455 S
H530 C518 0.960 . S
H531 C518 0.962 . S
H532 C518 0.960 . S
H533 C519 0.961 . S
H534 C519 0.961 1_565 S
H535 C519 0.961 . S
H536 C520 0.931 . S
H537 C525 0.930 . S
H538 C526 0.956 . S
H539 C526 0.961 . S
H540 C526 0.961 . S
H541 C527 0.958 . S
H542 C527 0.961 . S
H543 C527 0.960 . S
C544 C545 1.391 . S
C544 C546 1.394 . S
C544 H560 0.931 . S
C545 C544 1.391 . S
C545 C549 1.376 . S
C546 C544 1.394 . S
C546 C547 1.369 . S
C546 C550 1.531 . S
C547 C546 1.369 . S
C547 C548 1.410 1_455 S
C547 C555 1.503 1_445 S
C548 C547 1.410 1_655 S
C548 C549 1.392 1_655 S
C548 C551 1.511 . S
C549 C545 1.376 . S
C549 C548 1.392 1_455 S
C549 H561 0.929 1_455 S
C550 C546 1.531 . S
C550 H562 0.960 1_545 S
C550 H563 0.962 1_545 S
C550 H564 0.960 . S
C551 C548 1.511 . S
C551 H565 0.961 . S
C551 H566 0.961 . S
C551 H567 0.961 . S
C552 C553 1.370 . S
C552 C554 1.363 . S
C552 H568 0.931 . S
C553 C552 1.370 . S
C553 C557 1.408 . S
C554 C552 1.363 . S
C554 C555 1.370 . S
C554 C558 1.524 1_655 S
C555 C547 1.503 1_665 S
C555 C554 1.370 . S
C555 C556 1.403 . S
C556 C555 1.403 . S
C556 C557 1.404 . S
C556 C559 1.539 1_565 S
C557 C553 1.408 . S
C557 C556 1.404 . S
C557 H569 0.930 . S
C558 C554 1.524 1_455 S
C558 H570 0.956 . S
C558 H571 0.961 1_455 S
C558 H572 0.961 1_455 S
C559 C556 1.539 1_545 S
C559 H573 0.958 1_655 S
C559 H574 0.961 . S
C559 H575 0.960 . S
H560 C544 0.931 . S
H561 C549 0.929 1_655 S
H562 C550 0.960 1_565 S
H563 C550 0.962 1_565 S
H564 C550 0.960 . S
H565 C551 0.961 . S
H566 C551 0.961 . S
H567 C551 0.961 . S
H568 C552 0.931 . S
H569 C557 0.930 . S
H570 C558 0.956 . S
H571 C558 0.961 1_655 S
H572 C558 0.961 1_655 S
H573 C559 0.958 1_455 S
H574 C559 0.961 . S
H575 C559 0.960 . S
C576 C577 1.391 . S
C576 C578 1.394 1_554 S
C576 H592 0.931 1_554 S
C577 C576 1.391 . S
C577 C581 1.376 . S
C578 C576 1.394 1_556 S
C578 C579 1.369 1_556 S
C578 C582 1.531 . S
C579 C578 1.369 1_554 S
C579 C580 1.410 . S
C579 C587 1.503 1_554 S
C580 C579 1.410 . S
C580 C581 1.392 . S
C580 C583 1.511 . S
C581 C577 1.376 . S
C581 C580 1.392 . S
C581 H593 0.929 . S
C582 C578 1.531 . S
C582 H594 0.960 . S
C582 H595 0.962 . S
C582 H596 0.960 . S
C583 C580 1.511 . S
C583 H597 0.961 . S
C583 H598 0.961 . S
C583 H599 0.961 . S
C584 C585 1.370 . S
C584 C586 1.363 . S
C584 H600 0.931 . S
C585 C584 1.370 . S
C585 C589 1.408 . S
C586 C584 1.363 . S
C586 C587 1.370 . S
C586 C590 1.524 . S
C587 C579 1.503 1_556 S
C587 C586 1.370 . S
C587 C588 1.403 . S
C588 C587 1.403 . S
C588 C589 1.404 . S
C588 C591 1.539 1_556 S
C589 C585 1.408 . S
C589 C588 1.404 . S
C589 H601 0.930 . S
C590 C586 1.524 . S
C590 H602 0.956 . S
C590 H603 0.961 1_556 S
C590 H604 0.961 . S
C591 C588 1.539 1_554 S
C591 H605 0.958 1_554 S
C591 H606 0.961 . S
C591 H607 0.960 . S
H592 C576 0.931 1_556 S
H593 C581 0.929 . S
H594 C582 0.960 . S
H595 C582 0.962 . S
H596 C582 0.960 . S
H597 C583 0.961 . S
H598 C583 0.961 . S
H599 C583 0.961 . S
H600 C584 0.931 . S
H601 C589 0.930 . S
H602 C590 0.956 . S
H603 C590 0.961 1_554 S
H604 C590 0.961 . S
H605 C591 0.958 1_556 S
H606 C591 0.961 . S
H607 C591 0.960 . S
C608 C609 1.391 . S
C608 C610 1.394 . S
C608 H624 0.931 . S
C609 C608 1.391 . S
C609 C613 1.376 . S
C610 C608 1.394 . S
C610 C611 1.369 . S
C610 C614 1.531 . S
C611 C610 1.369 . S
C611 C612 1.410 . S
C611 C619 1.503 . S
C612 C611 1.410 . S
C612 C613 1.392 . S
C612 C615 1.511 . S
C613 C609 1.376 . S
C613 C612 1.392 . S
C613 H625 0.929 . S
C614 C610 1.531 . S
C614 H626 0.960 . S
C614 H627 0.962 . S
C614 H628 0.960 . S
C615 C612 1.511 . S
C615 H629 0.961 . S
C615 H630 0.961 . S
C615 H631 0.961 . S
C616 C617 1.370 . S
C616 C618 1.363 . S
C616 H632 0.931 . S
C617 C616 1.370 . S
C617 C621 1.408 . S
C618 C616 1.363 . S
C618 C619 1.370 . S
C618 C622 1.524 . S
C619 C611 1.503 . S
C619 C618 1.370 . S
C619 C620 1.403 . S
C620 C619 1.403 . S
C620 C621 1.404 . S
C620 C623 1.539 . S
C621 C617 1.408 . S
C621 C620 1.404 . S
C621 H633 0.930 . S
C622 C618 1.524 . S
C622 H634 0.956 . S
C622 H635 0.961 . S
C622 H636 0.961 . S
C623 C620 1.539 . S
C623 H637 0.958 . S
C623 H638 0.961 . S
C623 H639 0.960 . S
H624 C608 0.931 . S
H625 C613 0.929 . S
H626 C614 0.960 . S
H627 C614 0.962 . S
H628 C614 0.960 . S
H629 C615 0.961 . S
H630 C615 0.961 . S
H631 C615 0.961 . S
H632 C616 0.931 . S
H633 C621 0.930 . S
H634 C622 0.956 . S
H635 C622 0.961 . S
H636 C622 0.961 . S
H637 C623 0.958 . S
H638 C623 0.961 . S
H639 C623 0.960 . S
C129 C27 1.297 1_556 S
C137 C8 1.257 . S
C161 C55 1.227 . S
C169 C63 1.287 1_554 S
C193 C91 1.311 1_556 S
C201 C72 1.252 . S
C225 C127 1.293 1_554 S
C233 C119 1.264 . S
C257 C24 1.238 . S
C265 C17 1.229 . S
C289 C40 1.260 . S
C297 C59 1.216 . S
C321 C81 1.256 . S
C329 C88 1.218 . S
C353 C123 1.216 . S
C361 C104 1.238 . S
C385 C120 1.642 . S
C393 C22 1.613 . S
C417 C126 1.610 . S
C425 C23 1.576 . S
C449 C86 1.641 . S
C457 C56 1.613 . S
C481 C87 1.605 . S
C489 C62 1.578 . S
C513 C30 1.628 . S
C521 C49 1.699 . S
C545 C31 1.887 . S
C553 C54 1.904 . S
C577 C94 1.628 . S
C585 C113 1.697 . S
C609 C118 1.896 . S
C617 C95 1.899 . S
