# Generated by pormake.
# Topology snp, (6)-cn, num edge types: 1
# Building blocks:
#     Node 0, Type 0, BuildingBlock: KUMBOL_clean_sbu_0, # of connection points: 6
#     Node 1, Type 0, BuildingBlock: KUMBOL_clean_sbu_0, # of connection points: 6
#     Node 2, Type 0, BuildingBlock: KUMBOL_clean_sbu_0, # of connection points: 6
#     Node 3, Type 0, BuildingBlock: KUMBOL_clean_sbu_0, # of connection points: 6
#     Edge 4, Type (0, 0), BuildingBlock: OJICUG_clean_linker_0, # of connection points: 2
#     Edge 5, Type (0, 0), BuildingBlock: OJICUG_clean_linker_0, # of connection points: 2
#     Edge 6, Type (0, 0), BuildingBlock: OJICUG_clean_linker_0, # of connection points: 2
#     Edge 7, Type (0, 0), BuildingBlock: OJICUG_clean_linker_0, # of connection points: 2
#     Edge 8, Type (0, 0), BuildingBlock: OJICUG_clean_linker_0, # of connection points: 2
#     Edge 9, Type (0, 0), BuildingBlock: OJICUG_clean_linker_0, # of connection points: 2
#     Edge 10, Type (0, 0), BuildingBlock: OJICUG_clean_linker_0, # of connection points: 2
#     Edge 11, Type (0, 0), BuildingBlock: OJICUG_clean_linker_0, # of connection points: 2
#     Edge 12, Type (0, 0), BuildingBlock: OJICUG_clean_linker_0, # of connection points: 2
#     Edge 13, Type (0, 0), BuildingBlock: OJICUG_clean_linker_0, # of connection points: 2
#     Edge 14, Type (0, 0), BuildingBlock: OJICUG_clean_linker_0, # of connection points: 2
#     Edge 15, Type (0, 0), BuildingBlock: OJICUG_clean_linker_0, # of connection points: 2
# Relax obj value: 0.257
# Max RMSD: 0.289
# Mean RMSD: 0.256
data_MOF--net-snp--node1-KUMBOL_clean_sbu_0--edge1-OJICUG_clean_linker_0
_symmetry_space_group_name_H-M    P1
_symmetry_Int_Tables_number       1
_symmetry_cell_setting            triclinic
loop_
_symmetry_equiv_pos_as_xyz
'x, y, z'
_cell_length_a     18.103044
_cell_length_b     20.100726
_cell_length_c     25.860842
_cell_angle_alpha  118.49479
_cell_angle_beta   92.954014
_cell_angle_gamma 97.447666
loop_
_atom_site_label
_atom_site_type_symbol
_atom_site_fract_x
_atom_site_fract_y
_atom_site_fract_z
_atom_type_partial_charge
Gd0 Gd 0.38387 0.04002 0.30747 0.0
Gd1 Gd 0.38995 0.22341 0.30298 0.0
C2 C 0.57155 0.43402 0.41933 0.0
C3 C 0.51692 0.49707 0.51089 0.0
C4 C 0.44893 0.37833 0.42731 0.0
C5 C 0.50809 0.37463 0.39532 0.0
C6 C 0.45075 0.44215 0.48418 0.0
C7 C 0.57761 0.49277 0.47852 0.0
C8 C 0.62299 0.43666 0.38145 0.0
C9 C 0.60577 0.38646 0.32048 0.0
N10 N 0.49767 0.3202 0.33735 0.0
C11 C 0.54037 0.33078 0.299 0.0
H12 H 0.52295 0.29684 0.25188 0.0
C13 C 0.31976 0.3368 0.42346 0.0
N14 N 0.38551 0.32545 0.39925 0.0
C15 C 0.31813 0.40016 0.47911 0.0
C16 C 0.38442 0.45192 0.51041 0.0
H17 H 0.26818 0.29706 0.39998 0.0
H18 H 0.62646 0.53816 0.49812 0.0
H19 H 0.27164 0.92288 0.17894 0.0
H20 H 0.6725 0.48115 0.398 0.0
H21 H 0.64138 0.39222 0.28998 0.0
H22 H 0.52001 0.54555 0.55504 0.0
H23 H 0.5357 0.05952 0.39739 0.0
H24 H 0.38511 0.74195 0.06857 0.0
H25 H 0.27462 0.8068 0.08444 0.0
H26 H 0.61094 0.78555 0.19387 0.0
H27 H 0.26602 0.40827 0.49822 0.0
H28 H 0.3831 0.50066 0.55366 0.0
H29 H 0.51075 0.73465 0.10972 0.0
H30 H 0.64478 0.99643 0.39307 0.0
N31 N 0.38065 0.92667 0.21642 0.0
C32 C 0.38433 0.79342 0.11027 0.0
C33 C 0.32184 0.82974 0.11911 0.0
C34 C 0.44422 0.82284 0.15596 0.0
C35 C 0.44051 0.89023 0.20925 0.0
C36 C 0.32051 0.89596 0.17299 0.0
N37 N 0.49051 0.98327 0.30702 0.0
C38 C 0.49677 0.91875 0.25634 0.0
C39 C 0.60378 0.97424 0.35415 0.0
C40 C 0.61261 0.90983 0.30151 0.0
C41 C 0.54175 0.00998 0.35636 0.0
C42 C 0.55847 0.88089 0.25186 0.0
H43 H 0.6608 0.88235 0.29991 0.0
O44 O 0.36347 0.02466 0.38407 0.0
O45 O 0.36896 0.16282 0.35498 0.0
O46 O 0.51037 0.20018 0.30796 0.0
O47 O 0.49735 0.07007 0.28415 0.0
O48 O 0.43557 0.12927 0.4006 0.0
O49 O 0.29063 0.95537 0.30213 0.0
O50 O 0.31866 0.30252 0.30266 0.0
O51 O 0.37112 0.09557 0.25151 0.0
O52 O 0.27328 0.04492 0.26443 0.0
O53 O 0.2735 0.17487 0.31145 0.0
O54 O 0.42495 0.15436 0.2129 0.0
O55 O 0.35749 0.22677 0.22193 0.0
C56 C 0.40299 0.18484 0.4057 0.0
C57 C 0.56365 0.81507 0.19836 0.0
C58 C 0.50667 0.78616 0.15044 0.0
C59 C 0.30812 0.9675 0.35579 0.0
C60 C 0.31126 0.89882 0.36323 0.0
C61 C 0.34588 0.83965 0.32323 0.0
C62 C 0.28076 0.89205 0.41043 0.0
C63 C 0.28474 0.82622 0.41715 0.0
C64 C 0.34967 0.77483 0.3292 0.0
C65 C 0.31927 0.76786 0.37524 0.0
C66 C 0.53562 0.13352 0.28784 0.0
C67 C 0.4008 0.08682 0.20582 0.0
C68 C 0.3257 0.28631 0.24852 0.0
C69 C 0.34987 0.35106 0.23746 0.0
C70 C 0.36281 0.42767 0.28383 0.0
C71 C 0.36053 0.33612 0.17965 0.0
C72 C 0.38356 0.39668 0.16799 0.0
C73 C 0.38546 0.48798 0.27242 0.0
C74 C 0.3956 0.47278 0.21489 0.0
C75 C 0.23823 0.1037 0.27613 0.0
H76 H 0.36967 0.84324 0.28694 0.0
H77 H 0.25473 0.93808 0.44186 0.0
H78 H 0.37588 0.72922 0.29756 0.0
H79 H 0.32166 0.71545 0.37701 0.0
H80 H 0.35558 0.44115 0.32891 0.0
H81 H 0.35008 0.27729 0.14355 0.0
H82 H 0.39531 0.54677 0.30834 0.0
H83 H 0.41372 0.52045 0.20716 0.0
Gd84 Gd 0.25543 0.33601 0.71848 0.0
Gd85 Gd 0.08356 0.33074 0.6312 0.0
C86 C 0.86276 0.31554 0.70478 0.0
C87 C 0.79567 0.18998 0.62971 0.0
C88 C 0.9209 0.23773 0.61823 0.0
C89 C 0.92432 0.30488 0.67194 0.0
C90 C 0.85519 0.18115 0.59557 0.0
C91 C 0.79959 0.25686 0.6843 0.0
C92 C 0.86512 0.38607 0.75609 0.0
C93 C 0.9261 0.44511 0.77211 0.0
N94 N 0.98507 0.36189 0.68987 0.0
C95 C 0.98533 0.4325 0.73782 0.0
H96 H 0.03142 0.47931 0.7508 0.0
C97 C 0.97115 0.17373 0.52775 0.0
N98 N 0.97915 0.23041 0.58592 0.0
C99 C 0.90727 0.11628 0.50355 0.0
C100 C 0.84973 0.11906 0.53806 0.0
H101 H 0.01584 0.17137 0.50103 0.0
H102 H 0.75221 0.26388 0.70928 0.0
H103 H 0.31769 0.18639 0.61122 0.0
H104 H 0.81908 0.39636 0.78255 0.0
H105 H 0.92747 0.50039 0.81091 0.0
H106 H 0.74526 0.14659 0.61337 0.0
H107 H 0.30011 0.51421 0.83446 0.0
H108 H 0.54696 0.25887 0.60202 0.0
H109 H 0.43441 0.15703 0.56681 0.0
H110 H 0.60097 0.52152 0.75679 0.0
H111 H 0.90241 0.07001 0.45831 0.0
H112 H 0.80007 0.07465 0.51909 0.0
H113 H 0.60822 0.39539 0.67232 0.0
H114 H 0.40904 0.62045 0.87975 0.0
N115 N 0.36271 0.30419 0.6706 0.0
C116 C 0.49575 0.27214 0.62175 0.0
C117 C 0.43241 0.21447 0.60185 0.0
C118 C 0.4926 0.34593 0.66754 0.0
C119 C 0.42453 0.36021 0.69173 0.0
C120 C 0.36615 0.23146 0.62712 0.0
N121 N 0.35502 0.44172 0.76287 0.0
C122 C 0.42056 0.43119 0.73924 0.0
C123 C 0.41286 0.56776 0.83997 0.0
C124 C 0.47951 0.55928 0.81439 0.0
C125 C 0.3513 0.50753 0.8142 0.0
C126 C 0.48441 0.48996 0.76398 0.0
H127 H 0.52735 0.60575 0.83476 0.0
O128 O 0.26225 0.34466 0.80562 0.0
O129 O 0.12985 0.32542 0.71148 0.0
O130 O 0.13965 0.44604 0.70383 0.0
O131 O 0.26676 0.44067 0.70715 0.0
O132 O 0.19018 0.40446 0.79219 0.0
O133 O 0.3025 0.25156 0.73348 0.0
O134 O 0.07242 0.31769 0.54317 0.0
O135 O 0.2005 0.30548 0.63033 0.0
O136 O 0.20032 0.21336 0.65269 0.0
O137 O 0.08084 0.21049 0.61089 0.0
O138 O 0.17022 0.34487 0.57524 0.0
O139 O 0.02375 0.40678 0.61337 0.0
C140 C 0.12341 0.37012 0.76522 0.0
C141 C 0.55152 0.47695 0.7387 0.0
C142 C 0.55563 0.40508 0.69061 0.0
C143 C 0.29894 0.28807 0.79034 0.0
C144 C 0.36708 0.30355 0.83084 0.0
C145 C 0.43877 0.30167 0.8123 0.0
C146 C 0.35968 0.31939 0.88918 0.0
C147 C 0.42284 0.33196 0.92872 0.0
C148 C 0.50173 0.31375 0.85134 0.0
C149 C 0.49392 0.32834 0.90915 0.0
C150 C 0.21029 0.47655 0.70926 0.0
C151 C 0.22513 0.32406 0.59361 0.0
C152 C 0.02945 0.3694 0.55633 0.0
C153 C 0.96145 0.34532 0.5127 0.0
C154 C 0.8894 0.34864 0.5302 0.0
C155 C 0.96887 0.31355 0.45167 0.0
C156 C 0.90511 0.28296 0.40801 0.0
C157 C 0.82613 0.3211 0.48777 0.0
C158 C 0.83362 0.2881 0.42735 0.0
C159 C 0.13345 0.1771 0.62069 0.0
H160 H 0.4461 0.28981 0.76761 0.0
H161 H 0.30438 0.3207 0.90354 0.0
H162 H 0.55675 0.3117 0.83672 0.0
H163 H 0.54349 0.33801 0.93883 0.0
H164 H 0.88175 0.371 0.57644 0.0
H165 H 0.02466 0.31135 0.43836 0.0
H166 H 0.77069 0.32342 0.50167 0.0
H167 H 0.78293 0.26407 0.39586 0.0
Gd168 Gd 0.86365 0.92833 0.05705 0.0
Gd169 Gd 0.872 0.11136 0.05385 0.0
C170 C 0.83349 0.34411 0.19965 0.0
C171 C 0.70833 0.35021 0.16528 0.0
C172 C 0.76585 0.23847 0.10759 0.0
C173 C 0.82939 0.27111 0.14932 0.0
C174 C 0.70489 0.278 0.11486 0.0
C175 C 0.77242 0.38312 0.20764 0.0
C176 C 0.89923 0.37615 0.24015 0.0
C177 C 0.95929 0.33624 0.22938 0.0
N178 N 0.88775 0.2322 0.14011 0.0
C179 C 0.95277 0.26432 0.17864 0.0
H180 H -0.00041 0.23439 0.17087 0.0
C181 C 0.70323 0.13491 1.01643 0.0
N182 N 0.76373 0.16777 0.05981 0.0
C183 C 0.64162 0.17213 1.02172 0.0
C184 C 0.64233 0.24383 0.07118 0.0
H185 H 0.70139 0.07937 0.97811 0.0
H186 H 0.77448 0.4391 0.24613 0.0
H187 H 0.68813 0.93236 0.9995 0.0
H188 H 0.90449 0.43194 0.27945 0.0
H189 H 0.01065 0.36078 0.26015 0.0
H190 H 0.66187 0.38121 0.17181 0.0
H191 H 0.01728 0.84522 1.02538 0.0
H192 H 0.61753 0.72105 0.83963 0.0
H193 H 0.59255 0.84631 0.91621 0.0
H194 H 0.83316 0.59922 0.80681 0.0
H195 H 0.59353 0.14541 0.98761 0.0
H196 H 0.59453 0.27245 0.07508 0.0
H197 H 0.70647 0.62819 0.80079 0.0
H198 H 0.05514 0.73041 0.94687 0.0
N199 N 0.76774 0.85585 0.9748 0.0
C200 C 0.66 0.75833 0.87715 0.0
C201 C 0.64568 0.82884 0.92033 0.0
C202 C 0.72995 0.73795 0.88178 0.0
C203 C 0.7838 0.78891 0.93123 0.0
C204 C 0.7004 0.87729 0.96869 0.0
N205 N 0.90664 0.82274 0.98192 0.0
C206 C 0.85525 0.77222 0.93473 0.0
C207 C -0.00117 0.74154 0.94271 0.0
C208 C 0.94717 0.68976 0.89352 0.0
C209 C 0.97722 0.80733 0.98703 0.0
C210 C 0.8742 0.70414 0.88933 0.0
H211 H 0.9641 0.63876 0.85927 0.0
O212 O 0.9173 0.87428 0.10076 0.0
O213 O 0.87805 0.05477 0.10877 0.0
O214 O 0.98635 0.10273 0.09036 0.0
O215 O 0.98292 0.97107 0.0508 0.0
O216 O 0.90995 1.00188 0.15484 0.0
O217 O 0.79515 0.86071 0.08768 0.0
O218 O 0.88098 0.12131 0.97406 0.0
O219 O 0.88558 0.98692 1.00281 0.0
O220 O 0.75831 0.97556 0.09139 0.0
O221 O 0.76818 0.09662 0.09684 0.0
O222 O 0.81254 0.02322 0.96296 0.0
O223 O 0.96273 0.19252 0.05076 0.0
C224 C 0.90148 0.06743 0.16042 0.0
C225 C 0.81989 0.65228 0.84144 0.0
C226 C 0.74781 0.66887 0.83796 0.0
C227 C 0.85332 0.84553 0.10966 0.0
C228 C 0.84618 0.76959 0.10612 0.0
C229 C 0.84475 0.70243 0.05215 0.0
C230 C 0.83907 0.76467 0.15825 0.0
C231 C 0.83028 0.693 0.15684 0.0
C232 C 0.8364 0.63117 0.05028 0.0
C233 C 0.82909 0.62629 0.10205 0.0
C234 C 0.01875 0.04313 0.08252 0.0
C235 C 0.84801 0.96772 0.95367 0.0
C236 C 0.93845 0.17691 0.99706 0.0
C237 C 0.93197 0.2424 0.98615 0.0
C238 C 0.88877 0.29689 1.02031 0.0
C239 C 0.96463 0.24856 0.93944 0.0
C240 C 0.95435 0.30944 0.92791 0.0
C241 C 0.87697 0.35559 1.00839 0.0
C242 C 0.90901 0.36173 0.96265 0.0
C243 C 0.73519 0.04212 0.10774 0.0
H244 H 0.84978 0.70498 1.01162 0.0
H245 H 0.83906 0.81672 0.19976 0.0
H246 H 0.83555 0.5794 1.00849 0.0
H247 H 0.82344 0.57032 0.09925 0.0
H248 H 0.86338 0.29372 0.05597 0.0
H249 H -0.00133 0.20711 0.91305 0.0
H250 H 0.84274 0.39673 0.03485 0.0
H251 H 0.89831 0.408 0.95458 0.0
Gd252 Gd 0.14702 0.85847 0.72669 0.0
Gd253 Gd 0.98783 0.74388 0.6097 0.0
C254 C 0.76495 0.79174 0.68451 0.0
C255 C 0.73394 0.69185 0.71082 0.0
C256 C 0.84841 0.69985 0.66668 0.0
C257 C 0.83217 0.7645 0.66532 0.0
C258 C 0.79814 0.66185 0.68829 0.0
C259 C 0.7175 0.75677 0.70912 0.0
C260 C 0.74556 0.85128 0.67607 0.0
C261 C 0.79078 0.87981 0.64663 0.0
N262 N 0.87849 0.79684 0.64064 0.0
C263 C 0.8563 0.85068 0.62802 0.0
H264 H 0.88722 0.87022 0.60189 0.0
C265 C 0.91647 0.59752 0.63119 0.0
N266 N 0.90865 0.66966 0.64138 0.0
C267 C 0.87001 0.55945 0.65393 0.0
C268 C 0.81125 0.59228 0.68343 0.0
H269 H 0.95721 0.56711 0.60445 0.0
H270 H 0.66625 0.77751 0.72464 0.0
H271 H 0.23823 0.71065 0.65729 0.0
H272 H 0.69439 0.87345 0.68999 0.0
H273 H 0.77455 0.92335 0.63729 0.0
H274 H 0.69441 0.663 0.72678 0.0
H275 H 0.16161 0.04977 0.80633 0.0
H276 H 0.45057 0.79628 0.62733 0.0
H277 H 0.3611 0.68841 0.62186 0.0
H278 H 0.45304 0.06671 0.71645 0.0
H279 H 0.87845 0.5038 0.64738 0.0
H280 H 0.77403 0.56148 0.69945 0.0
H281 H 0.48298 0.9369 0.6606 0.0
H282 H 0.25097 0.16566 0.82612 0.0
N283 N 0.25741 0.8287 0.68322 0.0
C284 C 0.39668 0.80612 0.64325 0.0
C285 C 0.34655 0.74522 0.64034 0.0
C286 C 0.37789 0.87964 0.66884 0.0
C287 C 0.30743 0.88968 0.68984 0.0
C288 C 0.27662 0.75762 0.66018 0.0
N289 N 0.22641 0.97209 0.74743 0.0
C290 C 0.2914 0.96329 0.7227 0.0
C291 C 0.26268 0.10913 0.7966 0.0
C292 C 0.32864 0.10111 0.7701 0.0
C293 C 0.21226 0.04353 0.78536 0.0
C294 C 0.3442 0.02786 0.73333 0.0
H295 H 0.36856 0.15145 0.77954 0.0
O296 O 0.17364 0.91848 0.82315 0.0
O297 O 0.02281 0.81528 0.70965 0.0
O298 O 0.01153 0.86655 0.62538 0.0
O299 O 0.12904 0.92674 0.68314 0.0
O300 O 0.06127 0.93036 0.77115 0.0
O301 O 0.20908 0.80914 0.76914 0.0
O302 O 0.92224 0.64827 0.52982 0.0
O303 O 0.10903 0.79446 0.62921 0.0
O304 O 0.083 0.74925 0.71602 0.0
O305 O 0.05389 0.6623 0.61921 0.0
O306 O 0.08002 0.6948 0.55288 0.0
O307 O 0.96189 0.75638 0.53227 0.0
C308 C 0.0019 0.87698 0.74732 0.0
C309 C 0.41209 0.01761 0.70899 0.0
C310 C 0.42904 0.94368 0.67703 0.0
C311 C 0.21092 0.86655 0.82246 0.0
C312 C 0.28371 0.8938 0.86056 0.0
C313 C 0.35073 0.9051 0.83873 0.0
C314 C 0.28641 0.9057 0.91884 0.0
C315 C 0.35557 0.93089 0.95609 0.0
C316 C 0.41939 0.92903 0.87473 0.0
C317 C 0.42199 0.94238 0.93298 0.0
C318 C 0.0706 0.92285 0.64883 0.0
C319 C 0.13574 0.75062 0.58287 0.0
C320 C 0.92388 0.68695 0.50105 0.0
C321 C 0.8554 0.67745 0.46299 0.0
C322 C 0.78343 0.66193 0.47663 0.0
C323 C 0.86294 0.6827 0.41103 0.0
C324 C 0.79926 0.67152 0.37216 0.0
C325 C 0.71995 0.65083 0.43839 0.0
C326 C 0.72761 0.65515 0.38644 0.0
C327 C 0.08727 0.68235 0.67184 0.0
H328 H 0.35023 0.89502 0.79384 0.0
H329 H 0.23446 0.89507 0.93486 0.0
H330 H 0.47085 0.93814 0.85764 0.0
H331 H 0.47611 0.96387 0.96021 0.0
H332 H 0.77634 0.65811 0.51653 0.0
H333 H 0.91868 0.69411 0.40037 0.0
H334 H 0.66448 0.63863 0.44899 0.0
H335 H 0.6774 0.64681 0.35788 0.0
C336 C 0.09398 0.99928 0.14066 0.0
C337 C 0.0807 0.05839 0.12874 0.0
H338 H 0.1502 0.96766 0.19802 0.0
C339 C 0.11624 0.13406 0.16885 0.0
H340 H 0.06622 0.94077 0.11261 0.0
C341 C 0.16255 0.15005 0.21983 0.0
C342 C 0.17664 0.0904 0.23075 0.0
H343 H 0.10725 0.18127 0.16159 0.0
H344 H 0.1884 0.20895 0.24986 0.0
C345 C 0.141 0.01502 0.19089 0.0
C346 C 0.0217 0.0075 0.61578 0.0
C347 C 0.08111 0.97581 0.62605 0.0
H348 H 0.9924 0.09888 0.60409 0.0
C349 C 0.15411 0.99745 0.61696 0.0
H350 H 0.96498 0.99007 0.62155 0.0
C351 C 0.16945 0.05696 0.6048 0.0
C352 C 0.11246 0.09711 0.60417 0.0
H353 H 0.20039 0.97115 0.62243 0.0
H354 H 0.22723 0.0768 0.60273 0.0
C355 C 0.03744 0.06871 0.60483 0.0
C356 C 0.67819 0.03176 0.19054 0.0
C357 C 0.68244 0.06426 0.15282 0.0
H358 H 0.63252 0.03179 0.26537 0.0
C359 C 0.64458 0.12543 0.1646 0.0
H360 H 0.70846 0.98582 0.18399 0.0
C361 C 0.60204 0.15216 0.21179 0.0
C362 C 0.59655 0.11953 0.24926 0.0
H363 H 0.64659 0.15182 0.13666 0.0
H364 H 0.56952 0.19469 0.21581 0.0
C365 C 0.636 0.05923 0.23818 0.0
C366 C 0.2096 0.53633 0.64879 0.0
C367 C 0.22027 0.54641 0.70632 0.0
H368 H 0.15148 0.56706 0.59127 0.0
C369 C 0.19622 0.60762 0.75326 0.0
H370 H 0.22841 0.48916 0.61213 0.0
C371 C 0.15079 0.65023 0.74136 0.0
C372 C 0.13198 0.63415 0.68269 0.0
H373 H 0.203 0.61496 0.7977 0.0
H374 H 0.12785 0.69364 0.77791 0.0
C375 C 0.16314 0.57829 0.63651 0.0
C376 C 0.35043 0.32077 0.55604 0.0
C377 C 0.27683 0.28458 0.55181 0.0
H378 H 0.45115 0.31442 0.51405 0.0
C379 C 0.24724 0.21457 0.50105 0.0
H380 H 0.37311 0.37638 0.59388 0.0
C381 C 0.28922 0.18256 0.4542 0.0
C382 C 0.36245 0.21889 0.45773 0.0
H383 H 0.19003 0.18656 0.4964 0.0
H384 H 0.26373 0.13 0.41448 0.0
C385 C 0.39436 0.28622 0.51015 0.0
C386 C 0.06191 0.41322 0.85662 0.0
C387 C 0.06821 0.35353 0.80011 0.0
H388 H 0.02341 0.44614 0.94066 0.0
C389 C 0.03444 0.278 0.78431 0.0
H390 H 0.08852 0.47169 0.87052 0.0
C391 C 0.99743 0.26274 0.82532 0.0
C392 C 0.99284 0.32282 0.88262 0.0
H393 H 0.03979 0.23046 0.7415 0.0
H394 H 0.97296 0.20406 0.81239 0.0
C395 C 0.02478 0.39828 0.89702 0.0
C396 C 0.85942 0.73596 0.31779 0.0
C397 C 0.80745 0.67686 0.31696 0.0
H398 H 0.90743 0.78745 0.26842 0.0
C399 C 0.76305 0.62315 0.26301 0.0
H400 H 0.8941 0.77866 0.35862 0.0
C401 C 0.7705 0.62834 0.21129 0.0
C402 C 0.82223 0.68767 0.21213 0.0
H403 H 0.72296 0.57647 0.26057 0.0
H404 H 0.735 0.58622 0.17071 0.0
C405 C 0.86649 0.74148 0.26615 0.0
C406 C 0.42281 0.94733 0.05085 0.0
C407 C 0.35855 0.95181 1.0201 0.0
H408 H 0.48641 0.98663 0.13572 0.0
C409 C 0.3012 0.98575 0.05283 0.0
H410 H 0.4673 0.91966 1.02734 0.0
C411 C 0.3112 0.02095 0.11467 0.0
C412 C 0.37857 0.02333 0.14522 0.0
H413 H 0.25131 0.9916 0.03154 0.0
H414 H 0.2697 0.05366 0.1387 0.0
C415 C 0.43333 0.98414 0.11293 0.0
C416 C 0.84987 0.93739 0.8473 0.0
C417 C 0.87662 0.92685 0.89472 0.0
H418 H 0.87135 0.9345 0.76538 0.0
C419 C 0.93862 0.88912 0.88765 0.0
H420 H 0.80348 0.96781 0.85112 0.0
C421 C 0.97277 0.8632 0.83536 0.0
C422 C 0.94908 0.87866 0.79004 0.0
H423 H 0.96451 0.88449 0.92393 0.0
H424 H 0.02263 0.83779 0.83296 0.0
C425 C 0.88761 0.9167 0.79707 0.0
C426 C 0.28333 0.77377 0.48949 0.0
C427 C 0.25123 0.81531 0.46553 0.0
H428 H 0.26992 0.71624 0.54084 0.0
C429 C 0.18285 0.8388 0.48385 0.0
H430 H 0.3356 0.75376 0.47666 0.0
C431 C 0.1474 0.81996 0.52348 0.0
C432 C 0.17998 0.77955 0.54798 0.0
H433 H 0.15441 0.86821 0.4652 0.0
H434 H 0.09226 0.83384 0.53246 0.0
C435 C 0.24708 0.75432 0.52849 0.0
C436 C 0.44622 0.30875 1.01482 0.0
C437 C 0.41415 0.3492 0.99033 0.0
H438 H 0.46074 0.29156 0.0902 0.0
C439 C 0.3726 0.4057 1.02477 0.0
H440 H 0.47815 0.26461 0.98906 0.0
C441 C 0.36336 0.42161 0.08263 0.0
C442 C 0.39452 0.38052 0.1069 0.0
H443 H 0.34768 0.438 1.00704 0.0
H444 H 0.33081 0.46526 0.10809 0.0
C445 C 0.4359 0.3238 0.07241 0.0
C446 C 0.8579 0.18488 0.23895 0.0
C447 C 0.9126 0.13771 0.21957 0.0
H448 H 0.81433 0.27034 0.31262 0.0
C449 C 0.96898 0.14493 0.26229 0.0
H450 H 0.81243 0.17986 0.20806 0.0
C451 C 0.96903 0.19502 0.32278 0.0
C452 C 0.91221 0.23967 0.34281 0.0
H453 H 0.01043 0.10753 0.24926 0.0
H454 H 0.01089 0.1943 0.35384 0.0
C455 C 0.8583 0.236 0.29961 0.0
loop_
_geom_bond_atom_site_label_1
_geom_bond_atom_site_label_2
_geom_bond_distance
_geom_bond_site_symmetry_2
_ccdc_geom_bond_type
Gd0 N31 2.661 . S
Gd0 N37 2.601 . S
Gd0 O44 2.545 . S
Gd0 O45 2.606 1_565 S
Gd0 O47 2.429 . S
Gd0 O48 2.545 1_565 S
Gd0 O49 2.412 . S
Gd0 O51 2.362 . S
Gd0 O52 2.324 . S
Gd0 C59 2.828 . S
Gd1 N10 2.661 . S
Gd1 N14 2.601 . S
Gd1 O45 2.362 . S
Gd1 O46 2.324 . S
Gd1 O50 2.545 . S
Gd1 O51 2.606 1_545 S
Gd1 O53 2.429 . S
Gd1 O54 2.545 . S
Gd1 O55 2.412 . S
Gd1 C68 2.828 . S
C2 C5 1.417 . S
C2 C7 1.431 . S
C2 C8 1.412 . S
C3 C6 1.437 . S
C3 C7 1.317 . S
C3 H22 0.929 . S
C4 C5 1.426 . S
C4 C6 1.413 . S
C4 N14 1.359 . S
C5 C2 1.417 . S
C5 C4 1.426 . S
C5 N10 1.350 . S
C6 C3 1.437 . S
C6 C4 1.413 . S
C6 C16 1.391 . S
C7 C2 1.431 . S
C7 C3 1.317 . S
C7 H18 0.930 . S
C8 C2 1.412 . S
C8 C9 1.355 . S
C8 H20 0.930 . S
C9 C8 1.355 . S
C9 C11 1.402 . S
C9 H21 0.930 . S
N10 Gd1 2.661 . S
N10 C5 1.350 . S
N10 C11 1.307 . S
C11 C9 1.402 . S
C11 N10 1.307 . S
C11 H12 0.930 . S
H12 C11 0.930 . S
C13 N14 1.334 . S
C13 C15 1.394 . S
C13 H17 0.930 . S
N14 Gd1 2.601 . S
N14 C4 1.359 . S
N14 C13 1.334 . S
C15 C13 1.394 . S
C15 C16 1.359 . S
C15 H27 0.930 . S
C16 C6 1.391 . S
C16 C15 1.359 . S
C16 H28 0.929 . S
H17 C13 0.930 . S
H18 C7 0.930 . S
H19 C36 0.930 . S
H20 C8 0.930 . S
H21 C9 0.930 . S
H22 C3 0.929 . S
H23 C41 0.930 . S
H24 C32 0.930 1_556 S
H25 C33 0.930 . S
H26 C57 0.927 1_556 S
H27 C15 0.930 . S
H28 C16 0.929 . S
H29 C58 0.930 1_556 S
H30 C39 0.930 . S
N31 Gd0 2.661 . S
N31 C35 1.350 . S
N31 C36 1.307 . S
C32 H24 0.930 1_554 S
C32 C33 1.355 . S
C32 C34 1.412 . S
C33 H25 0.930 . S
C33 C32 1.355 . S
C33 C36 1.402 . S
C34 C32 1.412 . S
C34 C35 1.417 . S
C34 C58 1.431 . S
C35 N31 1.350 . S
C35 C34 1.417 . S
C35 C38 1.426 . S
C36 H19 0.930 . S
C36 N31 1.307 . S
C36 C33 1.402 . S
N37 Gd0 2.601 . S
N37 C38 1.359 . S
N37 C41 1.334 . S
C38 C35 1.426 . S
C38 N37 1.359 . S
C38 C42 1.413 . S
C39 H30 0.930 . S
C39 C40 1.359 . S
C39 C41 1.394 . S
C40 C39 1.359 . S
C40 C42 1.391 . S
C40 H43 0.929 . S
C41 H23 0.930 . S
C41 N37 1.334 . S
C41 C39 1.394 . S
C42 C38 1.413 . S
C42 C40 1.391 . S
C42 C57 1.437 . S
H43 C40 0.929 . S
O44 Gd0 2.545 . S
O44 C59 1.258 . S
O45 Gd0 2.606 1_545 S
O45 Gd1 2.362 . S
O45 C56 1.284 . S
O46 Gd1 2.324 . S
O46 C66 1.254 . S
O47 Gd0 2.429 . S
O47 C66 1.268 1_565 S
O48 Gd0 2.545 1_545 S
O48 C56 1.250 . S
O49 Gd0 2.412 . S
O49 C59 1.252 . S
O50 Gd1 2.545 . S
O50 C68 1.258 . S
O51 Gd0 2.362 . S
O51 Gd1 2.606 1_565 S
O51 C67 1.284 . S
O52 Gd0 2.324 . S
O52 C75 1.254 1_565 S
O53 Gd1 2.429 . S
O53 C75 1.268 . S
O54 Gd1 2.545 . S
O54 C67 1.250 1_545 S
O55 Gd1 2.412 . S
O55 C68 1.252 . S
C56 O45 1.284 . S
C56 O48 1.250 . S
C57 H26 0.927 1_554 S
C57 C42 1.437 . S
C57 C58 1.317 . S
C58 H29 0.930 1_554 S
C58 C34 1.431 . S
C58 C57 1.317 . S
C59 Gd0 2.828 . S
C59 O44 1.258 . S
C59 O49 1.252 . S
C59 C60 1.497 . S
C60 C59 1.497 . S
C60 C61 1.395 . S
C60 C62 1.380 . S
C61 C60 1.395 . S
C61 C64 1.398 . S
C61 H76 0.930 . S
C62 C60 1.380 . S
C62 C63 1.391 . S
C62 H77 0.930 . S
C63 C62 1.391 . S
C63 C65 1.387 . S
C64 C61 1.398 . S
C64 C65 1.380 . S
C64 H78 0.930 . S
C65 C63 1.387 . S
C65 C64 1.380 . S
C65 H79 0.930 . S
C66 O46 1.254 . S
C66 O47 1.268 1_545 S
C67 O51 1.284 . S
C67 O54 1.250 1_565 S
C68 Gd1 2.828 . S
C68 O50 1.258 . S
C68 O55 1.252 . S
C68 C69 1.497 . S
C69 C68 1.497 . S
C69 C70 1.395 . S
C69 C71 1.380 . S
C70 C69 1.395 . S
C70 C73 1.398 . S
C70 H80 0.930 . S
C71 C69 1.380 . S
C71 C72 1.391 . S
C71 H81 0.930 . S
C72 C71 1.391 . S
C72 C74 1.387 . S
C73 C70 1.398 . S
C73 C74 1.380 . S
C73 H82 0.930 . S
C74 C72 1.387 . S
C74 C73 1.380 . S
C74 H83 0.930 . S
C75 O52 1.254 1_545 S
C75 O53 1.268 . S
H76 C61 0.930 . S
H77 C62 0.930 . S
H78 C64 0.930 . S
H79 C65 0.930 . S
H80 C70 0.930 . S
H81 C71 0.930 . S
H82 C73 0.930 . S
H83 C74 0.930 . S
Gd84 N115 2.661 . S
Gd84 N121 2.601 . S
Gd84 O128 2.545 . S
Gd84 O129 2.606 . S
Gd84 O131 2.429 . S
Gd84 O132 2.545 . S
Gd84 O133 2.412 . S
Gd84 O135 2.362 . S
Gd84 O136 2.324 . S
Gd84 C143 2.828 . S
Gd85 N94 2.661 . S
Gd85 N98 2.601 . S
Gd85 O129 2.362 . S
Gd85 O130 2.324 . S
Gd85 O134 2.545 . S
Gd85 O135 2.606 . S
Gd85 O137 2.429 . S
Gd85 O138 2.545 . S
Gd85 O139 2.412 . S
Gd85 C152 2.828 . S
C86 C89 1.417 . S
C86 C91 1.431 . S
C86 C92 1.412 . S
C87 C90 1.437 . S
C87 C91 1.317 . S
C87 H106 0.929 . S
C88 C89 1.426 . S
C88 C90 1.413 . S
C88 N98 1.359 1_655 S
C89 C86 1.417 . S
C89 C88 1.426 . S
C89 N94 1.350 1_655 S
C90 C87 1.437 . S
C90 C88 1.413 . S
C90 C100 1.391 . S
C91 C86 1.431 . S
C91 C87 1.317 . S
C91 H102 0.930 . S
C92 C86 1.412 . S
C92 C93 1.355 . S
C92 H104 0.930 . S
C93 C92 1.355 . S
C93 C95 1.402 1_655 S
C93 H105 0.930 . S
N94 Gd85 2.661 . S
N94 C89 1.350 1_455 S
N94 C95 1.307 . S
C95 C93 1.402 1_455 S
C95 N94 1.307 . S
C95 H96 0.930 . S
H96 C95 0.930 . S
C97 N98 1.334 1_655 S
C97 C99 1.394 . S
C97 H101 0.930 1_655 S
N98 Gd85 2.601 . S
N98 C88 1.359 1_455 S
N98 C97 1.334 1_455 S
C99 C97 1.394 . S
C99 C100 1.359 . S
C99 H111 0.930 . S
C100 C90 1.391 . S
C100 C99 1.359 . S
C100 H112 0.929 . S
H101 C97 0.930 1_455 S
H102 C91 0.930 . S
H103 C120 0.930 . S
H104 C92 0.930 . S
H105 C93 0.930 . S
H106 C87 0.929 . S
H107 C125 0.930 . S
H108 C116 0.930 . S
H109 C117 0.930 . S
H110 C141 0.929 . S
H111 C99 0.930 . S
H112 C100 0.929 . S
H113 C142 0.930 . S
H114 C123 0.930 . S
N115 Gd84 2.661 . S
N115 C119 1.350 . S
N115 C120 1.307 . S
C116 H108 0.930 . S
C116 C117 1.355 . S
C116 C118 1.412 . S
C117 H109 0.930 . S
C117 C116 1.355 . S
C117 C120 1.402 . S
C118 C116 1.412 . S
C118 C119 1.417 . S
C118 C142 1.431 . S
C119 N115 1.350 . S
C119 C118 1.417 . S
C119 C122 1.426 . S
C120 H103 0.930 . S
C120 N115 1.307 . S
C120 C117 1.402 . S
N121 Gd84 2.601 . S
N121 C122 1.359 . S
N121 C125 1.334 . S
C122 C119 1.426 . S
C122 N121 1.359 . S
C122 C126 1.413 . S
C123 H114 0.930 . S
C123 C124 1.359 . S
C123 C125 1.394 . S
C124 C123 1.359 . S
C124 C126 1.391 . S
C124 H127 0.929 . S
C125 H107 0.930 . S
C125 N121 1.334 . S
C125 C123 1.394 . S
C126 C122 1.413 . S
C126 C124 1.391 . S
C126 C141 1.437 . S
H127 C124 0.929 . S
O128 Gd84 2.545 . S
O128 C143 1.258 . S
O129 Gd84 2.606 . S
O129 Gd85 2.362 . S
O129 C140 1.284 . S
O130 Gd85 2.324 . S
O130 C150 1.254 . S
O131 Gd84 2.429 . S
O131 C150 1.268 . S
O132 Gd84 2.545 . S
O132 C140 1.250 . S
O133 Gd84 2.412 . S
O133 C143 1.252 . S
O134 Gd85 2.545 . S
O134 C152 1.258 . S
O135 Gd84 2.362 . S
O135 Gd85 2.606 . S
O135 C151 1.284 . S
O136 Gd84 2.324 . S
O136 C159 1.254 . S
O137 Gd85 2.429 . S
O137 C159 1.268 . S
O138 Gd85 2.545 . S
O138 C151 1.250 . S
O139 Gd85 2.412 . S
O139 C152 1.252 . S
C140 O129 1.284 . S
C140 O132 1.250 . S
C141 H110 0.929 . S
C141 C126 1.437 . S
C141 C142 1.317 . S
C142 H113 0.930 . S
C142 C118 1.431 . S
C142 C141 1.317 . S
C143 Gd84 2.828 . S
C143 O128 1.258 . S
C143 O133 1.252 . S
C143 C144 1.497 . S
C144 C143 1.497 . S
C144 C145 1.395 . S
C144 C146 1.380 . S
C145 C144 1.395 . S
C145 C148 1.398 . S
C145 H160 0.930 . S
C146 C144 1.380 . S
C146 C147 1.391 . S
C146 H161 0.930 . S
C147 C146 1.391 . S
C147 C149 1.387 . S
C148 C145 1.398 . S
C148 C149 1.380 . S
C148 H162 0.930 . S
C149 C147 1.387 . S
C149 C148 1.380 . S
C149 H163 0.930 . S
C150 O130 1.254 . S
C150 O131 1.268 . S
C151 O135 1.284 . S
C151 O138 1.250 . S
C152 Gd85 2.828 . S
C152 O134 1.258 . S
C152 O139 1.252 . S
C152 C153 1.501 . S
C153 C152 1.501 . S
C153 C154 1.389 1_455 S
C153 C155 1.382 . S
C154 C153 1.389 1_655 S
C154 C157 1.398 . S
C154 H164 0.930 . S
C155 C153 1.382 . S
C155 C156 1.391 1_455 S
C155 H165 0.930 . S
C156 C155 1.391 1_655 S
C156 C158 1.387 . S
C157 C154 1.398 . S
C157 C158 1.380 . S
C157 H166 0.930 . S
C158 C156 1.387 . S
C158 C157 1.380 . S
C158 H167 0.930 . S
C159 O136 1.254 . S
C159 O137 1.268 . S
H160 C145 0.930 . S
H161 C146 0.930 . S
H162 C148 0.930 . S
H163 C149 0.930 . S
H164 C154 0.930 . S
H165 C155 0.930 . S
H166 C157 0.930 . S
H167 C158 0.930 . S
Gd168 N199 2.661 1_545 S
Gd168 N205 2.601 1_545 S
Gd168 O212 2.545 1_545 S
Gd168 O213 2.606 . S
Gd168 O215 2.429 1_655 S
Gd168 O216 2.545 . S
Gd168 O217 2.412 1_545 S
Gd168 O219 2.362 . S
Gd168 O220 2.324 . S
Gd168 C227 2.828 1_545 S
Gd169 N178 2.661 . S
Gd169 N182 2.601 . S
Gd169 O213 2.362 . S
Gd169 O214 2.324 1_655 S
Gd169 O218 2.545 . S
Gd169 O219 2.606 . S
Gd169 O221 2.429 . S
Gd169 O222 2.545 1_554 S
Gd169 O223 2.412 . S
Gd169 C236 2.828 . S
C170 C173 1.417 . S
C170 C175 1.431 . S
C170 C176 1.412 1_655 S
C171 C174 1.437 . S
C171 C175 1.317 . S
C171 H190 0.929 . S
C172 C173 1.426 . S
C172 C174 1.413 . S
C172 N182 1.359 . S
C173 C170 1.417 . S
C173 C172 1.426 . S
C173 N178 1.350 . S
C174 C171 1.437 . S
C174 C172 1.413 . S
C174 C184 1.391 . S
C175 C170 1.431 . S
C175 C171 1.317 . S
C175 H186 0.930 . S
C176 C170 1.412 1_455 S
C176 C177 1.355 . S
C176 H188 0.930 . S
C177 C176 1.355 . S
C177 C179 1.402 . S
C177 H189 0.930 . S
N178 Gd169 2.661 . S
N178 C173 1.350 . S
N178 C179 1.307 1_655 S
C179 C177 1.402 . S
C179 N178 1.307 1_455 S
C179 H180 0.930 . S
H180 C179 0.930 . S
C181 N182 1.334 . S
C181 C183 1.394 . S
C181 H185 0.930 . S
N182 Gd169 2.601 . S
N182 C172 1.359 . S
N182 C181 1.334 . S
C183 C181 1.394 . S
C183 C184 1.359 . S
C183 H195 0.930 . S
C184 C174 1.391 . S
C184 C183 1.359 . S
C184 H196 0.929 . S
H185 C181 0.930 . S
H186 C175 0.930 . S
H187 C204 0.930 1_554 S
H188 C176 0.930 . S
H189 C177 0.930 . S
H190 C171 0.929 . S
H191 C209 0.930 . S
H192 C200 0.930 . S
H193 C201 0.930 . S
H194 C225 0.929 . S
H195 C183 0.930 . S
H196 C184 0.929 . S
H197 C226 0.930 . S
H198 C207 0.930 . S
N199 Gd168 2.661 1_565 S
N199 C203 1.350 1_554 S
N199 C204 1.307 1_554 S
C200 H192 0.930 . S
C200 C201 1.355 . S
C200 C202 1.412 . S
C201 H193 0.930 . S
C201 C200 1.355 . S
C201 C204 1.402 . S
C202 C200 1.412 . S
C202 C203 1.417 . S
C202 C226 1.431 . S
C203 N199 1.350 1_556 S
C203 C202 1.417 . S
C203 C206 1.426 . S
C204 H187 0.930 1_556 S
C204 N199 1.307 1_556 S
C204 C201 1.402 . S
N205 Gd168 2.601 1_565 S
N205 C206 1.359 1_554 S
N205 C209 1.334 1_655 S
C206 C203 1.426 . S
C206 N205 1.359 1_556 S
C206 C210 1.413 . S
C207 H198 0.930 . S
C207 C208 1.359 1_554 S
C207 C209 1.394 . S
C208 C207 1.359 1_556 S
C208 C210 1.391 1_455 S
C208 H211 0.929 . S
C209 H191 0.930 . S
C209 N205 1.334 1_455 S
C209 C207 1.394 . S
C210 C206 1.413 . S
C210 C208 1.391 1_655 S
C210 C225 1.437 . S
H211 C208 0.929 . S
O212 Gd168 2.545 1_565 S
O212 C227 1.258 . S
O213 Gd168 2.606 . S
O213 Gd169 2.362 . S
O213 C224 1.284 . S
O214 Gd169 2.324 1_455 S
O214 C234 1.254 . S
O215 Gd168 2.429 1_455 S
O215 C234 1.268 . S
O216 Gd168 2.545 . S
O216 C224 1.250 . S
O217 Gd168 2.412 1_565 S
O217 C227 1.252 . S
O218 Gd169 2.545 . S
O218 C236 1.258 . S
O219 Gd168 2.362 . S
O219 Gd169 2.606 . S
O219 C235 1.284 1_554 S
O220 Gd168 2.324 . S
O220 C243 1.254 . S
O221 Gd169 2.429 . S
O221 C243 1.268 . S
O222 Gd169 2.545 1_556 S
O222 C235 1.250 . S
O223 Gd169 2.412 . S
O223 C236 1.252 . S
C224 O213 1.284 . S
C224 O216 1.250 . S
C225 H194 0.929 . S
C225 C210 1.437 . S
C225 C226 1.317 . S
C226 H197 0.930 . S
C226 C202 1.431 . S
C226 C225 1.317 . S
C227 Gd168 2.828 1_565 S
C227 O212 1.258 . S
C227 O217 1.252 . S
C227 C228 1.497 . S
C228 C227 1.497 . S
C228 C229 1.395 . S
C228 C230 1.380 . S
C229 C228 1.395 . S
C229 C232 1.398 . S
C229 H244 0.930 . S
C230 C228 1.380 . S
C230 C231 1.391 . S
C230 H245 0.930 . S
C231 C230 1.391 . S
C231 C233 1.387 . S
C232 C229 1.398 . S
C232 C233 1.380 . S
C232 H246 0.930 . S
C233 C231 1.387 . S
C233 C232 1.380 . S
C233 H247 0.930 . S
C234 O214 1.254 . S
C234 O215 1.268 . S
C235 O219 1.284 1_556 S
C235 O222 1.250 . S
C236 Gd169 2.828 . S
C236 O218 1.258 . S
C236 O223 1.252 . S
C236 C237 1.497 1_554 S
C237 C236 1.497 1_556 S
C237 C238 1.395 . S
C237 C239 1.380 . S
C238 C237 1.395 . S
C238 C241 1.398 . S
C238 H248 0.930 1_556 S
C239 C237 1.380 . S
C239 C240 1.393 . S
C239 H249 0.930 1_655 S
C240 C239 1.393 . S
C240 C242 1.396 . S
C241 C238 1.398 . S
C241 C242 1.380 . S
C241 H250 0.930 . S
C242 C240 1.396 . S
C242 C241 1.380 . S
C242 H251 0.930 . S
C243 O220 1.254 . S
C243 O221 1.268 . S
H244 C229 0.930 . S
H245 C230 0.930 . S
H246 C232 0.930 . S
H247 C233 0.930 . S
H248 C238 0.930 1_554 S
H249 C239 0.930 1_455 S
H250 C241 0.930 . S
H251 C242 0.930 . S
Gd252 N283 2.661 . S
Gd252 N289 2.601 . S
Gd252 O296 2.545 . S
Gd252 O297 2.606 1_455 S
Gd252 O299 2.429 . S
Gd252 O300 2.545 . S
Gd252 O301 2.412 . S
Gd252 O303 2.362 . S
Gd252 O304 2.324 . S
Gd252 C311 2.828 . S
Gd253 N262 2.661 . S
Gd253 N266 2.601 . S
Gd253 O297 2.362 . S
Gd253 O298 2.324 . S
Gd253 O302 2.545 . S
Gd253 O303 2.606 1_655 S
Gd253 O305 2.429 . S
Gd253 O306 2.545 1_655 S
Gd253 O307 2.412 . S
Gd253 C320 2.828 . S
C254 C257 1.417 . S
C254 C259 1.431 . S
C254 C260 1.412 . S
C255 C258 1.437 . S
C255 C259 1.317 . S
C255 H274 0.929 . S
C256 C257 1.426 . S
C256 C258 1.413 . S
C256 N266 1.359 . S
C257 C254 1.417 . S
C257 C256 1.426 . S
C257 N262 1.350 . S
C258 C255 1.437 . S
C258 C256 1.413 . S
C258 C268 1.391 . S
C259 C254 1.431 . S
C259 C255 1.317 . S
C259 H270 0.930 . S
C260 C254 1.412 . S
C260 C261 1.355 . S
C260 H272 0.930 . S
C261 C260 1.355 . S
C261 C263 1.402 . S
C261 H273 0.930 1_565 S
N262 Gd253 2.661 . S
N262 C257 1.350 . S
N262 C263 1.307 . S
C263 C261 1.402 . S
C263 N262 1.307 . S
C263 H264 0.930 . S
H264 C263 0.930 . S
C265 N266 1.334 . S
C265 C267 1.394 . S
C265 H269 0.930 . S
N266 Gd253 2.601 . S
N266 C256 1.359 . S
N266 C265 1.334 . S
C267 C265 1.394 . S
C267 C268 1.359 . S
C267 H279 0.930 . S
C268 C258 1.391 . S
C268 C267 1.359 . S
C268 H280 0.929 . S
H269 C265 0.930 . S
H270 C259 0.930 . S
H271 C288 0.930 . S
H272 C260 0.930 . S
H273 C261 0.930 1_545 S
H274 C255 0.929 . S
H275 C293 0.930 . S
H276 C284 0.930 . S
H277 C285 0.930 . S
H278 C309 0.929 . S
H279 C267 0.930 . S
H280 C268 0.929 . S
H281 C310 0.930 . S
H282 C291 0.930 . S
N283 Gd252 2.661 . S
N283 C287 1.350 . S
N283 C288 1.307 . S
C284 H276 0.930 . S
C284 C285 1.355 . S
C284 C286 1.412 . S
C285 H277 0.930 . S
C285 C284 1.355 . S
C285 C288 1.402 . S
C286 C284 1.412 . S
C286 C287 1.417 . S
C286 C310 1.431 . S
C287 N283 1.350 . S
C287 C286 1.417 . S
C287 C290 1.426 . S
C288 H271 0.930 . S
C288 N283 1.307 . S
C288 C285 1.402 . S
N289 Gd252 2.601 . S
N289 C290 1.359 . S
N289 C293 1.334 1_565 S
C290 C287 1.426 . S
C290 N289 1.359 . S
C290 C294 1.413 . S
C291 H282 0.930 . S
C291 C292 1.359 . S
C291 C293 1.394 . S
C292 C291 1.359 . S
C292 C294 1.391 1_545 S
C292 H295 0.929 . S
C293 H275 0.930 . S
C293 N289 1.334 1_545 S
C293 C291 1.394 . S
C294 C290 1.413 . S
C294 C292 1.391 1_565 S
C294 C309 1.437 . S
H295 C292 0.929 . S
O296 Gd252 2.545 . S
O296 C311 1.258 . S
O297 Gd252 2.606 1_655 S
O297 Gd253 2.362 . S
O297 C308 1.284 . S
O298 Gd253 2.324 . S
O298 C318 1.254 1_655 S
O299 Gd252 2.429 . S
O299 C318 1.268 . S
O300 Gd252 2.545 . S
O300 C308 1.250 1_455 S
O301 Gd252 2.412 . S
O301 C311 1.252 . S
O302 Gd253 2.545 . S
O302 C320 1.258 . S
O303 Gd252 2.362 . S
O303 Gd253 2.606 1_455 S
O303 C319 1.284 . S
O304 Gd252 2.324 . S
O304 C327 1.254 . S
O305 Gd253 2.429 . S
O305 C327 1.268 1_655 S
O306 Gd253 2.545 1_455 S
O306 C319 1.250 . S
O307 Gd253 2.412 . S
O307 C320 1.252 . S
C308 O297 1.284 . S
C308 O300 1.250 1_655 S
C309 H278 0.929 . S
C309 C294 1.437 . S
C309 C310 1.317 . S
C310 H281 0.930 . S
C310 C286 1.431 . S
C310 C309 1.317 . S
C311 Gd252 2.828 . S
C311 O296 1.258 . S
C311 O301 1.252 . S
C311 C312 1.497 . S
C312 C311 1.497 . S
C312 C313 1.395 . S
C312 C314 1.380 . S
C313 C312 1.395 . S
C313 C316 1.398 . S
C313 H328 0.930 1_565 S
C314 C312 1.380 . S
C314 C315 1.391 . S
C314 H329 0.930 . S
C315 C314 1.391 . S
C315 C317 1.387 . S
C316 C313 1.398 . S
C316 C317 1.380 . S
C316 H330 0.930 1_565 S
C317 C315 1.387 . S
C317 C316 1.380 . S
C317 H331 0.930 . S
C318 O298 1.254 1_455 S
C318 O299 1.268 . S
C319 O303 1.284 . S
C319 O306 1.250 . S
C320 Gd253 2.828 . S
C320 O302 1.258 . S
C320 O307 1.252 . S
C320 C321 1.497 . S
C321 C320 1.497 . S
C321 C322 1.395 . S
C321 C323 1.380 . S
C322 C321 1.395 . S
C322 C325 1.398 . S
C322 H332 0.930 . S
C323 C321 1.380 . S
C323 C324 1.391 . S
C323 H333 0.930 . S
C324 C323 1.391 . S
C324 C326 1.387 . S
C325 C322 1.398 . S
C325 C326 1.380 . S
C325 H334 0.930 . S
C326 C324 1.387 . S
C326 C325 1.380 . S
C326 H335 0.930 . S
C327 O304 1.254 . S
C327 O305 1.268 1_455 S
H328 C313 0.930 1_545 S
H329 C314 0.930 . S
H330 C316 0.930 1_545 S
H331 C317 0.930 . S
H332 C322 0.930 . S
H333 C323 0.930 . S
H334 C325 0.930 . S
H335 C326 0.930 . S
C336 C337 1.387 . S
C336 H340 0.950 1_545 S
C336 C345 1.390 1_545 S
C337 C336 1.387 . S
C337 C339 1.387 . S
H338 C345 0.950 . S
C339 C337 1.387 . S
C339 C341 1.390 . S
C339 H343 0.950 . S
H340 C336 0.950 1_565 S
C341 C339 1.390 . S
C341 C342 1.387 . S
C341 H344 0.950 . S
C342 C341 1.387 . S
C342 C345 1.387 1_545 S
H343 C339 0.950 . S
H344 C341 0.950 . S
C345 C336 1.390 1_565 S
C345 H338 0.950 . S
C345 C342 1.387 1_565 S
C346 C347 1.387 . S
C346 H350 0.950 1_545 S
C346 C355 1.390 . S
C347 C346 1.387 . S
C347 C349 1.387 . S
H348 C355 0.950 . S
C349 C347 1.387 . S
C349 C351 1.390 . S
C349 H353 0.950 . S
H350 C346 0.950 1_565 S
C351 C349 1.390 . S
C351 C352 1.387 . S
C351 H354 0.950 . S
C352 C351 1.387 . S
C352 C355 1.387 . S
H353 C349 0.950 . S
H354 C351 0.950 . S
C355 C346 1.390 . S
C355 H348 0.950 . S
C355 C352 1.387 . S
C356 C357 1.387 . S
C356 H360 0.950 . S
C356 C365 1.390 . S
C357 C356 1.387 . S
C357 C359 1.387 . S
H358 C365 0.950 1_565 S
C359 C357 1.387 . S
C359 C361 1.390 . S
C359 H363 0.950 . S
H360 C356 0.950 . S
C361 C359 1.390 . S
C361 C362 1.387 . S
C361 H364 0.950 . S
C362 C361 1.387 . S
C362 C365 1.387 . S
H363 C359 0.950 . S
H364 C361 0.950 . S
C365 C356 1.390 . S
C365 H358 0.950 1_545 S
C365 C362 1.387 . S
C366 C367 1.387 . S
C366 H370 0.950 . S
C366 C375 1.390 . S
C367 C366 1.387 . S
C367 C369 1.387 . S
H368 C375 0.950 . S
C369 C367 1.387 . S
C369 C371 1.390 . S
C369 H373 0.950 . S
H370 C366 0.950 . S
C371 C369 1.390 . S
C371 C372 1.387 . S
C371 H374 0.950 . S
C372 C371 1.387 . S
C372 C375 1.387 . S
H373 C369 0.950 . S
H374 C371 0.950 . S
C375 C366 1.390 . S
C375 H368 0.950 . S
C375 C372 1.387 . S
C376 C377 1.387 . S
C376 H380 0.950 . S
C376 C385 1.390 . S
C377 C376 1.387 . S
C377 C379 1.387 . S
H378 C385 0.950 . S
C379 C377 1.387 . S
C379 C381 1.390 . S
C379 H383 0.950 . S
H380 C376 0.950 . S
C381 C379 1.390 . S
C381 C382 1.387 . S
C381 H384 0.950 . S
C382 C381 1.387 . S
C382 C385 1.387 . S
H383 C379 0.950 . S
H384 C381 0.950 . S
C385 C376 1.390 . S
C385 H378 0.950 . S
C385 C382 1.387 . S
C386 C387 1.387 . S
C386 H390 0.950 . S
C386 C395 1.390 . S
C387 C386 1.387 . S
C387 C389 1.387 . S
H388 C395 0.950 . S
C389 C387 1.387 . S
C389 C391 1.390 . S
C389 H393 0.950 . S
H390 C386 0.950 . S
C391 C389 1.390 . S
C391 C392 1.387 . S
C391 H394 0.950 1_455 S
C392 C391 1.387 . S
C392 C395 1.387 . S
H393 C389 0.950 . S
H394 C391 0.950 1_655 S
C395 C386 1.390 . S
C395 H388 0.950 . S
C395 C392 1.387 . S
C396 C397 1.387 . S
C396 H400 0.950 . S
C396 C405 1.390 . S
C397 C396 1.387 . S
C397 C399 1.387 . S
H398 C405 0.950 . S
C399 C397 1.387 . S
C399 C401 1.390 . S
C399 H403 0.950 . S
H400 C396 0.950 . S
C401 C399 1.390 . S
C401 C402 1.387 . S
C401 H404 0.950 . S
C402 C401 1.387 . S
C402 C405 1.387 . S
H403 C399 0.950 . S
H404 C401 0.950 . S
C405 C396 1.390 . S
C405 H398 0.950 . S
C405 C402 1.387 . S
C406 C407 1.387 . S
C406 H410 0.950 . S
C406 C415 1.390 1_556 S
C407 C406 1.387 . S
C407 C409 1.387 . S
H408 C415 0.950 . S
C409 C407 1.387 . S
C409 C411 1.390 1_556 S
C409 H413 0.950 . S
H410 C406 0.950 . S
C411 C409 1.390 1_554 S
C411 C412 1.387 . S
C411 H414 0.950 1_565 S
C412 C411 1.387 . S
C412 C415 1.387 . S
H413 C409 0.950 . S
H414 C411 0.950 1_545 S
C415 C406 1.390 1_554 S
C415 H408 0.950 . S
C415 C412 1.387 . S
C416 C417 1.387 . S
C416 H420 0.950 1_565 S
C416 C425 1.390 . S
C417 C416 1.387 . S
C417 C419 1.387 . S
H418 C425 0.950 . S
C419 C417 1.387 . S
C419 C421 1.390 . S
C419 H423 0.950 . S
H420 C416 0.950 1_545 S
C421 C419 1.390 . S
C421 C422 1.387 . S
C421 H424 0.950 . S
C422 C421 1.387 . S
C422 C425 1.387 . S
H423 C419 0.950 . S
H424 C421 0.950 . S
C425 C416 1.390 . S
C425 H418 0.950 . S
C425 C422 1.387 . S
C426 C427 1.387 . S
C426 H430 0.950 . S
C426 C435 1.390 . S
C427 C426 1.387 . S
C427 C429 1.387 . S
H428 C435 0.950 . S
C429 C427 1.387 . S
C429 C431 1.390 . S
C429 H433 0.950 . S
H430 C426 0.950 . S
C431 C429 1.390 . S
C431 C432 1.387 . S
C431 H434 0.950 . S
C432 C431 1.387 . S
C432 C435 1.387 . S
H433 C429 0.950 . S
H434 C431 0.950 . S
C435 C426 1.390 . S
C435 H428 0.950 . S
C435 C432 1.387 . S
C436 C437 1.387 . S
C436 H440 0.950 . S
C436 C445 1.390 1_556 S
C437 C436 1.387 . S
C437 C439 1.387 . S
H438 C445 0.950 . S
C439 C437 1.387 . S
C439 C441 1.390 . S
C439 H443 0.950 . S
H440 C436 0.950 . S
C441 C439 1.390 . S
C441 C442 1.387 1_556 S
C441 H444 0.950 . S
C442 C441 1.387 1_554 S
C442 C445 1.387 . S
H443 C439 0.950 . S
H444 C441 0.950 . S
C445 C436 1.390 1_554 S
C445 H438 0.950 . S
C445 C442 1.387 . S
C446 C447 1.387 . S
C446 H450 0.950 . S
C446 C455 1.390 . S
C447 C446 1.387 . S
C447 C449 1.387 . S
H448 C455 0.950 1_455 S
C449 C447 1.387 . S
C449 C451 1.390 . S
C449 H453 0.950 . S
H450 C446 0.950 . S
C451 C449 1.390 . S
C451 C452 1.387 . S
C451 H454 0.950 . S
C452 C451 1.387 . S
C452 C455 1.387 . S
H453 C449 0.950 . S
H454 C451 0.950 . S
C455 C446 1.390 . S
C455 H448 0.950 1_655 S
C455 C452 1.387 . S
C337 C234 1.437 . S
C342 C75 1.437 . S
C347 C318 1.319 1_545 S
C352 C159 1.319 . S
C357 C243 1.455 . S
C362 C66 1.455 . S
C367 C150 1.563 . S
C372 C327 1.563 . S
C377 C151 1.934 . S
C382 C56 2.116 . S
C387 C140 1.922 . S
C392 C240 1.956 1_455 S
C397 C324 1.185 . S
C402 C231 0.968 . S
C407 C315 0.889 . S
C412 C67 1.019 . S
C417 C235 2.117 1_565 S
C422 C308 1.934 . S
C427 C63 1.965 . S
C432 C319 1.925 . S
C437 C147 1.186 . S
C442 C72 0.968 . S
C447 C224 1.015 . S
C452 C156 0.887 . S
