# Generated by pormake.
# Topology umj, (4)-cn, num edge types: 1
# Building blocks:
#     Node 0, Type 0, BuildingBlock: KOZSID_clean_sbu_0, # of connection points: 4
#     Node 1, Type 0, BuildingBlock: KOZSID_clean_sbu_0, # of connection points: 4
#     Node 2, Type 0, BuildingBlock: KOZSID_clean_sbu_0, # of connection points: 4
#     Node 3, Type 0, BuildingBlock: KOZSID_clean_sbu_0, # of connection points: 4
#     Node 4, Type 0, BuildingBlock: KOZSID_clean_sbu_0, # of connection points: 4
#     Node 5, Type 0, BuildingBlock: KOZSID_clean_sbu_0, # of connection points: 4
#     Node 6, Type 0, BuildingBlock: KOZSID_clean_sbu_0, # of connection points: 4
#     Node 7, Type 0, BuildingBlock: KOZSID_clean_sbu_0, # of connection points: 4
#     Node 8, Type 0, BuildingBlock: KOZSID_clean_sbu_0, # of connection points: 4
#     Node 9, Type 0, BuildingBlock: KOZSID_clean_sbu_0, # of connection points: 4
#     Node 10, Type 0, BuildingBlock: KOZSID_clean_sbu_0, # of connection points: 4
#     Node 11, Type 0, BuildingBlock: KOZSID_clean_sbu_0, # of connection points: 4
#     Edge 12, Type (0, 0), None
#     Edge 13, Type (0, 0), None
#     Edge 14, Type (0, 0), None
#     Edge 15, Type (0, 0), None
#     Edge 16, Type (0, 0), None
#     Edge 17, Type (0, 0), None
#     Edge 18, Type (0, 0), None
#     Edge 19, Type (0, 0), None
#     Edge 20, Type (0, 0), None
#     Edge 21, Type (0, 0), None
#     Edge 22, Type (0, 0), None
#     Edge 23, Type (0, 0), None
#     Edge 24, Type (0, 0), None
#     Edge 25, Type (0, 0), None
#     Edge 26, Type (0, 0), None
#     Edge 27, Type (0, 0), None
#     Edge 28, Type (0, 0), None
#     Edge 29, Type (0, 0), None
#     Edge 30, Type (0, 0), None
#     Edge 31, Type (0, 0), None
#     Edge 32, Type (0, 0), None
#     Edge 33, Type (0, 0), None
#     Edge 34, Type (0, 0), None
#     Edge 35, Type (0, 0), None
# Relax obj value: 0.051
# Max RMSD: 0.169
# Mean RMSD: 0.169
data_MOF--net-umj--node1-KOZSID_clean_sbu_0--edge1-none
_symmetry_space_group_name_H-M    P1
_symmetry_Int_Tables_number       1
_symmetry_cell_setting            triclinic
loop_
_symmetry_equiv_pos_as_xyz
'x, y, z'
_cell_length_a     21.980275
_cell_length_b     21.979659
_cell_length_c     47.281795
_cell_angle_alpha  90.000066
_cell_angle_beta   89.999971
_cell_angle_gamma 119.99953
loop_
_atom_site_label
_atom_site_type_symbol
_atom_site_fract_x
_atom_site_fract_y
_atom_site_fract_z
_atom_type_partial_charge
C0 C 0.09329 0.27987 0.00427 0.0
C1 C 0.04327 0.241 0.9838 0.0
C2 C 0.98054 0.20248 -0.00253 0.0
C3 C 0.99511 0.21991 0.02544 0.0
N4 N 0.06262 0.26849 0.03033 0.0
Co5 Co 0.10482 0.30548 0.06841 0.0
N6 N 1.01246 0.25455 0.08829 0.0
C7 C 0.95407 0.20054 0.07698 0.0
C8 C 0.90548 0.15893 0.09668 0.0
C9 C 0.93497 0.18806 0.12212 0.0
C10 C 0.99879 0.24882 0.11658 0.0
N11 N 0.14936 0.34699 0.10571 0.0
C12 C 0.11743 0.3509 0.1294 0.0
C13 C 0.16211 0.40807 0.14614 0.0
C14 C 0.22678 0.43626 0.13421 0.0
C15 C 0.21667 0.3975 0.11021 0.0
N16 N 0.19938 0.35413 0.04923 0.0
C17 C 0.26225 0.39615 0.06157 0.0
C18 C 0.3186 0.42078 0.04374 0.0
C19 C 0.29069 0.3921 0.01829 0.0
C20 C 0.21845 0.35063 0.02225 0.0
N21 N 0.08871 0.38847 0.06233 0.0
C22 C 0.05164 0.49853 0.06083 0.0
C23 C 0.121 0.51249 0.06629 0.0
C24 C 0.13824 0.45777 0.06681 0.0
C25 C 1.00271 0.42763 0.05517 0.0
C26 C 1.02192 0.37487 0.05587 0.0
N27 N 0.11163 0.21743 0.07468 0.0
C28 C 0.08897 0.107 0.05303 0.0
C29 C 0.05913 0.06786 0.07789 0.0
C30 C 0.06516 0.10829 0.10209 0.0
C31 C 0.09263 0.18224 0.10013 0.0
C32 C 0.11501 0.18023 0.052 0.0
H33 H 0.09405 0.20968 0.11917 0.0
H34 H 0.13375 0.20508 0.03201 0.0
H35 H 0.19176 0.47235 0.07128 0.0
H36 H 0.98094 0.32223 0.05157 0.0
C37 C 0.94874 0.18798 0.0479 0.0
C38 C 0.17011 0.31241 -0.00076 0.0
C39 C 0.04888 0.29544 0.13872 0.0
C40 C 0.26698 0.41535 0.08957 0.0
H41 H 0.05171 0.23699 0.96155 0.0
H42 H 0.93105 0.1637 -0.01172 0.0
H43 H 0.85629 0.11087 0.09309 0.0
H44 H 0.91272 0.1649 0.14239 0.0
H45 H 0.15 0.42465 0.16589 0.0
H46 H 0.27487 0.48134 0.14154 0.0
H47 H 0.37337 0.45639 0.0486 0.0
H48 H 0.32027 0.40155 -0.00109 0.0
H49 H 0.16227 0.56549 0.07085 0.0
H50 H 0.94892 0.41203 0.04999 0.0
H51 H 0.09117 0.08124 0.03388 0.0
H52 H 0.04613 0.08305 0.12237 0.0
C53 C 0.84081 0.07959 0.3376 0.0
C54 C 0.82965 0.02956 0.31713 0.0
C55 C 0.80544 0.96683 0.33081 0.0
C56 C 0.80257 0.98141 0.35877 0.0
N57 N 0.82151 0.04892 0.36366 0.0
Co58 Co 0.82673 0.09113 0.40174 0.0
N59 N 0.78529 0.99876 0.42163 0.0
C60 C 0.78091 0.94037 0.41031 0.0
C61 C 0.77393 0.89178 0.43002 0.0
C62 C 0.77429 0.92127 0.45546 0.0
C63 C 0.77735 0.9851 0.44992 0.0
N64 N 0.82976 0.13567 0.43905 0.0
C65 C 0.79392 0.10374 0.46273 0.0
C66 C 0.78144 0.14843 0.47948 0.0
C67 C 0.81792 0.2131 0.46754 0.0
C68 C 0.84656 0.20299 0.44354 0.0
N69 N 0.87264 0.18569 0.38256 0.0
C70 C 0.8935 0.24856 0.39491 0.0
C71 C 0.92521 0.30491 0.37707 0.0
C72 C 0.92598 0.277 0.35163 0.0
C73 C 0.89521 0.20475 0.35558 0.0
N74 N 0.72763 0.07502 0.39566 0.0
C75 C 0.5805 0.03795 0.39417 0.0
C76 C 0.6359 0.10731 0.39962 0.0
C77 C 0.70786 0.12455 0.40015 0.0
C78 C 0.60248 0.98902 0.38851 0.0
C79 C 0.67444 1.00823 0.38921 0.0
N80 N 0.92159 0.09793 0.40802 0.0
C81 C 1.00935 0.07527 0.38637 0.0
C82 C 1.01865 0.04544 0.41122 0.0
C83 C 0.98426 0.05147 0.43542 0.0
C84 C 0.93778 0.07894 0.43347 0.0
C85 C 0.96216 0.10131 0.38533 0.0
H86 H 0.91176 0.08035 0.4525 0.0
H87 H 0.95606 0.12006 0.36535 0.0
H88 H 0.7468 0.17807 0.40462 0.0
H89 H 0.68609 0.96724 0.38491 0.0
C90 C 0.78814 0.93504 0.38124 0.0
C91 C 0.88508 0.15641 0.33257 0.0
C92 C 0.78083 0.0352 0.47205 0.0
C93 C 0.87903 0.2533 0.4229 0.0
H94 H 0.8421 0.038 0.29488 0.0
H95 H 0.79473 0.91734 0.32161 0.0
H96 H 0.7728 0.84259 0.42643 0.0
H97 H 0.7752 0.89903 0.47573 0.0
H98 H 0.75275 0.13632 0.49922 0.0
H99 H 0.82092 0.26119 0.47487 0.0
H100 H 0.94437 0.35968 0.38193 0.0
H101 H 0.94611 0.30658 0.33224 0.0
H102 H 0.62418 0.14858 0.40418 0.0
H103 H 0.56428 0.93523 0.38333 0.0
H104 H 1.03731 0.07748 0.36721 0.0
H105 H 0.99047 0.03244 0.4557 0.0
C106 C 0.78859 0.82712 0.67094 0.0
C107 C 0.82746 0.81596 0.65047 0.0
C108 C 0.86598 0.79175 0.66414 0.0
C109 C 0.84854 0.78888 0.6921 0.0
N110 N 0.79997 0.80782 0.69699 0.0
Co111 Co 0.76298 0.81304 0.73507 0.0
N112 N 0.81391 0.7716 0.75496 0.0
C113 C 0.86791 0.76721 0.74365 0.0
C114 C 0.90952 0.76023 0.76335 0.0
C115 C 0.88039 0.76059 0.78879 0.0
C116 C 0.81963 0.76366 0.78325 0.0
N117 N 0.72147 0.81607 0.77238 0.0
C118 C 0.71756 0.78022 0.79607 0.0
C119 C 0.66039 0.76774 0.81281 0.0
C120 C 0.6322 0.80423 0.80088 0.0
C121 C 0.67096 0.83287 0.77688 0.0
N122 N 0.71434 0.85896 0.71589 0.0
C123 C 0.67232 0.87982 0.72824 0.0
C124 C 0.64769 0.91153 0.71041 0.0
C125 C 0.67637 0.9123 0.68496 0.0
C126 C 0.71784 0.88153 0.68891 0.0
N127 N 0.67999 0.71394 0.72899 0.0
C128 C 0.56993 0.5668 0.7275 0.0
C129 C 0.55597 0.62221 0.73296 0.0
C130 C 0.61069 0.69417 0.73348 0.0
C131 C 0.64083 0.58878 0.72184 0.0
C132 C 0.69359 0.66075 0.72254 0.0
N133 N 0.85103 0.9079 0.74135 0.0
C134 C 0.96146 0.99567 0.7197 0.0
C135 C 1.0006 1.00496 0.74456 0.0
C136 C 0.96018 0.97057 0.76876 0.0
C137 C 0.88622 0.92409 0.7668 0.0
C138 C 0.88823 0.94848 0.71867 0.0
H139 H 0.85878 0.89807 0.78583 0.0
H140 H 0.86339 0.94238 0.69868 0.0
H141 H 0.59611 0.73311 0.73795 0.0
H142 H 0.74623 0.6724 0.71824 0.0
C143 C 0.88047 0.77445 0.71457 0.0
C144 C 0.75605 0.8714 0.66591 0.0
C145 C 0.77301 0.76714 0.80538 0.0
C146 C 0.65312 0.86534 0.75624 0.0
H147 H 0.83147 0.82842 0.62822 0.0
H148 H 0.90476 0.78104 0.65494 0.0
H149 H 0.95758 0.7591 0.75976 0.0
H150 H 0.90355 0.7615 0.80906 0.0
H151 H 0.64381 0.73905 0.83256 0.0
H152 H 0.58712 0.80723 0.80821 0.0
H153 H 0.61208 0.93069 0.71527 0.0
H154 H 0.66692 0.93243 0.66558 0.0
H155 H 0.50298 0.61049 0.73752 0.0
H156 H 0.65643 0.55059 0.71666 0.0
H157 H 0.98721 1.02363 0.70054 0.0
H158 H 0.98541 0.97678 0.78904 0.0
C159 C 0.98885 0.77491 0.00427 0.0
C160 C 1.03888 0.81378 0.9838 0.0
C161 C 0.10161 0.8523 -0.00253 0.0
C162 C 0.08704 0.83486 0.02544 0.0
N163 N 1.01953 0.78628 0.03033 0.0
Co164 Co 0.97732 0.74929 0.06841 0.0
N165 N 0.06969 0.80022 0.08829 0.0
C166 C 0.12808 0.85423 0.07698 0.0
C167 C 0.17666 0.89584 0.09669 0.0
C168 C 0.14717 0.86671 0.12213 0.0
C169 C 0.08335 0.80595 0.11659 0.0
N170 N 0.93278 0.70778 0.10571 0.0
C171 C 0.96471 0.70387 0.1294 0.0
C172 C 0.92002 0.6467 0.14614 0.0
C173 C 0.85536 0.61851 0.13421 0.0
C174 C 0.86547 0.65727 0.11021 0.0
N175 N 0.88276 0.70065 0.04923 0.0
C176 C 0.81989 0.65863 0.06157 0.0
C177 C 0.76354 0.63399 0.04374 0.0
C178 C 0.79146 0.66268 0.01829 0.0
C179 C 0.8637 0.70415 0.02225 0.0
N180 N 0.99343 0.6663 0.06233 0.0
C181 C 1.0305 0.55624 0.06083 0.0
C182 C 0.96114 0.54228 0.06629 0.0
C183 C 0.9439 0.597 0.06681 0.0
C184 C 0.07943 0.62715 0.05517 0.0
C185 C 0.06022 0.6799 0.05587 0.0
N186 N 0.97051 0.83735 0.07468 0.0
C187 C 0.99318 0.94778 0.05303 0.0
C188 C 1.02302 0.98691 0.07789 0.0
C189 C 1.01699 0.94649 0.10209 0.0
C190 C 0.98951 0.87253 0.10013 0.0
C191 C 0.96713 0.87454 0.052 0.0
H192 H 0.9881 0.8451 0.11917 0.0
H193 H 0.94839 0.8497 0.03202 0.0
H194 H 0.89038 0.58242 0.07129 0.0
H195 H 0.10121 0.73254 0.05157 0.0
C196 C 0.1334 0.86679 0.04791 0.0
C197 C 0.91204 0.74236 -0.00076 0.0
C198 C 1.03326 0.75932 0.13872 0.0
C199 C 0.81516 0.63943 0.08957 0.0
H200 H 1.03044 0.81779 0.96155 0.0
H201 H 0.1511 0.89108 -0.01172 0.0
H202 H 0.22585 0.9439 0.0931 0.0
H203 H 0.16942 0.88986 0.14239 0.0
H204 H 0.93213 0.63012 0.16589 0.0
H205 H 0.80726 0.57343 0.14154 0.0
H206 H 0.70878 0.59839 0.0486 0.0
H207 H 0.76188 0.65322 -0.00109 0.0
H208 H 0.91987 0.48929 0.07085 0.0
H209 H 0.13322 0.64274 0.04999 0.0
H210 H 0.99097 0.97353 0.03388 0.0
H211 H 1.03602 0.97173 0.12237 0.0
C212 C 0.24134 0.97517 0.3376 0.0
C213 C 0.2525 1.0252 0.31713 0.0
C214 C 0.27671 0.08793 0.33081 0.0
C215 C 0.27958 0.07335 0.35877 0.0
N216 N 0.26064 1.00584 0.36366 0.0
Co217 Co 0.25543 0.96364 0.40174 0.0
N218 N 0.29686 0.056 0.42163 0.0
C219 C 0.30125 0.1144 0.41031 0.0
C220 C 0.30822 0.16298 0.43002 0.0
C221 C 0.30786 0.13349 0.45546 0.0
C222 C 0.3048 0.06967 0.44992 0.0
N223 N 0.25239 0.91909 0.43905 0.0
C224 C 0.28824 0.95103 0.46273 0.0
C225 C 0.30072 0.90634 0.47948 0.0
C226 C 0.26424 0.84167 0.46755 0.0
C227 C 0.23559 0.85178 0.44354 0.0
N228 N 0.20951 0.86907 0.38256 0.0
C229 C 0.18865 0.8062 0.39491 0.0
C230 C 0.15694 0.74985 0.37708 0.0
C231 C 0.15617 0.77777 0.35163 0.0
C232 C 0.18694 0.85001 0.35558 0.0
N233 N 0.35453 0.97975 0.39566 0.0
C234 C 0.50165 1.01682 0.39416 0.0
C235 C 0.44625 0.94745 0.39962 0.0
C236 C 0.37429 0.93021 0.40015 0.0
C237 C 0.47967 0.06574 0.38851 0.0
C238 C 0.40771 0.04653 0.38921 0.0
N239 N 0.16056 0.95683 0.40802 0.0
C240 C 0.0728 0.97949 0.38637 0.0
C241 C 0.0635 1.00933 0.41122 0.0
C242 C 0.09789 1.0033 0.43542 0.0
C243 C 0.14437 0.97583 0.43347 0.0
C244 C 0.11999 0.95345 0.38533 0.0
H245 H 0.17039 0.97441 0.4525 0.0
H246 H 0.12609 0.93471 0.36535 0.0
H247 H 0.33535 0.87669 0.40462 0.0
H248 H 0.39606 0.08752 0.38491 0.0
C249 C 0.29401 0.11972 0.38124 0.0
C250 C 0.19706 0.89835 0.33257 0.0
C251 C 0.30132 1.01957 0.47205 0.0
C252 C 0.20313 0.80147 0.4229 0.0
H253 H 0.24005 1.01676 0.29488 0.0
H254 H 0.28742 0.13742 0.32161 0.0
H255 H 0.30935 0.21217 0.42643 0.0
H256 H 0.30695 0.15574 0.47572 0.0
H257 H 0.32941 0.91845 0.49922 0.0
H258 H 0.26123 0.79358 0.47488 0.0
H259 H 0.13778 0.69508 0.38193 0.0
H260 H 0.13604 0.74818 0.33224 0.0
H261 H 0.45797 0.90618 0.40418 0.0
H262 H 0.51787 0.11953 0.38333 0.0
H263 H 0.04484 0.97728 0.36721 0.0
H264 H 0.09168 1.02233 0.4557 0.0
C265 C 0.29355 0.22764 0.67094 0.0
C266 C 0.25468 0.2388 0.65047 0.0
C267 C 0.21616 0.26301 0.66414 0.0
C268 C 0.2336 0.26588 0.6921 0.0
N269 N 0.28217 0.24694 0.69699 0.0
Co270 Co 0.31917 0.24173 0.73508 0.0
N271 N 0.26824 0.28316 0.75496 0.0
C272 C 0.21423 0.28755 0.74365 0.0
C273 C 0.17263 0.29454 0.76335 0.0
C274 C 0.20176 0.29417 0.78879 0.0
C275 C 0.26251 0.29111 0.78325 0.0
N276 N 0.36068 0.23869 0.77238 0.0
C277 C 0.36459 0.27454 0.79607 0.0
C278 C 0.42176 0.28702 0.81281 0.0
C279 C 0.44994 0.25054 0.80088 0.0
C280 C 0.41119 0.22189 0.77688 0.0
N281 N 0.36781 0.19581 0.71589 0.0
C282 C 0.40982 0.17495 0.72824 0.0
C283 C 0.43446 0.14323 0.71041 0.0
C284 C 0.40577 0.14246 0.68496 0.0
C285 C 0.3643 0.17324 0.68891 0.0
N286 N 0.40216 0.34083 0.72899 0.0
C287 C 0.51222 0.48796 0.7275 0.0
C288 C 0.52617 0.43255 0.73296 0.0
C289 C 0.47145 0.36059 0.73348 0.0
C290 C 0.44131 0.46598 0.72184 0.0
C291 C 0.38856 0.39401 0.72254 0.0
N292 N 0.23111 0.14686 0.74135 0.0
C293 C 0.12068 0.0591 0.7197 0.0
C294 C 0.08155 0.0498 0.74456 0.0
C295 C 0.12197 0.08419 0.76876 0.0
C296 C 0.19592 0.13068 0.7668 0.0
C297 C 0.19391 0.10629 0.71867 0.0
H298 H 0.22336 0.1567 0.78584 0.0
H299 H 0.21876 0.11239 0.69868 0.0
H300 H 0.48603 0.32165 0.73795 0.0
H301 H 0.33592 0.38237 0.71824 0.0
C302 C 0.20167 0.28032 0.71457 0.0
C303 C 0.32609 0.18336 0.66591 0.0
C304 C 0.30913 0.28763 0.80538 0.0
C305 C 0.42903 0.18942 0.75623 0.0
H306 H 0.25067 0.22635 0.62822 0.0
H307 H 0.17738 0.27372 0.65495 0.0
H308 H 0.12457 0.29567 0.75977 0.0
H309 H 0.1786 0.29327 0.80906 0.0
H310 H 0.43834 0.31571 0.83256 0.0
H311 H 0.49503 0.24753 0.80821 0.0
H312 H 0.47006 0.12407 0.71527 0.0
H313 H 0.41522 0.12233 0.66557 0.0
H314 H 0.57917 0.44428 0.73752 0.0
H315 H 0.42572 0.50418 0.71666 0.0
H316 H 0.09493 0.03114 0.70054 0.0
H317 H 0.09673 0.07799 0.78904 0.0
C318 C 0.78859 0.97518 0.63481 0.0
C319 C 0.82746 1.02521 0.65528 0.0
C320 C 0.86599 0.08794 0.6416 0.0
C321 C 0.84854 0.07336 0.61364 0.0
N322 N 0.79997 1.00585 0.60875 0.0
Co323 Co 0.76298 0.96364 0.57067 0.0
N324 N 0.81391 0.056 0.55078 0.0
C325 C 0.86791 0.1144 0.5621 0.0
C326 C 0.90952 0.16299 0.54239 0.0
C327 C 0.88039 0.13349 0.51695 0.0
C328 C 0.81963 0.06967 0.52249 0.0
N329 N 0.72147 0.91909 0.53336 0.0
C330 C 0.71756 0.95103 0.50968 0.0
C331 C 0.66039 0.90633 0.49293 0.0
C332 C 0.63221 0.84167 0.50486 0.0
C333 C 0.67096 0.85178 0.52887 0.0
N334 N 0.71434 0.86908 0.58985 0.0
C335 C 0.67232 0.8062 0.57751 0.0
C336 C 0.64768 0.74986 0.59534 0.0
C337 C 0.67637 0.77777 0.62079 0.0
C338 C 0.71784 0.85002 0.61683 0.0
N339 N 0.67999 0.97975 0.57675 0.0
C340 C 0.56993 1.01682 0.57824 0.0
C341 C 0.55597 0.94746 0.57279 0.0
C342 C 0.61069 0.93021 0.57226 0.0
C343 C 0.64083 0.06575 0.5839 0.0
C344 C 0.69359 0.04654 0.5832 0.0
N345 N 0.85103 0.95683 0.5644 0.0
C346 C 0.96146 0.9795 0.58605 0.0
C347 C 1.0006 1.00933 0.56119 0.0
C348 C 0.96018 1.0033 0.53699 0.0
C349 C 0.88622 0.97583 0.53894 0.0
C350 C 0.88823 0.95345 0.58708 0.0
H351 H 0.85878 0.97441 0.51991 0.0
H352 H 0.86338 0.93471 0.60706 0.0
H353 H 0.59612 0.8767 0.56779 0.0
H354 H 0.74623 0.08753 0.5875 0.0
C355 C 0.88047 0.11973 0.59117 0.0
C356 C 0.75605 0.89836 0.63984 0.0
C357 C 0.77302 1.01957 0.50036 0.0
C358 C 0.65312 0.80147 0.54951 0.0
H359 H 0.83148 1.01677 0.67753 0.0
H360 H 0.90477 0.13743 0.6508 0.0
H361 H 0.95758 0.21218 0.54598 0.0
H362 H 0.90355 0.15574 0.49668 0.0
H363 H 0.64381 0.91844 0.47319 0.0
H364 H 0.58712 0.79357 0.49754 0.0
H365 H 0.61208 0.69509 0.59048 0.0
H366 H 0.66691 0.74819 0.64017 0.0
H367 H 0.50298 0.90618 0.56823 0.0
H368 H 0.65643 0.11954 0.58908 0.0
H369 H 0.98721 0.97729 0.6052 0.0
H370 H 0.98541 1.02233 0.51671 0.0
C371 C 0.84081 0.77491 0.96814 0.0
C372 C 0.82965 0.81378 -0.01139 0.0
C373 C 0.80544 0.8523 0.97493 0.0
C374 C 0.80258 0.83486 0.94697 0.0
N375 N 0.82151 0.78628 0.94208 0.0
Co376 Co 0.82673 0.74929 0.904 0.0
N377 N 0.7853 0.80022 0.88411 0.0
C378 C 0.78091 0.85423 0.89543 0.0
C379 C 0.77393 0.89584 0.87572 0.0
C380 C 0.77429 0.86671 0.85028 0.0
C381 C 0.77735 0.80595 0.85582 0.0
N382 N 0.82976 0.70778 0.8667 0.0
C383 C 0.79392 0.70387 0.84301 0.0
C384 C 0.78144 0.64669 0.82627 0.0
C385 C 0.81792 0.61851 0.8382 0.0
C386 C 0.84656 0.65727 0.8622 0.0
N387 N 0.87264 0.70064 0.92318 0.0
C388 C 0.8935 0.65863 0.91084 0.0
C389 C 0.92521 0.63399 0.92867 0.0
C390 C 0.92598 0.66268 0.95412 0.0
C391 C 0.89521 0.70415 0.95017 0.0
N392 N 0.72763 0.6663 0.91008 0.0
C393 C 0.5805 0.55624 0.91158 0.0
C394 C 0.6359 0.54228 0.90612 0.0
C395 C 0.70786 0.597 0.9056 0.0
C396 C 0.60248 0.62715 0.91724 0.0
C397 C 0.67444 0.6799 0.91654 0.0
N398 N 0.92159 0.83735 0.89773 0.0
C399 C 1.00936 0.94778 0.91938 0.0
C400 C 1.01866 0.98691 0.89452 0.0
C401 C 0.98426 0.94649 0.87032 0.0
C402 C 0.93778 0.87253 0.87228 0.0
C403 C 0.96217 0.87454 0.92041 0.0
H404 H 0.91176 0.8451 0.85324 0.0
H405 H 0.95606 0.8497 0.94039 0.0
H406 H 0.7468 0.58242 0.90112 0.0
H407 H 0.6861 0.73255 0.92084 0.0
C408 C 0.78814 0.86679 0.9245 0.0
C409 C 0.88508 0.74236 0.97317 0.0
C410 C 0.78083 0.75932 0.83369 0.0
C411 C 0.87903 0.63942 0.88284 0.0
H412 H 0.8421 0.81779 0.01086 0.0
H413 H 0.79473 0.89109 0.98413 0.0
H414 H 0.7728 0.9439 0.87931 0.0
H415 H 0.7752 0.88987 0.83002 0.0
H416 H 0.75275 0.63011 0.80652 0.0
H417 H 0.82092 0.57342 0.83087 0.0
H418 H 0.94437 0.59839 0.92381 0.0
H419 H 0.94611 0.65322 0.9735 0.0
H420 H 0.62418 0.48929 0.90156 0.0
H421 H 0.56429 0.64275 0.92242 0.0
H422 H 1.03731 0.97353 0.93853 0.0
H423 H 0.99047 0.97173 0.85004 0.0
C424 C 0.09329 0.82711 0.30147 0.0
C425 C 0.04326 0.81596 0.32194 0.0
C426 C 0.98053 0.79175 0.30827 0.0
C427 C 0.99511 0.78889 0.28031 0.0
N428 N 0.06262 0.80782 0.27542 0.0
Co429 Co 0.10482 0.81303 0.23734 0.0
N430 N 1.01246 0.7716 0.21745 0.0
C431 C 0.95407 0.76722 0.22876 0.0
C432 C 0.90548 0.76024 0.20906 0.0
C433 C 0.93497 0.7606 0.18362 0.0
C434 C 0.99879 0.76366 0.18916 0.0
N435 N 0.14936 0.81606 0.20003 0.0
C436 C 0.11743 0.78022 0.17634 0.0
C437 C 0.16212 0.76774 0.1596 0.0
C438 C 0.22678 0.80422 0.17153 0.0
C439 C 0.21667 0.83286 0.19553 0.0
N440 N 0.19938 0.85895 0.25652 0.0
C441 C 0.26225 0.87981 0.24417 0.0
C442 C 0.3186 0.91151 0.262 0.0
C443 C 0.29069 0.91229 0.28745 0.0
C444 C 0.21845 0.88151 0.2835 0.0
N445 N 0.08871 0.71393 0.24342 0.0
C446 C 0.05164 0.5668 0.24491 0.0
C447 C 0.121 0.6222 0.23945 0.0
C448 C 0.13824 0.69417 0.23893 0.0
C449 C 1.00271 0.58878 0.25057 0.0
C450 C 1.02192 0.66075 0.24987 0.0
N451 N 0.11163 0.9079 0.23106 0.0
C452 C 0.08897 0.99566 0.25271 0.0
C453 C 0.05913 1.00496 0.22785 0.0
C454 C 0.06516 0.97057 0.20365 0.0
C455 C 0.09264 0.92409 0.20561 0.0
C456 C 0.11501 0.94848 0.25374 0.0
H457 H 0.09406 0.89807 0.18657 0.0
H458 H 0.13375 0.94237 0.27373 0.0
H459 H 0.19176 0.7331 0.23446 0.0
H460 H 0.98094 0.6724 0.25417 0.0
C461 C 0.94874 0.77445 0.25784 0.0
C462 C 0.17011 0.87139 0.3065 0.0
C463 C 0.04889 0.76714 0.16703 0.0
C464 C 0.26699 0.86533 0.21618 0.0
H465 H 0.0517 0.82841 0.34419 0.0
H466 H 0.93105 0.78105 0.31746 0.0
H467 H 0.85629 0.75911 0.21265 0.0
H468 H 0.91272 0.76151 0.16335 0.0
H469 H 0.15001 0.73905 0.13985 0.0
H470 H 0.27488 0.80723 0.1642 0.0
H471 H 0.37337 0.93067 0.25714 0.0
H472 H 0.32027 0.93241 0.30684 0.0
H473 H 0.16227 0.61048 0.23489 0.0
H474 H 0.94893 0.55059 0.25575 0.0
H475 H 0.09117 1.02362 0.27187 0.0
H476 H 0.04613 0.97678 0.18337 0.0
C477 C 0.29355 0.07959 0.63481 0.0
C478 C 0.25468 0.02956 0.65528 0.0
C479 C 0.21616 0.96683 0.6416 0.0
C480 C 0.2336 0.9814 0.61364 0.0
N481 N 0.28217 0.04892 0.60875 0.0
Co482 Co 0.31916 0.09113 0.57067 0.0
N483 N 0.26823 0.99876 0.55078 0.0
C484 C 0.21423 0.94037 0.56209 0.0
C485 C 0.17263 0.89178 0.54239 0.0
C486 C 0.20175 0.92128 0.51695 0.0
C487 C 0.26251 0.9851 0.52249 0.0
N488 N 0.36067 0.13568 0.53336 0.0
C489 C 0.36459 0.10374 0.50967 0.0
C490 C 0.42175 0.14844 0.49293 0.0
C491 C 0.44994 0.2131 0.50486 0.0
C492 C 0.41118 0.20299 0.52887 0.0
N493 N 0.36781 0.18569 0.58985 0.0
C494 C 0.40982 0.24857 0.57751 0.0
C495 C 0.43446 0.30491 0.59534 0.0
C496 C 0.40577 0.27699 0.62079 0.0
C497 C 0.36431 0.20475 0.61683 0.0
N498 N 0.40216 0.07502 0.57675 0.0
C499 C 0.51222 0.03795 0.57824 0.0
C500 C 0.52617 0.10731 0.57279 0.0
C501 C 0.47145 0.12456 0.57226 0.0
C502 C 0.44131 0.98902 0.5839 0.0
C503 C 0.38855 1.00823 0.5832 0.0
N504 N 0.23111 0.09794 0.56439 0.0
C505 C 0.12068 0.07527 0.58604 0.0
C506 C 0.08155 0.04544 0.56119 0.0
C507 C 0.12197 0.05147 0.53699 0.0
C508 C 0.19592 0.07894 0.53894 0.0
C509 C 0.19391 0.10132 0.58708 0.0
H510 H 0.22336 0.08036 0.51991 0.0
H511 H 0.21876 0.12006 0.60706 0.0
H512 H 0.48603 0.17807 0.56779 0.0
H513 H 0.33592 0.96724 0.5875 0.0
C514 C 0.20167 0.93504 0.59117 0.0
C515 C 0.3261 0.15641 0.63984 0.0
C516 C 0.30913 0.0352 0.50036 0.0
C517 C 0.42902 0.2533 0.54951 0.0
H518 H 0.25066 0.03799 0.67753 0.0
H519 H 0.17738 0.91734 0.65079 0.0
H520 H 0.12457 0.84259 0.54597 0.0
H521 H 0.1786 0.89903 0.49668 0.0
H522 H 0.43834 0.13633 0.47319 0.0
H523 H 0.49502 0.2612 0.49754 0.0
H524 H 0.47006 0.35968 0.59048 0.0
H525 H 0.41523 0.30657 0.64017 0.0
H526 H 0.57917 0.14859 0.56823 0.0
H527 H 0.42572 0.93523 0.58908 0.0
H528 H 0.09493 0.07748 0.6052 0.0
H529 H 0.09673 0.03244 0.51671 0.0
C530 C 0.24134 0.27987 0.96814 0.0
C531 C 0.2525 0.241 -0.01139 0.0
C532 C 0.27671 0.20247 0.97494 0.0
C533 C 0.27957 0.21991 0.94697 0.0
N534 N 0.26064 0.26849 0.94208 0.0
Co535 Co 0.25542 0.30548 0.904 0.0
N536 N 0.29686 0.25455 0.88412 0.0
C537 C 0.30124 0.20054 0.89543 0.0
C538 C 0.30822 0.15894 0.87572 0.0
C539 C 0.30786 0.18806 0.85028 0.0
C540 C 0.3048 0.24882 0.85582 0.0
N541 N 0.25239 0.347 0.8667 0.0
C542 C 0.28824 0.35091 0.84301 0.0
C543 C 0.30072 0.40808 0.82627 0.0
C544 C 0.26424 0.43626 0.8382 0.0
C545 C 0.23559 0.39751 0.8622 0.0
N546 N 0.20951 0.35413 0.92318 0.0
C547 C 0.18865 0.39615 0.91084 0.0
C548 C 0.15694 0.42078 0.92867 0.0
C549 C 0.15617 0.3921 0.95412 0.0
C550 C 0.18694 0.35063 0.95016 0.0
N551 N 0.35453 0.38847 0.91008 0.0
C552 C 0.50165 0.49853 0.91158 0.0
C553 C 0.44625 0.51249 0.90612 0.0
C554 C 0.37429 0.45777 0.9056 0.0
C555 C 0.47967 0.42763 0.91724 0.0
C556 C 0.40771 0.37487 0.91654 0.0
N557 N 0.16056 0.21743 0.89773 0.0
C558 C 0.0728 0.107 0.91938 0.0
C559 C 0.0635 0.06786 0.89452 0.0
C560 C 0.09789 0.10828 0.87032 0.0
C561 C 0.14437 0.18224 0.87228 0.0
C562 C 0.11999 0.18023 0.92041 0.0
H563 H 0.17039 0.20968 0.85324 0.0
H564 H 0.12609 0.20508 0.94039 0.0
H565 H 0.33535 0.47235 0.90112 0.0
H566 H 0.39606 0.32223 0.92084 0.0
C567 C 0.29401 0.18798 0.92451 0.0
C568 C 0.19707 0.31242 0.97317 0.0
C569 C 0.30132 0.29545 0.83369 0.0
C570 C 0.20312 0.41535 0.88284 0.0
H571 H 0.24005 0.23699 0.01086 0.0
H572 H 0.28741 0.16369 0.98413 0.0
H573 H 0.30935 0.11087 0.87931 0.0
H574 H 0.30695 0.1649 0.83002 0.0
H575 H 0.32941 0.42466 0.80652 0.0
H576 H 0.26123 0.48135 0.83087 0.0
H577 H 0.13778 0.45639 0.92381 0.0
H578 H 0.13604 0.40155 0.9735 0.0
H579 H 0.45798 0.56549 0.90156 0.0
H580 H 0.51787 0.41203 0.92242 0.0
H581 H 0.04484 0.08125 0.93853 0.0
H582 H 0.09168 0.08305 0.85004 0.0
C583 C 0.98886 0.22764 0.30147 0.0
C584 C 1.03889 0.2388 0.32194 0.0
C585 C 0.10161 0.263 0.30827 0.0
C586 C 0.08704 0.26587 0.2803 0.0
N587 N 1.01953 0.24693 0.27541 0.0
Co588 Co 0.97732 0.24172 0.23733 0.0
N589 N 0.06968 0.28315 0.21745 0.0
C590 C 0.12808 0.28754 0.22876 0.0
C591 C 0.17666 0.29452 0.20905 0.0
C592 C 0.14717 0.29416 0.18361 0.0
C593 C 0.08335 0.2911 0.18916 0.0
N594 N 0.93278 0.23869 0.20003 0.0
C595 C 0.96471 0.27454 0.17634 0.0
C596 C 0.92002 0.28701 0.1596 0.0
C597 C 0.85535 0.25053 0.17153 0.0
C598 C 0.86547 0.22189 0.19553 0.0
N599 N 0.88276 0.1958 0.25652 0.0
C600 C 0.81989 0.17494 0.24417 0.0
C601 C 0.76354 0.14324 0.262 0.0
C602 C 0.79146 0.14247 0.28745 0.0
C603 C 0.8637 0.17324 0.2835 0.0
N604 N 0.99343 0.34082 0.24341 0.0
C605 C 1.0305 0.48795 0.24491 0.0
C606 C 0.96114 0.43255 0.23945 0.0
C607 C 0.9439 0.36059 0.23893 0.0
C608 C 0.07943 0.46597 0.25057 0.0
C609 C 0.06022 0.39401 0.24987 0.0
N610 N 0.97051 0.14686 0.23106 0.0
C611 C 0.99318 0.05909 0.25271 0.0
C612 C 1.02302 0.0498 0.22785 0.0
C613 C 1.01699 0.08419 0.20365 0.0
C614 C 0.98951 0.13067 0.20561 0.0
C615 C 0.96713 0.10628 0.25374 0.0
H616 H 0.98809 0.15669 0.18657 0.0
H617 H 0.94839 0.11238 0.27373 0.0
H618 H 0.89038 0.32165 0.23445 0.0
H619 H 0.1012 0.38235 0.25417 0.0
C620 C 0.1334 0.2803 0.25784 0.0
C621 C 0.91204 0.18337 0.3065 0.0
C622 C 1.03325 0.28762 0.16702 0.0
C623 C 0.81515 0.18942 0.21618 0.0
H624 H 1.03045 0.22635 0.34419 0.0
H625 H 0.1511 0.27371 0.31746 0.0
H626 H 0.22585 0.29565 0.21264 0.0
H627 H 0.16942 0.29325 0.16335 0.0
H628 H 0.93213 0.3157 0.13985 0.0
H629 H 0.80726 0.24752 0.1642 0.0
H630 H 0.70878 0.12408 0.25714 0.0
H631 H 0.76188 0.12234 0.30684 0.0
H632 H 0.91987 0.44428 0.23489 0.0
H633 H 0.13321 0.50417 0.25575 0.0
H634 H 0.99097 0.03113 0.27187 0.0
H635 H 1.03602 0.07798 0.18337 0.0
loop_
_geom_bond_atom_site_label_1
_geom_bond_atom_site_label_2
_geom_bond_distance
_geom_bond_site_symmetry_2
_ccdc_geom_bond_type
C0 C1 1.443 1_454 S
C0 N4 1.376 1_455 S
C0 C38 1.389 . S
C1 C0 1.443 1_656 S
C1 C2 1.340 1_556 S
C1 H41 0.951 . S
C2 C1 1.340 1_554 S
C2 C3 1.439 . S
C2 H42 0.950 1_554 S
C3 C2 1.439 . S
C3 N4 1.374 . S
C3 C37 1.395 . S
N4 C0 1.376 1_655 S
N4 C3 1.374 . S
N4 Co5 2.008 1_655 S
Co5 N4 2.008 1_455 S
Co5 N6 1.995 1_455 S
Co5 N11 2.008 . S
Co5 N16 1.995 . S
Co5 N21 2.282 . S
Co5 N27 2.282 . S
N6 Co5 1.995 1_655 S
N6 C7 1.376 . S
N6 C10 1.383 . S
C7 N6 1.376 . S
C7 C8 1.446 . S
C7 C37 1.391 . S
C8 C7 1.446 . S
C8 C9 1.339 . S
C8 H43 0.949 . S
C9 C8 1.339 . S
C9 C10 1.439 . S
C9 H44 0.950 . S
C10 N6 1.383 . S
C10 C9 1.439 . S
C10 C39 1.392 . S
N11 Co5 2.008 . S
N11 C12 1.376 . S
N11 C15 1.374 . S
C12 N11 1.376 . S
C12 C13 1.443 . S
C12 C39 1.389 1_455 S
C13 C12 1.443 . S
C13 C14 1.340 . S
C13 H45 0.951 . S
C14 C13 1.340 . S
C14 C15 1.439 . S
C14 H46 0.950 . S
C15 N11 1.374 . S
C15 C14 1.439 . S
C15 C40 1.395 . S
N16 Co5 1.995 . S
N16 C17 1.376 . S
N16 C20 1.383 . S
C17 N16 1.376 . S
C17 C18 1.446 . S
C17 C40 1.391 . S
C18 C17 1.446 . S
C18 C19 1.339 . S
C18 H47 0.949 . S
C19 C18 1.339 . S
C19 C20 1.439 . S
C19 H48 0.950 . S
C20 N16 1.383 . S
C20 C19 1.439 . S
C20 C38 1.392 . S
N21 Co5 2.282 . S
N21 C24 1.332 . S
N21 C26 1.332 1_455 S
C22 C23 1.386 . S
C22 C25 1.388 1_455 S
C23 C22 1.386 . S
C23 C24 1.382 . S
C23 H49 0.950 . S
C24 N21 1.332 . S
C24 C23 1.382 . S
C24 H35 0.952 . S
C25 C22 1.388 1_655 S
C25 C26 1.382 . S
C25 H50 0.950 . S
C26 N21 1.332 1_655 S
C26 C25 1.382 . S
C26 H36 0.948 . S
N27 Co5 2.282 . S
N27 C31 1.332 1_455 S
N27 C32 1.332 . S
C28 C29 1.388 . S
C28 C32 1.382 . S
C28 H51 0.950 . S
C29 C28 1.388 . S
C29 C30 1.386 1_455 S
C30 C29 1.386 1_655 S
C30 C31 1.382 . S
C30 H52 0.950 . S
C31 N27 1.332 1_655 S
C31 C30 1.382 . S
C31 H33 0.952 . S
C32 N27 1.332 . S
C32 C28 1.382 . S
C32 H34 0.948 . S
H33 C31 0.952 . S
H34 C32 0.948 . S
H35 C24 0.952 . S
H36 C26 0.948 . S
C37 C3 1.395 . S
C37 C7 1.391 . S
C38 C0 1.389 . S
C38 C20 1.392 . S
C39 C10 1.392 . S
C39 C12 1.389 1_655 S
C40 C15 1.395 . S
C40 C17 1.391 . S
H41 C1 0.951 . S
H42 C2 0.950 1_556 S
H43 C8 0.949 . S
H44 C9 0.950 . S
H45 C13 0.951 . S
H46 C14 0.950 . S
H47 C18 0.949 . S
H48 C19 0.950 . S
H49 C23 0.950 . S
H50 C25 0.950 . S
H51 C28 0.950 . S
H52 C30 0.950 . S
C53 C54 1.443 1_545 S
C53 N57 1.376 1_545 S
C53 C91 1.389 . S
C54 C53 1.443 1_565 S
C54 C55 1.340 . S
C54 H94 0.951 . S
C55 C54 1.340 . S
C55 C56 1.439 . S
C55 H95 0.950 . S
C56 C55 1.439 . S
C56 N57 1.374 . S
C56 C90 1.395 . S
N57 C53 1.376 1_565 S
N57 C56 1.374 . S
N57 Co58 2.008 1_565 S
Co58 N57 2.008 1_545 S
Co58 N59 1.995 1_545 S
Co58 N64 2.008 . S
Co58 N69 1.995 . S
Co58 N74 2.282 . S
Co58 N80 2.282 . S
N59 Co58 1.995 1_565 S
N59 C60 1.376 . S
N59 C63 1.383 . S
C60 N59 1.376 . S
C60 C61 1.446 . S
C60 C90 1.391 . S
C61 C60 1.446 . S
C61 C62 1.339 . S
C61 H96 0.949 . S
C62 C61 1.339 . S
C62 C63 1.439 . S
C62 H97 0.950 . S
C63 N59 1.383 . S
C63 C62 1.439 . S
C63 C92 1.392 . S
N64 Co58 2.008 . S
N64 C65 1.376 . S
N64 C68 1.374 . S
C65 N64 1.376 . S
C65 C66 1.443 . S
C65 C92 1.389 1_545 S
C66 C65 1.443 . S
C66 C67 1.340 . S
C66 H98 0.951 . S
C67 C66 1.340 . S
C67 C68 1.439 . S
C67 H99 0.950 . S
C68 N64 1.374 . S
C68 C67 1.439 . S
C68 C93 1.395 . S
N69 Co58 1.995 . S
N69 C70 1.376 . S
N69 C73 1.383 . S
C70 N69 1.376 . S
C70 C71 1.446 . S
C70 C93 1.391 . S
C71 C70 1.446 . S
C71 C72 1.339 . S
C71 H100 0.949 . S
C72 C71 1.339 . S
C72 C73 1.439 . S
C72 H101 0.950 . S
C73 N69 1.383 . S
C73 C72 1.439 . S
C73 C91 1.392 . S
N74 Co58 2.282 . S
N74 C77 1.332 . S
N74 C79 1.332 1_545 S
C75 C76 1.386 . S
C75 C78 1.388 1_545 S
C76 C75 1.386 . S
C76 C77 1.382 . S
C76 H102 0.950 . S
C77 N74 1.332 . S
C77 C76 1.382 . S
C77 H88 0.952 . S
C78 C75 1.388 1_565 S
C78 C79 1.382 . S
C78 H103 0.950 . S
C79 N74 1.332 1_565 S
C79 C78 1.382 . S
C79 H89 0.948 . S
N80 Co58 2.282 . S
N80 C84 1.332 1_545 S
N80 C85 1.332 . S
C81 C82 1.388 . S
C81 C85 1.382 . S
C81 H104 0.950 1_655 S
C82 C81 1.388 . S
C82 C83 1.386 1_545 S
C83 C82 1.386 1_565 S
C83 C84 1.382 . S
C83 H105 0.950 . S
C84 N80 1.332 1_565 S
C84 C83 1.382 . S
C84 H86 0.952 . S
C85 N80 1.332 . S
C85 C81 1.382 . S
C85 H87 0.948 . S
H86 C84 0.952 . S
H87 C85 0.948 . S
H88 C77 0.952 . S
H89 C79 0.948 . S
C90 C56 1.395 . S
C90 C60 1.391 . S
C91 C53 1.389 . S
C91 C73 1.392 . S
C92 C63 1.392 . S
C92 C65 1.389 1_565 S
C93 C68 1.395 . S
C93 C70 1.391 . S
H94 C54 0.951 . S
H95 C55 0.950 . S
H96 C61 0.949 . S
H97 C62 0.950 . S
H98 C66 0.951 . S
H99 C67 0.950 . S
H100 C71 0.949 . S
H101 C72 0.950 . S
H102 C76 0.950 . S
H103 C78 0.950 . S
H104 C81 0.950 1_455 S
H105 C83 0.950 . S
C106 C107 1.443 . S
C106 N110 1.376 . S
C106 C144 1.389 . S
C107 C106 1.443 . S
C107 C108 1.340 . S
C107 H147 0.951 . S
C108 C107 1.340 . S
C108 C109 1.439 . S
C108 H148 0.950 . S
C109 C108 1.439 . S
C109 N110 1.374 . S
C109 C143 1.395 . S
N110 C106 1.376 . S
N110 C109 1.374 . S
N110 Co111 2.008 . S
Co111 N110 2.008 . S
Co111 N112 1.995 . S
Co111 N117 2.008 . S
Co111 N122 1.995 . S
Co111 N127 2.282 . S
Co111 N133 2.282 . S
N112 Co111 1.995 . S
N112 C113 1.376 . S
N112 C116 1.383 . S
C113 N112 1.376 . S
C113 C114 1.446 . S
C113 C143 1.391 . S
C114 C113 1.446 . S
C114 C115 1.339 . S
C114 H149 0.949 . S
C115 C114 1.339 . S
C115 C116 1.439 . S
C115 H150 0.950 . S
C116 N112 1.383 . S
C116 C115 1.439 . S
C116 C145 1.392 . S
N117 Co111 2.008 . S
N117 C118 1.376 . S
N117 C121 1.374 . S
C118 N117 1.376 . S
C118 C119 1.443 . S
C118 C145 1.389 . S
C119 C118 1.443 . S
C119 C120 1.340 . S
C119 H151 0.951 . S
C120 C119 1.340 . S
C120 C121 1.439 . S
C120 H152 0.950 . S
C121 N117 1.374 . S
C121 C120 1.439 . S
C121 C146 1.395 . S
N122 Co111 1.995 . S
N122 C123 1.376 . S
N122 C126 1.383 . S
C123 N122 1.376 . S
C123 C124 1.446 . S
C123 C146 1.391 . S
C124 C123 1.446 . S
C124 C125 1.339 . S
C124 H153 0.949 . S
C125 C124 1.339 . S
C125 C126 1.439 . S
C125 H154 0.950 . S
C126 N122 1.383 . S
C126 C125 1.439 . S
C126 C144 1.392 . S
N127 Co111 2.282 . S
N127 C130 1.332 . S
N127 C132 1.332 . S
C128 C129 1.386 . S
C128 C131 1.388 . S
C129 C128 1.386 . S
C129 C130 1.382 . S
C129 H155 0.950 . S
C130 N127 1.332 . S
C130 C129 1.382 . S
C130 H141 0.952 . S
C131 C128 1.388 . S
C131 C132 1.382 . S
C131 H156 0.950 . S
C132 N127 1.332 . S
C132 C131 1.382 . S
C132 H142 0.948 . S
N133 Co111 2.282 . S
N133 C137 1.332 . S
N133 C138 1.332 . S
C134 C135 1.388 . S
C134 C138 1.382 . S
C134 H157 0.950 1_565 S
C135 C134 1.388 . S
C135 C136 1.386 . S
C136 C135 1.386 . S
C136 C137 1.382 . S
C136 H158 0.950 . S
C137 N133 1.332 . S
C137 C136 1.382 . S
C137 H139 0.952 . S
C138 N133 1.332 . S
C138 C134 1.382 . S
C138 H140 0.948 . S
H139 C137 0.952 . S
H140 C138 0.948 . S
H141 C130 0.952 . S
H142 C132 0.948 . S
C143 C109 1.395 . S
C143 C113 1.391 . S
C144 C106 1.389 . S
C144 C126 1.392 . S
C145 C116 1.392 . S
C145 C118 1.389 . S
C146 C121 1.395 . S
C146 C123 1.391 . S
H147 C107 0.951 . S
H148 C108 0.950 . S
H149 C114 0.949 . S
H150 C115 0.950 . S
H151 C119 0.951 . S
H152 C120 0.950 . S
H153 C124 0.949 . S
H154 C125 0.950 . S
H155 C129 0.950 . S
H156 C131 0.950 . S
H157 C134 0.950 1_545 S
H158 C136 0.950 . S
C159 C160 1.443 1_654 S
C159 N163 1.376 1_655 S
C159 C197 1.389 . S
C160 C159 1.443 1_456 S
C160 C161 1.340 1_556 S
C160 H200 0.951 . S
C161 C160 1.340 1_554 S
C161 C162 1.439 . S
C161 H201 0.950 1_554 S
C162 C161 1.439 . S
C162 N163 1.374 . S
C162 C196 1.395 . S
N163 C159 1.376 1_455 S
N163 C162 1.374 . S
N163 Co164 2.008 1_455 S
Co164 N163 2.008 1_655 S
Co164 N165 1.995 1_655 S
Co164 N170 2.008 . S
Co164 N175 1.995 . S
Co164 N180 2.282 . S
Co164 N186 2.282 . S
N165 Co164 1.995 1_455 S
N165 C166 1.376 . S
N165 C169 1.383 . S
C166 N165 1.376 . S
C166 C167 1.446 . S
C166 C196 1.391 . S
C167 C166 1.446 . S
C167 C168 1.339 . S
C167 H202 0.949 . S
C168 C167 1.339 . S
C168 C169 1.439 . S
C168 H203 0.950 . S
C169 N165 1.383 . S
C169 C168 1.439 . S
C169 C198 1.392 . S
N170 Co164 2.008 . S
N170 C171 1.376 . S
N170 C174 1.374 . S
C171 N170 1.376 . S
C171 C172 1.443 . S
C171 C198 1.389 1_655 S
C172 C171 1.443 . S
C172 C173 1.340 . S
C172 H204 0.951 . S
C173 C172 1.340 . S
C173 C174 1.439 . S
C173 H205 0.950 . S
C174 N170 1.374 . S
C174 C173 1.439 . S
C174 C199 1.395 . S
N175 Co164 1.995 . S
N175 C176 1.376 . S
N175 C179 1.383 . S
C176 N175 1.376 . S
C176 C177 1.446 . S
C176 C199 1.391 . S
C177 C176 1.446 . S
C177 C178 1.339 . S
C177 H206 0.949 . S
C178 C177 1.339 . S
C178 C179 1.439 . S
C178 H207 0.950 . S
C179 N175 1.383 . S
C179 C178 1.439 . S
C179 C197 1.392 . S
N180 Co164 2.282 . S
N180 C183 1.332 . S
N180 C185 1.332 1_655 S
C181 C182 1.386 . S
C181 C184 1.388 1_655 S
C182 C181 1.386 . S
C182 C183 1.382 . S
C182 H208 0.950 . S
C183 N180 1.332 . S
C183 C182 1.382 . S
C183 H194 0.952 . S
C184 C181 1.388 1_455 S
C184 C185 1.382 . S
C184 H209 0.950 . S
C185 N180 1.332 1_455 S
C185 C184 1.382 . S
C185 H195 0.948 . S
N186 Co164 2.282 . S
N186 C190 1.332 1_655 S
N186 C191 1.332 . S
C187 C188 1.388 . S
C187 C191 1.382 . S
C187 H210 0.950 . S
C188 C187 1.388 . S
C188 C189 1.386 1_655 S
C189 C188 1.386 1_455 S
C189 C190 1.382 . S
C189 H211 0.950 . S
C190 N186 1.332 1_455 S
C190 C189 1.382 . S
C190 H192 0.952 . S
C191 N186 1.332 . S
C191 C187 1.382 . S
C191 H193 0.948 . S
H192 C190 0.952 . S
H193 C191 0.948 . S
H194 C183 0.952 . S
H195 C185 0.948 . S
C196 C162 1.395 . S
C196 C166 1.391 . S
C197 C159 1.389 . S
C197 C179 1.392 . S
C198 C169 1.392 . S
C198 C171 1.389 1_455 S
C199 C174 1.395 . S
C199 C176 1.391 . S
H200 C160 0.951 . S
H201 C161 0.950 1_556 S
H202 C167 0.949 . S
H203 C168 0.950 . S
H204 C172 0.951 . S
H205 C173 0.950 . S
H206 C177 0.949 . S
H207 C178 0.950 . S
H208 C182 0.950 . S
H209 C184 0.950 . S
H210 C187 0.950 . S
H211 C189 0.950 . S
C212 C213 1.443 1_565 S
C212 N216 1.376 1_565 S
C212 C250 1.389 . S
C213 C212 1.443 1_545 S
C213 C214 1.340 . S
C213 H253 0.951 . S
C214 C213 1.340 . S
C214 C215 1.439 . S
C214 H254 0.950 . S
C215 C214 1.439 . S
C215 N216 1.374 . S
C215 C249 1.395 . S
N216 C212 1.376 1_545 S
N216 C215 1.374 . S
N216 Co217 2.008 1_545 S
Co217 N216 2.008 1_565 S
Co217 N218 1.995 1_565 S
Co217 N223 2.008 . S
Co217 N228 1.995 . S
Co217 N233 2.282 . S
Co217 N239 2.282 . S
N218 Co217 1.995 1_545 S
N218 C219 1.376 . S
N218 C222 1.383 . S
C219 N218 1.376 . S
C219 C220 1.446 . S
C219 C249 1.391 . S
C220 C219 1.446 . S
C220 C221 1.339 . S
C220 H255 0.949 . S
C221 C220 1.339 . S
C221 C222 1.439 . S
C221 H256 0.950 . S
C222 N218 1.383 . S
C222 C221 1.439 . S
C222 C251 1.392 . S
N223 Co217 2.008 . S
N223 C224 1.376 . S
N223 C227 1.374 . S
C224 N223 1.376 . S
C224 C225 1.443 . S
C224 C251 1.389 1_565 S
C225 C224 1.443 . S
C225 C226 1.340 . S
C225 H257 0.951 . S
C226 C225 1.340 . S
C226 C227 1.439 . S
C226 H258 0.950 . S
C227 N223 1.374 . S
C227 C226 1.439 . S
C227 C252 1.395 . S
N228 Co217 1.995 . S
N228 C229 1.376 . S
N228 C232 1.383 . S
C229 N228 1.376 . S
C229 C230 1.446 . S
C229 C252 1.391 . S
C230 C229 1.446 . S
C230 C231 1.339 . S
C230 H259 0.949 . S
C231 C230 1.339 . S
C231 C232 1.439 . S
C231 H260 0.950 . S
C232 N228 1.383 . S
C232 C231 1.439 . S
C232 C250 1.392 . S
N233 Co217 2.282 . S
N233 C236 1.332 . S
N233 C238 1.332 1_565 S
C234 C235 1.386 . S
C234 C237 1.388 1_565 S
C235 C234 1.386 . S
C235 C236 1.382 . S
C235 H261 0.950 . S
C236 N233 1.332 . S
C236 C235 1.382 . S
C236 H247 0.952 . S
C237 C234 1.388 1_545 S
C237 C238 1.382 . S
C237 H262 0.950 . S
C238 N233 1.332 1_545 S
C238 C237 1.382 . S
C238 H248 0.948 . S
N239 Co217 2.282 . S
N239 C243 1.332 1_565 S
N239 C244 1.332 . S
C240 C241 1.388 . S
C240 C244 1.382 . S
C240 H263 0.950 1_455 S
C241 C240 1.388 . S
C241 C242 1.386 1_565 S
C242 C241 1.386 1_545 S
C242 C243 1.382 . S
C242 H264 0.950 . S
C243 N239 1.332 1_545 S
C243 C242 1.382 . S
C243 H245 0.952 . S
C244 N239 1.332 . S
C244 C240 1.382 . S
C244 H246 0.948 . S
H245 C243 0.952 . S
H246 C244 0.948 . S
H247 C236 0.952 . S
H248 C238 0.948 . S
C249 C215 1.395 . S
C249 C219 1.391 . S
C250 C212 1.389 . S
C250 C232 1.392 . S
C251 C222 1.392 . S
C251 C224 1.389 1_545 S
C252 C227 1.395 . S
C252 C229 1.391 . S
H253 C213 0.951 . S
H254 C214 0.950 . S
H255 C220 0.949 . S
H256 C221 0.950 . S
H257 C225 0.951 . S
H258 C226 0.950 . S
H259 C230 0.949 . S
H260 C231 0.950 . S
H261 C235 0.950 . S
H262 C237 0.950 . S
H263 C240 0.950 1_655 S
H264 C242 0.950 . S
C265 C266 1.443 . S
C265 N269 1.376 . S
C265 C303 1.389 . S
C266 C265 1.443 . S
C266 C267 1.340 . S
C266 H306 0.951 . S
C267 C266 1.340 . S
C267 C268 1.439 . S
C267 H307 0.950 . S
C268 C267 1.439 . S
C268 N269 1.374 . S
C268 C302 1.395 . S
N269 C265 1.376 . S
N269 C268 1.374 . S
N269 Co270 2.008 . S
Co270 N269 2.008 . S
Co270 N271 1.995 . S
Co270 N276 2.008 . S
Co270 N281 1.995 . S
Co270 N286 2.282 . S
Co270 N292 2.282 . S
N271 Co270 1.995 . S
N271 C272 1.376 . S
N271 C275 1.383 . S
C272 N271 1.376 . S
C272 C273 1.446 . S
C272 C302 1.391 . S
C273 C272 1.446 . S
C273 C274 1.339 . S
C273 H308 0.949 . S
C274 C273 1.339 . S
C274 C275 1.439 . S
C274 H309 0.950 . S
C275 N271 1.383 . S
C275 C274 1.439 . S
C275 C304 1.392 . S
N276 Co270 2.008 . S
N276 C277 1.376 . S
N276 C280 1.374 . S
C277 N276 1.376 . S
C277 C278 1.443 . S
C277 C304 1.389 . S
C278 C277 1.443 . S
C278 C279 1.340 . S
C278 H310 0.951 . S
C279 C278 1.340 . S
C279 C280 1.439 . S
C279 H311 0.950 . S
C280 N276 1.374 . S
C280 C279 1.439 . S
C280 C305 1.395 . S
N281 Co270 1.995 . S
N281 C282 1.376 . S
N281 C285 1.383 . S
C282 N281 1.376 . S
C282 C283 1.446 . S
C282 C305 1.391 . S
C283 C282 1.446 . S
C283 C284 1.339 . S
C283 H312 0.949 . S
C284 C283 1.339 . S
C284 C285 1.439 . S
C284 H313 0.950 . S
C285 N281 1.383 . S
C285 C284 1.439 . S
C285 C303 1.392 . S
N286 Co270 2.282 . S
N286 C289 1.332 . S
N286 C291 1.332 . S
C287 C288 1.386 . S
C287 C290 1.388 . S
C288 C287 1.386 . S
C288 C289 1.382 . S
C288 H314 0.950 . S
C289 N286 1.332 . S
C289 C288 1.382 . S
C289 H300 0.952 . S
C290 C287 1.388 . S
C290 C291 1.382 . S
C290 H315 0.950 . S
C291 N286 1.332 . S
C291 C290 1.382 . S
C291 H301 0.948 . S
N292 Co270 2.282 . S
N292 C296 1.332 . S
N292 C297 1.332 . S
C293 C294 1.388 . S
C293 C297 1.382 . S
C293 H316 0.950 1_545 S
C294 C293 1.388 . S
C294 C295 1.386 . S
C295 C294 1.386 . S
C295 C296 1.382 . S
C295 H317 0.950 . S
C296 N292 1.332 . S
C296 C295 1.382 . S
C296 H298 0.952 . S
C297 N292 1.332 . S
C297 C293 1.382 . S
C297 H299 0.948 . S
H298 C296 0.952 . S
H299 C297 0.948 . S
H300 C289 0.952 . S
H301 C291 0.948 . S
C302 C268 1.395 . S
C302 C272 1.391 . S
C303 C265 1.389 . S
C303 C285 1.392 . S
C304 C275 1.392 . S
C304 C277 1.389 . S
C305 C280 1.395 . S
C305 C282 1.391 . S
H306 C266 0.951 . S
H307 C267 0.950 . S
H308 C273 0.949 . S
H309 C274 0.950 . S
H310 C278 0.951 . S
H311 C279 0.950 . S
H312 C283 0.949 . S
H313 C284 0.950 . S
H314 C288 0.950 . S
H315 C290 0.950 . S
H316 C293 0.950 1_565 S
H317 C295 0.950 . S
C318 C319 1.443 1_565 S
C318 N322 1.376 1_565 S
C318 C356 1.389 . S
C319 C318 1.443 1_545 S
C319 C320 1.340 . S
C319 H359 0.951 . S
C320 C319 1.340 . S
C320 C321 1.439 . S
C320 H360 0.950 . S
C321 C320 1.439 . S
C321 N322 1.374 . S
C321 C355 1.395 . S
N322 C318 1.376 1_545 S
N322 C321 1.374 . S
N322 Co323 2.008 1_545 S
Co323 N322 2.008 1_565 S
Co323 N324 1.995 1_565 S
Co323 N329 2.008 . S
Co323 N334 1.995 . S
Co323 N339 2.282 . S
Co323 N345 2.282 . S
N324 Co323 1.995 1_545 S
N324 C325 1.376 . S
N324 C328 1.383 . S
C325 N324 1.376 . S
C325 C326 1.446 . S
C325 C355 1.391 . S
C326 C325 1.446 . S
C326 C327 1.339 . S
C326 H361 0.949 . S
C327 C326 1.339 . S
C327 C328 1.439 . S
C327 H362 0.950 . S
C328 N324 1.383 . S
C328 C327 1.439 . S
C328 C357 1.392 . S
N329 Co323 2.008 . S
N329 C330 1.376 . S
N329 C333 1.374 . S
C330 N329 1.376 . S
C330 C331 1.443 . S
C330 C357 1.389 1_565 S
C331 C330 1.443 . S
C331 C332 1.340 . S
C331 H363 0.951 . S
C332 C331 1.340 . S
C332 C333 1.439 . S
C332 H364 0.950 . S
C333 N329 1.374 . S
C333 C332 1.439 . S
C333 C358 1.395 . S
N334 Co323 1.995 . S
N334 C335 1.376 . S
N334 C338 1.383 . S
C335 N334 1.376 . S
C335 C336 1.446 . S
C335 C358 1.391 . S
C336 C335 1.446 . S
C336 C337 1.339 . S
C336 H365 0.949 . S
C337 C336 1.339 . S
C337 C338 1.439 . S
C337 H366 0.950 . S
C338 N334 1.383 . S
C338 C337 1.439 . S
C338 C356 1.392 . S
N339 Co323 2.282 . S
N339 C342 1.332 . S
N339 C344 1.332 1_565 S
C340 C341 1.386 . S
C340 C343 1.388 1_565 S
C341 C340 1.386 . S
C341 C342 1.382 . S
C341 H367 0.950 . S
C342 N339 1.332 . S
C342 C341 1.382 . S
C342 H353 0.952 . S
C343 C340 1.388 1_545 S
C343 C344 1.382 . S
C343 H368 0.950 . S
C344 N339 1.332 1_545 S
C344 C343 1.382 . S
C344 H354 0.948 . S
N345 Co323 2.282 . S
N345 C349 1.332 1_565 S
N345 C350 1.332 . S
C346 C347 1.388 . S
C346 C350 1.382 . S
C346 H369 0.950 . S
C347 C346 1.388 . S
C347 C348 1.386 1_565 S
C348 C347 1.386 1_545 S
C348 C349 1.382 . S
C348 H370 0.950 . S
C349 N345 1.332 1_545 S
C349 C348 1.382 . S
C349 H351 0.952 . S
C350 N345 1.332 . S
C350 C346 1.382 . S
C350 H352 0.948 . S
H351 C349 0.952 . S
H352 C350 0.948 . S
H353 C342 0.952 . S
H354 C344 0.948 . S
C355 C321 1.395 . S
C355 C325 1.391 . S
C356 C318 1.389 . S
C356 C338 1.392 . S
C357 C328 1.392 . S
C357 C330 1.389 1_545 S
C358 C333 1.395 . S
C358 C335 1.391 . S
H359 C319 0.951 . S
H360 C320 0.950 . S
H361 C326 0.949 . S
H362 C327 0.950 . S
H363 C331 0.951 . S
H364 C332 0.950 . S
H365 C336 0.949 . S
H366 C337 0.950 . S
H367 C341 0.950 . S
H368 C343 0.950 . S
H369 C346 0.950 . S
H370 C348 0.950 . S
C371 C372 1.443 1_556 S
C371 N375 1.376 . S
C371 C409 1.389 . S
C372 C371 1.443 1_554 S
C372 C373 1.340 1_554 S
C372 H412 0.951 . S
C373 C372 1.340 1_556 S
C373 C374 1.439 . S
C373 H413 0.950 1_556 S
C374 C373 1.439 . S
C374 N375 1.374 . S
C374 C408 1.395 . S
N375 C371 1.376 . S
N375 C374 1.374 . S
N375 Co376 2.008 . S
Co376 N375 2.008 . S
Co376 N377 1.995 . S
Co376 N382 2.008 . S
Co376 N387 1.995 . S
Co376 N392 2.282 . S
Co376 N398 2.282 . S
N377 Co376 1.995 . S
N377 C378 1.376 . S
N377 C381 1.383 . S
C378 N377 1.376 . S
C378 C379 1.446 . S
C378 C408 1.391 . S
C379 C378 1.446 . S
C379 C380 1.339 . S
C379 H414 0.949 . S
C380 C379 1.339 . S
C380 C381 1.439 . S
C380 H415 0.950 . S
C381 N377 1.383 . S
C381 C380 1.439 . S
C381 C410 1.392 . S
N382 Co376 2.008 . S
N382 C383 1.376 . S
N382 C386 1.374 . S
C383 N382 1.376 . S
C383 C384 1.443 . S
C383 C410 1.389 . S
C384 C383 1.443 . S
C384 C385 1.340 . S
C384 H416 0.951 . S
C385 C384 1.340 . S
C385 C386 1.439 . S
C385 H417 0.950 . S
C386 N382 1.374 . S
C386 C385 1.439 . S
C386 C411 1.395 . S
N387 Co376 1.995 . S
N387 C388 1.376 . S
N387 C391 1.383 . S
C388 N387 1.376 . S
C388 C389 1.446 . S
C388 C411 1.391 . S
C389 C388 1.446 . S
C389 C390 1.339 . S
C389 H418 0.949 . S
C390 C389 1.339 . S
C390 C391 1.439 . S
C390 H419 0.950 . S
C391 N387 1.383 . S
C391 C390 1.439 . S
C391 C409 1.392 . S
N392 Co376 2.282 . S
N392 C395 1.332 . S
N392 C397 1.332 . S
C393 C394 1.386 . S
C393 C396 1.388 . S
C394 C393 1.386 . S
C394 C395 1.382 . S
C394 H420 0.950 . S
C395 N392 1.332 . S
C395 C394 1.382 . S
C395 H406 0.952 . S
C396 C393 1.388 . S
C396 C397 1.382 . S
C396 H421 0.950 . S
C397 N392 1.332 . S
C397 C396 1.382 . S
C397 H407 0.948 . S
N398 Co376 2.282 . S
N398 C402 1.332 . S
N398 C403 1.332 . S
C399 C400 1.388 . S
C399 C403 1.382 . S
C399 H422 0.950 1_655 S
C400 C399 1.388 . S
C400 C401 1.386 . S
C401 C400 1.386 . S
C401 C402 1.382 . S
C401 H423 0.950 . S
C402 N398 1.332 . S
C402 C401 1.382 . S
C402 H404 0.952 . S
C403 N398 1.332 . S
C403 C399 1.382 . S
C403 H405 0.948 . S
H404 C402 0.952 . S
H405 C403 0.948 . S
H406 C395 0.952 . S
H407 C397 0.948 . S
C408 C374 1.395 . S
C408 C378 1.391 . S
C409 C371 1.389 . S
C409 C391 1.392 . S
C410 C381 1.392 . S
C410 C383 1.389 . S
C411 C386 1.395 . S
C411 C388 1.391 . S
H412 C372 0.951 . S
H413 C373 0.950 1_554 S
H414 C379 0.949 . S
H415 C380 0.950 . S
H416 C384 0.951 . S
H417 C385 0.950 . S
H418 C389 0.949 . S
H419 C390 0.950 . S
H420 C394 0.950 . S
H421 C396 0.950 . S
H422 C399 0.950 1_455 S
H423 C401 0.950 . S
C424 C425 1.443 1_455 S
C424 N428 1.376 1_455 S
C424 C462 1.389 . S
C425 C424 1.443 1_655 S
C425 C426 1.340 . S
C425 H465 0.951 . S
C426 C425 1.340 . S
C426 C427 1.439 . S
C426 H466 0.950 . S
C427 C426 1.439 . S
C427 N428 1.374 . S
C427 C461 1.395 . S
N428 C424 1.376 1_655 S
N428 C427 1.374 . S
N428 Co429 2.008 1_655 S
Co429 N428 2.008 1_455 S
Co429 N430 1.995 1_455 S
Co429 N435 2.008 . S
Co429 N440 1.995 . S
Co429 N445 2.282 . S
Co429 N451 2.282 . S
N430 Co429 1.995 1_655 S
N430 C431 1.376 . S
N430 C434 1.383 . S
C431 N430 1.376 . S
C431 C432 1.446 . S
C431 C461 1.391 . S
C432 C431 1.446 . S
C432 C433 1.339 . S
C432 H467 0.949 . S
C433 C432 1.339 . S
C433 C434 1.439 . S
C433 H468 0.950 . S
C434 N430 1.383 . S
C434 C433 1.439 . S
C434 C463 1.392 . S
N435 Co429 2.008 . S
N435 C436 1.376 . S
N435 C439 1.374 . S
C436 N435 1.376 . S
C436 C437 1.443 . S
C436 C463 1.389 1_455 S
C437 C436 1.443 . S
C437 C438 1.340 . S
C437 H469 0.951 . S
C438 C437 1.340 . S
C438 C439 1.439 . S
C438 H470 0.950 . S
C439 N435 1.374 . S
C439 C438 1.439 . S
C439 C464 1.395 . S
N440 Co429 1.995 . S
N440 C441 1.376 . S
N440 C444 1.383 . S
C441 N440 1.376 . S
C441 C442 1.446 . S
C441 C464 1.391 . S
C442 C441 1.446 . S
C442 C443 1.339 . S
C442 H471 0.949 . S
C443 C442 1.339 . S
C443 C444 1.439 . S
C443 H472 0.950 . S
C444 N440 1.383 . S
C444 C443 1.439 . S
C444 C462 1.392 . S
N445 Co429 2.282 . S
N445 C448 1.332 . S
N445 C450 1.332 1_455 S
C446 C447 1.386 . S
C446 C449 1.388 1_455 S
C447 C446 1.386 . S
C447 C448 1.382 . S
C447 H473 0.950 . S
C448 N445 1.332 . S
C448 C447 1.382 . S
C448 H459 0.952 . S
C449 C446 1.388 1_655 S
C449 C450 1.382 . S
C449 H474 0.950 . S
C450 N445 1.332 1_655 S
C450 C449 1.382 . S
C450 H460 0.948 . S
N451 Co429 2.282 . S
N451 C455 1.332 1_455 S
N451 C456 1.332 . S
C452 C453 1.388 . S
C452 C456 1.382 . S
C452 H475 0.950 1_565 S
C453 C452 1.388 . S
C453 C454 1.386 1_455 S
C454 C453 1.386 1_655 S
C454 C455 1.382 . S
C454 H476 0.950 . S
C455 N451 1.332 1_655 S
C455 C454 1.382 . S
C455 H457 0.952 . S
C456 N451 1.332 . S
C456 C452 1.382 . S
C456 H458 0.948 . S
H457 C455 0.952 . S
H458 C456 0.948 . S
H459 C448 0.952 . S
H460 C450 0.948 . S
C461 C427 1.395 . S
C461 C431 1.391 . S
C462 C424 1.389 . S
C462 C444 1.392 . S
C463 C434 1.392 . S
C463 C436 1.389 1_655 S
C464 C439 1.395 . S
C464 C441 1.391 . S
H465 C425 0.951 . S
H466 C426 0.950 . S
H467 C432 0.949 . S
H468 C433 0.950 . S
H469 C437 0.951 . S
H470 C438 0.950 . S
H471 C442 0.949 . S
H472 C443 0.950 . S
H473 C447 0.950 . S
H474 C449 0.950 . S
H475 C452 0.950 1_545 S
H476 C454 0.950 . S
C477 C478 1.443 1_545 S
C477 N481 1.376 1_545 S
C477 C515 1.389 . S
C478 C477 1.443 1_565 S
C478 C479 1.340 . S
C478 H518 0.951 . S
C479 C478 1.340 . S
C479 C480 1.439 . S
C479 H519 0.950 . S
C480 C479 1.439 . S
C480 N481 1.374 . S
C480 C514 1.395 . S
N481 C477 1.376 1_565 S
N481 C480 1.374 . S
N481 Co482 2.008 1_565 S
Co482 N481 2.008 1_545 S
Co482 N483 1.995 1_545 S
Co482 N488 2.008 . S
Co482 N493 1.995 . S
Co482 N498 2.282 . S
Co482 N504 2.282 . S
N483 Co482 1.995 1_565 S
N483 C484 1.376 . S
N483 C487 1.383 . S
C484 N483 1.376 . S
C484 C485 1.446 . S
C484 C514 1.391 . S
C485 C484 1.446 . S
C485 C486 1.339 . S
C485 H520 0.949 . S
C486 C485 1.339 . S
C486 C487 1.439 . S
C486 H521 0.950 . S
C487 N483 1.383 . S
C487 C486 1.439 . S
C487 C516 1.392 . S
N488 Co482 2.008 . S
N488 C489 1.376 . S
N488 C492 1.374 . S
C489 N488 1.376 . S
C489 C490 1.443 . S
C489 C516 1.389 1_545 S
C490 C489 1.443 . S
C490 C491 1.340 . S
C490 H522 0.951 . S
C491 C490 1.340 . S
C491 C492 1.439 . S
C491 H523 0.950 . S
C492 N488 1.374 . S
C492 C491 1.439 . S
C492 C517 1.395 . S
N493 Co482 1.995 . S
N493 C494 1.376 . S
N493 C497 1.383 . S
C494 N493 1.376 . S
C494 C495 1.446 . S
C494 C517 1.391 . S
C495 C494 1.446 . S
C495 C496 1.339 . S
C495 H524 0.949 . S
C496 C495 1.339 . S
C496 C497 1.439 . S
C496 H525 0.950 . S
C497 N493 1.383 . S
C497 C496 1.439 . S
C497 C515 1.392 . S
N498 Co482 2.282 . S
N498 C501 1.332 . S
N498 C503 1.332 1_545 S
C499 C500 1.386 . S
C499 C502 1.388 1_545 S
C500 C499 1.386 . S
C500 C501 1.382 . S
C500 H526 0.950 . S
C501 N498 1.332 . S
C501 C500 1.382 . S
C501 H512 0.952 . S
C502 C499 1.388 1_565 S
C502 C503 1.382 . S
C502 H527 0.950 . S
C503 N498 1.332 1_565 S
C503 C502 1.382 . S
C503 H513 0.948 . S
N504 Co482 2.282 . S
N504 C508 1.332 1_545 S
N504 C509 1.332 . S
C505 C506 1.388 . S
C505 C509 1.382 . S
C505 H528 0.950 . S
C506 C505 1.388 . S
C506 C507 1.386 1_545 S
C507 C506 1.386 1_565 S
C507 C508 1.382 . S
C507 H529 0.950 . S
C508 N504 1.332 1_565 S
C508 C507 1.382 . S
C508 H510 0.952 . S
C509 N504 1.332 . S
C509 C505 1.382 . S
C509 H511 0.948 . S
H510 C508 0.952 . S
H511 C509 0.948 . S
H512 C501 0.952 . S
H513 C503 0.948 . S
C514 C480 1.395 . S
C514 C484 1.391 . S
C515 C477 1.389 . S
C515 C497 1.392 . S
C516 C487 1.392 . S
C516 C489 1.389 1_565 S
C517 C492 1.395 . S
C517 C494 1.391 . S
H518 C478 0.951 . S
H519 C479 0.950 . S
H520 C485 0.949 . S
H521 C486 0.950 . S
H522 C490 0.951 . S
H523 C491 0.950 . S
H524 C495 0.949 . S
H525 C496 0.950 . S
H526 C500 0.950 . S
H527 C502 0.950 . S
H528 C505 0.950 . S
H529 C507 0.950 . S
C530 C531 1.443 1_556 S
C530 N534 1.376 . S
C530 C568 1.389 . S
C531 C530 1.443 1_554 S
C531 C532 1.340 1_554 S
C531 H571 0.951 . S
C532 C531 1.340 1_556 S
C532 C533 1.439 . S
C532 H572 0.950 1_556 S
C533 C532 1.439 . S
C533 N534 1.374 . S
C533 C567 1.395 . S
N534 C530 1.376 . S
N534 C533 1.374 . S
N534 Co535 2.008 . S
Co535 N534 2.008 . S
Co535 N536 1.995 . S
Co535 N541 2.008 . S
Co535 N546 1.995 . S
Co535 N551 2.282 . S
Co535 N557 2.282 . S
N536 Co535 1.995 . S
N536 C537 1.376 . S
N536 C540 1.383 . S
C537 N536 1.376 . S
C537 C538 1.446 . S
C537 C567 1.391 . S
C538 C537 1.446 . S
C538 C539 1.339 . S
C538 H573 0.949 . S
C539 C538 1.339 . S
C539 C540 1.439 . S
C539 H574 0.950 . S
C540 N536 1.383 . S
C540 C539 1.439 . S
C540 C569 1.392 . S
N541 Co535 2.008 . S
N541 C542 1.376 . S
N541 C545 1.374 . S
C542 N541 1.376 . S
C542 C543 1.443 . S
C542 C569 1.389 . S
C543 C542 1.443 . S
C543 C544 1.340 . S
C543 H575 0.951 . S
C544 C543 1.340 . S
C544 C545 1.439 . S
C544 H576 0.950 . S
C545 N541 1.374 . S
C545 C544 1.439 . S
C545 C570 1.395 . S
N546 Co535 1.995 . S
N546 C547 1.376 . S
N546 C550 1.383 . S
C547 N546 1.376 . S
C547 C548 1.446 . S
C547 C570 1.391 . S
C548 C547 1.446 . S
C548 C549 1.339 . S
C548 H577 0.949 . S
C549 C548 1.339 . S
C549 C550 1.439 . S
C549 H578 0.950 . S
C550 N546 1.383 . S
C550 C549 1.439 . S
C550 C568 1.392 . S
N551 Co535 2.282 . S
N551 C554 1.332 . S
N551 C556 1.332 . S
C552 C553 1.386 . S
C552 C555 1.388 . S
C553 C552 1.386 . S
C553 C554 1.382 . S
C553 H579 0.950 . S
C554 N551 1.332 . S
C554 C553 1.382 . S
C554 H565 0.952 . S
C555 C552 1.388 . S
C555 C556 1.382 . S
C555 H580 0.950 . S
C556 N551 1.332 . S
C556 C555 1.382 . S
C556 H566 0.948 . S
N557 Co535 2.282 . S
N557 C561 1.332 . S
N557 C562 1.332 . S
C558 C559 1.388 . S
C558 C562 1.382 . S
C558 H581 0.950 1_455 S
C559 C558 1.388 . S
C559 C560 1.386 . S
C560 C559 1.386 . S
C560 C561 1.382 . S
C560 H582 0.950 . S
C561 N557 1.332 . S
C561 C560 1.382 . S
C561 H563 0.952 . S
C562 N557 1.332 . S
C562 C558 1.382 . S
C562 H564 0.948 . S
H563 C561 0.952 . S
H564 C562 0.948 . S
H565 C554 0.952 . S
H566 C556 0.948 . S
C567 C533 1.395 . S
C567 C537 1.391 . S
C568 C530 1.389 . S
C568 C550 1.392 . S
C569 C540 1.392 . S
C569 C542 1.389 . S
C570 C545 1.395 . S
C570 C547 1.391 . S
H571 C531 0.951 . S
H572 C532 0.950 1_554 S
H573 C538 0.949 . S
H574 C539 0.950 . S
H575 C543 0.951 . S
H576 C544 0.950 . S
H577 C548 0.949 . S
H578 C549 0.950 . S
H579 C553 0.950 . S
H580 C555 0.950 . S
H581 C558 0.950 1_655 S
H582 C560 0.950 . S
C583 C584 1.443 1_655 S
C583 N587 1.376 1_655 S
C583 C621 1.389 . S
C584 C583 1.443 1_455 S
C584 C585 1.340 . S
C584 H624 0.951 . S
C585 C584 1.340 . S
C585 C586 1.439 . S
C585 H625 0.950 . S
C586 C585 1.439 . S
C586 N587 1.374 . S
C586 C620 1.395 . S
N587 C583 1.376 1_455 S
N587 C586 1.374 . S
N587 Co588 2.008 1_455 S
Co588 N587 2.008 1_655 S
Co588 N589 1.995 1_655 S
Co588 N594 2.008 . S
Co588 N599 1.995 . S
Co588 N604 2.282 . S
Co588 N610 2.282 . S
N589 Co588 1.995 1_455 S
N589 C590 1.376 . S
N589 C593 1.383 . S
C590 N589 1.376 . S
C590 C591 1.446 . S
C590 C620 1.391 . S
C591 C590 1.446 . S
C591 C592 1.339 . S
C591 H626 0.949 . S
C592 C591 1.339 . S
C592 C593 1.439 . S
C592 H627 0.950 . S
C593 N589 1.383 . S
C593 C592 1.439 . S
C593 C622 1.392 . S
N594 Co588 2.008 . S
N594 C595 1.376 . S
N594 C598 1.374 . S
C595 N594 1.376 . S
C595 C596 1.443 . S
C595 C622 1.389 1_655 S
C596 C595 1.443 . S
C596 C597 1.340 . S
C596 H628 0.951 . S
C597 C596 1.340 . S
C597 C598 1.439 . S
C597 H629 0.950 . S
C598 N594 1.374 . S
C598 C597 1.439 . S
C598 C623 1.395 . S
N599 Co588 1.995 . S
N599 C600 1.376 . S
N599 C603 1.383 . S
C600 N599 1.376 . S
C600 C601 1.446 . S
C600 C623 1.391 . S
C601 C600 1.446 . S
C601 C602 1.339 . S
C601 H630 0.949 . S
C602 C601 1.339 . S
C602 C603 1.439 . S
C602 H631 0.950 . S
C603 N599 1.383 . S
C603 C602 1.439 . S
C603 C621 1.392 . S
N604 Co588 2.282 . S
N604 C607 1.332 . S
N604 C609 1.332 1_655 S
C605 C606 1.386 . S
C605 C608 1.388 1_655 S
C606 C605 1.386 . S
C606 C607 1.382 . S
C606 H632 0.950 . S
C607 N604 1.332 . S
C607 C606 1.382 . S
C607 H618 0.952 . S
C608 C605 1.388 1_455 S
C608 C609 1.382 . S
C608 H633 0.950 . S
C609 N604 1.332 1_455 S
C609 C608 1.382 . S
C609 H619 0.948 . S
N610 Co588 2.282 . S
N610 C614 1.332 1_655 S
N610 C615 1.332 . S
C611 C612 1.388 . S
C611 C615 1.382 . S
C611 H634 0.950 1_545 S
C612 C611 1.388 . S
C612 C613 1.386 1_655 S
C613 C612 1.386 1_455 S
C613 C614 1.382 . S
C613 H635 0.950 . S
C614 N610 1.332 1_455 S
C614 C613 1.382 . S
C614 H616 0.952 . S
C615 N610 1.332 . S
C615 C611 1.382 . S
C615 H617 0.948 . S
H616 C614 0.952 . S
H617 C615 0.948 . S
H618 C607 0.952 . S
H619 C609 0.948 . S
C620 C586 1.395 . S
C620 C590 1.391 . S
C621 C583 1.389 . S
C621 C603 1.392 . S
C622 C593 1.392 . S
C622 C595 1.389 1_455 S
C623 C598 1.395 . S
C623 C600 1.391 . S
H624 C584 0.951 . S
H625 C585 0.950 . S
H626 C591 0.949 . S
H627 C592 0.950 . S
H628 C596 0.951 . S
H629 C597 0.950 . S
H630 C601 0.949 . S
H631 C602 0.950 . S
H632 C606 0.950 . S
H633 C608 0.950 . S
H634 C611 0.950 1_565 S
H635 C613 0.950 . S
C622 C39 2.314 1_455 S
C92 C357 2.314 1_565 S
C145 C410 2.314 . S
C198 C463 2.314 1_455 S
C516 C251 2.314 1_565 S
C304 C569 2.314 . S
C38 C568 2.422 1_554 S
C91 C621 2.423 . S
C144 C356 2.422 . S
C197 C409 2.422 1_554 S
C462 C250 2.423 . S
C515 C303 2.422 . S
C181 C22 1.732 1_655 S
C75 C234 1.732 1_545 S
C287 C128 1.732 . S
C499 C340 1.732 1_545 S
C552 C393 1.732 . S
C446 C605 1.732 1_455 S
C29 C188 1.966 1_445 S
C82 C241 1.965 1_645 S
C294 C135 1.966 1_445 S
C347 C506 1.966 1_665 S
C400 C559 1.966 1_665 S
C453 C612 1.965 1_465 S
