# Generated by pormake.
# Topology wjd, (6)-cn, num edge types: 1
# Building blocks:
#     Node 0, Type 0, BuildingBlock: JUFBIX_clean_sbu_0, # of connection points: 6
#     Node 1, Type 0, BuildingBlock: JUFBIX_clean_sbu_0, # of connection points: 6
#     Node 2, Type 0, BuildingBlock: JUFBIX_clean_sbu_0, # of connection points: 6
#     Node 3, Type 0, BuildingBlock: JUFBIX_clean_sbu_0, # of connection points: 6
#     Node 4, Type 0, BuildingBlock: JUFBIX_clean_sbu_0, # of connection points: 6
#     Node 5, Type 0, BuildingBlock: JUFBIX_clean_sbu_0, # of connection points: 6
#     Node 6, Type 0, BuildingBlock: JUFBIX_clean_sbu_0, # of connection points: 6
#     Node 7, Type 0, BuildingBlock: JUFBIX_clean_sbu_0, # of connection points: 6
#     Node 8, Type 0, BuildingBlock: JUFBIX_clean_sbu_0, # of connection points: 6
#     Node 9, Type 0, BuildingBlock: JUFBIX_clean_sbu_0, # of connection points: 6
#     Node 10, Type 0, BuildingBlock: JUFBIX_clean_sbu_0, # of connection points: 6
#     Node 11, Type 0, BuildingBlock: JUFBIX_clean_sbu_0, # of connection points: 6
#     Edge 12, Type (0, 0), BuildingBlock: TEMPAE_clean_linker_10, # of connection points: 2
#     Edge 13, Type (0, 0), BuildingBlock: TEMPAE_clean_linker_10, # of connection points: 2
#     Edge 14, Type (0, 0), BuildingBlock: TEMPAE_clean_linker_10, # of connection points: 2
#     Edge 15, Type (0, 0), BuildingBlock: TEMPAE_clean_linker_10, # of connection points: 2
#     Edge 16, Type (0, 0), BuildingBlock: TEMPAE_clean_linker_10, # of connection points: 2
#     Edge 17, Type (0, 0), BuildingBlock: TEMPAE_clean_linker_10, # of connection points: 2
#     Edge 18, Type (0, 0), BuildingBlock: TEMPAE_clean_linker_10, # of connection points: 2
#     Edge 19, Type (0, 0), BuildingBlock: TEMPAE_clean_linker_10, # of connection points: 2
#     Edge 20, Type (0, 0), BuildingBlock: TEMPAE_clean_linker_10, # of connection points: 2
#     Edge 21, Type (0, 0), BuildingBlock: TEMPAE_clean_linker_10, # of connection points: 2
#     Edge 22, Type (0, 0), BuildingBlock: TEMPAE_clean_linker_10, # of connection points: 2
#     Edge 23, Type (0, 0), BuildingBlock: TEMPAE_clean_linker_10, # of connection points: 2
#     Edge 24, Type (0, 0), BuildingBlock: TEMPAE_clean_linker_10, # of connection points: 2
#     Edge 25, Type (0, 0), BuildingBlock: TEMPAE_clean_linker_10, # of connection points: 2
#     Edge 26, Type (0, 0), BuildingBlock: TEMPAE_clean_linker_10, # of connection points: 2
#     Edge 27, Type (0, 0), BuildingBlock: TEMPAE_clean_linker_10, # of connection points: 2
#     Edge 28, Type (0, 0), BuildingBlock: TEMPAE_clean_linker_10, # of connection points: 2
#     Edge 29, Type (0, 0), BuildingBlock: TEMPAE_clean_linker_10, # of connection points: 2
#     Edge 30, Type (0, 0), BuildingBlock: TEMPAE_clean_linker_10, # of connection points: 2
#     Edge 31, Type (0, 0), BuildingBlock: TEMPAE_clean_linker_10, # of connection points: 2
#     Edge 32, Type (0, 0), BuildingBlock: TEMPAE_clean_linker_10, # of connection points: 2
#     Edge 33, Type (0, 0), BuildingBlock: TEMPAE_clean_linker_10, # of connection points: 2
#     Edge 34, Type (0, 0), BuildingBlock: TEMPAE_clean_linker_10, # of connection points: 2
#     Edge 35, Type (0, 0), BuildingBlock: TEMPAE_clean_linker_10, # of connection points: 2
#     Edge 36, Type (0, 0), BuildingBlock: TEMPAE_clean_linker_10, # of connection points: 2
#     Edge 37, Type (0, 0), BuildingBlock: TEMPAE_clean_linker_10, # of connection points: 2
#     Edge 38, Type (0, 0), BuildingBlock: TEMPAE_clean_linker_10, # of connection points: 2
#     Edge 39, Type (0, 0), BuildingBlock: TEMPAE_clean_linker_10, # of connection points: 2
#     Edge 40, Type (0, 0), BuildingBlock: TEMPAE_clean_linker_10, # of connection points: 2
#     Edge 41, Type (0, 0), BuildingBlock: TEMPAE_clean_linker_10, # of connection points: 2
#     Edge 42, Type (0, 0), BuildingBlock: TEMPAE_clean_linker_10, # of connection points: 2
#     Edge 43, Type (0, 0), BuildingBlock: TEMPAE_clean_linker_10, # of connection points: 2
#     Edge 44, Type (0, 0), BuildingBlock: TEMPAE_clean_linker_10, # of connection points: 2
#     Edge 45, Type (0, 0), BuildingBlock: TEMPAE_clean_linker_10, # of connection points: 2
#     Edge 46, Type (0, 0), BuildingBlock: TEMPAE_clean_linker_10, # of connection points: 2
#     Edge 47, Type (0, 0), BuildingBlock: TEMPAE_clean_linker_10, # of connection points: 2
# Relax obj value: 0.303
# Max RMSD: 0.238
# Mean RMSD: 0.238
data_MOF--net-wjd--node1-JUFBIX_clean_sbu_0--edge1-TEMPAE_clean_linker_10
_symmetry_space_group_name_H-M    P1
_symmetry_Int_Tables_number       1
_symmetry_cell_setting            triclinic
loop_
_symmetry_equiv_pos_as_xyz
'x, y, z'
_cell_length_a     33.471925
_cell_length_b     33.489618
_cell_length_c     56.918149
_cell_angle_alpha  90.01766
_cell_angle_beta   89.918988
_cell_angle_gamma 120.24697
loop_
_atom_site_label
_atom_site_type_symbol
_atom_site_fract_x
_atom_site_fract_y
_atom_site_fract_z
_atom_type_partial_charge
Co0 Co 0.3038 0.13047 0.14177 0.0
C1 C 0.36001 0.14524 0.18163 0.0
Co2 Co 0.35603 0.10924 0.13815 0.0
C3 C 0.24728 0.17459 0.13866 0.0
C4 C 0.23536 0.13281 0.16928 0.0
N5 N 0.25932 0.14578 0.1489 0.0
N6 N 0.21749 0.18045 0.15225 0.0
C7 C 0.20976 0.15396 0.17136 0.0
H8 H 0.26124 0.19213 0.12212 0.0
H9 H 0.23755 0.11045 0.18229 0.0
C10 C 0.29917 0.09211 0.0986 0.0
N11 N 0.40085 0.09327 0.13248 0.0
C12 C 0.44675 0.12215 0.12972 0.0
C13 C 0.39484 0.05049 0.12964 0.0
N14 N 0.4693 0.09917 0.12538 0.0
C15 C 0.43704 0.05405 0.12548 0.0
C16 C 0.27258 0.0384 0.15387 0.0
O17 O 0.28015 0.11055 0.11038 0.0
O18 O 0.33336 0.09062 0.10729 0.0
O19 O 0.3131 0.04715 0.1486 0.0
O20 O 0.26313 0.0704 0.15239 0.0
O21 O 0.3784 0.12706 0.16937 0.0
H22 H 0.36193 0.01864 0.13023 0.0
H23 H 0.46373 0.15939 0.13105 0.0
O24 O 0.32756 0.14939 0.17272 0.0
O25 O 0.3442 0.19082 0.13132 0.0
O26 O 0.39782 0.17204 0.12776 0.0
C27 C 0.38578 0.20254 0.12677 0.0
H28 H 0.187 0.15013 0.18582 0.0
H29 H 0.44347 0.02591 0.12227 0.0
Co30 Co 0.76297 0.67807 0.37622 0.0
C31 C 0.79745 0.64845 0.34021 0.0
Co32 Co 0.79429 0.638 0.38925 0.0
C33 C 0.75701 0.75838 0.37425 0.0
C34 C 0.72166 0.71579 0.34471 0.0
N35 N 0.74147 0.71585 0.36535 0.0
N36 N 0.75024 0.78596 0.35963 0.0
C37 C 0.72701 0.75907 0.34115 0.0
H38 H 0.77689 0.77018 0.39031 0.0
H39 H 0.7086 0.68796 0.33204 0.0
C40 C 0.75852 0.67038 0.42471 0.0
N41 N 0.81916 0.6028 0.40044 0.0
C42 C 0.82443 0.56971 0.38963 0.0
C43 C 0.84015 0.60892 0.42141 0.0
N44 N 0.8482 0.55527 0.40302 0.0
C45 C 0.85771 0.5798 0.42309 0.0
C46 C 0.85806 0.72929 0.38596 0.0
O47 O 0.75012 0.6878 0.40701 0.0
O48 O 0.77779 0.6462 0.42143 0.0
O49 O 0.85231 0.69077 0.39265 0.0
O50 O 0.82387 0.73145 0.37793 0.0
O51 O 0.80995 0.63119 0.35669 0.0
H52 H 0.84356 0.63384 0.43451 0.0
H53 H 0.8123 0.55753 0.37202 0.0
O54 O 0.77544 0.66876 0.34552 0.0
O55 O 0.70284 0.62396 0.37444 0.0
O56 O 0.73618 0.58493 0.38588 0.0
C57 C 0.70008 0.58552 0.37952 0.0
H58 H 0.71848 0.77094 0.32527 0.0
H59 H 0.87604 0.57701 0.43806 0.0
Co60 Co 0.86442 0.18108 0.1231 0.0
C61 C 0.84772 0.20201 0.16812 0.0
Co62 Co 0.89367 0.25595 0.12884 0.0
C63 C 0.83987 0.08481 0.13031 0.0
C64 C 0.81832 0.09795 0.09721 0.0
N65 N 0.84045 0.1188 0.11727 0.0
N66 N 0.81852 0.04377 0.11895 0.0
C67 C 0.8049 0.05204 0.09818 0.0
H68 H 0.85551 0.09022 0.14752 0.0
H69 H 0.81231 0.11515 0.08272 0.0
C70 C 0.91429 0.23607 0.08483 0.0
N71 N 0.91578 0.31859 0.13343 0.0
C72 C 0.88908 0.33785 0.13618 0.0
C73 C 0.95877 0.35466 0.12971 0.0
N74 N 0.91299 0.38399 0.13341 0.0
C75 C 0.95711 0.39506 0.12968 0.0
C76 C 0.95438 0.22641 0.13963 0.0
O77 O 0.88958 0.19461 0.09184 0.0
O78 O 0.91885 0.26876 0.09798 0.0
O79 O 0.94988 0.26193 0.13953 0.0
O80 O 0.92053 0.1873 0.1337 0.0
O81 O 0.86962 0.24302 0.16001 0.0
H82 H 0.9885 0.35152 0.12526 0.0
H83 H 0.85194 0.31828 0.1384 0.0
O84 O 0.84073 0.16851 0.15475 0.0
O85 O 0.80834 0.17496 0.11245 0.0
O86 O 0.83674 0.24888 0.11777 0.0
C87 C 0.80336 0.20992 0.11173 0.0
H88 H 0.78628 0.0266 0.08467 0.0
H89 H 0.98512 0.42915 0.12508 0.0
Co90 Co 0.30897 0.0702 0.39028 0.0
C91 C 0.35656 0.13212 0.35511 0.0
Co92 Co 0.35645 0.13937 0.40424 0.0
C93 C 0.22167 0.99005 0.38557 0.0
C94 C 0.2682 0.98962 0.35993 0.0
N95 N 0.26621 0.013 0.37875 0.0
N96 N 0.19506 0.95404 0.37143 0.0
C97 C 0.22437 0.95323 0.35538 0.0
H98 H 0.20883 1.00105 0.40017 0.0
H99 H 0.29879 1.00006 0.34936 0.0
C100 C 0.30644 0.07337 0.43887 0.0
N101 N 0.39811 0.19723 0.41562 0.0
C102 C 0.4104 0.2382 0.40544 0.0
C103 C 0.42482 0.20779 0.43491 0.0
N104 N 0.44421 0.27411 0.41741 0.0
C105 C 0.45321 0.255 0.43605 0.0
C106 C 0.27186 0.12903 0.39459 0.0
O107 O 0.29108 0.0481 0.42081 0.0
O108 O 0.33601 0.11624 0.4362 0.0
O109 O 0.31186 0.15717 0.40223 0.0
O110 O 0.2625 0.08846 0.38895 0.0
O111 O 0.37602 0.1608 0.37188 0.0
H112 H 0.42478 0.1827 0.44689 0.0
H113 H 0.39532 0.2414 0.38926 0.0
O114 O 0.32611 0.09109 0.36003 0.0
O115 O 0.35654 0.05355 0.39125 0.0
O116 O 0.40165 0.12244 0.40625 0.0
C117 C 0.39575 0.08381 0.39943 0.0
H118 H 0.21459 0.92981 0.34061 0.0
H119 H 0.48003 0.27348 0.44897 0.0
Co120 Co 0.82806 0.69136 0.12056 0.0
C121 C 0.80552 0.65083 0.16525 0.0
Co122 Co 0.75282 0.64689 0.12666 0.0
C123 C 0.92668 0.75543 0.12932 0.0
C124 C 0.91099 0.7325 0.09364 0.0
N125 N 0.89113 0.72838 0.11485 0.0
N126 N 0.96758 0.77651 0.11777 0.0
C127 C 0.95774 0.76225 0.09534 0.0
H128 H 0.92262 0.76019 0.14781 0.0
H129 H 0.89264 0.71478 0.07786 0.0
C130 C 0.77322 0.68922 0.08269 0.0
N131 N 0.68943 0.60798 0.13095 0.0
C132 C 0.66698 0.56192 0.13509 0.0
C133 C 0.6559 0.61708 0.12481 0.0
N134 N 0.62115 0.54183 0.13104 0.0
C135 C 0.61396 0.57642 0.12466 0.0
C136 C 0.78732 0.73832 0.13936 0.0
O137 O 0.81484 0.70633 0.0896 0.0
O138 O 0.74096 0.66022 0.09583 0.0
O139 O 0.74998 0.69934 0.13803 0.0
O140 O 0.82524 0.74172 0.13283 0.0
O141 O 0.76456 0.63438 0.15749 0.0
H142 H 0.66201 0.65042 0.11893 0.0
H143 H 0.68431 0.54276 0.13892 0.0
O144 O 0.83957 0.6766 0.15185 0.0
O145 O 0.83114 0.64074 0.10851 0.0
O146 O 0.75742 0.59543 0.11559 0.0
C147 C 0.79591 0.60059 0.10884 0.0
H148 H 0.98274 0.77243 0.08123 0.0
H149 H 0.58116 0.57219 0.11903 0.0
Co150 Co 0.92156 0.21892 0.37981 0.0
C151 C 0.8593 0.19344 0.34356 0.0
Co152 Co 0.84991 0.18763 0.39309 0.0
C153 C 0.00948 0.2272 0.37876 0.0
C154 C 0.00642 0.27007 0.35186 0.0
N155 N 0.98205 0.2422 0.36986 0.0
N156 N 0.04976 0.24387 0.36709 0.0
C157 C 0.04814 0.27101 0.35004 0.0
H158 H 0.99872 0.20201 0.39278 0.0
H159 H 0.9939 0.2869 0.34023 0.0
C160 C 0.91636 0.21422 0.42875 0.0
N161 N 0.78912 0.16035 0.40396 0.0
C162 C 0.75054 0.15592 0.39377 0.0
C163 C 0.77379 0.13466 0.42371 0.0
N164 N 0.71192 0.1281 0.40635 0.0
C165 C 0.72673 0.11511 0.42527 0.0
C166 C 0.87538 0.12297 0.38498 0.0
O167 O 0.94236 0.22567 0.41091 0.0
O168 O 0.873 0.19675 0.42555 0.0
O169 O 0.84342 0.12905 0.39265 0.0
O170 O 0.91311 0.15766 0.37827 0.0
O171 O 0.82916 0.17954 0.36007 0.0
H172 H 0.79521 0.12898 0.43588 0.0
H173 H 0.75055 0.17124 0.37703 0.0
O174 O 0.90171 0.2125 0.34895 0.0
O175 O 0.92806 0.27975 0.38104 0.0
O176 O 0.85601 0.24626 0.39365 0.0
C177 C 0.89318 0.2827 0.38784 0.0
H178 H 0.07459 0.2893 0.33689 0.0
H179 H 0.70506 0.09276 0.43925 0.0
Co180 Co 0.08938 0.35544 0.62831 0.0
C181 C 0.08163 0.30965 0.58563 0.0
Co182 Co 0.12037 0.31061 0.62848 0.0
C183 C 0.08711 0.43913 0.63096 0.0
C184 C 0.02101 0.38406 0.62009 0.0
N185 N 0.06348 0.39319 0.62681 0.0
N186 N 0.06174 0.45917 0.62679 0.0
C187 C 0.01985 0.42483 0.62009 0.0
H188 H 0.12289 0.45821 0.63646 0.0
H189 H 0.99334 0.35041 0.61473 0.0
C190 C 0.12365 0.3545 0.67161 0.0
N191 N 0.15274 0.27839 0.63103 0.0
C192 C 0.14798 0.23778 0.62337 0.0
C193 C 0.19391 0.29922 0.64228 0.0
N194 N 0.18502 0.23356 0.62934 0.0
C195 C 0.21336 0.27211 0.64139 0.0
C196 C 0.18204 0.40131 0.61592 0.0
O197 O 0.10125 0.36969 0.66056 0.0
O198 O 0.13682 0.3301 0.66069 0.0
O199 O 0.17557 0.36095 0.61768 0.0
O200 O 0.14869 0.40787 0.62032 0.0
O201 O 0.10152 0.29094 0.59648 0.0
H202 H 0.2097 0.33296 0.65042 0.0
H203 H 0.11874 0.21254 0.61326 0.0
O204 O 0.07618 0.34025 0.59605 0.0
O205 O 0.03103 0.30196 0.63624 0.0
O206 O 0.06506 0.26026 0.63896 0.0
C207 C 0.02876 0.26339 0.64052 0.0
H208 H 0.99141 0.42926 0.61452 0.0
H209 H 0.24598 0.28013 0.64929 0.0
Co210 Co 0.18773 0.88086 0.90304 0.0
C211 C 0.22531 0.87753 0.85934 0.0
Co212 Co 0.26283 0.90807 0.9032 0.0
C213 C 0.09504 0.87101 0.90195 0.0
C214 C 0.09802 0.8113 0.89117 0.0
N215 N 0.12414 0.85417 0.90028 0.0
N216 N 0.05237 0.84003 0.8941 0.0
C217 C 0.05416 0.80253 0.8875 0.0
H218 H 0.10556 0.90602 0.9072 0.0
H219 H 0.11075 0.78884 0.88575 0.0
C220 C 0.22585 0.91573 0.94637 0.0
N221 N 0.32547 0.93012 0.90452 0.0
C222 C 0.34413 0.90563 0.8961 0.0
C223 C 0.35935 0.96438 0.91726 0.0
N224 N 0.38742 0.92151 0.90383 0.0
C225 C 0.39776 0.95911 0.91686 0.0
C226 C 0.23822 0.97342 0.89296 0.0
O227 O 0.18717 0.89569 0.93558 0.0
O228 O 0.26201 0.92188 0.93567 0.0
O229 O 0.27283 0.96778 0.89565 0.0
O230 O 0.19745 0.93909 0.895 0.0
O231 O 0.26331 0.89512 0.8704 0.0
H232 H 0.35511 0.98895 0.92774 0.0
H233 H 0.32481 0.87413 0.88604 0.0
O234 O 0.18879 0.86798 0.8705 0.0
O235 O 0.17857 0.82249 0.91127 0.0
O236 O 0.25246 0.84783 0.91102 0.0
C237 C 0.21149 0.81461 0.91342 0.0
H238 H 0.02617 0.77187 0.87946 0.0
H239 H 0.42903 0.97868 0.92705 0.0
Co240 Co 0.63976 0.73686 0.62675 0.0
C241 C 0.67287 0.75312 0.58144 0.0
Co242 Co 0.69427 0.80949 0.6219 0.0
C243 C 0.54907 0.65833 0.62192 0.0
C244 C 0.58799 0.64662 0.648 0.0
N245 N 0.59132 0.67756 0.63185 0.0
N246 N 0.51904 0.61704 0.63149 0.0
C247 C 0.54361 0.60933 0.64781 0.0
H248 H 0.53985 0.67555 0.60876 0.0
H249 H 0.61545 0.65167 0.65981 0.0
C250 C 0.66273 0.7913 0.66768 0.0
N251 N 0.74273 0.8686 0.6164 0.0
C252 C 0.74959 0.91 0.62366 0.0
C253 C 0.78022 0.87853 0.60332 0.0
N254 N 0.78981 0.94532 0.61539 0.0
C255 C 0.8091 0.92545 0.60265 0.0
C256 C 0.60817 0.79808 0.61479 0.0
O257 O 0.63775 0.75106 0.65911 0.0
O258 O 0.69096 0.8239 0.6543 0.0
O259 O 0.65093 0.82812 0.61375 0.0
O260 O 0.5964 0.75666 0.61991 0.0
O261 O 0.69783 0.79373 0.58963 0.0
H262 H 0.78647 0.85313 0.59498 0.0
H263 H 0.72554 0.9141 0.63471 0.0
O264 O 0.64207 0.72236 0.5946 0.0
O265 O 0.68411 0.71809 0.63351 0.0
O266 O 0.73713 0.79135 0.6302 0.0
C267 C 0.72633 0.74988 0.63415 0.0
H268 H 0.53035 0.57948 0.65921 0.0
H269 H 0.84247 0.94347 0.59404 0.0
Co270 Co 0.12765 0.30726 0.89213 0.0
C271 C 0.12954 0.34943 0.84843 0.0
Co272 Co 0.1127 0.36407 0.89311 0.0
C273 C 0.17509 0.25541 0.89669 0.0
C274 C 0.12193 0.22878 0.87044 0.0
N275 N 0.14075 0.26068 0.88767 0.0
N276 N 0.17885 0.22227 0.88524 0.0
C277 C 0.1454 0.20519 0.86888 0.0
H278 H 0.19841 0.27701 0.91038 0.0
H279 H 0.09445 0.22459 0.85888 0.0
C280 C 0.10608 0.32054 0.93658 0.0
N281 N 0.09916 0.4107 0.89751 0.0
C282 C 0.12765 0.45676 0.89534 0.0
C283 C 0.06128 0.40596 0.90856 0.0
N284 N 0.10946 0.48073 0.90512 0.0
C285 C 0.06758 0.44895 0.91331 0.0
C286 C 0.03495 0.27669 0.88754 0.0
O287 O 0.11896 0.29563 0.92566 0.0
O288 O 0.10487 0.35275 0.92552 0.0
O289 O 0.04746 0.31934 0.8889 0.0
O290 O 0.06507 0.26462 0.88826 0.0
O291 O 0.11988 0.37541 0.86042 0.0
H292 H 0.03226 0.37346 0.91431 0.0
H293 H 0.1624 0.47256 0.8883 0.0
O294 O 0.13433 0.31847 0.85881 0.0
O295 O 0.1913 0.34998 0.89606 0.0
O296 O 0.17792 0.40743 0.89738 0.0
C297 C 0.2066 0.39305 0.89759 0.0
H298 H 0.13906 0.17813 0.85645 0.0
H299 H 0.04405 0.45634 0.92286 0.0
Co300 Co 0.25517 0.89739 0.63692 0.0
C301 C 0.22018 0.90206 0.59386 0.0
Co302 Co 0.18163 0.87667 0.63867 0.0
C303 C 0.33691 0.89046 0.62639 0.0
C304 C 0.35169 0.94856 0.64806 0.0
N305 N 0.31721 0.91338 0.63605 0.0
N306 N 0.38205 0.90964 0.63224 0.0
C307 C 0.3914 0.94633 0.64578 0.0
H308 H 0.31797 0.85889 0.61635 0.0
H309 H 0.34773 0.97311 0.6587 0.0
C310 C 0.21922 0.87646 0.68211 0.0
N311 N 0.12009 0.86115 0.64101 0.0
C312 C 0.08191 0.83007 0.62916 0.0
C313 C 0.10429 0.87904 0.65739 0.0
N314 N 0.04343 0.82843 0.63765 0.0
C315 C 0.0573 0.85913 0.65529 0.0
C316 C 0.19354 0.8025 0.63169 0.0
O317 O 0.25641 0.89406 0.67027 0.0
O318 O 0.1812 0.86367 0.67158 0.0
O319 O 0.16368 0.81518 0.63158 0.0
O320 O 0.23602 0.83251 0.63485 0.0
O321 O 0.18371 0.89113 0.60578 0.0
H322 H 0.12554 0.90442 0.67041 0.0
H323 H 0.08218 0.80875 0.61494 0.0
O324 O 0.25413 0.90194 0.60384 0.0
O325 O 0.27233 0.96166 0.63857 0.0
O326 O 0.19938 0.93813 0.64544 0.0
C327 C 0.24055 0.97082 0.64303 0.0
H328 H 0.42435 0.96924 0.65399 0.0
H329 H 0.03478 0.86603 0.66608 0.0
Co330 Co 0.67783 0.82567 0.89119 0.0
C331 C 0.64806 0.79178 0.84485 0.0
Co332 Co 0.64325 0.74989 0.88675 0.0
C333 C 0.74639 0.92538 0.89789 0.0
C334 C 0.68046 0.91055 0.88477 0.0
N335 N 0.70385 0.88989 0.89231 0.0
N336 N 0.74984 0.9671 0.89429 0.0
C337 C 0.70825 0.95746 0.88603 0.0
H338 H 0.77435 0.9207 0.90403 0.0
H339 H 0.64562 0.89265 0.87788 0.0
C340 C 0.6767 0.7814 0.9324 0.0
N341 N 0.61275 0.68544 0.88534 0.0
C342 C 0.56812 0.65787 0.87888 0.0
C343 C 0.62398 0.65706 0.89663 0.0
N344 N 0.55037 0.61409 0.88661 0.0
C345 C 0.58558 0.61329 0.89763 0.0
C346 C 0.73817 0.79637 0.87997 0.0
O347 O 0.69245 0.82212 0.92405 0.0
O348 O 0.65171 0.7469 0.91934 0.0
O349 O 0.70273 0.75583 0.88147 0.0
O350 O 0.73374 0.83156 0.88263 0.0
O351 O 0.63619 0.75295 0.85418 0.0
H352 H 0.65646 0.66836 0.90556 0.0
H353 H 0.54741 0.67071 0.87091 0.0
O354 O 0.664 0.82749 0.85796 0.0
O355 O 0.62153 0.81959 0.90019 0.0
O356 O 0.58472 0.74591 0.89208 0.0
C357 C 0.58413 0.78169 0.89866 0.0
H358 H 0.69905 0.98255 0.88021 0.0
H359 H 0.58286 0.58406 0.90718 0.0
C360 C 0.00255 0.19213 0.14998 0.0
C361 C 0.99989 0.23099 0.14351 0.0
C362 C 0.04503 0.19364 0.15041 0.0
C363 C 0.08577 0.23496 0.14392 0.0
C364 C 0.08354 0.2748 0.138 0.0
C365 C 0.04045 0.2724 0.13797 0.0
C366 C 0.04606 0.15056 0.15728 0.0
C367 C 0.12613 0.31921 0.13073 0.0
C368 C 0.18801 0.2296 0.1664 0.0
C369 C 0.19562 0.20702 0.14771 0.0
C370 C 0.15551 0.24396 0.16456 0.0
C371 C 0.13021 0.23538 0.14349 0.0
C372 C 0.14203 0.21795 0.1236 0.0
C373 C 0.17485 0.20386 0.12596 0.0
C374 C 0.14455 0.26319 0.18604 0.0
C375 C 0.11649 0.20941 0.10064 0.0
H376 H 0.97116 0.16014 0.15425 0.0
H377 H 0.03829 0.3023 0.13256 0.0
H378 H 0.05888 0.1388 0.14234 0.0
H379 H 0.07018 0.15815 0.17218 0.0
H380 H 0.01142 0.12177 0.16247 0.0
H381 H 0.11975 0.3487 0.13021 0.0
H382 H 0.15528 0.32785 0.14286 0.0
H383 H 0.13703 0.31487 0.11295 0.0
H384 H 0.20504 0.23283 0.18306 0.0
H385 H 0.18106 0.1866 0.11151 0.0
H386 H 0.1121 0.23572 0.19416 0.0
H387 H 0.13905 0.29216 0.18126 0.0
H388 H 0.17252 0.27553 0.19936 0.0
H389 H 0.0819 0.17787 0.10225 0.0
H390 H 0.13529 0.20427 0.08593 0.0
H391 H 0.11111 0.23864 0.09629 0.0
C392 C 0.12268 0.88206 0.36171 0.0
C393 C 0.14532 0.92586 0.37221 0.0
C394 C 0.07448 0.85378 0.3632 0.0
C395 C 0.04847 0.86938 0.37584 0.0
C396 C 0.0708 0.914 0.38588 0.0
C397 C 0.11884 0.94187 0.38372 0.0
C398 C 0.05155 0.80661 0.35185 0.0
C399 C 0.04426 0.93169 0.39967 0.0
C400 C 0.91834 0.80253 0.36753 0.0
C401 C 0.90499 0.76966 0.3855 0.0
C402 C 0.96501 0.83627 0.36445 0.0
C403 C 0.9985 0.83752 0.38009 0.0
C404 C 0.98455 0.80634 0.39922 0.0
C405 C 0.93796 0.77235 0.40151 0.0
C406 C 0.97872 0.86859 0.34368 0.0
C407 C 0.01907 0.8076 0.41671 0.0
H408 H 0.14266 0.86936 0.3528 0.0
H409 H 0.13549 0.97619 0.39122 0.0
H410 H 0.03736 0.77948 0.36563 0.0
H411 H 0.02216 0.80166 0.34076 0.0
H412 H 0.07597 0.80146 0.3408 0.0
H413 H 0.06625 0.96856 0.40475 0.0
H414 H 0.0145 0.92792 0.38933 0.0
H415 H 0.03008 0.91079 0.41588 0.0
H416 H 0.89276 0.80016 0.35506 0.0
H417 H 0.92743 0.74707 0.41553 0.0
H418 H 0.99781 0.85956 0.33079 0.0
H419 H 0.00224 0.90483 0.3492 0.0
H420 H 0.94824 0.86654 0.33476 0.0
H421 H 0.04226 0.79753 0.4079 0.0
H422 H 0.002 0.78386 0.43177 0.0
H423 H 0.04103 0.84318 0.42359 0.0
C424 C 0.81406 0.97008 0.10981 0.0
C425 C 0.81269 1.00015 0.12647 0.0
C426 C 0.80692 0.92672 0.1163 0.0
C427 C 0.79801 0.91285 0.14013 0.0
C428 C 0.7966 0.943 0.15714 0.0
C429 C 0.80427 0.9866 0.1501 0.0
C430 C 0.80943 0.89596 0.09759 0.0
C431 C 0.78676 0.92909 0.18264 0.0
C432 C 0.74678 0.78354 0.14371 0.0
C433 C 0.78709 0.78092 0.14581 0.0
C434 C 0.74897 0.82655 0.14423 0.0
C435 C 0.79243 0.86748 0.14687 0.0
C436 C 0.83231 0.8644 0.15145 0.0
C437 C 0.82912 0.82112 0.15088 0.0
C438 C 0.70554 0.8284 0.13965 0.0
C439 C 0.87931 0.90707 0.15444 0.0
H440 H 0.82133 0.98081 0.09161 0.0
H441 H 0.80277 0.0097 0.16294 0.0
H442 H 0.83737 0.88852 0.10186 0.0
H443 H 0.77649 0.86243 0.09702 0.0
H444 H 0.81619 0.91184 0.07983 0.0
H445 H 0.78644 0.95635 0.19363 0.0
H446 H 0.75276 0.89688 0.18432 0.0
H447 H 0.81321 0.92163 0.18967 0.0
H448 H 0.71414 0.75253 0.13995 0.0
H449 H 0.8603 0.81917 0.15296 0.0
H450 H 0.70541 0.83849 0.12109 0.0
H451 H 0.7042 0.85469 0.15096 0.0
H452 H 0.67391 0.79437 0.14273 0.0
H453 H 0.89206 0.92386 0.13708 0.0
H454 H 0.90498 0.8987 0.16176 0.0
H455 H 0.87731 0.93248 0.16614 0.0
C456 C 0.25297 0.19216 0.39322 0.0
C457 C 0.23825 0.14496 0.39096 0.0
C458 C 0.22286 0.20893 0.38888 0.0
C459 C 0.1766 0.17777 0.38232 0.0
C460 C 0.16126 0.12998 0.38019 0.0
C461 C 0.19237 0.11414 0.38442 0.0
C462 C 0.24068 0.26013 0.39125 0.0
C463 C 0.11199 0.09561 0.3735 0.0
C464 C 0.08936 0.21646 0.39342 0.0
C465 C 0.08384 0.23022 0.37093 0.0
C466 C 0.11896 0.19887 0.39729 0.0
C467 C 0.14421 0.19535 0.37824 0.0
C468 C 0.13968 0.21012 0.35557 0.0
C469 C 0.10951 0.22738 0.35218 0.0
C470 C 0.12299 0.18383 0.42176 0.0
C471 C 0.16642 0.20733 0.33488 0.0
H472 H 0.28844 0.21636 0.3981 0.0
H473 H 0.18077 0.07766 0.38261 0.0
H474 H 0.23602 0.27407 0.37445 0.0
H475 H 0.22056 0.2662 0.40485 0.0
H476 H 0.27786 0.27986 0.39612 0.0
H477 H 0.10539 0.05962 0.37281 0.0
H478 H 0.0878 0.09706 0.38636 0.0
H479 H 0.10401 0.10465 0.35606 0.0
H480 H 0.07029 0.21932 0.40809 0.0
H481 H 0.1051 0.23746 0.33474 0.0
H482 H 0.15927 0.20429 0.42793 0.0
H483 H 0.11365 0.147 0.42161 0.0
H484 H 0.10033 0.18808 0.43458 0.0
H485 H 0.20408 0.22771 0.3385 0.0
H486 H 0.15924 0.22042 0.31843 0.0
H487 H 0.1575 0.17097 0.33208 0.0
C488 C 0.23203 0.95325 0.14617 0.0
C489 C 0.23371 0.99096 0.15778 0.0
C490 C 0.18964 0.91182 0.14325 0.0
C491 C 0.14835 0.90863 0.15192 0.0
C492 C 0.15094 0.94487 0.16584 0.0
C493 C 0.19366 0.98537 0.16877 0.0
C494 C 0.18854 0.87341 0.12891 0.0
C495 C 0.108 0.94345 0.17522 0.0
C496 C 0.04161 0.84871 0.11357 0.0
C497 C 0.01258 0.80918 0.1267 0.0
C498 C 0.08608 0.88077 0.12145 0.0
C499 C 0.10246 0.87255 0.14281 0.0
C500 C 0.07365 0.83202 0.15593 0.0
C501 C 0.02863 0.80106 0.14787 0.0
C502 C 0.11511 0.92397 0.10709 0.0
C503 C 0.0905 0.82134 0.17832 0.0
H504 H 0.26286 0.95737 0.13762 0.0
H505 H 0.19495 0.01434 0.17799 0.0
H506 H 0.16302 0.8391 0.13619 0.0
H507 H 0.17798 0.87521 0.11066 0.0
H508 H 0.22306 0.87625 0.12824 0.0
H509 H 0.11635 0.97109 0.18837 0.0
H510 H 0.08915 0.94819 0.16045 0.0
H511 H 0.08432 0.90956 0.18343 0.0
H512 H 0.02897 0.85491 0.09725 0.0
H513 H 0.00629 0.77 0.15777 0.0
H514 H 0.14789 0.9259 0.10169 0.0
H515 H 0.1243 0.95507 0.11786 0.0
H516 H 0.09696 0.92526 0.09103 0.0
H517 H 0.12313 0.82129 0.1749 0.0
H518 H 0.06471 0.78733 0.18584 0.0
H519 H 0.09832 0.84853 0.1916 0.0
C520 C 0.75256 0.85952 0.35141 0.0
C521 C 0.77268 0.83556 0.36128 0.0
C522 C 0.77349 0.90768 0.35396 0.0
C523 C 0.81534 0.93216 0.36676 0.0
C524 C 0.83672 0.90839 0.37593 0.0
C525 C 0.81534 0.86051 0.37292 0.0
C526 C 0.75008 0.93214 0.34364 0.0
C527 C 0.88126 0.93316 0.38972 0.0
C528 C 0.88371 0.06333 0.36276 0.0
C529 C 0.86601 0.07539 0.38207 0.0
C530 C 0.86794 0.01669 0.35759 0.0
C531 C 0.83452 0.98178 0.37239 0.0
C532 C 0.81854 0.99412 0.3926 0.0
C533 C 0.83415 0.04078 0.39706 0.0
C534 C 0.88538 0.00472 0.33576 0.0
C535 C 0.78385 0.95799 0.40917 0.0
H536 H 0.71987 0.84044 0.34227 0.0
H537 H 0.83217 0.84262 0.37983 0.0
H538 H 0.73751 0.94542 0.358 0.0
H539 H 0.77509 0.96233 0.33306 0.0
H540 H 0.72023 0.90899 0.33233 0.0
H541 H 0.8953 0.91024 0.39405 0.0
H542 H 0.90784 0.96334 0.37972 0.0
H543 H 0.87512 0.9465 0.40637 0.0
H544 H 0.90791 0.09014 0.35101 0.0
H545 H 0.8206 0.05021 0.41205 0.0
H546 H 0.8565 0.98656 0.32312 0.0
H547 H 0.89819 0.98083 0.34009 0.0
H548 H 0.91362 0.03586 0.32703 0.0
H549 H 0.75072 0.93618 0.39983 0.0
H550 H 0.77693 0.97355 0.42477 0.0
H551 H 0.79654 0.9349 0.41528 0.0
C552 C 0.24711 0.03177 0.61659 0.0
C553 C 0.24711 0.0171 0.63962 0.0
C554 C 0.23745 0.06723 0.61196 0.0
C555 C 0.22876 0.08918 0.63093 0.0
C556 C 0.2316 0.07625 0.65433 0.0
C557 C 0.23972 0.03956 0.65837 0.0
C558 C 0.23341 0.07881 0.58678 0.0
C559 C 0.22419 0.09988 0.67508 0.0
C560 C 0.24059 0.20692 0.62337 0.0
C561 C 0.19445 0.19661 0.62505 0.0
C562 C 0.25214 0.17221 0.62448 0.0
C563 C 0.21658 0.12562 0.62651 0.0
C564 C 0.16966 0.11449 0.62604 0.0
C565 C 0.15908 0.15025 0.62552 0.0
C566 C 0.30256 0.18574 0.625 0.0
C567 C 0.13073 0.06496 0.62726 0.0
H568 H 0.25114 0.01306 0.60209 0.0
H569 H 0.23835 0.02711 0.67611 0.0
H570 H 0.19654 0.06622 0.58268 0.0
H571 H 0.2527 0.11671 0.58389 0.0
H572 H 0.24648 0.06253 0.5743 0.0
H573 H 0.23123 0.08829 0.69207 0.0
H574 H 0.247 0.13791 0.67364 0.0
H575 H 0.18795 0.09249 0.67522 0.0
H576 H 0.26806 0.24265 0.62225 0.0
H577 H 0.12343 0.14206 0.62671 0.0
H578 H 0.30979 0.16633 0.6115 0.0
H579 H 0.31089 0.17667 0.64236 0.0
H580 H 0.32596 0.22332 0.62196 0.0
H581 H 0.13642 0.04351 0.61432 0.0
H582 H 0.09656 0.06174 0.62381 0.0
H583 H 0.12985 0.05069 0.64496 0.0
C584 C 0.99267 0.83506 0.86787 0.0
C585 C 0.01367 0.84605 0.89001 0.0
C586 C 0.94901 0.82989 0.86448 0.0
C587 C 0.92594 0.8357 0.88382 0.0
C588 C 0.94831 0.84977 0.90592 0.0
C589 C 0.99233 0.85497 0.90873 0.0
C590 C 0.92653 0.81548 0.84061 0.0
C591 C 0.92466 0.85658 0.92686 0.0
C592 C 0.82189 0.84862 0.87269 0.0
C593 C 0.78532 0.804 0.87781 0.0
C594 C 0.86788 0.85935 0.87435 0.0
C595 C 0.87746 0.82453 0.88118 0.0
C596 C 0.84077 0.77892 0.88544 0.0
C597 C 0.79491 0.76912 0.88365 0.0
C598 C 0.90615 0.90823 0.86949 0.0
C599 C 0.84999 0.74089 0.8926 0.0
H600 H 0.00972 0.82833 0.85348 0.0
H601 H 0.00876 0.86298 0.92583 0.0
H602 H 0.89659 0.77975 0.84158 0.0
H603 H 0.91316 0.83827 0.83498 0.0
H604 H 0.95085 0.8165 0.82699 0.0
H605 H 0.9482 0.87122 0.94218 0.0
H606 H 0.91133 0.87993 0.92228 0.0
H607 H 0.89453 0.82288 0.93209 0.0
H608 H 0.81461 0.87572 0.86803 0.0
H609 H 0.76674 0.73475 0.88778 0.0
H610 H 0.92961 0.90832 0.85568 0.0
H611 H 0.92719 0.92324 0.88557 0.0
H612 H 0.89269 0.93094 0.86374 0.0
H613 H 0.87207 0.73708 0.87927 0.0
H614 H 0.81762 0.70707 0.8947 0.0
H615 H 0.86912 0.74999 0.90948 0.0
C616 C 0.8414 0.0262 0.60395 0.0
C617 C 0.8107 0.99398 0.62026 0.0
C618 C 0.86909 0.07285 0.60987 0.0
C619 C 0.86551 0.08786 0.63263 0.0
C620 C 0.83127 0.05647 0.64837 0.0
C621 C 0.80433 0.00964 0.64204 0.0
C622 C 0.90487 0.10517 0.5924 0.0
C623 C 0.82535 0.07148 0.67248 0.0
C624 C 0.98359 0.18069 0.65188 0.0
C625 C 0.98391 0.22068 0.64435 0.0
C626 C 0.94365 0.13725 0.65013 0.0
C627 C 0.90281 0.13376 0.64083 0.0
C628 C 0.90148 0.17444 0.63566 0.0
C629 C 0.94229 0.21765 0.63737 0.0
C630 C 0.94667 0.09484 0.65602 0.0
C631 C 0.85819 0.17223 0.62644 0.0
H632 H 0.84531 0.01445 0.58683 0.0
H633 H 0.7804 0.98497 0.65467 0.0
H634 H 0.90296 0.13708 0.59033 0.0
H635 H 0.94 0.11554 0.59896 0.0
H636 H 0.90051 0.08898 0.57484 0.0
H637 H 0.79092 0.04694 0.68007 0.0
H638 H 0.85223 0.07289 0.6844 0.0
H639 H 0.82956 0.10652 0.67193 0.0
H640 H 0.01547 0.18292 0.65775 0.0
H641 H 0.94218 0.24852 0.63174 0.0
H642 H 0.94506 0.07625 0.63957 0.0
H643 H 0.91709 0.07079 0.66719 0.0
H644 H 0.97928 0.10365 0.6653 0.0
H645 H 0.85526 0.165 0.6073 0.0
H646 H 0.85895 0.20546 0.62916 0.0
H647 H 0.82688 0.14406 0.63505 0.0
C648 C 0.21248 0.18796 0.91048 0.0
C649 C 0.21147 0.20734 0.88894 0.0
C650 C 0.23155 0.15917 0.91204 0.0
C651 C 0.24997 0.15036 0.89154 0.0
C652 C 0.25557 0.17598 0.87084 0.0
C653 C 0.2355 0.2038 0.86968 0.0
C654 C 0.22592 0.13321 0.9346 0.0
C655 C 0.27678 0.16903 0.84894 0.0
C656 C 0.28608 0.05966 0.8955 0.0
C657 C 0.24441 0.01974 0.88958 0.0
C658 C 0.28936 0.10316 0.89556 0.0
C659 C 0.24995 0.10628 0.88971 0.0
C660 C 0.20856 0.06625 0.88264 0.0
C661 C 0.20643 0.02359 0.88261 0.0
C662 C 0.33417 0.14507 0.90292 0.0
C663 C 0.16574 0.068 0.87593 0.0
H664 H 0.19401 0.19124 0.92533 0.0
H665 H 0.23516 0.21974 0.85317 0.0
H666 H 0.19599 0.09757 0.93293 0.0
H667 H 0.25703 0.13052 0.9382 0.0
H668 H 0.21956 0.15009 0.94981 0.0
H669 H 0.28852 0.19861 0.83663 0.0
H670 H 0.30656 0.16453 0.85335 0.0
H671 H 0.25059 0.13727 0.8398 0.0
H672 H 0.3155 0.05673 0.901 0.0
H673 H 0.17433 0.99286 0.87776 0.0
H674 H 0.33206 0.15214 0.92179 0.0
H675 H 0.34091 0.1762 0.89282 0.0
H676 H 0.36394 0.13944 0.90061 0.0
H677 H 0.15419 0.08083 0.89095 0.0
H678 H 0.13661 0.03362 0.87069 0.0
H679 H 0.17353 0.09226 0.86106 0.0
C680 C 0.97602 0.81883 0.61647 0.0
C681 C 0.99635 0.79985 0.63058 0.0
C682 C 0.9278 0.79853 0.6154 0.0
C683 C 0.8995 0.75858 0.62904 0.0
C684 C 0.91994 0.7368 0.64148 0.0
C685 C 0.96838 0.758 0.64223 0.0
C686 C 0.90755 0.82275 0.6017 0.0
C687 C 0.8911 0.69386 0.6559 0.0
C688 C 0.79904 0.76681 0.65333 0.0
C689 C 0.7641 0.74012 0.63726 0.0
C690 C 0.84218 0.7697 0.65206 0.0
C691 C 0.85081 0.74602 0.63391 0.0
C692 C 0.81431 0.716 0.61878 0.0
C693 C 0.77107 0.71328 0.6207 0.0
C694 C 0.87975 0.80155 0.66884 0.0
C695 C 0.82195 0.69009 0.59927 0.0
H696 H 0.99806 0.85162 0.60783 0.0
H697 H 0.98453 0.74396 0.6534 0.0
H698 H 0.87712 0.79749 0.5914 0.0
H699 H 0.89562 0.8402 0.6141 0.0
H700 H 0.9332 0.84918 0.58952 0.0
H701 H 0.91044 0.67586 0.66015 0.0
H702 H 0.88114 0.70354 0.67264 0.0
H703 H 0.8588 0.66952 0.64653 0.0
H704 H 0.79353 0.78784 0.66596 0.0
H705 H 0.74418 0.69335 0.60798 0.0
H706 H 0.9061 0.83251 0.65919 0.0
H707 H 0.89744 0.78408 0.67645 0.0
H708 H 0.86603 0.81323 0.68344 0.0
H709 H 0.83926 0.71393 0.58431 0.0
H710 H 0.78874 0.66074 0.59285 0.0
H711 H 0.84467 0.67674 0.60508 0.0
C712 C 0.96107 0.21768 0.86948 0.0
C713 C 0.98652 0.23993 0.88959 0.0
C714 C 0.92053 0.17422 0.87114 0.0
C715 C 0.90612 0.15227 0.89336 0.0
C716 C 0.93105 0.17563 0.91379 0.0
C717 C 0.97081 0.21937 0.91164 0.0
C718 C 0.89453 0.15073 0.849 0.0
C719 C 0.91726 0.15344 0.93776 0.0
C720 C 0.78365 0.05114 0.89976 0.0
C721 C 0.78972 0.01294 0.89637 0.0
C722 C 0.82115 0.09654 0.89898 0.0
C723 C 0.86617 0.10417 0.89512 0.0
C724 C 0.87297 0.06583 0.8927 0.0
C725 C 0.83463 0.02064 0.89328 0.0
C726 C 0.81237 0.13635 0.90164 0.0
C727 C 0.92066 0.07257 0.88901 0.0
H728 H 0.9742 0.23312 0.8524 0.0
H729 H 0.99148 0.23626 0.92708 0.0
H730 H 0.89763 0.11981 0.84551 0.0
H731 H 0.85719 0.1387 0.85116 0.0
H732 H 0.90783 0.17395 0.83347 0.0
H733 H 0.94218 0.17507 0.95158 0.0
H734 H 0.88255 0.14754 0.94251 0.0
H735 H 0.91501 0.11924 0.93759 0.0
H736 H 0.74926 0.04558 0.90271 0.0
H737 H 0.83968 0.99149 0.89054 0.0
H738 H 0.8236 0.15786 0.8855 0.0
H739 H 0.83298 0.15886 0.91643 0.0
H740 H 0.7753 0.12452 0.90486 0.0
H741 H 0.93534 0.09119 0.87225 0.0
H742 H 0.92037 0.03926 0.88849 0.0
H743 H 0.94408 0.0942 0.90332 0.0
C744 C 0.40136 0.18814 0.32215 0.0
C745 C 0.36722 0.14422 0.32988 0.0
C746 C 0.40963 0.19785 0.29788 0.0
C747 C 0.38289 0.16291 0.28121 0.0
C748 C 0.34881 0.11861 0.28907 0.0
C749 C 0.3416 0.10991 0.31312 0.0
C750 C 0.44657 0.24534 0.29007 0.0
C751 C 0.31906 0.08023 0.27207 0.0
C752 C 0.35114 0.17726 0.21967 0.0
C753 C 0.37365 0.15901 0.20643 0.0
C754 C 0.35784 0.18373 0.244 0.0
C755 C 0.38792 0.17179 0.25542 0.0
C756 C 0.4142 0.15773 0.24182 0.0
C757 C 0.40659 0.15127 0.21747 0.0
C758 C 0.32894 0.19867 0.25771 0.0
C759 C 0.44716 0.14533 0.25324 0.0
H760 H 0.42138 0.21476 0.33496 0.0
H761 H 0.3151 0.07574 0.31872 0.0
H762 H 0.47172 0.2426 0.27845 0.0
H763 H 0.4308 0.26186 0.27967 0.0
H764 H 0.46549 0.26813 0.30515 0.0
H765 H 0.29432 0.04761 0.28115 0.0
H766 H 0.29902 0.09094 0.26084 0.0
H767 H 0.34115 0.07302 0.26034 0.0
H768 H 0.32619 0.18418 0.21127 0.0
H769 H 0.42478 0.13795 0.20733 0.0
H770 H 0.34965 0.22356 0.27171 0.0
H771 H 0.29993 0.16802 0.26633 0.0
H772 H 0.31416 0.21478 0.2462 0.0
H773 H 0.46691 0.16996 0.26753 0.0
H774 H 0.47189 0.14497 0.24032 0.0
H775 H 0.42719 0.11038 0.26117 0.0
C776 C 0.82181 0.61659 0.30595 0.0
C777 C 0.80815 0.64696 0.31489 0.0
C778 C 0.82782 0.61389 0.28149 0.0
C779 C 0.81994 0.64214 0.26574 0.0
C780 C 0.80807 0.67407 0.27491 0.0
C781 C 0.80249 0.6761 0.29917 0.0
C782 C 0.84103 0.57978 0.27245 0.0
C783 C 0.79934 0.70505 0.25901 0.0
C784 C 0.85519 0.66919 0.2015 0.0
C785 C 0.8124 0.64254 0.19025 0.0
C786 C 0.8594 0.66646 0.22603 0.0
C787 C 0.81991 0.63651 0.23963 0.0
C788 C 0.77766 0.60696 0.22805 0.0
C789 C 0.77445 0.61032 0.20361 0.0
C790 C 0.90528 0.69815 0.23754 0.0
C791 C 0.73461 0.57442 0.24168 0.0
H792 H 0.8265 0.59413 0.31792 0.0
H793 H 0.79272 0.70036 0.30578 0.0
H794 H 0.81088 0.55084 0.26354 0.0
H795 H 0.86921 0.59638 0.25927 0.0
H796 H 0.85238 0.56532 0.28682 0.0
H797 H 0.79247 0.72948 0.269 0.0
H798 H 0.82956 0.72537 0.24737 0.0
H799 H 0.76908 0.68367 0.24759 0.0
H800 H 0.88485 0.69393 0.19136 0.0
H801 H 0.74136 0.58897 0.19511 0.0
H802 H 0.91264 0.67971 0.25154 0.0
H803 H 0.90407 0.72745 0.24591 0.0
H804 H 0.93415 0.71241 0.22464 0.0
H805 H 0.74229 0.55487 0.25488 0.0
H806 H 0.70646 0.54941 0.23004 0.0
H807 H 0.72191 0.5947 0.25131 0.0
C808 C 0.81881 0.15116 0.2041 0.0
C809 C 0.83447 0.19439 0.19346 0.0
C810 C 0.81328 0.14576 0.22867 0.0
C811 C 0.82371 0.18449 0.24299 0.0
C812 C 0.83618 0.2273 0.23215 0.0
C813 C 0.8414 0.23171 0.20761 0.0
C814 C 0.79954 0.09938 0.23938 0.0
C815 C 0.84763 0.26957 0.24659 0.0
C816 C 0.80309 0.17536 0.30971 0.0
C817 C 0.84725 0.18765 0.31807 0.0
C818 C 0.79416 0.17288 0.28528 0.0
C819 C 0.83018 0.18283 0.26896 0.0
C820 C 0.87427 0.19387 0.27744 0.0
C821 C 0.88213 0.19608 0.30168 0.0
C822 C 0.74661 0.16071 0.27694 0.0
C823 C 0.91384 0.20464 0.26089 0.0
H824 H 0.81302 0.12196 0.19337 0.0
H825 H 0.85296 0.26518 0.19963 0.0
H826 H 0.83042 0.1006 0.24729 0.0
H827 H 0.77381 0.09088 0.25362 0.0
H828 H 0.78484 0.07125 0.22611 0.0
H829 H 0.85018 0.2982 0.23562 0.0
H830 H 0.82111 0.2611 0.26039 0.0
H831 H 0.88128 0.28192 0.25556 0.0
H832 H 0.77589 0.16865 0.32217 0.0
H833 H 0.91632 0.20503 0.30777 0.0
H834 H 0.73388 0.13264 0.26369 0.0
H835 H 0.74828 0.19118 0.26827 0.0
H836 H 0.72128 0.14959 0.29161 0.0
H837 H 0.90382 0.17555 0.2485 0.0
H838 H 0.94561 0.21114 0.27032 0.0
H839 H 0.92221 0.23571 0.25029 0.0
C840 C 0.16768 0.3618 0.70847 0.0
C841 C 0.12985 0.36076 0.69733 0.0
C842 C 0.17159 0.36395 0.7331 0.0
C843 C 0.1359 0.36316 0.74689 0.0
C844 C 0.09788 0.36259 0.73565 0.0
C845 C 0.09576 0.36223 0.71101 0.0
C846 C 0.21346 0.36618 0.74437 0.0
C847 C 0.05834 0.36021 0.74963 0.0
C848 C 0.11753 0.31384 0.80873 0.0
C849 C 0.13321 0.35356 0.82256 0.0
C850 C 0.11828 0.31652 0.7841 0.0
C851 C 0.13677 0.36022 0.77303 0.0
C852 C 0.15417 0.40065 0.78698 0.0
C853 C 0.15133 0.39674 0.81161 0.0
C854 C 0.09796 0.27243 0.76994 0.0
C855 C 0.17563 0.44797 0.77589 0.0
H856 H 0.19415 0.36083 0.6979 0.0
H857 H 0.06617 0.36086 0.70245 0.0
H858 H 0.22884 0.39465 0.75742 0.0
H859 H 0.20308 0.33353 0.75393 0.0
H860 H 0.24034 0.37162 0.73124 0.0
H861 H 0.03162 0.36056 0.73823 0.0
H862 H 0.04176 0.32809 0.76031 0.0
H863 H 0.07134 0.38973 0.76199 0.0
H864 H 0.10318 0.28038 0.8172 0.0
H865 H 0.16384 0.42752 0.82234 0.0
H866 H 0.12448 0.27317 0.75797 0.0
H867 H 0.06928 0.26932 0.75885 0.0
H868 H 0.08445 0.24122 0.78125 0.0
H869 H 0.20306 0.45277 0.7633 0.0
H870 H 0.19091 0.47609 0.78916 0.0
H871 H 0.14912 0.45129 0.76581 0.0
C872 C 0.25152 0.85938 0.82148 0.0
C873 C 0.22379 0.87303 0.83346 0.0
C874 C 0.25035 0.85623 0.79677 0.0
C875 C 0.22239 0.86908 0.7838 0.0
C876 C 0.19472 0.88332 0.79594 0.0
C877 C 0.19507 0.8842 0.82059 0.0
C878 C 0.27899 0.8392 0.78455 0.0
C879 C 0.16579 0.89906 0.7829 0.0
C880 C 0.25594 0.91 0.72066 0.0
C881 C 0.22079 0.8733 0.70796 0.0
C882 C 0.25698 0.90898 0.74532 0.0
C883 C 0.22314 0.86942 0.75754 0.0
C884 C 0.18854 0.83148 0.74467 0.0
C885 C 0.18716 0.83431 0.72003 0.0
C886 C 0.29332 0.95095 0.7583 0.0
C887 C 0.15287 0.78802 0.75692 0.0
H888 H 0.27358 0.85055 0.83144 0.0
H889 H 0.174 0.89532 0.82984 0.0
H890 H 0.25695 0.8105 0.77241 0.0
H891 H 0.30631 0.86735 0.7738 0.0
H892 H 0.29575 0.8269 0.79717 0.0
H893 H 0.14709 0.91015 0.79496 0.0
H894 H 0.18822 0.92842 0.77116 0.0
H895 H 0.14007 0.87076 0.77164 0.0
H896 H 0.28175 0.94031 0.7113 0.0
H897 H 0.16022 0.80576 0.71016 0.0
H898 H 0.3142 0.94142 0.76959 0.0
H899 H 0.27637 0.96454 0.77001 0.0
H900 H 0.317 0.979 0.7462 0.0
H901 H 0.17009 0.77541 0.76903 0.0
H902 H 0.13133 0.76002 0.7443 0.0
H903 H 0.12975 0.79548 0.76768 0.0
C904 C 0.61716 0.77338 0.70495 0.0
C905 C 0.65951 0.79893 0.69316 0.0
C906 C 0.61394 0.77671 0.72944 0.0
C907 C 0.65436 0.80502 0.74269 0.0
C908 C 0.69707 0.83187 0.73077 0.0
C909 C 0.69898 0.82905 0.70611 0.0
C910 C 0.56745 0.74852 0.74122 0.0
C911 C 0.74127 0.86146 0.74416 0.0
C912 C 0.64511 0.83101 0.80747 0.0
C913 C 0.64823 0.79547 0.81879 0.0
C914 C 0.64645 0.8344 0.78271 0.0
C915 C 0.65268 0.80249 0.76901 0.0
C916 C 0.65661 0.7671 0.78049 0.0
C917 C 0.65362 0.76364 0.80509 0.0
C918 C 0.64069 0.87174 0.77118 0.0
C919 C 0.66448 0.73301 0.76679 0.0
H920 H 0.58645 0.75033 0.69498 0.0
H921 H 0.73185 0.8486 0.69709 0.0
H922 H 0.56681 0.71994 0.75137 0.0
H923 H 0.56131 0.77021 0.75379 0.0
H924 H 0.53866 0.73335 0.72832 0.0
H925 H 0.77088 0.88292 0.73231 0.0
H926 H 0.73693 0.88456 0.75655 0.0
H927 H 0.7498 0.83895 0.75477 0.0
H928 H 0.64095 0.85572 0.81795 0.0
H929 H 0.65677 0.73646 0.81368 0.0
H930 H 0.61074 0.85591 0.75901 0.0
H931 H 0.67173 0.89458 0.76053 0.0
H932 H 0.63517 0.89322 0.7842 0.0
H933 H 0.63459 0.71212 0.7551 0.0
H934 H 0.6693 0.70912 0.77841 0.0
H935 H 0.69554 0.75174 0.75545 0.0
C936 C 0.27473 0.96484 0.97972 0.0
C937 C 0.23056 0.93713 0.96997 0.0
C938 C 0.28114 0.98958 1.00065 0.0
C939 C 0.24244 0.98644 0.01253 0.0
C940 C 0.19758 0.95787 1.0031 0.0
C941 C 0.19218 0.93378 0.98189 0.0
C942 C 0.32963 0.01951 1.00997 0.0
C943 C 0.15535 0.95301 0.01536 0.0
C944 C 0.26634 0.01804 0.07711 0.0
C945 C 0.27763 0.06444 0.0772 0.0
C946 C 0.25182 0.9914 0.05653 0.0
C947 C 0.24943 0.01189 0.03522 0.0
C948 C 0.25872 0.05827 0.03543 0.0
C949 C 0.27241 0.08399 0.05653 0.0
C950 C 0.24148 0.94202 0.05741 0.0
C951 C 0.25674 0.08151 0.01312 0.0
H952 H 0.30477 0.9681 0.97069 0.0
H953 H 0.15793 0.91278 0.9745 0.0
H954 H 0.33739 0.0557 0.01188 0.0
H955 H 0.33256 0.00729 0.02765 0.0
H956 H 0.35618 0.01925 0.99834 0.0
H957 H 0.12283 0.9289 1.00604 0.0
H958 H 0.15339 0.94023 0.03356 0.0
H959 H 0.1579 0.98727 0.01667 0.0
H960 H 0.27005 0.00281 0.0932 0.0
H961 H 0.28133 0.11992 0.05659 0.0
H962 H 0.26908 0.93927 0.04804 0.0
H963 H 0.20833 0.91875 0.04843 0.0
H964 H 0.23945 0.92965 0.07573 0.0
H965 H 0.28526 0.08657 1.00125 0.0
H966 H 0.26004 0.11571 0.01655 0.0
H967 H 0.22378 0.05937 1.00372 0.0
C968 C 0.71687 0.69888 0.44993 0.0
C969 C 0.74511 0.67897 0.44842 0.0
C970 C 0.70454 0.70952 0.47163 0.0
C971 C 0.72093 0.70042 0.49268 0.0
C972 C 0.74905 0.67983 0.49144 0.0
C973 C 0.76067 0.66915 0.46932 0.0
C974 C 0.67427 0.73106 0.47196 0.0
C975 C 0.76741 0.66976 0.51348 0.0
C976 C 0.72396 0.77154 0.54588 0.0
C977 C 0.68361 0.7404 0.55809 0.0
C978 C 0.73706 0.75861 0.52498 0.0
C979 C 0.70905 0.71347 0.5158 0.0
C980 C 0.66811 0.68196 0.52795 0.0
C981 C 0.65601 0.69569 0.54892 0.0
C982 C 0.78098 0.79337 0.51268 0.0
C983 C 0.63691 0.63372 0.51871 0.0
H984 H 0.70425 0.70645 0.43398 0.0
H985 H 0.78253 0.65391 0.4684 0.0
H986 H 0.64288 0.70968 0.48271 0.0
H987 H 0.69314 0.76576 0.48021 0.0
H988 H 0.66332 0.73478 0.45407 0.0
H989 H 0.788 0.65287 0.50966 0.0
H990 H 0.78954 0.70239 0.52315 0.0
H991 H 0.73836 0.64699 0.52529 0.0
H992 H 0.74594 0.80596 0.55288 0.0
H993 H 0.62496 0.67117 0.55825 0.0
H994 H 0.77273 0.80093 0.49495 0.0
H995 H 0.8041 0.77888 0.51028 0.0
H996 H 0.8 0.82636 0.52256 0.0
H997 H 0.6236 0.63545 0.50112 0.0
H998 H 0.607 0.6129 0.5305 0.0
H999 H 0.65672 0.61556 0.51655 0.0
C1000 C 0.05676 0.32747 0.96718 0.0
C1001 C 0.08383 0.3082 0.96023 0.0
C1002 C 0.0299 0.31321 0.98764 0.0
C1003 C 0.03095 0.27974 1.00231 0.0
C1004 C 0.05933 0.26107 0.996 0.0
C1005 C 0.08486 0.27491 0.97478 0.0
C1006 C 0.99946 0.33338 0.99321 0.0
C1007 C 0.0625 0.22638 0.0116 0.0
C1008 C 0.98924 0.28344 0.06399 0.0
C1009 C 0.94349 0.24649 0.06358 0.0
C1010 C 0.01903 0.29257 0.04477 0.0
C1011 C 0.00226 0.26519 0.02422 0.0
C1012 C 0.95611 0.22752 0.02381 0.0
C1013 C 0.92756 0.21804 0.04369 0.0
C1014 C 0.06826 0.33215 0.04633 0.0
C1015 C 0.93631 0.19833 1.00206 0.0
H1016 H 0.055 0.35285 0.95611 0.0
H1017 H 0.10534 0.25961 0.96956 0.0
H1018 H 0.96297 0.30523 0.99512 0.0
H1019 H 0.01003 0.35225 1.01015 0.0
H1020 H 0.00108 0.35761 0.97941 0.0
H1021 H 0.08853 0.21767 1.00515 0.0
H1022 H 0.07178 0.24012 0.02975 0.0
H1023 H 0.02838 0.19417 0.01252 0.0
H1024 H 0.00212 0.30472 0.07962 0.0
H1025 H 0.8924 0.1891 0.04348 0.0
H1026 H 0.07285 0.36068 0.03466 0.0
H1027 H 0.09263 0.32096 0.04028 0.0
H1028 H 0.07775 0.34584 0.0645 0.0
H1029 H 0.9357 0.2201 0.98752 0.0
H1030 H 0.9006 0.16907 1.00488 0.0
H1031 H 0.9585 0.1843 0.99635 0.0
C1032 C 0.25496 0.00442 0.46335 0.0
C1033 C 0.29038 0.05103 0.4623 0.0
C1034 C 0.24118 0.98023 0.48468 0.0
C1035 C 0.26295 0.00303 0.50577 0.0
C1036 C 0.29766 0.05052 0.50506 0.0
C1037 C 0.31101 0.07401 0.48332 0.0
C1038 C 0.20438 0.92966 0.48445 0.0
C1039 C 0.32121 0.07624 0.52724 0.0
C1040 C 0.20193 0.94404 0.56299 0.0
C1041 C 0.22707 0.92291 0.57007 0.0
C1042 C 0.21368 0.97093 0.54238 0.0
C1043 C 0.25093 0.97615 0.52823 0.0
C1044 C 0.27549 0.95376 0.53496 0.0
C1045 C 0.26352 0.92778 0.55583 0.0
C1046 C 0.18658 0.99417 0.53588 0.0
C1047 C 0.31483 0.9576 0.52022 0.0
H1048 H 0.23836 0.98618 0.44731 0.0
H1049 H 0.33825 0.10993 0.48272 0.0
H1050 H 0.21935 0.90853 0.49057 0.0
H1051 H 0.17598 0.92324 0.49672 0.0
H1052 H 0.18945 0.9175 0.46669 0.0
H1053 H 0.34743 0.11298 0.5238 0.0
H1054 H 0.29509 0.07504 0.53966 0.0
H1055 H 0.3384 0.05933 0.53601 0.0
H1056 H 0.17428 0.94124 0.57409 0.0
H1057 H 0.28333 0.91185 0.56122 0.0
H1058 H 0.16696 0.97878 0.51947 0.0
H1059 H 0.21039 0.03148 0.53244 0.0
H1060 H 0.1618 0.99059 0.54987 0.0
H1061 H 0.30236 0.9444 0.50224 0.0
H1062 H 0.33037 0.93799 0.52782 0.0
H1063 H 0.34225 0.9944 0.51851 0.0
C1064 C 0.79388 0.72821 0.04287 0.0
C1065 C 0.76155 0.70622 0.06098 0.0
C1066 C 0.78244 0.74455 0.02255 0.0
C1067 C 0.73803 0.73998 0.02051 0.0
C1068 C 0.70596 0.71927 0.03916 0.0
C1069 C 0.71784 0.70222 0.05892 0.0
C1070 C 0.81736 0.76536 1.00291 0.0
C1071 C 0.65858 0.7143 0.03808 0.0
C1072 C 0.71476 0.80681 0.97261 0.0
C1073 C 0.69141 0.77225 0.95565 0.0
C1074 C 0.73012 0.79706 0.99388 0.0
C1075 C 0.7231 0.75208 0.99801 0.0
C1076 C 0.70006 0.71745 0.9808 0.0
C1077 C 0.68414 0.72774 0.96018 0.0
C1078 C 0.75358 0.83471 0.012 0.0
C1079 C 0.69232 0.66926 0.98407 0.0
H1080 H 0.82781 0.73177 0.04437 0.0
H1081 H 0.69284 0.68614 0.07298 0.0
H1082 H 0.80389 0.74328 0.98703 0.0
H1083 H 0.82298 0.79994 0.99819 0.0
H1084 H 0.85115 0.76883 1.00765 0.0
H1085 H 0.63948 0.70184 0.05495 0.0
H1086 H 0.66153 0.74792 0.03358 0.0
H1087 H 0.63787 0.68942 0.02406 0.0
H1088 H 0.72082 0.8413 0.96932 0.0
H1089 H 0.66667 0.70063 0.94725 0.0
H1090 H 0.78897 0.8412 0.01546 0.0
H1091 H 0.73426 0.82354 0.02884 0.0
H1092 H 0.75596 0.8676 1.00638 0.0
H1093 H 0.72575 0.6709 0.98749 0.0
H1094 H 0.67593 0.64692 0.96849 0.0
H1095 H 0.6698 0.65265 0.99955 0.0
C1096 C 0.04526 0.24838 0.55426 0.0
C1097 C 0.06027 0.29354 0.56204 0.0
C1098 C 0.01948 0.23136 0.53334 0.0
C1099 C 0.00901 0.26037 0.51967 0.0
C1100 C 0.02493 0.30624 0.52727 0.0
C1101 C 0.04995 0.32205 0.54834 0.0
C1102 C 0.00281 0.18212 0.52604 0.0
C1103 C 0.01546 0.33876 0.51315 0.0
C1104 C 0.9862 0.24028 0.45407 0.0
C1105 C 0.93817 0.2225 0.45249 0.0
C1106 C 0.00916 0.25119 0.47576 0.0
C1107 C 0.98376 0.2441 0.49675 0.0
C1108 C 0.93504 0.22473 0.49547 0.0
C1109 C 0.91279 0.21424 0.47335 0.0
C1110 C 0.06104 0.27187 0.4761 0.0
C1111 C 0.90659 0.21614 0.51745 0.0
H1112 H 0.05229 0.22582 0.56494 0.0
H1113 H 0.06121 0.35694 0.55422 0.0
H1114 H 0.96454 0.16288 0.5246 0.0
H1115 H 0.0168 0.18149 0.50845 0.0
H1116 H 0.01326 0.16379 0.53868 0.0
H1117 H 0.02987 0.37324 0.52155 0.0
H1118 H 0.03073 0.34345 0.49534 0.0
H1119 H 0.97765 0.32379 0.51092 0.0
H1120 H 0.00641 0.24655 0.43818 0.0
H1121 H 0.87576 0.20032 0.4724 0.0
H1122 H 0.07064 0.25196 0.48809 0.0
H1123 H 0.0777 0.30779 0.48288 0.0
H1124 H 0.07537 0.27256 0.45839 0.0
H1125 H 0.91403 0.19573 0.53024 0.0
H1126 H 0.86888 0.19746 0.51374 0.0
H1127 H 0.9161 0.24959 0.52594 0.0
C1128 C 0.72543 0.16748 0.09345 0.0
C1129 C 0.75716 0.2036 0.10772 0.0
C1130 C 0.67865 0.15489 0.09334 0.0
C1131 C 0.66328 0.1779 0.10853 0.0
C1132 C 0.69576 0.21629 0.12187 0.0
C1133 C 0.74259 0.22916 0.12101 0.0
C1134 C 0.64529 0.11498 0.07815 0.0
C1135 C 0.6807 0.24108 0.1387 0.0
C1136 C 0.54029 0.15513 0.1049 0.0
C1137 C 0.51779 0.11901 0.12109 0.0
C1138 C 0.58767 0.17441 0.10029 0.0
C1139 C 0.61306 0.15802 0.1128 0.0
C1140 C 0.59044 0.12207 0.12953 0.0
C1141 C 0.54279 0.10244 0.13315 0.0
C1142 C 0.61032 0.21162 0.08182 0.0
C1143 C 0.61659 0.10459 0.14375 0.0
H1144 H 0.73688 0.14795 0.08306 0.0
H1145 H 0.76711 0.25686 0.13222 0.0
H1146 H 0.62472 0.08403 0.08928 0.0
H1147 H 0.62074 0.12316 0.06931 0.0
H1148 H 0.6635 0.10619 0.06457 0.0
H1149 H 0.71046 0.27373 0.14536 0.0
H1150 H 0.6558 0.24915 0.13023 0.0
H1151 H 0.66285 0.21823 0.15393 0.0
H1152 H 0.52044 0.16746 0.09551 0.0
H1153 H 0.52506 0.07476 0.1458 0.0
H1154 H 0.625 0.19983 0.06776 0.0
H1155 H 0.63943 0.24331 0.08957 0.0
H1156 H 0.58566 0.22062 0.07377 0.0
H1157 H 0.63133 0.08894 0.13193 0.0
H1158 H 0.59426 0.0783 0.15695 0.0
H1159 H 0.6459 0.13378 0.15303 0.0
C1160 C 0.61318 0.54031 0.3814 0.0
C1161 C 0.65555 0.54147 0.37966 0.0
C1162 C 0.57186 0.49825 0.38531 0.0
C1163 C 0.57337 0.45689 0.3876 0.0
C1164 C 0.61571 0.45774 0.38439 0.0
C1165 C 0.65611 0.49991 0.38039 0.0
C1166 C 0.52717 0.49848 0.38819 0.0
C1167 C 0.61896 0.41446 0.38653 0.0
C1168 C 0.49489 0.35671 0.42672 0.0
C1169 C 0.47002 0.32188 0.41015 0.0
C1170 C 0.52608 0.40213 0.41964 0.0
C1171 C 0.53224 0.4131 0.3954 0.0
C1172 C 0.50426 0.37917 0.37871 0.0
C1173 C 0.47365 0.33386 0.38627 0.0
C1174 C 0.55513 0.43737 0.43804 0.0
C1175 C 0.50921 0.3897 0.35274 0.0
H1176 H 0.61256 0.57234 0.38078 0.0
H1177 H 0.68866 0.50046 0.37869 0.0
H1178 H 0.49865 0.46906 0.37865 0.0
H1179 H 0.51756 0.4945 0.40706 0.0
H1180 H 0.53018 0.53121 0.38176 0.0
H1181 H 0.65409 0.42075 0.3823 0.0
H1182 H 0.61017 0.40087 0.40473 0.0
H1183 H 0.5938 0.38721 0.3746 0.0
H1184 H 0.49133 0.34809 0.44522 0.0
H1185 H 0.45468 0.30743 0.37324 0.0
H1186 H 0.55565 0.47034 0.43502 0.0
H1187 H 0.59133 0.44475 0.4368 0.0
H1188 H 0.54229 0.42511 0.45613 0.0
H1189 H 0.51263 0.4239 0.34931 0.0
H1190 H 0.47929 0.36294 0.34262 0.0
H1191 H 0.54103 0.39101 0.3461 0.0
C1192 C 0.85574 0.39642 0.11285 0.0
C1193 C 0.89307 0.4123 0.12847 0.0
C1194 C 0.83614 0.42364 0.10732 0.0
C1195 C 0.85365 0.46734 0.11812 0.0
C1196 C 0.8911 0.48332 0.13413 0.0
C1197 C 0.91087 0.4558 0.13882 0.0
C1198 C 0.7972 0.40593 0.0897 0.0
C1199 C 0.91 0.5293 0.14642 0.0
C1200 C 0.83859 0.56359 0.09283 0.0
C1201 C 0.80275 0.5606 0.10684 0.0
C1202 C 0.85352 0.53146 0.09524 0.0
C1203 C 0.83313 0.49662 0.11264 0.0
C1204 C 0.79521 0.49197 0.12594 0.0
C1205 C 0.77999 0.52368 0.1226 0.0
C1206 C 0.89286 0.53647 0.0801 0.0
C1207 C 0.77311 0.45588 0.14498 0.0
H1208 H 0.84255 0.36295 0.10458 0.0
H1209 H 0.93968 0.46775 0.15089 0.0
H1210 H 0.76605 0.40374 0.09786 0.0
H1211 H 0.80732 0.43043 0.07475 0.0
H1212 H 0.78785 0.37128 0.08277 0.0
H1213 H 0.9378 0.53572 0.15911 0.0
H1214 H 0.92411 0.55767 0.13331 0.0
H1215 H 0.88179 0.53067 0.15598 0.0
H1216 H 0.85627 0.59226 0.08069 0.0
H1217 H 0.7528 0.5218 0.13376 0.0
H1218 H 0.88465 0.50248 0.07274 0.0
H1219 H 0.92449 0.5492 0.09095 0.0
H1220 H 0.90057 0.5611 0.06538 0.0
H1221 H 0.76381 0.42123 0.13819 0.0
H1222 H 0.74152 0.45425 0.1523 0.0
H1223 H 0.79823 0.4641 0.15948 0.0
C1224 C 0.44633 0.05643 0.38154 0.0
C1225 C 0.43607 0.0771 0.4002 0.0
C1226 C 0.48984 0.05944 0.38011 0.0
C1227 C 0.52327 0.08323 0.39787 0.0
C1228 C 0.51176 0.10169 0.41738 0.0
C1229 C 0.4685 0.0986 0.41822 0.0
C1230 C 0.50086 0.03937 0.35903 0.0
C1231 C 0.54589 0.12661 0.43695 0.0
C1232 C 0.62838 0.07151 0.40933 0.0
C1233 C 0.66442 0.11404 0.40104 0.0
C1234 C 0.58192 0.05954 0.407 0.0
C1235 C 0.57105 0.09077 0.39605 0.0
C1236 C 0.60705 0.13238 0.38624 0.0
C1237 C 0.65334 0.14352 0.38885 0.0
C1238 C 0.54472 0.01474 0.41758 0.0
C1239 C 0.5969 0.16651 0.37427 0.0
H1240 H 0.42154 0.0404 0.36742 0.0
H1241 H 0.46054 0.11455 0.43269 0.0
H1242 H 0.52664 0.06786 0.34783 0.0
H1243 H 0.51646 0.01848 0.36459 0.0
H1244 H 0.46967 0.01737 0.34827 0.0
H1245 H 0.53059 0.13677 0.45146 0.0
H1246 H 0.5586 0.10435 0.44427 0.0
H1247 H 0.57629 0.15827 0.42993 0.0
H1248 H 0.63654 0.0479 0.41819 0.0
H1249 H 0.68091 0.17634 0.38237 0.0
H1250 H 0.51578 0.9961 0.40503 0.0
H1251 H 0.53042 0.02227 0.43347 0.0
H1252 H 0.55811 0.99163 0.42269 0.0
H1253 H 0.56848 0.14861 0.36137 0.0
H1254 H 0.62774 0.19422 0.36507 0.0
H1255 H 0.58532 0.18281 0.38754 0.0
C1256 C 0.46543 0.2666 0.11561 0.0
C1257 C 0.42072 0.25227 0.12392 0.0
C1258 C 0.49971 0.31376 0.11528 0.0
C1259 C 0.48936 0.34716 0.1241 0.0
C1260 C 0.44415 0.33281 0.13227 0.0
C1261 C 0.41034 0.28578 0.13178 0.0
C1262 C 0.54713 0.32779 0.1058 0.0
C1263 C 0.43178 0.36699 0.1423 0.0
C1264 C 0.58616 0.46271 0.14687 0.0
C1265 C 0.58886 0.493 0.12918 0.0
C1266 C 0.55434 0.41501 0.14533 0.0
C1267 C 0.52565 0.3971 0.12524 0.0
C1268 C 0.52954 0.42753 0.10694 0.0
C1269 C 0.5606 0.47518 0.1093 0.0
C1270 C 0.55046 0.38402 0.16552 0.0
C1271 C 0.50063 0.40982 0.08495 0.0
H1272 H 0.47373 0.24093 0.10955 0.0
H1273 H 0.37608 0.27509 0.13851 0.0
H1274 H 0.55707 0.35465 0.09205 0.0
H1275 H 0.57311 0.34312 0.12006 0.0
H1276 H 0.54879 0.29808 0.09822 0.0
H1277 H 0.39515 0.35016 0.14814 0.0
H1278 H 0.45438 0.38513 0.15754 0.0
H1279 H 0.43775 0.39362 0.12899 0.0
H1280 H 0.60817 0.47665 0.16217 0.0
H1281 H 0.56343 0.49859 0.09541 0.0
H1282 H 0.55601 0.35585 0.1592 0.0
H1283 H 0.51509 0.36756 0.17308 0.0
H1284 H 0.57581 0.40318 0.17967 0.0
H1285 H 0.50426 0.38143 0.07714 0.0
H1286 H 0.51055 0.43738 0.07156 0.0
H1287 H 0.46358 0.39537 0.08936 0.0
C1288 C 0.83586 0.4858 0.38119 0.0
C1289 C 0.86129 0.52122 0.39743 0.0
C1290 C 0.84589 0.45024 0.37733 0.0
C1291 C 0.88195 0.44982 0.39016 0.0
C1292 C 0.90921 0.48668 0.40565 0.0
C1293 C 0.89875 0.52195 0.40897 0.0
C1294 C 0.81628 0.41183 0.36045 0.0
C1295 C 0.94783 0.48757 0.41976 0.0
C1296 C 0.86426 0.3316 0.40497 0.0
C1297 C 0.89418 0.32738 0.3892 0.0
C1298 C 0.86065 0.37145 0.40559 0.0
C1299 C 0.88714 0.40809 0.3898 0.0
C1300 C 0.91809 0.40451 0.37403 0.0
C1301 C 0.92156 0.36423 0.37406 0.0
C1302 C 0.82792 0.37403 0.42303 0.0
C1303 C 0.9465 0.44264 0.35677 0.0
H1304 H 0.80691 0.48476 0.37216 0.0
H1305 H 0.91958 0.54975 0.42103 0.0
H1306 H 0.83824 0.40457 0.34863 0.0
H1307 H 0.79375 0.37972 0.37045 0.0
H1308 H 0.79395 0.42025 0.34958 0.0
H1309 H 0.96881 0.52088 0.42915 0.0
H1310 H 0.93301 0.4593 0.43294 0.0
H1311 H 0.97101 0.48156 0.40822 0.0
H1312 H 0.84324 0.30336 0.41686 0.0
H1313 H 0.94441 0.36092 0.3617 0.0
H1314 H 0.80075 0.3773 0.41357 0.0
H1315 H 0.84692 0.40513 0.43426 0.0
H1316 H 0.81082 0.34308 0.43456 0.0
H1317 H 0.92319 0.44705 0.34456 0.0
H1318 H 0.97018 0.4354 0.3463 0.0
H1319 H 0.96727 0.47592 0.36614 0.0
C1320 C 0.19665 0.73194 0.6429 0.0
C1321 C 0.1778 0.75291 0.62906 0.0
C1322 C 0.17764 0.68369 0.64254 0.0
C1323 C 0.14 0.65621 0.62739 0.0
C1324 C 0.12223 0.67767 0.61268 0.0
C1325 C 0.14079 0.72565 0.61403 0.0
C1326 C 0.19677 0.662 0.65893 0.0
C1327 C 0.08332 0.64993 0.59567 0.0
C1328 C 0.11808 0.53631 0.61225 0.0
C1329 C 0.07928 0.50807 0.62607 0.0
C1330 C 0.13774 0.58449 0.61221 0.0
C1331 C 0.11895 0.60498 0.62696 0.0
C1332 C 0.07975 0.57645 0.64108 0.0
C1333 C 0.0599 0.52812 0.64018 0.0
C1334 C 0.17853 0.6134 0.59636 0.0
C1335 C 0.05943 0.59702 0.65748 0.0
H1336 H 0.22485 0.75301 0.65477 0.0
H1337 H 0.1263 0.74197 0.60328 0.0
H1338 H 0.16901 0.63735 0.67087 0.0
H1339 H 0.2091 0.64202 0.64878 0.0
H1340 H 0.22585 0.68814 0.66973 0.0
H1341 H 0.07552 0.67223 0.58441 0.0
H1342 H 0.09234 0.62882 0.58419 0.0
H1343 H 0.05153 0.6257 0.60546 0.0
H1344 H 0.13282 0.52039 0.60137 0.0
H1345 H 0.03024 0.50599 0.65104 0.0
H1346 H 0.20912 0.63709 0.60702 0.0
H1347 H 0.17068 0.63514 0.58471 0.0
H1348 H 0.18773 0.5919 0.58526 0.0
H1349 H 0.0864 0.6213 0.66982 0.0
H1350 H 0.02991 0.57019 0.66782 0.0
H1351 H 0.04731 0.61716 0.64733 0.0
C1352 C 0.38642 0.8477 0.90495 0.0
C1353 C 0.41145 0.89611 0.9032 0.0
C1354 C 0.40868 0.82188 0.90423 0.0
C1355 C 0.45727 0.84511 0.90195 0.0
C1356 C 0.48284 0.89401 0.90009 0.0
C1357 C 0.45954 0.91903 0.90094 0.0
C1358 C 0.37997 0.76997 0.90661 0.0
C1359 C 0.53475 0.91983 0.89711 0.0
C1360 C 0.53093 0.79587 0.92221 0.0
C1361 C 0.54133 0.78274 0.9008 0.0
C1362 C 0.50047 0.81299 0.9231 0.0
C1363 C 0.48176 0.81862 0.90192 0.0
C1364 C 0.48974 0.80233 0.88048 0.0
C1365 C 0.51928 0.78406 0.88023 0.0
C1366 C 0.49093 0.82805 0.94641 0.0
C1367 C 0.47005 0.80753 0.8576 0.0
H1368 H 0.34926 0.82989 0.90732 0.0
H1369 H 0.47869 0.95638 0.89952 0.0
H1370 H 0.39426 0.75209 0.89614 0.0
H1371 H 0.37956 0.76044 0.92532 0.0
H1372 H 0.34374 0.75695 0.90095 0.0
H1373 H 0.54919 0.95761 0.89489 0.0
H1374 H 0.55117 0.91409 0.91266 0.0
H1375 H 0.54437 0.90647 0.88155 0.0
H1376 H 0.54885 0.79542 0.93798 0.0
H1377 H 0.52847 0.77481 0.86363 0.0
H1378 H 0.45325 0.81419 0.94863 0.0
H1379 H 0.50819 0.86632 0.94694 0.0
H1380 H 0.50365 0.81636 0.96143 0.0
H1381 H 0.43217 0.79294 0.85922 0.0
H1382 H 0.47685 0.79015 0.84279 0.0
H1383 H 0.48565 0.84479 0.85333 0.0
C1384 C 0.45173 0.59412 0.60548 0.0
C1385 C 0.47001 0.58998 0.62695 0.0
C1386 C 0.40401 0.56882 0.60106 0.0
C1387 C 0.37391 0.53812 0.61837 0.0
C1388 C 0.39197 0.53416 0.64017 0.0
C1389 C 0.43971 0.56023 0.64422 0.0
C1390 C 0.38596 0.5741 0.57766 0.0
C1391 C 0.36094 0.50155 0.65907 0.0
C1392 C 0.24344 0.48478 0.61904 0.0
C1393 C 0.22949 0.43972 0.61163 0.0
C1394 C 0.29063 0.51862 0.61986 0.0
C1395 C 0.32415 0.50676 0.61314 0.0
C1396 C 0.30984 0.46243 0.60383 0.0
C1397 C 0.26271 0.42954 0.60313 0.0
C1398 C 0.30463 0.56586 0.62949 0.0
C1399 C 0.34437 0.44838 0.59635 0.0
H1400 H 0.47474 0.6166 0.59191 0.0
H1401 H 0.45318 0.55745 0.66102 0.0
H1402 H 0.37249 0.54161 0.56746 0.0
H1403 H 0.35679 0.58048 0.5803 0.0
H1404 H 0.41315 0.60285 0.56708 0.0
H1405 H 0.38017 0.504 0.67541 0.0
H1406 H 0.33308 0.50907 0.66343 0.0
H1407 H 0.34411 0.46541 0.65258 0.0
H1408 H 0.21786 0.49283 0.62558 0.0
H1409 H 0.25204 0.39488 0.59707 0.0
H1410 H 0.33284 0.5933 0.6188 0.0
H1411 H 0.31792 0.56881 0.64764 0.0
H1412 H 0.27508 0.57217 0.63001 0.0
H1413 H 0.37082 0.47472 0.5845 0.0
H1414 H 0.3276 0.41443 0.58724 0.0
H1415 H 0.36264 0.44595 0.61206 0.0
C1416 C 0.2351 0.75608 0.92283 0.0
C1417 C 0.20123 0.76647 0.91579 0.0
C1418 C 0.22536 0.71002 0.92338 0.0
C1419 C 0.18146 0.67419 0.91589 0.0
C1420 C 0.1472 0.68463 0.90898 0.0
C1421 C 0.15728 0.73045 0.9094 0.0
C1422 C 0.2619 0.69967 0.93183 0.0
C1423 C 0.10009 0.64753 0.90056 0.0
C1424 C 0.15931 0.5602 0.89096 0.0
C1425 C 0.13226 0.52973 0.90878 0.0
C1426 C 0.17832 0.60804 0.8936 0.0
C1427 C 0.17065 0.62552 0.91475 0.0
C1428 C 0.14615 0.59499 0.93343 0.0
C1429 C 0.12679 0.54735 0.93011 0.0
C1430 C 0.20379 0.63949 0.87319 0.0
C1431 C 0.13813 0.61237 0.95642 0.0
H1432 H 0.26904 0.78383 0.92792 0.0
H1433 H 0.13092 0.7381 0.9039 0.0
H1434 H 0.24754 0.67276 0.94571 0.0
H1435 H 0.27298 0.6857 0.91713 0.0
H1436 H 0.29268 0.73086 0.93895 0.0
H1437 H 0.07772 0.66173 0.89535 0.0
H1438 H 0.10394 0.62923 0.88523 0.0
H1439 H 0.08219 0.62152 0.9146 0.0
H1440 H 0.1636 0.54638 0.87455 0.0
H1441 H 0.10683 0.5237 0.9441 0.0
H1442 H 0.23703 0.66927 0.87912 0.0
H1443 H 0.18271 0.65355 0.8658 0.0
H1444 H 0.21092 0.62117 0.85898 0.0
H1445 H 0.17038 0.64319 0.96255 0.0
H1446 H 0.12558 0.58548 0.97036 0.0
H1447 H 0.11187 0.62292 0.95392 0.0
C1448 C 0.4441 0.89516 0.64477 0.0
C1449 C 0.41263 0.89189 0.62756 0.0
C1450 C 0.47436 0.87838 0.64069 0.0
C1451 C 0.4738 0.85836 0.61868 0.0
C1452 C 0.44213 0.85496 0.60117 0.0
C1453 C 0.41157 0.87137 0.60592 0.0
C1454 C 0.50683 0.88189 0.66004 0.0
C1455 C 0.4409 0.83448 0.57738 0.0
C1456 C 0.58463 0.85682 0.60581 0.0
C1457 C 0.57243 0.81177 0.61253 0.0
C1458 C 0.55211 0.87167 0.60643 0.0
C1459 C 0.50643 0.84099 0.6143 0.0
C1460 C 0.49342 0.79489 0.62014 0.0
C1461 C 0.52644 0.78078 0.61904 0.0
C1462 C 0.56722 0.92086 0.59966 0.0
C1463 C 0.44532 0.76114 0.62885 0.0
H1464 H 0.44449 0.91024 0.66166 0.0
H1465 H 0.38746 0.86905 0.59256 0.0
H1466 H 0.50101 0.84703 0.66434 0.0
H1467 H 0.54321 0.90318 0.65407 0.0
H1468 H 0.50228 0.89752 0.67631 0.0
H1469 H 0.41445 0.83455 0.56564 0.0
H1470 H 0.47526 0.85433 0.56881 0.0
H1471 H 0.43339 0.7984 0.57938 0.0
H1472 H 0.61997 0.88094 0.60063 0.0
H1473 H 0.51659 0.74588 0.62429 0.0
H1474 H 0.56822 0.94058 0.61553 0.0
H1475 H 0.54206 0.92168 0.58728 0.0
H1476 H 0.60204 0.93864 0.59138 0.0
H1477 H 0.43992 0.77246 0.64631 0.0
H1478 H 0.4394 0.72551 0.63056 0.0
H1479 H 0.41894 0.76039 0.6168 0.0
C1480 C 0.48272 0.55601 0.90908 0.0
C1481 C 0.50175 0.58014 0.88808 0.0
C1482 C 0.43475 0.52623 0.91154 0.0
C1483 C 0.40508 0.51966 0.89237 0.0
C1484 C 0.42427 0.54327 0.87095 0.0
C1485 C 0.47228 0.57363 0.86918 0.0
C1486 C 0.41573 0.50244 0.9348 0.0
C1487 C 0.39409 0.53647 0.84991 0.0
C1488 C 0.28745 0.40953 0.89124 0.0
C1489 C 0.2574 0.42559 0.89756 0.0
C1490 C 0.33536 0.43973 0.88944 0.0
C1491 C 0.35413 0.48724 0.89452 0.0
C1492 C 0.32417 0.50361 0.90141 0.0
C1493 C 0.2761 0.47269 0.90261 0.0
C1494 C 0.3658 0.42087 0.88163 0.0
C1495 C 0.34288 0.55385 0.90741 0.0
H1496 H 0.50526 0.5617 0.9239 0.0
H1497 H 0.48698 0.59233 0.85297 0.0
H1498 H 0.39041 0.5117 0.94168 0.0
H1499 H 0.39704 0.4644 0.93241 0.0
H1500 H 0.44328 0.51192 0.94813 0.0
H1501 H 0.41446 0.5566 0.8344 0.0
H1502 H 0.37439 0.49932 0.84509 0.0
H1503 H 0.36849 0.54712 0.85427 0.0
H1504 H 0.27341 0.37329 0.88709 0.0
H1505 H 0.25318 0.48539 0.90749 0.0
H1506 H 0.39215 0.42765 0.89524 0.0
H1507 H 0.38462 0.43871 0.86535 0.0
H1508 H 0.34578 0.38309 0.87819 0.0
H1509 H 0.36922 0.5646 0.92149 0.0
H1510 H 0.31531 0.56078 0.91334 0.0
H1511 H 0.36027 0.57572 0.89184 0.0
loop_
_geom_bond_atom_site_label_1
_geom_bond_atom_site_label_2
_geom_bond_distance
_geom_bond_site_symmetry_2
_ccdc_geom_bond_type
Co0 N5 2.057 . S
Co0 O17 2.021 . S
Co0 O20 2.062 . S
Co0 O24 2.117 . S
Co0 O25 2.020 . S
C1 O21 1.259 . S
C1 O24 1.258 . S
Co2 N11 2.057 . S
Co2 O18 2.117 . S
Co2 O19 2.020 . S
Co2 O21 2.021 . S
Co2 O26 2.062 . S
C3 N5 1.316 . S
C3 N6 1.347 . S
C3 H8 0.931 . S
C4 N5 1.375 . S
C4 C7 1.350 . S
C4 H9 0.930 . S
N5 Co0 2.057 . S
N5 C3 1.316 . S
N5 C4 1.375 . S
N6 C3 1.347 . S
N6 C7 1.373 . S
C7 C4 1.350 . S
C7 N6 1.373 . S
C7 H28 0.931 . S
H8 C3 0.931 . S
H9 C4 0.930 . S
C10 O17 1.259 . S
C10 O18 1.258 . S
N11 Co2 2.057 . S
N11 C12 1.316 . S
N11 C13 1.375 . S
C12 N11 1.316 . S
C12 N14 1.347 . S
C12 H23 0.931 . S
C13 N11 1.375 . S
C13 C15 1.350 . S
C13 H22 0.930 . S
N14 C12 1.347 . S
N14 C15 1.373 . S
C15 C13 1.350 . S
C15 N14 1.373 . S
C15 H29 0.931 . S
C16 O19 1.256 . S
C16 O20 1.255 . S
O17 Co0 2.021 . S
O17 C10 1.259 . S
O18 Co2 2.117 . S
O18 C10 1.258 . S
O19 Co2 2.020 . S
O19 C16 1.256 . S
O20 Co0 2.062 . S
O20 C16 1.255 . S
O21 C1 1.259 . S
O21 Co2 2.021 . S
H22 C13 0.930 . S
H23 C12 0.931 . S
O24 Co0 2.117 . S
O24 C1 1.258 . S
O25 Co0 2.020 . S
O25 C27 1.256 . S
O26 Co2 2.062 . S
O26 C27 1.255 . S
C27 O25 1.256 . S
C27 O26 1.255 . S
H28 C7 0.931 . S
H29 C15 0.931 . S
Co30 N35 2.057 . S
Co30 O47 2.021 . S
Co30 O50 2.062 . S
Co30 O54 2.117 . S
Co30 O55 2.020 . S
C31 O51 1.259 . S
C31 O54 1.258 . S
Co32 N41 2.057 . S
Co32 O48 2.117 . S
Co32 O49 2.020 . S
Co32 O51 2.021 . S
Co32 O56 2.062 . S
C33 N35 1.316 . S
C33 N36 1.347 . S
C33 H38 0.931 . S
C34 N35 1.375 . S
C34 C37 1.350 . S
C34 H39 0.930 . S
N35 Co30 2.057 . S
N35 C33 1.316 . S
N35 C34 1.375 . S
N36 C33 1.347 . S
N36 C37 1.373 . S
C37 C34 1.350 . S
C37 N36 1.373 . S
C37 H58 0.931 . S
H38 C33 0.931 . S
H39 C34 0.930 . S
C40 O47 1.259 . S
C40 O48 1.258 . S
N41 Co32 2.057 . S
N41 C42 1.316 . S
N41 C43 1.375 . S
C42 N41 1.316 . S
C42 N44 1.347 . S
C42 H53 0.931 . S
C43 N41 1.375 . S
C43 C45 1.350 . S
C43 H52 0.930 . S
N44 C42 1.347 . S
N44 C45 1.373 . S
C45 C43 1.350 . S
C45 N44 1.373 . S
C45 H59 0.931 . S
C46 O49 1.256 . S
C46 O50 1.255 . S
O47 Co30 2.021 . S
O47 C40 1.259 . S
O48 Co32 2.117 . S
O48 C40 1.258 . S
O49 Co32 2.020 . S
O49 C46 1.256 . S
O50 Co30 2.062 . S
O50 C46 1.255 . S
O51 C31 1.259 . S
O51 Co32 2.021 . S
H52 C43 0.930 . S
H53 C42 0.931 . S
O54 Co30 2.117 . S
O54 C31 1.258 . S
O55 Co30 2.020 . S
O55 C57 1.256 . S
O56 Co32 2.062 . S
O56 C57 1.255 . S
C57 O55 1.256 . S
C57 O56 1.255 . S
H58 C37 0.931 . S
H59 C45 0.931 . S
Co60 N65 2.057 . S
Co60 O77 2.021 . S
Co60 O80 2.062 . S
Co60 O84 2.117 . S
Co60 O85 2.020 . S
C61 O81 1.259 . S
C61 O84 1.258 . S
Co62 N71 2.057 . S
Co62 O78 2.117 . S
Co62 O79 2.020 . S
Co62 O81 2.021 . S
Co62 O86 2.062 . S
C63 N65 1.316 . S
C63 N66 1.347 . S
C63 H68 0.931 . S
C64 N65 1.375 . S
C64 C67 1.350 . S
C64 H69 0.930 . S
N65 Co60 2.057 . S
N65 C63 1.316 . S
N65 C64 1.375 . S
N66 C63 1.347 . S
N66 C67 1.373 . S
C67 C64 1.350 . S
C67 N66 1.373 . S
C67 H88 0.931 1_545 S
H68 C63 0.931 . S
H69 C64 0.930 . S
C70 O77 1.259 . S
C70 O78 1.258 . S
N71 Co62 2.057 . S
N71 C72 1.316 . S
N71 C73 1.375 . S
C72 N71 1.316 . S
C72 N74 1.347 . S
C72 H83 0.931 . S
C73 N71 1.375 . S
C73 C75 1.350 . S
C73 H82 0.930 . S
N74 C72 1.347 . S
N74 C75 1.373 . S
C75 C73 1.350 . S
C75 N74 1.373 . S
C75 H89 0.931 . S
C76 O79 1.256 . S
C76 O80 1.255 . S
O77 Co60 2.021 . S
O77 C70 1.259 . S
O78 Co62 2.117 . S
O78 C70 1.258 . S
O79 Co62 2.020 . S
O79 C76 1.256 . S
O80 Co60 2.062 . S
O80 C76 1.255 . S
O81 C61 1.259 . S
O81 Co62 2.021 . S
H82 C73 0.930 . S
H83 C72 0.931 . S
O84 Co60 2.117 . S
O84 C61 1.258 . S
O85 Co60 2.020 . S
O85 C87 1.256 . S
O86 Co62 2.062 . S
O86 C87 1.255 . S
C87 O85 1.256 . S
C87 O86 1.255 . S
H88 C67 0.931 1_565 S
H89 C75 0.931 . S
Co90 N95 2.057 . S
Co90 O107 2.021 . S
Co90 O110 2.062 . S
Co90 O114 2.117 . S
Co90 O115 2.020 . S
C91 O111 1.259 . S
C91 O114 1.258 . S
Co92 N101 2.057 . S
Co92 O108 2.117 . S
Co92 O109 2.020 . S
Co92 O111 2.021 . S
Co92 O116 2.062 . S
C93 N95 1.316 1_565 S
C93 N96 1.347 . S
C93 H98 0.931 . S
C94 N95 1.375 . S
C94 C97 1.350 1_545 S
C94 H99 0.930 . S
N95 Co90 2.057 . S
N95 C93 1.316 1_545 S
N95 C94 1.375 . S
N96 C93 1.347 . S
N96 C97 1.373 . S
C97 C94 1.350 1_565 S
C97 N96 1.373 . S
C97 H118 0.931 . S
H98 C93 0.931 . S
H99 C94 0.930 . S
C100 O107 1.259 . S
C100 O108 1.258 . S
N101 Co92 2.057 . S
N101 C102 1.316 . S
N101 C103 1.375 . S
C102 N101 1.316 . S
C102 N104 1.347 . S
C102 H113 0.931 . S
C103 N101 1.375 . S
C103 C105 1.350 . S
C103 H112 0.930 . S
N104 C102 1.347 . S
N104 C105 1.373 . S
C105 C103 1.350 . S
C105 N104 1.373 . S
C105 H119 0.931 . S
C106 O109 1.256 . S
C106 O110 1.255 . S
O107 Co90 2.021 . S
O107 C100 1.259 . S
O108 Co92 2.117 . S
O108 C100 1.258 . S
O109 Co92 2.020 . S
O109 C106 1.256 . S
O110 Co90 2.062 . S
O110 C106 1.255 . S
O111 C91 1.259 . S
O111 Co92 2.021 . S
H112 C103 0.930 . S
H113 C102 0.931 . S
O114 Co90 2.117 . S
O114 C91 1.258 . S
O115 Co90 2.020 . S
O115 C117 1.256 . S
O116 Co92 2.062 . S
O116 C117 1.255 . S
C117 O115 1.256 . S
C117 O116 1.255 . S
H118 C97 0.931 . S
H119 C105 0.931 . S
Co120 N125 2.057 . S
Co120 O137 2.021 . S
Co120 O140 2.062 . S
Co120 O144 2.117 . S
Co120 O145 2.020 . S
C121 O141 1.259 . S
C121 O144 1.258 . S
Co122 N131 2.057 . S
Co122 O138 2.117 . S
Co122 O139 2.020 . S
Co122 O141 2.021 . S
Co122 O146 2.062 . S
C123 N125 1.316 . S
C123 N126 1.347 . S
C123 H128 0.931 . S
C124 N125 1.375 . S
C124 C127 1.350 . S
C124 H129 0.930 . S
N125 Co120 2.057 . S
N125 C123 1.316 . S
N125 C124 1.375 . S
N126 C123 1.347 . S
N126 C127 1.373 . S
C127 C124 1.350 . S
C127 N126 1.373 . S
C127 H148 0.931 1_655 S
H128 C123 0.931 . S
H129 C124 0.930 . S
C130 O137 1.259 . S
C130 O138 1.258 . S
N131 Co122 2.057 . S
N131 C132 1.316 . S
N131 C133 1.375 . S
C132 N131 1.316 . S
C132 N134 1.347 . S
C132 H143 0.931 . S
C133 N131 1.375 . S
C133 C135 1.350 . S
C133 H142 0.930 . S
N134 C132 1.347 . S
N134 C135 1.373 . S
C135 C133 1.350 . S
C135 N134 1.373 . S
C135 H149 0.931 . S
C136 O139 1.256 . S
C136 O140 1.255 . S
O137 Co120 2.021 . S
O137 C130 1.259 . S
O138 Co122 2.117 . S
O138 C130 1.258 . S
O139 Co122 2.020 . S
O139 C136 1.256 . S
O140 Co120 2.062 . S
O140 C136 1.255 . S
O141 C121 1.259 . S
O141 Co122 2.021 . S
H142 C133 0.930 . S
H143 C132 0.931 . S
O144 Co120 2.117 . S
O144 C121 1.258 . S
O145 Co120 2.020 . S
O145 C147 1.256 . S
O146 Co122 2.062 . S
O146 C147 1.255 . S
C147 O145 1.256 . S
C147 O146 1.255 . S
H148 C127 0.931 1_455 S
H149 C135 0.931 . S
Co150 N155 2.057 . S
Co150 O167 2.021 . S
Co150 O170 2.062 . S
Co150 O174 2.117 . S
Co150 O175 2.020 . S
C151 O171 1.259 . S
C151 O174 1.258 . S
Co152 N161 2.057 . S
Co152 O168 2.117 . S
Co152 O169 2.020 . S
Co152 O171 2.021 . S
Co152 O176 2.062 . S
C153 N155 1.316 1_455 S
C153 N156 1.347 . S
C153 H158 0.931 . S
C154 N155 1.375 . S
C154 C157 1.350 1_655 S
C154 H159 0.930 . S
N155 Co150 2.057 . S
N155 C153 1.316 1_655 S
N155 C154 1.375 . S
N156 C153 1.347 . S
N156 C157 1.373 . S
C157 C154 1.350 1_455 S
C157 N156 1.373 . S
C157 H178 0.931 . S
H158 C153 0.931 . S
H159 C154 0.930 . S
C160 O167 1.259 . S
C160 O168 1.258 . S
N161 Co152 2.057 . S
N161 C162 1.316 . S
N161 C163 1.375 . S
C162 N161 1.316 . S
C162 N164 1.347 . S
C162 H173 0.931 . S
C163 N161 1.375 . S
C163 C165 1.350 . S
C163 H172 0.930 . S
N164 C162 1.347 . S
N164 C165 1.373 . S
C165 C163 1.350 . S
C165 N164 1.373 . S
C165 H179 0.931 . S
C166 O169 1.256 . S
C166 O170 1.255 . S
O167 Co150 2.021 . S
O167 C160 1.259 . S
O168 Co152 2.117 . S
O168 C160 1.258 . S
O169 Co152 2.020 . S
O169 C166 1.256 . S
O170 Co150 2.062 . S
O170 C166 1.255 . S
O171 C151 1.259 . S
O171 Co152 2.021 . S
H172 C163 0.930 . S
H173 C162 0.931 . S
O174 Co150 2.117 . S
O174 C151 1.258 . S
O175 Co150 2.020 . S
O175 C177 1.256 . S
O176 Co152 2.062 . S
O176 C177 1.255 . S
C177 O175 1.256 . S
C177 O176 1.255 . S
H178 C157 0.931 . S
H179 C165 0.931 . S
Co180 N185 2.057 . S
Co180 O197 2.021 . S
Co180 O200 2.062 . S
Co180 O204 2.117 . S
Co180 O205 2.020 . S
C181 O201 1.259 . S
C181 O204 1.258 . S
Co182 N191 2.057 . S
Co182 O198 2.117 . S
Co182 O199 2.020 . S
Co182 O201 2.021 . S
Co182 O206 2.062 . S
C183 N185 1.316 . S
C183 N186 1.347 . S
C183 H188 0.931 . S
C184 N185 1.375 . S
C184 C187 1.350 . S
C184 H189 0.930 . S
N185 Co180 2.057 . S
N185 C183 1.316 . S
N185 C184 1.375 . S
N186 C183 1.347 . S
N186 C187 1.373 . S
C187 C184 1.350 . S
C187 N186 1.373 . S
C187 H208 0.931 . S
H188 C183 0.931 . S
H189 C184 0.930 . S
C190 O197 1.259 . S
C190 O198 1.258 . S
N191 Co182 2.057 . S
N191 C192 1.316 . S
N191 C193 1.375 . S
C192 N191 1.316 . S
C192 N194 1.347 . S
C192 H203 0.931 . S
C193 N191 1.375 . S
C193 C195 1.350 . S
C193 H202 0.930 . S
N194 C192 1.347 . S
N194 C195 1.373 . S
C195 C193 1.350 . S
C195 N194 1.373 . S
C195 H209 0.931 . S
C196 O199 1.256 . S
C196 O200 1.255 . S
O197 Co180 2.021 . S
O197 C190 1.259 . S
O198 Co182 2.117 . S
O198 C190 1.258 . S
O199 Co182 2.020 . S
O199 C196 1.256 . S
O200 Co180 2.062 . S
O200 C196 1.255 . S
O201 C181 1.259 . S
O201 Co182 2.021 . S
H202 C193 0.930 . S
H203 C192 0.931 . S
O204 Co180 2.117 . S
O204 C181 1.258 . S
O205 Co180 2.020 . S
O205 C207 1.256 . S
O206 Co182 2.062 . S
O206 C207 1.255 . S
C207 O205 1.256 . S
C207 O206 1.255 . S
H208 C187 0.931 . S
H209 C195 0.931 . S
Co210 N215 2.057 . S
Co210 O227 2.021 . S
Co210 O230 2.062 . S
Co210 O234 2.117 . S
Co210 O235 2.020 . S
C211 O231 1.259 . S
C211 O234 1.258 . S
Co212 N221 2.057 . S
Co212 O228 2.117 . S
Co212 O229 2.020 . S
Co212 O231 2.021 . S
Co212 O236 2.062 . S
C213 N215 1.316 . S
C213 N216 1.347 . S
C213 H218 0.931 . S
C214 N215 1.375 . S
C214 C217 1.350 . S
C214 H219 0.930 . S
N215 Co210 2.057 . S
N215 C213 1.316 . S
N215 C214 1.375 . S
N216 C213 1.347 . S
N216 C217 1.373 . S
C217 C214 1.350 . S
C217 N216 1.373 . S
C217 H238 0.931 1_455 S
H218 C213 0.931 . S
H219 C214 0.930 . S
C220 O227 1.259 . S
C220 O228 1.258 . S
N221 Co212 2.057 . S
N221 C222 1.316 . S
N221 C223 1.375 . S
C222 N221 1.316 . S
C222 N224 1.347 . S
C222 H233 0.931 . S
C223 N221 1.375 . S
C223 C225 1.350 . S
C223 H232 0.930 . S
N224 C222 1.347 . S
N224 C225 1.373 . S
C225 C223 1.350 . S
C225 N224 1.373 . S
C225 H239 0.931 . S
C226 O229 1.256 . S
C226 O230 1.255 . S
O227 Co210 2.021 . S
O227 C220 1.259 . S
O228 Co212 2.117 . S
O228 C220 1.258 . S
O229 Co212 2.020 . S
O229 C226 1.256 . S
O230 Co210 2.062 . S
O230 C226 1.255 . S
O231 C211 1.259 . S
O231 Co212 2.021 . S
H232 C223 0.930 . S
H233 C222 0.931 . S
O234 Co210 2.117 . S
O234 C211 1.258 . S
O235 Co210 2.020 . S
O235 C237 1.256 . S
O236 Co212 2.062 . S
O236 C237 1.255 . S
C237 O235 1.256 . S
C237 O236 1.255 . S
H238 C217 0.931 1_655 S
H239 C225 0.931 . S
Co240 N245 2.057 . S
Co240 O257 2.021 . S
Co240 O260 2.062 . S
Co240 O264 2.117 . S
Co240 O265 2.020 . S
C241 O261 1.259 . S
C241 O264 1.258 . S
Co242 N251 2.057 . S
Co242 O258 2.117 . S
Co242 O259 2.020 . S
Co242 O261 2.021 . S
Co242 O266 2.062 . S
C243 N245 1.316 . S
C243 N246 1.347 . S
C243 H248 0.931 . S
C244 N245 1.375 . S
C244 C247 1.350 . S
C244 H249 0.930 . S
N245 Co240 2.057 . S
N245 C243 1.316 . S
N245 C244 1.375 . S
N246 C243 1.347 . S
N246 C247 1.373 . S
C247 C244 1.350 . S
C247 N246 1.373 . S
C247 H268 0.931 . S
H248 C243 0.931 . S
H249 C244 0.930 . S
C250 O257 1.259 . S
C250 O258 1.258 . S
N251 Co242 2.057 . S
N251 C252 1.316 . S
N251 C253 1.375 . S
C252 N251 1.316 . S
C252 N254 1.347 . S
C252 H263 0.931 . S
C253 N251 1.375 . S
C253 C255 1.350 . S
C253 H262 0.930 . S
N254 C252 1.347 . S
N254 C255 1.373 . S
C255 C253 1.350 . S
C255 N254 1.373 . S
C255 H269 0.931 1_565 S
C256 O259 1.256 . S
C256 O260 1.255 . S
O257 Co240 2.021 . S
O257 C250 1.259 . S
O258 Co242 2.117 . S
O258 C250 1.258 . S
O259 Co242 2.020 . S
O259 C256 1.256 . S
O260 Co240 2.062 . S
O260 C256 1.255 . S
O261 C241 1.259 . S
O261 Co242 2.021 . S
H262 C253 0.930 . S
H263 C252 0.931 . S
O264 Co240 2.117 . S
O264 C241 1.258 . S
O265 Co240 2.020 . S
O265 C267 1.256 . S
O266 Co242 2.062 . S
O266 C267 1.255 . S
C267 O265 1.256 . S
C267 O266 1.255 . S
H268 C247 0.931 . S
H269 C255 0.931 1_545 S
Co270 N275 2.057 . S
Co270 O287 2.021 . S
Co270 O290 2.062 . S
Co270 O294 2.117 . S
Co270 O295 2.020 . S
C271 O291 1.259 . S
C271 O294 1.258 . S
Co272 N281 2.057 . S
Co272 O288 2.117 . S
Co272 O289 2.020 . S
Co272 O291 2.021 . S
Co272 O296 2.062 . S
C273 N275 1.316 . S
C273 N276 1.347 . S
C273 H278 0.931 . S
C274 N275 1.375 . S
C274 C277 1.350 . S
C274 H279 0.930 . S
N275 Co270 2.057 . S
N275 C273 1.316 . S
N275 C274 1.375 . S
N276 C273 1.347 . S
N276 C277 1.373 . S
C277 C274 1.350 . S
C277 N276 1.373 . S
C277 H298 0.931 . S
H278 C273 0.931 . S
H279 C274 0.930 . S
C280 O287 1.259 . S
C280 O288 1.258 . S
N281 Co272 2.057 . S
N281 C282 1.316 . S
N281 C283 1.375 . S
C282 N281 1.316 . S
C282 N284 1.347 . S
C282 H293 0.931 . S
C283 N281 1.375 . S
C283 C285 1.350 . S
C283 H292 0.930 . S
N284 C282 1.347 . S
N284 C285 1.373 . S
C285 C283 1.350 . S
C285 N284 1.373 . S
C285 H299 0.931 . S
C286 O289 1.256 . S
C286 O290 1.255 . S
O287 Co270 2.021 . S
O287 C280 1.259 . S
O288 Co272 2.117 . S
O288 C280 1.258 . S
O289 Co272 2.020 . S
O289 C286 1.256 . S
O290 Co270 2.062 . S
O290 C286 1.255 . S
O291 C271 1.259 . S
O291 Co272 2.021 . S
H292 C283 0.930 . S
H293 C282 0.931 . S
O294 Co270 2.117 . S
O294 C271 1.258 . S
O295 Co270 2.020 . S
O295 C297 1.256 . S
O296 Co272 2.062 . S
O296 C297 1.255 . S
C297 O295 1.256 . S
C297 O296 1.255 . S
H298 C277 0.931 . S
H299 C285 0.931 . S
Co300 N305 2.057 . S
Co300 O317 2.021 . S
Co300 O320 2.062 . S
Co300 O324 2.117 . S
Co300 O325 2.020 . S
C301 O321 1.259 . S
C301 O324 1.258 . S
Co302 N311 2.057 . S
Co302 O318 2.117 . S
Co302 O319 2.020 . S
Co302 O321 2.021 . S
Co302 O326 2.062 . S
C303 N305 1.316 . S
C303 N306 1.347 . S
C303 H308 0.931 . S
C304 N305 1.375 . S
C304 C307 1.350 . S
C304 H309 0.930 . S
N305 Co300 2.057 . S
N305 C303 1.316 . S
N305 C304 1.375 . S
N306 C303 1.347 . S
N306 C307 1.373 . S
C307 C304 1.350 . S
C307 N306 1.373 . S
C307 H328 0.931 . S
H308 C303 0.931 . S
H309 C304 0.930 . S
C310 O317 1.259 . S
C310 O318 1.258 . S
N311 Co302 2.057 . S
N311 C312 1.316 . S
N311 C313 1.375 . S
C312 N311 1.316 . S
C312 N314 1.347 . S
C312 H323 0.931 . S
C313 N311 1.375 . S
C313 C315 1.350 . S
C313 H322 0.930 . S
N314 C312 1.347 . S
N314 C315 1.373 . S
C315 C313 1.350 . S
C315 N314 1.373 . S
C315 H329 0.931 1_455 S
C316 O319 1.256 . S
C316 O320 1.255 . S
O317 Co300 2.021 . S
O317 C310 1.259 . S
O318 Co302 2.117 . S
O318 C310 1.258 . S
O319 Co302 2.020 . S
O319 C316 1.256 . S
O320 Co300 2.062 . S
O320 C316 1.255 . S
O321 C301 1.259 . S
O321 Co302 2.021 . S
H322 C313 0.930 . S
H323 C312 0.931 . S
O324 Co300 2.117 . S
O324 C301 1.258 . S
O325 Co300 2.020 . S
O325 C327 1.256 . S
O326 Co302 2.062 . S
O326 C327 1.255 . S
C327 O325 1.256 . S
C327 O326 1.255 . S
H328 C307 0.931 . S
H329 C315 0.931 1_655 S
Co330 N335 2.057 . S
Co330 O347 2.021 . S
Co330 O350 2.062 . S
Co330 O354 2.117 . S
Co330 O355 2.020 . S
C331 O351 1.259 . S
C331 O354 1.258 . S
Co332 N341 2.057 . S
Co332 O348 2.117 . S
Co332 O349 2.020 . S
Co332 O351 2.021 . S
Co332 O356 2.062 . S
C333 N335 1.316 . S
C333 N336 1.347 . S
C333 H338 0.931 . S
C334 N335 1.375 . S
C334 C337 1.350 . S
C334 H339 0.930 . S
N335 Co330 2.057 . S
N335 C333 1.316 . S
N335 C334 1.375 . S
N336 C333 1.347 . S
N336 C337 1.373 . S
C337 C334 1.350 . S
C337 N336 1.373 . S
C337 H358 0.931 1_565 S
H338 C333 0.931 . S
H339 C334 0.930 . S
C340 O347 1.259 . S
C340 O348 1.258 . S
N341 Co332 2.057 . S
N341 C342 1.316 . S
N341 C343 1.375 . S
C342 N341 1.316 . S
C342 N344 1.347 . S
C342 H353 0.931 . S
C343 N341 1.375 . S
C343 C345 1.350 . S
C343 H352 0.930 . S
N344 C342 1.347 . S
N344 C345 1.373 . S
C345 C343 1.350 . S
C345 N344 1.373 . S
C345 H359 0.931 . S
C346 O349 1.256 . S
C346 O350 1.255 . S
O347 Co330 2.021 . S
O347 C340 1.259 . S
O348 Co332 2.117 . S
O348 C340 1.258 . S
O349 Co332 2.020 . S
O349 C346 1.256 . S
O350 Co330 2.062 . S
O350 C346 1.255 . S
O351 C331 1.259 . S
O351 Co332 2.021 . S
H352 C343 0.930 . S
H353 C342 0.931 . S
O354 Co330 2.117 . S
O354 C331 1.258 . S
O355 Co330 2.020 . S
O355 C357 1.256 . S
O356 Co332 2.062 . S
O356 C357 1.255 . S
C357 O355 1.256 . S
C357 O356 1.255 . S
H358 C337 0.931 1_545 S
H359 C345 0.931 . S
C360 C361 1.391 . S
C360 C362 1.394 1_655 S
C360 H376 0.931 . S
C361 C360 1.391 . S
C361 C365 1.376 1_655 S
C362 C360 1.394 1_455 S
C362 C363 1.369 . S
C362 C366 1.537 1_455 S
C363 C362 1.369 . S
C363 C364 1.410 . S
C363 C371 1.503 . S
C364 C363 1.410 . S
C364 C365 1.392 . S
C364 C367 1.511 . S
C365 C361 1.376 1_455 S
C365 C364 1.392 . S
C365 H377 0.929 . S
C366 C362 1.537 1_655 S
C366 H378 0.948 1_655 S
C366 H379 0.956 1_655 S
C366 H380 0.972 . S
C367 C364 1.511 . S
C367 H381 0.961 . S
C367 H382 0.961 . S
C367 H383 0.961 . S
C368 C369 1.370 . S
C368 C370 1.363 . S
C368 H384 0.931 . S
C369 C368 1.370 . S
C369 C373 1.408 . S
C370 C368 1.363 . S
C370 C371 1.370 . S
C370 C374 1.524 . S
C371 C363 1.503 . S
C371 C370 1.370 . S
C371 C372 1.403 . S
C372 C371 1.403 . S
C372 C373 1.404 . S
C372 C375 1.539 . S
C373 C369 1.408 . S
C373 C372 1.404 . S
C373 H385 0.930 . S
C374 C370 1.524 . S
C374 H386 0.956 . S
C374 H387 0.961 . S
C374 H388 0.961 . S
C375 C372 1.539 . S
C375 H389 0.958 . S
C375 H390 0.961 . S
C375 H391 0.960 . S
H376 C360 0.931 . S
H377 C365 0.929 . S
H378 C366 0.948 1_455 S
H379 C366 0.956 1_455 S
H380 C366 0.972 . S
H381 C367 0.961 . S
H382 C367 0.961 . S
H383 C367 0.961 . S
H384 C368 0.931 . S
H385 C373 0.930 . S
H386 C374 0.956 . S
H387 C374 0.961 . S
H388 C374 0.961 . S
H389 C375 0.958 . S
H390 C375 0.961 . S
H391 C375 0.960 . S
C392 C393 1.391 . S
C392 C394 1.394 . S
C392 H408 0.931 . S
C393 C392 1.391 . S
C393 C397 1.376 . S
C394 C392 1.394 . S
C394 C395 1.369 . S
C394 C398 1.531 . S
C395 C394 1.369 . S
C395 C396 1.410 . S
C395 C403 1.503 . S
C396 C395 1.410 . S
C396 C397 1.392 . S
C396 C399 1.511 . S
C397 C393 1.376 . S
C397 C396 1.392 . S
C397 H409 0.929 . S
C398 C394 1.531 . S
C398 H410 0.960 . S
C398 H411 0.962 . S
C398 H412 0.960 . S
C399 C396 1.511 . S
C399 H413 0.961 . S
C399 H414 0.961 . S
C399 H415 0.961 . S
C400 C401 1.370 . S
C400 C402 1.363 . S
C400 H416 0.931 . S
C401 C400 1.370 . S
C401 C405 1.408 . S
C402 C400 1.363 . S
C402 C403 1.370 1_655 S
C402 C406 1.524 1_655 S
C403 C395 1.503 . S
C403 C402 1.370 1_455 S
C403 C404 1.403 1_455 S
C404 C403 1.403 1_655 S
C404 C405 1.404 . S
C404 C407 1.539 1_655 S
C405 C401 1.408 . S
C405 C404 1.404 . S
C405 H417 0.930 . S
C406 C402 1.524 1_455 S
C406 H418 0.956 . S
C406 H419 0.961 . S
C406 H420 0.954 1_455 S
C407 C404 1.539 1_455 S
C407 H421 0.958 . S
C407 H422 0.961 1_455 S
C407 H423 0.960 . S
H408 C392 0.931 . S
H409 C397 0.929 . S
H410 C398 0.960 . S
H411 C398 0.962 . S
H412 C398 0.960 . S
H413 C399 0.961 . S
H414 C399 0.961 . S
H415 C399 0.961 . S
H416 C400 0.931 . S
H417 C405 0.930 . S
H418 C406 0.956 . S
H419 C406 0.961 . S
H420 C406 0.954 1_655 S
H421 C407 0.958 . S
H422 C407 0.961 1_655 S
H423 C407 0.960 . S
C424 C425 1.391 . S
C424 C426 1.394 . S
C424 H440 0.931 . S
C425 C424 1.391 . S
C425 C429 1.376 . S
C426 C424 1.394 . S
C426 C427 1.369 . S
C426 C430 1.531 . S
C427 C426 1.369 . S
C427 C428 1.410 . S
C427 C435 1.503 . S
C428 C427 1.410 . S
C428 C429 1.392 . S
C428 C431 1.511 . S
C429 C425 1.376 . S
C429 C428 1.392 . S
C429 H441 0.929 1_565 S
C430 C426 1.531 . S
C430 H442 0.960 . S
C430 H443 0.962 . S
C430 H444 0.960 . S
C431 C428 1.511 . S
C431 H445 0.961 . S
C431 H446 0.961 . S
C431 H447 0.961 . S
C432 C433 1.370 . S
C432 C434 1.363 . S
C432 H448 0.931 . S
C433 C432 1.370 . S
C433 C437 1.408 . S
C434 C432 1.363 . S
C434 C435 1.370 . S
C434 C438 1.524 . S
C435 C427 1.503 . S
C435 C434 1.370 . S
C435 C436 1.403 . S
C436 C435 1.403 . S
C436 C437 1.404 . S
C436 C439 1.539 . S
C437 C433 1.408 . S
C437 C436 1.404 . S
C437 H449 0.930 . S
C438 C434 1.524 . S
C438 H450 0.956 . S
C438 H451 0.961 . S
C438 H452 0.961 . S
C439 C436 1.539 . S
C439 H453 0.958 . S
C439 H454 0.961 . S
C439 H455 0.960 . S
H440 C424 0.931 . S
H441 C429 0.929 1_545 S
H442 C430 0.960 . S
H443 C430 0.962 . S
H444 C430 0.960 . S
H445 C431 0.961 . S
H446 C431 0.961 . S
H447 C431 0.961 . S
H448 C432 0.931 . S
H449 C437 0.930 . S
H450 C438 0.956 . S
H451 C438 0.961 . S
H452 C438 0.961 . S
H453 C439 0.958 . S
H454 C439 0.961 . S
H455 C439 0.960 . S
C456 C457 1.391 . S
C456 C458 1.394 . S
C456 H472 0.931 . S
C457 C456 1.391 . S
C457 C461 1.376 . S
C458 C456 1.394 . S
C458 C459 1.369 . S
C458 C462 1.531 . S
C459 C458 1.369 . S
C459 C460 1.410 . S
C459 C467 1.503 . S
C460 C459 1.410 . S
C460 C461 1.392 . S
C460 C463 1.511 . S
C461 C457 1.376 . S
C461 C460 1.392 . S
C461 H473 0.929 . S
C462 C458 1.531 . S
C462 H474 0.960 . S
C462 H475 0.962 . S
C462 H476 0.960 . S
C463 C460 1.511 . S
C463 H477 0.961 . S
C463 H478 0.961 . S
C463 H479 0.961 . S
C464 C465 1.370 . S
C464 C466 1.363 . S
C464 H480 0.931 . S
C465 C464 1.370 . S
C465 C469 1.408 . S
C466 C464 1.363 . S
C466 C467 1.370 . S
C466 C470 1.524 . S
C467 C459 1.503 . S
C467 C466 1.370 . S
C467 C468 1.403 . S
C468 C467 1.403 . S
C468 C469 1.404 . S
C468 C471 1.539 . S
C469 C465 1.408 . S
C469 C468 1.404 . S
C469 H481 0.930 . S
C470 C466 1.524 . S
C470 H482 0.956 . S
C470 H483 0.961 . S
C470 H484 0.961 . S
C471 C468 1.539 . S
C471 H485 0.958 . S
C471 H486 0.961 . S
C471 H487 0.960 . S
H472 C456 0.931 . S
H473 C461 0.929 . S
H474 C462 0.960 . S
H475 C462 0.962 . S
H476 C462 0.960 . S
H477 C463 0.961 . S
H478 C463 0.961 . S
H479 C463 0.961 . S
H480 C464 0.931 . S
H481 C469 0.930 . S
H482 C470 0.956 . S
H483 C470 0.961 . S
H484 C470 0.961 . S
H485 C471 0.958 . S
H486 C471 0.961 . S
H487 C471 0.960 . S
C488 C489 1.391 1_565 S
C488 C490 1.394 . S
C488 H504 0.931 . S
C489 C488 1.391 1_545 S
C489 C493 1.376 . S
C490 C488 1.394 . S
C490 C491 1.369 . S
C490 C494 1.531 . S
C491 C490 1.369 . S
C491 C492 1.410 . S
C491 C499 1.503 . S
C492 C491 1.410 . S
C492 C493 1.392 1_565 S
C492 C495 1.511 1_565 S
C493 C489 1.376 . S
C493 C492 1.392 1_545 S
C493 H505 0.929 . S
C494 C490 1.531 . S
C494 H506 0.960 . S
C494 H507 0.962 . S
C494 H508 0.960 . S
C495 C492 1.511 1_545 S
C495 H509 0.961 . S
C495 H510 0.961 1_545 S
C495 H511 0.961 1_545 S
C496 C497 1.370 . S
C496 C498 1.363 . S
C496 H512 0.931 . S
C497 C496 1.370 . S
C497 C501 1.408 . S
C498 C496 1.363 . S
C498 C499 1.370 . S
C498 C502 1.524 . S
C499 C491 1.503 . S
C499 C498 1.370 . S
C499 C500 1.403 . S
C500 C499 1.403 . S
C500 C501 1.404 . S
C500 C503 1.539 . S
C501 C497 1.408 . S
C501 C500 1.404 . S
C501 H513 0.930 . S
C502 C498 1.524 . S
C502 H514 0.956 . S
C502 H515 0.961 . S
C502 H516 0.961 . S
C503 C500 1.539 . S
C503 H517 0.958 . S
C503 H518 0.961 . S
C503 H519 0.960 . S
H504 C488 0.931 . S
H505 C493 0.929 . S
H506 C494 0.960 . S
H507 C494 0.962 . S
H508 C494 0.960 . S
H509 C495 0.961 . S
H510 C495 0.961 1_565 S
H511 C495 0.961 1_565 S
H512 C496 0.931 . S
H513 C501 0.930 . S
H514 C502 0.956 . S
H515 C502 0.961 . S
H516 C502 0.961 . S
H517 C503 0.958 . S
H518 C503 0.961 . S
H519 C503 0.960 . S
C520 C521 1.391 . S
C520 C522 1.394 . S
C520 H536 0.931 . S
C521 C520 1.391 . S
C521 C525 1.376 . S
C522 C520 1.394 . S
C522 C523 1.369 . S
C522 C526 1.531 . S
C523 C522 1.369 . S
C523 C524 1.410 . S
C523 C531 1.503 . S
C524 C523 1.410 . S
C524 C525 1.392 . S
C524 C527 1.511 . S
C525 C521 1.376 . S
C525 C524 1.392 . S
C525 H537 0.929 . S
C526 C522 1.531 . S
C526 H538 0.960 . S
C526 H539 0.962 . S
C526 H540 0.960 . S
C527 C524 1.511 . S
C527 H541 0.961 . S
C527 H542 0.961 . S
C527 H543 0.961 . S
C528 C529 1.370 . S
C528 C530 1.363 . S
C528 H544 0.931 . S
C529 C528 1.370 . S
C529 C533 1.408 . S
C530 C528 1.363 . S
C530 C531 1.370 1_545 S
C530 C534 1.524 1_545 S
C531 C523 1.503 . S
C531 C530 1.370 1_565 S
C531 C532 1.403 1_565 S
C532 C531 1.403 1_545 S
C532 C533 1.404 . S
C532 C535 1.539 1_545 S
C533 C529 1.408 . S
C533 C532 1.404 . S
C533 H545 0.930 . S
C534 C530 1.524 1_565 S
C534 H546 0.956 . S
C534 H547 0.961 . S
C534 H548 0.961 1_565 S
C535 C532 1.539 1_565 S
C535 H549 0.958 . S
C535 H550 0.961 1_565 S
C535 H551 0.960 . S
H536 C520 0.931 . S
H537 C525 0.929 . S
H538 C526 0.960 . S
H539 C526 0.962 . S
H540 C526 0.960 . S
H541 C527 0.961 . S
H542 C527 0.961 . S
H543 C527 0.961 . S
H544 C528 0.931 . S
H545 C533 0.930 . S
H546 C534 0.956 . S
H547 C534 0.961 . S
H548 C534 0.961 1_545 S
H549 C535 0.958 . S
H550 C535 0.961 1_545 S
H551 C535 0.960 . S
C552 C553 1.391 . S
C552 C554 1.394 1_565 S
C552 H568 0.931 . S
C553 C552 1.391 . S
C553 C557 1.376 1_565 S
C554 C552 1.394 1_545 S
C554 C555 1.369 . S
C554 C558 1.531 . S
C555 C554 1.369 . S
C555 C556 1.410 . S
C555 C563 1.503 . S
C556 C555 1.410 . S
C556 C557 1.392 . S
C556 C559 1.511 . S
C557 C553 1.376 1_545 S
C557 C556 1.392 . S
C557 H569 0.929 . S
C558 C554 1.531 . S
C558 H570 0.960 . S
C558 H571 0.962 . S
C558 H572 0.960 1_545 S
C559 C556 1.511 . S
C559 H573 0.961 . S
C559 H574 0.961 . S
C559 H575 0.961 . S
C560 C561 1.370 . S
C560 C562 1.363 . S
C560 H576 0.931 . S
C561 C560 1.370 . S
C561 C565 1.408 . S
C562 C560 1.363 . S
C562 C563 1.370 . S
C562 C566 1.524 . S
C563 C555 1.503 . S
C563 C562 1.370 . S
C563 C564 1.403 . S
C564 C563 1.403 . S
C564 C565 1.404 . S
C564 C567 1.539 . S
C565 C561 1.408 . S
C565 C564 1.404 . S
C565 H577 0.930 . S
C566 C562 1.524 . S
C566 H578 0.956 . S
C566 H579 0.961 . S
C566 H580 0.961 . S
C567 C564 1.539 . S
C567 H581 0.958 . S
C567 H582 0.961 . S
C567 H583 0.960 . S
H568 C552 0.931 . S
H569 C557 0.929 . S
H570 C558 0.960 . S
H571 C558 0.962 . S
H572 C558 0.960 1_565 S
H573 C559 0.961 . S
H574 C559 0.961 . S
H575 C559 0.961 . S
H576 C560 0.931 . S
H577 C565 0.930 . S
H578 C566 0.956 . S
H579 C566 0.961 . S
H580 C566 0.961 . S
H581 C567 0.958 . S
H582 C567 0.961 . S
H583 C567 0.960 . S
C584 C585 1.391 . S
C584 C586 1.394 . S
C584 H600 0.931 . S
C585 C584 1.391 . S
C585 C589 1.376 . S
C586 C584 1.394 . S
C586 C587 1.369 . S
C586 C590 1.531 . S
C587 C586 1.369 . S
C587 C588 1.410 . S
C587 C595 1.503 . S
C588 C587 1.410 . S
C588 C589 1.392 . S
C588 C591 1.511 . S
C589 C585 1.376 . S
C589 C588 1.392 . S
C589 H601 0.929 . S
C590 C586 1.531 . S
C590 H602 0.960 . S
C590 H603 0.962 . S
C590 H604 0.960 . S
C591 C588 1.511 . S
C591 H605 0.961 . S
C591 H606 0.961 . S
C591 H607 0.961 . S
C592 C593 1.370 . S
C592 C594 1.363 . S
C592 H608 0.931 . S
C593 C592 1.370 . S
C593 C597 1.408 . S
C594 C592 1.363 . S
C594 C595 1.370 . S
C594 C598 1.524 . S
C595 C587 1.503 . S
C595 C594 1.370 . S
C595 C596 1.403 . S
C596 C595 1.403 . S
C596 C597 1.404 . S
C596 C599 1.539 . S
C597 C593 1.408 . S
C597 C596 1.404 . S
C597 H609 0.930 . S
C598 C594 1.524 . S
C598 H610 0.956 . S
C598 H611 0.961 . S
C598 H612 0.961 . S
C599 C596 1.539 . S
C599 H613 0.958 . S
C599 H614 0.961 . S
C599 H615 0.960 . S
H600 C584 0.931 . S
H601 C589 0.929 . S
H602 C590 0.960 . S
H603 C590 0.962 . S
H604 C590 0.960 . S
H605 C591 0.961 . S
H606 C591 0.961 . S
H607 C591 0.961 . S
H608 C592 0.931 . S
H609 C597 0.930 . S
H610 C598 0.956 . S
H611 C598 0.961 . S
H612 C598 0.961 . S
H613 C599 0.958 . S
H614 C599 0.961 . S
H615 C599 0.960 . S
C616 C617 1.391 . S
C616 C618 1.394 . S
C616 H632 0.931 . S
C617 C616 1.391 . S
C617 C621 1.376 . S
C618 C616 1.394 . S
C618 C619 1.369 . S
C618 C622 1.531 . S
C619 C618 1.369 . S
C619 C620 1.410 . S
C619 C627 1.503 . S
C620 C619 1.410 . S
C620 C621 1.392 . S
C620 C623 1.511 . S
C621 C617 1.376 . S
C621 C620 1.392 . S
C621 H633 0.929 . S
C622 C618 1.531 . S
C622 H634 0.960 . S
C622 H635 0.962 . S
C622 H636 0.960 . S
C623 C620 1.511 . S
C623 H637 0.961 . S
C623 H638 0.961 . S
C623 H639 0.961 . S
C624 C625 1.370 . S
C624 C626 1.363 1_455 S
C624 H640 0.931 . S
C625 C624 1.370 . S
C625 C629 1.408 1_455 S
C626 C624 1.363 1_655 S
C626 C627 1.370 . S
C626 C630 1.524 . S
C627 C619 1.503 . S
C627 C626 1.370 . S
C627 C628 1.403 . S
C628 C627 1.403 . S
C628 C629 1.404 . S
C628 C631 1.539 . S
C629 C625 1.408 1_655 S
C629 C628 1.404 . S
C629 H641 0.930 . S
C630 C626 1.524 . S
C630 H642 0.956 . S
C630 H643 0.961 . S
C630 H644 0.961 . S
C631 C628 1.539 . S
C631 H645 0.958 . S
C631 H646 0.961 . S
C631 H647 0.960 . S
H632 C616 0.931 . S
H633 C621 0.929 . S
H634 C622 0.960 . S
H635 C622 0.962 . S
H636 C622 0.960 . S
H637 C623 0.961 . S
H638 C623 0.961 . S
H639 C623 0.961 . S
H640 C624 0.931 . S
H641 C629 0.930 . S
H642 C630 0.956 . S
H643 C630 0.961 . S
H644 C630 0.961 . S
H645 C631 0.958 . S
H646 C631 0.961 . S
H647 C631 0.960 . S
C648 C649 1.391 . S
C648 C650 1.394 . S
C648 H664 0.931 . S
C649 C648 1.391 . S
C649 C653 1.376 . S
C650 C648 1.394 . S
C650 C651 1.369 . S
C650 C654 1.531 . S
C651 C650 1.369 . S
C651 C652 1.410 . S
C651 C659 1.503 . S
C652 C651 1.410 . S
C652 C653 1.392 . S
C652 C655 1.511 . S
C653 C649 1.376 . S
C653 C652 1.392 . S
C653 H665 0.929 . S
C654 C650 1.531 . S
C654 H666 0.960 . S
C654 H667 0.962 . S
C654 H668 0.960 . S
C655 C652 1.511 . S
C655 H669 0.961 . S
C655 H670 0.961 . S
C655 H671 0.961 . S
C656 C657 1.370 1_545 S
C656 C658 1.363 . S
C656 H672 0.931 1_545 S
C657 C656 1.370 1_565 S
C657 C661 1.408 . S
C658 C656 1.363 . S
C658 C659 1.370 . S
C658 C662 1.524 . S
C659 C651 1.503 . S
C659 C658 1.370 . S
C659 C660 1.403 . S
C660 C659 1.403 . S
C660 C661 1.404 1_545 S
C660 C663 1.539 . S
C661 C657 1.408 . S
C661 C660 1.404 1_565 S
C661 H673 0.930 . S
C662 C658 1.524 . S
C662 H674 0.956 . S
C662 H675 0.961 . S
C662 H676 0.961 . S
C663 C660 1.539 . S
C663 H677 0.958 . S
C663 H678 0.961 . S
C663 H679 0.960 . S
H664 C648 0.931 . S
H665 C653 0.929 . S
H666 C654 0.960 . S
H667 C654 0.962 . S
H668 C654 0.960 . S
H669 C655 0.961 . S
H670 C655 0.961 . S
H671 C655 0.961 . S
H672 C656 0.931 1_565 S
H673 C661 0.930 . S
H674 C662 0.956 . S
H675 C662 0.961 . S
H676 C662 0.961 . S
H677 C663 0.958 . S
H678 C663 0.961 . S
H679 C663 0.960 . S
C680 C681 1.391 . S
C680 C682 1.394 . S
C680 H696 0.931 1_655 S
C681 C680 1.391 . S
C681 C685 1.376 . S
C682 C680 1.394 . S
C682 C683 1.369 . S
C682 C686 1.531 . S
C683 C682 1.369 . S
C683 C684 1.410 . S
C683 C691 1.503 . S
C684 C683 1.410 . S
C684 C685 1.392 . S
C684 C687 1.511 . S
C685 C681 1.376 . S
C685 C684 1.392 . S
C685 H697 0.929 . S
C686 C682 1.531 . S
C686 H698 0.960 . S
C686 H699 0.962 . S
C686 H700 0.960 . S
C687 C684 1.511 . S
C687 H701 0.961 . S
C687 H702 0.961 . S
C687 H703 0.961 . S
C688 C689 1.370 . S
C688 C690 1.363 . S
C688 H704 0.931 . S
C689 C688 1.370 . S
C689 C693 1.408 . S
C690 C688 1.363 . S
C690 C691 1.370 . S
C690 C694 1.524 . S
C691 C683 1.503 . S
C691 C690 1.370 . S
C691 C692 1.403 . S
C692 C691 1.403 . S
C692 C693 1.404 . S
C692 C695 1.539 . S
C693 C689 1.408 . S
C693 C692 1.404 . S
C693 H705 0.930 . S
C694 C690 1.524 . S
C694 H706 0.956 . S
C694 H707 0.961 . S
C694 H708 0.961 . S
C695 C692 1.539 . S
C695 H709 0.958 . S
C695 H710 0.961 . S
C695 H711 0.960 . S
H696 C680 0.931 1_455 S
H697 C685 0.929 . S
H698 C686 0.960 . S
H699 C686 0.962 . S
H700 C686 0.960 . S
H701 C687 0.961 . S
H702 C687 0.961 . S
H703 C687 0.961 . S
H704 C688 0.931 . S
H705 C693 0.930 . S
H706 C694 0.956 . S
H707 C694 0.961 . S
H708 C694 0.961 . S
H709 C695 0.958 . S
H710 C695 0.961 . S
H711 C695 0.960 . S
C712 C713 1.391 1_655 S
C712 C714 1.394 . S
C712 H728 0.931 . S
C713 C712 1.391 1_455 S
C713 C717 1.376 . S
C714 C712 1.394 . S
C714 C715 1.369 . S
C714 C718 1.531 . S
C715 C714 1.369 . S
C715 C716 1.410 . S
C715 C723 1.503 . S
C716 C715 1.410 . S
C716 C717 1.392 1_655 S
C716 C719 1.511 1_655 S
C717 C713 1.376 . S
C717 C716 1.392 1_455 S
C717 H729 0.929 . S
C718 C714 1.531 . S
C718 H730 0.960 . S
C718 H731 0.962 . S
C718 H732 0.960 . S
C719 C716 1.511 1_455 S
C719 H733 0.961 . S
C719 H734 0.961 1_455 S
C719 H735 0.961 . S
C720 C721 1.370 . S
C720 C722 1.363 . S
C720 H736 0.931 . S
C721 C720 1.370 . S
C721 C725 1.408 . S
C722 C720 1.363 . S
C722 C723 1.370 . S
C722 C726 1.524 . S
C723 C715 1.503 . S
C723 C722 1.370 . S
C723 C724 1.403 . S
C724 C723 1.403 . S
C724 C725 1.404 . S
C724 C727 1.539 . S
C725 C721 1.408 . S
C725 C724 1.404 . S
C725 H737 0.930 1_545 S
C726 C722 1.524 . S
C726 H738 0.956 . S
C726 H739 0.961 . S
C726 H740 0.961 . S
C727 C724 1.539 . S
C727 H741 0.958 . S
C727 H742 0.961 . S
C727 H743 0.960 . S
H728 C712 0.931 . S
H729 C717 0.929 . S
H730 C718 0.960 . S
H731 C718 0.962 . S
H732 C718 0.960 . S
H733 C719 0.961 . S
H734 C719 0.961 1_655 S
H735 C719 0.961 . S
H736 C720 0.931 . S
H737 C725 0.930 1_565 S
H738 C726 0.956 . S
H739 C726 0.961 . S
H740 C726 0.961 . S
H741 C727 0.958 . S
H742 C727 0.961 . S
H743 C727 0.960 . S
C744 C745 1.391 . S
C744 C746 1.394 . S
C744 H760 0.931 . S
C745 C744 1.391 . S
C745 C749 1.376 . S
C746 C744 1.394 . S
C746 C747 1.369 . S
C746 C750 1.531 . S
C747 C746 1.369 . S
C747 C748 1.410 . S
C747 C755 1.503 . S
C748 C747 1.410 . S
C748 C749 1.392 . S
C748 C751 1.511 . S
C749 C745 1.376 . S
C749 C748 1.392 . S
C749 H761 0.929 . S
C750 C746 1.531 . S
C750 H762 0.960 . S
C750 H763 0.962 . S
C750 H764 0.960 . S
C751 C748 1.511 . S
C751 H765 0.961 . S
C751 H766 0.961 . S
C751 H767 0.961 . S
C752 C753 1.370 . S
C752 C754 1.363 . S
C752 H768 0.931 . S
C753 C752 1.370 . S
C753 C757 1.408 . S
C754 C752 1.363 . S
C754 C755 1.370 . S
C754 C758 1.524 . S
C755 C747 1.503 . S
C755 C754 1.370 . S
C755 C756 1.403 . S
C756 C755 1.403 . S
C756 C757 1.404 . S
C756 C759 1.539 . S
C757 C753 1.408 . S
C757 C756 1.404 . S
C757 H769 0.930 . S
C758 C754 1.524 . S
C758 H770 0.956 . S
C758 H771 0.961 . S
C758 H772 0.961 . S
C759 C756 1.539 . S
C759 H773 0.958 . S
C759 H774 0.961 . S
C759 H775 0.960 . S
H760 C744 0.931 . S
H761 C749 0.929 . S
H762 C750 0.960 . S
H763 C750 0.962 . S
H764 C750 0.960 . S
H765 C751 0.961 . S
H766 C751 0.961 . S
H767 C751 0.961 . S
H768 C752 0.931 . S
H769 C757 0.930 . S
H770 C758 0.956 . S
H771 C758 0.961 . S
H772 C758 0.961 . S
H773 C759 0.958 . S
H774 C759 0.961 . S
H775 C759 0.960 . S
C776 C777 1.391 . S
C776 C778 1.394 . S
C776 H792 0.931 . S
C777 C776 1.391 . S
C777 C781 1.376 . S
C778 C776 1.394 . S
C778 C779 1.369 . S
C778 C782 1.531 . S
C779 C778 1.369 . S
C779 C780 1.410 . S
C779 C787 1.503 . S
C780 C779 1.410 . S
C780 C781 1.392 . S
C780 C783 1.511 . S
C781 C777 1.376 . S
C781 C780 1.392 . S
C781 H793 0.929 . S
C782 C778 1.531 . S
C782 H794 0.960 . S
C782 H795 0.962 . S
C782 H796 0.960 . S
C783 C780 1.511 . S
C783 H797 0.961 . S
C783 H798 0.961 . S
C783 H799 0.961 . S
C784 C785 1.370 . S
C784 C786 1.363 . S
C784 H800 0.931 . S
C785 C784 1.370 . S
C785 C789 1.408 . S
C786 C784 1.363 . S
C786 C787 1.370 . S
C786 C790 1.524 . S
C787 C779 1.503 . S
C787 C786 1.370 . S
C787 C788 1.403 . S
C788 C787 1.403 . S
C788 C789 1.404 . S
C788 C791 1.539 . S
C789 C785 1.408 . S
C789 C788 1.404 . S
C789 H801 0.930 . S
C790 C786 1.524 . S
C790 H802 0.956 . S
C790 H803 0.961 . S
C790 H804 0.961 . S
C791 C788 1.539 . S
C791 H805 0.958 . S
C791 H806 0.961 . S
C791 H807 0.960 . S
H792 C776 0.931 . S
H793 C781 0.929 . S
H794 C782 0.960 . S
H795 C782 0.962 . S
H796 C782 0.960 . S
H797 C783 0.961 . S
H798 C783 0.961 . S
H799 C783 0.961 . S
H800 C784 0.931 . S
H801 C789 0.930 . S
H802 C790 0.956 . S
H803 C790 0.961 . S
H804 C790 0.961 . S
H805 C791 0.958 . S
H806 C791 0.961 . S
H807 C791 0.960 . S
C808 C809 1.391 . S
C808 C810 1.394 . S
C808 H824 0.931 . S
C809 C808 1.391 . S
C809 C813 1.376 . S
C810 C808 1.394 . S
C810 C811 1.369 . S
C810 C814 1.531 . S
C811 C810 1.369 . S
C811 C812 1.410 . S
C811 C819 1.503 . S
C812 C811 1.410 . S
C812 C813 1.392 . S
C812 C815 1.511 . S
C813 C809 1.376 . S
C813 C812 1.392 . S
C813 H825 0.929 . S
C814 C810 1.531 . S
C814 H826 0.960 . S
C814 H827 0.962 . S
C814 H828 0.960 . S
C815 C812 1.511 . S
C815 H829 0.961 . S
C815 H830 0.961 . S
C815 H831 0.961 . S
C816 C817 1.370 . S
C816 C818 1.363 . S
C816 H832 0.931 . S
C817 C816 1.370 . S
C817 C821 1.408 . S
C818 C816 1.363 . S
C818 C819 1.370 . S
C818 C822 1.524 . S
C819 C811 1.503 . S
C819 C818 1.370 . S
C819 C820 1.403 . S
C820 C819 1.403 . S
C820 C821 1.404 . S
C820 C823 1.539 . S
C821 C817 1.408 . S
C821 C820 1.404 . S
C821 H833 0.930 . S
C822 C818 1.524 . S
C822 H834 0.956 . S
C822 H835 0.961 . S
C822 H836 0.961 . S
C823 C820 1.539 . S
C823 H837 0.958 . S
C823 H838 0.961 . S
C823 H839 0.960 . S
H824 C808 0.931 . S
H825 C813 0.929 . S
H826 C814 0.960 . S
H827 C814 0.962 . S
H828 C814 0.960 . S
H829 C815 0.961 . S
H830 C815 0.961 . S
H831 C815 0.961 . S
H832 C816 0.931 . S
H833 C821 0.930 . S
H834 C822 0.956 . S
H835 C822 0.961 . S
H836 C822 0.961 . S
H837 C823 0.958 . S
H838 C823 0.961 . S
H839 C823 0.960 . S
C840 C841 1.391 . S
C840 C842 1.394 . S
C840 H856 0.931 . S
C841 C840 1.391 . S
C841 C845 1.376 . S
C842 C840 1.394 . S
C842 C843 1.369 . S
C842 C846 1.531 . S
C843 C842 1.369 . S
C843 C844 1.410 . S
C843 C851 1.503 . S
C844 C843 1.410 . S
C844 C845 1.392 . S
C844 C847 1.511 . S
C845 C841 1.376 . S
C845 C844 1.392 . S
C845 H857 0.929 . S
C846 C842 1.531 . S
C846 H858 0.960 . S
C846 H859 0.962 . S
C846 H860 0.960 . S
C847 C844 1.511 . S
C847 H861 0.961 . S
C847 H862 0.961 . S
C847 H863 0.961 . S
C848 C849 1.370 . S
C848 C850 1.363 . S
C848 H864 0.931 . S
C849 C848 1.370 . S
C849 C853 1.408 . S
C850 C848 1.363 . S
C850 C851 1.370 . S
C850 C854 1.524 . S
C851 C843 1.503 . S
C851 C850 1.370 . S
C851 C852 1.403 . S
C852 C851 1.403 . S
C852 C853 1.404 . S
C852 C855 1.539 . S
C853 C849 1.408 . S
C853 C852 1.404 . S
C853 H865 0.930 . S
C854 C850 1.524 . S
C854 H866 0.956 . S
C854 H867 0.961 . S
C854 H868 0.961 . S
C855 C852 1.539 . S
C855 H869 0.958 . S
C855 H870 0.961 . S
C855 H871 0.960 . S
H856 C840 0.931 . S
H857 C845 0.929 . S
H858 C846 0.960 . S
H859 C846 0.962 . S
H860 C846 0.960 . S
H861 C847 0.961 . S
H862 C847 0.961 . S
H863 C847 0.961 . S
H864 C848 0.931 . S
H865 C853 0.930 . S
H866 C854 0.956 . S
H867 C854 0.961 . S
H868 C854 0.961 . S
H869 C855 0.958 . S
H870 C855 0.961 . S
H871 C855 0.960 . S
C872 C873 1.391 . S
C872 C874 1.394 . S
C872 H888 0.931 . S
C873 C872 1.391 . S
C873 C877 1.376 . S
C874 C872 1.394 . S
C874 C875 1.369 . S
C874 C878 1.531 . S
C875 C874 1.369 . S
C875 C876 1.410 . S
C875 C883 1.503 . S
C876 C875 1.410 . S
C876 C877 1.392 . S
C876 C879 1.511 . S
C877 C873 1.376 . S
C877 C876 1.392 . S
C877 H889 0.929 . S
C878 C874 1.531 . S
C878 H890 0.960 . S
C878 H891 0.962 . S
C878 H892 0.960 . S
C879 C876 1.511 . S
C879 H893 0.961 . S
C879 H894 0.961 . S
C879 H895 0.961 . S
C880 C881 1.370 . S
C880 C882 1.363 . S
C880 H896 0.931 . S
C881 C880 1.370 . S
C881 C885 1.408 . S
C882 C880 1.363 . S
C882 C883 1.370 . S
C882 C886 1.524 . S
C883 C875 1.503 . S
C883 C882 1.370 . S
C883 C884 1.403 . S
C884 C883 1.403 . S
C884 C885 1.404 . S
C884 C887 1.539 . S
C885 C881 1.408 . S
C885 C884 1.404 . S
C885 H897 0.930 . S
C886 C882 1.524 . S
C886 H898 0.956 . S
C886 H899 0.961 . S
C886 H900 0.961 . S
C887 C884 1.539 . S
C887 H901 0.958 . S
C887 H902 0.961 . S
C887 H903 0.960 . S
H888 C872 0.931 . S
H889 C877 0.929 . S
H890 C878 0.960 . S
H891 C878 0.962 . S
H892 C878 0.960 . S
H893 C879 0.961 . S
H894 C879 0.961 . S
H895 C879 0.961 . S
H896 C880 0.931 . S
H897 C885 0.930 . S
H898 C886 0.956 . S
H899 C886 0.961 . S
H900 C886 0.961 . S
H901 C887 0.958 . S
H902 C887 0.961 . S
H903 C887 0.960 . S
C904 C905 1.391 . S
C904 C906 1.394 . S
C904 H920 0.931 . S
C905 C904 1.391 . S
C905 C909 1.376 . S
C906 C904 1.394 . S
C906 C907 1.369 . S
C906 C910 1.531 . S
C907 C906 1.369 . S
C907 C908 1.410 . S
C907 C915 1.503 . S
C908 C907 1.410 . S
C908 C909 1.392 . S
C908 C911 1.511 . S
C909 C905 1.376 . S
C909 C908 1.392 . S
C909 H921 0.929 . S
C910 C906 1.531 . S
C910 H922 0.960 . S
C910 H923 0.962 . S
C910 H924 0.960 . S
C911 C908 1.511 . S
C911 H925 0.961 . S
C911 H926 0.961 . S
C911 H927 0.961 . S
C912 C913 1.370 . S
C912 C914 1.363 . S
C912 H928 0.931 . S
C913 C912 1.370 . S
C913 C917 1.408 . S
C914 C912 1.363 . S
C914 C915 1.370 . S
C914 C918 1.524 . S
C915 C907 1.503 . S
C915 C914 1.370 . S
C915 C916 1.403 . S
C916 C915 1.403 . S
C916 C917 1.404 . S
C916 C919 1.539 . S
C917 C913 1.408 . S
C917 C916 1.404 . S
C917 H929 0.930 . S
C918 C914 1.524 . S
C918 H930 0.956 . S
C918 H931 0.961 . S
C918 H932 0.961 . S
C919 C916 1.539 . S
C919 H933 0.958 . S
C919 H934 0.961 . S
C919 H935 0.960 . S
H920 C904 0.931 . S
H921 C909 0.929 . S
H922 C910 0.960 . S
H923 C910 0.962 . S
H924 C910 0.960 . S
H925 C911 0.961 . S
H926 C911 0.961 . S
H927 C911 0.961 . S
H928 C912 0.931 . S
H929 C917 0.930 . S
H930 C918 0.956 . S
H931 C918 0.961 . S
H932 C918 0.961 . S
H933 C919 0.958 . S
H934 C919 0.961 . S
H935 C919 0.960 . S
C936 C937 1.391 . S
C936 C938 1.394 . S
C936 H952 0.931 . S
C937 C936 1.391 . S
C937 C941 1.376 . S
C938 C936 1.394 . S
C938 C939 1.369 . S
C938 C942 1.531 1_565 S
C939 C938 1.369 . S
C939 C940 1.410 . S
C939 C947 1.503 1_566 S
C940 C939 1.410 . S
C940 C941 1.392 . S
C940 C943 1.518 . S
C941 C937 1.376 . S
C941 C940 1.392 . S
C941 H953 0.929 . S
C942 C938 1.531 1_545 S
C942 H954 0.960 . S
C942 H955 0.962 . S
C942 H956 0.960 . S
C943 C940 1.518 . S
C943 H957 0.960 1_556 S
C943 H958 0.951 1_556 S
C943 H959 0.965 . S
C944 C945 1.370 . S
C944 C946 1.363 . S
C944 H960 0.931 . S
C945 C944 1.370 . S
C945 C949 1.408 . S
C946 C944 1.363 . S
C946 C947 1.370 . S
C946 C950 1.524 1_545 S
C947 C939 1.503 1_544 S
C947 C946 1.370 . S
C947 C948 1.403 . S
C948 C947 1.403 . S
C948 C949 1.404 . S
C948 C951 1.539 1_554 S
C949 C945 1.408 . S
C949 C948 1.404 . S
C949 H961 0.930 . S
C950 C946 1.524 1_565 S
C950 H962 0.956 . S
C950 H963 0.961 . S
C950 H964 0.961 . S
C951 C948 1.539 1_556 S
C951 H965 0.958 . S
C951 H966 0.961 . S
C951 H967 0.960 . S
H952 C936 0.931 . S
H953 C941 0.929 . S
H954 C942 0.960 . S
H955 C942 0.962 . S
H956 C942 0.960 . S
H957 C943 0.960 1_554 S
H958 C943 0.951 1_554 S
H959 C943 0.965 . S
H960 C944 0.931 . S
H961 C949 0.930 . S
H962 C950 0.956 . S
H963 C950 0.961 . S
H964 C950 0.961 . S
H965 C951 0.958 . S
H966 C951 0.961 . S
H967 C951 0.960 . S
C968 C969 1.391 . S
C968 C970 1.394 . S
C968 H984 0.931 . S
C969 C968 1.391 . S
C969 C973 1.376 . S
C970 C968 1.394 . S
C970 C971 1.369 . S
C970 C974 1.531 . S
C971 C970 1.369 . S
C971 C972 1.410 . S
C971 C979 1.503 . S
C972 C971 1.410 . S
C972 C973 1.392 . S
C972 C975 1.511 . S
C973 C969 1.376 . S
C973 C972 1.392 . S
C973 H985 0.929 . S
C974 C970 1.531 . S
C974 H986 0.960 . S
C974 H987 0.962 . S
C974 H988 0.960 . S
C975 C972 1.511 . S
C975 H989 0.961 . S
C975 H990 0.961 . S
C975 H991 0.961 . S
C976 C977 1.370 . S
C976 C978 1.363 . S
C976 H992 0.931 . S
C977 C976 1.370 . S
C977 C981 1.408 . S
C978 C976 1.363 . S
C978 C979 1.370 . S
C978 C982 1.524 . S
C979 C971 1.503 . S
C979 C978 1.370 . S
C979 C980 1.403 . S
C980 C979 1.403 . S
C980 C981 1.404 . S
C980 C983 1.539 . S
C981 C977 1.408 . S
C981 C980 1.404 . S
C981 H993 0.930 . S
C982 C978 1.524 . S
C982 H994 0.956 . S
C982 H995 0.961 . S
C982 H996 0.961 . S
C983 C980 1.539 . S
C983 H997 0.958 . S
C983 H998 0.961 . S
C983 H999 0.960 . S
H984 C968 0.931 . S
H985 C973 0.929 . S
H986 C974 0.960 . S
H987 C974 0.962 . S
H988 C974 0.960 . S
H989 C975 0.961 . S
H990 C975 0.961 . S
H991 C975 0.961 . S
H992 C976 0.931 . S
H993 C981 0.930 . S
H994 C982 0.956 . S
H995 C982 0.961 . S
H996 C982 0.961 . S
H997 C983 0.958 . S
H998 C983 0.961 . S
H999 C983 0.960 . S
C1000 C1001 1.391 . S
C1000 C1002 1.394 . S
C1000 H1016 0.931 . S
C1001 C1000 1.391 . S
C1001 C1005 1.376 . S
C1002 C1000 1.394 . S
C1002 C1003 1.369 . S
C1002 C1006 1.531 1_455 S
C1003 C1002 1.369 . S
C1003 C1004 1.410 . S
C1003 C1011 1.503 1_456 S
C1004 C1003 1.410 . S
C1004 C1005 1.392 . S
C1004 C1007 1.511 1_556 S
C1005 C1001 1.376 . S
C1005 C1004 1.392 . S
C1005 H1017 0.929 . S
C1006 C1002 1.531 1_655 S
C1006 H1018 0.960 . S
C1006 H1019 0.962 . S
C1006 H1020 0.960 . S
C1007 C1004 1.511 1_554 S
C1007 H1021 0.961 . S
C1007 H1022 0.961 . S
C1007 H1023 0.961 . S
C1008 C1009 1.370 . S
C1008 C1010 1.363 . S
C1008 H1024 0.931 . S
C1009 C1008 1.370 . S
C1009 C1013 1.408 . S
C1010 C1008 1.363 . S
C1010 C1011 1.370 . S
C1010 C1014 1.524 1_655 S
C1011 C1003 1.503 1_654 S
C1011 C1010 1.370 . S
C1011 C1012 1.403 . S
C1012 C1011 1.403 . S
C1012 C1013 1.404 . S
C1012 C1015 1.539 1_554 S
C1013 C1009 1.408 . S
C1013 C1012 1.404 . S
C1013 H1025 0.930 . S
C1014 C1010 1.524 1_455 S
C1014 H1026 0.956 . S
C1014 H1027 0.961 . S
C1014 H1028 0.961 . S
C1015 C1012 1.539 1_556 S
C1015 H1029 0.958 . S
C1015 H1030 0.961 . S
C1015 H1031 0.960 . S
H1016 C1000 0.931 . S
H1017 C1005 0.929 . S
H1018 C1006 0.960 . S
H1019 C1006 0.962 . S
H1020 C1006 0.960 . S
H1021 C1007 0.961 . S
H1022 C1007 0.961 . S
H1023 C1007 0.961 . S
H1024 C1008 0.931 . S
H1025 C1013 0.930 . S
H1026 C1014 0.956 . S
H1027 C1014 0.961 . S
H1028 C1014 0.961 . S
H1029 C1015 0.958 . S
H1030 C1015 0.961 . S
H1031 C1015 0.960 . S
C1032 C1033 1.391 . S
C1032 C1034 1.394 . S
C1032 H1048 0.931 . S
C1033 C1032 1.391 . S
C1033 C1037 1.376 . S
C1034 C1032 1.394 . S
C1034 C1035 1.369 . S
C1034 C1038 1.531 1_545 S
C1035 C1034 1.369 . S
C1035 C1036 1.410 . S
C1035 C1043 1.503 1_545 S
C1036 C1035 1.410 . S
C1036 C1037 1.392 . S
C1036 C1039 1.511 . S
C1037 C1033 1.376 . S
C1037 C1036 1.392 . S
C1037 H1049 0.929 . S
C1038 C1034 1.531 1_565 S
C1038 H1050 0.960 . S
C1038 H1051 0.962 . S
C1038 H1052 0.960 . S
C1039 C1036 1.511 . S
C1039 H1053 0.961 . S
C1039 H1054 0.961 . S
C1039 H1055 0.961 . S
C1040 C1041 1.370 . S
C1040 C1042 1.363 . S
C1040 H1056 0.931 . S
C1041 C1040 1.370 . S
C1041 C1045 1.408 . S
C1042 C1040 1.363 . S
C1042 C1043 1.370 . S
C1042 C1046 1.524 1_565 S
C1043 C1035 1.503 1_565 S
C1043 C1042 1.370 . S
C1043 C1044 1.403 . S
C1044 C1043 1.403 . S
C1044 C1045 1.404 . S
C1044 C1047 1.539 . S
C1045 C1041 1.408 . S
C1045 C1044 1.404 . S
C1045 H1057 0.930 . S
C1046 C1042 1.524 1_545 S
C1046 H1058 0.956 . S
C1046 H1059 0.961 . S
C1046 H1060 0.961 . S
C1047 C1044 1.539 . S
C1047 H1061 0.958 . S
C1047 H1062 0.961 . S
C1047 H1063 0.960 . S
H1048 C1032 0.931 . S
H1049 C1037 0.929 . S
H1050 C1038 0.960 . S
H1051 C1038 0.962 . S
H1052 C1038 0.960 . S
H1053 C1039 0.961 . S
H1054 C1039 0.961 . S
H1055 C1039 0.961 . S
H1056 C1040 0.931 . S
H1057 C1045 0.930 . S
H1058 C1046 0.956 . S
H1059 C1046 0.961 . S
H1060 C1046 0.961 . S
H1061 C1047 0.958 . S
H1062 C1047 0.961 . S
H1063 C1047 0.960 . S
C1064 C1065 1.391 . S
C1064 C1066 1.394 . S
C1064 H1080 0.931 . S
C1065 C1064 1.391 . S
C1065 C1069 1.376 . S
C1066 C1064 1.394 . S
C1066 C1067 1.369 . S
C1066 C1070 1.531 . S
C1067 C1066 1.369 . S
C1067 C1068 1.410 . S
C1067 C1075 1.503 1_554 S
C1068 C1067 1.410 . S
C1068 C1069 1.392 . S
C1068 C1071 1.511 1_554 S
C1069 C1065 1.376 . S
C1069 C1068 1.392 . S
C1069 H1081 0.929 . S
C1070 C1066 1.531 . S
C1070 H1082 0.960 . S
C1070 H1083 0.962 . S
C1070 H1084 0.960 . S
C1071 C1068 1.511 1_556 S
C1071 H1085 0.961 . S
C1071 H1086 0.961 . S
C1071 H1087 0.961 . S
C1072 C1073 1.370 . S
C1072 C1074 1.363 . S
C1072 H1088 0.931 . S
C1073 C1072 1.370 . S
C1073 C1077 1.408 . S
C1074 C1072 1.363 . S
C1074 C1075 1.370 . S
C1074 C1078 1.524 1_556 S
C1075 C1067 1.503 1_556 S
C1075 C1074 1.370 . S
C1075 C1076 1.403 . S
C1076 C1075 1.403 . S
C1076 C1077 1.404 . S
C1076 C1079 1.539 . S
C1077 C1073 1.408 . S
C1077 C1076 1.404 . S
C1077 H1089 0.930 . S
C1078 C1074 1.524 1_554 S
C1078 H1090 0.956 . S
C1078 H1091 0.961 . S
C1078 H1092 0.961 . S
C1079 C1076 1.539 . S
C1079 H1093 0.958 . S
C1079 H1094 0.961 . S
C1079 H1095 0.960 . S
H1080 C1064 0.931 . S
H1081 C1069 0.929 . S
H1082 C1070 0.960 . S
H1083 C1070 0.962 . S
H1084 C1070 0.960 . S
H1085 C1071 0.961 . S
H1086 C1071 0.961 . S
H1087 C1071 0.961 . S
H1088 C1072 0.931 . S
H1089 C1077 0.930 . S
H1090 C1078 0.956 . S
H1091 C1078 0.961 . S
H1092 C1078 0.961 . S
H1093 C1079 0.958 . S
H1094 C1079 0.961 . S
H1095 C1079 0.960 . S
C1096 C1097 1.391 . S
C1096 C1098 1.394 . S
C1096 H1112 0.931 . S
C1097 C1096 1.391 . S
C1097 C1101 1.376 . S
C1098 C1096 1.394 . S
C1098 C1099 1.369 . S
C1098 C1102 1.531 . S
C1099 C1098 1.369 . S
C1099 C1100 1.410 . S
C1099 C1107 1.503 1_455 S
C1100 C1099 1.410 . S
C1100 C1101 1.392 . S
C1100 C1103 1.511 1_455 S
C1101 C1097 1.376 . S
C1101 C1100 1.392 . S
C1101 H1113 0.929 . S
C1102 C1098 1.531 . S
C1102 H1114 0.960 . S
C1102 H1115 0.962 . S
C1102 H1116 0.960 . S
C1103 C1100 1.511 1_655 S
C1103 H1117 0.961 . S
C1103 H1118 0.961 . S
C1103 H1119 0.961 . S
C1104 C1105 1.370 . S
C1104 C1106 1.363 . S
C1104 H1120 0.931 . S
C1105 C1104 1.370 . S
C1105 C1109 1.408 . S
C1106 C1104 1.363 . S
C1106 C1107 1.370 . S
C1106 C1110 1.524 1_655 S
C1107 C1099 1.503 1_655 S
C1107 C1106 1.370 . S
C1107 C1108 1.403 . S
C1108 C1107 1.403 . S
C1108 C1109 1.404 . S
C1108 C1111 1.539 . S
C1109 C1105 1.408 . S
C1109 C1108 1.404 . S
C1109 H1121 0.930 . S
C1110 C1106 1.524 1_455 S
C1110 H1122 0.956 . S
C1110 H1123 0.961 . S
C1110 H1124 0.961 . S
C1111 C1108 1.539 . S
C1111 H1125 0.958 . S
C1111 H1126 0.961 . S
C1111 H1127 0.960 . S
H1112 C1096 0.931 . S
H1113 C1101 0.929 . S
H1114 C1102 0.960 . S
H1115 C1102 0.962 . S
H1116 C1102 0.960 . S
H1117 C1103 0.961 . S
H1118 C1103 0.961 . S
H1119 C1103 0.961 . S
H1120 C1104 0.931 . S
H1121 C1109 0.930 . S
H1122 C1110 0.956 . S
H1123 C1110 0.961 . S
H1124 C1110 0.961 . S
H1125 C1111 0.958 . S
H1126 C1111 0.961 . S
H1127 C1111 0.960 . S
C1128 C1129 1.391 . S
C1128 C1130 1.394 . S
C1128 H1144 0.931 . S
C1129 C1128 1.391 . S
C1129 C1133 1.376 . S
C1130 C1128 1.394 . S
C1130 C1131 1.369 . S
C1130 C1134 1.531 . S
C1131 C1130 1.369 . S
C1131 C1132 1.410 . S
C1131 C1139 1.503 . S
C1132 C1131 1.410 . S
C1132 C1133 1.392 . S
C1132 C1135 1.511 . S
C1133 C1129 1.376 . S
C1133 C1132 1.392 . S
C1133 H1145 0.929 . S
C1134 C1130 1.531 . S
C1134 H1146 0.960 . S
C1134 H1147 0.962 . S
C1134 H1148 0.960 . S
C1135 C1132 1.511 . S
C1135 H1149 0.961 . S
C1135 H1150 0.961 . S
C1135 H1151 0.961 . S
C1136 C1137 1.370 . S
C1136 C1138 1.363 . S
C1136 H1152 0.931 . S
C1137 C1136 1.370 . S
C1137 C1141 1.408 . S
C1138 C1136 1.363 . S
C1138 C1139 1.370 . S
C1138 C1142 1.524 . S
C1139 C1131 1.503 . S
C1139 C1138 1.370 . S
C1139 C1140 1.403 . S
C1140 C1139 1.403 . S
C1140 C1141 1.404 . S
C1140 C1143 1.539 . S
C1141 C1137 1.408 . S
C1141 C1140 1.404 . S
C1141 H1153 0.930 . S
C1142 C1138 1.524 . S
C1142 H1154 0.956 . S
C1142 H1155 0.961 . S
C1142 H1156 0.961 . S
C1143 C1140 1.539 . S
C1143 H1157 0.958 . S
C1143 H1158 0.961 . S
C1143 H1159 0.960 . S
H1144 C1128 0.931 . S
H1145 C1133 0.929 . S
H1146 C1134 0.960 . S
H1147 C1134 0.962 . S
H1148 C1134 0.960 . S
H1149 C1135 0.961 . S
H1150 C1135 0.961 . S
H1151 C1135 0.961 . S
H1152 C1136 0.931 . S
H1153 C1141 0.930 . S
H1154 C1142 0.956 . S
H1155 C1142 0.961 . S
H1156 C1142 0.961 . S
H1157 C1143 0.958 . S
H1158 C1143 0.961 . S
H1159 C1143 0.960 . S
C1160 C1161 1.391 . S
C1160 C1162 1.394 . S
C1160 H1176 0.931 . S
C1161 C1160 1.391 . S
C1161 C1165 1.376 . S
C1162 C1160 1.394 . S
C1162 C1163 1.369 . S
C1162 C1166 1.531 . S
C1163 C1162 1.369 . S
C1163 C1164 1.410 . S
C1163 C1171 1.503 . S
C1164 C1163 1.410 . S
C1164 C1165 1.392 . S
C1164 C1167 1.511 . S
C1165 C1161 1.376 . S
C1165 C1164 1.392 . S
C1165 H1177 0.929 . S
C1166 C1162 1.531 . S
C1166 H1178 0.960 . S
C1166 H1179 0.962 . S
C1166 H1180 0.960 . S
C1167 C1164 1.511 . S
C1167 H1181 0.961 . S
C1167 H1182 0.961 . S
C1167 H1183 0.961 . S
C1168 C1169 1.370 . S
C1168 C1170 1.363 . S
C1168 H1184 0.931 . S
C1169 C1168 1.370 . S
C1169 C1173 1.408 . S
C1170 C1168 1.363 . S
C1170 C1171 1.370 . S
C1170 C1174 1.524 . S
C1171 C1163 1.503 . S
C1171 C1170 1.370 . S
C1171 C1172 1.403 . S
C1172 C1171 1.403 . S
C1172 C1173 1.404 . S
C1172 C1175 1.539 . S
C1173 C1169 1.408 . S
C1173 C1172 1.404 . S
C1173 H1185 0.930 . S
C1174 C1170 1.524 . S
C1174 H1186 0.956 . S
C1174 H1187 0.961 . S
C1174 H1188 0.961 . S
C1175 C1172 1.539 . S
C1175 H1189 0.958 . S
C1175 H1190 0.961 . S
C1175 H1191 0.960 . S
H1176 C1160 0.931 . S
H1177 C1165 0.929 . S
H1178 C1166 0.960 . S
H1179 C1166 0.962 . S
H1180 C1166 0.960 . S
H1181 C1167 0.961 . S
H1182 C1167 0.961 . S
H1183 C1167 0.961 . S
H1184 C1168 0.931 . S
H1185 C1173 0.930 . S
H1186 C1174 0.956 . S
H1187 C1174 0.961 . S
H1188 C1174 0.961 . S
H1189 C1175 0.958 . S
H1190 C1175 0.961 . S
H1191 C1175 0.960 . S
C1192 C1193 1.391 . S
C1192 C1194 1.394 . S
C1192 H1208 0.931 . S
C1193 C1192 1.391 . S
C1193 C1197 1.376 . S
C1194 C1192 1.394 . S
C1194 C1195 1.369 . S
C1194 C1198 1.531 . S
C1195 C1194 1.369 . S
C1195 C1196 1.410 . S
C1195 C1203 1.503 . S
C1196 C1195 1.410 . S
C1196 C1197 1.392 . S
C1196 C1199 1.511 . S
C1197 C1193 1.376 . S
C1197 C1196 1.392 . S
C1197 H1209 0.929 . S
C1198 C1194 1.531 . S
C1198 H1210 0.960 . S
C1198 H1211 0.962 . S
C1198 H1212 0.960 . S
C1199 C1196 1.511 . S
C1199 H1213 0.961 . S
C1199 H1214 0.961 . S
C1199 H1215 0.961 . S
C1200 C1201 1.370 . S
C1200 C1202 1.363 . S
C1200 H1216 0.931 . S
C1201 C1200 1.370 . S
C1201 C1205 1.408 . S
C1202 C1200 1.363 . S
C1202 C1203 1.370 . S
C1202 C1206 1.524 . S
C1203 C1195 1.503 . S
C1203 C1202 1.370 . S
C1203 C1204 1.403 . S
C1204 C1203 1.403 . S
C1204 C1205 1.404 . S
C1204 C1207 1.539 . S
C1205 C1201 1.408 . S
C1205 C1204 1.404 . S
C1205 H1217 0.930 . S
C1206 C1202 1.524 . S
C1206 H1218 0.956 . S
C1206 H1219 0.961 . S
C1206 H1220 0.961 . S
C1207 C1204 1.539 . S
C1207 H1221 0.958 . S
C1207 H1222 0.961 . S
C1207 H1223 0.960 . S
H1208 C1192 0.931 . S
H1209 C1197 0.929 . S
H1210 C1198 0.960 . S
H1211 C1198 0.962 . S
H1212 C1198 0.960 . S
H1213 C1199 0.961 . S
H1214 C1199 0.961 . S
H1215 C1199 0.961 . S
H1216 C1200 0.931 . S
H1217 C1205 0.930 . S
H1218 C1206 0.956 . S
H1219 C1206 0.961 . S
H1220 C1206 0.961 . S
H1221 C1207 0.958 . S
H1222 C1207 0.961 . S
H1223 C1207 0.960 . S
C1224 C1225 1.391 . S
C1224 C1226 1.394 . S
C1224 H1240 0.931 . S
C1225 C1224 1.391 . S
C1225 C1229 1.376 . S
C1226 C1224 1.394 . S
C1226 C1227 1.369 . S
C1226 C1230 1.531 . S
C1227 C1226 1.369 . S
C1227 C1228 1.410 . S
C1227 C1235 1.503 . S
C1228 C1227 1.410 . S
C1228 C1229 1.392 . S
C1228 C1231 1.511 . S
C1229 C1225 1.376 . S
C1229 C1228 1.392 . S
C1229 H1241 0.929 . S
C1230 C1226 1.531 . S
C1230 H1242 0.960 . S
C1230 H1243 0.962 . S
C1230 H1244 0.960 . S
C1231 C1228 1.511 . S
C1231 H1245 0.961 . S
C1231 H1246 0.961 . S
C1231 H1247 0.961 . S
C1232 C1233 1.370 . S
C1232 C1234 1.363 . S
C1232 H1248 0.931 . S
C1233 C1232 1.370 . S
C1233 C1237 1.408 . S
C1234 C1232 1.363 . S
C1234 C1235 1.370 . S
C1234 C1238 1.524 . S
C1235 C1227 1.503 . S
C1235 C1234 1.370 . S
C1235 C1236 1.403 . S
C1236 C1235 1.403 . S
C1236 C1237 1.404 . S
C1236 C1239 1.539 . S
C1237 C1233 1.408 . S
C1237 C1236 1.404 . S
C1237 H1249 0.930 . S
C1238 C1234 1.524 . S
C1238 H1250 0.956 . S
C1238 H1251 0.961 . S
C1238 H1252 0.961 . S
C1239 C1236 1.539 . S
C1239 H1253 0.958 . S
C1239 H1254 0.961 . S
C1239 H1255 0.960 . S
H1240 C1224 0.931 . S
H1241 C1229 0.929 . S
H1242 C1230 0.960 . S
H1243 C1230 0.962 . S
H1244 C1230 0.960 . S
H1245 C1231 0.961 . S
H1246 C1231 0.961 . S
H1247 C1231 0.961 . S
H1248 C1232 0.931 . S
H1249 C1237 0.930 . S
H1250 C1238 0.956 . S
H1251 C1238 0.961 . S
H1252 C1238 0.961 . S
H1253 C1239 0.958 . S
H1254 C1239 0.961 . S
H1255 C1239 0.960 . S
C1256 C1257 1.391 . S
C1256 C1258 1.394 . S
C1256 H1272 0.931 . S
C1257 C1256 1.391 . S
C1257 C1261 1.376 . S
C1258 C1256 1.394 . S
C1258 C1259 1.369 . S
C1258 C1262 1.531 . S
C1259 C1258 1.369 . S
C1259 C1260 1.410 . S
C1259 C1267 1.503 . S
C1260 C1259 1.410 . S
C1260 C1261 1.392 . S
C1260 C1263 1.511 . S
C1261 C1257 1.376 . S
C1261 C1260 1.392 . S
C1261 H1273 0.929 . S
C1262 C1258 1.531 . S
C1262 H1274 0.960 . S
C1262 H1275 0.962 . S
C1262 H1276 0.960 . S
C1263 C1260 1.511 . S
C1263 H1277 0.961 . S
C1263 H1278 0.961 . S
C1263 H1279 0.961 . S
C1264 C1265 1.370 . S
C1264 C1266 1.363 . S
C1264 H1280 0.931 . S
C1265 C1264 1.370 . S
C1265 C1269 1.408 . S
C1266 C1264 1.363 . S
C1266 C1267 1.370 . S
C1266 C1270 1.524 . S
C1267 C1259 1.503 . S
C1267 C1266 1.370 . S
C1267 C1268 1.403 . S
C1268 C1267 1.403 . S
C1268 C1269 1.404 . S
C1268 C1271 1.539 . S
C1269 C1265 1.408 . S
C1269 C1268 1.404 . S
C1269 H1281 0.930 . S
C1270 C1266 1.524 . S
C1270 H1282 0.956 . S
C1270 H1283 0.961 . S
C1270 H1284 0.961 . S
C1271 C1268 1.539 . S
C1271 H1285 0.958 . S
C1271 H1286 0.961 . S
C1271 H1287 0.960 . S
H1272 C1256 0.931 . S
H1273 C1261 0.929 . S
H1274 C1262 0.960 . S
H1275 C1262 0.962 . S
H1276 C1262 0.960 . S
H1277 C1263 0.961 . S
H1278 C1263 0.961 . S
H1279 C1263 0.961 . S
H1280 C1264 0.931 . S
H1281 C1269 0.930 . S
H1282 C1270 0.956 . S
H1283 C1270 0.961 . S
H1284 C1270 0.961 . S
H1285 C1271 0.958 . S
H1286 C1271 0.961 . S
H1287 C1271 0.960 . S
C1288 C1289 1.391 . S
C1288 C1290 1.394 . S
C1288 H1304 0.931 . S
C1289 C1288 1.391 . S
C1289 C1293 1.376 . S
C1290 C1288 1.394 . S
C1290 C1291 1.369 . S
C1290 C1294 1.531 . S
C1291 C1290 1.369 . S
C1291 C1292 1.410 . S
C1291 C1299 1.503 . S
C1292 C1291 1.410 . S
C1292 C1293 1.392 . S
C1292 C1295 1.511 . S
C1293 C1289 1.376 . S
C1293 C1292 1.392 . S
C1293 H1305 0.929 . S
C1294 C1290 1.531 . S
C1294 H1306 0.960 . S
C1294 H1307 0.962 . S
C1294 H1308 0.960 . S
C1295 C1292 1.511 . S
C1295 H1309 0.961 . S
C1295 H1310 0.961 . S
C1295 H1311 0.961 . S
C1296 C1297 1.370 . S
C1296 C1298 1.363 . S
C1296 H1312 0.931 . S
C1297 C1296 1.370 . S
C1297 C1301 1.408 . S
C1298 C1296 1.363 . S
C1298 C1299 1.370 . S
C1298 C1302 1.524 . S
C1299 C1291 1.503 . S
C1299 C1298 1.370 . S
C1299 C1300 1.403 . S
C1300 C1299 1.403 . S
C1300 C1301 1.404 . S
C1300 C1303 1.539 . S
C1301 C1297 1.408 . S
C1301 C1300 1.404 . S
C1301 H1313 0.930 . S
C1302 C1298 1.524 . S
C1302 H1314 0.956 . S
C1302 H1315 0.961 . S
C1302 H1316 0.961 . S
C1303 C1300 1.539 . S
C1303 H1317 0.958 . S
C1303 H1318 0.961 . S
C1303 H1319 0.960 . S
H1304 C1288 0.931 . S
H1305 C1293 0.929 . S
H1306 C1294 0.960 . S
H1307 C1294 0.962 . S
H1308 C1294 0.960 . S
H1309 C1295 0.961 . S
H1310 C1295 0.961 . S
H1311 C1295 0.961 . S
H1312 C1296 0.931 . S
H1313 C1301 0.930 . S
H1314 C1302 0.956 . S
H1315 C1302 0.961 . S
H1316 C1302 0.961 . S
H1317 C1303 0.958 . S
H1318 C1303 0.961 . S
H1319 C1303 0.960 . S
C1320 C1321 1.391 . S
C1320 C1322 1.394 . S
C1320 H1336 0.931 . S
C1321 C1320 1.391 . S
C1321 C1325 1.376 . S
C1322 C1320 1.394 . S
C1322 C1323 1.369 . S
C1322 C1326 1.531 . S
C1323 C1322 1.369 . S
C1323 C1324 1.410 . S
C1323 C1331 1.503 . S
C1324 C1323 1.410 . S
C1324 C1325 1.392 . S
C1324 C1327 1.511 . S
C1325 C1321 1.376 . S
C1325 C1324 1.392 . S
C1325 H1337 0.929 . S
C1326 C1322 1.531 . S
C1326 H1338 0.960 . S
C1326 H1339 0.962 . S
C1326 H1340 0.960 . S
C1327 C1324 1.511 . S
C1327 H1341 0.961 . S
C1327 H1342 0.961 . S
C1327 H1343 0.961 . S
C1328 C1329 1.370 . S
C1328 C1330 1.363 . S
C1328 H1344 0.931 . S
C1329 C1328 1.370 . S
C1329 C1333 1.408 . S
C1330 C1328 1.363 . S
C1330 C1331 1.370 . S
C1330 C1334 1.524 . S
C1331 C1323 1.503 . S
C1331 C1330 1.370 . S
C1331 C1332 1.403 . S
C1332 C1331 1.403 . S
C1332 C1333 1.404 . S
C1332 C1335 1.539 . S
C1333 C1329 1.408 . S
C1333 C1332 1.404 . S
C1333 H1345 0.930 . S
C1334 C1330 1.524 . S
C1334 H1346 0.956 . S
C1334 H1347 0.961 . S
C1334 H1348 0.961 . S
C1335 C1332 1.539 . S
C1335 H1349 0.958 . S
C1335 H1350 0.961 . S
C1335 H1351 0.960 . S
H1336 C1320 0.931 . S
H1337 C1325 0.929 . S
H1338 C1326 0.960 . S
H1339 C1326 0.962 . S
H1340 C1326 0.960 . S
H1341 C1327 0.961 . S
H1342 C1327 0.961 . S
H1343 C1327 0.961 . S
H1344 C1328 0.931 . S
H1345 C1333 0.930 . S
H1346 C1334 0.956 . S
H1347 C1334 0.961 . S
H1348 C1334 0.961 . S
H1349 C1335 0.958 . S
H1350 C1335 0.961 . S
H1351 C1335 0.960 . S
C1352 C1353 1.391 . S
C1352 C1354 1.394 . S
C1352 H1368 0.931 . S
C1353 C1352 1.391 . S
C1353 C1357 1.376 . S
C1354 C1352 1.394 . S
C1354 C1355 1.369 . S
C1354 C1358 1.531 . S
C1355 C1354 1.369 . S
C1355 C1356 1.410 . S
C1355 C1363 1.503 . S
C1356 C1355 1.410 . S
C1356 C1357 1.392 . S
C1356 C1359 1.511 . S
C1357 C1353 1.376 . S
C1357 C1356 1.392 . S
C1357 H1369 0.929 . S
C1358 C1354 1.531 . S
C1358 H1370 0.960 . S
C1358 H1371 0.962 . S
C1358 H1372 0.960 . S
C1359 C1356 1.511 . S
C1359 H1373 0.961 . S
C1359 H1374 0.961 . S
C1359 H1375 0.961 . S
C1360 C1361 1.370 . S
C1360 C1362 1.363 . S
C1360 H1376 0.931 . S
C1361 C1360 1.370 . S
C1361 C1365 1.408 . S
C1362 C1360 1.363 . S
C1362 C1363 1.370 . S
C1362 C1366 1.524 . S
C1363 C1355 1.503 . S
C1363 C1362 1.370 . S
C1363 C1364 1.403 . S
C1364 C1363 1.403 . S
C1364 C1365 1.404 . S
C1364 C1367 1.539 . S
C1365 C1361 1.408 . S
C1365 C1364 1.404 . S
C1365 H1377 0.930 . S
C1366 C1362 1.524 . S
C1366 H1378 0.956 . S
C1366 H1379 0.961 . S
C1366 H1380 0.961 . S
C1367 C1364 1.539 . S
C1367 H1381 0.958 . S
C1367 H1382 0.961 . S
C1367 H1383 0.960 . S
H1368 C1352 0.931 . S
H1369 C1357 0.929 . S
H1370 C1358 0.960 . S
H1371 C1358 0.962 . S
H1372 C1358 0.960 . S
H1373 C1359 0.961 . S
H1374 C1359 0.961 . S
H1375 C1359 0.961 . S
H1376 C1360 0.931 . S
H1377 C1365 0.930 . S
H1378 C1366 0.956 . S
H1379 C1366 0.961 . S
H1380 C1366 0.961 . S
H1381 C1367 0.958 . S
H1382 C1367 0.961 . S
H1383 C1367 0.960 . S
C1384 C1385 1.391 . S
C1384 C1386 1.394 . S
C1384 H1400 0.931 . S
C1385 C1384 1.391 . S
C1385 C1389 1.376 . S
C1386 C1384 1.394 . S
C1386 C1387 1.369 . S
C1386 C1390 1.531 . S
C1387 C1386 1.369 . S
C1387 C1388 1.410 . S
C1387 C1395 1.503 . S
C1388 C1387 1.410 . S
C1388 C1389 1.392 . S
C1388 C1391 1.511 . S
C1389 C1385 1.376 . S
C1389 C1388 1.392 . S
C1389 H1401 0.929 . S
C1390 C1386 1.531 . S
C1390 H1402 0.960 . S
C1390 H1403 0.962 . S
C1390 H1404 0.960 . S
C1391 C1388 1.511 . S
C1391 H1405 0.961 . S
C1391 H1406 0.961 . S
C1391 H1407 0.961 . S
C1392 C1393 1.370 . S
C1392 C1394 1.363 . S
C1392 H1408 0.931 . S
C1393 C1392 1.370 . S
C1393 C1397 1.408 . S
C1394 C1392 1.363 . S
C1394 C1395 1.370 . S
C1394 C1398 1.524 . S
C1395 C1387 1.503 . S
C1395 C1394 1.370 . S
C1395 C1396 1.403 . S
C1396 C1395 1.403 . S
C1396 C1397 1.404 . S
C1396 C1399 1.539 . S
C1397 C1393 1.408 . S
C1397 C1396 1.404 . S
C1397 H1409 0.930 . S
C1398 C1394 1.524 . S
C1398 H1410 0.956 . S
C1398 H1411 0.961 . S
C1398 H1412 0.961 . S
C1399 C1396 1.539 . S
C1399 H1413 0.958 . S
C1399 H1414 0.961 . S
C1399 H1415 0.960 . S
H1400 C1384 0.931 . S
H1401 C1389 0.929 . S
H1402 C1390 0.960 . S
H1403 C1390 0.962 . S
H1404 C1390 0.960 . S
H1405 C1391 0.961 . S
H1406 C1391 0.961 . S
H1407 C1391 0.961 . S
H1408 C1392 0.931 . S
H1409 C1397 0.930 . S
H1410 C1398 0.956 . S
H1411 C1398 0.961 . S
H1412 C1398 0.961 . S
H1413 C1399 0.958 . S
H1414 C1399 0.961 . S
H1415 C1399 0.960 . S
C1416 C1417 1.391 . S
C1416 C1418 1.394 . S
C1416 H1432 0.931 . S
C1417 C1416 1.391 . S
C1417 C1421 1.376 . S
C1418 C1416 1.394 . S
C1418 C1419 1.369 . S
C1418 C1422 1.531 . S
C1419 C1418 1.369 . S
C1419 C1420 1.410 . S
C1419 C1427 1.503 . S
C1420 C1419 1.410 . S
C1420 C1421 1.392 . S
C1420 C1423 1.511 . S
C1421 C1417 1.376 . S
C1421 C1420 1.392 . S
C1421 H1433 0.929 . S
C1422 C1418 1.531 . S
C1422 H1434 0.960 . S
C1422 H1435 0.962 . S
C1422 H1436 0.960 . S
C1423 C1420 1.511 . S
C1423 H1437 0.961 . S
C1423 H1438 0.961 . S
C1423 H1439 0.961 . S
C1424 C1425 1.370 . S
C1424 C1426 1.363 . S
C1424 H1440 0.931 . S
C1425 C1424 1.370 . S
C1425 C1429 1.408 . S
C1426 C1424 1.363 . S
C1426 C1427 1.370 . S
C1426 C1430 1.524 . S
C1427 C1419 1.503 . S
C1427 C1426 1.370 . S
C1427 C1428 1.403 . S
C1428 C1427 1.403 . S
C1428 C1429 1.404 . S
C1428 C1431 1.539 . S
C1429 C1425 1.408 . S
C1429 C1428 1.404 . S
C1429 H1441 0.930 . S
C1430 C1426 1.524 . S
C1430 H1442 0.956 . S
C1430 H1443 0.961 . S
C1430 H1444 0.961 . S
C1431 C1428 1.539 . S
C1431 H1445 0.958 . S
C1431 H1446 0.961 . S
C1431 H1447 0.960 . S
H1432 C1416 0.931 . S
H1433 C1421 0.929 . S
H1434 C1422 0.960 . S
H1435 C1422 0.962 . S
H1436 C1422 0.960 . S
H1437 C1423 0.961 . S
H1438 C1423 0.961 . S
H1439 C1423 0.961 . S
H1440 C1424 0.931 . S
H1441 C1429 0.930 . S
H1442 C1430 0.956 . S
H1443 C1430 0.961 . S
H1444 C1430 0.961 . S
H1445 C1431 0.958 . S
H1446 C1431 0.961 . S
H1447 C1431 0.960 . S
C1448 C1449 1.391 . S
C1448 C1450 1.394 . S
C1448 H1464 0.931 . S
C1449 C1448 1.391 . S
C1449 C1453 1.376 . S
C1450 C1448 1.394 . S
C1450 C1451 1.369 . S
C1450 C1454 1.531 . S
C1451 C1450 1.369 . S
C1451 C1452 1.410 . S
C1451 C1459 1.503 . S
C1452 C1451 1.410 . S
C1452 C1453 1.392 . S
C1452 C1455 1.511 . S
C1453 C1449 1.376 . S
C1453 C1452 1.392 . S
C1453 H1465 0.929 . S
C1454 C1450 1.531 . S
C1454 H1466 0.960 . S
C1454 H1467 0.962 . S
C1454 H1468 0.960 . S
C1455 C1452 1.511 . S
C1455 H1469 0.961 . S
C1455 H1470 0.961 . S
C1455 H1471 0.961 . S
C1456 C1457 1.370 . S
C1456 C1458 1.363 . S
C1456 H1472 0.931 . S
C1457 C1456 1.370 . S
C1457 C1461 1.408 . S
C1458 C1456 1.363 . S
C1458 C1459 1.370 . S
C1458 C1462 1.524 . S
C1459 C1451 1.503 . S
C1459 C1458 1.370 . S
C1459 C1460 1.403 . S
C1460 C1459 1.403 . S
C1460 C1461 1.404 . S
C1460 C1463 1.539 . S
C1461 C1457 1.408 . S
C1461 C1460 1.404 . S
C1461 H1473 0.930 . S
C1462 C1458 1.524 . S
C1462 H1474 0.956 . S
C1462 H1475 0.961 . S
C1462 H1476 0.961 . S
C1463 C1460 1.539 . S
C1463 H1477 0.958 . S
C1463 H1478 0.961 . S
C1463 H1479 0.960 . S
H1464 C1448 0.931 . S
H1465 C1453 0.929 . S
H1466 C1454 0.960 . S
H1467 C1454 0.962 . S
H1468 C1454 0.960 . S
H1469 C1455 0.961 . S
H1470 C1455 0.961 . S
H1471 C1455 0.961 . S
H1472 C1456 0.931 . S
H1473 C1461 0.930 . S
H1474 C1462 0.956 . S
H1475 C1462 0.961 . S
H1476 C1462 0.961 . S
H1477 C1463 0.958 . S
H1478 C1463 0.961 . S
H1479 C1463 0.960 . S
C1480 C1481 1.391 . S
C1480 C1482 1.394 . S
C1480 H1496 0.931 . S
C1481 C1480 1.391 . S
C1481 C1485 1.376 . S
C1482 C1480 1.394 . S
C1482 C1483 1.369 . S
C1482 C1486 1.531 . S
C1483 C1482 1.369 . S
C1483 C1484 1.410 . S
C1483 C1491 1.503 . S
C1484 C1483 1.410 . S
C1484 C1485 1.392 . S
C1484 C1487 1.511 . S
C1485 C1481 1.376 . S
C1485 C1484 1.392 . S
C1485 H1497 0.929 . S
C1486 C1482 1.531 . S
C1486 H1498 0.960 . S
C1486 H1499 0.962 . S
C1486 H1500 0.960 . S
C1487 C1484 1.511 . S
C1487 H1501 0.961 . S
C1487 H1502 0.961 . S
C1487 H1503 0.961 . S
C1488 C1489 1.370 . S
C1488 C1490 1.363 . S
C1488 H1504 0.931 . S
C1489 C1488 1.370 . S
C1489 C1493 1.408 . S
C1490 C1488 1.363 . S
C1490 C1491 1.370 . S
C1490 C1494 1.524 . S
C1491 C1483 1.503 . S
C1491 C1490 1.370 . S
C1491 C1492 1.403 . S
C1492 C1491 1.403 . S
C1492 C1493 1.404 . S
C1492 C1495 1.539 . S
C1493 C1489 1.408 . S
C1493 C1492 1.404 . S
C1493 H1505 0.930 . S
C1494 C1490 1.524 . S
C1494 H1506 0.956 . S
C1494 H1507 0.961 . S
C1494 H1508 0.961 . S
C1495 C1492 1.539 . S
C1495 H1509 0.958 . S
C1495 H1510 0.961 . S
C1495 H1511 0.960 . S
H1496 C1480 0.931 . S
H1497 C1485 0.929 . S
H1498 C1486 0.960 . S
H1499 C1486 0.962 . S
H1500 C1486 0.960 . S
H1501 C1487 0.961 . S
H1502 C1487 0.961 . S
H1503 C1487 0.961 . S
H1504 C1488 0.931 . S
H1505 C1493 0.930 . S
H1506 C1494 0.956 . S
H1507 C1494 0.961 . S
H1508 C1494 0.961 . S
H1509 C1495 0.958 . S
H1510 C1495 0.961 . S
H1511 C1495 0.960 . S
C361 C76 0.766 . S
C369 N6 0.826 . S
C393 N96 0.941 . S
C401 C46 0.955 . S
C425 N66 0.861 1_565 S
C433 C136 0.789 . S
C457 C106 0.926 . S
C465 N156 0.939 . S
C489 C16 0.835 . S
C497 N126 0.780 1_455 S
C521 N36 0.942 . S
C529 C166 0.955 . S
C553 C327 0.785 . S
C561 N194 0.797 . S
C585 N216 0.762 1_655 S
C593 C346 0.821 . S
C617 N254 0.822 1_545 S
C625 C207 0.810 . S
C649 N276 0.758 . S
C657 C226 0.814 . S
C681 N314 0.847 1_655 S
C689 C267 0.801 . S
C713 C286 0.809 . S
C721 N336 0.792 1_545 S
C745 C91 1.684 . S
C753 C1 1.669 . S
C777 C31 1.687 . S
C785 C121 1.672 . S
C809 C61 1.675 . S
C817 C151 1.689 . S
C841 C190 1.672 . S
C849 C271 1.674 . S
C873 C211 1.683 . S
C881 C310 1.680 . S
C905 C250 1.656 . S
C913 C331 1.669 . S
C937 C220 1.952 . S
C945 C10 1.985 . S
C969 C40 1.933 . S
C977 C241 1.972 . S
C1001 C280 1.957 . S
C1009 C70 1.981 . S
C1033 C100 1.882 . S
C1041 C301 1.987 . S
C1065 C130 1.989 . S
C1073 C340 1.970 . S
C1097 C181 1.960 . S
C1105 C160 1.920 . S
C1129 C87 1.238 . S
C1137 N14 1.241 . S
C1161 C57 1.131 . S
C1169 N104 1.155 . S
C1193 N74 1.258 . S
C1201 C147 1.252 . S
C1225 C117 1.121 . S
C1233 N164 1.155 . S
C1257 C27 1.267 . S
C1265 N134 1.217 . S
C1289 N44 1.157 . S
C1297 C177 1.143 . S
C1321 C316 1.246 . S
C1329 N186 1.231 . S
C1353 N224 1.260 . S
C1361 C357 1.250 . S
C1385 N246 1.210 . S
C1393 C196 1.260 . S
C1417 C237 1.255 . S
C1425 N284 1.226 . S
C1449 N306 1.257 . S
C1457 C256 1.254 . S
C1481 N344 1.239 . S
C1489 C297 1.255 . S
