# Generated by pormake.
# Topology qtz-x, (6)-cn, num edge types: 1
# Building blocks:
#     Node 0, Type 0, BuildingBlock: PAMTUU_clean_sbu_0, # of connection points: 6
#     Node 1, Type 0, BuildingBlock: PAMTUU_clean_sbu_0, # of connection points: 6
#     Node 2, Type 0, BuildingBlock: PAMTUU_clean_sbu_0, # of connection points: 6
#     Edge 3, Type (0, 0), BuildingBlock: FUNLAD_clean_linker_1, # of connection points: 2
#     Edge 4, Type (0, 0), BuildingBlock: FUNLAD_clean_linker_1, # of connection points: 2
#     Edge 5, Type (0, 0), BuildingBlock: FUNLAD_clean_linker_1, # of connection points: 2
#     Edge 6, Type (0, 0), BuildingBlock: FUNLAD_clean_linker_1, # of connection points: 2
#     Edge 7, Type (0, 0), BuildingBlock: FUNLAD_clean_linker_1, # of connection points: 2
#     Edge 8, Type (0, 0), BuildingBlock: FUNLAD_clean_linker_1, # of connection points: 2
#     Edge 9, Type (0, 0), BuildingBlock: FUNLAD_clean_linker_1, # of connection points: 2
#     Edge 10, Type (0, 0), BuildingBlock: FUNLAD_clean_linker_1, # of connection points: 2
#     Edge 11, Type (0, 0), BuildingBlock: FUNLAD_clean_linker_1, # of connection points: 2
# Relax obj value: 0.125
# Max RMSD: 0.229
# Mean RMSD: 0.229
data_MOF--net-qtz-x--node1-PAMTUU_clean_sbu_0--edge1-FUNLAD_clean_linker_1
_symmetry_space_group_name_H-M    P1
_symmetry_Int_Tables_number       1
_symmetry_cell_setting            triclinic
loop_
_symmetry_equiv_pos_as_xyz
'x, y, z'
_cell_length_a     15.59695
_cell_length_b     15.580578
_cell_length_c     56.391173
_cell_angle_alpha  90.050734
_cell_angle_beta   89.879067
_cell_angle_gamma 120.03782
loop_
_atom_site_label
_atom_site_type_symbol
_atom_site_fract_x
_atom_site_fract_y
_atom_site_fract_z
_atom_type_partial_charge
Tb0 Tb 0.08893 0.63281 0.15999 0.0
Tb1 Tb 0.88576 0.54959 0.1924 0.0
C2 C 0.97503 0.41838 0.1793 0.0
C3 C 0.24141 0.66857 0.10685 0.0
C4 C 0.25016 0.63836 0.05768 0.0
C5 C 0.33067 0.71769 0.06942 0.0
C6 C 0.32622 0.73224 0.09379 0.0
C7 C 0.16122 0.58914 0.09533 0.0
C8 C 0.16577 0.57411 0.071 0.0
C9 C 0.23409 0.68994 0.13197 0.0
O10 O 0.97041 0.60829 0.13586 0.0
O11 O 0.83383 0.4937 0.15676 0.0
O12 O 0.91527 0.68826 0.17604 0.0
O13 O 0.08406 0.75946 0.17442 0.0
O14 O 0.75241 0.43018 0.20504 0.0
O15 O 0.80117 0.57967 0.21648 0.0
O16 O 0.00794 0.63097 0.21657 0.0
O17 O 0.14135 0.64092 0.19625 0.0
O18 O 0.01153 0.47158 0.16002 0.0
O19 O 0.94459 0.45073 0.19699 0.0
C20 C 0.87686 0.53875 0.13689 0.0
O21 O 0.18802 0.7389 0.13589 0.0
O22 O 0.20605 0.61629 0.14676 0.0
C23 C 0.00407 0.7671 0.17481 0.0
C24 C 0.7338 0.45513 0.24539 0.0
C25 C 0.72489 0.39997 0.29341 0.0
C26 C 0.64519 0.40446 0.28289 0.0
C27 C 0.64992 0.43213 0.25907 0.0
C28 C 0.81304 0.45039 0.25577 0.0
C29 C 0.80834 0.42265 0.27949 0.0
C30 C 0.74052 0.48584 0.22047 0.0
C31 C 0.0993 0.64793 0.21587 0.0
H32 H 0.39597 0.77098 0.05989 0.0
H33 H 0.38813 0.79489 0.10232 0.0
H34 H 0.09432 0.54 0.10506 0.0
H35 H 0.10224 0.5132 0.06246 0.0
H36 H 0.57834 0.38497 0.29275 0.0
H37 H 0.58802 0.43518 0.25131 0.0
H38 H 0.87863 0.46803 0.24551 0.0
H39 H 0.8703 0.41901 0.287 0.0
Tb40 Tb 0.45674 0.98103 0.49622 0.0
Tb41 Tb 0.58178 0.18723 0.52731 0.0
C42 C 0.3609 0.10136 0.51443 0.0
C43 C 0.33091 0.81375 0.44468 0.0
C44 C 0.2664 0.77811 0.39692 0.0
C45 C 0.21379 0.7985 0.41413 0.0
C46 C 0.24575 0.81651 0.43773 0.0
C47 C 0.38263 0.79176 0.42753 0.0
C48 C 0.3509 0.77415 0.40394 0.0
C49 C 0.36549 0.83127 0.46965 0.0
O50 O 0.5492 0.09653 0.4711 0.0
O51 O 0.5763 0.2362 0.49144 0.0
O52 O 0.6865 0.15267 0.51049 0.0
O53 O 0.58716 0.98427 0.51075 0.0
O54 O 0.60055 0.32265 0.53994 0.0
O55 O 0.7044 0.27475 0.54899 0.0
O56 O 0.53793 0.06712 0.55251 0.0
O57 O 0.41008 0.93552 0.53276 0.0
O58 O 0.37547 0.06092 0.49554 0.0
O59 O 0.42488 0.13443 0.53187 0.0
C60 C 0.57575 0.1909 0.47174 0.0
O61 O 0.46108 0.87853 0.47277 0.0
O62 O 0.32163 0.8613 0.48447 0.0
C63 C 0.67545 0.06344 0.51027 0.0
C64 C 0.67051 0.36039 0.57879 0.0
C65 C 0.66593 0.4028 0.6275 0.0
C66 C 0.74679 0.39845 0.61786 0.0
C67 C 0.74918 0.37771 0.59383 0.0
C68 C 0.58947 0.36502 0.5883 0.0
C69 C 0.58733 0.38643 0.61235 0.0
C70 C 0.67485 0.33796 0.55341 0.0
C71 C 0.46008 0.97743 0.55223 0.0
H72 H 0.14778 0.80082 0.40929 0.0
H73 H 0.20346 0.83225 0.45049 0.0
H74 H 0.44752 0.78743 0.4324 0.0
H75 H 0.39169 0.75542 0.39144 0.0
H76 H 0.80875 0.41138 0.62897 0.0
H77 H 0.81284 0.37517 0.58699 0.0
H78 H 0.52779 0.35264 0.57718 0.0
H79 H 0.52452 0.39128 0.61871 0.0
Tb80 Tb 0.47623 0.65711 0.82999 0.0
Tb81 Tb 0.55718 0.52823 0.85893 0.0
C82 C 0.69404 0.74867 0.84584 0.0
C83 C 0.4013 0.75442 0.77947 0.0
C84 C 0.39138 0.77124 0.72994 0.0
C85 C 0.37557 0.83344 0.74524 0.0
C86 C 0.38074 0.82511 0.76986 0.0
C87 C 0.41314 0.68973 0.76426 0.0
C88 C 0.4083 0.69825 0.7397 0.0
C89 C 0.41911 0.75391 0.80506 0.0
O90 O 0.55284 0.6143 0.80424 0.0
O91 O 0.54126 0.47646 0.8225 0.0
O92 O 0.39636 0.44922 0.86097 0.0
O93 O 0.36805 0.50123 0.82552 0.0
O94 O 0.67508 0.52533 0.87613 0.0
O95 O 0.5301 0.39572 0.87538 0.0
O96 O 0.54336 0.62418 0.8846 0.0
O97 O 0.42531 0.64888 0.86654 0.0
O98 O 0.61642 0.76032 0.84647 0.0
O99 O 0.68379 0.66004 0.84433 0.0
C100 C 0.55491 0.53091 0.80354 0.0
O101 O 0.35913 0.67305 0.81651 0.0
O102 O 0.51101 0.78578 0.81079 0.0
C103 C 0.33888 0.43635 0.84277 0.0
C104 C 0.62075 0.43225 0.91102 0.0
C105 C 0.64485 0.44717 0.96075 0.0
C106 C 0.57459 0.46511 0.94975 0.0
C107 C 0.56249 0.4576 0.92514 0.0
C108 C 0.68936 0.41201 0.92188 0.0
C109 C 0.70151 0.41938 0.94653 0.0
C110 C 0.6177 0.43769 0.885 0.0
C111 C 0.47312 0.64687 0.88556 0.0
H112 H 0.3642 0.89166 0.73822 0.0
H113 H 0.37221 0.87614 0.78135 0.0
H114 H 0.42916 0.63468 0.77135 0.0
H115 H 0.41954 0.64886 0.72828 0.0
H116 H 0.53047 0.48734 0.96016 0.0
H117 H 0.50969 0.47457 0.91709 0.0
H118 H 0.73605 0.39393 0.91122 0.0
H119 H 0.75843 0.40756 0.95407 0.0
H120 H 0.09117 0.92971 0.1718 0.0
C121 C 0.01638 0.86716 0.17362 0.0
H122 H 0.86438 0.82208 0.1759 0.0
H123 H 0.11096 0.30659 0.20274 0.0
H124 H 0.16882 0.25908 0.23744 0.0
H125 H 0.12575 0.08526 0.24362 0.0
H126 H 0.0265 0.95855 0.21485 0.0
C127 C 0.93988 0.88376 0.17479 0.0
C128 C 0.95576 0.98612 0.17274 0.0
C129 C 0.00932 0.05823 0.19042 0.0
C130 C 0.02915 0.15727 0.18756 0.0
C131 C 0.08914 0.22924 0.2046 0.0
C132 C 0.12367 0.20316 0.22453 0.0
C133 C 0.0998 0.10542 0.22795 0.0
C134 C 0.04333 0.03351 0.21118 0.0
H135 H 0.92605 0.27467 0.1967 0.0
C136 C 0.96538 0.31961 0.18137 0.0
H137 H 0.04182 0.3275 0.14978 0.0
H138 H 0.85184 0.86653 0.13547 0.0
H139 H 0.78815 0.91241 0.10156 0.0
H140 H 0.81446 0.08163 0.09769 0.0
H141 H 0.90539 0.20627 0.12759 0.0
C142 C 0.00406 0.28427 0.16543 0.0
C143 C 0.99001 0.18262 0.16778 0.0
C144 C 0.93554 0.1102 0.15026 0.0
C145 C 0.91881 0.01206 0.15269 0.0
C146 C 0.86563 0.94179 0.1347 0.0
C147 C 0.82873 0.96714 0.1151 0.0
C148 C 0.84365 0.06244 0.11292 0.0
C149 C 0.89621 0.13337 0.13022 0.0
H150 H 0.26353 0.14611 0.53228 0.0
C151 C 0.2713 0.11021 0.51654 0.0
H152 H 0.20687 0.04091 0.48397 0.0
H153 H 0.83531 0.01977 0.54835 0.0
H154 H 0.85835 0.90877 0.57415 0.0
H155 H 0.99375 0.87346 0.56699 0.0
H156 H 0.10835 0.95102 0.53434 0.0
C157 C 0.19921 0.07457 0.50013 0.0
C158 C 0.11018 0.08585 0.50284 0.0
C159 C 0.04069 0.03581 0.52129 0.0
C160 C 0.95903 0.05153 0.52455 0.0
C161 C 0.89536 0.00646 0.54422 0.0
C162 C 0.90829 0.94319 0.55933 0.0
C163 C 0.98477 0.92367 0.55537 0.0
C164 C 0.05046 0.96927 0.53663 0.0
H165 H 0.75019 0.97593 0.50596 0.0
C166 C 0.76274 0.0504 0.50877 0.0
H167 H 0.86929 0.20145 0.51337 0.0
H168 H 0.22911 0.1928 0.46573 0.0
H169 H 0.20185 0.29782 0.43874 0.0
H170 H 0.0554 0.31787 0.44299 0.0
H171 H 0.93579 0.2338 0.47436 0.0
C172 C 0.8559 0.12649 0.51099 0.0
C173 C 0.94344 0.11249 0.50846 0.0
C174 C 0.01201 0.16104 0.48976 0.0
C175 C 0.0956 0.14808 0.48703 0.0
C176 C 0.16371 0.19897 0.46846 0.0
C177 C 0.14905 0.25962 0.45284 0.0
C178 C 0.06668 0.271 0.45525 0.0
C179 C 0.99867 0.22242 0.47341 0.0
H180 H 0.85702 0.82256 0.84771 0.0
C181 C 0.79475 0.83555 0.84723 0.0
H182 H 0.74986 0.94288 0.84798 0.0
H183 H 0.13299 0.28564 0.89554 0.0
H184 H 0.01071 0.24583 0.92649 0.0
H185 H 0.84326 0.09984 0.923 0.0
H186 H 0.79689 0.99315 0.88845 0.0
C187 C 0.81158 0.92904 0.84779 0.0
C188 C 0.91371 0.01588 0.8499 0.0
C189 C 0.94007 0.07689 0.87038 0.0
C190 C 0.03716 0.16019 0.87258 0.0
C191 C 0.06078 0.22074 0.89304 0.0
C192 C 0.99122 0.19885 0.91096 0.0
C193 C 0.89694 0.11673 0.90898 0.0
C194 C 0.87124 0.05619 0.889 0.0
H195 H 0.19201 0.34279 0.82671 0.0
C196 C 0.23985 0.34734 0.84123 0.0
H197 H 0.25465 0.27552 0.87141 0.0
H198 H 0.88481 0.92289 0.80684 0.0
H199 H 0.00964 0.95719 0.77695 0.0
H200 H 0.18233 0.09097 0.78267 0.0
H201 H 0.23037 0.19281 0.81805 0.0
C202 C 0.20851 0.27132 0.85653 0.0
C203 C 0.1081 0.18199 0.8544 0.0
C204 C 0.08262 0.11945 0.83421 0.0
C205 C 0.9845 0.03833 0.83159 0.0
C206 C 0.95931 0.98207 0.81038 0.0
C207 C 0.03013 0.00149 0.79295 0.0
C208 C 0.12721 0.07708 0.79612 0.0
C209 C 0.15359 0.13556 0.81645 0.0
H210 H 0.50415 0.68827 0.92301 0.0
C211 C 0.44844 0.66795 0.90925 0.0
H212 H 0.29797 0.62126 0.90253 0.0
H213 H 0.25752 0.47391 0.01166 0.0
H214 H 0.20136 0.31835 0.99103 0.0
H215 H 0.20312 0.31231 0.94731 0.0
H216 H 0.26241 0.46247 0.92398 0.0
C217 C 0.35758 0.64914 0.91543 0.0
C218 C 0.33463 0.65035 0.94104 0.0
C219 C 0.29533 0.56156 0.95441 0.0
C220 C 0.29173 0.5648 0.97961 0.0
C221 C 0.25871 0.47569 0.9925 0.0
C222 C 0.22689 0.38578 0.98087 0.0
C223 C 0.2281 0.38238 0.95626 0.0
C224 C 0.26235 0.46907 0.94309 0.0
H225 H 0.17675 0.57933 0.02306 0.0
C226 C 0.2484 0.62426 0.03148 0.0
H227 H 0.40295 0.70849 0.02536 0.0
H228 H 0.40327 0.83133 0.92036 0.0
H229 H 0.45335 0.98717 0.94063 0.0
H230 H 0.44293 0.99302 0.98421 0.0
H231 H 0.3831 0.8436 1.00783 0.0
C232 C 0.32994 0.66393 0.01771 0.0
C233 C 0.32426 0.65678 0.99132 0.0
C234 C 0.3579 0.74464 0.97775 0.0
C235 C 0.36339 0.74139 0.95261 0.0
C236 C 0.39843 0.83023 0.93952 0.0
C237 C 0.42695 0.91992 0.95091 0.0
C238 C 0.42108 0.9232 0.97546 0.0
C239 C 0.38693 0.83689 0.98881 0.0
H240 H 0.57836 0.30097 0.44664 0.0
C241 C 0.60081 0.24589 0.44916 0.0
H242 H 0.6694 0.17111 0.43477 0.0
H243 H 0.58289 0.18015 0.32724 0.0
H244 H 0.51854 0.00606 0.33526 0.0
H245 H 0.50632 0.94588 0.37621 0.0
H246 H 0.5631 0.05965 0.40921 0.0
C247 C 0.64599 0.22511 0.43157 0.0
C248 C 0.65455 0.26341 0.40686 0.0
C249 C 0.61623 0.19469 0.38776 0.0
C250 C 0.62068 0.22902 0.36415 0.0
C251 C 0.58289 0.1588 0.34547 0.0
C252 C 0.54439 0.0582 0.34984 0.0
C253 C 0.5379 0.02436 0.37287 0.0
C254 C 0.57192 0.0911 0.39169 0.0
H255 H 0.77427 0.34317 0.32329 0.0
C256 C 0.72254 0.36773 0.31837 0.0
H257 H 0.61298 0.39771 0.33167 0.0
H258 H 0.75745 0.41709 0.43798 0.0
H259 H 0.83117 0.59239 0.42951 0.0
H260 H 0.82602 0.65051 0.38915 0.0
H261 H 0.74873 0.53342 0.35691 0.0
C262 C 0.66111 0.3676 0.33518 0.0
C263 C 0.66131 0.33174 0.35967 0.0
C264 C 0.70205 0.40057 0.37857 0.0
C265 C 0.70132 0.36674 0.40207 0.0
C266 C 0.75044 0.43799 0.42013 0.0
C267 C 0.79435 0.5391 0.41544 0.0
C268 C 0.7917 0.57185 0.3927 0.0
C269 C 0.74672 0.5038 0.37438 0.0
H270 H 0.45823 0.77888 0.69495 0.0
C271 C 0.40195 0.78834 0.70398 0.0
H272 H 0.28958 0.82457 0.70011 0.0
H273 H 0.46817 0.10587 0.61199 0.0
H274 H 0.45477 0.21172 0.64141 0.0
H275 H 0.40656 0.15461 0.68256 0.0
H276 H 0.36945 0.99053 0.69447 0.0
C277 C 0.34719 0.81644 0.69134 0.0
C278 C 0.37138 0.84808 0.66601 0.0
C279 C 0.39488 0.94546 0.65946 0.0
C280 C 0.42591 0.97974 0.63589 0.0
C281 C 0.44654 0.07654 0.62975 0.0
C282 C 0.43903 0.13829 0.64645 0.0
C283 C 0.4115 0.10595 0.6696 0.0
C284 C 0.38996 0.01106 0.67616 0.0
H285 H 0.35162 0.85776 0.57557 0.0
C286 C 0.42434 0.92403 0.57501 0.0
H287 H 0.54915 0.0264 0.59458 0.0
H288 H 0.31195 0.65077 0.67085 0.0
H289 H 0.33455 0.54777 0.64216 0.0
H290 H 0.40806 0.6141 0.60292 0.0
H291 H 0.45678 0.7828 0.59194 0.0
C292 C 0.47728 0.959 0.5951 0.0
C293 C 0.43623 0.91784 0.61901 0.0
C294 C 0.4122 0.82028 0.62547 0.0
C295 C 0.37613 0.78414 0.6487 0.0
C296 C 0.34558 0.68403 0.65404 0.0
C297 C 0.3571 0.62369 0.63763 0.0
C298 C 0.39805 0.6609 0.6155 0.0
C299 C 0.42515 0.75784 0.60937 0.0
H300 H 0.63846 0.51434 0.99486 0.0
C301 C 0.66282 0.46694 0.98664 0.0
H302 H 0.73523 0.38472 0.99288 0.0
H303 H 0.00681 0.66093 0.07465 0.0
H304 H 0.12254 0.71789 0.04202 0.0
H305 H 0.06713 0.65875 1.00132 0.0
H306 H 0.89403 0.54487 0.99293 0.0
C307 C 0.70996 0.43258 1.00021 0.0
C308 C 0.74106 0.46938 0.02487 0.0
C309 C 0.84272 0.53482 0.02962 0.0
C310 C 0.87453 0.56919 0.05312 0.0
C311 C 0.97707 0.63389 0.0572 0.0
C312 C 0.04501 0.66666 0.03859 0.0
C313 C 0.01378 0.63357 0.01568 0.0
C314 C 0.9141 0.56802 0.01115 0.0
H315 H 0.76804 0.42809 0.11215 0.0
C316 C 0.821 0.50642 0.11449 0.0
H317 H 0.892 0.64915 0.0997 0.0
H318 H 0.54098 0.34356 0.0219 0.0
H319 H 0.42078 0.30359 0.05345 0.0
H320 H 0.4739 0.37538 0.09339 0.0
H321 H 0.64753 0.48555 0.10217 0.0
C322 C 0.84019 0.57095 0.09665 0.0
C323 C 0.80427 0.53855 0.0719 0.0
C324 C 0.70174 0.47799 0.06681 0.0
C325 C 0.67046 0.44111 0.04341 0.0
C326 C 0.56838 0.37637 0.03913 0.0
C327 C 0.49863 0.35257 0.05709 0.0
C328 C 0.52858 0.39264 0.07961 0.0
C329 C 0.62873 0.45489 0.08449 0.0
H330 H 0.23305 0.69367 0.23802 0.0
C331 C 0.15627 0.67608 0.23827 0.0
H332 H 0.03612 0.65832 0.25944 0.0
H333 H 0.20265 0.57809 0.35379 0.0
H334 H 0.10594 0.40801 0.34013 0.0
H335 H 0.03551 0.37044 0.29979 0.0
H336 H 0.06239 0.50283 0.27274 0.0
C337 C 0.11351 0.67809 0.25888 0.0
C338 C 0.16605 0.70173 0.28199 0.0
C339 C 0.14967 0.62366 0.29758 0.0
C340 C 0.18929 0.64532 0.32093 0.0
C341 C 0.1731 0.56584 0.33598 0.0
C342 C 0.11793 0.46786 0.32835 0.0
C343 C 0.07833 0.44669 0.30563 0.0
C344 C 0.09404 0.52336 0.29032 0.0
H345 H 0.15081 0.73287 0.36927 0.0
C346 C 0.22858 0.75695 0.37214 0.0
H347 H 0.36497 0.79855 0.35496 0.0
H348 H 0.21289 0.86864 0.25636 0.0
H349 H 0.3056 0.03871 0.27036 0.0
H350 H 0.36833 0.07591 0.31143 0.0
H351 H 0.33845 0.94309 0.3387 0.0
C352 C 0.28576 0.76823 0.35316 0.0
C353 C 0.24363 0.74507 0.32878 0.0
C354 C 0.25987 0.82309 0.31317 0.0
C355 C 0.22208 0.8015 0.28965 0.0
C356 C 0.23965 0.88094 0.27443 0.0
C357 C 0.29266 0.97885 0.28225 0.0
C358 C 0.3281 0.99981 0.30535 0.0
C359 C 0.31141 0.92307 0.32075 0.0
H360 H 0.51617 0.41507 0.77654 0.0
C361 C 0.56445 0.49337 0.78027 0.0
H362 H 0.67602 0.63161 0.76807 0.0
H363 H 0.6038 0.27908 0.68682 0.0
H364 H 0.63415 0.19216 0.7184 0.0
H365 H 0.66916 0.25937 0.75909 0.0
H366 H 0.67088 0.41197 0.76854 0.0
C367 C 0.62724 0.55415 0.76359 0.0
C368 C 0.62516 0.52185 0.73844 0.0
C369 C 0.63082 0.43564 0.73293 0.0
C370 C 0.61694 0.40014 0.70915 0.0
C371 C 0.61686 0.31083 0.70441 0.0
C372 C 0.63418 0.26017 0.72238 0.0
C373 C 0.65338 0.29774 0.7453 0.0
C374 C 0.65261 0.38475 0.75057 0.0
H375 H 0.73961 0.45659 0.66224 0.0
C376 C 0.66918 0.4284 0.65309 0.0
H377 H 0.51928 0.39148 0.65762 0.0
H378 H 0.62266 0.69725 0.74177 0.0
H379 H 0.61145 0.7922 0.70948 0.0
H380 H 0.59004 0.7315 0.66829 0.0
H381 H 0.58538 0.57717 0.65917 0.0
C382 C 0.59141 0.41896 0.66565 0.0
C383 C 0.60362 0.45396 0.69068 0.0
C384 C 0.60419 0.54319 0.69588 0.0
C385 C 0.61543 0.57753 0.7197 0.0
C386 C 0.61617 0.66752 0.72414 0.0
C387 C 0.60886 0.72283 0.70569 0.0
C388 C 0.59709 0.68881 0.68251 0.0
C389 C 0.5944 0.59997 0.67756 0.0
loop_
_geom_bond_atom_site_label_1
_geom_bond_atom_site_label_2
_geom_bond_distance
_geom_bond_site_symmetry_2
_ccdc_geom_bond_type
Tb0 C9 2.764 . S
Tb0 O10 2.325 . S
Tb0 O13 2.303 . S
Tb0 O17 2.322 . S
Tb0 O18 2.349 . S
Tb0 O21 2.415 . S
Tb0 O22 2.399 . S
Tb1 O11 2.322 . S
Tb1 O12 2.349 . S
Tb1 O14 2.415 . S
Tb1 O15 2.399 . S
Tb1 O16 2.325 1_655 S
Tb1 O19 2.303 1_655 S
Tb1 C30 2.764 . S
C2 O18 1.261 . S
C2 O19 1.257 . S
C3 C6 1.358 . S
C3 C7 1.332 . S
C3 C9 1.504 . S
C4 C5 1.373 . S
C4 C8 1.308 . S
C5 C4 1.373 . S
C5 C6 1.429 . S
C5 H32 0.932 . S
C6 C3 1.358 . S
C6 C5 1.429 . S
C6 H33 0.930 . S
C7 C3 1.332 . S
C7 C8 1.394 . S
C7 H34 0.932 . S
C8 C4 1.308 . S
C8 C7 1.394 . S
C8 H35 0.929 . S
C9 Tb0 2.764 . S
C9 C3 1.504 . S
C9 O21 1.239 . S
C9 O22 1.263 . S
O10 Tb0 2.325 . S
O10 C20 1.236 1_455 S
O11 Tb1 2.322 . S
O11 C20 1.257 . S
O12 Tb1 2.349 . S
O12 C23 1.261 1_655 S
O13 Tb0 2.303 . S
O13 C23 1.257 . S
O14 Tb1 2.415 . S
O14 C30 1.239 . S
O15 Tb1 2.399 . S
O15 C30 1.263 . S
O16 Tb1 2.325 1_455 S
O16 C31 1.236 . S
O17 Tb0 2.322 . S
O17 C31 1.257 . S
O18 Tb0 2.349 . S
O18 C2 1.261 . S
O19 Tb1 2.303 1_455 S
O19 C2 1.257 . S
C20 O10 1.236 1_655 S
C20 O11 1.257 . S
O21 Tb0 2.415 . S
O21 C9 1.239 . S
O22 Tb0 2.399 . S
O22 C9 1.263 . S
C23 O12 1.261 1_455 S
C23 O13 1.257 . S
C24 C27 1.358 . S
C24 C28 1.332 . S
C24 C30 1.504 . S
C25 C26 1.373 . S
C25 C29 1.308 . S
C26 C25 1.373 . S
C26 C27 1.429 . S
C26 H36 0.932 . S
C27 C24 1.358 . S
C27 C26 1.429 . S
C27 H37 0.930 . S
C28 C24 1.332 . S
C28 C29 1.394 . S
C28 H38 0.932 . S
C29 C25 1.308 . S
C29 C28 1.394 . S
C29 H39 0.929 . S
C30 Tb1 2.764 . S
C30 O14 1.239 . S
C30 O15 1.263 . S
C30 C24 1.504 . S
C31 O16 1.236 . S
C31 O17 1.257 . S
H32 C5 0.932 . S
H33 C6 0.930 . S
H34 C7 0.932 . S
H35 C8 0.929 . S
H36 C26 0.932 . S
H37 C27 0.930 . S
H38 C28 0.932 . S
H39 C29 0.929 . S
Tb40 C49 2.764 . S
Tb40 O50 2.325 1_565 S
Tb40 O53 2.303 . S
Tb40 O57 2.322 . S
Tb40 O58 2.349 . S
Tb40 O61 2.415 . S
Tb40 O62 2.399 . S
Tb41 O51 2.322 . S
Tb41 O52 2.349 . S
Tb41 O54 2.415 . S
Tb41 O55 2.399 . S
Tb41 O56 2.325 1_545 S
Tb41 O59 2.303 . S
Tb41 C70 2.764 . S
C42 O58 1.261 . S
C42 O59 1.257 1_565 S
C43 C46 1.358 . S
C43 C47 1.332 . S
C43 C49 1.504 . S
C44 C45 1.373 . S
C44 C48 1.308 . S
C45 C44 1.373 . S
C45 C46 1.429 . S
C45 H72 0.932 . S
C46 C43 1.358 . S
C46 C45 1.429 . S
C46 H73 0.930 . S
C47 C43 1.332 . S
C47 C48 1.394 . S
C47 H74 0.932 . S
C48 C44 1.308 . S
C48 C47 1.394 . S
C48 H75 0.929 . S
C49 Tb40 2.764 . S
C49 C43 1.504 . S
C49 O61 1.239 . S
C49 O62 1.263 . S
O50 Tb40 2.325 1_545 S
O50 C60 1.236 . S
O51 Tb41 2.322 . S
O51 C60 1.257 . S
O52 Tb41 2.349 . S
O52 C63 1.261 . S
O53 Tb40 2.303 . S
O53 C63 1.257 1_565 S
O54 Tb41 2.415 . S
O54 C70 1.239 . S
O55 Tb41 2.399 . S
O55 C70 1.263 . S
O56 Tb41 2.325 1_565 S
O56 C71 1.236 . S
O57 Tb40 2.322 . S
O57 C71 1.257 . S
O58 Tb40 2.349 . S
O58 C42 1.261 . S
O59 Tb41 2.303 . S
O59 C42 1.257 1_545 S
C60 O50 1.236 . S
C60 O51 1.257 . S
O61 Tb40 2.415 . S
O61 C49 1.239 . S
O62 Tb40 2.399 . S
O62 C49 1.263 . S
C63 O52 1.261 . S
C63 O53 1.257 1_545 S
C64 C67 1.358 . S
C64 C68 1.332 . S
C64 C70 1.504 . S
C65 C66 1.373 . S
C65 C69 1.308 . S
C66 C65 1.373 . S
C66 C67 1.429 . S
C66 H76 0.932 . S
C67 C64 1.358 . S
C67 C66 1.429 . S
C67 H77 0.930 . S
C68 C64 1.332 . S
C68 C69 1.394 . S
C68 H78 0.932 . S
C69 C65 1.308 . S
C69 C68 1.394 . S
C69 H79 0.929 . S
C70 Tb41 2.764 . S
C70 O54 1.239 . S
C70 O55 1.263 . S
C70 C64 1.504 . S
C71 O56 1.236 . S
C71 O57 1.257 . S
H72 C45 0.932 . S
H73 C46 0.930 . S
H74 C47 0.932 . S
H75 C48 0.929 . S
H76 C66 0.932 . S
H77 C67 0.930 . S
H78 C68 0.932 . S
H79 C69 0.929 . S
Tb80 C89 2.764 . S
Tb80 O90 2.325 . S
Tb80 O93 2.303 . S
Tb80 O97 2.322 . S
Tb80 O98 2.349 . S
Tb80 O101 2.415 . S
Tb80 O102 2.399 . S
Tb81 O91 2.322 . S
Tb81 O92 2.349 . S
Tb81 O94 2.415 . S
Tb81 O95 2.399 . S
Tb81 O96 2.325 . S
Tb81 O99 2.303 . S
Tb81 C110 2.764 . S
C82 O98 1.261 . S
C82 O99 1.257 . S
C83 C86 1.358 . S
C83 C87 1.332 . S
C83 C89 1.504 . S
C84 C85 1.373 . S
C84 C88 1.308 . S
C85 C84 1.373 . S
C85 C86 1.429 . S
C85 H112 0.932 . S
C86 C83 1.358 . S
C86 C85 1.429 . S
C86 H113 0.930 . S
C87 C83 1.332 . S
C87 C88 1.394 . S
C87 H114 0.932 . S
C88 C84 1.308 . S
C88 C87 1.394 . S
C88 H115 0.929 . S
C89 Tb80 2.764 . S
C89 C83 1.504 . S
C89 O101 1.239 . S
C89 O102 1.263 . S
O90 Tb80 2.325 . S
O90 C100 1.236 . S
O91 Tb81 2.322 . S
O91 C100 1.257 . S
O92 Tb81 2.349 . S
O92 C103 1.261 . S
O93 Tb80 2.303 . S
O93 C103 1.257 . S
O94 Tb81 2.415 . S
O94 C110 1.239 . S
O95 Tb81 2.399 . S
O95 C110 1.263 . S
O96 Tb81 2.325 . S
O96 C111 1.236 . S
O97 Tb80 2.322 . S
O97 C111 1.257 . S
O98 Tb80 2.349 . S
O98 C82 1.261 . S
O99 Tb81 2.303 . S
O99 C82 1.257 . S
C100 O90 1.236 . S
C100 O91 1.257 . S
O101 Tb80 2.415 . S
O101 C89 1.239 . S
O102 Tb80 2.399 . S
O102 C89 1.263 . S
C103 O92 1.261 . S
C103 O93 1.257 . S
C104 C107 1.358 . S
C104 C108 1.332 . S
C104 C110 1.504 . S
C105 C106 1.373 . S
C105 C109 1.308 . S
C106 C105 1.373 . S
C106 C107 1.429 . S
C106 H116 0.932 . S
C107 C104 1.358 . S
C107 C106 1.429 . S
C107 H117 0.930 . S
C108 C104 1.332 . S
C108 C109 1.394 . S
C108 H118 0.932 . S
C109 C105 1.308 . S
C109 C108 1.394 . S
C109 H119 0.929 . S
C110 Tb81 2.764 . S
C110 O94 1.239 . S
C110 O95 1.263 . S
C110 C104 1.504 . S
C111 O96 1.236 . S
C111 O97 1.257 . S
H112 C85 0.932 . S
H113 C86 0.930 . S
H114 C87 0.932 . S
H115 C88 0.929 . S
H116 C106 0.932 . S
H117 C107 0.930 . S
H118 C108 0.932 . S
H119 C109 0.929 . S
H120 C121 0.951 . S
C121 H120 0.951 . S
C121 C127 1.265 . S
H122 C127 0.950 1_655 S
H123 C131 0.949 1_455 S
H124 C132 0.950 . S
H125 C133 0.951 1_565 S
H126 C134 0.951 . S
C127 C121 1.265 . S
C127 H122 0.950 1_455 S
C127 C128 1.478 1_565 S
C128 C127 1.478 1_545 S
C128 C129 1.397 . S
C128 C145 1.394 . S
C129 C128 1.397 . S
C129 C130 1.438 . S
C129 C134 1.429 1_445 S
C130 C129 1.438 . S
C130 C131 1.428 1_455 S
C130 C143 1.394 . S
C131 H123 0.949 1_655 S
C131 C130 1.428 1_655 S
C131 C132 1.345 . S
C132 H124 0.950 . S
C132 C131 1.345 . S
C132 C133 1.424 . S
C133 H125 0.951 1_545 S
C133 C132 1.424 . S
C133 C134 1.347 1_545 S
C134 H126 0.951 . S
C134 C129 1.429 1_665 S
C134 C133 1.347 1_565 S
H135 C136 0.951 . S
C136 H135 0.951 . S
C136 C142 1.265 . S
H137 C142 0.950 . S
H138 C146 0.949 . S
H139 C147 0.950 . S
H140 C148 0.951 . S
H141 C149 0.951 . S
C142 C136 1.265 . S
C142 H137 0.950 . S
C142 C143 1.478 . S
C143 C130 1.394 . S
C143 C142 1.478 . S
C143 C144 1.397 . S
C144 C143 1.397 . S
C144 C145 1.438 . S
C144 C149 1.429 . S
C145 C128 1.394 . S
C145 C144 1.438 . S
C145 C146 1.428 . S
C146 H138 0.949 . S
C146 C145 1.428 . S
C146 C147 1.345 . S
C147 H139 0.950 . S
C147 C146 1.345 . S
C147 C148 1.424 . S
C148 H140 0.951 . S
C148 C147 1.424 . S
C148 C149 1.347 . S
C149 H141 0.951 . S
C149 C144 1.429 . S
C149 C148 1.347 . S
H150 C151 0.951 . S
C151 H150 0.951 . S
C151 C157 1.265 1_545 S
H152 C157 0.950 . S
H153 C161 0.949 . S
H154 C162 0.950 . S
H155 C163 0.951 . S
H156 C164 0.947 1_455 S
C157 C151 1.265 1_565 S
C157 H152 0.950 . S
C157 C158 1.478 . S
C158 C157 1.478 . S
C158 C159 1.397 1_455 S
C158 C175 1.394 1_565 S
C159 C158 1.397 1_655 S
C159 C160 1.438 . S
C159 C164 1.429 . S
C160 C159 1.438 . S
C160 C161 1.428 . S
C160 C173 1.394 1_565 S
C161 H153 0.949 . S
C161 C160 1.428 . S
C161 C162 1.345 . S
C162 H154 0.950 . S
C162 C161 1.345 . S
C162 C163 1.424 . S
C163 H155 0.951 . S
C163 C162 1.424 . S
C163 C164 1.347 . S
C164 H156 0.947 1_655 S
C164 C159 1.429 . S
C164 C163 1.347 . S
H165 C166 0.951 . S
C166 H165 0.951 . S
C166 C172 1.265 1_565 S
H167 C172 0.950 . S
H168 C176 0.949 . S
H169 C177 0.950 . S
H170 C178 0.951 . S
H171 C179 0.951 . S
C172 C166 1.265 1_545 S
C172 H167 0.950 . S
C172 C173 1.478 . S
C173 C160 1.394 1_545 S
C173 C172 1.478 . S
C173 C174 1.397 . S
C174 C173 1.397 . S
C174 C175 1.438 1_655 S
C174 C179 1.429 . S
C175 C158 1.394 1_545 S
C175 C174 1.438 1_455 S
C175 C176 1.428 . S
C176 H168 0.949 . S
C176 C175 1.428 . S
C176 C177 1.345 . S
C177 H169 0.950 . S
C177 C176 1.345 . S
C177 C178 1.424 . S
C178 H170 0.951 . S
C178 C177 1.424 . S
C178 C179 1.347 1_455 S
C179 H171 0.951 . S
C179 C174 1.429 . S
C179 C178 1.347 1_655 S
H180 C181 0.951 . S
C181 H180 0.951 . S
C181 C187 1.265 . S
H182 C187 0.950 . S
H183 C191 0.949 . S
H184 C192 0.950 1_455 S
H185 C193 0.951 . S
H186 C194 0.951 . S
C187 C181 1.265 . S
C187 H182 0.950 . S
C187 C188 1.478 1_565 S
C188 C187 1.478 1_545 S
C188 C189 1.397 . S
C188 C205 1.394 . S
C189 C188 1.397 . S
C189 C190 1.438 1_655 S
C189 C194 1.429 . S
C190 C189 1.438 1_455 S
C190 C191 1.428 . S
C190 C203 1.394 . S
C191 H183 0.949 . S
C191 C190 1.428 . S
C191 C192 1.345 1_455 S
C192 H184 0.950 1_655 S
C192 C191 1.345 1_655 S
C192 C193 1.424 . S
C193 H185 0.951 . S
C193 C192 1.424 . S
C193 C194 1.347 . S
C194 H186 0.951 . S
C194 C189 1.429 . S
C194 C193 1.347 . S
H195 C196 0.951 . S
C196 H195 0.951 . S
C196 C202 1.265 . S
H197 C202 0.950 . S
H198 C206 0.945 1_565 S
H199 C207 0.950 1_565 S
H200 C208 0.951 . S
H201 C209 0.951 . S
C202 C196 1.265 . S
C202 H197 0.950 . S
C202 C203 1.478 . S
C203 C190 1.394 . S
C203 C202 1.478 . S
C203 C204 1.397 . S
C204 C203 1.397 . S
C204 C205 1.438 1_455 S
C204 C209 1.429 . S
C205 C188 1.394 . S
C205 C204 1.438 1_655 S
C205 C206 1.434 . S
C206 H198 0.945 1_545 S
C206 C205 1.434 . S
C206 C207 1.342 . S
C207 H199 0.950 1_545 S
C207 C206 1.342 . S
C207 C208 1.424 1_655 S
C208 H200 0.951 . S
C208 C207 1.424 1_455 S
C208 C209 1.347 . S
C209 H201 0.951 . S
C209 C204 1.429 . S
C209 C208 1.347 . S
H210 C211 0.951 . S
C211 H210 0.951 . S
C211 C217 1.265 . S
H212 C217 0.950 . S
H213 C221 0.949 1_554 S
H214 C222 0.977 . S
H215 C223 0.951 . S
H216 C224 0.951 . S
C217 C211 1.265 . S
C217 H212 0.950 . S
C217 C218 1.478 . S
C218 C217 1.478 . S
C218 C219 1.397 . S
C218 C235 1.394 . S
C219 C218 1.397 . S
C219 C220 1.438 . S
C219 C224 1.429 . S
C220 C219 1.438 . S
C220 C221 1.428 . S
C220 C233 1.394 . S
C221 H213 0.949 1_556 S
C221 C220 1.428 . S
C221 C222 1.345 . S
C222 H214 0.977 . S
C222 C221 1.345 . S
C222 C223 1.424 . S
C223 H215 0.951 . S
C223 C222 1.424 . S
C223 C224 1.347 . S
C224 H216 0.951 . S
C224 C219 1.429 . S
C224 C223 1.347 . S
H225 C226 0.951 . S
C226 H225 0.951 . S
C226 C232 1.265 . S
H227 C232 0.950 . S
H228 C236 0.949 . S
H229 C237 0.950 . S
H230 C238 0.951 . S
H231 C239 0.951 1_545 S
C232 C226 1.265 . S
C232 H227 0.950 . S
C232 C233 1.478 1_554 S
C233 C220 1.394 . S
C233 C232 1.478 1_556 S
C233 C234 1.397 . S
C234 C233 1.397 . S
C234 C235 1.438 . S
C234 C239 1.429 . S
C235 C218 1.394 . S
C235 C234 1.438 . S
C235 C236 1.428 . S
C236 H228 0.949 . S
C236 C235 1.428 . S
C236 C237 1.345 1_565 S
C237 H229 0.950 . S
C237 C236 1.345 1_545 S
C237 C238 1.424 . S
C238 H230 0.951 . S
C238 C237 1.424 . S
C238 C239 1.347 1_545 S
C239 H231 0.951 1_565 S
C239 C234 1.429 . S
C239 C238 1.347 1_565 S
H240 C241 0.951 . S
C241 H240 0.951 . S
C241 C247 1.265 . S
H242 C247 0.950 . S
H243 C251 0.949 . S
H244 C252 0.950 . S
H245 C253 0.951 1_565 S
H246 C254 0.951 . S
C247 C241 1.265 . S
C247 H242 0.950 . S
C247 C248 1.478 . S
C248 C247 1.478 . S
C248 C249 1.397 . S
C248 C265 1.394 . S
C249 C248 1.397 . S
C249 C250 1.438 . S
C249 C254 1.429 . S
C250 C249 1.438 . S
C250 C251 1.428 . S
C250 C263 1.394 . S
C251 H243 0.949 . S
C251 C250 1.428 . S
C251 C252 1.345 . S
C252 H244 0.950 . S
C252 C251 1.345 . S
C252 C253 1.424 . S
C253 H245 0.951 1_545 S
C253 C252 1.424 . S
C253 C254 1.347 . S
C254 H246 0.951 . S
C254 C249 1.429 . S
C254 C253 1.347 . S
H255 C256 0.951 . S
C256 H255 0.951 . S
C256 C262 1.265 . S
H257 C262 0.950 . S
H258 C266 0.949 . S
H259 C267 0.950 . S
H260 C268 0.951 . S
H261 C269 0.951 . S
C262 C256 1.265 . S
C262 H257 0.950 . S
C262 C263 1.478 . S
C263 C250 1.394 . S
C263 C262 1.478 . S
C263 C264 1.397 . S
C264 C263 1.397 . S
C264 C265 1.438 . S
C264 C269 1.429 . S
C265 C248 1.394 . S
C265 C264 1.438 . S
C265 C266 1.428 . S
C266 H258 0.949 . S
C266 C265 1.428 . S
C266 C267 1.345 . S
C267 H259 0.950 . S
C267 C266 1.345 . S
C267 C268 1.424 . S
C268 H260 0.951 . S
C268 C267 1.424 . S
C268 C269 1.347 . S
C269 H261 0.951 . S
C269 C264 1.429 . S
C269 C268 1.347 . S
H270 C271 0.951 . S
C271 H270 0.951 . S
C271 C277 1.265 . S
H272 C277 0.950 . S
H273 C281 0.949 1_545 S
H274 C282 0.950 . S
H275 C283 0.951 . S
H276 C284 0.951 . S
C277 C271 1.265 . S
C277 H272 0.950 . S
C277 C278 1.478 . S
C278 C277 1.478 . S
C278 C279 1.397 . S
C278 C295 1.394 . S
C279 C278 1.397 . S
C279 C280 1.438 . S
C279 C284 1.429 . S
C280 C279 1.438 . S
C280 C281 1.428 . S
C280 C293 1.394 . S
C281 H273 0.949 1_565 S
C281 C280 1.428 . S
C281 C282 1.345 1_565 S
C282 H274 0.950 . S
C282 C281 1.345 1_545 S
C282 C283 1.424 . S
C283 H275 0.951 . S
C283 C282 1.424 . S
C283 C284 1.347 1_545 S
C284 H276 0.951 . S
C284 C279 1.429 . S
C284 C283 1.347 1_565 S
H285 C286 0.951 . S
C286 H285 0.951 . S
C286 C292 1.265 . S
H287 C292 0.950 . S
H288 C296 0.949 . S
H289 C297 0.950 . S
H290 C298 0.951 . S
H291 C299 0.951 . S
C292 C286 1.265 . S
C292 H287 0.950 . S
C292 C293 1.478 . S
C293 C280 1.394 . S
C293 C292 1.478 . S
C293 C294 1.397 . S
C294 C293 1.397 . S
C294 C295 1.438 . S
C294 C299 1.429 . S
C295 C278 1.394 . S
C295 C294 1.438 . S
C295 C296 1.428 . S
C296 H288 0.949 . S
C296 C295 1.428 . S
C296 C297 1.345 . S
C297 H289 0.950 . S
C297 C296 1.345 . S
C297 C298 1.424 . S
C298 H290 0.951 . S
C298 C297 1.424 . S
C298 C299 1.347 . S
C299 H291 0.951 . S
C299 C294 1.429 . S
C299 C298 1.347 . S
H300 C301 0.951 . S
C301 H300 0.951 . S
C301 C307 1.265 . S
H302 C307 0.950 . S
H303 C311 0.949 1_455 S
H304 C312 0.950 . S
H305 C313 0.951 . S
H306 C314 0.951 1_556 S
C307 C301 1.265 . S
C307 H302 0.950 . S
C307 C308 1.478 1_556 S
C308 C307 1.478 1_554 S
C308 C309 1.397 . S
C308 C325 1.394 . S
C309 C308 1.397 . S
C309 C310 1.438 . S
C309 C314 1.429 . S
C310 C309 1.438 . S
C310 C311 1.428 . S
C310 C323 1.394 . S
C311 H303 0.949 1_655 S
C311 C310 1.428 . S
C311 C312 1.345 1_655 S
C312 H304 0.950 . S
C312 C311 1.345 1_455 S
C312 C313 1.424 . S
C313 H305 0.951 . S
C313 C312 1.424 . S
C313 C314 1.347 1_455 S
C314 H306 0.951 1_554 S
C314 C309 1.429 . S
C314 C313 1.347 1_655 S
H315 C316 0.951 . S
C316 H315 0.951 . S
C316 C322 1.265 . S
H317 C322 0.950 . S
H318 C326 0.949 . S
H319 C327 0.950 . S
H320 C328 0.951 . S
H321 C329 0.951 . S
C322 C316 1.265 . S
C322 H317 0.950 . S
C322 C323 1.478 . S
C323 C310 1.394 . S
C323 C322 1.478 . S
C323 C324 1.397 . S
C324 C323 1.397 . S
C324 C325 1.438 . S
C324 C329 1.429 . S
C325 C308 1.394 . S
C325 C324 1.438 . S
C325 C326 1.428 . S
C326 H318 0.949 . S
C326 C325 1.428 . S
C326 C327 1.345 . S
C327 H319 0.950 . S
C327 C326 1.345 . S
C327 C328 1.424 . S
C328 H320 0.951 . S
C328 C327 1.424 . S
C328 C329 1.347 . S
C329 H321 0.951 . S
C329 C324 1.429 . S
C329 C328 1.347 . S
H330 C331 0.951 . S
C331 H330 0.951 . S
C331 C337 1.265 . S
H332 C337 0.950 . S
H333 C341 0.949 . S
H334 C342 0.950 . S
H335 C343 0.951 . S
H336 C344 0.951 . S
C337 C331 1.265 . S
C337 H332 0.950 . S
C337 C338 1.478 . S
C338 C337 1.478 . S
C338 C339 1.397 . S
C338 C355 1.394 . S
C339 C338 1.397 . S
C339 C340 1.438 . S
C339 C344 1.429 . S
C340 C339 1.438 . S
C340 C341 1.428 . S
C340 C353 1.394 . S
C341 H333 0.949 . S
C341 C340 1.428 . S
C341 C342 1.345 . S
C342 H334 0.950 . S
C342 C341 1.345 . S
C342 C343 1.424 . S
C343 H335 0.951 . S
C343 C342 1.424 . S
C343 C344 1.347 . S
C344 H336 0.951 . S
C344 C339 1.429 . S
C344 C343 1.347 . S
H345 C346 0.951 . S
C346 H345 0.951 . S
C346 C352 1.265 . S
H347 C352 0.950 . S
H348 C356 0.949 . S
H349 C357 0.950 . S
H350 C358 0.951 . S
H351 C359 0.951 . S
C352 C346 1.265 . S
C352 H347 0.950 . S
C352 C353 1.478 . S
C353 C340 1.394 . S
C353 C352 1.478 . S
C353 C354 1.397 . S
C354 C353 1.397 . S
C354 C355 1.438 . S
C354 C359 1.429 . S
C355 C338 1.394 . S
C355 C354 1.438 . S
C355 C356 1.428 . S
C356 H348 0.949 . S
C356 C355 1.428 . S
C356 C357 1.345 . S
C357 H349 0.950 . S
C357 C356 1.345 . S
C357 C358 1.424 . S
C358 H350 0.951 . S
C358 C357 1.424 . S
C358 C359 1.347 . S
C359 H351 0.951 . S
C359 C354 1.429 . S
C359 C358 1.347 . S
H360 C361 0.951 . S
C361 H360 0.951 . S
C361 C367 1.265 . S
H362 C367 0.950 . S
H363 C371 0.949 . S
H364 C372 0.950 . S
H365 C373 0.951 . S
H366 C374 0.951 . S
C367 C361 1.265 . S
C367 H362 0.950 . S
C367 C368 1.478 . S
C368 C367 1.478 . S
C368 C369 1.397 . S
C368 C385 1.394 . S
C369 C368 1.397 . S
C369 C370 1.438 . S
C369 C374 1.429 . S
C370 C369 1.438 . S
C370 C371 1.428 . S
C370 C383 1.394 . S
C371 H363 0.949 . S
C371 C370 1.428 . S
C371 C372 1.345 . S
C372 H364 0.950 . S
C372 C371 1.345 . S
C372 C373 1.424 . S
C373 H365 0.951 . S
C373 C372 1.424 . S
C373 C374 1.347 . S
C374 H366 0.951 . S
C374 C369 1.429 . S
C374 C373 1.347 . S
H375 C376 0.951 . S
C376 H375 0.951 . S
C376 C382 1.265 . S
H377 C382 0.950 . S
H378 C386 0.949 . S
H379 C387 0.950 . S
H380 C388 0.951 . S
H381 C389 0.951 . S
C382 C376 1.265 . S
C382 H377 0.950 . S
C382 C383 1.478 . S
C383 C370 1.394 . S
C383 C382 1.478 . S
C383 C384 1.397 . S
C384 C383 1.397 . S
C384 C385 1.438 . S
C384 C389 1.429 . S
C385 C368 1.394 . S
C385 C384 1.438 . S
C385 C386 1.428 . S
C386 H378 0.949 . S
C386 C385 1.428 . S
C386 C387 1.345 . S
C387 H379 0.950 . S
C387 C386 1.345 . S
C387 C388 1.424 . S
C388 H380 0.951 . S
C388 C387 1.424 . S
C388 C389 1.347 . S
C389 H381 0.951 . S
C389 C384 1.429 . S
C389 C388 1.347 . S
C121 C23 1.504 . S
C136 C2 1.504 . S
C151 C42 1.526 1_545 S
C166 C63 1.526 1_565 S
C181 C82 1.513 . S
C196 C103 1.513 . S
C211 C111 1.153 . S
C226 C4 1.066 . S
C241 C60 1.455 . S
C256 C25 1.414 . S
C271 C84 1.046 . S
C286 C71 1.178 . S
C301 C105 1.432 . S
C316 C20 1.453 . S
C331 C31 1.207 . S
C346 C44 1.103 . S
C361 C100 1.457 . S
C376 C65 1.456 . S
