# Generated by pormake.
# Topology wkj, (6)-cn, num edge types: 1
# Building blocks:
#     Node 0, Type 0, BuildingBlock: UKALOJ_clean_sbu_0, # of connection points: 6
#     Node 1, Type 0, BuildingBlock: UKALOJ_clean_sbu_0, # of connection points: 6
#     Node 2, Type 0, BuildingBlock: UKALOJ_clean_sbu_0, # of connection points: 6
#     Node 3, Type 0, BuildingBlock: UKALOJ_clean_sbu_0, # of connection points: 6
#     Node 4, Type 0, BuildingBlock: UKALOJ_clean_sbu_0, # of connection points: 6
#     Node 5, Type 0, BuildingBlock: UKALOJ_clean_sbu_0, # of connection points: 6
#     Node 6, Type 0, BuildingBlock: UKALOJ_clean_sbu_0, # of connection points: 6
#     Node 7, Type 0, BuildingBlock: UKALOJ_clean_sbu_0, # of connection points: 6
#     Node 8, Type 0, BuildingBlock: UKALOJ_clean_sbu_0, # of connection points: 6
#     Node 9, Type 0, BuildingBlock: UKALOJ_clean_sbu_0, # of connection points: 6
#     Node 10, Type 0, BuildingBlock: UKALOJ_clean_sbu_0, # of connection points: 6
#     Node 11, Type 0, BuildingBlock: UKALOJ_clean_sbu_0, # of connection points: 6
#     Edge 12, Type (0, 0), BuildingBlock: XIVTED_clean_linker_0, # of connection points: 2
#     Edge 13, Type (0, 0), BuildingBlock: XIVTED_clean_linker_0, # of connection points: 2
#     Edge 14, Type (0, 0), BuildingBlock: XIVTED_clean_linker_0, # of connection points: 2
#     Edge 15, Type (0, 0), BuildingBlock: XIVTED_clean_linker_0, # of connection points: 2
#     Edge 16, Type (0, 0), BuildingBlock: XIVTED_clean_linker_0, # of connection points: 2
#     Edge 17, Type (0, 0), BuildingBlock: XIVTED_clean_linker_0, # of connection points: 2
#     Edge 18, Type (0, 0), BuildingBlock: XIVTED_clean_linker_0, # of connection points: 2
#     Edge 19, Type (0, 0), BuildingBlock: XIVTED_clean_linker_0, # of connection points: 2
#     Edge 20, Type (0, 0), BuildingBlock: XIVTED_clean_linker_0, # of connection points: 2
#     Edge 21, Type (0, 0), BuildingBlock: XIVTED_clean_linker_0, # of connection points: 2
#     Edge 22, Type (0, 0), BuildingBlock: XIVTED_clean_linker_0, # of connection points: 2
#     Edge 23, Type (0, 0), BuildingBlock: XIVTED_clean_linker_0, # of connection points: 2
#     Edge 24, Type (0, 0), BuildingBlock: XIVTED_clean_linker_0, # of connection points: 2
#     Edge 25, Type (0, 0), BuildingBlock: XIVTED_clean_linker_0, # of connection points: 2
#     Edge 26, Type (0, 0), BuildingBlock: XIVTED_clean_linker_0, # of connection points: 2
#     Edge 27, Type (0, 0), BuildingBlock: XIVTED_clean_linker_0, # of connection points: 2
#     Edge 28, Type (0, 0), BuildingBlock: XIVTED_clean_linker_0, # of connection points: 2
#     Edge 29, Type (0, 0), BuildingBlock: XIVTED_clean_linker_0, # of connection points: 2
#     Edge 30, Type (0, 0), BuildingBlock: XIVTED_clean_linker_0, # of connection points: 2
#     Edge 31, Type (0, 0), BuildingBlock: XIVTED_clean_linker_0, # of connection points: 2
#     Edge 32, Type (0, 0), BuildingBlock: XIVTED_clean_linker_0, # of connection points: 2
#     Edge 33, Type (0, 0), BuildingBlock: XIVTED_clean_linker_0, # of connection points: 2
#     Edge 34, Type (0, 0), BuildingBlock: XIVTED_clean_linker_0, # of connection points: 2
#     Edge 35, Type (0, 0), BuildingBlock: XIVTED_clean_linker_0, # of connection points: 2
#     Edge 36, Type (0, 0), BuildingBlock: XIVTED_clean_linker_0, # of connection points: 2
#     Edge 37, Type (0, 0), BuildingBlock: XIVTED_clean_linker_0, # of connection points: 2
#     Edge 38, Type (0, 0), BuildingBlock: XIVTED_clean_linker_0, # of connection points: 2
#     Edge 39, Type (0, 0), BuildingBlock: XIVTED_clean_linker_0, # of connection points: 2
#     Edge 40, Type (0, 0), BuildingBlock: XIVTED_clean_linker_0, # of connection points: 2
#     Edge 41, Type (0, 0), BuildingBlock: XIVTED_clean_linker_0, # of connection points: 2
#     Edge 42, Type (0, 0), BuildingBlock: XIVTED_clean_linker_0, # of connection points: 2
#     Edge 43, Type (0, 0), BuildingBlock: XIVTED_clean_linker_0, # of connection points: 2
#     Edge 44, Type (0, 0), BuildingBlock: XIVTED_clean_linker_0, # of connection points: 2
#     Edge 45, Type (0, 0), BuildingBlock: XIVTED_clean_linker_0, # of connection points: 2
#     Edge 46, Type (0, 0), BuildingBlock: XIVTED_clean_linker_0, # of connection points: 2
#     Edge 47, Type (0, 0), BuildingBlock: XIVTED_clean_linker_0, # of connection points: 2
# Relax obj value: 0.883
# Max RMSD: 0.239
# Mean RMSD: 0.239
data_MOF--net-wkj--node1-UKALOJ_clean_sbu_0--edge1-XIVTED_clean_linker_0
_symmetry_space_group_name_H-M    P1
_symmetry_Int_Tables_number       1
_symmetry_cell_setting            triclinic
loop_
_symmetry_equiv_pos_as_xyz
'x, y, z'
_cell_length_a     63.750455
_cell_length_b     63.448423
_cell_length_c     22.323727
_cell_angle_alpha  89.987142
_cell_angle_beta   90.018168
_cell_angle_gamma 119.88459
loop_
_atom_site_label
_atom_site_type_symbol
_atom_site_fract_x
_atom_site_fract_y
_atom_site_fract_z
_atom_type_partial_charge
Zn0 Zn 0.49308 0.07755 0.26054 0.0
O1 O 0.46635 0.06439 0.32334 0.0
C2 C 0.52809 0.11856 0.33878 0.0
Zn3 Zn 0.48828 0.11012 0.25328 0.0
C4 C 0.45537 0.07458 0.34454 0.0
O5 O 0.46124 0.0959 0.32668 0.0
C6 C 0.5251 0.10989 0.16512 0.0
O7 O 0.45912 0.08902 0.1891 0.0
O8 O 0.46629 0.05848 0.19843 0.0
N9 N 0.4843 0.14099 0.24957 0.0
C10 C 0.48544 0.15763 0.20944 0.0
C11 C 0.48177 0.1696 0.2959 0.0
N12 N 0.48185 0.14861 0.30292 0.0
N13 N 0.48406 0.17593 0.2377 0.0
C14 C 0.50144 0.04272 0.33481 0.0
C15 C 0.5233 0.03543 0.27683 0.0
N16 N 0.49836 0.04892 0.27889 0.0
N17 N 0.51145 0.04363 0.24255 0.0
N18 N 0.51784 0.03528 0.33533 0.0
H19 H 0.49495 0.03818 0.43019 0.0
H20 H 0.49593 0.0649 0.39969 0.0
H21 H 0.47008 0.03509 0.38669 0.0
C22 C 0.49006 0.04555 0.39098 0.0
C23 C 0.48909 0.15651 0.14358 0.0
H24 H 0.49416 0.14261 0.13294 0.0
H25 H 0.47194 0.15152 0.11993 0.0
H26 H 0.50316 0.17459 0.127 0.0
O27 O 0.51491 0.12225 0.17924 0.0
O28 O 0.51957 0.09046 0.19351 0.0
C29 C 0.454 0.0673 0.17581 0.0
O30 O 0.52049 0.09688 0.32265 0.0
O31 O 0.51788 0.12987 0.31791 0.0
Zn32 Zn 0.39011 0.4756 0.60476 0.0
O33 O 0.37772 0.44489 0.54237 0.0
C34 C 0.42457 0.50731 0.50606 0.0
Zn35 Zn 0.42566 0.47671 0.6042 0.0
C36 C 0.39178 0.43655 0.52941 0.0
O37 O 0.41319 0.44691 0.54985 0.0
C38 C 0.42627 0.5162 0.68102 0.0
O39 O 0.41372 0.45317 0.67464 0.0
O40 O 0.37795 0.44996 0.68039 0.0
N41 N 0.45877 0.47946 0.61242 0.0
C42 C 0.47376 0.48925 0.65971 0.0
C43 C 0.49561 0.49721 0.58231 0.0
N44 N 0.47246 0.48355 0.56455 0.0
N45 N 0.49696 0.50187 0.64169 0.0
C46 C 0.34058 0.47231 0.5624 0.0
C47 C 0.32842 0.47828 0.64614 0.0
N48 N 0.35693 0.47451 0.60435 0.0
N49 N 0.34912 0.47808 0.65619 0.0
N50 N 0.32246 0.4747 0.58761 0.0
H51 H 0.33105 0.44966 0.48499 0.0
H52 H 0.3377 0.48024 0.47008 0.0
H53 H 0.3619 0.4738 0.48571 0.0
C54 C 0.34313 0.46902 0.49693 0.0
C55 C 0.4662 0.49053 0.72308 0.0
H56 H 0.44713 0.4775 0.73259 0.0
H57 H 0.47746 0.48684 0.75455 0.0
H58 H 0.4698 0.50917 0.73317 0.0
O59 O 0.43855 0.50746 0.65899 0.0
O60 O 0.40388 0.50624 0.6681 0.0
C61 C 0.39311 0.44383 0.69866 0.0
O62 O 0.40379 0.50108 0.52832 0.0
O63 O 0.43748 0.49948 0.52951 0.0
Zn64 Zn 0.93507 0.38211 0.89495 0.0
O65 O 0.94513 0.36059 0.83758 0.0
C66 C 0.94217 0.41473 0.78682 0.0
Zn67 Zn 0.97244 0.41452 0.88546 0.0
C68 C 0.96729 0.37074 0.82241 0.0
O69 O 0.9814 0.39246 0.83771 0.0
C70 C 0.9416 0.42708 0.96103 0.0
O71 O 0.98148 0.40352 0.96284 0.0
O72 O 0.94662 0.37011 0.97497 0.0
N73 N 1.00873 0.4405 0.87993 0.0
C74 C 1.02189 0.457 0.92197 0.0
C75 C 0.04511 0.44588 0.88194 0.0
N76 N 1.02349 0.43413 0.85404 0.0
N77 N 0.04449 0.46026 0.92515 0.0
C78 C 0.88557 0.33367 0.86703 0.0
C79 C 0.86535 0.3294 0.94639 0.0
N80 N 0.89964 0.35277 0.90309 0.0
N81 N 0.88689 0.34999 0.95226 0.0
N82 N 0.86398 0.31861 0.89339 0.0
H83 H 0.90231 0.3205 0.80632 0.0
H84 H 0.87609 0.32054 0.77636 0.0
H85 H 0.90439 0.34877 0.78419 0.0
C86 C 0.89242 0.33075 0.80469 0.0
C87 C 1.01229 0.46878 0.96327 0.0
H88 H 1.00099 0.47438 0.9377 0.0
H89 H 1.00139 0.45589 0.99926 0.0
H90 H 1.02734 0.48528 0.98383 0.0
O91 O 0.96217 0.43632 0.93558 0.0
O92 O 0.9264 0.40458 0.95275 0.0
C93 C 0.96839 0.38427 0.9919 0.0
O94 O 0.92574 0.39631 0.81513 0.0
O95 O 0.96376 0.42557 0.80643 0.0
Zn96 Zn 0.57308 0.92399 0.25764 0.0
O97 O 0.59766 0.9317 0.18099 0.0
C98 C 0.54582 0.94173 0.17862 0.0
Zn99 Zn 0.5876 0.9642 0.26028 0.0
C100 C 0.61091 0.95351 0.16269 0.0
O101 O 0.61033 0.97063 0.19001 0.0
C102 C 0.54864 0.93681 0.35386 0.0
O103 O 0.61385 0.96622 0.31563 0.0
O104 O 0.60008 0.92727 0.32503 0.0
N105 N 0.60365 1.00113 0.27147 0.0
C106 C 0.61283 1.01457 0.32163 0.0
C107 C 0.62344 0.03907 0.24811 0.0
N108 N 0.61061 1.01639 0.22577 0.0
N109 N 0.62562 0.03867 0.3083 0.0
C110 C 0.57125 0.87335 0.24246 0.0
C111 C 0.53376 0.84913 0.22752 0.0
N112 N 0.55995 0.8866 0.24713 0.0
N113 N 0.53665 0.87137 0.23793 0.0
N114 N 0.55518 0.84969 0.23016 0.0
H115 H 0.60429 0.87509 0.21335 0.0
H116 H 0.60771 0.90382 0.2381 0.0
H117 H 0.60291 0.88083 0.2918 0.0
C118 C 0.59812 0.88398 0.24619 0.0
C119 C 0.60991 1.00386 0.38338 0.0
H120 H 0.62793 1.00853 0.40119 0.0
H121 H 0.60144 1.01106 0.41413 0.0
H122 H 0.5986 0.984 0.38454 0.0
O123 O 0.56343 0.95752 0.3322 0.0
O124 O 0.54798 0.91793 0.33147 0.0
C125 C 0.61546 0.94911 0.33935 0.0
O126 O 0.54652 0.92265 0.19388 0.0
O127 O 0.56111 0.96218 0.20105 0.0
Zn128 Zn 0.66772 0.56717 0.62618 0.0
O129 O 0.68383 0.59098 0.54765 0.0
C130 C 0.6221 0.53763 0.55368 0.0
Zn131 Zn 0.64245 0.5819 0.62988 0.0
C132 C 0.67407 0.60283 0.52687 0.0
O133 O 0.65639 0.60209 0.55421 0.0
C134 C 0.63275 0.54518 0.72797 0.0
O135 O 0.66777 0.61043 0.67786 0.0
O136 O 0.69166 0.59548 0.69039 0.0
N137 N 0.62197 0.59829 0.6412 0.0
C138 C 0.61806 0.60805 0.691 0.0
C139 C 0.60558 0.61956 0.61654 0.0
N140 N 0.61455 0.60586 0.59497 0.0
N141 N 0.60768 0.62163 0.67691 0.0
C142 C 0.70845 0.5561 0.57915 0.0
C143 C 0.71673 0.54336 0.65894 0.0
N144 N 0.69287 0.55509 0.62184 0.0
N145 N 0.69808 0.54703 0.67116 0.0
N146 N 0.72385 0.5491 0.60152 0.0
H147 H 0.71828 0.58233 0.50904 0.0
H148 H 0.71481 0.55362 0.48517 0.0
H149 H 0.68843 0.55622 0.50182 0.0
C150 C 0.7074 0.56234 0.51494 0.0
C151 C 0.62562 0.60535 0.75306 0.0
H152 H 0.6347 0.62327 0.77577 0.0
H153 H 0.60942 0.59255 0.77909 0.0
H154 H 0.63813 0.59818 0.75392 0.0
O155 O 0.6272 0.56041 0.70732 0.0
O156 O 0.6495 0.54308 0.70227 0.0
C157 C 0.6863 0.6119 0.70182 0.0
O158 O 0.64256 0.53936 0.56545 0.0
O159 O 0.61681 0.55279 0.57694 0.0
Zn160 Zn 0.0825 0.61735 0.95621 0.0
O161 O 0.06925 0.63514 1.00541 0.0
C162 C 0.12038 0.62479 0.04743 0.0
Zn163 Zn 0.11772 0.6515 0.93998 0.0
C164 C 0.08188 0.65742 0.01789 0.0
O165 O 0.10366 0.66937 0.99941 0.0
C166 C 0.11584 0.60949 0.87523 0.0
O167 O 0.09936 0.65713 0.86276 0.0
O168 O 0.06622 0.62242 0.88269 0.0
N169 N 0.14929 0.68522 0.92977 0.0
C170 C 0.16641 0.69749 0.88749 0.0
C171 C 0.17564 0.72061 0.96371 0.0
N172 N 0.15531 0.69977 0.97686 0.0
N173 N 0.18323 0.71988 0.90785 0.0
C174 C 0.04573 0.57687 0.03434 0.0
C175 C 0.03333 0.5463 0.97746 0.0
N176 N 0.05248 0.58529 0.97801 0.0
N177 N 0.04413 0.56618 0.94234 0.0
N178 N 0.03463 0.55242 0.03592 0.0
H179 H 0.06687 0.60918 0.08969 0.0
H180 H 0.03511 0.59767 0.08855 0.0
H181 H 0.04721 0.58203 0.13052 0.0
C182 C 0.04923 0.5923 0.08878 0.0
C183 C 0.16575 0.6879 0.82592 0.0
H184 H 0.1469 0.67439 0.81327 0.0
H185 H 0.17349 0.70295 0.79281 0.0
H186 H 0.17669 0.67872 0.82543 0.0
O187 O 0.12996 0.63241 0.88096 0.0
O188 O 0.09578 0.59927 0.90316 0.0
C189 C 0.07737 0.6413 0.85041 0.0
O190 O 0.09879 0.61186 0.03041 0.0
O191 O 0.13447 0.64378 0.01753 0.0
Zn192 Zn 0.94122 0.56117 0.39362 0.0
O193 O 0.96015 0.5852 0.47018 0.0
C194 C 0.94365 0.52081 0.45654 0.0
Zn195 Zn 0.97616 0.56209 0.37507 0.0
C196 C 0.98216 0.59125 0.48161 0.0
O197 O 0.99297 0.58335 0.44868 0.0
C198 C 0.93743 0.53175 0.28508 0.0
O199 O 0.98854 0.59332 0.32674 0.0
O200 O 0.9542 0.59309 0.33493 0.0
N201 N 1.0064 0.5608 0.35052 0.0
C202 C 1.01329 0.56079 0.29336 0.0
C203 C 1.02546 0.54101 0.34465 0.0
N204 N 1.01467 0.54908 0.38284 0.0
N205 N 1.02414 0.54729 0.28735 0.0
C206 C 0.89379 0.55859 0.45211 0.0
C207 C 0.8819 0.57026 0.37644 0.0
N208 N 0.90965 0.5627 0.40708 0.0
N209 N 0.902 0.56984 0.36033 0.0
N210 N 0.87614 0.56325 0.43388 0.0
H211 H 0.91561 0.55667 0.52316 0.0
H212 H 0.88996 0.55954 0.5477 0.0
H213 H 0.88539 0.53118 0.518 0.0
C214 C 0.89646 0.55124 0.51405 0.0
C215 C 1.01026 0.57473 0.24282 0.0
H216 H 1.02073 0.59445 0.25306 0.0
H217 H 1.01708 0.5715 0.20023 0.0
H218 H 0.99117 0.56978 0.23662 0.0
O219 O 0.95929 0.54042 0.30011 0.0
O220 O 0.92383 0.53673 0.31672 0.0
C221 C 0.97584 0.60299 0.31554 0.0
O222 O 0.92976 0.52987 0.45168 0.0
O223 O 0.96353 0.53043 0.42773 0.0
Zn224 Zn 0.4295 0.97483 0.76049 0.0
O225 O 0.41128 0.97986 0.6926 0.0
C226 C 0.44214 0.94526 0.67788 0.0
Zn227 Zn 0.40015 0.93567 0.75871 0.0
C228 C 0.39192 0.9648 0.66742 0.0
O229 O 0.3814 0.94266 0.68424 0.0
C230 C 0.43958 0.94868 0.8538 0.0
O231 O 0.38089 0.94518 0.82557 0.0
O232 O 0.41011 0.98308 0.819 0.0
N233 N 0.37287 0.89894 0.75886 0.0
C234 C 0.35516 0.8846 0.79789 0.0
C235 C 0.34987 0.86363 0.71916 0.0
N236 N 0.36946 0.8857 0.71017 0.0
N237 N 0.34028 0.86233 0.77378 0.0
C238 C 0.45897 0.02516 0.70366 0.0
C239 C 0.47049 0.04969 0.77736 0.0
N240 N 0.45334 1.0116 0.75392 0.0
N241 N 0.46035 0.02689 0.79978 0.0
N242 N 0.46904 0.04905 0.71705 0.0
H243 H 0.44102 1.01659 0.61811 0.0
H244 H 0.47252 0.02569 0.61533 0.0
H245 H 0.45106 0.99604 0.63961 0.0
C246 C 0.45567 1.01514 0.64106 0.0
C247 C 0.35358 0.89203 0.86063 0.0
H248 H 0.37193 0.90481 0.878 0.0
H249 H 0.34277 0.90135 0.86086 0.0
H250 H 0.34474 0.87594 0.89051 0.0
O251 O 0.42041 0.9306 0.83212 0.0
O252 O 0.44741 0.96976 0.83151 0.0
C253 C 0.39016 0.96741 0.84132 0.0
O254 O 0.4498 0.96611 0.70111 0.0
O255 O 0.42116 0.92805 0.69264 0.0
Zn256 Zn 0.48352 0.39637 0.12693 0.0
O257 O 0.45335 0.37659 0.18883 0.0
C258 C 0.51067 0.4315 0.22821 0.0
Zn259 Zn 0.47699 0.42799 0.13212 0.0
C260 C 0.44129 0.38676 0.20467 0.0
O261 O 0.44775 0.40805 0.18675 0.0
C262 C 0.519 0.4393 0.05209 0.0
O263 O 0.45497 0.41464 0.05804 0.0
O264 O 0.45832 0.38203 0.05097 0.0
N265 N 0.46964 0.45603 0.13275 0.0
C266 C 0.44874 0.45475 0.11545 0.0
C267 C 0.47674 0.49077 0.10001 0.0
N268 N 0.48701 0.47872 0.1246 0.0
N269 N 0.45266 0.47602 0.092 0.0
C270 C 0.48905 0.34975 0.15607 0.0
C271 C 0.49246 0.33961 0.06726 0.0
N272 N 0.48922 0.36671 0.11876 0.0
N273 N 0.4915 0.36029 0.06379 0.0
N274 N 0.49093 0.33238 0.12465 0.0
H275 H 0.47965 0.36249 0.23588 0.0
H276 H 0.47273 0.33104 0.23819 0.0
H277 H 0.50342 0.35552 0.24472 0.0
C278 C 0.4858 0.34967 0.2225 0.0
C279 C 0.424 0.43337 0.12594 0.0
H280 H 0.42286 0.41624 0.11155 0.0
H281 H 0.42028 0.4318 0.17477 0.0
H282 H 0.40985 0.43571 0.10302 0.0
O283 O 0.50696 0.4482 0.07569 0.0
O284 O 0.51329 0.41744 0.06459 0.0
C285 C 0.4491 0.39467 0.03279 0.0
O286 O 0.50852 0.4123 0.20335 0.0
O287 O 0.49911 0.44134 0.20694 0.0
Zn288 Zn 0.1044 0.46938 0.43975 0.0
O289 O 0.09205 0.4379 0.49862 0.0
C290 C 0.1033 0.49922 0.54572 0.0
Zn291 Zn 0.06931 0.4693 0.45118 0.0
C292 C 0.07016 0.42828 0.51577 0.0
O293 O 0.05791 0.43821 0.50183 0.0
C294 C 0.10256 0.51 0.37104 0.0
O295 O 0.0567 0.44764 0.37575 0.0
O296 O 0.08927 0.44477 0.36251 0.0
N297 N 0.03441 0.46332 0.46093 0.0
C298 C 1.02155 0.46768 0.42009 0.0
C299 C 0.99663 0.43542 0.46589 0.0
N300 N 1.01865 0.4436 0.49058 0.0
N301 N 0.99796 0.4502 0.42114 0.0
C302 C 0.15442 0.47191 0.46693 0.0
C303 C 0.16621 0.46978 0.37907 0.0
N304 N 0.13758 0.47091 0.42823 0.0
N305 N 0.14507 0.46963 0.37374 0.0
N306 N 0.17265 0.47128 0.43711 0.0
H307 H 0.16014 0.46188 0.55516 0.0
H308 H 0.16199 0.49109 0.54986 0.0
H309 H 0.13297 0.46394 0.54736 0.0
C310 C 0.15214 0.47203 0.5337 0.0
C311 C 0.03237 0.48754 0.37444 0.0
H312 H 0.04551 0.50477 0.39649 0.0
H313 H 0.04163 0.48283 0.33926 0.0
H314 H 1.0182 0.49032 0.3534 0.0
O315 O 0.08217 0.5012 0.39736 0.0
O316 O 0.11563 0.50026 0.38023 0.0
C317 C 0.06776 0.43895 0.34711 0.0
O318 O 0.11761 0.49419 0.51692 0.0
O319 O 0.08156 0.49054 0.52824 0.0
Zn320 Zn 0.61472 0.06711 0.71869 0.0
O321 O 0.62825 0.05126 0.66201 0.0
C322 C 0.63138 0.11138 0.64006 0.0
Zn323 Zn 0.65314 0.09613 0.73688 0.0
C324 C 0.65012 0.05913 0.6485 0.0
O325 O 0.66621 0.07943 0.6701 0.0
C326 C 0.61527 0.10079 0.81163 0.0
O327 O 0.6535 0.07132 0.80378 0.0
O328 O 0.61524 0.04443 0.7854 0.0
N329 N 0.68922 0.12308 0.75416 0.0
C330 C 0.70069 0.14263 0.79099 0.0
C331 C 0.72727 0.14362 0.73158 0.0
N332 N 0.70598 0.12389 0.71768 0.0
N333 N 0.72463 0.156 0.77722 0.0
C334 C 0.57383 0.03838 0.63149 0.0
C335 C 0.54313 0.03237 0.68107 0.0
N336 N 0.58051 0.04234 0.68971 0.0
N337 N 0.56108 0.03786 0.72076 0.0
N338 N 0.55079 0.03325 0.62416 0.0
H339 H 0.59691 0.02769 0.58727 0.0
H340 H 0.57954 0.03507 0.53784 0.0
H341 H 0.60537 0.05906 0.57553 0.0
C342 C 0.58991 0.04037 0.58014 0.0
C343 C 0.68871 0.14743 0.84266 0.0
H344 H 0.67628 0.13008 0.86545 0.0
H345 H 0.70216 0.15982 0.87581 0.0
H346 H 0.67799 0.15563 0.82586 0.0
O347 O 0.63811 0.11034 0.80392 0.0
O348 O 0.60097 0.08263 0.77977 0.0
C349 C 0.63476 0.05059 0.81395 0.0
O350 O 0.6144 0.09025 0.6521 0.0
O351 O 0.65121 0.1199 0.66882 0.0
Zn352 Zn 0.57222 0.63942 0.09238 0.0
O353 O 0.59688 0.63869 0.15935 0.0
C354 C 0.53051 0.59835 0.16135 0.0
Zn355 Zn 0.56587 0.60225 0.06887 0.0
C356 C 0.60036 0.62067 0.16711 0.0
O357 O 0.58877 0.60173 0.13502 0.0
C358 C 0.53729 0.61887 0.99256 0.0
O359 O 0.59571 0.61905 0.01391 0.0
O360 O 0.60264 0.65609 0.02915 0.0
N361 N 0.55844 0.56937 0.03338 0.0
C362 C 0.5565 0.56379 0.97439 0.0
C363 C 0.53493 0.53099 0.02143 0.0
N364 N 0.54542 0.54877 0.06269 0.0
N365 N 0.54116 0.5399 0.96521 0.0
C366 C 0.56702 0.68551 0.12744 0.0
C367 C 0.60281 0.71018 0.1568 0.0
N368 N 0.58002 0.674 0.12167 0.0
N369 N 0.60223 0.6895 0.13998 0.0
N370 N 0.58098 0.70839 0.14934 0.0
H371 H 0.53179 0.65368 0.11823 0.0
H372 H 0.53164 0.68041 0.14617 0.0
H373 H 0.53786 0.67828 0.06834 0.0
C374 C 0.54048 0.67372 0.1147 0.0
C375 C 0.56984 0.5815 0.92478 0.0
H376 H 0.56542 0.59628 0.9233 0.0
H377 H 0.58959 0.58972 0.9321 0.0
H378 H 0.56559 0.5722 0.88076 0.0
O379 O 0.54266 0.60256 1.00304 0.0
O380 O 0.54708 0.63831 0.0237 0.0
C381 C 0.6085 0.64162 1.00457 0.0
O382 O 0.54248 0.62149 0.15624 0.0
O383 O 0.53611 0.58552 0.12835 0.0
H384 H 0.46487 0.18424 0.13616 0.0
H385 H 0.51123 0.32389 0.22356 0.0
H386 H 0.50785 0.21955 0.29234 0.0
H387 H 0.4687 0.28937 0.06622 0.0
H388 H 0.51004 0.28579 0.2495 0.0
H389 H 0.46675 0.22259 0.10802 0.0
C390 C 0.47515 0.20012 0.16382 0.0
C391 C 0.48656 0.19867 0.21624 0.0
C392 C 0.5008 0.28646 0.20947 0.0
C393 C 0.48816 0.2426 0.18537 0.0
C394 C 0.50121 0.30822 0.1951 0.0
C395 C 0.48958 0.30981 0.14327 0.0
C396 C 0.48881 0.26606 0.17163 0.0
C397 C 0.4778 0.28898 0.10678 0.0
C398 C 0.47597 0.222 0.14819 0.0
C399 C 0.49883 0.2198 0.25149 0.0
N400 N 0.47767 0.26808 0.12162 0.0
N401 N 0.49929 0.24073 0.23555 0.0
H402 H 0.30488 0.5037 0.62102 0.0
H403 H 0.19203 0.44484 0.39453 0.0
H404 H 0.29223 0.44643 0.49732 0.0
H405 H 0.20298 0.49859 0.52742 0.0
H406 H 0.22921 0.446 0.42837 0.0
H407 H 0.26842 0.50298 0.58435 0.0
C408 C 0.29453 0.49111 0.58563 0.0
C409 C 0.30196 0.47538 0.56168 0.0
C410 C 0.22341 0.45742 0.45048 0.0
C411 C 0.25975 0.47424 0.5195 0.0
C412 C 0.20218 0.45676 0.43118 0.0
C413 C 0.19403 0.47124 0.45903 0.0
C414 C 0.23691 0.47292 0.49767 0.0
C415 C 0.20806 0.48654 0.5059 0.0
C416 C 0.27366 0.49067 0.56473 0.0
C417 C 0.28771 0.45937 0.51602 0.0
N418 N 0.22874 0.48697 0.52365 0.0
N419 N 0.2673 0.45918 0.49655 0.0
H420 H 0.86599 0.28105 0.83975 0.0
H421 H 0.72174 0.19584 0.81326 0.0
H422 H 0.81613 0.30282 0.90546 0.0
H423 H 0.77198 0.16983 0.78801 0.0
H424 H 0.7556 0.23566 0.84227 0.0
H425 H 0.83166 0.24124 0.8131 0.0
C426 C 0.8478 0.27763 0.84747 0.0
C427 C 0.84395 0.29553 0.87372 0.0
C428 C 0.75918 0.22115 0.8311 0.0
C429 C 0.80435 0.24959 0.84462 0.0
C430 C 0.73976 0.19824 0.81534 0.0
C431 C 0.74383 0.17909 0.79982 0.0
C432 C 0.78301 0.22521 0.83021 0.0
C433 C 0.7679 0.1839 0.80027 0.0
C434 C 0.82816 0.25475 0.83297 0.0
C435 C 0.8199 0.28963 0.88483 0.0
N436 N 0.78647 0.20635 0.81498 0.0
N437 N 0.80107 0.2673 0.87001 0.0
H438 H 0.59944 0.74062 0.24034 0.0
H439 H 0.53254 0.81472 0.14628 0.0
H440 H 0.55124 0.72107 0.08918 0.0
H441 H 0.58532 0.83713 0.28776 0.0
H442 H 0.53768 0.77947 0.12719 0.0
H443 H 0.59316 0.77498 0.26062 0.0
C444 C 0.5873 0.74339 0.21174 0.0
C445 C 0.57551 0.72749 0.16364 0.0
C446 C 0.54828 0.79216 0.16216 0.0
C447 C 0.56836 0.76727 0.18633 0.0
C448 C 0.54534 0.8123 0.17312 0.0
C449 C 0.55889 0.8293 0.21786 0.0
C450 C 0.56472 0.78863 0.19669 0.0
C451 C 0.57505 0.82506 0.25159 0.0
C452 C 0.58375 0.76308 0.22331 0.0
C453 C 0.56014 0.73221 0.12785 0.0
N454 N 0.57749 0.80523 0.24034 0.0
N455 N 0.55704 0.75162 0.13989 0.0
H456 H 0.74019 0.51756 0.62022 0.0
H457 H 0.86014 0.59508 0.42311 0.0
H458 H 0.7573 0.58373 0.52736 0.0
H459 H 0.84449 0.52858 0.51212 0.0
H460 H 0.82293 0.59139 0.46379 0.0
H461 H 0.77815 0.52109 0.58332 0.0
C462 C 0.75178 0.53265 0.59137 0.0
C463 C 0.74513 0.54999 0.57557 0.0
C464 C 0.82763 0.57766 0.47507 0.0
C465 C 0.78895 0.55447 0.53401 0.0
C466 C 0.84897 0.57982 0.45197 0.0
C467 C 0.85569 0.5623 0.46474 0.0
C468 C 0.81247 0.55764 0.51113 0.0
C469 C 0.84038 0.54281 0.50216 0.0
C470 C 0.77348 0.53471 0.5705 0.0
C471 C 0.76108 0.56942 0.53893 0.0
N472 N 0.81945 0.54094 0.5238 0.0
N473 N 0.78214 0.5711 0.51953 0.0
H474 H 0.30433 0.86317 0.83873 0.0
H475 H 0.21724 0.71767 0.83676 0.0
H476 H 0.32423 0.81447 0.75504 0.0
H477 H 0.19911 0.76773 0.92022 0.0
H478 H 0.25579 0.75241 0.80315 0.0
H479 H 0.26569 0.82822 0.86838 0.0
C480 C 0.30087 0.84512 0.82782 0.0
C481 C 0.31798 0.84183 0.79575 0.0
C482 C 0.24325 0.75579 0.82831 0.0
C483 C 0.27301 0.80141 0.82764 0.0
C484 C 0.22106 0.73593 0.84682 0.0
C485 C 0.20466 0.73974 0.88068 0.0
C486 C 0.24917 0.77967 0.84396 0.0
C487 C 0.21112 0.7639 0.89409 0.0
C488 C 0.27856 0.82508 0.84399 0.0
C489 C 0.31173 0.81787 0.78033 0.0
N490 N 0.23272 0.78279 0.87593 0.0
N491 N 0.28988 0.79865 0.79644 0.0
H492 H 0.57102 0.09792 0.81424 0.0
H493 H 0.5677 0.10986 0.16365 0.0
H494 H 0.63542 0.12157 0.92042 0.0
H495 H 0.52104 0.12353 0.05046 0.0
H496 H 0.59233 0.11311 0.07607 0.0
H497 H 0.55172 0.10597 0.89934 0.0
C498 C 0.58125 0.10514 0.85523 0.0
C499 C 0.60493 0.10907 0.86007 0.0
C500 C 0.577 0.11587 0.07042 0.0
C501 C 0.58261 0.11777 0.95844 0.0
C502 C 0.56295 0.11407 0.12042 0.0
C503 C 0.54242 0.11667 0.11443 0.0
C504 C 0.57007 0.11948 0.01334 0.0
C505 C 0.53691 0.12176 0.0572 0.0
C506 C 0.5702 0.10977 0.90377 0.0
C507 C 0.61723 0.1184 0.91444 0.0
N508 N 0.55035 0.12252 0.00869 0.0
N509 N 0.60579 0.122 0.96177 0.0
H510 H 0.51847 0.61895 0.2548 0.0
H511 H 0.42371 0.48935 0.39611 0.0
H512 H 0.49834 0.5497 0.17361 0.0
H513 H 0.4475 0.55681 0.48971 0.0
H514 H 0.44654 0.51205 0.30784 0.0
H515 H 0.48886 0.59757 0.33486 0.0
C516 C 0.50768 0.5993 0.25336 0.0
C517 C 0.51112 0.58616 0.2074 0.0
C518 C 0.44647 0.52203 0.3471 0.0
C519 C 0.47712 0.56154 0.29907 0.0
C520 C 0.43319 0.50904 0.39726 0.0
C521 C 0.4333 0.52126 0.44965 0.0
C522 C 0.46039 0.54755 0.3494 0.0
C523 C 0.44653 0.54677 0.44961 0.0
C524 C 0.49081 0.5871 0.29922 0.0
C525 C 0.49656 0.56069 0.20814 0.0
N526 N 0.45969 0.55909 0.40041 0.0
N527 N 0.48039 0.54931 0.25315 0.0
H528 H 0.9696 0.42884 0.68705 0.0
H529 H 0.90862 0.50078 0.54522 0.0
H530 H 0.90426 0.42272 0.76023 0.0
H531 H 0.96646 0.49426 0.46343 0.0
H532 H 0.90417 0.47043 0.62056 0.0
H533 H 0.96622 0.45054 0.60111 0.0
C534 C 0.95428 0.4318 0.68445 0.0
C535 C 0.93719 0.42397 0.73077 0.0
C536 C 0.91759 0.47545 0.58556 0.0
C537 C 0.93347 0.44961 0.63271 0.0
C538 C 0.92011 0.49274 0.54248 0.0
C539 C 0.9381 0.50031 0.49812 0.0
C540 C 0.9332 0.46574 0.58424 0.0
C541 C 0.95249 0.48926 0.49695 0.0
C542 C 0.95236 0.44428 0.63534 0.0
C543 C 0.91772 0.42831 0.72515 0.0
N544 N 0.94985 0.4728 0.53943 0.0
N545 N 0.91657 0.44122 0.67741 0.0
H546 H 0.47376 0.98484 0.92222 0.0
H547 H 0.51122 0.90213 0.11472 0.0
H548 H 0.43659 0.90682 0.90229 0.0
H549 H 0.53974 0.97912 0.13999 0.0
H550 H 0.48353 0.90228 0.03791 0.0
H551 H 0.49772 0.98193 1.00248 0.0
C552 C 0.47057 0.96698 0.93472 0.0
C553 C 0.45313 0.94604 0.90489 0.0
C554 C 0.49579 0.91906 0.06061 0.0
C555 C 0.48096 0.94256 0.99801 0.0
C556 C 0.51161 0.91901 0.10445 0.0
C557 C 0.52797 0.94067 0.13389 0.0
C558 C 0.49642 0.94094 0.04604 0.0
C559 C 0.52761 0.96196 0.11861 0.0
C560 C 0.48432 0.96533 0.98096 0.0
C561 C 0.44983 0.92344 0.92395 0.0
N562 N 0.51225 0.96153 0.07588 0.0
N563 N 0.46374 0.92229 0.96909 0.0
H564 H 0.55118 0.42971 0.26799 0.0
H565 H 0.57568 0.52635 0.52977 0.0
H566 H 0.50547 0.45988 0.3104 0.0
H567 H 0.62871 0.50606 0.4808 0.0
H568 H 0.54802 0.49785 0.4562 0.0
H569 H 0.57804 0.45327 0.35178 0.0
C570 C 0.54663 0.44099 0.29524 0.0
C571 C 0.52614 0.44297 0.28175 0.0
C572 C 0.56566 0.49947 0.46142 0.0
C573 C 0.55662 0.46983 0.37724 0.0
C574 C 0.58153 0.51582 0.50368 0.0
C575 C 0.60472 0.51883 0.51144 0.0
C576 C 0.57284 0.48588 0.42587 0.0
C577 C 0.61105 0.5044 0.47632 0.0
C578 C 0.56201 0.45451 0.34279 0.0
C579 C 0.52118 0.45794 0.31845 0.0
N580 N 0.59527 0.48866 0.43477 0.0
N581 N 0.53625 0.47073 0.36403 0.0
H582 H 0.14635 0.62357 0.77646 0.0
H583 H 0.07996 0.48835 0.65152 0.0
H584 H 0.09653 0.56053 0.87848 0.0
H585 H 0.14297 0.54491 0.56307 0.0
H586 H 0.08776 0.51517 0.73683 0.0
H587 H 0.14792 0.59632 0.6999 0.0
C588 C 0.13618 0.60409 0.78341 0.0
C589 C 0.12104 0.59434 0.83365 0.0
C590 C 0.1002 0.52178 0.69937 0.0
C591 C 0.12253 0.56318 0.74626 0.0
C592 C 0.09573 0.50639 0.65066 0.0
C593 C 0.1109 0.51439 0.60046 0.0
C594 C 0.11968 0.54577 0.69761 0.0
C595 C 0.131 0.53801 0.60137 0.0
C596 C 0.137 0.58855 0.73962 0.0
C597 C 0.10817 0.56894 0.84016 0.0
N598 N 0.13462 0.55308 0.64884 0.0
N599 N 0.10901 0.55437 0.79688 0.0
H600 H 0.37664 0.94646 0.95183 0.0
H601 H 0.4352 0.08037 0.08034 0.0
H602 H 0.38675 1.00819 0.8486 0.0
H603 H 0.42725 1.01819 0.17816 0.0
H604 H 0.40718 0.05267 1.00396 0.0
H605 H 0.38299 0.97002 0.04361 0.0
C606 C 0.37891 0.96453 0.94866 0.0
C607 C 0.38148 0.97553 0.8927 0.0
C608 C 0.41121 0.04509 0.04282 0.0
C609 C 0.38993 1.00301 0.99695 0.0
C610 C 0.42717 0.06092 0.08637 0.0
C611 C 0.43398 0.05158 0.13478 0.0
C612 C 0.40203 0.01984 0.04811 0.0
C613 C 0.42295 0.02621 0.14067 0.0
C614 C 0.38302 0.9782 1.00103 0.0
C615 C 0.38485 0.99917 0.8911 0.0
N616 N 0.40784 1.01129 0.09757 0.0
N617 N 0.38965 1.01237 0.94229 0.0
H618 H 0.44046 0.36637 0.31324 0.0
H619 H 0.36581 0.42587 0.42446 0.0
H620 H 0.39811 0.38498 0.19741 0.0
H621 H 0.40298 0.40093 0.54062 0.0
H622 H 0.36688 0.39988 0.34446 0.0
H623 H 0.4165 0.3666 0.39873 0.0
C624 C 0.42537 0.36937 0.30547 0.0
C625 C 0.42149 0.37614 0.24868 0.0
C626 C 0.37416 0.39951 0.38802 0.0
C627 C 0.39475 0.37753 0.34605 0.0
C628 C 0.37336 0.41422 0.43375 0.0
C629 C 0.38476 0.41585 0.48853 0.0
C630 C 0.38665 0.38664 0.39741 0.0
C631 C 0.39442 0.40051 0.49836 0.0
C632 C 0.41186 0.36986 0.35436 0.0
C633 C 0.4019 0.38014 0.24097 0.0
N634 N 0.39561 0.38696 0.45292 0.0
N635 N 0.38968 0.38145 0.2893 0.0
H636 H 0.08542 0.41828 0.62164 0.0
H637 H 0.95011 0.35013 0.71276 0.0
H638 H 1.02642 0.38914 0.49561 0.0
H639 H 1.00851 0.3692 0.83708 0.0
H640 H 0.97665 0.35231 0.6309 0.0
H641 H 0.05813 0.38982 0.69748 0.0
C642 C 0.06701 0.40513 0.60923 0.0
C643 C 0.058 0.40617 0.55281 0.0
C644 C 0.98348 0.35513 0.67633 0.0
C645 C 1.02647 0.37427 0.63934 0.0
C646 C 0.96811 0.35346 0.72319 0.0
C647 C 0.97729 0.35981 0.78141 0.0
C648 C 1.00816 0.3636 0.68811 0.0
C649 C 1.0009 0.36442 0.79244 0.0
C650 C 0.0513 0.38902 0.65263 0.0
C651 C 0.03392 0.389 0.53907 0.0
N652 N 1.01576 0.36696 0.74608 0.0
N653 N 1.01885 0.37417 0.58235 0.0
H654 H 0.6557 0.99037 0.13522 0.0
H655 H 0.60141 1.00257 0.8278 0.0
H656 H 0.59111 0.93242 0.05572 0.0
H657 H 0.66958 0.05862 0.89858 0.0
H658 H 0.60102 0.97435 0.90228 0.0
H659 H 0.66581 1.01213 0.03989 0.0
C660 C 0.64428 0.98166 0.09668 0.0
C661 C 0.62252 0.95958 0.10332 0.0
C662 C 0.61622 0.99272 0.90131 0.0
C663 C 0.63327 0.98495 0.99486 0.0
C664 C 0.61639 1.00898 0.85897 0.0
C665 C 0.63538 0.03321 0.8575 0.0
C666 C 0.63505 1.00069 0.9433 0.0
C667 C 0.65445 0.04022 0.89843 0.0
C668 C 0.64983 0.9943 0.04247 0.0
C669 C 0.60814 0.9493 0.05237 0.0
N670 N 0.65363 0.02413 0.94017 0.0
N671 N 0.61342 0.96238 1.00068 0.0
H672 H 0.68072 0.64672 0.49289 0.0
H673 H 0.61505 0.58735 0.18616 0.0
H674 H 0.67392 0.5804 0.42273 0.0
H675 H 0.62574 0.656 0.25182 0.0
H676 H 0.64206 0.58773 0.26412 0.0
H677 H 0.66826 0.65466 0.39596 0.0
C678 C 0.67775 0.63443 0.45602 0.0
C679 C 0.67847 0.61294 0.46574 0.0
C680 C 0.63873 0.60285 0.26123 0.0
C681 C 0.66284 0.62116 0.35542 0.0
C682 C 0.62314 0.60259 0.21683 0.0
C683 C 0.61777 0.62152 0.21279 0.0
C684 C 0.649 0.62209 0.30251 0.0
C685 C 0.62913 0.64089 0.25347 0.0
C686 C 0.67019 0.63873 0.40091 0.0
C687 C 0.6739 0.59734 0.4169 0.0
N688 N 0.64396 0.64054 0.29694 0.0
N689 N 0.66568 0.60143 0.36426 0.0
H690 H 0.02956 0.62623 0.84298 0.0
H691 H 0.03044 0.62236 0.4885 0.0
H692 H 0.09501 0.65985 0.73808 0.0
H693 H 0.96504 0.59485 0.59263 0.0
H694 H 0.05424 0.64176 0.57792 0.0
H695 H 1.00596 0.62051 0.75231 0.0
C696 C 0.03901 0.63288 0.80081 0.0
C697 C 0.06429 0.64334 0.79793 0.0
C698 C 0.0347 0.63185 0.58132 0.0
C699 C 0.03722 0.63635 0.69335 0.0
C700 C 1.02105 0.62074 0.5302 0.0
C701 C 0.9957 0.60672 0.5333 0.0
C702 C 1.02301 0.62867 0.63654 0.0
C703 C 0.98452 0.60546 0.58828 0.0
C704 C 1.02549 0.62955 0.74898 0.0
C705 C 0.07558 0.65174 0.74228 0.0
N706 N 0.99828 0.61592 0.63802 0.0
N707 N 0.06192 0.64765 0.69196 0.0
H708 H 0.53654 1.0086 0.37975 0.0
H709 H 0.62799 0.08178 0.28068 0.0
H710 H 0.54131 0.07853 0.39228 0.0
H711 H 0.64142 0.0471 0.42888 0.0
H712 H 0.60853 0.09644 0.34805 0.0
H713 H 0.57629 0.02596 0.42637 0.0
C714 C 0.54561 0.02736 0.39451 0.0
C715 C 0.53609 0.04232 0.38067 0.0
C716 C 0.61617 0.08599 0.36685 0.0
C717 C 0.58195 0.06266 0.43104 0.0
C718 C 0.62737 0.07751 0.32783 0.0
C719 C 0.63201 0.0592 0.34749 0.0
C720 C 0.60831 0.07432 0.42255 0.0
C721 C 0.63346 0.05712 0.40984 0.0
C722 C 0.56829 0.03736 0.42136 0.0
C723 C 0.54841 0.06655 0.40099 0.0
N724 N 0.61977 0.06287 0.44556 0.0
N725 N 0.57121 0.0763 0.42283 0.0
H726 H 0.52422 0.51465 0.74253 0.0
H727 H 0.58024 0.64272 0.6446 0.0
H728 H 0.50028 0.54251 0.59811 0.0
H729 H 0.60112 0.62304 0.80634 0.0
H730 H 0.53835 0.61322 0.6654 0.0
H731 H 0.54315 0.55493 0.79002 0.0
C732 C 0.52347 0.52947 0.72048 0.0
C733 C 0.51199 0.52584 0.66493 0.0
C734 C 0.55205 0.61504 0.69703 0.0
C735 C 0.53177 0.57118 0.72051 0.0
C736 C 0.57617 0.63231 0.68565 0.0
C737 C 0.59417 0.62942 0.71459 0.0
C738 C 0.54746 0.59671 0.73924 0.0
C739 C 0.5877 0.61979 0.77271 0.0
C740 C 0.53347 0.55215 0.74836 0.0
C741 C 0.51019 0.54506 0.63937 0.0
N742 N 0.56468 0.6015 0.78145 0.0
N743 N 0.52012 0.56688 0.66705 0.0
H744 H 0.03474 0.43673 0.03004 0.0
H745 H 0.07589 0.56744 0.09986 0.0
H746 H 0.08687 0.50209 0.94163 0.0
H747 H 1.00483 0.50598 0.07079 0.0
H748 H 0.09061 0.54009 0.12654 0.0
H749 H 0.04151 0.45932 0.12303 0.0
C750 C 0.04904 0.4555 0.03153 0.0
C751 C 0.05918 0.46806 0.97793 0.0
C752 C 0.07143 0.53262 0.11855 0.0
C753 C 0.06671 0.49386 0.08271 0.0
C754 C 0.06288 0.54825 0.10305 0.0
C755 C 0.03921 0.53884 0.08052 0.0
C756 C 0.0563 0.50761 0.11031 0.0
C757 C 1.02338 0.51387 0.08578 0.0
C758 C 0.05289 0.46844 0.08471 0.0
C759 C 0.0778 0.49215 0.98176 0.0
N760 N 0.03236 0.49898 0.09879 0.0
N761 N 0.08061 0.50461 0.03333 0.0
H762 H 0.96135 0.45866 0.39616 0.0
H763 H 0.98562 0.528 0.20949 0.0
H764 H 1.00116 0.42619 0.32585 0.0
H765 H 0.04974 0.52518 0.25565 0.0
H766 H 0.96467 0.48486 0.19077 0.0
H767 H 0.95677 0.47011 0.29542 0.0
C768 C 0.96794 0.4527 0.35884 0.0
C769 C 0.98287 0.44282 0.369 0.0
C770 C 0.98372 0.49389 0.20149 0.0
C771 C 0.98004 0.45793 0.25478 0.0
C772 C 0.99598 0.51883 0.2124 0.0
C773 C 1.019 0.52996 0.23978 0.0
C774 C 0.99446 0.48037 0.21973 0.0
C775 C 0.0314 0.51693 0.23898 0.0
C776 C 0.96554 0.45934 0.30075 0.0
C777 C 0.99049 0.43489 0.3192 0.0
N778 N 1.01865 0.49242 0.23179 0.0
N779 N 0.99029 0.44385 0.26411 0.0
H780 H 0.45124 0.05685 0.61243 0.0
H781 H 0.57674 0.07845 0.57772 0.0
H782 H 0.51373 0.08916 0.72635 0.0
H783 H 0.50755 1.01307 0.5657 0.0
H784 H 0.55778 0.10195 0.55045 0.0
H785 H 0.47765 0.0677 0.52477 0.0
C786 C 0.47061 0.06742 0.61882 0.0
C787 C 0.48065 0.06915 0.67594 0.0
C788 C 0.54713 0.08241 0.54873 0.0
C789 C 0.51049 0.08307 0.57764 0.0
C790 C 0.55782 0.06879 0.56544 0.0
C791 C 0.54331 0.04383 0.57772 0.0
C792 C 0.52192 0.07104 0.54585 0.0
C793 C 0.51913 0.03243 0.55975 0.0
C794 C 0.48567 0.07399 0.5686 0.0
C795 C 0.50539 0.08533 0.6825 0.0
N796 N 0.50899 0.04624 0.54573 0.0
N797 N 0.51977 0.09129 0.6334 0.0
H798 H 0.52068 0.56189 0.90214 0.0
H799 H 0.43141 0.4427 1.00204 0.0
H800 H 0.52119 0.4945 0.91747 0.0
H801 H 0.44809 0.51455 0.05571 0.0
H802 H 0.44038 0.45632 0.89938 0.0
H803 H 0.47857 0.53949 0.87305 0.0
C804 C 0.51246 0.54245 0.89612 0.0
C805 C 0.52403 0.52981 0.9167 0.0
C806 C 0.44065 0.46884 0.93281 0.0
C807 C 0.47541 0.50431 0.88684 0.0
C808 C 0.43548 0.46104 0.99219 0.0
C809 C 0.44121 0.47821 0.03844 0.0
C810 C 0.45251 0.49391 0.92128 0.0
C811 C 0.44526 0.50121 0.02176 0.0
C812 C 0.48819 0.52961 0.8791 0.0
C813 C 0.51243 0.50478 0.90582 0.0
N814 N 0.45168 0.50877 0.96433 0.0
N815 N 0.48837 0.49262 0.89337 0.0
H816 H 0.38472 0.94955 0.55055 0.0
H817 H 0.44653 0.08638 0.45764 0.0
H818 H 0.38592 1.00389 0.66822 0.0
H819 H 0.41998 0.02855 0.32765 0.0
H820 H 0.4206 0.05668 0.53383 0.0
H821 H 0.39264 0.97705 0.4656 0.0
C822 C 0.3853 0.96671 0.55805 0.0
C823 C 0.38445 0.97436 0.61638 0.0
C824 C 0.41993 0.05063 0.48817 0.0
C825 C 0.39499 1.00656 0.52022 0.0
C826 C 0.43455 0.06767 0.44464 0.0
C827 C 0.43528 0.05991 0.38635 0.0
C828 C 0.40637 0.02573 0.4732 0.0
C829 C 0.4199 0.03526 0.37224 0.0
C830 C 0.39031 0.98268 0.50972 0.0
C831 C 0.38624 0.99724 0.62374 0.0
N832 N 0.40647 1.01903 0.4154 0.0
N833 N 0.39209 1.01278 0.57666 0.0
H834 H 0.4555 0.38636 0.91566 0.0
H835 H 0.37781 0.44246 0.81475 0.0
H836 H 0.40407 0.38872 0.03645 0.0
H837 H 0.39943 0.40523 0.6894 0.0
H838 H 0.38438 0.4206 0.89713 0.0
H839 H 0.43291 0.39006 0.831 0.0
C840 C 0.43892 0.38667 0.92418 0.0
C841 C 0.43171 0.38745 0.98293 0.0
C842 C 0.38685 0.41659 0.85138 0.0
C843 C 0.4065 0.39283 0.88717 0.0
C844 C 0.38284 0.42888 0.80446 0.0
C845 C 0.38799 0.42551 0.74545 0.0
C846 C 0.39649 0.40131 0.83878 0.0
C847 C 0.39524 0.40826 0.73452 0.0
C848 C 0.42617 0.38909 0.87602 0.0
C849 C 0.41043 0.38851 0.99172 0.0
N850 N 0.39979 0.39722 0.78071 0.0
N851 N 0.3989 0.39179 0.94454 0.0
H852 H 1.01202 0.38736 0.99505 0.0
H853 H 1.02165 0.40223 0.35051 0.0
H854 H 0.95181 0.37361 0.10831 0.0
H855 H 0.08284 0.43746 0.23177 0.0
H856 H 0.99565 0.38096 0.26508 0.0
H857 H 0.03705 0.39431 0.08387 0.0
C858 C 1.00381 0.38489 0.0389 0.0
C859 C 0.97977 0.37981 0.04441 0.0
C860 C 1.01482 0.39294 0.2577 0.0
C861 C 1.00858 0.38838 0.14636 0.0
C862 C 0.02971 0.40501 0.3064 0.0
C863 C 0.05438 0.4218 0.298 0.0
C864 C 1.02464 0.39753 0.19988 0.0
C865 C 0.06395 0.42462 0.24017 0.0
C866 C 1.01821 0.38915 0.08951 0.0
C867 C 0.97014 0.37718 0.10212 0.0
N868 N 0.04897 0.41284 0.19307 0.0
N869 N 0.9847 0.38185 0.15097 0.0
H870 H 0.63362 1.01207 0.67286 0.0
H871 H 0.66267 0.98392 0.34578 0.0
H872 H 0.67726 0.06749 0.54457 0.0
H873 H 0.60293 0.93314 0.45423 0.0
H874 H 0.6789 1.01135 0.43169 0.0
H875 H 0.63283 0.98119 0.60629 0.0
C876 C 0.64363 1.0178 0.63116 0.0
C877 C 0.65554 0.0424 0.61421 0.0
C878 C 0.66277 0.9938 0.43745 0.0
C879 C 0.65433 1.00689 0.53697 0.0
C880 C 0.65375 0.97782 0.38877 0.0
C881 C 0.63129 0.95619 0.39264 0.0
C882 C 0.64937 0.98797 0.4907 0.0
C883 C 0.62033 0.9495 0.44916 0.0
C884 C 0.64306 1.00011 0.59308 0.0
C885 C 0.66809 0.04878 0.55962 0.0
N886 N 0.62911 0.96561 0.49553 0.0
N887 N 0.66685 0.03106 0.52243 0.0
H888 H 0.62437 0.66882 0.90066 0.0
H889 H 0.69286 0.60098 0.81587 0.0
H890 H 0.64318 0.63093 0.03099 0.0
H891 H 0.6971 0.65897 0.70693 0.0
H892 H 0.68207 0.61745 0.90177 0.0
H893 H 0.65614 0.67084 0.83416 0.0
C894 C 0.63584 0.66184 0.91617 0.0
C895 C 0.63129 0.64979 0.97128 0.0
C896 C 0.68628 0.6272 0.85968 0.0
C897 C 0.66708 0.65136 0.89537 0.0
C898 C 0.69304 0.61805 0.8108 0.0
C899 C 0.69553 0.62839 0.75391 0.0
C900 C 0.6818 0.64663 0.85117 0.0
C901 C 0.69509 0.65031 0.75003 0.0
C902 C 0.65388 0.66282 0.87819 0.0
C903 C 0.64619 0.6404 0.9887 0.0
N904 N 0.68732 0.65816 0.79725 0.0
N905 N 0.66308 0.641 0.95061 0.0
H906 H 0.04101 0.65839 0.99384 0.0
H907 H 1.01646 0.64494 0.3406 0.0
H908 H 0.09535 0.67702 0.12984 0.0
H909 H 0.96223 0.60955 0.20418 0.0
H910 H 0.04452 0.6723 0.26498 0.0
H911 H 1.01281 0.65687 0.07008 0.0
C912 C 0.04737 0.6634 0.03949 0.0
C913 C 0.07047 0.6678 0.05582 0.0
C914 C 1.02621 0.65921 0.25179 0.0
C915 C 0.03804 0.66512 0.14353 0.0
C916 C 1.01008 0.64379 0.29504 0.0
C917 C 0.98706 0.62501 0.27836 0.0
C918 C 1.01934 0.65553 0.19132 0.0
C919 C 0.97977 0.62394 0.21879 0.0
C920 C 0.03117 0.66223 0.08308 0.0
C921 C 0.07775 0.67374 0.1155 0.0
N922 N 0.99609 0.63861 0.17699 0.0
N923 N 0.06135 0.67163 0.1576 0.0
H924 H 0.5719 0.12433 0.31283 0.0
H925 H 0.61094 0.13961 0.6567 0.0
H926 H 0.53312 0.13673 0.45349 0.0
H927 H 0.63824 0.11198 0.51967 0.0
H928 H 0.59107 0.15104 0.57919 0.0
H929 H 0.60434 0.13231 0.38351 0.0
C930 C 0.57063 0.12956 0.35833 0.0
C931 C 0.54991 0.13008 0.37727 0.0
C932 C 0.60206 0.14323 0.56581 0.0
C933 C 0.58666 0.13836 0.45929 0.0
C934 C 0.61362 0.13695 0.60999 0.0
C935 C 0.6267 0.12536 0.59432 0.0
C936 C 0.60312 0.13733 0.50559 0.0
C937 C 0.62878 0.12137 0.53342 0.0
C938 C 0.58907 0.13389 0.39881 0.0
C939 C 0.54895 0.13647 0.43693 0.0
N940 N 0.61689 0.12707 0.49141 0.0
N941 N 0.56691 0.14004 0.47608 0.0
H942 H 0.46955 0.55642 0.66192 0.0
H943 H 0.4885 0.5967 1.00554 0.0
H944 H 0.41257 0.52383 0.79287 0.0
H945 H 0.54483 0.6257 0.87262 0.0
H946 H 0.45851 0.57563 0.92609 0.0
H947 H 0.49484 0.5875 0.73479 0.0
C948 C 0.46222 0.5561 0.70591 0.0
C949 C 0.43891 0.53756 0.72129 0.0
C950 C 0.47731 0.58723 0.91396 0.0
C951 C 0.46823 0.57272 0.80624 0.0
C952 C 0.49438 0.59955 0.95925 0.0
C953 C 0.51907 0.61365 0.94537 0.0
C954 C 0.48503 0.58875 0.85431 0.0
C955 C 0.5259 0.6157 0.88501 0.0
C956 C 0.47674 0.57378 0.74769 0.0
C957 C 0.43033 0.53798 0.77895 0.0
N958 N 0.50905 0.60326 0.84191 0.0
N959 N 0.44513 0.55503 0.81968 0.0
H960 H 0.96529 0.4767 0.96877 0.0
H961 H 0.90519 0.48274 0.27639 0.0
H962 H 0.90608 0.41267 0.04802 0.0
H963 H 0.95327 0.54546 0.17184 0.0
H964 H 0.90218 0.45647 0.19162 0.0
H965 H 0.95918 0.50179 0.04128 0.0
C966 C 0.95085 0.46786 1.0012 0.0
C967 C 0.93626 0.44242 1.00214 0.0
C968 C 0.91281 0.47601 0.18658 0.0
C969 C 0.92906 0.47136 0.0863 0.0
C970 C 0.91429 0.491 0.23473 0.0
C971 C 0.92917 0.51633 0.23067 0.0
C972 C 0.9266 0.48646 0.13445 0.0
C973 C 0.94132 0.52605 0.17649 0.0
C974 C 0.94727 0.48228 0.04262 0.0
C975 C 0.91774 0.43218 0.04534 0.0
N976 N 0.94 0.51117 0.131 0.0
N977 N 0.91484 0.44663 0.08606 0.0
H978 H 0.50776 0.89678 0.40146 0.0
H979 H 0.48799 0.97868 0.64459 0.0
H980 H 0.55296 0.97441 0.42174 0.0
H981 H 0.43247 0.90474 0.60875 0.0
H982 H 0.51345 0.9751 0.56934 0.0
H983 H 0.48143 0.89714 0.48225 0.0
C984 C 0.51226 0.91382 0.42297 0.0
C985 C 0.53266 0.93559 0.4044 0.0
C986 C 0.49572 0.95957 0.5776 0.0
C987 C 0.5027 0.9361 0.49687 0.0
C988 C 0.48106 0.96158 0.62094 0.0
C989 C 0.45781 0.94203 0.63317 0.0
C990 C 0.48736 0.93781 0.54543 0.0
C991 C 0.45019 0.92033 0.60087 0.0
C992 C 0.49717 0.91402 0.4689 0.0
C993 C 0.53748 0.95713 0.43394 0.0
N994 N 0.46488 0.91881 0.55838 0.0
N995 N 0.52273 0.95679 0.47832 0.0
H996 H 0.60598 0.55437 0.80733 0.0
H997 H 0.54412 0.42571 0.97383 0.0
H998 H 0.6275 0.50128 0.76831 0.0
H999 H 0.53903 0.48783 0.0319 0.0
H1000 H 0.57412 0.45158 0.89799 0.0
H1001 H 0.58068 0.52896 0.88829 0.0
C1002 C 0.60553 0.53738 0.81597 0.0
C1003 C 0.61899 0.53006 0.78057 0.0
C1004 C 0.56653 0.45951 0.92776 0.0
C1005 C 0.5895 0.50033 0.87426 0.0
C1006 C 0.54943 0.44477 0.97111 0.0
C1007 C 0.53877 0.4545 0.00907 0.0
C1008 C 0.57293 0.48411 0.9223 0.0
C1009 C 0.54642 0.47936 1.00335 0.0
C1010 C 0.59102 0.5228 0.86259 0.0
C1011 C 0.61756 0.50774 0.79452 0.0
N1012 N 0.56279 0.49313 0.96083 0.0
N1013 N 0.60289 0.49354 0.83994 0.0
H1014 H 0.14175 0.52961 0.29445 0.0
H1015 H 0.15118 0.60648 0.05618 0.0
H1016 H 0.08123 0.53768 0.34887 0.0
H1017 H 0.10302 0.6213 0.15946 0.0
H1018 H 0.15118 0.58046 0.13719 0.0
H1019 H 0.15262 0.56179 0.22037 0.0
C1020 C 0.13073 0.53815 0.29091 0.0
C1021 C 0.11035 0.53062 0.3279 0.0
C1022 C 0.14129 0.59003 0.1436 0.0
C1023 C 0.12247 0.56751 0.2417 0.0
C1024 C 0.14157 0.60519 0.09727 0.0
C1025 C 0.12761 0.61659 0.10177 0.0
C1026 C 0.12673 0.5861 0.19468 0.0
C1027 C 0.11447 0.61328 0.15476 0.0
C1028 C 0.13685 0.5565 0.24798 0.0
C1029 C 0.09691 0.54255 0.3212 0.0
N1030 N 0.11414 0.59821 0.19859 0.0
N1031 N 0.10316 0.56023 0.27909 0.0
loop_
_geom_bond_atom_site_label_1
_geom_bond_atom_site_label_2
_geom_bond_distance
_geom_bond_site_symmetry_2
_ccdc_geom_bond_type
Zn0 O1 2.055 . S
Zn0 O8 2.046 . S
Zn0 N16 2.036 . S
Zn0 O28 2.053 . S
Zn0 O30 2.066 . S
O1 Zn0 2.055 . S
O1 C4 1.259 . S
C2 O30 1.256 . S
C2 O31 1.244 . S
Zn3 O5 2.046 . S
Zn3 O7 2.055 . S
Zn3 N9 2.036 . S
Zn3 O27 2.066 . S
Zn3 O31 2.053 . S
C4 O1 1.259 . S
C4 O5 1.254 . S
O5 Zn3 2.046 . S
O5 C4 1.254 . S
C6 O27 1.256 . S
C6 O28 1.244 . S
O7 Zn3 2.055 . S
O7 C29 1.259 . S
O8 Zn0 2.046 . S
O8 C29 1.254 . S
N9 Zn3 2.036 . S
N9 C10 1.298 . S
N9 N12 1.398 . S
C10 N9 1.298 . S
C10 N13 1.367 . S
C10 C23 1.481 . S
C11 N12 1.299 . S
C11 N13 1.379 . S
N12 N9 1.398 . S
N12 C11 1.299 . S
N13 C10 1.367 . S
N13 C11 1.379 . S
C14 N16 1.298 . S
C14 N18 1.367 . S
C14 C22 1.481 . S
C15 N17 1.299 . S
C15 N18 1.379 . S
N16 Zn0 2.036 . S
N16 C14 1.298 . S
N16 N17 1.398 . S
N17 C15 1.299 . S
N17 N16 1.398 . S
N18 C14 1.367 . S
N18 C15 1.379 . S
H19 C22 0.980 . S
H20 C22 0.981 . S
H21 C22 0.981 . S
C22 C14 1.481 . S
C22 H19 0.980 . S
C22 H20 0.981 . S
C22 H21 0.981 . S
C23 C10 1.481 . S
C23 H24 0.980 . S
C23 H25 0.981 . S
C23 H26 0.981 . S
H24 C23 0.980 . S
H25 C23 0.981 . S
H26 C23 0.981 . S
O27 Zn3 2.066 . S
O27 C6 1.256 . S
O28 Zn0 2.053 . S
O28 C6 1.244 . S
C29 O7 1.259 . S
C29 O8 1.254 . S
O30 Zn0 2.066 . S
O30 C2 1.256 . S
O31 C2 1.244 . S
O31 Zn3 2.053 . S
Zn32 O33 2.055 . S
Zn32 O40 2.046 . S
Zn32 N48 2.036 . S
Zn32 O60 2.053 . S
Zn32 O62 2.066 . S
O33 Zn32 2.055 . S
O33 C36 1.259 . S
C34 O62 1.256 . S
C34 O63 1.244 . S
Zn35 O37 2.046 . S
Zn35 O39 2.055 . S
Zn35 N41 2.036 . S
Zn35 O59 2.066 . S
Zn35 O63 2.053 . S
C36 O33 1.259 . S
C36 O37 1.254 . S
O37 Zn35 2.046 . S
O37 C36 1.254 . S
C38 O59 1.256 . S
C38 O60 1.244 . S
O39 Zn35 2.055 . S
O39 C61 1.259 . S
O40 Zn32 2.046 . S
O40 C61 1.254 . S
N41 Zn35 2.036 . S
N41 C42 1.298 . S
N41 N44 1.398 . S
C42 N41 1.298 . S
C42 N45 1.367 . S
C42 C55 1.481 . S
C43 N44 1.299 . S
C43 N45 1.379 . S
N44 N41 1.398 . S
N44 C43 1.299 . S
N45 C42 1.367 . S
N45 C43 1.379 . S
C46 N48 1.298 . S
C46 N50 1.367 . S
C46 C54 1.481 . S
C47 N49 1.299 . S
C47 N50 1.379 . S
N48 Zn32 2.036 . S
N48 C46 1.298 . S
N48 N49 1.398 . S
N49 C47 1.299 . S
N49 N48 1.398 . S
N50 C46 1.367 . S
N50 C47 1.379 . S
H51 C54 0.980 . S
H52 C54 0.981 . S
H53 C54 0.981 . S
C54 C46 1.481 . S
C54 H51 0.980 . S
C54 H52 0.981 . S
C54 H53 0.981 . S
C55 C42 1.481 . S
C55 H56 0.980 . S
C55 H57 0.981 . S
C55 H58 0.981 . S
H56 C55 0.980 . S
H57 C55 0.981 . S
H58 C55 0.981 . S
O59 Zn35 2.066 . S
O59 C38 1.256 . S
O60 Zn32 2.053 . S
O60 C38 1.244 . S
C61 O39 1.259 . S
C61 O40 1.254 . S
O62 Zn32 2.066 . S
O62 C34 1.256 . S
O63 C34 1.244 . S
O63 Zn35 2.053 . S
Zn64 O65 2.055 . S
Zn64 O72 2.046 . S
Zn64 N80 2.036 . S
Zn64 O92 2.053 . S
Zn64 O94 2.066 . S
O65 Zn64 2.055 . S
O65 C68 1.259 . S
C66 O94 1.256 . S
C66 O95 1.244 . S
Zn67 O69 2.046 . S
Zn67 O71 2.055 . S
Zn67 N73 2.036 . S
Zn67 O91 2.066 . S
Zn67 O95 2.053 . S
C68 O65 1.259 . S
C68 O69 1.254 . S
O69 Zn67 2.046 . S
O69 C68 1.254 . S
C70 O91 1.256 1_554 S
C70 O92 1.244 1_554 S
O71 Zn67 2.055 . S
O71 C93 1.259 1_556 S
O72 Zn64 2.046 . S
O72 C93 1.254 1_556 S
N73 Zn67 2.036 . S
N73 C74 1.298 . S
N73 N76 1.398 . S
C74 N73 1.298 . S
C74 N77 1.367 . S
C74 C87 1.481 1_556 S
C75 N76 1.299 . S
C75 N77 1.379 . S
N76 N73 1.398 . S
N76 C75 1.299 . S
N77 C74 1.367 . S
N77 C75 1.379 . S
C78 N80 1.298 . S
C78 N82 1.367 . S
C78 C86 1.481 . S
C79 N81 1.299 . S
C79 N82 1.379 . S
N80 Zn64 2.036 . S
N80 C78 1.298 . S
N80 N81 1.398 . S
N81 C79 1.299 . S
N81 N80 1.398 . S
N82 C78 1.367 . S
N82 C79 1.379 . S
H83 C86 0.980 . S
H84 C86 0.981 . S
H85 C86 0.981 . S
C86 C78 1.481 . S
C86 H83 0.980 . S
C86 H84 0.981 . S
C86 H85 0.981 . S
C87 C74 1.481 1_554 S
C87 H88 0.980 . S
C87 H89 0.981 . S
C87 H90 0.981 . S
H88 C87 0.980 . S
H89 C87 0.981 . S
H90 C87 0.981 . S
O91 Zn67 2.066 . S
O91 C70 1.256 1_556 S
O92 Zn64 2.053 . S
O92 C70 1.244 1_556 S
C93 O71 1.259 1_554 S
C93 O72 1.254 1_554 S
O94 Zn64 2.066 . S
O94 C66 1.256 . S
O95 C66 1.244 . S
O95 Zn67 2.053 . S
Zn96 O97 2.055 . S
Zn96 O104 2.046 . S
Zn96 N112 2.036 . S
Zn96 O124 2.053 . S
Zn96 O126 2.066 . S
O97 Zn96 2.055 . S
O97 C100 1.259 . S
C98 O126 1.256 . S
C98 O127 1.244 . S
Zn99 O101 2.046 . S
Zn99 O103 2.055 . S
Zn99 N105 2.036 . S
Zn99 O123 2.066 . S
Zn99 O127 2.053 . S
C100 O97 1.259 . S
C100 O101 1.254 . S
O101 Zn99 2.046 . S
O101 C100 1.254 . S
C102 O123 1.256 . S
C102 O124 1.244 . S
O103 Zn99 2.055 . S
O103 C125 1.259 . S
O104 Zn96 2.046 . S
O104 C125 1.254 . S
N105 Zn99 2.036 . S
N105 C106 1.298 . S
N105 N108 1.398 . S
C106 N105 1.298 . S
C106 N109 1.367 . S
C106 C119 1.481 . S
C107 N108 1.299 . S
C107 N109 1.379 . S
N108 N105 1.398 . S
N108 C107 1.299 . S
N109 C106 1.367 . S
N109 C107 1.379 . S
C110 N112 1.298 . S
C110 N114 1.367 . S
C110 C118 1.481 . S
C111 N113 1.299 . S
C111 N114 1.379 . S
N112 Zn96 2.036 . S
N112 C110 1.298 . S
N112 N113 1.398 . S
N113 C111 1.299 . S
N113 N112 1.398 . S
N114 C110 1.367 . S
N114 C111 1.379 . S
H115 C118 0.980 . S
H116 C118 0.981 . S
H117 C118 0.981 . S
C118 C110 1.481 . S
C118 H115 0.980 . S
C118 H116 0.981 . S
C118 H117 0.981 . S
C119 C106 1.481 . S
C119 H120 0.980 . S
C119 H121 0.981 . S
C119 H122 0.981 . S
H120 C119 0.980 . S
H121 C119 0.981 . S
H122 C119 0.981 . S
O123 Zn99 2.066 . S
O123 C102 1.256 . S
O124 Zn96 2.053 . S
O124 C102 1.244 . S
C125 O103 1.259 . S
C125 O104 1.254 . S
O126 Zn96 2.066 . S
O126 C98 1.256 . S
O127 C98 1.244 . S
O127 Zn99 2.053 . S
Zn128 O129 2.055 . S
Zn128 O136 2.046 . S
Zn128 N144 2.036 . S
Zn128 O156 2.053 . S
Zn128 O158 2.066 . S
O129 Zn128 2.055 . S
O129 C132 1.259 . S
C130 O158 1.256 . S
C130 O159 1.244 . S
Zn131 O133 2.046 . S
Zn131 O135 2.055 . S
Zn131 N137 2.036 . S
Zn131 O155 2.066 . S
Zn131 O159 2.053 . S
C132 O129 1.259 . S
C132 O133 1.254 . S
O133 Zn131 2.046 . S
O133 C132 1.254 . S
C134 O155 1.256 . S
C134 O156 1.244 . S
O135 Zn131 2.055 . S
O135 C157 1.259 . S
O136 Zn128 2.046 . S
O136 C157 1.254 . S
N137 Zn131 2.036 . S
N137 C138 1.298 . S
N137 N140 1.398 . S
C138 N137 1.298 . S
C138 N141 1.367 . S
C138 C151 1.481 . S
C139 N140 1.299 . S
C139 N141 1.379 . S
N140 N137 1.398 . S
N140 C139 1.299 . S
N141 C138 1.367 . S
N141 C139 1.379 . S
C142 N144 1.298 . S
C142 N146 1.367 . S
C142 C150 1.481 . S
C143 N145 1.299 . S
C143 N146 1.379 . S
N144 Zn128 2.036 . S
N144 C142 1.298 . S
N144 N145 1.398 . S
N145 C143 1.299 . S
N145 N144 1.398 . S
N146 C142 1.367 . S
N146 C143 1.379 . S
H147 C150 0.980 . S
H148 C150 0.981 . S
H149 C150 0.981 . S
C150 C142 1.481 . S
C150 H147 0.980 . S
C150 H148 0.981 . S
C150 H149 0.981 . S
C151 C138 1.481 . S
C151 H152 0.980 . S
C151 H153 0.981 . S
C151 H154 0.981 . S
H152 C151 0.980 . S
H153 C151 0.981 . S
H154 C151 0.981 . S
O155 Zn131 2.066 . S
O155 C134 1.256 . S
O156 Zn128 2.053 . S
O156 C134 1.244 . S
C157 O135 1.259 . S
C157 O136 1.254 . S
O158 Zn128 2.066 . S
O158 C130 1.256 . S
O159 C130 1.244 . S
O159 Zn131 2.053 . S
Zn160 O161 2.055 . S
Zn160 O168 2.046 . S
Zn160 N176 2.036 . S
Zn160 O188 2.053 . S
Zn160 O190 2.066 . S
O161 Zn160 2.055 . S
O161 C164 1.259 1_556 S
C162 O190 1.256 1_554 S
C162 O191 1.244 1_554 S
Zn163 O165 2.046 . S
Zn163 O167 2.055 . S
Zn163 N169 2.036 . S
Zn163 O187 2.066 . S
Zn163 O191 2.053 . S
C164 O161 1.259 1_554 S
C164 O165 1.254 1_554 S
O165 Zn163 2.046 . S
O165 C164 1.254 1_556 S
C166 O187 1.256 . S
C166 O188 1.244 . S
O167 Zn163 2.055 . S
O167 C189 1.259 . S
O168 Zn160 2.046 . S
O168 C189 1.254 . S
N169 Zn163 2.036 . S
N169 C170 1.298 . S
N169 N172 1.398 . S
C170 N169 1.298 . S
C170 N173 1.367 . S
C170 C183 1.481 . S
C171 N172 1.299 . S
C171 N173 1.379 . S
N172 N169 1.398 . S
N172 C171 1.299 . S
N173 C170 1.367 . S
N173 C171 1.379 . S
C174 N176 1.298 . S
C174 N178 1.367 . S
C174 C182 1.481 1_556 S
C175 N177 1.299 . S
C175 N178 1.379 . S
N176 Zn160 2.036 . S
N176 C174 1.298 . S
N176 N177 1.398 . S
N177 C175 1.299 . S
N177 N176 1.398 . S
N178 C174 1.367 . S
N178 C175 1.379 . S
H179 C182 0.980 . S
H180 C182 0.981 . S
H181 C182 0.981 . S
C182 C174 1.481 1_554 S
C182 H179 0.980 . S
C182 H180 0.981 . S
C182 H181 0.981 . S
C183 C170 1.481 . S
C183 H184 0.980 . S
C183 H185 0.981 . S
C183 H186 0.981 . S
H184 C183 0.980 . S
H185 C183 0.981 . S
H186 C183 0.981 . S
O187 Zn163 2.066 . S
O187 C166 1.256 . S
O188 Zn160 2.053 . S
O188 C166 1.244 . S
C189 O167 1.259 . S
C189 O168 1.254 . S
O190 Zn160 2.066 . S
O190 C162 1.256 1_556 S
O191 C162 1.244 1_556 S
O191 Zn163 2.053 . S
Zn192 O193 2.055 . S
Zn192 O200 2.046 . S
Zn192 N208 2.036 . S
Zn192 O220 2.053 . S
Zn192 O222 2.066 . S
O193 Zn192 2.055 . S
O193 C196 1.259 . S
C194 O222 1.256 . S
C194 O223 1.244 . S
Zn195 O197 2.046 . S
Zn195 O199 2.055 . S
Zn195 N201 2.036 . S
Zn195 O219 2.066 . S
Zn195 O223 2.053 . S
C196 O193 1.259 . S
C196 O197 1.254 . S
O197 Zn195 2.046 . S
O197 C196 1.254 . S
C198 O219 1.256 . S
C198 O220 1.244 . S
O199 Zn195 2.055 . S
O199 C221 1.259 . S
O200 Zn192 2.046 . S
O200 C221 1.254 . S
N201 Zn195 2.036 . S
N201 C202 1.298 . S
N201 N204 1.398 . S
C202 N201 1.298 . S
C202 N205 1.367 . S
C202 C215 1.481 . S
C203 N204 1.299 . S
C203 N205 1.379 . S
N204 N201 1.398 . S
N204 C203 1.299 . S
N205 C202 1.367 . S
N205 C203 1.379 . S
C206 N208 1.298 . S
C206 N210 1.367 . S
C206 C214 1.481 . S
C207 N209 1.299 . S
C207 N210 1.379 . S
N208 Zn192 2.036 . S
N208 C206 1.298 . S
N208 N209 1.398 . S
N209 C207 1.299 . S
N209 N208 1.398 . S
N210 C206 1.367 . S
N210 C207 1.379 . S
H211 C214 0.980 . S
H212 C214 0.981 . S
H213 C214 0.981 . S
C214 C206 1.481 . S
C214 H211 0.980 . S
C214 H212 0.981 . S
C214 H213 0.981 . S
C215 C202 1.481 . S
C215 H216 0.980 . S
C215 H217 0.981 . S
C215 H218 0.981 . S
H216 C215 0.980 . S
H217 C215 0.981 . S
H218 C215 0.981 . S
O219 Zn195 2.066 . S
O219 C198 1.256 . S
O220 Zn192 2.053 . S
O220 C198 1.244 . S
C221 O199 1.259 . S
C221 O200 1.254 . S
O222 Zn192 2.066 . S
O222 C194 1.256 . S
O223 C194 1.244 . S
O223 Zn195 2.053 . S
Zn224 O225 2.055 . S
Zn224 O232 2.046 . S
Zn224 N240 2.036 . S
Zn224 O252 2.053 . S
Zn224 O254 2.066 . S
O225 Zn224 2.055 . S
O225 C228 1.259 . S
C226 O254 1.256 . S
C226 O255 1.244 . S
Zn227 O229 2.046 . S
Zn227 O231 2.055 . S
Zn227 N233 2.036 . S
Zn227 O251 2.066 . S
Zn227 O255 2.053 . S
C228 O225 1.259 . S
C228 O229 1.254 . S
O229 Zn227 2.046 . S
O229 C228 1.254 . S
C230 O251 1.256 . S
C230 O252 1.244 . S
O231 Zn227 2.055 . S
O231 C253 1.259 . S
O232 Zn224 2.046 . S
O232 C253 1.254 . S
N233 Zn227 2.036 . S
N233 C234 1.298 . S
N233 N236 1.398 . S
C234 N233 1.298 . S
C234 N237 1.367 . S
C234 C247 1.481 . S
C235 N236 1.299 . S
C235 N237 1.379 . S
N236 N233 1.398 . S
N236 C235 1.299 . S
N237 C234 1.367 . S
N237 C235 1.379 . S
C238 N240 1.298 . S
C238 N242 1.367 . S
C238 C246 1.481 . S
C239 N241 1.299 . S
C239 N242 1.379 . S
N240 Zn224 2.036 . S
N240 C238 1.298 . S
N240 N241 1.398 . S
N241 C239 1.299 . S
N241 N240 1.398 . S
N242 C238 1.367 . S
N242 C239 1.379 . S
H243 C246 0.980 . S
H244 C246 0.981 . S
H245 C246 0.981 . S
C246 C238 1.481 . S
C246 H243 0.980 . S
C246 H244 0.981 . S
C246 H245 0.981 . S
C247 C234 1.481 . S
C247 H248 0.980 . S
C247 H249 0.981 . S
C247 H250 0.981 . S
H248 C247 0.980 . S
H249 C247 0.981 . S
H250 C247 0.981 . S
O251 Zn227 2.066 . S
O251 C230 1.256 . S
O252 Zn224 2.053 . S
O252 C230 1.244 . S
C253 O231 1.259 . S
C253 O232 1.254 . S
O254 Zn224 2.066 . S
O254 C226 1.256 . S
O255 C226 1.244 . S
O255 Zn227 2.053 . S
Zn256 O257 2.055 . S
Zn256 O264 2.046 . S
Zn256 N272 2.036 . S
Zn256 O284 2.053 . S
Zn256 O286 2.066 . S
O257 Zn256 2.055 . S
O257 C260 1.259 . S
C258 O286 1.256 . S
C258 O287 1.244 . S
Zn259 O261 2.046 . S
Zn259 O263 2.055 . S
Zn259 N265 2.036 . S
Zn259 O283 2.066 . S
Zn259 O287 2.053 . S
C260 O257 1.259 . S
C260 O261 1.254 . S
O261 Zn259 2.046 . S
O261 C260 1.254 . S
C262 O283 1.256 1_556 S
C262 O284 1.244 1_556 S
O263 Zn259 2.055 . S
O263 C285 1.259 1_554 S
O264 Zn256 2.046 . S
O264 C285 1.254 1_554 S
N265 Zn259 2.036 . S
N265 C266 1.298 . S
N265 N268 1.398 . S
C266 N265 1.298 . S
C266 N269 1.367 . S
C266 C279 1.481 1_554 S
C267 N268 1.299 . S
C267 N269 1.379 . S
N268 N265 1.398 . S
N268 C267 1.299 . S
N269 C266 1.367 . S
N269 C267 1.379 . S
C270 N272 1.298 . S
C270 N274 1.367 . S
C270 C278 1.481 . S
C271 N273 1.299 . S
C271 N274 1.379 . S
N272 Zn256 2.036 . S
N272 C270 1.298 . S
N272 N273 1.398 . S
N273 C271 1.299 . S
N273 N272 1.398 . S
N274 C270 1.367 . S
N274 C271 1.379 . S
H275 C278 0.980 . S
H276 C278 0.981 . S
H277 C278 0.981 . S
C278 C270 1.481 . S
C278 H275 0.980 . S
C278 H276 0.981 . S
C278 H277 0.981 . S
C279 C266 1.481 1_556 S
C279 H280 0.980 . S
C279 H281 0.981 . S
C279 H282 0.981 . S
H280 C279 0.980 . S
H281 C279 0.981 . S
H282 C279 0.981 . S
O283 Zn259 2.066 . S
O283 C262 1.256 1_554 S
O284 Zn256 2.053 . S
O284 C262 1.244 1_554 S
C285 O263 1.259 1_556 S
C285 O264 1.254 1_556 S
O286 Zn256 2.066 . S
O286 C258 1.256 . S
O287 C258 1.244 . S
O287 Zn259 2.053 . S
Zn288 O289 2.055 . S
Zn288 O296 2.046 . S
Zn288 N304 2.036 . S
Zn288 O316 2.053 . S
Zn288 O318 2.066 . S
O289 Zn288 2.055 . S
O289 C292 1.259 . S
C290 O318 1.256 . S
C290 O319 1.244 . S
Zn291 O293 2.046 . S
Zn291 O295 2.055 . S
Zn291 N297 2.036 . S
Zn291 O315 2.066 . S
Zn291 O319 2.053 . S
C292 O289 1.259 . S
C292 O293 1.254 . S
O293 Zn291 2.046 . S
O293 C292 1.254 . S
C294 O315 1.256 . S
C294 O316 1.244 . S
O295 Zn291 2.055 . S
O295 C317 1.259 . S
O296 Zn288 2.046 . S
O296 C317 1.254 . S
N297 Zn291 2.036 . S
N297 C298 1.298 . S
N297 N300 1.398 . S
C298 N297 1.298 . S
C298 N301 1.367 . S
C298 C311 1.481 . S
C299 N300 1.299 . S
C299 N301 1.379 . S
N300 N297 1.398 . S
N300 C299 1.299 . S
N301 C298 1.367 . S
N301 C299 1.379 . S
C302 N304 1.298 . S
C302 N306 1.367 . S
C302 C310 1.481 . S
C303 N305 1.299 . S
C303 N306 1.379 . S
N304 Zn288 2.036 . S
N304 C302 1.298 . S
N304 N305 1.398 . S
N305 C303 1.299 . S
N305 N304 1.398 . S
N306 C302 1.367 . S
N306 C303 1.379 . S
H307 C310 0.980 . S
H308 C310 0.981 . S
H309 C310 0.981 . S
C310 C302 1.481 . S
C310 H307 0.980 . S
C310 H308 0.981 . S
C310 H309 0.981 . S
C311 C298 1.481 . S
C311 H312 0.980 . S
C311 H313 0.981 . S
C311 H314 0.981 . S
H312 C311 0.980 . S
H313 C311 0.981 . S
H314 C311 0.981 . S
O315 Zn291 2.066 . S
O315 C294 1.256 . S
O316 Zn288 2.053 . S
O316 C294 1.244 . S
C317 O295 1.259 . S
C317 O296 1.254 . S
O318 Zn288 2.066 . S
O318 C290 1.256 . S
O319 C290 1.244 . S
O319 Zn291 2.053 . S
Zn320 O321 2.055 . S
Zn320 O328 2.046 . S
Zn320 N336 2.036 . S
Zn320 O348 2.053 . S
Zn320 O350 2.066 . S
O321 Zn320 2.055 . S
O321 C324 1.259 . S
C322 O350 1.256 . S
C322 O351 1.244 . S
Zn323 O325 2.046 . S
Zn323 O327 2.055 . S
Zn323 N329 2.036 . S
Zn323 O347 2.066 . S
Zn323 O351 2.053 . S
C324 O321 1.259 . S
C324 O325 1.254 . S
O325 Zn323 2.046 . S
O325 C324 1.254 . S
C326 O347 1.256 . S
C326 O348 1.244 . S
O327 Zn323 2.055 . S
O327 C349 1.259 . S
O328 Zn320 2.046 . S
O328 C349 1.254 . S
N329 Zn323 2.036 . S
N329 C330 1.298 . S
N329 N332 1.398 . S
C330 N329 1.298 . S
C330 N333 1.367 . S
C330 C343 1.481 . S
C331 N332 1.299 . S
C331 N333 1.379 . S
N332 N329 1.398 . S
N332 C331 1.299 . S
N333 C330 1.367 . S
N333 C331 1.379 . S
C334 N336 1.298 . S
C334 N338 1.367 . S
C334 C342 1.481 . S
C335 N337 1.299 . S
C335 N338 1.379 . S
N336 Zn320 2.036 . S
N336 C334 1.298 . S
N336 N337 1.398 . S
N337 C335 1.299 . S
N337 N336 1.398 . S
N338 C334 1.367 . S
N338 C335 1.379 . S
H339 C342 0.980 . S
H340 C342 0.981 . S
H341 C342 0.981 . S
C342 C334 1.481 . S
C342 H339 0.980 . S
C342 H340 0.981 . S
C342 H341 0.981 . S
C343 C330 1.481 . S
C343 H344 0.980 . S
C343 H345 0.981 . S
C343 H346 0.981 . S
H344 C343 0.980 . S
H345 C343 0.981 . S
H346 C343 0.981 . S
O347 Zn323 2.066 . S
O347 C326 1.256 . S
O348 Zn320 2.053 . S
O348 C326 1.244 . S
C349 O327 1.259 . S
C349 O328 1.254 . S
O350 Zn320 2.066 . S
O350 C322 1.256 . S
O351 C322 1.244 . S
O351 Zn323 2.053 . S
Zn352 O353 2.055 . S
Zn352 O360 2.046 . S
Zn352 N368 2.036 . S
Zn352 O380 2.053 . S
Zn352 O382 2.066 . S
O353 Zn352 2.055 . S
O353 C356 1.259 . S
C354 O382 1.256 . S
C354 O383 1.244 . S
Zn355 O357 2.046 . S
Zn355 O359 2.055 . S
Zn355 N361 2.036 . S
Zn355 O379 2.066 . S
Zn355 O383 2.053 . S
C356 O353 1.259 . S
C356 O357 1.254 . S
O357 Zn355 2.046 . S
O357 C356 1.254 . S
C358 O379 1.256 1_556 S
C358 O380 1.244 1_556 S
O359 Zn355 2.055 . S
O359 C381 1.259 1_554 S
O360 Zn352 2.046 . S
O360 C381 1.254 1_554 S
N361 Zn355 2.036 . S
N361 C362 1.298 . S
N361 N364 1.398 . S
C362 N361 1.298 . S
C362 N365 1.367 . S
C362 C375 1.481 1_554 S
C363 N364 1.299 . S
C363 N365 1.379 . S
N364 N361 1.398 . S
N364 C363 1.299 . S
N365 C362 1.367 . S
N365 C363 1.379 . S
C366 N368 1.298 . S
C366 N370 1.367 . S
C366 C374 1.481 . S
C367 N369 1.299 . S
C367 N370 1.379 . S
N368 Zn352 2.036 . S
N368 C366 1.298 . S
N368 N369 1.398 . S
N369 C367 1.299 . S
N369 N368 1.398 . S
N370 C366 1.367 . S
N370 C367 1.379 . S
H371 C374 0.980 . S
H372 C374 0.981 . S
H373 C374 0.981 . S
C374 C366 1.481 . S
C374 H371 0.980 . S
C374 H372 0.981 . S
C374 H373 0.981 . S
C375 C362 1.481 1_556 S
C375 H376 0.980 . S
C375 H377 0.981 . S
C375 H378 0.981 . S
H376 C375 0.980 . S
H377 C375 0.981 . S
H378 C375 0.981 . S
O379 Zn355 2.066 . S
O379 C358 1.256 1_554 S
O380 Zn352 2.053 . S
O380 C358 1.244 1_554 S
C381 O359 1.259 1_556 S
C381 O360 1.254 1_556 S
O382 Zn352 2.066 . S
O382 C354 1.256 . S
O383 C354 1.244 . S
O383 Zn355 2.053 . S
H384 C390 0.930 . S
H385 C394 0.930 . S
H386 C399 0.929 . S
H387 C397 0.929 . S
H388 C392 0.929 . S
H389 C398 0.929 . S
C390 H384 0.930 . S
C390 C391 1.367 . S
C390 C398 1.378 . S
C391 C390 1.367 . S
C391 C399 1.433 . S
C392 H388 0.929 . S
C392 C394 1.378 . S
C392 C396 1.350 . S
C393 C396 1.463 . S
C393 C398 1.350 . S
C393 N401 1.427 . S
C394 H385 0.930 . S
C394 C392 1.378 . S
C394 C395 1.367 . S
C395 C394 1.367 . S
C395 C397 1.433 . S
C396 C392 1.350 . S
C396 C393 1.463 . S
C396 N400 1.427 . S
C397 H387 0.929 . S
C397 C395 1.433 . S
C397 N400 1.384 . S
C398 H389 0.929 . S
C398 C390 1.378 . S
C398 C393 1.350 . S
C399 H386 0.929 . S
C399 C391 1.433 . S
C399 N401 1.384 . S
N400 C396 1.427 . S
N400 C397 1.384 . S
N401 C393 1.427 . S
N401 C399 1.384 . S
H402 C408 0.930 . S
H403 C412 0.930 . S
H404 C417 0.929 . S
H405 C415 0.929 . S
H406 C410 0.929 . S
H407 C416 0.929 . S
C408 H402 0.930 . S
C408 C409 1.367 . S
C408 C416 1.378 . S
C409 C408 1.367 . S
C409 C417 1.433 . S
C410 H406 0.929 . S
C410 C412 1.378 . S
C410 C414 1.350 . S
C411 C414 1.463 . S
C411 C416 1.350 . S
C411 N419 1.427 . S
C412 H403 0.930 . S
C412 C410 1.378 . S
C412 C413 1.367 . S
C413 C412 1.367 . S
C413 C415 1.433 . S
C414 C410 1.350 . S
C414 C411 1.463 . S
C414 N418 1.427 . S
C415 H405 0.929 . S
C415 C413 1.433 . S
C415 N418 1.384 . S
C416 H407 0.929 . S
C416 C408 1.378 . S
C416 C411 1.350 . S
C417 H404 0.929 . S
C417 C409 1.433 . S
C417 N419 1.384 . S
N418 C414 1.427 . S
N418 C415 1.384 . S
N419 C411 1.427 . S
N419 C417 1.384 . S
H420 C426 0.930 . S
H421 C430 0.930 . S
H422 C435 0.929 . S
H423 C433 0.929 . S
H424 C428 0.929 . S
H425 C434 0.929 . S
C426 H420 0.930 . S
C426 C427 1.367 . S
C426 C434 1.378 . S
C427 C426 1.367 . S
C427 C435 1.433 . S
C428 H424 0.929 . S
C428 C430 1.378 . S
C428 C432 1.350 . S
C429 C432 1.463 . S
C429 C434 1.350 . S
C429 N437 1.427 . S
C430 H421 0.930 . S
C430 C428 1.378 . S
C430 C431 1.367 . S
C431 C430 1.367 . S
C431 C433 1.433 . S
C432 C428 1.350 . S
C432 C429 1.463 . S
C432 N436 1.427 . S
C433 H423 0.929 . S
C433 C431 1.433 . S
C433 N436 1.384 . S
C434 H425 0.929 . S
C434 C426 1.378 . S
C434 C429 1.350 . S
C435 H422 0.929 . S
C435 C427 1.433 . S
C435 N437 1.384 . S
N436 C432 1.427 . S
N436 C433 1.384 . S
N437 C429 1.427 . S
N437 C435 1.384 . S
H438 C444 0.930 . S
H439 C448 0.930 . S
H440 C453 0.929 . S
H441 C451 0.929 . S
H442 C446 0.929 . S
H443 C452 0.929 . S
C444 H438 0.930 . S
C444 C445 1.367 . S
C444 C452 1.378 . S
C445 C444 1.367 . S
C445 C453 1.433 . S
C446 H442 0.929 . S
C446 C448 1.378 . S
C446 C450 1.350 . S
C447 C450 1.463 . S
C447 C452 1.350 . S
C447 N455 1.427 . S
C448 H439 0.930 . S
C448 C446 1.378 . S
C448 C449 1.367 . S
C449 C448 1.367 . S
C449 C451 1.433 . S
C450 C446 1.350 . S
C450 C447 1.463 . S
C450 N454 1.427 . S
C451 H441 0.929 . S
C451 C449 1.433 . S
C451 N454 1.384 . S
C452 H443 0.929 . S
C452 C444 1.378 . S
C452 C447 1.350 . S
C453 H440 0.929 . S
C453 C445 1.433 . S
C453 N455 1.384 . S
N454 C450 1.427 . S
N454 C451 1.384 . S
N455 C447 1.427 . S
N455 C453 1.384 . S
H456 C462 0.930 . S
H457 C466 0.930 . S
H458 C471 0.929 . S
H459 C469 0.929 . S
H460 C464 0.929 . S
H461 C470 0.929 . S
C462 H456 0.930 . S
C462 C463 1.367 . S
C462 C470 1.378 . S
C463 C462 1.367 . S
C463 C471 1.433 . S
C464 H460 0.929 . S
C464 C466 1.378 . S
C464 C468 1.350 . S
C465 C468 1.463 . S
C465 C470 1.350 . S
C465 N473 1.427 . S
C466 H457 0.930 . S
C466 C464 1.378 . S
C466 C467 1.367 . S
C467 C466 1.367 . S
C467 C469 1.433 . S
C468 C464 1.350 . S
C468 C465 1.463 . S
C468 N472 1.427 . S
C469 H459 0.929 . S
C469 C467 1.433 . S
C469 N472 1.384 . S
C470 H461 0.929 . S
C470 C462 1.378 . S
C470 C465 1.350 . S
C471 H458 0.929 . S
C471 C463 1.433 . S
C471 N473 1.384 . S
N472 C468 1.427 . S
N472 C469 1.384 . S
N473 C465 1.427 . S
N473 C471 1.384 . S
H474 C480 0.930 . S
H475 C484 0.930 . S
H476 C489 0.929 . S
H477 C487 0.929 . S
H478 C482 0.929 . S
H479 C488 0.929 . S
C480 H474 0.930 . S
C480 C481 1.367 . S
C480 C488 1.378 . S
C481 C480 1.367 . S
C481 C489 1.433 . S
C482 H478 0.929 . S
C482 C484 1.378 . S
C482 C486 1.350 . S
C483 C486 1.463 . S
C483 C488 1.350 . S
C483 N491 1.427 . S
C484 H475 0.930 . S
C484 C482 1.378 . S
C484 C485 1.367 . S
C485 C484 1.367 . S
C485 C487 1.433 . S
C486 C482 1.350 . S
C486 C483 1.463 . S
C486 N490 1.427 . S
C487 H477 0.929 . S
C487 C485 1.433 . S
C487 N490 1.384 . S
C488 H479 0.929 . S
C488 C480 1.378 . S
C488 C483 1.350 . S
C489 H476 0.929 . S
C489 C481 1.433 . S
C489 N491 1.384 . S
N490 C486 1.427 . S
N490 C487 1.384 . S
N491 C483 1.427 . S
N491 C489 1.384 . S
H492 C498 0.930 . S
H493 C502 0.930 . S
H494 C507 0.929 . S
H495 C505 0.929 . S
H496 C500 0.929 . S
H497 C506 0.929 . S
C498 H492 0.930 . S
C498 C499 1.367 . S
C498 C506 1.378 . S
C499 C498 1.367 . S
C499 C507 1.433 . S
C500 H496 0.929 . S
C500 C502 1.378 . S
C500 C504 1.350 . S
C501 C504 1.463 1_556 S
C501 C506 1.350 . S
C501 N509 1.427 . S
C502 H493 0.930 . S
C502 C500 1.378 . S
C502 C503 1.367 . S
C503 C502 1.367 . S
C503 C505 1.433 . S
C504 C500 1.350 . S
C504 C501 1.463 1_554 S
C504 N508 1.427 . S
C505 H495 0.929 . S
C505 C503 1.433 . S
C505 N508 1.384 . S
C506 H497 0.929 . S
C506 C498 1.378 . S
C506 C501 1.350 . S
C507 H494 0.929 . S
C507 C499 1.433 . S
C507 N509 1.384 . S
N508 C504 1.427 . S
N508 C505 1.384 . S
N509 C501 1.427 . S
N509 C507 1.384 . S
H510 C516 0.930 . S
H511 C520 0.930 . S
H512 C525 0.929 . S
H513 C523 0.929 . S
H514 C518 0.929 . S
H515 C524 0.929 . S
C516 H510 0.930 . S
C516 C517 1.367 . S
C516 C524 1.378 . S
C517 C516 1.367 . S
C517 C525 1.433 . S
C518 H514 0.929 . S
C518 C520 1.378 . S
C518 C522 1.350 . S
C519 C522 1.463 . S
C519 C524 1.350 . S
C519 N527 1.427 . S
C520 H511 0.930 . S
C520 C518 1.378 . S
C520 C521 1.367 . S
C521 C520 1.367 . S
C521 C523 1.433 . S
C522 C518 1.350 . S
C522 C519 1.463 . S
C522 N526 1.427 . S
C523 H513 0.929 . S
C523 C521 1.433 . S
C523 N526 1.384 . S
C524 H515 0.929 . S
C524 C516 1.378 . S
C524 C519 1.350 . S
C525 H512 0.929 . S
C525 C517 1.433 . S
C525 N527 1.384 . S
N526 C522 1.427 . S
N526 C523 1.384 . S
N527 C519 1.427 . S
N527 C525 1.384 . S
H528 C534 0.930 . S
H529 C538 0.930 . S
H530 C543 0.929 . S
H531 C541 0.929 . S
H532 C536 0.929 . S
H533 C542 0.929 . S
C534 H528 0.930 . S
C534 C535 1.367 . S
C534 C542 1.378 . S
C535 C534 1.367 . S
C535 C543 1.433 . S
C536 H532 0.929 . S
C536 C538 1.378 . S
C536 C540 1.350 . S
C537 C540 1.463 . S
C537 C542 1.350 . S
C537 N545 1.427 . S
C538 H529 0.930 . S
C538 C536 1.378 . S
C538 C539 1.367 . S
C539 C538 1.367 . S
C539 C541 1.433 . S
C540 C536 1.350 . S
C540 C537 1.463 . S
C540 N544 1.427 . S
C541 H531 0.929 . S
C541 C539 1.433 . S
C541 N544 1.384 . S
C542 H533 0.929 . S
C542 C534 1.378 . S
C542 C537 1.350 . S
C543 H530 0.929 . S
C543 C535 1.433 . S
C543 N545 1.384 . S
N544 C540 1.427 . S
N544 C541 1.384 . S
N545 C537 1.427 . S
N545 C543 1.384 . S
H546 C552 0.930 . S
H547 C556 0.930 . S
H548 C561 0.929 . S
H549 C559 0.929 . S
H550 C554 0.929 . S
H551 C560 0.929 . S
C552 H546 0.930 . S
C552 C553 1.367 . S
C552 C560 1.378 . S
C553 C552 1.367 . S
C553 C561 1.433 . S
C554 H550 0.929 . S
C554 C556 1.378 . S
C554 C558 1.350 . S
C555 C558 1.463 1_556 S
C555 C560 1.350 . S
C555 N563 1.427 . S
C556 H547 0.930 . S
C556 C554 1.378 . S
C556 C557 1.367 . S
C557 C556 1.367 . S
C557 C559 1.433 . S
C558 C554 1.350 . S
C558 C555 1.463 1_554 S
C558 N562 1.427 . S
C559 H549 0.929 . S
C559 C557 1.433 . S
C559 N562 1.384 . S
C560 H551 0.929 . S
C560 C552 1.378 . S
C560 C555 1.350 . S
C561 H548 0.929 . S
C561 C553 1.433 . S
C561 N563 1.384 . S
N562 C558 1.427 . S
N562 C559 1.384 . S
N563 C555 1.427 . S
N563 C561 1.384 . S
H564 C570 0.930 . S
H565 C574 0.930 . S
H566 C579 0.929 . S
H567 C577 0.929 . S
H568 C572 0.929 . S
H569 C578 0.929 . S
C570 H564 0.930 . S
C570 C571 1.367 . S
C570 C578 1.378 . S
C571 C570 1.367 . S
C571 C579 1.433 . S
C572 H568 0.929 . S
C572 C574 1.378 . S
C572 C576 1.350 . S
C573 C576 1.463 . S
C573 C578 1.350 . S
C573 N581 1.427 . S
C574 H565 0.930 . S
C574 C572 1.378 . S
C574 C575 1.367 . S
C575 C574 1.367 . S
C575 C577 1.433 . S
C576 C572 1.350 . S
C576 C573 1.463 . S
C576 N580 1.427 . S
C577 H567 0.929 . S
C577 C575 1.433 . S
C577 N580 1.384 . S
C578 H569 0.929 . S
C578 C570 1.378 . S
C578 C573 1.350 . S
C579 H566 0.929 . S
C579 C571 1.433 . S
C579 N581 1.384 . S
N580 C576 1.427 . S
N580 C577 1.384 . S
N581 C573 1.427 . S
N581 C579 1.384 . S
H582 C588 0.930 . S
H583 C592 0.930 . S
H584 C597 0.929 . S
H585 C595 0.929 . S
H586 C590 0.929 . S
H587 C596 0.929 . S
C588 H582 0.930 . S
C588 C589 1.367 . S
C588 C596 1.378 . S
C589 C588 1.367 . S
C589 C597 1.433 . S
C590 H586 0.929 . S
C590 C592 1.378 . S
C590 C594 1.350 . S
C591 C594 1.463 . S
C591 C596 1.350 . S
C591 N599 1.427 . S
C592 H583 0.930 . S
C592 C590 1.378 . S
C592 C593 1.367 . S
C593 C592 1.367 . S
C593 C595 1.433 . S
C594 C590 1.350 . S
C594 C591 1.463 . S
C594 N598 1.427 . S
C595 H585 0.929 . S
C595 C593 1.433 . S
C595 N598 1.384 . S
C596 H587 0.929 . S
C596 C588 1.378 . S
C596 C591 1.350 . S
C597 H584 0.929 . S
C597 C589 1.433 . S
C597 N599 1.384 . S
N598 C594 1.427 . S
N598 C595 1.384 . S
N599 C591 1.427 . S
N599 C597 1.384 . S
H600 C606 0.930 . S
H601 C610 0.930 . S
H602 C615 0.929 . S
H603 C613 0.929 . S
H604 C608 0.929 1_556 S
H605 C614 0.929 1_554 S
C606 H600 0.930 . S
C606 C607 1.367 . S
C606 C614 1.378 . S
C607 C606 1.367 . S
C607 C615 1.433 . S
C608 H604 0.929 1_554 S
C608 C610 1.378 . S
C608 C612 1.350 . S
C609 C612 1.463 1_566 S
C609 C614 1.350 . S
C609 N617 1.427 . S
C610 H601 0.930 . S
C610 C608 1.378 . S
C610 C611 1.367 . S
C611 C610 1.367 . S
C611 C613 1.433 . S
C612 C608 1.350 . S
C612 C609 1.463 1_544 S
C612 N616 1.427 . S
C613 H603 0.929 . S
C613 C611 1.433 . S
C613 N616 1.384 . S
C614 H605 0.929 1_556 S
C614 C606 1.378 . S
C614 C609 1.350 . S
C615 H602 0.929 . S
C615 C607 1.433 . S
C615 N617 1.384 . S
N616 C612 1.427 . S
N616 C613 1.384 . S
N617 C609 1.427 . S
N617 C615 1.384 . S
H618 C624 0.930 . S
H619 C628 0.930 . S
H620 C633 0.929 . S
H621 C631 0.929 . S
H622 C626 0.929 . S
H623 C632 0.929 . S
C624 H618 0.930 . S
C624 C625 1.367 . S
C624 C632 1.378 . S
C625 C624 1.367 . S
C625 C633 1.433 . S
C626 H622 0.929 . S
C626 C628 1.378 . S
C626 C630 1.350 . S
C627 C630 1.463 . S
C627 C632 1.350 . S
C627 N635 1.427 . S
C628 H619 0.930 . S
C628 C626 1.378 . S
C628 C629 1.367 . S
C629 C628 1.367 . S
C629 C631 1.433 . S
C630 C626 1.350 . S
C630 C627 1.463 . S
C630 N634 1.427 . S
C631 H621 0.929 . S
C631 C629 1.433 . S
C631 N634 1.384 . S
C632 H623 0.929 . S
C632 C624 1.378 . S
C632 C627 1.350 . S
C633 H620 0.929 . S
C633 C625 1.433 . S
C633 N635 1.384 . S
N634 C630 1.427 . S
N634 C631 1.384 . S
N635 C627 1.427 . S
N635 C633 1.384 . S
H636 C642 0.930 . S
H637 C646 0.930 . S
H638 C651 0.929 . S
H639 C649 0.929 . S
H640 C644 0.929 . S
H641 C650 0.929 . S
C642 H636 0.930 . S
C642 C643 1.367 . S
C642 C650 1.378 . S
C643 C642 1.367 . S
C643 C651 1.433 . S
C644 H640 0.929 . S
C644 C646 1.378 . S
C644 C648 1.350 . S
C645 C648 1.463 1_455 S
C645 C650 1.350 . S
C645 N653 1.427 . S
C646 H637 0.930 . S
C646 C644 1.378 . S
C646 C647 1.367 . S
C647 C646 1.367 . S
C647 C649 1.433 . S
C648 C644 1.350 . S
C648 C645 1.463 1_655 S
C648 N652 1.427 . S
C649 H639 0.929 . S
C649 C647 1.433 . S
C649 N652 1.384 . S
C650 H641 0.929 . S
C650 C642 1.378 . S
C650 C645 1.350 . S
C651 H638 0.929 . S
C651 C643 1.433 . S
C651 N653 1.384 . S
N652 C648 1.427 . S
N652 C649 1.384 . S
N653 C645 1.427 . S
N653 C651 1.384 . S
H654 C660 0.930 . S
H655 C664 0.930 . S
H656 C669 0.929 . S
H657 C667 0.929 . S
H658 C662 0.923 1_565 S
H659 C668 0.923 1_545 S
C660 H654 0.930 . S
C660 C661 1.367 . S
C660 C668 1.378 . S
C661 C660 1.367 . S
C661 C669 1.433 . S
C662 H658 0.923 1_545 S
C662 C664 1.378 . S
C662 C666 1.350 . S
C663 C666 1.463 1_564 S
C663 C668 1.350 . S
C663 N671 1.427 . S
C664 H655 0.930 . S
C664 C662 1.378 . S
C664 C665 1.367 . S
C665 C664 1.367 . S
C665 C667 1.433 . S
C666 C662 1.350 . S
C666 C663 1.463 1_546 S
C666 N670 1.427 . S
C667 H657 0.929 . S
C667 C665 1.433 . S
C667 N670 1.384 . S
C668 H659 0.923 1_565 S
C668 C660 1.378 . S
C668 C663 1.350 . S
C669 H656 0.929 . S
C669 C661 1.433 . S
C669 N671 1.384 . S
N670 C666 1.427 . S
N670 C667 1.384 . S
N671 C663 1.427 . S
N671 C669 1.384 . S
H672 C678 0.930 . S
H673 C682 0.930 . S
H674 C687 0.929 . S
H675 C685 0.929 . S
H676 C680 0.929 . S
H677 C686 0.929 . S
C678 H672 0.930 . S
C678 C679 1.367 . S
C678 C686 1.378 . S
C679 C678 1.367 . S
C679 C687 1.433 . S
C680 H676 0.929 . S
C680 C682 1.378 . S
C680 C684 1.350 . S
C681 C684 1.463 . S
C681 C686 1.350 . S
C681 N689 1.427 . S
C682 H673 0.930 . S
C682 C680 1.378 . S
C682 C683 1.367 . S
C683 C682 1.367 . S
C683 C685 1.433 . S
C684 C680 1.350 . S
C684 C681 1.463 . S
C684 N688 1.427 . S
C685 H675 0.929 . S
C685 C683 1.433 . S
C685 N688 1.384 . S
C686 H677 0.929 . S
C686 C678 1.378 . S
C686 C681 1.350 . S
C687 H674 0.929 . S
C687 C679 1.433 . S
C687 N689 1.384 . S
N688 C684 1.427 . S
N688 C685 1.384 . S
N689 C681 1.427 . S
N689 C687 1.384 . S
H690 C696 0.930 . S
H691 C700 0.930 . S
H692 C705 0.929 . S
H693 C703 0.929 . S
H694 C698 0.929 1_455 S
H695 C704 0.929 1_655 S
C696 H690 0.930 . S
C696 C697 1.367 . S
C696 C704 1.378 . S
C697 C696 1.367 . S
C697 C705 1.433 . S
C698 H694 0.929 1_655 S
C698 C700 1.378 . S
C698 C702 1.350 . S
C699 C702 1.463 1_455 S
C699 C704 1.350 . S
C699 N707 1.427 . S
C700 H691 0.930 . S
C700 C698 1.378 . S
C700 C701 1.367 . S
C701 C700 1.367 . S
C701 C703 1.433 . S
C702 C698 1.350 . S
C702 C699 1.463 1_655 S
C702 N706 1.427 . S
C703 H693 0.929 . S
C703 C701 1.433 . S
C703 N706 1.384 . S
C704 H695 0.929 1_455 S
C704 C696 1.378 . S
C704 C699 1.350 . S
C705 H692 0.929 . S
C705 C697 1.433 . S
C705 N707 1.384 . S
N706 C702 1.427 . S
N706 C703 1.384 . S
N707 C699 1.427 . S
N707 C705 1.384 . S
H708 C714 0.930 . S
H709 C718 0.930 . S
H710 C723 0.929 . S
H711 C721 0.929 . S
H712 C716 0.929 . S
H713 C722 0.929 . S
C714 H708 0.930 . S
C714 C715 1.367 . S
C714 C722 1.378 . S
C715 C714 1.367 . S
C715 C723 1.433 . S
C716 H712 0.929 . S
C716 C718 1.378 . S
C716 C720 1.350 . S
C717 C720 1.463 1_545 S
C717 C722 1.350 . S
C717 N725 1.427 . S
C718 H709 0.930 . S
C718 C716 1.378 . S
C718 C719 1.367 . S
C719 C718 1.367 . S
C719 C721 1.433 . S
C720 C716 1.350 . S
C720 C717 1.463 1_565 S
C720 N724 1.427 . S
C721 H711 0.929 . S
C721 C719 1.433 . S
C721 N724 1.384 . S
C722 H713 0.929 . S
C722 C714 1.378 . S
C722 C717 1.350 . S
C723 H710 0.929 . S
C723 C715 1.433 . S
C723 N725 1.384 . S
N724 C720 1.427 . S
N724 C721 1.384 . S
N725 C717 1.427 . S
N725 C723 1.384 . S
H726 C732 0.930 . S
H727 C736 0.930 . S
H728 C741 0.929 . S
H729 C739 0.929 . S
H730 C734 0.929 . S
H731 C740 0.929 . S
C732 H726 0.930 . S
C732 C733 1.367 . S
C732 C740 1.378 . S
C733 C732 1.367 . S
C733 C741 1.433 . S
C734 H730 0.929 . S
C734 C736 1.378 . S
C734 C738 1.350 . S
C735 C738 1.463 . S
C735 C740 1.350 . S
C735 N743 1.427 . S
C736 H727 0.930 . S
C736 C734 1.378 . S
C736 C737 1.367 . S
C737 C736 1.367 . S
C737 C739 1.433 . S
C738 C734 1.350 . S
C738 C735 1.463 . S
C738 N742 1.427 . S
C739 H729 0.929 . S
C739 C737 1.433 . S
C739 N742 1.384 . S
C740 H731 0.929 . S
C740 C732 1.378 . S
C740 C735 1.350 . S
C741 H728 0.929 . S
C741 C733 1.433 . S
C741 N743 1.384 . S
N742 C738 1.427 . S
N742 C739 1.384 . S
N743 C735 1.427 . S
N743 C741 1.384 . S
H744 C750 0.930 . S
H745 C754 0.930 . S
H746 C759 0.929 . S
H747 C757 0.929 . S
H748 C752 0.929 . S
H749 C758 0.929 . S
C750 H744 0.930 . S
C750 C751 1.367 1_554 S
C750 C758 1.378 . S
C751 C750 1.367 1_556 S
C751 C759 1.433 1_655 S
C752 H748 0.929 . S
C752 C754 1.378 . S
C752 C756 1.350 . S
C753 C756 1.463 1_655 S
C753 C758 1.350 1_556 S
C753 N761 1.427 1_655 S
C754 H745 0.930 . S
C754 C752 1.378 . S
C754 C755 1.367 . S
C755 C754 1.367 . S
C755 C757 1.433 1_456 S
C756 C752 1.350 . S
C756 C753 1.463 1_455 S
C756 N760 1.427 1_456 S
C757 H747 0.929 . S
C757 C755 1.433 1_654 S
C757 N760 1.384 . S
C758 H749 0.929 . S
C758 C750 1.378 . S
C758 C753 1.350 1_554 S
C759 H746 0.929 . S
C759 C751 1.433 1_455 S
C759 N761 1.384 . S
N760 C756 1.427 1_654 S
N760 C757 1.384 . S
N761 C753 1.427 1_455 S
N761 C759 1.384 . S
H762 C768 0.930 . S
H763 C772 0.930 . S
H764 C777 0.929 1_655 S
H765 C775 0.929 1_455 S
H766 C770 0.929 . S
H767 C776 0.929 . S
C768 H762 0.930 . S
C768 C769 1.367 . S
C768 C776 1.378 . S
C769 C768 1.367 . S
C769 C777 1.433 . S
C770 H766 0.929 . S
C770 C772 1.378 . S
C770 C774 1.350 . S
C771 C774 1.463 1_455 S
C771 C776 1.350 . S
C771 N779 1.427 1_455 S
C772 H763 0.930 . S
C772 C770 1.378 . S
C772 C773 1.367 . S
C773 C772 1.367 . S
C773 C775 1.433 . S
C774 C770 1.350 . S
C774 C771 1.463 1_655 S
C774 N778 1.427 1_655 S
C775 H765 0.929 1_655 S
C775 C773 1.433 . S
C775 N778 1.384 1_655 S
C776 H767 0.929 . S
C776 C768 1.378 . S
C776 C771 1.350 . S
C777 H764 0.929 1_455 S
C777 C769 1.433 . S
C777 N779 1.384 1_455 S
N778 C774 1.427 1_455 S
N778 C775 1.384 1_455 S
N779 C771 1.427 1_655 S
N779 C777 1.384 1_655 S
H780 C786 0.930 . S
H781 C790 0.930 . S
H782 C795 0.929 . S
H783 C793 0.929 . S
H784 C788 0.929 1_565 S
H785 C794 0.929 1_545 S
C786 H780 0.930 . S
C786 C787 1.367 . S
C786 C794 1.378 . S
C787 C786 1.367 . S
C787 C795 1.433 . S
C788 H784 0.929 1_545 S
C788 C790 1.378 . S
C788 C792 1.350 . S
C789 C792 1.463 1_565 S
C789 C794 1.350 . S
C789 N797 1.427 . S
C790 H781 0.930 . S
C790 C788 1.378 . S
C790 C791 1.367 . S
C791 C790 1.367 . S
C791 C793 1.433 . S
C792 C788 1.350 . S
C792 C789 1.463 1_545 S
C792 N796 1.427 . S
C793 H783 0.929 . S
C793 C791 1.433 . S
C793 N796 1.384 . S
C794 H785 0.929 1_565 S
C794 C786 1.378 . S
C794 C789 1.350 . S
C795 H782 0.929 . S
C795 C787 1.433 . S
C795 N797 1.384 . S
N796 C792 1.427 . S
N796 C793 1.384 . S
N797 C789 1.427 . S
N797 C795 1.384 . S
H798 C804 0.930 . S
H799 C808 0.930 1_556 S
H800 C813 0.929 1_556 S
H801 C811 0.929 . S
H802 C806 0.929 1_556 S
H803 C812 0.929 . S
C804 H798 0.930 . S
C804 C805 1.367 . S
C804 C812 1.378 . S
C805 C804 1.367 . S
C805 C813 1.433 . S
C806 H802 0.929 1_554 S
C806 C808 1.378 . S
C806 C810 1.350 . S
C807 C810 1.463 . S
C807 C812 1.350 . S
C807 N815 1.427 . S
C808 H799 0.930 1_554 S
C808 C806 1.378 . S
C808 C809 1.367 . S
C809 C808 1.367 . S
C809 C811 1.433 . S
C810 C806 1.350 . S
C810 C807 1.463 . S
C810 N814 1.427 . S
C811 H801 0.929 . S
C811 C809 1.433 . S
C811 N814 1.384 . S
C812 H803 0.929 . S
C812 C804 1.378 . S
C812 C807 1.350 . S
C813 H800 0.929 1_554 S
C813 C805 1.433 . S
C813 N815 1.384 . S
N814 C810 1.427 . S
N814 C811 1.384 . S
N815 C807 1.427 . S
N815 C813 1.384 . S
H816 C822 0.930 . S
H817 C826 0.930 . S
H818 C831 0.929 . S
H819 C829 0.929 . S
H820 C824 0.929 . S
H821 C830 0.929 . S
C822 H816 0.930 . S
C822 C823 1.367 . S
C822 C830 1.378 . S
C823 C822 1.367 . S
C823 C831 1.433 . S
C824 H820 0.929 . S
C824 C826 1.378 . S
C824 C828 1.350 . S
C825 C828 1.463 1_565 S
C825 C830 1.350 . S
C825 N833 1.427 . S
C826 H817 0.930 . S
C826 C824 1.378 . S
C826 C827 1.367 . S
C827 C826 1.367 . S
C827 C829 1.433 . S
C828 C824 1.350 . S
C828 C825 1.463 1_545 S
C828 N832 1.427 . S
C829 H819 0.929 . S
C829 C827 1.433 . S
C829 N832 1.384 . S
C830 H821 0.929 . S
C830 C822 1.378 . S
C830 C825 1.350 . S
C831 H818 0.929 . S
C831 C823 1.433 . S
C831 N833 1.384 . S
N832 C828 1.427 . S
N832 C829 1.384 . S
N833 C825 1.427 . S
N833 C831 1.384 . S
H834 C840 0.930 . S
H835 C844 0.930 . S
H836 C849 0.929 . S
H837 C847 0.929 . S
H838 C842 0.929 . S
H839 C848 0.929 . S
C840 H834 0.930 . S
C840 C841 1.367 . S
C840 C848 1.378 . S
C841 C840 1.367 . S
C841 C849 1.433 . S
C842 H838 0.929 . S
C842 C844 1.378 . S
C842 C846 1.350 . S
C843 C846 1.463 . S
C843 C848 1.350 . S
C843 N851 1.427 . S
C844 H835 0.930 . S
C844 C842 1.378 . S
C844 C845 1.367 . S
C845 C844 1.367 . S
C845 C847 1.433 . S
C846 C842 1.350 . S
C846 C843 1.463 . S
C846 N850 1.427 . S
C847 H837 0.929 . S
C847 C845 1.433 . S
C847 N850 1.384 . S
C848 H839 0.929 . S
C848 C840 1.378 . S
C848 C843 1.350 . S
C849 H836 0.929 . S
C849 C841 1.433 . S
C849 N851 1.384 . S
N850 C846 1.427 . S
N850 C847 1.384 . S
N851 C843 1.427 . S
N851 C849 1.384 . S
H852 C858 0.930 . S
H853 C862 0.930 . S
H854 C867 0.929 . S
H855 C865 0.929 . S
H856 C860 0.929 1_655 S
H857 C866 0.929 1_455 S
C858 H852 0.930 . S
C858 C859 1.367 . S
C858 C866 1.378 . S
C859 C858 1.367 . S
C859 C867 1.433 . S
C860 H856 0.929 1_455 S
C860 C862 1.378 . S
C860 C864 1.350 . S
C861 C864 1.463 1_655 S
C861 C866 1.350 . S
C861 N869 1.427 . S
C862 H853 0.930 . S
C862 C860 1.378 . S
C862 C863 1.367 . S
C863 C862 1.367 . S
C863 C865 1.433 . S
C864 C860 1.350 . S
C864 C861 1.463 1_455 S
C864 N868 1.427 . S
C865 H855 0.929 . S
C865 C863 1.433 . S
C865 N868 1.384 . S
C866 H857 0.929 1_655 S
C866 C858 1.378 . S
C866 C861 1.350 . S
C867 H854 0.929 . S
C867 C859 1.433 . S
C867 N869 1.384 . S
N868 C864 1.427 . S
N868 C865 1.384 . S
N869 C861 1.427 . S
N869 C867 1.384 . S
H870 C876 0.930 . S
H871 C880 0.930 . S
H872 C885 0.929 . S
H873 C883 0.929 . S
H874 C878 0.929 1_545 S
H875 C884 0.929 1_565 S
C876 H870 0.930 . S
C876 C877 1.367 . S
C876 C884 1.378 . S
C877 C876 1.367 . S
C877 C885 1.433 . S
C878 H874 0.929 1_565 S
C878 C880 1.378 . S
C878 C882 1.350 . S
C879 C882 1.463 1_545 S
C879 C884 1.350 . S
C879 N887 1.427 . S
C880 H871 0.930 . S
C880 C878 1.378 . S
C880 C881 1.367 . S
C881 C880 1.367 . S
C881 C883 1.433 . S
C882 C878 1.350 . S
C882 C879 1.463 1_565 S
C882 N886 1.427 . S
C883 H873 0.929 . S
C883 C881 1.433 . S
C883 N886 1.384 . S
C884 H875 0.929 1_545 S
C884 C876 1.378 . S
C884 C879 1.350 . S
C885 H872 0.929 . S
C885 C877 1.433 . S
C885 N887 1.384 . S
N886 C882 1.427 . S
N886 C883 1.384 . S
N887 C879 1.427 . S
N887 C885 1.384 . S
H888 C894 0.930 . S
H889 C898 0.930 . S
H890 C903 0.929 . S
H891 C901 0.929 . S
H892 C896 0.929 . S
H893 C902 0.929 . S
C894 H888 0.930 . S
C894 C895 1.367 . S
C894 C902 1.378 . S
C895 C894 1.367 . S
C895 C903 1.433 . S
C896 H892 0.929 . S
C896 C898 1.378 . S
C896 C900 1.350 . S
C897 C900 1.463 . S
C897 C902 1.350 . S
C897 N905 1.427 . S
C898 H889 0.930 . S
C898 C896 1.378 . S
C898 C899 1.367 . S
C899 C898 1.367 . S
C899 C901 1.433 . S
C900 C896 1.350 . S
C900 C897 1.463 . S
C900 N904 1.427 . S
C901 H891 0.929 . S
C901 C899 1.433 . S
C901 N904 1.384 . S
C902 H893 0.929 . S
C902 C894 1.378 . S
C902 C897 1.350 . S
C903 H890 0.929 . S
C903 C895 1.433 . S
C903 N905 1.384 . S
N904 C900 1.427 . S
N904 C901 1.384 . S
N905 C897 1.427 . S
N905 C903 1.384 . S
H906 C912 0.930 . S
H907 C916 0.930 . S
H908 C921 0.929 . S
H909 C919 0.929 . S
H910 C914 0.929 1_455 S
H911 C920 0.929 1_655 S
C912 H906 0.930 . S
C912 C913 1.367 . S
C912 C920 1.378 . S
C913 C912 1.367 . S
C913 C921 1.433 . S
C914 H910 0.929 1_655 S
C914 C916 1.378 . S
C914 C918 1.350 . S
C915 C918 1.463 1_455 S
C915 C920 1.350 . S
C915 N923 1.427 . S
C916 H907 0.930 . S
C916 C914 1.378 . S
C916 C917 1.367 . S
C917 C916 1.367 . S
C917 C919 1.433 . S
C918 C914 1.350 . S
C918 C915 1.463 1_655 S
C918 N922 1.427 . S
C919 H909 0.929 . S
C919 C917 1.433 . S
C919 N922 1.384 . S
C920 H911 0.929 1_455 S
C920 C912 1.378 . S
C920 C915 1.350 . S
C921 H908 0.929 . S
C921 C913 1.433 . S
C921 N923 1.384 . S
N922 C918 1.427 . S
N922 C919 1.384 . S
N923 C915 1.427 . S
N923 C921 1.384 . S
H924 C930 0.930 . S
H925 C934 0.930 . S
H926 C939 0.929 . S
H927 C937 0.929 . S
H928 C932 0.929 . S
H929 C938 0.929 . S
C930 H924 0.930 . S
C930 C931 1.367 . S
C930 C938 1.378 . S
C931 C930 1.367 . S
C931 C939 1.433 . S
C932 H928 0.929 . S
C932 C934 1.378 . S
C932 C936 1.350 . S
C933 C936 1.463 . S
C933 C938 1.350 . S
C933 N941 1.427 . S
C934 H925 0.930 . S
C934 C932 1.378 . S
C934 C935 1.367 . S
C935 C934 1.367 . S
C935 C937 1.433 . S
C936 C932 1.350 . S
C936 C933 1.463 . S
C936 N940 1.427 . S
C937 H927 0.929 . S
C937 C935 1.433 . S
C937 N940 1.384 . S
C938 H929 0.929 . S
C938 C930 1.378 . S
C938 C933 1.350 . S
C939 H926 0.929 . S
C939 C931 1.433 . S
C939 N941 1.384 . S
N940 C936 1.427 . S
N940 C937 1.384 . S
N941 C933 1.427 . S
N941 C939 1.384 . S
H942 C948 0.930 . S
H943 C952 0.930 . S
H944 C957 0.929 . S
H945 C955 0.929 . S
H946 C950 0.929 . S
H947 C956 0.929 . S
C948 H942 0.930 . S
C948 C949 1.367 . S
C948 C956 1.378 . S
C949 C948 1.367 . S
C949 C957 1.433 . S
C950 H946 0.929 . S
C950 C952 1.378 . S
C950 C954 1.350 . S
C951 C954 1.463 . S
C951 C956 1.350 . S
C951 N959 1.427 . S
C952 H943 0.930 . S
C952 C950 1.378 . S
C952 C953 1.367 . S
C953 C952 1.367 . S
C953 C955 1.433 . S
C954 C950 1.350 . S
C954 C951 1.463 . S
C954 N958 1.427 . S
C955 H945 0.929 . S
C955 C953 1.433 . S
C955 N958 1.384 . S
C956 H947 0.929 . S
C956 C948 1.378 . S
C956 C951 1.350 . S
C957 H944 0.929 . S
C957 C949 1.433 . S
C957 N959 1.384 . S
N958 C954 1.427 . S
N958 C955 1.384 . S
N959 C951 1.427 . S
N959 C957 1.384 . S
H960 C966 0.930 . S
H961 C970 0.930 . S
H962 C975 0.929 . S
H963 C973 0.929 . S
H964 C968 0.929 . S
H965 C974 0.929 . S
C966 H960 0.930 . S
C966 C967 1.367 . S
C966 C974 1.378 . S
C967 C966 1.367 . S
C967 C975 1.433 . S
C968 H964 0.929 . S
C968 C970 1.378 . S
C968 C972 1.350 . S
C969 C972 1.463 . S
C969 C974 1.350 . S
C969 N977 1.427 . S
C970 H961 0.930 . S
C970 C968 1.378 . S
C970 C971 1.367 . S
C971 C970 1.367 . S
C971 C973 1.433 . S
C972 C968 1.350 . S
C972 C969 1.463 . S
C972 N976 1.427 . S
C973 H963 0.929 . S
C973 C971 1.433 . S
C973 N976 1.384 . S
C974 H965 0.929 . S
C974 C966 1.378 . S
C974 C969 1.350 . S
C975 H962 0.929 . S
C975 C967 1.433 . S
C975 N977 1.384 . S
N976 C972 1.427 . S
N976 C973 1.384 . S
N977 C969 1.427 . S
N977 C975 1.384 . S
H978 C984 0.930 . S
H979 C988 0.930 . S
H980 C993 0.929 . S
H981 C991 0.929 . S
H982 C986 0.929 . S
H983 C992 0.929 . S
C984 H978 0.930 . S
C984 C985 1.367 . S
C984 C992 1.378 . S
C985 C984 1.367 . S
C985 C993 1.433 . S
C986 H982 0.929 . S
C986 C988 1.378 . S
C986 C990 1.350 . S
C987 C990 1.463 . S
C987 C992 1.350 . S
C987 N995 1.427 . S
C988 H979 0.930 . S
C988 C986 1.378 . S
C988 C989 1.367 . S
C989 C988 1.367 . S
C989 C991 1.433 . S
C990 C986 1.350 . S
C990 C987 1.463 . S
C990 N994 1.427 . S
C991 H981 0.929 . S
C991 C989 1.433 . S
C991 N994 1.384 . S
C992 H983 0.929 . S
C992 C984 1.378 . S
C992 C987 1.350 . S
C993 H980 0.929 . S
C993 C985 1.433 . S
C993 N995 1.384 . S
N994 C990 1.427 . S
N994 C991 1.384 . S
N995 C987 1.427 . S
N995 C993 1.384 . S
H996 C1002 0.930 . S
H997 C1006 0.930 . S
H998 C1011 0.929 . S
H999 C1009 0.929 . S
H1000 C1004 0.929 . S
H1001 C1010 0.929 . S
C1002 H996 0.930 . S
C1002 C1003 1.367 . S
C1002 C1010 1.378 . S
C1003 C1002 1.367 . S
C1003 C1011 1.433 . S
C1004 H1000 0.929 . S
C1004 C1006 1.378 . S
C1004 C1008 1.350 . S
C1005 C1008 1.463 . S
C1005 C1010 1.350 . S
C1005 N1013 1.427 . S
C1006 H997 0.930 . S
C1006 C1004 1.378 . S
C1006 C1007 1.367 . S
C1007 C1006 1.367 . S
C1007 C1009 1.433 . S
C1008 C1004 1.350 . S
C1008 C1005 1.463 . S
C1008 N1012 1.427 . S
C1009 H999 0.929 . S
C1009 C1007 1.433 . S
C1009 N1012 1.384 . S
C1010 H1001 0.929 . S
C1010 C1002 1.378 . S
C1010 C1005 1.350 . S
C1011 H998 0.929 . S
C1011 C1003 1.433 . S
C1011 N1013 1.384 . S
N1012 C1008 1.427 . S
N1012 C1009 1.384 . S
N1013 C1005 1.427 . S
N1013 C1011 1.384 . S
H1014 C1020 0.930 . S
H1015 C1024 0.930 . S
H1016 C1029 0.929 . S
H1017 C1027 0.929 . S
H1018 C1022 0.929 . S
H1019 C1028 0.929 . S
C1020 H1014 0.930 . S
C1020 C1021 1.367 . S
C1020 C1028 1.378 . S
C1021 C1020 1.367 . S
C1021 C1029 1.433 . S
C1022 H1018 0.929 . S
C1022 C1024 1.378 . S
C1022 C1026 1.350 . S
C1023 C1026 1.463 . S
C1023 C1028 1.350 . S
C1023 N1031 1.427 . S
C1024 H1015 0.930 . S
C1024 C1022 1.378 . S
C1024 C1025 1.367 . S
C1025 C1024 1.367 . S
C1025 C1027 1.433 . S
C1026 C1022 1.350 . S
C1026 C1023 1.463 . S
C1026 N1030 1.427 . S
C1027 H1017 0.929 . S
C1027 C1025 1.433 . S
C1027 N1030 1.384 . S
C1028 H1019 0.929 . S
C1028 C1020 1.378 . S
C1028 C1023 1.350 . S
C1029 H1016 0.929 . S
C1029 C1021 1.433 . S
C1029 N1031 1.384 . S
N1030 C1026 1.427 . S
N1030 C1027 1.384 . S
N1031 C1023 1.427 . S
N1031 C1029 1.384 . S
C391 N13 1.222 . S
C395 N274 1.221 . S
C409 N50 1.215 . S
C413 N306 1.217 . S
C427 N82 1.218 . S
C431 N333 1.217 . S
C445 N370 1.214 . S
C449 N114 1.213 . S
C463 N146 1.215 . S
C467 N210 1.216 . S
C481 N237 1.222 . S
C485 N173 1.221 . S
C499 C326 2.307 . S
C503 C6 2.301 . S
C517 C354 2.309 . S
C521 C34 2.302 . S
C535 C66 2.302 . S
C539 C194 2.309 . S
C553 C230 2.302 . S
C557 C98 2.309 . S
C571 C258 2.303 . S
C575 C130 2.303 . S
C589 C166 2.309 . S
C593 C290 2.305 . S
C607 C253 1.859 . S
C611 C29 1.862 . S
C625 C260 1.863 . S
C629 C36 1.857 . S
C643 C292 1.863 . S
C647 C68 1.856 . S
C661 C100 1.860 . S
C665 C349 1.851 . S
C679 C132 1.859 . S
C683 C356 1.851 . S
C697 C189 1.851 . S
C701 C196 1.858 . S
C715 N18 2.229 . S
C719 N109 2.218 . S
C733 N45 2.229 . S
C737 N141 2.218 . S
C751 N77 2.224 . S
C755 N178 2.218 . S
C769 N301 2.217 . S
C773 N205 2.226 . S
C787 N242 2.230 . S
C791 N338 2.219 . S
C805 N365 2.218 . S
C809 N269 2.222 . S
C823 C228 1.530 . S
C827 C4 1.523 . S
C841 C285 1.525 . S
C845 C61 1.530 . S
C859 C93 1.515 . S
C863 C317 1.524 . S
C877 C324 1.520 . S
C881 C125 1.515 . S
C895 C381 1.530 . S
C899 C157 1.521 . S
C913 C164 1.516 . S
C917 C221 1.517 . S
C931 C2 1.765 . S
C935 C322 1.774 . S
C949 C38 1.767 . S
C953 C358 1.777 . S
C967 C70 1.766 . S
C971 C198 1.771 . S
C985 C102 1.778 . S
C989 C226 1.769 . S
C1003 C134 1.776 . S
C1007 C262 1.775 . S
C1021 C294 1.768 . S
C1025 C162 1.778 . S
