# Generated by pormake.
# Topology wjv, (5)-cn, num edge types: 1
# Building blocks:
#     Node 0, Type 0, BuildingBlock: BEQFEK_clean_sbu_0, # of connection points: 5
#     Node 1, Type 0, BuildingBlock: BEQFEK_clean_sbu_0, # of connection points: 5
#     Node 2, Type 0, BuildingBlock: BEQFEK_clean_sbu_0, # of connection points: 5
#     Node 3, Type 0, BuildingBlock: BEQFEK_clean_sbu_0, # of connection points: 5
#     Node 4, Type 0, BuildingBlock: BEQFEK_clean_sbu_0, # of connection points: 5
#     Node 5, Type 0, BuildingBlock: BEQFEK_clean_sbu_0, # of connection points: 5
#     Node 6, Type 0, BuildingBlock: BEQFEK_clean_sbu_0, # of connection points: 5
#     Node 7, Type 0, BuildingBlock: BEQFEK_clean_sbu_0, # of connection points: 5
#     Node 8, Type 0, BuildingBlock: BEQFEK_clean_sbu_0, # of connection points: 5
#     Node 9, Type 0, BuildingBlock: BEQFEK_clean_sbu_0, # of connection points: 5
#     Node 10, Type 0, BuildingBlock: BEQFEK_clean_sbu_0, # of connection points: 5
#     Node 11, Type 0, BuildingBlock: BEQFEK_clean_sbu_0, # of connection points: 5
#     Edge 12, Type (0, 0), BuildingBlock: KIFKEQ_clean_linker_1, # of connection points: 2
#     Edge 13, Type (0, 0), BuildingBlock: KIFKEQ_clean_linker_1, # of connection points: 2
#     Edge 14, Type (0, 0), BuildingBlock: KIFKEQ_clean_linker_1, # of connection points: 2
#     Edge 15, Type (0, 0), BuildingBlock: KIFKEQ_clean_linker_1, # of connection points: 2
#     Edge 16, Type (0, 0), BuildingBlock: KIFKEQ_clean_linker_1, # of connection points: 2
#     Edge 17, Type (0, 0), BuildingBlock: KIFKEQ_clean_linker_1, # of connection points: 2
#     Edge 18, Type (0, 0), BuildingBlock: KIFKEQ_clean_linker_1, # of connection points: 2
#     Edge 19, Type (0, 0), BuildingBlock: KIFKEQ_clean_linker_1, # of connection points: 2
#     Edge 20, Type (0, 0), BuildingBlock: KIFKEQ_clean_linker_1, # of connection points: 2
#     Edge 21, Type (0, 0), BuildingBlock: KIFKEQ_clean_linker_1, # of connection points: 2
#     Edge 22, Type (0, 0), BuildingBlock: KIFKEQ_clean_linker_1, # of connection points: 2
#     Edge 23, Type (0, 0), BuildingBlock: KIFKEQ_clean_linker_1, # of connection points: 2
#     Edge 24, Type (0, 0), BuildingBlock: KIFKEQ_clean_linker_1, # of connection points: 2
#     Edge 25, Type (0, 0), BuildingBlock: KIFKEQ_clean_linker_1, # of connection points: 2
#     Edge 26, Type (0, 0), BuildingBlock: KIFKEQ_clean_linker_1, # of connection points: 2
#     Edge 27, Type (0, 0), BuildingBlock: KIFKEQ_clean_linker_1, # of connection points: 2
#     Edge 28, Type (0, 0), BuildingBlock: KIFKEQ_clean_linker_1, # of connection points: 2
#     Edge 29, Type (0, 0), BuildingBlock: KIFKEQ_clean_linker_1, # of connection points: 2
#     Edge 30, Type (0, 0), BuildingBlock: KIFKEQ_clean_linker_1, # of connection points: 2
#     Edge 31, Type (0, 0), BuildingBlock: KIFKEQ_clean_linker_1, # of connection points: 2
#     Edge 32, Type (0, 0), BuildingBlock: KIFKEQ_clean_linker_1, # of connection points: 2
#     Edge 33, Type (0, 0), BuildingBlock: KIFKEQ_clean_linker_1, # of connection points: 2
#     Edge 34, Type (0, 0), BuildingBlock: KIFKEQ_clean_linker_1, # of connection points: 2
#     Edge 35, Type (0, 0), BuildingBlock: KIFKEQ_clean_linker_1, # of connection points: 2
#     Edge 36, Type (0, 0), BuildingBlock: KIFKEQ_clean_linker_1, # of connection points: 2
#     Edge 37, Type (0, 0), BuildingBlock: KIFKEQ_clean_linker_1, # of connection points: 2
#     Edge 38, Type (0, 0), BuildingBlock: KIFKEQ_clean_linker_1, # of connection points: 2
#     Edge 39, Type (0, 0), BuildingBlock: KIFKEQ_clean_linker_1, # of connection points: 2
#     Edge 40, Type (0, 0), BuildingBlock: KIFKEQ_clean_linker_1, # of connection points: 2
#     Edge 41, Type (0, 0), BuildingBlock: KIFKEQ_clean_linker_1, # of connection points: 2
# Relax obj value: 0.146
# Max RMSD: 0.116
# Mean RMSD: 0.116
data_MOF--net-wjv--node1-BEQFEK_clean_sbu_0--edge1-KIFKEQ_clean_linker_1
_symmetry_space_group_name_H-M    P1
_symmetry_Int_Tables_number       1
_symmetry_cell_setting            triclinic
loop_
_symmetry_equiv_pos_as_xyz
'x, y, z'
_cell_length_a     36.368746
_cell_length_b     36.347555
_cell_length_c     56.547457
_cell_angle_alpha  89.96726
_cell_angle_beta   90.01171
_cell_angle_gamma 119.95435
loop_
_atom_site_label
_atom_site_type_symbol
_atom_site_fract_x
_atom_site_fract_y
_atom_site_fract_z
_atom_type_partial_charge
Co0 Co 0.21954 0.31002 0.21522 0.0
Co1 Co 0.22379 0.32612 0.16 0.0
C2 C 0.14838 0.31171 0.18845 0.0
O3 O 0.16437 0.30804 0.20784 0.0
O4 O 0.16843 0.31907 0.16899 0.0
C5 C 0.23727 0.32758 0.26719 0.0
O6 O 0.24706 0.36722 0.26389 0.0
C7 C 0.21564 0.35477 0.11219 0.0
C8 C 0.25897 0.34102 0.09161 0.0
C9 C 0.23023 0.35531 0.08937 0.0
N10 N 0.23449 0.34034 0.12707 0.0
N11 N 0.2605 0.3324 0.11462 0.0
C12 C 0.18524 0.36872 0.11996 0.0
H13 H 0.19286 0.38156 0.13821 0.0
H14 H 0.1863 0.39327 0.10785 0.0
H15 H 0.15267 0.34089 0.11986 0.0
C16 C 0.30822 0.38239 0.21059 0.0
N17 N 0.2685 0.35794 0.20212 0.0
N18 N 0.26811 0.36679 0.17955 0.0
C19 C 0.30654 0.3991 0.17344 0.0
C20 C 0.33357 0.40971 0.19278 0.0
C21 C 0.32394 0.3732 0.23307 0.0
H22 H 0.30368 0.33949 0.23818 0.0
H23 H 0.32368 0.39398 0.24734 0.0
H24 H 0.35699 0.37965 0.23106 0.0
O25 O 0.21747 0.25991 0.20176 0.0
O26 O 0.22111 0.27013 0.16296 0.0
H27 H 0.32573 0.39904 0.13771 0.0
H28 H 0.34487 0.45126 0.14998 0.0
C29 C 0.31743 0.41844 0.14927 0.0
H30 H 0.28978 0.41914 0.14151 0.0
H31 H 0.2786 0.32013 0.12178 0.0
O32 O 0.225 0.30203 0.24979 0.0
C33 C 0.21882 0.24788 0.18089 0.0
Co34 Co 0.90901 0.22339 0.54621 0.0
Co35 Co 0.89881 0.22744 0.49082 0.0
C36 C 0.83685 0.15214 0.51989 0.0
O37 O 0.85583 0.16808 0.53944 0.0
O38 O 0.85024 0.17225 0.50045 0.0
C39 C 0.90845 0.23398 0.5995 0.0
O40 O 0.87045 0.22986 0.59911 0.0
C41 C 0.86005 0.21975 0.44387 0.0
C42 C 0.91679 0.25638 0.42159 0.0
C43 C 0.87303 0.23102 0.42053 0.0
N44 N 0.89455 0.23701 0.45786 0.0
N45 N 0.92831 0.25921 0.44443 0.0
C46 C 0.81573 0.19403 0.45297 0.0
H47 H 0.81372 0.20347 0.47137 0.0
H48 H 0.7932 0.19806 0.44151 0.0
H49 H 0.80676 0.16009 0.45296 0.0
C50 C 0.9224 0.31074 0.54188 0.0
N51 N 0.90931 0.27176 0.53286 0.0
N52 N 0.90344 0.2726 0.50991 0.0
C53 C 0.91112 0.31161 0.50379 0.0
C54 C 0.92401 0.33736 0.52372 0.0
C55 C 0.94041 0.32389 0.56624 0.0
H56 H 0.96136 0.31068 0.57029 0.0
H57 H 0.91406 0.311 0.57923 0.0
H58 H 0.95907 0.35886 0.56822 0.0
O59 O 0.95663 0.22036 0.53258 0.0
O60 O 0.95128 0.22382 0.4937 0.0
H61 H 0.93712 0.32973 0.46905 0.0
H62 H 0.90732 0.35452 0.47872 0.0
C63 C 0.9087 0.3247 0.479 0.0
H64 H 0.88007 0.29928 0.47013 0.0
H65 H 0.9594 0.27525 0.45079 0.0
O66 O 0.92532 0.23147 0.58033 0.0
C67 C 0.97041 0.22113 0.51188 0.0
Co68 Co 0.68046 0.90743 0.88009 0.0
Co69 Co 0.66705 0.89972 0.82459 0.0
C70 C 0.6818 0.83744 0.85306 0.0
O71 O 0.68403 0.8552 0.87295 0.0
O72 O 0.67517 0.85166 0.83386 0.0
C73 C 0.67474 0.90618 0.93397 0.0
O74 O 0.649 0.86493 0.93493 0.0
C75 C 0.63667 0.86211 0.77717 0.0
C76 C 0.65389 0.91938 0.75585 0.0
C77 C 0.63699 0.87586 0.75416 0.0
N78 N 0.65309 0.896 0.79164 0.0
N79 N 0.66307 0.93008 0.77876 0.0
C80 C 0.62019 0.81755 0.78544 0.0
H81 H 0.60945 0.81409 0.80409 0.0
H82 H 0.59358 0.79489 0.77406 0.0
H83 H 0.64607 0.80994 0.78434 0.0
C84 C 0.60394 0.91596 0.87675 0.0
N85 N 0.63155 0.90587 0.867 0.0
N86 N 0.62559 0.90226 0.84393 0.0
C87 C 0.59342 0.9091 0.83844 0.0
C88 C 0.57887 0.91831 0.85901 0.0
C89 C 0.60512 0.92835 0.90207 0.0
H90 H 0.60152 0.90205 0.91358 0.0
H91 H 0.57943 0.9354 0.90617 0.0
H92 H 0.63631 0.95676 0.90596 0.0
O93 O 0.7305 0.95625 0.86669 0.0
O94 O 0.72224 0.95292 0.8278 0.0
H95 H 0.60667 0.94305 0.80586 0.0
H96 H 0.55109 0.91401 0.81338 0.0
C97 C 0.58119 0.91321 0.81374 0.0
H98 H 0.57747 0.88614 0.80291 0.0
H99 H 0.67719 0.96086 0.78553 0.0
O100 O 0.68783 0.92432 0.91407 0.0
C101 C 0.74359 0.97135 0.84621 0.0
Co102 Co 0.76833 0.68179 0.21274 0.0
Co103 Co 0.75971 0.66759 0.15747 0.0
C104 C 0.8375 0.6818 0.18459 0.0
O105 O 0.82265 0.68223 0.20503 0.0
O106 O 0.81599 0.67678 0.16592 0.0
C107 C 0.75878 0.67073 0.26606 0.0
O108 O 0.76117 0.63585 0.26541 0.0
C109 C 0.76825 0.63724 0.11076 0.0
C110 C 0.73047 0.65583 0.08836 0.0
C111 C 0.75708 0.63879 0.08738 0.0
N112 N 0.74972 0.65329 0.12467 0.0
N113 N 0.72683 0.66394 0.11119 0.0
C114 C 0.79495 0.61977 0.12005 0.0
H115 H 0.82843 0.6457 0.12121 0.0
H116 H 0.78428 0.60665 0.13808 0.0
H117 H 0.79318 0.59458 0.10821 0.0
C118 C 0.67985 0.60862 0.20958 0.0
N119 N 0.71855 0.63402 0.2001 0.0
N120 N 0.71671 0.62668 0.1772 0.0
C121 C 0.67758 0.59528 0.17157 0.0
C122 C 0.6525 0.5832 0.19177 0.0
C123 C 0.66759 0.61434 0.23401 0.0
H124 H 0.68241 0.64864 0.23812 0.0
H125 H 0.67928 0.59956 0.24691 0.0
H126 H 0.63276 0.5997 0.23605 0.0
O127 O 0.77262 0.73341 0.19921 0.0
O128 O 0.76116 0.72238 0.16071 0.0
H129 H 0.65794 0.60165 0.13691 0.0
H130 H 0.63454 0.54743 0.14709 0.0
C131 C 0.66391 0.57895 0.14697 0.0
H132 H 0.68942 0.57611 0.13791 0.0
H133 H 0.70994 0.67816 0.11749 0.0
O134 O 0.7619 0.69065 0.24701 0.0
C135 C 0.76815 0.74552 0.17889 0.0
Co136 Co 0.08552 0.76923 0.54632 0.0
Co137 Co 0.09329 0.76414 0.49073 0.0
C138 C 0.15598 0.84041 0.51934 0.0
O139 O 0.13774 0.82483 0.53914 0.0
O140 O 0.14204 0.81988 0.50003 0.0
C141 C 0.08795 0.76923 0.6002 0.0
O142 O 0.1295 0.79262 0.60095 0.0
C143 C 0.12656 0.77433 0.44169 0.0
C144 C 0.06862 0.72782 0.42279 0.0
C145 C 0.11062 0.75856 0.41929 0.0
N146 N 0.09535 0.75347 0.45763 0.0
N147 N 0.06095 0.72561 0.44615 0.0
C148 C 0.16813 0.81257 0.44769 0.0
H149 H 0.16226 0.83857 0.45299 0.0
H150 H 0.18252 0.80524 0.46298 0.0
H151 H 0.19054 0.82377 0.43262 0.0
C152 C 0.07757 0.68467 0.54289 0.0
N153 N 0.087 0.72209 0.53302 0.0
N154 N 0.09062 0.71971 0.50996 0.0
C155 C 0.08456 0.68089 0.50461 0.0
C156 C 0.07557 0.65727 0.52526 0.0
C157 C 0.0662 0.6739 0.56837 0.0
H158 H 0.09178 0.69822 0.5796 0.0
H159 H 0.06172 0.64217 0.57283 0.0
H160 H 0.03649 0.67431 0.57225 0.0
O161 O 0.03669 0.77085 0.53332 0.0
O162 O 0.04049 0.7669 0.49441 0.0
H163 H 0.05017 0.65603 0.47249 0.0
H164 H 0.085 0.63593 0.47977 0.0
C165 C 0.08162 0.66461 0.47999 0.0
H166 H 0.10673 0.68949 0.46878 0.0
H167 H 0.03163 0.70631 0.4542 0.0
O168 O 0.06909 0.75885 0.58035 0.0
C169 C 0.02189 0.76948 0.51284 0.0
Co170 Co 0.31788 0.09024 0.88106 0.0
Co171 Co 0.32638 0.0962 0.82525 0.0
C172 C 0.3158 0.16026 0.85383 0.0
O173 O 0.31429 0.14248 0.87361 0.0
O174 O 0.32106 0.1457 0.83442 0.0
C175 C 0.28337 0.06709 0.92736 0.0
O176 O 0.25115 0.06725 0.91694 0.0
C177 C 0.35258 0.13118 0.77712 0.0
C178 C 0.33042 0.07281 0.756 0.0
C179 C 0.34881 0.1165 0.75402 0.0
N180 N 0.33656 0.09771 0.7919 0.0
N181 N 0.32371 0.06295 0.77914 0.0
C182 C 0.37209 0.17618 0.78524 0.0
H183 H 0.38532 0.17953 0.80331 0.0
H184 H 0.39751 0.1978 0.77291 0.0
H185 H 0.34723 0.18529 0.78574 0.0
C186 C 0.39168 0.07801 0.87516 0.0
N187 N 0.36463 0.08973 0.86635 0.0
N188 N 0.36876 0.09301 0.84319 0.0
C189 C 0.3993 0.08448 0.83659 0.0
C190 C 0.41451 0.07405 0.85655 0.0
C191 C 0.38954 0.06332 0.90014 0.0
H192 H 0.35683 0.0373 0.90391 0.0
H193 H 0.39656 0.08991 0.91237 0.0
H194 H 0.41191 0.05164 0.90359 0.0
O195 O 0.26573 0.04073 0.86982 0.0
O196 O 0.27074 0.04444 0.83069 0.0
H197 H 0.38658 0.05387 0.80293 0.0
H198 H 0.44227 0.08394 0.81037 0.0
C199 C 0.41149 0.08331 0.81145 0.0
H200 H 0.41402 0.11094 0.80169 0.0
H201 H 0.30924 0.03233 0.78619 0.0
O202 O 0.31756 0.07957 0.91576 0.0
C203 C 0.25071 0.02613 0.8495 0.0
Co204 Co 0.68064 0.76906 0.46906 0.0
Co205 Co 0.66899 0.76278 0.52469 0.0
C206 C 0.68228 0.83986 0.49669 0.0
O207 O 0.68407 0.8247 0.47658 0.0
O208 O 0.67631 0.81876 0.51573 0.0
C209 C 0.67593 0.76702 0.41508 0.0
O210 O 0.65404 0.78683 0.41426 0.0
C211 C 0.63793 0.76846 0.57215 0.0
C212 C 0.65874 0.73134 0.59355 0.0
C213 C 0.63949 0.75589 0.5952 0.0
N214 N 0.6559 0.75251 0.5577 0.0
N215 N 0.66802 0.73015 0.57063 0.0
C216 C 0.61868 0.79408 0.5638 0.0
H217 H 0.60846 0.78645 0.54509 0.0
H218 H 0.5912 0.78803 0.57505 0.0
H219 H 0.64275 0.82822 0.56502 0.0
C220 C 0.60391 0.68429 0.47262 0.0
N221 N 0.63218 0.7216 0.48244 0.0
N222 N 0.62736 0.71867 0.50558 0.0
C223 C 0.59564 0.67948 0.51116 0.0
C224 C 0.57995 0.65623 0.49045 0.0
C225 C 0.60258 0.6745 0.44684 0.0
H226 H 0.63184 0.67394 0.44194 0.0
H227 H 0.60158 0.69982 0.43642 0.0
H228 H 0.57444 0.64345 0.44238 0.0
O229 O 0.73149 0.77074 0.48184 0.0
O230 O 0.72427 0.76544 0.52079 0.0
H231 H 0.61282 0.66123 0.54334 0.0
H232 H 0.55702 0.63067 0.5367 0.0
C233 C 0.58541 0.66279 0.53591 0.0
H234 H 0.57991 0.68475 0.54698 0.0
H235 H 0.68362 0.7149 0.56387 0.0
O236 O 0.68682 0.75912 0.43495 0.0
C237 C 0.74526 0.7688 0.50215 0.0
Co238 Co 0.91276 0.68677 0.8029 0.0
Co239 Co 0.90392 0.67211 0.8583 0.0
C240 C 0.84021 0.68385 0.83029 0.0
O241 O 0.85911 0.68754 0.81061 0.0
O242 O 0.85419 0.67735 0.84958 0.0
C243 C 0.91068 0.6737 0.74983 0.0
O244 O 0.87454 0.63773 0.75109 0.0
C245 C 0.87126 0.6468 0.9072 0.0
C246 C 0.92961 0.65847 0.92577 0.0
C247 C 0.88736 0.64613 0.92942 0.0
N248 N 0.90258 0.65861 0.8912 0.0
N249 N 0.93726 0.66532 0.90245 0.0
C250 C 0.82924 0.64275 0.90154 0.0
H251 H 0.83443 0.67454 0.89661 0.0
H252 H 0.81505 0.62141 0.88609 0.0
H253 H 0.80693 0.63076 0.91664 0.0
C254 C 0.92781 0.61361 0.80661 0.0
N255 N 0.91463 0.63928 0.81588 0.0
N256 N 0.90832 0.6318 0.83876 0.0
C257 C 0.91518 0.59974 0.84447 0.0
C258 C 0.92853 0.58761 0.82444 0.0
C259 C 0.94656 0.61926 0.78239 0.0
H260 H 0.96508 0.65349 0.77794 0.0
H261 H 0.92057 0.60316 0.76933 0.0
H262 H 0.96781 0.60566 0.78104 0.0
O263 O 0.9603 0.73785 0.81606 0.0
O264 O 0.95574 0.72872 0.8549 0.0
H265 H 0.93953 0.60155 0.87912 0.0
H266 H 0.90486 0.54885 0.86811 0.0
C267 C 0.91023 0.5817 0.86882 0.0
H268 H 0.88308 0.58138 0.87794 0.0
H269 H 0.96662 0.6761 0.89429 0.0
O270 O 0.92728 0.69496 0.76854 0.0
C271 C 0.97435 0.75082 0.83672 0.0
Co272 Co 0.21937 0.90706 0.13394 0.0
Co273 Co 0.23022 0.90456 0.18937 0.0
C274 C 0.15095 0.84015 0.16365 0.0
O275 O 0.16481 0.85469 0.14296 0.0
O276 O 0.17339 0.8571 0.18198 0.0
C277 C 0.22365 0.9019 0.08017 0.0
O278 O 0.21835 0.86342 0.08064 0.0
C279 C 0.22326 0.86786 0.23666 0.0
C280 C 0.26205 0.92516 0.25816 0.0
C281 C 0.23525 0.88162 0.25984 0.0
N282 N 0.24152 0.90176 0.2222 0.0
N283 N 0.26499 0.93584 0.23516 0.0
C284 C 0.19582 0.82336 0.22806 0.0
H285 H 0.20585 0.81986 0.21006 0.0
H286 H 0.19758 0.80031 0.24023 0.0
H287 H 0.16245 0.81626 0.22706 0.0
C288 C 0.30556 0.91694 0.13582 0.0
N289 N 0.26842 0.90736 0.14616 0.0
N290 N 0.27227 0.90513 0.16923 0.0
C291 C 0.31152 0.91223 0.17413 0.0
C292 C 0.3339 0.92001 0.15316 0.0
C293 C 0.31561 0.92861 0.11031 0.0
H294 H 0.30751 0.95333 0.10557 0.0
H295 H 0.29611 0.90017 0.09931 0.0
H296 H 0.3496 0.94045 0.10636 0.0
O297 O 0.2183 0.9568 0.14667 0.0
O298 O 0.22836 0.95745 0.18536 0.0
H299 H 0.33332 0.94777 0.20615 0.0
H300 H 0.36057 0.91936 0.19849 0.0
C301 C 0.32933 0.91785 0.19857 0.0
H302 H 0.30695 0.8911 0.20992 0.0
H303 H 0.28175 0.96664 0.2284 0.0
O304 O 0.22418 0.92029 0.09939 0.0
C305 C 0.22269 0.97383 0.16684 0.0
Co306 Co 0.31188 0.22186 0.46662 0.0
Co307 Co 0.32277 0.22856 0.52241 0.0
C308 C 0.31164 0.15215 0.49513 0.0
O309 O 0.31007 0.16713 0.47491 0.0
O310 O 0.31663 0.17311 0.51406 0.0
C311 C 0.32585 0.23188 0.41327 0.0
O312 O 0.36105 0.23017 0.41429 0.0
C313 C 0.35055 0.22517 0.57183 0.0
C314 C 0.32305 0.25926 0.59038 0.0
C315 C 0.34397 0.23674 0.59427 0.0
N316 N 0.3337 0.23981 0.55564 0.0
N317 N 0.31798 0.26069 0.56694 0.0
C318 C 0.36967 0.19818 0.56598 0.0
H319 H 0.36642 0.19026 0.54696 0.0
H320 H 0.40404 0.2159 0.57012 0.0
H321 H 0.35462 0.16872 0.57677 0.0
C322 C 0.38581 0.30948 0.47087 0.0
N323 N 0.35899 0.27105 0.4802 0.0
N324 N 0.36408 0.27314 0.50335 0.0
C325 C 0.39492 0.3125 0.50932 0.0
C326 C 0.4095 0.33692 0.48896 0.0
C327 C 0.38585 0.32094 0.44544 0.0
H328 H 0.35312 0.31167 0.43985 0.0
H329 H 0.3972 0.30332 0.43454 0.0
H330 H 0.4071 0.35535 0.44219 0.0
O331 O 0.25985 0.21857 0.47858 0.0
O332 O 0.26691 0.22417 0.51753 0.0
H333 H 0.37857 0.33032 0.5419 0.0
H334 H 0.43441 0.35987 0.5352 0.0
C335 C 0.40547 0.32812 0.53424 0.0
H336 H 0.41032 0.30532 0.54494 0.0
H337 H 0.30209 0.27442 0.55867 0.0
O338 O 0.30526 0.22855 0.43207 0.0
C339 C 0.24577 0.22013 0.49885 0.0
Co340 Co 0.08475 0.3115 0.80238 0.0
Co341 Co 0.0904 0.32382 0.85799 0.0
C342 C 0.15426 0.31064 0.83017 0.0
O343 O 0.13707 0.30844 0.81007 0.0
O344 O 0.13921 0.31667 0.84921 0.0
C345 C 0.08775 0.31673 0.74841 0.0
O346 O 0.12935 0.33953 0.74769 0.0
C347 C 0.12602 0.35368 0.90588 0.0
C348 C 0.06768 0.33451 0.92653 0.0
C349 C 0.11123 0.35232 0.92876 0.0
N350 N 0.09269 0.33694 0.89101 0.0
N351 N 0.05797 0.32581 0.9035 0.0
C352 C 0.17099 0.37157 0.89807 0.0
H353 H 0.17963 0.3464 0.89928 0.0
H354 H 0.1747 0.38246 0.87943 0.0
H355 H 0.19271 0.39838 0.90962 0.0
C356 C 0.07658 0.38824 0.80559 0.0
N357 N 0.0856 0.36 0.81554 0.0
N358 N 0.08809 0.3654 0.83865 0.0
C359 C 0.08139 0.39771 0.84402 0.0
C360 C 0.07355 0.41302 0.82326 0.0
C361 C 0.06687 0.38865 0.77992 0.0
H362 H 0.09337 0.39073 0.7692 0.0
H363 H 0.06234 0.41587 0.77548 0.0
H364 H 0.03766 0.35856 0.77535 0.0
O365 O 0.03569 0.26081 0.81518 0.0
O366 O 0.03778 0.26842 0.85409 0.0
H367 H 0.04667 0.38338 0.87636 0.0
H368 H 0.07484 0.43912 0.86913 0.0
C369 C 0.07637 0.40942 0.86869 0.0
H370 H 0.10338 0.41349 0.87971 0.0
H371 H 0.02744 0.31124 0.89635 0.0
O372 O 0.0689 0.30519 0.76823 0.0
C373 C 0.02006 0.24727 0.83551 0.0
Co374 Co 0.76831 0.08653 0.13524 0.0
Co375 Co 0.75903 0.0904 0.19075 0.0
C376 C 0.83701 0.15525 0.16399 0.0
O377 O 0.82263 0.13947 0.14357 0.0
O378 O 0.81536 0.13885 0.18268 0.0
C379 C 0.76247 0.08939 0.0814 0.0
O380 O 0.77059 0.12889 0.08113 0.0
C381 C 0.76137 0.12235 0.23977 0.0
C382 C 0.72489 0.0611 0.25842 0.0
C383 C 0.74842 0.10451 0.26218 0.0
N384 N 0.74653 0.09072 0.22371 0.0
N385 N 0.72418 0.05435 0.23504 0.0
C386 C 0.78993 0.16821 0.23391 0.0
H387 H 0.79788 0.17261 0.21489 0.0
H388 H 0.77355 0.18622 0.23808 0.0
H389 H 0.8193 0.18141 0.24471 0.0
C390 C 0.68107 0.07394 0.13795 0.0
N391 N 0.71894 0.08515 0.14793 0.0
N392 N 0.71586 0.08807 0.171 0.0
C393 C 0.67634 0.07967 0.17632 0.0
C394 C 0.65274 0.06989 0.15565 0.0
C395 C 0.67051 0.06039 0.1127 0.0
H396 H 0.67988 0.03639 0.10851 0.0
H397 H 0.68881 0.08828 0.10107 0.0
H398 H 0.63622 0.04665 0.1089 0.0
O399 O 0.77187 0.03837 0.14801 0.0
O400 O 0.76173 0.03789 0.18661 0.0
H401 H 0.65537 0.04789 0.20954 0.0
H402 H 0.63 0.07774 0.201 0.0
C403 C 0.66041 0.07751 0.20097 0.0
H404 H 0.68425 0.10495 0.21136 0.0
H405 H 0.70995 0.02465 0.22686 0.0
O406 O 0.76147 0.07168 0.10096 0.0
C407 C 0.76799 0.02169 0.16823 0.0
H408 H 0.24585 0.21253 0.401 0.0
H409 H 0.37512 0.27753 0.37565 0.0
H410 H 0.2235 0.23584 0.36603 0.0
H411 H 0.35271 0.30163 0.34079 0.0
H412 H 0.29775 0.37659 0.29976 0.0
H413 H 0.31965 0.35217 0.33466 0.0
H414 H 0.22215 0.22325 0.32015 0.0
H415 H 0.20082 0.24738 0.28506 0.0
C416 C 0.26944 0.23157 0.38786 0.0
C417 C 0.31221 0.24301 0.391 0.0
C418 C 0.25662 0.24489 0.36787 0.0
C419 C 0.28641 0.27074 0.35081 0.0
C420 C 0.32917 0.28199 0.3538 0.0
C421 C 0.34189 0.26786 0.37359 0.0
C422 C 0.28066 0.34313 0.30422 0.0
C423 C 0.24741 0.31391 0.28976 0.0
C424 C 0.2935 0.32914 0.324 0.0
C425 C 0.27273 0.28581 0.32998 0.0
C426 C 0.23865 0.25682 0.31596 0.0
C427 C 0.22644 0.27065 0.29592 0.0
H428 H 0.98612 0.24101 0.60599 0.0
H429 H 0.88861 0.25261 0.64315 0.0
H430 H 0.02915 0.26121 0.64163 0.0
H431 H 0.93233 0.27396 0.67882 0.0
H432 H 0.00176 0.2668 0.74453 0.0
H433 H 0.95859 0.24677 0.70897 0.0
H434 H 0.07115 0.32075 0.66684 0.0
H435 H 0.11471 0.33997 0.70255 0.0
C436 C 0.97382 0.24795 0.62177 0.0
C437 C 0.93374 0.24505 0.62167 0.0
C438 C -0.00123 0.25993 0.64221 0.0
C439 C 0.98446 0.26949 0.66315 0.0
C440 C 0.94424 0.26636 0.66311 0.0
C441 C 0.91915 0.25423 0.64263 0.0
C442 C 0.01746 0.27885 0.7277 0.0
C443 C 0.06186 0.30497 0.72644 0.0
C444 C 0.99253 0.26756 0.70727 0.0
C445 C 0.01122 0.28215 0.68496 0.0
C446 C 0.05566 0.30842 0.68367 0.0
C447 C 0.08068 0.31964 0.70417 0.0
H448 H 0.64775 0.88157 0.97969 0.0
H449 H 0.73099 0.99114 0.9375 0.0
H450 H 0.66845 0.92626 0.01498 0.0
H451 H 0.75243 0.03535 0.97268 0.0
H452 H 0.74996 0.11109 0.03671 0.0
H453 H 0.72772 0.06657 1.00133 0.0
H454 H 0.7274 0.96483 0.04107 0.0
H455 H 0.74847 0.00871 0.07637 0.0
C456 C 0.67063 0.91507 0.97795 0.0
C457 C 0.68765 0.93265 0.95573 0.0
C458 C 0.68269 0.94073 0.9982 0.0
C459 C 0.71216 0.98455 0.99674 0.0
C460 C 0.72918 0.00197 0.97449 0.0
C461 C 0.71706 0.97643 0.95429 0.0
C462 C 0.74528 0.07929 0.03785 0.0
C463 C 0.75101 0.06358 0.05942 0.0
C464 C 0.73263 0.05374 0.01755 0.0
C465 C 0.72555 0.01191 0.01831 0.0
C466 C 0.73175 0.9965 0.03985 0.0
C467 C 0.74422 0.02191 0.0601 0.0
H468 H 0.75359 0.74238 0.27293 0.0
H469 H 0.73942 0.63169 0.30959 0.0
H470 H 0.73345 0.76515 0.30862 0.0
H471 H 0.7182 0.65407 0.34531 0.0
H472 H 0.72492 0.72981 0.41135 0.0
H473 H 0.7453 0.70689 0.37582 0.0
H474 H 0.67338 0.74778 0.33343 0.0
H475 H 0.65381 0.77187 0.36912 0.0
C476 C 0.74615 0.72281 0.28862 0.0
C477 C 0.74824 0.68515 0.28835 0.0
C478 C 0.7342 0.73575 0.30908 0.0
C479 C 0.72388 0.7114 0.32988 0.0
C480 C 0.72634 0.67391 0.3297 0.0
C481 C 0.73842 0.66097 0.30919 0.0
C482 C 0.71338 0.73398 0.39447 0.0
C483 C 0.68775 0.75286 0.39314 0.0
C484 C 0.72488 0.7205 0.37405 0.0
C485 C 0.711 0.72534 0.35168 0.0
C486 C 0.68519 0.74406 0.35032 0.0
C487 C 0.67375 0.75771 0.3708 0.0
H488 H 0.11561 0.78076 0.64632 0.0
H489 H 0.00156 0.72448 0.6039 0.0
H490 H 0.07236 0.75676 0.68215 0.0
H491 H 0.95856 0.70168 0.63953 0.0
H492 H 0.89378 0.63071 0.70763 0.0
H493 H 0.93702 0.6527 0.67178 0.0
H494 H 0.02585 0.77101 0.70538 0.0
H495 H 0.98339 0.74864 0.74124 0.0
C496 C 0.08138 0.76344 0.64462 0.0
C497 C 0.06218 0.75466 0.6222 0.0
C498 C 0.0565 0.74986 0.66517 0.0
C499 C 0.01183 0.72729 0.6638 0.0
C500 C 0.99277 0.71838 0.64134 0.0
C501 C 0.01756 0.73178 0.62085 0.0
C502 C 0.9224 0.66149 0.7073 0.0
C503 C 0.93503 0.68783 0.72735 0.0
C504 C 0.94721 0.6742 0.68672 0.0
C505 C 0.98518 0.71362 0.68566 0.0
C506 C -0.00265 0.74013 0.70563 0.0
C507 C 0.97269 0.72739 0.72618 0.0
H508 H 0.21968 0.04763 0.95908 0.0
H509 H 0.33286 0.03914 0.94856 0.0
H510 H 0.2055 0.00759 0.99584 0.0
H511 H 0.31843 -0.00121 0.98538 0.0
H512 H 0.24582 0.88396 0.03698 0.0
H513 H 0.26226 0.92586 1.00054 0.0
H514 H 0.23722 0.01603 0.03622 0.0
H515 H 0.22097 0.97456 0.07247 0.0
C516 C 0.24178 0.03758 0.96472 0.0
C517 C 0.27745 0.04669 0.95088 0.0
C518 C 0.23365 0.01465 0.9858 0.0
C519 C 0.2607 -0.00021 0.99344 0.0
C520 C 0.29675 0.0094 0.97981 0.0
C521 C 0.30522 0.03288 0.95884 0.0
C522 C 0.24363 0.9126 0.03699 0.0
C523 C 0.23196 0.92579 0.05763 0.0
C524 C 0.25339 0.93677 0.01619 0.0
C525 C 0.25109 0.97429 0.01553 0.0
C526 C 0.23899 0.98715 0.0361 0.0
C527 C 0.22978 0.96337 0.0569 0.0
H528 H 0.17764 0.34031 0.94107 0.0
H529 H 0.09485 0.38324 0.9687 0.0
H530 H 0.20931 0.34842 0.97987 0.0
H531 H 0.12654 0.39124 0.00781 0.0
H532 H 0.27736 0.39088 0.04983 0.0
H533 H 0.25252 0.39761 0.01078 0.0
H534 H 0.12481 0.34264 0.03797 0.0
H535 H 0.14954 0.33582 0.07674 0.0
C536 C 0.16719 0.35296 0.95518 0.0
C537 C 0.13427 0.36199 0.95161 0.0
C538 C 0.18522 0.35734 0.97758 0.0
C539 C 0.17053 0.37053 0.997 0.0
C540 C 0.13832 0.38059 0.99329 0.0
C541 C 0.12031 0.37622 0.97087 0.0
C542 C 0.24409 0.38087 0.0475 0.0
C543 C 0.21564 0.36367 0.06655 0.0
C544 C 0.22982 0.38454 0.02512 0.0
C545 C 0.18667 0.37077 0.02123 0.0
C546 C 0.1584 0.35445 0.04044 0.0
C547 C 0.17268 0.35077 0.06279 0.0
H548 H 0.76631 0.07123 0.30027 0.0
H549 H 0.76185 0.18254 0.27783 0.0
H550 H 0.79204 0.10311 0.33879 0.0
H551 H 0.7881 0.21482 0.31656 0.0
H552 H 0.88716 0.27279 0.3786 0.0
H553 H 0.85352 0.2435 0.34049 0.0
H554 H 0.77004 0.12344 0.3742 0.0
H555 H 0.80485 0.15182 0.41172 0.0
C556 C 0.77058 0.10248 0.30358 0.0
C557 C 0.76278 0.12462 0.28574 0.0
C558 C 0.78519 0.12072 0.32576 0.0
C559 C 0.7921 0.16153 0.3308 0.0
C560 C 0.7837 0.18356 0.3131 0.0
C561 C 0.76898 0.16519 0.29081 0.0
C562 C 0.86117 0.24033 0.37788 0.0
C563 C 0.84825 0.21498 0.39835 0.0
C564 C 0.84174 0.22363 0.35608 0.0
C565 C 0.8092 0.18106 0.35428 0.0
C566 C 0.79528 0.15624 0.37492 0.0
C567 C 0.81475 0.17288 0.39664 0.0
H568 H 0.60209 0.88769 0.71442 0.0
H569 H 0.65334 0.81217 0.74247 0.0
H570 H 0.59425 0.8547 0.67571 0.0
H571 H 0.64577 0.77946 0.70406 0.0
H572 H 0.60737 0.70903 0.63518 0.0
H573 H 0.59841 0.73332 0.6739 0.0
H574 H 0.6421 0.85854 0.64506 0.0
H575 H 0.65077 0.83424 0.60662 0.0
C576 C 0.611 0.86353 0.71241 0.0
C577 C 0.62751 0.85195 0.73166 0.0
C578 C 0.60673 0.84479 0.69023 0.0
C579 C 0.61933 0.81436 0.68673 0.0
C580 C 0.63483 0.80204 0.70618 0.0
C581 C 0.63897 0.82069 0.72835 0.0
C582 C 0.61429 0.74154 0.63708 0.0
C583 C 0.62898 0.76944 0.6177 0.0
C584 C 0.60939 0.75552 0.65927 0.0
C585 C 0.61954 0.79791 0.66264 0.0
C586 C 0.63309 0.82546 0.64305 0.0
C587 C 0.63785 0.81142 0.62086 0.0
H588 H 0.80943 0.58244 0.94412 0.0
H589 H 0.92083 0.69642 0.96777 0.0
H590 H 0.77664 0.57492 0.98299 0.0
H591 H 0.88837 0.68935 1.00638 0.0
H592 H 0.83724 0.65178 0.079 0.0
H593 H 0.86705 0.64719 0.04154 0.0
H594 H 0.74738 0.6097 1.00711 0.0
H595 H 0.71671 0.61199 0.04509 0.0
C596 C 0.82661 0.60613 0.95756 0.0
C597 C 0.86722 0.64051 0.95285 0.0
C598 C 0.80798 0.60176 0.97982 0.0
C599 C 0.82983 0.63154 0.99783 0.0
C600 C 0.87085 0.66542 0.99311 0.0
C601 C 0.88939 0.66968 0.97094 0.0
C602 C 0.81662 0.64082 0.06375 0.0
C603 C 0.77419 0.63129 0.06523 0.0
C604 C 0.83407 0.63908 0.04206 0.0
C605 C 0.80975 0.62841 0.02124 0.0
C606 C 0.76692 0.61759 0.02281 0.0
C607 C 0.74941 0.61915 0.04456 0.0
H608 H 0.07584 0.77609 0.38177 0.0
H609 H 0.1891 0.77546 0.40378 0.0
H610 H 0.10702 0.80253 0.34301 0.0
H611 H 0.22059 0.80174 0.36473 0.0
H612 H 0.27723 0.8969 0.30173 0.0
H613 H 0.24824 0.86511 0.34021 0.0
H614 H 0.12717 0.78188 0.30748 0.0
H615 H 0.15532 0.81513 0.26954 0.0
C616 C 0.10745 0.78153 0.37823 0.0
C617 C 0.13042 0.77459 0.39589 0.0
C618 C 0.12527 0.79642 0.35596 0.0
C619 C 0.16635 0.80423 0.35068 0.0
C620 C 0.18915 0.7967 0.36831 0.0
C621 C 0.17126 0.78185 0.39069 0.0
C622 C 0.24456 0.87142 0.30275 0.0
C623 C 0.21894 0.85805 0.2824 0.0
C624 C 0.22801 0.85302 0.32478 0.0
C625 C 0.1853 0.82099 0.32699 0.0
C626 C 0.16008 0.80678 0.3065 0.0
C627 C 0.17657 0.82529 0.28453 0.0
H628 H 0.33692 0.18391 0.74435 0.0
H629 H 0.37434 0.09999 0.71204 0.0
H630 H 0.34197 0.21704 0.70634 0.0
H631 H 0.37754 0.13207 0.67351 0.0
H632 H 0.40856 0.22334 0.61025 0.0
H633 H 0.41453 0.19747 0.64911 0.0
H634 H 0.29889 0.19361 0.671 0.0
H635 H 0.29264 0.2188 0.63231 0.0
C636 C 0.34745 0.17328 0.72931 0.0
C637 C 0.35619 0.13988 0.7314 0.0
C638 C 0.34953 0.19179 0.70735 0.0
C639 C 0.3599 0.17705 0.68684 0.0
C640 C 0.36987 0.14448 0.68899 0.0
C641 C 0.3678 0.12594 0.71102 0.0
C642 C 0.38401 0.21625 0.62315 0.0
C643 C 0.34963 0.22236 0.61791 0.0
C644 C 0.38765 0.20175 0.64553 0.0
C645 C 0.35724 0.19354 0.66319 0.0
C646 C 0.32329 0.20028 0.65798 0.0
C647 C 0.31964 0.21461 0.63571 0.0
H648 H 0.60303 0.52162 0.22373 0.0
H649 H 0.59623 0.58885 0.16242 0.0
H650 H 0.525 0.48062 0.22521 0.0
H651 H 0.51893 0.54645 0.16316 0.0
H652 H 0.38962 0.4141 0.15916 0.0
H653 H 0.46679 0.45739 0.15971 0.0
H654 H 0.46143 0.50577 0.22847 0.0
H655 H 0.38354 0.46431 0.22735 0.0
C656 C 0.58488 0.52744 0.21057 0.0
C657 C 0.60559 0.55782 0.19273 0.0
C658 C 0.54049 0.50414 0.21143 0.0
C659 C 0.51638 0.51045 0.1942 0.0
C660 C 0.53704 0.54087 0.17647 0.0
C661 C 0.58121 0.56472 0.17592 0.0
C662 C 0.40465 0.43485 0.17409 0.0
C663 C 0.38045 0.43657 0.19298 0.0
C664 C 0.44882 0.45912 0.17453 0.0
C665 C 0.4697 0.48467 0.19413 0.0
C666 C 0.4458 0.48601 0.21323 0.0
C667 C 0.40144 0.46242 0.21256 0.0
H668 H 0.90944 0.38706 0.55403 0.0
H669 H 0.9876 0.39318 0.49511 0.0
H670 H 0.94757 0.46464 0.55618 0.0
H671 H 0.0239 0.47032 0.49613 0.0
H672 H 0.11006 0.60701 0.51739 0.0
H673 H 0.07365 0.52933 0.51826 0.0
H674 H 0.95626 0.52578 0.53619 0.0
H675 H 0.99343 0.60328 0.53619 0.0
C676 C 0.93447 0.40513 0.54139 0.0
C677 C 0.94533 0.38428 0.52429 0.0
C678 C 0.95614 0.44951 0.54247 0.0
C679 C 0.98892 0.47389 0.52632 0.0
C680 C -0.00063 0.45273 0.5091 0.0
C681 C 0.97803 0.40847 0.50821 0.0
C682 C 0.07658 0.58932 0.52172 0.0
C683 C 0.05441 0.61064 0.52682 0.0
C684 C 0.05558 0.54495 0.52204 0.0
C685 C 0.01185 0.52114 0.52718 0.0
C686 C 0.98998 0.54291 0.53254 0.0
C687 C 0.01113 0.58723 0.53244 0.0
H688 H 0.40142 0.00561 0.83065 0.0
H689 H 0.48338 0.09275 0.884 0.0
H690 H 0.4415 0.96847 0.83169 0.0
H691 H 0.52213 0.05393 0.88636 0.0
H692 H 0.60964 0.00212 0.86612 0.0
H693 H 0.57048 0.04052 0.86564 0.0
H694 H 0.45355 0.92191 0.85496 0.0
H695 H 0.4936 0.88421 0.85438 0.0
C696 C 0.42823 0.01688 0.84255 0.0
C697 C 0.43966 0.05225 0.85709 0.0
C698 C 0.45078 0.99514 0.84348 0.0
C699 C 0.48496 0.0079 0.85923 0.0
C700 C 0.49635 0.04345 0.87379 0.0
C701 C 0.47404 0.06552 0.87263 0.0
C702 C 0.5755 0.9845 0.86382 0.0
C703 C 0.55434 0.94045 0.86035 0.0
C704 C 0.553 0.00634 0.86366 0.0
C705 C 0.50876 0.98442 0.86023 0.0
C706 C 0.48764 0.93999 0.85722 0.0
C707 C 0.51033 0.91826 0.8571 0.0
H708 H 0.49279 0.38739 0.50009 0.0
H709 H 0.38228 0.39105 0.47585 0.0
H710 H 0.53378 0.46521 0.49969 0.0
H711 H 0.42309 0.46872 0.47501 0.0
H712 H 0.49792 0.60583 0.50436 0.0
H713 H 0.45639 0.52805 0.5034 0.0
H714 H 0.56244 0.52461 0.47127 0.0
H715 H 0.60389 0.60213 0.47272 0.0
C716 C 0.47754 0.40504 0.4945 0.0
C717 C 0.43474 0.38366 0.48783 0.0
C718 C 0.50089 0.44941 0.49416 0.0
C719 C 0.48165 0.47309 0.48727 0.0
C720 C 0.43869 0.45142 0.48059 0.0
C721 C 0.41546 0.40709 0.48086 0.0
C722 C 0.51203 0.58822 0.49701 0.0
C723 C 0.55382 0.60961 0.48854 0.0
C724 C 0.48834 0.54386 0.49634 0.0
C725 C 0.50621 0.52021 0.4873 0.0
C726 C 0.54797 0.54189 0.47858 0.0
C727 C 0.57152 0.58618 0.47918 0.0
H728 H 0.91523 0.52573 0.79257 0.0
H729 H 0.98918 0.5913 0.85406 0.0
H730 H 0.95199 0.48489 0.79031 0.0
H731 H 0.02386 0.54899 0.8529 0.0
H732 H 0.10911 0.49726 0.8327 0.0
H733 H 0.07453 0.54024 0.83145 0.0
H734 H 0.95745 0.42973 0.80955 0.0
H735 H 0.99293 0.38772 0.80994 0.0
C736 C 0.93901 0.53098 0.80574 0.0
C737 C 0.94902 0.56123 0.82364 0.0
C738 C 0.95987 0.50746 0.80458 0.0
C739 C 0.99099 0.51361 0.82142 0.0
C740 C 0.00063 0.5438 0.8394 0.0
C741 C 0.98013 0.56752 0.84037 0.0
C742 C 0.07613 0.48259 0.8274 0.0
C743 C 0.05355 0.43953 0.82134 0.0
C744 C 0.05616 0.50693 0.82686 0.0
C745 C 0.01302 0.48841 0.82055 0.0
C746 C 0.99078 0.44525 0.81415 0.0
C747 C 0.01094 0.42111 0.81446 0.0
H748 H 0.60453 0.09138 0.12827 0.0
H749 H 0.59616 -0.00149 0.17875 0.0
H750 H 0.52691 0.05395 0.12529 0.0
H751 H 0.51901 0.96203 0.17662 0.0
H752 H 0.38301 0.88321 0.15243 0.0
H753 H 0.46068 0.91914 0.15091 0.0
H754 H 0.46597 0.04065 0.14872 0.0
H755 H 0.3884 0.00425 0.14945 0.0
C756 C 0.58593 0.06306 0.13878 0.0
C757 C 0.60601 0.04796 0.15389 0.0
C758 C 0.54162 0.04176 0.13721 0.0
C759 C 0.5167 0.00495 0.15073 0.0
C760 C 0.53713 0.98988 0.16572 0.0
C761 C 0.58129 0.01109 0.16721 0.0
C762 C 0.40107 0.91754 0.15136 0.0
C763 C 0.38033 0.94121 0.15096 0.0
C764 C 0.44538 0.93817 0.15066 0.0
C765 C 0.46959 0.98283 0.14979 0.0
C766 C 0.44838 0.00627 0.14902 0.0
C767 C 0.40412 0.98559 0.14957 0.0
H768 H 0.08512 0.26686 0.22059 0.0
H769 H 0.10994 0.33318 0.15396 0.0
H770 H 0.00919 0.2376 0.2146 0.0
H771 H 0.0341 0.30429 0.14803 0.0
H772 H 0.90101 0.1869 0.13101 0.0
H773 H 0.97652 0.23382 0.1383 0.0
H774 H 0.94951 0.24924 0.21084 0.0
H775 H 0.87432 0.20183 0.20373 0.0
C776 C 0.07448 0.27615 0.20498 0.0
C777 C 0.10358 0.30176 0.18756 0.0
C778 C 0.03088 0.25937 0.20151 0.0
C779 C 0.01546 0.26804 0.18061 0.0
C780 C 0.04481 0.29617 0.16405 0.0
C781 C 0.08833 0.31285 0.16749 0.0
C782 C 0.91105 0.20103 0.14836 0.0
C783 C 0.88154 0.1901 0.16682 0.0
C784 C 0.95441 0.22806 0.15256 0.0
C785 C 0.96917 0.24488 0.17528 0.0
C786 C 0.93934 0.23617 0.19328 0.0
C787 C 0.89612 0.20913 0.18912 0.0
H788 H 0.71871 0.90358 0.46359 0.0
H789 H 0.6695 0.87808 0.53485 0.0
H790 H 0.74746 0.97943 0.47025 0.0
H791 H 0.69783 0.95356 0.54144 0.0
H792 H 0.81627 0.08899 0.55258 0.0
H793 H 0.77001 0.01291 0.54653 0.0
H794 H 0.73311 0.03735 0.47831 0.0
H795 H 0.77932 0.11324 0.48438 0.0
C796 C 0.71308 0.91396 0.48047 0.0
C797 C 0.69231 0.88468 0.4988 0.0
C798 C 0.72954 0.9575 0.48431 0.0
C799 C 0.72548 0.97263 0.50654 0.0
C800 C 0.70229 0.94308 0.5243 0.0
C801 C 0.68588 0.8997 0.52046 0.0
C802 C 0.79748 0.07823 0.53657 0.0
C803 C 0.80213 0.10724 0.51878 0.0
C804 C 0.77092 0.03455 0.53306 0.0
C805 C 0.74838 0.01898 0.51172 0.0
C806 C 0.75076 0.04821 0.49469 0.0
C807 C 0.7772 0.09177 0.49822 0.0
H808 H 0.66701 0.78385 0.81593 0.0
H809 H 0.72074 0.813 0.88614 0.0
H810 H 0.6962 0.73729 0.80964 0.0
H811 H 0.75012 0.76633 0.87983 0.0
H812 H 0.81689 0.72401 0.7975 0.0
H813 H 0.76935 0.7523 0.8037 0.0
H814 H 0.73632 0.69355 0.87268 0.0
H815 H 0.78362 0.66511 0.86644 0.0
C816 C 0.68459 0.77995 0.83015 0.0
C817 C 0.69213 0.80282 0.85137 0.0
C818 C 0.70142 0.75328 0.8265 0.0
C819 C 0.72606 0.74859 0.84406 0.0
C820 C 0.7311 0.76907 0.86595 0.0
C821 C 0.71428 0.79589 0.86958 0.0
C822 C 0.79869 0.71619 0.81373 0.0
C823 C 0.80479 0.693 0.83167 0.0
C824 C 0.7714 0.73243 0.81731 0.0
C825 C 0.74957 0.72576 0.83888 0.0
C826 C 0.75338 0.70004 0.8561 0.0
C827 C 0.7805 0.6837 0.85249 0.0
H828 H 0.88388 0.70656 0.14415 0.0
H829 H 0.89327 0.68325 0.21823 0.0
H830 H 0.95905 0.73557 0.13949 0.0
H831 H 0.96929 0.71029 0.21327 0.0
H832 H 0.10488 0.82215 0.20409 0.0
H833 H 0.0298 0.77506 0.20933 0.0
H834 H 0.02007 0.73226 0.137 0.0
H835 H 0.09563 0.7821 0.13138 0.0
C836 C 0.90183 0.70637 0.15939 0.0
C837 C 0.88242 0.69283 0.18167 0.0
C838 C 0.94535 0.7229 0.15663 0.0
C839 C 0.97091 0.72582 0.17599 0.0
C840 C 0.951 0.70966 0.19802 0.0
C841 C 0.90731 0.69379 0.20089 0.0
C842 C 0.08696 0.80227 0.18933 0.0
C843 C 0.10627 0.8063 0.16719 0.0
C844 C 0.04359 0.77477 0.19243 0.0
C845 C 0.0182 0.7498 0.17358 0.0
C846 C 0.03815 0.75176 0.15181 0.0
C847 C 0.08159 0.78011 0.14857 0.0
H848 H 0.17656 0.90407 0.55153 0.0
H849 H 0.21378 0.87851 0.48376 0.0
H850 H 0.22344 0.97989 0.5453 0.0
H851 H 0.26085 0.95429 0.47755 0.0
H852 H 0.27763 0.0886 0.46191 0.0
H853 H 0.24875 0.01285 0.46879 0.0
H854 H 0.29485 0.03882 0.54071 0.0
H855 H 0.32293 0.11426 0.53401 0.0
C856 C 0.19553 0.91451 0.53556 0.0
C857 C 0.19076 0.88522 0.51794 0.0
C858 C 0.22251 0.95807 0.53196 0.0
C859 C 0.24548 0.97329 0.51072 0.0
C860 C 0.2429 0.94374 0.49385 0.0
C861 C 0.21593 0.90025 0.49745 0.0
C862 C 0.28249 0.07827 0.47901 0.0
C863 C 0.30213 0.10756 0.49747 0.0
C864 C 0.26597 0.03477 0.48298 0.0
C865 C 0.26891 0.01965 0.50545 0.0
C866 C 0.29121 0.04926 0.52337 0.0
C867 C 0.30757 0.09262 0.51944 0.0
H868 H 0.20685 0.32594 0.86786 0.0
H869 H 0.18103 0.27334 0.79738 0.0
H870 H 0.2551 0.29886 0.87451 0.0
H871 H 0.22926 0.24595 0.80406 0.0
H872 H 0.33278 0.21643 0.81775 0.0
H873 H 0.30216 0.26185 0.81148 0.0
H874 H 0.24358 0.2272 0.88045 0.0
H875 H 0.27432 0.18174 0.8867 0.0
C876 C 0.21181 0.30903 0.85367 0.0
C877 C 0.18946 0.30125 0.83223 0.0
C878 C 0.23944 0.29339 0.85752 0.0
C879 C 0.24559 0.2697 0.83998 0.0
C880 C 0.22545 0.2643 0.81794 0.0
C881 C 0.19771 0.27997 0.81408 0.0
C882 C 0.31386 0.21892 0.83171 0.0
C883 C 0.30539 0.19482 0.85254 0.0
C884 C 0.29621 0.2449 0.82807 0.0
C885 C 0.26982 0.24761 0.84526 0.0
C886 C 0.26393 0.226 0.86686 0.0
C887 C 0.28159 0.19992 0.87048 0.0
H888 H 0.24504 0.21052 0.21291 0.0
H889 H 0.19423 0.1954 0.14225 0.0
H890 H 0.24611 0.14474 0.20896 0.0
H891 H 0.19313 0.12784 0.13863 0.0
H892 H 0.23761 0.03094 0.13175 0.0
H893 H 0.23673 0.09727 0.13457 0.0
H894 H 0.20126 0.07127 0.20831 0.0
H895 H 0.20441 0.00609 0.2057 0.0
C896 C 0.23357 0.19275 0.19659 0.0
C897 C 0.21931 0.2079 0.17791 0.0
C898 C 0.2339 0.15481 0.19438 0.0
C899 C 0.21922 0.1306 0.1736 0.0
C900 C 0.20511 0.1459 0.15481 0.0
C901 C 0.20551 0.18444 0.15688 0.0
C902 C 0.22966 0.0395 0.14856 0.0
C903 C 0.22133 0.01355 0.16856 0.0
C904 C 0.22885 0.07737 0.15014 0.0
C905 C 0.21902 0.08977 0.17167 0.0
C906 C 0.2099 0.06326 0.19156 0.0
C907 C 0.21148 0.02577 0.19008 0.0
H908 H 0.2048 0.23732 0.4641 0.0
H909 H 0.19341 0.19829 0.53719 0.0
H910 H 0.13779 0.2366 0.46689 0.0
H911 H 0.12515 0.19535 0.53972 0.0
H912 H 0.0318 0.24262 0.54492 0.0
H913 H 0.09746 0.2412 0.54139 0.0
H914 H 0.06359 0.1934 0.46995 0.0
H915 H -0.00152 0.19695 0.4732 0.0
C916 C 0.18763 0.22803 0.4807 0.0
C917 C 0.20439 0.21809 0.50049 0.0
C918 C 0.14902 0.22731 0.48225 0.0
C919 C 0.12601 0.21599 0.50353 0.0
C920 C 0.14243 0.20511 0.52318 0.0
C921 C 0.18143 0.20655 0.52174 0.0
C922 C 0.03834 0.23176 0.52845 0.0
C923 C 0.01003 0.21984 0.50932 0.0
C924 C 0.07589 0.23062 0.52648 0.0
C925 C 0.08575 0.21684 0.50546 0.0
C926 C 0.05729 0.20474 0.48631 0.0
C927 C 0.01992 0.20657 0.48816 0.0
H928 H 0.79634 0.00186 0.80787 0.0
H929 H 0.78223 0.03139 0.88013 0.0
H930 H 0.86452 0.06752 0.80547 0.0
H931 H 0.84893 0.09774 0.87745 0.0
H932 H 0.98849 0.19458 0.87379 0.0
H933 H 0.92266 0.12661 0.87597 0.0
H934 H 0.89472 0.14154 0.80338 0.0
H935 H 0.96134 0.2081 0.80094 0.0
C936 C 0.80764 0.02262 0.82313 0.0
C937 C 0.78414 0.0115 0.84419 0.0
C938 C 0.84659 0.06033 0.82176 0.0
C939 C 0.86235 0.08797 0.8413 0.0
C940 C 0.83837 0.07687 0.86224 0.0
C941 C 0.79991 0.03894 0.86372 0.0
C942 C 0.96823 0.18317 0.85834 0.0
C943 C 0.98003 0.20652 0.83721 0.0
C944 C 0.9304 0.14435 0.85957 0.0
C945 C 0.90327 0.12853 0.83983 0.0
C946 C 0.91515 0.1522 0.81877 0.0
C947 C 0.95324 0.19057 0.81742 0.0
H948 H 0.79254 0.9855 0.13411 0.0
H949 H 0.74786 0.96869 0.20635 0.0
H950 H 0.79443 0.91972 0.13653 0.0
H951 H 0.74855 0.90208 0.2085 0.0
H952 H 0.79536 0.80782 0.21216 0.0
H953 H 0.79714 0.87536 0.20949 0.0
H954 H 0.74644 0.84425 0.13855 0.0
H955 H 0.74584 0.77697 0.14095 0.0
C956 C 0.78297 0.96768 0.1505 0.0
C957 C 0.77003 0.98228 0.17006 0.0
C958 C 0.7838 0.92983 0.15181 0.0
C959 C 0.77148 0.90561 0.17265 0.0
C960 C 0.75879 0.92034 0.19228 0.0
C961 C 0.75822 0.95839 0.19103 0.0
C962 C 0.78469 0.81538 0.19595 0.0
C963 C 0.77034 0.787 0.17677 0.0
C964 C 0.78548 0.85402 0.19449 0.0
C965 C 0.77167 0.86503 0.17389 0.0
C966 C 0.75775 0.83687 0.15458 0.0
C967 C 0.75724 0.79827 0.15597 0.0
H968 H 0.7849 0.74994 0.46747 0.0
H969 H 0.79797 0.79016 0.54038 0.0
H970 H 0.85182 0.75048 0.46988 0.0
H971 H 0.86621 0.79287 0.54251 0.0
H972 H 0.96172 0.74791 0.54671 0.0
H973 H 0.89531 0.74815 0.54397 0.0
H974 H 0.92583 0.79456 0.47209 0.0
H975 H 0.9916 0.79218 0.47455 0.0
C976 C 0.80239 0.75939 0.48396 0.0
C977 C 0.7862 0.76989 0.50378 0.0
C978 C 0.84096 0.76001 0.48529 0.0
C979 C 0.86456 0.7718 0.50636 0.0
C980 C 0.84853 0.78285 0.52612 0.0
C981 C 0.80954 0.78152 0.5249 0.0
C982 C 0.95425 0.75819 0.53031 0.0
C983 C 0.98181 0.77005 0.51082 0.0
C984 C 0.91627 0.75864 0.52879 0.0
C985 C 0.90523 0.77163 0.50787 0.0
C986 C 0.93299 0.78374 0.48838 0.0
C987 C 0.97076 0.78259 0.48978 0.0
H988 H 0.19677 -0.0027 0.81177 0.0
H989 H 0.21104 0.96654 0.88379 0.0
H990 H 0.12819 0.93244 0.80939 0.0
H991 H 0.14361 0.90067 0.88107 0.0
H992 H 0.00387 0.80189 0.87585 0.0
H993 H 0.06924 0.8703 0.87912 0.0
H994 H 0.10005 0.85895 0.80657 0.0
H995 H 0.0342 0.79216 0.80306 0.0
C996 C 0.18538 0.97645 0.82701 0.0
C997 C 0.20926 0.98686 0.84791 0.0
C998 C 0.14617 0.93917 0.82564 0.0
C999 C 0.13042 0.91112 0.845 0.0
C1000 C 0.15435 0.92179 0.86595 0.0
C1001 C 0.19319 0.95941 0.86745 0.0
C1002 C 0.02466 0.81424 0.86064 0.0
C1003 C 0.01389 0.79185 0.83919 0.0
C1004 C 0.06219 0.85329 0.86251 0.0
C1005 C 0.0899 0.87028 0.84307 0.0
C1006 C 0.07908 0.84747 0.82173 0.0
C1007 C 0.0414 0.80893 0.81977 0.0
loop_
_geom_bond_atom_site_label_1
_geom_bond_atom_site_label_2
_geom_bond_distance
_geom_bond_site_symmetry_2
_ccdc_geom_bond_type
Co0 O3 1.970 . S
Co0 N17 1.989 . S
Co0 O25 1.967 . S
Co0 O32 1.920 . S
Co1 O4 1.966 . S
Co1 N10 2.022 . S
Co1 N18 1.993 . S
Co1 O26 1.941 . S
C2 O3 1.258 . S
C2 O4 1.263 . S
O3 Co0 1.970 . S
O3 C2 1.258 . S
O4 Co1 1.966 . S
O4 C2 1.263 . S
C5 O6 1.235 . S
C5 O32 1.289 . S
O6 C5 1.235 . S
C7 C9 1.400 . S
C7 N10 1.351 . S
C7 C12 1.501 . S
C8 C9 1.387 . S
C8 N11 1.341 . S
C9 C7 1.400 . S
C9 C8 1.387 . S
N10 Co1 2.022 . S
N10 C7 1.351 . S
N10 N11 1.365 . S
N11 C8 1.341 . S
N11 N10 1.365 . S
N11 H31 0.862 . S
C12 C7 1.501 . S
C12 H13 0.961 . S
C12 H14 0.961 . S
C12 H15 0.960 . S
H13 C12 0.961 . S
H14 C12 0.961 . S
H15 C12 0.960 . S
C16 N17 1.342 . S
C16 C20 1.401 . S
C16 C21 1.499 . S
N17 Co0 1.989 . S
N17 C16 1.342 . S
N17 N18 1.388 . S
N18 Co1 1.993 . S
N18 N17 1.388 . S
N18 C19 1.346 . S
C19 N18 1.346 . S
C19 C20 1.396 . S
C19 C29 1.510 . S
C20 C16 1.401 . S
C20 C19 1.396 . S
C21 C16 1.499 . S
C21 H22 0.959 . S
C21 H23 0.960 . S
C21 H24 0.961 . S
H22 C21 0.959 . S
H23 C21 0.960 . S
H24 C21 0.961 . S
O25 Co0 1.967 . S
O25 C33 1.258 . S
O26 Co1 1.941 . S
O26 C33 1.266 . S
H27 C29 0.959 . S
H28 C29 0.961 . S
C29 C19 1.510 . S
C29 H27 0.959 . S
C29 H28 0.961 . S
C29 H30 0.960 . S
H30 C29 0.960 . S
H31 N11 0.862 . S
O32 Co0 1.920 . S
O32 C5 1.289 . S
C33 O25 1.258 . S
C33 O26 1.266 . S
Co34 O37 1.970 . S
Co34 N51 1.989 . S
Co34 O59 1.967 . S
Co34 O66 1.920 . S
Co35 O38 1.966 . S
Co35 N44 2.022 . S
Co35 N52 1.993 . S
Co35 O60 1.941 . S
C36 O37 1.258 . S
C36 O38 1.263 . S
O37 Co34 1.970 . S
O37 C36 1.258 . S
O38 Co35 1.966 . S
O38 C36 1.263 . S
C39 O40 1.235 . S
C39 O66 1.289 . S
O40 C39 1.235 . S
C41 C43 1.400 . S
C41 N44 1.351 . S
C41 C46 1.501 . S
C42 C43 1.387 . S
C42 N45 1.341 . S
C43 C41 1.400 . S
C43 C42 1.387 . S
N44 Co35 2.022 . S
N44 C41 1.351 . S
N44 N45 1.365 . S
N45 C42 1.341 . S
N45 N44 1.365 . S
N45 H65 0.862 . S
C46 C41 1.501 . S
C46 H47 0.961 . S
C46 H48 0.961 . S
C46 H49 0.960 . S
H47 C46 0.961 . S
H48 C46 0.961 . S
H49 C46 0.960 . S
C50 N51 1.342 . S
C50 C54 1.401 . S
C50 C55 1.499 . S
N51 Co34 1.989 . S
N51 C50 1.342 . S
N51 N52 1.388 . S
N52 Co35 1.993 . S
N52 N51 1.388 . S
N52 C53 1.346 . S
C53 N52 1.346 . S
C53 C54 1.396 . S
C53 C63 1.510 . S
C54 C50 1.401 . S
C54 C53 1.396 . S
C55 C50 1.499 . S
C55 H56 0.959 . S
C55 H57 0.960 . S
C55 H58 0.961 . S
H56 C55 0.959 . S
H57 C55 0.960 . S
H58 C55 0.961 . S
O59 Co34 1.967 . S
O59 C67 1.258 1_655 S
O60 Co35 1.941 . S
O60 C67 1.266 1_655 S
H61 C63 0.959 . S
H62 C63 0.961 . S
C63 C53 1.510 . S
C63 H61 0.959 . S
C63 H62 0.961 . S
C63 H64 0.960 . S
H64 C63 0.960 . S
H65 N45 0.862 . S
O66 Co34 1.920 . S
O66 C39 1.289 . S
C67 O59 1.258 1_455 S
C67 O60 1.266 1_455 S
Co68 O71 1.970 . S
Co68 N85 1.989 . S
Co68 O93 1.967 . S
Co68 O100 1.920 . S
Co69 O72 1.966 . S
Co69 N78 2.022 . S
Co69 N86 1.993 . S
Co69 O94 1.941 . S
C70 O71 1.258 . S
C70 O72 1.263 . S
O71 Co68 1.970 . S
O71 C70 1.258 . S
O72 Co69 1.966 . S
O72 C70 1.263 . S
C73 O74 1.235 . S
C73 O100 1.289 . S
O74 C73 1.235 . S
C75 C77 1.400 . S
C75 N78 1.351 . S
C75 C80 1.501 . S
C76 C77 1.387 . S
C76 N79 1.341 . S
C77 C75 1.400 . S
C77 C76 1.387 . S
N78 Co69 2.022 . S
N78 C75 1.351 . S
N78 N79 1.365 . S
N79 C76 1.341 . S
N79 N78 1.365 . S
N79 H99 0.862 . S
C80 C75 1.501 . S
C80 H81 0.961 . S
C80 H82 0.961 . S
C80 H83 0.960 . S
H81 C80 0.961 . S
H82 C80 0.961 . S
H83 C80 0.960 . S
C84 N85 1.342 . S
C84 C88 1.401 . S
C84 C89 1.499 . S
N85 Co68 1.989 . S
N85 C84 1.342 . S
N85 N86 1.388 . S
N86 Co69 1.993 . S
N86 N85 1.388 . S
N86 C87 1.346 . S
C87 N86 1.346 . S
C87 C88 1.396 . S
C87 C97 1.510 . S
C88 C84 1.401 . S
C88 C87 1.396 . S
C89 C84 1.499 . S
C89 H90 0.959 . S
C89 H91 0.960 . S
C89 H92 0.961 . S
H90 C89 0.959 . S
H91 C89 0.960 . S
H92 C89 0.961 . S
O93 Co68 1.967 . S
O93 C101 1.258 1_565 S
O94 Co69 1.941 . S
O94 C101 1.266 1_565 S
H95 C97 0.959 . S
H96 C97 0.961 . S
C97 C87 1.510 . S
C97 H95 0.959 . S
C97 H96 0.961 . S
C97 H98 0.960 . S
H98 C97 0.960 . S
H99 N79 0.862 . S
O100 Co68 1.920 . S
O100 C73 1.289 . S
C101 O93 1.258 1_545 S
C101 O94 1.266 1_545 S
Co102 O105 1.970 . S
Co102 N119 1.989 . S
Co102 O127 1.967 . S
Co102 O134 1.920 . S
Co103 O106 1.966 . S
Co103 N112 2.022 . S
Co103 N120 1.993 . S
Co103 O128 1.941 . S
C104 O105 1.258 . S
C104 O106 1.263 . S
O105 Co102 1.970 . S
O105 C104 1.258 . S
O106 Co103 1.966 . S
O106 C104 1.263 . S
C107 O108 1.235 . S
C107 O134 1.289 . S
O108 C107 1.235 . S
C109 C111 1.400 . S
C109 N112 1.351 . S
C109 C114 1.501 . S
C110 C111 1.387 . S
C110 N113 1.341 . S
C111 C109 1.400 . S
C111 C110 1.387 . S
N112 Co103 2.022 . S
N112 C109 1.351 . S
N112 N113 1.365 . S
N113 C110 1.341 . S
N113 N112 1.365 . S
N113 H133 0.862 . S
C114 C109 1.501 . S
C114 H115 0.961 . S
C114 H116 0.961 . S
C114 H117 0.960 . S
H115 C114 0.961 . S
H116 C114 0.961 . S
H117 C114 0.960 . S
C118 N119 1.342 . S
C118 C122 1.401 . S
C118 C123 1.499 . S
N119 Co102 1.989 . S
N119 C118 1.342 . S
N119 N120 1.388 . S
N120 Co103 1.993 . S
N120 N119 1.388 . S
N120 C121 1.346 . S
C121 N120 1.346 . S
C121 C122 1.396 . S
C121 C131 1.510 . S
C122 C118 1.401 . S
C122 C121 1.396 . S
C123 C118 1.499 . S
C123 H124 0.959 . S
C123 H125 0.960 . S
C123 H126 0.961 . S
H124 C123 0.959 . S
H125 C123 0.960 . S
H126 C123 0.961 . S
O127 Co102 1.967 . S
O127 C135 1.258 . S
O128 Co103 1.941 . S
O128 C135 1.266 . S
H129 C131 0.959 . S
H130 C131 0.961 . S
C131 C121 1.510 . S
C131 H129 0.959 . S
C131 H130 0.961 . S
C131 H132 0.960 . S
H132 C131 0.960 . S
H133 N113 0.862 . S
O134 Co102 1.920 . S
O134 C107 1.289 . S
C135 O127 1.258 . S
C135 O128 1.266 . S
Co136 O139 1.970 . S
Co136 N153 1.989 . S
Co136 O161 1.967 . S
Co136 O168 1.920 . S
Co137 O140 1.966 . S
Co137 N146 2.022 . S
Co137 N154 1.993 . S
Co137 O162 1.941 . S
C138 O139 1.258 . S
C138 O140 1.263 . S
O139 Co136 1.970 . S
O139 C138 1.258 . S
O140 Co137 1.966 . S
O140 C138 1.263 . S
C141 O142 1.235 . S
C141 O168 1.289 . S
O142 C141 1.235 . S
C143 C145 1.400 . S
C143 N146 1.351 . S
C143 C148 1.501 . S
C144 C145 1.387 . S
C144 N147 1.341 . S
C145 C143 1.400 . S
C145 C144 1.387 . S
N146 Co137 2.022 . S
N146 C143 1.351 . S
N146 N147 1.365 . S
N147 C144 1.341 . S
N147 N146 1.365 . S
N147 H167 0.862 . S
C148 C143 1.501 . S
C148 H149 0.961 . S
C148 H150 0.961 . S
C148 H151 0.960 . S
H149 C148 0.961 . S
H150 C148 0.961 . S
H151 C148 0.960 . S
C152 N153 1.342 . S
C152 C156 1.401 . S
C152 C157 1.499 . S
N153 Co136 1.989 . S
N153 C152 1.342 . S
N153 N154 1.388 . S
N154 Co137 1.993 . S
N154 N153 1.388 . S
N154 C155 1.346 . S
C155 N154 1.346 . S
C155 C156 1.396 . S
C155 C165 1.510 . S
C156 C152 1.401 . S
C156 C155 1.396 . S
C157 C152 1.499 . S
C157 H158 0.959 . S
C157 H159 0.960 . S
C157 H160 0.961 . S
H158 C157 0.959 . S
H159 C157 0.960 . S
H160 C157 0.961 . S
O161 Co136 1.967 . S
O161 C169 1.258 1_455 S
O162 Co137 1.941 . S
O162 C169 1.266 1_455 S
H163 C165 0.959 . S
H164 C165 0.961 . S
C165 C155 1.510 . S
C165 H163 0.959 . S
C165 H164 0.961 . S
C165 H166 0.960 . S
H166 C165 0.960 . S
H167 N147 0.862 . S
O168 Co136 1.920 . S
O168 C141 1.289 . S
C169 O161 1.258 1_655 S
C169 O162 1.266 1_655 S
Co170 O173 1.970 . S
Co170 N187 1.989 . S
Co170 O195 1.967 . S
Co170 O202 1.920 . S
Co171 O174 1.966 . S
Co171 N180 2.022 . S
Co171 N188 1.993 . S
Co171 O196 1.941 . S
C172 O173 1.258 . S
C172 O174 1.263 . S
O173 Co170 1.970 . S
O173 C172 1.258 . S
O174 Co171 1.966 . S
O174 C172 1.263 . S
C175 O176 1.235 . S
C175 O202 1.289 . S
O176 C175 1.235 . S
C177 C179 1.400 . S
C177 N180 1.351 . S
C177 C182 1.501 . S
C178 C179 1.387 . S
C178 N181 1.341 . S
C179 C177 1.400 . S
C179 C178 1.387 . S
N180 Co171 2.022 . S
N180 C177 1.351 . S
N180 N181 1.365 . S
N181 C178 1.341 . S
N181 N180 1.365 . S
N181 H201 0.862 . S
C182 C177 1.501 . S
C182 H183 0.961 . S
C182 H184 0.961 . S
C182 H185 0.960 . S
H183 C182 0.961 . S
H184 C182 0.961 . S
H185 C182 0.960 . S
C186 N187 1.342 . S
C186 C190 1.401 . S
C186 C191 1.499 . S
N187 Co170 1.989 . S
N187 C186 1.342 . S
N187 N188 1.388 . S
N188 Co171 1.993 . S
N188 N187 1.388 . S
N188 C189 1.346 . S
C189 N188 1.346 . S
C189 C190 1.396 . S
C189 C199 1.510 . S
C190 C186 1.401 . S
C190 C189 1.396 . S
C191 C186 1.499 . S
C191 H192 0.959 . S
C191 H193 0.960 . S
C191 H194 0.961 . S
H192 C191 0.959 . S
H193 C191 0.960 . S
H194 C191 0.961 . S
O195 Co170 1.967 . S
O195 C203 1.258 1_545 S
O196 Co171 1.941 . S
O196 C203 1.266 1_545 S
H197 C199 0.959 . S
H198 C199 0.961 . S
C199 C189 1.510 . S
C199 H197 0.959 . S
C199 H198 0.961 . S
C199 H200 0.960 . S
H200 C199 0.960 . S
H201 N181 0.862 . S
O202 Co170 1.920 . S
O202 C175 1.289 . S
C203 O195 1.258 1_565 S
C203 O196 1.266 1_565 S
Co204 O207 1.970 . S
Co204 N221 1.989 . S
Co204 O229 1.967 . S
Co204 O236 1.920 . S
Co205 O208 1.966 . S
Co205 N214 2.022 . S
Co205 N222 1.993 . S
Co205 O230 1.941 . S
C206 O207 1.258 . S
C206 O208 1.263 . S
O207 Co204 1.970 . S
O207 C206 1.258 . S
O208 Co205 1.966 . S
O208 C206 1.263 . S
C209 O210 1.235 . S
C209 O236 1.289 . S
O210 C209 1.235 . S
C211 C213 1.400 . S
C211 N214 1.351 . S
C211 C216 1.501 . S
C212 C213 1.387 . S
C212 N215 1.341 . S
C213 C211 1.400 . S
C213 C212 1.387 . S
N214 Co205 2.022 . S
N214 C211 1.351 . S
N214 N215 1.365 . S
N215 C212 1.341 . S
N215 N214 1.365 . S
N215 H235 0.862 . S
C216 C211 1.501 . S
C216 H217 0.961 . S
C216 H218 0.961 . S
C216 H219 0.960 . S
H217 C216 0.961 . S
H218 C216 0.961 . S
H219 C216 0.960 . S
C220 N221 1.342 . S
C220 C224 1.401 . S
C220 C225 1.499 . S
N221 Co204 1.989 . S
N221 C220 1.342 . S
N221 N222 1.388 . S
N222 Co205 1.993 . S
N222 N221 1.388 . S
N222 C223 1.346 . S
C223 N222 1.346 . S
C223 C224 1.396 . S
C223 C233 1.510 . S
C224 C220 1.401 . S
C224 C223 1.396 . S
C225 C220 1.499 . S
C225 H226 0.959 . S
C225 H227 0.960 . S
C225 H228 0.961 . S
H226 C225 0.959 . S
H227 C225 0.960 . S
H228 C225 0.961 . S
O229 Co204 1.967 . S
O229 C237 1.258 . S
O230 Co205 1.941 . S
O230 C237 1.266 . S
H231 C233 0.959 . S
H232 C233 0.961 . S
C233 C223 1.510 . S
C233 H231 0.959 . S
C233 H232 0.961 . S
C233 H234 0.960 . S
H234 C233 0.960 . S
H235 N215 0.862 . S
O236 Co204 1.920 . S
O236 C209 1.289 . S
C237 O229 1.258 . S
C237 O230 1.266 . S
Co238 O241 1.970 . S
Co238 N255 1.989 . S
Co238 O263 1.967 . S
Co238 O270 1.920 . S
Co239 O242 1.966 . S
Co239 N248 2.022 . S
Co239 N256 1.993 . S
Co239 O264 1.941 . S
C240 O241 1.258 . S
C240 O242 1.263 . S
O241 Co238 1.970 . S
O241 C240 1.258 . S
O242 Co239 1.966 . S
O242 C240 1.263 . S
C243 O244 1.235 . S
C243 O270 1.289 . S
O244 C243 1.235 . S
C245 C247 1.400 . S
C245 N248 1.351 . S
C245 C250 1.501 . S
C246 C247 1.387 . S
C246 N249 1.341 . S
C247 C245 1.400 . S
C247 C246 1.387 . S
N248 Co239 2.022 . S
N248 C245 1.351 . S
N248 N249 1.365 . S
N249 C246 1.341 . S
N249 N248 1.365 . S
N249 H269 0.862 . S
C250 C245 1.501 . S
C250 H251 0.961 . S
C250 H252 0.961 . S
C250 H253 0.960 . S
H251 C250 0.961 . S
H252 C250 0.961 . S
H253 C250 0.960 . S
C254 N255 1.342 . S
C254 C258 1.401 . S
C254 C259 1.499 . S
N255 Co238 1.989 . S
N255 C254 1.342 . S
N255 N256 1.388 . S
N256 Co239 1.993 . S
N256 N255 1.388 . S
N256 C257 1.346 . S
C257 N256 1.346 . S
C257 C258 1.396 . S
C257 C267 1.510 . S
C258 C254 1.401 . S
C258 C257 1.396 . S
C259 C254 1.499 . S
C259 H260 0.959 . S
C259 H261 0.960 . S
C259 H262 0.961 . S
H260 C259 0.959 . S
H261 C259 0.960 . S
H262 C259 0.961 . S
O263 Co238 1.967 . S
O263 C271 1.258 1_655 S
O264 Co239 1.941 . S
O264 C271 1.266 1_655 S
H265 C267 0.959 . S
H266 C267 0.961 . S
C267 C257 1.510 . S
C267 H265 0.959 . S
C267 H266 0.961 . S
C267 H268 0.960 . S
H268 C267 0.960 . S
H269 N249 0.862 . S
O270 Co238 1.920 . S
O270 C243 1.289 . S
C271 O263 1.258 1_455 S
C271 O264 1.266 1_455 S
Co272 O275 1.970 . S
Co272 N289 1.989 . S
Co272 O297 1.967 . S
Co272 O304 1.920 . S
Co273 O276 1.966 . S
Co273 N282 2.022 . S
Co273 N290 1.993 . S
Co273 O298 1.941 . S
C274 O275 1.258 . S
C274 O276 1.263 . S
O275 Co272 1.970 . S
O275 C274 1.258 . S
O276 Co273 1.966 . S
O276 C274 1.263 . S
C277 O278 1.235 . S
C277 O304 1.289 . S
O278 C277 1.235 . S
C279 C281 1.400 . S
C279 N282 1.351 . S
C279 C284 1.501 . S
C280 C281 1.387 . S
C280 N283 1.341 . S
C281 C279 1.400 . S
C281 C280 1.387 . S
N282 Co273 2.022 . S
N282 C279 1.351 . S
N282 N283 1.365 . S
N283 C280 1.341 . S
N283 N282 1.365 . S
N283 H303 0.862 . S
C284 C279 1.501 . S
C284 H285 0.961 . S
C284 H286 0.961 . S
C284 H287 0.960 . S
H285 C284 0.961 . S
H286 C284 0.961 . S
H287 C284 0.960 . S
C288 N289 1.342 . S
C288 C292 1.401 . S
C288 C293 1.499 . S
N289 Co272 1.989 . S
N289 C288 1.342 . S
N289 N290 1.388 . S
N290 Co273 1.993 . S
N290 N289 1.388 . S
N290 C291 1.346 . S
C291 N290 1.346 . S
C291 C292 1.396 . S
C291 C301 1.510 . S
C292 C288 1.401 . S
C292 C291 1.396 . S
C293 C288 1.499 . S
C293 H294 0.959 . S
C293 H295 0.960 . S
C293 H296 0.961 . S
H294 C293 0.959 . S
H295 C293 0.960 . S
H296 C293 0.961 . S
O297 Co272 1.967 . S
O297 C305 1.258 1_565 S
O298 Co273 1.941 . S
O298 C305 1.266 1_565 S
H299 C301 0.959 . S
H300 C301 0.961 . S
C301 C291 1.510 . S
C301 H299 0.959 . S
C301 H300 0.961 . S
C301 H302 0.960 . S
H302 C301 0.960 . S
H303 N283 0.862 . S
O304 Co272 1.920 . S
O304 C277 1.289 . S
C305 O297 1.258 1_545 S
C305 O298 1.266 1_545 S
Co306 O309 1.970 . S
Co306 N323 1.989 . S
Co306 O331 1.967 . S
Co306 O338 1.920 . S
Co307 O310 1.966 . S
Co307 N316 2.022 . S
Co307 N324 1.993 . S
Co307 O332 1.941 . S
C308 O309 1.258 . S
C308 O310 1.263 . S
O309 Co306 1.970 . S
O309 C308 1.258 . S
O310 Co307 1.966 . S
O310 C308 1.263 . S
C311 O312 1.235 . S
C311 O338 1.289 . S
O312 C311 1.235 . S
C313 C315 1.400 . S
C313 N316 1.351 . S
C313 C318 1.501 . S
C314 C315 1.387 . S
C314 N317 1.341 . S
C315 C313 1.400 . S
C315 C314 1.387 . S
N316 Co307 2.022 . S
N316 C313 1.351 . S
N316 N317 1.365 . S
N317 C314 1.341 . S
N317 N316 1.365 . S
N317 H337 0.862 . S
C318 C313 1.501 . S
C318 H319 0.961 . S
C318 H320 0.961 . S
C318 H321 0.960 . S
H319 C318 0.961 . S
H320 C318 0.961 . S
H321 C318 0.960 . S
C322 N323 1.342 . S
C322 C326 1.401 . S
C322 C327 1.499 . S
N323 Co306 1.989 . S
N323 C322 1.342 . S
N323 N324 1.388 . S
N324 Co307 1.993 . S
N324 N323 1.388 . S
N324 C325 1.346 . S
C325 N324 1.346 . S
C325 C326 1.396 . S
C325 C335 1.510 . S
C326 C322 1.401 . S
C326 C325 1.396 . S
C327 C322 1.499 . S
C327 H328 0.959 . S
C327 H329 0.960 . S
C327 H330 0.961 . S
H328 C327 0.959 . S
H329 C327 0.960 . S
H330 C327 0.961 . S
O331 Co306 1.967 . S
O331 C339 1.258 . S
O332 Co307 1.941 . S
O332 C339 1.266 . S
H333 C335 0.959 . S
H334 C335 0.961 . S
C335 C325 1.510 . S
C335 H333 0.959 . S
C335 H334 0.961 . S
C335 H336 0.960 . S
H336 C335 0.960 . S
H337 N317 0.862 . S
O338 Co306 1.920 . S
O338 C311 1.289 . S
C339 O331 1.258 . S
C339 O332 1.266 . S
Co340 O343 1.970 . S
Co340 N357 1.989 . S
Co340 O365 1.967 . S
Co340 O372 1.920 . S
Co341 O344 1.966 . S
Co341 N350 2.022 . S
Co341 N358 1.993 . S
Co341 O366 1.941 . S
C342 O343 1.258 . S
C342 O344 1.263 . S
O343 Co340 1.970 . S
O343 C342 1.258 . S
O344 Co341 1.966 . S
O344 C342 1.263 . S
C345 O346 1.235 . S
C345 O372 1.289 . S
O346 C345 1.235 . S
C347 C349 1.400 . S
C347 N350 1.351 . S
C347 C352 1.501 . S
C348 C349 1.387 . S
C348 N351 1.341 . S
C349 C347 1.400 . S
C349 C348 1.387 . S
N350 Co341 2.022 . S
N350 C347 1.351 . S
N350 N351 1.365 . S
N351 C348 1.341 . S
N351 N350 1.365 . S
N351 H371 0.862 . S
C352 C347 1.501 . S
C352 H353 0.961 . S
C352 H354 0.961 . S
C352 H355 0.960 . S
H353 C352 0.961 . S
H354 C352 0.961 . S
H355 C352 0.960 . S
C356 N357 1.342 . S
C356 C360 1.401 . S
C356 C361 1.499 . S
N357 Co340 1.989 . S
N357 C356 1.342 . S
N357 N358 1.388 . S
N358 Co341 1.993 . S
N358 N357 1.388 . S
N358 C359 1.346 . S
C359 N358 1.346 . S
C359 C360 1.396 . S
C359 C369 1.510 . S
C360 C356 1.401 . S
C360 C359 1.396 . S
C361 C356 1.499 . S
C361 H362 0.959 . S
C361 H363 0.960 . S
C361 H364 0.961 . S
H362 C361 0.959 . S
H363 C361 0.960 . S
H364 C361 0.961 . S
O365 Co340 1.967 . S
O365 C373 1.258 1_455 S
O366 Co341 1.941 . S
O366 C373 1.266 1_455 S
H367 C369 0.959 . S
H368 C369 0.961 . S
C369 C359 1.510 . S
C369 H367 0.959 . S
C369 H368 0.961 . S
C369 H370 0.960 . S
H370 C369 0.960 . S
H371 N351 0.862 . S
O372 Co340 1.920 . S
O372 C345 1.289 . S
C373 O365 1.258 1_655 S
C373 O366 1.266 1_655 S
Co374 O377 1.970 . S
Co374 N391 1.989 . S
Co374 O399 1.967 . S
Co374 O406 1.920 . S
Co375 O378 1.966 . S
Co375 N384 2.022 . S
Co375 N392 1.993 . S
Co375 O400 1.941 . S
C376 O377 1.258 . S
C376 O378 1.263 . S
O377 Co374 1.970 . S
O377 C376 1.258 . S
O378 Co375 1.966 . S
O378 C376 1.263 . S
C379 O380 1.235 . S
C379 O406 1.289 . S
O380 C379 1.235 . S
C381 C383 1.400 . S
C381 N384 1.351 . S
C381 C386 1.501 . S
C382 C383 1.387 . S
C382 N385 1.341 . S
C383 C381 1.400 . S
C383 C382 1.387 . S
N384 Co375 2.022 . S
N384 C381 1.351 . S
N384 N385 1.365 . S
N385 C382 1.341 . S
N385 N384 1.365 . S
N385 H405 0.862 . S
C386 C381 1.501 . S
C386 H387 0.961 . S
C386 H388 0.961 . S
C386 H389 0.960 . S
H387 C386 0.961 . S
H388 C386 0.961 . S
H389 C386 0.960 . S
C390 N391 1.342 . S
C390 C394 1.401 . S
C390 C395 1.499 . S
N391 Co374 1.989 . S
N391 C390 1.342 . S
N391 N392 1.388 . S
N392 Co375 1.993 . S
N392 N391 1.388 . S
N392 C393 1.346 . S
C393 N392 1.346 . S
C393 C394 1.396 . S
C393 C403 1.510 . S
C394 C390 1.401 . S
C394 C393 1.396 . S
C395 C390 1.499 . S
C395 H396 0.959 . S
C395 H397 0.960 . S
C395 H398 0.961 . S
H396 C395 0.959 . S
H397 C395 0.960 . S
H398 C395 0.961 . S
O399 Co374 1.967 . S
O399 C407 1.258 1_545 S
O400 Co375 1.941 . S
O400 C407 1.266 1_545 S
H401 C403 0.959 . S
H402 C403 0.961 . S
C403 C393 1.510 . S
C403 H401 0.959 . S
C403 H402 0.961 . S
C403 H404 0.960 . S
H404 C403 0.960 . S
H405 N385 0.862 . S
O406 Co374 1.920 . S
O406 C379 1.289 . S
C407 O399 1.258 1_565 S
C407 O400 1.266 1_565 S
H408 C416 0.950 . S
H409 C421 0.950 . S
H410 C418 0.950 . S
H411 C420 0.950 . S
H412 C422 0.950 . S
H413 C424 0.950 . S
H414 C426 0.950 . S
H415 C427 0.950 . S
C416 H408 0.950 . S
C416 C417 1.386 . S
C416 C418 1.391 . S
C417 C416 1.386 . S
C417 C421 1.393 . S
C418 H410 0.950 . S
C418 C416 1.391 . S
C418 C419 1.400 . S
C419 C418 1.400 . S
C419 C420 1.398 . S
C419 C425 1.491 . S
C420 H411 0.950 . S
C420 C419 1.398 . S
C420 C421 1.391 . S
C421 H409 0.950 . S
C421 C417 1.393 . S
C421 C420 1.391 . S
C422 H412 0.950 . S
C422 C423 1.386 . S
C422 C424 1.391 . S
C423 C422 1.386 . S
C423 C427 1.393 . S
C424 H413 0.950 . S
C424 C422 1.391 . S
C424 C425 1.400 . S
C425 C419 1.491 . S
C425 C424 1.400 . S
C425 C426 1.398 . S
C426 H414 0.950 . S
C426 C425 1.398 . S
C426 C427 1.391 . S
C427 H415 0.950 . S
C427 C423 1.393 . S
C427 C426 1.391 . S
H428 C436 0.950 1_455 S
H429 C441 0.950 . S
H430 C438 0.950 . S
H431 C440 0.950 . S
H432 C442 0.950 1_655 S
H433 C444 0.950 . S
H434 C446 0.950 . S
H435 C447 0.950 . S
C436 H428 0.950 1_655 S
C436 C437 1.386 . S
C436 C438 1.391 1_655 S
C437 C436 1.386 . S
C437 C441 1.393 . S
C438 H430 0.950 . S
C438 C436 1.391 1_455 S
C438 C439 1.400 1_455 S
C439 C438 1.400 1_655 S
C439 C440 1.398 . S
C439 C445 1.491 1_655 S
C440 H431 0.950 . S
C440 C439 1.398 . S
C440 C441 1.391 . S
C441 H429 0.950 . S
C441 C437 1.393 . S
C441 C440 1.391 . S
C442 H432 0.950 1_455 S
C442 C443 1.386 . S
C442 C444 1.391 1_455 S
C443 C442 1.386 . S
C443 C447 1.393 . S
C444 H433 0.950 . S
C444 C442 1.391 1_655 S
C444 C445 1.400 1_655 S
C445 C439 1.491 1_455 S
C445 C444 1.400 1_455 S
C445 C446 1.398 . S
C446 H434 0.950 . S
C446 C445 1.398 . S
C446 C447 1.391 . S
C447 H435 0.950 . S
C447 C443 1.393 . S
C447 C446 1.391 . S
H448 C456 0.950 . S
H449 C461 0.950 1_545 S
H450 C458 0.950 . S
H451 C460 0.950 . S
H452 C462 0.950 . S
H453 C464 0.950 . S
H454 C466 0.950 . S
H455 C467 0.950 1_565 S
C456 H448 0.950 . S
C456 C457 1.386 . S
C456 C458 1.391 . S
C457 C456 1.386 . S
C457 C461 1.393 . S
C458 H450 0.950 . S
C458 C456 1.391 . S
C458 C459 1.400 . S
C459 C458 1.400 . S
C459 C460 1.398 1_565 S
C459 C465 1.491 1_566 S
C460 H451 0.950 . S
C460 C459 1.398 1_545 S
C460 C461 1.391 1_545 S
C461 H449 0.950 1_565 S
C461 C457 1.393 . S
C461 C460 1.391 1_565 S
C462 H452 0.950 . S
C462 C463 1.386 . S
C462 C464 1.391 . S
C463 C462 1.386 . S
C463 C467 1.393 . S
C464 H453 0.950 . S
C464 C462 1.391 . S
C464 C465 1.400 . S
C465 C459 1.491 1_544 S
C465 C464 1.400 . S
C465 C466 1.398 1_545 S
C466 H454 0.950 . S
C466 C465 1.398 1_565 S
C466 C467 1.391 1_565 S
C467 H455 0.950 1_545 S
C467 C463 1.393 . S
C467 C466 1.391 1_545 S
H468 C476 0.950 . S
H469 C481 0.950 . S
H470 C478 0.950 . S
H471 C480 0.950 . S
H472 C482 0.950 . S
H473 C484 0.950 . S
H474 C486 0.950 . S
H475 C487 0.950 . S
C476 H468 0.950 . S
C476 C477 1.386 . S
C476 C478 1.391 . S
C477 C476 1.386 . S
C477 C481 1.393 . S
C478 H470 0.950 . S
C478 C476 1.391 . S
C478 C479 1.400 . S
C479 C478 1.400 . S
C479 C480 1.398 . S
C479 C485 1.491 . S
C480 H471 0.950 . S
C480 C479 1.398 . S
C480 C481 1.391 . S
C481 H469 0.950 . S
C481 C477 1.393 . S
C481 C480 1.391 . S
C482 H472 0.950 . S
C482 C483 1.386 . S
C482 C484 1.391 . S
C483 C482 1.386 . S
C483 C487 1.393 . S
C484 H473 0.950 . S
C484 C482 1.391 . S
C484 C485 1.400 . S
C485 C479 1.491 . S
C485 C484 1.400 . S
C485 C486 1.398 . S
C486 H474 0.950 . S
C486 C485 1.398 . S
C486 C487 1.391 . S
C487 H475 0.950 . S
C487 C483 1.393 . S
C487 C486 1.391 . S
H488 C496 0.950 . S
H489 C501 0.950 1_655 S
H490 C498 0.950 . S
H491 C500 0.950 . S
H492 C502 0.950 . S
H493 C504 0.950 . S
H494 C506 0.950 . S
H495 C507 0.950 1_455 S
C496 H488 0.950 . S
C496 C497 1.386 . S
C496 C498 1.391 . S
C497 C496 1.386 . S
C497 C501 1.393 . S
C498 H490 0.950 . S
C498 C496 1.391 . S
C498 C499 1.400 . S
C499 C498 1.400 . S
C499 C500 1.398 1_455 S
C499 C505 1.491 1_455 S
C500 H491 0.950 . S
C500 C499 1.398 1_655 S
C500 C501 1.391 1_655 S
C501 H489 0.950 1_455 S
C501 C497 1.393 . S
C501 C500 1.391 1_455 S
C502 H492 0.950 . S
C502 C503 1.386 . S
C502 C504 1.391 . S
C503 C502 1.386 . S
C503 C507 1.393 . S
C504 H493 0.950 . S
C504 C502 1.391 . S
C504 C505 1.400 . S
C505 C499 1.491 1_655 S
C505 C504 1.400 . S
C505 C506 1.398 1_655 S
C506 H494 0.950 . S
C506 C505 1.398 1_455 S
C506 C507 1.391 1_455 S
C507 H495 0.950 1_655 S
C507 C503 1.393 . S
C507 C506 1.391 1_655 S
H508 C516 0.950 . S
H509 C521 0.950 . S
H510 C518 0.950 . S
H511 C520 0.950 . S
H512 C522 0.950 . S
H513 C524 0.950 . S
H514 C526 0.950 . S
H515 C527 0.950 . S
C516 H508 0.950 . S
C516 C517 1.386 . S
C516 C518 1.391 . S
C517 C516 1.386 . S
C517 C521 1.393 . S
C518 H510 0.950 . S
C518 C516 1.391 . S
C518 C519 1.400 . S
C519 C518 1.400 . S
C519 C520 1.398 1_545 S
C519 C525 1.491 1_546 S
C520 H511 0.950 . S
C520 C519 1.398 1_565 S
C520 C521 1.391 1_565 S
C521 H509 0.950 . S
C521 C517 1.393 . S
C521 C520 1.391 1_545 S
C522 H512 0.950 . S
C522 C523 1.386 . S
C522 C524 1.391 . S
C523 C522 1.386 . S
C523 C527 1.393 . S
C524 H513 0.950 . S
C524 C522 1.391 . S
C524 C525 1.400 . S
C525 C519 1.491 1_564 S
C525 C524 1.400 . S
C525 C526 1.398 1_565 S
C526 H514 0.950 . S
C526 C525 1.398 1_545 S
C526 C527 1.391 1_545 S
C527 H515 0.950 . S
C527 C523 1.393 . S
C527 C526 1.391 1_565 S
H528 C536 0.950 . S
H529 C541 0.950 . S
H530 C538 0.950 . S
H531 C540 0.950 . S
H532 C542 0.950 . S
H533 C544 0.950 . S
H534 C546 0.950 . S
H535 C547 0.950 . S
C536 H528 0.950 . S
C536 C537 1.386 . S
C536 C538 1.391 . S
C537 C536 1.386 . S
C537 C541 1.393 . S
C538 H530 0.950 . S
C538 C536 1.391 . S
C538 C539 1.400 . S
C539 C538 1.400 . S
C539 C540 1.398 . S
C539 C545 1.491 1_556 S
C540 H531 0.950 . S
C540 C539 1.398 . S
C540 C541 1.391 . S
C541 H529 0.950 . S
C541 C537 1.393 . S
C541 C540 1.391 . S
C542 H532 0.950 . S
C542 C543 1.386 . S
C542 C544 1.391 . S
C543 C542 1.386 . S
C543 C547 1.393 . S
C544 H533 0.950 . S
C544 C542 1.391 . S
C544 C545 1.400 . S
C545 C539 1.491 1_554 S
C545 C544 1.400 . S
C545 C546 1.398 . S
C546 H534 0.950 . S
C546 C545 1.398 . S
C546 C547 1.391 . S
C547 H535 0.950 . S
C547 C543 1.393 . S
C547 C546 1.391 . S
H548 C556 0.950 . S
H549 C561 0.950 . S
H550 C558 0.950 . S
H551 C560 0.950 . S
H552 C562 0.950 . S
H553 C564 0.950 . S
H554 C566 0.950 . S
H555 C567 0.950 . S
C556 H548 0.950 . S
C556 C557 1.386 . S
C556 C558 1.391 . S
C557 C556 1.386 . S
C557 C561 1.393 . S
C558 H550 0.950 . S
C558 C556 1.391 . S
C558 C559 1.400 . S
C559 C558 1.400 . S
C559 C560 1.398 . S
C559 C565 1.491 . S
C560 H551 0.950 . S
C560 C559 1.398 . S
C560 C561 1.391 . S
C561 H549 0.950 . S
C561 C557 1.393 . S
C561 C560 1.391 . S
C562 H552 0.950 . S
C562 C563 1.386 . S
C562 C564 1.391 . S
C563 C562 1.386 . S
C563 C567 1.393 . S
C564 H553 0.950 . S
C564 C562 1.391 . S
C564 C565 1.400 . S
C565 C559 1.491 . S
C565 C564 1.400 . S
C565 C566 1.398 . S
C566 H554 0.950 . S
C566 C565 1.398 . S
C566 C567 1.391 . S
C567 H555 0.950 . S
C567 C563 1.393 . S
C567 C566 1.391 . S
H568 C576 0.950 . S
H569 C581 0.950 . S
H570 C578 0.950 . S
H571 C580 0.950 . S
H572 C582 0.950 . S
H573 C584 0.950 . S
H574 C586 0.950 . S
H575 C587 0.950 . S
C576 H568 0.950 . S
C576 C577 1.386 . S
C576 C578 1.391 . S
C577 C576 1.386 . S
C577 C581 1.393 . S
C578 H570 0.950 . S
C578 C576 1.391 . S
C578 C579 1.400 . S
C579 C578 1.400 . S
C579 C580 1.398 . S
C579 C585 1.491 . S
C580 H571 0.950 . S
C580 C579 1.398 . S
C580 C581 1.391 . S
C581 H569 0.950 . S
C581 C577 1.393 . S
C581 C580 1.391 . S
C582 H572 0.950 . S
C582 C583 1.386 . S
C582 C584 1.391 . S
C583 C582 1.386 . S
C583 C587 1.393 . S
C584 H573 0.950 . S
C584 C582 1.391 . S
C584 C585 1.400 . S
C585 C579 1.491 . S
C585 C584 1.400 . S
C585 C586 1.398 . S
C586 H574 0.950 . S
C586 C585 1.398 . S
C586 C587 1.391 . S
C587 H575 0.950 . S
C587 C583 1.393 . S
C587 C586 1.391 . S
H588 C596 0.950 . S
H589 C601 0.950 . S
H590 C598 0.950 . S
H591 C600 0.950 . S
H592 C602 0.950 . S
H593 C604 0.950 . S
H594 C606 0.950 . S
H595 C607 0.950 . S
C596 H588 0.950 . S
C596 C597 1.386 . S
C596 C598 1.391 . S
C597 C596 1.386 . S
C597 C601 1.393 . S
C598 H590 0.950 . S
C598 C596 1.391 . S
C598 C599 1.400 . S
C599 C598 1.400 . S
C599 C600 1.398 . S
C599 C605 1.491 1_556 S
C600 H591 0.950 . S
C600 C599 1.398 . S
C600 C601 1.391 . S
C601 H589 0.950 . S
C601 C597 1.393 . S
C601 C600 1.391 . S
C602 H592 0.950 . S
C602 C603 1.386 . S
C602 C604 1.391 . S
C603 C602 1.386 . S
C603 C607 1.393 . S
C604 H593 0.950 . S
C604 C602 1.391 . S
C604 C605 1.400 . S
C605 C599 1.491 1_554 S
C605 C604 1.400 . S
C605 C606 1.398 . S
C606 H594 0.950 . S
C606 C605 1.398 . S
C606 C607 1.391 . S
C607 H595 0.950 . S
C607 C603 1.393 . S
C607 C606 1.391 . S
H608 C616 0.950 . S
H609 C621 0.950 . S
H610 C618 0.950 . S
H611 C620 0.950 . S
H612 C622 0.950 . S
H613 C624 0.950 . S
H614 C626 0.950 . S
H615 C627 0.950 . S
C616 H608 0.950 . S
C616 C617 1.386 . S
C616 C618 1.391 . S
C617 C616 1.386 . S
C617 C621 1.393 . S
C618 H610 0.950 . S
C618 C616 1.391 . S
C618 C619 1.400 . S
C619 C618 1.400 . S
C619 C620 1.398 . S
C619 C625 1.491 . S
C620 H611 0.950 . S
C620 C619 1.398 . S
C620 C621 1.391 . S
C621 H609 0.950 . S
C621 C617 1.393 . S
C621 C620 1.391 . S
C622 H612 0.950 . S
C622 C623 1.386 . S
C622 C624 1.391 . S
C623 C622 1.386 . S
C623 C627 1.393 . S
C624 H613 0.950 . S
C624 C622 1.391 . S
C624 C625 1.400 . S
C625 C619 1.491 . S
C625 C624 1.400 . S
C625 C626 1.398 . S
C626 H614 0.950 . S
C626 C625 1.398 . S
C626 C627 1.391 . S
C627 H615 0.950 . S
C627 C623 1.393 . S
C627 C626 1.391 . S
H628 C636 0.950 . S
H629 C641 0.950 . S
H630 C638 0.950 . S
H631 C640 0.950 . S
H632 C642 0.950 . S
H633 C644 0.950 . S
H634 C646 0.950 . S
H635 C647 0.950 . S
C636 H628 0.950 . S
C636 C637 1.386 . S
C636 C638 1.391 . S
C637 C636 1.386 . S
C637 C641 1.393 . S
C638 H630 0.950 . S
C638 C636 1.391 . S
C638 C639 1.400 . S
C639 C638 1.400 . S
C639 C640 1.398 . S
C639 C645 1.491 . S
C640 H631 0.950 . S
C640 C639 1.398 . S
C640 C641 1.391 . S
C641 H629 0.950 . S
C641 C637 1.393 . S
C641 C640 1.391 . S
C642 H632 0.950 . S
C642 C643 1.386 . S
C642 C644 1.391 . S
C643 C642 1.386 . S
C643 C647 1.393 . S
C644 H633 0.950 . S
C644 C642 1.391 . S
C644 C645 1.400 . S
C645 C639 1.491 . S
C645 C644 1.400 . S
C645 C646 1.398 . S
C646 H634 0.950 . S
C646 C645 1.398 . S
C646 C647 1.391 . S
C647 H635 0.950 . S
C647 C643 1.393 . S
C647 C646 1.391 . S
H648 C656 0.950 . S
H649 C661 0.950 . S
H650 C658 0.950 . S
H651 C660 0.950 . S
H652 C662 0.950 . S
H653 C664 0.950 . S
H654 C666 0.950 . S
H655 C667 0.950 . S
C656 H648 0.950 . S
C656 C657 1.386 . S
C656 C658 1.391 . S
C657 C656 1.386 . S
C657 C661 1.393 . S
C658 H650 0.950 . S
C658 C656 1.391 . S
C658 C659 1.400 . S
C659 C658 1.400 . S
C659 C660 1.398 . S
C659 C665 1.491 . S
C660 H651 0.950 . S
C660 C659 1.398 . S
C660 C661 1.391 . S
C661 H649 0.950 . S
C661 C657 1.393 . S
C661 C660 1.391 . S
C662 H652 0.950 . S
C662 C663 1.386 . S
C662 C664 1.391 . S
C663 C662 1.386 . S
C663 C667 1.393 . S
C664 H653 0.950 . S
C664 C662 1.391 . S
C664 C665 1.400 . S
C665 C659 1.491 . S
C665 C664 1.400 . S
C665 C666 1.398 . S
C666 H654 0.950 . S
C666 C665 1.398 . S
C666 C667 1.391 . S
C667 H655 0.950 . S
C667 C663 1.393 . S
C667 C666 1.391 . S
H668 C676 0.950 . S
H669 C681 0.950 1_455 S
H670 C678 0.950 . S
H671 C680 0.950 . S
H672 C682 0.950 . S
H673 C684 0.950 . S
H674 C686 0.950 . S
H675 C687 0.950 1_655 S
C676 H668 0.950 . S
C676 C677 1.386 . S
C676 C678 1.391 . S
C677 C676 1.386 . S
C677 C681 1.393 . S
C678 H670 0.950 . S
C678 C676 1.391 . S
C678 C679 1.400 . S
C679 C678 1.400 . S
C679 C680 1.398 1_655 S
C679 C685 1.491 1_655 S
C680 H671 0.950 . S
C680 C679 1.398 1_455 S
C680 C681 1.391 1_455 S
C681 H669 0.950 1_655 S
C681 C677 1.393 . S
C681 C680 1.391 1_655 S
C682 H672 0.950 . S
C682 C683 1.386 . S
C682 C684 1.391 . S
C683 C682 1.386 . S
C683 C687 1.393 . S
C684 H673 0.950 . S
C684 C682 1.391 . S
C684 C685 1.400 . S
C685 C679 1.491 1_455 S
C685 C684 1.400 . S
C685 C686 1.398 1_455 S
C686 H674 0.950 . S
C686 C685 1.398 1_655 S
C686 C687 1.391 1_655 S
C687 H675 0.950 1_455 S
C687 C683 1.393 . S
C687 C686 1.391 1_455 S
H688 C696 0.950 1_565 S
H689 C701 0.950 . S
H690 C698 0.950 . S
H691 C700 0.950 . S
H692 C702 0.950 1_545 S
H693 C704 0.950 . S
H694 C706 0.950 . S
H695 C707 0.950 . S
C696 H688 0.950 1_545 S
C696 C697 1.386 . S
C696 C698 1.391 1_545 S
C697 C696 1.386 . S
C697 C701 1.393 . S
C698 H690 0.950 . S
C698 C696 1.391 1_565 S
C698 C699 1.400 1_565 S
C699 C698 1.400 1_545 S
C699 C700 1.398 . S
C699 C705 1.491 1_545 S
C700 H691 0.950 . S
C700 C699 1.398 . S
C700 C701 1.391 . S
C701 H689 0.950 . S
C701 C697 1.393 . S
C701 C700 1.391 . S
C702 H692 0.950 1_565 S
C702 C703 1.386 . S
C702 C704 1.391 1_565 S
C703 C702 1.386 . S
C703 C707 1.393 . S
C704 H693 0.950 . S
C704 C702 1.391 1_545 S
C704 C705 1.400 1_545 S
C705 C699 1.491 1_565 S
C705 C704 1.400 1_565 S
C705 C706 1.398 . S
C706 H694 0.950 . S
C706 C705 1.398 . S
C706 C707 1.391 . S
C707 H695 0.950 . S
C707 C703 1.393 . S
C707 C706 1.391 . S
H708 C716 0.950 . S
H709 C721 0.950 . S
H710 C718 0.950 . S
H711 C720 0.950 . S
H712 C722 0.950 . S
H713 C724 0.950 . S
H714 C726 0.950 . S
H715 C727 0.950 . S
C716 H708 0.950 . S
C716 C717 1.386 . S
C716 C718 1.391 . S
C717 C716 1.386 . S
C717 C721 1.393 . S
C718 H710 0.950 . S
C718 C716 1.391 . S
C718 C719 1.400 . S
C719 C718 1.400 . S
C719 C720 1.398 . S
C719 C725 1.491 . S
C720 H711 0.950 . S
C720 C719 1.398 . S
C720 C721 1.391 . S
C721 H709 0.950 . S
C721 C717 1.393 . S
C721 C720 1.391 . S
C722 H712 0.950 . S
C722 C723 1.386 . S
C722 C724 1.391 . S
C723 C722 1.386 . S
C723 C727 1.393 . S
C724 H713 0.950 . S
C724 C722 1.391 . S
C724 C725 1.400 . S
C725 C719 1.491 . S
C725 C724 1.400 . S
C725 C726 1.398 . S
C726 H714 0.950 . S
C726 C725 1.398 . S
C726 C727 1.391 . S
C727 H715 0.950 . S
C727 C723 1.393 . S
C727 C726 1.391 . S
H728 C736 0.950 . S
H729 C741 0.950 . S
H730 C738 0.950 . S
H731 C740 0.950 1_455 S
H732 C742 0.950 . S
H733 C744 0.950 . S
H734 C746 0.950 1_655 S
H735 C747 0.950 . S
C736 H728 0.950 . S
C736 C737 1.386 . S
C736 C738 1.391 . S
C737 C736 1.386 . S
C737 C741 1.393 . S
C738 H730 0.950 . S
C738 C736 1.391 . S
C738 C739 1.400 . S
C739 C738 1.400 . S
C739 C740 1.398 . S
C739 C745 1.491 1_655 S
C740 H731 0.950 1_655 S
C740 C739 1.398 . S
C740 C741 1.391 . S
C741 H729 0.950 . S
C741 C737 1.393 . S
C741 C740 1.391 . S
C742 H732 0.950 . S
C742 C743 1.386 . S
C742 C744 1.391 . S
C743 C742 1.386 . S
C743 C747 1.393 . S
C744 H733 0.950 . S
C744 C742 1.391 . S
C744 C745 1.400 . S
C745 C739 1.491 1_455 S
C745 C744 1.400 . S
C745 C746 1.398 . S
C746 H734 0.950 1_455 S
C746 C745 1.398 . S
C746 C747 1.391 . S
C747 H735 0.950 . S
C747 C743 1.393 . S
C747 C746 1.391 . S
H748 C756 0.950 . S
H749 C761 0.950 1_565 S
H750 C758 0.950 . S
H751 C760 0.950 . S
H752 C762 0.950 . S
H753 C764 0.950 . S
H754 C766 0.950 . S
H755 C767 0.950 1_545 S
C756 H748 0.950 . S
C756 C757 1.386 . S
C756 C758 1.391 . S
C757 C756 1.386 . S
C757 C761 1.393 . S
C758 H750 0.950 . S
C758 C756 1.391 . S
C758 C759 1.400 . S
C759 C758 1.400 . S
C759 C760 1.398 1_545 S
C759 C765 1.491 1_545 S
C760 H751 0.950 . S
C760 C759 1.398 1_565 S
C760 C761 1.391 1_565 S
C761 H749 0.950 1_545 S
C761 C757 1.393 . S
C761 C760 1.391 1_545 S
C762 H752 0.950 . S
C762 C763 1.386 . S
C762 C764 1.391 . S
C763 C762 1.386 . S
C763 C767 1.393 . S
C764 H753 0.950 . S
C764 C762 1.391 . S
C764 C765 1.400 . S
C765 C759 1.491 1_565 S
C765 C764 1.400 . S
C765 C766 1.398 1_565 S
C766 H754 0.950 . S
C766 C765 1.398 1_545 S
C766 C767 1.391 1_545 S
C767 H755 0.950 1_565 S
C767 C763 1.393 . S
C767 C766 1.391 1_565 S
H768 C776 0.950 . S
H769 C781 0.950 . S
H770 C778 0.950 . S
H771 C780 0.950 . S
H772 C782 0.950 . S
H773 C784 0.950 . S
H774 C786 0.950 . S
H775 C787 0.950 . S
C776 H768 0.950 . S
C776 C777 1.386 . S
C776 C778 1.391 . S
C777 C776 1.386 . S
C777 C781 1.393 . S
C778 H770 0.950 . S
C778 C776 1.391 . S
C778 C779 1.400 . S
C779 C778 1.400 . S
C779 C780 1.398 . S
C779 C785 1.491 1_455 S
C780 H771 0.950 . S
C780 C779 1.398 . S
C780 C781 1.391 . S
C781 H769 0.950 . S
C781 C777 1.393 . S
C781 C780 1.391 . S
C782 H772 0.950 . S
C782 C783 1.386 . S
C782 C784 1.391 . S
C783 C782 1.386 . S
C783 C787 1.393 . S
C784 H773 0.950 . S
C784 C782 1.391 . S
C784 C785 1.400 . S
C785 C779 1.491 1_655 S
C785 C784 1.400 . S
C785 C786 1.398 . S
C786 H774 0.950 . S
C786 C785 1.398 . S
C786 C787 1.391 . S
C787 H775 0.950 . S
C787 C783 1.393 . S
C787 C786 1.391 . S
H788 C796 0.950 . S
H789 C801 0.950 . S
H790 C798 0.950 . S
H791 C800 0.950 . S
H792 C802 0.950 . S
H793 C804 0.950 . S
H794 C806 0.950 . S
H795 C807 0.950 . S
C796 H788 0.950 . S
C796 C797 1.386 . S
C796 C798 1.391 . S
C797 C796 1.386 . S
C797 C801 1.393 . S
C798 H790 0.950 . S
C798 C796 1.391 . S
C798 C799 1.400 . S
C799 C798 1.400 . S
C799 C800 1.398 . S
C799 C805 1.491 1_565 S
C800 H791 0.950 . S
C800 C799 1.398 . S
C800 C801 1.391 . S
C801 H789 0.950 . S
C801 C797 1.393 . S
C801 C800 1.391 . S
C802 H792 0.950 . S
C802 C803 1.386 . S
C802 C804 1.391 . S
C803 C802 1.386 . S
C803 C807 1.393 . S
C804 H793 0.950 . S
C804 C802 1.391 . S
C804 C805 1.400 . S
C805 C799 1.491 1_545 S
C805 C804 1.400 . S
C805 C806 1.398 . S
C806 H794 0.950 . S
C806 C805 1.398 . S
C806 C807 1.391 . S
C807 H795 0.950 . S
C807 C803 1.393 . S
C807 C806 1.391 . S
H808 C816 0.950 . S
H809 C821 0.950 . S
H810 C818 0.950 . S
H811 C820 0.950 . S
H812 C822 0.950 . S
H813 C824 0.950 . S
H814 C826 0.950 . S
H815 C827 0.950 . S
C816 H808 0.950 . S
C816 C817 1.386 . S
C816 C818 1.391 . S
C817 C816 1.386 . S
C817 C821 1.393 . S
C818 H810 0.950 . S
C818 C816 1.391 . S
C818 C819 1.400 . S
C819 C818 1.400 . S
C819 C820 1.398 . S
C819 C825 1.491 . S
C820 H811 0.950 . S
C820 C819 1.398 . S
C820 C821 1.391 . S
C821 H809 0.950 . S
C821 C817 1.393 . S
C821 C820 1.391 . S
C822 H812 0.950 . S
C822 C823 1.386 . S
C822 C824 1.391 . S
C823 C822 1.386 . S
C823 C827 1.393 . S
C824 H813 0.950 . S
C824 C822 1.391 . S
C824 C825 1.400 . S
C825 C819 1.491 . S
C825 C824 1.400 . S
C825 C826 1.398 . S
C826 H814 0.950 . S
C826 C825 1.398 . S
C826 C827 1.391 . S
C827 H815 0.950 . S
C827 C823 1.393 . S
C827 C826 1.391 . S
H828 C836 0.950 . S
H829 C841 0.950 . S
H830 C838 0.950 . S
H831 C840 0.950 . S
H832 C842 0.950 . S
H833 C844 0.950 . S
H834 C846 0.950 . S
H835 C847 0.950 . S
C836 H828 0.950 . S
C836 C837 1.386 . S
C836 C838 1.391 . S
C837 C836 1.386 . S
C837 C841 1.393 . S
C838 H830 0.950 . S
C838 C836 1.391 . S
C838 C839 1.400 . S
C839 C838 1.400 . S
C839 C840 1.398 . S
C839 C845 1.491 1_655 S
C840 H831 0.950 . S
C840 C839 1.398 . S
C840 C841 1.391 . S
C841 H829 0.950 . S
C841 C837 1.393 . S
C841 C840 1.391 . S
C842 H832 0.950 . S
C842 C843 1.386 . S
C842 C844 1.391 . S
C843 C842 1.386 . S
C843 C847 1.393 . S
C844 H833 0.950 . S
C844 C842 1.391 . S
C844 C845 1.400 . S
C845 C839 1.491 1_455 S
C845 C844 1.400 . S
C845 C846 1.398 . S
C846 H834 0.950 . S
C846 C845 1.398 . S
C846 C847 1.391 . S
C847 H835 0.950 . S
C847 C843 1.393 . S
C847 C846 1.391 . S
H848 C856 0.950 . S
H849 C861 0.950 . S
H850 C858 0.950 . S
H851 C860 0.950 . S
H852 C862 0.950 . S
H853 C864 0.950 . S
H854 C866 0.950 . S
H855 C867 0.950 . S
C856 H848 0.950 . S
C856 C857 1.386 . S
C856 C858 1.391 . S
C857 C856 1.386 . S
C857 C861 1.393 . S
C858 H850 0.950 . S
C858 C856 1.391 . S
C858 C859 1.400 . S
C859 C858 1.400 . S
C859 C860 1.398 . S
C859 C865 1.491 1_565 S
C860 H851 0.950 . S
C860 C859 1.398 . S
C860 C861 1.391 . S
C861 H849 0.950 . S
C861 C857 1.393 . S
C861 C860 1.391 . S
C862 H852 0.950 . S
C862 C863 1.386 . S
C862 C864 1.391 . S
C863 C862 1.386 . S
C863 C867 1.393 . S
C864 H853 0.950 . S
C864 C862 1.391 . S
C864 C865 1.400 . S
C865 C859 1.491 1_545 S
C865 C864 1.400 . S
C865 C866 1.398 . S
C866 H854 0.950 . S
C866 C865 1.398 . S
C866 C867 1.391 . S
C867 H855 0.950 . S
C867 C863 1.393 . S
C867 C866 1.391 . S
H868 C876 0.950 . S
H869 C881 0.950 . S
H870 C878 0.950 . S
H871 C880 0.950 . S
H872 C882 0.950 . S
H873 C884 0.950 . S
H874 C886 0.950 . S
H875 C887 0.950 . S
C876 H868 0.950 . S
C876 C877 1.386 . S
C876 C878 1.391 . S
C877 C876 1.386 . S
C877 C881 1.393 . S
C878 H870 0.950 . S
C878 C876 1.391 . S
C878 C879 1.400 . S
C879 C878 1.400 . S
C879 C880 1.398 . S
C879 C885 1.491 . S
C880 H871 0.950 . S
C880 C879 1.398 . S
C880 C881 1.391 . S
C881 H869 0.950 . S
C881 C877 1.393 . S
C881 C880 1.391 . S
C882 H872 0.950 . S
C882 C883 1.386 . S
C882 C884 1.391 . S
C883 C882 1.386 . S
C883 C887 1.393 . S
C884 H873 0.950 . S
C884 C882 1.391 . S
C884 C885 1.400 . S
C885 C879 1.491 . S
C885 C884 1.400 . S
C885 C886 1.398 . S
C886 H874 0.950 . S
C886 C885 1.398 . S
C886 C887 1.391 . S
C887 H875 0.950 . S
C887 C883 1.393 . S
C887 C886 1.391 . S
H888 C896 0.950 . S
H889 C901 0.950 . S
H890 C898 0.950 . S
H891 C900 0.950 . S
H892 C902 0.950 1_565 S
H893 C904 0.950 . S
H894 C906 0.950 . S
H895 C907 0.950 . S
C896 H888 0.950 . S
C896 C897 1.386 . S
C896 C898 1.391 . S
C897 C896 1.386 . S
C897 C901 1.393 . S
C898 H890 0.950 . S
C898 C896 1.391 . S
C898 C899 1.400 . S
C899 C898 1.400 . S
C899 C900 1.398 . S
C899 C905 1.491 . S
C900 H891 0.950 . S
C900 C899 1.398 . S
C900 C901 1.391 . S
C901 H889 0.950 . S
C901 C897 1.393 . S
C901 C900 1.391 . S
C902 H892 0.950 1_545 S
C902 C903 1.386 . S
C902 C904 1.391 . S
C903 C902 1.386 . S
C903 C907 1.393 . S
C904 H893 0.950 . S
C904 C902 1.391 . S
C904 C905 1.400 . S
C905 C899 1.491 . S
C905 C904 1.400 . S
C905 C906 1.398 . S
C906 H894 0.950 . S
C906 C905 1.398 . S
C906 C907 1.391 . S
C907 H895 0.950 . S
C907 C903 1.393 . S
C907 C906 1.391 . S
H908 C916 0.950 . S
H909 C921 0.950 . S
H910 C918 0.950 . S
H911 C920 0.950 . S
H912 C922 0.950 . S
H913 C924 0.950 . S
H914 C926 0.950 . S
H915 C927 0.950 1_655 S
C916 H908 0.950 . S
C916 C917 1.386 . S
C916 C918 1.391 . S
C917 C916 1.386 . S
C917 C921 1.393 . S
C918 H910 0.950 . S
C918 C916 1.391 . S
C918 C919 1.400 . S
C919 C918 1.400 . S
C919 C920 1.398 . S
C919 C925 1.491 . S
C920 H911 0.950 . S
C920 C919 1.398 . S
C920 C921 1.391 . S
C921 H909 0.950 . S
C921 C917 1.393 . S
C921 C920 1.391 . S
C922 H912 0.950 . S
C922 C923 1.386 . S
C922 C924 1.391 . S
C923 C922 1.386 . S
C923 C927 1.393 . S
C924 H913 0.950 . S
C924 C922 1.391 . S
C924 C925 1.400 . S
C925 C919 1.491 . S
C925 C924 1.400 . S
C925 C926 1.398 . S
C926 H914 0.950 . S
C926 C925 1.398 . S
C926 C927 1.391 . S
C927 H915 0.950 1_455 S
C927 C923 1.393 . S
C927 C926 1.391 . S
H928 C936 0.950 . S
H929 C941 0.950 . S
H930 C938 0.950 . S
H931 C940 0.950 . S
H932 C942 0.950 . S
H933 C944 0.950 . S
H934 C946 0.950 . S
H935 C947 0.950 1_455 S
C936 H928 0.950 . S
C936 C937 1.386 . S
C936 C938 1.391 . S
C937 C936 1.386 . S
C937 C941 1.393 . S
C938 H930 0.950 . S
C938 C936 1.391 . S
C938 C939 1.400 . S
C939 C938 1.400 . S
C939 C940 1.398 . S
C939 C945 1.491 . S
C940 H931 0.950 . S
C940 C939 1.398 . S
C940 C941 1.391 . S
C941 H929 0.950 . S
C941 C937 1.393 . S
C941 C940 1.391 . S
C942 H932 0.950 . S
C942 C943 1.386 . S
C942 C944 1.391 . S
C943 C942 1.386 . S
C943 C947 1.393 . S
C944 H933 0.950 . S
C944 C942 1.391 . S
C944 C945 1.400 . S
C945 C939 1.491 . S
C945 C944 1.400 . S
C945 C946 1.398 . S
C946 H934 0.950 . S
C946 C945 1.398 . S
C946 C947 1.391 . S
C947 H935 0.950 1_655 S
C947 C943 1.393 . S
C947 C946 1.391 . S
H948 C956 0.950 . S
H949 C961 0.950 . S
H950 C958 0.950 . S
H951 C960 0.950 . S
H952 C962 0.950 . S
H953 C964 0.950 . S
H954 C966 0.950 . S
H955 C967 0.950 . S
C956 H948 0.950 . S
C956 C957 1.386 . S
C956 C958 1.391 . S
C957 C956 1.386 . S
C957 C961 1.393 . S
C958 H950 0.950 . S
C958 C956 1.391 . S
C958 C959 1.400 . S
C959 C958 1.400 . S
C959 C960 1.398 . S
C959 C965 1.491 . S
C960 H951 0.950 . S
C960 C959 1.398 . S
C960 C961 1.391 . S
C961 H949 0.950 . S
C961 C957 1.393 . S
C961 C960 1.391 . S
C962 H952 0.950 . S
C962 C963 1.386 . S
C962 C964 1.391 . S
C963 C962 1.386 . S
C963 C967 1.393 . S
C964 H953 0.950 . S
C964 C962 1.391 . S
C964 C965 1.400 . S
C965 C959 1.491 . S
C965 C964 1.400 . S
C965 C966 1.398 . S
C966 H954 0.950 . S
C966 C965 1.398 . S
C966 C967 1.391 . S
C967 H955 0.950 . S
C967 C963 1.393 . S
C967 C966 1.391 . S
H968 C976 0.950 . S
H969 C981 0.950 . S
H970 C978 0.950 . S
H971 C980 0.950 . S
H972 C982 0.950 . S
H973 C984 0.950 . S
H974 C986 0.950 . S
H975 C987 0.950 . S
C976 H968 0.950 . S
C976 C977 1.386 . S
C976 C978 1.391 . S
C977 C976 1.386 . S
C977 C981 1.393 . S
C978 H970 0.950 . S
C978 C976 1.391 . S
C978 C979 1.400 . S
C979 C978 1.400 . S
C979 C980 1.398 . S
C979 C985 1.491 . S
C980 H971 0.950 . S
C980 C979 1.398 . S
C980 C981 1.391 . S
C981 H969 0.950 . S
C981 C977 1.393 . S
C981 C980 1.391 . S
C982 H972 0.950 . S
C982 C983 1.386 . S
C982 C984 1.391 . S
C983 C982 1.386 . S
C983 C987 1.393 . S
C984 H973 0.950 . S
C984 C982 1.391 . S
C984 C985 1.400 . S
C985 C979 1.491 . S
C985 C984 1.400 . S
C985 C986 1.398 . S
C986 H974 0.950 . S
C986 C985 1.398 . S
C986 C987 1.391 . S
C987 H975 0.950 . S
C987 C983 1.393 . S
C987 C986 1.391 . S
H988 C996 0.950 1_545 S
H989 C1001 0.950 . S
H990 C998 0.950 . S
H991 C1000 0.950 . S
H992 C1002 0.950 . S
H993 C1004 0.950 . S
H994 C1006 0.950 . S
H995 C1007 0.950 1_655 S
C996 H988 0.950 1_565 S
C996 C997 1.386 . S
C996 C998 1.391 . S
C997 C996 1.386 . S
C997 C1001 1.393 . S
C998 H990 0.950 . S
C998 C996 1.391 . S
C998 C999 1.400 . S
C999 C998 1.400 . S
C999 C1000 1.398 . S
C999 C1005 1.491 . S
C1000 H991 0.950 . S
C1000 C999 1.398 . S
C1000 C1001 1.391 . S
C1001 H989 0.950 . S
C1001 C997 1.393 . S
C1001 C1000 1.391 . S
C1002 H992 0.950 . S
C1002 C1003 1.386 . S
C1002 C1004 1.391 . S
C1003 C1002 1.386 . S
C1003 C1007 1.393 . S
C1004 H993 0.950 . S
C1004 C1002 1.391 . S
C1004 C1005 1.400 . S
C1005 C999 1.491 . S
C1005 C1004 1.400 . S
C1005 C1006 1.398 . S
C1006 H994 0.950 . S
C1006 C1005 1.398 . S
C1006 C1007 1.391 . S
C1007 H995 0.950 1_455 S
C1007 C1003 1.393 . S
C1007 C1006 1.391 . S
C417 C311 2.030 . S
C423 C5 2.030 . S
C437 C39 2.032 . S
C443 C345 2.032 . S
C457 C73 2.031 . S
C463 C379 2.032 . S
C477 C107 2.033 . S
C483 C209 2.033 . S
C497 C141 2.031 . S
C503 C243 2.031 . S
C517 C175 2.030 . S
C523 C277 2.030 . S
C537 C349 1.152 . S
C543 C9 1.149 . S
C557 C383 1.131 . S
C563 C43 1.157 . S
C577 C77 1.123 . S
C583 C213 1.150 . S
C597 C247 1.129 . S
C603 C111 1.128 . S
C617 C145 1.130 . S
C623 C281 1.157 . S
C637 C179 1.157 . S
C643 C315 1.132 . S
C657 C122 1.621 . S
C663 C20 1.621 . S
C677 C54 1.622 . S
C683 C156 1.625 . S
C697 C190 1.634 . S
C703 C88 1.630 . S
C717 C326 1.626 . S
C723 C224 1.630 . S
C737 C258 1.621 . S
C743 C360 1.622 . S
C757 C394 1.624 . S
C763 C292 1.628 . S
C777 C2 1.296 . S
C783 C376 1.286 . S
C797 C206 1.290 . S
C803 C36 1.283 . S
C817 C70 1.284 . S
C823 C240 1.285 . S
C837 C104 1.283 . S
C843 C274 1.288 . S
C857 C138 1.296 . S
C863 C308 1.287 . S
C877 C342 1.283 . S
C883 C172 1.291 . S
C897 C33 0.484 . S
C903 C305 0.485 . S
C917 C339 0.488 . S
C923 C67 0.488 . S
C937 C101 0.487 . S
C943 C373 0.487 . S
C957 C407 0.486 . S
C963 C135 0.486 . S
C977 C237 0.487 . S
C983 C169 0.487 . S
C997 C203 0.487 . S
C1003 C271 0.487 . S
