# Generated by pormake.
# Topology fnj, (5)-cn, num edge types: 1
# Building blocks:
#     Node 0, Type 0, BuildingBlock: XOMCOT_clean_sbu_0, # of connection points: 5
#     Node 1, Type 0, BuildingBlock: XOMCOT_clean_sbu_0, # of connection points: 5
#     Node 2, Type 0, BuildingBlock: XOMCOT_clean_sbu_0, # of connection points: 5
#     Node 3, Type 0, BuildingBlock: XOMCOT_clean_sbu_0, # of connection points: 5
#     Node 4, Type 0, BuildingBlock: XOMCOT_clean_sbu_0, # of connection points: 5
#     Node 5, Type 0, BuildingBlock: XOMCOT_clean_sbu_0, # of connection points: 5
#     Node 6, Type 0, BuildingBlock: XOMCOT_clean_sbu_0, # of connection points: 5
#     Node 7, Type 0, BuildingBlock: XOMCOT_clean_sbu_0, # of connection points: 5
#     Node 8, Type 0, BuildingBlock: XOMCOT_clean_sbu_0, # of connection points: 5
#     Node 9, Type 0, BuildingBlock: XOMCOT_clean_sbu_0, # of connection points: 5
#     Node 10, Type 0, BuildingBlock: XOMCOT_clean_sbu_0, # of connection points: 5
#     Node 11, Type 0, BuildingBlock: XOMCOT_clean_sbu_0, # of connection points: 5
#     Node 12, Type 0, BuildingBlock: XOMCOT_clean_sbu_0, # of connection points: 5
#     Node 13, Type 0, BuildingBlock: XOMCOT_clean_sbu_0, # of connection points: 5
#     Node 14, Type 0, BuildingBlock: XOMCOT_clean_sbu_0, # of connection points: 5
#     Node 15, Type 0, BuildingBlock: XOMCOT_clean_sbu_0, # of connection points: 5
#     Edge 16, Type (0, 0), BuildingBlock: XUDNAN_clean_linker_2, # of connection points: 2
#     Edge 17, Type (0, 0), BuildingBlock: XUDNAN_clean_linker_2, # of connection points: 2
#     Edge 18, Type (0, 0), BuildingBlock: XUDNAN_clean_linker_2, # of connection points: 2
#     Edge 19, Type (0, 0), BuildingBlock: XUDNAN_clean_linker_2, # of connection points: 2
#     Edge 20, Type (0, 0), BuildingBlock: XUDNAN_clean_linker_2, # of connection points: 2
#     Edge 21, Type (0, 0), BuildingBlock: XUDNAN_clean_linker_2, # of connection points: 2
#     Edge 22, Type (0, 0), BuildingBlock: XUDNAN_clean_linker_2, # of connection points: 2
#     Edge 23, Type (0, 0), BuildingBlock: XUDNAN_clean_linker_2, # of connection points: 2
#     Edge 24, Type (0, 0), BuildingBlock: XUDNAN_clean_linker_2, # of connection points: 2
#     Edge 25, Type (0, 0), BuildingBlock: XUDNAN_clean_linker_2, # of connection points: 2
#     Edge 26, Type (0, 0), BuildingBlock: XUDNAN_clean_linker_2, # of connection points: 2
#     Edge 27, Type (0, 0), BuildingBlock: XUDNAN_clean_linker_2, # of connection points: 2
#     Edge 28, Type (0, 0), BuildingBlock: XUDNAN_clean_linker_2, # of connection points: 2
#     Edge 29, Type (0, 0), BuildingBlock: XUDNAN_clean_linker_2, # of connection points: 2
#     Edge 30, Type (0, 0), BuildingBlock: XUDNAN_clean_linker_2, # of connection points: 2
#     Edge 31, Type (0, 0), BuildingBlock: XUDNAN_clean_linker_2, # of connection points: 2
#     Edge 32, Type (0, 0), BuildingBlock: XUDNAN_clean_linker_2, # of connection points: 2
#     Edge 33, Type (0, 0), BuildingBlock: XUDNAN_clean_linker_2, # of connection points: 2
#     Edge 34, Type (0, 0), BuildingBlock: XUDNAN_clean_linker_2, # of connection points: 2
#     Edge 35, Type (0, 0), BuildingBlock: XUDNAN_clean_linker_2, # of connection points: 2
#     Edge 36, Type (0, 0), BuildingBlock: XUDNAN_clean_linker_2, # of connection points: 2
#     Edge 37, Type (0, 0), BuildingBlock: XUDNAN_clean_linker_2, # of connection points: 2
#     Edge 38, Type (0, 0), BuildingBlock: XUDNAN_clean_linker_2, # of connection points: 2
#     Edge 39, Type (0, 0), BuildingBlock: XUDNAN_clean_linker_2, # of connection points: 2
#     Edge 40, Type (0, 0), BuildingBlock: XUDNAN_clean_linker_2, # of connection points: 2
#     Edge 41, Type (0, 0), BuildingBlock: XUDNAN_clean_linker_2, # of connection points: 2
#     Edge 42, Type (0, 0), BuildingBlock: XUDNAN_clean_linker_2, # of connection points: 2
#     Edge 43, Type (0, 0), BuildingBlock: XUDNAN_clean_linker_2, # of connection points: 2
#     Edge 44, Type (0, 0), BuildingBlock: XUDNAN_clean_linker_2, # of connection points: 2
#     Edge 45, Type (0, 0), BuildingBlock: XUDNAN_clean_linker_2, # of connection points: 2
#     Edge 46, Type (0, 0), BuildingBlock: XUDNAN_clean_linker_2, # of connection points: 2
#     Edge 47, Type (0, 0), BuildingBlock: XUDNAN_clean_linker_2, # of connection points: 2
#     Edge 48, Type (0, 0), BuildingBlock: XUDNAN_clean_linker_2, # of connection points: 2
#     Edge 49, Type (0, 0), BuildingBlock: XUDNAN_clean_linker_2, # of connection points: 2
#     Edge 50, Type (0, 0), BuildingBlock: XUDNAN_clean_linker_2, # of connection points: 2
#     Edge 51, Type (0, 0), BuildingBlock: XUDNAN_clean_linker_2, # of connection points: 2
#     Edge 52, Type (0, 0), BuildingBlock: XUDNAN_clean_linker_2, # of connection points: 2
#     Edge 53, Type (0, 0), BuildingBlock: XUDNAN_clean_linker_2, # of connection points: 2
#     Edge 54, Type (0, 0), BuildingBlock: XUDNAN_clean_linker_2, # of connection points: 2
#     Edge 55, Type (0, 0), BuildingBlock: XUDNAN_clean_linker_2, # of connection points: 2
# Relax obj value: 0.071
# Max RMSD: 0.155
# Mean RMSD: 0.154
data_MOF--net-fnj--node1-XOMCOT_clean_sbu_0--edge1-XUDNAN_clean_linker_2
_symmetry_space_group_name_H-M    P1
_symmetry_Int_Tables_number       1
_symmetry_cell_setting            triclinic
loop_
_symmetry_equiv_pos_as_xyz
'x, y, z'
_cell_length_a     76.817372
_cell_length_b     76.925781
_cell_length_c     17.575638
_cell_angle_alpha  90.934031
_cell_angle_beta   90.955653
_cell_angle_gamma 90.146827
loop_
_atom_site_label
_atom_site_type_symbol
_atom_site_fract_x
_atom_site_fract_y
_atom_site_fract_z
_atom_type_partial_charge
Co0 Co 0.37929 0.99914 0.0713 0.0
C1 C 0.37932 0.00486 0.90097 0.0
C2 C 0.35628 0.0139 0.95615 0.0
C3 C 0.35441 0.01666 0.87954 0.0
N4 N 0.37205 0.00688 0.97044 0.0
N5 N 0.36886 0.01097 0.84481 0.0
H6 H 0.39179 0.99898 0.89064 0.0
H7 H 0.34663 0.0166 0.99882 0.0
C8 C 0.37038 0.03742 0.09463 0.0
O9 O 0.3773 0.04172 0.0297 0.0
N10 N 0.38569 0.99152 0.17257 0.0
C11 C 0.39984 0.98251 0.19511 0.0
C12 C 0.40057 0.98259 0.27393 0.0
C13 C 0.37794 0.99666 0.23736 0.0
N14 N 0.38688 0.99171 0.30022 0.0
C15 C 0.41348 0.99772 1.01124 0.0
C16 C 0.42794 0.02426 0.09917 0.0
C17 C 0.43872 0.01467 0.05031 0.0
C18 C 0.43117 1.00137 1.0055 0.0
C19 C 0.41017 0.02023 0.10283 0.0
N20 N 0.40306 0.00727 0.05808 0.0
H21 H 0.40834 0.98672 0.97941 0.0
H22 H 0.40243 0.027 0.14445 0.0
H23 H 0.40942 0.97708 0.1572 0.0
H24 H 0.36621 0.00436 0.23843 0.0
O25 O 0.38174 0.97573 0.0317 0.0
O26 O 0.3574 0.98697 0.07728 0.0
O27 O 0.37122 0.02179 0.11787 0.0
C28 C 0.36525 0.97389 0.04512 0.0
H29 H 0.34307 0.02205 0.8512 0.0
H30 H 0.41094 0.97729 0.3089 0.0
H31 H 0.43328 0.03433 0.13653 0.0
H32 H 0.43889 0.9936 0.96686 0.0
Co33 Co 0.25513 0.1339 0.27369 0.0
C34 C 0.24923 0.13617 0.10543 0.0
C35 C 0.24233 0.11116 0.14716 0.0
C36 C 0.24024 0.11092 0.06892 0.0
N37 N 0.24785 0.12709 0.17032 0.0
N38 N 0.24458 0.12672 0.0428 0.0
H39 H 0.25416 0.14922 0.10283 0.0
H40 H 0.24015 0.10037 0.18454 0.0
C41 C 0.21617 0.12754 0.27995 0.0
O42 O 0.21402 0.13242 0.2092 0.0
N43 N 0.26273 0.1405 0.37573 0.0
C44 C 0.27524 0.15229 0.39315 0.0
C45 C 0.27566 0.15505 0.47066 0.0
C46 C 0.2559 0.13599 0.4431 0.0
N47 N 0.26354 0.14482 0.5019 0.0
C48 C 0.26357 0.16736 0.21677 0.0
C49 C 0.23623 0.18585 0.27779 0.0
C50 C 0.24887 0.19477 0.23656 0.0
C51 C 0.26264 0.18522 0.20624 0.0
C52 C 0.23748 0.16769 0.28593 0.0
N53 N 0.25087 0.15857 0.25401 0.0
H54 H 0.27463 0.16059 0.19398 0.0
H55 H 0.22794 0.16119 0.31978 0.0
H56 H 0.28312 0.15886 0.35209 0.0
H57 H 0.24511 0.12707 0.4489 0.0
O58 O 0.27921 0.13238 0.24199 0.0
O59 O 0.26405 0.11074 0.28971 0.0
O60 O 0.23098 0.12927 0.31366 0.0
C61 C 0.27865 0.11624 0.2624 0.0
H62 H 0.23593 0.09994 0.03418 0.0
H63 H 0.28397 0.16419 0.50169 0.0
H64 H 0.22551 0.19282 0.30324 0.0
H65 H 0.27292 0.19159 0.1756 0.0
Co66 Co 0.12912 1.00139 0.5033 0.0
C67 C 0.13078 0.00559 0.67644 0.0
C68 C 0.1529 0.01517 0.61718 0.0
C69 C 0.15573 0.01795 0.69347 0.0
N70 N 0.13727 0.00749 0.60571 0.0
N71 N 0.14183 0.012 0.73093 0.0
H72 H 0.11834 0.99994 0.68889 0.0
H73 H 0.16179 0.01846 0.57251 0.0
C74 C 0.13366 0.03628 0.41875 0.0
O75 O 0.12349 0.03189 0.36082 0.0
N76 N 0.12216 0.99547 0.39964 0.0
C77 C 0.10691 0.98891 0.37288 0.0
C78 C 0.10743 0.98816 0.29438 0.0
C79 C 0.13199 0.9977 0.33779 0.0
N80 N 0.12313 0.99398 0.27251 0.0
C81 C 0.09674 0.99487 0.57203 0.0
C82 C 0.07664 0.01822 0.49215 0.0
C83 C 0.06832 0.00494 0.53206 0.0
C84 C 0.07872 0.99395 0.576 0.0
C85 C 0.09499 0.01901 0.49135 0.0
N86 N 0.10485 0.00682 0.52808 0.0
H87 H 0.10404 0.9849 0.60051 0.0
H88 H 0.10099 0.02858 0.45661 0.0
H89 H 0.09594 0.98553 0.40742 0.0
H90 H 0.14504 1.00304 0.34059 0.0
O91 O 0.1283 0.97708 0.52718 0.0
O92 O 0.15174 0.9904 0.48613 0.0
O93 O 0.13549 0.02628 0.47597 0.0
C94 C 0.14454 0.97611 0.50929 0.0
H95 H 0.16732 0.02366 0.71938 0.0
H96 H 0.09672 0.98463 0.25638 0.0
H97 H 0.06913 0.02715 0.45786 0.0
H98 H 0.07298 0.98384 0.60979 0.0
Co99 Co 0.25969 0.88125 0.7387 0.0
C100 C 0.25719 0.88277 0.90978 0.0
C101 C 0.23608 0.89587 0.85449 0.0
C102 C 0.23508 0.89899 0.93134 0.0
N103 N 0.24973 0.88535 0.83995 0.0
N104 N 0.2484 0.89087 0.96632 0.0
H105 H 0.26956 0.8764 0.91886 0.0
H106 H 0.22815 0.90234 0.81254 0.0
C107 C 0.22186 0.88423 0.68959 0.0
O108 O 0.21763 0.87101 0.73201 0.0
N109 N 0.26961 0.87808 0.63831 0.0
C110 C 0.28112 0.86593 0.61583 0.0
C111 C 0.28306 0.86698 0.53797 0.0
C112 C 0.26494 0.88651 0.57426 0.0
N113 N 0.27284 0.87991 0.51187 0.0
C114 C 0.25767 0.84679 0.79591 0.0
C115 C 0.24395 0.83122 0.66532 0.0
C116 C 0.24969 0.82068 0.72507 0.0
C117 C 0.25618 0.82873 0.7917 0.0
C118 C 0.24543 0.84933 0.67235 0.0
N119 N 0.25247 0.85692 0.73678 0.0
H120 H 0.26414 0.85244 0.845 0.0
H121 H 0.24177 0.8572 0.6243 0.0
H122 H 0.28717 0.85654 0.65296 0.0
H123 H 0.25541 0.89682 0.57289 0.0
O124 O 0.28241 0.87826 0.78449 0.0
O125 O 0.27108 0.90351 0.74919 0.0
O126 O 0.23759 0.8895 0.68769 0.0
C127 C 0.28396 0.89506 0.78034 0.0
H128 H 0.22577 0.90742 0.95898 0.0
H129 H 0.29123 0.85872 0.5033 0.0
H130 H 0.23888 0.82551 0.61273 0.0
H131 H 0.26116 0.82111 0.83851 0.0
Co132 Co 0.62797 0.01393 0.01519 0.0
C133 C 0.63526 0.01427 0.18469 0.0
C134 C 0.62938 0.98879 0.13962 0.0
C135 C 0.63273 0.9875 0.21632 0.0
N136 N 0.6312 0.00551 0.11894 0.0
N137 N 0.63638 1.00347 0.24465 0.0
H138 H 0.63745 0.02815 0.189 0.0
H139 H 0.6256 0.97814 0.10204 0.0
C140 C 0.63165 0.98138 0.91251 0.0
O141 O 0.62375 0.98833 0.85378 0.0
N142 N 0.62487 0.02248 0.91199 0.0
C143 C 0.61086 0.0307 0.88298 0.0
C144 C 0.61335 0.03331 0.80655 0.0
C145 C 0.63612 0.0212 0.85376 0.0
N146 N 0.62914 0.02705 0.7875 0.0
C147 C 0.59542 0.01994 0.08124 0.0
C148 C 0.57459 1.0015 0.97876 0.0
C149 C 0.56677 0.01255 0.0325 0.0
C150 C 0.57743 0.02128 0.08587 0.0
C151 C 0.59284 1.00053 0.97601 0.0
N152 N 0.60299 0.0103 0.02504 0.0
H153 H 0.60334 0.0274 0.12125 0.0
H154 H 0.59856 0.99274 0.93197 0.0
H155 H 0.59933 0.03407 0.91436 0.0
H156 H 0.64869 0.015 0.8592 0.0
O157 O 0.62872 0.03773 0.05026 0.0
O158 O 0.65178 0.02231 0.01629 0.0
O159 O 0.6328 0.98934 0.97695 0.0
C160 C 0.64544 0.03702 0.04083 0.0
H161 H 0.63223 0.97574 0.24924 0.0
H162 H 0.60374 0.03851 0.7675 0.0
H163 H 0.56675 0.99443 0.93679 0.0
H164 H 0.57192 0.02959 0.12957 0.0
Co165 Co 0.74545 0.88051 0.75816 0.0
C166 C 0.75165 0.87701 0.92585 0.0
C167 C 0.76087 0.90132 0.88488 0.0
C168 C 0.76285 0.90133 0.96311 0.0
N169 N 0.75405 0.88594 0.86115 0.0
N170 N 0.75701 0.88599 0.98885 0.0
H171 H 0.74517 0.86466 0.92812 0.0
H172 H 0.76374 0.91203 0.84794 0.0
C173 C 0.78382 0.88832 0.74182 0.0
O174 O 0.78724 0.8804 0.80596 0.0
N175 N 0.73655 0.87528 0.65637 0.0
C176 C 0.72356 0.86395 0.64 0.0
C177 C 0.72267 0.86118 0.56257 0.0
C178 C 0.74332 0.87939 0.58826 0.0
N179 N 0.7351 0.87084 0.53012 0.0
C180 C 0.74194 0.84522 0.80528 0.0
C181 C 0.76638 0.83084 0.70997 0.0
C182 C 0.75587 0.81972 0.75223 0.0
C183 C 0.7438 0.82719 0.80141 0.0
C184 C 0.76445 0.84897 0.71722 0.0
N185 N 0.75236 0.85604 0.76491 0.0
H186 H 0.73128 0.85032 0.83774 0.0
H187 H 0.7719 0.85714 0.68048 0.0
H188 H 0.71586 0.8574 0.68183 0.0
H189 H 0.75462 0.88758 0.58141 0.0
O190 O 0.7222 0.87874 0.7983 0.0
O191 O 0.73398 0.90296 0.75631 0.0
O192 O 0.76834 0.88827 0.71374 0.0
C193 C 0.72073 0.8953 0.78657 0.0
H194 H 0.7679 0.91194 0.99818 0.0
H195 H 0.71398 0.85223 0.53253 0.0
H196 H 0.77565 0.82557 0.67001 0.0
H197 H 0.73499 0.81912 0.83306 0.0
Co198 Co 0.87994 0.01126 0.52964 0.0
C199 C 0.87202 0.01323 0.36211 0.0
C200 C 0.87784 0.98739 0.39899 0.0
C201 C 0.87556 0.98697 0.32136 0.0
N202 N 0.87563 0.00383 0.42487 0.0
N203 N 0.87193 1.00319 0.29828 0.0
H204 H 0.87038 0.02718 0.36203 0.0
H205 H 0.88158 0.97651 0.43379 0.0
C206 C 0.86917 0.97884 0.62137 0.0
O207 O 0.87748 0.9837 0.68403 0.0
N208 N 0.88456 0.01874 0.63385 0.0
C209 C 0.89993 0.02488 0.66122 0.0
C210 C 0.89849 0.0282 0.73782 0.0
C211 C 0.87366 0.01935 0.69345 0.0
N212 N 0.88203 0.02471 0.75785 0.0
C213 C 0.91393 0.01165 0.46982 0.0
C214 C 0.92923 0.98767 0.56479 0.0
C215 C 0.93984 0.99724 0.51625 0.0
C216 C 0.93189 0.0091 0.46734 0.0
C217 C 0.91125 0.9908 0.56622 0.0
N218 N 0.90387 1.00302 0.52041 0.0
H219 H 0.90813 0.02107 0.43228 0.0
H220 H 0.90357 0.98392 0.60636 0.0
H221 H 0.91157 0.02644 0.6283 0.0
H222 H 0.8603 0.01484 0.69091 0.0
O223 O 0.88385 0.03494 0.49957 0.0
O224 O 0.85819 0.0241 0.52966 0.0
O225 O 0.87018 0.9878 0.56071 0.0
C226 C 0.86728 0.03744 0.50831 0.0
H227 H 0.87687 0.97566 0.28441 0.0
H228 H 0.90888 0.03222 0.77663 0.0
H229 H 0.93487 0.97831 0.60339 0.0
H230 H 0.9395 0.01646 0.4277 0.0
Co231 Co 0.75653 0.13583 0.27238 0.0
C232 C 0.76189 0.12749 0.10657 0.0
C233 C 0.77774 0.1489 0.14529 0.0
C234 C 0.77942 0.14716 0.06798 0.0
N235 N 0.76658 0.13671 0.17034 0.0
N236 N 0.76943 0.13375 0.04368 0.0
H237 H 0.75235 0.11714 0.10463 0.0
H238 H 0.78335 0.15938 0.17909 0.0
C239 C 0.79518 0.13289 0.31724 0.0
O240 O 0.79951 0.14759 0.28592 0.0
N241 N 0.74659 0.13521 0.37295 0.0
C242 C 0.73343 0.14535 0.39688 0.0
C243 C 0.73186 0.14365 0.47424 0.0
C244 C 0.75273 0.12726 0.43601 0.0
N245 N 0.744 0.13232 0.49869 0.0
C246 C 0.7527 0.17158 0.24047 0.0
C247 C 0.77129 0.18496 0.36397 0.0
C248 C 0.76287 0.19657 0.31432 0.0
C249 C 0.75343 0.1895 0.25213 0.0
C250 C 0.76996 0.16697 0.35085 0.0
N251 N 0.76107 0.16052 0.28862 0.0
H252 H 0.74519 0.16648 0.19257 0.0
H253 H 0.77574 0.15823 0.39156 0.0
H254 H 0.72613 0.15415 0.36121 0.0
H255 H 0.76399 0.11884 0.43714 0.0
O256 O 0.73339 0.13771 0.2288 0.0
O257 O 0.74718 0.11294 0.25056 0.0
O258 O 0.7794 0.12772 0.31672 0.0
C259 C 0.73318 0.1208 0.22676 0.0
H260 H 0.78671 0.15566 0.03169 0.0
H261 H 0.72292 0.15069 0.5103 0.0
H262 H 0.77873 0.18966 0.41296 0.0
H263 H 0.74615 0.19766 0.21348 0.0
Co264 Co 0.87872 0.51245 0.50236 0.0
C265 C 0.87667 0.51443 0.33225 0.0
C266 C 0.86902 0.53821 0.38777 0.0
C267 C 0.86611 0.53979 0.31094 0.0
N268 N 0.87562 0.52233 0.40165 0.0
N269 N 0.87077 0.52484 0.27591 0.0
H270 H 0.88066 0.50107 0.32356 0.0
H271 H 0.86566 0.54783 0.43049 0.0
C272 C 0.88498 0.54368 0.60798 0.0
O273 O 0.89622 0.53527 0.65068 0.0
N274 N 0.8812 0.50265 0.60405 0.0
C275 C 0.89209 0.49017 0.6291 0.0
C276 C 0.89 0.48825 0.70617 0.0
C277 C 0.87211 0.50752 0.66618 0.0
N278 N 0.8776 0.49936 0.73002 0.0
C279 C 0.91187 0.49705 0.47192 0.0
C280 C 0.93112 0.52742 0.47109 0.0
C281 C 0.93959 0.5115 0.4603 0.0
C282 C 0.92977 0.49621 0.4602 0.0
C283 C 0.91318 0.52766 0.4844 0.0
N284 N 0.90387 0.51251 0.48778 0.0
H285 H 0.90443 0.48514 0.46833 0.0
H286 H 0.90683 0.54008 0.48975 0.0
H287 H 0.90105 0.48281 0.59512 0.0
H288 H 0.86222 0.51747 0.66484 0.0
O289 O 0.87296 0.48956 0.46102 0.0
O290 O 0.85405 0.50871 0.50594 0.0
O291 O 0.87836 0.53669 0.54786 0.0
C292 C 0.85683 0.49367 0.47383 0.0
H293 H 0.86048 0.55094 0.2831 0.0
H294 H 0.89723 0.47937 0.74174 0.0
H295 H 0.93829 0.53954 0.46896 0.0
H296 H 0.93584 0.48373 0.44945 0.0
Co297 Co 0.76568 0.63228 0.80184 0.0
C298 C 0.76101 0.63845 0.63687 0.0
C299 C 0.74792 0.61534 0.67187 0.0
C300 C 0.74585 0.61678 0.59444 0.0
N301 N 0.75719 0.62903 0.69849 0.0
N302 N 0.75415 0.6313 0.57194 0.0
H303 H 0.76919 0.6499 0.63992 0.0
H304 H 0.74369 0.60459 0.70583 0.0
C305 C 0.72909 0.6275 0.87056 0.0
O306 O 0.72795 0.64353 0.8968 0.0
N307 N 0.7747 0.63498 0.90653 0.0
C308 C 0.7916 0.63768 0.92694 0.0
C309 C 0.79286 0.64069 1.0039 0.0
C310 C 0.76604 0.63588 0.97303 0.0
N311 N 0.77683 0.63956 0.03258 0.0
C312 C 0.76904 0.66878 0.82896 0.0
C313 C 0.73904 0.67913 0.75402 0.0
C314 C 0.75091 0.69188 0.78059 0.0
C315 C 0.76582 0.68646 0.82 0.0
C316 C 0.74253 0.66143 0.76629 0.0
N317 N 0.75755 0.6564 0.80265 0.0
H318 H 0.78142 0.66512 0.85326 0.0
H319 H 0.73355 0.65175 0.74347 0.0
H320 H 0.80242 0.63828 0.88871 0.0
H321 H 0.75222 0.63439 0.97871 0.0
O322 O 0.7886 0.63651 0.76217 0.0
O323 O 0.77837 0.61058 0.7923 0.0
O324 O 0.74282 0.62211 0.83735 0.0
C325 C 0.79108 0.61981 0.7656 0.0
H326 H 0.73915 0.60743 0.55787 0.0
H327 H 0.80462 0.64373 0.03632 0.0
H328 H 0.7274 0.68278 0.72269 0.0
H329 H 0.77555 0.69579 0.83968 0.0
Co330 Co 0.62955 0.50375 1.01289 0.0
C331 C 0.6299 0.50891 0.18385 0.0
C332 C 0.65409 0.51515 0.1312 0.0
C333 C 0.65598 0.51795 0.20817 0.0
N334 N 0.63767 0.5098 0.11535 0.0
N335 N 0.64081 0.51401 0.24117 0.0
H336 H 0.61664 0.50486 0.19243 0.0
H337 H 0.66402 0.517 0.08917 0.0
C338 C 0.63975 0.54201 1.00807 0.0
O339 O 0.63343 0.54482 0.07614 0.0
N340 N 0.62225 0.49776 0.90996 0.0
C341 C 0.60835 0.48835 0.88592 0.0
C342 C 0.60738 0.48889 0.80731 0.0
C343 C 0.62961 0.50368 0.84635 0.0
N344 N 0.6207 0.49869 0.78275 0.0
C345 C 0.59527 0.50131 0.07268 0.0
C346 C 0.58087 0.5288 0.99491 0.0
C347 C 0.56979 0.51777 0.03497 0.0
C348 C 0.57731 0.50404 0.07506 0.0
C349 C 0.59884 0.5255 0.99342 0.0
N350 N 0.60591 0.51191 0.03235 0.0
H351 H 0.60046 0.49007 0.10101 0.0
H352 H 0.60677 0.5333 0.95705 0.0
H353 H 0.59925 0.48203 0.92287 0.0
H354 H 0.64121 0.51167 0.84677 0.0
O355 O 0.62688 0.47978 0.0434 0.0
O356 O 0.65099 0.49107 0.9971 0.0
O357 O 0.63799 0.52709 0.97533 0.0
C358 C 0.64299 0.47765 0.02414 0.0
H359 H 0.66767 0.52238 0.23786 0.0
H360 H 0.59725 0.48314 0.77142 0.0
H361 H 0.57561 0.53938 0.96185 0.0
H362 H 0.56933 0.49524 0.1071 0.0
Co363 Co 0.75375 0.38511 0.25295 0.0
C364 C 0.74804 0.381 0.41929 0.0
C365 C 0.73589 0.40402 0.37757 0.0
C366 C 0.7342 0.40375 0.45568 0.0
N367 N 0.74437 0.38957 0.35431 0.0
N368 N 0.7419 0.38923 0.48198 0.0
H369 H 0.75594 0.36952 0.42187 0.0
H370 H 0.73161 0.4143 0.34048 0.0
C371 C 0.71442 0.38558 0.22852 0.0
O372 O 0.71126 0.3821 0.29983 0.0
N373 N 0.76353 0.38081 0.15329 0.0
C374 C 0.77823 0.37185 0.13968 0.0
C375 C 0.77974 0.36934 0.06238 0.0
C376 C 0.75648 0.38398 0.08373 0.0
N377 N 0.76606 0.37693 0.02727 0.0
C378 C 0.76801 0.35325 0.30783 0.0
C379 C 0.74196 0.33119 0.2547 0.0
C380 C 0.7558 0.32435 0.29754 0.0
C381 C 0.76899 0.33558 0.32363 0.0
C382 C 0.74125 0.34912 0.24159 0.0
N383 N 0.75396 0.36003 0.26998 0.0
H384 H 0.77844 0.36158 0.32837 0.0
H385 H 0.73053 0.35397 0.20802 0.0
H386 H 0.78692 0.36687 0.18309 0.0
H387 H 0.74424 0.39057 0.07454 0.0
O388 O 0.77666 0.39148 0.29345 0.0
O389 O 0.75762 0.4096 0.24223 0.0
O390 O 0.7299 0.38501 0.20325 0.0
C391 C 0.77263 0.40734 0.27552 0.0
H392 H 0.72807 0.41366 0.49028 0.0
H393 H 0.78987 0.36206 0.03411 0.0
H394 H 0.73165 0.32281 0.23258 0.0
H395 H 0.78007 0.33072 0.35564 0.0
Co396 Co 0.12688 0.51038 0.48168 0.0
C397 C 0.12633 0.50847 0.65048 0.0
C398 C 0.1437 0.48954 0.60474 0.0
C399 C 0.14544 0.48967 0.68322 0.0
N400 N 0.13129 0.50103 0.58374 0.0
N401 N 0.13459 0.50174 0.71177 0.0
H402 H 0.11795 0.51965 0.65449 0.0
H403 H 0.1521 0.48261 0.56613 0.0
C404 C 0.13413 0.47239 0.44094 0.0
O405 O 0.12435 0.46657 0.49566 0.0
N406 N 0.12273 0.52022 0.38184 0.0
C407 C 0.11061 0.53233 0.3664 0.0
C408 C 0.1108 0.53579 0.28997 0.0
C409 C 0.13014 0.51639 0.31412 0.0
N410 N 0.12302 0.52577 0.25693 0.0
C411 C 0.09153 0.5092 0.53136 0.0
C412 C 0.07845 0.49079 0.40677 0.0
C413 C 0.06678 0.49832 0.45818 0.0
C414 C 0.07356 0.50712 0.52237 0.0
C415 C 0.09642 0.49285 0.41883 0.0
N416 N 0.1028 0.50224 0.47994 0.0
H417 H 0.09615 0.51767 0.57642 0.0
H418 H 0.10508 0.48806 0.3756 0.0
H419 H 0.10198 0.53804 0.40784 0.0
H420 H 0.14059 0.50718 0.30684 0.0
O421 O 0.12368 0.53323 0.52715 0.0
O422 O 0.1489 0.52226 0.48995 0.0
O423 O 0.13577 0.48867 0.43025 0.0
C424 C 0.14045 0.53507 0.52117 0.0
H425 H 0.15501 0.48256 0.71608 0.0
H426 H 0.1023 0.54476 0.26055 0.0
H427 H 0.07371 0.48404 0.35594 0.0
H428 H 0.06502 0.51355 0.56233 0.0
Co429 Co 0.25568 0.38401 0.25865 0.0
C430 C 0.26233 0.38015 0.42659 0.0
C431 C 0.26892 0.40539 0.3853 0.0
C432 C 0.27122 0.40558 0.46301 0.0
N433 N 0.26321 0.3895 0.36228 0.0
N434 N 0.26717 0.38971 0.48833 0.0
H435 H 0.25773 0.36695 0.42968 0.0
H436 H 0.27084 0.41627 0.34812 0.0
C437 C 0.29448 0.38711 0.2573 0.0
O438 O 0.29488 0.37688 0.31646 0.0
N439 N 0.24805 0.37908 0.15478 0.0
C440 C 0.23176 0.37485 0.13064 0.0
C441 C 0.23159 0.37313 0.05258 0.0
C442 C 0.25762 0.37953 0.09107 0.0
N443 N 0.24784 0.37598 0.02839 0.0
C444 C 0.24875 0.34931 0.30729 0.0
C445 C 0.27279 0.33289 0.2162 0.0
C446 C 0.26058 0.32265 0.25398 0.0
C447 C 0.24876 0.33114 0.30166 0.0
C448 C 0.27239 0.35104 0.22368 0.0
N449 N 0.26047 0.35915 0.26891 0.0
H450 H 0.23862 0.35547 0.33981 0.0
H451 H 0.28095 0.35849 0.18867 0.0
H452 H 0.22066 0.37319 0.16677 0.0
H453 H 0.27135 0.38261 0.08987 0.0
O454 O 0.23167 0.3843 0.29225 0.0
O455 O 0.24604 0.40714 0.25064 0.0
O456 O 0.27997 0.39003 0.22308 0.0
C457 C 0.23168 0.40076 0.27676 0.0
H458 H 0.27527 0.41656 0.49845 0.0
H459 H 0.22047 0.36992 0.01632 0.0
H460 H 0.28216 0.32697 0.17849 0.0
H461 H 0.23882 0.32389 0.33064 0.0
Co462 Co 0.37961 0.50979 0.04009 0.0
C463 C 0.37895 0.50561 0.86853 0.0
C464 C 0.35918 0.49124 0.92553 0.0
C465 C 0.35721 0.48833 0.84882 0.0
N466 N 0.37285 0.50192 0.93844 0.0
N467 N 0.36966 0.49724 0.81266 0.0
H468 H 0.38988 0.51406 0.85837 0.0
H469 H 0.35097 0.4861 0.96924 0.0
C470 C 0.38101 0.47606 0.13222 0.0
O471 O 0.39293 0.48213 0.18019 0.0
N472 N 0.38556 0.51747 0.14306 0.0
C473 C 0.39986 0.52601 0.16918 0.0
C474 C 0.39941 0.52682 0.24775 0.0
C475 C 0.37634 0.51387 0.20554 0.0
N476 N 0.38473 0.5189 0.27044 0.0
C477 C 0.41178 0.5213 0.97961 0.0
C478 C 0.43339 0.49624 0.0396 0.0
C479 C 0.44094 0.51127 1.00959 0.0
C480 C 0.42977 0.52333 0.9755 0.0
C481 C 0.41512 0.49452 0.04115 0.0
N482 N 0.40449 0.50754 0.01583 0.0
H483 H 0.40379 0.53142 0.95606 0.0
H484 H 0.40984 0.48291 0.06453 0.0
H485 H 0.41032 0.5306 0.13435 0.0
H486 H 0.36429 0.50653 0.20358 0.0
O487 O 0.37636 0.53376 1.01087 0.0
O488 O 0.35573 0.51705 0.05666 0.0
O489 O 0.3764 0.48477 0.07378 0.0
C490 C 0.36023 0.53205 0.03013 0.0
H491 H 0.3471 0.48048 0.8217 0.0
H492 H 0.40967 0.53172 0.2853 0.0
H493 H 0.44142 0.48625 0.06478 0.0
H494 H 0.43484 0.53473 0.94797 0.0
Co495 Co 0.2453 0.63371 0.80162 0.0
C496 C 0.25268 0.64019 0.63887 0.0
C497 C 0.26025 0.61463 0.6734 0.0
C498 C 0.26151 0.61546 0.59573 0.0
N499 N 0.25492 0.63018 0.70094 0.0
N500 N 0.25674 0.63148 0.57411 0.0
H501 H 0.2468 0.65297 0.64029 0.0
H502 H 0.26206 0.60312 0.70715 0.0
C503 C 0.28299 0.62234 0.83381 0.0
O504 O 0.28828 0.62588 0.76516 0.0
N505 N 0.23545 0.6367 0.90261 0.0
C506 C 0.21917 0.63284 0.92506 0.0
C507 C 0.21835 0.63487 1.00281 0.0
C508 C 0.24418 0.64137 0.96738 0.0
N509 N 0.23405 0.64022 0.02921 0.0
C510 C 0.23846 0.66966 0.81666 0.0
C511 C 0.27011 0.68197 0.76787 0.0
C512 C 0.25653 0.6938 0.78038 0.0
C513 C 0.24069 0.68746 0.8069 0.0
C514 C 0.2674 0.66419 0.77964 0.0
N515 N 0.25158 0.65821 0.80215 0.0
H516 H 0.22581 0.66494 0.83282 0.0
H517 H 0.27771 0.6553 0.76655 0.0
H518 H 0.20858 0.62841 0.88851 0.0
H519 H 0.25785 0.64482 0.96977 0.0
O520 O 0.2226 0.63571 0.75356 0.0
O521 O 0.23461 0.61103 0.79177 0.0
O522 O 0.26756 0.62612 0.85453 0.0
C523 C 0.22168 0.61886 0.758 0.0
H524 H 0.26485 0.60484 0.55753 0.0
H525 H 0.20715 0.63233 0.0376 0.0
H526 H 0.28258 0.68636 0.74746 0.0
H527 H 0.22977 0.69607 0.81617 0.0
H528 H 0.38489 0.98648 0.75568 0.0
H529 H 0.35957 0.03677 0.75118 0.0
H530 H 0.36245 0.03743 0.61183 0.0
H531 H 0.41563 0.99472 0.6011 0.0
H532 H 0.41387 0.97296 0.56201 0.0
H533 H 0.41093 0.9768 0.66242 0.0
H534 H 0.38072 0.96184 0.65315 0.0
H535 H 0.38352 0.95804 0.5527 0.0
H536 H 0.36468 0.96963 0.58595 0.0
H537 H 0.36682 0.03248 0.47446 0.0
H538 H 0.37266 0.02227 0.34444 0.0
H539 H 0.3947 0.97463 0.43232 0.0
C540 C 0.38027 0.99773 0.72523 0.0
C541 C 0.372 0.01161 0.7642 0.0
C542 C 0.36581 0.02597 0.72238 0.0
C543 C 0.36745 0.02649 0.64329 0.0
C544 C 0.37532 0.01251 0.60635 0.0
C545 C 0.38169 0.99839 0.64555 0.0
C546 C 0.38889 0.98481 0.59065 0.0
C547 C 0.4085 0.98217 0.60491 0.0
C548 C 0.37885 0.96756 0.59595 0.0
C549 C 0.38541 0.99349 0.51475 0.0
C550 C 0.37763 0.00948 0.5257 0.0
C551 C 0.37286 0.01994 0.46508 0.0
C552 C 0.37605 0.01392 0.39112 0.0
C553 C 0.38385 0.99751 0.37758 0.0
C554 C 0.38874 0.98723 0.44066 0.0
H555 H 0.24754 0.10643 0.91369 0.0
H556 H 0.24269 0.15995 0.99315 0.0
H557 H 0.24578 0.17001 0.86217 0.0
H558 H 0.27919 0.1138 0.77439 0.0
H559 H 0.27025 0.0986 0.70499 0.0
H560 H 0.26684 0.09528 0.80481 0.0
H561 H 0.23349 0.09446 0.78083 0.0
H562 H 0.2368 0.09773 0.68076 0.0
H563 H 0.22304 0.11235 0.73356 0.0
H564 H 0.25165 0.17465 0.72541 0.0
H565 H 0.25847 0.17339 0.58855 0.0
H566 H 0.25782 0.11711 0.59299 0.0
C567 C 0.24682 0.12024 0.90354 0.0
C568 C 0.24507 0.13237 0.96463 0.0
C569 C 0.2444 0.15035 0.94826 0.0
C570 C 0.246 0.15623 0.87368 0.0
C571 C 0.24803 0.144 0.81532 0.0
C572 C 0.24826 0.12637 0.82897 0.0
C573 C 0.25099 0.11606 0.75561 0.0
C574 C 0.26782 0.1053 0.76026 0.0
C575 C 0.23513 0.10446 0.73658 0.0
C576 C 0.25259 0.13069 0.69907 0.0
C577 C 0.25084 0.14669 0.73508 0.0
C578 C 0.25281 0.1622 0.69636 0.0
C579 C 0.25674 0.16138 0.61886 0.0
C580 C 0.25853 0.14519 0.58049 0.0
C581 C 0.25621 0.12963 0.62095 0.0
H582 H 0.11297 0.97844 0.13815 0.0
H583 H 0.14398 0.02088 0.2347 0.0
H584 H 0.15117 0.03034 0.10619 0.0
H585 H 0.1415 0.96881 0.98102 0.0
H586 H 0.12399 0.96396 0.91444 0.0
H587 H 0.12114 0.96039 1.01451 0.0
H588 H 0.09378 0.98002 1.01232 0.0
H589 H 0.09664 0.98375 0.91234 0.0
H590 H 0.09548 1.00192 0.97814 0.0
H591 H 0.15453 0.03581 0.969 0.0
H592 H 0.15568 0.03584 0.82939 0.0
H593 H 0.12322 0.98955 0.81785 0.0
C594 C 0.12128 0.9897 0.13205 0.0
C595 C 0.128 0.99882 0.19678 0.0
C596 C 0.13891 0.01345 0.18642 0.0
C597 C 0.14295 0.01905 0.11347 0.0
C598 C 0.13606 0.00987 0.05109 0.0
C599 C 0.12558 0.99542 0.05928 0.0
C600 C 0.12022 0.98776 0.98215 0.0
C601 C 0.12713 0.96913 0.97248 0.0
C602 C 0.10035 0.98841 0.97058 0.0
C603 C 0.12933 1.0002 0.92959 0.0
C604 C 0.13827 0.01289 0.97093 0.0
C605 C 0.14771 0.02586 0.93592 0.0
C606 C 0.14835 0.02571 0.85646 0.0
C607 C 0.13973 0.01259 0.81239 0.0
C608 C 0.12986 0.99981 0.84974 0.0
H609 H 0.27634 0.85982 0.3827 0.0
H610 H 0.26278 0.91166 0.46254 0.0
H611 H 0.25663 0.92027 0.33043 0.0
H612 H 0.29717 0.8733 0.20625 0.0
H613 H 0.28884 0.85497 0.1517 0.0
H614 H 0.29306 0.85297 0.25237 0.0
H615 H 0.26126 0.84289 0.27129 0.0
H616 H 0.25694 0.84486 0.1708 0.0
H617 H 0.2436 0.85635 0.23827 0.0
H618 H 0.25086 0.92312 0.19121 0.0
H619 H 0.24518 0.91991 0.05339 0.0
H620 H 0.26248 0.86634 0.06007 0.0
C621 C 0.27237 0.87307 0.37239 0.0
C622 C 0.27007 0.88506 0.43363 0.0
C623 C 0.26448 0.90217 0.41722 0.0
C624 C 0.26106 0.90722 0.34211 0.0
C625 C 0.26332 0.89508 0.28342 0.0
C626 C 0.26885 0.87835 0.29743 0.0
C627 C 0.26954 0.86769 0.22383 0.0
C628 C 0.28827 0.86189 0.20759 0.0
C629 C 0.25709 0.85202 0.22622 0.0
C630 C 0.26329 0.88098 0.16648 0.0
C631 C 0.2599 0.89671 0.20238 0.0
C632 C 0.2535 0.91088 0.1625 0.0
C633 C 0.25022 0.90889 0.08418 0.0
C634 C 0.25326 0.89285 0.04587 0.0
C635 C 0.26018 0.87879 0.08763 0.0
H636 H 0.61781 0.04248 0.65587 0.0
H637 H 0.65452 0.00441 0.74251 0.0
H638 H 0.66254 0.99673 0.61176 0.0
H639 H 0.60201 0.01692 0.504 0.0
H640 H 0.59959 0.03448 0.43801 0.0
H641 H 0.59828 0.03876 0.53869 0.0
H642 H 0.62288 0.06169 0.53012 0.0
H643 H 0.62426 0.05749 0.42918 0.0
H644 H 0.6434 0.05559 0.48921 0.0
H645 H 0.66404 0.99041 0.47206 0.0
H646 H 0.65935 0.98659 0.33325 0.0
H647 H 0.62208 0.02869 0.33433 0.0
C648 C 0.6277 0.03267 0.64787 0.0
C649 C 0.63545 0.02411 0.71086 0.0
C650 C 0.64842 0.01141 0.6965 0.0
C651 C 0.65308 0.00687 0.62188 0.0
C652 C 0.64482 0.01523 0.56152 0.0
C653 C 0.63251 0.02797 0.57357 0.0
C654 C 0.62477 0.03411 0.4985 0.0
C655 C 0.605 0.03087 0.4946 0.0
C656 C 0.62909 0.05337 0.48603 0.0
C657 C 0.63429 0.02246 0.44248 0.0
C658 C 0.6459 0.01176 0.48024 0.0
C659 C 0.65524 0.99895 0.44182 0.0
C660 C 0.65249 0.99683 0.36312 0.0
C661 C 0.64059 0.0075 0.32322 0.0
C662 C 0.63161 0.0207 0.36329 0.0
H663 H 0.74352 0.89771 0.43802 0.0
H664 H 0.73748 0.84174 0.44396 0.0
H665 H 0.74423 0.83959 0.30731 0.0
H666 H 0.7229 0.90281 0.25659 0.0
H667 H 0.73706 0.91997 0.22604 0.0
H668 H 0.73328 0.91712 0.3259 0.0
H669 H 0.7665 0.91462 0.35105 0.0
H670 H 0.77037 0.91748 0.25115 0.0
H671 H 0.77884 0.89865 0.29882 0.0
H672 H 0.75064 0.84337 0.17032 0.0
H673 H 0.75513 0.85284 0.0392 0.0
H674 H 0.75561 0.9067 0.11751 0.0
C675 C 0.74391 0.88504 0.41045 0.0
C676 C 0.74003 0.86986 0.45137 0.0
C677 C 0.74032 0.85349 0.4134 0.0
C678 C 0.74423 0.85215 0.33597 0.0
C679 C 0.74772 0.86732 0.29681 0.0
C680 C 0.74754 0.88348 0.3324 0.0
C681 C 0.75072 0.89776 0.27545 0.0
C682 C 0.73506 0.91014 0.27073 0.0
C683 C 0.76761 0.90771 0.29532 0.0
C684 C 0.75252 0.88709 0.20245 0.0
C685 C 0.75093 0.86955 0.21653 0.0
C686 C 0.75186 0.85707 0.1585 0.0
C687 C 0.75428 0.86262 0.08385 0.0
C688 C 0.75556 0.88055 0.06708 0.0
C689 C 0.75485 0.8929 0.12787 0.0
H690 H 0.89013 0.99114 0.17868 0.0
H691 H 0.85011 0.02785 0.24281 0.0
H692 H 0.84689 0.03662 0.1078 0.0
H693 H 0.91042 0.01819 0.04372 0.0
H694 H 0.91567 1.00043 0.98006 0.0
H695 H 0.91394 0.99671 0.08049 0.0
H696 H 0.89095 0.97258 0.05263 0.0
H697 H 0.89255 0.97629 0.95206 0.0
H698 H 0.87169 0.97759 0.99729 0.0
H699 H 0.84801 0.04073 0.96285 0.0
H700 H 0.85568 0.042 0.82576 0.0
H701 H 0.89582 1.0036 0.86201 0.0
C702 C 0.88054 1.00088 0.16415 0.0
C703 C 0.87019 0.00869 0.22066 0.0
C704 C 0.85813 0.02174 0.2 0.0
C705 C 0.85616 0.02669 0.12359 0.0
C706 C 0.86651 0.01858 0.06901 0.0
C707 C 0.87862 0.0061 0.08882 0.0
C708 C 0.88887 0.99994 0.02094 0.0
C709 C 0.90837 0.00407 0.03198 0.0
C710 C 0.88582 0.98045 1.0048 0.0
C711 C 0.88071 0.01091 0.95951 0.0
C712 C 0.86766 0.02142 0.98766 0.0
C713 C 0.85825 0.03258 0.94045 0.0
C714 C 0.86258 0.0332 0.86298 0.0
C715 C 0.87631 0.02293 0.83451 0.0
C716 C 0.88531 0.01158 0.88318 0.0
H717 H 0.74566 0.15546 0.61549 0.0
H718 H 0.75237 0.101 0.55788 0.0
H719 H 0.75876 0.09478 0.69398 0.0
H720 H 0.78085 0.15778 0.75228 0.0
H721 H 0.76985 0.17306 0.81356 0.0
H722 H 0.76521 0.17272 0.7128 0.0
H723 H 0.73239 0.16838 0.73924 0.0
H724 H 0.73694 0.16862 0.8401 0.0
H725 H 0.7256 0.15041 0.79639 0.0
H726 H 0.76304 0.09481 0.84007 0.0
H727 H 0.76844 0.10164 0.97747 0.0
H728 H 0.76093 0.15632 0.93381 0.0
C729 C 0.74834 0.14221 0.63176 0.0
C730 C 0.74827 0.12863 0.57683 0.0
C731 C 0.7523 0.11152 0.59956 0.0
C732 C 0.75586 0.1079 0.67658 0.0
C733 C 0.75562 0.12162 0.72965 0.0
C734 C 0.75224 0.13848 0.70769 0.0
C735 C 0.75362 0.15112 0.77431 0.0
C736 C 0.76825 0.16445 0.76251 0.0
C737 C 0.73609 0.16016 0.78832 0.0
C738 C 0.75818 0.13879 0.83764 0.0
C739 C 0.75905 0.12177 0.81141 0.0
C740 C 0.76256 0.10812 0.86085 0.0
C741 C 0.76553 0.11205 0.93859 0.0
C742 C 0.7653 0.12948 0.96545 0.0
C743 C 0.76144 0.14292 0.91424 0.0
H744 H 0.89173 0.50585 0.18192 0.0
H745 H 0.84337 0.5347 0.1888 0.0
H746 H 0.83919 0.53006 0.05059 0.0
H747 H 0.90594 0.52257 1.0063 0.0
H748 H 0.91544 0.50253 0.97261 0.0
H749 H 0.91405 0.5069 0.07326 0.0
H750 H 0.89725 0.47801 0.09005 0.0
H751 H 0.89862 0.47354 0.98934 0.0
H752 H 0.87771 0.47388 0.03438 0.0
H753 H 0.84081 0.52361 0.91048 0.0
H754 H 0.8482 0.51569 0.77858 0.0
H755 H 0.89595 0.4917 0.86047 0.0
C756 C 0.88014 0.51089 0.15433 0.0
C757 C 0.86789 0.52068 0.19618 0.0
C758 C 0.85301 0.52733 0.15784 0.0
C759 C 0.85046 0.52468 0.07934 0.0
C760 C 0.86291 0.51532 0.03937 0.0
C761 C 0.87745 0.50848 0.07539 0.0
C762 C 0.88922 0.49964 0.01807 0.0
C763 C 0.90722 0.50844 0.01754 0.0
C764 C 0.89079 0.48011 0.03392 0.0
C765 C 0.87912 0.50279 0.94448 0.0
C766 C 0.86393 0.51175 0.95817 0.0
C767 C 0.85266 0.51651 0.89911 0.0
C768 C 0.85705 0.51205 0.82402 0.0
C769 C 0.87268 0.50303 0.80802 0.0
C770 C 0.88375 0.4983 0.86981 0.0
H771 H 0.74456 0.61407 0.43943 0.0
H772 H 0.76924 0.66159 0.52568 0.0
H773 H 0.7755 0.66989 0.39483 0.0
H774 H 0.77379 0.60499 0.29636 0.0
H775 H 0.75778 0.59707 0.22801 0.0
H776 H 0.75378 0.59544 0.32819 0.0
H777 H 0.72487 0.61233 0.31116 0.0
H778 H 0.72876 0.61397 0.21066 0.0
H779 H 0.72507 0.63334 0.26715 0.0
H780 H 0.78213 0.67152 0.25651 0.0
H781 H 0.7873 0.66686 0.11908 0.0
H782 H 0.75693 0.61942 0.12146 0.0
C783 C 0.75101 0.62638 0.43179 0.0
C784 C 0.75653 0.63698 0.49454 0.0
C785 C 0.76504 0.65296 0.47986 0.0
C786 C 0.76858 0.65792 0.40526 0.0
C787 C 0.76328 0.64695 0.34543 0.0
C788 C 0.75449 0.63162 0.35772 0.0
C789 C 0.7509 0.62177 0.2836 0.0
C790 C 0.75959 0.60376 0.28411 0.0
C791 C 0.73123 0.62027 0.26719 0.0
C792 C 0.75955 0.63373 0.22794 0.0
C793 C 0.76655 0.64822 0.26487 0.0
C794 C 0.77642 0.66043 0.22674 0.0
C795 C 0.77935 0.65766 0.14905 0.0
C796 C 0.77233 0.64292 0.11029 0.0
C797 C 0.76205 0.63098 0.14988 0.0
H798 H 0.61227 0.48147 0.64954 0.0
H799 H 0.63631 0.52864 0.74124 0.0
H800 H 0.64266 0.53804 0.61175 0.0
H801 H 0.64218 0.47456 0.49873 0.0
H802 H 0.62603 0.46691 0.43048 0.0
H803 H 0.62273 0.46394 0.53064 0.0
H804 H 0.59316 0.47992 0.5204 0.0
H805 H 0.59639 0.48297 0.42015 0.0
H806 H 0.59238 0.50146 0.48162 0.0
H807 H 0.6477 0.54195 0.47441 0.0
H808 H 0.65112 0.54009 0.33513 0.0
H809 H 0.62317 0.49108 0.32825 0.0
C810 C 0.6187 0.49385 0.64225 0.0
C811 C 0.62394 0.50421 0.70604 0.0
C812 C 0.63248 0.52026 0.69386 0.0
C813 C 0.63601 0.52582 0.62028 0.0
C814 C 0.63084 0.51527 0.55893 0.0
C815 C 0.62234 0.49964 0.56876 0.0
C816 C 0.61867 0.49064 0.4925 0.0
C817 C 0.62796 0.47297 0.48784 0.0
C818 C 0.59898 0.48863 0.47782 0.0
C819 C 0.6266 0.5036 0.43866 0.0
C820 C 0.63351 0.51771 0.47854 0.0
C821 C 0.64223 0.53105 0.44242 0.0
C822 C 0.64416 0.52987 0.36348 0.0
C823 C 0.63734 0.51552 0.32122 0.0
C824 C 0.62822 0.50233 0.35923 0.0
H825 H 0.74037 0.40978 0.6114 0.0
H826 H 0.74889 0.35669 0.53254 0.0
H827 H 0.75506 0.34795 0.66397 0.0
H828 H 0.77344 0.41094 0.75431 0.0
H829 H 0.76114 0.4234 0.82241 0.0
H830 H 0.75674 0.42565 0.72209 0.0
H831 H 0.72435 0.4179 0.74246 0.0
H832 H 0.72862 0.41566 0.84297 0.0
H833 H 0.71887 0.39794 0.78896 0.0
H834 H 0.76225 0.34508 0.80188 0.0
H835 H 0.76852 0.34804 0.93972 0.0
H836 H 0.75379 0.40234 0.93388 0.0
C837 C 0.74326 0.39626 0.6216 0.0
C838 C 0.74433 0.38402 0.56046 0.0
C839 C 0.74835 0.36648 0.57728 0.0
C840 C 0.75175 0.36131 0.65218 0.0
C841 C 0.75089 0.37372 0.71052 0.0
C842 C 0.74656 0.3908 0.6965 0.0
C843 C 0.74679 0.40153 0.77004 0.0
C844 C 0.76033 0.41625 0.767 0.0
C845 C 0.72857 0.40868 0.7871 0.0
C846 C 0.75219 0.38785 0.82721 0.0
C847 C 0.75451 0.37192 0.79127 0.0
C848 C 0.76031 0.35743 0.83076 0.0
C849 C 0.76392 0.35925 0.90891 0.0
C850 C 0.76159 0.37538 0.94736 0.0
C851 C 0.75544 0.38982 0.90598 0.0
H852 H 0.13748 0.48333 0.84341 0.0
H853 H 0.13096 0.53538 0.75617 0.0
H854 H 0.12928 0.54705 0.88709 0.0
H855 H 0.10764 0.48801 0.99615 0.0
H856 H 0.12022 0.4755 0.06314 0.0
H857 H 0.12199 0.47114 0.96259 0.0
H858 H 0.15534 0.4758 0.97266 0.0
H859 H 0.15365 0.48023 0.07331 0.0
H860 H 0.16382 0.49586 1.01288 0.0
H861 H 0.12695 0.55317 0.02547 0.0
H862 H 0.12335 0.55334 0.16453 0.0
H863 H 0.13137 0.49759 0.16728 0.0
C864 C 0.13589 0.49719 0.85218 0.0
C865 C 0.13419 0.50842 0.78923 0.0
C866 C 0.13196 0.52647 0.80304 0.0
C867 C 0.13115 0.53325 0.87739 0.0
C868 C 0.13262 0.52187 0.93798 0.0
C869 C 0.13494 0.50422 0.92657 0.0
C870 C 0.13536 0.49487 1.00236 0.0
C871 C 0.12041 0.4816 1.00627 0.0
C872 C 0.1531 0.48618 0.0161 0.0
C873 C 0.13269 0.51002 0.05773 0.0
C874 C 0.13128 0.52546 0.01896 0.0
C875 C 0.12812 0.54118 0.05649 0.0
C876 C 0.12603 0.54115 0.13551 0.0
C877 C 0.12708 0.52552 0.17686 0.0
C878 C 0.13076 0.50977 0.13738 0.0
H879 H 0.23568 0.39587 0.91512 0.0
H880 H 0.27254 0.35531 0.96898 0.0
H881 H 0.28126 0.35368 0.83342 0.0
H882 H 0.22211 0.38036 0.73042 0.0
H883 H 0.22113 0.40165 0.68927 0.0
H884 H 0.21754 0.39913 0.78949 0.0
H885 H 0.24218 0.42133 0.82087 0.0
H886 H 0.24577 0.42399 0.72074 0.0
H887 H 0.26355 0.41781 0.78274 0.0
H888 H 0.28444 0.35556 0.69016 0.0
H889 H 0.28471 0.36342 0.55345 0.0
H890 H 0.24788 0.40466 0.59729 0.0
C891 C 0.24557 0.38669 0.89781 0.0
C892 C 0.25342 0.37559 0.95115 0.0
C893 C 0.26649 0.36385 0.92799 0.0
C894 C 0.27141 0.36282 0.85147 0.0
C895 C 0.26334 0.3739 0.79974 0.0
C896 C 0.25093 0.38584 0.82226 0.0
C897 C 0.24484 0.39686 0.75652 0.0
C898 C 0.22524 0.39434 0.7405 0.0
C899 C 0.24936 0.41614 0.7711 0.0
C900 C 0.2556 0.38914 0.69319 0.0
C901 C 0.266 0.37573 0.71885 0.0
C902 C 0.27653 0.36617 0.66968 0.0
C903 C 0.27658 0.37062 0.5925 0.0
C904 C 0.26647 0.38468 0.56621 0.0
C905 C 0.25586 0.394 0.61701 0.0
H906 H 0.38345 0.52322 0.72632 0.0
H907 H 0.36142 0.47119 0.71346 0.0
H908 H 0.36262 0.47162 0.57412 0.0
H909 H 0.36149 0.53983 0.56228 0.0
H910 H 0.37969 0.5523 0.5294 0.0
H911 H 0.37761 0.54808 0.62937 0.0
H912 H 0.40836 0.53436 0.63257 0.0
H913 H 0.4106 0.53868 0.53273 0.0
H914 H 0.41335 0.51688 0.56699 0.0
H915 H 0.36461 0.47778 0.43735 0.0
H916 H 0.36973 0.48848 0.30865 0.0
H917 H 0.39165 0.53621 0.40478 0.0
C918 C 0.37912 0.51185 0.69415 0.0
C919 C 0.37206 0.49727 0.73124 0.0
C920 C 0.36646 0.48268 0.68676 0.0
C921 C 0.36718 0.48274 0.60735 0.0
C922 C 0.37373 0.49742 0.57256 0.0
C923 C 0.37983 0.51164 0.61412 0.0
C924 C 0.38623 0.52568 0.56135 0.0
C925 C 0.37562 0.54247 0.57121 0.0
C926 C 0.4058 0.5291 0.57418 0.0
C927 C 0.38262 0.5171 0.48407 0.0
C928 C 0.3753 0.50085 0.49234 0.0
C929 C 0.37039 0.49047 0.42998 0.0
C930 C 0.37321 0.49675 0.35694 0.0
C931 C 0.38097 0.51325 0.34639 0.0
C932 C 0.38574 0.52354 0.4111 0.0
H933 H 0.22651 0.61861 0.14342 0.0
H934 H 0.25338 0.66641 0.09221 0.0
H935 H 0.26122 0.67044 0.22929 0.0
H936 H 0.20933 0.63143 0.32453 0.0
H937 H 0.21298 0.61053 0.36679 0.0
H938 H 0.20904 0.612 0.26579 0.0
H939 H 0.23795 0.59578 0.23997 0.0
H940 H 0.24191 0.59418 0.34086 0.0
H941 H 0.25798 0.60406 0.28163 0.0
H942 H 0.26493 0.66942 0.375 0.0
H943 H 0.26746 0.66156 0.51158 0.0
H944 H 0.23994 0.61341 0.46257 0.0
C945 C 0.23395 0.62997 0.16136 0.0
C946 C 0.23919 0.64235 0.10793 0.0
C947 C 0.24926 0.65685 0.13273 0.0
C948 C 0.25366 0.65925 0.21031 0.0
C949 C 0.24812 0.64684 0.26186 0.0
C950 C 0.23873 0.63233 0.23794 0.0
C951 C 0.23514 0.62037 0.30335 0.0
C952 C 0.21545 0.61848 0.31583 0.0
C953 C 0.24376 0.60255 0.29069 0.0
C954 C 0.24386 0.63041 0.36817 0.0
C955 C 0.25107 0.64579 0.34369 0.0
C956 C 0.25945 0.65735 0.39448 0.0
C957 C 0.26076 0.65287 0.47176 0.0
C958 C 0.25402 0.63687 0.49685 0.0
C959 C 0.24536 0.62564 0.44437 0.0
H960 H 0.35685 0.06902 0.04847 0.0
H961 H 0.35874 0.03378 0.23852 0.0
H962 H 0.33732 0.05155 0.30585 0.0
H963 H 0.3503 0.10959 0.16587 0.0
H964 H 0.33559 0.11874 0.09639 0.0
H965 H 0.35279 0.10443 0.06623 0.0
H966 H 0.33004 0.08463 0.99705 0.0
H967 H 0.31278 0.09875 0.02757 0.0
H968 H 0.31215 0.07597 0.04981 0.0
H969 H 0.31274 0.0701 0.34449 0.0
H970 H 0.28821 0.09058 0.3581 0.0
H971 H 0.30261 0.11535 0.14834 0.0
C972 C 0.35313 0.06535 0.10515 0.0
C973 C 0.3596 0.04995 0.13828 0.0
C974 C 0.35408 0.04545 0.21194 0.0
C975 C 0.34187 0.0555 0.25079 0.0
C976 C 0.3353 0.0702 0.21571 0.0
C977 C 0.34088 0.07535 0.14514 0.0
C978 C 0.33088 0.09125 0.11892 0.0
C979 C 0.34312 0.10693 0.11143 0.0
C980 C 0.32087 0.08741 0.04391 0.0
C981 C 0.31853 0.09381 0.18475 0.0
C982 C 0.32134 0.08147 0.23982 0.0
C983 C 0.31064 0.0801 0.30275 0.0
C984 C 0.29671 0.09169 0.30982 0.0
C985 C 0.29376 0.10462 0.25493 0.0
C986 C 0.3049 0.10581 0.192 0.0
H987 H 0.14077 0.05603 0.29343 0.0
H988 H 0.15151 0.05266 0.53597 0.0
H989 H 0.17163 0.07763 0.52863 0.0
H990 H 0.18368 0.06496 0.24129 0.0
H991 H 0.17798 0.07973 0.16639 0.0
H992 H 0.16297 0.0629 0.19207 0.0
H993 H 0.13914 0.08603 0.21567 0.0
H994 H 0.1541 0.10297 0.19007 0.0
H995 H 0.14352 0.10392 0.28081 0.0
H996 H 0.19253 0.10135 0.49324 0.0
H997 H 0.21283 0.12157 0.43228 0.0
H998 H 0.18867 0.10973 0.21254 0.0
C999 C 0.14702 0.06079 0.34539 0.0
C1000 C 0.14437 0.05242 0.41551 0.0
C1001 C 0.15321 0.05885 0.48167 0.0
C1002 C 0.16466 0.07308 0.4781 0.0
C1003 C 0.16719 0.08083 0.40794 0.0
C1004 C 0.15859 0.07495 0.34275 0.0
C1005 C 0.16456 0.08478 0.27358 0.0
C1006 C 0.17279 0.07235 0.2149 0.0
C1007 C 0.14943 0.09503 0.23794 0.0
C1008 C 0.17808 0.09691 0.3098 0.0
C1009 C 0.17928 0.09451 0.38748 0.0
C1010 C 0.19153 0.10348 0.43262 0.0
C1011 C 0.20304 0.11495 0.39742 0.0
C1012 C 0.20228 0.11743 0.31768 0.0
C1013 C 0.18937 0.10846 0.27378 0.0
H1014 H 0.22499 0.91694 0.63131 0.0
H1015 H 0.18766 0.87532 0.66317 0.0
H1016 H 0.16451 0.89354 0.60681 0.0
H1017 H 0.19732 0.95086 0.68537 0.0
H1018 H 0.20533 0.9662 0.61777 0.0
H1019 H 0.21933 0.94923 0.65203 0.0
H1020 H 0.22471 0.93888 0.51337 0.0
H1021 H 0.2107 0.95587 0.4786 0.0
H1022 H 0.2064 0.93353 0.45182 0.0
H1023 H 0.14513 0.91686 0.557 0.0
H1024 H 0.13037 0.944 0.52192 0.0
H1025 H 0.18006 0.97099 0.52371 0.0
C1026 C 0.21201 0.9115 0.62515 0.0
C1027 C 0.20815 0.89461 0.65123 0.0
C1028 C 0.19094 0.88816 0.64345 0.0
C1029 C 0.17772 0.8984 0.61121 0.0
C1030 C 0.18194 0.91506 0.58709 0.0
C1031 C 0.19865 0.9216 0.59374 0.0
C1032 C 0.19944 0.9404 0.56901 0.0
C1033 C 0.20572 0.95237 0.63498 0.0
C1034 C 0.211 0.94227 0.49903 0.0
C1035 C 0.18045 0.94357 0.54896 0.0
C1036 C 0.17066 0.92868 0.55894 0.0
C1037 C 0.15268 0.92853 0.54823 0.0
C1038 C 0.14442 0.94405 0.52841 0.0
C1039 C 0.15408 0.9596 0.51967 0.0
C1040 C 0.17239 0.95925 0.52863 0.0
H1041 H 0.33085 0.97266 1.00701 0.0
H1042 H 0.37782 0.94152 1.01108 0.0
H1043 H 0.3619 0.91741 0.94548 0.0
H1044 H 0.29935 0.9373 0.03068 0.0
H1045 H 0.28384 0.94676 0.9655 0.0
H1046 H 0.29848 0.96056 0.02039 0.0
H1047 H 0.30921 0.97433 0.89578 0.0
H1048 H 0.29482 0.96039 0.84045 0.0
H1049 H 0.31782 0.96049 0.82176 0.0
H1050 H 0.34088 0.89707 0.87661 0.0
H1051 H 0.31659 0.88234 0.80683 0.0
H1052 H 0.28437 0.92799 0.83933 0.0
C1053 C 0.33765 0.96059 0.99592 0.0
C1054 C 0.35544 0.95875 0.01514 0.0
C1055 C 0.36411 0.94303 0.99744 0.0
C1056 C 0.3552 0.92932 0.96019 0.0
C1057 C 0.33773 0.9317 0.94033 0.0
C1058 C 0.32906 0.94696 0.95752 0.0
C1059 C 0.31068 0.94677 0.92525 0.0
C1060 C 0.2973 0.94791 0.98928 0.0
C1061 C 0.30799 0.96136 0.86738 0.0
C1062 C 0.31038 0.92906 0.88669 0.0
C1063 C 0.326 0.92046 0.89686 0.0
C1064 C 0.32862 0.90371 0.86798 0.0
C1065 C 0.31481 0.89548 0.82834 0.0
C1066 C 0.29879 0.90418 0.81688 0.0
C1067 C 0.29663 0.92121 0.84596 0.0
H1068 H 0.70717 0.92521 0.72663 0.0
H1069 H 0.6996 0.88748 0.9038 0.0
H1070 H 0.67486 0.90463 0.95253 0.0
H1071 H 0.69731 0.96305 0.83421 0.0
H1072 H 0.6857 0.97374 0.75833 0.0
H1073 H 0.70252 0.9583 0.73644 0.0
H1074 H 0.68068 0.94056 0.65199 0.0
H1075 H 0.66381 0.95601 0.67375 0.0
H1076 H 0.66053 0.93325 0.69192 0.0
H1077 H 0.65311 0.92765 0.99028 0.0
H1078 H 0.63385 0.95327 1.00548 0.0
H1079 H 0.65337 0.9742 0.79592 0.0
C1080 C 0.70018 0.92052 0.77527 0.0
C1081 C 0.70527 0.90507 0.8117 0.0
C1082 C 0.69581 0.89925 0.87489 0.0
C1083 C 0.68179 0.90892 0.90308 0.0
C1084 C 0.67714 0.92417 0.86629 0.0
C1085 C 0.68584 0.92978 0.80288 0.0
C1086 C 0.67812 0.94655 0.77355 0.0
C1087 C 0.69172 0.96128 0.77581 0.0
C1088 C 0.67032 0.94393 0.69303 0.0
C1089 C 0.66401 0.9497 0.83139 0.0
C1090 C 0.66376 0.93674 0.88492 0.0
C1091 C 0.65289 0.93765 0.94772 0.0
C1092 C 0.64203 0.95221 0.95602 0.0
C1093 C 0.64188 0.9654 0.90092 0.0
C1094 C 0.65287 0.96399 0.83754 0.0
H1095 H 0.81212 0.90424 0.81116 0.0
H1096 H 0.78563 0.89775 0.59266 0.0
H1097 H 0.8062 0.91839 0.53587 0.0
H1098 H 0.81835 0.94933 0.79793 0.0
H1099 H 0.83942 0.94979 0.84467 0.0
H1100 H 0.82404 0.93295 0.86615 0.0
H1101 H 0.84674 0.90947 0.8307 0.0
H1102 H 0.86223 0.92626 0.80933 0.0
H1103 H 0.85669 0.90986 0.73856 0.0
H1104 H 0.82841 0.94124 0.50468 0.0
H1105 H 0.84983 0.96514 0.50211 0.0
H1106 H 0.86148 0.95766 0.74199 0.0
C1107 C 0.81094 0.90682 0.75091 0.0
C1108 C 0.79738 0.89918 0.70608 0.0
C1109 C 0.79595 0.90334 0.628 0.0
C1110 C 0.80761 0.91503 0.5952 0.0
C1111 C 0.82062 0.9226 0.64124 0.0
C1112 C 0.82234 0.91868 0.71747 0.0
C1113 C 0.83657 0.92964 0.75567 0.0
C1114 C 0.82914 0.9411 0.81988 0.0
C1115 C 0.85144 0.91811 0.7853 0.0
C1116 C 0.84239 0.94051 0.68936 0.0
C1117 C 0.83315 0.93609 0.62369 0.0
C1118 C 0.8358 0.94471 0.55566 0.0
C1119 C 0.84803 0.95831 0.55483 0.0
C1120 C 0.85746 0.96335 0.62174 0.0
C1121 C 0.85466 0.9541 0.68961 0.0
H1122 H 0.83242 0.04516 0.49318 0.0
H1123 H 0.88406 0.06771 0.47748 0.0
H1124 H 0.87116 0.09527 0.43471 0.0
H1125 H 0.81521 0.0639 0.32716 0.0
H1126 H 0.7938 0.0677 0.36432 0.0
H1127 H 0.80691 0.05025 0.40074 0.0
H1128 H 0.80397 0.06282 0.53764 0.0
H1129 H 0.7908 0.08031 0.50165 0.0
H1130 H 0.81015 0.08507 0.55758 0.0
H1131 H 0.85282 0.11978 0.3851 0.0
H1132 H 0.8303 0.13933 0.33268 0.0
H1133 H 0.79067 0.10081 0.38022 0.0
C1134 C 0.84098 0.05601 0.48212 0.0
C1135 C 0.85924 0.05432 0.48908 0.0
C1136 C 0.87002 0.06872 0.47277 0.0
C1137 C 0.86282 0.08445 0.44854 0.0
C1138 C 0.84479 0.08563 0.44099 0.0
C1139 C 0.834 0.07183 0.45758 0.0
C1140 C 0.81512 0.0762 0.44069 0.0
C1141 C 0.80731 0.06378 0.37959 0.0
C1142 C 0.80438 0.0761 0.51375 0.0
C1143 C 0.81704 0.09447 0.41083 0.0
C1144 C 0.83424 0.09973 0.41197 0.0
C1145 C 0.83928 0.11587 0.38456 0.0
C1146 C 0.82639 0.12688 0.35478 0.0
C1147 C 0.80869 0.12169 0.35241 0.0
C1148 C 0.80404 0.10529 0.38158 0.0
H1149 H 0.73137 0.08612 0.18913 0.0
H1150 H 0.70088 0.13355 0.19384 0.0
H1151 H 0.67544 0.11736 0.1419 0.0
H1152 H 0.71289 0.06881 1.01239 0.0
H1153 H 0.71322 0.04661 0.0437 0.0
H1154 H 0.72914 0.06193 0.08062 0.0
H1155 H 0.72 0.05512 0.21832 0.0
H1156 H 0.70411 0.03975 0.18186 0.0
H1157 H 0.69748 0.05728 0.24408 0.0
H1158 H 0.65309 0.09595 0.09548 0.0
H1159 H 0.63524 0.0707 0.05421 0.0
H1160 H 0.68046 0.03728 0.0744 0.0
C1161 C 0.71934 0.09309 0.17923 0.0
C1162 C 0.71804 0.11107 0.19569 0.0
C1163 C 0.70213 0.11977 0.18153 0.0
C1164 C 0.68763 0.1107 0.15204 0.0
C1165 C 0.68933 0.09298 0.13639 0.0
C1166 C 0.70478 0.08426 0.1491 0.0
C1167 C 0.70308 0.06517 0.12758 0.0
C1168 C 0.71531 0.06035 0.06218 0.0
C1169 C 0.70636 0.05366 0.19711 0.0
C1170 C 0.68419 0.06449 0.10173 0.0
C1171 C 0.67651 0.08068 0.10742 0.0
C1172 C 0.65897 0.08324 0.09006 0.0
C1173 C 0.64896 0.06882 0.06681 0.0
C1174 C 0.65654 0.05212 0.0606 0.0
C1175 C 0.67442 0.04997 0.07752 0.0
H1176 H 0.80519 0.5885 0.80794 0.0
H1177 H 0.81432 0.63333 0.66737 0.0
H1178 H 0.8416 0.6201 0.62207 0.0
H1179 H 0.85134 0.58152 0.86147 0.0
H1180 H 0.84922 0.55818 0.85889 0.0
H1181 H 0.83082 0.57151 0.88348 0.0
H1182 H 0.81241 0.5568 0.7755 0.0
H1183 H 0.83068 0.54335 0.75139 0.0
H1184 H 0.82048 0.55656 0.67972 0.0
H1185 H 0.86577 0.6004 0.57986 0.0
H1186 H 0.88574 0.57611 0.54898 0.0
H1187 H 0.86304 0.54558 0.72688 0.0
C1188 C 0.81302 0.59556 0.76809 0.0
C1189 C 0.80764 0.61191 0.7409 0.0
C1190 C 0.81825 0.62082 0.68908 0.0
C1191 C 0.83378 0.61342 0.66312 0.0
C1192 C 0.83874 0.59726 0.69082 0.0
C1193 C 0.8288 0.58852 0.74289 0.0
C1194 C 0.83687 0.57113 0.76212 0.0
C1195 C 0.84239 0.57056 0.84651 0.0
C1196 C 0.82437 0.55608 0.74087 0.0
C1197 C 0.85259 0.57125 0.71107 0.0
C1198 C 0.85342 0.58643 0.67024 0.0
C1199 C 0.8656 0.58869 0.61316 0.0
C1200 C 0.87696 0.57493 0.59625 0.0
C1201 C 0.8763 0.55934 0.6375 0.0
C1202 C 0.86424 0.55766 0.69668 0.0
H1203 H 0.70823 0.62124 0.9945 0.0
H1204 H 0.7162 0.60623 0.75895 0.0
H1205 H 0.69279 0.58442 0.76647 0.0
H1206 H 0.70098 0.57841 0.06057 0.0
H1207 H 0.68447 0.58438 0.1278 0.0
H1208 H 0.70087 0.59994 0.10269 0.0
H1209 H 0.67682 0.62164 0.06274 0.0
H1210 H 0.66033 0.60612 0.08768 0.0
H1211 H 0.66047 0.61498 0.99339 0.0
H1212 H 0.66978 0.56322 0.8001 0.0
H1213 H 0.64917 0.54316 0.85917 0.0
H1214 H 0.65559 0.57103 0.07458 0.0
C1215 C 0.7048 0.61353 0.94434 0.0
C1216 C 0.7141 0.61537 0.87602 0.0
C1217 C 0.70947 0.60486 0.81201 0.0
C1218 C 0.69606 0.59253 0.81558 0.0
C1219 C 0.68733 0.59076 0.88384 0.0
C1220 C 0.69148 0.60092 0.94726 0.0
C1221 C 0.68068 0.59551 1.01478 0.0
C1222 C 0.69245 0.58918 0.08032 0.0
C1223 C 0.66887 0.61046 0.04119 0.0
C1224 C 0.67003 0.58063 0.97946 0.0
C1225 C 0.67401 0.57828 0.90364 0.0
C1226 C 0.66646 0.56501 0.8593 0.0
C1227 C 0.65475 0.55363 0.89347 0.0
C1228 C 0.65062 0.55548 0.97145 0.0
C1229 C 0.65823 0.56938 1.01457 0.0
H1230 H 0.64354 0.45828 0.1525 0.0
H1231 H 0.66361 0.46041 0.92403 0.0
H1232 H 0.68032 0.4334 0.9464 0.0
H1233 H 0.68338 0.44691 0.23628 0.0
H1234 H 0.6743 0.43321 0.3079 0.0
H1235 H 0.6616 0.45069 0.26939 0.0
H1236 H 0.63709 0.42887 0.23153 0.0
H1237 H 0.64982 0.41126 0.26944 0.0
H1238 H 0.64203 0.41026 0.17215 0.0
H1239 H 0.69621 0.40753 0.99591 0.0
H1240 H 0.71361 0.3874 0.07353 0.0
H1241 H 0.6853 0.40344 0.27421 0.0
C1242 C 0.6511 0.45272 0.10671 0.0
C1243 C 0.65207 0.46106 0.03596 0.0
C1244 C 0.66261 0.45398 0.97819 0.0
C1245 C 0.67202 0.43862 0.99029 0.0
C1246 C 0.67094 0.43072 0.06098 0.0
C1247 C 0.66096 0.43766 0.1187 0.0
C1248 C 0.664 0.42808 0.19254 0.0
C1249 C 0.67126 0.44046 0.25518 0.0
C1250 C 0.64723 0.41908 0.21788 0.0
C1251 C 0.6775 0.41489 0.16777 0.0
C1252 C 0.68096 0.41636 0.09116 0.0
C1253 C 0.69356 0.40623 0.05584 0.0
C1254 C 0.70344 0.39485 0.10053 0.0
C1255 C 0.70093 0.39391 0.18006 0.0
C1256 C 0.68734 0.40362 0.21341 0.0
H1257 H 0.80701 0.40767 0.32408 0.0
H1258 H 0.76255 0.44105 0.28059 0.0
H1259 H 0.77931 0.46635 0.32819 0.0
H1260 H 0.82199 0.4288 0.49549 0.0
H1261 H 0.84482 0.42685 0.47493 0.0
H1262 H 0.82955 0.41107 0.4365 0.0
H1263 H 0.83996 0.41726 0.30009 0.0
H1264 H 0.85538 0.43295 0.33818 0.0
H1265 H 0.83975 0.43925 0.2662 0.0
H1266 H 0.79966 0.48756 0.38757 0.0
H1267 H 0.82409 0.50461 0.44245 0.0
H1268 H 0.85655 0.45848 0.44082 0.0
C1269 C 0.8009 0.42034 0.32411 0.0
C1270 C 0.78348 0.42241 0.29872 0.0
C1271 C 0.77591 0.43917 0.29937 0.0
C1272 C 0.78528 0.45362 0.32666 0.0
C1273 C 0.80231 0.45116 0.35218 0.0
C1274 C 0.81021 0.43505 0.35009 0.0
C1275 C 0.82886 0.43623 0.3798 0.0
C1276 C 0.83145 0.42507 0.4509 0.0
C1277 C 0.84175 0.43112 0.31733 0.0
C1278 C 0.83005 0.45548 0.39952 0.0
C1279 C 0.81447 0.46373 0.38384 0.0
C1280 C 0.812 0.48132 0.3995 0.0
C1281 C 0.82591 0.49086 0.43112 0.0
C1282 C 0.84217 0.48285 0.44573 0.0
C1283 C 0.84426 0.46492 0.42978 0.0
H1284 H 0.14911 0.44145 0.48541 0.0
H1285 H 0.14524 0.47706 0.29708 0.0
H1286 H 0.16852 0.46129 0.23122 0.0
H1287 H 0.19402 0.43791 0.48926 0.0
H1288 H 0.1951 0.41505 0.5097 0.0
H1289 H 0.17654 0.42758 0.53885 0.0
H1290 H 0.15589 0.40637 0.46515 0.0
H1291 H 0.17439 0.39361 0.43659 0.0
H1292 H 0.15947 0.40185 0.36568 0.0
H1293 H 0.19502 0.44502 0.19542 0.0
H1294 H 0.22106 0.42646 0.1834 0.0
H1295 H 0.20721 0.39964 0.38895 0.0
C1296 C 0.15278 0.44552 0.42919 0.0
C1297 C 0.14542 0.46056 0.39648 0.0
C1298 C 0.15082 0.46573 0.32357 0.0
C1299 C 0.16402 0.4568 0.28554 0.0
C1300 C 0.17158 0.44254 0.32063 0.0
C1301 C 0.16597 0.43665 0.39002 0.0
C1302 C 0.17705 0.42149 0.41654 0.0
C1303 C 0.18622 0.42577 0.49311 0.0
C1304 C 0.16604 0.40484 0.42125 0.0
C1305 C 0.19001 0.4202 0.35239 0.0
C1306 C 0.1866 0.43254 0.29787 0.0
C1307 C 0.1976 0.43502 0.23668 0.0
C1308 C 0.21241 0.42453 0.2306 0.0
C1309 C 0.21596 0.41155 0.28467 0.0
C1310 C 0.20454 0.40926 0.34601 0.0
H1311 H 0.29791 0.41351 0.15331 0.0
H1312 H 0.32739 0.38294 0.31583 0.0
H1313 H 0.35334 0.40095 0.29378 0.0
H1314 H 0.33423 0.42115 0.02124 0.0
H1315 H 0.32735 0.44305 1.00192 0.0
H1316 H 0.31148 0.42673 0.0248 0.0
H1317 H 0.30044 0.44629 0.13509 0.0
H1318 H 0.31629 0.46262 0.11273 0.0
H1319 H 0.31564 0.45399 0.20738 0.0
H1320 H 0.37528 0.42416 0.2649 0.0
H1321 H 0.39184 0.45009 0.22666 0.0
H1322 H 0.34869 0.46528 0.08003 0.0
C1323 C 0.30992 0.41034 0.183 0.0
C1324 C 0.31055 0.39669 0.23617 0.0
C1325 C 0.32651 0.39324 0.27465 0.0
C1326 C 0.34137 0.40342 0.2625 0.0
C1327 C 0.34021 0.417 0.21119 0.0
C1328 C 0.32495 0.42039 0.17142 0.0
C1329 C 0.32698 0.43634 0.12244 0.0
C1330 C 0.32489 0.43152 0.03755 0.0
C1331 C 0.31407 0.45065 0.14584 0.0
C1332 C 0.34562 0.44157 0.14213 0.0
C1333 C 0.35303 0.43021 0.19332 0.0
C1334 C 0.36971 0.43297 0.22379 0.0
C1335 C 0.37903 0.44777 0.20181 0.0
C1336 C 0.37173 0.45961 0.1494 0.0
C1337 C 0.35485 0.45628 0.11871 0.0
H1338 H 0.31638 0.6107 0.80974 0.0
H1339 H 0.27405 0.60827 0.97008 0.0
H1340 H 0.29006 0.58613 0.04258 0.0
H1341 H 0.32538 0.56649 0.80232 0.0
H1342 H 0.34871 0.56869 0.79762 0.0
H1343 H 0.33487 0.58569 0.76237 0.0
H1344 H 0.35049 0.60812 0.85156 0.0
H1345 H 0.36454 0.5912 0.88657 0.0
H1346 H 0.35201 0.60411 0.95223 0.0
H1347 H 0.30872 0.5613 0.08721 0.0
H1348 H 0.33035 0.53798 0.10872 0.0
H1349 H 0.36131 0.5577 0.92484 0.0
C1350 C 0.31064 0.60583 0.86108 0.0
C1351 C 0.29391 0.61126 0.8839 0.0
C1352 C 0.28685 0.6044 0.95126 0.0
C1353 C 0.29583 0.59176 0.99289 0.0
C1354 C 0.31201 0.58626 0.96734 0.0
C1355 C 0.31952 0.59332 0.90384 0.0
C1356 C 0.33678 0.58468 0.8869 0.0
C1357 C 0.3364 0.57587 0.80762 0.0
C1358 C 0.35185 0.59781 0.89482 0.0
C1359 C 0.33756 0.57137 0.94949 0.0
C1360 C 0.32312 0.57245 0.99515 0.0
C1361 C 0.32027 0.56058 0.05291 0.0
C1362 C 0.33255 0.54734 0.06449 0.0
C1363 C 0.34757 0.54624 0.01921 0.0
C1364 C 0.35012 0.5585 0.96143 0.0
H1365 H 0.17456 0.53691 0.56452 0.0
H1366 H 0.1271 0.56726 0.55389 0.0
H1367 H 0.14275 0.59238 0.61318 0.0
H1368 H 0.18852 0.55279 0.7475 0.0
H1369 H 0.21132 0.55261 0.72488 0.0
H1370 H 0.19661 0.53748 0.67795 0.0
H1371 H 0.20624 0.54851 0.54645 0.0
H1372 H 0.22105 0.56361 0.59293 0.0
H1373 H 0.20486 0.57139 0.52644 0.0
H1374 H 0.16407 0.61434 0.67086 0.0
H1375 H 0.18875 0.63076 0.72962 0.0
H1376 H 0.22136 0.58503 0.71011 0.0
C1377 C 0.16751 0.54891 0.5738 0.0
C1378 C 0.14971 0.5503 0.5538 0.0
C1379 C 0.1408 0.56604 0.56847 0.0
C1380 C 0.14957 0.58033 0.60201 0.0
C1381 C 0.16714 0.5785 0.62142 0.0
C1382 C 0.17596 0.56313 0.60839 0.0
C1383 C 0.19458 0.5642 0.6374 0.0
C1384 C 0.19795 0.55099 0.7007 0.0
C1385 C 0.20744 0.56179 0.57189 0.0
C1386 C 0.19495 0.58264 0.66846 0.0
C1387 C 0.17907 0.59076 0.65807 0.0
C1388 C 0.17651 0.60806 0.67985 0.0
C1389 C 0.19057 0.61728 0.71302 0.0
C1390 C 0.20682 0.60906 0.72503 0.0
C1391 C 0.20897 0.59152 0.70273 0.0
H1392 H 0.46502 0.99057 0.03961 0.0
H1393 H 0.45568 0.04616 0.05529 0.0
H1394 H 0.48735 0.05152 0.04955 0.0
H1395 H 0.50401 0.99005 0.15282 0.0
H1396 H 0.51444 0.9736 0.09547 0.0
H1397 H 0.49106 0.97414 0.10075 0.0
H1398 H 0.48876 0.97574 0.95378 0.0
H1399 H 0.51215 0.97523 0.94802 0.0
H1400 H 0.5001 0.99274 0.90536 0.0
H1401 H 0.51987 0.05083 0.04288 0.0
H1402 H 0.55124 0.04424 0.03812 0.0
H1403 H 0.53953 0.98907 0.02334 0.0
C1404 C 0.46957 0.0039 0.04092 0.0
C1405 C 0.4578 0.01797 0.04765 0.0
C1406 C 0.46441 0.03517 0.05095 0.0
C1407 C 0.48237 0.03835 0.04716 0.0
C1408 C 0.49355 0.02419 0.03995 0.0
C1409 C 0.48743 0.0073 0.03689 0.0
C1410 C 0.50223 0.99439 0.02988 0.0
C1411 C 0.50297 0.98234 0.09885 0.0
C1412 C 0.50071 0.98391 0.95478 0.0
C1413 C 0.51768 0.00665 0.02974 0.0
C1414 C 0.51235 0.02378 0.03558 0.0
C1415 C 0.5242 0.03748 0.03828 0.0
C1416 C 0.54198 0.0336 0.03583 0.0
C1417 C 0.54779 0.01615 0.03074 0.0
C1418 C 0.53544 1.00252 0.02664 0.0
H1419 H 0.25385 0.29604 0.35432 0.0
H1420 H 0.26321 0.30601 0.11596 0.0
H1421 H 0.25952 0.27483 0.08601 0.0
H1422 H 0.2765 0.25519 0.36119 0.0
H1423 H 0.2613 0.2452 0.42428 0.0
H1424 H 0.26441 0.26842 0.4273 0.0
H1425 H 0.23132 0.27277 0.40475 0.0
H1426 H 0.22813 0.24955 0.40101 0.0
H1427 H 0.22081 0.26268 0.3228 0.0
H1428 H 0.25504 0.24277 0.08079 0.0
H1429 H 0.25188 0.21131 0.10206 0.0
H1430 H 0.24513 0.22134 0.34332 0.0
C1431 C 0.25506 0.29167 0.29579 0.0
C1432 C 0.25898 0.30357 0.23762 0.0
C1433 C 0.26058 0.29722 0.16187 0.0
C1434 C 0.25831 0.27951 0.14407 0.0
C1435 C 0.2544 0.26819 0.20248 0.0
C1436 C 0.25288 0.27394 0.27692 0.0
C1437 C 0.24906 0.25885 0.32901 0.0
C1438 C 0.26369 0.25679 0.38898 0.0
C1439 C 0.23127 0.2611 0.36661 0.0
C1440 C 0.2488 0.24373 0.27219 0.0
C1441 C 0.25179 0.24951 0.19948 0.0
C1442 C 0.25265 0.23809 0.13742 0.0
C1443 C 0.25083 0.22024 0.15006 0.0
C1444 C 0.24821 0.21387 0.22421 0.0
C1445 C 0.24685 0.22585 0.28588 0.0
H1446 H 0.04014 0.02777 0.52832 0.0
H1447 H 0.05342 0.97299 0.51324 0.0
H1448 H 0.02239 0.9653 0.50802 0.0
H1449 H 1.00284 0.02314 0.64501 0.0
H1450 H 0.98997 0.03936 0.59733 0.0
H1451 H 0.01337 0.04093 0.59842 0.0
H1452 H 0.01323 0.04177 0.45116 0.0
H1453 H 0.98981 0.04031 0.44965 0.0
H1454 H 1.00246 0.02466 0.39702 0.0
H1455 H 0.9901 0.96306 0.51183 0.0
H1456 H 0.95815 0.9668 0.51364 0.0
H1457 H 0.96502 0.02281 0.52007 0.0
C1458 C 0.0365 0.01419 0.52312 0.0
C1459 C 0.04933 1.001 0.52299 0.0
C1460 C 0.04393 0.98336 0.51582 0.0
C1461 C 0.02629 0.97882 0.51226 0.0
C1462 C 0.014 0.99203 0.51472 0.0
C1463 C 0.01879 0.00937 0.51895 0.0
C1464 C 1.00276 0.0209 0.52045 0.0
C1465 C 1.00221 0.03172 0.59473 0.0
C1466 C 1.00203 0.0326 0.45039 0.0
C1467 C 0.98836 0.0073 0.51717 0.0
C1468 C 0.99518 0.99073 0.51428 0.0
C1469 C 0.98457 0.97598 0.51344 0.0
C1470 C 0.96645 0.97821 0.51495 0.0
C1471 C 0.95909 0.99505 0.5166 0.0
C1472 C 0.97027 0.00976 0.51776 0.0
H1473 H 0.24625 0.72234 0.86393 0.0
H1474 H 0.27006 0.70726 0.65082 0.0
H1475 H 0.27011 0.73799 0.61157 0.0
H1476 H 0.21813 0.75486 0.78928 0.0
H1477 H 0.22071 0.76949 0.86987 0.0
H1478 H 0.223 0.74641 0.88227 0.0
H1479 H 0.25379 0.7511 0.94184 0.0
H1480 H 0.2515 0.77421 0.93046 0.0
H1481 H 0.26985 0.76303 0.89013 0.0
H1482 H 0.26619 0.77026 0.59316 0.0
H1483 H 0.26152 0.802 0.60268 0.0
H1484 H 0.24053 0.79597 0.82841 0.0
C1485 C 0.25157 0.72553 0.80918 0.0
C1486 C 0.25819 0.71242 0.76043 0.0
C1487 C 0.26514 0.71712 0.68947 0.0
C1488 C 0.26507 0.73451 0.66642 0.0
C1489 C 0.25813 0.74706 0.71523 0.0
C1490 C 0.25173 0.74282 0.78559 0.0
C1491 C 0.24519 0.75878 0.82776 0.0
C1492 C 0.22559 0.75729 0.84317 0.0
C1493 C 0.25571 0.76196 0.90192 0.0
C1494 C 0.24881 0.77267 0.76998 0.0
C1495 C 0.25614 0.76563 0.70518 0.0
C1496 C 0.26049 0.77591 0.64371 0.0
C1497 C 0.25764 0.79391 0.64933 0.0
C1498 C 0.25062 0.80146 0.71615 0.0
C1499 C 0.24599 0.79059 0.77674 0.0
H1500 H 0.75337 0.72009 0.87808 0.0
H1501 H 0.74483 0.70593 0.64067 0.0
H1502 H 0.74592 0.73704 0.60665 0.0
H1503 H 0.72699 0.75979 0.87428 0.0
H1504 H 0.74134 0.7713 0.93995 0.0
H1505 H 0.73926 0.74801 0.94485 0.0
H1506 H 0.77267 0.74505 0.93159 0.0
H1507 H 0.77481 0.7683 0.92543 0.0
H1508 H 0.78318 0.75444 0.85096 0.0
H1509 H 0.75042 0.76976 0.59795 0.0
H1510 H 0.75367 0.80159 0.61713 0.0
H1511 H 0.75782 0.79446 0.86089 0.0
C1512 C 0.75147 0.72359 0.81908 0.0
C1513 C 0.74894 0.7106 0.76195 0.0
C1514 C 0.74654 0.71567 0.68539 0.0
C1515 C 0.74731 0.73329 0.66552 0.0
C1516 C 0.75026 0.74574 0.72302 0.0
C1517 C 0.75193 0.74113 0.79846 0.0
C1518 C 0.75475 0.75701 0.84953 0.0
C1519 C 0.73968 0.75915 0.90544 0.0
C1520 C 0.7724 0.75614 0.89186 0.0
C1521 C 0.75463 0.77129 0.79106 0.0
C1522 C 0.75222 0.76452 0.71829 0.0
C1523 C 0.75216 0.77519 0.65478 0.0
C1524 C 0.75418 0.79323 0.66611 0.0
C1525 C 0.75603 0.80049 0.7404 0.0
C1526 C 0.75638 0.78928 0.80345 0.0
H1527 H 0.76204 0.22264 0.20785 0.0
H1528 H 0.76408 0.21446 0.45203 0.0
H1529 H 0.76306 0.24616 0.47392 0.0
H1530 H 0.78688 0.26217 0.20435 0.0
H1531 H 0.77334 0.2718 0.13174 0.0
H1532 H 0.77556 0.24852 0.13527 0.0
H1533 H 0.74203 0.24531 0.14188 0.0
H1534 H 0.7397 0.26858 0.1387 0.0
H1535 H 0.73044 0.25668 0.21577 0.0
H1536 H 0.76157 0.27896 0.4692 0.0
H1537 H 0.75893 0.31013 0.4379 0.0
H1538 H 0.75505 0.29655 0.19791 0.0
C1539 C 0.76214 0.22737 0.26616 0.0
C1540 C 0.7632 0.21582 0.32811 0.0
C1541 C 0.76365 0.22287 0.40326 0.0
C1542 C 0.76291 0.24091 0.41641 0.0
C1543 C 0.76152 0.2518 0.35398 0.0
C1544 C 0.76105 0.24527 0.28036 0.0
C1545 C 0.75883 0.25967 0.22316 0.0
C1546 C 0.77459 0.26059 0.17054 0.0
C1547 C 0.74173 0.25742 0.17718 0.0
C1548 C 0.75811 0.27536 0.27611 0.0
C1549 C 0.75986 0.27056 0.35135 0.0
C1550 C 0.7601 0.28284 0.41055 0.0
C1551 C 0.7586 0.30047 0.39231 0.0
C1552 C 0.75664 0.30563 0.31568 0.0
C1553 C 0.75628 0.29289 0.257 0.0
H1554 H 0.96531 0.49967 0.55513 0.0
H1555 H 0.95611 0.52144 0.33239 0.0
H1556 H 0.98754 0.51867 0.30431 0.0
H1557 H 0.00625 0.52172 0.59108 0.0
H1558 H 0.01586 0.5038 0.64129 0.0
H1559 H 0.99264 0.5069 0.64194 0.0
H1560 H 0.98817 0.47549 0.58964 0.0
H1561 H 0.01139 0.47235 0.58812 0.0
H1562 H 0.99851 0.46891 0.50251 0.0
H1563 H 0.01981 0.51285 0.30002 0.0
H1564 H 0.05115 0.50782 0.32481 0.0
H1565 H 0.03964 0.49128 0.55333 0.0
C1566 C 0.97 0.50386 0.5006 0.0
C1567 C 0.95845 0.51073 0.4456 0.0
C1568 C 0.96489 0.5162 0.37501 0.0
C1569 C 0.98265 0.51457 0.35858 0.0
C1570 C 0.99375 0.50762 0.41379 0.0
C1571 C 0.98774 0.5026 0.48384 0.0
C1572 C 1.00252 0.49632 0.53451 0.0
C1573 C 0.00443 0.50788 0.60644 0.0
C1574 C 0.99999 0.47712 0.55487 0.0
C1575 C 0.0178 0.4986 0.4821 0.0
C1576 C 0.01242 0.50488 0.41233 0.0
C1577 C 0.02417 0.50795 0.35445 0.0
C1578 C 0.04192 0.50491 0.3688 0.0
C1579 C 0.0478 0.49907 0.44078 0.0
C1580 C 0.03551 0.49572 0.49775 0.0
H1581 H 0.46921 0.4886 1.00058 0.0
H1582 H 0.45616 0.54295 0.03838 0.0
H1583 H 0.48724 0.55034 0.04674 0.0
H1584 H 0.50613 0.48846 0.13324 0.0
H1585 H 0.51893 0.47396 0.07533 0.0
H1586 H 0.49551 0.47274 0.07089 0.0
H1587 H 0.49613 0.477 0.92508 0.0
H1588 H 0.51955 0.47829 0.92914 0.0
H1589 H 0.50711 0.49568 0.88772 0.0
H1590 H 0.51976 0.55233 0.0482 0.0
H1591 H 0.55167 0.54825 0.04955 0.0
H1592 H 0.54422 0.49269 0.01618 0.0
C1593 C 0.47286 0.50203 1.0111 0.0
C1594 C 0.46004 0.51519 0.01715 0.0
C1595 C 0.46556 0.53262 0.03104 0.0
C1596 C 0.48326 0.53699 0.03659 0.0
C1597 C 0.4955 0.52381 0.02912 0.0
C1598 C 0.4906 0.50666 0.01735 0.0
C1599 C 0.50653 0.49505 1.01235 0.0
C1600 C 0.50678 0.48177 0.0768 0.0
C1601 C 0.50737 0.48597 0.9339 0.0
C1602 C 0.52105 0.50838 0.02296 0.0
C1603 C 0.51437 0.52491 0.03214 0.0
C1604 C 0.52516 0.53943 0.04138 0.0
C1605 C 0.54328 0.53701 0.04168 0.0
C1606 C 0.5505 0.52018 0.03335 0.0
C1607 C 0.53914 0.50571 0.02379 0.0
loop_
_geom_bond_atom_site_label_1
_geom_bond_atom_site_label_2
_geom_bond_distance
_geom_bond_site_symmetry_2
_ccdc_geom_bond_type
Co0 N4 2.148 1_554 S
Co0 N10 2.128 1_545 S
Co0 N20 2.194 1_554 S
Co0 O25 2.351 1_544 S
Co0 O26 2.155 1_544 S
Co0 O27 2.096 . S
C1 N4 1.301 . S
C1 N5 1.328 . S
C1 H6 0.930 1_545 S
C2 C3 1.333 . S
C2 N4 1.317 . S
C2 H7 0.930 . S
C3 C2 1.333 . S
C3 N5 1.350 . S
C3 H29 0.931 . S
N4 Co0 2.148 1_556 S
N4 C1 1.301 . S
N4 C2 1.317 . S
N5 C1 1.328 . S
N5 C3 1.350 . S
H6 C1 0.930 1_565 S
H7 C2 0.930 . S
C8 O9 1.224 . S
C8 O27 1.247 . S
O9 C8 1.224 . S
N10 Co0 2.128 1_565 S
N10 C11 1.355 . S
N10 C13 1.311 1_565 S
C11 N10 1.355 . S
C11 C12 1.363 . S
C11 H23 0.929 . S
C12 C11 1.363 . S
C12 N14 1.375 . S
C12 H30 0.931 . S
C13 N10 1.311 1_545 S
C13 N14 1.347 1_545 S
C13 H24 0.929 . S
N14 C12 1.375 . S
N14 C13 1.347 1_565 S
C15 C18 1.365 . S
C15 N20 1.328 1_565 S
C15 H21 0.929 . S
C16 C17 1.362 . S
C16 C19 1.378 . S
C16 H31 0.929 . S
C17 C16 1.362 . S
C17 C18 1.366 1_544 S
C18 C15 1.365 . S
C18 C17 1.366 1_566 S
C18 H32 0.930 . S
C19 C16 1.378 . S
C19 N20 1.315 1_554 S
C19 H22 0.930 . S
N20 Co0 2.194 1_556 S
N20 C15 1.328 1_545 S
N20 C19 1.315 1_556 S
H21 C15 0.929 . S
H22 C19 0.930 . S
H23 C11 0.929 . S
H24 C13 0.929 . S
O25 Co0 2.351 1_566 S
O25 C28 1.244 . S
O26 Co0 2.155 1_566 S
O26 C28 1.240 . S
O27 Co0 2.096 . S
O27 C8 1.247 . S
C28 O25 1.244 . S
C28 O26 1.240 . S
H29 C3 0.931 . S
H30 C12 0.931 . S
H31 C16 0.929 . S
H32 C18 0.930 . S
Co33 N37 2.148 . S
Co33 N43 2.128 . S
Co33 N53 2.194 . S
Co33 O58 2.351 . S
Co33 O59 2.155 . S
Co33 O60 2.096 . S
C34 N37 1.301 . S
C34 N38 1.328 . S
C34 H39 0.930 . S
C35 C36 1.333 . S
C35 N37 1.317 . S
C35 H40 0.930 . S
C36 C35 1.333 . S
C36 N38 1.350 . S
C36 H62 0.931 . S
N37 Co33 2.148 . S
N37 C34 1.301 . S
N37 C35 1.317 . S
N38 C34 1.328 . S
N38 C36 1.350 . S
H39 C34 0.930 . S
H40 C35 0.930 . S
C41 O42 1.224 . S
C41 O60 1.247 . S
O42 C41 1.224 . S
N43 Co33 2.128 . S
N43 C44 1.355 . S
N43 C46 1.311 . S
C44 N43 1.355 . S
C44 C45 1.363 . S
C44 H56 0.929 . S
C45 C44 1.363 . S
C45 N47 1.375 . S
C45 H63 0.931 . S
C46 N43 1.311 . S
C46 N47 1.347 . S
C46 H57 0.929 . S
N47 C45 1.375 . S
N47 C46 1.347 . S
C48 C51 1.365 . S
C48 N53 1.328 . S
C48 H54 0.929 . S
C49 C50 1.362 . S
C49 C52 1.378 . S
C49 H64 0.929 . S
C50 C49 1.362 . S
C50 C51 1.366 . S
C51 C48 1.365 . S
C51 C50 1.366 . S
C51 H65 0.930 . S
C52 C49 1.378 . S
C52 N53 1.315 . S
C52 H55 0.930 . S
N53 Co33 2.194 . S
N53 C48 1.328 . S
N53 C52 1.315 . S
H54 C48 0.929 . S
H55 C52 0.930 . S
H56 C44 0.929 . S
H57 C46 0.929 . S
O58 Co33 2.351 . S
O58 C61 1.244 . S
O59 Co33 2.155 . S
O59 C61 1.240 . S
O60 Co33 2.096 . S
O60 C41 1.247 . S
C61 O58 1.244 . S
C61 O59 1.240 . S
H62 C36 0.931 . S
H63 C45 0.931 . S
H64 C49 0.929 . S
H65 C51 0.930 . S
Co66 N70 2.148 . S
Co66 N76 2.128 1_545 S
Co66 N86 2.194 . S
Co66 O91 2.351 1_545 S
Co66 O92 2.155 1_545 S
Co66 O93 2.096 . S
C67 N70 1.301 . S
C67 N71 1.328 . S
C67 H72 0.930 1_545 S
C68 C69 1.333 . S
C68 N70 1.317 . S
C68 H73 0.930 . S
C69 C68 1.333 . S
C69 N71 1.350 . S
C69 H95 0.931 . S
N70 Co66 2.148 . S
N70 C67 1.301 . S
N70 C68 1.317 . S
N71 C67 1.328 . S
N71 C69 1.350 . S
H72 C67 0.930 1_565 S
H73 C68 0.930 . S
C74 O75 1.224 . S
C74 O93 1.247 . S
O75 C74 1.224 . S
N76 Co66 2.128 1_565 S
N76 C77 1.355 . S
N76 C79 1.311 1_565 S
C77 N76 1.355 . S
C77 C78 1.363 . S
C77 H89 0.929 . S
C78 C77 1.363 . S
C78 N80 1.375 . S
C78 H96 0.931 . S
C79 N76 1.311 1_545 S
C79 N80 1.347 1_545 S
C79 H90 0.929 . S
N80 C78 1.375 . S
N80 C79 1.347 1_565 S
C81 C84 1.365 . S
C81 N86 1.328 1_565 S
C81 H87 0.929 . S
C82 C83 1.362 . S
C82 C85 1.378 . S
C82 H97 0.929 . S
C83 C82 1.362 . S
C83 C84 1.366 1_545 S
C84 C81 1.365 . S
C84 C83 1.366 1_565 S
C84 H98 0.930 . S
C85 C82 1.378 . S
C85 N86 1.315 . S
C85 H88 0.930 . S
N86 Co66 2.194 . S
N86 C81 1.328 1_545 S
N86 C85 1.315 . S
H87 C81 0.929 . S
H88 C85 0.930 . S
H89 C77 0.929 . S
H90 C79 0.929 . S
O91 Co66 2.351 1_565 S
O91 C94 1.244 . S
O92 Co66 2.155 1_565 S
O92 C94 1.240 . S
O93 Co66 2.096 . S
O93 C74 1.247 . S
C94 O91 1.244 . S
C94 O92 1.240 . S
H95 C69 0.931 . S
H96 C78 0.931 . S
H97 C82 0.929 . S
H98 C84 0.930 . S
Co99 N103 2.148 . S
Co99 N109 2.128 . S
Co99 N119 2.194 . S
Co99 O124 2.351 . S
Co99 O125 2.155 . S
Co99 O126 2.096 . S
C100 N103 1.301 . S
C100 N104 1.328 . S
C100 H105 0.930 . S
C101 C102 1.333 . S
C101 N103 1.317 . S
C101 H106 0.930 . S
C102 C101 1.333 . S
C102 N104 1.350 . S
C102 H128 0.931 . S
N103 Co99 2.148 . S
N103 C100 1.301 . S
N103 C101 1.317 . S
N104 C100 1.328 . S
N104 C102 1.350 . S
H105 C100 0.930 . S
H106 C101 0.930 . S
C107 O108 1.224 . S
C107 O126 1.247 . S
O108 C107 1.224 . S
N109 Co99 2.128 . S
N109 C110 1.355 . S
N109 C112 1.311 . S
C110 N109 1.355 . S
C110 C111 1.363 . S
C110 H122 0.929 . S
C111 C110 1.363 . S
C111 N113 1.375 . S
C111 H129 0.931 . S
C112 N109 1.311 . S
C112 N113 1.347 . S
C112 H123 0.929 . S
N113 C111 1.375 . S
N113 C112 1.347 . S
C114 C117 1.365 . S
C114 N119 1.328 . S
C114 H120 0.929 . S
C115 C116 1.362 . S
C115 C118 1.378 . S
C115 H130 0.929 . S
C116 C115 1.362 . S
C116 C117 1.366 . S
C117 C114 1.365 . S
C117 C116 1.366 . S
C117 H131 0.930 . S
C118 C115 1.378 . S
C118 N119 1.315 . S
C118 H121 0.930 . S
N119 Co99 2.194 . S
N119 C114 1.328 . S
N119 C118 1.315 . S
H120 C114 0.929 . S
H121 C118 0.930 . S
H122 C110 0.929 . S
H123 C112 0.929 . S
O124 Co99 2.351 . S
O124 C127 1.244 . S
O125 Co99 2.155 . S
O125 C127 1.240 . S
O126 Co99 2.096 . S
O126 C107 1.247 . S
C127 O124 1.244 . S
C127 O125 1.240 . S
H128 C102 0.931 . S
H129 C111 0.931 . S
H130 C115 0.929 . S
H131 C117 0.930 . S
Co132 N136 2.148 1_545 S
Co132 N142 2.128 1_554 S
Co132 N152 2.194 . S
Co132 O157 2.351 . S
Co132 O158 2.155 . S
Co132 O159 2.096 1_544 S
C133 N136 1.301 1_545 S
C133 N137 1.328 1_545 S
C133 H138 0.930 . S
C134 C135 1.333 . S
C134 N136 1.317 . S
C134 H139 0.930 . S
C135 C134 1.333 . S
C135 N137 1.350 . S
C135 H161 0.931 . S
N136 Co132 2.148 1_565 S
N136 C133 1.301 1_565 S
N136 C134 1.317 . S
N137 C133 1.328 1_565 S
N137 C135 1.350 . S
H138 C133 0.930 . S
H139 C134 0.930 . S
C140 O141 1.224 . S
C140 O159 1.247 . S
O141 C140 1.224 . S
N142 Co132 2.128 1_556 S
N142 C143 1.355 . S
N142 C145 1.311 . S
C143 N142 1.355 . S
C143 C144 1.363 . S
C143 H155 0.929 . S
C144 C143 1.363 . S
C144 N146 1.375 . S
C144 H162 0.931 . S
C145 N142 1.311 . S
C145 N146 1.347 . S
C145 H156 0.929 1_545 S
N146 C144 1.375 . S
N146 C145 1.347 . S
C147 C150 1.365 . S
C147 N152 1.328 . S
C147 H153 0.929 . S
C148 C149 1.362 1_566 S
C148 C151 1.378 . S
C148 H163 0.929 . S
C149 C148 1.362 1_544 S
C149 C150 1.366 . S
C150 C147 1.365 . S
C150 C149 1.366 . S
C150 H164 0.930 . S
C151 C148 1.378 . S
C151 N152 1.315 1_566 S
C151 H154 0.930 . S
N152 Co132 2.194 . S
N152 C147 1.328 . S
N152 C151 1.315 1_544 S
H153 C147 0.929 . S
H154 C151 0.930 . S
H155 C143 0.929 . S
H156 C145 0.929 1_565 S
O157 Co132 2.351 . S
O157 C160 1.244 . S
O158 Co132 2.155 . S
O158 C160 1.240 . S
O159 Co132 2.096 1_566 S
O159 C140 1.247 . S
C160 O157 1.244 . S
C160 O158 1.240 . S
H161 C135 0.931 . S
H162 C144 0.931 . S
H163 C148 0.929 . S
H164 C150 0.930 . S
Co165 N169 2.148 . S
Co165 N175 2.128 . S
Co165 N185 2.194 . S
Co165 O190 2.351 . S
Co165 O191 2.155 . S
Co165 O192 2.096 . S
C166 N169 1.301 . S
C166 N170 1.328 . S
C166 H171 0.930 . S
C167 C168 1.333 . S
C167 N169 1.317 . S
C167 H172 0.930 . S
C168 C167 1.333 . S
C168 N170 1.350 . S
C168 H194 0.931 . S
N169 Co165 2.148 . S
N169 C166 1.301 . S
N169 C167 1.317 . S
N170 C166 1.328 . S
N170 C168 1.350 . S
H171 C166 0.930 . S
H172 C167 0.930 . S
C173 O174 1.224 . S
C173 O192 1.247 . S
O174 C173 1.224 . S
N175 Co165 2.128 . S
N175 C176 1.355 . S
N175 C178 1.311 . S
C176 N175 1.355 . S
C176 C177 1.363 . S
C176 H188 0.929 . S
C177 C176 1.363 . S
C177 N179 1.375 . S
C177 H195 0.931 . S
C178 N175 1.311 . S
C178 N179 1.347 . S
C178 H189 0.929 . S
N179 C177 1.375 . S
N179 C178 1.347 . S
C180 C183 1.365 . S
C180 N185 1.328 . S
C180 H186 0.929 . S
C181 C182 1.362 . S
C181 C184 1.378 . S
C181 H196 0.929 . S
C182 C181 1.362 . S
C182 C183 1.366 . S
C183 C180 1.365 . S
C183 C182 1.366 . S
C183 H197 0.930 . S
C184 C181 1.378 . S
C184 N185 1.315 . S
C184 H187 0.930 . S
N185 Co165 2.194 . S
N185 C180 1.328 . S
N185 C184 1.315 . S
H186 C180 0.929 . S
H187 C184 0.930 . S
H188 C176 0.929 . S
H189 C178 0.929 . S
O190 Co165 2.351 . S
O190 C193 1.244 . S
O191 Co165 2.155 . S
O191 C193 1.240 . S
O192 Co165 2.096 . S
O192 C173 1.247 . S
C193 O190 1.244 . S
C193 O191 1.240 . S
H194 C168 0.931 . S
H195 C177 0.931 . S
H196 C181 0.929 . S
H197 C183 0.930 . S
Co198 N202 2.148 1_545 S
Co198 N208 2.128 . S
Co198 N218 2.194 . S
Co198 O223 2.351 . S
Co198 O224 2.155 . S
Co198 O225 2.096 1_545 S
C199 N202 1.301 1_545 S
C199 N203 1.328 1_545 S
C199 H204 0.930 . S
C200 C201 1.333 . S
C200 N202 1.317 . S
C200 H205 0.930 . S
C201 C200 1.333 . S
C201 N203 1.350 . S
C201 H227 0.931 . S
N202 Co198 2.148 1_565 S
N202 C199 1.301 1_565 S
N202 C200 1.317 . S
N203 C199 1.328 1_565 S
N203 C201 1.350 . S
H204 C199 0.930 . S
H205 C200 0.930 . S
C206 O207 1.224 . S
C206 O225 1.247 . S
O207 C206 1.224 . S
N208 Co198 2.128 . S
N208 C209 1.355 . S
N208 C211 1.311 . S
C209 N208 1.355 . S
C209 C210 1.363 . S
C209 H221 0.929 . S
C210 C209 1.363 . S
C210 N212 1.375 . S
C210 H228 0.931 . S
C211 N208 1.311 . S
C211 N212 1.347 . S
C211 H222 0.929 1_545 S
N212 C210 1.375 . S
N212 C211 1.347 . S
C213 C216 1.365 . S
C213 N218 1.328 . S
C213 H219 0.929 . S
C214 C215 1.362 1_565 S
C214 C217 1.378 . S
C214 H229 0.929 . S
C215 C214 1.362 1_545 S
C215 C216 1.366 . S
C216 C213 1.365 . S
C216 C215 1.366 . S
C216 H230 0.930 . S
C217 C214 1.378 . S
C217 N218 1.315 1_565 S
C217 H220 0.930 . S
N218 Co198 2.194 . S
N218 C213 1.328 . S
N218 C217 1.315 1_545 S
H219 C213 0.929 . S
H220 C217 0.930 . S
H221 C209 0.929 . S
H222 C211 0.929 1_565 S
O223 Co198 2.351 . S
O223 C226 1.244 . S
O224 Co198 2.155 . S
O224 C226 1.240 . S
O225 Co198 2.096 1_565 S
O225 C206 1.247 . S
C226 O223 1.244 . S
C226 O224 1.240 . S
H227 C201 0.931 . S
H228 C210 0.931 . S
H229 C214 0.929 . S
H230 C216 0.930 . S
Co231 N235 2.148 . S
Co231 N241 2.128 . S
Co231 N251 2.194 . S
Co231 O256 2.351 . S
Co231 O257 2.155 . S
Co231 O258 2.096 . S
C232 N235 1.301 . S
C232 N236 1.328 . S
C232 H237 0.930 . S
C233 C234 1.333 . S
C233 N235 1.317 . S
C233 H238 0.930 . S
C234 C233 1.333 . S
C234 N236 1.350 . S
C234 H260 0.931 . S
N235 Co231 2.148 . S
N235 C232 1.301 . S
N235 C233 1.317 . S
N236 C232 1.328 . S
N236 C234 1.350 . S
H237 C232 0.930 . S
H238 C233 0.930 . S
C239 O240 1.224 . S
C239 O258 1.247 . S
O240 C239 1.224 . S
N241 Co231 2.128 . S
N241 C242 1.355 . S
N241 C244 1.311 . S
C242 N241 1.355 . S
C242 C243 1.363 . S
C242 H254 0.929 . S
C243 C242 1.363 . S
C243 N245 1.375 . S
C243 H261 0.931 . S
C244 N241 1.311 . S
C244 N245 1.347 . S
C244 H255 0.929 . S
N245 C243 1.375 . S
N245 C244 1.347 . S
C246 C249 1.365 . S
C246 N251 1.328 . S
C246 H252 0.929 . S
C247 C248 1.362 . S
C247 C250 1.378 . S
C247 H262 0.929 . S
C248 C247 1.362 . S
C248 C249 1.366 . S
C249 C246 1.365 . S
C249 C248 1.366 . S
C249 H263 0.930 . S
C250 C247 1.378 . S
C250 N251 1.315 . S
C250 H253 0.930 . S
N251 Co231 2.194 . S
N251 C246 1.328 . S
N251 C250 1.315 . S
H252 C246 0.929 . S
H253 C250 0.930 . S
H254 C242 0.929 . S
H255 C244 0.929 . S
O256 Co231 2.351 . S
O256 C259 1.244 . S
O257 Co231 2.155 . S
O257 C259 1.240 . S
O258 Co231 2.096 . S
O258 C239 1.247 . S
C259 O256 1.244 . S
C259 O257 1.240 . S
H260 C234 0.931 . S
H261 C243 0.931 . S
H262 C247 0.929 . S
H263 C249 0.930 . S
Co264 N268 2.148 . S
Co264 N274 2.128 . S
Co264 N284 2.194 . S
Co264 O289 2.351 . S
Co264 O290 2.155 . S
Co264 O291 2.096 . S
C265 N268 1.301 . S
C265 N269 1.328 . S
C265 H270 0.930 . S
C266 C267 1.333 . S
C266 N268 1.317 . S
C266 H271 0.930 . S
C267 C266 1.333 . S
C267 N269 1.350 . S
C267 H293 0.931 . S
N268 Co264 2.148 . S
N268 C265 1.301 . S
N268 C266 1.317 . S
N269 C265 1.328 . S
N269 C267 1.350 . S
H270 C265 0.930 . S
H271 C266 0.930 . S
C272 O273 1.224 . S
C272 O291 1.247 . S
O273 C272 1.224 . S
N274 Co264 2.128 . S
N274 C275 1.355 . S
N274 C277 1.311 . S
C275 N274 1.355 . S
C275 C276 1.363 . S
C275 H287 0.929 . S
C276 C275 1.363 . S
C276 N278 1.375 . S
C276 H294 0.931 . S
C277 N274 1.311 . S
C277 N278 1.347 . S
C277 H288 0.929 . S
N278 C276 1.375 . S
N278 C277 1.347 . S
C279 C282 1.365 . S
C279 N284 1.328 . S
C279 H285 0.929 . S
C280 C281 1.362 . S
C280 C283 1.378 . S
C280 H295 0.929 . S
C281 C280 1.362 . S
C281 C282 1.366 . S
C282 C279 1.365 . S
C282 C281 1.366 . S
C282 H296 0.930 . S
C283 C280 1.378 . S
C283 N284 1.315 . S
C283 H286 0.930 . S
N284 Co264 2.194 . S
N284 C279 1.328 . S
N284 C283 1.315 . S
H285 C279 0.929 . S
H286 C283 0.930 . S
H287 C275 0.929 . S
H288 C277 0.929 . S
O289 Co264 2.351 . S
O289 C292 1.244 . S
O290 Co264 2.155 . S
O290 C292 1.240 . S
O291 Co264 2.096 . S
O291 C272 1.247 . S
C292 O289 1.244 . S
C292 O290 1.240 . S
H293 C267 0.931 . S
H294 C276 0.931 . S
H295 C280 0.929 . S
H296 C282 0.930 . S
Co297 N301 2.148 . S
Co297 N307 2.128 . S
Co297 N317 2.194 . S
Co297 O322 2.351 . S
Co297 O323 2.155 . S
Co297 O324 2.096 . S
C298 N301 1.301 . S
C298 N302 1.328 . S
C298 H303 0.930 . S
C299 C300 1.333 . S
C299 N301 1.317 . S
C299 H304 0.930 . S
C300 C299 1.333 . S
C300 N302 1.350 . S
C300 H326 0.931 . S
N301 Co297 2.148 . S
N301 C298 1.301 . S
N301 C299 1.317 . S
N302 C298 1.328 . S
N302 C300 1.350 . S
H303 C298 0.930 . S
H304 C299 0.930 . S
C305 O306 1.224 . S
C305 O324 1.247 . S
O306 C305 1.224 . S
N307 Co297 2.128 . S
N307 C308 1.355 . S
N307 C310 1.311 . S
C308 N307 1.355 . S
C308 C309 1.363 . S
C308 H320 0.929 . S
C309 C308 1.363 . S
C309 N311 1.375 . S
C309 H327 0.931 1_556 S
C310 N307 1.311 . S
C310 N311 1.347 . S
C310 H321 0.929 . S
N311 C309 1.375 . S
N311 C310 1.347 . S
C312 C315 1.365 . S
C312 N317 1.328 . S
C312 H318 0.929 . S
C313 C314 1.362 . S
C313 C316 1.378 . S
C313 H328 0.929 . S
C314 C313 1.362 . S
C314 C315 1.366 . S
C315 C312 1.365 . S
C315 C314 1.366 . S
C315 H329 0.930 . S
C316 C313 1.378 . S
C316 N317 1.315 . S
C316 H319 0.930 . S
N317 Co297 2.194 . S
N317 C312 1.328 . S
N317 C316 1.315 . S
H318 C312 0.929 . S
H319 C316 0.930 . S
H320 C308 0.929 . S
H321 C310 0.929 . S
O322 Co297 2.351 . S
O322 C325 1.244 . S
O323 Co297 2.155 . S
O323 C325 1.240 . S
O324 Co297 2.096 . S
O324 C305 1.247 . S
C325 O322 1.244 . S
C325 O323 1.240 . S
H326 C300 0.931 . S
H327 C309 0.931 1_554 S
H328 C313 0.929 . S
H329 C315 0.930 . S
Co330 N334 2.148 . S
Co330 N340 2.128 1_554 S
Co330 N350 2.194 . S
Co330 O355 2.351 . S
Co330 O356 2.155 . S
Co330 O357 2.096 1_554 S
C331 N334 1.301 . S
C331 N335 1.328 . S
C331 H336 0.930 . S
C332 C333 1.333 . S
C332 N334 1.317 . S
C332 H337 0.930 . S
C333 C332 1.333 . S
C333 N335 1.350 . S
C333 H359 0.931 . S
N334 Co330 2.148 . S
N334 C331 1.301 . S
N334 C332 1.317 . S
N335 C331 1.328 . S
N335 C333 1.350 . S
H336 C331 0.930 . S
H337 C332 0.930 . S
C338 O339 1.224 . S
C338 O357 1.247 . S
O339 C338 1.224 . S
N340 Co330 2.128 1_556 S
N340 C341 1.355 . S
N340 C343 1.311 . S
C341 N340 1.355 . S
C341 C342 1.363 . S
C341 H353 0.929 . S
C342 C341 1.363 . S
C342 N344 1.375 . S
C342 H360 0.931 . S
C343 N340 1.311 . S
C343 N344 1.347 . S
C343 H354 0.929 . S
N344 C342 1.375 . S
N344 C343 1.347 . S
C345 C348 1.365 . S
C345 N350 1.328 . S
C345 H351 0.929 . S
C346 C347 1.362 1_556 S
C346 C349 1.378 . S
C346 H361 0.929 . S
C347 C346 1.362 1_554 S
C347 C348 1.366 . S
C348 C345 1.365 . S
C348 C347 1.366 . S
C348 H362 0.930 . S
C349 C346 1.378 . S
C349 N350 1.315 1_556 S
C349 H352 0.930 . S
N350 Co330 2.194 . S
N350 C345 1.328 . S
N350 C349 1.315 1_554 S
H351 C345 0.929 . S
H352 C349 0.930 . S
H353 C341 0.929 . S
H354 C343 0.929 . S
O355 Co330 2.351 . S
O355 C358 1.244 . S
O356 Co330 2.155 . S
O356 C358 1.240 . S
O357 Co330 2.096 1_556 S
O357 C338 1.247 . S
C358 O355 1.244 . S
C358 O356 1.240 . S
H359 C333 0.931 . S
H360 C342 0.931 . S
H361 C346 0.929 . S
H362 C348 0.930 . S
Co363 N367 2.148 . S
Co363 N373 2.128 . S
Co363 N383 2.194 . S
Co363 O388 2.351 . S
Co363 O389 2.155 . S
Co363 O390 2.096 . S
C364 N367 1.301 . S
C364 N368 1.328 . S
C364 H369 0.930 . S
C365 C366 1.333 . S
C365 N367 1.317 . S
C365 H370 0.930 . S
C366 C365 1.333 . S
C366 N368 1.350 . S
C366 H392 0.931 . S
N367 Co363 2.148 . S
N367 C364 1.301 . S
N367 C365 1.317 . S
N368 C364 1.328 . S
N368 C366 1.350 . S
H369 C364 0.930 . S
H370 C365 0.930 . S
C371 O372 1.224 . S
C371 O390 1.247 . S
O372 C371 1.224 . S
N373 Co363 2.128 . S
N373 C374 1.355 . S
N373 C376 1.311 . S
C374 N373 1.355 . S
C374 C375 1.363 . S
C374 H386 0.929 . S
C375 C374 1.363 . S
C375 N377 1.375 . S
C375 H393 0.931 . S
C376 N373 1.311 . S
C376 N377 1.347 . S
C376 H387 0.929 . S
N377 C375 1.375 . S
N377 C376 1.347 . S
C378 C381 1.365 . S
C378 N383 1.328 . S
C378 H384 0.929 . S
C379 C380 1.362 . S
C379 C382 1.378 . S
C379 H394 0.929 . S
C380 C379 1.362 . S
C380 C381 1.366 . S
C381 C378 1.365 . S
C381 C380 1.366 . S
C381 H395 0.930 . S
C382 C379 1.378 . S
C382 N383 1.315 . S
C382 H385 0.930 . S
N383 Co363 2.194 . S
N383 C378 1.328 . S
N383 C382 1.315 . S
H384 C378 0.929 . S
H385 C382 0.930 . S
H386 C374 0.929 . S
H387 C376 0.929 . S
O388 Co363 2.351 . S
O388 C391 1.244 . S
O389 Co363 2.155 . S
O389 C391 1.240 . S
O390 Co363 2.096 . S
O390 C371 1.247 . S
C391 O388 1.244 . S
C391 O389 1.240 . S
H392 C366 0.931 . S
H393 C375 0.931 . S
H394 C379 0.929 . S
H395 C381 0.930 . S
Co396 N400 2.148 . S
Co396 N406 2.128 . S
Co396 N416 2.194 . S
Co396 O421 2.351 . S
Co396 O422 2.155 . S
Co396 O423 2.096 . S
C397 N400 1.301 . S
C397 N401 1.328 . S
C397 H402 0.930 . S
C398 C399 1.333 . S
C398 N400 1.317 . S
C398 H403 0.930 . S
C399 C398 1.333 . S
C399 N401 1.350 . S
C399 H425 0.931 . S
N400 Co396 2.148 . S
N400 C397 1.301 . S
N400 C398 1.317 . S
N401 C397 1.328 . S
N401 C399 1.350 . S
H402 C397 0.930 . S
H403 C398 0.930 . S
C404 O405 1.224 . S
C404 O423 1.247 . S
O405 C404 1.224 . S
N406 Co396 2.128 . S
N406 C407 1.355 . S
N406 C409 1.311 . S
C407 N406 1.355 . S
C407 C408 1.363 . S
C407 H419 0.929 . S
C408 C407 1.363 . S
C408 N410 1.375 . S
C408 H426 0.931 . S
C409 N406 1.311 . S
C409 N410 1.347 . S
C409 H420 0.929 . S
N410 C408 1.375 . S
N410 C409 1.347 . S
C411 C414 1.365 . S
C411 N416 1.328 . S
C411 H417 0.929 . S
C412 C413 1.362 . S
C412 C415 1.378 . S
C412 H427 0.929 . S
C413 C412 1.362 . S
C413 C414 1.366 . S
C414 C411 1.365 . S
C414 C413 1.366 . S
C414 H428 0.930 . S
C415 C412 1.378 . S
C415 N416 1.315 . S
C415 H418 0.930 . S
N416 Co396 2.194 . S
N416 C411 1.328 . S
N416 C415 1.315 . S
H417 C411 0.929 . S
H418 C415 0.930 . S
H419 C407 0.929 . S
H420 C409 0.929 . S
O421 Co396 2.351 . S
O421 C424 1.244 . S
O422 Co396 2.155 . S
O422 C424 1.240 . S
O423 Co396 2.096 . S
O423 C404 1.247 . S
C424 O421 1.244 . S
C424 O422 1.240 . S
H425 C399 0.931 . S
H426 C408 0.931 . S
H427 C412 0.929 . S
H428 C414 0.930 . S
Co429 N433 2.148 . S
Co429 N439 2.128 . S
Co429 N449 2.194 . S
Co429 O454 2.351 . S
Co429 O455 2.155 . S
Co429 O456 2.096 . S
C430 N433 1.301 . S
C430 N434 1.328 . S
C430 H435 0.930 . S
C431 C432 1.333 . S
C431 N433 1.317 . S
C431 H436 0.930 . S
C432 C431 1.333 . S
C432 N434 1.350 . S
C432 H458 0.931 . S
N433 Co429 2.148 . S
N433 C430 1.301 . S
N433 C431 1.317 . S
N434 C430 1.328 . S
N434 C432 1.350 . S
H435 C430 0.930 . S
H436 C431 0.930 . S
C437 O438 1.224 . S
C437 O456 1.247 . S
O438 C437 1.224 . S
N439 Co429 2.128 . S
N439 C440 1.355 . S
N439 C442 1.311 . S
C440 N439 1.355 . S
C440 C441 1.363 . S
C440 H452 0.929 . S
C441 C440 1.363 . S
C441 N443 1.375 . S
C441 H459 0.931 . S
C442 N439 1.311 . S
C442 N443 1.347 . S
C442 H453 0.929 . S
N443 C441 1.375 . S
N443 C442 1.347 . S
C444 C447 1.365 . S
C444 N449 1.328 . S
C444 H450 0.929 . S
C445 C446 1.362 . S
C445 C448 1.378 . S
C445 H460 0.929 . S
C446 C445 1.362 . S
C446 C447 1.366 . S
C447 C444 1.365 . S
C447 C446 1.366 . S
C447 H461 0.930 . S
C448 C445 1.378 . S
C448 N449 1.315 . S
C448 H451 0.930 . S
N449 Co429 2.194 . S
N449 C444 1.328 . S
N449 C448 1.315 . S
H450 C444 0.929 . S
H451 C448 0.930 . S
H452 C440 0.929 . S
H453 C442 0.929 . S
O454 Co429 2.351 . S
O454 C457 1.244 . S
O455 Co429 2.155 . S
O455 C457 1.240 . S
O456 Co429 2.096 . S
O456 C437 1.247 . S
C457 O454 1.244 . S
C457 O455 1.240 . S
H458 C432 0.931 . S
H459 C441 0.931 . S
H460 C445 0.929 . S
H461 C447 0.930 . S
Co462 N466 2.148 1_554 S
Co462 N472 2.128 . S
Co462 N482 2.194 1_554 S
Co462 O487 2.351 1_554 S
Co462 O488 2.155 1_554 S
Co462 O489 2.096 . S
C463 N466 1.301 . S
C463 N467 1.328 . S
C463 H468 0.930 . S
C464 C465 1.333 . S
C464 N466 1.317 . S
C464 H469 0.930 . S
C465 C464 1.333 . S
C465 N467 1.350 . S
C465 H491 0.931 . S
N466 Co462 2.148 1_556 S
N466 C463 1.301 . S
N466 C464 1.317 . S
N467 C463 1.328 . S
N467 C465 1.350 . S
H468 C463 0.930 . S
H469 C464 0.930 . S
C470 O471 1.224 . S
C470 O489 1.247 . S
O471 C470 1.224 . S
N472 Co462 2.128 . S
N472 C473 1.355 . S
N472 C475 1.311 . S
C473 N472 1.355 . S
C473 C474 1.363 . S
C473 H485 0.929 . S
C474 C473 1.363 . S
C474 N476 1.375 . S
C474 H492 0.931 . S
C475 N472 1.311 . S
C475 N476 1.347 . S
C475 H486 0.929 . S
N476 C474 1.375 . S
N476 C475 1.347 . S
C477 C480 1.365 . S
C477 N482 1.328 . S
C477 H483 0.929 . S
C478 C479 1.362 . S
C478 C481 1.378 . S
C478 H493 0.929 . S
C479 C478 1.362 . S
C479 C480 1.366 1_554 S
C480 C477 1.365 . S
C480 C479 1.366 1_556 S
C480 H494 0.930 . S
C481 C478 1.378 . S
C481 N482 1.315 1_554 S
C481 H484 0.930 . S
N482 Co462 2.194 1_556 S
N482 C477 1.328 . S
N482 C481 1.315 1_556 S
H483 C477 0.929 . S
H484 C481 0.930 . S
H485 C473 0.929 . S
H486 C475 0.929 . S
O487 Co462 2.351 1_556 S
O487 C490 1.244 . S
O488 Co462 2.155 1_556 S
O488 C490 1.240 . S
O489 Co462 2.096 . S
O489 C470 1.247 . S
C490 O487 1.244 . S
C490 O488 1.240 . S
H491 C465 0.931 . S
H492 C474 0.931 . S
H493 C478 0.929 . S
H494 C480 0.930 . S
Co495 N499 2.148 . S
Co495 N505 2.128 . S
Co495 N515 2.194 . S
Co495 O520 2.351 . S
Co495 O521 2.155 . S
Co495 O522 2.096 . S
C496 N499 1.301 . S
C496 N500 1.328 . S
C496 H501 0.930 . S
C497 C498 1.333 . S
C497 N499 1.317 . S
C497 H502 0.930 . S
C498 C497 1.333 . S
C498 N500 1.350 . S
C498 H524 0.931 . S
N499 Co495 2.148 . S
N499 C496 1.301 . S
N499 C497 1.317 . S
N500 C496 1.328 . S
N500 C498 1.350 . S
H501 C496 0.930 . S
H502 C497 0.930 . S
C503 O504 1.224 . S
C503 O522 1.247 . S
O504 C503 1.224 . S
N505 Co495 2.128 . S
N505 C506 1.355 . S
N505 C508 1.311 . S
C506 N505 1.355 . S
C506 C507 1.363 . S
C506 H518 0.929 . S
C507 C506 1.363 . S
C507 N509 1.375 . S
C507 H525 0.926 1_556 S
C508 N505 1.311 . S
C508 N509 1.347 . S
C508 H519 0.929 . S
N509 C507 1.375 . S
N509 C508 1.347 . S
C510 C513 1.365 . S
C510 N515 1.328 . S
C510 H516 0.929 . S
C511 C512 1.362 . S
C511 C514 1.378 . S
C511 H526 0.929 . S
C512 C511 1.362 . S
C512 C513 1.366 . S
C513 C510 1.365 . S
C513 C512 1.366 . S
C513 H527 0.930 . S
C514 C511 1.378 . S
C514 N515 1.315 . S
C514 H517 0.930 . S
N515 Co495 2.194 . S
N515 C510 1.328 . S
N515 C514 1.315 . S
H516 C510 0.929 . S
H517 C514 0.930 . S
H518 C506 0.929 . S
H519 C508 0.929 . S
O520 Co495 2.351 . S
O520 C523 1.244 . S
O521 Co495 2.155 . S
O521 C523 1.240 . S
O522 Co495 2.096 . S
O522 C503 1.247 . S
C523 O520 1.244 . S
C523 O521 1.240 . S
H524 C498 0.931 . S
H525 C507 0.926 1_554 S
H526 C511 0.929 . S
H527 C513 0.930 . S
H528 C540 0.930 . S
H529 C542 0.930 . S
H530 C543 0.930 . S
H531 C547 0.959 . S
H532 C547 0.959 . S
H533 C547 0.961 . S
H534 C548 0.960 . S
H535 C548 0.961 . S
H536 C548 0.959 . S
H537 C551 0.929 . S
H538 C552 0.931 . S
H539 C554 0.930 . S
C540 H528 0.930 . S
C540 C541 1.399 1_565 S
C540 C545 1.399 . S
C541 C540 1.399 1_545 S
C541 C542 1.376 . S
C542 H529 0.930 . S
C542 C541 1.376 . S
C542 C543 1.388 . S
C543 H530 0.930 . S
C543 C542 1.388 . S
C543 C544 1.390 . S
C544 C543 1.390 . S
C544 C545 1.394 1_545 S
C544 C550 1.465 . S
C545 C540 1.399 . S
C545 C544 1.394 1_565 S
C545 C546 1.516 . S
C546 C545 1.516 . S
C546 C547 1.502 . S
C546 C548 1.561 . S
C546 C549 1.526 . S
C547 H531 0.959 . S
C547 H532 0.959 . S
C547 H533 0.961 . S
C547 C546 1.502 . S
C548 H534 0.960 . S
C548 H535 0.961 . S
C548 H536 0.959 . S
C548 C546 1.561 . S
C549 C546 1.526 . S
C549 C550 1.396 1_565 S
C549 C554 1.390 . S
C550 C544 1.465 . S
C550 C549 1.396 1_545 S
C550 C551 1.399 . S
C551 H537 0.929 . S
C551 C550 1.399 . S
C551 C552 1.385 . S
C552 H538 0.931 . S
C552 C551 1.385 . S
C552 C553 1.389 . S
C553 C552 1.389 . S
C553 C554 1.387 1_545 S
C554 H539 0.930 . S
C554 C549 1.390 . S
C554 C553 1.387 1_565 S
H555 C567 0.930 . S
H556 C569 0.930 . S
H557 C570 0.930 . S
H558 C574 0.959 . S
H559 C574 0.959 . S
H560 C574 0.961 . S
H561 C575 0.960 . S
H562 C575 0.961 . S
H563 C575 0.959 . S
H564 C578 0.929 . S
H565 C579 0.931 . S
H566 C581 0.930 . S
C567 H555 0.930 . S
C567 C568 1.399 . S
C567 C572 1.399 . S
C568 C567 1.399 . S
C568 C569 1.376 . S
C569 H556 0.930 . S
C569 C568 1.376 . S
C569 C570 1.388 . S
C570 H557 0.930 . S
C570 C569 1.388 . S
C570 C571 1.390 . S
C571 C570 1.390 . S
C571 C572 1.394 . S
C571 C577 1.465 . S
C572 C567 1.399 . S
C572 C571 1.394 . S
C572 C573 1.516 . S
C573 C572 1.516 . S
C573 C574 1.502 . S
C573 C575 1.561 . S
C573 C576 1.526 . S
C574 H558 0.959 . S
C574 H559 0.959 . S
C574 H560 0.961 . S
C574 C573 1.502 . S
C575 H561 0.960 . S
C575 H562 0.961 . S
C575 H563 0.959 . S
C575 C573 1.561 . S
C576 C573 1.526 . S
C576 C577 1.396 . S
C576 C581 1.390 . S
C577 C571 1.465 . S
C577 C576 1.396 . S
C577 C578 1.399 . S
C578 H564 0.929 . S
C578 C577 1.399 . S
C578 C579 1.385 . S
C579 H565 0.931 . S
C579 C578 1.385 . S
C579 C580 1.389 . S
C580 C579 1.389 . S
C580 C581 1.387 . S
C581 H566 0.930 . S
C581 C576 1.390 . S
C581 C580 1.387 . S
H582 C594 0.930 . S
H583 C596 0.930 . S
H584 C597 0.930 . S
H585 C601 0.959 . S
H586 C601 0.959 . S
H587 C601 0.961 1_554 S
H588 C602 0.960 1_554 S
H589 C602 0.961 . S
H590 C602 0.959 . S
H591 C605 0.929 . S
H592 C606 0.931 . S
H593 C608 0.930 . S
C594 H582 0.930 . S
C594 C595 1.399 1_565 S
C594 C599 1.399 . S
C595 C594 1.399 1_545 S
C595 C596 1.376 . S
C596 H583 0.930 . S
C596 C595 1.376 . S
C596 C597 1.388 . S
C597 H584 0.930 . S
C597 C596 1.388 . S
C597 C598 1.390 . S
C598 C597 1.390 . S
C598 C599 1.394 1_545 S
C598 C604 1.465 1_554 S
C599 C594 1.399 . S
C599 C598 1.394 1_565 S
C599 C600 1.516 1_554 S
C600 C599 1.516 1_556 S
C600 C601 1.502 . S
C600 C602 1.561 . S
C600 C603 1.526 . S
C601 H585 0.959 . S
C601 H586 0.959 . S
C601 H587 0.961 1_556 S
C601 C600 1.502 . S
C602 H588 0.960 1_556 S
C602 H589 0.961 . S
C602 H590 0.959 . S
C602 C600 1.561 . S
C603 C600 1.526 . S
C603 C604 1.396 1_565 S
C603 C608 1.390 . S
C604 C598 1.465 1_556 S
C604 C603 1.396 1_545 S
C604 C605 1.399 . S
C605 H591 0.929 . S
C605 C604 1.399 . S
C605 C606 1.385 . S
C606 H592 0.931 . S
C606 C605 1.385 . S
C606 C607 1.389 . S
C607 C606 1.389 . S
C607 C608 1.387 1_545 S
C608 H593 0.930 . S
C608 C603 1.390 . S
C608 C607 1.387 1_565 S
H609 C621 0.930 . S
H610 C623 0.930 . S
H611 C624 0.930 . S
H612 C628 0.959 . S
H613 C628 0.959 . S
H614 C628 0.961 . S
H615 C629 0.960 . S
H616 C629 0.961 . S
H617 C629 0.959 . S
H618 C632 0.929 . S
H619 C633 0.931 . S
H620 C635 0.930 . S
C621 H609 0.930 . S
C621 C622 1.399 . S
C621 C626 1.399 . S
C622 C621 1.399 . S
C622 C623 1.376 . S
C623 H610 0.930 . S
C623 C622 1.376 . S
C623 C624 1.388 . S
C624 H611 0.930 . S
C624 C623 1.388 . S
C624 C625 1.390 . S
C625 C624 1.390 . S
C625 C626 1.394 . S
C625 C631 1.465 . S
C626 C621 1.399 . S
C626 C625 1.394 . S
C626 C627 1.516 . S
C627 C626 1.516 . S
C627 C628 1.502 . S
C627 C629 1.561 . S
C627 C630 1.526 . S
C628 H612 0.959 . S
C628 H613 0.959 . S
C628 H614 0.961 . S
C628 C627 1.502 . S
C629 H615 0.960 . S
C629 H616 0.961 . S
C629 H617 0.959 . S
C629 C627 1.561 . S
C630 C627 1.526 . S
C630 C631 1.396 . S
C630 C635 1.390 . S
C631 C625 1.465 . S
C631 C630 1.396 . S
C631 C632 1.399 . S
C632 H618 0.929 . S
C632 C631 1.399 . S
C632 C633 1.385 . S
C633 H619 0.931 . S
C633 C632 1.385 . S
C633 C634 1.389 . S
C634 C633 1.389 . S
C634 C635 1.387 . S
C635 H620 0.930 . S
C635 C630 1.390 . S
C635 C634 1.387 . S
H636 C648 0.930 . S
H637 C650 0.930 . S
H638 C651 0.930 . S
H639 C655 0.959 . S
H640 C655 0.959 . S
H641 C655 0.961 . S
H642 C656 0.960 . S
H643 C656 0.961 . S
H644 C656 0.959 . S
H645 C659 0.929 . S
H646 C660 0.931 . S
H647 C662 0.930 . S
C648 H636 0.930 . S
C648 C649 1.399 . S
C648 C653 1.399 . S
C649 C648 1.399 . S
C649 C650 1.376 1_545 S
C650 H637 0.930 . S
C650 C649 1.376 1_565 S
C650 C651 1.388 . S
C651 H638 0.930 . S
C651 C650 1.388 . S
C651 C652 1.424 . S
C652 C651 1.424 . S
C652 C653 1.349 1_565 S
C652 C658 1.470 . S
C653 C648 1.399 . S
C653 C652 1.349 1_545 S
C653 C654 1.516 . S
C654 C653 1.516 . S
C654 C655 1.502 . S
C654 C656 1.561 . S
C654 C657 1.526 . S
C655 H639 0.959 . S
C655 H640 0.959 . S
C655 H641 0.961 . S
C655 C654 1.502 . S
C656 H642 0.960 . S
C656 H643 0.961 . S
C656 H644 0.959 . S
C656 C654 1.561 . S
C657 C654 1.526 . S
C657 C658 1.396 1_545 S
C657 C662 1.390 . S
C658 C652 1.470 . S
C658 C657 1.396 1_565 S
C658 C659 1.399 . S
C659 H645 0.929 . S
C659 C658 1.399 . S
C659 C660 1.385 . S
C660 H646 0.931 . S
C660 C659 1.385 . S
C660 C661 1.379 1_565 S
C661 C660 1.379 1_545 S
C661 C662 1.396 . S
C662 H647 0.930 . S
C662 C657 1.390 . S
C662 C661 1.396 . S
H663 C675 0.930 . S
H664 C677 0.930 . S
H665 C678 0.930 . S
H666 C682 0.959 . S
H667 C682 0.959 . S
H668 C682 0.961 . S
H669 C683 0.960 . S
H670 C683 0.961 . S
H671 C683 0.959 . S
H672 C686 0.929 . S
H673 C687 0.931 . S
H674 C689 0.930 . S
C675 H663 0.930 . S
C675 C676 1.399 . S
C675 C680 1.399 . S
C676 C675 1.399 . S
C676 C677 1.376 . S
C677 H664 0.930 . S
C677 C676 1.376 . S
C677 C678 1.388 . S
C678 H665 0.930 . S
C678 C677 1.388 . S
C678 C679 1.390 . S
C679 C678 1.390 . S
C679 C680 1.394 . S
C679 C685 1.465 . S
C680 C675 1.399 . S
C680 C679 1.394 . S
C680 C681 1.516 . S
C681 C680 1.516 . S
C681 C682 1.502 . S
C681 C683 1.561 . S
C681 C684 1.526 . S
C682 H666 0.959 . S
C682 H667 0.959 . S
C682 H668 0.961 . S
C682 C681 1.502 . S
C683 H669 0.960 . S
C683 H670 0.961 . S
C683 H671 0.959 . S
C683 C681 1.561 . S
C684 C681 1.526 . S
C684 C685 1.396 . S
C684 C689 1.390 . S
C685 C679 1.465 . S
C685 C684 1.396 . S
C685 C686 1.399 . S
C686 H672 0.929 . S
C686 C685 1.399 . S
C686 C687 1.385 . S
C687 H673 0.931 . S
C687 C686 1.385 . S
C687 C688 1.389 . S
C688 C687 1.389 . S
C688 C689 1.387 . S
C689 H674 0.930 . S
C689 C684 1.390 . S
C689 C688 1.387 . S
H690 C702 0.930 . S
H691 C704 0.930 . S
H692 C705 0.930 . S
H693 C709 0.959 . S
H694 C709 0.959 . S
H695 C709 0.961 1_554 S
H696 C710 0.960 1_554 S
H697 C710 0.961 . S
H698 C710 0.959 . S
H699 C713 0.929 . S
H700 C714 0.931 . S
H701 C716 0.930 . S
C702 H690 0.930 . S
C702 C703 1.399 1_565 S
C702 C707 1.399 . S
C703 C702 1.399 1_545 S
C703 C704 1.376 . S
C704 H691 0.930 . S
C704 C703 1.376 . S
C704 C705 1.388 . S
C705 H692 0.930 . S
C705 C704 1.388 . S
C705 C706 1.390 . S
C706 C705 1.390 . S
C706 C707 1.394 1_545 S
C706 C712 1.465 1_554 S
C707 C702 1.399 . S
C707 C706 1.394 1_565 S
C707 C708 1.516 1_554 S
C708 C707 1.516 1_556 S
C708 C709 1.502 . S
C708 C710 1.561 . S
C708 C711 1.526 . S
C709 H693 0.959 . S
C709 H694 0.959 . S
C709 H695 0.961 1_556 S
C709 C708 1.502 . S
C710 H696 0.960 1_556 S
C710 H697 0.961 . S
C710 H698 0.959 . S
C710 C708 1.561 . S
C711 C708 1.526 . S
C711 C712 1.396 1_565 S
C711 C716 1.390 . S
C712 C706 1.465 1_556 S
C712 C711 1.396 1_545 S
C712 C713 1.399 . S
C713 H699 0.929 . S
C713 C712 1.399 . S
C713 C714 1.385 . S
C714 H700 0.931 . S
C714 C713 1.385 . S
C714 C715 1.389 . S
C715 C714 1.389 . S
C715 C716 1.387 1_545 S
C716 H701 0.930 . S
C716 C711 1.390 . S
C716 C715 1.387 1_565 S
H717 C729 0.930 . S
H718 C731 0.930 . S
H719 C732 0.930 . S
H720 C736 0.959 . S
H721 C736 0.959 . S
H722 C736 0.961 . S
H723 C737 0.960 . S
H724 C737 0.961 . S
H725 C737 0.959 . S
H726 C740 0.929 . S
H727 C741 0.931 . S
H728 C743 0.930 . S
C729 H717 0.930 . S
C729 C730 1.399 . S
C729 C734 1.399 . S
C730 C729 1.399 . S
C730 C731 1.376 . S
C731 H718 0.930 . S
C731 C730 1.376 . S
C731 C732 1.388 . S
C732 H719 0.930 . S
C732 C731 1.388 . S
C732 C733 1.390 . S
C733 C732 1.390 . S
C733 C734 1.394 . S
C733 C739 1.465 . S
C734 C729 1.399 . S
C734 C733 1.394 . S
C734 C735 1.516 . S
C735 C734 1.516 . S
C735 C736 1.502 . S
C735 C737 1.561 . S
C735 C738 1.526 . S
C736 H720 0.959 . S
C736 H721 0.959 . S
C736 H722 0.961 . S
C736 C735 1.502 . S
C737 H723 0.960 . S
C737 H724 0.961 . S
C737 H725 0.959 . S
C737 C735 1.561 . S
C738 C735 1.526 . S
C738 C739 1.396 . S
C738 C743 1.390 . S
C739 C733 1.465 . S
C739 C738 1.396 . S
C739 C740 1.399 . S
C740 H726 0.929 . S
C740 C739 1.399 . S
C740 C741 1.385 . S
C741 H727 0.931 . S
C741 C740 1.385 . S
C741 C742 1.389 . S
C742 C741 1.389 . S
C742 C743 1.387 . S
C743 H728 0.930 . S
C743 C738 1.390 . S
C743 C742 1.387 . S
H744 C756 0.930 . S
H745 C758 0.930 . S
H746 C759 0.930 . S
H747 C763 0.959 . S
H748 C763 0.959 1_556 S
H749 C763 0.961 . S
H750 C764 0.960 . S
H751 C764 0.961 1_556 S
H752 C764 0.959 . S
H753 C767 0.929 . S
H754 C768 0.931 . S
H755 C770 0.930 . S
C756 H744 0.930 . S
C756 C757 1.399 . S
C756 C761 1.399 . S
C757 C756 1.399 . S
C757 C758 1.376 . S
C758 H745 0.930 . S
C758 C757 1.376 . S
C758 C759 1.388 . S
C759 H746 0.930 . S
C759 C758 1.388 . S
C759 C760 1.390 . S
C760 C759 1.390 . S
C760 C761 1.394 . S
C760 C766 1.465 1_554 S
C761 C756 1.399 . S
C761 C760 1.394 . S
C761 C762 1.516 . S
C762 C761 1.516 . S
C762 C763 1.502 . S
C762 C764 1.561 . S
C762 C765 1.526 1_554 S
C763 H747 0.959 . S
C763 H748 0.959 1_554 S
C763 H749 0.961 . S
C763 C762 1.502 . S
C764 H750 0.960 . S
C764 H751 0.961 1_554 S
C764 H752 0.959 . S
C764 C762 1.561 . S
C765 C762 1.526 1_556 S
C765 C766 1.396 . S
C765 C770 1.390 . S
C766 C760 1.465 1_556 S
C766 C765 1.396 . S
C766 C767 1.399 . S
C767 H753 0.929 . S
C767 C766 1.399 . S
C767 C768 1.385 . S
C768 H754 0.931 . S
C768 C767 1.385 . S
C768 C769 1.389 . S
C769 C768 1.389 . S
C769 C770 1.387 . S
C770 H755 0.930 . S
C770 C765 1.390 . S
C770 C769 1.387 . S
H771 C783 0.930 . S
H772 C785 0.930 . S
H773 C786 0.930 . S
H774 C790 0.959 . S
H775 C790 0.959 . S
H776 C790 0.961 . S
H777 C791 0.960 . S
H778 C791 0.961 . S
H779 C791 0.959 . S
H780 C794 0.929 . S
H781 C795 0.931 . S
H782 C797 0.930 . S
C783 H771 0.930 . S
C783 C784 1.399 . S
C783 C788 1.399 . S
C784 C783 1.399 . S
C784 C785 1.376 . S
C785 H772 0.930 . S
C785 C784 1.376 . S
C785 C786 1.388 . S
C786 H773 0.930 . S
C786 C785 1.388 . S
C786 C787 1.390 . S
C787 C786 1.390 . S
C787 C788 1.394 . S
C787 C793 1.465 . S
C788 C783 1.399 . S
C788 C787 1.394 . S
C788 C789 1.516 . S
C789 C788 1.516 . S
C789 C790 1.502 . S
C789 C791 1.561 . S
C789 C792 1.526 . S
C790 H774 0.959 . S
C790 H775 0.959 . S
C790 H776 0.961 . S
C790 C789 1.502 . S
C791 H777 0.960 . S
C791 H778 0.961 . S
C791 H779 0.959 . S
C791 C789 1.561 . S
C792 C789 1.526 . S
C792 C793 1.396 . S
C792 C797 1.390 . S
C793 C787 1.465 . S
C793 C792 1.396 . S
C793 C794 1.399 . S
C794 H780 0.929 . S
C794 C793 1.399 . S
C794 C795 1.385 . S
C795 H781 0.931 . S
C795 C794 1.385 . S
C795 C796 1.389 . S
C796 C795 1.389 . S
C796 C797 1.387 . S
C797 H782 0.930 . S
C797 C792 1.390 . S
C797 C796 1.387 . S
H798 C810 0.930 . S
H799 C812 0.930 . S
H800 C813 0.930 . S
H801 C817 0.959 . S
H802 C817 0.959 . S
H803 C817 0.961 . S
H804 C818 0.960 . S
H805 C818 0.961 . S
H806 C818 0.959 . S
H807 C821 0.929 . S
H808 C822 0.931 . S
H809 C824 0.930 . S
C810 H798 0.930 . S
C810 C811 1.399 . S
C810 C815 1.399 . S
C811 C810 1.399 . S
C811 C812 1.376 . S
C812 H799 0.930 . S
C812 C811 1.376 . S
C812 C813 1.388 . S
C813 H800 0.930 . S
C813 C812 1.388 . S
C813 C814 1.390 . S
C814 C813 1.390 . S
C814 C815 1.394 . S
C814 C820 1.465 . S
C815 C810 1.399 . S
C815 C814 1.394 . S
C815 C816 1.516 . S
C816 C815 1.516 . S
C816 C817 1.502 . S
C816 C818 1.561 . S
C816 C819 1.526 . S
C817 H801 0.959 . S
C817 H802 0.959 . S
C817 H803 0.961 . S
C817 C816 1.502 . S
C818 H804 0.960 . S
C818 H805 0.961 . S
C818 H806 0.959 . S
C818 C816 1.561 . S
C819 C816 1.526 . S
C819 C820 1.396 . S
C819 C824 1.390 . S
C820 C814 1.465 . S
C820 C819 1.396 . S
C820 C821 1.399 . S
C821 H807 0.929 . S
C821 C820 1.399 . S
C821 C822 1.385 . S
C822 H808 0.931 . S
C822 C821 1.385 . S
C822 C823 1.389 . S
C823 C822 1.389 . S
C823 C824 1.387 . S
C824 H809 0.930 . S
C824 C819 1.390 . S
C824 C823 1.387 . S
H825 C837 0.930 . S
H826 C839 0.930 . S
H827 C840 0.930 . S
H828 C844 0.959 . S
H829 C844 0.959 . S
H830 C844 0.961 . S
H831 C845 0.960 . S
H832 C845 0.961 . S
H833 C845 0.959 . S
H834 C848 0.929 . S
H835 C849 0.931 . S
H836 C851 0.930 . S
C837 H825 0.930 . S
C837 C838 1.399 . S
C837 C842 1.399 . S
C838 C837 1.399 . S
C838 C839 1.376 . S
C839 H826 0.930 . S
C839 C838 1.376 . S
C839 C840 1.388 . S
C840 H827 0.930 . S
C840 C839 1.388 . S
C840 C841 1.390 . S
C841 C840 1.390 . S
C841 C842 1.394 . S
C841 C847 1.465 . S
C842 C837 1.399 . S
C842 C841 1.394 . S
C842 C843 1.516 . S
C843 C842 1.516 . S
C843 C844 1.502 . S
C843 C845 1.561 . S
C843 C846 1.526 . S
C844 H828 0.959 . S
C844 H829 0.959 . S
C844 H830 0.961 . S
C844 C843 1.502 . S
C845 H831 0.960 . S
C845 H832 0.961 . S
C845 H833 0.959 . S
C845 C843 1.561 . S
C846 C843 1.526 . S
C846 C847 1.396 . S
C846 C851 1.390 . S
C847 C841 1.465 . S
C847 C846 1.396 . S
C847 C848 1.399 . S
C848 H834 0.929 . S
C848 C847 1.399 . S
C848 C849 1.385 . S
C849 H835 0.931 . S
C849 C848 1.385 . S
C849 C850 1.389 . S
C850 C849 1.389 . S
C850 C851 1.387 . S
C851 H836 0.930 . S
C851 C846 1.390 . S
C851 C850 1.387 . S
H852 C864 0.930 . S
H853 C866 0.930 . S
H854 C867 0.930 . S
H855 C871 0.959 . S
H856 C871 0.959 . S
H857 C871 0.961 1_556 S
H858 C872 0.960 1_556 S
H859 C872 0.961 . S
H860 C872 0.959 . S
H861 C875 0.929 . S
H862 C876 0.931 . S
H863 C878 0.930 . S
C864 H852 0.930 . S
C864 C865 1.399 . S
C864 C869 1.399 . S
C865 C864 1.399 . S
C865 C866 1.376 . S
C866 H853 0.930 . S
C866 C865 1.376 . S
C866 C867 1.388 . S
C867 H854 0.930 . S
C867 C866 1.388 . S
C867 C868 1.390 . S
C868 C867 1.390 . S
C868 C869 1.394 . S
C868 C874 1.465 1_556 S
C869 C864 1.399 . S
C869 C868 1.394 . S
C869 C870 1.516 1_556 S
C870 C869 1.516 1_554 S
C870 C871 1.502 . S
C870 C872 1.561 . S
C870 C873 1.526 . S
C871 H855 0.959 . S
C871 H856 0.959 . S
C871 H857 0.961 1_554 S
C871 C870 1.502 . S
C872 H858 0.960 1_554 S
C872 H859 0.961 . S
C872 H860 0.959 . S
C872 C870 1.561 . S
C873 C870 1.526 . S
C873 C874 1.396 . S
C873 C878 1.390 . S
C874 C868 1.465 1_554 S
C874 C873 1.396 . S
C874 C875 1.399 . S
C875 H861 0.929 . S
C875 C874 1.399 . S
C875 C876 1.385 . S
C876 H862 0.931 . S
C876 C875 1.385 . S
C876 C877 1.389 . S
C877 C876 1.389 . S
C877 C878 1.387 . S
C878 H863 0.930 . S
C878 C873 1.390 . S
C878 C877 1.387 . S
H879 C891 0.930 . S
H880 C893 0.930 . S
H881 C894 0.930 . S
H882 C898 0.959 . S
H883 C898 0.959 . S
H884 C898 0.961 . S
H885 C899 0.960 . S
H886 C899 0.961 . S
H887 C899 0.959 . S
H888 C902 0.929 . S
H889 C903 0.931 . S
H890 C905 0.930 . S
C891 H879 0.930 . S
C891 C892 1.399 . S
C891 C896 1.399 . S
C892 C891 1.399 . S
C892 C893 1.376 . S
C893 H880 0.930 . S
C893 C892 1.376 . S
C893 C894 1.388 . S
C894 H881 0.930 . S
C894 C893 1.388 . S
C894 C895 1.390 . S
C895 C894 1.390 . S
C895 C896 1.394 . S
C895 C901 1.465 . S
C896 C891 1.399 . S
C896 C895 1.394 . S
C896 C897 1.516 . S
C897 C896 1.516 . S
C897 C898 1.502 . S
C897 C899 1.561 . S
C897 C900 1.526 . S
C898 H882 0.959 . S
C898 H883 0.959 . S
C898 H884 0.961 . S
C898 C897 1.502 . S
C899 H885 0.960 . S
C899 H886 0.961 . S
C899 H887 0.959 . S
C899 C897 1.561 . S
C900 C897 1.526 . S
C900 C901 1.396 . S
C900 C905 1.390 . S
C901 C895 1.465 . S
C901 C900 1.396 . S
C901 C902 1.399 . S
C902 H888 0.929 . S
C902 C901 1.399 . S
C902 C903 1.385 . S
C903 H889 0.931 . S
C903 C902 1.385 . S
C903 C904 1.389 . S
C904 C903 1.389 . S
C904 C905 1.387 . S
C905 H890 0.930 . S
C905 C900 1.390 . S
C905 C904 1.387 . S
H906 C918 0.930 . S
H907 C920 0.930 . S
H908 C921 0.930 . S
H909 C925 0.959 . S
H910 C925 0.959 . S
H911 C925 0.961 . S
H912 C926 0.960 . S
H913 C926 0.961 . S
H914 C926 0.959 . S
H915 C929 0.929 . S
H916 C930 0.931 . S
H917 C932 0.930 . S
C918 H906 0.930 . S
C918 C919 1.399 . S
C918 C923 1.399 . S
C919 C918 1.399 . S
C919 C920 1.376 . S
C920 H907 0.930 . S
C920 C919 1.376 . S
C920 C921 1.388 . S
C921 H908 0.930 . S
C921 C920 1.388 . S
C921 C922 1.390 . S
C922 C921 1.390 . S
C922 C923 1.394 . S
C922 C928 1.465 . S
C923 C918 1.399 . S
C923 C922 1.394 . S
C923 C924 1.516 . S
C924 C923 1.516 . S
C924 C925 1.502 . S
C924 C926 1.561 . S
C924 C927 1.526 . S
C925 H909 0.959 . S
C925 H910 0.959 . S
C925 H911 0.961 . S
C925 C924 1.502 . S
C926 H912 0.960 . S
C926 H913 0.961 . S
C926 H914 0.959 . S
C926 C924 1.561 . S
C927 C924 1.526 . S
C927 C928 1.396 . S
C927 C932 1.390 . S
C928 C922 1.465 . S
C928 C927 1.396 . S
C928 C929 1.399 . S
C929 H915 0.929 . S
C929 C928 1.399 . S
C929 C930 1.385 . S
C930 H916 0.931 . S
C930 C929 1.385 . S
C930 C931 1.389 . S
C931 C930 1.389 . S
C931 C932 1.387 . S
C932 H917 0.930 . S
C932 C927 1.390 . S
C932 C931 1.387 . S
H933 C945 0.930 . S
H934 C947 0.930 . S
H935 C948 0.930 . S
H936 C952 0.959 . S
H937 C952 0.959 . S
H938 C952 0.961 . S
H939 C953 0.960 . S
H940 C953 0.961 . S
H941 C953 0.959 . S
H942 C956 0.929 . S
H943 C957 0.931 . S
H944 C959 0.930 . S
C945 H933 0.930 . S
C945 C946 1.399 . S
C945 C950 1.399 . S
C946 C945 1.399 . S
C946 C947 1.376 . S
C947 H934 0.930 . S
C947 C946 1.376 . S
C947 C948 1.388 . S
C948 H935 0.930 . S
C948 C947 1.388 . S
C948 C949 1.390 . S
C949 C948 1.390 . S
C949 C950 1.394 . S
C949 C955 1.465 . S
C950 C945 1.399 . S
C950 C949 1.394 . S
C950 C951 1.516 . S
C951 C950 1.516 . S
C951 C952 1.502 . S
C951 C953 1.561 . S
C951 C954 1.526 . S
C952 H936 0.959 . S
C952 H937 0.959 . S
C952 H938 0.961 . S
C952 C951 1.502 . S
C953 H939 0.960 . S
C953 H940 0.961 . S
C953 H941 0.959 . S
C953 C951 1.561 . S
C954 C951 1.526 . S
C954 C955 1.396 . S
C954 C959 1.390 . S
C955 C949 1.465 . S
C955 C954 1.396 . S
C955 C956 1.399 . S
C956 H942 0.929 . S
C956 C955 1.399 . S
C956 C957 1.385 . S
C957 H943 0.931 . S
C957 C956 1.385 . S
C957 C958 1.389 . S
C958 C957 1.389 . S
C958 C959 1.387 . S
C959 H944 0.930 . S
C959 C954 1.390 . S
C959 C958 1.387 . S
H960 C972 0.930 . S
H961 C974 0.930 . S
H962 C975 0.930 . S
H963 C979 0.959 . S
H964 C979 0.959 . S
H965 C979 0.961 . S
H966 C980 0.960 . S
H967 C980 0.961 . S
H968 C980 0.959 . S
H969 C983 0.929 . S
H970 C984 0.931 . S
H971 C986 0.930 . S
C972 H960 0.930 . S
C972 C973 1.399 . S
C972 C977 1.399 . S
C973 C972 1.399 . S
C973 C974 1.376 . S
C974 H961 0.930 . S
C974 C973 1.376 . S
C974 C975 1.388 . S
C975 H962 0.930 . S
C975 C974 1.388 . S
C975 C976 1.390 . S
C976 C975 1.390 . S
C976 C977 1.394 . S
C976 C982 1.465 . S
C977 C972 1.399 . S
C977 C976 1.394 . S
C977 C978 1.516 . S
C978 C977 1.516 . S
C978 C979 1.502 . S
C978 C980 1.561 1_554 S
C978 C981 1.526 . S
C979 H963 0.959 . S
C979 H964 0.959 . S
C979 H965 0.961 . S
C979 C978 1.502 . S
C980 H966 0.960 . S
C980 H967 0.961 . S
C980 H968 0.959 . S
C980 C978 1.561 1_556 S
C981 C978 1.526 . S
C981 C982 1.396 . S
C981 C986 1.390 . S
C982 C976 1.465 . S
C982 C981 1.396 . S
C982 C983 1.399 . S
C983 H969 0.929 . S
C983 C982 1.399 . S
C983 C984 1.385 . S
C984 H970 0.931 . S
C984 C983 1.385 . S
C984 C985 1.389 . S
C985 C984 1.389 . S
C985 C986 1.387 . S
C986 H971 0.930 . S
C986 C981 1.390 . S
C986 C985 1.387 . S
H987 C999 0.930 . S
H988 C1001 0.930 . S
H989 C1002 0.930 . S
H990 C1006 0.959 . S
H991 C1006 0.959 . S
H992 C1006 0.961 . S
H993 C1007 0.960 . S
H994 C1007 0.961 . S
H995 C1007 0.959 . S
H996 C1010 0.929 . S
H997 C1011 0.931 . S
H998 C1013 0.930 . S
C999 H987 0.930 . S
C999 C1000 1.399 . S
C999 C1004 1.399 . S
C1000 C999 1.399 . S
C1000 C1001 1.376 . S
C1001 H988 0.930 . S
C1001 C1000 1.376 . S
C1001 C1002 1.388 . S
C1002 H989 0.930 . S
C1002 C1001 1.388 . S
C1002 C1003 1.390 . S
C1003 C1002 1.390 . S
C1003 C1004 1.394 . S
C1003 C1009 1.465 . S
C1004 C999 1.399 . S
C1004 C1003 1.394 . S
C1004 C1005 1.516 . S
C1005 C1004 1.516 . S
C1005 C1006 1.502 . S
C1005 C1007 1.561 . S
C1005 C1008 1.526 . S
C1006 H990 0.959 . S
C1006 H991 0.959 . S
C1006 H992 0.961 . S
C1006 C1005 1.502 . S
C1007 H993 0.960 . S
C1007 H994 0.961 . S
C1007 H995 0.959 . S
C1007 C1005 1.561 . S
C1008 C1005 1.526 . S
C1008 C1009 1.396 . S
C1008 C1013 1.390 . S
C1009 C1003 1.465 . S
C1009 C1008 1.396 . S
C1009 C1010 1.399 . S
C1010 H996 0.929 . S
C1010 C1009 1.399 . S
C1010 C1011 1.385 . S
C1011 H997 0.931 . S
C1011 C1010 1.385 . S
C1011 C1012 1.389 . S
C1012 C1011 1.389 . S
C1012 C1013 1.387 . S
C1013 H998 0.930 . S
C1013 C1008 1.390 . S
C1013 C1012 1.387 . S
H1014 C1026 0.930 . S
H1015 C1028 0.930 . S
H1016 C1029 0.930 . S
H1017 C1033 0.959 . S
H1018 C1033 0.959 . S
H1019 C1033 0.961 . S
H1020 C1034 0.960 . S
H1021 C1034 0.961 . S
H1022 C1034 0.959 . S
H1023 C1037 0.929 . S
H1024 C1038 0.931 . S
H1025 C1040 0.930 . S
C1026 H1014 0.930 . S
C1026 C1027 1.399 . S
C1026 C1031 1.399 . S
C1027 C1026 1.399 . S
C1027 C1028 1.376 . S
C1028 H1015 0.930 . S
C1028 C1027 1.376 . S
C1028 C1029 1.388 . S
C1029 H1016 0.930 . S
C1029 C1028 1.388 . S
C1029 C1030 1.390 . S
C1030 C1029 1.390 . S
C1030 C1031 1.394 . S
C1030 C1036 1.465 . S
C1031 C1026 1.399 . S
C1031 C1030 1.394 . S
C1031 C1032 1.516 . S
C1032 C1031 1.516 . S
C1032 C1033 1.502 . S
C1032 C1034 1.561 . S
C1032 C1035 1.526 . S
C1033 H1017 0.959 . S
C1033 H1018 0.959 . S
C1033 H1019 0.961 . S
C1033 C1032 1.502 . S
C1034 H1020 0.960 . S
C1034 H1021 0.961 . S
C1034 H1022 0.959 . S
C1034 C1032 1.561 . S
C1035 C1032 1.526 . S
C1035 C1036 1.396 . S
C1035 C1040 1.390 . S
C1036 C1030 1.465 . S
C1036 C1035 1.396 . S
C1036 C1037 1.399 . S
C1037 H1023 0.929 . S
C1037 C1036 1.399 . S
C1037 C1038 1.385 . S
C1038 H1024 0.931 . S
C1038 C1037 1.385 . S
C1038 C1039 1.389 . S
C1039 C1038 1.389 . S
C1039 C1040 1.387 . S
C1040 H1025 0.930 . S
C1040 C1035 1.390 . S
C1040 C1039 1.387 . S
H1041 C1053 0.930 1_554 S
H1042 C1055 0.930 . S
H1043 C1056 0.930 . S
H1044 C1060 0.959 . S
H1045 C1060 0.959 . S
H1046 C1060 0.961 . S
H1047 C1061 0.960 1_554 S
H1048 C1061 0.961 . S
H1049 C1061 0.959 . S
H1050 C1064 0.929 . S
H1051 C1065 0.931 . S
H1052 C1067 0.930 . S
C1053 H1041 0.930 1_556 S
C1053 C1054 1.399 . S
C1053 C1058 1.399 . S
C1054 C1053 1.399 . S
C1054 C1055 1.376 . S
C1055 H1042 0.930 . S
C1055 C1054 1.376 . S
C1055 C1056 1.388 . S
C1056 H1043 0.930 . S
C1056 C1055 1.388 . S
C1056 C1057 1.390 . S
C1057 C1056 1.390 . S
C1057 C1058 1.394 . S
C1057 C1063 1.465 . S
C1058 C1053 1.399 . S
C1058 C1057 1.394 . S
C1058 C1059 1.516 . S
C1059 C1058 1.516 . S
C1059 C1060 1.502 1_556 S
C1059 C1061 1.561 . S
C1059 C1062 1.526 . S
C1060 H1044 0.959 . S
C1060 H1045 0.959 . S
C1060 H1046 0.961 . S
C1060 C1059 1.502 1_554 S
C1061 H1047 0.960 1_556 S
C1061 H1048 0.961 . S
C1061 H1049 0.959 . S
C1061 C1059 1.561 . S
C1062 C1059 1.526 . S
C1062 C1063 1.396 . S
C1062 C1067 1.390 . S
C1063 C1057 1.465 . S
C1063 C1062 1.396 . S
C1063 C1064 1.399 . S
C1064 H1050 0.929 . S
C1064 C1063 1.399 . S
C1064 C1065 1.385 . S
C1065 H1051 0.931 . S
C1065 C1064 1.385 . S
C1065 C1066 1.389 . S
C1066 C1065 1.389 . S
C1066 C1067 1.387 . S
C1067 H1052 0.930 . S
C1067 C1062 1.390 . S
C1067 C1066 1.387 . S
H1068 C1080 0.930 . S
H1069 C1082 0.930 . S
H1070 C1083 0.930 . S
H1071 C1087 0.959 . S
H1072 C1087 0.959 . S
H1073 C1087 0.961 . S
H1074 C1088 0.960 . S
H1075 C1088 0.961 . S
H1076 C1088 0.959 . S
H1077 C1091 0.929 1_554 S
H1078 C1092 0.931 1_554 S
H1079 C1094 0.930 . S
C1080 H1068 0.930 . S
C1080 C1081 1.399 . S
C1080 C1085 1.399 . S
C1081 C1080 1.399 . S
C1081 C1082 1.376 . S
C1082 H1069 0.930 . S
C1082 C1081 1.376 . S
C1082 C1083 1.388 . S
C1083 H1070 0.930 . S
C1083 C1082 1.388 . S
C1083 C1084 1.390 . S
C1084 C1083 1.390 . S
C1084 C1085 1.394 . S
C1084 C1090 1.465 . S
C1085 C1080 1.399 . S
C1085 C1084 1.394 . S
C1085 C1086 1.516 . S
C1086 C1085 1.516 . S
C1086 C1087 1.502 . S
C1086 C1088 1.561 . S
C1086 C1089 1.526 . S
C1087 H1071 0.959 . S
C1087 H1072 0.959 . S
C1087 H1073 0.961 . S
C1087 C1086 1.502 . S
C1088 H1074 0.960 . S
C1088 H1075 0.961 . S
C1088 H1076 0.959 . S
C1088 C1086 1.561 . S
C1089 C1086 1.526 . S
C1089 C1090 1.396 . S
C1089 C1094 1.390 . S
C1090 C1084 1.465 . S
C1090 C1089 1.396 . S
C1090 C1091 1.399 . S
C1091 H1077 0.929 1_556 S
C1091 C1090 1.399 . S
C1091 C1092 1.385 . S
C1092 H1078 0.931 1_556 S
C1092 C1091 1.385 . S
C1092 C1093 1.389 . S
C1093 C1092 1.389 . S
C1093 C1094 1.387 . S
C1094 H1079 0.930 . S
C1094 C1089 1.390 . S
C1094 C1093 1.387 . S
H1095 C1107 0.930 . S
H1096 C1109 0.930 . S
H1097 C1110 0.930 . S
H1098 C1114 0.959 . S
H1099 C1114 0.959 . S
H1100 C1114 0.961 . S
H1101 C1115 0.960 . S
H1102 C1115 0.961 . S
H1103 C1115 0.959 . S
H1104 C1118 0.929 . S
H1105 C1119 0.931 . S
H1106 C1121 0.930 . S
C1107 H1095 0.930 . S
C1107 C1108 1.399 . S
C1107 C1112 1.399 . S
C1108 C1107 1.399 . S
C1108 C1109 1.376 . S
C1109 H1096 0.930 . S
C1109 C1108 1.376 . S
C1109 C1110 1.388 . S
C1110 H1097 0.930 . S
C1110 C1109 1.388 . S
C1110 C1111 1.390 . S
C1111 C1110 1.390 . S
C1111 C1112 1.394 . S
C1111 C1117 1.465 . S
C1112 C1107 1.399 . S
C1112 C1111 1.394 . S
C1112 C1113 1.516 . S
C1113 C1112 1.516 . S
C1113 C1114 1.502 . S
C1113 C1115 1.561 . S
C1113 C1116 1.526 . S
C1114 H1098 0.959 . S
C1114 H1099 0.959 . S
C1114 H1100 0.961 . S
C1114 C1113 1.502 . S
C1115 H1101 0.960 . S
C1115 H1102 0.961 . S
C1115 H1103 0.959 . S
C1115 C1113 1.561 . S
C1116 C1113 1.526 . S
C1116 C1117 1.396 . S
C1116 C1121 1.390 . S
C1117 C1111 1.465 . S
C1117 C1116 1.396 . S
C1117 C1118 1.399 . S
C1118 H1104 0.929 . S
C1118 C1117 1.399 . S
C1118 C1119 1.385 . S
C1119 H1105 0.931 . S
C1119 C1118 1.385 . S
C1119 C1120 1.389 . S
C1120 C1119 1.389 . S
C1120 C1121 1.387 . S
C1121 H1106 0.930 . S
C1121 C1116 1.390 . S
C1121 C1120 1.387 . S
H1122 C1134 0.930 . S
H1123 C1136 0.930 . S
H1124 C1137 0.930 . S
H1125 C1141 0.959 . S
H1126 C1141 0.959 . S
H1127 C1141 0.961 . S
H1128 C1142 0.960 . S
H1129 C1142 0.961 . S
H1130 C1142 0.959 . S
H1131 C1145 0.929 . S
H1132 C1146 0.931 . S
H1133 C1148 0.930 . S
C1134 H1122 0.930 . S
C1134 C1135 1.399 . S
C1134 C1139 1.399 . S
C1135 C1134 1.399 . S
C1135 C1136 1.376 . S
C1136 H1123 0.930 . S
C1136 C1135 1.376 . S
C1136 C1137 1.388 . S
C1137 H1124 0.930 . S
C1137 C1136 1.388 . S
C1137 C1138 1.390 . S
C1138 C1137 1.390 . S
C1138 C1139 1.394 . S
C1138 C1144 1.465 . S
C1139 C1134 1.399 . S
C1139 C1138 1.394 . S
C1139 C1140 1.516 . S
C1140 C1139 1.516 . S
C1140 C1141 1.502 . S
C1140 C1142 1.561 . S
C1140 C1143 1.526 . S
C1141 H1125 0.959 . S
C1141 H1126 0.959 . S
C1141 H1127 0.961 . S
C1141 C1140 1.502 . S
C1142 H1128 0.960 . S
C1142 H1129 0.961 . S
C1142 H1130 0.959 . S
C1142 C1140 1.561 . S
C1143 C1140 1.526 . S
C1143 C1144 1.396 . S
C1143 C1148 1.390 . S
C1144 C1138 1.465 . S
C1144 C1143 1.396 . S
C1144 C1145 1.399 . S
C1145 H1131 0.929 . S
C1145 C1144 1.399 . S
C1145 C1146 1.385 . S
C1146 H1132 0.931 . S
C1146 C1145 1.385 . S
C1146 C1147 1.389 . S
C1147 C1146 1.389 . S
C1147 C1148 1.387 . S
C1148 H1133 0.930 . S
C1148 C1143 1.390 . S
C1148 C1147 1.387 . S
H1149 C1161 0.930 . S
H1150 C1163 0.930 . S
H1151 C1164 0.930 . S
H1152 C1168 0.959 . S
H1153 C1168 0.959 . S
H1154 C1168 0.961 . S
H1155 C1169 0.960 . S
H1156 C1169 0.961 . S
H1157 C1169 0.959 . S
H1158 C1172 0.929 . S
H1159 C1173 0.931 1_556 S
H1160 C1175 0.930 . S
C1161 H1149 0.930 . S
C1161 C1162 1.399 . S
C1161 C1166 1.399 . S
C1162 C1161 1.399 . S
C1162 C1163 1.376 . S
C1163 H1150 0.930 . S
C1163 C1162 1.376 . S
C1163 C1164 1.388 . S
C1164 H1151 0.930 . S
C1164 C1163 1.388 . S
C1164 C1165 1.390 . S
C1165 C1164 1.390 . S
C1165 C1166 1.394 . S
C1165 C1171 1.465 . S
C1166 C1161 1.399 . S
C1166 C1165 1.394 . S
C1166 C1167 1.516 . S
C1167 C1166 1.516 . S
C1167 C1168 1.502 . S
C1167 C1169 1.561 . S
C1167 C1170 1.526 . S
C1168 H1152 0.959 . S
C1168 H1153 0.959 . S
C1168 H1154 0.961 . S
C1168 C1167 1.502 . S
C1169 H1155 0.960 . S
C1169 H1156 0.961 . S
C1169 H1157 0.959 . S
C1169 C1167 1.561 . S
C1170 C1167 1.526 . S
C1170 C1171 1.396 . S
C1170 C1175 1.390 . S
C1171 C1165 1.465 . S
C1171 C1170 1.396 . S
C1171 C1172 1.399 . S
C1172 H1158 0.929 . S
C1172 C1171 1.399 . S
C1172 C1173 1.385 . S
C1173 H1159 0.931 1_554 S
C1173 C1172 1.385 . S
C1173 C1174 1.389 . S
C1174 C1173 1.389 . S
C1174 C1175 1.387 . S
C1175 H1160 0.930 . S
C1175 C1170 1.390 . S
C1175 C1174 1.387 . S
H1176 C1188 0.930 . S
H1177 C1190 0.930 . S
H1178 C1191 0.930 . S
H1179 C1195 0.959 . S
H1180 C1195 0.959 . S
H1181 C1195 0.961 . S
H1182 C1196 0.960 . S
H1183 C1196 0.961 . S
H1184 C1196 0.959 . S
H1185 C1199 0.929 . S
H1186 C1200 0.931 . S
H1187 C1202 0.930 . S
C1188 H1176 0.930 . S
C1188 C1189 1.399 . S
C1188 C1193 1.399 . S
C1189 C1188 1.399 . S
C1189 C1190 1.376 . S
C1190 H1177 0.930 . S
C1190 C1189 1.376 . S
C1190 C1191 1.388 . S
C1191 H1178 0.930 . S
C1191 C1190 1.388 . S
C1191 C1192 1.390 . S
C1192 C1191 1.390 . S
C1192 C1193 1.394 . S
C1192 C1198 1.465 . S
C1193 C1188 1.399 . S
C1193 C1192 1.394 . S
C1193 C1194 1.516 . S
C1194 C1193 1.516 . S
C1194 C1195 1.502 . S
C1194 C1196 1.561 . S
C1194 C1197 1.526 . S
C1195 H1179 0.959 . S
C1195 H1180 0.959 . S
C1195 H1181 0.961 . S
C1195 C1194 1.502 . S
C1196 H1182 0.960 . S
C1196 H1183 0.961 . S
C1196 H1184 0.959 . S
C1196 C1194 1.561 . S
C1197 C1194 1.526 . S
C1197 C1198 1.396 . S
C1197 C1202 1.390 . S
C1198 C1192 1.465 . S
C1198 C1197 1.396 . S
C1198 C1199 1.399 . S
C1199 H1185 0.929 . S
C1199 C1198 1.399 . S
C1199 C1200 1.385 . S
C1200 H1186 0.931 . S
C1200 C1199 1.385 . S
C1200 C1201 1.389 . S
C1201 C1200 1.389 . S
C1201 C1202 1.387 . S
C1202 H1187 0.930 . S
C1202 C1197 1.390 . S
C1202 C1201 1.387 . S
H1203 C1215 0.930 . S
H1204 C1217 0.930 . S
H1205 C1218 0.930 . S
H1206 C1222 0.959 . S
H1207 C1222 0.959 . S
H1208 C1222 0.961 . S
H1209 C1223 0.960 . S
H1210 C1223 0.961 . S
H1211 C1223 0.959 . S
H1212 C1226 0.929 . S
H1213 C1227 0.931 . S
H1214 C1229 0.930 1_554 S
C1215 H1203 0.930 . S
C1215 C1216 1.399 . S
C1215 C1220 1.399 . S
C1216 C1215 1.399 . S
C1216 C1217 1.376 . S
C1217 H1204 0.930 . S
C1217 C1216 1.376 . S
C1217 C1218 1.388 . S
C1218 H1205 0.930 . S
C1218 C1217 1.388 . S
C1218 C1219 1.390 . S
C1219 C1218 1.390 . S
C1219 C1220 1.394 . S
C1219 C1225 1.465 . S
C1220 C1215 1.399 . S
C1220 C1219 1.394 . S
C1220 C1221 1.516 . S
C1221 C1220 1.516 . S
C1221 C1222 1.502 1_556 S
C1221 C1223 1.561 . S
C1221 C1224 1.526 . S
C1222 H1206 0.959 . S
C1222 H1207 0.959 . S
C1222 H1208 0.961 . S
C1222 C1221 1.502 1_554 S
C1223 H1209 0.960 . S
C1223 H1210 0.961 . S
C1223 H1211 0.959 . S
C1223 C1221 1.561 . S
C1224 C1221 1.526 . S
C1224 C1225 1.396 . S
C1224 C1229 1.390 . S
C1225 C1219 1.465 . S
C1225 C1224 1.396 . S
C1225 C1226 1.399 . S
C1226 H1212 0.929 . S
C1226 C1225 1.399 . S
C1226 C1227 1.385 . S
C1227 H1213 0.931 . S
C1227 C1226 1.385 . S
C1227 C1228 1.389 . S
C1228 C1227 1.389 . S
C1228 C1229 1.387 . S
C1229 H1214 0.930 1_556 S
C1229 C1224 1.390 . S
C1229 C1228 1.387 . S
H1230 C1242 0.930 . S
H1231 C1244 0.930 1_556 S
H1232 C1245 0.930 1_556 S
H1233 C1249 0.959 . S
H1234 C1249 0.959 . S
H1235 C1249 0.961 . S
H1236 C1250 0.960 . S
H1237 C1250 0.961 . S
H1238 C1250 0.959 . S
H1239 C1253 0.929 . S
H1240 C1254 0.931 . S
H1241 C1256 0.930 . S
C1242 H1230 0.930 . S
C1242 C1243 1.399 . S
C1242 C1247 1.399 . S
C1243 C1242 1.399 . S
C1243 C1244 1.376 . S
C1244 H1231 0.930 1_554 S
C1244 C1243 1.376 . S
C1244 C1245 1.388 . S
C1245 H1232 0.930 1_554 S
C1245 C1244 1.388 . S
C1245 C1246 1.390 . S
C1246 C1245 1.390 . S
C1246 C1247 1.394 . S
C1246 C1252 1.465 . S
C1247 C1242 1.399 . S
C1247 C1246 1.394 . S
C1247 C1248 1.516 . S
C1248 C1247 1.516 . S
C1248 C1249 1.502 . S
C1248 C1250 1.561 . S
C1248 C1251 1.526 . S
C1249 H1233 0.959 . S
C1249 H1234 0.959 . S
C1249 H1235 0.961 . S
C1249 C1248 1.502 . S
C1250 H1236 0.960 . S
C1250 H1237 0.961 . S
C1250 H1238 0.959 . S
C1250 C1248 1.561 . S
C1251 C1248 1.526 . S
C1251 C1252 1.396 . S
C1251 C1256 1.390 . S
C1252 C1246 1.465 . S
C1252 C1251 1.396 . S
C1252 C1253 1.399 . S
C1253 H1239 0.929 . S
C1253 C1252 1.399 . S
C1253 C1254 1.385 . S
C1254 H1240 0.931 . S
C1254 C1253 1.385 . S
C1254 C1255 1.389 . S
C1255 C1254 1.389 . S
C1255 C1256 1.387 . S
C1256 H1241 0.930 . S
C1256 C1251 1.390 . S
C1256 C1255 1.387 . S
H1257 C1269 0.930 . S
H1258 C1271 0.930 . S
H1259 C1272 0.930 . S
H1260 C1276 0.959 . S
H1261 C1276 0.959 . S
H1262 C1276 0.961 . S
H1263 C1277 0.960 . S
H1264 C1277 0.961 . S
H1265 C1277 0.959 . S
H1266 C1280 0.929 . S
H1267 C1281 0.931 . S
H1268 C1283 0.930 . S
C1269 H1257 0.930 . S
C1269 C1270 1.399 . S
C1269 C1274 1.399 . S
C1270 C1269 1.399 . S
C1270 C1271 1.376 . S
C1271 H1258 0.930 . S
C1271 C1270 1.376 . S
C1271 C1272 1.388 . S
C1272 H1259 0.930 . S
C1272 C1271 1.388 . S
C1272 C1273 1.390 . S
C1273 C1272 1.390 . S
C1273 C1274 1.394 . S
C1273 C1279 1.465 . S
C1274 C1269 1.399 . S
C1274 C1273 1.394 . S
C1274 C1275 1.516 . S
C1275 C1274 1.516 . S
C1275 C1276 1.502 . S
C1275 C1277 1.561 . S
C1275 C1278 1.526 . S
C1276 H1260 0.959 . S
C1276 H1261 0.959 . S
C1276 H1262 0.961 . S
C1276 C1275 1.502 . S
C1277 H1263 0.960 . S
C1277 H1264 0.961 . S
C1277 H1265 0.959 . S
C1277 C1275 1.561 . S
C1278 C1275 1.526 . S
C1278 C1279 1.396 . S
C1278 C1283 1.390 . S
C1279 C1273 1.465 . S
C1279 C1278 1.396 . S
C1279 C1280 1.399 . S
C1280 H1266 0.929 . S
C1280 C1279 1.399 . S
C1280 C1281 1.385 . S
C1281 H1267 0.931 . S
C1281 C1280 1.385 . S
C1281 C1282 1.389 . S
C1282 C1281 1.389 . S
C1282 C1283 1.387 . S
C1283 H1268 0.930 . S
C1283 C1278 1.390 . S
C1283 C1282 1.387 . S
H1284 C1296 0.930 . S
H1285 C1298 0.930 . S
H1286 C1299 0.930 . S
H1287 C1303 0.959 . S
H1288 C1303 0.959 . S
H1289 C1303 0.961 . S
H1290 C1304 0.960 . S
H1291 C1304 0.961 . S
H1292 C1304 0.959 . S
H1293 C1307 0.929 . S
H1294 C1308 0.931 . S
H1295 C1310 0.930 . S
C1296 H1284 0.930 . S
C1296 C1297 1.399 . S
C1296 C1301 1.399 . S
C1297 C1296 1.399 . S
C1297 C1298 1.376 . S
C1298 H1285 0.930 . S
C1298 C1297 1.376 . S
C1298 C1299 1.388 . S
C1299 H1286 0.930 . S
C1299 C1298 1.388 . S
C1299 C1300 1.390 . S
C1300 C1299 1.390 . S
C1300 C1301 1.394 . S
C1300 C1306 1.465 . S
C1301 C1296 1.399 . S
C1301 C1300 1.394 . S
C1301 C1302 1.516 . S
C1302 C1301 1.516 . S
C1302 C1303 1.502 . S
C1302 C1304 1.561 . S
C1302 C1305 1.526 . S
C1303 H1287 0.959 . S
C1303 H1288 0.959 . S
C1303 H1289 0.961 . S
C1303 C1302 1.502 . S
C1304 H1290 0.960 . S
C1304 H1291 0.961 . S
C1304 H1292 0.959 . S
C1304 C1302 1.561 . S
C1305 C1302 1.526 . S
C1305 C1306 1.396 . S
C1305 C1310 1.390 . S
C1306 C1300 1.465 . S
C1306 C1305 1.396 . S
C1306 C1307 1.399 . S
C1307 H1293 0.929 . S
C1307 C1306 1.399 . S
C1307 C1308 1.385 . S
C1308 H1294 0.931 . S
C1308 C1307 1.385 . S
C1308 C1309 1.389 . S
C1309 C1308 1.389 . S
C1309 C1310 1.387 . S
C1310 H1295 0.930 . S
C1310 C1305 1.390 . S
C1310 C1309 1.387 . S
H1311 C1323 0.930 . S
H1312 C1325 0.930 . S
H1313 C1326 0.930 . S
H1314 C1330 0.959 . S
H1315 C1330 0.959 . S
H1316 C1330 0.961 . S
H1317 C1331 0.960 . S
H1318 C1331 0.961 . S
H1319 C1331 0.959 . S
H1320 C1334 0.929 . S
H1321 C1335 0.931 . S
H1322 C1337 0.930 . S
C1323 H1311 0.930 . S
C1323 C1324 1.399 . S
C1323 C1328 1.399 . S
C1324 C1323 1.399 . S
C1324 C1325 1.376 . S
C1325 H1312 0.930 . S
C1325 C1324 1.376 . S
C1325 C1326 1.388 . S
C1326 H1313 0.930 . S
C1326 C1325 1.388 . S
C1326 C1327 1.390 . S
C1327 C1326 1.390 . S
C1327 C1328 1.394 . S
C1327 C1333 1.465 . S
C1328 C1323 1.399 . S
C1328 C1327 1.394 . S
C1328 C1329 1.516 . S
C1329 C1328 1.516 . S
C1329 C1330 1.502 . S
C1329 C1331 1.561 . S
C1329 C1332 1.526 . S
C1330 H1314 0.959 . S
C1330 H1315 0.959 . S
C1330 H1316 0.961 . S
C1330 C1329 1.502 . S
C1331 H1317 0.960 . S
C1331 H1318 0.961 . S
C1331 H1319 0.959 . S
C1331 C1329 1.561 . S
C1332 C1329 1.526 . S
C1332 C1333 1.396 . S
C1332 C1337 1.390 . S
C1333 C1327 1.465 . S
C1333 C1332 1.396 . S
C1333 C1334 1.399 . S
C1334 H1320 0.929 . S
C1334 C1333 1.399 . S
C1334 C1335 1.385 . S
C1335 H1321 0.931 . S
C1335 C1334 1.385 . S
C1335 C1336 1.389 . S
C1336 C1335 1.389 . S
C1336 C1337 1.387 . S
C1337 H1322 0.930 . S
C1337 C1332 1.390 . S
C1337 C1336 1.387 . S
H1338 C1350 0.930 . S
H1339 C1352 0.930 . S
H1340 C1353 0.930 . S
H1341 C1357 0.959 . S
H1342 C1357 0.959 . S
H1343 C1357 0.961 . S
H1344 C1358 0.960 . S
H1345 C1358 0.961 . S
H1346 C1358 0.959 . S
H1347 C1361 0.929 1_554 S
H1348 C1362 0.931 . S
H1349 C1364 0.930 . S
C1350 H1338 0.930 . S
C1350 C1351 1.399 . S
C1350 C1355 1.399 . S
C1351 C1350 1.399 . S
C1351 C1352 1.376 . S
C1352 H1339 0.930 . S
C1352 C1351 1.376 . S
C1352 C1353 1.388 . S
C1353 H1340 0.930 . S
C1353 C1352 1.388 . S
C1353 C1354 1.390 . S
C1354 C1353 1.390 . S
C1354 C1355 1.394 . S
C1354 C1360 1.465 . S
C1355 C1350 1.399 . S
C1355 C1354 1.394 . S
C1355 C1356 1.516 . S
C1356 C1355 1.516 . S
C1356 C1357 1.502 . S
C1356 C1358 1.561 . S
C1356 C1359 1.526 . S
C1357 H1341 0.959 . S
C1357 H1342 0.959 . S
C1357 H1343 0.961 . S
C1357 C1356 1.502 . S
C1358 H1344 0.960 . S
C1358 H1345 0.961 . S
C1358 H1346 0.959 . S
C1358 C1356 1.561 . S
C1359 C1356 1.526 . S
C1359 C1360 1.396 . S
C1359 C1364 1.390 . S
C1360 C1354 1.465 . S
C1360 C1359 1.396 . S
C1360 C1361 1.399 . S
C1361 H1347 0.929 1_556 S
C1361 C1360 1.399 . S
C1361 C1362 1.385 1_556 S
C1362 H1348 0.931 . S
C1362 C1361 1.385 1_554 S
C1362 C1363 1.389 1_554 S
C1363 C1362 1.389 1_556 S
C1363 C1364 1.387 . S
C1364 H1349 0.930 . S
C1364 C1359 1.390 . S
C1364 C1363 1.387 . S
H1365 C1377 0.930 . S
H1366 C1379 0.930 . S
H1367 C1380 0.930 . S
H1368 C1384 0.959 . S
H1369 C1384 0.959 . S
H1370 C1384 0.961 . S
H1371 C1385 0.960 . S
H1372 C1385 0.961 . S
H1373 C1385 0.959 . S
H1374 C1388 0.929 . S
H1375 C1389 0.931 . S
H1376 C1391 0.930 . S
C1377 H1365 0.930 . S
C1377 C1378 1.399 . S
C1377 C1382 1.399 . S
C1378 C1377 1.399 . S
C1378 C1379 1.376 . S
C1379 H1366 0.930 . S
C1379 C1378 1.376 . S
C1379 C1380 1.388 . S
C1380 H1367 0.930 . S
C1380 C1379 1.388 . S
C1380 C1381 1.390 . S
C1381 C1380 1.390 . S
C1381 C1382 1.394 . S
C1381 C1387 1.465 . S
C1382 C1377 1.399 . S
C1382 C1381 1.394 . S
C1382 C1383 1.516 . S
C1383 C1382 1.516 . S
C1383 C1384 1.502 . S
C1383 C1385 1.561 . S
C1383 C1386 1.526 . S
C1384 H1368 0.959 . S
C1384 H1369 0.959 . S
C1384 H1370 0.961 . S
C1384 C1383 1.502 . S
C1385 H1371 0.960 . S
C1385 H1372 0.961 . S
C1385 H1373 0.959 . S
C1385 C1383 1.561 . S
C1386 C1383 1.526 . S
C1386 C1387 1.396 . S
C1386 C1391 1.390 . S
C1387 C1381 1.465 . S
C1387 C1386 1.396 . S
C1387 C1388 1.399 . S
C1388 H1374 0.929 . S
C1388 C1387 1.399 . S
C1388 C1389 1.385 . S
C1389 H1375 0.931 . S
C1389 C1388 1.385 . S
C1389 C1390 1.389 . S
C1390 C1389 1.389 . S
C1390 C1391 1.387 . S
C1391 H1376 0.930 . S
C1391 C1386 1.390 . S
C1391 C1390 1.387 . S
H1392 C1404 0.930 . S
H1393 C1406 0.930 . S
H1394 C1407 0.930 . S
H1395 C1411 0.959 . S
H1396 C1411 0.959 . S
H1397 C1411 0.961 . S
H1398 C1412 0.960 1_554 S
H1399 C1412 0.961 1_554 S
H1400 C1412 0.959 . S
H1401 C1415 0.929 . S
H1402 C1416 0.931 . S
H1403 C1418 0.930 . S
C1404 H1392 0.930 . S
C1404 C1405 1.397 1_564 S
C1404 C1409 1.399 . S
C1405 C1404 1.397 1_546 S
C1405 C1406 1.380 . S
C1406 H1393 0.930 . S
C1406 C1405 1.380 . S
C1406 C1407 1.388 . S
C1407 H1394 0.930 . S
C1407 C1406 1.388 . S
C1407 C1408 1.390 . S
C1408 C1407 1.390 . S
C1408 C1409 1.394 1_546 S
C1408 C1414 1.465 . S
C1409 C1404 1.399 . S
C1409 C1408 1.394 1_564 S
C1409 C1410 1.516 . S
C1410 C1409 1.516 . S
C1410 C1411 1.502 . S
C1410 C1412 1.561 1_554 S
C1410 C1413 1.526 . S
C1411 H1395 0.959 . S
C1411 H1396 0.959 . S
C1411 H1397 0.961 . S
C1411 C1410 1.502 . S
C1412 H1398 0.960 1_556 S
C1412 H1399 0.961 1_556 S
C1412 H1400 0.959 . S
C1412 C1410 1.561 1_556 S
C1413 C1410 1.526 . S
C1413 C1414 1.396 1_564 S
C1413 C1418 1.390 . S
C1414 C1408 1.465 . S
C1414 C1413 1.396 1_546 S
C1414 C1415 1.399 . S
C1415 H1401 0.929 . S
C1415 C1414 1.399 . S
C1415 C1416 1.385 . S
C1416 H1402 0.931 . S
C1416 C1415 1.385 . S
C1416 C1417 1.389 . S
C1417 C1416 1.389 . S
C1417 C1418 1.387 1_546 S
C1418 H1403 0.930 . S
C1418 C1413 1.390 . S
C1418 C1417 1.387 1_564 S
H1419 C1431 0.930 . S
H1420 C1433 0.930 . S
H1421 C1434 0.930 . S
H1422 C1438 0.959 . S
H1423 C1438 0.959 . S
H1424 C1438 0.961 . S
H1425 C1439 0.960 . S
H1426 C1439 0.961 . S
H1427 C1439 0.959 . S
H1428 C1442 0.929 . S
H1429 C1443 0.931 . S
H1430 C1445 0.930 . S
C1431 H1419 0.930 . S
C1431 C1432 1.399 . S
C1431 C1436 1.399 . S
C1432 C1431 1.399 . S
C1432 C1433 1.376 . S
C1433 H1420 0.930 . S
C1433 C1432 1.376 . S
C1433 C1434 1.388 . S
C1434 H1421 0.930 . S
C1434 C1433 1.388 . S
C1434 C1435 1.390 . S
C1435 C1434 1.390 . S
C1435 C1436 1.394 . S
C1435 C1441 1.465 . S
C1436 C1431 1.399 . S
C1436 C1435 1.394 . S
C1436 C1437 1.516 . S
C1437 C1436 1.516 . S
C1437 C1438 1.502 . S
C1437 C1439 1.561 . S
C1437 C1440 1.526 . S
C1438 H1422 0.959 . S
C1438 H1423 0.959 . S
C1438 H1424 0.961 . S
C1438 C1437 1.502 . S
C1439 H1425 0.960 . S
C1439 H1426 0.961 . S
C1439 H1427 0.959 . S
C1439 C1437 1.561 . S
C1440 C1437 1.526 . S
C1440 C1441 1.396 . S
C1440 C1445 1.390 . S
C1441 C1435 1.465 . S
C1441 C1440 1.396 . S
C1441 C1442 1.399 . S
C1442 H1428 0.929 . S
C1442 C1441 1.399 . S
C1442 C1443 1.385 . S
C1443 H1429 0.931 . S
C1443 C1442 1.385 . S
C1443 C1444 1.389 . S
C1444 C1443 1.389 . S
C1444 C1445 1.387 . S
C1445 H1430 0.930 . S
C1445 C1440 1.390 . S
C1445 C1444 1.387 . S
H1446 C1458 0.930 . S
H1447 C1460 0.930 . S
H1448 C1461 0.930 . S
H1449 C1465 0.958 1_655 S
H1450 C1465 0.955 1_655 S
H1451 C1465 0.965 . S
H1452 C1466 0.928 1_455 S
H1453 C1466 0.991 . S
H1454 C1466 0.963 . S
H1455 C1469 0.929 . S
H1456 C1470 0.931 . S
H1457 C1472 0.930 . S
C1458 H1446 0.930 . S
C1458 C1459 1.399 . S
C1458 C1463 1.399 . S
C1459 C1458 1.399 . S
C1459 C1460 1.376 1_545 S
C1460 H1447 0.930 . S
C1460 C1459 1.376 1_565 S
C1460 C1461 1.388 . S
C1461 H1448 0.930 . S
C1461 C1460 1.388 . S
C1461 C1462 1.390 . S
C1462 C1461 1.390 . S
C1462 C1463 1.394 1_565 S
C1462 C1468 1.465 1_455 S
C1463 C1458 1.399 . S
C1463 C1462 1.394 1_545 S
C1463 C1464 1.521 1_455 S
C1464 C1463 1.521 1_655 S
C1464 C1465 1.502 1_655 S
C1464 C1466 1.561 . S
C1464 C1467 1.521 . S
C1465 H1449 0.958 1_455 S
C1465 H1450 0.955 1_455 S
C1465 H1451 0.965 . S
C1465 C1464 1.502 1_455 S
C1466 H1452 0.928 1_655 S
C1466 H1453 0.991 . S
C1466 H1454 0.963 . S
C1466 C1464 1.561 . S
C1467 C1464 1.521 . S
C1467 C1468 1.396 1_545 S
C1467 C1472 1.390 . S
C1468 C1462 1.465 1_655 S
C1468 C1467 1.396 1_565 S
C1468 C1469 1.399 . S
C1469 H1455 0.929 . S
C1469 C1468 1.399 . S
C1469 C1470 1.385 . S
C1470 H1456 0.931 . S
C1470 C1469 1.385 . S
C1470 C1471 1.389 1_565 S
C1471 C1470 1.389 1_545 S
C1471 C1472 1.387 . S
C1472 H1457 0.930 . S
C1472 C1467 1.390 . S
C1472 C1471 1.387 . S
H1473 C1485 0.930 . S
H1474 C1487 0.930 . S
H1475 C1488 0.930 . S
H1476 C1492 0.959 . S
H1477 C1492 0.959 . S
H1478 C1492 0.961 . S
H1479 C1493 0.960 . S
H1480 C1493 0.961 . S
H1481 C1493 0.959 . S
H1482 C1496 0.929 . S
H1483 C1497 0.931 . S
H1484 C1499 0.930 . S
C1485 H1473 0.930 . S
C1485 C1486 1.399 . S
C1485 C1490 1.399 . S
C1486 C1485 1.399 . S
C1486 C1487 1.376 . S
C1487 H1474 0.930 . S
C1487 C1486 1.376 . S
C1487 C1488 1.388 . S
C1488 H1475 0.930 . S
C1488 C1487 1.388 . S
C1488 C1489 1.390 . S
C1489 C1488 1.390 . S
C1489 C1490 1.394 . S
C1489 C1495 1.465 . S
C1490 C1485 1.399 . S
C1490 C1489 1.394 . S
C1490 C1491 1.516 . S
C1491 C1490 1.516 . S
C1491 C1492 1.502 . S
C1491 C1493 1.561 . S
C1491 C1494 1.526 . S
C1492 H1476 0.959 . S
C1492 H1477 0.959 . S
C1492 H1478 0.961 . S
C1492 C1491 1.502 . S
C1493 H1479 0.960 . S
C1493 H1480 0.961 . S
C1493 H1481 0.959 . S
C1493 C1491 1.561 . S
C1494 C1491 1.526 . S
C1494 C1495 1.396 . S
C1494 C1499 1.390 . S
C1495 C1489 1.465 . S
C1495 C1494 1.396 . S
C1495 C1496 1.399 . S
C1496 H1482 0.929 . S
C1496 C1495 1.399 . S
C1496 C1497 1.385 . S
C1497 H1483 0.931 . S
C1497 C1496 1.385 . S
C1497 C1498 1.389 . S
C1498 C1497 1.389 . S
C1498 C1499 1.387 . S
C1499 H1484 0.930 . S
C1499 C1494 1.390 . S
C1499 C1498 1.387 . S
H1500 C1512 0.930 . S
H1501 C1514 0.930 . S
H1502 C1515 0.930 . S
H1503 C1519 0.959 . S
H1504 C1519 0.959 . S
H1505 C1519 0.961 . S
H1506 C1520 0.960 . S
H1507 C1520 0.961 . S
H1508 C1520 0.959 . S
H1509 C1523 0.929 . S
H1510 C1524 0.931 . S
H1511 C1526 0.930 . S
C1512 H1500 0.930 . S
C1512 C1513 1.399 . S
C1512 C1517 1.399 . S
C1513 C1512 1.399 . S
C1513 C1514 1.376 . S
C1514 H1501 0.930 . S
C1514 C1513 1.376 . S
C1514 C1515 1.388 . S
C1515 H1502 0.930 . S
C1515 C1514 1.388 . S
C1515 C1516 1.390 . S
C1516 C1515 1.390 . S
C1516 C1517 1.394 . S
C1516 C1522 1.465 . S
C1517 C1512 1.399 . S
C1517 C1516 1.394 . S
C1517 C1518 1.516 . S
C1518 C1517 1.516 . S
C1518 C1519 1.502 . S
C1518 C1520 1.561 . S
C1518 C1521 1.526 . S
C1519 H1503 0.959 . S
C1519 H1504 0.959 . S
C1519 H1505 0.961 . S
C1519 C1518 1.502 . S
C1520 H1506 0.960 . S
C1520 H1507 0.961 . S
C1520 H1508 0.959 . S
C1520 C1518 1.561 . S
C1521 C1518 1.526 . S
C1521 C1522 1.396 . S
C1521 C1526 1.390 . S
C1522 C1516 1.465 . S
C1522 C1521 1.396 . S
C1522 C1523 1.399 . S
C1523 H1509 0.929 . S
C1523 C1522 1.399 . S
C1523 C1524 1.385 . S
C1524 H1510 0.931 . S
C1524 C1523 1.385 . S
C1524 C1525 1.389 . S
C1525 C1524 1.389 . S
C1525 C1526 1.387 . S
C1526 H1511 0.930 . S
C1526 C1521 1.390 . S
C1526 C1525 1.387 . S
H1527 C1539 0.930 . S
H1528 C1541 0.930 . S
H1529 C1542 0.930 . S
H1530 C1546 0.959 . S
H1531 C1546 0.959 . S
H1532 C1546 0.961 . S
H1533 C1547 0.960 . S
H1534 C1547 0.961 . S
H1535 C1547 0.959 . S
H1536 C1550 0.929 . S
H1537 C1551 0.931 . S
H1538 C1553 0.930 . S
C1539 H1527 0.930 . S
C1539 C1540 1.399 . S
C1539 C1544 1.399 . S
C1540 C1539 1.399 . S
C1540 C1541 1.376 . S
C1541 H1528 0.930 . S
C1541 C1540 1.376 . S
C1541 C1542 1.388 . S
C1542 H1529 0.930 . S
C1542 C1541 1.388 . S
C1542 C1543 1.390 . S
C1543 C1542 1.390 . S
C1543 C1544 1.394 . S
C1543 C1549 1.465 . S
C1544 C1539 1.399 . S
C1544 C1543 1.394 . S
C1544 C1545 1.516 . S
C1545 C1544 1.516 . S
C1545 C1546 1.502 . S
C1545 C1547 1.561 . S
C1545 C1548 1.526 . S
C1546 H1530 0.959 . S
C1546 H1531 0.959 . S
C1546 H1532 0.961 . S
C1546 C1545 1.502 . S
C1547 H1533 0.960 . S
C1547 H1534 0.961 . S
C1547 H1535 0.959 . S
C1547 C1545 1.561 . S
C1548 C1545 1.526 . S
C1548 C1549 1.396 . S
C1548 C1553 1.390 . S
C1549 C1543 1.465 . S
C1549 C1548 1.396 . S
C1549 C1550 1.399 . S
C1550 H1536 0.929 . S
C1550 C1549 1.399 . S
C1550 C1551 1.385 . S
C1551 H1537 0.931 . S
C1551 C1550 1.385 . S
C1551 C1552 1.389 . S
C1552 C1551 1.389 . S
C1552 C1553 1.387 . S
C1553 H1538 0.930 . S
C1553 C1548 1.390 . S
C1553 C1552 1.387 . S
H1554 C1566 0.930 . S
H1555 C1568 0.930 . S
H1556 C1569 0.930 . S
H1557 C1573 0.966 . S
H1558 C1573 1.002 . S
H1559 C1573 0.915 1_655 S
H1560 C1574 0.990 . S
H1561 C1574 0.934 1_455 S
H1562 C1574 0.957 1_455 S
H1563 C1577 0.929 . S
H1564 C1578 0.931 . S
H1565 C1580 0.930 . S
C1566 H1554 0.930 . S
C1566 C1567 1.399 . S
C1566 C1571 1.399 . S
C1567 C1566 1.399 . S
C1567 C1568 1.376 . S
C1568 H1555 0.930 . S
C1568 C1567 1.376 . S
C1568 C1569 1.388 . S
C1569 H1556 0.930 . S
C1569 C1568 1.388 . S
C1569 C1570 1.390 . S
C1570 C1569 1.390 . S
C1570 C1571 1.394 . S
C1570 C1576 1.465 1_655 S
C1571 C1566 1.399 . S
C1571 C1570 1.394 . S
C1571 C1572 1.511 . S
C1572 C1571 1.511 . S
C1572 C1573 1.501 1_655 S
C1572 C1574 1.561 . S
C1572 C1575 1.531 1_655 S
C1573 H1557 0.966 . S
C1573 H1558 1.002 . S
C1573 H1559 0.915 1_455 S
C1573 C1572 1.501 1_455 S
C1574 H1560 0.990 . S
C1574 H1561 0.934 1_655 S
C1574 H1562 0.957 1_655 S
C1574 C1572 1.561 . S
C1575 C1572 1.531 1_455 S
C1575 C1576 1.396 . S
C1575 C1580 1.390 . S
C1576 C1570 1.465 1_455 S
C1576 C1575 1.396 . S
C1576 C1577 1.399 . S
C1577 H1563 0.929 . S
C1577 C1576 1.399 . S
C1577 C1578 1.385 . S
C1578 H1564 0.931 . S
C1578 C1577 1.385 . S
C1578 C1579 1.389 . S
C1579 C1578 1.389 . S
C1579 C1580 1.387 . S
C1580 H1565 0.930 . S
C1580 C1575 1.390 . S
C1580 C1579 1.387 . S
H1581 C1593 0.930 . S
H1582 C1595 0.930 . S
H1583 C1596 0.930 . S
H1584 C1600 0.959 . S
H1585 C1600 0.959 . S
H1586 C1600 0.961 . S
H1587 C1601 0.960 . S
H1588 C1601 0.961 . S
H1589 C1601 0.959 . S
H1590 C1604 0.929 . S
H1591 C1605 0.931 . S
H1592 C1607 0.930 . S
C1593 H1581 0.930 . S
C1593 C1594 1.399 . S
C1593 C1598 1.399 . S
C1594 C1593 1.399 . S
C1594 C1595 1.376 1_554 S
C1595 H1582 0.930 . S
C1595 C1594 1.376 1_556 S
C1595 C1596 1.388 . S
C1596 H1583 0.930 . S
C1596 C1595 1.388 . S
C1596 C1597 1.390 . S
C1597 C1596 1.390 . S
C1597 C1598 1.394 1_556 S
C1597 C1603 1.465 . S
C1598 C1593 1.399 . S
C1598 C1597 1.394 1_554 S
C1598 C1599 1.516 . S
C1599 C1598 1.516 . S
C1599 C1600 1.502 . S
C1599 C1601 1.561 1_554 S
C1599 C1602 1.526 . S
C1600 H1584 0.959 . S
C1600 H1585 0.959 . S
C1600 H1586 0.961 . S
C1600 C1599 1.502 . S
C1601 H1587 0.960 . S
C1601 H1588 0.961 . S
C1601 H1589 0.959 . S
C1601 C1599 1.561 1_556 S
C1602 C1599 1.526 . S
C1602 C1603 1.396 1_554 S
C1602 C1607 1.390 . S
C1603 C1597 1.465 . S
C1603 C1602 1.396 1_556 S
C1603 C1604 1.399 . S
C1604 H1590 0.929 . S
C1604 C1603 1.399 . S
C1604 C1605 1.385 . S
C1605 H1591 0.931 . S
C1605 C1604 1.385 . S
C1605 C1606 1.389 . S
C1606 C1605 1.389 . S
C1606 C1607 1.387 1_556 S
C1607 H1592 0.930 . S
C1607 C1602 1.390 . S
C1607 C1606 1.387 1_554 S
C541 N5 1.390 . S
C553 N14 1.428 1_545 S
C568 N38 1.419 1_556 S
C580 N47 1.407 . S
C595 N80 1.410 1_545 S
C607 N71 1.417 . S
C622 N113 1.426 . S
C634 N104 1.391 1_554 S
C649 N146 1.430 . S
C661 N137 1.390 1_545 S
C676 N179 1.413 . S
C688 N170 1.425 1_554 S
C703 N203 1.418 1_545 S
C715 N212 1.412 . S
C730 N245 1.404 . S
C742 N236 1.408 1_556 S
C757 N269 1.391 . S
C769 N278 1.430 . S
C784 N302 1.422 . S
C796 N311 1.404 1_554 S
C811 N344 1.412 . S
C823 N335 1.415 . S
C838 N368 1.410 . S
C850 N377 1.398 1_556 S
C865 N401 1.413 . S
C877 N410 1.399 . S
C892 N443 1.419 1_556 S
C904 N434 1.421 . S
C919 N467 1.419 . S
C931 N476 1.421 . S
C946 N509 1.403 1_554 S
C958 N500 1.418 . S
C973 C8 1.325 . S
C985 C61 1.321 . S
C1000 C74 1.440 . S
C1012 C41 1.427 . S
C1027 C107 1.348 . S
C1039 C94 1.358 . S
C1054 C28 1.249 . S
C1066 C127 1.260 . S
C1081 C193 1.336 . S
C1093 C140 1.345 . S
C1108 C173 1.429 . S
C1120 C206 1.437 . S
C1135 C226 1.346 . S
C1147 C239 1.346 . S
C1162 C259 1.279 . S
C1174 C160 1.276 . S
C1189 C325 1.327 . S
C1201 C272 1.349 . S
C1216 C305 1.431 . S
C1228 C338 1.412 . S
C1243 C358 1.359 . S
C1255 C371 1.349 . S
C1270 C391 1.262 . S
C1282 C292 1.252 . S
C1297 C404 1.348 . S
C1309 C457 1.348 . S
C1324 C437 1.438 . S
C1336 C470 1.440 . S
C1351 C503 1.354 . S
C1363 C490 1.355 . S
C1378 C424 1.281 . S
C1390 C523 1.279 . S
C1405 C17 1.190 1_556 S
C1417 C149 1.205 1_556 S
C1432 C446 1.276 . S
C1444 C50 1.256 . S
C1459 C83 1.272 . S
C1471 C215 1.263 . S
C1486 C512 1.197 . S
C1498 C116 1.204 . S
C1513 C314 1.260 . S
C1525 C182 1.275 . S
C1540 C248 1.206 . S
C1552 C380 1.190 . S
C1567 C281 1.193 . S
C1579 C413 1.201 . S
C1594 C479 1.259 . S
C1606 C347 1.271 1_556 S
