# Generated by pormake.
# Topology ooa, (5)-cn, num edge types: 1
# Building blocks:
#     Node 0, Type 0, BuildingBlock: BEQFEK_clean_sbu_0, # of connection points: 5
#     Node 1, Type 0, BuildingBlock: BEQFEK_clean_sbu_0, # of connection points: 5
#     Node 2, Type 0, BuildingBlock: BEQFEK_clean_sbu_0, # of connection points: 5
#     Node 3, Type 0, BuildingBlock: BEQFEK_clean_sbu_0, # of connection points: 5
#     Node 4, Type 0, BuildingBlock: BEQFEK_clean_sbu_0, # of connection points: 5
#     Node 5, Type 0, BuildingBlock: BEQFEK_clean_sbu_0, # of connection points: 5
#     Node 6, Type 0, BuildingBlock: BEQFEK_clean_sbu_0, # of connection points: 5
#     Node 7, Type 0, BuildingBlock: BEQFEK_clean_sbu_0, # of connection points: 5
#     Edge 8, Type (0, 0), BuildingBlock: ZUJKAS_clean_linker_0, # of connection points: 2
#     Edge 9, Type (0, 0), BuildingBlock: ZUJKAS_clean_linker_0, # of connection points: 2
#     Edge 10, Type (0, 0), BuildingBlock: ZUJKAS_clean_linker_0, # of connection points: 2
#     Edge 11, Type (0, 0), BuildingBlock: ZUJKAS_clean_linker_0, # of connection points: 2
#     Edge 12, Type (0, 0), BuildingBlock: ZUJKAS_clean_linker_0, # of connection points: 2
#     Edge 13, Type (0, 0), BuildingBlock: ZUJKAS_clean_linker_0, # of connection points: 2
#     Edge 14, Type (0, 0), BuildingBlock: ZUJKAS_clean_linker_0, # of connection points: 2
#     Edge 15, Type (0, 0), BuildingBlock: ZUJKAS_clean_linker_0, # of connection points: 2
#     Edge 16, Type (0, 0), BuildingBlock: ZUJKAS_clean_linker_0, # of connection points: 2
#     Edge 17, Type (0, 0), BuildingBlock: ZUJKAS_clean_linker_0, # of connection points: 2
#     Edge 18, Type (0, 0), BuildingBlock: ZUJKAS_clean_linker_0, # of connection points: 2
#     Edge 19, Type (0, 0), BuildingBlock: ZUJKAS_clean_linker_0, # of connection points: 2
#     Edge 20, Type (0, 0), BuildingBlock: ZUJKAS_clean_linker_0, # of connection points: 2
#     Edge 21, Type (0, 0), BuildingBlock: ZUJKAS_clean_linker_0, # of connection points: 2
#     Edge 22, Type (0, 0), BuildingBlock: ZUJKAS_clean_linker_0, # of connection points: 2
#     Edge 23, Type (0, 0), BuildingBlock: ZUJKAS_clean_linker_0, # of connection points: 2
#     Edge 24, Type (0, 0), BuildingBlock: ZUJKAS_clean_linker_0, # of connection points: 2
#     Edge 25, Type (0, 0), BuildingBlock: ZUJKAS_clean_linker_0, # of connection points: 2
#     Edge 26, Type (0, 0), BuildingBlock: ZUJKAS_clean_linker_0, # of connection points: 2
#     Edge 27, Type (0, 0), BuildingBlock: ZUJKAS_clean_linker_0, # of connection points: 2
# Relax obj value: 0.491
# Max RMSD: 0.270
# Mean RMSD: 0.270
data_MOF--net-ooa--node1-BEQFEK_clean_sbu_0--edge1-ZUJKAS_clean_linker_0
_symmetry_space_group_name_H-M    P1
_symmetry_Int_Tables_number       1
_symmetry_cell_setting            triclinic
loop_
_symmetry_equiv_pos_as_xyz
'x, y, z'
_cell_length_a     35.065299
_cell_length_b     57.886739
_cell_length_c     60.104413
_cell_angle_alpha  89.947349
_cell_angle_beta   90.007885
_cell_angle_gamma 90.005177
loop_
_atom_site_label
_atom_site_type_symbol
_atom_site_fract_x
_atom_site_fract_y
_atom_site_fract_z
_atom_type_partial_charge
Co0 Co 0.17221 0.12652 0.04847 0.0
Co1 Co 0.18807 0.1608 0.08775 0.0
C2 C 0.20142 0.11107 0.09396 0.0
O3 O 0.19226 0.10873 0.07368 0.0
O4 O 0.20093 0.13088 0.10314 0.0
C5 C 0.12752 0.0894 0.04063 0.0
O6 O 0.12267 0.09397 0.06184 0.0
C7 C 0.19424 0.18587 0.13062 0.0
C8 C 0.1867 0.22199 0.11952 0.0
C9 C 0.19167 0.20848 0.13833 0.0
N10 N 0.1902 0.18607 0.10834 0.0
N11 N 0.18601 0.20774 0.10184 0.0
C12 C 0.20311 0.16458 0.1438 0.0
H13 H 0.22564 0.15455 0.13522 0.0
H14 H 0.17719 0.15364 0.14487 0.0
H15 H 0.21337 0.16876 0.16077 0.0
C16 C 0.09743 0.14875 0.04985 0.0
N17 N 0.13317 0.14652 0.05758 0.0
N18 N 0.13765 0.15955 0.07529 0.0
C19 C 0.10388 0.16986 0.0799 0.0
C20 C 0.07723 0.16313 0.06396 0.0
C21 C 0.08359 0.13863 0.02837 0.0
H22 H 0.10771 0.1362 0.01667 0.0
H23 H 0.07001 0.12166 0.0316 0.0
H24 H 0.06198 0.15006 0.02055 0.0
O25 O 0.21358 0.14406 0.03486 0.0
O26 O 0.22673 0.1674 0.06331 0.0
H27 H 0.1057 0.20272 0.09585 0.0
H28 H 0.06599 0.18497 0.10416 0.0
C29 C 0.09673 0.18479 0.09975 0.0
H30 H 0.11366 0.17856 0.11414 0.0
H31 H 0.18215 0.21276 0.08531 0.0
O32 O 0.14957 0.10231 0.02927 0.0
C33 C 0.23343 0.16013 0.04356 0.0
Co34 Co 0.33811 0.87372 0.05089 0.0
Co35 Co 0.31437 0.84175 0.09047 0.0
C36 C 0.31423 0.89289 0.09554 0.0
O37 O 0.32491 0.89443 0.0754 0.0
O38 O 0.30858 0.87322 0.10456 0.0
C39 C 0.35078 0.91366 0.0245 0.0
O40 O 0.31772 0.91994 0.03282 0.0
C41 C 0.31594 0.8183 0.13391 0.0
C42 C 0.28728 0.78531 0.12602 0.0
C43 C 0.30458 0.79735 0.14322 0.0
N44 N 0.30569 0.81847 0.11235 0.0
N45 N 0.28844 0.79876 0.10778 0.0
C46 C 0.33858 0.8372 0.14457 0.0
H47 H 0.35413 0.84729 0.13175 0.0
H48 H 0.35916 0.82999 0.15677 0.0
H49 H 0.31889 0.84908 0.15338 0.0
C50 C 0.4082 0.84651 0.05379 0.0
N51 N 0.37275 0.8513 0.06083 0.0
N52 N 0.36405 0.83779 0.07771 0.0
C53 C 0.39416 0.82376 0.08182 0.0
C54 C 0.42302 0.82904 0.06683 0.0
C55 C 0.42772 0.85873 0.03501 0.0
H56 H 0.40859 0.85922 0.02032 0.0
H57 H 0.43382 0.87677 0.04011 0.0
H58 H 0.45489 0.8502 0.03034 0.0
O59 O 0.29196 0.85936 0.03845 0.0
O60 O 0.27432 0.83729 0.06691 0.0
H61 H 0.36971 0.79478 0.09872 0.0
H62 H 0.42138 0.79489 0.0982 0.0
C63 C 0.39549 0.80582 0.0997 0.0
H64 H 0.39566 0.81442 0.11616 0.0
H65 H 0.27788 0.79437 0.09211 0.0
O66 O 0.3636 0.89365 0.02886 0.0
C67 C 0.26896 0.84496 0.04723 0.0
Co68 Co 0.15354 0.3703 0.45321 0.0
Co69 Co 0.18252 0.33792 0.41512 0.0
C70 C 0.18959 0.38831 0.4104 0.0
O71 O 0.17577 0.38969 0.42985 0.0
O72 O 0.19371 0.36876 0.40103 0.0
C73 C 0.10001 0.40312 0.45802 0.0
O74 O 0.09873 0.39721 0.43692 0.0
C75 C 0.18877 0.31491 0.37184 0.0
C76 C 0.2095 0.2802 0.38122 0.0
C77 C 0.19878 0.29354 0.3631 0.0
N78 N 0.19354 0.3142 0.39403 0.0
N79 N 0.20612 0.29345 0.39952 0.0
C80 C 0.17179 0.33506 0.35977 0.0
H81 H 0.15319 0.34515 0.37111 0.0
H82 H 0.155 0.32921 0.34517 0.0
H83 H 0.19509 0.34651 0.3539 0.0
C84 C 0.08441 0.34242 0.44768 0.0
N85 N 0.12004 0.34806 0.44151 0.0
N86 N 0.13046 0.33513 0.42457 0.0
C87 C 0.10095 0.32111 0.41914 0.0
C88 C 0.07087 0.32555 0.43356 0.0
C89 C 0.06427 0.35181 0.4677 0.0
H90 H 0.0851 0.35741 0.48047 0.0
H91 H 0.04639 0.36673 0.46265 0.0
H92 H 0.04513 0.33858 0.47505 0.0
O93 O 0.19481 0.3549 0.46944 0.0
O94 O 0.21728 0.33333 0.44165 0.0
H95 H 0.12487 0.29083 0.40442 0.0
H96 H 0.07417 0.29417 0.39975 0.0
C97 C 0.1018 0.30345 0.40103 0.0
H98 H 0.10815 0.31203 0.38496 0.0
H99 H 0.2118 0.28822 0.41581 0.0
O100 O 0.1237 0.39294 0.47073 0.0
C101 C 0.21888 0.34041 0.46181 0.0
Co102 Co 0.34479 0.62741 0.45663 0.0
Co103 Co 0.32012 0.65938 0.4171 0.0
C104 C 0.3159 0.60842 0.41269 0.0
O105 O 0.32789 0.60699 0.43259 0.0
O106 O 0.31124 0.62804 0.4034 0.0
C107 C 0.35944 0.58641 0.48111 0.0
O108 O 0.32628 0.58024 0.47285 0.0
C109 C 0.31949 0.68307 0.37368 0.0
C110 C 0.29324 0.7165 0.3826 0.0
C111 C 0.30857 0.70433 0.36487 0.0
N112 N 0.31093 0.68286 0.39549 0.0
N113 N 0.29509 0.70285 0.40068 0.0
C114 C 0.34027 0.66387 0.36227 0.0
H115 H 0.3561 0.65327 0.3746 0.0
H116 H 0.36038 0.67083 0.34968 0.0
H117 H 0.31931 0.65254 0.35378 0.0
C118 C 0.41532 0.65405 0.45242 0.0
N119 N 0.37978 0.64912 0.4456 0.0
N120 N 0.37075 0.66242 0.42863 0.0
C121 C 0.40076 0.67635 0.42411 0.0
C122 C 0.42977 0.67149 0.43914 0.0
C123 C 0.43538 0.64161 0.47087 0.0
H124 H 0.41773 0.64235 0.48618 0.0
H125 H 0.43882 0.62319 0.4662 0.0
H126 H 0.46395 0.64896 0.47435 0.0
O127 O 0.30088 0.64307 0.47027 0.0
O128 O 0.28259 0.6649 0.44176 0.0
H129 H 0.37629 0.706 0.40836 0.0
H130 H 0.42784 0.70489 0.40706 0.0
C131 C 0.4013 0.69447 0.40637 0.0
H132 H 0.39927 0.68606 0.38985 0.0
H133 H 0.28601 0.70728 0.41664 0.0
O134 O 0.37126 0.60688 0.47787 0.0
C135 C 0.27829 0.65787 0.46174 0.0
Co136 Co 0.83289 0.87827 0.9479 0.0
Co137 Co 0.81014 0.84067 0.91284 0.0
C138 C 0.80131 0.8905 0.90249 0.0
O139 O 0.81357 0.89486 0.92187 0.0
O140 O 0.7977 0.86977 0.89578 0.0
C141 C 0.88116 0.91454 0.95291 0.0
O142 O 0.88511 0.90865 0.93194 0.0
C143 C 0.81367 0.81236 0.87219 0.0
C144 C 0.78067 0.78154 0.88219 0.0
C145 C 0.80023 0.79125 0.86447 0.0
N146 N 0.80271 0.81487 0.89351 0.0
N147 N 0.78322 0.79631 0.89941 0.0
C148 C 0.83422 0.83057 0.85914 0.0
H149 H 0.835 0.84713 0.86828 0.0
H150 H 0.86409 0.82509 0.85623 0.0
H151 H 0.82036 0.833 0.8427 0.0
C152 C 0.90468 0.85208 0.94755 0.0
N153 N 0.86942 0.85602 0.9396 0.0
N154 N 0.86111 0.84038 0.92445 0.0
C155 C 0.89126 0.82592 0.92238 0.0
C156 C 0.91986 0.83319 0.93674 0.0
C157 C 0.92255 0.86491 0.96652 0.0
H158 H 0.90047 0.87023 0.97867 0.0
H159 H 0.93711 0.88051 0.96001 0.0
H160 H 0.94418 0.85415 0.97515 0.0
O161 O 0.79011 0.86332 0.96378 0.0
O162 O 0.77365 0.83723 0.93831 0.0
H163 H 0.86599 0.79437 0.9111 0.0
H164 H 0.91766 0.79417 0.91138 0.0
C165 C 0.89197 0.80483 0.90805 0.0
H166 H 0.89207 0.81013 0.89034 0.0
H167 H 0.77106 0.79391 0.91509 0.0
O168 O 0.85854 0.90291 0.96513 0.0
C169 C 0.76881 0.84677 0.95727 0.0
Co170 Co 0.66045 0.12587 0.95104 0.0
Co171 Co 0.68719 0.15918 0.91283 0.0
C172 C 0.69598 0.10888 0.90786 0.0
O173 O 0.68373 0.1071 0.92762 0.0
O174 O 0.69763 0.12847 0.89831 0.0
C175 C 0.60874 0.09185 0.95525 0.0
O176 O 0.60762 0.09808 0.93423 0.0
C177 C 0.68755 0.18477 0.87007 0.0
C178 C 0.71918 0.21633 0.87931 0.0
C179 C 0.7009 0.20566 0.86164 0.0
N180 N 0.69721 0.18336 0.89174 0.0
N181 N 0.71607 0.20232 0.89711 0.0
C182 C 0.66779 0.1659 0.85751 0.0
H183 H 0.66933 0.14932 0.86659 0.0
H184 H 0.63725 0.17034 0.85542 0.0
H185 H 0.68059 0.16392 0.84073 0.0
C186 C 0.59055 0.15317 0.94678 0.0
N187 N 0.62577 0.14773 0.9397 0.0
N188 N 0.63576 0.16177 0.92347 0.0
C189 C 0.60664 0.17668 0.91974 0.0
C190 C 0.57699 0.17133 0.93419 0.0
C191 C 0.5715 0.14283 0.96676 0.0
H192 H 0.59306 0.1375 0.97924 0.0
H193 H 0.55477 0.1275 0.96155 0.0
H194 H 0.55153 0.15529 0.97457 0.0
O195 O 0.70113 0.14208 0.96725 0.0
O196 O 0.72334 0.16315 0.93887 0.0
H197 H 0.63415 0.20673 0.90661 0.0
H198 H 0.58254 0.20779 0.90564 0.0
C199 C 0.60789 0.19647 0.90378 0.0
H200 H 0.60869 0.18971 0.88657 0.0
H201 H 0.72693 0.20568 0.91294 0.0
O202 O 0.63157 0.10235 0.96826 0.0
C203 C 0.72517 0.15634 0.95914 0.0
Co204 Co 0.84656 0.6291 0.55133 0.0
Co205 Co 0.81909 0.66447 0.58702 0.0
C206 C 0.81394 0.61359 0.59491 0.0
O207 O 0.82882 0.60984 0.57602 0.0
O208 O 0.80736 0.63402 0.60178 0.0
C209 C 0.85691 0.58847 0.52637 0.0
O210 O 0.82204 0.58436 0.53334 0.0
C211 C 0.8169 0.68778 0.62999 0.0
C212 C 0.79233 0.7218 0.62148 0.0
C213 C 0.80589 0.70877 0.63916 0.0
N214 N 0.80987 0.68838 0.60804 0.0
N215 N 0.79515 0.70874 0.60302 0.0
C216 C 0.83643 0.66803 0.64133 0.0
H217 H 0.85443 0.65843 0.62929 0.0
H218 H 0.85432 0.67424 0.65534 0.0
H219 H 0.81459 0.65597 0.64795 0.0
C220 C 0.91799 0.65453 0.55627 0.0
N221 N 0.88146 0.65089 0.56189 0.0
N222 N 0.87087 0.66612 0.5769 0.0
C223 C 0.90073 0.6803 0.58108 0.0
C224 C 0.93157 0.67314 0.56829 0.0
C225 C 0.93878 0.64106 0.5388 0.0
H226 H 0.92149 0.64065 0.52334 0.0
H227 H 0.94255 0.62301 0.54463 0.0
H228 H 0.96713 0.64858 0.53498 0.0
O229 O 0.80372 0.64436 0.53595 0.0
O230 O 0.78343 0.66925 0.56147 0.0
H231 H 0.87514 0.71169 0.59239 0.0
H232 H 0.92646 0.71056 0.59589 0.0
C233 C 0.89964 0.7004 0.59665 0.0
H234 H 0.89544 0.69403 0.61387 0.0
H235 H 0.7872 0.71374 0.587 0.0
O236 O 0.8725 0.60763 0.53112 0.0
C237 C 0.78088 0.66019 0.54218 0.0
Co238 Co 0.65808 0.37333 0.54661 0.0
Co239 Co 0.68289 0.33976 0.58516 0.0
C240 C 0.68842 0.39101 0.59023 0.0
O241 O 0.67467 0.39348 0.57085 0.0
O242 O 0.69435 0.371 0.5984 0.0
C243 C 0.64375 0.41481 0.52284 0.0
O244 O 0.67636 0.42098 0.53183 0.0
C245 C 0.68212 0.31599 0.62899 0.0
C246 C 0.7129 0.2838 0.62085 0.0
C247 C 0.69541 0.29542 0.63822 0.0
N248 N 0.69127 0.31631 0.60721 0.0
N249 N 0.70951 0.29696 0.60249 0.0
C250 C 0.66296 0.33555 0.64083 0.0
H251 H 0.66404 0.35157 0.63081 0.0
H252 H 0.63255 0.3312 0.64362 0.0
H253 H 0.67655 0.33849 0.65726 0.0
C254 C 0.58705 0.3472 0.55058 0.0
N255 N 0.62275 0.3517 0.55741 0.0
N256 N 0.63188 0.33767 0.57381 0.0
C257 C 0.60184 0.32358 0.57783 0.0
C258 C 0.57263 0.32921 0.56316 0.0
C259 C 0.56696 0.36039 0.53263 0.0
H260 H 0.56494 0.3788 0.53759 0.0
H261 H 0.53777 0.35377 0.52952 0.0
H262 H 0.58382 0.35945 0.51704 0.0
O263 O 0.70213 0.3575 0.53289 0.0
O264 O 0.71962 0.33381 0.56023 0.0
H265 H 0.57566 0.29363 0.59299 0.0
H266 H 0.60305 0.3118 0.61145 0.0
C267 C 0.60174 0.30439 0.59448 0.0
H268 H 0.62732 0.29341 0.59206 0.0
H269 H 0.72004 0.29283 0.58676 0.0
O270 O 0.63215 0.39418 0.52539 0.0
C271 C 0.72408 0.34184 0.5406 0.0
H272 H 0.11972 0.0791 0.99622 0.0
H273 H 0.07887 0.04908 0.9799 0.0
H274 H 0.04364 0.028 0.04561 0.0
H275 H 0.0844 0.05746 0.06197 0.0
H276 H 0.06301 0.99115 0.01729 0.0
H277 H 0.96102 0.05255 0.97805 0.0
H278 H 0.01039 0.05657 0.97096 0.0
H279 H 0.99484 0.06137 0.99904 0.0
C280 C 0.10344 0.06794 0.00714 0.0
C281 C 0.10507 0.07071 0.03034 0.0
C282 C 0.07998 0.05095 0.99782 0.0
C283 C 0.05792 0.03662 0.0116 0.0
C284 C 0.06034 0.03898 0.03473 0.0
H285 H 0.89118 0.9267 0.99665 0.0
H286 H 0.93391 0.9567 0.01119 0.0
C287 C 0.08361 0.05588 0.04402 0.0
C288 C 0.03191 0.01914 0.00218 0.0
H289 H 0.95012 0.01278 0.97206 0.0
C290 C 0.03834 0.99583 0.00737 0.0
C291 C 0.99971 0.02543 0.98939 0.0
C292 C 0.99073 0.05034 0.98412 0.0
C293 C 0.0135 0.97853 0.99992 0.0
C294 C 0.98118 0.98483 0.98726 0.0
C295 C 0.97489 0.00811 0.9819 0.0
C296 C 0.95422 0.96739 0.97876 0.0
C297 C 0.02229 0.95363 0.00533 0.0
C298 C 0.95089 0.96403 0.95579 0.0
C299 C 0.92659 0.94707 0.94749 0.0
C300 C 0.90498 0.93326 0.96204 0.0
C301 C 0.90755 0.93706 0.98507 0.0
C302 C 0.93206 0.95405 0.99338 0.0
H303 H 0.05219 0.95133 0.01105 0.0
H304 H 0.00304 0.94767 0.01881 0.0
H305 H 0.01744 0.94244 0.99059 0.0
H306 H 0.96764 0.97427 0.94428 0.0
H307 H 0.92505 0.94468 0.92964 0.0
H308 H 0.54837 0.07407 0.93297 0.0
H309 H 0.50507 0.04372 0.94488 0.0
H310 H 0.56619 0.03756 0.00691 0.0
H311 H 0.60949 0.06867 0.99524 0.0
H312 H 0.52098 0.99943 0.95449 0.0
H313 H 0.45643 0.04286 0.02774 0.0
H314 H 0.48512 0.05813 0.00761 0.0
H315 H 0.5075 0.04073 0.02868 0.0
C316 C 0.55262 0.0664 0.94922 0.0
C317 C 0.58237 0.07377 0.9632 0.0
C318 C 0.5278 0.04901 0.95598 0.0
C319 C 0.53217 0.03851 0.97683 0.0
C320 C 0.56187 0.04576 0.99091 0.0
H321 H 0.42518 0.90826 0.01206 0.0
H322 H 0.46912 0.9382 0.99967 0.0
C323 C 0.58667 0.06342 0.9842 0.0
C324 C 0.50594 0.01962 0.98328 0.0
H325 H 0.43896 0.00389 0.02155 0.0
C326 C 0.50302 0.00039 0.96916 0.0
C327 C 0.48218 0.0211 0.00222 0.0
C328 C 0.48259 0.0419 0.01735 0.0
C329 C 0.47689 0.98259 0.97341 0.0
C330 C 0.4538 0.98378 0.99266 0.0
C331 C 0.45676 0.003 0.00681 0.0
C332 C 0.42653 0.96525 0.99861 0.0
C333 C 0.47364 0.96305 0.9569 0.0
C334 C 0.38796 0.9705 0.0023 0.0
C335 C 0.3628 0.95347 0.00977 0.0
C336 C 0.3758 0.93086 0.01366 0.0
C337 C 0.41416 0.92547 0.00917 0.0
C338 C 0.43934 0.94256 0.00194 0.0
H339 H 0.48409 0.96825 0.94018 0.0
H340 H 0.49139 0.94834 0.96265 0.0
H341 H 0.44371 0.95701 0.95531 0.0
H342 H 0.37749 0.98793 0.99982 0.0
H343 H 0.33345 0.95818 0.01308 0.0
H344 H 0.93203 0.59003 0.51456 0.0
H345 H 0.97191 0.55794 0.50243 0.0
H346 H 0.87415 0.51271 0.50324 0.0
H347 H 0.83402 0.54465 0.51593 0.0
H348 H 0.93577 0.49464 0.52555 0.0
H349 H 0.97921 0.52657 0.44231 0.0
H350 H 0.98873 0.54677 0.46424 0.0
H351 H 0.94026 0.53915 0.45773 0.0
C352 C 0.91882 0.57335 0.51186 0.0
C353 C 0.87984 0.56987 0.51624 0.0
C354 C 0.94168 0.55505 0.50484 0.0
C355 C 0.92589 0.53303 0.50176 0.0
C356 C 0.88681 0.52962 0.50552 0.0
H357 H 0.03686 0.41912 0.43716 0.0
H358 H 0.99402 0.44967 0.44927 0.0
C359 C 0.86392 0.5479 0.51266 0.0
C360 C 0.95058 0.51332 0.49576 0.0
H361 H 0.01353 0.49435 0.45663 0.0
C362 C 0.95263 0.49446 0.51042 0.0
C363 C 0.97232 0.51316 0.47596 0.0
C364 C 0.96981 0.53239 0.45905 0.0
C365 C 0.97617 0.47545 0.50588 0.0
C366 C 0.99872 0.47561 0.4864 0.0
C367 C 0.99645 0.49441 0.47168 0.0
C368 C 0.0236 0.45603 0.48025 0.0
C369 C 0.9761 0.45521 0.52171 0.0
C370 C 0.05429 0.44929 0.49382 0.0
C371 C 0.07884 0.4316 0.487 0.0
C372 C 0.07324 0.42071 0.46637 0.0
C373 C 0.04215 0.42731 0.45306 0.0
C374 C 0.01758 0.44476 0.45995 0.0
H375 H 0.95061 0.45531 0.53269 0.0
H376 H 0.97685 0.4386 0.5125 0.0
H377 H 0.00182 0.45609 0.53244 0.0
H378 H 0.05979 0.45808 0.50939 0.0
H379 H 0.10269 0.4269 0.49752 0.0
H380 H 0.43113 0.59302 0.49793 0.0
H381 H 0.47932 0.56341 0.50503 0.0
H382 H 0.39704 0.5102 0.49039 0.0
H383 H 0.34872 0.53965 0.48291 0.0
H384 H 0.48197 0.52467 0.53415 0.0
H385 H 0.48371 0.49896 0.44507 0.0
H386 H 0.46157 0.52529 0.45463 0.0
H387 H 0.43765 0.49808 0.45815 0.0
C388 C 0.42308 0.57502 0.49649 0.0
C389 C 0.38622 0.5687 0.48952 0.0
C390 C 0.45068 0.55814 0.50055 0.0
C391 C 0.44191 0.5347 0.49769 0.0
C392 C 0.40452 0.52826 0.49218 0.0
H393 H 0.57233 0.40837 0.50553 0.0
H394 H 0.52429 0.43805 0.49842 0.0
C395 C 0.37688 0.54512 0.48811 0.0
C396 C 0.47231 0.5171 0.49957 0.0
H397 H 0.52158 0.47677 0.46971 0.0
C398 C 0.49074 0.51422 0.52008 0.0
C399 C 0.48369 0.5036 0.48111 0.0
C400 C 0.46592 0.5067 0.45842 0.0
C401 C 0.51984 0.49782 0.52277 0.0
C402 C 0.53123 0.48432 0.5043 0.0
C403 C 0.51281 0.48721 0.48378 0.0
C404 C 0.5616 0.46669 0.50619 0.0
C405 C 0.53755 0.49471 0.54547 0.0
C406 C 0.59892 0.47307 0.51192 0.0
C407 C 0.62646 0.45616 0.51604 0.0
C408 C 0.61712 0.43259 0.5144 0.0
C409 C 0.58037 0.42635 0.50716 0.0
C410 C 0.55286 0.44328 0.50309 0.0
H411 H 0.51962 0.50235 0.55881 0.0
H412 H 0.54204 0.47612 0.54922 0.0
H413 H 0.56572 0.50343 0.54582 0.0
H414 H 0.60641 0.49111 0.51388 0.0
H415 H 0.65455 0.46157 0.52142 0.0
H416 H 0.3341 0.93601 0.08225 0.0
H417 H 0.31825 0.97251 0.09926 0.0
H418 H 0.26443 0.93698 0.15402 0.0
H419 H 0.27958 0.89964 0.13648 0.0
H420 H 0.2189 0.96921 0.13854 0.0
H421 H 0.35791 0.0108 0.14872 0.0
H422 H 0.35621 0.99974 0.12096 0.0
H423 H 0.35369 0.98004 0.14426 0.0
C424 C 0.31936 0.93573 0.09809 0.0
C425 C 0.30788 0.91477 0.1079 0.0
C426 C 0.3108 0.95679 0.10803 0.0
C427 C 0.29098 0.95766 0.12827 0.0
C428 C 0.28025 0.93677 0.13855 0.0
H429 H 0.23935 0.10644 0.1343 0.0
H430 H 0.25846 0.06992 0.15242 0.0
C431 C 0.28887 0.91546 0.12851 0.0
C432 C 0.27742 0.9805 0.13646 0.0
H433 H 0.3054 0.03697 0.13578 0.0
C434 C 0.23799 0.98395 0.13878 0.0
C435 C 0.30206 0.99987 0.13766 0.0
C436 C 0.34484 0.9973 0.13804 0.0
C437 C 0.22247 0.00631 0.13907 0.0
C438 C 0.24687 0.02559 0.13631 0.0
C439 C 0.28647 0.02223 0.13723 0.0
C440 C 0.23225 0.04795 0.12758 0.0
C441 C 0.17979 0.00895 0.14078 0.0
C442 C 0.21161 0.04775 0.10763 0.0
C443 C 0.20107 0.06828 0.09733 0.0
C444 C 0.21111 0.08977 0.10653 0.0
C445 C 0.23113 0.09016 0.12683 0.0
C446 C 0.24199 0.06934 0.13718 0.0
H447 H 0.16766 0.99561 0.15204 0.0
H448 H 0.17166 0.02631 0.14704 0.0
H449 H 0.16683 0.00637 0.12412 0.0
H450 H 0.20476 0.03161 0.09945 0.0
H451 H 0.18553 0.06718 0.08179 0.0
H452 H 0.22551 0.39492 0.36967 0.0
H453 H 0.24678 0.432 0.35371 0.0
H454 H 0.20107 0.46783 0.41069 0.0
H455 H 0.17913 0.43171 0.42615 0.0
H456 H 0.18568 0.49077 0.37247 0.0
H457 H 0.33959 0.46681 0.37619 0.0
H458 H 0.30826 0.44944 0.35943 0.0
H459 H 0.30352 0.44917 0.38918 0.0
C460 C 0.21979 0.41077 0.37863 0.0
C461 C 0.20102 0.41022 0.39933 0.0
C462 C 0.2321 0.43193 0.36955 0.0
C463 C 0.22593 0.45274 0.38113 0.0
C464 C 0.20613 0.45211 0.40136 0.0
H465 H 0.32866 0.56488 0.42771 0.0
H466 H 0.30858 0.52871 0.41152 0.0
C467 C 0.19379 0.43125 0.41029 0.0
C468 C 0.24146 0.47537 0.37361 0.0
H469 H 0.32469 0.50594 0.37374 0.0
C470 C 0.21611 0.49412 0.37211 0.0
C471 C 0.28117 0.47965 0.37295 0.0
C472 C 0.3099 0.46031 0.37459 0.0
C473 C 0.22919 0.51706 0.3727 0.0
C474 C 0.26887 0.52135 0.37409 0.0
C475 C 0.29429 0.5026 0.37284 0.0
C476 C 0.28399 0.54397 0.38192 0.0
C477 C 0.2003 0.53634 0.37412 0.0
C478 C 0.27757 0.56487 0.37052 0.0
C479 C 0.28868 0.58603 0.38005 0.0
C480 C 0.30659 0.5865 0.40102 0.0
C481 C 0.3145 0.56539 0.4117 0.0
C482 C 0.30327 0.54451 0.40234 0.0
H483 H 0.17062 0.52977 0.37546 0.0
H484 H 0.20622 0.54747 0.38875 0.0
H485 H 0.20219 0.54722 0.35896 0.0
H486 H 0.26341 0.56488 0.35452 0.0
H487 H 0.28251 0.60194 0.37128 0.0
H488 H 0.74499 0.89448 0.87053 0.0
H489 H 0.72337 0.93065 0.85287 0.0
H490 H 0.81446 0.96749 0.88561 0.0
H491 H 0.83602 0.93198 0.90268 0.0
H492 H 0.69613 0.96554 0.87583 0.0
H493 H 0.81534 0.00087 0.8279 0.0
H494 H 0.81323 0.97066 0.83545 0.0
H495 H 0.8341 0.9916 0.85411 0.0
C496 C 0.76102 0.91022 0.87325 0.0
C497 C 0.79195 0.91047 0.88812 0.0
C498 C 0.74868 0.93086 0.8632 0.0
C499 C 0.76763 0.95185 0.86756 0.0
C500 C 0.79993 0.9516 0.88132 0.0
H501 H 0.71267 0.06798 0.92723 0.0
H502 H 0.7245 0.03105 0.90967 0.0
C503 C 0.81195 0.93122 0.8914 0.0
C504 C 0.7506 0.97459 0.86161 0.0
H505 H 0.77931 0.02989 0.8509 0.0
C506 C 0.71378 0.97945 0.86949 0.0
C507 C 0.77293 0.99287 0.85286 0.0
C508 C 0.81092 0.98858 0.84188 0.0
C509 C 0.70104 0.00231 0.87171 0.0
C510 C 0.72598 0.0207 0.8663 0.0
C511 C 0.76055 0.01581 0.85558 0.0
C512 C 0.72013 0.04398 0.876 0.0
C513 C 0.66215 0.00661 0.88158 0.0
C514 C 0.71555 0.06391 0.86286 0.0
C515 C 0.7089 0.08546 0.87299 0.0
C516 C 0.70697 0.08722 0.89633 0.0
C517 C 0.7133 0.06729 0.90922 0.0
C518 C 0.71991 0.04605 0.8992 0.0
H519 H 0.64213 0.9924 0.87734 0.0
H520 H 0.66457 0.0073 0.89998 0.0
H521 H 0.64999 0.02323 0.87565 0.0
H522 H 0.71623 0.06269 0.84488 0.0
H523 H 0.70419 0.10051 0.86262 0.0
H524 H 0.65435 0.43284 0.58732 0.0
H525 H 0.67858 0.46972 0.60093 0.0
H526 H 0.77163 0.43463 0.63341 0.0
H527 H 0.74706 0.39727 0.62002 0.0
H528 H 0.70929 0.48638 0.64935 0.0
H529 H 0.81037 0.47906 0.57799 0.0
H530 H 0.76542 0.46386 0.57788 0.0
H531 H 0.80284 0.45468 0.59617 0.0
C532 C 0.67941 0.43286 0.59787 0.0
C533 C 0.69905 0.41221 0.60246 0.0
C534 C 0.69307 0.45395 0.60572 0.0
C535 C 0.72684 0.45486 0.61811 0.0
C536 C 0.74533 0.43418 0.62397 0.0
H537 H 0.86117 0.58006 0.60936 0.0
H538 H 0.84284 0.5415 0.62208 0.0
C539 C 0.7313 0.41291 0.61634 0.0
C540 C 0.74522 0.47757 0.62161 0.0
H541 H 0.80638 0.51468 0.59589 0.0
C542 C 0.73111 0.49253 0.63801 0.0
C543 C 0.7735 0.48547 0.60672 0.0
C544 C 0.78908 0.47007 0.58861 0.0
C545 C 0.74409 0.5155 0.63958 0.0
C546 C 0.77097 0.5238 0.62389 0.0
C547 C 0.78594 0.50843 0.60803 0.0
C548 C 0.78219 0.54856 0.62217 0.0
C549 C 0.72872 0.53059 0.65794 0.0
C550 C 0.75442 0.56584 0.61904 0.0
C551 C 0.76506 0.58814 0.61238 0.0
C552 C 0.80351 0.59328 0.60828 0.0
C553 C 0.83137 0.5765 0.61269 0.0
C554 C 0.82086 0.55445 0.61983 0.0
H555 H 0.72074 0.52011 0.67272 0.0
H556 H 0.74979 0.54386 0.6631 0.0
H557 H 0.70258 0.53946 0.65199 0.0
H558 H 0.72437 0.56169 0.6201 0.0
H559 H 0.74308 0.60069 0.60856 0.0
H560 H 0.28528 0.19333 0.0563 0.0
H561 H 0.34073 0.20712 0.03527 0.0
H562 H 0.31044 0.1623 0.98079 0.0
H563 H 0.25501 0.14881 0.0013 0.0
H564 H 0.39996 0.18096 0.02179 0.0
H565 H 0.33459 0.22101 0.94768 0.0
H566 H 0.30751 0.2145 0.97247 0.0
H567 H 0.31654 0.19239 0.95204 0.0
C568 C 0.2901 0.18669 0.0397 0.0
C569 C 0.26563 0.16992 0.03054 0.0
C570 C 0.32177 0.19462 0.02769 0.0
C571 C 0.32937 0.1861 0.00625 0.0
C572 C 0.30464 0.16967 0.99699 0.0
H573 H 0.50868 0.15487 0.92138 0.0
H574 H 0.44706 0.16513 0.93777 0.0
C575 C 0.27307 0.16177 0.00891 0.0
C576 C 0.36513 0.19229 0.99439 0.0
H577 H 0.39976 0.20737 0.94323 0.0
C578 C 0.4 0.18733 0.00482 0.0
C579 C 0.36517 0.20061 0.97222 0.0
C580 C 0.3289 0.20766 0.96056 0.0
C581 C 0.43463 0.18887 0.9932 0.0
C582 C 0.43443 0.19589 0.97063 0.0
C583 C 0.39982 0.20202 0.96053 0.0
C584 C 0.46918 0.19391 0.95674 0.0
C585 C 0.47093 0.18148 0.00471 0.0
C586 C 0.50153 0.20753 0.96101 0.0
C587 C 0.53669 0.20181 0.95143 0.0
C588 C 0.53969 0.18249 0.93745 0.0
C589 C 0.50672 0.17014 0.93174 0.0
C590 C 0.47164 0.1759 0.94121 0.0
H591 H 0.46544 0.17374 0.02133 0.0
H592 H 0.48652 0.16869 0.99439 0.0
H593 H 0.48974 0.19671 0.00698 0.0
H594 H 0.50012 0.22156 0.9729 0.0
H595 H 0.56201 0.2112 0.9564 0.0
H596 H 0.98742 0.84874 0.92157 0.0
H597 H 0.04995 0.84083 0.93797 0.0
H598 H 0.9994 0.78916 0.9805 0.0
H599 H 0.93665 0.79717 0.96396 0.0
H600 H 0.03567 0.82488 0.00311 0.0
H601 H 0.13134 0.79 0.93805 0.0
H602 H 0.10489 0.81486 0.92904 0.0
H603 H 0.07996 0.78865 0.93595 0.0
C604 C 0.99014 0.83491 0.93362 0.0
C605 C 0.95768 0.82319 0.94124 0.0
C606 C 0.0258 0.83041 0.94303 0.0
C607 C 0.02946 0.81422 0.96031 0.0
C608 C 0.99729 0.80151 0.96701 0.0
H609 H 0.21607 0.81199 0.0586 0.0
H610 H 0.15883 0.80087 0.03787 0.0
C611 C 0.9616 0.80593 0.95747 0.0
C612 C 0.06507 0.81356 0.97363 0.0
H613 H 0.16175 0.80815 0.9694 0.0
C614 C 0.0632 0.82074 0.99591 0.0
C615 C 0.10092 0.80841 0.96412 0.0
C616 C 0.10447 0.79984 0.94052 0.0
C617 C 0.09636 0.8241 0.00859 0.0
C618 C 0.13237 0.81961 0.99887 0.0
C619 C 0.13415 0.81159 0.97683 0.0
C620 C 0.16849 0.82481 0.01077 0.0
C621 C 0.09258 0.83367 0.03185 0.0
C622 C 0.19362 0.84135 0.00205 0.0
C623 C 0.22648 0.8476 0.01373 0.0
C624 C 0.23495 0.83743 0.03443 0.0
C625 C 0.21024 0.82036 0.04283 0.0
C626 C 0.17743 0.81403 0.03105 0.0
H627 H 0.06379 0.84103 0.03492 0.0
H628 H 0.09732 0.81959 0.04407 0.0
H629 H 0.11415 0.84735 0.03492 0.0
H630 H 0.18733 0.84987 0.98641 0.0
H631 H 0.24488 0.86074 0.00668 0.0
H632 H 0.51165 0.33354 0.59068 0.0
H633 H 0.44477 0.32667 0.58041 0.0
H634 H 0.48148 0.29672 0.51828 0.0
H635 H 0.54797 0.30337 0.52869 0.0
H636 H 0.4178 0.34949 0.54416 0.0
H637 H 0.39079 0.25611 0.53318 0.0
H638 H 0.4304 0.26699 0.54931 0.0
H639 H 0.43362 0.26528 0.51946 0.0
C640 C 0.50528 0.32449 0.57535 0.0
C641 C 0.53459 0.31878 0.5605 0.0
C642 C 0.46718 0.32069 0.56942 0.0
C643 C 0.45807 0.31102 0.54863 0.0
C644 C 0.48769 0.30368 0.5346 0.0
H645 H 0.28369 0.31693 0.44997 0.0
H646 H 0.33858 0.30788 0.47357 0.0
C647 C 0.52567 0.30751 0.54052 0.0
C648 C 0.41864 0.31258 0.53977 0.0
H649 H 0.34945 0.28197 0.51272 0.0
C650 C 0.40244 0.33466 0.53773 0.0
C651 C 0.3989 0.29327 0.53112 0.0
C652 C 0.41418 0.26905 0.53356 0.0
C653 C 0.36804 0.33813 0.52633 0.0
C654 C 0.34876 0.3189 0.51712 0.0
C655 C 0.36428 0.29669 0.51977 0.0
C656 C 0.31366 0.32185 0.50362 0.0
C657 C 0.35376 0.36254 0.52322 0.0
C658 C 0.28099 0.33204 0.51283 0.0
C659 C 0.24978 0.33748 0.49936 0.0
C660 C 0.25041 0.33254 0.47643 0.0
C661 C 0.28232 0.32109 0.46752 0.0
C662 C 0.31369 0.31584 0.48099 0.0
H663 H 0.37629 0.37554 0.52672 0.0
H664 H 0.34323 0.36527 0.50599 0.0
H665 H 0.32977 0.36573 0.53485 0.0
H666 H 0.28004 0.33635 0.53035 0.0
H667 H 0.22545 0.34598 0.50685 0.0
H668 H 0.95125 0.71282 0.54707 0.0
H669 H 0.01503 0.72171 0.53236 0.0
H670 H 0.06113 0.66338 0.56805 0.0
H671 H 0.99764 0.65464 0.58276 0.0
H672 H 0.11277 0.70332 0.56358 0.0
H673 H 0.04686 0.67347 0.48422 0.0
H674 H 0.0246 0.69748 0.49803 0.0
H675 H 0.02384 0.66943 0.51077 0.0
C676 C 0.97543 0.70265 0.55255 0.0
C677 C 0.96994 0.68317 0.56606 0.0
C678 C 0.01168 0.70758 0.54402 0.0
C679 C 0.04258 0.69296 0.54887 0.0
C680 C 0.03767 0.67488 0.56415 0.0
H681 H 0.25631 0.6441 0.50338 0.0
H682 H 0.20126 0.65721 0.52466 0.0
C683 C 0.00151 0.66995 0.57262 0.0
C684 C 0.07803 0.69385 0.53551 0.0
H685 H 0.1127 0.67931 0.48435 0.0
C686 C 0.11281 0.69845 0.54616 0.0
C687 C 0.07792 0.68738 0.5128 0.0
C688 C 0.04144 0.68149 0.50071 0.0
C689 C 0.14765 0.69625 0.53479 0.0
C690 C 0.1476 0.68871 0.51238 0.0
C691 C 0.1127 0.68509 0.50151 0.0
C692 C 0.18313 0.68254 0.50034 0.0
C693 C 0.18413 0.70179 0.54695 0.0
C694 C 0.19093 0.69206 0.47933 0.0
C695 C 0.22216 0.68433 0.46691 0.0
C696 C 0.24613 0.66684 0.47524 0.0
C697 C 0.23859 0.65765 0.49646 0.0
C698 C 0.20729 0.66531 0.5088 0.0
H699 H 0.17914 0.71455 0.56044 0.0
H700 H 0.19538 0.68579 0.55474 0.0
H701 H 0.20614 0.70874 0.53548 0.0
H702 H 0.17246 0.70521 0.47237 0.0
H703 H 0.22717 0.69185 0.45066 0.0
H704 H 0.44556 0.79104 0.04411 0.0
H705 H 0.5103 0.78396 0.03014 0.0
H706 H 0.55183 0.84122 0.06915 0.0
H707 H 0.48737 0.848 0.08321 0.0
H708 H 0.54183 0.81797 0.00511 0.0
H709 H 0.64077 0.7966 0.07375 0.0
H710 H 0.58971 0.79316 0.07616 0.0
H711 H 0.61133 0.82108 0.08006 0.0
C712 C 0.469 0.80123 0.05056 0.0
C713 C 0.46194 0.81976 0.06497 0.0
C714 C 0.50585 0.79733 0.04247 0.0
C715 C 0.53603 0.81194 0.04872 0.0
C716 C 0.52933 0.82935 0.0645 0.0
H717 H 0.74312 0.86629 0.99601 0.0
H718 H 0.68821 0.85448 0.01836 0.0
C719 C 0.49252 0.83323 0.07256 0.0
C720 C 0.57209 0.81206 0.03578 0.0
H721 H 0.66908 0.8135 0.04087 0.0
C722 C 0.56968 0.81648 0.01284 0.0
C723 C 0.60837 0.81043 0.04593 0.0
C724 C 0.61276 0.80483 0.0703 0.0
C725 C 0.60241 0.82042 0.99998 0.0
C726 C 0.6387 0.81943 0.01024 0.0
C727 C 0.64124 0.81427 0.03304 0.0
C728 C 0.67399 0.82508 0.99776 0.0
C729 C 0.59765 0.82683 0.97578 0.0
C730 C 0.68475 0.81216 0.97905 0.0
C731 C 0.71589 0.81899 0.96608 0.0
C732 C 0.73718 0.83875 0.97175 0.0
C733 C 0.72728 0.85107 0.99108 0.0
C734 C 0.69597 0.8443 0.00394 0.0
H735 H 0.56789 0.83201 0.97184 0.0
H736 H 0.61699 0.84124 0.97116 0.0
H737 H 0.60488 0.8117 0.96527 0.0
H738 H 0.66864 0.797 0.97423 0.0
H739 H 0.72298 0.80892 0.95148 0.0
H740 H 0.72295 0.16651 0.0034 0.0
H741 H 0.77633 0.17754 0.02741 0.0
H742 H 0.85266 0.17284 0.9712 0.0
H743 H 0.79888 0.16371 0.947 0.0
H744 H 0.83162 0.15547 0.04032 0.0
H745 H 0.89552 0.22897 0.99642 0.0
H746 H 0.84947 0.21774 0.98862 0.0
H747 H 0.89265 0.20558 0.97709 0.0
C748 C 0.75108 0.16836 0.99616 0.0
C749 C 0.75683 0.16442 0.97336 0.0
C750 C 0.78162 0.17464 0.00988 0.0
C751 C 0.81875 0.17653 0.00118 0.0
C752 C 0.82432 0.17253 0.97831 0.0
H753 H 0.02093 0.13178 0.05924 0.0
H754 H 0.95539 0.13882 0.04831 0.0
C755 C 0.79358 0.16701 0.96447 0.0
C756 C 0.85208 0.18027 0.01624 0.0
H757 H 0.94012 0.20537 0.01832 0.0
C758 C 0.85487 0.16685 0.03569 0.0
C759 C 0.88222 0.19567 0.011 0.0
C760 C 0.87949 0.21298 0.99229 0.0
C761 C 0.88791 0.16702 0.04888 0.0
C762 C 0.91998 0.17998 0.04184 0.0
C763 C 0.91608 0.19489 0.02351 0.0
C764 C 0.95875 0.1761 0.05132 0.0
C765 C 0.88803 0.153 0.07005 0.0
C766 C 0.98326 0.19465 0.05643 0.0
C767 C 0.02158 0.19058 0.06201 0.0
C768 C 0.03581 0.16792 0.06252 0.0
C769 C 0.01077 0.14944 0.0587 0.0
C770 C 0.97296 0.15347 0.05281 0.0
H771 H 0.85944 0.15334 0.07802 0.0
H772 H 0.8945 0.1347 0.06606 0.0
H773 H 0.90936 0.15947 0.08219 0.0
H774 H 0.97314 0.21228 0.05531 0.0
H775 H 0.04045 0.20511 0.06476 0.0
H776 H 0.71783 0.68627 0.55194 0.0
H777 H 0.66387 0.69488 0.52748 0.0
H778 H 0.72043 0.66005 0.47336 0.0
H779 H 0.774 0.65082 0.49779 0.0
H780 H 0.65524 0.71773 0.48662 0.0
H781 H 0.6213 0.62418 0.4794 0.0
H782 H 0.65508 0.63512 0.49939 0.0
H783 H 0.66856 0.63193 0.4707 0.0
C784 C 0.71894 0.68058 0.53479 0.0
C785 C 0.74993 0.6675 0.52693 0.0
C786 C 0.68813 0.6856 0.52081 0.0
C787 C 0.68785 0.67773 0.49873 0.0
C788 C 0.7197 0.66583 0.49049 0.0
H789 H 0.49031 0.66446 0.4119 0.0
H790 H 0.55747 0.67092 0.42174 0.0
C791 C 0.75031 0.6606 0.50449 0.0
C792 C 0.65317 0.68058 0.48489 0.0
H793 H 0.58213 0.6499 0.45979 0.0
C794 C 0.63938 0.70293 0.48057 0.0
C795 C 0.63252 0.66123 0.47701 0.0
C796 C 0.64483 0.63675 0.48198 0.0
C797 C 0.60513 0.70641 0.46886 0.0
C798 C 0.58408 0.68703 0.46151 0.0
C799 C 0.59855 0.66475 0.46521 0.0
C800 C 0.54489 0.68895 0.45242 0.0
C801 C 0.59161 0.73075 0.46467 0.0
C802 C 0.51566 0.69778 0.46592 0.0
C803 C 0.47752 0.69416 0.46026 0.0
C804 C 0.4681 0.68164 0.44106 0.0
C805 C 0.49711 0.67447 0.4266 0.0
C806 C 0.53535 0.67805 0.43228 0.0
H807 H 0.61586 0.7431 0.4644 0.0
H808 H 0.5759 0.73205 0.44867 0.0
H809 H 0.5721 0.73601 0.47829 0.0
H810 H 0.52222 0.70573 0.48177 0.0
H811 H 0.45543 0.69944 0.47179 0.0
H812 H 0.00627 0.34516 0.41849 0.0
H813 H 0.94221 0.3375 0.43288 0.0
H814 H 0.98467 0.27764 0.46773 0.0
H815 H 0.04903 0.28547 0.45337 0.0
H816 H 0.88809 0.29866 0.43671 0.0
H817 H 0.95529 0.32557 0.51666 0.0
H818 H 0.97821 0.3301 0.49016 0.0
H819 H 0.97677 0.30172 0.5022 0.0
C820 C 0.00143 0.3297 0.42827 0.0
C821 C 0.03221 0.3157 0.43464 0.0
C822 C 0.96494 0.32541 0.43661 0.0
C823 C 0.95887 0.30722 0.45163 0.0
C824 C 0.98888 0.29186 0.45627 0.0
H825 H 0.77471 0.30706 0.55012 0.0
H826 H 0.82909 0.29435 0.52776 0.0
C827 C 0.02547 0.29615 0.44787 0.0
C828 C 0.92329 0.30686 0.46495 0.0
H829 H 0.88928 0.32053 0.51651 0.0
C830 C 0.88828 0.3031 0.45424 0.0
C831 C 0.92366 0.3128 0.4878 0.0
C832 C 0.96037 0.31795 0.49996 0.0
C833 C 0.85355 0.30548 0.46571 0.0
C834 C 0.85392 0.31231 0.48834 0.0
C835 C 0.889 0.31524 0.4992 0.0
C836 C 0.81858 0.31824 0.50073 0.0
C837 C 0.81683 0.30079 0.45346 0.0
C838 C 0.79458 0.33592 0.49301 0.0
C839 C 0.76346 0.34322 0.50572 0.0
C840 C 0.7559 0.33318 0.5266 0.0
C841 C 0.7797 0.31523 0.53416 0.0
C842 C 0.81076 0.30789 0.52137 0.0
H843 H 0.82135 0.28857 0.43946 0.0
H844 H 0.79476 0.29356 0.46474 0.0
H845 H 0.80589 0.31721 0.44637 0.0
H846 H 0.80061 0.34464 0.47745 0.0
H847 H 0.7459 0.35715 0.49939 0.0
H848 H 0.17745 0.25123 0.34804 0.0
H849 H 0.17603 0.23752 0.30946 0.0
H850 H 0.21635 0.30389 0.28691 0.0
H851 H 0.21828 0.31763 0.32545 0.0
H852 H 0.13432 0.25989 0.27143 0.0
H853 H 0.29164 0.2538 0.26043 0.0
H854 H 0.26935 0.25389 0.28753 0.0
H855 H 0.27327 0.28024 0.27197 0.0
C856 C 0.18599 0.26289 0.33484 0.0
C857 C 0.1974 0.28561 0.33971 0.0
C858 C 0.18506 0.25507 0.31286 0.0
C859 C 0.19619 0.26969 0.29542 0.0
C860 C 0.20776 0.29235 0.3002 0.0
H861 H 0.22358 0.24839 0.15316 0.0
H862 H 0.22327 0.26381 0.1911 0.0
C863 C 0.20842 0.30024 0.32218 0.0
C864 C 0.19562 0.26119 0.27221 0.0
H865 H 0.25349 0.24577 0.22907 0.0
C866 C 0.16031 0.25676 0.26212 0.0
C867 C 0.22961 0.25729 0.26018 0.0
C868 C 0.26823 0.26137 0.27053 0.0
C869 C 0.15807 0.24873 0.24012 0.0
C870 C 0.19212 0.24443 0.22815 0.0
C871 C 0.22743 0.24902 0.23827 0.0
C872 C 0.19184 0.23511 0.20515 0.0
C873 C 0.11923 0.24543 0.22977 0.0
C874 C 0.17449 0.2138 0.20046 0.0
C875 C 0.17439 0.20507 0.17878 0.0
C876 C 0.19245 0.21722 0.16148 0.0
C877 C 0.20976 0.23855 0.16621 0.0
C878 C 0.20967 0.24734 0.18786 0.0
H879 H 0.09711 0.2558 0.23845 0.0
H880 H 0.11937 0.25033 0.2119 0.0
H881 H 0.11097 0.22698 0.23107 0.0
H882 H 0.16101 0.20389 0.21357 0.0
H883 H 0.15961 0.189 0.17554 0.0
H884 H 0.30438 0.82162 0.18271 0.0
H885 H 0.31092 0.80605 0.22028 0.0
H886 H 0.31855 0.73712 0.1935 0.0
H887 H 0.31391 0.75265 0.15582 0.0
H888 H 0.26321 0.77625 0.24103 0.0
H889 H 0.40742 0.73737 0.23636 0.0
H890 H 0.38995 0.75749 0.21579 0.0
H891 H 0.37618 0.72757 0.21469 0.0
C892 C 0.30881 0.80325 0.1847 0.0
C893 C 0.30974 0.78846 0.16617 0.0
C894 C 0.31204 0.79433 0.20625 0.0
C895 C 0.31607 0.77046 0.2097 0.0
C896 C 0.31658 0.75564 0.19125 0.0
H897 H 0.30427 0.68068 0.32507 0.0
H898 H 0.30807 0.69689 0.28753 0.0
C899 C 0.31354 0.76455 0.16972 0.0
C900 C 0.31726 0.76091 0.2326 0.0
H901 H 0.36926 0.72663 0.26762 0.0
C902 C 0.28656 0.76558 0.2469 0.0
C903 C 0.34771 0.74691 0.24022 0.0
C904 C 0.38236 0.7422 0.22604 0.0
C905 C 0.28513 0.75628 0.26845 0.0
C906 C 0.31533 0.7421 0.27594 0.0
C907 C 0.34609 0.73745 0.26173 0.0
C908 C 0.31546 0.73213 0.29861 0.0
C909 C 0.25097 0.7613 0.28293 0.0
C910 C 0.31904 0.74657 0.31719 0.0
C911 C 0.31745 0.73734 0.33864 0.0
C912 C 0.31251 0.71346 0.34192 0.0
C913 C 0.30937 0.699 0.32322 0.0
C914 C 0.31112 0.70826 0.30173 0.0
H915 H 0.22682 0.76857 0.27321 0.0
H916 H 0.24117 0.74537 0.2915 0.0
H917 H 0.25909 0.77406 0.29586 0.0
H918 H 0.32275 0.76502 0.31509 0.0
H919 H 0.31998 0.74895 0.35268 0.0
H920 H 0.79275 0.68307 0.6768 0.0
H921 H 0.79362 0.69639 0.71537 0.0
H922 H 0.82125 0.76525 0.69317 0.0
H923 H 0.82081 0.75197 0.65449 0.0
H924 H 0.85247 0.71768 0.74009 0.0
H925 H 0.7254 0.77427 0.73157 0.0
H926 H 0.73781 0.75272 0.71112 0.0
H927 H 0.76254 0.77991 0.71172 0.0
C928 C 0.79986 0.70092 0.68011 0.0
C929 C 0.80743 0.71639 0.66263 0.0
C930 C 0.79997 0.70855 0.70216 0.0
C931 C 0.80718 0.73182 0.70708 0.0
C932 C 0.81506 0.74728 0.68969 0.0
H933 H 0.86109 0.79185 0.8356 0.0
H934 H 0.86298 0.77708 0.79757 0.0
C935 C 0.81491 0.73967 0.66764 0.0
C936 C 0.80614 0.73994 0.73042 0.0
H937 H 0.75973 0.77678 0.76548 0.0
C938 C 0.83218 0.73057 0.74569 0.0
C939 C 0.77926 0.75651 0.73768 0.0
C940 C 0.7494 0.76632 0.72225 0.0
C941 C 0.83246 0.73763 0.76803 0.0
C942 C 0.80633 0.75472 0.77513 0.0
C943 C 0.77993 0.76381 0.75992 0.0
C944 C 0.8056 0.76333 0.79831 0.0
C945 C 0.86028 0.72649 0.7839 0.0
C946 C 0.77253 0.76081 0.81122 0.0
C947 C 0.77113 0.76966 0.83282 0.0
C948 C 0.8026 0.78146 0.84178 0.0
C949 C 0.83591 0.78362 0.82894 0.0
C950 C 0.83729 0.77478 0.80733 0.0
H951 H 0.87114 0.70978 0.77738 0.0
H952 H 0.88503 0.73816 0.78632 0.0
H953 H 0.84688 0.72341 0.80038 0.0
H954 H 0.74775 0.75204 0.80455 0.0
H955 H 0.74514 0.76765 0.84237 0.0
H956 H 0.63829 0.30134 0.6694 0.0
H957 H 0.6373 0.28723 0.70772 0.0
H958 H 0.74703 0.25525 0.69794 0.0
H959 H 0.74866 0.26972 0.65972 0.0
H960 H 0.69112 0.22613 0.71759 0.0
H961 H 0.7024 0.31077 0.76081 0.0
H962 H 0.66531 0.30854 0.74026 0.0
H963 H 0.71435 0.30716 0.73179 0.0
C964 C 0.66273 0.29191 0.67552 0.0
C965 C 0.69408 0.28725 0.66163 0.0
C966 C 0.66194 0.28367 0.69742 0.0
C967 C 0.69238 0.27052 0.70578 0.0
C968 C 0.72336 0.2655 0.69185 0.0
H969 H 0.75345 0.23187 0.83998 0.0
H970 H 0.74989 0.2476 0.80221 0.0
C971 C 0.72421 0.27377 0.67002 0.0
C972 C 0.69167 0.26142 0.72884 0.0
H973 H 0.69352 0.27775 0.78343 0.0
C974 C 0.69154 0.23739 0.732 0.0
C975 C 0.69253 0.27619 0.74756 0.0
C976 C 0.69396 0.30211 0.74507 0.0
C977 C 0.69221 0.22771 0.75343 0.0
C978 C 0.6927 0.24247 0.77216 0.0
C979 C 0.6929 0.2665 0.76901 0.0
C980 C 0.69424 0.23325 0.79516 0.0
C981 C 0.69327 0.20177 0.75587 0.0
C982 C 0.66383 0.22033 0.80384 0.0
C983 C 0.66574 0.21137 0.82544 0.0
C984 C 0.69824 0.21504 0.8387 0.0
C985 C 0.7282 0.22852 0.83011 0.0
C986 C 0.72622 0.23752 0.80855 0.0
H987 H 0.70077 0.19307 0.73999 0.0
H988 H 0.71421 0.19656 0.7688 0.0
H989 H 0.66474 0.19553 0.76114 0.0
H990 H 0.63845 0.21735 0.79397 0.0
H991 H 0.64138 0.20205 0.83182 0.0
loop_
_geom_bond_atom_site_label_1
_geom_bond_atom_site_label_2
_geom_bond_distance
_geom_bond_site_symmetry_2
_ccdc_geom_bond_type
Co0 O3 1.970 . S
Co0 N17 1.989 . S
Co0 O25 1.967 . S
Co0 O32 1.920 . S
Co1 O4 1.966 . S
Co1 N10 2.022 . S
Co1 N18 1.993 . S
Co1 O26 1.941 . S
C2 O3 1.258 . S
C2 O4 1.263 . S
O3 Co0 1.970 . S
O3 C2 1.258 . S
O4 Co1 1.966 . S
O4 C2 1.263 . S
C5 O6 1.235 . S
C5 O32 1.289 . S
O6 C5 1.235 . S
C7 C9 1.400 . S
C7 N10 1.351 . S
C7 C12 1.501 . S
C8 C9 1.387 . S
C8 N11 1.341 . S
C9 C7 1.400 . S
C9 C8 1.387 . S
N10 Co1 2.022 . S
N10 C7 1.351 . S
N10 N11 1.365 . S
N11 C8 1.341 . S
N11 N10 1.365 . S
N11 H31 0.862 . S
C12 C7 1.501 . S
C12 H13 0.961 . S
C12 H14 0.961 . S
C12 H15 0.960 . S
H13 C12 0.961 . S
H14 C12 0.961 . S
H15 C12 0.960 . S
C16 N17 1.342 . S
C16 C20 1.401 . S
C16 C21 1.499 . S
N17 Co0 1.989 . S
N17 C16 1.342 . S
N17 N18 1.388 . S
N18 Co1 1.993 . S
N18 N17 1.388 . S
N18 C19 1.346 . S
C19 N18 1.346 . S
C19 C20 1.396 . S
C19 C29 1.510 . S
C20 C16 1.401 . S
C20 C19 1.396 . S
C21 C16 1.499 . S
C21 H22 0.959 . S
C21 H23 0.960 1_455 S
C21 H24 0.961 1_455 S
H22 C21 0.959 . S
H23 C21 0.960 1_655 S
H24 C21 0.961 1_655 S
O25 Co0 1.967 . S
O25 C33 1.258 . S
O26 Co1 1.941 . S
O26 C33 1.266 . S
H27 C29 0.959 . S
H28 C29 0.961 . S
C29 C19 1.510 . S
C29 H27 0.959 . S
C29 H28 0.961 . S
C29 H30 0.960 . S
H30 C29 0.960 . S
H31 N11 0.862 . S
O32 Co0 1.920 . S
O32 C5 1.289 . S
C33 O25 1.258 . S
C33 O26 1.266 . S
Co34 O37 1.970 . S
Co34 N51 1.989 . S
Co34 O59 1.967 . S
Co34 O66 1.920 . S
Co35 O38 1.966 . S
Co35 N44 2.022 . S
Co35 N52 1.993 . S
Co35 O60 1.941 . S
C36 O37 1.258 . S
C36 O38 1.263 . S
O37 Co34 1.970 . S
O37 C36 1.258 . S
O38 Co35 1.966 . S
O38 C36 1.263 . S
C39 O40 1.235 . S
C39 O66 1.289 . S
O40 C39 1.235 . S
C41 C43 1.400 . S
C41 N44 1.351 . S
C41 C46 1.501 . S
C42 C43 1.387 . S
C42 N45 1.341 . S
C43 C41 1.400 . S
C43 C42 1.387 . S
N44 Co35 2.022 . S
N44 C41 1.351 . S
N44 N45 1.365 . S
N45 C42 1.341 . S
N45 N44 1.365 . S
N45 H65 0.862 . S
C46 C41 1.501 . S
C46 H47 0.961 . S
C46 H48 0.961 . S
C46 H49 0.960 . S
H47 C46 0.961 . S
H48 C46 0.961 . S
H49 C46 0.960 . S
C50 N51 1.342 . S
C50 C54 1.401 . S
C50 C55 1.499 . S
N51 Co34 1.989 . S
N51 C50 1.342 . S
N51 N52 1.388 . S
N52 Co35 1.993 . S
N52 N51 1.388 . S
N52 C53 1.346 . S
C53 N52 1.346 . S
C53 C54 1.396 . S
C53 C63 1.510 . S
C54 C50 1.401 . S
C54 C53 1.396 . S
C55 C50 1.499 . S
C55 H56 0.959 . S
C55 H57 0.960 . S
C55 H58 0.961 . S
H56 C55 0.959 . S
H57 C55 0.960 . S
H58 C55 0.961 . S
O59 Co34 1.967 . S
O59 C67 1.258 . S
O60 Co35 1.941 . S
O60 C67 1.266 . S
H61 C63 0.959 . S
H62 C63 0.961 . S
C63 C53 1.510 . S
C63 H61 0.959 . S
C63 H62 0.961 . S
C63 H64 0.960 . S
H64 C63 0.960 . S
H65 N45 0.862 . S
O66 Co34 1.920 . S
O66 C39 1.289 . S
C67 O59 1.258 . S
C67 O60 1.266 . S
Co68 O71 1.970 . S
Co68 N85 1.989 . S
Co68 O93 1.967 . S
Co68 O100 1.920 . S
Co69 O72 1.966 . S
Co69 N78 2.022 . S
Co69 N86 1.993 . S
Co69 O94 1.941 . S
C70 O71 1.258 . S
C70 O72 1.263 . S
O71 Co68 1.970 . S
O71 C70 1.258 . S
O72 Co69 1.966 . S
O72 C70 1.263 . S
C73 O74 1.235 . S
C73 O100 1.289 . S
O74 C73 1.235 . S
C75 C77 1.400 . S
C75 N78 1.351 . S
C75 C80 1.501 . S
C76 C77 1.387 . S
C76 N79 1.341 . S
C77 C75 1.400 . S
C77 C76 1.387 . S
N78 Co69 2.022 . S
N78 C75 1.351 . S
N78 N79 1.365 . S
N79 C76 1.341 . S
N79 N78 1.365 . S
N79 H99 0.862 . S
C80 C75 1.501 . S
C80 H81 0.961 . S
C80 H82 0.961 . S
C80 H83 0.960 . S
H81 C80 0.961 . S
H82 C80 0.961 . S
H83 C80 0.960 . S
C84 N85 1.342 . S
C84 C88 1.401 . S
C84 C89 1.499 . S
N85 Co68 1.989 . S
N85 C84 1.342 . S
N85 N86 1.388 . S
N86 Co69 1.993 . S
N86 N85 1.388 . S
N86 C87 1.346 . S
C87 N86 1.346 . S
C87 C88 1.396 . S
C87 C97 1.510 . S
C88 C84 1.401 . S
C88 C87 1.396 . S
C89 C84 1.499 . S
C89 H90 0.959 . S
C89 H91 0.960 1_455 S
C89 H92 0.961 1_455 S
H90 C89 0.959 . S
H91 C89 0.960 1_655 S
H92 C89 0.961 1_655 S
O93 Co68 1.967 . S
O93 C101 1.258 . S
O94 Co69 1.941 . S
O94 C101 1.266 . S
H95 C97 0.959 . S
H96 C97 0.961 . S
C97 C87 1.510 . S
C97 H95 0.959 . S
C97 H96 0.961 . S
C97 H98 0.960 . S
H98 C97 0.960 . S
H99 N79 0.862 . S
O100 Co68 1.920 . S
O100 C73 1.289 . S
C101 O93 1.258 . S
C101 O94 1.266 . S
Co102 O105 1.970 . S
Co102 N119 1.989 . S
Co102 O127 1.967 . S
Co102 O134 1.920 . S
Co103 O106 1.966 . S
Co103 N112 2.022 . S
Co103 N120 1.993 . S
Co103 O128 1.941 . S
C104 O105 1.258 . S
C104 O106 1.263 . S
O105 Co102 1.970 . S
O105 C104 1.258 . S
O106 Co103 1.966 . S
O106 C104 1.263 . S
C107 O108 1.235 . S
C107 O134 1.289 . S
O108 C107 1.235 . S
C109 C111 1.400 . S
C109 N112 1.351 . S
C109 C114 1.501 . S
C110 C111 1.387 . S
C110 N113 1.341 . S
C111 C109 1.400 . S
C111 C110 1.387 . S
N112 Co103 2.022 . S
N112 C109 1.351 . S
N112 N113 1.365 . S
N113 C110 1.341 . S
N113 N112 1.365 . S
N113 H133 0.862 . S
C114 C109 1.501 . S
C114 H115 0.961 . S
C114 H116 0.961 . S
C114 H117 0.960 . S
H115 C114 0.961 . S
H116 C114 0.961 . S
H117 C114 0.960 . S
C118 N119 1.342 . S
C118 C122 1.401 . S
C118 C123 1.499 . S
N119 Co102 1.989 . S
N119 C118 1.342 . S
N119 N120 1.388 . S
N120 Co103 1.993 . S
N120 N119 1.388 . S
N120 C121 1.346 . S
C121 N120 1.346 . S
C121 C122 1.396 . S
C121 C131 1.510 . S
C122 C118 1.401 . S
C122 C121 1.396 . S
C123 C118 1.499 . S
C123 H124 0.959 . S
C123 H125 0.960 . S
C123 H126 0.961 . S
H124 C123 0.959 . S
H125 C123 0.960 . S
H126 C123 0.961 . S
O127 Co102 1.967 . S
O127 C135 1.258 . S
O128 Co103 1.941 . S
O128 C135 1.266 . S
H129 C131 0.959 . S
H130 C131 0.961 . S
C131 C121 1.510 . S
C131 H129 0.959 . S
C131 H130 0.961 . S
C131 H132 0.960 . S
H132 C131 0.960 . S
H133 N113 0.862 . S
O134 Co102 1.920 . S
O134 C107 1.289 . S
C135 O127 1.258 . S
C135 O128 1.266 . S
Co136 O139 1.970 . S
Co136 N153 1.989 . S
Co136 O161 1.967 . S
Co136 O168 1.920 . S
Co137 O140 1.966 . S
Co137 N146 2.022 . S
Co137 N154 1.993 . S
Co137 O162 1.941 . S
C138 O139 1.258 . S
C138 O140 1.263 . S
O139 Co136 1.970 . S
O139 C138 1.258 . S
O140 Co137 1.966 . S
O140 C138 1.263 . S
C141 O142 1.235 . S
C141 O168 1.289 . S
O142 C141 1.235 . S
C143 C145 1.400 . S
C143 N146 1.351 . S
C143 C148 1.501 . S
C144 C145 1.387 . S
C144 N147 1.341 . S
C145 C143 1.400 . S
C145 C144 1.387 . S
N146 Co137 2.022 . S
N146 C143 1.351 . S
N146 N147 1.365 . S
N147 C144 1.341 . S
N147 N146 1.365 . S
N147 H167 0.862 . S
C148 C143 1.501 . S
C148 H149 0.961 . S
C148 H150 0.961 . S
C148 H151 0.960 . S
H149 C148 0.961 . S
H150 C148 0.961 . S
H151 C148 0.960 . S
C152 N153 1.342 . S
C152 C156 1.401 . S
C152 C157 1.499 . S
N153 Co136 1.989 . S
N153 C152 1.342 . S
N153 N154 1.388 . S
N154 Co137 1.993 . S
N154 N153 1.388 . S
N154 C155 1.346 . S
C155 N154 1.346 . S
C155 C156 1.396 . S
C155 C165 1.510 . S
C156 C152 1.401 . S
C156 C155 1.396 . S
C157 C152 1.499 . S
C157 H158 0.959 . S
C157 H159 0.960 1_655 S
C157 H160 0.961 1_655 S
H158 C157 0.959 . S
H159 C157 0.960 1_455 S
H160 C157 0.961 1_455 S
O161 Co136 1.967 . S
O161 C169 1.258 . S
O162 Co137 1.941 . S
O162 C169 1.266 . S
H163 C165 0.959 . S
H164 C165 0.961 . S
C165 C155 1.510 . S
C165 H163 0.959 . S
C165 H164 0.961 . S
C165 H166 0.960 . S
H166 C165 0.960 . S
H167 N147 0.862 . S
O168 Co136 1.920 . S
O168 C141 1.289 . S
C169 O161 1.258 . S
C169 O162 1.266 . S
Co170 O173 1.970 . S
Co170 N187 1.989 . S
Co170 O195 1.967 . S
Co170 O202 1.920 . S
Co171 O174 1.966 . S
Co171 N180 2.022 . S
Co171 N188 1.993 . S
Co171 O196 1.941 . S
C172 O173 1.258 . S
C172 O174 1.263 . S
O173 Co170 1.970 . S
O173 C172 1.258 . S
O174 Co171 1.966 . S
O174 C172 1.263 . S
C175 O176 1.235 . S
C175 O202 1.289 . S
O176 C175 1.235 . S
C177 C179 1.400 . S
C177 N180 1.351 . S
C177 C182 1.501 . S
C178 C179 1.387 . S
C178 N181 1.341 . S
C179 C177 1.400 . S
C179 C178 1.387 . S
N180 Co171 2.022 . S
N180 C177 1.351 . S
N180 N181 1.365 . S
N181 C178 1.341 . S
N181 N180 1.365 . S
N181 H201 0.862 . S
C182 C177 1.501 . S
C182 H183 0.961 . S
C182 H184 0.961 . S
C182 H185 0.960 . S
H183 C182 0.961 . S
H184 C182 0.961 . S
H185 C182 0.960 . S
C186 N187 1.342 . S
C186 C190 1.401 . S
C186 C191 1.499 . S
N187 Co170 1.989 . S
N187 C186 1.342 . S
N187 N188 1.388 . S
N188 Co171 1.993 . S
N188 N187 1.388 . S
N188 C189 1.346 . S
C189 N188 1.346 . S
C189 C190 1.396 . S
C189 C199 1.510 . S
C190 C186 1.401 . S
C190 C189 1.396 . S
C191 C186 1.499 . S
C191 H192 0.959 . S
C191 H193 0.960 . S
C191 H194 0.961 . S
H192 C191 0.959 . S
H193 C191 0.960 . S
H194 C191 0.961 . S
O195 Co170 1.967 . S
O195 C203 1.258 . S
O196 Co171 1.941 . S
O196 C203 1.266 . S
H197 C199 0.959 . S
H198 C199 0.961 . S
C199 C189 1.510 . S
C199 H197 0.959 . S
C199 H198 0.961 . S
C199 H200 0.960 . S
H200 C199 0.960 . S
H201 N181 0.862 . S
O202 Co170 1.920 . S
O202 C175 1.289 . S
C203 O195 1.258 . S
C203 O196 1.266 . S
Co204 O207 1.970 . S
Co204 N221 1.989 . S
Co204 O229 1.967 . S
Co204 O236 1.920 . S
Co205 O208 1.966 . S
Co205 N214 2.022 . S
Co205 N222 1.993 . S
Co205 O230 1.941 . S
C206 O207 1.258 . S
C206 O208 1.263 . S
O207 Co204 1.970 . S
O207 C206 1.258 . S
O208 Co205 1.966 . S
O208 C206 1.263 . S
C209 O210 1.235 . S
C209 O236 1.289 . S
O210 C209 1.235 . S
C211 C213 1.400 . S
C211 N214 1.351 . S
C211 C216 1.501 . S
C212 C213 1.387 . S
C212 N215 1.341 . S
C213 C211 1.400 . S
C213 C212 1.387 . S
N214 Co205 2.022 . S
N214 C211 1.351 . S
N214 N215 1.365 . S
N215 C212 1.341 . S
N215 N214 1.365 . S
N215 H235 0.862 . S
C216 C211 1.501 . S
C216 H217 0.961 . S
C216 H218 0.961 . S
C216 H219 0.960 . S
H217 C216 0.961 . S
H218 C216 0.961 . S
H219 C216 0.960 . S
C220 N221 1.342 . S
C220 C224 1.401 . S
C220 C225 1.499 . S
N221 Co204 1.989 . S
N221 C220 1.342 . S
N221 N222 1.388 . S
N222 Co205 1.993 . S
N222 N221 1.388 . S
N222 C223 1.346 . S
C223 N222 1.346 . S
C223 C224 1.396 . S
C223 C233 1.510 . S
C224 C220 1.401 . S
C224 C223 1.396 . S
C225 C220 1.499 . S
C225 H226 0.959 . S
C225 H227 0.960 1_655 S
C225 H228 0.961 1_655 S
H226 C225 0.959 . S
H227 C225 0.960 1_455 S
H228 C225 0.961 1_455 S
O229 Co204 1.967 . S
O229 C237 1.258 . S
O230 Co205 1.941 . S
O230 C237 1.266 . S
H231 C233 0.959 . S
H232 C233 0.961 . S
C233 C223 1.510 . S
C233 H231 0.959 . S
C233 H232 0.961 . S
C233 H234 0.960 . S
H234 C233 0.960 . S
H235 N215 0.862 . S
O236 Co204 1.920 . S
O236 C209 1.289 . S
C237 O229 1.258 . S
C237 O230 1.266 . S
Co238 O241 1.970 . S
Co238 N255 1.989 . S
Co238 O263 1.967 . S
Co238 O270 1.920 . S
Co239 O242 1.966 . S
Co239 N248 2.022 . S
Co239 N256 1.993 . S
Co239 O264 1.941 . S
C240 O241 1.258 . S
C240 O242 1.263 . S
O241 Co238 1.970 . S
O241 C240 1.258 . S
O242 Co239 1.966 . S
O242 C240 1.263 . S
C243 O244 1.235 . S
C243 O270 1.289 . S
O244 C243 1.235 . S
C245 C247 1.400 . S
C245 N248 1.351 . S
C245 C250 1.501 . S
C246 C247 1.387 . S
C246 N249 1.341 . S
C247 C245 1.400 . S
C247 C246 1.387 . S
N248 Co239 2.022 . S
N248 C245 1.351 . S
N248 N249 1.365 . S
N249 C246 1.341 . S
N249 N248 1.365 . S
N249 H269 0.862 . S
C250 C245 1.501 . S
C250 H251 0.961 . S
C250 H252 0.961 . S
C250 H253 0.960 . S
H251 C250 0.961 . S
H252 C250 0.961 . S
H253 C250 0.960 . S
C254 N255 1.342 . S
C254 C258 1.401 . S
C254 C259 1.499 . S
N255 Co238 1.989 . S
N255 C254 1.342 . S
N255 N256 1.388 . S
N256 Co239 1.993 . S
N256 N255 1.388 . S
N256 C257 1.346 . S
C257 N256 1.346 . S
C257 C258 1.396 . S
C257 C267 1.510 . S
C258 C254 1.401 . S
C258 C257 1.396 . S
C259 C254 1.499 . S
C259 H260 0.959 . S
C259 H261 0.960 . S
C259 H262 0.961 . S
H260 C259 0.959 . S
H261 C259 0.960 . S
H262 C259 0.961 . S
O263 Co238 1.967 . S
O263 C271 1.258 . S
O264 Co239 1.941 . S
O264 C271 1.266 . S
H265 C267 0.959 . S
H266 C267 0.961 . S
C267 C257 1.510 . S
C267 H265 0.959 . S
C267 H266 0.961 . S
C267 H268 0.960 . S
H268 C267 0.960 . S
H269 N249 0.862 . S
O270 Co238 1.920 . S
O270 C243 1.289 . S
C271 O263 1.258 . S
C271 O264 1.266 . S
H272 C280 0.928 . S
H273 C282 0.930 . S
H274 C284 0.930 . S
H275 C287 0.929 . S
H276 C290 0.930 . S
H277 C292 0.960 . S
H278 C292 0.960 . S
H279 C292 0.960 . S
C280 H272 0.928 . S
C280 C281 1.379 1_556 S
C280 C282 1.383 . S
C281 C280 1.379 1_554 S
C281 C287 1.390 . S
C282 H273 0.930 . S
C282 C280 1.383 . S
C282 C283 1.372 1_556 S
C283 C282 1.372 1_554 S
C283 C284 1.400 . S
C283 C288 1.490 . S
C284 H274 0.930 . S
C284 C283 1.400 . S
C284 C287 1.386 . S
H285 C301 0.919 1_554 S
H286 C302 0.931 . S
C287 H275 0.929 . S
C287 C281 1.390 . S
C287 C284 1.386 . S
C288 C283 1.490 . S
C288 C290 1.395 1_554 S
C288 C291 1.403 1_455 S
H289 C295 0.932 . S
C290 H276 0.930 . S
C290 C288 1.395 1_556 S
C290 C293 1.403 1_545 S
C291 C288 1.403 1_655 S
C291 C292 1.524 . S
C291 C295 1.404 1_545 S
C292 H277 0.960 . S
C292 H278 0.960 . S
C292 H279 0.960 . S
C292 C291 1.524 . S
C293 C290 1.403 1_565 S
C293 C294 1.392 1_455 S
C293 C297 1.495 . S
C294 C293 1.392 1_655 S
C294 C295 1.379 1_556 S
C294 C296 1.478 . S
C295 H289 0.932 . S
C295 C291 1.404 1_565 S
C295 C294 1.379 1_554 S
C296 C294 1.478 . S
C296 C298 1.381 . S
C296 C302 1.383 1_556 S
C297 C293 1.495 . S
C297 H303 0.959 . S
C297 H304 0.961 . S
C297 H305 0.960 . S
C298 C296 1.381 . S
C298 C299 1.394 . S
C298 H306 0.930 . S
C299 C298 1.394 . S
C299 C300 1.383 . S
C299 H307 0.929 . S
C300 C299 1.383 . S
C300 C301 1.390 . S
C301 H285 0.919 1_556 S
C301 C300 1.390 . S
C301 C302 1.377 1_556 S
C302 H286 0.931 . S
C302 C296 1.383 1_554 S
C302 C301 1.377 1_554 S
H303 C297 0.959 . S
H304 C297 0.961 . S
H305 C297 0.960 . S
H306 C298 0.930 . S
H307 C299 0.929 . S
H308 C316 0.929 . S
H309 C318 0.930 . S
H310 C320 0.930 . S
H311 C323 0.920 1_554 S
H312 C326 0.936 . S
H313 C328 0.960 . S
H314 C328 0.960 . S
H315 C328 0.960 . S
C316 H308 0.929 . S
C316 C317 1.377 . S
C316 C318 1.384 . S
C317 C316 1.377 . S
C317 C323 1.402 . S
C318 H309 0.930 . S
C318 C316 1.384 . S
C318 C319 1.372 . S
C319 C318 1.372 . S
C319 C320 1.400 1_556 S
C319 C324 1.490 . S
C320 H310 0.930 . S
C320 C319 1.400 1_554 S
C320 C323 1.383 1_554 S
H321 C337 0.930 . S
H322 C338 0.931 . S
C323 H311 0.920 1_556 S
C323 C317 1.402 . S
C323 C320 1.383 1_556 S
C324 C319 1.490 . S
C324 C326 1.431 . S
C324 C327 1.403 1_556 S
H325 C331 0.930 . S
C326 H312 0.936 . S
C326 C324 1.431 . S
C326 C329 1.362 1_545 S
C327 C324 1.403 1_554 S
C327 C328 1.524 . S
C327 C331 1.400 1_545 S
C328 H313 0.960 . S
C328 H314 0.960 . S
C328 H315 0.960 . S
C328 C327 1.524 . S
C329 C326 1.362 1_565 S
C329 C330 1.392 1_556 S
C329 C333 1.495 . S
C330 C329 1.392 1_554 S
C330 C331 1.385 . S
C330 C332 1.478 . S
C331 H325 0.930 . S
C331 C327 1.400 1_565 S
C331 C330 1.385 . S
C332 C330 1.478 . S
C332 C334 1.381 1_554 S
C332 C338 1.383 . S
C333 C329 1.495 . S
C333 H339 0.959 . S
C333 H340 0.961 . S
C333 H341 0.960 . S
C334 C332 1.381 1_556 S
C334 C335 1.402 . S
C334 H342 0.930 . S
C335 C334 1.402 . S
C335 C336 1.359 1_556 S
C335 H343 0.946 . S
C336 C335 1.359 1_554 S
C336 C337 1.377 . S
C337 H321 0.930 . S
C337 C336 1.377 . S
C337 C338 1.379 . S
C338 H322 0.931 . S
C338 C332 1.383 . S
C338 C337 1.379 . S
H339 C333 0.959 . S
H340 C333 0.961 . S
H341 C333 0.960 . S
H342 C334 0.930 . S
H343 C335 0.946 . S
H344 C352 0.929 . S
H345 C354 0.930 . S
H346 C356 0.930 . S
H347 C359 0.929 . S
H348 C362 0.930 . S
H349 C364 0.960 . S
H350 C364 0.960 . S
H351 C364 0.960 1_655 S
C352 H344 0.929 . S
C352 C353 1.377 . S
C352 C354 1.384 . S
C353 C352 1.377 . S
C353 C359 1.390 . S
C354 H345 0.930 . S
C354 C352 1.384 . S
C354 C355 1.372 . S
C355 C354 1.372 . S
C355 C356 1.400 . S
C355 C360 1.490 . S
C356 H346 0.930 . S
C356 C355 1.400 . S
C356 C359 1.386 . S
H357 C373 0.930 . S
H358 C374 0.931 1_655 S
C359 H347 0.929 . S
C359 C353 1.390 . S
C359 C356 1.386 . S
C360 C355 1.490 . S
C360 C362 1.395 . S
C360 C363 1.403 1_655 S
H361 C367 0.930 . S
C362 H348 0.930 . S
C362 C360 1.395 . S
C362 C365 1.411 . S
C363 C360 1.403 1_455 S
C363 C364 1.524 . S
C363 C367 1.400 . S
C364 H349 0.960 . S
C364 H350 0.960 . S
C364 H351 0.960 1_455 S
C364 C363 1.524 . S
C365 C362 1.411 . S
C365 C366 1.385 1_655 S
C365 C369 1.496 . S
C366 C365 1.385 1_455 S
C366 C367 1.385 . S
C366 C368 1.478 . S
C367 H361 0.930 . S
C367 C363 1.400 . S
C367 C366 1.385 . S
C368 C366 1.478 . S
C368 C370 1.381 . S
C368 C374 1.383 . S
C369 C365 1.496 . S
C369 H375 0.959 . S
C369 H376 0.961 . S
C369 H377 0.960 1_655 S
C370 C368 1.381 . S
C370 C371 1.394 . S
C370 H378 0.930 . S
C371 C370 1.394 . S
C371 C372 1.383 . S
C371 H379 0.929 . S
C372 C371 1.383 . S
C372 C373 1.377 . S
C373 H357 0.930 . S
C373 C372 1.377 . S
C373 C374 1.379 . S
C374 H358 0.931 1_455 S
C374 C368 1.383 . S
C374 C373 1.379 . S
H375 C369 0.959 . S
H376 C369 0.961 . S
H377 C369 0.960 1_455 S
H378 C370 0.930 . S
H379 C371 0.929 . S
H380 C388 0.929 . S
H381 C390 0.930 . S
H382 C392 0.930 . S
H383 C395 0.929 . S
H384 C398 0.930 . S
H385 C400 0.960 . S
H386 C400 0.960 . S
H387 C400 0.960 . S
C388 H380 0.929 . S
C388 C389 1.377 . S
C388 C390 1.384 . S
C389 C388 1.377 . S
C389 C395 1.390 . S
C390 H381 0.930 . S
C390 C388 1.384 . S
C390 C391 1.372 . S
C391 C390 1.372 . S
C391 C392 1.400 . S
C391 C396 1.490 . S
C392 H382 0.930 . S
C392 C391 1.400 . S
C392 C395 1.386 . S
H393 C409 0.930 . S
H394 C410 0.931 . S
C395 H383 0.929 . S
C395 C389 1.390 . S
C395 C392 1.386 . S
C396 C391 1.490 . S
C396 C398 1.395 . S
C396 C399 1.403 . S
H397 C403 0.930 . S
C398 H384 0.930 . S
C398 C396 1.395 . S
C398 C401 1.403 . S
C399 C396 1.403 . S
C399 C400 1.524 . S
C399 C403 1.400 . S
C400 H385 0.960 . S
C400 H386 0.960 . S
C400 H387 0.960 . S
C400 C399 1.524 . S
C401 C398 1.403 . S
C401 C402 1.392 . S
C401 C405 1.495 . S
C402 C401 1.392 . S
C402 C403 1.385 . S
C402 C404 1.478 . S
C403 H397 0.930 . S
C403 C399 1.400 . S
C403 C402 1.385 . S
C404 C402 1.478 . S
C404 C406 1.381 . S
C404 C410 1.383 . S
C405 C401 1.495 . S
C405 H411 0.959 . S
C405 H412 0.961 . S
C405 H413 0.960 . S
C406 C404 1.381 . S
C406 C407 1.394 . S
C406 H414 0.930 . S
C407 C406 1.394 . S
C407 C408 1.383 . S
C407 H415 0.929 . S
C408 C407 1.383 . S
C408 C409 1.377 . S
C409 H393 0.930 . S
C409 C408 1.377 . S
C409 C410 1.379 . S
C410 H394 0.931 . S
C410 C404 1.383 . S
C410 C409 1.379 . S
H411 C405 0.959 . S
H412 C405 0.961 . S
H413 C405 0.960 . S
H414 C406 0.930 . S
H415 C407 0.929 . S
H416 C424 0.929 . S
H417 C426 0.930 . S
H418 C428 0.930 . S
H419 C431 0.929 . S
H420 C434 0.930 . S
H421 C436 0.960 . S
H422 C436 0.960 1_565 S
H423 C436 0.948 1_565 S
C424 H416 0.929 . S
C424 C425 1.377 . S
C424 C426 1.384 . S
C425 C424 1.377 . S
C425 C431 1.390 . S
C426 H417 0.930 . S
C426 C424 1.384 . S
C426 C427 1.372 . S
C427 C426 1.372 . S
C427 C428 1.400 . S
C427 C432 1.490 . S
C428 H418 0.930 . S
C428 C427 1.400 . S
C428 C431 1.386 . S
H429 C445 0.930 . S
H430 C446 0.931 . S
C431 H419 0.929 . S
C431 C425 1.390 . S
C431 C428 1.386 . S
C432 C427 1.490 . S
C432 C434 1.395 . S
C432 C435 1.377 1_565 S
H433 C439 0.930 . S
C434 H420 0.930 . S
C434 C432 1.395 . S
C434 C437 1.403 . S
C435 C432 1.377 1_545 S
C435 C436 1.527 . S
C435 C439 1.422 . S
C436 H421 0.960 . S
C436 H422 0.960 1_545 S
C436 H423 0.948 1_545 S
C436 C435 1.527 . S
C437 C434 1.403 . S
C437 C438 1.392 1_565 S
C437 C441 1.495 . S
C438 C437 1.392 1_545 S
C438 C439 1.385 . S
C438 C440 1.478 . S
C439 H433 0.930 . S
C439 C435 1.422 . S
C439 C438 1.385 . S
C440 C438 1.478 . S
C440 C442 1.381 . S
C440 C446 1.383 . S
C441 C437 1.495 . S
C441 H447 0.959 . S
C441 H448 0.961 1_565 S
C441 H449 0.960 . S
C442 C440 1.381 . S
C442 C443 1.394 . S
C442 H450 0.930 . S
C443 C442 1.394 . S
C443 C444 1.383 . S
C443 H451 0.929 . S
C444 C443 1.383 . S
C444 C445 1.377 . S
C445 H429 0.930 . S
C445 C444 1.377 . S
C445 C446 1.379 . S
C446 H430 0.931 . S
C446 C440 1.383 . S
C446 C445 1.379 . S
H447 C441 0.959 . S
H448 C441 0.961 1_545 S
H449 C441 0.960 . S
H450 C442 0.930 . S
H451 C443 0.929 . S
H452 C460 0.929 . S
H453 C462 0.930 . S
H454 C464 0.930 . S
H455 C467 0.929 . S
H456 C470 0.930 . S
H457 C472 0.960 . S
H458 C472 0.960 . S
H459 C472 0.960 . S
C460 H452 0.929 . S
C460 C461 1.377 . S
C460 C462 1.384 . S
C461 C460 1.377 . S
C461 C467 1.390 . S
C462 H453 0.930 . S
C462 C460 1.384 . S
C462 C463 1.372 . S
C463 C462 1.372 . S
C463 C464 1.400 . S
C463 C468 1.490 . S
C464 H454 0.930 . S
C464 C463 1.400 . S
C464 C467 1.386 . S
H465 C481 0.930 . S
H466 C482 0.931 . S
C467 H455 0.929 . S
C467 C461 1.390 . S
C467 C464 1.386 . S
C468 C463 1.490 . S
C468 C470 1.395 . S
C468 C471 1.403 . S
H469 C475 0.930 . S
C470 H456 0.930 . S
C470 C468 1.395 . S
C470 C473 1.403 . S
C471 C468 1.403 . S
C471 C472 1.524 . S
C471 C475 1.400 . S
C472 H457 0.960 . S
C472 H458 0.960 . S
C472 H459 0.960 . S
C472 C471 1.524 . S
C473 C470 1.403 . S
C473 C474 1.392 . S
C473 C477 1.495 . S
C474 C473 1.392 . S
C474 C475 1.385 . S
C474 C476 1.478 . S
C475 H469 0.930 . S
C475 C471 1.400 . S
C475 C474 1.385 . S
C476 C474 1.478 . S
C476 C478 1.381 . S
C476 C482 1.383 . S
C477 C473 1.495 . S
C477 H483 0.959 . S
C477 H484 0.961 . S
C477 H485 0.960 . S
C478 C476 1.381 . S
C478 C479 1.394 . S
C478 H486 0.930 . S
C479 C478 1.394 . S
C479 C480 1.383 . S
C479 H487 0.929 . S
C480 C479 1.383 . S
C480 C481 1.377 . S
C481 H465 0.930 . S
C481 C480 1.377 . S
C481 C482 1.379 . S
C482 H466 0.931 . S
C482 C476 1.383 . S
C482 C481 1.379 . S
H483 C477 0.959 . S
H484 C477 0.961 . S
H485 C477 0.960 . S
H486 C478 0.930 . S
H487 C479 0.929 . S
H488 C496 0.929 . S
H489 C498 0.930 . S
H490 C500 0.930 . S
H491 C503 0.929 . S
H492 C506 0.930 . S
H493 C508 0.960 1_545 S
H494 C508 0.960 . S
H495 C508 0.960 . S
C496 H488 0.929 . S
C496 C497 1.377 . S
C496 C498 1.384 . S
C497 C496 1.377 . S
C497 C503 1.390 . S
C498 H489 0.930 . S
C498 C496 1.384 . S
C498 C499 1.372 . S
C499 C498 1.372 . S
C499 C500 1.400 . S
C499 C504 1.490 . S
C500 H490 0.930 . S
C500 C499 1.400 . S
C500 C503 1.386 . S
H501 C517 0.930 . S
H502 C518 0.931 . S
C503 H491 0.929 . S
C503 C497 1.390 . S
C503 C500 1.386 . S
C504 C499 1.490 . S
C504 C506 1.395 . S
C504 C507 1.403 . S
H505 C511 0.930 . S
C506 H492 0.930 . S
C506 C504 1.395 . S
C506 C509 1.373 1_565 S
C507 C504 1.403 . S
C507 C508 1.524 . S
C507 C511 1.400 1_565 S
C508 H493 0.960 1_565 S
C508 H494 0.960 . S
C508 H495 0.960 . S
C508 C507 1.524 . S
C509 C506 1.373 1_545 S
C509 C510 1.420 . S
C509 C513 1.498 . S
C510 C509 1.420 . S
C510 C511 1.385 . S
C510 C512 1.478 . S
C511 H505 0.930 . S
C511 C507 1.400 1_545 S
C511 C510 1.385 . S
C512 C510 1.478 . S
C512 C514 1.381 . S
C512 C518 1.383 . S
C513 C509 1.498 . S
C513 H519 0.959 1_545 S
C513 H520 0.961 . S
C513 H521 0.960 . S
C514 C512 1.381 . S
C514 C515 1.394 . S
C514 H522 0.930 . S
C515 C514 1.394 . S
C515 C516 1.383 . S
C515 H523 0.929 . S
C516 C515 1.383 . S
C516 C517 1.377 . S
C517 H501 0.930 . S
C517 C516 1.377 . S
C517 C518 1.379 . S
C518 H502 0.931 . S
C518 C512 1.383 . S
C518 C517 1.379 . S
H519 C513 0.959 1_565 S
H520 C513 0.961 . S
H521 C513 0.960 . S
H522 C514 0.930 . S
H523 C515 0.929 . S
H524 C532 0.929 . S
H525 C534 0.930 . S
H526 C536 0.930 . S
H527 C539 0.929 . S
H528 C542 0.930 . S
H529 C544 0.960 . S
H530 C544 0.960 . S
H531 C544 0.960 . S
C532 H524 0.929 . S
C532 C533 1.377 . S
C532 C534 1.384 . S
C533 C532 1.377 . S
C533 C539 1.390 . S
C534 H525 0.930 . S
C534 C532 1.384 . S
C534 C535 1.372 . S
C535 C534 1.372 . S
C535 C536 1.400 . S
C535 C540 1.490 . S
C536 H526 0.930 . S
C536 C535 1.400 . S
C536 C539 1.386 . S
H537 C553 0.930 . S
H538 C554 0.931 . S
C539 H527 0.929 . S
C539 C533 1.390 . S
C539 C536 1.386 . S
C540 C535 1.490 . S
C540 C542 1.395 . S
C540 C543 1.403 . S
H541 C547 0.930 . S
C542 H528 0.930 . S
C542 C540 1.395 . S
C542 C545 1.403 . S
C543 C540 1.403 . S
C543 C544 1.524 . S
C543 C547 1.400 . S
C544 H529 0.960 . S
C544 H530 0.960 . S
C544 H531 0.960 . S
C544 C543 1.524 . S
C545 C542 1.403 . S
C545 C546 1.392 . S
C545 C549 1.495 . S
C546 C545 1.392 . S
C546 C547 1.385 . S
C546 C548 1.478 . S
C547 H541 0.930 . S
C547 C543 1.400 . S
C547 C546 1.385 . S
C548 C546 1.478 . S
C548 C550 1.381 . S
C548 C554 1.383 . S
C549 C545 1.495 . S
C549 H555 0.959 . S
C549 H556 0.961 . S
C549 H557 0.960 . S
C550 C548 1.381 . S
C550 C551 1.394 . S
C550 H558 0.930 . S
C551 C550 1.394 . S
C551 C552 1.383 . S
C551 H559 0.929 . S
C552 C551 1.383 . S
C552 C553 1.377 . S
C553 H537 0.930 . S
C553 C552 1.377 . S
C553 C554 1.379 . S
C554 H538 0.931 . S
C554 C548 1.383 . S
C554 C553 1.379 . S
H555 C549 0.959 . S
H556 C549 0.961 . S
H557 C549 0.960 . S
H558 C550 0.930 . S
H559 C551 0.929 . S
H560 C568 0.929 . S
H561 C570 0.930 . S
H562 C572 0.930 1_556 S
H563 C575 0.929 . S
H564 C578 0.930 . S
H565 C580 0.960 . S
H566 C580 0.960 . S
H567 C580 0.960 . S
C568 H560 0.929 . S
C568 C569 1.377 . S
C568 C570 1.384 . S
C569 C568 1.377 . S
C569 C575 1.390 . S
C570 H561 0.930 . S
C570 C568 1.384 . S
C570 C571 1.372 . S
C571 C570 1.372 . S
C571 C572 1.400 . S
C571 C576 1.490 . S
C572 H562 0.930 1_554 S
C572 C571 1.400 . S
C572 C575 1.386 . S
H573 C589 0.930 . S
H574 C590 0.931 . S
C575 H563 0.929 . S
C575 C569 1.390 . S
C575 C572 1.386 . S
C576 C571 1.490 . S
C576 C578 1.395 . S
C576 C579 1.403 1_554 S
H577 C583 0.930 . S
C578 H564 0.930 . S
C578 C576 1.395 . S
C578 C581 1.421 . S
C579 C576 1.403 1_556 S
C579 C580 1.524 . S
C579 C583 1.400 . S
C580 H565 0.960 . S
C580 H566 0.960 . S
C580 H567 0.960 . S
C580 C579 1.524 . S
C581 C578 1.421 . S
C581 C582 1.359 1_554 S
C581 C585 1.512 . S
C582 C581 1.359 1_556 S
C582 C583 1.385 . S
C582 C584 1.478 . S
C583 H577 0.930 . S
C583 C579 1.400 . S
C583 C582 1.385 . S
C584 C582 1.478 . S
C584 C586 1.381 . S
C584 C590 1.383 . S
C585 C581 1.512 . S
C585 H591 0.959 . S
C585 H592 0.961 . S
C585 H593 0.960 . S
C586 C584 1.381 . S
C586 C587 1.394 . S
C586 H594 0.930 . S
C587 C586 1.394 . S
C587 C588 1.383 . S
C587 H595 0.929 . S
C588 C587 1.383 . S
C588 C589 1.377 . S
C589 H573 0.930 . S
C589 C588 1.377 . S
C589 C590 1.379 . S
C590 H574 0.931 . S
C590 C584 1.383 . S
C590 C589 1.379 . S
H591 C585 0.959 . S
H592 C585 0.961 . S
H593 C585 0.960 . S
H594 C586 0.930 . S
H595 C587 0.929 . S
H596 C604 0.929 . S
H597 C606 0.930 . S
H598 C608 0.930 . S
H599 C611 0.929 . S
H600 C614 0.930 . S
H601 C616 0.960 . S
H602 C616 0.960 . S
H603 C616 0.960 . S
C604 H596 0.929 . S
C604 C605 1.377 . S
C604 C606 1.384 . S
C605 C604 1.377 . S
C605 C611 1.390 . S
C606 H597 0.930 . S
C606 C604 1.384 . S
C606 C607 1.372 . S
C607 C606 1.372 . S
C607 C608 1.400 . S
C607 C612 1.490 . S
C608 H598 0.930 . S
C608 C607 1.400 . S
C608 C611 1.386 . S
H609 C625 0.930 . S
H610 C626 0.931 . S
C611 H599 0.929 . S
C611 C605 1.390 . S
C611 C608 1.386 . S
C612 C607 1.490 . S
C612 C614 1.395 . S
C612 C615 1.403 . S
H613 C619 0.930 . S
C614 H600 0.930 . S
C614 C612 1.395 . S
C614 C617 1.403 1_556 S
C615 C612 1.403 . S
C615 C616 1.524 . S
C615 C619 1.400 . S
C616 H601 0.960 . S
C616 H602 0.960 . S
C616 H603 0.960 . S
C616 C615 1.524 . S
C617 C614 1.403 1_554 S
C617 C618 1.392 . S
C617 C621 1.495 . S
C618 C617 1.392 . S
C618 C619 1.385 1_554 S
C618 C620 1.478 . S
C619 H613 0.930 . S
C619 C615 1.400 . S
C619 C618 1.385 1_556 S
C620 C618 1.478 . S
C620 C622 1.381 . S
C620 C626 1.383 . S
C621 C617 1.495 . S
C621 H627 0.959 . S
C621 H628 0.961 . S
C621 H629 0.960 . S
C622 C620 1.381 . S
C622 C623 1.394 . S
C622 H630 0.905 1_554 S
C623 C622 1.394 . S
C623 C624 1.383 . S
C623 H631 0.929 . S
C624 C623 1.383 . S
C624 C625 1.377 . S
C625 H609 0.930 . S
C625 C624 1.377 . S
C625 C626 1.379 . S
C626 H610 0.931 . S
C626 C620 1.383 . S
C626 C625 1.379 . S
H627 C621 0.959 . S
H628 C621 0.961 . S
H629 C621 0.960 . S
H630 C622 0.905 1_556 S
H631 C623 0.929 . S
H632 C640 0.929 . S
H633 C642 0.930 . S
H634 C644 0.930 . S
H635 C647 0.929 . S
H636 C650 0.930 . S
H637 C652 0.960 . S
H638 C652 0.960 . S
H639 C652 0.960 . S
C640 H632 0.929 . S
C640 C641 1.377 . S
C640 C642 1.384 . S
C641 C640 1.377 . S
C641 C647 1.390 . S
C642 H633 0.930 . S
C642 C640 1.384 . S
C642 C643 1.372 . S
C643 C642 1.372 . S
C643 C644 1.400 . S
C643 C648 1.490 . S
C644 H634 0.930 . S
C644 C643 1.400 . S
C644 C647 1.386 . S
H645 C661 0.930 . S
H646 C662 0.931 . S
C647 H635 0.929 . S
C647 C641 1.390 . S
C647 C644 1.386 . S
C648 C643 1.490 . S
C648 C650 1.395 . S
C648 C651 1.403 . S
H649 C655 0.930 . S
C650 H636 0.930 . S
C650 C648 1.395 . S
C650 C653 1.403 . S
C651 C648 1.403 . S
C651 C652 1.524 . S
C651 C655 1.400 . S
C652 H637 0.960 . S
C652 H638 0.960 . S
C652 H639 0.960 . S
C652 C651 1.524 . S
C653 C650 1.403 . S
C653 C654 1.392 . S
C653 C657 1.495 . S
C654 C653 1.392 . S
C654 C655 1.385 . S
C654 C656 1.478 . S
C655 H649 0.930 . S
C655 C651 1.400 . S
C655 C654 1.385 . S
C656 C654 1.478 . S
C656 C658 1.381 . S
C656 C662 1.383 . S
C657 C653 1.495 . S
C657 H663 0.959 . S
C657 H664 0.961 . S
C657 H665 0.960 . S
C658 C656 1.381 . S
C658 C659 1.394 . S
C658 H666 0.930 . S
C659 C658 1.394 . S
C659 C660 1.383 . S
C659 H667 0.929 . S
C660 C659 1.383 . S
C660 C661 1.377 . S
C661 H645 0.930 . S
C661 C660 1.377 . S
C661 C662 1.379 . S
C662 H646 0.931 . S
C662 C656 1.383 . S
C662 C661 1.379 . S
H663 C657 0.959 . S
H664 C657 0.961 . S
H665 C657 0.960 . S
H666 C658 0.930 . S
H667 C659 0.929 . S
H668 C676 0.929 . S
H669 C678 0.930 . S
H670 C680 0.930 . S
H671 C683 0.929 . S
H672 C686 0.930 . S
H673 C688 0.960 . S
H674 C688 0.960 . S
H675 C688 0.960 . S
C676 H668 0.929 . S
C676 C677 1.377 . S
C676 C678 1.384 . S
C677 C676 1.377 . S
C677 C683 1.390 . S
C678 H669 0.930 . S
C678 C676 1.384 . S
C678 C679 1.372 . S
C679 C678 1.372 . S
C679 C680 1.400 . S
C679 C684 1.490 . S
C680 H670 0.930 . S
C680 C679 1.400 . S
C680 C683 1.386 . S
H681 C697 0.930 . S
H682 C698 0.931 . S
C683 H671 0.929 . S
C683 C677 1.390 . S
C683 C680 1.386 . S
C684 C679 1.490 . S
C684 C686 1.395 . S
C684 C687 1.403 . S
H685 C691 0.930 . S
C686 H672 0.930 . S
C686 C684 1.395 . S
C686 C689 1.403 . S
C687 C684 1.403 . S
C687 C688 1.524 . S
C687 C691 1.400 . S
C688 H673 0.960 . S
C688 H674 0.960 . S
C688 H675 0.960 . S
C688 C687 1.524 . S
C689 C686 1.403 . S
C689 C690 1.392 . S
C689 C693 1.495 . S
C690 C689 1.392 . S
C690 C691 1.385 . S
C690 C692 1.478 . S
C691 H685 0.930 . S
C691 C687 1.400 . S
C691 C690 1.385 . S
C692 C690 1.478 . S
C692 C694 1.381 . S
C692 C698 1.383 . S
C693 C689 1.495 . S
C693 H699 0.959 . S
C693 H700 0.961 . S
C693 H701 0.960 . S
C694 C692 1.381 . S
C694 C695 1.394 . S
C694 H702 0.930 . S
C695 C694 1.394 . S
C695 C696 1.383 . S
C695 H703 0.929 . S
C696 C695 1.383 . S
C696 C697 1.377 . S
C697 H681 0.930 . S
C697 C696 1.377 . S
C697 C698 1.379 . S
C698 H682 0.931 . S
C698 C692 1.383 . S
C698 C697 1.379 . S
H699 C693 0.959 . S
H700 C693 0.961 . S
H701 C693 0.960 . S
H702 C694 0.930 . S
H703 C695 0.929 . S
H704 C712 0.929 . S
H705 C714 0.930 . S
H706 C716 0.930 . S
H707 C719 0.929 . S
H708 C722 0.930 . S
H709 C724 0.960 . S
H710 C724 0.960 . S
H711 C724 0.960 . S
C712 H704 0.929 . S
C712 C713 1.377 . S
C712 C714 1.384 . S
C713 C712 1.377 . S
C713 C719 1.390 . S
C714 H705 0.930 . S
C714 C712 1.384 . S
C714 C715 1.372 . S
C715 C714 1.372 . S
C715 C716 1.400 . S
C715 C720 1.490 . S
C716 H706 0.930 . S
C716 C715 1.400 . S
C716 C719 1.386 . S
H717 C733 0.930 . S
H718 C734 0.931 . S
C719 H707 0.929 . S
C719 C713 1.390 . S
C719 C716 1.386 . S
C720 C715 1.490 . S
C720 C722 1.395 1_554 S
C720 C723 1.403 . S
H721 C727 0.930 . S
C722 H708 0.930 . S
C722 C720 1.395 1_556 S
C722 C725 1.403 . S
C723 C720 1.403 . S
C723 C724 1.524 . S
C723 C727 1.400 . S
C724 H709 0.960 . S
C724 H710 0.960 . S
C724 H711 0.960 . S
C724 C723 1.524 . S
C725 C722 1.403 . S
C725 C726 1.392 . S
C725 C729 1.495 . S
C726 C725 1.392 . S
C726 C727 1.385 1_556 S
C726 C728 1.478 . S
C727 H721 0.930 . S
C727 C723 1.400 . S
C727 C726 1.385 1_554 S
C728 C726 1.478 . S
C728 C730 1.381 . S
C728 C734 1.383 . S
C729 C725 1.495 . S
C729 H735 0.959 . S
C729 H736 0.961 . S
C729 H737 0.960 . S
C730 C728 1.381 . S
C730 C731 1.394 . S
C730 H738 0.930 . S
C731 C730 1.394 . S
C731 C732 1.383 . S
C731 H739 0.929 . S
C732 C731 1.383 . S
C732 C733 1.377 . S
C733 H717 0.930 . S
C733 C732 1.377 . S
C733 C734 1.379 . S
C734 H718 0.931 . S
C734 C728 1.383 . S
C734 C733 1.379 . S
H735 C729 0.959 . S
H736 C729 0.961 . S
H737 C729 0.960 . S
H738 C730 0.930 . S
H739 C731 0.929 . S
H740 C748 0.929 . S
H741 C750 0.939 . S
H742 C752 0.930 . S
H743 C755 0.929 . S
H744 C758 0.930 . S
H745 C760 0.960 . S
H746 C760 0.960 . S
H747 C760 0.960 . S
C748 H740 0.929 . S
C748 C749 1.377 . S
C748 C750 1.384 . S
C749 C748 1.377 . S
C749 C755 1.390 . S
C750 H741 0.939 . S
C750 C748 1.384 . S
C750 C751 1.372 . S
C751 C750 1.372 . S
C751 C752 1.400 . S
C751 C756 1.471 1_556 S
C752 H742 0.930 . S
C752 C751 1.400 . S
C752 C755 1.386 . S
H753 C769 0.930 . S
H754 C770 0.931 . S
C755 H743 0.929 . S
C755 C749 1.390 . S
C755 C752 1.386 . S
C756 C751 1.471 1_554 S
C756 C758 1.430 . S
C756 C759 1.387 1_554 S
H757 C763 0.930 1_556 S
C758 H744 0.930 . S
C758 C756 1.430 . S
C758 C761 1.403 . S
C759 C756 1.387 1_556 S
C759 C760 1.524 . S
C759 C763 1.400 1_556 S
C760 H745 0.960 . S
C760 H746 0.960 . S
C760 H747 0.960 . S
C760 C759 1.524 . S
C761 C758 1.403 . S
C761 C762 1.392 . S
C761 C765 1.495 . S
C762 C761 1.392 . S
C762 C763 1.385 . S
C762 C764 1.478 . S
C763 H757 0.930 1_554 S
C763 C759 1.400 1_554 S
C763 C762 1.385 . S
C764 C762 1.478 . S
C764 C766 1.381 . S
C764 C770 1.383 . S
C765 C761 1.495 . S
C765 H771 0.959 . S
C765 H772 0.961 . S
C765 H773 0.960 . S
C766 C764 1.381 . S
C766 C767 1.394 . S
C766 H774 0.930 . S
C767 C766 1.394 . S
C767 C768 1.383 . S
C767 H775 0.929 . S
C768 C767 1.383 . S
C768 C769 1.377 . S
C769 H753 0.930 . S
C769 C768 1.377 . S
C769 C770 1.379 . S
C770 H754 0.931 . S
C770 C764 1.383 . S
C770 C769 1.379 . S
H771 C765 0.959 . S
H772 C765 0.961 . S
H773 C765 0.960 . S
H774 C766 0.930 . S
H775 C767 0.929 . S
H776 C784 0.929 . S
H777 C786 0.930 . S
H778 C788 0.930 . S
H779 C791 0.929 . S
H780 C794 0.930 . S
H781 C796 0.960 . S
H782 C796 0.960 . S
H783 C796 0.960 . S
C784 H776 0.929 . S
C784 C785 1.377 . S
C784 C786 1.384 . S
C785 C784 1.377 . S
C785 C791 1.390 . S
C786 H777 0.930 . S
C786 C784 1.384 . S
C786 C787 1.372 . S
C787 C786 1.372 . S
C787 C788 1.400 . S
C787 C792 1.490 . S
C788 H778 0.930 . S
C788 C787 1.400 . S
C788 C791 1.386 . S
H789 C805 0.930 . S
H790 C806 0.931 . S
C791 H779 0.929 . S
C791 C785 1.390 . S
C791 C788 1.386 . S
C792 C787 1.490 . S
C792 C794 1.395 . S
C792 C795 1.403 . S
H793 C799 0.930 . S
C794 H780 0.930 . S
C794 C792 1.395 . S
C794 C797 1.403 . S
C795 C792 1.403 . S
C795 C796 1.524 . S
C795 C799 1.400 . S
C796 H781 0.960 . S
C796 H782 0.960 . S
C796 H783 0.960 . S
C796 C795 1.524 . S
C797 C794 1.403 . S
C797 C798 1.392 . S
C797 C801 1.495 . S
C798 C797 1.392 . S
C798 C799 1.385 . S
C798 C800 1.478 . S
C799 H793 0.930 . S
C799 C795 1.400 . S
C799 C798 1.385 . S
C800 C798 1.478 . S
C800 C802 1.381 . S
C800 C806 1.383 . S
C801 C797 1.495 . S
C801 H807 0.959 . S
C801 H808 0.961 . S
C801 H809 0.960 . S
C802 C800 1.381 . S
C802 C803 1.394 . S
C802 H810 0.930 . S
C803 C802 1.394 . S
C803 C804 1.383 . S
C803 H811 0.929 . S
C804 C803 1.383 . S
C804 C805 1.377 . S
C805 H789 0.930 . S
C805 C804 1.377 . S
C805 C806 1.379 . S
C806 H790 0.931 . S
C806 C800 1.383 . S
C806 C805 1.379 . S
H807 C801 0.959 . S
H808 C801 0.961 . S
H809 C801 0.960 . S
H810 C802 0.930 . S
H811 C803 0.929 . S
H812 C820 0.929 . S
H813 C822 0.930 . S
H814 C824 0.930 . S
H815 C827 0.929 . S
H816 C830 0.930 . S
H817 C832 0.960 . S
H818 C832 0.960 . S
H819 C832 0.960 . S
C820 H812 0.929 . S
C820 C821 1.377 . S
C820 C822 1.384 . S
C821 C820 1.377 . S
C821 C827 1.390 . S
C822 H813 0.930 . S
C822 C820 1.384 . S
C822 C823 1.372 . S
C823 C822 1.372 . S
C823 C824 1.400 . S
C823 C828 1.490 . S
C824 H814 0.930 . S
C824 C823 1.400 . S
C824 C827 1.386 . S
H825 C841 0.930 . S
H826 C842 0.931 . S
C827 H815 0.929 . S
C827 C821 1.390 . S
C827 C824 1.386 . S
C828 C823 1.490 . S
C828 C830 1.395 . S
C828 C831 1.403 . S
H829 C835 0.930 . S
C830 H816 0.930 . S
C830 C828 1.395 . S
C830 C833 1.403 . S
C831 C828 1.403 . S
C831 C832 1.524 . S
C831 C835 1.400 . S
C832 H817 0.960 . S
C832 H818 0.960 . S
C832 H819 0.960 . S
C832 C831 1.524 . S
C833 C830 1.403 . S
C833 C834 1.392 . S
C833 C837 1.495 . S
C834 C833 1.392 . S
C834 C835 1.385 . S
C834 C836 1.478 . S
C835 H829 0.930 . S
C835 C831 1.400 . S
C835 C834 1.385 . S
C836 C834 1.478 . S
C836 C838 1.381 . S
C836 C842 1.383 . S
C837 C833 1.495 . S
C837 H843 0.959 . S
C837 H844 0.961 . S
C837 H845 0.960 . S
C838 C836 1.381 . S
C838 C839 1.394 . S
C838 H846 0.930 . S
C839 C838 1.394 . S
C839 C840 1.383 . S
C839 H847 0.929 . S
C840 C839 1.383 . S
C840 C841 1.377 . S
C841 H825 0.930 . S
C841 C840 1.377 . S
C841 C842 1.379 . S
C842 H826 0.931 . S
C842 C836 1.383 . S
C842 C841 1.379 . S
H843 C837 0.959 . S
H844 C837 0.961 . S
H845 C837 0.960 . S
H846 C838 0.930 . S
H847 C839 0.929 . S
H848 C856 0.929 . S
H849 C858 0.930 . S
H850 C860 0.930 . S
H851 C863 0.929 . S
H852 C866 0.930 . S
H853 C868 0.960 . S
H854 C868 0.960 . S
H855 C868 0.960 . S
C856 H848 0.929 . S
C856 C857 1.377 . S
C856 C858 1.384 . S
C857 C856 1.377 . S
C857 C863 1.390 . S
C858 H849 0.930 . S
C858 C856 1.384 . S
C858 C859 1.372 . S
C859 C858 1.372 . S
C859 C860 1.400 . S
C859 C864 1.490 . S
C860 H850 0.930 . S
C860 C859 1.400 . S
C860 C863 1.386 . S
H861 C877 0.930 . S
H862 C878 0.931 . S
C863 H851 0.929 . S
C863 C857 1.390 . S
C863 C860 1.386 . S
C864 C859 1.490 . S
C864 C866 1.395 . S
C864 C867 1.403 . S
H865 C871 0.930 . S
C866 H852 0.930 . S
C866 C864 1.395 . S
C866 C869 1.403 . S
C867 C864 1.403 . S
C867 C868 1.524 . S
C867 C871 1.400 . S
C868 H853 0.960 . S
C868 H854 0.960 . S
C868 H855 0.960 . S
C868 C867 1.524 . S
C869 C866 1.403 . S
C869 C870 1.392 . S
C869 C873 1.495 . S
C870 C869 1.392 . S
C870 C871 1.385 . S
C870 C872 1.478 . S
C871 H865 0.930 . S
C871 C867 1.400 . S
C871 C870 1.385 . S
C872 C870 1.478 . S
C872 C874 1.381 . S
C872 C878 1.383 . S
C873 C869 1.495 . S
C873 H879 0.959 . S
C873 H880 0.961 . S
C873 H881 0.960 . S
C874 C872 1.381 . S
C874 C875 1.394 . S
C874 H882 0.930 . S
C875 C874 1.394 . S
C875 C876 1.383 . S
C875 H883 0.929 . S
C876 C875 1.383 . S
C876 C877 1.377 . S
C877 H861 0.930 . S
C877 C876 1.377 . S
C877 C878 1.379 . S
C878 H862 0.931 . S
C878 C872 1.383 . S
C878 C877 1.379 . S
H879 C873 0.959 . S
H880 C873 0.961 . S
H881 C873 0.960 . S
H882 C874 0.930 . S
H883 C875 0.929 . S
H884 C892 0.929 . S
H885 C894 0.930 . S
H886 C896 0.930 . S
H887 C899 0.929 . S
H888 C902 0.930 . S
H889 C904 0.960 . S
H890 C904 0.960 . S
H891 C904 0.960 . S
C892 H884 0.929 . S
C892 C893 1.377 . S
C892 C894 1.384 . S
C893 C892 1.377 . S
C893 C899 1.390 . S
C894 H885 0.930 . S
C894 C892 1.384 . S
C894 C895 1.372 . S
C895 C894 1.372 . S
C895 C896 1.400 . S
C895 C900 1.490 . S
C896 H886 0.930 . S
C896 C895 1.400 . S
C896 C899 1.386 . S
H897 C913 0.930 . S
H898 C914 0.931 . S
C899 H887 0.929 . S
C899 C893 1.390 . S
C899 C896 1.386 . S
C900 C895 1.490 . S
C900 C902 1.395 . S
C900 C903 1.403 . S
H901 C907 0.930 . S
C902 H888 0.930 . S
C902 C900 1.395 . S
C902 C905 1.403 . S
C903 C900 1.403 . S
C903 C904 1.524 . S
C903 C907 1.400 . S
C904 H889 0.960 . S
C904 H890 0.960 . S
C904 H891 0.960 . S
C904 C903 1.524 . S
C905 C902 1.403 . S
C905 C906 1.392 . S
C905 C909 1.495 . S
C906 C905 1.392 . S
C906 C907 1.385 . S
C906 C908 1.478 . S
C907 H901 0.930 . S
C907 C903 1.400 . S
C907 C906 1.385 . S
C908 C906 1.478 . S
C908 C910 1.381 . S
C908 C914 1.383 . S
C909 C905 1.495 . S
C909 H915 0.959 . S
C909 H916 0.961 . S
C909 H917 0.960 . S
C910 C908 1.381 . S
C910 C911 1.394 . S
C910 H918 0.930 . S
C911 C910 1.394 . S
C911 C912 1.383 . S
C911 H919 0.929 . S
C912 C911 1.383 . S
C912 C913 1.377 . S
C913 H897 0.930 . S
C913 C912 1.377 . S
C913 C914 1.379 . S
C914 H898 0.931 . S
C914 C908 1.383 . S
C914 C913 1.379 . S
H915 C909 0.959 . S
H916 C909 0.961 . S
H917 C909 0.960 . S
H918 C910 0.930 . S
H919 C911 0.929 . S
H920 C928 0.929 . S
H921 C930 0.930 . S
H922 C932 0.930 . S
H923 C935 0.929 . S
H924 C938 0.930 . S
H925 C940 0.960 . S
H926 C940 0.960 . S
H927 C940 0.960 . S
C928 H920 0.929 . S
C928 C929 1.377 . S
C928 C930 1.384 . S
C929 C928 1.377 . S
C929 C935 1.390 . S
C930 H921 0.930 . S
C930 C928 1.384 . S
C930 C931 1.372 . S
C931 C930 1.372 . S
C931 C932 1.400 . S
C931 C936 1.490 . S
C932 H922 0.930 . S
C932 C931 1.400 . S
C932 C935 1.386 . S
H933 C949 0.930 . S
H934 C950 0.931 . S
C935 H923 0.929 . S
C935 C929 1.390 . S
C935 C932 1.386 . S
C936 C931 1.490 . S
C936 C938 1.395 . S
C936 C939 1.403 . S
H937 C943 0.930 . S
C938 H924 0.930 . S
C938 C936 1.395 . S
C938 C941 1.403 . S
C939 C936 1.403 . S
C939 C940 1.524 . S
C939 C943 1.400 . S
C940 H925 0.960 . S
C940 H926 0.960 . S
C940 H927 0.960 . S
C940 C939 1.524 . S
C941 C938 1.403 . S
C941 C942 1.392 . S
C941 C945 1.495 . S
C942 C941 1.392 . S
C942 C943 1.385 . S
C942 C944 1.478 . S
C943 H937 0.930 . S
C943 C939 1.400 . S
C943 C942 1.385 . S
C944 C942 1.478 . S
C944 C946 1.381 . S
C944 C950 1.383 . S
C945 C941 1.495 . S
C945 H951 0.959 . S
C945 H952 0.961 . S
C945 H953 0.960 . S
C946 C944 1.381 . S
C946 C947 1.394 . S
C946 H954 0.930 . S
C947 C946 1.394 . S
C947 C948 1.383 . S
C947 H955 0.929 . S
C948 C947 1.383 . S
C948 C949 1.377 . S
C949 H933 0.930 . S
C949 C948 1.377 . S
C949 C950 1.379 . S
C950 H934 0.931 . S
C950 C944 1.383 . S
C950 C949 1.379 . S
H951 C945 0.959 . S
H952 C945 0.961 . S
H953 C945 0.960 . S
H954 C946 0.930 . S
H955 C947 0.929 . S
H956 C964 0.929 . S
H957 C966 0.930 . S
H958 C968 0.930 . S
H959 C971 0.929 . S
H960 C974 0.930 . S
H961 C976 0.960 . S
H962 C976 0.960 . S
H963 C976 0.960 . S
C964 H956 0.929 . S
C964 C965 1.377 . S
C964 C966 1.384 . S
C965 C964 1.377 . S
C965 C971 1.390 . S
C966 H957 0.930 . S
C966 C964 1.384 . S
C966 C967 1.372 . S
C967 C966 1.372 . S
C967 C968 1.400 . S
C967 C972 1.490 . S
C968 H958 0.930 . S
C968 C967 1.400 . S
C968 C971 1.386 . S
H969 C985 0.930 . S
H970 C986 0.931 . S
C971 H959 0.929 . S
C971 C965 1.390 . S
C971 C968 1.386 . S
C972 C967 1.490 . S
C972 C974 1.395 . S
C972 C975 1.403 . S
H973 C979 0.930 . S
C974 H960 0.930 . S
C974 C972 1.395 . S
C974 C977 1.403 . S
C975 C972 1.403 . S
C975 C976 1.524 . S
C975 C979 1.400 . S
C976 H961 0.960 . S
C976 H962 0.960 . S
C976 H963 0.960 . S
C976 C975 1.524 . S
C977 C974 1.403 . S
C977 C978 1.392 . S
C977 C981 1.495 . S
C978 C977 1.392 . S
C978 C979 1.385 . S
C978 C980 1.478 . S
C979 H973 0.930 . S
C979 C975 1.400 . S
C979 C978 1.385 . S
C980 C978 1.478 . S
C980 C982 1.381 . S
C980 C986 1.383 . S
C981 C977 1.495 . S
C981 H987 0.959 . S
C981 H988 0.961 . S
C981 H989 0.960 . S
C982 C980 1.381 . S
C982 C983 1.394 . S
C982 H990 0.930 . S
C983 C982 1.394 . S
C983 C984 1.383 . S
C983 H991 0.929 . S
C984 C983 1.383 . S
C984 C985 1.377 . S
C985 H969 0.930 . S
C985 C984 1.377 . S
C985 C986 1.379 . S
C986 H970 0.931 . S
C986 C980 1.383 . S
C986 C985 1.379 . S
H987 C981 0.959 . S
H988 C981 0.961 . S
H989 C981 0.960 . S
H990 C982 0.930 . S
H991 C983 0.929 . S
C281 C5 0.587 . S
C300 C141 0.548 . S
C317 C175 0.563 . S
C336 C39 0.623 . S
C353 C209 0.571 . S
C372 C73 0.651 . S
C389 C107 0.557 . S
C408 C243 0.577 . S
C425 C36 1.786 . S
C444 C2 1.795 . S
C461 C70 1.795 . S
C480 C104 1.795 . S
C497 C138 1.796 . S
C516 C172 1.766 . S
C533 C240 1.786 . S
C552 C206 1.809 . S
C569 C33 1.351 . S
C588 C190 1.267 . S
C605 C156 1.304 1_455 S
C624 C67 1.328 . S
C641 C258 1.307 . S
C660 C101 1.350 . S
C677 C224 1.298 1_455 S
C696 C135 1.363 . S
C713 C54 1.308 . S
C732 C169 1.336 . S
C749 C203 1.351 . S
C768 C20 1.312 1_655 S
C785 C237 1.346 . S
C804 C122 1.330 . S
C821 C88 1.294 1_655 S
C840 C271 1.358 . S
C857 C77 1.290 . S
C876 C9 1.306 . S
C893 C43 1.299 . S
C912 C111 1.278 . S
C929 C213 1.291 . S
C948 C145 1.270 . S
C965 C247 1.299 . S
C984 C179 1.315 . S
