# Generated by pormake.
# Topology smc, (6)-cn, num edge types: 1
# Building blocks:
#     Node 0, Type 0, BuildingBlock: KUMJIN_clean_sbu_0, # of connection points: 6
#     Node 1, Type 0, BuildingBlock: KUMJIN_clean_sbu_0, # of connection points: 6
#     Node 2, Type 0, BuildingBlock: KUMJIN_clean_sbu_0, # of connection points: 6
#     Node 3, Type 0, BuildingBlock: KUMJIN_clean_sbu_0, # of connection points: 6
#     Node 4, Type 0, BuildingBlock: KUMJIN_clean_sbu_0, # of connection points: 6
#     Node 5, Type 0, BuildingBlock: KUMJIN_clean_sbu_0, # of connection points: 6
#     Node 6, Type 0, BuildingBlock: KUMJIN_clean_sbu_0, # of connection points: 6
#     Node 7, Type 0, BuildingBlock: KUMJIN_clean_sbu_0, # of connection points: 6
#     Node 8, Type 0, BuildingBlock: KUMJIN_clean_sbu_0, # of connection points: 6
#     Edge 9, Type (0, 0), BuildingBlock: EZIPEK_clean_linker_0, # of connection points: 2
#     Edge 10, Type (0, 0), BuildingBlock: EZIPEK_clean_linker_0, # of connection points: 2
#     Edge 11, Type (0, 0), BuildingBlock: EZIPEK_clean_linker_0, # of connection points: 2
#     Edge 12, Type (0, 0), BuildingBlock: EZIPEK_clean_linker_0, # of connection points: 2
#     Edge 13, Type (0, 0), BuildingBlock: EZIPEK_clean_linker_0, # of connection points: 2
#     Edge 14, Type (0, 0), BuildingBlock: EZIPEK_clean_linker_0, # of connection points: 2
#     Edge 15, Type (0, 0), BuildingBlock: EZIPEK_clean_linker_0, # of connection points: 2
#     Edge 16, Type (0, 0), BuildingBlock: EZIPEK_clean_linker_0, # of connection points: 2
#     Edge 17, Type (0, 0), BuildingBlock: EZIPEK_clean_linker_0, # of connection points: 2
#     Edge 18, Type (0, 0), BuildingBlock: EZIPEK_clean_linker_0, # of connection points: 2
#     Edge 19, Type (0, 0), BuildingBlock: EZIPEK_clean_linker_0, # of connection points: 2
#     Edge 20, Type (0, 0), BuildingBlock: EZIPEK_clean_linker_0, # of connection points: 2
#     Edge 21, Type (0, 0), BuildingBlock: EZIPEK_clean_linker_0, # of connection points: 2
#     Edge 22, Type (0, 0), BuildingBlock: EZIPEK_clean_linker_0, # of connection points: 2
#     Edge 23, Type (0, 0), BuildingBlock: EZIPEK_clean_linker_0, # of connection points: 2
#     Edge 24, Type (0, 0), BuildingBlock: EZIPEK_clean_linker_0, # of connection points: 2
#     Edge 25, Type (0, 0), BuildingBlock: EZIPEK_clean_linker_0, # of connection points: 2
#     Edge 26, Type (0, 0), BuildingBlock: EZIPEK_clean_linker_0, # of connection points: 2
#     Edge 27, Type (0, 0), BuildingBlock: EZIPEK_clean_linker_0, # of connection points: 2
#     Edge 28, Type (0, 0), BuildingBlock: EZIPEK_clean_linker_0, # of connection points: 2
#     Edge 29, Type (0, 0), BuildingBlock: EZIPEK_clean_linker_0, # of connection points: 2
#     Edge 30, Type (0, 0), BuildingBlock: EZIPEK_clean_linker_0, # of connection points: 2
#     Edge 31, Type (0, 0), BuildingBlock: EZIPEK_clean_linker_0, # of connection points: 2
#     Edge 32, Type (0, 0), BuildingBlock: EZIPEK_clean_linker_0, # of connection points: 2
#     Edge 33, Type (0, 0), BuildingBlock: EZIPEK_clean_linker_0, # of connection points: 2
#     Edge 34, Type (0, 0), BuildingBlock: EZIPEK_clean_linker_0, # of connection points: 2
#     Edge 35, Type (0, 0), BuildingBlock: EZIPEK_clean_linker_0, # of connection points: 2
# Relax obj value: 0.112
# Max RMSD: 0.304
# Mean RMSD: 0.304
data_MOF--net-smc--node1-KUMJIN_clean_sbu_0--edge1-EZIPEK_clean_linker_0
_symmetry_space_group_name_H-M    P1
_symmetry_Int_Tables_number       1
_symmetry_cell_setting            triclinic
loop_
_symmetry_equiv_pos_as_xyz
'x, y, z'
_cell_length_a     30.060714
_cell_length_b     30.075584
_cell_length_c     29.650921
_cell_angle_alpha  90.113188
_cell_angle_beta   90.144658
_cell_angle_gamma 119.87604
loop_
_atom_site_label
_atom_site_type_symbol
_atom_site_fract_x
_atom_site_fract_y
_atom_site_fract_z
_atom_type_partial_charge
Eu0 Eu 0.04836 0.50609 0.98879 0.0
C1 C 0.98704 0.28935 0.06287 0.0
C2 C 1.00633 0.2415 0.00805 0.0
C3 C 1.00272 0.22128 0.08751 0.0
C4 C 0.99528 0.28088 0.0184 0.0
C5 C 0.98822 0.25791 0.09738 0.0
C6 C 1.01235 0.21351 0.04295 0.0
C7 C 0.95379 0.29608 0.14821 0.0
N8 N 0.97268 0.32471 0.07186 0.0
C9 C 0.95334 0.32647 0.11311 0.0
C10 C 0.97198 0.26207 0.1404 0.0
Eu11 Eu 0.97026 0.37282 0.01048 0.0
N12 N 0.98634 0.30655 0.98515 0.0
C13 C 0.98159 0.28974 0.94126 0.0
C14 C 1.00728 0.22865 0.9629 0.0
C15 C 0.99334 0.25182 0.9295 0.0
H16 H 0.93913 0.35267 0.11898 0.0
H17 H 0.99094 0.24006 0.89465 0.0
H18 H 1.02148 0.18366 0.03559 0.0
H19 H 0.9395 0.2989 0.1808 0.0
H20 H 0.96935 0.30523 0.91439 0.0
H21 H 1.01984 0.54052 0.16651 0.0
H22 H 1.01565 0.19871 0.95368 0.0
H23 H 1.0127 0.54313 0.89418 0.0
H24 H 1.02487 0.48914 0.10513 0.0
H25 H 0.99058 0.60826 0.87301 0.0
H26 H 1.00474 0.19745 0.11389 0.0
H27 H 1.01025 0.61574 0.14961 0.0
H28 H 1.00045 0.6709 0.09201 0.0
H29 H 0.97118 0.2371 0.16681 0.0
H30 H 0.98909 0.68699 0.01279 0.0
N31 N 1.02375 0.53702 0.0527 0.0
C32 C 1.02362 0.52308 0.09657 0.0
C33 C 1.01342 0.59363 0.12219 0.0
C34 C 1.00978 0.60551 0.07727 0.0
C35 C 1.01925 0.55151 0.13186 0.0
C36 C 1.01364 0.57525 0.04277 0.0
H37 H 0.98245 0.66221 0.93159 0.0
N38 N 1.00938 0.55358 0.9652 0.0
C39 C 0.99414 0.60129 0.90827 0.0
C40 C 1.00631 0.58375 0.9979 0.0
C41 C 1.00495 0.56291 0.9207 0.0
C42 C 0.99001 0.63191 0.94141 0.0
C43 C 0.99676 0.62385 0.98673 0.0
O44 O 0.10034 0.56095 0.93995 0.0
O45 O 0.05462 0.43583 0.9947 0.0
O46 O 1.0289 0.39721 0.06641 0.0
O47 O 0.08244 0.48445 0.05376 0.0
O48 O 0.08994 0.48186 0.94009 0.0
O49 O 0.10869 0.58403 0.01061 0.0
O50 O 0.89139 0.34016 0.03439 0.0
O51 O 0.96873 0.44594 0.99612 0.0
O52 O 0.99574 0.46498 0.9262 0.0
O53 O 0.98131 0.38304 0.93623 0.0
O54 O 0.93013 0.40664 0.05224 0.0
O55 O 0.90657 0.31039 0.97381 0.0
C56 C 0.08686 0.44383 0.96284 0.0
C57 C 0.17307 0.64252 0.958 0.0
C58 C 0.23161 0.73519 0.95831 0.0
C59 C 0.18534 0.69229 0.97208 0.0
C60 C 0.26549 0.72768 0.93101 0.0
C61 C 0.20717 0.63617 0.93018 0.0
C62 C 0.25333 0.67855 0.91713 0.0
C63 C 0.06948 0.44121 0.07745 0.0
C64 C 0.12274 0.59827 0.96909 0.0
C65 C 0.99569 0.65561 0.02086 0.0
C66 C 1.00236 0.64658 0.06598 0.0
C67 C 0.9392 0.44485 0.02676 0.0
C68 C 0.83433 0.25441 0.01751 0.0
C69 C 0.78213 0.23997 0.01942 0.0
C70 C 0.74592 0.19121 0.03555 0.0
C71 C 0.76315 0.15869 0.05209 0.0
C72 C 0.85031 0.22044 0.03252 0.0
C73 C 0.81488 0.173 0.05019 0.0
C74 C 0.97891 0.41727 0.91104 0.0
C75 C 0.87189 0.30605 0.00252 0.0
H76 H 0.15884 0.69769 0.99297 0.0
H77 H 0.3015 0.76013 0.92034 0.0
H78 H 0.19789 0.59847 0.91817 0.0
H79 H 0.27958 0.67334 0.89584 0.0
H80 H 0.76958 0.26618 0.00792 0.0
H81 H 0.73655 0.12227 0.06673 0.0
H82 H 0.89008 0.23069 0.0311 0.0
H83 H 0.82755 0.1473 0.06257 0.0
Eu84 Eu 0.52709 0.56092 0.9777 0.0
C85 C 0.74389 0.69764 0.06505 0.0
C86 C 0.78036 0.78028 0.02774 0.0
C87 C 0.81903 0.77173 0.09659 0.0
C88 C 0.74473 0.72728 0.02858 0.0
C89 C 0.78279 0.71915 0.09819 0.0
C90 C 0.81672 0.80245 0.06242 0.0
C91 C 0.75131 0.63398 0.12846 0.0
N92 N 0.70905 0.64671 0.06537 0.0
C93 C 0.71211 0.61478 0.09642 0.0
C94 C 0.78664 0.68631 0.12949 0.0
Eu95 Eu 0.66138 0.61446 0.99884 0.0
N96 N 0.71307 0.70404 0.9928 0.0
C97 C 0.7144 0.73171 0.95581 0.0
C98 C 0.78006 0.80918 0.99099 0.0
C99 C 0.74671 0.78478 0.95503 0.0
H100 H 0.68552 0.57397 0.09492 0.0
H101 H 0.74657 0.80681 0.92638 0.0
H102 H 0.84502 0.84291 0.06181 0.0
H103 H 0.7545 0.60837 0.15216 0.0
H104 H 0.69055 0.7136 0.92675 0.0
H105 H 0.45872 0.45662 0.1364 0.0
H106 H 0.8063 0.85013 0.98953 0.0
H107 H 0.49769 0.51441 0.86955 0.0
H108 H 0.50533 0.53217 0.08864 0.0
H109 H 0.45372 0.43129 0.83093 0.0
H110 H 0.85025 0.7891 0.1205 0.0
H111 H 0.41166 0.37037 0.10197 0.0
H112 H 0.38635 0.31568 0.03269 0.0
H113 H 0.81781 0.70015 0.15346 0.0
H114 H 0.38683 0.30874 0.9502 0.0
N115 N 0.48736 0.48998 0.02706 0.0
C116 C 0.48623 0.49513 0.0728 0.0
C117 C 0.43239 0.40364 0.08061 0.0
C118 C 0.43284 0.3985 0.03374 0.0
C119 C 0.4591 0.45219 0.10019 0.0
C120 C 0.46036 0.44304 0.0073 0.0
H121 H 0.41184 0.35125 0.87507 0.0
N122 N 0.4869 0.48264 0.93569 0.0
C123 C 0.45615 0.43281 0.86738 0.0
C124 C 0.46069 0.43921 0.96057 0.0
C125 C 0.48222 0.48 0.8896 0.0
C126 C 0.4323 0.38782 0.89241 0.0
C127 C 0.43341 0.3906 0.93949 0.0
O128 O 0.47643 0.58176 0.94215 0.0
O129 O 0.59911 0.6369 0.98626 0.0
O130 O 0.62915 0.61893 0.06589 0.0
O131 O 0.54961 0.60927 0.04558 0.0
O132 O 0.55489 0.62446 0.92906 0.0
O133 O 0.45207 0.54422 0.00576 0.0
O134 O 0.69666 0.56718 0.00969 0.0
O135 O 0.58307 0.54399 0.00847 0.0
O136 O 0.57252 0.55569 0.91422 0.0
O137 O 0.65479 0.62306 0.92554 0.0
O138 O 0.63833 0.53357 0.97863 0.0
O139 O 0.7339 0.63357 0.96574 0.0
C140 C 0.5923 0.65951 0.95254 0.0
C141 C 0.38764 0.52086 0.94842 0.0
C142 C 0.29307 0.47358 0.94707 0.0
C143 C 0.34015 0.505 0.97022 0.0
C144 C 0.29432 0.45493 0.90396 0.0
C145 C 0.38672 0.50337 0.90419 0.0
C146 C 0.34079 0.46945 0.88293 0.0
C147 C 0.58846 0.62327 0.07525 0.0
C148 C 0.43799 0.55818 0.96952 0.0
C149 C 0.4074 0.34629 0.96587 0.0
C150 C 0.40699 0.35023 0.01282 0.0
C151 C 0.59212 0.51066 0.99192 0.0
C152 C 0.7858 0.60501 0.00376 0.0
C153 C 0.79697 0.56466 0.00563 0.0
C154 C 0.84218 0.57205 0.02696 0.0
C155 C 0.87353 0.61873 0.04912 0.0
C156 C 0.82046 0.65273 0.02259 0.0
C157 C 0.86339 0.65909 0.04616 0.0
C158 C 0.62076 0.58664 0.89991 0.0
C159 C 0.73647 0.59549 0.98475 0.0
H160 H 0.33971 0.51979 0.00347 0.0
H161 H 0.25908 0.4311 0.88549 0.0
H162 H 0.42149 0.51729 0.88503 0.0
H163 H 0.34117 0.45621 0.84903 0.0
H164 H 0.771 0.52792 0.99022 0.0
H165 H 0.90609 0.62402 0.06857 0.0
H166 H 0.81395 0.68481 0.01987 0.0
H167 H 0.88887 0.69542 0.06227 0.0
Eu168 Eu 0.47549 0.98561 0.975 0.0
C169 C 0.33979 0.05152 0.09235 0.0
C170 C 0.2557 1.0083 0.05701 0.0
C171 C 0.26485 0.03967 0.13366 0.0
C172 C 0.30923 0.02751 0.05482 0.0
C173 C 0.31782 0.05861 0.13183 0.0
C174 C 0.23374 1.01375 0.09676 0.0
C175 C 0.40281 0.10914 0.16301 0.0
N176 N 0.39135 0.07147 0.0892 0.0
C177 C 0.42305 0.1016 0.12331 0.0
C178 C 0.34996 0.08703 0.16754 0.0
Eu179 Eu 0.42259 0.06093 0.01882 0.0
N180 N 0.33177 0.02557 0.0156 0.0
C181 C 0.30277 1.00808 0.9772 0.0
C182 C 0.22584 0.98633 0.0185 0.0
C183 C 0.24965 0.98691 0.97826 0.0
H184 H 0.46415 0.12081 0.12008 0.0
H185 H 0.22728 0.97244 0.9476 0.0
H186 H 0.19289 0.99979 0.09871 0.0
H187 H 0.42805 0.13313 0.18967 0.0
H188 H 0.31965 1.01179 0.94491 0.0
H189 H 0.6116 1.00646 0.10572 0.0
H190 H 0.18471 0.97099 0.01897 0.0
H191 H 0.49293 0.99982 0.86177 0.0
H192 H 0.52859 0.99036 0.07535 0.0
H193 H 0.56458 0.03518 0.80774 0.0
H194 H 0.2477 0.04647 0.16284 0.0
H195 H 0.68618 0.03779 0.05512 0.0
H196 H 0.72491 0.07161 0.97935 0.0
H197 H 0.33456 0.09396 0.19798 0.0
H198 H 0.71281 0.08345 0.89925 0.0
N199 N 0.55608 1.01437 0.00931 0.0
C200 C 0.56113 1.00545 0.05358 0.0
C201 C 0.65034 0.03294 0.04218 0.0
C202 C 0.64551 0.04367 0.9971 0.0
C203 C 0.60815 1.01448 0.07071 0.0
C204 C 0.59694 0.03316 0.98109 0.0
H205 H 0.65362 0.07104 0.83524 0.0
N206 N 0.54144 0.02318 0.92001 0.0
C207 C 0.57234 0.03746 0.8436 0.0
C208 C 0.58979 0.03929 0.9356 0.0
C209 C 0.53195 1.01848 0.87441 0.0
C210 C 0.6225 0.05764 0.85928 0.0
C211 C 0.63154 0.05676 0.90548 0.0
O212 O 0.46275 0.92064 0.93176 0.0
O213 O 0.40044 0.97716 0.99693 0.0
O214 O 0.41511 1.0165 0.07965 0.0
O215 O 0.44069 0.96088 0.05006 0.0
O216 O 0.40205 0.94495 0.93525 0.0
O217 O 0.49151 0.9255 0.99908 0.0
O218 O 0.41344 0.129 0.02708 0.0
O219 O 0.49567 0.06238 0.99963 0.0
O220 O 0.47685 0.04524 0.92221 0.0
O221 O 0.40499 0.04383 0.94556 0.0
O222 O 0.49392 0.0892 0.06244 0.0
O223 O 0.47189 0.13322 0.98414 0.0
C224 C 0.37176 0.94648 0.96539 0.0
C225 C 0.52141 0.88901 0.94383 0.0
C226 C 0.56503 0.83798 0.9448 0.0
C227 C 0.52561 0.84702 0.96078 0.0
C228 C 0.60112 0.8724 0.91415 0.0
C229 C 0.55584 0.91939 0.91024 0.0
C230 C 0.59623 0.9125 0.89675 0.0
C231 C 0.4193 0.97555 0.08282 0.0
C232 C 0.48185 0.90157 0.96053 0.0
C233 C 0.68039 0.06972 0.92188 0.0
C234 C 0.68726 0.06281 0.96747 0.0
C235 C 0.523 0.08446 0.03359 0.0
C236 C 0.49166 0.20827 0.02444 0.0
C237 C 0.49126 0.25365 0.014 0.0
C238 C 0.5308 0.30115 0.03022 0.0
C239 C 0.56946 0.30267 0.05794 0.0
C240 C 0.53066 0.21101 0.05258 0.0
C241 C 0.56901 0.25773 0.06937 0.0
C242 C 0.44156 0.05936 0.91598 0.0
C243 C 0.45367 0.15905 0.00374 0.0
H244 H 0.49779 0.8209 0.98478 0.0
H245 H 0.63149 0.86629 0.90155 0.0
H246 H 0.55123 0.94801 0.89337 0.0
H247 H 0.62286 0.93737 0.87144 0.0
H248 H 0.46165 0.25238 0.99217 0.0
H249 H 0.60025 0.33888 0.07053 0.0
H250 H 0.53259 0.1776 0.06129 0.0
H251 H 0.59896 0.25915 0.09072 0.0
Eu252 Eu 0.73268 0.84692 0.31248 0.0
C253 C 0.67378 0.62908 0.40057 0.0
C254 C 0.73526 0.60858 0.36816 0.0
C255 C 0.69005 0.56585 0.43647 0.0
C256 C 0.70863 0.6362 0.36719 0.0
C257 C 0.66332 0.593 0.43502 0.0
C258 C 0.72613 0.57378 0.40318 0.0
C259 C 0.59837 0.61067 0.46288 0.0
N260 N 0.64866 0.65603 0.39844 0.0
C261 C 0.61029 0.64632 0.42835 0.0
C262 C 0.62522 0.58408 0.4663 0.0
Eu263 Eu 0.66721 0.71184 0.33614 0.0
N264 N 0.71628 0.66977 0.33355 0.0
C265 C 0.74938 0.67651 0.29943 0.0
C266 C 0.77015 0.61654 0.33376 0.0
C267 C 0.77713 0.65064 0.29916 0.0
H268 H 0.58775 0.66497 0.42537 0.0
H269 H 0.8037 0.6569 0.27209 0.0
H270 H 0.74632 0.55238 0.40453 0.0
H271 H 0.56794 0.60315 0.48639 0.0
H272 H 0.75507 0.70197 0.2723 0.0
H273 H 0.75005 0.94523 0.4738 0.0
H274 H 0.79149 0.59627 0.3334 0.0
H275 H 0.69018 0.8692 0.21435 0.0
H276 H 0.77338 0.90175 0.41686 0.0
H277 H 0.63345 0.9006 0.18803 0.0
H278 H 0.6827 0.53824 0.46293 0.0
H279 H 0.68463 0.96957 0.4566 0.0
H280 H 0.62664 0.97605 0.39971 0.0
H281 H 0.61556 0.55574 0.49239 0.0
H282 H 0.59504 0.96417 0.32165 0.0
N283 N 0.71529 0.89223 0.36973 0.0
C284 C 0.74163 0.90777 0.40973 0.0
C285 C 0.69329 0.94844 0.43185 0.0
C286 C 0.67068 0.93778 0.38906 0.0
C287 C 0.72991 0.93444 0.44181 0.0
C288 C 0.6832 0.90997 0.35801 0.0
H289 H 0.59759 0.93654 0.24256 0.0
N290 N 0.68002 0.8788 0.28423 0.0
C291 C 0.64104 0.90056 0.22373 0.0
C292 C 0.66515 0.90311 0.31406 0.0
C293 C 0.67201 0.88123 0.23909 0.0
C294 C 0.62122 0.92111 0.25454 0.0
C295 C 0.63451 0.92411 0.30011 0.0
O296 O 0.77921 0.89926 0.2597 0.0
O297 O 0.74875 0.78337 0.32539 0.0
O298 O 0.70516 0.73703 0.40182 0.0
O299 O 0.75415 0.82439 0.38462 0.0
O300 O 0.78337 0.83087 0.26987 0.0
O301 O 0.80079 0.92191 0.33019 0.0
O302 O 0.584 0.67606 0.32694 0.0
O303 O 0.65799 0.78042 0.32319 0.0
O304 O 0.68313 0.79608 0.24979 0.0
O305 O 0.68911 0.72527 0.26434 0.0
O306 O 0.62419 0.73931 0.38062 0.0
O307 O 0.62444 0.64355 0.29369 0.0
C308 C 0.78302 0.79568 0.29462 0.0
C309 C 0.85466 0.98219 0.27122 0.0
C310 C 0.91388 0.07492 0.27456 0.0
C311 C 0.87209 0.03017 0.29273 0.0
C312 C 0.93745 0.07086 0.23508 0.0
C313 C 0.87893 0.97965 0.23172 0.0
C314 C 0.92003 0.02368 0.21387 0.0
C315 C 0.74081 0.78361 0.41227 0.0
C316 C 0.81014 0.93455 0.28784 0.0
C317 C 0.6194 0.94881 0.33163 0.0
C318 C 0.63739 0.95557 0.37604 0.0
C319 C 0.63056 0.77727 0.35628 0.0
C320 C 0.54028 0.58677 0.32068 0.0
C321 C 0.48788 0.57282 0.3205 0.0
C322 C 0.45075 0.5257 0.33929 0.0
C323 C 0.4673 0.49457 0.36015 0.0
C324 C 0.55507 0.55353 0.34002 0.0
C325 C 0.51881 0.50804 0.36005 0.0
C326 C 0.6753 0.7499 0.2367 0.0
C327 C 0.57963 0.63749 0.30399 0.0
H328 H 0.85319 0.03275 0.32289 0.0
H329 H 0.96969 0.10455 0.22063 0.0
H330 H 0.86611 0.94338 0.21459 0.0
H331 H 0.9385 0.02123 0.18343 0.0
H332 H 0.47606 0.5984 0.30602 0.0
H333 H 0.44034 0.4601 0.37736 0.0
H334 H 0.59486 0.56315 0.34063 0.0
H335 H 0.53075 0.48334 0.37603 0.0
Eu336 Eu 0.21981 0.90126 0.32942 0.0
C337 C 0.43946 0.05208 0.3957 0.0
C338 C 0.48871 0.11039 0.33538 0.0
C339 C 0.5128 0.13594 0.41328 0.0
C340 C 0.44759 0.06263 0.34959 0.0
C341 C 0.47293 0.08843 0.4277 0.0
C342 C 0.52059 0.1469 0.36734 0.0
C343 C 0.42747 0.0278 0.48679 0.0
N344 N 0.39993 1.00632 0.4095 0.0
C345 C 0.39551 0.9929 0.4544 0.0
C346 C 0.46618 0.07586 0.47348 0.0
Eu347 Eu 0.3517 0.94834 0.35025 0.0
N348 N 0.41585 0.02705 0.31868 0.0
C349 C 0.42396 0.03754 0.27338 0.0
C350 C 0.49713 0.12037 0.28929 0.0
C351 C 0.46489 0.08367 0.25828 0.0
H352 H 0.36553 0.95563 0.46542 0.0
H353 H 0.47135 0.09101 0.22252 0.0
H354 H 0.55192 0.18371 0.3568 0.0
H355 H 0.42233 1.01736 0.52195 0.0
H356 H 0.39909 1.01202 0.24771 0.0
H357 H 0.17378 0.82807 0.50301 0.0
H358 H 0.52847 0.15636 0.27725 0.0
H359 H 0.20041 0.82873 0.23177 0.0
H360 H 0.22713 0.88919 0.44559 0.0
H361 H 0.14683 0.74067 0.20787 0.0
H362 H 0.53831 0.16433 0.43749 0.0
H363 H 0.10467 0.74185 0.48071 0.0
H364 H 0.0592 0.67769 0.41956 0.0
H365 H 0.4915 0.10253 0.49873 0.0
H366 H 0.05376 0.65331 0.33982 0.0
N367 N 0.18588 0.84145 0.38974 0.0
C368 C 0.19547 0.85344 0.43456 0.0
C369 C 0.12719 0.76939 0.45495 0.0
C370 C 0.11965 0.75602 0.40927 0.0
C371 C 0.16598 0.81802 0.46766 0.0
C372 C 0.15023 0.79314 0.37695 0.0
H373 H 0.08776 0.67564 0.26162 0.0
N374 N 0.1787 0.81523 0.30153 0.0
C375 C 0.14679 0.75093 0.24287 0.0
C376 C 0.14697 0.77947 0.33174 0.0
C377 C 0.17882 0.80138 0.25737 0.0
C378 C 0.11312 0.71449 0.27318 0.0
C379 C 0.11306 0.72836 0.31817 0.0
O380 O 0.16485 0.89306 0.27647 0.0
O381 O 0.29736 0.96967 0.31033 0.0
O382 O 0.3224 0.98147 0.40326 0.0
O383 O 0.236 0.95263 0.39331 0.0
O384 O 0.24107 0.9832 0.33567 0.0
O385 O 0.14607 0.89657 0.34548 0.0
O386 O 0.37377 0.91018 0.39994 0.0
O387 O 0.27237 0.87926 0.36148 0.0
O388 O 0.26323 0.90277 0.2617 0.0
O389 O 0.34951 0.93411 0.27737 0.0
O390 O 0.32577 0.86765 0.32753 0.0
O391 O 0.42184 0.94323 0.34105 0.0
C392 C 0.28602 1.00541 0.31772 0.0
C393 C 0.07554 0.8463 0.29641 0.0
C394 C 0.98191 0.80666 0.30339 0.0
C395 C 0.03193 0.84931 0.3101 0.0
C396 C 0.97639 0.76035 0.28721 0.0
C397 C 0.06698 0.80185 0.27371 0.0
C398 C 1.0187 0.75838 0.2715 0.0
C399 C 0.28024 0.98109 0.41531 0.0
C400 C 0.12936 0.88915 0.30411 0.0
C401 C 0.08052 0.69242 0.34987 0.0
C402 C 0.08359 0.70632 0.39526 0.0
C403 C 0.28046 0.84525 0.34369 0.0
C404 C 0.41845 0.86878 0.37443 0.0
C405 C 0.46614 0.872 0.36626 0.0
C406 C 0.46979 0.82698 0.36665 0.0
C407 C 0.42583 0.77915 0.37336 0.0
C408 C 0.37581 0.82044 0.38353 0.0
C409 C 0.37902 0.77598 0.38182 0.0
C410 C 0.31093 0.91441 0.24897 0.0
C411 C 0.41342 0.91543 0.37741 0.0
H412 H 0.03662 0.88497 0.32344 0.0
H413 H 0.93859 0.72722 0.28229 0.0
H414 H 0.0972 0.80109 0.25606 0.0
H415 H 1.01372 0.72393 0.25523 0.0
H416 H 0.50016 0.90895 0.36101 0.0
H417 H 0.42821 0.74436 0.37342 0.0
H418 H 0.34012 0.81706 0.39334 0.0
H419 H 0.34541 0.73915 0.38839 0.0
Eu420 Eu 0.16802 0.3146 0.30937 0.0
C421 C 0.05384 0.39641 0.42295 0.0
C422 C 0.9656 0.34002 0.40092 0.0
C423 C 0.98509 0.38053 0.47456 0.0
C424 C 1.01854 0.36372 0.39182 0.0
C425 C 0.03759 0.4072 0.46383 0.0
C426 C 0.94918 0.34654 0.44335 0.0
C427 C 0.12549 0.4732 0.47792 0.0
N428 N 0.10406 0.42148 0.41119 0.0
C429 C 0.13969 0.46075 0.43729 0.0
C430 C 0.07443 0.4462 0.49127 0.0
Eu431 Eu 0.12528 0.40129 0.34016 0.0
N432 N 0.03573 0.36079 0.35041 0.0
C433 C 1.00247 0.34221 0.3151 0.0
C434 C 0.9309 0.3144 0.36583 0.0
C435 C 0.94949 0.31728 0.32227 0.0
H436 H 0.17913 0.48288 0.42683 0.0
H437 H 0.9231 0.3019 0.29412 0.0
H438 H 0.90868 0.32815 0.45125 0.0
H439 H 0.15385 0.50384 0.49879 0.0
H440 H 1.01708 0.34904 0.28137 0.0
H441 H 0.25379 0.31168 0.47315 0.0
H442 H 0.88989 0.29603 0.37128 0.0
H443 H 0.22585 0.35116 0.20596 0.0
H444 H 0.18485 0.29738 0.42276 0.0
H445 H 0.31053 0.38327 0.17391 0.0
H446 H 0.97116 0.38734 0.50572 0.0
H447 H 0.34115 0.34444 0.4438 0.0
H448 H 0.39891 0.36864 0.37788 0.0
H449 H 0.06457 0.45667 0.52262 0.0
H450 H 0.41476 0.38924 0.29757 0.0
N451 N 0.2323 0.33152 0.36481 0.0
C452 C 0.22267 0.31667 0.40908 0.0
C453 C 0.31106 0.34103 0.42138 0.0
C454 C 0.32035 0.35254 0.37559 0.0
C455 C 0.26195 0.32285 0.43812 0.0
C456 C 0.28014 0.34826 0.34767 0.0
H457 H 0.38282 0.396 0.22215 0.0
N458 N 0.24992 0.35417 0.27468 0.0
C459 C 0.3053 0.37763 0.20997 0.0
C460 C 0.28894 0.35929 0.3017 0.0
C461 C 0.25724 0.36124 0.22902 0.0
C462 C 0.3458 0.38424 0.23723 0.0
C463 C 0.33788 0.37441 0.28339 0.0
O464 O 0.15093 0.25187 0.26215 0.0
O465 O 0.09492 0.31322 0.32613 0.0
O466 O 0.12705 0.36905 0.40664 0.0
O467 O 0.12085 0.29423 0.37988 0.0
O468 O 0.09758 0.27752 0.26647 0.0
O469 O 0.18347 0.25154 0.32644 0.0
O470 O 0.17488 0.4847 0.33341 0.0
O471 O 0.19435 0.39649 0.31655 0.0
O472 O 0.16934 0.36357 0.24688 0.0
O473 O 0.10902 0.38621 0.26648 0.0
O474 O 0.20495 0.44326 0.37088 0.0
O475 O 0.09748 0.44869 0.3086 0.0
C476 C 0.06706 0.28237 0.29402 0.0
C477 C 0.2066 0.21615 0.26398 0.0
C478 C 0.25036 0.16524 0.25815 0.0
C479 C 0.21741 0.17854 0.28176 0.0
C480 C 0.27318 0.19078 0.21797 0.0
C481 C 0.2286 0.23883 0.22245 0.0
C482 C 0.26233 0.22716 0.20033 0.0
C483 C 0.11348 0.32116 0.41267 0.0
C484 C 0.17071 0.23016 0.28677 0.0
C485 C 0.37724 0.37804 0.31123 0.0
C486 C 0.36829 0.36657 0.357 0.0
C487 C 0.22745 0.42704 0.34445 0.0
C488 C 0.13144 0.53132 0.34229 0.0
C489 C 0.16935 0.58374 0.34033 0.0
C490 C 0.16119 0.62141 0.36134 0.0
C491 C 0.11646 0.60512 0.38695 0.0
C492 C 0.08681 0.51671 0.3675 0.0
C493 C 0.07985 0.55334 0.39017 0.0
C494 C 0.13898 0.38294 0.23638 0.0
C495 C 0.13848 0.49197 0.31844 0.0
H496 H 0.19969 0.15917 0.31294 0.0
H497 H 0.29861 0.18149 0.19955 0.0
H498 H 0.21895 0.26498 0.20623 0.0
H499 H 0.27931 0.24564 0.16869 0.0
H500 H 0.20415 0.59536 0.32127 0.0
H501 H 0.1099 0.63261 0.4048 0.0
H502 H 0.05717 0.4769 0.36982 0.0
H503 H 0.04559 0.54157 0.40997 0.0
Eu504 Eu 0.40754 0.20135 0.6546 0.0
C505 C 0.34696 0.99229 0.73533 0.0
C506 C 0.4011 0.96614 0.69632 0.0
C507 C 0.3703 0.93423 0.7715 0.0
C508 C 0.37436 0.99365 0.69721 0.0
C509 C 0.34312 0.96097 0.77197 0.0
C510 C 0.39967 0.93726 0.73394 0.0
C511 C 0.28237 0.98119 0.80614 0.0
N512 N 0.3218 0.01936 0.73573 0.0
C513 C 0.28785 1.01245 0.76936 0.0
C514 C 0.31041 0.95563 0.80734 0.0
Eu515 Eu 0.32825 0.06544 0.6696 0.0
N516 N 0.37437 0.02108 0.66085 0.0
C517 C 0.39944 0.02151 0.62228 0.0
C518 C 0.42828 0.96808 0.65753 0.0
C519 C 0.42732 0.99577 0.62035 0.0
H520 H 0.26568 0.03177 0.76781 0.0
H521 H 0.44853 0.99761 0.59034 0.0
H522 H 0.42019 0.91614 0.73389 0.0
H523 H 0.25612 0.97628 0.83311 0.0
H524 H 0.40014 0.0432 0.5932 0.0
H525 H 0.35295 0.26094 0.81102 0.0
H526 H 0.44981 0.94803 0.65581 0.0
H527 H 0.40128 0.23489 0.54657 0.0
H528 H 0.37871 0.21017 0.76651 0.0
H529 H 0.37521 0.28861 0.5055 0.0
H530 H 0.36824 0.9105 0.79976 0.0
H531 H 0.33313 0.32239 0.77416 0.0
H532 H 0.32443 0.36212 0.70335 0.0
H533 H 0.30525 0.92992 0.83448 0.0
H534 H 0.32689 0.36692 0.62088 0.0
N535 N 0.37284 0.24 0.70269 0.0
C536 C 0.36991 0.23567 0.74871 0.0
C537 C 0.34375 0.29926 0.75373 0.0
C538 C 0.34602 0.30339 0.70676 0.0
C539 C 0.35507 0.26477 0.77467 0.0
C540 C 0.36043 0.27262 0.68162 0.0
H541 H 0.34373 0.33851 0.54714 0.0
N542 N 0.37642 0.24612 0.61087 0.0
C543 C 0.37044 0.28468 0.54172 0.0
C544 C 0.36213 0.27562 0.6347 0.0
C545 C 0.38366 0.25277 0.56521 0.0
C546 C 0.35315 0.31307 0.56537 0.0
C547 C 0.35003 0.30981 0.61239 0.0
O548 O 0.47001 0.24543 0.60715 0.0
O549 O 0.40577 0.12657 0.64072 0.0
O550 O 0.36831 0.09564 0.73596 0.0
O551 O 0.42611 0.18353 0.72677 0.0
O552 O 0.46922 0.18515 0.67416 0.0
O553 O 0.46599 0.28073 0.67089 0.0
O554 O 0.24577 0.0278 0.67952 0.0
O555 O 0.33405 0.14303 0.68118 0.0
O556 O 0.36239 0.15727 0.58771 0.0
O557 O 0.34221 0.07301 0.59666 0.0
O558 O 0.26672 0.08655 0.65518 0.0
O559 O 0.27714 0.99109 0.63752 0.0
C560 C 0.45039 0.13988 0.65722 0.0
C561 C 0.53563 0.3352 0.61965 0.0
C562 C 0.58852 0.42921 0.62065 0.0
C563 C 0.54489 0.38369 0.63552 0.0
C564 C 0.62247 0.42537 0.59048 0.0
C565 C 0.57029 0.33301 0.5894 0.0
C566 C 0.61343 0.37776 0.57511 0.0
C567 C 0.40612 0.13983 0.75051 0.0
C568 C 0.48915 0.28668 0.63236 0.0
C569 C 0.33617 0.3405 0.63751 0.0
C570 C 0.3346 0.33761 0.68449 0.0
C571 C 0.29116 0.1339 0.66562 0.0
C572 C 0.19663 0.93891 0.67445 0.0
C573 C 0.14452 0.92553 0.67205 0.0
C574 C 0.10663 0.88121 0.69379 0.0
C575 C 0.12219 0.8523 0.71975 0.0
C576 C 0.21071 0.90795 0.6988 0.0
C577 C 0.17359 0.86508 0.72167 0.0
C578 C 0.34268 0.109 0.57205 0.0
C579 C 0.23573 0.98786 0.65521 0.0
H580 H 0.51846 0.38606 0.65886 0.0
H581 H 0.65663 0.45956 0.57919 0.0
H582 H 0.56408 0.2965 0.57677 0.0
H583 H 0.64009 0.37553 0.55203 0.0
H584 H 0.1335 0.94977 0.65375 0.0
H585 H 0.09461 0.82042 0.73943 0.0
H586 H 0.25043 0.91761 0.70115 0.0
H587 H 0.18479 0.84212 0.74159 0.0
Eu588 Eu 0.87999 0.24394 0.6392 0.0
C589 C 0.08146 0.36799 0.7641 0.0
C590 C 0.11953 0.45632 0.73984 0.0
C591 C 0.14161 0.43706 0.81319 0.0
C592 C 0.08679 0.40339 0.73195 0.0
C593 C 0.10958 0.38449 0.80482 0.0
C594 C 0.14661 0.47293 0.78072 0.0
C595 C 0.07551 0.29594 0.82503 0.0
N596 N 0.05045 0.31731 0.75471 0.0
C597 C 0.04834 0.28131 0.78434 0.0
C598 C 0.10616 0.34771 0.83533 0.0
Eu599 Eu 1.00945 0.29655 0.68204 0.0
N600 N 0.06066 0.38617 0.69256 0.0
C601 C 0.066 0.4198 0.65967 0.0
C602 C 0.12428 0.491 0.70626 0.0
C603 C 0.09731 0.47256 0.66588 0.0
H604 H 1.0271 0.24095 0.77708 0.0
H605 H 0.10074 0.49884 0.63945 0.0
H606 H 0.17174 0.51339 0.78743 0.0
H607 H 0.07367 0.26715 0.84802 0.0
H608 H 0.04585 0.40582 0.62886 0.0
H609 H 0.77434 0.11518 0.77645 0.0
H610 H 0.14881 0.53192 0.71106 0.0
H611 H 0.87321 0.22021 0.52615 0.0
H612 H 0.84237 0.19463 0.7428 0.0
H613 H 0.83264 0.14636 0.47482 0.0
H614 H 0.16321 0.45032 0.84441 0.0
H615 H 0.72234 0.04003 0.72791 0.0
H616 H 0.70688 0.9986 0.6515 0.0
H617 H 0.12853 0.35897 0.86607 0.0
H618 H 0.7266 1.00581 0.57071 0.0
N619 N 0.8297 0.16531 0.67638 0.0
C620 C 0.82036 0.16225 0.72154 0.0
C621 C 0.75311 0.07455 0.71315 0.0
C622 C 0.76424 0.07706 0.66708 0.0
C623 C 0.78194 0.11704 0.74064 0.0
C624 C 0.80305 0.12383 0.64922 0.0
H625 H 0.77449 0.05997 0.50495 0.0
N626 N 0.84768 0.17518 0.58623 0.0
C627 C 0.82769 0.14052 0.51088 0.0
C628 C 0.81333 0.12849 0.60322 0.0
C629 C 0.85215 0.18216 0.5404 0.0
C630 C 0.7947 0.09194 0.528 0.0
C631 C 0.78564 0.08579 0.57441 0.0
O632 O 0.82892 0.25976 0.59742 0.0
O633 O 0.9465 0.31791 0.66132 0.0
O634 O 0.97643 0.31001 0.74286 0.0
O635 O 0.89335 0.27989 0.71505 0.0
O636 O 0.91187 0.3171 0.60011 0.0
O637 O 0.80312 0.22639 0.66289 0.0
O638 O 0.04149 0.24569 0.67298 0.0
O639 O 0.9382 0.22472 0.65974 0.0
O640 O 0.93722 0.24763 0.58224 0.0
O641 O 1.01225 0.31417 0.60894 0.0
O642 O 0.9728 0.21992 0.7175 0.0
O643 O 0.08379 0.32349 0.64954 0.0
C644 C 0.94363 0.34695 0.63061 0.0
C645 C 0.73829 0.20165 0.60606 0.0
C646 C 0.64361 0.15806 0.60639 0.0
C647 C 0.69182 0.194 0.62568 0.0
C648 C 0.64249 0.12888 0.56906 0.0
C649 C 0.7349 0.1738 0.56694 0.0
C650 C 0.68778 0.13689 0.54944 0.0
C651 C 0.9304 0.3037 0.74709 0.0
C652 C 0.79005 0.23894 0.62515 0.0
C653 C 0.74816 0.03885 0.59239 0.0
C654 C 0.73698 0.03472 0.63843 0.0
C655 C 0.93529 0.19445 0.6905 0.0
C656 C 0.13098 0.28612 0.6794 0.0
C657 C 0.14534 0.24855 0.67262 0.0
C658 C 0.18921 0.25299 0.69441 0.0
C659 C 0.21586 0.29318 0.72535 0.0
C660 C 0.15993 0.32715 0.70894 0.0
C661 C 0.20148 0.33007 0.73235 0.0
C662 C 0.98716 0.28174 0.57638 0.0
C663 C 0.08482 0.28133 0.65715 0.0
H664 H 0.69312 0.2165 0.65474 0.0
H665 H 0.60624 0.10114 0.55394 0.0
H666 H 0.76864 0.18113 0.54899 0.0
H667 H 0.68641 0.11534 0.51968 0.0
H668 H 0.12336 0.21677 0.64976 0.0
H669 H 0.24812 0.29617 0.744 0.0
H670 H 0.15041 0.35695 0.71416 0.0
H671 H 0.22289 0.36128 0.75579 0.0
Eu672 Eu 0.83407 0.67592 0.65676 0.0
C673 C 0.7029 0.75912 0.75252 0.0
C674 C 0.62037 0.72585 0.71525 0.0
C675 C 0.63452 0.76648 0.78878 0.0
C676 C 0.67146 0.73589 0.71545 0.0
C677 C 0.68434 0.7738 0.78994 0.0
C678 C 0.60216 0.74146 0.75206 0.0
C679 C 0.76632 0.8038 0.82637 0.0
N680 N 0.75182 0.76782 0.75173 0.0
C681 C 0.78356 0.78975 0.78817 0.0
C682 C 0.71668 0.79635 0.8271 0.0
Eu683 Eu 0.77973 0.75396 0.68077 0.0
N684 N 0.6913 0.72488 0.67887 0.0
C685 C 0.66238 0.704 0.64112 0.0
C686 C 0.58979 0.70231 0.67725 0.0
C687 C 0.61095 0.69131 0.63997 0.0
H688 H 0.8221 0.79614 0.78845 0.0
H689 H 0.5882 0.67461 0.60984 0.0
H690 H 0.56344 0.73528 0.75207 0.0
H691 H 0.79174 0.82113 0.85493 0.0
H692 H 0.67967 0.6995 0.61123 0.0
H693 H 0.90756 0.70785 0.83081 0.0
H694 H 0.55029 0.69376 0.67587 0.0
H695 H 0.89989 0.70791 0.5583 0.0
H696 H 0.84704 0.70096 0.77236 0.0
H697 H 0.98594 0.73069 0.53288 0.0
H698 H 0.62074 0.78016 0.81619 0.0
H699 H 0.99173 0.71844 0.80955 0.0
H700 H 0.0531 0.72736 0.74874 0.0
H701 H 0.70359 0.80803 0.85644 0.0
H702 H 0.07593 0.73808 0.66845 0.0
N703 N 0.8937 0.70311 0.7175 0.0
C704 C 0.88218 0.70311 0.76203 0.0
C705 C 0.96475 0.71466 0.78346 0.0
C706 C 0.97756 0.71766 0.73783 0.0
C707 C 0.91719 0.70833 0.79559 0.0
C708 C 0.9413 0.71297 0.70513 0.0
H709 H 0.05212 0.74159 0.58828 0.0
N710 N 0.91847 0.71405 0.62853 0.0
C711 C 0.97773 0.72817 0.56861 0.0
C712 C 0.95404 0.71874 0.65953 0.0
C713 C 0.92921 0.71699 0.58343 0.0
C714 C 1.01482 0.73387 0.59996 0.0
C715 C 1.00307 0.7285 0.64593 0.0
O716 O 0.83591 0.62067 0.61018 0.0
O717 O 0.75786 0.66947 0.66401 0.0
O718 O 0.74974 0.70016 0.73931 0.0
O719 O 0.78093 0.64501 0.72276 0.0
O720 O 0.76741 0.63286 0.60908 0.0
O721 O 0.8503 0.61654 0.68161 0.0
O722 O 0.82561 0.83745 0.68268 0.0
O723 O 0.85362 0.75542 0.66476 0.0
O724 O 0.84039 0.72514 0.59347 0.0
O725 O 0.77269 0.73935 0.60626 0.0
O726 O 0.85663 0.80125 0.71676 0.0
O727 O 0.75889 0.80094 0.63923 0.0
C728 C 0.73332 0.63746 0.63184 0.0
C729 C 0.83643 0.54577 0.63534 0.0
C730 C 0.86406 0.48226 0.63549 0.0
C731 C 0.87453 0.53252 0.64329 0.0
C732 C 0.81491 0.44517 0.6205 0.0
C733 C 0.78776 0.50858 0.61993 0.0
C734 C 0.77702 0.4583 0.61287 0.0
C735 C 0.7522 0.65864 0.74802 0.0
C736 C 0.84988 0.59931 0.64113 0.0
C737 C 0.03836 0.7312 0.67837 0.0
C738 C 1.02534 0.72505 0.72409 0.0
C739 C 0.88362 0.78767 0.69328 0.0
C740 C 0.78281 0.88321 0.66983 0.0
C741 C 0.82149 0.93515 0.67019 0.0
C742 C 0.8108 0.97289 0.68604 0.0
C743 C 0.76195 0.9576 0.70357 0.0
C744 C 0.7335 0.86934 0.68509 0.0
C745 C 0.72339 0.90637 0.70246 0.0
C746 C 0.80788 0.7405 0.57942 0.0
C747 C 0.79546 0.84413 0.65563 0.0
H748 H 0.91237 0.56129 0.65489 0.0
H749 H 0.806 0.40601 0.61457 0.0
H750 H 0.75836 0.51845 0.61296 0.0
H751 H 0.73939 0.42954 0.6011 0.0
H752 H 0.85972 0.94617 0.65834 0.0
H753 H 0.75369 0.98533 0.71841 0.0
H754 H 0.70295 0.82999 0.6841 0.0
H755 H 0.68564 0.8953 0.71537 0.0
C756 C 0.19945 0.41454 0.96602 0.0
C757 C 0.24217 0.46507 0.96338 0.0
C758 C 0.18393 0.49778 0.97842 0.0
C759 C 0.13961 0.44844 0.97066 0.0
N760 N 0.10865 0.36028 0.95181 0.0
N761 N 0.27185 0.55588 0.95869 0.0
C762 C 0.14847 0.40675 0.96352 0.0
C763 C 0.23368 0.50699 0.96776 0.0
N764 N 0.20772 0.37405 0.97002 0.0
N765 N 0.17922 0.53649 0.99664 0.0
H766 H 0.30844 0.56526 0.94809 0.0
H767 H 0.26557 0.58694 0.95726 0.0
H768 H 0.14399 0.5316 0.00431 0.0
H769 H 0.21022 0.57074 0.00824 0.0
H770 H 0.17838 0.33666 0.97579 0.0
H771 H 0.24461 0.37903 0.97219 0.0
H772 H 0.11231 0.32854 0.94374 0.0
H773 H 0.07314 0.35632 0.94508 0.0
C774 C 0.55136 0.7542 0.91671 0.0
C775 C 0.56637 0.78954 0.95283 0.0
C776 C 0.60691 0.74531 0.98997 0.0
C777 C 0.59411 0.71111 0.95233 0.0
N778 N 0.57256 0.69961 0.87314 0.0
N779 N 0.61018 0.82014 0.02384 0.0
C780 C 0.57191 0.72087 0.91367 0.0
C781 C 0.59476 0.78553 0.98924 0.0
N782 N 0.5181 0.7533 0.88471 0.0
N783 N 0.63241 0.74256 0.02659 0.0
H784 H 0.60101 0.84933 0.02511 0.0
H785 H 0.63154 0.8191 0.05123 0.0
H786 H 0.64367 0.71536 0.03087 0.0
H787 H 0.64367 0.71536 0.03087 0.0
H788 H 0.50184 0.72522 0.85975 0.0
H789 H 0.5025 0.77746 0.88611 0.0
H790 H 0.5549 0.70259 0.84402 0.0
H791 H 0.59596 0.68362 0.86786 0.0
C792 C 0.3245 0.85829 0.00426 0.0
C793 C 0.32411 0.89447 0.97318 0.0
C794 C 0.24537 0.82261 0.94014 0.0
C795 C 0.24722 0.78877 0.97217 0.0
N796 N 0.27558 0.77905 0.04513 0.0
N797 N 0.27788 0.90962 0.9145 0.0
C798 C 0.281 0.80911 0.00886 0.0
C799 C 0.28175 0.87629 0.94281 0.0
N800 N 0.36921 0.86589 0.02206 0.0
N801 N 0.21146 0.80269 0.90507 0.0
H802 H 0.30836 0.94639 0.90928 0.0
H803 H 0.24445 0.90074 0.89682 0.0
H804 H 0.18356 0.7639 0.90365 0.0
H805 H 0.21217 0.82387 0.87707 0.0
H806 H 0.37231 0.84022 0.04364 0.0
H807 H 0.40266 0.89068 0.00586 0.0
H808 H 0.29856 0.79343 0.07389 0.0
H809 H 0.24484 0.74167 0.04779 0.0
C810 C 0.53495 0.38267 0.05341 0.0
C811 C 0.53418 0.35057 0.01807 0.0
C812 C 0.55838 0.42065 0.96455 0.0
C813 C 0.56625 0.45474 0.00105 0.0
N814 N 0.57463 0.46937 0.08168 0.0
N815 N 0.55246 0.34103 0.94046 0.0
C816 C 0.55774 0.43614 0.04598 0.0
C817 C 0.54711 0.36977 0.97355 0.0
N818 N 0.51441 0.36194 0.09435 0.0
N819 N 0.56187 0.43689 0.92108 0.0
H820 H 0.54526 0.30375 0.94534 0.0
H821 H 0.56827 0.35558 0.90899 0.0
H822 H 0.57142 0.4741 0.91288 0.0
H823 H 0.5505 0.41233 0.89332 0.0
H824 H 0.51067 0.38301 0.12052 0.0
H825 H 0.49632 0.32256 0.10036 0.0
H826 H 0.57409 0.45767 0.11483 0.0
H827 H 0.59333 0.50901 0.07805 0.0
C828 C 0.6081 0.12657 0.07576 0.0
C829 C 0.58063 0.11831 0.03441 0.0
C830 C 0.66288 0.16506 0.99404 0.0
C831 C 0.68977 0.17301 0.03526 0.0
N832 N 0.68837 0.17682 0.11619 0.0
N833 N 0.58462 0.14881 0.95785 0.0
C834 C 0.66238 0.15885 0.0764 0.0
C835 C 0.60873 0.14353 0.99469 0.0
N836 N 0.58322 0.10121 0.11407 0.0
N837 N 0.68833 0.17549 0.95384 0.0
H838 H 0.54565 0.13523 0.95632 0.0
H839 H 0.60427 0.17217 0.93061 0.0
H840 H 0.72764 0.18956 0.95122 0.0
H841 H 0.66971 0.16553 0.92268 0.0
H842 H 0.60237 0.10146 0.14347 0.0
H843 H 0.54403 0.0753 0.11554 0.0
H844 H 0.67019 0.17216 0.1471 0.0
H845 H 0.72802 0.20127 0.11758 0.0
C846 C 0.8911 0.48373 0.06788 0.0
C847 C 0.90745 0.47161 0.02665 0.0
C848 C 0.87347 0.51959 0.98486 0.0
C849 C 0.85838 0.53227 0.0259 0.0
N850 N 0.83828 0.5136 0.10431 0.0
N851 N 0.89347 0.46149 0.94605 0.0
C852 C 0.86273 0.51029 0.06673 0.0
C853 C 0.89233 0.48455 0.98518 0.0
N854 N 0.90399 0.47187 0.10852 0.0
N855 N 0.87161 0.54227 0.94549 0.0
H856 H 0.90317 0.43314 0.94555 0.0
H857 H 0.87846 0.46531 0.91554 0.0
H858 H 0.85938 0.56909 0.94354 0.0
H859 H 0.88628 0.53789 0.9151 0.0
H860 H 0.89956 0.48626 0.1391 0.0
H861 H 0.92287 0.45111 0.11229 0.0
H862 H 0.83483 0.49374 0.13401 0.0
H863 H 0.81662 0.532 0.10425 0.0
C864 C 0.86597 0.81864 0.33846 0.0
C865 C 0.83477 0.79928 0.29905 0.0
C866 C 0.91059 0.80673 0.26044 0.0
C867 C 0.93483 0.81129 0.30261 0.0
N868 N 0.93288 0.81807 0.3835 0.0
N869 N 0.83229 0.78127 0.21955 0.0
C870 C 0.9114 0.81546 0.34235 0.0
C871 C 0.85864 0.79517 0.25922 0.0
N872 N 0.85767 0.84784 0.36846 0.0
N873 N 0.93808 0.8157 0.22148 0.0
H874 H 0.79659 0.77813 0.2148 0.0
H875 H 0.84569 0.7706 0.19191 0.0
H876 H 0.97676 0.82601 0.22127 0.0
H877 H 0.92455 0.81869 0.1899 0.0
H878 H 0.83638 0.86478 0.35879 0.0
H879 H 0.88036 0.86407 0.39709 0.0
H880 H 0.91445 0.81735 0.4135 0.0
H881 H 0.96708 0.81745 0.38732 0.0
C882 C 0.3066 0.13634 0.29648 0.0
C883 C 0.26089 0.12341 0.2725 0.0
C884 C 0.2488 0.03705 0.2589 0.0
C885 C 0.29188 0.04829 0.28669 0.0
N886 N 0.37334 0.11598 0.31093 0.0
N887 N 0.18737 0.06114 0.23074 0.0
C888 C 0.32393 0.1001 0.29984 0.0
C889 C 0.2318 0.07361 0.25338 0.0
N890 N 0.33309 0.18308 0.31717 0.0
N891 N 0.22503 0.99097 0.23727 0.0
H892 H 0.17396 0.08689 0.22661 0.0
H893 H 0.16212 0.02486 0.21806 0.0
H894 H 0.24091 0.96723 0.23819 0.0
H895 H 0.1936 0.97829 0.2158 0.0
H896 H 0.36359 0.19262 0.33926 0.0
H897 H 0.32162 0.21057 0.31542 0.0
H898 H 0.40141 0.15419 0.31569 0.0
H899 H 0.38628 0.09005 0.31085 0.0
C900 C 1.01826 0.19016 0.3261 0.0
C901 C 1.01813 0.23088 0.30086 0.0
C902 C 0.93331 0.16597 0.27035 0.0
C903 C 0.93559 0.12713 0.29529 0.0
N904 N 0.96936 0.10608 0.35979 0.0
N905 N 0.97262 0.25477 0.24879 0.0
C906 C 0.9737 0.14109 0.32836 0.0
C907 C 0.97405 0.21801 0.27398 0.0
N908 N 0.06259 0.19554 0.34304 0.0
N909 N 0.89429 0.15189 0.23993 0.0
H910 H 1.00586 0.28773 0.23878 0.0
H911 H 0.9382 0.25148 0.23799 0.0
H912 H 0.8635 0.11437 0.23828 0.0
H913 H 0.8927 0.17639 0.21606 0.0
H914 H 0.06595 0.16609 0.35816 0.0
H915 H 0.09706 0.22666 0.3348 0.0
H916 H 0.99427 0.11567 0.38725 0.0
H917 H 0.93761 0.06925 0.36108 0.0
C918 C 0.23935 0.76401 0.39207 0.0
C919 C 0.25106 0.78745 0.3487 0.0
C920 C 0.21072 0.7014 0.31336 0.0
C921 C 0.19776 0.67812 0.35652 0.0
N922 N 0.21469 0.68713 0.43628 0.0
N923 N 0.26266 0.77697 0.26932 0.0
C924 C 0.21634 0.70952 0.39574 0.0
C925 C 0.24222 0.75562 0.31001 0.0
N926 N 0.25271 0.79392 0.42993 0.0
N927 N 0.18972 0.67259 0.27525 0.0
H928 H 0.27819 0.81571 0.26284 0.0
H929 H 0.26493 0.7561 0.24221 0.0
H930 H 0.16262 0.63373 0.27559 0.0
H931 H 0.19462 0.68813 0.24307 0.0
H932 H 0.24 0.77961 0.46213 0.0
H933 H 0.27546 0.83369 0.42911 0.0
H934 H 0.23145 0.70743 0.46579 0.0
H935 H 0.20107 0.64789 0.43947 0.0
C936 C 0.31412 0.46596 0.38219 0.0
C937 C 0.28508 0.45443 0.34147 0.0
C938 C 0.36596 0.49635 0.29837 0.0
C939 C 0.39447 0.50825 0.33923 0.0
N940 N 0.39564 0.51921 0.41967 0.0
N941 N 0.28518 0.47366 0.26225 0.0
C942 C 0.36839 0.49768 0.38101 0.0
C943 C 0.31153 0.47438 0.29998 0.0
N944 N 0.29027 0.44484 0.42209 0.0
N945 N 0.3903 0.50358 0.2579 0.0
H946 H 0.24568 0.45735 0.26156 0.0
H947 H 0.30283 0.49292 0.23266 0.0
H948 H 0.42964 0.51802 0.25496 0.0
H949 H 0.371 0.49124 0.2272 0.0
H950 H 0.31015 0.44694 0.45157 0.0
H951 H 0.25082 0.42076 0.42507 0.0
H952 H 0.37848 0.51725 0.45064 0.0
H953 H 0.43527 0.54391 0.41974 0.0
C954 C 0.53082 0.81396 0.32043 0.0
C955 C 0.51916 0.82771 0.3624 0.0
C956 C 0.58511 0.81487 0.39925 0.0
C957 C 0.59326 0.79616 0.35774 0.0
N958 N 0.56265 0.76505 0.282 0.0
N959 N 0.53231 0.8397 0.44254 0.0
C960 C 0.56347 0.79258 0.31898 0.0
C961 C 0.54588 0.82819 0.40203 0.0
N962 N 0.51006 0.8209 0.28186 0.0
N963 N 0.61569 0.82101 0.43569 0.0
H964 H 0.50594 0.85253 0.44523 0.0
H965 H 0.54525 0.83456 0.47361 0.0
H966 H 0.64469 0.81161 0.43511 0.0
H967 H 0.61542 0.8392 0.46547 0.0
H968 H 0.5211 0.81639 0.24967 0.0
H969 H 0.48587 0.83653 0.28211 0.0
H970 H 0.53697 0.75641 0.25534 0.0
H971 H 0.58301 0.74563 0.27972 0.0
C972 C 0.56602 0.12058 0.658 0.0
C973 C 0.59331 0.15244 0.62106 0.0
C974 C 0.51586 0.15523 0.59864 0.0
C975 C 0.49063 0.12938 0.63874 0.0
N976 N 0.49372 0.09105 0.70897 0.0
N977 N 0.59667 0.20658 0.55988 0.0
C978 C 0.51625 0.11269 0.6689 0.0
C979 C 0.56878 0.17155 0.59241 0.0
N980 N 0.5874 0.09741 0.68236 0.0
N981 N 0.48902 0.1645 0.56656 0.0
H982 H 0.63568 0.22004 0.5549 0.0
H983 H 0.58268 0.22597 0.54074 0.0
H984 H 0.44989 0.15053 0.56965 0.0
H985 H 0.50375 0.1807 0.53527 0.0
H986 H 0.56742 0.06923 0.70639 0.0
H987 H 0.62443 0.10408 0.67645 0.0
H988 H 0.51199 0.08261 0.73466 0.0
H989 H 0.45737 0.08443 0.7176 0.0
C990 C 0.95605 0.43471 0.60882 0.0
C991 C 0.93688 0.39326 0.63997 0.0
C992 C 0.89548 0.43463 0.68023 0.0
C993 C 0.90317 0.46658 0.64338 0.0
N994 N 0.94257 0.49918 0.57165 0.0
N995 N 0.86588 0.34693 0.69081 0.0
C996 C 0.93517 0.46827 0.60784 0.0
C997 C 0.90194 0.39192 0.67336 0.0
N998 N 0.99251 0.44095 0.57875 0.0
N999 N 0.87443 0.44015 0.719 0.0
H1000 H 0.85642 0.31425 0.67275 0.0
H1001 H 0.83826 0.34339 0.71401 0.0
H1002 H 0.86701 0.4703 0.72351 0.0
H1003 H 0.86942 0.41765 0.74739 0.0
H1004 H 1.01242 0.47424 0.5598 0.0
H1005 H 1.00401 0.41386 0.57489 0.0
H1006 H 0.95952 0.49715 0.54169 0.0
H1007 H 0.92932 0.52533 0.57106 0.0
C1008 C 0.68266 0.54848 0.66904 0.0
C1009 C 0.68423 0.58611 0.63835 0.0
C1010 C 0.60164 0.51741 0.60719 0.0
C1011 C 0.60313 0.48185 0.63748 0.0
N1012 N 0.63097 0.46947 0.70951 0.0
N1013 N 0.64246 0.6043 0.57765 0.0
C1014 C 0.63767 0.50042 0.67362 0.0
C1015 C 0.6419 0.57024 0.60812 0.0
N1016 N 0.72644 0.5534 0.68678 0.0
N1017 N 0.56318 0.49925 0.57587 0.0
H1018 H 0.67576 0.63848 0.57013 0.0
H1019 H 0.61005 0.59881 0.56025 0.0
H1020 H 0.53405 0.46087 0.57572 0.0
H1021 H 0.55894 0.5215 0.55136 0.0
H1022 H 0.72795 0.52584 0.707 0.0
H1023 H 0.76123 0.5796 0.67337 0.0
H1024 H 0.65429 0.4826 0.73818 0.0
H1025 H 0.59891 0.43288 0.7121 0.0
C1026 C 0.86602 0.0543 0.72859 0.0
C1027 C 0.85053 0.02843 0.68661 0.0
C1028 C 0.90343 0.11034 0.648 0.0
C1029 C 0.90844 0.13703 0.68904 0.0
N1030 N 0.89373 0.1332 0.76974 0.0
N1031 N 0.85328 0.03207 0.60518 0.0
C1032 C 0.89035 0.10868 0.72988 0.0
C1033 C 0.86934 0.05639 0.6459 0.0
N1034 N 0.85815 0.02669 0.76725 0.0
N1035 N 0.93281 0.13582 0.61165 0.0
H1036 H 0.82776 0.99288 0.60196 0.0
H1037 H 0.86196 0.05149 0.57456 0.0
H1038 H 0.96107 0.17434 0.61291 0.0
H1039 H 0.93385 0.11737 0.58224 0.0
H1040 H 0.87318 0.04343 0.79848 0.0
H1041 H 0.84131 0.98682 0.76721 0.0
H1042 H 0.87571 0.11391 0.7992 0.0
H1043 H 0.9097 0.17275 0.77279 0.0
C1044 C 0.97014 0.83443 0.73372 0.0
C1045 C 0.94163 0.81767 0.69254 0.0
C1046 C 1.02288 0.85042 0.6507 0.0
C1047 C 0.05078 0.86551 0.69191 0.0
N1048 N 0.05252 0.88855 0.76983 0.0
N1049 N 0.94404 0.83008 0.61194 0.0
C1050 C 1.02478 0.86266 0.73253 0.0
C1051 C 0.96898 0.83194 0.65098 0.0
N1052 N 0.94561 0.82201 0.77436 0.0
N1053 N 0.04724 0.85189 0.6114 0.0
H1054 H 0.90579 0.82046 0.61144 0.0
H1055 H 0.96245 0.84406 0.58124 0.0
H1056 H 0.08611 0.86344 0.6097 0.0
H1057 H 1.02816 0.83761 0.58087 0.0
H1058 H 0.96464 0.82714 0.80499 0.0
H1059 H 0.90601 0.80238 0.77797 0.0
H1060 H 0.03603 0.89279 0.79918 0.0
H1061 H 0.09247 0.91076 0.76969 0.0
C1062 C 0.24445 0.16499 0.71582 0.0
C1063 C 0.26359 0.16331 0.67247 0.0
C1064 C 0.22675 0.214 0.64156 0.0
C1065 C 0.20884 0.21685 0.68516 0.0
N1066 N 0.18786 0.18344 0.76054 0.0
N1067 N 0.25912 0.17289 0.59199 0.0
C1068 C 0.21409 0.18895 0.72141 0.0
C1069 C 0.2497 0.18301 0.63467 0.0
N1070 N 0.25464 0.14291 0.75161 0.0
N1071 N 0.22515 0.24353 0.60722 0.0
H1072 H 0.27992 0.15462 0.58545 0.0
H1073 H 0.24384 0.17996 0.56314 0.0
H1074 H 0.21141 0.26897 0.61092 0.0
H1075 H 0.24185 0.24667 0.57582 0.0
H1076 H 0.24833 0.14871 0.78506 0.0
H1077 H 0.27182 0.12044 0.74791 0.0
H1078 H 0.18608 0.16006 0.7871 0.0
H1079 H 0.1635 0.19851 0.76481 0.0
C1080 C 0.14452 0.4548 0.18777 0.0
C1081 C 0.13786 0.40441 0.19045 0.0
C1082 C 0.10938 0.39162 0.11129 0.0
C1083 C 0.10389 0.4363 0.11258 0.0
N1084 N 0.12177 0.51343 0.15221 0.0
N1085 N 0.11422 0.32466 0.15299 0.0
C1086 C 0.12383 0.46919 0.15059 0.0
C1087 C 0.12125 0.37311 0.15141 0.0
N1088 N 0.1725 0.48976 0.22034 0.0
N1089 N 0.10432 0.36735 0.07112 0.0
H1090 H 0.12363 0.31028 0.18109 0.0
H1091 H 0.09678 0.29786 0.12723 0.0
H1092 H 0.09605 0.3799 0.04132 0.0
H1093 H 0.11289 0.33808 0.0666 0.0
H1094 H 0.18344 0.52846 0.21868 0.0
H1095 H 0.18923 0.4808 0.24688 0.0
H1096 H 0.12777 0.53472 0.18163 0.0
H1097 H 0.11311 0.52839 0.12417 0.0
C1098 C 0.6524 0.67532 0.1832 0.0
C1099 C 0.64857 0.72001 0.19286 0.0
C1100 C 0.58769 0.6931 0.12728 0.0
C1101 C 0.59189 0.64827 0.12084 0.0
N1102 N 0.60737 0.58697 0.1586 0.0
N1103 N 0.6 0.76286 0.17726 0.0
C1104 C 0.61614 0.6359 0.15512 0.0
C1105 C 0.61243 0.72656 0.16582 0.0
N1106 N 0.6937 0.67213 0.19742 0.0
N1107 N 0.55968 0.70347 0.09729 0.0
H1108 H 0.61619 0.78714 0.20456 0.0
H1109 H 0.57053 0.76613 0.16203 0.0
H1110 H 0.53781 0.6778 0.0719 0.0
H1111 H 0.55961 0.73804 0.09652 0.0
H1112 H 0.69649 0.63912 0.1948 0.0
H1113 H 0.7279 0.70509 0.20499 0.0
H1114 H 0.6219 0.57508 0.18504 0.0
H1115 H 0.58075 0.55756 0.13792 0.0
C1116 C 0.33264 0.92909 0.12032 0.0
C1117 C 0.38479 0.94014 0.11926 0.0
C1118 C 0.37237 0.90589 0.19591 0.0
C1119 C 0.32667 0.90934 0.20124 0.0
N1120 N 0.2601 0.91851 0.16381 0.0
N1121 N 0.45365 0.9375 0.15773 0.0
C1122 C 0.30527 0.91821 0.16191 0.0
C1123 C 0.40415 0.9273 0.1573 0.0
N1124 N 0.3089 0.92874 0.08106 0.0
N1125 N 0.38517 0.88115 0.22745 0.0
H1126 H 0.47648 0.94996 0.12919 0.0
H1127 H 0.47231 0.93584 0.18682 0.0
H1128 H 0.36215 0.86268 0.25498 0.0
H1129 H 0.41523 0.87364 0.22339 0.0
H1130 H 0.2695 0.91418 0.07801 0.0
H1131 H 0.32832 0.9394 0.05072 0.0
H1132 H 0.24743 0.93327 0.13828 0.0
H1133 H 0.2348 0.90389 0.19057 0.0
C1134 C 0.39976 0.10466 0.87428 0.0
C1135 C 0.44117 0.09375 0.87748 0.0
C1136 C 0.47246 0.14107 0.80502 0.0
C1137 C 0.42404 0.13717 0.7973 0.0
N1138 N 0.34082 0.11482 0.82624 0.0
N1139 N 0.52443 0.1151 0.84764 0.0
C1140 C 0.38762 0.11862 0.83238 0.0
C1141 C 0.4798 0.11591 0.84329 0.0
N1142 N 0.37456 0.10716 0.9116 0.0
N1143 N 0.51218 0.17076 0.77696 0.0
H1144 H 0.53745 0.10979 0.87843 0.0
H1145 H 0.54932 0.12154 0.82091 0.0
H1146 H 0.50831 0.19122 0.75048 0.0
H1147 H 0.54984 0.17925 0.78233 0.0
H1148 H 0.34751 0.11919 0.91068 0.0
H1149 H 0.38577 0.10613 0.94427 0.0
H1150 H 0.31001 0.09426 0.84794 0.0
H1151 H 0.33208 0.12965 0.79813 0.0
C1152 C 0.98496 0.41924 0.82547 0.0
C1153 C 0.95579 0.39821 0.86489 0.0
C1154 C 0.89769 0.3188 0.82227 0.0
C1155 C 0.92867 0.33835 0.78359 0.0
N1156 N 0.99037 0.41465 0.74474 0.0
N1157 N 0.87329 0.33642 0.89475 0.0
C1158 C 0.96826 0.39117 0.78414 0.0
C1159 C 0.90861 0.35068 0.86124 0.0
N1160 N 0.03055 0.46427 0.82775 0.0
N1161 N 0.8591 0.26913 0.82281 0.0
H1162 H 0.87961 0.35881 0.92323 0.0
H1163 H 0.83622 0.30521 0.89239 0.0
H1164 H 0.8473 0.24691 0.79376 0.0
H1165 H 0.84014 0.25002 0.85207 0.0
H1166 H 0.05641 0.47867 0.80117 0.0
H1167 H 0.04393 0.4863 0.85699 0.0
H1168 H 1.01385 0.45416 0.74146 0.0
H1169 H 0.98155 0.39452 0.71471 0.0
C1170 C 0.72255 0.60072 0.81823 0.0
C1171 C 0.71145 0.62246 0.78061 0.0
C1172 C 0.62816 0.60136 0.81527 0.0
C1173 C 0.64085 0.58302 0.85422 0.0
N1174 N 0.689 0.5452 0.88323 0.0
N1175 N 0.64376 0.62186 0.73608 0.0
C1176 C 0.68472 0.57651 0.85263 0.0
C1177 C 0.66096 0.61573 0.77688 0.0
N1178 N 0.76935 0.60414 0.82204 0.0
N1179 N 0.58616 0.60747 0.81543 0.0
H1180 H 0.66603 0.63082 0.7072 0.0
H1181 H 0.60603 0.61288 0.73005 0.0
H1182 H 0.56022 0.59505 0.84206 0.0
H1183 H 0.57884 0.62732 0.79043 0.0
H1184 H 0.78237 0.59575 0.85166 0.0
H1185 H 0.79573 0.61684 0.79586 0.0
H1186 H 0.71801 0.53585 0.88276 0.0
H1187 H 0.65903 0.52288 0.90482 0.0
C1188 C 0.77849 0.81193 0.49168 0.0
C1189 C 0.77335 0.78448 0.45153 0.0
C1190 C 0.80242 0.73202 0.49328 0.0
C1191 C 0.80913 0.76114 0.53281 0.0
N1192 N 0.82707 0.84372 0.56053 0.0
N1193 N 0.79844 0.73017 0.41192 0.0
C1194 C 0.80496 0.80608 0.52893 0.0
C1195 C 0.79155 0.74859 0.45166 0.0
N1196 N 0.75453 0.83994 0.49627 0.0
N1197 N 0.80318 0.68709 0.49539 0.0
H1198 H 0.79052 0.74113 0.38111 0.0
H1199 H 0.81651 0.70833 0.40968 0.0
H1200 H 0.81105 0.67366 0.52496 0.0
H1201 H 0.79261 0.66166 0.46827 0.0
H1202 H 0.75445 0.85759 0.52657 0.0
H1203 H 0.72968 0.83969 0.4717 0.0
H1204 H 0.82781 0.87866 0.5577 0.0
H1205 H 0.84957 0.84172 0.58629 0.0
C1206 C 0.25436 1.01098 0.48747 0.0
C1207 C 0.28784 0.02148 0.45038 0.0
C1208 C 0.35132 0.10314 0.48769 0.0
C1209 C 0.31958 0.09071 0.52586 0.0
N1210 N 0.2337 0.04299 0.5545 0.0
N1211 N 0.35934 0.08776 0.40933 0.0
C1212 C 0.26882 0.04776 0.52317 0.0
C1213 C 0.33356 0.0708 0.44883 0.0
N1214 N 0.20951 0.96543 0.48987 0.0
N1215 N 0.39944 0.14485 0.48901 0.0
H1216 H 0.34714 0.06563 0.38042 0.0
H1217 H 0.38943 0.12492 0.40422 0.0
H1218 H 0.41144 0.17171 0.51496 0.0
H1219 H 0.4277 0.15199 0.46529 0.0
H1220 H 0.18821 0.9518 0.51936 0.0
H1221 H 0.1939 0.94051 0.46271 0.0
H1222 H 0.19491 1.01552 0.55303 0.0
H1223 H 0.24246 0.07091 0.5788 0.0
C1224 C 1.00104 0.24987 0.49732 0.0
C1225 C 1.01857 0.28646 0.53334 0.0
C1226 C 0.10397 0.32661 0.49607 0.0
C1227 C 0.08306 0.29864 0.45576 0.0
N1228 N 1.00411 0.24258 0.4165 0.0
N1229 N 0.08708 0.37233 0.55298 0.0
C1230 C 0.02942 0.26233 0.45592 0.0
C1231 C 0.07056 0.32801 0.52932 0.0
N1232 N 0.95917 0.20261 0.50226 0.0
N1233 N 0.15587 0.35555 0.50115 0.0
H1234 H 0.06114 0.38259 0.56504 0.0
H1235 H 0.12434 0.4033 0.55112 0.0
H1236 H 0.18124 0.35647 0.47676 0.0
H1237 H 0.17301 0.37396 0.5314 0.0
H1238 H 0.94685 0.17471 0.47699 0.0
H1239 H 0.94244 0.18897 0.53346 0.0
H1240 H 0.96437 0.21885 0.41472 0.0
H1241 H 1.02237 0.25596 0.38588 0.0
loop_
_geom_bond_atom_site_label_1
_geom_bond_atom_site_label_2
_geom_bond_distance
_geom_bond_site_symmetry_2
_ccdc_geom_bond_type
Eu0 N31 2.648 1_456 S
Eu0 N38 2.609 . S
Eu0 O44 2.558 . S
Eu0 O45 2.612 1_556 S
Eu0 O47 2.339 1_556 S
Eu0 O48 2.563 . S
Eu0 O49 2.419 1_556 S
Eu0 O51 2.378 1_456 S
Eu0 O52 2.432 . S
Eu0 C64 2.848 . S
C1 C4 1.429 . S
C1 C5 1.411 . S
C1 N8 1.377 1_455 S
C2 C4 1.420 1_556 S
C2 C6 1.423 1_556 S
C2 C14 1.392 . S
C3 C5 1.420 . S
C3 C6 1.351 . S
C3 H26 0.931 . S
C4 C1 1.429 . S
C4 C2 1.420 1_554 S
C4 N12 1.362 1_554 S
C5 C1 1.411 . S
C5 C3 1.420 . S
C5 C10 1.395 . S
C6 C2 1.423 1_554 S
C6 C3 1.351 . S
C6 H18 0.930 . S
C7 C9 1.400 . S
C7 C10 1.386 1_655 S
C7 H19 0.930 . S
N8 C1 1.377 1_655 S
N8 C9 1.321 . S
N8 Eu11 2.609 . S
C9 C7 1.400 . S
C9 N8 1.321 . S
C9 H16 0.930 . S
C10 C5 1.395 . S
C10 C7 1.386 1_455 S
C10 H29 0.930 . S
Eu11 N8 2.609 . S
Eu11 N12 2.657 1_654 S
Eu11 O45 2.380 1_655 S
Eu11 O46 2.432 . S
Eu11 O50 2.558 . S
Eu11 O51 2.615 . S
Eu11 O53 2.339 1_554 S
Eu11 O54 2.563 . S
Eu11 O55 2.419 1_554 S
Eu11 C75 2.848 . S
N12 C4 1.362 1_556 S
N12 Eu11 2.657 1_456 S
N12 C13 1.334 . S
C13 N12 1.334 . S
C13 C15 1.413 . S
C13 H20 0.929 . S
C14 C2 1.392 . S
C14 C15 1.367 . S
C14 H22 0.930 . S
C15 C13 1.413 . S
C15 C14 1.367 . S
C15 H17 0.930 . S
H16 C9 0.930 . S
H17 C15 0.930 . S
H18 C6 0.930 . S
H19 C7 0.930 . S
H20 C13 0.929 . S
H21 C35 0.930 . S
H22 C14 0.930 . S
H23 C41 0.930 . S
H24 C32 0.914 1_455 S
H25 C39 0.930 . S
H26 C3 0.931 . S
H27 C33 0.930 . S
H28 C66 0.930 . S
H29 C10 0.930 . S
H30 C65 0.931 . S
N31 Eu0 2.648 1_654 S
N31 C32 1.336 . S
N31 C36 1.369 1_554 S
C32 H24 0.914 1_655 S
C32 N31 1.336 . S
C32 C35 1.413 . S
C33 H27 0.930 . S
C33 C34 1.392 . S
C33 C35 1.367 . S
C34 C33 1.392 . S
C34 C36 1.420 1_554 S
C34 C66 1.423 1_554 S
C35 H21 0.930 . S
C35 C32 1.413 . S
C35 C33 1.367 . S
C36 N31 1.369 1_556 S
C36 C34 1.420 1_556 S
C36 C40 1.429 . S
H37 C42 0.930 . S
N38 Eu0 2.609 . S
N38 C40 1.377 1_455 S
N38 C41 1.321 . S
C39 H25 0.930 . S
C39 C41 1.400 . S
C39 C42 1.386 1_455 S
C40 C36 1.429 . S
C40 N38 1.377 1_655 S
C40 C43 1.411 . S
C41 H23 0.930 . S
C41 N38 1.321 . S
C41 C39 1.400 . S
C42 H37 0.930 . S
C42 C39 1.386 1_655 S
C42 C43 1.395 . S
C43 C40 1.411 . S
C43 C42 1.395 . S
C43 C65 1.420 . S
O44 Eu0 2.558 . S
O44 C64 1.257 . S
O45 Eu0 2.612 1_554 S
O45 Eu11 2.380 1_455 S
O45 C56 1.276 1_554 S
O46 Eu11 2.432 . S
O46 C63 1.264 1_655 S
O47 Eu0 2.339 1_554 S
O47 C63 1.254 . S
O48 Eu0 2.563 . S
O48 C56 1.235 . S
O49 Eu0 2.419 1_554 S
O49 C64 1.249 1_554 S
O50 Eu11 2.558 . S
O50 C75 1.257 . S
O51 Eu0 2.378 1_654 S
O51 Eu11 2.615 . S
O51 C67 1.278 . S
O52 Eu0 2.432 . S
O52 C74 1.264 1_455 S
O53 Eu11 2.339 1_556 S
O53 C74 1.254 . S
O54 Eu11 2.563 . S
O54 C67 1.235 . S
O55 Eu11 2.419 1_556 S
O55 C75 1.249 1_556 S
C56 O45 1.276 1_556 S
C56 O48 1.235 . S
C57 C59 1.393 1_556 S
C57 C61 1.395 . S
C57 C64 1.492 . S
C58 C59 1.392 . S
C58 C60 1.386 1_554 S
C59 C57 1.393 1_554 S
C59 C58 1.392 . S
C59 H76 0.930 . S
C60 C58 1.386 1_556 S
C60 C62 1.395 . S
C60 H77 0.930 . S
C61 C57 1.395 . S
C61 C62 1.379 . S
C61 H78 0.930 . S
C62 C60 1.395 . S
C62 C61 1.379 . S
C62 H79 0.930 . S
C63 O46 1.264 1_455 S
C63 O47 1.254 . S
C64 Eu0 2.848 . S
C64 O44 1.257 . S
C64 O49 1.249 1_556 S
C64 C57 1.492 . S
C65 H30 0.931 . S
C65 C43 1.420 . S
C65 C66 1.351 . S
C66 H28 0.930 . S
C66 C34 1.423 1_556 S
C66 C65 1.351 . S
C67 O51 1.278 . S
C67 O54 1.235 . S
C68 C69 1.393 1_554 S
C68 C72 1.395 . S
C68 C75 1.492 . S
C69 C68 1.393 1_556 S
C69 C70 1.392 . S
C69 H80 0.930 . S
C70 C69 1.392 . S
C70 C71 1.387 1_556 S
C71 C70 1.387 1_554 S
C71 C73 1.395 . S
C71 H81 0.930 . S
C72 C68 1.395 . S
C72 C73 1.379 . S
C72 H82 0.930 . S
C73 C71 1.395 . S
C73 C72 1.379 . S
C73 H83 0.930 . S
C74 O52 1.264 1_655 S
C74 O53 1.254 . S
C75 Eu11 2.848 . S
C75 O50 1.257 . S
C75 O55 1.249 1_554 S
C75 C68 1.492 . S
H76 C59 0.930 . S
H77 C60 0.930 . S
H78 C61 0.930 . S
H79 C62 0.930 . S
H80 C69 0.930 . S
H81 C71 0.930 . S
H82 C72 0.930 . S
H83 C73 0.930 . S
Eu84 N115 2.657 1_556 S
Eu84 N122 2.609 . S
Eu84 O128 2.558 . S
Eu84 O129 2.612 1_556 S
Eu84 O131 2.339 1_556 S
Eu84 O132 2.563 . S
Eu84 O133 2.419 1_556 S
Eu84 O135 2.378 1_556 S
Eu84 O136 2.432 . S
Eu84 C148 2.848 . S
C85 C88 1.429 . S
C85 C89 1.411 . S
C85 N92 1.377 . S
C86 C88 1.420 1_556 S
C86 C90 1.423 1_556 S
C86 C98 1.392 . S
C87 C89 1.420 . S
C87 C90 1.351 . S
C87 H110 0.931 . S
C88 C85 1.429 . S
C88 C86 1.420 1_554 S
C88 N96 1.362 1_554 S
C89 C85 1.411 . S
C89 C87 1.420 . S
C89 C94 1.395 . S
C90 C86 1.423 1_554 S
C90 C87 1.351 . S
C90 H102 0.930 . S
C91 C93 1.400 . S
C91 C94 1.386 . S
C91 H103 0.930 . S
N92 C85 1.377 . S
N92 C93 1.321 . S
N92 Eu95 2.609 . S
C93 C91 1.400 . S
C93 N92 1.321 . S
C93 H100 0.930 . S
C94 C89 1.395 . S
C94 C91 1.386 . S
C94 H113 0.930 . S
Eu95 N92 2.609 . S
Eu95 N96 2.657 1_554 S
Eu95 O129 2.380 . S
Eu95 O130 2.432 . S
Eu95 O134 2.558 . S
Eu95 O135 2.615 . S
Eu95 O137 2.339 1_554 S
Eu95 O138 2.563 . S
Eu95 O139 2.419 1_554 S
Eu95 C159 2.848 . S
N96 C88 1.362 1_556 S
N96 Eu95 2.657 1_556 S
N96 C97 1.334 . S
C97 N96 1.334 . S
C97 C99 1.413 . S
C97 H104 0.929 . S
C98 C86 1.392 . S
C98 C99 1.367 . S
C98 H106 0.930 . S
C99 C97 1.413 . S
C99 C98 1.367 . S
C99 H101 0.930 . S
H100 C93 0.930 . S
H101 C99 0.930 . S
H102 C90 0.930 . S
H103 C91 0.930 . S
H104 C97 0.929 . S
H105 C119 0.930 . S
H106 C98 0.930 . S
H107 C125 0.930 . S
H108 C116 0.929 . S
H109 C123 0.930 . S
H110 C87 0.931 . S
H111 C117 0.930 . S
H112 C150 0.930 . S
H113 C94 0.930 . S
H114 C149 0.931 . S
N115 Eu84 2.657 1_554 S
N115 C116 1.334 . S
N115 C120 1.362 1_554 S
C116 H108 0.929 . S
C116 N115 1.334 . S
C116 C119 1.413 . S
C117 H111 0.930 . S
C117 C118 1.392 . S
C117 C119 1.367 . S
C118 C117 1.392 . S
C118 C120 1.420 1_554 S
C118 C150 1.423 1_554 S
C119 H105 0.930 . S
C119 C116 1.413 . S
C119 C117 1.367 . S
C120 N115 1.362 1_556 S
C120 C118 1.420 1_556 S
C120 C124 1.429 . S
H121 C126 0.930 . S
N122 Eu84 2.609 . S
N122 C124 1.377 . S
N122 C125 1.321 . S
C123 H109 0.930 . S
C123 C125 1.400 . S
C123 C126 1.386 . S
C124 C120 1.429 . S
C124 N122 1.377 . S
C124 C127 1.411 . S
C125 H107 0.930 . S
C125 N122 1.321 . S
C125 C123 1.400 . S
C126 H121 0.930 . S
C126 C123 1.386 . S
C126 C127 1.395 . S
C127 C124 1.411 . S
C127 C126 1.395 . S
C127 C149 1.420 . S
O128 Eu84 2.558 . S
O128 C148 1.257 . S
O129 Eu84 2.612 1_554 S
O129 Eu95 2.380 . S
O129 C140 1.276 1_554 S
O130 Eu95 2.432 . S
O130 C147 1.264 . S
O131 Eu84 2.339 1_554 S
O131 C147 1.254 . S
O132 Eu84 2.563 . S
O132 C140 1.235 . S
O133 Eu84 2.419 1_554 S
O133 C148 1.249 1_554 S
O134 Eu95 2.558 . S
O134 C159 1.257 . S
O135 Eu84 2.378 1_554 S
O135 Eu95 2.615 . S
O135 C151 1.278 . S
O136 Eu84 2.432 . S
O136 C158 1.264 . S
O137 Eu95 2.339 1_556 S
O137 C158 1.254 . S
O138 Eu95 2.563 . S
O138 C151 1.235 . S
O139 Eu95 2.419 1_556 S
O139 C159 1.249 1_556 S
C140 O129 1.276 1_556 S
C140 O132 1.235 . S
C141 C143 1.393 1_556 S
C141 C145 1.395 . S
C141 C148 1.492 . S
C142 C143 1.392 . S
C142 C144 1.386 1_554 S
C143 C141 1.393 1_554 S
C143 C142 1.392 . S
C143 H160 0.930 . S
C144 C142 1.386 1_556 S
C144 C146 1.395 . S
C144 H161 0.930 . S
C145 C141 1.395 . S
C145 C146 1.379 . S
C145 H162 0.930 . S
C146 C144 1.395 . S
C146 C145 1.379 . S
C146 H163 0.930 . S
C147 O130 1.264 . S
C147 O131 1.254 . S
C148 Eu84 2.848 . S
C148 O128 1.257 . S
C148 O133 1.249 1_556 S
C148 C141 1.492 . S
C149 H114 0.931 . S
C149 C127 1.420 . S
C149 C150 1.351 . S
C150 H112 0.930 . S
C150 C118 1.423 1_556 S
C150 C149 1.351 . S
C151 O135 1.278 . S
C151 O138 1.235 . S
C152 C153 1.393 1_554 S
C152 C156 1.395 . S
C152 C159 1.492 . S
C153 C152 1.393 1_556 S
C153 C154 1.392 . S
C153 H164 0.930 . S
C154 C153 1.392 . S
C154 C155 1.387 1_556 S
C155 C154 1.387 1_554 S
C155 C157 1.395 . S
C155 H165 0.930 . S
C156 C152 1.395 . S
C156 C157 1.379 . S
C156 H166 0.930 . S
C157 C155 1.395 . S
C157 C156 1.379 . S
C157 H167 0.930 . S
C158 O136 1.264 . S
C158 O137 1.254 . S
C159 Eu95 2.848 . S
C159 O134 1.257 . S
C159 O139 1.249 1_554 S
C159 C152 1.492 . S
H160 C143 0.930 . S
H161 C144 0.930 . S
H162 C145 0.930 . S
H163 C146 0.930 . S
H164 C153 0.930 . S
H165 C155 0.930 . S
H166 C156 0.930 . S
H167 C157 0.930 . S
Eu168 N199 2.657 1_566 S
Eu168 N206 2.609 . S
Eu168 O212 2.558 . S
Eu168 O213 2.612 1_556 S
Eu168 O215 2.339 1_556 S
Eu168 O216 2.563 . S
Eu168 O217 2.419 1_556 S
Eu168 O219 2.378 1_566 S
Eu168 O220 2.434 . S
Eu168 C232 2.848 . S
C169 C172 1.429 . S
C169 C173 1.411 . S
C169 N176 1.377 1_565 S
C170 C172 1.420 1_556 S
C170 C174 1.423 1_556 S
C170 C182 1.392 . S
C171 C173 1.420 . S
C171 C174 1.351 . S
C171 H194 0.931 . S
C172 C169 1.429 . S
C172 C170 1.420 1_554 S
C172 N180 1.364 1_564 S
C173 C169 1.411 . S
C173 C171 1.420 . S
C173 C178 1.395 . S
C174 C170 1.423 1_554 S
C174 C171 1.351 . S
C174 H186 0.930 . S
C175 C177 1.400 . S
C175 C178 1.386 1_545 S
C175 H187 0.930 . S
N176 C169 1.377 1_545 S
N176 C177 1.321 . S
N176 Eu179 2.609 . S
C177 C175 1.400 . S
C177 N176 1.321 . S
C177 H184 0.930 . S
C178 C173 1.395 . S
C178 C175 1.386 1_565 S
C178 H197 0.930 . S
Eu179 N176 2.609 . S
Eu179 N180 2.657 1_554 S
Eu179 O213 2.380 1_545 S
Eu179 O214 2.432 . S
Eu179 O218 2.558 . S
Eu179 O219 2.615 . S
Eu179 O221 2.339 1_554 S
Eu179 O222 2.563 . S
Eu179 O223 2.419 1_554 S
Eu179 C243 2.848 . S
N180 C172 1.364 1_546 S
N180 Eu179 2.657 1_556 S
N180 C181 1.332 1_545 S
C181 N180 1.332 1_565 S
C181 C183 1.413 . S
C181 H188 0.929 1_565 S
C182 C170 1.392 . S
C182 C183 1.367 . S
C182 H190 0.930 . S
C183 C181 1.413 . S
C183 C182 1.367 . S
C183 H185 0.930 . S
H184 C177 0.930 . S
H185 C183 0.930 . S
H186 C174 0.930 . S
H187 C175 0.930 . S
H188 C181 0.929 1_545 S
H189 C203 0.930 . S
H190 C182 0.930 . S
H191 C209 0.930 . S
H192 C200 0.929 . S
H193 C207 0.930 . S
H194 C171 0.931 . S
H195 C201 0.930 . S
H196 C234 0.930 . S
H197 C178 0.930 . S
H198 C233 0.931 . S
N199 Eu168 2.657 1_544 S
N199 C200 1.334 . S
N199 C204 1.362 1_554 S
C200 H192 0.929 . S
C200 N199 1.334 . S
C200 C203 1.413 . S
C201 H195 0.930 . S
C201 C202 1.392 . S
C201 C203 1.367 . S
C202 C201 1.392 . S
C202 C204 1.420 1_554 S
C202 C234 1.423 1_554 S
C203 H189 0.930 . S
C203 C200 1.413 . S
C203 C201 1.367 . S
C204 N199 1.362 1_556 S
C204 C202 1.420 1_556 S
C204 C208 1.429 . S
H205 C210 0.930 . S
N206 Eu168 2.609 . S
N206 C208 1.377 1_565 S
N206 C209 1.321 . S
C207 H193 0.930 . S
C207 C209 1.400 . S
C207 C210 1.386 1_565 S
C208 C204 1.429 . S
C208 N206 1.377 1_545 S
C208 C211 1.411 . S
C209 H191 0.930 . S
C209 N206 1.321 . S
C209 C207 1.400 . S
C210 H205 0.930 . S
C210 C207 1.386 1_545 S
C210 C211 1.395 . S
C211 C208 1.411 . S
C211 C210 1.395 . S
C211 C233 1.420 . S
O212 Eu168 2.558 . S
O212 C232 1.257 . S
O213 Eu168 2.612 1_554 S
O213 Eu179 2.380 1_565 S
O213 C224 1.276 1_554 S
O214 Eu179 2.432 . S
O214 C231 1.264 1_545 S
O215 Eu168 2.339 1_554 S
O215 C231 1.254 . S
O216 Eu168 2.563 . S
O216 C224 1.235 . S
O217 Eu168 2.419 1_554 S
O217 C232 1.249 1_554 S
O218 Eu179 2.558 . S
O218 C243 1.257 . S
O219 Eu168 2.378 1_544 S
O219 Eu179 2.615 . S
O219 C235 1.278 . S
O220 Eu168 2.434 . S
O220 C242 1.261 1_565 S
O221 Eu179 2.339 1_556 S
O221 C242 1.254 . S
O222 Eu179 2.563 . S
O222 C235 1.235 . S
O223 Eu179 2.419 1_556 S
O223 C243 1.249 1_556 S
C224 O213 1.276 1_556 S
C224 O216 1.235 . S
C225 C227 1.393 1_556 S
C225 C229 1.395 . S
C225 C232 1.492 . S
C226 C227 1.392 . S
C226 C228 1.386 1_554 S
C227 C225 1.393 1_554 S
C227 C226 1.392 . S
C227 H244 0.930 . S
C228 C226 1.386 1_556 S
C228 C230 1.395 . S
C228 H245 0.930 . S
C229 C225 1.395 . S
C229 C230 1.379 . S
C229 H246 0.930 . S
C230 C228 1.395 . S
C230 C229 1.379 . S
C230 H247 0.930 . S
C231 O214 1.264 1_565 S
C231 O215 1.254 . S
C232 Eu168 2.848 . S
C232 O212 1.257 . S
C232 O217 1.249 1_556 S
C232 C225 1.492 . S
C233 H198 0.931 . S
C233 C211 1.420 . S
C233 C234 1.351 . S
C234 H196 0.930 . S
C234 C202 1.423 1_556 S
C234 C233 1.351 . S
C235 O219 1.278 . S
C235 O222 1.235 . S
C236 C237 1.393 1_554 S
C236 C240 1.395 . S
C236 C243 1.492 . S
C237 C236 1.393 1_556 S
C237 C238 1.392 . S
C237 H248 0.930 . S
C238 C237 1.392 . S
C238 C239 1.387 1_556 S
C239 C238 1.387 1_554 S
C239 C241 1.395 . S
C239 H249 0.930 . S
C240 C236 1.395 . S
C240 C241 1.379 . S
C240 H250 0.930 . S
C241 C239 1.395 . S
C241 C240 1.379 . S
C241 H251 0.930 . S
C242 O220 1.261 1_545 S
C242 O221 1.254 . S
C243 Eu179 2.848 . S
C243 O218 1.257 . S
C243 O223 1.249 1_554 S
C243 C236 1.492 . S
H244 C227 0.930 . S
H245 C228 0.930 . S
H246 C229 0.930 . S
H247 C230 0.930 . S
H248 C237 0.930 . S
H249 C239 0.930 . S
H250 C240 0.930 . S
H251 C241 0.930 . S
Eu252 N283 2.657 . S
Eu252 N290 2.609 . S
Eu252 O296 2.558 . S
Eu252 O297 2.612 . S
Eu252 O299 2.339 . S
Eu252 O300 2.563 . S
Eu252 O301 2.419 . S
Eu252 O303 2.380 . S
Eu252 O304 2.432 . S
Eu252 C316 2.848 . S
C253 C256 1.429 . S
C253 C257 1.411 . S
C253 N260 1.377 . S
C254 C256 1.420 . S
C254 C258 1.423 . S
C254 C266 1.392 . S
C255 C257 1.420 . S
C255 C258 1.351 . S
C255 H278 0.931 . S
C256 C253 1.429 . S
C256 C254 1.420 . S
C256 N264 1.362 . S
C257 C253 1.411 . S
C257 C255 1.420 . S
C257 C262 1.395 . S
C258 C254 1.423 . S
C258 C255 1.351 . S
C258 H270 0.930 . S
C259 C261 1.400 . S
C259 C262 1.386 . S
C259 H271 0.930 . S
N260 C253 1.377 . S
N260 C261 1.321 . S
N260 Eu263 2.609 . S
C261 C259 1.400 . S
C261 N260 1.321 . S
C261 H268 0.930 . S
C262 C257 1.395 . S
C262 C259 1.386 . S
C262 H281 0.930 . S
Eu263 N260 2.609 . S
Eu263 N264 2.657 . S
Eu263 O297 2.380 . S
Eu263 O298 2.432 . S
Eu263 O302 2.558 . S
Eu263 O303 2.612 . S
Eu263 O305 2.339 . S
Eu263 O306 2.563 . S
Eu263 O307 2.419 . S
Eu263 C327 2.848 . S
N264 C256 1.362 . S
N264 Eu263 2.657 . S
N264 C265 1.334 . S
C265 N264 1.334 . S
C265 C267 1.413 . S
C265 H272 0.929 . S
C266 C254 1.392 . S
C266 C267 1.367 . S
C266 H274 0.930 . S
C267 C265 1.413 . S
C267 C266 1.367 . S
C267 H269 0.930 . S
H268 C261 0.930 . S
H269 C267 0.930 . S
H270 C258 0.930 . S
H271 C259 0.930 . S
H272 C265 0.929 . S
H273 C287 0.930 . S
H274 C266 0.930 . S
H275 C293 0.930 . S
H276 C284 0.929 . S
H277 C291 0.930 . S
H278 C255 0.931 . S
H279 C285 0.930 . S
H280 C318 0.930 1_545 S
H281 C262 0.930 . S
H282 C317 0.931 . S
N283 Eu252 2.657 . S
N283 C284 1.334 . S
N283 C288 1.362 . S
C284 H276 0.929 . S
C284 N283 1.334 . S
C284 C287 1.413 . S
C285 H279 0.930 . S
C285 C286 1.392 . S
C285 C287 1.367 . S
C286 C285 1.392 . S
C286 C288 1.420 . S
C286 C318 1.423 . S
C287 H273 0.930 . S
C287 C284 1.413 . S
C287 C285 1.367 . S
C288 N283 1.362 . S
C288 C286 1.420 . S
C288 C292 1.429 . S
H289 C294 0.930 1_545 S
N290 Eu252 2.609 . S
N290 C292 1.377 . S
N290 C293 1.321 . S
C291 H277 0.930 . S
C291 C293 1.400 . S
C291 C294 1.386 . S
C292 C288 1.429 . S
C292 N290 1.377 . S
C292 C295 1.411 . S
C293 H275 0.930 . S
C293 N290 1.321 . S
C293 C291 1.400 . S
C294 H289 0.930 1_565 S
C294 C291 1.386 . S
C294 C295 1.395 . S
C295 C292 1.411 . S
C295 C294 1.395 . S
C295 C317 1.420 1_565 S
O296 Eu252 2.558 . S
O296 C316 1.257 . S
O297 Eu252 2.612 . S
O297 Eu263 2.380 . S
O297 C308 1.276 . S
O298 Eu263 2.432 . S
O298 C315 1.264 . S
O299 Eu252 2.339 . S
O299 C315 1.254 . S
O300 Eu252 2.563 . S
O300 C308 1.235 . S
O301 Eu252 2.419 . S
O301 C316 1.249 . S
O302 Eu263 2.558 . S
O302 C327 1.257 . S
O303 Eu252 2.380 . S
O303 Eu263 2.612 . S
O303 C319 1.276 . S
O304 Eu252 2.432 . S
O304 C326 1.264 . S
O305 Eu263 2.339 . S
O305 C326 1.254 . S
O306 Eu263 2.563 . S
O306 C319 1.235 . S
O307 Eu263 2.419 . S
O307 C327 1.249 . S
C308 O297 1.276 . S
C308 O300 1.235 . S
C309 C311 1.393 . S
C309 C313 1.395 . S
C309 C316 1.492 1_545 S
C310 C311 1.392 . S
C310 C312 1.386 . S
C311 C309 1.393 . S
C311 C310 1.392 . S
C311 H328 0.930 . S
C312 C310 1.386 . S
C312 C314 1.395 . S
C312 H329 0.930 . S
C313 C309 1.395 . S
C313 C314 1.379 . S
C313 H330 0.930 . S
C314 C312 1.395 . S
C314 C313 1.379 . S
C314 H331 0.930 . S
C315 O298 1.264 . S
C315 O299 1.254 . S
C316 Eu252 2.848 . S
C316 O296 1.257 . S
C316 O301 1.249 . S
C316 C309 1.492 1_565 S
C317 H282 0.931 . S
C317 C295 1.420 1_545 S
C317 C318 1.351 1_545 S
C318 H280 0.930 1_565 S
C318 C286 1.423 . S
C318 C317 1.351 1_565 S
C319 O303 1.276 . S
C319 O306 1.235 . S
C320 C321 1.393 . S
C320 C324 1.395 . S
C320 C327 1.492 . S
C321 C320 1.393 . S
C321 C322 1.392 . S
C321 H332 0.930 . S
C322 C321 1.392 . S
C322 C323 1.386 . S
C323 C322 1.386 . S
C323 C325 1.395 . S
C323 H333 0.930 . S
C324 C320 1.395 . S
C324 C325 1.379 . S
C324 H334 0.930 . S
C325 C323 1.395 . S
C325 C324 1.379 . S
C325 H335 0.930 . S
C326 O304 1.264 . S
C326 O305 1.254 . S
C327 Eu263 2.848 . S
C327 O302 1.257 . S
C327 O307 1.249 . S
C327 C320 1.492 . S
H328 C311 0.930 . S
H329 C312 0.930 . S
H330 C313 0.930 . S
H331 C314 0.930 . S
H332 C321 0.930 . S
H333 C323 0.930 . S
H334 C324 0.930 . S
H335 C325 0.930 . S
Eu336 N367 2.657 . S
Eu336 N374 2.609 . S
Eu336 O380 2.558 . S
Eu336 O381 2.612 . S
Eu336 O383 2.339 . S
Eu336 O384 2.563 . S
Eu336 O385 2.419 . S
Eu336 O387 2.380 . S
Eu336 O388 2.432 . S
Eu336 C400 2.848 . S
C337 C340 1.429 . S
C337 C341 1.411 . S
C337 N344 1.377 1_545 S
C338 C340 1.420 . S
C338 C342 1.423 . S
C338 C350 1.392 . S
C339 C341 1.420 . S
C339 C342 1.351 . S
C339 H362 0.931 . S
C340 C337 1.429 . S
C340 C338 1.420 . S
C340 N348 1.362 1_545 S
C341 C337 1.411 . S
C341 C339 1.420 . S
C341 C346 1.395 . S
C342 C338 1.423 . S
C342 C339 1.351 . S
C342 H354 0.930 . S
C343 C345 1.400 1_545 S
C343 C346 1.386 . S
C343 H355 0.930 . S
N344 C337 1.377 1_565 S
N344 C345 1.321 . S
N344 Eu347 2.609 . S
C345 C343 1.400 1_565 S
C345 N344 1.321 . S
C345 H352 0.930 . S
C346 C341 1.395 . S
C346 C343 1.386 . S
C346 H365 0.930 . S
Eu347 N344 2.609 . S
Eu347 N348 2.657 . S
Eu347 O381 2.380 . S
Eu347 O382 2.432 . S
Eu347 O386 2.558 . S
Eu347 O387 2.612 . S
Eu347 O389 2.339 . S
Eu347 O390 2.563 . S
Eu347 O391 2.419 . S
Eu347 C411 2.848 . S
N348 C340 1.362 1_565 S
N348 Eu347 2.657 . S
N348 C349 1.334 . S
C349 N348 1.334 . S
C349 C351 1.413 1_565 S
C349 H356 0.929 . S
C350 C338 1.392 . S
C350 C351 1.367 . S
C350 H358 0.930 . S
C351 C349 1.413 1_545 S
C351 C350 1.367 . S
C351 H353 0.930 . S
H352 C345 0.930 . S
H353 C351 0.930 . S
H354 C342 0.930 . S
H355 C343 0.930 . S
H356 C349 0.929 . S
H357 C371 0.930 . S
H358 C350 0.930 . S
H359 C377 0.930 . S
H360 C368 0.929 . S
H361 C375 0.930 . S
H362 C339 0.931 . S
H363 C369 0.930 . S
H364 C402 0.930 1_655 S
H365 C346 0.930 . S
H366 C401 0.931 1_655 S
N367 Eu336 2.657 . S
N367 C368 1.334 . S
N367 C372 1.362 . S
C368 H360 0.929 . S
C368 N367 1.334 . S
C368 C371 1.413 . S
C369 H363 0.930 . S
C369 C370 1.392 . S
C369 C371 1.367 . S
C370 C369 1.392 . S
C370 C372 1.420 . S
C370 C402 1.423 . S
C371 H357 0.930 . S
C371 C368 1.413 . S
C371 C369 1.367 . S
C372 N367 1.362 . S
C372 C370 1.420 . S
C372 C376 1.429 . S
H373 C378 0.930 . S
N374 Eu336 2.609 . S
N374 C376 1.377 . S
N374 C377 1.321 . S
C375 H361 0.930 . S
C375 C377 1.400 . S
C375 C378 1.386 . S
C376 C372 1.429 . S
C376 N374 1.377 . S
C376 C379 1.411 . S
C377 H359 0.930 . S
C377 N374 1.321 . S
C377 C375 1.400 . S
C378 H373 0.930 . S
C378 C375 1.386 . S
C378 C379 1.395 . S
C379 C376 1.411 . S
C379 C378 1.395 . S
C379 C401 1.420 . S
O380 Eu336 2.558 . S
O380 C400 1.257 . S
O381 Eu336 2.612 . S
O381 Eu347 2.380 . S
O381 C392 1.276 . S
O382 Eu347 2.432 . S
O382 C399 1.264 . S
O383 Eu336 2.339 . S
O383 C399 1.254 . S
O384 Eu336 2.563 . S
O384 C392 1.235 . S
O385 Eu336 2.419 . S
O385 C400 1.249 . S
O386 Eu347 2.558 . S
O386 C411 1.257 . S
O387 Eu336 2.380 . S
O387 Eu347 2.612 . S
O387 C403 1.276 . S
O388 Eu336 2.432 . S
O388 C410 1.264 . S
O389 Eu347 2.339 . S
O389 C410 1.254 . S
O390 Eu347 2.563 . S
O390 C403 1.235 . S
O391 Eu347 2.419 . S
O391 C411 1.249 . S
C392 O381 1.276 . S
C392 O384 1.235 . S
C393 C395 1.393 . S
C393 C397 1.395 . S
C393 C400 1.492 1_655 S
C394 C395 1.392 . S
C394 C396 1.386 . S
C395 C393 1.393 . S
C395 C394 1.392 . S
C395 H412 0.930 1_655 S
C396 C394 1.386 . S
C396 C398 1.395 . S
C396 H413 0.930 . S
C397 C393 1.395 . S
C397 C398 1.379 . S
C397 H414 0.930 . S
C398 C396 1.395 . S
C398 C397 1.379 . S
C398 H415 0.930 . S
C399 O382 1.264 . S
C399 O383 1.254 . S
C400 Eu336 2.848 . S
C400 O380 1.257 . S
C400 O385 1.249 . S
C400 C393 1.492 1_455 S
C401 H366 0.931 1_455 S
C401 C379 1.420 . S
C401 C402 1.351 . S
C402 H364 0.930 1_455 S
C402 C370 1.423 . S
C402 C401 1.351 . S
C403 O387 1.276 . S
C403 O390 1.235 . S
C404 C405 1.393 . S
C404 C408 1.395 . S
C404 C411 1.492 . S
C405 C404 1.393 . S
C405 C406 1.392 . S
C405 H416 0.930 . S
C406 C405 1.392 . S
C406 C407 1.386 . S
C407 C406 1.386 . S
C407 C409 1.395 . S
C407 H417 0.930 . S
C408 C404 1.395 . S
C408 C409 1.379 . S
C408 H418 0.930 . S
C409 C407 1.395 . S
C409 C408 1.379 . S
C409 H419 0.930 . S
C410 O388 1.264 . S
C410 O389 1.254 . S
C411 Eu347 2.848 . S
C411 O386 1.257 . S
C411 O391 1.249 . S
C411 C404 1.492 . S
H412 C395 0.930 1_455 S
H413 C396 0.930 . S
H414 C397 0.930 . S
H415 C398 0.930 . S
H416 C405 0.930 . S
H417 C407 0.930 . S
H418 C408 0.930 . S
H419 C409 0.930 . S
Eu420 N451 2.657 . S
Eu420 N458 2.609 . S
Eu420 O464 2.558 . S
Eu420 O465 2.612 . S
Eu420 O467 2.339 . S
Eu420 O468 2.563 . S
Eu420 O469 2.419 . S
Eu420 O471 2.380 . S
Eu420 O472 2.432 . S
Eu420 C484 2.848 . S
C421 C424 1.429 . S
C421 C425 1.411 . S
C421 N428 1.377 1_655 S
C422 C424 1.420 . S
C422 C426 1.423 . S
C422 C434 1.392 . S
C423 C425 1.420 . S
C423 C426 1.351 . S
C423 H446 0.931 . S
C424 C421 1.429 . S
C424 C422 1.420 . S
C424 N432 1.362 1_655 S
C425 C421 1.411 . S
C425 C423 1.420 . S
C425 C430 1.395 . S
C426 C422 1.423 . S
C426 C423 1.351 . S
C426 H438 0.930 . S
C427 C429 1.400 1_655 S
C427 C430 1.386 . S
C427 H439 0.930 1_655 S
N428 C421 1.377 1_455 S
N428 C429 1.321 . S
N428 Eu431 2.609 . S
C429 C427 1.400 1_455 S
C429 N428 1.321 . S
C429 H436 0.930 . S
C430 C425 1.395 . S
C430 C427 1.386 . S
C430 H449 0.930 . S
Eu431 N428 2.609 . S
Eu431 N432 2.657 . S
Eu431 O465 2.380 . S
Eu431 O466 2.432 . S
Eu431 O470 2.558 . S
Eu431 O471 2.612 . S
Eu431 O473 2.339 . S
Eu431 O474 2.563 . S
Eu431 O475 2.419 . S
Eu431 C495 2.848 . S
N432 C424 1.362 1_455 S
N432 Eu431 2.657 . S
N432 C433 1.334 . S
C433 N432 1.334 . S
C433 C435 1.413 1_455 S
C433 H440 0.929 . S
C434 C422 1.392 . S
C434 C435 1.367 . S
C434 H442 0.930 . S
C435 C433 1.413 1_655 S
C435 C434 1.367 . S
C435 H437 0.930 . S
H436 C429 0.930 . S
H437 C435 0.930 . S
H438 C426 0.930 . S
H439 C427 0.930 1_455 S
H440 C433 0.929 . S
H441 C455 0.930 . S
H442 C434 0.930 . S
H443 C461 0.930 . S
H444 C452 0.929 . S
H445 C459 0.930 . S
H446 C423 0.931 . S
H447 C453 0.930 . S
H448 C486 0.930 . S
H449 C430 0.930 . S
H450 C485 0.931 . S
N451 Eu420 2.657 . S
N451 C452 1.334 . S
N451 C456 1.362 . S
C452 H444 0.929 . S
C452 N451 1.334 . S
C452 C455 1.413 . S
C453 H447 0.930 . S
C453 C454 1.392 . S
C453 C455 1.367 . S
C454 C453 1.392 . S
C454 C456 1.420 . S
C454 C486 1.423 . S
C455 H441 0.930 . S
C455 C452 1.413 . S
C455 C453 1.367 . S
C456 N451 1.362 . S
C456 C454 1.420 . S
C456 C460 1.429 . S
H457 C462 0.930 . S
N458 Eu420 2.609 . S
N458 C460 1.377 . S
N458 C461 1.321 . S
C459 H445 0.930 . S
C459 C461 1.400 . S
C459 C462 1.386 . S
C460 C456 1.429 . S
C460 N458 1.377 . S
C460 C463 1.411 . S
C461 H443 0.930 . S
C461 N458 1.321 . S
C461 C459 1.400 . S
C462 H457 0.930 . S
C462 C459 1.386 . S
C462 C463 1.395 . S
C463 C460 1.411 . S
C463 C462 1.395 . S
C463 C485 1.420 . S
O464 Eu420 2.558 . S
O464 C484 1.257 . S
O465 Eu420 2.612 . S
O465 Eu431 2.380 . S
O465 C476 1.276 . S
O466 Eu431 2.432 . S
O466 C483 1.264 . S
O467 Eu420 2.339 . S
O467 C483 1.254 . S
O468 Eu420 2.563 . S
O468 C476 1.235 . S
O469 Eu420 2.419 . S
O469 C484 1.249 . S
O470 Eu431 2.558 . S
O470 C495 1.257 . S
O471 Eu420 2.380 . S
O471 Eu431 2.612 . S
O471 C487 1.276 . S
O472 Eu420 2.432 . S
O472 C494 1.264 . S
O473 Eu431 2.339 . S
O473 C494 1.254 . S
O474 Eu431 2.563 . S
O474 C487 1.235 . S
O475 Eu431 2.419 . S
O475 C495 1.249 . S
C476 O465 1.276 . S
C476 O468 1.235 . S
C477 C479 1.393 . S
C477 C481 1.395 . S
C477 C484 1.492 . S
C478 C479 1.392 . S
C478 C480 1.386 . S
C479 C477 1.393 . S
C479 C478 1.392 . S
C479 H496 0.930 . S
C480 C478 1.386 . S
C480 C482 1.395 . S
C480 H497 0.930 . S
C481 C477 1.395 . S
C481 C482 1.379 . S
C481 H498 0.930 . S
C482 C480 1.395 . S
C482 C481 1.379 . S
C482 H499 0.930 . S
C483 O466 1.264 . S
C483 O467 1.254 . S
C484 Eu420 2.848 . S
C484 O464 1.257 . S
C484 O469 1.249 . S
C484 C477 1.492 . S
C485 H450 0.931 . S
C485 C463 1.420 . S
C485 C486 1.351 . S
C486 H448 0.930 . S
C486 C454 1.423 . S
C486 C485 1.351 . S
C487 O471 1.276 . S
C487 O474 1.235 . S
C488 C489 1.393 . S
C488 C492 1.395 . S
C488 C495 1.492 . S
C489 C488 1.393 . S
C489 C490 1.392 . S
C489 H500 0.930 . S
C490 C489 1.392 . S
C490 C491 1.386 . S
C491 C490 1.386 . S
C491 C493 1.395 . S
C491 H501 0.930 . S
C492 C488 1.395 . S
C492 C493 1.379 . S
C492 H502 0.930 . S
C493 C491 1.395 . S
C493 C492 1.379 . S
C493 H503 0.930 . S
C494 O472 1.264 . S
C494 O473 1.254 . S
C495 Eu431 2.848 . S
C495 O470 1.257 . S
C495 O475 1.249 . S
C495 C488 1.492 . S
H496 C479 0.930 . S
H497 C480 0.930 . S
H498 C481 0.930 . S
H499 C482 0.930 . S
H500 C489 0.930 . S
H501 C491 0.930 . S
H502 C492 0.930 . S
H503 C493 0.930 . S
Eu504 N535 2.657 . S
Eu504 N542 2.609 . S
Eu504 O548 2.558 . S
Eu504 O549 2.612 . S
Eu504 O551 2.339 . S
Eu504 O552 2.563 . S
Eu504 O553 2.419 . S
Eu504 O555 2.380 . S
Eu504 O556 2.432 . S
Eu504 C568 2.848 . S
C505 C508 1.429 . S
C505 C509 1.411 . S
C505 N512 1.377 1_565 S
C506 C508 1.420 . S
C506 C510 1.423 . S
C506 C518 1.392 . S
C507 C509 1.420 . S
C507 C510 1.351 . S
C507 H530 0.931 . S
C508 C505 1.429 . S
C508 C506 1.420 . S
C508 N516 1.362 1_565 S
C509 C505 1.411 . S
C509 C507 1.420 . S
C509 C514 1.395 . S
C510 C506 1.423 . S
C510 C507 1.351 . S
C510 H522 0.930 . S
C511 C513 1.400 1_565 S
C511 C514 1.386 . S
C511 H523 0.930 . S
N512 C505 1.377 1_545 S
N512 C513 1.321 . S
N512 Eu515 2.609 . S
C513 C511 1.400 1_545 S
C513 N512 1.321 . S
C513 H520 0.930 . S
C514 C509 1.395 . S
C514 C511 1.386 . S
C514 H533 0.930 . S
Eu515 N512 2.609 . S
Eu515 N516 2.657 . S
Eu515 O549 2.380 . S
Eu515 O550 2.432 . S
Eu515 O554 2.558 1_545 S
Eu515 O555 2.612 . S
Eu515 O557 2.339 . S
Eu515 O558 2.563 . S
Eu515 O559 2.419 1_545 S
Eu515 C579 2.848 1_545 S
N516 C508 1.362 1_545 S
N516 Eu515 2.657 . S
N516 C517 1.334 . S
C517 N516 1.334 . S
C517 C519 1.413 . S
C517 H524 0.929 . S
C518 C506 1.392 . S
C518 C519 1.367 1_565 S
C518 H526 0.930 . S
C519 C517 1.413 . S
C519 C518 1.367 1_545 S
C519 H521 0.930 . S
H520 C513 0.930 . S
H521 C519 0.930 . S
H522 C510 0.930 . S
H523 C511 0.930 . S
H524 C517 0.929 . S
H525 C539 0.930 . S
H526 C518 0.930 . S
H527 C545 0.930 . S
H528 C536 0.929 . S
H529 C543 0.930 . S
H530 C507 0.931 . S
H531 C537 0.930 . S
H532 C570 0.930 . S
H533 C514 0.930 . S
H534 C569 0.931 . S
N535 Eu504 2.657 . S
N535 C536 1.334 . S
N535 C540 1.362 . S
C536 H528 0.929 . S
C536 N535 1.334 . S
C536 C539 1.413 . S
C537 H531 0.930 . S
C537 C538 1.392 . S
C537 C539 1.367 . S
C538 C537 1.392 . S
C538 C540 1.420 . S
C538 C570 1.423 . S
C539 H525 0.930 . S
C539 C536 1.413 . S
C539 C537 1.367 . S
C540 N535 1.362 . S
C540 C538 1.420 . S
C540 C544 1.429 . S
H541 C546 0.930 . S
N542 Eu504 2.609 . S
N542 C544 1.377 . S
N542 C545 1.321 . S
C543 H529 0.930 . S
C543 C545 1.400 . S
C543 C546 1.386 . S
C544 C540 1.429 . S
C544 N542 1.377 . S
C544 C547 1.411 . S
C545 H527 0.930 . S
C545 N542 1.321 . S
C545 C543 1.400 . S
C546 H541 0.930 . S
C546 C543 1.386 . S
C546 C547 1.395 . S
C547 C544 1.411 . S
C547 C546 1.395 . S
C547 C569 1.420 . S
O548 Eu504 2.558 . S
O548 C568 1.257 . S
O549 Eu504 2.612 . S
O549 Eu515 2.380 . S
O549 C560 1.276 . S
O550 Eu515 2.432 . S
O550 C567 1.264 . S
O551 Eu504 2.339 . S
O551 C567 1.254 . S
O552 Eu504 2.563 . S
O552 C560 1.235 . S
O553 Eu504 2.419 . S
O553 C568 1.249 . S
O554 Eu515 2.558 1_565 S
O554 C579 1.257 . S
O555 Eu504 2.380 . S
O555 Eu515 2.612 . S
O555 C571 1.276 . S
O556 Eu504 2.432 . S
O556 C578 1.264 . S
O557 Eu515 2.339 . S
O557 C578 1.254 . S
O558 Eu515 2.563 . S
O558 C571 1.235 . S
O559 Eu515 2.419 1_565 S
O559 C579 1.249 . S
C560 O549 1.276 . S
C560 O552 1.235 . S
C561 C563 1.393 . S
C561 C565 1.395 . S
C561 C568 1.492 . S
C562 C563 1.392 . S
C562 C564 1.386 . S
C563 C561 1.393 . S
C563 C562 1.392 . S
C563 H580 0.930 . S
C564 C562 1.386 . S
C564 C566 1.395 . S
C564 H581 0.930 . S
C565 C561 1.395 . S
C565 C566 1.379 . S
C565 H582 0.930 . S
C566 C564 1.395 . S
C566 C565 1.379 . S
C566 H583 0.930 . S
C567 O550 1.264 . S
C567 O551 1.254 . S
C568 Eu504 2.848 . S
C568 O548 1.257 . S
C568 O553 1.249 . S
C568 C561 1.492 . S
C569 H534 0.931 . S
C569 C547 1.420 . S
C569 C570 1.351 . S
C570 H532 0.930 . S
C570 C538 1.423 . S
C570 C569 1.351 . S
C571 O555 1.276 . S
C571 O558 1.235 . S
C572 C573 1.393 . S
C572 C576 1.395 . S
C572 C579 1.492 . S
C573 C572 1.393 . S
C573 C574 1.392 . S
C573 H584 0.930 . S
C574 C573 1.392 . S
C574 C575 1.386 . S
C575 C574 1.386 . S
C575 C577 1.395 . S
C575 H585 0.930 . S
C576 C572 1.395 . S
C576 C577 1.379 . S
C576 H586 0.930 . S
C577 C575 1.395 . S
C577 C576 1.379 . S
C577 H587 0.930 . S
C578 O556 1.264 . S
C578 O557 1.254 . S
C579 Eu515 2.848 1_565 S
C579 O554 1.257 . S
C579 O559 1.249 . S
C579 C572 1.492 . S
H580 C563 0.930 . S
H581 C564 0.930 . S
H582 C565 0.930 . S
H583 C566 0.930 . S
H584 C573 0.930 . S
H585 C575 0.930 . S
H586 C576 0.930 . S
H587 C577 0.930 . S
Eu588 N619 2.657 . S
Eu588 N626 2.609 . S
Eu588 O632 2.558 . S
Eu588 O633 2.612 . S
Eu588 O635 2.339 . S
Eu588 O636 2.563 . S
Eu588 O637 2.419 . S
Eu588 O639 2.380 . S
Eu588 O640 2.432 . S
Eu588 C652 2.848 . S
C589 C592 1.429 . S
C589 C593 1.411 . S
C589 N596 1.377 1_455 S
C590 C592 1.420 . S
C590 C594 1.423 . S
C590 C602 1.392 . S
C591 C593 1.420 . S
C591 C594 1.351 . S
C591 H614 0.931 . S
C592 C589 1.429 . S
C592 C590 1.420 . S
C592 N600 1.362 1_455 S
C593 C589 1.411 . S
C593 C591 1.420 . S
C593 C598 1.395 . S
C594 C590 1.423 . S
C594 C591 1.351 . S
C594 H606 0.930 . S
C595 C597 1.400 1_455 S
C595 C598 1.386 . S
C595 H607 0.930 . S
N596 C589 1.377 1_655 S
N596 C597 1.321 . S
N596 Eu599 2.609 . S
C597 C595 1.400 1_655 S
C597 N596 1.321 . S
C597 H604 0.930 . S
C598 C593 1.395 . S
C598 C595 1.386 . S
C598 H617 0.930 . S
Eu599 N596 2.609 . S
Eu599 N600 2.657 . S
Eu599 O633 2.380 . S
Eu599 O634 2.432 . S
Eu599 O638 2.558 1_655 S
Eu599 O639 2.612 . S
Eu599 O641 2.339 . S
Eu599 O642 2.563 . S
Eu599 O643 2.419 1_655 S
Eu599 C663 2.848 1_655 S
N600 C592 1.362 1_655 S
N600 Eu599 2.657 . S
N600 C601 1.334 . S
C601 N600 1.334 . S
C601 C603 1.413 1_655 S
C601 H608 0.929 . S
C602 C590 1.392 . S
C602 C603 1.367 . S
C602 H610 0.930 . S
C603 C601 1.413 1_455 S
C603 C602 1.367 . S
C603 H605 0.930 . S
H604 C597 0.930 . S
H605 C603 0.930 . S
H606 C594 0.930 . S
H607 C595 0.930 . S
H608 C601 0.929 . S
H609 C623 0.930 . S
H610 C602 0.930 . S
H611 C629 0.930 . S
H612 C620 0.929 . S
H613 C627 0.930 . S
H614 C591 0.931 . S
H615 C621 0.930 . S
H616 C654 0.930 . S
H617 C598 0.930 . S
H618 C653 0.931 . S
N619 Eu588 2.657 . S
N619 C620 1.334 . S
N619 C624 1.362 . S
C620 H612 0.929 . S
C620 N619 1.334 . S
C620 C623 1.413 . S
C621 H615 0.930 . S
C621 C622 1.392 . S
C621 C623 1.367 1_565 S
C622 C621 1.392 . S
C622 C624 1.420 1_565 S
C622 C654 1.423 . S
C623 H609 0.930 . S
C623 C620 1.413 . S
C623 C621 1.367 1_545 S
C624 N619 1.362 . S
C624 C622 1.420 1_545 S
C624 C628 1.429 . S
H625 C630 0.930 1_565 S
N626 Eu588 2.609 . S
N626 C628 1.377 . S
N626 C629 1.321 . S
C627 H613 0.930 . S
C627 C629 1.400 . S
C627 C630 1.386 . S
C628 C624 1.429 . S
C628 N626 1.377 . S
C628 C631 1.411 . S
C629 H611 0.930 . S
C629 N626 1.321 . S
C629 C627 1.400 . S
C630 H625 0.930 1_545 S
C630 C627 1.386 . S
C630 C631 1.395 . S
C631 C628 1.411 . S
C631 C630 1.395 . S
C631 C653 1.420 1_545 S
O632 Eu588 2.558 . S
O632 C652 1.257 . S
O633 Eu588 2.612 . S
O633 Eu599 2.380 . S
O633 C644 1.276 . S
O634 Eu599 2.432 . S
O634 C651 1.264 . S
O635 Eu588 2.339 . S
O635 C651 1.254 . S
O636 Eu588 2.563 . S
O636 C644 1.235 . S
O637 Eu588 2.419 . S
O637 C652 1.249 . S
O638 Eu599 2.558 1_455 S
O638 C663 1.257 . S
O639 Eu588 2.380 . S
O639 Eu599 2.612 . S
O639 C655 1.276 . S
O640 Eu588 2.432 . S
O640 C662 1.264 . S
O641 Eu599 2.339 . S
O641 C662 1.254 . S
O642 Eu599 2.563 . S
O642 C655 1.235 . S
O643 Eu599 2.419 1_455 S
O643 C663 1.249 . S
C644 O633 1.276 . S
C644 O636 1.235 . S
C645 C647 1.393 . S
C645 C649 1.395 . S
C645 C652 1.492 . S
C646 C647 1.392 . S
C646 C648 1.386 . S
C647 C645 1.393 . S
C647 C646 1.392 . S
C647 H664 0.930 . S
C648 C646 1.386 . S
C648 C650 1.395 . S
C648 H665 0.930 . S
C649 C645 1.395 . S
C649 C650 1.379 . S
C649 H666 0.930 . S
C650 C648 1.395 . S
C650 C649 1.379 . S
C650 H667 0.930 . S
C651 O634 1.264 . S
C651 O635 1.254 . S
C652 Eu588 2.848 . S
C652 O632 1.257 . S
C652 O637 1.249 . S
C652 C645 1.492 . S
C653 H618 0.931 . S
C653 C631 1.420 1_565 S
C653 C654 1.351 . S
C654 H616 0.930 . S
C654 C622 1.423 . S
C654 C653 1.351 . S
C655 O639 1.276 . S
C655 O642 1.235 . S
C656 C657 1.393 . S
C656 C660 1.395 . S
C656 C663 1.492 . S
C657 C656 1.393 . S
C657 C658 1.392 . S
C657 H668 0.930 . S
C658 C657 1.392 . S
C658 C659 1.386 . S
C659 C658 1.386 . S
C659 C661 1.395 . S
C659 H669 0.930 . S
C660 C656 1.395 . S
C660 C661 1.379 . S
C660 H670 0.930 . S
C661 C659 1.395 . S
C661 C660 1.379 . S
C661 H671 0.930 . S
C662 O640 1.264 . S
C662 O641 1.254 . S
C663 Eu599 2.848 1_455 S
C663 O638 1.257 . S
C663 O643 1.249 . S
C663 C656 1.492 . S
H664 C647 0.930 . S
H665 C648 0.930 . S
H666 C649 0.930 . S
H667 C650 0.930 . S
H668 C657 0.930 . S
H669 C659 0.930 . S
H670 C660 0.930 . S
H671 C661 0.930 . S
Eu672 N703 2.657 . S
Eu672 N710 2.609 . S
Eu672 O716 2.558 . S
Eu672 O717 2.612 . S
Eu672 O719 2.339 . S
Eu672 O720 2.563 . S
Eu672 O721 2.419 . S
Eu672 O723 2.380 . S
Eu672 O724 2.432 . S
Eu672 C736 2.848 . S
C673 C676 1.429 . S
C673 C677 1.411 . S
C673 N680 1.377 . S
C674 C676 1.420 . S
C674 C678 1.423 . S
C674 C686 1.392 . S
C675 C677 1.420 . S
C675 C678 1.351 . S
C675 H698 0.931 . S
C676 C673 1.429 . S
C676 C674 1.420 . S
C676 N684 1.362 . S
C677 C673 1.411 . S
C677 C675 1.420 . S
C677 C682 1.395 . S
C678 C674 1.423 . S
C678 C675 1.351 . S
C678 H690 0.930 . S
C679 C681 1.400 . S
C679 C682 1.386 . S
C679 H691 0.930 . S
N680 C673 1.377 . S
N680 C681 1.321 . S
N680 Eu683 2.609 . S
C681 C679 1.400 . S
C681 N680 1.321 . S
C681 H688 0.930 . S
C682 C677 1.395 . S
C682 C679 1.386 . S
C682 H701 0.930 . S
Eu683 N680 2.609 . S
Eu683 N684 2.657 . S
Eu683 O717 2.380 . S
Eu683 O718 2.432 . S
Eu683 O722 2.558 . S
Eu683 O723 2.612 . S
Eu683 O725 2.339 . S
Eu683 O726 2.563 . S
Eu683 O727 2.419 . S
Eu683 C747 2.848 . S
N684 C676 1.362 . S
N684 Eu683 2.657 . S
N684 C685 1.334 . S
C685 N684 1.334 . S
C685 C687 1.413 . S
C685 H692 0.929 . S
C686 C674 1.392 . S
C686 C687 1.367 . S
C686 H694 0.930 . S
C687 C685 1.413 . S
C687 C686 1.367 . S
C687 H689 0.930 . S
H688 C681 0.930 . S
H689 C687 0.930 . S
H690 C678 0.930 . S
H691 C679 0.930 . S
H692 C685 0.929 . S
H693 C707 0.930 . S
H694 C686 0.930 . S
H695 C713 0.930 . S
H696 C704 0.929 . S
H697 C711 0.930 . S
H698 C675 0.931 . S
H699 C705 0.930 . S
H700 C738 0.930 . S
H701 C682 0.930 . S
H702 C737 0.931 . S
N703 Eu672 2.657 . S
N703 C704 1.334 . S
N703 C708 1.362 . S
C704 H696 0.929 . S
C704 N703 1.334 . S
C704 C707 1.413 . S
C705 H699 0.930 . S
C705 C706 1.392 . S
C705 C707 1.367 1_455 S
C706 C705 1.392 . S
C706 C708 1.420 1_455 S
C706 C738 1.423 . S
C707 H693 0.930 . S
C707 C704 1.413 . S
C707 C705 1.367 1_655 S
C708 N703 1.362 . S
C708 C706 1.420 1_655 S
C708 C712 1.429 . S
H709 C714 0.930 1_455 S
N710 Eu672 2.609 . S
N710 C712 1.377 . S
N710 C713 1.321 . S
C711 H697 0.930 . S
C711 C713 1.400 . S
C711 C714 1.386 . S
C712 C708 1.429 . S
C712 N710 1.377 . S
C712 C715 1.411 1_655 S
C713 H695 0.930 . S
C713 N710 1.321 . S
C713 C711 1.400 . S
C714 H709 0.930 1_655 S
C714 C711 1.386 . S
C714 C715 1.395 1_655 S
C715 C712 1.411 1_455 S
C715 C714 1.395 1_455 S
C715 C737 1.420 . S
O716 Eu672 2.558 . S
O716 C736 1.257 . S
O717 Eu672 2.612 . S
O717 Eu683 2.380 . S
O717 C728 1.276 . S
O718 Eu683 2.432 . S
O718 C735 1.264 . S
O719 Eu672 2.339 . S
O719 C735 1.254 . S
O720 Eu672 2.563 . S
O720 C728 1.235 . S
O721 Eu672 2.419 . S
O721 C736 1.249 . S
O722 Eu683 2.558 . S
O722 C747 1.257 . S
O723 Eu672 2.380 . S
O723 Eu683 2.612 . S
O723 C739 1.276 . S
O724 Eu672 2.432 . S
O724 C746 1.264 . S
O725 Eu683 2.339 . S
O725 C746 1.254 . S
O726 Eu683 2.563 . S
O726 C739 1.235 . S
O727 Eu683 2.419 . S
O727 C747 1.249 . S
C728 O717 1.276 . S
C728 O720 1.235 . S
C729 C731 1.393 . S
C729 C733 1.395 . S
C729 C736 1.492 . S
C730 C731 1.392 . S
C730 C732 1.386 . S
C731 C729 1.393 . S
C731 C730 1.392 . S
C731 H748 0.930 . S
C732 C730 1.386 . S
C732 C734 1.395 . S
C732 H749 0.930 . S
C733 C729 1.395 . S
C733 C734 1.379 . S
C733 H750 0.930 . S
C734 C732 1.395 . S
C734 C733 1.379 . S
C734 H751 0.930 . S
C735 O718 1.264 . S
C735 O719 1.254 . S
C736 Eu672 2.848 . S
C736 O716 1.257 . S
C736 O721 1.249 . S
C736 C729 1.492 . S
C737 H702 0.931 . S
C737 C715 1.420 . S
C737 C738 1.351 . S
C738 H700 0.930 . S
C738 C706 1.423 . S
C738 C737 1.351 . S
C739 O723 1.276 . S
C739 O726 1.235 . S
C740 C741 1.393 . S
C740 C744 1.395 . S
C740 C747 1.492 . S
C741 C740 1.393 . S
C741 C742 1.392 . S
C741 H752 0.930 . S
C742 C741 1.392 . S
C742 C743 1.386 . S
C743 C742 1.386 . S
C743 C745 1.395 . S
C743 H753 0.930 . S
C744 C740 1.395 . S
C744 C745 1.379 . S
C744 H754 0.930 . S
C745 C743 1.395 . S
C745 C744 1.379 . S
C745 H755 0.930 . S
C746 O724 1.264 . S
C746 O725 1.254 . S
C747 Eu683 2.848 . S
C747 O722 1.257 . S
C747 O727 1.249 . S
C747 C740 1.492 . S
H748 C731 0.930 . S
H749 C732 0.930 . S
H750 C733 0.930 . S
H751 C734 0.930 . S
H752 C741 0.930 . S
H753 C743 0.930 . S
H754 C744 0.930 . S
H755 C745 0.930 . S
C756 C757 1.363 . S
C756 C762 1.379 1_554 S
C756 N764 1.356 . S
C757 C756 1.363 . S
C757 C763 1.363 . S
C758 C759 1.363 . S
C758 C763 1.379 . S
C758 N765 1.356 . S
C759 C758 1.363 . S
C759 C762 1.363 1_554 S
N760 C762 1.356 . S
N760 H772 0.984 . S
N760 H773 0.985 . S
N761 C763 1.356 . S
N761 H766 0.984 . S
N761 H767 0.985 . S
C762 C756 1.379 1_556 S
C762 C759 1.363 1_556 S
C762 N760 1.356 . S
C763 C757 1.363 . S
C763 C758 1.379 . S
C763 N761 1.356 . S
N764 C756 1.356 . S
N764 H770 0.984 1_554 S
N764 H771 0.984 . S
N765 C758 1.356 . S
N765 H768 0.984 . S
N765 H769 0.985 . S
H766 N761 0.984 . S
H767 N761 0.985 . S
H768 N765 0.984 . S
H769 N765 0.985 . S
H770 N764 0.984 1_556 S
H771 N764 0.984 . S
H772 N760 0.984 . S
H773 N760 0.985 . S
C774 C775 1.363 1_556 S
C774 C780 1.379 . S
C774 N782 1.356 . S
C775 C774 1.363 1_554 S
C775 C781 1.363 . S
C776 C777 1.363 . S
C776 C781 1.379 . S
C776 N783 1.356 . S
C777 C776 1.363 . S
C777 C780 1.363 1_554 S
N778 C780 1.356 . S
N778 H790 0.984 . S
N778 H791 0.985 . S
N779 C781 1.356 . S
N779 H784 0.984 . S
N779 H785 0.985 . S
C780 C774 1.379 . S
C780 C777 1.363 1_556 S
C780 N778 1.356 . S
C781 C775 1.363 . S
C781 C776 1.379 . S
C781 N779 1.356 . S
N782 C774 1.356 . S
N782 H788 0.984 . S
N782 H789 0.984 . S
N783 C776 1.356 . S
N783 H786 0.984 . S
N783 H787 0.985 . S
H784 N779 0.984 . S
H785 N779 0.985 . S
H786 N783 0.984 . S
H787 N783 0.985 . S
H788 N782 0.984 . S
H789 N782 0.984 . S
H790 N778 0.984 . S
H791 N778 0.985 . S
C792 C793 1.363 . S
C792 C798 1.379 . S
C792 N800 1.356 . S
C793 C792 1.363 . S
C793 C799 1.363 1_554 S
C794 C795 1.363 1_556 S
C794 C799 1.379 . S
C794 N801 1.356 . S
C795 C794 1.363 1_554 S
C795 C798 1.363 . S
N796 C798 1.356 . S
N796 H808 0.984 . S
N796 H809 0.985 . S
N797 C799 1.356 . S
N797 H802 0.984 . S
N797 H803 0.985 . S
C798 C792 1.379 . S
C798 C795 1.363 . S
C798 N796 1.356 . S
C799 C793 1.363 1_556 S
C799 C794 1.379 . S
C799 N797 1.356 . S
N800 C792 1.356 . S
N800 H806 0.984 . S
N800 H807 0.984 . S
N801 C794 1.356 . S
N801 H804 0.984 . S
N801 H805 0.985 . S
H802 N797 0.984 . S
H803 N797 0.985 . S
H804 N801 0.984 . S
H805 N801 0.985 . S
H806 N800 0.984 . S
H807 N800 0.984 . S
H808 N796 0.984 . S
H809 N796 0.985 . S
C810 C811 1.363 1_554 S
C810 C816 1.379 . S
C810 N818 1.356 . S
C811 C810 1.363 1_556 S
C811 C817 1.363 . S
C812 C813 1.356 1_556 S
C812 C817 1.379 . S
C812 N819 1.356 . S
C813 C812 1.356 1_554 S
C813 C816 1.369 . S
N814 C816 1.356 . S
N814 H826 0.984 . S
N814 H827 0.985 . S
N815 C817 1.356 . S
N815 H820 0.984 . S
N815 H821 0.985 . S
C816 C810 1.379 . S
C816 C813 1.369 . S
C816 N814 1.356 . S
C817 C811 1.363 . S
C817 C812 1.379 . S
C817 N815 1.356 . S
N818 C810 1.356 . S
N818 H824 0.984 . S
N818 H825 0.984 . S
N819 C812 1.356 . S
N819 H822 0.984 . S
N819 H823 0.985 . S
H820 N815 0.984 . S
H821 N815 0.985 . S
H822 N819 0.984 . S
H823 N819 0.985 . S
H824 N818 0.984 . S
H825 N818 0.984 . S
H826 N814 0.984 . S
H827 N814 0.985 . S
C828 C829 1.367 . S
C828 C834 1.379 . S
C828 N836 1.356 . S
C829 C828 1.367 . S
C829 C835 1.357 1_554 S
C830 C831 1.363 . S
C830 C835 1.379 . S
C830 N837 1.356 . S
C831 C830 1.363 . S
C831 C834 1.363 1_556 S
N832 C834 1.356 . S
N832 H844 0.984 . S
N832 H845 0.985 . S
N833 C835 1.356 . S
N833 H838 0.984 . S
N833 H839 0.985 . S
C834 C828 1.379 . S
C834 C831 1.363 1_554 S
C834 N832 1.356 . S
C835 C829 1.357 1_556 S
C835 C830 1.379 . S
C835 N833 1.356 . S
N836 C828 1.356 . S
N836 H842 0.984 . S
N836 H843 0.984 . S
N837 C830 1.356 . S
N837 H840 0.984 . S
N837 H841 0.985 . S
H838 N833 0.984 . S
H839 N833 0.985 . S
H840 N837 0.984 . S
H841 N837 0.985 . S
H842 N836 0.984 . S
H843 N836 0.984 . S
H844 N832 0.984 . S
H845 N832 0.985 . S
C846 C847 1.366 . S
C846 C852 1.379 . S
C846 N854 1.356 . S
C847 C846 1.366 . S
C847 C853 1.358 1_554 S
C848 C849 1.363 . S
C848 C853 1.379 . S
C848 N855 1.356 . S
C849 C848 1.363 . S
C849 C852 1.363 1_556 S
N850 C852 1.356 . S
N850 H862 0.984 . S
N850 H863 0.985 . S
N851 C853 1.356 . S
N851 H856 0.984 . S
N851 H857 0.985 . S
C852 C846 1.379 . S
C852 C849 1.363 1_554 S
C852 N850 1.356 . S
C853 C847 1.358 1_556 S
C853 C848 1.379 . S
C853 N851 1.356 . S
N854 C846 1.356 . S
N854 H860 0.984 . S
N854 H861 0.984 . S
N855 C848 1.356 . S
N855 H858 0.984 . S
N855 H859 0.985 . S
H856 N851 0.984 . S
H857 N851 0.985 . S
H858 N855 0.984 . S
H859 N855 0.985 . S
H860 N854 0.984 . S
H861 N854 0.984 . S
H862 N850 0.984 . S
H863 N850 0.985 . S
C864 C865 1.363 . S
C864 C870 1.379 . S
C864 N872 1.356 . S
C865 C864 1.363 . S
C865 C871 1.363 . S
C866 C867 1.363 . S
C866 C871 1.379 . S
C866 N873 1.356 . S
C867 C866 1.363 . S
C867 C870 1.363 . S
N868 C870 1.356 . S
N868 H880 0.984 . S
N868 H881 0.985 . S
N869 C871 1.356 . S
N869 H874 0.984 . S
N869 H875 0.985 . S
C870 C864 1.379 . S
C870 C867 1.363 . S
C870 N868 1.356 . S
C871 C865 1.363 . S
C871 C866 1.379 . S
C871 N869 1.356 . S
N872 C864 1.356 . S
N872 H878 0.984 . S
N872 H879 0.984 . S
N873 C866 1.356 . S
N873 H876 0.984 . S
N873 H877 0.985 . S
H874 N869 0.984 . S
H875 N869 0.985 . S
H876 N873 0.984 . S
H877 N873 0.985 . S
H878 N872 0.984 . S
H879 N872 0.984 . S
H880 N868 0.984 . S
H881 N868 0.985 . S
C882 C883 1.363 . S
C882 C888 1.379 . S
C882 N890 1.356 . S
C883 C882 1.363 . S
C883 C889 1.363 . S
C884 C885 1.363 . S
C884 C889 1.379 1_565 S
C884 N891 1.356 . S
C885 C884 1.363 . S
C885 C888 1.363 1_565 S
N886 C888 1.356 . S
N886 H898 0.984 . S
N886 H899 0.976 1_545 S
N887 C889 1.356 . S
N887 H892 0.984 . S
N887 H893 0.985 1_545 S
C888 C882 1.379 . S
C888 C885 1.363 1_545 S
C888 N886 1.356 . S
C889 C883 1.363 . S
C889 C884 1.379 1_545 S
C889 N887 1.356 . S
N890 C882 1.356 . S
N890 H896 0.984 . S
N890 H897 0.984 . S
N891 C884 1.356 . S
N891 H894 0.984 . S
N891 H895 0.985 . S
H892 N887 0.984 . S
H893 N887 0.985 1_565 S
H894 N891 0.984 . S
H895 N891 0.985 . S
H896 N890 0.984 . S
H897 N890 0.984 . S
H898 N886 0.984 . S
H899 N886 0.976 1_565 S
C900 C901 1.363 . S
C900 C906 1.380 . S
C900 N908 1.356 . S
C901 C900 1.363 . S
C901 C907 1.363 1_455 S
C902 C903 1.363 . S
C902 C907 1.379 . S
C902 N909 1.356 . S
C903 C902 1.363 . S
C903 C906 1.357 1_655 S
N904 C906 1.360 1_655 S
N904 H916 0.984 1_655 S
N904 H917 0.985 . S
N905 C907 1.356 . S
N905 H910 0.984 1_655 S
N905 H911 0.985 . S
C906 C900 1.380 . S
C906 C903 1.357 1_455 S
C906 N904 1.360 1_455 S
C907 C901 1.363 1_655 S
C907 C902 1.379 . S
C907 N905 1.356 . S
N908 C900 1.356 . S
N908 H914 0.984 . S
N908 H915 0.984 . S
N909 C902 1.356 . S
N909 H912 0.984 . S
N909 H913 0.985 . S
H910 N905 0.984 1_455 S
H911 N905 0.985 . S
H912 N909 0.984 . S
H913 N909 0.985 . S
H914 N908 0.984 . S
H915 N908 0.984 . S
H916 N904 0.984 1_455 S
H917 N904 0.985 . S
C918 C919 1.363 . S
C918 C924 1.379 . S
C918 N926 1.356 . S
C919 C918 1.363 . S
C919 C925 1.363 . S
C920 C921 1.363 . S
C920 C925 1.379 . S
C920 N927 1.356 . S
C921 C920 1.363 . S
C921 C924 1.363 . S
N922 C924 1.356 . S
N922 H934 0.984 . S
N922 H935 0.985 . S
N923 C925 1.356 . S
N923 H928 0.984 . S
N923 H929 0.985 . S
C924 C918 1.379 . S
C924 C921 1.363 . S
C924 N922 1.356 . S
C925 C919 1.363 . S
C925 C920 1.379 . S
C925 N923 1.356 . S
N926 C918 1.356 . S
N926 H932 0.984 . S
N926 H933 0.984 . S
N927 C920 1.356 . S
N927 H930 0.984 . S
N927 H931 0.985 . S
H928 N923 0.984 . S
H929 N923 0.985 . S
H930 N927 0.984 . S
H931 N927 0.985 . S
H932 N926 0.984 . S
H933 N926 0.984 . S
H934 N922 0.984 . S
H935 N922 0.985 . S
C936 C937 1.363 . S
C936 C942 1.379 . S
C936 N944 1.356 . S
C937 C936 1.363 . S
C937 C943 1.363 . S
C938 C939 1.363 . S
C938 C943 1.379 . S
C938 N945 1.356 . S
C939 C938 1.363 . S
C939 C942 1.363 . S
N940 C942 1.356 . S
N940 H952 0.984 . S
N940 H953 0.985 . S
N941 C943 1.356 . S
N941 H946 0.984 . S
N941 H947 0.985 . S
C942 C936 1.379 . S
C942 C939 1.363 . S
C942 N940 1.356 . S
C943 C937 1.363 . S
C943 C938 1.379 . S
C943 N941 1.356 . S
N944 C936 1.356 . S
N944 H950 0.984 . S
N944 H951 0.984 . S
N945 C938 1.356 . S
N945 H948 0.984 . S
N945 H949 0.985 . S
H946 N941 0.984 . S
H947 N941 0.985 . S
H948 N945 0.984 . S
H949 N945 0.985 . S
H950 N944 0.984 . S
H951 N944 0.984 . S
H952 N940 0.984 . S
H953 N940 0.985 . S
C954 C955 1.363 . S
C954 C960 1.379 . S
C954 N962 1.356 . S
C955 C954 1.363 . S
C955 C961 1.363 . S
C956 C957 1.363 . S
C956 C961 1.379 . S
C956 N963 1.356 . S
C957 C956 1.363 . S
C957 C960 1.363 . S
N958 C960 1.356 . S
N958 H970 0.984 . S
N958 H971 0.985 . S
N959 C961 1.356 . S
N959 H964 0.984 . S
N959 H965 0.985 . S
C960 C954 1.379 . S
C960 C957 1.363 . S
C960 N958 1.356 . S
C961 C955 1.363 . S
C961 C956 1.379 . S
C961 N959 1.356 . S
N962 C954 1.356 . S
N962 H968 0.984 . S
N962 H969 0.984 . S
N963 C956 1.356 . S
N963 H966 0.984 . S
N963 H967 0.985 . S
H964 N959 0.984 . S
H965 N959 0.985 . S
H966 N963 0.984 . S
H967 N963 0.985 . S
H968 N962 0.984 . S
H969 N962 0.984 . S
H970 N958 0.984 . S
H971 N958 0.985 . S
C972 C973 1.363 . S
C972 C978 1.379 . S
C972 N980 1.356 . S
C973 C972 1.363 . S
C973 C979 1.363 . S
C974 C975 1.363 . S
C974 C979 1.379 . S
C974 N981 1.356 . S
C975 C974 1.363 . S
C975 C978 1.363 . S
N976 C978 1.356 . S
N976 H988 0.984 . S
N976 H989 0.985 . S
N977 C979 1.356 . S
N977 H982 0.984 . S
N977 H983 0.985 . S
C978 C972 1.379 . S
C978 C975 1.363 . S
C978 N976 1.356 . S
C979 C973 1.363 . S
C979 C974 1.379 . S
C979 N977 1.356 . S
N980 C972 1.356 . S
N980 H986 0.984 . S
N980 H987 0.984 . S
N981 C974 1.356 . S
N981 H984 0.984 . S
N981 H985 0.985 . S
H982 N977 0.984 . S
H983 N977 0.985 . S
H984 N981 0.984 . S
H985 N981 0.985 . S
H986 N980 0.984 . S
H987 N980 0.984 . S
H988 N976 0.984 . S
H989 N976 0.985 . S
C990 C991 1.363 . S
C990 C996 1.379 . S
C990 N998 1.356 . S
C991 C990 1.363 . S
C991 C997 1.363 . S
C992 C993 1.363 . S
C992 C997 1.379 . S
C992 N999 1.356 . S
C993 C992 1.363 . S
C993 C996 1.363 . S
N994 C996 1.356 . S
N994 H1006 0.984 . S
N994 H1007 0.985 . S
N995 C997 1.356 . S
N995 H1000 0.984 . S
N995 H1001 0.985 . S
C996 C990 1.379 . S
C996 C993 1.363 . S
C996 N994 1.356 . S
C997 C991 1.363 . S
C997 C992 1.379 . S
C997 N995 1.356 . S
N998 C990 1.356 . S
N998 H1004 0.984 . S
N998 H1005 0.984 . S
N999 C992 1.356 . S
N999 H1002 0.984 . S
N999 H1003 0.985 . S
H1000 N995 0.984 . S
H1001 N995 0.985 . S
H1002 N999 0.984 . S
H1003 N999 0.985 . S
H1004 N998 0.984 . S
H1005 N998 0.984 . S
H1006 N994 0.984 . S
H1007 N994 0.985 . S
C1008 C1009 1.363 . S
C1008 C1014 1.379 . S
C1008 N1016 1.356 . S
C1009 C1008 1.363 . S
C1009 C1015 1.363 . S
C1010 C1011 1.363 . S
C1010 C1015 1.379 . S
C1010 N1017 1.356 . S
C1011 C1010 1.363 . S
C1011 C1014 1.363 . S
N1012 C1014 1.356 . S
N1012 H1024 0.984 . S
N1012 H1025 0.985 . S
N1013 C1015 1.356 . S
N1013 H1018 0.984 . S
N1013 H1019 0.985 . S
C1014 C1008 1.379 . S
C1014 C1011 1.363 . S
C1014 N1012 1.356 . S
C1015 C1009 1.363 . S
C1015 C1010 1.379 . S
C1015 N1013 1.356 . S
N1016 C1008 1.356 . S
N1016 H1022 0.984 . S
N1016 H1023 0.984 . S
N1017 C1010 1.356 . S
N1017 H1020 0.984 . S
N1017 H1021 0.985 . S
H1018 N1013 0.984 . S
H1019 N1013 0.985 . S
H1020 N1017 0.984 . S
H1021 N1017 0.985 . S
H1022 N1016 0.984 . S
H1023 N1016 0.984 . S
H1024 N1012 0.984 . S
H1025 N1012 0.985 . S
C1026 C1027 1.363 . S
C1026 C1032 1.379 1_565 S
C1026 N1034 1.356 . S
C1027 C1026 1.363 . S
C1027 C1033 1.363 1_565 S
C1028 C1029 1.363 . S
C1028 C1033 1.379 . S
C1028 N1035 1.356 . S
C1029 C1028 1.363 . S
C1029 C1032 1.363 . S
N1030 C1032 1.356 . S
N1030 H1042 0.984 . S
N1030 H1043 0.985 . S
N1031 C1033 1.356 1_565 S
N1031 H1036 0.984 . S
N1031 H1037 0.985 . S
C1032 C1026 1.379 1_545 S
C1032 C1029 1.363 . S
C1032 N1030 1.356 . S
C1033 C1027 1.363 1_545 S
C1033 C1028 1.379 . S
C1033 N1031 1.356 1_545 S
N1034 C1026 1.356 . S
N1034 H1040 0.984 . S
N1034 H1041 0.984 . S
N1035 C1028 1.356 . S
N1035 H1038 0.984 . S
N1035 H1039 0.985 . S
H1036 N1031 0.984 . S
H1037 N1031 0.985 . S
H1038 N1035 0.984 . S
H1039 N1035 0.985 . S
H1040 N1034 0.984 . S
H1041 N1034 0.984 . S
H1042 N1030 0.984 . S
H1043 N1030 0.985 . S
C1044 C1045 1.363 . S
C1044 C1050 1.379 1_655 S
C1044 N1052 1.356 . S
C1045 C1044 1.363 . S
C1045 C1051 1.363 . S
C1046 C1047 1.363 . S
C1046 C1051 1.379 1_455 S
C1046 N1053 1.356 . S
C1047 C1046 1.363 . S
C1047 C1050 1.363 . S
N1048 C1050 1.356 . S
N1048 H1060 0.984 . S
N1048 H1061 0.985 . S
N1049 C1051 1.356 . S
N1049 H1054 0.984 . S
N1049 H1055 0.985 . S
C1050 C1044 1.379 1_455 S
C1050 C1047 1.363 . S
C1050 N1048 1.356 . S
C1051 C1045 1.363 . S
C1051 C1046 1.379 1_655 S
C1051 N1049 1.356 . S
N1052 C1044 1.356 . S
N1052 H1058 0.984 . S
N1052 H1059 0.984 . S
N1053 C1046 1.356 . S
N1053 H1056 0.984 . S
N1053 H1057 0.985 . S
H1054 N1049 0.984 . S
H1055 N1049 0.985 . S
H1056 N1053 0.984 . S
H1057 N1053 0.985 . S
H1058 N1052 0.984 . S
H1059 N1052 0.984 . S
H1060 N1048 0.984 . S
H1061 N1048 0.985 . S
C1062 C1063 1.363 . S
C1062 C1068 1.379 . S
C1062 N1070 1.356 . S
C1063 C1062 1.363 . S
C1063 C1069 1.363 . S
C1064 C1065 1.363 . S
C1064 C1069 1.379 . S
C1064 N1071 1.356 . S
C1065 C1064 1.363 . S
C1065 C1068 1.363 . S
N1066 C1068 1.356 . S
N1066 H1078 0.984 . S
N1066 H1079 0.985 . S
N1067 C1069 1.356 . S
N1067 H1072 0.984 . S
N1067 H1073 0.985 . S
C1068 C1062 1.379 . S
C1068 C1065 1.363 . S
C1068 N1066 1.356 . S
C1069 C1063 1.363 . S
C1069 C1064 1.379 . S
C1069 N1067 1.356 . S
N1070 C1062 1.356 . S
N1070 H1076 0.984 . S
N1070 H1077 0.984 . S
N1071 C1064 1.356 . S
N1071 H1074 0.984 . S
N1071 H1075 0.985 . S
H1072 N1067 0.984 . S
H1073 N1067 0.985 . S
H1074 N1071 0.984 . S
H1075 N1071 0.985 . S
H1076 N1070 0.984 . S
H1077 N1070 0.984 . S
H1078 N1066 0.984 . S
H1079 N1066 0.985 . S
C1080 C1081 1.363 . S
C1080 C1086 1.379 . S
C1080 N1088 1.356 . S
C1081 C1080 1.363 . S
C1081 C1087 1.363 . S
C1082 C1083 1.363 . S
C1082 C1087 1.379 . S
C1082 N1089 1.356 . S
C1083 C1082 1.363 . S
C1083 C1086 1.363 . S
N1084 C1086 1.356 . S
N1084 H1096 0.984 . S
N1084 H1097 0.985 . S
N1085 C1087 1.356 . S
N1085 H1090 0.984 . S
N1085 H1091 0.985 . S
C1086 C1080 1.379 . S
C1086 C1083 1.363 . S
C1086 N1084 1.356 . S
C1087 C1081 1.363 . S
C1087 C1082 1.379 . S
C1087 N1085 1.356 . S
N1088 C1080 1.356 . S
N1088 H1094 0.984 . S
N1088 H1095 0.984 . S
N1089 C1082 1.356 . S
N1089 H1092 0.984 . S
N1089 H1093 0.985 . S
H1090 N1085 0.984 . S
H1091 N1085 0.985 . S
H1092 N1089 0.984 . S
H1093 N1089 0.985 . S
H1094 N1088 0.984 . S
H1095 N1088 0.984 . S
H1096 N1084 0.984 . S
H1097 N1084 0.985 . S
C1098 C1099 1.363 . S
C1098 C1104 1.379 . S
C1098 N1106 1.356 . S
C1099 C1098 1.363 . S
C1099 C1105 1.363 . S
C1100 C1101 1.363 . S
C1100 C1105 1.379 . S
C1100 N1107 1.356 . S
C1101 C1100 1.363 . S
C1101 C1104 1.363 . S
N1102 C1104 1.356 . S
N1102 H1114 0.984 . S
N1102 H1115 0.985 . S
N1103 C1105 1.356 . S
N1103 H1108 0.984 . S
N1103 H1109 0.985 . S
C1104 C1098 1.379 . S
C1104 C1101 1.363 . S
C1104 N1102 1.356 . S
C1105 C1099 1.363 . S
C1105 C1100 1.379 . S
C1105 N1103 1.356 . S
N1106 C1098 1.356 . S
N1106 H1112 0.984 . S
N1106 H1113 0.984 . S
N1107 C1100 1.356 . S
N1107 H1110 0.984 . S
N1107 H1111 0.985 . S
H1108 N1103 0.984 . S
H1109 N1103 0.985 . S
H1110 N1107 0.984 . S
H1111 N1107 0.985 . S
H1112 N1106 0.984 . S
H1113 N1106 0.984 . S
H1114 N1102 0.984 . S
H1115 N1102 0.985 . S
C1116 C1117 1.363 . S
C1116 C1122 1.379 . S
C1116 N1124 1.356 . S
C1117 C1116 1.363 . S
C1117 C1123 1.363 . S
C1118 C1119 1.363 . S
C1118 C1123 1.379 . S
C1118 N1125 1.356 . S
C1119 C1118 1.363 . S
C1119 C1122 1.363 . S
N1120 C1122 1.356 . S
N1120 H1132 0.984 . S
N1120 H1133 0.985 . S
N1121 C1123 1.356 . S
N1121 H1126 0.984 . S
N1121 H1127 0.985 1_565 S
C1122 C1116 1.379 . S
C1122 C1119 1.363 . S
C1122 N1120 1.356 . S
C1123 C1117 1.363 . S
C1123 C1118 1.379 . S
C1123 N1121 1.356 . S
N1124 C1116 1.356 . S
N1124 H1130 0.984 . S
N1124 H1131 0.984 . S
N1125 C1118 1.356 . S
N1125 H1128 0.984 . S
N1125 H1129 0.985 . S
H1126 N1121 0.984 . S
H1127 N1121 0.985 1_545 S
H1128 N1125 0.984 . S
H1129 N1125 0.985 . S
H1130 N1124 0.984 . S
H1131 N1124 0.984 . S
H1132 N1120 0.984 . S
H1133 N1120 0.985 . S
C1134 C1135 1.363 . S
C1134 C1140 1.379 . S
C1134 N1142 1.356 . S
C1135 C1134 1.363 . S
C1135 C1141 1.363 . S
C1136 C1137 1.363 . S
C1136 C1141 1.379 . S
C1136 N1143 1.356 . S
C1137 C1136 1.363 . S
C1137 C1140 1.363 . S
N1138 C1140 1.356 . S
N1138 H1150 0.984 . S
N1138 H1151 0.985 . S
N1139 C1141 1.356 . S
N1139 H1144 0.984 . S
N1139 H1145 0.985 . S
C1140 C1134 1.379 . S
C1140 C1137 1.363 . S
C1140 N1138 1.356 . S
C1141 C1135 1.363 . S
C1141 C1136 1.379 . S
C1141 N1139 1.356 . S
N1142 C1134 1.356 . S
N1142 H1148 0.984 . S
N1142 H1149 0.984 . S
N1143 C1136 1.356 . S
N1143 H1146 0.984 . S
N1143 H1147 0.985 . S
H1144 N1139 0.984 . S
H1145 N1139 0.985 . S
H1146 N1143 0.984 . S
H1147 N1143 0.985 . S
H1148 N1142 0.984 . S
H1149 N1142 0.984 . S
H1150 N1138 0.984 . S
H1151 N1138 0.985 . S
C1152 C1153 1.363 . S
C1152 C1158 1.379 . S
C1152 N1160 1.356 . S
C1153 C1152 1.363 . S
C1153 C1159 1.363 . S
C1154 C1155 1.363 . S
C1154 C1159 1.379 . S
C1154 N1161 1.356 . S
C1155 C1154 1.363 . S
C1155 C1158 1.363 . S
N1156 C1158 1.356 . S
N1156 H1168 0.984 . S
N1156 H1169 0.985 . S
N1157 C1159 1.356 . S
N1157 H1162 0.984 . S
N1157 H1163 0.985 . S
C1158 C1152 1.379 . S
C1158 C1155 1.363 . S
C1158 N1156 1.356 . S
C1159 C1153 1.363 . S
C1159 C1154 1.379 . S
C1159 N1157 1.356 . S
N1160 C1152 1.356 . S
N1160 H1166 0.984 . S
N1160 H1167 0.984 . S
N1161 C1154 1.356 . S
N1161 H1164 0.984 . S
N1161 H1165 0.985 . S
H1162 N1157 0.984 . S
H1163 N1157 0.985 . S
H1164 N1161 0.984 . S
H1165 N1161 0.985 . S
H1166 N1160 0.984 . S
H1167 N1160 0.984 . S
H1168 N1156 0.984 . S
H1169 N1156 0.985 . S
C1170 C1171 1.363 . S
C1170 C1176 1.379 . S
C1170 N1178 1.356 . S
C1171 C1170 1.363 . S
C1171 C1177 1.363 . S
C1172 C1173 1.363 . S
C1172 C1177 1.379 . S
C1172 N1179 1.356 . S
C1173 C1172 1.363 . S
C1173 C1176 1.363 . S
N1174 C1176 1.356 . S
N1174 H1186 0.984 . S
N1174 H1187 0.985 . S
N1175 C1177 1.356 . S
N1175 H1180 0.984 . S
N1175 H1181 0.985 . S
C1176 C1170 1.379 . S
C1176 C1173 1.363 . S
C1176 N1174 1.356 . S
C1177 C1171 1.363 . S
C1177 C1172 1.379 . S
C1177 N1175 1.356 . S
N1178 C1170 1.356 . S
N1178 H1184 0.984 . S
N1178 H1185 0.984 . S
N1179 C1172 1.356 . S
N1179 H1182 0.984 . S
N1179 H1183 0.985 . S
H1180 N1175 0.984 . S
H1181 N1175 0.985 . S
H1182 N1179 0.984 . S
H1183 N1179 0.985 . S
H1184 N1178 0.984 . S
H1185 N1178 0.984 . S
H1186 N1174 0.984 . S
H1187 N1174 0.985 . S
C1188 C1189 1.363 . S
C1188 C1194 1.379 . S
C1188 N1196 1.356 . S
C1189 C1188 1.363 . S
C1189 C1195 1.363 . S
C1190 C1191 1.363 . S
C1190 C1195 1.379 . S
C1190 N1197 1.356 . S
C1191 C1190 1.363 . S
C1191 C1194 1.363 . S
N1192 C1194 1.356 . S
N1192 H1204 0.984 . S
N1192 H1205 0.985 . S
N1193 C1195 1.356 . S
N1193 H1198 0.984 . S
N1193 H1199 0.985 . S
C1194 C1188 1.379 . S
C1194 C1191 1.363 . S
C1194 N1192 1.356 . S
C1195 C1189 1.363 . S
C1195 C1190 1.379 . S
C1195 N1193 1.356 . S
N1196 C1188 1.356 . S
N1196 H1202 0.984 . S
N1196 H1203 0.984 . S
N1197 C1190 1.356 . S
N1197 H1200 0.984 . S
N1197 H1201 0.985 . S
H1198 N1193 0.984 . S
H1199 N1193 0.985 . S
H1200 N1197 0.984 . S
H1201 N1197 0.985 . S
H1202 N1196 0.984 . S
H1203 N1196 0.984 . S
H1204 N1192 0.984 . S
H1205 N1192 0.985 . S
C1206 C1207 1.363 . S
C1206 C1212 1.364 1_565 S
C1206 N1214 1.356 . S
C1207 C1206 1.363 . S
C1207 C1213 1.363 . S
C1208 C1209 1.363 . S
C1208 C1213 1.379 1_545 S
C1208 N1215 1.356 . S
C1209 C1208 1.363 . S
C1209 C1212 1.373 . S
N1210 C1212 1.366 . S
N1210 H1222 0.984 1_545 S
N1210 H1223 0.985 . S
N1211 C1213 1.356 . S
N1211 H1216 0.984 . S
N1211 H1217 0.990 . S
C1212 C1206 1.364 1_545 S
C1212 C1209 1.373 . S
C1212 N1210 1.366 . S
C1213 C1207 1.363 . S
C1213 C1208 1.379 1_565 S
C1213 N1211 1.356 . S
N1214 C1206 1.356 . S
N1214 H1220 0.984 . S
N1214 H1221 0.984 . S
N1215 C1208 1.356 . S
N1215 H1218 0.984 . S
N1215 H1219 0.985 . S
H1216 N1211 0.984 . S
H1217 N1211 0.990 . S
H1218 N1215 0.984 . S
H1219 N1215 0.985 . S
H1220 N1214 0.984 . S
H1221 N1214 0.984 . S
H1222 N1210 0.984 1_565 S
H1223 N1210 0.985 . S
C1224 C1225 1.363 . S
C1224 C1230 1.379 1_655 S
C1224 N1232 1.356 . S
C1225 C1224 1.363 . S
C1225 C1231 1.363 1_655 S
C1226 C1227 1.363 . S
C1226 C1231 1.379 . S
C1226 N1233 1.356 . S
C1227 C1226 1.363 . S
C1227 C1230 1.363 . S
N1228 C1230 1.356 . S
N1228 H1240 0.984 . S
N1228 H1241 0.985 . S
N1229 C1231 1.356 1_655 S
N1229 H1234 0.984 . S
N1229 H1235 0.984 1_655 S
C1230 C1224 1.379 1_455 S
C1230 C1227 1.363 . S
C1230 N1228 1.356 . S
C1231 C1225 1.363 1_455 S
C1231 C1226 1.379 . S
C1231 N1229 1.356 1_455 S
N1232 C1224 1.356 . S
N1232 H1238 0.984 . S
N1232 H1239 0.984 . S
N1233 C1226 1.356 . S
N1233 H1236 0.984 . S
N1233 H1237 0.985 . S
H1234 N1229 0.984 . S
H1235 N1229 0.984 1_455 S
H1236 N1233 0.984 . S
H1237 N1233 0.985 . S
H1238 N1232 0.984 . S
H1239 N1232 0.984 . S
H1240 N1228 0.984 . S
H1241 N1228 0.985 . S
C757 C142 1.179 . S
C759 C56 1.382 1_554 S
C775 C226 1.179 . S
C777 C140 1.382 1_554 S
C793 C224 1.382 1_554 S
C795 C58 1.179 . S
C811 C238 1.267 . S
C813 C151 1.455 . S
C829 C235 1.455 . S
C831 C70 1.267 . S
C847 C67 1.455 . S
C849 C154 1.267 . S
C865 C308 1.382 . S
C867 C394 1.179 . S
C883 C478 1.179 . S
C885 C392 1.382 . S
C901 C476 1.382 . S
C903 C310 1.179 . S
C919 C403 1.453 . S
C921 C490 1.268 . S
C937 C487 1.453 . S
C939 C322 1.268 . S
C955 C406 1.268 . S
C957 C319 1.453 . S
C973 C646 1.179 . S
C975 C560 1.382 . S
C991 C644 1.382 . S
C993 C730 1.179 . S
C1009 C728 1.382 . S
C1011 C562 1.179 . S
C1027 C742 1.268 . S
C1029 C655 1.453 . S
C1045 C739 1.453 . S
C1047 C574 1.268 . S
C1063 C571 1.453 . S
C1065 C658 1.268 . S
C1081 C494 2.581 . S
C1083 C63 2.657 . S
C1099 C326 2.581 . S
C1101 C147 2.657 . S
C1117 C231 2.657 . S
C1119 C410 2.581 . S
C1135 C242 2.581 . S
C1137 C567 2.657 . S
C1153 C74 2.582 . S
C1155 C651 2.657 . S
C1171 C735 2.657 . S
C1173 C158 2.581 . S
C1189 C315 2.657 . S
C1191 C746 2.581 . S
C1207 C399 2.657 . S
C1209 C578 2.581 . S
C1225 C662 2.581 . S
C1227 C483 2.657 . S
