# Generated by pormake.
# Topology unn, (4)-cn, num edge types: 1
# Building blocks:
#     Node 0, Type 0, BuildingBlock: QUQFOY_clean_sbu_1, # of connection points: 4
#     Node 1, Type 0, BuildingBlock: QUQFOY_clean_sbu_1, # of connection points: 4
#     Node 2, Type 0, BuildingBlock: QUQFOY_clean_sbu_1, # of connection points: 4
#     Node 3, Type 0, BuildingBlock: QUQFOY_clean_sbu_1, # of connection points: 4
#     Node 4, Type 0, BuildingBlock: QUQFOY_clean_sbu_1, # of connection points: 4
#     Node 5, Type 0, BuildingBlock: QUQFOY_clean_sbu_1, # of connection points: 4
#     Node 6, Type 0, BuildingBlock: QUQFOY_clean_sbu_1, # of connection points: 4
#     Node 7, Type 0, BuildingBlock: QUQFOY_clean_sbu_1, # of connection points: 4
#     Node 8, Type 0, BuildingBlock: QUQFOY_clean_sbu_1, # of connection points: 4
#     Node 9, Type 0, BuildingBlock: QUQFOY_clean_sbu_1, # of connection points: 4
#     Node 10, Type 0, BuildingBlock: QUQFOY_clean_sbu_1, # of connection points: 4
#     Node 11, Type 0, BuildingBlock: QUQFOY_clean_sbu_1, # of connection points: 4
#     Node 12, Type 0, BuildingBlock: QUQFOY_clean_sbu_1, # of connection points: 4
#     Node 13, Type 0, BuildingBlock: QUQFOY_clean_sbu_1, # of connection points: 4
#     Node 14, Type 0, BuildingBlock: QUQFOY_clean_sbu_1, # of connection points: 4
#     Node 15, Type 0, BuildingBlock: QUQFOY_clean_sbu_1, # of connection points: 4
#     Node 16, Type 0, BuildingBlock: QUQFOY_clean_sbu_1, # of connection points: 4
#     Node 17, Type 0, BuildingBlock: QUQFOY_clean_sbu_1, # of connection points: 4
#     Edge 18, Type (0, 0), BuildingBlock: ZUJKAS_clean_linker_0, # of connection points: 2
#     Edge 19, Type (0, 0), BuildingBlock: ZUJKAS_clean_linker_0, # of connection points: 2
#     Edge 20, Type (0, 0), BuildingBlock: ZUJKAS_clean_linker_0, # of connection points: 2
#     Edge 21, Type (0, 0), BuildingBlock: ZUJKAS_clean_linker_0, # of connection points: 2
#     Edge 22, Type (0, 0), BuildingBlock: ZUJKAS_clean_linker_0, # of connection points: 2
#     Edge 23, Type (0, 0), BuildingBlock: ZUJKAS_clean_linker_0, # of connection points: 2
#     Edge 24, Type (0, 0), BuildingBlock: ZUJKAS_clean_linker_0, # of connection points: 2
#     Edge 25, Type (0, 0), BuildingBlock: ZUJKAS_clean_linker_0, # of connection points: 2
#     Edge 26, Type (0, 0), BuildingBlock: ZUJKAS_clean_linker_0, # of connection points: 2
#     Edge 27, Type (0, 0), BuildingBlock: ZUJKAS_clean_linker_0, # of connection points: 2
#     Edge 28, Type (0, 0), BuildingBlock: ZUJKAS_clean_linker_0, # of connection points: 2
#     Edge 29, Type (0, 0), BuildingBlock: ZUJKAS_clean_linker_0, # of connection points: 2
#     Edge 30, Type (0, 0), BuildingBlock: ZUJKAS_clean_linker_0, # of connection points: 2
#     Edge 31, Type (0, 0), BuildingBlock: ZUJKAS_clean_linker_0, # of connection points: 2
#     Edge 32, Type (0, 0), BuildingBlock: ZUJKAS_clean_linker_0, # of connection points: 2
#     Edge 33, Type (0, 0), BuildingBlock: ZUJKAS_clean_linker_0, # of connection points: 2
#     Edge 34, Type (0, 0), BuildingBlock: ZUJKAS_clean_linker_0, # of connection points: 2
#     Edge 35, Type (0, 0), BuildingBlock: ZUJKAS_clean_linker_0, # of connection points: 2
#     Edge 36, Type (0, 0), BuildingBlock: ZUJKAS_clean_linker_0, # of connection points: 2
#     Edge 37, Type (0, 0), BuildingBlock: ZUJKAS_clean_linker_0, # of connection points: 2
#     Edge 38, Type (0, 0), BuildingBlock: ZUJKAS_clean_linker_0, # of connection points: 2
#     Edge 39, Type (0, 0), BuildingBlock: ZUJKAS_clean_linker_0, # of connection points: 2
#     Edge 40, Type (0, 0), BuildingBlock: ZUJKAS_clean_linker_0, # of connection points: 2
#     Edge 41, Type (0, 0), BuildingBlock: ZUJKAS_clean_linker_0, # of connection points: 2
#     Edge 42, Type (0, 0), BuildingBlock: ZUJKAS_clean_linker_0, # of connection points: 2
#     Edge 43, Type (0, 0), BuildingBlock: ZUJKAS_clean_linker_0, # of connection points: 2
#     Edge 44, Type (0, 0), BuildingBlock: ZUJKAS_clean_linker_0, # of connection points: 2
#     Edge 45, Type (0, 0), BuildingBlock: ZUJKAS_clean_linker_0, # of connection points: 2
#     Edge 46, Type (0, 0), BuildingBlock: ZUJKAS_clean_linker_0, # of connection points: 2
#     Edge 47, Type (0, 0), BuildingBlock: ZUJKAS_clean_linker_0, # of connection points: 2
#     Edge 48, Type (0, 0), BuildingBlock: ZUJKAS_clean_linker_0, # of connection points: 2
#     Edge 49, Type (0, 0), BuildingBlock: ZUJKAS_clean_linker_0, # of connection points: 2
#     Edge 50, Type (0, 0), BuildingBlock: ZUJKAS_clean_linker_0, # of connection points: 2
#     Edge 51, Type (0, 0), BuildingBlock: ZUJKAS_clean_linker_0, # of connection points: 2
#     Edge 52, Type (0, 0), BuildingBlock: ZUJKAS_clean_linker_0, # of connection points: 2
#     Edge 53, Type (0, 0), BuildingBlock: ZUJKAS_clean_linker_0, # of connection points: 2
# Relax obj value: 0.134
# Max RMSD: 0.235
# Mean RMSD: 0.198
data_MOF--net-unn--node1-QUQFOY_clean_sbu_1--edge1-ZUJKAS_clean_linker_0
_symmetry_space_group_name_H-M    P1
_symmetry_Int_Tables_number       1
_symmetry_cell_setting            triclinic
loop_
_symmetry_equiv_pos_as_xyz
'x, y, z'
_cell_length_a     59.45645
_cell_length_b     61.292202
_cell_length_c     52.049949
_cell_angle_alpha  90.594047
_cell_angle_beta   87.671652
_cell_angle_gamma 121.82143
loop_
_atom_site_label
_atom_site_type_symbol
_atom_site_fract_x
_atom_site_fract_y
_atom_site_fract_z
_atom_type_partial_charge
O0 O 0.03202 0.72126 0.26146 0.0
Cd1 Cd 1.0 0.68906 0.2467 0.0
Cd2 Cd 0.98464 0.72125 0.24275 0.0
O3 O 1.01147 0.74136 0.27189 0.0
O4 O 1.00707 0.66207 0.25646 0.0
O5 O 0.97364 0.6644 0.27329 0.0
C6 C 0.98779 0.65408 0.27335 0.0
C7 C 0.93848 0.70117 0.24275 0.0
C8 C 0.03144 0.73901 0.27368 0.0
C9 C 0.99949 0.70586 0.19443 0.0
O10 O 1.00015 0.72468 0.2057 0.0
O11 O 0.99561 0.68672 0.20756 0.0
O12 O 0.95377 0.72584 0.24034 0.0
O13 O 0.94937 0.68828 0.24796 0.0
O14 O 0.41863 0.26393 0.21246 0.0
Cd15 Cd 0.40837 0.29088 0.21872 0.0
Cd16 Cd 0.37662 0.2565 0.2538 0.0
O17 O 0.38226 0.23121 0.23031 0.0
O18 O 0.41669 0.31153 0.18611 0.0
O19 O 0.37601 0.28359 0.20095 0.0
C20 C 0.39145 0.29954 0.18315 0.0
C21 C 0.33951 0.25915 0.266 0.0
C22 C 0.40371 0.23987 0.21658 0.0
C23 C 0.42162 0.30435 0.27286 0.0
O24 O 0.40747 0.2802 0.27647 0.0
O25 O 0.42235 0.31391 0.251 0.0
O26 O 0.34346 0.24265 0.27696 0.0
O27 O 0.35486 0.27185 0.24648 0.0
O28 O 0.82516 0.12873 0.23489 0.0
Cd29 Cd 0.79734 0.09023 0.24012 0.0
Cd30 Cd 0.83153 0.09476 0.27224 0.0
O31 O 0.85844 0.12647 0.24865 0.0
O32 O 0.77515 0.07811 0.20921 0.0
O33 O 0.80394 0.06702 0.2182 0.0
C34 C 0.78704 0.06617 0.20279 0.0
C35 C 0.82737 0.05562 0.28309 0.0
C36 C 0.84994 0.13894 0.2372 0.0
C37 C 0.78285 0.08851 0.29476 0.0
O38 O 0.80777 0.10084 0.29708 0.0
O39 O 0.77324 0.07857 0.27329 0.0
O40 O 0.84492 0.07686 0.29351 0.0
O41 O 0.81463 0.05721 0.2644 0.0
O42 O 0.03619 0.29992 0.7583 0.0
Cd43 Cd 1.00554 0.30056 0.74233 0.0
Cd44 Cd 0.986 0.25165 0.74241 0.0
O45 O 1.01239 0.25994 0.77221 0.0
O46 O 1.01348 0.33546 0.75138 0.0
O47 O 0.97925 0.29967 0.76812 0.0
C48 C 0.99403 0.32442 0.76818 0.0
C49 C 0.93954 0.22746 0.74305 0.0
C50 C 0.03367 0.28206 0.77264 0.0
C51 C 1.00319 0.27829 0.69196 0.0
O52 O 1.00162 0.26008 0.70503 0.0
O53 O 1.0013 0.29577 0.70329 0.0
O54 O 0.95302 0.2164 0.74222 0.0
O55 O 0.9524 0.25204 0.74619 0.0
O56 O 0.82206 0.67134 0.7178 0.0
Cd57 Cd 0.79638 0.68428 0.72211 0.0
Cd58 Cd 0.8305 0.71336 0.75495 0.0
O59 O 0.85639 0.70714 0.73158 0.0
O60 O 0.77575 0.67701 0.69022 0.0
O61 O 0.80823 0.71581 0.70084 0.0
C62 C 0.79086 0.70117 0.68462 0.0
C63 C 0.82692 0.74887 0.76544 0.0
C64 C 0.84695 0.68552 0.72036 0.0
C65 C 0.78083 0.67231 0.77679 0.0
O66 O 0.80566 0.68343 0.77908 0.0
O67 O 0.77191 0.67363 0.7554 0.0
O68 O 0.84416 0.74551 0.77619 0.0
O69 O 0.8142 0.73389 0.74679 0.0
O70 O 0.35178 0.04842 0.7541 0.0
Cd71 Cd 0.38301 0.08024 0.73659 0.0
Cd72 Cd 0.3484 0.09499 0.73801 0.0
O73 O 0.32965 0.06647 0.76728 0.0
O74 O 0.41492 0.08041 0.74784 0.0
O75 O 0.40371 0.10785 0.76158 0.0
C76 C 0.41833 0.09823 0.76364 0.0
C77 C 0.36754 0.13977 0.73793 0.0
C78 C 0.33336 0.04773 0.76801 0.0
C79 C 0.36137 0.08093 0.68707 0.0
O80 O 0.34383 0.08184 0.70101 0.0
O81 O 0.38176 0.08337 0.69713 0.0
O82 O 0.34208 0.12439 0.73792 0.0
O83 O 0.38162 0.12966 0.74073 0.0
O84 O 0.68945 0.06645 0.60936 0.0
Cd85 Cd 0.65606 0.03491 0.59578 0.0
Cd86 Cd 0.64489 0.06939 0.58899 0.0
O87 O 0.67159 0.08932 0.61831 0.0
O88 O 0.65907 1.00628 0.60894 0.0
O89 O 0.6284 1.01399 0.62327 0.0
C90 C 0.64026 1.00155 0.62551 0.0
C91 C 0.59915 0.05102 0.58618 0.0
C92 C 0.6905 0.08542 0.62064 0.0
C93 C 0.65929 0.05096 0.5427 0.0
O94 O 0.66167 0.07088 0.55314 0.0
O95 O 0.65257 0.03127 0.55648 0.0
O96 O 0.61542 0.07555 0.58347 0.0
O97 O 0.60866 0.03748 0.59353 0.0
O98 O 0.02588 0.61463 0.58649 0.0
Cd99 Cd 0.05733 0.61441 0.56953 0.0
Cd100 Cd 1.02203 0.56516 0.56821 0.0
O101 O 1.00313 0.57388 0.59855 0.0
O102 O 0.08917 0.64638 0.58223 0.0
O103 O 0.07685 0.60712 0.59493 0.0
C104 C 0.09178 0.63161 0.59777 0.0
C105 C 0.04225 0.54081 0.56481 0.0
C106 C 1.00704 0.5965 0.59984 0.0
C107 C 0.03595 0.59419 0.51916 0.0
O108 O 1.01752 0.57565 0.53249 0.0
O109 O 0.05712 0.61104 0.52974 0.0
O110 O 1.01671 0.52966 0.56521 0.0
O111 O 0.0558 0.56516 0.56906 0.0
O112 O 0.44742 0.37237 0.58641 0.0
Cd113 Cd 0.44384 0.40108 0.57142 0.0
Cd114 Cd 0.49551 0.42553 0.57098 0.0
O115 O 0.48759 0.39811 0.60014 0.0
O116 O 0.40863 0.39395 0.58491 0.0
O117 O 0.44701 0.4271 0.59666 0.0
C118 C 0.42153 0.4134 0.59974 0.0
C119 C 0.52071 0.47072 0.57189 0.0
C120 C 0.46623 0.37598 0.60014 0.0
C121 C 0.46925 0.40863 0.52056 0.0
O122 O 0.48907 0.41312 0.53329 0.0
O123 O 0.4488 0.40622 0.53215 0.0
O124 O 0.53204 0.4576 0.57011 0.0
O125 O 0.49531 0.45811 0.5758 0.0
O126 O 0.69888 0.62545 0.1 0.0
Cd127 Cd 0.6681 0.62588 0.08379 0.0
Cd128 Cd 0.65208 0.57766 0.07819 0.0
O129 O 0.67807 0.58388 0.10765 0.0
O130 O 0.67321 0.65906 0.09592 0.0
O131 O 0.63931 0.62117 0.10882 0.0
C132 C 0.65258 0.64584 0.11099 0.0
C133 C 0.60583 0.5516 0.07705 0.0
C134 C 0.69785 0.60653 0.11102 0.0
C135 C 0.66959 0.60947 0.03085 0.0
O136 O 0.66869 0.59051 0.04171 0.0
O137 O 0.66619 0.62504 0.04425 0.0
O138 O 0.62056 0.54193 0.07424 0.0
O139 O 0.61724 0.5755 0.08323 0.0
O140 O 0.48701 1.00831 0.04382 0.0
Cd141 Cd 0.46237 0.02215 0.05066 0.0
Cd142 Cd 0.49706 0.04786 0.08541 0.0
O143 O 0.52189 0.04036 0.0619 0.0
O144 O 0.44119 0.01586 0.01936 0.0
O145 O 0.47402 0.05427 0.03039 0.0
C146 C 0.45638 0.0401 0.0142 0.0
C147 C 0.49532 0.08434 0.0961 0.0
C148 C 0.51166 0.02031 0.04793 0.0
C149 C 0.44578 1.00747 0.10536 0.0
O150 O 0.47042 0.01771 0.10833 0.0
O151 O 0.43774 1.01017 0.08398 0.0
O152 O 0.51168 0.07989 0.1071 0.0
O153 O 0.48251 0.06983 0.07722 0.0
O154 O 0.02824 0.38283 0.08796 0.0
Cd155 Cd 0.05965 0.41579 0.07208 0.0
Cd156 Cd 0.02412 0.4283 0.07184 0.0
O157 O 1.00649 0.40084 0.10224 0.0
O158 O 0.09194 0.41756 0.08486 0.0
O159 O 0.07757 0.44259 0.09857 0.0
C160 C 0.09333 0.43433 0.10106 0.0
C161 C 0.04359 0.47308 0.0687 0.0
C162 C 1.01008 0.382 0.10243 0.0
C163 C 0.03876 0.41529 0.02207 0.0
O164 O 1.01955 0.41324 0.03581 0.0
O165 O 0.06009 0.42069 0.03256 0.0
O166 O 1.01807 0.45786 0.06962 0.0
O167 O 0.05756 0.46302 0.0724 0.0
O168 O 0.3666 0.40219 0.92528 0.0
Cd169 Cd 0.33399 0.3706 0.91096 0.0
Cd170 Cd 0.31831 0.40237 0.91026 0.0
O171 O 0.34529 0.42037 0.93998 0.0
O172 O 0.3375 0.34176 0.92281 0.0
O173 O 0.30666 0.34883 0.93818 0.0
C174 C 0.31884 0.33663 0.93978 0.0
C175 C 0.27206 0.38232 0.90982 0.0
C176 C 0.36578 0.41861 0.93971 0.0
C177 C 0.33404 0.38998 0.86025 0.0
O178 O 0.33429 0.40781 0.87321 0.0
O179 O 0.32986 0.36984 0.87171 0.0
O180 O 0.28729 0.40709 0.90881 0.0
O181 O 0.28299 0.36927 0.91385 0.0
O182 O 0.73913 0.91593 0.89086 0.0
Cd183 Cd 0.72883 0.94256 0.89818 0.0
Cd184 Cd 0.69151 0.90415 0.92818 0.0
O185 O 0.70017 0.88205 0.90251 0.0
O186 O 0.73807 0.96632 0.86755 0.0
O187 O 0.69743 0.9352 0.879 0.0
C188 C 0.71305 0.95347 0.86321 0.0
C189 C 0.65429 0.90751 0.93785 0.0
C190 C 0.72323 0.89169 0.89151 0.0
C191 C 0.7335 0.94829 0.95469 0.0
O192 O 0.71899 0.92395 0.95507 0.0
O193 O 0.73772 0.96072 0.93374 0.0
O194 O 0.65568 0.88888 0.94748 0.0
O195 O 0.67234 0.9221 0.92093 0.0
O196 O 0.1536 0.78448 0.88363 0.0
Cd197 Cd 0.12853 0.74532 0.88863 0.0
Cd198 Cd 0.16187 0.75433 0.92295 0.0
O199 O 0.18822 0.78632 0.89977 0.0
O200 O 0.10907 0.73123 0.85621 0.0
O201 O 0.14036 0.72479 0.86856 0.0
C202 C 0.12396 0.72203 0.85145 0.0
C203 C 0.16032 0.71724 0.93679 0.0
C204 C 0.17836 0.79692 0.88723 0.0
C205 C 0.11063 0.74446 0.94165 0.0
O206 O 0.13533 0.75905 0.94461 0.0
O207 O 0.10248 0.73239 0.9207 0.0
O208 O 0.17597 0.73924 0.94714 0.0
O209 O 0.14816 0.71705 0.91669 0.0
O210 O 0.36593 0.96596 0.42546 0.0
Cd211 Cd 0.33329 0.96358 0.41035 0.0
Cd212 Cd 0.31931 0.91603 0.4068 0.0
O213 O 0.34603 0.92519 0.4365 0.0
O214 O 0.33603 0.99604 0.42152 0.0
O215 O 0.30521 0.95765 0.43683 0.0
C216 C 0.31676 0.98232 0.43788 0.0
C217 C 0.27317 0.88825 0.40623 0.0
C218 C 0.36568 0.94823 0.43816 0.0
C219 C 0.33404 0.94547 0.35826 0.0
O220 O 0.3352 0.92796 0.3699 0.0
O221 O 0.32937 0.96054 0.37105 0.0
O222 O 0.28876 0.87948 0.40429 0.0
O223 O 0.28371 0.91234 0.41124 0.0
O224 O 0.16353 0.34718 0.37937 0.0
Cd225 Cd 0.13694 0.35853 0.38756 0.0
Cd226 Cd 0.16978 0.38228 0.42378 0.0
O227 O 0.19691 0.37858 0.3997 0.0
O228 O 0.11629 0.35256 0.35605 0.0
O229 O 0.14653 0.39121 0.36941 0.0
C230 C 0.12994 0.37713 0.35236 0.0
C231 C 0.16574 0.41664 0.43833 0.0
C232 C 0.18803 0.35972 0.3842 0.0
C233 C 0.11888 0.33851 0.44041 0.0
O234 O 0.14351 0.34957 0.44394 0.0
O235 O 0.11103 0.3427 0.41967 0.0
O236 O 0.18195 0.41162 0.44879 0.0
O237 O 0.15436 0.40409 0.41794 0.0
O238 O 0.68118 0.7154 0.42938 0.0
Cd239 Cd 0.71263 0.74629 0.41085 0.0
Cd240 Cd 0.67926 0.7616 0.41178 0.0
O241 O 0.66166 0.73563 0.44347 0.0
O242 O 0.74371 0.74444 0.42097 0.0
O243 O 0.73543 0.77376 0.43528 0.0
C244 C 0.7488 0.76275 0.43677 0.0
C245 C 0.70175 0.80668 0.40776 0.0
C246 C 0.6642 0.71618 0.44432 0.0
C247 C 0.68901 0.74387 0.36193 0.0
O248 O 0.6717 0.74481 0.37625 0.0
O249 O 0.71043 0.74821 0.37136 0.0
O250 O 0.67612 0.79292 0.40961 0.0
O251 O 0.71432 0.79505 0.41082 0.0
H252 H 0.99575 0.66754 0.16397 0.0
H253 H 1.00659 0.66982 0.11788 0.0
H254 H 0.02462 0.74775 0.11497 0.0
H255 H 1.01339 0.74557 0.16098 0.0
H256 H 0.99663 0.71722 0.07178 0.0
H257 H 0.08499 0.71247 0.09302 0.0
H258 H 0.05383 0.68641 0.10579 0.0
H259 H 0.06659 0.71832 0.1176 0.0
C260 C 1.00181 0.68511 0.15351 0.0
C261 C 1.00409 0.70652 0.16622 0.0
C262 C 1.00797 0.68635 0.12718 0.0
C263 C 1.01674 0.70906 0.11317 0.0
C264 C 1.0179 0.73006 0.12551 0.0
H265 H 0.12082 0.77458 0.98343 0.0
H266 H 0.09392 0.76442 0.02316 0.0
C267 C 1.01161 0.72881 0.15182 0.0
C268 C 0.02678 0.71174 0.08621 0.0
H269 H 0.07768 0.71561 0.0496 0.0
C270 C 1.01419 0.71664 0.06681 0.0
C271 C 0.04984 0.71118 0.07994 0.0
C272 C 0.06479 0.70702 0.10015 0.0
C273 C 0.02438 0.72135 0.04126 0.0
C274 C 0.04758 0.72109 0.03517 0.0
C275 C 0.05977 0.71564 0.05444 0.0
C276 C 0.06119 0.72867 0.00955 0.0
C277 C 1.011 0.72754 0.0211 0.0
C278 C 0.05126 0.7122 0.9885 0.0
C279 C 0.06665 0.71799 0.96557 0.0
C280 C 0.0922 0.74017 0.96365 0.0
C281 C 0.10133 0.75722 0.98437 0.0
C282 C 0.08598 0.7515 0.00708 0.0
H283 H 0.99437 0.72907 0.0294 0.0
H284 H 0.02558 0.74591 0.01116 0.0
H285 H 1.00314 0.71226 0.00642 0.0
H286 H 0.03223 0.69435 0.99021 0.0
H287 H 0.05917 0.70447 0.94994 0.0
H288 H 0.28677 0.32849 0.98241 0.0
H289 H 0.29224 0.31634 0.02524 0.0
H290 H 0.3501 0.30023 -0.00619 0.0
H291 H 0.34469 0.31214 0.95089 0.0
H292 H 0.31613 0.26659 0.03624 0.0
H293 H 0.36437 0.37095 0.05633 0.0
H294 H 0.33108 0.35524 0.04551 0.0
H295 H 0.35718 0.35837 0.02422 0.0
C296 C 0.29999 0.32152 0.98441 0.0
C297 C 0.31566 0.32172 0.96329 0.0
C298 C 0.30321 0.31475 0.00895 0.0
C299 C 0.32205 0.30805 0.0127 0.0
C300 C 0.33561 0.30558 0.9913 0.0
H301 H 0.41854 0.32931 0.1407 0.0
H302 H 0.40015 0.33079 0.09996 0.0
C303 C 0.33244 0.31235 0.96676 0.0
C304 C 0.33014 0.3068 0.03891 0.0
H305 H 0.36285 0.34455 0.0897 0.0
C306 C 0.32613 0.28353 0.04807 0.0
C307 C 0.34365 0.32913 0.054 0.0
C308 C 0.34958 0.35493 0.04455 0.0
C309 C 0.33527 0.28197 0.07206 0.0
C310 C 0.34854 0.30425 0.08725 0.0
C311 C 0.3525 0.32749 0.07806 0.0
C312 C 0.35937 0.30408 0.11233 0.0
C313 C 0.33139 0.25672 0.0806 0.0
C314 C 0.34246 0.28913 0.13297 0.0
C315 C 0.35288 0.2883 0.15626 0.0
C316 C 0.38043 0.3025 0.15937 0.0
C317 C 0.39726 0.31814 0.13893 0.0
C318 C 0.38679 0.31897 0.11563 0.0
H319 H 0.32614 0.2431 0.06444 0.0
H320 H 0.34959 0.25968 0.08918 0.0
H321 H 0.31505 0.24774 0.09549 0.0
H322 H 0.3212 0.27793 0.13098 0.0
H323 H 0.33935 0.27615 0.17167 0.0
H324 H 0.74508 0.05002 0.17203 0.0
H325 H 0.73902 0.03056 0.12959 0.0
H326 H 0.81401 0.03569 0.13382 0.0
H327 H 0.81947 0.05389 0.17674 0.0
H328 H 0.76641 0.04896 0.08633 0.0
H329 H 0.76906 0.96308 0.11284 0.0
H330 H 0.76702 0.98361 0.13663 0.0
H331 H 0.79847 0.99236 0.12135 0.0
C332 C 0.76007 0.04663 0.16404 0.0
C333 C 0.78259 0.05319 0.17779 0.0
C334 C 0.75666 0.03562 0.13975 0.0
C335 C 0.77586 0.03127 0.12861 0.0
C336 C 0.79852 0.0381 0.14226 0.0
H337 H 0.773 0.99852 0.96264 0.0
H338 H 0.78643 0.02032 0.00409 0.0
C339 C 0.80168 0.04862 0.16677 0.0
C340 C 0.77243 0.02027 0.10245 0.0
H341 H 0.77079 0.97169 0.06825 0.0
C342 C 0.76728 0.03199 0.08238 0.0
C343 C 0.77341 0.99806 0.09732 0.0
C344 C 0.77701 0.9834 0.11823 0.0
C345 C 0.76263 0.02191 0.05747 0.0
C346 C 0.7642 1.00003 0.05222 0.0
C347 C 0.76986 0.98862 0.07219 0.0
C348 C 0.7576 0.98711 0.02691 0.0
C349 C 0.75498 0.03418 0.03741 0.0
C350 C 0.73779 0.961 0.02598 0.0
C351 C 0.73066 0.94844 0.00254 0.0
C352 C 0.74294 0.96174 0.97934 0.0
C353 C 0.76308 0.98783 0.98019 0.0
C354 C 0.77059 1.00034 0.00384 0.0
H355 H 0.74793 0.04622 0.04624 0.0
H356 H 0.77254 0.04678 0.02466 0.0
H357 H 0.73913 0.01944 0.02541 0.0
H358 H 0.72744 0.95034 0.04344 0.0
H359 H 0.71494 0.92837 0.00263 0.0
H360 H 0.6791 0.09142 0.50906 0.0
H361 H 0.69242 0.09279 0.46393 0.0
H362 H 0.66632 1.0125 0.46785 0.0
H363 H 0.65346 1.01108 0.51335 0.0
H364 H 0.71552 0.04077 0.44772 0.0
H365 H 0.65221 0.06717 0.39889 0.0
H366 H 0.66954 0.08893 0.4243 0.0
H367 H 0.6456 0.05567 0.43179 0.0
C368 C 0.67584 0.07394 0.50028 0.0
C369 C 0.66532 0.05116 0.51484 0.0
C370 C 0.68323 0.0747 0.47437 0.0
C371 C 0.67992 0.05264 0.46239 0.0
C372 C 0.66884 0.02969 0.4767 0.0
H373 H 0.72882 0.05639 0.29972 0.0
H374 H 0.70113 0.04549 0.33943 0.0
C375 C 0.66157 0.02894 0.50269 0.0
C376 C 0.69065 0.05435 0.43582 0.0
H377 H 0.69232 0.07638 0.37533 0.0
C378 C 0.71009 0.04813 0.4318 0.0
C379 C 0.68333 0.06364 0.41496 0.0
C380 C 0.66131 0.06896 0.41764 0.0
C381 C 0.72343 0.05226 0.40787 0.0
C382 C 0.71754 0.06338 0.38759 0.0
C383 C 0.69708 0.06826 0.3911 0.0
C384 C 0.73351 0.07132 0.36317 0.0
C385 C 0.74405 0.04505 0.40461 0.0
C386 C 0.7606 0.09006 0.36334 0.0
C387 C 0.7764 0.09629 0.34085 0.0
C388 C 0.76536 0.08401 0.31768 0.0
C389 C 0.73792 0.06614 0.31728 0.0
C390 C 0.72208 0.05986 0.33991 0.0
H391 H 0.74077 0.03026 0.41898 0.0
H392 H 0.74399 0.03765 0.38504 0.0
H393 H 0.76394 0.06232 0.40743 0.0
H394 H 0.76963 0.09951 0.38104 0.0
H395 H 0.7974 0.11033 0.3418 0.0
H396 H 0.99204 0.56249 0.4924 0.0
H397 H 0.98306 0.5678 0.44851 0.0
H398 H 0.06093 0.63607 0.43941 0.0
H399 H 0.06997 0.63126 0.48387 0.0
H400 H 0.02275 0.64374 0.42442 0.0
H401 H 1.00777 0.5548 0.38005 0.0
H402 H 0.98724 0.5484 0.40863 0.0
H403 H 0.02272 0.56596 0.41073 0.0
C404 C 1.00747 0.57851 0.48105 0.0
C405 C 0.03176 0.5965 0.49171 0.0
C406 C 1.00233 0.58136 0.45581 0.0
C407 C 1.02146 0.60206 0.44052 0.0
C408 C 0.04595 0.61984 0.45086 0.0
H409 H 1.01699 0.63221 0.28001 0.0
H410 H 0.02258 0.61628 0.32051 0.0
C411 C 0.0511 0.61707 0.47625 0.0
C412 C 1.01494 0.60623 0.41455 0.0
H413 H 0.99204 0.57742 0.35685 0.0
C414 C 1.01622 0.62931 0.40959 0.0
C415 C 1.00658 0.58744 0.39516 0.0
C416 C 1.00624 0.56288 0.39879 0.0
C417 C 1.00896 0.63399 0.38595 0.0
C418 C 0.99949 0.61475 0.36697 0.0
C419 C 0.99872 0.59187 0.37167 0.0
C420 C 0.99204 0.619 0.34154 0.0
C421 C 1.01204 0.65974 0.38134 0.0
C422 C 0.97182 0.62419 0.33957 0.0
C423 C 0.96861 0.63343 0.31643 0.0
C424 C 0.9855 0.63743 0.29492 0.0
C425 C 1.0038 0.62958 0.29628 0.0
C426 C 1.00707 0.62048 0.31944 0.0
H427 H 0.02536 0.67432 0.39522 0.0
H428 H 1.02009 0.66699 0.36155 0.0
H429 H 0.99237 0.65767 0.38364 0.0
H430 H 0.95958 0.62256 0.35632 0.0
H431 H 0.95419 0.6391 0.31596 0.0
H432 H 0.51243 0.42323 0.4883 0.0
H433 H 0.51298 0.41542 0.44218 0.0
H434 H 0.42779 0.37747 0.4434 0.0
H435 H 0.42722 0.38613 0.4892 0.0
H436 H 0.49356 0.37208 0.41922 0.0
H437 H 0.44565 0.42002 0.38006 0.0
H438 H 0.45706 0.42534 0.41245 0.0
H439 H 0.42486 0.39821 0.40532 0.0
C440 C 0.49385 0.41356 0.47864 0.0
C441 C 0.46977 0.40531 0.49239 0.0
C442 C 0.4942 0.40915 0.45226 0.0
C443 C 0.47048 0.39626 0.43912 0.0
C444 C 0.44644 0.3882 0.45283 0.0
H445 H 0.42249 0.28908 0.3215 0.0
H446 H 0.43986 0.31551 0.35922 0.0
C447 C 0.44611 0.39295 0.47911 0.0
C448 C 0.47048 0.38898 0.41179 0.0
H449 H 0.44215 0.38474 0.35475 0.0
C450 C 0.48277 0.37535 0.405 0.0
C451 C 0.45708 0.39376 0.39289 0.0
C452 C 0.44572 0.41041 0.39802 0.0
C453 C 0.48034 0.36478 0.38049 0.0
C454 C 0.46449 0.36718 0.36256 0.0
C455 C 0.4539 0.38245 0.36864 0.0
C456 C 0.45618 0.35171 0.33881 0.0
C457 C 0.49439 0.35071 0.3743 0.0
C458 C 0.45909 0.36317 0.31466 0.0
C459 C 0.44875 0.34793 0.29286 0.0
C460 C 0.43521 0.321 0.29494 0.0
C461 C 0.43292 0.30974 0.31908 0.0
C462 C 0.44308 0.32489 0.34073 0.0
H463 H 0.51295 0.35894 0.38493 0.0
H464 H 0.48142 0.33031 0.38042 0.0
H465 H 0.49934 0.35148 0.3534 0.0
H466 H 0.46892 0.38383 0.31277 0.0
H467 H 0.45075 0.35721 0.27458 0.0
H468 H 0.02601 0.37586 0.77667 0.0
H469 H 0.03291 0.39664 0.81838 0.0
H470 H 0.96639 0.32718 0.85147 0.0
H471 H 0.95941 0.30608 0.80992 0.0
H472 H 1.00118 0.40378 0.85853 0.0
H473 H 0.03434 0.33801 0.88582 0.0
H474 H 0.02968 0.34321 0.8529 0.0
H475 H 1.00157 0.32233 0.87369 0.0
C476 C 1.01226 0.36523 0.79258 0.0
C477 C 0.99249 0.33914 0.79012 0.0
C478 C 1.0163 0.37716 0.81642 0.0
C479 C 1.00058 0.36318 0.83803 0.0
C480 C 0.97899 0.33809 0.83501 0.0
H481 H 0.99547 0.40308 -0.00502 0.0
H482 H 0.98897 0.39372 0.94944 0.0
C483 C 0.97494 0.32612 0.81121 0.0
C484 C 1.00878 0.37352 0.86404 0.0
H485 H 0.03144 0.36324 0.91898 0.0
C486 C 1.00786 0.39502 0.87178 0.0
C487 C 1.01827 0.36248 0.8809 0.0
C488 C 1.02132 0.34038 0.87292 0.0
C489 C 1.0152 0.40515 0.89649 0.0
C490 C 0.02325 0.39318 0.91387 0.0
C491 C 0.0251 0.37229 0.9057 0.0
C492 C 0.02827 0.40087 0.9411 0.0
C493 C 1.01437 0.42863 0.90369 0.0
C494 C 0.05239 0.40748 0.95174 0.0
C495 C 0.05612 0.41258 0.97801 0.0
C496 C 0.03569 0.41097 -0.00593 0.0
C497 C 1.01169 0.40459 0.98321 0.0
C498 C 1.00799 0.39947 0.95706 0.0
H499 H 1.01639 0.44011 0.8864 0.0
H500 H 0.99501 0.42252 0.91356 0.0
H501 H 0.03033 0.44109 0.91688 0.0
H502 H 0.06821 0.40841 0.93975 0.0
H503 H 0.07483 0.41743 0.98577 0.0
H504 H 0.66826 0.64503 0.00062 0.0
H505 H 0.67862 0.65255 0.9544 0.0
H506 H 0.6939 0.59113 0.95144 0.0
H507 H 0.683 0.58307 -0.00259 0.0
H508 H 0.72514 0.6675 0.93082 0.0
H509 H 0.64943 0.57527 0.8895 0.0
H510 H 0.64686 0.58383 0.92233 0.0
H511 H 0.66691 0.57057 0.91396 0.0
C512 C 0.67353 0.63292 0.99008 0.0
C513 C 0.67485 0.61348 0.00272 0.0
C514 C 0.67935 0.63719 0.96365 0.0
C515 C 0.68656 0.6221 0.94936 0.0
C516 C 0.68765 0.60253 0.96189 0.0
H517 H 0.79339 0.66091 0.82227 0.0
H518 H 0.76702 0.64778 0.86252 0.0
C519 C 0.68167 0.59814 0.98827 0.0
C520 C 0.69554 0.62841 0.92197 0.0
H521 H 0.68883 0.6019 0.86253 0.0
C522 C 0.71685 0.65326 0.91584 0.0
C523 C 0.68453 0.60995 0.9023 0.0
C524 C 0.66048 0.5835 0.9073 0.0
C525 C 0.7284 0.65971 0.89093 0.0
C526 C 0.71868 0.6407 0.87177 0.0
C527 C 0.69643 0.61629 0.87742 0.0
C528 C 0.73288 0.64554 0.84652 0.0
C529 C 0.7514 0.68668 0.88542 0.0
C530 C 0.72187 0.64749 0.82397 0.0
C531 C 0.73693 0.65496 0.80073 0.0
C532 C 0.76314 0.66052 0.79988 0.0
C533 C 0.77339 0.65706 0.8223 0.0
C534 C 0.75839 0.6496 0.84535 0.0
H535 H 0.75191 0.70046 0.89978 0.0
H536 H 0.77021 0.68702 0.88625 0.0
H537 H 0.75042 0.69325 0.86592 0.0
H538 H 0.7021 0.64426 0.82457 0.0
H539 H 0.72849 0.65746 0.78379 0.0
H540 H 0.49629 0.08207 0.98871 0.0
H541 H 0.49596 0.09739 0.94572 0.0
H542 H 0.41316 0.03861 0.94127 0.0
H543 H 0.41396 0.02219 0.98367 0.0
H544 H 0.43709 0.03929 0.89953 0.0
H545 H 0.47069 0.14051 0.91997 0.0
H546 H 0.49433 0.13279 0.92948 0.0
H547 H 0.46187 0.11714 0.94523 0.0
C548 C 0.47792 0.07265 0.97869 0.0
C549 C 0.4551 0.051 0.98954 0.0
C550 C 0.4777 0.08157 0.95415 0.0
C551 C 0.45441 0.06954 0.94031 0.0
C552 C 0.4314 0.04828 0.95151 0.0
H553 H 0.41618 0.12193 0.80729 0.0
H554 H 0.42961 0.11757 0.84945 0.0
C555 C 0.4318 0.03894 0.97577 0.0
C556 C 0.45437 0.07786 0.91354 0.0
H557 H 0.47042 0.1298 0.87578 0.0
C558 C 0.44425 0.05909 0.89442 0.0
C559 C 0.46363 0.10368 0.90676 0.0
C560 C 0.47297 0.12461 0.92651 0.0
C561 C 0.44257 0.06518 0.86895 0.0
C562 C 0.45266 0.09113 0.86195 0.0
C563 C 0.46318 0.11001 0.88098 0.0
C564 C 0.44971 0.0985 0.83572 0.0
C565 C 0.42874 0.04343 0.85024 0.0
C566 C 0.45811 0.09091 0.81362 0.0
C567 C 0.44987 0.09285 0.78938 0.0
C568 C 0.43385 0.10318 0.78683 0.0
C569 C 0.42839 0.11373 0.80855 0.0
C570 C 0.43604 0.1112 0.83279 0.0
H571 H 0.41615 0.02462 0.8603 0.0
H572 H 0.41601 0.04649 0.83761 0.0
H573 H 0.44377 0.04225 0.83801 0.0
H574 H 0.46964 0.08204 0.81526 0.0
H575 H 0.45468 0.08484 0.77294 0.0
H576 H 0.38335 0.0616 0.65393 0.0
H577 H 0.37261 0.04964 0.60909 0.0
H578 H 0.31947 0.07763 0.61262 0.0
H579 H 0.32933 0.08868 0.65766 0.0
H580 H 0.29617 0.03239 0.5917 0.0
H581 H 0.39548 0.09159 0.54445 0.0
H582 H 0.39572 0.07165 0.56923 0.0
H583 H 0.38869 0.09615 0.57751 0.0
C584 C 0.36968 0.06553 0.64502 0.0
C585 C 0.35717 0.07605 0.6593 0.0
C586 C 0.36366 0.05883 0.61934 0.0
C587 C 0.34553 0.0631 0.60732 0.0
C588 C 0.33353 0.07418 0.62143 0.0
H589 H 0.33278 0.03287 0.44295 0.0
H590 H 0.33496 0.0547 0.4832 0.0
C591 C 0.33922 0.08051 0.64718 0.0
C592 C 0.33777 0.0545 0.58061 0.0
H593 H 0.36303 0.05574 0.52032 0.0
C594 C 0.31077 0.03782 0.57599 0.0
C595 C 0.35667 0.06201 0.55994 0.0
C596 C 0.38571 0.08157 0.56297 0.0
C597 C 0.30231 0.02746 0.55157 0.0
C598 C 0.32143 0.03332 0.53143 0.0
C599 C 0.3483 0.05099 0.53576 0.0
C600 C 0.31456 0.01989 0.50641 0.0
C601 C 0.27298 1.01032 0.54772 0.0
C602 C 0.30125 0.99298 0.50582 0.0
C603 C 0.29949 0.98044 0.48275 0.0
C604 C 0.31164 0.99464 0.45997 0.0
C605 C 0.32329 0.02142 0.46022 0.0
C606 C 0.32465 0.03392 0.48324 0.0
H607 H 0.26148 0.01579 0.56069 0.0
H608 H 0.26803 1.01114 0.52756 0.0
H609 H 0.26657 0.99021 0.55255 0.0
H610 H 0.29384 0.9817 0.52343 0.0
H611 H 0.2906 0.95981 0.48325 0.0
H612 H 1.01151 0.24609 0.66182 0.0
H613 H 0.02442 0.25131 0.61599 0.0
H614 H 1.01925 0.31876 0.61245 0.0
H615 H 1.0066 0.31394 0.65825 0.0
H616 H 1.0006 0.25667 0.56968 0.0
H617 H 0.09771 0.34321 0.59221 0.0
H618 H 0.07559 0.32051 0.61665 0.0
H619 H 0.06898 0.34353 0.6037 0.0
C620 C 1.01284 0.2619 0.65125 0.0
C621 C 1.00842 0.27984 0.66379 0.0
C622 C 1.02009 0.26474 0.62505 0.0
C623 C 0.02303 0.28555 0.611 0.0
C624 C 1.01733 0.30272 0.6231 0.0
H625 H 0.06801 0.32731 0.44914 0.0
H626 H 0.04122 0.31056 0.48937 0.0
C627 C 1.01014 0.29995 0.64928 0.0
C628 C 0.0344 0.29063 0.58439 0.0
H629 H 0.0898 0.33268 0.54857 0.0
C630 C 1.02006 0.27329 0.56494 0.0
C631 C 0.0599 0.31219 0.57848 0.0
C632 C 0.07661 0.33086 0.59884 0.0
C633 C 0.03064 0.2771 0.53957 0.0
C634 C 0.05606 0.29879 0.53371 0.0
C635 C 0.07027 0.31608 0.55318 0.0
C636 C 0.06907 0.30387 0.50778 0.0
C637 C 1.01495 0.25774 0.51935 0.0
C638 C 0.09321 0.30504 0.50467 0.0
C639 C 0.10857 0.31475 0.48196 0.0
C640 C 0.10007 0.32349 0.46187 0.0
C641 C 0.07499 0.3206 0.46426 0.0
C642 C 0.05964 0.31099 0.48719 0.0
H643 H 0.99792 0.23978 0.52792 0.0
H644 H 1.00718 0.26612 0.50616 0.0
H645 H 0.02781 0.25294 0.50772 0.0
H646 H 0.10081 0.29962 0.52036 0.0
H647 H 0.1277 0.31653 0.48061 0.0
H648 H 0.78422 0.74773 0.44393 0.0
H649 H 0.79993 0.74368 0.48535 0.0
H650 H 0.76246 0.78031 0.52272 0.0
H651 H 0.74836 0.78593 0.48143 0.0
H652 H 0.80356 0.79132 0.5475 0.0
H653 H 0.74752 0.68632 0.53081 0.0
H654 H 0.77463 0.70387 0.50797 0.0
H655 H 0.74717 0.70864 0.50891 0.0
C656 C 0.78014 0.75569 0.46088 0.0
C657 C 0.7647 0.76679 0.45946 0.0
C658 C 0.78878 0.75303 0.48461 0.0
C659 C 0.78133 0.76061 0.50736 0.0
C660 C 0.76817 0.77394 0.50556 0.0
H661 H 0.74823 0.68303 0.65434 0.0
H662 H 0.747 0.6994 0.61205 0.0
C663 C 0.76015 0.77721 0.48182 0.0
C664 C 0.78489 0.75278 0.53313 0.0
H665 H 0.76972 0.70033 0.56951 0.0
C666 C 0.79619 0.77142 0.55231 0.0
C667 C 0.77469 0.72669 0.53966 0.0
C668 C 0.76008 0.7052 0.52086 0.0
C669 C 0.79725 0.76473 0.57779 0.0
C670 C 0.78786 0.73877 0.58407 0.0
C671 C 0.777 0.72023 0.56478 0.0
C672 C 0.78837 0.73008 0.61056 0.0
C673 C 0.80732 0.78546 0.5978 0.0
C674 C 0.81191 0.74186 0.624 0.0
C675 C 0.81238 0.733 0.64849 0.0
C676 C 0.78956 0.7116 0.65966 0.0
C677 C 0.76608 0.69959 0.64618 0.0
C678 C 0.76543 0.70891 0.62198 0.0
H679 H 0.80517 0.80161 0.59188 0.0
H680 H 0.79662 0.77789 0.61668 0.0
H681 H 0.82872 0.79335 0.6002 0.0
H682 H 0.83012 0.75757 0.61537 0.0
H683 H 0.83088 0.74234 0.65829 0.0
H684 H 0.33729 0.35697 0.82658 0.0
H685 H 0.34892 0.36377 0.78049 0.0
H686 H 0.355 0.43699 0.78409 0.0
H687 H 0.34314 0.43033 0.83008 0.0
H688 H 0.32833 0.407 0.74042 0.0
H689 H 0.4252 0.41609 0.7533 0.0
H690 H 0.39709 0.38713 0.76661 0.0
H691 H 0.40561 0.41764 0.77984 0.0
C692 C 0.34095 0.37446 0.81757 0.0
C693 C 0.33955 0.39321 0.83209 0.0
C694 C 0.34765 0.37833 0.79125 0.0
C695 C 0.35316 0.40104 0.77902 0.0
C696 C 0.3509 0.41939 0.79322 0.0
H697 H 0.44311 0.45263 0.63403 0.0
H698 H 0.42462 0.45301 0.67669 0.0
C699 C 0.34421 0.41555 0.81953 0.0
C700 C 0.36231 0.40612 0.75165 0.0
H701 H 0.41238 0.41438 0.7105 0.0
C702 C 0.34675 0.40874 0.73382 0.0
C703 C 0.38658 0.40883 0.74324 0.0
C704 C 0.40476 0.40752 0.76174 0.0
C705 C 0.35452 0.4133 0.70758 0.0
C706 C 0.37832 0.41505 0.69907 0.0
C707 C 0.39412 0.41303 0.71705 0.0
C708 C 0.38694 0.41784 0.67155 0.0
C709 C 0.33733 0.41637 0.68928 0.0
C710 C 0.37147 0.39851 0.65411 0.0
C711 C 0.38193 0.39832 0.62962 0.0
C712 C 0.40816 0.4173 0.62231 0.0
C713 C 0.42287 0.43768 0.6391 0.0
C714 C 0.41236 0.4379 0.66352 0.0
H715 H 0.32453 0.42215 0.69949 0.0
H716 H 0.34952 0.43088 0.67404 0.0
H717 H 0.32423 0.39773 0.67989 0.0
H718 H 0.35199 0.3826 0.66001 0.0
H719 H 0.37011 0.3823 0.61719 0.0
H720 H 0.66197 0.97302 0.63539 0.0
H721 H 0.66669 0.95954 0.67768 0.0
H722 H 0.61572 0.9833 0.71163 0.0
H723 H 0.6111 0.99716 0.66932 0.0
H724 H 0.66531 1.00757 0.73203 0.0
H725 H 0.6222 0.90246 0.73036 0.0
H726 H 0.64412 0.91892 0.70311 0.0
H727 H 0.61393 0.91888 0.7075 0.0
C728 C 0.65098 0.97456 0.65168 0.0
C729 C 0.63637 0.9864 0.64902 0.0
C730 C 0.65366 0.96676 0.67588 0.0
C731 C 0.64158 0.97045 0.69781 0.0
C732 C 0.6252 0.9803 0.69493 0.0
H733 H 0.6612 0.93091 0.85186 0.0
H734 H 0.64301 0.93592 0.81278 0.0
C735 C 0.62245 0.98806 0.67069 0.0
C736 C 0.64923 0.9676 0.72372 0.0
H737 H 0.65347 0.92572 0.76288 0.0
C738 C 0.6624 0.98958 0.73895 0.0
C739 C 0.6454 0.94414 0.7327 0.0
C740 C 0.63041 0.9197 0.71767 0.0
C741 C 0.67255 0.98893 0.7626 0.0
C742 C 0.66978 0.96576 0.77102 0.0
C743 C 0.65585 0.94356 0.7562 0.0
C744 C 0.68105 0.96405 0.79523 0.0
C745 C 0.68612 1.01302 0.77836 0.0
C746 C 0.70854 0.97838 0.7984 0.0
C747 C 0.71909 0.97561 0.82083 0.0
C748 C 0.70228 0.95833 0.84033 0.0
C749 C 0.67474 0.94437 0.8372 0.0
C750 C 0.66426 0.94715 0.81486 0.0
H751 H 0.68064 0.02697 0.7726 0.0
H752 H 0.68105 1.0085 0.79918 0.0
H753 H 0.7079 0.02238 0.77541 0.0
H754 H 0.72187 0.99125 0.78328 0.0
H755 H 0.74037 0.9865 0.82261 0.0
H756 H 0.16391 0.71864 0.82821 0.0
H757 H 0.16634 0.70571 0.78407 0.0
H758 H 0.08617 0.68624 0.77382 0.0
H759 H 0.08425 0.70057 0.81744 0.0
H760 H 0.1426 0.66439 0.7577 0.0
H761 H 0.12166 0.73312 0.71404 0.0
H762 H 0.12756 0.73356 0.74778 0.0
H763 H 0.095 0.712 0.73593 0.0
C764 C 0.14675 0.71145 0.81657 0.0
C765 C 0.12397 0.71085 0.82615 0.0
C766 C 0.14818 0.70411 0.79131 0.0
C767 C 0.12674 0.69574 0.77526 0.0
C768 C 0.10337 0.69361 0.78541 0.0
H769 H 0.08767 0.60512 0.64104 0.0
H770 H 0.10214 0.6228 0.6833 0.0
C771 C 0.10216 0.70151 0.81046 0.0
C772 C 0.12882 0.68938 0.74791 0.0
H773 H 0.11599 0.69867 0.68707 0.0
C774 C 0.13711 0.67215 0.7422 0.0
C775 C 0.12265 0.70016 0.72746 0.0
C776 C 0.11655 0.72096 0.7316 0.0
C777 C 0.13801 0.66441 0.71686 0.0
C778 C 0.12932 0.67328 0.69676 0.0
C779 C 0.12236 0.6915 0.70235 0.0
C780 C 0.12502 0.66251 0.67034 0.0
C781 C 0.14845 0.64695 0.71202 0.0
C782 C 0.1331 0.67876 0.64857 0.0
C783 C 0.12408 0.66863 0.62427 0.0
C784 C 0.10713 0.64203 0.62123 0.0
C785 C 0.10094 0.6257 0.64261 0.0
C786 C 0.10941 0.63584 0.66693 0.0
H787 H 0.16398 0.65088 0.72572 0.0
H788 H 0.13208 0.62671 0.71516 0.0
H789 H 0.15693 0.6492 0.69213 0.0
H790 H 0.14519 0.69941 0.6506 0.0
H791 H 0.12916 0.68172 0.60818 0.0
H792 H 0.64482 0.73255 0.33664 0.0
H793 H 0.63374 0.71706 0.29282 0.0
H794 H 0.70909 0.72313 0.28145 0.0
H795 H 0.72027 0.73829 0.32552 0.0
H796 H 0.65833 0.73835 0.24521 0.0
H797 H 0.65541 0.64807 0.26468 0.0
H798 H 0.65623 0.66877 0.29001 0.0
H799 H 0.68619 0.67648 0.27229 0.0
C800 C 0.65914 0.7307 0.32484 0.0
C801 C 0.68335 0.73641 0.3347 0.0
C802 C 0.65276 0.72189 0.29977 0.0
C803 C 0.67039 0.71854 0.28408 0.0
C804 C 0.69499 0.7251 0.29347 0.0
H805 H 0.68041 0.69656 0.12342 0.0
H806 H 0.67977 0.71455 0.16516 0.0
C807 C 0.70139 0.73388 0.3186 0.0
C808 C 0.66274 0.70757 0.25812 0.0
H809 H 0.65379 0.6577 0.22094 0.0
C810 C 0.65714 0.72063 0.2399 0.0
C811 C 0.66058 0.68414 0.25147 0.0
C812 C 0.66465 0.66838 0.2707 0.0
C813 C 0.65044 0.71133 0.21482 0.0
C814 C 0.64972 0.68863 0.20778 0.0
C815 C 0.65439 0.67515 0.22632 0.0
C816 C 0.64616 0.67932 0.18097 0.0
C817 C 0.64418 0.72589 0.19617 0.0
C818 C 0.62704 0.65367 0.17567 0.0
C819 C 0.62752 0.6432 0.15181 0.0
C820 C 0.64725 0.65822 0.13293 0.0
C821 C 0.66494 0.68446 0.13753 0.0
C822 C 0.66452 0.69485 0.16141 0.0
H823 H 0.63677 0.73703 0.20641 0.0
H824 H 0.66253 0.73971 0.18497 0.0
H825 H 0.62916 0.71275 0.18251 0.0
H826 H 0.61269 0.64134 0.19051 0.0
H827 H 0.61358 0.62295 0.14886 0.0
H828 H 0.39382 0.99411 0.11141 0.0
H829 H 0.36632 0.98005 0.15154 0.0
H830 H 0.42875 0.97935 0.19007 0.0
H831 H 0.45618 0.99322 0.15046 0.0
H832 H 0.35303 0.93453 0.19025 0.0
H833 H 0.41291 0.03435 0.22595 0.0
H834 H 0.41021 0.02683 0.19213 0.0
H835 H 0.43148 0.02165 0.21125 0.0
C836 C 0.40143 0.99043 0.1283 0.0
C837 C 0.42729 0.99505 0.12784 0.0
C838 C 0.38574 0.98245 0.15116 0.0
C839 C 0.39574 0.979 0.17368 0.0
C840 C 0.42085 0.98214 0.17286 0.0
H841 H 0.34921 0.9198 0.3257 0.0
H842 H 0.35935 0.92682 0.27954 0.0
C843 C 0.43648 0.99009 0.15018 0.0
C844 C 0.38121 0.97406 0.19873 0.0
H845 H 0.38622 1.00174 0.25704 0.0
C846 C 0.3599 0.94925 0.2048 0.0
C847 C 0.39007 0.99345 0.21743 0.0
C848 C 0.41229 0.02066 0.21142 0.0
C849 C 0.34806 0.94299 0.22972 0.0
C850 C 0.35821 0.96197 0.24897 0.0
C851 C 0.37856 0.98713 0.24236 0.0
C852 C 0.34946 0.95598 0.27644 0.0
C853 C 0.32504 0.91607 0.23523 0.0
C854 C 0.34099 0.97037 0.2902 0.0
C855 C 0.33557 0.96669 0.31672 0.0
C856 C 0.33859 0.94857 0.33 0.0
C857 C 0.34658 0.93384 0.31607 0.0
C858 C 0.35213 0.93764 0.28959 0.0
H859 H 0.31416 0.90695 0.21754 0.0
H860 H 0.3326 0.90423 0.24239 0.0
H861 H 0.31096 0.91587 0.25005 0.0
H862 H 0.33901 0.98478 0.28047 0.0
H863 H 0.32936 0.97829 0.32684 0.0
H864 H 0.16856 0.42142 0.32892 0.0
H865 H 0.16838 0.43722 0.28611 0.0
H866 H 0.08745 0.37482 0.27868 0.0
H867 H 0.08822 0.35807 0.32087 0.0
H868 H 0.114 0.37784 0.23796 0.0
H869 H 0.13951 0.47684 0.25892 0.0
H870 H 0.1643 0.4711 0.26941 0.0
H871 H 0.13134 0.45348 0.28403 0.0
C872 C 0.15058 0.41135 0.31831 0.0
C873 C 0.12836 0.38856 0.32821 0.0
C874 C 0.15044 0.4205 0.29386 0.0
C875 C 0.12777 0.40751 0.27919 0.0
C876 C 0.10522 0.38522 0.28956 0.0
H877 H 0.08748 0.45576 0.14481 0.0
H878 H 0.10066 0.45217 0.18737 0.0
C879 C 0.1056 0.37569 0.3137 0.0
C880 C 0.12804 0.41581 0.25234 0.0
H881 H 0.14137 0.46701 0.21477 0.0
C882 C 0.11986 0.39734 0.23296 0.0
C883 C 0.13565 0.44124 0.24571 0.0
C884 C 0.14292 0.46171 0.26567 0.0
C885 C 0.11838 0.40327 0.20738 0.0
C886 C 0.12674 0.42887 0.20056 0.0
C887 C 0.13543 0.44751 0.21985 0.0
C888 C 0.12369 0.43589 0.17421 0.0
C889 C 0.10655 0.38163 0.18833 0.0
C890 C 0.13369 0.4296 0.15232 0.0
C891 C 0.1256 0.43105 0.12783 0.0
C892 C 0.10812 0.43964 0.12483 0.0
C893 C 0.10085 0.44891 0.14642 0.0
C894 C 0.10837 0.44684 0.17088 0.0
H895 H 0.09487 0.36255 0.19809 0.0
H896 H 0.09335 0.38355 0.17529 0.0
H897 H 0.1227 0.38196 0.17655 0.0
H898 H 0.14646 0.42211 0.15428 0.0
H899 H 0.1318 0.42407 0.11151 0.0
H900 H 0.24658 0.8387 0.38899 0.0
H901 H 0.20257 0.81503 0.37112 0.0
H902 H 0.19137 0.87743 0.3899 0.0
H903 H 0.23562 0.90147 0.40735 0.0
H904 H 0.15204 0.79765 0.3901 0.0
H905 H 0.1796 0.87086 0.31333 0.0
H906 H 0.20382 0.87105 0.33327 0.0
H907 H 0.18352 0.88285 0.3455 0.0
C908 C 0.23465 0.84729 0.38968 0.0
C909 C 0.24482 0.87211 0.3995 0.0
C910 C 0.20945 0.83372 0.37935 0.0
C911 C 0.19379 0.84464 0.37853 0.0
C912 C 0.20327 0.86882 0.38963 0.0
H913 H 0.04166 0.78251 0.30059 0.0
H914 H 0.07923 0.80904 0.32822 0.0
C915 C 0.22853 0.88245 0.39988 0.0
C916 C 0.16801 0.83094 0.36537 0.0
H917 H 0.13576 0.83524 0.31441 0.0
C918 C 0.14847 0.80598 0.37366 0.0
C919 C 0.16316 0.84173 0.34389 0.0
C920 C 0.18367 0.868 0.33327 0.0
C921 C 0.12455 0.79148 0.36093 0.0
C922 C 0.12004 0.802 0.33906 0.0
C923 C 0.13914 0.82723 0.33124 0.0
C924 C 0.09696 0.78618 0.32263 0.0
C925 C 0.10434 0.76484 0.37089 0.0
C926 C 0.09466 0.76485 0.30996 0.0
C927 C 0.07352 0.74991 0.29415 0.0
C928 C 0.05393 0.75581 0.29045 0.0
C929 C 0.05628 0.77734 0.30301 0.0
C930 C 0.07774 0.79251 0.31881 0.0
H931 H 0.10698 0.7625 0.39148 0.0
H932 H 0.08386 0.76043 0.36865 0.0
H933 H 0.10673 0.7506 0.35976 0.0
H934 H 0.10944 0.75982 0.31214 0.0
H935 H 0.07256 0.73355 0.28487 0.0
H936 H 0.31277 0.24498 0.31308 0.0
H937 H 0.28745 0.26183 0.33394 0.0
H938 H 0.29852 0.30625 0.26567 0.0
H939 H 0.3244 0.29 0.24498 0.0
H940 H 0.30935 0.33539 0.30742 0.0
H941 H 0.21307 0.24463 0.32547 0.0
H942 H 0.24026 0.24452 0.33904 0.0
H943 H 0.23899 0.24634 0.30468 0.0
C944 C 0.30934 0.25791 0.30228 0.0
C945 C 0.3205 0.26593 0.27723 0.0
C946 C 0.2948 0.26756 0.31428 0.0
C947 C 0.29074 0.28521 0.30139 0.0
C948 C 0.30131 0.29271 0.27612 0.0
H949 H 0.17682 0.3276 0.34365 0.0
H950 H 0.20301 0.31122 0.3246 0.0
C951 C 0.31599 0.28322 0.26421 0.0
C952 C 0.27653 0.29675 0.31445 0.0
H953 H 0.21813 0.28192 0.34527 0.0
C954 C 0.28937 0.32366 0.31566 0.0
C955 C 0.25036 0.28159 0.3251 0.0
C956 C 0.23474 0.25269 0.32333 0.0
C957 C 0.27686 0.33575 0.32706 0.0
C958 C 0.25089 0.32057 0.33816 0.0
C959 C 0.2381 0.29366 0.33702 0.0
C960 C 0.23586 0.33198 0.3496 0.0
C961 C 0.29133 0.36468 0.32633 0.0
C962 C 0.24551 0.34946 0.37005 0.0
C963 C 0.23053 0.35921 0.38095 0.0
C964 C 0.2054 0.35138 0.37188 0.0
C965 C 0.196 0.33406 0.3513 0.0
C966 C 0.21098 0.32456 0.34035 0.0
H967 H 0.30776 0.37308 0.31147 0.0
H968 H 0.27764 0.37131 0.32238 0.0
H969 H 0.29999 0.37223 0.34526 0.0
H970 H 0.26437 0.35517 0.37799 0.0
H971 H 0.2383 0.37231 0.3969 0.0
H972 H 0.84388 0.0456 0.32757 0.0
H973 H 0.82527 1.0041 0.34968 0.0
H974 H 0.77289 0.96644 0.28754 0.0
H975 H 0.79143 1.00776 0.26528 0.0
H976 H 0.77229 0.97154 0.36649 0.0
H977 H 0.8031 0.92085 0.29862 0.0
H978 H 0.81802 0.95524 0.29761 0.0
H979 H 0.78641 0.93449 0.28386 0.0
C980 C 0.82883 0.02844 0.31829 0.0
C981 C 0.81934 0.03012 0.29449 0.0
C982 C 0.81805 1.00469 0.33108 0.0
C983 C 0.79774 0.98199 0.32029 0.0
C984 C 0.78881 0.98352 0.29616 0.0
H985 H 0.68133 0.83641 0.39598 0.0
H986 H 0.705 0.87949 0.3764 0.0
C987 C 0.79947 1.00725 0.28342 0.0
C988 C 0.78487 0.95703 0.33484 0.0
H989 H 0.77091 0.89532 0.33145 0.0
C990 C 0.77212 0.95492 0.35887 0.0
C991 C 0.78474 0.93531 0.3251 0.0
C992 C 0.799 0.93654 0.3 0.0
C993 C 0.75886 0.93166 0.37308 0.0
C994 C 0.75805 0.90972 0.36297 0.0
C995 C 0.77128 0.912 0.33919 0.0
C996 C 0.74375 0.88427 0.37671 0.0
C997 C 0.74612 0.93088 0.39899 0.0
C998 C 0.7575 0.87244 0.38354 0.0
C999 C 0.74401 0.84782 0.39482 0.0
C1000 C 0.71632 0.83422 0.39936 0.0
C1001 C 0.70265 0.84634 0.39305 0.0
C1002 C 0.7162 0.87105 0.38184 0.0
H1003 H 0.75421 0.95043 0.40688 0.0
H1004 H 0.72451 0.92205 0.39697 0.0
H1005 H 0.74903 0.91912 0.41299 0.0
H1006 H 0.77871 0.88213 0.37979 0.0
H1007 H 0.75524 0.83913 0.39922 0.0
H1008 H 0.90407 0.16435 0.22662 0.0
H1009 H 0.93257 0.20714 0.20649 0.0
H1010 H 0.86536 0.21578 0.20327 0.0
H1011 H 0.83695 0.17342 0.22298 0.0
H1012 H 0.92299 0.22291 0.15613 0.0
H1013 H 0.92414 0.28366 0.23661 0.0
H1014 H 0.91649 0.25124 0.24147 0.0
H1015 H 0.8921 0.25674 0.22916 0.0
C1016 C 0.89545 0.17548 0.22184 0.0
C1017 C 0.86818 0.16534 0.22642 0.0
C1018 C 0.91174 0.19991 0.21031 0.0
C1019 C 0.90115 0.21482 0.20363 0.0
C1020 C 0.87408 0.20486 0.20856 0.0
H1021 H 0.96056 0.36351 0.12634 0.0
H1022 H 0.93379 0.32311 0.15121 0.0
C1023 C 0.85782 0.18048 0.21973 0.0
C1024 C 0.9178 0.24016 0.19021 0.0
H1025 H 0.94139 0.30434 0.19602 0.0
C1026 C 0.92724 0.24074 0.16493 0.0
C1027 C 0.92291 0.26338 0.20151 0.0
C1028 C 0.91359 0.26392 0.22875 0.0
C1029 C 0.94127 0.26379 0.15051 0.0
C1030 C 0.94675 0.28716 0.1619 0.0
C1031 C 0.93724 0.28654 0.18722 0.0
C1032 C 0.96318 0.31241 0.14809 0.0
C1033 C 0.9494 0.26267 0.12291 0.0
C1034 C 0.98887 0.32033 0.13881 0.0
C1035 C 1.00395 0.34309 0.12453 0.0
C1036 C 0.99401 0.35894 0.11943 0.0
C1037 C 0.96876 0.35173 0.12979 0.0
C1038 C 0.95346 0.32862 0.14398 0.0
H1039 H 0.93671 0.24321 0.11483 0.0
H1040 H 0.94831 0.27676 0.11062 0.0
H1041 H 0.97011 0.2672 0.12198 0.0
H1042 H 0.99726 0.30874 0.14239 0.0
H1043 H 0.0235 0.34819 0.11733 0.0
H1044 H 0.70813 0.57223 0.13424 0.0
H1045 H 0.74518 0.58266 0.16188 0.0
H1046 H 0.77403 0.66324 0.15371 0.0
H1047 H 0.73764 0.65323 0.12649 0.0
H1048 H 0.80161 0.61555 0.14957 0.0
H1049 H 0.77065 0.6527 0.23218 0.0
H1050 H 0.7481 0.63268 0.20795 0.0
H1051 H 0.77064 0.66647 0.20191 0.0
C1052 C 0.72231 0.59213 0.13846 0.0
C1053 C 0.71976 0.61182 0.12808 0.0
C1054 C 0.74349 0.59808 0.15424 0.0
C1055 C 0.7622 0.62375 0.16025 0.0
C1056 C 0.75964 0.64329 0.14983 0.0
H1057 H 0.91067 0.72284 0.22823 0.0
H1058 H 0.86654 0.70119 0.21069 0.0
C1059 C 0.73878 0.63745 0.13404 0.0
C1060 C 0.7851 0.63071 0.17654 0.0
H1061 H 0.81624 0.66502 0.22975 0.0
C1062 C 0.80462 0.62593 0.16737 0.0
C1063 C 0.7891 0.64438 0.19972 0.0
C1064 C 0.7684 0.64917 0.21119 0.0
C1065 C 0.8286 0.63564 0.17995 0.0
C1066 C 0.83301 0.65012 0.20268 0.0
C1067 C 0.81301 0.65403 0.21234 0.0
C1068 C 0.85885 0.6628 0.21567 0.0
C1069 C 0.84957 0.63146 0.16801 0.0
C1070 C 0.869 0.64848 0.22528 0.0
C1071 C 0.89433 0.66086 0.2354 0.0
C1072 C 0.91003 0.68786 0.23628 0.0
C1073 C 0.89921 0.70205 0.2279 0.0
C1074 C 0.87393 0.68967 0.21778 0.0
H1075 H 0.84552 0.62506 0.14777 0.0
H1076 H 0.86945 0.64933 0.16845 0.0
H1077 H 0.8501 0.61639 0.17912 0.0
H1078 H 0.85756 0.62771 0.22448 0.0
H1079 H 0.90195 0.64928 0.2417 0.0
H1080 H 0.45137 0.25413 0.19302 0.0
H1081 H 0.46576 0.22731 0.17296 0.0
H1082 H 0.39012 0.15963 0.1932 0.0
H1083 H 0.37553 0.18662 0.21408 0.0
H1084 H 0.43146 0.15269 0.20137 0.0
H1085 H 0.44436 0.19372 0.10391 0.0
H1086 H 0.46292 0.21803 0.12697 0.0
H1087 H 0.42728 0.1995 0.12998 0.0
C1088 C 0.43759 0.23354 0.19325 0.0
C1089 C 0.41207 0.22264 0.20504 0.0
C1090 C 0.4459 0.21818 0.18156 0.0
C1091 C 0.42889 0.19142 0.1809 0.0
C1092 C 0.40359 0.18026 0.1932 0.0
H1093 H 0.45912 0.0948 0.07873 0.0
H1094 H 0.443 0.12014 0.09955 0.0
C1095 C 0.39524 0.19572 0.20513 0.0
C1096 C 0.43789 0.17541 0.16749 0.0
H1097 H 0.46447 0.16931 0.11028 0.0
C1098 C 0.43849 0.1562 0.1814 0.0
C1099 C 0.44679 0.17963 0.14128 0.0
C1100 C 0.44506 0.19865 0.12459 0.0
C1101 C 0.44833 0.14167 0.17009 0.0
C1102 C 0.45847 0.14682 0.14424 0.0
C1103 C 0.4572 0.16557 0.13018 0.0
C1104 C 0.46953 0.13237 0.13108 0.0
C1105 C 0.44724 0.12058 0.18584 0.0
C1106 C 0.49055 0.13134 0.14124 0.0
C1107 C 0.49986 0.11672 0.12931 0.0
C1108 C 0.48858 0.10303 0.10675 0.0
C1109 C 0.46839 0.10509 0.09601 0.0
C1110 C 0.45903 0.11955 0.10799 0.0
H1111 H 0.43232 0.11426 0.20208 0.0
H1112 H 0.44235 0.10367 0.17385 0.0
H1113 H 0.46686 0.12784 0.19406 0.0
H1114 H 0.4996 0.14161 0.15859 0.0
H1115 H 0.51542 0.11562 0.13815 0.0
H1116 H 0.72824 0.07598 0.63417 0.0
H1117 H 0.7676 0.10267 0.65823 0.0
H1118 H 0.74638 0.15968 0.66719 0.0
H1119 H 0.70609 0.13251 0.64307 0.0
H1120 H 0.80866 0.1509 0.64461 0.0
H1121 H 0.76475 0.15217 0.74064 0.0
H1122 H 0.7456 0.12927 0.71634 0.0
H1123 H 0.75394 0.16191 0.71368 0.0
C1124 C 0.73167 0.09412 0.64127 0.0
C1125 C 0.71388 0.10208 0.63646 0.0
C1126 C 0.75432 0.1094 0.65513 0.0
C1127 C 0.76004 0.13317 0.66472 0.0
C1128 C 0.74224 0.14122 0.66035 0.0
H1129 H 0.90632 0.24582 0.74041 0.0
H1130 H 0.86196 0.22394 0.72297 0.0
C1131 C 0.71928 0.12575 0.64643 0.0
C1132 C 0.78539 0.14957 0.67803 0.0
H1133 H 0.81147 0.175 0.73621 0.0
C1134 C 0.80921 0.15626 0.66461 0.0
C1135 C 0.78625 0.15671 0.70412 0.0
C1136 C 0.76131 0.14956 0.71971 0.0
C1137 C 0.83364 0.16934 0.67656 0.0
C1138 C 0.83444 0.17572 0.70285 0.0
C1139 C 0.81081 0.16991 0.71613 0.0
C1140 C 0.85971 0.18793 0.7167 0.0
C1141 C 0.85849 0.17617 0.66092 0.0
C1142 C 0.87281 0.17469 0.71992 0.0
C1143 C 0.89811 0.18707 0.72998 0.0
C1144 C 0.91092 0.21304 0.73707 0.0
C1145 C 0.89709 0.22582 0.73518 0.0
C1146 C 0.87171 0.21336 0.72517 0.0
H1147 H 0.85549 0.17554 0.63993 0.0
H1148 H 0.8751 0.19564 0.66574 0.0
H1149 H 0.86433 0.1622 0.66536 0.0
H1150 H 0.8638 0.15495 0.71383 0.0
H1151 H 0.90806 0.17658 0.73115 0.0
H1152 H 0.95454 0.56517 0.61708 0.0
H1153 H 0.92686 0.57899 0.63964 0.0
H1154 H 0.99469 0.65613 0.64299 0.0
H1155 H 1.02195 0.64276 0.62031 0.0
H1156 H 0.92942 0.60273 0.68685 0.0
H1157 H 0.94284 0.66764 0.60658 0.0
H1158 H 0.95198 0.64394 0.60344 0.0
H1159 H 0.97374 0.67424 0.61833 0.0
C1160 C 0.96352 0.58498 0.62291 0.0
C1161 C 0.99036 0.60291 0.61652 0.0
C1162 C 0.9477 0.59291 0.63571 0.0
C1163 C 0.95849 0.61883 0.64237 0.0
C1164 C 0.98562 0.63625 0.63736 0.0
H1165 H 0.90163 0.7121 0.71419 0.0
H1166 H 0.92898 0.69578 0.69653 0.0
C1167 C 1.00125 0.62848 0.62447 0.0
C1168 C 0.9417 0.62816 0.65406 0.0
H1169 H 0.92431 0.6727 0.64596 0.0
C1170 C 0.92814 0.61787 0.6778 0.0
C1171 C 0.93997 0.648 0.64233 0.0
C1172 C 0.95268 0.65893 0.61615 0.0
C1173 C 0.91351 0.62729 0.69035 0.0
C1174 C 0.91219 0.64739 0.67878 0.0
C1175 C 0.92559 0.65755 0.655 0.0
C1176 C 0.89591 0.65726 0.69039 0.0
C1177 C 0.89995 0.61598 0.71613 0.0
C1178 C 0.86826 0.64119 0.69256 0.0
C1179 C 0.85266 0.65048 0.70237 0.0
C1180 C 0.86425 0.67614 0.71038 0.0
C1181 C 0.89203 0.69225 0.70833 0.0
C1182 C 0.90767 0.68295 0.69822 0.0
H1183 H 0.90796 0.60527 0.72521 0.0
H1184 H 0.90214 0.63123 0.7294 0.0
H1185 H 0.87848 0.60241 0.71354 0.0
H1186 H 0.85865 0.62147 0.68626 0.0
H1187 H 0.83137 0.63743 0.70361 0.0
H1188 H 0.34408 0.16636 0.72482 0.0
H1189 H 0.36594 0.20975 0.70614 0.0
H1190 H 0.44223 0.21943 0.71643 0.0
H1191 H 0.42063 0.17612 0.73497 0.0
H1192 H 0.40634 0.26049 0.72296 0.0
H1193 H 0.43988 0.2278 0.63785 0.0
H1194 H 0.4148 0.20563 0.66086 0.0
H1195 H 0.44912 0.22245 0.66852 0.0
C1196 C 0.36552 0.17789 0.72362 0.0
C1197 C 0.38054 0.16759 0.73128 0.0
C1198 C 0.37801 0.20272 0.71287 0.0
C1199 C 0.40573 0.21772 0.70943 0.0
C1200 C 0.42081 0.20809 0.71848 0.0
H1201 H 0.49149 0.3768 0.64416 0.0
H1202 H 0.47996 0.33997 0.67246 0.0
C1203 C 0.40838 0.18332 0.72924 0.0
C1204 C 0.41867 0.24255 0.69478 0.0
H1205 H 0.45217 0.27109 0.63801 0.0
C1206 C 0.4166 0.26293 0.70451 0.0
C1207 C 0.43189 0.24568 0.67057 0.0
C1208 C 0.43397 0.22422 0.65863 0.0
C1209 C 0.42712 0.28617 0.69057 0.0
C1210 C 0.44014 0.28917 0.66629 0.0
C1211 C 0.44251 0.26892 0.65676 0.0
C1212 C 0.44855 0.31179 0.64911 0.0
C1213 C 0.42332 0.30698 0.70139 0.0
C1214 C 0.43531 0.30815 0.62631 0.0
C1215 C 0.44179 0.32897 0.61028 0.0
C1216 C 0.46194 0.3541 0.61641 0.0
C1217 C 0.47595 0.35773 0.63882 0.0
C1218 C 0.46921 0.33673 0.65511 0.0
H1219 H 0.40987 0.30042 0.71882 0.0
H1220 H 0.44279 0.32367 0.70659 0.0
H1221 H 0.4151 0.31362 0.68673 0.0
H1222 H 0.41942 0.28915 0.62116 0.0
H1223 H 0.43064 0.32534 0.59314 0.0
H1224 H 0.28118 0.02583 0.78565 0.0
H1225 H 0.25405 0.98477 0.80946 0.0
H1226 H 0.32186 0.97699 0.812 0.0
H1227 H 0.34873 0.01739 0.78834 0.0
H1228 H 0.24739 0.93582 0.79095 0.0
H1229 H 0.29037 0.96175 0.88732 0.0
H1230 H 0.29334 0.98537 0.86465 0.0
H1231 H 0.31408 0.97228 0.86065 0.0
C1232 C 0.29034 0.01554 0.79172 0.0
C1233 C 0.31707 0.02484 0.78501 0.0
C1234 C 0.27483 0.99207 0.80522 0.0
C1235 C 0.286 0.9779 0.81272 0.0
C1236 C 0.31287 0.98767 0.80677 0.0
H1237 H 0.23302 0.82843 0.88311 0.0
H1238 H 0.25907 0.87231 0.86506 0.0
C1239 C 0.32817 1.01076 0.79307 0.0
C1240 C 0.26948 0.95197 0.82496 0.0
H1241 H 0.26278 0.91718 0.87884 0.0
C1242 C 0.25049 0.93178 0.81028 0.0
C1243 C 0.27396 0.94662 0.84998 0.0
C1244 C 0.2939 0.96764 0.86672 0.0
C1245 C 0.23625 0.90631 0.81969 0.0
C1246 C 0.24051 0.90091 0.84486 0.0
C1247 C 0.25947 0.9212 0.85958 0.0
C1248 C 0.22498 0.87448 0.85637 0.0
C1249 C 0.21746 0.88535 0.80214 0.0
C1250 C 0.19722 0.86124 0.85807 0.0
C1251 C 0.1824 0.83622 0.86805 0.0
C1252 C 0.19489 0.82379 0.8771 0.0
C1253 C 0.22275 0.83732 0.8762 0.0
C1254 C 0.23765 0.86243 0.86591 0.0
H1255 H 0.22273 0.89122 0.78158 0.0
H1256 H 0.21738 0.8674 0.80513 0.0
H1257 H 0.1971 0.88121 0.8062 0.0
H1258 H 0.18691 0.87028 0.85166 0.0
H1259 H 0.16101 0.82666 0.86877 0.0
H1260 H 0.041 0.2492 0.80264 0.0
H1261 H 0.07756 0.26119 0.83158 0.0
H1262 H 0.11162 0.34092 0.81159 0.0
H1263 H 0.07584 0.32938 0.78293 0.0
H1264 H 0.13548 0.29166 0.81757 0.0
H1265 H 0.10649 0.33875 0.89184 0.0
H1266 H 0.08342 0.31589 0.86949 0.0
H1267 H 0.10647 0.34855 0.85943 0.0
C1268 C 0.05627 0.26926 0.80448 0.0
C1269 C 0.05537 0.28825 0.79035 0.0
C1270 C 0.07714 0.27609 0.82101 0.0
C1271 C 0.09716 0.30203 0.82404 0.0
C1272 C 0.09624 0.32086 0.80993 0.0
H1273 H 0.24528 0.40401 0.89218 0.0
H1274 H 0.20142 0.38203 0.874 0.0
C1275 C 0.07573 0.31411 0.79335 0.0
C1276 C 0.1197 0.3099 0.84112 0.0
H1277 H 0.1511 0.34861 0.89192 0.0
C1278 C 0.1387 0.3037 0.83413 0.0
C1279 C 0.12402 0.32583 0.86259 0.0
C1280 C 0.10393 0.33251 0.87149 0.0
C1281 C 0.1625 0.31405 0.84719 0.0
C1282 C 0.16718 0.33059 0.8683 0.0
C1283 C 0.14767 0.33602 0.8758 0.0
C1284 C 0.19281 0.34368 0.88175 0.0
C1285 C 0.183 0.30826 0.8373 0.0
C1286 C 0.20234 0.32958 0.89319 0.0
C1287 C 0.22756 0.34215 0.90355 0.0
C1288 C 0.24371 0.36915 0.90305 0.0
C1289 C 0.23345 0.38323 0.89299 0.0
C1290 C 0.20832 0.37064 0.88248 0.0
H1291 H 0.17924 0.30073 0.81741 0.0
H1292 H 0.20322 0.3257 0.83746 0.0
H1293 H 0.18244 0.29346 0.84986 0.0
H1294 H 0.19054 0.3088 0.8936 0.0
H1295 H 0.23471 0.33066 0.91123 0.0
H1296 H 0.79212 0.76037 0.74619 0.0
H1297 H 0.77409 0.78415 0.76704 0.0
H1298 H 0.82486 0.80084 0.83056 0.0
H1299 H 0.84288 0.77678 0.80989 0.0
H1300 H 0.77224 0.78209 0.84642 0.0
H1301 H 0.80689 0.86123 0.77516 0.0
H1302 H 0.78891 0.82976 0.76155 0.0
H1303 H 0.82023 0.84076 0.77559 0.0
C1304 C 0.79989 0.7695 0.76437 0.0
C1305 C 0.81918 0.76677 0.77622 0.0
C1306 C 0.78951 0.78314 0.77629 0.0
C1307 C 0.79818 0.79451 0.80035 0.0
C1308 C 0.81783 0.7923 0.812 0.0
H1309 H 0.7732 0.90716 0.87368 0.0
H1310 H 0.78926 0.88219 0.85248 0.0
C1311 C 0.82831 0.7787 0.80003 0.0
C1312 C 0.78604 0.80783 0.81374 0.0
H1313 H 0.77592 0.85751 0.80766 0.0
C1314 C 0.77308 0.79861 0.83796 0.0
C1315 C 0.78716 0.82947 0.80283 0.0
C1316 C 0.80174 0.84109 0.77747 0.0
C1317 C 0.76127 0.81037 0.8515 0.0
C1318 C 0.76205 0.83179 0.8404 0.0
C1319 C 0.77501 0.84096 0.81616 0.0
C1320 C 0.75145 0.84629 0.85425 0.0
C1321 C 0.74874 0.80019 0.87788 0.0
C1322 C 0.72463 0.83457 0.86258 0.0
C1323 C 0.71523 0.84895 0.87506 0.0
C1324 C 0.73242 0.8754 0.8792 0.0
C1325 C 0.75921 0.8869 0.87083 0.0
C1326 C 0.76852 0.8726 0.85859 0.0
H1327 H 0.75522 0.78781 0.88608 0.0
H1328 H 0.75368 0.81616 0.89132 0.0
H1329 H 0.72689 0.78848 0.87654 0.0
H1330 H 0.71085 0.8144 0.85907 0.0
H1331 H 0.69449 0.83947 0.88106 0.0
H1332 H 0.57311 0.50165 0.5569 0.0
H1333 H 0.59562 0.54569 0.54009 0.0
H1334 H 0.52481 0.54739 0.55557 0.0
H1335 H 0.50214 0.50334 0.57253 0.0
H1336 H 0.57734 0.55907 0.49712 0.0
H1337 H 0.58392 0.61791 0.58181 0.0
H1338 H 0.57873 0.58621 0.58493 0.0
H1339 H 0.55188 0.58987 0.57662 0.0
C1340 C 0.56247 0.51155 0.55735 0.0
C1341 C 0.53576 0.49885 0.56612 0.0
C1342 C 0.57537 0.53675 0.54761 0.0
C1343 C 0.56201 0.55 0.54664 0.0
C1344 C 0.53572 0.5378 0.55645 0.0
H1345 H 0.6149 0.69885 0.46853 0.0
H1346 H 0.58801 0.65899 0.49438 0.0
C1347 C 0.52274 0.51253 0.5661 0.0
C1348 C 0.5748 0.57541 0.53309 0.0
H1349 H 0.59805 0.63932 0.54136 0.0
C1350 C 0.58182 0.57658 0.50684 0.0
C1351 C 0.58029 0.59826 0.5456 0.0
C1352 C 0.57353 0.59822 0.57384 0.0
C1353 C 0.59444 0.59986 0.49288 0.0
C1354 C 0.60085 0.6229 0.50554 0.0
C1355 C 0.59317 0.62171 0.53164 0.0
C1356 C 0.61747 0.64837 0.49227 0.0
C1357 C 0.60087 0.59956 0.46457 0.0
C1358 C 0.6432 0.65612 0.48333 0.0
C1359 C 0.65834 0.67854 0.46863 0.0
C1360 C 0.64837 0.69415 0.46257 0.0
C1361 C 0.62313 0.68725 0.47275 0.0
C1362 C 0.60777 0.66447 0.48748 0.0
H1363 H 0.58798 0.58024 0.45628 0.0
H1364 H 0.59861 0.61371 0.45365 0.0
H1365 H 0.62172 0.60465 0.4619 0.0
H1366 H 0.65141 0.64442 0.48724 0.0
H1367 H 0.67787 0.68341 0.46158 0.0
H1368 H 0.57551 0.07358 0.56344 0.0
H1369 H 0.53351 0.05228 0.5417 0.0
H1370 H 0.51838 0.97851 0.56578 0.0
H1371 H 0.56047 0.99966 0.58759 0.0
H1372 H 0.52288 0.01591 0.501 0.0
H1373 H 0.44614 0.97346 0.58067 0.0
H1374 H 0.47948 0.99993 0.5855 0.0
H1375 H 0.47304 0.96803 0.58167 0.0
C1376 C 0.56301 0.05285 0.5647 0.0
C1377 C 0.57147 0.03839 0.57737 0.0
C1378 C 0.53899 0.04068 0.55212 0.0
C1379 C 0.52266 1.01377 0.55213 0.0
C1380 C 0.53042 0.99928 0.56575 0.0
H1381 H 0.37481 0.91691 0.46866 0.0
H1382 H 0.41258 0.93037 0.49633 0.0
C1383 C 0.55455 1.01145 0.57823 0.0
C1384 C 0.49891 1.00104 0.53597 0.0
H1385 H 0.43111 0.96436 0.5383 0.0
C1386 C 0.50283 1.00461 0.50919 0.0
C1387 C 0.47273 0.98589 0.54655 0.0
C1388 C 0.46738 0.98162 0.57518 0.0
C1389 C 0.4814 0.99383 0.49278 0.0
C1390 C 0.45512 0.97957 0.50337 0.0
C1391 C 0.45118 0.97531 0.53012 0.0
C1392 C 0.43175 0.97086 0.48709 0.0
C1393 C 0.48721 0.99779 0.46413 0.0
C1394 C 0.42962 0.98905 0.47305 0.0
C1395 C 0.40833 0.98146 0.45725 0.0
C1396 C 0.38821 0.95539 0.45514 0.0
C1397 C 0.38998 0.9371 0.46963 0.0
C1398 C 0.41153 0.94479 0.48551 0.0
H1399 H 0.50716 1.00131 0.45881 0.0
H1400 H 0.47223 0.98092 0.45337 0.0
H1401 H 0.48685 0.01488 0.45797 0.0
H1402 H 0.4445 1.0093 0.47435 0.0
H1403 H 0.40767 0.99626 0.44674 0.0
H1404 H 0.13343 0.43181 0.42002 0.0
H1405 H 0.11486 0.4541 0.44315 0.0
H1406 H 0.15988 0.46129 0.50899 0.0
H1407 H 0.17849 0.43884 0.48597 0.0
H1408 H 0.10618 0.44193 0.52161 0.0
H1409 H 0.1483 0.52992 0.46116 0.0
H1410 H 0.13148 0.50065 0.44337 0.0
H1411 H 0.16108 0.50894 0.45955 0.0
C1412 C 0.13984 0.43856 0.43924 0.0
C1413 C 0.15769 0.43364 0.45099 0.0
C1414 C 0.12917 0.45137 0.45248 0.0
C1415 C 0.13605 0.45963 0.47783 0.0
C1416 C 0.15427 0.45521 0.48945 0.0
H1417 H 0.09561 0.56023 0.56038 0.0
H1418 H 0.11826 0.54 0.5412 0.0
C1419 C 0.16507 0.44251 0.47616 0.0
C1420 C 0.12327 0.47173 0.49253 0.0
H1421 H 0.11387 0.52221 0.49162 0.0
C1422 C 0.10799 0.45956 0.5151 0.0
C1423 C 0.12571 0.49486 0.48428 0.0
C1424 C 0.14272 0.50953 0.4609 0.0
C1425 C 0.09472 0.46955 0.52925 0.0
C1426 C 0.0965 0.49226 0.52055 0.0
C1427 C 0.11224 0.5047 0.49827 0.0
C1428 C 0.08243 0.50362 0.53425 0.0
C1429 C 0.07918 0.45586 0.55361 0.0
C1430 C 0.05461 0.48991 0.53718 0.0
C1431 C 0.04151 0.50147 0.54827 0.0
C1432 C 0.05592 0.52707 0.55665 0.0
C1433 C 0.08379 0.54046 0.55434 0.0
C1434 C 0.09683 0.52894 0.54321 0.0
H1435 H 0.08536 0.44302 0.56122 0.0
H1436 H 0.08159 0.46978 0.56871 0.0
H1437 H 0.05784 0.44388 0.54951 0.0
H1438 H 0.04293 0.47053 0.53006 0.0
H1439 H 1.02006 0.49063 0.54943 0.0
H1440 H 0.37469 0.45803 0.97296 0.0
H1441 H 0.41341 0.48337 -0.0003 0.0
H1442 H 0.44654 0.43946 0.97138 0.0
H1443 H 0.40885 0.41472 0.94475 0.0
H1444 H 0.43496 0.46792 0.03877 0.0
H1445 H 0.50677 0.51296 0.95635 0.0
H1446 H 0.47145 0.49699 0.95291 0.0
H1447 H 0.48713 0.47867 0.95388 0.0
C1448 C 0.39032 0.45392 0.97237 0.0
C1449 C 0.38867 0.4345 0.95636 0.0
C1450 C 0.4124 0.46835 0.98771 0.0
C1451 C 0.43321 0.46368 0.98718 0.0
C1452 C 0.43117 0.44393 0.9717 0.0
H1453 H 0.5785 0.50393 0.05556 0.0
H1454 H 0.53513 0.48335 0.0364 0.0
C1455 C 0.40939 0.42968 0.95646 0.0
C1456 C 0.45725 0.47904 0.0026 0.0
H1457 H 0.52495 0.51323 -0.00321 0.0
C1458 C 0.45463 0.47823 0.02961 0.0
C1459 C 0.483 0.49257 0.99071 0.0
C1460 C 0.4873 0.4956 0.96187 0.0
C1461 C 0.47706 0.4895 0.04491 0.0
C1462 C 0.50269 0.50186 0.03291 0.0
C1463 C 0.50529 0.50346 0.00598 0.0
C1464 C 0.52722 0.51279 0.04773 0.0
C1465 C 0.47335 0.48734 0.07378 0.0
C1466 C 0.53702 0.53597 0.06095 0.0
C1467 C 0.56196 0.54791 0.07187 0.0
C1468 C 0.57757 0.53684 0.06984 0.0
C1469 C 0.56704 0.51297 0.05766 0.0
C1470 C 0.54225 0.50119 0.04659 0.0
H1471 H 0.45217 0.47501 0.08015 0.0
H1472 H 0.48459 0.47931 0.08172 0.0
H1473 H 0.48134 0.50675 0.08195 0.0
H1474 H 0.5259 0.5454 0.06186 0.0
H1475 H 0.56946 0.56633 0.08096 0.0
H1476 H 0.6408 0.9389 0.91547 0.0
H1477 H 0.61628 0.95699 0.9352 0.0
H1478 H 0.60172 0.91208 0.004 0.0
H1479 H 0.62565 0.89326 0.98397 0.0
H1480 H 0.55919 0.91403 -0.00577 0.0
H1481 H 0.64662 1.01292 0.98734 0.0
H1482 H 0.63799 0.99824 0.95642 0.0
H1483 H 0.64875 0.98515 0.98046 0.0
C1484 C 0.63201 0.93252 0.93466 0.0
C1485 C 0.63528 0.91464 0.94814 0.0
C1486 C 0.61827 0.94317 0.94608 0.0
C1487 C 0.60785 0.93665 0.97149 0.0
C1488 C 0.60981 0.91773 0.9845 0.0
H1489 H 0.56102 0.03081 0.06121 0.0
H1490 H 0.58473 1.01042 0.04431 0.0
C1491 C 0.62335 0.90681 0.97295 0.0
C1492 C 0.59522 0.94976 0.98444 0.0
H1493 H 0.60511 1.00896 -0.002 0.0
C1494 C 0.56934 0.93478 -0.00484 0.0
C1495 C 0.60855 0.97689 0.98637 0.0
C1496 C 0.63711 0.99422 0.97729 0.0
C1497 C 0.55617 0.94608 0.00683 0.0
C1498 C 0.56888 0.97324 0.00726 0.0
C1499 C 0.59511 0.9882 -0.00262 0.0
C1500 C 0.55505 0.98636 0.01722 0.0
C1501 C 0.52884 0.92868 0.01893 0.0
C1502 C 0.5309 0.98036 0.00718 0.0
C1503 C 0.5173 0.99179 0.0169 0.0
C1504 C 0.52766 1.00998 0.03668 0.0
C1505 C 0.55243 0.01688 0.04603 0.0
C1506 C 0.56597 1.00516 0.0364 0.0
H1507 H 0.52578 0.90987 0.02471 0.0
H1508 H 0.52534 0.93754 0.03612 0.0
H1509 H 0.51382 0.92491 0.00471 0.0
H1510 H 0.52241 0.96668 0.99178 0.0
H1511 H 0.49849 0.98623 0.00891 0.0
H1512 H 0.1754 0.71048 0.98377 0.0
H1513 H 0.1582 0.67007 0.0076 0.0
H1514 H 0.11127 0.62797 0.94346 0.0
H1515 H 0.12844 0.66818 0.91949 0.0
H1516 H 0.10485 0.63503 0.0217 0.0
H1517 H 0.14586 0.58772 0.96174 0.0
H1518 H 0.15843 0.62166 0.95923 0.0
H1519 H 0.1284 0.5988 0.94401 0.0
C1520 C 0.1619 0.6926 0.97447 0.0
C1521 C 0.15349 0.69267 0.94957 0.0
C1522 C 0.15191 0.66948 0.98823 0.0
C1523 C 0.13351 0.64586 0.97735 0.0
C1524 C 0.12574 0.64582 0.9522 0.0
H1525 H 1.02041 0.49934 0.05328 0.0
H1526 H 0.04244 0.54199 0.03289 0.0
C1527 C 0.1356 0.66892 0.93848 0.0
C1528 C 0.12134 0.62146 0.99274 0.0
H1529 H 0.11244 0.56158 0.99339 0.0
C1530 C 0.10664 0.61902 0.01557 0.0
C1531 C 0.12376 0.60057 0.98494 0.0
C1532 C 0.14016 0.6023 0.96127 0.0
C1533 C 0.09393 0.59618 0.03044 0.0
C1534 C 0.09571 0.57502 0.02221 0.0
C1535 C 0.11085 0.57766 -0.00034 0.0
C1536 C 0.08222 0.55001 0.03669 0.0
C1537 C 0.07899 0.59503 0.05502 0.0
C1538 C 0.09711 0.5402 0.04583 0.0
C1539 C 0.08456 0.51584 0.05755 0.0
C1540 C 0.05673 0.5005 0.06027 0.0
C1541 C 0.04185 0.51066 0.05181 0.0
C1542 C 0.05446 0.53512 0.04012 0.0
H1543 H 0.08513 0.61452 0.06202 0.0
H1544 H 0.0575 0.58469 0.05149 0.0
H1545 H 0.08205 0.5845 0.07036 0.0
H1546 H 0.11851 0.55123 0.04345 0.0
H1547 H 0.09672 0.50868 0.06367 0.0
loop_
_geom_bond_atom_site_label_1
_geom_bond_atom_site_label_2
_geom_bond_distance
_geom_bond_site_symmetry_2
_ccdc_geom_bond_type
O0 Cd1 2.223 . S
O0 C8 1.315 . S
Cd1 O0 2.223 . S
Cd1 O4 2.297 . S
Cd1 O5 2.439 1_455 S
Cd1 O11 2.240 . S
Cd2 O3 2.240 . S
Cd2 O10 2.223 . S
Cd2 O12 2.297 1_455 S
Cd2 O13 2.439 1_455 S
O3 Cd2 2.240 . S
O3 C8 1.279 . S
O4 Cd1 2.297 . S
O4 C6 1.247 . S
O5 Cd1 2.439 1_655 S
O5 C6 1.208 1_655 S
C6 O4 1.247 . S
C6 O5 1.208 1_455 S
C7 O12 1.247 . S
C7 O13 1.208 . S
C8 O0 1.315 . S
C8 O3 1.279 . S
C9 O10 1.315 . S
C9 O11 1.279 . S
O10 Cd2 2.223 . S
O10 C9 1.315 . S
O11 Cd1 2.240 . S
O11 C9 1.279 . S
O12 Cd2 2.297 1_655 S
O12 C7 1.247 . S
O13 Cd2 2.439 1_655 S
O13 C7 1.208 . S
O14 Cd15 2.223 . S
O14 C22 1.315 . S
Cd15 O14 2.223 . S
Cd15 O18 2.297 . S
Cd15 O19 2.439 . S
Cd15 O25 2.240 . S
Cd16 O17 2.240 . S
Cd16 O24 2.223 . S
Cd16 O26 2.297 . S
Cd16 O27 2.439 . S
O17 Cd16 2.240 . S
O17 C22 1.279 . S
O18 Cd15 2.297 . S
O18 C20 1.247 . S
O19 Cd15 2.439 . S
O19 C20 1.208 . S
C20 O18 1.247 . S
C20 O19 1.208 . S
C21 O26 1.247 . S
C21 O27 1.208 . S
C22 O14 1.315 . S
C22 O17 1.279 . S
C23 O24 1.315 . S
C23 O25 1.279 . S
O24 Cd16 2.223 . S
O24 C23 1.315 . S
O25 Cd15 2.240 . S
O25 C23 1.279 . S
O26 Cd16 2.297 . S
O26 C21 1.247 . S
O27 Cd16 2.439 . S
O27 C21 1.208 . S
O28 Cd29 2.223 . S
O28 C36 1.315 . S
Cd29 O28 2.223 . S
Cd29 O32 2.297 . S
Cd29 O33 2.439 1_545 S
Cd29 O39 2.240 . S
Cd30 O31 2.240 . S
Cd30 O38 2.223 . S
Cd30 O40 2.297 1_545 S
Cd30 O41 2.439 1_545 S
O31 Cd30 2.240 . S
O31 C36 1.279 . S
O32 Cd29 2.297 . S
O32 C34 1.247 . S
O33 Cd29 2.439 1_565 S
O33 C34 1.208 1_565 S
C34 O32 1.247 . S
C34 O33 1.208 1_545 S
C35 O40 1.247 . S
C35 O41 1.208 . S
C36 O28 1.315 . S
C36 O31 1.279 . S
C37 O38 1.315 . S
C37 O39 1.279 . S
O38 Cd30 2.223 . S
O38 C37 1.315 . S
O39 Cd29 2.240 . S
O39 C37 1.279 . S
O40 Cd30 2.297 1_565 S
O40 C35 1.247 . S
O41 Cd30 2.439 1_565 S
O41 C35 1.208 . S
O42 Cd43 2.223 . S
O42 C50 1.315 . S
Cd43 O42 2.223 . S
Cd43 O46 2.297 . S
Cd43 O47 2.439 1_455 S
Cd43 O53 2.240 . S
Cd44 O45 2.240 . S
Cd44 O52 2.223 . S
Cd44 O54 2.297 1_455 S
Cd44 O55 2.439 1_455 S
O45 Cd44 2.240 . S
O45 C50 1.279 . S
O46 Cd43 2.297 . S
O46 C48 1.247 . S
O47 Cd43 2.439 1_655 S
O47 C48 1.208 1_655 S
C48 O46 1.247 . S
C48 O47 1.208 1_455 S
C49 O54 1.247 . S
C49 O55 1.208 . S
C50 O42 1.315 . S
C50 O45 1.279 . S
C51 O52 1.315 . S
C51 O53 1.279 . S
O52 Cd44 2.223 . S
O52 C51 1.315 . S
O53 Cd43 2.240 . S
O53 C51 1.279 . S
O54 Cd44 2.297 1_655 S
O54 C49 1.247 . S
O55 Cd44 2.439 1_655 S
O55 C49 1.208 . S
O56 Cd57 2.223 . S
O56 C64 1.315 . S
Cd57 O56 2.223 . S
Cd57 O60 2.297 . S
Cd57 O61 2.439 . S
Cd57 O67 2.240 . S
Cd58 O59 2.240 . S
Cd58 O66 2.223 . S
Cd58 O68 2.297 . S
Cd58 O69 2.439 . S
O59 Cd58 2.240 . S
O59 C64 1.279 . S
O60 Cd57 2.297 . S
O60 C62 1.247 . S
O61 Cd57 2.439 . S
O61 C62 1.208 . S
C62 O60 1.247 . S
C62 O61 1.208 . S
C63 O68 1.247 . S
C63 O69 1.208 . S
C64 O56 1.315 . S
C64 O59 1.279 . S
C65 O66 1.315 . S
C65 O67 1.279 . S
O66 Cd58 2.223 . S
O66 C65 1.315 . S
O67 Cd57 2.240 . S
O67 C65 1.279 . S
O68 Cd58 2.297 . S
O68 C63 1.247 . S
O69 Cd58 2.439 . S
O69 C63 1.208 . S
O70 Cd71 2.223 1_565 S
O70 C78 1.315 . S
Cd71 O70 2.223 1_545 S
Cd71 O74 2.297 . S
Cd71 O75 2.439 . S
Cd71 O81 2.240 . S
Cd72 O73 2.240 1_545 S
Cd72 O80 2.223 1_545 S
Cd72 O82 2.297 . S
Cd72 O83 2.439 . S
O73 Cd72 2.240 1_565 S
O73 C78 1.279 . S
O74 Cd71 2.297 . S
O74 C76 1.247 . S
O75 Cd71 2.439 . S
O75 C76 1.208 . S
C76 O74 1.247 . S
C76 O75 1.208 . S
C77 O82 1.247 . S
C77 O83 1.208 . S
C78 O70 1.315 . S
C78 O73 1.279 . S
C79 O80 1.308 . S
C79 O81 1.274 1_565 S
O80 Cd72 2.223 1_565 S
O80 C79 1.308 . S
O81 Cd71 2.240 . S
O81 C79 1.274 1_545 S
O82 Cd72 2.297 . S
O82 C77 1.247 . S
O83 Cd72 2.439 . S
O83 C77 1.208 . S
O84 Cd85 2.223 . S
O84 C92 1.315 . S
Cd85 O84 2.223 . S
Cd85 O88 2.297 . S
Cd85 O89 2.439 . S
Cd85 O95 2.240 . S
Cd86 O87 2.240 . S
Cd86 O94 2.223 . S
Cd86 O96 2.297 . S
Cd86 O97 2.439 . S
O87 Cd86 2.240 . S
O87 C92 1.279 . S
O88 Cd85 2.297 . S
O88 C90 1.247 . S
O89 Cd85 2.439 . S
O89 C90 1.208 . S
C90 O88 1.247 . S
C90 O89 1.208 . S
C91 O96 1.247 . S
C91 O97 1.208 . S
C92 O84 1.315 . S
C92 O87 1.279 . S
C93 O94 1.315 . S
C93 O95 1.279 . S
O94 Cd86 2.223 . S
O94 C93 1.315 . S
O95 Cd85 2.240 . S
O95 C93 1.279 . S
O96 Cd86 2.297 . S
O96 C91 1.247 . S
O97 Cd86 2.439 . S
O97 C91 1.208 . S
O98 Cd99 2.223 . S
O98 C106 1.315 . S
Cd99 O98 2.223 . S
Cd99 O102 2.297 . S
Cd99 O103 2.439 . S
Cd99 O109 2.240 . S
Cd100 O101 2.240 . S
Cd100 O108 2.223 . S
Cd100 O110 2.297 . S
Cd100 O111 2.439 . S
O101 Cd100 2.240 . S
O101 C106 1.279 . S
O102 Cd99 2.297 . S
O102 C104 1.247 . S
O103 Cd99 2.439 . S
O103 C104 1.208 . S
C104 O102 1.247 . S
C104 O103 1.208 . S
C105 O110 1.247 . S
C105 O111 1.208 . S
C106 O98 1.315 . S
C106 O101 1.279 . S
C107 O108 1.315 . S
C107 O109 1.279 . S
O108 Cd100 2.223 . S
O108 C107 1.315 . S
O109 Cd99 2.240 . S
O109 C107 1.279 . S
O110 Cd100 2.297 . S
O110 C105 1.247 . S
O111 Cd100 2.439 . S
O111 C105 1.208 . S
O112 Cd113 2.223 . S
O112 C120 1.315 . S
Cd113 O112 2.223 . S
Cd113 O116 2.297 . S
Cd113 O117 2.439 . S
Cd113 O123 2.240 . S
Cd114 O115 2.240 . S
Cd114 O122 2.223 . S
Cd114 O124 2.297 . S
Cd114 O125 2.439 . S
O115 Cd114 2.240 . S
O115 C120 1.279 . S
O116 Cd113 2.297 . S
O116 C118 1.247 . S
O117 Cd113 2.439 . S
O117 C118 1.208 . S
C118 O116 1.247 . S
C118 O117 1.208 . S
C119 O124 1.247 . S
C119 O125 1.208 . S
C120 O112 1.315 . S
C120 O115 1.279 . S
C121 O122 1.315 . S
C121 O123 1.279 . S
O122 Cd114 2.223 . S
O122 C121 1.315 . S
O123 Cd113 2.240 . S
O123 C121 1.279 . S
O124 Cd114 2.297 . S
O124 C119 1.247 . S
O125 Cd114 2.439 . S
O125 C119 1.208 . S
O126 Cd127 2.223 . S
O126 C134 1.315 . S
Cd127 O126 2.223 . S
Cd127 O130 2.297 . S
Cd127 O131 2.439 . S
Cd127 O137 2.240 . S
Cd128 O129 2.240 . S
Cd128 O136 2.223 . S
Cd128 O138 2.297 . S
Cd128 O139 2.439 . S
O129 Cd128 2.240 . S
O129 C134 1.279 . S
O130 Cd127 2.297 . S
O130 C132 1.247 . S
O131 Cd127 2.439 . S
O131 C132 1.208 . S
C132 O130 1.247 . S
C132 O131 1.208 . S
C133 O138 1.247 . S
C133 O139 1.208 . S
C134 O126 1.315 . S
C134 O129 1.279 . S
C135 O136 1.315 . S
C135 O137 1.279 . S
O136 Cd128 2.223 . S
O136 C135 1.315 . S
O137 Cd127 2.240 . S
O137 C135 1.279 . S
O138 Cd128 2.297 . S
O138 C133 1.247 . S
O139 Cd128 2.439 . S
O139 C133 1.208 . S
O140 Cd141 2.223 . S
O140 C148 1.315 . S
Cd141 O140 2.223 . S
Cd141 O144 2.297 . S
Cd141 O145 2.439 . S
Cd141 O151 2.240 . S
Cd142 O143 2.240 . S
Cd142 O150 2.223 . S
Cd142 O152 2.297 . S
Cd142 O153 2.439 . S
O143 Cd142 2.240 . S
O143 C148 1.279 . S
O144 Cd141 2.297 . S
O144 C146 1.247 . S
O145 Cd141 2.439 . S
O145 C146 1.208 . S
C146 O144 1.247 . S
C146 O145 1.208 . S
C147 O152 1.247 . S
C147 O153 1.208 . S
C148 O140 1.315 . S
C148 O143 1.279 . S
C149 O150 1.315 . S
C149 O151 1.279 . S
O150 Cd142 2.223 . S
O150 C149 1.315 . S
O151 Cd141 2.240 . S
O151 C149 1.279 . S
O152 Cd142 2.297 . S
O152 C147 1.247 . S
O153 Cd142 2.439 . S
O153 C147 1.208 . S
O154 Cd155 2.223 . S
O154 C162 1.315 . S
Cd155 O154 2.223 . S
Cd155 O158 2.297 . S
Cd155 O159 2.439 . S
Cd155 O165 2.240 . S
Cd156 O157 2.240 . S
Cd156 O164 2.223 . S
Cd156 O166 2.297 . S
Cd156 O167 2.439 . S
O157 Cd156 2.240 . S
O157 C162 1.279 . S
O158 Cd155 2.297 . S
O158 C160 1.247 . S
O159 Cd155 2.439 . S
O159 C160 1.208 . S
C160 O158 1.247 . S
C160 O159 1.208 . S
C161 O166 1.247 . S
C161 O167 1.208 . S
C162 O154 1.315 . S
C162 O157 1.279 . S
C163 O164 1.315 . S
C163 O165 1.279 . S
O164 Cd156 2.223 . S
O164 C163 1.315 . S
O165 Cd155 2.240 . S
O165 C163 1.279 . S
O166 Cd156 2.297 . S
O166 C161 1.247 . S
O167 Cd156 2.439 . S
O167 C161 1.208 . S
O168 Cd169 2.223 . S
O168 C176 1.315 . S
Cd169 O168 2.223 . S
Cd169 O172 2.297 . S
Cd169 O173 2.439 . S
Cd169 O179 2.240 . S
Cd170 O171 2.240 . S
Cd170 O178 2.223 . S
Cd170 O180 2.297 . S
Cd170 O181 2.439 . S
O171 Cd170 2.240 . S
O171 C176 1.279 . S
O172 Cd169 2.297 . S
O172 C174 1.247 . S
O173 Cd169 2.439 . S
O173 C174 1.208 . S
C174 O172 1.247 . S
C174 O173 1.208 . S
C175 O180 1.247 . S
C175 O181 1.208 . S
C176 O168 1.315 . S
C176 O171 1.279 . S
C177 O178 1.315 . S
C177 O179 1.279 . S
O178 Cd170 2.223 . S
O178 C177 1.315 . S
O179 Cd169 2.240 . S
O179 C177 1.279 . S
O180 Cd170 2.297 . S
O180 C175 1.247 . S
O181 Cd170 2.439 . S
O181 C175 1.208 . S
O182 Cd183 2.223 . S
O182 C190 1.315 . S
Cd183 O182 2.223 . S
Cd183 O186 2.297 . S
Cd183 O187 2.439 . S
Cd183 O193 2.240 . S
Cd184 O185 2.240 . S
Cd184 O192 2.223 . S
Cd184 O194 2.297 . S
Cd184 O195 2.439 . S
O185 Cd184 2.240 . S
O185 C190 1.279 . S
O186 Cd183 2.297 . S
O186 C188 1.247 . S
O187 Cd183 2.439 . S
O187 C188 1.208 . S
C188 O186 1.247 . S
C188 O187 1.208 . S
C189 O194 1.247 . S
C189 O195 1.208 . S
C190 O182 1.315 . S
C190 O185 1.279 . S
C191 O192 1.315 . S
C191 O193 1.279 . S
O192 Cd184 2.223 . S
O192 C191 1.315 . S
O193 Cd183 2.240 . S
O193 C191 1.279 . S
O194 Cd184 2.297 . S
O194 C189 1.247 . S
O195 Cd184 2.439 . S
O195 C189 1.208 . S
O196 Cd197 2.223 . S
O196 C204 1.315 . S
Cd197 O196 2.223 . S
Cd197 O200 2.297 . S
Cd197 O201 2.439 . S
Cd197 O207 2.240 . S
Cd198 O199 2.240 . S
Cd198 O206 2.223 . S
Cd198 O208 2.297 . S
Cd198 O209 2.439 . S
O199 Cd198 2.240 . S
O199 C204 1.279 . S
O200 Cd197 2.297 . S
O200 C202 1.247 . S
O201 Cd197 2.439 . S
O201 C202 1.208 . S
C202 O200 1.247 . S
C202 O201 1.208 . S
C203 O208 1.247 . S
C203 O209 1.208 . S
C204 O196 1.315 . S
C204 O199 1.279 . S
C205 O206 1.315 . S
C205 O207 1.279 . S
O206 Cd198 2.223 . S
O206 C205 1.315 . S
O207 Cd197 2.240 . S
O207 C205 1.279 . S
O208 Cd198 2.297 . S
O208 C203 1.247 . S
O209 Cd198 2.439 . S
O209 C203 1.208 . S
O210 Cd211 2.223 . S
O210 C218 1.315 . S
Cd211 O210 2.223 . S
Cd211 O214 2.297 . S
Cd211 O215 2.439 . S
Cd211 O221 2.240 . S
Cd212 O213 2.240 . S
Cd212 O220 2.223 . S
Cd212 O222 2.297 . S
Cd212 O223 2.439 . S
O213 Cd212 2.240 . S
O213 C218 1.279 . S
O214 Cd211 2.297 . S
O214 C216 1.247 . S
O215 Cd211 2.439 . S
O215 C216 1.208 . S
C216 O214 1.247 . S
C216 O215 1.208 . S
C217 O222 1.247 . S
C217 O223 1.208 . S
C218 O210 1.315 . S
C218 O213 1.279 . S
C219 O220 1.315 . S
C219 O221 1.279 . S
O220 Cd212 2.223 . S
O220 C219 1.315 . S
O221 Cd211 2.240 . S
O221 C219 1.279 . S
O222 Cd212 2.297 . S
O222 C217 1.247 . S
O223 Cd212 2.439 . S
O223 C217 1.208 . S
O224 Cd225 2.223 . S
O224 C232 1.315 . S
Cd225 O224 2.223 . S
Cd225 O228 2.297 . S
Cd225 O229 2.439 . S
Cd225 O235 2.240 . S
Cd226 O227 2.240 . S
Cd226 O234 2.223 . S
Cd226 O236 2.297 . S
Cd226 O237 2.439 . S
O227 Cd226 2.240 . S
O227 C232 1.279 . S
O228 Cd225 2.297 . S
O228 C230 1.247 . S
O229 Cd225 2.439 . S
O229 C230 1.208 . S
C230 O228 1.247 . S
C230 O229 1.208 . S
C231 O236 1.247 . S
C231 O237 1.208 . S
C232 O224 1.315 . S
C232 O227 1.279 . S
C233 O234 1.315 . S
C233 O235 1.279 . S
O234 Cd226 2.223 . S
O234 C233 1.315 . S
O235 Cd225 2.240 . S
O235 C233 1.279 . S
O236 Cd226 2.297 . S
O236 C231 1.247 . S
O237 Cd226 2.439 . S
O237 C231 1.208 . S
O238 Cd239 2.223 . S
O238 C246 1.315 . S
Cd239 O238 2.223 . S
Cd239 O242 2.297 . S
Cd239 O243 2.439 . S
Cd239 O249 2.240 . S
Cd240 O241 2.240 . S
Cd240 O248 2.223 . S
Cd240 O250 2.297 . S
Cd240 O251 2.439 . S
O241 Cd240 2.240 . S
O241 C246 1.279 . S
O242 Cd239 2.297 . S
O242 C244 1.247 . S
O243 Cd239 2.439 . S
O243 C244 1.208 . S
C244 O242 1.247 . S
C244 O243 1.208 . S
C245 O250 1.247 . S
C245 O251 1.208 . S
C246 O238 1.315 . S
C246 O241 1.279 . S
C247 O248 1.315 . S
C247 O249 1.279 . S
O248 Cd240 2.223 . S
O248 C247 1.315 . S
O249 Cd239 2.240 . S
O249 C247 1.279 . S
O250 Cd240 2.297 . S
O250 C245 1.247 . S
O251 Cd240 2.439 . S
O251 C245 1.208 . S
H252 C260 0.929 . S
H253 C262 0.930 . S
H254 C264 0.930 . S
H255 C267 0.929 . S
H256 C270 0.930 . S
H257 C272 0.960 . S
H258 C272 0.960 . S
H259 C272 0.960 . S
C260 H252 0.929 . S
C260 C261 1.377 . S
C260 C262 1.384 . S
C261 C260 1.377 . S
C261 C267 1.390 . S
C262 H253 0.930 . S
C262 C260 1.384 . S
C262 C263 1.372 . S
C263 C262 1.372 . S
C263 C264 1.400 . S
C263 C268 1.490 . S
C264 H254 0.930 . S
C264 C263 1.400 . S
C264 C267 1.386 . S
H265 C281 0.930 1_556 S
H266 C282 0.931 . S
C267 H255 0.929 . S
C267 C261 1.390 . S
C267 C264 1.386 . S
C268 C263 1.490 . S
C268 C270 1.395 . S
C268 C271 1.403 . S
H269 C275 0.930 . S
C270 H256 0.930 . S
C270 C268 1.395 . S
C270 C273 1.403 . S
C271 C268 1.403 . S
C271 C272 1.524 . S
C271 C275 1.400 . S
C272 H257 0.960 . S
C272 H258 0.960 . S
C272 H259 0.960 . S
C272 C271 1.524 . S
C273 C270 1.403 . S
C273 C274 1.392 . S
C273 C277 1.495 . S
C274 C273 1.392 . S
C274 C275 1.385 . S
C274 C276 1.478 . S
C275 H269 0.930 . S
C275 C271 1.400 . S
C275 C274 1.385 . S
C276 C274 1.478 . S
C276 C278 1.381 . S
C276 C282 1.383 . S
C277 C273 1.495 . S
C277 H283 0.959 . S
C277 H284 0.961 . S
C277 H285 0.960 . S
C278 C276 1.381 . S
C278 C279 1.394 1_554 S
C278 H286 0.930 . S
C279 C278 1.394 1_556 S
C279 C280 1.383 . S
C279 H287 0.929 . S
C280 C279 1.383 . S
C280 C281 1.377 1_556 S
C281 H265 0.930 1_554 S
C281 C280 1.377 1_554 S
C281 C282 1.379 . S
C282 H266 0.931 . S
C282 C276 1.383 . S
C282 C281 1.379 . S
H283 C277 0.959 . S
H284 C277 0.961 . S
H285 C277 0.960 . S
H286 C278 0.930 . S
H287 C279 0.929 . S
H288 C296 0.929 . S
H289 C298 0.930 . S
H290 C300 0.930 . S
H291 C303 0.929 . S
H292 C306 0.930 . S
H293 C308 0.960 . S
H294 C308 0.960 . S
H295 C308 0.960 . S
C296 H288 0.929 . S
C296 C297 1.377 1_554 S
C296 C298 1.384 . S
C297 C296 1.377 1_556 S
C297 C303 1.390 . S
C298 H289 0.930 . S
C298 C296 1.384 . S
C298 C299 1.372 . S
C299 C298 1.372 . S
C299 C300 1.400 . S
C299 C304 1.490 . S
C300 H290 0.930 . S
C300 C299 1.400 . S
C300 C303 1.386 1_554 S
H301 C317 0.930 . S
H302 C318 0.931 . S
C303 H291 0.929 . S
C303 C297 1.390 . S
C303 C300 1.386 1_556 S
C304 C299 1.490 . S
C304 C306 1.395 . S
C304 C307 1.403 . S
H305 C311 0.930 . S
C306 H292 0.930 . S
C306 C304 1.395 . S
C306 C309 1.403 . S
C307 C304 1.403 . S
C307 C308 1.524 . S
C307 C311 1.400 . S
C308 H293 0.960 . S
C308 H294 0.960 . S
C308 H295 0.960 . S
C308 C307 1.524 . S
C309 C306 1.403 . S
C309 C310 1.392 . S
C309 C313 1.495 . S
C310 C309 1.392 . S
C310 C311 1.385 . S
C310 C312 1.478 . S
C311 H305 0.930 . S
C311 C307 1.400 . S
C311 C310 1.385 . S
C312 C310 1.478 . S
C312 C314 1.381 . S
C312 C318 1.383 . S
C313 C309 1.495 . S
C313 H319 0.959 . S
C313 H320 0.961 . S
C313 H321 0.960 . S
C314 C312 1.381 . S
C314 C315 1.394 . S
C314 H322 0.930 . S
C315 C314 1.394 . S
C315 C316 1.383 . S
C315 H323 0.929 . S
C316 C315 1.383 . S
C316 C317 1.377 . S
C317 H301 0.930 . S
C317 C316 1.377 . S
C317 C318 1.379 . S
C318 H302 0.931 . S
C318 C312 1.383 . S
C318 C317 1.379 . S
H319 C313 0.959 . S
H320 C313 0.961 . S
H321 C313 0.960 . S
H322 C314 0.930 . S
H323 C315 0.929 . S
H324 C332 0.929 . S
H325 C334 0.930 . S
H326 C336 0.930 . S
H327 C339 0.932 1_545 S
H328 C342 0.930 1_545 S
H329 C344 0.960 . S
H330 C344 0.960 . S
H331 C344 0.960 . S
C332 H324 0.929 . S
C332 C333 1.377 . S
C332 C334 1.384 . S
C333 C332 1.377 . S
C333 C339 1.390 . S
C334 H325 0.930 . S
C334 C332 1.384 . S
C334 C335 1.372 . S
C335 C334 1.372 . S
C335 C336 1.400 . S
C335 C340 1.490 . S
C336 H326 0.930 . S
C336 C335 1.400 . S
C336 C339 1.386 . S
H337 C353 0.930 . S
H338 C354 0.931 . S
C339 H327 0.932 1_565 S
C339 C333 1.390 . S
C339 C336 1.386 . S
C340 C335 1.490 . S
C340 C342 1.395 . S
C340 C343 1.403 . S
H341 C347 0.930 . S
C342 H328 0.930 1_565 S
C342 C340 1.395 . S
C342 C345 1.403 . S
C343 C340 1.403 . S
C343 C344 1.524 . S
C343 C347 1.400 . S
C344 H329 0.960 . S
C344 H330 0.960 . S
C344 H331 0.960 . S
C344 C343 1.524 . S
C345 C342 1.403 . S
C345 C346 1.392 . S
C345 C349 1.495 1_565 S
C346 C345 1.392 . S
C346 C347 1.385 . S
C346 C348 1.478 . S
C347 H341 0.930 . S
C347 C343 1.400 . S
C347 C346 1.385 . S
C348 C346 1.478 . S
C348 C350 1.381 . S
C348 C354 1.383 1_554 S
C349 C345 1.495 1_545 S
C349 H355 0.959 . S
C349 H356 0.961 . S
C349 H357 0.962 1_545 S
C350 C348 1.381 . S
C350 C351 1.394 1_554 S
C350 H358 0.930 . S
C351 C350 1.394 1_556 S
C351 C352 1.383 . S
C351 H359 0.929 . S
C352 C351 1.383 . S
C352 C353 1.377 . S
C353 H337 0.930 . S
C353 C352 1.377 . S
C353 C354 1.379 . S
C354 H338 0.931 . S
C354 C348 1.383 1_556 S
C354 C353 1.379 . S
H355 C349 0.959 . S
H356 C349 0.961 . S
H357 C349 0.962 1_565 S
H358 C350 0.930 . S
H359 C351 0.929 . S
H360 C368 0.929 . S
H361 C370 0.930 . S
H362 C372 0.930 . S
H363 C375 0.929 . S
H364 C378 0.930 . S
H365 C380 0.960 . S
H366 C380 0.960 . S
H367 C380 0.960 . S
C368 H360 0.929 . S
C368 C369 1.377 . S
C368 C370 1.384 . S
C369 C368 1.377 . S
C369 C375 1.390 . S
C370 H361 0.930 . S
C370 C368 1.384 . S
C370 C371 1.372 . S
C371 C370 1.372 . S
C371 C372 1.400 . S
C371 C376 1.490 . S
C372 H362 0.930 . S
C372 C371 1.400 . S
C372 C375 1.386 . S
H373 C389 0.930 . S
H374 C390 0.931 . S
C375 H363 0.929 . S
C375 C369 1.390 . S
C375 C372 1.386 . S
C376 C371 1.490 . S
C376 C378 1.395 . S
C376 C379 1.403 . S
H377 C383 0.930 . S
C378 H364 0.930 . S
C378 C376 1.395 . S
C378 C381 1.403 . S
C379 C376 1.403 . S
C379 C380 1.524 . S
C379 C383 1.400 . S
C380 H365 0.960 . S
C380 H366 0.960 . S
C380 H367 0.960 . S
C380 C379 1.524 . S
C381 C378 1.403 . S
C381 C382 1.392 . S
C381 C385 1.495 . S
C382 C381 1.392 . S
C382 C383 1.385 . S
C382 C384 1.478 . S
C383 H377 0.930 . S
C383 C379 1.400 . S
C383 C382 1.385 . S
C384 C382 1.478 . S
C384 C386 1.381 . S
C384 C390 1.383 . S
C385 C381 1.495 . S
C385 H391 0.959 . S
C385 H392 0.961 . S
C385 H393 0.960 . S
C386 C384 1.381 . S
C386 C387 1.394 . S
C386 H394 0.930 . S
C387 C386 1.394 . S
C387 C388 1.383 . S
C387 H395 0.929 . S
C388 C387 1.383 . S
C388 C389 1.377 . S
C389 H373 0.930 . S
C389 C388 1.377 . S
C389 C390 1.379 . S
C390 H374 0.931 . S
C390 C384 1.383 . S
C390 C389 1.379 . S
H391 C385 0.959 . S
H392 C385 0.961 . S
H393 C385 0.960 . S
H394 C386 0.930 . S
H395 C387 0.929 . S
H396 C404 0.929 . S
H397 C406 0.930 . S
H398 C408 0.930 . S
H399 C411 0.929 . S
H400 C414 0.930 . S
H401 C416 0.960 . S
H402 C416 0.960 . S
H403 C416 0.960 . S
C404 H396 0.929 . S
C404 C405 1.377 . S
C404 C406 1.384 . S
C405 C404 1.377 . S
C405 C411 1.390 . S
C406 H397 0.930 . S
C406 C404 1.384 . S
C406 C407 1.372 . S
C407 C406 1.372 . S
C407 C408 1.400 . S
C407 C412 1.490 . S
C408 H398 0.930 . S
C408 C407 1.400 . S
C408 C411 1.386 . S
H409 C425 0.930 . S
H410 C426 0.931 . S
C411 H399 0.929 . S
C411 C405 1.390 . S
C411 C408 1.386 . S
C412 C407 1.490 . S
C412 C414 1.395 . S
C412 C415 1.403 . S
H413 C419 0.930 . S
C414 H400 0.930 . S
C414 C412 1.395 . S
C414 C417 1.403 . S
C415 C412 1.403 . S
C415 C416 1.524 . S
C415 C419 1.400 . S
C416 H401 0.960 . S
C416 H402 0.960 . S
C416 H403 0.960 . S
C416 C415 1.524 . S
C417 C414 1.403 . S
C417 C418 1.392 . S
C417 C421 1.495 . S
C418 C417 1.392 . S
C418 C419 1.385 . S
C418 C420 1.478 . S
C419 H413 0.930 . S
C419 C415 1.400 . S
C419 C418 1.385 . S
C420 C418 1.478 . S
C420 C422 1.381 . S
C420 C426 1.383 1_655 S
C421 C417 1.495 . S
C421 H427 0.959 1_655 S
C421 H428 0.961 1_655 S
C421 H429 0.960 . S
C422 C420 1.381 . S
C422 C423 1.394 . S
C422 H430 0.930 . S
C423 C422 1.394 . S
C423 C424 1.383 . S
C423 H431 0.929 . S
C424 C423 1.383 . S
C424 C425 1.377 1_655 S
C425 H409 0.930 . S
C425 C424 1.377 1_455 S
C425 C426 1.379 . S
C426 H410 0.931 . S
C426 C420 1.383 1_455 S
C426 C425 1.379 . S
H427 C421 0.959 1_455 S
H428 C421 0.961 1_455 S
H429 C421 0.960 . S
H430 C422 0.930 . S
H431 C423 0.929 . S
H432 C440 0.929 . S
H433 C442 0.930 . S
H434 C444 0.930 . S
H435 C447 0.929 . S
H436 C450 0.930 . S
H437 C452 0.960 . S
H438 C452 0.960 . S
H439 C452 0.960 . S
C440 H432 0.929 . S
C440 C441 1.377 . S
C440 C442 1.384 . S
C441 C440 1.377 . S
C441 C447 1.390 . S
C442 H433 0.930 . S
C442 C440 1.384 . S
C442 C443 1.372 . S
C443 C442 1.372 . S
C443 C444 1.400 . S
C443 C448 1.490 . S
C444 H434 0.930 . S
C444 C443 1.400 . S
C444 C447 1.386 . S
H445 C461 0.930 . S
H446 C462 0.931 . S
C447 H435 0.929 . S
C447 C441 1.390 . S
C447 C444 1.386 . S
C448 C443 1.490 . S
C448 C450 1.395 . S
C448 C451 1.403 . S
H449 C455 0.930 . S
C450 H436 0.930 . S
C450 C448 1.395 . S
C450 C453 1.403 . S
C451 C448 1.403 . S
C451 C452 1.524 . S
C451 C455 1.400 . S
C452 H437 0.960 . S
C452 H438 0.960 . S
C452 H439 0.960 . S
C452 C451 1.524 . S
C453 C450 1.403 . S
C453 C454 1.392 . S
C453 C457 1.495 . S
C454 C453 1.392 . S
C454 C455 1.385 . S
C454 C456 1.478 . S
C455 H449 0.930 . S
C455 C451 1.400 . S
C455 C454 1.385 . S
C456 C454 1.478 . S
C456 C458 1.381 . S
C456 C462 1.383 . S
C457 C453 1.495 . S
C457 H463 0.959 . S
C457 H464 0.961 . S
C457 H465 0.960 . S
C458 C456 1.381 . S
C458 C459 1.394 . S
C458 H466 0.930 . S
C459 C458 1.394 . S
C459 C460 1.383 . S
C459 H467 0.929 . S
C460 C459 1.383 . S
C460 C461 1.377 . S
C461 H445 0.930 . S
C461 C460 1.377 . S
C461 C462 1.379 . S
C462 H446 0.931 . S
C462 C456 1.383 . S
C462 C461 1.379 . S
H463 C457 0.959 . S
H464 C457 0.961 . S
H465 C457 0.960 . S
H466 C458 0.930 . S
H467 C459 0.929 . S
H468 C476 0.929 . S
H469 C478 0.930 . S
H470 C480 0.930 . S
H471 C483 0.929 . S
H472 C486 0.929 . S
H473 C488 0.960 . S
H474 C488 0.960 . S
H475 C488 0.960 . S
C476 H468 0.929 . S
C476 C477 1.377 1_455 S
C476 C478 1.384 . S
C477 C476 1.377 1_655 S
C477 C483 1.390 . S
C478 H469 0.930 . S
C478 C476 1.384 . S
C478 C479 1.372 1_455 S
C479 C478 1.372 1_655 S
C479 C480 1.400 . S
C479 C484 1.490 . S
C480 H470 0.930 . S
C480 C479 1.400 . S
C480 C483 1.386 . S
H481 C497 0.930 . S
H482 C498 0.931 . S
C483 H471 0.929 . S
C483 C477 1.390 . S
C483 C480 1.386 . S
C484 C479 1.490 . S
C484 C486 1.394 1_655 S
C484 C487 1.403 . S
H485 C491 0.930 . S
C486 H472 0.929 . S
C486 C484 1.394 1_455 S
C486 C489 1.404 1_455 S
C487 C484 1.403 . S
C487 C488 1.524 . S
C487 C491 1.400 . S
C488 H473 0.960 . S
C488 H474 0.960 . S
C488 H475 0.960 . S
C488 C487 1.524 . S
C489 C486 1.404 1_655 S
C489 C490 1.392 . S
C489 C493 1.495 1_655 S
C490 C489 1.392 . S
C490 C491 1.385 . S
C490 C492 1.478 . S
C491 H485 0.930 . S
C491 C487 1.400 . S
C491 C490 1.385 . S
C492 C490 1.478 . S
C492 C494 1.381 . S
C492 C498 1.383 . S
C493 C489 1.495 1_455 S
C493 H499 0.959 . S
C493 H500 1.001 . S
C493 H501 0.960 . S
C494 C492 1.381 . S
C494 C495 1.394 1_556 S
C494 H502 0.930 1_655 S
C495 C494 1.394 1_554 S
C495 C496 1.383 . S
C495 H503 0.929 1_655 S
C496 C495 1.383 . S
C496 C497 1.377 . S
C497 H481 0.930 . S
C497 C496 1.377 . S
C497 C498 1.379 1_554 S
C498 H482 0.931 . S
C498 C492 1.383 . S
C498 C497 1.379 1_556 S
H499 C493 0.959 . S
H500 C493 1.001 . S
H501 C493 0.960 . S
H502 C494 0.930 1_455 S
H503 C495 0.929 1_455 S
H504 C512 0.929 . S
H505 C514 0.930 . S
H506 C516 0.930 . S
H507 C519 0.938 . S
H508 C522 0.930 . S
H509 C524 0.960 . S
H510 C524 0.960 . S
H511 C524 0.960 . S
C512 H504 0.929 . S
C512 C513 1.377 1_556 S
C512 C514 1.384 . S
C513 C512 1.377 1_554 S
C513 C519 1.390 1_554 S
C514 H505 0.930 . S
C514 C512 1.384 . S
C514 C515 1.372 . S
C515 C514 1.372 . S
C515 C516 1.400 . S
C515 C520 1.490 . S
C516 H506 0.930 . S
C516 C515 1.400 . S
C516 C519 1.386 . S
H517 C533 0.930 . S
H518 C534 0.931 . S
C519 H507 0.938 . S
C519 C513 1.390 1_556 S
C519 C516 1.386 . S
C520 C515 1.490 . S
C520 C522 1.395 . S
C520 C523 1.403 . S
H521 C527 0.930 . S
C522 H508 0.930 . S
C522 C520 1.395 . S
C522 C525 1.403 . S
C523 C520 1.403 . S
C523 C524 1.524 . S
C523 C527 1.400 . S
C524 H509 0.960 . S
C524 H510 0.960 . S
C524 H511 0.960 . S
C524 C523 1.524 . S
C525 C522 1.403 . S
C525 C526 1.392 . S
C525 C529 1.495 . S
C526 C525 1.392 . S
C526 C527 1.385 . S
C526 C528 1.478 . S
C527 H521 0.930 . S
C527 C523 1.400 . S
C527 C526 1.385 . S
C528 C526 1.478 . S
C528 C530 1.381 . S
C528 C534 1.383 . S
C529 C525 1.495 . S
C529 H535 0.959 . S
C529 H536 0.961 . S
C529 H537 0.960 . S
C530 C528 1.381 . S
C530 C531 1.394 . S
C530 H538 0.930 . S
C531 C530 1.394 . S
C531 C532 1.383 . S
C531 H539 0.929 . S
C532 C531 1.383 . S
C532 C533 1.377 . S
C533 H517 0.930 . S
C533 C532 1.377 . S
C533 C534 1.379 . S
C534 H518 0.931 . S
C534 C528 1.383 . S
C534 C533 1.379 . S
H535 C529 0.959 . S
H536 C529 0.961 . S
H537 C529 0.960 . S
H538 C530 0.930 . S
H539 C531 0.929 . S
H540 C548 0.929 . S
H541 C550 0.930 . S
H542 C552 0.928 1_556 S
H543 C555 0.929 . S
H544 C558 0.930 . S
H545 C560 0.960 . S
H546 C560 0.960 . S
H547 C560 0.960 . S
C548 H540 0.929 . S
C548 C549 1.377 . S
C548 C550 1.384 1_554 S
C549 C548 1.377 . S
C549 C555 1.390 . S
C550 H541 0.930 . S
C550 C548 1.384 1_556 S
C550 C551 1.372 . S
C551 C550 1.372 . S
C551 C552 1.400 1_556 S
C551 C556 1.490 . S
C552 H542 0.928 1_554 S
C552 C551 1.400 1_554 S
C552 C555 1.386 . S
H553 C569 0.930 . S
H554 C570 0.931 . S
C555 H543 0.929 . S
C555 C549 1.390 . S
C555 C552 1.386 . S
C556 C551 1.490 . S
C556 C558 1.395 . S
C556 C559 1.403 . S
H557 C563 0.930 . S
C558 H544 0.930 . S
C558 C556 1.395 . S
C558 C561 1.403 . S
C559 C556 1.403 . S
C559 C560 1.524 . S
C559 C563 1.400 . S
C560 H545 0.960 . S
C560 H546 0.960 . S
C560 H547 0.960 . S
C560 C559 1.524 . S
C561 C558 1.403 . S
C561 C562 1.392 . S
C561 C565 1.495 . S
C562 C561 1.392 . S
C562 C563 1.385 . S
C562 C564 1.478 . S
C563 H557 0.930 . S
C563 C559 1.400 . S
C563 C562 1.385 . S
C564 C562 1.478 . S
C564 C566 1.381 . S
C564 C570 1.383 . S
C565 C561 1.495 . S
C565 H571 0.959 . S
C565 H572 0.961 1_545 S
C565 H573 0.960 . S
C566 C564 1.381 . S
C566 C567 1.394 . S
C566 H574 0.930 . S
C567 C566 1.394 . S
C567 C568 1.383 . S
C567 H575 0.929 . S
C568 C567 1.383 . S
C568 C569 1.377 . S
C569 H553 0.930 . S
C569 C568 1.377 . S
C569 C570 1.379 . S
C570 H554 0.931 . S
C570 C564 1.383 . S
C570 C569 1.379 . S
H571 C565 0.959 . S
H572 C565 0.961 1_565 S
H573 C565 0.960 . S
H574 C566 0.930 . S
H575 C567 0.929 . S
H576 C584 0.929 . S
H577 C586 0.930 . S
H578 C588 0.930 . S
H579 C591 0.929 . S
H580 C594 0.930 . S
H581 C596 0.960 . S
H582 C596 0.960 . S
H583 C596 0.960 . S
C584 H576 0.929 . S
C584 C585 1.377 . S
C584 C586 1.384 . S
C585 C584 1.377 . S
C585 C591 1.390 . S
C586 H577 0.930 . S
C586 C584 1.384 . S
C586 C587 1.372 . S
C587 C586 1.372 . S
C587 C588 1.400 . S
C587 C592 1.490 . S
C588 H578 0.930 . S
C588 C587 1.400 . S
C588 C591 1.386 . S
H589 C605 0.930 . S
H590 C606 0.931 . S
C591 H579 0.929 . S
C591 C585 1.390 . S
C591 C588 1.386 . S
C592 C587 1.490 . S
C592 C594 1.395 . S
C592 C595 1.403 . S
H593 C599 0.930 . S
C594 H580 0.930 . S
C594 C592 1.395 . S
C594 C597 1.403 . S
C595 C592 1.403 . S
C595 C596 1.524 1_565 S
C595 C599 1.400 . S
C596 H581 0.960 . S
C596 H582 0.960 . S
C596 H583 0.960 . S
C596 C595 1.524 1_545 S
C597 C594 1.403 . S
C597 C598 1.392 . S
C597 C601 1.495 . S
C598 C597 1.392 . S
C598 C599 1.385 . S
C598 C600 1.478 . S
C599 H593 0.930 . S
C599 C595 1.400 . S
C599 C598 1.385 . S
C600 C598 1.478 . S
C600 C602 1.381 . S
C600 C606 1.383 . S
C601 C597 1.495 . S
C601 H607 0.959 . S
C601 H608 0.961 . S
C601 H609 0.960 . S
C602 C600 1.381 . S
C602 C603 1.394 . S
C602 H610 0.930 . S
C603 C602 1.394 . S
C603 C604 1.383 . S
C603 H611 0.929 . S
C604 C603 1.383 . S
C604 C605 1.377 . S
C605 H589 0.930 . S
C605 C604 1.377 . S
C605 C606 1.379 . S
C606 H590 0.931 . S
C606 C600 1.383 . S
C606 C605 1.379 . S
H607 C601 0.959 . S
H608 C601 0.961 . S
H609 C601 0.960 . S
H610 C602 0.930 . S
H611 C603 0.929 . S
H612 C620 0.929 . S
H613 C622 0.930 . S
H614 C624 0.930 . S
H615 C627 0.929 . S
H616 C630 0.930 . S
H617 C632 0.960 . S
H618 C632 0.960 . S
H619 C632 0.960 . S
C620 H612 0.929 . S
C620 C621 1.377 . S
C620 C622 1.384 . S
C621 C620 1.377 . S
C621 C627 1.390 . S
C622 H613 0.930 . S
C622 C620 1.384 . S
C622 C623 1.372 . S
C623 C622 1.372 . S
C623 C624 1.400 . S
C623 C628 1.490 . S
C624 H614 0.930 . S
C624 C623 1.400 . S
C624 C627 1.386 . S
H625 C641 0.930 . S
H626 C642 0.931 . S
C627 H615 0.929 . S
C627 C621 1.390 . S
C627 C624 1.386 . S
C628 C623 1.490 . S
C628 C630 1.395 . S
C628 C631 1.403 . S
H629 C635 0.930 . S
C630 H616 0.930 . S
C630 C628 1.395 . S
C630 C633 1.403 . S
C631 C628 1.403 . S
C631 C632 1.524 . S
C631 C635 1.400 . S
C632 H617 0.960 . S
C632 H618 0.960 . S
C632 H619 0.960 . S
C632 C631 1.524 . S
C633 C630 1.403 . S
C633 C634 1.392 . S
C633 C637 1.495 . S
C634 C633 1.392 . S
C634 C635 1.385 . S
C634 C636 1.478 . S
C635 H629 0.930 . S
C635 C631 1.400 . S
C635 C634 1.385 . S
C636 C634 1.478 . S
C636 C638 1.381 . S
C636 C642 1.383 . S
C637 C633 1.495 . S
C637 H643 0.959 . S
C637 H644 0.961 . S
C637 H645 0.960 . S
C638 C636 1.381 . S
C638 C639 1.394 . S
C638 H646 0.930 . S
C639 C638 1.394 . S
C639 C640 1.383 . S
C639 H647 0.929 . S
C640 C639 1.383 . S
C640 C641 1.377 . S
C641 H625 0.930 . S
C641 C640 1.377 . S
C641 C642 1.379 . S
C642 H626 0.931 . S
C642 C636 1.383 . S
C642 C641 1.379 . S
H643 C637 0.959 . S
H644 C637 0.961 . S
H645 C637 0.960 . S
H646 C638 0.930 . S
H647 C639 0.929 . S
H648 C656 0.929 . S
H649 C658 0.930 . S
H650 C660 0.930 . S
H651 C663 0.929 . S
H652 C666 0.930 . S
H653 C668 0.960 . S
H654 C668 0.960 . S
H655 C668 0.960 . S
C656 H648 0.929 . S
C656 C657 1.377 . S
C656 C658 1.384 . S
C657 C656 1.377 . S
C657 C663 1.390 . S
C658 H649 0.930 . S
C658 C656 1.384 . S
C658 C659 1.372 . S
C659 C658 1.372 . S
C659 C660 1.400 . S
C659 C664 1.490 . S
C660 H650 0.930 . S
C660 C659 1.400 . S
C660 C663 1.386 . S
H661 C677 0.930 . S
H662 C678 0.931 . S
C663 H651 0.929 . S
C663 C657 1.390 . S
C663 C660 1.386 . S
C664 C659 1.490 . S
C664 C666 1.395 . S
C664 C667 1.403 . S
H665 C671 0.930 . S
C666 H652 0.930 . S
C666 C664 1.395 . S
C666 C669 1.403 . S
C667 C664 1.403 . S
C667 C668 1.524 . S
C667 C671 1.400 . S
C668 H653 0.960 . S
C668 H654 0.960 . S
C668 H655 0.960 . S
C668 C667 1.524 . S
C669 C666 1.403 . S
C669 C670 1.392 . S
C669 C673 1.495 . S
C670 C669 1.392 . S
C670 C671 1.385 . S
C670 C672 1.478 . S
C671 H665 0.930 . S
C671 C667 1.400 . S
C671 C670 1.385 . S
C672 C670 1.478 . S
C672 C674 1.381 . S
C672 C678 1.383 . S
C673 C669 1.495 . S
C673 H679 0.959 . S
C673 H680 0.961 . S
C673 H681 0.960 . S
C674 C672 1.381 . S
C674 C675 1.394 . S
C674 H682 0.930 . S
C675 C674 1.394 . S
C675 C676 1.383 . S
C675 H683 0.929 . S
C676 C675 1.383 . S
C676 C677 1.377 . S
C677 H661 0.930 . S
C677 C676 1.377 . S
C677 C678 1.379 . S
C678 H662 0.931 . S
C678 C672 1.383 . S
C678 C677 1.379 . S
H679 C673 0.959 . S
H680 C673 0.961 . S
H681 C673 0.960 . S
H682 C674 0.930 . S
H683 C675 0.929 . S
H684 C692 0.929 . S
H685 C694 0.930 . S
H686 C696 0.930 . S
H687 C699 0.929 . S
H688 C702 0.930 . S
H689 C704 0.960 . S
H690 C704 0.960 . S
H691 C704 0.960 . S
C692 H684 0.929 . S
C692 C693 1.377 . S
C692 C694 1.384 . S
C693 C692 1.377 . S
C693 C699 1.390 . S
C694 H685 0.930 . S
C694 C692 1.384 . S
C694 C695 1.372 . S
C695 C694 1.372 . S
C695 C696 1.400 . S
C695 C700 1.490 . S
C696 H686 0.930 . S
C696 C695 1.400 . S
C696 C699 1.386 . S
H697 C713 0.930 . S
H698 C714 0.931 . S
C699 H687 0.929 . S
C699 C693 1.390 . S
C699 C696 1.386 . S
C700 C695 1.490 . S
C700 C702 1.395 . S
C700 C703 1.403 . S
H701 C707 0.930 . S
C702 H688 0.930 . S
C702 C700 1.395 . S
C702 C705 1.403 . S
C703 C700 1.403 . S
C703 C704 1.524 . S
C703 C707 1.400 . S
C704 H689 0.960 . S
C704 H690 0.960 . S
C704 H691 0.960 . S
C704 C703 1.524 . S
C705 C702 1.403 . S
C705 C706 1.392 . S
C705 C709 1.495 . S
C706 C705 1.392 . S
C706 C707 1.385 . S
C706 C708 1.478 . S
C707 H701 0.930 . S
C707 C703 1.400 . S
C707 C706 1.385 . S
C708 C706 1.478 . S
C708 C710 1.381 . S
C708 C714 1.383 . S
C709 C705 1.495 . S
C709 H715 0.959 . S
C709 H716 0.961 . S
C709 H717 0.960 . S
C710 C708 1.381 . S
C710 C711 1.394 . S
C710 H718 0.930 . S
C711 C710 1.394 . S
C711 C712 1.383 . S
C711 H719 0.929 . S
C712 C711 1.383 . S
C712 C713 1.377 . S
C713 H697 0.930 . S
C713 C712 1.377 . S
C713 C714 1.379 . S
C714 H698 0.931 . S
C714 C708 1.383 . S
C714 C713 1.379 . S
H715 C709 0.959 . S
H716 C709 0.961 . S
H717 C709 0.960 . S
H718 C710 0.930 . S
H719 C711 0.929 . S
H720 C728 0.929 . S
H721 C730 0.930 . S
H722 C732 0.930 . S
H723 C735 0.929 . S
H724 C738 0.930 . S
H725 C740 0.960 . S
H726 C740 0.960 . S
H727 C740 0.960 . S
C728 H720 0.929 . S
C728 C729 1.377 . S
C728 C730 1.384 . S
C729 C728 1.377 . S
C729 C735 1.390 . S
C730 H721 0.930 . S
C730 C728 1.384 . S
C730 C731 1.372 . S
C731 C730 1.372 . S
C731 C732 1.400 . S
C731 C736 1.490 . S
C732 H722 0.930 . S
C732 C731 1.400 . S
C732 C735 1.386 . S
H733 C749 0.930 . S
H734 C750 0.931 . S
C735 H723 0.929 . S
C735 C729 1.390 . S
C735 C732 1.386 . S
C736 C731 1.490 . S
C736 C738 1.395 . S
C736 C739 1.360 1_545 S
H737 C743 0.930 . S
C738 H724 0.930 . S
C738 C736 1.395 . S
C738 C741 1.403 . S
C739 C736 1.360 1_565 S
C739 C740 1.555 . S
C739 C743 1.412 . S
C740 H725 0.960 . S
C740 H726 0.960 . S
C740 H727 0.960 . S
C740 C739 1.555 . S
C741 C738 1.403 . S
C741 C742 1.392 . S
C741 C745 1.495 . S
C742 C741 1.392 . S
C742 C743 1.385 1_545 S
C742 C744 1.478 1_545 S
C743 H737 0.930 . S
C743 C739 1.412 . S
C743 C742 1.385 1_565 S
C744 C742 1.478 1_565 S
C744 C746 1.381 1_565 S
C744 C750 1.383 . S
C745 C741 1.495 . S
C745 H751 0.959 . S
C745 H752 0.961 . S
C745 H753 0.960 . S
C746 C744 1.381 1_545 S
C746 C747 1.394 1_545 S
C746 H754 0.930 . S
C747 C746 1.394 1_565 S
C747 C748 1.383 . S
C747 H755 0.929 . S
C748 C747 1.383 . S
C748 C749 1.377 . S
C749 H733 0.930 . S
C749 C748 1.377 . S
C749 C750 1.379 . S
C750 H734 0.931 . S
C750 C744 1.383 . S
C750 C749 1.379 . S
H751 C745 0.959 . S
H752 C745 0.961 . S
H753 C745 0.960 . S
H754 C746 0.930 . S
H755 C747 0.929 . S
H756 C764 0.929 . S
H757 C766 0.930 . S
H758 C768 0.930 . S
H759 C771 0.929 . S
H760 C774 0.930 . S
H761 C776 0.960 . S
H762 C776 0.960 . S
H763 C776 0.960 . S
C764 H756 0.929 . S
C764 C765 1.377 . S
C764 C766 1.384 . S
C765 C764 1.377 . S
C765 C771 1.390 . S
C766 H757 0.930 . S
C766 C764 1.384 . S
C766 C767 1.372 . S
C767 C766 1.372 . S
C767 C768 1.400 . S
C767 C772 1.490 . S
C768 H758 0.930 . S
C768 C767 1.400 . S
C768 C771 1.386 . S
H769 C785 0.930 . S
H770 C786 0.931 . S
C771 H759 0.929 . S
C771 C765 1.390 . S
C771 C768 1.386 . S
C772 C767 1.490 . S
C772 C774 1.395 . S
C772 C775 1.403 . S
H773 C779 0.930 . S
C774 H760 0.930 . S
C774 C772 1.395 . S
C774 C777 1.403 . S
C775 C772 1.403 . S
C775 C776 1.524 . S
C775 C779 1.400 . S
C776 H761 0.960 . S
C776 H762 0.960 . S
C776 H763 0.960 . S
C776 C775 1.524 . S
C777 C774 1.403 . S
C777 C778 1.392 . S
C777 C781 1.495 . S
C778 C777 1.392 . S
C778 C779 1.385 . S
C778 C780 1.478 . S
C779 H773 0.930 . S
C779 C775 1.400 . S
C779 C778 1.385 . S
C780 C778 1.478 . S
C780 C782 1.381 . S
C780 C786 1.383 1_455 S
C781 C777 1.495 . S
C781 H787 0.959 . S
C781 H788 0.961 . S
C781 H789 0.960 . S
C782 C780 1.381 . S
C782 C783 1.394 . S
C782 H790 0.930 . S
C783 C782 1.394 . S
C783 C784 1.383 1_455 S
C783 H791 0.929 . S
C784 C783 1.383 1_655 S
C784 C785 1.377 . S
C785 H769 0.930 . S
C785 C784 1.377 . S
C785 C786 1.379 . S
C786 H770 0.931 . S
C786 C780 1.383 1_655 S
C786 C785 1.379 . S
H787 C781 0.959 . S
H788 C781 0.961 . S
H789 C781 0.960 . S
H790 C782 0.930 . S
H791 C783 0.929 . S
H792 C800 0.929 . S
H793 C802 0.930 . S
H794 C804 0.930 . S
H795 C807 0.929 . S
H796 C810 0.930 . S
H797 C812 0.960 . S
H798 C812 0.960 . S
H799 C812 0.960 . S
C800 H792 0.929 . S
C800 C801 1.377 . S
C800 C802 1.384 . S
C801 C800 1.377 . S
C801 C807 1.390 . S
C802 H793 0.930 . S
C802 C800 1.384 . S
C802 C803 1.372 . S
C803 C802 1.372 . S
C803 C804 1.400 . S
C803 C808 1.490 . S
C804 H794 0.930 . S
C804 C803 1.400 . S
C804 C807 1.386 . S
H805 C821 0.930 . S
H806 C822 0.931 . S
C807 H795 0.929 . S
C807 C801 1.390 . S
C807 C804 1.386 . S
C808 C803 1.490 . S
C808 C810 1.395 . S
C808 C811 1.403 . S
H809 C815 0.930 . S
C810 H796 0.930 . S
C810 C808 1.395 . S
C810 C813 1.403 . S
C811 C808 1.403 . S
C811 C812 1.524 . S
C811 C815 1.400 . S
C812 H797 0.960 . S
C812 H798 0.960 . S
C812 H799 0.960 . S
C812 C811 1.524 . S
C813 C810 1.403 . S
C813 C814 1.392 . S
C813 C817 1.495 . S
C814 C813 1.392 . S
C814 C815 1.385 . S
C814 C816 1.478 . S
C815 H809 0.930 . S
C815 C811 1.400 . S
C815 C814 1.385 . S
C816 C814 1.478 . S
C816 C818 1.381 . S
C816 C822 1.383 . S
C817 C813 1.495 . S
C817 H823 0.959 . S
C817 H824 0.961 . S
C817 H825 0.960 . S
C818 C816 1.381 . S
C818 C819 1.394 . S
C818 H826 0.930 . S
C819 C818 1.394 . S
C819 C820 1.383 . S
C819 H827 0.929 . S
C820 C819 1.383 . S
C820 C821 1.377 . S
C821 H805 0.930 . S
C821 C820 1.377 . S
C821 C822 1.379 . S
C822 H806 0.931 . S
C822 C816 1.383 . S
C822 C821 1.379 . S
H823 C817 0.959 . S
H824 C817 0.961 . S
H825 C817 0.960 . S
H826 C818 0.930 . S
H827 C819 0.929 . S
H828 C836 0.929 . S
H829 C838 0.930 . S
H830 C840 0.930 . S
H831 C843 0.929 . S
H832 C846 0.930 . S
H833 C848 0.960 . S
H834 C848 0.960 . S
H835 C848 0.960 . S
C836 H828 0.929 . S
C836 C837 1.377 . S
C836 C838 1.384 . S
C837 C836 1.377 . S
C837 C843 1.390 . S
C838 H829 0.930 . S
C838 C836 1.384 . S
C838 C839 1.372 . S
C839 C838 1.372 . S
C839 C840 1.400 . S
C839 C844 1.490 . S
C840 H830 0.930 . S
C840 C839 1.400 . S
C840 C843 1.386 . S
H841 C857 0.930 . S
H842 C858 0.931 . S
C843 H831 0.929 . S
C843 C837 1.390 . S
C843 C840 1.386 . S
C844 C839 1.490 . S
C844 C846 1.395 1_545 S
C844 C847 1.403 . S
H845 C851 0.930 . S
C846 H832 0.930 . S
C846 C844 1.395 1_565 S
C846 C849 1.403 . S
C847 C844 1.403 . S
C847 C848 1.524 . S
C847 C851 1.400 . S
C848 H833 0.960 . S
C848 H834 0.960 . S
C848 H835 0.960 . S
C848 C847 1.524 . S
C849 C846 1.403 . S
C849 C850 1.392 . S
C849 C853 1.495 . S
C850 C849 1.392 . S
C850 C851 1.385 1_565 S
C850 C852 1.478 . S
C851 H845 0.930 . S
C851 C847 1.400 . S
C851 C850 1.385 1_545 S
C852 C850 1.478 . S
C852 C854 1.381 . S
C852 C858 1.383 . S
C853 C849 1.495 . S
C853 H859 0.959 . S
C853 H860 0.961 . S
C853 H861 0.960 . S
C854 C852 1.381 . S
C854 C855 1.394 . S
C854 H862 0.930 . S
C855 C854 1.394 . S
C855 C856 1.383 . S
C855 H863 0.929 . S
C856 C855 1.383 . S
C856 C857 1.377 . S
C857 H841 0.930 . S
C857 C856 1.377 . S
C857 C858 1.379 . S
C858 H842 0.931 . S
C858 C852 1.383 . S
C858 C857 1.379 . S
H859 C853 0.959 . S
H860 C853 0.961 . S
H861 C853 0.960 . S
H862 C854 0.930 . S
H863 C855 0.929 . S
H864 C872 0.929 . S
H865 C874 0.930 . S
H866 C876 0.930 . S
H867 C879 0.929 . S
H868 C882 0.930 . S
H869 C884 0.960 . S
H870 C884 0.960 . S
H871 C884 0.960 . S
C872 H864 0.929 . S
C872 C873 1.377 . S
C872 C874 1.384 . S
C873 C872 1.377 . S
C873 C879 1.390 . S
C874 H865 0.930 . S
C874 C872 1.384 . S
C874 C875 1.372 . S
C875 C874 1.372 . S
C875 C876 1.400 . S
C875 C880 1.490 . S
C876 H866 0.930 . S
C876 C875 1.400 . S
C876 C879 1.386 . S
H877 C893 0.930 . S
H878 C894 0.931 . S
C879 H867 0.929 . S
C879 C873 1.390 . S
C879 C876 1.386 . S
C880 C875 1.490 . S
C880 C882 1.395 . S
C880 C883 1.403 . S
H881 C887 0.930 . S
C882 H868 0.930 . S
C882 C880 1.395 . S
C882 C885 1.403 . S
C883 C880 1.403 . S
C883 C884 1.524 . S
C883 C887 1.400 . S
C884 H869 0.960 . S
C884 H870 0.960 . S
C884 H871 0.960 . S
C884 C883 1.524 . S
C885 C882 1.403 . S
C885 C886 1.392 . S
C885 C889 1.495 . S
C886 C885 1.392 . S
C886 C887 1.385 . S
C886 C888 1.478 . S
C887 H881 0.930 . S
C887 C883 1.400 . S
C887 C886 1.385 . S
C888 C886 1.478 . S
C888 C890 1.381 . S
C888 C894 1.383 1_455 S
C889 C885 1.495 . S
C889 H895 0.959 . S
C889 H896 0.961 . S
C889 H897 0.960 . S
C890 C888 1.381 . S
C890 C891 1.394 . S
C890 H898 0.930 . S
C891 C890 1.394 . S
C891 C892 1.383 1_455 S
C891 H899 0.929 . S
C892 C891 1.383 1_655 S
C892 C893 1.377 . S
C893 H877 0.930 . S
C893 C892 1.377 . S
C893 C894 1.379 . S
C894 H878 0.931 . S
C894 C888 1.383 1_655 S
C894 C893 1.379 . S
H895 C889 0.959 . S
H896 C889 0.961 . S
H897 C889 0.960 . S
H898 C890 0.930 . S
H899 C891 0.929 . S
H900 C908 0.929 . S
H901 C910 0.930 . S
H902 C912 0.930 . S
H903 C915 0.929 . S
H904 C918 0.930 . S
H905 C920 0.960 . S
H906 C920 0.960 . S
H907 C920 0.960 . S
C908 H900 0.929 . S
C908 C909 1.377 . S
C908 C910 1.384 . S
C909 C908 1.377 . S
C909 C915 1.390 . S
C910 H901 0.930 . S
C910 C908 1.384 . S
C910 C911 1.372 . S
C911 C910 1.372 . S
C911 C912 1.400 . S
C911 C916 1.490 . S
C912 H902 0.930 . S
C912 C911 1.400 . S
C912 C915 1.386 . S
H913 C929 0.930 . S
H914 C930 0.931 . S
C915 H903 0.929 . S
C915 C909 1.390 . S
C915 C912 1.386 . S
C916 C911 1.490 . S
C916 C918 1.395 . S
C916 C919 1.403 . S
H917 C923 0.930 . S
C918 H904 0.930 . S
C918 C916 1.395 . S
C918 C921 1.403 . S
C919 C916 1.403 . S
C919 C920 1.524 . S
C919 C923 1.400 . S
C920 H905 0.960 . S
C920 H906 0.960 . S
C920 H907 0.960 . S
C920 C919 1.524 . S
C921 C918 1.403 . S
C921 C922 1.392 . S
C921 C925 1.495 . S
C922 C921 1.392 . S
C922 C923 1.385 . S
C922 C924 1.478 . S
C923 H917 0.930 . S
C923 C919 1.400 . S
C923 C922 1.385 . S
C924 C922 1.478 . S
C924 C926 1.381 . S
C924 C930 1.383 . S
C925 C921 1.495 . S
C925 H931 0.959 . S
C925 H932 0.961 . S
C925 H933 0.960 . S
C926 C924 1.381 . S
C926 C927 1.394 . S
C926 H934 0.930 . S
C927 C926 1.394 . S
C927 C928 1.383 . S
C927 H935 0.929 . S
C928 C927 1.383 . S
C928 C929 1.377 . S
C929 H913 0.930 . S
C929 C928 1.377 . S
C929 C930 1.379 . S
C930 H914 0.931 . S
C930 C924 1.383 . S
C930 C929 1.379 . S
H931 C925 0.959 . S
H932 C925 0.961 . S
H933 C925 0.960 . S
H934 C926 0.930 . S
H935 C927 0.929 . S
H936 C944 0.929 . S
H937 C946 0.930 . S
H938 C948 0.930 . S
H939 C951 0.929 . S
H940 C954 0.930 . S
H941 C956 0.960 . S
H942 C956 0.960 . S
H943 C956 0.960 . S
C944 H936 0.929 . S
C944 C945 1.377 . S
C944 C946 1.384 . S
C945 C944 1.377 . S
C945 C951 1.390 . S
C946 H937 0.930 . S
C946 C944 1.384 . S
C946 C947 1.372 . S
C947 C946 1.372 . S
C947 C948 1.400 . S
C947 C952 1.490 . S
C948 H938 0.930 . S
C948 C947 1.400 . S
C948 C951 1.386 . S
H949 C965 0.930 . S
H950 C966 0.931 . S
C951 H939 0.929 . S
C951 C945 1.390 . S
C951 C948 1.386 . S
C952 C947 1.490 . S
C952 C954 1.395 . S
C952 C955 1.403 . S
H953 C959 0.930 . S
C954 H940 0.930 . S
C954 C952 1.395 . S
C954 C957 1.403 . S
C955 C952 1.403 . S
C955 C956 1.524 . S
C955 C959 1.400 . S
C956 H941 0.960 . S
C956 H942 0.960 . S
C956 H943 0.960 . S
C956 C955 1.524 . S
C957 C954 1.403 . S
C957 C958 1.392 . S
C957 C961 1.495 . S
C958 C957 1.392 . S
C958 C959 1.385 . S
C958 C960 1.478 . S
C959 H953 0.930 . S
C959 C955 1.400 . S
C959 C958 1.385 . S
C960 C958 1.478 . S
C960 C962 1.381 . S
C960 C966 1.383 . S
C961 C957 1.495 . S
C961 H967 0.959 . S
C961 H968 0.961 . S
C961 H969 0.960 . S
C962 C960 1.381 . S
C962 C963 1.394 . S
C962 H970 0.930 . S
C963 C962 1.394 . S
C963 C964 1.383 . S
C963 H971 0.929 . S
C964 C963 1.383 . S
C964 C965 1.377 . S
C965 H949 0.930 . S
C965 C964 1.377 . S
C965 C966 1.379 . S
C966 H950 0.931 . S
C966 C960 1.383 . S
C966 C965 1.379 . S
H967 C961 0.959 . S
H968 C961 0.961 . S
H969 C961 0.960 . S
H970 C962 0.930 . S
H971 C963 0.929 . S
H972 C980 0.929 . S
H973 C982 0.930 . S
H974 C984 0.930 . S
H975 C987 0.929 . S
H976 C990 0.930 . S
H977 C992 0.960 . S
H978 C992 0.960 . S
H979 C992 0.960 . S
C980 H972 0.929 . S
C980 C981 1.377 . S
C980 C982 1.384 . S
C981 C980 1.377 . S
C981 C987 1.390 . S
C982 H973 0.930 . S
C982 C980 1.384 . S
C982 C983 1.372 . S
C983 C982 1.372 . S
C983 C984 1.400 . S
C983 C988 1.490 . S
C984 H974 0.930 . S
C984 C983 1.400 . S
C984 C987 1.386 . S
H985 C1001 0.930 . S
H986 C1002 0.931 . S
C987 H975 0.929 . S
C987 C981 1.390 . S
C987 C984 1.386 . S
C988 C983 1.490 . S
C988 C990 1.395 . S
C988 C991 1.403 . S
H989 C995 0.930 . S
C990 H976 0.930 . S
C990 C988 1.395 . S
C990 C993 1.403 . S
C991 C988 1.403 . S
C991 C992 1.524 . S
C991 C995 1.400 . S
C992 H977 0.960 . S
C992 H978 0.960 . S
C992 H979 0.960 . S
C992 C991 1.524 . S
C993 C990 1.403 . S
C993 C994 1.392 . S
C993 C997 1.495 . S
C994 C993 1.392 . S
C994 C995 1.385 . S
C994 C996 1.478 . S
C995 H989 0.930 . S
C995 C991 1.400 . S
C995 C994 1.385 . S
C996 C994 1.478 . S
C996 C998 1.381 . S
C996 C1002 1.383 . S
C997 C993 1.495 . S
C997 H1003 0.959 . S
C997 H1004 0.961 . S
C997 H1005 0.960 . S
C998 C996 1.381 . S
C998 C999 1.394 . S
C998 H1006 0.930 . S
C999 C998 1.394 . S
C999 C1000 1.383 . S
C999 H1007 0.929 . S
C1000 C999 1.383 . S
C1000 C1001 1.377 . S
C1001 H985 0.930 . S
C1001 C1000 1.377 . S
C1001 C1002 1.379 . S
C1002 H986 0.931 . S
C1002 C996 1.383 . S
C1002 C1001 1.379 . S
H1003 C997 0.959 . S
H1004 C997 0.961 . S
H1005 C997 0.960 . S
H1006 C998 0.930 . S
H1007 C999 0.929 . S
H1008 C1016 0.929 . S
H1009 C1018 0.930 . S
H1010 C1020 0.930 . S
H1011 C1023 0.929 . S
H1012 C1026 0.930 . S
H1013 C1028 0.960 . S
H1014 C1028 0.960 . S
H1015 C1028 0.960 . S
C1016 H1008 0.929 . S
C1016 C1017 1.377 . S
C1016 C1018 1.384 . S
C1017 C1016 1.377 . S
C1017 C1023 1.390 . S
C1018 H1009 0.930 . S
C1018 C1016 1.384 . S
C1018 C1019 1.372 . S
C1019 C1018 1.372 . S
C1019 C1020 1.400 . S
C1019 C1024 1.490 . S
C1020 H1010 0.930 . S
C1020 C1019 1.400 . S
C1020 C1023 1.386 . S
H1021 C1037 0.930 . S
H1022 C1038 0.931 . S
C1023 H1011 0.929 . S
C1023 C1017 1.390 . S
C1023 C1020 1.386 . S
C1024 C1019 1.490 . S
C1024 C1026 1.395 . S
C1024 C1027 1.403 . S
H1025 C1031 0.930 . S
C1026 H1012 0.930 . S
C1026 C1024 1.395 . S
C1026 C1029 1.403 . S
C1027 C1024 1.403 . S
C1027 C1028 1.524 . S
C1027 C1031 1.400 . S
C1028 H1013 0.960 . S
C1028 H1014 0.960 . S
C1028 H1015 0.960 . S
C1028 C1027 1.524 . S
C1029 C1026 1.403 . S
C1029 C1030 1.392 . S
C1029 C1033 1.495 . S
C1030 C1029 1.392 . S
C1030 C1031 1.385 . S
C1030 C1032 1.478 . S
C1031 H1025 0.930 . S
C1031 C1027 1.400 . S
C1031 C1030 1.385 . S
C1032 C1030 1.478 . S
C1032 C1034 1.381 . S
C1032 C1038 1.383 . S
C1033 C1029 1.495 . S
C1033 H1039 0.959 . S
C1033 H1040 0.961 . S
C1033 H1041 0.960 . S
C1034 C1032 1.381 . S
C1034 C1035 1.394 . S
C1034 H1042 0.930 . S
C1035 C1034 1.394 . S
C1035 C1036 1.383 . S
C1035 H1043 0.929 . S
C1036 C1035 1.383 . S
C1036 C1037 1.377 . S
C1037 H1021 0.930 . S
C1037 C1036 1.377 . S
C1037 C1038 1.379 . S
C1038 H1022 0.931 . S
C1038 C1032 1.383 . S
C1038 C1037 1.379 . S
H1039 C1033 0.959 . S
H1040 C1033 0.961 . S
H1041 C1033 0.960 . S
H1042 C1034 0.930 . S
H1043 C1035 0.929 . S
H1044 C1052 0.929 . S
H1045 C1054 0.930 . S
H1046 C1056 0.930 . S
H1047 C1059 0.929 . S
H1048 C1062 0.930 . S
H1049 C1064 0.960 . S
H1050 C1064 0.960 . S
H1051 C1064 0.960 . S
C1052 H1044 0.929 . S
C1052 C1053 1.377 . S
C1052 C1054 1.384 . S
C1053 C1052 1.377 . S
C1053 C1059 1.390 . S
C1054 H1045 0.930 . S
C1054 C1052 1.384 . S
C1054 C1055 1.372 . S
C1055 C1054 1.372 . S
C1055 C1056 1.400 . S
C1055 C1060 1.490 . S
C1056 H1046 0.930 . S
C1056 C1055 1.400 . S
C1056 C1059 1.386 . S
H1057 C1073 0.930 . S
H1058 C1074 0.931 . S
C1059 H1047 0.929 . S
C1059 C1053 1.390 . S
C1059 C1056 1.386 . S
C1060 C1055 1.490 . S
C1060 C1062 1.395 . S
C1060 C1063 1.403 . S
H1061 C1067 0.930 . S
C1062 H1048 0.930 . S
C1062 C1060 1.395 . S
C1062 C1065 1.403 . S
C1063 C1060 1.403 . S
C1063 C1064 1.524 . S
C1063 C1067 1.400 . S
C1064 H1049 0.960 . S
C1064 H1050 0.960 . S
C1064 H1051 0.960 . S
C1064 C1063 1.524 . S
C1065 C1062 1.403 . S
C1065 C1066 1.392 . S
C1065 C1069 1.495 . S
C1066 C1065 1.392 . S
C1066 C1067 1.385 . S
C1066 C1068 1.478 . S
C1067 H1061 0.930 . S
C1067 C1063 1.400 . S
C1067 C1066 1.385 . S
C1068 C1066 1.478 . S
C1068 C1070 1.381 . S
C1068 C1074 1.383 . S
C1069 C1065 1.495 . S
C1069 H1075 0.959 . S
C1069 H1076 0.961 . S
C1069 H1077 0.960 . S
C1070 C1068 1.381 . S
C1070 C1071 1.394 . S
C1070 H1078 0.930 . S
C1071 C1070 1.394 . S
C1071 C1072 1.383 . S
C1071 H1079 0.929 . S
C1072 C1071 1.383 . S
C1072 C1073 1.377 . S
C1073 H1057 0.930 . S
C1073 C1072 1.377 . S
C1073 C1074 1.379 . S
C1074 H1058 0.931 . S
C1074 C1068 1.383 . S
C1074 C1073 1.379 . S
H1075 C1069 0.959 . S
H1076 C1069 0.961 . S
H1077 C1069 0.960 . S
H1078 C1070 0.930 . S
H1079 C1071 0.929 . S
H1080 C1088 0.929 . S
H1081 C1090 0.930 . S
H1082 C1092 0.930 . S
H1083 C1095 0.929 . S
H1084 C1098 0.930 . S
H1085 C1100 0.960 . S
H1086 C1100 0.960 . S
H1087 C1100 0.960 . S
C1088 H1080 0.929 . S
C1088 C1089 1.377 . S
C1088 C1090 1.384 . S
C1089 C1088 1.377 . S
C1089 C1095 1.390 . S
C1090 H1081 0.930 . S
C1090 C1088 1.384 . S
C1090 C1091 1.372 . S
C1091 C1090 1.372 . S
C1091 C1092 1.400 . S
C1091 C1096 1.490 . S
C1092 H1082 0.930 . S
C1092 C1091 1.400 . S
C1092 C1095 1.386 . S
H1093 C1109 0.930 . S
H1094 C1110 0.931 . S
C1095 H1083 0.929 . S
C1095 C1089 1.390 . S
C1095 C1092 1.386 . S
C1096 C1091 1.490 . S
C1096 C1098 1.395 . S
C1096 C1099 1.403 . S
H1097 C1103 0.930 . S
C1098 H1084 0.930 . S
C1098 C1096 1.395 . S
C1098 C1101 1.403 . S
C1099 C1096 1.403 . S
C1099 C1100 1.524 . S
C1099 C1103 1.400 . S
C1100 H1085 0.960 . S
C1100 H1086 0.960 . S
C1100 H1087 0.960 . S
C1100 C1099 1.524 . S
C1101 C1098 1.403 . S
C1101 C1102 1.392 . S
C1101 C1105 1.495 . S
C1102 C1101 1.392 . S
C1102 C1103 1.385 . S
C1102 C1104 1.478 . S
C1103 H1097 0.930 . S
C1103 C1099 1.400 . S
C1103 C1102 1.385 . S
C1104 C1102 1.478 . S
C1104 C1106 1.381 . S
C1104 C1110 1.383 . S
C1105 C1101 1.495 . S
C1105 H1111 0.959 . S
C1105 H1112 0.961 . S
C1105 H1113 0.960 . S
C1106 C1104 1.381 . S
C1106 C1107 1.394 . S
C1106 H1114 0.930 . S
C1107 C1106 1.394 . S
C1107 C1108 1.383 . S
C1107 H1115 0.929 . S
C1108 C1107 1.383 . S
C1108 C1109 1.377 . S
C1109 H1093 0.930 . S
C1109 C1108 1.377 . S
C1109 C1110 1.379 . S
C1110 H1094 0.931 . S
C1110 C1104 1.383 . S
C1110 C1109 1.379 . S
H1111 C1105 0.959 . S
H1112 C1105 0.961 . S
H1113 C1105 0.960 . S
H1114 C1106 0.930 . S
H1115 C1107 0.929 . S
H1116 C1124 0.929 . S
H1117 C1126 0.930 . S
H1118 C1128 0.930 . S
H1119 C1131 0.929 . S
H1120 C1134 0.930 . S
H1121 C1136 0.960 . S
H1122 C1136 0.960 . S
H1123 C1136 0.960 . S
C1124 H1116 0.929 . S
C1124 C1125 1.377 . S
C1124 C1126 1.384 . S
C1125 C1124 1.377 . S
C1125 C1131 1.390 . S
C1126 H1117 0.930 . S
C1126 C1124 1.384 . S
C1126 C1127 1.372 . S
C1127 C1126 1.372 . S
C1127 C1128 1.400 . S
C1127 C1132 1.490 . S
C1128 H1118 0.930 . S
C1128 C1127 1.400 . S
C1128 C1131 1.386 . S
H1129 C1145 0.930 . S
H1130 C1146 0.931 . S
C1131 H1119 0.929 . S
C1131 C1125 1.390 . S
C1131 C1128 1.386 . S
C1132 C1127 1.490 . S
C1132 C1134 1.395 . S
C1132 C1135 1.403 . S
H1133 C1139 0.930 . S
C1134 H1120 0.930 . S
C1134 C1132 1.395 . S
C1134 C1137 1.403 . S
C1135 C1132 1.403 . S
C1135 C1136 1.524 . S
C1135 C1139 1.400 . S
C1136 H1121 0.960 . S
C1136 H1122 0.960 . S
C1136 H1123 0.960 . S
C1136 C1135 1.524 . S
C1137 C1134 1.403 . S
C1137 C1138 1.392 . S
C1137 C1141 1.495 . S
C1138 C1137 1.392 . S
C1138 C1139 1.385 . S
C1138 C1140 1.478 . S
C1139 H1133 0.930 . S
C1139 C1135 1.400 . S
C1139 C1138 1.385 . S
C1140 C1138 1.478 . S
C1140 C1142 1.381 . S
C1140 C1146 1.383 . S
C1141 C1137 1.495 . S
C1141 H1147 0.959 . S
C1141 H1148 0.961 . S
C1141 H1149 0.960 . S
C1142 C1140 1.381 . S
C1142 C1143 1.394 . S
C1142 H1150 0.930 . S
C1143 C1142 1.394 . S
C1143 C1144 1.383 . S
C1143 H1151 0.929 . S
C1144 C1143 1.383 . S
C1144 C1145 1.377 . S
C1145 H1129 0.930 . S
C1145 C1144 1.377 . S
C1145 C1146 1.379 . S
C1146 H1130 0.931 . S
C1146 C1140 1.383 . S
C1146 C1145 1.379 . S
H1147 C1141 0.959 . S
H1148 C1141 0.961 . S
H1149 C1141 0.960 . S
H1150 C1142 0.930 . S
H1151 C1143 0.929 . S
H1152 C1160 0.929 . S
H1153 C1162 0.930 . S
H1154 C1164 0.930 . S
H1155 C1167 0.929 . S
H1156 C1170 0.930 . S
H1157 C1172 0.960 . S
H1158 C1172 0.960 . S
H1159 C1172 0.960 . S
C1160 H1152 0.929 . S
C1160 C1161 1.377 . S
C1160 C1162 1.384 . S
C1161 C1160 1.377 . S
C1161 C1167 1.390 . S
C1162 H1153 0.930 . S
C1162 C1160 1.384 . S
C1162 C1163 1.372 . S
C1163 C1162 1.372 . S
C1163 C1164 1.400 . S
C1163 C1168 1.490 . S
C1164 H1154 0.930 . S
C1164 C1163 1.400 . S
C1164 C1167 1.386 . S
H1165 C1181 0.930 . S
H1166 C1182 0.931 . S
C1167 H1155 0.929 . S
C1167 C1161 1.390 . S
C1167 C1164 1.386 . S
C1168 C1163 1.490 . S
C1168 C1170 1.395 . S
C1168 C1171 1.403 . S
H1169 C1175 0.930 . S
C1170 H1156 0.930 . S
C1170 C1168 1.395 . S
C1170 C1173 1.403 . S
C1171 C1168 1.403 . S
C1171 C1172 1.524 . S
C1171 C1175 1.400 . S
C1172 H1157 0.960 . S
C1172 H1158 0.960 . S
C1172 H1159 0.960 . S
C1172 C1171 1.524 . S
C1173 C1170 1.403 . S
C1173 C1174 1.392 . S
C1173 C1177 1.495 . S
C1174 C1173 1.392 . S
C1174 C1175 1.385 . S
C1174 C1176 1.478 . S
C1175 H1169 0.930 . S
C1175 C1171 1.400 . S
C1175 C1174 1.385 . S
C1176 C1174 1.478 . S
C1176 C1178 1.381 . S
C1176 C1182 1.383 . S
C1177 C1173 1.495 . S
C1177 H1183 0.959 . S
C1177 H1184 0.961 . S
C1177 H1185 0.960 . S
C1178 C1176 1.381 . S
C1178 C1179 1.394 . S
C1178 H1186 0.930 . S
C1179 C1178 1.394 . S
C1179 C1180 1.383 . S
C1179 H1187 0.929 . S
C1180 C1179 1.383 . S
C1180 C1181 1.377 . S
C1181 H1165 0.930 . S
C1181 C1180 1.377 . S
C1181 C1182 1.379 . S
C1182 H1166 0.931 . S
C1182 C1176 1.383 . S
C1182 C1181 1.379 . S
H1183 C1177 0.959 . S
H1184 C1177 0.961 . S
H1185 C1177 0.960 . S
H1186 C1178 0.930 . S
H1187 C1179 0.929 . S
H1188 C1196 0.929 . S
H1189 C1198 0.930 . S
H1190 C1200 0.930 . S
H1191 C1203 0.929 . S
H1192 C1206 0.930 . S
H1193 C1208 0.960 . S
H1194 C1208 0.960 . S
H1195 C1208 0.960 . S
C1196 H1188 0.929 . S
C1196 C1197 1.377 . S
C1196 C1198 1.384 . S
C1197 C1196 1.377 . S
C1197 C1203 1.390 . S
C1198 H1189 0.930 . S
C1198 C1196 1.384 . S
C1198 C1199 1.372 . S
C1199 C1198 1.372 . S
C1199 C1200 1.400 . S
C1199 C1204 1.490 . S
C1200 H1190 0.930 . S
C1200 C1199 1.400 . S
C1200 C1203 1.386 . S
H1201 C1217 0.930 . S
H1202 C1218 0.931 . S
C1203 H1191 0.929 . S
C1203 C1197 1.390 . S
C1203 C1200 1.386 . S
C1204 C1199 1.490 . S
C1204 C1206 1.395 . S
C1204 C1207 1.403 . S
H1205 C1211 0.930 . S
C1206 H1192 0.930 . S
C1206 C1204 1.395 . S
C1206 C1209 1.403 . S
C1207 C1204 1.403 . S
C1207 C1208 1.524 . S
C1207 C1211 1.400 . S
C1208 H1193 0.960 . S
C1208 H1194 0.960 . S
C1208 H1195 0.960 . S
C1208 C1207 1.524 . S
C1209 C1206 1.403 . S
C1209 C1210 1.392 . S
C1209 C1213 1.495 . S
C1210 C1209 1.392 . S
C1210 C1211 1.385 . S
C1210 C1212 1.478 . S
C1211 H1205 0.930 . S
C1211 C1207 1.400 . S
C1211 C1210 1.385 . S
C1212 C1210 1.478 . S
C1212 C1214 1.381 . S
C1212 C1218 1.383 . S
C1213 C1209 1.495 . S
C1213 H1219 0.959 . S
C1213 H1220 0.961 . S
C1213 H1221 0.960 . S
C1214 C1212 1.381 . S
C1214 C1215 1.394 . S
C1214 H1222 0.930 . S
C1215 C1214 1.394 . S
C1215 C1216 1.383 . S
C1215 H1223 0.929 . S
C1216 C1215 1.383 . S
C1216 C1217 1.377 . S
C1217 H1201 0.930 . S
C1217 C1216 1.377 . S
C1217 C1218 1.379 . S
C1218 H1202 0.931 . S
C1218 C1212 1.383 . S
C1218 C1217 1.379 . S
H1219 C1213 0.959 . S
H1220 C1213 0.961 . S
H1221 C1213 0.960 . S
H1222 C1214 0.930 . S
H1223 C1215 0.929 . S
H1224 C1232 0.929 . S
H1225 C1234 0.930 . S
H1226 C1236 0.930 . S
H1227 C1239 0.929 . S
H1228 C1242 0.930 . S
H1229 C1244 0.960 . S
H1230 C1244 0.960 . S
H1231 C1244 0.960 . S
C1232 H1224 0.929 . S
C1232 C1233 1.377 . S
C1232 C1234 1.384 . S
C1233 C1232 1.377 . S
C1233 C1239 1.390 . S
C1234 H1225 0.930 . S
C1234 C1232 1.384 . S
C1234 C1235 1.372 . S
C1235 C1234 1.372 . S
C1235 C1236 1.400 . S
C1235 C1240 1.490 . S
C1236 H1226 0.930 . S
C1236 C1235 1.400 . S
C1236 C1239 1.386 . S
H1237 C1253 0.930 . S
H1238 C1254 0.931 . S
C1239 H1227 0.929 . S
C1239 C1233 1.390 . S
C1239 C1236 1.386 . S
C1240 C1235 1.490 . S
C1240 C1242 1.395 . S
C1240 C1243 1.403 . S
H1241 C1247 0.930 . S
C1242 H1228 0.930 . S
C1242 C1240 1.395 . S
C1242 C1245 1.403 . S
C1243 C1240 1.403 . S
C1243 C1244 1.524 . S
C1243 C1247 1.400 . S
C1244 H1229 0.960 . S
C1244 H1230 0.960 . S
C1244 H1231 0.960 . S
C1244 C1243 1.524 . S
C1245 C1242 1.403 . S
C1245 C1246 1.392 . S
C1245 C1249 1.495 . S
C1246 C1245 1.392 . S
C1246 C1247 1.385 . S
C1246 C1248 1.478 . S
C1247 H1241 0.930 . S
C1247 C1243 1.400 . S
C1247 C1246 1.385 . S
C1248 C1246 1.478 . S
C1248 C1250 1.381 . S
C1248 C1254 1.383 . S
C1249 C1245 1.495 . S
C1249 H1255 0.959 . S
C1249 H1256 0.961 . S
C1249 H1257 0.960 . S
C1250 C1248 1.381 . S
C1250 C1251 1.394 . S
C1250 H1258 0.930 . S
C1251 C1250 1.394 . S
C1251 C1252 1.383 . S
C1251 H1259 0.929 . S
C1252 C1251 1.383 . S
C1252 C1253 1.377 . S
C1253 H1237 0.930 . S
C1253 C1252 1.377 . S
C1253 C1254 1.379 . S
C1254 H1238 0.931 . S
C1254 C1248 1.383 . S
C1254 C1253 1.379 . S
H1255 C1249 0.959 . S
H1256 C1249 0.961 . S
H1257 C1249 0.960 . S
H1258 C1250 0.930 . S
H1259 C1251 0.929 . S
H1260 C1268 0.929 . S
H1261 C1270 0.930 . S
H1262 C1272 0.930 . S
H1263 C1275 0.929 . S
H1264 C1278 0.930 . S
H1265 C1280 0.960 . S
H1266 C1280 0.960 . S
H1267 C1280 0.960 . S
C1268 H1260 0.929 . S
C1268 C1269 1.377 . S
C1268 C1270 1.384 . S
C1269 C1268 1.377 . S
C1269 C1275 1.390 . S
C1270 H1261 0.930 . S
C1270 C1268 1.384 . S
C1270 C1271 1.372 . S
C1271 C1270 1.372 . S
C1271 C1272 1.400 . S
C1271 C1276 1.490 . S
C1272 H1262 0.930 . S
C1272 C1271 1.400 . S
C1272 C1275 1.386 . S
H1273 C1289 0.930 . S
H1274 C1290 0.931 . S
C1275 H1263 0.929 . S
C1275 C1269 1.390 . S
C1275 C1272 1.386 . S
C1276 C1271 1.490 . S
C1276 C1278 1.395 . S
C1276 C1279 1.403 . S
H1277 C1283 0.930 . S
C1278 H1264 0.930 . S
C1278 C1276 1.395 . S
C1278 C1281 1.403 . S
C1279 C1276 1.403 . S
C1279 C1280 1.524 . S
C1279 C1283 1.400 . S
C1280 H1265 0.960 . S
C1280 H1266 0.960 . S
C1280 H1267 0.960 . S
C1280 C1279 1.524 . S
C1281 C1278 1.403 . S
C1281 C1282 1.392 . S
C1281 C1285 1.495 . S
C1282 C1281 1.392 . S
C1282 C1283 1.385 . S
C1282 C1284 1.478 . S
C1283 H1277 0.930 . S
C1283 C1279 1.400 . S
C1283 C1282 1.385 . S
C1284 C1282 1.478 . S
C1284 C1286 1.381 . S
C1284 C1290 1.383 . S
C1285 C1281 1.495 . S
C1285 H1291 0.959 . S
C1285 H1292 0.961 . S
C1285 H1293 0.960 . S
C1286 C1284 1.381 . S
C1286 C1287 1.394 . S
C1286 H1294 0.930 . S
C1287 C1286 1.394 . S
C1287 C1288 1.383 . S
C1287 H1295 0.929 . S
C1288 C1287 1.383 . S
C1288 C1289 1.377 . S
C1289 H1273 0.930 . S
C1289 C1288 1.377 . S
C1289 C1290 1.379 . S
C1290 H1274 0.931 . S
C1290 C1284 1.383 . S
C1290 C1289 1.379 . S
H1291 C1285 0.959 . S
H1292 C1285 0.961 . S
H1293 C1285 0.960 . S
H1294 C1286 0.930 . S
H1295 C1287 0.929 . S
H1296 C1304 0.929 . S
H1297 C1306 0.930 . S
H1298 C1308 0.930 . S
H1299 C1311 0.929 . S
H1300 C1314 0.930 . S
H1301 C1316 0.960 . S
H1302 C1316 0.960 . S
H1303 C1316 0.960 . S
C1304 H1296 0.929 . S
C1304 C1305 1.377 . S
C1304 C1306 1.384 . S
C1305 C1304 1.377 . S
C1305 C1311 1.390 . S
C1306 H1297 0.930 . S
C1306 C1304 1.384 . S
C1306 C1307 1.372 . S
C1307 C1306 1.372 . S
C1307 C1308 1.400 . S
C1307 C1312 1.490 . S
C1308 H1298 0.930 . S
C1308 C1307 1.400 . S
C1308 C1311 1.386 . S
H1309 C1325 0.930 . S
H1310 C1326 0.931 . S
C1311 H1299 0.929 . S
C1311 C1305 1.390 . S
C1311 C1308 1.386 . S
C1312 C1307 1.490 . S
C1312 C1314 1.395 . S
C1312 C1315 1.403 . S
H1313 C1319 0.930 . S
C1314 H1300 0.930 . S
C1314 C1312 1.395 . S
C1314 C1317 1.403 . S
C1315 C1312 1.403 . S
C1315 C1316 1.524 . S
C1315 C1319 1.400 . S
C1316 H1301 0.960 . S
C1316 H1302 0.960 . S
C1316 H1303 0.960 . S
C1316 C1315 1.524 . S
C1317 C1314 1.403 . S
C1317 C1318 1.392 . S
C1317 C1321 1.495 . S
C1318 C1317 1.392 . S
C1318 C1319 1.385 . S
C1318 C1320 1.478 . S
C1319 H1313 0.930 . S
C1319 C1315 1.400 . S
C1319 C1318 1.385 . S
C1320 C1318 1.478 . S
C1320 C1322 1.381 . S
C1320 C1326 1.383 . S
C1321 C1317 1.495 . S
C1321 H1327 0.959 . S
C1321 H1328 0.961 . S
C1321 H1329 0.960 . S
C1322 C1320 1.381 . S
C1322 C1323 1.394 . S
C1322 H1330 0.930 . S
C1323 C1322 1.394 . S
C1323 C1324 1.383 . S
C1323 H1331 0.929 . S
C1324 C1323 1.383 . S
C1324 C1325 1.377 . S
C1325 H1309 0.930 . S
C1325 C1324 1.377 . S
C1325 C1326 1.379 . S
C1326 H1310 0.931 . S
C1326 C1320 1.383 . S
C1326 C1325 1.379 . S
H1327 C1321 0.959 . S
H1328 C1321 0.961 . S
H1329 C1321 0.960 . S
H1330 C1322 0.930 . S
H1331 C1323 0.929 . S
H1332 C1340 0.929 . S
H1333 C1342 0.930 . S
H1334 C1344 0.930 . S
H1335 C1347 0.929 . S
H1336 C1350 0.930 . S
H1337 C1352 0.960 . S
H1338 C1352 0.960 . S
H1339 C1352 0.960 . S
C1340 H1332 0.929 . S
C1340 C1341 1.377 . S
C1340 C1342 1.384 . S
C1341 C1340 1.377 . S
C1341 C1347 1.390 . S
C1342 H1333 0.930 . S
C1342 C1340 1.384 . S
C1342 C1343 1.372 . S
C1343 C1342 1.372 . S
C1343 C1344 1.400 . S
C1343 C1348 1.490 . S
C1344 H1334 0.930 . S
C1344 C1343 1.400 . S
C1344 C1347 1.386 . S
H1345 C1361 0.930 . S
H1346 C1362 0.931 . S
C1347 H1335 0.929 . S
C1347 C1341 1.390 . S
C1347 C1344 1.386 . S
C1348 C1343 1.490 . S
C1348 C1350 1.395 . S
C1348 C1351 1.403 . S
H1349 C1355 0.930 . S
C1350 H1336 0.930 . S
C1350 C1348 1.395 . S
C1350 C1353 1.403 . S
C1351 C1348 1.403 . S
C1351 C1352 1.524 . S
C1351 C1355 1.400 . S
C1352 H1337 0.960 . S
C1352 H1338 0.960 . S
C1352 H1339 0.960 . S
C1352 C1351 1.524 . S
C1353 C1350 1.403 . S
C1353 C1354 1.392 . S
C1353 C1357 1.495 . S
C1354 C1353 1.392 . S
C1354 C1355 1.385 . S
C1354 C1356 1.478 . S
C1355 H1349 0.930 . S
C1355 C1351 1.400 . S
C1355 C1354 1.385 . S
C1356 C1354 1.478 . S
C1356 C1358 1.381 . S
C1356 C1362 1.383 . S
C1357 C1353 1.495 . S
C1357 H1363 0.959 . S
C1357 H1364 0.961 . S
C1357 H1365 0.960 . S
C1358 C1356 1.381 . S
C1358 C1359 1.394 . S
C1358 H1366 0.930 . S
C1359 C1358 1.394 . S
C1359 C1360 1.383 . S
C1359 H1367 0.929 . S
C1360 C1359 1.383 . S
C1360 C1361 1.377 . S
C1361 H1345 0.930 . S
C1361 C1360 1.377 . S
C1361 C1362 1.379 . S
C1362 H1346 0.931 . S
C1362 C1356 1.383 . S
C1362 C1361 1.379 . S
H1363 C1357 0.959 . S
H1364 C1357 0.961 . S
H1365 C1357 0.960 . S
H1366 C1358 0.930 . S
H1367 C1359 0.929 . S
H1368 C1376 0.929 . S
H1369 C1378 0.930 . S
H1370 C1380 0.930 . S
H1371 C1383 0.929 . S
H1372 C1386 0.930 . S
H1373 C1388 0.960 . S
H1374 C1388 0.960 . S
H1375 C1388 0.960 . S
C1376 H1368 0.929 . S
C1376 C1377 1.377 . S
C1376 C1378 1.384 . S
C1377 C1376 1.377 . S
C1377 C1383 1.390 . S
C1378 H1369 0.930 . S
C1378 C1376 1.384 . S
C1378 C1379 1.372 . S
C1379 C1378 1.372 . S
C1379 C1380 1.400 . S
C1379 C1384 1.490 . S
C1380 H1370 0.930 . S
C1380 C1379 1.400 . S
C1380 C1383 1.386 . S
H1381 C1397 0.930 . S
H1382 C1398 0.931 . S
C1383 H1371 0.929 . S
C1383 C1377 1.390 . S
C1383 C1380 1.386 . S
C1384 C1379 1.490 . S
C1384 C1386 1.395 . S
C1384 C1387 1.403 1_545 S
H1385 C1391 0.930 . S
C1386 H1372 0.930 . S
C1386 C1384 1.395 . S
C1386 C1389 1.403 . S
C1387 C1384 1.403 1_565 S
C1387 C1388 1.524 . S
C1387 C1391 1.400 . S
C1388 H1373 0.960 . S
C1388 H1374 0.960 . S
C1388 H1375 0.960 . S
C1388 C1387 1.524 . S
C1389 C1386 1.403 . S
C1389 C1390 1.392 1_545 S
C1389 C1393 1.495 . S
C1390 C1389 1.392 1_565 S
C1390 C1391 1.385 . S
C1390 C1392 1.478 . S
C1391 H1385 0.930 . S
C1391 C1387 1.400 . S
C1391 C1390 1.385 . S
C1392 C1390 1.478 . S
C1392 C1394 1.381 . S
C1392 C1398 1.383 . S
C1393 C1389 1.495 . S
C1393 H1399 0.959 . S
C1393 H1400 0.961 . S
C1393 H1401 0.960 . S
C1394 C1392 1.381 . S
C1394 C1395 1.394 . S
C1394 H1402 0.930 . S
C1395 C1394 1.394 . S
C1395 C1396 1.383 . S
C1395 H1403 0.929 . S
C1396 C1395 1.383 . S
C1396 C1397 1.377 . S
C1397 H1381 0.930 . S
C1397 C1396 1.377 . S
C1397 C1398 1.379 . S
C1398 H1382 0.931 . S
C1398 C1392 1.383 . S
C1398 C1397 1.379 . S
H1399 C1393 0.959 . S
H1400 C1393 0.961 . S
H1401 C1393 0.960 . S
H1402 C1394 0.930 . S
H1403 C1395 0.929 . S
H1404 C1412 0.929 . S
H1405 C1414 0.930 . S
H1406 C1416 0.930 . S
H1407 C1419 0.929 . S
H1408 C1422 0.930 . S
H1409 C1424 0.960 . S
H1410 C1424 0.960 . S
H1411 C1424 0.960 . S
C1412 H1404 0.929 . S
C1412 C1413 1.377 . S
C1412 C1414 1.384 . S
C1413 C1412 1.377 . S
C1413 C1419 1.390 . S
C1414 H1405 0.930 . S
C1414 C1412 1.384 . S
C1414 C1415 1.372 . S
C1415 C1414 1.372 . S
C1415 C1416 1.400 . S
C1415 C1420 1.490 . S
C1416 H1406 0.930 . S
C1416 C1415 1.400 . S
C1416 C1419 1.386 . S
H1417 C1433 0.934 1_455 S
H1418 C1434 0.931 . S
C1419 H1407 0.929 . S
C1419 C1413 1.390 . S
C1419 C1416 1.386 . S
C1420 C1415 1.490 . S
C1420 C1422 1.395 . S
C1420 C1423 1.403 . S
H1421 C1427 0.930 . S
C1422 H1408 0.930 . S
C1422 C1420 1.395 . S
C1422 C1425 1.403 . S
C1423 C1420 1.403 . S
C1423 C1424 1.524 . S
C1423 C1427 1.400 . S
C1424 H1409 0.960 . S
C1424 H1410 0.960 . S
C1424 H1411 0.960 . S
C1424 C1423 1.524 . S
C1425 C1422 1.403 . S
C1425 C1426 1.392 . S
C1425 C1429 1.500 . S
C1426 C1425 1.392 . S
C1426 C1427 1.385 . S
C1426 C1428 1.481 1_455 S
C1427 H1421 0.930 . S
C1427 C1423 1.400 . S
C1427 C1426 1.385 . S
C1428 C1426 1.481 1_655 S
C1428 C1430 1.378 . S
C1428 C1434 1.382 1_655 S
C1429 C1425 1.500 . S
C1429 H1435 0.969 . S
C1429 H1436 0.959 . S
C1429 H1437 0.946 1_455 S
C1430 C1428 1.378 . S
C1430 C1431 1.394 . S
C1430 H1438 0.930 . S
C1431 C1430 1.394 . S
C1431 C1432 1.383 . S
C1431 H1439 0.929 . S
C1432 C1431 1.383 . S
C1432 C1433 1.377 . S
C1433 H1417 0.934 1_655 S
C1433 C1432 1.377 . S
C1433 C1434 1.379 1_655 S
C1434 H1418 0.931 . S
C1434 C1428 1.382 1_455 S
C1434 C1433 1.379 1_455 S
H1435 C1429 0.969 . S
H1436 C1429 0.959 . S
H1437 C1429 0.946 1_655 S
H1438 C1430 0.930 . S
H1439 C1431 0.929 . S
H1440 C1448 0.929 . S
H1441 C1450 0.930 . S
H1442 C1452 0.930 . S
H1443 C1455 0.929 . S
H1444 C1458 0.930 . S
H1445 C1460 0.960 . S
H1446 C1460 0.960 . S
H1447 C1460 0.960 . S
C1448 H1440 0.929 . S
C1448 C1449 1.377 . S
C1448 C1450 1.384 . S
C1449 C1448 1.377 . S
C1449 C1455 1.390 . S
C1450 H1441 0.930 . S
C1450 C1448 1.384 . S
C1450 C1451 1.372 . S
C1451 C1450 1.372 . S
C1451 C1452 1.400 . S
C1451 C1456 1.490 . S
C1452 H1442 0.930 . S
C1452 C1451 1.400 . S
C1452 C1455 1.386 . S
H1453 C1469 0.930 . S
H1454 C1470 0.931 . S
C1455 H1443 0.929 . S
C1455 C1449 1.390 . S
C1455 C1452 1.386 . S
C1456 C1451 1.490 . S
C1456 C1458 1.395 . S
C1456 C1459 1.403 . S
H1457 C1463 0.930 . S
C1458 H1444 0.930 . S
C1458 C1456 1.395 . S
C1458 C1461 1.403 1_556 S
C1459 C1456 1.403 . S
C1459 C1460 1.524 . S
C1459 C1463 1.400 . S
C1460 H1445 0.960 . S
C1460 H1446 0.960 . S
C1460 H1447 0.960 . S
C1460 C1459 1.524 . S
C1461 C1458 1.403 1_554 S
C1461 C1462 1.392 1_554 S
C1461 C1465 1.495 . S
C1462 C1461 1.392 1_556 S
C1462 C1463 1.385 . S
C1462 C1464 1.478 1_556 S
C1463 H1457 0.930 . S
C1463 C1459 1.400 . S
C1463 C1462 1.385 . S
C1464 C1462 1.478 1_554 S
C1464 C1466 1.381 . S
C1464 C1470 1.383 . S
C1465 C1461 1.495 . S
C1465 H1471 0.959 . S
C1465 H1472 0.961 . S
C1465 H1473 0.960 . S
C1466 C1464 1.381 . S
C1466 C1467 1.394 . S
C1466 H1474 0.919 1_554 S
C1467 C1466 1.394 . S
C1467 C1468 1.383 . S
C1467 H1475 0.929 . S
C1468 C1467 1.383 . S
C1468 C1469 1.377 . S
C1469 H1453 0.930 . S
C1469 C1468 1.377 . S
C1469 C1470 1.379 . S
C1470 H1454 0.931 . S
C1470 C1464 1.383 . S
C1470 C1469 1.379 . S
H1471 C1465 0.959 . S
H1472 C1465 0.961 . S
H1473 C1465 0.960 . S
H1474 C1466 0.919 1_556 S
H1475 C1467 0.929 . S
H1476 C1484 0.929 . S
H1477 C1486 0.930 . S
H1478 C1488 0.930 . S
H1479 C1491 0.929 . S
H1480 C1494 0.930 . S
H1481 C1496 0.960 . S
H1482 C1496 0.960 1_556 S
H1483 C1496 0.960 . S
C1484 H1476 0.929 . S
C1484 C1485 1.377 . S
C1484 C1486 1.384 . S
C1485 C1484 1.377 . S
C1485 C1491 1.390 . S
C1486 H1477 0.930 . S
C1486 C1484 1.384 . S
C1486 C1487 1.372 . S
C1487 C1486 1.372 . S
C1487 C1488 1.400 1_556 S
C1487 C1492 1.490 1_566 S
C1488 H1478 0.930 . S
C1488 C1487 1.400 1_554 S
C1488 C1491 1.386 1_554 S
H1489 C1505 0.930 . S
H1490 C1506 0.931 . S
C1491 H1479 0.929 . S
C1491 C1485 1.390 . S
C1491 C1488 1.386 1_556 S
C1492 C1487 1.490 1_544 S
C1492 C1494 1.395 1_545 S
C1492 C1495 1.403 . S
H1493 C1499 0.930 . S
C1494 H1480 0.930 . S
C1494 C1492 1.395 1_565 S
C1494 C1497 1.403 1_565 S
C1495 C1492 1.403 . S
C1495 C1496 1.524 . S
C1495 C1499 1.400 . S
C1496 H1481 0.960 . S
C1496 H1482 0.960 1_554 S
C1496 H1483 0.960 . S
C1496 C1495 1.524 . S
C1497 C1494 1.403 1_545 S
C1497 C1498 1.392 . S
C1497 C1501 1.495 1_545 S
C1498 C1497 1.392 . S
C1498 C1499 1.385 . S
C1498 C1500 1.478 . S
C1499 H1493 0.930 . S
C1499 C1495 1.400 . S
C1499 C1498 1.385 . S
C1500 C1498 1.478 . S
C1500 C1502 1.381 . S
C1500 C1506 1.383 . S
C1501 C1497 1.495 1_565 S
C1501 H1507 0.959 . S
C1501 H1508 0.961 . S
C1501 H1509 0.960 1_565 S
C1502 C1500 1.381 . S
C1502 C1503 1.394 . S
C1502 H1510 0.930 . S
C1503 C1502 1.394 . S
C1503 C1504 1.383 . S
C1503 H1511 0.929 . S
C1504 C1503 1.383 . S
C1504 C1505 1.377 . S
C1505 H1489 0.930 . S
C1505 C1504 1.377 . S
C1505 C1506 1.379 . S
C1506 H1490 0.931 . S
C1506 C1500 1.383 . S
C1506 C1505 1.379 . S
H1507 C1501 0.959 . S
H1508 C1501 0.961 . S
H1509 C1501 0.960 1_545 S
H1510 C1502 0.930 . S
H1511 C1503 0.929 . S
H1512 C1520 0.929 . S
H1513 C1522 0.930 1_554 S
H1514 C1524 0.930 . S
H1515 C1527 0.929 . S
H1516 C1530 0.930 . S
H1517 C1532 0.960 . S
H1518 C1532 0.960 . S
H1519 C1532 0.960 . S
C1520 H1512 0.929 . S
C1520 C1521 1.377 . S
C1520 C1522 1.384 . S
C1521 C1520 1.377 . S
C1521 C1527 1.390 . S
C1522 H1513 0.930 1_556 S
C1522 C1520 1.384 . S
C1522 C1523 1.372 . S
C1523 C1522 1.372 . S
C1523 C1524 1.400 . S
C1523 C1528 1.502 . S
C1524 H1514 0.930 . S
C1524 C1523 1.400 . S
C1524 C1527 1.386 . S
H1525 C1541 0.930 . S
H1526 C1542 0.931 . S
C1527 H1515 0.929 . S
C1527 C1521 1.390 . S
C1527 C1524 1.386 . S
C1528 C1523 1.502 . S
C1528 C1530 1.366 1_556 S
C1528 C1531 1.419 . S
H1529 C1535 0.930 . S
C1530 H1516 0.930 . S
C1530 C1528 1.366 1_554 S
C1530 C1533 1.403 . S
C1531 C1528 1.419 . S
C1531 C1532 1.524 . S
C1531 C1535 1.400 . S
C1532 H1517 0.960 . S
C1532 H1518 0.960 . S
C1532 H1519 0.960 . S
C1532 C1531 1.524 . S
C1533 C1530 1.403 . S
C1533 C1534 1.392 . S
C1533 C1537 1.495 . S
C1534 C1533 1.392 . S
C1534 C1535 1.385 1_554 S
C1534 C1536 1.478 . S
C1535 H1529 0.930 . S
C1535 C1531 1.400 . S
C1535 C1534 1.385 1_556 S
C1536 C1534 1.478 . S
C1536 C1538 1.381 . S
C1536 C1542 1.383 1_455 S
C1537 C1533 1.495 . S
C1537 H1543 0.959 . S
C1537 H1544 0.961 . S
C1537 H1545 0.960 . S
C1538 C1536 1.381 . S
C1538 C1539 1.394 . S
C1538 H1546 0.930 . S
C1539 C1538 1.394 . S
C1539 C1540 1.383 1_455 S
C1539 H1547 0.929 . S
C1540 C1539 1.383 1_655 S
C1540 C1541 1.377 . S
C1541 H1525 0.930 . S
C1541 C1540 1.377 . S
C1541 C1542 1.379 . S
C1542 H1526 0.931 . S
C1542 C1536 1.383 1_655 S
C1542 C1541 1.379 . S
H1543 C1537 0.959 . S
H1544 C1537 0.961 . S
H1545 C1537 0.960 . S
H1546 C1538 0.930 . S
H1547 C1539 0.929 . S
C261 C9 1.434 . S
C280 C205 1.446 . S
C297 C174 1.172 . S
C316 C20 1.192 . S
C333 C34 0.982 1_565 S
C352 C191 0.993 . S
C369 C93 1.580 . S
C388 C37 1.569 . S
C405 C107 1.499 . S
C424 C6 1.497 1_655 S
C441 C121 1.409 . S
C460 C23 1.414 . S
C477 C48 1.384 1_655 S
C496 C163 1.388 . S
C513 C135 1.526 . S
C532 C65 1.511 . S
C549 C146 1.056 . S
C568 C76 1.034 . S
C585 C79 1.461 . S
C604 C216 1.454 . S
C621 C51 1.164 . S
C640 C233 1.180 . S
C657 C244 0.906 . S
C676 C62 0.938 . S
C693 C177 1.101 . S
C712 C118 1.045 . S
C729 C90 1.039 . S
C748 C188 1.046 . S
C765 C202 0.590 . S
C784 C104 0.606 . S
C801 C247 1.093 . S
C820 C132 1.070 . S
C837 C149 1.228 . S
C856 C219 1.216 . S
C873 C230 0.846 . S
C892 C160 0.816 . S
C909 C217 1.757 . S
C928 C8 1.522 . S
C945 C21 1.632 . S
C964 C232 1.506 . S
C981 C35 1.456 . S
C1000 C245 1.446 . S
C1017 C36 1.528 . S
C1036 C162 1.484 . S
C1053 C134 1.532 . S
C1072 C7 1.722 . S
C1089 C22 1.502 . S
C1108 C147 1.683 . S
C1125 C92 1.478 . S
C1144 C49 1.667 . S
C1161 C106 1.630 . S
C1180 C64 1.608 . S
C1197 C77 1.716 . S
C1216 C120 1.488 . S
C1233 C78 1.635 . S
C1252 C204 1.613 . S
C1269 C50 1.416 . S
C1288 C175 1.578 . S
C1305 C63 1.860 . S
C1324 C190 1.714 . S
C1341 C119 1.638 . S
C1360 C246 1.473 . S
C1377 C91 1.705 . S
C1396 C218 1.480 . S
C1413 C231 1.619 . S
C1432 C105 1.630 . S
C1449 C176 1.538 . S
C1468 C133 1.681 . S
C1485 C189 1.724 . S
C1504 C148 1.497 . S
C1521 C203 1.642 . S
C1540 C161 1.643 . S
