# Generated by pormake.
# Topology une, (4)-cn, num edge types: 1
# Building blocks:
#     Node 0, Type 0, BuildingBlock: CEKHIL_clean_sbu_0, # of connection points: 4
#     Node 1, Type 0, BuildingBlock: CEKHIL_clean_sbu_0, # of connection points: 4
#     Node 2, Type 0, BuildingBlock: CEKHIL_clean_sbu_0, # of connection points: 4
#     Node 3, Type 0, BuildingBlock: CEKHIL_clean_sbu_0, # of connection points: 4
#     Node 4, Type 0, BuildingBlock: CEKHIL_clean_sbu_0, # of connection points: 4
#     Node 5, Type 0, BuildingBlock: CEKHIL_clean_sbu_0, # of connection points: 4
#     Node 6, Type 0, BuildingBlock: CEKHIL_clean_sbu_0, # of connection points: 4
#     Node 7, Type 0, BuildingBlock: CEKHIL_clean_sbu_0, # of connection points: 4
#     Node 8, Type 0, BuildingBlock: CEKHIL_clean_sbu_0, # of connection points: 4
#     Node 9, Type 0, BuildingBlock: CEKHIL_clean_sbu_0, # of connection points: 4
#     Node 10, Type 0, BuildingBlock: CEKHIL_clean_sbu_0, # of connection points: 4
#     Node 11, Type 0, BuildingBlock: CEKHIL_clean_sbu_0, # of connection points: 4
#     Node 12, Type 0, BuildingBlock: CEKHIL_clean_sbu_0, # of connection points: 4
#     Node 13, Type 0, BuildingBlock: CEKHIL_clean_sbu_0, # of connection points: 4
#     Node 14, Type 0, BuildingBlock: CEKHIL_clean_sbu_0, # of connection points: 4
#     Node 15, Type 0, BuildingBlock: CEKHIL_clean_sbu_0, # of connection points: 4
#     Node 16, Type 0, BuildingBlock: CEKHIL_clean_sbu_0, # of connection points: 4
#     Node 17, Type 0, BuildingBlock: CEKHIL_clean_sbu_0, # of connection points: 4
#     Edge 18, Type (0, 0), BuildingBlock: AJUNOK_clean_linker_0, # of connection points: 2
#     Edge 19, Type (0, 0), BuildingBlock: AJUNOK_clean_linker_0, # of connection points: 2
#     Edge 20, Type (0, 0), BuildingBlock: AJUNOK_clean_linker_0, # of connection points: 2
#     Edge 21, Type (0, 0), BuildingBlock: AJUNOK_clean_linker_0, # of connection points: 2
#     Edge 22, Type (0, 0), BuildingBlock: AJUNOK_clean_linker_0, # of connection points: 2
#     Edge 23, Type (0, 0), BuildingBlock: AJUNOK_clean_linker_0, # of connection points: 2
#     Edge 24, Type (0, 0), BuildingBlock: AJUNOK_clean_linker_0, # of connection points: 2
#     Edge 25, Type (0, 0), BuildingBlock: AJUNOK_clean_linker_0, # of connection points: 2
#     Edge 26, Type (0, 0), BuildingBlock: AJUNOK_clean_linker_0, # of connection points: 2
#     Edge 27, Type (0, 0), BuildingBlock: AJUNOK_clean_linker_0, # of connection points: 2
#     Edge 28, Type (0, 0), BuildingBlock: AJUNOK_clean_linker_0, # of connection points: 2
#     Edge 29, Type (0, 0), BuildingBlock: AJUNOK_clean_linker_0, # of connection points: 2
#     Edge 30, Type (0, 0), BuildingBlock: AJUNOK_clean_linker_0, # of connection points: 2
#     Edge 31, Type (0, 0), BuildingBlock: AJUNOK_clean_linker_0, # of connection points: 2
#     Edge 32, Type (0, 0), BuildingBlock: AJUNOK_clean_linker_0, # of connection points: 2
#     Edge 33, Type (0, 0), BuildingBlock: AJUNOK_clean_linker_0, # of connection points: 2
#     Edge 34, Type (0, 0), BuildingBlock: AJUNOK_clean_linker_0, # of connection points: 2
#     Edge 35, Type (0, 0), BuildingBlock: AJUNOK_clean_linker_0, # of connection points: 2
#     Edge 36, Type (0, 0), BuildingBlock: AJUNOK_clean_linker_0, # of connection points: 2
#     Edge 37, Type (0, 0), BuildingBlock: AJUNOK_clean_linker_0, # of connection points: 2
#     Edge 38, Type (0, 0), BuildingBlock: AJUNOK_clean_linker_0, # of connection points: 2
#     Edge 39, Type (0, 0), BuildingBlock: AJUNOK_clean_linker_0, # of connection points: 2
#     Edge 40, Type (0, 0), BuildingBlock: AJUNOK_clean_linker_0, # of connection points: 2
#     Edge 41, Type (0, 0), BuildingBlock: AJUNOK_clean_linker_0, # of connection points: 2
#     Edge 42, Type (0, 0), BuildingBlock: AJUNOK_clean_linker_0, # of connection points: 2
#     Edge 43, Type (0, 0), BuildingBlock: AJUNOK_clean_linker_0, # of connection points: 2
#     Edge 44, Type (0, 0), BuildingBlock: AJUNOK_clean_linker_0, # of connection points: 2
#     Edge 45, Type (0, 0), BuildingBlock: AJUNOK_clean_linker_0, # of connection points: 2
#     Edge 46, Type (0, 0), BuildingBlock: AJUNOK_clean_linker_0, # of connection points: 2
#     Edge 47, Type (0, 0), BuildingBlock: AJUNOK_clean_linker_0, # of connection points: 2
#     Edge 48, Type (0, 0), BuildingBlock: AJUNOK_clean_linker_0, # of connection points: 2
#     Edge 49, Type (0, 0), BuildingBlock: AJUNOK_clean_linker_0, # of connection points: 2
#     Edge 50, Type (0, 0), BuildingBlock: AJUNOK_clean_linker_0, # of connection points: 2
#     Edge 51, Type (0, 0), BuildingBlock: AJUNOK_clean_linker_0, # of connection points: 2
#     Edge 52, Type (0, 0), BuildingBlock: AJUNOK_clean_linker_0, # of connection points: 2
#     Edge 53, Type (0, 0), BuildingBlock: AJUNOK_clean_linker_0, # of connection points: 2
# Relax obj value: 0.260
# Max RMSD: 0.175
# Mean RMSD: 0.165
data_MOF--net-une--node1-CEKHIL_clean_sbu_0--edge1-AJUNOK_clean_linker_0
_symmetry_space_group_name_H-M    P1
_symmetry_Int_Tables_number       1
_symmetry_cell_setting            triclinic
loop_
_symmetry_equiv_pos_as_xyz
'x, y, z'
_cell_length_a     27.818878
_cell_length_b     27.475436
_cell_length_c     36.993013
_cell_angle_alpha  90.085716
_cell_angle_beta   90.386162
_cell_angle_gamma 119.81913
loop_
_atom_site_label
_atom_site_type_symbol
_atom_site_fract_x
_atom_site_fract_y
_atom_site_fract_z
_atom_type_partial_charge
Co0 Co 0.38163 0.08038 0.09762 0.0
O1 O 0.4156 0.03322 0.10444 0.0
O2 O 0.44087 0.09864 0.06313 0.0
C3 C 0.36994 0.10501 0.15502 0.0
O4 O 0.35951 0.13665 0.08125 0.0
Co5 Co 0.26062 0.0421 0.12244 0.0
O6 O 0.2826 0.12096 0.11079 0.0
C7 C 0.28134 0.98114 0.06596 0.0
C8 C 0.44431 0.05613 0.07529 0.0
C9 C 0.3247 0.15165 0.09147 0.0
O10 O 0.33005 0.023 0.06208 0.0
O11 O 0.24822 0.97771 0.09084 0.0
O12 O 0.41866 0.1307 0.13978 0.0
O13 O 0.33467 0.06018 0.13808 0.0
Co14 Co 0.92898 0.30528 0.07657 0.0
O15 O 0.8715 0.28279 0.11388 0.0
O16 O 0.9424 0.26852 0.11696 0.0
C17 C 0.94934 0.39399 0.05959 0.0
O18 O 0.99641 0.31994 0.04802 0.0
Co19 Co 0.91499 0.3255 0.9953 0.0
O20 O 0.99628 0.35399 0.99289 0.0
C21 C 0.84357 0.21704 1.02953 0.0
C22 C 0.89554 0.25844 0.13054 0.0
C23 C 0.02088 0.34439 1.01874 0.0
O24 O 0.88135 0.22992 0.05365 0.0
O25 O 0.84708 0.25161 1.00512 0.0
O26 O 0.96967 0.38625 0.08967 0.0
O27 O 0.91169 0.34829 0.04479 0.0
Co28 Co 0.73145 0.62998 0.09203 0.0
O29 O 0.6511 0.59439 0.10068 0.0
O30 O 0.68848 0.57247 0.056 0.0
C31 C 0.77064 0.63723 0.14834 0.0
O32 O 0.80776 0.65269 0.07295 0.0
Co33 Co 0.81811 0.74956 0.12128 0.0
O34 O 0.87295 0.73185 0.10028 0.0
C35 C 0.7283 0.73266 0.07251 0.0
C36 C 0.64355 0.56658 0.07047 0.0
C37 C 0.85845 0.68928 0.07991 0.0
O38 O 0.72424 0.6865 0.06137 0.0
O39 O 0.759 0.76089 0.09915 0.0
O40 O 0.74695 0.58922 0.13097 0.0
O41 O 0.76103 0.67415 0.13404 0.0
Co42 Co 0.58886 0.90825 0.97027 0.0
O43 O 0.55751 0.84762 0.93362 0.0
O44 O 0.64099 0.92133 0.93219 0.0
C45 C 0.52135 0.93034 0.98378 0.0
O46 O 0.63897 0.97762 0.99841 0.0
Co47 Co 0.55029 0.8981 0.05032 0.0
O48 O 0.61048 0.97784 0.05505 0.0
C49 C 0.60189 0.8342 1.02522 0.0
C50 C 0.60656 0.87272 0.91865 0.0
C51 C 0.64363 1.00141 1.02892 0.0
O52 O 0.61795 0.86428 0.9966 0.0
O53 O 0.56898 0.83683 0.04807 0.0
O54 O 0.54919 0.94773 0.95366 0.0
O55 O 0.52756 0.8923 0.99993 0.0
Co56 Co 0.10095 0.68281 0.95082 0.0
O57 O 0.14707 0.6995 0.90757 0.0
O58 O 0.08732 0.72846 0.91656 0.0
C59 C 0.06855 0.58944 0.96279 0.0
O60 O 0.04801 0.67858 0.98912 0.0
Co61 Co 0.13072 0.64922 1.02533 0.0
O62 O 0.05802 0.64013 0.04035 0.0
C63 C 0.1928 0.76588 1.00055 0.0
C64 C 0.12737 0.73167 0.89706 0.0
C65 C 0.0333 0.65966 1.02118 0.0
O66 O 0.16006 0.75378 0.97331 0.0
O67 O 0.19108 0.72921 1.02257 0.0
O68 O 0.04615 0.6043 0.93699 0.0
O69 O 0.11478 0.62996 0.97468 0.0
Co70 Co 0.34328 0.40964 0.96959 0.0
O71 O 0.32724 0.43679 0.9245 0.0
O72 O 0.30104 0.34854 0.93593 0.0
C73 C 0.43502 0.47112 0.98331 0.0
O74 O 0.34784 0.36273 1.00945 0.0
Co75 Co 0.36824 0.47359 0.04314 0.0
O76 O 0.37243 0.40839 0.06281 0.0
C77 C 0.25651 0.42252 1.01226 0.0
C78 C 0.29723 0.38405 0.91482 0.0
C79 C 0.3601 0.36564 0.04308 0.0
O80 O 0.27092 0.3984 0.98845 0.0
O81 O 0.29059 0.4584 0.035 0.0
O82 O 0.42127 0.43307 0.95802 0.0
O83 O 0.39414 0.47738 0.99381 0.0
Co84 Co 0.05011 0.40904 0.43565 0.0
O85 O 0.08798 0.3654 0.44326 0.0
O86 O 0.1095 0.42912 0.40122 0.0
C87 C 0.03736 0.43469 0.49254 0.0
O88 O 0.02514 0.4622 0.41764 0.0
Co89 Co 0.92906 0.37048 0.4605 0.0
O90 O 0.94888 0.44819 0.44707 0.0
C91 C 0.949 0.30991 0.4028 0.0
C92 C 0.11599 0.38875 0.4139 0.0
C93 C 0.98985 0.47715 0.42649 0.0
O94 O 0.99965 0.34891 0.4011 0.0
O95 O 0.91465 0.30845 0.42613 0.0
O96 O 0.0858 0.46164 0.47699 0.0
O97 O 1.00311 0.38876 0.47623 0.0
Co98 Co 0.59421 0.63542 0.40527 0.0
O99 O 0.53415 0.60646 0.44125 0.0
O100 O 0.60987 0.60067 0.44569 0.0
C101 C 0.60867 0.72186 0.38823 0.0
O102 O 0.66392 0.65687 0.37774 0.0
Co103 Co 0.5777 0.65196 0.32375 0.0
O104 O 0.65928 0.68155 0.32044 0.0
C105 C 0.51196 0.54599 0.36072 0.0
C106 C 0.56088 0.58508 0.45809 0.0
C107 C 0.68619 0.67753 0.34722 0.0
O108 O 0.55407 0.56065 0.38126 0.0
O109 O 0.51033 0.57893 0.337 0.0
O110 O 0.62832 0.71569 0.41911 0.0
O111 O 0.57346 0.67516 0.37308 0.0
Co112 Co 0.39187 0.95215 0.43022 0.0
O113 O 0.31224 0.91706 0.43984 0.0
O114 O 0.34795 0.89253 0.39541 0.0
C115 C 0.43271 0.96268 0.48629 0.0
O116 O 0.46813 0.97527 0.41067 0.0
Co117 Co 0.47672 0.0739 0.45705 0.0
O118 O 0.53184 0.05541 0.43788 0.0
C119 C 0.39567 0.05711 0.40108 0.0
C120 C 0.30364 0.88821 0.41 0.0
C121 C 0.51847 0.01309 0.41751 0.0
O122 O 0.38282 1.00559 0.39761 0.0
O123 O 0.4289 0.09031 0.42516 0.0
O124 O 0.40879 0.91384 0.46996 0.0
O125 O 0.42191 0.99851 0.47141 0.0
Co126 Co 0.26885 0.24953 0.30492 0.0
O127 O 0.23595 0.19442 0.2655 0.0
O128 O 0.32144 0.26521 0.2663 0.0
C129 C 0.20332 0.27306 0.32141 0.0
O130 O 0.31962 0.31263 0.33766 0.0
Co131 Co 0.22562 0.22375 0.38429 0.0
O132 O 0.2852 0.30261 0.39386 0.0
C133 C 0.27973 0.16626 0.3531 0.0
C134 C 0.28532 0.21853 0.25107 0.0
C135 C 0.32159 0.32993 0.37004 0.0
O136 O 0.29522 0.20053 0.32666 0.0
O137 O 0.2461 0.16393 0.37732 0.0
O138 O 0.23249 0.2938 0.2921 0.0
O139 O 0.20694 0.23152 0.33462 0.0
Co140 Co 0.75903 0.01417 0.28396 0.0
O141 O 0.8048 0.03472 0.24023 0.0
O142 O 0.74333 0.06055 0.2519 0.0
C143 C 0.72831 0.9207 0.29384 0.0
O144 O 0.70636 0.00646 0.32326 0.0
Co145 Co 0.79256 0.97967 0.35657 0.0
O146 O 0.72064 0.97001 0.374 0.0
C147 C 0.85155 0.09673 0.33348 0.0
C148 C 0.78371 0.06648 0.23162 0.0
C149 C 0.69392 0.98807 0.35559 0.0
O150 O 0.81703 0.0847 0.30734 0.0
O151 O 0.85244 0.06003 0.35426 0.0
O152 O 0.70535 0.93612 0.26875 0.0
O153 O 0.77461 0.96117 0.30587 0.0
Co154 Co 1.00823 0.73837 0.30267 0.0
O155 O 0.99486 0.76957 0.2586 0.0
O156 O 0.96772 0.68025 0.26661 0.0
C157 C 0.09914 0.79957 0.3192 0.0
O158 O 1.0105 0.68821 0.34117 0.0
Co159 Co 0.02865 0.79615 0.3781 0.0
O160 O 0.0323 0.72977 0.3959 0.0
C161 C 0.92057 0.75156 0.34317 0.0
C162 C 0.96473 0.71779 0.24707 0.0
C163 C 0.02138 0.68869 0.3749 0.0
O164 O 0.93486 0.72586 0.32046 0.0
O165 O 0.95424 0.78685 0.36627 0.0
O166 O 0.08749 0.76341 0.29291 0.0
O167 O 0.05708 0.80397 0.32922 0.0
Co168 Co 0.7092 0.73735 0.7684 0.0
O169 O 0.73604 0.68409 0.77498 0.0
O170 O 0.77152 0.7542 0.73672 0.0
C171 C 0.69345 0.75804 0.82572 0.0
O172 O 0.69487 0.80009 0.75343 0.0
Co173 Co 0.58706 0.70342 0.78845 0.0
O174 O 0.61324 0.78298 0.77688 0.0
C175 C 0.60868 0.64927 0.72797 0.0
C176 C 0.76922 0.70819 0.74782 0.0
C177 C 0.65868 0.81473 0.76084 0.0
O178 O 0.65985 0.68692 0.72916 0.0
O179 O 0.57306 0.64522 0.75115 0.0
O180 O 0.74385 0.78139 0.81303 0.0
O181 O 0.65797 0.71598 0.80668 0.0
Co182 Co 0.26793 0.97067 0.74024 0.0
O183 O 0.21502 0.94848 0.78058 0.0
O184 O 0.28275 0.92955 0.77702 0.0
C185 C 0.29109 0.06159 0.72708 0.0
O186 O 0.33033 0.98285 0.70707 0.0
Co187 Co 0.24746 0.99844 0.66184 0.0
O188 O 0.32783 0.02464 0.65554 0.0
C189 C 0.17524 0.88894 0.69468 0.0
C190 C 0.23836 0.9209 0.79364 0.0
C191 C 0.3528 0.00936 0.67787 0.0
O192 O 0.21481 0.8979 0.71655 0.0
O193 O 0.17839 0.92609 0.67257 0.0
O194 O 0.31382 0.05097 0.75485 0.0
O195 O 0.25047 0.01754 0.71282 0.0
Co196 Co 0.06317 0.2915 0.75982 0.0
O197 O 0.98366 0.25854 0.76982 0.0
O198 O 0.01757 0.23216 0.72532 0.0
C199 C 0.10346 0.30042 0.81587 0.0
O200 O 0.13831 0.31155 0.73949 0.0
Co201 Co 0.1538 0.41124 0.78645 0.0
O202 O 0.20512 0.38555 0.76994 0.0
C203 C 0.0727 0.39903 0.73109 0.0
C204 C 0.97395 0.22878 0.74027 0.0
C205 C 0.18937 0.34441 0.74809 0.0
O206 O 0.0564 0.34659 0.72762 0.0
O207 O 0.10816 0.4311 0.75467 0.0
O208 O 0.07817 0.2517 0.79943 0.0
O209 O 0.09502 0.33779 0.80093 0.0
Co210 Co 0.92772 0.5781 0.63758 0.0
O211 O 0.89609 0.51629 0.60228 0.0
O212 O 0.97629 0.59372 0.59648 0.0
C213 C 0.85636 0.5921 0.65546 0.0
O214 O 0.9759 0.64879 0.66506 0.0
Co215 Co 0.89638 0.56168 0.7193 0.0
O216 O 0.95226 0.64318 0.72362 0.0
C217 C 0.95357 0.50786 0.68775 0.0
C218 C 0.9431 0.54313 0.58499 0.0
C219 C 0.98135 0.67026 0.69656 0.0
O220 O 0.96588 0.54068 0.66067 0.0
O221 O 0.91997 0.50419 0.71239 0.0
O222 O 0.88056 0.61113 0.62434 0.0
O223 O 0.86856 0.55709 0.67023 0.0
Co224 Co 0.43079 0.34525 0.61363 0.0
O225 O 0.47754 0.36402 0.57077 0.0
O226 O 0.41182 0.38542 0.57798 0.0
C227 C 0.40599 0.25488 0.62814 0.0
O228 O 0.3757 0.33606 0.65194 0.0
Co229 Co 0.47202 0.32479 0.68812 0.0
O230 O 0.39933 0.31336 0.70515 0.0
C231 C 0.52172 0.43787 0.6595 0.0
C232 C 0.45404 0.39221 0.55924 0.0
C233 C 0.36676 0.32233 0.68541 0.0
O234 O 0.48489 0.41985 0.63447 0.0
O235 O 0.52821 0.40575 0.68151 0.0
O236 O 0.38166 0.26518 0.60122 0.0
O237 O 0.45122 0.29826 0.63884 0.0
Co238 Co 0.67493 0.06951 0.63709 0.0
O239 O 0.66111 0.09858 0.59233 0.0
O240 O 0.63424 0.00968 0.60209 0.0
C241 C 0.76579 0.13209 0.65277 0.0
O242 O 0.67737 0.02177 0.6772 0.0
Co243 Co 0.69469 0.13253 0.71063 0.0
O244 O 0.70448 0.07005 0.72971 0.0
C245 C 0.58627 0.08302 0.67572 0.0
C246 C 0.6307 0.04632 0.58185 0.0
C247 C 0.69128 0.02646 0.71063 0.0
O248 O 0.60148 0.05657 0.65447 0.0
O249 O 0.6188 0.1203 0.69835 0.0
O250 O 0.75413 0.09457 0.62739 0.0
O251 O 0.72361 0.13671 0.66223 0.0
C252 C 0.46113 0.97492 0.06242 0.0
C253 C 0.46874 0.02777 0.05251 0.0
C254 C 0.47605 0.94352 0.0394 0.0
C255 C 0.50081 0.9635 1.00529 0.0
H256 H 0.4425 0.95693 0.08814 0.0
H257 H 0.46825 0.90295 0.04879 0.0
S258 S 0.53357 0.10123 0.96673 0.0
N259 N 0.5045 0.09942 1.00587 0.0
N260 N 0.53418 0.04157 0.9636 0.0
C261 C 0.5099 0.0169 0.99524 0.0
C262 C 0.49383 0.04867 1.01854 0.0
C263 C 0.03626 0.48173 0.03878 0.0
C264 C 0.97837 0.44642 0.03694 0.0
C265 C 0.06465 0.52597 1.0139 0.0
C266 C 0.03679 0.53771 0.98597 0.0
H267 H 0.06019 0.47417 0.05891 0.0
H268 H 0.1092 0.55143 1.01674 0.0
S269 S 0.88459 0.45963 0.97056 0.0
N270 N 0.89397 0.42737 1.00524 0.0
N271 N 0.94683 0.51059 0.95943 0.0
C272 C 0.97878 0.5031 0.9842 0.0
C273 C 0.9499 0.45776 1.00937 0.0
C274 C 0.49758 0.52906 0.03585 0.0
C275 C 0.4887 0.49479 1.00505 0.0
C276 C 0.54609 0.54989 0.05765 0.0
C277 C 0.58878 0.53792 0.04985 0.0
H278 H 0.46674 0.54025 0.04328 0.0
H279 H 0.55073 0.5769 0.08033 0.0
S280 S 0.58638 0.44891 0.97314 0.0
N281 N 0.52728 0.44894 0.96881 0.0
N282 N 0.61772 0.48808 1.00902 0.0
C283 C 0.58023 0.50327 1.01935 0.0
C284 C 0.5307 0.48184 0.99727 0.0
C285 C 0.14193 0.31323 0.40203 0.0
C286 C 0.14364 0.36332 0.39141 0.0
C287 C 0.15989 0.28423 0.37902 0.0
C288 C 0.18148 0.30393 0.34416 0.0
H289 H 0.12497 0.29512 0.42808 0.0
H290 H 0.15639 0.24554 0.38884 0.0
S291 S 0.19783 0.43465 0.30328 0.0
N292 N 0.17054 0.43212 0.34322 0.0
N293 N 0.20487 0.37851 0.30084 0.0
C294 C 0.18462 0.35465 0.33343 0.0
C295 C 0.16591 0.38405 0.35676 0.0
C296 C 0.69398 0.81334 0.3704 0.0
C297 C 0.63722 0.77448 0.36565 0.0
C298 C 0.72297 0.8584 0.34622 0.0
C299 C 0.6967 0.86803 0.31631 0.0
H300 H 0.71676 0.80815 0.39246 0.0
H301 H 0.7667 0.88623 0.35129 0.0
S302 S 0.5479 0.77926 0.29208 0.0
N303 N 0.55571 0.74886 0.32838 0.0
N304 N 0.60939 0.83408 0.28409 0.0
C305 C 0.63977 0.82967 0.31145 0.0
C306 C 0.6104 0.78316 0.33577 0.0
C307 C 0.19247 0.80773 0.33608 0.0
C308 C 0.15152 0.82283 0.34234 0.0
C309 C 0.24015 0.82719 0.35864 0.0
C310 C 0.24902 0.86181 0.38924 0.0
H311 H 0.18785 0.78069 0.31342 0.0
H312 H 0.27067 0.81525 0.35179 0.0
S313 S 0.15554 0.91493 0.41771 0.0
N314 N 0.12513 0.87703 0.38125 0.0
N315 N 0.2118 0.91017 0.42418 0.0
C316 C 0.20801 0.8765 0.39609 0.0
C317 C 0.16034 0.85804 0.37262 0.0
C318 C 0.84208 0.67514 0.67046 0.0
C319 C 0.83168 0.62038 0.67802 0.0
C320 C 0.82366 0.70373 0.69366 0.0
C321 C 0.7939 0.67927 0.72576 0.0
H322 H 0.86541 0.69659 0.64666 0.0
H323 H 0.83248 0.74539 0.68606 0.0
S324 S 0.75388 0.53584 0.75755 0.0
N325 N 0.78812 0.54252 0.71991 0.0
N326 N 0.75419 0.59563 0.76296 0.0
C327 C 0.78312 0.62445 0.73347 0.0
C328 C 0.80171 0.59536 0.70986 0.0
C329 C 0.40409 0.19675 0.68233 0.0
C330 C 0.37588 0.20501 0.653 0.0
C331 C 0.37664 0.15242 0.70738 0.0
C332 C 0.31922 0.11463 0.70482 0.0
H333 H 0.44826 0.2244 0.68573 0.0
H334 H 0.40098 0.14679 0.72818 0.0
S335 S 0.22418 0.12156 0.63631 0.0
N336 N 0.28585 0.17336 0.62512 0.0
N337 N 0.2344 0.09195 0.67211 0.0
C338 C 0.29017 0.12402 0.67662 0.0
C339 C 0.31824 0.16847 0.65086 0.0
C340 C 0.85993 0.14236 0.66934 0.0
C341 C 0.81887 0.15739 0.67528 0.0
C342 C 0.90856 0.16389 0.6911 0.0
C343 C 0.9185 0.20086 0.72051 0.0
H344 H 0.85465 0.11372 0.64754 0.0
H345 H 0.93898 0.15167 0.68455 0.0
S346 S 0.82521 0.25483 0.74768 0.0
N347 N 0.79322 0.21369 0.71269 0.0
N348 N 0.8823 0.25152 0.75397 0.0
C349 C 0.87748 0.21563 0.72705 0.0
C350 C 0.82857 0.19473 0.70445 0.0
C351 C 0.37948 0.19159 0.18764 0.0
C352 C 0.34969 0.13318 0.18134 0.0
C353 C 0.35754 0.21886 0.20893 0.0
C354 C 0.3043 0.1894 0.22467 0.0
H355 H 0.4198 0.21678 0.17556 0.0
H356 H 0.38281 0.26369 0.21314 0.0
S357 S 0.21008 0.03539 0.21812 0.0
N358 N 0.26452 0.04656 0.19424 0.0
N359 N 0.22345 0.09757 0.23306 0.0
C360 C 0.27426 0.131 0.21866 0.0
C361 C 0.29685 0.10313 0.19745 0.0
C362 C 0.891 0.17918 0.16838 0.0
C363 C 0.86735 0.21262 0.15854 0.0
C364 C 0.86333 0.13153 0.19084 0.0
C365 C 0.81038 0.11455 0.20498 0.0
H366 H 0.93113 0.18907 0.15799 0.0
H367 H 0.88399 0.10804 0.19735 0.0
S368 S 0.73033 0.18825 0.1891 0.0
N369 N 0.78761 0.22522 0.16579 0.0
N370 N 0.73619 0.13707 0.20812 0.0
C371 C 0.78661 0.14823 0.19596 0.0
C372 C 0.81476 0.19662 0.17284 0.0
C373 C 0.89544 0.64702 0.2018 0.0
C374 C 0.91861 0.69988 0.21937 0.0
C375 C 0.84714 0.62595 0.17966 0.0
C376 C 0.81865 0.65602 0.17479 0.0
H377 H 0.91474 0.62145 0.20528 0.0
H378 H 0.83235 0.586 0.16609 0.0
S379 S 0.85834 0.79384 0.21771 0.0
N380 N 0.90709 0.78031 0.23126 0.0
N381 N 0.81611 0.74032 0.1918 0.0
C382 C 0.84074 0.70825 0.19303 0.0
C383 C 0.89054 0.73024 0.21462 0.0
C384 C 0.59704 0.78629 0.8859 0.0
C385 C 0.62741 0.84451 0.89282 0.0
C386 C 0.61942 0.75872 0.86537 0.0
C387 C 0.67362 0.78764 0.85103 0.0
H388 H 0.55588 0.76149 0.89691 0.0
H389 H 0.59376 0.71406 0.86062 0.0
S390 S 0.77012 0.94086 0.85971 0.0
N391 N 0.71468 0.93037 0.88211 0.0
N392 N 0.7562 0.87863 0.84459 0.0
C393 C 0.70431 0.8458 0.85763 0.0
C394 C 0.6814 0.87404 0.87809 0.0
C395 C 0.1306 0.80979 0.85803 0.0
C396 C 0.15496 0.77744 0.86895 0.0
C397 C 0.15789 0.8566 0.8347 0.0
C398 C 0.21147 0.87425 0.82134 0.0
H399 H 0.0899 0.79905 0.86777 0.0
H400 H 0.13648 0.87885 0.82688 0.0
S401 S 0.29488 0.80546 0.8422 0.0
N402 N 0.23674 0.76769 0.86448 0.0
N403 N 0.28791 0.85486 0.82157 0.0
C404 C 0.2364 0.84239 0.83226 0.0
C405 C 0.20835 0.79446 0.85567 0.0
C406 C 0.22637 0.39566 0.87812 0.0
C407 C 0.25135 0.3634 0.88679 0.0
C408 C 0.17789 0.37392 0.8565 0.0
C409 C 0.15185 0.31888 0.84187 0.0
H410 H 0.2433 0.43763 0.88913 0.0
H411 H 0.16069 0.40096 0.85117 0.0
S412 S 0.20162 0.21732 0.85504 0.0
N413 N 0.24632 0.27316 0.87838 0.0
N414 N 0.15667 0.23329 0.83716 0.0
C415 C 0.1768 0.28634 0.84993 0.0
C416 C 0.22597 0.3083 0.87235 0.0
C417 C 0.04044 0.5208 0.52158 0.0
C418 C 0.01521 0.46199 0.5181 0.0
C419 C 0.01579 0.54642 0.54188 0.0
C420 C 0.96437 0.51474 0.55961 0.0
H421 H 0.07908 0.54747 0.50792 0.0
H422 H 0.03764 0.59176 0.54384 0.0
S423 S 0.88186 0.35908 0.56029 0.0
N424 N 0.93606 0.37285 0.53528 0.0
N425 N 0.89024 0.42058 0.57271 0.0
C426 C 0.9389 0.45593 0.55639 0.0
C427 C 0.96412 0.42985 0.53598 0.0
C428 C 0.47837 0.51393 0.49544 0.0
C429 C 0.53432 0.53733 0.4851 0.0
C430 C 0.45233 0.46631 0.5183 0.0
C431 C 0.48041 0.43872 0.5315 0.0
H432 H 0.45425 0.53238 0.4857 0.0
H433 H 0.40967 0.45113 0.52584 0.0
S434 S 0.62748 0.48248 0.51289 0.0
N435 N 0.61689 0.52839 0.49068 0.0
N436 N 0.56806 0.43957 0.53235 0.0
C437 C 0.53614 0.46141 0.52111 0.0
C438 C 0.56289 0.51026 0.49839 0.0
C439 C 0.55752 0.97262 0.53976 0.0
C440 C 0.58352 0.02735 0.55485 0.0
C441 C 0.50842 0.95116 0.51843 0.0
C442 C 0.48193 0.98281 0.51188 0.0
H443 H 0.57515 0.94583 0.54463 0.0
H444 H 0.49133 0.90954 0.50685 0.0
S445 S 0.53033 0.12697 0.54726 0.0
N446 N 0.57738 0.11185 0.56214 0.0
N447 N 0.48485 0.07126 0.52432 0.0
C448 C 0.50695 0.03711 0.52758 0.0
C449 C 0.55758 0.05938 0.54834 0.0
C450 C 0.2288 0.91538 1.01616 0.0
C451 C 0.26688 0.93117 0.0447 0.0
C452 C 0.20909 0.86335 0.99917 0.0
C453 C 0.22614 0.82538 1.01096 0.0
H454 H 0.21253 0.94229 1.00798 0.0
H455 H 0.17724 0.85135 0.97858 0.0
S456 S 0.33039 0.85144 0.08246 0.0
N457 N 0.325 0.90864 0.08216 0.0
N458 N 0.28804 0.81045 0.05037 0.0
C459 C 0.26746 0.84299 0.03783 0.0
C460 C 0.28767 0.89603 0.05484 0.0
C461 C 0.10643 0.36638 0.98413 0.0
C462 C 0.08109 0.3659 1.01692 0.0
C463 C 0.16344 0.38536 0.98279 0.0
C464 C 0.19719 0.40579 1.01402 0.0
H465 H 0.0819 0.35083 0.95958 0.0
H466 H 0.18118 0.38395 0.9571 0.0
S467 S 0.1511 0.41692 0.10601 0.0
N468 N 0.0942 0.38981 0.081 0.0
N469 N 0.20118 0.42611 0.07832 0.0
C470 C 0.17249 0.40714 0.0467 0.0
C471 C 0.11448 0.38699 0.04818 0.0
C472 C 0.66073 0.76355 0.08278 0.0
C473 C 0.69074 0.75068 0.05801 0.0
C474 C 0.62946 0.78751 0.07142 0.0
C475 C 0.62783 0.80044 0.03485 0.0
H476 H 0.66261 0.75637 0.11144 0.0
H477 H 0.60875 0.79847 0.09189 0.0
S478 S 0.69462 0.76879 0.95877 0.0
N479 N 0.71333 0.74717 0.99513 0.0
N480 N 0.65497 0.7937 0.9733 0.0
C481 C 0.65537 0.78491 1.00941 0.0
C482 C 0.68671 0.7595 1.02111 0.0
C483 C 0.70316 0.09541 1.00374 0.0
C484 C 0.69073 0.0582 0.03271 0.0
C485 C 0.75284 0.14624 1.00295 0.0
C486 C 0.79243 0.16158 1.03088 0.0
H487 H 0.67464 0.08453 0.98111 0.0
H488 H 0.76031 0.17333 0.97988 0.0
S489 S 0.77901 0.0767 0.11235 0.0
N490 N 0.72062 0.03874 0.08977 0.0
N491 N 0.81516 0.1343 0.08849 0.0
C492 C 0.78002 0.12452 0.06028 0.0
C493 C 0.72875 0.07292 0.06117 0.0
C494 C 0.94907 0.72554 0.04969 0.0
C495 C 0.90197 0.68031 0.06479 0.0
C496 C 0.99139 0.71809 0.03553 0.0
C497 C 0.98859 0.66565 0.0371 0.0
H498 H 0.95283 0.7667 0.04836 0.0
H499 H 0.02687 0.75375 1.02357 0.0
S500 S 0.87506 0.53458 0.0751 0.0
N501 N 0.85497 0.58144 0.08093 0.0
N502 N 0.93603 0.56814 0.05525 0.0
C503 C 0.94235 0.62033 0.05272 0.0
C504 C 0.8985 0.6275 0.06631 0.0
C505 C 0.37495 0.28464 0.03812 0.0
C506 C 0.35712 0.31545 0.05886 0.0
C507 C 0.3647 0.23187 0.04914 0.0
C508 C 0.33529 0.20765 0.08096 0.0
H509 H 0.39598 0.30099 1.0127 0.0
H510 H 0.37862 0.20932 0.03207 0.0
S511 S 0.28257 0.27293 0.14586 0.0
N512 N 0.31136 0.31983 0.11347 0.0
N513 N 0.29105 0.21965 0.1342 0.0
C514 C 0.31852 0.23871 0.10253 0.0
C515 C 0.3299 0.29305 0.09153 0.0
C516 C 0.88228 0.2415 0.35885 0.0
C517 C 0.93109 0.2613 0.37923 0.0
C518 C 0.85946 0.18979 0.34111 0.0
C519 C 0.88399 0.1558 0.34427 0.0
H520 H 0.86057 0.26506 0.35781 0.0
H521 H 0.82017 0.17466 0.32712 0.0
S522 S 1.01416 0.19115 0.39277 0.0
N523 N 1.00557 0.24575 0.39968 0.0
N524 N 0.9615 0.14726 0.36709 0.0
C525 C 0.93437 0.17661 0.36304 0.0
C526 C 0.95826 0.22984 0.3804 0.0
C527 C 0.82737 0.71101 0.3132 0.0
C528 C 0.86179 0.73722 0.34351 0.0
C529 C 0.77069 0.69365 0.31372 0.0
C530 C 0.74646 0.70076 0.34495 0.0
H531 H 0.8441 0.70304 0.28896 0.0
H532 H 0.74544 0.67274 0.29016 0.0
S533 S 0.81837 0.77003 0.43066 0.0
N534 N 0.8675 0.77213 0.40486 0.0
N535 N 0.76112 0.73853 0.40609 0.0
C536 C 0.78055 0.72829 0.375 0.0
C537 C 0.8382 0.74679 0.3743 0.0
C538 C 0.27918 0.08034 0.37475 0.0
C539 C 0.3073 0.13301 0.35802 0.0
C540 C 0.30761 0.0526 0.38523 0.0
C541 C 0.36492 0.07741 0.37998 0.0
H542 H 0.23563 0.06169 0.38118 0.0
H543 H 0.28563 0.01388 0.40017 0.0
S544 S 0.45631 0.21122 0.3339 0.0
N545 N 0.39454 0.20597 0.33317 0.0
N546 N 0.44798 0.15423 0.35442 0.0
C547 C 0.39275 0.12801 0.36123 0.0
C548 C 0.36379 0.15574 0.34977 0.0
C549 C 0.46785 0.44501 0.37649 0.0
C550 C 0.46243 0.49163 0.36721 0.0
C551 C 0.42092 0.39233 0.38122 0.0
C552 C 0.36761 0.38548 0.37806 0.0
H553 H 0.50842 0.44871 0.37833 0.0
H554 H 0.42624 0.35623 0.38531 0.0
S555 S 0.33145 0.49571 0.35983 0.0
N556 N 0.39986 0.5288 0.35888 0.0
N557 N 0.31165 0.42946 0.36855 0.0
C558 C 0.36171 0.43233 0.3715 0.0
C559 C 0.40926 0.48567 0.36588 0.0
C560 C 0.60393 0.94835 0.38771 0.0
C561 C 0.65046 0.99455 0.37288 0.0
C562 C 0.56041 0.95437 0.40159 0.0
C563 C 0.5632 0.00695 0.40164 0.0
H564 H 0.60066 0.90736 0.38777 0.0
H565 H 0.52478 0.91799 0.41277 0.0
S566 S 0.67742 0.14061 0.36659 0.0
N567 N 0.69744 0.09412 0.35918 0.0
N568 N 0.61634 0.10575 0.38614 0.0
C569 C 0.61009 0.05346 0.38743 0.0
C570 C 0.65364 0.04713 0.37277 0.0
C571 C 0.99287 0.61616 0.42274 0.0
C572 C 0.01852 0.63779 0.38945 0.0
C573 C 0.98285 0.56348 0.43437 0.0
C574 C 0.99895 0.53144 0.41325 0.0
H575 H 0.97877 0.63914 0.43925 0.0
H576 H 0.96269 0.54793 0.46011 0.0
S577 S 0.07077 0.57171 0.325 0.0
N578 N 0.06205 0.62491 0.33631 0.0
N579 N 0.04359 0.52609 0.35818 0.0
C580 C 0.02615 0.55356 0.38042 0.0
C581 C 0.03585 0.60676 0.36851 0.0
C582 C 0.6027 0.52398 0.68395 0.0
C583 C 0.54987 0.49798 0.66784 0.0
C584 C 0.62405 0.57648 0.70049 0.0
C585 C 0.5924 0.60343 0.70219 0.0
H586 H 0.62619 0.50226 0.68561 0.0
H587 H 0.66341 0.59375 0.71465 0.0
S588 S 0.45553 0.55686 0.65978 0.0
N589 N 0.46954 0.50644 0.65049 0.0
N590 N 0.50936 0.60439 0.6831 0.0
C591 C 0.54166 0.58013 0.68382 0.0
C592 C 0.52046 0.52745 0.66613 0.0
C593 C 0.48926 0.01252 0.6887 0.0
C594 C 0.52732 0.06563 0.67544 0.0
C595 C 0.43241 0.99355 0.68776 0.0
C596 C 0.41165 0.02648 0.67262 0.0
H597 H 0.50366 0.98587 0.70043 0.0
H598 H 0.40454 0.95309 0.6995 0.0
S599 S 0.49514 0.16712 0.63159 0.0
N600 N 0.54142 0.15003 0.64534 0.0
N601 N 0.434 0.11363 0.64215 0.0
C602 C 0.44947 0.07874 0.65771 0.0
C603 C 0.50756 0.09859 0.65954 0.0
C604 C 0.98462 0.39414 0.7143 0.0
C605 C 0.04257 0.42165 0.71142 0.0
C606 C 0.95543 0.42171 0.70535 0.0
C607 C 0.98336 0.47686 0.6923 0.0
H608 H 0.96229 0.35282 0.72618 0.0
H609 H 0.91112 0.40051 0.70978 0.0
S610 S 0.134 0.56374 0.6752 0.0
N611 N 0.12631 0.50459 0.69192 0.0
N612 N 0.07119 0.55592 0.67339 0.0
C613 C 0.04072 0.50297 0.68641 0.0
C614 C 0.0705 0.47542 0.69644 0.0
C615 C 0.11535 0.79647 0.72439 0.0
C616 C 0.12322 0.83451 0.69637 0.0
C617 C 0.06674 0.74435 0.72637 0.0
C618 C 0.02475 0.7288 0.70034 0.0
H619 H 0.1473 0.80643 0.74465 0.0
H620 H 0.06335 0.71501 0.74709 0.0
S621 S 0.02121 0.81429 0.62414 0.0
N622 N 0.08197 0.85389 0.64383 0.0
N623 N 0.99101 0.7559 0.64782 0.0
C624 C 0.03057 0.76718 0.67345 0.0
C625 C 0.07974 0.82009 0.67133 0.0
C626 C 0.28093 0.3494 0.75207 0.0
C627 C 0.23194 0.33403 0.73239 0.0
C628 C 0.32338 0.34265 0.73734 0.0
C629 C 0.31856 0.32115 0.70222 0.0
H630 H 0.28677 0.36726 0.77898 0.0
H631 H 0.36111 0.35656 0.75296 0.0
S632 S 0.19705 0.27014 0.64073 0.0
N633 N 0.17946 0.29262 0.67699 0.0
N634 N 0.25995 0.28079 0.64906 0.0
C635 C 0.26909 0.30366 0.68276 0.0
C636 C 0.22549 0.3098 0.69794 0.0
C637 C 0.62374 0.87689 0.73973 0.0
C638 C 0.66899 0.87046 0.74994 0.0
C639 C 0.63161 0.92868 0.72846 0.0
C640 C 0.68474 0.97595 0.72786 0.0
H641 H 0.58203 0.84128 0.73943 0.0
H642 H 0.59597 0.93159 0.71942 0.0
S643 S 0.81644 0.98268 0.75401 0.0
N644 N 0.76875 0.91633 0.76003 0.0
N645 N 0.78307 0.01463 0.73932 0.0
C646 C 0.73023 0.97099 0.73908 0.0
C647 C 0.72245 0.91783 0.74998 0.0
loop_
_geom_bond_atom_site_label_1
_geom_bond_atom_site_label_2
_geom_bond_distance
_geom_bond_site_symmetry_2
_ccdc_geom_bond_type
Co0 O1 2.216 1_545 S
Co0 O2 2.091 . S
Co0 O4 2.004 . S
Co0 O10 2.021 1_545 S
Co0 O12 2.137 . S
Co0 O13 2.244 . S
O1 Co0 2.216 1_565 S
O1 C8 1.247 1_565 S
O2 Co0 2.091 . S
O2 C8 1.261 . S
C3 O12 1.247 . S
C3 O13 1.272 . S
O4 Co0 2.004 . S
O4 C9 1.259 . S
Co5 O6 2.061 . S
Co5 O11 2.052 1_545 S
Co5 O13 2.135 . S
O6 Co5 2.061 . S
O6 C9 1.235 . S
C7 O10 1.238 . S
C7 O11 1.241 . S
C8 O1 1.247 1_545 S
C8 O2 1.261 . S
C9 O4 1.259 . S
C9 O6 1.235 . S
O10 Co0 2.021 1_565 S
O10 C7 1.238 . S
O11 Co5 2.052 1_565 S
O11 C7 1.241 . S
O12 Co0 2.137 . S
O12 C3 1.247 . S
O13 Co0 2.244 . S
O13 C3 1.272 . S
O13 Co5 2.135 . S
Co14 O15 2.216 . S
Co14 O16 2.091 . S
Co14 O18 2.004 1_655 S
Co14 O24 2.021 . S
Co14 O26 2.137 . S
Co14 O27 2.244 . S
O15 Co14 2.216 . S
O15 C22 1.247 . S
O16 Co14 2.091 . S
O16 C22 1.261 . S
C17 O26 1.247 . S
C17 O27 1.272 . S
O18 Co14 2.004 1_455 S
O18 C23 1.259 . S
Co19 O20 2.061 1_655 S
Co19 O25 2.052 . S
Co19 O27 2.135 1_556 S
O20 Co19 2.061 1_455 S
O20 C23 1.235 1_556 S
C21 O24 1.238 . S
C21 O25 1.241 1_554 S
C22 O15 1.247 . S
C22 O16 1.261 . S
C23 O18 1.259 . S
C23 O20 1.235 1_554 S
O24 Co14 2.021 . S
O24 C21 1.238 . S
O25 Co19 2.052 . S
O25 C21 1.241 1_556 S
O26 Co14 2.137 . S
O26 C17 1.247 . S
O27 Co14 2.244 . S
O27 C17 1.272 . S
O27 Co19 2.135 1_554 S
Co28 O29 2.216 . S
Co28 O30 2.091 . S
Co28 O32 2.004 . S
Co28 O38 2.021 . S
Co28 O40 2.137 . S
Co28 O41 2.244 . S
O29 Co28 2.216 . S
O29 C36 1.247 . S
O30 Co28 2.091 . S
O30 C36 1.261 . S
C31 O40 1.247 . S
C31 O41 1.272 . S
O32 Co28 2.004 . S
O32 C37 1.259 . S
Co33 O34 2.061 . S
Co33 O39 2.052 . S
Co33 O41 2.135 . S
O34 Co33 2.061 . S
O34 C37 1.235 . S
C35 O38 1.238 . S
C35 O39 1.241 . S
C36 O29 1.247 . S
C36 O30 1.261 . S
C37 O32 1.259 . S
C37 O34 1.235 . S
O38 Co28 2.021 . S
O38 C35 1.238 . S
O39 Co33 2.052 . S
O39 C35 1.241 . S
O40 Co28 2.137 . S
O40 C31 1.247 . S
O41 Co28 2.244 . S
O41 C31 1.272 . S
O41 Co33 2.135 . S
Co42 O43 2.216 . S
Co42 O44 2.091 . S
Co42 O46 2.004 1_565 S
Co42 O52 2.021 . S
Co42 O54 2.137 . S
Co42 O55 2.244 . S
O43 Co42 2.216 . S
O43 C50 1.247 . S
O44 Co42 2.091 . S
O44 C50 1.261 . S
C45 O54 1.247 . S
C45 O55 1.272 . S
O46 Co42 2.004 1_545 S
O46 C51 1.259 . S
Co47 O48 2.061 1_565 S
Co47 O53 2.052 . S
Co47 O55 2.135 1_554 S
O48 Co47 2.061 1_545 S
O48 C51 1.235 1_554 S
C49 O52 1.238 . S
C49 O53 1.241 1_556 S
C50 O43 1.247 . S
C50 O44 1.261 . S
C51 O46 1.259 . S
C51 O48 1.235 1_556 S
O52 Co42 2.021 . S
O52 C49 1.238 . S
O53 Co47 2.052 . S
O53 C49 1.241 1_554 S
O54 Co42 2.137 . S
O54 C45 1.247 . S
O55 Co42 2.244 . S
O55 C45 1.272 . S
O55 Co47 2.135 1_556 S
Co56 O57 2.216 . S
Co56 O58 2.091 . S
Co56 O60 2.004 1_455 S
Co56 O66 2.021 . S
Co56 O68 2.137 . S
Co56 O69 2.244 . S
O57 Co56 2.216 . S
O57 C64 1.247 . S
O58 Co56 2.091 . S
O58 C64 1.261 . S
C59 O68 1.247 . S
C59 O69 1.272 . S
O60 Co56 2.004 1_655 S
O60 C65 1.259 . S
Co61 O62 2.061 1_455 S
Co61 O67 2.052 . S
Co61 O69 2.135 1_554 S
O62 Co61 2.061 1_655 S
O62 C65 1.235 1_554 S
C63 O66 1.238 . S
C63 O67 1.241 1_556 S
C64 O57 1.247 . S
C64 O58 1.261 . S
C65 O60 1.259 . S
C65 O62 1.235 1_556 S
O66 Co56 2.021 . S
O66 C63 1.238 . S
O67 Co61 2.052 . S
O67 C63 1.241 1_554 S
O68 Co56 2.137 . S
O68 C59 1.247 . S
O69 Co56 2.244 . S
O69 C59 1.272 . S
O69 Co61 2.135 1_556 S
Co70 O71 2.216 . S
Co70 O72 2.091 . S
Co70 O74 2.004 . S
Co70 O80 2.021 . S
Co70 O82 2.137 . S
Co70 O83 2.244 . S
O71 Co70 2.216 . S
O71 C78 1.247 . S
O72 Co70 2.091 . S
O72 C78 1.261 . S
C73 O82 1.247 . S
C73 O83 1.272 . S
O74 Co70 2.004 . S
O74 C79 1.259 . S
Co75 O76 2.061 . S
Co75 O81 2.052 . S
Co75 O83 2.135 1_554 S
O76 Co75 2.061 . S
O76 C79 1.235 1_554 S
C77 O80 1.238 . S
C77 O81 1.241 1_556 S
C78 O71 1.247 . S
C78 O72 1.261 . S
C79 O74 1.259 . S
C79 O76 1.235 1_556 S
O80 Co70 2.021 . S
O80 C77 1.238 . S
O81 Co75 2.052 . S
O81 C77 1.241 1_554 S
O82 Co70 2.137 . S
O82 C73 1.247 . S
O83 Co70 2.244 . S
O83 C73 1.272 . S
O83 Co75 2.135 1_556 S
Co84 O85 2.216 . S
Co84 O86 2.091 . S
Co84 O88 2.004 . S
Co84 O94 2.021 1_455 S
Co84 O96 2.137 . S
Co84 O97 2.244 1_455 S
O85 Co84 2.216 . S
O85 C92 1.247 . S
O86 Co84 2.091 . S
O86 C92 1.261 . S
C87 O96 1.247 . S
C87 O97 1.272 1_455 S
O88 Co84 2.004 . S
O88 C93 1.259 1_455 S
Co89 O90 2.061 . S
Co89 O95 2.052 . S
Co89 O97 2.135 . S
O90 Co89 2.061 . S
O90 C93 1.235 . S
C91 O94 1.238 . S
C91 O95 1.241 . S
C92 O85 1.247 . S
C92 O86 1.261 . S
C93 O88 1.259 1_655 S
C93 O90 1.235 . S
O94 Co84 2.021 1_655 S
O94 C91 1.238 . S
O95 Co89 2.052 . S
O95 C91 1.241 . S
O96 Co84 2.137 . S
O96 C87 1.247 . S
O97 Co84 2.244 1_655 S
O97 C87 1.272 1_655 S
O97 Co89 2.135 . S
Co98 O99 2.216 . S
Co98 O100 2.091 . S
Co98 O102 2.004 . S
Co98 O108 2.021 . S
Co98 O110 2.137 . S
Co98 O111 2.244 . S
O99 Co98 2.216 . S
O99 C106 1.247 . S
O100 Co98 2.091 . S
O100 C106 1.261 . S
C101 O110 1.247 . S
C101 O111 1.272 . S
O102 Co98 2.004 . S
O102 C107 1.259 . S
Co103 O104 2.061 . S
Co103 O109 2.052 . S
Co103 O111 2.135 . S
O104 Co103 2.061 . S
O104 C107 1.235 . S
C105 O108 1.238 . S
C105 O109 1.241 . S
C106 O99 1.247 . S
C106 O100 1.261 . S
C107 O102 1.259 . S
C107 O104 1.235 . S
O108 Co98 2.021 . S
O108 C105 1.238 . S
O109 Co103 2.052 . S
O109 C105 1.241 . S
O110 Co98 2.137 . S
O110 C101 1.247 . S
O111 Co98 2.244 . S
O111 C101 1.272 . S
O111 Co103 2.135 . S
Co112 O113 2.216 . S
Co112 O114 2.091 . S
Co112 O116 2.004 . S
Co112 O122 2.021 1_565 S
Co112 O124 2.137 . S
Co112 O125 2.244 1_565 S
O113 Co112 2.216 . S
O113 C120 1.247 . S
O114 Co112 2.091 . S
O114 C120 1.261 . S
C115 O124 1.247 . S
C115 O125 1.272 1_565 S
O116 Co112 2.004 . S
O116 C121 1.259 1_565 S
Co117 O118 2.061 . S
Co117 O123 2.052 . S
Co117 O125 2.135 . S
O118 Co117 2.061 . S
O118 C121 1.235 . S
C119 O122 1.238 . S
C119 O123 1.241 . S
C120 O113 1.247 . S
C120 O114 1.261 . S
C121 O116 1.259 1_545 S
C121 O118 1.235 . S
O122 Co112 2.021 1_545 S
O122 C119 1.238 . S
O123 Co117 2.052 . S
O123 C119 1.241 . S
O124 Co112 2.137 . S
O124 C115 1.247 . S
O125 Co112 2.244 1_545 S
O125 C115 1.272 1_545 S
O125 Co117 2.135 . S
Co126 O127 2.216 . S
Co126 O128 2.091 . S
Co126 O130 2.004 . S
Co126 O136 2.021 . S
Co126 O138 2.137 . S
Co126 O139 2.244 . S
O127 Co126 2.216 . S
O127 C134 1.247 . S
O128 Co126 2.091 . S
O128 C134 1.261 . S
C129 O138 1.247 . S
C129 O139 1.272 . S
O130 Co126 2.004 . S
O130 C135 1.259 . S
Co131 O132 2.061 . S
Co131 O137 2.052 . S
Co131 O139 2.135 . S
O132 Co131 2.061 . S
O132 C135 1.235 . S
C133 O136 1.238 . S
C133 O137 1.241 . S
C134 O127 1.247 . S
C134 O128 1.261 . S
C135 O130 1.259 . S
C135 O132 1.235 . S
O136 Co126 2.021 . S
O136 C133 1.238 . S
O137 Co131 2.052 . S
O137 C133 1.241 . S
O138 Co126 2.137 . S
O138 C129 1.247 . S
O139 Co126 2.244 . S
O139 C129 1.272 . S
O139 Co131 2.135 . S
Co140 O141 2.216 . S
Co140 O142 2.091 . S
Co140 O144 2.004 . S
Co140 O150 2.021 . S
Co140 O152 2.137 1_545 S
Co140 O153 2.244 1_545 S
O141 Co140 2.216 . S
O141 C148 1.247 . S
O142 Co140 2.091 . S
O142 C148 1.261 . S
C143 O152 1.247 . S
C143 O153 1.272 . S
O144 Co140 2.004 . S
O144 C149 1.259 . S
Co145 O146 2.061 . S
Co145 O151 2.052 . S
Co145 O153 2.135 1_545 S
O146 Co145 2.061 . S
O146 C149 1.235 . S
C147 O150 1.238 . S
C147 O151 1.241 . S
C148 O141 1.247 . S
C148 O142 1.261 . S
C149 O144 1.259 . S
C149 O146 1.235 . S
O150 Co140 2.021 . S
O150 C147 1.238 . S
O151 Co145 2.052 . S
O151 C147 1.241 . S
O152 Co140 2.137 1_565 S
O152 C143 1.247 . S
O153 Co140 2.244 1_565 S
O153 C143 1.272 . S
O153 Co145 2.135 1_565 S
Co154 O155 2.216 . S
Co154 O156 2.091 . S
Co154 O158 2.004 . S
Co154 O164 2.021 . S
Co154 O166 2.137 1_655 S
Co154 O167 2.244 . S
O155 Co154 2.216 . S
O155 C162 1.247 . S
O156 Co154 2.091 . S
O156 C162 1.261 . S
C157 O166 1.247 . S
C157 O167 1.272 1_455 S
O158 Co154 2.004 . S
O158 C163 1.259 . S
Co159 O160 2.061 . S
Co159 O165 2.052 . S
Co159 O167 2.135 . S
O160 Co159 2.061 . S
O160 C163 1.235 . S
C161 O164 1.238 . S
C161 O165 1.241 . S
C162 O155 1.247 . S
C162 O156 1.261 . S
C163 O158 1.259 . S
C163 O160 1.235 . S
O164 Co154 2.021 . S
O164 C161 1.238 . S
O165 Co159 2.052 . S
O165 C161 1.241 . S
O166 Co154 2.137 1_455 S
O166 C157 1.247 . S
O167 Co154 2.244 . S
O167 C157 1.272 1_655 S
O167 Co159 2.135 . S
Co168 O169 2.216 . S
Co168 O170 2.091 . S
Co168 O172 2.004 . S
Co168 O178 2.021 . S
Co168 O180 2.137 . S
Co168 O181 2.244 . S
O169 Co168 2.216 . S
O169 C176 1.247 . S
O170 Co168 2.091 . S
O170 C176 1.261 . S
C171 O180 1.247 . S
C171 O181 1.272 . S
O172 Co168 2.004 . S
O172 C177 1.259 . S
Co173 O174 2.061 . S
Co173 O179 2.052 . S
Co173 O181 2.135 . S
O174 Co173 2.061 . S
O174 C177 1.235 . S
C175 O178 1.238 . S
C175 O179 1.241 . S
C176 O169 1.247 . S
C176 O170 1.261 . S
C177 O172 1.259 . S
C177 O174 1.235 . S
O178 Co168 2.021 . S
O178 C175 1.238 . S
O179 Co173 2.052 . S
O179 C175 1.241 . S
O180 Co168 2.137 . S
O180 C171 1.247 . S
O181 Co168 2.244 . S
O181 C171 1.272 . S
O181 Co173 2.135 . S
Co182 O183 2.216 . S
Co182 O184 2.091 . S
Co182 O186 2.004 . S
Co182 O192 2.021 . S
Co182 O194 2.137 1_565 S
Co182 O195 2.244 1_565 S
O183 Co182 2.216 . S
O183 C190 1.247 . S
O184 Co182 2.091 . S
O184 C190 1.261 . S
C185 O194 1.247 . S
C185 O195 1.272 . S
O186 Co182 2.004 . S
O186 C191 1.259 . S
Co187 O188 2.061 . S
Co187 O193 2.052 . S
Co187 O195 2.135 1_565 S
O188 Co187 2.061 . S
O188 C191 1.235 . S
C189 O192 1.238 . S
C189 O193 1.241 . S
C190 O183 1.247 . S
C190 O184 1.261 . S
C191 O186 1.259 . S
C191 O188 1.235 . S
O192 Co182 2.021 . S
O192 C189 1.238 . S
O193 Co187 2.052 . S
O193 C189 1.241 . S
O194 Co182 2.137 1_545 S
O194 C185 1.247 . S
O195 Co182 2.244 1_545 S
O195 C185 1.272 . S
O195 Co187 2.135 1_545 S
Co196 O197 2.216 1_455 S
Co196 O198 2.091 1_455 S
Co196 O200 2.004 . S
Co196 O206 2.021 . S
Co196 O208 2.137 . S
Co196 O209 2.244 . S
O197 Co196 2.216 1_655 S
O197 C204 1.247 . S
O198 Co196 2.091 1_655 S
O198 C204 1.261 . S
C199 O208 1.247 . S
C199 O209 1.272 . S
O200 Co196 2.004 . S
O200 C205 1.259 . S
Co201 O202 2.061 . S
Co201 O207 2.052 . S
Co201 O209 2.135 . S
O202 Co201 2.061 . S
O202 C205 1.235 . S
C203 O206 1.238 . S
C203 O207 1.241 . S
C204 O197 1.247 . S
C204 O198 1.261 . S
C205 O200 1.259 . S
C205 O202 1.235 . S
O206 Co196 2.021 . S
O206 C203 1.238 . S
O207 Co201 2.052 . S
O207 C203 1.241 . S
O208 Co196 2.137 . S
O208 C199 1.247 . S
O209 Co196 2.244 . S
O209 C199 1.272 . S
O209 Co201 2.135 . S
Co210 O211 2.211 1_455 S
Co210 O212 2.098 . S
Co210 O214 2.012 . S
Co210 O220 2.036 . S
Co210 O222 2.118 1_455 S
Co210 O223 2.229 1_455 S
O211 Co210 2.211 1_655 S
O211 C218 1.247 . S
O212 Co210 2.098 . S
O212 C218 1.261 1_455 S
C213 O222 1.247 . S
C213 O223 1.272 . S
O214 Co210 2.012 . S
O214 C219 1.259 . S
Co215 O216 2.061 1_655 S
Co215 O221 2.052 . S
Co215 O223 2.135 . S
O216 Co215 2.061 1_455 S
O216 C219 1.235 . S
C217 O220 1.238 . S
C217 O221 1.241 1_455 S
C218 O211 1.247 . S
C218 O212 1.261 1_655 S
C219 O214 1.259 . S
C219 O216 1.235 . S
O220 Co210 2.036 . S
O220 C217 1.238 . S
O221 Co215 2.052 . S
O221 C217 1.241 1_655 S
O222 Co210 2.118 1_655 S
O222 C213 1.247 . S
O223 Co210 2.229 1_655 S
O223 C213 1.272 . S
O223 Co215 2.135 . S
Co224 O225 2.216 . S
Co224 O226 2.091 . S
Co224 O228 2.004 . S
Co224 O234 2.021 . S
Co224 O236 2.137 . S
Co224 O237 2.244 . S
O225 Co224 2.216 . S
O225 C232 1.247 . S
O226 Co224 2.091 . S
O226 C232 1.261 . S
C227 O236 1.247 . S
C227 O237 1.272 . S
O228 Co224 2.004 . S
O228 C233 1.259 . S
Co229 O230 2.061 . S
Co229 O235 2.052 . S
Co229 O237 2.135 . S
O230 Co229 2.061 . S
O230 C233 1.235 . S
C231 O234 1.238 . S
C231 O235 1.241 . S
C232 O225 1.247 . S
C232 O226 1.261 . S
C233 O228 1.259 . S
C233 O230 1.235 . S
O234 Co224 2.021 . S
O234 C231 1.238 . S
O235 Co229 2.052 . S
O235 C231 1.241 . S
O236 Co224 2.137 . S
O236 C227 1.247 . S
O237 Co224 2.244 . S
O237 C227 1.272 . S
O237 Co229 2.135 . S
Co238 O239 2.216 1_565 S
Co238 O240 2.091 . S
Co238 O242 2.004 . S
Co238 O248 2.021 . S
Co238 O250 2.137 1_565 S
Co238 O251 2.244 1_565 S
O239 Co238 2.216 1_545 S
O239 C246 1.247 . S
O240 Co238 2.091 . S
O240 C246 1.261 1_565 S
C241 O250 1.247 . S
C241 O251 1.272 . S
O242 Co238 2.004 . S
O242 C247 1.259 . S
Co243 O244 2.061 1_545 S
Co243 O249 2.052 . S
Co243 O251 2.135 . S
O244 Co243 2.061 1_565 S
O244 C247 1.235 . S
C245 O248 1.238 . S
C245 O249 1.241 1_565 S
C246 O239 1.247 . S
C246 O240 1.261 1_545 S
C247 O242 1.259 . S
C247 O244 1.235 . S
O248 Co238 2.021 . S
O248 C245 1.238 . S
O249 Co243 2.052 . S
O249 C245 1.241 1_545 S
O250 Co238 2.137 1_545 S
O250 C241 1.247 . S
O251 Co238 2.244 1_545 S
O251 C241 1.272 . S
O251 Co243 2.135 . S
C252 C253 1.369 1_565 S
C252 C254 1.419 . S
C252 H256 0.930 . S
C253 C252 1.369 1_545 S
C253 C262 1.429 1_554 S
C254 C252 1.419 . S
C254 C255 1.363 1_554 S
C254 H257 0.929 . S
C255 C254 1.363 1_556 S
C255 C261 1.428 1_565 S
H256 C252 0.930 . S
H257 C254 0.929 . S
S258 N259 1.613 . S
S258 N260 1.610 . S
N259 S258 1.613 . S
N259 C262 1.350 . S
N260 S258 1.610 . S
N260 C261 1.351 . S
C261 C255 1.428 1_545 S
C261 N260 1.351 . S
C261 C262 1.434 . S
C262 C253 1.429 1_556 S
C262 N259 1.350 . S
C262 C261 1.434 . S
C263 C264 1.369 . S
C263 C265 1.419 . S
C263 H267 0.930 . S
C264 C263 1.369 . S
C264 C273 1.429 1_654 S
C265 C263 1.419 . S
C265 C266 1.363 1_654 S
C265 H268 0.929 . S
C266 C265 1.363 1_456 S
C266 C272 1.428 . S
H267 C263 0.930 . S
H268 C265 0.929 . S
S269 N270 1.613 . S
S269 N271 1.610 . S
N270 S269 1.613 . S
N270 C273 1.350 . S
N271 S269 1.610 . S
N271 C272 1.351 . S
C272 C266 1.428 . S
C272 N271 1.351 . S
C272 C273 1.434 . S
C273 C264 1.429 1_456 S
C273 N270 1.350 . S
C273 C272 1.434 . S
C274 C275 1.369 . S
C274 C276 1.419 1_556 S
C274 H278 0.930 . S
C275 C274 1.369 . S
C275 C284 1.429 . S
C276 C274 1.419 1_554 S
C276 C277 1.363 . S
C276 H279 0.929 . S
C277 C276 1.363 . S
C277 C283 1.428 1_554 S
H278 C274 0.930 . S
H279 C276 0.929 . S
S280 N281 1.613 . S
S280 N282 1.610 . S
N281 S280 1.613 . S
N281 C284 1.350 . S
N282 S280 1.610 . S
N282 C283 1.351 . S
C283 C277 1.428 1_556 S
C283 N282 1.351 . S
C283 C284 1.434 . S
C284 C275 1.429 . S
C284 N281 1.350 . S
C284 C283 1.434 . S
C285 C286 1.369 . S
C285 C287 1.419 . S
C285 H289 0.930 . S
C286 C285 1.369 . S
C286 C295 1.429 . S
C287 C285 1.419 . S
C287 C288 1.363 . S
C287 H290 0.929 . S
C288 C287 1.363 . S
C288 C294 1.428 . S
H289 C285 0.930 . S
H290 C287 0.929 . S
S291 N292 1.613 . S
S291 N293 1.610 . S
N292 S291 1.613 . S
N292 C295 1.350 . S
N293 S291 1.610 . S
N293 C294 1.351 . S
C294 C288 1.428 . S
C294 N293 1.351 . S
C294 C295 1.434 . S
C295 C286 1.429 . S
C295 N292 1.350 . S
C295 C294 1.434 . S
C296 C297 1.369 . S
C296 C298 1.419 . S
C296 H300 0.930 . S
C297 C296 1.369 . S
C297 C306 1.429 . S
C298 C296 1.419 . S
C298 C299 1.363 . S
C298 H301 0.929 . S
C299 C298 1.363 . S
C299 C305 1.428 . S
H300 C296 0.930 . S
H301 C298 0.929 . S
S302 N303 1.613 . S
S302 N304 1.610 . S
N303 S302 1.613 . S
N303 C306 1.350 . S
N304 S302 1.610 . S
N304 C305 1.351 . S
C305 C299 1.428 . S
C305 N304 1.351 . S
C305 C306 1.434 . S
C306 C297 1.429 . S
C306 N303 1.350 . S
C306 C305 1.434 . S
C307 C308 1.369 . S
C307 C309 1.419 . S
C307 H311 0.930 . S
C308 C307 1.369 . S
C308 C317 1.429 . S
C309 C307 1.419 . S
C309 C310 1.363 . S
C309 H312 0.929 . S
C310 C309 1.363 . S
C310 C316 1.428 . S
H311 C307 0.930 . S
H312 C309 0.929 . S
S313 N314 1.613 . S
S313 N315 1.610 . S
N314 S313 1.613 . S
N314 C317 1.350 . S
N315 S313 1.610 . S
N315 C316 1.351 . S
C316 C310 1.428 . S
C316 N315 1.351 . S
C316 C317 1.434 . S
C317 C308 1.429 . S
C317 N314 1.350 . S
C317 C316 1.434 . S
C318 C319 1.369 . S
C318 C320 1.419 . S
C318 H322 0.930 . S
C319 C318 1.369 . S
C319 C328 1.429 . S
C320 C318 1.419 . S
C320 C321 1.363 . S
C320 H323 0.929 . S
C321 C320 1.363 . S
C321 C327 1.428 . S
H322 C318 0.930 . S
H323 C320 0.929 . S
S324 N325 1.613 . S
S324 N326 1.610 . S
N325 S324 1.613 . S
N325 C328 1.350 . S
N326 S324 1.610 . S
N326 C327 1.351 . S
C327 C321 1.428 . S
C327 N326 1.351 . S
C327 C328 1.434 . S
C328 C319 1.429 . S
C328 N325 1.350 . S
C328 C327 1.434 . S
C329 C330 1.369 . S
C329 C331 1.419 . S
C329 H333 0.930 . S
C330 C329 1.369 . S
C330 C339 1.429 . S
C331 C329 1.419 . S
C331 C332 1.363 . S
C331 H334 0.929 . S
C332 C331 1.363 . S
C332 C338 1.428 . S
H333 C329 0.930 . S
H334 C331 0.929 . S
S335 N336 1.613 . S
S335 N337 1.610 . S
N336 S335 1.613 . S
N336 C339 1.350 . S
N337 S335 1.610 . S
N337 C338 1.351 . S
C338 C332 1.428 . S
C338 N337 1.351 . S
C338 C339 1.434 . S
C339 C330 1.429 . S
C339 N336 1.350 . S
C339 C338 1.434 . S
C340 C341 1.369 . S
C340 C342 1.419 . S
C340 H344 0.930 . S
C341 C340 1.369 . S
C341 C350 1.429 . S
C342 C340 1.419 . S
C342 C343 1.363 . S
C342 H345 0.929 . S
C343 C342 1.363 . S
C343 C349 1.428 . S
H344 C340 0.930 . S
H345 C342 0.929 . S
S346 N347 1.613 . S
S346 N348 1.610 . S
N347 S346 1.613 . S
N347 C350 1.350 . S
N348 S346 1.610 . S
N348 C349 1.351 . S
C349 C343 1.428 . S
C349 N348 1.351 . S
C349 C350 1.434 . S
C350 C341 1.429 . S
C350 N347 1.350 . S
C350 C349 1.434 . S
C351 C352 1.369 . S
C351 C353 1.419 . S
C351 H355 0.930 . S
C352 C351 1.369 . S
C352 C361 1.429 . S
C353 C351 1.419 . S
C353 C354 1.363 . S
C353 H356 0.929 . S
C354 C353 1.363 . S
C354 C360 1.428 . S
H355 C351 0.930 . S
H356 C353 0.929 . S
S357 N358 1.613 . S
S357 N359 1.610 . S
N358 S357 1.613 . S
N358 C361 1.350 . S
N359 S357 1.610 . S
N359 C360 1.351 . S
C360 C354 1.428 . S
C360 N359 1.351 . S
C360 C361 1.434 . S
C361 C352 1.429 . S
C361 N358 1.350 . S
C361 C360 1.434 . S
C362 C363 1.369 . S
C362 C364 1.419 . S
C362 H366 0.930 . S
C363 C362 1.369 . S
C363 C372 1.429 . S
C364 C362 1.419 . S
C364 C365 1.363 . S
C364 H367 0.929 . S
C365 C364 1.363 . S
C365 C371 1.428 . S
H366 C362 0.930 . S
H367 C364 0.929 . S
S368 N369 1.613 . S
S368 N370 1.610 . S
N369 S368 1.613 . S
N369 C372 1.350 . S
N370 S368 1.610 . S
N370 C371 1.351 . S
C371 C365 1.428 . S
C371 N370 1.351 . S
C371 C372 1.434 . S
C372 C363 1.429 . S
C372 N369 1.350 . S
C372 C371 1.434 . S
C373 C374 1.369 . S
C373 C375 1.419 . S
C373 H377 0.930 . S
C374 C373 1.369 . S
C374 C383 1.429 . S
C375 C373 1.419 . S
C375 C376 1.363 . S
C375 H378 0.929 . S
C376 C375 1.363 . S
C376 C382 1.428 . S
H377 C373 0.930 . S
H378 C375 0.929 . S
S379 N380 1.613 . S
S379 N381 1.610 . S
N380 S379 1.613 . S
N380 C383 1.350 . S
N381 S379 1.610 . S
N381 C382 1.351 . S
C382 C376 1.428 . S
C382 N381 1.351 . S
C382 C383 1.434 . S
C383 C374 1.429 . S
C383 N380 1.350 . S
C383 C382 1.434 . S
C384 C385 1.369 . S
C384 C386 1.419 . S
C384 H388 0.930 . S
C385 C384 1.369 . S
C385 C394 1.429 . S
C386 C384 1.419 . S
C386 C387 1.363 . S
C386 H389 0.929 . S
C387 C386 1.363 . S
C387 C393 1.428 . S
H388 C384 0.930 . S
H389 C386 0.929 . S
S390 N391 1.613 . S
S390 N392 1.610 . S
N391 S390 1.613 . S
N391 C394 1.350 . S
N392 S390 1.610 . S
N392 C393 1.351 . S
C393 C387 1.428 . S
C393 N392 1.351 . S
C393 C394 1.434 . S
C394 C385 1.429 . S
C394 N391 1.350 . S
C394 C393 1.434 . S
C395 C396 1.369 . S
C395 C397 1.419 . S
C395 H399 0.930 . S
C396 C395 1.369 . S
C396 C405 1.429 . S
C397 C395 1.419 . S
C397 C398 1.363 . S
C397 H400 0.929 . S
C398 C397 1.363 . S
C398 C404 1.428 . S
H399 C395 0.930 . S
H400 C397 0.929 . S
S401 N402 1.613 . S
S401 N403 1.610 . S
N402 S401 1.613 . S
N402 C405 1.350 . S
N403 S401 1.610 . S
N403 C404 1.351 . S
C404 C398 1.428 . S
C404 N403 1.351 . S
C404 C405 1.434 . S
C405 C396 1.429 . S
C405 N402 1.350 . S
C405 C404 1.434 . S
C406 C407 1.369 . S
C406 C408 1.419 . S
C406 H410 0.930 . S
C407 C406 1.369 . S
C407 C416 1.429 . S
C408 C406 1.419 . S
C408 C409 1.363 . S
C408 H411 0.929 . S
C409 C408 1.363 . S
C409 C415 1.428 . S
H410 C406 0.930 . S
H411 C408 0.929 . S
S412 N413 1.613 . S
S412 N414 1.610 . S
N413 S412 1.613 . S
N413 C416 1.350 . S
N414 S412 1.610 . S
N414 C415 1.351 . S
C415 C409 1.428 . S
C415 N414 1.351 . S
C415 C416 1.434 . S
C416 C407 1.429 . S
C416 N413 1.350 . S
C416 C415 1.434 . S
C417 C418 1.369 . S
C417 C419 1.419 . S
C417 H421 0.930 . S
C418 C417 1.369 . S
C418 C427 1.429 1_455 S
C419 C417 1.419 . S
C419 C420 1.363 1_455 S
C419 H422 0.929 . S
C420 C419 1.363 1_655 S
C420 C426 1.428 . S
H421 C417 0.930 . S
H422 C419 0.929 . S
S423 N424 1.613 . S
S423 N425 1.610 . S
N424 S423 1.613 . S
N424 C427 1.350 . S
N425 S423 1.610 . S
N425 C426 1.351 . S
C426 C420 1.428 . S
C426 N425 1.351 . S
C426 C427 1.434 . S
C427 C418 1.429 1_655 S
C427 N424 1.350 . S
C427 C426 1.434 . S
C428 C429 1.369 . S
C428 C430 1.419 . S
C428 H432 0.930 . S
C429 C428 1.369 . S
C429 C438 1.429 . S
C430 C428 1.419 . S
C430 C431 1.363 . S
C430 H433 0.929 . S
C431 C430 1.363 . S
C431 C437 1.428 . S
H432 C428 0.930 . S
H433 C430 0.929 . S
S434 N435 1.613 . S
S434 N436 1.610 . S
N435 S434 1.613 . S
N435 C438 1.350 . S
N436 S434 1.610 . S
N436 C437 1.351 . S
C437 C431 1.428 . S
C437 N436 1.351 . S
C437 C438 1.434 . S
C438 C429 1.429 . S
C438 N435 1.350 . S
C438 C437 1.434 . S
C439 C440 1.369 . S
C439 C441 1.418 . S
C439 H443 0.930 . S
C440 C439 1.369 . S
C440 C449 1.429 . S
C441 C439 1.418 . S
C441 C442 1.364 1_545 S
C441 H444 0.929 1_545 S
C442 C441 1.364 1_565 S
C442 C448 1.428 . S
H443 C439 0.930 . S
H444 C441 0.929 1_565 S
S445 N446 1.613 1_565 S
S445 N447 1.610 . S
N446 S445 1.613 1_545 S
N446 C449 1.350 . S
N447 S445 1.610 . S
N447 C448 1.351 . S
C448 C442 1.428 . S
C448 N447 1.351 . S
C448 C449 1.434 1_565 S
C449 C440 1.429 . S
C449 N446 1.350 . S
C449 C448 1.434 1_545 S
C450 C451 1.369 1_556 S
C450 C452 1.419 . S
C450 H454 0.930 . S
C451 C450 1.369 1_554 S
C451 C460 1.429 . S
C452 C450 1.419 . S
C452 C453 1.363 . S
C452 H455 0.929 . S
C453 C452 1.363 . S
C453 C459 1.428 1_556 S
H454 C450 0.930 . S
H455 C452 0.929 . S
S456 N457 1.613 . S
S456 N458 1.610 . S
N457 S456 1.613 . S
N457 C460 1.350 . S
N458 S456 1.610 . S
N458 C459 1.351 . S
C459 C453 1.428 1_554 S
C459 N458 1.351 . S
C459 C460 1.434 . S
C460 C451 1.429 . S
C460 N457 1.350 . S
C460 C459 1.434 . S
C461 C462 1.369 . S
C461 C463 1.419 1_554 S
C461 H465 0.930 . S
C462 C461 1.369 . S
C462 C471 1.429 . S
C463 C461 1.419 1_556 S
C463 C464 1.363 . S
C463 H466 0.929 . S
C464 C463 1.363 . S
C464 C470 1.428 . S
H465 C461 0.930 . S
H466 C463 0.929 . S
S467 N468 1.625 . S
S467 N469 1.601 1_554 S
N468 S467 1.625 . S
N468 C471 1.350 . S
N469 S467 1.601 1_556 S
N469 C470 1.351 . S
C470 C464 1.428 . S
C470 N469 1.351 . S
C470 C471 1.434 1_556 S
C471 C462 1.429 . S
C471 N468 1.350 . S
C471 C470 1.434 1_554 S
C472 C473 1.369 . S
C472 C474 1.419 . S
C472 H476 0.930 . S
C473 C472 1.369 . S
C473 C482 1.429 1_554 S
C474 C472 1.419 . S
C474 C475 1.363 1_554 S
C474 H477 0.929 . S
C475 C474 1.363 1_556 S
C475 C481 1.428 . S
H476 C472 0.930 . S
H477 C474 0.929 . S
S478 N479 1.613 . S
S478 N480 1.610 . S
N479 S478 1.613 . S
N479 C482 1.350 . S
N480 S478 1.610 . S
N480 C481 1.351 . S
C481 C475 1.428 . S
C481 N480 1.351 . S
C481 C482 1.434 . S
C482 C473 1.429 1_556 S
C482 N479 1.350 . S
C482 C481 1.434 . S
C483 C484 1.369 . S
C483 C485 1.419 . S
C483 H487 0.930 . S
C484 C483 1.369 . S
C484 C493 1.429 1_556 S
C485 C483 1.419 . S
C485 C486 1.363 1_556 S
C485 H488 0.929 . S
C486 C485 1.363 1_554 S
C486 C492 1.428 . S
H487 C483 0.930 . S
H488 C485 0.929 . S
S489 N490 1.613 . S
S489 N491 1.610 . S
N490 S489 1.613 . S
N490 C493 1.350 . S
N491 S489 1.610 . S
N491 C492 1.351 . S
C492 C486 1.428 . S
C492 N491 1.351 . S
C492 C493 1.434 . S
C493 C484 1.429 1_554 S
C493 N490 1.350 . S
C493 C492 1.434 . S
C494 C495 1.369 1_556 S
C494 C496 1.419 . S
C494 H498 0.930 . S
C495 C494 1.369 1_554 S
C495 C504 1.429 . S
C496 C494 1.419 . S
C496 C497 1.363 . S
C496 H499 0.929 . S
C497 C496 1.363 . S
C497 C503 1.428 1_556 S
H498 C494 0.930 . S
H499 C496 0.929 . S
S500 N501 1.613 . S
S500 N502 1.610 . S
N501 S500 1.613 . S
N501 C504 1.350 . S
N502 S500 1.610 . S
N502 C503 1.351 . S
C503 C497 1.428 1_554 S
C503 N502 1.351 . S
C503 C504 1.434 . S
C504 C495 1.429 . S
C504 N501 1.350 . S
C504 C503 1.434 . S
C505 C506 1.369 . S
C505 C507 1.419 . S
C505 H509 0.930 . S
C506 C505 1.369 . S
C506 C515 1.429 . S
C507 C505 1.419 . S
C507 C508 1.363 1_556 S
C507 H510 0.929 . S
C508 C507 1.363 1_554 S
C508 C514 1.428 . S
H509 C505 0.930 . S
H510 C507 0.929 . S
S511 N512 1.613 1_554 S
S511 N513 1.610 . S
N512 S511 1.613 1_556 S
N512 C515 1.350 . S
N513 S511 1.610 . S
N513 C514 1.351 . S
C514 C508 1.428 . S
C514 N513 1.351 . S
C514 C515 1.434 1_554 S
C515 C506 1.429 . S
C515 N512 1.350 . S
C515 C514 1.434 1_556 S
C516 C517 1.369 . S
C516 C518 1.419 . S
C516 H520 0.930 . S
C517 C516 1.369 . S
C517 C526 1.429 . S
C518 C516 1.419 . S
C518 C519 1.363 . S
C518 H521 0.929 . S
C519 C518 1.363 . S
C519 C525 1.428 . S
H520 C516 0.930 . S
H521 C518 0.929 . S
S522 N523 1.613 . S
S522 N524 1.610 . S
N523 S522 1.613 . S
N523 C526 1.350 . S
N524 S522 1.610 . S
N524 C525 1.351 . S
C525 C519 1.428 . S
C525 N524 1.351 . S
C525 C526 1.434 . S
C526 C517 1.429 . S
C526 N523 1.350 . S
C526 C525 1.434 . S
C527 C528 1.369 . S
C527 C529 1.419 . S
C527 H531 0.930 . S
C528 C527 1.369 . S
C528 C537 1.429 . S
C529 C527 1.419 . S
C529 C530 1.363 . S
C529 H532 0.929 . S
C530 C529 1.363 . S
C530 C536 1.428 . S
H531 C527 0.930 . S
H532 C529 0.929 . S
S533 N534 1.613 . S
S533 N535 1.610 . S
N534 S533 1.613 . S
N534 C537 1.350 . S
N535 S533 1.610 . S
N535 C536 1.351 . S
C536 C530 1.428 . S
C536 N535 1.351 . S
C536 C537 1.434 . S
C537 C528 1.429 . S
C537 N534 1.350 . S
C537 C536 1.434 . S
C538 C539 1.369 . S
C538 C540 1.419 . S
C538 H542 0.930 . S
C539 C538 1.369 . S
C539 C548 1.429 . S
C540 C538 1.419 . S
C540 C541 1.363 . S
C540 H543 0.929 . S
C541 C540 1.363 . S
C541 C547 1.428 . S
H542 C538 0.930 . S
H543 C540 0.929 . S
S544 N545 1.613 . S
S544 N546 1.610 . S
N545 S544 1.613 . S
N545 C548 1.350 . S
N546 S544 1.610 . S
N546 C547 1.351 . S
C547 C541 1.428 . S
C547 N546 1.351 . S
C547 C548 1.434 . S
C548 C539 1.429 . S
C548 N545 1.350 . S
C548 C547 1.434 . S
C549 C550 1.369 . S
C549 C551 1.419 . S
C549 H553 0.930 . S
C550 C549 1.369 . S
C550 C559 1.429 . S
C551 C549 1.419 . S
C551 C552 1.363 . S
C551 H554 0.929 . S
C552 C551 1.363 . S
C552 C558 1.428 . S
H553 C549 0.930 . S
H554 C551 0.929 . S
S555 N556 1.613 . S
S555 N557 1.610 . S
N556 S555 1.613 . S
N556 C559 1.350 . S
N557 S555 1.610 . S
N557 C558 1.351 . S
C558 C552 1.428 . S
C558 N557 1.351 . S
C558 C559 1.434 . S
C559 C550 1.429 . S
C559 N556 1.350 . S
C559 C558 1.434 . S
C560 C561 1.369 1_565 S
C560 C562 1.419 . S
C560 H564 0.930 . S
C561 C560 1.369 1_545 S
C561 C570 1.429 . S
C562 C560 1.419 . S
C562 C563 1.363 1_565 S
C562 H565 0.929 . S
C563 C562 1.363 1_545 S
C563 C569 1.428 . S
H564 C560 0.930 . S
H565 C562 0.929 . S
S566 N567 1.613 . S
S566 N568 1.610 . S
N567 S566 1.613 . S
N567 C570 1.350 . S
N568 S566 1.610 . S
N568 C569 1.351 . S
C569 C563 1.428 . S
C569 N568 1.351 . S
C569 C570 1.434 . S
C570 C561 1.429 . S
C570 N567 1.350 . S
C570 C569 1.434 . S
C571 C572 1.369 . S
C571 C573 1.419 . S
C571 H575 0.930 . S
C572 C571 1.369 . S
C572 C581 1.429 . S
C573 C571 1.419 . S
C573 C574 1.363 . S
C573 H576 0.929 . S
C574 C573 1.363 . S
C574 C580 1.428 . S
H575 C571 0.930 . S
H576 C573 0.929 . S
S577 N578 1.613 . S
S577 N579 1.610 . S
N578 S577 1.613 . S
N578 C581 1.350 . S
N579 S577 1.610 . S
N579 C580 1.351 . S
C580 C574 1.428 . S
C580 N579 1.351 . S
C580 C581 1.434 . S
C581 C572 1.429 . S
C581 N578 1.350 . S
C581 C580 1.434 . S
C582 C583 1.369 . S
C582 C584 1.419 . S
C582 H586 0.930 . S
C583 C582 1.369 . S
C583 C592 1.429 . S
C584 C582 1.419 . S
C584 C585 1.363 . S
C584 H587 0.929 . S
C585 C584 1.363 . S
C585 C591 1.428 . S
H586 C582 0.930 . S
H587 C584 0.929 . S
S588 N589 1.613 . S
S588 N590 1.610 . S
N589 S588 1.613 . S
N589 C592 1.350 . S
N590 S588 1.610 . S
N590 C591 1.351 . S
C591 C585 1.428 . S
C591 N590 1.351 . S
C591 C592 1.434 . S
C592 C583 1.429 . S
C592 N589 1.350 . S
C592 C591 1.434 . S
C593 C594 1.369 . S
C593 C595 1.419 . S
C593 H597 0.930 . S
C594 C593 1.369 . S
C594 C603 1.429 1_565 S
C595 C593 1.419 . S
C595 C596 1.363 . S
C595 H598 0.929 . S
C596 C595 1.363 . S
C596 C602 1.428 1_565 S
H597 C593 0.930 . S
H598 C595 0.929 . S
S599 N600 1.613 . S
S599 N601 1.610 . S
N600 S599 1.613 . S
N600 C603 1.350 . S
N601 S599 1.610 . S
N601 C602 1.351 . S
C602 C596 1.428 1_545 S
C602 N601 1.351 . S
C602 C603 1.434 . S
C603 C594 1.429 1_545 S
C603 N600 1.350 . S
C603 C602 1.434 . S
C604 C605 1.369 . S
C604 C606 1.419 . S
C604 H608 0.930 1_455 S
C605 C604 1.369 . S
C605 C614 1.429 . S
C606 C604 1.419 . S
C606 C607 1.363 . S
C606 H609 0.929 1_455 S
C607 C606 1.363 . S
C607 C613 1.428 . S
H608 C604 0.930 1_655 S
H609 C606 0.929 1_655 S
S610 N611 1.613 . S
S610 N612 1.610 . S
N611 S610 1.613 . S
N611 C614 1.350 . S
N612 S610 1.610 . S
N612 C613 1.351 . S
C613 C607 1.428 . S
C613 N612 1.351 . S
C613 C614 1.434 . S
C614 C605 1.429 . S
C614 N611 1.350 . S
C614 C613 1.434 . S
C615 C616 1.369 . S
C615 C617 1.419 . S
C615 H619 0.930 . S
C616 C615 1.369 . S
C616 C625 1.429 . S
C617 C615 1.419 . S
C617 C618 1.363 . S
C617 H620 0.929 . S
C618 C617 1.363 . S
C618 C624 1.428 . S
H619 C615 0.930 . S
H620 C617 0.929 . S
S621 N622 1.613 . S
S621 N623 1.610 . S
N622 S621 1.613 . S
N622 C625 1.350 . S
N623 S621 1.610 . S
N623 C624 1.351 . S
C624 C618 1.428 . S
C624 N623 1.351 . S
C624 C625 1.434 . S
C625 C616 1.429 . S
C625 N622 1.350 . S
C625 C624 1.434 . S
C626 C627 1.369 . S
C626 C628 1.419 . S
C626 H630 0.930 . S
C627 C626 1.369 . S
C627 C636 1.429 . S
C628 C626 1.419 . S
C628 C629 1.363 . S
C628 H631 0.929 . S
C629 C628 1.363 . S
C629 C635 1.428 . S
H630 C626 0.930 . S
H631 C628 0.929 . S
S632 N633 1.613 . S
S632 N634 1.610 . S
N633 S632 1.613 . S
N633 C636 1.350 . S
N634 S632 1.610 . S
N634 C635 1.351 . S
C635 C629 1.428 . S
C635 N634 1.351 . S
C635 C636 1.434 . S
C636 C627 1.429 . S
C636 N633 1.350 . S
C636 C635 1.434 . S
C637 C638 1.369 . S
C637 C639 1.419 . S
C637 H641 0.930 . S
C638 C637 1.369 . S
C638 C647 1.429 . S
C639 C637 1.419 . S
C639 C640 1.363 . S
C639 H642 0.929 . S
C640 C639 1.363 . S
C640 C646 1.428 . S
H641 C637 0.930 . S
H642 C639 0.929 . S
S643 N644 1.613 . S
S643 N645 1.610 . S
N644 S643 1.613 . S
N644 C647 1.350 . S
N645 S643 1.610 . S
N645 C646 1.351 . S
C646 C640 1.428 . S
C646 N645 1.351 . S
C646 C647 1.434 . S
C647 C638 1.429 . S
C647 N644 1.350 . S
C647 C646 1.434 . S
C253 C8 2.006 . S
C255 C45 2.034 . S
C264 C17 1.974 . S
C266 C59 1.981 . S
C275 C73 1.964 . S
C277 C36 1.947 . S
C286 C92 2.002 . S
C288 C129 2.028 . S
C297 C101 1.974 . S
C299 C143 1.981 . S
C308 C157 1.955 . S
C310 C120 1.943 . S
C319 C213 2.029 . S
C321 C176 2.003 . S
C330 C227 1.978 . S
C332 C185 1.977 . S
C341 C241 1.961 . S
C343 C204 1.940 . S
C352 C3 1.756 . S
C354 C134 1.759 . S
C363 C22 1.744 . S
C365 C148 1.733 . S
C374 C162 1.720 . S
C376 C31 1.703 . S
C385 C50 1.759 . S
C387 C171 1.754 . S
C396 C64 1.732 . S
C398 C190 1.743 . S
C407 C78 1.724 . S
C409 C199 1.700 . S
C418 C87 1.762 . S
C420 C218 1.773 . S
C429 C106 1.748 . S
C431 C232 1.738 . S
C440 C246 1.709 . S
C442 C115 1.701 . S
C451 C7 0.752 . S
C453 C63 0.745 . S
C462 C23 0.723 . S
C464 C77 0.726 . S
C473 C35 0.730 . S
C475 C49 0.735 . S
C484 C51 0.786 . S
C486 C21 0.792 . S
C495 C37 0.813 . S
C497 C65 0.816 . S
C506 C79 0.818 . S
C508 C9 0.819 . S
C517 C91 0.770 . S
C519 C147 0.764 . S
C528 C161 0.722 . S
C530 C107 0.733 . S
C539 C133 0.739 . S
C541 C119 0.731 . S
C550 C105 0.790 . S
C552 C135 0.784 . S
C561 C149 0.824 . S
C563 C121 0.820 . S
C572 C163 0.820 . S
C574 C93 0.820 . S
C583 C231 0.751 . S
C585 C175 0.745 . S
C594 C245 0.725 . S
C596 C191 0.730 . S
C605 C203 0.723 . S
C607 C217 0.721 . S
C616 C189 0.799 . S
C618 C219 0.806 . S
C627 C205 0.821 . S
C629 C233 0.820 . S
C638 C177 0.824 . S
C640 C247 0.826 . S
