# Generated by pormake.
# Topology umf, (4)-cn, num edge types: 1
# Building blocks:
#     Node 0, Type 0, BuildingBlock: GALJAG_clean_sbu_0, # of connection points: 4
#     Node 1, Type 0, BuildingBlock: GALJAG_clean_sbu_0, # of connection points: 4
#     Node 2, Type 0, BuildingBlock: GALJAG_clean_sbu_0, # of connection points: 4
#     Node 3, Type 0, BuildingBlock: GALJAG_clean_sbu_0, # of connection points: 4
#     Node 4, Type 0, BuildingBlock: GALJAG_clean_sbu_0, # of connection points: 4
#     Node 5, Type 0, BuildingBlock: GALJAG_clean_sbu_0, # of connection points: 4
#     Node 6, Type 0, BuildingBlock: GALJAG_clean_sbu_0, # of connection points: 4
#     Node 7, Type 0, BuildingBlock: GALJAG_clean_sbu_0, # of connection points: 4
#     Edge 8, Type (0, 0), BuildingBlock: XIVTED_clean_linker_0, # of connection points: 2
#     Edge 9, Type (0, 0), BuildingBlock: XIVTED_clean_linker_0, # of connection points: 2
#     Edge 10, Type (0, 0), BuildingBlock: XIVTED_clean_linker_0, # of connection points: 2
#     Edge 11, Type (0, 0), BuildingBlock: XIVTED_clean_linker_0, # of connection points: 2
#     Edge 12, Type (0, 0), BuildingBlock: XIVTED_clean_linker_0, # of connection points: 2
#     Edge 13, Type (0, 0), BuildingBlock: XIVTED_clean_linker_0, # of connection points: 2
#     Edge 14, Type (0, 0), BuildingBlock: XIVTED_clean_linker_0, # of connection points: 2
#     Edge 15, Type (0, 0), BuildingBlock: XIVTED_clean_linker_0, # of connection points: 2
#     Edge 16, Type (0, 0), BuildingBlock: XIVTED_clean_linker_0, # of connection points: 2
#     Edge 17, Type (0, 0), BuildingBlock: XIVTED_clean_linker_0, # of connection points: 2
#     Edge 18, Type (0, 0), BuildingBlock: XIVTED_clean_linker_0, # of connection points: 2
#     Edge 19, Type (0, 0), BuildingBlock: XIVTED_clean_linker_0, # of connection points: 2
#     Edge 20, Type (0, 0), BuildingBlock: XIVTED_clean_linker_0, # of connection points: 2
#     Edge 21, Type (0, 0), BuildingBlock: XIVTED_clean_linker_0, # of connection points: 2
#     Edge 22, Type (0, 0), BuildingBlock: XIVTED_clean_linker_0, # of connection points: 2
#     Edge 23, Type (0, 0), BuildingBlock: XIVTED_clean_linker_0, # of connection points: 2
# Relax obj value: 0.108
# Max RMSD: 0.235
# Mean RMSD: 0.235
data_MOF--net-umf--node1-GALJAG_clean_sbu_0--edge1-XIVTED_clean_linker_0
_symmetry_space_group_name_H-M    P1
_symmetry_Int_Tables_number       1
_symmetry_cell_setting            triclinic
loop_
_symmetry_equiv_pos_as_xyz
'x, y, z'
_cell_length_a     29.083383
_cell_length_b     29.077259
_cell_length_c     52.851801
_cell_angle_alpha  90.080773
_cell_angle_beta   90.002981
_cell_angle_gamma 90.13888
loop_
_atom_site_label
_atom_site_type_symbol
_atom_site_fract_x
_atom_site_fract_y
_atom_site_fract_z
_atom_type_partial_charge
In0 In 0.05313 0.23654 0.15182 0.0
O1 O 0.07331 0.2298 0.10993 0.0
O2 O 0.00226 0.22817 0.12031 0.0
C3 C 0.12232 0.24543 0.18468 0.0
C4 C 0.02732 0.32387 0.15536 0.0
C5 C 0.02713 0.1532 0.16758 0.0
O6 O 0.12978 0.23349 0.1619 0.0
O7 O 0.08073 0.25272 0.19026 0.0
O8 O 0.00275 0.18851 0.17179 0.0
O9 O 0.06411 0.16048 0.15568 0.0
C10 C 0.03168 0.22657 0.10278 0.0
O11 O 0.00273 0.29154 0.1642 0.0
O12 O 0.06424 0.3117 0.14463 0.0
In13 In 0.7368 0.05058 0.65117 0.0
O14 O 0.74565 0.07314 0.60981 0.0
O15 O 0.74718 0.0015 0.619 0.0
C16 C 0.72544 0.11618 0.68589 0.0
C17 C 0.64916 0.02509 0.65238 0.0
C18 C 0.81991 0.02601 0.66761 0.0
O19 O 0.73783 0.12613 0.66346 0.0
O20 O 0.71891 0.07392 0.69019 0.0
O21 O 0.78529 -0.00022 0.67026 0.0
O22 O 0.81208 0.06393 0.65678 0.0
C23 C 0.74939 0.03192 0.60201 0.0
O24 O 0.6806 -0.00035 0.66137 0.0
O25 O 0.66243 0.06259 0.64265 0.0
In26 In 0.914 0.74189 0.14825 0.0
O27 O 0.89205 0.74588 0.10657 0.0
O28 O 0.96335 0.75136 0.1161 0.0
C29 C 0.8475 0.73091 0.18249 0.0
C30 C 0.94241 0.65552 0.15222 0.0
C31 C 0.93533 0.82689 0.16341 0.0
O32 O 0.83797 0.74154 0.15975 0.0
O33 O 0.88975 0.72586 0.1873 0.0
O34 O 0.96246 0.79342 0.16707 0.0
O35 O 0.89834 0.81707 0.15206 0.0
C36 C 0.93323 0.75054 0.0989 0.0
O37 O 0.96671 0.68879 0.16031 0.0
O38 O 0.90465 0.66636 0.14195 0.0
In39 In 0.22924 0.91384 0.64775 0.0
O40 O 0.28501 0.9646 0.65902 0.0
O41 O 0.30393 0.90227 0.63985 0.0
C42 C 0.14626 0.93839 0.66451 0.0
C43 C 0.21815 0.93365 0.59862 0.0
C44 C 0.2395 0.84633 0.6814 0.0
O45 O 0.18107 0.96422 0.66753 0.0
O46 O 0.15377 0.90099 0.65304 0.0
O47 O 0.22679 0.83771 0.65885 0.0
O48 O 0.247 0.88822 0.68633 0.0
C49 C 0.3168 0.9395 0.65007 0.0
O50 O 0.22203 0.89231 0.6061 0.0
O51 O 0.21925 0.96364 0.61591 0.0
In52 In 0.05216 0.73429 0.86797 0.0
O53 O 0.07431 0.74139 0.90953 0.0
O54 O 0.00279 0.74329 0.90009 0.0
C55 C 0.1181 0.72431 0.83336 0.0
C56 C 0.02655 0.64673 0.86544 0.0
C57 C 0.02783 0.81811 0.85253 0.0
O58 O 0.12782 0.73589 0.85597 0.0
O59 O 0.07589 0.71787 0.82883 0.0
O60 O 0.00149 0.78368 0.84944 0.0
O61 O 0.06572 0.80975 0.86327 0.0
C62 C 0.03302 0.7448 0.91721 0.0
O63 O 0.00125 0.67861 0.85679 0.0
O64 O 0.06399 0.65951 0.87546 0.0
In65 In 0.23792 0.05456 0.36836 0.0
O66 O 0.23024 0.07643 0.40995 0.0
O67 O 0.22714 0.00505 0.40024 0.0
C68 C 0.24895 0.1214 0.33437 0.0
C69 C 0.32505 0.02784 0.36613 0.0
C70 C 0.15432 0.03074 0.35208 0.0
O71 O 0.23713 0.13054 0.357 0.0
O72 O 0.25526 0.0793 0.32953 0.0
O73 O 0.18857 0.00427 0.34922 0.0
O74 O 0.16273 0.06851 0.36302 0.0
C75 C 0.22576 0.03514 0.41746 0.0
O76 O 0.29286 0.0032 0.35712 0.0
O77 O 0.3128 0.06522 0.37638 0.0
In78 In 0.91191 0.22795 0.87194 0.0
O79 O 0.89121 0.22256 0.91379 0.0
O80 O 0.96225 0.21839 0.90357 0.0
C81 C 0.84413 0.23797 0.83842 0.0
C82 C 0.93834 0.31519 0.8686 0.0
C83 C 0.93536 0.14413 0.85588 0.0
O84 O 0.83564 0.22576 0.86105 0.0
O85 O 0.88601 0.24501 0.83335 0.0
O86 O 0.96155 0.17856 0.85252 0.0
O87 O 0.89811 0.15243 0.8673 0.0
C88 C 0.93267 0.21833 0.92104 0.0
O89 O 0.96294 0.28285 0.85983 0.0
O90 O 0.90125 0.30302 0.8792 0.0
In91 In 0.74404 0.91609 0.37066 0.0
O92 O 0.75027 0.89335 0.41214 0.0
O93 O 0.75465 0.96486 0.40301 0.0
C94 C 0.7324 0.84976 0.33629 0.0
C95 C 0.65726 0.94387 0.36803 0.0
C96 C 0.82794 0.93935 0.35461 0.0
O97 O 0.74397 0.84017 0.35888 0.0
O98 O 0.72678 0.892 0.33167 0.0
O99 O 0.79385 0.96598 0.35169 0.0
O100 O 0.81929 0.90174 0.3656 0.0
C101 C 0.75495 0.93443 0.42001 0.0
O102 O 0.68993 0.96842 0.35951 0.0
O103 O 0.66888 0.90613 0.37801 0.0
H104 H 0.94303 0.35984 0.16672 0.0
H105 H 0.02794 0.62107 0.16247 0.0
H106 H 0.08266 0.39835 0.14871 0.0
H107 H 0.88747 0.58029 0.14829 0.0
H108 H 0.04917 0.53958 0.16558 0.0
H109 H 0.92244 0.44155 0.16824 0.0
C110 C 0.96933 0.38551 0.16324 0.0
C111 C 0.01444 0.37256 0.15739 0.0
C112 C 0.01372 0.54866 0.16185 0.0
C113 C -0.00857 0.46542 0.15934 0.0
C114 C 0.00163 0.59497 0.16015 0.0
C115 C 0.95604 0.60717 0.15493 0.0
C116 C 0.97975 0.51469 0.15874 0.0
C117 C 0.92313 0.5722 0.1521 0.0
C118 C 0.95759 0.43197 0.16404 0.0
C119 C 0.04735 0.40702 0.15306 0.0
N120 N 0.93561 0.52747 0.1541 0.0
N121 N 0.0352 0.45199 0.15416 0.0
H122 H 0.39003 0.88295 0.64345 0.0
H123 H 0.57621 0.08194 0.64561 0.0
H124 H 0.35464 0.02371 0.66047 0.0
H125 H 0.6109 0.94065 0.66147 0.0
H126 H 0.49473 0.06136 0.64653 0.0
H127 H 0.47143 0.90354 0.64551 0.0
C128 C 0.39946 0.91823 0.64762 0.0
C129 C 0.36574 0.9518 0.65174 0.0
C130 C 0.52018 0.03494 0.64994 0.0
C131 C 0.4585 0.97547 0.65395 0.0
C132 C 0.56661 0.04655 0.64928 0.0
C133 C 0.60016 0.01282 0.6534 0.0
C134 C 0.50733 -0.01084 0.65432 0.0
C135 C 0.58598 0.9676 0.65823 0.0
C136 C 0.44584 0.92983 0.64892 0.0
C137 C 0.3797 -0.00313 0.65721 0.0
N138 N 0.54048 0.95694 0.65834 0.0
N139 N 0.42518 0.00755 0.65795 0.0
H140 H 0.88249 0.38912 0.87464 0.0
H141 H 0.08304 0.57325 0.87133 0.0
H142 H 0.02264 0.35197 0.85742 0.0
H143 H 0.94185 0.60922 0.85609 0.0
H144 H 0.06181 0.49193 0.87013 0.0
H145 H 0.90374 0.47027 0.87182 0.0
C146 C 0.91777 0.39811 0.87025 0.0
C147 C 0.951 0.36396 0.86634 0.0
C148 C 0.03557 0.51762 0.86689 0.0
C149 C 0.97543 0.45646 0.86324 0.0
C150 C 0.04755 0.56396 0.8677 0.0
C151 C 0.01401 0.59783 0.8639 0.0
C152 C -0.01039 0.50517 0.86268 0.0
C153 C 0.96866 0.58405 0.8591 0.0
C154 C 0.92975 0.44435 0.86851 0.0
C155 C -0.00393 0.37736 0.86055 0.0
N156 N 0.95762 0.53863 0.85887 0.0
N157 N 0.00714 0.42273 0.8594 0.0
H158 H 0.36115 0.9431 0.35577 0.0
H159 H 0.62189 0.02913 0.35814 0.0
H160 H 0.39942 0.08323 0.3729 0.0
H161 H 0.58248 0.88864 0.37332 0.0
H162 H 0.54023 0.04991 0.35595 0.0
H163 H 0.4429 0.92258 0.35454 0.0
C164 C 0.38677 0.9695 0.35915 0.0
C165 C 0.37374 0.01478 0.3646 0.0
C166 C 0.54963 0.01456 0.35972 0.0
C167 C 0.46664 -0.00815 0.36297 0.0
C168 C 0.59605 0.00272 0.3609 0.0
C169 C 0.60871 0.95725 0.36607 0.0
C170 C 0.51597 0.98046 0.36331 0.0
C171 C 0.57404 0.92421 0.36949 0.0
C172 C 0.43325 0.9578 0.35852 0.0
C173 C 0.40814 0.04781 0.36884 0.0
N174 N 0.52917 0.93644 0.36798 0.0
N175 N 0.45312 0.03572 0.36786 0.0
H176 H 0.01956 0.20925 0.93938 0.0
H177 H 0.94431 0.22101 0.08469 0.0
H178 H 0.87847 0.22127 0.96375 0.0
H179 H 0.08578 0.22232 0.06006 0.0
H180 H 0.91962 0.216 0.04073 0.0
H181 H 0.04408 0.20863 0.98345 0.0
C182 C -0.00637 0.21156 0.95403 0.0
C183 C 0.94682 0.21547 0.94787 0.0
C184 C 0.95606 0.2173 0.04487 0.0
C185 C 0.97488 0.2149 0.99852 0.0
C186 C 0.97027 0.22012 0.07 0.0
C187 C 0.01727 0.22222 0.07606 0.0
C188 C -0.01098 0.21648 0.02552 0.0
C189 C 0.04924 0.22086 0.05623 0.0
C190 C 0.00775 0.21128 0.97922 0.0
C191 C 0.91487 0.21825 0.96766 0.0
N192 N 0.03451 0.21814 0.03182 0.0
N193 N 0.92952 0.21803 0.99213 0.0
H194 H 0.75381 0.08836 0.56029 0.0
H195 H 0.75411 0.87794 0.46177 0.0
H196 H 0.7561 0.94561 0.58249 0.0
H197 H 0.7637 0.02048 0.4397 0.0
H198 H 0.75616 0.90191 0.50628 0.0
H199 H 0.75871 0.06429 0.51586 0.0
C200 C 0.75555 0.05204 0.55583 0.0
C201 C 0.7544 0.01899 0.57508 0.0
C202 C 0.75803 0.92791 0.49167 0.0
C203 C 0.75978 -0.00889 0.52444 0.0
C204 C 0.7569 0.91418 0.46629 0.0
C205 C 0.75858 0.94722 0.44703 0.0
C206 C 0.76068 0.975 0.49776 0.0
C207 C 0.76218 -0.00621 0.45393 0.0
C208 C 0.75834 0.03826 0.53049 0.0
C209 C 0.75677 0.97232 0.56825 0.0
N210 N 0.76289 0.00628 0.47869 0.0
N211 N 0.75914 0.9598 0.54354 0.0
H212 H 0.8774 0.74837 0.05686 0.0
H213 H 0.08899 0.74826 0.95921 0.0
H214 H 0.01961 0.7583 0.07959 0.0
H215 H 0.9465 0.75036 0.93645 0.0
H216 H 0.06442 0.75233 1.00358 0.0
H217 H 0.90198 0.74952 0.01246 0.0
C218 C 0.91371 0.751 0.05251 0.0
C219 C 0.94647 0.75315 0.07192 0.0
C220 C 0.03856 0.75206 0.98884 0.0
C221 C 0.97493 0.75424 0.02131 0.0
C222 C 0.05263 0.74975 0.96355 0.0
C223 C 0.01979 0.74888 0.94414 0.0
C224 C -0.00865 0.75333 0.9947 0.0
C225 C 0.97305 0.75087 0.9508 0.0
C226 C 0.92777 0.75163 0.02719 0.0
C227 C -0.00687 0.75649 0.06523 0.0
N228 N 0.96026 0.75284 0.97548 0.0
N229 N 0.00595 0.75675 0.04053 0.0
H230 H 0.2227 0.09077 0.45964 0.0
H231 H 0.21767 0.87819 0.55639 0.0
H232 H 0.21744 0.94856 0.4363 0.0
H233 H 0.2112 0.02033 0.57971 0.0
H234 H 0.21622 0.90324 0.5121 0.0
H235 H 0.21727 0.06583 0.50388 0.0
C236 C 0.22022 0.0544 0.46382 0.0
C237 C 0.22068 0.02174 0.4443 0.0
C238 C 0.2149 0.92892 0.52694 0.0
C239 C 0.21465 -0.00712 0.49471 0.0
C240 C 0.21568 0.91458 0.55219 0.0
C241 C 0.21471 0.94718 0.57173 0.0
C242 C 0.21332 0.97619 0.52125 0.0
C243 C 0.21215 -0.00604 0.56524 0.0
C244 C 0.21712 0.04012 0.48904 0.0
C245 C 0.21734 0.97498 0.45076 0.0
N246 N 0.21176 0.00705 0.54059 0.0
N247 N 0.21467 0.96197 0.47536 0.0
H248 H 0.11985 0.2915 0.22931 0.0
H249 H 0.29237 0.11425 0.28907 0.0
H250 H 0.20427 0.19892 0.18575 0.0
H251 H 0.2062 0.20534 0.33256 0.0
H252 H 0.27711 0.15994 0.25137 0.0
H253 H 0.16701 0.2762 0.26647 0.0
C254 C 0.14907 0.26869 0.22746 0.0
C255 C 0.15769 0.24561 0.20463 0.0
C256 C 0.26228 0.17064 0.26922 0.0
C257 C 0.21121 0.22717 0.24722 0.0
C258 C 0.27102 0.14459 0.29077 0.0
C259 C 0.24963 0.15554 0.31379 0.0
C260 C 0.23129 0.20746 0.27061 0.0
C261 C 0.22293 0.19548 0.31509 0.0
C262 C 0.17597 0.25992 0.24871 0.0
C263 C 0.19626 0.21702 0.20311 0.0
N264 N 0.21363 0.21946 0.29361 0.0
N265 N 0.22103 0.20773 0.22433 0.0
H266 H 0.8484 0.28532 0.79432 0.0
H267 H 0.68028 0.10733 0.73056 0.0
H268 H 0.76237 0.19096 0.83584 0.0
H269 H 0.76783 0.20041 0.6891 0.0
H270 H 0.69337 0.15235 0.76885 0.0
H271 H 0.80322 0.2703 0.75633 0.0
C272 C 0.8192 0.2622 0.79554 0.0
C273 C 0.80959 0.23853 0.81805 0.0
C274 C 0.70899 0.16362 0.75131 0.0
C275 C 0.75839 0.22039 0.77452 0.0
C276 C 0.70151 0.13794 0.72943 0.0
C277 C 0.72389 0.14969 0.70681 0.0
C278 C 0.73971 0.20087 0.75067 0.0
C279 C 0.75037 0.18995 0.70624 0.0
C280 C 0.79346 0.25358 0.77382 0.0
C281 C 0.77111 0.20953 0.81876 0.0
N282 N 0.75842 0.21358 0.72804 0.0
N283 N 0.7475 0.20041 0.7971 0.0
H284 H 0.77199 0.7642 0.33429 0.0
H285 H 0.76273 0.77212 0.18443 0.0
H286 H 0.68986 0.85891 0.29089 0.0
H287 H 0.85585 0.68818 0.22782 0.0
H288 H 0.71807 0.78642 0.22299 0.0
H289 H 0.78486 0.71886 0.2958 0.0
C290 C 0.75564 0.7747 0.31682 0.0
C291 C 0.73081 0.81584 0.31555 0.0
C292 C 0.74766 0.76396 0.22395 0.0
C293 C 0.74573 0.76483 0.27155 0.0
C294 C 0.77295 0.75563 0.20191 0.0
C295 C 0.81352 0.72988 0.20316 0.0
C296 C 0.76333 0.74647 0.24723 0.0
C297 C 0.82526 0.70914 0.22623 0.0
C298 C 0.76313 0.749 0.29482 0.0
C299 C 0.71015 0.82788 0.2925 0.0
N300 N 0.8008 0.71855 0.24745 0.0
N301 N 0.71875 0.80298 0.27131 0.0
H302 H 0.2858 0.85153 0.72588 0.0
H303 H 0.11027 0.67966 0.78846 0.0
H304 H 0.19363 0.76389 0.68373 0.0
H305 H 0.20163 0.7681 0.83063 0.0
H306 H 0.15526 0.69408 0.75036 0.0
H307 H 0.27101 0.806 0.76373 0.0
C308 C 0.2632 0.82195 0.72449 0.0
C309 C 0.24008 0.81195 0.70184 0.0
C310 C 0.16617 0.70962 0.768 0.0
C311 C 0.22225 0.76027 0.7452 0.0
C312 C 0.14051 0.70137 0.78978 0.0
C313 C 0.15177 0.72357 0.81254 0.0
C314 C 0.20289 0.74096 0.7689 0.0
C315 C 0.19157 0.75072 0.81336 0.0
C316 C 0.25473 0.79599 0.74613 0.0
C317 C 0.21176 0.77297 0.70093 0.0
N318 N 0.21516 0.75953 0.79167 0.0
N319 N 0.20278 0.74911 0.7225 0.0
H320 H 0.94389 0.12465 0.18635 0.0
H321 H 0.87694 0.89966 0.16456 0.0
H322 H 0.07759 0.07481 0.16411 0.0
H323 H 0.01829 0.86273 0.17843 0.0
H324 H 0.89632 0.97997 0.17175 0.0
H325 H 0.91844 0.04507 0.19221 0.0
C326 C 0.9679 0.09695 0.18283 0.0
C327 C 0.01256 0.10618 0.17425 0.0
C328 C 0.92297 0.95442 0.17399 0.0
C329 C 0.98353 0.01528 0.18019 0.0
C330 C 0.91199 0.90847 0.16958 0.0
C331 C 0.94618 0.8746 0.17072 0.0
C332 C 0.96863 0.96667 0.17946 0.0
C333 C -0.00903 0.88785 0.17732 0.0
C334 C 0.95325 0.05151 0.1859 0.0
C335 C 0.04256 0.06913 0.17032 0.0
N336 N 0.00108 0.93304 0.18104 0.0
N337 N 0.02739 0.02529 0.17314 0.0
H338 H 0.11477 0.02326 0.67896 0.0
H339 H 0.85201 0.94041 0.68001 0.0
H340 H 0.07133 0.88267 0.66782 0.0
H341 H 0.89477 0.08175 0.67148 0.0
H342 H 0.93265 0.91852 0.68604 0.0
H343 H 0.03447 0.04479 0.68662 0.0
C344 C 0.08842 -0.00313 0.6785 0.0
C345 C 0.09945 0.95132 0.67238 0.0
C346 C 0.92423 0.95439 0.68316 0.0
C347 C 0.008 0.97549 0.68111 0.0
C348 C 0.87829 0.96687 0.67981 0.0
C349 C 0.86694 0.01278 0.67486 0.0
C350 C 0.9588 -0.01182 0.68168 0.0
C351 C 0.9022 0.04581 0.67488 0.0
C352 C 0.04268 0.00914 0.6828 0.0
C353 C 0.06413 0.91836 0.67211 0.0
N354 N 0.94661 0.03282 0.678 0.0
N355 N 0.01992 0.93115 0.6762 0.0
H356 H 0.87875 0.06978 0.85284 0.0
H357 H 0.08418 0.89244 0.84849 0.0
H358 H 0.02002 0.11109 0.84226 0.0
H359 H 0.94205 0.85147 0.84156 0.0
H360 H 0.06154 0.97252 0.843 0.0
H361 H 0.90077 -0.01005 0.84561 0.0
C362 C 0.9144 0.06203 0.84873 0.0
C363 C 0.94778 0.09693 0.84845 0.0
C364 C 0.03531 0.94605 0.84232 0.0
C365 C 0.97329 0.00559 0.84038 0.0
C366 C 0.04819 0.90033 0.84552 0.0
C367 C 0.0148 0.86544 0.84579 0.0
C368 C -0.0114 0.95705 0.83976 0.0
C369 C 0.9688 0.87743 0.8416 0.0
C370 C 0.92691 0.01646 0.84452 0.0
C371 C -0.00669 0.08512 0.84278 0.0
N372 N 0.95692 0.9224 0.83915 0.0
N373 N 0.00489 0.04027 0.83933 0.0
H374 H 0.90171 0.88242 0.35108 0.0
H375 H 0.08064 0.08742 0.34753 0.0
H376 H 0.86165 0.02409 0.34141 0.0
H377 H 0.12044 0.9451 0.34079 0.0
H378 H 0.00046 0.06508 0.34167 0.0
H379 H 0.98166 0.90421 0.34383 0.0
C380 C 0.90976 0.91811 0.34716 0.0
C381 C 0.87519 0.95167 0.34716 0.0
C382 C 0.0267 0.03874 0.3411 0.0
C383 C 0.96666 0.97691 0.33907 0.0
C384 C 0.07247 0.05145 0.34451 0.0
C385 C 0.10704 0.01792 0.34496 0.0
C386 C 0.01532 -0.00796 0.33854 0.0
C387 C 0.09472 0.97195 0.3407 0.0
C388 C 0.9554 0.9305 0.34295 0.0
C389 C 0.88737 -0.00275 0.34173 0.0
N390 N 0.04969 0.96023 0.33806 0.0
N391 N 0.93228 0.00868 0.33826 0.0
loop_
_geom_bond_atom_site_label_1
_geom_bond_atom_site_label_2
_geom_bond_distance
_geom_bond_site_symmetry_2
_ccdc_geom_bond_type
In0 O1 2.294 . S
In0 O2 2.326 . S
In0 O6 2.266 . S
In0 O7 2.326 . S
In0 O8 2.266 . S
In0 O9 2.326 . S
In0 O11 2.294 . S
In0 O12 2.326 . S
O1 In0 2.294 . S
O1 C10 1.240 . S
O2 In0 2.326 . S
O2 C10 1.252 . S
C3 O6 1.252 . S
C3 O7 1.260 . S
C4 O11 1.240 . S
C4 O12 1.252 . S
C5 O8 1.252 . S
C5 O9 1.260 . S
O6 In0 2.266 . S
O6 C3 1.252 . S
O7 In0 2.326 . S
O7 C3 1.260 . S
O8 In0 2.266 . S
O8 C5 1.252 . S
O9 In0 2.326 . S
O9 C5 1.260 . S
C10 O1 1.240 . S
C10 O2 1.252 . S
O11 In0 2.294 . S
O11 C4 1.240 . S
O12 In0 2.326 . S
O12 C4 1.252 . S
In13 O14 2.294 . S
In13 O15 2.326 . S
In13 O19 2.266 . S
In13 O20 2.326 . S
In13 O21 2.266 . S
In13 O22 2.326 . S
In13 O24 2.294 . S
In13 O25 2.326 . S
O14 In13 2.294 . S
O14 C23 1.240 . S
O15 In13 2.326 . S
O15 C23 1.252 . S
C16 O19 1.252 . S
C16 O20 1.260 . S
C17 O24 1.240 . S
C17 O25 1.252 . S
C18 O21 1.252 . S
C18 O22 1.260 . S
O19 In13 2.266 . S
O19 C16 1.252 . S
O20 In13 2.326 . S
O20 C16 1.260 . S
O21 In13 2.266 . S
O21 C18 1.252 . S
O22 In13 2.326 . S
O22 C18 1.260 . S
C23 O14 1.240 . S
C23 O15 1.252 . S
O24 In13 2.294 . S
O24 C17 1.240 . S
O25 In13 2.326 . S
O25 C17 1.252 . S
In26 O27 2.294 . S
In26 O28 2.326 . S
In26 O32 2.266 . S
In26 O33 2.326 . S
In26 O34 2.266 . S
In26 O35 2.326 . S
In26 O37 2.294 . S
In26 O38 2.326 . S
O27 In26 2.294 . S
O27 C36 1.240 . S
O28 In26 2.326 . S
O28 C36 1.252 . S
C29 O32 1.252 . S
C29 O33 1.260 . S
C30 O37 1.240 . S
C30 O38 1.252 . S
C31 O34 1.252 . S
C31 O35 1.260 . S
O32 In26 2.266 . S
O32 C29 1.252 . S
O33 In26 2.326 . S
O33 C29 1.260 . S
O34 In26 2.266 . S
O34 C31 1.252 . S
O35 In26 2.326 . S
O35 C31 1.260 . S
C36 O27 1.240 . S
C36 O28 1.252 . S
O37 In26 2.294 . S
O37 C30 1.240 . S
O38 In26 2.326 . S
O38 C30 1.252 . S
In39 O40 2.294 . S
In39 O41 2.326 . S
In39 O45 2.266 . S
In39 O46 2.326 . S
In39 O47 2.266 . S
In39 O48 2.326 . S
In39 O50 2.294 . S
In39 O51 2.326 . S
O40 In39 2.294 . S
O40 C49 1.240 . S
O41 In39 2.326 . S
O41 C49 1.252 . S
C42 O45 1.252 . S
C42 O46 1.260 . S
C43 O50 1.240 . S
C43 O51 1.252 . S
C44 O47 1.252 . S
C44 O48 1.260 . S
O45 In39 2.266 . S
O45 C42 1.252 . S
O46 In39 2.326 . S
O46 C42 1.260 . S
O47 In39 2.266 . S
O47 C44 1.252 . S
O48 In39 2.326 . S
O48 C44 1.260 . S
C49 O40 1.240 . S
C49 O41 1.252 . S
O50 In39 2.294 . S
O50 C43 1.240 . S
O51 In39 2.326 . S
O51 C43 1.252 . S
In52 O53 2.294 . S
In52 O54 2.326 . S
In52 O58 2.266 . S
In52 O59 2.326 . S
In52 O60 2.266 . S
In52 O61 2.326 . S
In52 O63 2.294 . S
In52 O64 2.326 . S
O53 In52 2.294 . S
O53 C62 1.240 . S
O54 In52 2.326 . S
O54 C62 1.252 . S
C55 O58 1.252 . S
C55 O59 1.260 . S
C56 O63 1.240 . S
C56 O64 1.252 . S
C57 O60 1.252 . S
C57 O61 1.260 . S
O58 In52 2.266 . S
O58 C55 1.252 . S
O59 In52 2.326 . S
O59 C55 1.260 . S
O60 In52 2.266 . S
O60 C57 1.252 . S
O61 In52 2.326 . S
O61 C57 1.260 . S
C62 O53 1.240 . S
C62 O54 1.252 . S
O63 In52 2.294 . S
O63 C56 1.240 . S
O64 In52 2.326 . S
O64 C56 1.252 . S
In65 O66 2.294 . S
In65 O67 2.326 . S
In65 O71 2.266 . S
In65 O72 2.326 . S
In65 O73 2.266 . S
In65 O74 2.326 . S
In65 O76 2.294 . S
In65 O77 2.326 . S
O66 In65 2.294 . S
O66 C75 1.240 . S
O67 In65 2.326 . S
O67 C75 1.252 . S
C68 O71 1.252 . S
C68 O72 1.260 . S
C69 O76 1.240 . S
C69 O77 1.252 . S
C70 O73 1.252 . S
C70 O74 1.260 . S
O71 In65 2.266 . S
O71 C68 1.252 . S
O72 In65 2.326 . S
O72 C68 1.260 . S
O73 In65 2.266 . S
O73 C70 1.252 . S
O74 In65 2.326 . S
O74 C70 1.260 . S
C75 O66 1.240 . S
C75 O67 1.252 . S
O76 In65 2.294 . S
O76 C69 1.240 . S
O77 In65 2.326 . S
O77 C69 1.252 . S
In78 O79 2.294 . S
In78 O80 2.326 . S
In78 O84 2.266 . S
In78 O85 2.326 . S
In78 O86 2.266 . S
In78 O87 2.326 . S
In78 O89 2.294 . S
In78 O90 2.326 . S
O79 In78 2.294 . S
O79 C88 1.240 . S
O80 In78 2.326 . S
O80 C88 1.252 . S
C81 O84 1.252 . S
C81 O85 1.260 . S
C82 O89 1.240 . S
C82 O90 1.252 . S
C83 O86 1.252 . S
C83 O87 1.260 . S
O84 In78 2.266 . S
O84 C81 1.252 . S
O85 In78 2.326 . S
O85 C81 1.260 . S
O86 In78 2.266 . S
O86 C83 1.252 . S
O87 In78 2.326 . S
O87 C83 1.260 . S
C88 O79 1.240 . S
C88 O80 1.252 . S
O89 In78 2.294 . S
O89 C82 1.240 . S
O90 In78 2.326 . S
O90 C82 1.252 . S
In91 O92 2.294 . S
In91 O93 2.326 . S
In91 O97 2.266 . S
In91 O98 2.326 . S
In91 O99 2.266 . S
In91 O100 2.326 . S
In91 O102 2.294 . S
In91 O103 2.326 . S
O92 In91 2.294 . S
O92 C101 1.240 . S
O93 In91 2.326 . S
O93 C101 1.252 . S
C94 O97 1.252 . S
C94 O98 1.260 . S
C95 O102 1.240 . S
C95 O103 1.252 . S
C96 O99 1.252 . S
C96 O100 1.260 . S
O97 In91 2.266 . S
O97 C94 1.252 . S
O98 In91 2.326 . S
O98 C94 1.260 . S
O99 In91 2.266 . S
O99 C96 1.252 . S
O100 In91 2.326 . S
O100 C96 1.260 . S
C101 O92 1.240 . S
C101 O93 1.252 . S
O102 In91 2.294 . S
O102 C95 1.240 . S
O103 In91 2.326 . S
O103 C95 1.252 . S
H104 C110 0.930 . S
H105 C114 0.930 . S
H106 C119 0.929 . S
H107 C117 0.929 . S
H108 C112 0.929 . S
H109 C118 0.929 . S
C110 H104 0.930 . S
C110 C111 1.367 . S
C110 C118 1.378 1_455 S
C111 C110 1.367 . S
C111 C119 1.433 . S
C112 H108 0.929 . S
C112 C114 1.378 1_455 S
C112 C116 1.350 1_455 S
C113 C116 1.463 1_455 S
C113 C118 1.350 1_455 S
C113 N121 1.427 . S
C114 H105 0.930 . S
C114 C112 1.378 1_655 S
C114 C115 1.367 . S
C115 C114 1.367 . S
C115 C117 1.433 . S
C116 C112 1.350 1_655 S
C116 C113 1.463 1_655 S
C116 N120 1.427 . S
C117 H107 0.929 . S
C117 C115 1.433 . S
C117 N120 1.384 . S
C118 H109 0.929 . S
C118 C110 1.378 1_655 S
C118 C113 1.350 1_655 S
C119 H106 0.929 . S
C119 C111 1.433 . S
C119 N121 1.384 . S
N120 C116 1.427 . S
N120 C117 1.384 . S
N121 C113 1.427 . S
N121 C119 1.384 . S
H122 C128 0.930 . S
H123 C132 0.930 . S
H124 C137 0.929 . S
H125 C135 0.929 . S
H126 C130 0.929 . S
H127 C136 0.929 . S
C128 H122 0.930 . S
C128 C129 1.367 . S
C128 C136 1.378 . S
C129 C128 1.367 . S
C129 C137 1.433 1_565 S
C130 H126 0.929 . S
C130 C132 1.378 . S
C130 C134 1.350 . S
C131 C134 1.463 1_565 S
C131 C136 1.350 . S
C131 N139 1.427 1_565 S
C132 H123 0.930 . S
C132 C130 1.378 . S
C132 C133 1.367 . S
C133 C132 1.367 . S
C133 C135 1.433 1_545 S
C134 C130 1.350 . S
C134 C131 1.463 1_545 S
C134 N138 1.427 1_545 S
C135 H125 0.929 . S
C135 C133 1.433 1_565 S
C135 N138 1.384 . S
C136 H127 0.929 . S
C136 C128 1.378 . S
C136 C131 1.350 . S
C137 H124 0.929 . S
C137 C129 1.433 1_545 S
C137 N139 1.384 . S
N138 C134 1.427 1_565 S
N138 C135 1.384 . S
N139 C131 1.427 1_545 S
N139 C137 1.384 . S
H140 C146 0.930 . S
H141 C150 0.930 . S
H142 C155 0.929 . S
H143 C153 0.929 . S
H144 C148 0.929 . S
H145 C154 0.929 . S
C146 H140 0.930 . S
C146 C147 1.367 . S
C146 C154 1.378 . S
C147 C146 1.367 . S
C147 C155 1.433 1_655 S
C148 H144 0.929 . S
C148 C150 1.378 . S
C148 C152 1.350 . S
C149 C152 1.463 1_655 S
C149 C154 1.350 . S
C149 N157 1.427 1_655 S
C150 H141 0.930 . S
C150 C148 1.378 . S
C150 C151 1.367 . S
C151 C150 1.367 . S
C151 C153 1.433 1_455 S
C152 C148 1.350 . S
C152 C149 1.463 1_455 S
C152 N156 1.427 1_455 S
C153 H143 0.929 . S
C153 C151 1.433 1_655 S
C153 N156 1.384 . S
C154 H145 0.929 . S
C154 C146 1.378 . S
C154 C149 1.350 . S
C155 H142 0.929 . S
C155 C147 1.433 1_455 S
C155 N157 1.384 . S
N156 C152 1.427 1_655 S
N156 C153 1.384 . S
N157 C149 1.427 1_455 S
N157 C155 1.384 . S
H158 C164 0.930 . S
H159 C168 0.930 . S
H160 C173 0.929 . S
H161 C171 0.929 . S
H162 C166 0.929 . S
H163 C172 0.929 . S
C164 H158 0.930 . S
C164 C165 1.367 1_565 S
C164 C172 1.378 . S
C165 C164 1.367 1_545 S
C165 C173 1.433 . S
C166 H162 0.929 . S
C166 C168 1.378 . S
C166 C170 1.350 1_545 S
C167 C170 1.463 1_545 S
C167 C172 1.350 1_545 S
C167 N175 1.427 . S
C168 H159 0.930 . S
C168 C166 1.378 . S
C168 C169 1.367 1_545 S
C169 C168 1.367 1_565 S
C169 C171 1.433 . S
C170 C166 1.350 1_565 S
C170 C167 1.463 1_565 S
C170 N174 1.427 . S
C171 H161 0.929 . S
C171 C169 1.433 . S
C171 N174 1.384 . S
C172 H163 0.929 . S
C172 C164 1.378 . S
C172 C167 1.350 1_565 S
C173 H160 0.929 . S
C173 C165 1.433 . S
C173 N175 1.384 . S
N174 C170 1.427 . S
N174 C171 1.384 . S
N175 C167 1.427 . S
N175 C173 1.384 . S
H176 C182 0.930 1_455 S
H177 C186 0.930 1_655 S
H178 C191 0.929 . S
H179 C189 0.929 . S
H180 C184 0.929 . S
H181 C190 0.929 . S
C182 H176 0.930 1_655 S
C182 C183 1.367 . S
C182 C190 1.378 1_655 S
C183 C182 1.367 . S
C183 C191 1.433 . S
C184 H180 0.929 . S
C184 C186 1.378 1_655 S
C184 C188 1.350 1_655 S
C185 C188 1.463 1_656 S
C185 C190 1.350 1_655 S
C185 N193 1.427 . S
C186 H177 0.930 1_455 S
C186 C184 1.378 1_455 S
C186 C187 1.367 . S
C187 C186 1.367 . S
C187 C189 1.433 . S
C188 C184 1.350 1_455 S
C188 C185 1.463 1_454 S
C188 N192 1.427 . S
C189 H179 0.929 . S
C189 C187 1.433 . S
C189 N192 1.384 . S
C190 H181 0.929 . S
C190 C182 1.378 1_455 S
C190 C185 1.350 1_455 S
C191 H178 0.929 . S
C191 C183 1.433 . S
C191 N193 1.384 . S
N192 C188 1.427 . S
N192 C189 1.384 . S
N193 C185 1.427 . S
N193 C191 1.384 . S
H194 C200 0.930 . S
H195 C204 0.930 . S
H196 C209 0.929 . S
H197 C207 0.929 . S
H198 C202 0.929 . S
H199 C208 0.929 . S
C200 H194 0.930 . S
C200 C201 1.367 . S
C200 C208 1.378 . S
C201 C200 1.367 . S
C201 C209 1.433 . S
C202 H198 0.929 . S
C202 C204 1.378 . S
C202 C206 1.350 . S
C203 C206 1.463 1_545 S
C203 C208 1.350 . S
C203 N211 1.427 1_545 S
C204 H195 0.930 . S
C204 C202 1.378 . S
C204 C205 1.367 . S
C205 C204 1.367 . S
C205 C207 1.433 . S
C206 C202 1.350 . S
C206 C203 1.463 1_565 S
C206 N210 1.427 1_565 S
C207 H197 0.929 . S
C207 C205 1.433 . S
C207 N210 1.384 1_565 S
C208 H199 0.929 . S
C208 C200 1.378 . S
C208 C203 1.350 . S
C209 H196 0.929 . S
C209 C201 1.433 . S
C209 N211 1.384 1_545 S
N210 C206 1.427 1_545 S
N210 C207 1.384 1_545 S
N211 C203 1.427 1_565 S
N211 C209 1.384 1_565 S
H212 C218 0.930 . S
H213 C222 0.930 . S
H214 C227 0.929 . S
H215 C225 0.929 . S
H216 C220 0.929 . S
H217 C226 0.929 . S
C218 H212 0.930 . S
C218 C219 1.367 . S
C218 C226 1.378 . S
C219 C218 1.367 . S
C219 C227 1.433 . S
C220 H216 0.929 . S
C220 C222 1.378 . S
C220 C224 1.350 . S
C221 C224 1.463 1_654 S
C221 C226 1.350 . S
C221 N229 1.427 . S
C222 H213 0.930 . S
C222 C220 1.378 . S
C222 C223 1.367 . S
C223 C222 1.367 . S
C223 C225 1.433 . S
C224 C220 1.350 . S
C224 C221 1.463 1_456 S
C224 N228 1.427 . S
C225 H215 0.929 . S
C225 C223 1.433 . S
C225 N228 1.384 . S
C226 H217 0.929 . S
C226 C218 1.378 . S
C226 C221 1.350 . S
C227 H214 0.929 . S
C227 C219 1.433 . S
C227 N229 1.384 . S
N228 C224 1.427 . S
N228 C225 1.384 . S
N229 C221 1.427 . S
N229 C227 1.384 . S
H230 C236 0.930 . S
H231 C240 0.930 . S
H232 C245 0.929 . S
H233 C243 0.929 . S
H234 C238 0.929 . S
H235 C244 0.929 . S
C236 H230 0.930 . S
C236 C237 1.367 . S
C236 C244 1.378 . S
C237 C236 1.367 . S
C237 C245 1.433 . S
C238 H234 0.929 . S
C238 C240 1.378 . S
C238 C242 1.350 . S
C239 C242 1.463 1_545 S
C239 C244 1.350 . S
C239 N247 1.427 . S
C240 H231 0.930 . S
C240 C238 1.378 . S
C240 C241 1.367 . S
C241 C240 1.367 . S
C241 C243 1.433 . S
C242 C238 1.350 . S
C242 C239 1.463 1_565 S
C242 N246 1.427 . S
C243 H233 0.929 . S
C243 C241 1.433 . S
C243 N246 1.384 . S
C244 H235 0.929 . S
C244 C236 1.378 . S
C244 C239 1.350 . S
C245 H232 0.929 . S
C245 C237 1.433 . S
C245 N247 1.384 . S
N246 C242 1.427 . S
N246 C243 1.384 . S
N247 C239 1.427 . S
N247 C245 1.384 . S
H248 C254 0.930 . S
H249 C258 0.930 . S
H250 C263 0.929 . S
H251 C261 0.929 . S
H252 C256 0.929 . S
H253 C262 0.929 . S
C254 H248 0.930 . S
C254 C255 1.367 . S
C254 C262 1.378 . S
C255 C254 1.367 . S
C255 C263 1.433 . S
C256 H252 0.929 . S
C256 C258 1.378 . S
C256 C260 1.350 . S
C257 C260 1.463 . S
C257 C262 1.350 . S
C257 N265 1.427 . S
C258 H249 0.930 . S
C258 C256 1.378 . S
C258 C259 1.367 . S
C259 C258 1.367 . S
C259 C261 1.433 . S
C260 C256 1.350 . S
C260 C257 1.463 . S
C260 N264 1.427 . S
C261 H251 0.929 . S
C261 C259 1.433 . S
C261 N264 1.384 . S
C262 H253 0.929 . S
C262 C254 1.378 . S
C262 C257 1.350 . S
C263 H250 0.929 . S
C263 C255 1.433 . S
C263 N265 1.384 . S
N264 C260 1.427 . S
N264 C261 1.384 . S
N265 C257 1.427 . S
N265 C263 1.384 . S
H266 C272 0.930 . S
H267 C276 0.930 . S
H268 C281 0.929 . S
H269 C279 0.929 . S
H270 C274 0.929 . S
H271 C280 0.929 . S
C272 H266 0.930 . S
C272 C273 1.367 . S
C272 C280 1.378 . S
C273 C272 1.367 . S
C273 C281 1.433 . S
C274 H270 0.929 . S
C274 C276 1.378 . S
C274 C278 1.350 . S
C275 C278 1.463 . S
C275 C280 1.350 . S
C275 N283 1.427 . S
C276 H267 0.930 . S
C276 C274 1.378 . S
C276 C277 1.367 . S
C277 C276 1.367 . S
C277 C279 1.433 . S
C278 C274 1.350 . S
C278 C275 1.463 . S
C278 N282 1.427 . S
C279 H269 0.929 . S
C279 C277 1.433 . S
C279 N282 1.384 . S
C280 H271 0.929 . S
C280 C272 1.378 . S
C280 C275 1.350 . S
C281 H268 0.929 . S
C281 C273 1.433 . S
C281 N283 1.384 . S
N282 C278 1.427 . S
N282 C279 1.384 . S
N283 C275 1.427 . S
N283 C281 1.384 . S
H284 C290 0.930 . S
H285 C294 0.930 . S
H286 C299 0.929 . S
H287 C297 0.929 . S
H288 C292 0.929 . S
H289 C298 0.929 . S
C290 H284 0.930 . S
C290 C291 1.367 . S
C290 C298 1.378 . S
C291 C290 1.367 . S
C291 C299 1.433 . S
C292 H288 0.929 . S
C292 C294 1.378 . S
C292 C296 1.350 . S
C293 C296 1.463 . S
C293 C298 1.350 . S
C293 N301 1.427 . S
C294 H285 0.930 . S
C294 C292 1.378 . S
C294 C295 1.367 . S
C295 C294 1.367 . S
C295 C297 1.433 . S
C296 C292 1.350 . S
C296 C293 1.463 . S
C296 N300 1.427 . S
C297 H287 0.929 . S
C297 C295 1.433 . S
C297 N300 1.384 . S
C298 H289 0.929 . S
C298 C290 1.378 . S
C298 C293 1.350 . S
C299 H286 0.929 . S
C299 C291 1.433 . S
C299 N301 1.384 . S
N300 C296 1.427 . S
N300 C297 1.384 . S
N301 C293 1.427 . S
N301 C299 1.384 . S
H302 C308 0.930 . S
H303 C312 0.930 . S
H304 C317 0.929 . S
H305 C315 0.929 . S
H306 C310 0.929 . S
H307 C316 0.929 . S
C308 H302 0.930 . S
C308 C309 1.367 . S
C308 C316 1.378 . S
C309 C308 1.367 . S
C309 C317 1.433 . S
C310 H306 0.929 . S
C310 C312 1.378 . S
C310 C314 1.350 . S
C311 C314 1.463 . S
C311 C316 1.350 . S
C311 N319 1.427 . S
C312 H303 0.930 . S
C312 C310 1.378 . S
C312 C313 1.367 . S
C313 C312 1.367 . S
C313 C315 1.433 . S
C314 C310 1.350 . S
C314 C311 1.463 . S
C314 N318 1.427 . S
C315 H305 0.929 . S
C315 C313 1.433 . S
C315 N318 1.384 . S
C316 H307 0.929 . S
C316 C308 1.378 . S
C316 C311 1.350 . S
C317 H304 0.929 . S
C317 C309 1.433 . S
C317 N319 1.384 . S
N318 C314 1.427 . S
N318 C315 1.384 . S
N319 C311 1.427 . S
N319 C317 1.384 . S
H320 C326 0.930 . S
H321 C330 0.930 . S
H322 C335 0.929 1_655 S
H323 C333 0.929 1_455 S
H324 C328 0.929 . S
H325 C334 0.929 . S
C326 H320 0.930 . S
C326 C327 1.367 . S
C326 C334 1.378 . S
C327 C326 1.367 . S
C327 C335 1.433 . S
C328 H324 0.929 . S
C328 C330 1.378 . S
C328 C332 1.350 . S
C329 C332 1.463 1_445 S
C329 C334 1.350 . S
C329 N337 1.427 1_455 S
C330 H321 0.930 . S
C330 C328 1.378 . S
C330 C331 1.367 . S
C331 C330 1.367 . S
C331 C333 1.433 . S
C332 C328 1.350 . S
C332 C329 1.463 1_665 S
C332 N336 1.427 1_655 S
C333 H323 0.929 1_655 S
C333 C331 1.433 . S
C333 N336 1.384 1_655 S
C334 H325 0.929 . S
C334 C326 1.378 . S
C334 C329 1.350 . S
C335 H322 0.929 1_455 S
C335 C327 1.433 . S
C335 N337 1.384 1_455 S
N336 C332 1.427 1_455 S
N336 C333 1.384 1_455 S
N337 C329 1.427 1_655 S
N337 C335 1.384 1_655 S
H338 C344 0.930 . S
H339 C348 0.930 . S
H340 C353 0.929 . S
H341 C351 0.929 . S
H342 C346 0.929 . S
H343 C352 0.929 . S
C344 H338 0.930 . S
C344 C345 1.367 1_545 S
C344 C352 1.378 . S
C345 C344 1.367 1_565 S
C345 C353 1.433 . S
C346 H342 0.929 . S
C346 C348 1.378 . S
C346 C350 1.350 1_565 S
C347 C350 1.463 1_465 S
C347 C352 1.350 1_565 S
C347 N355 1.427 . S
C348 H339 0.930 . S
C348 C346 1.378 . S
C348 C349 1.367 1_565 S
C349 C348 1.367 1_545 S
C349 C351 1.433 . S
C350 C346 1.350 1_545 S
C350 C347 1.463 1_645 S
C350 N354 1.427 . S
C351 H341 0.929 . S
C351 C349 1.433 . S
C351 N354 1.384 . S
C352 H343 0.929 . S
C352 C344 1.378 . S
C352 C347 1.350 1_545 S
C353 H340 0.929 . S
C353 C345 1.433 . S
C353 N355 1.384 . S
N354 C350 1.427 . S
N354 C351 1.384 . S
N355 C347 1.427 . S
N355 C353 1.384 . S
H356 C362 0.930 . S
H357 C366 0.930 . S
H358 C371 0.929 . S
H359 C369 0.929 . S
H360 C364 0.929 . S
H361 C370 0.929 . S
C362 H356 0.930 . S
C362 C363 1.367 . S
C362 C370 1.378 . S
C363 C362 1.367 . S
C363 C371 1.433 1_655 S
C364 H360 0.929 . S
C364 C366 1.378 . S
C364 C368 1.350 . S
C365 C368 1.463 1_645 S
C365 C370 1.350 . S
C365 N373 1.427 1_655 S
C366 H357 0.930 . S
C366 C364 1.378 . S
C366 C367 1.367 . S
C367 C366 1.367 . S
C367 C369 1.433 1_455 S
C368 C364 1.350 . S
C368 C365 1.463 1_465 S
C368 N372 1.427 1_455 S
C369 H359 0.929 . S
C369 C367 1.433 1_655 S
C369 N372 1.384 . S
C370 H361 0.929 . S
C370 C362 1.378 . S
C370 C365 1.350 . S
C371 H358 0.929 . S
C371 C363 1.433 1_455 S
C371 N373 1.384 . S
N372 C368 1.427 1_655 S
N372 C369 1.384 . S
N373 C365 1.427 1_455 S
N373 C371 1.384 . S
H374 C380 0.930 . S
H375 C384 0.930 . S
H376 C389 0.929 . S
H377 C387 0.929 . S
H378 C382 0.929 . S
H379 C388 0.929 . S
C380 H374 0.930 . S
C380 C381 1.367 . S
C380 C388 1.378 . S
C381 C380 1.367 . S
C381 C389 1.433 1_565 S
C382 H378 0.929 . S
C382 C384 1.378 . S
C382 C386 1.350 . S
C383 C386 1.463 1_665 S
C383 C388 1.350 . S
C383 N391 1.427 1_565 S
C384 H375 0.930 . S
C384 C382 1.378 . S
C384 C385 1.367 . S
C385 C384 1.367 . S
C385 C387 1.433 1_545 S
C386 C382 1.350 . S
C386 C383 1.463 1_445 S
C386 N390 1.427 1_545 S
C387 H377 0.929 . S
C387 C385 1.433 1_565 S
C387 N390 1.384 . S
C388 H379 0.929 . S
C388 C380 1.378 . S
C388 C383 1.350 . S
C389 H376 0.929 . S
C389 C381 1.433 1_545 S
C389 N391 1.384 . S
N390 C386 1.427 1_565 S
N390 C387 1.384 . S
N391 C383 1.427 1_545 S
N391 C389 1.384 . S
C111 C4 1.328 . S
C115 C30 1.333 . S
C129 C49 1.330 . S
C133 C17 1.326 . S
C147 C82 1.330 . S
C151 C56 1.326 . S
C165 C69 1.330 . S
C169 C95 1.333 . S
C183 C88 1.551 . S
C187 C10 1.551 . S
C201 C23 1.565 . S
C205 C101 1.566 . S
C219 C36 1.563 . S
C223 C62 1.561 . S
C237 C75 1.562 . S
C241 C43 1.565 . S
C255 C3 1.375 . S
C259 C68 1.373 . S
C273 C81 1.376 . S
C277 C16 1.373 . S
C291 C94 1.384 . S
C295 C29 1.374 . S
C309 C44 1.383 . S
C313 C55 1.372 . S
C327 C5 1.153 . S
C331 C31 1.148 . S
C345 C42 1.155 . S
C349 C18 1.158 . S
C363 C83 1.147 . S
C367 C57 1.151 . S
C381 C96 1.148 . S
C385 C70 1.152 . S
