# Generated by pormake.
# Topology xft, (5)-cn, num edge types: 1
# Building blocks:
#     Node 0, Type 0, BuildingBlock: BEQFEK_clean_sbu_0, # of connection points: 5
#     Node 1, Type 0, BuildingBlock: BEQFEK_clean_sbu_0, # of connection points: 5
#     Node 2, Type 0, BuildingBlock: BEQFEK_clean_sbu_0, # of connection points: 5
#     Node 3, Type 0, BuildingBlock: BEQFEK_clean_sbu_0, # of connection points: 5
#     Node 4, Type 0, BuildingBlock: BEQFEK_clean_sbu_0, # of connection points: 5
#     Node 5, Type 0, BuildingBlock: BEQFEK_clean_sbu_0, # of connection points: 5
#     Node 6, Type 0, BuildingBlock: BEQFEK_clean_sbu_0, # of connection points: 5
#     Node 7, Type 0, BuildingBlock: BEQFEK_clean_sbu_0, # of connection points: 5
#     Edge 8, Type (0, 0), BuildingBlock: KIFKEQ_clean_linker_1, # of connection points: 2
#     Edge 9, Type (0, 0), BuildingBlock: KIFKEQ_clean_linker_1, # of connection points: 2
#     Edge 10, Type (0, 0), BuildingBlock: KIFKEQ_clean_linker_1, # of connection points: 2
#     Edge 11, Type (0, 0), BuildingBlock: KIFKEQ_clean_linker_1, # of connection points: 2
#     Edge 12, Type (0, 0), BuildingBlock: KIFKEQ_clean_linker_1, # of connection points: 2
#     Edge 13, Type (0, 0), BuildingBlock: KIFKEQ_clean_linker_1, # of connection points: 2
#     Edge 14, Type (0, 0), BuildingBlock: KIFKEQ_clean_linker_1, # of connection points: 2
#     Edge 15, Type (0, 0), BuildingBlock: KIFKEQ_clean_linker_1, # of connection points: 2
#     Edge 16, Type (0, 0), BuildingBlock: KIFKEQ_clean_linker_1, # of connection points: 2
#     Edge 17, Type (0, 0), BuildingBlock: KIFKEQ_clean_linker_1, # of connection points: 2
#     Edge 18, Type (0, 0), BuildingBlock: KIFKEQ_clean_linker_1, # of connection points: 2
#     Edge 19, Type (0, 0), BuildingBlock: KIFKEQ_clean_linker_1, # of connection points: 2
#     Edge 20, Type (0, 0), BuildingBlock: KIFKEQ_clean_linker_1, # of connection points: 2
#     Edge 21, Type (0, 0), BuildingBlock: KIFKEQ_clean_linker_1, # of connection points: 2
#     Edge 22, Type (0, 0), BuildingBlock: KIFKEQ_clean_linker_1, # of connection points: 2
#     Edge 23, Type (0, 0), BuildingBlock: KIFKEQ_clean_linker_1, # of connection points: 2
#     Edge 24, Type (0, 0), BuildingBlock: KIFKEQ_clean_linker_1, # of connection points: 2
#     Edge 25, Type (0, 0), BuildingBlock: KIFKEQ_clean_linker_1, # of connection points: 2
#     Edge 26, Type (0, 0), BuildingBlock: KIFKEQ_clean_linker_1, # of connection points: 2
#     Edge 27, Type (0, 0), BuildingBlock: KIFKEQ_clean_linker_1, # of connection points: 2
# Relax obj value: 0.418
# Max RMSD: 0.298
# Mean RMSD: 0.298
data_MOF--net-xft--node1-BEQFEK_clean_sbu_0--edge1-KIFKEQ_clean_linker_1
_symmetry_space_group_name_H-M    P1
_symmetry_Int_Tables_number       1
_symmetry_cell_setting            triclinic
loop_
_symmetry_equiv_pos_as_xyz
'x, y, z'
_cell_length_a     38.868592
_cell_length_b     38.612376
_cell_length_c     36.874425
_cell_angle_alpha  90.209395
_cell_angle_beta   90.176351
_cell_angle_gamma 89.370876
loop_
_atom_site_label
_atom_site_type_symbol
_atom_site_fract_x
_atom_site_fract_y
_atom_site_fract_z
_atom_type_partial_charge
Co0 Co 0.34047 0.03146 0.72943 0.0
Co1 Co 0.31982 0.98671 0.79626 0.0
C2 C 0.33204 0.95487 0.72358 0.0
O3 O 0.33921 0.98375 0.7091 0.0
O4 O 0.32393 0.95298 0.7568 0.0
C5 C 0.33618 0.05598 0.65665 0.0
O6 O 0.32177 0.02587 0.65072 0.0
C7 C 0.27371 0.94122 0.83278 0.0
C8 C 0.29438 0.93836 0.88864 0.0
C9 C 0.26867 0.92594 0.86614 0.0
N10 N 0.30104 0.96192 0.83538 0.0
N11 N 0.31345 0.96016 0.86874 0.0
C12 C 0.25517 0.93405 0.7979 0.0
H13 H 0.26563 0.90974 0.78592 0.0
H14 H 0.25908 0.95544 0.77839 0.0
H15 H 0.22727 0.9305 0.80217 0.0
C16 C 0.27534 0.06763 0.7488 0.0
N17 N 0.29946 0.04283 0.75429 0.0
N18 N 0.29115 0.02453 0.78293 0.0
C19 C 0.26152 0.0372 0.79668 0.0
C20 C 0.2504 0.06456 0.77527 0.0
C21 C 0.27568 0.09281 0.71808 0.0
H22 H 0.27425 0.07838 0.69208 0.0
H23 H 0.25373 0.11137 0.71951 0.0
H24 H 0.3002 0.10725 0.7185 0.0
O25 O 0.38101 0.03477 0.76252 0.0
O26 O 0.36642 0.00137 0.80902 0.0
H27 H 0.2279 0.04493 0.8427 0.0
H28 H 0.22924 0.00167 0.82452 0.0
C29 C 0.24499 0.02471 0.83078 0.0
H30 H 0.26492 0.01746 0.85099 0.0
H31 H 0.33505 0.9735 0.87778 0.0
O32 O 0.34633 0.06371 0.68847 0.0
C33 C 0.3878 0.02072 0.79301 0.0
Co34 Co 0.98958 0.81909 0.96861 0.0
Co35 Co 0.0322 0.80721 0.03945 0.0
C36 C 0.06495 0.81178 0.96548 0.0
O37 O 0.03649 0.81575 0.94875 0.0
O38 O 0.06605 0.80858 -0.00022 0.0
C39 C 0.961 0.82246 0.89547 0.0
O40 O -0.00736 0.81905 0.88346 0.0
C41 C 0.0816 0.76953 0.08301 0.0
C42 C 0.07779 0.79511 0.13658 0.0
C43 C 0.09569 0.76961 0.11762 0.0
N44 N 0.05706 0.79411 0.08147 0.0
N45 N 0.05489 0.80949 0.11347 0.0
C46 C 0.08946 0.7453 0.05227 0.0
H47 H 0.06742 0.74432 0.03308 0.0
H48 H 0.09525 0.71888 0.06251 0.0
H49 H 0.11222 0.75479 0.03735 0.0
C50 C 0.95692 0.75499 -0.00687 0.0
N51 N 0.97992 0.78041 -0.00249 0.0
N52 N -0.00339 0.77585 0.02822 0.0
C53 C 0.98422 0.74764 0.04487 0.0
C54 C 0.95871 0.73342 0.02306 0.0
C55 C 0.9351 0.75068 0.95992 0.0
H56 H 0.91383 0.77009 0.96048 0.0
H57 H 0.95078 0.75539 0.93539 0.0
H58 H 0.92414 0.72432 0.95814 0.0
O59 O 0.98465 0.86284 -0.00332 0.0
O60 O 0.01431 0.85428 0.04739 0.0
H61 H 0.00118 0.75866 0.09912 0.0
H62 H 0.97482 0.72059 0.09507 0.0
C63 C -0.00483 0.73595 0.08185 0.0
H64 H 0.01874 0.71965 0.07942 0.0
H65 H 0.03796 0.82982 0.11945 0.0
O66 O 0.95537 0.82258 0.92937 0.0
C67 C -0.00436 0.87346 0.02728 0.0
Co68 Co 0.16945 0.48721 0.20074 0.0
Co69 Co 0.18236 0.51578 0.27824 0.0
C70 C 0.19317 0.55765 0.2092 0.0
O71 O 0.18726 0.53267 0.18761 0.0
O72 O 0.19087 0.55378 0.24334 0.0
C73 C 0.17427 0.45822 0.12676 0.0
O74 O 0.20435 0.47272 0.12223 0.0
C75 C 0.22965 0.54779 0.3274 0.0
C76 C 0.19805 0.5581 0.37607 0.0
C77 C 0.22995 0.56426 0.36082 0.0
N78 N 0.19905 0.53264 0.32307 0.0
N79 N 0.18035 0.5384 0.35239 0.0
C80 C 0.25585 0.55041 0.29781 0.0
H81 H 0.2611 0.57805 0.29203 0.0
H82 H 0.24706 0.53712 0.27284 0.0
H83 H 0.2803 0.53788 0.30641 0.0
C84 C 0.21934 0.43358 0.22595 0.0
N85 N 0.20006 0.46237 0.23106 0.0
N86 N 0.20466 0.47375 0.26439 0.0
C87 C 0.22653 0.45214 0.28178 0.0
C88 C 0.23666 0.42614 0.25789 0.0
C89 C 0.22116 0.41355 0.19121 0.0
H90 H 0.19478 0.40789 0.18153 0.0
H91 H 0.23413 0.4294 0.17042 0.0
H92 H 0.23562 0.38882 0.19463 0.0
O93 O 0.12424 0.49378 0.22457 0.0
O94 O 0.13235 0.51005 0.28161 0.0
H95 H 0.21775 0.46755 0.337 0.0
H96 H 0.24921 0.43305 0.33166 0.0
C97 C 0.23898 0.45744 0.31983 0.0
H98 H 0.25996 0.47665 0.31978 0.0
H99 H 0.15486 0.53071 0.35532 0.0
O100 O 0.15844 0.46133 0.15666 0.0
C101 C 0.1124 0.50198 0.25562 0.0
Co102 Co 0.50087 0.67205 0.45594 0.0
Co103 Co 0.463 0.68103 0.52967 0.0
C104 C 0.4277 0.6883 0.4563 0.0
O105 O 0.45517 0.68539 0.43791 0.0
O106 O 0.42828 0.68607 0.49067 0.0
C107 C 0.53348 0.68387 0.38606 0.0
O108 O 0.51595 0.71307 0.38401 0.0
C109 C 0.42806 0.73053 0.57477 0.0
C110 C 0.41775 0.70243 0.62561 0.0
C111 C 0.41363 0.73424 0.60874 0.0
N112 N 0.4407 0.69823 0.57168 0.0
N113 N 0.43436 0.68136 0.60203 0.0
C114 C 0.42822 0.7567 0.54482 0.0
H115 H 0.43777 0.74511 0.5192 0.0
H116 H 0.44516 0.77855 0.55204 0.0
H117 H 0.40186 0.76738 0.5408 0.0
C118 C 0.54514 0.7269 0.4884 0.0
N119 N 0.51854 0.70474 0.48911 0.0
N120 N 0.50338 0.70687 0.52092 0.0
C121 C 0.52036 0.72972 0.54174 0.0
C122 C 0.54676 0.74369 0.52164 0.0
C123 C 0.56753 0.7328 0.45616 0.0
H124 H 0.57733 0.70759 0.44575 0.0
H125 H 0.552 0.74524 0.43448 0.0
H126 H 0.58952 0.74976 0.46281 0.0
O127 O 0.49708 0.6258 0.47928 0.0
O128 O 0.47375 0.63137 0.53394 0.0
H129 H 0.53778 0.74298 0.59552 0.0
H130 H 0.49546 0.75828 0.58429 0.0
C131 C 0.5136 0.73616 0.58119 0.0
H132 H 0.50256 0.71288 0.59398 0.0
H133 H 0.44138 0.65556 0.60664 0.0
O134 O 0.53109 0.66481 0.41392 0.0
C135 C 0.48688 0.61261 0.509 0.0
Co136 Co 0.67549 0.96631 0.72456 0.0
Co137 Co 0.70855 0.0242 0.77182 0.0
C138 C 0.68855 0.03887 0.69695 0.0
O139 O 0.67608 0.0086 0.69416 0.0
O140 O 0.70439 0.04847 0.7254 0.0
C141 C 0.6722 0.92409 0.66081 0.0
O142 O 0.69567 0.94515 0.64832 0.0
C143 C 0.7419 0.08499 0.80428 0.0
C144 C 0.74902 0.06728 0.86077 0.0
C145 C 0.7548 0.09495 0.83783 0.0
N146 N 0.72984 0.05262 0.80722 0.0
N147 N 0.73356 0.04247 0.84118 0.0
C148 C 0.73752 0.10688 0.77112 0.0
H149 H 0.71108 0.10392 0.76029 0.0
H150 H 0.75594 0.09801 0.75003 0.0
H151 H 0.74151 0.13472 0.77709 0.0
C152 C 0.73917 0.92888 0.7457 0.0
N153 N 0.7186 0.95714 0.74605 0.0
N154 N 0.73312 0.98165 0.76546 0.0
C155 C 0.76403 0.97007 0.77722 0.0
C156 C 0.76875 0.93616 0.76525 0.0
C157 C 0.73077 0.89588 0.72635 0.0
H158 H 0.70405 0.88823 0.73276 0.0
H159 H 0.73241 0.90024 0.69671 0.0
H160 H 0.74885 0.87456 0.73349 0.0
O161 O 0.63952 0.97279 0.76147 0.0
O162 O 0.6613 0.01815 0.79017 0.0
H163 H 0.77875 0.98851 0.82956 0.0
H164 H 0.81444 0.98058 0.80001 0.0
C165 C 0.78763 0.99046 0.80111 0.0
H166 H 0.78721 0.01807 0.79299 0.0
H167 H 0.72563 0.01857 0.85093 0.0
O168 O 0.66113 0.92806 0.69295 0.0
C169 C 0.63724 -0.00332 0.78514 0.0
Co170 Co 0.01744 0.17825 0.96432 0.0
Co171 Co 0.97019 0.20083 0.02866 0.0
C172 C 0.94484 0.20141 0.95222 0.0
O173 O 0.97361 0.1903 0.94028 0.0
O174 O 0.93998 0.2066 0.98593 0.0
C175 C 0.0546 0.17999 0.89575 0.0
O176 O 0.03507 0.20644 0.88627 0.0
C177 C 0.92296 0.24369 0.07123 0.0
C178 C 0.92754 0.22035 0.1257 0.0
C179 C 0.9102 0.24583 0.1063 0.0
N180 N 0.9463 0.21787 0.06993 0.0
N181 N 0.94891 0.20394 0.10252 0.0
C182 C 0.91502 0.26701 0.0399 0.0
H183 H 0.93663 0.26679 0.0203 0.0
H184 H 0.91012 0.29391 0.04941 0.0
H185 H 0.89167 0.25762 0.02577 0.0
C186 C 0.05942 0.23576 -0.00772 0.0
N187 N 0.03223 0.21459 -0.00568 0.0
N188 N 0.01237 0.22441 0.02143 0.0
C189 C 0.02619 0.25252 0.03725 0.0
C190 C 0.05629 0.26058 0.01919 0.0
C191 C 0.08612 0.23401 0.96319 0.0
H192 H 0.07429 0.24195 0.93707 0.0
H193 H 0.10801 0.25133 0.96917 0.0
H194 H 0.09574 0.207 0.96029 0.0
O195 O 0.01236 0.13555 -0.00747 0.0
O196 O 0.97741 0.15073 0.03738 0.0
H197 H 0.02876 0.29071 0.08024 0.0
H198 H 0.98729 0.2862 0.05872 0.0
C199 C 0.01045 0.27193 0.06834 0.0
H200 H 0.00245 0.25349 0.08959 0.0
H201 H 0.96518 0.18315 0.10887 0.0
O202 O 0.05131 0.16649 0.92688 0.0
C203 C -0.00467 0.12805 0.02073 0.0
Co204 Co 0.79958 0.52573 0.19931 0.0
Co205 Co 0.78992 0.49276 0.27518 0.0
C206 C 0.791 0.45135 0.20454 0.0
O207 O 0.7925 0.47767 0.18409 0.0
O208 O 0.79071 0.45464 0.23887 0.0
C209 C 0.82504 0.54425 0.13146 0.0
O210 O 0.83881 0.51311 0.13383 0.0
C211 C 0.74339 0.45505 0.31917 0.0
C212 C 0.77236 0.44461 0.36967 0.0
C213 C 0.74171 0.43777 0.35182 0.0
N214 N 0.7734 0.47167 0.31774 0.0
N215 N 0.79063 0.46566 0.34807 0.0
C216 C 0.71899 0.45219 0.28775 0.0
H217 H 0.72944 0.46485 0.26329 0.0
H218 H 0.69417 0.46495 0.29458 0.0
H219 H 0.71381 0.42451 0.28187 0.0
C220 C 0.74037 0.56816 0.22335 0.0
N221 N 0.76364 0.54256 0.22832 0.0
N222 N 0.76085 0.53033 0.26139 0.0
C223 C 0.73636 0.54863 0.27903 0.0
C224 C 0.72252 0.57295 0.2554 0.0
C225 C 0.73659 0.58851 0.18913 0.0
H226 H 0.75943 0.60519 0.18586 0.0
H227 H 0.73573 0.57056 0.16558 0.0
H228 H 0.71307 0.60507 0.18952 0.0
O229 O 0.84405 0.5285 0.22587 0.0
O230 O 0.83751 0.50806 0.28162 0.0
H231 H 0.71616 0.56744 0.33006 0.0
H232 H 0.70639 0.52332 0.31927 0.0
C233 C 0.72663 0.54326 0.31784 0.0
H234 H 0.74926 0.53431 0.33375 0.0
H235 H 0.81543 0.47459 0.3533 0.0
O236 O 0.80504 0.55478 0.15641 0.0
C237 C 0.85613 0.52158 0.25724 0.0
Co238 Co 0.46774 0.30468 0.43041 0.0
Co239 Co 0.50951 0.28825 0.50081 0.0
C240 C 0.54291 0.29906 0.42791 0.0
O241 O 0.51476 0.30133 0.4104 0.0
O242 O 0.54316 0.29508 0.46205 0.0
C243 C 0.43083 0.29666 0.36143 0.0
O244 O 0.44616 0.26649 0.35692 0.0
C245 C 0.55495 0.24027 0.53836 0.0
C246 C 0.55527 0.26044 0.59448 0.0
C247 C 0.56837 0.234 0.57275 0.0
N248 N 0.53465 0.26861 0.54003 0.0
N249 N 0.53505 0.28071 0.57357 0.0
C250 C 0.56161 0.22045 0.50401 0.0
H251 H 0.55507 0.23601 0.47987 0.0
H252 H 0.54506 0.19726 0.50317 0.0
H253 H 0.58898 0.21205 0.50254 0.0
C254 C 0.42826 0.24332 0.45582 0.0
N255 N 0.45508 0.26523 0.45747 0.0
N256 N 0.47321 0.25847 0.48689 0.0
C257 C 0.45879 0.23192 0.50457 0.0
C258 C 0.43032 0.22115 0.48518 0.0
C259 C 0.39943 0.24562 0.42895 0.0
H260 H 0.39283 0.27312 0.42353 0.0
H261 H 0.40765 0.23317 0.40323 0.0
H262 H 0.37627 0.23205 0.43885 0.0
O263 O 0.46551 0.34635 0.4618 0.0
O264 O 0.49188 0.3348 0.51396 0.0
H265 H 0.47463 0.24289 0.55919 0.0
H266 H 0.44856 0.20473 0.55477 0.0
C267 C 0.46903 0.22016 0.54181 0.0
H268 H 0.4925 0.20374 0.53995 0.0
H269 H 0.52143 0.30268 0.58217 0.0
O270 O 0.43621 0.31448 0.38985 0.0
C271 C 0.4751 0.35547 0.49348 0.0
H272 H 0.24403 0.13394 0.78737 0.0
H273 H 0.18566 0.04029 0.77497 0.0
H274 H 0.19222 0.1646 0.80864 0.0
H275 H 0.13385 0.07077 0.79556 0.0
H276 H 0.08193 0.11545 0.89841 0.0
H277 H 0.12579 0.09018 0.85974 0.0
H278 H 0.12922 0.18447 0.79721 0.0
H279 H 0.08457 0.21018 0.83642 0.0
C280 C 0.2198 0.12037 0.78804 0.0
C281 C 0.21854 0.08487 0.78005 0.0
C282 C 0.19022 0.13784 0.80004 0.0
C283 C 0.15923 0.11986 0.80416 0.0
C284 C 0.15756 0.08506 0.79309 0.0
C285 C 0.18705 0.06767 0.7813 0.0
C286 C 0.09178 0.13083 0.8763 0.0
C287 C 0.07999 0.16486 0.87052 0.0
C288 C 0.11666 0.11619 0.85389 0.0
C289 C 0.13062 0.13526 0.82527 0.0
C290 C 0.11871 0.16925 0.81908 0.0
C291 C 0.09323 0.18386 0.84138 0.0
H292 H 0.97941 0.66972 0.04619 0.0
H293 H 0.88913 0.72974 0.0175 0.0
H294 H 0.94303 0.62161 0.06393 0.0
H295 H 0.85264 0.68107 0.03331 0.0
H296 H 0.80617 0.61201 0.12368 0.0
H297 H 0.83643 0.6559 0.08988 0.0
H298 H 0.90365 0.57712 0.04455 0.0
H299 H 0.87389 0.53308 0.07938 0.0
C300 C 0.95176 0.67234 0.04328 0.0
C301 C 0.93695 0.70336 0.03086 0.0
C302 C 0.93093 0.64467 0.05286 0.0
C303 C 0.8949 0.64752 0.04999 0.0
C304 C 0.88027 0.6782 0.03615 0.0
C305 C 0.90112 0.70593 0.02684 0.0
C306 C 0.82695 0.60389 0.10596 0.0
C307 C 0.83813 0.56919 0.10479 0.0
C308 C 0.8442 0.62908 0.08635 0.0
C309 C 0.87282 0.62005 0.06498 0.0
C310 C 0.88215 0.58493 0.06143 0.0
C311 C 0.86495 0.5597 0.08119 0.0
H312 H 0.23667 0.37186 0.30453 0.0
H313 H 0.29807 0.42266 0.22382 0.0
H314 H 0.2856 0.33394 0.31979 0.0
H315 H 0.34717 0.385 0.23913 0.0
H316 H 0.42624 0.36174 0.33601 0.0
H317 H 0.37907 0.38732 0.30119 0.0
H318 H 0.33031 0.28752 0.29456 0.0
H319 H 0.37844 0.2616 0.32891 0.0
C320 C 0.26051 0.3743 0.28965 0.0
C321 C 0.26408 0.40016 0.26343 0.0
C322 C 0.2883 0.35251 0.29807 0.0
C323 C 0.32006 0.35666 0.2806 0.0
C324 C 0.32291 0.38135 0.25292 0.0
C325 C 0.295 0.40283 0.24423 0.0
C326 C 0.40591 0.34513 0.32618 0.0
C327 C 0.40574 0.30984 0.33497 0.0
C328 C 0.37905 0.35967 0.30615 0.0
C329 C 0.35114 0.33933 0.29526 0.0
C330 C 0.35166 0.30363 0.30265 0.0
C331 C 0.37912 0.28884 0.32204 0.0
H332 H 0.69418 0.90203 0.59379 0.0
H333 H 0.61582 0.88555 0.67475 0.0
H334 H 0.66621 0.85954 0.554 0.0
H335 H 0.5882 0.84381 0.63517 0.0
H336 H 0.52435 0.80655 0.54289 0.0
H337 H 0.55762 0.85159 0.57294 0.0
H338 H 0.65067 0.79145 0.55678 0.0
H339 H 0.61698 0.74595 0.52667 0.0
C340 C 0.67116 0.88931 0.60311 0.0
C341 C 0.65707 0.89726 0.63729 0.0
C342 C 0.6553 0.86504 0.58043 0.0
C343 C 0.62491 0.84892 0.59146 0.0
C344 C 0.61134 0.85636 0.62586 0.0
C345 C 0.6273 0.88013 0.64858 0.0
C346 C 0.55201 0.80333 0.54515 0.0
C347 C 0.56826 0.77295 0.53286 0.0
C348 C 0.57097 0.82896 0.56234 0.0
C349 C 0.60653 0.82463 0.56751 0.0
C350 C 0.62326 0.79531 0.55295 0.0
C351 C 0.60412 0.76943 0.53576 0.0
H352 H 0.94144 0.17769 0.88269 0.0
H353 H 0.88103 0.22962 0.96516 0.0
H354 H 0.8898 0.16576 0.84872 0.0
H355 H 0.82899 0.21925 0.93 0.0
H356 H 0.757 0.12633 0.9035 0.0
H357 H 0.79958 0.16695 0.92479 0.0
H358 H 0.83971 0.17529 0.81589 0.0
H359 H 0.7992 0.13207 0.79548 0.0
C360 C 0.9172 0.18772 0.89295 0.0
C361 C 0.91517 0.20348 0.92724 0.0
C362 C 0.88738 0.18116 0.87318 0.0
C363 C 0.85493 0.1907 0.88706 0.0
C364 C 0.85345 0.21053 0.91911 0.0
C365 C 0.88329 0.21661 0.9392 0.0
C366 C 0.77447 0.13742 0.88397 0.0
C367 C 0.77463 0.12596 0.84784 0.0
C368 C 0.79869 0.16119 0.89606 0.0
C369 C 0.82353 0.17419 0.87215 0.0
C370 C 0.82139 0.16533 0.83519 0.0
C371 C 0.7976 0.14096 0.82327 0.0
H372 H 0.85169 0.27177 0.07391 0.0
H373 H 0.91055 0.27473 0.17336 0.0
H374 H 0.8133 0.31694 0.09737 0.0
H375 H 0.87205 0.3195 0.197 0.0
H376 H 0.80041 0.43416 0.13321 0.0
H377 H 0.82182 0.37912 0.10979 0.0
H378 H 0.81311 0.33409 0.21639 0.0
H379 H 0.79204 0.38931 0.24009 0.0
C380 C 0.85659 0.28225 0.10064 0.0
C381 C 0.88485 0.27069 0.12133 0.0
C382 C 0.83437 0.3078 0.11421 0.0
C383 C 0.83979 0.32192 0.14889 0.0
C384 C 0.86693 0.30888 0.17032 0.0
C385 C 0.88915 0.28342 0.15671 0.0
C386 C 0.80216 0.41232 0.1515 0.0
C387 C 0.79527 0.41636 0.18868 0.0
C388 C 0.81432 0.38069 0.13802 0.0
C389 C 0.81976 0.35251 0.16144 0.0
C390 C 0.80983 0.35562 0.1979 0.0
C391 C 0.79761 0.38723 0.21139 0.0
H392 H 0.60762 0.29252 0.45603 0.0
H393 H 0.55246 0.32506 0.35975 0.0
H394 H 0.65862 0.32204 0.43489 0.0
H395 H 0.60398 0.35383 0.33818 0.0
H396 H 0.75018 0.37227 0.37779 0.0
H397 H 0.70484 0.33027 0.39037 0.0
H398 H 0.6278 0.40765 0.36341 0.0
H399 H 0.67286 0.44917 0.35123 0.0
C400 C 0.60668 0.30506 0.4298 0.0
C401 C 0.57572 0.3073 0.41001 0.0
C402 C 0.63602 0.32185 0.41763 0.0
C403 C 0.63494 0.341 0.38539 0.0
C404 C 0.60517 0.33996 0.36366 0.0
C405 C 0.57577 0.32321 0.37584 0.0
C406 C 0.72348 0.38014 0.37486 0.0
C407 C 0.71482 0.41358 0.36292 0.0
C408 C 0.69763 0.35615 0.38177 0.0
C409 C 0.66283 0.36542 0.37691 0.0
C410 C 0.65439 0.39932 0.36607 0.0
C411 C 0.68013 0.42316 0.35925 0.0
H412 H 0.61246 0.23491 0.63011 0.0
H413 H 0.5746 0.16719 0.54576 0.0
H414 H 0.64678 0.18734 0.65428 0.0
H415 H 0.61176 0.12142 0.56686 0.0
H416 H 0.63706 0.03527 0.64721 0.0
H417 H 0.61214 0.08262 0.6133 0.0
H418 H 0.69387 0.14964 0.6499 0.0
H419 H 0.71769 0.10225 0.68594 0.0
C420 C 0.61214 0.21024 0.61605 0.0
C421 C 0.59126 0.20545 0.5853 0.0
C422 C 0.63229 0.18301 0.6296 0.0
C423 C 0.63236 0.15038 0.61245 0.0
C424 C 0.61222 0.14597 0.58111 0.0
C425 C 0.5914 0.17285 0.56823 0.0
C426 C 0.65022 0.05986 0.64743 0.0
C427 C 0.67909 0.06514 0.66964 0.0
C428 C 0.63595 0.08719 0.62774 0.0
C429 C 0.65066 0.12032 0.6291 0.0
C430 C 0.68127 0.12478 0.64899 0.0
C431 C 0.69518 0.09753 0.66933 0.0
H432 H 0.65715 0.56821 0.231 0.0
H433 H 0.72396 0.63078 0.29711 0.0
H434 H 0.60711 0.60126 0.25304 0.0
H435 H 0.67414 0.66408 0.31907 0.0
H436 H 0.57562 0.72393 0.34476 0.0
H437 H 0.62022 0.703 0.30255 0.0
H438 H 0.58711 0.59793 0.3197 0.0
H439 H 0.54354 0.61861 0.36207 0.0
C440 C 0.66105 0.58977 0.2494 0.0
C441 C 0.69395 0.59706 0.26275 0.0
C442 C 0.6326 0.60859 0.26196 0.0
C443 C 0.63687 0.63508 0.28777 0.0
C444 C 0.67023 0.64406 0.29886 0.0
C445 C 0.69861 0.62497 0.28657 0.0
C446 C 0.57756 0.69649 0.33875 0.0
C447 C 0.55654 0.67275 0.35669 0.0
C448 C 0.60298 0.68457 0.31478 0.0
C449 C 0.6069 0.64892 0.30785 0.0
C450 C 0.58434 0.62557 0.32418 0.0
C451 C 0.55964 0.63734 0.34864 0.0
H452 H 0.36989 0.23466 0.51883 0.0
H453 H 0.43636 0.15161 0.48243 0.0
H454 H 0.33773 0.19373 0.55607 0.0
H455 H 0.40433 0.11055 0.51926 0.0
H456 H 0.33375 0.04239 0.58393 0.0
H457 H 0.34697 0.08213 0.53444 0.0
H458 H 0.36258 0.1644 0.61222 0.0
H459 H 0.34959 0.12489 0.66153 0.0
C460 C 0.37653 0.20735 0.51767 0.0
C461 C 0.40516 0.19591 0.49779 0.0
C462 C 0.35844 0.18406 0.5391 0.0
C463 C 0.36876 0.14909 0.5407 0.0
C464 C 0.39561 0.13727 0.51824 0.0
C465 C 0.4139 0.16064 0.49717 0.0
C466 C 0.33954 0.0691 0.59037 0.0
C467 C 0.34108 0.08048 0.62658 0.0
C468 C 0.34706 0.09177 0.56207 0.0
C469 C 0.35564 0.1263 0.56954 0.0
C470 C 0.35556 0.13803 0.60565 0.0
C471 C 0.34853 0.11531 0.6339 0.0
H472 H 0.96348 0.83453 0.82217 0.0
H473 H 0.89313 0.82722 0.91232 0.0
H474 H 0.91616 0.85442 0.78336 0.0
H475 H 0.8466 0.84803 0.87433 0.0
H476 H 0.76248 0.87539 0.80092 0.0
H477 H 0.80865 0.83884 0.82515 0.0
H478 H 0.88381 0.90757 0.77894 0.0
H479 H 0.83737 0.94264 0.75285 0.0
C480 C 0.9379 0.83675 0.83357 0.0
C481 C 0.93214 0.82982 0.87042 0.0
C482 C 0.91085 0.84831 0.81142 0.0
C483 C 0.87762 0.85311 0.82577 0.0
C484 C 0.87167 0.84425 0.86212 0.0
C485 C 0.89854 0.83264 0.88411 0.0
C486 C 0.78893 0.882 0.79519 0.0
C487 C 0.7966 0.91195 0.77561 0.0
C488 C 0.81536 0.86132 0.8093 0.0
C489 C 0.84997 0.8706 0.80458 0.0
C490 C 0.85751 0.89949 0.78296 0.0
C491 C 0.831 0.91987 0.76844 0.0
H492 H 0.12271 0.26447 0.04152 0.0
H493 H 0.03588 0.32647 0.00685 0.0
H494 H 0.15432 0.3171 0.0567 0.0
H495 H 0.06764 0.37925 0.0205 0.0
H496 H 0.10685 0.44765 0.11524 0.0
H497 H 0.08096 0.40249 0.07908 0.0
H498 H 0.18136 0.37192 0.03923 0.0
H499 H 0.20757 0.41747 0.07651 0.0
C500 C 0.11087 0.28951 0.0364 0.0
C501 C 0.07693 0.29186 0.02376 0.0
C502 C 0.12897 0.31959 0.04466 0.0
C503 C 0.11333 0.35234 0.04009 0.0
C504 C 0.08014 0.3544 0.02488 0.0
C505 C 0.06197 0.32436 0.0171 0.0
C506 C 0.12337 0.43178 0.09817 0.0
C507 C 0.15919 0.43567 0.09892 0.0
C508 C 0.1085 0.40605 0.07713 0.0
C509 C 0.12913 0.38348 0.05637 0.0
C510 C 0.16489 0.38878 0.05524 0.0
C511 C 0.17985 0.41493 0.07627 0.0
H512 H 0.41563 0.67934 0.3838 0.0
H513 H 0.36364 0.6928 0.48654 0.0
H514 H 0.36309 0.65623 0.35753 0.0
H515 H 0.31129 0.66937 0.4601 0.0
H516 H 0.21947 0.62754 0.39218 0.0
H517 H 0.26355 0.66921 0.41081 0.0
H518 H 0.34289 0.59629 0.37867 0.0
H519 H 0.29932 0.5546 0.36169 0.0
C520 C 0.39274 0.67856 0.40046 0.0
C521 C 0.39411 0.68674 0.43759 0.0
C522 C 0.36272 0.66519 0.38542 0.0
C523 C 0.33364 0.66012 0.40718 0.0
C524 C 0.33351 0.67278 0.44287 0.0
C525 C 0.36358 0.68607 0.45799 0.0
C526 C 0.24639 0.62053 0.38933 0.0
C527 C 0.25612 0.58831 0.37452 0.0
C528 C 0.27146 0.6444 0.39963 0.0
C529 C 0.30648 0.63633 0.39498 0.0
C530 C 0.31603 0.6037 0.38114 0.0
C531 C 0.2911 0.57984 0.37133 0.0
H532 H 0.31947 0.88912 0.74651 0.0
H533 H 0.35507 0.94689 0.65387 0.0
H534 H 0.33579 0.8353 0.71664 0.0
H535 H 0.37065 0.89272 0.6236 0.0
H536 H 0.44223 0.79784 0.61143 0.0
H537 H 0.41696 0.85109 0.63518 0.0
H538 H 0.32614 0.79513 0.66668 0.0
H539 H 0.35185 0.7415 0.64262 0.0
C540 C 0.33014 0.89034 0.71945 0.0
C541 C 0.33649 0.92236 0.70279 0.0
C542 C 0.33931 0.8594 0.70225 0.0
C543 C 0.35493 0.8598 0.668 0.0
C544 C 0.35927 0.89169 0.65035 0.0
C545 C 0.35014 0.92269 0.66758 0.0
C546 C 0.41657 0.7971 0.62269 0.0
C547 C 0.39853 0.76592 0.62446 0.0
C548 C 0.40208 0.82757 0.63632 0.0
C549 C 0.36928 0.82745 0.65219 0.0
C550 C 0.35145 0.79601 0.65455 0.0
C551 C 0.36608 0.7654 0.64091 0.0
H552 H 0.07372 0.82417 0.89306 0.0
H553 H 0.13016 0.80865 -0.0069 0.0
H554 H 0.12607 0.84424 0.86407 0.0
H555 H 0.18202 0.82951 0.96436 0.0
H556 H 0.27435 0.8635 0.8997 0.0
H557 H 0.22723 0.82566 0.91823 0.0
H558 H 0.15362 0.9 0.87584 0.0
H559 H 0.20039 0.93739 0.85785 0.0
C560 C 0.09738 0.82432 0.90865 0.0
C561 C 0.09758 0.81573 0.94564 0.0
C562 C 0.12731 0.83594 0.89209 0.0
C563 C 0.15787 0.83922 0.91222 0.0
C564 C 0.15887 0.8273 0.94813 0.0
C565 C 0.129 0.81557 0.96467 0.0
C566 C 0.24801 0.87133 0.89414 0.0
C567 C 0.24078 0.90274 0.8766 0.0
C568 C 0.22116 0.84976 0.90459 0.0
C569 C 0.18678 0.85956 0.89783 0.0
C570 C 0.17982 0.89113 0.88029 0.0
C571 C 0.20656 0.91258 0.86999 0.0
H572 H 0.09747 0.74278 0.18535 0.0
H573 H 0.154 0.74396 0.08477 0.0
H574 H 0.1351 0.69694 0.2079 0.0
H575 H 0.19158 0.6976 0.10713 0.0
H576 H 0.18967 0.578 0.13832 0.0
H577 H 0.17765 0.6363 0.11705 0.0
H578 H 0.19265 0.67605 0.22555 0.0
H579 H 0.20427 0.61752 0.24712 0.0
C580 C 0.11837 0.73365 0.16832 0.0
C581 C 0.12195 0.74586 0.1328 0.0
C582 C 0.14015 0.70756 0.18132 0.0
C583 C 0.16607 0.69336 0.15907 0.0
C584 C 0.1714 0.70762 0.12458 0.0
C585 C 0.14963 0.73382 0.11165 0.0
C586 C 0.19151 0.59924 0.15748 0.0
C587 C 0.19677 0.593 0.19461 0.0
C588 C 0.18481 0.63277 0.14522 0.0
C589 C 0.18337 0.66062 0.16986 0.0
C590 C 0.19282 0.65492 0.20615 0.0
C591 C 0.19954 0.62138 0.21844 0.0
H592 H 0.60011 0.05412 0.77342 0.0
H593 H 0.5984 0.95681 0.83005 0.0
H594 H 0.53993 0.06346 0.78611 0.0
H595 H 0.53861 0.96754 0.84706 0.0
H596 H 0.42548 0.96571 0.81406 0.0
H597 H 0.48682 0.96288 0.82303 0.0
H598 H 0.49136 0.07481 0.81475 0.0
H599 H 0.42993 0.07647 0.80135 0.0
C600 C 0.58686 0.03538 0.78999 0.0
C601 C 0.6034 0.00464 0.80048 0.0
C602 C 0.55218 0.04081 0.79773 0.0
C603 C 0.53342 0.01601 0.81722 0.0
C604 C 0.55135 0.98667 0.83067 0.0
C605 C 0.58579 0.98059 0.82149 0.0
C606 C 0.43968 0.98972 0.81471 0.0
C607 C 0.42332 0.02123 0.80651 0.0
C608 C 0.47512 0.98825 0.82024 0.0
C609 C 0.49499 0.01855 0.81892 0.0
C610 C 0.47763 0.05061 0.81436 0.0
C611 C 0.44228 0.05181 0.80719 0.0
H612 H 0.9422 0.09385 0.05218 0.0
H613 H 0.0468 0.08037 0.01499 0.0
H614 H 0.93863 0.03128 0.06298 0.0
H615 H 0.04348 0.01831 0.02677 0.0
H616 H 0.03336 0.91173 0.07488 0.0
H617 H 0.03148 0.97457 0.08259 0.0
H618 H 0.94397 0.98089 0.01057 0.0
H619 H 0.94612 0.91807 0.00207 0.0
C620 C 0.96465 0.07765 0.04725 0.0
C621 C -0.00527 0.09174 0.03259 0.0
C622 C 0.96254 0.04201 0.05333 0.0
C623 C -0.00919 0.02027 0.04579 0.0
C624 C 0.02148 0.03469 0.03312 0.0
C625 C 0.02331 0.07008 0.02621 0.0
C626 C 0.01317 0.92638 0.06138 0.0
C627 C 0.99011 0.91006 0.03751 0.0
C628 C 0.01219 0.96228 0.0658 0.0
C629 C 0.98766 0.98231 0.0471 0.0
C630 C 0.96295 0.96583 0.02546 0.0
C631 C 0.96432 0.92998 0.02046 0.0
H632 H 0.06322 0.48944 0.20476 0.0
H633 H 0.07615 0.52074 0.31673 0.0
H634 H 0.00164 0.49859 0.20984 0.0
H635 H 0.01382 0.52995 0.32161 0.0
H636 H 0.8949 0.4975 0.31437 0.0
H637 H 0.95774 0.49459 0.31776 0.0
H638 H 0.96426 0.55181 0.2177 0.0
H639 H 0.90186 0.55461 0.214 0.0
C640 C 0.05296 0.49811 0.23056 0.0
C641 C 0.0747 0.50458 0.26028 0.0
C642 C 0.01766 0.50362 0.23334 0.0
C643 C 0.00313 0.51558 0.26591 0.0
C644 C 0.0245 0.52086 0.29616 0.0
C645 C 0.06009 0.51556 0.29332 0.0
C646 C 0.90976 0.51011 0.29353 0.0
C647 C 0.89341 0.52572 0.26355 0.0
C648 C 0.94569 0.50846 0.29553 0.0
C649 C 0.96568 0.52234 0.26759 0.0
C650 C 0.94935 0.54024 0.23918 0.0
C651 C 0.9136 0.54193 0.23717 0.0
H652 H 0.50266 0.38953 0.55229 0.0
H653 H 0.43762 0.40491 0.45817 0.0
H654 H 0.50482 0.45244 0.56124 0.0
H655 H 0.44022 0.4672 0.4671 0.0
H656 H 0.50446 0.56519 0.45737 0.0
H657 H 0.49793 0.50282 0.45969 0.0
H658 H 0.4633 0.51029 0.57051 0.0
H659 H 0.46938 0.5735 0.56835 0.0
C660 C 0.48817 0.40616 0.53409 0.0
C661 C 0.47049 0.39222 0.50412 0.0
C662 C 0.48945 0.44209 0.53925 0.0
C663 C 0.47323 0.46441 0.51441 0.0
C664 C 0.4534 0.45041 0.48624 0.0
C665 C 0.4519 0.41472 0.48123 0.0
C666 C 0.49579 0.55375 0.48246 0.0
C667 C 0.48716 0.57445 0.51259 0.0
C668 C 0.49186 0.51801 0.48365 0.0
C669 C 0.4796 0.50201 0.51508 0.0
C670 C 0.47264 0.52222 0.54595 0.0
C671 C 0.47615 0.55828 0.54465 0.0
loop_
_geom_bond_atom_site_label_1
_geom_bond_atom_site_label_2
_geom_bond_distance
_geom_bond_site_symmetry_2
_ccdc_geom_bond_type
Co0 O3 1.970 1_545 S
Co0 N17 1.989 . S
Co0 O25 1.967 . S
Co0 O32 1.920 . S
Co1 O4 1.966 . S
Co1 N10 2.022 . S
Co1 N18 1.993 1_565 S
Co1 O26 1.941 . S
C2 O3 1.258 . S
C2 O4 1.263 . S
O3 Co0 1.970 1_565 S
O3 C2 1.258 . S
O4 Co1 1.966 . S
O4 C2 1.263 . S
C5 O6 1.235 . S
C5 O32 1.289 . S
O6 C5 1.235 . S
C7 C9 1.400 . S
C7 N10 1.351 . S
C7 C12 1.501 . S
C8 C9 1.387 . S
C8 N11 1.341 . S
C9 C7 1.400 . S
C9 C8 1.387 . S
N10 Co1 2.022 . S
N10 C7 1.351 . S
N10 N11 1.365 . S
N11 C8 1.341 . S
N11 N10 1.365 . S
N11 H31 0.862 . S
C12 C7 1.501 . S
C12 H13 0.961 . S
C12 H14 0.961 . S
C12 H15 0.960 . S
H13 C12 0.961 . S
H14 C12 0.961 . S
H15 C12 0.960 . S
C16 N17 1.342 . S
C16 C20 1.401 . S
C16 C21 1.499 . S
N17 Co0 1.989 . S
N17 C16 1.342 . S
N17 N18 1.388 . S
N18 Co1 1.993 1_545 S
N18 N17 1.388 . S
N18 C19 1.346 . S
C19 N18 1.346 . S
C19 C20 1.396 . S
C19 C29 1.510 . S
C20 C16 1.401 . S
C20 C19 1.396 . S
C21 C16 1.499 . S
C21 H22 0.959 . S
C21 H23 0.960 . S
C21 H24 0.961 . S
H22 C21 0.959 . S
H23 C21 0.960 . S
H24 C21 0.961 . S
O25 Co0 1.967 . S
O25 C33 1.240 1_545 S
O26 Co1 1.941 . S
O26 C33 1.285 . S
H27 C29 0.959 . S
H28 C29 0.961 . S
C29 C19 1.510 . S
C29 H27 0.959 . S
C29 H28 0.961 . S
C29 H30 0.960 1_545 S
H30 C29 0.960 1_565 S
H31 N11 0.862 . S
O32 Co0 1.920 . S
O32 C5 1.289 . S
C33 O25 1.240 1_565 S
C33 O26 1.285 . S
Co34 O37 1.970 1_655 S
Co34 N51 1.989 1_556 S
Co34 O59 1.961 1_556 S
Co34 O66 1.920 . S
Co35 O38 1.966 1_554 S
Co35 N44 2.022 . S
Co35 N52 1.993 1_455 S
Co35 O60 1.941 . S
C36 O37 1.258 . S
C36 O38 1.263 . S
O37 Co34 1.970 1_455 S
O37 C36 1.258 . S
O38 Co35 1.966 1_556 S
O38 C36 1.263 . S
C39 O40 1.235 . S
C39 O66 1.289 . S
O40 C39 1.235 . S
C41 C43 1.400 . S
C41 N44 1.351 . S
C41 C46 1.501 . S
C42 C43 1.387 . S
C42 N45 1.341 . S
C43 C41 1.400 . S
C43 C42 1.387 . S
N44 Co35 2.022 . S
N44 C41 1.351 . S
N44 N45 1.365 . S
N45 C42 1.341 . S
N45 N44 1.365 . S
N45 H65 0.862 . S
C46 C41 1.501 . S
C46 H47 0.961 . S
C46 H48 0.961 . S
C46 H49 0.960 . S
H47 C46 0.961 . S
H48 C46 0.961 . S
H49 C46 0.960 . S
C50 N51 1.342 . S
C50 C54 1.401 . S
C50 C55 1.499 1_554 S
N51 Co34 1.989 1_554 S
N51 C50 1.342 . S
N51 N52 1.388 . S
N52 Co35 1.993 1_655 S
N52 N51 1.388 . S
N52 C53 1.346 . S
C53 N52 1.346 . S
C53 C54 1.396 . S
C53 C63 1.510 1_655 S
C54 C50 1.401 . S
C54 C53 1.396 . S
C55 C50 1.499 1_556 S
C55 H56 0.959 . S
C55 H57 0.960 . S
C55 H58 0.961 1_556 S
H56 C55 0.959 . S
H57 C55 0.960 . S
H58 C55 0.961 1_554 S
O59 Co34 1.961 1_554 S
O59 C67 1.266 1_655 S
O60 Co35 1.941 . S
O60 C67 1.266 . S
H61 C63 0.959 1_655 S
H62 C63 0.961 . S
C63 C53 1.510 1_455 S
C63 H61 0.959 1_455 S
C63 H62 0.961 . S
C63 H64 0.960 . S
H64 C63 0.960 . S
H65 N45 0.862 . S
O66 Co34 1.920 . S
O66 C39 1.289 . S
C67 O59 1.266 1_455 S
C67 O60 1.266 . S
Co68 O71 1.970 . S
Co68 N85 1.989 . S
Co68 O93 1.967 . S
Co68 O100 1.920 . S
Co69 O72 1.966 . S
Co69 N78 2.022 . S
Co69 N86 1.993 . S
Co69 O94 1.941 . S
C70 O71 1.258 . S
C70 O72 1.263 . S
O71 Co68 1.970 . S
O71 C70 1.258 . S
O72 Co69 1.966 . S
O72 C70 1.263 . S
C73 O74 1.235 . S
C73 O100 1.289 . S
O74 C73 1.235 . S
C75 C77 1.400 . S
C75 N78 1.351 . S
C75 C80 1.501 . S
C76 C77 1.387 . S
C76 N79 1.341 . S
C77 C75 1.400 . S
C77 C76 1.387 . S
N78 Co69 2.022 . S
N78 C75 1.351 . S
N78 N79 1.365 . S
N79 C76 1.341 . S
N79 N78 1.365 . S
N79 H99 0.862 . S
C80 C75 1.501 . S
C80 H81 0.961 . S
C80 H82 0.961 . S
C80 H83 0.960 . S
H81 C80 0.961 . S
H82 C80 0.961 . S
H83 C80 0.960 . S
C84 N85 1.342 . S
C84 C88 1.401 . S
C84 C89 1.499 . S
N85 Co68 1.989 . S
N85 C84 1.342 . S
N85 N86 1.388 . S
N86 Co69 1.993 . S
N86 N85 1.388 . S
N86 C87 1.346 . S
C87 N86 1.346 . S
C87 C88 1.396 . S
C87 C97 1.510 . S
C88 C84 1.401 . S
C88 C87 1.396 . S
C89 C84 1.499 . S
C89 H90 0.959 . S
C89 H91 0.960 . S
C89 H92 0.961 . S
H90 C89 0.959 . S
H91 C89 0.960 . S
H92 C89 0.961 . S
O93 Co68 1.967 . S
O93 C101 1.258 . S
O94 Co69 1.941 . S
O94 C101 1.266 . S
H95 C97 0.959 . S
H96 C97 0.961 . S
C97 C87 1.510 . S
C97 H95 0.959 . S
C97 H96 0.961 . S
C97 H98 0.960 . S
H98 C97 0.960 . S
H99 N79 0.862 . S
O100 Co68 1.920 . S
O100 C73 1.289 . S
C101 O93 1.258 . S
C101 O94 1.266 . S
Co102 O105 1.970 . S
Co102 N119 1.989 . S
Co102 O127 1.967 . S
Co102 O134 1.920 . S
Co103 O106 1.966 . S
Co103 N112 2.022 . S
Co103 N120 1.993 . S
Co103 O128 1.941 . S
C104 O105 1.258 . S
C104 O106 1.263 . S
O105 Co102 1.970 . S
O105 C104 1.258 . S
O106 Co103 1.966 . S
O106 C104 1.263 . S
C107 O108 1.235 . S
C107 O134 1.289 . S
O108 C107 1.235 . S
C109 C111 1.400 . S
C109 N112 1.351 . S
C109 C114 1.501 . S
C110 C111 1.387 . S
C110 N113 1.341 . S
C111 C109 1.400 . S
C111 C110 1.387 . S
N112 Co103 2.022 . S
N112 C109 1.351 . S
N112 N113 1.365 . S
N113 C110 1.341 . S
N113 N112 1.365 . S
N113 H133 0.862 . S
C114 C109 1.501 . S
C114 H115 0.961 . S
C114 H116 0.961 . S
C114 H117 0.960 . S
H115 C114 0.961 . S
H116 C114 0.961 . S
H117 C114 0.960 . S
C118 N119 1.342 . S
C118 C122 1.401 . S
C118 C123 1.499 . S
N119 Co102 1.989 . S
N119 C118 1.342 . S
N119 N120 1.388 . S
N120 Co103 1.993 . S
N120 N119 1.388 . S
N120 C121 1.346 . S
C121 N120 1.346 . S
C121 C122 1.396 . S
C121 C131 1.510 . S
C122 C118 1.401 . S
C122 C121 1.396 . S
C123 C118 1.499 . S
C123 H124 0.959 . S
C123 H125 0.960 . S
C123 H126 0.961 . S
H124 C123 0.959 . S
H125 C123 0.960 . S
H126 C123 0.961 . S
O127 Co102 1.967 . S
O127 C135 1.258 . S
O128 Co103 1.941 . S
O128 C135 1.266 . S
H129 C131 0.959 . S
H130 C131 0.961 . S
C131 C121 1.510 . S
C131 H129 0.959 . S
C131 H130 0.961 . S
C131 H132 0.960 . S
H132 C131 0.960 . S
H133 N113 0.862 . S
O134 Co102 1.920 . S
O134 C107 1.289 . S
C135 O127 1.258 . S
C135 O128 1.266 . S
Co136 O139 1.970 1_565 S
Co136 N153 1.989 . S
Co136 O161 1.967 . S
Co136 O168 1.920 . S
Co137 O140 1.966 . S
Co137 N146 2.022 . S
Co137 N154 1.993 1_545 S
Co137 O162 1.941 . S
C138 O139 1.258 . S
C138 O140 1.263 . S
O139 Co136 1.970 1_545 S
O139 C138 1.258 . S
O140 Co137 1.966 . S
O140 C138 1.263 . S
C141 O142 1.235 . S
C141 O168 1.289 . S
O142 C141 1.235 . S
C143 C145 1.400 . S
C143 N146 1.351 . S
C143 C148 1.501 . S
C144 C145 1.387 . S
C144 N147 1.341 . S
C145 C143 1.400 . S
C145 C144 1.387 . S
N146 Co137 2.022 . S
N146 C143 1.351 . S
N146 N147 1.365 . S
N147 C144 1.341 . S
N147 N146 1.365 . S
N147 H167 0.862 . S
C148 C143 1.501 . S
C148 H149 0.961 . S
C148 H150 0.961 . S
C148 H151 0.960 . S
H149 C148 0.961 . S
H150 C148 0.961 . S
H151 C148 0.960 . S
C152 N153 1.342 . S
C152 C156 1.401 . S
C152 C157 1.499 . S
N153 Co136 1.989 . S
N153 C152 1.342 . S
N153 N154 1.388 . S
N154 Co137 1.993 1_565 S
N154 N153 1.388 . S
N154 C155 1.346 . S
C155 N154 1.346 . S
C155 C156 1.396 . S
C155 C165 1.510 1_565 S
C156 C152 1.401 . S
C156 C155 1.396 . S
C157 C152 1.499 . S
C157 H158 0.959 . S
C157 H159 0.960 . S
C157 H160 0.961 . S
H158 C157 0.959 . S
H159 C157 0.960 . S
H160 C157 0.961 . S
O161 Co136 1.967 . S
O161 C169 1.258 1_565 S
O162 Co137 1.941 . S
O162 C169 1.266 . S
H163 C165 0.959 1_565 S
H164 C165 0.961 . S
C165 C155 1.510 1_545 S
C165 H163 0.959 1_545 S
C165 H164 0.961 . S
C165 H166 0.960 . S
H166 C165 0.960 . S
H167 N147 0.862 . S
O168 Co136 1.920 . S
O168 C141 1.289 . S
C169 O161 1.258 1_545 S
C169 O162 1.266 . S
Co170 O173 1.970 1_455 S
Co170 N187 1.989 1_556 S
Co170 O195 1.966 1_556 S
Co170 O202 1.920 . S
Co171 O174 1.966 1_554 S
Co171 N180 2.022 . S
Co171 N188 1.993 1_655 S
Co171 O196 1.941 . S
C172 O173 1.258 . S
C172 O174 1.263 . S
O173 Co170 1.970 1_655 S
O173 C172 1.258 . S
O174 Co171 1.966 1_556 S
O174 C172 1.263 . S
C175 O176 1.235 . S
C175 O202 1.289 . S
O176 C175 1.235 . S
C177 C179 1.400 . S
C177 N180 1.351 . S
C177 C182 1.501 . S
C178 C179 1.387 . S
C178 N181 1.341 . S
C179 C177 1.400 . S
C179 C178 1.387 . S
N180 Co171 2.022 . S
N180 C177 1.351 . S
N180 N181 1.365 . S
N181 C178 1.341 . S
N181 N180 1.365 . S
N181 H201 0.862 . S
C182 C177 1.501 . S
C182 H183 0.961 . S
C182 H184 0.961 . S
C182 H185 0.960 . S
H183 C182 0.961 . S
H184 C182 0.961 . S
H185 C182 0.960 . S
C186 N187 1.342 . S
C186 C190 1.401 . S
C186 C191 1.499 1_554 S
N187 Co170 1.989 1_554 S
N187 C186 1.342 . S
N187 N188 1.388 . S
N188 Co171 1.993 1_455 S
N188 N187 1.388 . S
N188 C189 1.346 . S
C189 N188 1.346 . S
C189 C190 1.396 . S
C189 C199 1.510 . S
C190 C186 1.401 . S
C190 C189 1.396 . S
C191 C186 1.499 1_556 S
C191 H192 0.959 . S
C191 H193 0.960 . S
C191 H194 0.961 1_556 S
H192 C191 0.959 . S
H193 C191 0.960 . S
H194 C191 0.961 1_554 S
O195 Co170 1.966 1_554 S
O195 C203 1.259 1_455 S
O196 Co171 1.941 . S
O196 C203 1.266 . S
H197 C199 0.959 . S
H198 C199 0.961 . S
C199 C189 1.510 . S
C199 H197 0.959 . S
C199 H198 0.961 . S
C199 H200 0.960 1_455 S
H200 C199 0.960 1_655 S
H201 N181 0.862 . S
O202 Co170 1.920 . S
O202 C175 1.289 . S
C203 O195 1.259 1_655 S
C203 O196 1.266 . S
Co204 O207 1.970 . S
Co204 N221 1.989 . S
Co204 O229 1.967 . S
Co204 O236 1.920 . S
Co205 O208 1.966 . S
Co205 N214 2.022 . S
Co205 N222 1.993 . S
Co205 O230 1.941 . S
C206 O207 1.258 . S
C206 O208 1.263 . S
O207 Co204 1.970 . S
O207 C206 1.258 . S
O208 Co205 1.966 . S
O208 C206 1.263 . S
C209 O210 1.235 . S
C209 O236 1.289 . S
O210 C209 1.235 . S
C211 C213 1.400 . S
C211 N214 1.351 . S
C211 C216 1.501 . S
C212 C213 1.387 . S
C212 N215 1.341 . S
C213 C211 1.400 . S
C213 C212 1.387 . S
N214 Co205 2.022 . S
N214 C211 1.351 . S
N214 N215 1.365 . S
N215 C212 1.341 . S
N215 N214 1.365 . S
N215 H235 0.862 . S
C216 C211 1.501 . S
C216 H217 0.961 . S
C216 H218 0.961 . S
C216 H219 0.960 . S
H217 C216 0.961 . S
H218 C216 0.961 . S
H219 C216 0.960 . S
C220 N221 1.342 . S
C220 C224 1.401 . S
C220 C225 1.499 . S
N221 Co204 1.989 . S
N221 C220 1.342 . S
N221 N222 1.388 . S
N222 Co205 1.993 . S
N222 N221 1.388 . S
N222 C223 1.346 . S
C223 N222 1.346 . S
C223 C224 1.396 . S
C223 C233 1.510 . S
C224 C220 1.401 . S
C224 C223 1.396 . S
C225 C220 1.499 . S
C225 H226 0.959 . S
C225 H227 0.960 . S
C225 H228 0.961 . S
H226 C225 0.959 . S
H227 C225 0.960 . S
H228 C225 0.961 . S
O229 Co204 1.967 . S
O229 C237 1.258 . S
O230 Co205 1.941 . S
O230 C237 1.266 . S
H231 C233 0.959 . S
H232 C233 0.961 . S
C233 C223 1.510 . S
C233 H231 0.959 . S
C233 H232 0.961 . S
C233 H234 0.960 . S
H234 C233 0.960 . S
H235 N215 0.862 . S
O236 Co204 1.920 . S
O236 C209 1.289 . S
C237 O229 1.258 . S
C237 O230 1.266 . S
Co238 O241 1.970 . S
Co238 N255 1.989 . S
Co238 O263 1.967 . S
Co238 O270 1.920 . S
Co239 O242 1.966 . S
Co239 N248 2.022 . S
Co239 N256 1.993 . S
Co239 O264 1.941 . S
C240 O241 1.258 . S
C240 O242 1.263 . S
O241 Co238 1.970 . S
O241 C240 1.258 . S
O242 Co239 1.966 . S
O242 C240 1.263 . S
C243 O244 1.235 . S
C243 O270 1.289 . S
O244 C243 1.235 . S
C245 C247 1.400 . S
C245 N248 1.351 . S
C245 C250 1.501 . S
C246 C247 1.387 . S
C246 N249 1.341 . S
C247 C245 1.400 . S
C247 C246 1.387 . S
N248 Co239 2.022 . S
N248 C245 1.351 . S
N248 N249 1.365 . S
N249 C246 1.341 . S
N249 N248 1.365 . S
N249 H269 0.862 . S
C250 C245 1.501 . S
C250 H251 0.961 . S
C250 H252 0.961 . S
C250 H253 0.960 . S
H251 C250 0.961 . S
H252 C250 0.961 . S
H253 C250 0.960 . S
C254 N255 1.342 . S
C254 C258 1.401 . S
C254 C259 1.499 . S
N255 Co238 1.989 . S
N255 C254 1.342 . S
N255 N256 1.388 . S
N256 Co239 1.993 . S
N256 N255 1.388 . S
N256 C257 1.346 . S
C257 N256 1.346 . S
C257 C258 1.396 . S
C257 C267 1.510 . S
C258 C254 1.401 . S
C258 C257 1.396 . S
C259 C254 1.499 . S
C259 H260 0.959 . S
C259 H261 0.960 . S
C259 H262 0.961 . S
H260 C259 0.959 . S
H261 C259 0.960 . S
H262 C259 0.961 . S
O263 Co238 1.967 . S
O263 C271 1.258 . S
O264 Co239 1.941 . S
O264 C271 1.266 . S
H265 C267 0.959 . S
H266 C267 0.961 . S
C267 C257 1.510 . S
C267 H265 0.959 . S
C267 H266 0.961 . S
C267 H268 0.960 . S
H268 C267 0.960 . S
H269 N249 0.862 . S
O270 Co238 1.920 . S
O270 C243 1.289 . S
C271 O263 1.258 . S
C271 O264 1.266 . S
H272 C280 0.950 . S
H273 C285 0.950 . S
H274 C282 0.950 . S
H275 C284 0.950 . S
H276 C286 0.950 . S
H277 C288 0.950 . S
H278 C290 0.950 . S
H279 C291 0.950 . S
C280 H272 0.950 . S
C280 C281 1.386 . S
C280 C282 1.391 . S
C281 C280 1.386 . S
C281 C285 1.393 . S
C282 H274 0.950 . S
C282 C280 1.391 . S
C282 C283 1.400 . S
C283 C282 1.400 . S
C283 C284 1.398 . S
C283 C289 1.491 . S
C284 H275 0.950 . S
C284 C283 1.398 . S
C284 C285 1.391 . S
C285 H273 0.950 . S
C285 C281 1.393 . S
C285 C284 1.391 . S
C286 H276 0.950 . S
C286 C287 1.386 . S
C286 C288 1.391 . S
C287 C286 1.386 . S
C287 C291 1.393 . S
C288 H277 0.950 . S
C288 C286 1.391 . S
C288 C289 1.400 . S
C289 C283 1.491 . S
C289 C288 1.400 . S
C289 C290 1.398 . S
C290 H278 0.950 . S
C290 C289 1.398 . S
C290 C291 1.391 . S
C291 H279 0.950 . S
C291 C287 1.393 . S
C291 C290 1.391 . S
H292 C300 0.950 . S
H293 C305 0.950 . S
H294 C302 0.950 . S
H295 C304 0.950 . S
H296 C306 0.950 . S
H297 C308 0.950 . S
H298 C310 0.950 . S
H299 C311 0.950 . S
C300 H292 0.950 . S
C300 C301 1.386 . S
C300 C302 1.391 . S
C301 C300 1.386 . S
C301 C305 1.393 . S
C302 H294 0.950 . S
C302 C300 1.391 . S
C302 C303 1.400 . S
C303 C302 1.400 . S
C303 C304 1.398 . S
C303 C309 1.491 . S
C304 H295 0.950 . S
C304 C303 1.398 . S
C304 C305 1.391 . S
C305 H293 0.950 . S
C305 C301 1.393 . S
C305 C304 1.391 . S
C306 H296 0.950 . S
C306 C307 1.386 . S
C306 C308 1.391 . S
C307 C306 1.386 . S
C307 C311 1.393 . S
C308 H297 0.950 . S
C308 C306 1.391 . S
C308 C309 1.400 . S
C309 C303 1.491 . S
C309 C308 1.400 . S
C309 C310 1.398 . S
C310 H298 0.950 . S
C310 C309 1.398 . S
C310 C311 1.391 . S
C311 H299 0.950 . S
C311 C307 1.393 . S
C311 C310 1.391 . S
H312 C320 0.950 . S
H313 C325 0.950 . S
H314 C322 0.950 . S
H315 C324 0.950 . S
H316 C326 0.950 . S
H317 C328 0.950 . S
H318 C330 0.950 . S
H319 C331 0.950 . S
C320 H312 0.950 . S
C320 C321 1.386 . S
C320 C322 1.391 . S
C321 C320 1.386 . S
C321 C325 1.393 . S
C322 H314 0.950 . S
C322 C320 1.391 . S
C322 C323 1.400 . S
C323 C322 1.400 . S
C323 C324 1.398 . S
C323 C329 1.491 . S
C324 H315 0.950 . S
C324 C323 1.398 . S
C324 C325 1.391 . S
C325 H313 0.950 . S
C325 C321 1.393 . S
C325 C324 1.391 . S
C326 H316 0.950 . S
C326 C327 1.386 . S
C326 C328 1.391 . S
C327 C326 1.386 . S
C327 C331 1.393 . S
C328 H317 0.950 . S
C328 C326 1.391 . S
C328 C329 1.400 . S
C329 C323 1.491 . S
C329 C328 1.400 . S
C329 C330 1.398 . S
C330 H318 0.950 . S
C330 C329 1.398 . S
C330 C331 1.391 . S
C331 H319 0.950 . S
C331 C327 1.393 . S
C331 C330 1.391 . S
H332 C340 0.950 . S
H333 C345 0.950 . S
H334 C342 0.950 . S
H335 C344 0.950 . S
H336 C346 0.950 . S
H337 C348 0.950 . S
H338 C350 0.950 . S
H339 C351 0.950 . S
C340 H332 0.950 . S
C340 C341 1.386 . S
C340 C342 1.391 . S
C341 C340 1.386 . S
C341 C345 1.393 . S
C342 H334 0.950 . S
C342 C340 1.391 . S
C342 C343 1.400 . S
C343 C342 1.400 . S
C343 C344 1.398 . S
C343 C349 1.491 . S
C344 H335 0.950 . S
C344 C343 1.398 . S
C344 C345 1.391 . S
C345 H333 0.950 . S
C345 C341 1.393 . S
C345 C344 1.391 . S
C346 H336 0.950 . S
C346 C347 1.386 . S
C346 C348 1.391 . S
C347 C346 1.386 . S
C347 C351 1.393 . S
C348 H337 0.950 . S
C348 C346 1.391 . S
C348 C349 1.400 . S
C349 C343 1.491 . S
C349 C348 1.400 . S
C349 C350 1.398 . S
C350 H338 0.950 . S
C350 C349 1.398 . S
C350 C351 1.391 . S
C351 H339 0.950 . S
C351 C347 1.393 . S
C351 C350 1.391 . S
H352 C360 0.950 . S
H353 C365 0.950 . S
H354 C362 0.950 . S
H355 C364 0.950 . S
H356 C366 0.950 . S
H357 C368 0.950 . S
H358 C370 0.950 . S
H359 C371 0.950 . S
C360 H352 0.950 . S
C360 C361 1.386 . S
C360 C362 1.391 . S
C361 C360 1.386 . S
C361 C365 1.393 . S
C362 H354 0.950 . S
C362 C360 1.391 . S
C362 C363 1.400 . S
C363 C362 1.400 . S
C363 C364 1.398 . S
C363 C369 1.491 . S
C364 H355 0.950 . S
C364 C363 1.398 . S
C364 C365 1.391 . S
C365 H353 0.950 . S
C365 C361 1.393 . S
C365 C364 1.391 . S
C366 H356 0.950 . S
C366 C367 1.386 . S
C366 C368 1.391 . S
C367 C366 1.386 . S
C367 C371 1.393 . S
C368 H357 0.950 . S
C368 C366 1.391 . S
C368 C369 1.400 . S
C369 C363 1.491 . S
C369 C368 1.400 . S
C369 C370 1.398 . S
C370 H358 0.950 . S
C370 C369 1.398 . S
C370 C371 1.391 . S
C371 H359 0.950 . S
C371 C367 1.393 . S
C371 C370 1.391 . S
H372 C380 0.950 . S
H373 C385 0.950 . S
H374 C382 0.950 . S
H375 C384 0.950 . S
H376 C386 0.950 . S
H377 C388 0.950 . S
H378 C390 0.950 . S
H379 C391 0.950 . S
C380 H372 0.950 . S
C380 C381 1.386 . S
C380 C382 1.391 . S
C381 C380 1.386 . S
C381 C385 1.393 . S
C382 H374 0.950 . S
C382 C380 1.391 . S
C382 C383 1.400 . S
C383 C382 1.400 . S
C383 C384 1.398 . S
C383 C389 1.491 . S
C384 H375 0.950 . S
C384 C383 1.398 . S
C384 C385 1.391 . S
C385 H373 0.950 . S
C385 C381 1.393 . S
C385 C384 1.391 . S
C386 H376 0.950 . S
C386 C387 1.386 . S
C386 C388 1.391 . S
C387 C386 1.386 . S
C387 C391 1.393 . S
C388 H377 0.950 . S
C388 C386 1.391 . S
C388 C389 1.400 . S
C389 C383 1.491 . S
C389 C388 1.400 . S
C389 C390 1.398 . S
C390 H378 0.950 . S
C390 C389 1.398 . S
C390 C391 1.391 . S
C391 H379 0.950 . S
C391 C387 1.393 . S
C391 C390 1.391 . S
H392 C400 0.950 . S
H393 C405 0.950 . S
H394 C402 0.950 . S
H395 C404 0.950 . S
H396 C406 0.950 . S
H397 C408 0.950 . S
H398 C410 0.950 . S
H399 C411 0.950 . S
C400 H392 0.950 . S
C400 C401 1.386 . S
C400 C402 1.391 . S
C401 C400 1.386 . S
C401 C405 1.393 . S
C402 H394 0.950 . S
C402 C400 1.391 . S
C402 C403 1.400 . S
C403 C402 1.400 . S
C403 C404 1.398 . S
C403 C409 1.491 . S
C404 H395 0.950 . S
C404 C403 1.398 . S
C404 C405 1.391 . S
C405 H393 0.950 . S
C405 C401 1.393 . S
C405 C404 1.391 . S
C406 H396 0.950 . S
C406 C407 1.386 . S
C406 C408 1.391 . S
C407 C406 1.386 . S
C407 C411 1.393 . S
C408 H397 0.950 . S
C408 C406 1.391 . S
C408 C409 1.400 . S
C409 C403 1.491 . S
C409 C408 1.400 . S
C409 C410 1.398 . S
C410 H398 0.950 . S
C410 C409 1.398 . S
C410 C411 1.391 . S
C411 H399 0.950 . S
C411 C407 1.393 . S
C411 C410 1.391 . S
H412 C420 0.950 . S
H413 C425 0.950 . S
H414 C422 0.950 . S
H415 C424 0.950 . S
H416 C426 0.950 . S
H417 C428 0.950 . S
H418 C430 0.950 . S
H419 C431 0.950 . S
C420 H412 0.950 . S
C420 C421 1.386 . S
C420 C422 1.391 . S
C421 C420 1.386 . S
C421 C425 1.393 . S
C422 H414 0.950 . S
C422 C420 1.391 . S
C422 C423 1.400 . S
C423 C422 1.400 . S
C423 C424 1.398 . S
C423 C429 1.491 . S
C424 H415 0.950 . S
C424 C423 1.398 . S
C424 C425 1.391 . S
C425 H413 0.950 . S
C425 C421 1.393 . S
C425 C424 1.391 . S
C426 H416 0.950 . S
C426 C427 1.386 . S
C426 C428 1.391 . S
C427 C426 1.386 . S
C427 C431 1.393 . S
C428 H417 0.950 . S
C428 C426 1.391 . S
C428 C429 1.400 . S
C429 C423 1.491 . S
C429 C428 1.400 . S
C429 C430 1.398 . S
C430 H418 0.950 . S
C430 C429 1.398 . S
C430 C431 1.391 . S
C431 H419 0.950 . S
C431 C427 1.393 . S
C431 C430 1.391 . S
H432 C440 0.950 . S
H433 C445 0.950 . S
H434 C442 0.950 . S
H435 C444 0.950 . S
H436 C446 0.950 . S
H437 C448 0.950 . S
H438 C450 0.950 . S
H439 C451 0.950 . S
C440 H432 0.950 . S
C440 C441 1.386 . S
C440 C442 1.391 . S
C441 C440 1.386 . S
C441 C445 1.393 . S
C442 H434 0.950 . S
C442 C440 1.391 . S
C442 C443 1.400 . S
C443 C442 1.400 . S
C443 C444 1.398 . S
C443 C449 1.491 . S
C444 H435 0.950 . S
C444 C443 1.398 . S
C444 C445 1.391 . S
C445 H433 0.950 . S
C445 C441 1.393 . S
C445 C444 1.391 . S
C446 H436 0.950 . S
C446 C447 1.386 . S
C446 C448 1.391 . S
C447 C446 1.386 . S
C447 C451 1.393 . S
C448 H437 0.950 . S
C448 C446 1.391 . S
C448 C449 1.400 . S
C449 C443 1.491 . S
C449 C448 1.400 . S
C449 C450 1.398 . S
C450 H438 0.950 . S
C450 C449 1.398 . S
C450 C451 1.391 . S
C451 H439 0.950 . S
C451 C447 1.393 . S
C451 C450 1.391 . S
H452 C460 0.950 . S
H453 C465 0.950 . S
H454 C462 0.950 . S
H455 C464 0.950 . S
H456 C466 0.950 . S
H457 C468 0.950 . S
H458 C470 0.950 . S
H459 C471 0.950 . S
C460 H452 0.950 . S
C460 C461 1.386 . S
C460 C462 1.391 . S
C461 C460 1.386 . S
C461 C465 1.393 . S
C462 H454 0.950 . S
C462 C460 1.391 . S
C462 C463 1.400 . S
C463 C462 1.400 . S
C463 C464 1.398 . S
C463 C469 1.491 . S
C464 H455 0.950 . S
C464 C463 1.398 . S
C464 C465 1.391 . S
C465 H453 0.950 . S
C465 C461 1.393 . S
C465 C464 1.391 . S
C466 H456 0.950 . S
C466 C467 1.386 . S
C466 C468 1.391 . S
C467 C466 1.386 . S
C467 C471 1.393 . S
C468 H457 0.950 . S
C468 C466 1.391 . S
C468 C469 1.400 . S
C469 C463 1.491 . S
C469 C468 1.400 . S
C469 C470 1.398 . S
C470 H458 0.950 . S
C470 C469 1.398 . S
C470 C471 1.391 . S
C471 H459 0.950 . S
C471 C467 1.393 . S
C471 C470 1.391 . S
H472 C480 0.950 . S
H473 C485 0.950 . S
H474 C482 0.950 . S
H475 C484 0.950 . S
H476 C486 0.950 . S
H477 C488 0.950 . S
H478 C490 0.950 . S
H479 C491 0.950 . S
C480 H472 0.950 . S
C480 C481 1.386 . S
C480 C482 1.391 . S
C481 C480 1.386 . S
C481 C485 1.393 . S
C482 H474 0.950 . S
C482 C480 1.391 . S
C482 C483 1.400 . S
C483 C482 1.400 . S
C483 C484 1.398 . S
C483 C489 1.491 . S
C484 H475 0.950 . S
C484 C483 1.398 . S
C484 C485 1.391 . S
C485 H473 0.950 . S
C485 C481 1.393 . S
C485 C484 1.391 . S
C486 H476 0.950 . S
C486 C487 1.386 . S
C486 C488 1.391 . S
C487 C486 1.386 . S
C487 C491 1.393 . S
C488 H477 0.950 . S
C488 C486 1.391 . S
C488 C489 1.400 . S
C489 C483 1.491 . S
C489 C488 1.400 . S
C489 C490 1.398 . S
C490 H478 0.950 . S
C490 C489 1.398 . S
C490 C491 1.391 . S
C491 H479 0.950 . S
C491 C487 1.393 . S
C491 C490 1.391 . S
H492 C500 0.950 . S
H493 C505 0.950 . S
H494 C502 0.950 . S
H495 C504 0.950 . S
H496 C506 0.950 . S
H497 C508 0.950 . S
H498 C510 0.950 . S
H499 C511 0.950 . S
C500 H492 0.950 . S
C500 C501 1.386 . S
C500 C502 1.391 . S
C501 C500 1.386 . S
C501 C505 1.393 . S
C502 H494 0.950 . S
C502 C500 1.391 . S
C502 C503 1.400 . S
C503 C502 1.400 . S
C503 C504 1.398 . S
C503 C509 1.491 . S
C504 H495 0.950 . S
C504 C503 1.398 . S
C504 C505 1.391 . S
C505 H493 0.950 . S
C505 C501 1.393 . S
C505 C504 1.391 . S
C506 H496 0.950 . S
C506 C507 1.386 . S
C506 C508 1.391 . S
C507 C506 1.386 . S
C507 C511 1.393 . S
C508 H497 0.950 . S
C508 C506 1.391 . S
C508 C509 1.400 . S
C509 C503 1.491 . S
C509 C508 1.400 . S
C509 C510 1.398 . S
C510 H498 0.950 . S
C510 C509 1.398 . S
C510 C511 1.391 . S
C511 H499 0.950 . S
C511 C507 1.393 . S
C511 C510 1.391 . S
H512 C520 0.950 . S
H513 C525 0.950 . S
H514 C522 0.950 . S
H515 C524 0.950 . S
H516 C526 0.950 . S
H517 C528 0.950 . S
H518 C530 0.950 . S
H519 C531 0.950 . S
C520 H512 0.950 . S
C520 C521 1.386 . S
C520 C522 1.391 . S
C521 C520 1.386 . S
C521 C525 1.393 . S
C522 H514 0.950 . S
C522 C520 1.391 . S
C522 C523 1.400 . S
C523 C522 1.400 . S
C523 C524 1.398 . S
C523 C529 1.491 . S
C524 H515 0.950 . S
C524 C523 1.398 . S
C524 C525 1.391 . S
C525 H513 0.950 . S
C525 C521 1.393 . S
C525 C524 1.391 . S
C526 H516 0.950 . S
C526 C527 1.386 . S
C526 C528 1.391 . S
C527 C526 1.386 . S
C527 C531 1.393 . S
C528 H517 0.950 . S
C528 C526 1.391 . S
C528 C529 1.400 . S
C529 C523 1.491 . S
C529 C528 1.400 . S
C529 C530 1.398 . S
C530 H518 0.950 . S
C530 C529 1.398 . S
C530 C531 1.391 . S
C531 H519 0.950 . S
C531 C527 1.393 . S
C531 C530 1.391 . S
H532 C540 0.950 . S
H533 C545 0.950 . S
H534 C542 0.950 . S
H535 C544 0.950 . S
H536 C546 0.950 . S
H537 C548 0.950 . S
H538 C550 0.950 . S
H539 C551 0.950 . S
C540 H532 0.950 . S
C540 C541 1.386 . S
C540 C542 1.391 . S
C541 C540 1.386 . S
C541 C545 1.393 . S
C542 H534 0.950 . S
C542 C540 1.391 . S
C542 C543 1.400 . S
C543 C542 1.400 . S
C543 C544 1.398 . S
C543 C549 1.491 . S
C544 H535 0.950 . S
C544 C543 1.398 . S
C544 C545 1.391 . S
C545 H533 0.950 . S
C545 C541 1.393 . S
C545 C544 1.391 . S
C546 H536 0.950 . S
C546 C547 1.386 . S
C546 C548 1.391 . S
C547 C546 1.386 . S
C547 C551 1.393 . S
C548 H537 0.950 . S
C548 C546 1.391 . S
C548 C549 1.400 . S
C549 C543 1.491 . S
C549 C548 1.400 . S
C549 C550 1.398 . S
C550 H538 0.950 . S
C550 C549 1.398 . S
C550 C551 1.391 . S
C551 H539 0.950 . S
C551 C547 1.393 . S
C551 C550 1.391 . S
H552 C560 0.950 . S
H553 C565 0.950 . S
H554 C562 0.950 . S
H555 C564 0.950 . S
H556 C566 0.950 . S
H557 C568 0.950 . S
H558 C570 0.950 . S
H559 C571 0.950 . S
C560 H552 0.950 . S
C560 C561 1.386 . S
C560 C562 1.391 . S
C561 C560 1.386 . S
C561 C565 1.393 . S
C562 H554 0.950 . S
C562 C560 1.391 . S
C562 C563 1.400 . S
C563 C562 1.400 . S
C563 C564 1.398 . S
C563 C569 1.491 . S
C564 H555 0.950 . S
C564 C563 1.398 . S
C564 C565 1.391 . S
C565 H553 0.950 . S
C565 C561 1.393 . S
C565 C564 1.391 . S
C566 H556 0.950 . S
C566 C567 1.386 . S
C566 C568 1.391 . S
C567 C566 1.386 . S
C567 C571 1.393 . S
C568 H557 0.950 . S
C568 C566 1.391 . S
C568 C569 1.400 . S
C569 C563 1.491 . S
C569 C568 1.400 . S
C569 C570 1.398 . S
C570 H558 0.950 . S
C570 C569 1.398 . S
C570 C571 1.391 . S
C571 H559 0.950 . S
C571 C567 1.393 . S
C571 C570 1.391 . S
H572 C580 0.950 . S
H573 C585 0.950 . S
H574 C582 0.950 . S
H575 C584 0.950 . S
H576 C586 0.950 . S
H577 C588 0.950 . S
H578 C590 0.950 . S
H579 C591 0.950 . S
C580 H572 0.950 . S
C580 C581 1.386 . S
C580 C582 1.391 . S
C581 C580 1.386 . S
C581 C585 1.393 . S
C582 H574 0.950 . S
C582 C580 1.391 . S
C582 C583 1.400 . S
C583 C582 1.400 . S
C583 C584 1.398 . S
C583 C589 1.491 . S
C584 H575 0.950 . S
C584 C583 1.398 . S
C584 C585 1.391 . S
C585 H573 0.950 . S
C585 C581 1.393 . S
C585 C584 1.391 . S
C586 H576 0.950 . S
C586 C587 1.386 . S
C586 C588 1.391 . S
C587 C586 1.386 . S
C587 C591 1.393 . S
C588 H577 0.950 . S
C588 C586 1.391 . S
C588 C589 1.400 . S
C589 C583 1.491 . S
C589 C588 1.400 . S
C589 C590 1.398 . S
C590 H578 0.950 . S
C590 C589 1.398 . S
C590 C591 1.391 . S
C591 H579 0.950 . S
C591 C587 1.393 . S
C591 C590 1.391 . S
H592 C600 0.950 . S
H593 C605 0.950 . S
H594 C602 0.950 . S
H595 C604 0.950 . S
H596 C606 0.950 . S
H597 C608 0.950 . S
H598 C610 0.950 . S
H599 C611 0.950 . S
C600 H592 0.950 . S
C600 C601 1.386 . S
C600 C602 1.391 . S
C601 C600 1.386 . S
C601 C605 1.393 1_545 S
C602 H594 0.950 . S
C602 C600 1.391 . S
C602 C603 1.400 . S
C603 C602 1.400 . S
C603 C604 1.398 1_545 S
C603 C609 1.491 . S
C604 H595 0.950 . S
C604 C603 1.398 1_565 S
C604 C605 1.391 . S
C605 H593 0.950 . S
C605 C601 1.393 1_565 S
C605 C604 1.391 . S
C606 H596 0.950 . S
C606 C607 1.359 1_565 S
C606 C608 1.391 . S
C607 C606 1.359 1_545 S
C607 C611 1.421 . S
C608 H597 0.950 . S
C608 C606 1.391 . S
C608 C609 1.400 1_565 S
C609 C603 1.491 . S
C609 C608 1.400 1_545 S
C609 C610 1.398 . S
C610 H598 0.950 . S
C610 C609 1.398 . S
C610 C611 1.391 . S
C611 H599 0.950 . S
C611 C607 1.421 . S
C611 C610 1.391 . S
H612 C620 0.950 1_556 S
H613 C625 0.950 . S
H614 C622 0.950 1_556 S
H615 C624 0.950 . S
H616 C626 0.950 . S
H617 C628 0.950 . S
H618 C630 0.950 1_556 S
H619 C631 0.950 1_556 S
C620 H612 0.950 1_554 S
C620 C621 1.386 1_655 S
C620 C622 1.391 . S
C621 C620 1.386 1_455 S
C621 C625 1.393 . S
C622 H614 0.950 1_554 S
C622 C620 1.391 . S
C622 C623 1.400 1_655 S
C623 C622 1.400 1_455 S
C623 C624 1.398 . S
C623 C629 1.491 1_545 S
C624 H615 0.950 . S
C624 C623 1.398 . S
C624 C625 1.391 . S
C625 H613 0.950 . S
C625 C621 1.393 . S
C625 C624 1.391 . S
C626 H616 0.950 . S
C626 C627 1.386 . S
C626 C628 1.391 . S
C627 C626 1.386 . S
C627 C631 1.393 1_455 S
C628 H617 0.950 . S
C628 C626 1.391 . S
C628 C629 1.400 . S
C629 C623 1.491 1_565 S
C629 C628 1.400 . S
C629 C630 1.398 1_455 S
C630 H618 0.950 1_554 S
C630 C629 1.398 1_655 S
C630 C631 1.391 . S
C631 H619 0.950 1_554 S
C631 C627 1.393 1_655 S
C631 C630 1.391 . S
H632 C640 0.950 . S
H633 C645 0.950 . S
H634 C642 0.950 . S
H635 C644 0.950 . S
H636 C646 0.950 . S
H637 C648 0.950 . S
H638 C650 0.950 . S
H639 C651 0.950 . S
C640 H632 0.950 . S
C640 C641 1.386 . S
C640 C642 1.391 . S
C641 C640 1.386 . S
C641 C645 1.393 . S
C642 H634 0.950 . S
C642 C640 1.391 . S
C642 C643 1.400 . S
C643 C642 1.400 . S
C643 C644 1.398 . S
C643 C649 1.491 1_455 S
C644 H635 0.950 . S
C644 C643 1.398 . S
C644 C645 1.391 . S
C645 H633 0.950 . S
C645 C641 1.393 . S
C645 C644 1.391 . S
C646 H636 0.950 . S
C646 C647 1.386 . S
C646 C648 1.391 . S
C647 C646 1.386 . S
C647 C651 1.393 . S
C648 H637 0.950 . S
C648 C646 1.391 . S
C648 C649 1.400 . S
C649 C643 1.491 1_655 S
C649 C648 1.400 . S
C649 C650 1.398 . S
C650 H638 0.950 . S
C650 C649 1.398 . S
C650 C651 1.391 . S
C651 H639 0.950 . S
C651 C647 1.393 . S
C651 C650 1.391 . S
H652 C660 0.950 . S
H653 C665 0.950 . S
H654 C662 0.950 . S
H655 C664 0.950 . S
H656 C666 0.950 . S
H657 C668 0.950 . S
H658 C670 0.950 . S
H659 C671 0.950 . S
C660 H652 0.950 . S
C660 C661 1.386 . S
C660 C662 1.391 . S
C661 C660 1.386 . S
C661 C665 1.393 . S
C662 H654 0.950 . S
C662 C660 1.391 . S
C662 C663 1.400 . S
C663 C662 1.400 . S
C663 C664 1.398 . S
C663 C669 1.491 . S
C664 H655 0.950 . S
C664 C663 1.398 . S
C664 C665 1.391 . S
C665 H653 0.950 . S
C665 C661 1.393 . S
C665 C664 1.391 . S
C666 H656 0.950 . S
C666 C667 1.386 . S
C666 C668 1.391 . S
C667 C666 1.386 . S
C667 C671 1.393 . S
C668 H657 0.950 . S
C668 C666 1.391 . S
C668 C669 1.400 . S
C669 C663 1.491 . S
C669 C668 1.400 . S
C669 C670 1.398 . S
C670 H658 0.950 . S
C670 C669 1.398 . S
C670 C671 1.391 . S
C671 H659 0.950 . S
C671 C667 1.393 . S
C671 C670 1.391 . S
C281 C20 0.915 . S
C287 C175 0.922 . S
C301 C54 0.906 . S
C307 C209 0.918 . S
C321 C88 0.924 . S
C327 C243 0.923 . S
C341 C141 0.923 . S
C347 C122 0.921 . S
C361 C172 0.987 . S
C367 C145 0.996 . S
C381 C179 0.984 . S
C387 C206 0.998 . S
C401 C240 1.000 . S
C407 C213 0.970 . S
C421 C247 0.968 . S
C427 C138 1.007 . S
C441 C224 0.910 . S
C447 C107 0.918 . S
C461 C258 0.925 . S
C467 C5 0.922 . S
C481 C39 0.919 . S
C487 C156 0.907 . S
C501 C190 0.918 . S
C507 C73 0.923 . S
C521 C104 0.987 . S
C527 C77 0.998 . S
C541 C2 1.005 . S
C547 C111 0.963 . S
C561 C36 0.987 . S
C567 C9 0.998 . S
C581 C43 0.972 . S
C587 C70 0.999 . S
C601 C169 1.146 . S
C607 C33 1.166 1_545 S
C621 C203 1.154 1_455 S
C627 C67 1.161 . S
C641 C101 1.151 . S
C647 C237 1.164 . S
C661 C271 1.146 . S
C667 C135 1.168 . S
