# Generated by pormake.
# Topology umg, (4)-cn, num edge types: 1
# Building blocks:
#     Node 0, Type 0, BuildingBlock: QUQFOY_clean_sbu_1, # of connection points: 4
#     Node 1, Type 0, BuildingBlock: QUQFOY_clean_sbu_1, # of connection points: 4
#     Node 2, Type 0, BuildingBlock: QUQFOY_clean_sbu_1, # of connection points: 4
#     Node 3, Type 0, BuildingBlock: QUQFOY_clean_sbu_1, # of connection points: 4
#     Node 4, Type 0, BuildingBlock: QUQFOY_clean_sbu_1, # of connection points: 4
#     Node 5, Type 0, BuildingBlock: QUQFOY_clean_sbu_1, # of connection points: 4
#     Node 6, Type 0, BuildingBlock: QUQFOY_clean_sbu_1, # of connection points: 4
#     Node 7, Type 0, BuildingBlock: QUQFOY_clean_sbu_1, # of connection points: 4
#     Node 8, Type 0, BuildingBlock: QUQFOY_clean_sbu_1, # of connection points: 4
#     Node 9, Type 0, BuildingBlock: QUQFOY_clean_sbu_1, # of connection points: 4
#     Node 10, Type 0, BuildingBlock: QUQFOY_clean_sbu_1, # of connection points: 4
#     Node 11, Type 0, BuildingBlock: QUQFOY_clean_sbu_1, # of connection points: 4
#     Edge 12, Type (0, 0), BuildingBlock: KIFKEQ_clean_linker_1, # of connection points: 2
#     Edge 13, Type (0, 0), BuildingBlock: KIFKEQ_clean_linker_1, # of connection points: 2
#     Edge 14, Type (0, 0), BuildingBlock: KIFKEQ_clean_linker_1, # of connection points: 2
#     Edge 15, Type (0, 0), BuildingBlock: KIFKEQ_clean_linker_1, # of connection points: 2
#     Edge 16, Type (0, 0), BuildingBlock: KIFKEQ_clean_linker_1, # of connection points: 2
#     Edge 17, Type (0, 0), BuildingBlock: KIFKEQ_clean_linker_1, # of connection points: 2
#     Edge 18, Type (0, 0), BuildingBlock: KIFKEQ_clean_linker_1, # of connection points: 2
#     Edge 19, Type (0, 0), BuildingBlock: KIFKEQ_clean_linker_1, # of connection points: 2
#     Edge 20, Type (0, 0), BuildingBlock: KIFKEQ_clean_linker_1, # of connection points: 2
#     Edge 21, Type (0, 0), BuildingBlock: KIFKEQ_clean_linker_1, # of connection points: 2
#     Edge 22, Type (0, 0), BuildingBlock: KIFKEQ_clean_linker_1, # of connection points: 2
#     Edge 23, Type (0, 0), BuildingBlock: KIFKEQ_clean_linker_1, # of connection points: 2
#     Edge 24, Type (0, 0), BuildingBlock: KIFKEQ_clean_linker_1, # of connection points: 2
#     Edge 25, Type (0, 0), BuildingBlock: KIFKEQ_clean_linker_1, # of connection points: 2
#     Edge 26, Type (0, 0), BuildingBlock: KIFKEQ_clean_linker_1, # of connection points: 2
#     Edge 27, Type (0, 0), BuildingBlock: KIFKEQ_clean_linker_1, # of connection points: 2
#     Edge 28, Type (0, 0), BuildingBlock: KIFKEQ_clean_linker_1, # of connection points: 2
#     Edge 29, Type (0, 0), BuildingBlock: KIFKEQ_clean_linker_1, # of connection points: 2
#     Edge 30, Type (0, 0), BuildingBlock: KIFKEQ_clean_linker_1, # of connection points: 2
#     Edge 31, Type (0, 0), BuildingBlock: KIFKEQ_clean_linker_1, # of connection points: 2
#     Edge 32, Type (0, 0), BuildingBlock: KIFKEQ_clean_linker_1, # of connection points: 2
#     Edge 33, Type (0, 0), BuildingBlock: KIFKEQ_clean_linker_1, # of connection points: 2
#     Edge 34, Type (0, 0), BuildingBlock: KIFKEQ_clean_linker_1, # of connection points: 2
#     Edge 35, Type (0, 0), BuildingBlock: KIFKEQ_clean_linker_1, # of connection points: 2
# Relax obj value: 0.078
# Max RMSD: 0.303
# Mean RMSD: 0.198
data_MOF--net-umg--node1-QUQFOY_clean_sbu_1--edge1-KIFKEQ_clean_linker_1
_symmetry_space_group_name_H-M    P1
_symmetry_Int_Tables_number       1
_symmetry_cell_setting            triclinic
loop_
_symmetry_equiv_pos_as_xyz
'x, y, z'
_cell_length_a     29.243987
_cell_length_b     29.297941
_cell_length_c     88.15615
_cell_angle_alpha  87.195663
_cell_angle_beta   90.012797
_cell_angle_gamma 119.93905
loop_
_atom_site_label
_atom_site_type_symbol
_atom_site_fract_x
_atom_site_fract_y
_atom_site_fract_z
_atom_type_partial_charge
O0 O 0.38283 0.64206 0.0628 0.0
Cd1 Cd 0.3565 0.59297 0.08215 0.0
Cd2 Cd 0.36507 0.68238 0.09323 0.0
O3 O 0.40327 0.71805 0.07248 0.0
O4 O 0.37346 0.53513 0.07875 0.0
O5 O 0.41497 0.59691 0.09502 0.0
C6 C 0.41123 0.5574 0.08817 0.0
C7 C 0.39914 0.69623 0.11759 0.0
C8 C 0.40227 0.69176 0.06127 0.0
C9 C 0.2556 0.59085 0.09136 0.0
O10 O 0.28431 0.64025 0.0927 0.0
O11 O 0.27674 0.56293 0.08857 0.0
O12 O 0.38795 0.72958 0.11089 0.0
O13 O 0.39431 0.65762 0.11 0.0
O14 O 0.69969 0.34436 0.39313 0.0
Cd15 Cd 0.71828 0.31608 0.41271 0.0
Cd16 Cd 0.63301 0.32393 0.42257 0.0
O17 O 0.63489 0.35649 0.40102 0.0
O18 O 0.79332 0.33326 0.40848 0.0
O19 O 0.77159 0.3696 0.42634 0.0
C20 C 0.80802 0.36751 0.41873 0.0
C21 C 0.65108 0.36576 0.44541 0.0
C22 C 0.66603 0.359 0.39051 0.0
C23 C 0.6189 0.21457 0.42257 0.0
O24 O 0.59811 0.24324 0.4242 0.0
O25 O 0.66789 0.23565 0.41891 0.0
O26 O 0.60497 0.3473 0.43958 0.0
O27 O 0.68712 0.36308 0.43774 0.0
O28 O 0.40737 0.73063 0.72922 0.0
Cd29 Cd 0.45901 0.75336 0.74698 0.0
Cd30 Cd 0.36966 0.66942 0.76107 0.0
O31 O 0.33325 0.66943 0.74088 0.0
O32 O 0.5153 0.82963 0.74207 0.0
O33 O 0.45494 0.80478 0.76039 0.0
C34 C 0.49353 0.84247 0.75252 0.0
C35 C 0.35123 0.6878 0.78502 0.0
C36 C 0.3582 0.69736 0.72898 0.0
C37 C 0.46483 0.65622 0.75755 0.0
O38 O 0.41583 0.63501 0.76082 0.0
O39 O 0.49118 0.70471 0.7528 0.0
O40 O 0.3223 0.64159 0.77986 0.0
O41 O 0.38792 0.72364 0.77617 0.0
O42 O 0.73529 0.39029 0.05943 0.0
Cd43 Cd 0.75944 0.43657 0.078 0.0
Cd44 Cd 0.74981 0.34202 0.09049 0.0
O45 O 0.71969 0.3129 0.06958 0.0
O46 O 0.74138 0.49469 0.07406 0.0
O47 O 0.70061 0.42954 0.09142 0.0
C48 C 0.70397 0.47041 0.08424 0.0
C49 C 0.70505 0.31876 0.11397 0.0
C50 C 0.71982 0.34159 0.05822 0.0
C51 C 0.85883 0.43783 0.08882 0.0
O52 O 0.83026 0.38814 0.09114 0.0
O53 O 0.83815 0.46566 0.08451 0.0
O54 O 0.72351 0.29041 0.10881 0.0
O55 O 0.70941 0.35754 0.10535 0.0
O56 O 0.30218 0.69227 0.39709 0.0
Cd57 Cd 0.27666 0.71861 0.41475 0.0
Cd58 Cd 0.35493 0.70816 0.42829 0.0
O59 O 0.35982 0.67525 0.4085 0.0
O60 O 0.20346 0.70159 0.4088 0.0
O61 O 0.21889 0.66273 0.42861 0.0
C62 C 0.18523 0.66567 0.41976 0.0
C63 C 0.33344 0.66789 0.45272 0.0
C64 C 0.33464 0.67539 0.39673 0.0
C65 C 0.37218 0.81839 0.42408 0.0
O66 O 0.3916 0.78894 0.42737 0.0
O67 O 0.32463 0.79825 0.41969 0.0
O68 O 0.38011 0.68553 0.4468 0.0
O69 O 0.29835 0.67 0.44431 0.0
O70 O 0.65721 0.33359 0.72607 0.0
Cd71 Cd 0.61493 0.31214 0.74635 0.0
Cd72 Cd 0.70997 0.39472 0.75513 0.0
O73 O 0.73702 0.39065 0.73368 0.0
O74 O 0.55526 0.23712 0.74435 0.0
O75 O 0.62275 0.25795 0.75921 0.0
C76 C 0.58063 0.22193 0.75332 0.0
C77 C 0.73151 0.37332 0.77891 0.0
C78 C 0.70629 0.36407 0.72328 0.0
C79 C 0.61738 0.4121 0.75549 0.0
O80 O 0.66732 0.43281 0.75568 0.0
O81 O 0.58819 0.36294 0.75333 0.0
O82 O 0.76309 0.41813 0.77184 0.0
O83 O 0.69031 0.34021 0.77195 0.0
O84 O 0.37494 0.69514 0.61704 0.0
Cd85 Cd 0.42205 0.724 0.59753 0.0
Cd86 Cd 0.32894 0.71628 0.58766 0.0
O87 O 0.29806 0.68313 0.60915 0.0
O88 O 0.47998 0.70692 0.60176 0.0
O89 O 0.42219 0.67084 0.58382 0.0
C90 C 0.46063 0.67286 0.59146 0.0
C91 C 0.30551 0.67472 0.56478 0.0
C92 C 0.3266 0.68034 0.61965 0.0
C93 C 0.42414 0.82566 0.58782 0.0
O94 O 0.3747 0.79701 0.58616 0.0
O95 O 0.45204 0.80452 0.59146 0.0
O96 O 0.27772 0.69303 0.57059 0.0
O97 O 0.34422 0.67746 0.57247 0.0
O98 O 0.76279 0.39669 0.94689 0.0
Cd99 Cd 0.78519 0.44835 0.92808 0.0
Cd100 Cd 0.70512 0.35998 0.91662 0.0
O101 O 0.70527 0.32183 0.93711 0.0
O102 O 0.8582 0.50522 0.93319 0.0
O103 O 0.8428 0.45197 0.91462 0.0
C104 C 0.87645 0.48834 0.92287 0.0
C105 C 0.72643 0.34667 0.89237 0.0
C106 C 0.73158 0.34718 0.94831 0.0
C107 C 0.68673 0.45134 0.91932 0.0
O108 O 0.66668 0.40242 0.91724 0.0
O109 O 0.7354 0.47897 0.92258 0.0
O110 O 0.68126 0.31378 0.89882 0.0
O111 O 0.76027 0.38472 0.90014 0.0
O112 O 0.34424 0.70736 0.2837 0.0
Cd113 Cd 0.32467 0.72828 0.26307 0.0
Cd114 Cd 0.33627 0.64472 0.25533 0.0
O115 O 0.36959 0.65183 0.27651 0.0
O116 O 0.33951 0.80329 0.2648 0.0
O117 O 0.38778 0.78269 0.25057 0.0
C118 C 0.3809 0.81862 0.25619 0.0
C119 C 0.3768 0.66633 0.2312 0.0
C120 C 0.36415 0.67815 0.28674 0.0
C121 C 0.2269 0.62726 0.25486 0.0
O122 O 0.25552 0.60588 0.25572 0.0
O123 O 0.2476 0.67723 0.25565 0.0
O124 O 0.36571 0.62214 0.2383 0.0
O125 O 0.3677 0.69859 0.23825 0.0
O126 O 0.63033 0.34875 0.6131 0.0
Cd127 Cd 0.57832 0.32195 0.59548 0.0
Cd128 Cd 0.66703 0.33227 0.58197 0.0
O129 O 0.70496 0.36572 0.60171 0.0
O130 O 0.52209 0.33889 0.60142 0.0
O131 O 0.57619 0.37759 0.58157 0.0
C132 C 0.53965 0.3747 0.59042 0.0
C133 C 0.68552 0.37223 0.5575 0.0
C134 C 0.67971 0.36579 0.61345 0.0
C135 C 0.57413 0.22202 0.58631 0.0
O136 O 0.62298 0.25144 0.583 0.0
O137 O 0.54672 0.24222 0.59065 0.0
O138 O 0.71467 0.35476 0.56343 0.0
O139 O 0.64832 0.37009 0.56591 0.0
O140 O 0.36524 0.65367 0.95017 0.0
Cd141 Cd 0.34373 0.60497 0.93213 0.0
Cd142 Cd 0.42745 0.69833 0.91939 0.0
O143 O 0.42855 0.72994 0.93998 0.0
O144 O 0.26896 0.54734 0.93764 0.0
O145 O 0.28915 0.6047 0.91814 0.0
C146 C 0.2534 0.56646 0.92661 0.0
C147 C 0.40408 0.71998 0.896 0.0
C148 C 0.39911 0.70218 0.9513 0.0
C149 C 0.44167 0.60294 0.92192 0.0
O150 O 0.46202 0.65228 0.91893 0.0
O151 O 0.39357 0.57525 0.9266 0.0
O152 O 0.45137 0.74847 0.90083 0.0
O153 O 0.37012 0.6818 0.9049 0.0
O154 O 0.6979 0.3102 0.28045 0.0
Cd155 Cd 0.7263 0.28827 0.26232 0.0
Cd156 Cd 0.72101 0.37341 0.24922 0.0
O157 O 0.68186 0.36986 0.26918 0.0
O158 O 0.70738 0.21213 0.26711 0.0
O159 O 0.66994 0.2362 0.24919 0.0
C160 C 0.6719 0.19882 0.2569 0.0
C161 C 0.68678 0.35406 0.225 0.0
C162 C 0.68029 0.34206 0.28095 0.0
C163 C 0.82909 0.3872 0.25282 0.0
O164 O 0.80135 0.40909 0.25056 0.0
O165 O 0.80694 0.33757 0.25612 0.0
O166 O 0.70161 0.39993 0.2301 0.0
O167 O 0.68896 0.31928 0.23399 0.0
H168 H 0.49241 0.76532 0.96475 0.0
H169 H 0.32353 0.6848 0.97229 0.0
H170 H 0.50479 0.78159 0.99192 0.0
H171 H 0.33589 0.70264 0.99922 0.0
H172 H 0.37557 0.75913 0.04677 0.0
H173 H 0.38238 0.78031 0.01924 0.0
H174 H 0.47113 0.70059 0.0135 0.0
H175 H 0.46264 0.67785 0.0408 0.0
C176 C 0.45809 0.75306 0.97209 0.0
C177 C 0.40702 0.72376 0.96648 0.0
C178 C 0.46517 0.76218 0.98761 0.0
C179 C 0.42129 0.74347 0.99762 0.0
C180 C 0.37038 0.71803 0.99173 0.0
C181 C 0.3633 0.70767 0.97634 0.0
C182 C 0.39812 0.74788 0.03966 0.0
C183 C 0.41868 0.71698 0.04584 0.0
C184 C 0.40178 0.75974 0.02395 0.0
C185 C 0.42736 0.74214 0.0143 0.0
C186 C 0.45177 0.71517 0.0207 0.0
C187 C 0.44683 0.70207 0.0363 0.0
H188 H 0.57466 0.32346 0.37515 0.0
H189 H 0.74374 0.42145 0.36987 0.0
H190 H 0.56692 0.32511 0.34741 0.0
H191 H 0.73585 0.42475 0.34228 0.0
H192 H 0.69894 0.43467 0.29232 0.0
H193 H 0.68733 0.44919 0.31892 0.0
H194 H 0.61152 0.28159 0.32971 0.0
H195 H 0.62479 0.26726 0.30337 0.0
C196 C 0.60982 0.34727 0.36809 0.0
C197 C 0.65979 0.37243 0.37459 0.0
C198 C 0.60541 0.34796 0.35225 0.0
C199 C 0.65079 0.3751 0.34276 0.0
C200 C 0.70024 0.40404 0.34935 0.0
C201 C 0.70477 0.40212 0.36512 0.0
C202 C 0.67843 0.40089 0.3003 0.0
C203 C 0.66285 0.34985 0.29585 0.0
C204 C 0.67196 0.40924 0.31548 0.0
C205 C 0.64836 0.36647 0.3263 0.0
C206 C 0.62925 0.31513 0.32156 0.0
C207 C 0.63703 0.30696 0.30652 0.0
H208 H 0.3728 0.7712 0.70678 0.0
H209 H 0.28683 0.60339 0.7177 0.0
H210 H 0.34459 0.75605 0.68052 0.0
H211 H 0.26004 0.58809 0.69117 0.0
H212 H 0.34333 0.61872 0.64021 0.0
H213 H 0.33154 0.61451 0.66779 0.0
H214 H 0.2584 0.71072 0.66277 0.0
H215 H 0.26854 0.71337 0.63503 0.0
C216 C 0.34671 0.73116 0.70363 0.0
C217 C 0.33197 0.68847 0.71423 0.0
C218 C 0.33039 0.72249 0.68863 0.0
C219 C 0.30013 0.67091 0.68385 0.0
C220 C 0.2831 0.62822 0.69462 0.0
C221 C 0.29827 0.63698 0.70977 0.0
C222 C 0.32277 0.63711 0.64498 0.0
C223 C 0.30669 0.66622 0.63554 0.0
C224 C 0.31594 0.63463 0.66074 0.0
C225 C 0.29418 0.6624 0.66737 0.0
C226 C 0.27505 0.6888 0.6579 0.0
C227 C 0.2806 0.69007 0.64206 0.0
H228 H 0.74693 0.27556 0.04511 0.0
H229 H 0.66507 0.36231 0.0368 0.0
H230 H 0.7422 0.25772 0.01803 0.0
H231 H 0.6587 0.34295 0.00998 0.0
H232 H 0.63721 0.28281 0.963 0.0
H233 H 0.62333 0.26325 0.99058 0.0
H234 H 0.79168 0.33645 0.99588 0.0
H235 H 0.80553 0.35761 0.96851 0.0
C236 C 0.7262 0.28903 0.03761 0.0
C237 C 0.70645 0.32039 0.04299 0.0
C238 C 0.72365 0.27898 0.02215 0.0
C239 C 0.6999 0.29879 0.01197 0.0
C240 C 0.67662 0.32665 0.01762 0.0
C241 C 0.68046 0.33792 0.03293 0.0
C242 C 0.671 0.2928 0.97003 0.0
C243 C 0.72242 0.32156 0.96369 0.0
C244 C 0.66309 0.28191 0.98577 0.0
C245 C 0.70645 0.29835 0.99531 0.0
C246 C 0.75757 0.32282 0.98877 0.0
C247 C 0.76551 0.33497 0.97313 0.0
H248 H 0.41532 0.75542 0.3063 0.0
H249 H 0.33647 0.58654 0.30328 0.0
H250 H 0.41706 0.74458 0.33395 0.0
H251 H 0.33631 0.57557 0.33112 0.0
H252 H 0.26374 0.61643 0.37604 0.0
H253 H 0.28209 0.60904 0.34948 0.0
H254 H 0.4493 0.69897 0.35704 0.0
H255 H 0.43088 0.70458 0.38388 0.0
C256 C 0.39978 0.71608 0.31156 0.0
C257 C 0.376 0.67182 0.30271 0.0
C258 C 0.40088 0.70988 0.32735 0.0
C259 C 0.37688 0.65926 0.33461 0.0
C260 C 0.35541 0.61499 0.32573 0.0
C261 C 0.3557 0.62127 0.30985 0.0
C262 C 0.30438 0.63288 0.37215 0.0
C263 C 0.34591 0.66086 0.38197 0.0
C264 C 0.31487 0.62855 0.35699 0.0
C265 C 0.36708 0.65339 0.35127 0.0
C266 C 0.40874 0.67917 0.36125 0.0
C267 C 0.39822 0.68218 0.37658 0.0
H268 H 0.76759 0.45661 0.70683 0.0
H269 H 0.6849 0.28764 0.7038 0.0
H270 H 0.77882 0.46788 0.67901 0.0
H271 H 0.69785 0.29884 0.67618 0.0
H272 H 0.74843 0.33872 0.62627 0.0
H273 H 0.77312 0.34542 0.65307 0.0
H274 H 0.69291 0.4326 0.6606 0.0
H275 H 0.66665 0.42419 0.63409 0.0
C276 C 0.75389 0.42204 0.70026 0.0
C277 C 0.72549 0.37127 0.70739 0.0
C278 C 0.76009 0.42847 0.68439 0.0
C279 C 0.73933 0.38421 0.6755 0.0
C280 C 0.71479 0.33358 0.68278 0.0
C281 C 0.70728 0.32716 0.69856 0.0
C282 C 0.73763 0.36075 0.63356 0.0
C283 C 0.70568 0.38096 0.62818 0.0
C284 C 0.75155 0.36439 0.64886 0.0
C285 C 0.73504 0.38968 0.65884 0.0
C286 C 0.70669 0.41348 0.65311 0.0
C287 C 0.69154 0.40854 0.63797 0.0
H288 H 0.41742 0.6186 0.21387 0.0
H289 H 0.37452 0.73992 0.21177 0.0
H290 H 0.43686 0.63261 0.18656 0.0
H291 H 0.39003 0.75148 0.18458 0.0
H292 H 0.43402 0.78036 0.13568 0.0
H293 H 0.44256 0.77951 0.16319 0.0
H294 H 0.3946 0.61369 0.164 0.0
H295 H 0.39009 0.61605 0.13658 0.0
C296 C 0.41233 0.64838 0.20757 0.0
C297 C 0.39425 0.67796 0.21499 0.0
C298 C 0.42297 0.65618 0.19185 0.0
C299 C 0.41452 0.69285 0.1831 0.0
C300 C 0.39813 0.72356 0.19074 0.0
C301 C 0.38871 0.7166 0.20645 0.0
C302 C 0.42643 0.74413 0.14177 0.0
C303 C 0.41113 0.69827 0.13396 0.0
C304 C 0.43073 0.74333 0.1576 0.0
C305 C 0.41836 0.69623 0.16607 0.0
C306 C 0.40526 0.65102 0.15807 0.0
C307 C 0.40227 0.65222 0.14224 0.0
H308 H 0.57894 0.35473 0.46713 0.0
H309 H 0.7459 0.41653 0.45929 0.0
H310 H 0.59359 0.36872 0.49411 0.0
H311 H 0.76096 0.43229 0.48619 0.0
H312 H 0.74882 0.36625 0.53583 0.0
H313 H 0.74478 0.37698 0.50845 0.0
H314 H 0.62909 0.42581 0.51451 0.0
H315 H 0.63198 0.41336 0.54198 0.0
C316 C 0.61899 0.37269 0.4711 0.0
C317 C 0.66113 0.38392 0.46109 0.0
C318 C 0.62751 0.38094 0.4866 0.0
C319 C 0.67846 0.40103 0.49243 0.0
C320 C 0.72105 0.41563 0.48219 0.0
C321 C 0.71246 0.40697 0.46673 0.0
C322 C 0.72326 0.38026 0.53135 0.0
C323 C 0.69037 0.38843 0.54111 0.0
C324 C 0.72107 0.38669 0.51559 0.0
C325 C 0.68617 0.40181 0.50918 0.0
C326 C 0.65564 0.41312 0.51901 0.0
C327 C 0.65762 0.40638 0.53478 0.0
H328 H 0.29402 0.61647 0.80836 0.0
H329 H 0.40064 0.78265 0.79814 0.0
H330 H 0.30153 0.63147 0.83539 0.0
H331 H 0.40706 0.79799 0.82517 0.0
H332 H 0.47046 0.78216 0.87248 0.0
H333 H 0.45007 0.77934 0.84565 0.0
H334 H 0.28575 0.66934 0.85682 0.0
H335 H 0.3065 0.67109 0.88363 0.0
C336 C 0.31791 0.65643 0.81186 0.0
C337 C 0.34716 0.69822 0.8011 0.0
C338 C 0.32214 0.66515 0.8274 0.0
C339 C 0.35548 0.71593 0.83251 0.0
C340 C 0.38193 0.75824 0.82166 0.0
C341 C 0.37791 0.74947 0.80615 0.0
C342 C 0.42981 0.75824 0.86924 0.0
C343 C 0.39027 0.72645 0.88018 0.0
C344 C 0.41799 0.75672 0.85383 0.0
C345 C 0.36627 0.72358 0.84901 0.0
C346 C 0.32616 0.69445 0.86008 0.0
C347 C 0.33803 0.69577 0.87547 0.0
H348 H 0.65361 0.36448 0.12651 0.0
H349 H 0.71318 0.25875 0.13746 0.0
H350 H 0.63602 0.36674 0.15338 0.0
H351 H 0.69697 0.26209 0.16439 0.0
H352 H 0.64519 0.25897 0.21217 0.0
H353 H 0.63618 0.24236 0.18522 0.0
H354 H 0.69081 0.4074 0.17441 0.0
H355 H 0.69844 0.42363 0.20138 0.0
C356 C 0.66222 0.34104 0.13465 0.0
C357 C 0.68523 0.31175 0.12986 0.0
C358 C 0.6525 0.34268 0.15008 0.0
C359 C 0.6658 0.31531 0.16111 0.0
C360 C 0.68578 0.28338 0.15623 0.0
C361 C 0.69523 0.2815 0.14077 0.0
C362 C 0.65432 0.29155 0.20405 0.0
C363 C 0.67296 0.34277 0.20891 0.0
C364 C 0.6495 0.28205 0.18858 0.0
C365 C 0.6634 0.32358 0.17759 0.0
C366 C 0.67923 0.37428 0.18252 0.0
C367 C 0.6838 0.38372 0.19801 0.0
H368 H 0.34974 0.62407 0.55094 0.0
H369 H 0.24438 0.68559 0.54302 0.0
H370 H 0.34903 0.60815 0.52405 0.0
H371 H 0.24504 0.67145 0.51606 0.0
H372 H 0.23876 0.62655 0.46822 0.0
H373 H 0.22346 0.61419 0.49569 0.0
H374 H 0.38805 0.66332 0.50177 0.0
H375 H 0.40279 0.67396 0.47438 0.0
C376 C 0.32582 0.63355 0.54348 0.0
C377 C 0.29747 0.65655 0.5491 0.0
C378 C 0.32574 0.62478 0.52803 0.0
C379 C 0.29769 0.63926 0.51777 0.0
C380 C 0.26678 0.65932 0.52358 0.0
C381 C 0.26651 0.66767 0.53907 0.0
C382 C 0.27141 0.63361 0.47543 0.0
C383 C 0.32212 0.65163 0.4691 0.0
C384 C 0.26272 0.62692 0.4912 0.0
C385 C 0.30459 0.63836 0.50103 0.0
C386 C 0.35462 0.65352 0.49462 0.0
C387 C 0.36321 0.6599 0.47886 0.0
H388 H 0.67963 0.2618 0.87454 0.0
H389 H 0.79625 0.42739 0.87327 0.0
H390 H 0.68921 0.26201 0.84707 0.0
H391 H 0.80313 0.42908 0.84584 0.0
H392 H 0.82023 0.42375 0.79597 0.0
H393 H 0.82701 0.41091 0.82327 0.0
H394 H 0.66296 0.28755 0.82565 0.0
H395 H 0.65786 0.29801 0.79848 0.0
C396 C 0.7075 0.2982 0.86837 0.0
C397 C 0.73693 0.34458 0.87605 0.0
C398 C 0.71267 0.29862 0.85256 0.0
C399 C 0.74625 0.34584 0.84397 0.0
C400 C 0.77736 0.39166 0.85186 0.0
C401 C 0.77318 0.39085 0.86769 0.0
C402 C 0.78608 0.3932 0.80235 0.0
C403 C 0.73851 0.36208 0.79506 0.0
C404 C 0.78967 0.3861 0.81807 0.0
C405 C 0.74535 0.34855 0.82694 0.0
C406 C 0.69843 0.31623 0.81941 0.0
C407 C 0.69529 0.32253 0.80371 0.0
H408 H 0.91238 0.39048 0.10043 0.0
H409 H 0.93727 0.53969 0.08099 0.0
H410 H 1.00712 0.42678 0.10185 0.0
H411 H 0.0327 0.57588 0.08214 0.0
H412 H 0.19978 0.63867 0.09909 0.0
H413 H 0.10479 0.60276 0.09928 0.0
H414 H 0.08329 0.45388 0.08557 0.0
H415 H 0.17872 0.48961 0.08567 0.0
C416 C 0.93804 0.43116 0.09645 0.0
C417 C 0.91693 0.46209 0.09054 0.0
C418 C 0.99259 0.45187 0.09717 0.0
C419 C 1.02783 0.50415 0.092 0.0
C420 C 1.00681 0.53556 0.08637 0.0
C421 C 0.95203 0.5148 0.08567 0.0
C422 C 0.17491 0.59812 0.09619 0.0
C423 C 0.19715 0.56707 0.09235 0.0
C424 C 0.12027 0.57765 0.09619 0.0
C425 C 0.08613 0.5255 0.09234 0.0
C426 C 0.10825 0.49407 0.08875 0.0
C427 C 0.16306 0.51458 0.08877 0.0
H428 H 0.64314 0.13727 0.41678 0.0
H429 H 0.51495 0.1592 0.43165 0.0
H430 H 0.58291 0.04196 0.41744 0.0
H431 H 0.45538 0.06444 0.43252 0.0
H432 H 0.3509 0.8977 0.41559 0.0
H433 H 0.41104 0.99297 0.41567 0.0
H434 H 0.53213 0.9657 0.43459 0.0
H435 H 0.47282 0.87116 0.43428 0.0
C436 C 0.60238 0.12185 0.42035 0.0
C437 C 0.5841 0.15616 0.42412 0.0
C438 C 0.56777 0.06712 0.42076 0.0
C439 C 0.51402 0.04536 0.42494 0.0
C440 C 0.49613 0.07969 0.42898 0.0
C441 C 0.53061 0.1342 0.42859 0.0
C442 C 0.39023 0.91206 0.41984 0.0
C443 C 0.40684 0.87653 0.42488 0.0
C444 C 0.42476 0.96673 0.41993 0.0
C445 C 0.47672 0.9872 0.42506 0.0
C446 C 0.49288 0.95156 0.43031 0.0
C447 C 0.45851 0.89713 0.43022 0.0
H448 H 0.66857 0.51585 0.76223 0.0
H449 H 0.514 0.38789 0.75226 0.0
H450 H 0.63315 0.57501 0.76353 0.0
H451 H 0.47862 0.4477 0.75325 0.0
H452 H 0.42147 0.5555 0.76991 0.0
H453 H 0.45793 0.49699 0.7702 0.0
H454 H 0.60014 0.62029 0.74747 0.0
H455 H 0.56388 0.67958 0.74746 0.0
C456 C 0.62691 0.50019 0.76032 0.0
C457 C 0.59418 0.44687 0.75712 0.0
C458 C 0.60667 0.53442 0.76095 0.0
C459 C 0.55306 0.51647 0.7584 0.0
C460 C 0.52004 0.46291 0.75544 0.0
C461 C 0.54033 0.42853 0.75483 0.0
C462 C 0.46071 0.57047 0.76504 0.0
C463 C 0.48965 0.62246 0.75862 0.0
C464 C 0.48146 0.53657 0.7651 0.0
C465 C 0.53182 0.5535 0.75874 0.0
C466 C 0.56137 0.60591 0.75261 0.0
C467 C 0.54057 0.63998 0.75256 0.0
H468 H 0.62192 0.16905 0.57622 0.0
H469 H 0.47349 0.14282 0.59482 0.0
H470 H 0.58658 0.07449 0.57594 0.0
H471 H 0.43825 0.04753 0.59477 0.0
H472 H 0.37565 0.88121 0.57883 0.0
H473 H 0.41096 0.97599 0.57798 0.0
H474 H 0.56091 0.99816 0.59304 0.0
H475 H 0.52571 0.90283 0.59367 0.0
C476 C 0.58164 0.14315 0.58026 0.0
C477 C 0.55061 0.16385 0.58556 0.0
C478 C 0.56149 0.0887 0.5802 0.0
C479 C 0.50966 0.05313 0.58542 0.0
C480 C 0.47822 0.0737 0.59053 0.0
C481 C 0.49845 0.12839 0.5906 0.0
C482 C 0.41631 0.90614 0.58189 0.0
C483 C 0.44779 0.88409 0.58633 0.0
C484 C 0.43643 0.96067 0.58152 0.0
C485 C 0.48868 0.99493 0.58555 0.0
C486 C 0.52059 0.97307 0.58972 0.0
C487 C 0.5004 0.91833 0.59011 0.0
H488 H 0.54297 0.65068 0.9106 0.0
H489 H 0.41876 0.50142 0.93006 0.0
H490 H 0.60169 0.61466 0.90938 0.0
H491 H 0.47828 0.4655 0.92908 0.0
H492 H 0.58301 0.40344 0.91164 0.0
H493 H 0.52368 0.43906 0.91169 0.0
H494 H 0.65057 0.5874 0.92588 0.0
H495 H 0.71052 0.55197 0.92557 0.0
C496 C 0.52803 0.61006 0.91463 0.0
C497 C 0.47592 0.57901 0.92047 0.0
C498 C 0.56204 0.58953 0.91403 0.0
C499 C 0.54507 0.53729 0.91924 0.0
C500 C 0.49264 0.5058 0.92483 0.0
C501 C 0.45847 0.52641 0.92544 0.0
C502 C 0.59854 0.44381 0.91471 0.0
C503 C 0.65178 0.47481 0.91861 0.0
C504 C 0.56422 0.46409 0.91485 0.0
C505 C 0.58206 0.51601 0.91888 0.0
C506 C 0.63551 0.54737 0.92257 0.0
C507 C 0.66994 0.52703 0.92243 0.0
H508 H 0.16877 0.5223 0.26271 0.0
H509 H 0.15359 0.65321 0.24433 0.0
H510 H 0.07413 0.46468 0.26175 0.0
H511 H 0.05857 0.59472 0.24244 0.0
H512 H 0.8855 0.49289 0.2561 0.0
H513 H 0.98027 0.54997 0.2561 0.0
H514 H 1.0009 0.41712 0.24753 0.0
H515 H 0.90514 0.3592 0.24848 0.0
C516 C 0.14519 0.53867 0.25823 0.0
C517 C 0.16888 0.59254 0.25363 0.0
C518 C 0.0906 0.50531 0.25755 0.0
C519 C 0.05788 0.52445 0.25198 0.0
C520 C 0.08188 0.57835 0.24711 0.0
C521 C 0.13657 0.61205 0.24808 0.0
C522 C 0.91019 0.47573 0.25418 0.0
C523 C 0.88756 0.42131 0.25229 0.0
C524 C 0.96494 0.50879 0.25405 0.0
C525 C 0.99909 0.48878 0.25174 0.0
C526 C 0.97632 0.43423 0.24963 0.0
C527 C 0.92127 0.40084 0.25007 0.0
H528 H 0.70614 0.56246 0.07492 0.0
H529 H 0.60857 0.41157 0.09894 0.0
H530 H 0.63472 0.58281 0.07741 0.0
H531 H 0.53721 0.43153 0.10107 0.0
H532 H 0.40716 0.46622 0.08004 0.0
H533 H 0.47909 0.44608 0.08047 0.0
H534 H 0.5813 0.59535 0.09969 0.0
H535 H 0.50934 0.61507 0.09963 0.0
C536 C 0.66973 0.53388 0.08082 0.0
C537 C 0.66313 0.48547 0.08674 0.0
C538 C 0.62892 0.54554 0.08226 0.0
C539 C 0.58036 0.50856 0.08936 0.0
C540 C 0.57406 0.46055 0.09545 0.0
C541 C 0.61512 0.44935 0.0943 0.0
C542 C 0.44471 0.49434 0.08457 0.0
C543 C 0.45241 0.54212 0.08985 0.0
C544 C 0.48585 0.48284 0.08481 0.0
C545 C 0.53584 0.51935 0.09002 0.0
C546 C 0.54331 0.56671 0.09551 0.0
C547 C 0.50191 0.57772 0.09558 0.0
H548 H 0.85276 0.43274 0.44215 0.0
H549 H 0.89078 0.39343 0.39912 0.0
H550 H 0.94366 0.50591 0.44337 0.0
H551 H 0.98111 0.46703 0.40026 0.0
H552 H 0.11005 0.643 0.39849 0.0
H553 H 1.01958 0.56894 0.39921 0.0
H554 H 0.04074 0.52199 0.44462 0.0
H555 H 0.13189 0.59569 0.44385 0.0
C556 C 0.88065 0.43926 0.43306 0.0
C557 C 0.86452 0.40716 0.42055 0.0
C558 C 0.93264 0.48118 0.43377 0.0
C559 C 0.96927 0.49253 0.42183 0.0
C560 C 0.95353 0.45958 0.40954 0.0
C561 C 0.90191 0.41712 0.40896 0.0
C562 C 0.09529 0.61739 0.40872 0.0
C563 C 0.12825 0.62532 0.42112 0.0
C564 C 0.04361 0.57468 0.40907 0.0
C565 C 1.0233 0.53937 0.4219 0.0
C566 C 0.05537 0.54855 0.43457 0.0
C567 C 0.10749 0.59078 0.43413 0.0
H568 H 0.6413 0.18188 0.76433 0.0
H569 H 0.48684 0.13437 0.74681 0.0
H570 H 0.62143 0.09029 0.76519 0.0
H571 H 0.46665 0.04232 0.74803 0.0
H572 H 0.43742 0.87872 0.76747 0.0
H573 H 0.45733 0.96991 0.76887 0.0
H574 H 0.60346 0.024 0.74367 0.0
H575 H 0.58309 0.93247 0.74193 0.0
C576 C 0.60274 0.15181 0.7609 0.0
C577 C 0.56559 0.16548 0.75551 0.0
C578 C 0.59161 0.09941 0.7613 0.0
C579 C 0.54265 0.05926 0.75661 0.0
C580 C 0.50468 0.0725 0.75176 0.0
C581 C 0.51622 0.12516 0.75106 0.0
C582 C 0.47409 0.91002 0.76234 0.0
C583 C 0.50874 0.89828 0.75459 0.0
C584 C 0.48523 0.9622 0.76307 0.0
C585 C 0.5318 1.00399 0.75634 0.0
C586 C 0.56735 0.99252 0.74902 0.0
C587 C 0.55568 0.94016 0.74801 0.0
H588 H 0.44032 0.60781 0.568 0.0
H589 H 0.51742 0.64686 0.61107 0.0
H590 H 0.45803 0.53463 0.56676 0.0
H591 H 0.53415 0.57327 0.60992 0.0
H592 H 0.48709 0.39736 0.61167 0.0
H593 H 0.47072 0.47144 0.61095 0.0
H594 H 0.53887 0.51838 0.56555 0.0
H595 H 0.55627 0.44465 0.56633 0.0
C596 C 0.46164 0.60124 0.5771 0.0
C597 C 0.47754 0.63326 0.58963 0.0
C598 C 0.4717 0.55932 0.57638 0.0
C599 C 0.4969 0.54789 0.58833 0.0
C600 C 0.51407 0.58077 0.60064 0.0
C601 C 0.50491 0.62323 0.60122 0.0
C602 C 0.49795 0.42296 0.60144 0.0
C603 C 0.52299 0.41502 0.58905 0.0
C604 C 0.48902 0.46569 0.60109 0.0
C605 C 0.50404 0.50101 0.58825 0.0
C606 C 0.52691 0.49181 0.57559 0.0
C607 C 0.53678 0.44956 0.57604 0.0
H608 H 0.20753 0.58544 0.90187 0.0
H609 H 0.17163 0.51083 0.94713 0.0
H610 H 0.11672 0.56802 0.90001 0.0
H611 H 0.08119 0.49423 0.94531 0.0
H612 H 0.95199 0.54084 0.94355 0.0
H613 H 0.04231 0.55675 0.94366 0.0
H614 H 1.02029 0.48871 0.90008 0.0
H615 H 0.92937 0.47191 0.90003 0.0
C616 C 0.18009 0.5647 0.91134 0.0
C617 C 0.1968 0.54946 0.92465 0.0
C618 C 0.12814 0.5548 0.91026 0.0
C619 C 0.09208 0.53034 0.92258 0.0
C620 C 0.10835 0.51376 0.93571 0.0
C621 C 0.15999 0.52281 0.93669 0.0
C622 C 0.96655 0.52995 0.93387 0.0
C623 C 0.93343 0.50513 0.92177 0.0
C624 C 1.01813 0.53857 0.93402 0.0
C625 C 0.03812 0.52339 0.92196 0.0
C626 C 1.0059 0.50077 0.90953 0.0
C627 C 0.95392 0.49127 0.9095 0.0
H628 H 0.37394 0.90599 0.26243 0.0
H629 H 0.48213 0.85899 0.24559 0.0
H630 H 0.44551 0.99814 0.2613 0.0
H631 H 0.55352 0.95069 0.24479 0.0
H632 H 0.67222 0.10926 0.2676 0.0
H633 H 0.60144 1.01751 0.26597 0.0
H634 H 0.50849 0.07042 0.24073 0.0
H635 H 0.57931 0.16178 0.24204 0.0
C636 C 0.41275 0.91533 0.25835 0.0
C637 C 0.42221 0.87512 0.25407 0.0
C638 C 0.4537 0.96805 0.2577 0.0
C639 C 0.50516 0.98149 0.25305 0.0
C640 C 0.51439 0.94143 0.24853 0.0
C641 C 0.47332 0.88896 0.24889 0.0
C642 C 0.63698 0.10125 0.26154 0.0
C643 C 0.63153 0.14286 0.25493 0.0
C644 C 0.59651 0.04877 0.2606 0.0
C645 C 0.54934 0.0369 0.25329 0.0
C646 C 0.54419 0.07842 0.24653 0.0
C647 C 0.58498 0.13072 0.24721 0.0
loop_
_geom_bond_atom_site_label_1
_geom_bond_atom_site_label_2
_geom_bond_distance
_geom_bond_site_symmetry_2
_ccdc_geom_bond_type
O0 Cd1 2.223 . S
O0 C8 1.315 . S
Cd1 O0 2.223 . S
Cd1 O4 2.297 . S
Cd1 O5 2.439 . S
Cd1 O11 2.240 . S
Cd2 O3 2.240 . S
Cd2 O10 2.223 . S
Cd2 O12 2.297 . S
Cd2 O13 2.439 . S
O3 Cd2 2.240 . S
O3 C8 1.279 . S
O4 Cd1 2.297 . S
O4 C6 1.247 . S
O5 Cd1 2.439 . S
O5 C6 1.208 . S
C6 O4 1.247 . S
C6 O5 1.208 . S
C7 O12 1.247 . S
C7 O13 1.208 . S
C8 O0 1.315 . S
C8 O3 1.279 . S
C9 O10 1.315 . S
C9 O11 1.279 . S
O10 Cd2 2.223 . S
O10 C9 1.315 . S
O11 Cd1 2.240 . S
O11 C9 1.279 . S
O12 Cd2 2.297 . S
O12 C7 1.247 . S
O13 Cd2 2.439 . S
O13 C7 1.208 . S
O14 Cd15 2.223 . S
O14 C22 1.315 . S
Cd15 O14 2.223 . S
Cd15 O18 2.297 . S
Cd15 O19 2.439 . S
Cd15 O25 2.240 . S
Cd16 O17 2.240 . S
Cd16 O24 2.223 . S
Cd16 O26 2.297 . S
Cd16 O27 2.439 . S
O17 Cd16 2.240 . S
O17 C22 1.279 . S
O18 Cd15 2.297 . S
O18 C20 1.247 . S
O19 Cd15 2.439 . S
O19 C20 1.208 . S
C20 O18 1.247 . S
C20 O19 1.208 . S
C21 O26 1.247 . S
C21 O27 1.208 . S
C22 O14 1.315 . S
C22 O17 1.279 . S
C23 O24 1.315 . S
C23 O25 1.279 . S
O24 Cd16 2.223 . S
O24 C23 1.315 . S
O25 Cd15 2.240 . S
O25 C23 1.279 . S
O26 Cd16 2.297 . S
O26 C21 1.247 . S
O27 Cd16 2.439 . S
O27 C21 1.208 . S
O28 Cd29 2.223 . S
O28 C36 1.315 . S
Cd29 O28 2.223 . S
Cd29 O32 2.297 . S
Cd29 O33 2.439 . S
Cd29 O39 2.240 . S
Cd30 O31 2.240 . S
Cd30 O38 2.223 . S
Cd30 O40 2.297 . S
Cd30 O41 2.439 . S
O31 Cd30 2.240 . S
O31 C36 1.279 . S
O32 Cd29 2.297 . S
O32 C34 1.247 . S
O33 Cd29 2.439 . S
O33 C34 1.208 . S
C34 O32 1.247 . S
C34 O33 1.208 . S
C35 O40 1.247 . S
C35 O41 1.208 . S
C36 O28 1.315 . S
C36 O31 1.279 . S
C37 O38 1.315 . S
C37 O39 1.279 . S
O38 Cd30 2.223 . S
O38 C37 1.315 . S
O39 Cd29 2.240 . S
O39 C37 1.279 . S
O40 Cd30 2.297 . S
O40 C35 1.247 . S
O41 Cd30 2.439 . S
O41 C35 1.208 . S
O42 Cd43 2.223 . S
O42 C50 1.315 . S
Cd43 O42 2.223 . S
Cd43 O46 2.297 . S
Cd43 O47 2.439 . S
Cd43 O53 2.240 . S
Cd44 O45 2.240 . S
Cd44 O52 2.223 . S
Cd44 O54 2.297 . S
Cd44 O55 2.439 . S
O45 Cd44 2.240 . S
O45 C50 1.279 . S
O46 Cd43 2.297 . S
O46 C48 1.247 . S
O47 Cd43 2.439 . S
O47 C48 1.208 . S
C48 O46 1.247 . S
C48 O47 1.208 . S
C49 O54 1.247 . S
C49 O55 1.208 . S
C50 O42 1.315 . S
C50 O45 1.279 . S
C51 O52 1.315 . S
C51 O53 1.279 . S
O52 Cd44 2.223 . S
O52 C51 1.315 . S
O53 Cd43 2.240 . S
O53 C51 1.279 . S
O54 Cd44 2.297 . S
O54 C49 1.247 . S
O55 Cd44 2.439 . S
O55 C49 1.208 . S
O56 Cd57 2.223 . S
O56 C64 1.315 . S
Cd57 O56 2.223 . S
Cd57 O60 2.297 . S
Cd57 O61 2.439 . S
Cd57 O67 2.240 . S
Cd58 O59 2.240 . S
Cd58 O66 2.223 . S
Cd58 O68 2.297 . S
Cd58 O69 2.439 . S
O59 Cd58 2.240 . S
O59 C64 1.279 . S
O60 Cd57 2.297 . S
O60 C62 1.247 . S
O61 Cd57 2.439 . S
O61 C62 1.208 . S
C62 O60 1.247 . S
C62 O61 1.208 . S
C63 O68 1.247 . S
C63 O69 1.208 . S
C64 O56 1.315 . S
C64 O59 1.279 . S
C65 O66 1.315 . S
C65 O67 1.279 . S
O66 Cd58 2.223 . S
O66 C65 1.315 . S
O67 Cd57 2.240 . S
O67 C65 1.279 . S
O68 Cd58 2.297 . S
O68 C63 1.247 . S
O69 Cd58 2.439 . S
O69 C63 1.208 . S
O70 Cd71 2.223 . S
O70 C78 1.315 . S
Cd71 O70 2.223 . S
Cd71 O74 2.297 . S
Cd71 O75 2.439 . S
Cd71 O81 2.240 . S
Cd72 O73 2.240 . S
Cd72 O80 2.223 . S
Cd72 O82 2.297 . S
Cd72 O83 2.439 . S
O73 Cd72 2.240 . S
O73 C78 1.279 . S
O74 Cd71 2.297 . S
O74 C76 1.247 . S
O75 Cd71 2.439 . S
O75 C76 1.208 . S
C76 O74 1.247 . S
C76 O75 1.208 . S
C77 O82 1.247 . S
C77 O83 1.208 . S
C78 O70 1.315 . S
C78 O73 1.279 . S
C79 O80 1.315 . S
C79 O81 1.279 . S
O80 Cd72 2.223 . S
O80 C79 1.315 . S
O81 Cd71 2.240 . S
O81 C79 1.279 . S
O82 Cd72 2.297 . S
O82 C77 1.247 . S
O83 Cd72 2.439 . S
O83 C77 1.208 . S
O84 Cd85 2.223 . S
O84 C92 1.315 . S
Cd85 O84 2.223 . S
Cd85 O88 2.297 . S
Cd85 O89 2.439 . S
Cd85 O95 2.240 . S
Cd86 O87 2.240 . S
Cd86 O94 2.223 . S
Cd86 O96 2.297 . S
Cd86 O97 2.439 . S
O87 Cd86 2.240 . S
O87 C92 1.279 . S
O88 Cd85 2.297 . S
O88 C90 1.247 . S
O89 Cd85 2.439 . S
O89 C90 1.208 . S
C90 O88 1.247 . S
C90 O89 1.208 . S
C91 O96 1.247 . S
C91 O97 1.208 . S
C92 O84 1.315 . S
C92 O87 1.279 . S
C93 O94 1.315 . S
C93 O95 1.279 . S
O94 Cd86 2.223 . S
O94 C93 1.315 . S
O95 Cd85 2.240 . S
O95 C93 1.279 . S
O96 Cd86 2.297 . S
O96 C91 1.247 . S
O97 Cd86 2.439 . S
O97 C91 1.208 . S
O98 Cd99 2.223 . S
O98 C106 1.315 . S
Cd99 O98 2.223 . S
Cd99 O102 2.297 . S
Cd99 O103 2.439 . S
Cd99 O109 2.240 . S
Cd100 O101 2.240 . S
Cd100 O108 2.223 . S
Cd100 O110 2.297 . S
Cd100 O111 2.439 . S
O101 Cd100 2.240 . S
O101 C106 1.279 . S
O102 Cd99 2.297 . S
O102 C104 1.247 . S
O103 Cd99 2.439 . S
O103 C104 1.208 . S
C104 O102 1.247 . S
C104 O103 1.208 . S
C105 O110 1.247 . S
C105 O111 1.208 . S
C106 O98 1.315 . S
C106 O101 1.279 . S
C107 O108 1.315 . S
C107 O109 1.279 . S
O108 Cd100 2.223 . S
O108 C107 1.315 . S
O109 Cd99 2.240 . S
O109 C107 1.279 . S
O110 Cd100 2.297 . S
O110 C105 1.247 . S
O111 Cd100 2.439 . S
O111 C105 1.208 . S
O112 Cd113 2.223 . S
O112 C120 1.315 . S
Cd113 O112 2.223 . S
Cd113 O116 2.297 . S
Cd113 O117 2.439 . S
Cd113 O123 2.240 . S
Cd114 O115 2.240 . S
Cd114 O122 2.223 . S
Cd114 O124 2.297 . S
Cd114 O125 2.439 . S
O115 Cd114 2.240 . S
O115 C120 1.279 . S
O116 Cd113 2.297 . S
O116 C118 1.247 . S
O117 Cd113 2.439 . S
O117 C118 1.208 . S
C118 O116 1.247 . S
C118 O117 1.208 . S
C119 O124 1.247 . S
C119 O125 1.208 . S
C120 O112 1.315 . S
C120 O115 1.279 . S
C121 O122 1.315 . S
C121 O123 1.279 . S
O122 Cd114 2.223 . S
O122 C121 1.315 . S
O123 Cd113 2.240 . S
O123 C121 1.279 . S
O124 Cd114 2.297 . S
O124 C119 1.247 . S
O125 Cd114 2.439 . S
O125 C119 1.208 . S
O126 Cd127 2.223 . S
O126 C134 1.315 . S
Cd127 O126 2.223 . S
Cd127 O130 2.297 . S
Cd127 O131 2.439 . S
Cd127 O137 2.240 . S
Cd128 O129 2.240 . S
Cd128 O136 2.223 . S
Cd128 O138 2.297 . S
Cd128 O139 2.439 . S
O129 Cd128 2.240 . S
O129 C134 1.279 . S
O130 Cd127 2.297 . S
O130 C132 1.247 . S
O131 Cd127 2.439 . S
O131 C132 1.208 . S
C132 O130 1.247 . S
C132 O131 1.208 . S
C133 O138 1.247 . S
C133 O139 1.208 . S
C134 O126 1.315 . S
C134 O129 1.279 . S
C135 O136 1.315 . S
C135 O137 1.279 . S
O136 Cd128 2.223 . S
O136 C135 1.315 . S
O137 Cd127 2.240 . S
O137 C135 1.279 . S
O138 Cd128 2.297 . S
O138 C133 1.247 . S
O139 Cd128 2.439 . S
O139 C133 1.208 . S
O140 Cd141 2.223 . S
O140 C148 1.315 . S
Cd141 O140 2.223 . S
Cd141 O144 2.297 . S
Cd141 O145 2.439 . S
Cd141 O151 2.240 . S
Cd142 O143 2.240 . S
Cd142 O150 2.223 . S
Cd142 O152 2.297 . S
Cd142 O153 2.439 . S
O143 Cd142 2.240 . S
O143 C148 1.279 . S
O144 Cd141 2.297 . S
O144 C146 1.247 . S
O145 Cd141 2.439 . S
O145 C146 1.208 . S
C146 O144 1.247 . S
C146 O145 1.208 . S
C147 O152 1.247 . S
C147 O153 1.208 . S
C148 O140 1.315 . S
C148 O143 1.279 . S
C149 O150 1.315 . S
C149 O151 1.279 . S
O150 Cd142 2.223 . S
O150 C149 1.315 . S
O151 Cd141 2.240 . S
O151 C149 1.279 . S
O152 Cd142 2.297 . S
O152 C147 1.247 . S
O153 Cd142 2.439 . S
O153 C147 1.208 . S
O154 Cd155 2.223 . S
O154 C162 1.315 . S
Cd155 O154 2.223 . S
Cd155 O158 2.297 . S
Cd155 O159 2.439 . S
Cd155 O165 2.240 . S
Cd156 O157 2.240 . S
Cd156 O164 2.223 . S
Cd156 O166 2.297 . S
Cd156 O167 2.439 . S
O157 Cd156 2.240 . S
O157 C162 1.279 . S
O158 Cd155 2.297 . S
O158 C160 1.247 . S
O159 Cd155 2.439 . S
O159 C160 1.208 . S
C160 O158 1.247 . S
C160 O159 1.208 . S
C161 O166 1.247 . S
C161 O167 1.208 . S
C162 O154 1.315 . S
C162 O157 1.279 . S
C163 O164 1.315 . S
C163 O165 1.279 . S
O164 Cd156 2.223 . S
O164 C163 1.315 . S
O165 Cd155 2.240 . S
O165 C163 1.279 . S
O166 Cd156 2.297 . S
O166 C161 1.247 . S
O167 Cd156 2.439 . S
O167 C161 1.208 . S
H168 C176 0.950 . S
H169 C181 0.950 . S
H170 C178 0.950 . S
H171 C180 0.950 . S
H172 C182 0.950 . S
H173 C184 0.950 . S
H174 C186 0.950 . S
H175 C187 0.950 . S
C176 H168 0.950 . S
C176 C177 1.386 . S
C176 C178 1.391 . S
C177 C176 1.386 . S
C177 C181 1.393 . S
C178 H170 0.950 . S
C178 C176 1.391 . S
C178 C179 1.400 . S
C179 C178 1.400 . S
C179 C180 1.398 . S
C179 C185 1.491 1_556 S
C180 H171 0.950 . S
C180 C179 1.398 . S
C180 C181 1.391 . S
C181 H169 0.950 . S
C181 C177 1.393 . S
C181 C180 1.391 . S
C182 H172 0.950 . S
C182 C183 1.386 . S
C182 C184 1.391 . S
C183 C182 1.386 . S
C183 C187 1.393 . S
C184 H173 0.950 . S
C184 C182 1.391 . S
C184 C185 1.400 . S
C185 C179 1.491 1_554 S
C185 C184 1.400 . S
C185 C186 1.398 . S
C186 H174 0.950 . S
C186 C185 1.398 . S
C186 C187 1.391 . S
C187 H175 0.950 . S
C187 C183 1.393 . S
C187 C186 1.391 . S
H188 C196 0.950 . S
H189 C201 0.950 . S
H190 C198 0.950 . S
H191 C200 0.950 . S
H192 C202 0.950 . S
H193 C204 0.950 . S
H194 C206 0.950 . S
H195 C207 0.950 . S
C196 H188 0.950 . S
C196 C197 1.386 . S
C196 C198 1.391 . S
C197 C196 1.386 . S
C197 C201 1.393 . S
C198 H190 0.950 . S
C198 C196 1.391 . S
C198 C199 1.400 . S
C199 C198 1.400 . S
C199 C200 1.398 . S
C199 C205 1.491 . S
C200 H191 0.950 . S
C200 C199 1.398 . S
C200 C201 1.391 . S
C201 H189 0.950 . S
C201 C197 1.393 . S
C201 C200 1.391 . S
C202 H192 0.950 . S
C202 C203 1.386 . S
C202 C204 1.391 . S
C203 C202 1.386 . S
C203 C207 1.393 . S
C204 H193 0.950 . S
C204 C202 1.391 . S
C204 C205 1.400 . S
C205 C199 1.491 . S
C205 C204 1.400 . S
C205 C206 1.398 . S
C206 H194 0.950 . S
C206 C205 1.398 . S
C206 C207 1.391 . S
C207 H195 0.950 . S
C207 C203 1.393 . S
C207 C206 1.391 . S
H208 C216 0.950 . S
H209 C221 0.950 . S
H210 C218 0.950 . S
H211 C220 0.950 . S
H212 C222 0.950 . S
H213 C224 0.950 . S
H214 C226 0.950 . S
H215 C227 0.950 . S
C216 H208 0.950 . S
C216 C217 1.386 . S
C216 C218 1.391 . S
C217 C216 1.386 . S
C217 C221 1.393 . S
C218 H210 0.950 . S
C218 C216 1.391 . S
C218 C219 1.400 . S
C219 C218 1.400 . S
C219 C220 1.398 . S
C219 C225 1.491 . S
C220 H211 0.950 . S
C220 C219 1.398 . S
C220 C221 1.391 . S
C221 H209 0.950 . S
C221 C217 1.393 . S
C221 C220 1.391 . S
C222 H212 0.950 . S
C222 C223 1.386 . S
C222 C224 1.391 . S
C223 C222 1.386 . S
C223 C227 1.393 . S
C224 H213 0.950 . S
C224 C222 1.391 . S
C224 C225 1.400 . S
C225 C219 1.491 . S
C225 C224 1.400 . S
C225 C226 1.398 . S
C226 H214 0.950 . S
C226 C225 1.398 . S
C226 C227 1.391 . S
C227 H215 0.950 . S
C227 C223 1.393 . S
C227 C226 1.391 . S
H228 C236 0.950 . S
H229 C241 0.950 . S
H230 C238 0.950 . S
H231 C240 0.950 . S
H232 C242 0.950 . S
H233 C244 0.950 . S
H234 C246 0.950 . S
H235 C247 0.950 . S
C236 H228 0.950 . S
C236 C237 1.386 . S
C236 C238 1.391 . S
C237 C236 1.386 . S
C237 C241 1.393 . S
C238 H230 0.950 . S
C238 C236 1.391 . S
C238 C239 1.400 . S
C239 C238 1.400 . S
C239 C240 1.398 . S
C239 C245 1.491 1_554 S
C240 H231 0.950 . S
C240 C239 1.398 . S
C240 C241 1.391 . S
C241 H229 0.950 . S
C241 C237 1.393 . S
C241 C240 1.391 . S
C242 H232 0.950 . S
C242 C243 1.386 . S
C242 C244 1.391 . S
C243 C242 1.386 . S
C243 C247 1.393 . S
C244 H233 0.950 . S
C244 C242 1.391 . S
C244 C245 1.400 . S
C245 C239 1.491 1_556 S
C245 C244 1.400 . S
C245 C246 1.398 . S
C246 H234 0.950 . S
C246 C245 1.398 . S
C246 C247 1.391 . S
C247 H235 0.950 . S
C247 C243 1.393 . S
C247 C246 1.391 . S
H248 C256 0.950 . S
H249 C261 0.950 . S
H250 C258 0.950 . S
H251 C260 0.950 . S
H252 C262 0.950 . S
H253 C264 0.950 . S
H254 C266 0.950 . S
H255 C267 0.950 . S
C256 H248 0.950 . S
C256 C257 1.386 . S
C256 C258 1.391 . S
C257 C256 1.386 . S
C257 C261 1.393 . S
C258 H250 0.950 . S
C258 C256 1.391 . S
C258 C259 1.400 . S
C259 C258 1.400 . S
C259 C260 1.398 . S
C259 C265 1.491 . S
C260 H251 0.950 . S
C260 C259 1.398 . S
C260 C261 1.391 . S
C261 H249 0.950 . S
C261 C257 1.393 . S
C261 C260 1.391 . S
C262 H252 0.950 . S
C262 C263 1.386 . S
C262 C264 1.391 . S
C263 C262 1.386 . S
C263 C267 1.393 . S
C264 H253 0.950 . S
C264 C262 1.391 . S
C264 C265 1.400 . S
C265 C259 1.491 . S
C265 C264 1.400 . S
C265 C266 1.398 . S
C266 H254 0.950 . S
C266 C265 1.398 . S
C266 C267 1.391 . S
C267 H255 0.950 . S
C267 C263 1.393 . S
C267 C266 1.391 . S
H268 C276 0.950 . S
H269 C281 0.950 . S
H270 C278 0.950 . S
H271 C280 0.950 . S
H272 C282 0.950 . S
H273 C284 0.950 . S
H274 C286 0.950 . S
H275 C287 0.950 . S
C276 H268 0.950 . S
C276 C277 1.386 . S
C276 C278 1.391 . S
C277 C276 1.386 . S
C277 C281 1.393 . S
C278 H270 0.950 . S
C278 C276 1.391 . S
C278 C279 1.400 . S
C279 C278 1.400 . S
C279 C280 1.398 . S
C279 C285 1.491 . S
C280 H271 0.950 . S
C280 C279 1.398 . S
C280 C281 1.391 . S
C281 H269 0.950 . S
C281 C277 1.393 . S
C281 C280 1.391 . S
C282 H272 0.950 . S
C282 C283 1.386 . S
C282 C284 1.391 . S
C283 C282 1.386 . S
C283 C287 1.393 . S
C284 H273 0.950 . S
C284 C282 1.391 . S
C284 C285 1.400 . S
C285 C279 1.491 . S
C285 C284 1.400 . S
C285 C286 1.398 . S
C286 H274 0.950 . S
C286 C285 1.398 . S
C286 C287 1.391 . S
C287 H275 0.950 . S
C287 C283 1.393 . S
C287 C286 1.391 . S
H288 C296 0.950 . S
H289 C301 0.950 . S
H290 C298 0.950 . S
H291 C300 0.950 . S
H292 C302 0.950 . S
H293 C304 0.950 . S
H294 C306 0.950 . S
H295 C307 0.950 . S
C296 H288 0.950 . S
C296 C297 1.386 . S
C296 C298 1.391 . S
C297 C296 1.386 . S
C297 C301 1.393 . S
C298 H290 0.950 . S
C298 C296 1.391 . S
C298 C299 1.400 . S
C299 C298 1.400 . S
C299 C300 1.398 . S
C299 C305 1.491 . S
C300 H291 0.950 . S
C300 C299 1.398 . S
C300 C301 1.391 . S
C301 H289 0.950 . S
C301 C297 1.393 . S
C301 C300 1.391 . S
C302 H292 0.950 . S
C302 C303 1.386 . S
C302 C304 1.391 . S
C303 C302 1.386 . S
C303 C307 1.393 . S
C304 H293 0.950 . S
C304 C302 1.391 . S
C304 C305 1.400 . S
C305 C299 1.491 . S
C305 C304 1.400 . S
C305 C306 1.398 . S
C306 H294 0.950 . S
C306 C305 1.398 . S
C306 C307 1.391 . S
C307 H295 0.950 . S
C307 C303 1.393 . S
C307 C306 1.391 . S
H308 C316 0.950 . S
H309 C321 0.950 . S
H310 C318 0.950 . S
H311 C320 0.950 . S
H312 C322 0.950 . S
H313 C324 0.950 . S
H314 C326 0.950 . S
H315 C327 0.950 . S
C316 H308 0.950 . S
C316 C317 1.386 . S
C316 C318 1.391 . S
C317 C316 1.386 . S
C317 C321 1.393 . S
C318 H310 0.950 . S
C318 C316 1.391 . S
C318 C319 1.400 . S
C319 C318 1.400 . S
C319 C320 1.398 . S
C319 C325 1.491 . S
C320 H311 0.950 . S
C320 C319 1.398 . S
C320 C321 1.391 . S
C321 H309 0.950 . S
C321 C317 1.393 . S
C321 C320 1.391 . S
C322 H312 0.950 . S
C322 C323 1.386 . S
C322 C324 1.391 . S
C323 C322 1.386 . S
C323 C327 1.393 . S
C324 H313 0.950 . S
C324 C322 1.391 . S
C324 C325 1.400 . S
C325 C319 1.491 . S
C325 C324 1.400 . S
C325 C326 1.398 . S
C326 H314 0.950 . S
C326 C325 1.398 . S
C326 C327 1.391 . S
C327 H315 0.950 . S
C327 C323 1.393 . S
C327 C326 1.391 . S
H328 C336 0.950 . S
H329 C341 0.950 . S
H330 C338 0.950 . S
H331 C340 0.950 . S
H332 C342 0.950 . S
H333 C344 0.950 . S
H334 C346 0.950 . S
H335 C347 0.950 . S
C336 H328 0.950 . S
C336 C337 1.386 . S
C336 C338 1.391 . S
C337 C336 1.386 . S
C337 C341 1.393 . S
C338 H330 0.950 . S
C338 C336 1.391 . S
C338 C339 1.400 . S
C339 C338 1.400 . S
C339 C340 1.398 . S
C339 C345 1.491 . S
C340 H331 0.950 . S
C340 C339 1.398 . S
C340 C341 1.391 . S
C341 H329 0.950 . S
C341 C337 1.393 . S
C341 C340 1.391 . S
C342 H332 0.950 . S
C342 C343 1.386 . S
C342 C344 1.391 . S
C343 C342 1.386 . S
C343 C347 1.393 . S
C344 H333 0.950 . S
C344 C342 1.391 . S
C344 C345 1.400 . S
C345 C339 1.491 . S
C345 C344 1.400 . S
C345 C346 1.398 . S
C346 H334 0.950 . S
C346 C345 1.398 . S
C346 C347 1.391 . S
C347 H335 0.950 . S
C347 C343 1.393 . S
C347 C346 1.391 . S
H348 C356 0.950 . S
H349 C361 0.950 . S
H350 C358 0.950 . S
H351 C360 0.950 . S
H352 C362 0.950 . S
H353 C364 0.950 . S
H354 C366 0.950 . S
H355 C367 0.950 . S
C356 H348 0.950 . S
C356 C357 1.386 . S
C356 C358 1.391 . S
C357 C356 1.386 . S
C357 C361 1.393 . S
C358 H350 0.950 . S
C358 C356 1.391 . S
C358 C359 1.400 . S
C359 C358 1.400 . S
C359 C360 1.398 . S
C359 C365 1.491 . S
C360 H351 0.950 . S
C360 C359 1.398 . S
C360 C361 1.391 . S
C361 H349 0.950 . S
C361 C357 1.393 . S
C361 C360 1.391 . S
C362 H352 0.950 . S
C362 C363 1.386 . S
C362 C364 1.391 . S
C363 C362 1.386 . S
C363 C367 1.393 . S
C364 H353 0.950 . S
C364 C362 1.391 . S
C364 C365 1.400 . S
C365 C359 1.491 . S
C365 C364 1.400 . S
C365 C366 1.398 . S
C366 H354 0.950 . S
C366 C365 1.398 . S
C366 C367 1.391 . S
C367 H355 0.950 . S
C367 C363 1.393 . S
C367 C366 1.391 . S
H368 C376 0.950 . S
H369 C381 0.950 . S
H370 C378 0.950 . S
H371 C380 0.950 . S
H372 C382 0.950 . S
H373 C384 0.950 . S
H374 C386 0.950 . S
H375 C387 0.950 . S
C376 H368 0.950 . S
C376 C377 1.386 . S
C376 C378 1.391 . S
C377 C376 1.386 . S
C377 C381 1.393 . S
C378 H370 0.950 . S
C378 C376 1.391 . S
C378 C379 1.400 . S
C379 C378 1.400 . S
C379 C380 1.398 . S
C379 C385 1.491 . S
C380 H371 0.950 . S
C380 C379 1.398 . S
C380 C381 1.391 . S
C381 H369 0.950 . S
C381 C377 1.393 . S
C381 C380 1.391 . S
C382 H372 0.950 . S
C382 C383 1.386 . S
C382 C384 1.391 . S
C383 C382 1.386 . S
C383 C387 1.393 . S
C384 H373 0.950 . S
C384 C382 1.391 . S
C384 C385 1.400 . S
C385 C379 1.491 . S
C385 C384 1.400 . S
C385 C386 1.398 . S
C386 H374 0.950 . S
C386 C385 1.398 . S
C386 C387 1.391 . S
C387 H375 0.950 . S
C387 C383 1.393 . S
C387 C386 1.391 . S
H388 C396 0.950 . S
H389 C401 0.950 . S
H390 C398 0.950 . S
H391 C400 0.950 . S
H392 C402 0.950 . S
H393 C404 0.950 . S
H394 C406 0.950 . S
H395 C407 0.950 . S
C396 H388 0.950 . S
C396 C397 1.386 . S
C396 C398 1.391 . S
C397 C396 1.386 . S
C397 C401 1.393 . S
C398 H390 0.950 . S
C398 C396 1.391 . S
C398 C399 1.400 . S
C399 C398 1.400 . S
C399 C400 1.398 . S
C399 C405 1.491 . S
C400 H391 0.950 . S
C400 C399 1.398 . S
C400 C401 1.391 . S
C401 H389 0.950 . S
C401 C397 1.393 . S
C401 C400 1.391 . S
C402 H392 0.950 . S
C402 C403 1.386 . S
C402 C404 1.391 . S
C403 C402 1.386 . S
C403 C407 1.393 . S
C404 H393 0.950 . S
C404 C402 1.391 . S
C404 C405 1.400 . S
C405 C399 1.491 . S
C405 C404 1.400 . S
C405 C406 1.398 . S
C406 H394 0.950 . S
C406 C405 1.398 . S
C406 C407 1.391 . S
C407 H395 0.950 . S
C407 C403 1.393 . S
C407 C406 1.391 . S
H408 C416 0.950 . S
H409 C421 0.950 . S
H410 C418 0.950 . S
H411 C420 0.950 . S
H412 C422 0.950 . S
H413 C424 0.950 . S
H414 C426 0.950 . S
H415 C427 0.950 . S
C416 H408 0.950 . S
C416 C417 1.386 . S
C416 C418 1.391 1_655 S
C417 C416 1.386 . S
C417 C421 1.393 . S
C418 H410 0.950 . S
C418 C416 1.391 1_455 S
C418 C419 1.400 . S
C419 C418 1.400 . S
C419 C420 1.398 . S
C419 C425 1.491 . S
C420 H411 0.950 . S
C420 C419 1.398 . S
C420 C421 1.391 1_455 S
C421 H409 0.950 . S
C421 C417 1.393 . S
C421 C420 1.391 1_655 S
C422 H412 0.950 . S
C422 C423 1.386 . S
C422 C424 1.391 . S
C423 C422 1.386 . S
C423 C427 1.393 . S
C424 H413 0.950 . S
C424 C422 1.391 . S
C424 C425 1.400 . S
C425 C419 1.491 . S
C425 C424 1.400 . S
C425 C426 1.398 . S
C426 H414 0.950 . S
C426 C425 1.398 . S
C426 C427 1.391 . S
C427 H415 0.950 . S
C427 C423 1.393 . S
C427 C426 1.391 . S
H428 C436 0.950 . S
H429 C441 0.950 . S
H430 C438 0.950 . S
H431 C440 0.950 . S
H432 C442 0.950 . S
H433 C444 0.950 . S
H434 C446 0.950 . S
H435 C447 0.950 . S
C436 H428 0.950 . S
C436 C437 1.386 . S
C436 C438 1.391 . S
C437 C436 1.386 . S
C437 C441 1.393 . S
C438 H430 0.950 . S
C438 C436 1.391 . S
C438 C439 1.400 . S
C439 C438 1.400 . S
C439 C440 1.398 . S
C439 C445 1.491 . S
C440 H431 0.950 . S
C440 C439 1.398 . S
C440 C441 1.391 . S
C441 H429 0.950 . S
C441 C437 1.393 . S
C441 C440 1.391 . S
C442 H432 0.950 . S
C442 C443 1.386 . S
C442 C444 1.391 . S
C443 C442 1.386 . S
C443 C447 1.393 . S
C444 H433 0.950 . S
C444 C442 1.391 . S
C444 C445 1.400 1_565 S
C445 C439 1.491 . S
C445 C444 1.400 1_545 S
C445 C446 1.398 1_545 S
C446 H434 0.950 . S
C446 C445 1.398 1_565 S
C446 C447 1.391 . S
C447 H435 0.950 . S
C447 C443 1.393 . S
C447 C446 1.391 . S
H448 C456 0.950 . S
H449 C461 0.950 . S
H450 C458 0.950 . S
H451 C460 0.950 . S
H452 C462 0.950 . S
H453 C464 0.950 . S
H454 C466 0.950 . S
H455 C467 0.950 . S
C456 H448 0.950 . S
C456 C457 1.386 . S
C456 C458 1.391 . S
C457 C456 1.386 . S
C457 C461 1.393 . S
C458 H450 0.950 . S
C458 C456 1.391 . S
C458 C459 1.400 . S
C459 C458 1.400 . S
C459 C460 1.398 . S
C459 C465 1.491 . S
C460 H451 0.950 . S
C460 C459 1.398 . S
C460 C461 1.391 . S
C461 H449 0.950 . S
C461 C457 1.393 . S
C461 C460 1.391 . S
C462 H452 0.950 . S
C462 C463 1.386 . S
C462 C464 1.391 . S
C463 C462 1.386 . S
C463 C467 1.393 . S
C464 H453 0.950 . S
C464 C462 1.391 . S
C464 C465 1.400 . S
C465 C459 1.491 . S
C465 C464 1.400 . S
C465 C466 1.398 . S
C466 H454 0.950 . S
C466 C465 1.398 . S
C466 C467 1.391 . S
C467 H455 0.950 . S
C467 C463 1.393 . S
C467 C466 1.391 . S
H468 C476 0.950 . S
H469 C481 0.950 . S
H470 C478 0.950 . S
H471 C480 0.950 1_565 S
H472 C482 0.950 . S
H473 C484 0.950 . S
H474 C486 0.950 . S
H475 C487 0.950 . S
C476 H468 0.950 . S
C476 C477 1.386 . S
C476 C478 1.391 . S
C477 C476 1.386 . S
C477 C481 1.393 . S
C478 H470 0.950 . S
C478 C476 1.391 . S
C478 C479 1.400 1_545 S
C479 C478 1.400 1_565 S
C479 C480 1.398 1_565 S
C479 C485 1.491 . S
C480 H471 0.950 1_545 S
C480 C479 1.398 1_545 S
C480 C481 1.391 . S
C481 H469 0.950 . S
C481 C477 1.393 . S
C481 C480 1.391 . S
C482 H472 0.950 . S
C482 C483 1.386 . S
C482 C484 1.391 . S
C483 C482 1.386 . S
C483 C487 1.393 . S
C484 H473 0.950 . S
C484 C482 1.391 . S
C484 C485 1.400 . S
C485 C479 1.491 . S
C485 C484 1.400 . S
C485 C486 1.398 . S
C486 H474 0.950 . S
C486 C485 1.398 . S
C486 C487 1.391 . S
C487 H475 0.950 . S
C487 C483 1.393 . S
C487 C486 1.391 . S
H488 C496 0.950 . S
H489 C501 0.950 . S
H490 C498 0.950 . S
H491 C500 0.950 . S
H492 C502 0.950 . S
H493 C504 0.950 . S
H494 C506 0.950 . S
H495 C507 0.950 . S
C496 H488 0.950 . S
C496 C497 1.386 . S
C496 C498 1.391 . S
C497 C496 1.386 . S
C497 C501 1.393 . S
C498 H490 0.950 . S
C498 C496 1.391 . S
C498 C499 1.400 . S
C499 C498 1.400 . S
C499 C500 1.398 . S
C499 C505 1.491 . S
C500 H491 0.950 . S
C500 C499 1.398 . S
C500 C501 1.391 . S
C501 H489 0.950 . S
C501 C497 1.393 . S
C501 C500 1.391 . S
C502 H492 0.950 . S
C502 C503 1.386 . S
C502 C504 1.391 . S
C503 C502 1.386 . S
C503 C507 1.393 . S
C504 H493 0.950 . S
C504 C502 1.391 . S
C504 C505 1.400 . S
C505 C499 1.491 . S
C505 C504 1.400 . S
C505 C506 1.398 . S
C506 H494 0.950 . S
C506 C505 1.398 . S
C506 C507 1.391 . S
C507 H495 0.950 . S
C507 C503 1.393 . S
C507 C506 1.391 . S
H508 C516 0.950 . S
H509 C521 0.950 . S
H510 C518 0.950 . S
H511 C520 0.950 . S
H512 C522 0.950 . S
H513 C524 0.950 . S
H514 C526 0.950 . S
H515 C527 0.950 . S
C516 H508 0.950 . S
C516 C517 1.386 . S
C516 C518 1.391 . S
C517 C516 1.386 . S
C517 C521 1.393 . S
C518 H510 0.950 . S
C518 C516 1.391 . S
C518 C519 1.400 . S
C519 C518 1.400 . S
C519 C520 1.398 . S
C519 C525 1.491 . S
C520 H511 0.950 . S
C520 C519 1.398 . S
C520 C521 1.391 . S
C521 H509 0.950 . S
C521 C517 1.393 . S
C521 C520 1.391 . S
C522 H512 0.950 . S
C522 C523 1.386 . S
C522 C524 1.391 . S
C523 C522 1.386 . S
C523 C527 1.393 . S
C524 H513 0.950 . S
C524 C522 1.391 . S
C524 C525 1.400 1_655 S
C525 C519 1.491 . S
C525 C524 1.400 1_455 S
C525 C526 1.398 . S
C526 H514 0.950 . S
C526 C525 1.398 . S
C526 C527 1.391 1_455 S
C527 H515 0.950 . S
C527 C523 1.393 . S
C527 C526 1.391 1_655 S
H528 C536 0.950 . S
H529 C541 0.950 . S
H530 C538 0.950 . S
H531 C540 0.950 . S
H532 C542 0.950 . S
H533 C544 0.950 . S
H534 C546 0.950 . S
H535 C547 0.950 . S
C536 H528 0.950 . S
C536 C537 1.386 . S
C536 C538 1.391 . S
C537 C536 1.386 . S
C537 C541 1.393 . S
C538 H530 0.950 . S
C538 C536 1.391 . S
C538 C539 1.400 . S
C539 C538 1.400 . S
C539 C540 1.398 . S
C539 C545 1.491 . S
C540 H531 0.950 . S
C540 C539 1.398 . S
C540 C541 1.391 . S
C541 H529 0.950 . S
C541 C537 1.393 . S
C541 C540 1.391 . S
C542 H532 0.950 . S
C542 C543 1.386 . S
C542 C544 1.391 . S
C543 C542 1.386 . S
C543 C547 1.393 . S
C544 H533 0.950 . S
C544 C542 1.391 . S
C544 C545 1.400 . S
C545 C539 1.491 . S
C545 C544 1.400 . S
C545 C546 1.398 . S
C546 H534 0.950 . S
C546 C545 1.398 . S
C546 C547 1.391 . S
C547 H535 0.950 . S
C547 C543 1.393 . S
C547 C546 1.391 . S
H548 C556 0.950 . S
H549 C561 0.950 . S
H550 C558 0.950 . S
H551 C560 0.950 . S
H552 C562 0.950 . S
H553 C564 0.950 . S
H554 C566 0.950 . S
H555 C567 0.950 1_455 S
C556 H548 0.950 . S
C556 C557 1.386 . S
C556 C558 1.391 . S
C557 C556 1.386 . S
C557 C561 1.393 . S
C558 H550 0.950 . S
C558 C556 1.391 . S
C558 C559 1.400 . S
C559 C558 1.400 . S
C559 C560 1.398 . S
C559 C565 1.491 . S
C560 H551 0.950 . S
C560 C559 1.398 . S
C560 C561 1.391 . S
C561 H549 0.950 . S
C561 C557 1.393 . S
C561 C560 1.391 . S
C562 H552 0.950 . S
C562 C563 1.386 . S
C562 C564 1.391 1_455 S
C563 C562 1.386 . S
C563 C567 1.393 1_455 S
C564 H553 0.950 . S
C564 C562 1.391 1_655 S
C564 C565 1.400 . S
C565 C559 1.491 . S
C565 C564 1.400 . S
C565 C566 1.398 . S
C566 H554 0.950 . S
C566 C565 1.398 . S
C566 C567 1.391 . S
C567 H555 0.950 1_655 S
C567 C563 1.393 1_655 S
C567 C566 1.391 . S
H568 C576 0.950 . S
H569 C581 0.950 . S
H570 C578 0.950 . S
H571 C580 0.950 . S
H572 C582 0.950 . S
H573 C584 0.950 . S
H574 C586 0.950 . S
H575 C587 0.950 . S
C576 H568 0.950 . S
C576 C577 1.386 . S
C576 C578 1.391 . S
C577 C576 1.386 . S
C577 C581 1.393 . S
C578 H570 0.950 . S
C578 C576 1.391 . S
C578 C579 1.400 . S
C579 C578 1.400 . S
C579 C580 1.398 . S
C579 C585 1.491 . S
C580 H571 0.950 . S
C580 C579 1.398 . S
C580 C581 1.391 . S
C581 H569 0.950 . S
C581 C577 1.393 . S
C581 C580 1.391 . S
C582 H572 0.950 . S
C582 C583 1.386 . S
C582 C584 1.391 . S
C583 C582 1.386 . S
C583 C587 1.393 . S
C584 H573 0.950 . S
C584 C582 1.391 . S
C584 C585 1.400 1_565 S
C585 C579 1.491 . S
C585 C584 1.400 1_545 S
C585 C586 1.398 . S
C586 H574 0.950 . S
C586 C585 1.398 . S
C586 C587 1.391 1_545 S
C587 H575 0.950 . S
C587 C583 1.393 . S
C587 C586 1.391 1_565 S
H588 C596 0.950 . S
H589 C601 0.950 . S
H590 C598 0.950 . S
H591 C600 0.950 . S
H592 C602 0.950 . S
H593 C604 0.950 . S
H594 C606 0.950 . S
H595 C607 0.950 . S
C596 H588 0.950 . S
C596 C597 1.386 . S
C596 C598 1.391 . S
C597 C596 1.386 . S
C597 C601 1.393 . S
C598 H590 0.950 . S
C598 C596 1.391 . S
C598 C599 1.400 . S
C599 C598 1.400 . S
C599 C600 1.398 . S
C599 C605 1.491 . S
C600 H591 0.950 . S
C600 C599 1.398 . S
C600 C601 1.391 . S
C601 H589 0.950 . S
C601 C597 1.393 . S
C601 C600 1.391 . S
C602 H592 0.950 . S
C602 C603 1.386 . S
C602 C604 1.391 . S
C603 C602 1.386 . S
C603 C607 1.393 . S
C604 H593 0.950 . S
C604 C602 1.391 . S
C604 C605 1.400 . S
C605 C599 1.491 . S
C605 C604 1.400 . S
C605 C606 1.398 . S
C606 H594 0.950 . S
C606 C605 1.398 . S
C606 C607 1.391 . S
C607 H595 0.950 . S
C607 C603 1.393 . S
C607 C606 1.391 . S
H608 C616 0.950 . S
H609 C621 0.950 . S
H610 C618 0.950 . S
H611 C620 0.950 . S
H612 C622 0.950 . S
H613 C624 0.950 . S
H614 C626 0.950 1_455 S
H615 C627 0.950 . S
C616 H608 0.950 . S
C616 C617 1.386 . S
C616 C618 1.391 . S
C617 C616 1.386 . S
C617 C621 1.393 . S
C618 H610 0.950 . S
C618 C616 1.391 . S
C618 C619 1.400 . S
C619 C618 1.400 . S
C619 C620 1.398 . S
C619 C625 1.468 1_455 S
C620 H611 0.950 . S
C620 C619 1.398 . S
C620 C621 1.391 . S
C621 H609 0.950 . S
C621 C617 1.393 . S
C621 C620 1.391 . S
C622 H612 0.950 . S
C622 C623 1.386 . S
C622 C624 1.391 . S
C623 C622 1.386 . S
C623 C627 1.393 . S
C624 H613 0.950 . S
C624 C622 1.391 . S
C624 C625 1.412 . S
C625 C619 1.468 1_655 S
C625 C624 1.412 . S
C625 C626 1.411 . S
C626 H614 0.950 1_655 S
C626 C625 1.411 . S
C626 C627 1.391 . S
C627 H615 0.950 . S
C627 C623 1.393 . S
C627 C626 1.391 . S
H628 C636 0.950 . S
H629 C641 0.950 . S
H630 C638 0.950 . S
H631 C640 0.950 . S
H632 C642 0.950 . S
H633 C644 0.950 . S
H634 C646 0.950 . S
H635 C647 0.950 . S
C636 H628 0.950 . S
C636 C637 1.386 . S
C636 C638 1.391 . S
C637 C636 1.386 . S
C637 C641 1.393 . S
C638 H630 0.950 . S
C638 C636 1.391 . S
C638 C639 1.400 . S
C639 C638 1.400 . S
C639 C640 1.398 . S
C639 C645 1.491 . S
C640 H631 0.950 . S
C640 C639 1.398 . S
C640 C641 1.391 . S
C641 H629 0.950 . S
C641 C637 1.393 . S
C641 C640 1.391 . S
C642 H632 0.950 . S
C642 C643 1.386 . S
C642 C644 1.391 1_545 S
C643 C642 1.386 . S
C643 C647 1.393 . S
C644 H633 0.950 . S
C644 C642 1.391 1_565 S
C644 C645 1.400 . S
C645 C639 1.491 . S
C645 C644 1.400 . S
C645 C646 1.398 1_565 S
C646 H634 0.950 . S
C646 C645 1.398 1_545 S
C646 C647 1.391 . S
C647 H635 0.950 . S
C647 C643 1.393 . S
C647 C646 1.391 . S
C177 C148 1.302 . S
C183 C8 1.183 . S
C197 C22 1.301 . S
C203 C162 1.450 . S
C217 C36 1.452 . S
C223 C92 1.299 . S
C237 C50 1.309 . S
C243 C106 1.175 . S
C257 C120 1.324 . S
C263 C64 1.517 . S
C277 C78 1.363 . S
C283 C134 1.521 . S
C297 C119 1.927 . S
C303 C7 1.948 . S
C317 C21 1.641 . S
C323 C133 1.674 . S
C337 C35 1.348 . S
C343 C147 1.354 . S
C357 C49 1.351 . S
C363 C161 1.345 . S
C377 C91 1.651 . S
C383 C63 1.675 . S
C397 C105 1.946 . S
C403 C77 1.934 . S
C417 C51 1.594 . S
C423 C9 1.597 . S
C437 C23 1.573 . S
C443 C65 1.575 . S
C457 C79 1.591 . S
C463 C37 1.580 . S
C477 C135 1.580 . S
C483 C93 1.573 . S
C497 C149 1.595 . S
C503 C107 1.599 . S
C517 C121 1.584 . S
C523 C163 1.571 . S
C537 C48 1.221 . S
C543 C6 1.226 . S
C557 C20 1.229 . S
C563 C62 1.228 . S
C577 C76 1.205 . S
C583 C34 1.198 . S
C597 C90 1.226 . S
C603 C132 1.230 . S
C617 C146 1.222 . S
C623 C104 1.218 . S
C637 C118 1.196 . S
C643 C160 1.205 . S
