# Generated by pormake.
# Topology wkr, (6)-cn, num edge types: 1
# Building blocks:
#     Node 0, Type 0, BuildingBlock: VOLQOD_clean_sbu_1, # of connection points: 6
#     Node 1, Type 0, BuildingBlock: VOLQOD_clean_sbu_1, # of connection points: 6
#     Node 2, Type 0, BuildingBlock: VOLQOD_clean_sbu_1, # of connection points: 6
#     Node 3, Type 0, BuildingBlock: VOLQOD_clean_sbu_1, # of connection points: 6
#     Node 4, Type 0, BuildingBlock: VOLQOD_clean_sbu_1, # of connection points: 6
#     Node 5, Type 0, BuildingBlock: VOLQOD_clean_sbu_1, # of connection points: 6
#     Node 6, Type 0, BuildingBlock: VOLQOD_clean_sbu_1, # of connection points: 6
#     Node 7, Type 0, BuildingBlock: VOLQOD_clean_sbu_1, # of connection points: 6
#     Node 8, Type 0, BuildingBlock: VOLQOD_clean_sbu_1, # of connection points: 6
#     Node 9, Type 0, BuildingBlock: VOLQOD_clean_sbu_1, # of connection points: 6
#     Node 10, Type 0, BuildingBlock: VOLQOD_clean_sbu_1, # of connection points: 6
#     Node 11, Type 0, BuildingBlock: VOLQOD_clean_sbu_1, # of connection points: 6
#     Node 12, Type 0, BuildingBlock: VOLQOD_clean_sbu_1, # of connection points: 6
#     Node 13, Type 0, BuildingBlock: VOLQOD_clean_sbu_1, # of connection points: 6
#     Node 14, Type 0, BuildingBlock: VOLQOD_clean_sbu_1, # of connection points: 6
#     Node 15, Type 0, BuildingBlock: VOLQOD_clean_sbu_1, # of connection points: 6
#     Node 16, Type 0, BuildingBlock: VOLQOD_clean_sbu_1, # of connection points: 6
#     Node 17, Type 0, BuildingBlock: VOLQOD_clean_sbu_1, # of connection points: 6
#     Node 18, Type 0, BuildingBlock: VOLQOD_clean_sbu_1, # of connection points: 6
#     Node 19, Type 0, BuildingBlock: VOLQOD_clean_sbu_1, # of connection points: 6
#     Node 20, Type 0, BuildingBlock: VOLQOD_clean_sbu_1, # of connection points: 6
#     Node 21, Type 0, BuildingBlock: VOLQOD_clean_sbu_1, # of connection points: 6
#     Node 22, Type 0, BuildingBlock: VOLQOD_clean_sbu_1, # of connection points: 6
#     Node 23, Type 0, BuildingBlock: VOLQOD_clean_sbu_1, # of connection points: 6
#     Edge 24, Type (0, 0), BuildingBlock: CIFDUS_clean_linker_0, # of connection points: 2
#     Edge 25, Type (0, 0), BuildingBlock: CIFDUS_clean_linker_0, # of connection points: 2
#     Edge 26, Type (0, 0), BuildingBlock: CIFDUS_clean_linker_0, # of connection points: 2
#     Edge 27, Type (0, 0), BuildingBlock: CIFDUS_clean_linker_0, # of connection points: 2
#     Edge 28, Type (0, 0), BuildingBlock: CIFDUS_clean_linker_0, # of connection points: 2
#     Edge 29, Type (0, 0), BuildingBlock: CIFDUS_clean_linker_0, # of connection points: 2
#     Edge 30, Type (0, 0), BuildingBlock: CIFDUS_clean_linker_0, # of connection points: 2
#     Edge 31, Type (0, 0), BuildingBlock: CIFDUS_clean_linker_0, # of connection points: 2
#     Edge 32, Type (0, 0), BuildingBlock: CIFDUS_clean_linker_0, # of connection points: 2
#     Edge 33, Type (0, 0), BuildingBlock: CIFDUS_clean_linker_0, # of connection points: 2
#     Edge 34, Type (0, 0), BuildingBlock: CIFDUS_clean_linker_0, # of connection points: 2
#     Edge 35, Type (0, 0), BuildingBlock: CIFDUS_clean_linker_0, # of connection points: 2
#     Edge 36, Type (0, 0), BuildingBlock: CIFDUS_clean_linker_0, # of connection points: 2
#     Edge 37, Type (0, 0), BuildingBlock: CIFDUS_clean_linker_0, # of connection points: 2
#     Edge 38, Type (0, 0), BuildingBlock: CIFDUS_clean_linker_0, # of connection points: 2
#     Edge 39, Type (0, 0), BuildingBlock: CIFDUS_clean_linker_0, # of connection points: 2
#     Edge 40, Type (0, 0), BuildingBlock: CIFDUS_clean_linker_0, # of connection points: 2
#     Edge 41, Type (0, 0), BuildingBlock: CIFDUS_clean_linker_0, # of connection points: 2
#     Edge 42, Type (0, 0), BuildingBlock: CIFDUS_clean_linker_0, # of connection points: 2
#     Edge 43, Type (0, 0), BuildingBlock: CIFDUS_clean_linker_0, # of connection points: 2
#     Edge 44, Type (0, 0), BuildingBlock: CIFDUS_clean_linker_0, # of connection points: 2
#     Edge 45, Type (0, 0), BuildingBlock: CIFDUS_clean_linker_0, # of connection points: 2
#     Edge 46, Type (0, 0), BuildingBlock: CIFDUS_clean_linker_0, # of connection points: 2
#     Edge 47, Type (0, 0), BuildingBlock: CIFDUS_clean_linker_0, # of connection points: 2
#     Edge 48, Type (0, 0), BuildingBlock: CIFDUS_clean_linker_0, # of connection points: 2
#     Edge 49, Type (0, 0), BuildingBlock: CIFDUS_clean_linker_0, # of connection points: 2
#     Edge 50, Type (0, 0), BuildingBlock: CIFDUS_clean_linker_0, # of connection points: 2
#     Edge 51, Type (0, 0), BuildingBlock: CIFDUS_clean_linker_0, # of connection points: 2
#     Edge 52, Type (0, 0), BuildingBlock: CIFDUS_clean_linker_0, # of connection points: 2
#     Edge 53, Type (0, 0), BuildingBlock: CIFDUS_clean_linker_0, # of connection points: 2
#     Edge 54, Type (0, 0), BuildingBlock: CIFDUS_clean_linker_0, # of connection points: 2
#     Edge 55, Type (0, 0), BuildingBlock: CIFDUS_clean_linker_0, # of connection points: 2
#     Edge 56, Type (0, 0), BuildingBlock: CIFDUS_clean_linker_0, # of connection points: 2
#     Edge 57, Type (0, 0), BuildingBlock: CIFDUS_clean_linker_0, # of connection points: 2
#     Edge 58, Type (0, 0), BuildingBlock: CIFDUS_clean_linker_0, # of connection points: 2
#     Edge 59, Type (0, 0), BuildingBlock: CIFDUS_clean_linker_0, # of connection points: 2
#     Edge 60, Type (0, 0), BuildingBlock: CIFDUS_clean_linker_0, # of connection points: 2
#     Edge 61, Type (0, 0), BuildingBlock: CIFDUS_clean_linker_0, # of connection points: 2
#     Edge 62, Type (0, 0), BuildingBlock: CIFDUS_clean_linker_0, # of connection points: 2
#     Edge 63, Type (0, 0), BuildingBlock: CIFDUS_clean_linker_0, # of connection points: 2
#     Edge 64, Type (0, 0), BuildingBlock: CIFDUS_clean_linker_0, # of connection points: 2
#     Edge 65, Type (0, 0), BuildingBlock: CIFDUS_clean_linker_0, # of connection points: 2
#     Edge 66, Type (0, 0), BuildingBlock: CIFDUS_clean_linker_0, # of connection points: 2
#     Edge 67, Type (0, 0), BuildingBlock: CIFDUS_clean_linker_0, # of connection points: 2
#     Edge 68, Type (0, 0), BuildingBlock: CIFDUS_clean_linker_0, # of connection points: 2
#     Edge 69, Type (0, 0), BuildingBlock: CIFDUS_clean_linker_0, # of connection points: 2
#     Edge 70, Type (0, 0), BuildingBlock: CIFDUS_clean_linker_0, # of connection points: 2
#     Edge 71, Type (0, 0), BuildingBlock: CIFDUS_clean_linker_0, # of connection points: 2
#     Edge 72, Type (0, 0), BuildingBlock: CIFDUS_clean_linker_0, # of connection points: 2
#     Edge 73, Type (0, 0), BuildingBlock: CIFDUS_clean_linker_0, # of connection points: 2
#     Edge 74, Type (0, 0), BuildingBlock: CIFDUS_clean_linker_0, # of connection points: 2
#     Edge 75, Type (0, 0), BuildingBlock: CIFDUS_clean_linker_0, # of connection points: 2
#     Edge 76, Type (0, 0), BuildingBlock: CIFDUS_clean_linker_0, # of connection points: 2
#     Edge 77, Type (0, 0), BuildingBlock: CIFDUS_clean_linker_0, # of connection points: 2
#     Edge 78, Type (0, 0), BuildingBlock: CIFDUS_clean_linker_0, # of connection points: 2
#     Edge 79, Type (0, 0), BuildingBlock: CIFDUS_clean_linker_0, # of connection points: 2
#     Edge 80, Type (0, 0), BuildingBlock: CIFDUS_clean_linker_0, # of connection points: 2
#     Edge 81, Type (0, 0), BuildingBlock: CIFDUS_clean_linker_0, # of connection points: 2
#     Edge 82, Type (0, 0), BuildingBlock: CIFDUS_clean_linker_0, # of connection points: 2
#     Edge 83, Type (0, 0), BuildingBlock: CIFDUS_clean_linker_0, # of connection points: 2
#     Edge 84, Type (0, 0), BuildingBlock: CIFDUS_clean_linker_0, # of connection points: 2
#     Edge 85, Type (0, 0), BuildingBlock: CIFDUS_clean_linker_0, # of connection points: 2
#     Edge 86, Type (0, 0), BuildingBlock: CIFDUS_clean_linker_0, # of connection points: 2
#     Edge 87, Type (0, 0), BuildingBlock: CIFDUS_clean_linker_0, # of connection points: 2
#     Edge 88, Type (0, 0), BuildingBlock: CIFDUS_clean_linker_0, # of connection points: 2
#     Edge 89, Type (0, 0), BuildingBlock: CIFDUS_clean_linker_0, # of connection points: 2
#     Edge 90, Type (0, 0), BuildingBlock: CIFDUS_clean_linker_0, # of connection points: 2
#     Edge 91, Type (0, 0), BuildingBlock: CIFDUS_clean_linker_0, # of connection points: 2
#     Edge 92, Type (0, 0), BuildingBlock: CIFDUS_clean_linker_0, # of connection points: 2
#     Edge 93, Type (0, 0), BuildingBlock: CIFDUS_clean_linker_0, # of connection points: 2
#     Edge 94, Type (0, 0), BuildingBlock: CIFDUS_clean_linker_0, # of connection points: 2
#     Edge 95, Type (0, 0), BuildingBlock: CIFDUS_clean_linker_0, # of connection points: 2
# Relax obj value: 0.730
# Max RMSD: 0.278
# Mean RMSD: 0.278
data_MOF--net-wkr--node1-VOLQOD_clean_sbu_1--edge1-CIFDUS_clean_linker_0
_symmetry_space_group_name_H-M    P1
_symmetry_Int_Tables_number       1
_symmetry_cell_setting            triclinic
loop_
_symmetry_equiv_pos_as_xyz
'x, y, z'
_cell_length_a     46.208839
_cell_length_b     46.195477
_cell_length_c     46.997138
_cell_angle_alpha  89.955816
_cell_angle_beta   89.995015
_cell_angle_gamma 120.21284
loop_
_atom_site_label
_atom_site_type_symbol
_atom_site_fract_x
_atom_site_fract_y
_atom_site_fract_z
_atom_type_partial_charge
O0 O 0.48231 0.10256 0.17026 0.0
Zn1 Zn 0.4726 0.14096 0.15888 0.0
O2 O 0.51508 0.18082 0.14673 0.0
Zn3 Zn 0.51921 0.22112 0.1639 0.0
Zn4 Zn 0.55197 0.17492 0.15891 0.0
Zn5 Zn 0.5198 0.1893 0.10551 0.0
O6 O 0.51931 0.25321 0.13551 0.0
O7 O 0.52148 0.23213 0.09379 0.0
O8 O 0.45247 0.15542 0.194 0.0
O9 O 0.48252 0.21093 0.19085 0.0
O10 O 0.56016 0.24445 0.18843 0.0
O11 O 0.57777 0.20761 0.18972 0.0
O12 O 0.58438 0.18542 0.12762 0.0
O13 O 0.44261 0.12287 0.12214 0.0
O14 O 0.56234 0.19351 0.08873 0.0
O15 O 0.47929 0.15264 0.08771 0.0
C16 C 0.50923 0.10116 0.17324 0.0
C17 C 0.52034 0.25455 0.10851 0.0
C18 C 0.57983 0.23491 0.1978 0.0
C19 C 0.45918 0.18477 0.20241 0.0
C20 C 0.58583 0.19174 0.1012 0.0
C21 C 0.45049 0.12958 0.09571 0.0
O22 O 0.53775 0.12744 0.17026 0.0
O23 O 0.38664 0.45959 0.1745 0.0
Zn24 Zn 0.33948 0.45455 0.16534 0.0
O25 O 0.34621 0.4989 0.15725 0.0
Zn26 Zn 0.30921 0.50292 0.17135 0.0
Zn27 Zn 0.38538 0.5302 0.17758 0.0
Zn28 Zn 0.35125 0.51136 0.11722 0.0
O29 O 0.28112 0.50542 0.14081 0.0
O30 O 0.31312 0.51788 0.10246 0.0
O31 O 0.30487 0.43502 0.20057 0.0
O32 O 0.28015 0.46558 0.19691 0.0
O33 O 0.32517 0.54312 0.19647 0.0
O34 O 0.37216 0.54605 0.21201 0.0
O35 O 0.41172 0.5701 0.1537 0.0
O36 O 0.32388 0.42933 0.12622 0.0
O37 O 0.39391 0.55563 0.10937 0.0
O38 O 0.34832 0.47272 0.09584 0.0
C39 C 0.41478 0.485 0.1819 0.0
C40 C 0.28632 0.51288 0.1146 0.0
C41 C 0.34918 0.55352 0.2141 0.0
C42 C 0.28245 0.44213 0.20871 0.0
C43 C 0.41417 0.57683 0.12731 0.0
C44 C 0.33358 0.44135 0.10101 0.0
O45 O 0.41718 0.51341 0.18547 0.0
O46 O 0.93287 0.38813 0.16647 0.0
Zn47 Zn 0.88965 0.34108 0.15588 0.0
O48 O 0.85281 0.34955 0.1449 0.0
Zn49 Zn 0.81151 0.31939 0.16454 0.0
Zn50 Zn 0.86492 0.39494 0.15479 0.0
Zn51 Zn 0.84195 0.34425 0.10403 0.0
O52 O 0.77592 0.28784 0.13833 0.0
O53 O 0.79712 0.30322 0.09498 0.0
O54 O 0.8714 0.30328 0.18945 0.0
O55 O 0.81813 0.29048 0.1911 0.0
O56 O 0.79414 0.34326 0.1882 0.0
O57 O 0.83623 0.39583 0.18611 0.0
O58 O 0.85626 0.41769 0.12312 0.0
O59 O 0.90227 0.32499 0.11835 0.0
O60 O 0.83868 0.38278 0.08671 0.0
O61 O 0.87634 0.338 0.08465 0.0
C62 C 0.93755 0.41808 0.16793 0.0
C63 C 0.77361 0.28368 0.11156 0.0
C64 C 0.80777 0.37378 0.19561 0.0
C65 C 0.84147 0.28588 0.19974 0.0
C66 C 0.8456 0.41066 0.09775 0.0
C67 C 0.89674 0.3285 0.09209 0.0
O68 O 0.91324 0.4232 0.16424 0.0
O69 O 0.55339 0.93165 0.17151 0.0
Zn70 Zn 0.55701 0.88873 0.15923 0.0
O71 O 0.51213 0.85287 0.14877 0.0
Zn72 Zn 0.49493 0.81776 0.17696 0.0
Zn73 Zn 0.48174 0.8695 0.14342 0.0
Zn74 Zn 0.50945 0.83168 0.11264 0.0
O75 O 0.49531 0.77742 0.16197 0.0
O76 O 0.50861 0.78809 0.11632 0.0
O77 O 0.57316 0.8664 0.19157 0.0
O78 O 0.52427 0.83043 0.21143 0.0
O79 O 0.44778 0.80419 0.18778 0.0
O80 O 0.43919 0.84102 0.16457 0.0
O81 O 0.46761 0.86797 0.10291 0.0
O82 O 0.58515 0.90136 0.12109 0.0
O83 O 0.46709 0.82145 0.09206 0.0
O84 O 0.549 0.86301 0.09051 0.0
C85 C 0.52922 0.93778 0.16834 0.0
C86 C 0.50183 0.7693 0.13798 0.0
C87 C 0.42886 0.81572 0.18086 0.0
C88 C 0.55609 0.8451 0.21138 0.0
C89 C 0.45523 0.84082 0.0889 0.0
C90 C 0.57715 0.88879 0.09593 0.0
O91 O 0.50147 0.91591 0.15764 0.0
O92 O 0.62968 0.5359 0.17499 0.0
Zn93 Zn 0.678 0.54515 0.16314 0.0
O94 O 0.67484 0.5025 0.15 0.0
Zn95 Zn 0.70717 0.49429 0.16971 0.0
Zn96 Zn 0.62977 0.46577 0.15747 0.0
Zn97 Zn 0.68359 0.50072 0.10916 0.0
O98 O 0.7412 0.49391 0.14382 0.0
O99 O 0.72548 0.49914 0.10052 0.0
O100 O 0.71356 0.56489 0.19789 0.0
O101 O 0.73335 0.52982 0.1977 0.0
O102 O 0.68451 0.45161 0.19233 0.0
O103 O 0.63051 0.4344 0.18635 0.0
O104 O 0.60952 0.43823 0.12315 0.0
O105 O 0.69064 0.57612 0.12682 0.0
O106 O 0.64657 0.46064 0.08838 0.0
O107 O 0.68966 0.54224 0.09229 0.0
C108 C 0.60074 0.50909 0.17546 0.0
C109 C 0.7457 0.49646 0.11707 0.0
C110 C 0.65377 0.43094 0.1973 0.0
C111 C 0.73372 0.5555 0.20763 0.0
C112 C 0.6181 0.43821 0.0975 0.0
C113 C 0.69303 0.56999 0.10049 0.0
O114 O 0.5979 0.48094 0.1695 0.0
O115 O 0.10796 0.63024 0.16362 0.0
Zn116 Zn 0.14883 0.67838 0.15358 0.0
O117 O 0.18813 0.67378 0.14359 0.0
Zn118 Zn 0.22784 0.70756 0.16351 0.0
Zn119 Zn 0.17913 0.62935 0.15445 0.0
Zn120 Zn 0.19972 0.67925 0.1029 0.0
O121 O 0.26337 0.73991 0.13751 0.0
O122 O 0.24394 0.72104 0.09429 0.0
O123 O 0.16249 0.7138 0.18814 0.0
O124 O 0.21761 0.73504 0.18916 0.0
O125 O 0.24686 0.68679 0.18921 0.0
O126 O 0.20822 0.63272 0.1872 0.0
O127 O 0.1915 0.60804 0.1237 0.0
O128 O 0.13563 0.69365 0.11595 0.0
O129 O 0.20568 0.64182 0.08644 0.0
O130 O 0.16493 0.68451 0.08267 0.0
C131 C 0.105 0.60108 0.1659 0.0
C132 C 0.26634 0.74249 0.11064 0.0
C133 C 0.23521 0.6567 0.19738 0.0
C134 C 0.19168 0.73488 0.19817 0.0
C135 C 0.20157 0.61516 0.09815 0.0
C136 C 0.1429 0.69201 0.08979 0.0
O137 O 0.1305 0.59762 0.16318 0.0
O138 O 0.92747 0.54072 0.36946 0.0
Zn139 Zn 0.88693 0.54747 0.38125 0.0
O140 O 0.84799 0.50368 0.39307 0.0
Zn141 Zn 0.80718 0.49591 0.37424 0.0
Zn142 Zn 0.85727 0.4686 0.3824 0.0
Zn143 Zn 0.83746 0.49854 0.43409 0.0
O144 O 0.77312 0.49428 0.40103 0.0
O145 O 0.79387 0.49676 0.44403 0.0
O146 O 0.87098 0.56746 0.34682 0.0
O147 O 0.816 0.53207 0.34727 0.0
O148 O 0.78706 0.45454 0.35014 0.0
O149 O 0.8263 0.44015 0.35171 0.0
O150 O 0.84873 0.43751 0.41415 0.0
O151 O 0.90371 0.57653 0.41855 0.0
O152 O 0.83309 0.45583 0.45125 0.0
O153 O 0.87374 0.53915 0.45254 0.0
C154 C 0.93033 0.5145 0.36748 0.0
C155 C 0.7711 0.49526 0.42791 0.0
C156 C 0.79856 0.43591 0.34244 0.0
C157 C 0.84126 0.55797 0.33735 0.0
C158 C 0.83926 0.43454 0.43983 0.0
C159 C 0.89677 0.56817 0.44488 0.0
O160 O 0.90502 0.48559 0.37148 0.0
O161 O 0.39141 0.93466 0.3589 0.0
Zn162 Zn 0.3439 0.89422 0.36979 0.0
O163 O 0.3475 0.85456 0.37658 0.0
Zn164 Zn 0.30571 0.81582 0.3637 0.0
Zn165 Zn 0.38467 0.86049 0.35398 0.0
Zn166 Zn 0.35434 0.84622 0.41565 0.0
O167 O 0.28411 0.78046 0.3934 0.0
O168 O 0.3199 0.79954 0.42938 0.0
O169 O 0.30952 0.87889 0.33484 0.0
O170 O 0.27263 0.82861 0.35061 0.0
O171 O 0.31392 0.79508 0.32935 0.0
O172 O 0.36757 0.83142 0.31956 0.0
O173 O 0.41224 0.84724 0.37622 0.0
O174 O 0.33217 0.90654 0.40974 0.0
O175 O 0.39944 0.84952 0.42144 0.0
O176 O 0.34881 0.87899 0.43876 0.0
C177 C 0.4181 0.93576 0.34968 0.0
C178 C 0.29284 0.77686 0.41819 0.0
C179 C 0.33957 0.80561 0.31352 0.0
C180 C 0.28159 0.85118 0.33175 0.0
C181 C 0.41797 0.84706 0.40264 0.0
C182 C 0.3384 0.89953 0.43476 0.0
O183 O 0.41827 0.90874 0.34506 0.0
O184 O 0.48193 0.3914 0.36773 0.0
Zn185 Zn 0.47307 0.3437 0.38011 0.0
O186 O 0.51604 0.34771 0.39261 0.0
Zn187 Zn 0.52249 0.31342 0.37442 0.0
Zn188 Zn 0.55258 0.39189 0.38226 0.0
Zn189 Zn 0.51961 0.3426 0.43384 0.0
O190 O 0.52458 0.28195 0.40226 0.0
O191 O 0.52243 0.30193 0.44454 0.0
O192 O 0.45322 0.30815 0.34559 0.0
O193 O 0.48601 0.28579 0.34748 0.0
O194 O 0.56401 0.33385 0.35023 0.0
O195 O 0.58113 0.38824 0.3523 0.0
O196 O 0.58346 0.41375 0.41454 0.0
O197 O 0.44268 0.33141 0.41673 0.0
O198 O 0.56128 0.38079 0.45196 0.0
O199 O 0.47848 0.33719 0.45144 0.0
C200 C 0.50855 0.42031 0.36561 0.0
C201 C 0.52413 0.28021 0.42925 0.0
C202 C 0.58404 0.364 0.34292 0.0
C203 C 0.46131 0.2867 0.33673 0.0
C204 C 0.58454 0.4074 0.44067 0.0
C205 C 0.44992 0.33167 0.44321 0.0
O206 O 0.53718 0.42365 0.37025 0.0
O207 O 0.09813 0.47068 0.37168 0.0
Zn208 Zn 0.13994 0.46586 0.38205 0.0
O209 O 0.1778 0.51032 0.39058 0.0
Zn210 Zn 0.21837 0.51202 0.37642 0.0
Zn211 Zn 0.17005 0.54279 0.37158 0.0
Zn212 Zn 0.18385 0.52183 0.43095 0.0
O213 O 0.25306 0.5242 0.40686 0.0
O214 O 0.22983 0.53298 0.44475 0.0
O215 O 0.1555 0.44583 0.34818 0.0
O216 O 0.20987 0.46969 0.35748 0.0
O217 O 0.23814 0.54554 0.34464 0.0
O218 O 0.20003 0.56101 0.33786 0.0
O219 O 0.18147 0.58142 0.39665 0.0
O220 O 0.12873 0.43935 0.42031 0.0
O221 O 0.18274 0.56432 0.44051 0.0
O222 O 0.15011 0.48121 0.45218 0.0
C223 C 0.09539 0.49611 0.36472 0.0
C224 C 0.25424 0.53235 0.43286 0.0
C225 C 0.22702 0.56167 0.33097 0.0
C226 C 0.18443 0.44904 0.3432 0.0
C227 C 0.18398 0.58624 0.42333 0.0
C228 C 0.13229 0.45018 0.446 0.0
O229 O 0.12138 0.52497 0.36245 0.0
O230 O 0.63434 0.09738 0.3574 0.0
Zn231 Zn 0.68101 0.13833 0.37137 0.0
O232 O 0.67333 0.1753 0.3829 0.0
Zn233 Zn 0.71071 0.2182 0.37093 0.0
Zn234 Zn 0.63289 0.1686 0.36492 0.0
Zn235 Zn 0.66771 0.17871 0.42386 0.0
O236 O 0.73339 0.24996 0.40328 0.0
O237 O 0.70058 0.22402 0.44021 0.0
O238 O 0.72107 0.1583 0.33989 0.0
O239 O 0.74448 0.21263 0.34982 0.0
O240 O 0.6965 0.24066 0.34203 0.0
O241 O 0.64311 0.20238 0.33444 0.0
O242 O 0.60331 0.1733 0.39238 0.0
O243 O 0.69236 0.1216 0.40928 0.0
O244 O 0.62234 0.17181 0.43527 0.0
O245 O 0.67649 0.14567 0.44247 0.0
C246 C 0.60634 0.09555 0.35109 0.0
C247 C 0.72594 0.24925 0.42942 0.0
C248 C 0.66899 0.23048 0.32895 0.0
C249 C 0.74478 0.18898 0.33634 0.0
C250 C 0.6003 0.17203 0.41924 0.0
C251 C 0.68715 0.12611 0.43538 0.0
O252 O 0.60383 0.1217 0.35153 0.0
O253 O 0.54941 0.63223 0.36648 0.0
Zn254 Zn 0.5518 0.6774 0.38068 0.0
O255 O 0.5064 0.66723 0.39222 0.0
Zn256 Zn 0.49082 0.69179 0.36975 0.0
Zn257 Zn 0.47503 0.61973 0.38919 0.0
Zn258 Zn 0.50152 0.67662 0.43185 0.0
O259 O 0.4881 0.72624 0.39328 0.0
O260 O 0.49961 0.71854 0.43746 0.0
O261 O 0.56978 0.7173 0.34904 0.0
O262 O 0.52307 0.71831 0.33925 0.0
O263 O 0.44582 0.6618 0.35243 0.0
O264 O 0.436 0.61148 0.36543 0.0
O265 O 0.45498 0.59708 0.42596 0.0
O266 O 0.57943 0.68959 0.41887 0.0
O267 O 0.45778 0.6399 0.4488 0.0
O268 O 0.54154 0.68243 0.45215 0.0
C269 C 0.52475 0.60184 0.36558 0.0
C270 C 0.49305 0.73475 0.41932 0.0
C271 C 0.42709 0.63011 0.35284 0.0
C272 C 0.55371 0.7284 0.33429 0.0
C273 C 0.44392 0.60845 0.44497 0.0
C274 C 0.57075 0.68875 0.44503 0.0
O275 O 0.49563 0.59502 0.37309 0.0
O276 O 0.53507 0.91996 0.86612 0.0
Zn277 Zn 0.54287 0.88031 0.87855 0.0
O278 O 0.4995 0.84138 0.89092 0.0
Zn279 Zn 0.49295 0.8002 0.87358 0.0
Zn280 Zn 0.46377 0.84929 0.87921 0.0
Zn281 Zn 0.4945 0.83264 0.9322 0.0
O282 O 0.49343 0.76819 0.90174 0.0
O283 O 0.49327 0.78979 0.94377 0.0
O284 O 0.56274 0.86417 0.84421 0.0
O285 O 0.52854 0.80899 0.84576 0.0
O286 O 0.45059 0.77745 0.85075 0.0
O287 O 0.4352 0.816 0.84981 0.0
O288 O 0.43285 0.84191 0.91085 0.0
O289 O 0.5725 0.89792 0.91559 0.0
O290 O 0.45187 0.82863 0.94895 0.0
O291 O 0.53505 0.86964 0.95002 0.0
C292 C 0.50858 0.92218 0.8631 0.0
C293 C 0.49355 0.7671 0.92873 0.0
C294 C 0.43123 0.78778 0.84224 0.0
C295 C 0.55376 0.8344 0.83515 0.0
C296 C 0.43026 0.83386 0.93689 0.0
C297 C 0.56415 0.8921 0.94202 0.0
O298 O 0.47977 0.89654 0.86668 0.0
O299 O 0.63631 0.54041 0.87118 0.0
Zn300 Zn 0.68206 0.54319 0.8836 0.0
O301 O 0.67149 0.49751 0.89546 0.0
Zn302 Zn 0.70428 0.48733 0.87998 0.0
Zn303 Zn 0.62775 0.46481 0.88126 0.0
Zn304 Zn 0.67039 0.49083 0.93693 0.0
O305 O 0.73015 0.47994 0.91017 0.0
O306 O 0.70735 0.48284 0.95082 0.0
O307 O 0.72122 0.56199 0.85126 0.0
O308 O 0.73718 0.52416 0.8559 0.0
O309 O 0.68375 0.44804 0.8535 0.0
O310 O 0.63152 0.438 0.84983 0.0
O311 O 0.60057 0.43167 0.91081 0.0
O312 O 0.69728 0.57202 0.92101 0.0
O313 O 0.62809 0.44993 0.95142 0.0
O314 O 0.67772 0.53277 0.95518 0.0
C315 C 0.6065 0.5154 0.86739 0.0
C316 C 0.72898 0.47909 0.93719 0.0
C317 C 0.65468 0.43225 0.84257 0.0
C318 C 0.7411 0.55091 0.84476 0.0
C319 C 0.60273 0.42859 0.93742 0.0
C320 C 0.6905 0.56316 0.94723 0.0
O321 O 0.60076 0.48556 0.8698 0.0
O322 O 0.09199 0.6304 0.85992 0.0
Zn323 Zn 0.13281 0.67748 0.87117 0.0
O324 O 0.17064 0.67169 0.88028 0.0
Zn325 Zn 0.21114 0.71296 0.86912 0.0
Zn326 Zn 0.16498 0.63384 0.85882 0.0
Zn327 Zn 0.17487 0.66317 0.91991 0.0
O328 O 0.24375 0.73338 0.90131 0.0
O329 O 0.22022 0.69623 0.93612 0.0
O330 O 0.15096 0.71255 0.83645 0.0
O331 O 0.20189 0.74742 0.85253 0.0
O332 O 0.23353 0.70354 0.83676 0.0
O333 O 0.1969 0.65016 0.8262 0.0
O334 O 0.1754 0.60504 0.88259 0.0
O335 O 0.11933 0.69051 0.90991 0.0
O336 O 0.17022 0.61776 0.92712 0.0
O337 O 0.14134 0.66952 0.94062 0.0
C338 C 0.09025 0.60311 0.85151 0.0
C339 C 0.24434 0.7234 0.92643 0.0
C340 C 0.22373 0.67775 0.82122 0.0
C341 C 0.17946 0.7398 0.83373 0.0
C342 C 0.17367 0.59913 0.90912 0.0
C343 C 0.12307 0.68227 0.93528 0.0
O344 O 0.11688 0.6018 0.84809 0.0
O345 O 0.46651 0.0918 0.86498 0.0
Zn346 Zn 0.46422 0.13515 0.87654 0.0
O347 O 0.50995 0.17049 0.8865 0.0
Zn348 Zn 0.51721 0.21351 0.87389 0.0
Zn349 Zn 0.54128 0.1613 0.86755 0.0
Zn350 Zn 0.51999 0.17391 0.92724 0.0
O351 O 0.52525 0.24469 0.90603 0.0
O352 O 0.5291 0.2183 0.94401 0.0
O353 O 0.44538 0.15473 0.8438 0.0
O354 O 0.47897 0.20912 0.85182 0.0
O355 O 0.55454 0.23496 0.84549 0.0
O356 O 0.56204 0.19222 0.83468 0.0
O357 O 0.57844 0.16908 0.89319 0.0
O358 O 0.43781 0.12388 0.91518 0.0
O359 O 0.56185 0.17187 0.93683 0.0
O360 O 0.47929 0.13839 0.94673 0.0
C361 C 0.49139 0.08788 0.85842 0.0
C362 C 0.52963 0.24354 0.93261 0.0
C363 C 0.56758 0.22179 0.83028 0.0
C364 C 0.4541 0.18562 0.83898 0.0
C365 C 0.58307 0.17134 0.9199 0.0
C366 C 0.44822 0.12375 0.94056 0.0
O367 O 0.52087 0.11303 0.85716 0.0
O368 O 0.39617 0.47858 0.86906 0.0
Zn369 Zn 0.34913 0.47258 0.88203 0.0
O370 O 0.35631 0.51688 0.89504 0.0
Zn371 Zn 0.32817 0.52972 0.87445 0.0
Zn372 Zn 0.40278 0.55122 0.88909 0.0
Zn373 Zn 0.34659 0.51892 0.93551 0.0
O374 O 0.29508 0.53258 0.89946 0.0
O375 O 0.30453 0.52054 0.94285 0.0
O376 O 0.31038 0.45325 0.8492 0.0
O377 O 0.30033 0.4955 0.84629 0.0
O378 O 0.35431 0.5729 0.85344 0.0
O379 O 0.4066 0.58443 0.85998 0.0
O380 O 0.42301 0.57937 0.92324 0.0
O381 O 0.33662 0.44264 0.91899 0.0
O382 O 0.38261 0.56056 0.95531 0.0
O383 O 0.34068 0.47786 0.95359 0.0
C384 C 0.42627 0.50378 0.87014 0.0
C385 C 0.28759 0.52729 0.92567 0.0
C386 C 0.38556 0.59128 0.84909 0.0
C387 C 0.29451 0.46693 0.8381 0.0
C388 C 0.41217 0.58183 0.94741 0.0
C389 C 0.33584 0.44952 0.94541 0.0
O390 O 0.43156 0.53241 0.87786 0.0
O391 O 0.92647 0.38763 0.8609 0.0
Zn392 Zn 0.88651 0.34021 0.87454 0.0
O393 O 0.84808 0.34556 0.88709 0.0
Zn394 Zn 0.8065 0.31073 0.87059 0.0
Zn395 Zn 0.85596 0.38891 0.87444 0.0
Zn396 Zn 0.83975 0.34296 0.92846 0.0
O397 O 0.77291 0.28117 0.89917 0.0
O398 O 0.79483 0.30417 0.94074 0.0
O399 O 0.86895 0.30149 0.84187 0.0
O400 O 0.81412 0.28155 0.84528 0.0
O401 O 0.78503 0.32932 0.84556 0.0
O402 O 0.82289 0.38365 0.84472 0.0
O403 O 0.84963 0.41379 0.90559 0.0
O404 O 0.9044 0.32926 0.91192 0.0
O405 O 0.83991 0.38385 0.94487 0.0
O406 O 0.87479 0.33648 0.94619 0.0
C407 C 0.92858 0.41631 0.85762 0.0
C408 C 0.77119 0.28149 0.9261 0.0
C409 C 0.79515 0.35886 0.83676 0.0
C410 C 0.83854 0.28028 0.83442 0.0
C411 C 0.844 0.40995 0.93212 0.0
C412 C 0.89751 0.33033 0.9383 0.0
O413 O 0.90298 0.41932 0.86141 0.0
O414 O 0.10332 0.47882 0.67495 0.0
Zn415 Zn 0.14372 0.47194 0.66218 0.0
O416 O 0.18093 0.51571 0.64792 0.0
Zn417 Zn 0.22352 0.52638 0.66479 0.0
Zn418 Zn 0.17149 0.55106 0.65717 0.0
Zn419 Zn 0.18816 0.51796 0.60661 0.0
O420 O 0.2562 0.52772 0.63632 0.0
O421 O 0.23082 0.5199 0.59474 0.0
O422 O 0.16348 0.4533 0.69525 0.0
O423 O 0.21754 0.49194 0.69258 0.0
O424 O 0.24443 0.56943 0.68659 0.0
O425 O 0.20363 0.58164 0.68632 0.0
O426 O 0.17924 0.58097 0.62425 0.0
O427 O 0.12474 0.44068 0.62619 0.0
O428 O 0.19143 0.55892 0.58775 0.0
O429 O 0.15165 0.4766 0.59054 0.0
C430 C 0.09956 0.50464 0.67533 0.0
C431 C 0.25563 0.52419 0.60949 0.0
C432 C 0.23249 0.58768 0.69428 0.0
C433 C 0.19416 0.46524 0.70344 0.0
C434 C 0.18721 0.58185 0.59829 0.0
C435 C 0.12978 0.44781 0.59953 0.0
O436 O 0.12396 0.5335 0.66923 0.0
O437 O 0.63953 0.09855 0.6658 0.0
Zn438 Zn 0.68626 0.14142 0.65442 0.0
O439 O 0.67779 0.17846 0.64446 0.0
Zn440 Zn 0.7111 0.22012 0.66178 0.0
Zn441 Zn 0.63418 0.16779 0.65851 0.0
Zn442 Zn 0.67863 0.18761 0.60341 0.0
O443 O 0.74079 0.25394 0.63341 0.0
O444 O 0.71846 0.23224 0.5915 0.0
O445 O 0.72474 0.15885 0.68727 0.0
O446 O 0.74103 0.21305 0.68665 0.0
O447 O 0.69114 0.23978 0.6876 0.0
O448 O 0.6384 0.19804 0.69054 0.0
O449 O 0.60821 0.17552 0.62914 0.0
O450 O 0.70097 0.12912 0.61599 0.0
O451 O 0.63779 0.18927 0.58932 0.0
O452 O 0.68404 0.15289 0.58334 0.0
C453 C 0.61016 0.09455 0.66998 0.0
C454 C 0.74106 0.25558 0.60645 0.0
C455 C 0.66193 0.22678 0.69816 0.0
C456 C 0.74426 0.18913 0.69604 0.0
C457 C 0.6117 0.18357 0.60304 0.0
C458 C 0.69524 0.13361 0.59003 0.0
O459 O 0.60563 0.11948 0.66873 0.0
O460 O 0.54787 0.62711 0.67347 0.0
Zn461 Zn 0.55268 0.67405 0.66302 0.0
O462 O 0.5085 0.66599 0.65163 0.0
Zn463 Zn 0.50396 0.70369 0.66424 0.0
Zn464 Zn 0.47537 0.62514 0.66946 0.0
Zn465 Zn 0.49997 0.66081 0.61073 0.0
O466 O 0.49709 0.72775 0.63205 0.0
O467 O 0.48816 0.69456 0.59499 0.0
O468 O 0.56836 0.70861 0.69818 0.0
O469 O 0.54225 0.73665 0.68791 0.0
O470 O 0.4651 0.68794 0.6911 0.0
O471 O 0.45148 0.63508 0.69962 0.0
O472 O 0.44108 0.59579 0.64184 0.0
O473 O 0.5821 0.6918 0.62595 0.0
O474 O 0.4611 0.61569 0.59895 0.0
O475 O 0.54233 0.67021 0.59229 0.0
C476 C 0.52229 0.59896 0.68073 0.0
C477 C 0.48978 0.7205 0.60597 0.0
C478 C 0.44799 0.66032 0.70419 0.0
C479 C 0.56274 0.73284 0.70321 0.0
C480 C 0.43898 0.59325 0.61496 0.0
C481 C 0.57295 0.68465 0.59979 0.0
O482 O 0.4935 0.59609 0.68246 0.0
O483 O 0.92861 0.54536 0.67245 0.0
Zn484 Zn 0.88727 0.55167 0.66136 0.0
O485 O 0.84949 0.50737 0.64909 0.0
Zn486 Zn 0.80939 0.49545 0.67068 0.0
Zn487 Zn 0.86091 0.47248 0.65409 0.0
Zn488 Zn 0.83616 0.50517 0.60915 0.0
O489 O 0.77427 0.49675 0.6476 0.0
O490 O 0.7932 0.50613 0.60336 0.0
O491 O 0.86975 0.5706 0.69579 0.0
O492 O 0.81776 0.52792 0.70099 0.0
O493 O 0.79031 0.45095 0.68918 0.0
O494 O 0.8305 0.43863 0.68267 0.0
O495 O 0.85274 0.4451 0.6191 0.0
O496 O 0.90219 0.58205 0.62449 0.0
O497 O 0.82856 0.46319 0.58904 0.0
O498 O 0.87182 0.54531 0.59037 0.0
C499 C 0.93284 0.51981 0.67213 0.0
C500 C 0.77118 0.50202 0.62161 0.0
C501 C 0.80238 0.43192 0.6931 0.0
C502 C 0.84111 0.55647 0.70867 0.0
C503 C 0.83791 0.44246 0.59567 0.0
C504 C 0.89485 0.57418 0.59814 0.0
O505 O 0.90878 0.49095 0.66551 0.0
O506 O 0.39802 0.92366 0.66573 0.0
Zn507 Zn 0.35029 0.88187 0.65561 0.0
O508 O 0.35648 0.84374 0.64513 0.0
Zn509 Zn 0.32279 0.803 0.66369 0.0
Zn510 Zn 0.40066 0.85341 0.65704 0.0
Zn511 Zn 0.35281 0.83351 0.60415 0.0
O512 O 0.28982 0.77018 0.63652 0.0
O513 O 0.31077 0.78993 0.5938 0.0
O514 O 0.31497 0.86644 0.69074 0.0
O515 O 0.296 0.81167 0.69146 0.0
O516 O 0.34348 0.78143 0.6864 0.0
O517 O 0.39708 0.82162 0.68754 0.0
O518 O 0.42451 0.84512 0.62608 0.0
O519 O 0.33417 0.89426 0.61781 0.0
O520 O 0.39138 0.82885 0.58838 0.0
O521 O 0.34861 0.86917 0.58439 0.0
C522 C 0.42714 0.92691 0.66943 0.0
C523 C 0.28796 0.76794 0.6096 0.0
C524 C 0.37333 0.79295 0.69513 0.0
C525 C 0.29521 0.83691 0.70099 0.0
C526 C 0.41859 0.83522 0.60047 0.0
C527 C 0.33855 0.88922 0.5916 0.0
O528 O 0.43093 0.90152 0.6678 0.0
O529 O 0.47262 0.38481 0.67281 0.0
Zn530 Zn 0.46602 0.33748 0.66076 0.0
O531 O 0.50998 0.34447 0.64909 0.0
Zn532 Zn 0.51275 0.30626 0.66248 0.0
Zn533 Zn 0.54467 0.38508 0.66607 0.0
Zn534 Zn 0.51855 0.34861 0.60816 0.0
O535 O 0.52555 0.28502 0.63194 0.0
O536 O 0.52911 0.3138 0.59302 0.0
O537 O 0.44758 0.30024 0.69449 0.0
O538 O 0.47035 0.27075 0.67931 0.0
O539 O 0.54528 0.31941 0.69476 0.0
O540 O 0.56453 0.37414 0.69916 0.0
O541 O 0.5813 0.41116 0.6386 0.0
O542 O 0.43715 0.32265 0.62316 0.0
O543 O 0.55928 0.39215 0.59605 0.0
O544 O 0.47701 0.34118 0.58948 0.0
C545 C 0.49909 0.4133 0.67763 0.0
C546 C 0.53091 0.29029 0.60541 0.0
C547 C 0.56338 0.34725 0.7072 0.0
C548 C 0.45081 0.2741 0.69621 0.0
C549 C 0.58323 0.41303 0.61163 0.0
C550 C 0.44656 0.32903 0.59698 0.0
O551 O 0.52791 0.41609 0.67665 0.0
H552 H 0.44798 0.22268 0.32836 0.0
H553 H 0.44373 0.30318 0.28593 0.0
H554 H 0.43728 0.27533 0.24002 0.0
H555 H 0.44279 0.23313 0.21145 0.0
H556 H 0.4466 0.15241 0.25391 0.0
H557 H 0.44255 0.17476 0.30012 0.0
C558 C 0.44443 0.23359 0.30917 0.0
C559 C 0.44629 0.26517 0.31082 0.0
C560 C 0.44107 0.21747 0.28271 0.0
C561 C 0.44191 0.27887 0.2856 0.0
C562 C 0.43867 0.26306 0.25921 0.0
C563 C 0.44146 0.21967 0.23078 0.0
C564 C 0.44489 0.19086 0.22897 0.0
C565 C 0.43956 0.23304 0.2574 0.0
C566 C 0.44344 0.17411 0.25437 0.0
C567 C 0.44163 0.18727 0.28091 0.0
H568 H 0.21811 0.42703 0.21798 0.0
H569 H 0.30246 0.4306 0.26046 0.0
H570 H 0.27699 0.42872 0.30671 0.0
H571 H 0.23529 0.43559 0.3348 0.0
H572 H 0.15091 0.43195 0.29212 0.0
H573 H 0.17145 0.4238 0.24651 0.0
C574 C 0.23037 0.42609 0.23735 0.0
C575 C 0.26226 0.42873 0.23551 0.0
C576 C 0.21573 0.4256 0.26397 0.0
C577 C 0.27779 0.42792 0.26097 0.0
C578 C 0.26338 0.4274 0.28753 0.0
C579 C 0.22079 0.43203 0.31565 0.0
C580 C 0.19143 0.43454 0.31717 0.0
C581 C 0.23301 0.4276 0.28929 0.0
C582 C 0.17323 0.42986 0.29194 0.0
C583 C 0.18525 0.42554 0.26569 0.0
H584 H 0.86076 0.28828 0.25607 0.0
H585 H 0.79395 0.22146 0.1921 0.0
H586 H 0.75929 0.18146 0.22867 0.0
H587 H 0.74185 0.17027 0.27955 0.0
H588 H 0.80967 0.23641 0.34345 0.0
H589 H 0.84964 0.2707 0.30684 0.0
C590 C 0.83964 0.26424 0.25003 0.0
C591 C 0.8305 0.25798 0.22105 0.0
C592 C 0.81919 0.24114 0.2715 0.0
C593 C 0.80213 0.22692 0.21405 0.0
C594 C 0.78187 0.20406 0.2351 0.0
C595 C 0.766 0.19121 0.28557 0.0
C596 C 0.77239 0.20044 0.31456 0.0
C597 C 0.78922 0.21146 0.26406 0.0
C598 C 0.80381 0.22839 0.3215 0.0
C599 C 0.82675 0.2484 0.30043 0.0
H600 H 0.5727 0.85466 0.26858 0.0
H601 H 0.56714 0.79527 0.19608 0.0
H602 H 0.57029 0.75454 0.22729 0.0
H603 H 0.56536 0.73105 0.27616 0.0
H604 H 0.57451 0.79229 0.3484 0.0
H605 H 0.58007 0.83684 0.31682 0.0
C606 C 0.57383 0.83369 0.25951 0.0
C607 C 0.57044 0.82869 0.22972 0.0
C608 C 0.57595 0.8102 0.2778 0.0
C609 C 0.57069 0.80047 0.21869 0.0
C610 C 0.57204 0.77679 0.23668 0.0
C611 C 0.57034 0.7548 0.28498 0.0
C612 C 0.57037 0.75834 0.31491 0.0
C613 C 0.57355 0.78072 0.26642 0.0
C614 C 0.57542 0.78902 0.32565 0.0
C615 C 0.57808 0.81446 0.30749 0.0
H616 H 0.79866 0.57118 0.21373 0.0
H617 H 0.71796 0.57124 0.25956 0.0
H618 H 0.74752 0.57751 0.30455 0.0
H619 H 0.79148 0.57279 0.33114 0.0
H620 H 0.87246 0.57332 0.28528 0.0
H621 H 0.84819 0.57774 0.24019 0.0
C622 C 0.78811 0.5739 0.23348 0.0
C623 C 0.75601 0.57095 0.23305 0.0
C624 C 0.80524 0.57717 0.25938 0.0
C625 C 0.74268 0.57404 0.25898 0.0
C626 C 0.75948 0.57715 0.28483 0.0
C627 C 0.8046 0.57527 0.31134 0.0
C628 C 0.83412 0.57299 0.31183 0.0
C629 C 0.79013 0.57739 0.28538 0.0
C630 C 0.85031 0.5757 0.28583 0.0
C631 C 0.83603 0.5777 0.25992 0.0
H632 H 0.21744 0.80048 0.3203 0.0
H633 H 0.30771 0.87494 0.27864 0.0
H634 H 0.28562 0.84742 0.23289 0.0
H635 H 0.2442 0.79799 0.20576 0.0
H636 H 0.15369 0.72338 0.24677 0.0
H637 H 0.17194 0.75537 0.29137 0.0
C638 C 0.23195 0.81133 0.3011 0.0
C639 C 0.26444 0.84007 0.30325 0.0
C640 C 0.21907 0.79505 0.27465 0.0
C641 C 0.28266 0.85337 0.27795 0.0
C642 C 0.2701 0.83732 0.25168 0.0
C643 C 0.22792 0.78913 0.22423 0.0
C644 C 0.19739 0.75812 0.22267 0.0
C645 C 0.23884 0.80757 0.24991 0.0
C646 C 0.17691 0.74718 0.247 0.0
C647 C 0.18764 0.76538 0.27268 0.0
H648 H 0.5759 0.79721 0.71123 0.0
H649 H 0.57206 0.71407 0.75637 0.0
H650 H 0.57346 0.7408 0.80177 0.0
H651 H 0.56698 0.78355 0.82845 0.0
H652 H 0.57181 0.86724 0.78361 0.0
H653 H 0.57944 0.84502 0.73855 0.0
C654 C 0.57647 0.78538 0.73099 0.0
C655 C 0.57394 0.75342 0.73009 0.0
C656 C 0.57709 0.80095 0.7572 0.0
C657 C 0.57449 0.73864 0.7561 0.0
C658 C 0.57487 0.75384 0.78218 0.0
C659 C 0.57086 0.7976 0.80894 0.0
C660 C 0.56898 0.82734 0.80967 0.0
C661 C 0.57498 0.78441 0.783 0.0
C662 C 0.57372 0.84481 0.78401 0.0
C663 C 0.57762 0.83176 0.7581 0.0
H664 H 0.8576 0.56707 0.76578 0.0
H665 H 0.79742 0.57828 0.70176 0.0
H666 H 0.76235 0.58254 0.73849 0.0
H667 H 0.74226 0.57243 0.78888 0.0
H668 H 0.80381 0.56283 0.85274 0.0
H669 H 0.84452 0.56933 0.8167 0.0
C670 C 0.83798 0.57226 0.75989 0.0
C671 C 0.83089 0.57308 0.73077 0.0
C672 C 0.81731 0.57425 0.7814 0.0
C673 C 0.80422 0.57844 0.72386 0.0
C674 C 0.78367 0.58034 0.74497 0.0
C675 C 0.76529 0.57332 0.79511 0.0
C676 C 0.76967 0.56718 0.82383 0.0
C677 C 0.78899 0.57685 0.77389 0.0
C678 C 0.79958 0.56764 0.831 0.0
C679 C 0.82292 0.57105 0.81024 0.0
H680 H 0.23191 0.78435 0.70795 0.0
H681 H 0.30764 0.87194 0.75142 0.0
H682 H 0.27629 0.85118 0.79619 0.0
H683 H 0.23119 0.80421 0.82414 0.0
H684 H 0.15519 0.71719 0.77998 0.0
H685 H 0.18243 0.74174 0.73456 0.0
C686 C 0.24112 0.79949 0.72704 0.0
C687 C 0.27224 0.82998 0.72604 0.0
C688 C 0.22297 0.78715 0.7528 0.0
C689 C 0.2837 0.84887 0.75119 0.0
C690 C 0.26587 0.83667 0.77696 0.0
C691 C 0.21996 0.79094 0.80453 0.0
C692 C 0.19083 0.7586 0.80585 0.0
C693 C 0.236 0.80531 0.77822 0.0
C694 C 0.17707 0.74205 0.77997 0.0
C695 C 0.19296 0.75603 0.75387 0.0
H696 H 0.43556 0.16345 0.78322 0.0
H697 H 0.44156 0.23661 0.84334 0.0
H698 H 0.43651 0.26928 0.80498 0.0
H699 H 0.44014 0.28241 0.75329 0.0
H700 H 0.43242 0.20843 0.69321 0.0
H701 H 0.42775 0.17129 0.73194 0.0
C702 C 0.43426 0.18571 0.78808 0.0
C703 C 0.43892 0.19723 0.81648 0.0
C704 C 0.4317 0.20501 0.76555 0.0
C705 C 0.43792 0.22681 0.82188 0.0
C706 C 0.43535 0.24586 0.79979 0.0
C707 C 0.43604 0.25765 0.74861 0.0
C708 C 0.43681 0.24866 0.72 0.0
C709 C 0.4336 0.23604 0.77133 0.0
C710 C 0.43205 0.21641 0.71481 0.0
C711 C 0.4296 0.19502 0.7371 0.0
H712 H 0.17707 0.45056 0.76066 0.0
H713 H 0.24078 0.44753 0.6953 0.0
H714 H 0.27604 0.44238 0.73116 0.0
H715 H 0.2951 0.44947 0.78155 0.0
H716 H 0.23068 0.45088 0.847 0.0
H717 H 0.1898 0.44523 0.81133 0.0
C718 C 0.19764 0.44709 0.7542 0.0
C719 C 0.20575 0.44909 0.72499 0.0
C720 C 0.21846 0.44446 0.77527 0.0
C721 C 0.23343 0.44562 0.71744 0.0
C722 C 0.25403 0.44307 0.73807 0.0
C723 C 0.27139 0.4468 0.78813 0.0
C724 C 0.26604 0.45009 0.81726 0.0
C725 C 0.24773 0.4439 0.76717 0.0
C726 C 0.23541 0.44778 0.82494 0.0
C727 C 0.21205 0.445 0.8044 0.0
H728 H 0.74185 0.1672 0.75165 0.0
H729 H 0.8085 0.23765 0.68939 0.0
H730 H 0.84803 0.27084 0.72665 0.0
H731 H 0.85853 0.286 0.77793 0.0
H732 H 0.79281 0.21479 0.84018 0.0
H733 H 0.75921 0.17609 0.80256 0.0
C734 C 0.76574 0.18882 0.74607 0.0
C735 C 0.772 0.19952 0.71743 0.0
C736 C 0.78864 0.20841 0.76797 0.0
C737 C 0.80295 0.2284 0.71106 0.0
C738 C 0.82557 0.2478 0.73252 0.0
C739 C 0.83794 0.26135 0.78333 0.0
C740 C 0.82863 0.25351 0.81216 0.0
C741 C 0.81808 0.23897 0.76126 0.0
C742 C 0.801 0.22158 0.81834 0.0
C743 C 0.78135 0.19943 0.7967 0.0
H744 H 0.56172 0.08881 0.17737 0.0
H745 H 0.45365 0.03845 0.17794 0.0
H746 H 0.45098 0.98431 0.17917 0.0
H747 H 0.47871 0.95103 0.1764 0.0
H748 H 0.58656 1.00015 0.17476 0.0
H749 H 0.58983 0.05484 0.17815 0.0
C750 C 0.5375 0.06605 0.17811 0.0
C751 C 0.50783 0.06812 0.17741 0.0
C752 C 0.5361 0.03466 0.17854 0.0
C753 C 0.47688 0.03804 0.17841 0.0
C754 C 0.47534 1.00692 0.17904 0.0
C755 C 0.50311 0.97361 0.17706 0.0
C756 C 0.53243 0.97115 0.1751 0.0
C757 C 0.50472 1.00491 0.17856 0.0
C758 C 0.56359 1.00095 0.17633 0.0
C759 C 0.56541 0.03232 0.17805 0.0
H760 H 0.53594 0.4566 0.17459 0.0
H761 H 0.59323 0.56351 0.18783 0.0
H762 H 0.54113 0.56489 0.19272 0.0
H763 H 0.47928 0.5363 0.19081 0.0
H764 H 0.42224 0.42964 0.17606 0.0
H765 H 0.47422 0.42775 0.1744 0.0
C766 C 0.53727 0.48031 0.17878 0.0
C767 C 0.569 0.51001 0.1808 0.0
C768 C 0.50706 0.48097 0.18123 0.0
C769 C 0.56959 0.54026 0.18618 0.0
C770 C 0.53964 0.54104 0.18892 0.0
C771 C 0.478 0.51245 0.18752 0.0
C772 C 0.44636 0.48305 0.18362 0.0
C773 C 0.50821 0.51163 0.18615 0.0
C774 C 0.44581 0.45265 0.17922 0.0
C775 C 0.47568 0.45159 0.17818 0.0
H776 H 0.95318 0.48338 0.17341 0.0
H777 H 0.99974 0.42257 0.16954 0.0
H778 H 0.05513 0.4735 0.17001 0.0
H779 H 0.09035 0.53546 0.16875 0.0
H780 H 0.04306 0.59568 0.17142 0.0
H781 H 0.98811 0.54477 0.17419 0.0
C782 C 0.97533 0.48097 0.17291 0.0
C783 C 0.97184 0.44865 0.17139 0.0
C784 C 1.00714 0.51045 0.17277 0.0
C785 C 1.00125 0.4467 0.17081 0.0
C786 C 0.03304 0.47597 0.17094 0.0
C787 C 0.06811 0.53765 0.17017 0.0
C788 C 0.07128 0.56989 0.16981 0.0
C789 C 0.03632 0.50803 0.1715 0.0
C790 C 0.04181 0.57163 0.17164 0.0
C791 C 1.01024 0.54238 0.17318 0.0
H792 H 0.94406 0.46325 0.36614 0.0
H793 H 0.99253 0.57089 0.35927 0.0
H794 H 0.04709 0.57425 0.35604 0.0
H795 H 0.08142 0.54696 0.35774 0.0
H796 H 0.03276 0.43946 0.36628 0.0
H797 H 0.97809 0.43588 0.36613 0.0
C798 C 0.96644 0.48757 0.36367 0.0
C799 C 0.96377 0.51685 0.36295 0.0
C800 C 0.99789 0.48934 0.36224 0.0
C801 C 0.99343 0.54792 0.35984 0.0
C802 C 0.02476 0.54984 0.35807 0.0
C803 C 0.05891 0.5226 0.35926 0.0
C804 C 0.06162 0.49343 0.36197 0.0
C805 C 0.02737 0.52076 0.3596 0.0
C806 C 0.03184 0.46231 0.36411 0.0
C807 C 1.00044 0.46028 0.3641 0.0
H808 H 0.48203 0.94614 0.34453 0.0
H809 H 0.42796 0.9997 0.34908 0.0
H810 H 0.48094 0.05295 0.34773 0.0
H811 H 0.54243 0.08444 0.34764 0.0
H812 H 0.59733 0.0316 0.34592 0.0
H813 H 0.54427 0.97812 0.34353 0.0
C814 C 0.48168 0.96942 0.3449 0.0
C815 C 0.45055 0.96854 0.34676 0.0
C816 C 0.51253 1.0002 0.34471 0.0
C817 C 0.45112 0.99925 0.3476 0.0
C818 C 0.48156 0.02983 0.34686 0.0
C819 C 0.54311 0.06136 0.3464 0.0
C820 C 0.5744 0.0625 0.34679 0.0
C821 C 0.51242 0.03063 0.34573 0.0
C822 C 0.57404 0.0319 0.34551 0.0
C823 C 0.54355 1.0012 0.34425 0.0
H824 H 0.56027 0.48573 0.3632 0.0
H825 H 0.45266 0.42564 0.35605 0.0
H826 H 0.44916 0.47655 0.35208 0.0
H827 H 0.47579 0.53771 0.35453 0.0
H828 H 0.58303 0.5985 0.36364 0.0
H829 H 0.5875 0.54773 0.36229 0.0
C830 C 0.53599 0.4836 0.36045 0.0
C831 C 0.50666 0.45142 0.3601 0.0
C832 C 0.5341 0.51321 0.35854 0.0
C833 C 0.47562 0.44967 0.35648 0.0
C834 C 0.47361 0.47891 0.35426 0.0
C835 C 0.50035 0.54014 0.35587 0.0
C836 C 0.5291 0.5723 0.35934 0.0
C837 C 0.50258 0.51077 0.35581 0.0
C838 C 0.56051 0.57443 0.3608 0.0
C839 C 0.56299 0.54525 0.3603 0.0
H840 H 0.54099 0.07275 0.84983 0.0
H841 H 0.43402 0.02541 0.86154 0.0
H842 H 0.42996 0.97039 0.86221 0.0
H843 H 0.45715 0.93592 0.86244 0.0
H844 H 0.56444 0.98387 0.85269 0.0
H845 H 0.56782 0.03829 0.84825 0.0
C846 C 0.51658 0.05048 0.85221 0.0
C847 C 0.48775 0.05366 0.85557 0.0
C848 C 0.51453 0.01888 0.85314 0.0
C849 C 0.45661 0.02412 0.85878 0.0
C850 C 0.45432 0.99255 0.85929 0.0
C851 C 0.48135 0.95815 0.85905 0.0
C852 C 0.51059 0.95538 0.8579 0.0
C853 C 0.48317 0.98963 0.85693 0.0
C854 C 0.54153 0.98485 0.85365 0.0
C855 C 0.54346 0.01611 0.85116 0.0
H856 H 0.54108 0.46671 0.85844 0.0
H857 H 0.60363 0.57379 0.86808 0.0
H858 H 0.55365 0.57941 0.86779 0.0
H859 H 0.49215 0.55369 0.8683 0.0
H860 H 0.42951 0.44646 0.85998 0.0
H861 H 0.47965 0.44132 0.85611 0.0
C862 C 0.54405 0.49146 0.86016 0.0
C863 C 0.57659 0.51986 0.86336 0.0
C864 C 0.51502 0.49444 0.86043 0.0
C865 C 0.57933 0.55151 0.86551 0.0
C866 C 0.55059 0.55469 0.86549 0.0
C867 C 0.48922 0.52908 0.86539 0.0
C868 C 0.45659 0.5004 0.86459 0.0
C869 C 0.51829 0.52628 0.86351 0.0
C870 C 0.4539 0.46896 0.86067 0.0
C871 C 0.48271 0.46603 0.85856 0.0
H872 H 0.94053 0.48067 0.85437 0.0
H873 H 0.99155 0.42415 0.84922 0.0
H874 H 0.0453 0.47656 0.84484 0.0
H875 H 0.07826 0.53868 0.84536 0.0
H876 H 0.02683 0.59466 0.85264 0.0
H877 H 0.973 0.54226 0.85315 0.0
C878 C 0.96327 0.47953 0.85201 0.0
C879 C 0.96154 0.44795 0.85213 0.0
C880 C 0.99423 0.50989 0.85 0.0
C881 C 0.9917 0.44766 0.84915 0.0
C882 C 0.02257 0.47779 0.84673 0.0
C883 C 0.05531 0.5396 0.84668 0.0
C884 C 0.057 0.5711 0.84885 0.0
C885 C 0.02423 0.50911 0.84752 0.0
C886 C 0.02669 0.57122 0.85086 0.0
C887 C 0.99577 0.5411 0.85124 0.0
H888 H 0.08486 0.55518 0.67996 0.0
H889 H 0.03749 0.44734 0.67994 0.0
H890 H 0.98239 0.4429 0.6808 0.0
H891 H 0.94751 0.46942 0.67805 0.0
H892 H 0.99479 0.57724 0.67744 0.0
H893 H 0.04986 0.58173 0.68051 0.0
C894 C 0.06257 0.53058 0.68047 0.0
C895 C 0.06576 0.50156 0.67978 0.0
C896 C 0.03078 0.5282 0.68065 0.0
C897 C 0.03623 0.47011 0.68054 0.0
C898 C 1.00457 0.46758 0.68087 0.0
C899 C 0.96976 0.49404 0.67883 0.0
C900 C 0.96659 0.52303 0.67733 0.0
C901 C 1.00151 0.49643 0.68039 0.0
C902 C 0.99606 0.5545 0.67858 0.0
C903 C 0.02769 0.55705 0.68022 0.0
H904 H 0.54478 0.07911 0.67537 0.0
H905 H 0.60539 0.03232 0.67181 0.0
H906 H 0.5545 0.977 0.673 0.0
H907 H 0.4927 0.94184 0.67242 0.0
H908 H 0.43233 0.98896 0.67429 0.0
H909 H 0.48324 0.04407 0.67648 0.0
C910 C 0.54714 0.05692 0.67513 0.0
C911 C 0.57943 0.06034 0.67353 0.0
C912 C 0.51762 0.02508 0.67536 0.0
C913 C 0.58131 0.03088 0.67313 0.0
C914 C 0.55205 0.99912 0.6737 0.0
C915 C 0.49045 0.96406 0.67357 0.0
C916 C 0.45818 0.9608 0.6732 0.0
C917 C 0.52004 0.99589 0.67444 0.0
C918 C 0.45639 0.99028 0.67458 0.0
C919 C 0.48566 0.02193 0.67577 0.0
H920 H 0.55151 0.47806 0.68051 0.0
H921 H 0.44351 0.42052 0.68373 0.0
H922 H 0.44168 0.47252 0.68702 0.0
H923 H 0.47042 0.53429 0.68646 0.0
H924 H 0.57828 0.59186 0.68099 0.0
H925 H 0.58034 0.53986 0.68133 0.0
C926 C 0.52743 0.47665 0.68221 0.0
C927 C 0.49758 0.44488 0.68192 0.0
C928 C 0.52656 0.50682 0.68362 0.0
C929 C 0.46687 0.44419 0.68394 0.0
C930 C 0.46584 0.47407 0.68577 0.0
C931 C 0.49455 0.53572 0.68568 0.0
C932 C 0.52428 0.56749 0.68383 0.0
C933 C 0.49549 0.50555 0.68529 0.0
C934 C 0.55504 0.56819 0.68255 0.0
C935 C 0.55618 0.53831 0.68264 0.0
H936 H 0.64348 0.24915 0.20534 0.0
H937 H 0.5645 0.25905 0.24439 0.0
H938 H 0.59115 0.26713 0.29087 0.0
H939 H 0.62754 0.25473 0.32068 0.0
H940 H 0.70692 0.24563 0.28165 0.0
H941 H 0.69016 0.25475 0.23466 0.0
C942 C 0.63296 0.25446 0.22391 0.0
C943 C 0.60176 0.2525 0.22192 0.0
C944 C 0.64817 0.2586 0.2505 0.0
C945 C 0.58841 0.26006 0.2457 0.0
C946 C 0.60345 0.26434 0.27229 0.0
C947 C 0.64198 0.25631 0.30193 0.0
C948 C 0.66779 0.24888 0.30414 0.0
C949 C 0.63193 0.26115 0.27511 0.0
C950 C 0.6868 0.25117 0.2801 0.0
C951 C 0.67701 0.25603 0.25328 0.0
H952 H 0.41307 0.65735 0.30766 0.0
H953 H 0.37408 0.56657 0.35718 0.0
H954 H 0.33687 0.53452 0.31823 0.0
H955 H 0.32906 0.53061 0.26655 0.0
H956 H 0.37309 0.6203 0.2157 0.0
H957 H 0.39414 0.65477 0.25863 0.0
C958 C 0.39554 0.63079 0.31031 0.0
C959 C 0.39717 0.61402 0.33465 0.0
C960 C 0.37558 0.6123 0.2873 0.0
C961 C 0.37392 0.57975 0.33815 0.0
C962 C 0.35274 0.56141 0.31588 0.0
C963 C 0.34201 0.55776 0.26519 0.0
C964 C 0.35008 0.57326 0.23851 0.0
C965 C 0.35539 0.57705 0.2897 0.0
C966 C 0.36684 0.60823 0.23635 0.0
C967 C 0.37908 0.6278 0.26082 0.0
H968 H 0.78179 0.34079 0.24446 0.0
H969 H 0.80097 0.42872 0.19726 0.0
H970 H 0.78888 0.45174 0.23951 0.0
H971 H 0.78648 0.45253 0.29142 0.0
H972 H 0.77917 0.36987 0.33974 0.0
H973 H 0.77178 0.33833 0.29584 0.0
C974 C 0.78219 0.36446 0.24335 0.0
C975 C 0.79246 0.38334 0.2182 0.0
C976 C 0.77763 0.37847 0.26813 0.0
C977 C 0.79336 0.4141 0.21671 0.0
C978 C 0.78657 0.42723 0.24081 0.0
C979 C 0.78191 0.42708 0.29222 0.0
C980 C 0.78328 0.41328 0.31837 0.0
C981 C 0.78064 0.41053 0.26695 0.0
C982 C 0.77808 0.38067 0.31957 0.0
C983 C 0.7742 0.36289 0.29453 0.0
H984 H 0.4003 0.76524 0.21956 0.0
H985 H 0.38408 0.83766 0.175 0.0
H986 H 0.34371 0.83223 0.21097 0.0
H987 H 0.3284 0.82093 0.26147 0.0
H988 H 0.34896 0.7528 0.30765 0.0
H989 H 0.37134 0.7416 0.26455 0.0
C990 C 0.38717 0.77906 0.21723 0.0
C991 C 0.39652 0.80321 0.19563 0.0
C992 C 0.36504 0.77685 0.23858 0.0
C993 C 0.37831 0.81988 0.19215 0.0
C994 C 0.35525 0.81687 0.21275 0.0
C995 C 0.33625 0.80238 0.26154 0.0
C996 C 0.33771 0.78799 0.28732 0.0
C997 C 0.35067 0.7976 0.23715 0.0
C998 C 0.34786 0.76408 0.28775 0.0
C999 C 0.361 0.75805 0.26324 0.0
H1000 H 0.57176 0.33245 0.2927 0.0
H1001 H 0.64951 0.41237 0.34194 0.0
H1002 H 0.68394 0.4352 0.29922 0.0
H1003 H 0.68475 0.44039 0.24748 0.0
H1004 H 0.60174 0.3667 0.19806 0.0
H1005 H 0.57688 0.33275 0.24077 0.0
C1006 C 0.59679 0.35409 0.29409 0.0
C1007 C 0.60821 0.37103 0.32006 0.0
C1008 C 0.61515 0.36844 0.26918 0.0
C1009 C 0.64038 0.39924 0.32192 0.0
C1010 C 0.65989 0.41235 0.29752 0.0
C1011 C 0.66188 0.41627 0.24599 0.0
C1012 C 0.64477 0.40605 0.22 0.0
C1013 C 0.64654 0.39842 0.27087 0.0
C1014 C 0.61504 0.37501 0.2181 0.0
C1015 C 0.60076 0.35579 0.2425 0.0
H1016 H 0.25533 0.62753 0.32083 0.0
H1017 H 0.23407 0.53404 0.28284 0.0
H1018 H 0.24222 0.55868 0.2353 0.0
H1019 H 0.24106 0.60212 0.2058 0.0
H1020 H 0.26285 0.69586 0.24391 0.0
H1021 H 0.27003 0.6764 0.29028 0.0
C1022 C 0.2539 0.61315 0.30209 0.0
C1023 C 0.24361 0.57914 0.30483 0.0
C1024 C 0.25818 0.62736 0.27502 0.0
C1025 C 0.24192 0.56037 0.28084 0.0
C1026 C 0.24625 0.57434 0.25375 0.0
C1027 C 0.24847 0.61859 0.22414 0.0
C1028 C 0.25035 0.64977 0.22192 0.0
C1029 C 0.25218 0.60709 0.25067 0.0
C1030 C 0.2608 0.67148 0.2454 0.0
C1031 C 0.26464 0.66028 0.27192 0.0
H1032 H 0.44586 0.76881 0.79334 0.0
H1033 H 0.36562 0.76998 0.83895 0.0
H1034 H 0.33424 0.76033 0.79463 0.0
H1035 H 0.33785 0.76822 0.74299 0.0
H1036 H 0.42437 0.78001 0.69798 0.0
H1037 H 0.44495 0.7672 0.74141 0.0
C1038 C 0.42088 0.7655 0.79357 0.0
C1039 C 0.40794 0.77026 0.81896 0.0
C1040 C 0.40461 0.76311 0.76784 0.0
C1041 C 0.37587 0.76648 0.81937 0.0
C1042 C 0.35817 0.7613 0.79406 0.0
C1043 C 0.36053 0.76668 0.74261 0.0
C1044 C 0.37992 0.77532 0.71777 0.0
C1045 C 0.37345 0.7621 0.76805 0.0
C1046 C 0.40939 0.77367 0.71718 0.0
C1047 C 0.42118 0.76656 0.74198 0.0
H1048 H 0.60061 0.37155 0.83322 0.0
H1049 H 0.69523 0.445 0.79707 0.0
H1050 H 0.677 0.41941 0.75014 0.0
H1051 H 0.62897 0.38564 0.71866 0.0
H1052 H 0.53476 0.31145 0.75479 0.0
H1053 H 0.55812 0.32711 0.80277 0.0
C1054 C 0.61758 0.38104 0.8152 0.0
C1055 C 0.6487 0.41042 0.81809 0.0
C1056 C 0.6068 0.36639 0.78838 0.0
C1057 C 0.67098 0.42247 0.79502 0.0
C1058 C 0.66047 0.40805 0.7682 0.0
C1059 C 0.61414 0.37212 0.73708 0.0
C1060 C 0.58026 0.34811 0.73368 0.0
C1061 C 0.62766 0.38144 0.76442 0.0
C1062 C 0.56097 0.33021 0.75728 0.0
C1063 C 0.5742 0.33935 0.78463 0.0
H1064 H 0.26152 0.64979 0.81241 0.0
H1065 H 0.22466 0.70881 0.77242 0.0
H1066 H 0.233 0.6915 0.72541 0.0
H1067 H 0.23451 0.64682 0.69835 0.0
H1068 H 0.26926 0.58605 0.73875 0.0
H1069 H 0.27935 0.61758 0.78288 0.0
C1070 C 0.25697 0.66005 0.79326 0.0
C1071 C 0.24205 0.67986 0.79539 0.0
C1072 C 0.26082 0.6491 0.76655 0.0
C1073 C 0.23612 0.69336 0.77088 0.0
C1074 C 0.24052 0.68316 0.74411 0.0
C1075 C 0.24546 0.6414 0.71656 0.0
C1076 C 0.24998 0.61358 0.71593 0.0
C1077 C 0.25033 0.65902 0.74195 0.0
C1078 C 0.26504 0.6071 0.7391 0.0
C1079 C 0.27055 0.62493 0.76438 0.0
H1080 H 0.63349 0.24819 0.82115 0.0
H1081 H 0.54199 0.23166 0.78233 0.0
H1082 H 0.56698 0.23933 0.73504 0.0
H1083 H 0.60931 0.23573 0.70594 0.0
H1084 H 0.70117 0.25295 0.74466 0.0
H1085 H 0.68222 0.26113 0.79097 0.0
C1086 C 0.61973 0.24782 0.80231 0.0
C1087 C 0.58607 0.23894 0.80471 0.0
C1088 C 0.63412 0.25177 0.77535 0.0
C1089 C 0.56805 0.23846 0.78057 0.0
C1090 C 0.5822 0.24249 0.75362 0.0
C1091 C 0.62556 0.24252 0.72439 0.0
C1092 C 0.65599 0.24288 0.72243 0.0
C1093 C 0.61437 0.24687 0.75082 0.0
C1094 C 0.67742 0.25226 0.74603 0.0
C1095 C 0.66648 0.25665 0.77248 0.0
H1096 H 0.47091 0.68884 0.75446 0.0
H1097 H 0.38032 0.62571 0.70801 0.0
H1098 H 0.34917 0.60506 0.75262 0.0
H1099 H 0.35224 0.59351 0.80292 0.0
H1100 H 0.44582 0.64908 0.84794 0.0
H1101 H 0.47134 0.68474 0.80633 0.0
C1102 C 0.44403 0.67173 0.75433 0.0
C1103 C 0.42764 0.65858 0.72847 0.0
C1104 C 0.42719 0.658 0.77991 0.0
C1105 C 0.39308 0.63604 0.72798 0.0
C1106 C 0.37548 0.62402 0.75343 0.0
C1107 C 0.37786 0.61419 0.80389 0.0
C1108 C 0.39748 0.61831 0.82799 0.0
C1109 C 0.39287 0.63298 0.77935 0.0
C1110 C 0.43057 0.64516 0.82923 0.0
C1111 C 0.44515 0.66544 0.80547 0.0
H1112 H 0.77039 0.43233 0.74049 0.0
H1113 H 0.79977 0.37167 0.69262 0.0
H1114 H 0.78842 0.33513 0.73385 0.0
H1115 H 0.78553 0.33075 0.78575 0.0
H1116 H 0.76884 0.3997 0.83482 0.0
H1117 H 0.75863 0.42216 0.79119 0.0
C1118 C 0.77315 0.4104 0.73886 0.0
C1119 C 0.78642 0.40483 0.714 0.0
C1120 C 0.76921 0.39134 0.76317 0.0
C1121 C 0.79005 0.37653 0.71189 0.0
C1122 C 0.78369 0.3558 0.73544 0.0
C1123 C 0.77828 0.34973 0.78673 0.0
C1124 C 0.77796 0.36386 0.81298 0.0
C1125 C 0.77556 0.36442 0.76163 0.0
C1126 C 0.76915 0.38873 0.81453 0.0
C1127 C 0.76366 0.40168 0.78965 0.0
H1128 H 0.56618 0.29268 0.0688 0.0
H1129 H 0.48452 0.28492 0.11902 0.0
H1130 H 0.50333 0.34384 0.11023 0.0
H1131 H 0.55133 0.39895 0.10097 0.0
H1132 H 0.63778 0.40832 0.05757 0.0
H1133 H 0.60837 0.34783 0.04943 0.0
C1134 C 0.55181 0.30368 0.0767 0.0
C1135 C 0.52443 0.28499 0.09489 0.0
C1136 C 0.56408 0.33813 0.07307 0.0
C1137 C 0.50592 0.29921 0.10524 0.0
C1138 C 0.51677 0.33288 0.10034 0.0
C1139 C 0.5632 0.38783 0.08873 0.0
C1140 C 0.59696 0.40765 0.08083 0.0
C1141 C 0.54716 0.35299 0.08618 0.0
C1142 C 0.61191 0.39341 0.06429 0.0
C1143 C 0.59527 0.3587 0.06006 0.0
H1144 H 0.17592 0.54857 0.10257 0.0
H1145 H 0.25744 0.63735 0.06508 0.0
H1146 H 0.28988 0.609 0.06022 0.0
H1147 H 0.29992 0.56445 0.07856 0.0
H1148 H 0.21899 0.47774 0.11919 0.0
H1149 H 0.18125 0.4992 0.1103 0.0
C1150 C 0.20027 0.56121 0.0923 0.0
C1151 C 0.21458 0.59509 0.08473 0.0
C1152 C 0.21917 0.54522 0.09066 0.0
C1153 C 0.24594 0.61122 0.07115 0.0
C1154 C 0.26469 0.59514 0.06873 0.0
C1155 C 0.27367 0.54967 0.0843 0.0
C1156 C 0.26228 0.51987 0.09992 0.0
C1157 C 0.25238 0.56291 0.08016 0.0
C1158 C 0.2283 0.50094 0.10742 0.0
C1159 C 0.20677 0.51331 0.10251 0.0
H1160 H 0.73323 0.28812 0.07205 0.0
H1161 H 0.74282 0.21897 0.12735 0.0
H1162 H 0.6835 0.17807 0.12145 0.0
H1163 H 0.62793 0.16881 0.11099 0.0
H1164 H 0.61662 0.24039 0.06052 0.0
H1165 H 0.67727 0.27282 0.05296 0.0
C1166 C 0.72244 0.26353 0.08176 0.0
C1167 C 0.74195 0.25643 0.10029 0.0
C1168 C 0.68785 0.24082 0.07945 0.0
C1169 C 0.72797 0.22479 0.11314 0.0
C1170 C 0.69408 0.20154 0.10989 0.0
C1171 C 0.63869 0.19086 0.09745 0.0
C1172 C 0.61814 0.20272 0.08692 0.0
C1173 C 0.6735 0.21022 0.09465 0.0
C1174 C 0.63206 0.23091 0.06901 0.0
C1175 C 0.6668 0.24973 0.06505 0.0
H1176 H 0.46663 0.62252 0.15776 0.0
H1177 H 0.41519 0.60958 0.07802 0.0
H1178 H 0.4444 0.67043 0.07148 0.0
H1179 H 0.47506 0.72655 0.09358 0.0
H1180 H 0.51964 0.73748 0.1764 0.0
H1181 H 0.50274 0.67822 0.17667 0.0
C1182 C 0.46224 0.63293 0.13863 0.0
C1183 C 0.43814 0.61166 0.11877 0.0
C1184 C 0.47754 0.66767 0.13588 0.0
C1185 C 0.43339 0.62546 0.09377 0.0
C1186 C 0.44984 0.66026 0.09018 0.0
C1187 C 0.48185 0.71602 0.11125 0.0
C1188 C 0.49824 0.73601 0.13506 0.0
C1189 C 0.47053 0.68155 0.11186 0.0
C1190 C 0.50675 0.72231 0.158 0.0
C1191 C 0.49705 0.68849 0.15817 0.0
H1192 H 0.86656 0.47515 0.10995 0.0
H1193 H 0.79748 0.39367 0.0565 0.0
H1194 H 0.76268 0.41948 0.05198 0.0
H1195 H 0.7443 0.4559 0.0748 0.0
H1196 H 0.8099 0.53127 0.13449 0.0
H1197 H 0.85349 0.51741 0.12525 0.0
C1198 C 0.84444 0.46358 0.09654 0.0
C1199 C 0.83393 0.432 0.08447 0.0
C1200 C 0.82333 0.47709 0.09598 0.0
C1201 C 0.80585 0.41776 0.06643 0.0
C1202 C 0.78563 0.43226 0.06423 0.0
C1203 C 0.76862 0.46997 0.08492 0.0
C1204 C 0.77401 0.49423 0.10551 0.0
C1205 C 0.79283 0.46047 0.08071 0.0
C1206 C 0.80533 0.51227 0.11879 0.0
C1207 C 0.83016 0.50429 0.11354 0.0
H1208 H 0.41109 0.86105 0.10121 0.0
H1209 H 0.42145 0.78752 0.05266 0.0
H1210 H 0.36048 0.75274 0.04937 0.0
H1211 H 0.30566 0.73739 0.07064 0.0
H1212 H 0.29782 0.80766 0.12575 0.0
H1213 H 0.35615 0.84955 0.11625 0.0
C1214 C 0.40014 0.83797 0.08905 0.0
C1215 C 0.42078 0.82655 0.07771 0.0
C1216 C 0.36531 0.81707 0.08915 0.0
C1217 C 0.40607 0.79666 0.0619 0.0
C1218 C 0.3712 0.7766 0.06029 0.0
C1219 C 0.31656 0.76232 0.07968 0.0
C1220 C 0.29783 0.76962 0.09891 0.0
C1221 C 0.35069 0.78556 0.07542 0.0
C1222 C 0.31204 0.80167 0.11096 0.0
C1223 C 0.34535 0.82552 0.1056 0.0
H1224 H 0.73005 0.45163 0.46807 0.0
H1225 H 0.74329 0.53217 0.41315 0.0
H1226 H 0.6851 0.51703 0.42054 0.0
H1227 H 0.62863 0.47262 0.43183 0.0
H1228 H 0.61337 0.38761 0.4815 0.0
H1229 H 0.67386 0.41329 0.48828 0.0
C1230 C 0.72039 0.46656 0.45874 0.0
C1231 C 0.7405 0.49265 0.43985 0.0
C1232 C 0.68632 0.45653 0.46189 0.0
C1233 C 0.72795 0.5118 0.42757 0.0
C1234 C 0.69469 0.50306 0.43169 0.0
C1235 C 0.63853 0.46033 0.44506 0.0
C1236 C 0.61681 0.42793 0.4554 0.0
C1237 C 0.67322 0.47418 0.44721 0.0
C1238 C 0.62967 0.41248 0.47304 0.0
C1239 C 0.66434 0.42694 0.47652 0.0
H1240 H 0.23693 0.62893 0.45571 0.0
H1241 H 0.15118 0.619 0.41066 0.0
H1242 H 0.17572 0.67971 0.4103 0.0
H1243 H 0.22647 0.73457 0.41281 0.0
H1244 H 0.31432 0.74533 0.45472 0.0
H1245 H 0.28409 0.68564 0.46683 0.0
C1246 C 0.22307 0.64013 0.44704 0.0
C1247 C 0.19242 0.61978 0.43316 0.0
C1248 C 0.23817 0.67524 0.44567 0.0
C1249 C 0.1748 0.63437 0.4215 0.0
C1250 C 0.18899 0.66906 0.42101 0.0
C1251 C 0.23872 0.72399 0.42524 0.0
C1252 C 0.27272 0.74402 0.4323 0.0
C1253 C 0.22148 0.68966 0.43143 0.0
C1254 C 0.28818 0.73029 0.44886 0.0
C1255 C 0.27096 0.6961 0.45561 0.0
H1256 H 0.49719 0.21577 0.41397 0.0
H1257 H 0.56606 0.28909 0.47332 0.0
H1258 H 0.59154 0.25461 0.4824 0.0
H1259 H 0.60375 0.21234 0.46256 0.0
H1260 H 0.53634 0.14141 0.4009 0.0
H1261 H 0.4999 0.16521 0.4044 0.0
C1262 C 0.51692 0.22346 0.4297 0.0
C1263 C 0.53043 0.25506 0.44241 0.0
C1264 C 0.53193 0.20403 0.43411 0.0
C1265 C 0.55555 0.26484 0.46312 0.0
C1266 C 0.57031 0.24528 0.46809 0.0
C1267 C 0.58021 0.2011 0.45106 0.0
C1268 C 0.57296 0.17581 0.43102 0.0
C1269 C 0.56019 0.21601 0.45217 0.0
C1270 C 0.54249 0.16128 0.41614 0.0
C1271 C 0.52185 0.17509 0.41792 0.0
H1272 H 0.29425 0.50541 0.43462 0.0
H1273 H 0.28614 0.58922 0.46436 0.0
H1274 H 0.34539 0.61885 0.47777 0.0
H1275 H 0.40121 0.62514 0.47083 0.0
H1276 H 0.40843 0.54029 0.44187 0.0
H1277 H 0.34772 0.50642 0.43955 0.0
C1278 C 0.30531 0.52972 0.44486 0.0
C1279 C 0.28631 0.54548 0.44803 0.0
C1280 C 0.33927 0.54652 0.45248 0.0
C1281 C 0.3005 0.57674 0.46164 0.0
C1282 C 0.33441 0.59376 0.46913 0.0
C1283 C 0.38954 0.59888 0.46511 0.0
C1284 C 0.40943 0.58571 0.45547 0.0
C1285 C 0.35442 0.57957 0.46324 0.0
C1286 C 0.39378 0.5514 0.44869 0.0
C1287 C 0.35898 0.532 0.4471 0.0
H1288 H 0.78223 0.39481 0.46936 0.0
H1289 H 0.87313 0.40101 0.43884 0.0
H1290 H 0.8461 0.34014 0.43835 0.0
H1291 H 0.793 0.28725 0.43323 0.0
H1292 H 0.70137 0.28029 0.46239 0.0
H1293 H 0.73211 0.33913 0.47712 0.0
C1294 C 0.79656 0.3828 0.46413 0.0
C1295 C 0.8293 0.40216 0.45349 0.0
C1296 C 0.78032 0.34763 0.46267 0.0
C1297 C 0.84772 0.38643 0.44677 0.0
C1298 C 0.83213 0.35162 0.44608 0.0
C1299 C 0.78006 0.2984 0.44376 0.0
C1300 C 0.7451 0.28003 0.44621 0.0
C1301 C 0.79782 0.33218 0.45182 0.0
C1302 C 0.72837 0.29425 0.46017 0.0
C1303 C 0.74591 0.32793 0.4684 0.0
H1304 H 0.51504 0.79363 0.39317 0.0
H1305 H 0.45795 0.73572 0.46548 0.0
H1306 H 0.43404 0.77219 0.47126 0.0
H1307 H 0.4198 0.81155 0.44816 0.0
H1308 H 0.47595 0.86733 0.37449 0.0
H1309 H 0.5106 0.84152 0.37727 0.0
C1310 C 0.49821 0.7898 0.41075 0.0
C1311 C 0.48757 0.76191 0.4285 0.0
C1312 C 0.48414 0.81026 0.41344 0.0
C1313 C 0.46623 0.75713 0.4515 0.0
C1314 C 0.45236 0.77776 0.45462 0.0
C1315 C 0.44048 0.81895 0.43348 0.0
C1316 C 0.44484 0.84048 0.4107 0.0
C1317 C 0.45965 0.80314 0.43463 0.0
C1318 C 0.47177 0.85017 0.39183 0.0
C1319 C 0.49149 0.83535 0.39332 0.0
H1320 H 0.44902 0.72645 0.96841 0.0
H1321 H 0.53311 0.74108 0.91779 0.0
H1322 H 0.52046 0.68417 0.92844 0.0
H1323 H 0.47774 0.62754 0.94122 0.0
H1324 H 0.38865 0.6104 0.98535 0.0
H1325 H 0.41163 0.67076 0.98974 0.0
C1326 C 0.4652 0.71743 0.96071 0.0
C1327 C 0.49169 0.73749 0.94216 0.0
C1328 C 0.45656 0.68398 0.96559 0.0
C1329 C 0.51244 0.72575 0.93194 0.0
C1330 C 0.50513 0.69323 0.93795 0.0
C1331 C 0.46385 0.63701 0.95272 0.0
C1332 C 0.43106 0.61459 0.96196 0.0
C1333 C 0.47605 0.67155 0.95316 0.0
C1334 C 0.41375 0.62711 0.97757 0.0
C1335 C 0.42668 0.66171 0.97968 0.0
H1336 H 0.79358 0.39575 0.96936 0.0
H1337 H 0.87585 0.477 0.92464 0.0
H1338 H 0.84902 0.51067 0.92853 0.0
H1339 H 0.79572 0.50978 0.932 0.0
H1340 H 0.71196 0.42802 0.9746 0.0
H1341 H 0.74577 0.40195 0.98477 0.0
C1342 C 0.80635 0.42144 0.96182 0.0
C1343 C 0.83618 0.4337 0.94614 0.0
C1344 C 0.78997 0.44014 0.96302 0.0
C1345 C 0.8526 0.46699 0.93644 0.0
C1346 C 0.83709 0.48611 0.93837 0.0
C1347 C 0.78542 0.48696 0.94453 0.0
C1348 C 0.7515 0.4704 0.95214 0.0
C1349 C 0.80471 0.47189 0.94962 0.0
C1350 C 0.73814 0.44103 0.96851 0.0
C1351 C 0.75737 0.426 0.97405 0.0
H1352 H 0.38984 0.77693 0.96605 0.0
H1353 H 0.39788 0.86883 0.93598 0.0
H1354 H 0.33709 0.84282 0.93559 0.0
H1355 H 0.2836 0.7904 0.93062 0.0
H1356 H 0.27495 0.69757 0.95866 0.0
H1357 H 0.33377 0.72728 0.97336 0.0
C1358 C 0.37823 0.79168 0.96095 0.0
C1359 C 0.39807 0.82446 0.95053 0.0
C1360 C 0.34313 0.77598 0.9594 0.0
C1361 C 0.38291 0.84342 0.94385 0.0
C1362 C 0.34815 0.8284 0.9432 0.0
C1363 C 0.29439 0.77693 0.94082 0.0
C1364 C 0.27549 0.74192 0.94295 0.0
C1365 C 0.3282 0.79409 0.94879 0.0
C1366 C 0.28929 0.72459 0.95662 0.0
C1367 C 0.32296 0.74154 0.96485 0.0
H1368 H 0.50029 0.28095 0.93066 0.0
H1369 H 0.5805 0.27446 0.97099 0.0
H1370 H 0.60736 0.33367 0.98446 0.0
H1371 H 0.61499 0.38924 0.97237 0.0
H1372 H 0.53583 0.39498 0.92903 0.0
H1373 H 0.50088 0.33417 0.93017 0.0
C1374 C 0.523 0.29228 0.94335 0.0
C1375 C 0.5389 0.27392 0.9493 0.0
C1376 C 0.53862 0.32636 0.9502 0.0
C1377 C 0.56801 0.28838 0.96605 0.0
C1378 C 0.5835 0.3223 0.97349 0.0
C1379 C 0.58945 0.37719 0.96454 0.0
C1380 C 0.57812 0.3963 0.9501 0.0
C1381 C 0.57014 0.342 0.96396 0.0
C1382 C 0.54507 0.38057 0.93995 0.0
C1383 C 0.52526 0.34579 0.94029 0.0
H1384 H 0.21029 0.59962 0.95453 0.0
H1385 H 0.15181 0.53941 0.8836 0.0
H1386 H 0.17789 0.50503 0.88732 0.0
H1387 H 0.22694 0.50222 0.90233 0.0
H1388 H 0.28822 0.56406 0.97123 0.0
H1389 H 0.25113 0.58723 0.97733 0.0
C1390 C 0.2023 0.57807 0.94077 0.0
C1391 C 0.17984 0.57236 0.91844 0.0
C1392 C 0.21846 0.55923 0.9423 0.0
C1393 C 0.16954 0.54446 0.90065 0.0
C1394 C 0.18457 0.52494 0.90264 0.0
C1395 C 0.23135 0.51986 0.91935 0.0
C1396 C 0.26031 0.53203 0.93595 0.0
C1397 C 0.21061 0.53362 0.92207 0.0
C1398 C 0.26595 0.55454 0.95817 0.0
C1399 C 0.24496 0.568 0.96144 0.0
H1400 H 0.73196 0.21671 0.91248 0.0
H1401 H 0.73829 0.29321 0.96878 0.0
H1402 H 0.67801 0.25984 0.97807 0.0
H1403 H 0.62266 0.21616 0.96008 0.0
H1404 H 0.61743 0.14211 0.90123 0.0
H1405 H 0.67797 0.1665 0.90365 0.0
C1406 C 0.72026 0.22545 0.92757 0.0
C1407 C 0.73911 0.25748 0.93946 0.0
C1408 C 0.68564 0.20668 0.93201 0.0
C1409 C 0.72407 0.26858 0.95928 0.0
C1410 C 0.68955 0.24966 0.96434 0.0
C1411 C 0.63471 0.20456 0.94884 0.0
C1412 C 0.61591 0.17783 0.93011 0.0
C1413 C 0.66982 0.21967 0.94939 0.0
C1414 C 0.63164 0.16298 0.91551 0.0
C1415 C 0.66625 0.17706 0.91671 0.0
H1416 H 0.29116 0.49501 0.62365 0.0
H1417 H 0.28843 0.56509 0.56482 0.0
H1418 H 0.34787 0.58801 0.55391 0.0
H1419 H 0.40226 0.59799 0.57219 0.0
H1420 H 0.40422 0.52913 0.63304 0.0
H1421 H 0.34343 0.4948 0.63117 0.0
C1422 C 0.30338 0.51439 0.60761 0.0
C1423 C 0.28611 0.52903 0.59553 0.0
C1424 C 0.33752 0.52781 0.60205 0.0
C1425 C 0.30163 0.55375 0.57449 0.0
C1426 C 0.33563 0.56702 0.56846 0.0
C1427 C 0.38943 0.57452 0.58381 0.0
C1428 C 0.4073 0.56642 0.6033 0.0
C1429 C 0.35427 0.55576 0.58365 0.0
C1430 C 0.39066 0.53598 0.61825 0.0
C1431 C 0.3559 0.51657 0.61745 0.0
H1432 H 0.86012 0.3985 0.59842 0.0
H1433 H 0.78448 0.41356 0.5589 0.0
H1434 H 0.74922 0.35323 0.55171 0.0
H1435 H 0.73377 0.29682 0.56974 0.0
H1436 H 0.80738 0.28349 0.61493 0.0
H1437 H 0.84948 0.34203 0.60672 0.0
C1438 C 0.83639 0.38868 0.58735 0.0
C1439 C 0.82438 0.41029 0.58023 0.0
C1440 C 0.81542 0.35396 0.58502 0.0
C1441 C 0.7941 0.3974 0.56511 0.0
C1442 C 0.77367 0.36279 0.56134 0.0
C1443 C 0.75942 0.30656 0.57667 0.0
C1444 C 0.76761 0.2863 0.59315 0.0
C1445 C 0.78302 0.34079 0.57322 0.0
C1446 C 0.80069 0.29894 0.60236 0.0
C1447 C 0.82467 0.3324 0.59781 0.0
H1448 H 0.40157 0.77905 0.5698 0.0
H1449 H 0.4861 0.86782 0.60425 0.0
H1450 H 0.51974 0.84077 0.60301 0.0
H1451 H 0.51951 0.78767 0.60462 0.0
H1452 H 0.43469 0.69785 0.57221 0.0
H1453 H 0.4069 0.72939 0.55969 0.0
C1454 C 0.42783 0.79297 0.57565 0.0
C1455 C 0.44123 0.82509 0.58763 0.0
C1456 C 0.44664 0.77666 0.57605 0.0
C1457 C 0.47524 0.8429 0.59525 0.0
C1458 C 0.49437 0.82731 0.59485 0.0
C1459 C 0.49548 0.77535 0.59383 0.0
C1460 C 0.47879 0.74057 0.5898 0.0
C1461 C 0.47952 0.7935 0.58728 0.0
C1462 C 0.44789 0.72469 0.57557 0.0
C1463 C 0.43188 0.74268 0.56866 0.0
H1464 H 0.72991 0.46725 0.57782 0.0
H1465 H 0.74252 0.53319 0.64754 0.0
H1466 H 0.68364 0.51712 0.64477 0.0
H1467 H 0.62732 0.47417 0.63119 0.0
H1468 H 0.61298 0.40384 0.56486 0.0
H1469 H 0.67351 0.43235 0.55674 0.0
C1470 C 0.71992 0.47904 0.59152 0.0
C1471 C 0.74008 0.50093 0.61311 0.0
C1472 C 0.68556 0.46838 0.5907 0.0
C1473 C 0.72713 0.51601 0.63097 0.0
C1474 C 0.69347 0.50669 0.62949 0.0
C1475 C 0.63744 0.46588 0.61426 0.0
C1476 C 0.61607 0.43661 0.59915 0.0
C1477 C 0.67214 0.48131 0.61077 0.0
C1478 C 0.62911 0.42627 0.57691 0.0
C1479 C 0.66377 0.4423 0.57254 0.0
H1480 H 0.16646 0.62627 0.60604 0.0
H1481 H 0.23597 0.60984 0.55741 0.0
H1482 H 0.27149 0.67015 0.55004 0.0
H1483 H 0.29008 0.72657 0.56972 0.0
H1484 H 0.22289 0.74118 0.62341 0.0
H1485 H 0.17912 0.68307 0.61631 0.0
C1486 C 0.18873 0.63587 0.59288 0.0
C1487 C 0.19917 0.61387 0.58308 0.0
C1488 C 0.20996 0.67052 0.59032 0.0
C1489 C 0.2276 0.62635 0.5655 0.0
C1490 C 0.24821 0.66094 0.56166 0.0
C1491 C 0.26536 0.71725 0.5788 0.0
C1492 C 0.25963 0.73768 0.59736 0.0
C1493 C 0.24088 0.68324 0.57583 0.0
C1494 C 0.22774 0.72557 0.60928 0.0
C1495 C 0.20281 0.69235 0.60533 0.0
H1496 H 0.50489 0.22371 0.60774 0.0
H1497 H 0.58448 0.31336 0.56966 0.0
H1498 H 0.6146 0.28383 0.55801 0.0
H1499 H 0.62396 0.23698 0.57014 0.0
H1500 H 0.5447 0.14869 0.61042 0.0
H1501 H 0.50819 0.17253 0.60873 0.0
C1502 C 0.52825 0.23634 0.59595 0.0
C1503 C 0.54288 0.27061 0.59001 0.0
C1504 C 0.5456 0.21944 0.58997 0.0
C1505 C 0.57291 0.28689 0.57449 0.0
C1506 C 0.59025 0.27009 0.56809 0.0
C1507 C 0.59817 0.22239 0.57724 0.0
C1508 C 0.58711 0.19145 0.59086 0.0
C1509 C 0.57774 0.23694 0.57731 0.0
C1510 C 0.55374 0.17274 0.60013 0.0
C1511 C 0.53298 0.1865 0.59944 0.0
H1512 H 0.4364 0.07432 0.97783 0.0
H1513 H 0.41299 0.15172 0.96035 0.0
H1514 H 0.4019 0.15454 1.01083 0.0
H1515 H 0.41546 0.14641 0.06003 0.0
H1516 H 0.43982 0.06967 0.0774 0.0
H1517 H 0.43275 0.05415 0.02714 0.0
C1518 C 0.4269 0.09033 0.9849 0.0
C1519 C 0.42554 0.11281 0.96542 0.0
C1520 C 0.42141 0.09236 1.01415 0.0
C1521 C 0.41377 0.13387 0.97485 0.0
C1522 C 0.40801 0.13589 1.00386 0.0
C1523 C 0.41705 0.12487 0.05306 0.0
C1524 C 0.4281 0.10917 0.07241 0.0
C1525 C 0.41401 0.11687 0.02385 0.0
C1526 C 0.43083 0.08179 0.06303 0.0
C1527 C 0.42744 0.07336 0.03412 0.0
H1528 H 0.28273 0.41326 0.97987 0.0
H1529 H 0.38482 0.43915 0.96476 0.0
H1530 H 0.39154 0.43045 1.01506 0.0
H1531 H 0.37302 0.43185 0.06415 0.0
H1532 H 0.27112 0.40663 0.07931 0.0
H1533 H 0.25918 0.39767 0.0284 0.0
C1534 C 0.30573 0.41487 0.9873 0.0
C1535 C 0.33323 0.42676 0.96861 0.0
C1536 C 0.30964 0.41078 1.01653 0.0
C1537 C 0.36315 0.42951 0.9786 0.0
C1538 C 0.36718 0.42517 1.00755 0.0
C1539 C 0.34771 0.4224 0.05643 0.0
C1540 C 0.32295 0.41983 0.07545 0.0
C1541 C 0.34131 0.41811 0.02695 0.0
C1542 C 0.29042 0.40826 0.06518 0.0
C1543 C 0.28376 0.40371 0.03593 0.0
H1544 H 0.94858 0.3681 0.0575 0.0
H1545 H 0.87161 0.26583 0.07179 0.0
H1546 H 0.87117 0.25367 0.02118 0.0
H1547 H 0.88054 0.27713 0.97258 0.0
H1548 H 0.9565 0.37978 0.95826 0.0
H1549 H 0.97047 0.38668 1.00885 0.0
C1550 C 0.93332 0.34266 0.04977 0.0
C1551 C 0.9102 0.31787 0.06836 0.0
C1552 C 0.93248 0.33619 0.02036 0.0
C1553 C 0.88998 0.28518 0.058 0.0
C1554 C 0.88928 0.27839 0.02889 0.0
C1555 C 0.90162 0.3003 0.98029 0.0
C1556 C 0.91749 0.32791 0.96171 0.0
C1557 C 0.90869 0.30434 1.00968 0.0
C1558 C 0.94426 0.35804 0.97204 0.0
C1559 C 0.95179 0.36217 1.00114 0.0
H1560 H 0.604 0.87673 0.97278 0.0
H1561 H 0.5713 0.94866 0.96535 0.0
H1562 H 0.58216 0.96198 1.01592 0.0
H1563 H 0.58475 0.94052 0.06348 0.0
H1564 H 0.61469 0.86645 0.07087 0.0
H1565 H 0.62244 0.86742 0.01944 0.0
C1566 C 0.60132 0.89683 0.98189 0.0
C1567 C 0.58709 0.91186 0.9653 0.0
C1568 C 0.60645 0.90339 1.01134 0.0
C1569 C 0.5828 0.93718 0.97754 0.0
C1570 C 0.58844 0.94435 1.00666 0.0
C1571 C 0.59509 0.92627 0.05398 0.0
C1572 C 0.59929 0.90356 0.071 0.0
C1573 C 0.59804 0.92592 0.02409 0.0
C1574 C 0.61178 0.88451 0.05831 0.0
C1575 C 0.61558 0.88458 0.02875 0.0
H1576 H 0.65167 0.57609 0.98197 0.0
H1577 H 0.75366 0.60179 0.96651 0.0
H1578 H 0.76743 0.61716 1.01647 0.0
H1579 H 0.74561 0.60625 0.06562 0.0
H1580 H 0.6433 0.57927 0.08116 0.0
H1581 H 0.6347 0.58285 0.03031 0.0
C1582 C 0.67736 0.58703 0.98922 0.0
C1583 C 0.70164 0.58783 0.9706 0.0
C1584 C 0.68482 0.59497 0.01826 0.0
C1585 C 0.73469 0.6014 0.98032 0.0
C1586 C 0.74241 0.60966 1.00907 0.0
C1587 C 0.72214 0.60342 0.05804 0.0
C1588 C 0.69506 0.5923 0.07712 0.0
C1589 C 0.71708 0.60425 0.02853 0.0
C1590 C 0.66462 0.58819 0.06699 0.0
C1591 C 0.65949 0.58949 0.03774 0.0
H1592 H 0.08747 0.652 0.05867 0.0
H1593 H 0.1696 0.75314 0.06596 0.0
H1594 H 0.16426 0.76311 1.0157 0.0
H1595 H 0.14687 0.73759 0.96811 0.0
H1596 H 0.06615 0.63581 0.96061 0.0
H1597 H 0.0592 0.6318 1.01222 0.0
C1598 C 0.1028 0.67678 0.04961 0.0
C1599 C 0.12873 0.70189 0.06604 0.0
C1600 C 0.10019 0.68197 0.02033 0.0
C1601 C 0.1491 0.73363 0.05386 0.0
C1602 C 0.14638 0.73916 0.02495 0.0
C1603 C 0.12633 0.71534 0.97769 0.0
C1604 C 0.10696 0.68708 0.96053 0.0
C1605 C 0.12347 0.71282 1.00761 0.0
C1606 C 0.08101 0.65807 0.9733 0.0
C1607 C 0.07752 0.65555 1.00294 0.0
H1608 H 0.94692 0.58395 0.56515 0.0
H1609 H 0.87379 0.61448 0.57661 0.0
H1610 H 0.87396 0.62434 0.52557 0.0
H1611 H 0.88189 0.60698 0.47782 0.0
H1612 H 0.95388 0.57493 0.46637 0.0
H1613 H 0.96803 0.58382 0.51689 0.0
C1614 C 0.93278 0.59494 0.55667 0.0
C1615 C 0.91035 0.59845 0.57465 0.0
C1616 C 0.93209 0.59929 0.52701 0.0
C1617 C 0.89159 0.61201 0.56331 0.0
C1618 C 0.89116 0.61696 0.53394 0.0
C1619 C 0.90219 0.60404 0.48608 0.0
C1620 C 0.9169 0.59041 0.46838 0.0
C1621 C 0.90943 0.60826 0.51546 0.0
C1622 C 0.94259 0.5859 0.47946 0.0
C1623 C 0.95025 0.59042 0.50853 0.0
H1624 H 0.37746 0.94178 0.55718 0.0
H1625 H 0.27603 0.86242 0.57057 0.0
H1626 H 0.2634 0.86394 0.52029 0.0
H1627 H 0.28606 0.87736 0.47129 0.0
H1628 H 0.3877 0.95629 0.45794 0.0
H1629 H 0.39523 0.96634 0.50914 0.0
C1630 C 0.35208 0.9263 0.54939 0.0
C1631 C 0.32763 0.90222 0.56765 0.0
C1632 C 0.34527 0.92679 0.52016 0.0
C1633 C 0.29507 0.88161 0.55711 0.0
C1634 C 0.28802 0.88208 0.52816 0.0
C1635 C 0.30912 0.89814 0.47951 0.0
C1636 C 0.3362 0.91626 0.46079 0.0
C1637 C 0.31353 0.9031 0.5092 0.0
C1638 C 0.3663 0.94245 0.47181 0.0
C1639 C 0.3708 0.94778 0.50122 0.0
H1640 H 0.41324 0.2782 0.47722 0.0
H1641 H 0.43983 0.38067 0.46301 0.0
H1642 H 0.43185 0.38713 0.51349 0.0
H1643 H 0.43443 0.36838 0.56222 0.0
H1644 H 0.40919 0.2663 0.57646 0.0
H1645 H 0.39834 0.2544 0.52571 0.0
C1646 C 0.41511 0.30123 0.4849 0.0
C1647 C 0.42708 0.32893 0.46639 0.0
C1648 C 0.41155 0.30502 0.51425 0.0
C1649 C 0.43016 0.35887 0.47671 0.0
C1650 C 0.42623 0.36274 0.50577 0.0
C1651 C 0.42444 0.34301 0.55442 0.0
C1652 C 0.4226 0.31824 0.57308 0.0
C1653 C 0.41932 0.33671 0.52496 0.0
C1654 C 0.41031 0.28564 0.56264 0.0
C1655 C 0.40475 0.27902 0.53345 0.0
H1656 H 0.14642 0.41109 0.566 0.0
H1657 H 0.06986 0.43633 0.58054 0.0
H1658 H 0.05744 0.43156 0.52972 0.0
H1659 H 0.08117 0.43793 0.48141 0.0
H1660 H 0.15893 0.41429 0.46689 0.0
H1661 H 0.15779 0.40003 0.51713 0.0
C1662 C 0.12547 0.41324 0.55823 0.0
C1663 C 0.10923 0.42427 0.57697 0.0
C1664 C 0.11957 0.41192 0.52871 0.0
C1665 C 0.08249 0.42751 0.56662 0.0
C1666 C 0.07593 0.42556 0.53737 0.0
C1667 C 0.09643 0.42776 0.48899 0.0
C1668 C 0.12009 0.4271 0.47055 0.0
C1669 C 0.09613 0.42038 0.51813 0.0
C1670 C 0.14023 0.41455 0.48063 0.0
C1671 C 0.1399 0.40687 0.5095 0.0
H1672 H 0.7421 0.14706 0.46835 0.0
H1673 H 0.64028 0.06738 0.45786 0.0
H1674 H 0.63578 0.05606 0.5089 0.0
H1675 H 0.6556 0.08046 0.55665 0.0
H1676 H 0.75699 0.16104 0.56719 0.0
H1677 H 0.76738 0.15991 0.51634 0.0
C1678 C 0.71972 0.1258 0.47702 0.0
C1679 C 0.69159 0.10801 0.45932 0.0
C1680 C 0.717 0.12027 0.50669 0.0
C1681 C 0.66243 0.08107 0.47094 0.0
C1682 C 0.65965 0.07504 0.5003 0.0
C1683 C 0.68054 0.09628 0.54806 0.0
C1684 C 0.70555 0.1207 0.56567 0.0
C1685 C 0.68598 0.09608 0.51854 0.0
C1686 C 0.73754 0.14167 0.55418 0.0
C1687 C 0.74329 0.14141 0.52493 0.0
H1688 H 0.58791 0.64887 0.56333 0.0
H1689 H 0.60747 0.74849 0.58103 0.0
H1690 H 0.61745 0.76263 0.53053 0.0
H1691 H 0.60349 0.74064 0.48142 0.0
H1692 H 0.58286 0.64064 0.46377 0.0
H1693 H 0.59136 0.6328 0.51387 0.0
C1694 C 0.59651 0.67431 0.55631 0.0
C1695 C 0.59693 0.6976 0.57588 0.0
C1696 C 0.6011 0.68184 0.527 0.0
C1697 C 0.60745 0.73029 0.56648 0.0
C1698 C 0.61247 0.73815 0.53743 0.0
C1699 C 0.60294 0.71794 0.48829 0.0
C1700 C 0.59265 0.69127 0.46893 0.0
C1701 C 0.60698 0.71335 0.51738 0.0
C1702 C 0.59125 0.66168 0.47816 0.0
C1703 C 0.59554 0.657 0.50697 0.0
loop_
_geom_bond_atom_site_label_1
_geom_bond_atom_site_label_2
_geom_bond_distance
_geom_bond_site_symmetry_2
_ccdc_geom_bond_type
O0 Zn1 1.953 . S
O0 C16 1.225 . S
Zn1 O0 1.953 . S
Zn1 O2 1.949 . S
Zn1 O8 1.919 . S
Zn1 O13 1.924 . S
O2 Zn1 1.949 . S
O2 Zn3 1.923 . S
O2 Zn4 1.950 . S
O2 Zn5 1.945 . S
Zn3 O2 1.923 . S
Zn3 O6 1.933 . S
Zn3 O9 1.941 . S
Zn3 O10 1.965 . S
Zn4 O2 1.950 . S
Zn4 O11 1.938 . S
Zn4 O12 1.906 . S
Zn4 O22 1.953 . S
Zn5 O2 1.945 . S
Zn5 O7 1.932 . S
Zn5 O14 1.977 . S
Zn5 O15 1.910 . S
O6 Zn3 1.933 . S
O6 C17 1.226 . S
O7 Zn5 1.932 . S
O7 C17 1.307 . S
O8 Zn1 1.919 . S
O8 C19 1.253 . S
O9 Zn3 1.941 . S
O9 C19 1.283 . S
O10 Zn3 1.965 . S
O10 C18 1.303 . S
O11 Zn4 1.938 . S
O11 C18 1.247 . S
O12 Zn4 1.906 . S
O12 C20 1.304 . S
O13 Zn1 1.924 . S
O13 C21 1.311 . S
O14 Zn5 1.977 . S
O14 C20 1.272 . S
O15 Zn5 1.910 . S
O15 C21 1.231 . S
C16 O0 1.225 . S
C16 O22 1.298 . S
C17 O6 1.226 . S
C17 O7 1.307 . S
C18 O10 1.303 . S
C18 O11 1.247 . S
C19 O8 1.253 . S
C19 O9 1.283 . S
C20 O12 1.304 . S
C20 O14 1.272 . S
C21 O13 1.311 . S
C21 O15 1.231 . S
O22 Zn4 1.953 . S
O22 C16 1.298 . S
O23 Zn24 1.953 . S
O23 C39 1.225 . S
Zn24 O23 1.953 . S
Zn24 O25 1.949 . S
Zn24 O31 1.919 . S
Zn24 O36 1.924 . S
O25 Zn24 1.949 . S
O25 Zn26 1.923 . S
O25 Zn27 1.950 . S
O25 Zn28 1.945 . S
Zn26 O25 1.923 . S
Zn26 O29 1.933 . S
Zn26 O32 1.941 . S
Zn26 O33 1.965 . S
Zn27 O25 1.950 . S
Zn27 O34 1.938 . S
Zn27 O35 1.906 . S
Zn27 O45 1.953 . S
Zn28 O25 1.945 . S
Zn28 O30 1.932 . S
Zn28 O37 1.977 . S
Zn28 O38 1.910 . S
O29 Zn26 1.933 . S
O29 C40 1.226 . S
O30 Zn28 1.932 . S
O30 C40 1.307 . S
O31 Zn24 1.919 . S
O31 C42 1.253 . S
O32 Zn26 1.941 . S
O32 C42 1.283 . S
O33 Zn26 1.965 . S
O33 C41 1.303 . S
O34 Zn27 1.938 . S
O34 C41 1.247 . S
O35 Zn27 1.906 . S
O35 C43 1.304 . S
O36 Zn24 1.924 . S
O36 C44 1.311 . S
O37 Zn28 1.977 . S
O37 C43 1.272 . S
O38 Zn28 1.910 . S
O38 C44 1.231 . S
C39 O23 1.225 . S
C39 O45 1.298 . S
C40 O29 1.226 . S
C40 O30 1.307 . S
C41 O33 1.303 . S
C41 O34 1.247 . S
C42 O31 1.253 . S
C42 O32 1.283 . S
C43 O35 1.304 . S
C43 O37 1.272 . S
C44 O36 1.311 . S
C44 O38 1.231 . S
O45 Zn27 1.953 . S
O45 C39 1.298 . S
O46 Zn47 1.953 . S
O46 C62 1.225 . S
Zn47 O46 1.953 . S
Zn47 O48 1.949 . S
Zn47 O54 1.919 . S
Zn47 O59 1.924 . S
O48 Zn47 1.949 . S
O48 Zn49 1.923 . S
O48 Zn50 1.950 . S
O48 Zn51 1.945 . S
Zn49 O48 1.923 . S
Zn49 O52 1.933 . S
Zn49 O55 1.941 . S
Zn49 O56 1.965 . S
Zn50 O48 1.950 . S
Zn50 O57 1.938 . S
Zn50 O58 1.906 . S
Zn50 O68 1.953 . S
Zn51 O48 1.945 . S
Zn51 O53 1.932 . S
Zn51 O60 1.977 . S
Zn51 O61 1.910 . S
O52 Zn49 1.933 . S
O52 C63 1.226 . S
O53 Zn51 1.932 . S
O53 C63 1.307 . S
O54 Zn47 1.919 . S
O54 C65 1.253 . S
O55 Zn49 1.941 . S
O55 C65 1.283 . S
O56 Zn49 1.965 . S
O56 C64 1.303 . S
O57 Zn50 1.938 . S
O57 C64 1.247 . S
O58 Zn50 1.906 . S
O58 C66 1.304 . S
O59 Zn47 1.924 . S
O59 C67 1.311 . S
O60 Zn51 1.977 . S
O60 C66 1.272 . S
O61 Zn51 1.910 . S
O61 C67 1.231 . S
C62 O46 1.225 . S
C62 O68 1.298 . S
C63 O52 1.226 . S
C63 O53 1.307 . S
C64 O56 1.303 . S
C64 O57 1.247 . S
C65 O54 1.253 . S
C65 O55 1.283 . S
C66 O58 1.304 . S
C66 O60 1.272 . S
C67 O59 1.311 . S
C67 O61 1.231 . S
O68 Zn50 1.953 . S
O68 C62 1.298 . S
O69 Zn70 1.953 . S
O69 C85 1.225 . S
Zn70 O69 1.953 . S
Zn70 O71 1.949 . S
Zn70 O77 1.919 . S
Zn70 O82 1.924 . S
O71 Zn70 1.949 . S
O71 Zn72 1.923 . S
O71 Zn73 1.950 . S
O71 Zn74 1.945 . S
Zn72 O71 1.923 . S
Zn72 O75 1.933 . S
Zn72 O78 1.941 . S
Zn72 O79 1.965 . S
Zn73 O71 1.950 . S
Zn73 O80 1.938 . S
Zn73 O81 1.906 . S
Zn73 O91 1.953 . S
Zn74 O71 1.945 . S
Zn74 O76 1.932 . S
Zn74 O83 1.977 . S
Zn74 O84 1.910 . S
O75 Zn72 1.933 . S
O75 C86 1.226 . S
O76 Zn74 1.932 . S
O76 C86 1.307 . S
O77 Zn70 1.919 . S
O77 C88 1.253 . S
O78 Zn72 1.941 . S
O78 C88 1.283 . S
O79 Zn72 1.965 . S
O79 C87 1.303 . S
O80 Zn73 1.938 . S
O80 C87 1.247 . S
O81 Zn73 1.906 . S
O81 C89 1.304 . S
O82 Zn70 1.924 . S
O82 C90 1.311 . S
O83 Zn74 1.977 . S
O83 C89 1.272 . S
O84 Zn74 1.910 . S
O84 C90 1.231 . S
C85 O69 1.225 . S
C85 O91 1.298 . S
C86 O75 1.226 . S
C86 O76 1.307 . S
C87 O79 1.303 . S
C87 O80 1.247 . S
C88 O77 1.253 . S
C88 O78 1.283 . S
C89 O81 1.304 . S
C89 O83 1.272 . S
C90 O82 1.311 . S
C90 O84 1.231 . S
O91 Zn73 1.953 . S
O91 C85 1.298 . S
O92 Zn93 1.953 . S
O92 C108 1.225 . S
Zn93 O92 1.953 . S
Zn93 O94 1.949 . S
Zn93 O100 1.919 . S
Zn93 O105 1.924 . S
O94 Zn93 1.949 . S
O94 Zn95 1.923 . S
O94 Zn96 1.950 . S
O94 Zn97 1.945 . S
Zn95 O94 1.923 . S
Zn95 O98 1.933 . S
Zn95 O101 1.941 . S
Zn95 O102 1.965 . S
Zn96 O94 1.950 . S
Zn96 O103 1.938 . S
Zn96 O104 1.906 . S
Zn96 O114 1.953 . S
Zn97 O94 1.945 . S
Zn97 O99 1.932 . S
Zn97 O106 1.977 . S
Zn97 O107 1.910 . S
O98 Zn95 1.933 . S
O98 C109 1.226 . S
O99 Zn97 1.932 . S
O99 C109 1.307 . S
O100 Zn93 1.919 . S
O100 C111 1.253 . S
O101 Zn95 1.941 . S
O101 C111 1.283 . S
O102 Zn95 1.965 . S
O102 C110 1.303 . S
O103 Zn96 1.938 . S
O103 C110 1.247 . S
O104 Zn96 1.906 . S
O104 C112 1.304 . S
O105 Zn93 1.924 . S
O105 C113 1.311 . S
O106 Zn97 1.977 . S
O106 C112 1.272 . S
O107 Zn97 1.910 . S
O107 C113 1.231 . S
C108 O92 1.225 . S
C108 O114 1.298 . S
C109 O98 1.226 . S
C109 O99 1.307 . S
C110 O102 1.303 . S
C110 O103 1.247 . S
C111 O100 1.253 . S
C111 O101 1.283 . S
C112 O104 1.304 . S
C112 O106 1.272 . S
C113 O105 1.311 . S
C113 O107 1.231 . S
O114 Zn96 1.953 . S
O114 C108 1.298 . S
O115 Zn116 1.953 . S
O115 C131 1.225 . S
Zn116 O115 1.953 . S
Zn116 O117 1.949 . S
Zn116 O123 1.919 . S
Zn116 O128 1.924 . S
O117 Zn116 1.949 . S
O117 Zn118 1.923 . S
O117 Zn119 1.950 . S
O117 Zn120 1.945 . S
Zn118 O117 1.923 . S
Zn118 O121 1.933 . S
Zn118 O124 1.941 . S
Zn118 O125 1.965 . S
Zn119 O117 1.950 . S
Zn119 O126 1.938 . S
Zn119 O127 1.906 . S
Zn119 O137 1.953 . S
Zn120 O117 1.945 . S
Zn120 O122 1.932 . S
Zn120 O129 1.977 . S
Zn120 O130 1.910 . S
O121 Zn118 1.933 . S
O121 C132 1.226 . S
O122 Zn120 1.932 . S
O122 C132 1.307 . S
O123 Zn116 1.919 . S
O123 C134 1.253 . S
O124 Zn118 1.941 . S
O124 C134 1.283 . S
O125 Zn118 1.965 . S
O125 C133 1.303 . S
O126 Zn119 1.938 . S
O126 C133 1.247 . S
O127 Zn119 1.906 . S
O127 C135 1.304 . S
O128 Zn116 1.924 . S
O128 C136 1.311 . S
O129 Zn120 1.977 . S
O129 C135 1.272 . S
O130 Zn120 1.910 . S
O130 C136 1.231 . S
C131 O115 1.225 . S
C131 O137 1.298 . S
C132 O121 1.226 . S
C132 O122 1.307 . S
C133 O125 1.303 . S
C133 O126 1.247 . S
C134 O123 1.253 . S
C134 O124 1.283 . S
C135 O127 1.304 . S
C135 O129 1.272 . S
C136 O128 1.311 . S
C136 O130 1.231 . S
O137 Zn119 1.953 . S
O137 C131 1.298 . S
O138 Zn139 1.953 . S
O138 C154 1.225 . S
Zn139 O138 1.953 . S
Zn139 O140 1.949 . S
Zn139 O146 1.919 . S
Zn139 O151 1.924 . S
O140 Zn139 1.949 . S
O140 Zn141 1.923 . S
O140 Zn142 1.950 . S
O140 Zn143 1.945 . S
Zn141 O140 1.923 . S
Zn141 O144 1.933 . S
Zn141 O147 1.941 . S
Zn141 O148 1.965 . S
Zn142 O140 1.950 . S
Zn142 O149 1.938 . S
Zn142 O150 1.906 . S
Zn142 O160 1.953 . S
Zn143 O140 1.945 . S
Zn143 O145 1.932 . S
Zn143 O152 1.977 . S
Zn143 O153 1.910 . S
O144 Zn141 1.933 . S
O144 C155 1.226 . S
O145 Zn143 1.932 . S
O145 C155 1.307 . S
O146 Zn139 1.919 . S
O146 C157 1.253 . S
O147 Zn141 1.941 . S
O147 C157 1.283 . S
O148 Zn141 1.965 . S
O148 C156 1.303 . S
O149 Zn142 1.938 . S
O149 C156 1.247 . S
O150 Zn142 1.906 . S
O150 C158 1.304 . S
O151 Zn139 1.924 . S
O151 C159 1.311 . S
O152 Zn143 1.977 . S
O152 C158 1.272 . S
O153 Zn143 1.910 . S
O153 C159 1.231 . S
C154 O138 1.225 . S
C154 O160 1.298 . S
C155 O144 1.226 . S
C155 O145 1.307 . S
C156 O148 1.303 . S
C156 O149 1.247 . S
C157 O146 1.253 . S
C157 O147 1.283 . S
C158 O150 1.304 . S
C158 O152 1.272 . S
C159 O151 1.311 . S
C159 O153 1.231 . S
O160 Zn142 1.953 . S
O160 C154 1.298 . S
O161 Zn162 1.953 . S
O161 C177 1.225 . S
Zn162 O161 1.953 . S
Zn162 O163 1.949 . S
Zn162 O169 1.919 . S
Zn162 O174 1.924 . S
O163 Zn162 1.949 . S
O163 Zn164 1.923 . S
O163 Zn165 1.950 . S
O163 Zn166 1.945 . S
Zn164 O163 1.923 . S
Zn164 O167 1.933 . S
Zn164 O170 1.941 . S
Zn164 O171 1.965 . S
Zn165 O163 1.950 . S
Zn165 O172 1.938 . S
Zn165 O173 1.906 . S
Zn165 O183 1.953 . S
Zn166 O163 1.945 . S
Zn166 O168 1.932 . S
Zn166 O175 1.977 . S
Zn166 O176 1.910 . S
O167 Zn164 1.933 . S
O167 C178 1.226 . S
O168 Zn166 1.932 . S
O168 C178 1.307 . S
O169 Zn162 1.919 . S
O169 C180 1.253 . S
O170 Zn164 1.941 . S
O170 C180 1.283 . S
O171 Zn164 1.965 . S
O171 C179 1.303 . S
O172 Zn165 1.938 . S
O172 C179 1.247 . S
O173 Zn165 1.906 . S
O173 C181 1.304 . S
O174 Zn162 1.924 . S
O174 C182 1.311 . S
O175 Zn166 1.977 . S
O175 C181 1.272 . S
O176 Zn166 1.910 . S
O176 C182 1.231 . S
C177 O161 1.225 . S
C177 O183 1.298 . S
C178 O167 1.226 . S
C178 O168 1.307 . S
C179 O171 1.303 . S
C179 O172 1.247 . S
C180 O169 1.253 . S
C180 O170 1.283 . S
C181 O173 1.304 . S
C181 O175 1.272 . S
C182 O174 1.311 . S
C182 O176 1.231 . S
O183 Zn165 1.953 . S
O183 C177 1.298 . S
O184 Zn185 1.953 . S
O184 C200 1.225 . S
Zn185 O184 1.953 . S
Zn185 O186 1.949 . S
Zn185 O192 1.919 . S
Zn185 O197 1.924 . S
O186 Zn185 1.949 . S
O186 Zn187 1.923 . S
O186 Zn188 1.950 . S
O186 Zn189 1.945 . S
Zn187 O186 1.923 . S
Zn187 O190 1.933 . S
Zn187 O193 1.941 . S
Zn187 O194 1.965 . S
Zn188 O186 1.950 . S
Zn188 O195 1.938 . S
Zn188 O196 1.906 . S
Zn188 O206 1.953 . S
Zn189 O186 1.945 . S
Zn189 O191 1.932 . S
Zn189 O198 1.977 . S
Zn189 O199 1.910 . S
O190 Zn187 1.933 . S
O190 C201 1.226 . S
O191 Zn189 1.932 . S
O191 C201 1.307 . S
O192 Zn185 1.919 . S
O192 C203 1.253 . S
O193 Zn187 1.941 . S
O193 C203 1.283 . S
O194 Zn187 1.965 . S
O194 C202 1.303 . S
O195 Zn188 1.938 . S
O195 C202 1.247 . S
O196 Zn188 1.906 . S
O196 C204 1.304 . S
O197 Zn185 1.924 . S
O197 C205 1.311 . S
O198 Zn189 1.977 . S
O198 C204 1.272 . S
O199 Zn189 1.910 . S
O199 C205 1.231 . S
C200 O184 1.225 . S
C200 O206 1.298 . S
C201 O190 1.226 . S
C201 O191 1.307 . S
C202 O194 1.303 . S
C202 O195 1.247 . S
C203 O192 1.253 . S
C203 O193 1.283 . S
C204 O196 1.304 . S
C204 O198 1.272 . S
C205 O197 1.311 . S
C205 O199 1.231 . S
O206 Zn188 1.953 . S
O206 C200 1.298 . S
O207 Zn208 1.953 . S
O207 C223 1.225 . S
Zn208 O207 1.953 . S
Zn208 O209 1.949 . S
Zn208 O215 1.919 . S
Zn208 O220 1.924 . S
O209 Zn208 1.949 . S
O209 Zn210 1.923 . S
O209 Zn211 1.950 . S
O209 Zn212 1.945 . S
Zn210 O209 1.923 . S
Zn210 O213 1.933 . S
Zn210 O216 1.941 . S
Zn210 O217 1.965 . S
Zn211 O209 1.950 . S
Zn211 O218 1.938 . S
Zn211 O219 1.906 . S
Zn211 O229 1.953 . S
Zn212 O209 1.945 . S
Zn212 O214 1.932 . S
Zn212 O221 1.977 . S
Zn212 O222 1.910 . S
O213 Zn210 1.933 . S
O213 C224 1.226 . S
O214 Zn212 1.932 . S
O214 C224 1.307 . S
O215 Zn208 1.919 . S
O215 C226 1.253 . S
O216 Zn210 1.941 . S
O216 C226 1.283 . S
O217 Zn210 1.965 . S
O217 C225 1.303 . S
O218 Zn211 1.938 . S
O218 C225 1.247 . S
O219 Zn211 1.906 . S
O219 C227 1.304 . S
O220 Zn208 1.924 . S
O220 C228 1.311 . S
O221 Zn212 1.977 . S
O221 C227 1.272 . S
O222 Zn212 1.910 . S
O222 C228 1.231 . S
C223 O207 1.225 . S
C223 O229 1.298 . S
C224 O213 1.226 . S
C224 O214 1.307 . S
C225 O217 1.303 . S
C225 O218 1.247 . S
C226 O215 1.253 . S
C226 O216 1.283 . S
C227 O219 1.304 . S
C227 O221 1.272 . S
C228 O220 1.311 . S
C228 O222 1.231 . S
O229 Zn211 1.953 . S
O229 C223 1.298 . S
O230 Zn231 1.953 . S
O230 C246 1.225 . S
Zn231 O230 1.953 . S
Zn231 O232 1.949 . S
Zn231 O238 1.919 . S
Zn231 O243 1.924 . S
O232 Zn231 1.949 . S
O232 Zn233 1.923 . S
O232 Zn234 1.950 . S
O232 Zn235 1.945 . S
Zn233 O232 1.923 . S
Zn233 O236 1.933 . S
Zn233 O239 1.941 . S
Zn233 O240 1.965 . S
Zn234 O232 1.950 . S
Zn234 O241 1.938 . S
Zn234 O242 1.906 . S
Zn234 O252 1.953 . S
Zn235 O232 1.945 . S
Zn235 O237 1.932 . S
Zn235 O244 1.977 . S
Zn235 O245 1.910 . S
O236 Zn233 1.933 . S
O236 C247 1.226 . S
O237 Zn235 1.932 . S
O237 C247 1.307 . S
O238 Zn231 1.919 . S
O238 C249 1.253 . S
O239 Zn233 1.941 . S
O239 C249 1.283 . S
O240 Zn233 1.965 . S
O240 C248 1.303 . S
O241 Zn234 1.938 . S
O241 C248 1.247 . S
O242 Zn234 1.906 . S
O242 C250 1.304 . S
O243 Zn231 1.924 . S
O243 C251 1.311 . S
O244 Zn235 1.977 . S
O244 C250 1.272 . S
O245 Zn235 1.910 . S
O245 C251 1.231 . S
C246 O230 1.225 . S
C246 O252 1.298 . S
C247 O236 1.226 . S
C247 O237 1.307 . S
C248 O240 1.303 . S
C248 O241 1.247 . S
C249 O238 1.253 . S
C249 O239 1.283 . S
C250 O242 1.304 . S
C250 O244 1.272 . S
C251 O243 1.311 . S
C251 O245 1.231 . S
O252 Zn234 1.953 . S
O252 C246 1.298 . S
O253 Zn254 1.953 . S
O253 C269 1.225 . S
Zn254 O253 1.953 . S
Zn254 O255 1.949 . S
Zn254 O261 1.919 . S
Zn254 O266 1.924 . S
O255 Zn254 1.949 . S
O255 Zn256 1.923 . S
O255 Zn257 1.950 . S
O255 Zn258 1.945 . S
Zn256 O255 1.923 . S
Zn256 O259 1.933 . S
Zn256 O262 1.941 . S
Zn256 O263 1.965 . S
Zn257 O255 1.950 . S
Zn257 O264 1.938 . S
Zn257 O265 1.906 . S
Zn257 O275 1.953 . S
Zn258 O255 1.945 . S
Zn258 O260 1.932 . S
Zn258 O267 1.977 . S
Zn258 O268 1.910 . S
O259 Zn256 1.933 . S
O259 C270 1.226 . S
O260 Zn258 1.932 . S
O260 C270 1.307 . S
O261 Zn254 1.919 . S
O261 C272 1.253 . S
O262 Zn256 1.941 . S
O262 C272 1.283 . S
O263 Zn256 1.965 . S
O263 C271 1.303 . S
O264 Zn257 1.938 . S
O264 C271 1.247 . S
O265 Zn257 1.906 . S
O265 C273 1.304 . S
O266 Zn254 1.924 . S
O266 C274 1.311 . S
O267 Zn258 1.977 . S
O267 C273 1.272 . S
O268 Zn258 1.910 . S
O268 C274 1.231 . S
C269 O253 1.225 . S
C269 O275 1.298 . S
C270 O259 1.226 . S
C270 O260 1.307 . S
C271 O263 1.303 . S
C271 O264 1.247 . S
C272 O261 1.253 . S
C272 O262 1.283 . S
C273 O265 1.304 . S
C273 O267 1.272 . S
C274 O266 1.311 . S
C274 O268 1.231 . S
O275 Zn257 1.953 . S
O275 C269 1.298 . S
O276 Zn277 1.953 . S
O276 C292 1.225 . S
Zn277 O276 1.953 . S
Zn277 O278 1.949 . S
Zn277 O284 1.919 . S
Zn277 O289 1.924 . S
O278 Zn277 1.949 . S
O278 Zn279 1.923 . S
O278 Zn280 1.950 . S
O278 Zn281 1.945 . S
Zn279 O278 1.923 . S
Zn279 O282 1.933 . S
Zn279 O285 1.941 . S
Zn279 O286 1.965 . S
Zn280 O278 1.950 . S
Zn280 O287 1.938 . S
Zn280 O288 1.906 . S
Zn280 O298 1.953 . S
Zn281 O278 1.945 . S
Zn281 O283 1.932 . S
Zn281 O290 1.977 . S
Zn281 O291 1.910 . S
O282 Zn279 1.933 . S
O282 C293 1.226 . S
O283 Zn281 1.932 . S
O283 C293 1.307 . S
O284 Zn277 1.919 . S
O284 C295 1.253 . S
O285 Zn279 1.941 . S
O285 C295 1.283 . S
O286 Zn279 1.965 . S
O286 C294 1.303 . S
O287 Zn280 1.938 . S
O287 C294 1.247 . S
O288 Zn280 1.906 . S
O288 C296 1.304 . S
O289 Zn277 1.924 . S
O289 C297 1.311 . S
O290 Zn281 1.977 . S
O290 C296 1.272 . S
O291 Zn281 1.910 . S
O291 C297 1.231 . S
C292 O276 1.225 . S
C292 O298 1.298 . S
C293 O282 1.226 . S
C293 O283 1.307 . S
C294 O286 1.303 . S
C294 O287 1.247 . S
C295 O284 1.253 . S
C295 O285 1.283 . S
C296 O288 1.304 . S
C296 O290 1.272 . S
C297 O289 1.311 . S
C297 O291 1.231 . S
O298 Zn280 1.953 . S
O298 C292 1.298 . S
O299 Zn300 1.953 . S
O299 C315 1.225 . S
Zn300 O299 1.953 . S
Zn300 O301 1.949 . S
Zn300 O307 1.919 . S
Zn300 O312 1.924 . S
O301 Zn300 1.949 . S
O301 Zn302 1.923 . S
O301 Zn303 1.950 . S
O301 Zn304 1.945 . S
Zn302 O301 1.923 . S
Zn302 O305 1.933 . S
Zn302 O308 1.941 . S
Zn302 O309 1.965 . S
Zn303 O301 1.950 . S
Zn303 O310 1.938 . S
Zn303 O311 1.906 . S
Zn303 O321 1.953 . S
Zn304 O301 1.945 . S
Zn304 O306 1.932 . S
Zn304 O313 1.977 . S
Zn304 O314 1.910 . S
O305 Zn302 1.933 . S
O305 C316 1.226 . S
O306 Zn304 1.932 . S
O306 C316 1.307 . S
O307 Zn300 1.919 . S
O307 C318 1.253 . S
O308 Zn302 1.941 . S
O308 C318 1.283 . S
O309 Zn302 1.965 . S
O309 C317 1.303 . S
O310 Zn303 1.938 . S
O310 C317 1.247 . S
O311 Zn303 1.906 . S
O311 C319 1.304 . S
O312 Zn300 1.924 . S
O312 C320 1.311 . S
O313 Zn304 1.977 . S
O313 C319 1.272 . S
O314 Zn304 1.910 . S
O314 C320 1.231 . S
C315 O299 1.225 . S
C315 O321 1.298 . S
C316 O305 1.226 . S
C316 O306 1.307 . S
C317 O309 1.303 . S
C317 O310 1.247 . S
C318 O307 1.253 . S
C318 O308 1.283 . S
C319 O311 1.304 . S
C319 O313 1.272 . S
C320 O312 1.311 . S
C320 O314 1.231 . S
O321 Zn303 1.953 . S
O321 C315 1.298 . S
O322 Zn323 1.953 . S
O322 C338 1.225 . S
Zn323 O322 1.953 . S
Zn323 O324 1.949 . S
Zn323 O330 1.919 . S
Zn323 O335 1.924 . S
O324 Zn323 1.949 . S
O324 Zn325 1.923 . S
O324 Zn326 1.950 . S
O324 Zn327 1.945 . S
Zn325 O324 1.923 . S
Zn325 O328 1.933 . S
Zn325 O331 1.941 . S
Zn325 O332 1.965 . S
Zn326 O324 1.950 . S
Zn326 O333 1.938 . S
Zn326 O334 1.906 . S
Zn326 O344 1.953 . S
Zn327 O324 1.945 . S
Zn327 O329 1.932 . S
Zn327 O336 1.977 . S
Zn327 O337 1.910 . S
O328 Zn325 1.933 . S
O328 C339 1.226 . S
O329 Zn327 1.932 . S
O329 C339 1.307 . S
O330 Zn323 1.919 . S
O330 C341 1.253 . S
O331 Zn325 1.941 . S
O331 C341 1.283 . S
O332 Zn325 1.965 . S
O332 C340 1.303 . S
O333 Zn326 1.938 . S
O333 C340 1.247 . S
O334 Zn326 1.906 . S
O334 C342 1.304 . S
O335 Zn323 1.924 . S
O335 C343 1.311 . S
O336 Zn327 1.977 . S
O336 C342 1.272 . S
O337 Zn327 1.910 . S
O337 C343 1.231 . S
C338 O322 1.225 . S
C338 O344 1.298 . S
C339 O328 1.226 . S
C339 O329 1.307 . S
C340 O332 1.303 . S
C340 O333 1.247 . S
C341 O330 1.253 . S
C341 O331 1.283 . S
C342 O334 1.304 . S
C342 O336 1.272 . S
C343 O335 1.311 . S
C343 O337 1.231 . S
O344 Zn326 1.953 . S
O344 C338 1.298 . S
O345 Zn346 1.953 . S
O345 C361 1.225 . S
Zn346 O345 1.953 . S
Zn346 O347 1.949 . S
Zn346 O353 1.919 . S
Zn346 O358 1.924 . S
O347 Zn346 1.949 . S
O347 Zn348 1.923 . S
O347 Zn349 1.950 . S
O347 Zn350 1.945 . S
Zn348 O347 1.923 . S
Zn348 O351 1.933 . S
Zn348 O354 1.941 . S
Zn348 O355 1.965 . S
Zn349 O347 1.950 . S
Zn349 O356 1.938 . S
Zn349 O357 1.906 . S
Zn349 O367 1.953 . S
Zn350 O347 1.945 . S
Zn350 O352 1.932 . S
Zn350 O359 1.977 . S
Zn350 O360 1.910 . S
O351 Zn348 1.933 . S
O351 C362 1.226 . S
O352 Zn350 1.932 . S
O352 C362 1.307 . S
O353 Zn346 1.919 . S
O353 C364 1.253 . S
O354 Zn348 1.941 . S
O354 C364 1.283 . S
O355 Zn348 1.965 . S
O355 C363 1.303 . S
O356 Zn349 1.938 . S
O356 C363 1.247 . S
O357 Zn349 1.906 . S
O357 C365 1.304 . S
O358 Zn346 1.924 . S
O358 C366 1.311 . S
O359 Zn350 1.977 . S
O359 C365 1.272 . S
O360 Zn350 1.910 . S
O360 C366 1.231 . S
C361 O345 1.225 . S
C361 O367 1.298 . S
C362 O351 1.226 . S
C362 O352 1.307 . S
C363 O355 1.303 . S
C363 O356 1.247 . S
C364 O353 1.253 . S
C364 O354 1.283 . S
C365 O357 1.304 . S
C365 O359 1.272 . S
C366 O358 1.311 . S
C366 O360 1.231 . S
O367 Zn349 1.953 . S
O367 C361 1.298 . S
O368 Zn369 1.953 . S
O368 C384 1.225 . S
Zn369 O368 1.953 . S
Zn369 O370 1.949 . S
Zn369 O376 1.919 . S
Zn369 O381 1.924 . S
O370 Zn369 1.949 . S
O370 Zn371 1.923 . S
O370 Zn372 1.950 . S
O370 Zn373 1.945 . S
Zn371 O370 1.923 . S
Zn371 O374 1.933 . S
Zn371 O377 1.941 . S
Zn371 O378 1.965 . S
Zn372 O370 1.950 . S
Zn372 O379 1.938 . S
Zn372 O380 1.906 . S
Zn372 O390 1.953 . S
Zn373 O370 1.945 . S
Zn373 O375 1.932 . S
Zn373 O382 1.977 . S
Zn373 O383 1.910 . S
O374 Zn371 1.933 . S
O374 C385 1.226 . S
O375 Zn373 1.932 . S
O375 C385 1.307 . S
O376 Zn369 1.919 . S
O376 C387 1.253 . S
O377 Zn371 1.941 . S
O377 C387 1.283 . S
O378 Zn371 1.965 . S
O378 C386 1.303 . S
O379 Zn372 1.938 . S
O379 C386 1.247 . S
O380 Zn372 1.906 . S
O380 C388 1.304 . S
O381 Zn369 1.924 . S
O381 C389 1.311 . S
O382 Zn373 1.977 . S
O382 C388 1.272 . S
O383 Zn373 1.910 . S
O383 C389 1.231 . S
C384 O368 1.225 . S
C384 O390 1.298 . S
C385 O374 1.226 . S
C385 O375 1.307 . S
C386 O378 1.303 . S
C386 O379 1.247 . S
C387 O376 1.253 . S
C387 O377 1.283 . S
C388 O380 1.304 . S
C388 O382 1.272 . S
C389 O381 1.311 . S
C389 O383 1.231 . S
O390 Zn372 1.953 . S
O390 C384 1.298 . S
O391 Zn392 1.953 . S
O391 C407 1.225 . S
Zn392 O391 1.953 . S
Zn392 O393 1.949 . S
Zn392 O399 1.919 . S
Zn392 O404 1.924 . S
O393 Zn392 1.949 . S
O393 Zn394 1.923 . S
O393 Zn395 1.950 . S
O393 Zn396 1.945 . S
Zn394 O393 1.923 . S
Zn394 O397 1.933 . S
Zn394 O400 1.941 . S
Zn394 O401 1.965 . S
Zn395 O393 1.950 . S
Zn395 O402 1.938 . S
Zn395 O403 1.906 . S
Zn395 O413 1.953 . S
Zn396 O393 1.945 . S
Zn396 O398 1.932 . S
Zn396 O405 1.977 . S
Zn396 O406 1.910 . S
O397 Zn394 1.933 . S
O397 C408 1.226 . S
O398 Zn396 1.932 . S
O398 C408 1.307 . S
O399 Zn392 1.919 . S
O399 C410 1.253 . S
O400 Zn394 1.941 . S
O400 C410 1.283 . S
O401 Zn394 1.965 . S
O401 C409 1.303 . S
O402 Zn395 1.938 . S
O402 C409 1.247 . S
O403 Zn395 1.906 . S
O403 C411 1.304 . S
O404 Zn392 1.924 . S
O404 C412 1.311 . S
O405 Zn396 1.977 . S
O405 C411 1.272 . S
O406 Zn396 1.910 . S
O406 C412 1.231 . S
C407 O391 1.225 . S
C407 O413 1.298 . S
C408 O397 1.226 . S
C408 O398 1.307 . S
C409 O401 1.303 . S
C409 O402 1.247 . S
C410 O399 1.253 . S
C410 O400 1.283 . S
C411 O403 1.304 . S
C411 O405 1.272 . S
C412 O404 1.311 . S
C412 O406 1.231 . S
O413 Zn395 1.953 . S
O413 C407 1.298 . S
O414 Zn415 1.953 . S
O414 C430 1.225 . S
Zn415 O414 1.953 . S
Zn415 O416 1.949 . S
Zn415 O422 1.919 . S
Zn415 O427 1.924 . S
O416 Zn415 1.949 . S
O416 Zn417 1.923 . S
O416 Zn418 1.950 . S
O416 Zn419 1.945 . S
Zn417 O416 1.923 . S
Zn417 O420 1.933 . S
Zn417 O423 1.941 . S
Zn417 O424 1.965 . S
Zn418 O416 1.950 . S
Zn418 O425 1.938 . S
Zn418 O426 1.906 . S
Zn418 O436 1.953 . S
Zn419 O416 1.945 . S
Zn419 O421 1.932 . S
Zn419 O428 1.977 . S
Zn419 O429 1.910 . S
O420 Zn417 1.933 . S
O420 C431 1.226 . S
O421 Zn419 1.932 . S
O421 C431 1.307 . S
O422 Zn415 1.919 . S
O422 C433 1.253 . S
O423 Zn417 1.941 . S
O423 C433 1.283 . S
O424 Zn417 1.965 . S
O424 C432 1.303 . S
O425 Zn418 1.938 . S
O425 C432 1.247 . S
O426 Zn418 1.906 . S
O426 C434 1.304 . S
O427 Zn415 1.924 . S
O427 C435 1.311 . S
O428 Zn419 1.977 . S
O428 C434 1.272 . S
O429 Zn419 1.910 . S
O429 C435 1.231 . S
C430 O414 1.225 . S
C430 O436 1.298 . S
C431 O420 1.226 . S
C431 O421 1.307 . S
C432 O424 1.303 . S
C432 O425 1.247 . S
C433 O422 1.253 . S
C433 O423 1.283 . S
C434 O426 1.304 . S
C434 O428 1.272 . S
C435 O427 1.311 . S
C435 O429 1.231 . S
O436 Zn418 1.953 . S
O436 C430 1.298 . S
O437 Zn438 1.953 . S
O437 C453 1.225 . S
Zn438 O437 1.953 . S
Zn438 O439 1.949 . S
Zn438 O445 1.919 . S
Zn438 O450 1.924 . S
O439 Zn438 1.949 . S
O439 Zn440 1.923 . S
O439 Zn441 1.950 . S
O439 Zn442 1.945 . S
Zn440 O439 1.923 . S
Zn440 O443 1.933 . S
Zn440 O446 1.941 . S
Zn440 O447 1.965 . S
Zn441 O439 1.950 . S
Zn441 O448 1.938 . S
Zn441 O449 1.906 . S
Zn441 O459 1.953 . S
Zn442 O439 1.945 . S
Zn442 O444 1.932 . S
Zn442 O451 1.977 . S
Zn442 O452 1.910 . S
O443 Zn440 1.933 . S
O443 C454 1.226 . S
O444 Zn442 1.932 . S
O444 C454 1.307 . S
O445 Zn438 1.919 . S
O445 C456 1.253 . S
O446 Zn440 1.941 . S
O446 C456 1.283 . S
O447 Zn440 1.965 . S
O447 C455 1.303 . S
O448 Zn441 1.938 . S
O448 C455 1.247 . S
O449 Zn441 1.906 . S
O449 C457 1.304 . S
O450 Zn438 1.924 . S
O450 C458 1.311 . S
O451 Zn442 1.977 . S
O451 C457 1.272 . S
O452 Zn442 1.910 . S
O452 C458 1.231 . S
C453 O437 1.225 . S
C453 O459 1.298 . S
C454 O443 1.226 . S
C454 O444 1.307 . S
C455 O447 1.303 . S
C455 O448 1.247 . S
C456 O445 1.253 . S
C456 O446 1.283 . S
C457 O449 1.304 . S
C457 O451 1.272 . S
C458 O450 1.311 . S
C458 O452 1.231 . S
O459 Zn441 1.953 . S
O459 C453 1.298 . S
O460 Zn461 1.953 . S
O460 C476 1.225 . S
Zn461 O460 1.953 . S
Zn461 O462 1.949 . S
Zn461 O468 1.919 . S
Zn461 O473 1.924 . S
O462 Zn461 1.949 . S
O462 Zn463 1.923 . S
O462 Zn464 1.950 . S
O462 Zn465 1.945 . S
Zn463 O462 1.923 . S
Zn463 O466 1.933 . S
Zn463 O469 1.941 . S
Zn463 O470 1.965 . S
Zn464 O462 1.950 . S
Zn464 O471 1.938 . S
Zn464 O472 1.906 . S
Zn464 O482 1.953 . S
Zn465 O462 1.945 . S
Zn465 O467 1.932 . S
Zn465 O474 1.977 . S
Zn465 O475 1.910 . S
O466 Zn463 1.933 . S
O466 C477 1.226 . S
O467 Zn465 1.932 . S
O467 C477 1.307 . S
O468 Zn461 1.919 . S
O468 C479 1.253 . S
O469 Zn463 1.941 . S
O469 C479 1.283 . S
O470 Zn463 1.965 . S
O470 C478 1.303 . S
O471 Zn464 1.938 . S
O471 C478 1.247 . S
O472 Zn464 1.906 . S
O472 C480 1.304 . S
O473 Zn461 1.924 . S
O473 C481 1.311 . S
O474 Zn465 1.977 . S
O474 C480 1.272 . S
O475 Zn465 1.910 . S
O475 C481 1.231 . S
C476 O460 1.225 . S
C476 O482 1.298 . S
C477 O466 1.226 . S
C477 O467 1.307 . S
C478 O470 1.303 . S
C478 O471 1.247 . S
C479 O468 1.253 . S
C479 O469 1.283 . S
C480 O472 1.304 . S
C480 O474 1.272 . S
C481 O473 1.311 . S
C481 O475 1.231 . S
O482 Zn464 1.953 . S
O482 C476 1.298 . S
O483 Zn484 1.953 . S
O483 C499 1.225 . S
Zn484 O483 1.953 . S
Zn484 O485 1.949 . S
Zn484 O491 1.919 . S
Zn484 O496 1.924 . S
O485 Zn484 1.949 . S
O485 Zn486 1.923 . S
O485 Zn487 1.950 . S
O485 Zn488 1.945 . S
Zn486 O485 1.923 . S
Zn486 O489 1.933 . S
Zn486 O492 1.941 . S
Zn486 O493 1.965 . S
Zn487 O485 1.950 . S
Zn487 O494 1.938 . S
Zn487 O495 1.906 . S
Zn487 O505 1.953 . S
Zn488 O485 1.945 . S
Zn488 O490 1.932 . S
Zn488 O497 1.977 . S
Zn488 O498 1.910 . S
O489 Zn486 1.933 . S
O489 C500 1.226 . S
O490 Zn488 1.932 . S
O490 C500 1.307 . S
O491 Zn484 1.919 . S
O491 C502 1.253 . S
O492 Zn486 1.941 . S
O492 C502 1.283 . S
O493 Zn486 1.965 . S
O493 C501 1.303 . S
O494 Zn487 1.938 . S
O494 C501 1.247 . S
O495 Zn487 1.906 . S
O495 C503 1.304 . S
O496 Zn484 1.924 . S
O496 C504 1.311 . S
O497 Zn488 1.977 . S
O497 C503 1.272 . S
O498 Zn488 1.910 . S
O498 C504 1.231 . S
C499 O483 1.225 . S
C499 O505 1.298 . S
C500 O489 1.226 . S
C500 O490 1.307 . S
C501 O493 1.303 . S
C501 O494 1.247 . S
C502 O491 1.253 . S
C502 O492 1.283 . S
C503 O495 1.304 . S
C503 O497 1.272 . S
C504 O496 1.311 . S
C504 O498 1.231 . S
O505 Zn487 1.953 . S
O505 C499 1.298 . S
O506 Zn507 1.953 . S
O506 C522 1.225 . S
Zn507 O506 1.953 . S
Zn507 O508 1.949 . S
Zn507 O514 1.919 . S
Zn507 O519 1.924 . S
O508 Zn507 1.949 . S
O508 Zn509 1.923 . S
O508 Zn510 1.950 . S
O508 Zn511 1.945 . S
Zn509 O508 1.923 . S
Zn509 O512 1.933 . S
Zn509 O515 1.941 . S
Zn509 O516 1.965 . S
Zn510 O508 1.950 . S
Zn510 O517 1.938 . S
Zn510 O518 1.906 . S
Zn510 O528 1.953 . S
Zn511 O508 1.945 . S
Zn511 O513 1.932 . S
Zn511 O520 1.977 . S
Zn511 O521 1.910 . S
O512 Zn509 1.933 . S
O512 C523 1.226 . S
O513 Zn511 1.932 . S
O513 C523 1.307 . S
O514 Zn507 1.919 . S
O514 C525 1.253 . S
O515 Zn509 1.941 . S
O515 C525 1.283 . S
O516 Zn509 1.965 . S
O516 C524 1.303 . S
O517 Zn510 1.938 . S
O517 C524 1.247 . S
O518 Zn510 1.906 . S
O518 C526 1.304 . S
O519 Zn507 1.924 . S
O519 C527 1.311 . S
O520 Zn511 1.977 . S
O520 C526 1.272 . S
O521 Zn511 1.910 . S
O521 C527 1.231 . S
C522 O506 1.225 . S
C522 O528 1.298 . S
C523 O512 1.226 . S
C523 O513 1.307 . S
C524 O516 1.303 . S
C524 O517 1.247 . S
C525 O514 1.253 . S
C525 O515 1.283 . S
C526 O518 1.304 . S
C526 O520 1.272 . S
C527 O519 1.311 . S
C527 O521 1.231 . S
O528 Zn510 1.953 . S
O528 C522 1.298 . S
O529 Zn530 1.953 . S
O529 C545 1.225 . S
Zn530 O529 1.953 . S
Zn530 O531 1.949 . S
Zn530 O537 1.919 . S
Zn530 O542 1.924 . S
O531 Zn530 1.949 . S
O531 Zn532 1.923 . S
O531 Zn533 1.950 . S
O531 Zn534 1.945 . S
Zn532 O531 1.923 . S
Zn532 O535 1.933 . S
Zn532 O538 1.941 . S
Zn532 O539 1.965 . S
Zn533 O531 1.950 . S
Zn533 O540 1.938 . S
Zn533 O541 1.906 . S
Zn533 O551 1.953 . S
Zn534 O531 1.945 . S
Zn534 O536 1.932 . S
Zn534 O543 1.977 . S
Zn534 O544 1.910 . S
O535 Zn532 1.933 . S
O535 C546 1.226 . S
O536 Zn534 1.932 . S
O536 C546 1.307 . S
O537 Zn530 1.919 . S
O537 C548 1.253 . S
O538 Zn532 1.941 . S
O538 C548 1.283 . S
O539 Zn532 1.965 . S
O539 C547 1.303 . S
O540 Zn533 1.938 . S
O540 C547 1.247 . S
O541 Zn533 1.906 . S
O541 C549 1.304 . S
O542 Zn530 1.924 . S
O542 C550 1.311 . S
O543 Zn534 1.977 . S
O543 C549 1.272 . S
O544 Zn534 1.910 . S
O544 C550 1.231 . S
C545 O529 1.225 . S
C545 O551 1.298 . S
C546 O535 1.226 . S
C546 O536 1.307 . S
C547 O539 1.303 . S
C547 O540 1.247 . S
C548 O537 1.253 . S
C548 O538 1.283 . S
C549 O541 1.304 . S
C549 O543 1.272 . S
C550 O542 1.311 . S
C550 O544 1.231 . S
O551 Zn533 1.953 . S
O551 C545 1.298 . S
H552 C558 0.930 . S
H553 C561 0.930 . S
H554 C562 0.930 . S
H555 C563 0.930 . S
H556 C566 0.930 . S
H557 C567 0.930 . S
C558 H552 0.930 . S
C558 C559 1.355 . S
C558 C560 1.415 . S
C559 C558 1.355 . S
C559 C561 1.419 . S
C560 C558 1.415 . S
C560 C565 1.425 . S
C560 C567 1.409 . S
C561 H553 0.930 . S
C561 C559 1.419 . S
C561 C562 1.362 . S
C562 H554 0.930 . S
C562 C561 1.362 . S
C562 C565 1.409 . S
C563 H555 0.930 . S
C563 C564 1.355 . S
C563 C565 1.415 . S
C564 C563 1.355 . S
C564 C566 1.419 . S
C565 C560 1.425 . S
C565 C562 1.409 . S
C565 C563 1.415 . S
C566 H556 0.930 . S
C566 C564 1.419 . S
C566 C567 1.362 . S
C567 H557 0.930 . S
C567 C560 1.409 . S
C567 C566 1.362 . S
H568 C574 0.930 . S
H569 C577 0.930 . S
H570 C578 0.930 . S
H571 C579 0.930 . S
H572 C582 0.930 . S
H573 C583 0.930 . S
C574 H568 0.930 . S
C574 C575 1.355 . S
C574 C576 1.415 . S
C575 C574 1.355 . S
C575 C577 1.419 . S
C576 C574 1.415 . S
C576 C581 1.425 . S
C576 C583 1.409 . S
C577 H569 0.930 . S
C577 C575 1.419 . S
C577 C578 1.362 . S
C578 H570 0.930 . S
C578 C577 1.362 . S
C578 C581 1.409 . S
C579 H571 0.930 . S
C579 C580 1.355 . S
C579 C581 1.415 . S
C580 C579 1.355 . S
C580 C582 1.419 . S
C581 C576 1.425 . S
C581 C578 1.409 . S
C581 C579 1.415 . S
C582 H572 0.930 . S
C582 C580 1.419 . S
C582 C583 1.362 . S
C583 H573 0.930 . S
C583 C576 1.409 . S
C583 C582 1.362 . S
H584 C590 0.930 . S
H585 C593 0.930 . S
H586 C594 0.930 . S
H587 C595 0.930 . S
H588 C598 0.930 . S
H589 C599 0.930 . S
C590 H584 0.930 . S
C590 C591 1.355 . S
C590 C592 1.415 . S
C591 C590 1.355 . S
C591 C593 1.419 . S
C592 C590 1.415 . S
C592 C597 1.425 . S
C592 C599 1.409 . S
C593 H585 0.930 . S
C593 C591 1.419 . S
C593 C594 1.362 . S
C594 H586 0.930 . S
C594 C593 1.362 . S
C594 C597 1.409 . S
C595 H587 0.930 . S
C595 C596 1.355 . S
C595 C597 1.415 . S
C596 C595 1.355 . S
C596 C598 1.419 . S
C597 C592 1.425 . S
C597 C594 1.409 . S
C597 C595 1.415 . S
C598 H588 0.930 . S
C598 C596 1.419 . S
C598 C599 1.362 . S
C599 H589 0.930 . S
C599 C592 1.409 . S
C599 C598 1.362 . S
H600 C606 0.930 . S
H601 C609 0.930 . S
H602 C610 0.930 . S
H603 C611 0.930 . S
H604 C614 0.930 . S
H605 C615 0.930 . S
C606 H600 0.930 . S
C606 C607 1.355 . S
C606 C608 1.415 . S
C607 C606 1.355 . S
C607 C609 1.419 . S
C608 C606 1.415 . S
C608 C613 1.425 . S
C608 C615 1.409 . S
C609 H601 0.930 . S
C609 C607 1.419 . S
C609 C610 1.362 . S
C610 H602 0.930 . S
C610 C609 1.362 . S
C610 C613 1.409 . S
C611 H603 0.930 . S
C611 C612 1.355 . S
C611 C613 1.415 . S
C612 C611 1.355 . S
C612 C614 1.419 . S
C613 C608 1.425 . S
C613 C610 1.409 . S
C613 C611 1.415 . S
C614 H604 0.930 . S
C614 C612 1.419 . S
C614 C615 1.362 . S
C615 H605 0.930 . S
C615 C608 1.409 . S
C615 C614 1.362 . S
H616 C622 0.930 . S
H617 C625 0.930 . S
H618 C626 0.930 . S
H619 C627 0.930 . S
H620 C630 0.930 . S
H621 C631 0.930 . S
C622 H616 0.930 . S
C622 C623 1.355 . S
C622 C624 1.415 . S
C623 C622 1.355 . S
C623 C625 1.419 . S
C624 C622 1.415 . S
C624 C629 1.425 . S
C624 C631 1.409 . S
C625 H617 0.930 . S
C625 C623 1.419 . S
C625 C626 1.362 . S
C626 H618 0.930 . S
C626 C625 1.362 . S
C626 C629 1.409 . S
C627 H619 0.930 . S
C627 C628 1.355 . S
C627 C629 1.415 . S
C628 C627 1.355 . S
C628 C630 1.419 . S
C629 C624 1.425 . S
C629 C626 1.409 . S
C629 C627 1.415 . S
C630 H620 0.930 . S
C630 C628 1.419 . S
C630 C631 1.362 . S
C631 H621 0.930 . S
C631 C624 1.409 . S
C631 C630 1.362 . S
H632 C638 0.930 . S
H633 C641 0.930 . S
H634 C642 0.930 . S
H635 C643 0.930 . S
H636 C646 0.930 . S
H637 C647 0.930 . S
C638 H632 0.930 . S
C638 C639 1.355 . S
C638 C640 1.415 . S
C639 C638 1.355 . S
C639 C641 1.419 . S
C640 C638 1.415 . S
C640 C645 1.425 . S
C640 C647 1.409 . S
C641 H633 0.930 . S
C641 C639 1.419 . S
C641 C642 1.362 . S
C642 H634 0.930 . S
C642 C641 1.362 . S
C642 C645 1.409 . S
C643 H635 0.930 . S
C643 C644 1.355 . S
C643 C645 1.415 . S
C644 C643 1.355 . S
C644 C646 1.419 . S
C645 C640 1.425 . S
C645 C642 1.409 . S
C645 C643 1.415 . S
C646 H636 0.930 . S
C646 C644 1.419 . S
C646 C647 1.362 . S
C647 H637 0.930 . S
C647 C640 1.409 . S
C647 C646 1.362 . S
H648 C654 0.930 . S
H649 C657 0.930 . S
H650 C658 0.930 . S
H651 C659 0.930 . S
H652 C662 0.930 . S
H653 C663 0.930 . S
C654 H648 0.930 . S
C654 C655 1.355 . S
C654 C656 1.415 . S
C655 C654 1.355 . S
C655 C657 1.419 . S
C656 C654 1.415 . S
C656 C661 1.425 . S
C656 C663 1.409 . S
C657 H649 0.930 . S
C657 C655 1.419 . S
C657 C658 1.362 . S
C658 H650 0.930 . S
C658 C657 1.362 . S
C658 C661 1.409 . S
C659 H651 0.930 . S
C659 C660 1.355 . S
C659 C661 1.415 . S
C660 C659 1.355 . S
C660 C662 1.419 . S
C661 C656 1.425 . S
C661 C658 1.409 . S
C661 C659 1.415 . S
C662 H652 0.930 . S
C662 C660 1.419 . S
C662 C663 1.362 . S
C663 H653 0.930 . S
C663 C656 1.409 . S
C663 C662 1.362 . S
H664 C670 0.930 . S
H665 C673 0.930 . S
H666 C674 0.930 . S
H667 C675 0.930 . S
H668 C678 0.930 . S
H669 C679 0.930 . S
C670 H664 0.930 . S
C670 C671 1.355 . S
C670 C672 1.415 . S
C671 C670 1.355 . S
C671 C673 1.419 . S
C672 C670 1.415 . S
C672 C677 1.425 . S
C672 C679 1.409 . S
C673 H665 0.930 . S
C673 C671 1.419 . S
C673 C674 1.362 . S
C674 H666 0.930 . S
C674 C673 1.362 . S
C674 C677 1.409 . S
C675 H667 0.930 . S
C675 C676 1.355 . S
C675 C677 1.415 . S
C676 C675 1.355 . S
C676 C678 1.419 . S
C677 C672 1.425 . S
C677 C674 1.409 . S
C677 C675 1.415 . S
C678 H668 0.930 . S
C678 C676 1.419 . S
C678 C679 1.362 . S
C679 H669 0.930 . S
C679 C672 1.409 . S
C679 C678 1.362 . S
H680 C686 0.930 . S
H681 C689 0.930 . S
H682 C690 0.930 . S
H683 C691 0.930 . S
H684 C694 0.930 . S
H685 C695 0.930 . S
C686 H680 0.930 . S
C686 C687 1.355 . S
C686 C688 1.415 . S
C687 C686 1.355 . S
C687 C689 1.419 . S
C688 C686 1.415 . S
C688 C693 1.425 . S
C688 C695 1.409 . S
C689 H681 0.930 . S
C689 C687 1.419 . S
C689 C690 1.362 . S
C690 H682 0.930 . S
C690 C689 1.362 . S
C690 C693 1.409 . S
C691 H683 0.930 . S
C691 C692 1.355 . S
C691 C693 1.415 . S
C692 C691 1.355 . S
C692 C694 1.419 . S
C693 C688 1.425 . S
C693 C690 1.409 . S
C693 C691 1.415 . S
C694 H684 0.930 . S
C694 C692 1.419 . S
C694 C695 1.362 . S
C695 H685 0.930 . S
C695 C688 1.409 . S
C695 C694 1.362 . S
H696 C702 0.930 . S
H697 C705 0.930 . S
H698 C706 0.930 . S
H699 C707 0.930 . S
H700 C710 0.930 . S
H701 C711 0.930 . S
C702 H696 0.930 . S
C702 C703 1.355 . S
C702 C704 1.415 . S
C703 C702 1.355 . S
C703 C705 1.419 . S
C704 C702 1.415 . S
C704 C709 1.425 . S
C704 C711 1.409 . S
C705 H697 0.930 . S
C705 C703 1.419 . S
C705 C706 1.362 . S
C706 H698 0.930 . S
C706 C705 1.362 . S
C706 C709 1.409 . S
C707 H699 0.930 . S
C707 C708 1.355 . S
C707 C709 1.415 . S
C708 C707 1.355 . S
C708 C710 1.419 . S
C709 C704 1.425 . S
C709 C706 1.409 . S
C709 C707 1.415 . S
C710 H700 0.930 . S
C710 C708 1.419 . S
C710 C711 1.362 . S
C711 H701 0.930 . S
C711 C704 1.409 . S
C711 C710 1.362 . S
H712 C718 0.930 . S
H713 C721 0.930 . S
H714 C722 0.930 . S
H715 C723 0.930 . S
H716 C726 0.930 . S
H717 C727 0.930 . S
C718 H712 0.930 . S
C718 C719 1.355 . S
C718 C720 1.415 . S
C719 C718 1.355 . S
C719 C721 1.419 . S
C720 C718 1.415 . S
C720 C725 1.425 . S
C720 C727 1.409 . S
C721 H713 0.930 . S
C721 C719 1.419 . S
C721 C722 1.362 . S
C722 H714 0.930 . S
C722 C721 1.362 . S
C722 C725 1.409 . S
C723 H715 0.930 . S
C723 C724 1.355 . S
C723 C725 1.415 . S
C724 C723 1.355 . S
C724 C726 1.419 . S
C725 C720 1.425 . S
C725 C722 1.409 . S
C725 C723 1.415 . S
C726 H716 0.930 . S
C726 C724 1.419 . S
C726 C727 1.362 . S
C727 H717 0.930 . S
C727 C720 1.409 . S
C727 C726 1.362 . S
H728 C734 0.930 . S
H729 C737 0.930 . S
H730 C738 0.930 . S
H731 C739 0.930 . S
H732 C742 0.930 . S
H733 C743 0.930 . S
C734 H728 0.930 . S
C734 C735 1.355 . S
C734 C736 1.415 . S
C735 C734 1.355 . S
C735 C737 1.419 . S
C736 C734 1.415 . S
C736 C741 1.425 . S
C736 C743 1.409 . S
C737 H729 0.930 . S
C737 C735 1.419 . S
C737 C738 1.362 . S
C738 H730 0.930 . S
C738 C737 1.362 . S
C738 C741 1.409 . S
C739 H731 0.930 . S
C739 C740 1.355 . S
C739 C741 1.415 . S
C740 C739 1.355 . S
C740 C742 1.419 . S
C741 C736 1.425 . S
C741 C738 1.409 . S
C741 C739 1.415 . S
C742 H732 0.930 . S
C742 C740 1.419 . S
C742 C743 1.362 . S
C743 H733 0.930 . S
C743 C736 1.409 . S
C743 C742 1.362 . S
H744 C750 0.930 . S
H745 C753 0.930 . S
H746 C754 0.930 . S
H747 C755 0.930 . S
H748 C758 0.930 . S
H749 C759 0.930 . S
C750 H744 0.930 . S
C750 C751 1.355 . S
C750 C752 1.415 1_545 S
C751 C750 1.355 . S
C751 C753 1.419 . S
C752 C750 1.415 1_565 S
C752 C757 1.425 1_565 S
C752 C759 1.409 . S
C753 H745 0.930 . S
C753 C751 1.419 . S
C753 C754 1.362 . S
C754 H746 0.930 . S
C754 C753 1.362 . S
C754 C757 1.409 . S
C755 H747 0.930 . S
C755 C756 1.355 . S
C755 C757 1.415 1_565 S
C756 C755 1.355 . S
C756 C758 1.419 . S
C757 C752 1.425 1_545 S
C757 C754 1.409 . S
C757 C755 1.415 1_545 S
C758 H748 0.930 . S
C758 C756 1.419 . S
C758 C759 1.362 . S
C759 H749 0.930 . S
C759 C752 1.409 . S
C759 C758 1.362 . S
H760 C766 0.930 . S
H761 C769 0.930 . S
H762 C770 0.930 . S
H763 C771 0.930 . S
H764 C774 0.930 . S
H765 C775 0.930 . S
C766 H760 0.930 . S
C766 C767 1.355 . S
C766 C768 1.415 . S
C767 C766 1.355 . S
C767 C769 1.419 . S
C768 C766 1.415 . S
C768 C773 1.425 . S
C768 C775 1.409 . S
C769 H761 0.930 . S
C769 C767 1.419 . S
C769 C770 1.362 . S
C770 H762 0.930 . S
C770 C769 1.362 . S
C770 C773 1.409 . S
C771 H763 0.930 . S
C771 C772 1.355 . S
C771 C773 1.415 . S
C772 C771 1.355 . S
C772 C774 1.419 . S
C773 C768 1.425 . S
C773 C770 1.409 . S
C773 C771 1.415 . S
C774 H764 0.930 . S
C774 C772 1.419 . S
C774 C775 1.362 . S
C775 H765 0.930 . S
C775 C768 1.409 . S
C775 C774 1.362 . S
H776 C782 0.930 . S
H777 C785 0.930 . S
H778 C786 0.930 . S
H779 C787 0.930 . S
H780 C790 0.930 . S
H781 C791 0.930 . S
C782 H776 0.930 . S
C782 C783 1.355 . S
C782 C784 1.417 . S
C783 C782 1.355 . S
C783 C785 1.419 . S
C784 C782 1.417 . S
C784 C789 1.432 1_655 S
C784 C791 1.404 1_655 S
C785 H777 0.930 . S
C785 C783 1.419 . S
C785 C786 1.362 . S
C786 H778 0.930 . S
C786 C785 1.362 . S
C786 C789 1.404 1_655 S
C787 H779 0.930 . S
C787 C788 1.355 . S
C787 C789 1.417 . S
C788 C787 1.355 . S
C788 C790 1.419 . S
C789 C784 1.432 1_455 S
C789 C786 1.404 1_455 S
C789 C787 1.417 . S
C790 H780 0.930 . S
C790 C788 1.419 . S
C790 C791 1.362 . S
C791 H781 0.930 . S
C791 C784 1.404 1_455 S
C791 C790 1.362 . S
H792 C798 0.930 . S
H793 C801 0.930 . S
H794 C802 0.930 . S
H795 C803 0.930 . S
H796 C806 0.930 . S
H797 C807 0.930 . S
C798 H792 0.930 . S
C798 C799 1.355 . S
C798 C800 1.415 . S
C799 C798 1.355 . S
C799 C801 1.419 . S
C800 C798 1.415 . S
C800 C805 1.425 1_655 S
C800 C807 1.409 . S
C801 H793 0.930 . S
C801 C799 1.419 . S
C801 C802 1.362 1_655 S
C802 H794 0.930 . S
C802 C801 1.362 1_455 S
C802 C805 1.409 . S
C803 H795 0.930 . S
C803 C804 1.355 . S
C803 C805 1.415 . S
C804 C803 1.355 . S
C804 C806 1.419 . S
C805 C800 1.425 1_455 S
C805 C802 1.409 . S
C805 C803 1.415 . S
C806 H796 0.930 . S
C806 C804 1.419 . S
C806 C807 1.362 1_455 S
C807 H797 0.930 . S
C807 C800 1.409 . S
C807 C806 1.362 1_655 S
H808 C814 0.930 . S
H809 C817 0.930 . S
H810 C818 0.930 . S
H811 C819 0.930 . S
H812 C822 0.930 . S
H813 C823 0.930 . S
C814 H808 0.930 . S
C814 C815 1.355 . S
C814 C816 1.415 . S
C815 C814 1.355 . S
C815 C817 1.419 . S
C816 C814 1.415 . S
C816 C821 1.425 1_565 S
C816 C823 1.409 . S
C817 H809 0.930 . S
C817 C815 1.419 . S
C817 C818 1.362 1_565 S
C818 H810 0.930 . S
C818 C817 1.362 1_545 S
C818 C821 1.409 . S
C819 H811 0.930 . S
C819 C820 1.355 . S
C819 C821 1.415 . S
C820 C819 1.355 . S
C820 C822 1.419 . S
C821 C816 1.425 1_545 S
C821 C818 1.409 . S
C821 C819 1.415 . S
C822 H812 0.930 . S
C822 C820 1.419 . S
C822 C823 1.362 1_545 S
C823 H813 0.930 . S
C823 C816 1.409 . S
C823 C822 1.362 1_565 S
H824 C830 0.930 . S
H825 C833 0.930 . S
H826 C834 0.930 . S
H827 C835 0.930 . S
H828 C838 0.930 . S
H829 C839 0.930 . S
C830 H824 0.930 . S
C830 C831 1.355 . S
C830 C832 1.415 . S
C831 C830 1.355 . S
C831 C833 1.419 . S
C832 C830 1.415 . S
C832 C837 1.425 . S
C832 C839 1.409 . S
C833 H825 0.930 . S
C833 C831 1.419 . S
C833 C834 1.362 . S
C834 H826 0.930 . S
C834 C833 1.362 . S
C834 C837 1.409 . S
C835 H827 0.930 . S
C835 C836 1.355 . S
C835 C837 1.415 . S
C836 C835 1.355 . S
C836 C838 1.419 . S
C837 C832 1.425 . S
C837 C834 1.409 . S
C837 C835 1.415 . S
C838 H828 0.930 . S
C838 C836 1.419 . S
C838 C839 1.362 . S
C839 H829 0.930 . S
C839 C832 1.409 . S
C839 C838 1.362 . S
H840 C846 0.930 . S
H841 C849 0.930 . S
H842 C850 0.930 . S
H843 C851 0.930 . S
H844 C854 0.930 . S
H845 C855 0.930 . S
C846 H840 0.930 . S
C846 C847 1.355 . S
C846 C848 1.415 1_545 S
C847 C846 1.355 . S
C847 C849 1.419 . S
C848 C846 1.415 1_565 S
C848 C853 1.425 1_565 S
C848 C855 1.409 . S
C849 H841 0.930 . S
C849 C847 1.419 . S
C849 C850 1.362 . S
C850 H842 0.930 . S
C850 C849 1.362 . S
C850 C853 1.409 . S
C851 H843 0.930 . S
C851 C852 1.355 . S
C851 C853 1.415 1_565 S
C852 C851 1.355 . S
C852 C854 1.419 . S
C853 C848 1.425 1_545 S
C853 C850 1.409 . S
C853 C851 1.415 1_545 S
C854 H844 0.930 . S
C854 C852 1.419 . S
C854 C855 1.362 . S
C855 H845 0.930 . S
C855 C848 1.409 . S
C855 C854 1.362 . S
H856 C862 0.930 . S
H857 C865 0.930 . S
H858 C866 0.930 . S
H859 C867 0.930 . S
H860 C870 0.930 . S
H861 C871 0.930 . S
C862 H856 0.930 . S
C862 C863 1.355 . S
C862 C864 1.415 . S
C863 C862 1.355 . S
C863 C865 1.419 . S
C864 C862 1.415 . S
C864 C869 1.425 . S
C864 C871 1.409 . S
C865 H857 0.930 . S
C865 C863 1.419 . S
C865 C866 1.362 . S
C866 H858 0.930 . S
C866 C865 1.362 . S
C866 C869 1.409 . S
C867 H859 0.930 . S
C867 C868 1.355 . S
C867 C869 1.415 . S
C868 C867 1.355 . S
C868 C870 1.419 . S
C869 C864 1.425 . S
C869 C866 1.409 . S
C869 C867 1.415 . S
C870 H860 0.930 . S
C870 C868 1.419 . S
C870 C871 1.362 . S
C871 H861 0.930 . S
C871 C864 1.409 . S
C871 C870 1.362 . S
H872 C878 0.930 . S
H873 C881 0.930 . S
H874 C882 0.930 . S
H875 C883 0.930 . S
H876 C886 0.930 . S
H877 C887 0.930 . S
C878 H872 0.930 . S
C878 C879 1.355 . S
C878 C880 1.415 . S
C879 C878 1.355 . S
C879 C881 1.419 . S
C880 C878 1.415 . S
C880 C885 1.425 1_655 S
C880 C887 1.409 . S
C881 H873 0.930 . S
C881 C879 1.419 . S
C881 C882 1.362 1_655 S
C882 H874 0.930 . S
C882 C881 1.362 1_455 S
C882 C885 1.409 . S
C883 H875 0.930 . S
C883 C884 1.355 . S
C883 C885 1.415 . S
C884 C883 1.355 . S
C884 C886 1.419 . S
C885 C880 1.425 1_455 S
C885 C882 1.409 . S
C885 C883 1.415 . S
C886 H876 0.930 . S
C886 C884 1.419 . S
C886 C887 1.362 1_455 S
C887 H877 0.930 . S
C887 C880 1.409 . S
C887 C886 1.362 1_655 S
H888 C894 0.930 . S
H889 C897 0.930 . S
H890 C898 0.930 . S
H891 C899 0.930 . S
H892 C902 0.930 . S
H893 C903 0.930 . S
C894 H888 0.930 . S
C894 C895 1.355 . S
C894 C896 1.415 . S
C895 C894 1.355 . S
C895 C897 1.419 . S
C896 C894 1.415 . S
C896 C901 1.425 1_455 S
C896 C903 1.409 . S
C897 H889 0.930 . S
C897 C895 1.419 . S
C897 C898 1.362 1_455 S
C898 H890 0.930 . S
C898 C897 1.362 1_655 S
C898 C901 1.409 . S
C899 H891 0.930 . S
C899 C900 1.355 . S
C899 C901 1.415 . S
C900 C899 1.355 . S
C900 C902 1.419 . S
C901 C896 1.425 1_655 S
C901 C898 1.409 . S
C901 C899 1.415 . S
C902 H892 0.930 . S
C902 C900 1.419 . S
C902 C903 1.362 1_655 S
C903 H893 0.930 . S
C903 C896 1.409 . S
C903 C902 1.362 1_455 S
H904 C910 0.930 . S
H905 C913 0.930 . S
H906 C914 0.930 . S
H907 C915 0.930 . S
H908 C918 0.930 . S
H909 C919 0.930 . S
C910 H904 0.930 . S
C910 C911 1.355 . S
C910 C912 1.415 . S
C911 C910 1.355 . S
C911 C913 1.419 . S
C912 C910 1.415 . S
C912 C917 1.425 1_545 S
C912 C919 1.409 . S
C913 H905 0.930 . S
C913 C911 1.419 . S
C913 C914 1.362 1_545 S
C914 H906 0.930 . S
C914 C913 1.362 1_565 S
C914 C917 1.409 . S
C915 H907 0.930 . S
C915 C916 1.355 . S
C915 C917 1.415 . S
C916 C915 1.355 . S
C916 C918 1.419 . S
C917 C912 1.425 1_565 S
C917 C914 1.409 . S
C917 C915 1.415 . S
C918 H908 0.930 . S
C918 C916 1.419 . S
C918 C919 1.362 1_565 S
C919 H909 0.930 . S
C919 C912 1.409 . S
C919 C918 1.362 1_545 S
H920 C926 0.930 . S
H921 C929 0.930 . S
H922 C930 0.930 . S
H923 C931 0.930 . S
H924 C934 0.930 . S
H925 C935 0.930 . S
C926 H920 0.930 . S
C926 C927 1.355 . S
C926 C928 1.415 . S
C927 C926 1.355 . S
C927 C929 1.419 . S
C928 C926 1.415 . S
C928 C933 1.425 . S
C928 C935 1.409 . S
C929 H921 0.930 . S
C929 C927 1.419 . S
C929 C930 1.362 . S
C930 H922 0.930 . S
C930 C929 1.362 . S
C930 C933 1.409 . S
C931 H923 0.930 . S
C931 C932 1.355 . S
C931 C933 1.415 . S
C932 C931 1.355 . S
C932 C934 1.419 . S
C933 C928 1.425 . S
C933 C930 1.409 . S
C933 C931 1.415 . S
C934 H924 0.930 . S
C934 C932 1.419 . S
C934 C935 1.362 . S
C935 H925 0.930 . S
C935 C928 1.409 . S
C935 C934 1.362 . S
H936 C942 0.930 . S
H937 C945 0.930 . S
H938 C946 0.930 . S
H939 C947 0.930 . S
H940 C950 0.930 . S
H941 C951 0.930 . S
C942 H936 0.930 . S
C942 C943 1.355 . S
C942 C944 1.415 . S
C943 C942 1.355 . S
C943 C945 1.419 . S
C944 C942 1.415 . S
C944 C949 1.425 . S
C944 C951 1.409 . S
C945 H937 0.930 . S
C945 C943 1.419 . S
C945 C946 1.362 . S
C946 H938 0.930 . S
C946 C945 1.362 . S
C946 C949 1.409 . S
C947 H939 0.930 . S
C947 C948 1.355 . S
C947 C949 1.415 . S
C948 C947 1.355 . S
C948 C950 1.419 . S
C949 C944 1.425 . S
C949 C946 1.409 . S
C949 C947 1.415 . S
C950 H940 0.930 . S
C950 C948 1.419 . S
C950 C951 1.362 . S
C951 H941 0.930 . S
C951 C944 1.409 . S
C951 C950 1.362 . S
H952 C958 0.930 . S
H953 C961 0.930 . S
H954 C962 0.930 . S
H955 C963 0.930 . S
H956 C966 0.930 . S
H957 C967 0.930 . S
C958 H952 0.930 . S
C958 C959 1.355 . S
C958 C960 1.415 . S
C959 C958 1.355 . S
C959 C961 1.419 . S
C960 C958 1.415 . S
C960 C965 1.425 . S
C960 C967 1.409 . S
C961 H953 0.930 . S
C961 C959 1.419 . S
C961 C962 1.362 . S
C962 H954 0.930 . S
C962 C961 1.362 . S
C962 C965 1.409 . S
C963 H955 0.930 . S
C963 C964 1.355 . S
C963 C965 1.415 . S
C964 C963 1.355 . S
C964 C966 1.419 . S
C965 C960 1.425 . S
C965 C962 1.409 . S
C965 C963 1.415 . S
C966 H956 0.930 . S
C966 C964 1.419 . S
C966 C967 1.362 . S
C967 H957 0.930 . S
C967 C960 1.409 . S
C967 C966 1.362 . S
H968 C974 0.930 . S
H969 C977 0.930 . S
H970 C978 0.930 . S
H971 C979 0.930 . S
H972 C982 0.930 . S
H973 C983 0.930 . S
C974 H968 0.930 . S
C974 C975 1.355 . S
C974 C976 1.415 . S
C975 C974 1.355 . S
C975 C977 1.419 . S
C976 C974 1.415 . S
C976 C981 1.425 . S
C976 C983 1.409 . S
C977 H969 0.930 . S
C977 C975 1.419 . S
C977 C978 1.362 . S
C978 H970 0.930 . S
C978 C977 1.362 . S
C978 C981 1.409 . S
C979 H971 0.930 . S
C979 C980 1.355 . S
C979 C981 1.415 . S
C980 C979 1.355 . S
C980 C982 1.419 . S
C981 C976 1.425 . S
C981 C978 1.409 . S
C981 C979 1.415 . S
C982 H972 0.930 . S
C982 C980 1.419 . S
C982 C983 1.362 . S
C983 H973 0.930 . S
C983 C976 1.409 . S
C983 C982 1.362 . S
H984 C990 0.930 . S
H985 C993 0.930 . S
H986 C994 0.930 . S
H987 C995 0.930 . S
H988 C998 0.930 . S
H989 C999 0.930 . S
C990 H984 0.930 . S
C990 C991 1.355 . S
C990 C992 1.415 . S
C991 C990 1.355 . S
C991 C993 1.419 . S
C992 C990 1.415 . S
C992 C997 1.425 . S
C992 C999 1.409 . S
C993 H985 0.930 . S
C993 C991 1.419 . S
C993 C994 1.362 . S
C994 H986 0.930 . S
C994 C993 1.362 . S
C994 C997 1.409 . S
C995 H987 0.930 . S
C995 C996 1.355 . S
C995 C997 1.415 . S
C996 C995 1.355 . S
C996 C998 1.419 . S
C997 C992 1.425 . S
C997 C994 1.409 . S
C997 C995 1.415 . S
C998 H988 0.930 . S
C998 C996 1.419 . S
C998 C999 1.362 . S
C999 H989 0.930 . S
C999 C992 1.409 . S
C999 C998 1.362 . S
H1000 C1006 0.930 . S
H1001 C1009 0.930 . S
H1002 C1010 0.930 . S
H1003 C1011 0.930 . S
H1004 C1014 0.930 . S
H1005 C1015 0.930 . S
C1006 H1000 0.930 . S
C1006 C1007 1.355 . S
C1006 C1008 1.415 . S
C1007 C1006 1.355 . S
C1007 C1009 1.419 . S
C1008 C1006 1.415 . S
C1008 C1013 1.425 . S
C1008 C1015 1.409 . S
C1009 H1001 0.930 . S
C1009 C1007 1.419 . S
C1009 C1010 1.362 . S
C1010 H1002 0.930 . S
C1010 C1009 1.362 . S
C1010 C1013 1.409 . S
C1011 H1003 0.930 . S
C1011 C1012 1.355 . S
C1011 C1013 1.415 . S
C1012 C1011 1.355 . S
C1012 C1014 1.419 . S
C1013 C1008 1.425 . S
C1013 C1010 1.409 . S
C1013 C1011 1.415 . S
C1014 H1004 0.930 . S
C1014 C1012 1.419 . S
C1014 C1015 1.362 . S
C1015 H1005 0.930 . S
C1015 C1008 1.409 . S
C1015 C1014 1.362 . S
H1016 C1022 0.930 . S
H1017 C1025 0.930 . S
H1018 C1026 0.930 . S
H1019 C1027 0.930 . S
H1020 C1030 0.930 . S
H1021 C1031 0.930 . S
C1022 H1016 0.930 . S
C1022 C1023 1.355 . S
C1022 C1024 1.415 . S
C1023 C1022 1.355 . S
C1023 C1025 1.419 . S
C1024 C1022 1.415 . S
C1024 C1029 1.425 . S
C1024 C1031 1.409 . S
C1025 H1017 0.930 . S
C1025 C1023 1.419 . S
C1025 C1026 1.362 . S
C1026 H1018 0.930 . S
C1026 C1025 1.362 . S
C1026 C1029 1.409 . S
C1027 H1019 0.930 . S
C1027 C1028 1.355 . S
C1027 C1029 1.415 . S
C1028 C1027 1.355 . S
C1028 C1030 1.419 . S
C1029 C1024 1.425 . S
C1029 C1026 1.409 . S
C1029 C1027 1.415 . S
C1030 H1020 0.930 . S
C1030 C1028 1.419 . S
C1030 C1031 1.362 . S
C1031 H1021 0.930 . S
C1031 C1024 1.409 . S
C1031 C1030 1.362 . S
H1032 C1038 0.930 . S
H1033 C1041 0.930 . S
H1034 C1042 0.930 . S
H1035 C1043 0.930 . S
H1036 C1046 0.930 . S
H1037 C1047 0.930 . S
C1038 H1032 0.930 . S
C1038 C1039 1.355 . S
C1038 C1040 1.415 . S
C1039 C1038 1.355 . S
C1039 C1041 1.419 . S
C1040 C1038 1.415 . S
C1040 C1045 1.425 . S
C1040 C1047 1.409 . S
C1041 H1033 0.930 . S
C1041 C1039 1.419 . S
C1041 C1042 1.362 . S
C1042 H1034 0.930 . S
C1042 C1041 1.362 . S
C1042 C1045 1.409 . S
C1043 H1035 0.930 . S
C1043 C1044 1.355 . S
C1043 C1045 1.415 . S
C1044 C1043 1.355 . S
C1044 C1046 1.419 . S
C1045 C1040 1.425 . S
C1045 C1042 1.409 . S
C1045 C1043 1.415 . S
C1046 H1036 0.930 . S
C1046 C1044 1.419 . S
C1046 C1047 1.362 . S
C1047 H1037 0.930 . S
C1047 C1040 1.409 . S
C1047 C1046 1.362 . S
H1048 C1054 0.930 . S
H1049 C1057 0.930 . S
H1050 C1058 0.930 . S
H1051 C1059 0.930 . S
H1052 C1062 0.930 . S
H1053 C1063 0.930 . S
C1054 H1048 0.930 . S
C1054 C1055 1.355 . S
C1054 C1056 1.415 . S
C1055 C1054 1.355 . S
C1055 C1057 1.419 . S
C1056 C1054 1.415 . S
C1056 C1061 1.425 . S
C1056 C1063 1.409 . S
C1057 H1049 0.930 . S
C1057 C1055 1.419 . S
C1057 C1058 1.362 . S
C1058 H1050 0.930 . S
C1058 C1057 1.362 . S
C1058 C1061 1.409 . S
C1059 H1051 0.930 . S
C1059 C1060 1.355 . S
C1059 C1061 1.415 . S
C1060 C1059 1.355 . S
C1060 C1062 1.419 . S
C1061 C1056 1.425 . S
C1061 C1058 1.409 . S
C1061 C1059 1.415 . S
C1062 H1052 0.930 . S
C1062 C1060 1.419 . S
C1062 C1063 1.362 . S
C1063 H1053 0.930 . S
C1063 C1056 1.409 . S
C1063 C1062 1.362 . S
H1064 C1070 0.930 . S
H1065 C1073 0.930 . S
H1066 C1074 0.930 . S
H1067 C1075 0.930 . S
H1068 C1078 0.930 . S
H1069 C1079 0.930 . S
C1070 H1064 0.930 . S
C1070 C1071 1.355 . S
C1070 C1072 1.415 . S
C1071 C1070 1.355 . S
C1071 C1073 1.419 . S
C1072 C1070 1.415 . S
C1072 C1077 1.425 . S
C1072 C1079 1.409 . S
C1073 H1065 0.930 . S
C1073 C1071 1.419 . S
C1073 C1074 1.362 . S
C1074 H1066 0.930 . S
C1074 C1073 1.362 . S
C1074 C1077 1.409 . S
C1075 H1067 0.930 . S
C1075 C1076 1.355 . S
C1075 C1077 1.415 . S
C1076 C1075 1.355 . S
C1076 C1078 1.419 . S
C1077 C1072 1.425 . S
C1077 C1074 1.409 . S
C1077 C1075 1.415 . S
C1078 H1068 0.930 . S
C1078 C1076 1.419 . S
C1078 C1079 1.362 . S
C1079 H1069 0.930 . S
C1079 C1072 1.409 . S
C1079 C1078 1.362 . S
H1080 C1086 0.930 . S
H1081 C1089 0.930 . S
H1082 C1090 0.930 . S
H1083 C1091 0.930 . S
H1084 C1094 0.930 . S
H1085 C1095 0.930 . S
C1086 H1080 0.930 . S
C1086 C1087 1.355 . S
C1086 C1088 1.415 . S
C1087 C1086 1.355 . S
C1087 C1089 1.419 . S
C1088 C1086 1.415 . S
C1088 C1093 1.425 . S
C1088 C1095 1.409 . S
C1089 H1081 0.930 . S
C1089 C1087 1.419 . S
C1089 C1090 1.362 . S
C1090 H1082 0.930 . S
C1090 C1089 1.362 . S
C1090 C1093 1.409 . S
C1091 H1083 0.930 . S
C1091 C1092 1.355 . S
C1091 C1093 1.415 . S
C1092 C1091 1.355 . S
C1092 C1094 1.419 . S
C1093 C1088 1.425 . S
C1093 C1090 1.409 . S
C1093 C1091 1.415 . S
C1094 H1084 0.930 . S
C1094 C1092 1.419 . S
C1094 C1095 1.362 . S
C1095 H1085 0.930 . S
C1095 C1088 1.409 . S
C1095 C1094 1.362 . S
H1096 C1102 0.930 . S
H1097 C1105 0.930 . S
H1098 C1106 0.930 . S
H1099 C1107 0.930 . S
H1100 C1110 0.930 . S
H1101 C1111 0.930 . S
C1102 H1096 0.930 . S
C1102 C1103 1.355 . S
C1102 C1104 1.415 . S
C1103 C1102 1.355 . S
C1103 C1105 1.419 . S
C1104 C1102 1.415 . S
C1104 C1109 1.425 . S
C1104 C1111 1.409 . S
C1105 H1097 0.930 . S
C1105 C1103 1.419 . S
C1105 C1106 1.362 . S
C1106 H1098 0.930 . S
C1106 C1105 1.362 . S
C1106 C1109 1.409 . S
C1107 H1099 0.930 . S
C1107 C1108 1.355 . S
C1107 C1109 1.415 . S
C1108 C1107 1.355 . S
C1108 C1110 1.419 . S
C1109 C1104 1.425 . S
C1109 C1106 1.409 . S
C1109 C1107 1.415 . S
C1110 H1100 0.930 . S
C1110 C1108 1.419 . S
C1110 C1111 1.362 . S
C1111 H1101 0.930 . S
C1111 C1104 1.409 . S
C1111 C1110 1.362 . S
H1112 C1118 0.930 . S
H1113 C1121 0.930 . S
H1114 C1122 0.930 . S
H1115 C1123 0.930 . S
H1116 C1126 0.930 . S
H1117 C1127 0.930 . S
C1118 H1112 0.930 . S
C1118 C1119 1.355 . S
C1118 C1120 1.415 . S
C1119 C1118 1.355 . S
C1119 C1121 1.419 . S
C1120 C1118 1.415 . S
C1120 C1125 1.425 . S
C1120 C1127 1.409 . S
C1121 H1113 0.930 . S
C1121 C1119 1.419 . S
C1121 C1122 1.362 . S
C1122 H1114 0.930 . S
C1122 C1121 1.362 . S
C1122 C1125 1.409 . S
C1123 H1115 0.930 . S
C1123 C1124 1.355 . S
C1123 C1125 1.415 . S
C1124 C1123 1.355 . S
C1124 C1126 1.419 . S
C1125 C1120 1.425 . S
C1125 C1122 1.409 . S
C1125 C1123 1.415 . S
C1126 H1116 0.930 . S
C1126 C1124 1.419 . S
C1126 C1127 1.362 . S
C1127 H1117 0.930 . S
C1127 C1120 1.409 . S
C1127 C1126 1.362 . S
H1128 C1134 0.930 . S
H1129 C1137 0.930 . S
H1130 C1138 0.930 . S
H1131 C1139 0.930 . S
H1132 C1142 0.930 . S
H1133 C1143 0.930 . S
C1134 H1128 0.930 . S
C1134 C1135 1.355 . S
C1134 C1136 1.415 . S
C1135 C1134 1.355 . S
C1135 C1137 1.419 . S
C1136 C1134 1.415 . S
C1136 C1141 1.425 . S
C1136 C1143 1.409 . S
C1137 H1129 0.930 . S
C1137 C1135 1.419 . S
C1137 C1138 1.362 . S
C1138 H1130 0.930 . S
C1138 C1137 1.362 . S
C1138 C1141 1.409 . S
C1139 H1131 0.930 . S
C1139 C1140 1.355 . S
C1139 C1141 1.415 . S
C1140 C1139 1.355 . S
C1140 C1142 1.419 . S
C1141 C1136 1.425 . S
C1141 C1138 1.409 . S
C1141 C1139 1.415 . S
C1142 H1132 0.930 . S
C1142 C1140 1.419 . S
C1142 C1143 1.362 . S
C1143 H1133 0.930 . S
C1143 C1136 1.409 . S
C1143 C1142 1.362 . S
H1144 C1150 0.930 . S
H1145 C1153 0.930 . S
H1146 C1154 0.930 . S
H1147 C1155 0.930 . S
H1148 C1158 0.930 . S
H1149 C1159 0.930 . S
C1150 H1144 0.930 . S
C1150 C1151 1.355 . S
C1150 C1152 1.415 . S
C1151 C1150 1.355 . S
C1151 C1153 1.419 . S
C1152 C1150 1.415 . S
C1152 C1157 1.425 . S
C1152 C1159 1.409 . S
C1153 H1145 0.930 . S
C1153 C1151 1.419 . S
C1153 C1154 1.362 . S
C1154 H1146 0.930 . S
C1154 C1153 1.362 . S
C1154 C1157 1.409 . S
C1155 H1147 0.930 . S
C1155 C1156 1.355 . S
C1155 C1157 1.415 . S
C1156 C1155 1.355 . S
C1156 C1158 1.419 . S
C1157 C1152 1.425 . S
C1157 C1154 1.409 . S
C1157 C1155 1.415 . S
C1158 H1148 0.930 . S
C1158 C1156 1.419 . S
C1158 C1159 1.362 . S
C1159 H1149 0.930 . S
C1159 C1152 1.409 . S
C1159 C1158 1.362 . S
H1160 C1166 0.930 . S
H1161 C1169 0.930 . S
H1162 C1170 0.930 . S
H1163 C1171 0.930 . S
H1164 C1174 0.930 . S
H1165 C1175 0.930 . S
C1166 H1160 0.930 . S
C1166 C1167 1.355 . S
C1166 C1168 1.415 . S
C1167 C1166 1.355 . S
C1167 C1169 1.419 . S
C1168 C1166 1.415 . S
C1168 C1173 1.425 . S
C1168 C1175 1.409 . S
C1169 H1161 0.930 . S
C1169 C1167 1.419 . S
C1169 C1170 1.362 . S
C1170 H1162 0.930 . S
C1170 C1169 1.362 . S
C1170 C1173 1.409 . S
C1171 H1163 0.930 . S
C1171 C1172 1.355 . S
C1171 C1173 1.415 . S
C1172 C1171 1.355 . S
C1172 C1174 1.419 . S
C1173 C1168 1.425 . S
C1173 C1170 1.409 . S
C1173 C1171 1.415 . S
C1174 H1164 0.930 . S
C1174 C1172 1.419 . S
C1174 C1175 1.362 . S
C1175 H1165 0.930 . S
C1175 C1168 1.409 . S
C1175 C1174 1.362 . S
H1176 C1182 0.930 . S
H1177 C1185 0.930 . S
H1178 C1186 0.930 . S
H1179 C1187 0.930 . S
H1180 C1190 0.930 . S
H1181 C1191 0.930 . S
C1182 H1176 0.930 . S
C1182 C1183 1.355 . S
C1182 C1184 1.415 . S
C1183 C1182 1.355 . S
C1183 C1185 1.419 . S
C1184 C1182 1.415 . S
C1184 C1189 1.425 . S
C1184 C1191 1.409 . S
C1185 H1177 0.930 . S
C1185 C1183 1.419 . S
C1185 C1186 1.362 . S
C1186 H1178 0.930 . S
C1186 C1185 1.362 . S
C1186 C1189 1.409 . S
C1187 H1179 0.930 . S
C1187 C1188 1.355 . S
C1187 C1189 1.415 . S
C1188 C1187 1.355 . S
C1188 C1190 1.419 . S
C1189 C1184 1.425 . S
C1189 C1186 1.409 . S
C1189 C1187 1.415 . S
C1190 H1180 0.930 . S
C1190 C1188 1.419 . S
C1190 C1191 1.362 . S
C1191 H1181 0.930 . S
C1191 C1184 1.409 . S
C1191 C1190 1.362 . S
H1192 C1198 0.930 . S
H1193 C1201 0.930 . S
H1194 C1202 0.930 . S
H1195 C1203 0.930 . S
H1196 C1206 0.930 . S
H1197 C1207 0.930 . S
C1198 H1192 0.930 . S
C1198 C1199 1.355 . S
C1198 C1200 1.415 . S
C1199 C1198 1.355 . S
C1199 C1201 1.419 . S
C1200 C1198 1.415 . S
C1200 C1205 1.425 . S
C1200 C1207 1.409 . S
C1201 H1193 0.930 . S
C1201 C1199 1.419 . S
C1201 C1202 1.362 . S
C1202 H1194 0.930 . S
C1202 C1201 1.362 . S
C1202 C1205 1.409 . S
C1203 H1195 0.930 . S
C1203 C1204 1.355 . S
C1203 C1205 1.415 . S
C1204 C1203 1.355 . S
C1204 C1206 1.419 . S
C1205 C1200 1.425 . S
C1205 C1202 1.409 . S
C1205 C1203 1.415 . S
C1206 H1196 0.930 . S
C1206 C1204 1.419 . S
C1206 C1207 1.362 . S
C1207 H1197 0.930 . S
C1207 C1200 1.409 . S
C1207 C1206 1.362 . S
H1208 C1214 0.930 . S
H1209 C1217 0.930 . S
H1210 C1218 0.930 . S
H1211 C1219 0.930 . S
H1212 C1222 0.930 . S
H1213 C1223 0.930 . S
C1214 H1208 0.930 . S
C1214 C1215 1.355 . S
C1214 C1216 1.415 . S
C1215 C1214 1.355 . S
C1215 C1217 1.419 . S
C1216 C1214 1.415 . S
C1216 C1221 1.425 . S
C1216 C1223 1.409 . S
C1217 H1209 0.930 . S
C1217 C1215 1.419 . S
C1217 C1218 1.362 . S
C1218 H1210 0.930 . S
C1218 C1217 1.362 . S
C1218 C1221 1.409 . S
C1219 H1211 0.930 . S
C1219 C1220 1.355 . S
C1219 C1221 1.415 . S
C1220 C1219 1.355 . S
C1220 C1222 1.419 . S
C1221 C1216 1.425 . S
C1221 C1218 1.409 . S
C1221 C1219 1.415 . S
C1222 H1212 0.930 . S
C1222 C1220 1.419 . S
C1222 C1223 1.362 . S
C1223 H1213 0.930 . S
C1223 C1216 1.409 . S
C1223 C1222 1.362 . S
H1224 C1230 0.930 . S
H1225 C1233 0.930 . S
H1226 C1234 0.930 . S
H1227 C1235 0.930 . S
H1228 C1238 0.930 . S
H1229 C1239 0.930 . S
C1230 H1224 0.930 . S
C1230 C1231 1.355 . S
C1230 C1232 1.415 . S
C1231 C1230 1.355 . S
C1231 C1233 1.419 . S
C1232 C1230 1.415 . S
C1232 C1237 1.425 . S
C1232 C1239 1.409 . S
C1233 H1225 0.930 . S
C1233 C1231 1.419 . S
C1233 C1234 1.362 . S
C1234 H1226 0.930 . S
C1234 C1233 1.362 . S
C1234 C1237 1.409 . S
C1235 H1227 0.930 . S
C1235 C1236 1.355 . S
C1235 C1237 1.415 . S
C1236 C1235 1.355 . S
C1236 C1238 1.419 . S
C1237 C1232 1.425 . S
C1237 C1234 1.409 . S
C1237 C1235 1.415 . S
C1238 H1228 0.930 . S
C1238 C1236 1.419 . S
C1238 C1239 1.362 . S
C1239 H1229 0.930 . S
C1239 C1232 1.409 . S
C1239 C1238 1.362 . S
H1240 C1246 0.930 . S
H1241 C1249 0.930 . S
H1242 C1250 0.930 . S
H1243 C1251 0.930 . S
H1244 C1254 0.930 . S
H1245 C1255 0.930 . S
C1246 H1240 0.930 . S
C1246 C1247 1.355 . S
C1246 C1248 1.415 . S
C1247 C1246 1.355 . S
C1247 C1249 1.419 . S
C1248 C1246 1.415 . S
C1248 C1253 1.425 . S
C1248 C1255 1.409 . S
C1249 H1241 0.930 . S
C1249 C1247 1.419 . S
C1249 C1250 1.362 . S
C1250 H1242 0.930 . S
C1250 C1249 1.362 . S
C1250 C1253 1.409 . S
C1251 H1243 0.930 . S
C1251 C1252 1.355 . S
C1251 C1253 1.415 . S
C1252 C1251 1.355 . S
C1252 C1254 1.419 . S
C1253 C1248 1.425 . S
C1253 C1250 1.409 . S
C1253 C1251 1.415 . S
C1254 H1244 0.930 . S
C1254 C1252 1.419 . S
C1254 C1255 1.362 . S
C1255 H1245 0.930 . S
C1255 C1248 1.409 . S
C1255 C1254 1.362 . S
H1256 C1262 0.930 . S
H1257 C1265 0.930 . S
H1258 C1266 0.930 . S
H1259 C1267 0.930 . S
H1260 C1270 0.930 . S
H1261 C1271 0.930 . S
C1262 H1256 0.930 . S
C1262 C1263 1.355 . S
C1262 C1264 1.415 . S
C1263 C1262 1.355 . S
C1263 C1265 1.419 . S
C1264 C1262 1.415 . S
C1264 C1269 1.425 . S
C1264 C1271 1.409 . S
C1265 H1257 0.930 . S
C1265 C1263 1.419 . S
C1265 C1266 1.362 . S
C1266 H1258 0.930 . S
C1266 C1265 1.362 . S
C1266 C1269 1.409 . S
C1267 H1259 0.930 . S
C1267 C1268 1.355 . S
C1267 C1269 1.415 . S
C1268 C1267 1.355 . S
C1268 C1270 1.419 . S
C1269 C1264 1.425 . S
C1269 C1266 1.409 . S
C1269 C1267 1.415 . S
C1270 H1260 0.930 . S
C1270 C1268 1.419 . S
C1270 C1271 1.362 . S
C1271 H1261 0.930 . S
C1271 C1264 1.409 . S
C1271 C1270 1.362 . S
H1272 C1278 0.930 . S
H1273 C1281 0.930 . S
H1274 C1282 0.930 . S
H1275 C1283 0.930 . S
H1276 C1286 0.930 . S
H1277 C1287 0.930 . S
C1278 H1272 0.930 . S
C1278 C1279 1.355 . S
C1278 C1280 1.415 . S
C1279 C1278 1.355 . S
C1279 C1281 1.419 . S
C1280 C1278 1.415 . S
C1280 C1285 1.425 . S
C1280 C1287 1.409 . S
C1281 H1273 0.930 . S
C1281 C1279 1.419 . S
C1281 C1282 1.362 . S
C1282 H1274 0.930 . S
C1282 C1281 1.362 . S
C1282 C1285 1.409 . S
C1283 H1275 0.930 . S
C1283 C1284 1.355 . S
C1283 C1285 1.415 . S
C1284 C1283 1.355 . S
C1284 C1286 1.419 . S
C1285 C1280 1.425 . S
C1285 C1282 1.409 . S
C1285 C1283 1.415 . S
C1286 H1276 0.930 . S
C1286 C1284 1.419 . S
C1286 C1287 1.362 . S
C1287 H1277 0.930 . S
C1287 C1280 1.409 . S
C1287 C1286 1.362 . S
H1288 C1294 0.930 . S
H1289 C1297 0.930 . S
H1290 C1298 0.930 . S
H1291 C1299 0.930 . S
H1292 C1302 0.930 . S
H1293 C1303 0.930 . S
C1294 H1288 0.930 . S
C1294 C1295 1.355 . S
C1294 C1296 1.415 . S
C1295 C1294 1.355 . S
C1295 C1297 1.419 . S
C1296 C1294 1.415 . S
C1296 C1301 1.425 . S
C1296 C1303 1.409 . S
C1297 H1289 0.930 . S
C1297 C1295 1.419 . S
C1297 C1298 1.362 . S
C1298 H1290 0.930 . S
C1298 C1297 1.362 . S
C1298 C1301 1.409 . S
C1299 H1291 0.930 . S
C1299 C1300 1.355 . S
C1299 C1301 1.415 . S
C1300 C1299 1.355 . S
C1300 C1302 1.419 . S
C1301 C1296 1.425 . S
C1301 C1298 1.409 . S
C1301 C1299 1.415 . S
C1302 H1292 0.930 . S
C1302 C1300 1.419 . S
C1302 C1303 1.362 . S
C1303 H1293 0.930 . S
C1303 C1296 1.409 . S
C1303 C1302 1.362 . S
H1304 C1310 0.930 . S
H1305 C1313 0.930 . S
H1306 C1314 0.930 . S
H1307 C1315 0.930 . S
H1308 C1318 0.930 . S
H1309 C1319 0.930 . S
C1310 H1304 0.930 . S
C1310 C1311 1.355 . S
C1310 C1312 1.415 . S
C1311 C1310 1.355 . S
C1311 C1313 1.419 . S
C1312 C1310 1.415 . S
C1312 C1317 1.425 . S
C1312 C1319 1.409 . S
C1313 H1305 0.930 . S
C1313 C1311 1.419 . S
C1313 C1314 1.362 . S
C1314 H1306 0.930 . S
C1314 C1313 1.362 . S
C1314 C1317 1.409 . S
C1315 H1307 0.930 . S
C1315 C1316 1.355 . S
C1315 C1317 1.415 . S
C1316 C1315 1.355 . S
C1316 C1318 1.419 . S
C1317 C1312 1.425 . S
C1317 C1314 1.409 . S
C1317 C1315 1.415 . S
C1318 H1308 0.930 . S
C1318 C1316 1.419 . S
C1318 C1319 1.362 . S
C1319 H1309 0.930 . S
C1319 C1312 1.409 . S
C1319 C1318 1.362 . S
H1320 C1326 0.930 . S
H1321 C1329 0.930 . S
H1322 C1330 0.930 . S
H1323 C1331 0.930 . S
H1324 C1334 0.930 . S
H1325 C1335 0.930 . S
C1326 H1320 0.930 . S
C1326 C1327 1.355 . S
C1326 C1328 1.415 . S
C1327 C1326 1.355 . S
C1327 C1329 1.419 . S
C1328 C1326 1.415 . S
C1328 C1333 1.425 . S
C1328 C1335 1.409 . S
C1329 H1321 0.930 . S
C1329 C1327 1.419 . S
C1329 C1330 1.362 . S
C1330 H1322 0.930 . S
C1330 C1329 1.362 . S
C1330 C1333 1.409 . S
C1331 H1323 0.930 . S
C1331 C1332 1.355 . S
C1331 C1333 1.415 . S
C1332 C1331 1.355 . S
C1332 C1334 1.419 . S
C1333 C1328 1.425 . S
C1333 C1330 1.409 . S
C1333 C1331 1.415 . S
C1334 H1324 0.930 . S
C1334 C1332 1.419 . S
C1334 C1335 1.362 . S
C1335 H1325 0.930 . S
C1335 C1328 1.409 . S
C1335 C1334 1.362 . S
H1336 C1342 0.930 . S
H1337 C1345 0.930 . S
H1338 C1346 0.930 . S
H1339 C1347 0.930 . S
H1340 C1350 0.930 . S
H1341 C1351 0.930 . S
C1342 H1336 0.930 . S
C1342 C1343 1.355 . S
C1342 C1344 1.415 . S
C1343 C1342 1.355 . S
C1343 C1345 1.419 . S
C1344 C1342 1.415 . S
C1344 C1349 1.425 . S
C1344 C1351 1.409 . S
C1345 H1337 0.930 . S
C1345 C1343 1.419 . S
C1345 C1346 1.362 . S
C1346 H1338 0.930 . S
C1346 C1345 1.362 . S
C1346 C1349 1.409 . S
C1347 H1339 0.930 . S
C1347 C1348 1.355 . S
C1347 C1349 1.415 . S
C1348 C1347 1.355 . S
C1348 C1350 1.419 . S
C1349 C1344 1.425 . S
C1349 C1346 1.409 . S
C1349 C1347 1.415 . S
C1350 H1340 0.930 . S
C1350 C1348 1.419 . S
C1350 C1351 1.362 . S
C1351 H1341 0.930 . S
C1351 C1344 1.409 . S
C1351 C1350 1.362 . S
H1352 C1358 0.930 . S
H1353 C1361 0.930 . S
H1354 C1362 0.930 . S
H1355 C1363 0.930 . S
H1356 C1366 0.930 . S
H1357 C1367 0.930 . S
C1358 H1352 0.930 . S
C1358 C1359 1.355 . S
C1358 C1360 1.415 . S
C1359 C1358 1.355 . S
C1359 C1361 1.419 . S
C1360 C1358 1.415 . S
C1360 C1365 1.425 . S
C1360 C1367 1.409 . S
C1361 H1353 0.930 . S
C1361 C1359 1.419 . S
C1361 C1362 1.362 . S
C1362 H1354 0.930 . S
C1362 C1361 1.362 . S
C1362 C1365 1.409 . S
C1363 H1355 0.930 . S
C1363 C1364 1.355 . S
C1363 C1365 1.415 . S
C1364 C1363 1.355 . S
C1364 C1366 1.419 . S
C1365 C1360 1.425 . S
C1365 C1362 1.409 . S
C1365 C1363 1.415 . S
C1366 H1356 0.930 . S
C1366 C1364 1.419 . S
C1366 C1367 1.362 . S
C1367 H1357 0.930 . S
C1367 C1360 1.409 . S
C1367 C1366 1.362 . S
H1368 C1374 0.930 . S
H1369 C1377 0.930 . S
H1370 C1378 0.930 . S
H1371 C1379 0.930 . S
H1372 C1382 0.930 . S
H1373 C1383 0.930 . S
C1374 H1368 0.930 . S
C1374 C1375 1.355 . S
C1374 C1376 1.415 . S
C1375 C1374 1.355 . S
C1375 C1377 1.419 . S
C1376 C1374 1.415 . S
C1376 C1381 1.425 . S
C1376 C1383 1.409 . S
C1377 H1369 0.930 . S
C1377 C1375 1.419 . S
C1377 C1378 1.362 . S
C1378 H1370 0.930 . S
C1378 C1377 1.362 . S
C1378 C1381 1.409 . S
C1379 H1371 0.930 . S
C1379 C1380 1.355 . S
C1379 C1381 1.415 . S
C1380 C1379 1.355 . S
C1380 C1382 1.419 . S
C1381 C1376 1.425 . S
C1381 C1378 1.409 . S
C1381 C1379 1.415 . S
C1382 H1372 0.930 . S
C1382 C1380 1.419 . S
C1382 C1383 1.362 . S
C1383 H1373 0.930 . S
C1383 C1376 1.409 . S
C1383 C1382 1.362 . S
H1384 C1390 0.930 . S
H1385 C1393 0.930 . S
H1386 C1394 0.930 . S
H1387 C1395 0.930 . S
H1388 C1398 0.930 . S
H1389 C1399 0.930 . S
C1390 H1384 0.930 . S
C1390 C1391 1.355 . S
C1390 C1392 1.415 . S
C1391 C1390 1.355 . S
C1391 C1393 1.419 . S
C1392 C1390 1.415 . S
C1392 C1397 1.425 . S
C1392 C1399 1.409 . S
C1393 H1385 0.930 . S
C1393 C1391 1.419 . S
C1393 C1394 1.362 . S
C1394 H1386 0.930 . S
C1394 C1393 1.362 . S
C1394 C1397 1.409 . S
C1395 H1387 0.930 . S
C1395 C1396 1.355 . S
C1395 C1397 1.415 . S
C1396 C1395 1.355 . S
C1396 C1398 1.419 . S
C1397 C1392 1.425 . S
C1397 C1394 1.409 . S
C1397 C1395 1.415 . S
C1398 H1388 0.930 . S
C1398 C1396 1.419 . S
C1398 C1399 1.362 . S
C1399 H1389 0.930 . S
C1399 C1392 1.409 . S
C1399 C1398 1.362 . S
H1400 C1406 0.930 . S
H1401 C1409 0.930 . S
H1402 C1410 0.930 . S
H1403 C1411 0.930 . S
H1404 C1414 0.930 . S
H1405 C1415 0.930 . S
C1406 H1400 0.930 . S
C1406 C1407 1.355 . S
C1406 C1408 1.415 . S
C1407 C1406 1.355 . S
C1407 C1409 1.419 . S
C1408 C1406 1.415 . S
C1408 C1413 1.425 . S
C1408 C1415 1.409 . S
C1409 H1401 0.930 . S
C1409 C1407 1.419 . S
C1409 C1410 1.362 . S
C1410 H1402 0.930 . S
C1410 C1409 1.362 . S
C1410 C1413 1.409 . S
C1411 H1403 0.930 . S
C1411 C1412 1.355 . S
C1411 C1413 1.415 . S
C1412 C1411 1.355 . S
C1412 C1414 1.419 . S
C1413 C1408 1.425 . S
C1413 C1410 1.409 . S
C1413 C1411 1.415 . S
C1414 H1404 0.930 . S
C1414 C1412 1.419 . S
C1414 C1415 1.362 . S
C1415 H1405 0.930 . S
C1415 C1408 1.409 . S
C1415 C1414 1.362 . S
H1416 C1422 0.930 . S
H1417 C1425 0.930 . S
H1418 C1426 0.930 . S
H1419 C1427 0.930 . S
H1420 C1430 0.930 . S
H1421 C1431 0.930 . S
C1422 H1416 0.930 . S
C1422 C1423 1.355 . S
C1422 C1424 1.415 . S
C1423 C1422 1.355 . S
C1423 C1425 1.419 . S
C1424 C1422 1.415 . S
C1424 C1429 1.425 . S
C1424 C1431 1.409 . S
C1425 H1417 0.930 . S
C1425 C1423 1.419 . S
C1425 C1426 1.362 . S
C1426 H1418 0.930 . S
C1426 C1425 1.362 . S
C1426 C1429 1.409 . S
C1427 H1419 0.930 . S
C1427 C1428 1.355 . S
C1427 C1429 1.415 . S
C1428 C1427 1.355 . S
C1428 C1430 1.419 . S
C1429 C1424 1.425 . S
C1429 C1426 1.409 . S
C1429 C1427 1.415 . S
C1430 H1420 0.930 . S
C1430 C1428 1.419 . S
C1430 C1431 1.362 . S
C1431 H1421 0.930 . S
C1431 C1424 1.409 . S
C1431 C1430 1.362 . S
H1432 C1438 0.930 . S
H1433 C1441 0.930 . S
H1434 C1442 0.930 . S
H1435 C1443 0.930 . S
H1436 C1446 0.930 . S
H1437 C1447 0.930 . S
C1438 H1432 0.930 . S
C1438 C1439 1.355 . S
C1438 C1440 1.415 . S
C1439 C1438 1.355 . S
C1439 C1441 1.419 . S
C1440 C1438 1.415 . S
C1440 C1445 1.425 . S
C1440 C1447 1.409 . S
C1441 H1433 0.930 . S
C1441 C1439 1.419 . S
C1441 C1442 1.362 . S
C1442 H1434 0.930 . S
C1442 C1441 1.362 . S
C1442 C1445 1.409 . S
C1443 H1435 0.930 . S
C1443 C1444 1.355 . S
C1443 C1445 1.415 . S
C1444 C1443 1.355 . S
C1444 C1446 1.419 . S
C1445 C1440 1.425 . S
C1445 C1442 1.409 . S
C1445 C1443 1.415 . S
C1446 H1436 0.930 . S
C1446 C1444 1.419 . S
C1446 C1447 1.362 . S
C1447 H1437 0.930 . S
C1447 C1440 1.409 . S
C1447 C1446 1.362 . S
H1448 C1454 0.930 . S
H1449 C1457 0.930 . S
H1450 C1458 0.930 . S
H1451 C1459 0.930 . S
H1452 C1462 0.930 . S
H1453 C1463 0.930 . S
C1454 H1448 0.930 . S
C1454 C1455 1.355 . S
C1454 C1456 1.415 . S
C1455 C1454 1.355 . S
C1455 C1457 1.419 . S
C1456 C1454 1.415 . S
C1456 C1461 1.425 . S
C1456 C1463 1.409 . S
C1457 H1449 0.930 . S
C1457 C1455 1.419 . S
C1457 C1458 1.362 . S
C1458 H1450 0.930 . S
C1458 C1457 1.362 . S
C1458 C1461 1.409 . S
C1459 H1451 0.930 . S
C1459 C1460 1.355 . S
C1459 C1461 1.415 . S
C1460 C1459 1.355 . S
C1460 C1462 1.419 . S
C1461 C1456 1.425 . S
C1461 C1458 1.409 . S
C1461 C1459 1.415 . S
C1462 H1452 0.930 . S
C1462 C1460 1.419 . S
C1462 C1463 1.362 . S
C1463 H1453 0.930 . S
C1463 C1456 1.409 . S
C1463 C1462 1.362 . S
H1464 C1470 0.930 . S
H1465 C1473 0.930 . S
H1466 C1474 0.930 . S
H1467 C1475 0.930 . S
H1468 C1478 0.930 . S
H1469 C1479 0.930 . S
C1470 H1464 0.930 . S
C1470 C1471 1.355 . S
C1470 C1472 1.415 . S
C1471 C1470 1.355 . S
C1471 C1473 1.419 . S
C1472 C1470 1.415 . S
C1472 C1477 1.425 . S
C1472 C1479 1.409 . S
C1473 H1465 0.930 . S
C1473 C1471 1.419 . S
C1473 C1474 1.362 . S
C1474 H1466 0.930 . S
C1474 C1473 1.362 . S
C1474 C1477 1.409 . S
C1475 H1467 0.930 . S
C1475 C1476 1.355 . S
C1475 C1477 1.415 . S
C1476 C1475 1.355 . S
C1476 C1478 1.419 . S
C1477 C1472 1.425 . S
C1477 C1474 1.409 . S
C1477 C1475 1.415 . S
C1478 H1468 0.930 . S
C1478 C1476 1.419 . S
C1478 C1479 1.362 . S
C1479 H1469 0.930 . S
C1479 C1472 1.409 . S
C1479 C1478 1.362 . S
H1480 C1486 0.930 . S
H1481 C1489 0.930 . S
H1482 C1490 0.930 . S
H1483 C1491 0.930 . S
H1484 C1494 0.930 . S
H1485 C1495 0.930 . S
C1486 H1480 0.930 . S
C1486 C1487 1.355 . S
C1486 C1488 1.415 . S
C1487 C1486 1.355 . S
C1487 C1489 1.419 . S
C1488 C1486 1.415 . S
C1488 C1493 1.425 . S
C1488 C1495 1.409 . S
C1489 H1481 0.930 . S
C1489 C1487 1.419 . S
C1489 C1490 1.362 . S
C1490 H1482 0.930 . S
C1490 C1489 1.362 . S
C1490 C1493 1.409 . S
C1491 H1483 0.930 . S
C1491 C1492 1.355 . S
C1491 C1493 1.415 . S
C1492 C1491 1.355 . S
C1492 C1494 1.419 . S
C1493 C1488 1.425 . S
C1493 C1490 1.409 . S
C1493 C1491 1.415 . S
C1494 H1484 0.930 . S
C1494 C1492 1.419 . S
C1494 C1495 1.362 . S
C1495 H1485 0.930 . S
C1495 C1488 1.409 . S
C1495 C1494 1.362 . S
H1496 C1502 0.930 . S
H1497 C1505 0.930 . S
H1498 C1506 0.930 . S
H1499 C1507 0.930 . S
H1500 C1510 0.930 . S
H1501 C1511 0.930 . S
C1502 H1496 0.930 . S
C1502 C1503 1.355 . S
C1502 C1504 1.415 . S
C1503 C1502 1.355 . S
C1503 C1505 1.419 . S
C1504 C1502 1.415 . S
C1504 C1509 1.425 . S
C1504 C1511 1.409 . S
C1505 H1497 0.930 . S
C1505 C1503 1.419 . S
C1505 C1506 1.362 . S
C1506 H1498 0.930 . S
C1506 C1505 1.362 . S
C1506 C1509 1.409 . S
C1507 H1499 0.930 . S
C1507 C1508 1.355 . S
C1507 C1509 1.415 . S
C1508 C1507 1.355 . S
C1508 C1510 1.419 . S
C1509 C1504 1.425 . S
C1509 C1506 1.409 . S
C1509 C1507 1.415 . S
C1510 H1500 0.930 . S
C1510 C1508 1.419 . S
C1510 C1511 1.362 . S
C1511 H1501 0.930 . S
C1511 C1504 1.409 . S
C1511 C1510 1.362 . S
H1512 C1518 0.930 . S
H1513 C1521 0.930 . S
H1514 C1522 0.930 . S
H1515 C1523 0.930 . S
H1516 C1526 0.930 . S
H1517 C1527 0.930 . S
C1518 H1512 0.930 . S
C1518 C1519 1.355 . S
C1518 C1520 1.415 . S
C1519 C1518 1.355 . S
C1519 C1521 1.419 . S
C1520 C1518 1.415 . S
C1520 C1525 1.425 1_556 S
C1520 C1527 1.409 1_556 S
C1521 H1513 0.930 . S
C1521 C1519 1.419 . S
C1521 C1522 1.362 . S
C1522 H1514 0.930 . S
C1522 C1521 1.362 . S
C1522 C1525 1.409 1_556 S
C1523 H1515 0.930 . S
C1523 C1524 1.355 . S
C1523 C1525 1.415 . S
C1524 C1523 1.355 . S
C1524 C1526 1.419 . S
C1525 C1520 1.425 1_554 S
C1525 C1522 1.409 1_554 S
C1525 C1523 1.415 . S
C1526 H1516 0.930 . S
C1526 C1524 1.419 . S
C1526 C1527 1.362 . S
C1527 H1517 0.930 . S
C1527 C1520 1.409 1_554 S
C1527 C1526 1.362 . S
H1528 C1534 0.930 . S
H1529 C1537 0.930 . S
H1530 C1538 0.930 . S
H1531 C1539 0.930 . S
H1532 C1542 0.930 . S
H1533 C1543 0.930 . S
C1534 H1528 0.930 . S
C1534 C1535 1.355 . S
C1534 C1536 1.415 . S
C1535 C1534 1.355 . S
C1535 C1537 1.419 . S
C1536 C1534 1.415 . S
C1536 C1541 1.425 1_556 S
C1536 C1543 1.409 1_556 S
C1537 H1529 0.930 . S
C1537 C1535 1.419 . S
C1537 C1538 1.362 . S
C1538 H1530 0.930 . S
C1538 C1537 1.362 . S
C1538 C1541 1.409 1_556 S
C1539 H1531 0.930 . S
C1539 C1540 1.355 . S
C1539 C1541 1.415 . S
C1540 C1539 1.355 . S
C1540 C1542 1.419 . S
C1541 C1536 1.425 1_554 S
C1541 C1538 1.409 1_554 S
C1541 C1539 1.415 . S
C1542 H1532 0.930 . S
C1542 C1540 1.419 . S
C1542 C1543 1.362 . S
C1543 H1533 0.930 . S
C1543 C1536 1.409 1_554 S
C1543 C1542 1.362 . S
H1544 C1550 0.930 . S
H1545 C1553 0.930 . S
H1546 C1554 0.930 . S
H1547 C1555 0.930 . S
H1548 C1558 0.930 . S
H1549 C1559 0.930 . S
C1550 H1544 0.930 . S
C1550 C1551 1.355 . S
C1550 C1552 1.415 . S
C1551 C1550 1.355 . S
C1551 C1553 1.419 . S
C1552 C1550 1.415 . S
C1552 C1557 1.425 1_554 S
C1552 C1559 1.409 1_554 S
C1553 H1545 0.930 . S
C1553 C1551 1.419 . S
C1553 C1554 1.362 . S
C1554 H1546 0.930 . S
C1554 C1553 1.362 . S
C1554 C1557 1.409 1_554 S
C1555 H1547 0.930 . S
C1555 C1556 1.355 . S
C1555 C1557 1.415 . S
C1556 C1555 1.355 . S
C1556 C1558 1.419 . S
C1557 C1552 1.425 1_556 S
C1557 C1554 1.409 1_556 S
C1557 C1555 1.415 . S
C1558 H1548 0.930 . S
C1558 C1556 1.419 . S
C1558 C1559 1.362 . S
C1559 H1549 0.930 . S
C1559 C1552 1.409 1_556 S
C1559 C1558 1.362 . S
H1560 C1566 0.930 . S
H1561 C1569 0.930 . S
H1562 C1570 0.930 . S
H1563 C1571 0.930 . S
H1564 C1574 0.930 . S
H1565 C1575 0.930 . S
C1566 H1560 0.930 . S
C1566 C1567 1.355 . S
C1566 C1568 1.415 . S
C1567 C1566 1.355 . S
C1567 C1569 1.419 . S
C1568 C1566 1.415 . S
C1568 C1573 1.425 1_556 S
C1568 C1575 1.409 1_556 S
C1569 H1561 0.930 . S
C1569 C1567 1.419 . S
C1569 C1570 1.362 . S
C1570 H1562 0.930 . S
C1570 C1569 1.362 . S
C1570 C1573 1.409 1_556 S
C1571 H1563 0.930 . S
C1571 C1572 1.355 . S
C1571 C1573 1.415 . S
C1572 C1571 1.355 . S
C1572 C1574 1.419 . S
C1573 C1568 1.425 1_554 S
C1573 C1570 1.409 1_554 S
C1573 C1571 1.415 . S
C1574 H1564 0.930 . S
C1574 C1572 1.419 . S
C1574 C1575 1.362 . S
C1575 H1565 0.930 . S
C1575 C1568 1.409 1_554 S
C1575 C1574 1.362 . S
H1576 C1582 0.930 . S
H1577 C1585 0.930 . S
H1578 C1586 0.930 . S
H1579 C1587 0.930 . S
H1580 C1590 0.930 . S
H1581 C1591 0.930 . S
C1582 H1576 0.930 . S
C1582 C1583 1.355 . S
C1582 C1584 1.415 . S
C1583 C1582 1.355 . S
C1583 C1585 1.419 . S
C1584 C1582 1.415 . S
C1584 C1589 1.425 1_556 S
C1584 C1591 1.409 1_556 S
C1585 H1577 0.930 . S
C1585 C1583 1.419 . S
C1585 C1586 1.362 . S
C1586 H1578 0.930 . S
C1586 C1585 1.362 . S
C1586 C1589 1.409 1_556 S
C1587 H1579 0.930 . S
C1587 C1588 1.355 . S
C1587 C1589 1.415 . S
C1588 C1587 1.355 . S
C1588 C1590 1.419 . S
C1589 C1584 1.425 1_554 S
C1589 C1586 1.409 1_554 S
C1589 C1587 1.415 . S
C1590 H1580 0.930 . S
C1590 C1588 1.419 . S
C1590 C1591 1.362 . S
C1591 H1581 0.930 . S
C1591 C1584 1.409 1_554 S
C1591 C1590 1.362 . S
H1592 C1598 0.930 . S
H1593 C1601 0.930 . S
H1594 C1602 0.930 . S
H1595 C1603 0.930 . S
H1596 C1606 0.930 . S
H1597 C1607 0.930 . S
C1598 H1592 0.930 . S
C1598 C1599 1.355 . S
C1598 C1600 1.415 . S
C1599 C1598 1.355 . S
C1599 C1601 1.419 . S
C1600 C1598 1.415 . S
C1600 C1605 1.425 1_554 S
C1600 C1607 1.409 1_554 S
C1601 H1593 0.930 . S
C1601 C1599 1.419 . S
C1601 C1602 1.362 . S
C1602 H1594 0.930 . S
C1602 C1601 1.362 . S
C1602 C1605 1.409 1_554 S
C1603 H1595 0.930 . S
C1603 C1604 1.355 . S
C1603 C1605 1.415 . S
C1604 C1603 1.355 . S
C1604 C1606 1.419 . S
C1605 C1600 1.425 1_556 S
C1605 C1602 1.409 1_556 S
C1605 C1603 1.415 . S
C1606 H1596 0.930 . S
C1606 C1604 1.419 . S
C1606 C1607 1.362 . S
C1607 H1597 0.930 . S
C1607 C1600 1.409 1_556 S
C1607 C1606 1.362 . S
H1608 C1614 0.930 . S
H1609 C1617 0.930 . S
H1610 C1618 0.930 . S
H1611 C1619 0.930 . S
H1612 C1622 0.930 . S
H1613 C1623 0.930 . S
C1614 H1608 0.930 . S
C1614 C1615 1.355 . S
C1614 C1616 1.415 . S
C1615 C1614 1.355 . S
C1615 C1617 1.419 . S
C1616 C1614 1.415 . S
C1616 C1621 1.425 . S
C1616 C1623 1.409 . S
C1617 H1609 0.930 . S
C1617 C1615 1.419 . S
C1617 C1618 1.362 . S
C1618 H1610 0.930 . S
C1618 C1617 1.362 . S
C1618 C1621 1.409 . S
C1619 H1611 0.930 . S
C1619 C1620 1.355 . S
C1619 C1621 1.415 . S
C1620 C1619 1.355 . S
C1620 C1622 1.419 . S
C1621 C1616 1.425 . S
C1621 C1618 1.409 . S
C1621 C1619 1.415 . S
C1622 H1612 0.930 . S
C1622 C1620 1.419 . S
C1622 C1623 1.362 . S
C1623 H1613 0.930 . S
C1623 C1616 1.409 . S
C1623 C1622 1.362 . S
H1624 C1630 0.930 . S
H1625 C1633 0.930 . S
H1626 C1634 0.930 . S
H1627 C1635 0.930 . S
H1628 C1638 0.930 . S
H1629 C1639 0.930 . S
C1630 H1624 0.930 . S
C1630 C1631 1.355 . S
C1630 C1632 1.415 . S
C1631 C1630 1.355 . S
C1631 C1633 1.419 . S
C1632 C1630 1.415 . S
C1632 C1637 1.425 . S
C1632 C1639 1.409 . S
C1633 H1625 0.930 . S
C1633 C1631 1.419 . S
C1633 C1634 1.362 . S
C1634 H1626 0.930 . S
C1634 C1633 1.362 . S
C1634 C1637 1.409 . S
C1635 H1627 0.930 . S
C1635 C1636 1.355 . S
C1635 C1637 1.415 . S
C1636 C1635 1.355 . S
C1636 C1638 1.419 . S
C1637 C1632 1.425 . S
C1637 C1634 1.409 . S
C1637 C1635 1.415 . S
C1638 H1628 0.930 . S
C1638 C1636 1.419 . S
C1638 C1639 1.362 . S
C1639 H1629 0.930 . S
C1639 C1632 1.409 . S
C1639 C1638 1.362 . S
H1640 C1646 0.930 . S
H1641 C1649 0.930 . S
H1642 C1650 0.930 . S
H1643 C1651 0.930 . S
H1644 C1654 0.930 . S
H1645 C1655 0.930 . S
C1646 H1640 0.930 . S
C1646 C1647 1.355 . S
C1646 C1648 1.415 . S
C1647 C1646 1.355 . S
C1647 C1649 1.419 . S
C1648 C1646 1.415 . S
C1648 C1653 1.425 . S
C1648 C1655 1.409 . S
C1649 H1641 0.930 . S
C1649 C1647 1.419 . S
C1649 C1650 1.362 . S
C1650 H1642 0.930 . S
C1650 C1649 1.362 . S
C1650 C1653 1.409 . S
C1651 H1643 0.930 . S
C1651 C1652 1.355 . S
C1651 C1653 1.415 . S
C1652 C1651 1.355 . S
C1652 C1654 1.419 . S
C1653 C1648 1.425 . S
C1653 C1650 1.409 . S
C1653 C1651 1.415 . S
C1654 H1644 0.930 . S
C1654 C1652 1.419 . S
C1654 C1655 1.362 . S
C1655 H1645 0.930 . S
C1655 C1648 1.409 . S
C1655 C1654 1.362 . S
H1656 C1662 0.930 . S
H1657 C1665 0.930 . S
H1658 C1666 0.930 . S
H1659 C1667 0.930 . S
H1660 C1670 0.930 . S
H1661 C1671 0.930 . S
C1662 H1656 0.930 . S
C1662 C1663 1.355 . S
C1662 C1664 1.415 . S
C1663 C1662 1.355 . S
C1663 C1665 1.419 . S
C1664 C1662 1.415 . S
C1664 C1669 1.425 . S
C1664 C1671 1.409 . S
C1665 H1657 0.930 . S
C1665 C1663 1.419 . S
C1665 C1666 1.362 . S
C1666 H1658 0.930 . S
C1666 C1665 1.362 . S
C1666 C1669 1.409 . S
C1667 H1659 0.930 . S
C1667 C1668 1.355 . S
C1667 C1669 1.415 . S
C1668 C1667 1.355 . S
C1668 C1670 1.419 . S
C1669 C1664 1.425 . S
C1669 C1666 1.409 . S
C1669 C1667 1.415 . S
C1670 H1660 0.930 . S
C1670 C1668 1.419 . S
C1670 C1671 1.362 . S
C1671 H1661 0.930 . S
C1671 C1664 1.409 . S
C1671 C1670 1.362 . S
H1672 C1678 0.930 . S
H1673 C1681 0.930 . S
H1674 C1682 0.930 . S
H1675 C1683 0.930 . S
H1676 C1686 0.930 . S
H1677 C1687 0.930 . S
C1678 H1672 0.930 . S
C1678 C1679 1.355 . S
C1678 C1680 1.415 . S
C1679 C1678 1.355 . S
C1679 C1681 1.419 . S
C1680 C1678 1.415 . S
C1680 C1685 1.425 . S
C1680 C1687 1.409 . S
C1681 H1673 0.930 . S
C1681 C1679 1.419 . S
C1681 C1682 1.362 . S
C1682 H1674 0.930 . S
C1682 C1681 1.362 . S
C1682 C1685 1.409 . S
C1683 H1675 0.930 . S
C1683 C1684 1.355 . S
C1683 C1685 1.415 . S
C1684 C1683 1.355 . S
C1684 C1686 1.419 . S
C1685 C1680 1.425 . S
C1685 C1682 1.409 . S
C1685 C1683 1.415 . S
C1686 H1676 0.930 . S
C1686 C1684 1.419 . S
C1686 C1687 1.362 . S
C1687 H1677 0.930 . S
C1687 C1680 1.409 . S
C1687 C1686 1.362 . S
H1688 C1694 0.930 . S
H1689 C1697 0.930 . S
H1690 C1698 0.930 . S
H1691 C1699 0.930 . S
H1692 C1702 0.930 . S
H1693 C1703 0.930 . S
C1694 H1688 0.930 . S
C1694 C1695 1.355 . S
C1694 C1696 1.415 . S
C1695 C1694 1.355 . S
C1695 C1697 1.419 . S
C1696 C1694 1.415 . S
C1696 C1701 1.425 . S
C1696 C1703 1.409 . S
C1697 H1689 0.930 . S
C1697 C1695 1.419 . S
C1697 C1698 1.362 . S
C1698 H1690 0.930 . S
C1698 C1697 1.362 . S
C1698 C1701 1.409 . S
C1699 H1691 0.930 . S
C1699 C1700 1.355 . S
C1699 C1701 1.415 . S
C1700 C1699 1.355 . S
C1700 C1702 1.419 . S
C1701 C1696 1.425 . S
C1701 C1698 1.409 . S
C1701 C1699 1.415 . S
C1702 H1692 0.930 . S
C1702 C1700 1.419 . S
C1702 C1703 1.362 . S
C1703 H1693 0.930 . S
C1703 C1696 1.409 . S
C1703 C1702 1.362 . S
C559 C203 1.938 . S
C564 C19 1.999 . S
C575 C42 1.971 . S
C580 C226 1.945 . S
C591 C65 1.995 . S
C596 C249 1.937 . S
C607 C88 2.012 . S
C612 C272 1.943 . S
C623 C111 1.966 . S
C628 C157 1.948 . S
C639 C180 1.960 . S
C644 C134 1.952 . S
C655 C479 1.984 . S
C660 C295 1.939 . S
C671 C502 1.983 . S
C676 C318 2.017 . S
C687 C525 1.987 . S
C692 C341 1.938 . S
C703 C364 2.009 . S
C708 C548 1.995 . S
C719 C433 2.010 . S
C724 C387 1.994 . S
C735 C456 1.937 . S
C740 C410 1.994 . S
C751 C16 2.071 . S
C756 C85 2.068 . S
C767 C108 2.123 . S
C772 C39 2.121 . S
C783 C62 2.080 . S
C788 C131 2.077 . S
C799 C154 2.121 . S
C804 C223 2.123 . S
C815 C177 2.123 . S
C820 C246 2.125 . S
C831 C200 2.065 . S
C836 C269 2.065 . S
C847 C361 2.069 . S
C852 C292 2.071 . S
C863 C315 2.126 . S
C868 C384 2.125 . S
C879 C407 2.125 . S
C884 C338 2.124 . S
C895 C430 2.120 . S
C900 C499 2.117 . S
C911 C453 2.116 . S
C916 C522 2.119 . S
C927 C545 2.125 . S
C932 C476 2.124 . S
C943 C18 0.786 . S
C948 C248 0.683 . S
C959 C271 0.847 . S
C964 C41 0.752 . S
C975 C64 0.680 . S
C980 C156 0.781 . S
C991 C87 0.684 . S
C996 C179 0.658 . S
C1007 C202 0.751 . S
C1012 C110 0.846 . S
C1023 C225 0.867 . S
C1028 C133 0.799 . S
C1039 C294 0.681 . S
C1044 C524 0.660 . S
C1055 C317 0.827 . S
C1060 C547 0.871 . S
C1071 C340 0.853 . S
C1076 C432 0.864 . S
C1087 C363 0.855 . S
C1092 C455 0.862 . S
C1103 C478 0.655 . S
C1108 C386 0.726 . S
C1119 C501 0.773 . S
C1124 C409 0.674 . S
C1135 C17 1.090 . S
C1140 C112 1.066 . S
C1151 C135 1.083 . S
C1156 C40 1.098 . S
C1167 C63 1.099 . S
C1172 C20 1.091 . S
C1183 C43 1.067 . S
C1188 C86 1.091 . S
C1199 C66 1.021 . S
C1204 C109 1.055 . S
C1215 C89 1.023 . S
C1220 C132 1.057 . S
C1231 C155 1.099 . S
C1236 C204 1.094 . S
C1247 C227 1.061 . S
C1252 C178 1.045 . S
C1263 C201 1.057 . S
C1268 C250 1.074 . S
C1279 C224 1.040 . S
C1284 C273 1.054 . S
C1295 C158 1.033 . S
C1300 C247 1.027 . S
C1311 C270 1.038 . S
C1316 C181 1.009 . S
C1327 C293 1.097 . S
C1332 C388 1.096 . S
C1343 C411 1.065 . S
C1348 C316 1.049 . S
C1359 C296 1.008 . S
C1364 C339 1.024 . S
C1375 C362 1.043 . S
C1380 C319 1.057 . S
C1391 C342 1.008 . S
C1396 C385 1.024 . S
C1407 C408 1.083 . S
C1412 C365 1.095 . S
C1423 C431 1.030 . S
C1428 C480 1.038 . S
C1439 C503 1.044 . S
C1444 C454 1.076 . S
C1455 C526 1.046 . S
C1460 C477 1.035 . S
C1471 C500 1.099 . S
C1476 C549 1.091 . S
C1487 C434 1.082 . S
C1492 C523 1.098 . S
C1503 C546 1.061 . S
C1508 C457 1.079 . S
C1519 C366 1.390 . S
C1524 C21 1.442 . S
C1535 C389 1.435 . S
C1540 C44 1.397 . S
C1551 C67 1.426 . S
C1556 C412 1.406 . S
C1567 C297 1.387 . S
C1572 C90 1.445 . S
C1583 C320 1.405 . S
C1588 C113 1.427 . S
C1599 C136 1.404 . S
C1604 C343 1.428 . S
C1615 C504 1.405 . S
C1620 C159 1.427 . S
C1631 C527 1.427 . S
C1636 C182 1.405 . S
C1647 C205 1.446 . S
C1652 C550 1.386 . S
C1663 C435 1.442 . S
C1668 C228 1.390 . S
C1679 C251 1.397 . S
C1684 C458 1.435 . S
C1695 C481 1.447 . S
C1700 C274 1.385 . S
