# Generated by pormake.
# Topology can, (4)-cn, num edge types: 1
# Building blocks:
#     Node 0, Type 0, BuildingBlock: KUFVIS_clean_sbu_0, # of connection points: 4
#     Node 1, Type 0, BuildingBlock: KUFVIS_clean_sbu_0, # of connection points: 4
#     Node 2, Type 0, BuildingBlock: KUFVIS_clean_sbu_0, # of connection points: 4
#     Node 3, Type 0, BuildingBlock: KUFVIS_clean_sbu_0, # of connection points: 4
#     Node 4, Type 0, BuildingBlock: KUFVIS_clean_sbu_0, # of connection points: 4
#     Node 5, Type 0, BuildingBlock: KUFVIS_clean_sbu_0, # of connection points: 4
#     Node 6, Type 0, BuildingBlock: KUFVIS_clean_sbu_0, # of connection points: 4
#     Node 7, Type 0, BuildingBlock: KUFVIS_clean_sbu_0, # of connection points: 4
#     Node 8, Type 0, BuildingBlock: KUFVIS_clean_sbu_0, # of connection points: 4
#     Node 9, Type 0, BuildingBlock: KUFVIS_clean_sbu_0, # of connection points: 4
#     Node 10, Type 0, BuildingBlock: KUFVIS_clean_sbu_0, # of connection points: 4
#     Node 11, Type 0, BuildingBlock: KUFVIS_clean_sbu_0, # of connection points: 4
#     Edge 12, Type (0, 0), BuildingBlock: EZIPEK_clean_linker_0, # of connection points: 2
#     Edge 13, Type (0, 0), BuildingBlock: EZIPEK_clean_linker_0, # of connection points: 2
#     Edge 14, Type (0, 0), BuildingBlock: EZIPEK_clean_linker_0, # of connection points: 2
#     Edge 15, Type (0, 0), BuildingBlock: EZIPEK_clean_linker_0, # of connection points: 2
#     Edge 16, Type (0, 0), BuildingBlock: EZIPEK_clean_linker_0, # of connection points: 2
#     Edge 17, Type (0, 0), BuildingBlock: EZIPEK_clean_linker_0, # of connection points: 2
#     Edge 18, Type (0, 0), BuildingBlock: EZIPEK_clean_linker_0, # of connection points: 2
#     Edge 19, Type (0, 0), BuildingBlock: EZIPEK_clean_linker_0, # of connection points: 2
#     Edge 20, Type (0, 0), BuildingBlock: EZIPEK_clean_linker_0, # of connection points: 2
#     Edge 21, Type (0, 0), BuildingBlock: EZIPEK_clean_linker_0, # of connection points: 2
#     Edge 22, Type (0, 0), BuildingBlock: EZIPEK_clean_linker_0, # of connection points: 2
#     Edge 23, Type (0, 0), BuildingBlock: EZIPEK_clean_linker_0, # of connection points: 2
#     Edge 24, Type (0, 0), BuildingBlock: EZIPEK_clean_linker_0, # of connection points: 2
#     Edge 25, Type (0, 0), BuildingBlock: EZIPEK_clean_linker_0, # of connection points: 2
#     Edge 26, Type (0, 0), BuildingBlock: EZIPEK_clean_linker_0, # of connection points: 2
#     Edge 27, Type (0, 0), BuildingBlock: EZIPEK_clean_linker_0, # of connection points: 2
#     Edge 28, Type (0, 0), BuildingBlock: EZIPEK_clean_linker_0, # of connection points: 2
#     Edge 29, Type (0, 0), BuildingBlock: EZIPEK_clean_linker_0, # of connection points: 2
#     Edge 30, Type (0, 0), BuildingBlock: EZIPEK_clean_linker_0, # of connection points: 2
#     Edge 31, Type (0, 0), BuildingBlock: EZIPEK_clean_linker_0, # of connection points: 2
#     Edge 32, Type (0, 0), BuildingBlock: EZIPEK_clean_linker_0, # of connection points: 2
#     Edge 33, Type (0, 0), BuildingBlock: EZIPEK_clean_linker_0, # of connection points: 2
#     Edge 34, Type (0, 0), BuildingBlock: EZIPEK_clean_linker_0, # of connection points: 2
#     Edge 35, Type (0, 0), BuildingBlock: EZIPEK_clean_linker_0, # of connection points: 2
# Relax obj value: 0.069
# Max RMSD: 0.070
# Mean RMSD: 0.064
data_MOF--net-can--node1-KUFVIS_clean_sbu_0--edge1-EZIPEK_clean_linker_0
_symmetry_space_group_name_H-M    P1
_symmetry_Int_Tables_number       1
_symmetry_cell_setting            triclinic
loop_
_symmetry_equiv_pos_as_xyz
'x, y, z'
_cell_length_a     39.639243
_cell_length_b     40.24258
_cell_length_c     19.637654
_cell_angle_alpha  90.079372
_cell_angle_beta   89.879414
_cell_angle_gamma 119.41303
loop_
_atom_site_label
_atom_site_type_symbol
_atom_site_fract_x
_atom_site_fract_y
_atom_site_fract_z
_atom_type_partial_charge
Mn0 Mn 0.06677 0.40623 0.25737 0.0
Mn1 Mn 0.13323 0.47825 0.35345 0.0
C2 C 0.0623 0.46131 0.27282 0.0
C3 C 0.04416 0.37597 0.15326 0.0
C4 C 0.06591 0.40622 0.41364 0.0
O5 O 0.11077 0.39395 0.26048 0.0
O6 O 0.15274 0.44293 0.32554 0.0
C7 C 0.19265 0.51421 0.24518 0.0
N8 N 0.16869 0.51672 0.29231 0.0
C9 C 0.19054 0.58213 0.26203 0.0
C10 C 0.21549 0.58021 0.21346 0.0
C11 C 0.21645 0.54605 0.20488 0.0
C12 C 0.16713 0.54931 0.30017 0.0
H13 H 0.19366 0.48813 0.2381 0.0
C14 C 0.14359 0.41321 0.28923 0.0
O15 O 0.03282 0.35722 0.21009 0.0
O16 O 0.07072 0.41154 0.15699 0.0
N17 N 0.12003 0.51603 0.38227 0.0
C18 C 0.09853 0.51509 0.43708 0.0
C19 C 0.09405 0.54682 0.45219 0.0
C20 C 0.11396 0.58027 0.41353 0.0
C21 C 0.13906 0.58196 0.36163 0.0
C22 C 0.14147 0.54899 0.34789 0.0
H23 H 0.08655 0.49108 0.4709 0.0
O24 O 0.03224 0.42933 0.25575 0.0
O25 O 0.09419 0.45992 0.28104 0.0
O26 O 0.0524 0.38975 0.35676 0.0
O27 O 0.09582 0.43952 0.41901 0.0
C28 C 0.16254 0.61536 0.32424 0.0
C29 C 0.1881 0.61539 0.27419 0.0
H30 H 0.23403 0.60478 0.18251 0.0
H31 H 0.23556 0.54429 0.1674 0.0
H32 H 0.07627 0.54588 0.49483 0.0
H33 H 0.11093 0.60493 0.42584 0.0
H34 H 0.16139 0.64129 0.33396 0.0
H35 H 0.20592 0.64122 0.24561 0.0
Mn36 Mn 0.67242 0.06508 0.73785 0.0
Mn37 Mn 0.73597 0.03317 0.75977 0.0
C38 C 0.69275 0.04444 0.64227 0.0
C39 C 0.60919 0.05451 0.74295 0.0
C40 C 0.75869 0.11741 0.76172 0.0
O41 O 0.67051 0.0555 0.84039 0.0
O42 O 0.7061 0.02599 0.84608 0.0
C43 C 0.68358 0.95058 0.78267 0.0
N44 N 0.71207 0.97925 0.74573 0.0
C45 C 0.72156 0.93427 0.67918 0.0
C46 C 0.69137 0.90427 0.71498 0.0
C47 C 0.67223 0.91249 0.76693 0.0
C48 C 0.73045 0.97163 0.69524 0.0
H49 H 0.67006 0.95673 0.8244 0.0
C50 C 0.68348 0.03672 0.87277 0.0
O51 O 0.63873 0.08833 0.75019 0.0
O52 O 0.61609 0.02662 0.73115 0.0
N53 N 0.76643 0.03749 0.68123 0.0
C54 C 0.7967 0.06968 0.65487 0.0
C55 C 0.82171 0.06651 0.60812 0.0
C56 C 0.81575 0.03034 0.58981 0.0
C57 C 0.78371 0.99756 0.61552 0.0
C58 C 0.75982 1.00248 0.6622 0.0
H59 H 0.80267 0.09765 0.67112 0.0
O60 O 0.67741 0.06633 0.63632 0.0
O61 O 0.6952 0.03469 0.70473 0.0
O62 O 0.7256 0.11301 0.74594 0.0
O63 O 0.76473 0.08951 0.77343 0.0
C64 C 0.7758 0.96025 0.59959 0.0
C65 C 0.74416 0.9286 0.63011 0.0
H66 H 0.68325 0.87488 0.70407 0.0
H67 H 0.6494 0.88956 0.79583 0.0
H68 H 0.84637 0.09191 0.5882 0.0
H69 H 0.83673 0.02819 0.55772 0.0
H70 H 0.79418 0.95543 0.56488 0.0
H71 H 0.73834 0.90008 0.61729 0.0
Mn72 Mn 0.60564 0.67008 0.23221 0.0
Mn73 Mn 0.70226 0.72711 0.22065 0.0
C74 C 0.63535 0.68053 0.12651 0.0
C75 C 0.5539 0.60834 0.25428 0.0
C76 C 0.64519 0.7565 0.24432 0.0
O77 O 0.62482 0.67328 0.32973 0.0
O78 O 0.68942 0.70342 0.3134 0.0
C79 C 0.72972 0.67091 0.23349 0.0
N80 N 0.72707 0.69822 0.19662 0.0
C81 C 0.76518 0.69318 0.10581 0.0
C82 C 0.76843 0.66516 0.14294 0.0
C83 C 0.75051 0.6539 0.20695 0.0
C84 C 0.74411 0.70916 0.13487 0.0
H85 H 0.71602 0.66206 0.28272 0.0
C86 C 0.65926 0.68406 0.35038 0.0
O87 O 0.55045 0.63859 0.26258 0.0
O88 O 0.5868 0.61449 0.23014 0.0
N89 N 0.71807 0.74992 0.1324 0.0
C90 C 0.7125 0.7775 0.10306 0.0
C91 C 0.72742 0.79089 0.03775 0.0
C92 C 0.74851 0.77628 1.00369 0.0
C93 C 0.75485 0.7487 0.03562 0.0
C94 C 0.73916 0.73636 0.1007 0.0
H95 H 0.69682 0.78924 0.12919 0.0
O96 O 0.5985 0.66885 0.13119 0.0
O97 O 0.65349 0.6865 0.18413 0.0
O98 O 0.61415 0.72455 0.23815 0.0
O99 O 0.67915 0.7601 0.24337 0.0
C100 C 0.77615 0.733 1.00539 0.0
C101 C 0.78147 0.7054 0.04059 0.0
H102 H 0.7843 0.65184 0.1225 0.0
H103 H 0.75271 0.63214 0.23577 0.0
H104 H 0.72272 0.81247 0.01377 0.0
H105 H 0.75994 0.78665 0.95327 0.0
H106 H 0.78853 0.74192 0.95504 0.0
H107 H 0.79773 0.69339 0.01668 0.0
Mn108 Mn 0.96009 0.6149 0.7576 0.0
Mn109 Mn 0.89257 0.54636 0.85807 0.0
C110 C 0.96296 0.55956 0.78096 0.0
C111 C 0.98389 0.64198 0.65121 0.0
C112 C 0.96016 0.61903 0.91388 0.0
O113 O 0.91674 0.62826 0.75608 0.0
O114 O 0.87395 0.58117 0.82378 0.0
C115 C 0.83447 0.50719 0.74939 0.0
N116 N 0.85726 0.50599 0.80011 0.0
C117 C 0.83469 0.43939 0.77944 0.0
C118 C 0.81083 0.43989 0.72731 0.0
C119 C 0.81081 0.47397 0.71212 0.0
C120 C 0.85791 0.47347 0.81445 0.0
H121 H 0.83443 0.53331 0.73716 0.0
C122 C 0.88379 0.6102 0.78525 0.0
O123 O 0.99529 0.66222 0.70649 0.0
O124 O 0.95681 0.60675 0.65744 0.0
N125 N 0.90525 0.50971 0.89423 0.0
C126 C 0.92814 0.51346 0.94868 0.0
C127 C 0.92987 0.48148 0.97273 0.0
C128 C 0.90787 0.44592 0.94092 0.0
C129 C 0.88389 0.44256 0.88595 0.0
C130 C 0.88275 0.47526 0.86512 0.0
H131 H 0.94485 0.54059 0.9739 0.0
O132 O 0.99372 0.5905 0.76205 0.0
O133 O 0.93164 0.5621 0.78631 0.0
O134 O 0.97358 0.63424 0.85602 0.0
O135 O 0.92969 0.58642 0.92051 0.0
C136 C 0.86069 0.40792 0.85161 0.0
C137 C 0.83638 0.40642 0.79795 0.0
H138 H 0.79246 0.41429 0.69855 0.0
H139 H 0.79259 0.47464 0.67178 0.0
H140 H 0.94823 0.48426 0.01554 0.0
H141 H 0.90958 0.4214 0.95917 0.0
H142 H 0.8613 0.38226 0.86611 0.0
H143 H 0.8188 0.37966 0.77172 0.0
Mn144 Mn 0.35864 0.955 0.23971 0.0
Mn145 Mn 0.2937 0.98523 0.26117 0.0
C146 C 0.33826 0.97516 0.14389 0.0
C147 C 0.42222 0.96672 0.24662 0.0
C148 C 0.2727 0.90141 0.26343 0.0
O149 O 0.3595 0.96422 0.34217 0.0
O150 O 0.32363 0.99341 0.34745 0.0
C151 C 0.3446 0.06817 0.28327 0.0
N152 N 0.31651 0.03902 0.24659 0.0
C153 C 0.30548 0.08295 0.18019 0.0
C154 C 0.33529 0.11345 0.21563 0.0
C155 C 0.35501 0.106 0.26736 0.0
C156 C 0.29763 0.0459 0.19624 0.0
H157 H 0.35849 0.06257 0.32492 0.0
C158 C 0.34631 0.98291 0.37435 0.0
O159 O 0.39296 0.93266 0.25334 0.0
O160 O 0.41481 0.99421 0.23419 0.0
N161 N 0.26301 0.97994 0.18266 0.0
C162 C 0.23311 0.94731 0.15685 0.0
C163 C 0.20744 0.94963 0.11072 0.0
C164 C 0.21236 0.98541 0.0925 0.0
C165 C 0.24405 0.01867 0.11756 0.0
C166 C 0.26867 0.0146 0.16358 0.0
H167 H 0.22787 0.91961 0.17319 0.0
O168 O 0.35439 0.95393 0.13811 0.0
O169 O 0.33513 0.98459 0.20632 0.0
O170 O 0.30597 0.90648 0.24696 0.0
O171 O 0.26599 0.92888 0.27552 0.0
C172 C 0.25087 0.05564 0.1018 0.0
C173 C 0.28219 0.08779 0.13169 0.0
H174 H 0.34262 0.14262 0.2047 0.0
H175 H 0.37752 0.12929 0.29605 0.0
H176 H 0.18305 0.92386 0.09128 0.0
H177 H 0.19087 0.98689 0.06094 0.0
H178 H 0.23186 0.0598 0.06775 0.0
H179 H 0.28717 0.11604 0.11899 0.0
Mn180 Mn 0.41923 0.34683 0.72948 0.0
Mn181 Mn 0.32228 0.29117 0.72735 0.0
C182 C 0.38634 0.33544 0.62696 0.0
C183 C 0.47333 0.40749 0.74021 0.0
C184 C 0.37878 0.26063 0.7453 0.0
O185 O 0.4034 0.34554 0.8292 0.0
O186 O 0.33847 0.31646 0.81836 0.0
C187 C 0.29642 0.3485 0.74276 0.0
N188 N 0.29757 0.32042 0.70565 0.0
C189 C 0.25805 0.32541 0.61779 0.0
C190 C 0.25643 0.35432 0.65512 0.0
C191 C 0.27576 0.36594 0.71781 0.0
C192 C 0.27903 0.309 0.64528 0.0
H193 H 0.31126 0.35767 0.79094 0.0
C194 C 0.36966 0.33586 0.85278 0.0
O195 O 0.47565 0.37685 0.75132 0.0
O196 O 0.43943 0.4028 0.72546 0.0
N197 N 0.3036 0.26705 0.6408 0.0
C198 C 0.30763 0.23856 0.61116 0.0
C199 C 0.29092 0.22449 0.54718 0.0
C200 C 0.26972 0.23941 0.51477 0.0
C201 C 0.26502 0.26796 0.54705 0.0
C202 C 0.28237 0.28089 0.61081 0.0
H203 H 0.32354 0.22669 0.63593 0.0
O204 O 0.42301 0.34617 0.62797 0.0
O205 O 0.37007 0.33084 0.68631 0.0
O206 O 0.40981 0.29216 0.73589 0.0
O207 O 0.3451 0.25766 0.74794 0.0
C208 C 0.2438 0.2841 0.5184 0.0
C209 C 0.24018 0.31269 0.55387 0.0
H210 H 0.24069 0.36799 0.63588 0.0
H211 H 0.27477 0.38835 0.7468 0.0
H212 H 0.2944 0.20219 0.52291 0.0
H213 H 0.25696 0.22855 0.46532 0.0
H214 H 0.23017 0.27475 0.46907 0.0
H215 H 0.22395 0.32501 0.53118 0.0
Mn216 Mn 0.61885 0.95674 0.28608 0.0
Mn217 Mn 0.71397 0.9878 0.26324 0.0
C218 C 0.6597 0.97692 0.3814 0.0
C219 C 0.56674 0.96806 0.28167 0.0
C220 C 0.65204 0.90379 0.26097 0.0
O221 O 0.6265 0.96639 0.18359 0.0
O222 O 0.69149 0.99556 0.17733 0.0
C223 C 0.74492 0.0706 0.24111 0.0
N224 N 0.74436 0.04164 0.27772 0.0
C225 C 0.79892 0.08602 0.34427 0.0
C226 C 0.79909 0.11632 0.30889 0.0
C227 C 0.77188 0.10854 0.25709 0.0
C228 C 0.77023 0.04883 0.32804 0.0
H229 H 0.72539 0.06477 0.19944 0.0
C230 C 0.65818 0.98509 0.15098 0.0
O231 O 0.56209 0.93407 0.27417 0.0
O232 O 0.60157 0.99568 0.29336 0.0
N233 N 0.73987 0.9829 0.34139 0.0
C234 C 0.73759 0.95046 0.36733 0.0
C235 C 0.76558 0.95315 0.41383 0.0
C236 C 0.79597 0.9891 0.4323 0.0
C237 C 0.7971 0.02216 0.407 0.0
C238 C 0.76843 0.01771 0.36063 0.0
H239 H 0.71545 0.92264 0.35096 0.0
O240 O 0.62249 0.95526 0.38748 0.0
O241 O 0.67196 0.98667 0.3189 0.0
O242 O 0.62359 0.90849 0.27746 0.0
O243 O 0.68601 0.93149 0.24903 0.0
C244 C 0.82672 0.05929 0.42304 0.0
C245 C 0.82706 0.09122 0.39302 0.0
H246 H 0.82053 0.14558 0.31995 0.0
H247 H 0.77226 0.13169 0.22847 0.0
H248 H 0.76454 0.92754 0.43345 0.0
H249 H 0.81891 0.99087 0.46429 0.0
H250 H 0.84984 0.06375 0.45745 0.0
H251 H 0.84993 0.1196 0.40593 0.0
Mn252 Mn 0.66928 0.61283 0.75938 0.0
Mn253 Mn 0.67014 0.54396 0.66165 0.0
C254 C 0.61169 0.55667 0.7379 0.0
C255 C 0.67288 0.64076 0.86505 0.0
C256 C 0.67317 0.61558 0.60305 0.0
O257 O 0.72648 0.62774 0.75983 0.0
O258 O 0.72317 0.5804 0.69416 0.0
C259 C 0.69186 0.50855 0.77323 0.0
N260 N 0.66683 0.50543 0.72288 0.0
C261 C 0.62385 0.43958 0.75102 0.0
C262 C 0.64925 0.44211 0.80287 0.0
C263 C 0.68337 0.47677 0.81407 0.0
C264 C 0.63363 0.47235 0.71242 0.0
H265 H 0.71806 0.53509 0.78255 0.0
C266 C 0.74196 0.61 0.73138 0.0
O267 O 0.6808 0.6604 0.80917 0.0
O268 O 0.66547 0.60568 0.85962 0.0
N269 N 0.62131 0.50513 0.62728 0.0
C270 C 0.60361 0.50539 0.56812 0.0
C271 C 0.56979 0.47253 0.54747 0.0
C272 C 0.55567 0.43891 0.58588 0.0
C273 C 0.57631 0.43823 0.64318 0.0
C274 C 0.60977 0.47204 0.66128 0.0
H275 H 0.61639 0.52982 0.53517 0.0
O276 O 0.61137 0.58741 0.75672 0.0
O277 O 0.64585 0.5598 0.73212 0.0
O278 O 0.67329 0.63065 0.66035 0.0
O279 O 0.67171 0.58306 0.59685 0.0
C280 C 0.5657 0.40502 0.68166 0.0
C281 C 0.58927 0.40579 0.736 0.0
H282 H 0.64288 0.41761 0.83431 0.0
H283 H 0.7031 0.479 0.85411 0.0
H284 H 0.55518 0.47284 0.50117 0.0
H285 H 0.52969 0.4135 0.56967 0.0
H286 H 0.53973 0.37862 0.66936 0.0
H287 H 0.58089 0.38005 0.76513 0.0
Mn288 Mn 0.08015 0.66956 0.28386 0.0
Mn289 Mn 0.04582 0.7312 0.29677 0.0
C290 C 0.06067 0.67983 0.38958 0.0
C291 C 0.06801 0.60735 0.25939 0.0
C292 C 0.13116 0.75548 0.27439 0.0
O293 O 0.06629 0.67526 0.1863 0.0
O294 O 0.0327 0.70647 0.20421 0.0
C295 C 0.96048 0.68581 0.28351 0.0
N296 N 0.9923 0.70672 0.32277 0.0
C297 C 0.95231 0.70373 0.4177 0.0
C298 C 0.91925 0.67991 0.37962 0.0
C299 C 0.92336 0.67132 0.31188 0.0
C300 C 0.98858 0.71689 0.38683 0.0
H301 H 0.96338 0.6814 0.23035 0.0
C302 C 0.04315 0.68685 0.16656 0.0
O303 O 0.10229 0.63689 0.25341 0.0
O304 O 0.04132 0.61437 0.28127 0.0
N305 N 0.05569 0.7543 0.3854 0.0
C306 C 0.09001 0.78076 0.41297 0.0
C307 C 0.09085 0.79402 0.47945 0.0
C308 C 0.05628 0.7805 0.51657 0.0
C309 C 0.02111 0.75436 0.48636 0.0
C310 C 0.02213 0.74198 0.42004 0.0
H311 H 0.11658 0.79185 0.38455 0.0
O312 O 0.08416 0.66609 0.38472 0.0
O313 O 0.04998 0.68778 0.33209 0.0
O314 O 0.12828 0.72274 0.28214 0.0
O315 O 0.10188 0.76077 0.27229 0.0
C316 C 0.98505 0.74048 0.5192 0.0
C317 C 0.95065 0.71535 0.48475 0.0
H318 H 0.89057 0.66894 0.40126 0.0
H319 H 0.89797 0.65421 0.28117 0.0
H320 H 0.11808 0.81468 0.50193 0.0
H321 H 0.05702 0.79083 0.56782 0.0
H322 H 0.9834 0.74936 0.57062 0.0
H323 H 0.92304 0.70529 0.51014 0.0
Mn324 Mn 0.41148 0.06407 0.78654 0.0
Mn325 Mn 0.31563 0.03012 0.76642 0.0
C326 C 0.37126 0.04286 0.88291 0.0
C327 C 0.46497 0.05469 0.77918 0.0
C328 C 0.37554 0.11481 0.76306 0.0
O329 O 0.40315 0.05434 0.68423 0.0
O330 O 0.33809 0.02297 0.67982 0.0
C331 C 0.28696 0.94765 0.74472 0.0
N332 N 0.28666 0.97623 0.78136 0.0
C333 C 0.23249 0.93102 0.84788 0.0
C334 C 0.23321 0.90112 0.81246 0.0
C335 C 0.26068 0.9095 0.7607 0.0
C336 C 0.26061 0.96846 0.83175 0.0
H337 H 0.30665 0.95391 0.70305 0.0
C338 C 0.37142 0.03464 0.65248 0.0
O339 O 0.46832 0.08821 0.77223 0.0
O340 O 0.43063 0.02645 0.7921 0.0
N341 N 0.28961 0.03432 0.84526 0.0
C342 C 0.29104 0.06639 0.87133 0.0
C343 C 0.26259 0.06301 0.91764 0.0
C344 C 0.23264 0.02674 0.93581 0.0
C345 C 0.23248 0.99409 0.9106 0.0
C346 C 0.26156 0.99922 0.86442 0.0
H347 H 0.31279 0.09442 0.85507 0.0
O348 O 0.40839 0.0653 0.88819 0.0
O349 O 0.35876 0.0329 0.82067 0.0
O350 O 0.40476 0.11129 0.77899 0.0
O351 O 0.34198 0.08634 0.75171 0.0
C352 C 0.20337 0.95668 0.92642 0.0
C353 C 0.20397 0.92516 0.89647 0.0
H354 H 0.21224 0.87168 0.82345 0.0
H355 H 0.26097 0.88665 0.73204 0.0
H356 H 0.2629 0.08831 0.93724 0.0
H357 H 0.20927 0.02439 0.96747 0.0
H358 H 0.17991 0.95169 0.96059 0.0
H359 H 0.18149 0.89657 0.90923 0.0
Mn360 Mn 0.35572 0.40584 0.26289 0.0
Mn361 Mn 0.35998 0.47674 0.16468 0.0
C362 C 0.4147 0.46124 0.24604 0.0
C363 C 0.34905 0.37635 0.3678 0.0
C364 C 0.35581 0.40441 0.10645 0.0
O365 O 0.29929 0.39313 0.26026 0.0
O366 O 0.30556 0.44145 0.19393 0.0
C367 C 0.33663 0.5136 0.27168 0.0
N368 N 0.3629 0.51578 0.22443 0.0
C369 C 0.40595 0.58169 0.25205 0.0
C370 C 0.37928 0.58012 0.3007 0.0
C371 C 0.34452 0.54588 0.31068 0.0
C372 C 0.39669 0.54846 0.21521 0.0
H373 H 0.30982 0.48746 0.27984 0.0
C374 C 0.2854 0.41208 0.2312 0.0
O375 O 0.34152 0.35729 0.31128 0.0
O376 O 0.35758 0.4118 0.3634 0.0
N377 N 0.41058 0.51443 0.13457 0.0
C378 C 0.43107 0.51295 0.0801 0.0
C379 C 0.46699 0.54465 0.06394 0.0
C380 C 0.48033 0.57858 0.10118 0.0
C381 C 0.457 0.58073 0.15274 0.0
C382 C 0.42189 0.54779 0.16756 0.0
H383 H 0.41921 0.48847 0.04736 0.0
O384 O 0.41337 0.42958 0.26384 0.0
O385 O 0.38122 0.45935 0.23779 0.0
O386 O 0.35334 0.38853 0.16379 0.0
O387 O 0.35873 0.4375 0.10025 0.0
C388 C 0.46679 0.61452 0.18888 0.0
C389 C 0.44135 0.61496 0.2387 0.0
H390 H 0.38521 0.60501 0.3307 0.0
H391 H 0.32381 0.54438 0.34825 0.0
H392 H 0.48379 0.54329 0.02158 0.0
H393 H 0.50782 0.60319 0.0881 0.0
H394 H 0.4937 0.6404 0.17846 0.0
H395 H 0.44926 0.64108 0.26634 0.0
Mn396 Mn 0.94685 0.35 0.79169 0.0
Mn397 Mn 0.98662 0.29282 0.79246 0.0
C398 C 0.96776 0.3375 0.89369 0.0
C399 C 0.95465 0.4113 0.78151 0.0
C400 C 0.89993 0.26386 0.77545 0.0
O401 O 0.96091 0.34851 0.69185 0.0
O402 O 0.99598 0.3185 0.70187 0.0
C403 C 0.06995 0.34921 0.77725 0.0
N404 N 0.04058 0.3212 0.81405 0.0
C405 C 0.08483 0.32497 0.90139 0.0
C406 C 0.11551 0.35379 0.86438 0.0
C407 C 0.10801 0.36599 0.8021 0.0
C408 C 0.0475 0.30924 0.87404 0.0
H409 H 0.06444 0.35882 0.7294 0.0
C410 C 0.98453 0.33834 0.66788 0.0
O411 O 0.92142 0.38105 0.7705 0.0
O412 O 0.98345 0.40587 0.79591 0.0
N413 N 0.98091 0.26818 0.87853 0.0
C414 C 0.94828 0.2398 0.90784 0.0
C415 C 0.95074 0.22514 0.97133 0.0
C416 C 0.9868 0.23935 1.00357 0.0
C417 C 0.02016 0.26777 0.97158 0.0
C418 C 0.01592 0.28129 0.90828 0.0
H419 H 0.92051 0.22852 0.88327 0.0
O420 O 0.94253 0.34918 0.89315 0.0
O421 O 0.97928 0.33288 0.83421 0.0
O422 O 0.90101 0.2957 0.78514 0.0
O423 O 0.93026 0.26026 0.77208 0.0
C424 C 0.05746 0.28319 1.00005 0.0
C425 C 0.08979 0.31167 0.96487 0.0
H426 H 0.14488 0.36695 0.88354 0.0
H427 H 0.13151 0.38833 0.77335 0.0
H428 H 0.92487 0.20296 0.99537 0.0
H429 H 0.98856 0.22805 0.05265 0.0
H430 H 0.0616 0.27338 0.04903 0.0
H431 H 0.1183 0.32345 0.98744 0.0
C432 C 0.98419 0.33658 0.0822 0.0
C433 C 0.02517 0.35931 0.08712 0.0
C434 C 0.02916 0.36686 0.96334 0.0
C435 C 0.98886 0.3407 0.95791 0.0
N436 N 0.93026 0.29371 0.01232 0.0
N437 N 0.08697 0.38595 0.02999 0.0
C438 C 0.96728 0.32302 0.01745 0.0
C439 C 0.04776 0.37097 0.02679 0.0
N440 N 0.96076 0.33078 0.13729 0.0
N441 N 0.04939 0.38982 0.90996 0.0
H442 H 0.10106 0.38668 0.07516 0.0
H443 H 0.10457 0.39319 0.9869 0.0
H444 H 0.03698 0.38955 0.86319 0.0
H445 H 0.07791 0.41181 0.91445 0.0
H446 H 0.9307 0.31758 0.13356 0.0
H447 H 0.9707 0.34296 0.18488 0.0
H448 H 0.91445 0.27733 0.05389 0.0
H449 H 0.91735 0.28324 0.96543 0.0
C450 C 0.67581 0.97137 0.50245 0.0
C451 C 0.6827 0.99505 0.44472 0.0
C452 C 0.71498 0.04999 0.52132 0.0
C453 C 0.69781 0.02631 0.57893 0.0
N454 N 0.65522 0.96214 0.61968 0.0
N455 N 0.70453 0.05926 0.40375 0.0
C456 C 0.67705 0.98618 0.56879 0.0
C457 C 0.70195 0.03519 0.45485 0.0
N458 N 0.66693 0.93443 0.49369 0.0
N459 N 0.74292 0.08692 0.53029 0.0
H460 H 0.69272 0.04989 0.35567 0.0
H461 H 0.71532 0.08839 0.41144 0.0
H462 H 0.7538 0.0973 0.57853 0.0
H463 H 0.75821 0.10485 0.48986 0.0
H464 H 0.664 0.91649 0.53427 0.0
H465 H 0.66774 0.924 0.44557 0.0
H466 H 0.63698 0.93302 0.61191 0.0
H467 H 0.65243 0.97154 0.66761 0.0
C468 C 0.64601 0.69196 1.00086 0.0
C469 C 0.65109 0.67545 0.06092 0.0
C470 C 0.67949 0.64451 0.99234 0.0
C471 C 0.66868 0.65604 0.93175 0.0
N472 N 0.63154 0.68295 0.88111 0.0
N473 N 0.66318 0.62702 0.11006 0.0
C474 C 0.64959 0.67808 0.93638 0.0
C475 C 0.66528 0.64923 0.05587 0.0
N476 N 0.63718 0.72063 1.00518 0.0
N477 N 0.70369 0.62944 0.98951 0.0
H478 H 0.65149 0.62791 0.15706 0.0
H479 H 0.66961 0.60489 0.10621 0.0
H480 H 0.7173 0.62868 0.94461 0.0
H481 H 0.71392 0.62219 0.03263 0.0
H482 H 0.63714 0.73642 0.96317 0.0
H483 H 0.63407 0.73111 0.05168 0.0
H484 H 0.61416 0.69566 0.88434 0.0
H485 H 0.62942 0.67024 0.834 0.0
C486 C 0.99939 0.65123 0.46007 0.0
C487 C 0.04013 0.67562 0.45519 0.0
C488 C 0.04446 0.67738 0.57976 0.0
C489 C 1.00335 0.65685 0.58445 0.0
N490 N 0.94185 0.63298 0.52764 0.0
N491 N 0.1002 0.71802 0.51101 0.0
C492 C 0.98087 0.6466 0.52407 0.0
C493 C 0.06214 0.69086 0.51532 0.0
N494 N 0.97844 0.63071 0.405 0.0
N495 N 0.06698 0.68123 0.63513 0.0
H496 H 0.11395 0.72822 0.46452 0.0
H497 H 0.11661 0.7331 0.55307 0.0
H498 H 0.05593 0.66911 0.68243 0.0
H499 H 0.09689 0.69257 0.63205 0.0
H500 H 0.94943 0.60972 0.40831 0.0
H501 H 0.99054 0.63186 0.35739 0.0
H502 H 0.92441 0.6274 0.48481 0.0
H503 H 0.92782 0.6317 0.57326 0.0
C504 C 0.35495 0.04809 1.00428 0.0
C505 C 0.34863 0.02452 0.94653 0.0
C506 C 0.31659 0.96944 0.02279 0.0
C507 C 0.33315 0.99314 0.08057 0.0
N508 N 0.3747 0.05741 0.12186 0.0
N509 N 0.32807 0.96055 0.90545 0.0
C510 C 0.35348 0.03329 0.07065 0.0
C511 C 0.32989 0.98439 0.9565 0.0
N512 N 0.36341 0.08491 0.99555 0.0
N513 N 0.28894 0.93238 0.03144 0.0
H514 H 0.34023 0.9701 0.85759 0.0
H515 H 0.31761 0.93147 0.91307 0.0
H516 H 0.27779 0.92191 0.07955 0.0
H517 H 0.27409 0.91439 0.99083 0.0
H518 H 0.36585 0.10273 0.03612 0.0
H519 H 0.36276 0.09533 0.9474 0.0
H520 H 0.39267 0.0866 0.11435 0.0
H521 H 0.37731 0.04806 0.16987 0.0
C522 C 0.37018 0.33709 0.4382 0.0
C523 C 0.35213 0.36008 0.43405 0.0
C524 C 0.35575 0.36675 0.55813 0.0
C525 C 0.36919 0.33993 0.56268 0.0
N526 N 0.38046 0.29307 0.50632 0.0
N527 N 0.31787 0.38739 0.49256 0.0
C528 C 0.37311 0.32272 0.50242 0.0
C529 C 0.34157 0.37173 0.49491 0.0
N530 N 0.38801 0.33177 0.38288 0.0
N531 N 0.35878 0.38944 0.61221 0.0
H532 H 0.3046 0.38874 0.44771 0.0
H533 H 0.30779 0.39463 0.53603 0.0
H534 H 0.37072 0.38853 0.65884 0.0
H535 H 0.35281 0.41187 0.6085 0.0
H536 H 0.40462 0.31823 0.38602 0.0
H537 H 0.39088 0.34487 0.33599 0.0
H538 H 0.37981 0.27703 0.4641 0.0
H539 H 0.3828 0.28209 0.55273 0.0
C540 C 0.96172 0.63591 0.03841 0.0
C541 C 0.98212 0.63909 0.977 0.0
C542 C 0.04323 0.67906 0.03838 0.0
C543 C 0.02264 0.67138 0.10067 0.0
N544 N 0.96349 0.62893 0.15986 0.0
N545 N 0.04434 0.65525 0.92605 0.0
C546 C 0.98217 0.64598 0.10085 0.0
C547 C 0.02354 0.65857 0.97863 0.0
N548 N 0.92306 0.62428 0.03771 0.0
N549 N 0.0816 0.70559 0.03607 0.0
H550 H 0.03181 0.63774 0.88401 0.0
H551 H 0.0742 0.66609 0.92824 0.0
H552 H 0.09695 0.72029 0.07915 0.0
H553 H 0.09705 0.71513 0.99062 0.0
H554 H 0.90803 0.62412 0.08151 0.0
H555 H 0.90734 0.61954 0.99283 0.0
H556 H 0.93446 0.60774 0.16103 0.0
H557 H 0.97808 0.63287 0.20592 0.0
C558 C 0.34833 0.96916 0.49985 0.0
C559 C 0.35989 0.9956 0.44538 0.0
C560 C 0.38656 0.04876 0.52685 0.0
C561 C 0.37278 0.02226 0.58134 0.0
N562 N 0.3579 0.95963 0.61858 0.0
N563 N 0.40552 0.05893 0.40796 0.0
C564 C 0.35877 0.98303 0.5676 0.0
C565 C 0.3837 0.03506 0.45906 0.0
N566 N 0.32696 0.93096 0.48733 0.0
N567 N 0.40175 0.08681 0.53938 0.0
H568 H 0.4061 0.04886 0.35918 0.0
H569 H 0.42596 0.08747 0.41579 0.0
H570 H 0.40639 0.09803 0.58848 0.0
H571 H 0.40798 0.10684 0.50093 0.0
H572 H 0.31388 0.91076 0.52578 0.0
H573 H 0.32087 0.91973 0.43822 0.0
H574 H 0.35104 0.9314 0.61069 0.0
H575 H 0.36835 0.96996 0.66729 0.0
C576 C 0.39413 0.38973 0.93866 0.0
C577 C 0.3666 0.35167 0.92048 0.0
C578 C 0.32932 0.34843 0.02358 0.0
C579 C 0.35935 0.38491 0.04409 0.0
N580 N 0.427 0.43107 0.0327 0.0
N581 N 0.31272 0.29155 0.9571 0.0
C582 C 0.39382 0.4027 1.00527 0.0
C583 C 0.33541 0.32995 0.96626 0.0
N584 N 0.41885 0.41488 0.89166 0.0
N585 N 0.29485 0.33173 0.05769 0.0
H586 H 0.31792 0.27663 0.91884 0.0
H587 H 0.29172 0.27399 0.99208 0.0
H588 H 0.28953 0.34444 0.09963 0.0
H589 H 0.27067 0.30692 0.04081 0.0
H590 H 0.43768 0.44349 0.90308 0.0
H591 H 0.41642 0.40896 0.83986 0.0
H592 H 0.45372 0.44266 1.00792 0.0
H593 H 0.42805 0.43993 0.08274 0.0
C594 C 1.01399 0.39219 0.5822 0.0
C595 C 1.00329 0.35405 0.6002 0.0
C596 C 0.03689 0.3505 0.49682 0.0
C597 C 0.04333 0.38702 0.47639 0.0
N598 N 0.02199 0.43338 0.48822 0.0
N599 N 0.99654 0.2937 0.56315 0.0
C600 C 0.02693 0.40502 0.51548 0.0
C601 C 1.01244 0.33214 0.55419 0.0
N602 N 0.01486 0.41751 0.62939 0.0
N603 N 0.05453 0.33365 0.46261 0.0
H604 H 0.97644 0.27885 0.60139 0.0
H605 H 0.99979 0.27606 0.52798 0.0
H606 H 0.07259 0.34632 0.42073 0.0
H607 H 0.05382 0.30877 0.47944 0.0
H608 H 0.0247 0.44614 0.61796 0.0
H609 H 1.01174 0.41166 0.68121 0.0
H610 H 1.0071 0.44514 0.51339 0.0
H611 H 0.02933 0.44199 0.43797 0.0
C612 C 0.68235 0.05079 0.99846 0.0
C613 C 0.66985 0.02429 0.94396 0.0
C614 C 0.64224 0.9712 0.02551 0.0
C615 C 0.65691 0.99769 0.07999 0.0
N616 N 0.67392 0.06087 0.11762 0.0
N617 N 0.62298 0.96134 0.90682 0.0
C618 C 0.67195 0.03708 0.06635 0.0
C619 C 0.64525 0.98498 0.95776 0.0
N620 N 0.70463 0.08888 0.98581 0.0
N621 N 0.6261 0.93305 0.03802 0.0
H622 H 0.62271 0.9715 0.85802 0.0
H623 H 0.60198 0.933 0.91476 0.0
H624 H 0.62136 0.92186 0.08713 0.0
H625 H 0.61917 0.91287 0.99954 0.0
H626 H 0.71833 0.10902 0.02415 0.0
H627 H 0.71082 0.10005 0.93665 0.0
H628 H 0.68157 0.08932 0.10988 0.0
H629 H 0.66367 0.05079 0.16656 0.0
C630 C 0.63822 0.62921 0.43184 0.0
C631 C 0.66382 0.66817 0.4166 0.0
C632 C 0.6992 0.67253 0.5224 0.0
C633 C 0.6702 0.63496 0.54035 0.0
N634 N 0.60448 0.58516 0.52207 0.0
N635 N 0.7149 0.72919 0.45572 0.0
C636 C 0.63735 0.61564 0.49818 0.0
C637 C 0.69342 0.69063 0.46425 0.0
N638 N 0.61672 0.60409 0.38206 0.0
N639 N 0.73246 0.69056 0.55967 0.0
H640 H 0.7103 0.74349 0.4157 0.0
H641 H 0.73446 0.74728 0.492 0.0
H642 H 0.73753 0.67809 0.60214 0.0
H643 H 0.75614 0.71639 0.54508 0.0
H644 H 0.59927 0.57494 0.39109 0.0
H645 H 0.62125 0.61136 0.33079 0.0
H646 H 0.57872 0.57217 0.49435 0.0
H647 H 0.60226 0.5757 0.57198 0.0
C648 C 0.02917 0.53585 0.27947 0.0
C649 C 0.06075 0.56739 0.24726 0.0
C650 C 0.08658 0.52503 0.21464 0.0
C651 C 0.06144 0.49768 0.26305 0.0
N652 N 1.00613 0.47593 0.33805 0.0
N653 N 0.11332 0.5886 0.16676 0.0
C654 C 0.03193 0.50275 0.29434 0.0
C655 C 0.08771 0.56095 0.20959 0.0
N656 N 0.995 0.53569 0.28994 0.0
N657 N 0.10754 0.51581 0.17065 0.0
H658 H 0.1097 0.61133 0.15064 0.0
H659 H 0.13769 0.58881 0.14644 0.0
H660 H 0.10608 0.48927 0.17006 0.0
H661 H 0.124 0.53304 0.13056 0.0
H662 H 0.97027 0.51231 0.30936 0.0
H663 H 0.98892 0.55572 0.26811 0.0
H664 H 0.98807 0.48095 0.36998 0.0
H665 H 1.00394 0.44934 0.34488 0.0
C666 C 0.51724 0.05817 0.70283 0.0
C667 C 0.49882 0.04898 0.76755 0.0
C668 C 0.54816 0.0341 0.81006 0.0
C669 C 0.5693 0.04853 0.74858 0.0
N670 N 0.57544 0.07572 0.63695 0.0
N671 N 0.49728 0.03017 0.88451 0.0
C672 C 0.55414 0.06081 0.69497 0.0
C673 C 0.51408 0.03689 0.82146 0.0
N674 N 0.49873 0.06307 0.64827 0.0
N675 N 0.56087 0.01802 0.85765 0.0
H676 H 0.47227 0.03175 0.89466 0.0
H677 H 0.5094 0.02555 0.92796 0.0
H678 H 0.58626 0.01654 0.85177 0.0
H679 H 0.54492 1.00353 0.90045 0.0
H680 H 0.50869 0.066 0.59836 0.0
H681 H 0.47132 0.06054 0.65182 0.0
H682 H 0.56843 0.08968 0.59967 0.0
H683 H 0.6015 0.07598 0.62763 0.0
C684 C 0.52169 0.53663 0.23736 0.0
C685 C 0.5212 0.56852 0.26745 0.0
C686 C 0.4535 0.52585 0.30173 0.0
C687 C 0.45157 0.49798 0.25465 0.0
N688 N 0.48555 0.47594 0.18108 0.0
N689 N 0.48963 0.59012 0.34699 0.0
C690 C 0.48616 0.50312 0.22351 0.0
C691 C 0.48788 0.56216 0.30524 0.0
N692 N 0.55583 0.53648 0.22851 0.0
N693 N 0.42351 0.51678 0.346 0.0
H694 H 0.51581 0.61309 0.36284 0.0
H695 H 0.46538 0.59022 0.36714 0.0
H696 H 0.39885 0.49 0.34783 0.0
H697 H 0.4241 0.53447 0.38517 0.0
H698 H 0.5574 0.51287 0.21076 0.0
H699 H 0.58172 0.5568 0.25033 0.0
H700 H 0.50866 0.48094 0.14927 0.0
H701 H 0.46151 0.44905 0.17524 0.0
C702 C 0.98506 0.51494 0.82665 0.0
C703 C 0.9625 0.52236 0.77952 0.0
C704 C 0.94236 0.46039 0.72487 0.0
C705 C 0.95935 0.45039 0.77896 0.0
N706 N 0.99285 0.46688 0.88728 0.0
N707 N 0.91904 0.50194 0.68301 0.0
C708 C 0.98025 0.47753 0.83089 0.0
C709 C 0.94085 0.49495 0.72856 0.0
N710 N 1.01029 0.5433 0.86881 0.0
N711 N 0.92996 0.43812 0.66773 0.0
H712 H 0.91974 0.52807 0.67903 0.0
H713 H 0.8984 0.48095 0.6516 0.0
H714 H 0.93292 0.41397 0.66102 0.0
H715 H 0.92087 0.4458 0.62372 0.0
H716 H 0.03087 0.54102 0.89827 0.0
H717 H 1.01246 0.57015 0.87111 0.0
H718 H 1.00508 0.48445 0.92944 0.0
H719 H 0.98711 0.4391 0.89629 0.0
C720 C 0.47175 0.96529 0.32315 0.0
C721 C 0.46216 0.97372 0.25822 0.0
C722 C 0.52619 0.98847 0.21489 0.0
C723 C 0.53314 0.9745 0.27659 0.0
N724 N 0.51288 0.94859 0.38925 0.0
N725 N 0.47895 0.99194 0.14088 0.0
C726 C 0.5061 0.96284 0.33086 0.0
C727 C 0.48928 0.98557 0.20388 0.0
N728 N 0.44851 0.96079 0.37791 0.0
N729 N 0.55476 1.00419 0.16676 0.0
H730 H 0.45239 0.99046 0.13118 0.0
H731 H 0.49552 0.99634 0.09718 0.0
H732 H 0.58169 1.00583 0.17257 0.0
H733 H 0.55307 0.01826 0.12357 0.0
H734 H 0.4557 0.95831 0.42787 0.0
H735 H 0.42358 0.96323 0.37432 0.0
H736 H 0.49221 0.93507 0.4272 0.0
H737 H 0.53875 0.94847 0.39832 0.0
C738 C 0.57072 0.49203 0.79185 0.0
C739 C 0.57535 0.51919 0.74108 0.0
C740 C 0.51359 0.47312 0.69003 0.0
C741 C 0.50802 0.44626 0.7419 0.0
N742 N 0.52627 0.43448 0.85265 0.0
N743 N 0.54394 0.53968 0.65922 0.0
C744 C 0.53526 0.45683 0.79576 0.0
C745 C 0.54444 0.51114 0.69588 0.0
N746 N 0.59982 0.50002 0.83727 0.0
N747 N 0.49116 0.46203 0.63269 0.0
H748 H 0.56519 0.56817 0.66372 0.0
H749 H 0.5202 0.53563 0.63026 0.0
H750 H 0.47032 0.43387 0.62277 0.0
H751 H 0.4967 0.47989 0.59084 0.0
H752 H 0.60031 0.47955 0.86901 0.0
H753 H 0.62465 0.52661 0.84095 0.0
H754 H 0.54324 0.44244 0.8964 0.0
H755 H 0.49969 0.40978 0.85937 0.0
C756 C 0.18751 0.40476 0.20561 0.0
C757 C 0.17499 0.40403 0.27392 0.0
C758 C 0.23362 0.40469 0.31536 0.0
C759 C 0.24496 0.40312 0.24705 0.0
N760 N 0.22704 0.3909 0.1289 0.0
N761 N 0.18092 0.39266 0.39243 0.0
C762 C 0.21982 0.39934 0.19282 0.0
C763 C 0.19628 0.40023 0.32829 0.0
N764 N 0.17092 0.41388 0.1532 0.0
N765 N 0.25941 0.41367 0.36756 0.0
H766 H 0.15347 0.38894 0.40318 0.0
H767 H 0.19361 0.38617 0.43297 0.0
H768 H 0.28789 0.41969 0.36058 0.0
H769 H 0.25376 0.41905 0.417 0.0
H770 H 0.18171 0.4186 0.10362 0.0
H771 H 0.14902 0.42074 0.1601 0.0
H772 H 0.20776 0.38443 0.08854 0.0
H773 H 0.25034 0.38645 0.11829 0.0
C774 C 0.84569 0.21186 0.70722 0.0
C775 C 0.86134 0.22865 0.7711 0.0
C776 C 0.80948 0.17283 0.82912 0.0
C777 C 0.79239 0.15693 0.76541 0.0
N778 N 0.78832 0.1674 0.64534 0.0
N779 N 0.85016 0.23087 0.89117 0.0
C780 C 0.80866 0.17831 0.70478 0.0
C781 C 0.84082 0.21087 0.83166 0.0
N782 N 0.8661 0.22785 0.64891 0.0
N783 N 0.79598 0.15176 0.8873 0.0
H784 H 0.87047 0.25975 0.89282 0.0
H785 H 0.83441 0.2204 0.93608 0.0
H786 H 0.77249 0.12416 0.88779 0.0
H787 H 0.81003 0.16065 0.93404 0.0
H788 H 0.85813 0.21452 0.60156 0.0
H789 H 0.89245 0.2533 0.64869 0.0
H790 H 0.79743 0.18346 0.60078 0.0
H791 H 0.76014 0.14475 0.64281 0.0
C792 C 0.64366 0.80862 0.31378 0.0
C793 C 0.64208 0.79188 0.24957 0.0
C794 C 0.64648 0.84817 0.19259 0.0
C795 C 0.64586 0.86411 0.25667 0.0
N796 N 0.6321 0.85374 0.37706 0.0
N797 N 0.62844 0.7901 0.12986 0.0
C798 C 0.6408 0.84256 0.31704 0.0
C799 C 0.63939 0.80997 0.18947 0.0
N800 N 0.64809 0.79231 0.37158 0.0
N801 N 0.654 0.86938 0.13463 0.0
H802 H 0.62009 0.76127 0.12786 0.0
H803 H 0.62302 0.80072 0.08533 0.0
H804 H 0.65852 0.89716 0.13462 0.0
H805 H 0.65871 0.8604 0.08751 0.0
H806 H 0.65378 0.80552 0.41907 0.0
H807 H 0.64867 0.76665 0.37116 0.0
H808 H 0.62517 0.83762 0.42153 0.0
H809 H 0.62723 0.87684 0.38032 0.0
C810 C 0.84033 0.61978 0.70254 0.0
C811 C 0.85332 0.62066 0.77036 0.0
C812 C 0.79523 0.62039 0.81406 0.0
C813 C 0.78301 0.62107 0.74623 0.0
N814 N 0.79994 0.6332 0.62759 0.0
N815 N 0.8491 0.63383 0.88872 0.0
C816 C 0.80785 0.62504 0.6911 0.0
C817 C 0.83281 0.62527 0.82541 0.0
N818 N 0.85654 0.6106 0.64944 0.0
N819 N 0.77006 0.6117 0.86731 0.0
H820 H 0.87688 0.63813 0.89802 0.0
H821 H 0.83685 0.64067 0.92965 0.0
H822 H 0.74142 0.60528 0.8613 0.0
H823 H 0.77645 0.60702 0.91663 0.0
H824 H 0.8454 0.60579 0.60018 0.0
H825 H 0.87858 0.60389 0.65554 0.0
H826 H 0.81884 0.63962 0.58653 0.0
H827 H 0.77644 0.63748 0.6181 0.0
C828 C 0.22328 0.84089 0.20535 0.0
C829 C 0.2395 0.8616 0.26648 0.0
C830 C 0.19126 0.80671 0.33132 0.0
C831 C 0.17053 0.78983 0.27055 0.0
N832 N 0.1655 0.79281 0.14882 0.0
N833 N 0.2362 0.86516 0.38875 0.0
C834 C 0.18617 0.80754 0.20719 0.0
C835 C 0.22264 0.84479 0.32989 0.0
N836 N 0.24365 0.85229 0.14589 0.0
N837 N 0.18178 0.78598 0.38999 0.0
H838 H 0.25951 0.89286 0.38976 0.0
H839 H 0.22237 0.8556 0.43558 0.0
H840 H 0.16079 0.75731 0.39095 0.0
H841 H 0.1977 0.79576 0.43483 0.0
H842 H 0.23442 0.83667 0.10084 0.0
H843 H 0.27196 0.87473 0.14376 0.0
H844 H 0.17353 0.80684 0.10208 0.0
H845 H 0.13884 0.76783 0.14845 0.0
C846 C 0.38148 0.20922 0.81482 0.0
C847 C 0.38166 0.22511 0.75044 0.0
C848 C 0.37796 0.16885 0.69414 0.0
C849 C 0.38028 0.15395 0.75827 0.0
N850 N 0.39546 0.16578 0.87797 0.0
N851 N 0.39311 0.22569 0.62988 0.0
C852 C 0.38549 0.17592 0.81823 0.0
C853 C 0.3838 0.2066 0.69032 0.0
N854 N 0.37739 0.2258 0.8727 0.0
N855 N 0.3701 0.14708 0.63675 0.0
H856 H 0.40051 0.25425 0.62692 0.0
H857 H 0.39819 0.21486 0.58517 0.0
H858 H 0.36665 0.11969 0.63706 0.0
H859 H 0.36406 0.15512 0.58991 0.0
H860 H 0.37271 0.21313 0.92056 0.0
H861 H 0.37598 0.25102 0.87215 0.0
H862 H 0.40262 0.18234 0.92197 0.0
H863 H 0.40108 0.14318 0.88131 0.0
loop_
_geom_bond_atom_site_label_1
_geom_bond_atom_site_label_2
_geom_bond_distance
_geom_bond_site_symmetry_2
_ccdc_geom_bond_type
Mn0 O5 2.095 . S
Mn0 O15 2.162 . S
Mn0 O16 2.297 . S
Mn0 O24 2.385 . S
Mn0 O25 2.209 . S
Mn0 O26 2.094 . S
Mn1 O6 2.121 . S
Mn1 N8 2.257 . S
Mn1 N17 2.282 . S
Mn1 O25 2.215 . S
Mn1 O27 2.117 . S
C2 O24 1.234 . S
C2 O25 1.283 . S
C3 O15 1.281 . S
C3 O16 1.236 . S
C4 O26 1.240 . S
C4 O27 1.264 . S
O5 Mn0 2.095 . S
O5 C14 1.250 . S
O6 Mn1 2.121 . S
O6 C14 1.258 . S
C7 N8 1.326 . S
C7 C11 1.460 . S
C7 H13 0.929 . S
N8 Mn1 2.257 . S
N8 C7 1.326 . S
N8 C12 1.362 . S
C9 C10 1.258 . S
C9 C12 1.431 . S
C9 C29 1.449 . S
C10 C9 1.258 . S
C10 C11 1.477 . S
C10 H30 0.931 . S
C11 C7 1.460 . S
C11 C10 1.477 . S
C11 H31 0.930 . S
C12 N8 1.362 . S
C12 C9 1.431 . S
C12 C22 1.476 . S
H13 C7 0.929 . S
C14 O5 1.250 . S
C14 O6 1.258 . S
O15 Mn0 2.162 . S
O15 C3 1.281 . S
O16 Mn0 2.297 . S
O16 C3 1.236 . S
N17 Mn1 2.282 . S
N17 C18 1.328 . S
N17 C22 1.318 . S
C18 N17 1.328 . S
C18 C19 1.457 . S
C18 H23 0.929 . S
C19 C18 1.457 . S
C19 C20 1.291 . S
C19 H32 0.931 . S
C20 C19 1.291 . S
C20 C21 1.373 . S
C20 H33 0.929 . S
C21 C20 1.373 . S
C21 C22 1.396 . S
C21 C28 1.403 . S
C22 C12 1.476 . S
C22 N17 1.318 . S
C22 C21 1.396 . S
H23 C18 0.929 . S
O24 Mn0 2.385 . S
O24 C2 1.234 . S
O25 Mn0 2.209 . S
O25 Mn1 2.215 . S
O25 C2 1.283 . S
O26 Mn0 2.094 . S
O26 C4 1.240 . S
O27 Mn1 2.117 . S
O27 C4 1.264 . S
C28 C21 1.403 . S
C28 C29 1.399 . S
C28 H34 0.929 . S
C29 C9 1.449 . S
C29 C28 1.399 . S
C29 H35 0.930 . S
H30 C10 0.931 . S
H31 C11 0.930 . S
H32 C19 0.931 . S
H33 C20 0.929 . S
H34 C28 0.929 . S
H35 C29 0.930 . S
Mn36 O41 2.095 . S
Mn36 O51 2.162 . S
Mn36 O52 2.297 . S
Mn36 O60 2.385 . S
Mn36 O61 2.209 . S
Mn36 O62 2.094 . S
Mn37 O42 2.121 . S
Mn37 N44 2.257 1_545 S
Mn37 N53 2.282 . S
Mn37 O61 2.215 . S
Mn37 O63 2.117 . S
C38 O60 1.234 . S
C38 O61 1.283 . S
C39 O51 1.281 . S
C39 O52 1.236 . S
C40 O62 1.240 . S
C40 O63 1.264 . S
O41 Mn36 2.095 . S
O41 C50 1.250 . S
O42 Mn37 2.121 . S
O42 C50 1.258 . S
C43 N44 1.326 . S
C43 C47 1.460 . S
C43 H49 0.929 . S
N44 Mn37 2.257 1_565 S
N44 C43 1.326 . S
N44 C48 1.362 . S
C45 C46 1.258 . S
C45 C48 1.431 . S
C45 C65 1.449 . S
C46 C45 1.258 . S
C46 C47 1.477 . S
C46 H66 0.931 . S
C47 C43 1.460 . S
C47 C46 1.477 . S
C47 H67 0.930 . S
C48 N44 1.362 . S
C48 C45 1.431 . S
C48 C58 1.476 . S
H49 C43 0.929 . S
C50 O41 1.250 . S
C50 O42 1.258 . S
O51 Mn36 2.162 . S
O51 C39 1.281 . S
O52 Mn36 2.297 . S
O52 C39 1.236 . S
N53 Mn37 2.282 . S
N53 C54 1.328 . S
N53 C58 1.318 1_545 S
C54 N53 1.328 . S
C54 C55 1.457 . S
C54 H59 0.929 . S
C55 C54 1.457 . S
C55 C56 1.291 . S
C55 H68 0.931 . S
C56 C55 1.291 . S
C56 C57 1.373 1_545 S
C56 H69 0.929 . S
C57 C56 1.373 1_565 S
C57 C58 1.396 . S
C57 C64 1.403 . S
C58 C48 1.476 . S
C58 N53 1.318 1_565 S
C58 C57 1.396 . S
H59 C54 0.929 . S
O60 Mn36 2.385 . S
O60 C38 1.234 . S
O61 Mn36 2.209 . S
O61 Mn37 2.215 . S
O61 C38 1.283 . S
O62 Mn36 2.094 . S
O62 C40 1.240 . S
O63 Mn37 2.117 . S
O63 C40 1.264 . S
C64 C57 1.403 . S
C64 C65 1.399 . S
C64 H70 0.929 . S
C65 C45 1.449 . S
C65 C64 1.399 . S
C65 H71 0.930 . S
H66 C46 0.931 . S
H67 C47 0.930 . S
H68 C55 0.931 . S
H69 C56 0.929 . S
H70 C64 0.929 . S
H71 C65 0.930 . S
Mn72 O77 2.095 . S
Mn72 O87 2.162 . S
Mn72 O88 2.297 . S
Mn72 O96 2.385 . S
Mn72 O97 2.209 . S
Mn72 O98 2.094 . S
Mn73 O78 2.121 . S
Mn73 N80 2.257 . S
Mn73 N89 2.282 . S
Mn73 O97 2.215 . S
Mn73 O99 2.117 . S
C74 O96 1.234 . S
C74 O97 1.283 . S
C75 O87 1.281 . S
C75 O88 1.236 . S
C76 O98 1.240 . S
C76 O99 1.264 . S
O77 Mn72 2.095 . S
O77 C86 1.250 . S
O78 Mn73 2.121 . S
O78 C86 1.258 . S
C79 N80 1.326 . S
C79 C83 1.460 . S
C79 H85 0.929 . S
N80 Mn73 2.257 . S
N80 C79 1.326 . S
N80 C84 1.362 . S
C81 C82 1.258 . S
C81 C84 1.431 . S
C81 C101 1.449 . S
C82 C81 1.258 . S
C82 C83 1.477 . S
C82 H102 0.931 . S
C83 C79 1.460 . S
C83 C82 1.477 . S
C83 H103 0.930 . S
C84 N80 1.362 . S
C84 C81 1.431 . S
C84 C94 1.476 . S
H85 C79 0.929 . S
C86 O77 1.250 . S
C86 O78 1.258 . S
O87 Mn72 2.162 . S
O87 C75 1.281 . S
O88 Mn72 2.297 . S
O88 C75 1.236 . S
N89 Mn73 2.282 . S
N89 C90 1.328 . S
N89 C94 1.318 . S
C90 N89 1.328 . S
C90 C91 1.457 . S
C90 H95 0.929 . S
C91 C90 1.457 . S
C91 C92 1.291 . S
C91 H104 0.931 . S
C92 C91 1.291 . S
C92 C93 1.373 . S
C92 H105 0.929 1_554 S
C93 C92 1.373 . S
C93 C94 1.396 . S
C93 C100 1.403 . S
C94 C84 1.476 . S
C94 N89 1.318 . S
C94 C93 1.396 . S
H95 C90 0.929 . S
O96 Mn72 2.385 . S
O96 C74 1.234 . S
O97 Mn72 2.209 . S
O97 Mn73 2.215 . S
O97 C74 1.283 . S
O98 Mn72 2.094 . S
O98 C76 1.240 . S
O99 Mn73 2.117 . S
O99 C76 1.264 . S
C100 C93 1.403 . S
C100 C101 1.399 . S
C100 H106 0.929 1_554 S
C101 C81 1.449 . S
C101 C100 1.399 . S
C101 H107 0.930 . S
H102 C82 0.931 . S
H103 C83 0.930 . S
H104 C91 0.931 . S
H105 C92 0.929 1_556 S
H106 C100 0.929 1_556 S
H107 C101 0.930 . S
Mn108 O113 2.095 . S
Mn108 O123 2.162 . S
Mn108 O124 2.297 . S
Mn108 O132 2.385 . S
Mn108 O133 2.209 . S
Mn108 O134 2.094 . S
Mn109 O114 2.121 . S
Mn109 N116 2.257 . S
Mn109 N125 2.282 . S
Mn109 O133 2.215 . S
Mn109 O135 2.117 . S
C110 O132 1.234 . S
C110 O133 1.283 . S
C111 O123 1.281 . S
C111 O124 1.236 . S
C112 O134 1.240 . S
C112 O135 1.264 . S
O113 Mn108 2.095 . S
O113 C122 1.250 . S
O114 Mn109 2.121 . S
O114 C122 1.258 . S
C115 N116 1.326 . S
C115 C119 1.460 . S
C115 H121 0.929 . S
N116 Mn109 2.257 . S
N116 C115 1.326 . S
N116 C120 1.362 . S
C117 C118 1.258 . S
C117 C120 1.431 . S
C117 C137 1.449 . S
C118 C117 1.258 . S
C118 C119 1.477 . S
C118 H138 0.931 . S
C119 C115 1.460 . S
C119 C118 1.477 . S
C119 H139 0.930 . S
C120 N116 1.362 . S
C120 C117 1.431 . S
C120 C130 1.476 . S
H121 C115 0.929 . S
C122 O113 1.250 . S
C122 O114 1.258 . S
O123 Mn108 2.162 . S
O123 C111 1.281 . S
O124 Mn108 2.297 . S
O124 C111 1.236 . S
N125 Mn109 2.282 . S
N125 C126 1.328 . S
N125 C130 1.318 . S
C126 N125 1.328 . S
C126 C127 1.457 . S
C126 H131 0.929 . S
C127 C126 1.457 . S
C127 C128 1.291 . S
C127 H140 0.931 . S
C128 C127 1.291 . S
C128 C129 1.373 . S
C128 H141 0.929 . S
C129 C128 1.373 . S
C129 C130 1.396 . S
C129 C136 1.403 . S
C130 C120 1.476 . S
C130 N125 1.318 . S
C130 C129 1.396 . S
H131 C126 0.929 . S
O132 Mn108 2.385 . S
O132 C110 1.234 . S
O133 Mn108 2.209 . S
O133 Mn109 2.215 . S
O133 C110 1.283 . S
O134 Mn108 2.094 . S
O134 C112 1.240 . S
O135 Mn109 2.117 . S
O135 C112 1.264 . S
C136 C129 1.403 . S
C136 C137 1.399 . S
C136 H142 0.929 . S
C137 C117 1.449 . S
C137 C136 1.399 . S
C137 H143 0.930 . S
H138 C118 0.931 . S
H139 C119 0.930 . S
H140 C127 0.931 . S
H141 C128 0.929 . S
H142 C136 0.929 . S
H143 C137 0.930 . S
Mn144 O149 2.095 . S
Mn144 O159 2.162 . S
Mn144 O160 2.297 . S
Mn144 O168 2.385 . S
Mn144 O169 2.209 . S
Mn144 O170 2.094 . S
Mn145 O150 2.121 . S
Mn145 N152 2.257 1_565 S
Mn145 N161 2.282 . S
Mn145 O169 2.215 . S
Mn145 O171 2.117 . S
C146 O168 1.234 . S
C146 O169 1.283 . S
C147 O159 1.281 . S
C147 O160 1.236 . S
C148 O170 1.240 . S
C148 O171 1.264 . S
O149 Mn144 2.095 . S
O149 C158 1.250 . S
O150 Mn145 2.121 . S
O150 C158 1.258 . S
C151 N152 1.326 . S
C151 C155 1.460 . S
C151 H157 0.929 . S
N152 Mn145 2.257 1_545 S
N152 C151 1.326 . S
N152 C156 1.362 . S
C153 C154 1.258 . S
C153 C156 1.431 . S
C153 C173 1.449 . S
C154 C153 1.258 . S
C154 C155 1.477 . S
C154 H174 0.931 . S
C155 C151 1.460 . S
C155 C154 1.477 . S
C155 H175 0.930 . S
C156 N152 1.362 . S
C156 C153 1.431 . S
C156 C166 1.476 . S
H157 C151 0.929 . S
C158 O149 1.250 . S
C158 O150 1.258 . S
O159 Mn144 2.162 . S
O159 C147 1.281 . S
O160 Mn144 2.297 . S
O160 C147 1.236 . S
N161 Mn145 2.282 . S
N161 C162 1.328 . S
N161 C166 1.318 1_565 S
C162 N161 1.328 . S
C162 C163 1.457 . S
C162 H167 0.929 . S
C163 C162 1.457 . S
C163 C164 1.291 . S
C163 H176 0.931 . S
C164 C163 1.291 . S
C164 C165 1.373 1_565 S
C164 H177 0.929 1_554 S
C165 C164 1.373 1_545 S
C165 C166 1.396 . S
C165 C172 1.403 . S
C166 C156 1.476 . S
C166 N161 1.318 1_545 S
C166 C165 1.396 . S
H167 C162 0.929 . S
O168 Mn144 2.385 . S
O168 C146 1.234 . S
O169 Mn144 2.209 . S
O169 Mn145 2.215 . S
O169 C146 1.283 . S
O170 Mn144 2.094 . S
O170 C148 1.240 . S
O171 Mn145 2.117 . S
O171 C148 1.264 . S
C172 C165 1.403 . S
C172 C173 1.399 . S
C172 H178 0.929 1_554 S
C173 C153 1.449 . S
C173 C172 1.399 . S
C173 H179 0.930 . S
H174 C154 0.931 . S
H175 C155 0.930 . S
H176 C163 0.931 . S
H177 C164 0.929 1_556 S
H178 C172 0.929 1_556 S
H179 C173 0.930 . S
Mn180 O185 2.095 . S
Mn180 O195 2.162 . S
Mn180 O196 2.297 . S
Mn180 O204 2.385 . S
Mn180 O205 2.209 . S
Mn180 O206 2.094 . S
Mn181 O186 2.121 . S
Mn181 N188 2.257 . S
Mn181 N197 2.282 . S
Mn181 O205 2.215 . S
Mn181 O207 2.117 . S
C182 O204 1.234 . S
C182 O205 1.283 . S
C183 O195 1.281 . S
C183 O196 1.236 . S
C184 O206 1.240 . S
C184 O207 1.264 . S
O185 Mn180 2.095 . S
O185 C194 1.250 . S
O186 Mn181 2.121 . S
O186 C194 1.258 . S
C187 N188 1.326 . S
C187 C191 1.460 . S
C187 H193 0.929 . S
N188 Mn181 2.257 . S
N188 C187 1.326 . S
N188 C192 1.362 . S
C189 C190 1.258 . S
C189 C192 1.431 . S
C189 C209 1.449 . S
C190 C189 1.258 . S
C190 C191 1.477 . S
C190 H210 0.931 . S
C191 C187 1.460 . S
C191 C190 1.477 . S
C191 H211 0.930 . S
C192 N188 1.362 . S
C192 C189 1.431 . S
C192 C202 1.476 . S
H193 C187 0.929 . S
C194 O185 1.250 . S
C194 O186 1.258 . S
O195 Mn180 2.162 . S
O195 C183 1.281 . S
O196 Mn180 2.297 . S
O196 C183 1.236 . S
N197 Mn181 2.282 . S
N197 C198 1.328 . S
N197 C202 1.318 . S
C198 N197 1.328 . S
C198 C199 1.457 . S
C198 H203 0.929 . S
C199 C198 1.457 . S
C199 C200 1.291 . S
C199 H212 0.931 . S
C200 C199 1.291 . S
C200 C201 1.373 . S
C200 H213 0.929 . S
C201 C200 1.373 . S
C201 C202 1.396 . S
C201 C208 1.403 . S
C202 C192 1.476 . S
C202 N197 1.318 . S
C202 C201 1.396 . S
H203 C198 0.929 . S
O204 Mn180 2.385 . S
O204 C182 1.234 . S
O205 Mn180 2.209 . S
O205 Mn181 2.215 . S
O205 C182 1.283 . S
O206 Mn180 2.094 . S
O206 C184 1.240 . S
O207 Mn181 2.117 . S
O207 C184 1.264 . S
C208 C201 1.403 . S
C208 C209 1.399 . S
C208 H214 0.929 . S
C209 C189 1.449 . S
C209 C208 1.399 . S
C209 H215 0.930 . S
H210 C190 0.931 . S
H211 C191 0.930 . S
H212 C199 0.931 . S
H213 C200 0.929 . S
H214 C208 0.929 . S
H215 C209 0.930 . S
Mn216 O221 2.095 . S
Mn216 O231 2.162 . S
Mn216 O232 2.297 . S
Mn216 O240 2.385 . S
Mn216 O241 2.209 . S
Mn216 O242 2.094 . S
Mn217 O222 2.121 . S
Mn217 N224 2.257 1_565 S
Mn217 N233 2.282 . S
Mn217 O241 2.215 . S
Mn217 O243 2.117 . S
C218 O240 1.234 . S
C218 O241 1.283 . S
C219 O231 1.281 . S
C219 O232 1.236 . S
C220 O242 1.240 . S
C220 O243 1.264 . S
O221 Mn216 2.095 . S
O221 C230 1.250 . S
O222 Mn217 2.121 . S
O222 C230 1.258 . S
C223 N224 1.326 . S
C223 C227 1.460 . S
C223 H229 0.929 . S
N224 Mn217 2.257 1_545 S
N224 C223 1.326 . S
N224 C228 1.362 . S
C225 C226 1.258 . S
C225 C228 1.431 . S
C225 C245 1.449 . S
C226 C225 1.258 . S
C226 C227 1.477 . S
C226 H246 0.931 . S
C227 C223 1.460 . S
C227 C226 1.477 . S
C227 H247 0.930 . S
C228 N224 1.362 . S
C228 C225 1.431 . S
C228 C238 1.476 . S
H229 C223 0.929 . S
C230 O221 1.250 . S
C230 O222 1.258 . S
O231 Mn216 2.162 . S
O231 C219 1.281 . S
O232 Mn216 2.297 . S
O232 C219 1.236 . S
N233 Mn217 2.282 . S
N233 C234 1.328 . S
N233 C238 1.318 1_565 S
C234 N233 1.328 . S
C234 C235 1.457 . S
C234 H239 0.929 . S
C235 C234 1.457 . S
C235 C236 1.291 . S
C235 H248 0.931 . S
C236 C235 1.291 . S
C236 C237 1.373 1_565 S
C236 H249 0.929 . S
C237 C236 1.373 1_545 S
C237 C238 1.396 . S
C237 C244 1.403 . S
C238 C228 1.476 . S
C238 N233 1.318 1_545 S
C238 C237 1.396 . S
H239 C234 0.929 . S
O240 Mn216 2.385 . S
O240 C218 1.234 . S
O241 Mn216 2.209 . S
O241 Mn217 2.215 . S
O241 C218 1.283 . S
O242 Mn216 2.094 . S
O242 C220 1.240 . S
O243 Mn217 2.117 . S
O243 C220 1.264 . S
C244 C237 1.403 . S
C244 C245 1.399 . S
C244 H250 0.929 . S
C245 C225 1.449 . S
C245 C244 1.399 . S
C245 H251 0.930 . S
H246 C226 0.931 . S
H247 C227 0.930 . S
H248 C235 0.931 . S
H249 C236 0.929 . S
H250 C244 0.929 . S
H251 C245 0.930 . S
Mn252 O257 2.095 . S
Mn252 O267 2.162 . S
Mn252 O268 2.297 . S
Mn252 O276 2.385 . S
Mn252 O277 2.209 . S
Mn252 O278 2.094 . S
Mn253 O258 2.121 . S
Mn253 N260 2.257 . S
Mn253 N269 2.282 . S
Mn253 O277 2.215 . S
Mn253 O279 2.117 . S
C254 O276 1.234 . S
C254 O277 1.283 . S
C255 O267 1.281 . S
C255 O268 1.236 . S
C256 O278 1.240 . S
C256 O279 1.264 . S
O257 Mn252 2.095 . S
O257 C266 1.250 . S
O258 Mn253 2.121 . S
O258 C266 1.258 . S
C259 N260 1.326 . S
C259 C263 1.460 . S
C259 H265 0.929 . S
N260 Mn253 2.257 . S
N260 C259 1.326 . S
N260 C264 1.362 . S
C261 C262 1.258 . S
C261 C264 1.431 . S
C261 C281 1.449 . S
C262 C261 1.258 . S
C262 C263 1.477 . S
C262 H282 0.931 . S
C263 C259 1.460 . S
C263 C262 1.477 . S
C263 H283 0.930 . S
C264 N260 1.362 . S
C264 C261 1.431 . S
C264 C274 1.476 . S
H265 C259 0.929 . S
C266 O257 1.250 . S
C266 O258 1.258 . S
O267 Mn252 2.162 . S
O267 C255 1.281 . S
O268 Mn252 2.297 . S
O268 C255 1.236 . S
N269 Mn253 2.282 . S
N269 C270 1.328 . S
N269 C274 1.318 . S
C270 N269 1.328 . S
C270 C271 1.457 . S
C270 H275 0.929 . S
C271 C270 1.457 . S
C271 C272 1.291 . S
C271 H284 0.931 . S
C272 C271 1.291 . S
C272 C273 1.373 . S
C272 H285 0.929 . S
C273 C272 1.373 . S
C273 C274 1.396 . S
C273 C280 1.403 . S
C274 C264 1.476 . S
C274 N269 1.318 . S
C274 C273 1.396 . S
H275 C270 0.929 . S
O276 Mn252 2.385 . S
O276 C254 1.234 . S
O277 Mn252 2.209 . S
O277 Mn253 2.215 . S
O277 C254 1.283 . S
O278 Mn252 2.094 . S
O278 C256 1.240 . S
O279 Mn253 2.117 . S
O279 C256 1.264 . S
C280 C273 1.403 . S
C280 C281 1.399 . S
C280 H286 0.929 . S
C281 C261 1.449 . S
C281 C280 1.399 . S
C281 H287 0.930 . S
H282 C262 0.931 . S
H283 C263 0.930 . S
H284 C271 0.931 . S
H285 C272 0.929 . S
H286 C280 0.929 . S
H287 C281 0.930 . S
Mn288 O293 2.095 . S
Mn288 O303 2.162 . S
Mn288 O304 2.297 . S
Mn288 O312 2.385 . S
Mn288 O313 2.209 . S
Mn288 O314 2.094 . S
Mn289 O294 2.121 . S
Mn289 N296 2.257 1_455 S
Mn289 N305 2.282 . S
Mn289 O313 2.215 . S
Mn289 O315 2.117 . S
C290 O312 1.234 . S
C290 O313 1.283 . S
C291 O303 1.281 . S
C291 O304 1.236 . S
C292 O314 1.240 . S
C292 O315 1.264 . S
O293 Mn288 2.095 . S
O293 C302 1.250 . S
O294 Mn289 2.121 . S
O294 C302 1.258 . S
C295 N296 1.326 . S
C295 C299 1.460 . S
C295 H301 0.929 . S
N296 Mn289 2.257 1_655 S
N296 C295 1.326 . S
N296 C300 1.362 . S
C297 C298 1.258 . S
C297 C300 1.431 . S
C297 C317 1.449 . S
C298 C297 1.258 . S
C298 C299 1.477 . S
C298 H318 0.931 . S
C299 C295 1.460 . S
C299 C298 1.477 . S
C299 H319 0.930 . S
C300 N296 1.362 . S
C300 C297 1.431 . S
C300 C310 1.476 . S
H301 C295 0.929 . S
C302 O293 1.250 . S
C302 O294 1.258 . S
O303 Mn288 2.162 . S
O303 C291 1.281 . S
O304 Mn288 2.297 . S
O304 C291 1.236 . S
N305 Mn289 2.282 . S
N305 C306 1.328 . S
N305 C310 1.318 1_455 S
C306 N305 1.328 . S
C306 C307 1.457 . S
C306 H311 0.929 . S
C307 C306 1.457 . S
C307 C308 1.291 . S
C307 H320 0.931 . S
C308 C307 1.291 . S
C308 C309 1.373 1_455 S
C308 H321 0.929 . S
C309 C308 1.373 1_655 S
C309 C310 1.396 . S
C309 C316 1.403 . S
C310 C300 1.476 . S
C310 N305 1.318 1_655 S
C310 C309 1.396 . S
H311 C306 0.929 . S
O312 Mn288 2.385 . S
O312 C290 1.234 . S
O313 Mn288 2.209 . S
O313 Mn289 2.215 . S
O313 C290 1.283 . S
O314 Mn288 2.094 . S
O314 C292 1.240 . S
O315 Mn289 2.117 . S
O315 C292 1.264 . S
C316 C309 1.403 . S
C316 C317 1.399 . S
C316 H322 0.929 . S
C317 C297 1.449 . S
C317 C316 1.399 . S
C317 H323 0.930 . S
H318 C298 0.931 . S
H319 C299 0.930 . S
H320 C307 0.931 . S
H321 C308 0.929 . S
H322 C316 0.929 . S
H323 C317 0.930 . S
Mn324 O329 2.095 . S
Mn324 O339 2.162 . S
Mn324 O340 2.297 . S
Mn324 O348 2.385 . S
Mn324 O349 2.209 . S
Mn324 O350 2.094 . S
Mn325 O330 2.121 . S
Mn325 N332 2.257 1_545 S
Mn325 N341 2.282 . S
Mn325 O349 2.215 . S
Mn325 O351 2.117 . S
C326 O348 1.234 . S
C326 O349 1.283 . S
C327 O339 1.281 . S
C327 O340 1.236 . S
C328 O350 1.240 . S
C328 O351 1.264 . S
O329 Mn324 2.095 . S
O329 C338 1.250 . S
O330 Mn325 2.121 . S
O330 C338 1.258 . S
C331 N332 1.326 . S
C331 C335 1.460 . S
C331 H337 0.929 . S
N332 Mn325 2.257 1_565 S
N332 C331 1.326 . S
N332 C336 1.362 . S
C333 C334 1.258 . S
C333 C336 1.431 . S
C333 C353 1.449 . S
C334 C333 1.258 . S
C334 C335 1.477 . S
C334 H354 0.931 . S
C335 C331 1.460 . S
C335 C334 1.477 . S
C335 H355 0.930 . S
C336 N332 1.362 . S
C336 C333 1.431 . S
C336 C346 1.476 . S
H337 C331 0.929 . S
C338 O329 1.250 . S
C338 O330 1.258 . S
O339 Mn324 2.162 . S
O339 C327 1.281 . S
O340 Mn324 2.297 . S
O340 C327 1.236 . S
N341 Mn325 2.282 . S
N341 C342 1.328 . S
N341 C346 1.318 1_545 S
C342 N341 1.328 . S
C342 C343 1.457 . S
C342 H347 0.929 . S
C343 C342 1.457 . S
C343 C344 1.291 . S
C343 H356 0.931 . S
C344 C343 1.291 . S
C344 C345 1.373 1_545 S
C344 H357 0.929 1_556 S
C345 C344 1.373 1_565 S
C345 C346 1.396 . S
C345 C352 1.403 . S
C346 C336 1.476 . S
C346 N341 1.318 1_565 S
C346 C345 1.396 . S
H347 C342 0.929 . S
O348 Mn324 2.385 . S
O348 C326 1.234 . S
O349 Mn324 2.209 . S
O349 Mn325 2.215 . S
O349 C326 1.283 . S
O350 Mn324 2.094 . S
O350 C328 1.240 . S
O351 Mn325 2.117 . S
O351 C328 1.264 . S
C352 C345 1.403 . S
C352 C353 1.399 . S
C352 H358 0.929 1_556 S
C353 C333 1.449 . S
C353 C352 1.399 . S
C353 H359 0.930 . S
H354 C334 0.931 . S
H355 C335 0.930 . S
H356 C343 0.931 . S
H357 C344 0.929 1_554 S
H358 C352 0.929 1_554 S
H359 C353 0.930 . S
Mn360 O365 2.095 . S
Mn360 O375 2.162 . S
Mn360 O376 2.297 . S
Mn360 O384 2.385 . S
Mn360 O385 2.209 . S
Mn360 O386 2.094 . S
Mn361 O366 2.121 . S
Mn361 N368 2.257 . S
Mn361 N377 2.282 . S
Mn361 O385 2.215 . S
Mn361 O387 2.117 . S
C362 O384 1.234 . S
C362 O385 1.283 . S
C363 O375 1.281 . S
C363 O376 1.236 . S
C364 O386 1.240 . S
C364 O387 1.264 . S
O365 Mn360 2.095 . S
O365 C374 1.250 . S
O366 Mn361 2.121 . S
O366 C374 1.258 . S
C367 N368 1.326 . S
C367 C371 1.460 . S
C367 H373 0.929 . S
N368 Mn361 2.257 . S
N368 C367 1.326 . S
N368 C372 1.362 . S
C369 C370 1.258 . S
C369 C372 1.431 . S
C369 C389 1.449 . S
C370 C369 1.258 . S
C370 C371 1.477 . S
C370 H390 0.931 . S
C371 C367 1.460 . S
C371 C370 1.477 . S
C371 H391 0.930 . S
C372 N368 1.362 . S
C372 C369 1.431 . S
C372 C382 1.476 . S
H373 C367 0.929 . S
C374 O365 1.250 . S
C374 O366 1.258 . S
O375 Mn360 2.162 . S
O375 C363 1.281 . S
O376 Mn360 2.297 . S
O376 C363 1.236 . S
N377 Mn361 2.282 . S
N377 C378 1.328 . S
N377 C382 1.318 . S
C378 N377 1.328 . S
C378 C379 1.457 . S
C378 H383 0.929 . S
C379 C378 1.457 . S
C379 C380 1.291 . S
C379 H392 0.931 . S
C380 C379 1.291 . S
C380 C381 1.373 . S
C380 H393 0.929 . S
C381 C380 1.373 . S
C381 C382 1.396 . S
C381 C388 1.403 . S
C382 C372 1.476 . S
C382 N377 1.318 . S
C382 C381 1.396 . S
H383 C378 0.929 . S
O384 Mn360 2.385 . S
O384 C362 1.234 . S
O385 Mn360 2.209 . S
O385 Mn361 2.215 . S
O385 C362 1.283 . S
O386 Mn360 2.094 . S
O386 C364 1.240 . S
O387 Mn361 2.117 . S
O387 C364 1.264 . S
C388 C381 1.403 . S
C388 C389 1.399 . S
C388 H394 0.929 . S
C389 C369 1.449 . S
C389 C388 1.399 . S
C389 H395 0.930 . S
H390 C370 0.931 . S
H391 C371 0.930 . S
H392 C379 0.931 . S
H393 C380 0.929 . S
H394 C388 0.929 . S
H395 C389 0.930 . S
Mn396 O401 2.095 . S
Mn396 O411 2.162 . S
Mn396 O412 2.297 . S
Mn396 O420 2.385 . S
Mn396 O421 2.209 . S
Mn396 O422 2.094 . S
Mn397 O402 2.121 . S
Mn397 N404 2.257 1_655 S
Mn397 N413 2.282 . S
Mn397 O421 2.215 . S
Mn397 O423 2.117 . S
C398 O420 1.234 . S
C398 O421 1.283 . S
C399 O411 1.281 . S
C399 O412 1.236 . S
C400 O422 1.240 . S
C400 O423 1.264 . S
O401 Mn396 2.095 . S
O401 C410 1.250 . S
O402 Mn397 2.121 . S
O402 C410 1.258 . S
C403 N404 1.326 . S
C403 C407 1.460 . S
C403 H409 0.929 . S
N404 Mn397 2.257 1_455 S
N404 C403 1.326 . S
N404 C408 1.362 . S
C405 C406 1.258 . S
C405 C408 1.431 . S
C405 C425 1.449 . S
C406 C405 1.258 . S
C406 C407 1.477 . S
C406 H426 0.931 . S
C407 C403 1.460 . S
C407 C406 1.477 . S
C407 H427 0.930 . S
C408 N404 1.362 . S
C408 C405 1.431 . S
C408 C418 1.476 . S
H409 C403 0.929 . S
C410 O401 1.250 . S
C410 O402 1.258 . S
O411 Mn396 2.162 . S
O411 C399 1.281 . S
O412 Mn396 2.297 . S
O412 C399 1.236 . S
N413 Mn397 2.282 . S
N413 C414 1.328 . S
N413 C418 1.318 1_655 S
C414 N413 1.328 . S
C414 C415 1.457 . S
C414 H419 0.929 . S
C415 C414 1.457 . S
C415 C416 1.291 . S
C415 H428 0.931 . S
C416 C415 1.291 . S
C416 C417 1.373 1_655 S
C416 H429 0.929 1_556 S
C417 C416 1.373 1_455 S
C417 C418 1.396 . S
C417 C424 1.403 . S
C418 C408 1.476 . S
C418 N413 1.318 1_455 S
C418 C417 1.396 . S
H419 C414 0.929 . S
O420 Mn396 2.385 . S
O420 C398 1.234 . S
O421 Mn396 2.209 . S
O421 Mn397 2.215 . S
O421 C398 1.283 . S
O422 Mn396 2.094 . S
O422 C400 1.240 . S
O423 Mn397 2.117 . S
O423 C400 1.264 . S
C424 C417 1.403 . S
C424 C425 1.399 . S
C424 H430 0.929 1_556 S
C425 C405 1.449 . S
C425 C424 1.399 . S
C425 H431 0.930 . S
H426 C406 0.931 . S
H427 C407 0.930 . S
H428 C415 0.931 . S
H429 C416 0.929 1_554 S
H430 C424 0.929 1_554 S
H431 C425 0.930 . S
C432 C433 1.363 1_655 S
C432 C438 1.379 1_554 S
C432 N440 1.356 . S
C433 C432 1.363 1_455 S
C433 C439 1.363 . S
C434 C435 1.363 1_455 S
C434 C439 1.379 1_556 S
C434 N441 1.356 . S
C435 C434 1.363 1_655 S
C435 C438 1.363 . S
N436 C438 1.356 . S
N436 H448 0.984 . S
N436 H449 0.985 . S
N437 C439 1.356 . S
N437 H442 0.984 . S
N437 H443 0.985 . S
C438 C432 1.379 1_556 S
C438 C435 1.363 . S
C438 N436 1.356 . S
C439 C433 1.363 . S
C439 C434 1.379 1_554 S
C439 N437 1.356 . S
N440 C432 1.356 . S
N440 H446 0.984 . S
N440 H447 0.984 1_655 S
N441 C434 1.356 . S
N441 H444 0.984 . S
N441 H445 0.985 . S
H442 N437 0.984 . S
H443 N437 0.985 . S
H444 N441 0.984 . S
H445 N441 0.985 . S
H446 N440 0.984 . S
H447 N440 0.984 1_455 S
H448 N436 0.984 . S
H449 N436 0.985 . S
C450 C451 1.363 . S
C450 C456 1.379 . S
C450 N458 1.356 . S
C451 C450 1.363 . S
C451 C457 1.363 1_565 S
C452 C453 1.363 . S
C452 C457 1.379 . S
C452 N459 1.356 . S
C453 C452 1.363 . S
C453 C456 1.363 1_545 S
N454 C456 1.356 . S
N454 H466 0.984 . S
N454 H467 0.985 . S
N455 C457 1.356 . S
N455 H460 0.984 . S
N455 H461 0.985 . S
C456 C450 1.379 . S
C456 C453 1.363 1_565 S
C456 N454 1.356 . S
C457 C451 1.363 1_545 S
C457 C452 1.379 . S
C457 N455 1.356 . S
N458 C450 1.356 . S
N458 H464 0.984 . S
N458 H465 0.984 . S
N459 C452 1.356 . S
N459 H462 0.984 . S
N459 H463 0.985 . S
H460 N455 0.984 . S
H461 N455 0.985 . S
H462 N459 0.984 . S
H463 N459 0.985 . S
H464 N458 0.984 . S
H465 N458 0.984 . S
H466 N454 0.984 . S
H467 N454 0.985 . S
C468 C469 1.363 . S
C468 C474 1.379 1_554 S
C468 N476 1.356 . S
C469 C468 1.363 . S
C469 C475 1.363 . S
C470 C471 1.374 . S
C470 C475 1.364 1_556 S
C470 N477 1.364 . S
C471 C470 1.374 . S
C471 C474 1.363 . S
N472 C474 1.356 . S
N472 H484 0.984 . S
N472 H485 0.985 . S
N473 C475 1.356 . S
N473 H478 0.984 . S
N473 H479 0.985 . S
C474 C468 1.379 1_556 S
C474 C471 1.363 . S
C474 N472 1.356 . S
C475 C469 1.363 . S
C475 C470 1.364 1_554 S
C475 N473 1.356 . S
N476 C468 1.356 . S
N476 H482 0.984 . S
N476 H483 0.984 . S
N477 C470 1.364 . S
N477 H480 0.984 . S
N477 H481 0.985 . S
H478 N473 0.984 . S
H479 N473 0.985 . S
H480 N477 0.984 . S
H481 N477 0.985 . S
H482 N476 0.984 . S
H483 N476 0.984 . S
H484 N472 0.984 . S
H485 N472 0.985 . S
C486 C487 1.363 1_655 S
C486 C492 1.379 . S
C486 N494 1.356 . S
C487 C486 1.363 1_455 S
C487 C493 1.363 . S
C488 C489 1.363 1_455 S
C488 C493 1.379 . S
C488 N495 1.356 . S
C489 C488 1.363 1_655 S
C489 C492 1.363 . S
N490 C492 1.356 . S
N490 H502 0.984 . S
N490 H503 0.985 . S
N491 C493 1.356 . S
N491 H496 0.984 . S
N491 H497 0.985 . S
C492 C486 1.379 . S
C492 C489 1.363 . S
C492 N490 1.356 . S
C493 C487 1.363 . S
C493 C488 1.379 . S
C493 N491 1.356 . S
N494 C486 1.356 . S
N494 H500 0.984 . S
N494 H501 0.984 . S
N495 C488 1.356 . S
N495 H498 0.984 . S
N495 H499 0.985 . S
H496 N491 0.984 . S
H497 N491 0.985 . S
H498 N495 0.984 . S
H499 N495 0.985 . S
H500 N494 0.984 . S
H501 N494 0.984 . S
H502 N490 0.984 . S
H503 N490 0.985 . S
C504 C505 1.363 . S
C504 C510 1.379 1_556 S
C504 N512 1.356 . S
C505 C504 1.363 . S
C505 C511 1.363 1_545 S
C506 C507 1.363 . S
C506 C511 1.379 1_554 S
C506 N513 1.356 . S
C507 C506 1.363 . S
C507 C510 1.363 1_565 S
N508 C510 1.356 . S
N508 H520 0.984 . S
N508 H521 0.985 . S
N509 C511 1.356 . S
N509 H514 0.984 . S
N509 H515 0.985 . S
C510 C504 1.379 1_554 S
C510 C507 1.363 1_545 S
C510 N508 1.356 . S
C511 C505 1.363 1_565 S
C511 C506 1.379 1_556 S
C511 N509 1.356 . S
N512 C504 1.356 . S
N512 H518 0.984 . S
N512 H519 0.984 . S
N513 C506 1.356 . S
N513 H516 0.984 . S
N513 H517 0.985 . S
H514 N509 0.984 . S
H515 N509 0.985 . S
H516 N513 0.984 . S
H517 N513 0.985 . S
H518 N512 0.984 . S
H519 N512 0.984 . S
H520 N508 0.984 . S
H521 N508 0.985 . S
C522 C523 1.363 . S
C522 C528 1.379 . S
C522 N530 1.356 . S
C523 C522 1.363 . S
C523 C529 1.363 . S
C524 C525 1.363 . S
C524 C529 1.379 . S
C524 N531 1.356 . S
C525 C524 1.363 . S
C525 C528 1.363 . S
N526 C528 1.356 . S
N526 H538 0.984 . S
N526 H539 0.985 . S
N527 C529 1.356 . S
N527 H532 0.984 . S
N527 H533 0.985 . S
C528 C522 1.379 . S
C528 C525 1.363 . S
C528 N526 1.356 . S
C529 C523 1.363 . S
C529 C524 1.379 . S
C529 N527 1.356 . S
N530 C522 1.356 . S
N530 H536 0.984 . S
N530 H537 0.984 . S
N531 C524 1.356 . S
N531 H534 0.984 . S
N531 H535 0.985 . S
H532 N527 0.984 . S
H533 N527 0.985 . S
H534 N531 0.984 . S
H535 N531 0.985 . S
H536 N530 0.984 . S
H537 N530 0.984 . S
H538 N526 0.984 . S
H539 N526 0.985 . S
C540 C541 1.363 . S
C540 C546 1.379 1_556 S
C540 N548 1.356 . S
C541 C540 1.363 . S
C541 C547 1.363 1_655 S
C542 C543 1.363 . S
C542 C547 1.379 1_554 S
C542 N549 1.356 . S
C543 C542 1.363 . S
C543 C546 1.363 1_455 S
N544 C546 1.356 . S
N544 H556 0.984 . S
N544 H557 0.985 . S
N545 C547 1.356 . S
N545 H550 0.984 . S
N545 H551 0.985 . S
C546 C540 1.379 1_554 S
C546 C543 1.363 1_655 S
C546 N544 1.356 . S
C547 C541 1.363 1_455 S
C547 C542 1.379 1_556 S
C547 N545 1.356 . S
N548 C540 1.356 . S
N548 H554 0.984 . S
N548 H555 0.984 . S
N549 C542 1.356 . S
N549 H552 0.984 . S
N549 H553 0.985 . S
H550 N545 0.984 . S
H551 N545 0.985 . S
H552 N549 0.984 . S
H553 N549 0.985 . S
H554 N548 0.984 . S
H555 N548 0.984 . S
H556 N544 0.984 . S
H557 N544 0.985 . S
C558 C559 1.363 . S
C558 C564 1.379 . S
C558 N566 1.356 . S
C559 C558 1.363 . S
C559 C565 1.363 1_565 S
C560 C561 1.363 . S
C560 C565 1.379 . S
C560 N567 1.356 . S
C561 C560 1.363 . S
C561 C564 1.363 1_545 S
N562 C564 1.356 . S
N562 H574 0.984 . S
N562 H575 0.985 . S
N563 C565 1.356 . S
N563 H568 0.984 . S
N563 H569 0.985 . S
C564 C558 1.379 . S
C564 C561 1.363 1_565 S
C564 N562 1.356 . S
C565 C559 1.363 1_545 S
C565 C560 1.379 . S
C565 N563 1.356 . S
N566 C558 1.356 . S
N566 H572 0.984 . S
N566 H573 0.984 . S
N567 C560 1.356 . S
N567 H570 0.984 . S
N567 H571 0.985 . S
H568 N563 0.984 . S
H569 N563 0.985 . S
H570 N567 0.984 . S
H571 N567 0.985 . S
H572 N566 0.984 . S
H573 N566 0.984 . S
H574 N562 0.984 . S
H575 N562 0.985 . S
C576 C577 1.363 . S
C576 C582 1.379 1_556 S
C576 N584 1.356 . S
C577 C576 1.363 . S
C577 C583 1.363 . S
C578 C579 1.363 . S
C578 C583 1.379 1_554 S
C578 N585 1.356 . S
C579 C578 1.363 . S
C579 C582 1.363 . S
N580 C582 1.356 . S
N580 H592 0.984 . S
N580 H593 0.985 . S
N581 C583 1.356 . S
N581 H586 0.984 . S
N581 H587 0.985 . S
C582 C576 1.379 1_554 S
C582 C579 1.363 . S
C582 N580 1.356 . S
C583 C577 1.363 . S
C583 C578 1.379 1_556 S
C583 N581 1.356 . S
N584 C576 1.356 . S
N584 H590 0.984 . S
N584 H591 0.984 . S
N585 C578 1.356 . S
N585 H588 0.984 . S
N585 H589 0.985 . S
H586 N581 0.984 . S
H587 N581 0.985 . S
H588 N585 0.984 . S
H589 N585 0.985 . S
H590 N584 0.984 . S
H591 N584 0.984 . S
H592 N580 0.984 . S
H593 N580 0.985 . S
C594 C595 1.363 . S
C594 C600 1.379 1_655 S
C594 N602 1.356 . S
C595 C594 1.363 . S
C595 C601 1.363 . S
C596 C597 1.363 . S
C596 C601 1.379 1_455 S
C596 N603 1.356 . S
C597 C596 1.363 . S
C597 C600 1.363 . S
N598 C600 1.356 . S
N598 H610 0.984 . S
N598 H611 0.985 . S
N599 C601 1.356 . S
N599 H604 0.984 . S
N599 H605 0.985 . S
C600 C594 1.379 1_455 S
C600 C597 1.363 . S
C600 N598 1.356 . S
C601 C595 1.363 . S
C601 C596 1.379 1_655 S
C601 N599 1.356 . S
N602 C594 1.356 . S
N602 H608 0.984 . S
N602 H609 0.984 . S
N603 C596 1.356 . S
N603 H606 0.984 . S
N603 H607 0.985 . S
H604 N599 0.984 . S
H605 N599 0.985 . S
H606 N603 0.984 . S
H607 N603 0.985 . S
H608 N602 0.984 . S
H609 N602 0.984 . S
H610 N598 0.984 . S
H611 N598 0.985 . S
C612 C613 1.363 . S
C612 C618 1.379 1_556 S
C612 N620 1.356 . S
C613 C612 1.363 . S
C613 C619 1.363 1_545 S
C614 C615 1.363 . S
C614 C619 1.379 1_554 S
C614 N621 1.356 . S
C615 C614 1.363 . S
C615 C618 1.363 1_565 S
N616 C618 1.356 . S
N616 H628 0.984 . S
N616 H629 0.985 . S
N617 C619 1.356 . S
N617 H622 0.984 . S
N617 H623 0.985 . S
C618 C612 1.379 1_554 S
C618 C615 1.363 1_545 S
C618 N616 1.356 . S
C619 C613 1.363 1_565 S
C619 C614 1.379 1_556 S
C619 N617 1.356 . S
N620 C612 1.356 . S
N620 H626 0.984 . S
N620 H627 0.984 . S
N621 C614 1.356 . S
N621 H624 0.984 . S
N621 H625 0.985 . S
H622 N617 0.984 . S
H623 N617 0.985 . S
H624 N621 0.984 . S
H625 N621 0.985 . S
H626 N620 0.984 . S
H627 N620 0.984 . S
H628 N616 0.984 . S
H629 N616 0.985 . S
C630 C631 1.363 . S
C630 C636 1.379 . S
C630 N638 1.356 . S
C631 C630 1.363 . S
C631 C637 1.363 . S
C632 C633 1.363 . S
C632 C637 1.379 . S
C632 N639 1.356 . S
C633 C632 1.363 . S
C633 C636 1.363 . S
N634 C636 1.356 . S
N634 H646 0.984 . S
N634 H647 0.985 . S
N635 C637 1.356 . S
N635 H640 0.984 . S
N635 H641 0.985 . S
C636 C630 1.379 . S
C636 C633 1.363 . S
C636 N634 1.356 . S
C637 C631 1.363 . S
C637 C632 1.379 . S
C637 N635 1.356 . S
N638 C630 1.356 . S
N638 H644 0.984 . S
N638 H645 0.984 . S
N639 C632 1.356 . S
N639 H642 0.984 . S
N639 H643 0.985 . S
H640 N635 0.984 . S
H641 N635 0.985 . S
H642 N639 0.984 . S
H643 N639 0.985 . S
H644 N638 0.984 . S
H645 N638 0.984 . S
H646 N634 0.984 . S
H647 N634 0.985 . S
C648 C649 1.363 . S
C648 C654 1.379 . S
C648 N656 1.356 . S
C649 C648 1.363 . S
C649 C655 1.363 . S
C650 C651 1.363 . S
C650 C655 1.379 . S
C650 N657 1.356 . S
C651 C650 1.363 . S
C651 C654 1.363 . S
N652 C654 1.356 . S
N652 H664 0.984 . S
N652 H665 0.985 . S
N653 C655 1.356 . S
N653 H658 0.984 . S
N653 H659 0.985 . S
C654 C648 1.379 . S
C654 C651 1.363 . S
C654 N652 1.356 . S
C655 C649 1.363 . S
C655 C650 1.379 . S
C655 N653 1.356 . S
N656 C648 1.356 . S
N656 H662 0.984 . S
N656 H663 0.984 . S
N657 C650 1.356 . S
N657 H660 0.984 . S
N657 H661 0.985 . S
H658 N653 0.984 . S
H659 N653 0.985 . S
H660 N657 0.984 . S
H661 N657 0.985 . S
H662 N656 0.984 . S
H663 N656 0.984 . S
H664 N652 0.984 . S
H665 N652 0.985 . S
C666 C667 1.363 . S
C666 C672 1.379 . S
C666 N674 1.356 . S
C667 C666 1.363 . S
C667 C673 1.363 . S
C668 C669 1.363 . S
C668 C673 1.379 . S
C668 N675 1.356 1_545 S
C669 C668 1.363 . S
C669 C672 1.363 . S
N670 C672 1.356 . S
N670 H682 0.984 . S
N670 H683 0.985 . S
N671 C673 1.356 1_565 S
N671 H676 0.964 1_565 S
N671 H677 0.985 . S
C672 C666 1.379 . S
C672 C669 1.363 . S
C672 N670 1.356 . S
C673 C667 1.363 . S
C673 C668 1.379 . S
C673 N671 1.356 1_545 S
N674 C666 1.356 . S
N674 H680 0.984 . S
N674 H681 0.984 . S
N675 C668 1.356 1_565 S
N675 H678 0.992 1_565 S
N675 H679 0.985 . S
H676 N671 0.964 1_545 S
H677 N671 0.985 . S
H678 N675 0.992 1_545 S
H679 N675 0.985 . S
H680 N674 0.984 . S
H681 N674 0.984 . S
H682 N670 0.984 . S
H683 N670 0.985 . S
C684 C685 1.363 . S
C684 C690 1.379 . S
C684 N692 1.356 . S
C685 C684 1.363 . S
C685 C691 1.363 . S
C686 C687 1.363 . S
C686 C691 1.379 . S
C686 N693 1.356 . S
C687 C686 1.363 . S
C687 C690 1.363 . S
N688 C690 1.356 . S
N688 H700 0.984 . S
N688 H701 0.985 . S
N689 C691 1.356 . S
N689 H694 0.984 . S
N689 H695 0.985 . S
C690 C684 1.379 . S
C690 C687 1.363 . S
C690 N688 1.356 . S
C691 C685 1.363 . S
C691 C686 1.379 . S
C691 N689 1.356 . S
N692 C684 1.356 . S
N692 H698 0.984 . S
N692 H699 0.984 . S
N693 C686 1.356 . S
N693 H696 0.984 . S
N693 H697 0.985 . S
H694 N689 0.984 . S
H695 N689 0.985 . S
H696 N693 0.984 . S
H697 N693 0.985 . S
H698 N692 0.984 . S
H699 N692 0.984 . S
H700 N688 0.984 . S
H701 N688 0.985 . S
C702 C703 1.363 . S
C702 C708 1.379 . S
C702 N710 1.356 . S
C703 C702 1.363 . S
C703 C709 1.363 . S
C704 C705 1.363 . S
C704 C709 1.379 . S
C704 N711 1.356 . S
C705 C704 1.363 . S
C705 C708 1.363 . S
N706 C708 1.356 . S
N706 H718 0.984 . S
N706 H719 0.985 . S
N707 C709 1.356 . S
N707 H712 0.984 . S
N707 H713 0.985 . S
C708 C702 1.379 . S
C708 C705 1.363 . S
C708 N706 1.356 . S
C709 C703 1.363 . S
C709 C704 1.379 . S
C709 N707 1.356 . S
N710 C702 1.356 . S
N710 H716 0.984 . S
N710 H717 0.984 . S
N711 C704 1.356 . S
N711 H714 0.984 . S
N711 H715 0.985 . S
H712 N707 0.984 . S
H713 N707 0.985 . S
H714 N711 0.984 . S
H715 N711 0.985 . S
H716 N710 0.984 . S
H717 N710 0.984 . S
H718 N706 0.984 . S
H719 N706 0.985 . S
C720 C721 1.363 . S
C720 C726 1.379 . S
C720 N728 1.356 . S
C721 C720 1.363 . S
C721 C727 1.363 . S
C722 C723 1.363 . S
C722 C727 1.379 . S
C722 N729 1.356 1_565 S
C723 C722 1.363 . S
C723 C726 1.363 . S
N724 C726 1.356 . S
N724 H736 0.984 . S
N724 H737 0.985 . S
N725 C727 1.356 1_545 S
N725 H730 0.984 . S
N725 H731 0.985 . S
C726 C720 1.379 . S
C726 C723 1.363 . S
C726 N724 1.356 . S
C727 C721 1.363 . S
C727 C722 1.379 . S
C727 N725 1.356 1_565 S
N728 C720 1.356 . S
N728 H734 0.984 . S
N728 H735 0.984 . S
N729 C722 1.356 1_545 S
N729 H732 0.984 . S
N729 H733 0.985 . S
H730 N725 0.984 . S
H731 N725 0.985 . S
H732 N729 0.984 . S
H733 N729 0.985 . S
H734 N728 0.984 . S
H735 N728 0.984 . S
H736 N724 0.984 . S
H737 N724 0.985 . S
C738 C739 1.363 . S
C738 C744 1.379 . S
C738 N746 1.356 . S
C739 C738 1.363 . S
C739 C745 1.363 . S
C740 C741 1.363 . S
C740 C745 1.379 . S
C740 N747 1.356 . S
C741 C740 1.363 . S
C741 C744 1.363 . S
N742 C744 1.356 . S
N742 H754 0.984 . S
N742 H755 0.985 . S
N743 C745 1.356 . S
N743 H748 0.984 . S
N743 H749 0.985 . S
C744 C738 1.379 . S
C744 C741 1.363 . S
C744 N742 1.356 . S
C745 C739 1.363 . S
C745 C740 1.379 . S
C745 N743 1.356 . S
N746 C738 1.356 . S
N746 H752 0.984 . S
N746 H753 0.984 . S
N747 C740 1.356 . S
N747 H750 0.984 . S
N747 H751 0.985 . S
H748 N743 0.984 . S
H749 N743 0.985 . S
H750 N747 0.984 . S
H751 N747 0.985 . S
H752 N746 0.984 . S
H753 N746 0.984 . S
H754 N742 0.984 . S
H755 N742 0.985 . S
C756 C757 1.363 . S
C756 C762 1.379 . S
C756 N764 1.356 . S
C757 C756 1.363 . S
C757 C763 1.363 . S
C758 C759 1.363 . S
C758 C763 1.379 . S
C758 N765 1.356 . S
C759 C758 1.363 . S
C759 C762 1.363 . S
N760 C762 1.356 . S
N760 H772 0.984 . S
N760 H773 0.985 . S
N761 C763 1.356 . S
N761 H766 0.984 . S
N761 H767 0.985 . S
C762 C756 1.379 . S
C762 C759 1.363 . S
C762 N760 1.356 . S
C763 C757 1.363 . S
C763 C758 1.379 . S
C763 N761 1.356 . S
N764 C756 1.356 . S
N764 H770 0.984 . S
N764 H771 0.984 . S
N765 C758 1.356 . S
N765 H768 0.984 . S
N765 H769 0.985 . S
H766 N761 0.984 . S
H767 N761 0.985 . S
H768 N765 0.984 . S
H769 N765 0.985 . S
H770 N764 0.984 . S
H771 N764 0.984 . S
H772 N760 0.984 . S
H773 N760 0.985 . S
C774 C775 1.363 . S
C774 C780 1.379 . S
C774 N782 1.356 . S
C775 C774 1.363 . S
C775 C781 1.363 . S
C776 C777 1.363 . S
C776 C781 1.379 . S
C776 N783 1.356 . S
C777 C776 1.363 . S
C777 C780 1.363 . S
N778 C780 1.356 . S
N778 H790 0.984 . S
N778 H791 0.985 . S
N779 C781 1.356 . S
N779 H784 0.984 . S
N779 H785 0.985 . S
C780 C774 1.379 . S
C780 C777 1.363 . S
C780 N778 1.356 . S
C781 C775 1.363 . S
C781 C776 1.379 . S
C781 N779 1.356 . S
N782 C774 1.356 . S
N782 H788 0.984 . S
N782 H789 0.984 . S
N783 C776 1.356 . S
N783 H786 0.984 . S
N783 H787 0.985 . S
H784 N779 0.984 . S
H785 N779 0.985 . S
H786 N783 0.984 . S
H787 N783 0.985 . S
H788 N782 0.984 . S
H789 N782 0.984 . S
H790 N778 0.984 . S
H791 N778 0.985 . S
C792 C793 1.363 . S
C792 C798 1.379 . S
C792 N800 1.356 . S
C793 C792 1.363 . S
C793 C799 1.363 . S
C794 C795 1.363 . S
C794 C799 1.379 . S
C794 N801 1.356 . S
C795 C794 1.363 . S
C795 C798 1.363 . S
N796 C798 1.356 . S
N796 H808 0.984 . S
N796 H809 0.985 . S
N797 C799 1.356 . S
N797 H802 0.984 . S
N797 H803 0.985 . S
C798 C792 1.379 . S
C798 C795 1.363 . S
C798 N796 1.356 . S
C799 C793 1.363 . S
C799 C794 1.379 . S
C799 N797 1.356 . S
N800 C792 1.356 . S
N800 H806 0.984 . S
N800 H807 0.984 . S
N801 C794 1.356 . S
N801 H804 0.984 . S
N801 H805 0.985 . S
H802 N797 0.984 . S
H803 N797 0.985 . S
H804 N801 0.984 . S
H805 N801 0.985 . S
H806 N800 0.984 . S
H807 N800 0.984 . S
H808 N796 0.984 . S
H809 N796 0.985 . S
C810 C811 1.363 . S
C810 C816 1.379 . S
C810 N818 1.356 . S
C811 C810 1.363 . S
C811 C817 1.363 . S
C812 C813 1.363 . S
C812 C817 1.379 . S
C812 N819 1.356 . S
C813 C812 1.363 . S
C813 C816 1.363 . S
N814 C816 1.356 . S
N814 H826 0.984 . S
N814 H827 0.985 . S
N815 C817 1.356 . S
N815 H820 0.984 . S
N815 H821 0.985 . S
C816 C810 1.379 . S
C816 C813 1.363 . S
C816 N814 1.356 . S
C817 C811 1.363 . S
C817 C812 1.379 . S
C817 N815 1.356 . S
N818 C810 1.356 . S
N818 H824 0.984 . S
N818 H825 0.984 . S
N819 C812 1.356 . S
N819 H822 0.984 . S
N819 H823 0.985 . S
H820 N815 0.984 . S
H821 N815 0.985 . S
H822 N819 0.984 . S
H823 N819 0.985 . S
H824 N818 0.984 . S
H825 N818 0.984 . S
H826 N814 0.984 . S
H827 N814 0.985 . S
C828 C829 1.363 . S
C828 C834 1.379 . S
C828 N836 1.356 . S
C829 C828 1.363 . S
C829 C835 1.363 . S
C830 C831 1.363 . S
C830 C835 1.379 . S
C830 N837 1.356 . S
C831 C830 1.363 . S
C831 C834 1.363 . S
N832 C834 1.356 . S
N832 H844 0.984 . S
N832 H845 0.985 . S
N833 C835 1.356 . S
N833 H838 0.984 . S
N833 H839 0.985 . S
C834 C828 1.379 . S
C834 C831 1.363 . S
C834 N832 1.356 . S
C835 C829 1.363 . S
C835 C830 1.379 . S
C835 N833 1.356 . S
N836 C828 1.356 . S
N836 H842 0.984 . S
N836 H843 0.984 . S
N837 C830 1.356 . S
N837 H840 0.984 . S
N837 H841 0.985 . S
H838 N833 0.984 . S
H839 N833 0.985 . S
H840 N837 0.984 . S
H841 N837 0.985 . S
H842 N836 0.984 . S
H843 N836 0.984 . S
H844 N832 0.984 . S
H845 N832 0.985 . S
C846 C847 1.363 . S
C846 C852 1.379 . S
C846 N854 1.356 . S
C847 C846 1.363 . S
C847 C853 1.363 . S
C848 C849 1.363 . S
C848 C853 1.379 . S
C848 N855 1.356 . S
C849 C848 1.363 . S
C849 C852 1.363 . S
N850 C852 1.356 . S
N850 H862 0.984 . S
N850 H863 0.985 . S
N851 C853 1.356 . S
N851 H856 0.984 . S
N851 H857 0.985 . S
C852 C846 1.379 . S
C852 C849 1.363 . S
C852 N850 1.356 . S
C853 C847 1.363 . S
C853 C848 1.379 . S
C853 N851 1.356 . S
N854 C846 1.356 . S
N854 H860 0.984 . S
N854 H861 0.984 . S
N855 C848 1.356 . S
N855 H858 0.984 . S
N855 H859 0.985 . S
H856 N851 0.984 . S
H857 N851 0.985 . S
H858 N855 0.984 . S
H859 N855 0.985 . S
H860 N854 0.984 . S
H861 N854 0.984 . S
H862 N850 0.984 . S
H863 N850 0.985 . S
C433 C3 1.386 . S
C435 C398 1.356 . S
C451 C218 1.515 . S
C453 C38 1.515 . S
C469 C74 1.356 . S
C471 C255 1.386 . S
C487 C290 1.356 . S
C489 C111 1.386 . S
C505 C326 1.515 . S
C507 C146 1.515 . S
C523 C363 1.386 . S
C525 C182 1.356 . S
C541 C112 1.311 . S
C543 C302 1.322 . S
C559 C158 1.471 . S
C561 C338 1.471 . S
C577 C194 1.322 . S
C579 C364 1.311 . S
C595 C410 1.322 . S
C597 C4 1.311 . S
C613 C50 1.471 . S
C615 C230 1.471 . S
C631 C86 1.322 . S
C633 C256 1.311 . S
C649 C291 1.581 . S
C651 C2 1.566 . S
C667 C327 1.565 . S
C669 C39 1.565 . S
C685 C75 1.581 . S
C687 C362 1.566 . S
C703 C110 1.566 . S
C705 C399 1.581 . S
C721 C147 1.565 . S
C723 C219 1.565 . S
C739 C254 1.566 . S
C741 C183 1.581 . S
C757 C14 1.456 . S
C759 C374 1.456 . S
C775 C400 1.543 . S
C777 C40 1.545 . S
C793 C76 1.543 . S
C795 C220 1.544 . S
C811 C122 1.456 . S
C813 C266 1.456 . S
C829 C148 1.545 . S
C831 C292 1.543 . S
C847 C184 1.543 . S
C849 C328 1.544 . S
