# Generated by pormake.
# Topology wiu, (6)-cn, num edge types: 1
# Building blocks:
#     Node 0, Type 0, BuildingBlock: PAMTOO_clean_sbu_0, # of connection points: 6
#     Node 1, Type 0, BuildingBlock: PAMTOO_clean_sbu_0, # of connection points: 6
#     Node 2, Type 0, BuildingBlock: PAMTOO_clean_sbu_0, # of connection points: 6
#     Node 3, Type 0, BuildingBlock: PAMTOO_clean_sbu_0, # of connection points: 6
#     Node 4, Type 0, BuildingBlock: PAMTOO_clean_sbu_0, # of connection points: 6
#     Node 5, Type 0, BuildingBlock: PAMTOO_clean_sbu_0, # of connection points: 6
#     Node 6, Type 0, BuildingBlock: PAMTOO_clean_sbu_0, # of connection points: 6
#     Node 7, Type 0, BuildingBlock: PAMTOO_clean_sbu_0, # of connection points: 6
#     Node 8, Type 0, BuildingBlock: PAMTOO_clean_sbu_0, # of connection points: 6
#     Node 9, Type 0, BuildingBlock: PAMTOO_clean_sbu_0, # of connection points: 6
#     Node 10, Type 0, BuildingBlock: PAMTOO_clean_sbu_0, # of connection points: 6
#     Node 11, Type 0, BuildingBlock: PAMTOO_clean_sbu_0, # of connection points: 6
#     Node 12, Type 0, BuildingBlock: PAMTOO_clean_sbu_0, # of connection points: 6
#     Node 13, Type 0, BuildingBlock: PAMTOO_clean_sbu_0, # of connection points: 6
#     Node 14, Type 0, BuildingBlock: PAMTOO_clean_sbu_0, # of connection points: 6
#     Node 15, Type 0, BuildingBlock: PAMTOO_clean_sbu_0, # of connection points: 6
#     Edge 16, Type (0, 0), BuildingBlock: AJUNOK_clean_linker_0, # of connection points: 2
#     Edge 17, Type (0, 0), BuildingBlock: AJUNOK_clean_linker_0, # of connection points: 2
#     Edge 18, Type (0, 0), BuildingBlock: AJUNOK_clean_linker_0, # of connection points: 2
#     Edge 19, Type (0, 0), BuildingBlock: AJUNOK_clean_linker_0, # of connection points: 2
#     Edge 20, Type (0, 0), BuildingBlock: AJUNOK_clean_linker_0, # of connection points: 2
#     Edge 21, Type (0, 0), BuildingBlock: AJUNOK_clean_linker_0, # of connection points: 2
#     Edge 22, Type (0, 0), BuildingBlock: AJUNOK_clean_linker_0, # of connection points: 2
#     Edge 23, Type (0, 0), BuildingBlock: AJUNOK_clean_linker_0, # of connection points: 2
#     Edge 24, Type (0, 0), BuildingBlock: AJUNOK_clean_linker_0, # of connection points: 2
#     Edge 25, Type (0, 0), BuildingBlock: AJUNOK_clean_linker_0, # of connection points: 2
#     Edge 26, Type (0, 0), BuildingBlock: AJUNOK_clean_linker_0, # of connection points: 2
#     Edge 27, Type (0, 0), BuildingBlock: AJUNOK_clean_linker_0, # of connection points: 2
#     Edge 28, Type (0, 0), BuildingBlock: AJUNOK_clean_linker_0, # of connection points: 2
#     Edge 29, Type (0, 0), BuildingBlock: AJUNOK_clean_linker_0, # of connection points: 2
#     Edge 30, Type (0, 0), BuildingBlock: AJUNOK_clean_linker_0, # of connection points: 2
#     Edge 31, Type (0, 0), BuildingBlock: AJUNOK_clean_linker_0, # of connection points: 2
#     Edge 32, Type (0, 0), BuildingBlock: AJUNOK_clean_linker_0, # of connection points: 2
#     Edge 33, Type (0, 0), BuildingBlock: AJUNOK_clean_linker_0, # of connection points: 2
#     Edge 34, Type (0, 0), BuildingBlock: AJUNOK_clean_linker_0, # of connection points: 2
#     Edge 35, Type (0, 0), BuildingBlock: AJUNOK_clean_linker_0, # of connection points: 2
#     Edge 36, Type (0, 0), BuildingBlock: AJUNOK_clean_linker_0, # of connection points: 2
#     Edge 37, Type (0, 0), BuildingBlock: AJUNOK_clean_linker_0, # of connection points: 2
#     Edge 38, Type (0, 0), BuildingBlock: AJUNOK_clean_linker_0, # of connection points: 2
#     Edge 39, Type (0, 0), BuildingBlock: AJUNOK_clean_linker_0, # of connection points: 2
#     Edge 40, Type (0, 0), BuildingBlock: AJUNOK_clean_linker_0, # of connection points: 2
#     Edge 41, Type (0, 0), BuildingBlock: AJUNOK_clean_linker_0, # of connection points: 2
#     Edge 42, Type (0, 0), BuildingBlock: AJUNOK_clean_linker_0, # of connection points: 2
#     Edge 43, Type (0, 0), BuildingBlock: AJUNOK_clean_linker_0, # of connection points: 2
#     Edge 44, Type (0, 0), BuildingBlock: AJUNOK_clean_linker_0, # of connection points: 2
#     Edge 45, Type (0, 0), BuildingBlock: AJUNOK_clean_linker_0, # of connection points: 2
#     Edge 46, Type (0, 0), BuildingBlock: AJUNOK_clean_linker_0, # of connection points: 2
#     Edge 47, Type (0, 0), BuildingBlock: AJUNOK_clean_linker_0, # of connection points: 2
#     Edge 48, Type (0, 0), BuildingBlock: AJUNOK_clean_linker_0, # of connection points: 2
#     Edge 49, Type (0, 0), BuildingBlock: AJUNOK_clean_linker_0, # of connection points: 2
#     Edge 50, Type (0, 0), BuildingBlock: AJUNOK_clean_linker_0, # of connection points: 2
#     Edge 51, Type (0, 0), BuildingBlock: AJUNOK_clean_linker_0, # of connection points: 2
#     Edge 52, Type (0, 0), BuildingBlock: AJUNOK_clean_linker_0, # of connection points: 2
#     Edge 53, Type (0, 0), BuildingBlock: AJUNOK_clean_linker_0, # of connection points: 2
#     Edge 54, Type (0, 0), BuildingBlock: AJUNOK_clean_linker_0, # of connection points: 2
#     Edge 55, Type (0, 0), BuildingBlock: AJUNOK_clean_linker_0, # of connection points: 2
#     Edge 56, Type (0, 0), BuildingBlock: AJUNOK_clean_linker_0, # of connection points: 2
#     Edge 57, Type (0, 0), BuildingBlock: AJUNOK_clean_linker_0, # of connection points: 2
#     Edge 58, Type (0, 0), BuildingBlock: AJUNOK_clean_linker_0, # of connection points: 2
#     Edge 59, Type (0, 0), BuildingBlock: AJUNOK_clean_linker_0, # of connection points: 2
#     Edge 60, Type (0, 0), BuildingBlock: AJUNOK_clean_linker_0, # of connection points: 2
#     Edge 61, Type (0, 0), BuildingBlock: AJUNOK_clean_linker_0, # of connection points: 2
#     Edge 62, Type (0, 0), BuildingBlock: AJUNOK_clean_linker_0, # of connection points: 2
#     Edge 63, Type (0, 0), BuildingBlock: AJUNOK_clean_linker_0, # of connection points: 2
# Relax obj value: 0.653
# Max RMSD: 0.320
# Mean RMSD: 0.320
data_MOF--net-wiu--node1-PAMTOO_clean_sbu_0--edge1-AJUNOK_clean_linker_0
_symmetry_space_group_name_H-M    P1
_symmetry_Int_Tables_number       1
_symmetry_cell_setting            triclinic
loop_
_symmetry_equiv_pos_as_xyz
'x, y, z'
_cell_length_a     30.251387
_cell_length_b     30.106673
_cell_length_c     37.644057
_cell_angle_alpha  89.592489
_cell_angle_beta   90.736263
_cell_angle_gamma 90.226171
loop_
_atom_site_label
_atom_site_type_symbol
_atom_site_fract_x
_atom_site_fract_y
_atom_site_fract_z
_atom_type_partial_charge
Dy0 Dy 0.43151 0.14097 0.33964 0.0
Dy1 Dy 0.37365 0.20898 0.38325 0.0
C2 C 0.47307 0.23635 0.35799 0.0
O3 O 0.4307 0.10702 0.39306 0.0
O4 O 0.3991 0.16107 0.42716 0.0
O5 O 0.47354 0.12971 0.2947 0.0
O6 O 0.45654 0.07511 0.32993 0.0
O7 O 0.33035 0.14845 0.38312 0.0
O8 O 0.36296 0.11342 0.3366 0.0
O9 O 0.3366 0.20864 0.32999 0.0
O10 O 0.38811 0.17286 0.29689 0.0
O11 O 0.37568 0.2649 0.41938 0.0
O12 O 0.31335 0.24174 0.39791 0.0
C13 C 0.41683 0.12086 0.42407 0.0
O14 O 0.48146 0.1935 0.35715 0.0
O15 O 0.43126 0.24859 0.3594 0.0
C16 C 0.44528 0.06462 0.26821 0.0
C17 C 0.39138 1.03183 1.21215 0.0
C18 C 0.4222 0.06631 1.2063 0.0
C19 C 0.44883 0.08225 0.23383 0.0
C20 C 0.41426 1.0304 0.27437 0.0
C21 C 0.38784 1.014 0.24657 0.0
C22 C 0.46873 0.0867 0.29803 0.0
C23 C 0.32931 0.11863 0.35777 0.0
C24 C 0.34927 0.19242 0.29928 0.0
C25 C 0.32289 0.31886 0.40201 0.0
C26 C 0.29856 0.40418 0.37702 0.0
C27 C 0.31197 0.37138 0.35316 0.0
C28 C 0.32433 0.32923 0.36556 0.0
C29 C 0.3097 0.35156 0.42595 0.0
C30 C 0.29773 0.39394 0.41358 0.0
C31 C 0.33381 0.27362 0.41459 0.0
H32 H 0.42736 0.07997 1.18001 0.0
H33 H 0.47199 0.10886 0.22821 0.0
H34 H 0.41003 1.01645 0.30071 0.0
H35 H 0.36518 0.98687 0.25183 0.0
H36 H 0.31308 0.37844 0.32493 0.0
H37 H 0.33458 0.3045 0.34662 0.0
H38 H 0.30822 0.34419 0.45413 0.0
H39 H 0.28702 0.41848 0.4325 0.0
Dy40 Dy 0.69993 0.68227 0.59209 0.0
Dy41 Dy 0.63429 0.62132 0.63264 0.0
C42 C 0.60582 0.71919 0.61254 0.0
O43 O 0.73671 0.67674 0.64378 0.0
O44 O 0.68073 0.64841 0.67759 0.0
O45 O 0.75836 0.72308 0.5857 0.0
O46 O 0.70411 0.72675 0.54728 0.0
O47 O 0.69526 0.57886 0.63194 0.0
O48 O 0.73457 0.61664 0.58919 0.0
O49 O 0.63648 0.58567 0.57935 0.0
O50 O 0.67587 0.63686 0.54736 0.0
O51 O 0.60049 0.56013 0.64578 0.0
O52 O 0.57907 0.62157 0.66899 0.0
C53 C 0.7216 0.66512 0.67506 0.0
O54 O 0.64812 0.72567 0.61766 0.0
O55 O 0.59394 0.67778 0.60727 0.0
C56 C 0.73536 0.79413 0.5668 0.0
C57 C 0.72704 0.88697 0.57458 0.0
C58 C 0.68981 0.85915 0.57718 0.0
C59 C 0.69387 0.8133 0.57306 0.0
C60 C 0.77302 0.82101 0.56744 0.0
C61 C 0.76902 0.86685 0.57136 0.0
C62 C 0.73943 0.74617 0.56029 0.0
C63 C 0.72782 0.58093 0.60895 0.0
C64 C 0.65544 0.59797 0.54938 0.0
C65 C 0.52274 0.57024 0.65056 0.0
C66 C 0.43542 0.55226 0.62548 0.0
C67 C 0.4705 0.52364 0.61755 0.0
C68 C 0.51347 0.53244 0.62992 0.0
C69 C 0.48749 0.59859 0.659 0.0
C70 C 0.44433 0.58961 0.64669 0.0
C71 C 0.56898 0.58016 0.66257 0.0
H72 H 0.65707 0.87307 0.57972 0.0
H73 H 0.66418 0.79315 0.57328 0.0
H74 H 0.80542 0.8068 0.5634 0.0
H75 H 0.79887 0.88639 0.56884 0.0
H76 H 0.46462 0.49385 0.6022 0.0
H77 H 0.53948 0.50947 0.6232 0.0
H78 H 0.49325 0.62784 0.67501 0.0
H79 H 0.41795 0.61212 0.65351 0.0
Dy80 Dy 0.16694 0.95874 0.84409 0.0
Dy81 Dy 0.22515 0.88732 0.88532 0.0
C82 C 0.12564 0.8627 0.86233 0.0
O83 O 0.17091 0.98891 0.89813 0.0
O84 O 0.19766 0.93025 0.93087 0.0
O85 O 0.14091 1.02489 0.83795 0.0
O86 O 0.11799 0.97198 0.80329 0.0
O87 O 0.26753 0.94894 0.88772 0.0
O88 O 0.23491 0.98802 0.84188 0.0
O89 O 0.25933 0.89127 0.83161 0.0
O90 O 0.20889 0.93199 0.79916 0.0
O91 O 0.28629 0.85354 0.89801 0.0
O92 O 0.22538 0.82996 0.92066 0.0
C93 C 0.18128 0.97123 0.92906 0.0
O94 O 0.11935 0.90572 0.86443 0.0
O95 O 0.16686 0.84912 0.86063 0.0
C96 C 0.06534 1.02075 0.82535 0.0
C97 C 0.97443 1.0256 0.8384 0.0
C98 C 0.99356 0.05028 0.81044 0.0
C99 C 1.03864 0.04767 0.80391 0.0
C100 C 0.04732 0.9991 0.85512 0.0
C101 C 1.00198 1.00138 0.86155 0.0
C102 C 0.11089 1.01202 0.8151 0.0
C103 C 0.26843 0.9812 0.86383 0.0
C104 C 0.247 0.91057 0.80142 0.0
C105 C 0.27815 0.77517 0.90351 0.0
C106 C 0.29928 0.68855 0.87957 0.0
C107 C 0.3288 0.72421 0.87469 0.0
C108 C 0.31845 0.76685 0.88655 0.0
C109 C 0.24906 0.73925 0.90923 0.0
C110 C 0.25957 0.69643 0.89748 0.0
C111 C 0.26686 0.82112 0.91484 0.0
H112 H 0.97317 0.06856 0.79157 0.0
H113 H 0.05213 0.06462 0.78096 0.0
H114 H 0.06791 0.97855 0.87222 0.0
H115 H 0.98807 0.98199 0.88304 0.0
H116 H 0.36023 0.71908 0.86192 0.0
H117 H 0.34207 0.79341 0.88222 0.0
H118 H 0.21798 0.74423 0.92257 0.0
H119 H 0.2363 0.66959 0.90191 0.0
Dy120 Dy 0.88559 0.41175 1.09521 0.0
Dy121 Dy 0.95706 0.47466 1.13402 0.0
C122 C 0.9854 0.37427 1.10998 0.0
O123 O 0.86396 0.40629 1.15199 0.0
O124 O 0.91358 0.45204 1.1806 0.0
O125 O 0.81985 0.38383 1.09301 0.0
O126 O 0.86909 0.36372 1.05491 0.0
O127 O 0.89486 0.51411 1.137 0.0
O128 O 0.85504 0.47986 1.09274 0.0
O129 O 0.95174 0.50657 1.07898 0.0
O130 O 0.90777 0.45619 1.04924 0.0
O131 O 1.01164 0.48035 1.17164 0.0
O132 O 0.99014 0.53763 1.1412 0.0
C133 C 0.87834 0.42557 1.1811 0.0
O134 O 0.94297 0.36502 1.10739 0.0
O135 O 0.9976 0.41604 1.11405 0.0
C136 C 0.82521 0.30814 1.08016 0.0
C137 C 0.82742 0.21583 1.09208 0.0
C138 C 0.79842 0.23466 1.06635 0.0
C139 C 0.7976 0.28036 1.06034 0.0
C140 C 0.85086 0.29028 1.10822 0.0
C141 C 0.85201 0.24436 1.11413 0.0
C142 C 0.83103 0.35463 1.06938 0.0
C143 C 0.8625 0.51435 1.11336 0.0
C144 C 0.93045 0.494 1.04981 0.0
C145 C 0.06702 0.53137 1.15151 0.0
C146 C 0.15373 0.55212 1.12922 0.0
C147 C 0.12028 0.58427 1.12754 0.0
C148 C 0.07753 0.57412 1.13881 0.0
C149 C 0.10055 0.4991 1.15317 0.0
C150 C 0.1435 0.50944 1.1422 0.0
C151 C 1.02086 0.521 1.16179 0.0
H152 H 0.77935 0.21396 1.04836 0.0
H153 H 0.77753 0.29364 1.03873 0.0
H154 H 0.87207 0.31158 1.1241 0.0
H155 H 0.8746 0.23101 1.13401 0.0
H156 H 0.12738 0.61751 1.11793 0.0
H157 H 0.05249 0.59973 1.13736 0.0
H158 H 0.09366 0.46581 1.16271 0.0
H159 H 0.16865 0.48396 1.14355 0.0
Dy160 Dy 0.72478 0.88755 1.06321 0.0
Dy161 Dy 0.66333 0.95381 1.10233 0.0
C162 C 0.76398 0.98303 1.08695 0.0
O163 O 0.76006 0.89118 1.11676 0.0
O164 O 0.70896 0.93079 1.14789 0.0
O165 O 0.78576 0.8543 1.05082 0.0
O166 O 0.72442 0.83118 1.02749 0.0
O167 O 0.62118 0.89989 1.07687 0.0
O168 O 0.66969 0.84742 1.09002 0.0
O169 O 0.669 0.98919 1.05028 0.0
O170 O 0.69795 0.9328 1.01748 0.0
O171 O 0.62453 1.01353 1.10754 0.0
O172 O 0.6161 0.95836 1.14446 0.0
C173 C 0.74773 0.91047 1.14642 0.0
O174 O 0.76651 0.94967 1.06444 0.0
O175 O 0.72831 0.98964 1.10598 0.0
C176 C 0.77647 0.77669 1.04581 0.0
C177 C 0.79739 0.6895 1.06966 0.0
C178 C 0.78834 0.72342 1.09405 0.0
C179 C 0.77758 0.76632 1.08227 0.0
C180 C 0.78575 0.74316 1.02133 0.0
C181 C 0.79613 0.70002 1.0331 0.0
C182 C 0.76606 0.82239 1.03352 0.0
C183 C 0.62817 0.85811 1.0844 0.0
C184 C 0.68136 0.9737 1.0195 0.0
C185 C 0.5518 0.99308 1.12191 0.0
C186 C 0.45962 0.98802 1.1099 0.0
C187 C 0.48642 0.95081 1.10416 0.0
C188 C 0.53197 0.95323 1.11047 0.0
C189 C 0.52605 1.03131 1.12406 0.0
C190 C 0.48048 1.02893 1.11805 0.0
C191 C 0.59922 0.99492 1.13122 0.0
H192 H 0.78903 0.71663 1.12234 0.0
H193 H 0.77034 0.79154 1.10173 0.0
H194 H 0.78532 0.75043 0.99309 0.0
H195 H 0.80411 0.67516 1.01357 0.0
H196 H 0.47173 0.91893 1.09775 0.0
H197 H 0.55121 0.92327 1.10812 0.0
H198 H 0.54082 0.06259 1.13206 0.0
H199 H 0.46148 0.05855 1.12301 0.0
Dy200 Dy 0.45653 0.47537 0.81352 0.0
Dy201 Dy 0.39014 0.41303 0.85502 0.0
C202 C 0.3633 0.51442 0.8372 0.0
O203 O 0.45428 0.50907 0.8677 0.0
O204 O 0.41453 0.45799 0.89995 0.0
O205 O 0.50944 0.47987 0.77538 0.0
O206 O 0.48742 0.53864 0.80248 0.0
O207 O 0.44584 0.3682 0.83638 0.0
O208 O 0.49951 0.41973 0.83674 0.0
O209 O 0.35712 0.41672 0.80142 0.0
O210 O 0.41204 0.44788 0.76814 0.0
O211 O 0.32705 0.37988 0.85937 0.0
O212 O 0.38024 0.36446 0.8966 0.0
C213 C 0.43561 0.49663 0.89782 0.0
O214 O 0.39367 0.51442 0.81247 0.0
O215 O 0.3583 0.48017 0.85882 0.0
C216 C 0.5644 0.5325 0.7937 0.0
C217 C 0.65116 0.55386 0.81706 0.0
C218 C 0.61698 0.58501 0.81966 0.0
C219 C 0.57417 0.57457 0.80789 0.0
C220 C 0.59876 0.50134 0.79098 0.0
C221 C 0.64169 0.51196 0.80253 0.0
C222 C 0.51821 0.5212 0.78322 0.0
C223 C 0.48827 0.37751 0.83718 0.0
C224 C 0.37196 0.42978 0.77044 0.0
C225 C 0.33841 0.30509 0.87407 0.0
C226 C 0.34103 0.21272 0.86337 0.0
C227 C 0.31061 0.23163 0.8871 0.0
C228 C 0.30959 0.27735 0.89255 0.0
C229 C 0.36599 0.287 0.8481 0.0
C230 C 0.36773 0.24105 0.84308 0.0
C231 C 0.34196 0.35222 0.8834 0.0
H232 H 0.62354 0.61771 0.8304 0.0
H233 H 0.54855 0.5994 0.81017 0.0
H234 H 0.5925 0.4686 0.78025 0.0
H235 H 0.66745 0.48726 0.80039 0.0
H236 H 0.29017 0.21092 0.90391 0.0
H237 H 0.28792 0.29074 0.91249 0.0
H238 H 0.38774 0.30817 0.83293 0.0
H239 H 0.39181 0.22751 0.8251 0.0
Dy240 Dy 0.86912 0.21074 0.56049 0.0
Dy241 Dy 0.92182 0.1377 0.60646 0.0
C242 C 0.81909 0.12235 0.5819 0.0
O243 O 0.832 0.20913 0.61331 0.0
O244 O 0.88415 0.17561 0.64833 0.0
O245 O 0.87269 0.26708 0.52424 0.0
O246 O 0.81047 0.24849 0.54731 0.0
O247 O 0.97627 0.18623 0.59086 0.0
O248 O 0.93098 0.24543 0.58286 0.0
O249 O 0.92617 0.10895 0.55158 0.0
O250 O 0.89415 0.16348 0.51682 0.0
O251 O 0.96291 0.11943 0.65154 0.0
O252 O 0.93693 0.06868 0.61639 0.0
C253 C 0.8448 0.19392 0.64481 0.0
O254 O 0.82353 0.15208 0.55642 0.0
O255 O 0.85092 0.11582 0.60536 0.0
C256 C 0.82385 0.32495 0.5405 0.0
C257 C 0.80135 0.41086 0.56491 0.0
C258 C 0.83002 0.38334 0.58489 0.0
C259 C 0.84104 0.34083 0.57288 0.0
C260 C 0.79626 0.35261 0.52001 0.0
C261 C 0.78527 0.39513 0.53198 0.0
C262 C 0.83177 0.27861 0.52942 0.0
C263 C 0.97143 0.22945 0.5866 0.0
C264 C 0.9135 0.12388 0.52009 0.0
C265 C 0.93094 0.05619 0.67734 0.0
C266 C 0.88841 1.0218 0.73784 0.0
C267 C 0.86848 0.05547 0.71744 0.0
C268 C 0.88954 0.07239 0.6875 0.0
C269 C 0.94991 1.02093 0.69617 0.0
C270 C 0.92893 1.00386 0.72618 0.0
C271 C 0.95399 0.07724 0.64755 0.0
H272 H 0.84375 0.39445 0.60996 0.0
H273 H 0.86234 0.31999 0.5892 0.0
H274 H 0.78239 0.34095 0.49508 0.0
H275 H 0.7631 0.41524 0.51585 0.0
H276 H 0.83793 0.07057 0.72584 0.0
H277 H 0.87411 0.09933 0.67305 0.0
H278 H 0.98174 1.00788 0.68862 0.0
H279 H 0.94645 0.97895 0.74164 0.0
Dy280 Dy 0.14073 0.62506 0.31261 0.0
Dy281 Dy 0.21291 0.67961 0.35754 0.0
C282 C 0.23033 0.57739 0.33416 0.0
O283 O 0.14324 0.58666 0.36515 0.0
O284 O 0.17639 0.63964 0.3993 0.0
O285 O 0.10584 0.56536 0.29742 0.0
O286 O 0.08239 0.62881 0.27843 0.0
O287 O 0.16288 0.73277 0.34091 0.0
O288 O 0.10521 0.68491 0.33654 0.0
O289 O 0.2433 0.68117 0.30317 0.0
O290 O 0.18714 0.65144 0.26888 0.0
O291 O 0.22967 0.7192 0.40352 0.0
O292 O 0.28089 0.69835 0.36774 0.0
C293 C 0.15839 0.59987 0.39634 0.0
O294 O 0.19964 0.58057 0.30925 0.0
O295 O 0.23635 0.60922 0.35735 0.0
C296 C 1.02903 0.57554 0.2962 0.0
C297 C 0.94634 0.54902 0.32375 0.0
C298 C 0.98015 0.56442 0.34651 0.0
C299 C 1.02102 0.57768 0.33286 0.0
C300 C 0.99515 0.5609 0.2733 0.0
C301 C 0.95406 0.54797 0.28693 0.0
C302 C 0.07325 0.5867 0.28238 0.0
C303 C 0.11974 0.72629 0.33872 0.0
C304 C 0.22756 0.66898 0.2719 0.0
C305 C 0.29405 0.68835 0.42865 0.0
C306 C 0.32965 0.6431 0.4883 0.0
C307 C 0.29865 0.62207 0.46606 0.0
C308 C 0.281 0.64455 0.43663 0.0
C309 C 0.32685 0.70858 0.44938 0.0
C310 C 0.3445 0.68623 0.47896 0.0
C311 C 0.27194 0.71262 0.39942 0.0
H312 H 0.97494 0.56624 0.37487 0.0
H313 H 0.04666 0.58907 0.35101 0.0
H314 H 1.00066 0.55888 0.24498 0.0
H315 H 0.92861 0.53616 0.26878 0.0
H316 H 0.28611 0.58929 0.4726 0.0
H317 H 0.25584 0.62814 0.42096 0.0
H318 H 0.33741 0.74228 0.44365 0.0
H319 H 0.36729 0.70432 0.49597 0.0
Dy320 Dy 0.92865 0.63826 0.84094 0.0
Dy321 Dy 0.86962 0.70702 0.88394 0.0
C322 C 0.97172 0.73334 0.86145 0.0
O323 O 0.92929 0.60676 0.89537 0.0
O324 O 0.89411 0.65964 0.92851 0.0
O325 O 0.97206 0.62535 0.7972 0.0
O326 O 0.95214 0.5716 0.8323 0.0
O327 O 0.82852 0.645 0.88526 0.0
O328 O 0.8599 0.61134 0.83769 0.0
O329 O 0.83432 0.70593 0.82973 0.0
O330 O 0.88567 0.669 0.79727 0.0
O331 O 0.86655 0.76113 0.92166 0.0
O332 O 0.8075 0.73953 0.89398 0.0
C333 C 0.9141 0.62044 0.92604 0.0
O334 O 0.97926 0.69072 0.85691 0.0
O335 O 0.93038 0.74662 0.86528 0.0
C336 C 0.9428 0.5609 0.7705 0.0
C337 C 0.88883 0.52995 0.71389 0.0
C338 C 0.92033 0.56394 0.70852 0.0
C339 C 0.94702 0.57894 0.73631 0.0
C340 C 0.91123 0.52708 0.77616 0.0
C341 C 0.88476 0.51159 0.74809 0.0
C342 C 0.96588 0.58252 0.80067 0.0
C343 C 0.8267 0.61598 0.85935 0.0
C344 C 0.84695 0.68892 0.79926 0.0
C345 C 0.81458 0.81652 0.90268 0.0
C346 C 0.79201 0.90206 0.87627 0.0
C347 C 0.75895 0.87182 0.88664 0.0
C348 C 0.77014 0.82962 0.89983 0.0
C349 C 0.84762 0.84684 0.89261 0.0
C350 C 0.83647 0.88912 0.87972 0.0
C351 C 0.82546 0.77028 0.91351 0.0
H352 H 0.92597 0.57792 0.68241 0.0
H353 H 0.97067 0.60524 0.73106 0.0
H354 H 0.90655 0.51281 0.80234 0.0
H355 H 0.86164 0.48473 0.75294 0.0
H356 H 0.72438 0.88092 0.88475 0.0
H357 H 0.74396 0.80687 0.90729 0.0
H358 H 0.88206 0.83768 0.89417 0.0
H359 H 0.8627 0.91146 0.87195 0.0
Dy360 Dy 0.21024 0.17691 1.08951 0.0
Dy361 Dy 0.13806 0.12217 1.13427 0.0
C362 C 0.11691 0.2233 1.1067 0.0
O363 O 0.23877 0.1813 1.1446 0.0
O364 O 0.18474 0.14865 1.17857 0.0
O365 O 0.22852 0.21482 1.04292 0.0
O366 O 0.27791 0.19799 1.0829 0.0
O367 O 0.1967 0.07706 1.13936 0.0
O368 O 0.23462 0.10683 1.09263 0.0
O369 O 0.14072 0.08385 1.08207 0.0
O370 O 0.1766 0.13468 1.04739 0.0
O371 O 0.08104 0.12609 1.16873 0.0
O372 O 0.10139 0.06296 1.14798 0.0
C373 C 0.22412 0.16835 1.17576 0.0
O374 O 0.15987 0.22982 1.10388 0.0
O375 O 0.10231 0.18204 1.10951 0.0
C376 C 0.29633 0.1867 1.02363 0.0
C377 C 0.33932 0.14109 0.96887 0.0
C378 C 0.30953 0.11858 0.99088 0.0
C379 C 0.2879 0.14138 1.01769 0.0
C380 C 0.32826 0.20855 1.00353 0.0
C381 C 0.3495 0.18604 0.97633 0.0
C382 C 0.27067 0.2107 1.0502 0.0
C383 C 0.22779 0.07436 1.11538 0.0
C384 C 0.15748 0.09552 1.05112 0.0
C385 C 1.02388 0.07506 1.15087 0.0
C386 C 0.93652 0.05577 1.1265 0.0
C387 C 0.97116 1.02569 1.12107 0.0
C388 C 1.01409 1.03503 1.13325 0.0
C389 C 0.98927 0.10539 1.15613 0.0
C390 C 0.94612 0.09585 1.14408 0.0
C391 C 0.06997 0.08469 1.16342 0.0
H392 H 0.30093 0.08417 0.98599 0.0
H393 H 0.26311 0.12404 1.03275 0.0
H394 H 0.33534 0.24343 1.00779 0.0
H395 H 0.37155 0.20498 0.95953 0.0
H396 H 0.96487 0.99431 1.10801 0.0
H397 H 1.03966 1.01065 1.1289 0.0
H398 H 0.99546 0.13652 1.16957 0.0
H399 H 0.92028 0.11994 1.14842 0.0
Dy400 Dy 0.67305 0.46343 0.33991 0.0
Dy401 Dy 0.72506 0.38768 0.38507 0.0
C402 C 0.62496 0.36815 0.35614 0.0
O403 O 0.66853 0.4916 0.39481 0.0
O404 O 0.69791 0.43439 0.42847 0.0
O405 O 0.63233 0.48045 0.2943 0.0
O406 O 0.6561 0.53207 0.32963 0.0
O407 O 0.77177 0.44506 0.38981 0.0
O408 O 0.74342 0.48652 0.34382 0.0
O409 O 0.7609 0.38591 0.33178 0.0
O410 O 0.71904 0.43501 0.29897 0.0
O411 O 0.78351 0.35125 0.40096 0.0
O412 O 0.71981 0.33042 0.42014 0.0
C413 C 0.67975 0.4747 0.42599 0.0
O414 O 0.61966 0.41157 0.35284 0.0
O415 O 0.66537 0.35262 0.36037 0.0
C416 C 0.66351 0.54371 0.26816 0.0
C417 C 0.7052 0.56413 1.20362 0.0
C418 C 0.72949 0.54505 0.23158 0.0
C419 C 0.7089 0.53553 0.26377 0.0
C420 C 0.64005 0.56594 0.2413 0.0
C421 C 0.66087 0.57657 1.2094 0.0
C422 C 0.64023 0.52288 0.29813 0.0
C423 C 0.77553 0.47737 0.36644 0.0
C424 C 0.75329 0.40833 0.30197 0.0
C425 C 0.77104 0.27448 0.40487 0.0
C426 C 0.79597 0.19009 0.37921 0.0
C427 C 0.76858 0.21819 0.35864 0.0
C428 C 0.75637 0.26001 0.3713 0.0
C429 C 0.7976 0.24628 0.42577 0.0
C430 C 0.80984 0.20444 0.41313 0.0
C431 C 0.76138 0.32 0.41689 0.0
H432 H 0.76332 0.53466 0.22767 0.0
H433 H 0.72775 0.51892 0.28429 0.0
H434 H 0.60506 0.57242 0.24403 0.0
H435 H 0.64097 0.59061 1.18801 0.0
H436 H 0.7566 0.20786 0.33275 0.0
H437 H 0.73597 0.28137 0.35466 0.0
H438 H 0.80958 0.25695 0.45158 0.0
H439 H 0.83109 0.18369 0.42958 0.0
Dy440 Dy 0.37943 0.91193 0.59187 0.0
Dy441 Dy 0.45078 0.97351 0.63171 0.0
C442 C 0.47702 0.87199 0.61115 0.0
O443 O 0.3514 0.91651 0.64675 0.0
O444 O 0.4085 0.94817 0.67838 0.0
O445 O 0.3138 0.8838 0.58947 0.0
O446 O 0.36344 0.86311 0.55198 0.0
O447 O 0.38855 1.01366 0.63209 0.0
O448 O 0.35157 0.98033 0.5859 0.0
O449 O 0.44916 1.00345 0.57585 0.0
O450 O 0.40358 0.955 0.54569 0.0
O451 O 0.48143 1.03765 0.63998 0.0
O452 O 0.50755 0.97985 0.66712 0.0
C453 C 0.36843 0.92977 0.67718 0.0
O454 O 0.43442 0.86407 0.60794 0.0
O455 O 0.49052 0.91352 0.6138 0.0
C456 C 0.31921 0.80793 0.57755 0.0
C457 C 0.31984 0.71608 0.59199 0.0
C458 C 0.29245 0.73414 0.56479 0.0
C459 C 0.29239 0.77959 0.55756 0.0
C460 C 0.34349 0.79093 0.60671 0.0
C461 C 0.34392 0.74526 0.61384 0.0
C462 C 0.32522 0.85422 0.56625 0.0
C463 C 0.35834 1.01475 0.60661 0.0
C464 C 0.42804 0.99168 0.5464 0.0
C465 C 0.55909 1.03311 0.64437 0.0
C466 C 0.64236 0.05714 0.61637 0.0
C467 C 0.61047 0.0897 0.62306 0.0
C468 C 0.56937 0.07782 0.63711 0.0
C469 C 0.59071 1.00044 0.63688 0.0
C470 C 0.63191 1.01235 0.62311 0.0
C471 C 0.51463 1.02114 0.65787 0.0
H472 H 0.27391 0.71292 0.54684 0.0
H473 H 0.2734 0.79218 0.53508 0.0
H474 H 0.36401 0.8127 0.62276 0.0
H475 H 0.36536 0.73251 0.63477 0.0
H476 H 0.61777 0.12446 0.61832 0.0
H477 H 0.54554 0.10367 0.64234 0.0
H478 H 0.58373 0.96569 0.6417 0.0
H479 H 0.65587 0.98656 0.61804 0.0
Dy480 Dy 0.22355 0.38818 0.56259 0.0
Dy481 Dy 0.16203 0.45393 0.60302 0.0
C482 C 0.2619 0.48358 0.58563 0.0
O483 O 0.2591 0.39179 0.6164 0.0
O484 O 0.20719 0.42958 0.648 0.0
O485 O 0.22607 0.33552 0.52371 0.0
O486 O 0.28539 0.35539 0.55206 0.0
O487 O 0.11841 0.39981 0.57909 0.0
O488 O 0.16793 0.34598 0.58642 0.0
O489 O 0.16667 0.48925 0.55082 0.0
O490 O 0.19594 0.43355 0.51747 0.0
O491 O 0.12401 0.51416 0.60817 0.0
O492 O 0.11688 0.46035 0.64646 0.0
C493 C 0.24621 0.40991 0.64642 0.0
O494 O 0.26292 0.4515 0.562 0.0
O495 O 0.22775 0.48872 0.60663 0.0
C496 C 0.2771 0.27861 0.54112 0.0
C497 C 0.29776 0.1909 0.56315 0.0
C498 C 0.33122 0.22305 0.5597 0.0
C499 C 0.32104 0.26631 0.54856 0.0
C500 C 0.24357 0.24628 0.54433 0.0
C501 C 0.25387 0.2028 0.55509 0.0
C502 C 0.26698 0.32555 0.53178 0.0
C503 C 0.12618 0.35731 0.58309 0.0
C504 C 0.17886 0.47415 0.51986 0.0
C505 C 0.05201 0.49443 0.62471 0.0
C506 C 0.9599 0.48872 0.61265 0.0
C507 C 0.98683 0.45143 0.6078 0.0
C508 C 1.03224 0.45414 0.61443 0.0
C509 C 1.02618 0.53267 0.6261 0.0
C510 C 0.98059 0.52992 0.62024 0.0
C511 C 0.09964 0.49656 0.63294 0.0
H512 H 0.36536 0.21461 0.56548 0.0
H513 H 0.34755 0.29042 0.54625 0.0
H514 H 0.20931 0.25462 0.53902 0.0
H515 H 0.22743 0.17867 0.55775 0.0
H516 H 0.97235 0.41932 0.60186 0.0
H517 H 0.05156 0.42417 0.6132 0.0
H518 H 1.04093 0.56426 0.6333 0.0
H519 H 0.96151 0.55961 0.6247 0.0
Dy520 Dy 0.95841 0.97742 0.31292 0.0
Dy521 Dy 0.89066 0.91718 0.35498 0.0
C522 C 0.86677 1.01924 0.33458 0.0
O523 O 0.95593 1.01352 0.36633 0.0
O524 O 0.91908 0.96103 0.39873 0.0
O525 O 1.01255 0.97916 0.27567 0.0
O526 O 0.99085 1.03945 0.30064 0.0
O527 O 0.94435 0.86804 0.33961 0.0
O528 O 0.99893 0.91924 0.33568 0.0
O529 O 0.8586 0.91726 0.3008 0.0
O530 O 0.91298 0.95072 0.26801 0.0
O531 O 0.87736 0.87492 0.4002 0.0
O532 O 0.82545 0.88908 0.36144 0.0
C533 C 0.93856 1.0003 0.3967 0.0
O534 O 0.89688 1.01839 0.30977 0.0
O535 O 0.8621 0.98568 0.3567 0.0
C536 C 0.0679 1.03201 0.293 0.0
C537 C 0.15468 0.05371 0.31608 0.0
C538 C 0.12026 0.08446 0.31932 0.0
C539 C 0.07746 0.07387 0.30768 0.0
C540 C 0.10249 1.00124 0.28963 0.0
C541 C 0.14546 1.01203 0.30104 0.0
C542 C 1.02176 1.02071 0.28234 0.0
C543 C 0.98694 0.87707 0.3379 0.0
C544 C 0.87349 0.93122 0.27001 0.0
C545 C 0.81004 0.90153 0.42187 0.0
C546 C 0.77507 0.95693 0.47474 0.0
C547 C 0.80545 0.92302 0.4835 0.0
C548 C 0.82239 0.89557 0.4575 0.0
C549 C 0.77985 0.93557 0.41284 0.0
C550 C 0.76224 0.96275 0.4391 0.0
C551 C 0.83478 0.87797 0.39426 0.0
H552 H 0.12662 0.11701 0.33041 0.0
H553 H 0.05172 0.09849 0.31039 0.0
H554 H 0.0964 0.96872 0.27843 0.0
H555 H 0.17144 0.98766 0.29837 0.0
H556 H 0.81519 0.91642 0.51075 0.0
H557 H 0.846 0.87018 0.46523 0.0
H558 H 0.77019 0.94172 0.38545 0.0
H559 H 0.73815 0.98779 0.43169 0.0
Dy560 Dy 0.37353 0.70499 1.06516 0.0
Dy561 Dy 0.43253 0.63202 1.10718 0.0
C562 C 0.32951 0.61349 1.08963 0.0
O563 O 0.34339 0.70435 1.12053 0.0
O564 O 0.39029 0.65848 1.15227 0.0
O565 O 0.31136 0.73822 1.05527 0.0
O566 O 0.37021 0.76182 1.02944 0.0
O567 O 0.48191 0.68653 1.09325 0.0
O568 O 0.43446 0.74375 1.08357 0.0
O569 O 0.43019 0.60462 1.05173 0.0
O570 O 0.39745 0.66073 1.01936 0.0
O571 O 0.45332 0.56395 1.11249 0.0
O572 O 0.48248 0.61453 1.14632 0.0
C573 C 0.3542 0.68334 1.1504 0.0
O574 O 0.33116 0.64367 1.06419 0.0
O575 O 0.36344 0.60645 1.11102 0.0
C576 C 0.31923 0.81555 1.04938 0.0
C577 C 0.29559 0.90045 1.07502 0.0
C578 C 0.32438 0.87289 1.09479 0.0
C579 C 0.33601 0.83083 1.08212 0.0
C580 C 0.29101 0.84305 1.0294 0.0
C581 C 0.2794 0.88504 1.042 0.0
C582 C 0.32913 0.77023 1.03694 0.0
C583 C 0.47513 0.72938 1.08867 0.0
C584 C 0.41638 0.6209 1.02107 0.0
C585 C 0.52927 0.55996 1.12352 0.0
C586 C 0.61802 0.54219 1.10716 0.0
C587 C 0.5977 0.52217 1.13694 0.0
C588 C 0.55385 0.53116 1.14505 0.0
C589 C 0.5478 0.57708 1.09219 0.0
C590 C 0.59184 0.56807 1.08395 0.0
C591 C 0.48523 0.57388 1.1346 0.0
H592 H 0.3382 0.88389 1.1199 0.0
H593 H 0.35783 0.81003 1.09802 0.0
H594 H 0.27749 0.83186 1.0042 0.0
H595 H 0.25715 0.90524 1.02605 0.0
H596 H 0.61655 0.50253 1.15593 0.0
H597 H 0.5399 0.51742 1.16914 0.0
H598 H 0.52881 0.59905 1.07498 0.0
H599 H 0.60616 0.58366 1.06076 0.0
Dy600 Dy 0.63913 0.12558 0.81262 0.0
Dy601 Dy 0.71377 0.17941 0.85583 0.0
C602 C 0.72914 0.07697 0.83171 0.0
O603 O 0.64353 0.08702 0.86513 0.0
O604 O 0.67898 0.13933 0.89852 0.0
O605 O 0.57934 0.13026 0.78008 0.0
O606 O 0.60256 0.06643 0.79844 0.0
O607 O 0.66356 0.23289 0.84034 0.0
O608 O 0.60542 0.18549 0.83768 0.0
O609 O 0.74093 0.1827 0.80041 0.0
O610 O 0.68346 0.15279 0.7676 0.0
O611 O 0.73262 0.21945 0.90104 0.0
O612 O 0.78234 0.19698 0.86451 0.0
C613 C 0.6603 0.09981 0.89595 0.0
O614 O 0.69744 0.08049 0.80763 0.0
O615 O 0.73665 0.10886 0.8546 0.0
C616 C 0.52469 0.07715 0.79853 0.0
C617 C 0.44001 0.0552 0.82577 0.0
C618 C 0.4756 1.02559 0.82949 0.0
C619 C 0.51725 1.03632 0.81601 0.0
C620 C 0.48897 0.10676 0.79463 0.0
C621 C 0.44711 0.09585 0.80801 0.0
C622 C 0.56948 0.08838 0.78467 0.0
C623 C 0.62034 0.22672 0.83902 0.0
C624 C 0.72368 0.17114 0.76948 0.0
C625 C 0.79761 0.18873 0.9253 0.0
C626 C 0.83513 0.14502 0.98501 0.0
C627 C 0.80371 0.12331 0.96353 0.0
C628 C 0.78516 0.14499 0.93405 0.0
C629 C 0.83064 0.20971 0.94532 0.0
C630 C 0.84921 0.18815 0.97492 0.0
C631 C 0.77466 0.21228 0.89611 0.0
H632 H 0.47098 0.99352 0.84216 0.0
H633 H 0.54365 1.01237 0.81919 0.0
H634 H 0.49331 0.13837 0.78117 0.0
H635 H 0.42025 0.11924 0.80453 0.0
H636 H 0.79169 0.09052 0.97064 0.0
H637 H 0.75982 0.12804 0.91888 0.0
H638 H 0.84071 0.2434 0.93901 0.0
H639 H 0.87221 0.20681 0.99133 0.0
C640 C 0.55598 0.25776 0.35711 0.0
C641 C 0.51101 0.27093 0.35678 0.0
C642 C 0.59172 0.28888 0.35662 0.0
C643 C 0.58526 0.33556 0.35555 0.0
H644 H 0.56393 0.22274 0.358 0.0
H645 H 0.62506 0.27589 0.35721 0.0
S646 S 0.47435 0.38895 0.35417 0.0
N647 N 0.46275 0.33531 0.35528 0.0
N648 N 0.52884 0.3928 0.35412 0.0
C649 C 0.54043 0.34928 0.35499 0.0
C650 C 0.50395 0.31752 0.35567 0.0
C651 C 0.52894 0.75398 0.59992 0.0
C652 C 0.57287 0.75811 0.61302 0.0
C653 C 0.49857 0.79025 0.59946 0.0
C654 C 0.51019 0.83322 0.61189 0.0
H655 H 0.5179 0.72235 0.58958 0.0
H656 H 0.4656 0.78449 0.58887 0.0
S657 S 0.61907 0.86143 0.65313 0.0
N658 N 0.62455 0.8089 0.64172 0.0
N659 N 0.56874 0.87591 0.64031 0.0
C660 C 0.55369 0.83748 0.62578 0.0
C661 C 0.58444 0.80055 0.62649 0.0
C662 C 0.09037 0.78508 0.85171 0.0
C663 C 0.08617 0.82995 0.86234 0.0
C664 C 0.05388 0.75466 0.85137 0.0
C665 C 1.01063 0.7669 0.86175 0.0
H666 H 0.12226 0.77318 0.84326 0.0
H667 H 0.05981 0.72103 0.84269 0.0
S668 S 0.98181 0.87884 0.8956 0.0
N669 N 1.03461 0.88369 0.8857 0.0
N670 N 0.96755 0.82751 0.8853 0.0
C671 C 1.00628 0.81144 0.87306 0.0
C672 C 1.04331 0.84242 0.8733 0.0
C673 C 1.03776 0.25561 1.10633 0.0
C674 C 0.08418 0.26263 1.10661 0.0
C675 C 1.00674 0.29123 1.10707 0.0
C676 C 1.01982 0.33653 1.10846 0.0
H677 H 1.02495 0.222 1.10562 0.0
H678 H 0.97186 0.28288 1.10682 0.0
S679 S 0.13717 0.37451 1.11005 0.0
N680 N 0.14108 0.31985 1.10841 0.0
N681 N 0.08376 0.38561 1.11011 0.0
C682 C 0.06615 0.34409 1.10878 0.0
C683 C 0.09776 0.30778 1.10778 0.0
C684 C 0.54862 0.83341 1.0689 0.0
C685 C 0.58971 0.82457 1.08606 0.0
C686 C 0.51216 0.80323 1.07013 0.0
C687 C 0.51433 0.7621 1.08857 0.0
H688 H 0.54451 0.86404 1.05399 0.0
H689 H 0.48203 0.81214 1.056 0.0
S690 S 0.61083 0.72557 1.14326 0.0
N691 N 0.62782 0.77285 1.12544 0.0
N692 N 0.56035 0.7169 1.1276 0.0
C693 C 0.5547 0.75345 1.10673 0.0
C694 C 0.59184 0.78422 1.10552 0.0
C695 C 0.54124 0.25902 0.83939 0.0
C696 C 0.58766 0.26614 0.83929 0.0
C697 C 0.51011 0.29456 0.83888 0.0
C698 C 0.52298 0.33992 0.83813 0.0
H699 H 0.52851 0.22538 0.83977 0.0
H700 H 0.47527 0.28609 0.83898 0.0
S701 S 0.64017 0.3783 0.83716 0.0
N702 N 0.64432 0.32361 0.8382 0.0
N703 N 0.58672 0.38925 0.83716 0.0
C704 C 0.56929 0.34764 0.83802 0.0
C705 C 0.60106 0.31137 0.83861 0.0
C706 C 1.04358 0.33671 0.57655 0.0
C707 C 0.08773 0.3234 0.58378 0.0
C708 C 1.00698 0.30678 0.5779 0.0
C709 C 1.01185 0.261 0.58608 0.0
H710 H 1.0369 0.3709 0.5693 0.0
H711 H 0.97439 0.31984 0.57208 0.0
S712 S 0.12029 0.20721 0.60574 0.0
N713 N 0.1336 0.25979 0.59875 0.0
N714 N 0.06604 0.20404 0.60068 0.0
C715 C 0.05595 0.24694 0.59278 0.0
C716 C 0.09327 0.27764 0.59171 0.0
C717 C 1.04033 0.75838 0.33995 0.0
C718 C 0.08672 0.76557 0.33915 0.0
C719 C 1.00901 0.79387 0.33983 0.0
C720 C 1.02168 0.83932 0.3387 0.0
H721 H 1.02772 0.72466 0.34066 0.0
H722 H 0.97424 0.78534 0.34044 0.0
S723 S 0.1388 0.8779 0.33576 0.0
N724 N 0.1431 0.82323 0.33699 0.0
N725 N 0.08535 0.8887 0.33651 0.0
C726 C 0.06799 0.84705 0.33782 0.0
C727 C 0.09992 0.81088 0.33812 0.0
C728 C 0.38388 0.96386 1.17709 0.0
C729 C 0.37175 1.0086 1.18095 0.0
C730 C 0.4036 0.95022 1.14555 0.0
C731 C 0.41201 0.98185 1.11862 0.0
H732 H 0.38722 0.94233 1.20014 0.0
H733 H 0.42085 0.91878 1.14616 0.0
S734 S 0.35376 0.08865 1.10737 0.0
N735 N 0.34439 0.07347 1.14892 0.0
N736 N 0.38235 0.04787 1.08967 0.0
C737 C 0.38416 1.01907 1.11757 0.0
C738 C 0.36377 1.03288 1.14949 0.0
C739 C 0.69112 0.94381 0.53684 0.0
C740 C 0.72151 0.93484 0.56475 0.0
C741 C 0.70578 0.96547 0.5061 0.0
C742 C 0.75039 0.97818 0.50384 0.0
H743 H 0.66002 0.92605 0.53492 0.0
H744 H 0.68557 0.96263 0.48224 0.0
S745 S 0.82763 0.99323 0.57936 0.0
N746 N 0.78622 0.96395 0.5958 0.0
N747 N 0.81364 1.00486 0.53776 0.0
C748 C 0.773 0.98565 0.53606 0.0
C749 C 0.75829 0.9634 0.56726 0.0
C750 C 0.89914 0.05314 0.82776 0.0
C751 C 0.92634 1.01677 0.83643 0.0
C752 C 0.87291 0.05172 0.79684 0.0
C753 C 0.87428 1.01382 0.77508 0.0
H754 H 0.90581 0.08524 0.83956 0.0
H755 H 0.86044 0.08299 0.78654 0.0
S756 S 0.91256 0.90251 0.8024 0.0
N757 N 0.93316 0.93651 0.8327 0.0
N758 N 0.88184 0.93367 0.77562 0.0
C759 C 0.8865 0.97377 0.79161 0.0
C760 C 0.9139 0.9753 0.82254 0.0
C761 C 0.80633 0.13905 1.07744 0.0
C762 C 0.84018 0.16848 1.08812 0.0
C763 C 0.80811 0.11999 1.04357 0.0
C764 C 0.84474 0.12868 1.02173 0.0
H765 H 0.77459 0.14011 1.0904 0.0
H766 H 0.77782 0.1065 1.03247 0.0
S767 S 0.95386 0.16882 1.05318 0.0
N768 N 0.9197 0.18038 1.08573 0.0
N769 N 0.92384 0.14304 1.0226 0.0
C770 C 0.88405 0.1418 1.0389 0.0
C771 C 0.88182 0.1617 1.07298 0.0
C772 C 0.39263 0.15749 0.886 0.0
C773 C 0.35236 0.16506 0.86782 0.0
C774 C 0.3921 0.13645 0.91937 0.0
C775 C 0.35142 0.12279 0.93372 0.0
H776 H 0.42176 0.17662 0.87919 0.0
H777 H 0.42081 0.14016 0.9366 0.0
S778 S 0.24843 0.10352 0.88181 0.0
N779 N 0.28002 0.13363 0.85538 0.0
N780 N 0.27824 0.09414 0.91815 0.0
C781 C 0.31666 0.1147 0.90935 0.0
C782 C 0.31761 0.13574 0.87541 0.0
C783 C 0.29733 0.63918 0.57948 0.0
C784 C 0.33147 0.66818 0.59034 0.0
C785 C 0.29994 0.61904 0.54607 0.0
C786 C 0.33761 0.62627 0.52506 0.0
H787 H 0.26509 0.64157 0.59151 0.0
H788 H 0.26977 0.60606 0.53438 0.0
S789 S 0.44656 0.6634 0.5589 0.0
N790 N 0.41147 0.67706 0.59026 0.0
N791 N 0.41702 0.63801 0.52784 0.0
C792 C 0.37657 0.63858 0.54305 0.0
C793 C 0.37354 0.65944 0.57668 0.0
C794 C 0.90292 0.45029 0.64717 0.0
C795 C 0.91216 0.48255 0.62089 0.0
C796 C 0.88131 0.46289 0.67813 0.0
C797 C 0.86911 0.50752 0.68239 0.0
H798 H 0.92029 0.41892 0.64785 0.0
H799 H 0.88358 0.44075 0.70088 0.0
S800 S 0.85442 0.58957 0.60988 0.0
N801 N 0.88366 0.54925 0.59224 0.0
N802 N 0.84306 0.57317 0.65078 0.0
C803 C 0.8623 0.53252 0.65114 0.0
C804 C 0.88423 0.51967 0.61964 0.0
C805 C 0.71693 0.51675 1.15248 0.0
C806 C 0.72021 0.55988 1.16656 0.0
C807 C 0.69083 0.50946 1.12194 0.0
C808 C 0.66721 0.54527 1.10674 0.0
H809 H 0.72568 0.48824 1.1688 0.0
H810 H 0.68064 0.47569 1.11624 0.0
S811 S 0.69774 0.66346 1.117 0.0
N812 N 0.72221 0.63802 1.15088 0.0
N813 N 0.67284 0.62435 1.09352 0.0
C814 C 0.68523 0.58779 1.11238 0.0
C815 C 0.71192 0.59524 1.14315 0.0
C816 C 0.25146 0.45275 0.33738 0.0
C817 C 0.2847 0.44875 0.36373 0.0
C818 C 0.2357 0.4946 0.32636 0.0
C819 C 0.25283 0.5341 0.34106 0.0
H820 H 0.23637 0.42324 0.32616 0.0
H821 H 0.20862 0.49578 0.30727 0.0
S822 S 0.34507 0.54137 0.40713 0.0
N823 N 0.3372 0.48756 0.40169 0.0
N824 N 0.30863 0.56606 0.38069 0.0
C825 C 0.28797 0.53037 0.36596 0.0
C826 C 0.30356 0.4878 0.3774 0.0
C827 C 0.35441 0.54084 0.63736 0.0
C828 C 0.38945 0.54151 0.6131 0.0
C829 C 0.31226 0.52491 0.62752 0.0
C830 C 0.30341 0.50897 0.59301 0.0
H831 H 0.36016 0.5505 0.6647 0.0
H832 H 0.28724 0.52269 0.64779 0.0
S833 S 0.38143 0.51157 0.51773 0.0
N834 N 0.41072 0.53054 0.55175 0.0
N835 N 0.33178 0.50053 0.53333 0.0
C836 C 0.3373 0.51242 0.56786 0.0
C837 C 0.38018 0.52865 0.57788 0.0
C838 C 0.30775 0.60613 0.88953 0.0
C839 C 0.31061 0.64319 0.86665 0.0
C840 C 0.32229 0.56394 0.87898 0.0
C841 C 0.34031 0.55701 0.84508 0.0
H842 H 0.29599 0.61011 0.91637 0.0
H843 H 0.32141 0.53714 0.8983 0.0
S844 S 0.34929 0.64203 0.77349 0.0
N845 N 0.32851 0.66924 0.80731 0.0
N846 N 0.35605 0.5904 0.78753 0.0
C847 C 0.34109 0.59339 0.82132 0.0
C848 C 0.32629 0.63629 0.83209 0.0
C849 C 0.20717 0.5831 1.0848 0.0
C850 C 0.19942 0.56374 1.1183 0.0
C851 C 0.24972 0.59709 1.07499 0.0
C852 C 0.28621 0.5924 1.09834 0.0
H853 H 0.17997 0.58804 1.06622 0.0
H854 H 0.25373 0.61273 1.04923 0.0
S855 S 0.28249 0.5454 1.19003 0.0
N856 N 0.2311 0.54154 1.17515 0.0
N857 N 0.31094 0.56725 1.15708 0.0
C858 C 0.27878 0.57232 1.13182 0.0
C859 C 0.23546 0.55821 1.14171 0.0
C860 C 0.85521 0.59677 1.12183 0.0
C861 C 0.8398 0.55753 1.10547 0.0
C862 C 0.84058 0.63889 1.11065 0.0
C863 C 0.8098 0.64394 1.08257 0.0
H864 H 0.88031 0.5953 1.14257 0.0
H865 H 0.85488 0.66787 1.12332 0.0
S866 S 0.75386 0.55211 1.03416 0.0
N867 N 0.78824 0.52669 1.06193 0.0
N868 N 0.76065 0.60578 1.04123 0.0
C869 C 0.79221 0.60504 1.06723 0.0
C870 C 0.80708 0.56199 1.07865 0.0
C871 C 0.70514 0.58275 0.86274 0.0
C872 C 0.69685 0.56578 0.82854 0.0
C873 C 0.74768 0.59685 0.8732 0.0
C874 C 0.7836 0.59464 0.84982 0.0
H875 H 0.67837 0.58567 0.8814 0.0
H876 H 0.75215 0.61061 0.89951 0.0
S877 S 0.77816 0.55449 0.75644 0.0
N878 N 0.7273 0.54851 0.77104 0.0
N879 N 0.80714 0.57433 0.79027 0.0
C880 C 0.77563 0.5769 0.8156 0.0
C881 C 0.73231 0.56272 0.80507 0.0
C882 C 0.78544 0.49217 0.55511 0.0
C883 C 0.78715 0.45532 0.57834 0.0
C884 C 0.76848 0.53323 0.56592 0.0
C885 C 0.75213 0.53934 0.60044 0.0
H886 H 0.7966 0.48909 0.52802 0.0
H887 H 0.76654 0.55985 0.54647 0.0
S888 S 0.75182 0.4547 0.67255 0.0
N889 N 0.77282 0.42855 0.63828 0.0
N890 N 0.74135 0.50572 0.65854 0.0
C891 C 0.75511 0.50335 0.62439 0.0
C892 C 0.77262 0.46149 0.61343 0.0
C893 C 0.82235 0.53444 0.33559 0.0
C894 C 0.81915 0.49972 0.36086 0.0
C895 C 0.86343 0.55061 0.32423 0.0
C896 C 0.90321 0.53357 0.33821 0.0
H897 H 0.79288 0.54817 0.32321 0.0
H898 H 0.86405 0.57629 0.30393 0.0
S899 S 0.91402 0.44524 0.40698 0.0
N900 N 0.86014 0.45065 0.40093 0.0
N901 N 0.93716 0.4818 0.38003 0.0
C902 C 0.90074 0.50062 0.36483 0.0
C903 C 0.85883 0.48366 0.37613 0.0
C904 C 0.74626 0.95179 0.83625 0.0
C905 C 0.77993 0.947 0.8622 0.0
C906 C 0.73208 0.99394 0.82457 0.0
C907 C 0.7508 1.03314 0.83851 0.0
H908 H 0.73011 0.92265 0.82535 0.0
H909 H 0.70482 0.99566 0.80568 0.0
S910 S 0.84191 1.03868 0.9057 0.0
N911 N 0.83274 0.98507 0.9005 0.0
N912 N 0.80716 0.06396 0.87818 0.0
C913 C 0.78601 1.02866 0.86327 0.0
C914 C 0.80029 0.98578 0.87519 0.0
C915 C 0.84058 1.00899 1.07131 0.0
C916 C 0.80504 1.00905 1.09513 0.0
C917 C 0.88232 1.02614 1.081 0.0
C918 C 0.89046 0.04389 1.11501 0.0
H919 H 0.8366 0.99424 1.0453 0.0
H920 H 0.90885 1.02432 1.06202 0.0
S921 S 0.80884 0.05264 1.18731 0.0
N922 N 0.78081 1.02998 1.15414 0.0
N923 N 0.8592 0.0612 1.17232 0.0
C924 C 0.85485 0.04583 1.13859 0.0
C925 C 0.81222 1.0287 1.12867 0.0
C926 C 0.82377 0.06683 0.37615 0.0
C927 C 0.84374 0.06171 0.34273 0.0
C928 C 0.80779 0.10806 0.38732 0.0
C929 C 0.8105 0.14607 0.3655 0.0
H930 H 0.8219 1.03915 0.39462 0.0
H931 H 0.79365 0.11029 0.41354 0.0
S932 S 0.85737 0.15063 0.27482 0.0
N933 N 0.8634 0.09827 0.28727 0.0
N934 N 0.83339 0.1757 0.30832 0.0
C935 C 0.82886 0.14125 0.33152 0.0
C936 C 0.84545 0.09919 0.32017 0.0
C937 C 0.738 0.11165 0.56676 0.0
C938 C 0.77493 0.10134 0.58853 0.0
C939 C 0.6952 0.09671 0.57534 0.0
C940 C 0.68778 0.07027 0.60568 0.0
H941 H 0.74186 0.13256 0.54347 0.0
H942 H 0.66763 0.10631 0.55836 0.0
S943 S 0.7719 1.03324 0.67153 0.0
N944 N 0.79999 0.06253 0.64223 0.0
N945 N 0.72019 1.03417 0.65733 0.0
C946 C 0.72417 0.05884 0.62714 0.0
C947 C 0.76749 0.07445 0.61887 0.0
C948 C 0.33238 0.13845 0.60738 0.0
C949 C 0.30902 0.14512 0.57527 0.0
C950 C 0.34595 0.09586 0.61828 0.0
C951 C 0.33711 0.05812 0.59732 0.0
H952 H 0.34076 0.16655 0.62403 0.0
H953 H 0.36476 0.09284 0.64285 0.0
S954 S 0.27716 0.05839 0.51036 0.0
N955 N 0.27735 0.11092 0.52262 0.0
N956 N 0.30285 1.03093 0.54258 0.0
C957 C 0.31282 0.06443 0.56537 0.0
C958 C 0.29883 0.10786 0.55447 0.0
C959 C 0.20864 0.08257 0.36173 0.0
C960 C 0.20032 0.06599 0.32742 0.0
C961 C 0.25095 0.09753 0.372 0.0
C962 C 0.28659 0.09656 0.34831 0.0
H963 H 0.18203 0.08461 0.38063 0.0
H964 H 0.25544 0.11094 0.39843 0.0
S965 S 0.28101 0.05785 0.25456 0.0
N966 N 0.23048 0.05036 0.26949 0.0
N967 N 0.30991 0.07786 0.28837 0.0
C968 C 0.27865 0.07918 0.31398 0.0
C969 C 0.23557 0.06412 0.30364 0.0
C970 C 0.26627 1.02317 1.07396 0.0
C971 C 0.24973 1.03101 1.10822 0.0
C972 C 0.28219 0.98151 1.0641 0.0
C973 C 0.28254 0.9454 1.08796 0.0
H974 H 0.26551 0.04894 1.05381 0.0
H975 H 0.29363 0.97741 1.03717 0.0
S976 S 0.24695 0.94888 1.18203 0.0
N977 N 0.23772 0.99971 1.16695 0.0
N978 N 0.26741 0.92098 1.14841 0.0
C979 C 0.26803 0.95307 1.12289 0.0
C980 C 0.25154 0.9958 1.13294 0.0
C981 C 0.35863 0.04431 0.81478 0.0
C982 C 0.39509 0.04202 0.83825 0.0
C983 C 0.31729 1.02666 0.82412 0.0
C984 C 0.31055 1.00588 0.85736 0.0
H985 H 0.36255 0.05793 0.78829 0.0
H986 H 0.29102 1.02753 0.80431 0.0
S987 S 0.39337 0.99859 0.93072 0.0
N988 N 0.42036 1.0226 0.89786 0.0
N989 N 0.34283 0.98918 0.91538 0.0
C990 C 0.34605 1.00591 0.88189 0.0
C991 C 0.38819 1.02399 0.87236 0.0
C992 C 0.27059 0.18729 0.27209 0.0
C993 C 0.3171 0.18989 0.26763 0.0
C994 C 0.24064 0.17968 0.24304 0.0
C995 C 0.25542 0.17518 1.20772 0.0
H996 H 0.25715 0.18977 0.29852 0.0
H997 H 0.20561 0.17759 0.24836 0.0
S998 S 0.37385 0.17837 1.18126 0.0
N999 N 0.37581 0.18608 0.22458 0.0
N1000 N 0.32094 0.17328 1.17084 0.0
C1001 C 0.30189 0.1779 1.2031 0.0
C1002 C 0.33214 0.1848 0.2326 0.0
C1003 C 0.66907 0.55111 0.45413 0.0
C1004 C 0.67268 0.50436 0.45855 0.0
C1005 C 0.66301 0.58055 0.48304 0.0
C1006 C 0.65875 0.56529 0.5184 0.0
H1007 H 0.6718 0.5656 0.42783 0.0
H1008 H 0.66158 0.61587 0.4775 0.0
S1009 S 0.6663 0.44641 0.5459 0.0
N1010 N 0.67241 0.44481 0.50236 0.0
N1011 N 0.65951 0.49925 0.55599 0.0
C1012 C 0.66188 0.51859 0.52337 0.0
C1013 C 0.66923 0.48859 0.4939 0.0
C1014 C 0.26363 0.91496 0.73486 0.0
C1015 C 0.27912 0.91311 0.77035 0.0
C1016 C 0.29269 0.91985 0.70571 0.0
C1017 C 0.33918 0.92469 0.71002 0.0
H1018 H 0.22848 0.91237 0.72941 0.0
H1019 H 0.27813 0.92056 0.67928 0.0
S1020 S 0.39735 0.92517 0.7976 0.0
N1021 N 0.34492 0.9177 0.80798 0.0
N1022 N 0.39868 0.92865 0.75379 0.0
C1023 C 0.35513 0.92386 0.74548 0.0
C1024 C 0.32554 0.91762 0.77524 0.0
C1025 C 0.92361 0.60307 0.99329 0.0
C1026 C 0.91818 0.58845 0.95785 0.0
C1027 C 0.92887 0.57268 1.02236 0.0
C1028 C 0.92789 0.52586 1.01789 0.0
H1029 H 0.92442 0.63835 0.99866 0.0
H1030 H 0.93278 0.58616 1.04882 0.0
S1031 S 0.91177 0.4696 0.93115 0.0
N1032 N 0.91097 0.52295 0.92073 0.0
N1033 N 0.91929 0.46711 0.97464 0.0
C1034 C 0.92146 0.51096 0.98275 0.0
C1035 C 0.9171 0.54172 0.95315 0.0
C1036 C 0.7965 0.921 0.24207 0.0
C1037 C 0.84282 0.9258 0.23753 0.0
C1038 C 0.76636 0.91602 1.21304 0.0
C1039 C 0.78063 0.91402 1.17754 0.0
H1040 H 0.78298 0.9218 0.26856 0.0
H1041 H 0.73141 0.91334 1.21859 0.0
S1042 S 0.89785 0.92629 1.14985 0.0
N1043 N 0.9007 0.92994 1.19359 0.0
N1044 N 0.84509 0.91866 1.13971 0.0
C1045 C 0.82685 0.91867 1.17249 0.0
C1046 C 0.85746 0.92505 1.20206 0.0
C1047 C 0.42447 0.54413 0.9931 0.0
C1048 C 0.42141 0.5909 0.98851 0.0
C1049 C 0.42937 0.51441 0.96422 0.0
C1050 C 0.43304 0.52943 0.92876 0.0
H1051 H 0.42233 0.5299 1.01953 0.0
H1052 H 0.43052 0.47911 0.96988 0.0
S1053 S 0.42681 0.64829 0.90094 0.0
N1054 N 0.42151 0.65022 0.94454 0.0
N1055 N 0.4325 0.59529 0.89093 0.0
C1056 C 0.43042 0.57615 0.92364 0.0
C1057 C 0.42415 0.60642 0.95308 0.0
C1058 C 0.79943 0.18127 0.74064 0.0
C1059 C 0.75279 0.17789 0.73659 0.0
C1060 C 0.82827 0.18719 0.71141 0.0
C1061 C 0.81257 0.19146 0.67602 0.0
H1062 H 0.81427 0.17842 0.76688 0.0
H1063 H 0.86352 0.1883 0.71674 0.0
S1064 S 0.69375 0.18407 0.64949 0.0
N1065 N 0.69282 0.17808 0.69314 0.0
N1066 N 0.74621 0.19064 0.6389 0.0
C1067 C 0.76599 0.18834 0.67143 0.0
C1068 C 0.73656 0.18121 0.70126 0.0
C1069 C 0.16875 0.49082 0.4525 0.0
C1070 C 0.17384 0.50571 0.4879 0.0
C1071 C 0.1621 0.52094 0.42342 0.0
C1072 C 0.16083 0.56771 0.42797 0.0
H1073 H 0.16945 0.45554 0.44716 0.0
H1074 H 0.15894 0.50737 0.39694 0.0
S1075 S 0.17468 0.62481 0.51464 0.0
N1076 N 0.17831 0.57158 0.52498 0.0
N1077 N 0.16666 0.62679 0.47124 0.0
C1078 C 0.16661 0.58288 0.46311 0.0
C1079 C 0.17281 0.55246 0.49261 0.0
C1080 C 0.73835 0.67499 0.74267 0.0
C1081 C 0.75308 0.67127 0.70723 0.0
C1082 C 0.76823 0.68261 0.77184 0.0
C1083 C 0.81473 0.68605 0.76748 0.0
H1084 H 0.70335 0.67234 0.748 0.0
H1085 H 0.75473 0.6845 0.79828 0.0
S1086 S 0.87154 0.67785 0.68092 0.0
N1087 N 0.81874 0.67186 0.6704 0.0
N1088 N 0.87339 0.68431 0.72438 0.0
C1089 C 0.82977 0.68184 0.73238 0.0
C1090 C 0.79957 0.67502 0.70273 0.0
C1091 C 0.17291 0.04759 0.95693 0.0
C1092 C 0.175 1.00083 0.96158 0.0
C1093 C 0.16648 0.07724 0.98547 0.0
C1094 C 0.16032 0.06226 1.02068 0.0
H1095 H 0.17686 0.06191 0.9307 0.0
H1096 H 0.16637 0.11254 0.97973 0.0
S1097 S 0.163 0.94336 1.04864 0.0
N1098 N 0.17097 0.94137 1.00532 0.0
N1099 N 0.15753 0.99644 1.05848 0.0
C1100 C 0.16195 1.01554 1.02593 0.0
C1101 C 0.16962 0.98521 0.99676 0.0
C1102 C 0.83864 0.45563 0.23555 0.0
C1103 C 0.85087 0.41914 1.21454 0.0
C1104 C 0.80754 0.45137 0.2634 0.0
C1105 C 0.78776 0.41025 0.27274 0.0
H1106 H 0.85171 0.48832 0.22946 0.0
H1107 H 0.79865 0.48092 0.2777 0.0
S1108 S 0.8096 0.30357 0.22756 0.0
N1109 N 0.84046 0.33982 1.20579 0.0
N1110 N 0.78451 0.33181 0.25891 0.0
C1111 C 0.80085 0.37319 0.25284 0.0
C1112 C 0.83151 0.37768 0.22369 0.0
C1113 C 0.43043 0.07068 0.51969 0.0
C1114 C 0.42693 1.02403 0.51474 0.0
C1115 C 0.4264 0.1018 0.49102 0.0
C1116 C 0.41975 0.08812 0.45547 0.0
H1117 H 0.43535 0.08352 0.54626 0.0
H1118 H 0.42911 0.1369 0.49678 0.0
S1119 S 0.40651 0.97023 0.42754 0.0
N1120 N 0.41452 0.96658 0.47093 0.0
N1121 N 0.40848 1.02372 0.4177 0.0
C1122 C 0.41611 0.04157 0.45027 0.0
C1123 C 0.41922 1.0101 0.4795 0.0
C1124 C 0.35504 0.41954 0.70308 0.0
C1125 C 0.34041 0.42498 0.73835 0.0
C1126 C 0.32486 0.41321 0.67397 0.0
C1127 C 0.27824 0.41281 0.67826 0.0
H1128 H 0.39016 0.41963 0.69788 0.0
H1129 H 0.33831 0.40958 0.64763 0.0
S1130 S 0.22195 0.42789 0.76448 0.0
N1131 N 0.275 0.43059 0.77501 0.0
N1132 N 0.21968 0.41978 0.72118 0.0
C1133 C 0.26336 0.41897 0.71324 0.0
C1134 C 0.29385 0.42469 0.74281 0.0
C1135 C 0.92537 0.10842 0.45283 0.0
C1136 C 0.92037 0.09291 0.4882 0.0
C1137 C 0.93306 0.07893 0.42387 0.0
C1138 C 0.93525 1.03207 0.42835 0.0
H1139 H 0.92372 0.14374 0.44741 0.0
H1140 H 0.93608 0.09306 0.39747 0.0
S1141 S 0.92197 0.97328 0.51475 0.0
N1142 N 0.91745 1.02624 0.52507 0.0
N1143 N 0.93014 0.97222 0.47153 0.0
C1144 C 0.92949 1.01627 0.4634 0.0
C1145 C 0.92261 0.04609 0.49284 0.0
C1146 C 0.3051 0.67411 0.24532 0.0
C1147 C 0.25851 0.67359 0.24001 0.0
C1148 C 0.33544 0.67757 1.21681 0.0
C1149 C 0.32129 0.68232 1.18109 0.0
H1150 H 0.3186 0.67089 0.27199 0.0
H1151 H 0.3705 0.67669 1.22294 0.0
S1152 S 0.20328 0.6821 1.1515 0.0
N1153 N 0.20034 0.67674 1.19511 0.0
N1154 N 0.25644 0.68532 1.14228 0.0
C1155 C 0.2748 0.6822 1.17531 0.0
C1156 C 0.24388 0.6773 1.20433 0.0
C1157 C 0.6699 0.9904 0.95211 0.0
C1158 C 0.67679 1.0052 0.98738 0.0
C1159 C 0.66306 1.02068 0.92311 0.0
C1160 C 0.66335 0.06752 0.92757 0.0
H1161 H 0.66918 0.95509 0.94685 0.0
H1162 H 0.6584 1.00713 0.89674 0.0
S1163 S 0.68242 0.12431 1.01382 0.0
N1164 N 0.68482 0.07101 1.02416 0.0
N1165 N 0.67276 0.12645 0.97062 0.0
C1166 C 0.67104 0.08254 0.96254 0.0
C1167 C 0.67746 0.05199 0.99196 0.0
loop_
_geom_bond_atom_site_label_1
_geom_bond_atom_site_label_2
_geom_bond_distance
_geom_bond_site_symmetry_2
_ccdc_geom_bond_type
Dy0 O3 2.307 . S
Dy0 O5 2.395 . S
Dy0 O6 2.379 . S
Dy0 O8 2.339 . S
Dy0 O10 2.298 . S
Dy0 O14 2.275 . S
Dy0 C22 2.738 . S
Dy1 O4 2.298 . S
Dy1 O7 2.275 . S
Dy1 O9 2.307 . S
Dy1 O11 2.395 . S
Dy1 O12 2.379 . S
Dy1 O15 2.339 . S
Dy1 C31 2.738 . S
C2 O14 1.254 . S
C2 O15 1.257 . S
O3 Dy0 2.307 . S
O3 C13 1.266 . S
O4 Dy1 2.298 . S
O4 C13 1.236 . S
O5 Dy0 2.395 . S
O5 C22 1.255 . S
O6 Dy0 2.379 . S
O6 C22 1.249 . S
O7 Dy1 2.275 . S
O7 C23 1.254 . S
O8 Dy0 2.339 . S
O8 C23 1.257 . S
O9 Dy1 2.307 . S
O9 C24 1.266 . S
O10 Dy0 2.298 . S
O10 C24 1.236 . S
O11 Dy1 2.395 . S
O11 C31 1.255 . S
O12 Dy1 2.379 . S
O12 C31 1.249 . S
C13 O3 1.266 . S
C13 O4 1.236 . S
O14 Dy0 2.275 . S
O14 C2 1.254 . S
O15 Dy1 2.339 . S
O15 C2 1.257 . S
C16 C19 1.344 . S
C16 C20 1.328 1_545 S
C16 C22 1.516 . S
C17 C18 1.304 1_565 S
C17 C21 1.323 . S
C18 C17 1.304 1_545 S
C18 C19 1.371 . S
C18 H32 0.930 1_554 S
C19 C16 1.344 . S
C19 C18 1.371 . S
C19 H33 0.931 . S
C20 C16 1.328 1_565 S
C20 C21 1.433 . S
C20 H34 0.931 . S
C21 C17 1.323 . S
C21 C20 1.433 . S
C21 H35 0.933 . S
C22 Dy0 2.738 . S
C22 O5 1.255 . S
C22 O6 1.249 . S
C22 C16 1.516 . S
C23 O7 1.254 . S
C23 O8 1.257 . S
C24 O9 1.266 . S
C24 O10 1.236 . S
C25 C28 1.344 . S
C25 C29 1.328 . S
C25 C31 1.516 . S
C26 C27 1.304 . S
C26 C30 1.323 . S
C27 C26 1.304 . S
C27 C28 1.371 . S
C27 H36 0.930 . S
C28 C25 1.344 . S
C28 C27 1.371 . S
C28 H37 0.931 . S
C29 C25 1.328 . S
C29 C30 1.433 . S
C29 H38 0.931 . S
C30 C26 1.323 . S
C30 C29 1.433 . S
C30 H39 0.933 . S
C31 Dy1 2.738 . S
C31 O11 1.255 . S
C31 O12 1.249 . S
C31 C25 1.516 . S
H32 C18 0.930 1_556 S
H33 C19 0.931 . S
H34 C20 0.931 . S
H35 C21 0.933 . S
H36 C27 0.930 . S
H37 C28 0.931 . S
H38 C29 0.931 . S
H39 C30 0.933 . S
Dy40 O43 2.307 . S
Dy40 O45 2.395 . S
Dy40 O46 2.379 . S
Dy40 O48 2.339 . S
Dy40 O50 2.298 . S
Dy40 O54 2.275 . S
Dy40 C62 2.738 . S
Dy41 O44 2.298 . S
Dy41 O47 2.275 . S
Dy41 O49 2.307 . S
Dy41 O51 2.395 . S
Dy41 O52 2.379 . S
Dy41 O55 2.339 . S
Dy41 C71 2.738 . S
C42 O54 1.254 . S
C42 O55 1.257 . S
O43 Dy40 2.307 . S
O43 C53 1.266 . S
O44 Dy41 2.298 . S
O44 C53 1.236 . S
O45 Dy40 2.395 . S
O45 C62 1.255 . S
O46 Dy40 2.379 . S
O46 C62 1.249 . S
O47 Dy41 2.275 . S
O47 C63 1.254 . S
O48 Dy40 2.339 . S
O48 C63 1.257 . S
O49 Dy41 2.307 . S
O49 C64 1.266 . S
O50 Dy40 2.298 . S
O50 C64 1.236 . S
O51 Dy41 2.395 . S
O51 C71 1.255 . S
O52 Dy41 2.379 . S
O52 C71 1.249 . S
C53 O43 1.266 . S
C53 O44 1.236 . S
O54 Dy40 2.275 . S
O54 C42 1.254 . S
O55 Dy41 2.339 . S
O55 C42 1.257 . S
C56 C59 1.344 . S
C56 C60 1.328 . S
C56 C62 1.516 . S
C57 C58 1.304 . S
C57 C61 1.323 . S
C58 C57 1.304 . S
C58 C59 1.371 . S
C58 H72 0.930 . S
C59 C56 1.344 . S
C59 C58 1.371 . S
C59 H73 0.931 . S
C60 C56 1.328 . S
C60 C61 1.433 . S
C60 H74 0.931 . S
C61 C57 1.323 . S
C61 C60 1.433 . S
C61 H75 0.933 . S
C62 Dy40 2.738 . S
C62 O45 1.255 . S
C62 O46 1.249 . S
C62 C56 1.516 . S
C63 O47 1.254 . S
C63 O48 1.257 . S
C64 O49 1.266 . S
C64 O50 1.236 . S
C65 C68 1.344 . S
C65 C69 1.328 . S
C65 C71 1.516 . S
C66 C67 1.304 . S
C66 C70 1.323 . S
C67 C66 1.304 . S
C67 C68 1.371 . S
C67 H76 0.930 . S
C68 C65 1.344 . S
C68 C67 1.371 . S
C68 H77 0.931 . S
C69 C65 1.328 . S
C69 C70 1.433 . S
C69 H78 0.931 . S
C70 C66 1.323 . S
C70 C69 1.433 . S
C70 H79 0.933 . S
C71 Dy41 2.738 . S
C71 O51 1.255 . S
C71 O52 1.249 . S
C71 C65 1.516 . S
H72 C58 0.930 . S
H73 C59 0.931 . S
H74 C60 0.931 . S
H75 C61 0.933 . S
H76 C67 0.930 . S
H77 C68 0.931 . S
H78 C69 0.931 . S
H79 C70 0.933 . S
Dy80 O83 2.307 . S
Dy80 O85 2.395 . S
Dy80 O86 2.379 . S
Dy80 O88 2.339 . S
Dy80 O90 2.298 . S
Dy80 O94 2.275 . S
Dy80 C102 2.738 . S
Dy81 O84 2.298 . S
Dy81 O87 2.275 . S
Dy81 O89 2.307 . S
Dy81 O91 2.395 . S
Dy81 O92 2.379 . S
Dy81 O95 2.339 . S
Dy81 C111 2.738 . S
C82 O94 1.254 . S
C82 O95 1.257 . S
O83 Dy80 2.307 . S
O83 C93 1.266 . S
O84 Dy81 2.298 . S
O84 C93 1.236 . S
O85 Dy80 2.395 . S
O85 C102 1.255 . S
O86 Dy80 2.379 . S
O86 C102 1.249 . S
O87 Dy81 2.275 . S
O87 C103 1.254 . S
O88 Dy80 2.339 . S
O88 C103 1.257 . S
O89 Dy81 2.307 . S
O89 C104 1.266 . S
O90 Dy80 2.298 . S
O90 C104 1.236 . S
O91 Dy81 2.395 . S
O91 C111 1.255 . S
O92 Dy81 2.379 . S
O92 C111 1.249 . S
C93 O83 1.266 . S
C93 O84 1.236 . S
O94 Dy80 2.275 . S
O94 C82 1.254 . S
O95 Dy81 2.339 . S
O95 C82 1.257 . S
C96 C99 1.344 . S
C96 C100 1.328 1_565 S
C96 C102 1.516 . S
C97 C98 1.304 1_545 S
C97 C101 1.323 . S
C98 C97 1.304 1_565 S
C98 C99 1.371 . S
C98 H112 0.930 . S
C99 C96 1.344 . S
C99 C98 1.371 . S
C99 H113 0.931 . S
C100 C96 1.328 1_545 S
C100 C101 1.433 . S
C100 H114 0.931 . S
C101 C97 1.323 . S
C101 C100 1.433 . S
C101 H115 0.933 . S
C102 Dy80 2.738 . S
C102 O85 1.255 . S
C102 O86 1.249 . S
C102 C96 1.516 . S
C103 O87 1.254 . S
C103 O88 1.257 . S
C104 O89 1.266 . S
C104 O90 1.236 . S
C105 C108 1.344 . S
C105 C109 1.328 . S
C105 C111 1.516 . S
C106 C107 1.304 . S
C106 C110 1.323 . S
C107 C106 1.304 . S
C107 C108 1.371 . S
C107 H116 0.930 . S
C108 C105 1.344 . S
C108 C107 1.371 . S
C108 H117 0.931 . S
C109 C105 1.328 . S
C109 C110 1.433 . S
C109 H118 0.931 . S
C110 C106 1.323 . S
C110 C109 1.433 . S
C110 H119 0.933 . S
C111 Dy81 2.738 . S
C111 O91 1.255 . S
C111 O92 1.249 . S
C111 C105 1.516 . S
H112 C98 0.930 . S
H113 C99 0.931 . S
H114 C100 0.931 . S
H115 C101 0.933 . S
H116 C107 0.930 . S
H117 C108 0.931 . S
H118 C109 0.931 . S
H119 C110 0.933 . S
Dy120 O123 2.307 . S
Dy120 O125 2.395 . S
Dy120 O126 2.379 . S
Dy120 O128 2.339 . S
Dy120 O130 2.298 . S
Dy120 O134 2.275 . S
Dy120 C142 2.738 . S
Dy121 O124 2.298 . S
Dy121 O127 2.275 . S
Dy121 O129 2.307 . S
Dy121 O131 2.395 . S
Dy121 O132 2.379 1_655 S
Dy121 O135 2.339 . S
Dy121 C151 2.738 1_655 S
C122 O134 1.254 . S
C122 O135 1.257 . S
O123 Dy120 2.307 . S
O123 C133 1.266 . S
O124 Dy121 2.298 . S
O124 C133 1.236 . S
O125 Dy120 2.395 . S
O125 C142 1.255 . S
O126 Dy120 2.379 . S
O126 C142 1.249 . S
O127 Dy121 2.275 . S
O127 C143 1.254 . S
O128 Dy120 2.339 . S
O128 C143 1.257 . S
O129 Dy121 2.307 . S
O129 C144 1.266 . S
O130 Dy120 2.298 . S
O130 C144 1.236 . S
O131 Dy121 2.395 . S
O131 C151 1.255 1_655 S
O132 Dy121 2.379 1_455 S
O132 C151 1.249 . S
C133 O123 1.266 . S
C133 O124 1.236 . S
O134 Dy120 2.275 . S
O134 C122 1.254 . S
O135 Dy121 2.339 . S
O135 C122 1.257 . S
C136 C139 1.344 . S
C136 C140 1.328 . S
C136 C142 1.516 . S
C137 C138 1.304 . S
C137 C141 1.323 . S
C138 C137 1.304 . S
C138 C139 1.371 . S
C138 H152 0.930 . S
C139 C136 1.344 . S
C139 C138 1.371 . S
C139 H153 0.931 . S
C140 C136 1.328 . S
C140 C141 1.433 . S
C140 H154 0.931 . S
C141 C137 1.323 . S
C141 C140 1.433 . S
C141 H155 0.933 . S
C142 Dy120 2.738 . S
C142 O125 1.255 . S
C142 O126 1.249 . S
C142 C136 1.516 . S
C143 O127 1.254 . S
C143 O128 1.257 . S
C144 O129 1.266 . S
C144 O130 1.236 . S
C145 C148 1.344 . S
C145 C149 1.328 . S
C145 C151 1.516 . S
C146 C147 1.304 . S
C146 C150 1.323 . S
C147 C146 1.304 . S
C147 C148 1.371 . S
C147 H156 0.930 . S
C148 C145 1.344 . S
C148 C147 1.371 . S
C148 H157 0.931 1_455 S
C149 C145 1.328 . S
C149 C150 1.433 . S
C149 H158 0.931 . S
C150 C146 1.323 . S
C150 C149 1.433 . S
C150 H159 0.933 . S
C151 Dy121 2.738 1_455 S
C151 O131 1.255 1_455 S
C151 O132 1.249 . S
C151 C145 1.516 . S
H152 C138 0.930 . S
H153 C139 0.931 . S
H154 C140 0.931 . S
H155 C141 0.933 . S
H156 C147 0.930 . S
H157 C148 0.931 1_655 S
H158 C149 0.931 . S
H159 C150 0.933 . S
Dy160 O163 2.307 . S
Dy160 O165 2.395 . S
Dy160 O166 2.379 . S
Dy160 O168 2.339 . S
Dy160 O170 2.298 . S
Dy160 O174 2.275 . S
Dy160 C182 2.738 . S
Dy161 O164 2.298 . S
Dy161 O167 2.275 . S
Dy161 O169 2.307 . S
Dy161 O171 2.395 . S
Dy161 O172 2.379 . S
Dy161 O175 2.339 . S
Dy161 C191 2.738 . S
C162 O174 1.254 . S
C162 O175 1.257 . S
O163 Dy160 2.307 . S
O163 C173 1.266 . S
O164 Dy161 2.298 . S
O164 C173 1.236 . S
O165 Dy160 2.395 . S
O165 C182 1.255 . S
O166 Dy160 2.379 . S
O166 C182 1.249 . S
O167 Dy161 2.275 . S
O167 C183 1.254 . S
O168 Dy160 2.339 . S
O168 C183 1.257 . S
O169 Dy161 2.307 . S
O169 C184 1.266 . S
O170 Dy160 2.298 . S
O170 C184 1.236 . S
O171 Dy161 2.395 . S
O171 C191 1.255 . S
O172 Dy161 2.379 . S
O172 C191 1.249 . S
C173 O163 1.266 . S
C173 O164 1.236 . S
O174 Dy160 2.275 . S
O174 C162 1.254 . S
O175 Dy161 2.339 . S
O175 C162 1.257 . S
C176 C179 1.344 . S
C176 C180 1.328 . S
C176 C182 1.516 . S
C177 C178 1.304 . S
C177 C181 1.323 . S
C178 C177 1.304 . S
C178 C179 1.371 . S
C178 H192 0.930 . S
C179 C176 1.344 . S
C179 C178 1.371 . S
C179 H193 0.931 . S
C180 C176 1.328 . S
C180 C181 1.433 . S
C180 H194 0.931 . S
C181 C177 1.323 . S
C181 C180 1.433 . S
C181 H195 0.933 . S
C182 Dy160 2.738 . S
C182 O165 1.255 . S
C182 O166 1.249 . S
C182 C176 1.516 . S
C183 O167 1.254 . S
C183 O168 1.257 . S
C184 O169 1.266 . S
C184 O170 1.236 . S
C185 C188 1.344 . S
C185 C189 1.328 1_565 S
C185 C191 1.516 . S
C186 C187 1.304 1_545 S
C186 C190 1.323 . S
C187 C186 1.304 1_565 S
C187 C188 1.371 . S
C187 H196 0.930 1_556 S
C188 C185 1.344 . S
C188 C187 1.371 . S
C188 H197 0.931 . S
C189 C185 1.328 1_545 S
C189 C190 1.433 . S
C189 H198 0.931 . S
C190 C186 1.323 . S
C190 C189 1.433 . S
C190 H199 0.933 . S
C191 Dy161 2.738 . S
C191 O171 1.255 . S
C191 O172 1.249 . S
C191 C185 1.516 . S
H192 C178 0.930 . S
H193 C179 0.931 . S
H194 C180 0.931 . S
H195 C181 0.933 . S
H196 C187 0.930 1_554 S
H197 C188 0.931 . S
H198 C189 0.931 . S
H199 C190 0.933 . S
Dy200 O203 2.307 . S
Dy200 O205 2.395 . S
Dy200 O206 2.379 . S
Dy200 O208 2.339 . S
Dy200 O210 2.298 . S
Dy200 O214 2.275 . S
Dy200 C222 2.738 . S
Dy201 O204 2.298 . S
Dy201 O207 2.275 . S
Dy201 O209 2.307 . S
Dy201 O211 2.395 . S
Dy201 O212 2.379 . S
Dy201 O215 2.339 . S
Dy201 C231 2.738 . S
C202 O214 1.254 . S
C202 O215 1.257 . S
O203 Dy200 2.307 . S
O203 C213 1.266 . S
O204 Dy201 2.298 . S
O204 C213 1.236 . S
O205 Dy200 2.395 . S
O205 C222 1.255 . S
O206 Dy200 2.379 . S
O206 C222 1.249 . S
O207 Dy201 2.275 . S
O207 C223 1.254 . S
O208 Dy200 2.339 . S
O208 C223 1.257 . S
O209 Dy201 2.307 . S
O209 C224 1.266 . S
O210 Dy200 2.298 . S
O210 C224 1.236 . S
O211 Dy201 2.395 . S
O211 C231 1.255 . S
O212 Dy201 2.379 . S
O212 C231 1.249 . S
C213 O203 1.266 . S
C213 O204 1.236 . S
O214 Dy200 2.275 . S
O214 C202 1.254 . S
O215 Dy201 2.339 . S
O215 C202 1.257 . S
C216 C219 1.344 . S
C216 C220 1.328 . S
C216 C222 1.516 . S
C217 C218 1.304 . S
C217 C221 1.323 . S
C218 C217 1.304 . S
C218 C219 1.371 . S
C218 H232 0.930 . S
C219 C216 1.344 . S
C219 C218 1.371 . S
C219 H233 0.931 . S
C220 C216 1.328 . S
C220 C221 1.433 . S
C220 H234 0.931 . S
C221 C217 1.323 . S
C221 C220 1.433 . S
C221 H235 0.933 . S
C222 Dy200 2.738 . S
C222 O205 1.255 . S
C222 O206 1.249 . S
C222 C216 1.516 . S
C223 O207 1.254 . S
C223 O208 1.257 . S
C224 O209 1.266 . S
C224 O210 1.236 . S
C225 C228 1.344 . S
C225 C229 1.328 . S
C225 C231 1.516 . S
C226 C227 1.304 . S
C226 C230 1.323 . S
C227 C226 1.304 . S
C227 C228 1.371 . S
C227 H236 0.930 . S
C228 C225 1.344 . S
C228 C227 1.371 . S
C228 H237 0.931 . S
C229 C225 1.328 . S
C229 C230 1.433 . S
C229 H238 0.931 . S
C230 C226 1.323 . S
C230 C229 1.433 . S
C230 H239 0.933 . S
C231 Dy201 2.738 . S
C231 O211 1.255 . S
C231 O212 1.249 . S
C231 C225 1.516 . S
H232 C218 0.930 . S
H233 C219 0.931 . S
H234 C220 0.931 . S
H235 C221 0.933 . S
H236 C227 0.930 . S
H237 C228 0.931 . S
H238 C229 0.931 . S
H239 C230 0.933 . S
Dy240 O243 2.307 . S
Dy240 O245 2.395 . S
Dy240 O246 2.379 . S
Dy240 O248 2.339 . S
Dy240 O250 2.298 . S
Dy240 O254 2.275 . S
Dy240 C262 2.738 . S
Dy241 O244 2.298 . S
Dy241 O247 2.275 . S
Dy241 O249 2.307 . S
Dy241 O251 2.395 . S
Dy241 O252 2.379 . S
Dy241 O255 2.339 . S
Dy241 C271 2.738 . S
C242 O254 1.254 . S
C242 O255 1.257 . S
O243 Dy240 2.307 . S
O243 C253 1.266 . S
O244 Dy241 2.298 . S
O244 C253 1.236 . S
O245 Dy240 2.395 . S
O245 C262 1.255 . S
O246 Dy240 2.379 . S
O246 C262 1.249 . S
O247 Dy241 2.275 . S
O247 C263 1.254 . S
O248 Dy240 2.339 . S
O248 C263 1.257 . S
O249 Dy241 2.307 . S
O249 C264 1.266 . S
O250 Dy240 2.298 . S
O250 C264 1.236 . S
O251 Dy241 2.395 . S
O251 C271 1.255 . S
O252 Dy241 2.379 . S
O252 C271 1.249 . S
C253 O243 1.266 . S
C253 O244 1.236 . S
O254 Dy240 2.275 . S
O254 C242 1.254 . S
O255 Dy241 2.339 . S
O255 C242 1.257 . S
C256 C259 1.344 . S
C256 C260 1.328 . S
C256 C262 1.516 . S
C257 C258 1.304 . S
C257 C261 1.323 . S
C258 C257 1.304 . S
C258 C259 1.371 . S
C258 H272 0.930 . S
C259 C256 1.344 . S
C259 C258 1.371 . S
C259 H273 0.931 . S
C260 C256 1.328 . S
C260 C261 1.433 . S
C260 H274 0.931 . S
C261 C257 1.323 . S
C261 C260 1.433 . S
C261 H275 0.933 . S
C262 Dy240 2.738 . S
C262 O245 1.255 . S
C262 O246 1.249 . S
C262 C256 1.516 . S
C263 O247 1.254 . S
C263 O248 1.257 . S
C264 O249 1.266 . S
C264 O250 1.236 . S
C265 C268 1.344 . S
C265 C269 1.328 1_545 S
C265 C271 1.516 . S
C266 C267 1.304 1_565 S
C266 C270 1.323 . S
C267 C266 1.304 1_545 S
C267 C268 1.371 . S
C267 H276 0.930 . S
C268 C265 1.344 . S
C268 C267 1.371 . S
C268 H277 0.931 . S
C269 C265 1.328 1_565 S
C269 C270 1.433 . S
C269 H278 0.931 . S
C270 C266 1.323 . S
C270 C269 1.433 . S
C270 H279 0.933 . S
C271 Dy241 2.738 . S
C271 O251 1.255 . S
C271 O252 1.249 . S
C271 C265 1.516 . S
H272 C258 0.930 . S
H273 C259 0.931 . S
H274 C260 0.931 . S
H275 C261 0.933 . S
H276 C267 0.930 . S
H277 C268 0.931 . S
H278 C269 0.931 . S
H279 C270 0.933 . S
Dy280 O283 2.307 . S
Dy280 O285 2.395 . S
Dy280 O286 2.379 1_455 S
Dy280 O288 2.339 . S
Dy280 O290 2.298 . S
Dy280 O294 2.275 . S
Dy280 C302 2.738 1_455 S
Dy281 O284 2.298 . S
Dy281 O287 2.275 . S
Dy281 O289 2.307 . S
Dy281 O291 2.395 . S
Dy281 O292 2.379 . S
Dy281 O295 2.339 . S
Dy281 C311 2.738 . S
C282 O294 1.254 . S
C282 O295 1.257 . S
O283 Dy280 2.307 . S
O283 C293 1.266 . S
O284 Dy281 2.298 . S
O284 C293 1.236 . S
O285 Dy280 2.395 . S
O285 C302 1.255 1_455 S
O286 Dy280 2.379 1_655 S
O286 C302 1.249 . S
O287 Dy281 2.275 . S
O287 C303 1.254 . S
O288 Dy280 2.339 . S
O288 C303 1.257 . S
O289 Dy281 2.307 . S
O289 C304 1.266 . S
O290 Dy280 2.298 . S
O290 C304 1.236 . S
O291 Dy281 2.395 . S
O291 C311 1.255 . S
O292 Dy281 2.379 . S
O292 C311 1.249 . S
C293 O283 1.266 . S
C293 O284 1.236 . S
O294 Dy280 2.275 . S
O294 C282 1.254 . S
O295 Dy281 2.339 . S
O295 C282 1.257 . S
C296 C299 1.344 . S
C296 C300 1.328 . S
C296 C302 1.516 . S
C297 C298 1.304 . S
C297 C301 1.323 . S
C298 C297 1.304 . S
C298 C299 1.371 . S
C298 H312 0.930 . S
C299 C296 1.344 . S
C299 C298 1.371 . S
C299 H313 0.931 1_655 S
C300 C296 1.328 . S
C300 C301 1.433 . S
C300 H314 0.931 . S
C301 C297 1.323 . S
C301 C300 1.433 . S
C301 H315 0.933 . S
C302 Dy280 2.738 1_655 S
C302 O285 1.255 1_655 S
C302 O286 1.249 . S
C302 C296 1.516 . S
C303 O287 1.254 . S
C303 O288 1.257 . S
C304 O289 1.266 . S
C304 O290 1.236 . S
C305 C308 1.344 . S
C305 C309 1.328 . S
C305 C311 1.516 . S
C306 C307 1.304 . S
C306 C310 1.323 . S
C307 C306 1.304 . S
C307 C308 1.371 . S
C307 H316 0.930 . S
C308 C305 1.344 . S
C308 C307 1.371 . S
C308 H317 0.931 . S
C309 C305 1.328 . S
C309 C310 1.433 . S
C309 H318 0.931 . S
C310 C306 1.323 . S
C310 C309 1.433 . S
C310 H319 0.933 . S
C311 Dy281 2.738 . S
C311 O291 1.255 . S
C311 O292 1.249 . S
C311 C305 1.516 . S
H312 C298 0.930 . S
H313 C299 0.931 1_455 S
H314 C300 0.931 . S
H315 C301 0.933 . S
H316 C307 0.930 . S
H317 C308 0.931 . S
H318 C309 0.931 . S
H319 C310 0.933 . S
Dy320 O323 2.307 . S
Dy320 O325 2.395 . S
Dy320 O326 2.379 . S
Dy320 O328 2.339 . S
Dy320 O330 2.298 . S
Dy320 O334 2.275 . S
Dy320 C342 2.738 . S
Dy321 O324 2.298 . S
Dy321 O327 2.275 . S
Dy321 O329 2.307 . S
Dy321 O331 2.395 . S
Dy321 O332 2.379 . S
Dy321 O335 2.339 . S
Dy321 C351 2.738 . S
C322 O334 1.254 . S
C322 O335 1.257 . S
O323 Dy320 2.307 . S
O323 C333 1.266 . S
O324 Dy321 2.298 . S
O324 C333 1.236 . S
O325 Dy320 2.395 . S
O325 C342 1.255 . S
O326 Dy320 2.379 . S
O326 C342 1.249 . S
O327 Dy321 2.275 . S
O327 C343 1.254 . S
O328 Dy320 2.339 . S
O328 C343 1.257 . S
O329 Dy321 2.307 . S
O329 C344 1.266 . S
O330 Dy320 2.298 . S
O330 C344 1.236 . S
O331 Dy321 2.395 . S
O331 C351 1.255 . S
O332 Dy321 2.379 . S
O332 C351 1.249 . S
C333 O323 1.266 . S
C333 O324 1.236 . S
O334 Dy320 2.275 . S
O334 C322 1.254 . S
O335 Dy321 2.339 . S
O335 C322 1.257 . S
C336 C339 1.344 . S
C336 C340 1.328 . S
C336 C342 1.516 . S
C337 C338 1.304 . S
C337 C341 1.323 . S
C338 C337 1.304 . S
C338 C339 1.371 . S
C338 H352 0.930 . S
C339 C336 1.344 . S
C339 C338 1.371 . S
C339 H353 0.931 . S
C340 C336 1.328 . S
C340 C341 1.433 . S
C340 H354 0.931 . S
C341 C337 1.323 . S
C341 C340 1.433 . S
C341 H355 0.933 . S
C342 Dy320 2.738 . S
C342 O325 1.255 . S
C342 O326 1.249 . S
C342 C336 1.516 . S
C343 O327 1.254 . S
C343 O328 1.257 . S
C344 O329 1.266 . S
C344 O330 1.236 . S
C345 C348 1.344 . S
C345 C349 1.328 . S
C345 C351 1.516 . S
C346 C347 1.304 . S
C346 C350 1.323 . S
C347 C346 1.304 . S
C347 C348 1.371 . S
C347 H356 0.930 . S
C348 C345 1.344 . S
C348 C347 1.371 . S
C348 H357 0.931 . S
C349 C345 1.328 . S
C349 C350 1.433 . S
C349 H358 0.931 . S
C350 C346 1.323 . S
C350 C349 1.433 . S
C350 H359 0.933 . S
C351 Dy321 2.738 . S
C351 O331 1.255 . S
C351 O332 1.249 . S
C351 C345 1.516 . S
H352 C338 0.930 . S
H353 C339 0.931 . S
H354 C340 0.931 . S
H355 C341 0.933 . S
H356 C347 0.930 . S
H357 C348 0.931 . S
H358 C349 0.931 . S
H359 C350 0.933 . S
Dy360 O363 2.307 . S
Dy360 O365 2.395 . S
Dy360 O366 2.379 . S
Dy360 O368 2.339 . S
Dy360 O370 2.298 . S
Dy360 O374 2.275 . S
Dy360 C382 2.738 . S
Dy361 O364 2.298 . S
Dy361 O367 2.275 . S
Dy361 O369 2.307 . S
Dy361 O371 2.395 1_545 S
Dy361 O372 2.379 1_455 S
Dy361 O375 2.339 . S
Dy361 C391 2.738 1_445 S
C362 O374 1.254 . S
C362 O375 1.257 . S
O363 Dy360 2.307 . S
O363 C373 1.266 . S
O364 Dy361 2.298 . S
O364 C373 1.236 . S
O365 Dy360 2.395 . S
O365 C382 1.255 . S
O366 Dy360 2.379 . S
O366 C382 1.249 . S
O367 Dy361 2.275 . S
O367 C383 1.254 1_545 S
O368 Dy360 2.339 . S
O368 C383 1.257 1_545 S
O369 Dy361 2.307 . S
O369 C384 1.266 . S
O370 Dy360 2.298 . S
O370 C384 1.236 . S
O371 Dy361 2.395 1_565 S
O371 C391 1.255 1_455 S
O372 Dy361 2.379 1_655 S
O372 C391 1.249 1_545 S
C373 O363 1.266 . S
C373 O364 1.236 . S
O374 Dy360 2.275 . S
O374 C362 1.254 . S
O375 Dy361 2.339 . S
O375 C362 1.257 . S
C376 C379 1.344 . S
C376 C380 1.328 . S
C376 C382 1.516 . S
C377 C378 1.304 . S
C377 C381 1.323 . S
C378 C377 1.304 . S
C378 C379 1.371 . S
C378 H392 0.930 . S
C379 C376 1.344 . S
C379 C378 1.371 . S
C379 H393 0.931 . S
C380 C376 1.328 . S
C380 C381 1.433 . S
C380 H394 0.931 . S
C381 C377 1.323 . S
C381 C380 1.433 . S
C381 H395 0.933 . S
C382 Dy360 2.738 . S
C382 O365 1.255 . S
C382 O366 1.249 . S
C382 C376 1.516 . S
C383 O367 1.254 1_565 S
C383 O368 1.257 1_565 S
C384 O369 1.266 . S
C384 O370 1.236 . S
C385 C388 1.344 . S
C385 C389 1.328 . S
C385 C391 1.516 . S
C386 C387 1.304 . S
C386 C390 1.323 . S
C387 C386 1.304 . S
C387 C388 1.371 . S
C387 H396 0.930 . S
C388 C385 1.344 . S
C388 C387 1.371 . S
C388 H397 0.931 1_655 S
C389 C385 1.328 . S
C389 C390 1.433 . S
C389 H398 0.931 1_565 S
C390 C386 1.323 . S
C390 C389 1.433 . S
C390 H399 0.933 . S
C391 Dy361 2.738 1_665 S
C391 O371 1.255 1_655 S
C391 O372 1.249 1_565 S
C391 C385 1.516 . S
H392 C378 0.930 . S
H393 C379 0.931 . S
H394 C380 0.931 . S
H395 C381 0.933 . S
H396 C387 0.930 . S
H397 C388 0.931 1_455 S
H398 C389 0.931 1_545 S
H399 C390 0.933 . S
Dy400 O403 2.307 . S
Dy400 O405 2.395 . S
Dy400 O406 2.379 . S
Dy400 O408 2.339 . S
Dy400 O410 2.298 . S
Dy400 O414 2.275 . S
Dy400 C422 2.738 . S
Dy401 O404 2.298 . S
Dy401 O407 2.275 . S
Dy401 O409 2.307 . S
Dy401 O411 2.395 . S
Dy401 O412 2.379 . S
Dy401 O415 2.339 . S
Dy401 C431 2.738 . S
C402 O414 1.254 . S
C402 O415 1.257 . S
O403 Dy400 2.307 . S
O403 C413 1.266 . S
O404 Dy401 2.298 . S
O404 C413 1.236 . S
O405 Dy400 2.395 . S
O405 C422 1.255 . S
O406 Dy400 2.379 . S
O406 C422 1.249 . S
O407 Dy401 2.275 . S
O407 C423 1.254 . S
O408 Dy400 2.339 . S
O408 C423 1.257 . S
O409 Dy401 2.307 . S
O409 C424 1.266 . S
O410 Dy400 2.298 . S
O410 C424 1.236 . S
O411 Dy401 2.395 . S
O411 C431 1.255 . S
O412 Dy401 2.379 . S
O412 C431 1.249 . S
C413 O403 1.266 . S
C413 O404 1.236 . S
O414 Dy400 2.275 . S
O414 C402 1.254 . S
O415 Dy401 2.339 . S
O415 C402 1.257 . S
C416 C419 1.344 . S
C416 C420 1.328 . S
C416 C422 1.516 . S
C417 C418 1.304 . S
C417 C421 1.323 . S
C418 C417 1.304 . S
C418 C419 1.371 . S
C418 H432 0.930 1_554 S
C419 C416 1.344 . S
C419 C418 1.371 . S
C419 H433 0.931 . S
C420 C416 1.328 . S
C420 C421 1.433 . S
C420 H434 0.931 . S
C421 C417 1.323 . S
C421 C420 1.433 . S
C421 H435 0.933 . S
C422 Dy400 2.738 . S
C422 O405 1.255 . S
C422 O406 1.249 . S
C422 C416 1.516 . S
C423 O407 1.254 . S
C423 O408 1.257 . S
C424 O409 1.266 . S
C424 O410 1.236 . S
C425 C428 1.344 . S
C425 C429 1.328 . S
C425 C431 1.516 . S
C426 C427 1.304 . S
C426 C430 1.323 . S
C427 C426 1.304 . S
C427 C428 1.371 . S
C427 H436 0.930 . S
C428 C425 1.344 . S
C428 C427 1.371 . S
C428 H437 0.931 . S
C429 C425 1.328 . S
C429 C430 1.433 . S
C429 H438 0.931 . S
C430 C426 1.323 . S
C430 C429 1.433 . S
C430 H439 0.933 . S
C431 Dy401 2.738 . S
C431 O411 1.255 . S
C431 O412 1.249 . S
C431 C425 1.516 . S
H432 C418 0.930 1_556 S
H433 C419 0.931 . S
H434 C420 0.931 . S
H435 C421 0.933 . S
H436 C427 0.930 . S
H437 C428 0.931 . S
H438 C429 0.931 . S
H439 C430 0.933 . S
Dy440 O443 2.307 . S
Dy440 O445 2.395 . S
Dy440 O446 2.379 . S
Dy440 O448 2.339 . S
Dy440 O450 2.298 . S
Dy440 O454 2.275 . S
Dy440 C462 2.738 . S
Dy441 O444 2.298 . S
Dy441 O447 2.275 . S
Dy441 O449 2.307 . S
Dy441 O451 2.395 1_565 S
Dy441 O452 2.379 . S
Dy441 O455 2.339 . S
Dy441 C471 2.738 1_565 S
C442 O454 1.254 . S
C442 O455 1.257 . S
O443 Dy440 2.307 . S
O443 C453 1.266 . S
O444 Dy441 2.298 . S
O444 C453 1.236 . S
O445 Dy440 2.395 . S
O445 C462 1.255 . S
O446 Dy440 2.379 . S
O446 C462 1.249 . S
O447 Dy441 2.275 . S
O447 C463 1.254 1_565 S
O448 Dy440 2.339 . S
O448 C463 1.257 1_565 S
O449 Dy441 2.307 . S
O449 C464 1.266 . S
O450 Dy440 2.298 . S
O450 C464 1.236 . S
O451 Dy441 2.395 1_545 S
O451 C471 1.255 . S
O452 Dy441 2.379 . S
O452 C471 1.249 1_565 S
C453 O443 1.266 . S
C453 O444 1.236 . S
O454 Dy440 2.275 . S
O454 C442 1.254 . S
O455 Dy441 2.339 . S
O455 C442 1.257 . S
C456 C459 1.344 . S
C456 C460 1.328 . S
C456 C462 1.516 . S
C457 C458 1.304 . S
C457 C461 1.323 . S
C458 C457 1.304 . S
C458 C459 1.371 . S
C458 H472 0.930 . S
C459 C456 1.344 . S
C459 C458 1.371 . S
C459 H473 0.931 . S
C460 C456 1.328 . S
C460 C461 1.433 . S
C460 H474 0.931 . S
C461 C457 1.323 . S
C461 C460 1.433 . S
C461 H475 0.933 . S
C462 Dy440 2.738 . S
C462 O445 1.255 . S
C462 O446 1.249 . S
C462 C456 1.516 . S
C463 O447 1.254 1_545 S
C463 O448 1.257 1_545 S
C464 O449 1.266 . S
C464 O450 1.236 . S
C465 C468 1.344 . S
C465 C469 1.328 . S
C465 C471 1.516 . S
C466 C467 1.304 . S
C466 C470 1.323 . S
C467 C466 1.304 . S
C467 C468 1.371 . S
C467 H476 0.930 . S
C468 C465 1.344 . S
C468 C467 1.371 . S
C468 H477 0.931 . S
C469 C465 1.328 . S
C469 C470 1.433 . S
C469 H478 0.931 1_545 S
C470 C466 1.323 . S
C470 C469 1.433 . S
C470 H479 0.933 . S
C471 Dy441 2.738 1_545 S
C471 O451 1.255 . S
C471 O452 1.249 1_545 S
C471 C465 1.516 . S
H472 C458 0.930 . S
H473 C459 0.931 . S
H474 C460 0.931 . S
H475 C461 0.933 . S
H476 C467 0.930 . S
H477 C468 0.931 . S
H478 C469 0.931 1_565 S
H479 C470 0.933 . S
Dy480 O483 2.307 . S
Dy480 O485 2.395 . S
Dy480 O486 2.379 . S
Dy480 O488 2.339 . S
Dy480 O490 2.298 . S
Dy480 O494 2.275 . S
Dy480 C502 2.738 . S
Dy481 O484 2.298 . S
Dy481 O487 2.275 . S
Dy481 O489 2.307 . S
Dy481 O491 2.395 . S
Dy481 O492 2.379 . S
Dy481 O495 2.339 . S
Dy481 C511 2.738 . S
C482 O494 1.254 . S
C482 O495 1.257 . S
O483 Dy480 2.307 . S
O483 C493 1.266 . S
O484 Dy481 2.298 . S
O484 C493 1.236 . S
O485 Dy480 2.395 . S
O485 C502 1.255 . S
O486 Dy480 2.379 . S
O486 C502 1.249 . S
O487 Dy481 2.275 . S
O487 C503 1.254 . S
O488 Dy480 2.339 . S
O488 C503 1.257 . S
O489 Dy481 2.307 . S
O489 C504 1.266 . S
O490 Dy480 2.298 . S
O490 C504 1.236 . S
O491 Dy481 2.395 . S
O491 C511 1.255 . S
O492 Dy481 2.379 . S
O492 C511 1.249 . S
C493 O483 1.266 . S
C493 O484 1.236 . S
O494 Dy480 2.275 . S
O494 C482 1.254 . S
O495 Dy481 2.339 . S
O495 C482 1.257 . S
C496 C499 1.344 . S
C496 C500 1.328 . S
C496 C502 1.516 . S
C497 C498 1.304 . S
C497 C501 1.323 . S
C498 C497 1.304 . S
C498 C499 1.371 . S
C498 H512 0.930 . S
C499 C496 1.344 . S
C499 C498 1.371 . S
C499 H513 0.931 . S
C500 C496 1.328 . S
C500 C501 1.433 . S
C500 H514 0.931 . S
C501 C497 1.323 . S
C501 C500 1.433 . S
C501 H515 0.933 . S
C502 Dy480 2.738 . S
C502 O485 1.255 . S
C502 O486 1.249 . S
C502 C496 1.516 . S
C503 O487 1.254 . S
C503 O488 1.257 . S
C504 O489 1.266 . S
C504 O490 1.236 . S
C505 C508 1.344 . S
C505 C509 1.328 . S
C505 C511 1.516 . S
C506 C507 1.304 . S
C506 C510 1.323 . S
C507 C506 1.304 . S
C507 C508 1.371 . S
C507 H516 0.930 . S
C508 C505 1.344 . S
C508 C507 1.371 . S
C508 H517 0.931 . S
C509 C505 1.328 . S
C509 C510 1.433 . S
C509 H518 0.931 . S
C510 C506 1.323 . S
C510 C509 1.433 . S
C510 H519 0.933 . S
C511 Dy481 2.738 . S
C511 O491 1.255 . S
C511 O492 1.249 . S
C511 C505 1.516 . S
H512 C498 0.930 . S
H513 C499 0.931 . S
H514 C500 0.931 . S
H515 C501 0.933 . S
H516 C507 0.930 . S
H517 C508 0.931 . S
H518 C509 0.931 . S
H519 C510 0.933 . S
Dy520 O523 2.307 . S
Dy520 O525 2.395 1_565 S
Dy520 O526 2.379 1_655 S
Dy520 O528 2.339 . S
Dy520 O530 2.298 . S
Dy520 O534 2.275 . S
Dy520 C542 2.738 1_665 S
Dy521 O524 2.298 . S
Dy521 O527 2.275 . S
Dy521 O529 2.307 . S
Dy521 O531 2.395 . S
Dy521 O532 2.379 . S
Dy521 O535 2.339 . S
Dy521 C551 2.738 . S
C522 O534 1.254 1_545 S
C522 O535 1.257 1_545 S
O523 Dy520 2.307 . S
O523 C533 1.266 . S
O524 Dy521 2.298 . S
O524 C533 1.236 . S
O525 Dy520 2.395 1_545 S
O525 C542 1.255 1_655 S
O526 Dy520 2.379 1_455 S
O526 C542 1.249 1_565 S
O527 Dy521 2.275 . S
O527 C543 1.254 . S
O528 Dy520 2.339 . S
O528 C543 1.257 . S
O529 Dy521 2.307 . S
O529 C544 1.266 . S
O530 Dy520 2.298 . S
O530 C544 1.236 . S
O531 Dy521 2.395 . S
O531 C551 1.255 . S
O532 Dy521 2.379 . S
O532 C551 1.249 . S
C533 O523 1.266 . S
C533 O524 1.236 . S
O534 Dy520 2.275 . S
O534 C522 1.254 1_565 S
O535 Dy521 2.339 . S
O535 C522 1.257 1_565 S
C536 C539 1.344 . S
C536 C540 1.328 . S
C536 C542 1.516 . S
C537 C538 1.304 . S
C537 C541 1.323 . S
C538 C537 1.304 . S
C538 C539 1.371 . S
C538 H552 0.930 . S
C539 C536 1.344 . S
C539 C538 1.371 . S
C539 H553 0.931 1_455 S
C540 C536 1.328 . S
C540 C541 1.433 . S
C540 H554 0.931 1_545 S
C541 C537 1.323 . S
C541 C540 1.433 . S
C541 H555 0.933 . S
C542 Dy520 2.738 1_445 S
C542 O525 1.255 1_455 S
C542 O526 1.249 1_545 S
C542 C536 1.516 . S
C543 O527 1.254 . S
C543 O528 1.257 . S
C544 O529 1.266 . S
C544 O530 1.236 . S
C545 C548 1.344 . S
C545 C549 1.328 . S
C545 C551 1.516 . S
C546 C547 1.304 . S
C546 C550 1.323 . S
C547 C546 1.304 . S
C547 C548 1.371 . S
C547 H556 0.930 . S
C548 C545 1.344 . S
C548 C547 1.371 . S
C548 H557 0.931 . S
C549 C545 1.328 . S
C549 C550 1.433 . S
C549 H558 0.931 . S
C550 C546 1.323 . S
C550 C549 1.433 . S
C550 H559 0.933 . S
C551 Dy521 2.738 . S
C551 O531 1.255 . S
C551 O532 1.249 . S
C551 C545 1.516 . S
H552 C538 0.930 . S
H553 C539 0.931 1_655 S
H554 C540 0.931 1_565 S
H555 C541 0.933 . S
H556 C547 0.930 . S
H557 C548 0.931 . S
H558 C549 0.931 . S
H559 C550 0.933 . S
Dy560 O563 2.307 . S
Dy560 O565 2.395 . S
Dy560 O566 2.379 . S
Dy560 O568 2.339 . S
Dy560 O570 2.298 . S
Dy560 O574 2.275 . S
Dy560 C582 2.738 . S
Dy561 O564 2.298 . S
Dy561 O567 2.275 . S
Dy561 O569 2.307 . S
Dy561 O571 2.395 . S
Dy561 O572 2.379 . S
Dy561 O575 2.339 . S
Dy561 C591 2.738 . S
C562 O574 1.254 . S
C562 O575 1.257 . S
O563 Dy560 2.307 . S
O563 C573 1.266 . S
O564 Dy561 2.298 . S
O564 C573 1.236 . S
O565 Dy560 2.395 . S
O565 C582 1.255 . S
O566 Dy560 2.379 . S
O566 C582 1.249 . S
O567 Dy561 2.275 . S
O567 C583 1.254 . S
O568 Dy560 2.339 . S
O568 C583 1.257 . S
O569 Dy561 2.307 . S
O569 C584 1.266 . S
O570 Dy560 2.298 . S
O570 C584 1.236 . S
O571 Dy561 2.395 . S
O571 C591 1.255 . S
O572 Dy561 2.379 . S
O572 C591 1.249 . S
C573 O563 1.266 . S
C573 O564 1.236 . S
O574 Dy560 2.275 . S
O574 C562 1.254 . S
O575 Dy561 2.339 . S
O575 C562 1.257 . S
C576 C579 1.344 . S
C576 C580 1.328 . S
C576 C582 1.516 . S
C577 C578 1.304 . S
C577 C581 1.323 . S
C578 C577 1.304 . S
C578 C579 1.371 . S
C578 H592 0.930 . S
C579 C576 1.344 . S
C579 C578 1.371 . S
C579 H593 0.931 . S
C580 C576 1.328 . S
C580 C581 1.433 . S
C580 H594 0.931 . S
C581 C577 1.323 . S
C581 C580 1.433 . S
C581 H595 0.933 . S
C582 Dy560 2.738 . S
C582 O565 1.255 . S
C582 O566 1.249 . S
C582 C576 1.516 . S
C583 O567 1.254 . S
C583 O568 1.257 . S
C584 O569 1.266 . S
C584 O570 1.236 . S
C585 C588 1.344 . S
C585 C589 1.328 . S
C585 C591 1.516 . S
C586 C587 1.304 . S
C586 C590 1.323 . S
C587 C586 1.304 . S
C587 C588 1.371 . S
C587 H596 0.930 1_556 S
C588 C585 1.344 . S
C588 C587 1.371 . S
C588 H597 0.931 . S
C589 C585 1.328 . S
C589 C590 1.433 . S
C589 H598 0.931 . S
C590 C586 1.323 . S
C590 C589 1.433 . S
C590 H599 0.933 . S
C591 Dy561 2.738 . S
C591 O571 1.255 . S
C591 O572 1.249 . S
C591 C585 1.516 . S
H592 C578 0.930 . S
H593 C579 0.931 . S
H594 C580 0.931 . S
H595 C581 0.933 . S
H596 C587 0.930 1_554 S
H597 C588 0.931 . S
H598 C589 0.931 . S
H599 C590 0.933 . S
Dy600 O603 2.307 . S
Dy600 O605 2.395 1_545 S
Dy600 O606 2.379 . S
Dy600 O608 2.339 . S
Dy600 O610 2.298 . S
Dy600 O614 2.275 . S
Dy600 C622 2.738 1_545 S
Dy601 O604 2.298 . S
Dy601 O607 2.275 . S
Dy601 O609 2.307 . S
Dy601 O611 2.395 . S
Dy601 O612 2.379 . S
Dy601 O615 2.339 . S
Dy601 C631 2.738 . S
C602 O614 1.254 1_565 S
C602 O615 1.257 1_565 S
O603 Dy600 2.307 . S
O603 C613 1.266 . S
O604 Dy601 2.298 . S
O604 C613 1.236 . S
O605 Dy600 2.395 1_565 S
O605 C622 1.255 . S
O606 Dy600 2.379 . S
O606 C622 1.249 1_545 S
O607 Dy601 2.275 . S
O607 C623 1.254 . S
O608 Dy600 2.339 . S
O608 C623 1.257 . S
O609 Dy601 2.307 . S
O609 C624 1.266 . S
O610 Dy600 2.298 . S
O610 C624 1.236 . S
O611 Dy601 2.395 . S
O611 C631 1.255 . S
O612 Dy601 2.379 . S
O612 C631 1.249 . S
C613 O603 1.266 . S
C613 O604 1.236 . S
O614 Dy600 2.275 . S
O614 C602 1.254 1_545 S
O615 Dy601 2.339 . S
O615 C602 1.257 1_545 S
C616 C619 1.344 . S
C616 C620 1.328 . S
C616 C622 1.516 . S
C617 C618 1.304 . S
C617 C621 1.323 . S
C618 C617 1.304 . S
C618 C619 1.371 . S
C618 H632 0.930 . S
C619 C616 1.344 . S
C619 C618 1.371 . S
C619 H633 0.931 . S
C620 C616 1.328 . S
C620 C621 1.433 . S
C620 H634 0.931 1_565 S
C621 C617 1.323 . S
C621 C620 1.433 . S
C621 H635 0.933 . S
C622 Dy600 2.738 1_565 S
C622 O605 1.255 . S
C622 O606 1.249 1_565 S
C622 C616 1.516 . S
C623 O607 1.254 . S
C623 O608 1.257 . S
C624 O609 1.266 . S
C624 O610 1.236 . S
C625 C628 1.344 . S
C625 C629 1.328 . S
C625 C631 1.516 . S
C626 C627 1.304 . S
C626 C630 1.323 . S
C627 C626 1.304 . S
C627 C628 1.371 . S
C627 H636 0.930 . S
C628 C625 1.344 . S
C628 C627 1.371 . S
C628 H637 0.931 . S
C629 C625 1.328 . S
C629 C630 1.433 . S
C629 H638 0.931 . S
C630 C626 1.323 . S
C630 C629 1.433 . S
C630 H639 0.933 . S
C631 Dy601 2.738 . S
C631 O611 1.255 . S
C631 O612 1.249 . S
C631 C625 1.516 . S
H632 C618 0.930 . S
H633 C619 0.931 . S
H634 C620 0.931 1_545 S
H635 C621 0.933 . S
H636 C627 0.930 . S
H637 C628 0.931 . S
H638 C629 0.931 . S
H639 C630 0.933 . S
C640 C641 1.369 . S
C640 C642 1.419 . S
C640 H644 0.930 . S
C641 C640 1.369 . S
C641 C650 1.429 . S
C642 C640 1.419 . S
C642 C643 1.363 . S
C642 H645 0.929 . S
C643 C642 1.363 . S
C643 C649 1.428 . S
H644 C640 0.930 . S
H645 C642 0.929 . S
S646 N647 1.613 . S
S646 N648 1.610 . S
N647 S646 1.613 . S
N647 C650 1.350 . S
N648 S646 1.610 . S
N648 C649 1.351 . S
C649 C643 1.428 . S
C649 N648 1.351 . S
C649 C650 1.434 . S
C650 C641 1.429 . S
C650 N647 1.350 . S
C650 C649 1.434 . S
C651 C652 1.369 . S
C651 C653 1.419 . S
C651 H655 0.930 . S
C652 C651 1.369 . S
C652 C661 1.429 . S
C653 C651 1.419 . S
C653 C654 1.363 . S
C653 H656 0.929 . S
C654 C653 1.363 . S
C654 C660 1.428 . S
H655 C651 0.930 . S
H656 C653 0.929 . S
S657 N658 1.613 . S
S657 N659 1.610 . S
N658 S657 1.613 . S
N658 C661 1.350 . S
N659 S657 1.610 . S
N659 C660 1.351 . S
C660 C654 1.428 . S
C660 N659 1.351 . S
C660 C661 1.434 . S
C661 C652 1.429 . S
C661 N658 1.350 . S
C661 C660 1.434 . S
C662 C663 1.369 . S
C662 C664 1.419 1_455 S
C662 H666 0.930 . S
C663 C662 1.369 . S
C663 C672 1.429 . S
C664 C662 1.419 1_655 S
C664 C665 1.363 . S
C664 H667 0.929 . S
C665 C664 1.363 . S
C665 C671 1.428 . S
H666 C662 0.930 . S
H667 C664 0.929 . S
S668 N669 1.613 1_655 S
S668 N670 1.610 . S
N669 S668 1.613 1_455 S
N669 C672 1.350 . S
N670 S668 1.610 . S
N670 C671 1.351 . S
C671 C665 1.428 . S
C671 N670 1.351 . S
C671 C672 1.434 1_655 S
C672 C663 1.429 . S
C672 N669 1.350 . S
C672 C671 1.434 1_455 S
C673 C674 1.369 1_655 S
C673 C675 1.419 . S
C673 H677 0.930 . S
C674 C673 1.369 1_455 S
C674 C683 1.429 . S
C675 C673 1.419 . S
C675 C676 1.363 . S
C675 H678 0.929 . S
C676 C675 1.363 . S
C676 C682 1.428 1_655 S
H677 C673 0.930 . S
H678 C675 0.929 . S
S679 N680 1.613 . S
S679 N681 1.610 . S
N680 S679 1.613 . S
N680 C683 1.350 . S
N681 S679 1.610 . S
N681 C682 1.351 . S
C682 C676 1.428 1_455 S
C682 N681 1.351 . S
C682 C683 1.434 . S
C683 C674 1.429 . S
C683 N680 1.350 . S
C683 C682 1.434 . S
C684 C685 1.369 . S
C684 C686 1.419 . S
C684 H688 0.930 . S
C685 C684 1.369 . S
C685 C694 1.429 . S
C686 C684 1.419 . S
C686 C687 1.363 . S
C686 H689 0.929 . S
C687 C686 1.363 . S
C687 C693 1.428 . S
H688 C684 0.930 . S
H689 C686 0.929 . S
S690 N691 1.613 . S
S690 N692 1.610 . S
N691 S690 1.613 . S
N691 C694 1.350 . S
N692 S690 1.610 . S
N692 C693 1.351 . S
C693 C687 1.428 . S
C693 N692 1.351 . S
C693 C694 1.434 . S
C694 C685 1.429 . S
C694 N691 1.350 . S
C694 C693 1.434 . S
C695 C696 1.369 . S
C695 C697 1.419 . S
C695 H699 0.930 . S
C696 C695 1.369 . S
C696 C705 1.429 . S
C697 C695 1.419 . S
C697 C698 1.363 . S
C697 H700 0.929 . S
C698 C697 1.363 . S
C698 C704 1.428 . S
H699 C695 0.930 . S
H700 C697 0.929 . S
S701 N702 1.613 . S
S701 N703 1.610 . S
N702 S701 1.613 . S
N702 C705 1.350 . S
N703 S701 1.610 . S
N703 C704 1.351 . S
C704 C698 1.428 . S
C704 N703 1.351 . S
C704 C705 1.434 . S
C705 C696 1.429 . S
C705 N702 1.350 . S
C705 C704 1.434 . S
C706 C707 1.369 . S
C706 C708 1.419 1_455 S
C706 H710 0.930 . S
C707 C706 1.369 . S
C707 C716 1.429 . S
C708 C706 1.419 1_655 S
C708 C709 1.363 . S
C708 H711 0.929 . S
C709 C708 1.363 . S
C709 C715 1.428 . S
H710 C706 0.930 . S
H711 C708 0.929 . S
S712 N713 1.613 . S
S712 N714 1.610 1_455 S
N713 S712 1.613 . S
N713 C716 1.350 . S
N714 S712 1.610 1_655 S
N714 C715 1.351 . S
C715 C709 1.428 . S
C715 N714 1.351 . S
C715 C716 1.434 1_655 S
C716 C707 1.429 . S
C716 N713 1.350 . S
C716 C715 1.434 1_455 S
C717 C718 1.369 1_655 S
C717 C719 1.419 . S
C717 H721 0.930 . S
C718 C717 1.369 1_455 S
C718 C727 1.429 . S
C719 C717 1.419 . S
C719 C720 1.363 . S
C719 H722 0.929 . S
C720 C719 1.363 . S
C720 C726 1.428 1_655 S
H721 C717 0.930 . S
H722 C719 0.929 . S
S723 N724 1.613 . S
S723 N725 1.610 . S
N724 S723 1.613 . S
N724 C727 1.350 . S
N725 S723 1.610 . S
N725 C726 1.351 . S
C726 C720 1.428 1_455 S
C726 N725 1.351 . S
C726 C727 1.434 . S
C727 C718 1.429 . S
C727 N724 1.350 . S
C727 C726 1.434 . S
C728 C729 1.369 1_544 S
C728 C730 1.419 . S
C728 H732 0.930 . S
C729 C728 1.369 1_566 S
C729 C738 1.429 . S
C730 C728 1.419 . S
C730 C731 1.363 . S
C730 H733 0.929 . S
C731 C730 1.363 . S
C731 C737 1.428 1_544 S
H732 C728 0.930 . S
H733 C730 0.929 . S
S734 N735 1.613 . S
S734 N736 1.610 . S
N735 S734 1.613 . S
N735 C738 1.350 . S
N736 S734 1.610 . S
N736 C737 1.351 . S
C737 C731 1.428 1_566 S
C737 N736 1.351 . S
C737 C738 1.434 . S
C738 C729 1.429 . S
C738 N735 1.350 . S
C738 C737 1.434 . S
C739 C740 1.369 . S
C739 C741 1.419 . S
C739 H743 0.930 . S
C740 C739 1.369 . S
C740 C749 1.429 . S
C741 C739 1.419 . S
C741 C742 1.363 . S
C741 H744 0.929 . S
C742 C741 1.363 . S
C742 C748 1.428 . S
H743 C739 0.930 . S
H744 C741 0.929 . S
S745 N746 1.613 . S
S745 N747 1.610 . S
N746 S745 1.613 . S
N746 C749 1.350 . S
N747 S745 1.610 . S
N747 C748 1.351 . S
C748 C742 1.428 . S
C748 N747 1.351 . S
C748 C749 1.434 . S
C749 C740 1.429 . S
C749 N746 1.350 . S
C749 C748 1.434 . S
C750 C751 1.369 1_565 S
C750 C752 1.419 1_455 S
C750 H754 0.930 . S
C751 C750 1.369 1_545 S
C751 C760 1.429 . S
C752 C750 1.419 1_655 S
C752 C753 1.363 . S
C752 H755 0.929 . S
C753 C752 1.363 . S
C753 C759 1.428 1_565 S
H754 C750 0.930 . S
H755 C752 0.929 . S
S756 N757 1.613 1_655 S
S756 N758 1.610 . S
N757 S756 1.613 1_455 S
N757 C760 1.350 . S
N758 S756 1.610 . S
N758 C759 1.351 . S
C759 C753 1.428 1_545 S
C759 N758 1.351 . S
C759 C760 1.434 1_655 S
C760 C751 1.429 . S
C760 N757 1.350 . S
C760 C759 1.434 1_455 S
C761 C762 1.369 . S
C761 C763 1.419 . S
C761 H765 0.930 . S
C762 C761 1.369 . S
C762 C771 1.429 . S
C763 C761 1.419 . S
C763 C764 1.363 . S
C763 H766 0.929 . S
C764 C763 1.363 . S
C764 C770 1.428 . S
H765 C761 0.930 . S
H766 C763 0.929 . S
S767 N768 1.613 . S
S767 N769 1.610 . S
N768 S767 1.613 . S
N768 C771 1.350 . S
N769 S767 1.610 . S
N769 C770 1.351 . S
C770 C764 1.428 . S
C770 N769 1.351 . S
C770 C771 1.434 . S
C771 C762 1.429 . S
C771 N768 1.350 . S
C771 C770 1.434 . S
C772 C773 1.369 . S
C772 C774 1.419 . S
C772 H776 0.930 . S
C773 C772 1.369 . S
C773 C782 1.429 . S
C774 C772 1.419 . S
C774 C775 1.363 . S
C774 H777 0.929 . S
C775 C774 1.363 . S
C775 C781 1.428 . S
H776 C772 0.930 . S
H777 C774 0.929 . S
S778 N779 1.613 . S
S778 N780 1.610 . S
N779 S778 1.613 . S
N779 C782 1.350 . S
N780 S778 1.610 . S
N780 C781 1.351 . S
C781 C775 1.428 . S
C781 N780 1.351 . S
C781 C782 1.434 . S
C782 C773 1.429 . S
C782 N779 1.350 . S
C782 C781 1.434 . S
C783 C784 1.369 . S
C783 C785 1.419 . S
C783 H787 0.930 . S
C784 C783 1.369 . S
C784 C793 1.429 . S
C785 C783 1.419 . S
C785 C786 1.363 . S
C785 H788 0.929 . S
C786 C785 1.363 . S
C786 C792 1.428 . S
H787 C783 0.930 . S
H788 C785 0.929 . S
S789 N790 1.613 . S
S789 N791 1.610 . S
N790 S789 1.613 . S
N790 C793 1.350 . S
N791 S789 1.610 . S
N791 C792 1.351 . S
C792 C786 1.428 . S
C792 N791 1.351 . S
C792 C793 1.434 . S
C793 C784 1.429 . S
C793 N790 1.350 . S
C793 C792 1.434 . S
C794 C795 1.368 . S
C794 C796 1.420 1_455 S
C794 H798 0.930 1_455 S
C795 C794 1.368 . S
C795 C804 1.429 . S
C796 C794 1.420 1_655 S
C796 C797 1.363 . S
C796 H799 0.929 . S
C797 C796 1.363 . S
C797 C803 1.428 1_655 S
H798 C794 0.930 1_655 S
H799 C796 0.929 . S
S800 N801 1.613 . S
S800 N802 1.610 . S
N801 S800 1.613 . S
N801 C804 1.350 . S
N802 S800 1.610 . S
N802 C803 1.351 . S
C803 C797 1.428 1_455 S
C803 N802 1.351 . S
C803 C804 1.434 . S
C804 C795 1.429 . S
C804 N801 1.350 . S
C804 C803 1.434 . S
C805 C806 1.369 1_554 S
C805 C807 1.419 . S
C805 H809 0.930 . S
C806 C805 1.369 1_556 S
C806 C815 1.429 . S
C807 C805 1.419 . S
C807 C808 1.363 . S
C807 H810 0.929 . S
C808 C807 1.363 . S
C808 C814 1.428 1_554 S
H809 C805 0.930 . S
H810 C807 0.929 . S
S811 N812 1.613 . S
S811 N813 1.610 . S
N812 S811 1.613 . S
N812 C815 1.350 . S
N813 S811 1.610 . S
N813 C814 1.351 . S
C814 C808 1.428 1_556 S
C814 N813 1.351 . S
C814 C815 1.434 . S
C815 C806 1.429 . S
C815 N812 1.350 . S
C815 C814 1.434 . S
C816 C817 1.369 . S
C816 C818 1.419 . S
C816 H820 0.930 . S
C817 C816 1.369 . S
C817 C826 1.429 . S
C818 C816 1.419 . S
C818 C819 1.363 . S
C818 H821 0.929 . S
C819 C818 1.363 . S
C819 C825 1.428 . S
H820 C816 0.930 . S
H821 C818 0.929 . S
S822 N823 1.613 . S
S822 N824 1.610 . S
N823 S822 1.613 . S
N823 C826 1.350 . S
N824 S822 1.610 . S
N824 C825 1.351 . S
C825 C819 1.428 . S
C825 N824 1.351 . S
C825 C826 1.434 . S
C826 C817 1.429 . S
C826 N823 1.350 . S
C826 C825 1.434 . S
C827 C828 1.369 . S
C827 C829 1.419 . S
C827 H831 0.930 . S
C828 C827 1.369 . S
C828 C837 1.429 . S
C829 C827 1.419 . S
C829 C830 1.363 . S
C829 H832 0.929 . S
C830 C829 1.363 . S
C830 C836 1.428 . S
H831 C827 0.930 . S
H832 C829 0.929 . S
S833 N834 1.613 . S
S833 N835 1.610 . S
N834 S833 1.613 . S
N834 C837 1.350 . S
N835 S833 1.610 . S
N835 C836 1.351 . S
C836 C830 1.428 . S
C836 N835 1.351 . S
C836 C837 1.434 . S
C837 C828 1.429 . S
C837 N834 1.350 . S
C837 C836 1.434 . S
C838 C839 1.369 . S
C838 C840 1.419 . S
C838 H842 0.930 . S
C839 C838 1.369 . S
C839 C848 1.429 . S
C840 C838 1.419 . S
C840 C841 1.363 . S
C840 H843 0.929 . S
C841 C840 1.363 . S
C841 C847 1.428 . S
H842 C838 0.930 . S
H843 C840 0.929 . S
S844 N845 1.613 . S
S844 N846 1.610 . S
N845 S844 1.613 . S
N845 C848 1.350 . S
N846 S844 1.610 . S
N846 C847 1.351 . S
C847 C841 1.428 . S
C847 N846 1.351 . S
C847 C848 1.434 . S
C848 C839 1.429 . S
C848 N845 1.350 . S
C848 C847 1.434 . S
C849 C850 1.369 . S
C849 C851 1.419 . S
C849 H853 0.930 . S
C850 C849 1.369 . S
C850 C859 1.429 . S
C851 C849 1.419 . S
C851 C852 1.363 . S
C851 H854 0.929 . S
C852 C851 1.363 . S
C852 C858 1.428 . S
H853 C849 0.930 . S
H854 C851 0.929 . S
S855 N856 1.613 . S
S855 N857 1.610 . S
N856 S855 1.613 . S
N856 C859 1.350 . S
N857 S855 1.610 . S
N857 C858 1.351 . S
C858 C852 1.428 . S
C858 N857 1.351 . S
C858 C859 1.434 . S
C859 C850 1.429 . S
C859 N856 1.350 . S
C859 C858 1.434 . S
C860 C861 1.369 . S
C860 C862 1.419 . S
C860 H864 0.930 . S
C861 C860 1.369 . S
C861 C870 1.429 . S
C862 C860 1.419 . S
C862 C863 1.363 . S
C862 H865 0.929 . S
C863 C862 1.363 . S
C863 C869 1.428 . S
H864 C860 0.930 . S
H865 C862 0.929 . S
S866 N867 1.613 . S
S866 N868 1.610 . S
N867 S866 1.613 . S
N867 C870 1.350 . S
N868 S866 1.610 . S
N868 C869 1.351 . S
C869 C863 1.428 . S
C869 N868 1.351 . S
C869 C870 1.434 . S
C870 C861 1.429 . S
C870 N867 1.350 . S
C870 C869 1.434 . S
C871 C872 1.369 . S
C871 C873 1.419 . S
C871 H875 0.930 . S
C872 C871 1.369 . S
C872 C881 1.429 . S
C873 C871 1.419 . S
C873 C874 1.363 . S
C873 H876 0.929 . S
C874 C873 1.363 . S
C874 C880 1.428 . S
H875 C871 0.930 . S
H876 C873 0.929 . S
S877 N878 1.613 . S
S877 N879 1.610 . S
N878 S877 1.613 . S
N878 C881 1.350 . S
N879 S877 1.610 . S
N879 C880 1.351 . S
C880 C874 1.428 . S
C880 N879 1.351 . S
C880 C881 1.434 . S
C881 C872 1.429 . S
C881 N878 1.350 . S
C881 C880 1.434 . S
C882 C883 1.369 . S
C882 C884 1.419 . S
C882 H886 0.930 . S
C883 C882 1.369 . S
C883 C892 1.429 . S
C884 C882 1.419 . S
C884 C885 1.363 . S
C884 H887 0.929 . S
C885 C884 1.363 . S
C885 C891 1.428 . S
H886 C882 0.930 . S
H887 C884 0.929 . S
S888 N889 1.613 . S
S888 N890 1.610 . S
N889 S888 1.613 . S
N889 C892 1.350 . S
N890 S888 1.610 . S
N890 C891 1.351 . S
C891 C885 1.428 . S
C891 N890 1.351 . S
C891 C892 1.434 . S
C892 C883 1.429 . S
C892 N889 1.350 . S
C892 C891 1.434 . S
C893 C894 1.369 . S
C893 C895 1.419 . S
C893 H897 0.930 . S
C894 C893 1.369 . S
C894 C903 1.429 . S
C895 C893 1.419 . S
C895 C896 1.363 . S
C895 H898 0.929 . S
C896 C895 1.363 . S
C896 C902 1.428 . S
H897 C893 0.930 . S
H898 C895 0.929 . S
S899 N900 1.613 . S
S899 N901 1.610 . S
N900 S899 1.613 . S
N900 C903 1.350 . S
N901 S899 1.610 . S
N901 C902 1.351 . S
C902 C896 1.428 . S
C902 N901 1.351 . S
C902 C903 1.434 . S
C903 C894 1.429 . S
C903 N900 1.350 . S
C903 C902 1.434 . S
C904 C905 1.369 . S
C904 C906 1.419 . S
C904 H908 0.930 . S
C905 C904 1.369 . S
C905 C914 1.429 . S
C906 C904 1.419 . S
C906 C907 1.363 . S
C906 H909 0.929 . S
C907 C906 1.363 . S
C907 C913 1.428 . S
H908 C904 0.930 . S
H909 C906 0.929 . S
S910 N911 1.613 . S
S910 N912 1.610 . S
N911 S910 1.613 . S
N911 C914 1.350 . S
N912 S910 1.610 . S
N912 C913 1.351 . S
C913 C907 1.428 . S
C913 N912 1.351 . S
C913 C914 1.434 . S
C914 C905 1.429 . S
C914 N911 1.350 . S
C914 C913 1.434 . S
C915 C916 1.369 . S
C915 C917 1.419 . S
C915 H919 0.930 . S
C916 C915 1.369 . S
C916 C925 1.429 . S
C917 C915 1.419 . S
C917 C918 1.363 . S
C917 H920 0.929 . S
C918 C917 1.363 . S
C918 C924 1.428 . S
H919 C915 0.930 . S
H920 C917 0.929 . S
S921 N922 1.613 . S
S921 N923 1.610 . S
N922 S921 1.613 . S
N922 C925 1.350 . S
N923 S921 1.610 . S
N923 C924 1.351 . S
C924 C918 1.428 . S
C924 N923 1.351 . S
C924 C925 1.434 . S
C925 C916 1.429 . S
C925 N922 1.350 . S
C925 C924 1.434 . S
C926 C927 1.369 . S
C926 C928 1.419 . S
C926 H930 0.930 . S
C927 C926 1.369 . S
C927 C936 1.429 . S
C928 C926 1.419 . S
C928 C929 1.363 . S
C928 H931 0.929 . S
C929 C928 1.363 . S
C929 C935 1.428 . S
H930 C926 0.930 . S
H931 C928 0.929 . S
S932 N933 1.613 . S
S932 N934 1.610 . S
N933 S932 1.613 . S
N933 C936 1.350 . S
N934 S932 1.610 . S
N934 C935 1.351 . S
C935 C929 1.428 . S
C935 N934 1.351 . S
C935 C936 1.434 . S
C936 C927 1.429 . S
C936 N933 1.350 . S
C936 C935 1.434 . S
C937 C938 1.369 . S
C937 C939 1.419 . S
C937 H941 0.930 . S
C938 C937 1.369 . S
C938 C947 1.429 . S
C939 C937 1.419 . S
C939 C940 1.363 . S
C939 H942 0.929 . S
C940 C939 1.363 . S
C940 C946 1.428 . S
H941 C937 0.930 . S
H942 C939 0.929 . S
S943 N944 1.613 . S
S943 N945 1.610 . S
N944 S943 1.613 . S
N944 C947 1.350 . S
N945 S943 1.610 . S
N945 C946 1.351 . S
C946 C940 1.428 . S
C946 N945 1.351 . S
C946 C947 1.434 . S
C947 C938 1.429 . S
C947 N944 1.350 . S
C947 C946 1.434 . S
C948 C949 1.369 . S
C948 C950 1.419 . S
C948 H952 0.930 . S
C949 C948 1.369 . S
C949 C958 1.429 . S
C950 C948 1.419 . S
C950 C951 1.363 . S
C950 H953 0.929 . S
C951 C950 1.363 . S
C951 C957 1.428 . S
H952 C948 0.930 . S
H953 C950 0.929 . S
S954 N955 1.613 . S
S954 N956 1.610 . S
N955 S954 1.613 . S
N955 C958 1.350 . S
N956 S954 1.610 . S
N956 C957 1.351 . S
C957 C951 1.428 . S
C957 N956 1.351 . S
C957 C958 1.434 . S
C958 C949 1.429 . S
C958 N955 1.350 . S
C958 C957 1.434 . S
C959 C960 1.369 . S
C959 C961 1.419 . S
C959 H963 0.930 . S
C960 C959 1.369 . S
C960 C969 1.429 . S
C961 C959 1.419 . S
C961 C962 1.363 . S
C961 H964 0.929 . S
C962 C961 1.363 . S
C962 C968 1.428 . S
H963 C959 0.930 . S
H964 C961 0.929 . S
S965 N966 1.613 1_565 S
S965 N967 1.610 1_565 S
N966 S965 1.613 1_545 S
N966 C969 1.350 . S
N967 S965 1.610 1_545 S
N967 C968 1.351 . S
C968 C962 1.428 . S
C968 N967 1.351 . S
C968 C969 1.434 . S
C969 C960 1.429 . S
C969 N966 1.350 . S
C969 C968 1.434 . S
C970 C971 1.369 . S
C970 C972 1.419 . S
C970 H974 0.930 . S
C971 C970 1.369 . S
C971 C980 1.429 . S
C972 C970 1.419 . S
C972 C973 1.363 . S
C972 H975 0.929 . S
C973 C972 1.363 . S
C973 C979 1.428 . S
H974 C970 0.930 . S
H975 C972 0.929 . S
S976 N977 1.613 . S
S976 N978 1.610 . S
N977 S976 1.613 . S
N977 C980 1.350 . S
N978 S976 1.610 . S
N978 C979 1.351 . S
C979 C973 1.428 . S
C979 N978 1.351 . S
C979 C980 1.434 . S
C980 C971 1.429 . S
C980 N977 1.350 . S
C980 C979 1.434 . S
C981 C982 1.369 . S
C981 C983 1.419 . S
C981 H985 0.930 . S
C982 C981 1.369 . S
C982 C991 1.429 . S
C983 C981 1.419 . S
C983 C984 1.363 . S
C983 H986 0.929 . S
C984 C983 1.363 . S
C984 C990 1.428 . S
H985 C981 0.930 . S
H986 C983 0.929 . S
S987 N988 1.613 . S
S987 N989 1.610 . S
N988 S987 1.613 . S
N988 C991 1.350 . S
N989 S987 1.610 . S
N989 C990 1.351 . S
C990 C984 1.428 . S
C990 N989 1.351 . S
C990 C991 1.434 . S
C991 C982 1.429 . S
C991 N988 1.350 . S
C991 C990 1.434 . S
C992 C993 1.369 . S
C992 C994 1.419 . S
C992 H996 0.930 1_556 S
C993 C992 1.369 . S
C993 C1002 1.429 . S
C994 C992 1.419 . S
C994 C995 1.363 . S
C994 H997 0.929 . S
C995 C994 1.363 . S
C995 C1001 1.428 . S
H996 C992 0.930 1_554 S
H997 C994 0.929 . S
S998 N999 1.613 . S
S998 N1000 1.610 . S
N999 S998 1.613 . S
N999 C1002 1.350 . S
N1000 S998 1.610 . S
N1000 C1001 1.351 . S
C1001 C995 1.428 . S
C1001 N1000 1.351 . S
C1001 C1002 1.434 . S
C1002 C993 1.429 . S
C1002 N999 1.350 . S
C1002 C1001 1.434 . S
C1003 C1004 1.369 . S
C1003 C1005 1.419 . S
C1003 H1007 0.930 . S
C1004 C1003 1.369 . S
C1004 C1013 1.429 . S
C1005 C1003 1.419 . S
C1005 C1006 1.363 . S
C1005 H1008 0.929 . S
C1006 C1005 1.363 . S
C1006 C1012 1.428 . S
H1007 C1003 0.930 . S
H1008 C1005 0.929 . S
S1009 N1010 1.613 . S
S1009 N1011 1.610 . S
N1010 S1009 1.613 . S
N1010 C1013 1.350 . S
N1011 S1009 1.610 . S
N1011 C1012 1.351 . S
C1012 C1006 1.428 . S
C1012 N1011 1.351 . S
C1012 C1013 1.434 . S
C1013 C1004 1.429 . S
C1013 N1010 1.350 . S
C1013 C1012 1.434 . S
C1014 C1015 1.369 . S
C1014 C1016 1.419 . S
C1014 H1018 0.930 . S
C1015 C1014 1.369 . S
C1015 C1024 1.429 . S
C1016 C1014 1.419 . S
C1016 C1017 1.363 . S
C1016 H1019 0.929 . S
C1017 C1016 1.363 . S
C1017 C1023 1.428 . S
H1018 C1014 0.930 . S
H1019 C1016 0.929 . S
S1020 N1021 1.613 . S
S1020 N1022 1.610 . S
N1021 S1020 1.613 . S
N1021 C1024 1.350 . S
N1022 S1020 1.610 . S
N1022 C1023 1.351 . S
C1023 C1017 1.428 . S
C1023 N1022 1.351 . S
C1023 C1024 1.434 . S
C1024 C1015 1.429 . S
C1024 N1021 1.350 . S
C1024 C1023 1.434 . S
C1025 C1026 1.369 . S
C1025 C1027 1.419 . S
C1025 H1029 0.930 . S
C1026 C1025 1.369 . S
C1026 C1035 1.429 . S
C1027 C1025 1.419 . S
C1027 C1028 1.363 . S
C1027 H1030 0.929 . S
C1028 C1027 1.363 . S
C1028 C1034 1.428 . S
H1029 C1025 0.930 . S
H1030 C1027 0.929 . S
S1031 N1032 1.613 . S
S1031 N1033 1.610 . S
N1032 S1031 1.613 . S
N1032 C1035 1.350 . S
N1033 S1031 1.610 . S
N1033 C1034 1.351 . S
C1034 C1028 1.428 . S
C1034 N1033 1.351 . S
C1034 C1035 1.434 . S
C1035 C1026 1.429 . S
C1035 N1032 1.350 . S
C1035 C1034 1.434 . S
C1036 C1037 1.369 . S
C1036 C1038 1.419 . S
C1036 H1040 0.930 . S
C1037 C1036 1.369 . S
C1037 C1046 1.429 . S
C1038 C1036 1.419 . S
C1038 C1039 1.363 . S
C1038 H1041 0.929 . S
C1039 C1038 1.363 . S
C1039 C1045 1.428 . S
H1040 C1036 0.930 . S
H1041 C1038 0.929 . S
S1042 N1043 1.613 1_556 S
S1042 N1044 1.610 . S
N1043 S1042 1.613 1_554 S
N1043 C1046 1.350 . S
N1044 S1042 1.610 . S
N1044 C1045 1.351 1_556 S
C1045 C1039 1.428 . S
C1045 N1044 1.351 1_554 S
C1045 C1046 1.434 . S
C1046 C1037 1.429 . S
C1046 N1043 1.350 . S
C1046 C1045 1.434 . S
C1047 C1048 1.369 . S
C1047 C1049 1.419 . S
C1047 H1051 0.930 . S
C1048 C1047 1.369 . S
C1048 C1057 1.429 . S
C1049 C1047 1.419 . S
C1049 C1050 1.363 . S
C1049 H1052 0.929 . S
C1050 C1049 1.363 . S
C1050 C1056 1.428 . S
H1051 C1047 0.930 . S
H1052 C1049 0.929 . S
S1053 N1054 1.613 . S
S1053 N1055 1.610 . S
N1054 S1053 1.613 . S
N1054 C1057 1.350 . S
N1055 S1053 1.610 . S
N1055 C1056 1.351 . S
C1056 C1050 1.428 . S
C1056 N1055 1.351 . S
C1056 C1057 1.434 . S
C1057 C1048 1.429 . S
C1057 N1054 1.350 . S
C1057 C1056 1.434 . S
C1058 C1059 1.369 . S
C1058 C1060 1.419 . S
C1058 H1062 0.930 . S
C1059 C1058 1.369 . S
C1059 C1068 1.429 . S
C1060 C1058 1.419 . S
C1060 C1061 1.363 . S
C1060 H1063 0.929 . S
C1061 C1060 1.363 . S
C1061 C1067 1.428 . S
H1062 C1058 0.930 . S
H1063 C1060 0.929 . S
S1064 N1065 1.613 . S
S1064 N1066 1.610 . S
N1065 S1064 1.613 . S
N1065 C1068 1.350 . S
N1066 S1064 1.610 . S
N1066 C1067 1.351 . S
C1067 C1061 1.428 . S
C1067 N1066 1.351 . S
C1067 C1068 1.434 . S
C1068 C1059 1.429 . S
C1068 N1065 1.350 . S
C1068 C1067 1.434 . S
C1069 C1070 1.369 . S
C1069 C1071 1.419 . S
C1069 H1073 0.930 . S
C1070 C1069 1.369 . S
C1070 C1079 1.429 . S
C1071 C1069 1.419 . S
C1071 C1072 1.363 . S
C1071 H1074 0.929 . S
C1072 C1071 1.363 . S
C1072 C1078 1.428 . S
H1073 C1069 0.930 . S
H1074 C1071 0.929 . S
S1075 N1076 1.613 . S
S1075 N1077 1.610 . S
N1076 S1075 1.613 . S
N1076 C1079 1.350 . S
N1077 S1075 1.610 . S
N1077 C1078 1.351 . S
C1078 C1072 1.428 . S
C1078 N1077 1.351 . S
C1078 C1079 1.434 . S
C1079 C1070 1.429 . S
C1079 N1076 1.350 . S
C1079 C1078 1.434 . S
C1080 C1081 1.369 . S
C1080 C1082 1.419 . S
C1080 H1084 0.930 . S
C1081 C1080 1.369 . S
C1081 C1090 1.429 . S
C1082 C1080 1.419 . S
C1082 C1083 1.363 . S
C1082 H1085 0.929 . S
C1083 C1082 1.363 . S
C1083 C1089 1.428 . S
H1084 C1080 0.930 . S
H1085 C1082 0.929 . S
S1086 N1087 1.613 . S
S1086 N1088 1.610 . S
N1087 S1086 1.613 . S
N1087 C1090 1.350 . S
N1088 S1086 1.610 . S
N1088 C1089 1.351 . S
C1089 C1083 1.428 . S
C1089 N1088 1.351 . S
C1089 C1090 1.434 . S
C1090 C1081 1.429 . S
C1090 N1087 1.350 . S
C1090 C1089 1.434 . S
C1091 C1092 1.369 . S
C1091 C1093 1.419 . S
C1091 H1095 0.930 . S
C1092 C1091 1.369 . S
C1092 C1101 1.429 . S
C1093 C1091 1.419 . S
C1093 C1094 1.363 . S
C1093 H1096 0.929 . S
C1094 C1093 1.363 . S
C1094 C1100 1.428 . S
H1095 C1091 0.930 . S
H1096 C1093 0.929 . S
S1097 N1098 1.613 . S
S1097 N1099 1.610 . S
N1098 S1097 1.613 . S
N1098 C1101 1.350 . S
N1099 S1097 1.610 . S
N1099 C1100 1.351 . S
C1100 C1094 1.428 . S
C1100 N1099 1.351 . S
C1100 C1101 1.434 . S
C1101 C1092 1.429 . S
C1101 N1098 1.350 . S
C1101 C1100 1.434 . S
C1102 C1103 1.369 . S
C1102 C1104 1.419 . S
C1102 H1106 0.930 . S
C1103 C1102 1.369 . S
C1103 C1112 1.429 . S
C1104 C1102 1.419 . S
C1104 C1105 1.363 . S
C1104 H1107 0.929 . S
C1105 C1104 1.363 . S
C1105 C1111 1.428 . S
H1106 C1102 0.930 . S
H1107 C1104 0.929 . S
S1108 N1109 1.613 . S
S1108 N1110 1.610 . S
N1109 S1108 1.613 . S
N1109 C1112 1.350 . S
N1110 S1108 1.610 . S
N1110 C1111 1.351 . S
C1111 C1105 1.428 . S
C1111 N1110 1.351 . S
C1111 C1112 1.434 . S
C1112 C1103 1.429 . S
C1112 N1109 1.350 . S
C1112 C1111 1.434 . S
C1113 C1114 1.369 . S
C1113 C1115 1.419 . S
C1113 H1117 0.930 . S
C1114 C1113 1.369 . S
C1114 C1123 1.429 . S
C1115 C1113 1.419 . S
C1115 C1116 1.363 . S
C1115 H1118 0.929 . S
C1116 C1115 1.363 . S
C1116 C1122 1.428 . S
H1117 C1113 0.930 . S
H1118 C1115 0.929 . S
S1119 N1120 1.613 . S
S1119 N1121 1.610 1_565 S
N1120 S1119 1.613 . S
N1120 C1123 1.350 1_565 S
N1121 S1119 1.610 1_545 S
N1121 C1122 1.351 . S
C1122 C1116 1.428 . S
C1122 N1121 1.351 . S
C1122 C1123 1.434 . S
C1123 C1114 1.429 . S
C1123 N1120 1.350 1_545 S
C1123 C1122 1.434 . S
C1124 C1125 1.369 . S
C1124 C1126 1.419 . S
C1124 H1128 0.930 . S
C1125 C1124 1.369 . S
C1125 C1134 1.429 . S
C1126 C1124 1.419 . S
C1126 C1127 1.363 . S
C1126 H1129 0.929 . S
C1127 C1126 1.363 . S
C1127 C1133 1.428 . S
H1128 C1124 0.930 . S
H1129 C1126 0.929 . S
S1130 N1131 1.613 . S
S1130 N1132 1.610 . S
N1131 S1130 1.613 . S
N1131 C1134 1.350 . S
N1132 S1130 1.610 . S
N1132 C1133 1.351 . S
C1133 C1127 1.428 . S
C1133 N1132 1.351 . S
C1133 C1134 1.434 . S
C1134 C1125 1.429 . S
C1134 N1131 1.350 . S
C1134 C1133 1.434 . S
C1135 C1136 1.369 . S
C1135 C1137 1.419 . S
C1135 H1139 0.930 . S
C1136 C1135 1.369 . S
C1136 C1145 1.429 . S
C1137 C1135 1.419 . S
C1137 C1138 1.363 . S
C1137 H1140 0.929 . S
C1138 C1137 1.363 . S
C1138 C1144 1.428 . S
H1139 C1135 0.930 . S
H1140 C1137 0.929 . S
S1141 N1142 1.613 . S
S1141 N1143 1.610 . S
N1142 S1141 1.613 . S
N1142 C1145 1.350 . S
N1143 S1141 1.610 . S
N1143 C1144 1.351 . S
C1144 C1138 1.428 . S
C1144 N1143 1.351 . S
C1144 C1145 1.434 . S
C1145 C1136 1.429 . S
C1145 N1142 1.350 . S
C1145 C1144 1.434 . S
C1146 C1147 1.369 . S
C1146 C1148 1.419 . S
C1146 H1150 0.930 . S
C1147 C1146 1.369 . S
C1147 C1156 1.429 . S
C1148 C1146 1.419 . S
C1148 C1149 1.363 . S
C1148 H1151 0.929 . S
C1149 C1148 1.363 . S
C1149 C1155 1.428 . S
H1150 C1146 0.930 . S
H1151 C1148 0.929 . S
S1152 N1153 1.613 . S
S1152 N1154 1.610 . S
N1153 S1152 1.613 . S
N1153 C1156 1.350 . S
N1154 S1152 1.610 . S
N1154 C1155 1.351 . S
C1155 C1149 1.428 . S
C1155 N1154 1.351 . S
C1155 C1156 1.434 . S
C1156 C1147 1.429 . S
C1156 N1153 1.350 . S
C1156 C1155 1.434 . S
C1157 C1158 1.369 . S
C1157 C1159 1.419 . S
C1157 H1161 0.930 . S
C1158 C1157 1.369 . S
C1158 C1167 1.429 . S
C1159 C1157 1.419 . S
C1159 C1160 1.363 . S
C1159 H1162 0.929 . S
C1160 C1159 1.363 . S
C1160 C1166 1.428 . S
H1161 C1157 0.930 . S
H1162 C1159 0.929 . S
S1163 N1164 1.615 1_545 S
S1163 N1165 1.610 . S
N1164 S1163 1.615 1_565 S
N1164 C1167 1.350 . S
N1165 S1163 1.610 . S
N1165 C1166 1.351 1_545 S
C1166 C1160 1.428 . S
C1166 N1165 1.351 1_565 S
C1166 C1167 1.434 . S
C1167 C1158 1.429 . S
C1167 N1164 1.350 . S
C1167 C1166 1.434 . S
C641 C2 3.139 . S
C643 C402 3.140 . S
C652 C42 3.139 . S
C654 C442 3.137 . S
C663 C82 3.137 . S
C665 C322 3.137 . S
C674 C362 3.139 . S
C676 C122 3.138 . S
C685 C183 3.137 . S
C687 C583 3.138 . S
C696 C623 3.140 . S
C698 C223 3.140 . S
C707 C503 3.137 . S
C709 C263 3.139 . S
C718 C303 3.139 . S
C720 C543 3.138 . S
C729 C17 1.149 1_556 S
C731 C186 1.131 1_554 S
C740 C57 1.128 . S
C742 C546 1.146 . S
C751 C97 1.135 . S
C753 C266 1.141 . S
C762 C137 1.140 . S
C764 C626 1.137 . S
C773 C226 1.150 . S
C775 C377 1.130 . S
C784 C457 1.148 . S
C786 C306 1.131 . S
C795 C506 1.128 . S
C797 C337 1.147 . S
C806 C417 1.149 1_556 S
C808 C586 1.131 1_554 S
C817 C26 1.454 . S
C819 C282 1.549 . S
C828 C66 1.449 . S
C830 C482 1.554 . S
C839 C106 1.448 . S
C841 C202 1.554 . S
C850 C146 1.460 . S
C852 C562 1.546 . S
C861 C143 1.553 . S
C863 C177 1.451 . S
C872 C217 1.463 . S
C874 C343 1.544 . S
C883 C257 1.463 . S
C885 C63 1.547 . S
C894 C423 1.545 . S
C896 C297 1.462 . S
C905 C346 1.457 . S
C907 C602 1.547 . S
C916 C162 1.544 . S
C918 C386 1.459 . S
C927 C522 1.543 . S
C929 C426 1.462 . S
C938 C242 1.543 . S
C940 C466 1.462 . S
C949 C497 1.452 . S
C951 C463 1.549 . S
C960 C537 1.451 . S
C962 C23 1.550 . S
C971 C383 1.550 . S
C973 C577 1.458 . S
C982 C617 1.462 . S
C984 C103 1.547 . S
C993 C24 4.033 1_556 S
C995 C373 4.079 . S
C1004 C413 4.082 . S
C1006 C64 4.030 . S
C1015 C104 4.029 . S
C1017 C453 4.082 . S
C1026 C333 4.082 . S
C1028 C144 4.029 . S
C1037 C544 4.082 . S
C1039 C173 4.029 1_554 S
C1048 C584 4.082 . S
C1050 C213 4.030 . S
C1059 C624 4.082 . S
C1061 C253 4.029 . S
C1070 C504 4.078 . S
C1072 C293 4.033 . S
C1081 C53 4.079 . S
C1083 C344 4.032 . S
C1092 C93 4.079 . S
C1094 C384 4.032 1_565 S
C1103 C133 4.080 . S
C1105 C424 4.031 1_556 S
C1114 C464 4.033 1_545 S
C1116 C13 4.079 . S
C1125 C224 4.078 . S
C1127 C493 4.033 . S
C1136 C264 4.082 . S
C1138 C533 4.030 1_545 S
C1147 C304 4.081 . S
C1149 C573 4.030 1_554 S
C1158 C184 4.078 . S
C1160 C613 4.033 1_565 S
