# Generated by pormake.
# Topology tzs, (4)-cn, num edge types: 1
# Building blocks:
#     Node 0, Type 0, BuildingBlock: KUFVIS_clean_sbu_0, # of connection points: 4
#     Node 1, Type 0, BuildingBlock: KUFVIS_clean_sbu_0, # of connection points: 4
#     Node 2, Type 0, BuildingBlock: KUFVIS_clean_sbu_0, # of connection points: 4
#     Node 3, Type 0, BuildingBlock: KUFVIS_clean_sbu_0, # of connection points: 4
#     Node 4, Type 0, BuildingBlock: KUFVIS_clean_sbu_0, # of connection points: 4
#     Node 5, Type 0, BuildingBlock: KUFVIS_clean_sbu_0, # of connection points: 4
#     Node 6, Type 0, BuildingBlock: KUFVIS_clean_sbu_0, # of connection points: 4
#     Node 7, Type 0, BuildingBlock: KUFVIS_clean_sbu_0, # of connection points: 4
#     Node 8, Type 0, BuildingBlock: KUFVIS_clean_sbu_0, # of connection points: 4
#     Node 9, Type 0, BuildingBlock: KUFVIS_clean_sbu_0, # of connection points: 4
#     Node 10, Type 0, BuildingBlock: KUFVIS_clean_sbu_0, # of connection points: 4
#     Node 11, Type 0, BuildingBlock: KUFVIS_clean_sbu_0, # of connection points: 4
#     Node 12, Type 0, BuildingBlock: KUFVIS_clean_sbu_0, # of connection points: 4
#     Node 13, Type 0, BuildingBlock: KUFVIS_clean_sbu_0, # of connection points: 4
#     Node 14, Type 0, BuildingBlock: KUFVIS_clean_sbu_0, # of connection points: 4
#     Node 15, Type 0, BuildingBlock: KUFVIS_clean_sbu_0, # of connection points: 4
#     Edge 16, Type (0, 0), BuildingBlock: AJUNOK_clean_linker_0, # of connection points: 2
#     Edge 17, Type (0, 0), BuildingBlock: AJUNOK_clean_linker_0, # of connection points: 2
#     Edge 18, Type (0, 0), BuildingBlock: AJUNOK_clean_linker_0, # of connection points: 2
#     Edge 19, Type (0, 0), BuildingBlock: AJUNOK_clean_linker_0, # of connection points: 2
#     Edge 20, Type (0, 0), BuildingBlock: AJUNOK_clean_linker_0, # of connection points: 2
#     Edge 21, Type (0, 0), BuildingBlock: AJUNOK_clean_linker_0, # of connection points: 2
#     Edge 22, Type (0, 0), BuildingBlock: AJUNOK_clean_linker_0, # of connection points: 2
#     Edge 23, Type (0, 0), BuildingBlock: AJUNOK_clean_linker_0, # of connection points: 2
#     Edge 24, Type (0, 0), BuildingBlock: AJUNOK_clean_linker_0, # of connection points: 2
#     Edge 25, Type (0, 0), BuildingBlock: AJUNOK_clean_linker_0, # of connection points: 2
#     Edge 26, Type (0, 0), BuildingBlock: AJUNOK_clean_linker_0, # of connection points: 2
#     Edge 27, Type (0, 0), BuildingBlock: AJUNOK_clean_linker_0, # of connection points: 2
#     Edge 28, Type (0, 0), BuildingBlock: AJUNOK_clean_linker_0, # of connection points: 2
#     Edge 29, Type (0, 0), BuildingBlock: AJUNOK_clean_linker_0, # of connection points: 2
#     Edge 30, Type (0, 0), BuildingBlock: AJUNOK_clean_linker_0, # of connection points: 2
#     Edge 31, Type (0, 0), BuildingBlock: AJUNOK_clean_linker_0, # of connection points: 2
#     Edge 32, Type (0, 0), BuildingBlock: AJUNOK_clean_linker_0, # of connection points: 2
#     Edge 33, Type (0, 0), BuildingBlock: AJUNOK_clean_linker_0, # of connection points: 2
#     Edge 34, Type (0, 0), BuildingBlock: AJUNOK_clean_linker_0, # of connection points: 2
#     Edge 35, Type (0, 0), BuildingBlock: AJUNOK_clean_linker_0, # of connection points: 2
#     Edge 36, Type (0, 0), BuildingBlock: AJUNOK_clean_linker_0, # of connection points: 2
#     Edge 37, Type (0, 0), BuildingBlock: AJUNOK_clean_linker_0, # of connection points: 2
#     Edge 38, Type (0, 0), BuildingBlock: AJUNOK_clean_linker_0, # of connection points: 2
#     Edge 39, Type (0, 0), BuildingBlock: AJUNOK_clean_linker_0, # of connection points: 2
#     Edge 40, Type (0, 0), BuildingBlock: AJUNOK_clean_linker_0, # of connection points: 2
#     Edge 41, Type (0, 0), BuildingBlock: AJUNOK_clean_linker_0, # of connection points: 2
#     Edge 42, Type (0, 0), BuildingBlock: AJUNOK_clean_linker_0, # of connection points: 2
#     Edge 43, Type (0, 0), BuildingBlock: AJUNOK_clean_linker_0, # of connection points: 2
#     Edge 44, Type (0, 0), BuildingBlock: AJUNOK_clean_linker_0, # of connection points: 2
#     Edge 45, Type (0, 0), BuildingBlock: AJUNOK_clean_linker_0, # of connection points: 2
#     Edge 46, Type (0, 0), BuildingBlock: AJUNOK_clean_linker_0, # of connection points: 2
#     Edge 47, Type (0, 0), BuildingBlock: AJUNOK_clean_linker_0, # of connection points: 2
# Relax obj value: 0.096
# Max RMSD: 0.093
# Mean RMSD: 0.093
data_MOF--net-tzs--node1-KUFVIS_clean_sbu_0--edge1-AJUNOK_clean_linker_0
_symmetry_space_group_name_H-M    P1
_symmetry_Int_Tables_number       1
_symmetry_cell_setting            triclinic
loop_
_symmetry_equiv_pos_as_xyz
'x, y, z'
_cell_length_a     35.016003
_cell_length_b     34.97079
_cell_length_c     28.922937
_cell_angle_alpha  90.318719
_cell_angle_beta   89.804663
_cell_angle_gamma 89.931992
loop_
_atom_site_label
_atom_site_type_symbol
_atom_site_fract_x
_atom_site_fract_y
_atom_site_fract_z
_atom_type_partial_charge
Mn0 Mn 0.14464 0.3867 0.21531 0.0
Mn1 Mn 0.22647 0.41097 0.15843 0.0
C2 C 0.18008 0.44051 0.23686 0.0
C3 C 0.07797 0.38788 0.23288 0.0
C4 C 0.22072 0.34293 0.22223 0.0
O5 O 0.13862 0.36059 0.15125 0.0
O6 O 0.19293 0.3825 0.11735 0.0
C7 C 0.19984 0.46233 0.0842 0.0
N8 N 0.2212 0.45652 0.12282 0.0
C9 C 0.25448 0.51595 0.11178 0.0
C10 C 0.23225 0.52294 0.07248 0.0
C11 C 0.20473 0.49602 0.0587 0.0
C12 C 0.24766 0.48227 0.13645 0.0
H13 H 0.17955 0.44123 0.07264 0.0
C14 C 0.16131 0.36452 0.11645 0.0
O15 O 0.10009 0.35974 0.24376 0.0
O16 O 0.09399 0.41493 0.20893 0.0
N17 N 0.26129 0.43947 0.1955 0.0
C18 C 0.28223 0.42696 0.23204 0.0
C19 C 0.31344 0.4486 0.24721 0.0
C20 C 0.32275 0.48268 0.2245 0.0
C21 C 0.29967 0.49603 0.18858 0.0
C22 C 0.26916 0.47304 0.17463 0.0
H23 H 0.27619 0.39991 0.24827 0.0
O24 O 0.1585 0.42312 0.26678 0.0
O25 O 0.18161 0.42516 0.19619 0.0
O26 O 0.18653 0.34885 0.23547 0.0
O27 O 0.23748 0.36365 0.19253 0.0
C28 C 0.307 0.53015 0.16444 0.0
C29 C 0.28405 0.54039 0.12648 0.0
H30 H 0.2364 0.54861 0.0523 0.0
H31 H 0.18776 0.50096 0.02811 0.0
H32 H 0.33114 0.43831 0.27511 0.0
H33 H 0.34856 0.49752 0.23373 0.0
H34 H 0.33059 0.5484 0.17425 0.0
H35 H 0.29014 0.56654 0.10798 0.0
Mn36 Mn 0.64332 0.14583 0.20819 0.0
Mn37 Mn 0.62002 0.23037 0.15707 0.0
C38 C 0.59215 0.18267 0.23592 0.0
C39 C 0.64101 0.079 0.22348 0.0
C40 C 0.68919 0.22031 0.21815 0.0
O41 O 0.66649 0.14043 0.14242 0.0
O42 O 0.64635 0.19691 0.11311 0.0
C43 C 0.56468 0.20471 0.08609 0.0
N44 N 0.57376 0.22774 0.12253 0.0
C45 C 0.51644 0.26478 0.1129 0.0
C46 C 0.50627 0.24128 0.07547 0.0
C47 C 0.53038 0.21093 0.06224 0.0
C48 C 0.55043 0.25651 0.13609 0.0
H49 H 0.58358 0.182 0.07521 0.0
C50 C 0.66278 0.16454 0.10928 0.0
O51 O 0.67056 0.09979 0.23239 0.0
O52 O 0.61312 0.09628 0.20245 0.0
N53 N 0.59385 0.26614 0.19576 0.0
C54 C 0.6078 0.28577 0.23284 0.0
C55 C 0.58872 0.31866 0.24842 0.0
C56 C 0.55562 0.33096 0.22568 0.0
C57 C 0.54069 0.30927 0.18909 0.0
C58 C 0.56139 0.27721 0.17449 0.0
H59 H 0.63415 0.27738 0.24916 0.0
O60 O 0.61069 0.15936 0.26264 0.0
O61 O 0.60489 0.18505 0.19387 0.0
O62 O 0.6832 0.18558 0.22846 0.0
O63 O 0.6681 0.23893 0.19066 0.0
C64 C 0.50702 0.31904 0.1653 0.0
C65 C 0.49448 0.29634 0.12782 0.0
H66 H 0.48013 0.24636 0.05655 0.0
H67 H 0.52282 0.19276 0.03327 0.0
H68 H 0.60023 0.33524 0.27685 0.0
H69 H 0.54253 0.35763 0.23589 0.0
H70 H 0.49056 0.34393 0.17545 0.0
H71 H 0.46827 0.3038 0.11023 0.0
Mn72 Mn 0.87903 0.64007 0.21258 0.0
Mn73 Mn 0.79781 0.60889 0.16036 0.0
C74 C 0.84609 0.58611 0.23872 0.0
C75 C 0.94583 0.64144 0.22802 0.0
C76 C 0.80094 0.68012 0.22041 0.0
O77 O 0.88238 0.66362 0.14651 0.0
O78 O 0.82912 0.63681 0.11644 0.0
C79 C 0.83052 0.5538 0.09261 0.0
N80 N 0.80631 0.56163 0.12838 0.0
C81 C 0.77763 0.49935 0.12244 0.0
C82 C 0.80171 0.49088 0.08492 0.0
C83 C 0.82849 0.51815 0.07017 0.0
C84 C 0.78129 0.53521 0.14373 0.0
H85 H 0.85154 0.57439 0.08172 0.0
C86 C 0.85962 0.65635 0.1125 0.0
O87 O 0.92342 0.66987 0.23755 0.0
O88 O 0.93014 0.61295 0.2061 0.0
N89 N 0.7647 0.58043 0.1997 0.0
C90 C 0.74284 0.59359 0.23546 0.0
C91 C 0.7132 0.57074 0.25253 0.0
C92 C 0.70632 0.53483 0.2324 0.0
C93 C 0.73024 0.52109 0.19719 0.0
C94 C 0.75896 0.54534 0.18113 0.0
H95 H 0.74699 0.62188 0.24968 0.0
O96 O 0.86773 0.6054 0.26683 0.0
O97 O 0.84343 0.59955 0.19756 0.0
O98 O 0.83578 0.67672 0.23214 0.0
O99 O 0.78454 0.65739 0.19225 0.0
C100 C 0.72559 0.48503 0.17595 0.0
C101 C 0.74968 0.47392 0.13907 0.0
H102 H 0.80005 0.46349 0.06737 0.0
H103 H 0.84755 0.51167 0.04165 0.0
H104 H 0.6948 0.58134 0.27989 0.0
H105 H 0.68166 0.51875 0.24288 0.0
H106 H 0.7034 0.46577 0.1874 0.0
H107 H 0.74595 0.44607 0.12314 0.0
Mn108 Mn 0.38384 0.8819 0.20146 0.0
Mn109 Mn 0.40758 0.79789 0.1482 0.0
C110 C 0.43612 0.84579 0.22565 0.0
C111 C 0.38538 0.94863 0.21883 0.0
C112 C 0.3394 0.80647 0.21162 0.0
O113 O 0.35982 0.88731 0.13644 0.0
O114 O 0.37894 0.83038 0.10611 0.0
C115 C 0.45874 0.82291 0.07247 0.0
N116 N 0.45286 0.80208 0.11152 0.0
C117 C 0.51226 0.76844 0.10069 0.0
C118 C 0.51917 0.78988 0.06069 0.0
C119 C 0.49235 0.81735 0.04665 0.0
C120 C 0.47861 0.77578 0.12551 0.0
H121 H 0.4378 0.84333 0.06084 0.0
C122 C 0.36253 0.86281 0.10313 0.0
O123 O 0.35655 0.92704 0.22833 0.0
O124 O 0.41293 0.93216 0.19577 0.0
N125 N 0.43623 0.76385 0.18588 0.0
C126 C 0.42396 0.74388 0.2234 0.0
C127 C 0.44579 0.71315 0.23942 0.0
C128 C 0.47992 0.70339 0.2167 0.0
C129 C 0.49294 0.72543 0.17961 0.0
C130 C 0.46964 0.75535 0.16467 0.0
H131 H 0.39697 0.75032 0.23984 0.0
O132 O 0.41813 0.86822 0.2544 0.0
O133 O 0.42219 0.8437 0.18438 0.0
O134 O 0.34484 0.84141 0.22176 0.0
O135 O 0.36066 0.78791 0.18385 0.0
C136 C 0.5271 0.71766 0.15543 0.0
C137 C 0.53697 0.73946 0.11628 0.0
H138 H 0.54482 0.78532 0.04036 0.0
H139 H 0.49734 0.83384 0.01566 0.0
H140 H 0.43562 0.69617 0.26809 0.0
H141 H 0.4951 0.67803 0.22685 0.0
H142 H 0.54574 0.69469 0.1663 0.0
H143 H 0.56319 0.73309 0.09779 0.0
Mn144 Mn 0.16972 0.64968 0.31466 0.0
Mn145 Mn 0.25697 0.62404 0.35563 0.0
C146 C 0.20446 0.60103 0.2778 0.0
C147 C 0.10254 0.64615 0.3022 0.0
C148 C 0.24242 0.69828 0.30573 0.0
O149 O 0.16654 0.66521 0.38348 0.0
O150 O 0.22573 0.64628 0.40519 0.0
C151 C 0.23717 0.56342 0.42281 0.0
N152 N 0.25751 0.5755 0.38542 0.0
C153 C 0.29683 0.51908 0.38649 0.0
C154 C 0.27605 0.50578 0.4247 0.0
C155 C 0.24587 0.52792 0.44268 0.0
C156 C 0.28598 0.55403 0.3672 0.0
H157 H 0.2147 0.5808 0.43744 0.0
C158 C 0.19278 0.66012 0.41385 0.0
O159 O 0.12182 0.67732 0.29689 0.0
O160 O 0.12165 0.61732 0.31855 0.0
N161 N 0.29064 0.60144 0.31133 0.0
C162 C 0.30736 0.61824 0.27402 0.0
C163 C 0.33942 0.60103 0.25346 0.0
C164 C 0.35414 0.56699 0.27177 0.0
C165 C 0.33574 0.54958 0.30934 0.0
C166 C 0.30393 0.5681 0.32838 0.0
H167 H 0.29715 0.64527 0.26106 0.0
O168 O 0.18166 0.62358 0.25527 0.0
O169 O 0.20972 0.61038 0.32094 0.0
O170 O 0.2071 0.69294 0.29853 0.0
O171 O 0.26305 0.67448 0.32712 0.0
C172 C 0.34823 0.51509 0.32937 0.0
C173 C 0.32826 0.49941 0.36725 0.0
H174 H 0.28316 0.47876 0.44066 0.0
H175 H 0.22982 0.51796 0.47229 0.0
H176 H 0.35333 0.61444 0.22429 0.0
H177 H 0.37955 0.55443 0.25655 0.0
H178 H 0.37293 0.50017 0.31561 0.0
H179 H 0.33771 0.47254 0.38175 0.0
Mn180 Mn 0.38186 0.17078 0.31332 0.0
Mn181 Mn 0.40643 0.25732 0.3584 0.0
C182 C 0.43235 0.20561 0.28187 0.0
C183 C 0.38556 0.10396 0.29846 0.0
C184 C 0.33342 0.24403 0.3055 0.0
O185 O 0.36433 0.16678 0.3815 0.0
O186 O 0.38227 0.22594 0.40599 0.0
C187 C 0.46257 0.24033 0.43159 0.0
N188 N 0.45407 0.25701 0.39035 0.0
C189 C 0.51209 0.2938 0.39227 0.0
C190 C 0.52214 0.27585 0.43372 0.0
C191 C 0.49722 0.24906 0.45351 0.0
C192 C 0.47774 0.28306 0.3712 0.0
H193 H 0.44305 0.22062 0.44776 0.0
C194 C 0.36835 0.19273 0.41295 0.0
O195 O 0.35461 0.12343 0.29248 0.0
O196 O 0.41402 0.12245 0.31676 0.0
N197 N 0.43097 0.28987 0.31484 0.0
C198 C 0.41542 0.30688 0.27704 0.0
C199 C 0.43474 0.33723 0.25593 0.0
C200 C 0.46952 0.35003 0.27425 0.0
C201 C 0.48569 0.33116 0.31218 0.0
C202 C 0.46526 0.30081 0.33152 0.0
H203 H 0.38785 0.29826 0.26408 0.0
O204 O 0.41118 0.18369 0.25599 0.0
O205 O 0.42036 0.21014 0.32396 0.0
O206 O 0.33912 0.20886 0.29676 0.0
O207 O 0.3568 0.26428 0.32823 0.0
C208 C 0.52028 0.34247 0.33291 0.0
C209 C 0.53382 0.32334 0.37239 0.0
H210 H 0.54846 0.28313 0.45125 0.0
H211 H 0.5044 0.23564 0.48598 0.0
H212 H 0.42227 0.35154 0.22652 0.0
H213 H 0.48315 0.37481 0.25929 0.0
H214 H 0.53646 0.36627 0.31926 0.0
H215 H 0.56032 0.33251 0.38814 0.0
Mn216 Mn 0.85406 0.38141 0.32012 0.0
Mn217 Mn 0.76625 0.40472 0.3616 0.0
C218 C 0.81743 0.42663 0.28088 0.0
C219 C 0.92082 0.38718 0.30633 0.0
C220 C 0.78397 0.32924 0.31462 0.0
O221 O 0.85852 0.36957 0.38953 0.0
O222 O 0.7993 0.38717 0.41186 0.0
C223 C 0.78467 0.4704 0.42299 0.0
N224 N 0.76333 0.45452 0.38863 0.0
C225 C 0.71975 0.50771 0.38941 0.0
C226 C 0.74104 0.52457 0.42509 0.0
C227 C 0.7739 0.50602 0.44158 0.0
C228 C 0.73248 0.47272 0.37144 0.0
H229 H 0.80962 0.45595 0.4361 0.0
C230 C 0.83306 0.3759 0.42084 0.0
O231 O 0.90305 0.3549 0.30357 0.0
O232 O 0.90055 0.41619 0.32049 0.0
N233 N 0.73039 0.42313 0.3175 0.0
C234 C 0.71423 0.4038 0.28152 0.0
C235 C 0.68049 0.41779 0.26173 0.0
C236 C 0.66358 0.45128 0.27938 0.0
C237 C 0.68115 0.4711 0.31588 0.0
C238 C 0.71468 0.45575 0.33419 0.0
H239 H 0.72629 0.37725 0.26899 0.0
O240 O 0.84029 0.4031 0.25947 0.0
O241 O 0.81241 0.41938 0.32467 0.0
O242 O 0.81899 0.33588 0.3072 0.0
O243 O 0.76236 0.35263 0.33578 0.0
C244 C 0.66663 0.50541 0.33493 0.0
C245 C 0.68636 0.52411 0.37101 0.0
H246 H 0.73253 0.55178 0.43995 0.0
H247 H 0.79058 0.51891 0.46895 0.0
H248 H 0.66719 0.40246 0.23347 0.0
H249 H 0.63737 0.46182 0.26424 0.0
H250 H 0.64076 0.51806 0.3214 0.0
H251 H 0.67548 0.55096 0.38452 0.0
Mn252 Mn 0.64359 0.8554 0.31156 0.0
Mn253 Mn 0.61386 0.77109 0.35639 0.0
C254 C 0.59426 0.82181 0.27521 0.0
C255 C 0.64223 0.92258 0.29852 0.0
C256 C 0.69001 0.78139 0.30744 0.0
O257 O 0.66031 0.85833 0.38001 0.0
O258 O 0.63279 0.80409 0.40653 0.0
C259 C 0.5484 0.79438 0.41552 0.0
N260 N 0.56345 0.77181 0.38154 0.0
C261 C 0.50693 0.73286 0.37924 0.0
C262 C 0.49091 0.75542 0.41458 0.0
C263 C 0.51156 0.78662 0.43238 0.0
C264 C 0.54324 0.74269 0.36294 0.0
H265 H 0.56416 0.81843 0.42892 0.0
C266 C 0.65037 0.83564 0.41287 0.0
O267 O 0.67269 0.90213 0.29265 0.0
O268 O 0.61304 0.90466 0.31593 0.0
N269 N 0.59415 0.7361 0.31164 0.0
C270 C 0.61294 0.7186 0.27601 0.0
C271 C 0.59671 0.68634 0.25483 0.0
C272 C 0.56166 0.67215 0.27092 0.0
C273 C 0.54225 0.69136 0.3067 0.0
C274 C 0.55979 0.72342 0.32632 0.0
H275 H 0.64063 0.72842 0.26475 0.0
O276 O 0.61717 0.84418 0.25255 0.0
O277 O 0.60287 0.81724 0.31863 0.0
O278 O 0.68465 0.81571 0.29507 0.0
O279 O 0.66641 0.76345 0.33272 0.0
C280 C 0.50653 0.67962 0.32421 0.0
C281 C 0.48848 0.70085 0.35974 0.0
H282 H 0.46273 0.74918 0.42811 0.0
H283 H 0.49924 0.80443 0.45929 0.0
H284 H 0.61163 0.67187 0.22694 0.0
H285 H 0.54981 0.64658 0.25531 0.0
H286 H 0.49235 0.65468 0.31005 0.0
H287 H 0.46059 0.69214 0.37205 0.0
Mn288 Mn 0.88941 0.67732 0.81847 0.0
Mn289 Mn 0.91994 0.76245 0.86204 0.0
C290 C 0.93767 0.71096 0.78021 0.0
C291 C 0.88963 0.61003 0.80415 0.0
C292 C 0.84396 0.7524 0.81368 0.0
O293 O 0.87509 0.67376 0.88754 0.0
O294 O 0.89783 0.73087 0.91105 0.0
C295 C 0.98201 0.73545 0.92342 0.0
N296 N 0.96916 0.75938 0.88989 0.0
C297 C 0.02713 0.7961 0.89218 0.0
C298 C 0.04079 0.77228 0.92732 0.0
C299 C 0.01832 0.74152 0.94258 0.0
C300 C 0.99118 0.78802 0.87362 0.0
H301 H 0.9647 0.71192 0.93531 0.0
C302 C 0.88277 0.69849 0.91929 0.0
O303 O 0.85935 0.63096 0.80049 0.0
O304 O 0.91981 0.6276 0.81949 0.0
N305 N 0.94299 0.79705 0.81946 0.0
C306 C 0.92592 0.81667 0.78458 0.0
C307 C 0.94378 0.84931 0.76663 0.0
C308 C 0.97885 0.86159 0.78493 0.0
C309 C 0.9964 0.84035 0.81988 0.0
C310 C 0.97702 0.80837 0.83679 0.0
H311 H 0.89822 0.80832 0.77172 0.0
O312 O 0.91375 0.68902 0.75833 0.0
O313 O 0.93041 0.71567 0.8241 0.0
O314 O 0.84763 0.71692 0.80539 0.0
O315 O 0.86901 0.77167 0.83525 0.0
C316 C 0.03189 0.85021 0.83946 0.0
C317 C 0.04764 0.8276 0.87491 0.0
H318 H 0.06857 0.77718 0.94261 0.0
H319 H 0.02879 0.72279 0.96939 0.0
H320 H 0.93025 0.86539 0.73932 0.0
H321 H 0.99237 0.887 0.77127 0.0
H322 H 0.04754 0.87484 0.82711 0.0
H323 H 0.07533 0.83495 0.88896 0.0
Mn324 Mn 0.36494 0.88529 0.80743 0.0
Mn325 Mn 0.28111 0.91588 0.8549 0.0
C326 C 0.33098 0.93597 0.77414 0.0
C327 C 0.43201 0.8856 0.79111 0.0
C328 C 0.28878 0.84098 0.80242 0.0
O329 O 0.36983 0.86872 0.8757 0.0
O330 O 0.31292 0.8914 0.90156 0.0
C331 C 0.30729 0.97476 0.92173 0.0
N332 N 0.28471 0.96412 0.88564 0.0
C333 C 0.2486 0.02255 0.89081 0.0
C334 C 0.27174 0.0344 0.92769 0.0
C335 C 0.30142 1.01053 0.94295 0.0
C336 C 0.25672 0.98728 0.86996 0.0
H337 H 0.32941 0.95602 0.93431 0.0
C338 C 0.34506 0.87516 0.90779 0.0
O339 O 0.41082 0.85564 0.78592 0.0
O340 O 0.4149 0.91522 0.80908 0.0
N341 N 0.24701 0.94065 0.81353 0.0
C342 C 0.22758 0.92487 0.77744 0.0
C343 C 0.19514 0.94348 0.76034 0.0
C344 C 0.18294 0.9779 0.78071 0.0
C345 C 0.20441 0.99454 0.81642 0.0
C346 C 0.23629 0.97448 0.83228 0.0
H347 H 0.23578 0.8975 0.7631 0.0
O348 O 0.35218 0.91306 0.74945 0.0
O349 O 0.32738 0.92653 0.81728 0.0
O350 O 0.32424 0.84383 0.79319 0.0
O351 O 0.27113 0.8663 0.82565 0.0
C352 C 0.19468 0.02945 0.8381 0.0
C353 C 0.21732 0.04391 0.8745 0.0
H354 H 0.26679 0.06161 0.94477 0.0
H355 H 0.31926 0.01938 0.97155 0.0
H356 H 0.17887 0.93071 0.73252 0.0
H357 H 0.15676 0.99101 0.76887 0.0
H358 H 0.16995 0.04551 0.82692 0.0
H359 H 0.20992 0.07108 0.89033 0.0
Mn360 Mn 0.15126 0.36297 0.82218 0.0
Mn361 Mn 0.12649 0.27607 0.86482 0.0
C362 C 0.10451 0.32673 0.78461 0.0
C363 C 0.14738 0.42971 0.80639 0.0
C364 C 0.20111 0.29063 0.81576 0.0
O365 O 0.16377 0.36881 0.89139 0.0
O366 O 0.14838 0.3087 0.91297 0.0
C367 C 0.06552 0.29838 0.93121 0.0
N368 N 0.07818 0.2761 0.89553 0.0
C369 C 0.02293 0.23553 0.90055 0.0
C370 C 1.00919 0.25806 0.93731 0.0
C371 C 0.03043 0.28983 0.9524 0.0
C372 C 0.05754 0.24608 0.88002 0.0
H373 H 0.08215 0.32229 0.94352 0.0
C374 C 0.15991 0.34247 0.92184 0.0
O375 O 0.17893 0.41063 0.8038 0.0
O376 O 0.11802 0.4108 0.82176 0.0
N377 N 0.10421 0.24042 0.82281 0.0
C378 C 0.12138 0.22207 0.78662 0.0
C379 C 0.10515 0.18838 0.76903 0.0
C380 C 0.07144 0.17397 0.78871 0.0
C381 C 0.05378 0.19381 0.82528 0.0
C382 C 0.07164 0.22685 0.84184 0.0
H383 H 0.14804 0.23222 0.77245 0.0
O384 O 0.12827 0.34844 0.76222 0.0
O385 O 0.11224 0.3224 0.82833 0.0
O386 O 0.19597 0.32616 0.80977 0.0
O387 O 0.17671 0.26956 0.83552 0.0
C388 C 0.01967 0.18162 0.84666 0.0
C389 C 1.00382 0.20293 0.88362 0.0
H390 H 0.98242 0.25123 0.95418 0.0
H391 H 0.02004 0.30734 0.98076 0.0
H392 H 0.11889 0.17323 0.74077 0.0
H393 H 0.05925 0.14772 0.77529 0.0
H394 H 1.00515 0.15613 0.83461 0.0
H395 H 0.9772 0.19373 0.89912 0.0
Mn396 Mn 0.67274 0.1516 0.81342 0.0
Mn397 Mn 0.75836 0.12737 0.85969 0.0
C398 C 0.70982 0.10388 0.77828 0.0
C399 C 0.60628 0.14732 0.7968 0.0
C400 C 0.74523 0.20125 0.80854 0.0
O401 O 0.66607 0.16646 0.88218 0.0
O402 O 0.72462 0.14893 0.90732 0.0
C403 C 0.73576 0.06604 0.92464 0.0
N404 N 0.75798 0.07871 0.88914 0.0
C405 C 0.798 0.02289 0.89285 0.0
C406 C 0.77537 1.00901 0.92917 0.0
C407 C 0.74391 0.03053 0.94484 0.0
C408 C 0.78764 0.05775 0.87298 0.0
H409 H 0.71218 0.08297 0.93753 0.0
C410 C 0.69095 0.16168 0.91424 0.0
O411 O 0.62543 0.17873 0.79307 0.0
O412 O 0.62495 0.11846 0.81377 0.0
N413 N 0.79445 0.10545 0.81778 0.0
C414 C 0.813 0.12284 0.78215 0.0
C415 C 0.84673 0.10663 0.7646 0.0
C416 C 0.86114 0.07293 0.78408 0.0
C417 C 0.84074 0.05469 0.81952 0.0
C418 C 0.80744 0.07234 0.83577 0.0
H419 H 0.80299 0.14966 0.76841 0.0
O420 O 0.68765 0.12626 0.75461 0.0
O421 O 0.71303 0.11293 0.82182 0.0
O422 O 0.71023 0.19548 0.79965 0.0
O423 O 0.76522 0.17798 0.83157 0.0
C424 C 0.85265 0.02027 0.84018 0.0
C425 C 0.8308 1.00391 0.87609 0.0
H426 H 0.78202 0.982 0.94545 0.0
H427 H 0.7264 0.0201 0.97298 0.0
H428 H 0.86212 0.1206 0.73694 0.0
H429 H 0.88782 0.06118 0.77131 0.0
H430 H 0.87836 1.00592 0.8284 0.0
H431 H 0.83986 0.97709 0.89109 0.0
Mn432 Mn 0.89078 0.38509 0.71536 0.0
Mn433 Mn 0.92181 0.30307 0.66428 0.0
C434 C 0.94432 0.35208 0.74273 0.0
C435 C 0.8892 0.45225 0.72998 0.0
C436 C 0.84879 0.30831 0.72088 0.0
O437 O 0.86808 0.38754 0.64868 0.0
O438 O 0.89732 0.3352 0.61835 0.0
C439 C 0.98141 0.33264 0.60084 0.0
N440 N 0.97075 0.30906 0.63584 0.0
C441 C 0.03089 0.27591 0.63265 0.0
C442 C 0.04225 0.29933 0.59592 0.0
C443 C 0.0175 0.32806 0.5802 0.0
C444 C 0.99488 0.28235 0.65239 0.0
H445 H 0.96286 0.35532 0.58963 0.0
C446 C 0.87725 0.36544 0.61439 0.0
O447 O 0.86092 0.42982 0.73933 0.0
O448 O 0.91799 0.43623 0.70886 0.0
N449 N 0.94689 0.26919 0.70583 0.0
C450 C 0.9312 0.24855 0.74089 0.0
C451 C 0.95134 0.21741 0.75896 0.0
C452 C 0.98709 0.20759 0.74032 0.0
C453 C 1.00344 0.23018 0.70568 0.0
C454 C 0.98203 0.26087 0.68905 0.0
H455 H 0.90289 0.25479 0.75373 0.0
O456 O 0.92494 0.37432 0.77032 0.0
O457 O 0.93107 0.34891 0.70152 0.0
O458 O 0.85362 0.34254 0.73472 0.0
O459 O 0.8713 0.29189 0.69231 0.0
C460 C 0.03924 0.22232 0.68533 0.0
C461 C 0.05334 0.24567 0.64956 0.0
H462 H 0.06991 0.29557 0.57961 0.0
H463 H 0.02624 0.34666 0.55233 0.0
H464 H 0.93872 0.2001 0.78587 0.0
H465 H 1.0011 0.18193 0.75189 0.0
H466 H 0.0559 0.19802 0.69628 0.0
H467 H 0.08103 0.23947 0.63445 0.0
Mn468 Mn 0.65731 0.88909 0.70502 0.0
Mn469 Mn 0.74193 0.91742 0.65798 0.0
C470 C 0.68955 0.94352 0.73208 0.0
C471 C 0.5898 0.88737 0.71751 0.0
C472 C 0.73429 0.84847 0.71983 0.0
O473 O 0.65644 0.86445 0.63906 0.0
O474 O 0.71255 0.88795 0.6135 0.0
C475 C 0.71701 0.96841 0.58237 0.0
N476 N 0.73693 0.9629 0.62219 0.0
C477 C 0.76912 0.02322 0.6137 0.0
C478 C 0.74867 0.02972 0.57288 0.0
C479 C 0.72237 1.00226 0.55727 0.0
C480 C 0.76188 0.98938 0.63785 0.0
H481 H 0.69737 0.94706 0.5697 0.0
C482 C 0.68174 0.86951 0.60702 0.0
O483 O 0.61232 0.85956 0.72823 0.0
O484 O 0.60596 0.91586 0.69626 0.0
N485 N 0.77317 0.94712 0.69819 0.0
C486 C 0.79261 0.93505 0.73613 0.0
C487 C 0.82268 0.95722 0.7533 0.0
C488 C 0.83243 0.99141 0.73115 0.0
C489 C 0.81075 1.00439 0.69379 0.0
C490 C 0.78142 0.98079 0.67776 0.0
H491 H 0.78649 0.90784 0.75185 0.0
O492 O 0.66672 0.92463 0.75914 0.0
O493 O 0.69415 0.92934 0.69119 0.0
O494 O 0.69881 0.85214 0.728 0.0
O495 O 0.75269 0.87062 0.69325 0.0
C496 C 0.81856 0.03863 0.67012 0.0
C497 C 0.79732 0.04834 0.63053 0.0
H498 H 0.7532 0.0555 0.55302 0.0
H499 H 0.70664 1.00694 0.52566 0.0
H500 H 0.83935 0.94715 0.78224 0.0
H501 H 0.85768 1.0065 0.74184 0.0
H502 H 0.84123 0.05739 0.68162 0.0
H503 H 0.80372 0.07464 0.61247 0.0
Mn504 Mn 0.14892 0.65023 0.70522 0.0
Mn505 Mn 0.12116 0.73069 0.64908 0.0
C506 C 0.0953 0.6849 0.72817 0.0
C507 C 0.14817 0.58422 0.7255 0.0
C508 C 0.18684 0.72979 0.71579 0.0
O509 O 0.17325 0.64255 0.64108 0.0
O510 O 0.15849 0.70096 0.61288 0.0
C511 C 0.08154 0.69384 0.56986 0.0
N512 N 0.08114 0.71857 0.6064 0.0
C513 C 0.01878 0.74158 0.58535 0.0
C514 C 0.01868 0.71641 0.54748 0.0
C515 C 0.05012 0.69222 0.53992 0.0
C516 C 0.05072 0.74144 0.61445 0.0
H517 H 0.10565 0.67565 0.56339 0.0
C518 C 0.17448 0.66823 0.60955 0.0
O519 O 0.17695 0.60635 0.73405 0.0
O520 O 0.12059 0.59965 0.70207 0.0
N521 N 0.08419 0.76249 0.67918 0.0
C522 C 0.08927 0.78622 0.71611 0.0
C523 C 0.06109 0.8133 0.7271 0.0
C524 C 0.02794 0.81559 0.7001 0.0
C525 C 0.02298 0.79059 0.66281 0.0
C526 C 0.05239 0.76476 0.65284 0.0
H527 H 0.11517 0.78534 0.73611 0.0
O528 O 0.11468 0.66516 0.75799 0.0
O529 O 0.10863 0.68555 0.68643 0.0
O530 O 0.18724 0.6936 0.72113 0.0
O531 O 0.16168 0.74706 0.69201 0.0
C532 C 0.9906 0.79139 0.63404 0.0
C533 C 0.98837 0.76667 0.59551 0.0
H534 H 0.99457 0.7153 0.52414 0.0
H535 H 0.05031 0.67262 0.51083 0.0
H536 H 0.06558 0.83316 0.75525 0.0
H537 H 1.00704 0.83754 0.70687 0.0
H538 H 0.96734 0.81105 0.64113 0.0
H539 H 0.9633 0.76741 0.57369 0.0
Mn540 Mn 0.38366 0.14903 0.70574 0.0
Mn541 Mn 0.29853 0.1271 0.65555 0.0
C542 C 0.34797 0.09645 0.73009 0.0
C543 C 0.45055 0.1467 0.72012 0.0
C544 C 0.3096 0.19502 0.71904 0.0
O545 O 0.38773 0.17388 0.64095 0.0
O546 O 0.33078 0.15436 0.61176 0.0
C547 C 0.31924 0.0748 0.5787 0.0
N548 N 0.30022 0.08139 0.61916 0.0
C549 C 0.26366 0.02363 0.61001 0.0
C550 C 0.2835 1.01577 0.56883 0.0
C551 C 0.31148 0.04144 0.55317 0.0
C552 C 0.27338 0.05678 0.63464 0.0
H553 H 0.33991 0.09498 0.56579 0.0
C554 C 0.36308 0.17084 0.60813 0.0
O555 O 0.42948 0.17574 0.73092 0.0
O556 O 0.43344 0.11937 0.69751 0.0
N557 N 0.26474 0.09997 0.69529 0.0
C558 C 0.24605 0.11353 0.73339 0.0
C559 C 0.21434 0.09368 0.75038 0.0
C560 C 0.20226 0.06019 0.72798 0.0
C561 C 0.22314 0.04557 0.69042 0.0
C562 C 0.25426 0.06689 0.67464 0.0
H563 H 0.25412 0.14021 0.74947 0.0
O564 O 0.37094 0.11402 0.75836 0.0
O565 O 0.34486 0.11127 0.68943 0.0
O566 O 0.34421 0.18824 0.72889 0.0
O567 O 0.29062 0.17475 0.69086 0.0
C568 C 0.21295 1.01198 0.66636 0.0
C569 C 0.2336 1.00068 0.6266 0.0
H570 H 0.27708 0.99044 0.5486 0.0
H571 H 0.32657 0.03583 0.52113 0.0
H572 H 0.19835 0.10498 0.7795 0.0
H573 H 0.17607 0.04684 0.73894 0.0
H574 H 0.18887 0.99499 0.67762 0.0
H575 H 0.22529 0.97498 0.60817 0.0
C576 C 0.2933 0.26317 0.23792 0.0
C577 C 0.2997 0.26379 0.2859 0.0
C578 C 0.2663 0.2877 0.21762 0.0
C579 C 0.24392 0.31281 0.24472 0.0
H580 H 0.31088 0.24534 0.21567 0.0
H581 H 0.26371 0.28788 0.1803 0.0
S582 S 0.24816 0.32357 0.37214 0.0
N583 N 0.28067 0.29068 0.36006 0.0
N584 N 0.22892 0.3355 0.32215 0.0
C585 C 0.24866 0.31216 0.29291 0.0
C586 C 0.27683 0.288 0.31342 0.0
C587 C 0.73885 0.27351 0.31511 0.0
C588 C 0.76571 0.29609 0.29141 0.0
C589 C 0.7163 0.24649 0.29149 0.0
C590 C 0.71896 0.24206 0.24319 0.0
H591 H 0.73436 0.27768 0.35187 0.0
H592 H 0.6949 0.23078 0.31072 0.0
S593 S 0.78476 0.29399 0.16517 0.0
N594 N 0.79448 0.31116 0.21713 0.0
N595 N 0.75086 0.26178 0.17271 0.0
C596 C 0.74625 0.26377 0.21932 0.0
C597 C 0.76997 0.2904 0.24346 0.0
C598 C 0.75604 0.73609 0.21787 0.0
C599 C 0.77691 0.7094 0.24381 0.0
C600 C 0.72977 0.76113 0.23928 0.0
C601 C 0.72247 0.75944 0.28718 0.0
H602 H 0.75954 0.73713 0.18067 0.0
H603 H 0.7136 0.78054 0.2178 0.0
S604 S 0.76969 0.69449 0.37031 0.0
N605 N 0.78931 0.68343 0.31994 0.0
N606 N 0.7388 0.72911 0.35982 0.0
C607 C 0.74353 0.73314 0.31346 0.0
C608 C 0.77104 0.70848 0.29188 0.0
C609 C 0.28162 0.76427 0.21346 0.0
C610 C 0.31014 0.78462 0.23728 0.0
C611 C 0.25751 0.73851 0.23672 0.0
C612 C 0.26202 0.73131 0.28425 0.0
H613 H 0.27874 0.76743 0.1764 0.0
H614 H 0.23686 0.72234 0.21681 0.0
S615 S 0.33223 0.77765 0.36212 0.0
N616 N 0.34062 0.79695 0.31108 0.0
N617 N 0.29656 0.74743 0.35437 0.0
C618 C 0.28986 0.7522 0.30852 0.0
C619 C 0.31361 0.77914 0.28513 0.0
C620 C 0.77377 0.78883 0.72399 0.0
C621 C 0.75673 0.82032 0.74636 0.0
C622 C 0.80012 0.76536 0.74715 0.0
C623 C 0.81132 0.7734 0.79296 0.0
H624 H 0.76751 0.78298 0.68798 0.0
H625 H 0.81344 0.74209 0.72816 0.0
S626 S 0.77415 0.85224 0.86679 0.0
N627 N 0.75148 0.85741 0.81721 0.0
N628 N 0.80215 0.81453 0.8601 0.0
C629 C 0.79377 0.80439 0.81587 0.0
C630 C 0.7662 0.82755 0.79271 0.0
C631 C 0.20126 0.78096 0.77307 0.0
C632 C 0.21482 0.7539 0.74104 0.0
C633 C 0.22579 0.80751 0.7939 0.0
C634 C 0.26521 0.80875 0.78326 0.0
H635 H 0.17118 0.78201 0.78175 0.0
H636 H 0.2132 0.82799 0.81769 0.0
S637 S 0.31522 0.74239 0.70247 0.0
N638 N 0.27018 0.72836 0.70075 0.0
N639 N 0.31667 0.77869 0.73927 0.0
C640 C 0.27941 0.78081 0.7522 0.0
C641 C 0.25417 0.75334 0.73127 0.0
C642 C 0.2429 0.27755 0.74713 0.0
C643 C 0.23455 0.27148 0.79419 0.0
C644 C 0.26886 0.25385 0.72317 0.0
C645 C 0.28831 0.22421 0.74588 0.0
H646 H 0.22738 0.29905 0.72796 0.0
H647 H 0.27275 0.25785 0.68634 0.0
S648 S 0.27843 0.19805 0.86928 0.0
N649 N 0.24878 0.2344 0.86277 0.0
N650 N 0.29875 0.19114 0.81828 0.0
C651 C 0.28183 0.21928 0.7934 0.0
C652 C 0.25465 0.2426 0.81744 0.0
C653 C 0.78709 0.25945 0.8117 0.0
C654 C 0.76576 0.23304 0.78557 0.0
C655 C 0.8121 0.28547 0.7902 0.0
C656 C 0.81778 0.285 0.74193 0.0
H657 H 0.78523 0.25924 0.84909 0.0
H658 H 0.8287 0.3046 0.81176 0.0
S659 S 0.76866 0.2214 0.65814 0.0
N660 N 0.75111 0.20876 0.7089 0.0
N661 N 0.79921 0.25631 0.66873 0.0
C662 C 0.79611 0.25913 0.71546 0.0
C663 C 0.76984 0.2335 0.73722 0.0
C664 C 0.17959 0.32369 1.0005 0.0
C665 C 0.16191 0.35073 0.97169 0.0
C666 C 0.17465 0.32479 0.04854 0.0
C667 C 0.15109 0.35238 0.06965 0.0
H668 H 0.19738 0.30139 0.98562 0.0
H669 H 0.19116 0.30531 0.06959 0.0
S670 S 0.09587 0.42763 0.00969 0.0
N671 N 0.11806 0.40443 0.96752 0.0
N672 N 0.10871 0.40643 0.05815 0.0
C673 C 0.13197 0.37854 0.04116 0.0
C674 C 0.13757 0.37791 0.9922 0.0
C675 C 0.70678 0.18237 0.99396 0.0
C676 C 0.68072 0.16477 0.96362 0.0
C677 C 0.70339 0.17847 0.04199 0.0
C678 C 0.67456 0.15579 0.06163 0.0
H679 H 0.73017 0.19921 0.98031 0.0
H680 H 0.72255 0.19457 0.06408 0.0
S681 S 0.60038 0.10192 0.99758 0.0
N682 N 0.62598 0.1226 0.95665 0.0
N683 N 0.61977 0.11506 0.0472 0.0
C684 C 0.64891 0.13724 0.03174 0.0
C685 C 0.65189 0.14182 0.98274 0.0
C686 C 0.85555 0.65714 0.98129 0.0
C687 C 0.87707 0.68914 0.96902 0.0
C688 C 0.85069 0.64718 0.02757 0.0
C689 C 0.86793 0.66804 0.06413 0.0
H690 H 0.84189 0.63975 0.95501 0.0
H691 H 0.83273 0.62273 0.03436 0.0
S692 S 0.92681 0.75502 0.05121 0.0
N693 N 0.91512 0.74297 0.99785 0.0
N694 N 0.90701 0.72252 0.08477 0.0
C695 C 0.88982 0.69997 0.05261 0.0
C696 C 0.89406 0.71095 1.00522 0.0
C697 C 0.37641 0.89555 0.02952 0.0
C698 C 0.35187 0.87205 0.05547 0.0
C699 C 0.37696 0.89373 0.9809 0.0
C700 C 0.35325 0.86811 0.95675 0.0
H701 H 0.39664 0.91403 0.04696 0.0
H702 H 0.39521 0.91325 0.96206 0.0
S703 S 0.28349 0.80112 0.00849 0.0
N704 N 0.30342 0.82254 0.05336 0.0
N705 N 0.30365 0.81998 0.96221 0.0
C706 C 0.32826 0.84502 0.98232 0.0
C707 C 0.32773 0.84682 0.03153 0.0
C708 C 0.20814 0.6869 0.53822 0.0
C709 C 0.18666 0.65921 0.56201 0.0
C710 C 0.20783 0.68884 0.48984 0.0
C711 C 0.1849 0.6641 0.46349 0.0
H712 H 0.22391 0.70839 0.55736 0.0
H713 H 0.2257 0.70981 0.47284 0.0
S714 S 0.12529 0.58504 0.50846 0.0
N715 N 0.14379 0.60494 0.55523 0.0
N716 N 0.14225 0.60944 0.46417 0.0
C717 C 0.16416 0.63563 0.4866 0.0
C718 C 0.16552 0.63277 0.53582 0.0
C719 C 0.39122 0.15631 0.5318 0.0
C720 C 0.37149 0.18233 0.56053 0.0
C721 C 0.38724 0.15732 0.48343 0.0
C722 C 0.36317 0.18422 0.46229 0.0
H723 H 0.40831 0.1338 0.54695 0.0
H724 H 0.40395 0.1377 0.46242 0.0
S725 S 0.30523 0.25834 0.52209 0.0
N726 N 0.32672 0.23522 0.56434 0.0
N727 N 0.32007 0.23791 0.47362 0.0
C728 C 0.34368 0.21055 0.49068 0.0
C729 C 0.34769 0.20947 0.53965 0.0
C730 C 0.87939 0.36108 0.48365 0.0
C731 C 0.84324 0.37411 0.47077 0.0
C732 C 0.89026 0.36042 0.52997 0.0
C733 C 0.86589 0.3733 0.56598 0.0
H734 H 0.89949 0.35076 0.45787 0.0
H735 H 0.91795 0.34849 0.53736 0.0
S736 S 0.7681 0.41117 0.55148 0.0
N737 N 0.78248 0.40079 0.49846 0.0
N738 N 0.80411 0.40002 0.58556 0.0
C739 C 0.82997 0.38737 0.55386 0.0
C740 C 0.81835 0.38752 0.5064 0.0
C741 C 0.64053 0.84148 0.54395 0.0
C742 C 0.67506 0.85818 0.55774 0.0
C743 C 0.63285 0.8346 0.49701 0.0
C744 C 0.65881 0.84515 0.46175 0.0
H745 H 0.6191 0.83397 0.56942 0.0
H746 H 0.60605 0.8211 0.48844 0.0
S747 S 0.75471 0.88685 0.47843 0.0
N748 N 0.73726 0.88223 0.53113 0.0
N749 N 0.72099 0.87104 0.44362 0.0
C750 C 0.69351 0.86135 0.47476 0.0
C751 C 0.70211 0.86731 0.52246 0.0
C752 C 0.21308 0.53122 0.29595 0.0
C753 C 0.20601 0.55999 0.26307 0.0
C754 C 0.20701 0.49238 0.28645 0.0
C755 C 0.19152 0.48069 0.24423 0.0
H756 H 0.21987 0.53854 0.33082 0.0
H757 H 0.21242 0.4716 0.31331 0.0
S758 S 0.159 0.5442 0.14979 0.0
N759 N 0.17993 0.57325 0.18692 0.0
N760 N 0.16294 0.50106 0.17208 0.0
C761 C 0.18245 0.50889 0.21154 0.0
C762 C 0.191 0.54823 0.22012 0.0
C763 C 0.52478 0.19898 0.21445 0.0
C764 C 0.55298 0.19534 0.24873 0.0
C765 C 0.48647 0.20646 0.22551 0.0
C766 C 0.47396 0.20705 0.27163 0.0
H767 H 0.53159 0.19302 0.17884 0.0
H768 H 0.46602 0.20876 0.19763 0.0
S769 S 0.53446 0.18568 0.37394 0.0
N770 N 0.56497 0.18825 0.33061 0.0
N771 N 0.49213 0.19396 0.35122 0.0
C772 C 0.50143 0.2002 0.30633 0.0
C773 C 0.54098 0.19594 0.29499 0.0
C774 C 0.81459 0.53561 0.28625 0.0
C775 C 0.83605 0.54595 0.24756 0.0
C776 C 0.80628 0.49709 0.29485 0.0
C777 C 0.81818 0.46734 0.26497 0.0
H778 H 0.80496 0.55726 0.31059 0.0
H779 H 0.7927 0.49082 0.3268 0.0
S780 S 0.87891 0.48044 0.16049 0.0
N781 N 0.87259 0.52405 0.18113 0.0
N782 N 0.85388 0.45225 0.19456 0.0
C783 C 0.83916 0.47797 0.22525 0.0
C784 C 0.84897 0.51701 0.2175 0.0
C785 C 0.52389 0.81493 0.29108 0.0
C786 C 0.55387 0.81932 0.25893 0.0
C787 C 0.48558 0.8207 0.27927 0.0
C788 C 0.47567 0.83358 0.23525 0.0
H789 H 0.52982 0.81092 0.32683 0.0
H790 H 0.46383 0.81752 0.30571 0.0
S791 S 0.54309 0.8591 0.14108 0.0
N792 N 0.57032 0.83997 0.18119 0.0
N793 N 0.49917 0.85733 0.16175 0.0
C794 C 0.50514 0.84008 0.20308 0.0
C795 C 0.54393 0.83145 0.21415 0.0
C796 C 0.92388 0.55065 0.77351 0.0
C797 C 0.88976 0.56922 0.78716 0.0
C798 C 0.92361 0.51349 0.75362 0.0
C799 C 0.88926 0.49307 0.74695 0.0
H800 H 0.95099 0.56516 0.77746 0.0
H801 H 0.95061 0.50045 0.74413 0.0
S802 S 0.7921 0.52852 0.77693 0.0
N803 N 0.82069 0.5638 0.79233 0.0
N804 N 0.82022 0.49477 0.75578 0.0
C805 C 0.85509 0.51136 0.76062 0.0
C806 C 0.85533 0.54908 0.78044 0.0
C807 C 0.52861 0.92127 0.74306 0.0
C808 C 0.54872 0.88711 0.73328 0.0
C809 C 0.49148 0.92083 0.76291 0.0
C810 C 0.47259 0.8862 0.77335 0.0
H811 H 0.54198 0.94861 0.73637 0.0
H812 H 0.47732 0.94786 0.76959 0.0
S813 S 0.51225 0.7888 0.75338 0.0
N814 N 0.54627 0.81772 0.73521 0.0
N815 N 0.47729 0.81685 0.7715 0.0
C816 C 0.49233 0.85197 0.76314 0.0
C817 C 0.53004 0.85244 0.74346 0.0
C818 C 0.17933 0.49129 0.78385 0.0
C819 C 0.14544 0.46986 0.78822 0.0
C820 C 0.17975 0.52768 0.76324 0.0
C821 C 0.14641 0.54444 0.74506 0.0
H822 H 0.20607 0.47979 0.79641 0.0
H823 H 0.20673 0.54273 0.76135 0.0
S824 S 0.04987 0.5003 0.74685 0.0
N825 N 0.07736 0.46829 0.77225 0.0
N826 N 0.07814 0.53634 0.73311 0.0
C827 C 0.11219 0.52333 0.74902 0.0
C828 C 0.11169 0.4863 0.7707 0.0
C829 C 0.5092 0.17903 0.75092 0.0
C830 C 0.49108 0.1449 0.73695 0.0
C831 C 0.54577 0.1791 0.77083 0.0
C832 C 0.56617 0.14499 0.77863 0.0
H833 H 0.49493 0.20627 0.74655 0.0
H834 H 0.55813 0.20641 0.78033 0.0
S835 S 0.53207 0.04742 0.74857 0.0
N836 N 0.49675 0.07569 0.73235 0.0
N837 N 0.56538 0.07577 0.77012 0.0
C838 C 0.54852 0.11047 0.76497 0.0
C839 C 0.51118 0.11044 0.744 0.0
C840 C 0.71821 0.03384 0.79594 0.0
C841 C 0.71249 0.06299 0.76312 0.0
C842 C 0.71273 0.99505 0.78531 0.0
C843 C 0.69945 0.98383 0.74178 0.0
H844 H 0.72366 0.0408 0.83131 0.0
H845 H 0.71713 0.97391 0.81202 0.0
S846 S 0.67168 0.04835 0.64611 0.0
N847 N 0.69037 0.07704 0.68535 0.0
N848 N 0.67467 1.00496 0.66791 0.0
C849 C 0.6919 1.01241 0.70901 0.0
C850 C 0.69974 0.05167 0.71893 0.0
C851 C 1.0081 0.71862 0.79358 0.0
C852 C 0.9778 0.71211 0.76262 0.0
C853 C 0.04624 0.71202 0.78142 0.0
C854 C 0.05567 0.69653 0.73827 0.0
H855 H 1.00256 0.72528 0.82891 0.0
H856 H 0.06829 0.71708 0.80694 0.0
S857 S 0.98758 0.66556 0.64749 0.0
N858 N 0.96062 0.68666 0.68693 0.0
N859 N 0.03171 0.66872 0.66696 0.0
C860 C 0.02597 0.68803 0.7073 0.0
C861 C 0.98727 0.69714 0.71865 0.0
C862 C 0.32763 0.04453 0.78318 0.0
C863 C 0.33734 0.05618 0.73854 0.0
C864 C 0.32424 1.00568 0.79376 0.0
C865 C 0.3275 0.97676 0.75982 0.0
H866 H 0.32534 0.0654 0.81092 0.0
H867 H 0.32292 0.99854 0.8296 0.0
S868 S 0.36049 0.99201 0.63954 0.0
N869 N 0.35806 0.03537 0.66216 0.0
N870 N 0.3447 0.96299 0.68002 0.0
C871 C 0.33685 0.98827 0.71466 0.0
C872 C 0.34325 0.02773 0.70455 0.0
C873 C 0.03436 0.3155 0.79945 0.0
C874 C 0.06369 0.32724 0.76918 0.0
C875 C 0.99565 0.32248 0.79062 0.0
C876 C 0.98468 0.34291 0.75156 0.0
H877 H 0.04112 0.30329 0.83192 0.0
H878 H 0.97435 0.31289 0.81521 0.0
S879 S 0.04898 0.38728 0.66504 0.0
N880 N 0.07779 0.363 0.69899 0.0
N881 N 1.00558 0.37976 0.68538 0.0
C882 C 1.01323 0.35632 0.72153 0.0
C883 C 0.05251 0.34759 0.72941 0.0
C884 C 0.35713 0.0389 0.28634 0.0
C885 C 0.38831 0.06375 0.28075 0.0
C886 C 0.35668 1.00228 0.26591 0.0
C887 C 0.38706 0.98877 0.23794 0.0
H888 H 0.33264 0.04792 0.30666 0.0
H889 H 0.33196 0.98444 0.27216 0.0
S890 S 0.47356 0.04474 0.20759 0.0
N891 N 0.44938 0.07342 0.24263 0.0
N892 N 0.4484 1.00489 0.20361 0.0
C893 C 0.41821 1.01371 0.23126 0.0
C894 C 0.41887 0.05101 0.25276 0.0
C895 C 0.9873 0.36073 0.29955 0.0
C896 C 0.96132 0.39032 0.28998 0.0
C897 C 0.02448 0.36046 0.28084 0.0
C898 C 0.03749 0.3894 0.25075 0.0
H899 H 0.97874 0.33733 0.32168 0.0
H900 H 0.04314 0.33702 0.29006 0.0
S901 S 0.97888 0.47111 0.21015 0.0
N902 N 0.95027 0.44819 0.24606 0.0
N903 N 0.0198 0.44749 0.21019 0.0
C904 C 1.01148 0.41893 0.24019 0.0
C905 C 0.97361 0.41944 0.25992 0.0
C906 C 0.67394 0.98054 0.26399 0.0
C907 C 0.6405 0.96304 0.28107 0.0
C908 C 0.6734 0.01738 0.24455 0.0
C909 C 0.63931 0.03848 0.24027 0.0
H910 H 0.70105 0.96568 0.2656 0.0
H911 H 0.70015 0.02947 0.23269 0.0
S912 S 0.54394 1.00703 0.28148 0.0
N913 N 0.57225 0.97068 0.29364 0.0
N914 N 0.57123 0.03958 0.25662 0.0
C915 C 0.60557 0.02151 0.25717 0.0
C916 C 0.60619 0.98404 0.27769 0.0
C917 C 0.04202 0.67711 0.27356 0.0
C918 C 0.06197 0.6435 0.28543 0.0
C919 C 1.00505 0.67595 0.25446 0.0
C920 C 0.9863 0.6411 0.24526 0.0
H921 H 0.05507 0.70483 0.27903 0.0
H922 H 0.99108 0.70278 0.24662 0.0
S923 S 0.02518 0.54471 0.27103 0.0
N924 N 0.05943 0.57415 0.28743 0.0
N925 N 0.9904 0.57189 0.25097 0.0
C926 C 1.00581 0.60718 0.25693 0.0
C927 C 0.04337 0.6084 0.27716 0.0
loop_
_geom_bond_atom_site_label_1
_geom_bond_atom_site_label_2
_geom_bond_distance
_geom_bond_site_symmetry_2
_ccdc_geom_bond_type
Mn0 O5 2.095 . S
Mn0 O15 2.162 . S
Mn0 O16 2.297 . S
Mn0 O24 2.385 . S
Mn0 O25 2.209 . S
Mn0 O26 2.094 . S
Mn1 O6 2.121 . S
Mn1 N8 2.257 . S
Mn1 N17 2.282 . S
Mn1 O25 2.215 . S
Mn1 O27 2.117 . S
C2 O24 1.234 . S
C2 O25 1.283 . S
C3 O15 1.281 . S
C3 O16 1.236 . S
C4 O26 1.240 . S
C4 O27 1.264 . S
O5 Mn0 2.095 . S
O5 C14 1.250 . S
O6 Mn1 2.121 . S
O6 C14 1.258 . S
C7 N8 1.326 . S
C7 C11 1.460 . S
C7 H13 0.929 . S
N8 Mn1 2.257 . S
N8 C7 1.326 . S
N8 C12 1.362 . S
C9 C10 1.258 . S
C9 C12 1.431 . S
C9 C29 1.449 . S
C10 C9 1.258 . S
C10 C11 1.477 . S
C10 H30 0.931 . S
C11 C7 1.460 . S
C11 C10 1.477 . S
C11 H31 0.930 . S
C12 N8 1.362 . S
C12 C9 1.431 . S
C12 C22 1.476 . S
H13 C7 0.929 . S
C14 O5 1.250 . S
C14 O6 1.258 . S
O15 Mn0 2.162 . S
O15 C3 1.281 . S
O16 Mn0 2.297 . S
O16 C3 1.236 . S
N17 Mn1 2.282 . S
N17 C18 1.328 . S
N17 C22 1.318 . S
C18 N17 1.328 . S
C18 C19 1.457 . S
C18 H23 0.929 . S
C19 C18 1.457 . S
C19 C20 1.291 . S
C19 H32 0.931 . S
C20 C19 1.291 . S
C20 C21 1.373 . S
C20 H33 0.929 . S
C21 C20 1.373 . S
C21 C22 1.396 . S
C21 C28 1.403 . S
C22 C12 1.476 . S
C22 N17 1.318 . S
C22 C21 1.396 . S
H23 C18 0.929 . S
O24 Mn0 2.385 . S
O24 C2 1.234 . S
O25 Mn0 2.209 . S
O25 Mn1 2.215 . S
O25 C2 1.283 . S
O26 Mn0 2.094 . S
O26 C4 1.240 . S
O27 Mn1 2.117 . S
O27 C4 1.264 . S
C28 C21 1.403 . S
C28 C29 1.399 . S
C28 H34 0.929 . S
C29 C9 1.449 . S
C29 C28 1.399 . S
C29 H35 0.930 . S
H30 C10 0.931 . S
H31 C11 0.930 . S
H32 C19 0.931 . S
H33 C20 0.929 . S
H34 C28 0.929 . S
H35 C29 0.930 . S
Mn36 O41 2.095 . S
Mn36 O51 2.162 . S
Mn36 O52 2.297 . S
Mn36 O60 2.385 . S
Mn36 O61 2.209 . S
Mn36 O62 2.094 . S
Mn37 O42 2.121 . S
Mn37 N44 2.257 . S
Mn37 N53 2.282 . S
Mn37 O61 2.215 . S
Mn37 O63 2.117 . S
C38 O60 1.234 . S
C38 O61 1.283 . S
C39 O51 1.281 . S
C39 O52 1.236 . S
C40 O62 1.240 . S
C40 O63 1.264 . S
O41 Mn36 2.095 . S
O41 C50 1.250 . S
O42 Mn37 2.121 . S
O42 C50 1.258 . S
C43 N44 1.326 . S
C43 C47 1.460 . S
C43 H49 0.929 . S
N44 Mn37 2.257 . S
N44 C43 1.326 . S
N44 C48 1.362 . S
C45 C46 1.258 . S
C45 C48 1.431 . S
C45 C65 1.449 . S
C46 C45 1.258 . S
C46 C47 1.477 . S
C46 H66 0.931 . S
C47 C43 1.460 . S
C47 C46 1.477 . S
C47 H67 0.930 . S
C48 N44 1.362 . S
C48 C45 1.431 . S
C48 C58 1.476 . S
H49 C43 0.929 . S
C50 O41 1.250 . S
C50 O42 1.258 . S
O51 Mn36 2.162 . S
O51 C39 1.281 . S
O52 Mn36 2.297 . S
O52 C39 1.236 . S
N53 Mn37 2.282 . S
N53 C54 1.328 . S
N53 C58 1.318 . S
C54 N53 1.328 . S
C54 C55 1.457 . S
C54 H59 0.929 . S
C55 C54 1.457 . S
C55 C56 1.291 . S
C55 H68 0.931 . S
C56 C55 1.291 . S
C56 C57 1.373 . S
C56 H69 0.929 . S
C57 C56 1.373 . S
C57 C58 1.396 . S
C57 C64 1.403 . S
C58 C48 1.476 . S
C58 N53 1.318 . S
C58 C57 1.396 . S
H59 C54 0.929 . S
O60 Mn36 2.385 . S
O60 C38 1.234 . S
O61 Mn36 2.209 . S
O61 Mn37 2.215 . S
O61 C38 1.283 . S
O62 Mn36 2.094 . S
O62 C40 1.240 . S
O63 Mn37 2.117 . S
O63 C40 1.264 . S
C64 C57 1.403 . S
C64 C65 1.399 . S
C64 H70 0.929 . S
C65 C45 1.449 . S
C65 C64 1.399 . S
C65 H71 0.930 . S
H66 C46 0.931 . S
H67 C47 0.930 . S
H68 C55 0.931 . S
H69 C56 0.929 . S
H70 C64 0.929 . S
H71 C65 0.930 . S
Mn72 O77 2.095 . S
Mn72 O87 2.162 . S
Mn72 O88 2.297 . S
Mn72 O96 2.385 . S
Mn72 O97 2.209 . S
Mn72 O98 2.094 . S
Mn73 O78 2.121 . S
Mn73 N80 2.257 . S
Mn73 N89 2.282 . S
Mn73 O97 2.215 . S
Mn73 O99 2.117 . S
C74 O96 1.234 . S
C74 O97 1.283 . S
C75 O87 1.281 . S
C75 O88 1.236 . S
C76 O98 1.240 . S
C76 O99 1.264 . S
O77 Mn72 2.095 . S
O77 C86 1.250 . S
O78 Mn73 2.121 . S
O78 C86 1.258 . S
C79 N80 1.326 . S
C79 C83 1.460 . S
C79 H85 0.929 . S
N80 Mn73 2.257 . S
N80 C79 1.326 . S
N80 C84 1.362 . S
C81 C82 1.258 . S
C81 C84 1.431 . S
C81 C101 1.449 . S
C82 C81 1.258 . S
C82 C83 1.477 . S
C82 H102 0.931 . S
C83 C79 1.460 . S
C83 C82 1.477 . S
C83 H103 0.930 . S
C84 N80 1.362 . S
C84 C81 1.431 . S
C84 C94 1.476 . S
H85 C79 0.929 . S
C86 O77 1.250 . S
C86 O78 1.258 . S
O87 Mn72 2.162 . S
O87 C75 1.281 . S
O88 Mn72 2.297 . S
O88 C75 1.236 . S
N89 Mn73 2.282 . S
N89 C90 1.328 . S
N89 C94 1.318 . S
C90 N89 1.328 . S
C90 C91 1.457 . S
C90 H95 0.929 . S
C91 C90 1.457 . S
C91 C92 1.291 . S
C91 H104 0.931 . S
C92 C91 1.291 . S
C92 C93 1.373 . S
C92 H105 0.929 . S
C93 C92 1.373 . S
C93 C94 1.396 . S
C93 C100 1.403 . S
C94 C84 1.476 . S
C94 N89 1.318 . S
C94 C93 1.396 . S
H95 C90 0.929 . S
O96 Mn72 2.385 . S
O96 C74 1.234 . S
O97 Mn72 2.209 . S
O97 Mn73 2.215 . S
O97 C74 1.283 . S
O98 Mn72 2.094 . S
O98 C76 1.240 . S
O99 Mn73 2.117 . S
O99 C76 1.264 . S
C100 C93 1.403 . S
C100 C101 1.399 . S
C100 H106 0.929 . S
C101 C81 1.449 . S
C101 C100 1.399 . S
C101 H107 0.930 . S
H102 C82 0.931 . S
H103 C83 0.930 . S
H104 C91 0.931 . S
H105 C92 0.929 . S
H106 C100 0.929 . S
H107 C101 0.930 . S
Mn108 O113 2.095 . S
Mn108 O123 2.162 . S
Mn108 O124 2.297 . S
Mn108 O132 2.385 . S
Mn108 O133 2.209 . S
Mn108 O134 2.094 . S
Mn109 O114 2.121 . S
Mn109 N116 2.257 . S
Mn109 N125 2.282 . S
Mn109 O133 2.215 . S
Mn109 O135 2.117 . S
C110 O132 1.234 . S
C110 O133 1.283 . S
C111 O123 1.281 . S
C111 O124 1.236 . S
C112 O134 1.240 . S
C112 O135 1.264 . S
O113 Mn108 2.095 . S
O113 C122 1.250 . S
O114 Mn109 2.121 . S
O114 C122 1.258 . S
C115 N116 1.326 . S
C115 C119 1.460 . S
C115 H121 0.929 . S
N116 Mn109 2.257 . S
N116 C115 1.326 . S
N116 C120 1.362 . S
C117 C118 1.258 . S
C117 C120 1.431 . S
C117 C137 1.449 . S
C118 C117 1.258 . S
C118 C119 1.477 . S
C118 H138 0.931 . S
C119 C115 1.460 . S
C119 C118 1.477 . S
C119 H139 0.930 . S
C120 N116 1.362 . S
C120 C117 1.431 . S
C120 C130 1.476 . S
H121 C115 0.929 . S
C122 O113 1.250 . S
C122 O114 1.258 . S
O123 Mn108 2.162 . S
O123 C111 1.281 . S
O124 Mn108 2.297 . S
O124 C111 1.236 . S
N125 Mn109 2.282 . S
N125 C126 1.328 . S
N125 C130 1.318 . S
C126 N125 1.328 . S
C126 C127 1.457 . S
C126 H131 0.929 . S
C127 C126 1.457 . S
C127 C128 1.291 . S
C127 H140 0.931 . S
C128 C127 1.291 . S
C128 C129 1.373 . S
C128 H141 0.929 . S
C129 C128 1.373 . S
C129 C130 1.396 . S
C129 C136 1.403 . S
C130 C120 1.476 . S
C130 N125 1.318 . S
C130 C129 1.396 . S
H131 C126 0.929 . S
O132 Mn108 2.385 . S
O132 C110 1.234 . S
O133 Mn108 2.209 . S
O133 Mn109 2.215 . S
O133 C110 1.283 . S
O134 Mn108 2.094 . S
O134 C112 1.240 . S
O135 Mn109 2.117 . S
O135 C112 1.264 . S
C136 C129 1.403 . S
C136 C137 1.399 . S
C136 H142 0.929 . S
C137 C117 1.449 . S
C137 C136 1.399 . S
C137 H143 0.930 . S
H138 C118 0.931 . S
H139 C119 0.930 . S
H140 C127 0.931 . S
H141 C128 0.929 . S
H142 C136 0.929 . S
H143 C137 0.930 . S
Mn144 O149 2.095 . S
Mn144 O159 2.162 . S
Mn144 O160 2.297 . S
Mn144 O168 2.385 . S
Mn144 O169 2.209 . S
Mn144 O170 2.094 . S
Mn145 O150 2.121 . S
Mn145 N152 2.257 . S
Mn145 N161 2.282 . S
Mn145 O169 2.215 . S
Mn145 O171 2.117 . S
C146 O168 1.234 . S
C146 O169 1.283 . S
C147 O159 1.281 . S
C147 O160 1.236 . S
C148 O170 1.240 . S
C148 O171 1.264 . S
O149 Mn144 2.095 . S
O149 C158 1.250 . S
O150 Mn145 2.121 . S
O150 C158 1.258 . S
C151 N152 1.326 . S
C151 C155 1.460 . S
C151 H157 0.929 . S
N152 Mn145 2.257 . S
N152 C151 1.326 . S
N152 C156 1.362 . S
C153 C154 1.258 . S
C153 C156 1.431 . S
C153 C173 1.449 . S
C154 C153 1.258 . S
C154 C155 1.477 . S
C154 H174 0.931 . S
C155 C151 1.460 . S
C155 C154 1.477 . S
C155 H175 0.930 . S
C156 N152 1.362 . S
C156 C153 1.431 . S
C156 C166 1.476 . S
H157 C151 0.929 . S
C158 O149 1.250 . S
C158 O150 1.258 . S
O159 Mn144 2.162 . S
O159 C147 1.281 . S
O160 Mn144 2.297 . S
O160 C147 1.236 . S
N161 Mn145 2.282 . S
N161 C162 1.328 . S
N161 C166 1.318 . S
C162 N161 1.328 . S
C162 C163 1.457 . S
C162 H167 0.929 . S
C163 C162 1.457 . S
C163 C164 1.291 . S
C163 H176 0.931 . S
C164 C163 1.291 . S
C164 C165 1.373 . S
C164 H177 0.929 . S
C165 C164 1.373 . S
C165 C166 1.396 . S
C165 C172 1.403 . S
C166 C156 1.476 . S
C166 N161 1.318 . S
C166 C165 1.396 . S
H167 C162 0.929 . S
O168 Mn144 2.385 . S
O168 C146 1.234 . S
O169 Mn144 2.209 . S
O169 Mn145 2.215 . S
O169 C146 1.283 . S
O170 Mn144 2.094 . S
O170 C148 1.240 . S
O171 Mn145 2.117 . S
O171 C148 1.264 . S
C172 C165 1.403 . S
C172 C173 1.399 . S
C172 H178 0.929 . S
C173 C153 1.449 . S
C173 C172 1.399 . S
C173 H179 0.930 . S
H174 C154 0.931 . S
H175 C155 0.930 . S
H176 C163 0.931 . S
H177 C164 0.929 . S
H178 C172 0.929 . S
H179 C173 0.930 . S
Mn180 O185 2.095 . S
Mn180 O195 2.162 . S
Mn180 O196 2.297 . S
Mn180 O204 2.385 . S
Mn180 O205 2.209 . S
Mn180 O206 2.094 . S
Mn181 O186 2.121 . S
Mn181 N188 2.257 . S
Mn181 N197 2.282 . S
Mn181 O205 2.215 . S
Mn181 O207 2.117 . S
C182 O204 1.234 . S
C182 O205 1.283 . S
C183 O195 1.281 . S
C183 O196 1.236 . S
C184 O206 1.240 . S
C184 O207 1.264 . S
O185 Mn180 2.095 . S
O185 C194 1.250 . S
O186 Mn181 2.121 . S
O186 C194 1.258 . S
C187 N188 1.326 . S
C187 C191 1.460 . S
C187 H193 0.929 . S
N188 Mn181 2.257 . S
N188 C187 1.326 . S
N188 C192 1.362 . S
C189 C190 1.258 . S
C189 C192 1.431 . S
C189 C209 1.449 . S
C190 C189 1.258 . S
C190 C191 1.477 . S
C190 H210 0.931 . S
C191 C187 1.460 . S
C191 C190 1.477 . S
C191 H211 0.930 . S
C192 N188 1.362 . S
C192 C189 1.431 . S
C192 C202 1.476 . S
H193 C187 0.929 . S
C194 O185 1.250 . S
C194 O186 1.258 . S
O195 Mn180 2.162 . S
O195 C183 1.281 . S
O196 Mn180 2.297 . S
O196 C183 1.236 . S
N197 Mn181 2.282 . S
N197 C198 1.328 . S
N197 C202 1.318 . S
C198 N197 1.328 . S
C198 C199 1.457 . S
C198 H203 0.929 . S
C199 C198 1.457 . S
C199 C200 1.291 . S
C199 H212 0.931 . S
C200 C199 1.291 . S
C200 C201 1.373 . S
C200 H213 0.929 . S
C201 C200 1.373 . S
C201 C202 1.396 . S
C201 C208 1.403 . S
C202 C192 1.476 . S
C202 N197 1.318 . S
C202 C201 1.396 . S
H203 C198 0.929 . S
O204 Mn180 2.385 . S
O204 C182 1.234 . S
O205 Mn180 2.209 . S
O205 Mn181 2.215 . S
O205 C182 1.283 . S
O206 Mn180 2.094 . S
O206 C184 1.240 . S
O207 Mn181 2.117 . S
O207 C184 1.264 . S
C208 C201 1.403 . S
C208 C209 1.399 . S
C208 H214 0.929 . S
C209 C189 1.449 . S
C209 C208 1.399 . S
C209 H215 0.930 . S
H210 C190 0.931 . S
H211 C191 0.930 . S
H212 C199 0.931 . S
H213 C200 0.929 . S
H214 C208 0.929 . S
H215 C209 0.930 . S
Mn216 O221 2.095 . S
Mn216 O231 2.162 . S
Mn216 O232 2.297 . S
Mn216 O240 2.385 . S
Mn216 O241 2.209 . S
Mn216 O242 2.094 . S
Mn217 O222 2.121 . S
Mn217 N224 2.257 . S
Mn217 N233 2.282 . S
Mn217 O241 2.215 . S
Mn217 O243 2.117 . S
C218 O240 1.234 . S
C218 O241 1.283 . S
C219 O231 1.281 . S
C219 O232 1.236 . S
C220 O242 1.240 . S
C220 O243 1.264 . S
O221 Mn216 2.095 . S
O221 C230 1.250 . S
O222 Mn217 2.121 . S
O222 C230 1.258 . S
C223 N224 1.326 . S
C223 C227 1.460 . S
C223 H229 0.929 . S
N224 Mn217 2.257 . S
N224 C223 1.326 . S
N224 C228 1.362 . S
C225 C226 1.258 . S
C225 C228 1.431 . S
C225 C245 1.449 . S
C226 C225 1.258 . S
C226 C227 1.477 . S
C226 H246 0.931 . S
C227 C223 1.460 . S
C227 C226 1.477 . S
C227 H247 0.930 . S
C228 N224 1.362 . S
C228 C225 1.431 . S
C228 C238 1.476 . S
H229 C223 0.929 . S
C230 O221 1.250 . S
C230 O222 1.258 . S
O231 Mn216 2.162 . S
O231 C219 1.281 . S
O232 Mn216 2.297 . S
O232 C219 1.236 . S
N233 Mn217 2.282 . S
N233 C234 1.328 . S
N233 C238 1.318 . S
C234 N233 1.328 . S
C234 C235 1.457 . S
C234 H239 0.929 . S
C235 C234 1.457 . S
C235 C236 1.291 . S
C235 H248 0.931 . S
C236 C235 1.291 . S
C236 C237 1.373 . S
C236 H249 0.929 . S
C237 C236 1.373 . S
C237 C238 1.396 . S
C237 C244 1.403 . S
C238 C228 1.476 . S
C238 N233 1.318 . S
C238 C237 1.396 . S
H239 C234 0.929 . S
O240 Mn216 2.385 . S
O240 C218 1.234 . S
O241 Mn216 2.209 . S
O241 Mn217 2.215 . S
O241 C218 1.283 . S
O242 Mn216 2.094 . S
O242 C220 1.240 . S
O243 Mn217 2.117 . S
O243 C220 1.264 . S
C244 C237 1.403 . S
C244 C245 1.399 . S
C244 H250 0.929 . S
C245 C225 1.449 . S
C245 C244 1.399 . S
C245 H251 0.930 . S
H246 C226 0.931 . S
H247 C227 0.930 . S
H248 C235 0.931 . S
H249 C236 0.929 . S
H250 C244 0.929 . S
H251 C245 0.930 . S
Mn252 O257 2.095 . S
Mn252 O267 2.162 . S
Mn252 O268 2.297 . S
Mn252 O276 2.385 . S
Mn252 O277 2.209 . S
Mn252 O278 2.094 . S
Mn253 O258 2.121 . S
Mn253 N260 2.257 . S
Mn253 N269 2.282 . S
Mn253 O277 2.215 . S
Mn253 O279 2.117 . S
C254 O276 1.234 . S
C254 O277 1.283 . S
C255 O267 1.281 . S
C255 O268 1.236 . S
C256 O278 1.240 . S
C256 O279 1.264 . S
O257 Mn252 2.095 . S
O257 C266 1.250 . S
O258 Mn253 2.121 . S
O258 C266 1.258 . S
C259 N260 1.326 . S
C259 C263 1.460 . S
C259 H265 0.929 . S
N260 Mn253 2.257 . S
N260 C259 1.326 . S
N260 C264 1.362 . S
C261 C262 1.258 . S
C261 C264 1.431 . S
C261 C281 1.449 . S
C262 C261 1.258 . S
C262 C263 1.477 . S
C262 H282 0.931 . S
C263 C259 1.460 . S
C263 C262 1.477 . S
C263 H283 0.930 . S
C264 N260 1.362 . S
C264 C261 1.431 . S
C264 C274 1.476 . S
H265 C259 0.929 . S
C266 O257 1.250 . S
C266 O258 1.258 . S
O267 Mn252 2.162 . S
O267 C255 1.281 . S
O268 Mn252 2.297 . S
O268 C255 1.236 . S
N269 Mn253 2.282 . S
N269 C270 1.328 . S
N269 C274 1.318 . S
C270 N269 1.328 . S
C270 C271 1.457 . S
C270 H275 0.929 . S
C271 C270 1.457 . S
C271 C272 1.291 . S
C271 H284 0.931 . S
C272 C271 1.291 . S
C272 C273 1.373 . S
C272 H285 0.929 . S
C273 C272 1.373 . S
C273 C274 1.396 . S
C273 C280 1.403 . S
C274 C264 1.476 . S
C274 N269 1.318 . S
C274 C273 1.396 . S
H275 C270 0.929 . S
O276 Mn252 2.385 . S
O276 C254 1.234 . S
O277 Mn252 2.209 . S
O277 Mn253 2.215 . S
O277 C254 1.283 . S
O278 Mn252 2.094 . S
O278 C256 1.240 . S
O279 Mn253 2.117 . S
O279 C256 1.264 . S
C280 C273 1.403 . S
C280 C281 1.399 . S
C280 H286 0.929 . S
C281 C261 1.449 . S
C281 C280 1.399 . S
C281 H287 0.930 . S
H282 C262 0.931 . S
H283 C263 0.930 . S
H284 C271 0.931 . S
H285 C272 0.929 . S
H286 C280 0.929 . S
H287 C281 0.930 . S
Mn288 O293 2.095 . S
Mn288 O303 2.162 . S
Mn288 O304 2.297 . S
Mn288 O312 2.385 . S
Mn288 O313 2.209 . S
Mn288 O314 2.094 . S
Mn289 O294 2.121 . S
Mn289 N296 2.257 . S
Mn289 N305 2.282 . S
Mn289 O313 2.215 . S
Mn289 O315 2.117 . S
C290 O312 1.234 . S
C290 O313 1.283 . S
C291 O303 1.281 . S
C291 O304 1.236 . S
C292 O314 1.240 . S
C292 O315 1.264 . S
O293 Mn288 2.095 . S
O293 C302 1.250 . S
O294 Mn289 2.121 . S
O294 C302 1.258 . S
C295 N296 1.326 . S
C295 C299 1.460 1_655 S
C295 H301 0.929 . S
N296 Mn289 2.257 . S
N296 C295 1.326 . S
N296 C300 1.362 . S
C297 C298 1.258 . S
C297 C300 1.431 1_455 S
C297 C317 1.449 . S
C298 C297 1.258 . S
C298 C299 1.477 . S
C298 H318 0.931 . S
C299 C295 1.460 1_455 S
C299 C298 1.477 . S
C299 H319 0.930 . S
C300 N296 1.362 . S
C300 C297 1.431 1_655 S
C300 C310 1.476 . S
H301 C295 0.929 . S
C302 O293 1.250 . S
C302 O294 1.258 . S
O303 Mn288 2.162 . S
O303 C291 1.281 . S
O304 Mn288 2.297 . S
O304 C291 1.236 . S
N305 Mn289 2.282 . S
N305 C306 1.328 . S
N305 C310 1.318 . S
C306 N305 1.328 . S
C306 C307 1.457 . S
C306 H311 0.929 . S
C307 C306 1.457 . S
C307 C308 1.291 . S
C307 H320 0.931 . S
C308 C307 1.291 . S
C308 C309 1.373 . S
C308 H321 0.929 . S
C309 C308 1.373 . S
C309 C310 1.396 . S
C309 C316 1.403 1_655 S
C310 C300 1.476 . S
C310 N305 1.318 . S
C310 C309 1.396 . S
H311 C306 0.929 . S
O312 Mn288 2.385 . S
O312 C290 1.234 . S
O313 Mn288 2.209 . S
O313 Mn289 2.215 . S
O313 C290 1.283 . S
O314 Mn288 2.094 . S
O314 C292 1.240 . S
O315 Mn289 2.117 . S
O315 C292 1.264 . S
C316 C309 1.403 1_455 S
C316 C317 1.399 . S
C316 H322 0.929 . S
C317 C297 1.449 . S
C317 C316 1.399 . S
C317 H323 0.930 . S
H318 C298 0.931 . S
H319 C299 0.930 . S
H320 C307 0.931 . S
H321 C308 0.929 . S
H322 C316 0.929 . S
H323 C317 0.930 . S
Mn324 O329 2.095 . S
Mn324 O339 2.162 . S
Mn324 O340 2.297 . S
Mn324 O348 2.385 . S
Mn324 O349 2.209 . S
Mn324 O350 2.094 . S
Mn325 O330 2.121 . S
Mn325 N332 2.257 . S
Mn325 N341 2.282 . S
Mn325 O349 2.215 . S
Mn325 O351 2.117 . S
C326 O348 1.234 . S
C326 O349 1.283 . S
C327 O339 1.281 . S
C327 O340 1.236 . S
C328 O350 1.240 . S
C328 O351 1.264 . S
O329 Mn324 2.095 . S
O329 C338 1.250 . S
O330 Mn325 2.121 . S
O330 C338 1.258 . S
C331 N332 1.326 . S
C331 C335 1.460 1_565 S
C331 H337 0.929 . S
N332 Mn325 2.257 . S
N332 C331 1.326 . S
N332 C336 1.362 . S
C333 C334 1.258 . S
C333 C336 1.431 1_545 S
C333 C353 1.449 . S
C334 C333 1.258 . S
C334 C335 1.477 . S
C334 H354 0.931 . S
C335 C331 1.460 1_545 S
C335 C334 1.477 . S
C335 H355 0.930 . S
C336 N332 1.362 . S
C336 C333 1.431 1_565 S
C336 C346 1.476 . S
H337 C331 0.929 . S
C338 O329 1.250 . S
C338 O330 1.258 . S
O339 Mn324 2.162 . S
O339 C327 1.281 . S
O340 Mn324 2.297 . S
O340 C327 1.236 . S
N341 Mn325 2.282 . S
N341 C342 1.328 . S
N341 C346 1.318 . S
C342 N341 1.328 . S
C342 C343 1.457 . S
C342 H347 0.929 . S
C343 C342 1.457 . S
C343 C344 1.291 . S
C343 H356 0.931 . S
C344 C343 1.291 . S
C344 C345 1.373 . S
C344 H357 0.929 . S
C345 C344 1.373 . S
C345 C346 1.396 . S
C345 C352 1.403 1_565 S
C346 C336 1.476 . S
C346 N341 1.318 . S
C346 C345 1.396 . S
H347 C342 0.929 . S
O348 Mn324 2.385 . S
O348 C326 1.234 . S
O349 Mn324 2.209 . S
O349 Mn325 2.215 . S
O349 C326 1.283 . S
O350 Mn324 2.094 . S
O350 C328 1.240 . S
O351 Mn325 2.117 . S
O351 C328 1.264 . S
C352 C345 1.403 1_545 S
C352 C353 1.399 . S
C352 H358 0.929 . S
C353 C333 1.449 . S
C353 C352 1.399 . S
C353 H359 0.930 . S
H354 C334 0.931 . S
H355 C335 0.930 . S
H356 C343 0.931 . S
H357 C344 0.929 . S
H358 C352 0.929 . S
H359 C353 0.930 . S
Mn360 O365 2.095 . S
Mn360 O375 2.162 . S
Mn360 O376 2.297 . S
Mn360 O384 2.385 . S
Mn360 O385 2.209 . S
Mn360 O386 2.094 . S
Mn361 O366 2.121 . S
Mn361 N368 2.257 . S
Mn361 N377 2.282 . S
Mn361 O385 2.215 . S
Mn361 O387 2.117 . S
C362 O384 1.234 . S
C362 O385 1.283 . S
C363 O375 1.281 . S
C363 O376 1.236 . S
C364 O386 1.240 . S
C364 O387 1.264 . S
O365 Mn360 2.095 . S
O365 C374 1.250 . S
O366 Mn361 2.121 . S
O366 C374 1.258 . S
C367 N368 1.326 . S
C367 C371 1.460 1_455 S
C367 H373 0.929 . S
N368 Mn361 2.257 . S
N368 C367 1.326 . S
N368 C372 1.362 . S
C369 C370 1.258 . S
C369 C372 1.431 1_655 S
C369 C389 1.449 . S
C370 C369 1.258 . S
C370 C371 1.477 . S
C370 H390 0.931 . S
C371 C367 1.460 1_655 S
C371 C370 1.477 . S
C371 H391 0.930 . S
C372 N368 1.362 . S
C372 C369 1.431 1_455 S
C372 C382 1.476 . S
H373 C367 0.929 . S
C374 O365 1.250 . S
C374 O366 1.258 . S
O375 Mn360 2.162 . S
O375 C363 1.281 . S
O376 Mn360 2.297 . S
O376 C363 1.236 . S
N377 Mn361 2.282 . S
N377 C378 1.328 . S
N377 C382 1.318 . S
C378 N377 1.328 . S
C378 C379 1.457 . S
C378 H383 0.929 . S
C379 C378 1.457 . S
C379 C380 1.291 . S
C379 H392 0.931 . S
C380 C379 1.291 . S
C380 C381 1.373 . S
C380 H393 0.929 . S
C381 C380 1.373 . S
C381 C382 1.396 . S
C381 C388 1.403 1_455 S
C382 C372 1.476 . S
C382 N377 1.318 . S
C382 C381 1.396 . S
H383 C378 0.929 . S
O384 Mn360 2.385 . S
O384 C362 1.234 . S
O385 Mn360 2.209 . S
O385 Mn361 2.215 . S
O385 C362 1.283 . S
O386 Mn360 2.094 . S
O386 C364 1.240 . S
O387 Mn361 2.117 . S
O387 C364 1.264 . S
C388 C381 1.403 1_655 S
C388 C389 1.399 . S
C388 H394 0.929 . S
C389 C369 1.449 . S
C389 C388 1.399 . S
C389 H395 0.930 . S
H390 C370 0.931 . S
H391 C371 0.930 . S
H392 C379 0.931 . S
H393 C380 0.929 . S
H394 C388 0.929 . S
H395 C389 0.930 . S
Mn396 O401 2.095 . S
Mn396 O411 2.162 . S
Mn396 O412 2.297 . S
Mn396 O420 2.385 . S
Mn396 O421 2.209 . S
Mn396 O422 2.094 . S
Mn397 O402 2.121 . S
Mn397 N404 2.257 . S
Mn397 N413 2.282 . S
Mn397 O421 2.215 . S
Mn397 O423 2.117 . S
C398 O420 1.234 . S
C398 O421 1.283 . S
C399 O411 1.281 . S
C399 O412 1.236 . S
C400 O422 1.240 . S
C400 O423 1.264 . S
O401 Mn396 2.095 . S
O401 C410 1.250 . S
O402 Mn397 2.121 . S
O402 C410 1.258 . S
C403 N404 1.326 . S
C403 C407 1.460 1_545 S
C403 H409 0.929 . S
N404 Mn397 2.257 . S
N404 C403 1.326 . S
N404 C408 1.362 . S
C405 C406 1.258 . S
C405 C408 1.431 1_565 S
C405 C425 1.449 . S
C406 C405 1.258 . S
C406 C407 1.477 . S
C406 H426 0.931 . S
C407 C403 1.460 1_565 S
C407 C406 1.477 . S
C407 H427 0.930 . S
C408 N404 1.362 . S
C408 C405 1.431 1_545 S
C408 C418 1.476 . S
H409 C403 0.929 . S
C410 O401 1.250 . S
C410 O402 1.258 . S
O411 Mn396 2.162 . S
O411 C399 1.281 . S
O412 Mn396 2.297 . S
O412 C399 1.236 . S
N413 Mn397 2.282 . S
N413 C414 1.328 . S
N413 C418 1.318 . S
C414 N413 1.328 . S
C414 C415 1.457 . S
C414 H419 0.929 . S
C415 C414 1.457 . S
C415 C416 1.291 . S
C415 H428 0.931 . S
C416 C415 1.291 . S
C416 C417 1.373 . S
C416 H429 0.929 . S
C417 C416 1.373 . S
C417 C418 1.396 . S
C417 C424 1.403 1_545 S
C418 C408 1.476 . S
C418 N413 1.318 . S
C418 C417 1.396 . S
H419 C414 0.929 . S
O420 Mn396 2.385 . S
O420 C398 1.234 . S
O421 Mn396 2.209 . S
O421 Mn397 2.215 . S
O421 C398 1.283 . S
O422 Mn396 2.094 . S
O422 C400 1.240 . S
O423 Mn397 2.117 . S
O423 C400 1.264 . S
C424 C417 1.403 1_565 S
C424 C425 1.399 . S
C424 H430 0.929 . S
C425 C405 1.449 . S
C425 C424 1.399 . S
C425 H431 0.930 . S
H426 C406 0.931 . S
H427 C407 0.930 . S
H428 C415 0.931 . S
H429 C416 0.929 . S
H430 C424 0.929 . S
H431 C425 0.930 . S
Mn432 O437 2.095 . S
Mn432 O447 2.162 . S
Mn432 O448 2.297 . S
Mn432 O456 2.385 . S
Mn432 O457 2.209 . S
Mn432 O458 2.094 . S
Mn433 O438 2.121 . S
Mn433 N440 2.257 . S
Mn433 N449 2.282 . S
Mn433 O457 2.215 . S
Mn433 O459 2.117 . S
C434 O456 1.234 . S
C434 O457 1.283 . S
C435 O447 1.281 . S
C435 O448 1.236 . S
C436 O458 1.240 . S
C436 O459 1.264 . S
O437 Mn432 2.095 . S
O437 C446 1.250 . S
O438 Mn433 2.121 . S
O438 C446 1.258 . S
C439 N440 1.326 . S
C439 C443 1.460 1_655 S
C439 H445 0.929 . S
N440 Mn433 2.257 . S
N440 C439 1.326 . S
N440 C444 1.362 . S
C441 C442 1.258 . S
C441 C444 1.431 1_455 S
C441 C461 1.449 . S
C442 C441 1.258 . S
C442 C443 1.477 . S
C442 H462 0.931 . S
C443 C439 1.460 1_455 S
C443 C442 1.477 . S
C443 H463 0.930 . S
C444 N440 1.362 . S
C444 C441 1.431 1_655 S
C444 C454 1.476 . S
H445 C439 0.929 . S
C446 O437 1.250 . S
C446 O438 1.258 . S
O447 Mn432 2.162 . S
O447 C435 1.281 . S
O448 Mn432 2.297 . S
O448 C435 1.236 . S
N449 Mn433 2.282 . S
N449 C450 1.328 . S
N449 C454 1.318 . S
C450 N449 1.328 . S
C450 C451 1.457 . S
C450 H455 0.929 . S
C451 C450 1.457 . S
C451 C452 1.291 . S
C451 H464 0.931 . S
C452 C451 1.291 . S
C452 C453 1.373 . S
C452 H465 0.929 . S
C453 C452 1.373 . S
C453 C454 1.396 . S
C453 C460 1.403 1_655 S
C454 C444 1.476 . S
C454 N449 1.318 . S
C454 C453 1.396 . S
H455 C450 0.929 . S
O456 Mn432 2.385 . S
O456 C434 1.234 . S
O457 Mn432 2.209 . S
O457 Mn433 2.215 . S
O457 C434 1.283 . S
O458 Mn432 2.094 . S
O458 C436 1.240 . S
O459 Mn433 2.117 . S
O459 C436 1.264 . S
C460 C453 1.403 1_455 S
C460 C461 1.399 . S
C460 H466 0.929 . S
C461 C441 1.449 . S
C461 C460 1.399 . S
C461 H467 0.930 . S
H462 C442 0.931 . S
H463 C443 0.930 . S
H464 C451 0.931 . S
H465 C452 0.929 . S
H466 C460 0.929 . S
H467 C461 0.930 . S
Mn468 O473 2.095 . S
Mn468 O483 2.162 . S
Mn468 O484 2.297 . S
Mn468 O492 2.385 . S
Mn468 O493 2.209 . S
Mn468 O494 2.094 . S
Mn469 O474 2.121 . S
Mn469 N476 2.257 . S
Mn469 N485 2.282 . S
Mn469 O493 2.215 . S
Mn469 O495 2.117 . S
C470 O492 1.234 . S
C470 O493 1.283 . S
C471 O483 1.281 . S
C471 O484 1.236 . S
C472 O494 1.240 . S
C472 O495 1.264 . S
O473 Mn468 2.095 . S
O473 C482 1.250 . S
O474 Mn469 2.121 . S
O474 C482 1.258 . S
C475 N476 1.326 . S
C475 C479 1.460 1_565 S
C475 H481 0.929 . S
N476 Mn469 2.257 . S
N476 C475 1.326 . S
N476 C480 1.362 . S
C477 C478 1.258 . S
C477 C480 1.431 1_545 S
C477 C497 1.449 . S
C478 C477 1.258 . S
C478 C479 1.477 . S
C478 H498 0.931 . S
C479 C475 1.460 1_545 S
C479 C478 1.477 . S
C479 H499 0.930 . S
C480 N476 1.362 . S
C480 C477 1.431 1_565 S
C480 C490 1.476 . S
H481 C475 0.929 . S
C482 O473 1.250 . S
C482 O474 1.258 . S
O483 Mn468 2.162 . S
O483 C471 1.281 . S
O484 Mn468 2.297 . S
O484 C471 1.236 . S
N485 Mn469 2.282 . S
N485 C486 1.328 . S
N485 C490 1.318 . S
C486 N485 1.328 . S
C486 C487 1.457 . S
C486 H491 0.929 . S
C487 C486 1.457 . S
C487 C488 1.291 . S
C487 H500 0.931 . S
C488 C487 1.291 . S
C488 C489 1.373 . S
C488 H501 0.929 . S
C489 C488 1.373 . S
C489 C490 1.396 . S
C489 C496 1.403 1_565 S
C490 C480 1.476 . S
C490 N485 1.318 . S
C490 C489 1.396 . S
H491 C486 0.929 . S
O492 Mn468 2.385 . S
O492 C470 1.234 . S
O493 Mn468 2.209 . S
O493 Mn469 2.215 . S
O493 C470 1.283 . S
O494 Mn468 2.094 . S
O494 C472 1.240 . S
O495 Mn469 2.117 . S
O495 C472 1.264 . S
C496 C489 1.403 1_545 S
C496 C497 1.399 . S
C496 H502 0.929 . S
C497 C477 1.449 . S
C497 C496 1.399 . S
C497 H503 0.930 . S
H498 C478 0.931 . S
H499 C479 0.930 . S
H500 C487 0.931 . S
H501 C488 0.929 . S
H502 C496 0.929 . S
H503 C497 0.930 . S
Mn504 O509 2.095 . S
Mn504 O519 2.162 . S
Mn504 O520 2.297 . S
Mn504 O528 2.385 . S
Mn504 O529 2.209 . S
Mn504 O530 2.094 . S
Mn505 O510 2.121 . S
Mn505 N512 2.257 . S
Mn505 N521 2.282 . S
Mn505 O529 2.215 . S
Mn505 O531 2.117 . S
C506 O528 1.234 . S
C506 O529 1.283 . S
C507 O519 1.281 . S
C507 O520 1.236 . S
C508 O530 1.240 . S
C508 O531 1.264 . S
O509 Mn504 2.095 . S
O509 C518 1.250 . S
O510 Mn505 2.121 . S
O510 C518 1.258 . S
C511 N512 1.326 . S
C511 C515 1.460 1_455 S
C511 H517 0.929 . S
N512 Mn505 2.257 . S
N512 C511 1.326 . S
N512 C516 1.362 . S
C513 C514 1.258 . S
C513 C516 1.431 1_655 S
C513 C533 1.449 . S
C514 C513 1.258 . S
C514 C515 1.477 . S
C514 H534 0.931 . S
C515 C511 1.460 1_655 S
C515 C514 1.477 . S
C515 H535 0.930 . S
C516 N512 1.362 . S
C516 C513 1.431 1_455 S
C516 C526 1.476 . S
H517 C511 0.929 . S
C518 O509 1.250 . S
C518 O510 1.258 . S
O519 Mn504 2.162 . S
O519 C507 1.281 . S
O520 Mn504 2.297 . S
O520 C507 1.236 . S
N521 Mn505 2.282 . S
N521 C522 1.328 . S
N521 C526 1.318 . S
C522 N521 1.328 . S
C522 C523 1.457 . S
C522 H527 0.929 . S
C523 C522 1.457 . S
C523 C524 1.291 . S
C523 H536 0.931 . S
C524 C523 1.291 . S
C524 C525 1.373 . S
C524 H537 0.929 . S
C525 C524 1.373 . S
C525 C526 1.396 . S
C525 C532 1.403 1_455 S
C526 C516 1.476 . S
C526 N521 1.318 . S
C526 C525 1.396 . S
H527 C522 0.929 . S
O528 Mn504 2.385 . S
O528 C506 1.234 . S
O529 Mn504 2.209 . S
O529 Mn505 2.215 . S
O529 C506 1.283 . S
O530 Mn504 2.094 . S
O530 C508 1.240 . S
O531 Mn505 2.117 . S
O531 C508 1.264 . S
C532 C525 1.403 1_655 S
C532 C533 1.399 . S
C532 H538 0.929 . S
C533 C513 1.449 . S
C533 C532 1.399 . S
C533 H539 0.930 . S
H534 C514 0.931 . S
H535 C515 0.930 . S
H536 C523 0.931 . S
H537 C524 0.929 . S
H538 C532 0.929 . S
H539 C533 0.930 . S
Mn540 O545 2.095 . S
Mn540 O555 2.162 . S
Mn540 O556 2.297 . S
Mn540 O564 2.385 . S
Mn540 O565 2.209 . S
Mn540 O566 2.094 . S
Mn541 O546 2.121 . S
Mn541 N548 2.257 . S
Mn541 N557 2.282 . S
Mn541 O565 2.215 . S
Mn541 O567 2.117 . S
C542 O564 1.234 . S
C542 O565 1.283 . S
C543 O555 1.281 . S
C543 O556 1.236 . S
C544 O566 1.240 . S
C544 O567 1.264 . S
O545 Mn540 2.095 . S
O545 C554 1.250 . S
O546 Mn541 2.121 . S
O546 C554 1.258 . S
C547 N548 1.326 . S
C547 C551 1.460 1_545 S
C547 H553 0.929 . S
N548 Mn541 2.257 . S
N548 C547 1.326 . S
N548 C552 1.362 . S
C549 C550 1.258 . S
C549 C552 1.431 1_565 S
C549 C569 1.449 . S
C550 C549 1.258 . S
C550 C551 1.477 . S
C550 H570 0.931 . S
C551 C547 1.460 1_565 S
C551 C550 1.477 . S
C551 H571 0.930 . S
C552 N548 1.362 . S
C552 C549 1.431 1_545 S
C552 C562 1.476 . S
H553 C547 0.929 . S
C554 O545 1.250 . S
C554 O546 1.258 . S
O555 Mn540 2.162 . S
O555 C543 1.281 . S
O556 Mn540 2.297 . S
O556 C543 1.236 . S
N557 Mn541 2.282 . S
N557 C558 1.328 . S
N557 C562 1.318 . S
C558 N557 1.328 . S
C558 C559 1.457 . S
C558 H563 0.929 . S
C559 C558 1.457 . S
C559 C560 1.291 . S
C559 H572 0.931 . S
C560 C559 1.291 . S
C560 C561 1.373 . S
C560 H573 0.929 . S
C561 C560 1.373 . S
C561 C562 1.396 . S
C561 C568 1.403 1_545 S
C562 C552 1.476 . S
C562 N557 1.318 . S
C562 C561 1.396 . S
H563 C558 0.929 . S
O564 Mn540 2.385 . S
O564 C542 1.234 . S
O565 Mn540 2.209 . S
O565 Mn541 2.215 . S
O565 C542 1.283 . S
O566 Mn540 2.094 . S
O566 C544 1.240 . S
O567 Mn541 2.117 . S
O567 C544 1.264 . S
C568 C561 1.403 1_565 S
C568 C569 1.399 . S
C568 H574 0.929 . S
C569 C549 1.449 . S
C569 C568 1.399 . S
C569 H575 0.930 . S
H570 C550 0.931 . S
H571 C551 0.930 . S
H572 C559 0.931 . S
H573 C560 0.929 . S
H574 C568 0.929 . S
H575 C569 0.930 . S
C576 C577 1.369 . S
C576 C578 1.419 . S
C576 H580 0.930 . S
C577 C576 1.369 . S
C577 C586 1.429 . S
C578 C576 1.419 . S
C578 C579 1.363 . S
C578 H581 0.929 . S
C579 C578 1.363 . S
C579 C585 1.428 . S
H580 C576 0.930 . S
H581 C578 0.929 . S
S582 N583 1.613 . S
S582 N584 1.610 . S
N583 S582 1.613 . S
N583 C586 1.350 . S
N584 S582 1.610 . S
N584 C585 1.351 . S
C585 C579 1.428 . S
C585 N584 1.351 . S
C585 C586 1.434 . S
C586 C577 1.429 . S
C586 N583 1.350 . S
C586 C585 1.434 . S
C587 C588 1.369 . S
C587 C589 1.419 . S
C587 H591 0.930 . S
C588 C587 1.369 . S
C588 C597 1.429 . S
C589 C587 1.419 . S
C589 C590 1.363 . S
C589 H592 0.929 . S
C590 C589 1.363 . S
C590 C596 1.428 . S
H591 C587 0.930 . S
H592 C589 0.929 . S
S593 N594 1.613 . S
S593 N595 1.610 . S
N594 S593 1.613 . S
N594 C597 1.350 . S
N595 S593 1.610 . S
N595 C596 1.351 . S
C596 C590 1.428 . S
C596 N595 1.351 . S
C596 C597 1.434 . S
C597 C588 1.429 . S
C597 N594 1.350 . S
C597 C596 1.434 . S
C598 C599 1.369 . S
C598 C600 1.419 . S
C598 H602 0.930 . S
C599 C598 1.369 . S
C599 C608 1.429 . S
C600 C598 1.419 . S
C600 C601 1.363 . S
C600 H603 0.929 . S
C601 C600 1.363 . S
C601 C607 1.428 . S
H602 C598 0.930 . S
H603 C600 0.929 . S
S604 N605 1.613 . S
S604 N606 1.610 . S
N605 S604 1.613 . S
N605 C608 1.350 . S
N606 S604 1.610 . S
N606 C607 1.351 . S
C607 C601 1.428 . S
C607 N606 1.351 . S
C607 C608 1.434 . S
C608 C599 1.429 . S
C608 N605 1.350 . S
C608 C607 1.434 . S
C609 C610 1.369 . S
C609 C611 1.419 . S
C609 H613 0.930 . S
C610 C609 1.369 . S
C610 C619 1.429 . S
C611 C609 1.419 . S
C611 C612 1.363 . S
C611 H614 0.929 . S
C612 C611 1.363 . S
C612 C618 1.428 . S
H613 C609 0.930 . S
H614 C611 0.929 . S
S615 N616 1.613 . S
S615 N617 1.610 . S
N616 S615 1.613 . S
N616 C619 1.350 . S
N617 S615 1.610 . S
N617 C618 1.351 . S
C618 C612 1.428 . S
C618 N617 1.351 . S
C618 C619 1.434 . S
C619 C610 1.429 . S
C619 N616 1.350 . S
C619 C618 1.434 . S
C620 C621 1.369 . S
C620 C622 1.419 . S
C620 H624 0.930 . S
C621 C620 1.369 . S
C621 C630 1.429 . S
C622 C620 1.419 . S
C622 C623 1.363 . S
C622 H625 0.929 . S
C623 C622 1.363 . S
C623 C629 1.428 . S
H624 C620 0.930 . S
H625 C622 0.929 . S
S626 N627 1.613 . S
S626 N628 1.610 . S
N627 S626 1.613 . S
N627 C630 1.350 . S
N628 S626 1.610 . S
N628 C629 1.351 . S
C629 C623 1.428 . S
C629 N628 1.351 . S
C629 C630 1.434 . S
C630 C621 1.429 . S
C630 N627 1.350 . S
C630 C629 1.434 . S
C631 C632 1.369 . S
C631 C633 1.419 . S
C631 H635 0.930 . S
C632 C631 1.369 . S
C632 C641 1.429 . S
C633 C631 1.419 . S
C633 C634 1.363 . S
C633 H636 0.929 . S
C634 C633 1.363 . S
C634 C640 1.428 . S
H635 C631 0.930 . S
H636 C633 0.929 . S
S637 N638 1.613 . S
S637 N639 1.610 . S
N638 S637 1.613 . S
N638 C641 1.350 . S
N639 S637 1.610 . S
N639 C640 1.351 . S
C640 C634 1.428 . S
C640 N639 1.351 . S
C640 C641 1.434 . S
C641 C632 1.429 . S
C641 N638 1.350 . S
C641 C640 1.434 . S
C642 C643 1.369 . S
C642 C644 1.419 . S
C642 H646 0.930 . S
C643 C642 1.369 . S
C643 C652 1.429 . S
C644 C642 1.419 . S
C644 C645 1.363 . S
C644 H647 0.929 . S
C645 C644 1.363 . S
C645 C651 1.428 . S
H646 C642 0.930 . S
H647 C644 0.929 . S
S648 N649 1.613 . S
S648 N650 1.610 . S
N649 S648 1.613 . S
N649 C652 1.350 . S
N650 S648 1.610 . S
N650 C651 1.351 . S
C651 C645 1.428 . S
C651 N650 1.351 . S
C651 C652 1.434 . S
C652 C643 1.429 . S
C652 N649 1.350 . S
C652 C651 1.434 . S
C653 C654 1.369 . S
C653 C655 1.419 . S
C653 H657 0.930 . S
C654 C653 1.369 . S
C654 C663 1.429 . S
C655 C653 1.419 . S
C655 C656 1.363 . S
C655 H658 0.929 . S
C656 C655 1.363 . S
C656 C662 1.428 . S
H657 C653 0.930 . S
H658 C655 0.929 . S
S659 N660 1.613 . S
S659 N661 1.610 . S
N660 S659 1.613 . S
N660 C663 1.350 . S
N661 S659 1.610 . S
N661 C662 1.351 . S
C662 C656 1.428 . S
C662 N661 1.351 . S
C662 C663 1.434 . S
C663 C654 1.429 . S
C663 N660 1.350 . S
C663 C662 1.434 . S
C664 C665 1.369 . S
C664 C666 1.419 1_556 S
C664 H668 0.930 . S
C665 C664 1.369 . S
C665 C674 1.429 . S
C666 C664 1.419 1_554 S
C666 C667 1.363 . S
C666 H669 0.929 . S
C667 C666 1.363 . S
C667 C673 1.428 . S
H668 C664 0.930 . S
H669 C666 0.929 . S
S670 N671 1.613 1_554 S
S670 N672 1.610 . S
N671 S670 1.613 1_556 S
N671 C674 1.350 . S
N672 S670 1.610 . S
N672 C673 1.351 . S
C673 C667 1.428 . S
C673 N672 1.351 . S
C673 C674 1.434 1_554 S
C674 C665 1.429 . S
C674 N671 1.350 . S
C674 C673 1.434 1_556 S
C675 C676 1.369 . S
C675 C677 1.419 1_556 S
C675 H679 0.930 . S
C676 C675 1.369 . S
C676 C685 1.429 . S
C677 C675 1.419 1_554 S
C677 C678 1.363 . S
C677 H680 0.929 . S
C678 C677 1.363 . S
C678 C684 1.428 . S
H679 C675 0.930 . S
H680 C677 0.929 . S
S681 N682 1.613 . S
S681 N683 1.610 1_556 S
N682 S681 1.613 . S
N682 C685 1.350 . S
N683 S681 1.610 1_554 S
N683 C684 1.351 . S
C684 C678 1.428 . S
C684 N683 1.351 . S
C684 C685 1.434 1_554 S
C685 C676 1.429 . S
C685 N682 1.350 . S
C685 C684 1.434 1_556 S
C686 C687 1.369 . S
C686 C688 1.419 1_556 S
C686 H690 0.930 . S
C687 C686 1.369 . S
C687 C696 1.429 . S
C688 C686 1.419 1_554 S
C688 C689 1.363 . S
C688 H691 0.929 . S
C689 C688 1.363 . S
C689 C695 1.428 . S
H690 C686 0.930 . S
H691 C688 0.929 . S
S692 N693 1.613 1_554 S
S692 N694 1.610 . S
N693 S692 1.613 1_556 S
N693 C696 1.350 . S
N694 S692 1.610 . S
N694 C695 1.351 . S
C695 C689 1.428 . S
C695 N694 1.351 . S
C695 C696 1.434 1_554 S
C696 C687 1.429 . S
C696 N693 1.350 . S
C696 C695 1.434 1_556 S
C697 C698 1.369 . S
C697 C699 1.419 1_554 S
C697 H701 0.930 . S
C698 C697 1.369 . S
C698 C707 1.429 . S
C699 C697 1.419 1_556 S
C699 C700 1.363 . S
C699 H702 0.929 . S
C700 C699 1.363 . S
C700 C706 1.428 . S
H701 C697 0.930 . S
H702 C699 0.929 . S
S703 N704 1.613 1_556 S
S703 N705 1.610 . S
N704 S703 1.613 1_554 S
N704 C707 1.350 . S
N705 S703 1.610 . S
N705 C706 1.351 . S
C706 C700 1.428 . S
C706 N705 1.351 . S
C706 C707 1.434 1_556 S
C707 C698 1.429 . S
C707 N704 1.350 . S
C707 C706 1.434 1_554 S
C708 C709 1.369 . S
C708 C710 1.419 . S
C708 H712 0.930 . S
C709 C708 1.369 . S
C709 C718 1.429 . S
C710 C708 1.419 . S
C710 C711 1.363 . S
C710 H713 0.929 . S
C711 C710 1.363 . S
C711 C717 1.428 . S
H712 C708 0.930 . S
H713 C710 0.929 . S
S714 N715 1.613 . S
S714 N716 1.610 . S
N715 S714 1.613 . S
N715 C718 1.350 . S
N716 S714 1.610 . S
N716 C717 1.351 . S
C717 C711 1.428 . S
C717 N716 1.351 . S
C717 C718 1.434 . S
C718 C709 1.429 . S
C718 N715 1.350 . S
C718 C717 1.434 . S
C719 C720 1.369 . S
C719 C721 1.419 . S
C719 H723 0.930 . S
C720 C719 1.369 . S
C720 C729 1.429 . S
C721 C719 1.419 . S
C721 C722 1.363 . S
C721 H724 0.929 . S
C722 C721 1.363 . S
C722 C728 1.428 . S
H723 C719 0.930 . S
H724 C721 0.929 . S
S725 N726 1.613 . S
S725 N727 1.610 . S
N726 S725 1.613 . S
N726 C729 1.350 . S
N727 S725 1.610 . S
N727 C728 1.351 . S
C728 C722 1.428 . S
C728 N727 1.351 . S
C728 C729 1.434 . S
C729 C720 1.429 . S
C729 N726 1.350 . S
C729 C728 1.434 . S
C730 C731 1.369 . S
C730 C732 1.419 . S
C730 H734 0.930 . S
C731 C730 1.369 . S
C731 C740 1.429 . S
C732 C730 1.419 . S
C732 C733 1.363 . S
C732 H735 0.929 . S
C733 C732 1.363 . S
C733 C739 1.428 . S
H734 C730 0.930 . S
H735 C732 0.929 . S
S736 N737 1.613 . S
S736 N738 1.610 . S
N737 S736 1.613 . S
N737 C740 1.350 . S
N738 S736 1.610 . S
N738 C739 1.351 . S
C739 C733 1.428 . S
C739 N738 1.351 . S
C739 C740 1.434 . S
C740 C731 1.429 . S
C740 N737 1.350 . S
C740 C739 1.434 . S
C741 C742 1.369 . S
C741 C743 1.419 . S
C741 H745 0.930 . S
C742 C741 1.369 . S
C742 C751 1.429 . S
C743 C741 1.419 . S
C743 C744 1.363 . S
C743 H746 0.929 . S
C744 C743 1.363 . S
C744 C750 1.428 . S
H745 C741 0.930 . S
H746 C743 0.929 . S
S747 N748 1.613 . S
S747 N749 1.610 . S
N748 S747 1.613 . S
N748 C751 1.350 . S
N749 S747 1.610 . S
N749 C750 1.351 . S
C750 C744 1.428 . S
C750 N749 1.351 . S
C750 C751 1.434 . S
C751 C742 1.429 . S
C751 N748 1.350 . S
C751 C750 1.434 . S
C752 C753 1.369 . S
C752 C754 1.419 . S
C752 H756 0.930 . S
C753 C752 1.369 . S
C753 C762 1.429 . S
C754 C752 1.419 . S
C754 C755 1.363 . S
C754 H757 0.929 . S
C755 C754 1.363 . S
C755 C761 1.428 . S
H756 C752 0.930 . S
H757 C754 0.929 . S
S758 N759 1.613 . S
S758 N760 1.610 . S
N759 S758 1.613 . S
N759 C762 1.350 . S
N760 S758 1.610 . S
N760 C761 1.351 . S
C761 C755 1.428 . S
C761 N760 1.351 . S
C761 C762 1.434 . S
C762 C753 1.429 . S
C762 N759 1.350 . S
C762 C761 1.434 . S
C763 C764 1.369 . S
C763 C765 1.419 . S
C763 H767 0.930 . S
C764 C763 1.369 . S
C764 C773 1.429 . S
C765 C763 1.419 . S
C765 C766 1.363 . S
C765 H768 0.929 . S
C766 C765 1.363 . S
C766 C772 1.428 . S
H767 C763 0.930 . S
H768 C765 0.929 . S
S769 N770 1.613 . S
S769 N771 1.610 . S
N770 S769 1.613 . S
N770 C773 1.350 . S
N771 S769 1.610 . S
N771 C772 1.351 . S
C772 C766 1.428 . S
C772 N771 1.351 . S
C772 C773 1.434 . S
C773 C764 1.429 . S
C773 N770 1.350 . S
C773 C772 1.434 . S
C774 C775 1.369 . S
C774 C776 1.419 . S
C774 H778 0.930 . S
C775 C774 1.369 . S
C775 C784 1.429 . S
C776 C774 1.419 . S
C776 C777 1.363 . S
C776 H779 0.929 . S
C777 C776 1.363 . S
C777 C783 1.428 . S
H778 C774 0.930 . S
H779 C776 0.929 . S
S780 N781 1.613 . S
S780 N782 1.610 . S
N781 S780 1.613 . S
N781 C784 1.350 . S
N782 S780 1.610 . S
N782 C783 1.351 . S
C783 C777 1.428 . S
C783 N782 1.351 . S
C783 C784 1.434 . S
C784 C775 1.429 . S
C784 N781 1.350 . S
C784 C783 1.434 . S
C785 C786 1.369 . S
C785 C787 1.419 . S
C785 H789 0.930 . S
C786 C785 1.369 . S
C786 C795 1.429 . S
C787 C785 1.419 . S
C787 C788 1.363 . S
C787 H790 0.929 . S
C788 C787 1.363 . S
C788 C794 1.428 . S
H789 C785 0.930 . S
H790 C787 0.929 . S
S791 N792 1.613 . S
S791 N793 1.610 . S
N792 S791 1.613 . S
N792 C795 1.350 . S
N793 S791 1.610 . S
N793 C794 1.351 . S
C794 C788 1.428 . S
C794 N793 1.351 . S
C794 C795 1.434 . S
C795 C786 1.429 . S
C795 N792 1.350 . S
C795 C794 1.434 . S
C796 C797 1.369 . S
C796 C798 1.419 . S
C796 H800 0.930 . S
C797 C796 1.369 . S
C797 C806 1.429 . S
C798 C796 1.419 . S
C798 C799 1.363 . S
C798 H801 0.929 . S
C799 C798 1.363 . S
C799 C805 1.428 . S
H800 C796 0.930 . S
H801 C798 0.929 . S
S802 N803 1.613 . S
S802 N804 1.610 . S
N803 S802 1.613 . S
N803 C806 1.350 . S
N804 S802 1.610 . S
N804 C805 1.351 . S
C805 C799 1.428 . S
C805 N804 1.351 . S
C805 C806 1.434 . S
C806 C797 1.429 . S
C806 N803 1.350 . S
C806 C805 1.434 . S
C807 C808 1.369 . S
C807 C809 1.419 . S
C807 H811 0.930 . S
C808 C807 1.369 . S
C808 C817 1.429 . S
C809 C807 1.419 . S
C809 C810 1.363 . S
C809 H812 0.929 . S
C810 C809 1.363 . S
C810 C816 1.428 . S
H811 C807 0.930 . S
H812 C809 0.929 . S
S813 N814 1.613 . S
S813 N815 1.610 . S
N814 S813 1.613 . S
N814 C817 1.350 . S
N815 S813 1.610 . S
N815 C816 1.351 . S
C816 C810 1.428 . S
C816 N815 1.351 . S
C816 C817 1.434 . S
C817 C808 1.429 . S
C817 N814 1.350 . S
C817 C816 1.434 . S
C818 C819 1.369 . S
C818 C820 1.419 . S
C818 H822 0.930 . S
C819 C818 1.369 . S
C819 C828 1.429 . S
C820 C818 1.419 . S
C820 C821 1.363 . S
C820 H823 0.929 . S
C821 C820 1.363 . S
C821 C827 1.428 . S
H822 C818 0.930 . S
H823 C820 0.929 . S
S824 N825 1.613 . S
S824 N826 1.610 . S
N825 S824 1.613 . S
N825 C828 1.350 . S
N826 S824 1.610 . S
N826 C827 1.351 . S
C827 C821 1.428 . S
C827 N826 1.351 . S
C827 C828 1.434 . S
C828 C819 1.429 . S
C828 N825 1.350 . S
C828 C827 1.434 . S
C829 C830 1.369 . S
C829 C831 1.419 . S
C829 H833 0.930 . S
C830 C829 1.369 . S
C830 C839 1.429 . S
C831 C829 1.419 . S
C831 C832 1.363 . S
C831 H834 0.929 . S
C832 C831 1.363 . S
C832 C838 1.428 . S
H833 C829 0.930 . S
H834 C831 0.929 . S
S835 N836 1.613 . S
S835 N837 1.610 . S
N836 S835 1.613 . S
N836 C839 1.350 . S
N837 S835 1.610 . S
N837 C838 1.351 . S
C838 C832 1.428 . S
C838 N837 1.351 . S
C838 C839 1.434 . S
C839 C830 1.429 . S
C839 N836 1.350 . S
C839 C838 1.434 . S
C840 C841 1.369 . S
C840 C842 1.419 1_545 S
C840 H844 0.930 . S
C841 C840 1.369 . S
C841 C850 1.429 . S
C842 C840 1.419 1_565 S
C842 C843 1.363 . S
C842 H845 0.929 . S
C843 C842 1.363 . S
C843 C849 1.428 . S
H844 C840 0.930 . S
H845 C842 0.929 . S
S846 N847 1.613 . S
S846 N848 1.610 1_545 S
N847 S846 1.613 . S
N847 C850 1.350 . S
N848 S846 1.610 1_565 S
N848 C849 1.351 . S
C849 C843 1.428 . S
C849 N848 1.351 . S
C849 C850 1.434 1_565 S
C850 C841 1.429 . S
C850 N847 1.350 . S
C850 C849 1.434 1_545 S
C851 C852 1.369 . S
C851 C853 1.419 1_655 S
C851 H855 0.930 . S
C852 C851 1.369 . S
C852 C861 1.429 . S
C853 C851 1.419 1_455 S
C853 C854 1.363 . S
C853 H856 0.929 . S
C854 C853 1.363 . S
C854 C860 1.428 . S
H855 C851 0.930 . S
H856 C853 0.929 . S
S857 N858 1.613 . S
S857 N859 1.610 1_655 S
N858 S857 1.613 . S
N858 C861 1.350 . S
N859 S857 1.610 1_455 S
N859 C860 1.351 . S
C860 C854 1.428 . S
C860 N859 1.351 . S
C860 C861 1.434 1_455 S
C861 C852 1.429 . S
C861 N858 1.350 . S
C861 C860 1.434 1_655 S
C862 C863 1.369 . S
C862 C864 1.419 1_545 S
C862 H866 0.930 . S
C863 C862 1.369 . S
C863 C872 1.429 . S
C864 C862 1.419 1_565 S
C864 C865 1.363 . S
C864 H867 0.929 . S
C865 C864 1.363 . S
C865 C871 1.428 . S
H866 C862 0.930 . S
H867 C864 0.929 . S
S868 N869 1.613 1_565 S
S868 N870 1.610 . S
N869 S868 1.613 1_545 S
N869 C872 1.350 . S
N870 S868 1.610 . S
N870 C871 1.351 . S
C871 C865 1.428 . S
C871 N870 1.351 . S
C871 C872 1.434 1_565 S
C872 C863 1.429 . S
C872 N869 1.350 . S
C872 C871 1.434 1_545 S
C873 C874 1.369 . S
C873 C875 1.419 1_455 S
C873 H877 0.930 . S
C874 C873 1.369 . S
C874 C883 1.429 . S
C875 C873 1.419 1_655 S
C875 C876 1.363 . S
C875 H878 0.929 . S
C876 C875 1.363 . S
C876 C882 1.428 . S
H877 C873 0.930 . S
H878 C875 0.929 . S
S879 N880 1.613 . S
S879 N881 1.610 1_455 S
N880 S879 1.613 . S
N880 C883 1.350 . S
N881 S879 1.610 1_655 S
N881 C882 1.351 . S
C882 C876 1.428 . S
C882 N881 1.351 . S
C882 C883 1.434 1_655 S
C883 C874 1.429 . S
C883 N880 1.350 . S
C883 C882 1.434 1_455 S
C884 C885 1.369 . S
C884 C886 1.419 1_545 S
C884 H888 0.930 . S
C885 C884 1.369 . S
C885 C894 1.429 . S
C886 C884 1.419 1_565 S
C886 C887 1.363 . S
C886 H889 0.929 . S
C887 C886 1.363 . S
C887 C893 1.428 . S
H888 C884 0.930 . S
H889 C886 0.929 . S
S890 N891 1.613 . S
S890 N892 1.610 1_545 S
N891 S890 1.613 . S
N891 C894 1.350 . S
N892 S890 1.610 1_565 S
N892 C893 1.351 . S
C893 C887 1.428 . S
C893 N892 1.351 . S
C893 C894 1.434 1_565 S
C894 C885 1.429 . S
C894 N891 1.350 . S
C894 C893 1.434 1_545 S
C895 C896 1.369 . S
C895 C897 1.419 1_655 S
C895 H899 0.930 . S
C896 C895 1.369 . S
C896 C905 1.429 . S
C897 C895 1.419 1_455 S
C897 C898 1.363 . S
C897 H900 0.929 . S
C898 C897 1.363 . S
C898 C904 1.428 . S
H899 C895 0.930 . S
H900 C897 0.929 . S
S901 N902 1.613 . S
S901 N903 1.610 1_655 S
N902 S901 1.613 . S
N902 C905 1.350 . S
N903 S901 1.610 1_455 S
N903 C904 1.351 . S
C904 C898 1.428 . S
C904 N903 1.351 . S
C904 C905 1.434 1_455 S
C905 C896 1.429 . S
C905 N902 1.350 . S
C905 C904 1.434 1_655 S
C906 C907 1.369 . S
C906 C908 1.419 1_565 S
C906 H910 0.930 . S
C907 C906 1.369 . S
C907 C916 1.429 . S
C908 C906 1.419 1_545 S
C908 C909 1.363 . S
C908 H911 0.929 . S
C909 C908 1.363 . S
C909 C915 1.428 . S
H910 C906 0.930 . S
H911 C908 0.929 . S
S912 N913 1.613 1_545 S
S912 N914 1.610 . S
N913 S912 1.613 1_565 S
N913 C916 1.350 . S
N914 S912 1.610 . S
N914 C915 1.351 . S
C915 C909 1.428 . S
C915 N914 1.351 . S
C915 C916 1.434 1_545 S
C916 C907 1.429 . S
C916 N913 1.350 . S
C916 C915 1.434 1_565 S
C917 C918 1.369 . S
C917 C919 1.419 1_455 S
C917 H921 0.930 . S
C918 C917 1.369 . S
C918 C927 1.429 . S
C919 C917 1.419 1_655 S
C919 C920 1.363 . S
C919 H922 0.929 . S
C920 C919 1.363 . S
C920 C926 1.428 . S
H921 C917 0.930 . S
H922 C919 0.929 . S
S923 N924 1.613 1_655 S
S923 N925 1.610 . S
N924 S923 1.613 1_455 S
N924 C927 1.350 . S
N925 S923 1.610 . S
N925 C926 1.351 . S
C926 C920 1.428 . S
C926 N925 1.351 . S
C926 C927 1.434 1_655 S
C927 C918 1.429 . S
C927 N924 1.350 . S
C927 C926 1.434 1_455 S
C577 C184 1.442 . S
C579 C4 1.442 . S
C588 C220 1.441 . S
C590 C40 1.442 . S
C599 C76 1.441 . S
C601 C256 1.442 . S
C610 C112 1.441 . S
C612 C148 1.442 . S
C621 C472 1.441 . S
C623 C292 1.441 . S
C632 C508 1.442 . S
C634 C328 1.442 . S
C643 C364 1.442 . S
C645 C544 1.441 . S
C654 C400 1.441 . S
C656 C436 1.441 . S
C665 C374 1.494 . S
C667 C14 1.494 . S
C676 C410 1.496 . S
C678 C50 1.492 . S
C687 C302 1.490 . S
C689 C86 1.495 . S
C698 C122 1.491 . S
C700 C338 1.495 . S
C709 C518 1.496 . S
C711 C158 1.492 . S
C720 C554 1.490 . S
C722 C194 1.495 . S
C731 C230 1.490 . S
C733 C446 1.495 . S
C742 C482 1.490 . S
C744 C266 1.495 . S
C753 C146 1.223 . S
C755 C2 1.224 . S
C764 C38 1.219 . S
C766 C182 1.221 . S
C775 C74 1.220 . S
C777 C218 1.219 . S
C786 C254 1.221 . S
C788 C110 1.223 . S
C797 C291 1.660 . S
C799 C435 1.658 . S
C808 C471 1.659 . S
C810 C327 1.659 . S
C819 C363 1.659 . S
C821 C507 1.659 . S
C830 C543 1.658 . S
C832 C399 1.660 . S
C841 C398 1.222 . S
C843 C470 1.223 . S
C852 C290 1.220 . S
C854 C506 1.222 . S
C863 C542 1.224 . S
C865 C326 1.222 . S
C874 C362 1.219 . S
C876 C434 1.221 . S
C885 C183 1.659 . S
C887 C111 1.659 . S
C896 C219 1.658 . S
C898 C3 1.660 . S
C907 C255 1.660 . S
C909 C39 1.659 . S
C918 C147 1.660 . S
C920 C75 1.658 . S
