# Generated by pormake.
# Topology wkd, (5)-cn, num edge types: 1
# Building blocks:
#     Node 0, Type 0, BuildingBlock: BEQFEK_clean_sbu_0, # of connection points: 5
#     Node 1, Type 0, BuildingBlock: BEQFEK_clean_sbu_0, # of connection points: 5
#     Node 2, Type 0, BuildingBlock: BEQFEK_clean_sbu_0, # of connection points: 5
#     Node 3, Type 0, BuildingBlock: BEQFEK_clean_sbu_0, # of connection points: 5
#     Node 4, Type 0, BuildingBlock: BEQFEK_clean_sbu_0, # of connection points: 5
#     Node 5, Type 0, BuildingBlock: BEQFEK_clean_sbu_0, # of connection points: 5
#     Node 6, Type 0, BuildingBlock: BEQFEK_clean_sbu_0, # of connection points: 5
#     Node 7, Type 0, BuildingBlock: BEQFEK_clean_sbu_0, # of connection points: 5
#     Node 8, Type 0, BuildingBlock: BEQFEK_clean_sbu_0, # of connection points: 5
#     Node 9, Type 0, BuildingBlock: BEQFEK_clean_sbu_0, # of connection points: 5
#     Node 10, Type 0, BuildingBlock: BEQFEK_clean_sbu_0, # of connection points: 5
#     Node 11, Type 0, BuildingBlock: BEQFEK_clean_sbu_0, # of connection points: 5
#     Edge 12, Type (0, 0), BuildingBlock: TEMPAE_clean_linker_10, # of connection points: 2
#     Edge 13, Type (0, 0), BuildingBlock: TEMPAE_clean_linker_10, # of connection points: 2
#     Edge 14, Type (0, 0), BuildingBlock: TEMPAE_clean_linker_10, # of connection points: 2
#     Edge 15, Type (0, 0), BuildingBlock: TEMPAE_clean_linker_10, # of connection points: 2
#     Edge 16, Type (0, 0), BuildingBlock: TEMPAE_clean_linker_10, # of connection points: 2
#     Edge 17, Type (0, 0), BuildingBlock: TEMPAE_clean_linker_10, # of connection points: 2
#     Edge 18, Type (0, 0), BuildingBlock: TEMPAE_clean_linker_10, # of connection points: 2
#     Edge 19, Type (0, 0), BuildingBlock: TEMPAE_clean_linker_10, # of connection points: 2
#     Edge 20, Type (0, 0), BuildingBlock: TEMPAE_clean_linker_10, # of connection points: 2
#     Edge 21, Type (0, 0), BuildingBlock: TEMPAE_clean_linker_10, # of connection points: 2
#     Edge 22, Type (0, 0), BuildingBlock: TEMPAE_clean_linker_10, # of connection points: 2
#     Edge 23, Type (0, 0), BuildingBlock: TEMPAE_clean_linker_10, # of connection points: 2
#     Edge 24, Type (0, 0), BuildingBlock: TEMPAE_clean_linker_10, # of connection points: 2
#     Edge 25, Type (0, 0), BuildingBlock: TEMPAE_clean_linker_10, # of connection points: 2
#     Edge 26, Type (0, 0), BuildingBlock: TEMPAE_clean_linker_10, # of connection points: 2
#     Edge 27, Type (0, 0), BuildingBlock: TEMPAE_clean_linker_10, # of connection points: 2
#     Edge 28, Type (0, 0), BuildingBlock: TEMPAE_clean_linker_10, # of connection points: 2
#     Edge 29, Type (0, 0), BuildingBlock: TEMPAE_clean_linker_10, # of connection points: 2
#     Edge 30, Type (0, 0), BuildingBlock: TEMPAE_clean_linker_10, # of connection points: 2
#     Edge 31, Type (0, 0), BuildingBlock: TEMPAE_clean_linker_10, # of connection points: 2
#     Edge 32, Type (0, 0), BuildingBlock: TEMPAE_clean_linker_10, # of connection points: 2
#     Edge 33, Type (0, 0), BuildingBlock: TEMPAE_clean_linker_10, # of connection points: 2
#     Edge 34, Type (0, 0), BuildingBlock: TEMPAE_clean_linker_10, # of connection points: 2
#     Edge 35, Type (0, 0), BuildingBlock: TEMPAE_clean_linker_10, # of connection points: 2
#     Edge 36, Type (0, 0), BuildingBlock: TEMPAE_clean_linker_10, # of connection points: 2
#     Edge 37, Type (0, 0), BuildingBlock: TEMPAE_clean_linker_10, # of connection points: 2
#     Edge 38, Type (0, 0), BuildingBlock: TEMPAE_clean_linker_10, # of connection points: 2
#     Edge 39, Type (0, 0), BuildingBlock: TEMPAE_clean_linker_10, # of connection points: 2
#     Edge 40, Type (0, 0), BuildingBlock: TEMPAE_clean_linker_10, # of connection points: 2
#     Edge 41, Type (0, 0), BuildingBlock: TEMPAE_clean_linker_10, # of connection points: 2
# Relax obj value: 0.045
# Max RMSD: 0.099
# Mean RMSD: 0.099
data_MOF--net-wkd--node1-BEQFEK_clean_sbu_0--edge1-TEMPAE_clean_linker_10
_symmetry_space_group_name_H-M    P1
_symmetry_Int_Tables_number       1
_symmetry_cell_setting            triclinic
loop_
_symmetry_equiv_pos_as_xyz
'x, y, z'
_cell_length_a     24.200458
_cell_length_b     24.195259
_cell_length_c     138.07767
_cell_angle_alpha  90.008867
_cell_angle_beta   90.00377
_cell_angle_gamma 119.93637
loop_
_atom_site_label
_atom_site_type_symbol
_atom_site_fract_x
_atom_site_fract_y
_atom_site_fract_z
_atom_type_partial_charge
Co0 Co 0.9636 0.33394 0.04672 0.0
Co1 Co 0.02316 0.26744 0.05907 0.0
C2 C 0.92229 0.19585 0.044 0.0
O3 O 0.91796 0.2448 0.04191 0.0
O4 O 0.96065 0.19816 0.05052 0.0
C5 C 0.90088 0.36817 0.03236 0.0
O6 O 0.90281 0.32273 0.02743 0.0
C7 C 0.02494 0.18127 0.0741 0.0
C8 C 0.12848 0.21911 0.07581 0.0
C9 C 0.06955 0.17256 0.0792 0.0
N10 N 0.0563 0.2311 0.06806 0.0
N11 N 0.11814 0.25334 0.06911 0.0
C12 C 0.95386 0.14071 0.0745 0.0
H13 H 0.93169 0.1485 0.068 0.0
H14 H 0.93552 0.15335 0.08099 0.0
H15 H 0.93988 0.0896 0.07508 0.0
C16 C 0.94318 0.37038 0.06628 0.0
N17 N 0.96093 0.33747 0.06042 0.0
N18 N 0.98659 0.31064 0.06567 0.0
C19 C 0.98662 0.32642 0.07505 0.0
C20 C 0.95863 0.3643 0.07574 0.0
C21 C 0.91448 0.40904 0.06278 0.0
H22 H 0.8739 0.37958 0.05789 0.0
H23 H 0.89748 0.42652 0.06888 0.0
H24 H 0.95067 0.45034 0.05856 0.0
O25 O 0.05352 0.37633 0.04225 0.0
O26 O 0.09557 0.32953 0.05101 0.0
H27 H 0.06646 0.31938 0.08026 0.0
H28 H 0.03044 0.34561 0.08926 0.0
C29 C 0.02068 0.3133 0.08299 0.0
H30 H 0.99071 0.26352 0.08551 0.0
H31 H 0.15337 0.29193 0.06525 0.0
O32 O 0.92403 0.3809 0.04087 0.0
C33 C 0.10086 0.36977 0.0446 0.0
Co34 Co 0.6318 0.96549 0.21281 0.0
Co35 Co 0.75445 0.01574 0.22564 0.0
C36 C 0.72486 0.91651 0.21076 0.0
O37 O 0.6738 0.91648 0.20845 0.0
O38 O 0.76116 0.95278 0.21742 0.0
C39 C 0.50038 0.87444 0.2077 0.0
O40 O 0.50211 0.83937 0.21482 0.0
C41 C 0.84748 0.01976 0.23993 0.0
C42 C 0.89428 0.12062 0.24456 0.0
C43 C 0.89367 0.06382 0.24611 0.0
N44 N 0.82145 0.04917 0.23501 0.0
N45 N 0.84996 0.10949 0.23778 0.0
C46 C 0.83054 0.95192 0.2383 0.0
H47 H 0.78131 0.92373 0.23543 0.0
H48 H 0.83524 0.92989 0.24506 0.0
H49 H 0.86381 0.95086 0.23287 0.0
C50 C 0.57429 0.95587 0.23241 0.0
N51 N 0.62283 0.96516 0.22654 0.0
N52 N 0.67336 0.97972 0.23187 0.0
C53 C 0.65748 0.97582 0.2413 0.0
C54 C 0.59431 0.96167 0.24202 0.0
C55 C 0.5139 0.95179 0.22885 0.0
H56 H 0.52088 0.97293 0.22152 0.0
H57 H 0.47571 0.90108 0.22853 0.0
H58 H 0.49819 0.97724 0.23384 0.0
O59 O 0.68241 0.054 0.20835 0.0
O60 O 0.76913 0.09023 0.21746 0.0
H61 H 0.73612 0.03388 0.25063 0.0
H62 H 0.67502 0.96115 0.25623 0.0
C63 C 0.70143 0.98262 0.24943 0.0
H64 H 0.72795 0.95794 0.24751 0.0
H65 H 0.83871 0.14301 0.2351 0.0
O66 O 0.54892 0.92836 0.20591 0.0
C67 C 0.73698 0.09885 0.21092 0.0
Co68 Co 0.66643 0.62908 0.38042 0.0
Co69 Co 0.73433 0.75467 0.39279 0.0
C70 C 0.80587 0.72404 0.37798 0.0
O71 O 0.75615 0.67173 0.37575 0.0
O72 O 0.80418 0.76037 0.38452 0.0
C73 C 0.6322 0.53111 0.36619 0.0
O74 O 0.67995 0.57704 0.3614 0.0
C75 C 0.82121 0.84346 0.40755 0.0
C76 C 0.77427 0.89939 0.41099 0.0
C77 C 0.82558 0.89186 0.41352 0.0
N78 N 0.76954 0.82337 0.40186 0.0
N79 N 0.74214 0.85748 0.40388 0.0
C80 C 0.8617 0.81278 0.40773 0.0
H81 H 0.8352 0.76394 0.40464 0.0
H82 H 0.87701 0.8108 0.41524 0.0
H83 H 0.90481 0.84135 0.40324 0.0
C84 C 0.63093 0.57188 0.40001 0.0
N85 N 0.6626 0.62255 0.39412 0.0
N86 N 0.6904 0.67494 0.39937 0.0
C87 C 0.67685 0.65914 0.40879 0.0
C88 C 0.63905 0.59333 0.40951 0.0
C89 C 0.59287 0.50447 0.39654 0.0
H90 H 0.62212 0.49411 0.39147 0.0
H91 H 0.577 0.47002 0.40263 0.0
H92 H 0.55057 0.49852 0.3925 0.0
O93 O 0.62488 0.67748 0.37593 0.0
O94 O 0.67375 0.76655 0.38458 0.0
H95 H 0.6656 0.68372 0.42349 0.0
H96 H 0.74497 0.72771 0.41857 0.0
C97 C 0.6936 0.70634 0.41685 0.0
H98 H 0.68434 0.74486 0.41457 0.0
H99 H 0.70057 0.85106 0.40057 0.0
O100 O 0.61842 0.54277 0.37454 0.0
C101 C 0.63292 0.73205 0.37821 0.0
Co102 Co 0.04141 0.66539 0.54728 0.0
Co103 Co 0.97762 0.73165 0.55865 0.0
C104 C 0.08153 0.80269 0.54398 0.0
O105 O 0.08651 0.75379 0.54214 0.0
O106 O 0.0421 0.80058 0.55029 0.0
C107 C 0.10033 0.62731 0.53311 0.0
O108 O 0.09299 0.66857 0.52788 0.0
C109 C 0.9742 0.81876 0.5733 0.0
C110 C 0.87063 0.78164 0.5747 0.0
C111 C 0.92934 0.82804 0.57821 0.0
N112 N 0.94323 0.76873 0.56727 0.0
N113 N 0.88137 0.74695 0.56814 0.0
C114 C 0.0453 0.85874 0.5739 0.0
H115 H 0.06272 0.84447 0.58032 0.0
H116 H 0.05974 0.90985 0.57471 0.0
H117 H 0.068 0.85194 0.56739 0.0
C118 C 0.06065 0.63351 0.56718 0.0
N119 N 0.04234 0.66422 0.56096 0.0
N120 N 0.01265 0.68873 0.56577 0.0
C121 C 0.00958 0.67263 0.5752 0.0
C122 C 0.0407 0.63802 0.5764 0.0
C123 C 0.09054 0.59502 0.56416 0.0
H124 H 0.05619 0.55431 0.55965 0.0
H125 H 0.13318 0.6249 0.55964 0.0
H126 H 0.10447 0.57656 0.5705 0.0
O127 O 0.95191 0.62053 0.54263 0.0
O128 O 0.90757 0.67015 0.55015 0.0
H129 H 0.92658 0.67614 0.57973 0.0
H130 H 0.96368 0.65443 0.58923 0.0
C131 C 0.97269 0.68494 0.58276 0.0
H132 H 1.0003 0.73539 0.58508 0.0
H133 H 0.84641 0.70827 0.56425 0.0
O134 O 0.08222 0.61853 0.54189 0.0
C135 C 0.90431 0.62814 0.54424 0.0
Co136 Co 0.3642 0.02881 0.71355 0.0
Co137 Co 0.23985 0.97492 0.72615 0.0
C138 C 0.26573 0.07108 0.71093 0.0
O139 O 0.31802 0.07307 0.7088 0.0
O140 O 0.22992 0.03508 0.71767 0.0
C141 C 0.46165 0.09596 0.69926 0.0
O142 O 0.41487 0.09574 0.6944 0.0
C143 C 0.14023 0.96246 0.73994 0.0
C144 C 0.11918 0.87319 0.74741 0.0
C145 C 0.10512 0.92205 0.74746 0.0
N146 N 0.17408 0.93873 0.73571 0.0
N147 N 0.16031 0.88482 0.7401 0.0
C148 C 0.14694 0.02578 0.7375 0.0
H149 H 0.19569 0.05879 0.73477 0.0
H150 H 0.13678 0.04705 0.7439 0.0
H151 H 0.11244 0.01906 0.73169 0.0
C152 C 0.42183 0.04813 0.73316 0.0
N153 N 0.37187 0.03235 0.72723 0.0
N154 N 0.32056 0.01555 0.73246 0.0
C155 C 0.33688 0.02362 0.7419 0.0
C156 C 0.40148 0.04331 0.74273 0.0
C157 C 0.48551 0.06023 0.72966 0.0
H158 H 0.47979 0.03249 0.72298 0.0
H159 H 0.51585 0.11167 0.72797 0.0
H160 H 0.50978 0.04671 0.73521 0.0
O161 O 0.3179 0.93912 0.70929 0.0
O162 O 0.22981 0.90162 0.71813 0.0
H163 H 0.26262 0.96514 0.75185 0.0
H164 H 0.31849 0.04334 0.75647 0.0
C165 C 0.29218 0.01629 0.74994 0.0
H166 H 0.26042 0.03437 0.74758 0.0
H167 H 0.1812 0.85736 0.73837 0.0
O168 O 0.45044 0.07032 0.70759 0.0
C169 C 0.26356 0.89348 0.71181 0.0
Co170 Co 0.33313 0.37583 0.87965 0.0
Co171 Co 0.26632 0.25168 0.8923 0.0
C172 C 0.19267 0.28024 0.8778 0.0
O173 O 0.24241 0.33194 0.87536 0.0
O174 O 0.19482 0.24463 0.88441 0.0
C175 C 0.36665 0.50355 0.87309 0.0
O176 O 0.32177 0.4994 0.8789 0.0
C177 C 0.18069 0.16148 0.9071 0.0
C178 C 0.23332 0.11211 0.91115 0.0
C179 C 0.17912 0.11546 0.91332 0.0
N180 N 0.23359 0.1843 0.90161 0.0
N181 N 0.26437 0.15404 0.90401 0.0
C182 C 0.13624 0.18764 0.90687 0.0
H183 H 0.16056 0.23654 0.90379 0.0
H184 H 0.1185 0.18835 0.91426 0.0
H185 H 0.09485 0.15684 0.90219 0.0
C186 C 0.37622 0.43516 0.89917 0.0
N187 N 0.34113 0.38483 0.89333 0.0
N188 N 0.31162 0.33277 0.89865 0.0
C189 C 0.32577 0.34888 0.90806 0.0
C190 C 0.36669 0.41409 0.90867 0.0
C191 C 0.42124 0.50137 0.89571 0.0
H192 H 0.44401 0.49975 0.88884 0.0
H193 H 0.39429 0.52664 0.89444 0.0
H194 H 0.45868 0.52881 0.90118 0.0
O195 O 0.37409 0.32767 0.87527 0.0
O196 O 0.32449 0.23759 0.88369 0.0
H197 H 0.31916 0.26585 0.91468 0.0
H198 H 0.32766 0.32612 0.92321 0.0
C199 C 0.30549 0.30233 0.91626 0.0
H200 H 0.25298 0.27813 0.91704 0.0
H201 H 0.30746 0.16315 0.90091 0.0
O202 O 0.37852 0.45809 0.87265 0.0
C203 C 0.3654 0.2728 0.87739 0.0
Co204 Co 0.66019 0.03691 0.83289 0.0
Co205 Co 0.73332 0.98626 0.8202 0.0
C206 C 0.80187 0.08174 0.83545 0.0
O207 O 0.75062 0.08168 0.83766 0.0
O208 O 0.80305 0.04722 0.82858 0.0
C209 C 0.62176 0.12952 0.83821 0.0
O210 O 0.65941 0.16547 0.83123 0.0
C211 C 0.81949 0.97063 0.80629 0.0
C212 C 0.74838 0.88393 0.79862 0.0
C213 C 0.81242 0.92997 0.79863 0.0
N214 N 0.76187 0.95016 0.81037 0.0
N215 N 0.71997 0.89785 0.80581 0.0
C216 C 0.87976 0.02638 0.80995 0.0
H217 H 0.87714 0.03073 0.81789 0.0
H218 H 0.88604 0.07071 0.80655 0.0
H219 H 0.92167 0.02104 0.80826 0.0
C220 C 0.61874 0.05338 0.81321 0.0
N221 N 0.65504 0.04079 0.81922 0.0
N222 N 0.6917 0.02641 0.81404 0.0
C223 C 0.68373 0.03444 0.80459 0.0
C224 C 0.63607 0.05041 0.80367 0.0
C225 C 0.56212 0.05789 0.81649 0.0
H226 H 0.54592 0.03562 0.82371 0.0
H227 H 0.57514 0.10874 0.81693 0.0
H228 H 0.52224 0.03375 0.81125 0.0
O229 O 0.61769 0.94744 0.83677 0.0
O230 O 0.67222 0.91203 0.82839 0.0
H231 H 0.70398 0.98093 0.79426 0.0
H232 H 0.72614 0.06045 0.79035 0.0
C233 C 0.72415 0.03107 0.79666 0.0
H234 H 0.77331 0.04869 0.79934 0.0
H235 H 0.67141 0.87258 0.80746 0.0
O236 O 0.61555 0.07504 0.83981 0.0
C237 C 0.62873 0.90312 0.83444 0.0
Co238 Co 0.63007 0.66612 0.99886 0.0
Co239 Co 0.75509 0.73323 0.98632 0.0
C240 C 0.7273 0.80502 1.00142 0.0
O241 O 0.67477 0.75558 1.00365 0.0
O242 O 0.76278 0.8033 0.99475 0.0
C243 C 0.52992 0.63708 0.01264 0.0
O244 O 0.57371 0.6889 0.01696 0.0
C245 C 0.84388 0.81978 0.97153 0.0
C246 C 0.89778 0.77114 0.96782 0.0
C247 C 0.89138 0.82335 0.96544 0.0
N248 N 0.8232 0.76771 0.97715 0.0
N249 N 0.8561 0.73928 0.97496 0.0
C250 C 0.81452 0.86147 0.97154 0.0
H251 H 0.76585 0.83565 0.97469 0.0
H252 H 0.81244 0.87737 0.96407 0.0
H253 H 0.84404 0.90421 0.97606 0.0
C254 C 0.57176 0.63143 0.97935 0.0
N255 N 0.62281 0.66301 0.98518 0.0
N256 N 0.67487 0.69062 0.97986 0.0
C257 C 0.65843 0.67711 0.97045 0.0
C258 C 0.59257 0.63947 0.96982 0.0
C259 C 0.50464 0.59297 0.98292 0.0
H260 H 0.4941 0.62233 0.98794 0.0
H261 H 0.46982 0.57624 0.97687 0.0
H262 H 0.49946 0.55123 0.98703 0.0
O263 O 0.67738 0.623 1.00312 0.0
O264 O 0.76611 0.67149 0.99439 0.0
H265 H 0.68173 0.66636 0.95564 0.0
H266 H 0.7276 0.74511 0.96073 0.0
C267 C 0.70506 0.69345 0.96233 0.0
H268 H 0.7428 0.68271 0.96447 0.0
H269 H 0.84901 0.69722 0.97819 0.0
O270 O 0.54382 0.61912 0.00481 0.0
C271 C 0.73155 0.63048 1.00073 0.0
Co272 Co 0.96553 0.62812 0.16538 0.0
Co273 Co 0.02538 0.75676 0.1537 0.0
C274 C 0.92095 0.72248 0.16829 0.0
O275 O 0.91773 0.66953 0.17027 0.0
O276 O 0.95995 0.76002 0.16196 0.0
C277 C 0.90535 0.53051 0.17952 0.0
O278 O 0.90652 0.57736 0.1845 0.0
C279 C 0.02673 0.84581 0.13892 0.0
C280 C 0.13007 0.91287 0.1374 0.0
C281 C 0.07101 0.89986 0.13395 0.0
N282 N 0.05838 0.82748 0.14495 0.0
N283 N 0.12009 0.86793 0.14401 0.0
C284 C 0.95557 0.81438 0.13841 0.0
H285 H 0.93323 0.78332 0.14479 0.0
H286 H 0.93808 0.78438 0.13182 0.0
H287 H 0.94081 0.851 0.13796 0.0
C288 C 0.94796 0.57528 0.14563 0.0
N289 N 0.96507 0.6247 0.15171 0.0
N290 N 0.99148 0.67826 0.14673 0.0
C291 C 0.99246 0.66432 0.13728 0.0
C292 C 0.96426 0.59871 0.13629 0.0
C293 C 0.92026 0.50745 0.1488 0.0
H294 H 0.95569 0.5029 0.15333 0.0
H295 H 0.87754 0.49387 0.15335 0.0
H296 H 0.9069 0.47456 0.14253 0.0
O297 O 0.05458 0.67531 0.17006 0.0
O298 O 0.09657 0.76796 0.16225 0.0
H299 H 0.07172 0.75209 0.13225 0.0
H300 H 0.0353 0.69106 0.12305 0.0
C301 C 0.02594 0.7127 0.12948 0.0
H302 H 0.99563 0.73266 0.12718 0.0
H303 H 0.15549 0.86481 0.14787 0.0
O304 O 0.92741 0.54116 0.17095 0.0
C305 C 0.10119 0.73076 0.16831 0.0
Co306 Co 0.33573 0.96481 0.33243 0.0
Co307 Co 0.26298 0.01868 0.32039 0.0
C308 C 0.1951 0.91871 0.33532 0.0
O309 O 0.24575 0.91707 0.3373 0.0
O310 O 0.19485 0.95583 0.32882 0.0
C311 C 0.37089 0.9021 0.34666 0.0
O312 O 0.3263 0.90483 0.35171 0.0
C313 C 0.17179 0.02283 0.30666 0.0
C314 C 0.22322 0.12417 0.30225 0.0
C315 C 0.16784 0.06676 0.30067 0.0
N316 N 0.22749 0.05285 0.31147 0.0
N317 N 0.25771 0.1135 0.30886 0.0
C318 C 0.12257 0.95426 0.30814 0.0
H319 H 0.14528 0.92679 0.31069 0.0
H320 H 0.09513 0.93268 0.30143 0.0
H321 H 0.08862 0.95136 0.31379 0.0
C322 C 0.37664 0.9526 0.31262 0.0
N323 N 0.34025 0.96457 0.31869 0.0
N324 N 0.30567 0.98219 0.31362 0.0
C325 C 0.31644 0.97881 0.30411 0.0
C326 C 0.36275 0.96097 0.30311 0.0
C327 C 0.42909 0.94143 0.31599 0.0
H328 H 0.44975 0.96759 0.32284 0.0
H329 H 0.40925 0.88975 0.31737 0.0
H330 H 0.46766 0.95746 0.31053 0.0
O331 O 0.37656 0.05368 0.33708 0.0
O332 O 0.32532 0.09177 0.3285 0.0
H333 H 0.2982 0.04169 0.29553 0.0
H334 H 0.28612 0.97105 0.28913 0.0
C335 C 0.28088 0.98988 0.29618 0.0
H336 H 0.22954 0.96511 0.29796 0.0
H337 H 0.30237 0.14746 0.3115 0.0
O338 O 0.38275 0.9247 0.33812 0.0
C339 C 0.3672 0.09933 0.33478 0.0
Co340 Co 0.37515 0.33452 0.49988 0.0
Co341 Co 0.2532 0.26719 0.48675 0.0
C342 C 0.2791 0.19398 0.50165 0.0
O343 O 0.33051 0.24386 0.50413 0.0
O344 O 0.24425 0.19572 0.49488 0.0
C345 C 0.50191 0.3651 0.50601 0.0
O346 O 0.49612 0.32187 0.49971 0.0
C347 C 0.16351 0.18137 0.4719 0.0
C348 C 0.11656 0.2356 0.46743 0.0
C349 C 0.11861 0.18042 0.4655 0.0
N350 N 0.18696 0.23486 0.47726 0.0
N351 N 0.15813 0.26661 0.47462 0.0
C352 C 0.18801 0.1356 0.47243 0.0
H353 H 0.23658 0.15917 0.47562 0.0
H354 H 0.18892 0.11692 0.46512 0.0
H355 H 0.15604 0.09492 0.47714 0.0
C356 C 0.43681 0.37878 0.48046 0.0
N357 N 0.38601 0.34274 0.48617 0.0
N358 N 0.33496 0.31182 0.48068 0.0
C359 C 0.35223 0.3257 0.47131 0.0
C360 C 0.41717 0.36812 0.47088 0.0
C361 C 0.50184 0.4262 0.48408 0.0
H362 H 0.4984 0.44617 0.49113 0.0
H363 H 0.53028 0.40215 0.48502 0.0
H364 H 0.52734 0.46562 0.47882 0.0
O365 O 0.32607 0.37516 0.50414 0.0
O366 O 0.23927 0.32681 0.495 0.0
H367 H 0.27061 0.31873 0.46415 0.0
H368 H 0.33149 0.32455 0.456 0.0
C369 C 0.30676 0.30408 0.46296 0.0
H370 H 0.28202 0.2514 0.46246 0.0
H371 H 0.16795 0.31027 0.47758 0.0
O372 O 0.4573 0.37791 0.50699 0.0
C373 C 0.27202 0.36701 0.50155 0.0
Co374 Co 0.03081 0.36522 0.66572 0.0
Co375 Co 0.97079 0.23945 0.65334 0.0
C376 C 0.0724 0.26878 0.66836 0.0
O377 O 0.07655 0.32185 0.67055 0.0
O378 O 0.03402 0.23308 0.66182 0.0
C379 C 0.09123 0.46121 0.68026 0.0
O380 O 0.08863 0.41351 0.68518 0.0
C381 C 0.97015 0.1536 0.63807 0.0
C382 C 0.86718 0.08421 0.63684 0.0
C383 C 0.9262 0.09919 0.63312 0.0
N384 N 0.9383 0.1701 0.64435 0.0
N385 N 0.8768 0.12835 0.64358 0.0
C386 C 0.04131 0.18713 0.63732 0.0
H387 H 0.06365 0.2167 0.64385 0.0
H388 H 0.05702 0.219 0.63092 0.0
H389 H 0.05765 0.15198 0.63638 0.0
C390 C 0.05411 0.42259 0.64614 0.0
N391 N 0.03436 0.37169 0.65201 0.0
N392 N 0.00646 0.31922 0.64678 0.0
C393 C 0.00558 0.33509 0.63743 0.0
C394 C 0.03635 0.40123 0.63668 0.0
C395 C 0.08886 0.4902 0.64962 0.0
H396 H 0.12467 0.49609 0.65514 0.0
H397 H 0.11333 0.52397 0.64358 0.0
H398 H 0.05436 0.50167 0.65306 0.0
O399 O 0.94029 0.31751 0.6701 0.0
O400 O 0.89852 0.22838 0.66143 0.0
H401 H 0.95296 0.31027 0.62395 0.0
H402 H 0.99757 0.27044 0.62624 0.0
C403 C 0.96786 0.28809 0.62965 0.0
H404 H 0.92466 0.24709 0.63276 0.0
H405 H 0.84134 0.12986 0.64767 0.0
O406 O 0.06945 0.45143 0.67166 0.0
C407 C 0.89306 0.26346 0.66779 0.0
C408 C 0.71354 0.86593 0.01503 0.0
C409 C 0.74972 0.86427 0.00719 0.0
C410 C 0.73686 0.91953 0.0211 0.0
C411 C 0.79784 0.97284 0.01931 0.0
C412 C 0.83371 0.97236 0.01124 0.0
C413 C 0.80924 0.91818 0.00528 0.0
C414 C 0.69705 0.91833 0.02961 0.0
C415 C 0.89886 0.0284 0.00907 0.0
C416 C 0.84664 0.13438 0.03053 0.0
C417 C 0.88563 0.13656 0.03823 0.0
C418 C 0.81649 0.0808 0.02445 0.0
C419 C 0.82549 0.02809 0.0261 0.0
C420 C 0.86307 0.02911 0.03403 0.0
C421 C 0.8926 0.08323 0.04 0.0
C422 C 0.77649 0.08137 0.0161 0.0
C423 C 0.87365 0.97373 0.03605 0.0
H424 H 0.66743 0.82473 0.01657 0.0
H425 H 0.83755 0.91761 0.99924 0.0
H426 H 0.72177 0.92012 0.03647 0.0
H427 H 0.69108 0.9609 0.02946 0.0
H428 H 0.64911 0.87486 0.02967 0.0
H429 H 0.91935 0.02177 1.00226 0.0
H430 H 0.89619 0.07272 0.00845 0.0
H431 H 0.93193 0.03533 0.01511 0.0
H432 H 0.84073 0.17517 0.0291 0.0
H433 H 0.9224 0.08423 0.04594 0.0
H434 H 0.72838 0.03836 0.01634 0.0
H435 H 0.79878 0.07996 0.00915 0.0
H436 H 0.77118 0.1244 0.01614 0.0
H437 H 0.82721 0.92899 0.03677 0.0
H438 H 0.90181 0.98077 0.04275 0.0
H439 H 0.89929 0.96729 0.02988 0.0
C440 C 0.88846 0.80323 0.17231 0.0
C441 C 0.88225 0.74313 0.17396 0.0
C442 C 0.85751 0.82641 0.17826 0.0
C443 C 0.8191 0.78853 0.18603 0.0
C444 C 0.81046 0.7268 0.1875 0.0
C445 C 0.84219 0.70486 0.18145 0.0
C446 C 0.86791 0.8925 0.17645 0.0
C447 C 0.76951 0.68483 0.19566 0.0
C448 C 0.80379 0.88116 0.20704 0.0
C449 C 0.74523 0.87768 0.20506 0.0
C450 C 0.82733 0.85064 0.20108 0.0
C451 C 0.79139 0.81541 0.19294 0.0
C452 C 0.73101 0.8093 0.19113 0.0
C453 C 0.70867 0.84059 0.1972 0.0
C454 C 0.89193 0.85825 0.20327 0.0
C455 C 0.69105 0.77168 0.18258 0.0
H456 H 0.91901 0.83315 0.16653 0.0
H457 H 0.83681 0.65826 0.18278 0.0
H458 H 0.82145 0.89085 0.17576 0.0
H459 H 0.8933 0.92379 0.1827 0.0
H460 H 0.89629 0.91446 0.16979 0.0
H461 H 0.76337 0.63619 0.19533 0.0
H462 H 0.79164 0.70668 0.20271 0.0
H463 H 0.72177 0.68073 0.19547 0.0
H464 H 0.83236 0.90939 0.21311 0.0
H465 H 0.66326 0.8373 0.19562 0.0
H466 H 0.92559 0.88508 0.19732 0.0
H467 H 0.88854 0.81087 0.2037 0.0
H468 H 0.91218 0.88406 0.21018 0.0
H469 H 0.7154 0.7957 0.17576 0.0
H470 H 0.64294 0.76687 0.18265 0.0
H471 H 0.68554 0.72333 0.1825 0.0
C472 C 0.91919 0.80528 0.37413 0.0
C473 C 0.86555 0.74526 0.37238 0.0
C474 C 0.97359 0.82888 0.36824 0.0
C475 C 0.97465 0.79151 0.36042 0.0
C476 C 0.92184 0.72982 0.35886 0.0
C477 C 0.86791 0.70747 0.36484 0.0
C478 C 0.02896 0.89492 0.37015 0.0
C479 C 0.92133 0.68835 0.35065 0.0
C480 C 0.08156 0.88443 0.33935 0.0
C481 C 0.13661 0.88061 0.3412 0.0
C482 C 0.02801 0.85422 0.3454 0.0
C483 C 0.02921 0.81899 0.35351 0.0
C484 C 0.08358 0.81283 0.35522 0.0
C485 C 0.13667 0.84376 0.34905 0.0
C486 C 0.97093 0.86189 0.34331 0.0
C487 C 0.08644 0.77525 0.36374 0.0
H488 H 0.91812 0.83483 0.37994 0.0
H489 H 0.82695 0.6609 0.36345 0.0
H490 H 0.07391 0.89346 0.37078 0.0
H491 H 0.03462 0.92665 0.36397 0.0
H492 H 0.02236 0.91624 0.37687 0.0
H493 H 0.8791 0.6396 0.35092 0.0
H494 H 0.92101 0.71047 0.34363 0.0
H495 H 0.96512 0.68451 0.35083 0.0
H496 H 0.08074 0.91248 0.33329 0.0
H497 H 0.17882 0.84031 0.35054 0.0
H498 H 0.9639 0.88808 0.34934 0.0
H499 H 0.92713 0.81448 0.34281 0.0
H500 H 0.97635 0.88828 0.33647 0.0
H501 H 0.08562 0.79884 0.37058 0.0
H502 H 0.13011 0.77105 0.36365 0.0
H503 H 0.04406 0.72665 0.36378 0.0
C504 C 0.29268 0.13225 0.51514 0.0
C505 C 0.25692 0.13419 0.50726 0.0
C506 C 0.26917 0.07827 0.52113 0.0
C507 C 0.20843 0.02492 0.51922 0.0
C508 C 0.17316 0.02559 0.51108 0.0
C509 C 0.19784 0.08012 0.50519 0.0
C510 C 0.30837 0.07923 0.5297 0.0
C511 C 0.10826 0.96953 0.50877 0.0
C512 C 0.15815 0.86343 0.53058 0.0
C513 C 0.11873 0.86167 0.53819 0.0
C514 C 0.1889 0.91684 0.52448 0.0
C515 C 0.18006 0.96975 0.52601 0.0
C516 C 0.14198 0.96911 0.53384 0.0
C517 C 0.11188 0.91519 0.53984 0.0
C518 C 0.22941 0.91589 0.51624 0.0
C519 C 0.13152 0.02471 0.53573 0.0
H520 H 0.33848 0.1736 0.51679 0.0
H521 H 0.16988 0.08091 0.49912 0.0
H522 H 0.2835 0.07803 0.53652 0.0
H523 H 0.31375 0.0363 0.52965 0.0
H524 H 0.35656 0.12235 0.52978 0.0
H525 H 0.08857 0.97609 0.50188 0.0
H526 H 0.11093 0.92517 0.50826 0.0
H527 H 0.07453 0.96274 0.51471 0.0
H528 H 0.16391 0.82245 0.52924 0.0
H529 H 0.08176 0.91452 0.5457 0.0
H530 H 0.27756 0.95883 0.51652 0.0
H531 H 0.20765 0.91716 0.50923 0.0
H532 H 0.23456 0.87277 0.51637 0.0
H533 H 0.178 0.06932 0.53653 0.0
H534 H 0.10273 0.01785 0.54236 0.0
H535 H 0.10662 0.03128 0.52947 0.0
C536 C 0.18495 0.10363 0.70692 0.0
C537 C 0.24401 0.10803 0.70503 0.0
C538 C 0.16107 0.13366 0.70091 0.0
C539 C 0.19712 0.16921 0.69281 0.0
C540 C 0.25764 0.1756 0.69102 0.0
C541 C 0.28035 0.14493 0.69714 0.0
C542 C 0.09636 0.1258 0.70309 0.0
C543 C 0.29765 0.21342 0.68248 0.0
C544 C 0.10197 0.18555 0.67223 0.0
C545 C 0.10939 0.246 0.67402 0.0
C546 C 0.13172 0.16077 0.67813 0.0
C547 C 0.17003 0.19733 0.68601 0.0
C548 C 0.17965 0.25927 0.68765 0.0
C549 C 0.14921 0.28285 0.68165 0.0
C550 C 0.12038 0.09454 0.67613 0.0
C551 C 0.22045 0.29986 0.69593 0.0
H552 H 0.15649 0.07548 0.713 0.0
H553 H 0.32611 0.14887 0.69561 0.0
H554 H 0.09989 0.17318 0.7037 0.0
H555 H 0.06311 0.10007 0.69704 0.0
H556 H 0.07556 0.09891 0.7099 0.0
H557 H 0.34522 0.21696 0.68242 0.0
H558 H 0.27263 0.19052 0.67564 0.0
H559 H 0.30446 0.26228 0.68258 0.0
H560 H 0.07155 0.15671 0.66635 0.0
H561 H 0.15551 0.32969 0.68309 0.0
H562 H 0.09447 0.0627 0.6823 0.0
H563 H 0.16652 0.09553 0.67541 0.0
H564 H 0.09212 0.07365 0.66942 0.0
H565 H 0.19815 0.2769 0.70292 0.0
H566 H 0.22676 0.3486 0.69583 0.0
H567 H 0.26813 0.30386 0.69567 0.0
C568 C 0.86025 0.15695 0.84915 0.0
C569 C 0.86014 0.11932 0.8414 0.0
C570 C 0.91339 0.18836 0.8553 0.0
C571 C 0.96761 0.18183 0.85368 0.0
C572 C 0.96851 0.14547 0.84571 0.0
C573 C 0.91493 0.11483 0.83967 0.0
C574 C 0.91085 0.2271 0.86368 0.0
C575 C 0.02542 0.1373 0.84373 0.0
C576 C 0.12955 0.29514 0.86466 0.0
C577 C 0.13244 0.25851 0.87233 0.0
C578 C 0.07519 0.27187 0.85875 0.0
C579 C 0.0225 0.21045 0.86053 0.0
C580 C 0.02404 0.17437 0.86849 0.0
C581 C 0.07886 0.19886 0.8743 0.0
C582 C 0.07516 0.31199 0.85038 0.0
C583 C 0.96879 0.10866 0.87063 0.0
H584 H 0.81832 0.16097 0.85055 0.0
H585 H 0.91557 0.086 0.83372 0.0
H586 H 0.91232 0.2047 0.87062 0.0
H587 H 0.95304 0.27581 0.86355 0.0
H588 H 0.86702 0.23101 0.86357 0.0
H589 H 0.01961 0.10964 0.83701 0.0
H590 H 0.06922 0.18458 0.84305 0.0
H591 H 0.03275 0.11223 0.84989 0.0
H592 H 0.17048 0.34142 0.86309 0.0
H593 H 0.08033 0.17022 0.88022 0.0
H594 H 0.03125 0.31562 0.85049 0.0
H595 H 0.07535 0.28888 0.84345 0.0
H596 H 0.11726 0.36087 0.8505 0.0
H597 H 0.92383 0.11015 0.87119 0.0
H598 H 0.9757 0.08856 0.87746 0.0
H599 H 0.96293 0.07587 0.8646 0.0
C600 C 0.09883 0.09825 0.08708 0.0
C601 C 0.05956 0.12546 0.08683 0.0
C602 C 0.09466 0.0579 0.09469 0.0
C603 C 0.05086 0.04531 0.10232 0.0
C604 C 0.01016 0.07168 0.10201 0.0
C605 C 0.01496 0.11146 0.09425 0.0
C606 C 0.13854 0.03029 0.09469 0.0
C607 C 0.96342 0.06002 0.11007 0.0
C608 C 0.01683 0.90593 0.11883 0.0
C609 C 0.06055 0.93677 0.12634 0.0
C610 C 0.01155 0.94078 0.11109 0.0
C611 C 0.05093 0.00798 0.11089 0.0
C612 C 0.09382 0.03941 0.11862 0.0
C613 C 0.09848 0.00335 0.1262 0.0
C614 C 0.96586 0.90549 0.10293 0.0
C615 C 0.13629 0.11102 0.11874 0.0
H616 H 0.13343 0.1091 0.08136 0.0
H617 H 0.98584 0.13386 0.09424 0.0
H618 H 0.17223 0.05006 0.10086 0.0
H619 H 0.11063 0.9778 0.09565 0.0
H620 H 0.16658 0.04099 0.08789 0.0
H621 H 0.93188 0.07991 0.10839 0.0
H622 H 0.93334 0.00815 0.11146 0.0
H623 H 0.98985 0.08233 0.11684 0.0
H624 H 0.98883 0.85439 0.11874 0.0
H625 H 0.13242 0.02727 0.132 0.0
H626 H 0.99312 0.9105 0.09621 0.0
H627 H 0.93499 0.92637 0.10147 0.0
H628 H 0.93506 0.85389 0.10453 0.0
H629 H 0.17071 0.12599 0.11265 0.0
H630 H 0.16349 0.12844 0.12561 0.0
H631 H 0.10742 0.13458 0.11771 0.0
C632 C 0.9976 0.09411 0.25385 0.0
C633 C 0.93147 0.05386 0.25355 0.0
C634 C 0.03388 0.09034 0.26148 0.0
C635 C 0.00286 0.04636 0.2691 0.0
C636 C 0.936 0.00491 0.26874 0.0
C637 C 0.90104 0.00908 0.26094 0.0
C638 C 0.10516 0.13477 0.26152 0.0
C639 C 0.90111 0.95821 0.27681 0.0
C640 C 0.10734 0.01214 0.28574 0.0
C641 C 0.11985 0.0559 0.29323 0.0
C642 C 0.06782 0.00713 0.27794 0.0
C643 C 0.04013 0.04668 0.27769 0.0
C644 C 0.05127 0.08961 0.28541 0.0
C645 C 0.09175 0.09428 0.29303 0.0
C646 C 0.05803 0.96165 0.26977 0.0
C647 C 0.022 0.13203 0.28548 0.0
H648 H 0.02082 0.12912 0.24816 0.0
H649 H 0.84956 0.97932 0.26083 0.0
H650 H 0.11854 0.16871 0.26765 0.0
H651 H 0.1302 0.10733 0.26257 0.0
H652 H 0.12242 0.16255 0.25469 0.0
H653 H 0.84975 0.92657 0.27514 0.0
H654 H 0.92303 0.92821 0.27822 0.0
H655 H 0.90517 0.98468 0.28358 0.0
H656 H 0.13076 0.98388 0.28576 0.0
H657 H 0.10215 0.12854 0.2988 0.0
H658 H 0.08005 0.98908 0.26306 0.0
H659 H 0.00642 0.93035 0.26831 0.0
H660 H 0.07936 0.93126 0.27137 0.0
H661 H 0.0418 0.16671 0.27943 0.0
H662 H 0.03123 0.15895 0.29238 0.0
H663 H 0.9697 0.10314 0.28437 0.0
C664 C 0.05737 0.06852 0.45893 0.0
C665 C 0.082 0.13425 0.45771 0.0
C666 C 0.01885 0.02494 0.45177 0.0
C667 C 0.00431 0.04771 0.44324 0.0
C668 C 0.0303 0.11412 0.44189 0.0
C669 C 0.06858 0.15644 0.44915 0.0
C670 C 0.99182 0.95446 0.45347 0.0
C671 C 0.01602 0.14046 0.43292 0.0
C672 C 0.93605 0.94541 0.42067 0.0
C673 C 0.87134 0.92706 0.42142 0.0
C674 C 0.97972 0.9827 0.42791 0.0
C675 C 0.95815 0.00244 0.43603 0.0
C676 C 0.89262 0.98275 0.43692 0.0
C677 C 0.85016 0.94554 0.42959 0.0
C678 C 0.04927 0.00295 0.42669 0.0
C679 C 0.86758 0.00273 0.44545 0.0
H680 H 0.06605 0.0508 0.46562 0.0
H681 H 0.08764 0.20722 0.44816 0.0
H682 H 0.93933 0.93101 0.45435 0.0
H683 H 0.00116 0.93218 0.44712 0.0
H684 H 0.01221 0.94479 0.46003 0.0
H685 H 0.04309 0.19342 0.43272 0.0
H686 H 0.02775 0.12212 0.42633 0.0
H687 H 0.96433 0.12434 0.43262 0.0
H688 H 0.95317 0.93286 0.41426 0.0
H689 H 0.80015 0.93135 0.43023 0.0
H690 H 0.06781 0.99226 0.43336 0.0
H691 H 0.07734 0.05526 0.42553 0.0
H692 H 0.05746 0.97888 0.42046 0.0
H693 H 0.88216 0.99004 0.45233 0.0
H694 H 0.81478 0.98009 0.44536 0.0
H695 H 0.88835 0.05528 0.4454 0.0
C696 C 0.89919 0.99632 0.6252 0.0
C697 C 0.9368 0.06294 0.62541 0.0
C698 C 0.90395 0.96073 0.61756 0.0
C699 C 0.94672 0.99262 0.60984 0.0
C700 C 0.98578 0.05986 0.6101 0.0
C701 C 0.98036 0.09428 0.61789 0.0
C702 C 0.8618 0.88907 0.61761 0.0
C703 C 0.03144 0.09562 0.60196 0.0
C704 C 0.98346 0.88944 0.59326 0.0
C705 C 0.93893 0.87517 0.58582 0.0
C706 C 0.98815 0.92943 0.60099 0.0
C707 C 0.94728 0.9556 0.60126 0.0
C708 C 0.9035 0.9427 0.59361 0.0
C709 C 0.89953 0.90224 0.58603 0.0
C710 C 0.03492 0.94145 0.60906 0.0
C711 C 0.85936 0.96999 0.59358 0.0
H712 H 0.86542 0.97198 0.631 0.0
H713 H 0.0082 0.14584 0.61786 0.0
H714 H 0.82765 0.8741 0.61148 0.0
H715 H 0.89097 0.86581 0.6166 0.0
H716 H 0.8343 0.8713 0.62445 0.0
H717 H 0.06182 0.14723 0.60359 0.0
H718 H 0.06271 0.0752 0.6005 0.0
H719 H 0.00418 0.09045 0.59523 0.0
H720 H 0.01266 0.86714 0.59331 0.0
H721 H 0.86498 0.89118 0.58029 0.0
H722 H 0.00852 0.91892 0.61582 0.0
H723 H 0.06461 0.99335 0.61047 0.0
H724 H 0.06684 0.922 0.60739 0.0
H725 H 0.82553 0.95002 0.59973 0.0
H726 H 0.83147 0.95922 0.58676 0.0
H727 H 0.88702 0.02248 0.59455 0.0
C728 C 0.01806 0.94358 0.75229 0.0
C729 C 0.0667 0.9312 0.7549 0.0
C730 C 0.97816 0.94709 0.75936 0.0
C731 C 0.98838 0.93946 0.76926 0.0
C732 C 0.03919 0.92945 0.77193 0.0
C733 C 0.07714 0.92448 0.7647 0.0
C734 C 0.92358 0.95633 0.75621 0.0
C735 C 0.05266 0.92266 0.78241 0.0
C736 C 0.91106 0.99216 0.78839 0.0
C737 C 0.85954 0.93357 0.79138 0.0
C738 C 0.95398 0.99487 0.7813 0.0
C739 C 0.94368 0.9379 0.77681 0.0
C740 C 0.89089 0.87883 0.77961 0.0
C741 C 0.84988 0.87738 0.7869 0.0
C742 C 0.01022 0.05869 0.77858 0.0
C743 C 0.87747 0.81708 0.77486 0.0
H744 H 0.00977 0.94811 0.74469 0.0
H745 H 0.11519 0.91536 0.7667 0.0
H746 H 0.87765 0.91349 0.75815 0.0
H747 H 0.92548 0.99746 0.76006 0.0
H748 H 0.92396 0.96444 0.74829 0.0
H749 H 0.09712 0.92041 0.78331 0.0
H750 H 0.05693 0.96339 0.7867 0.0
H751 H 0.01242 0.87855 0.78549 0.0
H752 H 0.9173 0.0362 0.79139 0.0
H753 H 0.80981 0.83193 0.78907 0.0
H754 H 0.00688 0.06914 0.77085 0.0
H755 H 0.0552 0.05749 0.77947 0.0
H756 H 0.0131 0.09821 0.78306 0.0
H757 H 0.8733 0.82033 0.7669 0.0
H758 H 0.83292 0.77551 0.77759 0.0
H759 H 0.91764 0.80831 0.7762 0.0
C760 C 0.94367 0.84764 0.94926 0.0
C761 C 0.92666 0.86916 0.95756 0.0
C762 C 0.98085 0.89004 0.94194 0.0
C763 C 0.00207 0.95586 0.94294 0.0
C764 C 0.98386 0.97783 0.95119 0.0
C765 C 0.94652 0.9342 0.95843 0.0
C766 C 0.99914 0.86456 0.93326 0.0
C767 C 0.00578 0.04769 0.95253 0.0
C768 C 0.15567 0.06437 0.92958 0.0
C769 C 0.13334 0.07903 0.92115 0.0
C770 C 0.11359 0.02631 0.93688 0.0
C771 C 0.04728 0.00179 0.9357 0.0
C772 C 0.02441 0.01756 0.9273 0.0
C773 C 0.06775 0.05586 0.9201 0.0
C774 C 0.14002 0.01072 0.94572 0.0
C775 C 0.95403 0.99208 0.92577 0.0
H776 H 0.9283 0.79738 0.94854 0.0
H777 H 0.93509 0.95154 0.96492 0.0
H778 H 0.9864 0.88 0.92647 0.0
H779 H 0.05152 0.88423 0.93319 0.0
H780 H 0.97542 0.81166 0.93328 0.0
H781 H 0.98285 0.05632 0.95887 0.0
H782 H 0.05822 0.0747 0.95358 0.0
H783 H 0.9951 0.06707 0.94596 0.0
H784 H 0.20635 0.0823 0.93045 0.0
H785 H 0.0499 0.06551 0.9135 0.0
H786 H 0.12279 0.95877 0.94592 0.0
H787 H 0.12284 0.02275 0.95241 0.0
H788 H 0.19299 0.03675 0.94581 0.0
H789 H 0.92944 0.93956 0.92483 0.0
H790 H 0.94441 0.01326 0.9193 0.0
H791 H 0.9329 0.00187 0.93222 0.0
C792 C 0.42116 0.5399 0.01302 0.0
C793 C 0.46569 0.59903 0.01699 0.0
C794 C 0.361 0.50245 0.01729 0.0
C795 C 0.34481 0.52485 0.02569 0.0
C796 C 0.38909 0.58495 0.02963 0.0
C797 C 0.44904 0.62122 0.02526 0.0
C798 C 0.31509 0.43852 0.01289 0.0
C799 C 0.37338 0.61065 0.03855 0.0
C800 C 0.16995 0.45281 0.03244 0.0
C801 C 0.16326 0.4095 0.03974 0.0
C802 C 0.22867 0.4905 0.02778 0.0
C803 C 0.28205 0.48484 0.03049 0.0
C804 C 0.27568 0.44124 0.03783 0.0
C805 C 0.21643 0.40413 0.04237 0.0
C806 C 0.23363 0.53648 0.01998 0.0
C807 C 0.33154 0.43387 0.04092 0.0
H808 H 0.43358 0.52238 0.00663 0.0
H809 H 0.48299 0.66697 0.02835 0.0
H810 H 0.30411 0.40005 0.01822 0.0
H811 H 0.26946 0.4365 0.01108 0.0
H812 H 0.3344 0.42863 0.00622 0.0
H813 H 0.41237 0.65903 0.04055 0.0
H814 H 0.3292 0.61284 0.03733 0.0
H815 H 0.3643 0.57812 0.04476 0.0
H816 H 0.12924 0.45734 0.03034 0.0
H817 H 0.21189 0.37088 0.048 0.0
H818 H 0.24952 0.52524 0.01309 0.0
H819 H 0.26997 0.58584 0.02202 0.0
H820 H 0.18758 0.53496 0.01869 0.0
H821 H 0.35029 0.41989 0.03462 0.0
H822 H 0.31859 0.39752 0.0467 0.0
H823 H 0.37073 0.48012 0.04362 0.0
C824 C 0.84677 0.45213 0.19273 0.0
C825 C 0.88064 0.46682 0.18398 0.0
C826 C 0.82387 0.39236 0.19713 0.0
C827 C 0.83577 0.34644 0.19274 0.0
C828 C 0.87012 0.36102 0.18393 0.0
C829 C 0.8918 0.42091 0.17961 0.0
C830 C 0.78666 0.37825 0.20647 0.0
C831 C 0.88415 0.31343 0.17908 0.0
C832 C 0.8238 0.21249 0.20863 0.0
C833 C 0.76301 0.16217 0.20621 0.0
C834 C 0.84837 0.27261 0.20424 0.0
C835 C 0.81119 0.28271 0.1973 0.0
C836 C 0.74997 0.23213 0.19481 0.0
C837 C 0.72669 0.17254 0.19928 0.0
C838 C 0.91401 0.32542 0.20705 0.0
C839 C 0.70877 0.2411 0.18748 0.0
H840 H 0.83773 0.48725 0.19612 0.0
H841 H 0.9182 0.43204 0.17287 0.0
H842 H 0.73844 0.33614 0.2055 0.0
H843 H 0.81078 0.36633 0.21225 0.0
H844 H 0.7814 0.4191 0.20893 0.0
H845 H 0.91237 0.33255 0.17233 0.0
H846 H 0.91095 0.29958 0.1841 0.0
H847 H 0.83889 0.26943 0.17728 0.0
H848 H 0.85228 0.20501 0.21396 0.0
H849 H 0.67966 0.1341 0.19735 0.0
H850 H 0.9108 0.36597 0.21017 0.0
H851 H 0.94479 0.34351 0.20053 0.0
H852 H 0.93736 0.3095 0.21241 0.0
H853 H 0.69926 0.27922 0.18994 0.0
H854 H 0.66242 0.19678 0.18629 0.0
H855 H 0.7341 0.25655 0.18044 0.0
C856 C 0.39091 0.84457 0.36005 0.0
C857 C 0.40799 0.87466 0.35098 0.0
C858 C 0.42645 0.81978 0.36437 0.0
C859 C 0.4807 0.82559 0.35954 0.0
C860 C 0.49791 0.85538 0.35035 0.0
C861 C 0.46121 0.87934 0.34616 0.0
C862 C 0.40627 0.78787 0.37415 0.0
C863 C 0.55565 0.86277 0.345 0.0
C864 C 0.60718 0.81867 0.37496 0.0
C865 C 0.59416 0.75598 0.37337 0.0
C866 C 0.571 0.84204 0.37044 0.0
C867 C 0.52019 0.80168 0.36422 0.0
C868 C 0.50671 0.73839 0.36257 0.0
C869 C 0.54396 0.71637 0.36714 0.0
C870 C 0.58711 0.90996 0.37233 0.0
C871 C 0.45264 0.6938 0.35604 0.0
H872 H 0.3497 0.84046 0.36381 0.0
H873 H 0.4748 0.90254 0.33915 0.0
H874 H 0.39858 0.73872 0.37375 0.0
H875 H 0.44463 0.81437 0.37953 0.0
H876 H 0.36178 0.78544 0.37681 0.0
H877 H 0.56193 0.88606 0.33783 0.0
H878 H 0.59918 0.89174 0.34939 0.0
H879 H 0.55147 0.81542 0.34389 0.0
H880 H 0.64593 0.84978 0.37973 0.0
H881 H 0.53336 0.66784 0.36587 0.0
H882 H 0.5456 0.9105 0.37564 0.0
H883 H 0.59768 0.93655 0.3654 0.0
H884 H 0.62878 0.93552 0.37723 0.0
H885 H 0.4069 0.68768 0.35882 0.0
H886 H 0.44853 0.64608 0.35548 0.0
H887 H 0.45969 0.71451 0.34867 0.0
C888 C 0.82265 0.52329 0.53747 0.0
C889 C 0.84447 0.58825 0.53893 0.0
C890 C 0.76607 0.48489 0.53234 0.0
C891 C 0.73214 0.51285 0.52824 0.0
C892 C 0.75466 0.57877 0.52959 0.0
C893 C 0.80995 0.61544 0.5351 0.0
C894 C 0.74232 0.41438 0.53137 0.0
C895 C 0.72106 0.6108 0.52507 0.0
C896 C 0.6204 0.42538 0.50727 0.0
C897 C 0.56075 0.40072 0.51171 0.0
C898 C 0.67671 0.46269 0.51254 0.0
C899 C 0.673 0.4732 0.52256 0.0
C900 C 0.61266 0.44657 0.52712 0.0
C901 C 0.55715 0.41176 0.52158 0.0
C902 C 0.74001 0.49216 0.50734 0.0
C903 C 0.60672 0.45469 0.53785 0.0
H904 H 0.84929 0.50231 0.54051 0.0
H905 H 0.82734 0.6659 0.53616 0.0
H906 H 0.69276 0.38662 0.53414 0.0
H907 H 0.74132 0.40163 0.52363 0.0
H908 H 0.77261 0.39961 0.53539 0.0
H909 H 0.74627 0.66296 0.52647 0.0
H910 H 0.71724 0.60287 0.51712 0.0
H911 H 0.67185 0.58957 0.52794 0.0
H912 H 0.62288 0.41728 0.49959 0.0
H913 H 0.51079 0.39224 0.525 0.0
H914 H 0.77076 0.47512 0.51057 0.0
H915 H 0.76524 0.54478 0.50821 0.0
H916 H 0.73453 0.4807 0.49948 0.0
H917 H 0.63544 0.43856 0.54198 0.0
H918 H 0.55652 0.42745 0.54038 0.0
H919 H 0.6258 0.50581 0.53957 0.0
C920 C 0.1131 0.57399 0.68004 0.0
C921 C 0.11789 0.52515 0.68475 0.0
C922 C 0.13679 0.63423 0.68435 0.0
C923 C 0.16647 0.6461 0.69355 0.0
C924 C 0.17211 0.59725 0.69829 0.0
C925 C 0.14754 0.53732 0.69385 0.0
C926 C 0.12957 0.68502 0.6791 0.0
C927 C 0.20397 0.60825 0.70806 0.0
C928 C 0.27769 0.8182 0.70098 0.0
C929 C 0.23884 0.82994 0.70722 0.0
C930 C 0.25481 0.75859 0.69651 0.0
C931 C 0.19141 0.70954 0.69825 0.0
C932 C 0.1519 0.721 0.70452 0.0
C933 C 0.17613 0.78093 0.70895 0.0
C934 C 0.29855 0.74806 0.68993 0.0
C935 C 0.0839 0.66998 0.70652 0.0
H936 H 0.09019 0.56499 0.67302 0.0
H937 H 0.1517 0.49998 0.69752 0.0
H938 H 0.10156 0.70027 0.6836 0.0
H939 H 0.17709 0.72767 0.6779 0.0
H940 H 0.10543 0.66823 0.67199 0.0
H941 H 0.20548 0.56566 0.7107 0.0
H942 H 0.25348 0.64897 0.70765 0.0
H943 H 0.17814 0.6209 0.71346 0.0
H944 H 0.32624 0.85561 0.6996 0.0
H945 H 0.14564 0.78948 0.71373 0.0
H946 H 0.27765 0.73504 0.68256 0.0
H947 H 0.30372 0.70772 0.69265 0.0
H948 H 0.3467 0.79097 0.68937 0.0
H949 H 0.05671 0.65445 0.69963 0.0
H950 H 0.05923 0.68663 0.71151 0.0
H951 H 0.08293 0.62753 0.70975 0.0
C952 C 0.46815 0.29188 0.87042 0.0
C953 C 0.40347 0.24983 0.87227 0.0
C954 C 0.50476 0.27202 0.86517 0.0
C955 C 0.47523 0.20935 0.86137 0.0
C956 C 0.40973 0.1667 0.8632 0.0
C957 C 0.37484 0.18716 0.86881 0.0
C958 C 0.57495 0.31814 0.86369 0.0
C959 C 0.37614 0.10017 0.85902 0.0
C960 C 0.55771 0.18389 0.83981 0.0
C961 C 0.58538 0.1511 0.84409 0.0
C962 C 0.52043 0.20188 0.84532 0.0
C963 C 0.51286 0.18879 0.85539 0.0
C964 C 0.542 0.15685 0.85976 0.0
C965 C 0.57693 0.13728 0.85402 0.0
C966 C 0.48845 0.23408 0.84034 0.0
C967 C 0.53699 0.14406 0.87052 0.0
H968 H 0.49025 0.34028 0.87317 0.0
H969 H 0.32458 0.15496 0.87017 0.0
H970 H 0.60339 0.29631 0.86615 0.0
H971 H 0.585 0.32904 0.85587 0.0
H972 H 0.59137 0.36365 0.86766 0.0
H973 H 0.32482 0.07329 0.861 0.0
H974 H 0.38018 0.10265 0.85101 0.0
H975 H 0.39914 0.07311 0.8616 0.0
H976 H 0.56375 0.19383 0.83211 0.0
H977 H 0.59875 0.11217 0.85732 0.0
H978 H 0.50671 0.28267 0.84333 0.0
H979 H 0.43633 0.20696 0.84172 0.0
H980 H 0.49655 0.23797 0.83239 0.0
H981 H 0.55511 0.18952 0.87456 0.0
H982 H 0.5643 0.12063 0.87283 0.0
H983 H 0.48637 0.11307 0.87261 0.0
C984 C 0.62066 0.81226 0.84403 0.0
C985 C 0.59067 0.84063 0.8391 0.0
C986 C 0.58484 0.75665 0.84952 0.0
C987 C 0.51748 0.72782 0.84976 0.0
C988 C 0.48701 0.755 0.84441 0.0
C989 C 0.52416 0.81193 0.83931 0.0
C990 C 0.61915 0.73022 0.85536 0.0
C991 C 0.41528 0.72446 0.84418 0.0
C992 C 0.42285 0.55487 0.85777 0.0
C993 C 0.40423 0.56089 0.86714 0.0
C994 C 0.45894 0.60875 0.85197 0.0
C995 C 0.47884 0.67016 0.85579 0.0
C996 C 0.461 0.67647 0.86533 0.0
C997 C 0.42281 0.62154 0.87083 0.0
C998 C 0.47499 0.59991 0.84172 0.0
C999 C 0.48293 0.74123 0.86975 0.0
H1000 H 0.67226 0.83524 0.84394 0.0
H1001 H 0.50124 0.83416 0.83547 0.0
H1002 H 0.60831 0.73044 0.86317 0.0
H1003 H 0.60221 0.67999 0.8533 0.0
H1004 H 0.67167 0.75816 0.85436 0.0
H1005 H 0.39903 0.74867 0.83903 0.0
H1006 H 0.39338 0.67351 0.84209 0.0
H1007 H 0.39728 0.72608 0.8515 0.0
H1008 H 0.40805 0.50777 0.8549 0.0
H1009 H 0.40892 0.62606 0.87813 0.0
H1010 H 0.52744 0.6239 0.84079 0.0
H1011 H 0.45695 0.62243 0.83657 0.0
H1012 H 0.45421 0.5488 0.83977 0.0
H1013 H 0.5357 0.77044 0.86942 0.0
H1014 H 0.4677 0.73795 0.87742 0.0
H1015 H 0.46348 0.76683 0.86557 0.0
C1016 C 0.8782 0.45854 0.03273 0.0
C1017 C 0.87354 0.40513 0.02796 0.0
C1018 C 0.85425 0.49507 0.02848 0.0
C1019 C 0.8245 0.47749 0.01929 0.0
C1020 C 0.81874 0.42307 0.01451 0.0
C1021 C 0.84351 0.38769 0.01889 0.0
C1022 C 0.86157 0.55299 0.03377 0.0
C1023 C 0.78689 0.40253 0.00474 0.0
C1024 C 0.71544 0.54084 0.01167 0.0
C1025 C 0.75514 0.59112 0.00547 0.0
C1026 C 0.73732 0.50339 0.01621 0.0
C1027 C 0.80055 0.51677 0.01456 0.0
C1028 C 0.84093 0.56752 0.00833 0.0
C1029 C 0.8177 0.6039 0.00384 0.0
C1030 C 0.69271 0.44935 0.02274 0.0
C1031 C 0.90879 0.5835 0.00644 0.0
H1032 H 0.90133 0.47239 0.03974 0.0
H1033 H 0.83942 0.34634 0.01518 0.0
H1034 H 0.89043 0.59637 0.02935 0.0
H1035 H 0.81419 0.54874 0.03486 0.0
H1036 H 0.88491 0.55961 0.04094 0.0
H1037 H 0.78455 0.35798 1.00212 0.0
H1038 H 0.73771 0.39476 0.00511 0.0
H1039 H 0.81335 0.44073 0.99933 0.0
H1040 H 0.667 0.53042 0.01296 0.0
H1041 H 0.84886 0.64271 0.99909 0.0
H1042 H 0.71323 0.45669 0.03013 0.0
H1043 H 0.68688 0.40362 0.02001 0.0
H1044 H 0.64489 0.44503 0.02325 0.0
H1045 H 0.93551 0.59452 0.01336 0.0
H1046 H 0.93424 0.62489 1.00148 0.0
H1047 H 0.90928 0.5418 1.00319 0.0
C1048 C 0.38198 0.82024 0.2062 0.0
C1049 C 0.44219 0.85231 0.20185 0.0
C1050 C 0.32646 0.80143 0.20072 0.0
C1051 C 0.33144 0.8129 0.19061 0.0
C1052 C 0.39226 0.844 0.18616 0.0
C1053 C 0.44701 0.86445 0.19187 0.0
C1054 C 0.26263 0.77026 0.20578 0.0
C1055 C 0.39948 0.85511 0.17536 0.0
C1056 C 0.18292 0.70983 0.17569 0.0
C1057 C 0.16134 0.7526 0.17365 0.0
C1058 C 0.23911 0.72928 0.181 0.0
C1059 C 0.27304 0.7923 0.18467 0.0
C1060 C 0.25104 0.83552 0.18269 0.0
C1061 C 0.19601 0.81544 0.17704 0.0
C1062 C 0.26225 0.68249 0.18266 0.0
C1063 C 0.28476 0.90247 0.18672 0.0
H1064 H 0.37845 0.81153 0.21394 0.0
H1065 H 0.49372 0.88893 0.18851 0.0
H1066 H 0.23801 0.79775 0.20434 0.0
H1067 H 0.2318 0.72148 0.20289 0.0
H1068 H 0.26719 0.76705 0.21374 0.0
H1069 H 0.44999 0.87741 0.17298 0.0
H1070 H 0.37134 0.80916 0.17147 0.0
H1071 H 0.38049 0.8865 0.17315 0.0
H1072 H 0.15621 0.6613 0.17301 0.0
H1073 H 0.17885 0.84828 0.17554 0.0
H1074 H 0.26201 0.67282 0.19051 0.0
H1075 H 0.31217 0.70316 0.18009 0.0
H1076 H 0.23229 0.63646 0.17886 0.0
H1077 H 0.28714 0.90081 0.19474 0.0
H1078 H 0.26049 0.92955 0.18473 0.0
H1079 H 0.3345 0.92886 0.18401 0.0
C1080 C 0.6129 0.4524 0.35301 0.0
C1081 C 0.59385 0.46704 0.36178 0.0
C1082 C 0.5765 0.39238 0.34865 0.0
C1083 C 0.51938 0.346 0.35313 0.0
C1084 C 0.49998 0.36034 0.362 0.0
C1085 C 0.53759 0.42059 0.36625 0.0
C1086 C 0.59907 0.37867 0.33923 0.0
C1087 C 0.43922 0.31221 0.36697 0.0
C1088 C 0.39549 0.21321 0.33732 0.0
C1089 C 0.40583 0.16242 0.33951 0.0
C1090 C 0.43185 0.27308 0.34174 0.0
C1091 C 0.47985 0.28253 0.34849 0.0
C1092 C 0.49051 0.23155 0.35075 0.0
C1093 C 0.45337 0.17215 0.34624 0.0
C1094 C 0.41897 0.32628 0.33918 0.0
C1095 C 0.54138 0.23982 0.35789 0.0
H1096 H 0.65643 0.48788 0.34953 0.0
H1097 H 0.52245 0.4315 0.37302 0.0
H1098 H 0.60504 0.33634 0.34006 0.0
H1099 H 0.56279 0.36731 0.3335 0.0
H1100 H 0.64505 0.41954 0.33676 0.0
H1101 H 0.43095 0.3307 0.37386 0.0
H1102 H 0.3979 0.29873 0.36211 0.0
H1103 H 0.44089 0.26811 0.36854 0.0
H1104 H 0.35891 0.20628 0.33215 0.0
H1105 H 0.46184 0.13333 0.34799 0.0
H1106 H 0.46251 0.36703 0.33606 0.0
H1107 H 0.40672 0.34385 0.3458 0.0
H1108 H 0.37942 0.31098 0.33388 0.0
H1109 H 0.58871 0.27806 0.35537 0.0
H1110 H 0.54348 0.19534 0.35888 0.0
H1111 H 0.5323 0.25481 0.36502 0.0
C1112 C 0.15468 0.60567 0.51944 0.0
C1113 C 0.12713 0.58997 0.52869 0.0
C1114 C 0.17889 0.56988 0.51504 0.0
C1115 C 0.17487 0.51669 0.51997 0.0
C1116 C 0.14729 0.50065 0.52932 0.0
C1117 C 0.12407 0.53771 0.5336 0.0
C1118 C 0.20864 0.58892 0.50511 0.0
C1119 C 0.14174 0.44396 0.53476 0.0
C1120 C 0.18362 0.39023 0.50478 0.0
C1121 C 0.24694 0.40509 0.50627 0.0
C1122 C 0.15936 0.42576 0.50927 0.0
C1123 C 0.19953 0.47782 0.51531 0.0
C1124 C 0.2635 0.49324 0.51682 0.0
C1125 C 0.28633 0.45654 0.51232 0.0
C1126 C 0.0907 0.40757 0.50755 0.0
C1127 C 0.30797 0.5488 0.52313 0.0
H1128 H 0.15749 0.64613 0.51563 0.0
H1129 H 0.10266 0.52515 0.54073 0.0
H1130 H 0.25837 0.59813 0.50532 0.0
H1131 H 0.18196 0.54936 0.49991 0.0
H1132 H 0.20916 0.63227 0.50233 0.0
H1133 H 0.11896 0.43783 0.54196 0.0
H1134 H 0.11319 0.39982 0.53047 0.0
H1135 H 0.18968 0.44945 0.5358 0.0
H1136 H 0.15275 0.35046 0.50015 0.0
H1137 H 0.33539 0.46861 0.51349 0.0
H1138 H 0.08842 0.44795 0.50416 0.0
H1139 H 0.065 0.39731 0.51456 0.0
H1140 H 0.06541 0.36509 0.5028 0.0
H1141 H 0.31221 0.59358 0.52026 0.0
H1142 H 0.35641 0.55454 0.52356 0.0
H1143 H 0.28831 0.54219 0.53057 0.0
C1144 C 0.5745 0.11832 0.6997 0.0
C1145 C 0.52623 0.12394 0.69495 0.0
C1146 C 0.63516 0.14253 0.69552 0.0
C1147 C 0.648 0.17344 0.68642 0.0
C1148 C 0.59991 0.18035 0.68169 0.0
C1149 C 0.53956 0.15537 0.686 0.0
C1150 C 0.68514 0.134 0.70078 0.0
C1151 C 0.61193 0.21338 0.672 0.0
C1152 C 0.82081 0.2806 0.6789 0.0
C1153 C 0.83051 0.24065 0.6726 0.0
C1154 C 0.76165 0.25944 0.68344 0.0
C1155 C 0.71109 0.19672 0.6817 0.0
C1156 C 0.72062 0.15609 0.67539 0.0
C1157 C 0.78006 0.17858 0.6709 0.0
C1158 C 0.75316 0.30426 0.69008 0.0
C1159 C 0.66798 0.08876 0.67339 0.0
H1160 H 0.56469 0.09416 0.70663 0.0
H1161 H 0.50269 0.16021 0.6823 0.0
H1162 H 0.69898 0.10471 0.69631 0.0
H1163 H 0.7287 0.18095 0.7019 0.0
H1164 H 0.66817 0.11048 0.70793 0.0
H1165 H 0.57032 0.21703 0.66945 0.0
H1166 H 0.65392 0.2621 0.67247 0.0
H1167 H 0.62298 0.18687 0.6665 0.0
H1168 H 0.85937 0.32867 0.68025 0.0
H1169 H 0.78699 0.14721 0.66608 0.0
H1170 H 0.7395 0.28319 0.69743 0.0
H1171 H 0.71392 0.3113 0.68738 0.0
H1172 H 0.79716 0.35157 0.69066 0.0
H1173 H 0.65183 0.06158 0.68027 0.0
H1174 H 0.68328 0.06303 0.66837 0.0
H1175 H 0.6263 0.08942 0.67018 0.0
C1176 C 0.00525 0.5428 0.12599 0.0
C1177 C 0.9609 0.56295 0.12747 0.0
C1178 C 0.00385 0.51026 0.11749 0.0
C1179 C 0.95619 0.49677 0.11044 0.0
C1180 C 0.91076 0.51651 0.11202 0.0
C1181 C 0.91412 0.55007 0.1205 0.0
C1182 C 0.05378 0.49103 0.11601 0.0
C1183 C 0.85866 0.50212 0.10475 0.0
C1184 C 0.98735 0.4648 0.08464 0.0
C1185 C 0.95525 0.39809 0.08443 0.0
C1186 C 0.98777 0.4976 0.09305 0.0
C1187 C 0.95446 0.46263 0.10138 0.0
C1188 C 0.92089 0.39508 0.10111 0.0
C1189 C 0.92229 0.36357 0.09265 0.0
C1190 C 0.02508 0.5696 0.0931 0.0
C1191 C 0.88398 0.35614 0.10978 0.0
H1192 H 0.04153 0.55337 0.13143 0.0
H1193 H 0.87999 0.56597 0.12173 0.0
H1194 H 0.03063 0.43857 0.11514 0.0
H1195 H 0.08088 0.51296 0.10927 0.0
H1196 H 0.08791 0.50571 0.12215 0.0
H1197 H 0.82594 0.51907 0.10721 0.0
H1198 H 0.87991 0.52513 0.09772 0.0
H1199 H 0.83039 0.44997 0.10344 0.0
H1200 H 0.01347 0.49125 0.07828 0.0
H1201 H 0.89763 0.31189 0.09244 0.0
H1202 H 0.06282 0.58657 0.09872 0.0
H1203 H 0.99332 0.58881 0.09497 0.0
H1204 H 0.04783 0.5896 0.08599 0.0
H1205 H 0.91696 0.3653 0.11593 0.0
H1206 H 0.85793 0.30414 0.10823 0.0
H1207 H 0.84913 0.37053 0.11213 0.0
C1208 C 0.49326 0.91623 0.2518 0.0
C1209 C 0.55873 0.95975 0.25094 0.0
C1210 C 0.45914 0.9152 0.2601 0.0
C1211 C 0.49202 0.956 0.26798 0.0
C1212 C 0.55837 0.99886 0.26725 0.0
C1213 C 0.59025 0.00191 0.25862 0.0
C1214 C 0.3878 0.87135 0.26036 0.0
C1215 C 0.59595 0.04149 0.2756 0.0
C1216 C 0.40921 0.00405 0.28673 0.0
C1217 C 0.39489 0.95861 0.29404 0.0
C1218 C 0.43768 0.00158 0.27802 0.0
C1219 C 0.45697 0.95557 0.27687 0.0
C1220 C 0.44486 0.91092 0.28436 0.0
C1221 C 0.41219 0.91176 0.29272 0.0
C1222 C 0.44709 0.0484 0.27007 0.0
C1223 C 0.46778 0.86335 0.28365 0.0
H1224 H 0.46848 0.88297 0.24598 0.0
H1225 H 0.64012 0.03759 0.25791 0.0
H1226 H 0.375 0.83513 0.26613 0.0
H1227 H 0.36379 0.89903 0.26211 0.0
H1228 H 0.36884 0.84629 0.25336 0.0
H1229 H 0.64822 0.06503 0.27437 0.0
H1230 H 0.58309 0.07909 0.27665 0.0
H1231 H 0.58436 0.01352 0.28241 0.0
H1232 H 0.39835 0.04195 0.2878 0.0
H1233 H 0.40079 0.87605 0.29828 0.0
H1234 H 0.4308 0.02334 0.26302 0.0
H1235 H 0.49843 0.08404 0.26935 0.0
H1236 H 0.42078 0.07424 0.27153 0.0
H1237 H 0.44419 0.83044 0.27749 0.0
H1238 H 0.45805 0.83463 0.29036 0.0
H1239 H 0.51988 0.88865 0.28223 0.0
C1240 C 0.46912 0.36733 0.45538 0.0
C1241 C 0.45454 0.40092 0.46219 0.0
C1242 C 0.50137 0.3968 0.44678 0.0
C1243 C 0.51823 0.46093 0.44494 0.0
C1244 C 0.50367 0.495 0.45187 0.0
C1245 C 0.4721 0.46452 0.46045 0.0
C1246 C 0.51664 0.35915 0.43963 0.0
C1247 C 0.52013 0.56314 0.45012 0.0
C1248 C 0.64552 0.55992 0.42636 0.0
C1249 C 0.60838 0.55602 0.41834 0.0
C1250 C 0.61688 0.52793 0.43501 0.0
C1251 C 0.54952 0.492 0.43565 0.0
C1252 C 0.5119 0.48738 0.42749 0.0
C1253 C 0.54189 0.51929 0.41891 0.0
C1254 C 0.65859 0.53336 0.4435 0.0
C1255 C 0.43997 0.45016 0.42792 0.0
H1256 H 0.45486 0.31787 0.45677 0.0
H1257 H 0.45985 0.48989 0.46572 0.0
H1258 H 0.49118 0.35414 0.43272 0.0
H1259 H 0.56844 0.38491 0.43799 0.0
H1260 H 0.50289 0.31077 0.44236 0.0
H1261 H 0.50649 0.5832 0.4563 0.0
H1262 H 0.57208 0.59353 0.44882 0.0
H1263 H 0.49532 0.56574 0.44352 0.0
H1264 H 0.69702 0.58845 0.42587 0.0
H1265 H 0.51334 0.51704 0.41271 0.0
H1266 H 0.64662 0.48516 0.44606 0.0
H1267 H 0.64966 0.55763 0.44962 0.0
H1268 H 0.71014 0.56051 0.44167 0.0
H1269 H 0.42331 0.40013 0.43008 0.0
H1270 H 0.41775 0.44996 0.42087 0.0
H1271 H 0.42282 0.47111 0.4335 0.0
C1272 C 0.09864 0.62802 0.59057 0.0
C1273 C 0.0425 0.60429 0.58517 0.0
C1274 C 0.10062 0.59679 0.59903 0.0
C1275 C 0.04527 0.54021 0.60202 0.0
C1276 C 0.98866 0.51579 0.59646 0.0
C1277 C 0.98791 0.54842 0.5881 0.0
C1278 C 0.16161 0.62462 0.60482 0.0
C1279 C 0.92889 0.45529 0.59933 0.0
C1280 C 0.06162 0.42604 0.61912 0.0
C1281 C 0.04194 0.43925 0.62794 0.0
C1282 C 0.06356 0.45895 0.61064 0.0
C1283 C 0.04615 0.50677 0.61102 0.0
C1284 C 0.02756 0.52123 0.61996 0.0
C1285 C 0.02514 0.48688 0.6283 0.0
C1286 C 0.08304 0.44171 0.60123 0.0
C1287 C 0.00908 0.57219 0.62069 0.0
H1288 H 0.14071 0.67135 0.58822 0.0
H1289 H 0.94471 0.5303 0.58382 0.0
H1290 H 0.153 0.63572 0.61228 0.0
H1291 H 0.17791 0.58929 0.60545 0.0
H1292 H 0.2004 0.66886 0.6015 0.0
H1293 H 0.88939 0.44189 0.59409 0.0
H1294 H 0.93894 0.41538 0.59987 0.0
H1295 H 0.91278 0.46126 0.60658 0.0
H1296 H 0.07497 0.38945 0.61885 0.0
H1297 H 0.0087 0.49635 0.63506 0.0
H1298 H 0.12421 0.48451 0.59803 0.0
H1299 H 0.04328 0.42441 0.59595 0.0
H1300 H 0.09622 0.40416 0.60219 0.0
H1301 H 0.04776 0.61791 0.61775 0.0
H1302 H 0.9992 0.58007 0.62827 0.0
H1303 H 0.96587 0.55848 0.61626 0.0
C1304 C 0.50183 0.0975 0.7527 0.0
C1305 C 0.43781 0.04967 0.75176 0.0
C1306 C 0.53708 0.1014 0.76103 0.0
C1307 C 0.50661 0.05849 0.76879 0.0
C1308 C 0.44137 0.01171 0.76802 0.0
C1309 C 0.40848 0.00663 0.75941 0.0
C1310 C 0.60729 0.15005 0.76139 0.0
C1311 C 0.40634 0.96634 0.77623 0.0
C1312 C 0.5964 0.01418 0.78678 0.0
C1313 C 0.6053 0.05489 0.79459 0.0
C1314 C 0.56766 0.01753 0.77815 0.0
C1315 C 0.54334 0.0598 0.77752 0.0
C1316 C 0.55097 0.10029 0.78542 0.0
C1317 C 0.58333 0.09849 0.79377 0.0
C1318 C 0.56249 0.97497 0.76978 0.0
C1319 C 0.52318 0.14396 0.7852 0.0
H1320 H 0.52466 0.13149 0.74689 0.0
H1321 H 0.35976 0.96817 0.75866 0.0
H1322 H 0.61765 0.18231 0.76767 0.0
H1323 H 0.63525 0.12548 0.76239 0.0
H1324 H 0.62399 0.17932 0.75469 0.0
H1325 H 0.35405 0.93863 0.77496 0.0
H1326 H 0.42399 0.93227 0.77713 0.0
H1327 H 0.41529 0.99297 0.78314 0.0
H1328 H 0.61092 0.97869 0.78741 0.0
H1329 H 0.5908 0.13086 0.79968 0.0
H1330 H 0.57843 0.00293 0.76297 0.0
H1331 H 0.51206 0.9373 0.76877 0.0
H1332 H 0.59142 0.95153 0.77096 0.0
H1333 H 0.5432 0.17762 0.77904 0.0
H1334 H 0.53262 0.17187 0.792 0.0
H1335 H 0.47083 0.11542 0.78409 0.0
C1336 C 0.51963 0.54127 0.96056 0.0
C1337 C 0.5548 0.60788 0.96107 0.0
C1338 C 0.48742 0.51045 0.95203 0.0
C1339 C 0.49007 0.54735 0.94389 0.0
C1340 C 0.52435 0.6148 0.94449 0.0
C1341 C 0.55679 0.64429 0.95307 0.0
C1342 C 0.45209 0.43848 0.95164 0.0
C1343 C 0.5276 0.65573 0.93601 0.0
C1344 C 0.46314 0.47044 0.91906 0.0
C1345 C 0.39895 0.45092 0.91743 0.0
C1346 C 0.49355 0.50229 0.92763 0.0
C1347 C 0.45884 0.51529 0.93465 0.0
C1348 C 0.39405 0.49634 0.93293 0.0
C1349 C 0.36465 0.46374 0.92435 0.0
C1350 C 0.5624 0.52091 0.92925 0.0
C1351 C 0.35572 0.50999 0.94018 0.0
H1352 H 0.51887 0.51332 0.96675 0.0
H1353 H 0.58418 0.69589 0.95353 0.0
H1354 H 0.40161 0.42028 0.94958 0.0
H1355 H 0.47354 0.42225 0.94601 0.0
H1356 H 0.45328 0.41684 0.95868 0.0
H1357 H 0.55338 0.70735 0.93783 0.0
H1358 H 0.55221 0.64783 0.92984 0.0
H1359 H 0.47877 0.64206 0.93355 0.0
H1360 H 0.4891 0.45964 0.91369 0.0
H1361 H 0.31479 0.44806 0.92304 0.0
H1362 H 0.56649 0.49702 0.93585 0.0
H1363 H 0.59159 0.57308 0.93047 0.0
H1364 H 0.58272 0.50786 0.92303 0.0
H1365 H 0.35234 0.48513 0.9471 0.0
H1366 H 0.3067 0.49446 0.93757 0.0
H1367 H 0.38003 0.56184 0.94178 0.0
loop_
_geom_bond_atom_site_label_1
_geom_bond_atom_site_label_2
_geom_bond_distance
_geom_bond_site_symmetry_2
_ccdc_geom_bond_type
Co0 O3 1.970 . S
Co0 N17 1.989 . S
Co0 O25 1.967 1_655 S
Co0 O32 1.920 . S
Co1 O4 1.966 1_455 S
Co1 N10 2.022 . S
Co1 N18 1.993 . S
Co1 O26 1.941 . S
C2 O3 1.258 . S
C2 O4 1.263 . S
O3 Co0 1.970 . S
O3 C2 1.258 . S
O4 Co1 1.966 1_655 S
O4 C2 1.263 . S
C5 O6 1.235 . S
C5 O32 1.289 . S
O6 C5 1.235 . S
C7 C9 1.400 . S
C7 N10 1.351 . S
C7 C12 1.501 1_455 S
C8 C9 1.387 . S
C8 N11 1.341 . S
C9 C7 1.400 . S
C9 C8 1.387 . S
N10 Co1 2.022 . S
N10 C7 1.351 . S
N10 N11 1.365 . S
N11 C8 1.341 . S
N11 N10 1.365 . S
N11 H31 0.862 . S
C12 C7 1.501 1_655 S
C12 H13 0.961 . S
C12 H14 0.961 . S
C12 H15 0.960 . S
H13 C12 0.961 . S
H14 C12 0.961 . S
H15 C12 0.960 . S
C16 N17 1.342 . S
C16 C20 1.401 . S
C16 C21 1.499 . S
N17 Co0 1.989 . S
N17 C16 1.342 . S
N17 N18 1.388 1_655 S
N18 Co1 1.993 . S
N18 N17 1.388 1_455 S
N18 C19 1.344 1_455 S
C19 N18 1.344 1_655 S
C19 C20 1.401 . S
C19 C29 1.507 1_655 S
C20 C16 1.401 . S
C20 C19 1.401 . S
C21 C16 1.499 . S
C21 H22 0.959 . S
C21 H23 0.960 . S
C21 H24 0.961 . S
H22 C21 0.959 . S
H23 C21 0.960 . S
H24 C21 0.961 . S
O25 Co0 1.967 1_455 S
O25 C33 1.258 . S
O26 Co1 1.941 . S
O26 C33 1.266 . S
H27 C29 0.959 . S
H28 C29 0.961 1_655 S
C29 C19 1.507 1_455 S
C29 H27 0.959 . S
C29 H28 0.961 1_455 S
C29 H30 0.960 . S
H30 C29 0.960 . S
H31 N11 0.862 . S
O32 Co0 1.920 . S
O32 C5 1.289 . S
C33 O25 1.258 . S
C33 O26 1.266 . S
Co34 O37 1.970 . S
Co34 N51 1.989 . S
Co34 O59 1.967 1_565 S
Co34 O66 1.920 . S
Co35 O38 1.966 1_545 S
Co35 N44 2.022 . S
Co35 N52 1.993 . S
Co35 O60 1.941 . S
C36 O37 1.258 . S
C36 O38 1.263 . S
O37 Co34 1.970 . S
O37 C36 1.258 . S
O38 Co35 1.966 1_565 S
O38 C36 1.263 . S
C39 O40 1.235 . S
C39 O66 1.289 . S
O40 C39 1.235 . S
C41 C43 1.400 . S
C41 N44 1.351 . S
C41 C46 1.501 1_545 S
C42 C43 1.387 . S
C42 N45 1.341 . S
C43 C41 1.400 . S
C43 C42 1.387 . S
N44 Co35 2.022 . S
N44 C41 1.351 . S
N44 N45 1.365 . S
N45 C42 1.341 . S
N45 N44 1.365 . S
N45 H65 0.862 . S
C46 C41 1.501 1_565 S
C46 H47 0.961 . S
C46 H48 0.961 . S
C46 H49 0.960 . S
H47 C46 0.961 . S
H48 C46 0.961 . S
H49 C46 0.960 . S
C50 N51 1.342 . S
C50 C54 1.401 . S
C50 C55 1.499 . S
N51 Co34 1.989 . S
N51 C50 1.342 . S
N51 N52 1.388 1_565 S
N52 Co35 1.993 . S
N52 N51 1.388 1_545 S
N52 C53 1.347 1_545 S
C53 N52 1.347 1_565 S
C53 C54 1.392 . S
C53 C63 1.512 1_565 S
C54 C50 1.401 . S
C54 C53 1.392 . S
C55 C50 1.499 . S
C55 H56 0.959 . S
C55 H57 0.960 . S
C55 H58 0.961 . S
H56 C55 0.959 . S
H57 C55 0.960 . S
H58 C55 0.961 . S
O59 Co34 1.967 1_545 S
O59 C67 1.258 . S
O60 Co35 1.941 . S
O60 C67 1.266 . S
H61 C63 0.959 . S
H62 C63 0.961 1_565 S
C63 C53 1.512 1_545 S
C63 H61 0.959 . S
C63 H62 0.961 1_545 S
C63 H64 0.960 . S
H64 C63 0.960 . S
H65 N45 0.862 . S
O66 Co34 1.920 . S
O66 C39 1.289 . S
C67 O59 1.258 . S
C67 O60 1.266 . S
Co68 O71 1.970 . S
Co68 N85 1.989 . S
Co68 O93 1.967 . S
Co68 O100 1.920 . S
Co69 O72 1.966 . S
Co69 N78 2.022 . S
Co69 N86 1.993 . S
Co69 O94 1.941 . S
C70 O71 1.258 . S
C70 O72 1.263 . S
O71 Co68 1.970 . S
O71 C70 1.258 . S
O72 Co69 1.966 . S
O72 C70 1.263 . S
C73 O74 1.235 . S
C73 O100 1.289 . S
O74 C73 1.235 . S
C75 C77 1.400 . S
C75 N78 1.351 . S
C75 C80 1.501 . S
C76 C77 1.387 . S
C76 N79 1.341 . S
C77 C75 1.400 . S
C77 C76 1.387 . S
N78 Co69 2.022 . S
N78 C75 1.351 . S
N78 N79 1.365 . S
N79 C76 1.341 . S
N79 N78 1.365 . S
N79 H99 0.862 . S
C80 C75 1.501 . S
C80 H81 0.961 . S
C80 H82 0.961 . S
C80 H83 0.960 . S
H81 C80 0.961 . S
H82 C80 0.961 . S
H83 C80 0.960 . S
C84 N85 1.342 . S
C84 C88 1.401 . S
C84 C89 1.499 . S
N85 Co68 1.989 . S
N85 C84 1.342 . S
N85 N86 1.388 . S
N86 Co69 1.993 . S
N86 N85 1.388 . S
N86 C87 1.346 . S
C87 N86 1.346 . S
C87 C88 1.396 . S
C87 C97 1.510 . S
C88 C84 1.401 . S
C88 C87 1.396 . S
C89 C84 1.499 . S
C89 H90 0.959 . S
C89 H91 0.960 . S
C89 H92 0.961 . S
H90 C89 0.959 . S
H91 C89 0.960 . S
H92 C89 0.961 . S
O93 Co68 1.967 . S
O93 C101 1.258 . S
O94 Co69 1.941 . S
O94 C101 1.266 . S
H95 C97 0.959 . S
H96 C97 0.961 . S
C97 C87 1.510 . S
C97 H95 0.959 . S
C97 H96 0.961 . S
C97 H98 0.960 . S
H98 C97 0.960 . S
H99 N79 0.862 . S
O100 Co68 1.920 . S
O100 C73 1.289 . S
C101 O93 1.258 . S
C101 O94 1.266 . S
Co102 O105 1.970 . S
Co102 N119 1.989 . S
Co102 O127 1.967 1_455 S
Co102 O134 1.920 . S
Co103 O106 1.966 1_655 S
Co103 N112 2.022 . S
Co103 N120 1.993 . S
Co103 O128 1.941 . S
C104 O105 1.258 . S
C104 O106 1.263 . S
O105 Co102 1.970 . S
O105 C104 1.258 . S
O106 Co103 1.966 1_455 S
O106 C104 1.263 . S
C107 O108 1.235 . S
C107 O134 1.289 . S
O108 C107 1.235 . S
C109 C111 1.400 . S
C109 N112 1.351 . S
C109 C114 1.501 1_655 S
C110 C111 1.387 . S
C110 N113 1.341 . S
C111 C109 1.400 . S
C111 C110 1.387 . S
N112 Co103 2.022 . S
N112 C109 1.351 . S
N112 N113 1.365 . S
N113 C110 1.341 . S
N113 N112 1.365 . S
N113 H133 0.862 . S
C114 C109 1.501 1_455 S
C114 H115 0.961 . S
C114 H116 0.961 . S
C114 H117 0.960 . S
H115 C114 0.961 . S
H116 C114 0.961 . S
H117 C114 0.960 . S
C118 N119 1.342 . S
C118 C122 1.401 . S
C118 C123 1.499 . S
N119 Co102 1.989 . S
N119 C118 1.342 . S
N119 N120 1.388 1_455 S
N120 Co103 1.993 . S
N120 N119 1.388 1_655 S
N120 C121 1.344 1_655 S
C121 N120 1.344 1_455 S
C121 C122 1.401 . S
C121 C131 1.507 1_455 S
C122 C118 1.401 . S
C122 C121 1.401 . S
C123 C118 1.499 . S
C123 H124 0.959 . S
C123 H125 0.960 . S
C123 H126 0.961 . S
H124 C123 0.959 . S
H125 C123 0.960 . S
H126 C123 0.961 . S
O127 Co102 1.967 1_655 S
O127 C135 1.258 . S
O128 Co103 1.941 . S
O128 C135 1.266 . S
H129 C131 0.959 . S
H130 C131 0.961 1_455 S
C131 C121 1.507 1_655 S
C131 H129 0.959 . S
C131 H130 0.961 1_655 S
C131 H132 0.960 . S
H132 C131 0.960 . S
H133 N113 0.862 . S
O134 Co102 1.920 . S
O134 C107 1.289 . S
C135 O127 1.258 . S
C135 O128 1.266 . S
Co136 O139 1.970 . S
Co136 N153 1.989 . S
Co136 O161 1.967 1_545 S
Co136 O168 1.920 . S
Co137 O140 1.966 1_565 S
Co137 N146 2.022 . S
Co137 N154 1.993 . S
Co137 O162 1.941 . S
C138 O139 1.258 . S
C138 O140 1.263 . S
O139 Co136 1.970 . S
O139 C138 1.258 . S
O140 Co137 1.966 1_545 S
O140 C138 1.263 . S
C141 O142 1.235 . S
C141 O168 1.289 . S
O142 C141 1.235 . S
C143 C145 1.400 . S
C143 N146 1.351 . S
C143 C148 1.501 1_565 S
C144 C145 1.387 . S
C144 N147 1.341 . S
C145 C143 1.400 . S
C145 C144 1.387 . S
N146 Co137 2.022 . S
N146 C143 1.351 . S
N146 N147 1.365 . S
N147 C144 1.341 . S
N147 N146 1.365 . S
N147 H167 0.862 . S
C148 C143 1.501 1_545 S
C148 H149 0.961 . S
C148 H150 0.961 . S
C148 H151 0.960 . S
H149 C148 0.961 . S
H150 C148 0.961 . S
H151 C148 0.960 . S
C152 N153 1.342 . S
C152 C156 1.401 . S
C152 C157 1.499 . S
N153 Co136 1.989 . S
N153 C152 1.342 . S
N153 N154 1.388 1_545 S
N154 Co137 1.993 . S
N154 N153 1.388 1_565 S
N154 C155 1.347 1_565 S
C155 N154 1.347 1_545 S
C155 C156 1.392 . S
C155 C165 1.512 1_545 S
C156 C152 1.401 . S
C156 C155 1.392 . S
C157 C152 1.499 . S
C157 H158 0.959 . S
C157 H159 0.960 . S
C157 H160 0.961 . S
H158 C157 0.959 . S
H159 C157 0.960 . S
H160 C157 0.961 . S
O161 Co136 1.967 1_565 S
O161 C169 1.258 . S
O162 Co137 1.941 . S
O162 C169 1.266 . S
H163 C165 0.959 . S
H164 C165 0.961 1_545 S
C165 C155 1.512 1_565 S
C165 H163 0.959 . S
C165 H164 0.961 1_565 S
C165 H166 0.960 . S
H166 C165 0.960 . S
H167 N147 0.862 . S
O168 Co136 1.920 . S
O168 C141 1.289 . S
C169 O161 1.258 . S
C169 O162 1.266 . S
Co170 O173 1.970 . S
Co170 N187 1.989 . S
Co170 O195 1.967 . S
Co170 O202 1.920 . S
Co171 O174 1.966 . S
Co171 N180 2.022 . S
Co171 N188 1.993 . S
Co171 O196 1.941 . S
C172 O173 1.258 . S
C172 O174 1.263 . S
O173 Co170 1.970 . S
O173 C172 1.258 . S
O174 Co171 1.966 . S
O174 C172 1.263 . S
C175 O176 1.235 . S
C175 O202 1.289 . S
O176 C175 1.235 . S
C177 C179 1.400 . S
C177 N180 1.351 . S
C177 C182 1.501 . S
C178 C179 1.387 . S
C178 N181 1.341 . S
C179 C177 1.400 . S
C179 C178 1.387 . S
N180 Co171 2.022 . S
N180 C177 1.351 . S
N180 N181 1.365 . S
N181 C178 1.341 . S
N181 N180 1.365 . S
N181 H201 0.862 . S
C182 C177 1.501 . S
C182 H183 0.961 . S
C182 H184 0.961 . S
C182 H185 0.960 . S
H183 C182 0.961 . S
H184 C182 0.961 . S
H185 C182 0.960 . S
C186 N187 1.342 . S
C186 C190 1.401 . S
C186 C191 1.499 . S
N187 Co170 1.989 . S
N187 C186 1.342 . S
N187 N188 1.388 . S
N188 Co171 1.993 . S
N188 N187 1.388 . S
N188 C189 1.346 . S
C189 N188 1.346 . S
C189 C190 1.396 . S
C189 C199 1.510 . S
C190 C186 1.401 . S
C190 C189 1.396 . S
C191 C186 1.499 . S
C191 H192 0.959 . S
C191 H193 0.960 . S
C191 H194 0.961 . S
H192 C191 0.959 . S
H193 C191 0.960 . S
H194 C191 0.961 . S
O195 Co170 1.967 . S
O195 C203 1.258 . S
O196 Co171 1.941 . S
O196 C203 1.266 . S
H197 C199 0.959 . S
H198 C199 0.961 . S
C199 C189 1.510 . S
C199 H197 0.959 . S
C199 H198 0.961 . S
C199 H200 0.960 . S
H200 C199 0.960 . S
H201 N181 0.862 . S
O202 Co170 1.920 . S
O202 C175 1.289 . S
C203 O195 1.258 . S
C203 O196 1.266 . S
Co204 O207 1.970 . S
Co204 N221 1.989 . S
Co204 O229 1.967 1_545 S
Co204 O236 1.920 . S
Co205 O208 1.966 1_565 S
Co205 N214 2.022 . S
Co205 N222 1.993 . S
Co205 O230 1.941 . S
C206 O207 1.258 . S
C206 O208 1.263 . S
O207 Co204 1.970 . S
O207 C206 1.258 . S
O208 Co205 1.966 1_545 S
O208 C206 1.263 . S
C209 O210 1.235 . S
C209 O236 1.289 . S
O210 C209 1.235 . S
C211 C213 1.400 . S
C211 N214 1.351 . S
C211 C216 1.501 1_565 S
C212 C213 1.387 . S
C212 N215 1.341 . S
C213 C211 1.400 . S
C213 C212 1.387 . S
N214 Co205 2.022 . S
N214 C211 1.351 . S
N214 N215 1.365 . S
N215 C212 1.341 . S
N215 N214 1.365 . S
N215 H235 0.862 . S
C216 C211 1.501 1_545 S
C216 H217 0.961 . S
C216 H218 0.961 . S
C216 H219 0.960 . S
H217 C216 0.961 . S
H218 C216 0.961 . S
H219 C216 0.960 . S
C220 N221 1.342 . S
C220 C224 1.401 . S
C220 C225 1.499 . S
N221 Co204 1.989 . S
N221 C220 1.342 . S
N221 N222 1.388 1_545 S
N222 Co205 1.993 . S
N222 N221 1.388 1_565 S
N222 C223 1.344 1_565 S
C223 N222 1.344 1_545 S
C223 C224 1.401 . S
C223 C233 1.507 1_545 S
C224 C220 1.401 . S
C224 C223 1.401 . S
C225 C220 1.499 . S
C225 H226 0.959 . S
C225 H227 0.960 . S
C225 H228 0.961 . S
H226 C225 0.959 . S
H227 C225 0.960 . S
H228 C225 0.961 . S
O229 Co204 1.967 1_565 S
O229 C237 1.258 . S
O230 Co205 1.941 . S
O230 C237 1.266 . S
H231 C233 0.959 . S
H232 C233 0.961 1_545 S
C233 C223 1.507 1_565 S
C233 H231 0.959 . S
C233 H232 0.961 1_565 S
C233 H234 0.960 . S
H234 C233 0.960 . S
H235 N215 0.862 . S
O236 Co204 1.920 . S
O236 C209 1.289 . S
C237 O229 1.258 . S
C237 O230 1.266 . S
Co238 O241 2.009 . S
Co238 N255 1.989 . S
Co238 O263 1.967 . S
Co238 O270 1.920 1_556 S
Co239 O242 1.966 . S
Co239 N248 2.022 . S
Co239 N256 1.993 . S
Co239 O264 1.941 . S
C240 O241 1.288 . S
C240 O242 1.263 . S
O241 Co238 2.009 . S
O241 C240 1.288 . S
O242 Co239 1.966 . S
O242 C240 1.263 . S
C243 O244 1.235 1_554 S
C243 O270 1.289 . S
O244 C243 1.235 1_556 S
C245 C247 1.400 . S
C245 N248 1.351 . S
C245 C250 1.501 . S
C246 C247 1.387 . S
C246 N249 1.341 . S
C247 C245 1.400 . S
C247 C246 1.387 . S
N248 Co239 2.022 . S
N248 C245 1.351 . S
N248 N249 1.365 . S
N249 C246 1.341 . S
N249 N248 1.365 . S
N249 H269 0.862 . S
C250 C245 1.501 . S
C250 H251 0.961 . S
C250 H252 0.961 . S
C250 H253 0.960 . S
H251 C250 0.961 . S
H252 C250 0.961 . S
H253 C250 0.960 . S
C254 N255 1.342 . S
C254 C258 1.401 . S
C254 C259 1.499 . S
N255 Co238 1.989 . S
N255 C254 1.342 . S
N255 N256 1.388 . S
N256 Co239 1.993 . S
N256 N255 1.388 . S
N256 C257 1.346 . S
C257 N256 1.346 . S
C257 C258 1.396 . S
C257 C267 1.510 . S
C258 C254 1.401 . S
C258 C257 1.396 . S
C259 C254 1.499 . S
C259 H260 0.959 . S
C259 H261 0.960 . S
C259 H262 0.961 . S
H260 C259 0.959 . S
H261 C259 0.960 . S
H262 C259 0.961 . S
O263 Co238 1.967 . S
O263 C271 1.258 . S
O264 Co239 1.941 . S
O264 C271 1.266 . S
H265 C267 0.959 . S
H266 C267 0.961 . S
C267 C257 1.510 . S
C267 H265 0.959 . S
C267 H266 0.961 . S
C267 H268 0.960 . S
H268 C267 0.960 . S
H269 N249 0.862 . S
O270 Co238 1.920 1_554 S
O270 C243 1.289 . S
C271 O263 1.258 . S
C271 O264 1.266 . S
Co272 O275 1.970 . S
Co272 N289 1.989 . S
Co272 O297 1.967 1_655 S
Co272 O304 1.920 . S
Co273 O276 1.966 1_455 S
Co273 N282 2.022 . S
Co273 N290 1.993 . S
Co273 O298 1.941 . S
C274 O275 1.258 . S
C274 O276 1.263 . S
O275 Co272 1.970 . S
O275 C274 1.258 . S
O276 Co273 1.966 1_655 S
O276 C274 1.263 . S
C277 O278 1.235 . S
C277 O304 1.289 . S
O278 C277 1.235 . S
C279 C281 1.400 . S
C279 N282 1.351 . S
C279 C284 1.501 1_455 S
C280 C281 1.387 . S
C280 N283 1.341 . S
C281 C279 1.400 . S
C281 C280 1.387 . S
N282 Co273 2.022 . S
N282 C279 1.351 . S
N282 N283 1.365 . S
N283 C280 1.341 . S
N283 N282 1.365 . S
N283 H303 0.862 . S
C284 C279 1.501 1_655 S
C284 H285 0.961 . S
C284 H286 0.961 . S
C284 H287 0.960 . S
H285 C284 0.961 . S
H286 C284 0.961 . S
H287 C284 0.960 . S
C288 N289 1.342 . S
C288 C292 1.401 . S
C288 C293 1.499 . S
N289 Co272 1.989 . S
N289 C288 1.342 . S
N289 N290 1.388 1_655 S
N290 Co273 1.993 . S
N290 N289 1.388 1_455 S
N290 C291 1.347 1_455 S
C291 N290 1.347 1_655 S
C291 C292 1.392 . S
C291 C301 1.512 1_655 S
C292 C288 1.401 . S
C292 C291 1.392 . S
C293 C288 1.499 . S
C293 H294 0.959 . S
C293 H295 0.960 . S
C293 H296 0.961 . S
H294 C293 0.959 . S
H295 C293 0.960 . S
H296 C293 0.961 . S
O297 Co272 1.967 1_455 S
O297 C305 1.258 . S
O298 Co273 1.941 . S
O298 C305 1.266 . S
H299 C301 0.959 . S
H300 C301 0.961 1_655 S
C301 C291 1.512 1_455 S
C301 H299 0.959 . S
C301 H300 0.961 1_455 S
C301 H302 0.960 . S
H302 C301 0.960 . S
H303 N283 0.862 . S
O304 Co272 1.920 . S
O304 C277 1.289 . S
C305 O297 1.258 . S
C305 O298 1.266 . S
Co306 O309 1.970 . S
Co306 N323 1.989 . S
Co306 O331 1.967 1_565 S
Co306 O338 1.920 . S
Co307 O310 1.966 1_545 S
Co307 N316 2.022 . S
Co307 N324 1.993 . S
Co307 O332 1.941 . S
C308 O309 1.258 . S
C308 O310 1.263 . S
O309 Co306 1.970 . S
O309 C308 1.258 . S
O310 Co307 1.966 1_565 S
O310 C308 1.263 . S
C311 O312 1.235 . S
C311 O338 1.289 . S
O312 C311 1.235 . S
C313 C315 1.400 . S
C313 N316 1.351 . S
C313 C318 1.501 1_545 S
C314 C315 1.387 . S
C314 N317 1.341 . S
C315 C313 1.400 . S
C315 C314 1.387 . S
N316 Co307 2.022 . S
N316 C313 1.351 . S
N316 N317 1.365 . S
N317 C314 1.341 . S
N317 N316 1.365 . S
N317 H337 0.862 . S
C318 C313 1.501 1_565 S
C318 H319 0.961 . S
C318 H320 0.961 . S
C318 H321 0.960 . S
H319 C318 0.961 . S
H320 C318 0.961 . S
H321 C318 0.960 . S
C322 N323 1.342 . S
C322 C326 1.401 . S
C322 C327 1.499 . S
N323 Co306 1.989 . S
N323 C322 1.342 . S
N323 N324 1.388 1_565 S
N324 Co307 1.993 . S
N324 N323 1.388 1_545 S
N324 C325 1.344 1_545 S
C325 N324 1.344 1_565 S
C325 C326 1.401 . S
C325 C335 1.507 1_565 S
C326 C322 1.401 . S
C326 C325 1.401 . S
C327 C322 1.499 . S
C327 H328 0.959 . S
C327 H329 0.960 . S
C327 H330 0.961 . S
H328 C327 0.959 . S
H329 C327 0.960 . S
H330 C327 0.961 . S
O331 Co306 1.967 1_545 S
O331 C339 1.258 . S
O332 Co307 1.941 . S
O332 C339 1.266 . S
H333 C335 0.959 . S
H334 C335 0.961 1_565 S
C335 C325 1.507 1_545 S
C335 H333 0.959 . S
C335 H334 0.961 1_545 S
C335 H336 0.960 . S
H336 C335 0.960 . S
H337 N317 0.862 . S
O338 Co306 1.920 . S
O338 C311 1.289 . S
C339 O331 1.258 . S
C339 O332 1.266 . S
Co340 O343 1.970 . S
Co340 N357 1.989 . S
Co340 O365 1.967 . S
Co340 O372 1.920 . S
Co341 O344 1.966 . S
Co341 N350 2.022 . S
Co341 N358 1.993 . S
Co341 O366 1.941 . S
C342 O343 1.258 . S
C342 O344 1.263 . S
O343 Co340 1.970 . S
O343 C342 1.258 . S
O344 Co341 1.966 . S
O344 C342 1.263 . S
C345 O346 1.235 . S
C345 O372 1.289 . S
O346 C345 1.235 . S
C347 C349 1.400 . S
C347 N350 1.351 . S
C347 C352 1.501 . S
C348 C349 1.387 . S
C348 N351 1.341 . S
C349 C347 1.400 . S
C349 C348 1.387 . S
N350 Co341 2.022 . S
N350 C347 1.351 . S
N350 N351 1.365 . S
N351 C348 1.341 . S
N351 N350 1.365 . S
N351 H371 0.862 . S
C352 C347 1.501 . S
C352 H353 0.961 . S
C352 H354 0.961 . S
C352 H355 0.960 . S
H353 C352 0.961 . S
H354 C352 0.961 . S
H355 C352 0.960 . S
C356 N357 1.342 . S
C356 C360 1.401 . S
C356 C361 1.499 . S
N357 Co340 1.989 . S
N357 C356 1.342 . S
N357 N358 1.388 . S
N358 Co341 1.993 . S
N358 N357 1.388 . S
N358 C359 1.346 . S
C359 N358 1.346 . S
C359 C360 1.396 . S
C359 C369 1.510 . S
C360 C356 1.401 . S
C360 C359 1.396 . S
C361 C356 1.499 . S
C361 H362 0.959 . S
C361 H363 0.960 . S
C361 H364 0.961 . S
H362 C361 0.959 . S
H363 C361 0.960 . S
H364 C361 0.961 . S
O365 Co340 1.967 . S
O365 C373 1.258 . S
O366 Co341 1.941 . S
O366 C373 1.266 . S
H367 C369 0.959 . S
H368 C369 0.961 . S
C369 C359 1.510 . S
C369 H367 0.959 . S
C369 H368 0.961 . S
C369 H370 0.960 . S
H370 C369 0.960 . S
H371 N351 0.862 . S
O372 Co340 1.920 . S
O372 C345 1.289 . S
C373 O365 1.258 . S
C373 O366 1.266 . S
Co374 O377 1.970 . S
Co374 N391 1.989 . S
Co374 O399 1.967 1_455 S
Co374 O406 1.920 . S
Co375 O378 1.966 1_655 S
Co375 N384 2.022 . S
Co375 N392 1.993 . S
Co375 O400 1.941 . S
C376 O377 1.258 . S
C376 O378 1.263 . S
O377 Co374 1.970 . S
O377 C376 1.258 . S
O378 Co375 1.966 1_455 S
O378 C376 1.263 . S
C379 O380 1.235 . S
C379 O406 1.289 . S
O380 C379 1.235 . S
C381 C383 1.400 . S
C381 N384 1.351 . S
C381 C386 1.501 1_655 S
C382 C383 1.387 . S
C382 N385 1.341 . S
C383 C381 1.400 . S
C383 C382 1.387 . S
N384 Co375 2.022 . S
N384 C381 1.351 . S
N384 N385 1.365 . S
N385 C382 1.341 . S
N385 N384 1.365 . S
N385 H405 0.862 . S
C386 C381 1.501 1_455 S
C386 H387 0.961 . S
C386 H388 0.961 . S
C386 H389 0.960 . S
H387 C386 0.961 . S
H388 C386 0.961 . S
H389 C386 0.960 . S
C390 N391 1.342 . S
C390 C394 1.401 . S
C390 C395 1.499 . S
N391 Co374 1.989 . S
N391 C390 1.342 . S
N391 N392 1.388 1_455 S
N392 Co375 1.993 . S
N392 N391 1.388 1_655 S
N392 C393 1.347 1_655 S
C393 N392 1.347 1_455 S
C393 C394 1.392 . S
C393 C403 1.512 1_455 S
C394 C390 1.401 . S
C394 C393 1.392 . S
C395 C390 1.499 . S
C395 H396 0.959 . S
C395 H397 0.960 . S
C395 H398 0.961 . S
H396 C395 0.959 . S
H397 C395 0.960 . S
H398 C395 0.961 . S
O399 Co374 1.967 1_655 S
O399 C407 1.258 . S
O400 Co375 1.941 . S
O400 C407 1.266 . S
H401 C403 0.959 . S
H402 C403 0.961 1_455 S
C403 C393 1.512 1_655 S
C403 H401 0.959 . S
C403 H402 0.961 1_655 S
C403 H404 0.960 . S
H404 C403 0.960 . S
H405 N385 0.862 . S
O406 Co374 1.920 . S
O406 C379 1.289 . S
C407 O399 1.258 . S
C407 O400 1.266 . S
C408 C409 1.391 . S
C408 C410 1.394 . S
C408 H424 0.931 . S
C409 C408 1.391 . S
C409 C413 1.376 . S
C410 C408 1.394 . S
C410 C411 1.369 . S
C410 C414 1.531 . S
C411 C410 1.369 . S
C411 C412 1.410 . S
C411 C419 1.503 1_565 S
C412 C411 1.410 . S
C412 C413 1.392 . S
C412 C415 1.511 1_565 S
C413 C409 1.376 . S
C413 C412 1.392 . S
C413 H425 0.929 1_554 S
C414 C410 1.531 . S
C414 H426 0.960 . S
C414 H427 0.962 . S
C414 H428 0.960 . S
C415 C412 1.511 1_545 S
C415 H429 0.900 1_554 S
C415 H430 0.961 . S
C415 H431 0.961 1_554 S
C416 C417 1.370 . S
C416 C418 1.363 . S
C416 H432 0.931 . S
C417 C416 1.370 . S
C417 C421 1.408 . S
C418 C416 1.363 . S
C418 C419 1.370 . S
C418 C422 1.524 1_545 S
C419 C411 1.503 1_545 S
C419 C418 1.370 . S
C419 C420 1.403 . S
C420 C419 1.403 . S
C420 C421 1.404 . S
C420 C423 1.539 . S
C421 C417 1.408 . S
C421 C420 1.404 . S
C421 H433 0.930 . S
C422 C418 1.524 1_565 S
C422 H434 0.956 . S
C422 H435 0.961 . S
C422 H436 0.961 1_565 S
C423 C420 1.539 . S
C423 H437 0.958 . S
C423 H438 0.961 . S
C423 H439 0.960 . S
H424 C408 0.931 . S
H425 C413 0.929 1_556 S
H426 C414 0.960 . S
H427 C414 0.962 . S
H428 C414 0.960 . S
H429 C415 0.900 1_556 S
H430 C415 0.961 . S
H431 C415 0.961 1_556 S
H432 C416 0.931 . S
H433 C421 0.930 . S
H434 C422 0.956 . S
H435 C422 0.961 . S
H436 C422 0.961 1_545 S
H437 C423 0.958 . S
H438 C423 0.961 . S
H439 C423 0.960 . S
C440 C441 1.391 . S
C440 C442 1.394 . S
C440 H456 0.931 . S
C441 C440 1.391 . S
C441 C445 1.376 . S
C442 C440 1.394 . S
C442 C443 1.369 . S
C442 C446 1.531 . S
C443 C442 1.369 . S
C443 C444 1.410 . S
C443 C451 1.503 . S
C444 C443 1.410 . S
C444 C445 1.392 . S
C444 C447 1.511 . S
C445 C441 1.376 . S
C445 C444 1.392 . S
C445 H457 0.929 . S
C446 C442 1.531 . S
C446 H458 0.960 . S
C446 H459 0.962 . S
C446 H460 0.960 . S
C447 C444 1.511 . S
C447 H461 0.961 . S
C447 H462 0.961 . S
C447 H463 0.961 . S
C448 C449 1.370 . S
C448 C450 1.363 . S
C448 H464 0.931 . S
C449 C448 1.370 . S
C449 C453 1.408 . S
C450 C448 1.363 . S
C450 C451 1.370 . S
C450 C454 1.524 . S
C451 C443 1.503 . S
C451 C450 1.370 . S
C451 C452 1.403 . S
C452 C451 1.403 . S
C452 C453 1.404 . S
C452 C455 1.539 . S
C453 C449 1.408 . S
C453 C452 1.404 . S
C453 H465 0.930 . S
C454 C450 1.524 . S
C454 H466 0.956 . S
C454 H467 0.961 . S
C454 H468 0.961 . S
C455 C452 1.539 . S
C455 H469 0.958 . S
C455 H470 0.961 . S
C455 H471 0.960 . S
H456 C440 0.931 . S
H457 C445 0.929 . S
H458 C446 0.960 . S
H459 C446 0.962 . S
H460 C446 0.960 . S
H461 C447 0.961 . S
H462 C447 0.961 . S
H463 C447 0.961 . S
H464 C448 0.931 . S
H465 C453 0.930 . S
H466 C454 0.956 . S
H467 C454 0.961 . S
H468 C454 0.961 . S
H469 C455 0.958 . S
H470 C455 0.961 . S
H471 C455 0.960 . S
C472 C473 1.391 . S
C472 C474 1.394 . S
C472 H488 0.931 . S
C473 C472 1.391 . S
C473 C477 1.376 . S
C474 C472 1.394 . S
C474 C475 1.369 . S
C474 C478 1.531 1_655 S
C475 C474 1.369 . S
C475 C476 1.410 . S
C475 C483 1.503 1_655 S
C476 C475 1.410 . S
C476 C477 1.392 . S
C476 C479 1.511 . S
C477 C473 1.376 . S
C477 C476 1.392 . S
C477 H489 0.929 . S
C478 C474 1.531 1_455 S
C478 H490 0.960 . S
C478 H491 0.962 . S
C478 H492 0.960 . S
C479 C476 1.511 . S
C479 H493 0.961 . S
C479 H494 0.961 . S
C479 H495 0.961 . S
C480 C481 1.370 . S
C480 C482 1.363 . S
C480 H496 0.931 . S
C481 C480 1.370 . S
C481 C485 1.408 . S
C482 C480 1.363 . S
C482 C483 1.370 . S
C482 C486 1.524 . S
C483 C475 1.503 1_455 S
C483 C482 1.370 . S
C483 C484 1.403 . S
C484 C483 1.403 . S
C484 C485 1.404 . S
C484 C487 1.539 . S
C485 C481 1.408 . S
C485 C484 1.404 . S
C485 H497 0.930 . S
C486 C482 1.524 . S
C486 H498 0.956 . S
C486 H499 0.961 1_455 S
C486 H500 0.961 . S
C487 C484 1.539 . S
C487 H501 0.958 . S
C487 H502 0.961 . S
C487 H503 0.960 1_455 S
H488 C472 0.931 . S
H489 C477 0.929 . S
H490 C478 0.960 . S
H491 C478 0.962 . S
H492 C478 0.960 . S
H493 C479 0.961 . S
H494 C479 0.961 . S
H495 C479 0.961 . S
H496 C480 0.931 . S
H497 C485 0.930 . S
H498 C486 0.956 . S
H499 C486 0.961 1_655 S
H500 C486 0.961 . S
H501 C487 0.958 . S
H502 C487 0.961 . S
H503 C487 0.960 1_655 S
C504 C505 1.391 . S
C504 C506 1.394 . S
C504 H520 0.931 . S
C505 C504 1.391 . S
C505 C509 1.376 . S
C506 C504 1.394 . S
C506 C507 1.369 . S
C506 C510 1.531 . S
C507 C506 1.369 . S
C507 C508 1.410 . S
C507 C515 1.503 1_545 S
C508 C507 1.410 . S
C508 C509 1.392 . S
C508 C511 1.511 1_545 S
C509 C505 1.376 . S
C509 C508 1.392 . S
C509 H521 0.929 . S
C510 C506 1.531 . S
C510 H522 0.960 . S
C510 H523 0.962 . S
C510 H524 0.960 . S
C511 C508 1.511 1_565 S
C511 H525 0.961 . S
C511 H526 0.961 . S
C511 H527 0.961 . S
C512 C513 1.370 . S
C512 C514 1.363 . S
C512 H528 0.931 . S
C513 C512 1.370 . S
C513 C517 1.408 . S
C514 C512 1.363 . S
C514 C515 1.370 . S
C514 C518 1.524 . S
C515 C507 1.503 1_565 S
C515 C514 1.370 . S
C515 C516 1.403 . S
C516 C515 1.403 . S
C516 C517 1.404 . S
C516 C519 1.539 1_565 S
C517 C513 1.408 . S
C517 C516 1.404 . S
C517 H529 0.930 . S
C518 C514 1.524 . S
C518 H530 0.956 . S
C518 H531 0.961 . S
C518 H532 0.961 . S
C519 C516 1.539 1_545 S
C519 H533 0.958 . S
C519 H534 0.961 . S
C519 H535 0.960 . S
H520 C504 0.931 . S
H521 C509 0.929 . S
H522 C510 0.960 . S
H523 C510 0.962 . S
H524 C510 0.960 . S
H525 C511 0.961 . S
H526 C511 0.961 . S
H527 C511 0.961 . S
H528 C512 0.931 . S
H529 C517 0.930 . S
H530 C518 0.956 . S
H531 C518 0.961 . S
H532 C518 0.961 . S
H533 C519 0.958 . S
H534 C519 0.961 . S
H535 C519 0.960 . S
C536 C537 1.391 . S
C536 C538 1.394 . S
C536 H552 0.931 . S
C537 C536 1.391 . S
C537 C541 1.376 . S
C538 C536 1.394 . S
C538 C539 1.369 . S
C538 C542 1.531 . S
C539 C538 1.369 . S
C539 C540 1.410 . S
C539 C547 1.503 . S
C540 C539 1.410 . S
C540 C541 1.392 . S
C540 C543 1.511 . S
C541 C537 1.376 . S
C541 C540 1.392 . S
C541 H553 0.929 . S
C542 C538 1.531 . S
C542 H554 0.960 . S
C542 H555 0.962 . S
C542 H556 0.960 . S
C543 C540 1.511 . S
C543 H557 0.961 . S
C543 H558 0.961 . S
C543 H559 0.961 . S
C544 C545 1.370 . S
C544 C546 1.363 . S
C544 H560 0.931 . S
C545 C544 1.370 . S
C545 C549 1.408 . S
C546 C544 1.363 . S
C546 C547 1.370 . S
C546 C550 1.524 . S
C547 C539 1.503 . S
C547 C546 1.370 . S
C547 C548 1.403 . S
C548 C547 1.403 . S
C548 C549 1.404 . S
C548 C551 1.539 . S
C549 C545 1.408 . S
C549 C548 1.404 . S
C549 H561 0.930 . S
C550 C546 1.524 . S
C550 H562 0.956 . S
C550 H563 0.961 . S
C550 H564 0.961 . S
C551 C548 1.539 . S
C551 H565 0.958 . S
C551 H566 0.961 . S
C551 H567 0.960 . S
H552 C536 0.931 . S
H553 C541 0.929 . S
H554 C542 0.960 . S
H555 C542 0.962 . S
H556 C542 0.960 . S
H557 C543 0.961 . S
H558 C543 0.961 . S
H559 C543 0.961 . S
H560 C544 0.931 . S
H561 C549 0.930 . S
H562 C550 0.956 . S
H563 C550 0.961 . S
H564 C550 0.961 . S
H565 C551 0.958 . S
H566 C551 0.961 . S
H567 C551 0.960 . S
C568 C569 1.391 . S
C568 C570 1.394 . S
C568 H584 0.931 . S
C569 C568 1.391 . S
C569 C573 1.376 . S
C570 C568 1.394 . S
C570 C571 1.369 . S
C570 C574 1.531 . S
C571 C570 1.369 . S
C571 C572 1.410 . S
C571 C579 1.503 1_655 S
C572 C571 1.410 . S
C572 C573 1.392 . S
C572 C575 1.511 . S
C573 C569 1.376 . S
C573 C572 1.392 . S
C573 H585 0.929 . S
C574 C570 1.531 . S
C574 H586 0.960 . S
C574 H587 0.962 . S
C574 H588 0.960 . S
C575 C572 1.511 . S
C575 H589 0.961 . S
C575 H590 0.961 1_655 S
C575 H591 0.961 . S
C576 C577 1.370 . S
C576 C578 1.363 . S
C576 H592 0.931 . S
C577 C576 1.370 . S
C577 C581 1.408 . S
C578 C576 1.363 . S
C578 C579 1.370 . S
C578 C582 1.524 . S
C579 C571 1.503 1_455 S
C579 C578 1.370 . S
C579 C580 1.403 . S
C580 C579 1.403 . S
C580 C581 1.404 . S
C580 C583 1.539 1_455 S
C581 C577 1.408 . S
C581 C580 1.404 . S
C581 H593 0.930 . S
C582 C578 1.524 . S
C582 H594 0.956 . S
C582 H595 0.961 . S
C582 H596 0.961 . S
C583 C580 1.539 1_655 S
C583 H597 0.958 . S
C583 H598 0.961 . S
C583 H599 0.960 . S
H584 C568 0.931 . S
H585 C573 0.929 . S
H586 C574 0.960 . S
H587 C574 0.962 . S
H588 C574 0.960 . S
H589 C575 0.961 . S
H590 C575 0.961 1_455 S
H591 C575 0.961 . S
H592 C576 0.931 . S
H593 C581 0.930 . S
H594 C582 0.956 . S
H595 C582 0.961 . S
H596 C582 0.961 . S
H597 C583 0.958 . S
H598 C583 0.961 . S
H599 C583 0.960 . S
C600 C601 1.391 . S
C600 C602 1.394 . S
C600 H616 0.931 . S
C601 C600 1.391 . S
C601 C605 1.376 1_455 S
C602 C600 1.394 . S
C602 C603 1.369 . S
C602 C606 1.531 . S
C603 C602 1.369 . S
C603 C604 1.410 1_455 S
C603 C611 1.503 . S
C604 C603 1.410 1_655 S
C604 C605 1.392 . S
C604 C607 1.511 . S
C605 C601 1.376 1_655 S
C605 C604 1.392 . S
C605 H617 0.929 . S
C606 C602 1.531 . S
C606 H618 0.960 . S
C606 H619 0.962 . S
C606 H620 0.960 . S
C607 C604 1.511 . S
C607 H621 0.961 . S
C607 H622 0.961 1_545 S
C607 H623 0.961 . S
C608 C609 1.370 . S
C608 C610 1.363 . S
C608 H624 0.931 1_455 S
C609 C608 1.370 . S
C609 C613 1.408 . S
C610 C608 1.363 . S
C610 C611 1.370 1_565 S
C610 C614 1.524 1_455 S
C611 C603 1.503 . S
C611 C610 1.370 1_545 S
C611 C612 1.403 . S
C612 C611 1.403 . S
C612 C613 1.404 1_545 S
C612 C615 1.539 . S
C613 C609 1.408 . S
C613 C612 1.404 1_565 S
C613 H625 0.930 . S
C614 C610 1.524 1_655 S
C614 H626 0.956 1_655 S
C614 H627 0.961 . S
C614 H628 0.961 . S
C615 C612 1.539 . S
C615 H629 0.958 . S
C615 H630 0.961 . S
C615 H631 0.960 . S
H616 C600 0.931 . S
H617 C605 0.929 . S
H618 C606 0.960 . S
H619 C606 0.962 . S
H620 C606 0.960 . S
H621 C607 0.961 . S
H622 C607 0.961 1_565 S
H623 C607 0.961 . S
H624 C608 0.931 1_655 S
H625 C613 0.930 . S
H626 C614 0.956 1_455 S
H627 C614 0.961 . S
H628 C614 0.961 . S
H629 C615 0.958 . S
H630 C615 0.961 . S
H631 C615 0.960 . S
C632 C633 1.391 . S
C632 C634 1.394 1_655 S
C632 H648 0.928 1_655 S
C633 C632 1.391 . S
C633 C637 1.376 . S
C634 C632 1.394 1_455 S
C634 C635 1.369 1_455 S
C634 C638 1.531 . S
C635 C634 1.369 1_655 S
C635 C636 1.410 . S
C635 C643 1.503 1_655 S
C636 C635 1.410 . S
C636 C637 1.392 . S
C636 C639 1.511 1_545 S
C637 C633 1.376 . S
C637 C636 1.392 . S
C637 H649 0.929 1_545 S
C638 C634 1.531 . S
C638 H650 0.960 . S
C638 H651 0.962 . S
C638 H652 0.960 . S
C639 C636 1.511 1_565 S
C639 H653 0.961 . S
C639 H654 0.961 . S
C639 H655 0.961 1_565 S
C640 C641 1.370 1_565 S
C640 C642 1.363 . S
C640 H656 0.931 . S
C641 C640 1.370 1_545 S
C641 C645 1.408 . S
C642 C640 1.363 . S
C642 C643 1.370 1_565 S
C642 C646 1.524 . S
C643 C635 1.503 1_455 S
C643 C642 1.370 1_545 S
C643 C644 1.403 . S
C644 C643 1.403 . S
C644 C645 1.404 . S
C644 C647 1.539 . S
C645 C641 1.408 . S
C645 C644 1.404 . S
C645 H657 0.930 . S
C646 C642 1.524 . S
C646 H658 0.956 . S
C646 H659 0.961 1_455 S
C646 H660 0.961 . S
C647 C644 1.539 . S
C647 H661 0.958 . S
C647 H662 0.961 . S
C647 H663 0.960 . S
H648 C632 0.928 1_455 S
H649 C637 0.929 1_565 S
H650 C638 0.960 . S
H651 C638 0.962 . S
H652 C638 0.960 . S
H653 C639 0.961 . S
H654 C639 0.961 . S
H655 C639 0.961 1_545 S
H656 C640 0.931 . S
H657 C645 0.930 . S
H658 C646 0.956 . S
H659 C646 0.961 1_655 S
H660 C646 0.961 . S
H661 C647 0.958 . S
H662 C647 0.961 . S
H663 C647 0.960 . S
C664 C665 1.391 . S
C664 C666 1.394 1_455 S
C664 H680 0.931 . S
C665 C664 1.391 . S
C665 C669 1.376 . S
C666 C664 1.394 1_655 S
C666 C667 1.369 1_655 S
C666 C670 1.531 1_545 S
C667 C666 1.369 1_455 S
C667 C668 1.412 . S
C667 C675 1.502 1_445 S
C668 C667 1.412 . S
C668 C669 1.392 . S
C668 C671 1.511 . S
C669 C665 1.376 . S
C669 C668 1.392 . S
C669 H681 0.929 . S
C670 C666 1.531 1_565 S
C670 H682 0.960 . S
C670 H683 0.962 . S
C670 H684 0.960 . S
C671 C668 1.511 . S
C671 H685 0.961 . S
C671 H686 0.961 . S
C671 H687 0.961 . S
C672 C673 1.370 . S
C672 C674 1.363 . S
C672 H688 0.931 . S
C673 C672 1.370 . S
C673 C677 1.408 . S
C674 C672 1.363 . S
C674 C675 1.370 . S
C674 C678 1.524 1_655 S
C675 C667 1.502 1_665 S
C675 C674 1.370 . S
C675 C676 1.403 . S
C676 C675 1.403 . S
C676 C677 1.404 . S
C676 C679 1.539 1_565 S
C677 C673 1.408 . S
C677 C676 1.404 . S
C677 H689 0.930 . S
C678 C674 1.524 1_455 S
C678 H690 0.956 . S
C678 H691 0.961 . S
C678 H692 0.961 . S
C679 C676 1.539 1_545 S
C679 H693 0.958 . S
C679 H694 0.961 . S
C679 H695 0.960 . S
H680 C664 0.931 . S
H681 C669 0.929 . S
H682 C670 0.960 . S
H683 C670 0.962 . S
H684 C670 0.960 . S
H685 C671 0.961 . S
H686 C671 0.961 . S
H687 C671 0.961 . S
H688 C672 0.931 . S
H689 C677 0.930 . S
H690 C678 0.956 . S
H691 C678 0.961 . S
H692 C678 0.961 . S
H693 C679 0.958 . S
H694 C679 0.961 . S
H695 C679 0.960 . S
C696 C697 1.391 . S
C696 C698 1.394 1_545 S
C696 H712 0.928 1_545 S
C697 C696 1.391 . S
C697 C701 1.376 . S
C698 C696 1.394 1_565 S
C698 C699 1.369 1_565 S
C698 C702 1.531 . S
C699 C698 1.369 1_545 S
C699 C700 1.410 . S
C699 C707 1.503 1_545 S
C700 C699 1.410 . S
C700 C701 1.392 . S
C700 C703 1.511 1_655 S
C701 C697 1.376 . S
C701 C700 1.392 . S
C701 H713 0.929 1_655 S
C702 C698 1.531 . S
C702 H714 0.960 . S
C702 H715 0.962 . S
C702 H716 0.960 . S
C703 C700 1.511 1_455 S
C703 H717 0.961 . S
C703 H718 0.961 . S
C703 H719 0.961 1_455 S
C704 C705 1.370 1_455 S
C704 C706 1.363 . S
C704 H720 0.931 . S
C705 C704 1.370 1_655 S
C705 C709 1.408 . S
C706 C704 1.363 . S
C706 C707 1.370 1_455 S
C706 C710 1.524 . S
C707 C699 1.503 1_565 S
C707 C706 1.370 1_655 S
C707 C708 1.403 . S
C708 C707 1.403 . S
C708 C709 1.404 . S
C708 C711 1.539 . S
C709 C705 1.408 . S
C709 C708 1.404 . S
C709 H721 0.930 . S
C710 C706 1.524 . S
C710 H722 0.956 . S
C710 H723 0.961 1_565 S
C710 H724 0.961 . S
C711 C708 1.539 . S
C711 H725 0.958 . S
C711 H726 0.961 . S
C711 H727 0.960 . S
H712 C696 0.928 1_565 S
H713 C701 0.929 1_455 S
H714 C702 0.960 . S
H715 C702 0.962 . S
H716 C702 0.960 . S
H717 C703 0.961 . S
H718 C703 0.961 . S
H719 C703 0.961 1_655 S
H720 C704 0.931 . S
H721 C709 0.930 . S
H722 C710 0.956 . S
H723 C710 0.961 1_545 S
H724 C710 0.961 . S
H725 C711 0.958 . S
H726 C711 0.961 . S
H727 C711 0.960 . S
C728 C729 1.391 . S
C728 C730 1.394 1_455 S
C728 H744 0.931 . S
C729 C728 1.391 . S
C729 C733 1.376 . S
C730 C728 1.394 1_655 S
C730 C731 1.369 . S
C730 C734 1.531 . S
C731 C730 1.369 . S
C731 C732 1.410 1_655 S
C731 C739 1.503 . S
C732 C731 1.410 1_455 S
C732 C733 1.392 . S
C732 C735 1.511 . S
C733 C729 1.376 . S
C733 C732 1.392 . S
C733 H745 0.929 . S
C734 C730 1.531 . S
C734 H746 0.960 . S
C734 H747 0.962 1_565 S
C734 H748 0.960 . S
C735 C732 1.511 . S
C735 H749 0.961 . S
C735 H750 0.961 . S
C735 H751 0.961 . S
C736 C737 1.370 1_545 S
C736 C738 1.363 . S
C736 H752 0.931 . S
C737 C736 1.370 1_565 S
C737 C741 1.408 . S
C738 C736 1.363 . S
C738 C739 1.370 1_545 S
C738 C742 1.524 1_655 S
C739 C731 1.503 . S
C739 C738 1.370 1_565 S
C739 C740 1.403 . S
C740 C739 1.403 . S
C740 C741 1.404 . S
C740 C743 1.539 . S
C741 C737 1.408 . S
C741 C740 1.404 . S
C741 H753 0.930 . S
C742 C738 1.524 1_455 S
C742 H754 0.956 . S
C742 H755 0.961 . S
C742 H756 0.961 . S
C743 C740 1.539 . S
C743 H757 0.958 . S
C743 H758 0.961 . S
C743 H759 0.960 . S
H744 C728 0.931 . S
H745 C733 0.929 . S
H746 C734 0.960 . S
H747 C734 0.962 1_545 S
H748 C734 0.960 . S
H749 C735 0.961 . S
H750 C735 0.961 . S
H751 C735 0.961 . S
H752 C736 0.931 . S
H753 C741 0.930 . S
H754 C742 0.956 . S
H755 C742 0.961 . S
H756 C742 0.961 . S
H757 C743 0.958 . S
H758 C743 0.961 . S
H759 C743 0.960 . S
C760 C761 1.391 . S
C760 C762 1.394 . S
C760 H776 0.931 . S
C761 C760 1.391 . S
C761 C765 1.376 . S
C762 C760 1.394 . S
C762 C763 1.369 . S
C762 C766 1.531 1_655 S
C763 C762 1.369 . S
C763 C764 1.410 . S
C763 C771 1.503 1_665 S
C764 C763 1.410 . S
C764 C765 1.392 . S
C764 C767 1.511 1_565 S
C765 C761 1.376 . S
C765 C764 1.392 . S
C765 H777 0.929 . S
C766 C762 1.531 1_455 S
C766 H778 0.960 . S
C766 H779 0.962 . S
C766 H780 0.960 . S
C767 C764 1.511 1_545 S
C767 H781 0.961 . S
C767 H782 0.961 . S
C767 H783 0.961 . S
C768 C769 1.370 . S
C768 C770 1.363 . S
C768 H784 0.931 . S
C769 C768 1.370 . S
C769 C773 1.408 . S
C770 C768 1.363 . S
C770 C771 1.370 . S
C770 C774 1.524 . S
C771 C763 1.503 1_445 S
C771 C770 1.370 . S
C771 C772 1.403 1_545 S
C772 C771 1.403 1_565 S
C772 C773 1.404 1_565 S
C772 C775 1.539 1_455 S
C773 C769 1.408 . S
C773 C772 1.404 1_545 S
C773 H785 0.930 . S
C774 C770 1.524 . S
C774 H786 0.956 . S
C774 H787 0.961 . S
C774 H788 0.961 . S
C775 C772 1.539 1_655 S
C775 H789 0.958 . S
C775 H790 0.961 . S
C775 H791 0.960 . S
H776 C760 0.931 . S
H777 C765 0.929 . S
H778 C766 0.960 . S
H779 C766 0.962 . S
H780 C766 0.960 . S
H781 C767 0.961 . S
H782 C767 0.961 . S
H783 C767 0.961 . S
H784 C768 0.931 . S
H785 C773 0.930 . S
H786 C774 0.956 . S
H787 C774 0.961 . S
H788 C774 0.961 . S
H789 C775 0.958 . S
H790 C775 0.961 . S
H791 C775 0.960 . S
C792 C793 1.391 . S
C792 C794 1.394 . S
C792 H808 0.931 . S
C793 C792 1.391 . S
C793 C797 1.376 . S
C794 C792 1.394 . S
C794 C795 1.369 . S
C794 C798 1.531 . S
C795 C794 1.369 . S
C795 C796 1.410 . S
C795 C803 1.503 . S
C796 C795 1.410 . S
C796 C797 1.392 . S
C796 C799 1.511 . S
C797 C793 1.376 . S
C797 C796 1.392 . S
C797 H809 0.929 . S
C798 C794 1.531 . S
C798 H810 0.960 . S
C798 H811 0.962 . S
C798 H812 0.960 . S
C799 C796 1.511 . S
C799 H813 0.961 . S
C799 H814 0.961 . S
C799 H815 0.961 . S
C800 C801 1.370 . S
C800 C802 1.363 . S
C800 H816 0.931 . S
C801 C800 1.370 . S
C801 C805 1.408 . S
C802 C800 1.363 . S
C802 C803 1.370 . S
C802 C806 1.524 . S
C803 C795 1.503 . S
C803 C802 1.370 . S
C803 C804 1.403 . S
C804 C803 1.403 . S
C804 C805 1.404 . S
C804 C807 1.539 . S
C805 C801 1.408 . S
C805 C804 1.404 . S
C805 H817 0.930 . S
C806 C802 1.524 . S
C806 H818 0.956 . S
C806 H819 0.961 . S
C806 H820 0.961 . S
C807 C804 1.539 . S
C807 H821 0.958 . S
C807 H822 0.961 . S
C807 H823 0.960 . S
H808 C792 0.931 . S
H809 C797 0.929 . S
H810 C798 0.960 . S
H811 C798 0.962 . S
H812 C798 0.960 . S
H813 C799 0.961 . S
H814 C799 0.961 . S
H815 C799 0.961 . S
H816 C800 0.931 . S
H817 C805 0.930 . S
H818 C806 0.956 . S
H819 C806 0.961 . S
H820 C806 0.961 . S
H821 C807 0.958 . S
H822 C807 0.961 . S
H823 C807 0.960 . S
C824 C825 1.391 . S
C824 C826 1.394 . S
C824 H840 0.931 . S
C825 C824 1.391 . S
C825 C829 1.376 . S
C826 C824 1.394 . S
C826 C827 1.369 . S
C826 C830 1.531 . S
C827 C826 1.369 . S
C827 C828 1.410 . S
C827 C835 1.503 . S
C828 C827 1.410 . S
C828 C829 1.392 . S
C828 C831 1.511 . S
C829 C825 1.376 . S
C829 C828 1.392 . S
C829 H841 0.929 . S
C830 C826 1.531 . S
C830 H842 0.960 . S
C830 H843 0.962 . S
C830 H844 0.960 . S
C831 C828 1.511 . S
C831 H845 0.961 . S
C831 H846 0.961 . S
C831 H847 0.961 . S
C832 C833 1.370 . S
C832 C834 1.363 . S
C832 H848 0.931 . S
C833 C832 1.370 . S
C833 C837 1.408 . S
C834 C832 1.363 . S
C834 C835 1.370 . S
C834 C838 1.524 . S
C835 C827 1.503 . S
C835 C834 1.370 . S
C835 C836 1.403 . S
C836 C835 1.403 . S
C836 C837 1.404 . S
C836 C839 1.539 . S
C837 C833 1.408 . S
C837 C836 1.404 . S
C837 H849 0.930 . S
C838 C834 1.524 . S
C838 H850 0.956 . S
C838 H851 0.961 . S
C838 H852 0.961 . S
C839 C836 1.539 . S
C839 H853 0.958 . S
C839 H854 0.961 . S
C839 H855 0.960 . S
H840 C824 0.931 . S
H841 C829 0.929 . S
H842 C830 0.960 . S
H843 C830 0.962 . S
H844 C830 0.960 . S
H845 C831 0.961 . S
H846 C831 0.961 . S
H847 C831 0.961 . S
H848 C832 0.931 . S
H849 C837 0.930 . S
H850 C838 0.956 . S
H851 C838 0.961 . S
H852 C838 0.961 . S
H853 C839 0.958 . S
H854 C839 0.961 . S
H855 C839 0.960 . S
C856 C857 1.391 . S
C856 C858 1.394 . S
C856 H872 0.931 . S
C857 C856 1.391 . S
C857 C861 1.376 . S
C858 C856 1.394 . S
C858 C859 1.369 . S
C858 C862 1.531 . S
C859 C858 1.369 . S
C859 C860 1.410 . S
C859 C867 1.503 . S
C860 C859 1.410 . S
C860 C861 1.392 . S
C860 C863 1.511 . S
C861 C857 1.376 . S
C861 C860 1.392 . S
C861 H873 0.929 . S
C862 C858 1.531 . S
C862 H874 0.960 . S
C862 H875 0.962 . S
C862 H876 0.960 . S
C863 C860 1.511 . S
C863 H877 0.961 . S
C863 H878 0.961 . S
C863 H879 0.961 . S
C864 C865 1.370 . S
C864 C866 1.363 . S
C864 H880 0.931 . S
C865 C864 1.370 . S
C865 C869 1.408 . S
C866 C864 1.363 . S
C866 C867 1.370 . S
C866 C870 1.524 . S
C867 C859 1.503 . S
C867 C866 1.370 . S
C867 C868 1.403 . S
C868 C867 1.403 . S
C868 C869 1.404 . S
C868 C871 1.539 . S
C869 C865 1.408 . S
C869 C868 1.404 . S
C869 H881 0.930 . S
C870 C866 1.524 . S
C870 H882 0.956 . S
C870 H883 0.961 . S
C870 H884 0.961 . S
C871 C868 1.539 . S
C871 H885 0.958 . S
C871 H886 0.961 . S
C871 H887 0.960 . S
H872 C856 0.931 . S
H873 C861 0.929 . S
H874 C862 0.960 . S
H875 C862 0.962 . S
H876 C862 0.960 . S
H877 C863 0.961 . S
H878 C863 0.961 . S
H879 C863 0.961 . S
H880 C864 0.931 . S
H881 C869 0.930 . S
H882 C870 0.956 . S
H883 C870 0.961 . S
H884 C870 0.961 . S
H885 C871 0.958 . S
H886 C871 0.961 . S
H887 C871 0.960 . S
C888 C889 1.391 . S
C888 C890 1.394 . S
C888 H904 0.931 . S
C889 C888 1.391 . S
C889 C893 1.376 . S
C890 C888 1.394 . S
C890 C891 1.369 . S
C890 C894 1.531 . S
C891 C890 1.369 . S
C891 C892 1.410 . S
C891 C899 1.503 . S
C892 C891 1.410 . S
C892 C893 1.392 . S
C892 C895 1.511 . S
C893 C889 1.376 . S
C893 C892 1.392 . S
C893 H905 0.929 . S
C894 C890 1.531 . S
C894 H906 0.960 . S
C894 H907 0.962 . S
C894 H908 0.960 . S
C895 C892 1.511 . S
C895 H909 0.961 . S
C895 H910 0.961 . S
C895 H911 0.961 . S
C896 C897 1.370 . S
C896 C898 1.363 . S
C896 H912 0.931 . S
C897 C896 1.370 . S
C897 C901 1.408 . S
C898 C896 1.363 . S
C898 C899 1.370 . S
C898 C902 1.524 . S
C899 C891 1.503 . S
C899 C898 1.370 . S
C899 C900 1.403 . S
C900 C899 1.403 . S
C900 C901 1.404 . S
C900 C903 1.539 . S
C901 C897 1.408 . S
C901 C900 1.404 . S
C901 H913 0.930 . S
C902 C898 1.524 . S
C902 H914 0.956 . S
C902 H915 0.961 . S
C902 H916 0.961 . S
C903 C900 1.539 . S
C903 H917 0.958 . S
C903 H918 0.961 . S
C903 H919 0.960 . S
H904 C888 0.931 . S
H905 C893 0.929 . S
H906 C894 0.960 . S
H907 C894 0.962 . S
H908 C894 0.960 . S
H909 C895 0.961 . S
H910 C895 0.961 . S
H911 C895 0.961 . S
H912 C896 0.931 . S
H913 C901 0.930 . S
H914 C902 0.956 . S
H915 C902 0.961 . S
H916 C902 0.961 . S
H917 C903 0.958 . S
H918 C903 0.961 . S
H919 C903 0.960 . S
C920 C921 1.391 . S
C920 C922 1.394 . S
C920 H936 0.931 . S
C921 C920 1.391 . S
C921 C925 1.376 . S
C922 C920 1.394 . S
C922 C923 1.369 . S
C922 C926 1.531 . S
C923 C922 1.369 . S
C923 C924 1.410 . S
C923 C931 1.503 . S
C924 C923 1.410 . S
C924 C925 1.392 . S
C924 C927 1.511 . S
C925 C921 1.376 . S
C925 C924 1.392 . S
C925 H937 0.929 . S
C926 C922 1.531 . S
C926 H938 0.960 . S
C926 H939 0.962 . S
C926 H940 0.960 1_455 S
C927 C924 1.511 . S
C927 H941 0.961 . S
C927 H942 0.961 . S
C927 H943 0.961 . S
C928 C929 1.370 . S
C928 C930 1.363 . S
C928 H944 0.931 . S
C929 C928 1.370 . S
C929 C933 1.408 . S
C930 C928 1.363 . S
C930 C931 1.370 . S
C930 C934 1.524 . S
C931 C923 1.503 . S
C931 C930 1.370 . S
C931 C932 1.403 . S
C932 C931 1.403 . S
C932 C933 1.404 . S
C932 C935 1.539 . S
C933 C929 1.408 . S
C933 C932 1.404 . S
C933 H945 0.930 . S
C934 C930 1.524 . S
C934 H946 0.956 . S
C934 H947 0.961 . S
C934 H948 0.961 . S
C935 C932 1.539 . S
C935 H949 0.958 . S
C935 H950 0.961 . S
C935 H951 0.960 . S
H936 C920 0.931 . S
H937 C925 0.929 . S
H938 C926 0.960 . S
H939 C926 0.962 . S
H940 C926 0.960 1_655 S
H941 C927 0.961 . S
H942 C927 0.961 . S
H943 C927 0.961 . S
H944 C928 0.931 . S
H945 C933 0.930 . S
H946 C934 0.956 . S
H947 C934 0.961 . S
H948 C934 0.961 . S
H949 C935 0.958 . S
H950 C935 0.961 . S
H951 C935 0.960 . S
C952 C953 1.391 . S
C952 C954 1.394 . S
C952 H968 0.931 . S
C953 C952 1.391 . S
C953 C957 1.376 . S
C954 C952 1.394 . S
C954 C955 1.369 . S
C954 C958 1.531 . S
C955 C954 1.369 . S
C955 C956 1.410 . S
C955 C963 1.503 . S
C956 C955 1.410 . S
C956 C957 1.392 . S
C956 C959 1.511 . S
C957 C953 1.376 . S
C957 C956 1.392 . S
C957 H969 0.929 . S
C958 C954 1.531 . S
C958 H970 0.960 . S
C958 H971 0.962 . S
C958 H972 0.960 . S
C959 C956 1.511 . S
C959 H973 0.961 . S
C959 H974 0.961 . S
C959 H975 0.961 . S
C960 C961 1.370 . S
C960 C962 1.363 . S
C960 H976 0.931 . S
C961 C960 1.370 . S
C961 C965 1.408 . S
C962 C960 1.363 . S
C962 C963 1.370 . S
C962 C966 1.524 . S
C963 C955 1.503 . S
C963 C962 1.370 . S
C963 C964 1.403 . S
C964 C963 1.403 . S
C964 C965 1.404 . S
C964 C967 1.539 . S
C965 C961 1.408 . S
C965 C964 1.404 . S
C965 H977 0.930 . S
C966 C962 1.524 . S
C966 H978 0.956 . S
C966 H979 0.961 . S
C966 H980 0.961 . S
C967 C964 1.539 . S
C967 H981 0.958 . S
C967 H982 0.961 . S
C967 H983 0.960 . S
H968 C952 0.931 . S
H969 C957 0.929 . S
H970 C958 0.960 . S
H971 C958 0.962 . S
H972 C958 0.960 . S
H973 C959 0.961 . S
H974 C959 0.961 . S
H975 C959 0.961 . S
H976 C960 0.931 . S
H977 C965 0.930 . S
H978 C966 0.956 . S
H979 C966 0.961 . S
H980 C966 0.961 . S
H981 C967 0.958 . S
H982 C967 0.961 . S
H983 C967 0.960 . S
C984 C985 1.391 . S
C984 C986 1.394 . S
C984 H1000 0.931 . S
C985 C984 1.391 . S
C985 C989 1.376 . S
C986 C984 1.394 . S
C986 C987 1.369 . S
C986 C990 1.531 . S
C987 C986 1.369 . S
C987 C988 1.410 . S
C987 C995 1.503 . S
C988 C987 1.410 . S
C988 C989 1.392 . S
C988 C991 1.511 . S
C989 C985 1.376 . S
C989 C988 1.392 . S
C989 H1001 0.929 . S
C990 C986 1.531 . S
C990 H1002 0.960 . S
C990 H1003 0.962 . S
C990 H1004 0.960 . S
C991 C988 1.511 . S
C991 H1005 0.961 . S
C991 H1006 0.961 . S
C991 H1007 0.961 . S
C992 C993 1.370 . S
C992 C994 1.363 . S
C992 H1008 0.931 . S
C993 C992 1.370 . S
C993 C997 1.408 . S
C994 C992 1.363 . S
C994 C995 1.370 . S
C994 C998 1.524 . S
C995 C987 1.503 . S
C995 C994 1.370 . S
C995 C996 1.403 . S
C996 C995 1.403 . S
C996 C997 1.404 . S
C996 C999 1.539 . S
C997 C993 1.408 . S
C997 C996 1.404 . S
C997 H1009 0.930 . S
C998 C994 1.524 . S
C998 H1010 0.956 . S
C998 H1011 0.961 . S
C998 H1012 0.961 . S
C999 C996 1.539 . S
C999 H1013 0.958 . S
C999 H1014 0.961 . S
C999 H1015 0.960 . S
H1000 C984 0.931 . S
H1001 C989 0.929 . S
H1002 C990 0.960 . S
H1003 C990 0.962 . S
H1004 C990 0.960 . S
H1005 C991 0.961 . S
H1006 C991 0.961 . S
H1007 C991 0.961 . S
H1008 C992 0.931 . S
H1009 C997 0.930 . S
H1010 C998 0.956 . S
H1011 C998 0.961 . S
H1012 C998 0.961 . S
H1013 C999 0.958 . S
H1014 C999 0.961 . S
H1015 C999 0.960 . S
C1016 C1017 1.391 . S
C1016 C1018 1.394 . S
C1016 H1032 0.931 . S
C1017 C1016 1.391 . S
C1017 C1021 1.376 . S
C1018 C1016 1.394 . S
C1018 C1019 1.369 . S
C1018 C1022 1.531 . S
C1019 C1018 1.369 . S
C1019 C1020 1.410 . S
C1019 C1027 1.503 . S
C1020 C1019 1.410 . S
C1020 C1021 1.392 . S
C1020 C1023 1.511 . S
C1021 C1017 1.376 . S
C1021 C1020 1.392 . S
C1021 H1033 0.929 . S
C1022 C1018 1.531 . S
C1022 H1034 0.960 . S
C1022 H1035 0.962 . S
C1022 H1036 0.960 . S
C1023 C1020 1.511 . S
C1023 H1037 0.961 . S
C1023 H1038 0.961 . S
C1023 H1039 1.017 . S
C1024 C1025 1.370 . S
C1024 C1026 1.363 . S
C1024 H1040 0.931 . S
C1025 C1024 1.370 . S
C1025 C1029 1.408 1_554 S
C1026 C1024 1.363 . S
C1026 C1027 1.370 . S
C1026 C1030 1.524 . S
C1027 C1019 1.503 . S
C1027 C1026 1.370 . S
C1027 C1028 1.403 . S
C1028 C1027 1.403 . S
C1028 C1029 1.404 1_554 S
C1028 C1031 1.496 1_554 S
C1029 C1025 1.408 1_556 S
C1029 C1028 1.404 1_556 S
C1029 H1041 0.930 . S
C1030 C1026 1.524 . S
C1030 H1042 0.956 . S
C1030 H1043 0.961 . S
C1030 H1044 0.961 . S
C1031 C1028 1.496 1_556 S
C1031 H1045 0.922 1_556 S
C1031 H1046 1.084 . S
C1031 H1047 0.927 1_556 S
H1032 C1016 0.931 . S
H1033 C1021 0.929 . S
H1034 C1022 0.960 . S
H1035 C1022 0.962 . S
H1036 C1022 0.960 . S
H1037 C1023 0.961 . S
H1038 C1023 0.961 . S
H1039 C1023 1.017 . S
H1040 C1024 0.931 . S
H1041 C1029 0.930 . S
H1042 C1030 0.956 . S
H1043 C1030 0.961 . S
H1044 C1030 0.961 . S
H1045 C1031 0.922 1_554 S
H1046 C1031 1.084 . S
H1047 C1031 0.927 1_554 S
C1048 C1049 1.391 . S
C1048 C1050 1.394 . S
C1048 H1064 0.931 . S
C1049 C1048 1.391 . S
C1049 C1053 1.376 . S
C1050 C1048 1.394 . S
C1050 C1051 1.369 . S
C1050 C1054 1.531 . S
C1051 C1050 1.369 . S
C1051 C1052 1.410 . S
C1051 C1059 1.503 . S
C1052 C1051 1.410 . S
C1052 C1053 1.392 . S
C1052 C1055 1.511 . S
C1053 C1049 1.376 . S
C1053 C1052 1.392 . S
C1053 H1065 0.929 . S
C1054 C1050 1.531 . S
C1054 H1066 0.960 . S
C1054 H1067 0.962 . S
C1054 H1068 0.960 . S
C1055 C1052 1.511 . S
C1055 H1069 0.961 . S
C1055 H1070 0.961 . S
C1055 H1071 0.961 . S
C1056 C1057 1.370 . S
C1056 C1058 1.363 . S
C1056 H1072 0.931 . S
C1057 C1056 1.370 . S
C1057 C1061 1.408 . S
C1058 C1056 1.363 . S
C1058 C1059 1.370 . S
C1058 C1062 1.524 . S
C1059 C1051 1.503 . S
C1059 C1058 1.370 . S
C1059 C1060 1.403 . S
C1060 C1059 1.403 . S
C1060 C1061 1.404 . S
C1060 C1063 1.539 . S
C1061 C1057 1.408 . S
C1061 C1060 1.404 . S
C1061 H1073 0.930 . S
C1062 C1058 1.524 . S
C1062 H1074 0.956 . S
C1062 H1075 0.961 . S
C1062 H1076 0.961 . S
C1063 C1060 1.539 . S
C1063 H1077 0.958 . S
C1063 H1078 0.961 . S
C1063 H1079 0.960 . S
H1064 C1048 0.931 . S
H1065 C1053 0.929 . S
H1066 C1054 0.960 . S
H1067 C1054 0.962 . S
H1068 C1054 0.960 . S
H1069 C1055 0.961 . S
H1070 C1055 0.961 . S
H1071 C1055 0.961 . S
H1072 C1056 0.931 . S
H1073 C1061 0.930 . S
H1074 C1062 0.956 . S
H1075 C1062 0.961 . S
H1076 C1062 0.961 . S
H1077 C1063 0.958 . S
H1078 C1063 0.961 . S
H1079 C1063 0.960 . S
C1080 C1081 1.391 . S
C1080 C1082 1.394 . S
C1080 H1096 0.931 . S
C1081 C1080 1.391 . S
C1081 C1085 1.376 . S
C1082 C1080 1.394 . S
C1082 C1083 1.369 . S
C1082 C1086 1.531 . S
C1083 C1082 1.369 . S
C1083 C1084 1.410 . S
C1083 C1091 1.503 . S
C1084 C1083 1.410 . S
C1084 C1085 1.392 . S
C1084 C1087 1.511 . S
C1085 C1081 1.376 . S
C1085 C1084 1.392 . S
C1085 H1097 0.929 . S
C1086 C1082 1.531 . S
C1086 H1098 0.960 . S
C1086 H1099 0.962 . S
C1086 H1100 0.960 . S
C1087 C1084 1.511 . S
C1087 H1101 0.961 . S
C1087 H1102 0.961 . S
C1087 H1103 0.961 . S
C1088 C1089 1.370 . S
C1088 C1090 1.363 . S
C1088 H1104 0.931 . S
C1089 C1088 1.370 . S
C1089 C1093 1.408 . S
C1090 C1088 1.363 . S
C1090 C1091 1.370 . S
C1090 C1094 1.524 . S
C1091 C1083 1.503 . S
C1091 C1090 1.370 . S
C1091 C1092 1.403 . S
C1092 C1091 1.403 . S
C1092 C1093 1.404 . S
C1092 C1095 1.539 . S
C1093 C1089 1.408 . S
C1093 C1092 1.404 . S
C1093 H1105 0.930 . S
C1094 C1090 1.524 . S
C1094 H1106 0.956 . S
C1094 H1107 0.961 . S
C1094 H1108 0.961 . S
C1095 C1092 1.539 . S
C1095 H1109 0.958 . S
C1095 H1110 0.961 . S
C1095 H1111 0.960 . S
H1096 C1080 0.931 . S
H1097 C1085 0.929 . S
H1098 C1086 0.960 . S
H1099 C1086 0.962 . S
H1100 C1086 0.960 . S
H1101 C1087 0.961 . S
H1102 C1087 0.961 . S
H1103 C1087 0.961 . S
H1104 C1088 0.931 . S
H1105 C1093 0.930 . S
H1106 C1094 0.956 . S
H1107 C1094 0.961 . S
H1108 C1094 0.961 . S
H1109 C1095 0.958 . S
H1110 C1095 0.961 . S
H1111 C1095 0.960 . S
C1112 C1113 1.391 . S
C1112 C1114 1.394 . S
C1112 H1128 0.931 . S
C1113 C1112 1.391 . S
C1113 C1117 1.376 . S
C1114 C1112 1.394 . S
C1114 C1115 1.369 . S
C1114 C1118 1.531 . S
C1115 C1114 1.369 . S
C1115 C1116 1.410 . S
C1115 C1123 1.503 . S
C1116 C1115 1.410 . S
C1116 C1117 1.392 . S
C1116 C1119 1.511 . S
C1117 C1113 1.376 . S
C1117 C1116 1.392 . S
C1117 H1129 0.929 . S
C1118 C1114 1.531 . S
C1118 H1130 0.960 . S
C1118 H1131 0.962 . S
C1118 H1132 0.960 . S
C1119 C1116 1.511 . S
C1119 H1133 0.961 . S
C1119 H1134 0.961 . S
C1119 H1135 0.961 . S
C1120 C1121 1.370 . S
C1120 C1122 1.363 . S
C1120 H1136 0.931 . S
C1121 C1120 1.370 . S
C1121 C1125 1.408 . S
C1122 C1120 1.363 . S
C1122 C1123 1.370 . S
C1122 C1126 1.524 . S
C1123 C1115 1.503 . S
C1123 C1122 1.370 . S
C1123 C1124 1.403 . S
C1124 C1123 1.403 . S
C1124 C1125 1.404 . S
C1124 C1127 1.539 . S
C1125 C1121 1.408 . S
C1125 C1124 1.404 . S
C1125 H1137 0.930 . S
C1126 C1122 1.524 . S
C1126 H1138 0.956 . S
C1126 H1139 0.961 . S
C1126 H1140 0.961 . S
C1127 C1124 1.539 . S
C1127 H1141 0.958 . S
C1127 H1142 0.961 . S
C1127 H1143 0.960 . S
H1128 C1112 0.931 . S
H1129 C1117 0.929 . S
H1130 C1118 0.960 . S
H1131 C1118 0.962 . S
H1132 C1118 0.960 . S
H1133 C1119 0.961 . S
H1134 C1119 0.961 . S
H1135 C1119 0.961 . S
H1136 C1120 0.931 . S
H1137 C1125 0.930 . S
H1138 C1126 0.956 . S
H1139 C1126 0.961 . S
H1140 C1126 0.961 . S
H1141 C1127 0.958 . S
H1142 C1127 0.961 . S
H1143 C1127 0.960 . S
C1144 C1145 1.391 . S
C1144 C1146 1.394 . S
C1144 H1160 0.931 . S
C1145 C1144 1.391 . S
C1145 C1149 1.376 . S
C1146 C1144 1.394 . S
C1146 C1147 1.369 . S
C1146 C1150 1.531 . S
C1147 C1146 1.369 . S
C1147 C1148 1.410 . S
C1147 C1155 1.503 . S
C1148 C1147 1.410 . S
C1148 C1149 1.392 . S
C1148 C1151 1.511 . S
C1149 C1145 1.376 . S
C1149 C1148 1.392 . S
C1149 H1161 0.929 . S
C1150 C1146 1.531 . S
C1150 H1162 0.960 . S
C1150 H1163 0.962 . S
C1150 H1164 0.960 . S
C1151 C1148 1.511 . S
C1151 H1165 0.961 . S
C1151 H1166 0.961 . S
C1151 H1167 0.961 . S
C1152 C1153 1.370 . S
C1152 C1154 1.363 . S
C1152 H1168 0.931 . S
C1153 C1152 1.370 . S
C1153 C1157 1.408 . S
C1154 C1152 1.363 . S
C1154 C1155 1.370 . S
C1154 C1158 1.524 . S
C1155 C1147 1.503 . S
C1155 C1154 1.370 . S
C1155 C1156 1.403 . S
C1156 C1155 1.403 . S
C1156 C1157 1.404 . S
C1156 C1159 1.539 . S
C1157 C1153 1.408 . S
C1157 C1156 1.404 . S
C1157 H1169 0.930 . S
C1158 C1154 1.524 . S
C1158 H1170 0.956 . S
C1158 H1171 0.961 . S
C1158 H1172 0.961 . S
C1159 C1156 1.539 . S
C1159 H1173 0.958 . S
C1159 H1174 0.961 . S
C1159 H1175 0.960 . S
H1160 C1144 0.931 . S
H1161 C1149 0.929 . S
H1162 C1150 0.960 . S
H1163 C1150 0.962 . S
H1164 C1150 0.960 . S
H1165 C1151 0.961 . S
H1166 C1151 0.961 . S
H1167 C1151 0.961 . S
H1168 C1152 0.931 . S
H1169 C1157 0.930 . S
H1170 C1158 0.956 . S
H1171 C1158 0.961 . S
H1172 C1158 0.961 . S
H1173 C1159 0.958 . S
H1174 C1159 0.961 . S
H1175 C1159 0.960 . S
C1176 C1177 1.391 1_455 S
C1176 C1178 1.394 . S
C1176 H1192 0.931 . S
C1177 C1176 1.391 1_655 S
C1177 C1181 1.376 . S
C1178 C1176 1.394 . S
C1178 C1179 1.369 1_455 S
C1178 C1182 1.531 . S
C1179 C1178 1.369 1_655 S
C1179 C1180 1.410 . S
C1179 C1187 1.503 . S
C1180 C1179 1.410 . S
C1180 C1181 1.392 . S
C1180 C1183 1.511 . S
C1181 C1177 1.376 . S
C1181 C1180 1.392 . S
C1181 H1193 0.929 . S
C1182 C1178 1.531 . S
C1182 H1194 0.960 . S
C1182 H1195 0.962 . S
C1182 H1196 0.960 . S
C1183 C1180 1.511 . S
C1183 H1197 0.961 . S
C1183 H1198 0.961 . S
C1183 H1199 0.961 . S
C1184 C1185 1.370 1_455 S
C1184 C1186 1.363 . S
C1184 H1200 0.931 . S
C1185 C1184 1.370 1_655 S
C1185 C1189 1.408 . S
C1186 C1184 1.363 . S
C1186 C1187 1.370 1_455 S
C1186 C1190 1.524 . S
C1187 C1179 1.503 . S
C1187 C1186 1.370 1_655 S
C1187 C1188 1.403 . S
C1188 C1187 1.403 . S
C1188 C1189 1.404 . S
C1188 C1191 1.539 . S
C1189 C1185 1.408 . S
C1189 C1188 1.404 . S
C1189 H1201 0.930 . S
C1190 C1186 1.524 . S
C1190 H1202 0.956 . S
C1190 H1203 0.961 . S
C1190 H1204 0.961 . S
C1191 C1188 1.539 . S
C1191 H1205 0.958 . S
C1191 H1206 0.961 . S
C1191 H1207 0.960 . S
H1192 C1176 0.931 . S
H1193 C1181 0.929 . S
H1194 C1182 0.960 . S
H1195 C1182 0.962 . S
H1196 C1182 0.960 . S
H1197 C1183 0.961 . S
H1198 C1183 0.961 . S
H1199 C1183 0.961 . S
H1200 C1184 0.931 . S
H1201 C1189 0.930 . S
H1202 C1190 0.956 . S
H1203 C1190 0.961 . S
H1204 C1190 0.961 . S
H1205 C1191 0.958 . S
H1206 C1191 0.961 . S
H1207 C1191 0.960 . S
C1208 C1209 1.391 . S
C1208 C1210 1.394 . S
C1208 H1224 0.931 . S
C1209 C1208 1.391 . S
C1209 C1213 1.376 1_565 S
C1210 C1208 1.394 . S
C1210 C1211 1.369 . S
C1210 C1214 1.531 . S
C1211 C1210 1.369 . S
C1211 C1212 1.410 . S
C1211 C1219 1.503 . S
C1212 C1211 1.410 . S
C1212 C1213 1.392 1_565 S
C1212 C1215 1.511 1_565 S
C1213 C1209 1.376 1_545 S
C1213 C1212 1.392 1_545 S
C1213 H1225 0.929 . S
C1214 C1210 1.531 . S
C1214 H1226 0.960 . S
C1214 H1227 0.962 . S
C1214 H1228 0.960 . S
C1215 C1212 1.511 1_545 S
C1215 H1229 0.961 . S
C1215 H1230 0.961 . S
C1215 H1231 0.961 1_545 S
C1216 C1217 1.370 1_545 S
C1216 C1218 1.363 . S
C1216 H1232 0.931 . S
C1217 C1216 1.370 1_565 S
C1217 C1221 1.408 . S
C1218 C1216 1.363 . S
C1218 C1219 1.370 1_545 S
C1218 C1222 1.524 . S
C1219 C1211 1.503 . S
C1219 C1218 1.370 1_565 S
C1219 C1220 1.403 . S
C1220 C1219 1.403 . S
C1220 C1221 1.404 . S
C1220 C1223 1.539 . S
C1221 C1217 1.408 . S
C1221 C1220 1.404 . S
C1221 H1233 0.930 . S
C1222 C1218 1.524 . S
C1222 H1234 0.956 . S
C1222 H1235 0.961 . S
C1222 H1236 0.961 . S
C1223 C1220 1.539 . S
C1223 H1237 0.958 . S
C1223 H1238 0.961 . S
C1223 H1239 0.960 . S
H1224 C1208 0.931 . S
H1225 C1213 0.929 . S
H1226 C1214 0.960 . S
H1227 C1214 0.962 . S
H1228 C1214 0.960 . S
H1229 C1215 0.961 . S
H1230 C1215 0.961 . S
H1231 C1215 0.961 1_565 S
H1232 C1216 0.931 . S
H1233 C1221 0.930 . S
H1234 C1222 0.956 . S
H1235 C1222 0.961 . S
H1236 C1222 0.961 . S
H1237 C1223 0.958 . S
H1238 C1223 0.961 . S
H1239 C1223 0.960 . S
C1240 C1241 1.391 . S
C1240 C1242 1.394 . S
C1240 H1256 0.931 . S
C1241 C1240 1.391 . S
C1241 C1245 1.376 . S
C1242 C1240 1.394 . S
C1242 C1243 1.369 . S
C1242 C1246 1.531 . S
C1243 C1242 1.369 . S
C1243 C1244 1.410 . S
C1243 C1251 1.503 . S
C1244 C1243 1.410 . S
C1244 C1245 1.392 . S
C1244 C1247 1.511 . S
C1245 C1241 1.376 . S
C1245 C1244 1.392 . S
C1245 H1257 0.929 . S
C1246 C1242 1.531 . S
C1246 H1258 0.960 . S
C1246 H1259 0.962 . S
C1246 H1260 0.960 . S
C1247 C1244 1.511 . S
C1247 H1261 0.961 . S
C1247 H1262 0.961 . S
C1247 H1263 0.961 . S
C1248 C1249 1.370 . S
C1248 C1250 1.363 . S
C1248 H1264 0.931 . S
C1249 C1248 1.370 . S
C1249 C1253 1.408 . S
C1250 C1248 1.363 . S
C1250 C1251 1.370 . S
C1250 C1254 1.524 . S
C1251 C1243 1.503 . S
C1251 C1250 1.370 . S
C1251 C1252 1.403 . S
C1252 C1251 1.403 . S
C1252 C1253 1.404 . S
C1252 C1255 1.539 . S
C1253 C1249 1.408 . S
C1253 C1252 1.404 . S
C1253 H1265 0.930 . S
C1254 C1250 1.524 . S
C1254 H1266 0.956 . S
C1254 H1267 0.961 . S
C1254 H1268 0.961 . S
C1255 C1252 1.539 . S
C1255 H1269 0.958 . S
C1255 H1270 0.961 . S
C1255 H1271 0.960 . S
H1256 C1240 0.931 . S
H1257 C1245 0.929 . S
H1258 C1246 0.960 . S
H1259 C1246 0.962 . S
H1260 C1246 0.960 . S
H1261 C1247 0.961 . S
H1262 C1247 0.961 . S
H1263 C1247 0.961 . S
H1264 C1248 0.931 . S
H1265 C1253 0.930 . S
H1266 C1254 0.956 . S
H1267 C1254 0.961 . S
H1268 C1254 0.961 . S
H1269 C1255 0.958 . S
H1270 C1255 0.961 . S
H1271 C1255 0.960 . S
C1272 C1273 1.391 . S
C1272 C1274 1.394 . S
C1272 H1288 0.931 . S
C1273 C1272 1.391 . S
C1273 C1277 1.376 1_455 S
C1274 C1272 1.394 . S
C1274 C1275 1.369 . S
C1274 C1278 1.531 . S
C1275 C1274 1.369 . S
C1275 C1276 1.410 1_455 S
C1275 C1283 1.503 . S
C1276 C1275 1.410 1_655 S
C1276 C1277 1.392 . S
C1276 C1279 1.511 . S
C1277 C1273 1.376 1_655 S
C1277 C1276 1.392 . S
C1277 H1289 0.929 . S
C1278 C1274 1.531 . S
C1278 H1290 0.960 . S
C1278 H1291 0.962 . S
C1278 H1292 0.960 . S
C1279 C1276 1.511 . S
C1279 H1293 0.961 . S
C1279 H1294 0.961 . S
C1279 H1295 0.961 . S
C1280 C1281 1.370 . S
C1280 C1282 1.363 . S
C1280 H1296 0.931 . S
C1281 C1280 1.370 . S
C1281 C1285 1.408 . S
C1282 C1280 1.363 . S
C1282 C1283 1.370 . S
C1282 C1286 1.524 . S
C1283 C1275 1.503 . S
C1283 C1282 1.370 . S
C1283 C1284 1.403 . S
C1284 C1283 1.403 . S
C1284 C1285 1.404 . S
C1284 C1287 1.539 . S
C1285 C1281 1.408 . S
C1285 C1284 1.404 . S
C1285 H1297 0.930 . S
C1286 C1282 1.524 . S
C1286 H1298 0.956 . S
C1286 H1299 0.961 1_455 S
C1286 H1300 0.961 . S
C1287 C1284 1.539 . S
C1287 H1301 0.958 . S
C1287 H1302 0.961 1_455 S
C1287 H1303 0.960 1_455 S
H1288 C1272 0.931 . S
H1289 C1277 0.929 . S
H1290 C1278 0.960 . S
H1291 C1278 0.962 . S
H1292 C1278 0.960 . S
H1293 C1279 0.961 . S
H1294 C1279 0.961 . S
H1295 C1279 0.961 . S
H1296 C1280 0.931 . S
H1297 C1285 0.930 . S
H1298 C1286 0.956 . S
H1299 C1286 0.961 1_655 S
H1300 C1286 0.961 . S
H1301 C1287 0.958 . S
H1302 C1287 0.961 1_655 S
H1303 C1287 0.960 1_655 S
C1304 C1305 1.391 . S
C1304 C1306 1.394 . S
C1304 H1320 0.931 . S
C1305 C1304 1.391 . S
C1305 C1309 1.376 1_545 S
C1306 C1304 1.394 . S
C1306 C1307 1.369 . S
C1306 C1310 1.531 . S
C1307 C1306 1.369 . S
C1307 C1308 1.410 1_545 S
C1307 C1315 1.503 . S
C1308 C1307 1.410 1_565 S
C1308 C1309 1.392 . S
C1308 C1311 1.511 . S
C1309 C1305 1.376 1_565 S
C1309 C1308 1.392 . S
C1309 H1321 0.929 . S
C1310 C1306 1.531 . S
C1310 H1322 0.960 . S
C1310 H1323 0.962 . S
C1310 H1324 0.960 . S
C1311 C1308 1.511 . S
C1311 H1325 0.961 . S
C1311 H1326 0.961 . S
C1311 H1327 0.961 . S
C1312 C1313 1.370 1_565 S
C1312 C1314 1.368 . S
C1312 H1328 0.931 . S
C1313 C1312 1.370 1_545 S
C1313 C1317 1.408 . S
C1314 C1312 1.368 . S
C1314 C1315 1.358 1_565 S
C1314 C1318 1.532 . S
C1315 C1307 1.503 . S
C1315 C1314 1.358 1_545 S
C1315 C1316 1.403 . S
C1316 C1315 1.403 . S
C1316 C1317 1.404 . S
C1316 C1319 1.539 . S
C1317 C1313 1.408 . S
C1317 C1316 1.404 . S
C1317 H1329 0.930 . S
C1318 C1314 1.532 . S
C1318 H1330 0.956 1_565 S
C1318 H1331 0.961 . S
C1318 H1332 0.961 . S
C1319 C1316 1.539 . S
C1319 H1333 0.958 . S
C1319 H1334 0.961 . S
C1319 H1335 0.960 . S
H1320 C1304 0.931 . S
H1321 C1309 0.929 . S
H1322 C1310 0.960 . S
H1323 C1310 0.962 . S
H1324 C1310 0.960 . S
H1325 C1311 0.961 . S
H1326 C1311 0.961 . S
H1327 C1311 0.961 . S
H1328 C1312 0.931 . S
H1329 C1317 0.930 . S
H1330 C1318 0.956 1_545 S
H1331 C1318 0.961 . S
H1332 C1318 0.961 . S
H1333 C1319 0.958 . S
H1334 C1319 0.961 . S
H1335 C1319 0.960 . S
C1336 C1337 1.391 . S
C1336 C1338 1.394 . S
C1336 H1352 0.931 . S
C1337 C1336 1.391 . S
C1337 C1341 1.376 . S
C1338 C1336 1.394 . S
C1338 C1339 1.369 . S
C1338 C1342 1.531 . S
C1339 C1338 1.369 . S
C1339 C1340 1.410 . S
C1339 C1347 1.503 . S
C1340 C1339 1.410 . S
C1340 C1341 1.392 . S
C1340 C1343 1.511 . S
C1341 C1337 1.376 . S
C1341 C1340 1.392 . S
C1341 H1353 0.929 . S
C1342 C1338 1.531 . S
C1342 H1354 0.960 . S
C1342 H1355 0.962 . S
C1342 H1356 0.960 . S
C1343 C1340 1.511 . S
C1343 H1357 0.961 . S
C1343 H1358 0.961 . S
C1343 H1359 0.961 . S
C1344 C1345 1.370 . S
C1344 C1346 1.363 . S
C1344 H1360 0.931 . S
C1345 C1344 1.370 . S
C1345 C1349 1.408 . S
C1346 C1344 1.363 . S
C1346 C1347 1.370 . S
C1346 C1350 1.524 . S
C1347 C1339 1.503 . S
C1347 C1346 1.370 . S
C1347 C1348 1.403 . S
C1348 C1347 1.403 . S
C1348 C1349 1.404 . S
C1348 C1351 1.539 . S
C1349 C1345 1.408 . S
C1349 C1348 1.404 . S
C1349 H1361 0.930 . S
C1350 C1346 1.524 . S
C1350 H1362 0.956 . S
C1350 H1363 0.961 . S
C1350 H1364 0.961 . S
C1351 C1348 1.539 . S
C1351 H1365 0.958 . S
C1351 H1366 0.961 . S
C1351 H1367 0.960 . S
H1352 C1336 0.931 . S
H1353 C1341 0.929 . S
H1354 C1342 0.960 . S
H1355 C1342 0.962 . S
H1356 C1342 0.960 . S
H1357 C1343 0.961 . S
H1358 C1343 0.961 . S
H1359 C1343 0.961 . S
H1360 C1344 0.931 . S
H1361 C1349 0.930 . S
H1362 C1350 0.956 . S
H1363 C1350 0.961 . S
H1364 C1350 0.961 . S
H1365 C1351 0.958 . S
H1366 C1351 0.961 . S
H1367 C1351 0.960 . S
C409 C240 1.868 1_554 S
C417 C2 1.875 . S
C441 C274 1.853 . S
C449 C36 1.860 . S
C473 C70 1.874 . S
C481 C308 1.877 . S
C505 C342 1.867 . S
C513 C104 1.874 . S
C537 C138 1.854 . S
C545 C376 1.860 . S
C569 C206 1.869 . S
C577 C172 1.874 . S
C601 C9 1.194 . S
C609 C281 1.219 . S
C633 C43 1.184 . S
C641 C315 1.213 . S
C665 C349 1.166 . S
C673 C77 1.186 . S
C697 C383 1.183 . S
C705 C111 1.212 . S
C729 C145 1.188 . S
C737 C213 1.206 . S
C761 C247 1.189 . S
C769 C179 1.206 . S
C793 C243 1.521 . S
C801 C33 1.538 . S
C825 C277 1.558 . S
C833 C67 1.571 . S
C857 C311 1.556 . S
C865 C101 1.588 . S
C889 C135 1.537 . S
C897 C345 1.530 . S
C921 C379 1.566 . S
C929 C169 1.571 . S
C953 C203 1.585 . S
C961 C209 1.581 . S
C985 C237 1.534 . S
C993 C175 1.520 . S
C1017 C5 1.583 . S
C1025 C271 1.589 1_554 S
C1049 C39 1.568 . S
C1057 C305 1.571 . S
C1081 C73 1.526 . S
C1089 C339 1.539 . S
C1113 C107 1.557 . S
C1121 C373 1.588 . S
C1145 C141 1.570 . S
C1153 C407 1.571 . S
C1177 C292 1.338 . S
C1185 C20 1.337 . S
C1209 C54 1.333 . S
C1217 C326 1.339 . S
C1241 C360 1.362 . S
C1249 C88 1.371 . S
C1273 C122 1.331 . S
C1281 C394 1.340 . S
C1305 C156 1.331 . S
C1313 C224 1.339 . S
C1337 C258 1.368 . S
C1345 C190 1.371 . S
