# Generated by pormake.
# Topology unc, (4)-cn, num edge types: 1
# Building blocks:
#     Node 0, Type 0, BuildingBlock: GALJAG_clean_sbu_0, # of connection points: 4
#     Node 1, Type 0, BuildingBlock: GALJAG_clean_sbu_0, # of connection points: 4
#     Node 2, Type 0, BuildingBlock: GALJAG_clean_sbu_0, # of connection points: 4
#     Node 3, Type 0, BuildingBlock: GALJAG_clean_sbu_0, # of connection points: 4
#     Edge 4, Type (0, 0), BuildingBlock: ZUJKAS_clean_linker_0, # of connection points: 2
#     Edge 5, Type (0, 0), BuildingBlock: ZUJKAS_clean_linker_0, # of connection points: 2
#     Edge 6, Type (0, 0), BuildingBlock: ZUJKAS_clean_linker_0, # of connection points: 2
#     Edge 7, Type (0, 0), BuildingBlock: ZUJKAS_clean_linker_0, # of connection points: 2
#     Edge 8, Type (0, 0), BuildingBlock: ZUJKAS_clean_linker_0, # of connection points: 2
#     Edge 9, Type (0, 0), BuildingBlock: ZUJKAS_clean_linker_0, # of connection points: 2
#     Edge 10, Type (0, 0), BuildingBlock: ZUJKAS_clean_linker_0, # of connection points: 2
#     Edge 11, Type (0, 0), BuildingBlock: ZUJKAS_clean_linker_0, # of connection points: 2
# Relax obj value: 0.013
# Max RMSD: 0.034
# Mean RMSD: 0.034
data_MOF--net-unc--node1-GALJAG_clean_sbu_0--edge1-ZUJKAS_clean_linker_0
_symmetry_space_group_name_H-M    P1
_symmetry_Int_Tables_number       1
_symmetry_cell_setting            triclinic
loop_
_symmetry_equiv_pos_as_xyz
'x, y, z'
_cell_length_a     40.935828
_cell_length_b     40.964914
_cell_length_c     26.293279
_cell_angle_alpha  89.970963
_cell_angle_beta   90.091597
_cell_angle_gamma 89.993963
loop_
_atom_site_label
_atom_site_type_symbol
_atom_site_fract_x
_atom_site_fract_y
_atom_site_fract_z
_atom_type_partial_charge
In0 In 0.00138 0.67593 0.00038 0.0
O1 O 0.04883 0.70475 0.99077 0.0
O2 O 0.02239 0.71061 0.05965 0.0
C3 C 0.00923 0.63226 0.92456 0.0
C4 C 0.9559 0.71884 0.9676 0.0
C5 C 0.99321 0.63187 0.07561 0.0
O6 O 0.03308 0.64701 0.94458 0.0
O7 O 0.98167 0.64002 0.94217 0.0
O8 O 0.96951 0.64724 0.05625 0.0
O9 O 0.02079 0.6392 0.05764 0.0
C10 C 0.04709 0.7184 0.03373 0.0
O11 O 0.95383 0.70457 0.01006 0.0
O12 O 0.98083 0.71145 0.94193 0.0
In13 In 0.32311 -0.00019 0.24632 0.0
O14 O 0.30041 0.94882 0.25 0.0
O15 O 0.28229 0.98201 0.19456 0.0
C16 C 0.36969 0.99396 0.31847 0.0
C17 C 0.28308 0.04677 0.28288 0.0
C18 C 0.36378 0.00417 0.16625 0.0
O19 O 0.34579 0.97451 0.31597 0.0
O20 O 0.36952 0.01634 0.28562 0.0
O21 O 0.34944 0.02881 0.1846 0.0
O22 O 0.35684 0.9774 0.18743 0.0
C23 C 0.28061 0.95389 0.21396 0.0
O24 O 0.29701 0.04909 0.24025 0.0
O25 O 0.28951 0.02096 0.30701 0.0
In26 In 0.00184 0.32045 0.50104 0.0
O27 O 0.04962 0.29217 0.5104 0.0
O28 O 0.02303 0.28606 0.44159 0.0
C29 C 0.00909 0.36378 0.57757 0.0
C30 C 0.956 0.27742 0.53196 0.0
C31 C 0.99435 0.36526 0.42664 0.0
O32 O 0.033 0.34862 0.55862 0.0
O33 O 0.98171 0.35641 0.55884 0.0
O34 O 0.97057 0.3493 0.44437 0.0
O35 O 0.02172 0.35802 0.44559 0.0
C36 C 0.04793 0.27857 0.46739 0.0
O37 O 0.95382 0.29279 0.49047 0.0
O38 O 0.98125 0.28375 0.55769 0.0
In39 In 0.67978 0.99926 0.75166 0.0
O40 O 0.70346 0.94872 0.74748 0.0
O41 O 0.71972 0.98139 0.80498 0.0
C42 C 0.63277 0.99351 0.6803 0.0
C43 C 0.71989 0.04578 0.71401 0.0
C44 C 0.63846 0.00364 0.8309 0.0
O45 O 0.65592 0.9732 0.6837 0.0
O46 O 0.63402 0.0167 0.7117 0.0
O47 O 0.65331 0.02823 0.81331 0.0
O48 O 0.64535 0.97692 0.80955 0.0
C49 C 0.72233 0.9536 0.78478 0.0
O50 O 0.70664 0.04815 0.75716 0.0
O51 O 0.71277 0.02013 0.68998 0.0
H52 H 0.0412 0.59847 0.12482 0.0
H53 H 0.03496 0.55416 0.18626 0.0
H54 H 0.93016 0.5629 0.17634 0.0
H55 H 0.93619 0.60736 0.1144 0.0
H56 H 0.0007 0.55533 0.28234 0.0
H57 H 0.94969 0.46483 0.1455 0.0
H58 H 0.97092 0.50112 0.12484 0.0
H59 H 0.92999 0.50404 0.14868 0.0
C60 C 0.0168 0.59106 0.13578 0.0
C61 C 0.98917 0.60629 0.11468 0.0
C62 C 0.0133 0.56576 0.17089 0.0
C63 C 0.98213 0.55506 0.18529 0.0
C64 C 0.95442 0.57056 0.16508 0.0
H65 H 0.93763 0.38903 0.3854 0.0
H66 H 0.93169 0.43588 0.32782 0.0
C67 C 0.95791 0.59602 0.12999 0.0
C68 C 0.97905 0.52759 0.22151 0.0
H69 H 0.95809 0.44707 0.22967 0.0
C70 C 0.99115 0.53172 0.271 0.0
C71 C 0.96639 0.49693 0.20656 0.0
C72 C 0.95365 0.49117 0.15345 0.0
C73 C 0.99154 0.50577 0.30578 0.0
C74 C 0.98016 0.47473 0.29022 0.0
C75 C 0.96693 0.47088 0.24132 0.0
C76 C 0.98354 0.44568 0.3233 0.0
C77 C 0.00427 0.51179 0.35886 0.0
C78 C 0.01467 0.43521 0.33856 0.0
C79 C 0.01813 0.4086 0.37125 0.0
C80 C 0.9905 0.39178 0.38902 0.0
C81 C 0.95935 0.40159 0.37237 0.0
C82 C 0.95591 0.42832 0.3396 0.0
H83 H 0.00288 0.53805 0.3692 0.0
H84 H 0.99038 0.49741 0.38737 0.0
H85 H 0.03029 0.50427 0.36086 0.0
H86 H 0.03634 0.44783 0.32545 0.0
H87 H 0.04246 0.4015 0.38313 0.0
H88 H 0.36962 0.95985 0.40817 0.0
H89 H 0.41377 0.95727 0.47145 0.0
H90 H 0.47447 0.01664 0.37436 0.0
H91 H 0.43018 0.02049 0.31252 0.0
H92 H 0.47504 0.93463 0.46991 0.0
H93 H 0.47847 0.06788 0.5033 0.0
H94 H 0.44635 0.04866 0.46716 0.0
H95 H 0.48485 0.05828 0.43759 0.0
C96 C 0.39238 0.97241 0.40059 0.0
C97 C 0.39635 0.99081 0.35594 0.0
C98 C 0.41758 0.97087 0.43662 0.0
C99 C 0.44715 0.98745 0.42821 0.0
C100 C 0.45152 0.00458 0.38251 0.0
H101 H 0.63062 0.95764 0.59235 0.0
H102 H 0.58526 0.95444 0.53141 0.0
C103 C 0.42624 0.00662 0.34707 0.0
C104 C 0.47344 0.98716 0.46713 0.0
H105 H 0.5237 0.03734 0.53493 0.0
C106 C 0.48554 0.95707 0.48451 0.0
C107 C 0.48675 0.01644 0.48683 0.0
C108 C 0.47318 0.0496 0.47317 0.0
C109 C 0.51102 0.95547 0.52033 0.0
C110 C 0.52545 0.98479 0.53796 0.0
C111 C 0.51297 0.01483 0.52104 0.0
C112 C 0.55278 0.9853 0.57522 0.0
C113 C 0.52163 0.92244 0.53967 0.0
C114 C 0.55003 0.00437 0.61934 0.0
C115 C 0.57614 0.00696 0.65318 0.0
C116 C 0.60546 0.99018 0.64404 0.0
C117 C 0.60818 0.97065 0.60038 0.0
C118 C 0.58217 0.96857 0.56584 0.0
H119 H 0.50202 0.90393 0.53489 0.0
H120 H 0.54314 0.91409 0.51759 0.0
H121 H 0.52854 0.92347 0.58049 0.0
H122 H 0.52767 0.01751 0.62747 0.0
H123 H 0.57327 0.02202 0.68675 0.0
H124 H 0.06603 0.60636 0.8873 0.0
H125 H 0.07163 0.5619 0.82529 0.0
H126 H 0.96676 0.55598 0.81239 0.0
H127 H 0.96097 0.60027 0.87382 0.0
H128 H 0.04526 0.49757 0.83462 0.0
H129 H 0.99789 0.56123 0.66369 0.0
H130 H 0.01158 0.58278 0.71972 0.0
H131 H 0.97158 0.56466 0.718 0.0
C132 C 0.04421 0.59578 0.87078 0.0
C133 C 0.01306 0.60683 0.88522 0.0
C134 C 0.04745 0.57038 0.83553 0.0
C135 C 0.01962 0.55598 0.81386 0.0
C136 C 0.98855 0.56718 0.82799 0.0
H137 H 0.96078 0.39857 0.62332 0.0
H138 H 0.96669 0.44457 0.6817 0.0
C139 C 0.98529 0.59239 0.86326 0.0
C140 C 0.02263 0.52824 0.77816 0.0
H141 H 0.00034 0.50299 0.65947 0.0
C142 C 0.03591 0.49879 0.79605 0.0
C143 C 0.01044 0.53003 0.72792 0.0
C144 C 0.99735 0.56146 0.70594 0.0
C145 C 0.03582 0.47055 0.76573 0.0
C146 C 0.02252 0.47209 0.71613 0.0
C147 C 0.01031 0.50186 0.69769 0.0
C148 C 0.0195 0.44286 0.68337 0.0
C149 C 0.04863 0.43901 0.7877 0.0
C150 C 0.04729 0.4265 0.6653 0.0
C151 C 0.04398 0.40006 0.63199 0.0
C152 C 0.01283 0.38977 0.61606 0.0
C153 C 0.9851 0.40589 0.63495 0.0
C154 C 0.98842 0.43222 0.6682 0.0
H155 H 0.05194 0.44047 0.82959 0.0
H156 H 0.0318 0.41851 0.77893 0.0
H157 H 0.07267 0.43337 0.77038 0.0
H158 H 0.07151 0.43467 0.67595 0.0
H159 H 0.06578 0.38822 0.61777 0.0
H160 H 0.3896 0.05958 0.12451 0.0
H161 H 0.43522 0.06327 0.0644 0.0
H162 H 0.4409 0.95821 0.05911 0.0
H163 H 0.39539 0.9543 0.11882 0.0
H164 H 0.49884 0.03673 0.08186 0.0
H165 H 0.44145 0.98558 0.90805 0.0
H166 H 0.41787 0.00081 0.96098 0.0
H167 H 0.436 0.96088 0.96386 0.0
C168 C 0.40025 0.03729 0.10987 0.0
C169 C 0.38892 0.00664 0.12624 0.0
C170 C 0.42634 0.03945 0.07573 0.0
C171 C 0.44118 0.01102 0.05703 0.0
C172 C 0.42942 0.98043 0.07247 0.0
H173 H 0.6048 0.95388 0.87505 0.0
H174 H 0.55791 0.95799 0.93207 0.0
C175 C 0.4035 0.97824 0.10673 0.0
C176 C 0.47023 0.01309 0.02381 0.0
H177 H 0.49954 0.98954 0.90816 0.0
C178 C 0.49899 0.02679 0.04364 0.0
C179 C 0.47023 3e-05 0.9741 0.0
C180 C 0.43967 0.98625 0.9502 0.0
C181 C 0.52819 0.02661 0.01568 0.0
C182 C 0.52836 0.01284 0.96637 0.0
C183 C 0.49937 -0.00011 0.94614 0.0
C184 C 0.55845 0.01076 0.93538 0.0
C185 C 0.55884 0.04002 0.03981 0.0
C186 C 0.57456 0.03909 0.9189 0.0
C187 C 0.60154 0.03681 0.8865 0.0
C188 C 0.6126 0.00616 0.86977 0.0
C189 C 0.59688 0.97784 0.88735 0.0
C190 C 0.57003 0.98014 0.91978 0.0
H191 H 0.5563 0.04263 0.08168 0.0
H192 H 0.5801 0.02402 0.03173 0.0
H193 H 0.56404 0.0645 0.02369 0.0
H194 H 0.56568 0.06298 0.92981 0.0
H195 H 0.61303 0.05905 0.87323 0.0
H196 H 0.27013 0.89267 0.25223 0.0
H197 H 0.23116 0.85177 0.22143 0.0
H198 H 0.20011 0.91777 0.10295 0.0
H199 H 0.23848 0.95891 0.13406 0.0
H200 H 0.14868 0.8896 0.15232 0.0
H201 H 0.23855 0.7953 0.09448 0.0
H202 H 0.24259 0.80818 0.15945 0.0
H203 H 0.25019 0.83677 0.10891 0.0
C204 C 0.25506 0.89839 0.21952 0.0
C205 C 0.2574 0.92894 0.19546 0.0
C206 C 0.23297 0.87494 0.20177 0.0
C207 C 0.21311 0.88154 0.15939 0.0
C208 C 0.21531 0.91211 0.13555 0.0
H209 H 0.09962 0.74282 0.98217 0.0
H210 H 0.13971 0.7827 0.01274 0.0
C211 C 0.23726 0.93558 0.15336 0.0
C212 C 0.18929 0.85706 0.14065 0.0
H213 H 0.18263 0.77972 0.09334 0.0
C214 C 0.1561 0.8656 0.13932 0.0
C215 C 0.19909 0.82593 0.12306 0.0
C216 C 0.23457 0.81602 0.12101 0.0
C217 C 0.13235 0.84372 0.12142 0.0
C218 C 0.14201 0.8122 0.10541 0.0
C219 C 0.17526 0.80379 0.10611 0.0
C220 C 0.11799 0.78772 0.08733 0.0
C221 C 0.09723 0.85484 0.1189 0.0
C222 C 0.09281 0.77696 0.11938 0.0
C223 C 0.0698 0.75439 0.10192 0.0
C224 C 0.07179 0.74186 0.05226 0.0
C225 C 0.09743 0.75212 0.02057 0.0
C226 C 0.12035 0.77484 0.03799 0.0
H227 H 0.09527 0.8819 0.11893 0.0
H228 H 0.08492 0.8453 0.08431 0.0
H229 H 0.08396 0.84555 0.15271 0.0
H230 H 0.09097 0.78599 0.15797 0.0
H231 H 0.05049 0.74673 0.12738 0.0
H232 H 0.24865 0.0452 0.37153 0.0
H233 H 0.20965 0.08572 0.40287 0.0
H234 H 0.227 0.14521 0.2703 0.0
H235 H 0.26626 0.10483 0.23872 0.0
H236 H 0.22661 0.18009 0.36494 0.0
H237 H 0.11771 0.10063 0.3409 0.0
H238 H 0.15051 0.08279 0.37695 0.0
H239 H 0.15637 0.09201 0.31078 0.0
C240 C 0.24422 0.06694 0.34907 0.0
C241 C 0.26036 0.07178 0.30252 0.0
C242 C 0.22184 0.08997 0.36693 0.0
C243 C 0.21516 0.11819 0.33854 0.0
C244 C 0.23175 0.12348 0.29262 0.0
H245 H 0.04997 0.24833 0.37512 0.0
H246 H 0.09152 0.2105 0.34368 0.0
C247 C 0.2541 0.1004 0.27462 0.0
C248 C 0.19068 0.1421 0.35667 0.0
H249 H 0.10967 0.15076 0.38407 0.0
C250 C 0.20102 0.17377 0.36906 0.0
C251 C 0.15729 0.1338 0.36138 0.0
C252 C 0.14463 0.10056 0.34641 0.0
C253 C 0.17886 0.1973 0.38685 0.0
C254 C 0.14561 0.18872 0.39293 0.0
C255 C 0.13523 0.15717 0.37979 0.0
C256 C 0.12099 0.21222 0.41201 0.0
C257 C 0.19111 0.23127 0.39818 0.0
C258 C 0.12365 0.22551 0.46105 0.0
C259 C 0.09997 0.2472 0.47909 0.0
C260 C 0.07311 0.25576 0.4485 0.0
C261 C 0.0704 0.24223 0.39956 0.0
C262 C 0.0941 0.22061 0.38155 0.0
H263 H 0.21496 0.23614 0.37955 0.0
H264 H 0.17325 0.24997 0.3854 0.0
H265 H 0.19451 0.23397 0.43984 0.0
H266 H 0.14386 0.21882 0.48558 0.0
H267 H 0.10259 0.2571 0.51707 0.0
H268 H 0.73989 0.10245 0.75926 0.0
H269 H 0.77864 0.14263 0.72584 0.0
H270 H 0.78951 0.08549 0.58918 0.0
H271 H 0.75111 0.04507 0.62253 0.0
H272 H 0.84867 0.10454 0.63177 0.0
H273 H 0.76436 0.20995 0.61229 0.0
H274 H 0.76452 0.19157 0.67434 0.0
H275 H 0.75004 0.1686 0.62062 0.0
C276 C 0.75038 0.09858 0.72196 0.0
C277 C 0.74243 0.07066 0.69346 0.0
C278 C 0.77236 0.12163 0.7028 0.0
C279 C 0.7866 0.11725 0.65475 0.0
C280 C 0.77867 0.0894 0.62625 0.0
H281 H 0.89963 0.25982 0.48331 0.0
H282 H 0.85855 0.2204 0.51207 0.0
C283 C 0.75671 0.06636 0.64534 0.0
C284 C 0.81079 0.14096 0.63498 0.0
H285 H 0.82102 0.2209 0.60178 0.0
C286 C 0.84262 0.12996 0.62503 0.0
C287 C 0.80269 0.17399 0.62562 0.0
C288 C 0.76848 0.18676 0.63328 0.0
C289 C 0.86677 0.15127 0.60688 0.0
C290 C 0.85898 0.18455 0.59922 0.0
C291 C 0.82698 0.19543 0.60816 0.0
C292 C 0.88376 0.20847 0.58203 0.0
C293 C 0.90032 0.1379 0.59548 0.0
C294 C 0.91129 0.21507 0.61217 0.0
C295 C 0.93477 0.23749 0.59585 0.0
C296 C 0.93102 0.25385 0.5492 0.0
C297 C 0.90322 0.2475 0.51936 0.0
C298 C 0.87973 0.22506 0.53574 0.0
H299 H 0.89992 0.11095 0.59063 0.0
H300 H 0.91054 0.14911 0.56048 0.0
H301 H 0.91695 0.14366 0.62761 0.0
H302 H 0.91455 0.20298 0.64847 0.0
H303 H 0.95583 0.24201 0.61982 0.0
H304 H 0.73502 0.89322 0.74496 0.0
H305 H 0.77395 0.85256 0.77675 0.0
H306 H 0.8005 0.91715 0.89956 0.0
H307 H 0.76218 0.95807 0.86751 0.0
H308 H 0.85373 0.8909 0.85262 0.0
H309 H 0.76453 0.79377 0.9008 0.0
H310 H 0.76188 0.80765 0.83614 0.0
H311 H 0.75235 0.83522 0.88721 0.0
C312 C 0.74909 0.89867 0.77883 0.0
C313 C 0.74551 0.92877 0.80383 0.0
C314 C 0.77115 0.87535 0.79713 0.0
C315 C 0.78973 0.88163 0.84099 0.0
C316 C 0.78629 0.91175 0.8658 0.0
H317 H 0.90217 0.74153 0.01812 0.0
H318 H 0.86202 0.78145 0.98772 0.0
C319 C 0.76438 0.93509 0.84744 0.0
C320 C 0.81357 0.85732 0.8603 0.0
H321 H 0.82073 0.77924 0.90451 0.0
C322 C 0.84651 0.86651 0.8641 0.0
C323 C 0.80401 0.82568 0.87592 0.0
C324 C 0.76873 0.81501 0.87534 0.0
C325 C 0.87026 0.84477 0.88244 0.0
C326 C 0.8609 0.81275 0.89637 0.0
C327 C 0.82788 0.8037 0.89332 0.0
C328 C 0.88502 0.78836 0.91444 0.0
C329 C 0.90506 0.85652 0.88757 0.0
C330 C 0.91095 0.77868 0.88304 0.0
C331 C 0.93396 0.75607 0.90037 0.0
C332 C 0.93126 0.74245 0.94926 0.0
C333 C 0.90493 0.75169 0.98032 0.0
C334 C 0.88197 0.77443 0.963 0.0
H335 H 0.90645 0.8836 0.88893 0.0
H336 H 0.91672 0.84652 0.92241 0.0
H337 H 0.91933 0.84818 0.85417 0.0
H338 H 0.91335 0.78856 0.84501 0.0
H339 H 0.95384 0.74922 0.87541 0.0
loop_
_geom_bond_atom_site_label_1
_geom_bond_atom_site_label_2
_geom_bond_distance
_geom_bond_site_symmetry_2
_ccdc_geom_bond_type
In0 O1 2.294 1_554 S
In0 O2 2.326 . S
In0 O6 2.266 1_554 S
In0 O7 2.326 1_454 S
In0 O8 2.266 1_455 S
In0 O9 2.326 . S
In0 O11 2.294 1_455 S
In0 O12 2.326 1_454 S
O1 In0 2.294 1_556 S
O1 C10 1.240 1_556 S
O2 In0 2.326 . S
O2 C10 1.252 . S
C3 O6 1.254 . S
C3 O7 1.258 1_455 S
C4 O11 1.240 1_556 S
C4 O12 1.252 . S
C5 O8 1.254 1_455 S
C5 O9 1.258 . S
O6 In0 2.266 1_556 S
O6 C3 1.254 . S
O7 In0 2.326 1_656 S
O7 C3 1.258 1_655 S
O8 In0 2.266 1_655 S
O8 C5 1.254 1_655 S
O9 In0 2.326 . S
O9 C5 1.258 . S
C10 O1 1.240 1_554 S
C10 O2 1.252 . S
O11 In0 2.294 1_655 S
O11 C4 1.240 1_554 S
O12 In0 2.326 1_656 S
O12 C4 1.252 . S
In13 O14 2.294 1_545 S
In13 O15 2.326 1_545 S
In13 O19 2.266 1_545 S
In13 O20 2.326 . S
In13 O21 2.266 . S
In13 O22 2.326 1_545 S
In13 O24 2.294 . S
In13 O25 2.326 . S
O14 In13 2.294 1_565 S
O14 C23 1.240 . S
O15 In13 2.326 1_565 S
O15 C23 1.252 . S
C16 O19 1.254 1_545 S
C16 O20 1.258 . S
C17 O24 1.240 . S
C17 O25 1.252 . S
C18 O21 1.254 . S
C18 O22 1.258 1_545 S
O19 In13 2.266 1_565 S
O19 C16 1.254 1_565 S
O20 In13 2.326 . S
O20 C16 1.258 . S
O21 In13 2.266 . S
O21 C18 1.254 . S
O22 In13 2.326 1_565 S
O22 C18 1.258 1_565 S
C23 O14 1.240 . S
C23 O15 1.252 . S
O24 In13 2.294 . S
O24 C17 1.240 . S
O25 In13 2.326 . S
O25 C17 1.252 . S
In26 O27 2.294 . S
In26 O28 2.326 . S
In26 O32 2.266 . S
In26 O33 2.326 1_455 S
In26 O34 2.266 1_455 S
In26 O35 2.326 . S
In26 O37 2.294 1_455 S
In26 O38 2.326 1_455 S
O27 In26 2.294 . S
O27 C36 1.240 . S
O28 In26 2.326 . S
O28 C36 1.252 . S
C29 O32 1.254 . S
C29 O33 1.258 1_455 S
C30 O37 1.240 . S
C30 O38 1.252 . S
C31 O34 1.254 1_455 S
C31 O35 1.258 . S
O32 In26 2.266 . S
O32 C29 1.254 . S
O33 In26 2.326 1_655 S
O33 C29 1.258 1_655 S
O34 In26 2.266 1_655 S
O34 C31 1.254 1_655 S
O35 In26 2.326 . S
O35 C31 1.258 . S
C36 O27 1.240 . S
C36 O28 1.252 . S
O37 In26 2.294 1_655 S
O37 C30 1.240 . S
O38 In26 2.326 1_655 S
O38 C30 1.252 . S
In39 O40 2.294 1_545 S
In39 O41 2.326 1_545 S
In39 O45 2.266 1_545 S
In39 O46 2.326 . S
In39 O47 2.266 . S
In39 O48 2.326 1_545 S
In39 O50 2.294 . S
In39 O51 2.326 . S
O40 In39 2.294 1_565 S
O40 C49 1.240 . S
O41 In39 2.326 1_565 S
O41 C49 1.252 . S
C42 O45 1.254 1_545 S
C42 O46 1.258 . S
C43 O50 1.240 . S
C43 O51 1.252 . S
C44 O47 1.254 . S
C44 O48 1.258 1_545 S
O45 In39 2.266 1_565 S
O45 C42 1.254 1_565 S
O46 In39 2.326 . S
O46 C42 1.258 . S
O47 In39 2.266 . S
O47 C44 1.254 . S
O48 In39 2.326 1_565 S
O48 C44 1.258 1_565 S
C49 O40 1.240 . S
C49 O41 1.252 . S
O50 In39 2.294 . S
O50 C43 1.240 . S
O51 In39 2.326 . S
O51 C43 1.252 . S
H52 C60 0.929 . S
H53 C62 0.930 . S
H54 C64 0.930 . S
H55 C67 0.929 . S
H56 C70 0.930 . S
H57 C72 0.960 . S
H58 C72 0.960 . S
H59 C72 0.960 . S
C60 H52 0.929 . S
C60 C61 1.362 1_455 S
C60 C62 1.384 . S
C61 C60 1.362 1_655 S
C61 C67 1.405 . S
C62 H53 0.930 . S
C62 C60 1.384 . S
C62 C63 1.390 . S
C63 C62 1.390 . S
C63 C64 1.382 1_455 S
C63 C68 1.491 . S
C64 H54 0.930 . S
C64 C63 1.382 1_655 S
C64 C67 1.386 . S
H65 C81 0.930 . S
H66 C82 0.931 . S
C67 H55 0.929 . S
C67 C61 1.405 . S
C67 C64 1.386 . S
C68 C63 1.491 . S
C68 C70 1.395 . S
C68 C71 1.403 1_455 S
H69 C75 0.930 . S
C70 H56 0.930 . S
C70 C68 1.395 . S
C70 C73 1.403 . S
C71 C68 1.403 1_655 S
C71 C72 1.524 . S
C71 C75 1.400 . S
C72 H57 0.960 . S
C72 H58 0.960 . S
C72 H59 0.960 . S
C72 C71 1.524 . S
C73 C70 1.403 . S
C73 C74 1.392 . S
C73 C77 1.495 . S
C74 C73 1.392 . S
C74 C75 1.385 1_455 S
C74 C76 1.478 . S
C75 H69 0.930 . S
C75 C71 1.400 . S
C75 C74 1.385 1_655 S
C76 C74 1.478 . S
C76 C78 1.381 . S
C76 C82 1.383 1_455 S
C77 C73 1.495 . S
C77 H83 0.959 . S
C77 H84 0.961 . S
C77 H85 0.960 . S
C78 C76 1.381 . S
C78 C79 1.394 . S
C78 H86 0.930 . S
C79 C78 1.394 . S
C79 C80 1.383 . S
C79 H87 0.929 . S
C80 C79 1.383 . S
C80 C81 1.377 1_455 S
C81 H65 0.930 . S
C81 C80 1.377 1_655 S
C81 C82 1.379 . S
C82 H66 0.931 . S
C82 C76 1.383 1_655 S
C82 C81 1.379 . S
H83 C77 0.959 . S
H84 C77 0.961 . S
H85 C77 0.960 . S
H86 C78 0.930 . S
H87 C79 0.929 . S
H88 C96 0.929 . S
H89 C98 0.930 . S
H90 C100 0.930 . S
H91 C103 0.929 . S
H92 C106 0.930 . S
H93 C108 0.960 . S
H94 C108 0.960 . S
H95 C108 0.960 . S
C96 H88 0.929 . S
C96 C97 1.377 1_545 S
C96 C98 1.384 . S
C97 C96 1.377 1_565 S
C97 C103 1.390 . S
C98 H89 0.930 . S
C98 C96 1.384 . S
C98 C99 1.372 1_545 S
C99 C98 1.372 1_565 S
C99 C100 1.400 . S
C99 C104 1.490 . S
C100 H90 0.930 . S
C100 C99 1.400 . S
C100 C103 1.386 . S
H101 C117 0.930 . S
H102 C118 0.931 . S
C103 H91 0.929 . S
C103 C97 1.390 . S
C103 C100 1.386 . S
C104 C99 1.490 . S
C104 C106 1.395 . S
C104 C107 1.403 1_565 S
H105 C111 0.930 . S
C106 H92 0.930 . S
C106 C104 1.395 . S
C106 C109 1.403 . S
C107 C104 1.403 1_545 S
C107 C108 1.524 . S
C107 C111 1.400 . S
C108 H93 0.960 . S
C108 H94 0.960 . S
C108 H95 0.960 . S
C108 C107 1.524 . S
C109 C106 1.403 . S
C109 C110 1.392 . S
C109 C113 1.495 . S
C110 C109 1.392 . S
C110 C111 1.385 1_565 S
C110 C112 1.478 . S
C111 H105 0.930 . S
C111 C107 1.400 . S
C111 C110 1.385 1_545 S
C112 C110 1.478 . S
C112 C114 1.383 . S
C112 C118 1.383 . S
C113 C109 1.495 . S
C113 H119 0.959 . S
C113 H120 0.961 . S
C113 H121 0.960 . S
C114 C112 1.383 . S
C114 C115 1.394 1_565 S
C114 H122 0.929 1_565 S
C115 C114 1.394 1_545 S
C115 C116 1.383 1_545 S
C115 H123 0.929 . S
C116 C115 1.383 1_565 S
C116 C117 1.377 . S
C117 H101 0.930 . S
C117 C116 1.377 . S
C117 C118 1.379 . S
C118 H102 0.931 . S
C118 C112 1.383 . S
C118 C117 1.379 . S
H119 C113 0.959 . S
H120 C113 0.961 . S
H121 C113 0.960 . S
H122 C114 0.929 1_545 S
H123 C115 0.929 . S
H124 C132 0.929 . S
H125 C134 0.930 . S
H126 C136 0.930 . S
H127 C139 0.929 . S
H128 C142 0.930 . S
H129 C144 0.959 1_655 S
H130 C144 0.986 . S
H131 C144 0.936 1_655 S
C132 H124 0.929 . S
C132 C133 1.377 . S
C132 C134 1.384 . S
C133 C132 1.377 . S
C133 C139 1.390 1_455 S
C134 H125 0.930 . S
C134 C132 1.384 . S
C134 C135 1.372 . S
C135 C134 1.372 . S
C135 C136 1.400 1_455 S
C135 C140 1.490 . S
C136 H126 0.930 . S
C136 C135 1.400 1_655 S
C136 C139 1.386 . S
H137 C153 0.930 . S
H138 C154 0.931 . S
C139 H127 0.929 . S
C139 C133 1.390 1_655 S
C139 C136 1.386 . S
C140 C135 1.490 . S
C140 C142 1.395 . S
C140 C143 1.403 . S
H141 C147 0.928 1_655 S
C142 H128 0.930 . S
C142 C140 1.395 . S
C142 C145 1.403 . S
C143 C140 1.403 . S
C143 C144 1.524 . S
C143 C147 1.400 . S
C144 H129 0.959 1_455 S
C144 H130 0.986 . S
C144 H131 0.936 1_455 S
C144 C143 1.524 . S
C145 C142 1.403 . S
C145 C146 1.392 . S
C145 C149 1.495 . S
C146 C145 1.392 . S
C146 C147 1.386 . S
C146 C148 1.478 . S
C147 H141 0.928 1_455 S
C147 C143 1.400 . S
C147 C146 1.386 . S
C148 C146 1.478 . S
C148 C150 1.381 . S
C148 C154 1.383 1_455 S
C149 C145 1.495 . S
C149 H155 0.959 . S
C149 H156 0.961 1_455 S
C149 H157 0.960 . S
C150 C148 1.381 . S
C150 C151 1.394 . S
C150 H158 0.930 . S
C151 C150 1.394 . S
C151 C152 1.407 . S
C151 H159 0.929 . S
C152 C151 1.407 . S
C152 C153 1.354 1_455 S
C153 H137 0.930 . S
C153 C152 1.354 1_655 S
C153 C154 1.379 . S
C154 H138 0.931 . S
C154 C148 1.383 1_655 S
C154 C153 1.379 . S
H155 C149 0.959 . S
H156 C149 0.961 1_655 S
H157 C149 0.960 . S
H158 C150 0.930 . S
H159 C151 0.929 . S
H160 C168 0.929 . S
H161 C170 0.930 . S
H162 C172 0.930 . S
H163 C175 0.929 . S
H164 C178 0.930 . S
H165 C180 0.960 . S
H166 C180 0.960 . S
H167 C180 0.960 . S
C168 H160 0.929 . S
C168 C169 1.377 . S
C168 C170 1.384 . S
C169 C168 1.377 . S
C169 C175 1.390 1_545 S
C170 H161 0.930 . S
C170 C168 1.384 . S
C170 C171 1.372 . S
C171 C170 1.372 . S
C171 C172 1.400 1_545 S
C171 C176 1.490 . S
C172 H162 0.930 . S
C172 C171 1.400 1_565 S
C172 C175 1.386 . S
H173 C189 0.930 . S
H174 C190 0.931 . S
C175 H163 0.929 . S
C175 C169 1.390 1_565 S
C175 C172 1.386 . S
C176 C171 1.490 . S
C176 C178 1.395 . S
C176 C179 1.403 1_544 S
H177 C183 0.930 . S
C178 H164 0.930 . S
C178 C176 1.395 . S
C178 C181 1.403 . S
C179 C176 1.403 1_566 S
C179 C180 1.524 . S
C179 C183 1.400 . S
C180 H165 0.960 . S
C180 H166 0.960 . S
C180 H167 0.960 . S
C180 C179 1.524 . S
C181 C178 1.403 . S
C181 C182 1.392 1_554 S
C181 C185 1.495 . S
C182 C181 1.392 1_556 S
C182 C183 1.385 1_545 S
C182 C184 1.478 . S
C183 H177 0.930 . S
C183 C179 1.400 . S
C183 C182 1.385 1_565 S
C184 C182 1.478 . S
C184 C186 1.381 . S
C184 C190 1.383 1_545 S
C185 C181 1.495 . S
C185 H191 0.959 . S
C185 H192 0.961 . S
C185 H193 0.960 . S
C186 C184 1.381 . S
C186 C187 1.394 . S
C186 H194 0.930 . S
C187 C186 1.394 . S
C187 C188 1.383 . S
C187 H195 0.929 . S
C188 C187 1.383 . S
C188 C189 1.377 1_545 S
C189 H173 0.930 . S
C189 C188 1.377 1_565 S
C189 C190 1.379 . S
C190 H174 0.931 . S
C190 C184 1.383 1_565 S
C190 C189 1.379 . S
H191 C185 0.959 . S
H192 C185 0.961 . S
H193 C185 0.960 . S
H194 C186 0.930 . S
H195 C187 0.929 . S
H196 C204 0.929 . S
H197 C206 0.930 . S
H198 C208 0.930 . S
H199 C211 0.929 . S
H200 C214 0.930 . S
H201 C216 0.960 . S
H202 C216 0.960 . S
H203 C216 0.960 . S
C204 H196 0.929 . S
C204 C205 1.377 . S
C204 C206 1.384 . S
C205 C204 1.377 . S
C205 C211 1.390 . S
C206 H197 0.930 . S
C206 C204 1.384 . S
C206 C207 1.372 . S
C207 C206 1.372 . S
C207 C208 1.400 . S
C207 C212 1.490 . S
C208 H198 0.930 . S
C208 C207 1.400 . S
C208 C211 1.386 . S
H209 C225 0.930 . S
H210 C226 0.931 . S
C211 H199 0.929 . S
C211 C205 1.390 . S
C211 C208 1.386 . S
C212 C207 1.490 . S
C212 C214 1.395 . S
C212 C215 1.403 . S
H213 C219 0.930 . S
C214 H200 0.930 . S
C214 C212 1.395 . S
C214 C217 1.403 . S
C215 C212 1.403 . S
C215 C216 1.524 . S
C215 C219 1.400 . S
C216 H201 0.960 . S
C216 H202 0.960 . S
C216 H203 0.960 . S
C216 C215 1.524 . S
C217 C214 1.403 . S
C217 C218 1.392 . S
C217 C221 1.495 . S
C218 C217 1.392 . S
C218 C219 1.385 . S
C218 C220 1.478 . S
C219 H213 0.930 . S
C219 C215 1.400 . S
C219 C218 1.385 . S
C220 C218 1.478 . S
C220 C222 1.381 . S
C220 C226 1.383 . S
C221 C217 1.495 . S
C221 H227 0.959 . S
C221 H228 0.961 . S
C221 H229 0.960 . S
C222 C220 1.381 . S
C222 C223 1.394 . S
C222 H230 0.930 . S
C223 C222 1.394 . S
C223 C224 1.383 . S
C223 H231 0.929 . S
C224 C223 1.383 . S
C224 C225 1.377 . S
C225 H209 0.930 . S
C225 C224 1.377 . S
C225 C226 1.379 . S
C226 H210 0.931 . S
C226 C220 1.383 . S
C226 C225 1.379 . S
H227 C221 0.959 . S
H228 C221 0.961 . S
H229 C221 0.960 . S
H230 C222 0.930 . S
H231 C223 0.929 . S
H232 C240 0.929 . S
H233 C242 0.930 . S
H234 C244 0.930 . S
H235 C247 0.929 . S
H236 C250 0.930 . S
H237 C252 0.960 . S
H238 C252 0.960 . S
H239 C252 0.960 . S
C240 H232 0.929 . S
C240 C241 1.377 . S
C240 C242 1.384 . S
C241 C240 1.377 . S
C241 C247 1.390 . S
C242 H233 0.930 . S
C242 C240 1.384 . S
C242 C243 1.372 . S
C243 C242 1.372 . S
C243 C244 1.400 . S
C243 C248 1.490 . S
C244 H234 0.930 . S
C244 C243 1.400 . S
C244 C247 1.386 . S
H245 C261 0.930 . S
H246 C262 0.931 . S
C247 H235 0.929 . S
C247 C241 1.390 . S
C247 C244 1.386 . S
C248 C243 1.490 . S
C248 C250 1.395 . S
C248 C251 1.403 . S
H249 C255 0.930 . S
C250 H236 0.930 . S
C250 C248 1.395 . S
C250 C253 1.403 . S
C251 C248 1.403 . S
C251 C252 1.524 . S
C251 C255 1.400 . S
C252 H237 0.960 . S
C252 H238 0.960 . S
C252 H239 0.960 . S
C252 C251 1.524 . S
C253 C250 1.403 . S
C253 C254 1.392 . S
C253 C257 1.495 . S
C254 C253 1.392 . S
C254 C255 1.385 . S
C254 C256 1.478 . S
C255 H249 0.930 . S
C255 C251 1.400 . S
C255 C254 1.385 . S
C256 C254 1.478 . S
C256 C258 1.381 . S
C256 C262 1.383 . S
C257 C253 1.495 . S
C257 H263 0.959 . S
C257 H264 0.961 . S
C257 H265 0.960 . S
C258 C256 1.381 . S
C258 C259 1.394 . S
C258 H266 0.930 . S
C259 C258 1.394 . S
C259 C260 1.383 . S
C259 H267 0.929 . S
C260 C259 1.383 . S
C260 C261 1.377 . S
C261 H245 0.930 . S
C261 C260 1.377 . S
C261 C262 1.379 . S
C262 H246 0.931 . S
C262 C256 1.383 . S
C262 C261 1.379 . S
H263 C257 0.959 . S
H264 C257 0.961 . S
H265 C257 0.960 . S
H266 C258 0.930 . S
H267 C259 0.929 . S
H268 C276 0.929 . S
H269 C278 0.930 . S
H270 C280 0.930 . S
H271 C283 0.929 . S
H272 C286 0.930 . S
H273 C288 0.960 . S
H274 C288 0.960 . S
H275 C288 0.960 . S
C276 H268 0.929 . S
C276 C277 1.377 . S
C276 C278 1.384 . S
C277 C276 1.377 . S
C277 C283 1.390 . S
C278 H269 0.930 . S
C278 C276 1.384 . S
C278 C279 1.372 . S
C279 C278 1.372 . S
C279 C280 1.400 . S
C279 C284 1.490 . S
C280 H270 0.930 . S
C280 C279 1.400 . S
C280 C283 1.386 . S
H281 C297 0.930 . S
H282 C298 0.931 . S
C283 H271 0.929 . S
C283 C277 1.390 . S
C283 C280 1.386 . S
C284 C279 1.490 . S
C284 C286 1.395 . S
C284 C287 1.403 . S
H285 C291 0.930 . S
C286 H272 0.930 . S
C286 C284 1.395 . S
C286 C289 1.403 . S
C287 C284 1.403 . S
C287 C288 1.524 . S
C287 C291 1.400 . S
C288 H273 0.960 . S
C288 H274 0.960 . S
C288 H275 0.960 . S
C288 C287 1.524 . S
C289 C286 1.403 . S
C289 C290 1.392 . S
C289 C293 1.495 . S
C290 C289 1.392 . S
C290 C291 1.385 . S
C290 C292 1.478 . S
C291 H285 0.930 . S
C291 C287 1.400 . S
C291 C290 1.385 . S
C292 C290 1.478 . S
C292 C294 1.381 . S
C292 C298 1.383 . S
C293 C289 1.495 . S
C293 H299 0.959 . S
C293 H300 0.961 . S
C293 H301 0.960 . S
C294 C292 1.381 . S
C294 C295 1.394 . S
C294 H302 0.930 . S
C295 C294 1.394 . S
C295 C296 1.383 . S
C295 H303 0.929 . S
C296 C295 1.383 . S
C296 C297 1.377 . S
C297 H281 0.930 . S
C297 C296 1.377 . S
C297 C298 1.379 . S
C298 H282 0.931 . S
C298 C292 1.383 . S
C298 C297 1.379 . S
H299 C293 0.959 . S
H300 C293 0.961 . S
H301 C293 0.960 . S
H302 C294 0.930 . S
H303 C295 0.929 . S
H304 C312 0.929 . S
H305 C314 0.930 . S
H306 C316 0.930 . S
H307 C319 0.929 . S
H308 C322 0.930 . S
H309 C324 0.960 . S
H310 C324 0.960 . S
H311 C324 0.960 . S
C312 H304 0.929 . S
C312 C313 1.377 . S
C312 C314 1.384 . S
C313 C312 1.377 . S
C313 C319 1.390 . S
C314 H305 0.930 . S
C314 C312 1.384 . S
C314 C315 1.372 . S
C315 C314 1.372 . S
C315 C316 1.400 . S
C315 C320 1.490 . S
C316 H306 0.930 . S
C316 C315 1.400 . S
C316 C319 1.386 . S
H317 C333 0.930 1_554 S
H318 C334 0.931 . S
C319 H307 0.929 . S
C319 C313 1.390 . S
C319 C316 1.386 . S
C320 C315 1.490 . S
C320 C322 1.395 . S
C320 C323 1.403 . S
H321 C327 0.930 . S
C322 H308 0.930 . S
C322 C320 1.395 . S
C322 C325 1.403 . S
C323 C320 1.403 . S
C323 C324 1.524 . S
C323 C327 1.400 . S
C324 H309 0.960 . S
C324 H310 0.960 . S
C324 H311 0.960 . S
C324 C323 1.524 . S
C325 C322 1.403 . S
C325 C326 1.392 . S
C325 C329 1.495 . S
C326 C325 1.392 . S
C326 C327 1.385 . S
C326 C328 1.478 . S
C327 H321 0.930 . S
C327 C323 1.400 . S
C327 C326 1.385 . S
C328 C326 1.478 . S
C328 C330 1.381 . S
C328 C334 1.383 . S
C329 C325 1.495 . S
C329 H335 0.959 . S
C329 H336 0.961 . S
C329 H337 0.960 . S
C330 C328 1.381 . S
C330 C331 1.394 . S
C330 H338 0.930 . S
C331 C330 1.394 . S
C331 C332 1.383 . S
C331 H339 0.929 . S
C332 C331 1.383 . S
C332 C333 1.377 . S
C333 H317 0.930 1_556 S
C333 C332 1.377 . S
C333 C334 1.379 . S
C334 H318 0.931 . S
C334 C328 1.383 . S
C334 C333 1.379 . S
H335 C329 0.959 . S
H336 C329 0.961 . S
H337 C329 0.960 . S
H338 C330 0.930 . S
H339 C331 0.929 . S
C61 C5 1.451 1_655 S
C80 C31 1.444 . S
C97 C16 1.453 1_565 S
C116 C42 1.450 1_565 S
C133 C3 1.453 . S
C152 C29 1.455 . S
C169 C18 1.454 . S
C188 C44 1.454 . S
C205 C23 1.568 . S
C224 C10 1.563 . S
C241 C17 1.568 . S
C260 C36 1.560 . S
C277 C43 1.568 . S
C296 C30 1.565 . S
C313 C49 1.568 . S
C332 C4 1.571 . S
