# Generated by pormake.
# Topology cab, (5)-cn, num edge types: 1
# Building blocks:
#     Node 0, Type 0, BuildingBlock: BEQFEK_clean_sbu_0, # of connection points: 5
#     Node 1, Type 0, BuildingBlock: BEQFEK_clean_sbu_0, # of connection points: 5
#     Node 2, Type 0, BuildingBlock: BEQFEK_clean_sbu_0, # of connection points: 5
#     Node 3, Type 0, BuildingBlock: BEQFEK_clean_sbu_0, # of connection points: 5
#     Node 4, Type 0, BuildingBlock: BEQFEK_clean_sbu_0, # of connection points: 5
#     Node 5, Type 0, BuildingBlock: BEQFEK_clean_sbu_0, # of connection points: 5
#     Edge 6, Type (0, 0), BuildingBlock: TEMPAE_clean_linker_10, # of connection points: 2
#     Edge 7, Type (0, 0), BuildingBlock: TEMPAE_clean_linker_10, # of connection points: 2
#     Edge 8, Type (0, 0), BuildingBlock: TEMPAE_clean_linker_10, # of connection points: 2
#     Edge 9, Type (0, 0), BuildingBlock: TEMPAE_clean_linker_10, # of connection points: 2
#     Edge 10, Type (0, 0), BuildingBlock: TEMPAE_clean_linker_10, # of connection points: 2
#     Edge 11, Type (0, 0), BuildingBlock: TEMPAE_clean_linker_10, # of connection points: 2
#     Edge 12, Type (0, 0), BuildingBlock: TEMPAE_clean_linker_10, # of connection points: 2
#     Edge 13, Type (0, 0), BuildingBlock: TEMPAE_clean_linker_10, # of connection points: 2
#     Edge 14, Type (0, 0), BuildingBlock: TEMPAE_clean_linker_10, # of connection points: 2
#     Edge 15, Type (0, 0), BuildingBlock: TEMPAE_clean_linker_10, # of connection points: 2
#     Edge 16, Type (0, 0), BuildingBlock: TEMPAE_clean_linker_10, # of connection points: 2
#     Edge 17, Type (0, 0), BuildingBlock: TEMPAE_clean_linker_10, # of connection points: 2
#     Edge 18, Type (0, 0), BuildingBlock: TEMPAE_clean_linker_10, # of connection points: 2
#     Edge 19, Type (0, 0), BuildingBlock: TEMPAE_clean_linker_10, # of connection points: 2
#     Edge 20, Type (0, 0), BuildingBlock: TEMPAE_clean_linker_10, # of connection points: 2
# Relax obj value: 1.247
# Max RMSD: 0.228
# Mean RMSD: 0.211
data_MOF--net-cab--node1-BEQFEK_clean_sbu_0--edge1-TEMPAE_clean_linker_10
_symmetry_space_group_name_H-M    P1
_symmetry_Int_Tables_number       1
_symmetry_cell_setting            triclinic
loop_
_symmetry_equiv_pos_as_xyz
'x, y, z'
_cell_length_a     31.467752
_cell_length_b     30.717482
_cell_length_c     32.255587
_cell_angle_alpha  112.49546
_cell_angle_beta   96.922227
_cell_angle_gamma 130.2538
loop_
_atom_site_label
_atom_site_type_symbol
_atom_site_fract_x
_atom_site_fract_y
_atom_site_fract_z
_atom_type_partial_charge
Co0 Co 0.38518 0.54374 0.66438 0.0
Co1 Co 0.26413 0.50389 0.65962 0.0
C2 C 0.25394 0.40607 0.57218 0.0
O3 O 0.3153 0.45417 0.59201 0.0
O4 O 0.22906 0.41742 0.59595 0.0
C5 C 0.46665 0.57073 0.62589 0.0
O6 O 0.41862 0.5476 0.58922 0.0
C7 C 0.13631 0.43624 0.60809 0.0
C8 C 0.10693 0.42807 0.66587 0.0
C9 C 0.08271 0.40239 0.6139 0.0
N10 N 0.18968 0.4797 0.65425 0.0
N11 N 0.17217 0.47643 0.6892 0.0
C12 C 0.13418 0.41482 0.55697 0.0
H13 H 0.18402 0.4532 0.56367 0.0
H14 H 0.104 0.41271 0.53247 0.0
H15 H 0.11115 0.3603 0.53509 0.0
C16 C 0.42295 0.66651 0.67436 0.0
N17 N 0.38383 0.60885 0.67409 0.0
N18 N 0.32956 0.58778 0.66597 0.0
C19 C 0.33224 0.63042 0.65994 0.0
C20 C 0.39122 0.68125 0.66432 0.0
C21 C 0.48739 0.70363 0.67915 0.0
H22 H 0.5112 0.69942 0.70289 0.0
H23 H 0.48015 0.67917 0.63945 0.0
H24 H 0.51974 0.76117 0.698 0.0
O25 O 0.35918 0.50348 0.70437 0.0
O26 O 0.30295 0.51896 0.72262 0.0
H27 H 0.24796 0.59647 0.66132 0.0
H28 H 0.29308 0.66614 0.65284 0.0
C29 C 0.27591 0.61652 0.64265 0.0
H30 H 0.2431 0.57517 0.59935 0.0
H31 H 0.20326 0.50048 0.72719 0.0
O32 O 0.46623 0.57829 0.66745 0.0
C33 C 0.32257 0.49372 0.72272 0.0
Co34 Co 0.0922 0.99879 0.71236 0.0
Co35 Co 0.98827 0.97807 0.73389 0.0
C36 C 0.12413 0.10381 0.81665 0.0
O37 O 0.13652 0.08348 0.78316 0.0
O38 O 0.06565 0.06362 0.80593 0.0
C39 C 0.18977 0.02386 0.75779 0.0
O40 O 0.15327 0.99895 0.77759 0.0
C41 C 0.90509 0.9537 0.77678 0.0
C42 C 0.81685 0.89981 0.71133 0.0
C43 C 0.84371 0.92287 0.76233 0.0
N44 N 0.9142 0.94928 0.73638 0.0
N45 N 0.86152 0.91755 0.69745 0.0
C46 C 0.95182 0.98018 0.82597 0.0
H47 H 0.98147 0.97367 0.8184 0.0
H48 H 0.92545 0.9507 0.84144 0.0
H49 H 0.98539 0.03817 0.85628 0.0
C50 C 0.00539 0.85276 0.68537 0.0
N51 N 0.01936 0.90949 0.6979 0.0
N52 N 0.97578 0.90098 0.70716 0.0
C53 C 0.93326 0.83875 0.70097 0.0
C54 C 0.95116 0.80668 0.68788 0.0
C55 C 0.04577 0.84458 0.67513 0.0
H56 H 0.07498 0.8766 0.66212 0.0
H57 H 0.07878 0.8625 0.71149 0.0
H58 H 0.01366 0.78709 0.64456 0.0
O59 O 0.06738 0.01361 0.66536 0.0
O60 O 0.00753 0.01699 0.69315 0.0
H61 H 0.85751 0.82499 0.70231 0.0
H62 H 0.84541 0.75699 0.6971 0.0
C63 C 0.88245 0.81511 0.71546 0.0
H64 H 0.90596 0.84549 0.75872 0.0
H65 H 0.8554 0.90639 0.661 0.0
O66 O 0.16694 0.01841 0.71848 0.0
C67 C 0.03826 0.02906 0.66879 0.0
Co68 Co 0.6073 0.41734 0.19586 0.0
Co69 Co 0.6482 0.46477 0.31101 0.0
C70 C 0.50794 0.34833 0.22735 0.0
O71 O 0.52302 0.35608 0.19384 0.0
O72 O 0.55164 0.38677 0.27452 0.0
C73 C 0.54316 0.39379 0.1076 0.0
O74 O 0.52073 0.40652 0.13598 0.0
C75 C 0.65589 0.5047 0.41264 0.0
C76 C 0.76141 0.58701 0.46853 0.0
C77 C 0.70236 0.55179 0.46564 0.0
N78 N 0.68583 0.51093 0.3852 0.0
N79 N 0.74881 0.55962 0.41881 0.0
C80 C 0.58546 0.46044 0.38888 0.0
H81 H 0.55472 0.40287 0.367 0.0
H82 H 0.57273 0.46781 0.36063 0.0
H83 H 0.57419 0.47513 0.41901 0.0
C84 C 0.68665 0.56965 0.25105 0.0
N85 N 0.66638 0.51569 0.25167 0.0
N86 N 0.67871 0.53406 0.29918 0.0
C87 C 0.70426 0.59897 0.32961 0.0
C88 C 0.71005 0.62385 0.30004 0.0
C89 C 0.68139 0.56855 0.2038 0.0
H90 H 0.68734 0.53813 0.17928 0.0
H91 H 0.63292 0.5424 0.17985 0.0
H92 H 0.71911 0.62412 0.21596 0.0
O93 O 0.64018 0.38151 0.20165 0.0
O94 O 0.67024 0.41595 0.28327 0.0
H95 H 0.75627 0.65384 0.41219 0.0
H96 H 0.71542 0.67172 0.39463 0.0
C97 C 0.71167 0.62988 0.38251 0.0
H98 H 0.6692 0.58665 0.38179 0.0
H99 H 0.78357 0.57593 0.40793 0.0
O100 O 0.58487 0.39853 0.12676 0.0
C101 C 0.66239 0.38324 0.23869 0.0
Co102 Co 0.44064 0.80072 0.34889 0.0
Co103 Co 0.41023 0.72454 0.23311 0.0
C104 C 0.34487 0.64287 0.27592 0.0
O105 O 0.37795 0.70014 0.32108 0.0
O106 O 0.35167 0.64461 0.23832 0.0
C107 C 0.42142 0.82554 0.4324 0.0
O108 O 0.36404 0.7837 0.39293 0.0
C109 C 0.39904 0.63052 0.14642 0.0
C110 C 0.38059 0.64395 0.08671 0.0
C111 C 0.38496 0.60559 0.09516 0.0
N112 N 0.40285 0.68103 0.16705 0.0
N113 N 0.39295 0.68974 0.13144 0.0
C114 C 0.40222 0.60189 0.17377 0.0
H115 H 0.35373 0.54534 0.15298 0.0
H116 H 0.41794 0.63494 0.21537 0.0
H117 H 0.43808 0.60306 0.17362 0.0
C118 C 0.57055 0.86831 0.3725 0.0
N119 N 0.51048 0.8305 0.33855 0.0
N120 N 0.49882 0.80028 0.29036 0.0
C121 C 0.55235 0.82017 0.29253 0.0
C122 C 0.59899 0.86176 0.34457 0.0
C123 C 0.59617 0.90131 0.42974 0.0
H124 H 0.5924 0.93673 0.44739 0.0
H125 H 0.56571 0.85829 0.4343 0.0
H126 H 0.6478 0.93304 0.45092 0.0
O127 O 0.39169 0.80768 0.31289 0.0
O128 O 0.37351 0.75844 0.23168 0.0
H129 H 0.52539 0.78057 0.21224 0.0
H130 H 0.60591 0.82951 0.25341 0.0
C131 C 0.55533 0.79099 0.24508 0.0
H132 H 0.53764 0.74069 0.23321 0.0
H133 H 0.39168 0.72454 0.13683 0.0
O134 O 0.46806 0.84885 0.42419 0.0
C135 C 0.36749 0.78835 0.26656 0.0
Co136 Co 0.81407 0.08194 0.17486 0.0
Co137 Co 0.67282 0.94304 0.13982 0.0
C138 C 0.79454 0.04542 0.24653 0.0
O139 O 0.83387 0.08203 0.23432 0.0
O140 O 0.73312 0.99462 0.21497 0.0
C141 C 0.94954 0.18577 0.20669 0.0
O142 O 0.94943 0.15095 0.22093 0.0
C143 C 0.6112 0.81317 0.12231 0.0
C144 C 0.50599 0.73153 0.06738 0.0
C145 C 0.55268 0.74041 0.09299 0.0
N146 N 0.59997 0.84595 0.11539 0.0
N147 N 0.53659 0.79713 0.08319 0.0
C148 C 0.67847 0.84922 0.14922 0.0
H149 H 0.69305 0.86549 0.1898 0.0
H150 H 0.71442 0.89743 0.15119 0.0
H151 H 0.67998 0.81259 0.12816 0.0
C152 C 0.77926 0.98267 0.07217 0.0
N153 N 0.76749 0.9959 0.11125 0.0
N154 N 0.7067 0.9383 0.0945 0.0
C155 C 0.67741 0.88663 0.04339 0.0
C156 C 0.7227 0.91296 0.02787 0.0
C157 C 0.84048 0.03884 0.07489 0.0
H158 H 0.84752 0.08233 0.08344 0.0
H159 H 0.88271 0.06236 0.10732 0.0
H160 H 0.83906 0.0165 0.03767 0.0
O161 O 0.76132 0.0964 0.17321 0.0
O162 O 0.65759 0.99841 0.14335 0.0
H163 H 0.57772 0.82505 0.0159 0.0
H164 H 0.59069 0.78963 0.96649 0.0
C165 C 0.60606 0.81638 0.00867 0.0
H166 H 0.59535 0.78059 0.01837 0.0
H167 H 0.5149 0.80747 0.06914 0.0
O168 O 0.89696 0.16452 0.18585 0.0
C169 C 0.70365 0.06405 0.16063 0.0
Co170 Co 0.00545 0.8435 0.17016 0.0
Co171 Co 0.95996 0.74024 0.05413 0.0
C172 C 0.0613 0.90045 0.11277 0.0
O173 O 0.05343 0.90886 0.15161 0.0
O174 O 0.02965 0.83867 0.07334 0.0
C175 C 0.01456 0.94094 0.23885 0.0
O176 O 0.9903 0.92835 0.19429 0.0
C177 C 0.90405 0.68106 0.94387 0.0
C178 C 0.89445 0.59591 0.906 0.0
C179 C 0.88684 0.63127 0.89598 0.0
N180 N 0.92078 0.67516 0.98004 0.0
N181 N 0.91398 0.62337 0.957 0.0
C182 C 0.91139 0.73877 0.95688 0.0
H183 H 0.9303 0.77361 0.99914 0.0
H184 H 0.86332 0.71446 0.9349 0.0
H185 H 0.94421 0.77132 0.94561 0.0
C186 C 0.86189 0.73841 0.1225 0.0
N187 N 0.91443 0.76189 0.11934 0.0
N188 N 0.89502 0.72038 0.07006 0.0
C189 C 0.82945 0.67015 0.04046 0.0
C190 C 0.80631 0.67982 0.07275 0.0
C191 C 0.86426 0.77327 0.17171 0.0
H192 H 0.90367 0.79552 0.20608 0.0
H193 H 0.87353 0.81728 0.1776 0.0
H194 H 0.8169 0.734 0.16858 0.0
O195 O 0.04656 0.81562 0.1773 0.0
O196 O 0.0082 0.7354 0.09468 0.0
H197 H 0.80397 0.59063 0.96954 0.0
H198 H 0.7366 0.57346 0.96779 0.0
C199 C 0.78945 0.61576 0.98196 0.0
H200 H 0.7981 0.64279 0.96377 0.0
H201 H 0.92557 0.60908 0.97659 0.0
O202 O 0.02348 0.90598 0.23886 0.0
C203 C 0.04343 0.77233 0.14429 0.0
C204 C 0.48337 0.85999 0.51762 0.0
C205 C 0.42633 0.82864 0.47998 0.0
C206 C 0.48341 0.8483 0.5557 0.0
C207 C 0.42498 0.80395 0.55585 0.0
C208 C 0.36905 0.77764 0.52103 0.0
C209 C 0.37052 0.79063 0.48371 0.0
C210 C 0.54438 0.8783 0.59272 0.0
C211 C 0.30566 0.72996 0.51968 0.0
C212 C 0.39182 0.6823 0.58815 0.0
C213 C 0.4022 0.71529 0.63849 0.0
C214 C 0.39965 0.71116 0.56125 0.0
C215 C 0.41893 0.7751 0.58557 0.0
C216 C 0.43013 0.80913 0.63683 0.0
C217 C 0.42112 0.77834 0.66268 0.0
C218 C 0.38627 0.67246 0.50639 0.0
C219 C 0.45108 0.87748 0.66402 0.0
H220 H 0.52695 0.89003 0.51541 0.0
H221 H 0.32634 0.76677 0.45519 0.0
H222 H 0.55304 0.90028 0.6331 0.0
H223 H 0.53827 0.83457 0.5795 0.0
H224 H 0.58812 0.92125 0.594 0.0
H225 H 0.27033 0.72358 0.49663 0.0
H226 H 0.28318 0.67599 0.50131 0.0
H227 H 0.31424 0.7518 0.56002 0.0
H228 H 0.37657 0.63304 0.56951 0.0
H229 H 0.42884 0.80339 0.70164 0.0
H230 H 0.43038 0.70869 0.50485 0.0
H231 H 0.34665 0.65674 0.47809 0.0
H232 H 0.37171 0.62337 0.49326 0.0
H233 H 0.49612 0.91911 0.66575 0.0
H234 H 0.46036 0.89879 0.70463 0.0
H235 H 0.41277 0.86764 0.64122 0.0
C236 C 0.78224 0.05285 0.32353 0.0
C237 C 0.82125 0.07007 0.30117 0.0
C238 C 0.81085 0.0919 0.37839 0.0
C239 C 0.87967 0.14901 0.41101 0.0
C240 C 0.91832 0.16043 0.38815 0.0
C241 C 0.88853 0.12052 0.33348 0.0
C242 C 0.76791 0.07649 0.40126 0.0
C243 C 0.99196 0.22026 0.42146 0.0
C244 C 0.98424 0.33179 0.53357 0.0
C245 C 0.01547 0.33355 0.56989 0.0
C246 C 0.93253 0.26796 0.48259 0.0
C247 C 0.91309 0.20526 0.4677 0.0
C248 C 0.9394 0.20497 0.50626 0.0
C249 C 0.99035 0.26949 0.55736 0.0
C250 C 0.90505 0.27041 0.44295 0.0
C251 C 0.91892 0.13882 0.49207 0.0
H252 H 0.72996 0.01289 0.29866 0.0
H253 H 0.91875 0.1327 0.31632 0.0
H254 H 0.78505 0.07969 0.43556 0.0
H255 H 0.77013 0.11737 0.41519 0.0
H256 H 0.71617 0.02259 0.37172 0.0
H257 H 0.01424 0.21739 0.39796 0.0
H258 H 0.01149 0.27284 0.44044 0.0
H259 H 0.00769 0.21885 0.45311 0.0
H260 H 0.00407 0.38163 0.54356 0.0
H261 H 0.01482 0.27132 0.58584 0.0
H262 H 0.8513 0.22157 0.4173 0.0
H263 H 0.92603 0.27234 0.41746 0.0
H264 H 0.91685 0.31842 0.46228 0.0
H265 H 0.86524 0.09273 0.47309 0.0
H266 H 0.94276 0.14687 0.52697 0.0
H267 H 0.93153 0.12404 0.46317 0.0
C268 C 0.23622 0.32505 0.49105 0.0
C269 C 0.2114 0.33443 0.52224 0.0
C270 C 0.19821 0.25697 0.44529 0.0
C271 C 0.13393 0.19647 0.43057 0.0
C272 C 0.10835 0.20543 0.46176 0.0
C273 C 0.1472 0.27453 0.50698 0.0
C274 C 0.22707 0.2498 0.41279 0.0
C275 C 0.04035 0.14222 0.44773 0.0
C276 C 0.02821 0.03874 0.28671 0.0
C277 C 0.03672 0.99972 0.28831 0.0
C278 C 0.05666 0.1009 0.33298 0.0
C279 C 0.09407 0.12432 0.38215 0.0
C280 C 0.09921 0.08257 0.38424 0.0
C281 C 0.07059 0.02075 0.33721 0.0
C282 C 0.04906 0.14319 0.3291 0.0
C283 C 0.13783 0.10527 0.43606 0.0
H284 H 0.28567 0.37106 0.50247 0.0
H285 H 0.12776 0.2813 0.53104 0.0
H286 H 0.2277 0.21316 0.41016 0.0
H287 H 0.19641 0.22586 0.37213 0.0
H288 H 0.27765 0.30226 0.4295 0.0
H289 H 0.03156 0.15681 0.48001 0.0
H290 H 0.00401 0.12182 0.41204 0.0
H291 H 0.03179 0.09762 0.43858 0.0
H292 H 0.00127 0.02229 0.24911 0.0
H293 H 0.07685 0.9905 0.33879 0.0
H294 H 0.09766 0.19857 0.34747 0.0
H295 H 0.0258 0.14748 0.35092 0.0
H296 H 0.01885 0.11802 0.28778 0.0
H297 H 0.19054 0.15446 0.45389 0.0
H298 H 0.13076 0.06289 0.43138 0.0
H299 H 0.12362 0.11856 0.46402 0.0
C300 C 0.64347 0.51337 0.51126 0.0
C301 C 0.69208 0.56884 0.50982 0.0
C302 C 0.61996 0.52389 0.54338 0.0
C303 C 0.64559 0.59138 0.57428 0.0
C304 C 0.7001 0.64982 0.57759 0.0
C305 C 0.72308 0.63789 0.5453 0.0
C306 C 0.56245 0.46037 0.53921 0.0
C307 C 0.72919 0.72267 0.6106 0.0
C308 C 0.51405 0.5731 0.56943 0.0
C309 C 0.51751 0.58371 0.61656 0.0
C310 C 0.55687 0.57772 0.5563 0.0
C311 C 0.60582 0.59523 0.59178 0.0
C312 C 0.61226 0.61018 0.64088 0.0
C313 C 0.567 0.60271 0.65225 0.0
C314 C 0.54761 0.5606 0.50317 0.0
C315 C 0.66517 0.63145 0.68055 0.0
H316 H 0.62038 0.46026 0.48422 0.0
H317 H 0.76122 0.68092 0.5444 0.0
H318 H 0.56902 0.47615 0.57862 0.0
H319 H 0.51754 0.44059 0.51517 0.0
H320 H 0.55508 0.41551 0.5204 0.0
H321 H 0.69526 0.72049 0.59186 0.0
H322 H 0.73621 0.73857 0.65016 0.0
H323 H 0.77659 0.76447 0.61484 0.0
H324 H 0.47625 0.55871 0.54162 0.0
H325 H 0.5697 0.61046 0.68858 0.0
H326 H 0.53441 0.5121 0.47913 0.0
H327 H 0.59368 0.60549 0.50787 0.0
H328 H 0.5087 0.55051 0.48107 0.0
H329 H 0.65018 0.58266 0.66935 0.0
H330 H 0.6741 0.65873 0.72069 0.0
H331 H 0.7116 0.66763 0.68161 0.0
C332 C 0.90597 0.61845 0.82117 0.0
C333 C 0.87754 0.62786 0.84813 0.0
C334 C 0.90937 0.62987 0.78288 0.0
C335 C 0.88548 0.65315 0.77261 0.0
C336 C 0.85068 0.65521 0.79563 0.0
C337 C 0.84569 0.64061 0.83209 0.0
C338 C 0.9426 0.62203 0.75621 0.0
C339 C 0.82333 0.67856 0.78513 0.0
C340 C 0.98333 0.79816 0.75516 0.0
C341 C 0.93985 0.76265 0.70374 0.0
C342 C 0.96726 0.76194 0.77708 0.0
C343 C 0.90679 0.68771 0.74618 0.0
C344 C 0.86491 0.65032 0.69268 0.0
C345 C 0.88143 0.68876 0.6723 0.0
C346 C 0.01278 0.80465 0.83464 0.0
C347 C 0.80102 0.5709 0.65758 0.0
H348 H 0.92896 0.60629 0.83208 0.0
H349 H 0.81897 0.64206 0.84947 0.0
H350 H 0.91587 0.59628 0.7139 0.0
H351 H 0.99276 0.67589 0.77449 0.0
H352 H 0.946 0.58968 0.75979 0.0
H353 H 0.7962 0.67561 0.8052 0.0
H354 H 0.86367 0.73475 0.79894 0.0
H355 H 0.78998 0.6444 0.74232 0.0
H356 H 0.02799 0.8557 0.7795 0.0
H357 H 0.84756 0.66174 0.63265 0.0
H358 H 0.02613 0.78055 0.83966 0.0
H359 H 0.98781 0.80337 0.85655 0.0
H360 H 0.05837 0.86165 0.85273 0.0
H361 H 0.80213 0.54241 0.66999 0.0
H362 H 0.78863 0.54626 0.61607 0.0
H363 H 0.76143 0.56263 0.65889 0.0
C364 C 0.45455 0.33934 0.02743 0.0
C365 C 0.51191 0.36213 0.05142 0.0
C366 C 0.41474 0.29291 0.9726 0.0
C367 C 0.43369 0.27022 0.9412 0.0
C368 C 0.49594 0.30134 0.96519 0.0
C369 C 0.53417 0.34638 0.02027 0.0
C370 C 0.34943 0.26263 0.94859 0.0
C371 C 0.51985 0.28239 0.933 0.0
C372 C 0.28284 0.07493 0.82973 0.0
C373 C 0.2607 0.07896 0.79265 0.0
C374 C 0.34343 0.13674 0.87657 0.0
C375 C 0.38294 0.20392 0.886 0.0
C376 C 0.36502 0.20642 0.84528 0.0
C377 C 0.30357 0.14354 0.79881 0.0
C378 C 0.36084 0.13118 0.91858 0.0
C379 C 0.40708 0.27628 0.85269 0.0
H380 H 0.43796 0.35303 0.05131 0.0
H381 H 0.57962 0.36581 0.03867 0.0
H382 H 0.34375 0.27018 0.91828 0.0
H383 H 0.30949 0.20404 0.92894 0.0
H384 H 0.34342 0.28836 0.97826 0.0
H385 H 0.57401 0.3256 0.95491 0.0
H386 H 0.50108 0.23245 0.92387 0.0
H387 H 0.50223 0.27285 0.89522 0.0
H388 H 0.24988 0.02472 0.82457 0.0
H389 H 0.28679 0.14693 0.77007 0.0
H390 H 0.35706 0.15616 0.95105 0.0
H391 H 0.4118 0.16046 0.93538 0.0
H392 H 0.32808 0.07454 0.90322 0.0
H393 H 0.39316 0.30102 0.86925 0.0
H394 H 0.39976 0.26708 0.81446 0.0
H395 H 0.45962 0.31497 0.88011 0.0
C396 C 0.17101 0.20218 0.9072 0.0
C397 C 0.17727 0.17992 0.864 0.0
C398 C 0.21559 0.27556 0.94774 0.0
C399 C 0.26638 0.3277 0.94412 0.0
C400 C 0.27513 0.3056 0.90212 0.0
C401 C 0.23091 0.232 0.86291 0.0
C402 C 0.20575 0.29714 0.99273 0.0
C403 C 0.32778 0.35906 0.89612 0.0
C404 C 0.30577 0.49067 0.00461 0.0
C405 C 0.36195 0.53983 0.05377 0.0
C406 C 0.27646 0.4229 0.96739 0.0
C407 C 0.3036 0.40348 0.97989 0.0
C408 C 0.36317 0.45492 0.02783 0.0
C409 C 0.39222 0.52306 0.0639 0.0
C410 C 0.21447 0.37075 0.91572 0.0
C411 C 0.39454 0.43697 0.04215 0.0
H412 H 0.12995 0.16224 0.9084 0.0
H413 H 0.2361 0.21533 0.82954 0.0
H414 H 0.25278 0.34128 0.03083 0.0
H415 H 0.18756 0.31736 0.98885 0.0
H416 H 0.17005 0.25145 0.99365 0.0
H417 H 0.33371 0.33437 0.86562 0.0
H418 H 0.31495 0.38054 0.88462 0.0
H419 H 0.37532 0.40529 0.93384 0.0
H420 H 0.28278 0.50381 0.9961 0.0
H421 H 0.43803 0.56261 0.10028 0.0
H422 H 0.17279 0.32579 0.91443 0.0
H423 H 0.21814 0.34739 0.88238 0.0
H424 H 0.20354 0.39657 0.90988 0.0
H425 H 0.36199 0.39397 0.0463 0.0
H426 H 0.44268 0.48424 0.07956 0.0
H427 H 0.40139 0.41615 0.01051 0.0
C428 C 0.73218 0.85729 0.95638 0.0
C429 C 0.71088 0.88486 0.97423 0.0
C430 C 0.74023 0.85089 0.91335 0.0
C431 C 0.72796 0.87417 0.88873 0.0
C432 C 0.70074 0.89588 0.9038 0.0
C433 C 0.69256 0.90104 0.94661 0.0
C434 C 0.76761 0.82557 0.89745 0.0
C435 C 0.68619 0.9202 0.87814 0.0
C436 C 0.84751 0.96651 0.8472 0.0
C437 C 0.81153 0.91222 0.7932 0.0
C438 C 0.82008 0.95512 0.87829 0.0
C439 C 0.75452 0.88806 0.8546 0.0
C440 C 0.71656 0.83456 0.79946 0.0
C441 C 0.74568 0.84714 0.76932 0.0
C442 C 0.86205 0.01432 0.93684 0.0
C443 C 0.6462 0.76305 0.77248 0.0
H444 H 0.74682 0.84551 0.97831 0.0
H445 H 0.67678 0.92317 0.96112 0.0
H446 H 0.74032 0.78662 0.85401 0.0
H447 H 0.81927 0.87208 0.91062 0.0
H448 H 0.76563 0.79991 0.91504 0.0
H449 H 0.65568 0.92406 0.88821 0.0
H450 H 0.73271 0.97393 0.89159 0.0
H451 H 0.66078 0.88282 0.83474 0.0
H452 H 0.89764 0.01785 0.86539 0.0
H453 H 0.71754 0.80517 0.7274 0.0
H454 H 0.86856 0.99634 0.95832 0.0
H455 H 0.8378 0.02681 0.94955 0.0
H456 H 0.91105 0.0644 0.94863 0.0
H457 H 0.64432 0.72749 0.77623 0.0
H458 H 0.61939 0.73678 0.73005 0.0
H459 H 0.62075 0.76863 0.7907 0.0
C460 C 0.66545 0.66022 0.2766 0.0
C461 C 0.71581 0.67965 0.31139 0.0
C462 C 0.66417 0.70818 0.28934 0.0
C463 C 0.71384 0.77709 0.3388 0.0
C464 C 0.76695 0.7987 0.3729 0.0
C465 C 0.76739 0.74961 0.35866 0.0
C466 C 0.60627 0.68233 0.25157 0.0
C467 C 0.82078 0.87158 0.42587 0.0
C468 C 0.69326 0.88784 0.34625 0.0
C469 C 0.64536 0.86167 0.35967 0.0
C470 C 0.72209 0.86689 0.34429 0.0
C471 C 0.7032 0.81996 0.35711 0.0
C472 C 0.66171 0.80186 0.37764 0.0
C473 C 0.63258 0.82205 0.37794 0.0
C474 C 0.76683 0.88869 0.32294 0.0
C475 C 0.64185 0.754 0.39355 0.0
H476 H 0.62459 0.60581 0.24062 0.0
H477 H 0.80651 0.76478 0.38552 0.0
H478 H 0.57177 0.66735 0.26569 0.0
H479 H 0.62161 0.7252 0.24938 0.0
H480 H 0.57972 0.63452 0.2113 0.0
H481 H 0.86431 0.88565 0.44273 0.0
H482 H 0.83559 0.91389 0.42309 0.0
H483 H 0.80284 0.87147 0.45346 0.0
H484 H 0.70446 0.92001 0.33334 0.0
H485 H 0.59538 0.80124 0.38815 0.0
H486 H 0.73709 0.84829 0.27952 0.0
H487 H 0.8025 0.8915 0.33873 0.0
H488 H 0.79373 0.94158 0.33221 0.0
H489 H 0.60564 0.69766 0.35775 0.0
H490 H 0.61944 0.75581 0.41728 0.0
H491 H 0.6845 0.76984 0.41663 0.0
C492 C 0.42099 0.25768 0.23575 0.0
C493 C 0.43828 0.28871 0.20968 0.0
C494 C 0.35546 0.19561 0.21608 0.0
C495 C 0.30567 0.16476 0.16993 0.0
C496 C 0.32259 0.198 0.14494 0.0
C497 C 0.38881 0.25899 0.16465 0.0
C498 C 0.33979 0.16129 0.2435 0.0
C499 C 0.27091 0.16825 0.09677 0.0
C500 C 0.15104 0.96515 0.09536 0.0
C501 C 0.11579 0.96529 0.11805 0.0
C502 C 0.21161 0.02962 0.10983 0.0
C503 C 0.23658 0.09556 0.14672 0.0
C504 C 0.19832 0.09517 0.16603 0.0
C505 C 0.13883 0.03015 0.15211 0.0
C506 C 0.25121 0.02758 0.08896 0.0
C507 C 0.22198 0.16388 0.20393 0.0
H508 H 0.45892 0.27998 0.27031 0.0
H509 H 0.40189 0.28306 0.14453 0.0
H510 H 0.30608 0.15658 0.25522 0.0
H511 H 0.3147 0.10613 0.21613 0.0
H512 H 0.38414 0.19231 0.27915 0.0
H513 H 0.29156 0.20492 0.08573 0.0
H514 H 0.24668 0.11583 0.06307 0.0
H515 H 0.23275 0.1586 0.10358 0.0
H516 H 0.13372 0.91528 0.06929 0.0
H517 H 0.11149 0.03046 0.16947 0.0
H518 H 0.29449 0.05258 0.12147 0.0
H519 H 0.26936 0.05901 0.07354 0.0
H520 H 0.22266 0.97189 0.0572 0.0
H521 H 0.26118 0.19447 0.24334 0.0
H522 H 0.18218 0.15337 0.20779 0.0
H523 H 0.2429 0.19836 0.19101 0.0
C524 C 0.0669 0.26928 0.23269 0.0
C525 C 0.00998 0.24908 0.21457 0.0
C526 C 0.12483 0.33053 0.24157 0.0
C527 C 0.12582 0.37274 0.23259 0.0
C528 C 0.06824 0.35193 0.21353 0.0
C529 C 0.01102 0.29024 0.20453 0.0
C530 C 0.18516 0.35073 0.26136 0.0
C531 C 0.06744 0.39586 0.20385 0.0
C532 C 0.28078 0.57127 0.30612 0.0
C533 C 0.29413 0.57309 0.26644 0.0
C534 C 0.22785 0.50606 0.29626 0.0
C535 C 0.18754 0.44089 0.24561 0.0
C536 C 0.20293 0.44197 0.20626 0.0
C537 C 0.25595 0.50817 0.21707 0.0
C538 C 0.21304 0.50728 0.3393 0.0
C539 C 0.1616 0.37344 0.15202 0.0
H540 H 0.06637 0.23747 0.24022 0.0
H541 H 0.96726 0.275 0.19046 0.0
H542 H 0.20551 0.35799 0.23567 0.0
H543 H 0.22324 0.40273 0.30141 0.0
H544 H 0.17516 0.30961 0.2629 0.0
H545 H 0.01819 0.37125 0.18768 0.0
H546 H 0.10194 0.45055 0.24122 0.0
H547 H 0.08389 0.40197 0.17594 0.0
H548 H 0.31019 0.62106 0.34455 0.0
H549 H 0.26626 0.50902 0.18633 0.0
H550 H 0.20768 0.47087 0.34488 0.0
H551 H 0.16602 0.48757 0.32786 0.0
H552 H 0.25163 0.56203 0.37746 0.0
H553 H 0.15264 0.33351 0.15467 0.0
H554 H 0.1847 0.38276 0.12819 0.0
H555 H 0.11341 0.34957 0.13105 0.0
C556 C 0.69112 0.59698 0.05346 0.0
C557 C 0.7447 0.65568 0.05723 0.0
C558 C 0.63784 0.58335 0.04866 0.0
C559 C 0.63968 0.63108 0.04936 0.0
C560 C 0.69234 0.68769 0.04973 0.0
C561 C 0.74381 0.69886 0.05352 0.0
C562 C 0.58182 0.52008 0.04559 0.0
C563 C 0.69934 0.74211 0.05174 0.0
C564 C 0.52157 0.63354 0.02766 0.0
C565 C 0.54752 0.68475 0.07998 0.0
C566 C 0.54332 0.60471 0.01616 0.0
C567 C 0.59366 0.63036 0.05798 0.0
C568 C 0.61044 0.67142 0.11021 0.0
C569 C 0.58526 0.69626 0.12038 0.0
C570 C 0.51972 0.55546 0.95973 0.0
C571 C 0.66142 0.69704 0.15596 0.0
H572 H 0.69196 0.56348 0.05634 0.0
H573 H 0.78573 0.74456 0.05687 0.0
H574 H 0.59593 0.53408 0.08551 0.0
H575 H 0.53681 0.50375 0.0295 0.0
H576 H 0.57079 0.47334 0.02061 0.0
H577 H 0.72505 0.76179 0.03163 0.0
H578 H 0.6522 0.72109 0.03368 0.0
H579 H 0.72981 0.78913 0.0935 0.0
H580 H 0.49049 0.62242 0.99603 0.0
H581 H 0.6028 0.73334 0.16075 0.0
H582 H 0.51707 0.51555 0.9539 0.0
H583 H 0.55459 0.58763 0.94937 0.0
H584 H 0.4709 0.52665 0.9326 0.0
H585 H 0.64557 0.65023 0.15134 0.0
H586 H 0.67049 0.73056 0.19426 0.0
H587 H 0.70828 0.72935 0.15697 0.0
C588 C 0.06433 0.13407 0.6942 0.0
C589 C 0.05952 0.08326 0.66126 0.0
C590 C 0.10456 0.2 0.70268 0.0
C591 C 0.13871 0.21431 0.6759 0.0
C592 C 0.12867 0.16039 0.63838 0.0
C593 C 0.08986 0.09572 0.63204 0.0
C594 C 0.11455 0.25642 0.74345 0.0
C595 C 0.16171 0.17255 0.60708 0.0
C596 C 0.21037 0.37249 0.6778 0.0
C597 C 0.27683 0.42535 0.71532 0.0
C598 C 0.16542 0.30293 0.66316 0.0
C599 C 0.18673 0.28676 0.68883 0.0
C600 C 0.25352 0.34048 0.728 0.0
C601 C 0.29833 0.40894 0.73981 0.0
C602 C 0.09534 0.24688 0.61996 0.0
C603 C 0.27749 0.32556 0.75731 0.0
H604 H 0.04152 0.12538 0.71731 0.0
H605 H 0.08622 0.05666 0.60644 0.0
H606 H 0.16596 0.30271 0.77676 0.0
H607 H 0.10547 0.27686 0.72655 0.0
H608 H 0.0821 0.23563 0.75912 0.0
H609 H 0.1431 0.12263 0.57542 0.0
H610 H 0.15433 0.19319 0.58909 0.0
H611 H 0.21504 0.21371 0.63362 0.0
H612 H 0.19368 0.38474 0.65821 0.0
H613 H 0.34979 0.44961 0.76828 0.0
H614 H 0.06424 0.23569 0.63723 0.0
H615 H 0.07675 0.19568 0.59173 0.0
H616 H 0.08967 0.26466 0.59782 0.0
H617 H 0.24914 0.3059 0.77595 0.0
H618 H 0.33012 0.37399 0.78833 0.0
H619 H 0.26973 0.28265 0.72941 0.0
C620 C 0.74517 0.17778 0.18616 0.0
C621 C 0.69302 0.10662 0.16849 0.0
C622 C 0.73925 0.22172 0.19698 0.0
C623 C 0.67949 0.19421 0.18976 0.0
C624 C 0.62607 0.12216 0.17111 0.0
C625 C 0.63347 0.07913 0.16074 0.0
C626 C 0.7975 0.29813 0.21681 0.0
C627 C 0.56142 0.09091 0.16264 0.0
C628 C 0.68946 0.33364 0.26569 0.0
C629 C 0.67101 0.33852 0.22733 0.0
C630 C 0.6911 0.28584 0.25372 0.0
C631 C 0.67382 0.24167 0.20213 0.0
C632 C 0.65563 0.24665 0.16334 0.0
C633 C 0.65462 0.29504 0.17641 0.0
C634 C 0.7115 0.28272 0.29636 0.0
C635 C 0.63726 0.20084 0.10797 0.0
H636 H 0.79153 0.20001 0.19222 0.0
H637 H 0.59296 0.02444 0.14719 0.0
H638 H 0.81155 0.33617 0.2561 0.0
H639 H 0.84048 0.31118 0.22002 0.0
H640 H 0.78481 0.30723 0.19001 0.0
H641 H 0.52423 0.03362 0.14683 0.0
H642 H 0.56795 0.12196 0.20036 0.0
H643 H 0.54268 0.09522 0.13489 0.0
H644 H 0.7018 0.3665 0.30504 0.0
H645 H 0.63984 0.29781 0.14626 0.0
H646 H 0.75617 0.29818 0.30342 0.0
H647 H 0.67275 0.22701 0.2837 0.0
H648 H 0.72146 0.31889 0.33403 0.0
H649 H 0.67942 0.21367 0.10844 0.0
H650 H 0.62174 0.20903 0.08183 0.0
H651 H 0.59694 0.1432 0.09094 0.0
C652 C 0.07281 0.7117 0.13643 0.0
C653 C 0.08886 0.77287 0.16414 0.0
C654 C 0.1181 0.71411 0.15343 0.0
C655 C 0.1817 0.77993 0.19797 0.0
C656 C 0.19819 0.84192 0.22573 0.0
C657 C 0.15127 0.83732 0.20902 0.0
C658 C 0.0979 0.64625 0.12381 0.0
C659 C 0.26592 0.9136 0.27239 0.0
C660 C 0.28511 0.78063 0.2733 0.0
C661 C 0.3237 0.79141 0.25107 0.0
C662 C 0.23807 0.77557 0.25574 0.0
C663 C 0.23082 0.78395 0.21618 0.0
C664 C 0.27096 0.79691 0.1946 0.0
C665 C 0.31608 0.79909 0.21159 0.0
C666 C 0.19505 0.75954 0.27868 0.0
C667 C 0.26628 0.80854 0.15363 0.0
H668 H 0.0247 0.6619 0.10163 0.0
H669 H 0.16438 0.88516 0.23001 0.0
H670 H 0.12847 0.65294 0.10674 0.0
H671 H 0.10583 0.63539 0.15116 0.0
H672 H 0.04582 0.59884 0.09154 0.0
H673 H 0.27158 0.95723 0.28851 0.0
H674 H 0.27719 0.91009 0.30409 0.0
H675 H 0.30255 0.92838 0.26081 0.0
H676 H 0.28992 0.7733 0.30315 0.0
H677 H 0.3457 0.80723 0.19425 0.0
H678 H 0.14298 0.71005 0.24679 0.0
H679 H 0.20195 0.80393 0.29812 0.0
H680 H 0.20545 0.75213 0.30791 0.0
H681 H 0.217 0.75962 0.11766 0.0
H682 H 0.30312 0.82155 0.14273 0.0
H683 H 0.27325 0.85304 0.16848 0.0
loop_
_geom_bond_atom_site_label_1
_geom_bond_atom_site_label_2
_geom_bond_distance
_geom_bond_site_symmetry_2
_ccdc_geom_bond_type
Co0 O3 1.970 . S
Co0 N17 1.989 . S
Co0 O25 1.967 . S
Co0 O32 1.920 . S
Co1 O4 1.966 . S
Co1 N10 2.022 . S
Co1 N18 1.993 . S
Co1 O26 1.941 . S
C2 O3 1.258 . S
C2 O4 1.263 . S
O3 Co0 1.970 . S
O3 C2 1.258 . S
O4 Co1 1.966 . S
O4 C2 1.263 . S
C5 O6 1.235 . S
C5 O32 1.289 . S
O6 C5 1.235 . S
C7 C9 1.400 . S
C7 N10 1.351 . S
C7 C12 1.501 . S
C8 C9 1.387 . S
C8 N11 1.341 . S
C9 C7 1.400 . S
C9 C8 1.387 . S
N10 Co1 2.022 . S
N10 C7 1.351 . S
N10 N11 1.365 . S
N11 C8 1.341 . S
N11 N10 1.365 . S
N11 H31 0.862 . S
C12 C7 1.501 . S
C12 H13 0.961 . S
C12 H14 0.961 . S
C12 H15 0.960 . S
H13 C12 0.961 . S
H14 C12 0.961 . S
H15 C12 0.960 . S
C16 N17 1.342 . S
C16 C20 1.401 . S
C16 C21 1.499 . S
N17 Co0 1.989 . S
N17 C16 1.342 . S
N17 N18 1.388 . S
N18 Co1 1.993 . S
N18 N17 1.388 . S
N18 C19 1.346 . S
C19 N18 1.346 . S
C19 C20 1.396 . S
C19 C29 1.510 . S
C20 C16 1.401 . S
C20 C19 1.396 . S
C21 C16 1.499 . S
C21 H22 0.959 . S
C21 H23 0.960 . S
C21 H24 0.961 . S
H22 C21 0.959 . S
H23 C21 0.960 . S
H24 C21 0.961 . S
O25 Co0 1.967 . S
O25 C33 1.258 . S
O26 Co1 1.941 . S
O26 C33 1.266 . S
H27 C29 0.959 . S
H28 C29 0.961 . S
C29 C19 1.510 . S
C29 H27 0.959 . S
C29 H28 0.961 . S
C29 H30 0.960 . S
H30 C29 0.960 . S
H31 N11 0.862 . S
O32 Co0 1.920 . S
O32 C5 1.289 . S
C33 O25 1.258 . S
C33 O26 1.266 . S
Co34 O37 1.970 . S
Co34 N51 1.989 1_545 S
Co34 O59 1.967 . S
Co34 O66 1.920 . S
Co35 O38 1.966 1_565 S
Co35 N44 2.022 1_455 S
Co35 N52 1.993 . S
Co35 O60 1.941 . S
C36 O37 1.258 . S
C36 O38 1.263 . S
O37 Co34 1.970 . S
O37 C36 1.258 . S
O38 Co35 1.966 1_545 S
O38 C36 1.263 . S
C39 O40 1.235 . S
C39 O66 1.289 . S
O40 C39 1.235 . S
C41 C43 1.400 . S
C41 N44 1.351 . S
C41 C46 1.501 1_565 S
C42 C43 1.387 . S
C42 N45 1.341 . S
C43 C41 1.400 . S
C43 C42 1.387 . S
N44 Co35 2.022 1_655 S
N44 C41 1.351 . S
N44 N45 1.365 . S
N45 C42 1.341 . S
N45 N44 1.365 . S
N45 H65 0.862 . S
C46 C41 1.501 1_545 S
C46 H47 0.961 . S
C46 H48 0.961 . S
C46 H49 0.960 . S
H47 C46 0.961 . S
H48 C46 0.961 . S
H49 C46 0.960 . S
C50 N51 1.342 . S
C50 C54 1.401 . S
C50 C55 1.499 . S
N51 Co34 1.989 1_565 S
N51 C50 1.342 . S
N51 N52 1.388 . S
N52 Co35 1.993 . S
N52 N51 1.388 . S
N52 C53 1.346 1_455 S
C53 N52 1.346 1_655 S
C53 C54 1.396 1_655 S
C53 C63 1.510 . S
C54 C50 1.401 . S
C54 C53 1.396 1_455 S
C55 C50 1.499 . S
C55 H56 0.959 . S
C55 H57 0.960 . S
C55 H58 0.961 . S
H56 C55 0.959 . S
H57 C55 0.960 . S
H58 C55 0.961 . S
O59 Co34 1.967 . S
O59 C67 1.258 . S
O60 Co35 1.941 . S
O60 C67 1.266 1_565 S
H61 C63 0.959 . S
H62 C63 0.961 . S
C63 C53 1.510 . S
C63 H61 0.959 . S
C63 H62 0.961 . S
C63 H64 0.960 . S
H64 C63 0.960 . S
H65 N45 0.862 . S
O66 Co34 1.920 . S
O66 C39 1.289 . S
C67 O59 1.258 . S
C67 O60 1.266 1_545 S
Co68 O71 1.970 . S
Co68 N85 1.989 . S
Co68 O93 1.967 . S
Co68 O100 1.920 . S
Co69 O72 1.966 . S
Co69 N78 2.022 . S
Co69 N86 1.993 . S
Co69 O94 1.941 . S
C70 O71 1.258 . S
C70 O72 1.263 . S
O71 Co68 1.970 . S
O71 C70 1.258 . S
O72 Co69 1.966 . S
O72 C70 1.263 . S
C73 O74 1.235 . S
C73 O100 1.289 . S
O74 C73 1.235 . S
C75 C77 1.400 . S
C75 N78 1.351 . S
C75 C80 1.501 . S
C76 C77 1.387 . S
C76 N79 1.341 . S
C77 C75 1.400 . S
C77 C76 1.387 . S
N78 Co69 2.022 . S
N78 C75 1.351 . S
N78 N79 1.365 . S
N79 C76 1.341 . S
N79 N78 1.365 . S
N79 H99 0.862 . S
C80 C75 1.501 . S
C80 H81 0.961 . S
C80 H82 0.961 . S
C80 H83 0.960 . S
H81 C80 0.961 . S
H82 C80 0.961 . S
H83 C80 0.960 . S
C84 N85 1.342 . S
C84 C88 1.401 . S
C84 C89 1.499 . S
N85 Co68 1.989 . S
N85 C84 1.342 . S
N85 N86 1.388 . S
N86 Co69 1.993 . S
N86 N85 1.388 . S
N86 C87 1.346 . S
C87 N86 1.346 . S
C87 C88 1.396 . S
C87 C97 1.510 . S
C88 C84 1.401 . S
C88 C87 1.396 . S
C89 C84 1.499 . S
C89 H90 0.959 . S
C89 H91 0.960 . S
C89 H92 0.961 . S
H90 C89 0.959 . S
H91 C89 0.960 . S
H92 C89 0.961 . S
O93 Co68 1.967 . S
O93 C101 1.258 . S
O94 Co69 1.941 . S
O94 C101 1.266 . S
H95 C97 0.959 . S
H96 C97 0.961 . S
C97 C87 1.510 . S
C97 H95 0.959 . S
C97 H96 0.961 . S
C97 H98 0.960 . S
H98 C97 0.960 . S
H99 N79 0.862 . S
O100 Co68 1.920 . S
O100 C73 1.289 . S
C101 O93 1.258 . S
C101 O94 1.266 . S
Co102 O105 1.970 . S
Co102 N119 1.989 . S
Co102 O127 1.967 . S
Co102 O134 1.920 . S
Co103 O106 1.966 . S
Co103 N112 2.022 . S
Co103 N120 1.993 . S
Co103 O128 1.941 . S
C104 O105 1.258 . S
C104 O106 1.263 . S
O105 Co102 1.970 . S
O105 C104 1.258 . S
O106 Co103 1.966 . S
O106 C104 1.263 . S
C107 O108 1.235 . S
C107 O134 1.289 . S
O108 C107 1.235 . S
C109 C111 1.400 . S
C109 N112 1.351 . S
C109 C114 1.501 . S
C110 C111 1.387 . S
C110 N113 1.341 . S
C111 C109 1.400 . S
C111 C110 1.387 . S
N112 Co103 2.022 . S
N112 C109 1.351 . S
N112 N113 1.365 . S
N113 C110 1.341 . S
N113 N112 1.365 . S
N113 H133 0.862 . S
C114 C109 1.501 . S
C114 H115 0.961 . S
C114 H116 0.961 . S
C114 H117 0.960 . S
H115 C114 0.961 . S
H116 C114 0.961 . S
H117 C114 0.960 . S
C118 N119 1.342 . S
C118 C122 1.401 . S
C118 C123 1.499 . S
N119 Co102 1.989 . S
N119 C118 1.342 . S
N119 N120 1.388 . S
N120 Co103 1.993 . S
N120 N119 1.388 . S
N120 C121 1.346 . S
C121 N120 1.346 . S
C121 C122 1.396 . S
C121 C131 1.510 . S
C122 C118 1.401 . S
C122 C121 1.396 . S
C123 C118 1.499 . S
C123 H124 0.959 . S
C123 H125 0.960 . S
C123 H126 0.961 . S
H124 C123 0.959 . S
H125 C123 0.960 . S
H126 C123 0.961 . S
O127 Co102 1.967 . S
O127 C135 1.258 . S
O128 Co103 1.941 . S
O128 C135 1.266 . S
H129 C131 0.959 . S
H130 C131 0.961 . S
C131 C121 1.510 . S
C131 H129 0.959 . S
C131 H130 0.961 . S
C131 H132 0.960 . S
H132 C131 0.960 . S
H133 N113 0.862 . S
O134 Co102 1.920 . S
O134 C107 1.289 . S
C135 O127 1.258 . S
C135 O128 1.266 . S
Co136 O139 1.970 . S
Co136 N153 1.989 . S
Co136 O161 1.967 . S
Co136 O168 1.920 . S
Co137 O140 1.966 1_565 S
Co137 N146 2.022 . S
Co137 N154 1.993 . S
Co137 O162 1.941 . S
C138 O139 1.258 . S
C138 O140 1.263 . S
O139 Co136 1.970 . S
O139 C138 1.258 . S
O140 Co137 1.966 1_545 S
O140 C138 1.263 . S
C141 O142 1.235 . S
C141 O168 1.289 . S
O142 C141 1.235 . S
C143 C145 1.400 . S
C143 N146 1.351 . S
C143 C148 1.501 . S
C144 C145 1.387 1_556 S
C144 N147 1.341 . S
C145 C143 1.400 . S
C145 C144 1.387 1_554 S
N146 Co137 2.022 . S
N146 C143 1.351 . S
N146 N147 1.365 1_554 S
N147 C144 1.341 . S
N147 N146 1.365 1_556 S
N147 H167 0.862 . S
C148 C143 1.501 . S
C148 H149 0.961 . S
C148 H150 0.961 . S
C148 H151 0.960 . S
H149 C148 0.961 . S
H150 C148 0.961 . S
H151 C148 0.960 . S
C152 N153 1.342 1_556 S
C152 C156 1.401 1_545 S
C152 C157 1.499 . S
N153 Co136 1.989 . S
N153 C152 1.342 1_554 S
N153 N154 1.388 1_545 S
N154 Co137 1.993 . S
N154 N153 1.388 1_565 S
N154 C155 1.346 1_554 S
C155 N154 1.346 1_556 S
C155 C156 1.396 . S
C155 C165 1.510 . S
C156 C152 1.401 1_565 S
C156 C155 1.396 . S
C157 C152 1.499 . S
C157 H158 0.959 1_556 S
C157 H159 0.960 . S
C157 H160 0.961 . S
H158 C157 0.959 1_554 S
H159 C157 0.960 . S
H160 C157 0.961 . S
O161 Co136 1.967 . S
O161 C169 1.258 . S
O162 Co137 1.941 . S
O162 C169 1.266 1_565 S
H163 C165 0.959 . S
H164 C165 0.961 . S
C165 C155 1.510 . S
C165 H163 0.959 . S
C165 H164 0.961 . S
C165 H166 0.960 . S
H166 C165 0.960 . S
H167 N147 0.862 . S
O168 Co136 1.920 . S
O168 C141 1.289 . S
C169 O161 1.258 . S
C169 O162 1.266 1_545 S
Co170 O173 1.970 . S
Co170 N187 1.989 1_455 S
Co170 O195 1.967 . S
Co170 O202 1.920 . S
Co171 O174 1.966 1_655 S
Co171 N180 2.022 . S
Co171 N188 1.993 . S
Co171 O196 1.941 . S
C172 O173 1.258 . S
C172 O174 1.263 . S
O173 Co170 1.970 . S
O173 C172 1.258 . S
O174 Co171 1.966 1_455 S
O174 C172 1.263 . S
C175 O176 1.235 . S
C175 O202 1.289 . S
O176 C175 1.235 . S
C177 C179 1.410 . S
C177 N180 1.340 1_556 S
C177 C182 1.501 1_656 S
C178 C179 1.387 . S
C178 N181 1.341 . S
C179 C177 1.410 . S
C179 C178 1.387 . S
N180 Co171 2.022 . S
N180 C177 1.340 1_554 S
N180 N181 1.365 1_554 S
N181 C178 1.341 . S
N181 N180 1.365 1_556 S
N181 H201 0.862 . S
C182 C177 1.501 1_454 S
C182 H183 0.961 . S
C182 H184 0.961 . S
C182 H185 0.960 . S
H183 C182 0.961 . S
H184 C182 0.961 . S
H185 C182 0.960 . S
C186 N187 1.342 . S
C186 C190 1.401 . S
C186 C191 1.499 . S
N187 Co170 1.989 1_655 S
N187 C186 1.342 . S
N187 N188 1.388 . S
N188 Co171 1.993 . S
N188 N187 1.388 . S
N188 C189 1.346 . S
C189 N188 1.346 . S
C189 C190 1.396 . S
C189 C199 1.510 . S
C190 C186 1.401 . S
C190 C189 1.396 . S
C191 C186 1.499 . S
C191 H192 0.959 . S
C191 H193 0.960 . S
C191 H194 0.961 . S
H192 C191 0.959 . S
H193 C191 0.960 . S
H194 C191 0.961 . S
O195 Co170 1.967 . S
O195 C203 1.258 . S
O196 Co171 1.941 . S
O196 C203 1.266 1_655 S
H197 C199 0.959 . S
H198 C199 0.961 . S
C199 C189 1.510 . S
C199 H197 0.959 . S
C199 H198 0.961 . S
C199 H200 0.960 . S
H200 C199 0.960 . S
H201 N181 0.862 . S
O202 Co170 1.920 . S
O202 C175 1.289 . S
C203 O195 1.258 . S
C203 O196 1.266 1_455 S
C204 C205 1.391 . S
C204 C206 1.394 . S
C204 H220 0.931 . S
C205 C204 1.391 . S
C205 C209 1.376 . S
C206 C204 1.394 . S
C206 C207 1.369 . S
C206 C210 1.531 . S
C207 C206 1.369 . S
C207 C208 1.410 . S
C207 C215 1.503 . S
C208 C207 1.410 . S
C208 C209 1.392 . S
C208 C211 1.511 . S
C209 C205 1.376 . S
C209 C208 1.392 . S
C209 H221 0.929 . S
C210 C206 1.531 . S
C210 H222 0.960 . S
C210 H223 0.962 . S
C210 H224 0.960 . S
C211 C208 1.511 . S
C211 H225 0.961 . S
C211 H226 0.961 . S
C211 H227 0.961 . S
C212 C213 1.370 . S
C212 C214 1.363 . S
C212 H228 0.931 . S
C213 C212 1.370 . S
C213 C217 1.408 . S
C214 C212 1.363 . S
C214 C215 1.370 . S
C214 C218 1.524 . S
C215 C207 1.503 . S
C215 C214 1.370 . S
C215 C216 1.403 . S
C216 C215 1.403 . S
C216 C217 1.404 . S
C216 C219 1.539 . S
C217 C213 1.408 . S
C217 C216 1.404 . S
C217 H229 0.930 . S
C218 C214 1.524 . S
C218 H230 0.956 . S
C218 H231 0.961 . S
C218 H232 0.961 . S
C219 C216 1.539 . S
C219 H233 0.958 . S
C219 H234 0.961 . S
C219 H235 0.960 . S
H220 C204 0.931 . S
H221 C209 0.929 . S
H222 C210 0.960 . S
H223 C210 0.962 . S
H224 C210 0.960 . S
H225 C211 0.961 . S
H226 C211 0.961 . S
H227 C211 0.961 . S
H228 C212 0.931 . S
H229 C217 0.930 . S
H230 C218 0.956 . S
H231 C218 0.961 . S
H232 C218 0.961 . S
H233 C219 0.958 . S
H234 C219 0.961 . S
H235 C219 0.960 . S
C236 C237 1.391 . S
C236 C238 1.394 . S
C236 H252 0.931 . S
C237 C236 1.391 . S
C237 C241 1.376 . S
C238 C236 1.394 . S
C238 C239 1.369 . S
C238 C242 1.531 . S
C239 C238 1.369 . S
C239 C240 1.410 . S
C239 C247 1.503 . S
C240 C239 1.410 . S
C240 C241 1.392 . S
C240 C243 1.511 . S
C241 C237 1.376 . S
C241 C240 1.392 . S
C241 H253 0.929 . S
C242 C238 1.531 . S
C242 H254 0.960 . S
C242 H255 0.962 . S
C242 H256 0.960 . S
C243 C240 1.511 . S
C243 H257 0.961 . S
C243 H258 0.961 . S
C243 H259 0.961 . S
C244 C245 1.370 . S
C244 C246 1.363 . S
C244 H260 0.931 . S
C245 C244 1.370 . S
C245 C249 1.408 . S
C246 C244 1.363 . S
C246 C247 1.370 . S
C246 C250 1.524 . S
C247 C239 1.503 . S
C247 C246 1.370 . S
C247 C248 1.403 . S
C248 C247 1.403 . S
C248 C249 1.404 . S
C248 C251 1.539 . S
C249 C245 1.408 . S
C249 C248 1.404 . S
C249 H261 0.930 . S
C250 C246 1.524 . S
C250 H262 0.956 . S
C250 H263 0.961 . S
C250 H264 0.961 . S
C251 C248 1.539 . S
C251 H265 0.958 . S
C251 H266 0.961 . S
C251 H267 0.960 . S
H252 C236 0.931 . S
H253 C241 0.929 . S
H254 C242 0.960 . S
H255 C242 0.962 . S
H256 C242 0.960 . S
H257 C243 0.961 . S
H258 C243 0.961 . S
H259 C243 0.961 . S
H260 C244 0.931 . S
H261 C249 0.930 . S
H262 C250 0.956 . S
H263 C250 0.961 . S
H264 C250 0.961 . S
H265 C251 0.958 . S
H266 C251 0.961 . S
H267 C251 0.960 . S
C268 C269 1.391 . S
C268 C270 1.394 . S
C268 H284 0.931 . S
C269 C268 1.391 . S
C269 C273 1.376 . S
C270 C268 1.394 . S
C270 C271 1.369 . S
C270 C274 1.531 . S
C271 C270 1.369 . S
C271 C272 1.410 . S
C271 C279 1.503 . S
C272 C271 1.410 . S
C272 C273 1.392 . S
C272 C275 1.511 . S
C273 C269 1.376 . S
C273 C272 1.392 . S
C273 H285 0.929 . S
C274 C270 1.531 . S
C274 H286 0.960 . S
C274 H287 0.962 . S
C274 H288 0.960 . S
C275 C272 1.511 . S
C275 H289 0.961 . S
C275 H290 0.961 . S
C275 H291 0.961 . S
C276 C277 1.370 1_545 S
C276 C278 1.363 . S
C276 H292 0.931 . S
C277 C276 1.370 1_565 S
C277 C281 1.408 . S
C278 C276 1.363 . S
C278 C279 1.370 . S
C278 C282 1.524 . S
C279 C271 1.503 . S
C279 C278 1.370 . S
C279 C280 1.403 . S
C280 C279 1.403 . S
C280 C281 1.404 1_545 S
C280 C283 1.539 . S
C281 C277 1.408 . S
C281 C280 1.404 1_565 S
C281 H293 0.930 . S
C282 C278 1.524 . S
C282 H294 0.956 . S
C282 H295 0.961 . S
C282 H296 0.961 . S
C283 C280 1.539 . S
C283 H297 0.958 . S
C283 H298 0.961 1_445 S
C283 H299 0.960 . S
H284 C268 0.931 . S
H285 C273 0.929 . S
H286 C274 0.960 . S
H287 C274 0.962 . S
H288 C274 0.960 . S
H289 C275 0.961 . S
H290 C275 0.961 . S
H291 C275 0.961 . S
H292 C276 0.931 . S
H293 C281 0.930 . S
H294 C282 0.956 . S
H295 C282 0.961 . S
H296 C282 0.961 . S
H297 C283 0.958 . S
H298 C283 0.961 1_665 S
H299 C283 0.960 . S
C300 C301 1.391 . S
C300 C302 1.394 . S
C300 H316 0.931 . S
C301 C300 1.391 . S
C301 C305 1.376 . S
C302 C300 1.394 . S
C302 C303 1.369 . S
C302 C306 1.531 . S
C303 C302 1.369 . S
C303 C304 1.410 . S
C303 C311 1.503 . S
C304 C303 1.410 . S
C304 C305 1.392 . S
C304 C307 1.511 . S
C305 C301 1.376 . S
C305 C304 1.392 . S
C305 H317 0.929 . S
C306 C302 1.531 . S
C306 H318 0.960 . S
C306 H319 0.962 . S
C306 H320 0.960 . S
C307 C304 1.511 . S
C307 H321 0.961 . S
C307 H322 0.961 . S
C307 H323 0.961 . S
C308 C309 1.370 . S
C308 C310 1.363 . S
C308 H324 0.931 . S
C309 C308 1.370 . S
C309 C313 1.408 . S
C310 C308 1.363 . S
C310 C311 1.370 . S
C310 C314 1.524 . S
C311 C303 1.503 . S
C311 C310 1.370 . S
C311 C312 1.403 . S
C312 C311 1.403 . S
C312 C313 1.404 . S
C312 C315 1.539 . S
C313 C309 1.408 . S
C313 C312 1.404 . S
C313 H325 0.930 . S
C314 C310 1.524 . S
C314 H326 0.956 . S
C314 H327 0.961 . S
C314 H328 0.961 . S
C315 C312 1.539 . S
C315 H329 0.958 . S
C315 H330 0.961 . S
C315 H331 0.960 . S
H316 C300 0.931 . S
H317 C305 0.929 . S
H318 C306 0.960 . S
H319 C306 0.962 . S
H320 C306 0.960 . S
H321 C307 0.961 . S
H322 C307 0.961 . S
H323 C307 0.961 . S
H324 C308 0.931 . S
H325 C313 0.930 . S
H326 C314 0.956 . S
H327 C314 0.961 . S
H328 C314 0.961 . S
H329 C315 0.958 . S
H330 C315 0.961 . S
H331 C315 0.960 . S
C332 C333 1.391 1_455 S
C332 C334 1.394 . S
C332 H348 0.931 . S
C333 C332 1.391 1_655 S
C333 C337 1.376 . S
C334 C332 1.394 . S
C334 C335 1.369 1_455 S
C334 C338 1.531 . S
C335 C334 1.369 1_655 S
C335 C336 1.410 . S
C335 C343 1.503 . S
C336 C335 1.410 . S
C336 C337 1.392 . S
C336 C339 1.511 . S
C337 C333 1.376 . S
C337 C336 1.392 . S
C337 H349 0.929 . S
C338 C334 1.531 . S
C338 H350 0.960 . S
C338 H351 0.962 . S
C338 H352 0.960 . S
C339 C336 1.511 . S
C339 H353 0.961 . S
C339 H354 0.961 . S
C339 H355 0.961 . S
C340 C341 1.366 . S
C340 C342 1.363 . S
C340 H356 0.931 . S
C341 C340 1.366 . S
C341 C345 1.413 1_455 S
C342 C340 1.363 . S
C342 C343 1.370 1_455 S
C342 C346 1.524 . S
C343 C335 1.503 . S
C343 C342 1.370 1_655 S
C343 C344 1.403 . S
C344 C343 1.403 . S
C344 C345 1.404 . S
C344 C347 1.539 . S
C345 C341 1.413 1_655 S
C345 C344 1.404 . S
C345 H357 0.930 . S
C346 C342 1.524 . S
C346 H358 0.956 . S
C346 H359 0.961 1_455 S
C346 H360 0.961 . S
C347 C344 1.539 . S
C347 H361 0.958 . S
C347 H362 0.961 . S
C347 H363 0.960 . S
H348 C332 0.931 . S
H349 C337 0.929 . S
H350 C338 0.960 . S
H351 C338 0.962 . S
H352 C338 0.960 . S
H353 C339 0.961 . S
H354 C339 0.961 . S
H355 C339 0.961 . S
H356 C340 0.931 . S
H357 C345 0.930 . S
H358 C346 0.956 . S
H359 C346 0.961 1_655 S
H360 C346 0.961 . S
H361 C347 0.958 . S
H362 C347 0.961 . S
H363 C347 0.960 . S
C364 C365 1.391 . S
C364 C366 1.394 . S
C364 H380 0.931 . S
C365 C364 1.391 . S
C365 C369 1.376 . S
C366 C364 1.394 . S
C366 C367 1.369 . S
C366 C370 1.531 . S
C367 C366 1.369 . S
C367 C368 1.410 . S
C367 C375 1.503 1_554 S
C368 C367 1.410 . S
C368 C369 1.392 . S
C368 C371 1.509 . S
C369 C365 1.376 . S
C369 C368 1.392 . S
C369 H381 0.929 . S
C370 C366 1.531 . S
C370 H382 0.961 . S
C370 H383 0.962 . S
C370 H384 0.960 . S
C371 C368 1.509 . S
C371 H385 0.961 . S
C371 H386 0.963 1_554 S
C371 H387 0.961 . S
C372 C373 1.370 . S
C372 C374 1.363 . S
C372 H388 0.931 . S
C373 C372 1.370 . S
C373 C377 1.408 . S
C374 C372 1.363 . S
C374 C375 1.370 . S
C374 C378 1.524 . S
C375 C367 1.503 1_556 S
C375 C374 1.370 . S
C375 C376 1.403 . S
C376 C375 1.403 . S
C376 C377 1.404 . S
C376 C379 1.539 . S
C377 C373 1.408 . S
C377 C376 1.404 . S
C377 H389 0.930 . S
C378 C374 1.524 . S
C378 H390 0.956 . S
C378 H391 0.961 . S
C378 H392 0.961 . S
C379 C376 1.539 . S
C379 H393 0.958 . S
C379 H394 0.961 . S
C379 H395 0.960 1_556 S
H380 C364 0.931 . S
H381 C369 0.929 . S
H382 C370 0.961 . S
H383 C370 0.962 . S
H384 C370 0.960 . S
H385 C371 0.961 . S
H386 C371 0.963 1_556 S
H387 C371 0.961 . S
H388 C372 0.931 . S
H389 C377 0.930 . S
H390 C378 0.956 . S
H391 C378 0.961 . S
H392 C378 0.961 . S
H393 C379 0.958 . S
H394 C379 0.961 . S
H395 C379 0.960 1_554 S
C396 C397 1.391 . S
C396 C398 1.394 . S
C396 H412 0.931 . S
C397 C396 1.391 . S
C397 C401 1.376 . S
C398 C396 1.394 . S
C398 C399 1.369 . S
C398 C402 1.531 . S
C399 C398 1.369 . S
C399 C400 1.410 . S
C399 C407 1.503 . S
C400 C399 1.410 . S
C400 C401 1.392 . S
C400 C403 1.511 . S
C401 C397 1.376 . S
C401 C400 1.392 . S
C401 H413 0.929 . S
C402 C398 1.531 . S
C402 H414 0.960 . S
C402 H415 0.962 . S
C402 H416 0.960 . S
C403 C400 1.511 . S
C403 H417 0.961 . S
C403 H418 0.961 . S
C403 H419 0.961 . S
C404 C405 1.370 1_556 S
C404 C406 1.363 . S
C404 H420 0.931 . S
C405 C404 1.370 1_554 S
C405 C409 1.408 . S
C406 C404 1.363 . S
C406 C407 1.370 . S
C406 C410 1.524 . S
C407 C399 1.503 . S
C407 C406 1.370 . S
C407 C408 1.403 1_556 S
C408 C407 1.403 1_554 S
C408 C409 1.404 . S
C408 C411 1.539 . S
C409 C405 1.408 . S
C409 C408 1.404 . S
C409 H421 0.930 . S
C410 C406 1.524 . S
C410 H422 0.956 . S
C410 H423 0.961 . S
C410 H424 0.961 . S
C411 C408 1.539 . S
C411 H425 0.958 . S
C411 H426 0.961 . S
C411 H427 0.960 . S
H412 C396 0.931 . S
H413 C401 0.929 . S
H414 C402 0.960 . S
H415 C402 0.962 . S
H416 C402 0.960 . S
H417 C403 0.961 . S
H418 C403 0.961 . S
H419 C403 0.961 . S
H420 C404 0.931 . S
H421 C409 0.930 . S
H422 C410 0.956 . S
H423 C410 0.961 . S
H424 C410 0.961 . S
H425 C411 0.958 . S
H426 C411 0.961 . S
H427 C411 0.960 . S
C428 C429 1.391 . S
C428 C430 1.394 . S
C428 H444 0.931 . S
C429 C428 1.391 . S
C429 C433 1.376 . S
C430 C428 1.394 . S
C430 C431 1.369 . S
C430 C434 1.531 . S
C431 C430 1.369 . S
C431 C432 1.410 . S
C431 C439 1.503 . S
C432 C431 1.410 . S
C432 C433 1.392 . S
C432 C435 1.511 . S
C433 C429 1.376 . S
C433 C432 1.392 . S
C433 H445 0.929 . S
C434 C430 1.531 . S
C434 H446 0.960 . S
C434 H447 0.962 . S
C434 H448 0.960 . S
C435 C432 1.511 . S
C435 H449 0.961 . S
C435 H450 0.961 . S
C435 H451 0.961 . S
C436 C437 1.370 . S
C436 C438 1.363 . S
C436 H452 0.931 . S
C437 C436 1.370 . S
C437 C441 1.408 . S
C438 C436 1.363 . S
C438 C439 1.370 . S
C438 C442 1.524 1_565 S
C439 C431 1.503 . S
C439 C438 1.370 . S
C439 C440 1.403 . S
C440 C439 1.403 . S
C440 C441 1.404 . S
C440 C443 1.539 . S
C441 C437 1.408 . S
C441 C440 1.404 . S
C441 H453 0.930 . S
C442 C438 1.524 1_545 S
C442 H454 0.956 . S
C442 H455 0.961 . S
C442 H456 0.961 . S
C443 C440 1.539 . S
C443 H457 0.958 . S
C443 H458 0.961 . S
C443 H459 0.960 . S
H444 C428 0.931 . S
H445 C433 0.929 . S
H446 C434 0.960 . S
H447 C434 0.962 . S
H448 C434 0.960 . S
H449 C435 0.961 . S
H450 C435 0.961 . S
H451 C435 0.961 . S
H452 C436 0.931 . S
H453 C441 0.930 . S
H454 C442 0.956 . S
H455 C442 0.961 . S
H456 C442 0.961 . S
H457 C443 0.958 . S
H458 C443 0.961 . S
H459 C443 0.960 . S
C460 C461 1.391 . S
C460 C462 1.394 . S
C460 H476 0.931 . S
C461 C460 1.391 . S
C461 C465 1.376 . S
C462 C460 1.394 . S
C462 C463 1.369 . S
C462 C466 1.531 . S
C463 C462 1.369 . S
C463 C464 1.410 . S
C463 C471 1.503 . S
C464 C463 1.410 . S
C464 C465 1.392 . S
C464 C467 1.511 . S
C465 C461 1.376 . S
C465 C464 1.392 . S
C465 H477 0.929 . S
C466 C462 1.531 . S
C466 H478 0.960 . S
C466 H479 0.962 . S
C466 H480 0.960 . S
C467 C464 1.511 . S
C467 H481 0.961 . S
C467 H482 0.961 . S
C467 H483 0.961 . S
C468 C469 1.370 . S
C468 C470 1.363 . S
C468 H484 0.931 . S
C469 C468 1.370 . S
C469 C473 1.408 . S
C470 C468 1.363 . S
C470 C471 1.370 . S
C470 C474 1.524 . S
C471 C463 1.503 . S
C471 C470 1.370 . S
C471 C472 1.403 . S
C472 C471 1.403 . S
C472 C473 1.404 . S
C472 C475 1.539 . S
C473 C469 1.408 . S
C473 C472 1.404 . S
C473 H485 0.930 . S
C474 C470 1.524 . S
C474 H486 0.956 . S
C474 H487 0.961 . S
C474 H488 0.961 . S
C475 C472 1.539 . S
C475 H489 0.958 . S
C475 H490 0.961 . S
C475 H491 0.960 . S
H476 C460 0.931 . S
H477 C465 0.929 . S
H478 C466 0.960 . S
H479 C466 0.962 . S
H480 C466 0.960 . S
H481 C467 0.961 . S
H482 C467 0.961 . S
H483 C467 0.961 . S
H484 C468 0.931 . S
H485 C473 0.930 . S
H486 C474 0.956 . S
H487 C474 0.961 . S
H488 C474 0.961 . S
H489 C475 0.958 . S
H490 C475 0.961 . S
H491 C475 0.960 . S
C492 C493 1.391 . S
C492 C494 1.394 . S
C492 H508 0.931 . S
C493 C492 1.391 . S
C493 C497 1.376 . S
C494 C492 1.394 . S
C494 C495 1.369 . S
C494 C498 1.531 . S
C495 C494 1.369 . S
C495 C496 1.410 . S
C495 C503 1.503 . S
C496 C495 1.410 . S
C496 C497 1.392 . S
C496 C499 1.511 . S
C497 C493 1.376 . S
C497 C496 1.392 . S
C497 H509 0.929 . S
C498 C494 1.531 . S
C498 H510 0.960 . S
C498 H511 0.962 . S
C498 H512 0.960 . S
C499 C496 1.511 . S
C499 H513 0.961 . S
C499 H514 0.961 . S
C499 H515 0.961 . S
C500 C501 1.370 . S
C500 C502 1.363 1_565 S
C500 H516 0.931 . S
C501 C500 1.370 . S
C501 C505 1.408 1_565 S
C502 C500 1.363 1_545 S
C502 C503 1.370 . S
C502 C506 1.524 . S
C503 C495 1.503 . S
C503 C502 1.370 . S
C503 C504 1.403 . S
C504 C503 1.403 . S
C504 C505 1.404 . S
C504 C507 1.539 . S
C505 C501 1.408 1_545 S
C505 C504 1.404 . S
C505 H517 0.930 . S
C506 C502 1.524 . S
C506 H518 0.956 . S
C506 H519 0.961 . S
C506 H520 0.961 1_545 S
C507 C504 1.539 . S
C507 H521 0.958 . S
C507 H522 0.961 . S
C507 H523 0.960 . S
H508 C492 0.931 . S
H509 C497 0.929 . S
H510 C498 0.960 . S
H511 C498 0.962 . S
H512 C498 0.960 . S
H513 C499 0.961 . S
H514 C499 0.961 . S
H515 C499 0.961 . S
H516 C500 0.931 . S
H517 C505 0.930 . S
H518 C506 0.956 . S
H519 C506 0.961 . S
H520 C506 0.961 1_565 S
H521 C507 0.958 . S
H522 C507 0.961 . S
H523 C507 0.960 . S
C524 C525 1.391 . S
C524 C526 1.394 . S
C524 H540 0.931 . S
C525 C524 1.391 . S
C525 C529 1.376 . S
C526 C524 1.394 . S
C526 C527 1.369 . S
C526 C530 1.531 1_655 S
C527 C526 1.369 . S
C527 C528 1.410 . S
C527 C535 1.503 1_655 S
C528 C527 1.410 . S
C528 C529 1.392 . S
C528 C531 1.511 . S
C529 C525 1.376 . S
C529 C528 1.392 . S
C529 H541 0.929 . S
C530 C526 1.531 1_455 S
C530 H542 0.960 . S
C530 H543 0.962 . S
C530 H544 0.960 . S
C531 C528 1.511 . S
C531 H545 0.961 . S
C531 H546 0.961 1_655 S
C531 H547 0.961 . S
C532 C533 1.370 . S
C532 C534 1.363 . S
C532 H548 0.931 . S
C533 C532 1.370 . S
C533 C537 1.408 . S
C534 C532 1.363 . S
C534 C535 1.370 . S
C534 C538 1.524 . S
C535 C527 1.503 1_455 S
C535 C534 1.370 . S
C535 C536 1.403 . S
C536 C535 1.403 . S
C536 C537 1.404 . S
C536 C539 1.539 . S
C537 C533 1.408 . S
C537 C536 1.404 . S
C537 H549 0.930 . S
C538 C534 1.524 . S
C538 H550 0.956 . S
C538 H551 0.961 . S
C538 H552 0.961 . S
C539 C536 1.539 . S
C539 H553 0.958 . S
C539 H554 0.961 . S
C539 H555 0.960 . S
H540 C524 0.931 . S
H541 C529 0.929 . S
H542 C530 0.960 . S
H543 C530 0.962 . S
H544 C530 0.960 . S
H545 C531 0.961 . S
H546 C531 0.961 1_455 S
H547 C531 0.961 . S
H548 C532 0.931 . S
H549 C537 0.930 . S
H550 C538 0.956 . S
H551 C538 0.961 . S
H552 C538 0.961 . S
H553 C539 0.958 . S
H554 C539 0.961 . S
H555 C539 0.960 . S
C556 C557 1.391 . S
C556 C558 1.394 . S
C556 H572 0.931 . S
C557 C556 1.391 . S
C557 C561 1.376 . S
C558 C556 1.394 . S
C558 C559 1.369 . S
C558 C562 1.531 1_554 S
C559 C558 1.369 . S
C559 C560 1.410 . S
C559 C567 1.503 . S
C560 C559 1.410 . S
C560 C561 1.392 . S
C560 C563 1.511 . S
C561 C557 1.376 . S
C561 C560 1.392 . S
C561 H573 0.929 . S
C562 C558 1.531 1_556 S
C562 H574 0.960 . S
C562 H575 0.962 . S
C562 H576 0.960 . S
C563 C560 1.511 . S
C563 H577 0.961 . S
C563 H578 0.961 . S
C563 H579 0.961 . S
C564 C565 1.370 . S
C564 C566 1.363 . S
C564 H580 0.931 . S
C565 C564 1.370 . S
C565 C569 1.408 . S
C566 C564 1.363 . S
C566 C567 1.370 . S
C566 C570 1.524 . S
C567 C559 1.503 . S
C567 C566 1.370 . S
C567 C568 1.403 . S
C568 C567 1.403 . S
C568 C569 1.404 . S
C568 C571 1.539 . S
C569 C565 1.408 . S
C569 C568 1.404 . S
C569 H581 0.930 . S
C570 C566 1.524 . S
C570 H582 0.956 . S
C570 H583 0.961 . S
C570 H584 0.961 . S
C571 C568 1.539 . S
C571 H585 0.958 . S
C571 H586 0.961 . S
C571 H587 0.960 . S
H572 C556 0.931 . S
H573 C561 0.929 . S
H574 C562 0.960 . S
H575 C562 0.962 . S
H576 C562 0.960 . S
H577 C563 0.961 . S
H578 C563 0.961 . S
H579 C563 0.961 . S
H580 C564 0.931 . S
H581 C569 0.930 . S
H582 C570 0.956 . S
H583 C570 0.961 . S
H584 C570 0.961 . S
H585 C571 0.958 . S
H586 C571 0.961 . S
H587 C571 0.960 . S
C588 C589 1.391 . S
C588 C590 1.394 . S
C588 H604 0.931 . S
C589 C588 1.391 . S
C589 C593 1.376 . S
C590 C588 1.394 . S
C590 C591 1.369 . S
C590 C594 1.531 . S
C591 C590 1.369 . S
C591 C592 1.410 . S
C591 C599 1.503 . S
C592 C591 1.410 . S
C592 C593 1.392 . S
C592 C595 1.511 . S
C593 C589 1.376 . S
C593 C592 1.392 . S
C593 H605 0.929 . S
C594 C590 1.531 . S
C594 H606 0.960 . S
C594 H607 0.962 . S
C594 H608 0.960 . S
C595 C592 1.511 . S
C595 H609 0.961 . S
C595 H610 0.961 . S
C595 H611 0.961 . S
C596 C597 1.370 . S
C596 C598 1.363 . S
C596 H612 0.931 . S
C597 C596 1.370 . S
C597 C601 1.408 . S
C598 C596 1.363 . S
C598 C599 1.370 . S
C598 C602 1.524 . S
C599 C591 1.503 . S
C599 C598 1.370 . S
C599 C600 1.403 . S
C600 C599 1.403 . S
C600 C601 1.404 . S
C600 C603 1.539 . S
C601 C597 1.408 . S
C601 C600 1.404 . S
C601 H613 0.930 . S
C602 C598 1.524 . S
C602 H614 0.956 . S
C602 H615 0.961 . S
C602 H616 0.961 . S
C603 C600 1.539 . S
C603 H617 0.958 . S
C603 H618 0.961 . S
C603 H619 0.960 . S
H604 C588 0.931 . S
H605 C593 0.929 . S
H606 C594 0.960 . S
H607 C594 0.962 . S
H608 C594 0.960 . S
H609 C595 0.961 . S
H610 C595 0.961 . S
H611 C595 0.961 . S
H612 C596 0.931 . S
H613 C601 0.930 . S
H614 C602 0.956 . S
H615 C602 0.961 . S
H616 C602 0.961 . S
H617 C603 0.958 . S
H618 C603 0.961 . S
H619 C603 0.960 . S
C620 C621 1.391 . S
C620 C622 1.394 . S
C620 H636 0.931 . S
C621 C620 1.391 . S
C621 C625 1.376 . S
C622 C620 1.394 . S
C622 C623 1.369 . S
C622 C626 1.531 . S
C623 C622 1.369 . S
C623 C624 1.410 . S
C623 C631 1.503 . S
C624 C623 1.410 . S
C624 C625 1.392 . S
C624 C627 1.511 . S
C625 C621 1.376 . S
C625 C624 1.392 . S
C625 H637 0.929 . S
C626 C622 1.531 . S
C626 H638 0.960 . S
C626 H639 0.962 . S
C626 H640 0.960 . S
C627 C624 1.511 . S
C627 H641 0.961 . S
C627 H642 0.961 . S
C627 H643 0.961 . S
C628 C629 1.370 . S
C628 C630 1.363 . S
C628 H644 0.931 . S
C629 C628 1.370 . S
C629 C633 1.408 . S
C630 C628 1.363 . S
C630 C631 1.370 . S
C630 C634 1.524 . S
C631 C623 1.503 . S
C631 C630 1.370 . S
C631 C632 1.403 . S
C632 C631 1.403 . S
C632 C633 1.404 . S
C632 C635 1.539 . S
C633 C629 1.408 . S
C633 C632 1.404 . S
C633 H645 0.930 . S
C634 C630 1.524 . S
C634 H646 0.956 . S
C634 H647 0.961 . S
C634 H648 0.961 . S
C635 C632 1.539 . S
C635 H649 0.958 . S
C635 H650 0.961 . S
C635 H651 0.960 . S
H636 C620 0.931 . S
H637 C625 0.929 . S
H638 C626 0.960 . S
H639 C626 0.962 . S
H640 C626 0.960 . S
H641 C627 0.961 . S
H642 C627 0.961 . S
H643 C627 0.961 . S
H644 C628 0.931 . S
H645 C633 0.930 . S
H646 C634 0.956 . S
H647 C634 0.961 . S
H648 C634 0.961 . S
H649 C635 0.958 . S
H650 C635 0.961 . S
H651 C635 0.960 . S
C652 C653 1.391 . S
C652 C654 1.394 . S
C652 H668 0.931 . S
C653 C652 1.391 . S
C653 C657 1.376 . S
C654 C652 1.394 . S
C654 C655 1.369 . S
C654 C658 1.531 . S
C655 C654 1.369 . S
C655 C656 1.410 . S
C655 C663 1.503 . S
C656 C655 1.410 . S
C656 C657 1.392 . S
C656 C659 1.511 . S
C657 C653 1.376 . S
C657 C656 1.392 . S
C657 H669 0.929 . S
C658 C654 1.531 . S
C658 H670 0.960 . S
C658 H671 0.962 . S
C658 H672 0.960 . S
C659 C656 1.511 . S
C659 H673 0.961 . S
C659 H674 0.961 . S
C659 H675 0.961 . S
C660 C661 1.370 . S
C660 C662 1.363 . S
C660 H676 0.931 . S
C661 C660 1.370 . S
C661 C665 1.408 . S
C662 C660 1.363 . S
C662 C663 1.370 . S
C662 C666 1.524 . S
C663 C655 1.503 . S
C663 C662 1.370 . S
C663 C664 1.403 . S
C664 C663 1.403 . S
C664 C665 1.404 . S
C664 C667 1.539 . S
C665 C661 1.408 . S
C665 C664 1.404 . S
C665 H677 0.930 . S
C666 C662 1.524 . S
C666 H678 0.956 . S
C666 H679 0.961 . S
C666 H680 0.961 . S
C667 C664 1.539 . S
C667 H681 0.958 . S
C667 H682 0.961 . S
C667 H683 0.960 . S
H668 C652 0.931 . S
H669 C657 0.929 . S
H670 C658 0.960 . S
H671 C658 0.962 . S
H672 C658 0.960 . S
H673 C659 0.961 . S
H674 C659 0.961 . S
H675 C659 0.961 . S
H676 C660 0.931 . S
H677 C665 0.930 . S
H678 C666 0.956 . S
H679 C666 0.961 . S
H680 C666 0.961 . S
H681 C667 0.958 . S
H682 C667 0.961 . S
H683 C667 0.960 . S
C205 C107 1.478 . S
C213 C20 1.500 . S
C237 C138 1.493 . S
C245 C9 1.464 1_655 S
C269 C2 1.447 . S
C277 C175 1.237 . S
C301 C77 1.401 . S
C309 C5 1.288 . S
C333 C179 1.259 . S
C341 C54 1.188 . S
C365 C73 1.110 . S
C373 C39 1.017 . S
C397 C36 1.152 . S
C405 C111 1.150 . S
C429 C156 1.416 . S
C437 C43 1.433 . S
C461 C88 1.477 . S
C469 C122 1.489 . S
C493 C70 1.585 . S
C501 C172 1.618 . S
C525 C141 1.044 . S
C533 C104 1.225 . S
C557 C190 1.659 . S
C565 C145 1.615 . S
C589 C67 1.685 . S
C597 C33 1.753 . S
C621 C169 1.633 . S
C629 C101 1.647 . S
C653 C203 1.279 . S
C661 C135 1.340 . S
