# Generated by pormake.
# Topology vba, (4)-cn, num edge types: 1
# Building blocks:
#     Node 0, Type 0, BuildingBlock: KOZSID_clean_sbu_0, # of connection points: 4
#     Node 1, Type 0, BuildingBlock: KOZSID_clean_sbu_0, # of connection points: 4
#     Node 2, Type 0, BuildingBlock: KOZSID_clean_sbu_0, # of connection points: 4
#     Node 3, Type 0, BuildingBlock: KOZSID_clean_sbu_0, # of connection points: 4
#     Node 4, Type 0, BuildingBlock: KOZSID_clean_sbu_0, # of connection points: 4
#     Node 5, Type 0, BuildingBlock: KOZSID_clean_sbu_0, # of connection points: 4
#     Node 6, Type 0, BuildingBlock: KOZSID_clean_sbu_0, # of connection points: 4
#     Node 7, Type 0, BuildingBlock: KOZSID_clean_sbu_0, # of connection points: 4
#     Node 8, Type 0, BuildingBlock: KOZSID_clean_sbu_0, # of connection points: 4
#     Node 9, Type 0, BuildingBlock: KOZSID_clean_sbu_0, # of connection points: 4
#     Node 10, Type 0, BuildingBlock: KOZSID_clean_sbu_0, # of connection points: 4
#     Node 11, Type 0, BuildingBlock: KOZSID_clean_sbu_0, # of connection points: 4
#     Node 12, Type 0, BuildingBlock: KOZSID_clean_sbu_0, # of connection points: 4
#     Node 13, Type 0, BuildingBlock: KOZSID_clean_sbu_0, # of connection points: 4
#     Node 14, Type 0, BuildingBlock: KOZSID_clean_sbu_0, # of connection points: 4
#     Node 15, Type 0, BuildingBlock: KOZSID_clean_sbu_0, # of connection points: 4
#     Node 16, Type 0, BuildingBlock: KOZSID_clean_sbu_0, # of connection points: 4
#     Node 17, Type 0, BuildingBlock: KOZSID_clean_sbu_0, # of connection points: 4
#     Node 18, Type 0, BuildingBlock: KOZSID_clean_sbu_0, # of connection points: 4
#     Node 19, Type 0, BuildingBlock: KOZSID_clean_sbu_0, # of connection points: 4
#     Node 20, Type 0, BuildingBlock: KOZSID_clean_sbu_0, # of connection points: 4
#     Node 21, Type 0, BuildingBlock: KOZSID_clean_sbu_0, # of connection points: 4
#     Node 22, Type 0, BuildingBlock: KOZSID_clean_sbu_0, # of connection points: 4
#     Node 23, Type 0, BuildingBlock: KOZSID_clean_sbu_0, # of connection points: 4
#     Node 24, Type 0, BuildingBlock: KOZSID_clean_sbu_0, # of connection points: 4
#     Node 25, Type 0, BuildingBlock: KOZSID_clean_sbu_0, # of connection points: 4
#     Node 26, Type 0, BuildingBlock: KOZSID_clean_sbu_0, # of connection points: 4
#     Node 27, Type 0, BuildingBlock: KOZSID_clean_sbu_0, # of connection points: 4
#     Node 28, Type 0, BuildingBlock: KOZSID_clean_sbu_0, # of connection points: 4
#     Node 29, Type 0, BuildingBlock: KOZSID_clean_sbu_0, # of connection points: 4
#     Node 30, Type 0, BuildingBlock: KOZSID_clean_sbu_0, # of connection points: 4
#     Node 31, Type 0, BuildingBlock: KOZSID_clean_sbu_0, # of connection points: 4
#     Edge 32, Type (0, 0), BuildingBlock: EZIPEK_clean_linker_0, # of connection points: 2
#     Edge 33, Type (0, 0), BuildingBlock: EZIPEK_clean_linker_0, # of connection points: 2
#     Edge 34, Type (0, 0), BuildingBlock: EZIPEK_clean_linker_0, # of connection points: 2
#     Edge 35, Type (0, 0), BuildingBlock: EZIPEK_clean_linker_0, # of connection points: 2
#     Edge 36, Type (0, 0), BuildingBlock: EZIPEK_clean_linker_0, # of connection points: 2
#     Edge 37, Type (0, 0), BuildingBlock: EZIPEK_clean_linker_0, # of connection points: 2
#     Edge 38, Type (0, 0), BuildingBlock: EZIPEK_clean_linker_0, # of connection points: 2
#     Edge 39, Type (0, 0), BuildingBlock: EZIPEK_clean_linker_0, # of connection points: 2
#     Edge 40, Type (0, 0), BuildingBlock: EZIPEK_clean_linker_0, # of connection points: 2
#     Edge 41, Type (0, 0), BuildingBlock: EZIPEK_clean_linker_0, # of connection points: 2
#     Edge 42, Type (0, 0), BuildingBlock: EZIPEK_clean_linker_0, # of connection points: 2
#     Edge 43, Type (0, 0), BuildingBlock: EZIPEK_clean_linker_0, # of connection points: 2
#     Edge 44, Type (0, 0), BuildingBlock: EZIPEK_clean_linker_0, # of connection points: 2
#     Edge 45, Type (0, 0), BuildingBlock: EZIPEK_clean_linker_0, # of connection points: 2
#     Edge 46, Type (0, 0), BuildingBlock: EZIPEK_clean_linker_0, # of connection points: 2
#     Edge 47, Type (0, 0), BuildingBlock: EZIPEK_clean_linker_0, # of connection points: 2
#     Edge 48, Type (0, 0), BuildingBlock: EZIPEK_clean_linker_0, # of connection points: 2
#     Edge 49, Type (0, 0), BuildingBlock: EZIPEK_clean_linker_0, # of connection points: 2
#     Edge 50, Type (0, 0), BuildingBlock: EZIPEK_clean_linker_0, # of connection points: 2
#     Edge 51, Type (0, 0), BuildingBlock: EZIPEK_clean_linker_0, # of connection points: 2
#     Edge 52, Type (0, 0), BuildingBlock: EZIPEK_clean_linker_0, # of connection points: 2
#     Edge 53, Type (0, 0), BuildingBlock: EZIPEK_clean_linker_0, # of connection points: 2
#     Edge 54, Type (0, 0), BuildingBlock: EZIPEK_clean_linker_0, # of connection points: 2
#     Edge 55, Type (0, 0), BuildingBlock: EZIPEK_clean_linker_0, # of connection points: 2
#     Edge 56, Type (0, 0), BuildingBlock: EZIPEK_clean_linker_0, # of connection points: 2
#     Edge 57, Type (0, 0), BuildingBlock: EZIPEK_clean_linker_0, # of connection points: 2
#     Edge 58, Type (0, 0), BuildingBlock: EZIPEK_clean_linker_0, # of connection points: 2
#     Edge 59, Type (0, 0), BuildingBlock: EZIPEK_clean_linker_0, # of connection points: 2
#     Edge 60, Type (0, 0), BuildingBlock: EZIPEK_clean_linker_0, # of connection points: 2
#     Edge 61, Type (0, 0), BuildingBlock: EZIPEK_clean_linker_0, # of connection points: 2
#     Edge 62, Type (0, 0), BuildingBlock: EZIPEK_clean_linker_0, # of connection points: 2
#     Edge 63, Type (0, 0), BuildingBlock: EZIPEK_clean_linker_0, # of connection points: 2
#     Edge 64, Type (0, 0), BuildingBlock: EZIPEK_clean_linker_0, # of connection points: 2
#     Edge 65, Type (0, 0), BuildingBlock: EZIPEK_clean_linker_0, # of connection points: 2
#     Edge 66, Type (0, 0), BuildingBlock: EZIPEK_clean_linker_0, # of connection points: 2
#     Edge 67, Type (0, 0), BuildingBlock: EZIPEK_clean_linker_0, # of connection points: 2
#     Edge 68, Type (0, 0), BuildingBlock: EZIPEK_clean_linker_0, # of connection points: 2
#     Edge 69, Type (0, 0), BuildingBlock: EZIPEK_clean_linker_0, # of connection points: 2
#     Edge 70, Type (0, 0), BuildingBlock: EZIPEK_clean_linker_0, # of connection points: 2
#     Edge 71, Type (0, 0), BuildingBlock: EZIPEK_clean_linker_0, # of connection points: 2
#     Edge 72, Type (0, 0), BuildingBlock: EZIPEK_clean_linker_0, # of connection points: 2
#     Edge 73, Type (0, 0), BuildingBlock: EZIPEK_clean_linker_0, # of connection points: 2
#     Edge 74, Type (0, 0), BuildingBlock: EZIPEK_clean_linker_0, # of connection points: 2
#     Edge 75, Type (0, 0), BuildingBlock: EZIPEK_clean_linker_0, # of connection points: 2
#     Edge 76, Type (0, 0), BuildingBlock: EZIPEK_clean_linker_0, # of connection points: 2
#     Edge 77, Type (0, 0), BuildingBlock: EZIPEK_clean_linker_0, # of connection points: 2
#     Edge 78, Type (0, 0), BuildingBlock: EZIPEK_clean_linker_0, # of connection points: 2
#     Edge 79, Type (0, 0), BuildingBlock: EZIPEK_clean_linker_0, # of connection points: 2
#     Edge 80, Type (0, 0), BuildingBlock: EZIPEK_clean_linker_0, # of connection points: 2
#     Edge 81, Type (0, 0), BuildingBlock: EZIPEK_clean_linker_0, # of connection points: 2
#     Edge 82, Type (0, 0), BuildingBlock: EZIPEK_clean_linker_0, # of connection points: 2
#     Edge 83, Type (0, 0), BuildingBlock: EZIPEK_clean_linker_0, # of connection points: 2
#     Edge 84, Type (0, 0), BuildingBlock: EZIPEK_clean_linker_0, # of connection points: 2
#     Edge 85, Type (0, 0), BuildingBlock: EZIPEK_clean_linker_0, # of connection points: 2
#     Edge 86, Type (0, 0), BuildingBlock: EZIPEK_clean_linker_0, # of connection points: 2
#     Edge 87, Type (0, 0), BuildingBlock: EZIPEK_clean_linker_0, # of connection points: 2
#     Edge 88, Type (0, 0), BuildingBlock: EZIPEK_clean_linker_0, # of connection points: 2
#     Edge 89, Type (0, 0), BuildingBlock: EZIPEK_clean_linker_0, # of connection points: 2
#     Edge 90, Type (0, 0), BuildingBlock: EZIPEK_clean_linker_0, # of connection points: 2
#     Edge 91, Type (0, 0), BuildingBlock: EZIPEK_clean_linker_0, # of connection points: 2
#     Edge 92, Type (0, 0), BuildingBlock: EZIPEK_clean_linker_0, # of connection points: 2
#     Edge 93, Type (0, 0), BuildingBlock: EZIPEK_clean_linker_0, # of connection points: 2
#     Edge 94, Type (0, 0), BuildingBlock: EZIPEK_clean_linker_0, # of connection points: 2
#     Edge 95, Type (0, 0), BuildingBlock: EZIPEK_clean_linker_0, # of connection points: 2
# Relax obj value: 0.009
# Max RMSD: 0.110
# Mean RMSD: 0.110
data_MOF--net-vba--node1-KOZSID_clean_sbu_0--edge1-EZIPEK_clean_linker_0
_symmetry_space_group_name_H-M    P1
_symmetry_Int_Tables_number       1
_symmetry_cell_setting            triclinic
loop_
_symmetry_equiv_pos_as_xyz
'x, y, z'
_cell_length_a     23.139879
_cell_length_b     102.47488
_cell_length_c     44.54522
_cell_angle_alpha  90.006342
_cell_angle_beta   89.99749
_cell_angle_gamma 90.001167
loop_
_atom_site_label
_atom_site_type_symbol
_atom_site_fract_x
_atom_site_fract_y
_atom_site_fract_z
_atom_type_partial_charge
C0 C 0.18798 0.06375 0.04411 0.0
C1 C 0.13666 0.05673 0.04276 0.0
C2 C 0.13341 0.05152 0.01457 0.0
C3 C 0.18211 0.05579 7e-05 0.0
N4 N 0.21619 0.06333 0.01744 0.0
Co5 Co 0.2875 0.07256 0.00426 0.0
N6 N 0.26638 0.07071 0.96117 0.0
C7 C 0.2242 0.06306 0.94999 0.0
C8 C 0.21625 0.06453 0.9197 0.0
C9 C 0.25659 0.07352 0.91107 0.0
C10 C 0.28784 0.07686 0.93662 0.0
N11 N 0.35967 0.08142 0.99103 0.0
C12 C 0.37694 0.08536 0.96329 0.0
C13 C 0.43305 0.09011 0.96401 0.0
C14 C 0.45167 0.08902 0.99313 0.0
C15 C 0.40615 0.08364 0.00854 0.0
N16 N 0.30578 0.07505 0.04753 0.0
C17 C 0.35757 0.07837 0.05892 0.0
C18 C 0.35661 0.07974 0.08961 0.0
C19 C 0.30063 0.07715 0.09801 0.0
C20 C 0.27045 0.07436 0.0719 0.0
N21 N 0.33173 0.05551 0.00356 0.0
C22 C 0.41537 0.03489 0.00215 0.0
C23 C 0.39038 0.03912 0.02925 0.0
C24 C 0.34825 0.04919 0.02944 0.0
C25 C 0.39406 0.04055 0.97578 0.0
C26 C 0.35268 0.05064 0.97696 0.0
N27 N 0.24609 0.08957 0.00488 0.0
C28 C 0.24616 0.11276 0.01587 0.0
C29 C 0.19013 0.11421 0.00439 0.0
C30 C 0.16253 0.10298 0.99335 0.0
C31 C 0.19114 0.09083 0.99371 0.0
C32 C 0.27304 0.10046 0.01605 0.0
H33 H 0.16873 0.08247 0.98479 0.0
H34 H 0.31597 0.09982 0.02522 0.0
H35 H 0.33028 0.05191 0.05084 0.0
H36 H 0.33889 0.05454 0.95594 0.0
C37 C 0.1885 0.05588 0.96899 0.0
C38 C 0.20919 0.0704 0.0712 0.0
C39 C 0.34327 0.08389 0.9355 0.0
C40 C 0.40306 0.08184 0.03973 0.0
H41 H 0.10397 0.0557 0.05992 0.0
H42 H 0.09744 0.04618 0.00508 0.0
H43 H 0.18425 0.05984 0.90565 0.0
H44 H 0.26363 0.07684 0.88831 0.0
H45 H 0.45806 0.09384 0.94535 0.0
H46 H 0.49313 0.092 0.00205 0.0
H47 H 0.39181 0.08272 0.10407 0.0
H48 H 0.28386 0.07731 0.12069 0.0
H49 H 0.40384 0.03478 0.05029 0.0
H50 H 0.41038 0.03739 0.95417 0.0
H51 H 0.26909 0.12112 0.02478 0.0
H52 H 0.11914 0.10361 0.98436 0.0
C53 C 0.07925 0.21615 0.04492 0.0
C54 C 0.13058 0.22317 0.04359 0.0
C55 C 0.13354 0.22852 0.01553 0.0
C56 C 0.08469 0.22432 0.00105 0.0
N57 N 0.05086 0.21669 0.01831 0.0
Co58 Co 0.97972 0.20744 0.00507 0.0
N59 N 1.00067 0.20942 0.96199 0.0
C60 C 0.04206 0.2173 0.95088 0.0
C61 C 0.04988 0.21596 0.92055 0.0
C62 C 0.01026 0.20683 0.91183 0.0
C63 C 0.97955 0.20325 0.93739 0.0
N64 N 0.90783 0.1985 0.99176 0.0
C65 C 0.89103 0.19442 0.96405 0.0
C66 C 0.83507 0.18957 0.96472 0.0
C67 C 0.81606 0.19077 0.99375 0.0
C68 C 0.86123 0.1963 0.00918 0.0
N69 N 0.96125 0.20497 0.04828 0.0
C70 C 0.90923 0.20182 0.05959 0.0
C71 C 0.90996 0.20051 0.09031 0.0
C72 C 0.96602 0.20299 0.09877 0.0
C73 C 0.99648 0.20565 0.07268 0.0
N74 N 0.93537 0.22439 0.0045 0.0
C75 C 0.85231 0.24508 0.00392 0.0
C76 C 0.88129 0.24146 0.03045 0.0
C77 C 0.92291 0.23128 0.03021 0.0
C78 C 0.86894 0.23868 0.97756 0.0
C79 C 0.91033 0.22861 0.97832 0.0
N80 N 0.02137 0.19047 0.00558 0.0
C81 C 0.02185 0.16731 0.01677 0.0
C82 C 0.07745 0.16586 0.00473 0.0
C83 C 0.1046 0.17708 0.99335 0.0
C84 C 0.07594 0.18923 0.99393 0.0
C85 C 0.99487 0.1796 0.01708 0.0
H86 H 0.09796 0.19759 0.98476 0.0
H87 H 0.9522 0.18025 0.02659 0.0
H88 H 0.94376 0.22885 0.05112 0.0
H89 H 0.92089 0.2241 0.95746 0.0
C90 C 0.07779 0.22443 0.96998 0.0
C91 C 0.05791 0.20948 0.07198 0.0
C92 C 0.92477 0.19594 0.93627 0.0
C93 C 0.86392 0.19826 0.04035 0.0
H94 H 0.1634 0.22414 0.06071 0.0
H95 H 0.16938 0.23392 0.00609 0.0
H96 H 0.08146 0.22082 0.90653 0.0
H97 H 1.00337 0.20354 0.88902 0.0
H98 H 0.81037 0.18575 0.94605 0.0
H99 H 0.77456 0.18779 0.00261 0.0
H100 H 0.87458 0.19762 0.10473 0.0
H101 H 0.98265 0.20285 0.12148 0.0
H102 H 0.87112 0.24632 0.05139 0.0
H103 H 0.84917 0.24129 0.95635 0.0
H104 H 0.9993 0.15895 0.02595 0.0
H105 H 0.14767 0.17645 0.98396 0.0
C106 C 0.18983 0.21592 0.20399 0.0
C107 C 0.13869 0.22301 0.20511 0.0
C108 C 0.13499 0.22817 0.23331 0.0
C109 C 0.18326 0.22381 0.24804 0.0
N110 N 0.21755 0.21626 0.23081 0.0
Co111 Co 0.28852 0.20696 0.24427 0.0
N112 N 0.26679 0.20886 0.28729 0.0
C113 C 0.22415 0.21643 0.29828 0.0
C114 C 0.21567 0.21494 0.32852 0.0
C115 C 0.2561 0.20601 0.33733 0.0
C116 C 0.28795 0.20274 0.31193 0.0
N117 N 0.36042 0.19807 0.25781 0.0
C118 C 0.37748 0.19425 0.28567 0.0
C119 C 0.43352 0.18945 0.28516 0.0
C120 C 0.45231 0.19037 0.25605 0.0
C121 C 0.40696 0.19571 0.24044 0.0
N122 N 0.30722 0.20436 0.20106 0.0
C123 C 0.35889 0.20082 0.18986 0.0
C124 C 0.35821 0.19938 0.15918 0.0
C125 C 0.30251 0.20213 0.15058 0.0
C126 C 0.27223 0.2051 0.17656 0.0
N127 N 0.33314 0.22401 0.24503 0.0
C128 C 0.41706 0.2446 0.24717 0.0
C129 C 0.3953 0.23988 0.21977 0.0
C130 C 0.35281 0.22991 0.21919 0.0
C131 C 0.39251 0.23943 0.27332 0.0
C132 C 0.35114 0.22934 0.27178 0.0
N133 N 0.24678 0.18999 0.24362 0.0
C134 C 0.24654 0.16678 0.23283 0.0
C135 C 0.19031 0.1654 0.24408 0.0
C136 C 0.16275 0.17668 0.25489 0.0
C137 C 0.19159 0.1888 0.25452 0.0
C138 C 0.27369 0.17905 0.23269 0.0
H139 H 0.16915 0.1972 0.26323 0.0
H140 H 0.3168 0.17962 0.22374 0.0
H141 H 0.3371 0.22694 0.1975 0.0
H142 H 0.33501 0.22584 0.29275 0.0
C143 C 0.18891 0.22365 0.27916 0.0
C144 C 0.2112 0.20922 0.177 0.0
C145 C 0.34355 0.1958 0.31334 0.0
C146 C 0.40411 0.19735 0.2092 0.0
H147 H 0.10634 0.2241 0.18779 0.0
H148 H 0.09895 0.23354 0.24266 0.0
H149 H 0.18334 0.2196 0.34242 0.0
H150 H 0.26284 0.2027 0.36013 0.0
H151 H 0.45835 0.18579 0.30395 0.0
H152 H 0.49376 0.18731 0.24726 0.0
H153 H 0.39339 0.19626 0.14487 0.0
H154 H 0.28598 0.20197 0.12785 0.0
H155 H 0.41132 0.24382 0.1988 0.0
H156 H 0.40634 0.24296 0.29509 0.0
H157 H 0.26945 0.15837 0.22411 0.0
H158 H 0.11919 0.17611 0.26368 0.0
C159 C 0.07758 0.06359 0.20316 0.0
C160 C 0.12882 0.05653 0.20419 0.0
C161 C 0.13218 0.05115 0.2322 0.0
C162 C 0.08363 0.05536 0.24693 0.0
N163 N 0.04962 0.06304 0.22989 0.0
Co164 Co 0.97876 0.0723 0.24352 0.0
N165 N 1.00034 0.07022 0.2865 0.0
C166 C 0.04198 0.06233 0.29735 0.0
C167 C 0.05055 0.06368 0.32762 0.0
C168 C 0.01117 0.07283 0.33658 0.0
C169 C 0.97978 0.07639 0.31123 0.0
N170 N 0.90712 0.08123 0.25724 0.0
C171 C 0.8907 0.08522 0.2851 0.0
C172 C 0.83469 0.09004 0.28472 0.0
C173 C 0.81528 0.08892 0.25573 0.0
C174 C 0.86027 0.08347 0.24004 0.0
N175 N 0.9597 0.07487 0.20041 0.0
C176 C 0.90755 0.07809 0.18935 0.0
C177 C 0.90786 0.07947 0.15865 0.0
C178 C 0.96376 0.07698 0.14993 0.0
C179 C 0.99456 0.07423 0.17586 0.0
N180 N 0.93426 0.05535 0.24406 0.0
C181 C 0.85089 0.03472 0.24476 0.0
C182 C 0.87933 0.03841 0.21812 0.0
C183 C 0.92112 0.04856 0.2183 0.0
C184 C 0.86822 0.04102 0.27113 0.0
C185 C 0.90974 0.05107 0.27031 0.0
N186 N 0.02054 0.08925 0.24303 0.0
C187 C 0.02103 0.11244 0.23206 0.0
C188 C 0.07688 0.11384 0.24379 0.0
C189 C 0.10414 0.10258 0.25493 0.0
C190 C 0.07535 0.09045 0.25439 0.0
C191 C 0.99392 0.10016 0.23178 0.0
H192 H 0.09747 0.08205 0.26336 0.0
H193 H 0.95105 0.09955 0.22249 0.0
H194 H 0.94154 0.05104 0.19731 0.0
H195 H 0.92086 0.05549 0.29116 0.0
C196 C 0.0773 0.05522 0.27803 0.0
C197 C 0.05593 0.07033 0.17625 0.0
C198 C 0.92499 0.08368 0.31269 0.0
C199 C 0.86253 0.0816 0.20883 0.0
H200 H 0.16134 0.05557 0.18692 0.0
H201 H 0.1681 0.0457 0.24144 0.0
H202 H 0.08251 0.05884 0.34142 0.0
H203 H 1.00496 0.07614 0.35942 0.0
H204 H 0.81022 0.0938 0.30353 0.0
H205 H 0.77363 0.09192 0.24709 0.0
H206 H 0.8723 0.08242 0.1444 0.0
H207 H 0.98006 0.07716 0.12716 0.0
H208 H 0.86863 0.03364 0.19716 0.0
H209 H 0.8489 0.03835 0.29242 0.0
H210 H 0.99838 0.12082 0.22308 0.0
H211 H 0.1474 0.10317 0.26409 0.0
C212 C 0.74619 0.95553 0.92543 0.0
C213 C 0.71596 0.95275 0.89933 0.0
C214 C 0.65999 0.95016 0.90775 0.0
C215 C 0.65911 0.9515 0.93845 0.0
N216 N 0.71092 0.95481 0.94982 0.0
Co217 Co 0.72929 0.9573 0.99307 0.0
N218 N 0.65729 0.94838 0.00631 0.0
C219 C 0.6108 0.94613 0.98883 0.0
C220 C 0.56551 0.94065 0.00425 0.0
C221 C 0.58431 0.93954 0.03333 0.0
C222 C 0.64028 0.94438 0.03403 0.0
N223 N 0.75041 0.9592 0.03615 0.0
C224 C 0.729 0.95307 0.06072 0.0
C225 C 0.75984 0.95655 0.0863 0.0
C226 C 0.79997 0.96557 0.07764 0.0
C227 C 0.79225 0.96695 0.04731 0.0
N228 N 0.80047 0.96657 0.97988 0.0
C229 C 0.83441 0.97415 0.9972 0.0
C230 C 0.88309 0.97843 0.98269 0.0
C231 C 0.87993 0.97319 0.95454 0.0
C232 C 0.82868 0.96614 0.95321 0.0
N233 N 0.68486 0.97432 0.99377 0.0
C234 C 0.60119 0.99493 0.99508 0.0
C235 C 0.62194 0.98918 0.02147 0.0
C236 C 0.66332 0.9791 0.02034 0.0
C237 C 0.62669 0.99078 0.96803 0.0
C238 C 0.66883 0.98072 0.96791 0.0
N239 N 0.77091 0.94031 0.99246 0.0
C240 C 0.8543 0.92691 0.00438 0.0
C241 C 0.82696 0.91568 0.99316 0.0
C242 C 0.77118 0.91713 0.98135 0.0
C243 C 0.74423 0.92943 0.98111 0.0
C244 C 0.82566 0.93906 0.00389 0.0
H245 H 0.70144 0.93006 0.97176 0.0
H246 H 0.84787 0.94743 0.01293 0.0
H247 H 0.67659 0.97511 0.04136 0.0
H248 H 0.68721 0.97804 0.94656 0.0
C249 C 0.61371 0.94798 0.95765 0.0
C250 C 0.80744 0.95948 0.92613 0.0
C251 C 0.67391 0.94591 0.0618 0.0
C252 C 0.82788 0.97412 0.02828 0.0
H253 H 0.73268 0.95262 0.87663 0.0
H254 H 0.62478 0.94718 0.89331 0.0
H255 H 0.52409 0.93764 0.99535 0.0
H256 H 0.55949 0.93575 0.05199 0.0
H257 H 0.75265 0.95328 0.10911 0.0
H258 H 0.83167 0.97037 0.09169 0.0
H259 H 0.91897 0.98382 0.99216 0.0
H260 H 0.91262 0.97422 0.93737 0.0
H261 H 0.60517 0.99227 0.04304 0.0
H262 H 0.61363 0.99518 0.947 0.0
H263 H 0.89751 0.92628 0.0136 0.0
H264 H 0.74847 0.90877 0.9723 0.0
C265 C 0.02048 0.82418 0.92563 0.0
C266 C 0.05116 0.82692 0.89965 0.0
C267 C 0.10712 0.8294 0.90828 0.0
C268 C 0.10756 0.82802 0.93898 0.0
N269 N 0.05547 0.82481 0.95013 0.0
Co270 Co 0.03649 0.82229 0.99328 0.0
N271 N 0.10842 0.83113 0.00685 0.0
C272 C 0.15523 0.83333 0.98957 0.0
C273 C 0.20038 0.83877 0.00518 0.0
C274 C 0.18115 0.83991 0.03418 0.0
C275 C 0.12508 0.83512 0.03465 0.0
N276 N 0.01487 0.82032 0.03628 0.0
C277 C 0.03597 0.82641 0.06098 0.0
C278 C 1.00482 0.82288 0.08643 0.0
C279 C 0.96487 0.81385 0.07754 0.0
C280 C 0.97297 0.81253 0.04723 0.0
N281 N 0.96535 0.8131 0.97978 0.0
C282 C 0.93115 0.80549 0.9969 0.0
C283 C 0.88251 0.80131 0.98221 0.0
C284 C 0.886 0.80663 0.95415 0.0
C285 C 0.93739 0.81363 0.95305 0.0
N286 N 0.08061 0.80526 0.99396 0.0
C287 C 0.16365 0.78452 0.99509 0.0
C288 C 0.14458 0.79058 0.02146 0.0
C289 C 0.10335 0.80069 0.02042 0.0
C290 C 0.13698 0.7885 0.96819 0.0
C291 C 0.09526 0.79865 0.96815 0.0
N292 N 0.99513 0.8393 0.99269 0.0
C293 C 0.91171 0.85274 0.00434 0.0
C294 C 0.93933 0.86397 0.99328 0.0
C295 C 0.9953 0.8625 0.98172 0.0
C296 C 0.02211 0.85018 0.9815 0.0
C297 C 0.94024 0.84057 0.00391 0.0
H298 H 0.06502 0.84953 0.97231 0.0
H299 H 0.91782 0.83221 0.01284 0.0
H300 H 0.09107 0.80489 0.04137 0.0
H301 H 0.07609 0.80127 0.94694 0.0
C302 C 0.15276 0.83148 0.95837 0.0
C303 C 0.95909 0.82033 0.92611 0.0
C304 C 0.09099 0.8336 0.0623 0.0
C305 C 0.93745 0.80542 0.028 0.0
H306 H 0.03474 0.82711 0.8769 0.0
H307 H 0.14262 0.83233 0.89398 0.0
H308 H 0.24201 0.84174 0.99646 0.0
H309 H 0.20576 0.84366 0.05295 0.0
H310 H 0.01166 0.82611 0.10928 0.0
H311 H 0.93299 0.80903 0.09144 0.0
H312 H 0.84646 0.79592 0.99151 0.0
H313 H 0.85344 0.80568 0.9369 0.0
H314 H 0.16241 0.78768 0.04294 0.0
H315 H 0.14895 0.78391 0.94718 0.0
H316 H 0.86836 0.85339 0.01338 0.0
H317 H 0.01825 0.87085 0.9728 0.0
C318 C 0.74529 0.82468 0.82141 0.0
C319 C 0.71492 0.82756 0.84741 0.0
C320 C 0.65912 0.83023 0.83882 0.0
C321 C 0.65847 0.82883 0.80814 0.0
N322 N 0.71027 0.82541 0.79693 0.0
Co323 Co 0.72896 0.82281 0.75374 0.0
N324 N 0.65721 0.83176 0.74024 0.0
C325 C 0.61062 0.83409 0.75758 0.0
C326 C 0.56552 0.83956 0.742 0.0
C327 C 0.58457 0.84059 0.71295 0.0
C328 C 0.64047 0.83571 0.71243 0.0
N329 N 0.75049 0.82084 0.71072 0.0
C330 C 0.72941 0.82695 0.68605 0.0
C331 C 0.76058 0.82346 0.66059 0.0
C332 C 0.80056 0.81443 0.66942 0.0
C333 C 0.79244 0.81308 0.69972 0.0
N334 N 0.79987 0.8135 0.76717 0.0
C335 C 0.83388 0.80587 0.74998 0.0
C336 C 0.88232 0.80156 0.76466 0.0
C337 C 0.87893 0.80682 0.79277 0.0
C338 C 0.82779 0.81392 0.79392 0.0
N339 N 0.68423 0.80583 0.75307 0.0
C340 C 0.60014 0.7853 0.75161 0.0
C341 C 0.62217 0.79082 0.72524 0.0
C342 C 0.66371 0.80088 0.72645 0.0
C343 C 0.62444 0.78965 0.77877 0.0
C344 C 0.66693 0.79963 0.77898 0.0
N345 N 0.77083 0.83976 0.75431 0.0
C346 C 0.85466 0.85307 0.74269 0.0
C347 C 0.82731 0.86433 0.7537 0.0
C348 C 0.77129 0.86295 0.76522 0.0
C349 C 0.74413 0.85068 0.76544 0.0
C350 C 0.8258 0.84094 0.74313 0.0
H351 H 0.70117 0.85011 0.77459 0.0
H352 H 0.84802 0.83254 0.73426 0.0
H353 H 0.67791 0.80469 0.70541 0.0
H354 H 0.68454 0.8024 0.80044 0.0
C355 C 0.61328 0.83234 0.7888 0.0
C356 C 0.80642 0.82063 0.82091 0.0
C357 C 0.67438 0.83412 0.68476 0.0
C358 C 0.82775 0.80589 0.71888 0.0
H359 H 0.73143 0.82771 0.87014 0.0
H360 H 0.62385 0.83328 0.85316 0.0
H361 H 0.52409 0.84264 0.75078 0.0
H362 H 0.55996 0.84436 0.69419 0.0
H363 H 0.75369 0.82671 0.63775 0.0
H364 H 0.83241 0.80962 0.65549 0.0
H365 H 0.91821 0.79614 0.75531 0.0
H366 H 0.91142 0.80578 0.81003 0.0
H367 H 0.60623 0.78759 0.70361 0.0
H368 H 0.61031 0.78544 0.79982 0.0
H369 H 0.89806 0.85364 0.73369 0.0
H370 H 0.74856 0.87135 0.77411 0.0
C371 C 0.02216 0.95559 0.82178 0.0
C372 C 0.05251 0.95274 0.8478 0.0
C373 C 0.10837 0.9501 0.83924 0.0
C374 C 0.10906 0.9515 0.80855 0.0
N375 N 0.05724 0.95489 0.79732 0.0
Co376 Co 0.03857 0.95747 0.75413 0.0
N377 N 0.11032 0.94852 0.74066 0.0
C378 C 0.15693 0.94621 0.75801 0.0
C379 C 0.20199 0.94071 0.74245 0.0
C380 C 0.1829 0.93964 0.71341 0.0
C381 C 0.127 0.94453 0.71288 0.0
N382 N 0.01705 0.95942 0.71113 0.0
C383 C 0.03808 0.95328 0.68648 0.0
C384 C 1.00695 0.95677 0.661 0.0
C385 C 0.96704 0.96582 0.66981 0.0
C386 C 0.97516 0.96719 0.70011 0.0
N387 N 0.96766 0.96678 0.76755 0.0
C388 C 0.93368 0.97441 0.75036 0.0
C389 C 0.88518 0.9787 0.76502 0.0
C390 C 0.88848 0.97341 0.79311 0.0
C391 C 0.93964 0.96633 0.79428 0.0
N392 N 0.08329 0.97446 0.75342 0.0
C393 C 0.16725 0.99502 0.75185 0.0
C394 C 0.14528 0.98946 0.72552 0.0
C395 C 0.10383 0.97939 0.72677 0.0
C396 C 0.14299 0.99068 0.77904 0.0
C397 C 0.10057 0.98068 0.7793 0.0
N398 N 0.99673 0.94052 0.75472 0.0
C399 C 0.91305 0.92719 0.74294 0.0
C400 C 0.94041 0.91592 0.75395 0.0
C401 C 0.99634 0.91732 0.76559 0.0
C402 C 0.02342 0.9296 0.76588 0.0
C403 C 0.94183 0.93932 0.74347 0.0
H404 H 0.06633 0.93019 0.77509 0.0
H405 H 0.91961 0.94772 0.73458 0.0
H406 H 0.08972 0.97554 0.70575 0.0
H407 H 0.083 0.97792 0.80077 0.0
C408 C 0.15428 0.94798 0.78923 0.0
C409 C 0.96096 0.95959 0.82124 0.0
C410 C 0.09306 0.94609 0.68522 0.0
C411 C 0.93986 0.97439 0.71926 0.0
H412 H 0.03595 0.95257 0.87052 0.0
H413 H 0.14362 0.94705 0.85358 0.0
H414 H 0.24342 0.93764 0.75123 0.0
H415 H 0.20748 0.93585 0.69466 0.0
H416 H 0.01382 0.9535 0.63817 0.0
H417 H 0.93522 0.97064 0.65586 0.0
H418 H 0.84928 0.98411 0.75566 0.0
H419 H 0.85591 0.97444 0.81034 0.0
H420 H 0.16119 0.99267 0.70387 0.0
H421 H 0.15709 0.99492 0.80007 0.0
H422 H 0.86972 0.9266 0.73386 0.0
H423 H 0.01907 0.90892 0.77448 0.0
C424 C 0.18832 0.56402 0.54569 0.0
C425 C 0.13701 0.55699 0.54437 0.0
C426 C 0.13403 0.55166 0.51629 0.0
C427 C 0.18286 0.55587 0.5018 0.0
N428 N 0.21671 0.56349 0.51907 0.0
Co429 Co 0.2879 0.57273 0.50584 0.0
N430 N 0.26696 0.57076 0.46276 0.0
C431 C 0.22545 0.56291 0.45164 0.0
C432 C 0.21783 0.56421 0.42129 0.0
C433 C 0.25769 0.57329 0.41257 0.0
C434 C 0.28831 0.57688 0.43814 0.0
N435 N 0.35986 0.58165 0.49257 0.0
C436 C 0.3768 0.58569 0.46485 0.0
C437 C 0.43276 0.59054 0.46555 0.0
C438 C 0.45164 0.58938 0.49462 0.0
C439 C 0.4064 0.58387 0.51003 0.0
N440 N 0.30628 0.57522 0.54907 0.0
C441 C 0.35823 0.57841 0.56042 0.0
C442 C 0.3574 0.57975 0.59112 0.0
C443 C 0.30132 0.57726 0.59955 0.0
C444 C 0.27097 0.57456 0.57345 0.0
N445 N 0.33224 0.55575 0.50526 0.0
C446 C 0.41529 0.53503 0.50451 0.0
C447 C 0.38713 0.53879 0.53118 0.0
C448 C 0.34549 0.54897 0.53102 0.0
C449 C 0.39781 0.54131 0.47813 0.0
C450 C 0.35647 0.5514 0.47898 0.0
N451 N 0.24628 0.58971 0.50634 0.0
C452 C 0.2459 0.61289 0.51737 0.0
C453 C 0.19018 0.61433 0.50548 0.0
C454 C 0.16294 0.60309 0.49424 0.0
C455 C 0.19161 0.59094 0.49481 0.0
C456 C 0.27287 0.6006 0.51772 0.0
H457 H 0.16951 0.58257 0.48573 0.0
H458 H 0.3156 0.59996 0.52715 0.0
H459 H 0.32525 0.55147 0.55205 0.0
H460 H 0.34531 0.55578 0.45806 0.0
C461 C 0.1897 0.55578 0.47073 0.0
C462 C 0.20957 0.57071 0.57274 0.0
C463 C 0.34323 0.58412 0.43704 0.0
C464 C 0.40359 0.58195 0.5412 0.0
H465 H 0.10422 0.55601 0.5615 0.0
H466 H 0.09818 0.54625 0.50684 0.0
H467 H 0.18629 0.55935 0.40725 0.0
H468 H 0.26485 0.57652 0.38974 0.0
H469 H 0.45755 0.59434 0.44689 0.0
H470 H 0.4931 0.59237 0.5035 0.0
H471 H 0.39271 0.58268 0.60556 0.0
H472 H 0.28462 0.57743 0.62225 0.0
H473 H 0.39791 0.53403 0.55214 0.0
H474 H 0.41689 0.53859 0.45682 0.0
H475 H 0.26855 0.62126 0.52644 0.0
H476 H 0.11978 0.60371 0.48495 0.0
C477 C 0.07799 0.7164 0.54475 0.0
C478 C 0.1292 0.72347 0.54362 0.0
C479 C 0.13269 0.72872 0.51548 0.0
C480 C 0.08423 0.72443 0.50079 0.0
N481 N 0.05015 0.71682 0.51798 0.0
Co482 Co 0.97923 0.70753 0.50452 0.0
N483 N 1.00084 0.70946 0.46151 0.0
C484 C 0.04259 0.71727 0.45051 0.0
C485 C 0.05104 0.71583 0.42025 0.0
C486 C 0.01147 0.70671 0.41145 0.0
C487 C 0.98011 0.70324 0.43687 0.0
N488 N 0.90752 0.69858 0.49097 0.0
C489 C 0.89101 0.69452 0.46319 0.0
C490 C 0.83499 0.6897 0.46366 0.0
C491 C 0.81565 0.69089 0.49264 0.0
C492 C 0.86069 0.69639 0.50823 0.0
N493 N 0.96015 0.7051 0.54768 0.0
C494 C 0.90803 0.7019 0.55881 0.0
C495 C 0.90833 0.70062 0.58953 0.0
C496 C 0.96422 0.70316 0.5982 0.0
C497 C 0.995 0.70584 0.57222 0.0
N498 N 0.93485 0.72449 0.50369 0.0
C499 C 0.85162 0.74516 0.5026 0.0
C500 C 0.87968 0.74148 0.52935 0.0
C501 C 0.9214 0.73132 0.52936 0.0
C502 C 0.86931 0.73884 0.47631 0.0
C503 C 0.91077 0.72878 0.47733 0.0
N504 N 0.02093 0.69057 0.5053 0.0
C505 C 0.02127 0.66741 0.51659 0.0
C506 C 0.07718 0.66596 0.50494 0.0
C507 C 0.10453 0.67719 0.49369 0.0
C508 C 0.07579 0.68933 0.49402 0.0
C509 C 0.99422 0.67969 0.51668 0.0
H510 H 0.09799 0.69769 0.48496 0.0
H511 H 0.95133 0.68034 0.52591 0.0
H512 H 0.94155 0.72887 0.55044 0.0
H513 H 0.92223 0.72436 0.45651 0.0
C514 C 0.07797 0.72444 0.46969 0.0
C515 C 0.0563 0.70976 0.57177 0.0
C516 C 0.92518 0.69599 0.43554 0.0
C517 C 0.863 0.69834 0.53941 0.0
H518 H 0.1616 0.72453 0.56092 0.0
H519 H 0.16862 0.73413 0.50616 0.0
H520 H 0.08301 0.72062 0.40634 0.0
H521 H 1.00506 0.70335 0.38865 0.0
H522 H 0.81048 0.6859 0.44492 0.0
H523 H 0.77403 0.68792 0.50136 0.0
H524 H 0.87279 0.69771 0.60383 0.0
H525 H 0.98051 0.70306 0.62098 0.0
H526 H 0.86872 0.74627 0.55025 0.0
H527 H 0.85033 0.7415 0.45494 0.0
H528 H 0.99854 0.65905 0.52565 0.0
H529 H 0.14784 0.67656 0.48459 0.0
C530 C 0.18648 0.71677 0.70422 0.0
C531 C 0.13524 0.72383 0.70525 0.0
C532 C 0.13191 0.72924 0.73324 0.0
C533 C 0.18048 0.72504 0.74797 0.0
N534 N 0.21446 0.71734 0.73094 0.0
Co535 Co 0.28533 0.70809 0.74457 0.0
N536 N 0.26383 0.71022 0.78755 0.0
C537 C 0.22255 0.7182 0.79839 0.0
C538 C 0.21466 0.71705 0.82876 0.0
C539 C 0.2541 0.70793 0.83778 0.0
C540 C 0.28471 0.70415 0.81235 0.0
N541 N 0.35691 0.69914 0.75824 0.0
C542 C 0.37314 0.69507 0.78605 0.0
C543 C 0.429 0.69016 0.78565 0.0
C544 C 0.44854 0.69132 0.7567 0.0
C545 C 0.40375 0.69688 0.74104 0.0
N546 N 0.30441 0.70552 0.70146 0.0
C547 C 0.35659 0.70234 0.69039 0.0
C548 C 0.35632 0.70097 0.65968 0.0
C549 C 0.30039 0.70345 0.65097 0.0
C550 C 0.26956 0.70617 0.67691 0.0
N551 N 0.32983 0.72502 0.74509 0.0
C552 C 0.41314 0.74565 0.7456 0.0
C553 C 0.38406 0.74205 0.71909 0.0
C554 C 0.34231 0.73189 0.71937 0.0
C555 C 0.39652 0.73926 0.77198 0.0
C556 C 0.35503 0.72921 0.77125 0.0
N557 N 0.24356 0.69114 0.74409 0.0
C558 C 0.24315 0.66796 0.73303 0.0
C559 C 0.18739 0.66653 0.74487 0.0
C560 C 0.16014 0.67777 0.75611 0.0
C561 C 0.18885 0.68992 0.75558 0.0
C562 C 0.27015 0.68025 0.73274 0.0
H563 H 0.16677 0.6983 0.76463 0.0
H564 H 0.31294 0.68087 0.72336 0.0
H565 H 0.32139 0.72946 0.69847 0.0
H566 H 0.34454 0.7247 0.79211 0.0
C567 C 0.18708 0.72526 0.77905 0.0
C568 C 0.20818 0.71004 0.67732 0.0
C569 C 0.33902 0.69669 0.81367 0.0
C570 C 0.40158 0.6988 0.70985 0.0
H571 H 0.10274 0.72479 0.68796 0.0
H572 H 0.09605 0.73471 0.74246 0.0
H573 H 0.18318 0.72203 0.84261 0.0
H574 H 0.2609 0.70478 0.8607 0.0
H575 H 0.45331 0.68633 0.80444 0.0
H576 H 0.49011 0.68828 0.74804 0.0
H577 H 0.39189 0.69804 0.64543 0.0
H578 H 0.28411 0.70327 0.62819 0.0
H579 H 0.39425 0.74688 0.69814 0.0
H580 H 0.4164 0.74186 0.79317 0.0
H581 H 0.2658 0.65959 0.72396 0.0
H582 H 0.11695 0.67715 0.76536 0.0
C583 C 0.07769 0.56431 0.70478 0.0
C584 C 0.12904 0.5573 0.70599 0.0
C585 C 0.13261 0.5521 0.73416 0.0
C586 C 0.08405 0.55636 0.7488 0.0
N587 N 0.04976 0.56389 0.73154 0.0
Co588 Co 0.97848 0.57308 0.7449 0.0
N589 N 0.99996 0.57121 0.78794 0.0
C590 C 0.0423 0.56357 0.799 0.0
C591 C 0.05047 0.56502 0.82928 0.0
C592 C 0.0101 0.57397 0.83803 0.0
C593 C 0.97863 0.57732 0.81257 0.0
N594 N 0.90634 0.5819 0.75833 0.0
C595 C 0.88925 0.58581 0.78614 0.0
C596 C 0.83312 0.59055 0.78555 0.0
C597 C 0.81429 0.58948 0.75647 0.0
C598 C 0.85973 0.58413 0.74093 0.0
N599 N 0.95982 0.5756 0.70168 0.0
C600 C 0.90792 0.57891 0.69043 0.0
C601 C 0.90859 0.58029 0.65973 0.0
C602 C 0.96451 0.57772 0.65119 0.0
C603 C 0.99493 0.57492 0.67722 0.0
N604 N 0.93439 0.55602 0.74561 0.0
C605 C 0.85092 0.53536 0.74711 0.0
C606 C 0.87565 0.53962 0.71997 0.0
C607 C 0.9177 0.5497 0.71974 0.0
C608 C 0.87239 0.541 0.77346 0.0
C609 C 0.91371 0.5511 0.77224 0.0
N610 N 0.01974 0.59011 0.74428 0.0
C611 C 0.01941 0.61331 0.73336 0.0
C612 C 0.07537 0.61479 0.7449 0.0
C613 C 0.1031 0.60358 0.75591 0.0
C614 C 0.07467 0.5914 0.75546 0.0
C615 C 0.99268 0.60099 0.73314 0.0
H616 H 0.09719 0.58305 0.76434 0.0
H617 H 0.94975 0.60033 0.72398 0.0
H618 H 0.93547 0.55245 0.69831 0.0
H619 H 0.92767 0.55499 0.79325 0.0
C620 C 0.07791 0.55643 0.7799 0.0
C621 C 0.05618 0.57096 0.67775 0.0
C622 C 0.9231 0.58431 0.81386 0.0
C623 C 0.86257 0.58236 0.70973 0.0
H624 H 0.16154 0.55627 0.68872 0.0
H625 H 0.16869 0.54676 0.74355 0.0
H626 H 0.08261 0.56033 0.84324 0.0
H627 H 1.00317 0.57727 0.86083 0.0
H628 H 0.80823 0.59424 0.80429 0.0
H629 H 0.77274 0.59245 0.74764 0.0
H630 H 0.87325 0.58327 0.64537 0.0
H631 H 0.98107 0.57788 0.62847 0.0
H632 H 0.86206 0.53529 0.69895 0.0
H633 H 0.85627 0.53782 0.79509 0.0
H634 H 0.99639 0.62166 0.72448 0.0
H635 H 0.14647 0.60423 0.76492 0.0
C636 C 0.74552 0.45549 0.42802 0.0
C637 C 0.71498 0.45258 0.40209 0.0
C638 C 0.65918 0.44997 0.41077 0.0
C639 C 0.6587 0.45143 0.44145 0.0
N640 N 0.7106 0.45484 0.45256 0.0
Co641 Co 0.72958 0.45747 0.4957 0.0
N642 N 0.65778 0.4486 0.50937 0.0
C643 C 0.61104 0.44629 0.49212 0.0
C644 C 0.56594 0.44088 0.50782 0.0
C645 C 0.58514 0.43987 0.53685 0.0
C646 C 0.64115 0.44469 0.53723 0.0
N647 N 0.75143 0.45946 0.53866 0.0
C648 C 0.73048 0.45337 0.56339 0.0
C649 C 0.76198 0.45684 0.58876 0.0
C650 C 0.80203 0.46583 0.57982 0.0
C651 C 0.79364 0.46719 0.54954 0.0
N652 N 0.80053 0.46672 0.48208 0.0
C653 C 0.83474 0.47434 0.49916 0.0
C654 C 0.88312 0.47861 0.48437 0.0
C655 C 0.8795 0.47332 0.45629 0.0
C656 C 0.82828 0.46625 0.45528 0.0
N657 N 0.68507 0.4745 0.49636 0.0
C658 C 0.60136 0.49513 0.49799 0.0
C659 C 0.62384 0.48965 0.52431 0.0
C660 C 0.66516 0.47955 0.52302 0.0
C661 C 0.62501 0.49067 0.47076 0.0
C662 C 0.66732 0.48064 0.47046 0.0
N663 N 0.77121 0.44048 0.49514 0.0
C664 C 0.85499 0.42713 0.5066 0.0
C665 C 0.82734 0.41586 0.4958 0.0
C666 C 0.77119 0.41726 0.48446 0.0
C667 C 0.74422 0.42956 0.4842 0.0
C668 C 0.82629 0.43928 0.50615 0.0
H669 H 0.70117 0.43015 0.47518 0.0
H670 H 0.84875 0.44767 0.51488 0.0
H671 H 0.67971 0.47579 0.54405 0.0
H672 H 0.68442 0.47781 0.44895 0.0
C673 C 0.61356 0.44799 0.46088 0.0
C674 C 0.80672 0.45949 0.42841 0.0
C675 C 0.67533 0.44625 0.56482 0.0
C676 C 0.82887 0.47434 0.53027 0.0
H677 H 0.7314 0.45238 0.37934 0.0
H678 H 0.62381 0.44691 0.39652 0.0
H679 H 0.5244 0.43783 0.49913 0.0
H680 H 0.56059 0.43614 0.55567 0.0
H681 H 0.75529 0.45359 0.61162 0.0
H682 H 0.83411 0.47061 0.59366 0.0
H683 H 0.91915 0.48402 0.49362 0.0
H684 H 0.9119 0.47432 0.43897 0.0
H685 H 0.60844 0.49296 0.54598 0.0
H686 H 0.61054 0.49483 0.44973 0.0
H687 H 0.89848 0.42653 0.51547 0.0
H688 H 0.74822 0.40887 0.47574 0.0
C689 C 0.02207 0.32452 0.42799 0.0
C690 C 0.05249 0.32736 0.40198 0.0
C691 C 0.10831 0.33002 0.41057 0.0
C692 C 0.10892 0.32864 0.44127 0.0
N693 N 0.05708 0.32525 0.45247 0.0
Co694 Co 0.03837 0.32267 0.49566 0.0
N695 N 0.11008 0.33163 0.50915 0.0
C696 C 0.15668 0.33395 0.49181 0.0
C697 C 0.2017 0.33947 0.50739 0.0
C698 C 0.18259 0.34053 0.53643 0.0
C699 C 0.12672 0.33562 0.53694 0.0
N700 N 0.01687 0.32069 0.53867 0.0
C701 C 0.03794 0.3268 0.56335 0.0
C702 C 1.00694 0.32325 0.58884 0.0
C703 C 0.96704 0.31421 0.57999 0.0
C704 C 0.97505 0.31289 0.54967 0.0
N705 N 0.96746 0.31336 0.48223 0.0
C706 C 0.93346 0.30572 0.49941 0.0
C707 C 0.88499 0.30143 0.48475 0.0
C708 C 0.88834 0.3067 0.45664 0.0
C709 C 0.9395 0.31379 0.45549 0.0
N710 N 0.08311 0.30568 0.49633 0.0
C711 C 0.16702 0.28511 0.49774 0.0
C712 C 0.14545 0.29072 0.52411 0.0
C713 C 0.10402 0.3008 0.52294 0.0
C714 C 0.14239 0.28942 0.47061 0.0
C715 C 0.1 0.29942 0.47043 0.0
N716 N 0.99649 0.33962 0.49509 0.0
C717 C 0.91286 0.35295 0.50696 0.0
C718 C 0.9401 0.36421 0.4958 0.0
C719 C 0.99594 0.3628 0.48406 0.0
C720 C 0.02307 0.35053 0.48382 0.0
C721 C 0.94166 0.34082 0.50645 0.0
H722 H 0.06593 0.34993 0.47455 0.0
H723 H 0.91952 0.33243 0.51542 0.0
H724 H 0.09022 0.30469 0.54398 0.0
H725 H 0.08214 0.30216 0.44902 0.0
C726 C 0.15408 0.33217 0.4606 0.0
C727 C 0.96091 0.32048 0.42849 0.0
C728 C 0.09283 0.33402 0.56461 0.0
C729 C 0.9397 0.30571 0.5305 0.0
H730 H 0.036 0.3275 0.37925 0.0
H731 H 0.1436 0.33305 0.39624 0.0
H732 H 0.24313 0.34255 0.49861 0.0
H733 H 0.20713 0.34432 0.55518 0.0
H734 H 0.01388 0.32648 0.61168 0.0
H735 H 0.9353 0.30936 0.59393 0.0
H736 H 0.84911 0.296 0.49409 0.0
H737 H 0.85583 0.30566 0.43939 0.0
H738 H 0.16168 0.28754 0.54572 0.0
H739 H 0.15617 0.28515 0.44956 0.0
H740 H 0.8696 0.35355 0.51613 0.0
H741 H 0.01858 0.37119 0.47505 0.0
C742 C 0.74681 0.32401 0.32381 0.0
C743 C 0.71615 0.32673 0.3498 0.0
C744 C 0.66017 0.3292 0.34119 0.0
C745 C 0.65969 0.32783 0.31049 0.0
N746 N 0.71179 0.32463 0.29932 0.0
Co747 Co 0.73073 0.32213 0.25616 0.0
N748 N 0.65881 0.33099 0.24263 0.0
C749 C 0.612 0.33317 0.25992 0.0
C750 C 0.56686 0.33862 0.24434 0.0
C751 C 0.58611 0.33979 0.21534 0.0
C752 C 0.64218 0.33501 0.21485 0.0
N753 N 0.75229 0.32017 0.21316 0.0
C754 C 0.73125 0.32629 0.18848 0.0
C755 C 0.76236 0.32276 0.16302 0.0
C756 C 0.80222 0.3137 0.17188 0.0
C757 C 0.79411 0.31237 0.20219 0.0
N758 N 0.80186 0.31293 0.26963 0.0
C759 C 0.83598 0.30531 0.25249 0.0
C760 C 0.88461 0.30112 0.26716 0.0
C761 C 0.8812 0.30644 0.29523 0.0
C762 C 0.82985 0.31346 0.29635 0.0
N763 N 0.68659 0.30512 0.25547 0.0
C764 C 0.60343 0.28442 0.2544 0.0
C765 C 0.622 0.29056 0.22804 0.0
C766 C 0.66334 0.30064 0.22904 0.0
C767 C 0.63063 0.28829 0.28124 0.0
C768 C 0.67238 0.29845 0.28124 0.0
N769 N 0.77211 0.33914 0.25679 0.0
C770 C 0.85556 0.35257 0.24519 0.0
C771 C 0.82789 0.3638 0.2562 0.0
C772 C 0.77189 0.36233 0.26772 0.0
C773 C 0.74511 0.35002 0.26795 0.0
C774 C 0.82703 0.34041 0.24559 0.0
H775 H 0.70218 0.34936 0.27713 0.0
H776 H 0.84945 0.33204 0.23668 0.0
H777 H 0.67529 0.30491 0.20812 0.0
H778 H 0.69192 0.30101 0.3024 0.0
C779 C 0.61448 0.3313 0.29112 0.0
C780 C 0.80822 0.32017 0.32329 0.0
C781 C 0.67629 0.33351 0.1872 0.0
C782 C 0.82963 0.30525 0.22139 0.0
H783 H 0.7326 0.32692 0.37254 0.0
H784 H 0.62467 0.33212 0.35551 0.0
H785 H 0.52523 0.34159 0.25307 0.0
H786 H 0.56151 0.34356 0.19659 0.0
H787 H 0.75557 0.32601 0.14018 0.0
H788 H 0.83407 0.30888 0.15796 0.0
H789 H 0.92062 0.29572 0.25785 0.0
H790 H 0.91376 0.30548 0.31247 0.0
H791 H 0.60373 0.28774 0.20661 0.0
H792 H 0.61902 0.28365 0.30222 0.0
H793 H 0.89894 0.35321 0.23618 0.0
H794 H 0.7489 0.37069 0.2766 0.0
C795 C 0.02095 0.45541 0.32395 0.0
C796 C 0.05131 0.4527 0.35004 0.0
C797 C 0.10729 0.45013 0.34158 0.0
C798 C 0.10805 0.45143 0.31087 0.0
N799 N 0.05615 0.45468 0.29954 0.0
Co800 Co 0.03766 0.45713 0.2563 0.0
N801 N 0.1096 0.4482 0.24304 0.0
C802 C 0.15615 0.44597 0.26048 0.0
C803 C 0.20135 0.44045 0.24506 0.0
C804 C 0.18242 0.43929 0.21601 0.0
C805 C 0.12648 0.44414 0.21533 0.0
N806 N 0.0165 0.45902 0.21322 0.0
C807 C 0.03782 0.45287 0.18865 0.0
C808 C 1.00704 0.45638 0.16307 0.0
C809 C 0.96705 0.46544 0.17174 0.0
C810 C 0.9748 0.46681 0.20207 0.0
N811 N 0.96651 0.4664 0.26951 0.0
C812 C 0.93256 0.47399 0.25219 0.0
C813 C 0.88384 0.47824 0.26671 0.0
C814 C 0.887 0.47299 0.29485 0.0
C815 C 0.93829 0.46596 0.29618 0.0
N816 N 0.08206 0.47413 0.25554 0.0
C817 C 0.16567 0.49474 0.25434 0.0
C818 C 0.14592 0.48882 0.22796 0.0
C819 C 0.10449 0.47874 0.22903 0.0
C820 C 0.13926 0.49076 0.28129 0.0
C821 C 0.0972 0.48068 0.28136 0.0
N822 N 0.99605 0.44015 0.25696 0.0
C823 C 0.91279 0.42673 0.24492 0.0
C824 C 0.94006 0.41552 0.25628 0.0
C825 C 0.99572 0.41699 0.26822 0.0
C826 C 0.02266 0.42929 0.26844 0.0
C827 C 0.94139 0.43889 0.24542 0.0
H828 H 0.06538 0.42994 0.27786 0.0
H829 H 0.91924 0.44724 0.23629 0.0
H830 H 0.09188 0.47461 0.20805 0.0
H831 H 0.07817 0.47809 0.30261 0.0
C832 C 0.15338 0.44788 0.29165 0.0
C833 C 0.95965 0.45933 0.32327 0.0
C834 C 0.09281 0.44567 0.18756 0.0
C835 C 0.93916 0.47398 0.22111 0.0
H836 H 0.03468 0.45258 0.37275 0.0
H837 H 0.14258 0.44719 0.35602 0.0
H838 H 0.2428 0.43745 0.25394 0.0
H839 H 0.20716 0.43547 0.19735 0.0
H840 H 0.01419 0.45312 0.14026 0.0
H841 H 0.93541 0.47026 0.15769 0.0
H842 H 0.84795 0.48363 0.25724 0.0
H843 H 0.8543 0.47402 0.31201 0.0
H844 H 0.16347 0.49176 0.20645 0.0
H845 H 0.15159 0.49529 0.30229 0.0
H846 H 0.86966 0.42609 0.2356 0.0
H847 H 0.01837 0.40864 0.27738 0.0
C848 C 0.68988 0.06401 0.54438 0.0
C849 C 0.63863 0.05697 0.5431 0.0
C850 C 0.63533 0.05174 0.51494 0.0
C851 C 0.68395 0.05602 0.50037 0.0
N852 N 0.71796 0.06359 0.51766 0.0
Co853 Co 0.78911 0.07285 0.5044 0.0
N854 N 0.76788 0.07096 0.46133 0.0
C855 C 0.7262 0.06315 0.45021 0.0
C856 C 0.71826 0.06455 0.4199 0.0
C857 C 0.7581 0.07364 0.41121 0.0
C858 C 0.78904 0.07714 0.43675 0.0
N859 N 0.86103 0.08177 0.49107 0.0
C860 C 0.87783 0.08585 0.46335 0.0
C861 C 0.93382 0.09068 0.46399 0.0
C862 C 0.95287 0.08947 0.49302 0.0
C863 C 0.90768 0.08396 0.50846 0.0
N864 N 0.80781 0.07525 0.54762 0.0
C865 C 0.85985 0.07842 0.55889 0.0
C866 C 0.85928 0.07968 0.58962 0.0
C867 C 0.8033 0.07716 0.59815 0.0
C868 C 0.77273 0.07452 0.57208 0.0
N869 N 0.83331 0.05586 0.50361 0.0
C870 C 0.91617 0.03512 0.50263 0.0
C871 C 0.88801 0.03882 0.52933 0.0
C872 C 0.84646 0.04901 0.52929 0.0
C873 C 0.89877 0.04146 0.47632 0.0
C874 C 0.8575 0.05156 0.47728 0.0
N875 N 0.74758 0.08983 0.50513 0.0
C876 C 0.74738 0.11299 0.51644 0.0
C877 C 0.69169 0.11447 0.50453 0.0
C878 C 0.66436 0.10327 0.49317 0.0
C879 C 0.69291 0.09111 0.49362 0.0
C880 C 0.77426 0.10068 0.51663 0.0
H881 H 0.67074 0.08276 0.48446 0.0
H882 H 0.81699 0.10001 0.52604 0.0
H883 H 0.82621 0.05147 0.55034 0.0
H884 H 0.84633 0.05599 0.45643 0.0
C885 C 0.69054 0.056 0.46928 0.0
C886 C 0.71139 0.07062 0.57147 0.0
C887 C 0.84407 0.08434 0.43559 0.0
C888 C 0.90508 0.08198 0.53962 0.0
H889 H 0.60609 0.05591 0.56034 0.0
H890 H 0.59944 0.04634 0.50551 0.0
H891 H 0.68652 0.05975 0.40588 0.0
H892 H 0.76502 0.07694 0.38841 0.0
H893 H 0.95852 0.09449 0.44532 0.0
H894 H 0.99441 0.09244 0.50186 0.0
H895 H 0.89472 0.08257 0.60401 0.0
H896 H 0.7868 0.07726 0.62088 0.0
H897 H 0.89874 0.03401 0.55025 0.0
H898 H 0.91785 0.03878 0.45498 0.0
H899 H 0.77008 0.12133 0.52561 0.0
H900 H 0.62121 0.10393 0.48387 0.0
C901 C 0.5804 0.21643 0.54498 0.0
C902 C 0.63164 0.22349 0.54383 0.0
C903 C 0.63479 0.22886 0.51581 0.0
C904 C 0.58611 0.22466 0.50119 0.0
N905 N 0.55223 0.21698 0.51831 0.0
Co906 Co 0.48124 0.20773 0.50486 0.0
N907 N 0.50248 0.20979 0.46184 0.0
C908 C 0.5438 0.21774 0.45088 0.0
C909 C 0.55153 0.21654 0.42051 0.0
C910 C 0.51194 0.20743 0.4116 0.0
C911 C 0.4814 0.20371 0.43711 0.0
N912 N 0.40951 0.19878 0.49136 0.0
C913 C 0.39302 0.19471 0.46359 0.0
C914 C 0.33714 0.18981 0.46412 0.0
C915 C 0.31785 0.19098 0.49312 0.0
C916 C 0.3628 0.19654 0.50867 0.0
N917 N 0.46247 0.20519 0.54802 0.0
C918 C 0.41039 0.20201 0.55921 0.0
C919 C 0.41092 0.20065 0.58991 0.0
C920 C 0.46691 0.20313 0.5985 0.0
C921 C 0.49753 0.20584 0.57249 0.0
N922 N 0.43677 0.22467 0.50432 0.0
C923 C 0.35358 0.24534 0.50377 0.0
C924 C 0.38249 0.2417 0.53031 0.0
C925 C 0.42417 0.23153 0.53005 0.0
C926 C 0.37031 0.23896 0.4774 0.0
C927 C 0.41175 0.2289 0.47814 0.0
N928 N 0.52298 0.19077 0.50534 0.0
C929 C 0.52336 0.16758 0.51634 0.0
C930 C 0.5792 0.16616 0.50459 0.0
C931 C 0.60648 0.17741 0.49341 0.0
C932 C 0.57773 0.18955 0.49391 0.0
C933 C 0.49635 0.17987 0.51664 0.0
H934 H 0.59984 0.19793 0.48488 0.0
H935 H 0.45355 0.18049 0.52599 0.0
H936 H 0.44495 0.22909 0.55098 0.0
H937 H 0.42235 0.22441 0.45727 0.0
C938 C 0.57938 0.22483 0.47011 0.0
C939 C 0.55892 0.20971 0.57194 0.0
C940 C 0.42691 0.19631 0.43589 0.0
C941 C 0.36524 0.19846 0.53985 0.0
H942 H 0.66427 0.22445 0.56105 0.0
H943 H 0.67062 0.23432 0.5065 0.0
H944 H 0.58298 0.22148 0.40657 0.0
H945 H 0.50497 0.20425 0.38872 0.0
H946 H 0.31264 0.18598 0.44539 0.0
H947 H 0.27634 0.18795 0.50188 0.0
H948 H 0.37546 0.19771 0.60425 0.0
H949 H 0.48339 0.20295 0.62124 0.0
H950 H 0.37222 0.24653 0.55126 0.0
H951 H 0.35059 0.24158 0.45618 0.0
H952 H 0.50066 0.15921 0.52535 0.0
H953 H 0.64973 0.1768 0.48423 0.0
C954 C 0.68962 0.21614 0.7043 0.0
C955 C 0.63828 0.22316 0.70544 0.0
C956 C 0.63471 0.22841 0.73357 0.0
C957 C 0.68325 0.22417 0.74826 0.0
N958 N 0.71748 0.21659 0.73107 0.0
Co959 Co 0.7886 0.20738 0.74453 0.0
N960 N 0.76698 0.2093 0.78754 0.0
C961 C 0.72498 0.21705 0.79853 0.0
C962 C 0.71658 0.21561 0.8288 0.0
C963 C 0.75645 0.20655 0.8376 0.0
C964 C 0.78791 0.20313 0.81218 0.0
N965 N 0.86053 0.19852 0.75807 0.0
C966 C 0.87723 0.19452 0.78587 0.0
C967 C 0.93334 0.18977 0.78538 0.0
C968 C 0.95255 0.19092 0.75637 0.0
C969 C 0.90734 0.19634 0.74078 0.0
N970 N 0.80761 0.20492 0.70136 0.0
C971 C 0.85972 0.20173 0.69021 0.0
C972 C 0.85935 0.2004 0.6595 0.0
C973 C 0.80342 0.2029 0.65085 0.0
C974 C 0.77269 0.2056 0.67683 0.0
N975 N 0.83271 0.2244 0.7453 0.0
C976 C 0.91574 0.24512 0.74647 0.0
C977 C 0.88859 0.24127 0.71961 0.0
C978 C 0.84691 0.2311 0.71955 0.0
C979 C 0.89718 0.23896 0.7728 0.0
C980 C 0.85587 0.22887 0.77174 0.0
N981 N 0.74722 0.19038 0.74381 0.0
C982 C 0.74733 0.1672 0.7327 0.0
C983 C 0.69142 0.16572 0.74433 0.0
C984 C 0.66384 0.17693 0.75547 0.0
C985 C 0.69235 0.1891 0.75507 0.0
C986 C 0.77415 0.17951 0.73254 0.0
H987 H 0.66996 0.19745 0.76405 0.0
H988 H 0.81705 0.18018 0.72332 0.0
H989 H 0.82742 0.22855 0.69837 0.0
H990 H 0.84381 0.22459 0.79263 0.0
C991 C 0.68947 0.22418 0.77935 0.0
C992 C 0.71135 0.2095 0.6773 0.0
C993 C 0.84309 0.19599 0.81352 0.0
C994 C 0.90488 0.19823 0.70959 0.0
H995 H 0.60584 0.22417 0.68814 0.0
H996 H 0.59866 0.23379 0.74289 0.0
H997 H 0.6845 0.22036 0.8427 0.0
H998 H 0.76301 0.20322 0.8604 0.0
H999 H 0.95799 0.18601 0.80413 0.0
H1000 H 0.9942 0.18798 0.74764 0.0
H1001 H 0.89488 0.19749 0.64519 0.0
H1002 H 0.78706 0.20276 0.62809 0.0
H1003 H 0.90018 0.24594 0.69866 0.0
H1004 H 0.9154 0.24177 0.79425 0.0
H1005 H 0.77025 0.15885 0.72371 0.0
H1006 H 0.62052 0.17628 0.76455 0.0
C1007 C 0.58048 0.06369 0.7038 0.0
C1008 C 0.63175 0.05664 0.70492 0.0
C1009 C 0.63508 0.05131 0.73298 0.0
C1010 C 0.58647 0.05553 0.74765 0.0
N1011 N 0.55244 0.06317 0.73051 0.0
Co1012 Co 0.4814 0.0724 0.74399 0.0
N1013 N 0.50277 0.07038 0.78701 0.0
C1014 C 0.54434 0.0625 0.79797 0.0
C1015 C 0.55219 0.06375 0.82832 0.0
C1016 C 0.51242 0.07282 0.83722 0.0
C1017 C 0.48164 0.07646 0.81174 0.0
N1018 N 0.40959 0.08132 0.75752 0.0
C1019 C 0.39298 0.08534 0.78531 0.0
C1020 C 0.33702 0.09019 0.78479 0.0
C1021 C 0.3178 0.08905 0.75578 0.0
C1022 C 0.36286 0.08355 0.74021 0.0
N1023 N 0.46254 0.07492 0.70083 0.0
C1024 C 0.41044 0.07811 0.68966 0.0
C1025 C 0.4109 0.07945 0.65895 0.0
C1026 C 0.46686 0.07697 0.65033 0.0
C1027 C 0.49753 0.07426 0.67633 0.0
N1028 N 0.43707 0.05543 0.74459 0.0
C1029 C 0.35388 0.03476 0.74536 0.0
C1030 C 0.38219 0.03847 0.7187 0.0
C1031 C 0.42389 0.04863 0.71885 0.0
C1032 C 0.37127 0.04106 0.77172 0.0
C1033 C 0.41272 0.05112 0.77087 0.0
N1034 N 0.52301 0.08938 0.74345 0.0
C1035 C 0.52328 0.11256 0.73238 0.0
C1036 C 0.57908 0.11401 0.74417 0.0
C1037 C 0.60641 0.10278 0.75538 0.0
C1038 C 0.57776 0.09062 0.75488 0.0
C1039 C 0.49633 0.10027 0.73211 0.0
H1040 H 0.59993 0.08225 0.76392 0.0
H1041 H 0.45353 0.09963 0.72277 0.0
H1042 H 0.44422 0.05112 0.69783 0.0
H1043 H 0.42386 0.05552 0.79176 0.0
C1044 C 0.57992 0.05541 0.77873 0.0
C1045 C 0.55891 0.07039 0.67683 0.0
C1046 C 0.42687 0.08376 0.81301 0.0
C1047 C 0.3653 0.08164 0.70903 0.0
H1048 H 0.66428 0.05565 0.68766 0.0
H1049 H 0.67099 0.04588 0.74229 0.0
H1050 H 0.58382 0.05886 0.84224 0.0
H1051 H 0.50548 0.07601 0.86009 0.0
H1052 H 0.31244 0.09398 0.80354 0.0
H1053 H 0.27624 0.09205 0.74703 0.0
H1054 H 0.3754 0.08238 0.64463 0.0
H1055 H 0.48328 0.07713 0.62758 0.0
H1056 H 0.37144 0.0337 0.69775 0.0
H1057 H 0.35207 0.03837 0.79302 0.0
H1058 H 0.50056 0.12093 0.72334 0.0
H1059 H 0.64963 0.1034 0.76459 0.0
C1060 C 0.24542 0.95553 0.42578 0.0
C1061 C 0.21468 0.95267 0.39989 0.0
C1062 C 0.15888 0.95009 0.40865 0.0
C1063 C 0.15861 0.95154 0.43934 0.0
N1064 N 0.21064 0.95489 0.45036 0.0
Co1065 Co 0.22989 0.95751 0.49347 0.0
N1066 N 0.15809 0.94867 0.50725 0.0
C1067 C 0.1112 0.9464 0.49007 0.0
C1068 C 0.06615 0.941 0.50583 0.0
C1069 C 0.08555 0.93996 0.53482 0.0
C1070 C 0.14162 0.94475 0.53512 0.0
N1071 N 0.25198 0.95949 0.5364 0.0
C1072 C 0.23116 0.95339 0.56115 0.0
C1073 C 0.26283 0.95684 0.58648 0.0
C1074 C 0.30283 0.96583 0.57749 0.0
C1075 C 0.29426 0.96721 0.54723 0.0
N1076 N 0.30086 0.96671 0.47976 0.0
C1077 C 0.33525 0.97432 0.4968 0.0
C1078 C 0.38367 0.97853 0.48196 0.0
C1079 C 0.37988 0.97323 0.45391 0.0
C1080 C 0.32852 0.9662 0.45295 0.0
N1081 N 0.18558 0.97455 0.4942 0.0
C1082 C 0.10201 0.99519 0.49589 0.0
C1083 C 0.12434 0.98968 0.5222 0.0
C1084 C 0.16559 0.97956 0.52088 0.0
C1085 C 0.12575 0.99077 0.46865 0.0
C1086 C 0.168 0.98074 0.46833 0.0
N1087 N 0.27132 0.9405 0.49285 0.0
C1088 C 0.35492 0.92709 0.5043 0.0
C1089 C 0.32715 0.91585 0.49344 0.0
C1090 C 0.27105 0.91729 0.48207 0.0
C1091 C 0.24421 0.9296 0.48187 0.0
C1092 C 0.32638 0.93926 0.50387 0.0
H1093 H 0.20116 0.93023 0.47285 0.0
H1094 H 0.34892 0.94763 0.51262 0.0
H1095 H 0.18006 0.97577 0.54188 0.0
H1096 H 0.18518 0.97792 0.44682 0.0
C1097 C 0.11353 0.94811 0.45883 0.0
C1098 C 0.3067 0.95948 0.42608 0.0
C1099 C 0.17602 0.94627 0.56265 0.0
C1100 C 0.32948 0.97434 0.52792 0.0
H1101 H 0.23095 0.95246 0.37711 0.0
H1102 H 0.12338 0.94707 0.39445 0.0
H1103 H 0.02452 0.93798 0.49721 0.0
H1104 H 0.06108 0.93623 0.55367 0.0
H1105 H 0.25631 0.95357 0.60934 0.0
H1106 H 0.33504 0.9706 0.59129 0.0
H1107 H 0.41982 0.98391 0.49117 0.0
H1108 H 0.41226 0.97419 0.43656 0.0
H1109 H 0.10885 0.99295 0.54388 0.0
H1110 H 0.11139 0.99497 0.44764 0.0
H1111 H 0.3984 0.92647 0.51318 0.0
H1112 H 0.248 0.90892 0.47331 0.0
C1113 C 0.5207 0.82441 0.42557 0.0
C1114 C 0.55124 0.82726 0.3996 0.0
C1115 C 0.60706 0.82988 0.40826 0.0
C1116 C 0.60756 0.82847 0.43894 0.0
N1117 N 0.55565 0.82509 0.45009 0.0
Co1118 Co 0.53672 0.82252 0.49325 0.0
N1119 N 0.60851 0.83141 0.50684 0.0
C1120 C 0.65524 0.83369 0.48957 0.0
C1121 C 0.70034 0.83913 0.50521 0.0
C1122 C 0.68113 0.8402 0.53423 0.0
C1123 C 0.62513 0.83537 0.53467 0.0
N1124 N 0.51492 0.82058 0.53623 0.0
C1125 C 0.53585 0.82671 0.56091 0.0
C1126 C 0.50439 0.82327 0.58632 0.0
C1127 C 0.46442 0.81425 0.57745 0.0
C1128 C 0.47279 0.81285 0.54718 0.0
N1129 N 0.46575 0.81326 0.47972 0.0
C1130 C 0.43156 0.80565 0.49686 0.0
C1131 C 0.38312 0.80138 0.48213 0.0
C1132 C 0.38668 0.80665 0.45403 0.0
C1133 C 0.43792 0.81371 0.45294 0.0
N1134 N 0.58123 0.8055 0.49401 0.0
C1135 C 0.66511 0.78492 0.49572 0.0
C1136 C 0.64275 0.79043 0.52202 0.0
C1137 C 0.60135 0.80052 0.52069 0.0
C1138 C 0.64125 0.78931 0.46848 0.0
C1139 C 0.59886 0.79931 0.46814 0.0
N1140 N 0.4951 0.8395 0.49261 0.0
C1141 C 0.41156 0.85289 0.5043 0.0
C1142 C 0.43912 0.86413 0.4933 0.0
C1143 C 0.49507 0.8627 0.48173 0.0
C1144 C 0.52199 0.8504 0.48149 0.0
C1145 C 0.44016 0.84073 0.5038 0.0
H1146 H 0.56494 0.84978 0.47233 0.0
H1147 H 0.41777 0.83236 0.51266 0.0
H1148 H 0.5869 0.80432 0.54169 0.0
H1149 H 0.58159 0.80209 0.44663 0.0
C1150 C 0.65272 0.83194 0.45834 0.0
C1151 C 0.45948 0.82042 0.426 0.0
C1152 C 0.59094 0.83386 0.56227 0.0
C1153 C 0.43752 0.80567 0.52797 0.0
H1154 H 0.53481 0.82744 0.37686 0.0
H1155 H 0.64243 0.83291 0.39397 0.0
H1156 H 0.74187 0.84217 0.4965 0.0
H1157 H 0.70568 0.84396 0.55302 0.0
H1158 H 0.51106 0.82656 0.60915 0.0
H1159 H 0.43236 0.80948 0.59133 0.0
H1160 H 0.3471 0.79598 0.49143 0.0
H1161 H 0.35421 0.80564 0.43674 0.0
H1162 H 0.65834 0.78719 0.5437 0.0
H1163 H 0.65564 0.7851 0.44747 0.0
H1164 H 0.3682 0.85351 0.51333 0.0
H1165 H 0.51796 0.87107 0.47285 0.0
C1166 C 0.24524 0.82431 0.32143 0.0
C1167 C 0.21484 0.82714 0.34745 0.0
C1168 C 0.15893 0.82972 0.3389 0.0
C1169 C 0.15824 0.82831 0.30822 0.0
N1170 N 0.21012 0.82497 0.29698 0.0
Co1171 Co 0.22877 0.8224 0.25378 0.0
N1172 N 0.15681 0.83126 0.24032 0.0
C1173 C 0.11017 0.83352 0.25768 0.0
C1174 C 0.06493 0.83894 0.24212 0.0
C1175 C 0.08392 0.84002 0.21307 0.0
C1176 C 0.13996 0.83521 0.21253 0.0
N1177 N 0.25025 0.82045 0.21076 0.0
C1178 C 0.22912 0.82658 0.18613 0.0
C1179 C 0.26043 0.82315 0.16066 0.0
C1180 C 0.30051 0.81414 0.16945 0.0
C1181 C 0.29233 0.81273 0.19974 0.0
N1182 N 0.29992 0.81318 0.26719 0.0
C1183 C 0.33404 0.80558 0.24998 0.0
C1184 C 0.38265 0.80135 0.26462 0.0
C1185 C 0.37927 0.80663 0.29271 0.0
C1186 C 0.32795 0.81366 0.2939 0.0
N1187 N 0.18441 0.80536 0.25314 0.0
C1188 C 0.10085 0.78471 0.25169 0.0
C1189 C 0.12259 0.79029 0.22532 0.0
C1190 C 0.16385 0.80041 0.22652 0.0
C1191 C 0.12516 0.78908 0.27884 0.0
C1192 C 0.16738 0.79912 0.27904 0.0
N1193 N 0.27026 0.8394 0.25432 0.0
C1194 C 0.35366 0.85281 0.24249 0.0
C1195 C 0.32612 0.86405 0.25354 0.0
C1196 C 0.27024 0.8626 0.26522 0.0
C1197 C 0.24338 0.85029 0.2655 0.0
C1198 C 0.32512 0.84065 0.24303 0.0
H1199 H 0.2005 0.84966 0.27473 0.0
H1200 H 0.34748 0.83228 0.23413 0.0
H1201 H 0.17784 0.80426 0.20548 0.0
H1202 H 0.18499 0.80191 0.30048 0.0
C1203 C 0.11292 0.83177 0.2889 0.0
C1204 C 0.30651 0.82036 0.32088 0.0
C1205 C 0.17395 0.83371 0.18485 0.0
C1206 C 0.32782 0.80558 0.21889 0.0
H1207 H 0.23142 0.82733 0.37017 0.0
H1208 H 0.12362 0.83273 0.35326 0.0
H1209 H 0.02342 0.84196 0.25092 0.0
H1210 H 0.05921 0.84376 0.19433 0.0
H1211 H 0.25361 0.82644 0.13785 0.0
H1212 H 0.3325 0.80938 0.15551 0.0
H1213 H 0.41866 0.79597 0.25525 0.0
H1214 H 0.41189 0.80565 0.30993 0.0
H1215 H 0.10664 0.78706 0.2037 0.0
H1216 H 0.11125 0.78483 0.2999 0.0
H1217 H 0.39696 0.85344 0.23338 0.0
H1218 H 0.24738 0.87097 0.27414 0.0
C1219 C 0.51998 0.95541 0.32101 0.0
C1220 C 0.55057 0.95254 0.34694 0.0
C1221 C 0.60638 0.94993 0.33824 0.0
C1222 C 0.60681 0.95137 0.30756 0.0
N1223 N 0.55487 0.95475 0.29647 0.0
Co1224 Co 0.53586 0.95737 0.25333 0.0
N1225 N 0.60768 0.94851 0.23965 0.0
C1226 C 0.65445 0.94622 0.25689 0.0
C1227 C 0.69957 0.94082 0.24119 0.0
C1228 C 0.68033 0.93979 0.21217 0.0
C1229 C 0.62429 0.9446 0.21179 0.0
N1230 N 0.514 0.95936 0.21037 0.0
C1231 C 0.53492 0.95326 0.18564 0.0
C1232 C 0.50338 0.95671 0.16027 0.0
C1233 C 0.46336 0.96571 0.16921 0.0
C1234 C 0.47179 0.96708 0.19949 0.0
N1235 N 0.46488 0.96661 0.26694 0.0
C1236 C 0.43061 0.97422 0.24986 0.0
C1237 C 0.38215 0.97845 0.26463 0.0
C1238 C 0.38579 0.97316 0.2927 0.0
C1239 C 0.4371 0.96612 0.29373 0.0
N1240 N 0.58031 0.9744 0.25267 0.0
C1241 C 0.6642 0.99498 0.25109 0.0
C1242 C 0.64182 0.9895 0.22476 0.0
C1243 C 0.6004 0.97942 0.22602 0.0
C1244 C 0.64032 0.99056 0.2783 0.0
C1245 C 0.59792 0.98056 0.27857 0.0
N1246 N 0.4943 0.94038 0.25389 0.0
C1247 C 0.41061 0.927 0.24241 0.0
C1248 C 0.43825 0.91575 0.2533 0.0
C1249 C 0.49435 0.91718 0.2647 0.0
C1250 C 0.52129 0.92947 0.2649 0.0
C1251 C 0.43926 0.93916 0.24284 0.0
H1252 H 0.56431 0.93008 0.27396 0.0
H1253 H 0.41681 0.94754 0.23406 0.0
H1254 H 0.58589 0.97565 0.205 0.0
H1255 H 0.58065 0.97775 0.30007 0.0
C1256 C 0.65195 0.94793 0.28813 0.0
C1257 C 0.45876 0.9594 0.32063 0.0
C1258 C 0.59006 0.94613 0.18421 0.0
C1259 C 0.43651 0.97422 0.21875 0.0
H1260 H 0.5342 0.95234 0.3697 0.0
H1261 H 0.64178 0.9469 0.3525 0.0
H1262 H 0.74113 0.93779 0.24987 0.0
H1263 H 0.70489 0.93607 0.19334 0.0
H1264 H 0.51 0.95344 0.13742 0.0
H1265 H 0.43124 0.97048 0.15537 0.0
H1266 H 0.34608 0.98384 0.25537 0.0
H1267 H 0.35334 0.97414 0.31001 0.0
H1268 H 0.65739 0.99278 0.2031 0.0
H1269 H 0.65471 0.99474 0.29935 0.0
H1270 H 0.36715 0.92639 0.2335 0.0
H1271 H 0.51731 0.9088 0.27349 0.0
C1272 C 0.6876 0.56332 0.04564 0.0
C1273 C 0.63636 0.55626 0.04448 0.0
C1274 C 0.63319 0.5509 0.01644 0.0
C1275 C 0.68182 0.55513 0.00181 0.0
N1276 N 0.71571 0.5628 0.01895 0.0
Co1277 Co 0.78663 0.57208 0.0055 0.0
N1278 N 0.76533 0.57003 0.96247 0.0
C1279 C 0.72398 0.5621 0.95151 0.0
C1280 C 0.71596 0.56337 0.92118 0.0
C1281 C 0.75538 0.57252 0.91231 0.0
C1282 C 0.78618 0.57618 0.93778 0.0
N1283 N 0.85828 0.58105 0.99197 0.0
C1284 C 0.87472 0.58513 0.9642 0.0
C1285 C 0.93063 0.59002 0.9647 0.0
C1286 C 0.94996 0.58884 0.99369 0.0
C1287 C 0.90502 0.58329 0.00926 0.0
N1288 N 0.80547 0.57459 0.04865 0.0
C1289 C 0.85758 0.57778 0.05981 0.0
C1290 C 0.85714 0.5791 0.09053 0.0
C1291 C 0.80119 0.5766 0.09915 0.0
C1292 C 0.7705 0.5739 0.07315 0.0
N1293 N 0.83116 0.55516 0.0049 0.0
C1294 C 0.91452 0.53453 0.00429 0.0
C1295 C 0.88552 0.53813 0.03083 0.0
C1296 C 0.84374 0.54828 0.0306 0.0
C1297 C 0.89779 0.54093 0.97794 0.0
C1298 C 0.85626 0.55097 0.97871 0.0
N1299 N 0.74479 0.58902 0.00604 0.0
C1300 C 0.74415 0.61219 0.01726 0.0
C1301 C 0.68845 0.61361 0.00534 0.0
C1302 C 0.66134 0.60237 0.994 0.0
C1303 C 0.69013 0.59024 0.9945 0.0
C1304 C 0.77126 0.59991 0.0175 0.0
H1305 H 0.66814 0.58186 0.98537 0.0
H1306 H 0.81401 0.59929 0.02692 0.0
H1307 H 0.82287 0.55069 0.05153 0.0
H1308 H 0.84563 0.55548 0.95788 0.0
C1309 C 0.68849 0.55498 0.97073 0.0
C1310 C 0.70914 0.57002 0.07263 0.0
C1311 C 0.8407 0.58357 0.93652 0.0
C1312 C 0.90266 0.58135 0.04044 0.0
H1313 H 0.60375 0.55528 0.06171 0.0
H1314 H 0.59735 0.54545 0.00712 0.0
H1315 H 0.68436 0.55847 0.90726 0.0
H1316 H 0.76204 0.57578 0.88946 0.0
H1317 H 0.95509 0.59385 0.94596 0.0
H1318 H 0.99151 0.59186 0.00242 0.0
H1319 H 0.89263 0.58203 0.10485 0.0
H1320 H 0.78479 0.57674 0.1219 0.0
H1321 H 0.89579 0.53329 0.05177 0.0
H1322 H 0.91759 0.53834 0.95672 0.0
H1323 H 0.76668 0.62056 0.02641 0.0
H1324 H 0.6182 0.60298 0.98468 0.0
C1325 C 0.57665 0.71572 0.04562 0.0
C1326 C 0.62788 0.72278 0.04449 0.0
C1327 C 0.63161 0.72794 0.01629 0.0
C1328 C 0.58327 0.72362 0.00157 0.0
N1329 N 0.54889 0.71609 0.01881 0.0
Co1330 Co 0.47775 0.70684 0.00535 0.0
N1331 N 0.49943 0.70874 0.96233 0.0
C1332 C 0.5423 0.71625 0.95134 0.0
C1333 C 0.5507 0.71476 0.92109 0.0
C1334 C 0.50998 0.70591 0.91227 0.0
C1335 C 0.47807 0.70267 0.93767 0.0
N1336 N 0.40568 0.69801 0.99182 0.0
C1337 C 0.38842 0.69426 0.96395 0.0
C1338 C 0.33232 0.68949 0.96448 0.0
C1339 C 0.3137 0.69037 0.99362 0.0
C1340 C 0.3592 0.69565 0.00924 0.0
N1341 N 0.45917 0.7042 0.04858 0.0
C1342 C 0.40755 0.70064 0.0598 0.0
C1343 C 0.40836 0.69914 0.09047 0.0
C1344 C 0.46408 0.70189 0.09903 0.0
C1345 C 0.49425 0.70491 0.07305 0.0
N1346 N 0.43331 0.72393 0.00468 0.0
C1347 C 0.34958 0.74457 0.00245 0.0
C1348 C 0.37046 0.73969 0.02988 0.0
C1349 C 0.41289 0.7297 0.03051 0.0
C1350 C 0.37494 0.73955 0.97636 0.0
C1351 C 0.41616 0.72942 0.97793 0.0
N1352 N 0.51928 0.68984 0.0059 0.0
C1353 C 0.51919 0.66661 0.01649 0.0
C1354 C 0.57546 0.66522 0.00531 0.0
C1355 C 0.60321 0.67649 0.99463 0.0
C1356 C 0.5745 0.68864 0.99506 0.0
C1357 C 0.49219 0.6789 0.01671 0.0
H1358 H 0.59709 0.69703 0.98643 0.0
H1359 H 0.44906 0.67948 0.02562 0.0
H1360 H 0.42794 0.72665 0.05225 0.0
H1361 H 0.43281 0.72603 0.95697 0.0
C1362 C 0.57766 0.72344 0.97046 0.0
C1363 C 0.5553 0.70901 0.07258 0.0
C1364 C 0.42225 0.69582 0.93625 0.0
C1365 C 0.36222 0.69721 0.04049 0.0
H1366 H 0.66028 0.72384 0.06179 0.0
H1367 H 0.66774 0.73328 0.00694 0.0
H1368 H 0.58312 0.71939 0.90719 0.0
H1369 H 0.50308 0.70261 0.88946 0.0
H1370 H 0.30735 0.68588 0.94569 0.0
H1371 H 0.27226 0.68731 0.00244 0.0
H1372 H 0.37324 0.696 0.10479 0.0
H1373 H 0.4807 0.70169 0.12174 0.0
H1374 H 0.35384 0.74352 0.05083 0.0
H1375 H 0.36182 0.74321 0.95459 0.0
H1376 H 0.49614 0.65821 0.02511 0.0
H1377 H 0.6468 0.67591 0.98589 0.0
C1378 C 0.68793 0.71578 0.20455 0.0
C1379 C 0.63656 0.72278 0.206 0.0
C1380 C 0.6337 0.72808 0.23411 0.0
C1381 C 0.68266 0.72389 0.24849 0.0
N1382 N 0.71647 0.71629 0.23112 0.0
Co1383 Co 0.78777 0.70706 0.24419 0.0
N1384 N 0.76704 0.70897 0.28732 0.0
C1385 C 0.72555 0.7168 0.29854 0.0
C1386 C 0.71788 0.7154 0.32887 0.0
C1387 C 0.7577 0.70629 0.33746 0.0
C1388 C 0.78838 0.70278 0.31184 0.0
N1389 N 0.85983 0.69814 0.25732 0.0
C1390 C 0.8769 0.69406 0.285 0.0
C1391 C 0.9329 0.68924 0.2842 0.0
C1392 C 0.95167 0.69046 0.25512 0.0
C1393 C 0.90632 0.69597 0.2398 0.0
N1394 N 0.80596 0.70464 0.20093 0.0
C1395 C 0.85791 0.70149 0.1895 0.0
C1396 C 0.85696 0.7002 0.15879 0.0
C1397 C 0.80084 0.70268 0.15044 0.0
C1398 C 0.77056 0.70532 0.1766 0.0
N1399 N 0.832 0.72404 0.24481 0.0
C1400 C 0.91492 0.74478 0.2455 0.0
C1401 C 0.88633 0.7411 0.2189 0.0
C1402 C 0.84477 0.7309 0.21909 0.0
C1403 C 0.89796 0.73841 0.27186 0.0
C1404 C 0.85665 0.72832 0.27105 0.0
N1405 N 0.74623 0.69007 0.24365 0.0
C1406 C 0.74586 0.66691 0.23242 0.0
C1407 C 0.6903 0.66544 0.2445 0.0
C1408 C 0.66312 0.67665 0.25592 0.0
C1409 C 0.6917 0.68881 0.25534 0.0
C1410 C 0.77276 0.67921 0.2321 0.0
H1411 H 0.66965 0.69716 0.26454 0.0
H1412 H 0.81539 0.67988 0.22255 0.0
H1413 H 0.8242 0.72844 0.19812 0.0
H1414 H 0.84583 0.72387 0.29192 0.0
C1415 C 0.68968 0.72394 0.27955 0.0
C1416 C 0.70912 0.70914 0.17742 0.0
C1417 C 0.84337 0.69555 0.31284 0.0
C1418 C 0.90337 0.69794 0.20865 0.0
H1419 H 0.60363 0.72376 0.18894 0.0
H1420 H 0.59787 0.73346 0.24365 0.0
H1421 H 0.68629 0.72021 0.34297 0.0
H1422 H 0.76477 0.70298 0.36023 0.0
H1423 H 0.95779 0.68543 0.3028 0.0
H1424 H 0.99313 0.6875 0.24617 0.0
H1425 H 0.89225 0.69731 0.14428 0.0
H1426 H 0.78405 0.70254 0.12776 0.0
H1427 H 0.89674 0.74592 0.19796 0.0
H1428 H 0.91739 0.74107 0.29312 0.0
H1429 H 0.76844 0.65856 0.22321 0.0
H1430 H 0.62009 0.676 0.26535 0.0
C1431 C 0.57843 0.56339 0.20494 0.0
C1432 C 0.62965 0.55632 0.206 0.0
C1433 C 0.63326 0.55105 0.2341 0.0
C1434 C 0.58487 0.55534 0.24887 0.0
N1435 N 0.55067 0.56294 0.23174 0.0
Co1436 Co 0.47974 0.5722 0.24531 0.0
N1437 N 0.50154 0.57026 0.28829 0.0
C1438 C 0.54359 0.5625 0.29921 0.0
C1439 C 0.55217 0.56394 0.32946 0.0
C1440 C 0.51239 0.573 0.33834 0.0
C1441 C 0.48078 0.57643 0.31297 0.0
N1442 N 0.40796 0.5811 0.25896 0.0
C1443 C 0.39139 0.58507 0.28679 0.0
C1444 C 0.33533 0.58986 0.28639 0.0
C1445 C 0.31603 0.58875 0.25739 0.0
C1446 C 0.36113 0.58333 0.24172 0.0
N1447 N 0.46066 0.57473 0.20217 0.0
C1448 C 0.40861 0.57802 0.19107 0.0
C1449 C 0.40896 0.57939 0.16037 0.0
C1450 C 0.46481 0.57683 0.15167 0.0
C1451 C 0.49551 0.57405 0.17761 0.0
N1452 N 0.43535 0.55521 0.24606 0.0
C1453 C 0.35169 0.53461 0.24737 0.0
C1454 C 0.37771 0.53864 0.22036 0.0
C1455 C 0.4198 0.54872 0.22023 0.0
C1456 C 0.37186 0.54048 0.27374 0.0
C1457 C 0.41334 0.55054 0.27261 0.0
N1458 N 0.52135 0.58918 0.24462 0.0
C1459 C 0.52142 0.61237 0.23364 0.0
C1460 C 0.57755 0.61379 0.24501 0.0
C1461 C 0.60513 0.60255 0.25597 0.0
C1462 C 0.5764 0.59041 0.25565 0.0
C1463 C 0.49441 0.60008 0.23352 0.0
H1464 H 0.59879 0.58203 0.2645 0.0
H1465 H 0.45138 0.59946 0.22447 0.0
H1466 H 0.43852 0.55135 0.19893 0.0
H1467 H 0.42645 0.55461 0.29356 0.0
C1468 C 0.57887 0.55534 0.27998 0.0
C1469 C 0.55677 0.57008 0.178 0.0
C1470 C 0.42568 0.5836 0.31439 0.0
C1471 C 0.36353 0.58151 0.21051 0.0
H1472 H 0.66202 0.55529 0.18867 0.0
H1473 H 0.66927 0.54565 0.24338 0.0
H1474 H 0.58431 0.55918 0.34331 0.0
H1475 H 0.506 0.57634 0.36115 0.0
H1476 H 0.31077 0.59361 0.30518 0.0
H1477 H 0.2744 0.59174 0.2487 0.0
H1478 H 0.37347 0.58237 0.1461 0.0
H1479 H 0.48113 0.57699 0.1289 0.0
H1480 H 0.36505 0.53415 0.19936 0.0
H1481 H 0.35465 0.53749 0.29529 0.0
H1482 H 0.49849 0.62075 0.22481 0.0
H1483 H 0.6486 0.60316 0.26486 0.0
C1484 C 0.24615 0.45544 0.9283 0.0
C1485 C 0.21561 0.45256 0.90236 0.0
C1486 C 0.15981 0.44994 0.91103 0.0
C1487 C 0.15933 0.45136 0.94171 0.0
N1488 N 0.21123 0.45476 0.95283 0.0
Co1489 Co 0.23015 0.45737 0.99598 0.0
N1490 N 0.15839 0.44848 0.00963 0.0
C1491 C 0.11164 0.44619 0.99237 0.0
C1492 C 0.06653 0.44077 0.00805 0.0
C1493 C 0.08574 0.43974 0.03707 0.0
C1494 C 0.14177 0.44455 0.03747 0.0
N1495 N 0.25192 0.45935 0.03895 0.0
C1496 C 0.23113 0.4532 0.06364 0.0
C1497 C 0.26274 0.45663 0.08901 0.0
C1498 C 0.30261 0.46567 0.08012 0.0
C1499 C 0.29406 0.46709 0.04987 0.0
N1500 N 0.30108 0.46664 0.98241 0.0
C1501 C 0.33523 0.47427 0.99953 0.0
C1502 C 0.38364 0.47854 0.98478 0.0
C1503 C 0.3801 0.47326 0.95669 0.0
C1504 C 0.32889 0.46618 0.95564 0.0
N1505 N 0.18559 0.47437 0.99664 0.0
C1506 C 0.10153 0.4949 0.99815 0.0
C1507 C 0.12363 0.48939 0.0245 0.0
C1508 C 0.16517 0.47933 0.02327 0.0
C1509 C 0.12575 0.49054 0.97097 0.0
C1510 C 0.16823 0.48056 0.97074 0.0
N1511 N 0.27184 0.44041 0.99541 0.0
C1512 C 0.35556 0.42706 0.007 0.0
C1513 C 0.32802 0.41581 0.99608 0.0
C1514 C 0.27198 0.4172 0.98461 0.0
C1515 C 0.24496 0.42949 0.98437 0.0
C1516 C 0.32685 0.43921 0.00652 0.0
H1517 H 0.20196 0.43008 0.97527 0.0
H1518 H 0.34921 0.4476 0.01532 0.0
H1519 H 0.17952 0.47554 0.04429 0.0
H1520 H 0.18577 0.47779 0.94927 0.0
C1521 C 0.11417 0.44791 0.96113 0.0
C1522 C 0.30733 0.45946 0.92871 0.0
C1523 C 0.17602 0.44606 0.06506 0.0
C1524 C 0.32929 0.47426 0.03064 0.0
H1525 H 0.23201 0.45238 0.8796 0.0
H1526 H 0.12443 0.4469 0.89676 0.0
H1527 H 0.02498 0.43774 0.99935 0.0
H1528 H 0.06117 0.436 0.05588 0.0
H1529 H 0.25628 0.45331 0.11183 0.0
H1530 H 0.33475 0.47043 0.09398 0.0
H1531 H 0.41964 0.48395 0.99406 0.0
H1532 H 0.41255 0.47427 0.9394 0.0
H1533 H 0.10777 0.49262 0.04614 0.0
H1534 H 0.11156 0.49475 0.94992 0.0
H1535 H 0.39898 0.42647 0.01596 0.0
H1536 H 0.24911 0.40881 0.97579 0.0
C1537 C 0.52113 0.3244 0.92823 0.0
C1538 C 0.55141 0.32722 0.90216 0.0
C1539 C 0.60736 0.3298 0.91063 0.0
C1540 C 0.60819 0.32842 0.94132 0.0
N1541 N 0.55637 0.32508 0.95264 0.0
Co1542 Co 0.53793 0.32254 0.99586 0.0
N1543 N 0.60996 0.33141 0.00921 0.0
C1544 C 0.65651 0.33366 0.99177 0.0
C1545 C 0.70184 0.33909 0.00726 0.0
C1546 C 0.683 0.34017 0.03634 0.0
C1547 C 0.62696 0.33537 0.03697 0.0
N1548 N 0.51665 0.32063 0.03891 0.0
C1549 C 0.53791 0.32677 0.06351 0.0
C1550 C 0.50672 0.32335 0.08902 0.0
C1551 C 0.46658 0.31434 0.08031 0.0
C1552 C 0.4746 0.31292 0.05001 0.0
N1553 N 0.46672 0.3133 0.98258 0.0
C1554 C 0.43267 0.30572 -0.00015 0.0
C1555 C 0.38395 0.30149 0.98529 0.0
C1556 C 0.38719 0.30676 0.95718 0.0
C1557 C 0.43854 0.31377 0.9559 0.0
N1558 N 0.58228 0.3055 0.99651 0.0
C1559 C 0.66596 0.28489 0.99791 0.0
C1560 C 0.6443 0.29047 0.02429 0.0
C1561 C 0.60296 0.30057 0.02311 0.0
C1562 C 0.64149 0.28923 0.97077 0.0
C1563 C 0.59921 0.29925 0.9706 0.0
N1564 N 0.49643 0.33953 0.99532 0.0
C1565 C 0.41297 0.35293 0.00709 0.0
C1566 C 0.44048 0.36416 0.99603 0.0
C1567 C 0.49639 0.36272 0.98438 0.0
C1568 C 0.52328 0.35042 0.98412 0.0
C1569 C 0.44156 0.34077 0.0066 0.0
H1570 H 0.56616 0.34979 0.97488 0.0
H1571 H 0.41923 0.3324 0.01553 0.0
H1572 H 0.58902 0.30443 0.04416 0.0
H1573 H 0.58147 0.30202 0.94917 0.0
C1574 C 0.65361 0.33188 0.96056 0.0
C1575 C 0.45986 0.32046 0.92887 0.0
C1576 C 0.59315 0.33387 0.0647 0.0
C1577 C 0.43902 0.30575 0.03094 0.0
H1578 H 0.53472 0.32739 0.87947 0.0
H1579 H 0.6426 0.3328 0.89622 0.0
H1580 H 0.7433 0.3421 0.9984 0.0
H1581 H 0.70781 0.34393 0.05504 0.0
H1582 H 0.51369 0.32665 0.11182 0.0
H1583 H 0.43465 0.30959 0.09431 0.0
H1584 H 0.34797 0.29613 0.99473 0.0
H1585 H 0.35447 0.30578 0.94002 0.0
H1586 H 0.66038 0.28727 0.0459 0.0
H1587 H 0.65533 0.28497 0.94972 0.0
H1588 H 0.36966 0.35355 0.01619 0.0
H1589 H 0.51923 0.37109 0.97545 0.0
C1590 C 0.24581 0.32463 0.82404 0.0
C1591 C 0.2152 0.32756 0.84994 0.0
C1592 C 0.15949 0.33023 0.84119 0.0
C1593 C 0.15913 0.32877 0.81051 0.0
N1594 N 0.21102 0.32531 0.79946 0.0
Co1595 Co 0.23017 0.32268 0.75633 0.0
N1596 N 0.15843 0.33155 0.74257 0.0
C1597 C 0.11164 0.33388 0.75979 0.0
C1598 C 0.06656 0.33927 0.74403 0.0
C1599 C 0.08582 0.34024 0.71501 0.0
C1600 C 0.14185 0.33543 0.71468 0.0
N1601 N 0.25225 0.32071 0.71339 0.0
C1602 C 0.23141 0.32681 0.68865 0.0
C1603 C 0.2632 0.3234 0.66332 0.0
C1604 C 0.30329 0.31443 0.67229 0.0
C1605 C 0.29465 0.31303 0.70255 0.0
N1606 N 0.30105 0.31342 0.77002 0.0
C1607 C 0.3354 0.30582 0.75295 0.0
C1608 C 0.38368 0.30153 0.76779 0.0
C1609 C 0.37987 0.30679 0.79589 0.0
C1610 C 0.32864 0.31386 0.79686 0.0
N1611 N 0.18562 0.30564 0.75559 0.0
C1612 C 0.10181 0.28502 0.75363 0.0
C1613 C 0.12544 0.29034 0.72741 0.0
C1614 C 0.16674 0.30045 0.72886 0.0
C1615 C 0.1244 0.28962 0.78097 0.0
C1616 C 0.16681 0.29962 0.78145 0.0
N1617 N 0.27181 0.33967 0.75695 0.0
C1618 C 0.35556 0.35303 0.74547 0.0
C1619 C 0.32794 0.36429 0.75632 0.0
C1620 C 0.27184 0.36288 0.76772 0.0
C1621 C 0.24484 0.35059 0.76793 0.0
C1622 C 0.32689 0.34088 0.74593 0.0
H1623 H 0.20179 0.34999 0.77695 0.0
H1624 H 0.34936 0.33249 0.7372 0.0
H1625 H 0.18212 0.30408 0.70787 0.0
H1626 H 0.18314 0.30252 0.80307 0.0
C1627 C 0.11407 0.33222 0.79103 0.0
C1628 C 0.30695 0.32059 0.82374 0.0
C1629 C 0.17617 0.33388 0.68714 0.0
C1630 C 0.32978 0.30586 0.72183 0.0
H1631 H 0.2315 0.32776 0.87271 0.0
H1632 H 0.12409 0.33331 0.8554 0.0
H1633 H 0.025 0.34232 0.75268 0.0
H1634 H 0.06131 0.34395 0.69615 0.0
H1635 H 0.25667 0.32668 0.64048 0.0
H1636 H 0.33556 0.30969 0.65849 0.0
H1637 H 0.41978 0.29614 0.75857 0.0
H1638 H 0.41218 0.30577 0.81325 0.0
H1639 H 0.11091 0.28692 0.70567 0.0
H1640 H 0.10907 0.28558 0.80197 0.0
H1641 H 0.39903 0.35363 0.73657 0.0
H1642 H 0.24889 0.37127 0.77648 0.0
C1643 C 0.52137 0.45576 0.824 0.0
C1644 C 0.55192 0.45297 0.85 0.0
C1645 C 0.60785 0.45044 0.8414 0.0
C1646 C 0.60841 0.45183 0.8107 0.0
N1647 N 0.55642 0.45511 0.79952 0.0
Co1648 Co 0.53757 0.45766 0.75635 0.0
N1649 N 0.60949 0.44879 0.74282 0.0
C1650 C 0.65622 0.44656 0.76014 0.0
C1651 C 0.70139 0.44112 0.74454 0.0
C1652 C 0.68224 0.44001 0.71552 0.0
C1653 C 0.62621 0.44482 0.71503 0.0
N1654 N 0.51598 0.45961 0.71335 0.0
C1655 C 0.53712 0.45351 0.68867 0.0
C1656 C 0.50596 0.45702 0.66321 0.0
C1657 C 0.46593 0.46603 0.67206 0.0
C1658 C 0.47401 0.46737 0.70237 0.0
N1659 N 0.46645 0.46687 0.76982 0.0
C1660 C 0.43229 0.47447 0.75267 0.0
C1661 C 0.38367 0.47868 0.76734 0.0
C1662 C 0.38711 0.47337 0.79541 0.0
C1663 C 0.43846 0.46636 0.79655 0.0
N1664 N 0.58185 0.47469 0.75566 0.0
C1665 C 0.66538 0.49533 0.75434 0.0
C1666 C 0.64469 0.48956 0.72795 0.0
C1667 C 0.60337 0.47946 0.72909 0.0
C1668 C 0.63989 0.49118 0.78139 0.0
C1669 C 0.59783 0.4811 0.78152 0.0
N1670 N 0.49612 0.44065 0.75694 0.0
C1671 C 0.41267 0.42722 0.74527 0.0
C1672 C 0.44026 0.41599 0.75631 0.0
C1673 C 0.49621 0.41745 0.76789 0.0
C1674 C 0.52306 0.42976 0.76811 0.0
C1675 C 0.44122 0.43939 0.74572 0.0
H1676 H 0.56598 0.43041 0.7773 0.0
H1677 H 0.41883 0.44776 0.73681 0.0
H1678 H 0.5901 0.47546 0.70808 0.0
H1679 H 0.57949 0.4784 0.80287 0.0
C1680 C 0.65365 0.44837 0.79135 0.0
C1681 C 0.46004 0.45965 0.8235 0.0
C1682 C 0.59217 0.44634 0.68737 0.0
C1683 C 0.43853 0.4745 0.72157 0.0
H1684 H 0.53543 0.45278 0.87273 0.0
H1685 H 0.64326 0.44746 0.85572 0.0
H1686 H 0.74295 0.43812 0.75329 0.0
H1687 H 0.70688 0.43626 0.69676 0.0
H1688 H 0.51285 0.45377 0.64036 0.0
H1689 H 0.43404 0.47083 0.65814 0.0
H1690 H 0.34764 0.48406 0.75801 0.0
H1691 H 0.35452 0.47434 0.81265 0.0
H1692 H 0.66145 0.49264 0.70638 0.0
H1693 H 0.65292 0.49559 0.80242 0.0
H1694 H 0.36932 0.42659 0.73623 0.0
H1695 H 0.51914 0.40909 0.77679 0.0
C1696 C 0.15537 0.05882 0.11306 0.0
C1697 C 0.17215 0.0707 0.0992 0.0
C1698 C 0.11434 0.08266 0.13676 0.0
C1699 C 0.09247 0.07067 0.14808 0.0
N1700 N 0.08051 0.04752 0.14067 0.0
N1701 N 0.16127 0.09402 0.09549 0.0
C1702 C 0.10925 0.05881 0.13413 0.0
C1703 C 0.14985 0.08267 0.11042 0.0
N1704 N 0.18414 0.04755 0.10648 0.0
N1705 N 0.10251 0.09401 0.15158 0.0
H1706 H 0.18762 0.09441 0.07651 0.0
H1707 H 0.1412 0.10283 0.10061 0.0
H1708 H 0.07613 0.09439 0.17055 0.0
H1709 H 0.12218 0.10286 0.14634 0.0
H1710 H 0.17686 0.03883 0.11791 0.0
H1711 H 0.21915 0.04726 0.09172 0.0
H1712 H 0.08781 0.03881 0.12919 0.0
H1713 H 0.0455 0.04722 0.15543 0.0
C1714 C 0.1516 0.19702 0.13779 0.0
C1715 C 0.17447 0.20896 0.1489 0.0
C1716 C 0.11228 0.22095 0.11383 0.0
C1717 C 0.09486 0.20911 0.10001 0.0
N1718 N 0.10378 0.18574 0.09671 0.0
N1719 N 0.18767 0.23207 0.14143 0.0
C1720 C 0.11614 0.19708 0.11143 0.0
C1721 C 0.15837 0.22085 0.13491 0.0
N1722 N 0.16237 0.18568 0.15284 0.0
N1723 N 0.08407 0.2323 0.10723 0.0
H1724 H 0.22261 0.23229 0.15624 0.0
H1725 H 0.18087 0.24079 0.12992 0.0
H1726 H 0.04901 0.23266 0.09251 0.0
H1727 H 0.09183 0.24101 0.11863 0.0
H1728 H 0.14184 0.17691 0.1478 0.0
H1729 H 0.18867 0.18525 0.17184 0.0
H1730 H 0.12298 0.17685 0.10206 0.0
H1731 H 0.07749 0.18539 0.0777 0.0
C1732 C 0.90201 0.94725 0.86048 0.0
C1733 C 0.92412 0.95924 0.84929 0.0
C1734 C 0.86121 0.97108 0.8843 0.0
C1735 C 0.84439 0.95919 0.89812 0.0
N1736 N 0.85489 0.93586 0.90163 0.0
N1737 N 0.9362 0.98238 0.85682 0.0
C1738 C 0.8665 0.94722 0.88681 0.0
C1739 C 0.90738 0.9711 0.86327 0.0
N1740 N 0.91359 0.93592 0.84553 0.0
N1741 N 0.83245 0.98236 0.8909 0.0
H1742 H 0.97126 0.98268 0.84209 0.0
H1743 H 0.92891 0.99108 0.86832 0.0
H1744 H 0.79738 0.98263 0.90562 0.0
H1745 H 0.83979 0.99108 0.8795 0.0
H1746 H 0.8937 0.92708 0.85067 0.0
H1747 H 0.93992 0.93555 0.82653 0.0
H1748 H 0.87477 0.92703 0.89641 0.0
H1749 H 0.82853 0.93545 0.92061 0.0
C1750 C 0.85939 0.80897 0.86291 0.0
C1751 C 0.84308 0.82088 0.84902 0.0
C1752 C 0.90087 0.83275 0.88671 0.0
C1753 C 0.92246 0.82073 0.89799 0.0
N1754 N 0.93382 0.79756 0.89057 0.0
N1755 N 0.85445 0.84419 0.84542 0.0
C1756 C 0.90541 0.80889 0.88403 0.0
C1757 C 0.86554 0.83282 0.86032 0.0
N1758 N 0.83032 0.79774 0.85629 0.0
N1759 N 0.91279 0.84407 0.90162 0.0
H1760 H 0.82823 0.84462 0.82639 0.0
H1761 H 0.87463 0.85298 0.85062 0.0
H1762 H 0.93902 0.84441 0.92065 0.0
H1763 H 0.89327 0.85294 0.8964 0.0
H1764 H 0.83729 0.78901 0.86772 0.0
H1765 H 0.79537 0.79751 0.84148 0.0
H1766 H 0.92632 0.78887 0.87907 0.0
H1767 H 0.96878 0.79721 0.90535 0.0
C1768 C 0.1554 0.55924 0.61466 0.0
C1769 C 0.17256 0.57109 0.60075 0.0
C1770 C 0.11542 0.58317 0.6384 0.0
C1771 C 0.09292 0.57122 0.64964 0.0
N1772 N 0.08031 0.54808 0.64239 0.0
N1773 N 0.16297 0.59444 0.59721 0.0
C1774 C 0.10932 0.55932 0.63575 0.0
C1775 C 0.15092 0.58311 0.61205 0.0
N1776 N 0.18383 0.54792 0.60812 0.0
N1777 N 0.10424 0.59453 0.65331 0.0
H1778 H 0.1893 0.59478 0.57821 0.0
H1779 H 0.14349 0.60331 0.60244 0.0
H1780 H 0.07787 0.59496 0.67228 0.0
H1781 H 0.12447 0.60333 0.64818 0.0
H1782 H 0.1763 0.53922 0.61959 0.0
H1783 H 0.21885 0.54757 0.59338 0.0
H1784 H 0.08731 0.53935 0.63095 0.0
H1785 H 0.04538 0.54784 0.65721 0.0
C1786 C 0.11493 0.69757 0.61136 0.0
C1787 C 0.09277 0.70952 0.59995 0.0
C1788 C 0.15493 0.7215 0.63509 0.0
C1789 C 0.17169 0.70966 0.64914 0.0
N1790 N 0.1618 0.68632 0.65278 0.0
N1791 N 0.08035 0.73268 0.60704 0.0
C1792 C 0.15007 0.69764 0.63783 0.0
C1793 C 0.10915 0.72143 0.61383 0.0
N1794 N 0.10374 0.6862 0.5965 0.0
N1795 N 0.18341 0.73281 0.64168 0.0
H1796 H 0.0456 0.73292 0.59212 0.0
H1797 H 0.08732 0.74142 0.61845 0.0
H1798 H 0.21821 0.73315 0.65657 0.0
H1799 H 0.17616 0.7415 0.63014 0.0
H1800 H 0.12372 0.67739 0.60178 0.0
H1801 H 0.07761 0.68577 0.57744 0.0
H1802 H 0.1423 0.67745 0.64753 0.0
H1803 H 0.18791 0.68597 0.67185 0.0
C1804 C 0.90585 0.47095 0.36507 0.0
C1805 C 0.9228 0.45906 0.35133 0.0
C1806 C 0.86566 0.44713 0.38919 0.0
C1807 C 0.84334 0.45912 0.40028 0.0
N1808 N 0.83087 0.48224 0.39261 0.0
N1809 N 0.91285 0.4357 0.34811 0.0
C1810 C 0.8598 0.47096 0.38617 0.0
C1811 C 0.90103 0.44708 0.36281 0.0
N1812 N 0.9344 0.48224 0.35835 0.0
N1813 N 0.85443 0.43581 0.40429 0.0
H1814 H 0.93909 0.43529 0.32909 0.0
H1815 H 0.89325 0.42686 0.35348 0.0
H1816 H 0.82818 0.43546 0.42331 0.0
H1817 H 0.87453 0.42699 0.39924 0.0
H1818 H 0.92698 0.49098 0.36968 0.0
H1819 H 0.96941 0.48252 0.34358 0.0
H1820 H 0.83794 0.49093 0.38102 0.0
H1821 H 0.79593 0.48254 0.40741 0.0
C1822 C 0.86664 0.33259 0.3626 0.0
C1823 C 0.8449 0.32057 0.35139 0.0
C1824 C 0.90789 0.30882 0.38651 0.0
C1825 C 0.92428 0.32073 0.40036 0.0
N1826 N 0.91323 0.34405 0.40382 0.0
N1827 N 0.83341 0.29741 0.35888 0.0
C1828 C 0.90198 0.33267 0.389 0.0
C1829 C 0.86188 0.30873 0.36539 0.0
N1830 N 0.85485 0.3439 0.34763 0.0
N1831 N 0.9369 0.29758 0.39318 0.0
H1832 H 0.79847 0.29706 0.34409 0.0
H1833 H 0.84086 0.28872 0.3704 0.0
H1834 H 0.97185 0.29735 0.40798 0.0
H1835 H 0.92988 0.28884 0.38177 0.0
H1836 H 0.87449 0.35276 0.35279 0.0
H1837 H 0.8286 0.34423 0.3286 0.0
H1838 H 0.89319 0.35285 0.39855 0.0
H1839 H 0.93946 0.34449 0.42284 0.0
C1840 C 0.65815 0.05896 0.61342 0.0
C1841 C 0.67469 0.07087 0.59959 0.0
C1842 C 0.61733 0.08277 0.63743 0.0
C1843 C 0.59556 0.07075 0.6487 0.0
N1844 N 0.58378 0.0476 0.64125 0.0
N1845 N 0.66394 0.0942 0.59617 0.0
C1846 C 0.61232 0.05891 0.63467 0.0
C1847 C 0.65258 0.08282 0.611 0.0
N1848 N 0.68689 0.0477 0.60664 0.0
N1849 N 0.60565 0.09409 0.65239 0.0
H1850 H 0.69013 0.09462 0.57713 0.0
H1851 H 0.64403 0.10301 0.60144 0.0
H1852 H 0.57947 0.09444 0.67144 0.0
H1853 H 0.62528 0.10295 0.64718 0.0
H1854 H 0.67983 0.03897 0.61804 0.0
H1855 H 0.72168 0.04745 0.59174 0.0
H1856 H 0.59101 0.03891 0.62971 0.0
H1857 H 0.54897 0.04727 0.65613 0.0
C1858 C 0.61738 0.19733 0.61133 0.0
C1859 C 0.59563 0.20934 0.60005 0.0
C1860 C 0.65836 0.22113 0.63525 0.0
C1861 C 0.67483 0.20923 0.64912 0.0
N1862 N 0.66396 0.18591 0.65261 0.0
N1863 N 0.58392 0.23249 0.60749 0.0
C1864 C 0.65266 0.19728 0.63775 0.0
C1865 C 0.61247 0.22119 0.61405 0.0
N1866 N 0.60564 0.186 0.5964 0.0
N1867 N 0.68716 0.23239 0.64198 0.0
H1868 H 0.54903 0.23283 0.59266 0.0
H1869 H 0.59122 0.24119 0.61901 0.0
H1870 H 0.72199 0.23264 0.65686 0.0
H1871 H 0.68012 0.24112 0.63057 0.0
H1872 H 0.62525 0.17714 0.60162 0.0
H1873 H 0.57944 0.18565 0.57736 0.0
H1874 H 0.64398 0.1771 0.64737 0.0
H1875 H 0.6902 0.18549 0.67164 0.0
C1876 C 0.36499 0.94713 0.38657 0.0
C1877 C 0.34308 0.95913 0.39787 0.0
C1878 C 0.40571 0.97097 0.36275 0.0
C1879 C 0.42227 0.95909 0.34881 0.0
N1880 N 0.41154 0.93576 0.34521 0.0
N1881 N 0.33107 0.98227 0.39048 0.0
C1882 C 0.4002 0.94711 0.36013 0.0
C1883 C 0.35975 0.97099 0.3839 0.0
N1884 N 0.35349 0.93579 0.4015 0.0
N1885 N 0.43449 0.98224 0.35613 0.0
H1886 H 0.29616 0.98258 0.40531 0.0
H1887 H 0.33831 0.99098 0.379 0.0
H1888 H 0.46941 0.98252 0.34131 0.0
H1889 H 0.42733 0.99096 0.36759 0.0
H1890 H 0.37325 0.92696 0.39627 0.0
H1891 H 0.32735 0.93542 0.42057 0.0
H1892 H 0.39165 0.92694 0.35045 0.0
H1893 H 0.43768 0.93536 0.32615 0.0
C1894 C 0.40068 0.83271 0.3866 0.0
C1895 C 0.42286 0.82073 0.39787 0.0
C1896 C 0.36016 0.80884 0.36286 0.0
C1897 C 0.3433 0.8207 0.34896 0.0
N1898 N 0.3536 0.84403 0.34535 0.0
N1899 N 0.43513 0.79759 0.39049 0.0
C1900 C 0.36526 0.83269 0.36024 0.0
C1901 C 0.40626 0.80886 0.38393 0.0
N1902 N 0.41213 0.84406 0.40151 0.0
N1903 N 0.33151 0.79754 0.35631 0.0
H1904 H 0.47013 0.79732 0.40525 0.0
H1905 H 0.42796 0.78887 0.37902 0.0
H1906 H 0.29648 0.79723 0.34156 0.0
H1907 H 0.33888 0.78883 0.36775 0.0
H1908 H 0.39219 0.85288 0.39631 0.0
H1909 H 0.43842 0.84446 0.42051 0.0
H1910 H 0.37336 0.85288 0.35056 0.0
H1911 H 0.32732 0.84441 0.32634 0.0
C1912 C 0.6509 0.58234 0.1122 0.0
C1913 C 0.67251 0.57034 0.10077 0.0
C1914 C 0.60967 0.55851 0.13583 0.0
C1915 C 0.59329 0.57039 0.14984 0.0
N1916 N 0.60449 0.59369 0.15363 0.0
N1917 N 0.68408 0.54717 0.10799 0.0
C1918 C 0.61563 0.58235 0.13862 0.0
C1919 C 0.65559 0.55848 0.11465 0.0
N1920 N 0.66278 0.5937 0.09742 0.0
N1921 N 0.58077 0.54725 0.14244 0.0
H1922 H 0.71899 0.54686 0.09317 0.0
H1923 H 0.6767 0.53845 0.11941 0.0
H1924 H 0.54593 0.54698 0.1573 0.0
H1925 H 0.58776 0.53854 0.13093 0.0
H1926 H 0.64331 0.60255 0.10276 0.0
H1927 H 0.68897 0.59408 0.07837 0.0
H1928 H 0.62462 0.6025 0.1485 0.0
H1929 H 0.57827 0.59409 0.17266 0.0
C1930 C 0.65061 0.69679 0.13799 0.0
C1931 C 0.67201 0.7088 0.14944 0.0
C1932 C 0.60834 0.72059 0.1147 0.0
C1933 C 0.59213 0.70871 0.10065 0.0
N1934 N 0.60415 0.68543 0.09657 0.0
N1935 N 0.6828 0.732 0.14235 0.0
C1936 C 0.61503 0.69676 0.11167 0.0
C1937 C 0.65454 0.72066 0.13572 0.0
N1938 N 0.66299 0.68543 0.15264 0.0
N1939 N 0.57906 0.73181 0.10826 0.0
H1940 H 0.71793 0.73234 0.15702 0.0
H1941 H 0.67501 0.74072 0.13101 0.0
H1942 H 0.54405 0.73205 0.0935 0.0
H1943 H 0.58593 0.74052 0.11982 0.0
H1944 H 0.64372 0.67655 0.14727 0.0
H1945 H 0.68938 0.68506 0.17161 0.0
H1946 H 0.62469 0.67665 0.10153 0.0
H1947 H 0.57776 0.68502 0.07761 0.0
C1948 C 0.40635 0.47113 0.86554 0.0
C1949 C 0.42334 0.45928 0.8516 0.0
C1950 C 0.36624 0.44722 0.88927 0.0
C1951 C 0.34388 0.45918 0.90055 0.0
N1952 N 0.33128 0.48231 0.89322 0.0
N1953 N 0.41343 0.43594 0.84799 0.0
C1954 C 0.36028 0.47107 0.88663 0.0
C1955 C 0.4016 0.44727 0.86289 0.0
N1956 N 0.43486 0.48244 0.85899 0.0
N1957 N 0.35502 0.43586 0.90418 0.0
H1958 H 0.43968 0.43558 0.82897 0.0
H1959 H 0.39383 0.42708 0.85322 0.0
H1960 H 0.32876 0.43544 0.92319 0.0
H1961 H 0.37512 0.42706 0.89899 0.0
H1962 H 0.42739 0.49115 0.87047 0.0
H1963 H 0.46986 0.48278 0.84423 0.0
H1964 H 0.33833 0.49104 0.88177 0.0
H1965 H 0.29631 0.48256 0.90801 0.0
C1966 C 0.36581 0.33285 0.86316 0.0
C1967 C 0.34339 0.32089 0.85193 0.0
C1968 C 0.40581 0.30896 0.88699 0.0
C1969 C 0.42293 0.32081 0.90085 0.0
N1970 N 0.41306 0.34416 0.90438 0.0
N1971 N 0.33062 0.29777 0.85938 0.0
C1972 C 0.4012 0.33282 0.88953 0.0
C1973 C 0.35971 0.30901 0.86592 0.0
N1974 N 0.35465 0.3442 0.8482 0.0
N1975 N 0.43426 0.29764 0.89356 0.0
H1976 H 0.29566 0.29753 0.84459 0.0
H1977 H 0.3376 0.28906 0.87088 0.0
H1978 H 0.4693 0.29731 0.90829 0.0
H1979 H 0.42669 0.28893 0.88214 0.0
H1980 H 0.3748 0.35301 0.85335 0.0
H1981 H 0.32837 0.34462 0.82919 0.0
H1982 H 0.39348 0.35302 0.89913 0.0
H1983 H 0.43929 0.34453 0.92341 0.0
C1984 C 0.5212 0.02835 0.99393 0.0
C1985 C 0.4633 0.02464 0.00104 0.0
C1986 C 0.49529 1.00147 0.00316 0.0
C1987 C 0.55322 1.00519 0.99612 0.0
N1988 N 0.62277 0.02231 0.98859 0.0
N1989 N 0.39376 1.00753 0.00876 0.0
C1990 C 0.56631 0.01867 0.99226 0.0
C1991 C 0.4502 1.01115 0.00493 0.0
N1992 N 0.53288 0.04119 0.98824 0.0
N1993 N 0.48356 0.98861 0.00866 0.0
H1994 H 0.36002 1.01424 0.0103 0.0
H1995 H 0.37922 0.99793 0.00864 0.0
H1996 H 0.51379 0.98119 0.00544 0.0
H1997 H 0.44493 0.98521 0.01766 0.0
H1998 H 0.57147 0.04456 0.97914 0.0
H1999 H 0.50262 0.04862 0.99134 0.0
H2000 H 0.63723 0.03191 0.98884 0.0
H2001 H 0.65656 0.01561 0.98713 0.0
C2002 C 0.77221 0.27846 0.00516 0.0
C2003 C 0.71399 0.27467 0.99907 0.0
C2004 C 0.7457 0.2515 0.99924 0.0
C2005 C 0.80444 0.25534 0.00332 0.0
N2006 N 0.87439 0.27266 0.00612 0.0
N2007 N 0.64642 0.25756 0.98734 0.0
C2008 C 0.81774 0.26888 0.00534 0.0
C2009 C 0.70125 0.26117 0.99517 0.0
N2010 N 0.78408 0.29127 0.01105 0.0
N2011 N 0.73199 0.23853 0.00045 0.0
H2012 H 0.61228 0.26417 0.98582 0.0
H2013 H 0.63529 0.24819 0.98047 0.0
H2014 H 0.76289 0.23123 0.00346 0.0
H2015 H 0.68986 0.23499 0.00093 0.0
H2016 H 0.82348 0.29453 0.01947 0.0
H2017 H 0.75329 0.29866 0.00921 0.0
H2018 H 0.88797 0.28229 0.00411 0.0
H2019 H 0.90855 0.26602 0.00656 0.0
C2020 C 0.45331 0.2682 0.24263 0.0
C2021 C 0.46509 0.25482 0.2488 0.0
C2022 C 0.56803 0.2607 0.25776 0.0
C2023 C 0.55545 0.27418 0.25347 0.0
N2024 N 0.48384 0.29092 0.24611 0.0
N2025 N 0.53307 0.23853 0.26543 0.0
C2026 C 0.49742 0.27794 0.24694 0.0
C2027 C 0.52231 0.25117 0.2574 0.0
N2028 N 0.39973 0.27166 0.23245 0.0
N2029 N 0.62436 0.2569 0.26083 0.0
H2030 H 0.50246 0.23111 0.26349 0.0
H2031 H 0.57118 0.23549 0.2757 0.0
H2032 H 0.65867 0.2635 0.26129 0.0
H2033 H 0.6378 0.24721 0.26062 0.0
H2034 H 0.38995 0.28083 0.22381 0.0
H2035 H 0.36552 0.26507 0.2308 0.0
H2036 H 0.4418 0.29447 0.24472 0.0
H2037 H 0.51438 0.29827 0.24937 0.0
C2038 C 0.69991 0.01866 0.25433 0.0
C2039 C 0.71232 1.00518 0.24982 0.0
C2040 C 0.81593 1.01095 0.24282 0.0
C2041 C 0.8029 0.02449 0.24546 0.0
N2042 N 0.73077 0.04132 0.24956 0.0
N2043 N 0.78179 0.98863 0.23661 0.0
C2044 C 0.74435 0.02833 0.2502 0.0
C2045 C 0.77027 1.00141 0.24306 0.0
N2046 N 0.64541 0.02226 0.26278 0.0
N2047 N 0.87249 1.00715 0.24141 0.0
H2048 H 0.751 0.98124 0.23851 0.0
H2049 H 0.82084 0.9854 0.2277 0.0
H2050 H 0.90674 1.01376 0.24095 0.0
H2051 H 0.886 0.99748 0.24294 0.0
H2052 H 0.63467 0.03159 0.27013 0.0
H2053 H 0.61119 0.01567 0.26432 0.0
H2054 H 0.68867 0.04488 0.24959 0.0
H2055 H 0.76164 0.04862 0.24651 0.0
C2056 C 0.24481 0.75128 0.99131 0.0
C2057 C 0.30167 0.75483 0.00075 0.0
C2058 C 0.26933 0.77793 0.00342 0.0
C2059 C 0.21155 0.77426 0.99608 0.0
N2060 N 0.14292 0.75705 0.98714 0.0
N2061 N 0.36635 0.7715 0.01869 0.0
C2062 C 0.19912 0.76082 0.99096 0.0
C2063 C 0.31321 0.76815 0.00774 0.0
N2064 N 0.23433 0.73872 0.9825 0.0
N2065 N 0.28297 0.7909 0.00497 0.0
H2066 H 0.40052 0.7649 0.02033 0.0
H2067 H 0.37574 0.78058 0.02795 0.0
H2068 H 0.25265 0.79829 0.00166 0.0
H2069 H 0.32497 0.79442 0.007 0.0
H2070 H 0.19668 0.73581 0.97162 0.0
H2071 H 0.26479 0.73127 0.98444 0.0
H2072 H 0.12949 0.74737 0.98671 0.0
H2073 H 0.10862 0.76365 0.98674 0.0
C2074 C 0.56438 0.76163 0.75455 0.0
C2075 C 0.55194 0.77513 0.75041 0.0
C2076 C 0.44816 0.76941 0.7439 0.0
C2077 C 0.46119 0.75587 0.74616 0.0
N2078 N 0.53331 0.739 0.74944 0.0
N2079 N 0.48231 0.79175 0.73793 0.0
C2080 C 0.51981 0.75199 0.75047 0.0
C2081 C 0.49388 0.77895 0.74406 0.0
N2082 N 0.61903 0.75798 0.76263 0.0
N2083 N 0.3916 0.77324 0.74291 0.0
H2084 H 0.51321 0.79912 0.73976 0.0
H2085 H 0.44308 0.79502 0.72932 0.0
H2086 H 0.35731 0.76664 0.74251 0.0
H2087 H 0.37818 0.7829 0.74473 0.0
H2088 H 0.62987 0.74862 0.7697 0.0
H2089 H 0.6533 0.76456 0.76415 0.0
H2090 H 0.57539 0.73543 0.74914 0.0
H2091 H 0.50234 0.73172 0.74639 0.0
C2092 C 0.27342 1.00143 0.74408 0.0
C2093 C 0.21537 1.00522 0.75059 0.0
C2094 C 0.24732 0.02838 0.75061 0.0
C2095 C 0.30592 0.02452 0.7461 0.0
N2096 N 0.37563 1.00719 0.74255 0.0
N2097 N 0.14823 0.02233 0.76297 0.0
C2098 C 0.31904 1.01098 0.74377 0.0
C2099 C 0.20286 0.01871 0.75478 0.0
N2100 N 0.28505 0.98862 0.73796 0.0
N2101 N 0.23373 0.04136 0.74973 0.0
H2102 H 0.11403 0.01574 0.76454 0.0
H2103 H 0.13735 0.03169 0.77009 0.0
H2104 H 0.26464 0.04865 0.74668 0.0
H2105 H 0.19164 0.04492 0.74958 0.0
H2106 H 0.32421 0.98537 0.72924 0.0
H2107 H 0.25427 0.98124 0.73993 0.0
H2108 H 0.38918 0.99754 0.74431 0.0
H2109 H 0.40984 1.01381 0.74199 0.0
C2110 C 0.56595 0.51883 0.49466 0.0
C2111 C 0.55339 0.50537 0.49931 0.0
C2112 C 0.44992 0.51124 0.50655 0.0
C2113 C 0.46313 0.52476 0.50376 0.0
N2114 N 0.53547 0.54152 0.4993 0.0
N2115 N 0.48379 0.48889 0.51284 0.0
C2116 C 0.52168 0.52855 0.49882 0.0
C2117 C 0.49544 0.50165 0.50627 0.0
N2118 N 0.62042 0.52238 0.48603 0.0
N2119 N 0.39332 0.50747 0.50815 0.0
H2120 H 0.51444 0.48148 0.51091 0.0
H2121 H 0.44478 0.48571 0.52189 0.0
H2122 H 0.35919 0.51412 0.50865 0.0
H2123 H 0.37965 0.49782 0.50674 0.0
H2124 H 0.63122 0.53168 0.47856 0.0
H2125 H 0.65453 0.51576 0.48447 0.0
H2126 H 0.57762 0.54506 0.49912 0.0
H2127 H 0.50475 0.54885 0.50238 0.0
C2128 C 0.70077 0.76123 0.49265 0.0
C2129 C 0.71321 0.77472 0.49707 0.0
C2130 C 0.81677 0.76893 0.50425 0.0
C2131 C 0.80369 0.7554 0.5017 0.0
N2132 N 0.73153 0.73857 0.49759 0.0
N2133 N 0.78269 0.79128 0.51021 0.0
C2134 C 0.74516 0.75156 0.49689 0.0
C2135 C 0.77115 0.77849 0.50387 0.0
N2136 N 0.64628 0.75763 0.48417 0.0
N2137 N 0.87334 0.77273 0.50572 0.0
H2138 H 0.75195 0.79867 0.5082 0.0
H2139 H 0.82172 0.79451 0.51914 0.0
H2140 H 0.90754 0.76611 0.50629 0.0
H2141 H 0.88691 0.78238 0.50413 0.0
H2142 H 0.63553 0.74829 0.47688 0.0
H2143 H 0.6121 0.76422 0.48255 0.0
H2144 H 0.68943 0.73501 0.49753 0.0
H2145 H 0.76237 0.73127 0.50071 0.0
C2146 C 0.74512 0.52878 0.75531 0.0
C2147 C 0.80306 0.52508 0.74827 0.0
C2148 C 0.77127 0.5019 0.74634 0.0
C2149 C 0.71328 0.5056 0.75328 0.0
N2150 N 0.64357 0.52271 0.76057 0.0
N2151 N 0.87276 0.508 0.74071 0.0
C2152 C 0.70007 0.51909 0.757 0.0
C2153 C 0.81629 0.51159 0.7445 0.0
N2154 N 0.73334 0.54163 0.76091 0.0
N2155 N 0.78312 0.48903 0.741 0.0
H2156 H 0.90643 0.51472 0.73909 0.0
H2157 H 0.8874 0.49841 0.7409 0.0
H2158 H 0.75292 0.48161 0.74425 0.0
H2159 H 0.82184 0.48562 0.73212 0.0
H2160 H 0.69467 0.54499 0.76996 0.0
H2161 H 0.76358 0.54906 0.75785 0.0
H2162 H 0.62905 0.53231 0.76019 0.0
H2163 H 0.60983 0.516 0.76207 0.0
C2164 C 0.27328 0.27869 0.50511 0.0
C2165 C 0.21511 0.2749 0.4989 0.0
C2166 C 0.24695 0.25174 0.49896 0.0
C2167 C 0.30565 0.25558 0.50317 0.0
N2168 N 0.37548 0.27292 0.50621 0.0
N2169 N 0.1477 0.25778 0.48696 0.0
C2170 C 0.31886 0.26913 0.5053 0.0
C2171 C 0.20247 0.2614 0.49489 0.0
N2172 N 0.28507 0.2915 0.51108 0.0
N2173 N 0.23331 0.23876 0.50005 0.0
H2174 H 0.11351 0.26438 0.48548 0.0
H2175 H 0.13667 0.24842 0.47999 0.0
H2176 H 0.26422 0.23147 0.50306 0.0
H2177 H 0.1912 0.23521 0.50043 0.0
H2178 H 0.32439 0.29476 0.51959 0.0
H2179 H 0.25428 0.29889 0.50919 0.0
H2180 H 0.38904 0.28256 0.50429 0.0
H2181 H 0.40968 0.26629 0.50666 0.0
C2182 C 0.2002 0.51852 0.25571 0.0
C2183 C 0.21364 0.50498 0.25338 0.0
C2184 C 0.31718 0.51083 0.24605 0.0
C2185 C 0.30374 0.52437 0.2484 0.0
N2186 N 0.23328 0.54111 0.25825 0.0
N2187 N 0.28414 0.48823 0.24368 0.0
C2188 C 0.24536 0.52818 0.25399 0.0
C2189 C 0.27203 0.50117 0.24782 0.0
N2190 N 0.14352 0.52218 0.25803 0.0
N2191 N 0.37386 0.50718 0.24363 0.0
H2192 H 0.2536 0.48087 0.24681 0.0
H2193 H 0.32347 0.4847 0.23586 0.0
H2194 H 0.40763 0.51389 0.242 0.0
H2195 H 0.38844 0.49761 0.245 0.0
H2196 H 0.129 0.53176 0.2566 0.0
H2197 H 0.10972 0.51548 0.25961 0.0
H2198 H 0.19397 0.54463 0.26614 0.0
H2199 H 0.26384 0.54848 0.2552 0.0
C2200 C 0.99608 1.00172 0.50401 0.0
C2201 C 0.0541 1.00544 0.49723 0.0
C2202 C 0.02254 0.02863 0.49702 0.0
C2203 C 0.96393 0.02484 0.50179 0.0
N2204 N 0.89399 1.00756 0.50579 0.0
N2205 N 0.12133 0.02246 0.48434 0.0
C2206 C 0.95062 1.01131 0.50435 0.0
C2207 C 0.06677 0.01891 0.4928 0.0
N2208 N 0.98432 0.98894 0.51038 0.0
N2209 N 0.03639 0.04159 0.49772 0.0
H2210 H 0.1554 0.01584 0.48273 0.0
H2211 H 0.13225 0.03179 0.47704 0.0
H2212 H 1.00568 0.04892 0.50083 0.0
H2213 H 0.07856 0.04512 0.49768 0.0
H2214 H 0.94522 0.98575 0.5193 0.0
H2215 H 0.01495 0.98153 0.50842 0.0
H2216 H 0.88027 0.99792 0.5042 0.0
H2217 H 0.85988 1.01421 0.50632 0.0
C2218 C 0.95077 0.26888 0.74359 0.0
C2219 C 0.96362 0.25539 0.74745 0.0
C2220 C 0.06592 0.26137 0.75784 0.0
C2221 C 0.05384 0.27479 0.75212 0.0
N2222 N 0.98525 0.29112 0.73643 0.0
N2223 N 0.03551 0.23866 0.75406 0.0
C2224 C 0.99637 0.27844 0.74399 0.0
C2225 C 0.02181 0.25163 0.75357 0.0
N2226 N 0.89433 0.27265 0.74089 0.0
N2227 N 0.11979 0.2579 0.76756 0.0
H2228 H 1.00494 0.2313 0.75087 0.0
H2229 H 0.0776 0.23511 0.75513 0.0
H2230 H 0.15396 0.2645 0.76915 0.0
H2231 H 0.12994 0.24869 0.77586 0.0
H2232 H 0.88073 0.28232 0.74145 0.0
H2233 H 0.86012 0.26603 0.74037 0.0
H2234 H 0.94688 0.2942 0.7265 0.0
H2235 H 0.01578 0.29855 0.73847 0.0
C2236 C 0.99475 0.77819 0.24412 0.0
C2237 C 0.05292 0.77446 0.2505 0.0
C2238 C 0.02141 0.75127 0.25057 0.0
C2239 C 0.9627 0.75506 0.24618 0.0
N2240 N 0.89264 0.77234 0.24282 0.0
N2241 N 0.12047 0.75741 0.26276 0.0
C2242 C 0.94931 0.76859 0.2439 0.0
C2243 C 0.06572 0.76098 0.25466 0.0
N2244 N 0.98283 0.79098 0.23801 0.0
N2245 N 0.03526 0.7383 0.24964 0.0
H2246 H 0.15455 0.76404 0.26427 0.0
H2247 H 0.13157 0.74807 0.26984 0.0
H2248 H 1.00448 0.73098 0.24662 0.0
H2249 H 0.07743 0.73478 0.24939 0.0
H2250 H 0.94353 0.7942 0.22937 0.0
H2251 H 0.01348 0.7984 0.23991 0.0
H2252 H 0.87893 0.78197 0.24463 0.0
H2253 H 0.85855 0.76568 0.24236 0.0
C2254 C 0.06576 0.51857 0.99526 0.0
C2255 C 0.05333 0.50507 0.99937 0.0
C2256 C 0.94955 0.51078 0.0059 0.0
C2257 C 0.96257 0.52432 0.00367 0.0
N2258 N 0.03468 0.54119 0.00042 0.0
N2259 N 0.98371 0.48843 0.0118 0.0
C2260 C 0.02119 0.52821 0.99937 0.0
C2261 C 0.99527 0.50124 0.00571 0.0
N2262 N 0.12041 0.52222 0.98719 0.0
N2263 N 0.89299 0.50694 0.00689 0.0
H2264 H 0.01462 0.48107 0.00996 0.0
H2265 H 0.94448 0.48516 0.0204 0.0
H2266 H 0.8587 0.51355 0.00731 0.0
H2267 H 0.87957 0.49729 0.00504 0.0
H2268 H 0.13126 0.53159 0.98015 0.0
H2269 H 0.15467 0.51565 0.98564 0.0
H2270 H 0.07676 0.54477 0.00073 0.0
H2271 H 1.0037 0.54847 0.00349 0.0
C2272 C 0.38451 0.07334 0.88987 0.0
C2273 C 0.37239 0.08502 0.90536 0.0
C2274 C 0.39636 0.09705 0.85915 0.0
C2275 C 0.39816 0.08503 0.84322 0.0
N2276 N 0.36738 0.06261 0.84293 0.0
N2277 N 0.36193 0.1084 0.90384 0.0
C2278 C 0.38366 0.07342 0.85842 0.0
C2279 C 0.37686 0.09708 0.88975 0.0
N2280 N 0.39772 0.06225 0.90513 0.0
N2281 N 0.41368 0.10825 0.84534 0.0
H2282 H 0.34929 0.10862 0.92633 0.0
H2283 H 0.35925 0.11733 0.89278 0.0
H2284 H 0.42623 0.10845 0.82283 0.0
H2285 H 0.41836 0.11709 0.85663 0.0
H2286 H 0.40833 0.05354 0.89429 0.0
H2287 H 0.40713 0.0626 0.92797 0.0
H2288 H 0.35496 0.05398 0.85356 0.0
H2289 H 0.35697 0.06324 0.82024 0.0
C2290 C 0.89408 0.18266 0.89012 0.0
C2291 C 0.89588 0.19466 0.90611 0.0
C2292 C 0.88382 0.20639 0.85945 0.0
C2293 C 0.87162 0.19476 0.8438 0.0
N2294 N 0.8602 0.1714 0.84518 0.0
N2295 N 0.86531 0.2171 0.90626 0.0
C2296 C 0.87523 0.18268 0.8594 0.0
C2297 C 0.88184 0.20628 0.89087 0.0
N2298 N 0.91082 0.17142 0.90399 0.0
N2299 N 0.89862 0.21743 0.84442 0.0
H2300 H 0.85415 0.21645 0.92886 0.0
H2301 H 0.85345 0.22575 0.89554 0.0
H2302 H 0.90983 0.217 0.8218 0.0
H2303 H 0.90913 0.2261 0.85542 0.0
H2304 H 0.91545 0.16258 0.89268 0.0
H2305 H 0.92286 0.1712 0.92657 0.0
H2306 H 0.85697 0.16246 0.8562 0.0
H2307 H 0.84807 0.17122 0.82261 0.0
C2308 C 0.38288 0.20649 0.3905 0.0
C2309 C 0.3983 0.19493 0.40569 0.0
C2310 C 0.37794 0.18279 0.35919 0.0
C2311 C 0.3724 0.19483 0.34357 0.0
N2312 N 0.39507 0.21774 0.34374 0.0
N2313 N 0.4157 0.17178 0.40359 0.0
C2314 C 0.38343 0.20657 0.35904 0.0
C2315 C 0.39746 0.18291 0.38977 0.0
N2316 N 0.3659 0.21724 0.40604 0.0
N2317 N 0.3639 0.17141 0.34513 0.0
H2318 H 0.42824 0.17164 0.4261 0.0
H2319 H 0.42114 0.16296 0.3923 0.0
H2320 H 0.35115 0.17112 0.32266 0.0
H2321 H 0.362 0.16246 0.3562 0.0
H2322 H 0.35268 0.22582 0.39544 0.0
H2323 H 0.35578 0.21659 0.42876 0.0
H2324 H 0.40504 0.2265 0.35451 0.0
H2325 H 0.40362 0.21749 0.3208 0.0
C2326 C 0.87503 0.0974 0.38915 0.0
C2327 C 0.87307 0.08548 0.40542 0.0
C2328 C 0.88453 0.07353 0.35902 0.0
C2329 C 0.89687 0.08508 0.34306 0.0
N2330 N 0.90892 0.10842 0.3439 0.0
N2331 N 0.90327 0.06302 0.40604 0.0
C2332 C 0.89368 0.09723 0.3584 0.0
C2333 C 0.88682 0.07378 0.39043 0.0
N2334 N 0.85865 0.10872 0.40279 0.0
N2335 N 0.86919 0.06245 0.34431 0.0
H2336 H 0.9145 0.06376 0.42862 0.0
H2337 H 0.9149 0.05431 0.3955 0.0
H2338 H 0.85746 0.06281 0.32177 0.0
H2339 H 0.85864 0.05384 0.35557 0.0
H2340 H 0.85414 0.11752 0.3913 0.0
H2341 H 0.84679 0.10905 0.42539 0.0
H2342 H 0.91243 0.1174 0.35472 0.0
H2343 H 0.92095 0.1085 0.32132 0.0
C2344 C 0.64204 0.93279 0.10787 0.0
C2345 C 0.64474 0.94477 0.09188 0.0
C2346 C 0.63104 0.95659 0.13839 0.0
C2347 C 0.61852 0.94494 0.15394 0.0
N2348 N 0.60682 0.92159 0.15257 0.0
N2349 N 0.6161 0.96734 0.09122 0.0
C2350 C 0.62241 0.93285 0.13842 0.0
C2351 C 0.63079 0.95646 0.10692 0.0
N2352 N 0.65874 0.92151 0.09414 0.0
N2353 N 0.6443 0.96769 0.15362 0.0
H2354 H 0.60717 0.96678 0.06834 0.0
H2355 H 0.60389 0.97603 0.10166 0.0
H2356 H 0.65312 0.96739 0.17653 0.0
H2357 H 0.65547 0.97636 0.1428 0.0
H2358 H 0.66282 0.91267 0.10548 0.0
H2359 H 0.67138 0.92124 0.07165 0.0
H2360 H 0.60366 0.91265 0.14157 0.0
H2361 H 0.59405 0.92142 0.17505 0.0
C2362 C 0.12228 0.84686 0.10831 0.0
C2363 C 0.11961 0.83482 0.09252 0.0
C2364 C 0.13242 0.82317 0.13931 0.0
C2365 C 0.14515 0.83485 0.15467 0.0
N2366 N 0.15729 0.85818 0.15291 0.0
N2367 N 0.14838 0.81226 0.09244 0.0
C2368 C 0.14162 0.84689 0.13892 0.0
C2369 C 0.1332 0.82319 0.10785 0.0
N2370 N 0.10589 0.85811 0.09434 0.0
N2371 N 0.11872 0.81214 0.15469 0.0
H2372 H 0.15837 0.81278 0.06968 0.0
H2373 H 0.16023 0.8036 0.10313 0.0
H2374 H 0.10964 0.81253 0.17757 0.0
H2375 H 0.10751 0.80345 0.14398 0.0
H2376 H 0.10185 0.86699 0.10551 0.0
H2377 H 0.09345 0.8583 0.07181 0.0
H2378 H 0.16072 0.86708 0.14175 0.0
H2379 H 0.1698 0.85841 0.17542 0.0
C2380 C 0.64259 0.84722 0.63864 0.0
C2381 C 0.64553 0.83523 0.65459 0.0
C2382 C 0.63226 0.82342 0.60802 0.0
C2383 C 0.61946 0.83507 0.59251 0.0
N2384 N 0.60725 0.8584 0.59393 0.0
N2385 N 0.61776 0.81261 0.65516 0.0
C2386 C 0.62305 0.84715 0.60807 0.0
C2387 C 0.63199 0.82353 0.63949 0.0
N2388 N 0.65899 0.85851 0.6524 0.0
N2389 N 0.6458 0.81235 0.59275 0.0
H2390 H 0.609 0.81311 0.67806 0.0
H2391 H 0.60579 0.80391 0.64469 0.0
H2392 H 0.65456 0.81267 0.56983 0.0
H2393 H 0.65721 0.80369 0.60353 0.0
H2394 H 0.66289 0.86737 0.64109 0.0
H2395 H 0.6716 0.85878 0.6749 0.0
H2396 H 0.60385 0.86733 0.60495 0.0
H2397 H 0.59458 0.85856 0.57144 0.0
C2398 C 0.1352 0.95674 0.60848 0.0
C2399 C 0.14772 0.94509 0.59295 0.0
C2400 C 0.12457 0.93295 0.63909 0.0
C2401 C 0.12189 0.94495 0.65505 0.0
N2402 N 0.15003 0.96755 0.65561 0.0
N2403 N 0.15954 0.92174 0.59435 0.0
C2404 C 0.13559 0.95664 0.63995 0.0
C2405 C 0.14399 0.93301 0.60851 0.0
N2406 N 0.12173 0.96782 0.59323 0.0
N2407 N 0.10803 0.92168 0.65288 0.0
H2408 H 0.17213 0.92157 0.57185 0.0
H2409 H 0.16281 0.91281 0.60537 0.0
H2410 H 0.09552 0.92142 0.67539 0.0
H2411 H 0.10393 0.91283 0.64157 0.0
H2412 H 0.11052 0.9765 0.60403 0.0
H2413 H 0.11281 0.96751 0.57033 0.0
H2414 H 0.16211 0.97624 0.64512 0.0
H2415 H 0.15875 0.96705 0.67851 0.0
C2416 C 0.37414 0.5972 0.39065 0.0
C2417 C 0.3724 0.58527 0.40694 0.0
C2418 C 0.38545 0.57332 0.36062 0.0
C2419 C 0.39738 0.5849 0.34471 0.0
N2420 N 0.4082 0.60828 0.34554 0.0
N2421 N 0.40326 0.56286 0.40782 0.0
C2422 C 0.39329 0.59705 0.36 0.0
C2423 C 0.38685 0.57359 0.39205 0.0
N2424 N 0.35705 0.60848 0.4042 0.0
N2425 N 0.37157 0.56216 0.3458 0.0
H2426 H 0.41378 0.56362 0.43048 0.0
H2427 H 0.41556 0.55417 0.3974 0.0
H2428 H 0.36116 0.56242 0.32307 0.0
H2429 H 0.36114 0.55352 0.35697 0.0
H2430 H 0.35233 0.61726 0.39267 0.0
H2431 H 0.34482 0.6088 0.42675 0.0
H2432 H 0.4111 0.61728 0.35634 0.0
H2433 H 0.42064 0.60838 0.32301 0.0
C2434 C 0.87479 0.68241 0.35906 0.0
C2435 C 0.87259 0.69437 0.34294 0.0
C2436 C 0.88425 0.70622 0.38945 0.0
C2437 C 0.8968 0.69465 0.40525 0.0
N2438 N 0.90906 0.67131 0.40412 0.0
N2439 N 0.90256 0.71685 0.34252 0.0
C2440 C 0.89364 0.68253 0.38978 0.0
C2441 C 0.88634 0.70604 0.35804 0.0
N2442 N 0.85842 0.67111 0.34532 0.0
N2443 N 0.86885 0.71726 0.40432 0.0
H2444 H 0.91367 0.71616 0.31992 0.0
H2445 H 0.91415 0.72554 0.35315 0.0
H2446 H 0.85727 0.71684 0.42688 0.0
H2447 H 0.85812 0.72588 0.39319 0.0
H2448 H 0.8541 0.66229 0.35672 0.0
H2449 H 0.8464 0.67082 0.32274 0.0
H2450 H 0.9126 0.66235 0.39321 0.0
H2451 H 0.9212 0.67119 0.4267 0.0
C2452 C 0.38253 0.70676 0.89074 0.0
C2453 C 0.39325 0.69496 0.90605 0.0
C2454 C 0.3678 0.68319 0.85972 0.0
C2455 C 0.36729 0.69524 0.84394 0.0
N2456 N 0.40011 0.71752 0.84387 0.0
N2457 N 0.40105 0.67153 0.90421 0.0
C2458 C 0.38294 0.70675 0.85927 0.0
C2459 C 0.38733 0.68297 0.89029 0.0
N2460 N 0.37146 0.71792 0.90621 0.0
N2461 N 0.34926 0.67211 0.84576 0.0
H2462 H 0.4138 0.67117 0.92667 0.0
H2463 H 0.40269 0.66261 0.89303 0.0
H2464 H 0.33668 0.67203 0.82325 0.0
H2465 H 0.34356 0.66328 0.85695 0.0
H2466 H 0.36167 0.72672 0.89557 0.0
H2467 H 0.3633 0.71764 0.92919 0.0
H2468 H 0.41356 0.72606 0.85455 0.0
H2469 H 0.41017 0.71691 0.82113 0.0
C2470 C 0.88213 0.57356 0.85926 0.0
C2471 C 0.8941 0.5853 0.84404 0.0
C2472 C 0.87072 0.5971 0.89065 0.0
C2473 C 0.86911 0.58501 0.90627 0.0
N2474 N 0.89998 0.56259 0.90583 0.0
N2475 N 0.90465 0.60867 0.84616 0.0
C2476 C 0.88345 0.57348 0.8907 0.0
C2477 C 0.88986 0.59729 0.86 0.0
N2478 N 0.8686 0.56255 0.84376 0.0
N2479 N 0.85355 0.60824 0.90482 0.0
H2480 H 0.91698 0.609 0.82363 0.0
H2481 H 0.90748 0.61755 0.85745 0.0
H2482 H 0.84125 0.60832 0.92737 0.0
H2483 H 0.84876 0.61713 0.89377 0.0
H2484 H 0.85811 0.55379 0.8544 0.0
H2485 H 0.85882 0.56302 0.82097 0.0
H2486 H 0.91222 0.55401 0.89491 0.0
H2487 H 0.91081 0.56311 0.92848 0.0
C2488 C 0.64316 0.43309 0.61081 0.0
C2489 C 0.64677 0.44513 0.59508 0.0
C2490 C 0.63442 0.4568 0.64189 0.0
C2491 C 0.62087 0.44515 0.65717 0.0
N2492 N 0.60729 0.42186 0.65533 0.0
N2493 N 0.6205 0.46785 0.595 0.0
C2494 C 0.6237 0.43311 0.64139 0.0
C2495 C 0.63402 0.45681 0.61042 0.0
N2496 N 0.65889 0.4218 0.59682 0.0
N2497 N 0.64898 0.46775 0.65737 0.0
H2498 H 0.6117 0.46746 0.57209 0.0
H2499 H 0.60915 0.47654 0.60567 0.0
H2500 H 0.65817 0.46728 0.68022 0.0
H2501 H 0.66091 0.47642 0.64674 0.0
H2502 H 0.66228 0.4129 0.60797 0.0
H2503 H 0.67151 0.42157 0.57433 0.0
H2504 H 0.60332 0.41298 0.64415 0.0
H2505 H 0.59474 0.42166 0.67784 0.0
C2506 C 0.12388 0.34716 0.61081 0.0
C2507 C 0.12165 0.33517 0.59478 0.0
C2508 C 0.13575 0.32335 0.64126 0.0
C2509 C 0.1478 0.33502 0.65684 0.0
N2510 N 0.15856 0.35839 0.65556 0.0
N2511 N 0.15069 0.31263 0.59403 0.0
C2512 C 0.14344 0.34711 0.64137 0.0
C2513 C 0.13588 0.32349 0.60978 0.0
N2514 N 0.10678 0.35841 0.59711 0.0
N2515 N 0.12313 0.31221 0.65648 0.0
H2516 H 0.15929 0.31318 0.57112 0.0
H2517 H 0.16322 0.30396 0.60443 0.0
H2518 H 0.11466 0.31246 0.67943 0.0
H2519 H 0.11221 0.30352 0.64566 0.0
H2520 H 0.10231 0.36723 0.60848 0.0
H2521 H 0.09418 0.35867 0.57461 0.0
H2522 H 0.16137 0.36735 0.6446 0.0
H2523 H 0.1713 0.35858 0.67804 0.0
C2524 C 0.635 0.32326 0.11004 0.0
C2525 C 0.62218 0.33496 0.09483 0.0
C2526 C 0.64508 0.34688 0.14133 0.0
C2527 C 0.64773 0.3348 0.15697 0.0
N2528 N 0.61882 0.31225 0.15675 0.0
N2529 N 0.61003 0.35829 0.09687 0.0
C2530 C 0.63415 0.3232 0.1415 0.0
C2531 C 0.62572 0.34697 0.11072 0.0
N2532 N 0.6488 0.31227 0.09452 0.0
N2533 N 0.66149 0.35809 0.15543 0.0
H2534 H 0.59754 0.35856 0.07436 0.0
H2535 H 0.60662 0.36717 0.10813 0.0
H2536 H 0.67396 0.35823 0.17795 0.0
H2537 H 0.66552 0.367 0.14436 0.0
H2538 H 0.66002 0.30355 0.10514 0.0
H2539 H 0.65792 0.31272 0.07165 0.0
H2540 H 0.60702 0.30362 0.14594 0.0
H2541 H 0.60863 0.31273 0.17949 0.0
C2542 C 0.13628 0.45622 0.14256 0.0
C2543 C 0.12196 0.44453 0.15747 0.0
C2544 C 0.14341 0.43269 0.11069 0.0
C2545 C 0.14763 0.44482 0.09534 0.0
N2546 N 0.1224 0.4676 0.09609 0.0
N2547 N 0.10693 0.42131 0.15489 0.0
C2548 C 0.13557 0.45644 0.1111 0.0
C2549 C 0.124 0.43259 0.14129 0.0
N2550 N 0.15184 0.46701 0.15836 0.0
N2551 N 0.15849 0.42144 0.09635 0.0
H2552 H 0.09449 0.42101 0.17741 0.0
H2553 H 0.10238 0.41251 0.14342 0.0
H2554 H 0.17113 0.42132 0.07386 0.0
H2555 H 0.16135 0.41247 0.10722 0.0
H2556 H 0.16425 0.4757 0.14797 0.0
H2557 H 0.16131 0.46636 0.18116 0.0
H2558 H 0.11167 0.47625 0.1071 0.0
H2559 H 0.11316 0.46736 0.07323 0.0
C2560 C 0.1172 0.146 0.97691 0.0
C2561 C 0.10698 0.15266 0.00445 0.0
C2562 C 0.14543 0.13356 0.03184 0.0
C2563 C 0.16067 0.12742 0.00429 0.0
N2564 N 0.17002 0.129 0.95052 0.0
N2565 N 0.12096 0.15358 0.05799 0.0
C2566 C 0.14894 0.13398 0.97679 0.0
C2567 C 0.12377 0.14663 0.03187 0.0
N2568 N 0.09474 0.15089 0.95087 0.0
N2569 N 0.14973 0.12672 0.05807 0.0
H2570 H 0.1058 0.16314 0.05888 0.0
H2571 H 0.13845 0.15034 0.07821 0.0
H2572 H 0.16505 0.11717 0.05896 0.0
H2573 H 0.13334 0.13004 0.07846 0.0
H2574 H 0.09508 0.14581 0.93062 0.0
H2575 H 0.07107 0.15954 0.95001 0.0
H2576 H 0.16854 0.13401 0.93019 0.0
H2577 H 0.19374 0.12036 0.94947 0.0
C2578 C 0.14899 0.14565 0.27169 0.0
C2579 C 0.1606 0.15222 0.24418 0.0
C2580 C 0.12311 0.13306 0.2166 0.0
C2581 C 0.10655 0.12702 0.24405 0.0
N2582 N 0.09494 0.12873 0.29767 0.0
N2583 N 0.14938 0.15297 0.19044 0.0
C2584 C 0.11715 0.13365 0.27159 0.0
C2585 C 0.14505 0.14612 0.21664 0.0
N2586 N 0.17025 0.15062 0.29793 0.0
N2587 N 0.11978 0.12615 0.19044 0.0
H2588 H 0.165 0.1625 0.18955 0.0
H2589 H 0.13278 0.14969 0.17006 0.0
H2590 H 0.10433 0.11661 0.18954 0.0
H2591 H 0.13707 0.12939 0.17019 0.0
H2592 H 0.1689 0.1456 0.31825 0.0
H2593 H 0.19394 0.15927 0.29896 0.0
H2594 H 0.09554 0.13379 0.31795 0.0
H2595 H 0.07123 0.12008 0.29856 0.0
C2596 C 0.89859 0.88378 0.02095 0.0
C2597 C 0.90996 0.8772 0.99343 0.0
C2598 C 0.87284 0.89641 0.96592 0.0
C2599 C 0.85644 0.90247 0.99338 0.0
N2600 N 0.84489 0.90074 0.04701 0.0
N2601 N 0.89841 0.87647 0.9397 0.0
C2602 C 0.86697 0.89582 0.02091 0.0
C2603 C 0.89444 0.88333 0.96592 0.0
N2604 N 0.9199 0.8788 0.04717 0.0
N2605 N 0.86967 0.90334 0.93978 0.0
H2606 H 0.91365 0.86692 0.93881 0.0
H2607 H 0.88183 0.87979 0.91935 0.0
H2608 H 0.85445 0.9129 0.93889 0.0
H2609 H 0.88689 0.90008 0.91952 0.0
H2610 H 0.91871 0.88382 0.06749 0.0
H2611 H 0.94351 0.87014 0.04816 0.0
H2612 H 0.84544 0.89567 0.06727 0.0
H2613 H 0.82133 0.90941 0.04793 0.0
C2614 C 0.86819 0.88412 0.72607 0.0
C2615 C 0.85701 0.87751 0.75357 0.0
C2616 C 0.89467 0.89664 0.78115 0.0
C2617 C 0.91081 0.90274 0.75369 0.0
N2618 N 0.92179 0.90109 0.70002 0.0
N2619 N 0.86908 0.87668 0.80725 0.0
C2620 C 0.89993 0.89614 0.72614 0.0
C2621 C 0.87289 0.88358 0.78109 0.0
N2622 N 0.84662 0.87918 0.69987 0.0
N2623 N 0.89825 0.90352 0.80735 0.0
H2624 H 0.85371 0.86713 0.80811 0.0
H2625 H 0.8859 0.87994 0.8276 0.0
H2626 H 0.91364 0.91306 0.80828 0.0
H2627 H 0.88122 0.90024 0.82763 0.0
H2628 H 0.84766 0.88423 0.67958 0.0
H2629 H 0.82299 0.87053 0.69886 0.0
H2630 H 0.92098 0.89606 0.67971 0.0
H2631 H 0.94542 0.90975 0.69911 0.0
C2632 C 0.1179 0.64611 0.47743 0.0
C2633 C 0.10679 0.65277 0.50489 0.0
C2634 C 0.14452 0.63367 0.53258 0.0
C2635 C 0.16065 0.62754 0.50516 0.0
N2636 N 0.17162 0.62913 0.45147 0.0
N2637 N 0.11911 0.65368 0.55856 0.0
C2638 C 0.14971 0.6341 0.47757 0.0
C2639 C 0.12278 0.64674 0.53244 0.0
N2640 N 0.09618 0.65099 0.45122 0.0
N2641 N 0.14801 0.62682 0.55882 0.0
H2642 H 0.10381 0.66323 0.55935 0.0
H2643 H 0.13602 0.65044 0.5789 0.0
H2644 H 0.16326 0.61727 0.55981 0.0
H2645 H 0.13101 0.63013 0.57908 0.0
H2646 H 0.09717 0.64591 0.43097 0.0
H2647 H 0.07245 0.65964 0.45017 0.0
H2648 H 0.17073 0.63414 0.43114 0.0
H2649 H 0.1954 0.6205 0.45061 0.0
C2650 C 0.14725 0.64667 0.7726 0.0
C2651 C 0.15787 0.65332 0.74509 0.0
C2652 C 0.12025 0.63415 0.71759 0.0
C2653 C 0.10463 0.62802 0.74509 0.0
N2654 N 0.09436 0.62964 0.79881 0.0
N2655 N 0.14484 0.65418 0.69147 0.0
C2656 C 0.11576 0.63462 0.77262 0.0
C2657 C 0.14167 0.64725 0.71761 0.0
N2658 N 0.16916 0.65161 0.79873 0.0
N2659 N 0.11653 0.62728 0.69137 0.0
H2660 H 0.15983 0.66375 0.69062 0.0
H2661 H 0.12779 0.6509 0.67118 0.0
H2662 H 0.10144 0.61771 0.69045 0.0
H2663 H 0.1332 0.6306 0.67105 0.0
H2664 H 0.16854 0.64655 0.819 0.0
H2665 H 0.19265 0.66029 0.79968 0.0
H2666 H 0.09536 0.63466 0.81912 0.0
H2667 H 0.07087 0.62096 0.79977 0.0
C2668 C 0.86854 0.39612 0.52354 0.0
C2669 C 0.85685 0.40265 0.49599 0.0
C2670 C 0.89378 0.3834 0.46854 0.0
C2671 C 0.91046 0.37739 0.49601 0.0
N2672 N 0.92245 0.3792 0.54959 0.0
N2673 N 0.86775 0.40328 0.44222 0.0
C2674 C 0.90017 0.38408 0.5235 0.0
C2675 C 0.87209 0.39647 0.46848 0.0
N2676 N 0.84751 0.40115 0.54977 0.0
N2677 N 0.89676 0.37642 0.44244 0.0
H2678 H 0.85238 0.41282 0.44127 0.0
H2679 H 0.88412 0.39994 0.42184 0.0
H2680 H 0.91202 0.36687 0.44161 0.0
H2681 H 0.87935 0.37964 0.4222 0.0
H2682 H 0.84893 0.39617 0.57014 0.0
H2683 H 0.82393 0.40981 0.55076 0.0
H2684 H 0.9221 0.38429 0.56982 0.0
H2685 H 0.94595 0.37052 0.55052 0.0
C2686 C 0.869 0.38356 0.22849 0.0
C2687 C 0.85723 0.37703 0.25604 0.0
C2688 C 0.89378 0.39632 0.28351 0.0
C2689 C 0.91062 0.40231 0.25606 0.0
N2690 N 0.92307 0.40048 0.2025 0.0
N2691 N 0.86795 0.37642 0.30983 0.0
C2692 C 0.90058 0.3956 0.22856 0.0
C2693 C 0.87227 0.38322 0.28355 0.0
N2694 N 0.84807 0.37854 0.20224 0.0
N2695 N 0.89643 0.4033 0.30958 0.0
H2696 H 0.85279 0.36686 0.31076 0.0
H2697 H 0.88418 0.37979 0.33021 0.0
H2698 H 0.91152 0.41287 0.31042 0.0
H2699 H 0.87889 0.40008 0.3298 0.0
H2700 H 0.84959 0.38352 0.18188 0.0
H2701 H 0.82444 0.36988 0.20123 0.0
H2702 H 0.92289 0.39537 0.1823 0.0
H2703 H 0.94658 0.40915 0.2016 0.0
C2704 C 0.65185 0.13437 0.47685 0.0
C2705 C 0.66228 0.12769 0.50435 0.0
C2706 C 0.62429 0.14681 0.53187 0.0
C2707 C 0.60876 0.15296 0.50438 0.0
N2708 N 0.59884 0.15138 0.45063 0.0
N2709 N 0.64881 0.12677 0.55794 0.0
C2710 C 0.62018 0.14639 0.47683 0.0
C2711 C 0.64581 0.13372 0.53183 0.0
N2712 N 0.67405 0.12948 0.45075 0.0
N2713 N 0.6204 0.15365 0.55811 0.0
H2714 H 0.66391 0.1172 0.55879 0.0
H2715 H 0.63154 0.13001 0.57819 0.0
H2716 H 0.60533 0.16322 0.55903 0.0
H2717 H 0.63696 0.15032 0.57845 0.0
H2718 H 0.67355 0.13456 0.43051 0.0
H2719 H 0.69767 0.12082 0.44981 0.0
H2720 H 0.6001 0.14637 0.43029 0.0
H2721 H 0.57515 0.16003 0.44966 0.0
C2722 C 0.61941 0.13384 0.77194 0.0
C2723 C 0.60857 0.12722 0.7444 0.0
C2724 C 0.64621 0.1464 0.71696 0.0
C2725 C 0.66206 0.15249 0.74447 0.0
N2726 N 0.67266 0.15081 0.79816 0.0
N2727 N 0.62123 0.12642 0.69075 0.0
C2728 C 0.65104 0.14587 0.77198 0.0
C2729 C 0.62464 0.13332 0.71693 0.0
N2730 N 0.59761 0.12889 0.79807 0.0
N2731 N 0.64982 0.1533 0.69079 0.0
H2732 H 0.60608 0.11686 0.68985 0.0
H2733 H 0.6382 0.12971 0.67046 0.0
H2734 H 0.665 0.16286 0.68991 0.0
H2735 H 0.633 0.15001 0.67047 0.0
H2736 H 0.59841 0.13393 0.81837 0.0
H2737 H 0.574 0.12022 0.799 0.0
H2738 H 0.67173 0.14577 0.81844 0.0
H2739 H 0.69626 0.15948 0.79914 0.0
C2740 C 0.37204 0.89651 0.46608 0.0
C2741 C 0.3565 0.90263 0.4936 0.0
C2742 C 0.39915 0.88398 0.52107 0.0
C2743 C 0.40973 0.87734 0.49354 0.0
N2744 N 0.39684 0.8765 0.4399 0.0
N2745 N 0.34642 0.90103 0.54733 0.0
C2746 C 0.39355 0.88342 0.46607 0.0
C2747 C 0.3677 0.89604 0.52112 0.0
N2748 N 0.36817 0.90338 0.43988 0.0
N2749 N 0.42101 0.87902 0.54719 0.0
H2750 H 0.32301 0.90972 0.54832 0.0
H2751 H 0.34747 0.89602 0.56765 0.0
H2752 H 0.44439 0.87033 0.5481 0.0
H2753 H 0.42043 0.88407 0.56747 0.0
H2754 H 0.38476 0.90007 0.41952 0.0
H2755 H 0.35297 0.91294 0.43899 0.0
H2756 H 0.37978 0.87977 0.41963 0.0
H2757 H 0.41203 0.86694 0.43901 0.0
C2758 C 0.39751 0.89594 0.22566 0.0
C2759 C 0.40879 0.90255 0.25317 0.0
C2760 C 0.37173 0.88335 0.28074 0.0
C2761 C 0.35548 0.87726 0.25328 0.0
N2762 N 0.34407 0.87893 0.19964 0.0
N2763 N 0.39716 0.90332 0.30689 0.0
C2764 C 0.36602 0.88389 0.22574 0.0
C2765 C 0.39326 0.89644 0.2807 0.0
N2766 N 0.41877 0.90093 0.19944 0.0
N2767 N 0.3685 0.87644 0.30691 0.0
H2768 H 0.41235 0.91288 0.30775 0.0
H2769 H 0.38058 0.90001 0.32725 0.0
H2770 H 0.35332 0.86688 0.30782 0.0
H2771 H 0.38561 0.87972 0.32717 0.0
H2772 H 0.41766 0.8959 0.17912 0.0
H2773 H 0.44221 0.90961 0.19842 0.0
H2774 H 0.34462 0.88398 0.17936 0.0
H2775 H 0.32064 0.87025 0.19875 0.0
C2776 C 0.62016 0.64585 0.03266 0.0
C2777 C 0.60501 0.65202 0.00514 0.0
C2778 C 0.6486 0.63349 0.97764 0.0
C2779 C 0.65881 0.62679 0.00514 0.0
N2780 N 0.64483 0.62581 0.05868 0.0
N2781 N 0.59593 0.65053 0.95134 0.0
C2782 C 0.64195 0.63278 0.0326 0.0
C2783 C 0.61687 0.6455 0.97759 0.0
N2784 N 0.61563 0.65265 0.05893 0.0
N2785 N 0.67108 0.62862 0.95157 0.0
H2786 H 0.5723 0.65919 0.95035 0.0
H2787 H 0.59748 0.64556 0.93097 0.0
H2788 H 0.69472 0.61996 0.95066 0.0
H2789 H 0.67077 0.63372 0.93136 0.0
H2790 H 0.63197 0.64931 0.07931 0.0
H2791 H 0.60013 0.66218 0.05989 0.0
H2792 H 0.62733 0.62901 0.07891 0.0
H2793 H 0.66012 0.61625 0.0595 0.0
C2794 C 0.644 0.64619 0.21742 0.0
C2795 C 0.66085 0.65223 0.24482 0.0
C2796 C 0.61895 0.63357 0.27254 0.0
C2797 C 0.60711 0.62699 0.24506 0.0
N2798 N 0.6179 0.62627 0.19129 0.0
N2799 N 0.67325 0.65048 0.29839 0.0
C2800 C 0.6223 0.63312 0.21749 0.0
C2801 C 0.6507 0.64558 0.27238 0.0
N2802 N 0.64676 0.65313 0.19127 0.0
N2803 N 0.59795 0.6286 0.29884 0.0
H2804 H 0.69695 0.65913 0.29922 0.0
H2805 H 0.67295 0.64541 0.31865 0.0
H2806 H 0.57425 0.61995 0.29992 0.0
H2807 H 0.5995 0.63361 0.31916 0.0
H2808 H 0.62923 0.64988 0.17108 0.0
H2809 H 0.66196 0.66268 0.19035 0.0
H2810 H 0.63424 0.62957 0.17088 0.0
H2811 H 0.60254 0.61672 0.19043 0.0
C2812 C 0.37342 0.39653 0.96876 0.0
C2813 C 0.35755 0.40262 0.99626 0.0
C2814 C 0.40019 0.38398 0.02377 0.0
C2815 C 0.41105 0.37736 0.99623 0.0
N2816 N 0.39857 0.37655 0.94257 0.0
N2817 N 0.34702 0.40098 0.04996 0.0
C2818 C 0.39504 0.38345 0.96875 0.0
C2819 C 0.36859 0.39601 0.02379 0.0
N2820 N 0.36973 0.40342 0.94258 0.0
N2821 N 0.42193 0.37902 0.04991 0.0
H2822 H 0.3235 0.40965 0.05093 0.0
H2823 H 0.34795 0.39594 0.07026 0.0
H2824 H 0.44548 0.37035 0.05085 0.0
H2825 H 0.42112 0.38406 0.07021 0.0
H2826 H 0.38656 0.40013 0.92225 0.0
H2827 H 0.35446 0.41297 0.94169 0.0
H2828 H 0.38163 0.37983 0.92227 0.0
H2829 H 0.41384 0.367 0.94167 0.0
C2830 C 0.39983 0.39616 0.7286 0.0
C2831 C 0.41087 0.40277 0.75613 0.0
C2832 C 0.37345 0.38358 0.78362 0.0
C2833 C 0.35743 0.3775 0.75613 0.0
N2834 N 0.34661 0.37916 0.70245 0.0
N2835 N 0.39883 0.40354 0.80982 0.0
C2836 C 0.36829 0.38412 0.7286 0.0
C2837 C 0.39509 0.39666 0.78363 0.0
N2838 N 0.42136 0.40114 0.70243 0.0
N2839 N 0.36988 0.37668 0.80979 0.0
H2840 H 0.4141 0.41309 0.81072 0.0
H2841 H 0.38206 0.40024 0.83015 0.0
H2842 H 0.35455 0.36713 0.81067 0.0
H2843 H 0.38682 0.37995 0.83009 0.0
H2844 H 0.42042 0.39611 0.68211 0.0
H2845 H 0.44488 0.40981 0.70147 0.0
H2846 H 0.34736 0.3842 0.68216 0.0
H2847 H 0.32319 0.37047 0.7015 0.0
loop_
_geom_bond_atom_site_label_1
_geom_bond_atom_site_label_2
_geom_bond_distance
_geom_bond_site_symmetry_2
_ccdc_geom_bond_type
C0 C1 1.443 . S
C0 N4 1.376 . S
C0 C38 1.389 . S
C1 C0 1.443 . S
C1 C2 1.340 . S
C1 H41 0.951 . S
C2 C1 1.340 . S
C2 C3 1.439 . S
C2 H42 0.950 . S
C3 C2 1.439 . S
C3 N4 1.374 . S
C3 C37 1.395 1_554 S
N4 C0 1.376 . S
N4 C3 1.374 . S
N4 Co5 2.008 . S
Co5 N4 2.008 . S
Co5 N6 1.995 1_554 S
Co5 N11 2.008 1_554 S
Co5 N16 1.995 . S
Co5 N21 2.282 . S
Co5 N27 2.282 . S
N6 Co5 1.995 1_556 S
N6 C7 1.376 . S
N6 C10 1.383 . S
C7 N6 1.376 . S
C7 C8 1.446 . S
C7 C37 1.391 . S
C8 C7 1.446 . S
C8 C9 1.339 . S
C8 H43 0.949 . S
C9 C8 1.339 . S
C9 C10 1.439 . S
C9 H44 0.950 . S
C10 N6 1.383 . S
C10 C9 1.439 . S
C10 C39 1.392 . S
N11 Co5 2.008 1_556 S
N11 C12 1.376 . S
N11 C15 1.374 1_556 S
C12 N11 1.376 . S
C12 C13 1.443 . S
C12 C39 1.389 . S
C13 C12 1.443 . S
C13 C14 1.340 . S
C13 H45 0.951 . S
C14 C13 1.340 . S
C14 C15 1.439 1_556 S
C14 H46 0.950 . S
C15 N11 1.374 1_554 S
C15 C14 1.439 1_554 S
C15 C40 1.395 . S
N16 Co5 1.995 . S
N16 C17 1.376 . S
N16 C20 1.383 . S
C17 N16 1.376 . S
C17 C18 1.446 . S
C17 C40 1.391 . S
C18 C17 1.446 . S
C18 C19 1.339 . S
C18 H47 0.949 . S
C19 C18 1.339 . S
C19 C20 1.439 . S
C19 H48 0.950 . S
C20 N16 1.383 . S
C20 C19 1.439 . S
C20 C38 1.392 . S
N21 Co5 2.282 . S
N21 C24 1.332 . S
N21 C26 1.332 1_554 S
C22 C23 1.386 . S
C22 C25 1.388 1_554 S
C23 C22 1.386 . S
C23 C24 1.382 . S
C23 H49 0.950 . S
C24 N21 1.332 . S
C24 C23 1.382 . S
C24 H35 0.952 . S
C25 C22 1.388 1_556 S
C25 C26 1.382 . S
C25 H50 0.950 . S
C26 N21 1.332 1_556 S
C26 C25 1.382 . S
C26 H36 0.948 . S
N27 Co5 2.282 . S
N27 C31 1.332 1_554 S
N27 C32 1.332 . S
C28 C29 1.388 . S
C28 C32 1.382 . S
C28 H51 0.950 . S
C29 C28 1.388 . S
C29 C30 1.386 1_554 S
C30 C29 1.386 1_556 S
C30 C31 1.382 . S
C30 H52 0.950 . S
C31 N27 1.332 1_556 S
C31 C30 1.382 . S
C31 H33 0.952 . S
C32 N27 1.332 . S
C32 C28 1.382 . S
C32 H34 0.948 . S
H33 C31 0.952 . S
H34 C32 0.948 . S
H35 C24 0.952 . S
H36 C26 0.948 . S
C37 C3 1.395 1_556 S
C37 C7 1.391 . S
C38 C0 1.389 . S
C38 C20 1.392 . S
C39 C10 1.392 . S
C39 C12 1.389 . S
C40 C15 1.395 . S
C40 C17 1.391 . S
H41 C1 0.951 . S
H42 C2 0.950 . S
H43 C8 0.949 . S
H44 C9 0.950 . S
H45 C13 0.951 . S
H46 C14 0.950 . S
H47 C18 0.949 . S
H48 C19 0.950 . S
H49 C23 0.950 . S
H50 C25 0.950 . S
H51 C28 0.950 . S
H52 C30 0.950 . S
C53 C54 1.443 . S
C53 N57 1.376 . S
C53 C91 1.389 . S
C54 C53 1.443 . S
C54 C55 1.340 . S
C54 H94 0.951 . S
C55 C54 1.340 . S
C55 C56 1.439 . S
C55 H95 0.950 . S
C56 C55 1.439 . S
C56 N57 1.374 . S
C56 C90 1.395 1_554 S
N57 C53 1.376 . S
N57 C56 1.374 . S
N57 Co58 2.008 1_455 S
Co58 N57 2.008 1_655 S
Co58 N59 1.995 1_654 S
Co58 N64 2.008 1_554 S
Co58 N69 1.995 . S
Co58 N74 2.282 . S
Co58 N80 2.282 1_655 S
N59 Co58 1.995 1_456 S
N59 C60 1.376 . S
N59 C63 1.383 1_455 S
C60 N59 1.376 . S
C60 C61 1.446 . S
C60 C90 1.391 . S
C61 C60 1.446 . S
C61 C62 1.339 1_455 S
C61 H96 0.949 . S
C62 C61 1.339 1_655 S
C62 C63 1.439 . S
C62 H97 0.950 . S
C63 N59 1.383 1_655 S
C63 C62 1.439 . S
C63 C92 1.392 . S
N64 Co58 2.008 1_556 S
N64 C65 1.376 . S
N64 C68 1.374 1_556 S
C65 N64 1.376 . S
C65 C66 1.443 . S
C65 C92 1.389 . S
C66 C65 1.443 . S
C66 C67 1.340 . S
C66 H98 0.951 . S
C67 C66 1.340 . S
C67 C68 1.439 1_556 S
C67 H99 0.950 . S
C68 N64 1.374 1_554 S
C68 C67 1.439 1_554 S
C68 C93 1.395 . S
N69 Co58 1.995 . S
N69 C70 1.376 . S
N69 C73 1.383 . S
C70 N69 1.376 . S
C70 C71 1.446 . S
C70 C93 1.391 . S
C71 C70 1.446 . S
C71 C72 1.339 . S
C71 H100 0.949 . S
C72 C71 1.339 . S
C72 C73 1.439 . S
C72 H101 0.950 . S
C73 N69 1.383 . S
C73 C72 1.439 . S
C73 C91 1.392 1_655 S
N74 Co58 2.282 . S
N74 C77 1.332 . S
N74 C79 1.332 1_554 S
C75 C76 1.386 . S
C75 C78 1.388 1_554 S
C76 C75 1.386 . S
C76 C77 1.382 . S
C76 H102 0.950 . S
C77 N74 1.332 . S
C77 C76 1.382 . S
C77 H88 0.952 . S
C78 C75 1.388 1_556 S
C78 C79 1.382 . S
C78 H103 0.950 . S
C79 N74 1.332 1_556 S
C79 C78 1.382 . S
C79 H89 0.948 . S
N80 Co58 2.282 1_455 S
N80 C84 1.332 1_554 S
N80 C85 1.332 . S
C81 C82 1.388 . S
C81 C85 1.382 . S
C81 H104 0.950 . S
C82 C81 1.388 . S
C82 C83 1.386 1_554 S
C83 C82 1.386 1_556 S
C83 C84 1.382 . S
C83 H105 0.950 . S
C84 N80 1.332 1_556 S
C84 C83 1.382 . S
C84 H86 0.952 . S
C85 N80 1.332 . S
C85 C81 1.382 . S
C85 H87 0.948 1_455 S
H86 C84 0.952 . S
H87 C85 0.948 1_655 S
H88 C77 0.952 . S
H89 C79 0.948 . S
C90 C56 1.395 1_556 S
C90 C60 1.391 . S
C91 C53 1.389 . S
C91 C73 1.392 1_455 S
C92 C63 1.392 . S
C92 C65 1.389 . S
C93 C68 1.395 . S
C93 C70 1.391 . S
H94 C54 0.951 . S
H95 C55 0.950 . S
H96 C61 0.949 . S
H97 C62 0.950 . S
H98 C66 0.951 . S
H99 C67 0.950 . S
H100 C71 0.949 . S
H101 C72 0.950 . S
H102 C76 0.950 . S
H103 C78 0.950 . S
H104 C81 0.950 . S
H105 C83 0.950 . S
C106 C107 1.443 . S
C106 N110 1.376 . S
C106 C144 1.389 . S
C107 C106 1.443 . S
C107 C108 1.340 . S
C107 H147 0.951 . S
C108 C107 1.340 . S
C108 C109 1.439 . S
C108 H148 0.950 . S
C109 C108 1.439 . S
C109 N110 1.374 . S
C109 C143 1.395 . S
N110 C106 1.376 . S
N110 C109 1.374 . S
N110 Co111 2.008 . S
Co111 N110 2.008 . S
Co111 N112 1.995 . S
Co111 N117 2.008 . S
Co111 N122 1.995 . S
Co111 N127 2.282 . S
Co111 N133 2.282 . S
N112 Co111 1.995 . S
N112 C113 1.376 . S
N112 C116 1.383 . S
C113 N112 1.376 . S
C113 C114 1.446 . S
C113 C143 1.391 . S
C114 C113 1.446 . S
C114 C115 1.339 . S
C114 H149 0.949 . S
C115 C114 1.339 . S
C115 C116 1.439 . S
C115 H150 0.950 . S
C116 N112 1.383 . S
C116 C115 1.439 . S
C116 C145 1.392 . S
N117 Co111 2.008 . S
N117 C118 1.376 . S
N117 C121 1.374 . S
C118 N117 1.376 . S
C118 C119 1.443 . S
C118 C145 1.389 . S
C119 C118 1.443 . S
C119 C120 1.340 . S
C119 H151 0.951 . S
C120 C119 1.340 . S
C120 C121 1.439 . S
C120 H152 0.950 . S
C121 N117 1.374 . S
C121 C120 1.439 . S
C121 C146 1.395 . S
N122 Co111 1.995 . S
N122 C123 1.376 . S
N122 C126 1.383 . S
C123 N122 1.376 . S
C123 C124 1.446 . S
C123 C146 1.391 . S
C124 C123 1.446 . S
C124 C125 1.339 . S
C124 H153 0.949 . S
C125 C124 1.339 . S
C125 C126 1.439 . S
C125 H154 0.950 . S
C126 N122 1.383 . S
C126 C125 1.439 . S
C126 C144 1.392 . S
N127 Co111 2.282 . S
N127 C130 1.332 . S
N127 C132 1.332 . S
C128 C129 1.386 . S
C128 C131 1.388 . S
C129 C128 1.386 . S
C129 C130 1.382 . S
C129 H155 0.950 . S
C130 N127 1.332 . S
C130 C129 1.382 . S
C130 H141 0.952 . S
C131 C128 1.388 . S
C131 C132 1.382 . S
C131 H156 0.950 . S
C132 N127 1.332 . S
C132 C131 1.382 . S
C132 H142 0.948 . S
N133 Co111 2.282 . S
N133 C137 1.332 . S
N133 C138 1.332 . S
C134 C135 1.388 . S
C134 C138 1.382 . S
C134 H157 0.950 . S
C135 C134 1.388 . S
C135 C136 1.386 . S
C136 C135 1.386 . S
C136 C137 1.382 . S
C136 H158 0.950 . S
C137 N133 1.332 . S
C137 C136 1.382 . S
C137 H139 0.952 . S
C138 N133 1.332 . S
C138 C134 1.382 . S
C138 H140 0.948 . S
H139 C137 0.952 . S
H140 C138 0.948 . S
H141 C130 0.952 . S
H142 C132 0.948 . S
C143 C109 1.395 . S
C143 C113 1.391 . S
C144 C106 1.389 . S
C144 C126 1.392 . S
C145 C116 1.392 . S
C145 C118 1.389 . S
C146 C121 1.395 . S
C146 C123 1.391 . S
H147 C107 0.951 . S
H148 C108 0.950 . S
H149 C114 0.949 . S
H150 C115 0.950 . S
H151 C119 0.951 . S
H152 C120 0.950 . S
H153 C124 0.949 . S
H154 C125 0.950 . S
H155 C129 0.950 . S
H156 C131 0.950 . S
H157 C134 0.950 . S
H158 C136 0.950 . S
C159 C160 1.443 . S
C159 N163 1.376 . S
C159 C197 1.389 . S
C160 C159 1.443 . S
C160 C161 1.340 . S
C160 H200 0.951 . S
C161 C160 1.340 . S
C161 C162 1.439 . S
C161 H201 0.950 . S
C162 C161 1.439 . S
C162 N163 1.374 . S
C162 C196 1.395 . S
N163 C159 1.376 . S
N163 C162 1.374 . S
N163 Co164 2.008 1_455 S
Co164 N163 2.008 1_655 S
Co164 N165 1.995 1_655 S
Co164 N170 2.008 . S
Co164 N175 1.995 . S
Co164 N180 2.282 . S
Co164 N186 2.282 1_655 S
N165 Co164 1.995 1_455 S
N165 C166 1.376 . S
N165 C169 1.383 1_455 S
C166 N165 1.376 . S
C166 C167 1.446 . S
C166 C196 1.391 . S
C167 C166 1.446 . S
C167 C168 1.339 1_455 S
C167 H202 0.949 . S
C168 C167 1.339 1_655 S
C168 C169 1.439 . S
C168 H203 0.950 . S
C169 N165 1.383 1_655 S
C169 C168 1.439 . S
C169 C198 1.392 . S
N170 Co164 2.008 . S
N170 C171 1.376 . S
N170 C174 1.374 . S
C171 N170 1.376 . S
C171 C172 1.443 . S
C171 C198 1.389 . S
C172 C171 1.443 . S
C172 C173 1.340 . S
C172 H204 0.951 . S
C173 C172 1.340 . S
C173 C174 1.439 . S
C173 H205 0.950 . S
C174 N170 1.374 . S
C174 C173 1.439 . S
C174 C199 1.395 . S
N175 Co164 1.995 . S
N175 C176 1.376 . S
N175 C179 1.383 . S
C176 N175 1.376 . S
C176 C177 1.446 . S
C176 C199 1.391 . S
C177 C176 1.446 . S
C177 C178 1.339 . S
C177 H206 0.949 . S
C178 C177 1.339 . S
C178 C179 1.439 . S
C178 H207 0.950 . S
C179 N175 1.383 . S
C179 C178 1.439 . S
C179 C197 1.392 1_655 S
N180 Co164 2.282 . S
N180 C183 1.332 . S
N180 C185 1.332 . S
C181 C182 1.386 . S
C181 C184 1.388 . S
C182 C181 1.386 . S
C182 C183 1.382 . S
C182 H208 0.950 . S
C183 N180 1.332 . S
C183 C182 1.382 . S
C183 H194 0.952 . S
C184 C181 1.388 . S
C184 C185 1.382 . S
C184 H209 0.950 . S
C185 N180 1.332 . S
C185 C184 1.382 . S
C185 H195 0.948 . S
N186 Co164 2.282 1_455 S
N186 C190 1.332 . S
N186 C191 1.332 . S
C187 C188 1.388 . S
C187 C191 1.382 . S
C187 H210 0.950 . S
C188 C187 1.388 . S
C188 C189 1.386 . S
C189 C188 1.386 . S
C189 C190 1.382 . S
C189 H211 0.950 . S
C190 N186 1.332 . S
C190 C189 1.382 . S
C190 H192 0.952 . S
C191 N186 1.332 . S
C191 C187 1.382 . S
C191 H193 0.948 1_455 S
H192 C190 0.952 . S
H193 C191 0.948 1_655 S
H194 C183 0.952 . S
H195 C185 0.948 . S
C196 C162 1.395 . S
C196 C166 1.391 . S
C197 C159 1.389 . S
C197 C179 1.392 1_455 S
C198 C169 1.392 . S
C198 C171 1.389 . S
C199 C174 1.395 . S
C199 C176 1.391 . S
H200 C160 0.951 . S
H201 C161 0.950 . S
H202 C167 0.949 . S
H203 C168 0.950 . S
H204 C172 0.951 . S
H205 C173 0.950 . S
H206 C177 0.949 . S
H207 C178 0.950 . S
H208 C182 0.950 . S
H209 C184 0.950 . S
H210 C187 0.950 . S
H211 C189 0.950 . S
C212 C213 1.443 . S
C212 N216 1.376 . S
C212 C250 1.389 . S
C213 C212 1.443 . S
C213 C214 1.340 . S
C213 H253 0.951 . S
C214 C213 1.340 . S
C214 C215 1.439 . S
C214 H254 0.950 . S
C215 C214 1.439 . S
C215 N216 1.374 . S
C215 C249 1.395 . S
N216 C212 1.376 . S
N216 C215 1.374 . S
N216 Co217 2.008 . S
Co217 N216 2.008 . S
Co217 N218 1.995 1_556 S
Co217 N223 2.008 1_556 S
Co217 N228 1.995 . S
Co217 N233 2.282 . S
Co217 N239 2.280 1_556 S
N218 Co217 1.995 1_554 S
N218 C219 1.376 1_554 S
N218 C222 1.383 . S
C219 N218 1.376 1_556 S
C219 C220 1.446 1_556 S
C219 C249 1.391 . S
C220 C219 1.446 1_554 S
C220 C221 1.339 . S
C220 H255 0.949 . S
C221 C220 1.339 . S
C221 C222 1.439 . S
C221 H256 0.950 . S
C222 N218 1.383 . S
C222 C221 1.439 . S
C222 C251 1.392 . S
N223 Co217 2.008 1_554 S
N223 C224 1.376 . S
N223 C227 1.374 . S
C224 N223 1.376 . S
C224 C225 1.443 . S
C224 C251 1.389 . S
C225 C224 1.443 . S
C225 C226 1.340 . S
C225 H257 0.951 . S
C226 C225 1.340 . S
C226 C227 1.439 . S
C226 H258 0.950 . S
C227 N223 1.374 . S
C227 C226 1.439 . S
C227 C252 1.395 . S
N228 Co217 1.995 . S
N228 C229 1.376 . S
N228 C232 1.383 . S
C229 N228 1.376 . S
C229 C230 1.446 . S
C229 C252 1.391 1_556 S
C230 C229 1.446 . S
C230 C231 1.339 . S
C230 H259 0.949 . S
C231 C230 1.339 . S
C231 C232 1.439 . S
C231 H260 0.950 . S
C232 N228 1.383 . S
C232 C231 1.439 . S
C232 C250 1.392 . S
N233 Co217 2.282 . S
N233 C236 1.332 . S
N233 C238 1.332 . S
C234 C235 1.385 1_556 S
C234 C237 1.388 . S
C235 C234 1.385 1_554 S
C235 C236 1.381 1_554 S
C235 H261 0.951 . S
C236 N233 1.332 . S
C236 C235 1.381 1_556 S
C236 H247 0.952 . S
C237 C234 1.388 . S
C237 C238 1.382 . S
C237 H262 0.950 . S
C238 N233 1.332 . S
C238 C237 1.382 . S
C238 H248 0.948 . S
N239 Co217 2.280 1_554 S
N239 C243 1.328 1_554 S
N239 C244 1.334 . S
C240 C241 1.391 . S
C240 C244 1.381 1_556 S
C240 H263 0.949 1_556 S
C241 C240 1.391 . S
C241 C242 1.386 . S
C242 C241 1.386 . S
C242 C243 1.382 . S
C242 H264 0.950 . S
C243 N239 1.328 1_556 S
C243 C242 1.382 . S
C243 H245 0.952 . S
C244 N239 1.334 . S
C244 C240 1.381 1_554 S
C244 H246 0.948 . S
H245 C243 0.952 . S
H246 C244 0.948 . S
H247 C236 0.952 . S
H248 C238 0.948 . S
C249 C215 1.395 . S
C249 C219 1.391 . S
C250 C212 1.389 . S
C250 C232 1.392 . S
C251 C222 1.392 . S
C251 C224 1.389 . S
C252 C227 1.395 . S
C252 C229 1.391 1_554 S
H253 C213 0.951 . S
H254 C214 0.950 . S
H255 C220 0.949 . S
H256 C221 0.950 . S
H257 C225 0.951 . S
H258 C226 0.950 . S
H259 C230 0.949 . S
H260 C231 0.950 . S
H261 C235 0.951 . S
H262 C237 0.950 . S
H263 C240 0.949 1_554 S
H264 C242 0.950 . S
C265 C266 1.443 . S
C265 N269 1.376 . S
C265 C303 1.389 1_455 S
C266 C265 1.443 . S
C266 C267 1.340 . S
C266 H306 0.951 . S
C267 C266 1.340 . S
C267 C268 1.439 . S
C267 H307 0.950 . S
C268 C267 1.439 . S
C268 N269 1.374 . S
C268 C302 1.395 . S
N269 C265 1.376 . S
N269 C268 1.374 . S
N269 Co270 2.008 . S
Co270 N269 2.008 . S
Co270 N271 1.995 1_556 S
Co270 N276 2.008 1_556 S
Co270 N281 1.995 1_455 S
Co270 N286 2.282 . S
Co270 N292 2.280 1_456 S
N271 Co270 1.995 1_554 S
N271 C272 1.376 1_554 S
N271 C275 1.383 . S
C272 N271 1.376 1_556 S
C272 C273 1.446 1_556 S
C272 C302 1.391 . S
C273 C272 1.446 1_554 S
C273 C274 1.339 . S
C273 H308 0.949 . S
C274 C273 1.339 . S
C274 C275 1.439 . S
C274 H309 0.950 . S
C275 N271 1.383 . S
C275 C274 1.439 . S
C275 C304 1.392 . S
N276 Co270 2.008 1_554 S
N276 C277 1.376 . S
N276 C280 1.374 1_455 S
C277 N276 1.376 . S
C277 C278 1.443 . S
C277 C304 1.389 . S
C278 C277 1.443 . S
C278 C279 1.340 1_455 S
C278 H310 0.951 . S
C279 C278 1.340 1_655 S
C279 C280 1.439 . S
C279 H311 0.950 . S
C280 N276 1.374 1_655 S
C280 C279 1.439 . S
C280 C305 1.395 . S
N281 Co270 1.995 1_655 S
N281 C282 1.376 . S
N281 C285 1.383 . S
C282 N281 1.376 . S
C282 C283 1.446 . S
C282 C305 1.391 1_556 S
C283 C282 1.446 . S
C283 C284 1.339 . S
C283 H312 0.949 . S
C284 C283 1.339 . S
C284 C285 1.439 . S
C284 H313 0.950 . S
C285 N281 1.383 . S
C285 C284 1.439 . S
C285 C303 1.392 . S
N286 Co270 2.282 . S
N286 C289 1.332 . S
N286 C291 1.332 . S
C287 C288 1.385 1_556 S
C287 C290 1.388 . S
C288 C287 1.385 1_554 S
C288 C289 1.381 1_554 S
C288 H314 0.952 . S
C289 N286 1.332 . S
C289 C288 1.381 1_556 S
C289 H300 0.952 . S
C290 C287 1.388 . S
C290 C291 1.382 . S
C290 H315 0.950 . S
C291 N286 1.332 . S
C291 C290 1.382 . S
C291 H301 0.948 . S
N292 Co270 2.280 1_654 S
N292 C296 1.327 1_554 S
N292 C297 1.334 . S
C293 C294 1.391 . S
C293 C297 1.381 1_556 S
C293 H316 0.949 1_556 S
C294 C293 1.391 . S
C294 C295 1.386 . S
C295 C294 1.386 . S
C295 C296 1.382 . S
C295 H317 0.950 . S
C296 N292 1.327 1_556 S
C296 C295 1.382 . S
C296 H298 0.952 1_655 S
C297 N292 1.334 . S
C297 C293 1.381 1_554 S
C297 H299 0.948 . S
H298 C296 0.952 1_455 S
H299 C297 0.948 . S
H300 C289 0.952 . S
H301 C291 0.948 . S
C302 C268 1.395 . S
C302 C272 1.391 . S
C303 C265 1.389 1_655 S
C303 C285 1.392 . S
C304 C275 1.392 . S
C304 C277 1.389 . S
C305 C280 1.395 . S
C305 C282 1.391 1_554 S
H306 C266 0.951 . S
H307 C267 0.950 . S
H308 C273 0.949 . S
H309 C274 0.950 . S
H310 C278 0.951 . S
H311 C279 0.950 . S
H312 C283 0.949 . S
H313 C284 0.950 . S
H314 C288 0.952 . S
H315 C290 0.950 . S
H316 C293 0.949 1_554 S
H317 C295 0.950 . S
C318 C319 1.443 . S
C318 N322 1.376 . S
C318 C356 1.389 . S
C319 C318 1.443 . S
C319 C320 1.340 . S
C319 H359 0.951 . S
C320 C319 1.340 . S
C320 C321 1.439 . S
C320 H360 0.950 . S
C321 C320 1.439 . S
C321 N322 1.374 . S
C321 C355 1.395 . S
N322 C318 1.376 . S
N322 C321 1.374 . S
N322 Co323 2.008 . S
Co323 N322 2.008 . S
Co323 N324 1.995 . S
Co323 N329 2.008 . S
Co323 N334 1.995 . S
Co323 N339 2.282 . S
Co323 N345 2.282 . S
N324 Co323 1.995 . S
N324 C325 1.376 . S
N324 C328 1.383 . S
C325 N324 1.376 . S
C325 C326 1.446 . S
C325 C355 1.391 . S
C326 C325 1.446 . S
C326 C327 1.339 . S
C326 H361 0.949 . S
C327 C326 1.339 . S
C327 C328 1.439 . S
C327 H362 0.950 . S
C328 N324 1.383 . S
C328 C327 1.439 . S
C328 C357 1.392 . S
N329 Co323 2.008 . S
N329 C330 1.376 . S
N329 C333 1.374 . S
C330 N329 1.376 . S
C330 C331 1.443 . S
C330 C357 1.389 . S
C331 C330 1.443 . S
C331 C332 1.340 . S
C331 H363 0.951 . S
C332 C331 1.340 . S
C332 C333 1.439 . S
C332 H364 0.950 . S
C333 N329 1.374 . S
C333 C332 1.439 . S
C333 C358 1.395 . S
N334 Co323 1.995 . S
N334 C335 1.376 . S
N334 C338 1.383 . S
C335 N334 1.376 . S
C335 C336 1.446 . S
C335 C358 1.391 . S
C336 C335 1.446 . S
C336 C337 1.339 . S
C336 H365 0.949 . S
C337 C336 1.339 . S
C337 C338 1.439 . S
C337 H366 0.950 . S
C338 N334 1.383 . S
C338 C337 1.439 . S
C338 C356 1.392 . S
N339 Co323 2.282 . S
N339 C342 1.332 . S
N339 C344 1.332 . S
C340 C341 1.386 . S
C340 C343 1.388 . S
C341 C340 1.386 . S
C341 C342 1.382 . S
C341 H367 0.950 . S
C342 N339 1.332 . S
C342 C341 1.382 . S
C342 H353 0.952 . S
C343 C340 1.388 . S
C343 C344 1.382 . S
C343 H368 0.950 . S
C344 N339 1.332 . S
C344 C343 1.382 . S
C344 H354 0.948 . S
N345 Co323 2.282 . S
N345 C349 1.332 . S
N345 C350 1.332 . S
C346 C347 1.388 . S
C346 C350 1.382 . S
C346 H369 0.950 . S
C347 C346 1.388 . S
C347 C348 1.386 . S
C348 C347 1.386 . S
C348 C349 1.382 . S
C348 H370 0.950 . S
C349 N345 1.332 . S
C349 C348 1.382 . S
C349 H351 0.952 . S
C350 N345 1.332 . S
C350 C346 1.382 . S
C350 H352 0.948 . S
H351 C349 0.952 . S
H352 C350 0.948 . S
H353 C342 0.952 . S
H354 C344 0.948 . S
C355 C321 1.395 . S
C355 C325 1.391 . S
C356 C318 1.389 . S
C356 C338 1.392 . S
C357 C328 1.392 . S
C357 C330 1.389 . S
C358 C333 1.395 . S
C358 C335 1.391 . S
H359 C319 0.951 . S
H360 C320 0.950 . S
H361 C326 0.949 . S
H362 C327 0.950 . S
H363 C331 0.951 . S
H364 C332 0.950 . S
H365 C336 0.949 . S
H366 C337 0.950 . S
H367 C341 0.950 . S
H368 C343 0.950 . S
H369 C346 0.950 . S
H370 C348 0.950 . S
C371 C372 1.443 . S
C371 N375 1.376 . S
C371 C409 1.389 1_455 S
C372 C371 1.443 . S
C372 C373 1.340 . S
C372 H412 0.951 . S
C373 C372 1.340 . S
C373 C374 1.439 . S
C373 H413 0.950 . S
C374 C373 1.439 . S
C374 N375 1.374 . S
C374 C408 1.395 . S
N375 C371 1.376 . S
N375 C374 1.374 . S
N375 Co376 2.008 . S
Co376 N375 2.008 . S
Co376 N377 1.995 . S
Co376 N382 2.008 . S
Co376 N387 1.995 1_455 S
Co376 N392 2.282 . S
Co376 N398 2.282 1_455 S
N377 Co376 1.995 . S
N377 C378 1.376 . S
N377 C381 1.383 . S
C378 N377 1.376 . S
C378 C379 1.446 . S
C378 C408 1.391 . S
C379 C378 1.446 . S
C379 C380 1.339 . S
C379 H414 0.949 . S
C380 C379 1.339 . S
C380 C381 1.439 . S
C380 H415 0.950 . S
C381 N377 1.383 . S
C381 C380 1.439 . S
C381 C410 1.392 . S
N382 Co376 2.008 . S
N382 C383 1.376 . S
N382 C386 1.374 1_455 S
C383 N382 1.376 . S
C383 C384 1.443 . S
C383 C410 1.389 . S
C384 C383 1.443 . S
C384 C385 1.340 1_455 S
C384 H416 0.951 . S
C385 C384 1.340 1_655 S
C385 C386 1.439 . S
C385 H417 0.950 . S
C386 N382 1.374 1_655 S
C386 C385 1.439 . S
C386 C411 1.395 . S
N387 Co376 1.995 1_655 S
N387 C388 1.376 . S
N387 C391 1.383 . S
C388 N387 1.376 . S
C388 C389 1.446 . S
C388 C411 1.391 . S
C389 C388 1.446 . S
C389 C390 1.339 . S
C389 H418 0.949 . S
C390 C389 1.339 . S
C390 C391 1.439 . S
C390 H419 0.950 . S
C391 N387 1.383 . S
C391 C390 1.439 . S
C391 C409 1.392 . S
N392 Co376 2.282 . S
N392 C395 1.332 . S
N392 C397 1.332 . S
C393 C394 1.386 . S
C393 C396 1.388 . S
C394 C393 1.386 . S
C394 C395 1.382 . S
C394 H420 0.950 . S
C395 N392 1.332 . S
C395 C394 1.382 . S
C395 H406 0.952 . S
C396 C393 1.388 . S
C396 C397 1.382 . S
C396 H421 0.950 . S
C397 N392 1.332 . S
C397 C396 1.382 . S
C397 H407 0.948 . S
N398 Co376 2.282 1_655 S
N398 C402 1.332 . S
N398 C403 1.332 . S
C399 C400 1.388 . S
C399 C403 1.382 . S
C399 H422 0.950 . S
C400 C399 1.388 . S
C400 C401 1.386 . S
C401 C400 1.386 . S
C401 C402 1.382 . S
C401 H423 0.950 . S
C402 N398 1.332 . S
C402 C401 1.382 . S
C402 H404 0.952 1_655 S
C403 N398 1.332 . S
C403 C399 1.382 . S
C403 H405 0.948 . S
H404 C402 0.952 1_455 S
H405 C403 0.948 . S
H406 C395 0.952 . S
H407 C397 0.948 . S
C408 C374 1.395 . S
C408 C378 1.391 . S
C409 C371 1.389 1_655 S
C409 C391 1.392 . S
C410 C381 1.392 . S
C410 C383 1.389 . S
C411 C386 1.395 . S
C411 C388 1.391 . S
H412 C372 0.951 . S
H413 C373 0.950 . S
H414 C379 0.949 . S
H415 C380 0.950 . S
H416 C384 0.951 . S
H417 C385 0.950 . S
H418 C389 0.949 . S
H419 C390 0.950 . S
H420 C394 0.950 . S
H421 C396 0.950 . S
H422 C399 0.950 . S
H423 C401 0.950 . S
C424 C425 1.443 . S
C424 N428 1.376 . S
C424 C462 1.389 . S
C425 C424 1.443 . S
C425 C426 1.340 . S
C425 H465 0.951 . S
C426 C425 1.340 . S
C426 C427 1.439 . S
C426 H466 0.950 . S
C427 C426 1.439 . S
C427 N428 1.374 . S
C427 C461 1.395 . S
N428 C424 1.376 . S
N428 C427 1.374 . S
N428 Co429 2.008 . S
Co429 N428 2.008 . S
Co429 N430 1.995 . S
Co429 N435 2.008 . S
Co429 N440 1.995 . S
Co429 N445 2.282 . S
Co429 N451 2.282 . S
N430 Co429 1.995 . S
N430 C431 1.376 . S
N430 C434 1.383 . S
C431 N430 1.376 . S
C431 C432 1.446 . S
C431 C461 1.391 . S
C432 C431 1.446 . S
C432 C433 1.339 . S
C432 H467 0.949 . S
C433 C432 1.339 . S
C433 C434 1.439 . S
C433 H468 0.950 . S
C434 N430 1.383 . S
C434 C433 1.439 . S
C434 C463 1.392 . S
N435 Co429 2.008 . S
N435 C436 1.376 . S
N435 C439 1.374 . S
C436 N435 1.376 . S
C436 C437 1.443 . S
C436 C463 1.389 . S
C437 C436 1.443 . S
C437 C438 1.340 . S
C437 H469 0.951 . S
C438 C437 1.340 . S
C438 C439 1.439 . S
C438 H470 0.950 . S
C439 N435 1.374 . S
C439 C438 1.439 . S
C439 C464 1.395 . S
N440 Co429 1.995 . S
N440 C441 1.376 . S
N440 C444 1.383 . S
C441 N440 1.376 . S
C441 C442 1.446 . S
C441 C464 1.391 . S
C442 C441 1.446 . S
C442 C443 1.339 . S
C442 H471 0.949 . S
C443 C442 1.339 . S
C443 C444 1.439 . S
C443 H472 0.950 . S
C444 N440 1.383 . S
C444 C443 1.439 . S
C444 C462 1.392 . S
N445 Co429 2.282 . S
N445 C448 1.332 . S
N445 C450 1.332 . S
C446 C447 1.386 . S
C446 C449 1.388 . S
C447 C446 1.386 . S
C447 C448 1.382 . S
C447 H473 0.950 . S
C448 N445 1.332 . S
C448 C447 1.382 . S
C448 H459 0.952 . S
C449 C446 1.388 . S
C449 C450 1.382 . S
C449 H474 0.950 . S
C450 N445 1.332 . S
C450 C449 1.382 . S
C450 H460 0.948 . S
N451 Co429 2.282 . S
N451 C455 1.332 . S
N451 C456 1.332 . S
C452 C453 1.388 . S
C452 C456 1.382 . S
C452 H475 0.950 . S
C453 C452 1.388 . S
C453 C454 1.386 . S
C454 C453 1.386 . S
C454 C455 1.382 . S
C454 H476 0.950 . S
C455 N451 1.332 . S
C455 C454 1.382 . S
C455 H457 0.952 . S
C456 N451 1.332 . S
C456 C452 1.382 . S
C456 H458 0.948 . S
H457 C455 0.952 . S
H458 C456 0.948 . S
H459 C448 0.952 . S
H460 C450 0.948 . S
C461 C427 1.395 . S
C461 C431 1.391 . S
C462 C424 1.389 . S
C462 C444 1.392 . S
C463 C434 1.392 . S
C463 C436 1.389 . S
C464 C439 1.395 . S
C464 C441 1.391 . S
H465 C425 0.951 . S
H466 C426 0.950 . S
H467 C432 0.949 . S
H468 C433 0.950 . S
H469 C437 0.951 . S
H470 C438 0.950 . S
H471 C442 0.949 . S
H472 C443 0.950 . S
H473 C447 0.950 . S
H474 C449 0.950 . S
H475 C452 0.950 . S
H476 C454 0.950 . S
C477 C478 1.443 . S
C477 N481 1.376 . S
C477 C515 1.389 . S
C478 C477 1.443 . S
C478 C479 1.340 . S
C478 H518 0.951 . S
C479 C478 1.340 . S
C479 C480 1.439 . S
C479 H519 0.950 . S
C480 C479 1.439 . S
C480 N481 1.374 . S
C480 C514 1.395 . S
N481 C477 1.376 . S
N481 C480 1.374 . S
N481 Co482 2.008 1_455 S
Co482 N481 2.008 1_655 S
Co482 N483 1.995 1_655 S
Co482 N488 2.008 . S
Co482 N493 1.995 . S
Co482 N498 2.282 . S
Co482 N504 2.282 1_655 S
N483 Co482 1.995 1_455 S
N483 C484 1.376 . S
N483 C487 1.383 1_455 S
C484 N483 1.376 . S
C484 C485 1.446 . S
C484 C514 1.391 . S
C485 C484 1.446 . S
C485 C486 1.339 1_455 S
C485 H520 0.949 . S
C486 C485 1.339 1_655 S
C486 C487 1.439 . S
C486 H521 0.950 . S
C487 N483 1.383 1_655 S
C487 C486 1.439 . S
C487 C516 1.392 . S
N488 Co482 2.008 . S
N488 C489 1.376 . S
N488 C492 1.374 . S
C489 N488 1.376 . S
C489 C490 1.443 . S
C489 C516 1.389 . S
C490 C489 1.443 . S
C490 C491 1.340 . S
C490 H522 0.951 . S
C491 C490 1.340 . S
C491 C492 1.439 . S
C491 H523 0.950 . S
C492 N488 1.374 . S
C492 C491 1.439 . S
C492 C517 1.395 . S
N493 Co482 1.995 . S
N493 C494 1.376 . S
N493 C497 1.383 . S
C494 N493 1.376 . S
C494 C495 1.446 . S
C494 C517 1.391 . S
C495 C494 1.446 . S
C495 C496 1.339 . S
C495 H524 0.949 . S
C496 C495 1.339 . S
C496 C497 1.439 . S
C496 H525 0.950 . S
C497 N493 1.383 . S
C497 C496 1.439 . S
C497 C515 1.392 1_655 S
N498 Co482 2.282 . S
N498 C501 1.332 . S
N498 C503 1.332 . S
C499 C500 1.386 . S
C499 C502 1.388 . S
C500 C499 1.386 . S
C500 C501 1.382 . S
C500 H526 0.950 . S
C501 N498 1.332 . S
C501 C500 1.382 . S
C501 H512 0.952 . S
C502 C499 1.388 . S
C502 C503 1.382 . S
C502 H527 0.950 . S
C503 N498 1.332 . S
C503 C502 1.382 . S
C503 H513 0.948 . S
N504 Co482 2.282 1_455 S
N504 C508 1.332 . S
N504 C509 1.332 . S
C505 C506 1.388 . S
C505 C509 1.382 . S
C505 H528 0.950 . S
C506 C505 1.388 . S
C506 C507 1.386 . S
C507 C506 1.386 . S
C507 C508 1.382 . S
C507 H529 0.950 . S
C508 N504 1.332 . S
C508 C507 1.382 . S
C508 H510 0.952 . S
C509 N504 1.332 . S
C509 C505 1.382 . S
C509 H511 0.948 1_455 S
H510 C508 0.952 . S
H511 C509 0.948 1_655 S
H512 C501 0.952 . S
H513 C503 0.948 . S
C514 C480 1.395 . S
C514 C484 1.391 . S
C515 C477 1.389 . S
C515 C497 1.392 1_455 S
C516 C487 1.392 . S
C516 C489 1.389 . S
C517 C492 1.395 . S
C517 C494 1.391 . S
H518 C478 0.951 . S
H519 C479 0.950 . S
H520 C485 0.949 . S
H521 C486 0.950 . S
H522 C490 0.951 . S
H523 C491 0.950 . S
H524 C495 0.949 . S
H525 C496 0.950 . S
H526 C500 0.950 . S
H527 C502 0.950 . S
H528 C505 0.950 . S
H529 C507 0.950 . S
C530 C531 1.443 . S
C530 N534 1.376 . S
C530 C568 1.389 . S
C531 C530 1.443 . S
C531 C532 1.340 . S
C531 H571 0.951 . S
C532 C531 1.340 . S
C532 C533 1.439 . S
C532 H572 0.950 . S
C533 C532 1.439 . S
C533 N534 1.374 . S
C533 C567 1.395 . S
N534 C530 1.376 . S
N534 C533 1.374 . S
N534 Co535 2.008 . S
Co535 N534 2.008 . S
Co535 N536 1.995 . S
Co535 N541 2.008 . S
Co535 N546 1.995 . S
Co535 N551 2.282 . S
Co535 N557 2.282 . S
N536 Co535 1.995 . S
N536 C537 1.376 . S
N536 C540 1.383 . S
C537 N536 1.376 . S
C537 C538 1.446 . S
C537 C567 1.391 . S
C538 C537 1.446 . S
C538 C539 1.339 . S
C538 H573 0.949 . S
C539 C538 1.339 . S
C539 C540 1.439 . S
C539 H574 0.950 . S
C540 N536 1.383 . S
C540 C539 1.439 . S
C540 C569 1.392 . S
N541 Co535 2.008 . S
N541 C542 1.376 . S
N541 C545 1.374 . S
C542 N541 1.376 . S
C542 C543 1.443 . S
C542 C569 1.389 . S
C543 C542 1.443 . S
C543 C544 1.340 . S
C543 H575 0.951 . S
C544 C543 1.340 . S
C544 C545 1.439 . S
C544 H576 0.950 . S
C545 N541 1.374 . S
C545 C544 1.439 . S
C545 C570 1.395 . S
N546 Co535 1.995 . S
N546 C547 1.376 . S
N546 C550 1.383 . S
C547 N546 1.376 . S
C547 C548 1.446 . S
C547 C570 1.391 . S
C548 C547 1.446 . S
C548 C549 1.339 . S
C548 H577 0.949 . S
C549 C548 1.339 . S
C549 C550 1.439 . S
C549 H578 0.950 . S
C550 N546 1.383 . S
C550 C549 1.439 . S
C550 C568 1.392 . S
N551 Co535 2.282 . S
N551 C554 1.332 . S
N551 C556 1.332 . S
C552 C553 1.386 . S
C552 C555 1.388 . S
C553 C552 1.386 . S
C553 C554 1.382 . S
C553 H579 0.950 . S
C554 N551 1.332 . S
C554 C553 1.382 . S
C554 H565 0.952 . S
C555 C552 1.388 . S
C555 C556 1.382 . S
C555 H580 0.950 . S
C556 N551 1.332 . S
C556 C555 1.382 . S
C556 H566 0.948 . S
N557 Co535 2.282 . S
N557 C561 1.332 . S
N557 C562 1.332 . S
C558 C559 1.388 . S
C558 C562 1.382 . S
C558 H581 0.950 . S
C559 C558 1.388 . S
C559 C560 1.386 . S
C560 C559 1.386 . S
C560 C561 1.382 . S
C560 H582 0.950 . S
C561 N557 1.332 . S
C561 C560 1.382 . S
C561 H563 0.952 . S
C562 N557 1.332 . S
C562 C558 1.382 . S
C562 H564 0.948 . S
H563 C561 0.952 . S
H564 C562 0.948 . S
H565 C554 0.952 . S
H566 C556 0.948 . S
C567 C533 1.395 . S
C567 C537 1.391 . S
C568 C530 1.389 . S
C568 C550 1.392 . S
C569 C540 1.392 . S
C569 C542 1.389 . S
C570 C545 1.395 . S
C570 C547 1.391 . S
H571 C531 0.951 . S
H572 C532 0.950 . S
H573 C538 0.949 . S
H574 C539 0.950 . S
H575 C543 0.951 . S
H576 C544 0.950 . S
H577 C548 0.949 . S
H578 C549 0.950 . S
H579 C553 0.950 . S
H580 C555 0.950 . S
H581 C558 0.950 . S
H582 C560 0.950 . S
C583 C584 1.443 . S
C583 N587 1.376 . S
C583 C621 1.389 . S
C584 C583 1.443 . S
C584 C585 1.340 . S
C584 H624 0.951 . S
C585 C584 1.340 . S
C585 C586 1.439 . S
C585 H625 0.950 . S
C586 C585 1.439 . S
C586 N587 1.374 . S
C586 C620 1.395 . S
N587 C583 1.376 . S
N587 C586 1.374 . S
N587 Co588 2.008 1_455 S
Co588 N587 2.008 1_655 S
Co588 N589 1.995 1_655 S
Co588 N594 2.008 . S
Co588 N599 1.995 . S
Co588 N604 2.282 . S
Co588 N610 2.282 1_655 S
N589 Co588 1.995 1_455 S
N589 C590 1.376 . S
N589 C593 1.383 1_455 S
C590 N589 1.376 . S
C590 C591 1.446 . S
C590 C620 1.391 . S
C591 C590 1.446 . S
C591 C592 1.339 1_455 S
C591 H626 0.949 . S
C592 C591 1.339 1_655 S
C592 C593 1.439 . S
C592 H627 0.950 . S
C593 N589 1.383 1_655 S
C593 C592 1.439 . S
C593 C622 1.392 . S
N594 Co588 2.008 . S
N594 C595 1.376 . S
N594 C598 1.374 . S
C595 N594 1.376 . S
C595 C596 1.443 . S
C595 C622 1.389 . S
C596 C595 1.443 . S
C596 C597 1.340 . S
C596 H628 0.951 . S
C597 C596 1.340 . S
C597 C598 1.439 . S
C597 H629 0.950 . S
C598 N594 1.374 . S
C598 C597 1.439 . S
C598 C623 1.395 . S
N599 Co588 1.995 . S
N599 C600 1.376 . S
N599 C603 1.383 . S
C600 N599 1.376 . S
C600 C601 1.446 . S
C600 C623 1.391 . S
C601 C600 1.446 . S
C601 C602 1.339 . S
C601 H630 0.949 . S
C602 C601 1.339 . S
C602 C603 1.439 . S
C602 H631 0.950 . S
C603 N599 1.383 . S
C603 C602 1.439 . S
C603 C621 1.392 1_655 S
N604 Co588 2.282 . S
N604 C607 1.332 . S
N604 C609 1.332 . S
C605 C606 1.386 . S
C605 C608 1.388 . S
C606 C605 1.386 . S
C606 C607 1.382 . S
C606 H632 0.950 . S
C607 N604 1.332 . S
C607 C606 1.382 . S
C607 H618 0.952 . S
C608 C605 1.388 . S
C608 C609 1.382 . S
C608 H633 0.950 . S
C609 N604 1.332 . S
C609 C608 1.382 . S
C609 H619 0.948 . S
N610 Co588 2.282 1_455 S
N610 C614 1.332 . S
N610 C615 1.332 . S
C611 C612 1.388 . S
C611 C615 1.382 . S
C611 H634 0.950 . S
C612 C611 1.388 . S
C612 C613 1.386 . S
C613 C612 1.386 . S
C613 C614 1.382 . S
C613 H635 0.950 . S
C614 N610 1.332 . S
C614 C613 1.382 . S
C614 H616 0.952 . S
C615 N610 1.332 . S
C615 C611 1.382 . S
C615 H617 0.948 1_455 S
H616 C614 0.952 . S
H617 C615 0.948 1_655 S
H618 C607 0.952 . S
H619 C609 0.948 . S
C620 C586 1.395 . S
C620 C590 1.391 . S
C621 C583 1.389 . S
C621 C603 1.392 1_455 S
C622 C593 1.392 . S
C622 C595 1.389 . S
C623 C598 1.395 . S
C623 C600 1.391 . S
H624 C584 0.951 . S
H625 C585 0.950 . S
H626 C591 0.949 . S
H627 C592 0.950 . S
H628 C596 0.951 . S
H629 C597 0.950 . S
H630 C601 0.949 . S
H631 C602 0.950 . S
H632 C606 0.950 . S
H633 C608 0.950 . S
H634 C611 0.950 . S
H635 C613 0.950 . S
C636 C637 1.443 . S
C636 N640 1.376 . S
C636 C674 1.389 . S
C637 C636 1.443 . S
C637 C638 1.340 . S
C637 H677 0.951 . S
C638 C637 1.340 . S
C638 C639 1.439 . S
C638 H678 0.950 . S
C639 C638 1.439 . S
C639 N640 1.374 . S
C639 C673 1.395 . S
N640 C636 1.376 . S
N640 C639 1.374 . S
N640 Co641 2.008 . S
Co641 N640 2.008 . S
Co641 N642 1.995 . S
Co641 N647 2.008 . S
Co641 N652 1.995 . S
Co641 N657 2.282 . S
Co641 N663 2.282 . S
N642 Co641 1.995 . S
N642 C643 1.376 . S
N642 C646 1.383 . S
C643 N642 1.376 . S
C643 C644 1.446 . S
C643 C673 1.391 . S
C644 C643 1.446 . S
C644 C645 1.339 . S
C644 H679 0.949 . S
C645 C644 1.339 . S
C645 C646 1.439 . S
C645 H680 0.950 . S
C646 N642 1.383 . S
C646 C645 1.439 . S
C646 C675 1.392 . S
N647 Co641 2.008 . S
N647 C648 1.376 . S
N647 C651 1.374 . S
C648 N647 1.376 . S
C648 C649 1.443 . S
C648 C675 1.389 . S
C649 C648 1.443 . S
C649 C650 1.340 . S
C649 H681 0.951 . S
C650 C649 1.340 . S
C650 C651 1.439 . S
C650 H682 0.950 . S
C651 N647 1.374 . S
C651 C650 1.439 . S
C651 C676 1.395 . S
N652 Co641 1.995 . S
N652 C653 1.376 . S
N652 C656 1.383 . S
C653 N652 1.376 . S
C653 C654 1.446 . S
C653 C676 1.391 . S
C654 C653 1.446 . S
C654 C655 1.339 . S
C654 H683 0.949 . S
C655 C654 1.339 . S
C655 C656 1.439 . S
C655 H684 0.950 . S
C656 N652 1.383 . S
C656 C655 1.439 . S
C656 C674 1.392 . S
N657 Co641 2.282 . S
N657 C660 1.332 . S
N657 C662 1.332 . S
C658 C659 1.386 . S
C658 C661 1.388 . S
C659 C658 1.386 . S
C659 C660 1.382 . S
C659 H685 0.950 . S
C660 N657 1.332 . S
C660 C659 1.382 . S
C660 H671 0.952 . S
C661 C658 1.388 . S
C661 C662 1.382 . S
C661 H686 0.950 . S
C662 N657 1.332 . S
C662 C661 1.382 . S
C662 H672 0.948 . S
N663 Co641 2.282 . S
N663 C667 1.332 . S
N663 C668 1.332 . S
C664 C665 1.388 . S
C664 C668 1.382 . S
C664 H687 0.950 . S
C665 C664 1.388 . S
C665 C666 1.386 . S
C666 C665 1.386 . S
C666 C667 1.382 . S
C666 H688 0.950 . S
C667 N663 1.332 . S
C667 C666 1.382 . S
C667 H669 0.952 . S
C668 N663 1.332 . S
C668 C664 1.382 . S
C668 H670 0.948 . S
H669 C667 0.952 . S
H670 C668 0.948 . S
H671 C660 0.952 . S
H672 C662 0.948 . S
C673 C639 1.395 . S
C673 C643 1.391 . S
C674 C636 1.389 . S
C674 C656 1.392 . S
C675 C646 1.392 . S
C675 C648 1.389 . S
C676 C651 1.395 . S
C676 C653 1.391 . S
H677 C637 0.951 . S
H678 C638 0.950 . S
H679 C644 0.949 . S
H680 C645 0.950 . S
H681 C649 0.951 . S
H682 C650 0.950 . S
H683 C654 0.949 . S
H684 C655 0.950 . S
H685 C659 0.950 . S
H686 C661 0.950 . S
H687 C664 0.950 . S
H688 C666 0.950 . S
C689 C690 1.443 . S
C689 N693 1.376 . S
C689 C727 1.389 1_455 S
C690 C689 1.443 . S
C690 C691 1.340 . S
C690 H730 0.951 . S
C691 C690 1.340 . S
C691 C692 1.439 . S
C691 H731 0.950 . S
C692 C691 1.439 . S
C692 N693 1.374 . S
C692 C726 1.395 . S
N693 C689 1.376 . S
N693 C692 1.374 . S
N693 Co694 2.008 . S
Co694 N693 2.008 . S
Co694 N695 1.995 . S
Co694 N700 2.008 . S
Co694 N705 1.995 1_455 S
Co694 N710 2.282 . S
Co694 N716 2.282 1_455 S
N695 Co694 1.995 . S
N695 C696 1.376 . S
N695 C699 1.383 . S
C696 N695 1.376 . S
C696 C697 1.446 . S
C696 C726 1.391 . S
C697 C696 1.446 . S
C697 C698 1.339 . S
C697 H732 0.949 . S
C698 C697 1.339 . S
C698 C699 1.439 . S
C698 H733 0.950 . S
C699 N695 1.383 . S
C699 C698 1.439 . S
C699 C728 1.392 . S
N700 Co694 2.008 . S
N700 C701 1.376 . S
N700 C704 1.374 1_455 S
C701 N700 1.376 . S
C701 C702 1.443 . S
C701 C728 1.389 . S
C702 C701 1.443 . S
C702 C703 1.340 1_455 S
C702 H734 0.951 . S
C703 C702 1.340 1_655 S
C703 C704 1.439 . S
C703 H735 0.950 . S
C704 N700 1.374 1_655 S
C704 C703 1.439 . S
C704 C729 1.395 . S
N705 Co694 1.995 1_655 S
N705 C706 1.376 . S
N705 C709 1.383 . S
C706 N705 1.376 . S
C706 C707 1.446 . S
C706 C729 1.391 . S
C707 C706 1.446 . S
C707 C708 1.339 . S
C707 H736 0.949 . S
C708 C707 1.339 . S
C708 C709 1.439 . S
C708 H737 0.950 . S
C709 N705 1.383 . S
C709 C708 1.439 . S
C709 C727 1.392 . S
N710 Co694 2.282 . S
N710 C713 1.332 . S
N710 C715 1.332 . S
C711 C712 1.386 . S
C711 C714 1.388 . S
C712 C711 1.386 . S
C712 C713 1.382 . S
C712 H738 0.950 . S
C713 N710 1.332 . S
C713 C712 1.382 . S
C713 H724 0.952 . S
C714 C711 1.388 . S
C714 C715 1.382 . S
C714 H739 0.950 . S
C715 N710 1.332 . S
C715 C714 1.382 . S
C715 H725 0.948 . S
N716 Co694 2.282 1_655 S
N716 C720 1.332 . S
N716 C721 1.332 . S
C717 C718 1.388 . S
C717 C721 1.382 . S
C717 H740 0.950 . S
C718 C717 1.388 . S
C718 C719 1.386 . S
C719 C718 1.386 . S
C719 C720 1.382 . S
C719 H741 0.950 . S
C720 N716 1.332 . S
C720 C719 1.382 . S
C720 H722 0.952 1_655 S
C721 N716 1.332 . S
C721 C717 1.382 . S
C721 H723 0.948 . S
H722 C720 0.952 1_455 S
H723 C721 0.948 . S
H724 C713 0.952 . S
H725 C715 0.948 . S
C726 C692 1.395 . S
C726 C696 1.391 . S
C727 C689 1.389 1_655 S
C727 C709 1.392 . S
C728 C699 1.392 . S
C728 C701 1.389 . S
C729 C704 1.395 . S
C729 C706 1.391 . S
H730 C690 0.951 . S
H731 C691 0.950 . S
H732 C697 0.949 . S
H733 C698 0.950 . S
H734 C702 0.951 . S
H735 C703 0.950 . S
H736 C707 0.949 . S
H737 C708 0.950 . S
H738 C712 0.950 . S
H739 C714 0.950 . S
H740 C717 0.950 . S
H741 C719 0.950 . S
C742 C743 1.443 . S
C742 N746 1.376 . S
C742 C780 1.389 . S
C743 C742 1.443 . S
C743 C744 1.340 . S
C743 H783 0.951 . S
C744 C743 1.340 . S
C744 C745 1.439 . S
C744 H784 0.950 . S
C745 C744 1.439 . S
C745 N746 1.374 . S
C745 C779 1.395 . S
N746 C742 1.376 . S
N746 C745 1.374 . S
N746 Co747 2.008 . S
Co747 N746 2.008 . S
Co747 N748 1.995 . S
Co747 N753 2.008 . S
Co747 N758 1.995 . S
Co747 N763 2.282 . S
Co747 N769 2.282 . S
N748 Co747 1.995 . S
N748 C749 1.376 . S
N748 C752 1.383 . S
C749 N748 1.376 . S
C749 C750 1.446 . S
C749 C779 1.391 . S
C750 C749 1.446 . S
C750 C751 1.339 . S
C750 H785 0.949 . S
C751 C750 1.339 . S
C751 C752 1.439 . S
C751 H786 0.950 . S
C752 N748 1.383 . S
C752 C751 1.439 . S
C752 C781 1.392 . S
N753 Co747 2.008 . S
N753 C754 1.376 . S
N753 C757 1.374 . S
C754 N753 1.376 . S
C754 C755 1.443 . S
C754 C781 1.389 . S
C755 C754 1.443 . S
C755 C756 1.340 . S
C755 H787 0.951 . S
C756 C755 1.340 . S
C756 C757 1.439 . S
C756 H788 0.950 . S
C757 N753 1.374 . S
C757 C756 1.439 . S
C757 C782 1.395 . S
N758 Co747 1.995 . S
N758 C759 1.376 . S
N758 C762 1.383 . S
C759 N758 1.376 . S
C759 C760 1.446 . S
C759 C782 1.391 . S
C760 C759 1.446 . S
C760 C761 1.339 . S
C760 H789 0.949 . S
C761 C760 1.339 . S
C761 C762 1.439 . S
C761 H790 0.950 . S
C762 N758 1.383 . S
C762 C761 1.439 . S
C762 C780 1.392 . S
N763 Co747 2.282 . S
N763 C766 1.332 . S
N763 C768 1.332 . S
C764 C765 1.386 . S
C764 C767 1.388 . S
C765 C764 1.386 . S
C765 C766 1.382 . S
C765 H791 0.950 . S
C766 N763 1.332 . S
C766 C765 1.382 . S
C766 H777 0.952 . S
C767 C764 1.388 . S
C767 C768 1.382 . S
C767 H792 0.950 . S
C768 N763 1.332 . S
C768 C767 1.382 . S
C768 H778 0.948 . S
N769 Co747 2.282 . S
N769 C773 1.332 . S
N769 C774 1.332 . S
C770 C771 1.388 . S
C770 C774 1.382 . S
C770 H793 0.950 . S
C771 C770 1.388 . S
C771 C772 1.386 . S
C772 C771 1.386 . S
C772 C773 1.382 . S
C772 H794 0.950 . S
C773 N769 1.332 . S
C773 C772 1.382 . S
C773 H775 0.952 . S
C774 N769 1.332 . S
C774 C770 1.382 . S
C774 H776 0.948 . S
H775 C773 0.952 . S
H776 C774 0.948 . S
H777 C766 0.952 . S
H778 C768 0.948 . S
C779 C745 1.395 . S
C779 C749 1.391 . S
C780 C742 1.389 . S
C780 C762 1.392 . S
C781 C752 1.392 . S
C781 C754 1.389 . S
C782 C757 1.395 . S
C782 C759 1.391 . S
H783 C743 0.951 . S
H784 C744 0.950 . S
H785 C750 0.949 . S
H786 C751 0.950 . S
H787 C755 0.951 . S
H788 C756 0.950 . S
H789 C760 0.949 . S
H790 C761 0.950 . S
H791 C765 0.950 . S
H792 C767 0.950 . S
H793 C770 0.950 . S
H794 C772 0.950 . S
C795 C796 1.443 . S
C795 N799 1.376 . S
C795 C833 1.389 1_455 S
C796 C795 1.443 . S
C796 C797 1.340 . S
C796 H836 0.951 . S
C797 C796 1.340 . S
C797 C798 1.439 . S
C797 H837 0.950 . S
C798 C797 1.439 . S
C798 N799 1.374 . S
C798 C832 1.395 . S
N799 C795 1.376 . S
N799 C798 1.374 . S
N799 Co800 2.008 . S
Co800 N799 2.008 . S
Co800 N801 1.995 . S
Co800 N806 2.008 . S
Co800 N811 1.995 1_455 S
Co800 N816 2.282 . S
Co800 N822 2.282 1_455 S
N801 Co800 1.995 . S
N801 C802 1.376 . S
N801 C805 1.383 . S
C802 N801 1.376 . S
C802 C803 1.446 . S
C802 C832 1.391 . S
C803 C802 1.446 . S
C803 C804 1.339 . S
C803 H838 0.949 . S
C804 C803 1.339 . S
C804 C805 1.439 . S
C804 H839 0.950 . S
C805 N801 1.383 . S
C805 C804 1.439 . S
C805 C834 1.392 . S
N806 Co800 2.008 . S
N806 C807 1.376 . S
N806 C810 1.374 1_455 S
C807 N806 1.376 . S
C807 C808 1.443 . S
C807 C834 1.389 . S
C808 C807 1.443 . S
C808 C809 1.340 1_455 S
C808 H840 0.951 . S
C809 C808 1.340 1_655 S
C809 C810 1.439 . S
C809 H841 0.950 . S
C810 N806 1.374 1_655 S
C810 C809 1.439 . S
C810 C835 1.395 . S
N811 Co800 1.995 1_655 S
N811 C812 1.376 . S
N811 C815 1.383 . S
C812 N811 1.376 . S
C812 C813 1.446 . S
C812 C835 1.391 . S
C813 C812 1.446 . S
C813 C814 1.339 . S
C813 H842 0.949 . S
C814 C813 1.339 . S
C814 C815 1.439 . S
C814 H843 0.950 . S
C815 N811 1.383 . S
C815 C814 1.439 . S
C815 C833 1.392 . S
N816 Co800 2.282 . S
N816 C819 1.332 . S
N816 C821 1.332 . S
C817 C818 1.386 . S
C817 C820 1.388 . S
C818 C817 1.386 . S
C818 C819 1.382 . S
C818 H844 0.950 . S
C819 N816 1.332 . S
C819 C818 1.382 . S
C819 H830 0.952 . S
C820 C817 1.388 . S
C820 C821 1.382 . S
C820 H845 0.950 . S
C821 N816 1.332 . S
C821 C820 1.382 . S
C821 H831 0.948 . S
N822 Co800 2.282 1_655 S
N822 C826 1.332 . S
N822 C827 1.332 . S
C823 C824 1.388 . S
C823 C827 1.382 . S
C823 H846 0.950 . S
C824 C823 1.388 . S
C824 C825 1.386 . S
C825 C824 1.386 . S
C825 C826 1.382 . S
C825 H847 0.950 . S
C826 N822 1.332 . S
C826 C825 1.382 . S
C826 H828 0.952 1_655 S
C827 N822 1.332 . S
C827 C823 1.382 . S
C827 H829 0.948 . S
H828 C826 0.952 1_455 S
H829 C827 0.948 . S
H830 C819 0.952 . S
H831 C821 0.948 . S
C832 C798 1.395 . S
C832 C802 1.391 . S
C833 C795 1.389 1_655 S
C833 C815 1.392 . S
C834 C805 1.392 . S
C834 C807 1.389 . S
C835 C810 1.395 . S
C835 C812 1.391 . S
H836 C796 0.951 . S
H837 C797 0.950 . S
H838 C803 0.949 . S
H839 C804 0.950 . S
H840 C808 0.951 . S
H841 C809 0.950 . S
H842 C813 0.949 . S
H843 C814 0.950 . S
H844 C818 0.950 . S
H845 C820 0.950 . S
H846 C823 0.950 . S
H847 C825 0.950 . S
C848 C849 1.443 . S
C848 N852 1.376 . S
C848 C886 1.389 . S
C849 C848 1.443 . S
C849 C850 1.340 . S
C849 H889 0.951 . S
C850 C849 1.340 . S
C850 C851 1.439 . S
C850 H890 0.950 . S
C851 C850 1.439 . S
C851 N852 1.374 . S
C851 C885 1.395 . S
N852 C848 1.376 . S
N852 C851 1.374 . S
N852 Co853 2.008 . S
Co853 N852 2.008 . S
Co853 N854 1.995 . S
Co853 N859 2.008 . S
Co853 N864 1.995 . S
Co853 N869 2.282 . S
Co853 N875 2.282 . S
N854 Co853 1.995 . S
N854 C855 1.376 . S
N854 C858 1.383 . S
C855 N854 1.376 . S
C855 C856 1.446 . S
C855 C885 1.391 . S
C856 C855 1.446 . S
C856 C857 1.339 . S
C856 H891 0.949 . S
C857 C856 1.339 . S
C857 C858 1.439 . S
C857 H892 0.950 . S
C858 N854 1.383 . S
C858 C857 1.439 . S
C858 C887 1.392 . S
N859 Co853 2.008 . S
N859 C860 1.376 . S
N859 C863 1.374 . S
C860 N859 1.376 . S
C860 C861 1.443 . S
C860 C887 1.389 . S
C861 C860 1.443 . S
C861 C862 1.340 . S
C861 H893 0.951 . S
C862 C861 1.340 . S
C862 C863 1.439 . S
C862 H894 0.950 . S
C863 N859 1.374 . S
C863 C862 1.439 . S
C863 C888 1.395 . S
N864 Co853 1.995 . S
N864 C865 1.376 . S
N864 C868 1.383 . S
C865 N864 1.376 . S
C865 C866 1.446 . S
C865 C888 1.391 . S
C866 C865 1.446 . S
C866 C867 1.339 . S
C866 H895 0.949 . S
C867 C866 1.339 . S
C867 C868 1.439 . S
C867 H896 0.950 . S
C868 N864 1.383 . S
C868 C867 1.439 . S
C868 C886 1.392 . S
N869 Co853 2.282 . S
N869 C872 1.332 . S
N869 C874 1.332 . S
C870 C871 1.386 . S
C870 C873 1.388 . S
C871 C870 1.386 . S
C871 C872 1.382 . S
C871 H897 0.950 . S
C872 N869 1.332 . S
C872 C871 1.382 . S
C872 H883 0.952 . S
C873 C870 1.388 . S
C873 C874 1.382 . S
C873 H898 0.950 . S
C874 N869 1.332 . S
C874 C873 1.382 . S
C874 H884 0.948 . S
N875 Co853 2.282 . S
N875 C879 1.332 . S
N875 C880 1.332 . S
C876 C877 1.388 . S
C876 C880 1.382 . S
C876 H899 0.950 . S
C877 C876 1.388 . S
C877 C878 1.386 . S
C878 C877 1.386 . S
C878 C879 1.382 . S
C878 H900 0.950 . S
C879 N875 1.332 . S
C879 C878 1.382 . S
C879 H881 0.952 . S
C880 N875 1.332 . S
C880 C876 1.382 . S
C880 H882 0.948 . S
H881 C879 0.952 . S
H882 C880 0.948 . S
H883 C872 0.952 . S
H884 C874 0.948 . S
C885 C851 1.395 . S
C885 C855 1.391 . S
C886 C848 1.389 . S
C886 C868 1.392 . S
C887 C858 1.392 . S
C887 C860 1.389 . S
C888 C863 1.395 . S
C888 C865 1.391 . S
H889 C849 0.951 . S
H890 C850 0.950 . S
H891 C856 0.949 . S
H892 C857 0.950 . S
H893 C861 0.951 . S
H894 C862 0.950 . S
H895 C866 0.949 . S
H896 C867 0.950 . S
H897 C871 0.950 . S
H898 C873 0.950 . S
H899 C876 0.950 . S
H900 C878 0.950 . S
C901 C902 1.443 . S
C901 N905 1.376 . S
C901 C939 1.389 . S
C902 C901 1.443 . S
C902 C903 1.340 . S
C902 H942 0.951 . S
C903 C902 1.340 . S
C903 C904 1.439 . S
C903 H943 0.950 . S
C904 C903 1.439 . S
C904 N905 1.374 . S
C904 C938 1.395 . S
N905 C901 1.376 . S
N905 C904 1.374 . S
N905 Co906 2.008 . S
Co906 N905 2.008 . S
Co906 N907 1.995 . S
Co906 N912 2.008 . S
Co906 N917 1.995 . S
Co906 N922 2.282 . S
Co906 N928 2.282 . S
N907 Co906 1.995 . S
N907 C908 1.376 . S
N907 C911 1.383 . S
C908 N907 1.376 . S
C908 C909 1.446 . S
C908 C938 1.391 . S
C909 C908 1.446 . S
C909 C910 1.339 . S
C909 H944 0.949 . S
C910 C909 1.339 . S
C910 C911 1.439 . S
C910 H945 0.950 . S
C911 N907 1.383 . S
C911 C910 1.439 . S
C911 C940 1.392 . S
N912 Co906 2.008 . S
N912 C913 1.376 . S
N912 C916 1.374 . S
C913 N912 1.376 . S
C913 C914 1.443 . S
C913 C940 1.389 . S
C914 C913 1.443 . S
C914 C915 1.340 . S
C914 H946 0.951 . S
C915 C914 1.340 . S
C915 C916 1.439 . S
C915 H947 0.950 . S
C916 N912 1.374 . S
C916 C915 1.439 . S
C916 C941 1.395 . S
N917 Co906 1.995 . S
N917 C918 1.376 . S
N917 C921 1.383 . S
C918 N917 1.376 . S
C918 C919 1.446 . S
C918 C941 1.391 . S
C919 C918 1.446 . S
C919 C920 1.339 . S
C919 H948 0.949 . S
C920 C919 1.339 . S
C920 C921 1.439 . S
C920 H949 0.950 . S
C921 N917 1.383 . S
C921 C920 1.439 . S
C921 C939 1.392 . S
N922 Co906 2.282 . S
N922 C925 1.332 . S
N922 C927 1.332 . S
C923 C924 1.386 . S
C923 C926 1.388 . S
C924 C923 1.386 . S
C924 C925 1.382 . S
C924 H950 0.950 . S
C925 N922 1.332 . S
C925 C924 1.382 . S
C925 H936 0.952 . S
C926 C923 1.388 . S
C926 C927 1.382 . S
C926 H951 0.950 . S
C927 N922 1.332 . S
C927 C926 1.382 . S
C927 H937 0.948 . S
N928 Co906 2.282 . S
N928 C932 1.332 . S
N928 C933 1.332 . S
C929 C930 1.388 . S
C929 C933 1.382 . S
C929 H952 0.950 . S
C930 C929 1.388 . S
C930 C931 1.386 . S
C931 C930 1.386 . S
C931 C932 1.382 . S
C931 H953 0.950 . S
C932 N928 1.332 . S
C932 C931 1.382 . S
C932 H934 0.952 . S
C933 N928 1.332 . S
C933 C929 1.382 . S
C933 H935 0.948 . S
H934 C932 0.952 . S
H935 C933 0.948 . S
H936 C925 0.952 . S
H937 C927 0.948 . S
C938 C904 1.395 . S
C938 C908 1.391 . S
C939 C901 1.389 . S
C939 C921 1.392 . S
C940 C911 1.392 . S
C940 C913 1.389 . S
C941 C916 1.395 . S
C941 C918 1.391 . S
H942 C902 0.951 . S
H943 C903 0.950 . S
H944 C909 0.949 . S
H945 C910 0.950 . S
H946 C914 0.951 . S
H947 C915 0.950 . S
H948 C919 0.949 . S
H949 C920 0.950 . S
H950 C924 0.950 . S
H951 C926 0.950 . S
H952 C929 0.950 . S
H953 C931 0.950 . S
C954 C955 1.443 . S
C954 N958 1.376 . S
C954 C992 1.389 . S
C955 C954 1.443 . S
C955 C956 1.340 . S
C955 H995 0.951 . S
C956 C955 1.340 . S
C956 C957 1.439 . S
C956 H996 0.950 . S
C957 C956 1.439 . S
C957 N958 1.374 . S
C957 C991 1.395 . S
N958 C954 1.376 . S
N958 C957 1.374 . S
N958 Co959 2.008 . S
Co959 N958 2.008 . S
Co959 N960 1.995 . S
Co959 N965 2.008 . S
Co959 N970 1.995 . S
Co959 N975 2.282 . S
Co959 N981 2.282 . S
N960 Co959 1.995 . S
N960 C961 1.376 . S
N960 C964 1.383 . S
C961 N960 1.376 . S
C961 C962 1.446 . S
C961 C991 1.391 . S
C962 C961 1.446 . S
C962 C963 1.339 . S
C962 H997 0.949 . S
C963 C962 1.339 . S
C963 C964 1.439 . S
C963 H998 0.950 . S
C964 N960 1.383 . S
C964 C963 1.439 . S
C964 C993 1.392 . S
N965 Co959 2.008 . S
N965 C966 1.376 . S
N965 C969 1.374 . S
C966 N965 1.376 . S
C966 C967 1.443 . S
C966 C993 1.389 . S
C967 C966 1.443 . S
C967 C968 1.340 . S
C967 H999 0.951 . S
C968 C967 1.340 . S
C968 C969 1.439 . S
C968 H1000 0.950 . S
C969 N965 1.374 . S
C969 C968 1.439 . S
C969 C994 1.395 . S
N970 Co959 1.995 . S
N970 C971 1.376 . S
N970 C974 1.383 . S
C971 N970 1.376 . S
C971 C972 1.446 . S
C971 C994 1.391 . S
C972 C971 1.446 . S
C972 C973 1.339 . S
C972 H1001 0.949 . S
C973 C972 1.339 . S
C973 C974 1.439 . S
C973 H1002 0.950 . S
C974 N970 1.383 . S
C974 C973 1.439 . S
C974 C992 1.392 . S
N975 Co959 2.282 . S
N975 C978 1.332 . S
N975 C980 1.332 . S
C976 C977 1.386 . S
C976 C979 1.388 . S
C977 C976 1.386 . S
C977 C978 1.382 . S
C977 H1003 0.950 . S
C978 N975 1.332 . S
C978 C977 1.382 . S
C978 H989 0.952 . S
C979 C976 1.388 . S
C979 C980 1.382 . S
C979 H1004 0.950 . S
C980 N975 1.332 . S
C980 C979 1.382 . S
C980 H990 0.948 . S
N981 Co959 2.282 . S
N981 C985 1.332 . S
N981 C986 1.332 . S
C982 C983 1.388 . S
C982 C986 1.382 . S
C982 H1005 0.950 . S
C983 C982 1.388 . S
C983 C984 1.386 . S
C984 C983 1.386 . S
C984 C985 1.382 . S
C984 H1006 0.950 . S
C985 N981 1.332 . S
C985 C984 1.382 . S
C985 H987 0.952 . S
C986 N981 1.332 . S
C986 C982 1.382 . S
C986 H988 0.948 . S
H987 C985 0.952 . S
H988 C986 0.948 . S
H989 C978 0.952 . S
H990 C980 0.948 . S
C991 C957 1.395 . S
C991 C961 1.391 . S
C992 C954 1.389 . S
C992 C974 1.392 . S
C993 C964 1.392 . S
C993 C966 1.389 . S
C994 C969 1.395 . S
C994 C971 1.391 . S
H995 C955 0.951 . S
H996 C956 0.950 . S
H997 C962 0.949 . S
H998 C963 0.950 . S
H999 C967 0.951 . S
H1000 C968 0.950 . S
H1001 C972 0.949 . S
H1002 C973 0.950 . S
H1003 C977 0.950 . S
H1004 C979 0.950 . S
H1005 C982 0.950 . S
H1006 C984 0.950 . S
C1007 C1008 1.443 . S
C1007 N1011 1.376 . S
C1007 C1045 1.389 . S
C1008 C1007 1.443 . S
C1008 C1009 1.340 . S
C1008 H1048 0.951 . S
C1009 C1008 1.340 . S
C1009 C1010 1.439 . S
C1009 H1049 0.950 . S
C1010 C1009 1.439 . S
C1010 N1011 1.374 . S
C1010 C1044 1.395 . S
N1011 C1007 1.376 . S
N1011 C1010 1.374 . S
N1011 Co1012 2.008 . S
Co1012 N1011 2.008 . S
Co1012 N1013 1.995 . S
Co1012 N1018 2.008 . S
Co1012 N1023 1.995 . S
Co1012 N1028 2.282 . S
Co1012 N1034 2.282 . S
N1013 Co1012 1.995 . S
N1013 C1014 1.376 . S
N1013 C1017 1.383 . S
C1014 N1013 1.376 . S
C1014 C1015 1.446 . S
C1014 C1044 1.391 . S
C1015 C1014 1.446 . S
C1015 C1016 1.339 . S
C1015 H1050 0.949 . S
C1016 C1015 1.339 . S
C1016 C1017 1.439 . S
C1016 H1051 0.950 . S
C1017 N1013 1.383 . S
C1017 C1016 1.439 . S
C1017 C1046 1.392 . S
N1018 Co1012 2.008 . S
N1018 C1019 1.376 . S
N1018 C1022 1.374 . S
C1019 N1018 1.376 . S
C1019 C1020 1.443 . S
C1019 C1046 1.389 . S
C1020 C1019 1.443 . S
C1020 C1021 1.340 . S
C1020 H1052 0.951 . S
C1021 C1020 1.340 . S
C1021 C1022 1.439 . S
C1021 H1053 0.950 . S
C1022 N1018 1.374 . S
C1022 C1021 1.439 . S
C1022 C1047 1.395 . S
N1023 Co1012 1.995 . S
N1023 C1024 1.376 . S
N1023 C1027 1.383 . S
C1024 N1023 1.376 . S
C1024 C1025 1.446 . S
C1024 C1047 1.391 . S
C1025 C1024 1.446 . S
C1025 C1026 1.339 . S
C1025 H1054 0.949 . S
C1026 C1025 1.339 . S
C1026 C1027 1.439 . S
C1026 H1055 0.950 . S
C1027 N1023 1.383 . S
C1027 C1026 1.439 . S
C1027 C1045 1.392 . S
N1028 Co1012 2.282 . S
N1028 C1031 1.332 . S
N1028 C1033 1.332 . S
C1029 C1030 1.386 . S
C1029 C1032 1.388 . S
C1030 C1029 1.386 . S
C1030 C1031 1.382 . S
C1030 H1056 0.950 . S
C1031 N1028 1.332 . S
C1031 C1030 1.382 . S
C1031 H1042 0.952 . S
C1032 C1029 1.388 . S
C1032 C1033 1.382 . S
C1032 H1057 0.950 . S
C1033 N1028 1.332 . S
C1033 C1032 1.382 . S
C1033 H1043 0.948 . S
N1034 Co1012 2.282 . S
N1034 C1038 1.332 . S
N1034 C1039 1.332 . S
C1035 C1036 1.388 . S
C1035 C1039 1.382 . S
C1035 H1058 0.950 . S
C1036 C1035 1.388 . S
C1036 C1037 1.386 . S
C1037 C1036 1.386 . S
C1037 C1038 1.382 . S
C1037 H1059 0.950 . S
C1038 N1034 1.332 . S
C1038 C1037 1.382 . S
C1038 H1040 0.952 . S
C1039 N1034 1.332 . S
C1039 C1035 1.382 . S
C1039 H1041 0.948 . S
H1040 C1038 0.952 . S
H1041 C1039 0.948 . S
H1042 C1031 0.952 . S
H1043 C1033 0.948 . S
C1044 C1010 1.395 . S
C1044 C1014 1.391 . S
C1045 C1007 1.389 . S
C1045 C1027 1.392 . S
C1046 C1017 1.392 . S
C1046 C1019 1.389 . S
C1047 C1022 1.395 . S
C1047 C1024 1.391 . S
H1048 C1008 0.951 . S
H1049 C1009 0.950 . S
H1050 C1015 0.949 . S
H1051 C1016 0.950 . S
H1052 C1020 0.951 . S
H1053 C1021 0.950 . S
H1054 C1025 0.949 . S
H1055 C1026 0.950 . S
H1056 C1030 0.950 . S
H1057 C1032 0.950 . S
H1058 C1035 0.950 . S
H1059 C1037 0.950 . S
C1060 C1061 1.443 . S
C1060 N1064 1.376 . S
C1060 C1098 1.389 . S
C1061 C1060 1.443 . S
C1061 C1062 1.340 . S
C1061 H1101 0.951 . S
C1062 C1061 1.340 . S
C1062 C1063 1.439 . S
C1062 H1102 0.950 . S
C1063 C1062 1.439 . S
C1063 N1064 1.374 . S
C1063 C1097 1.395 . S
N1064 C1060 1.376 . S
N1064 C1063 1.374 . S
N1064 Co1065 2.008 . S
Co1065 N1064 2.008 . S
Co1065 N1066 1.995 . S
Co1065 N1071 2.008 . S
Co1065 N1076 1.995 . S
Co1065 N1081 2.282 . S
Co1065 N1087 2.282 . S
N1066 Co1065 1.995 . S
N1066 C1067 1.376 . S
N1066 C1070 1.383 . S
C1067 N1066 1.376 . S
C1067 C1068 1.446 . S
C1067 C1097 1.391 . S
C1068 C1067 1.446 . S
C1068 C1069 1.339 . S
C1068 H1103 0.949 . S
C1069 C1068 1.339 . S
C1069 C1070 1.439 . S
C1069 H1104 0.950 . S
C1070 N1066 1.383 . S
C1070 C1069 1.439 . S
C1070 C1099 1.392 . S
N1071 Co1065 2.008 . S
N1071 C1072 1.376 . S
N1071 C1075 1.374 . S
C1072 N1071 1.376 . S
C1072 C1073 1.443 . S
C1072 C1099 1.389 . S
C1073 C1072 1.443 . S
C1073 C1074 1.340 . S
C1073 H1105 0.951 . S
C1074 C1073 1.340 . S
C1074 C1075 1.439 . S
C1074 H1106 0.950 . S
C1075 N1071 1.374 . S
C1075 C1074 1.439 . S
C1075 C1100 1.395 . S
N1076 Co1065 1.995 . S
N1076 C1077 1.376 . S
N1076 C1080 1.383 . S
C1077 N1076 1.376 . S
C1077 C1078 1.446 . S
C1077 C1100 1.391 . S
C1078 C1077 1.446 . S
C1078 C1079 1.339 . S
C1078 H1107 0.949 . S
C1079 C1078 1.339 . S
C1079 C1080 1.439 . S
C1079 H1108 0.950 . S
C1080 N1076 1.383 . S
C1080 C1079 1.439 . S
C1080 C1098 1.392 . S
N1081 Co1065 2.282 . S
N1081 C1084 1.332 . S
N1081 C1086 1.332 . S
C1082 C1083 1.386 . S
C1082 C1085 1.388 . S
C1083 C1082 1.386 . S
C1083 C1084 1.382 . S
C1083 H1109 0.950 . S
C1084 N1081 1.332 . S
C1084 C1083 1.382 . S
C1084 H1095 0.952 . S
C1085 C1082 1.388 . S
C1085 C1086 1.382 . S
C1085 H1110 0.950 . S
C1086 N1081 1.332 . S
C1086 C1085 1.382 . S
C1086 H1096 0.948 . S
N1087 Co1065 2.282 . S
N1087 C1091 1.332 . S
N1087 C1092 1.332 . S
C1088 C1089 1.388 . S
C1088 C1092 1.382 . S
C1088 H1111 0.950 . S
C1089 C1088 1.388 . S
C1089 C1090 1.386 . S
C1090 C1089 1.386 . S
C1090 C1091 1.382 . S
C1090 H1112 0.950 . S
C1091 N1087 1.332 . S
C1091 C1090 1.382 . S
C1091 H1093 0.952 . S
C1092 N1087 1.332 . S
C1092 C1088 1.382 . S
C1092 H1094 0.948 . S
H1093 C1091 0.952 . S
H1094 C1092 0.948 . S
H1095 C1084 0.952 . S
H1096 C1086 0.948 . S
C1097 C1063 1.395 . S
C1097 C1067 1.391 . S
C1098 C1060 1.389 . S
C1098 C1080 1.392 . S
C1099 C1070 1.392 . S
C1099 C1072 1.389 . S
C1100 C1075 1.395 . S
C1100 C1077 1.391 . S
H1101 C1061 0.951 . S
H1102 C1062 0.950 . S
H1103 C1068 0.949 . S
H1104 C1069 0.950 . S
H1105 C1073 0.951 . S
H1106 C1074 0.950 . S
H1107 C1078 0.949 . S
H1108 C1079 0.950 . S
H1109 C1083 0.950 . S
H1110 C1085 0.950 . S
H1111 C1088 0.950 . S
H1112 C1090 0.950 . S
C1113 C1114 1.443 . S
C1113 N1117 1.376 . S
C1113 C1151 1.389 . S
C1114 C1113 1.443 . S
C1114 C1115 1.340 . S
C1114 H1154 0.951 . S
C1115 C1114 1.340 . S
C1115 C1116 1.439 . S
C1115 H1155 0.950 . S
C1116 C1115 1.439 . S
C1116 N1117 1.374 . S
C1116 C1150 1.395 . S
N1117 C1113 1.376 . S
N1117 C1116 1.374 . S
N1117 Co1118 2.008 . S
Co1118 N1117 2.008 . S
Co1118 N1119 1.995 . S
Co1118 N1124 2.008 . S
Co1118 N1129 1.995 . S
Co1118 N1134 2.282 . S
Co1118 N1140 2.282 . S
N1119 Co1118 1.995 . S
N1119 C1120 1.376 . S
N1119 C1123 1.383 . S
C1120 N1119 1.376 . S
C1120 C1121 1.446 . S
C1120 C1150 1.391 . S
C1121 C1120 1.446 . S
C1121 C1122 1.339 . S
C1121 H1156 0.949 . S
C1122 C1121 1.339 . S
C1122 C1123 1.439 . S
C1122 H1157 0.950 . S
C1123 N1119 1.383 . S
C1123 C1122 1.439 . S
C1123 C1152 1.392 . S
N1124 Co1118 2.008 . S
N1124 C1125 1.376 . S
N1124 C1128 1.374 . S
C1125 N1124 1.376 . S
C1125 C1126 1.443 . S
C1125 C1152 1.389 . S
C1126 C1125 1.443 . S
C1126 C1127 1.340 . S
C1126 H1158 0.951 . S
C1127 C1126 1.340 . S
C1127 C1128 1.439 . S
C1127 H1159 0.950 . S
C1128 N1124 1.374 . S
C1128 C1127 1.439 . S
C1128 C1153 1.395 . S
N1129 Co1118 1.995 . S
N1129 C1130 1.376 . S
N1129 C1133 1.383 . S
C1130 N1129 1.376 . S
C1130 C1131 1.446 . S
C1130 C1153 1.391 . S
C1131 C1130 1.446 . S
C1131 C1132 1.339 . S
C1131 H1160 0.949 . S
C1132 C1131 1.339 . S
C1132 C1133 1.439 . S
C1132 H1161 0.950 . S
C1133 N1129 1.383 . S
C1133 C1132 1.439 . S
C1133 C1151 1.392 . S
N1134 Co1118 2.282 . S
N1134 C1137 1.332 . S
N1134 C1139 1.332 . S
C1135 C1136 1.386 . S
C1135 C1138 1.388 . S
C1136 C1135 1.386 . S
C1136 C1137 1.382 . S
C1136 H1162 0.950 . S
C1137 N1134 1.332 . S
C1137 C1136 1.382 . S
C1137 H1148 0.952 . S
C1138 C1135 1.388 . S
C1138 C1139 1.382 . S
C1138 H1163 0.950 . S
C1139 N1134 1.332 . S
C1139 C1138 1.382 . S
C1139 H1149 0.948 . S
N1140 Co1118 2.282 . S
N1140 C1144 1.332 . S
N1140 C1145 1.332 . S
C1141 C1142 1.388 . S
C1141 C1145 1.382 . S
C1141 H1164 0.950 . S
C1142 C1141 1.388 . S
C1142 C1143 1.386 . S
C1143 C1142 1.386 . S
C1143 C1144 1.382 . S
C1143 H1165 0.950 . S
C1144 N1140 1.332 . S
C1144 C1143 1.382 . S
C1144 H1146 0.952 . S
C1145 N1140 1.332 . S
C1145 C1141 1.382 . S
C1145 H1147 0.948 . S
H1146 C1144 0.952 . S
H1147 C1145 0.948 . S
H1148 C1137 0.952 . S
H1149 C1139 0.948 . S
C1150 C1116 1.395 . S
C1150 C1120 1.391 . S
C1151 C1113 1.389 . S
C1151 C1133 1.392 . S
C1152 C1123 1.392 . S
C1152 C1125 1.389 . S
C1153 C1128 1.395 . S
C1153 C1130 1.391 . S
H1154 C1114 0.951 . S
H1155 C1115 0.950 . S
H1156 C1121 0.949 . S
H1157 C1122 0.950 . S
H1158 C1126 0.951 . S
H1159 C1127 0.950 . S
H1160 C1131 0.949 . S
H1161 C1132 0.950 . S
H1162 C1136 0.950 . S
H1163 C1138 0.950 . S
H1164 C1141 0.950 . S
H1165 C1143 0.950 . S
C1166 C1167 1.443 . S
C1166 N1170 1.376 . S
C1166 C1204 1.389 . S
C1167 C1166 1.443 . S
C1167 C1168 1.340 . S
C1167 H1207 0.951 . S
C1168 C1167 1.340 . S
C1168 C1169 1.439 . S
C1168 H1208 0.950 . S
C1169 C1168 1.439 . S
C1169 N1170 1.374 . S
C1169 C1203 1.395 . S
N1170 C1166 1.376 . S
N1170 C1169 1.374 . S
N1170 Co1171 2.008 . S
Co1171 N1170 2.008 . S
Co1171 N1172 1.995 . S
Co1171 N1177 2.008 . S
Co1171 N1182 1.995 . S
Co1171 N1187 2.282 . S
Co1171 N1193 2.282 . S
N1172 Co1171 1.995 . S
N1172 C1173 1.376 . S
N1172 C1176 1.383 . S
C1173 N1172 1.376 . S
C1173 C1174 1.446 . S
C1173 C1203 1.391 . S
C1174 C1173 1.446 . S
C1174 C1175 1.339 . S
C1174 H1209 0.949 . S
C1175 C1174 1.339 . S
C1175 C1176 1.439 . S
C1175 H1210 0.950 . S
C1176 N1172 1.383 . S
C1176 C1175 1.439 . S
C1176 C1205 1.392 . S
N1177 Co1171 2.008 . S
N1177 C1178 1.376 . S
N1177 C1181 1.374 . S
C1178 N1177 1.376 . S
C1178 C1179 1.443 . S
C1178 C1205 1.389 . S
C1179 C1178 1.443 . S
C1179 C1180 1.340 . S
C1179 H1211 0.951 . S
C1180 C1179 1.340 . S
C1180 C1181 1.439 . S
C1180 H1212 0.950 . S
C1181 N1177 1.374 . S
C1181 C1180 1.439 . S
C1181 C1206 1.395 . S
N1182 Co1171 1.995 . S
N1182 C1183 1.376 . S
N1182 C1186 1.383 . S
C1183 N1182 1.376 . S
C1183 C1184 1.446 . S
C1183 C1206 1.391 . S
C1184 C1183 1.446 . S
C1184 C1185 1.339 . S
C1184 H1213 0.949 . S
C1185 C1184 1.339 . S
C1185 C1186 1.439 . S
C1185 H1214 0.950 . S
C1186 N1182 1.383 . S
C1186 C1185 1.439 . S
C1186 C1204 1.392 . S
N1187 Co1171 2.282 . S
N1187 C1190 1.332 . S
N1187 C1192 1.332 . S
C1188 C1189 1.386 . S
C1188 C1191 1.388 . S
C1189 C1188 1.386 . S
C1189 C1190 1.382 . S
C1189 H1215 0.950 . S
C1190 N1187 1.332 . S
C1190 C1189 1.382 . S
C1190 H1201 0.952 . S
C1191 C1188 1.388 . S
C1191 C1192 1.382 . S
C1191 H1216 0.950 . S
C1192 N1187 1.332 . S
C1192 C1191 1.382 . S
C1192 H1202 0.948 . S
N1193 Co1171 2.282 . S
N1193 C1197 1.332 . S
N1193 C1198 1.332 . S
C1194 C1195 1.388 . S
C1194 C1198 1.382 . S
C1194 H1217 0.950 . S
C1195 C1194 1.388 . S
C1195 C1196 1.386 . S
C1196 C1195 1.386 . S
C1196 C1197 1.382 . S
C1196 H1218 0.950 . S
C1197 N1193 1.332 . S
C1197 C1196 1.382 . S
C1197 H1199 0.952 . S
C1198 N1193 1.332 . S
C1198 C1194 1.382 . S
C1198 H1200 0.948 . S
H1199 C1197 0.952 . S
H1200 C1198 0.948 . S
H1201 C1190 0.952 . S
H1202 C1192 0.948 . S
C1203 C1169 1.395 . S
C1203 C1173 1.391 . S
C1204 C1166 1.389 . S
C1204 C1186 1.392 . S
C1205 C1176 1.392 . S
C1205 C1178 1.389 . S
C1206 C1181 1.395 . S
C1206 C1183 1.391 . S
H1207 C1167 0.951 . S
H1208 C1168 0.950 . S
H1209 C1174 0.949 . S
H1210 C1175 0.950 . S
H1211 C1179 0.951 . S
H1212 C1180 0.950 . S
H1213 C1184 0.949 . S
H1214 C1185 0.950 . S
H1215 C1189 0.950 . S
H1216 C1191 0.950 . S
H1217 C1194 0.950 . S
H1218 C1196 0.950 . S
C1219 C1220 1.443 . S
C1219 N1223 1.376 . S
C1219 C1257 1.389 . S
C1220 C1219 1.443 . S
C1220 C1221 1.340 . S
C1220 H1260 0.951 . S
C1221 C1220 1.340 . S
C1221 C1222 1.439 . S
C1221 H1261 0.950 . S
C1222 C1221 1.439 . S
C1222 N1223 1.374 . S
C1222 C1256 1.395 . S
N1223 C1219 1.376 . S
N1223 C1222 1.374 . S
N1223 Co1224 2.008 . S
Co1224 N1223 2.008 . S
Co1224 N1225 1.995 . S
Co1224 N1230 2.008 . S
Co1224 N1235 1.995 . S
Co1224 N1240 2.282 . S
Co1224 N1246 2.282 . S
N1225 Co1224 1.995 . S
N1225 C1226 1.376 . S
N1225 C1229 1.383 . S
C1226 N1225 1.376 . S
C1226 C1227 1.446 . S
C1226 C1256 1.391 . S
C1227 C1226 1.446 . S
C1227 C1228 1.339 . S
C1227 H1262 0.949 . S
C1228 C1227 1.339 . S
C1228 C1229 1.439 . S
C1228 H1263 0.950 . S
C1229 N1225 1.383 . S
C1229 C1228 1.439 . S
C1229 C1258 1.392 . S
N1230 Co1224 2.008 . S
N1230 C1231 1.376 . S
N1230 C1234 1.374 . S
C1231 N1230 1.376 . S
C1231 C1232 1.443 . S
C1231 C1258 1.389 . S
C1232 C1231 1.443 . S
C1232 C1233 1.340 . S
C1232 H1264 0.951 . S
C1233 C1232 1.340 . S
C1233 C1234 1.439 . S
C1233 H1265 0.950 . S
C1234 N1230 1.374 . S
C1234 C1233 1.439 . S
C1234 C1259 1.395 . S
N1235 Co1224 1.995 . S
N1235 C1236 1.376 . S
N1235 C1239 1.383 . S
C1236 N1235 1.376 . S
C1236 C1237 1.446 . S
C1236 C1259 1.391 . S
C1237 C1236 1.446 . S
C1237 C1238 1.339 . S
C1237 H1266 0.949 . S
C1238 C1237 1.339 . S
C1238 C1239 1.439 . S
C1238 H1267 0.950 . S
C1239 N1235 1.383 . S
C1239 C1238 1.439 . S
C1239 C1257 1.392 . S
N1240 Co1224 2.282 . S
N1240 C1243 1.332 . S
N1240 C1245 1.332 . S
C1241 C1242 1.386 . S
C1241 C1244 1.388 . S
C1242 C1241 1.386 . S
C1242 C1243 1.382 . S
C1242 H1268 0.950 . S
C1243 N1240 1.332 . S
C1243 C1242 1.382 . S
C1243 H1254 0.952 . S
C1244 C1241 1.388 . S
C1244 C1245 1.382 . S
C1244 H1269 0.950 . S
C1245 N1240 1.332 . S
C1245 C1244 1.382 . S
C1245 H1255 0.948 . S
N1246 Co1224 2.282 . S
N1246 C1250 1.332 . S
N1246 C1251 1.332 . S
C1247 C1248 1.388 . S
C1247 C1251 1.382 . S
C1247 H1270 0.950 . S
C1248 C1247 1.388 . S
C1248 C1249 1.386 . S
C1249 C1248 1.386 . S
C1249 C1250 1.382 . S
C1249 H1271 0.950 . S
C1250 N1246 1.332 . S
C1250 C1249 1.382 . S
C1250 H1252 0.952 . S
C1251 N1246 1.332 . S
C1251 C1247 1.382 . S
C1251 H1253 0.948 . S
H1252 C1250 0.952 . S
H1253 C1251 0.948 . S
H1254 C1243 0.952 . S
H1255 C1245 0.948 . S
C1256 C1222 1.395 . S
C1256 C1226 1.391 . S
C1257 C1219 1.389 . S
C1257 C1239 1.392 . S
C1258 C1229 1.392 . S
C1258 C1231 1.389 . S
C1259 C1234 1.395 . S
C1259 C1236 1.391 . S
H1260 C1220 0.951 . S
H1261 C1221 0.950 . S
H1262 C1227 0.949 . S
H1263 C1228 0.950 . S
H1264 C1232 0.951 . S
H1265 C1233 0.950 . S
H1266 C1237 0.949 . S
H1267 C1238 0.950 . S
H1268 C1242 0.950 . S
H1269 C1244 0.950 . S
H1270 C1247 0.950 . S
H1271 C1249 0.950 . S
C1272 C1273 1.443 . S
C1272 N1276 1.376 . S
C1272 C1310 1.389 . S
C1273 C1272 1.443 . S
C1273 C1274 1.340 . S
C1273 H1313 0.951 . S
C1274 C1273 1.340 . S
C1274 C1275 1.439 . S
C1274 H1314 0.950 . S
C1275 C1274 1.439 . S
C1275 N1276 1.374 . S
C1275 C1309 1.395 1_554 S
N1276 C1272 1.376 . S
N1276 C1275 1.374 . S
N1276 Co1277 2.008 . S
Co1277 N1276 2.008 . S
Co1277 N1278 1.995 1_554 S
Co1277 N1283 2.008 1_554 S
Co1277 N1288 1.995 . S
Co1277 N1293 2.282 . S
Co1277 N1299 2.282 . S
N1278 Co1277 1.995 1_556 S
N1278 C1279 1.376 . S
N1278 C1282 1.383 . S
C1279 N1278 1.376 . S
C1279 C1280 1.446 . S
C1279 C1309 1.391 . S
C1280 C1279 1.446 . S
C1280 C1281 1.339 . S
C1280 H1315 0.949 . S
C1281 C1280 1.339 . S
C1281 C1282 1.439 . S
C1281 H1316 0.950 . S
C1282 N1278 1.383 . S
C1282 C1281 1.439 . S
C1282 C1311 1.392 . S
N1283 Co1277 2.008 1_556 S
N1283 C1284 1.376 . S
N1283 C1287 1.374 1_556 S
C1284 N1283 1.376 . S
C1284 C1285 1.443 . S
C1284 C1311 1.389 . S
C1285 C1284 1.443 . S
C1285 C1286 1.340 . S
C1285 H1317 0.951 . S
C1286 C1285 1.340 . S
C1286 C1287 1.439 1_556 S
C1286 H1318 0.950 . S
C1287 N1283 1.374 1_554 S
C1287 C1286 1.439 1_554 S
C1287 C1312 1.395 . S
N1288 Co1277 1.995 . S
N1288 C1289 1.376 . S
N1288 C1292 1.383 . S
C1289 N1288 1.376 . S
C1289 C1290 1.446 . S
C1289 C1312 1.391 . S
C1290 C1289 1.446 . S
C1290 C1291 1.339 . S
C1290 H1319 0.949 . S
C1291 C1290 1.339 . S
C1291 C1292 1.439 . S
C1291 H1320 0.950 . S
C1292 N1288 1.383 . S
C1292 C1291 1.439 . S
C1292 C1310 1.392 . S
N1293 Co1277 2.282 . S
N1293 C1296 1.332 . S
N1293 C1298 1.332 1_554 S
C1294 C1295 1.386 . S
C1294 C1297 1.388 1_554 S
C1295 C1294 1.386 . S
C1295 C1296 1.382 . S
C1295 H1321 0.950 . S
C1296 N1293 1.332 . S
C1296 C1295 1.382 . S
C1296 H1307 0.952 . S
C1297 C1294 1.388 1_556 S
C1297 C1298 1.382 . S
C1297 H1322 0.950 . S
C1298 N1293 1.332 1_556 S
C1298 C1297 1.382 . S
C1298 H1308 0.948 . S
N1299 Co1277 2.282 . S
N1299 C1303 1.332 1_554 S
N1299 C1304 1.332 . S
C1300 C1301 1.388 . S
C1300 C1304 1.382 . S
C1300 H1323 0.950 . S
C1301 C1300 1.388 . S
C1301 C1302 1.386 1_554 S
C1302 C1301 1.386 1_556 S
C1302 C1303 1.382 . S
C1302 H1324 0.950 . S
C1303 N1299 1.332 1_556 S
C1303 C1302 1.382 . S
C1303 H1305 0.952 . S
C1304 N1299 1.332 . S
C1304 C1300 1.382 . S
C1304 H1306 0.948 . S
H1305 C1303 0.952 . S
H1306 C1304 0.948 . S
H1307 C1296 0.952 . S
H1308 C1298 0.948 . S
C1309 C1275 1.395 1_556 S
C1309 C1279 1.391 . S
C1310 C1272 1.389 . S
C1310 C1292 1.392 . S
C1311 C1282 1.392 . S
C1311 C1284 1.389 . S
C1312 C1287 1.395 . S
C1312 C1289 1.391 . S
H1313 C1273 0.951 . S
H1314 C1274 0.950 . S
H1315 C1280 0.949 . S
H1316 C1281 0.950 . S
H1317 C1285 0.951 . S
H1318 C1286 0.950 . S
H1319 C1290 0.949 . S
H1320 C1291 0.950 . S
H1321 C1295 0.950 . S
H1322 C1297 0.950 . S
H1323 C1300 0.950 . S
H1324 C1302 0.950 . S
C1325 C1326 1.443 . S
C1325 N1329 1.376 . S
C1325 C1363 1.389 . S
C1326 C1325 1.443 . S
C1326 C1327 1.340 . S
C1326 H1366 0.951 . S
C1327 C1326 1.340 . S
C1327 C1328 1.439 . S
C1327 H1367 0.950 . S
C1328 C1327 1.439 . S
C1328 N1329 1.374 . S
C1328 C1362 1.395 1_554 S
N1329 C1325 1.376 . S
N1329 C1328 1.374 . S
N1329 Co1330 2.008 . S
Co1330 N1329 2.008 . S
Co1330 N1331 1.995 1_554 S
Co1330 N1336 2.008 1_554 S
Co1330 N1341 1.995 . S
Co1330 N1346 2.282 . S
Co1330 N1352 2.282 . S
N1331 Co1330 1.995 1_556 S
N1331 C1332 1.376 . S
N1331 C1335 1.383 . S
C1332 N1331 1.376 . S
C1332 C1333 1.446 . S
C1332 C1362 1.391 . S
C1333 C1332 1.446 . S
C1333 C1334 1.339 . S
C1333 H1368 0.949 . S
C1334 C1333 1.339 . S
C1334 C1335 1.439 . S
C1334 H1369 0.950 . S
C1335 N1331 1.383 . S
C1335 C1334 1.439 . S
C1335 C1364 1.392 . S
N1336 Co1330 2.008 1_556 S
N1336 C1337 1.376 . S
N1336 C1340 1.374 1_556 S
C1337 N1336 1.376 . S
C1337 C1338 1.443 . S
C1337 C1364 1.389 . S
C1338 C1337 1.443 . S
C1338 C1339 1.340 . S
C1338 H1370 0.951 . S
C1339 C1338 1.340 . S
C1339 C1340 1.439 1_556 S
C1339 H1371 0.950 . S
C1340 N1336 1.374 1_554 S
C1340 C1339 1.439 1_554 S
C1340 C1365 1.395 . S
N1341 Co1330 1.995 . S
N1341 C1342 1.376 . S
N1341 C1345 1.383 . S
C1342 N1341 1.376 . S
C1342 C1343 1.446 . S
C1342 C1365 1.391 . S
C1343 C1342 1.446 . S
C1343 C1344 1.339 . S
C1343 H1372 0.949 . S
C1344 C1343 1.339 . S
C1344 C1345 1.439 . S
C1344 H1373 0.950 . S
C1345 N1341 1.383 . S
C1345 C1344 1.439 . S
C1345 C1363 1.392 . S
N1346 Co1330 2.282 . S
N1346 C1349 1.332 . S
N1346 C1351 1.332 1_554 S
C1347 C1348 1.386 . S
C1347 C1350 1.388 1_554 S
C1348 C1347 1.386 . S
C1348 C1349 1.382 . S
C1348 H1374 0.950 . S
C1349 N1346 1.332 . S
C1349 C1348 1.382 . S
C1349 H1360 0.952 . S
C1350 C1347 1.388 1_556 S
C1350 C1351 1.382 . S
C1350 H1375 0.950 . S
C1351 N1346 1.332 1_556 S
C1351 C1350 1.382 . S
C1351 H1361 0.948 . S
N1352 Co1330 2.282 . S
N1352 C1356 1.332 1_554 S
N1352 C1357 1.332 . S
C1353 C1354 1.388 . S
C1353 C1357 1.382 . S
C1353 H1376 0.950 . S
C1354 C1353 1.388 . S
C1354 C1355 1.386 1_554 S
C1355 C1354 1.386 1_556 S
C1355 C1356 1.382 . S
C1355 H1377 0.950 . S
C1356 N1352 1.332 1_556 S
C1356 C1355 1.382 . S
C1356 H1358 0.952 . S
C1357 N1352 1.332 . S
C1357 C1353 1.382 . S
C1357 H1359 0.948 . S
H1358 C1356 0.952 . S
H1359 C1357 0.948 . S
H1360 C1349 0.952 . S
H1361 C1351 0.948 . S
C1362 C1328 1.395 1_556 S
C1362 C1332 1.391 . S
C1363 C1325 1.389 . S
C1363 C1345 1.392 . S
C1364 C1335 1.392 . S
C1364 C1337 1.389 . S
C1365 C1340 1.395 . S
C1365 C1342 1.391 . S
H1366 C1326 0.951 . S
H1367 C1327 0.950 . S
H1368 C1333 0.949 . S
H1369 C1334 0.950 . S
H1370 C1338 0.951 . S
H1371 C1339 0.950 . S
H1372 C1343 0.949 . S
H1373 C1344 0.950 . S
H1374 C1348 0.950 . S
H1375 C1350 0.950 . S
H1376 C1353 0.950 . S
H1377 C1355 0.950 . S
C1378 C1379 1.443 . S
C1378 N1382 1.376 . S
C1378 C1416 1.389 . S
C1379 C1378 1.443 . S
C1379 C1380 1.340 . S
C1379 H1419 0.951 . S
C1380 C1379 1.340 . S
C1380 C1381 1.439 . S
C1380 H1420 0.950 . S
C1381 C1380 1.439 . S
C1381 N1382 1.374 . S
C1381 C1415 1.395 . S
N1382 C1378 1.376 . S
N1382 C1381 1.374 . S
N1382 Co1383 2.008 . S
Co1383 N1382 2.008 . S
Co1383 N1384 1.995 . S
Co1383 N1389 2.008 . S
Co1383 N1394 1.995 . S
Co1383 N1399 2.282 . S
Co1383 N1405 2.282 . S
N1384 Co1383 1.995 . S
N1384 C1385 1.376 . S
N1384 C1388 1.383 . S
C1385 N1384 1.376 . S
C1385 C1386 1.446 . S
C1385 C1415 1.391 . S
C1386 C1385 1.446 . S
C1386 C1387 1.339 . S
C1386 H1421 0.949 . S
C1387 C1386 1.339 . S
C1387 C1388 1.439 . S
C1387 H1422 0.950 . S
C1388 N1384 1.383 . S
C1388 C1387 1.439 . S
C1388 C1417 1.392 . S
N1389 Co1383 2.008 . S
N1389 C1390 1.376 . S
N1389 C1393 1.374 . S
C1390 N1389 1.376 . S
C1390 C1391 1.443 . S
C1390 C1417 1.389 . S
C1391 C1390 1.443 . S
C1391 C1392 1.340 . S
C1391 H1423 0.951 . S
C1392 C1391 1.340 . S
C1392 C1393 1.439 . S
C1392 H1424 0.950 . S
C1393 N1389 1.374 . S
C1393 C1392 1.439 . S
C1393 C1418 1.395 . S
N1394 Co1383 1.995 . S
N1394 C1395 1.376 . S
N1394 C1398 1.383 . S
C1395 N1394 1.376 . S
C1395 C1396 1.446 . S
C1395 C1418 1.391 . S
C1396 C1395 1.446 . S
C1396 C1397 1.339 . S
C1396 H1425 0.949 . S
C1397 C1396 1.339 . S
C1397 C1398 1.439 . S
C1397 H1426 0.950 . S
C1398 N1394 1.383 . S
C1398 C1397 1.439 . S
C1398 C1416 1.392 . S
N1399 Co1383 2.282 . S
N1399 C1402 1.332 . S
N1399 C1404 1.332 . S
C1400 C1401 1.386 . S
C1400 C1403 1.388 . S
C1401 C1400 1.386 . S
C1401 C1402 1.382 . S
C1401 H1427 0.950 . S
C1402 N1399 1.332 . S
C1402 C1401 1.382 . S
C1402 H1413 0.952 . S
C1403 C1400 1.388 . S
C1403 C1404 1.382 . S
C1403 H1428 0.950 . S
C1404 N1399 1.332 . S
C1404 C1403 1.382 . S
C1404 H1414 0.948 . S
N1405 Co1383 2.282 . S
N1405 C1409 1.332 . S
N1405 C1410 1.332 . S
C1406 C1407 1.388 . S
C1406 C1410 1.382 . S
C1406 H1429 0.950 . S
C1407 C1406 1.388 . S
C1407 C1408 1.386 . S
C1408 C1407 1.386 . S
C1408 C1409 1.382 . S
C1408 H1430 0.950 . S
C1409 N1405 1.332 . S
C1409 C1408 1.382 . S
C1409 H1411 0.952 . S
C1410 N1405 1.332 . S
C1410 C1406 1.382 . S
C1410 H1412 0.948 . S
H1411 C1409 0.952 . S
H1412 C1410 0.948 . S
H1413 C1402 0.952 . S
H1414 C1404 0.948 . S
C1415 C1381 1.395 . S
C1415 C1385 1.391 . S
C1416 C1378 1.389 . S
C1416 C1398 1.392 . S
C1417 C1388 1.392 . S
C1417 C1390 1.389 . S
C1418 C1393 1.395 . S
C1418 C1395 1.391 . S
H1419 C1379 0.951 . S
H1420 C1380 0.950 . S
H1421 C1386 0.949 . S
H1422 C1387 0.950 . S
H1423 C1391 0.951 . S
H1424 C1392 0.950 . S
H1425 C1396 0.949 . S
H1426 C1397 0.950 . S
H1427 C1401 0.950 . S
H1428 C1403 0.950 . S
H1429 C1406 0.950 . S
H1430 C1408 0.950 . S
C1431 C1432 1.443 . S
C1431 N1435 1.376 . S
C1431 C1469 1.389 . S
C1432 C1431 1.443 . S
C1432 C1433 1.340 . S
C1432 H1472 0.951 . S
C1433 C1432 1.340 . S
C1433 C1434 1.439 . S
C1433 H1473 0.950 . S
C1434 C1433 1.439 . S
C1434 N1435 1.374 . S
C1434 C1468 1.395 . S
N1435 C1431 1.376 . S
N1435 C1434 1.374 . S
N1435 Co1436 2.008 . S
Co1436 N1435 2.008 . S
Co1436 N1437 1.995 . S
Co1436 N1442 2.008 . S
Co1436 N1447 1.995 . S
Co1436 N1452 2.282 . S
Co1436 N1458 2.282 . S
N1437 Co1436 1.995 . S
N1437 C1438 1.376 . S
N1437 C1441 1.383 . S
C1438 N1437 1.376 . S
C1438 C1439 1.446 . S
C1438 C1468 1.391 . S
C1439 C1438 1.446 . S
C1439 C1440 1.339 . S
C1439 H1474 0.949 . S
C1440 C1439 1.339 . S
C1440 C1441 1.439 . S
C1440 H1475 0.950 . S
C1441 N1437 1.383 . S
C1441 C1440 1.439 . S
C1441 C1470 1.392 . S
N1442 Co1436 2.008 . S
N1442 C1443 1.376 . S
N1442 C1446 1.374 . S
C1443 N1442 1.376 . S
C1443 C1444 1.443 . S
C1443 C1470 1.389 . S
C1444 C1443 1.443 . S
C1444 C1445 1.340 . S
C1444 H1476 0.951 . S
C1445 C1444 1.340 . S
C1445 C1446 1.439 . S
C1445 H1477 0.950 . S
C1446 N1442 1.374 . S
C1446 C1445 1.439 . S
C1446 C1471 1.395 . S
N1447 Co1436 1.995 . S
N1447 C1448 1.376 . S
N1447 C1451 1.383 . S
C1448 N1447 1.376 . S
C1448 C1449 1.446 . S
C1448 C1471 1.391 . S
C1449 C1448 1.446 . S
C1449 C1450 1.339 . S
C1449 H1478 0.949 . S
C1450 C1449 1.339 . S
C1450 C1451 1.439 . S
C1450 H1479 0.950 . S
C1451 N1447 1.383 . S
C1451 C1450 1.439 . S
C1451 C1469 1.392 . S
N1452 Co1436 2.282 . S
N1452 C1455 1.332 . S
N1452 C1457 1.332 . S
C1453 C1454 1.386 . S
C1453 C1456 1.388 . S
C1454 C1453 1.386 . S
C1454 C1455 1.382 . S
C1454 H1480 0.950 . S
C1455 N1452 1.332 . S
C1455 C1454 1.382 . S
C1455 H1466 0.952 . S
C1456 C1453 1.388 . S
C1456 C1457 1.382 . S
C1456 H1481 0.950 . S
C1457 N1452 1.332 . S
C1457 C1456 1.382 . S
C1457 H1467 0.948 . S
N1458 Co1436 2.282 . S
N1458 C1462 1.332 . S
N1458 C1463 1.332 . S
C1459 C1460 1.388 . S
C1459 C1463 1.382 . S
C1459 H1482 0.950 . S
C1460 C1459 1.388 . S
C1460 C1461 1.386 . S
C1461 C1460 1.386 . S
C1461 C1462 1.382 . S
C1461 H1483 0.950 . S
C1462 N1458 1.332 . S
C1462 C1461 1.382 . S
C1462 H1464 0.952 . S
C1463 N1458 1.332 . S
C1463 C1459 1.382 . S
C1463 H1465 0.948 . S
H1464 C1462 0.952 . S
H1465 C1463 0.948 . S
H1466 C1455 0.952 . S
H1467 C1457 0.948 . S
C1468 C1434 1.395 . S
C1468 C1438 1.391 . S
C1469 C1431 1.389 . S
C1469 C1451 1.392 . S
C1470 C1441 1.392 . S
C1470 C1443 1.389 . S
C1471 C1446 1.395 . S
C1471 C1448 1.391 . S
H1472 C1432 0.951 . S
H1473 C1433 0.950 . S
H1474 C1439 0.949 . S
H1475 C1440 0.950 . S
H1476 C1444 0.951 . S
H1477 C1445 0.950 . S
H1478 C1449 0.949 . S
H1479 C1450 0.950 . S
H1480 C1454 0.950 . S
H1481 C1456 0.950 . S
H1482 C1459 0.950 . S
H1483 C1461 0.950 . S
C1484 C1485 1.443 . S
C1484 N1488 1.376 . S
C1484 C1522 1.389 . S
C1485 C1484 1.443 . S
C1485 C1486 1.340 . S
C1485 H1525 0.951 . S
C1486 C1485 1.340 . S
C1486 C1487 1.439 . S
C1486 H1526 0.950 . S
C1487 C1486 1.439 . S
C1487 N1488 1.374 . S
C1487 C1521 1.395 . S
N1488 C1484 1.376 . S
N1488 C1487 1.374 . S
N1488 Co1489 2.008 . S
Co1489 N1488 2.008 . S
Co1489 N1490 1.995 1_556 S
Co1489 N1495 2.008 1_556 S
Co1489 N1500 1.995 . S
Co1489 N1505 2.282 . S
Co1489 N1511 2.280 1_556 S
N1490 Co1489 1.995 1_554 S
N1490 C1491 1.376 1_554 S
N1490 C1494 1.383 . S
C1491 N1490 1.376 1_556 S
C1491 C1492 1.446 1_556 S
C1491 C1521 1.391 . S
C1492 C1491 1.446 1_554 S
C1492 C1493 1.339 . S
C1492 H1527 0.949 . S
C1493 C1492 1.339 . S
C1493 C1494 1.439 . S
C1493 H1528 0.950 . S
C1494 N1490 1.383 . S
C1494 C1493 1.439 . S
C1494 C1523 1.392 . S
N1495 Co1489 2.008 1_554 S
N1495 C1496 1.376 . S
N1495 C1499 1.374 . S
C1496 N1495 1.376 . S
C1496 C1497 1.443 . S
C1496 C1523 1.389 . S
C1497 C1496 1.443 . S
C1497 C1498 1.340 . S
C1497 H1529 0.951 . S
C1498 C1497 1.340 . S
C1498 C1499 1.439 . S
C1498 H1530 0.950 . S
C1499 N1495 1.374 . S
C1499 C1498 1.439 . S
C1499 C1524 1.395 . S
N1500 Co1489 1.995 . S
N1500 C1501 1.376 . S
N1500 C1504 1.383 . S
C1501 N1500 1.376 . S
C1501 C1502 1.446 . S
C1501 C1524 1.391 1_556 S
C1502 C1501 1.446 . S
C1502 C1503 1.339 . S
C1502 H1531 0.949 . S
C1503 C1502 1.339 . S
C1503 C1504 1.439 . S
C1503 H1532 0.950 . S
C1504 N1500 1.383 . S
C1504 C1503 1.439 . S
C1504 C1522 1.392 . S
N1505 Co1489 2.282 . S
N1505 C1508 1.332 . S
N1505 C1510 1.332 . S
C1506 C1507 1.385 1_556 S
C1506 C1509 1.388 . S
C1507 C1506 1.385 1_554 S
C1507 C1508 1.381 1_554 S
C1507 H1533 0.951 . S
C1508 N1505 1.332 . S
C1508 C1507 1.381 1_556 S
C1508 H1519 0.952 . S
C1509 C1506 1.388 . S
C1509 C1510 1.382 . S
C1509 H1534 0.950 . S
C1510 N1505 1.332 . S
C1510 C1509 1.382 . S
C1510 H1520 0.948 . S
N1511 Co1489 2.280 1_554 S
N1511 C1515 1.327 1_554 S
N1511 C1516 1.334 . S
C1512 C1513 1.391 . S
C1512 C1516 1.381 1_556 S
C1512 H1535 0.949 1_556 S
C1513 C1512 1.391 . S
C1513 C1514 1.386 . S
C1514 C1513 1.386 . S
C1514 C1515 1.382 . S
C1514 H1536 0.950 . S
C1515 N1511 1.327 1_556 S
C1515 C1514 1.382 . S
C1515 H1517 0.952 . S
C1516 N1511 1.334 . S
C1516 C1512 1.381 1_554 S
C1516 H1518 0.948 . S
H1517 C1515 0.952 . S
H1518 C1516 0.948 . S
H1519 C1508 0.952 . S
H1520 C1510 0.948 . S
C1521 C1487 1.395 . S
C1521 C1491 1.391 . S
C1522 C1484 1.389 . S
C1522 C1504 1.392 . S
C1523 C1494 1.392 . S
C1523 C1496 1.389 . S
C1524 C1499 1.395 . S
C1524 C1501 1.391 1_554 S
H1525 C1485 0.951 . S
H1526 C1486 0.950 . S
H1527 C1492 0.949 . S
H1528 C1493 0.950 . S
H1529 C1497 0.951 . S
H1530 C1498 0.950 . S
H1531 C1502 0.949 . S
H1532 C1503 0.950 . S
H1533 C1507 0.951 . S
H1534 C1509 0.950 . S
H1535 C1512 0.949 1_554 S
H1536 C1514 0.950 . S
C1537 C1538 1.443 . S
C1537 N1541 1.376 . S
C1537 C1575 1.389 . S
C1538 C1537 1.443 . S
C1538 C1539 1.340 . S
C1538 H1578 0.951 . S
C1539 C1538 1.340 . S
C1539 C1540 1.439 . S
C1539 H1579 0.950 . S
C1540 C1539 1.439 . S
C1540 N1541 1.374 . S
C1540 C1574 1.395 . S
N1541 C1537 1.376 . S
N1541 C1540 1.374 . S
N1541 Co1542 2.008 . S
Co1542 N1541 2.008 . S
Co1542 N1543 1.995 1_556 S
Co1542 N1548 2.008 1_556 S
Co1542 N1553 1.995 . S
Co1542 N1558 2.282 . S
Co1542 N1564 2.280 1_556 S
N1543 Co1542 1.995 1_554 S
N1543 C1544 1.376 1_554 S
N1543 C1547 1.383 . S
C1544 N1543 1.376 1_556 S
C1544 C1545 1.446 1_556 S
C1544 C1574 1.391 . S
C1545 C1544 1.446 1_554 S
C1545 C1546 1.339 . S
C1545 H1580 0.949 . S
C1546 C1545 1.339 . S
C1546 C1547 1.439 . S
C1546 H1581 0.950 . S
C1547 N1543 1.383 . S
C1547 C1546 1.439 . S
C1547 C1576 1.392 . S
N1548 Co1542 2.008 1_554 S
N1548 C1549 1.376 . S
N1548 C1552 1.374 . S
C1549 N1548 1.376 . S
C1549 C1550 1.443 . S
C1549 C1576 1.389 . S
C1550 C1549 1.443 . S
C1550 C1551 1.340 . S
C1550 H1582 0.951 . S
C1551 C1550 1.340 . S
C1551 C1552 1.439 . S
C1551 H1583 0.950 . S
C1552 N1548 1.374 . S
C1552 C1551 1.439 . S
C1552 C1577 1.395 . S
N1553 Co1542 1.995 . S
N1553 C1554 1.376 . S
N1553 C1557 1.383 . S
C1554 N1553 1.376 . S
C1554 C1555 1.446 . S
C1554 C1577 1.391 1_556 S
C1555 C1554 1.446 . S
C1555 C1556 1.339 . S
C1555 H1584 0.949 . S
C1556 C1555 1.339 . S
C1556 C1557 1.439 . S
C1556 H1585 0.950 . S
C1557 N1553 1.383 . S
C1557 C1556 1.439 . S
C1557 C1575 1.392 . S
N1558 Co1542 2.282 . S
N1558 C1561 1.332 . S
N1558 C1563 1.332 . S
C1559 C1560 1.385 1_556 S
C1559 C1562 1.388 . S
C1560 C1559 1.385 1_554 S
C1560 C1561 1.381 1_554 S
C1560 H1586 0.951 . S
C1561 N1558 1.332 . S
C1561 C1560 1.381 1_556 S
C1561 H1572 0.952 . S
C1562 C1559 1.388 . S
C1562 C1563 1.382 . S
C1562 H1587 0.950 . S
C1563 N1558 1.332 . S
C1563 C1562 1.382 . S
C1563 H1573 0.948 . S
N1564 Co1542 2.280 1_554 S
N1564 C1568 1.328 1_554 S
N1564 C1569 1.334 . S
C1565 C1566 1.391 . S
C1565 C1569 1.381 1_556 S
C1565 H1588 0.949 1_556 S
C1566 C1565 1.391 . S
C1566 C1567 1.386 . S
C1567 C1566 1.386 . S
C1567 C1568 1.382 . S
C1567 H1589 0.950 . S
C1568 N1564 1.328 1_556 S
C1568 C1567 1.382 . S
C1568 H1570 0.952 . S
C1569 N1564 1.334 . S
C1569 C1565 1.381 1_554 S
C1569 H1571 0.948 . S
H1570 C1568 0.952 . S
H1571 C1569 0.948 . S
H1572 C1561 0.952 . S
H1573 C1563 0.948 . S
C1574 C1540 1.395 . S
C1574 C1544 1.391 . S
C1575 C1537 1.389 . S
C1575 C1557 1.392 . S
C1576 C1547 1.392 . S
C1576 C1549 1.389 . S
C1577 C1552 1.395 . S
C1577 C1554 1.391 1_554 S
H1578 C1538 0.951 . S
H1579 C1539 0.950 . S
H1580 C1545 0.949 . S
H1581 C1546 0.950 . S
H1582 C1550 0.951 . S
H1583 C1551 0.950 . S
H1584 C1555 0.949 . S
H1585 C1556 0.950 . S
H1586 C1560 0.951 . S
H1587 C1562 0.950 . S
H1588 C1565 0.949 1_554 S
H1589 C1567 0.950 . S
C1590 C1591 1.443 . S
C1590 N1594 1.376 . S
C1590 C1628 1.389 . S
C1591 C1590 1.443 . S
C1591 C1592 1.340 . S
C1591 H1631 0.951 . S
C1592 C1591 1.340 . S
C1592 C1593 1.439 . S
C1592 H1632 0.950 . S
C1593 C1592 1.439 . S
C1593 N1594 1.374 . S
C1593 C1627 1.395 . S
N1594 C1590 1.376 . S
N1594 C1593 1.374 . S
N1594 Co1595 2.008 . S
Co1595 N1594 2.008 . S
Co1595 N1596 1.995 . S
Co1595 N1601 2.008 . S
Co1595 N1606 1.995 . S
Co1595 N1611 2.282 . S
Co1595 N1617 2.282 . S
N1596 Co1595 1.995 . S
N1596 C1597 1.376 . S
N1596 C1600 1.383 . S
C1597 N1596 1.376 . S
C1597 C1598 1.446 . S
C1597 C1627 1.391 . S
C1598 C1597 1.446 . S
C1598 C1599 1.339 . S
C1598 H1633 0.949 . S
C1599 C1598 1.339 . S
C1599 C1600 1.439 . S
C1599 H1634 0.950 . S
C1600 N1596 1.383 . S
C1600 C1599 1.439 . S
C1600 C1629 1.392 . S
N1601 Co1595 2.008 . S
N1601 C1602 1.376 . S
N1601 C1605 1.374 . S
C1602 N1601 1.376 . S
C1602 C1603 1.443 . S
C1602 C1629 1.389 . S
C1603 C1602 1.443 . S
C1603 C1604 1.340 . S
C1603 H1635 0.951 . S
C1604 C1603 1.340 . S
C1604 C1605 1.439 . S
C1604 H1636 0.950 . S
C1605 N1601 1.374 . S
C1605 C1604 1.439 . S
C1605 C1630 1.395 . S
N1606 Co1595 1.995 . S
N1606 C1607 1.376 . S
N1606 C1610 1.383 . S
C1607 N1606 1.376 . S
C1607 C1608 1.446 . S
C1607 C1630 1.391 . S
C1608 C1607 1.446 . S
C1608 C1609 1.339 . S
C1608 H1637 0.949 . S
C1609 C1608 1.339 . S
C1609 C1610 1.439 . S
C1609 H1638 0.950 . S
C1610 N1606 1.383 . S
C1610 C1609 1.439 . S
C1610 C1628 1.392 . S
N1611 Co1595 2.282 . S
N1611 C1614 1.332 . S
N1611 C1616 1.332 . S
C1612 C1613 1.386 . S
C1612 C1615 1.388 . S
C1613 C1612 1.386 . S
C1613 C1614 1.382 . S
C1613 H1639 0.950 . S
C1614 N1611 1.332 . S
C1614 C1613 1.382 . S
C1614 H1625 0.952 . S
C1615 C1612 1.388 . S
C1615 C1616 1.382 . S
C1615 H1640 0.950 . S
C1616 N1611 1.332 . S
C1616 C1615 1.382 . S
C1616 H1626 0.948 . S
N1617 Co1595 2.282 . S
N1617 C1621 1.332 . S
N1617 C1622 1.332 . S
C1618 C1619 1.388 . S
C1618 C1622 1.382 . S
C1618 H1641 0.950 . S
C1619 C1618 1.388 . S
C1619 C1620 1.386 . S
C1620 C1619 1.386 . S
C1620 C1621 1.382 . S
C1620 H1642 0.950 . S
C1621 N1617 1.332 . S
C1621 C1620 1.382 . S
C1621 H1623 0.952 . S
C1622 N1617 1.332 . S
C1622 C1618 1.382 . S
C1622 H1624 0.948 . S
H1623 C1621 0.952 . S
H1624 C1622 0.948 . S
H1625 C1614 0.952 . S
H1626 C1616 0.948 . S
C1627 C1593 1.395 . S
C1627 C1597 1.391 . S
C1628 C1590 1.389 . S
C1628 C1610 1.392 . S
C1629 C1600 1.392 . S
C1629 C1602 1.389 . S
C1630 C1605 1.395 . S
C1630 C1607 1.391 . S
H1631 C1591 0.951 . S
H1632 C1592 0.950 . S
H1633 C1598 0.949 . S
H1634 C1599 0.950 . S
H1635 C1603 0.951 . S
H1636 C1604 0.950 . S
H1637 C1608 0.949 . S
H1638 C1609 0.950 . S
H1639 C1613 0.950 . S
H1640 C1615 0.950 . S
H1641 C1618 0.950 . S
H1642 C1620 0.950 . S
C1643 C1644 1.443 . S
C1643 N1647 1.376 . S
C1643 C1681 1.389 . S
C1644 C1643 1.443 . S
C1644 C1645 1.340 . S
C1644 H1684 0.951 . S
C1645 C1644 1.340 . S
C1645 C1646 1.439 . S
C1645 H1685 0.950 . S
C1646 C1645 1.439 . S
C1646 N1647 1.374 . S
C1646 C1680 1.395 . S
N1647 C1643 1.376 . S
N1647 C1646 1.374 . S
N1647 Co1648 2.008 . S
Co1648 N1647 2.008 . S
Co1648 N1649 1.995 . S
Co1648 N1654 2.008 . S
Co1648 N1659 1.995 . S
Co1648 N1664 2.282 . S
Co1648 N1670 2.282 . S
N1649 Co1648 1.995 . S
N1649 C1650 1.376 . S
N1649 C1653 1.383 . S
C1650 N1649 1.376 . S
C1650 C1651 1.446 . S
C1650 C1680 1.391 . S
C1651 C1650 1.446 . S
C1651 C1652 1.339 . S
C1651 H1686 0.949 . S
C1652 C1651 1.339 . S
C1652 C1653 1.439 . S
C1652 H1687 0.950 . S
C1653 N1649 1.383 . S
C1653 C1652 1.439 . S
C1653 C1682 1.392 . S
N1654 Co1648 2.008 . S
N1654 C1655 1.376 . S
N1654 C1658 1.374 . S
C1655 N1654 1.376 . S
C1655 C1656 1.443 . S
C1655 C1682 1.389 . S
C1656 C1655 1.443 . S
C1656 C1657 1.340 . S
C1656 H1688 0.951 . S
C1657 C1656 1.340 . S
C1657 C1658 1.439 . S
C1657 H1689 0.950 . S
C1658 N1654 1.374 . S
C1658 C1657 1.439 . S
C1658 C1683 1.395 . S
N1659 Co1648 1.995 . S
N1659 C1660 1.376 . S
N1659 C1663 1.383 . S
C1660 N1659 1.376 . S
C1660 C1661 1.446 . S
C1660 C1683 1.391 . S
C1661 C1660 1.446 . S
C1661 C1662 1.339 . S
C1661 H1690 0.949 . S
C1662 C1661 1.339 . S
C1662 C1663 1.439 . S
C1662 H1691 0.950 . S
C1663 N1659 1.383 . S
C1663 C1662 1.439 . S
C1663 C1681 1.392 . S
N1664 Co1648 2.282 . S
N1664 C1667 1.332 . S
N1664 C1669 1.332 . S
C1665 C1666 1.386 . S
C1665 C1668 1.388 . S
C1666 C1665 1.386 . S
C1666 C1667 1.382 . S
C1666 H1692 0.950 . S
C1667 N1664 1.332 . S
C1667 C1666 1.382 . S
C1667 H1678 0.952 . S
C1668 C1665 1.388 . S
C1668 C1669 1.382 . S
C1668 H1693 0.950 . S
C1669 N1664 1.332 . S
C1669 C1668 1.382 . S
C1669 H1679 0.948 . S
N1670 Co1648 2.282 . S
N1670 C1674 1.332 . S
N1670 C1675 1.332 . S
C1671 C1672 1.388 . S
C1671 C1675 1.382 . S
C1671 H1694 0.950 . S
C1672 C1671 1.388 . S
C1672 C1673 1.386 . S
C1673 C1672 1.386 . S
C1673 C1674 1.382 . S
C1673 H1695 0.950 . S
C1674 N1670 1.332 . S
C1674 C1673 1.382 . S
C1674 H1676 0.952 . S
C1675 N1670 1.332 . S
C1675 C1671 1.382 . S
C1675 H1677 0.948 . S
H1676 C1674 0.952 . S
H1677 C1675 0.948 . S
H1678 C1667 0.952 . S
H1679 C1669 0.948 . S
C1680 C1646 1.395 . S
C1680 C1650 1.391 . S
C1681 C1643 1.389 . S
C1681 C1663 1.392 . S
C1682 C1653 1.392 . S
C1682 C1655 1.389 . S
C1683 C1658 1.395 . S
C1683 C1660 1.391 . S
H1684 C1644 0.951 . S
H1685 C1645 0.950 . S
H1686 C1651 0.949 . S
H1687 C1652 0.950 . S
H1688 C1656 0.951 . S
H1689 C1657 0.950 . S
H1690 C1661 0.949 . S
H1691 C1662 0.950 . S
H1692 C1666 0.950 . S
H1693 C1668 0.950 . S
H1694 C1671 0.950 . S
H1695 C1673 0.950 . S
C1696 C1697 1.363 . S
C1696 C1702 1.379 . S
C1696 N1704 1.356 . S
C1697 C1696 1.363 . S
C1697 C1703 1.363 . S
C1698 C1699 1.363 . S
C1698 C1703 1.379 . S
C1698 N1705 1.356 . S
C1699 C1698 1.363 . S
C1699 C1702 1.363 . S
N1700 C1702 1.356 . S
N1700 H1712 0.984 . S
N1700 H1713 0.985 . S
N1701 C1703 1.356 . S
N1701 H1706 0.984 . S
N1701 H1707 0.985 . S
C1702 C1696 1.379 . S
C1702 C1699 1.363 . S
C1702 N1700 1.356 . S
C1703 C1697 1.363 . S
C1703 C1698 1.379 . S
C1703 N1701 1.356 . S
N1704 C1696 1.356 . S
N1704 H1710 0.984 . S
N1704 H1711 0.984 . S
N1705 C1698 1.356 . S
N1705 H1708 0.984 . S
N1705 H1709 0.985 . S
H1706 N1701 0.984 . S
H1707 N1701 0.985 . S
H1708 N1705 0.984 . S
H1709 N1705 0.985 . S
H1710 N1704 0.984 . S
H1711 N1704 0.984 . S
H1712 N1700 0.984 . S
H1713 N1700 0.985 . S
C1714 C1715 1.363 . S
C1714 C1720 1.379 . S
C1714 N1722 1.356 . S
C1715 C1714 1.363 . S
C1715 C1721 1.363 . S
C1716 C1717 1.363 . S
C1716 C1721 1.379 . S
C1716 N1723 1.356 . S
C1717 C1716 1.363 . S
C1717 C1720 1.363 . S
N1718 C1720 1.356 . S
N1718 H1730 0.984 . S
N1718 H1731 0.985 . S
N1719 C1721 1.356 . S
N1719 H1724 0.984 . S
N1719 H1725 0.985 . S
C1720 C1714 1.379 . S
C1720 C1717 1.363 . S
C1720 N1718 1.356 . S
C1721 C1715 1.363 . S
C1721 C1716 1.379 . S
C1721 N1719 1.356 . S
N1722 C1714 1.356 . S
N1722 H1728 0.984 . S
N1722 H1729 0.984 . S
N1723 C1716 1.356 . S
N1723 H1726 0.984 . S
N1723 H1727 0.985 . S
H1724 N1719 0.984 . S
H1725 N1719 0.985 . S
H1726 N1723 0.984 . S
H1727 N1723 0.985 . S
H1728 N1722 0.984 . S
H1729 N1722 0.984 . S
H1730 N1718 0.984 . S
H1731 N1718 0.985 . S
C1732 C1733 1.363 . S
C1732 C1738 1.379 . S
C1732 N1740 1.356 . S
C1733 C1732 1.363 . S
C1733 C1739 1.363 . S
C1734 C1735 1.363 . S
C1734 C1739 1.379 . S
C1734 N1741 1.356 . S
C1735 C1734 1.363 . S
C1735 C1738 1.363 . S
N1736 C1738 1.356 . S
N1736 H1748 0.984 . S
N1736 H1749 0.985 . S
N1737 C1739 1.356 . S
N1737 H1742 0.984 . S
N1737 H1743 0.985 . S
C1738 C1732 1.379 . S
C1738 C1735 1.363 . S
C1738 N1736 1.356 . S
C1739 C1733 1.363 . S
C1739 C1734 1.379 . S
C1739 N1737 1.356 . S
N1740 C1732 1.356 . S
N1740 H1746 0.984 . S
N1740 H1747 0.984 . S
N1741 C1734 1.356 . S
N1741 H1744 0.984 . S
N1741 H1745 0.985 . S
H1742 N1737 0.984 . S
H1743 N1737 0.985 . S
H1744 N1741 0.984 . S
H1745 N1741 0.985 . S
H1746 N1740 0.984 . S
H1747 N1740 0.984 . S
H1748 N1736 0.984 . S
H1749 N1736 0.985 . S
C1750 C1751 1.363 . S
C1750 C1756 1.379 . S
C1750 N1758 1.356 . S
C1751 C1750 1.363 . S
C1751 C1757 1.363 . S
C1752 C1753 1.363 . S
C1752 C1757 1.379 . S
C1752 N1759 1.356 . S
C1753 C1752 1.363 . S
C1753 C1756 1.363 . S
N1754 C1756 1.356 . S
N1754 H1766 0.984 . S
N1754 H1767 0.985 . S
N1755 C1757 1.356 . S
N1755 H1760 0.984 . S
N1755 H1761 0.985 . S
C1756 C1750 1.379 . S
C1756 C1753 1.363 . S
C1756 N1754 1.356 . S
C1757 C1751 1.363 . S
C1757 C1752 1.379 . S
C1757 N1755 1.356 . S
N1758 C1750 1.356 . S
N1758 H1764 0.984 . S
N1758 H1765 0.984 . S
N1759 C1752 1.356 . S
N1759 H1762 0.984 . S
N1759 H1763 0.985 . S
H1760 N1755 0.984 . S
H1761 N1755 0.985 . S
H1762 N1759 0.984 . S
H1763 N1759 0.985 . S
H1764 N1758 0.984 . S
H1765 N1758 0.984 . S
H1766 N1754 0.984 . S
H1767 N1754 0.985 . S
C1768 C1769 1.363 . S
C1768 C1774 1.379 . S
C1768 N1776 1.356 . S
C1769 C1768 1.363 . S
C1769 C1775 1.363 . S
C1770 C1771 1.363 . S
C1770 C1775 1.379 . S
C1770 N1777 1.356 . S
C1771 C1770 1.363 . S
C1771 C1774 1.363 . S
N1772 C1774 1.356 . S
N1772 H1784 0.984 . S
N1772 H1785 0.985 . S
N1773 C1775 1.356 . S
N1773 H1778 0.984 . S
N1773 H1779 0.985 . S
C1774 C1768 1.379 . S
C1774 C1771 1.363 . S
C1774 N1772 1.356 . S
C1775 C1769 1.363 . S
C1775 C1770 1.379 . S
C1775 N1773 1.356 . S
N1776 C1768 1.356 . S
N1776 H1782 0.984 . S
N1776 H1783 0.984 . S
N1777 C1770 1.356 . S
N1777 H1780 0.984 . S
N1777 H1781 0.985 . S
H1778 N1773 0.984 . S
H1779 N1773 0.985 . S
H1780 N1777 0.984 . S
H1781 N1777 0.985 . S
H1782 N1776 0.984 . S
H1783 N1776 0.984 . S
H1784 N1772 0.984 . S
H1785 N1772 0.985 . S
C1786 C1787 1.363 . S
C1786 C1792 1.379 . S
C1786 N1794 1.356 . S
C1787 C1786 1.363 . S
C1787 C1793 1.363 . S
C1788 C1789 1.363 . S
C1788 C1793 1.379 . S
C1788 N1795 1.356 . S
C1789 C1788 1.363 . S
C1789 C1792 1.363 . S
N1790 C1792 1.356 . S
N1790 H1802 0.984 . S
N1790 H1803 0.985 . S
N1791 C1793 1.356 . S
N1791 H1796 0.984 . S
N1791 H1797 0.985 . S
C1792 C1786 1.379 . S
C1792 C1789 1.363 . S
C1792 N1790 1.356 . S
C1793 C1787 1.363 . S
C1793 C1788 1.379 . S
C1793 N1791 1.356 . S
N1794 C1786 1.356 . S
N1794 H1800 0.984 . S
N1794 H1801 0.984 . S
N1795 C1788 1.356 . S
N1795 H1798 0.984 . S
N1795 H1799 0.985 . S
H1796 N1791 0.984 . S
H1797 N1791 0.985 . S
H1798 N1795 0.984 . S
H1799 N1795 0.985 . S
H1800 N1794 0.984 . S
H1801 N1794 0.984 . S
H1802 N1790 0.984 . S
H1803 N1790 0.985 . S
C1804 C1805 1.363 . S
C1804 C1810 1.379 . S
C1804 N1812 1.356 . S
C1805 C1804 1.363 . S
C1805 C1811 1.363 . S
C1806 C1807 1.363 . S
C1806 C1811 1.379 . S
C1806 N1813 1.356 . S
C1807 C1806 1.363 . S
C1807 C1810 1.363 . S
N1808 C1810 1.356 . S
N1808 H1820 0.984 . S
N1808 H1821 0.985 . S
N1809 C1811 1.356 . S
N1809 H1814 0.984 . S
N1809 H1815 0.985 . S
C1810 C1804 1.379 . S
C1810 C1807 1.363 . S
C1810 N1808 1.356 . S
C1811 C1805 1.363 . S
C1811 C1806 1.379 . S
C1811 N1809 1.356 . S
N1812 C1804 1.356 . S
N1812 H1818 0.984 . S
N1812 H1819 0.984 . S
N1813 C1806 1.356 . S
N1813 H1816 0.984 . S
N1813 H1817 0.985 . S
H1814 N1809 0.984 . S
H1815 N1809 0.985 . S
H1816 N1813 0.984 . S
H1817 N1813 0.985 . S
H1818 N1812 0.984 . S
H1819 N1812 0.984 . S
H1820 N1808 0.984 . S
H1821 N1808 0.985 . S
C1822 C1823 1.363 . S
C1822 C1828 1.379 . S
C1822 N1830 1.356 . S
C1823 C1822 1.363 . S
C1823 C1829 1.363 . S
C1824 C1825 1.363 . S
C1824 C1829 1.379 . S
C1824 N1831 1.356 . S
C1825 C1824 1.363 . S
C1825 C1828 1.363 . S
N1826 C1828 1.356 . S
N1826 H1838 0.984 . S
N1826 H1839 0.985 . S
N1827 C1829 1.356 . S
N1827 H1832 0.984 . S
N1827 H1833 0.985 . S
C1828 C1822 1.379 . S
C1828 C1825 1.363 . S
C1828 N1826 1.356 . S
C1829 C1823 1.363 . S
C1829 C1824 1.379 . S
C1829 N1827 1.356 . S
N1830 C1822 1.356 . S
N1830 H1836 0.984 . S
N1830 H1837 0.984 . S
N1831 C1824 1.356 . S
N1831 H1834 0.984 . S
N1831 H1835 0.985 . S
H1832 N1827 0.984 . S
H1833 N1827 0.985 . S
H1834 N1831 0.984 . S
H1835 N1831 0.985 . S
H1836 N1830 0.984 . S
H1837 N1830 0.984 . S
H1838 N1826 0.984 . S
H1839 N1826 0.985 . S
C1840 C1841 1.363 . S
C1840 C1846 1.379 . S
C1840 N1848 1.356 . S
C1841 C1840 1.363 . S
C1841 C1847 1.363 . S
C1842 C1843 1.363 . S
C1842 C1847 1.379 . S
C1842 N1849 1.356 . S
C1843 C1842 1.363 . S
C1843 C1846 1.363 . S
N1844 C1846 1.356 . S
N1844 H1856 0.984 . S
N1844 H1857 0.985 . S
N1845 C1847 1.356 . S
N1845 H1850 0.984 . S
N1845 H1851 0.985 . S
C1846 C1840 1.379 . S
C1846 C1843 1.363 . S
C1846 N1844 1.356 . S
C1847 C1841 1.363 . S
C1847 C1842 1.379 . S
C1847 N1845 1.356 . S
N1848 C1840 1.356 . S
N1848 H1854 0.984 . S
N1848 H1855 0.984 . S
N1849 C1842 1.356 . S
N1849 H1852 0.984 . S
N1849 H1853 0.985 . S
H1850 N1845 0.984 . S
H1851 N1845 0.985 . S
H1852 N1849 0.984 . S
H1853 N1849 0.985 . S
H1854 N1848 0.984 . S
H1855 N1848 0.984 . S
H1856 N1844 0.984 . S
H1857 N1844 0.985 . S
C1858 C1859 1.363 . S
C1858 C1864 1.379 . S
C1858 N1866 1.356 . S
C1859 C1858 1.363 . S
C1859 C1865 1.363 . S
C1860 C1861 1.363 . S
C1860 C1865 1.379 . S
C1860 N1867 1.356 . S
C1861 C1860 1.363 . S
C1861 C1864 1.363 . S
N1862 C1864 1.356 . S
N1862 H1874 0.984 . S
N1862 H1875 0.985 . S
N1863 C1865 1.356 . S
N1863 H1868 0.984 . S
N1863 H1869 0.985 . S
C1864 C1858 1.379 . S
C1864 C1861 1.363 . S
C1864 N1862 1.356 . S
C1865 C1859 1.363 . S
C1865 C1860 1.379 . S
C1865 N1863 1.356 . S
N1866 C1858 1.356 . S
N1866 H1872 0.984 . S
N1866 H1873 0.984 . S
N1867 C1860 1.356 . S
N1867 H1870 0.984 . S
N1867 H1871 0.985 . S
H1868 N1863 0.984 . S
H1869 N1863 0.985 . S
H1870 N1867 0.984 . S
H1871 N1867 0.985 . S
H1872 N1866 0.984 . S
H1873 N1866 0.984 . S
H1874 N1862 0.984 . S
H1875 N1862 0.985 . S
C1876 C1877 1.363 . S
C1876 C1882 1.379 . S
C1876 N1884 1.356 . S
C1877 C1876 1.363 . S
C1877 C1883 1.363 . S
C1878 C1879 1.363 . S
C1878 C1883 1.379 . S
C1878 N1885 1.356 . S
C1879 C1878 1.363 . S
C1879 C1882 1.363 . S
N1880 C1882 1.356 . S
N1880 H1892 0.984 . S
N1880 H1893 0.985 . S
N1881 C1883 1.356 . S
N1881 H1886 0.984 . S
N1881 H1887 0.985 . S
C1882 C1876 1.379 . S
C1882 C1879 1.363 . S
C1882 N1880 1.356 . S
C1883 C1877 1.363 . S
C1883 C1878 1.379 . S
C1883 N1881 1.356 . S
N1884 C1876 1.356 . S
N1884 H1890 0.984 . S
N1884 H1891 0.984 . S
N1885 C1878 1.356 . S
N1885 H1888 0.984 . S
N1885 H1889 0.985 . S
H1886 N1881 0.984 . S
H1887 N1881 0.985 . S
H1888 N1885 0.984 . S
H1889 N1885 0.985 . S
H1890 N1884 0.984 . S
H1891 N1884 0.984 . S
H1892 N1880 0.984 . S
H1893 N1880 0.985 . S
C1894 C1895 1.363 . S
C1894 C1900 1.379 . S
C1894 N1902 1.356 . S
C1895 C1894 1.363 . S
C1895 C1901 1.363 . S
C1896 C1897 1.363 . S
C1896 C1901 1.379 . S
C1896 N1903 1.356 . S
C1897 C1896 1.363 . S
C1897 C1900 1.363 . S
N1898 C1900 1.356 . S
N1898 H1910 0.984 . S
N1898 H1911 0.985 . S
N1899 C1901 1.356 . S
N1899 H1904 0.984 . S
N1899 H1905 0.985 . S
C1900 C1894 1.379 . S
C1900 C1897 1.363 . S
C1900 N1898 1.356 . S
C1901 C1895 1.363 . S
C1901 C1896 1.379 . S
C1901 N1899 1.356 . S
N1902 C1894 1.356 . S
N1902 H1908 0.984 . S
N1902 H1909 0.984 . S
N1903 C1896 1.356 . S
N1903 H1906 0.984 . S
N1903 H1907 0.985 . S
H1904 N1899 0.984 . S
H1905 N1899 0.985 . S
H1906 N1903 0.984 . S
H1907 N1903 0.985 . S
H1908 N1902 0.984 . S
H1909 N1902 0.984 . S
H1910 N1898 0.984 . S
H1911 N1898 0.985 . S
C1912 C1913 1.363 . S
C1912 C1918 1.379 . S
C1912 N1920 1.356 . S
C1913 C1912 1.363 . S
C1913 C1919 1.363 . S
C1914 C1915 1.363 . S
C1914 C1919 1.379 . S
C1914 N1921 1.356 . S
C1915 C1914 1.363 . S
C1915 C1918 1.363 . S
N1916 C1918 1.356 . S
N1916 H1928 0.984 . S
N1916 H1929 0.985 . S
N1917 C1919 1.356 . S
N1917 H1922 0.984 . S
N1917 H1923 0.985 . S
C1918 C1912 1.379 . S
C1918 C1915 1.363 . S
C1918 N1916 1.356 . S
C1919 C1913 1.363 . S
C1919 C1914 1.379 . S
C1919 N1917 1.356 . S
N1920 C1912 1.356 . S
N1920 H1926 0.984 . S
N1920 H1927 0.984 . S
N1921 C1914 1.356 . S
N1921 H1924 0.984 . S
N1921 H1925 0.985 . S
H1922 N1917 0.984 . S
H1923 N1917 0.985 . S
H1924 N1921 0.984 . S
H1925 N1921 0.985 . S
H1926 N1920 0.984 . S
H1927 N1920 0.984 . S
H1928 N1916 0.984 . S
H1929 N1916 0.985 . S
C1930 C1931 1.363 . S
C1930 C1936 1.379 . S
C1930 N1938 1.356 . S
C1931 C1930 1.363 . S
C1931 C1937 1.363 . S
C1932 C1933 1.363 . S
C1932 C1937 1.379 . S
C1932 N1939 1.356 . S
C1933 C1932 1.363 . S
C1933 C1936 1.363 . S
N1934 C1936 1.356 . S
N1934 H1946 0.984 . S
N1934 H1947 0.985 . S
N1935 C1937 1.356 . S
N1935 H1940 0.984 . S
N1935 H1941 0.985 . S
C1936 C1930 1.379 . S
C1936 C1933 1.363 . S
C1936 N1934 1.356 . S
C1937 C1931 1.363 . S
C1937 C1932 1.379 . S
C1937 N1935 1.356 . S
N1938 C1930 1.356 . S
N1938 H1944 0.984 . S
N1938 H1945 0.984 . S
N1939 C1932 1.356 . S
N1939 H1942 0.984 . S
N1939 H1943 0.985 . S
H1940 N1935 0.984 . S
H1941 N1935 0.985 . S
H1942 N1939 0.984 . S
H1943 N1939 0.985 . S
H1944 N1938 0.984 . S
H1945 N1938 0.984 . S
H1946 N1934 0.984 . S
H1947 N1934 0.985 . S
C1948 C1949 1.363 . S
C1948 C1954 1.379 . S
C1948 N1956 1.356 . S
C1949 C1948 1.363 . S
C1949 C1955 1.363 . S
C1950 C1951 1.363 . S
C1950 C1955 1.379 . S
C1950 N1957 1.356 . S
C1951 C1950 1.363 . S
C1951 C1954 1.363 . S
N1952 C1954 1.356 . S
N1952 H1964 0.984 . S
N1952 H1965 0.985 . S
N1953 C1955 1.356 . S
N1953 H1958 0.984 . S
N1953 H1959 0.985 . S
C1954 C1948 1.379 . S
C1954 C1951 1.363 . S
C1954 N1952 1.356 . S
C1955 C1949 1.363 . S
C1955 C1950 1.379 . S
C1955 N1953 1.356 . S
N1956 C1948 1.356 . S
N1956 H1962 0.984 . S
N1956 H1963 0.984 . S
N1957 C1950 1.356 . S
N1957 H1960 0.984 . S
N1957 H1961 0.985 . S
H1958 N1953 0.984 . S
H1959 N1953 0.985 . S
H1960 N1957 0.984 . S
H1961 N1957 0.985 . S
H1962 N1956 0.984 . S
H1963 N1956 0.984 . S
H1964 N1952 0.984 . S
H1965 N1952 0.985 . S
C1966 C1967 1.363 . S
C1966 C1972 1.379 . S
C1966 N1974 1.356 . S
C1967 C1966 1.363 . S
C1967 C1973 1.363 . S
C1968 C1969 1.363 . S
C1968 C1973 1.379 . S
C1968 N1975 1.356 . S
C1969 C1968 1.363 . S
C1969 C1972 1.363 . S
N1970 C1972 1.356 . S
N1970 H1982 0.984 . S
N1970 H1983 0.985 . S
N1971 C1973 1.356 . S
N1971 H1976 0.984 . S
N1971 H1977 0.985 . S
C1972 C1966 1.379 . S
C1972 C1969 1.363 . S
C1972 N1970 1.356 . S
C1973 C1967 1.363 . S
C1973 C1968 1.379 . S
C1973 N1971 1.356 . S
N1974 C1966 1.356 . S
N1974 H1980 0.984 . S
N1974 H1981 0.984 . S
N1975 C1968 1.356 . S
N1975 H1978 0.984 . S
N1975 H1979 0.985 . S
H1976 N1971 0.984 . S
H1977 N1971 0.985 . S
H1978 N1975 0.984 . S
H1979 N1975 0.985 . S
H1980 N1974 0.984 . S
H1981 N1974 0.984 . S
H1982 N1970 0.984 . S
H1983 N1970 0.985 . S
C1984 C1985 1.353 1_566 S
C1984 C1990 1.379 . S
C1984 N1992 1.356 . S
C1985 C1984 1.353 1_544 S
C1985 C1991 1.373 . S
C1986 C1987 1.353 1_544 S
C1986 C1991 1.379 . S
C1986 N1993 1.356 . S
C1987 C1986 1.353 1_566 S
C1987 C1990 1.373 . S
N1988 C1990 1.356 . S
N1988 H2000 0.984 . S
N1988 H2001 0.985 . S
N1989 C1991 1.356 . S
N1989 H1994 0.984 . S
N1989 H1995 0.985 . S
C1990 C1984 1.379 . S
C1990 C1987 1.373 . S
C1990 N1988 1.356 . S
C1991 C1985 1.373 . S
C1991 C1986 1.379 . S
C1991 N1989 1.356 . S
N1992 C1984 1.356 . S
N1992 H1998 0.984 . S
N1992 H1999 0.984 1_565 S
N1993 C1986 1.356 . S
N1993 H1996 0.984 1_545 S
N1993 H1997 0.985 . S
H1994 N1989 0.984 . S
H1995 N1989 0.985 . S
H1996 N1993 0.984 1_565 S
H1997 N1993 0.985 . S
H1998 N1992 0.984 . S
H1999 N1992 0.984 1_545 S
H2000 N1988 0.984 . S
H2001 N1988 0.985 . S
C2002 C2003 1.352 1_554 S
C2002 C2008 1.379 . S
C2002 N2010 1.356 . S
C2003 C2002 1.352 1_556 S
C2003 C2009 1.374 . S
C2004 C2005 1.354 1_556 S
C2004 C2009 1.379 . S
C2004 N2011 1.356 . S
C2005 C2004 1.354 1_554 S
C2005 C2008 1.372 . S
N2006 C2008 1.356 . S
N2006 H2018 0.984 . S
N2006 H2019 0.985 . S
N2007 C2009 1.356 . S
N2007 H2012 0.984 . S
N2007 H2013 0.985 . S
C2008 C2002 1.379 . S
C2008 C2005 1.372 . S
C2008 N2006 1.356 . S
C2009 C2003 1.374 . S
C2009 C2004 1.379 . S
C2009 N2007 1.356 . S
N2010 C2002 1.356 . S
N2010 H2016 0.984 . S
N2010 H2017 0.984 . S
N2011 C2004 1.356 . S
N2011 H2014 0.984 . S
N2011 H2015 0.985 . S
H2012 N2007 0.984 . S
H2013 N2007 0.985 . S
H2014 N2011 0.984 . S
H2015 N2011 0.985 . S
H2016 N2010 0.984 . S
H2017 N2010 0.984 . S
H2018 N2006 0.984 . S
H2019 N2006 0.985 . S
C2020 C2021 1.363 . S
C2020 C2026 1.379 . S
C2020 N2028 1.356 . S
C2021 C2020 1.363 . S
C2021 C2027 1.363 . S
C2022 C2023 1.363 . S
C2022 C2027 1.379 . S
C2022 N2029 1.356 . S
C2023 C2022 1.363 . S
C2023 C2026 1.363 . S
N2024 C2026 1.356 . S
N2024 H2036 0.984 . S
N2024 H2037 0.985 . S
N2025 C2027 1.356 . S
N2025 H2030 0.984 . S
N2025 H2031 0.985 . S
C2026 C2020 1.379 . S
C2026 C2023 1.363 . S
C2026 N2024 1.356 . S
C2027 C2021 1.363 . S
C2027 C2022 1.379 . S
C2027 N2025 1.356 . S
N2028 C2020 1.356 . S
N2028 H2034 0.984 . S
N2028 H2035 0.984 . S
N2029 C2022 1.356 . S
N2029 H2032 0.984 . S
N2029 H2033 0.985 . S
H2030 N2025 0.984 . S
H2031 N2025 0.985 . S
H2032 N2029 0.984 . S
H2033 N2029 0.985 . S
H2034 N2028 0.984 . S
H2035 N2028 0.984 . S
H2036 N2024 0.984 . S
H2037 N2024 0.985 . S
C2038 C2039 1.363 1_545 S
C2038 C2044 1.379 . S
C2038 N2046 1.356 . S
C2039 C2038 1.363 1_565 S
C2039 C2045 1.363 . S
C2040 C2041 1.363 1_565 S
C2040 C2045 1.379 . S
C2040 N2047 1.356 . S
C2041 C2040 1.363 1_545 S
C2041 C2044 1.363 . S
N2042 C2044 1.356 . S
N2042 H2054 0.984 . S
N2042 H2055 0.985 . S
N2043 C2045 1.356 . S
N2043 H2048 0.984 . S
N2043 H2049 0.985 . S
C2044 C2038 1.379 . S
C2044 C2041 1.363 . S
C2044 N2042 1.356 . S
C2045 C2039 1.363 . S
C2045 C2040 1.379 . S
C2045 N2043 1.356 . S
N2046 C2038 1.356 . S
N2046 H2052 0.984 . S
N2046 H2053 0.984 1_545 S
N2047 C2040 1.356 . S
N2047 H2050 0.984 1_565 S
N2047 H2051 0.985 . S
H2048 N2043 0.984 . S
H2049 N2043 0.985 . S
H2050 N2047 0.984 1_545 S
H2051 N2047 0.985 . S
H2052 N2046 0.984 . S
H2053 N2046 0.984 1_565 S
H2054 N2042 0.984 . S
H2055 N2042 0.985 . S
C2056 C2057 1.354 1_556 S
C2056 C2062 1.379 . S
C2056 N2064 1.356 . S
C2057 C2056 1.354 1_554 S
C2057 C2063 1.372 . S
C2058 C2059 1.355 1_554 S
C2058 C2063 1.379 . S
C2058 N2065 1.356 . S
C2059 C2058 1.355 1_556 S
C2059 C2062 1.370 . S
N2060 C2062 1.356 . S
N2060 H2072 0.984 . S
N2060 H2073 0.985 . S
N2061 C2063 1.356 . S
N2061 H2066 0.984 . S
N2061 H2067 0.985 . S
C2062 C2056 1.379 . S
C2062 C2059 1.370 . S
C2062 N2060 1.356 . S
C2063 C2057 1.372 . S
C2063 C2058 1.379 . S
C2063 N2061 1.356 . S
N2064 C2056 1.356 . S
N2064 H2070 0.984 . S
N2064 H2071 0.984 . S
N2065 C2058 1.356 . S
N2065 H2068 0.984 . S
N2065 H2069 0.985 . S
H2066 N2061 0.984 . S
H2067 N2061 0.985 . S
H2068 N2065 0.984 . S
H2069 N2065 0.985 . S
H2070 N2064 0.984 . S
H2071 N2064 0.984 . S
H2072 N2060 0.984 . S
H2073 N2060 0.985 . S
C2074 C2075 1.363 . S
C2074 C2080 1.379 . S
C2074 N2082 1.356 . S
C2075 C2074 1.363 . S
C2075 C2081 1.363 . S
C2076 C2077 1.363 . S
C2076 C2081 1.379 . S
C2076 N2083 1.356 . S
C2077 C2076 1.363 . S
C2077 C2080 1.363 . S
N2078 C2080 1.356 . S
N2078 H2090 0.984 . S
N2078 H2091 0.985 . S
N2079 C2081 1.356 . S
N2079 H2084 0.984 . S
N2079 H2085 0.985 . S
C2080 C2074 1.379 . S
C2080 C2077 1.363 . S
C2080 N2078 1.356 . S
C2081 C2075 1.363 . S
C2081 C2076 1.379 . S
C2081 N2079 1.356 . S
N2082 C2074 1.356 . S
N2082 H2088 0.984 . S
N2082 H2089 0.984 . S
N2083 C2076 1.356 . S
N2083 H2086 0.984 . S
N2083 H2087 0.985 . S
H2084 N2079 0.984 . S
H2085 N2079 0.985 . S
H2086 N2083 0.984 . S
H2087 N2083 0.985 . S
H2088 N2082 0.984 . S
H2089 N2082 0.984 . S
H2090 N2078 0.984 . S
H2091 N2078 0.985 . S
C2092 C2093 1.363 . S
C2092 C2098 1.379 . S
C2092 N2100 1.356 . S
C2093 C2092 1.363 . S
C2093 C2099 1.363 1_565 S
C2094 C2095 1.363 . S
C2094 C2099 1.379 . S
C2094 N2101 1.356 . S
C2095 C2094 1.363 . S
C2095 C2098 1.363 1_545 S
N2096 C2098 1.356 . S
N2096 H2108 0.984 . S
N2096 H2109 0.985 1_565 S
N2097 C2099 1.356 . S
N2097 H2102 0.984 1_545 S
N2097 H2103 0.985 . S
C2098 C2092 1.379 . S
C2098 C2095 1.363 1_565 S
C2098 N2096 1.356 . S
C2099 C2093 1.363 1_545 S
C2099 C2094 1.379 . S
C2099 N2097 1.356 . S
N2100 C2092 1.356 . S
N2100 H2106 0.984 . S
N2100 H2107 0.984 . S
N2101 C2094 1.356 . S
N2101 H2104 0.984 . S
N2101 H2105 0.985 . S
H2102 N2097 0.984 1_565 S
H2103 N2097 0.985 . S
H2104 N2101 0.984 . S
H2105 N2101 0.985 . S
H2106 N2100 0.984 . S
H2107 N2100 0.984 . S
H2108 N2096 0.984 . S
H2109 N2096 0.985 1_545 S
C2110 C2111 1.363 . S
C2110 C2116 1.379 . S
C2110 N2118 1.356 . S
C2111 C2110 1.363 . S
C2111 C2117 1.363 . S
C2112 C2113 1.363 . S
C2112 C2117 1.379 . S
C2112 N2119 1.356 . S
C2113 C2112 1.363 . S
C2113 C2116 1.363 . S
N2114 C2116 1.356 . S
N2114 H2126 0.984 . S
N2114 H2127 0.985 . S
N2115 C2117 1.356 . S
N2115 H2120 0.984 . S
N2115 H2121 0.985 . S
C2116 C2110 1.379 . S
C2116 C2113 1.363 . S
C2116 N2114 1.356 . S
C2117 C2111 1.363 . S
C2117 C2112 1.379 . S
C2117 N2115 1.356 . S
N2118 C2110 1.356 . S
N2118 H2124 0.984 . S
N2118 H2125 0.984 . S
N2119 C2112 1.356 . S
N2119 H2122 0.984 . S
N2119 H2123 0.985 . S
H2120 N2115 0.984 . S
H2121 N2115 0.985 . S
H2122 N2119 0.984 . S
H2123 N2119 0.985 . S
H2124 N2118 0.984 . S
H2125 N2118 0.984 . S
H2126 N2114 0.984 . S
H2127 N2114 0.985 . S
C2128 C2129 1.363 . S
C2128 C2134 1.379 . S
C2128 N2136 1.356 . S
C2129 C2128 1.363 . S
C2129 C2135 1.363 . S
C2130 C2131 1.363 . S
C2130 C2135 1.379 . S
C2130 N2137 1.356 . S
C2131 C2130 1.363 . S
C2131 C2134 1.363 . S
N2132 C2134 1.356 . S
N2132 H2144 0.984 . S
N2132 H2145 0.985 . S
N2133 C2135 1.356 . S
N2133 H2138 0.984 . S
N2133 H2139 0.985 . S
C2134 C2128 1.379 . S
C2134 C2131 1.363 . S
C2134 N2132 1.356 . S
C2135 C2129 1.363 . S
C2135 C2130 1.379 . S
C2135 N2133 1.356 . S
N2136 C2128 1.356 . S
N2136 H2142 0.984 . S
N2136 H2143 0.984 . S
N2137 C2130 1.356 . S
N2137 H2140 0.984 . S
N2137 H2141 0.985 . S
H2138 N2133 0.984 . S
H2139 N2133 0.985 . S
H2140 N2137 0.984 . S
H2141 N2137 0.985 . S
H2142 N2136 0.984 . S
H2143 N2136 0.984 . S
H2144 N2132 0.984 . S
H2145 N2132 0.985 . S
C2146 C2147 1.363 . S
C2146 C2152 1.379 . S
C2146 N2154 1.356 . S
C2147 C2146 1.363 . S
C2147 C2153 1.363 . S
C2148 C2149 1.363 . S
C2148 C2153 1.379 . S
C2148 N2155 1.356 . S
C2149 C2148 1.363 . S
C2149 C2152 1.363 . S
N2150 C2152 1.356 . S
N2150 H2162 0.984 . S
N2150 H2163 0.985 . S
N2151 C2153 1.356 . S
N2151 H2156 0.984 . S
N2151 H2157 0.985 . S
C2152 C2146 1.379 . S
C2152 C2149 1.363 . S
C2152 N2150 1.356 . S
C2153 C2147 1.363 . S
C2153 C2148 1.379 . S
C2153 N2151 1.356 . S
N2154 C2146 1.356 . S
N2154 H2160 0.984 . S
N2154 H2161 0.984 . S
N2155 C2148 1.356 . S
N2155 H2158 0.984 . S
N2155 H2159 0.985 . S
H2156 N2151 0.984 . S
H2157 N2151 0.985 . S
H2158 N2155 0.984 . S
H2159 N2155 0.985 . S
H2160 N2154 0.984 . S
H2161 N2154 0.984 . S
H2162 N2150 0.984 . S
H2163 N2150 0.985 . S
C2164 C2165 1.363 . S
C2164 C2170 1.379 . S
C2164 N2172 1.356 . S
C2165 C2164 1.363 . S
C2165 C2171 1.363 . S
C2166 C2167 1.363 . S
C2166 C2171 1.379 . S
C2166 N2173 1.356 . S
C2167 C2166 1.363 . S
C2167 C2170 1.363 . S
N2168 C2170 1.356 . S
N2168 H2180 0.984 . S
N2168 H2181 0.985 . S
N2169 C2171 1.356 . S
N2169 H2174 0.984 . S
N2169 H2175 0.985 . S
C2170 C2164 1.379 . S
C2170 C2167 1.363 . S
C2170 N2168 1.356 . S
C2171 C2165 1.363 . S
C2171 C2166 1.379 . S
C2171 N2169 1.356 . S
N2172 C2164 1.356 . S
N2172 H2178 0.984 . S
N2172 H2179 0.984 . S
N2173 C2166 1.356 . S
N2173 H2176 0.984 . S
N2173 H2177 0.985 . S
H2174 N2169 0.984 . S
H2175 N2169 0.985 . S
H2176 N2173 0.984 . S
H2177 N2173 0.985 . S
H2178 N2172 0.984 . S
H2179 N2172 0.984 . S
H2180 N2168 0.984 . S
H2181 N2168 0.985 . S
C2182 C2183 1.363 . S
C2182 C2188 1.379 . S
C2182 N2190 1.356 . S
C2183 C2182 1.363 . S
C2183 C2189 1.363 . S
C2184 C2185 1.363 . S
C2184 C2189 1.379 . S
C2184 N2191 1.356 . S
C2185 C2184 1.363 . S
C2185 C2188 1.363 . S
N2186 C2188 1.356 . S
N2186 H2198 0.984 . S
N2186 H2199 0.985 . S
N2187 C2189 1.356 . S
N2187 H2192 0.984 . S
N2187 H2193 0.985 . S
C2188 C2182 1.379 . S
C2188 C2185 1.363 . S
C2188 N2186 1.356 . S
C2189 C2183 1.363 . S
C2189 C2184 1.379 . S
C2189 N2187 1.356 . S
N2190 C2182 1.356 . S
N2190 H2196 0.984 . S
N2190 H2197 0.984 . S
N2191 C2184 1.356 . S
N2191 H2194 0.984 . S
N2191 H2195 0.985 . S
H2192 N2187 0.984 . S
H2193 N2187 0.985 . S
H2194 N2191 0.984 . S
H2195 N2191 0.985 . S
H2196 N2190 0.984 . S
H2197 N2190 0.984 . S
H2198 N2186 0.984 . S
H2199 N2186 0.985 . S
C2200 C2201 1.363 . S
C2200 C2206 1.379 1_455 S
C2200 N2208 1.356 . S
C2201 C2200 1.363 . S
C2201 C2207 1.363 1_565 S
C2202 C2203 1.363 . S
C2202 C2207 1.379 1_655 S
C2202 N2209 1.356 . S
C2203 C2202 1.363 . S
C2203 C2206 1.363 1_545 S
N2204 C2206 1.356 . S
N2204 H2216 0.984 . S
N2204 H2217 0.976 1_565 S
N2205 C2207 1.356 . S
N2205 H2210 0.976 1_545 S
N2205 H2211 0.985 . S
C2206 C2200 1.379 1_655 S
C2206 C2203 1.363 1_565 S
C2206 N2204 1.356 . S
C2207 C2201 1.363 1_545 S
C2207 C2202 1.379 1_455 S
C2207 N2205 1.356 . S
N2208 C2200 1.356 . S
N2208 H2214 0.984 . S
N2208 H2215 0.984 . S
N2209 C2202 1.356 . S
N2209 H2212 0.984 . S
N2209 H2213 0.985 . S
H2210 N2205 0.976 1_565 S
H2211 N2205 0.985 . S
H2212 N2209 0.984 . S
H2213 N2209 0.985 . S
H2214 N2208 0.984 . S
H2215 N2208 0.984 . S
H2216 N2204 0.984 . S
H2217 N2204 0.976 1_545 S
C2218 C2219 1.363 . S
C2218 C2224 1.379 1_655 S
C2218 N2226 1.356 . S
C2219 C2218 1.363 . S
C2219 C2225 1.363 . S
C2220 C2221 1.363 . S
C2220 C2225 1.379 1_455 S
C2220 N2227 1.356 . S
C2221 C2220 1.363 . S
C2221 C2224 1.363 . S
N2222 C2224 1.356 . S
N2222 H2234 0.984 . S
N2222 H2235 0.985 . S
N2223 C2225 1.356 . S
N2223 H2228 0.984 . S
N2223 H2229 0.985 . S
C2224 C2218 1.379 1_455 S
C2224 C2221 1.363 . S
C2224 N2222 1.356 . S
C2225 C2219 1.363 . S
C2225 C2220 1.379 1_655 S
C2225 N2223 1.356 . S
N2226 C2218 1.356 . S
N2226 H2232 0.984 . S
N2226 H2233 0.984 . S
N2227 C2220 1.356 . S
N2227 H2230 0.984 . S
N2227 H2231 0.985 . S
H2228 N2223 0.984 . S
H2229 N2223 0.985 . S
H2230 N2227 0.984 . S
H2231 N2227 0.985 . S
H2232 N2226 0.984 . S
H2233 N2226 0.984 . S
H2234 N2222 0.984 . S
H2235 N2222 0.985 . S
C2236 C2237 1.363 . S
C2236 C2242 1.379 1_455 S
C2236 N2244 1.356 . S
C2237 C2236 1.363 . S
C2237 C2243 1.363 . S
C2238 C2239 1.363 . S
C2238 C2243 1.379 1_655 S
C2238 N2245 1.356 . S
C2239 C2238 1.363 . S
C2239 C2242 1.363 . S
N2240 C2242 1.356 . S
N2240 H2252 0.984 . S
N2240 H2253 0.985 . S
N2241 C2243 1.356 . S
N2241 H2246 0.984 . S
N2241 H2247 0.985 . S
C2242 C2236 1.379 1_655 S
C2242 C2239 1.363 . S
C2242 N2240 1.356 . S
C2243 C2237 1.363 . S
C2243 C2238 1.379 1_455 S
C2243 N2241 1.356 . S
N2244 C2236 1.356 . S
N2244 H2250 0.984 . S
N2244 H2251 0.984 . S
N2245 C2238 1.356 . S
N2245 H2248 0.984 . S
N2245 H2249 0.985 . S
H2246 N2241 0.984 . S
H2247 N2241 0.985 . S
H2248 N2245 0.984 . S
H2249 N2245 0.985 . S
H2250 N2244 0.984 . S
H2251 N2244 0.984 . S
H2252 N2240 0.984 . S
H2253 N2240 0.985 . S
C2254 C2255 1.373 . S
C2254 C2260 1.379 1_455 S
C2254 N2262 1.356 . S
C2255 C2254 1.373 . S
C2255 C2261 1.353 1_556 S
C2256 C2257 1.373 . S
C2256 C2261 1.379 1_655 S
C2256 N2263 1.356 . S
C2257 C2256 1.373 . S
C2257 C2260 1.353 1_554 S
N2258 C2260 1.356 . S
N2258 H2270 0.984 . S
N2258 H2271 0.985 . S
N2259 C2261 1.356 . S
N2259 H2264 0.984 . S
N2259 H2265 0.985 . S
C2260 C2254 1.379 1_655 S
C2260 C2257 1.353 1_556 S
C2260 N2258 1.356 . S
C2261 C2255 1.353 1_554 S
C2261 C2256 1.379 1_455 S
C2261 N2259 1.356 . S
N2262 C2254 1.356 . S
N2262 H2268 0.984 . S
N2262 H2269 0.984 . S
N2263 C2256 1.356 . S
N2263 H2266 0.984 . S
N2263 H2267 0.985 . S
H2264 N2259 0.984 . S
H2265 N2259 0.985 . S
H2266 N2263 0.984 . S
H2267 N2263 0.985 . S
H2268 N2262 0.984 . S
H2269 N2262 0.984 . S
H2270 N2258 0.984 . S
H2271 N2258 0.985 . S
C2272 C2273 1.363 . S
C2272 C2278 1.379 . S
C2272 N2280 1.356 . S
C2273 C2272 1.363 . S
C2273 C2279 1.363 . S
C2274 C2275 1.363 . S
C2274 C2279 1.379 . S
C2274 N2281 1.356 . S
C2275 C2274 1.363 . S
C2275 C2278 1.363 . S
N2276 C2278 1.356 . S
N2276 H2288 0.984 . S
N2276 H2289 0.985 . S
N2277 C2279 1.356 . S
N2277 H2282 0.984 . S
N2277 H2283 0.985 . S
C2278 C2272 1.379 . S
C2278 C2275 1.363 . S
C2278 N2276 1.356 . S
C2279 C2273 1.363 . S
C2279 C2274 1.379 . S
C2279 N2277 1.356 . S
N2280 C2272 1.356 . S
N2280 H2286 0.984 . S
N2280 H2287 0.984 . S
N2281 C2274 1.356 . S
N2281 H2284 0.984 . S
N2281 H2285 0.985 . S
H2282 N2277 0.984 . S
H2283 N2277 0.985 . S
H2284 N2281 0.984 . S
H2285 N2281 0.985 . S
H2286 N2280 0.984 . S
H2287 N2280 0.984 . S
H2288 N2276 0.984 . S
H2289 N2276 0.985 . S
C2290 C2291 1.363 . S
C2290 C2296 1.379 . S
C2290 N2298 1.356 . S
C2291 C2290 1.363 . S
C2291 C2297 1.363 . S
C2292 C2293 1.363 . S
C2292 C2297 1.379 . S
C2292 N2299 1.356 . S
C2293 C2292 1.363 . S
C2293 C2296 1.363 . S
N2294 C2296 1.356 . S
N2294 H2306 0.984 . S
N2294 H2307 0.985 . S
N2295 C2297 1.356 . S
N2295 H2300 0.984 . S
N2295 H2301 0.985 . S
C2296 C2290 1.379 . S
C2296 C2293 1.363 . S
C2296 N2294 1.356 . S
C2297 C2291 1.363 . S
C2297 C2292 1.379 . S
C2297 N2295 1.356 . S
N2298 C2290 1.356 . S
N2298 H2304 0.984 . S
N2298 H2305 0.984 . S
N2299 C2292 1.356 . S
N2299 H2302 0.984 . S
N2299 H2303 0.985 . S
H2300 N2295 0.984 . S
H2301 N2295 0.985 . S
H2302 N2299 0.984 . S
H2303 N2299 0.985 . S
H2304 N2298 0.984 . S
H2305 N2298 0.984 . S
H2306 N2294 0.984 . S
H2307 N2294 0.985 . S
C2308 C2309 1.363 . S
C2308 C2314 1.379 . S
C2308 N2316 1.356 . S
C2309 C2308 1.363 . S
C2309 C2315 1.363 . S
C2310 C2311 1.363 . S
C2310 C2315 1.379 . S
C2310 N2317 1.356 . S
C2311 C2310 1.363 . S
C2311 C2314 1.363 . S
N2312 C2314 1.356 . S
N2312 H2324 0.984 . S
N2312 H2325 0.985 . S
N2313 C2315 1.356 . S
N2313 H2318 0.984 . S
N2313 H2319 0.985 . S
C2314 C2308 1.379 . S
C2314 C2311 1.363 . S
C2314 N2312 1.356 . S
C2315 C2309 1.363 . S
C2315 C2310 1.379 . S
C2315 N2313 1.356 . S
N2316 C2308 1.356 . S
N2316 H2322 0.984 . S
N2316 H2323 0.984 . S
N2317 C2310 1.356 . S
N2317 H2320 0.984 . S
N2317 H2321 0.985 . S
H2318 N2313 0.984 . S
H2319 N2313 0.985 . S
H2320 N2317 0.984 . S
H2321 N2317 0.985 . S
H2322 N2316 0.984 . S
H2323 N2316 0.984 . S
H2324 N2312 0.984 . S
H2325 N2312 0.985 . S
C2326 C2327 1.363 . S
C2326 C2332 1.379 . S
C2326 N2334 1.356 . S
C2327 C2326 1.363 . S
C2327 C2333 1.363 . S
C2328 C2329 1.363 . S
C2328 C2333 1.379 . S
C2328 N2335 1.356 . S
C2329 C2328 1.363 . S
C2329 C2332 1.363 . S
N2330 C2332 1.356 . S
N2330 H2342 0.984 . S
N2330 H2343 0.985 . S
N2331 C2333 1.356 . S
N2331 H2336 0.984 . S
N2331 H2337 0.985 . S
C2332 C2326 1.379 . S
C2332 C2329 1.363 . S
C2332 N2330 1.356 . S
C2333 C2327 1.363 . S
C2333 C2328 1.379 . S
C2333 N2331 1.356 . S
N2334 C2326 1.356 . S
N2334 H2340 0.984 . S
N2334 H2341 0.984 . S
N2335 C2328 1.356 . S
N2335 H2338 0.984 . S
N2335 H2339 0.985 . S
H2336 N2331 0.984 . S
H2337 N2331 0.985 . S
H2338 N2335 0.984 . S
H2339 N2335 0.985 . S
H2340 N2334 0.984 . S
H2341 N2334 0.984 . S
H2342 N2330 0.984 . S
H2343 N2330 0.985 . S
C2344 C2345 1.363 . S
C2344 C2350 1.379 . S
C2344 N2352 1.356 . S
C2345 C2344 1.363 . S
C2345 C2351 1.363 . S
C2346 C2347 1.363 . S
C2346 C2351 1.379 . S
C2346 N2353 1.356 . S
C2347 C2346 1.363 . S
C2347 C2350 1.363 . S
N2348 C2350 1.356 . S
N2348 H2360 0.984 . S
N2348 H2361 0.985 . S
N2349 C2351 1.356 . S
N2349 H2354 0.984 . S
N2349 H2355 0.985 . S
C2350 C2344 1.379 . S
C2350 C2347 1.363 . S
C2350 N2348 1.356 . S
C2351 C2345 1.363 . S
C2351 C2346 1.379 . S
C2351 N2349 1.356 . S
N2352 C2344 1.356 . S
N2352 H2358 0.984 . S
N2352 H2359 0.984 . S
N2353 C2346 1.356 . S
N2353 H2356 0.984 . S
N2353 H2357 0.985 . S
H2354 N2349 0.984 . S
H2355 N2349 0.985 . S
H2356 N2353 0.984 . S
H2357 N2353 0.985 . S
H2358 N2352 0.984 . S
H2359 N2352 0.984 . S
H2360 N2348 0.984 . S
H2361 N2348 0.985 . S
C2362 C2363 1.363 . S
C2362 C2368 1.379 . S
C2362 N2370 1.356 . S
C2363 C2362 1.363 . S
C2363 C2369 1.363 . S
C2364 C2365 1.363 . S
C2364 C2369 1.379 . S
C2364 N2371 1.356 . S
C2365 C2364 1.363 . S
C2365 C2368 1.363 . S
N2366 C2368 1.356 . S
N2366 H2378 0.984 . S
N2366 H2379 0.985 . S
N2367 C2369 1.356 . S
N2367 H2372 0.984 . S
N2367 H2373 0.985 . S
C2368 C2362 1.379 . S
C2368 C2365 1.363 . S
C2368 N2366 1.356 . S
C2369 C2363 1.363 . S
C2369 C2364 1.379 . S
C2369 N2367 1.356 . S
N2370 C2362 1.356 . S
N2370 H2376 0.984 . S
N2370 H2377 0.984 . S
N2371 C2364 1.356 . S
N2371 H2374 0.984 . S
N2371 H2375 0.985 . S
H2372 N2367 0.984 . S
H2373 N2367 0.985 . S
H2374 N2371 0.984 . S
H2375 N2371 0.985 . S
H2376 N2370 0.984 . S
H2377 N2370 0.984 . S
H2378 N2366 0.984 . S
H2379 N2366 0.985 . S
C2380 C2381 1.363 . S
C2380 C2386 1.379 . S
C2380 N2388 1.356 . S
C2381 C2380 1.363 . S
C2381 C2387 1.363 . S
C2382 C2383 1.363 . S
C2382 C2387 1.379 . S
C2382 N2389 1.356 . S
C2383 C2382 1.363 . S
C2383 C2386 1.363 . S
N2384 C2386 1.356 . S
N2384 H2396 0.984 . S
N2384 H2397 0.985 . S
N2385 C2387 1.356 . S
N2385 H2390 0.984 . S
N2385 H2391 0.985 . S
C2386 C2380 1.379 . S
C2386 C2383 1.363 . S
C2386 N2384 1.356 . S
C2387 C2381 1.363 . S
C2387 C2382 1.379 . S
C2387 N2385 1.356 . S
N2388 C2380 1.356 . S
N2388 H2394 0.984 . S
N2388 H2395 0.984 . S
N2389 C2382 1.356 . S
N2389 H2392 0.984 . S
N2389 H2393 0.985 . S
H2390 N2385 0.984 . S
H2391 N2385 0.985 . S
H2392 N2389 0.984 . S
H2393 N2389 0.985 . S
H2394 N2388 0.984 . S
H2395 N2388 0.984 . S
H2396 N2384 0.984 . S
H2397 N2384 0.985 . S
C2398 C2399 1.363 . S
C2398 C2404 1.379 . S
C2398 N2406 1.356 . S
C2399 C2398 1.363 . S
C2399 C2405 1.363 . S
C2400 C2401 1.363 . S
C2400 C2405 1.379 . S
C2400 N2407 1.356 . S
C2401 C2400 1.363 . S
C2401 C2404 1.363 . S
N2402 C2404 1.356 . S
N2402 H2414 0.984 . S
N2402 H2415 0.985 . S
N2403 C2405 1.356 . S
N2403 H2408 0.984 . S
N2403 H2409 0.985 . S
C2404 C2398 1.379 . S
C2404 C2401 1.363 . S
C2404 N2402 1.356 . S
C2405 C2399 1.363 . S
C2405 C2400 1.379 . S
C2405 N2403 1.356 . S
N2406 C2398 1.356 . S
N2406 H2412 0.984 . S
N2406 H2413 0.984 . S
N2407 C2400 1.356 . S
N2407 H2410 0.984 . S
N2407 H2411 0.985 . S
H2408 N2403 0.984 . S
H2409 N2403 0.985 . S
H2410 N2407 0.984 . S
H2411 N2407 0.985 . S
H2412 N2406 0.984 . S
H2413 N2406 0.984 . S
H2414 N2402 0.984 . S
H2415 N2402 0.985 . S
C2416 C2417 1.363 . S
C2416 C2422 1.379 . S
C2416 N2424 1.356 . S
C2417 C2416 1.363 . S
C2417 C2423 1.363 . S
C2418 C2419 1.363 . S
C2418 C2423 1.379 . S
C2418 N2425 1.356 . S
C2419 C2418 1.363 . S
C2419 C2422 1.363 . S
N2420 C2422 1.356 . S
N2420 H2432 0.984 . S
N2420 H2433 0.985 . S
N2421 C2423 1.356 . S
N2421 H2426 0.984 . S
N2421 H2427 0.985 . S
C2422 C2416 1.379 . S
C2422 C2419 1.363 . S
C2422 N2420 1.356 . S
C2423 C2417 1.363 . S
C2423 C2418 1.379 . S
C2423 N2421 1.356 . S
N2424 C2416 1.356 . S
N2424 H2430 0.984 . S
N2424 H2431 0.984 . S
N2425 C2418 1.356 . S
N2425 H2428 0.984 . S
N2425 H2429 0.985 . S
H2426 N2421 0.984 . S
H2427 N2421 0.985 . S
H2428 N2425 0.984 . S
H2429 N2425 0.985 . S
H2430 N2424 0.984 . S
H2431 N2424 0.984 . S
H2432 N2420 0.984 . S
H2433 N2420 0.985 . S
C2434 C2435 1.363 . S
C2434 C2440 1.379 . S
C2434 N2442 1.356 . S
C2435 C2434 1.363 . S
C2435 C2441 1.363 . S
C2436 C2437 1.363 . S
C2436 C2441 1.379 . S
C2436 N2443 1.356 . S
C2437 C2436 1.363 . S
C2437 C2440 1.363 . S
N2438 C2440 1.356 . S
N2438 H2450 0.984 . S
N2438 H2451 0.985 . S
N2439 C2441 1.356 . S
N2439 H2444 0.984 . S
N2439 H2445 0.985 . S
C2440 C2434 1.379 . S
C2440 C2437 1.363 . S
C2440 N2438 1.356 . S
C2441 C2435 1.363 . S
C2441 C2436 1.379 . S
C2441 N2439 1.356 . S
N2442 C2434 1.356 . S
N2442 H2448 0.984 . S
N2442 H2449 0.984 . S
N2443 C2436 1.356 . S
N2443 H2446 0.984 . S
N2443 H2447 0.985 . S
H2444 N2439 0.984 . S
H2445 N2439 0.985 . S
H2446 N2443 0.984 . S
H2447 N2443 0.985 . S
H2448 N2442 0.984 . S
H2449 N2442 0.984 . S
H2450 N2438 0.984 . S
H2451 N2438 0.985 . S
C2452 C2453 1.363 . S
C2452 C2458 1.379 . S
C2452 N2460 1.356 . S
C2453 C2452 1.363 . S
C2453 C2459 1.363 . S
C2454 C2455 1.363 . S
C2454 C2459 1.379 . S
C2454 N2461 1.356 . S
C2455 C2454 1.363 . S
C2455 C2458 1.363 . S
N2456 C2458 1.356 . S
N2456 H2468 0.984 . S
N2456 H2469 0.985 . S
N2457 C2459 1.356 . S
N2457 H2462 0.984 . S
N2457 H2463 0.985 . S
C2458 C2452 1.379 . S
C2458 C2455 1.363 . S
C2458 N2456 1.356 . S
C2459 C2453 1.363 . S
C2459 C2454 1.379 . S
C2459 N2457 1.356 . S
N2460 C2452 1.356 . S
N2460 H2466 0.984 . S
N2460 H2467 0.984 . S
N2461 C2454 1.356 . S
N2461 H2464 0.984 . S
N2461 H2465 0.985 . S
H2462 N2457 0.984 . S
H2463 N2457 0.985 . S
H2464 N2461 0.984 . S
H2465 N2461 0.985 . S
H2466 N2460 0.984 . S
H2467 N2460 0.984 . S
H2468 N2456 0.984 . S
H2469 N2456 0.985 . S
C2470 C2471 1.363 . S
C2470 C2476 1.379 . S
C2470 N2478 1.356 . S
C2471 C2470 1.363 . S
C2471 C2477 1.363 . S
C2472 C2473 1.363 . S
C2472 C2477 1.379 . S
C2472 N2479 1.356 . S
C2473 C2472 1.363 . S
C2473 C2476 1.363 . S
N2474 C2476 1.356 . S
N2474 H2486 0.984 . S
N2474 H2487 0.985 . S
N2475 C2477 1.356 . S
N2475 H2480 0.984 . S
N2475 H2481 0.985 . S
C2476 C2470 1.379 . S
C2476 C2473 1.363 . S
C2476 N2474 1.356 . S
C2477 C2471 1.363 . S
C2477 C2472 1.379 . S
C2477 N2475 1.356 . S
N2478 C2470 1.356 . S
N2478 H2484 0.984 . S
N2478 H2485 0.984 . S
N2479 C2472 1.356 . S
N2479 H2482 0.984 . S
N2479 H2483 0.985 . S
H2480 N2475 0.984 . S
H2481 N2475 0.985 . S
H2482 N2479 0.984 . S
H2483 N2479 0.985 . S
H2484 N2478 0.984 . S
H2485 N2478 0.984 . S
H2486 N2474 0.984 . S
H2487 N2474 0.985 . S
C2488 C2489 1.363 . S
C2488 C2494 1.379 . S
C2488 N2496 1.356 . S
C2489 C2488 1.363 . S
C2489 C2495 1.363 . S
C2490 C2491 1.363 . S
C2490 C2495 1.379 . S
C2490 N2497 1.356 . S
C2491 C2490 1.363 . S
C2491 C2494 1.363 . S
N2492 C2494 1.356 . S
N2492 H2504 0.984 . S
N2492 H2505 0.985 . S
N2493 C2495 1.356 . S
N2493 H2498 0.984 . S
N2493 H2499 0.985 . S
C2494 C2488 1.379 . S
C2494 C2491 1.363 . S
C2494 N2492 1.356 . S
C2495 C2489 1.363 . S
C2495 C2490 1.379 . S
C2495 N2493 1.356 . S
N2496 C2488 1.356 . S
N2496 H2502 0.984 . S
N2496 H2503 0.984 . S
N2497 C2490 1.356 . S
N2497 H2500 0.984 . S
N2497 H2501 0.985 . S
H2498 N2493 0.984 . S
H2499 N2493 0.985 . S
H2500 N2497 0.984 . S
H2501 N2497 0.985 . S
H2502 N2496 0.984 . S
H2503 N2496 0.984 . S
H2504 N2492 0.984 . S
H2505 N2492 0.985 . S
C2506 C2507 1.363 . S
C2506 C2512 1.379 . S
C2506 N2514 1.356 . S
C2507 C2506 1.363 . S
C2507 C2513 1.363 . S
C2508 C2509 1.363 . S
C2508 C2513 1.379 . S
C2508 N2515 1.356 . S
C2509 C2508 1.363 . S
C2509 C2512 1.363 . S
N2510 C2512 1.356 . S
N2510 H2522 0.984 . S
N2510 H2523 0.985 . S
N2511 C2513 1.356 . S
N2511 H2516 0.984 . S
N2511 H2517 0.985 . S
C2512 C2506 1.379 . S
C2512 C2509 1.363 . S
C2512 N2510 1.356 . S
C2513 C2507 1.363 . S
C2513 C2508 1.379 . S
C2513 N2511 1.356 . S
N2514 C2506 1.356 . S
N2514 H2520 0.984 . S
N2514 H2521 0.984 . S
N2515 C2508 1.356 . S
N2515 H2518 0.984 . S
N2515 H2519 0.985 . S
H2516 N2511 0.984 . S
H2517 N2511 0.985 . S
H2518 N2515 0.984 . S
H2519 N2515 0.985 . S
H2520 N2514 0.984 . S
H2521 N2514 0.984 . S
H2522 N2510 0.984 . S
H2523 N2510 0.985 . S
C2524 C2525 1.363 . S
C2524 C2530 1.379 . S
C2524 N2532 1.356 . S
C2525 C2524 1.363 . S
C2525 C2531 1.363 . S
C2526 C2527 1.363 . S
C2526 C2531 1.379 . S
C2526 N2533 1.356 . S
C2527 C2526 1.363 . S
C2527 C2530 1.363 . S
N2528 C2530 1.356 . S
N2528 H2540 0.984 . S
N2528 H2541 0.985 . S
N2529 C2531 1.356 . S
N2529 H2534 0.984 . S
N2529 H2535 0.985 . S
C2530 C2524 1.379 . S
C2530 C2527 1.363 . S
C2530 N2528 1.356 . S
C2531 C2525 1.363 . S
C2531 C2526 1.379 . S
C2531 N2529 1.356 . S
N2532 C2524 1.356 . S
N2532 H2538 0.984 . S
N2532 H2539 0.984 . S
N2533 C2526 1.356 . S
N2533 H2536 0.984 . S
N2533 H2537 0.985 . S
H2534 N2529 0.984 . S
H2535 N2529 0.985 . S
H2536 N2533 0.984 . S
H2537 N2533 0.985 . S
H2538 N2532 0.984 . S
H2539 N2532 0.984 . S
H2540 N2528 0.984 . S
H2541 N2528 0.985 . S
C2542 C2543 1.363 . S
C2542 C2548 1.379 . S
C2542 N2550 1.356 . S
C2543 C2542 1.363 . S
C2543 C2549 1.363 . S
C2544 C2545 1.363 . S
C2544 C2549 1.379 . S
C2544 N2551 1.356 . S
C2545 C2544 1.363 . S
C2545 C2548 1.363 . S
N2546 C2548 1.356 . S
N2546 H2558 0.984 . S
N2546 H2559 0.985 . S
N2547 C2549 1.356 . S
N2547 H2552 0.984 . S
N2547 H2553 0.985 . S
C2548 C2542 1.379 . S
C2548 C2545 1.363 . S
C2548 N2546 1.356 . S
C2549 C2543 1.363 . S
C2549 C2544 1.379 . S
C2549 N2547 1.356 . S
N2550 C2542 1.356 . S
N2550 H2556 0.984 . S
N2550 H2557 0.984 . S
N2551 C2544 1.356 . S
N2551 H2554 0.984 . S
N2551 H2555 0.985 . S
H2552 N2547 0.984 . S
H2553 N2547 0.985 . S
H2554 N2551 0.984 . S
H2555 N2551 0.985 . S
H2556 N2550 0.984 . S
H2557 N2550 0.984 . S
H2558 N2546 0.984 . S
H2559 N2546 0.985 . S
C2560 C2561 1.363 1_556 S
C2560 C2566 1.379 . S
C2560 N2568 1.356 . S
C2561 C2560 1.363 1_554 S
C2561 C2567 1.363 . S
C2562 C2563 1.363 . S
C2562 C2567 1.379 . S
C2562 N2569 1.356 . S
C2563 C2562 1.363 . S
C2563 C2566 1.363 1_554 S
N2564 C2566 1.356 . S
N2564 H2576 0.984 . S
N2564 H2577 0.985 . S
N2565 C2567 1.356 . S
N2565 H2570 0.984 . S
N2565 H2571 0.985 . S
C2566 C2560 1.379 . S
C2566 C2563 1.363 1_556 S
C2566 N2564 1.356 . S
C2567 C2561 1.363 . S
C2567 C2562 1.379 . S
C2567 N2565 1.356 . S
N2568 C2560 1.356 . S
N2568 H2574 0.984 . S
N2568 H2575 0.984 . S
N2569 C2562 1.356 . S
N2569 H2572 0.984 . S
N2569 H2573 0.985 . S
H2570 N2565 0.984 . S
H2571 N2565 0.985 . S
H2572 N2569 0.984 . S
H2573 N2569 0.985 . S
H2574 N2568 0.984 . S
H2575 N2568 0.984 . S
H2576 N2564 0.984 . S
H2577 N2564 0.985 . S
C2578 C2579 1.363 . S
C2578 C2584 1.379 . S
C2578 N2586 1.356 . S
C2579 C2578 1.363 . S
C2579 C2585 1.363 . S
C2580 C2581 1.363 . S
C2580 C2585 1.379 . S
C2580 N2587 1.356 . S
C2581 C2580 1.363 . S
C2581 C2584 1.363 . S
N2582 C2584 1.356 . S
N2582 H2594 0.984 . S
N2582 H2595 0.985 . S
N2583 C2585 1.356 . S
N2583 H2588 0.984 . S
N2583 H2589 0.985 . S
C2584 C2578 1.379 . S
C2584 C2581 1.363 . S
C2584 N2582 1.356 . S
C2585 C2579 1.363 . S
C2585 C2580 1.379 . S
C2585 N2583 1.356 . S
N2586 C2578 1.356 . S
N2586 H2592 0.984 . S
N2586 H2593 0.984 . S
N2587 C2580 1.356 . S
N2587 H2590 0.984 . S
N2587 H2591 0.985 . S
H2588 N2583 0.984 . S
H2589 N2583 0.985 . S
H2590 N2587 0.984 . S
H2591 N2587 0.985 . S
H2592 N2586 0.984 . S
H2593 N2586 0.984 . S
H2594 N2582 0.984 . S
H2595 N2582 0.985 . S
C2596 C2597 1.363 1_554 S
C2596 C2602 1.379 . S
C2596 N2604 1.356 . S
C2597 C2596 1.363 1_556 S
C2597 C2603 1.363 . S
C2598 C2599 1.363 . S
C2598 C2603 1.379 . S
C2598 N2605 1.356 . S
C2599 C2598 1.363 . S
C2599 C2602 1.363 1_556 S
N2600 C2602 1.356 . S
N2600 H2612 0.984 . S
N2600 H2613 0.985 . S
N2601 C2603 1.356 . S
N2601 H2606 0.984 . S
N2601 H2607 0.985 . S
C2602 C2596 1.379 . S
C2602 C2599 1.363 1_554 S
C2602 N2600 1.356 . S
C2603 C2597 1.363 . S
C2603 C2598 1.379 . S
C2603 N2601 1.356 . S
N2604 C2596 1.356 . S
N2604 H2610 0.984 . S
N2604 H2611 0.984 . S
N2605 C2598 1.356 . S
N2605 H2608 0.984 . S
N2605 H2609 0.985 . S
H2606 N2601 0.984 . S
H2607 N2601 0.985 . S
H2608 N2605 0.984 . S
H2609 N2605 0.985 . S
H2610 N2604 0.984 . S
H2611 N2604 0.984 . S
H2612 N2600 0.984 . S
H2613 N2600 0.985 . S
C2614 C2615 1.363 . S
C2614 C2620 1.379 . S
C2614 N2622 1.356 . S
C2615 C2614 1.363 . S
C2615 C2621 1.363 . S
C2616 C2617 1.363 . S
C2616 C2621 1.379 . S
C2616 N2623 1.356 . S
C2617 C2616 1.363 . S
C2617 C2620 1.363 . S
N2618 C2620 1.356 . S
N2618 H2630 0.984 . S
N2618 H2631 0.985 . S
N2619 C2621 1.356 . S
N2619 H2624 0.984 . S
N2619 H2625 0.985 . S
C2620 C2614 1.379 . S
C2620 C2617 1.363 . S
C2620 N2618 1.356 . S
C2621 C2615 1.363 . S
C2621 C2616 1.379 . S
C2621 N2619 1.356 . S
N2622 C2614 1.356 . S
N2622 H2628 0.984 . S
N2622 H2629 0.984 . S
N2623 C2616 1.356 . S
N2623 H2626 0.984 . S
N2623 H2627 0.985 . S
H2624 N2619 0.984 . S
H2625 N2619 0.985 . S
H2626 N2623 0.984 . S
H2627 N2623 0.985 . S
H2628 N2622 0.984 . S
H2629 N2622 0.984 . S
H2630 N2618 0.984 . S
H2631 N2618 0.985 . S
C2632 C2633 1.363 . S
C2632 C2638 1.379 . S
C2632 N2640 1.356 . S
C2633 C2632 1.363 . S
C2633 C2639 1.363 . S
C2634 C2635 1.363 . S
C2634 C2639 1.379 . S
C2634 N2641 1.356 . S
C2635 C2634 1.363 . S
C2635 C2638 1.363 . S
N2636 C2638 1.356 . S
N2636 H2648 0.984 . S
N2636 H2649 0.985 . S
N2637 C2639 1.356 . S
N2637 H2642 0.984 . S
N2637 H2643 0.985 . S
C2638 C2632 1.379 . S
C2638 C2635 1.363 . S
C2638 N2636 1.356 . S
C2639 C2633 1.363 . S
C2639 C2634 1.379 . S
C2639 N2637 1.356 . S
N2640 C2632 1.356 . S
N2640 H2646 0.984 . S
N2640 H2647 0.984 . S
N2641 C2634 1.356 . S
N2641 H2644 0.984 . S
N2641 H2645 0.985 . S
H2642 N2637 0.984 . S
H2643 N2637 0.985 . S
H2644 N2641 0.984 . S
H2645 N2641 0.985 . S
H2646 N2640 0.984 . S
H2647 N2640 0.984 . S
H2648 N2636 0.984 . S
H2649 N2636 0.985 . S
C2650 C2651 1.363 . S
C2650 C2656 1.379 . S
C2650 N2658 1.356 . S
C2651 C2650 1.363 . S
C2651 C2657 1.363 . S
C2652 C2653 1.363 . S
C2652 C2657 1.379 . S
C2652 N2659 1.356 . S
C2653 C2652 1.363 . S
C2653 C2656 1.363 . S
N2654 C2656 1.356 . S
N2654 H2666 0.984 . S
N2654 H2667 0.985 . S
N2655 C2657 1.356 . S
N2655 H2660 0.984 . S
N2655 H2661 0.985 . S
C2656 C2650 1.379 . S
C2656 C2653 1.363 . S
C2656 N2654 1.356 . S
C2657 C2651 1.363 . S
C2657 C2652 1.379 . S
C2657 N2655 1.356 . S
N2658 C2650 1.356 . S
N2658 H2664 0.984 . S
N2658 H2665 0.984 . S
N2659 C2652 1.356 . S
N2659 H2662 0.984 . S
N2659 H2663 0.985 . S
H2660 N2655 0.984 . S
H2661 N2655 0.985 . S
H2662 N2659 0.984 . S
H2663 N2659 0.985 . S
H2664 N2658 0.984 . S
H2665 N2658 0.984 . S
H2666 N2654 0.984 . S
H2667 N2654 0.985 . S
C2668 C2669 1.363 . S
C2668 C2674 1.379 . S
C2668 N2676 1.356 . S
C2669 C2668 1.363 . S
C2669 C2675 1.363 . S
C2670 C2671 1.363 . S
C2670 C2675 1.379 . S
C2670 N2677 1.356 . S
C2671 C2670 1.363 . S
C2671 C2674 1.363 . S
N2672 C2674 1.356 . S
N2672 H2684 0.984 . S
N2672 H2685 0.985 . S
N2673 C2675 1.356 . S
N2673 H2678 0.984 . S
N2673 H2679 0.985 . S
C2674 C2668 1.379 . S
C2674 C2671 1.363 . S
C2674 N2672 1.356 . S
C2675 C2669 1.363 . S
C2675 C2670 1.379 . S
C2675 N2673 1.356 . S
N2676 C2668 1.356 . S
N2676 H2682 0.984 . S
N2676 H2683 0.984 . S
N2677 C2670 1.356 . S
N2677 H2680 0.984 . S
N2677 H2681 0.985 . S
H2678 N2673 0.984 . S
H2679 N2673 0.985 . S
H2680 N2677 0.984 . S
H2681 N2677 0.985 . S
H2682 N2676 0.984 . S
H2683 N2676 0.984 . S
H2684 N2672 0.984 . S
H2685 N2672 0.985 . S
C2686 C2687 1.363 . S
C2686 C2692 1.379 . S
C2686 N2694 1.356 . S
C2687 C2686 1.363 . S
C2687 C2693 1.363 . S
C2688 C2689 1.363 . S
C2688 C2693 1.379 . S
C2688 N2695 1.356 . S
C2689 C2688 1.363 . S
C2689 C2692 1.363 . S
N2690 C2692 1.356 . S
N2690 H2702 0.984 . S
N2690 H2703 0.985 . S
N2691 C2693 1.356 . S
N2691 H2696 0.984 . S
N2691 H2697 0.985 . S
C2692 C2686 1.379 . S
C2692 C2689 1.363 . S
C2692 N2690 1.356 . S
C2693 C2687 1.363 . S
C2693 C2688 1.379 . S
C2693 N2691 1.356 . S
N2694 C2686 1.356 . S
N2694 H2700 0.984 . S
N2694 H2701 0.984 . S
N2695 C2688 1.356 . S
N2695 H2698 0.984 . S
N2695 H2699 0.985 . S
H2696 N2691 0.984 . S
H2697 N2691 0.985 . S
H2698 N2695 0.984 . S
H2699 N2695 0.985 . S
H2700 N2694 0.984 . S
H2701 N2694 0.984 . S
H2702 N2690 0.984 . S
H2703 N2690 0.985 . S
C2704 C2705 1.363 . S
C2704 C2710 1.379 . S
C2704 N2712 1.356 . S
C2705 C2704 1.363 . S
C2705 C2711 1.363 . S
C2706 C2707 1.363 . S
C2706 C2711 1.379 . S
C2706 N2713 1.356 . S
C2707 C2706 1.363 . S
C2707 C2710 1.363 . S
N2708 C2710 1.356 . S
N2708 H2720 0.984 . S
N2708 H2721 0.985 . S
N2709 C2711 1.356 . S
N2709 H2714 0.984 . S
N2709 H2715 0.985 . S
C2710 C2704 1.379 . S
C2710 C2707 1.363 . S
C2710 N2708 1.356 . S
C2711 C2705 1.363 . S
C2711 C2706 1.379 . S
C2711 N2709 1.356 . S
N2712 C2704 1.356 . S
N2712 H2718 0.984 . S
N2712 H2719 0.984 . S
N2713 C2706 1.356 . S
N2713 H2716 0.984 . S
N2713 H2717 0.985 . S
H2714 N2709 0.984 . S
H2715 N2709 0.985 . S
H2716 N2713 0.984 . S
H2717 N2713 0.985 . S
H2718 N2712 0.984 . S
H2719 N2712 0.984 . S
H2720 N2708 0.984 . S
H2721 N2708 0.985 . S
C2722 C2723 1.363 . S
C2722 C2728 1.379 . S
C2722 N2730 1.356 . S
C2723 C2722 1.363 . S
C2723 C2729 1.363 . S
C2724 C2725 1.363 . S
C2724 C2729 1.379 . S
C2724 N2731 1.356 . S
C2725 C2724 1.363 . S
C2725 C2728 1.363 . S
N2726 C2728 1.356 . S
N2726 H2738 0.984 . S
N2726 H2739 0.985 . S
N2727 C2729 1.356 . S
N2727 H2732 0.984 . S
N2727 H2733 0.985 . S
C2728 C2722 1.379 . S
C2728 C2725 1.363 . S
C2728 N2726 1.356 . S
C2729 C2723 1.363 . S
C2729 C2724 1.379 . S
C2729 N2727 1.356 . S
N2730 C2722 1.356 . S
N2730 H2736 0.984 . S
N2730 H2737 0.984 . S
N2731 C2724 1.356 . S
N2731 H2734 0.984 . S
N2731 H2735 0.985 . S
H2732 N2727 0.984 . S
H2733 N2727 0.985 . S
H2734 N2731 0.984 . S
H2735 N2731 0.985 . S
H2736 N2730 0.984 . S
H2737 N2730 0.984 . S
H2738 N2726 0.984 . S
H2739 N2726 0.985 . S
C2740 C2741 1.363 . S
C2740 C2746 1.379 . S
C2740 N2748 1.356 . S
C2741 C2740 1.363 . S
C2741 C2747 1.363 . S
C2742 C2743 1.363 . S
C2742 C2747 1.379 . S
C2742 N2749 1.356 . S
C2743 C2742 1.363 . S
C2743 C2746 1.363 . S
N2744 C2746 1.356 . S
N2744 H2756 0.984 . S
N2744 H2757 0.985 . S
N2745 C2747 1.356 . S
N2745 H2750 0.984 . S
N2745 H2751 0.985 . S
C2746 C2740 1.379 . S
C2746 C2743 1.363 . S
C2746 N2744 1.356 . S
C2747 C2741 1.363 . S
C2747 C2742 1.379 . S
C2747 N2745 1.356 . S
N2748 C2740 1.356 . S
N2748 H2754 0.984 . S
N2748 H2755 0.984 . S
N2749 C2742 1.356 . S
N2749 H2752 0.984 . S
N2749 H2753 0.985 . S
H2750 N2745 0.984 . S
H2751 N2745 0.985 . S
H2752 N2749 0.984 . S
H2753 N2749 0.985 . S
H2754 N2748 0.984 . S
H2755 N2748 0.984 . S
H2756 N2744 0.984 . S
H2757 N2744 0.985 . S
C2758 C2759 1.363 . S
C2758 C2764 1.379 . S
C2758 N2766 1.356 . S
C2759 C2758 1.363 . S
C2759 C2765 1.363 . S
C2760 C2761 1.363 . S
C2760 C2765 1.379 . S
C2760 N2767 1.356 . S
C2761 C2760 1.363 . S
C2761 C2764 1.363 . S
N2762 C2764 1.356 . S
N2762 H2774 0.984 . S
N2762 H2775 0.985 . S
N2763 C2765 1.356 . S
N2763 H2768 0.984 . S
N2763 H2769 0.985 . S
C2764 C2758 1.379 . S
C2764 C2761 1.363 . S
C2764 N2762 1.356 . S
C2765 C2759 1.363 . S
C2765 C2760 1.379 . S
C2765 N2763 1.356 . S
N2766 C2758 1.356 . S
N2766 H2772 0.984 . S
N2766 H2773 0.984 . S
N2767 C2760 1.356 . S
N2767 H2770 0.984 . S
N2767 H2771 0.985 . S
H2768 N2763 0.984 . S
H2769 N2763 0.985 . S
H2770 N2767 0.984 . S
H2771 N2767 0.985 . S
H2772 N2766 0.984 . S
H2773 N2766 0.984 . S
H2774 N2762 0.984 . S
H2775 N2762 0.985 . S
C2776 C2777 1.363 . S
C2776 C2782 1.379 . S
C2776 N2784 1.356 . S
C2777 C2776 1.363 . S
C2777 C2783 1.363 1_554 S
C2778 C2779 1.363 1_556 S
C2778 C2783 1.379 . S
C2778 N2785 1.356 . S
C2779 C2778 1.363 1_554 S
C2779 C2782 1.363 . S
N2780 C2782 1.356 . S
N2780 H2792 0.984 . S
N2780 H2793 0.985 . S
N2781 C2783 1.356 . S
N2781 H2786 0.984 . S
N2781 H2787 0.985 . S
C2782 C2776 1.379 . S
C2782 C2779 1.363 . S
C2782 N2780 1.356 . S
C2783 C2777 1.363 1_556 S
C2783 C2778 1.379 . S
C2783 N2781 1.356 . S
N2784 C2776 1.356 . S
N2784 H2790 0.984 . S
N2784 H2791 0.984 . S
N2785 C2778 1.356 . S
N2785 H2788 0.984 . S
N2785 H2789 0.985 . S
H2786 N2781 0.984 . S
H2787 N2781 0.985 . S
H2788 N2785 0.984 . S
H2789 N2785 0.985 . S
H2790 N2784 0.984 . S
H2791 N2784 0.984 . S
H2792 N2780 0.984 . S
H2793 N2780 0.985 . S
C2794 C2795 1.363 . S
C2794 C2800 1.379 . S
C2794 N2802 1.356 . S
C2795 C2794 1.363 . S
C2795 C2801 1.363 . S
C2796 C2797 1.363 . S
C2796 C2801 1.379 . S
C2796 N2803 1.356 . S
C2797 C2796 1.363 . S
C2797 C2800 1.363 . S
N2798 C2800 1.356 . S
N2798 H2810 0.984 . S
N2798 H2811 0.985 . S
N2799 C2801 1.356 . S
N2799 H2804 0.984 . S
N2799 H2805 0.985 . S
C2800 C2794 1.379 . S
C2800 C2797 1.363 . S
C2800 N2798 1.356 . S
C2801 C2795 1.363 . S
C2801 C2796 1.379 . S
C2801 N2799 1.356 . S
N2802 C2794 1.356 . S
N2802 H2808 0.984 . S
N2802 H2809 0.984 . S
N2803 C2796 1.356 . S
N2803 H2806 0.984 . S
N2803 H2807 0.985 . S
H2804 N2799 0.984 . S
H2805 N2799 0.985 . S
H2806 N2803 0.984 . S
H2807 N2803 0.985 . S
H2808 N2802 0.984 . S
H2809 N2802 0.984 . S
H2810 N2798 0.984 . S
H2811 N2798 0.985 . S
C2812 C2813 1.363 . S
C2812 C2818 1.379 . S
C2812 N2820 1.356 . S
C2813 C2812 1.363 . S
C2813 C2819 1.363 1_556 S
C2814 C2815 1.363 1_554 S
C2814 C2819 1.379 . S
C2814 N2821 1.356 . S
C2815 C2814 1.363 1_556 S
C2815 C2818 1.363 . S
N2816 C2818 1.356 . S
N2816 H2828 0.984 . S
N2816 H2829 0.985 . S
N2817 C2819 1.356 . S
N2817 H2822 0.984 . S
N2817 H2823 0.985 . S
C2818 C2812 1.379 . S
C2818 C2815 1.363 . S
C2818 N2816 1.356 . S
C2819 C2813 1.363 1_554 S
C2819 C2814 1.379 . S
C2819 N2817 1.356 . S
N2820 C2812 1.356 . S
N2820 H2826 0.984 . S
N2820 H2827 0.984 . S
N2821 C2814 1.356 . S
N2821 H2824 0.984 . S
N2821 H2825 0.985 . S
H2822 N2817 0.984 . S
H2823 N2817 0.985 . S
H2824 N2821 0.984 . S
H2825 N2821 0.985 . S
H2826 N2820 0.984 . S
H2827 N2820 0.984 . S
H2828 N2816 0.984 . S
H2829 N2816 0.985 . S
C2830 C2831 1.363 . S
C2830 C2836 1.379 . S
C2830 N2838 1.356 . S
C2831 C2830 1.363 . S
C2831 C2837 1.363 . S
C2832 C2833 1.363 . S
C2832 C2837 1.379 . S
C2832 N2839 1.356 . S
C2833 C2832 1.363 . S
C2833 C2836 1.363 . S
N2834 C2836 1.356 . S
N2834 H2846 0.984 . S
N2834 H2847 0.985 . S
N2835 C2837 1.356 . S
N2835 H2840 0.984 . S
N2835 H2841 0.985 . S
C2836 C2830 1.379 . S
C2836 C2833 1.363 . S
C2836 N2834 1.356 . S
C2837 C2831 1.363 . S
C2837 C2832 1.379 . S
C2837 N2835 1.356 . S
N2838 C2830 1.356 . S
N2838 H2844 0.984 . S
N2838 H2845 0.984 . S
N2839 C2832 1.356 . S
N2839 H2842 0.984 . S
N2839 H2843 0.985 . S
H2840 N2835 0.984 . S
H2841 N2835 0.985 . S
H2842 N2839 0.984 . S
H2843 N2839 0.985 . S
H2844 N2838 0.984 . S
H2845 N2838 0.984 . S
H2846 N2834 0.984 . S
H2847 N2834 0.985 . S
C1697 C38 1.615 . S
C1699 C197 1.615 . S
C1715 C144 1.614 . S
C1717 C91 1.614 . S
C1733 C409 1.618 . S
C1735 C250 1.618 . S
C1751 C356 1.618 . S
C1753 C303 1.618 . S
C1769 C462 1.615 . S
C1771 C621 1.615 . S
C1787 C515 1.614 . S
C1789 C568 1.614 . S
C1805 C833 1.618 . S
C1807 C674 1.618 . S
C1823 C780 1.618 . S
C1825 C727 1.618 . S
C1841 C886 1.614 . S
C1843 C1045 1.614 . S
C1859 C939 1.615 . S
C1861 C992 1.615 . S
C1877 C1098 1.618 . S
C1879 C1257 1.618 . S
C1895 C1151 1.618 . S
C1897 C1204 1.618 . S
C1913 C1310 1.615 . S
C1915 C1469 1.615 . S
C1931 C1416 1.615 . S
C1933 C1363 1.615 . S
C1949 C1681 1.618 . S
C1951 C1522 1.618 . S
C1967 C1628 1.618 . S
C1969 C1575 1.618 . S
C1985 C22 1.730 . S
C1987 C234 1.723 . S
C2003 C1559 1.724 . S
C2005 C75 1.730 . S
C2021 C128 1.730 . S
C2023 C764 1.723 . S
C2039 C1241 1.723 . S
C2041 C181 1.730 . S
C2057 C1347 1.731 . S
C2059 C287 1.724 . S
C2075 C340 1.723 . S
C2077 C552 1.730 . S
C2093 C393 1.723 . S
C2095 C1029 1.730 . S
C2111 C658 1.724 . S
C2113 C446 1.730 . S
C2129 C1135 1.723 . S
C2131 C499 1.730 . S
C2147 C605 1.730 . S
C2149 C1665 1.723 . S
C2165 C711 1.723 . S
C2167 C923 1.730 . S
C2183 C817 1.723 . S
C2185 C1453 1.730 . S
C2201 C1082 1.723 . S
C2203 C870 1.730 . S
C2219 C976 1.730 . S
C2221 C1612 1.723 . S
C2237 C1188 1.723 . S
C2239 C1400 1.730 . S
C2255 C1506 1.724 . S
C2257 C1294 1.731 . S
C2273 C39 1.469 . S
C2275 C1046 1.469 . S
C2291 C92 1.469 . S
C2293 C993 1.469 . S
C2309 C940 1.469 . S
C2311 C145 1.469 . S
C2327 C887 1.469 . S
C2329 C198 1.469 . S
C2345 C251 1.466 . S
C2347 C1258 1.466 . S
C2363 C304 1.466 . S
C2365 C1205 1.466 . S
C2381 C357 1.466 . S
C2383 C1152 1.466 . S
C2399 C1099 1.466 . S
C2401 C410 1.466 . S
C2417 C463 1.469 . S
C2419 C1470 1.469 . S
C2435 C1417 1.469 . S
C2437 C516 1.469 . S
C2453 C1364 1.469 . S
C2455 C569 1.469 . S
C2471 C622 1.469 . S
C2473 C1311 1.469 . S
C2489 C675 1.465 . S
C2491 C1682 1.465 . S
C2507 C728 1.466 . S
C2509 C1629 1.466 . S
C2525 C1576 1.466 . S
C2527 C781 1.466 . S
C2543 C834 1.466 . S
C2545 C1523 1.466 . S
C2561 C82 1.712 . S
C2563 C29 1.712 . S
C2579 C135 1.713 . S
C2581 C188 1.713 . S
C2597 C294 1.720 . S
C2599 C241 1.720 . S
C2615 C347 1.720 . S
C2617 C400 1.720 . S
C2633 C506 1.713 . S
C2635 C453 1.713 . S
C2651 C559 1.712 . S
C2653 C612 1.712 . S
C2669 C665 1.720 . S
C2671 C718 1.720 . S
C2687 C771 1.720 . S
C2689 C824 1.720 . S
C2705 C877 1.713 . S
C2707 C930 1.713 . S
C2723 C1036 1.713 . S
C2725 C983 1.713 . S
C2741 C1089 1.720 . S
C2743 C1142 1.720 . S
C2759 C1248 1.720 . S
C2761 C1195 1.720 . S
C2777 C1354 1.713 . S
C2779 C1301 1.713 . S
C2795 C1407 1.713 . S
C2797 C1460 1.713 . S
C2813 C1513 1.720 . S
C2815 C1566 1.720 . S
C2831 C1672 1.720 . S
C2833 C1619 1.720 . S
