# Generated by pormake.
# Topology dia, (4)-cn, num edge types: 1
# Building blocks:
#     Node 0, Type 0, BuildingBlock: QUQFOY_clean_sbu_3, # of connection points: 4
#     Node 1, Type 0, BuildingBlock: QUQFOY_clean_sbu_3, # of connection points: 4
#     Node 2, Type 0, BuildingBlock: QUQFOY_clean_sbu_3, # of connection points: 4
#     Node 3, Type 0, BuildingBlock: QUQFOY_clean_sbu_3, # of connection points: 4
#     Node 4, Type 0, BuildingBlock: QUQFOY_clean_sbu_3, # of connection points: 4
#     Node 5, Type 0, BuildingBlock: QUQFOY_clean_sbu_3, # of connection points: 4
#     Node 6, Type 0, BuildingBlock: QUQFOY_clean_sbu_3, # of connection points: 4
#     Node 7, Type 0, BuildingBlock: QUQFOY_clean_sbu_3, # of connection points: 4
#     Edge 8, Type (0, 0), BuildingBlock: FUNLAD_clean_linker_0, # of connection points: 2
#     Edge 9, Type (0, 0), BuildingBlock: FUNLAD_clean_linker_0, # of connection points: 2
#     Edge 10, Type (0, 0), BuildingBlock: FUNLAD_clean_linker_0, # of connection points: 2
#     Edge 11, Type (0, 0), BuildingBlock: FUNLAD_clean_linker_0, # of connection points: 2
#     Edge 12, Type (0, 0), BuildingBlock: FUNLAD_clean_linker_0, # of connection points: 2
#     Edge 13, Type (0, 0), BuildingBlock: FUNLAD_clean_linker_0, # of connection points: 2
#     Edge 14, Type (0, 0), BuildingBlock: FUNLAD_clean_linker_0, # of connection points: 2
#     Edge 15, Type (0, 0), BuildingBlock: FUNLAD_clean_linker_0, # of connection points: 2
#     Edge 16, Type (0, 0), BuildingBlock: FUNLAD_clean_linker_0, # of connection points: 2
#     Edge 17, Type (0, 0), BuildingBlock: FUNLAD_clean_linker_0, # of connection points: 2
#     Edge 18, Type (0, 0), BuildingBlock: FUNLAD_clean_linker_0, # of connection points: 2
#     Edge 19, Type (0, 0), BuildingBlock: FUNLAD_clean_linker_0, # of connection points: 2
#     Edge 20, Type (0, 0), BuildingBlock: FUNLAD_clean_linker_0, # of connection points: 2
#     Edge 21, Type (0, 0), BuildingBlock: FUNLAD_clean_linker_0, # of connection points: 2
#     Edge 22, Type (0, 0), BuildingBlock: FUNLAD_clean_linker_0, # of connection points: 2
#     Edge 23, Type (0, 0), BuildingBlock: FUNLAD_clean_linker_0, # of connection points: 2
# Relax obj value: 0.120
# Max RMSD: 0.163
# Mean RMSD: 0.163
data_MOF--net-dia--node1-QUQFOY_clean_sbu_3--edge1-FUNLAD_clean_linker_0
_symmetry_space_group_name_H-M    P1
_symmetry_Int_Tables_number       1
_symmetry_cell_setting            triclinic
loop_
_symmetry_equiv_pos_as_xyz
'x, y, z'
_cell_length_a     39.296109
_cell_length_b     39.392949
_cell_length_c     45.990863
_cell_angle_alpha  90.353702
_cell_angle_beta   90.31498
_cell_angle_gamma 92.894278
loop_
_atom_site_label
_atom_site_type_symbol
_atom_site_fract_x
_atom_site_fract_y
_atom_site_fract_z
_atom_type_partial_charge
C0 C 0.04641 0.15778 0.6437 0.0
O1 O 0.0326 0.15384 0.61879 0.0
Cd2 Cd 0.0526 0.11904 0.58057 0.0
O3 O 0.07359 0.14293 0.6501 0.0
Cd4 Cd 0.11317 0.10338 0.62683 0.0
C5 C 0.13225 0.15714 0.57059 0.0
O6 O 0.06721 0.06901 0.6058 0.0
O7 O 0.11685 0.05369 0.59371 0.0
O8 O 0.12116 0.08002 0.67528 0.0
C9 C 0.08483 0.0484 0.59204 0.0
O10 O 0.10221 0.15064 0.56087 0.0
C11 C 0.15339 0.07976 0.67364 0.0
O12 O 0.14202 0.14454 0.59449 0.0
O13 O 0.16691 0.09104 0.65038 0.0
C14 C 0.82653 0.44824 0.84598 0.0
O15 O 0.83496 0.46374 0.86941 0.0
Cd16 Cd 0.86394 0.43629 0.90792 0.0
O17 O 0.83564 0.41811 0.84134 0.0
Cd18 Cd 0.87056 0.37483 0.86432 0.0
C19 C 0.81134 0.36436 0.91654 0.0
O20 O 0.91367 0.41239 0.88764 0.0
O21 O 0.91147 0.3601 0.9016 0.0
O22 O 0.89667 0.36796 0.81709 0.0
C23 C 0.92661 0.38925 0.90254 0.0
O24 O 0.82254 0.39315 0.92633 0.0
C25 C 0.89338 0.33575 0.81661 0.0
O26 O 0.82337 0.35193 0.89337 0.0
O27 O 0.87853 0.32154 0.83814 0.0
C28 C 0.54822 0.16227 0.14444 0.0
O29 O 0.53285 0.1567 0.12039 0.0
Cd30 Cd 0.55624 0.12677 0.08031 0.0
O31 O 0.57755 0.1508 0.14894 0.0
Cd32 Cd 0.61849 0.11565 0.12269 0.0
C33 C 0.63117 0.17301 0.06878 0.0
O34 O 0.57783 0.0755 0.09937 0.0
O35 O 0.62949 0.07515 0.08378 0.0
O36 O 0.63163 0.08234 0.16544 0.0
C37 C 0.59946 0.06185 0.08328 0.0
O38 O 0.60144 0.16407 0.05949 0.0
C39 C 0.66311 0.09133 0.16607 0.0
O40 O 0.64275 0.16064 0.09212 0.0
O41 O 0.67369 0.1123 0.14689 0.0
C42 C 0.84487 0.9373 0.33524 0.0
O43 O 0.85142 0.95265 0.35913 0.0
Cd44 Cd 0.88182 0.92956 0.39872 0.0
O45 O 0.85616 0.90802 0.33022 0.0
Cd46 Cd 0.89306 0.86665 0.35442 0.0
C47 C 0.83428 0.85428 0.40765 0.0
O48 O 0.93147 0.90822 0.37717 0.0
O49 O 0.93722 0.85698 0.39159 0.0
O50 O 0.92359 0.85858 0.30932 0.0
C51 C 0.94757 0.88796 0.3927 0.0
O52 O 0.8432 0.88402 0.4168 0.0
C53 C 0.91862 0.82651 0.30843 0.0
O54 O 0.8476 0.84196 0.38496 0.0
O55 O 0.90069 0.813 0.32859 0.0
C56 C 0.05001 0.63918 0.12871 0.0
O57 O 0.03578 0.63064 0.10473 0.0
Cd58 Cd 0.06229 0.59927 0.06727 0.0
O59 O 0.08005 0.63032 0.13462 0.0
Cd60 Cd 0.12444 0.59595 0.1119 0.0
C61 C 0.13466 0.65009 0.05552 0.0
O62 O 0.0858 0.5523 0.09157 0.0
O63 O 0.13719 0.55184 0.07583 0.0
O64 O 0.1355 0.57214 0.15957 0.0
C65 C 0.10752 0.53772 0.07636 0.0
O66 O 0.1064 0.6373 0.04575 0.0
C67 C 0.16767 0.57665 0.1584 0.0
O68 O 0.14606 0.64125 0.08017 0.0
O69 O 0.1798 0.59116 0.13587 0.0
C70 C 0.32756 0.44284 0.35598 0.0
O71 O 0.33287 0.45602 0.38096 0.0
Cd72 Cd 0.36421 0.43047 0.41888 0.0
O73 O 0.33932 0.41415 0.34955 0.0
Cd74 Cd 0.37376 0.37049 0.37332 0.0
C75 C 0.3163 0.35604 0.42732 0.0
O76 O 0.41442 0.41009 0.39664 0.0
O77 O 0.41632 0.3581 0.4107 0.0
O78 O 0.40507 0.36062 0.32871 0.0
C79 C 0.42928 0.38822 0.41149 0.0
O80 O 0.32607 0.38498 0.43769 0.0
C81 C 0.39673 0.32914 0.32685 0.0
O82 O 0.32838 0.34527 0.40354 0.0
O83 O 0.37705 0.31688 0.34637 0.0
C84 C 0.33661 0.93553 0.84856 0.0
O85 O 0.34164 0.95021 0.87297 0.0
Cd86 Cd 0.37411 0.92774 0.91186 0.0
O87 O 0.34923 0.90695 0.84327 0.0
Cd88 Cd 0.38534 0.86589 0.86827 0.0
C89 C 0.32848 0.8522 0.92258 0.0
O90 O 0.42473 0.90803 0.89023 0.0
O91 O 0.42863 0.85692 0.90581 0.0
O92 O 0.41277 0.85675 0.82173 0.0
C93 C 0.44029 0.88749 0.90594 0.0
O94 O 0.33865 0.88128 0.93244 0.0
C95 C 0.41014 0.82453 0.82264 0.0
O96 O 0.33952 0.84126 0.89845 0.0
O97 O 0.3952 0.81141 0.84459 0.0
C98 C 0.55266 0.66887 0.62705 0.0
O99 O 0.53999 0.66348 0.60189 0.0
Cd100 Cd 0.56444 0.62782 0.56605 0.0
O101 O 0.58022 0.65545 0.63453 0.0
Cd102 Cd 0.62231 0.61756 0.61315 0.0
C103 C 0.6423 0.6686 0.55576 0.0
O104 O 0.58068 0.5777 0.59113 0.0
O105 O 0.63295 0.57086 0.57933 0.0
O106 O 0.63016 0.58977 0.65972 0.0
C107 C 0.60202 0.56012 0.57804 0.0
O108 O 0.61301 0.66018 0.54526 0.0
C109 C 0.66189 0.59722 0.66161 0.0
O110 O 0.65122 0.65817 0.58067 0.0
O111 O 0.67521 0.61457 0.64106 0.0
C112 C 0.28857 0.29914 0.43893 0.0
C113 C 0.29107 0.3345 0.44345 0.0
C114 C 0.26558 0.27869 0.45501 0.0
C115 C 0.24434 0.2933 0.47562 0.0
C116 C 0.24615 0.32867 0.47954 0.0
C117 C 0.2696 0.34906 0.4639 0.0
C118 C 0.21952 0.27231 0.49279 0.0
C119 C 0.22631 0.24126 0.50261 0.0
C120 C 0.20178 0.22051 0.52029 0.0
C121 C 0.21408 0.19904 0.54173 0.0
C122 C 0.1915 0.17889 0.55849 0.0
C123 C 0.15618 0.17926 0.5536 0.0
H124 H 0.1562 0.23665 0.49857 0.0
C125 C 0.14391 0.20045 0.53184 0.0
C126 C 0.16645 0.22098 0.51543 0.0
H127 H 0.11685 0.20122 0.52747 0.0
H128 H 0.30474 0.28721 0.42329 0.0
H129 H 0.26416 0.25153 0.45102 0.0
H130 H 0.22979 0.3405 0.4951 0.0
H131 H 0.27076 0.37627 0.46768 0.0
H132 H 0.19597 0.28365 0.49902 0.0
H133 H 0.25132 0.23147 0.49899 0.0
H134 H 0.24122 0.19805 0.54569 0.0
H135 H 0.20176 0.16263 0.57493 0.0
C136 C 0.66845 0.56108 0.70553 0.0
C137 C 0.68253 0.58515 0.68602 0.0
C138 C 0.68844 0.54806 0.7276 0.0
C139 C 0.72291 0.55897 0.73065 0.0
C140 C 0.73662 0.58399 0.71189 0.0
C141 C 0.71672 0.59675 0.68958 0.0
C142 C 0.74504 0.54463 0.75317 0.0
C143 C 0.7415 0.5119 0.76135 0.0
C144 C 0.76416 0.49653 0.78292 0.0
C145 C 0.76958 0.46168 0.78084 0.0
C146 C 0.79027 0.44612 0.80104 0.0
C147 C 0.80549 0.46503 0.8241 0.0
H148 H 0.77505 0.54228 0.80863 0.0
C149 C 0.79981 0.4999 0.82636 0.0
C150 C 0.77941 0.51554 0.80594 0.0
H151 H 0.81103 0.51514 0.84395 0.0
H152 H 0.64211 0.55184 0.70349 0.0
H153 H 0.67682 0.52954 0.74228 0.0
H154 H 0.76301 0.59305 0.71403 0.0
H155 H 0.72819 0.61549 0.67501 0.0
H156 H 0.76617 0.56071 0.76157 0.0
H157 H 0.72256 0.49507 0.75058 0.0
H158 H 0.7579 0.44645 0.76343 0.0
H159 H 0.79392 0.41917 0.79878 0.0
C160 C 0.55684 0.01815 0.06406 0.0
C161 C 0.58893 0.03525 0.06191 0.0
C162 C 0.54554 -0.00493 0.04255 0.0
C163 C 0.56611 0.98876 0.01835 0.0
C164 C 0.59846 0.00532 0.01652 0.0
C165 C 0.60997 0.02809 0.03827 0.0
C166 C 0.55279 0.96822 -0.00668 0.0
C167 C 0.52905 0.94267 -0.00387 0.0
C168 C 0.51029 0.92713 0.97097 0.0
C169 C 0.49599 0.8939 0.97323 0.0
C170 C 0.47448 0.88024 0.95135 0.0
C171 C 0.46633 0.89995 0.92717 0.0
H172 H 0.51303 0.97233 0.94401 0.0
C173 C 0.48139 0.93284 0.92452 0.0
C174 C 0.50322 0.9463 0.94615 0.0
H175 H 0.47553 0.9486 0.90611 0.0
H176 H 0.54009 0.02322 0.08204 0.0
H177 H 0.52007 0.98349 0.04429 0.0
H178 H 0.61459 0.00115 -0.00207 0.0
H179 H 0.6348 0.04099 0.03599 0.0
H180 H 0.56215 0.97513 0.97186 0.0
H181 H 0.52219 0.9335 0.01766 0.0
H182 H 0.5008 0.87878 -0.00773 0.0
H183 H 0.46311 0.85483 0.95401 0.0
C184 C 0.92653 0.77079 0.28341 0.0
C185 C 0.9346 0.80585 0.28586 0.0
C186 C 0.94328 0.75103 0.26317 0.0
C187 C 0.96855 0.766 0.24509 0.0
C188 C 0.9765 0.80101 0.24752 0.0
C189 C 0.9595 0.82081 0.2675 0.0
C190 C 0.98822 0.74564 0.2245 0.0
C191 C 0.97523 0.71719 0.21142 0.0
C192 C -0.00498 0.69746 0.19048 0.0
C193 C 0.97788 0.68057 0.16737 0.0
C194 C -0.00419 0.66192 0.14717 0.0
C195 C 0.03121 0.65918 0.15006 0.0
H196 H 0.04423 0.70655 0.21162 0.0
C197 C 0.04829 0.6755 0.17359 0.0
C198 C 0.0304 0.69457 0.19356 0.0
H199 H 0.07551 0.67372 0.17651 0.0
H200 H 0.90762 0.75852 0.29741 0.0
H201 H 0.9371 0.72395 0.26238 0.0
H202 H -0.004 0.81309 0.23397 0.0
H203 H 0.96647 0.84772 0.26898 0.0
H204 H 0.01365 0.75546 0.21882 0.0
H205 H 0.94867 0.7092 0.21469 0.0
H206 H 0.95059 0.68216 0.1647 0.0
H207 H 0.98183 0.64939 0.12944 0.0
C208 C 0.29994 0.98214 0.8324 0.0
C209 C 0.31627 0.95206 0.82599 0.0
C210 C 0.28112 -0.00189 0.81109 0.0
C211 C 0.27815 0.98428 0.78286 0.0
C212 C 0.29477 0.95448 0.77636 0.0
C213 C 0.31345 0.93837 0.79773 0.0
C214 C 0.25895 0.00092 0.75951 0.0
C215 C 0.2324 0.02034 0.7648 0.0
C216 C 0.21288 0.03634 0.74132 0.0
C217 C 0.17831 0.04201 0.74571 0.0
C218 C 0.159 0.05639 0.72382 0.0
C219 C 0.17408 0.0659 0.69727 0.0
H220 H 0.25502 0.04357 0.71122 0.0
C221 C 0.20894 0.0612 0.6932 0.0
C222 C 0.22817 0.04655 0.71499 0.0
H223 H 0.22134 0.06849 0.67304 0.0
H224 H 0.30179 0.99353 0.85388 0.0
H225 H 0.26957 0.02162 0.8167 0.0
H226 H 0.29314 0.94348 0.75471 0.0
H227 H 0.32588 0.91536 0.792 0.0
H228 H 0.26585 -0.00456 0.73719 0.0
H229 H 0.22321 0.023 0.78688 0.0
H230 H 0.16605 0.03473 0.76594 0.0
H231 H 0.13223 0.05989 0.72767 0.0
C232 C 0.97389 0.42822 0.92119 0.0
C233 C 0.95535 0.3969 0.92266 0.0
C234 C -0.00076 0.43671 0.9417 0.0
C235 C 0.00646 0.41401 0.96418 0.0
C236 C 0.98851 0.38235 0.96517 0.0
C237 C 0.96341 0.3737 0.94442 0.0
C238 C 0.02907 0.42459 0.98881 0.0
C239 C 0.0546 0.44841 0.98634 0.0
C240 C 0.07057 0.46619 0.01181 0.0
C241 C 0.10297 0.48247 0.00895 0.0
C242 C 0.11612 0.50425 0.03082 0.0
C243 C 0.09668 0.51062 0.05562 0.0
H244 H 0.02661 0.4598 0.0402 0.0
C245 C 0.06497 0.49317 0.05909 0.0
C246 C 0.05203 0.47114 0.03746 0.0
H247 H 0.04948 0.4976 0.07803 0.0
H248 H 0.96822 0.44659 0.90464 0.0
H249 H 0.01183 0.46175 0.9407 0.0
H250 H 0.99333 0.36463 0.98246 0.0
H251 H 0.9495 0.34935 0.94609 0.0
H252 H 0.02318 0.41368 0.00994 0.0
H253 H 0.06274 0.45683 0.9649 0.0
H254 H 0.11759 0.47931 0.98929 0.0
H255 H 0.14064 0.51746 0.02757 0.0
C256 C 0.43715 0.32025 0.28606 0.0
C257 C 0.41033 0.30762 0.30365 0.0
C258 C 0.45123 0.29953 0.26503 0.0
C259 C 0.43862 0.26576 0.26106 0.0
C260 C 0.41114 0.25347 0.27801 0.0
C261 C 0.39733 0.27407 0.29933 0.0
C262 C 0.45317 0.24317 0.23896 0.0
C263 C 0.48644 0.24507 0.23197 0.0
C264 C 0.50135 0.22275 0.20983 0.0
C265 C 0.53575 0.21514 0.21235 0.0
C266 C 0.55087 0.19502 0.19141 0.0
C267 C 0.53201 0.18262 0.16719 0.0
H268 H 0.4561 0.21638 0.18261 0.0
C269 C 0.49762 0.19045 0.16458 0.0
C270 C 0.48241 0.21025 0.18568 0.0
H271 H 0.48239 0.18142 0.14613 0.0
H272 H 0.44761 0.34606 0.28877 0.0
H273 H 0.47172 0.31013 0.25172 0.0
H274 H 0.40074 0.22766 0.27511 0.0
H275 H 0.37653 0.26371 0.31244 0.0
H276 H 0.43636 0.22331 0.22944 0.0
H277 H 0.5038 0.2626 0.24377 0.0
H278 H 0.55096 0.22473 0.23063 0.0
H279 H 0.57748 0.18963 0.19398 0.0
C280 C 0.80587 0.79834 0.4214 0.0
C281 C 0.80803 0.83397 0.42372 0.0
C282 C 0.78163 0.77925 0.43738 0.0
C283 C 0.75881 0.79552 0.45562 0.0
C284 C 0.76034 0.8311 0.45726 0.0
C285 C 0.78499 0.85016 0.44178 0.0
C286 C 0.73282 0.77604 0.47277 0.0
C287 C 0.73915 0.7463 0.4854 0.0
C288 C 0.71376 0.72743 0.50365 0.0
C289 C 0.72507 0.70867 0.52732 0.0
C290 C 0.70178 0.69023 0.5447 0.0
C291 C 0.66673 0.68957 0.53829 0.0
H292 H 0.66923 0.74061 0.4788 0.0
C293 C 0.65543 0.70812 0.5144 0.0
C294 C 0.67869 0.72701 0.49732 0.0
H295 H 0.6286 0.70799 0.50883 0.0
H296 H 0.82322 0.7852 0.40759 0.0
H297 H 0.78052 0.75183 0.43517 0.0
H298 H 0.74281 0.84418 0.47098 0.0
H299 H 0.78583 0.8776 0.44379 0.0
H300 H 0.70882 0.78772 0.47684 0.0
H301 H 0.76445 0.73649 0.48387 0.0
H302 H 0.75199 0.70843 0.53248 0.0
H303 H 0.71133 0.67595 0.56279 0.0
C304 C 0.17566 0.54964 0.20684 0.0
C305 C 0.18992 0.5638 0.18144 0.0
C306 C 0.19631 0.53511 0.22768 0.0
C307 C 0.23173 0.53447 0.22355 0.0
C308 C 0.24598 0.54887 0.19828 0.0
C309 C 0.22534 0.56364 0.17752 0.0
C310 C 0.25407 0.51724 0.24432 0.0
C311 C 0.24699 0.51423 0.27281 0.0
C312 C 0.26864 0.49603 0.29343 0.0
C313 C 0.26939 0.50602 0.32274 0.0
C314 C 0.28878 0.48894 0.34295 0.0
C315 C 0.30737 0.46103 0.33436 0.0
H316 H 0.28636 0.45905 0.26246 0.0
C317 C 0.30627 0.4507 0.30505 0.0
C318 C 0.28716 0.46807 0.28475 0.0
H319 H 0.32018 0.42921 0.29775 0.0
H320 H 0.14841 0.54916 0.21039 0.0
H321 H 0.18423 0.52342 0.24647 0.0
H322 H 0.27315 0.54847 0.19448 0.0
H323 H 0.23706 0.57416 0.15807 0.0
H324 H 0.27762 0.50774 0.23596 0.0
H325 H 0.22532 0.52673 0.28175 0.0
H326 H 0.25507 0.52725 0.33003 0.0
H327 H 0.28887 0.49744 0.3654 0.0
C328 C 0.78067 0.30934 0.92926 0.0
C329 C 0.7848 0.34475 0.93285 0.0
C330 C 0.75697 0.29053 0.94595 0.0
C331 C 0.73666 0.30687 0.96626 0.0
C332 C 0.7398 0.34235 0.96902 0.0
C333 C 0.76397 0.36112 0.95275 0.0
C334 C 0.71216 0.28732 0.98481 0.0
C335 C 0.71976 0.25741 -0.00351 0.0
C336 C 0.69631 0.2377 0.01585 0.0
C337 C 0.71008 0.21784 0.03775 0.0
C338 C 0.68881 0.19772 0.05558 0.0
C339 C 0.65331 0.19643 0.05138 0.0
H340 H 0.64941 0.25148 -0.00518 0.0
C341 C 0.63948 0.21639 0.02947 0.0
C342 C 0.66076 0.23699 0.01195 0.0
H343 H 0.61223 0.21583 0.02566 0.0
H344 H 0.79627 0.29604 0.91403 0.0
H345 H 0.7545 0.26323 0.94289 0.0
H346 H 0.72417 0.35546 0.98436 0.0
H347 H 0.76638 0.38843 0.95578 0.0
H348 H 0.6886 0.29891 0.99062 0.0
H349 H 0.74491 0.24783 -0.00696 0.0
H350 H 0.73741 0.21783 0.04103 0.0
H351 H 0.70029 0.18244 0.07211 0.0
C352 C 0.81492 0.98756 0.31699 0.0
C353 C 0.82331 0.95351 0.31338 0.0
C354 C 0.79361 0.00274 0.29708 0.0
C355 C 0.78018 0.98419 0.27307 0.0
C356 C 0.78844 0.95017 0.26948 0.0
C357 C 0.81003 0.93503 0.28929 0.0
C358 C 0.75619 -0.00085 0.25233 0.0
C359 C 0.75683 0.03259 0.24636 0.0
C360 C 0.73228 0.0475 0.22613 0.0
C361 C 0.74265 0.07623 0.20994 0.0
C362 C 0.72013 0.09067 0.19053 0.0
C363 C 0.68657 0.07702 0.18741 0.0
H364 H 0.6894 0.01268 0.23622 0.0
C365 C 0.67588 0.04887 0.20426 0.0
C366 C 0.69853 0.03418 0.22338 0.0
H367 H 0.65013 0.03788 0.20242 0.0
H368 H 0.82457 0.0025 0.33538 0.0
H369 H 0.78703 0.02871 0.30103 0.0
H370 H 0.77815 0.93526 0.2513 0.0
H371 H 0.81582 0.9087 0.28598 0.0
H372 H 0.7383 0.98183 0.24087 0.0
H373 H 0.77693 0.04947 0.25543 0.0
H374 H 0.76841 0.08719 0.21196 0.0
H375 H 0.72902 0.11248 0.17794 0.0
C376 C 0.97923 0.93605 0.41779 0.0
C377 C 0.97257 0.90086 0.41466 0.0
C378 C -0.00028 0.9489 0.44048 0.0
C379 C 0.01401 0.92685 0.46052 0.0
C380 C 0.00928 0.89163 0.45638 0.0
C381 C 0.98844 0.87867 0.4337 0.0
C382 C 0.0325 0.94062 0.48645 0.0
C383 C 0.02039 0.96686 0.50134 0.0
C384 C 0.03754 0.98363 0.52669 0.0
C385 C 0.01782 0.00257 0.54551 0.0
C386 C 0.03317 0.02239 0.56755 0.0
C387 C 0.06874 0.02402 0.57105 0.0
H388 H 0.08911 0.97015 0.51647 0.0
C389 C 0.08852 0.00405 0.55297 0.0
C390 C 0.07305 0.98398 0.53091 0.0
H391 H 0.116 0.00484 0.55518 0.0
H392 H 0.96778 0.95381 0.40325 0.0
H393 H 0.00383 0.9762 0.44269 0.0
H394 H 0.02044 0.87421 0.47141 0.0
H395 H 0.98401 0.8514 0.43159 0.0
H396 H 0.05481 0.92806 0.49407 0.0
H397 H -0.00393 0.97652 0.49478 0.0
H398 H 0.99043 0.00277 0.54267 0.0
H399 H 0.0172 0.03737 0.5812 0.0
C400 C 0.91113 0.28069 0.79556 0.0
C401 C 0.90784 0.31587 0.79278 0.0
C402 C 0.92728 0.26243 0.77394 0.0
C403 C 0.94029 0.27906 0.74907 0.0
C404 C 0.9358 0.31392 0.74581 0.0
C405 C 0.92002 0.33224 0.76756 0.0
C406 C 0.95813 0.2607 0.72594 0.0
C407 C 0.97698 0.23382 0.73137 0.0
C408 C -0.00474 0.21568 0.70832 0.0
C409 C 0.02418 0.19804 0.71581 0.0
C410 C 0.04138 0.17987 0.69475 0.0
C411 C 0.02969 0.17862 0.6658 0.0
H412 H 0.96087 0.22692 0.67284 0.0
C413 C 0.00073 0.19631 0.65834 0.0
C414 C 0.98365 0.21455 0.67933 0.0
H415 H 0.99085 0.1957 0.6363 0.0
H416 H 0.90183 0.26737 0.81469 0.0
H417 H 0.92936 0.23535 0.77669 0.0
H418 H 0.94522 0.32719 0.72668 0.0
H419 H 0.91766 0.3593 0.76472 0.0
H420 H 0.95739 0.27112 0.70415 0.0
H421 H 0.98051 0.22569 0.75367 0.0
H422 H 0.03348 0.1983 0.73803 0.0
H423 H 0.06348 0.16635 0.70128 0.0
C424 C 0.54437 0.69123 0.67753 0.0
C425 C 0.53477 0.69022 0.64804 0.0
C426 C 0.52673 0.71055 0.69749 0.0
C427 C 0.49917 0.72936 0.68831 0.0
C428 C 0.49013 0.729 0.65876 0.0
C429 C 0.50752 0.70942 0.63886 0.0
C430 C 0.48016 0.75047 0.70881 0.0
C431 C 0.47595 0.7425 0.73704 0.0
C432 C 0.45747 0.76381 0.75781 0.0
C433 C 0.44258 0.74855 0.78247 0.0
C434 C 0.42636 0.7681 0.80318 0.0
C435 C 0.42516 0.80344 0.79983 0.0
H436 H 0.46795 0.81203 0.73604 0.0
C437 C 0.43992 0.81873 0.77509 0.0
C438 C 0.45594 0.79916 0.7543 0.0
H439 H 0.43963 0.84595 0.77199 0.0
H440 H 0.56535 0.67688 0.6853 0.0
H441 H 0.53509 0.71107 0.71996 0.0
H442 H 0.46925 0.74359 0.6511 0.0
H443 H 0.49961 0.70939 0.61626 0.0
H444 H 0.46791 0.77227 0.69994 0.0
H445 H 0.48527 0.71881 0.74512 0.0
H446 H 0.44363 0.72141 0.7858 0.0
H447 H 0.41538 0.7556 0.8221 0.0
C448 C 0.18578 0.68975 0.04826 0.0
C449 C 0.15497 0.67469 0.0376 0.0
C450 C 0.2056 0.71195 0.03095 0.0
C451 C 0.19494 0.71973 0.0026 0.0
C452 C 0.16423 0.70463 -0.00805 0.0
C453 C 0.14433 0.68251 0.00928 0.0
C454 C 0.21596 0.74214 0.98315 0.0
C455 C 0.23815 0.76673 -0.00687 0.0
C456 C 0.25996 0.78865 0.97391 0.0
C457 C 0.27236 0.82043 0.98443 0.0
C458 C 0.29409 0.84127 0.96757 0.0
C459 C 0.30427 0.83061 0.93985 0.0
H460 H 0.26181 0.75322 0.93755 0.0
C461 C 0.29186 0.79876 0.92926 0.0
C462 C 0.26998 0.77796 0.94611 0.0
H463 H 0.29937 0.78965 0.90809 0.0
H464 H 0.19489 0.68408 0.06987 0.0
H465 H 0.22963 0.7222 0.03966 0.0
H466 H 0.15557 0.70994 0.97011 0.0
H467 H 0.12083 0.67124 0.0003 0.0
H468 H 0.21195 0.73901 0.95989 0.0
H469 H 0.23965 0.77202 0.01632 0.0
H470 H 0.26528 0.82917 0.00584 0.0
H471 H 0.30324 0.86558 0.97648 0.0
C472 C 0.47482 0.43004 0.42833 0.0
C473 C 0.45689 0.39866 0.43195 0.0
C474 C 0.49855 0.4419 0.44913 0.0
C475 C 0.50464 0.42266 0.47413 0.0
C476 C 0.48738 0.39085 0.47735 0.0
C477 C 0.46398 0.37872 0.45625 0.0
C478 C 0.52529 0.43731 0.49859 0.0
C479 C 0.55114 0.4605 0.4947 0.0
C480 C 0.56566 0.48204 0.51866 0.0
C481 C 0.599 0.49622 0.5163 0.0
C482 C 0.61156 0.5205 0.53646 0.0
C483 C 0.59061 0.53158 0.55891 0.0
H484 H 0.51912 0.48242 0.54399 0.0
C485 C 0.5576 0.5167 0.56176 0.0
C486 C 0.54526 0.49209 0.54191 0.0
H487 H 0.54092 0.52476 0.57888 0.0
H488 H 0.46984 0.44592 0.40979 0.0
H489 H 0.51066 0.46694 0.44627 0.0
H490 H 0.49136 0.37578 0.49659 0.0
H491 H 0.45039 0.35446 0.45961 0.0
H492 H 0.51773 0.43007 0.52048 0.0
H493 H 0.56088 0.46526 0.47295 0.0
H494 H 0.61504 0.48916 0.49838 0.0
H495 H 0.6371 0.53164 0.53371 0.0
loop_
_geom_bond_atom_site_label_1
_geom_bond_atom_site_label_2
_geom_bond_distance
_geom_bond_site_symmetry_2
_ccdc_geom_bond_type
C0 O1 1.306 . S
C0 O3 1.160 . S
O1 C0 1.306 . S
O1 Cd2 2.228 . S
Cd2 O1 2.228 . S
Cd2 O6 2.273 . S
Cd2 O10 2.277 . S
O3 C0 1.160 . S
O3 Cd4 2.203 . S
Cd4 O3 2.203 . S
Cd4 O6 2.411 . S
Cd4 O7 2.333 . S
Cd4 O8 2.352 . S
Cd4 O12 2.277 . S
Cd4 O13 2.356 . S
C5 O10 1.209 . S
C5 O12 1.226 . S
O6 Cd2 2.273 . S
O6 Cd4 2.411 . S
O6 C9 1.320 . S
O7 Cd4 2.333 . S
O7 C9 1.214 . S
O8 Cd4 2.352 . S
O8 C11 1.258 . S
C9 O6 1.320 . S
C9 O7 1.214 . S
O10 Cd2 2.277 . S
O10 C5 1.209 . S
C11 O8 1.258 . S
C11 O13 1.282 . S
O12 Cd4 2.277 . S
O12 C5 1.226 . S
O13 Cd4 2.356 . S
O13 C11 1.282 . S
C14 O15 1.306 . S
C14 O17 1.160 . S
O15 C14 1.306 . S
O15 Cd16 2.228 . S
Cd16 O15 2.228 . S
Cd16 O20 2.273 . S
Cd16 O24 2.277 . S
O17 C14 1.160 . S
O17 Cd18 2.203 . S
Cd18 O17 2.203 . S
Cd18 O20 2.411 . S
Cd18 O21 2.333 . S
Cd18 O22 2.352 . S
Cd18 O26 2.277 . S
Cd18 O27 2.356 . S
C19 O24 1.209 . S
C19 O26 1.226 . S
O20 Cd16 2.273 . S
O20 Cd18 2.411 . S
O20 C23 1.320 . S
O21 Cd18 2.333 . S
O21 C23 1.214 . S
O22 Cd18 2.352 . S
O22 C25 1.258 . S
C23 O20 1.320 . S
C23 O21 1.214 . S
O24 Cd16 2.277 . S
O24 C19 1.209 . S
C25 O22 1.258 . S
C25 O27 1.282 . S
O26 Cd18 2.277 . S
O26 C19 1.226 . S
O27 Cd18 2.356 . S
O27 C25 1.282 . S
C28 O29 1.306 . S
C28 O31 1.160 . S
O29 C28 1.306 . S
O29 Cd30 2.228 . S
Cd30 O29 2.228 . S
Cd30 O34 2.273 . S
Cd30 O38 2.277 . S
O31 C28 1.160 . S
O31 Cd32 2.203 . S
Cd32 O31 2.203 . S
Cd32 O34 2.411 . S
Cd32 O35 2.333 . S
Cd32 O36 2.352 . S
Cd32 O40 2.277 . S
Cd32 O41 2.356 . S
C33 O38 1.209 . S
C33 O40 1.226 . S
O34 Cd30 2.273 . S
O34 Cd32 2.411 . S
O34 C37 1.320 . S
O35 Cd32 2.333 . S
O35 C37 1.214 . S
O36 Cd32 2.352 . S
O36 C39 1.258 . S
C37 O34 1.320 . S
C37 O35 1.214 . S
O38 Cd30 2.277 . S
O38 C33 1.209 . S
C39 O36 1.258 . S
C39 O41 1.282 . S
O40 Cd32 2.277 . S
O40 C33 1.226 . S
O41 Cd32 2.356 . S
O41 C39 1.282 . S
C42 O43 1.306 . S
C42 O45 1.160 . S
O43 C42 1.306 . S
O43 Cd44 2.228 . S
Cd44 O43 2.228 . S
Cd44 O48 2.273 . S
Cd44 O52 2.277 . S
O45 C42 1.160 . S
O45 Cd46 2.203 . S
Cd46 O45 2.203 . S
Cd46 O48 2.411 . S
Cd46 O49 2.333 . S
Cd46 O50 2.352 . S
Cd46 O54 2.277 . S
Cd46 O55 2.356 . S
C47 O52 1.209 . S
C47 O54 1.226 . S
O48 Cd44 2.273 . S
O48 Cd46 2.411 . S
O48 C51 1.320 . S
O49 Cd46 2.333 . S
O49 C51 1.214 . S
O50 Cd46 2.352 . S
O50 C53 1.258 . S
C51 O48 1.320 . S
C51 O49 1.214 . S
O52 Cd44 2.277 . S
O52 C47 1.209 . S
C53 O50 1.258 . S
C53 O55 1.282 . S
O54 Cd46 2.277 . S
O54 C47 1.226 . S
O55 Cd46 2.356 . S
O55 C53 1.282 . S
C56 O57 1.306 . S
C56 O59 1.160 . S
O57 C56 1.306 . S
O57 Cd58 2.228 . S
Cd58 O57 2.228 . S
Cd58 O62 2.273 . S
Cd58 O66 2.277 . S
O59 C56 1.160 . S
O59 Cd60 2.203 . S
Cd60 O59 2.203 . S
Cd60 O62 2.411 . S
Cd60 O63 2.333 . S
Cd60 O64 2.352 . S
Cd60 O68 2.277 . S
Cd60 O69 2.356 . S
C61 O66 1.209 . S
C61 O68 1.226 . S
O62 Cd58 2.273 . S
O62 Cd60 2.411 . S
O62 C65 1.320 . S
O63 Cd60 2.333 . S
O63 C65 1.214 . S
O64 Cd60 2.352 . S
O64 C67 1.258 . S
C65 O62 1.320 . S
C65 O63 1.214 . S
O66 Cd58 2.277 . S
O66 C61 1.209 . S
C67 O64 1.258 . S
C67 O69 1.282 . S
O68 Cd60 2.277 . S
O68 C61 1.226 . S
O69 Cd60 2.356 . S
O69 C67 1.282 . S
C70 O71 1.306 . S
C70 O73 1.160 . S
O71 C70 1.306 . S
O71 Cd72 2.228 . S
Cd72 O71 2.228 . S
Cd72 O76 2.273 . S
Cd72 O80 2.277 . S
O73 C70 1.160 . S
O73 Cd74 2.203 . S
Cd74 O73 2.203 . S
Cd74 O76 2.411 . S
Cd74 O77 2.333 . S
Cd74 O78 2.352 . S
Cd74 O82 2.277 . S
Cd74 O83 2.356 . S
C75 O80 1.209 . S
C75 O82 1.226 . S
O76 Cd72 2.273 . S
O76 Cd74 2.411 . S
O76 C79 1.320 . S
O77 Cd74 2.333 . S
O77 C79 1.214 . S
O78 Cd74 2.352 . S
O78 C81 1.258 . S
C79 O76 1.320 . S
C79 O77 1.214 . S
O80 Cd72 2.277 . S
O80 C75 1.209 . S
C81 O78 1.258 . S
C81 O83 1.282 . S
O82 Cd74 2.277 . S
O82 C75 1.226 . S
O83 Cd74 2.356 . S
O83 C81 1.282 . S
C84 O85 1.306 . S
C84 O87 1.160 . S
O85 C84 1.306 . S
O85 Cd86 2.228 . S
Cd86 O85 2.228 . S
Cd86 O90 2.273 . S
Cd86 O94 2.277 . S
O87 C84 1.160 . S
O87 Cd88 2.203 . S
Cd88 O87 2.203 . S
Cd88 O90 2.411 . S
Cd88 O91 2.333 . S
Cd88 O92 2.352 . S
Cd88 O96 2.277 . S
Cd88 O97 2.356 . S
C89 O94 1.209 . S
C89 O96 1.226 . S
O90 Cd86 2.273 . S
O90 Cd88 2.411 . S
O90 C93 1.320 . S
O91 Cd88 2.333 . S
O91 C93 1.214 . S
O92 Cd88 2.352 . S
O92 C95 1.258 . S
C93 O90 1.320 . S
C93 O91 1.214 . S
O94 Cd86 2.277 . S
O94 C89 1.209 . S
C95 O92 1.258 . S
C95 O97 1.282 . S
O96 Cd88 2.277 . S
O96 C89 1.226 . S
O97 Cd88 2.356 . S
O97 C95 1.282 . S
C98 O99 1.306 . S
C98 O101 1.160 . S
O99 C98 1.306 . S
O99 Cd100 2.228 . S
Cd100 O99 2.228 . S
Cd100 O104 2.273 . S
Cd100 O108 2.277 . S
O101 C98 1.160 . S
O101 Cd102 2.203 . S
Cd102 O101 2.203 . S
Cd102 O104 2.411 . S
Cd102 O105 2.333 . S
Cd102 O106 2.352 . S
Cd102 O110 2.277 . S
Cd102 O111 2.356 . S
C103 O108 1.209 . S
C103 O110 1.226 . S
O104 Cd100 2.273 . S
O104 Cd102 2.411 . S
O104 C107 1.320 . S
O105 Cd102 2.333 . S
O105 C107 1.214 . S
O106 Cd102 2.352 . S
O106 C109 1.258 . S
C107 O104 1.320 . S
C107 O105 1.214 . S
O108 Cd100 2.277 . S
O108 C103 1.209 . S
C109 O106 1.258 . S
C109 O111 1.282 . S
O110 Cd102 2.277 . S
O110 C103 1.226 . S
O111 Cd102 2.356 . S
O111 C109 1.282 . S
C112 C113 1.386 . S
C112 C114 1.383 . S
C112 H128 0.951 . S
C113 C112 1.386 . S
C113 C117 1.383 . S
C114 C112 1.383 . S
C114 C115 1.402 . S
C114 H129 0.951 . S
C115 C114 1.402 . S
C115 C116 1.375 . S
C115 C118 1.481 . S
C116 C115 1.375 . S
C116 C117 1.367 . S
C116 H130 0.951 . S
C117 C113 1.383 . S
C117 C116 1.367 . S
C117 H131 0.950 . S
C118 C115 1.481 . S
C118 C119 1.297 . S
C118 H132 0.950 . S
C119 C118 1.297 . S
C119 C120 1.479 . S
C119 H133 0.950 . S
C120 C119 1.479 . S
C120 C121 1.375 . S
C120 C126 1.404 . S
C121 C120 1.375 . S
C121 C122 1.369 . S
C121 H134 0.950 . S
C122 C121 1.369 . S
C122 C123 1.392 . S
C122 H135 0.951 . S
C123 C122 1.392 . S
C123 C125 1.384 . S
H124 C126 0.949 . S
C125 C123 1.384 . S
C125 C126 1.385 . S
C125 H127 0.950 . S
C126 C120 1.404 . S
C126 H124 0.949 . S
C126 C125 1.385 . S
H127 C125 0.950 . S
H128 C112 0.951 . S
H129 C114 0.951 . S
H130 C116 0.951 . S
H131 C117 0.950 . S
H132 C118 0.950 . S
H133 C119 0.950 . S
H134 C121 0.950 . S
H135 C122 0.951 . S
C136 C137 1.386 . S
C136 C138 1.383 . S
C136 H152 0.951 . S
C137 C136 1.386 . S
C137 C141 1.383 . S
C138 C136 1.383 . S
C138 C139 1.402 . S
C138 H153 0.951 . S
C139 C138 1.402 . S
C139 C140 1.375 . S
C139 C142 1.481 . S
C140 C139 1.375 . S
C140 C141 1.367 . S
C140 H154 0.951 . S
C141 C137 1.383 . S
C141 C140 1.367 . S
C141 H155 0.950 . S
C142 C139 1.481 . S
C142 C143 1.297 . S
C142 H156 0.950 . S
C143 C142 1.297 . S
C143 C144 1.479 . S
C143 H157 0.950 . S
C144 C143 1.479 . S
C144 C145 1.375 . S
C144 C150 1.404 . S
C145 C144 1.375 . S
C145 C146 1.369 . S
C145 H158 0.950 . S
C146 C145 1.369 . S
C146 C147 1.392 . S
C146 H159 0.951 . S
C147 C146 1.392 . S
C147 C149 1.384 . S
H148 C150 0.949 . S
C149 C147 1.384 . S
C149 C150 1.385 . S
C149 H151 0.950 . S
C150 C144 1.404 . S
C150 H148 0.949 . S
C150 C149 1.385 . S
H151 C149 0.950 . S
H152 C136 0.951 . S
H153 C138 0.951 . S
H154 C140 0.951 . S
H155 C141 0.950 . S
H156 C142 0.950 . S
H157 C143 0.950 . S
H158 C145 0.950 . S
H159 C146 0.951 . S
C160 C161 1.386 . S
C160 C162 1.383 . S
C160 H176 0.951 . S
C161 C160 1.386 . S
C161 C165 1.383 . S
C162 C160 1.383 . S
C162 C163 1.402 . S
C162 H177 0.951 . S
C163 C162 1.402 . S
C163 C164 1.375 . S
C163 C166 1.481 1_554 S
C164 C163 1.375 . S
C164 C165 1.367 . S
C164 H178 0.935 1_554 S
C165 C161 1.383 . S
C165 C164 1.367 . S
C165 H179 0.950 . S
C166 C163 1.481 1_556 S
C166 C167 1.297 1_545 S
C166 H180 0.949 1_545 S
C167 C166 1.297 1_565 S
C167 C168 1.479 . S
C167 H181 0.950 1_566 S
C168 C167 1.479 . S
C168 C169 1.375 . S
C168 C174 1.404 . S
C169 C168 1.375 . S
C169 C170 1.369 . S
C169 H182 0.950 . S
C170 C169 1.369 . S
C170 C171 1.392 . S
C170 H183 0.951 . S
C171 C170 1.392 . S
C171 C173 1.384 . S
H172 C174 0.949 . S
C173 C171 1.384 . S
C173 C174 1.385 . S
C173 H175 0.950 . S
C174 C168 1.404 . S
C174 H172 0.949 . S
C174 C173 1.385 . S
H175 C173 0.950 . S
H176 C160 0.951 . S
H177 C162 0.951 . S
H178 C164 0.935 1_556 S
H179 C165 0.950 . S
H180 C166 0.949 1_565 S
H181 C167 0.950 1_544 S
H182 C169 0.950 . S
H183 C170 0.951 . S
C184 C185 1.386 . S
C184 C186 1.383 . S
C184 H200 0.951 . S
C185 C184 1.386 . S
C185 C189 1.383 . S
C186 C184 1.383 . S
C186 C187 1.402 . S
C186 H201 0.951 . S
C187 C186 1.402 . S
C187 C188 1.375 1_655 S
C187 C190 1.481 1_655 S
C188 C187 1.375 1_455 S
C188 C189 1.367 1_455 S
C188 H202 0.951 . S
C189 C185 1.383 . S
C189 C188 1.367 1_655 S
C189 H203 0.950 . S
C190 C187 1.481 1_455 S
C190 C191 1.297 . S
C190 H204 0.950 . S
C191 C190 1.297 . S
C191 C192 1.479 . S
C191 H205 0.950 1_455 S
C192 C191 1.479 . S
C192 C193 1.375 . S
C192 C198 1.404 . S
C193 C192 1.375 . S
C193 C194 1.369 . S
C193 H206 0.950 1_455 S
C194 C193 1.369 . S
C194 C195 1.392 . S
C194 H207 0.951 . S
C195 C194 1.392 . S
C195 C197 1.384 . S
H196 C198 0.949 . S
C197 C195 1.384 . S
C197 C198 1.385 . S
C197 H199 0.950 . S
C198 C192 1.404 . S
C198 H196 0.949 . S
C198 C197 1.385 . S
H199 C197 0.950 . S
H200 C184 0.951 . S
H201 C186 0.951 . S
H202 C188 0.951 . S
H203 C189 0.950 . S
H204 C190 0.950 . S
H205 C191 0.950 1_655 S
H206 C193 0.950 1_655 S
H207 C194 0.951 . S
C208 C209 1.386 . S
C208 C210 1.383 . S
C208 H224 0.951 . S
C209 C208 1.386 . S
C209 C213 1.383 . S
C210 C208 1.383 . S
C210 C211 1.402 . S
C210 H225 0.951 . S
C211 C210 1.402 . S
C211 C212 1.375 . S
C211 C214 1.481 . S
C212 C211 1.375 . S
C212 C213 1.367 . S
C212 H226 0.951 . S
C213 C209 1.383 . S
C213 C212 1.367 . S
C213 H227 0.950 . S
C214 C211 1.481 . S
C214 C215 1.297 1_565 S
C214 H228 0.950 1_565 S
C215 C214 1.297 1_545 S
C215 C216 1.479 . S
C215 H229 0.950 1_545 S
C216 C215 1.479 . S
C216 C217 1.375 . S
C216 C222 1.404 . S
C217 C216 1.375 . S
C217 C218 1.369 . S
C217 H230 0.950 . S
C218 C217 1.369 . S
C218 C219 1.392 . S
C218 H231 0.951 . S
C219 C218 1.392 . S
C219 C221 1.384 . S
H220 C222 0.949 . S
C221 C219 1.384 . S
C221 C222 1.385 . S
C221 H223 0.950 . S
C222 C216 1.404 . S
C222 H220 0.949 . S
C222 C221 1.385 . S
H223 C221 0.950 . S
H224 C208 0.951 . S
H225 C210 0.951 . S
H226 C212 0.951 . S
H227 C213 0.950 . S
H228 C214 0.950 1_545 S
H229 C215 0.950 1_565 S
H230 C217 0.950 . S
H231 C218 0.951 . S
C232 C233 1.386 . S
C232 C234 1.383 . S
C232 H248 0.951 . S
C233 C232 1.386 . S
C233 C237 1.383 . S
C234 C232 1.383 . S
C234 C235 1.402 . S
C234 H249 0.951 . S
C235 C234 1.402 . S
C235 C236 1.375 . S
C235 C238 1.481 1_556 S
C236 C235 1.375 . S
C236 C237 1.367 . S
C236 H250 0.951 . S
C237 C233 1.383 . S
C237 C236 1.367 . S
C237 H251 0.950 . S
C238 C235 1.481 1_554 S
C238 C239 1.294 1_655 S
C238 H252 0.950 1_655 S
C239 C238 1.294 1_455 S
C239 C240 1.494 . S
C239 H253 0.937 1_454 S
C240 C239 1.494 . S
C240 C241 1.375 . S
C240 C246 1.404 . S
C241 C240 1.375 . S
C241 C242 1.369 . S
C241 H254 0.950 . S
C242 C241 1.369 . S
C242 C243 1.392 . S
C242 H255 0.951 . S
C243 C242 1.392 . S
C243 C245 1.384 . S
H244 C246 0.949 . S
C245 C243 1.384 . S
C245 C246 1.385 . S
C245 H247 0.950 . S
C246 C240 1.404 . S
C246 H244 0.949 . S
C246 C245 1.385 . S
H247 C245 0.950 . S
H248 C232 0.951 . S
H249 C234 0.951 . S
H250 C236 0.951 . S
H251 C237 0.950 . S
H252 C238 0.950 1_455 S
H253 C239 0.937 1_656 S
H254 C241 0.950 . S
H255 C242 0.951 . S
C256 C257 1.386 . S
C256 C258 1.383 . S
C256 H272 0.951 . S
C257 C256 1.386 . S
C257 C261 1.383 . S
C258 C256 1.383 . S
C258 C259 1.402 . S
C258 H273 0.951 . S
C259 C258 1.402 . S
C259 C260 1.375 . S
C259 C262 1.481 . S
C260 C259 1.375 . S
C260 C261 1.367 . S
C260 H274 0.951 . S
C261 C257 1.383 . S
C261 C260 1.367 . S
C261 H275 0.950 . S
C262 C259 1.481 . S
C262 C263 1.297 . S
C262 H276 0.950 . S
C263 C262 1.297 . S
C263 C264 1.479 . S
C263 H277 0.950 . S
C264 C263 1.479 . S
C264 C265 1.375 . S
C264 C270 1.404 . S
C265 C264 1.375 . S
C265 C266 1.369 . S
C265 H278 0.950 . S
C266 C265 1.369 . S
C266 C267 1.392 . S
C266 H279 0.951 . S
C267 C266 1.392 . S
C267 C269 1.384 . S
H268 C270 0.949 . S
C269 C267 1.384 . S
C269 C270 1.385 . S
C269 H271 0.950 . S
C270 C264 1.404 . S
C270 H268 0.949 . S
C270 C269 1.385 . S
H271 C269 0.950 . S
H272 C256 0.951 . S
H273 C258 0.951 . S
H274 C260 0.951 . S
H275 C261 0.950 . S
H276 C262 0.950 . S
H277 C263 0.950 . S
H278 C265 0.950 . S
H279 C266 0.951 . S
C280 C281 1.386 . S
C280 C282 1.383 . S
C280 H296 0.951 . S
C281 C280 1.386 . S
C281 C285 1.383 . S
C282 C280 1.383 . S
C282 C283 1.402 . S
C282 H297 0.951 . S
C283 C282 1.402 . S
C283 C284 1.375 . S
C283 C286 1.481 . S
C284 C283 1.375 . S
C284 C285 1.367 . S
C284 H298 0.951 . S
C285 C281 1.383 . S
C285 C284 1.367 . S
C285 H299 0.950 . S
C286 C283 1.481 . S
C286 C287 1.297 . S
C286 H300 0.950 . S
C287 C286 1.297 . S
C287 C288 1.479 . S
C287 H301 0.950 . S
C288 C287 1.479 . S
C288 C289 1.375 . S
C288 C294 1.404 . S
C289 C288 1.375 . S
C289 C290 1.369 . S
C289 H302 0.950 . S
C290 C289 1.369 . S
C290 C291 1.392 . S
C290 H303 0.951 . S
C291 C290 1.392 . S
C291 C293 1.384 . S
H292 C294 0.949 . S
C293 C291 1.384 . S
C293 C294 1.385 . S
C293 H295 0.950 . S
C294 C288 1.404 . S
C294 H292 0.949 . S
C294 C293 1.385 . S
H295 C293 0.950 . S
H296 C280 0.951 . S
H297 C282 0.951 . S
H298 C284 0.951 . S
H299 C285 0.950 . S
H300 C286 0.950 . S
H301 C287 0.950 . S
H302 C289 0.950 . S
H303 C290 0.951 . S
C304 C305 1.386 . S
C304 C306 1.383 . S
C304 H320 0.951 . S
C305 C304 1.386 . S
C305 C309 1.383 . S
C306 C304 1.383 . S
C306 C307 1.402 . S
C306 H321 0.951 . S
C307 C306 1.402 . S
C307 C308 1.375 . S
C307 C310 1.481 . S
C308 C307 1.375 . S
C308 C309 1.367 . S
C308 H322 0.951 . S
C309 C305 1.383 . S
C309 C308 1.367 . S
C309 H323 0.950 . S
C310 C307 1.481 . S
C310 C311 1.297 . S
C310 H324 0.950 . S
C311 C310 1.297 . S
C311 C312 1.479 . S
C311 H325 0.950 . S
C312 C311 1.479 . S
C312 C313 1.375 . S
C312 C318 1.404 . S
C313 C312 1.375 . S
C313 C314 1.369 . S
C313 H326 0.950 . S
C314 C313 1.369 . S
C314 C315 1.392 . S
C314 H327 0.951 . S
C315 C314 1.392 . S
C315 C317 1.384 . S
H316 C318 0.949 . S
C317 C315 1.384 . S
C317 C318 1.385 . S
C317 H319 0.950 . S
C318 C312 1.404 . S
C318 H316 0.949 . S
C318 C317 1.385 . S
H319 C317 0.950 . S
H320 C304 0.951 . S
H321 C306 0.951 . S
H322 C308 0.951 . S
H323 C309 0.950 . S
H324 C310 0.950 . S
H325 C311 0.950 . S
H326 C313 0.950 . S
H327 C314 0.951 . S
C328 C329 1.386 . S
C328 C330 1.383 . S
C328 H344 0.951 . S
C329 C328 1.386 . S
C329 C333 1.383 . S
C330 C328 1.383 . S
C330 C331 1.402 . S
C330 H345 0.951 . S
C331 C330 1.402 . S
C331 C332 1.375 . S
C331 C334 1.481 1_556 S
C332 C331 1.375 . S
C332 C333 1.367 . S
C332 H346 0.951 . S
C333 C329 1.383 . S
C333 C332 1.367 . S
C333 H347 0.950 . S
C334 C331 1.481 1_554 S
C334 C335 1.297 . S
C334 H348 0.950 . S
C335 C334 1.297 . S
C335 C336 1.479 . S
C335 H349 0.950 . S
C336 C335 1.479 . S
C336 C337 1.375 . S
C336 C342 1.404 . S
C337 C336 1.375 . S
C337 C338 1.369 . S
C337 H350 0.950 . S
C338 C337 1.369 . S
C338 C339 1.392 . S
C338 H351 0.951 . S
C339 C338 1.392 . S
C339 C341 1.384 . S
H340 C342 0.949 . S
C341 C339 1.384 . S
C341 C342 1.385 . S
C341 H343 0.950 . S
C342 C336 1.404 . S
C342 H340 0.949 . S
C342 C341 1.385 . S
H343 C341 0.950 . S
H344 C328 0.951 . S
H345 C330 0.951 . S
H346 C332 0.951 . S
H347 C333 0.950 . S
H348 C334 0.950 . S
H349 C335 0.950 . S
H350 C337 0.950 . S
H351 C338 0.951 . S
C352 C353 1.386 . S
C352 C354 1.383 . S
C352 H368 0.951 . S
C353 C352 1.386 . S
C353 C357 1.383 . S
C354 C352 1.383 . S
C354 C355 1.402 . S
C354 H369 0.951 . S
C355 C354 1.402 . S
C355 C356 1.375 . S
C355 C358 1.481 . S
C356 C355 1.375 . S
C356 C357 1.367 . S
C356 H370 0.951 . S
C357 C353 1.383 . S
C357 C356 1.367 . S
C357 H371 0.950 . S
C358 C355 1.481 . S
C358 C359 1.297 . S
C358 H372 0.950 . S
C359 C358 1.297 . S
C359 C360 1.479 1_565 S
C359 H373 0.950 . S
C360 C359 1.479 1_545 S
C360 C361 1.375 . S
C360 C366 1.404 1_545 S
C361 C360 1.375 . S
C361 C362 1.369 . S
C361 H374 0.950 . S
C362 C361 1.369 . S
C362 C363 1.392 . S
C362 H375 0.951 . S
C363 C362 1.392 . S
C363 C365 1.384 . S
H364 C366 0.949 . S
C365 C363 1.384 . S
C365 C366 1.385 1_545 S
C365 H367 0.950 . S
C366 C360 1.404 1_565 S
C366 H364 0.949 . S
C366 C365 1.385 1_565 S
H367 C365 0.950 . S
H368 C352 0.951 . S
H369 C354 0.951 . S
H370 C356 0.951 . S
H371 C357 0.950 . S
H372 C358 0.950 . S
H373 C359 0.950 . S
H374 C361 0.950 . S
H375 C362 0.951 . S
C376 C377 1.386 . S
C376 C378 1.383 . S
C376 H392 0.951 . S
C377 C376 1.386 . S
C377 C381 1.383 . S
C378 C376 1.383 . S
C378 C379 1.402 . S
C378 H393 0.951 . S
C379 C378 1.402 . S
C379 C380 1.375 1_655 S
C379 C382 1.481 1_655 S
C380 C379 1.375 1_455 S
C380 C381 1.367 1_455 S
C380 H394 0.951 . S
C381 C377 1.383 . S
C381 C380 1.367 1_655 S
C381 H395 0.950 . S
C382 C379 1.481 1_455 S
C382 C383 1.297 . S
C382 H396 0.950 . S
C383 C382 1.297 . S
C383 C384 1.479 1_565 S
C383 H397 0.950 1_455 S
C384 C383 1.479 1_545 S
C384 C385 1.375 . S
C384 C390 1.404 . S
C385 C384 1.375 . S
C385 C386 1.369 . S
C385 H398 0.950 1_455 S
C386 C385 1.369 . S
C386 C387 1.392 . S
C386 H399 0.951 . S
C387 C386 1.392 . S
C387 C389 1.384 . S
H388 C390 0.949 1_565 S
C389 C387 1.384 . S
C389 C390 1.385 . S
C389 H391 0.950 . S
C390 C384 1.404 . S
C390 H388 0.949 1_545 S
C390 C389 1.385 . S
H391 C389 0.950 . S
H392 C376 0.951 . S
H393 C378 0.951 . S
H394 C380 0.951 . S
H395 C381 0.950 . S
H396 C382 0.950 . S
H397 C383 0.950 1_655 S
H398 C385 0.950 1_655 S
H399 C386 0.951 . S
C400 C401 1.386 . S
C400 C402 1.383 . S
C400 H416 0.951 . S
C401 C400 1.386 . S
C401 C405 1.383 . S
C402 C400 1.383 . S
C402 C403 1.402 . S
C402 H417 0.951 . S
C403 C402 1.402 . S
C403 C404 1.375 . S
C403 C406 1.481 . S
C404 C403 1.375 . S
C404 C405 1.367 . S
C404 H418 0.951 . S
C405 C401 1.383 . S
C405 C404 1.367 . S
C405 H419 0.950 . S
C406 C403 1.481 . S
C406 C407 1.297 1_655 S
C406 H420 0.950 . S
C407 C406 1.297 1_455 S
C407 C408 1.479 . S
C407 H421 0.950 . S
C408 C407 1.479 . S
C408 C409 1.375 . S
C408 C414 1.404 . S
C409 C408 1.375 . S
C409 C410 1.369 . S
C409 H422 0.950 . S
C410 C409 1.369 . S
C410 C411 1.392 . S
C410 H423 0.951 . S
C411 C410 1.392 . S
C411 C413 1.384 . S
H412 C414 0.949 . S
C413 C411 1.384 . S
C413 C414 1.385 . S
C413 H415 0.950 . S
C414 C408 1.404 . S
C414 H412 0.949 . S
C414 C413 1.385 . S
H415 C413 0.950 . S
H416 C400 0.951 . S
H417 C402 0.951 . S
H418 C404 0.951 . S
H419 C405 0.950 . S
H420 C406 0.950 . S
H421 C407 0.950 . S
H422 C409 0.950 . S
H423 C410 0.951 . S
C424 C425 1.386 . S
C424 C426 1.383 . S
C424 H440 0.951 . S
C425 C424 1.386 . S
C425 C429 1.383 . S
C426 C424 1.383 . S
C426 C427 1.402 . S
C426 H441 0.951 . S
C427 C426 1.402 . S
C427 C428 1.375 . S
C427 C430 1.481 . S
C428 C427 1.375 . S
C428 C429 1.367 . S
C428 H442 0.951 . S
C429 C425 1.383 . S
C429 C428 1.367 . S
C429 H443 0.950 . S
C430 C427 1.481 . S
C430 C431 1.297 . S
C430 H444 0.950 . S
C431 C430 1.297 . S
C431 C432 1.479 . S
C431 H445 0.950 . S
C432 C431 1.479 . S
C432 C433 1.375 . S
C432 C438 1.404 . S
C433 C432 1.375 . S
C433 C434 1.369 . S
C433 H446 0.950 . S
C434 C433 1.369 . S
C434 C435 1.392 . S
C434 H447 0.951 . S
C435 C434 1.392 . S
C435 C437 1.384 . S
H436 C438 0.949 . S
C437 C435 1.384 . S
C437 C438 1.385 . S
C437 H439 0.950 . S
C438 C432 1.404 . S
C438 H436 0.949 . S
C438 C437 1.385 . S
H439 C437 0.950 . S
H440 C424 0.951 . S
H441 C426 0.951 . S
H442 C428 0.951 . S
H443 C429 0.950 . S
H444 C430 0.950 . S
H445 C431 0.950 . S
H446 C433 0.950 . S
H447 C434 0.951 . S
C448 C449 1.386 . S
C448 C450 1.383 . S
C448 H464 0.951 . S
C449 C448 1.386 . S
C449 C453 1.383 . S
C450 C448 1.383 . S
C450 C451 1.402 . S
C450 H465 0.951 . S
C451 C450 1.402 . S
C451 C452 1.375 . S
C451 C454 1.481 1_554 S
C452 C451 1.375 . S
C452 C453 1.367 . S
C452 H466 0.951 1_554 S
C453 C449 1.383 . S
C453 C452 1.367 . S
C453 H467 0.950 . S
C454 C451 1.481 1_556 S
C454 C455 1.297 1_556 S
C454 H468 0.950 . S
C455 C454 1.297 1_554 S
C455 C456 1.482 1_554 S
C455 H469 0.947 . S
C456 C455 1.482 1_556 S
C456 C457 1.375 . S
C456 C462 1.404 . S
C457 C456 1.375 . S
C457 C458 1.369 . S
C457 H470 0.950 1_556 S
C458 C457 1.369 . S
C458 C459 1.392 . S
C458 H471 0.951 . S
C459 C458 1.392 . S
C459 C461 1.384 . S
H460 C462 0.949 . S
C461 C459 1.384 . S
C461 C462 1.385 . S
C461 H463 0.950 . S
C462 C456 1.404 . S
C462 H460 0.949 . S
C462 C461 1.385 . S
H463 C461 0.950 . S
H464 C448 0.951 . S
H465 C450 0.951 . S
H466 C452 0.951 1_556 S
H467 C453 0.950 . S
H468 C454 0.950 . S
H469 C455 0.947 . S
H470 C457 0.950 1_554 S
H471 C458 0.951 . S
C472 C473 1.386 . S
C472 C474 1.383 . S
C472 H488 0.951 . S
C473 C472 1.386 . S
C473 C477 1.383 . S
C474 C472 1.383 . S
C474 C475 1.402 . S
C474 H489 0.951 . S
C475 C474 1.402 . S
C475 C476 1.375 . S
C475 C478 1.481 . S
C476 C475 1.375 . S
C476 C477 1.367 . S
C476 H490 0.951 . S
C477 C473 1.383 . S
C477 C476 1.367 . S
C477 H491 0.950 . S
C478 C475 1.481 . S
C478 C479 1.297 . S
C478 H492 0.950 . S
C479 C478 1.297 . S
C479 C480 1.479 . S
C479 H493 0.950 . S
C480 C479 1.479 . S
C480 C481 1.375 . S
C480 C486 1.404 . S
C481 C480 1.375 . S
C481 C482 1.369 . S
C481 H494 0.950 . S
C482 C481 1.369 . S
C482 C483 1.392 . S
C482 H495 0.951 . S
C483 C482 1.392 . S
C483 C485 1.384 . S
H484 C486 0.949 . S
C485 C483 1.384 . S
C485 C486 1.385 . S
C485 H487 0.950 . S
C486 C480 1.404 . S
C486 H484 0.949 . S
C486 C485 1.385 . S
H487 C485 0.950 . S
H488 C472 0.951 . S
H489 C474 0.951 . S
H490 C476 0.951 . S
H491 C477 0.950 . S
H492 C478 0.950 . S
H493 C479 0.950 . S
H494 C481 0.950 . S
H495 C482 0.951 . S
C113 C75 1.559 . S
C123 C5 1.548 . S
C137 C109 1.518 . S
C147 C14 1.528 . S
C161 C37 1.530 . S
C171 C93 1.520 . S
C185 C53 1.541 . S
C195 C56 1.516 . S
C209 C84 1.523 . S
C219 C11 1.520 . S
C233 C23 1.530 . S
C243 C65 1.520 . S
C257 C81 1.518 . S
C267 C28 1.529 . S
C281 C47 1.554 . S
C291 C103 1.537 . S
C305 C67 1.538 . S
C315 C70 1.523 . S
C329 C19 1.556 . S
C339 C33 1.540 . S
C353 C42 1.541 . S
C363 C39 1.516 . S
C377 C51 1.528 . S
C387 C9 1.518 . S
C401 C25 1.531 . S
C411 C0 1.506 . S
C425 C98 1.528 . S
C435 C95 1.540 . S
C449 C61 1.546 . S
C459 C89 1.530 . S
C473 C79 1.530 . S
C483 C107 1.522 . S
