# Generated by pormake.
# Topology lcy-e, (6)-cn, num edge types: 1
# Building blocks:
#     Node 0, Type 0, BuildingBlock: VOLQOD_clean_sbu_1, # of connection points: 6
#     Node 1, Type 0, BuildingBlock: VOLQOD_clean_sbu_1, # of connection points: 6
#     Node 2, Type 0, BuildingBlock: VOLQOD_clean_sbu_1, # of connection points: 6
#     Node 3, Type 0, BuildingBlock: VOLQOD_clean_sbu_1, # of connection points: 6
#     Node 4, Type 0, BuildingBlock: VOLQOD_clean_sbu_1, # of connection points: 6
#     Node 5, Type 0, BuildingBlock: VOLQOD_clean_sbu_1, # of connection points: 6
#     Node 6, Type 0, BuildingBlock: VOLQOD_clean_sbu_1, # of connection points: 6
#     Node 7, Type 0, BuildingBlock: VOLQOD_clean_sbu_1, # of connection points: 6
#     Node 8, Type 0, BuildingBlock: VOLQOD_clean_sbu_1, # of connection points: 6
#     Node 9, Type 0, BuildingBlock: VOLQOD_clean_sbu_1, # of connection points: 6
#     Node 10, Type 0, BuildingBlock: VOLQOD_clean_sbu_1, # of connection points: 6
#     Node 11, Type 0, BuildingBlock: VOLQOD_clean_sbu_1, # of connection points: 6
#     Edge 12, Type (0, 0), BuildingBlock: CIFDUS_clean_linker_0, # of connection points: 2
#     Edge 13, Type (0, 0), BuildingBlock: CIFDUS_clean_linker_0, # of connection points: 2
#     Edge 14, Type (0, 0), BuildingBlock: CIFDUS_clean_linker_0, # of connection points: 2
#     Edge 15, Type (0, 0), BuildingBlock: CIFDUS_clean_linker_0, # of connection points: 2
#     Edge 16, Type (0, 0), BuildingBlock: CIFDUS_clean_linker_0, # of connection points: 2
#     Edge 17, Type (0, 0), BuildingBlock: CIFDUS_clean_linker_0, # of connection points: 2
#     Edge 18, Type (0, 0), BuildingBlock: CIFDUS_clean_linker_0, # of connection points: 2
#     Edge 19, Type (0, 0), BuildingBlock: CIFDUS_clean_linker_0, # of connection points: 2
#     Edge 20, Type (0, 0), BuildingBlock: CIFDUS_clean_linker_0, # of connection points: 2
#     Edge 21, Type (0, 0), BuildingBlock: CIFDUS_clean_linker_0, # of connection points: 2
#     Edge 22, Type (0, 0), BuildingBlock: CIFDUS_clean_linker_0, # of connection points: 2
#     Edge 23, Type (0, 0), BuildingBlock: CIFDUS_clean_linker_0, # of connection points: 2
#     Edge 24, Type (0, 0), BuildingBlock: CIFDUS_clean_linker_0, # of connection points: 2
#     Edge 25, Type (0, 0), BuildingBlock: CIFDUS_clean_linker_0, # of connection points: 2
#     Edge 26, Type (0, 0), BuildingBlock: CIFDUS_clean_linker_0, # of connection points: 2
#     Edge 27, Type (0, 0), BuildingBlock: CIFDUS_clean_linker_0, # of connection points: 2
#     Edge 28, Type (0, 0), BuildingBlock: CIFDUS_clean_linker_0, # of connection points: 2
#     Edge 29, Type (0, 0), BuildingBlock: CIFDUS_clean_linker_0, # of connection points: 2
#     Edge 30, Type (0, 0), BuildingBlock: CIFDUS_clean_linker_0, # of connection points: 2
#     Edge 31, Type (0, 0), BuildingBlock: CIFDUS_clean_linker_0, # of connection points: 2
#     Edge 32, Type (0, 0), BuildingBlock: CIFDUS_clean_linker_0, # of connection points: 2
#     Edge 33, Type (0, 0), BuildingBlock: CIFDUS_clean_linker_0, # of connection points: 2
#     Edge 34, Type (0, 0), BuildingBlock: CIFDUS_clean_linker_0, # of connection points: 2
#     Edge 35, Type (0, 0), BuildingBlock: CIFDUS_clean_linker_0, # of connection points: 2
#     Edge 36, Type (0, 0), BuildingBlock: CIFDUS_clean_linker_0, # of connection points: 2
#     Edge 37, Type (0, 0), BuildingBlock: CIFDUS_clean_linker_0, # of connection points: 2
#     Edge 38, Type (0, 0), BuildingBlock: CIFDUS_clean_linker_0, # of connection points: 2
#     Edge 39, Type (0, 0), BuildingBlock: CIFDUS_clean_linker_0, # of connection points: 2
#     Edge 40, Type (0, 0), BuildingBlock: CIFDUS_clean_linker_0, # of connection points: 2
#     Edge 41, Type (0, 0), BuildingBlock: CIFDUS_clean_linker_0, # of connection points: 2
#     Edge 42, Type (0, 0), BuildingBlock: CIFDUS_clean_linker_0, # of connection points: 2
#     Edge 43, Type (0, 0), BuildingBlock: CIFDUS_clean_linker_0, # of connection points: 2
#     Edge 44, Type (0, 0), BuildingBlock: CIFDUS_clean_linker_0, # of connection points: 2
#     Edge 45, Type (0, 0), BuildingBlock: CIFDUS_clean_linker_0, # of connection points: 2
#     Edge 46, Type (0, 0), BuildingBlock: CIFDUS_clean_linker_0, # of connection points: 2
#     Edge 47, Type (0, 0), BuildingBlock: CIFDUS_clean_linker_0, # of connection points: 2
# Relax obj value: 0.403
# Max RMSD: 0.291
# Mean RMSD: 0.282
data_MOF--net-lcy-e--node1-VOLQOD_clean_sbu_1--edge1-CIFDUS_clean_linker_0
_symmetry_space_group_name_H-M    P1
_symmetry_Int_Tables_number       1
_symmetry_cell_setting            triclinic
loop_
_symmetry_equiv_pos_as_xyz
'x, y, z'
_cell_length_a     33.502728
_cell_length_b     33.445522
_cell_length_c     33.694391
_cell_angle_alpha  90.325561
_cell_angle_beta   90.421339
_cell_angle_gamma 90.304301
loop_
_atom_site_label
_atom_site_type_symbol
_atom_site_fract_x
_atom_site_fract_y
_atom_site_fract_z
_atom_type_partial_charge
O0 O 0.24151 0.17013 0.4518 0.0
Zn1 Zn 0.20272 0.185 0.49546 0.0
O2 O 0.1497 0.18713 0.47158 0.0
Zn3 Zn 0.11964 0.23023 0.493 0.0
Zn4 Zn 0.14914 0.18768 0.41535 0.0
Zn5 Zn 0.12903 0.13682 0.48673 0.0
O6 O 0.08446 0.20865 0.5369 0.0
O7 O 0.0996 0.14362 0.53835 0.0
O8 O 0.21706 0.23964 0.51801 0.0
O9 O 0.15819 0.27006 0.51651 0.0
O10 O 0.09151 0.26062 0.44895 0.0
O11 O 0.12666 0.23949 0.39678 0.0
O12 O 0.11272 0.14573 0.39223 0.0
O13 O 0.20227 0.14125 0.5384 0.0
O14 O 0.09477 0.11124 0.44524 0.0
O15 O 0.17558 0.10135 0.49393 0.0
C16 C 0.23728 0.1678 0.41413 0.0
C17 C 0.08214 0.17412 0.55286 0.0
C18 C 0.10132 0.263 0.41247 0.0
C19 C 0.19551 0.27043 0.52408 0.0
C20 C 0.09297 0.11761 0.40813 0.0
C21 C 0.19302 0.10594 0.52705 0.0
O22 O 0.20422 0.17539 0.39677 0.0
O23 O 0.05597 0.74353 0.63019 0.0
Zn24 Zn 0.00984 0.78261 0.63488 0.0
O25 O 0.02985 0.83452 0.65232 0.0
Zn26 Zn 0.01553 0.84278 0.70641 0.0
Zn27 Zn 0.08655 0.83625 0.6463 0.0
Zn28 Zn 0.00856 0.87879 0.62325 0.0
O29 O 0.96662 0.87675 0.71047 0.0
O30 O 0.95993 0.90273 0.65048 0.0
O31 O 0.97351 0.75861 0.67713 0.0
O32 O -0.00019 0.79062 0.72926 0.0
O33 O 0.06085 0.86491 0.73893 0.0
O34 O 0.11082 0.85103 0.69822 0.0
O35 O 0.10407 0.87882 0.60921 0.0
O36 O 0.98341 0.78956 0.58063 0.0
O37 O 0.0523 0.9201 0.61243 0.0
O38 O 0.98921 0.85573 0.57209 0.0
C39 C 0.09357 0.74882 0.6278 0.0
C40 C 0.9473 0.898 0.68577 0.0
C41 C 0.09799 0.8633 0.73153 0.0
C42 C 0.97897 0.76219 0.71457 0.0
C43 C 0.08865 0.91301 0.60378 0.0
C44 C 0.97968 0.82095 0.55948 0.0
O45 O 0.10936 0.78331 0.63116 0.0
O46 O 0.41531 0.85178 0.95489 0.0
Zn47 Zn 0.3821 0.81651 0.99195 0.0
O48 O 0.32481 0.82852 0.98605 0.0
Zn49 Zn 0.2971 0.834 0.03624 0.0
Zn50 Zn 0.31796 0.87746 0.95759 0.0
Zn51 Zn 0.29956 0.78766 0.95532 0.0
O52 O 0.2518 0.79268 0.04324 0.0
O53 O 0.25959 0.75879 0.98709 0.0
O54 O 0.3971 0.81985 0.05081 0.0
O55 O 0.33663 0.82148 0.0779 0.0
O56 O 0.2846 0.89232 0.0487 0.0
O57 O 0.30856 0.92231 0.99513 0.0
O58 O 0.27386 0.87441 0.91744 0.0
O59 O 0.39416 0.75996 0.97303 0.0
O60 O 0.27387 0.80881 0.90652 0.0
O61 O 0.33759 0.74584 0.94089 0.0
C62 C 0.40388 0.87753 0.92939 0.0
C63 C 0.2432 0.76294 0.02069 0.0
C64 C 0.2943 0.92398 0.02996 0.0
C65 C 0.37434 0.81893 0.08117 0.0
C66 C 0.26324 0.84395 0.89721 0.0
C67 C 0.37279 0.73686 0.95143 0.0
O68 O 0.36768 0.88877 0.92754 0.0
O69 O 0.42724 0.09278 0.17406 0.0
Zn70 Zn 0.46475 0.12894 0.20442 0.0
O71 O 0.46638 0.18192 0.17988 0.0
Zn72 Zn 0.52138 0.1993 0.16965 0.0
Zn73 Zn 0.43577 0.18133 0.13067 0.0
Zn74 Zn 0.44214 0.21967 0.21498 0.0
O75 O 0.53884 0.24595 0.20593 0.0
O76 O 0.48225 0.25652 0.2378 0.0
O77 O 0.51988 0.10453 0.20527 0.0
O78 O 0.55793 0.15427 0.18339 0.0
O79 O 0.53103 0.20654 0.11033 0.0
O80 O 0.47405 0.18207 0.08582 0.0
O81 O 0.39846 0.22852 0.12594 0.0
O82 O 0.44139 0.13066 0.25979 0.0
O83 O 0.39969 0.2508 0.18819 0.0
O84 O 0.4187 0.19296 0.26161 0.0
C85 C 0.40353 0.09772 0.1448 0.0
C86 C 0.51899 0.26413 0.23271 0.0
C87 C 0.50991 0.19384 0.08107 0.0
C88 C 0.554 0.11875 0.19617 0.0
C89 C 0.3862 0.25218 0.15288 0.0
C90 C 0.42257 0.15869 0.27706 0.0
O91 O 0.40274 0.13058 0.12582 0.0
O92 O 0.67387 0.23387 0.47904 0.0
Zn93 Zn 0.64012 0.27534 0.50429 0.0
O94 O 0.67402 0.31915 0.5178 0.0
Zn95 Zn 0.6808 0.32228 0.57325 0.0
Zn96 Zn 0.7234 0.31876 0.48778 0.0
Zn97 Zn 0.65158 0.36824 0.50202 0.0
O98 O 0.64498 0.36312 0.59773 0.0
O99 O 0.62071 0.39462 0.54513 0.0
O100 O 0.61867 0.24816 0.55374 0.0
O101 O 0.66381 0.27096 0.5976 0.0
O102 O 0.73734 0.33746 0.58383 0.0
O103 O 0.76858 0.33451 0.52543 0.0
O104 O 0.71872 0.3613 0.44397 0.0
O105 O 0.6004 0.29323 0.46243 0.0
O106 O 0.6966 0.40406 0.48803 0.0
O107 O 0.61734 0.35733 0.45378 0.0
C108 C 0.70914 0.23216 0.46544 0.0
C109 C 0.62255 0.38946 0.58244 0.0
C110 C 0.76852 0.34157 0.56272 0.0
C111 C 0.63554 0.24711 0.58787 0.0
C112 C 0.71158 0.39731 0.45431 0.0
C113 C 0.59783 0.3261 0.44343 0.0
O114 O 0.73223 0.26272 0.46577 0.0
O115 O 0.93807 0.24129 0.84627 0.0
Zn116 Zn 0.9914 0.26764 0.83496 0.0
O117 O 0.98241 0.31837 0.80661 0.0
Zn118 Zn 0.01477 0.32148 0.75979 0.0
Zn119 Zn 0.9271 0.32471 0.7934 0.0
Zn120 Zn -0.00349 0.36347 0.83843 0.0
O121 O 0.06535 0.35321 0.76953 0.0
O122 O 0.05037 0.38497 0.82541 0.0
O123 O 0.02095 0.22755 0.7989 0.0
O124 O 0.03003 0.26676 0.74644 0.0
O125 O 0.98323 0.34024 0.71204 0.0
O126 O 0.92171 0.33055 0.7351 0.0
O127 O 0.90294 0.37432 0.8162 0.0
O128 O 0.01601 0.2793 0.89 0.0
O129 O 0.95651 0.40797 0.8365 0.0
O130 O 0.00029 0.34402 0.89307 0.0
C131 C 0.90253 0.24934 0.83535 0.0
C132 C 0.07457 0.37732 0.79757 0.0
C133 C 0.94552 0.33898 0.70704 0.0
C134 C 0.03203 0.2329 0.76308 0.0
C135 C 0.91921 0.40606 0.82949 0.0
C136 C 0.011 0.3117 0.9097 0.0
O137 O 0.89486 0.27941 0.81371 0.0
O138 O 0.88843 0.64286 0.03663 0.0
Zn139 Zn 0.86232 0.67671 0.995 0.0
O140 O 0.80669 0.66077 0.98814 0.0
Zn141 Zn 0.79171 0.66096 0.93255 0.0
Zn142 Zn 0.7981 0.60826 0.01031 0.0
Zn143 Zn 0.77392 0.69636 0.01748 0.0
O144 O 0.74578 0.69965 0.92161 0.0
O145 O 0.73329 0.72092 0.98274 0.0
O146 O 0.89066 0.67622 0.94237 0.0
O147 O 0.83898 0.67804 0.90053 0.0
O148 O 0.7828 0.60443 0.91306 0.0
O149 O 0.79691 0.5679 0.96646 0.0
O150 O 0.74818 0.60465 0.04283 0.0
O151 O 0.8674 0.73228 0.01746 0.0
O152 O 0.74723 0.6683 0.06206 0.0
O153 O 0.8055 0.74243 0.03827 0.0
C154 C 0.87613 0.61312 0.05665 0.0
C155 C 0.72602 0.72144 0.9457 0.0
C156 C 0.7891 0.57077 0.92953 0.0
C157 C 0.87642 0.67969 0.90732 0.0
C158 C 0.73609 0.63213 0.06592 0.0
C159 C 0.84156 0.75371 0.03477 0.0
O160 O 0.84257 0.59647 0.04919 0.0
O161 O 0.55028 0.55306 0.32948 0.0
Zn162 Zn 0.52006 0.59243 0.29643 0.0
O163 O 0.52447 0.64528 0.32137 0.0
Zn164 Zn 0.47243 0.6699 0.32638 0.0
Zn165 Zn 0.55226 0.64374 0.37224 0.0
Zn166 Zn 0.55621 0.677 0.28784 0.0
O167 O 0.46699 0.71914 0.29131 0.0
O168 O 0.52406 0.71594 0.25853 0.0
O169 O 0.4623 0.57612 0.29003 0.0
O170 O 0.43015 0.63123 0.30791 0.0
O171 O 0.45973 0.67878 0.38409 0.0
O172 O 0.51098 0.64938 0.41466 0.0
O173 O 0.5931 0.68916 0.37994 0.0
O174 O 0.54819 0.58882 0.24302 0.0
O175 O 0.59636 0.70768 0.31708 0.0
O176 O 0.58448 0.64409 0.24939 0.0
C177 C 0.57542 0.55688 0.35783 0.0
C178 C 0.49009 0.73151 0.26394 0.0
C179 C 0.4766 0.66563 0.41546 0.0
C180 C 0.42993 0.5953 0.29527 0.0
C181 C 0.60795 0.71084 0.3528 0.0
C182 C 0.57702 0.61105 0.23222 0.0
O183 O 0.58059 0.5902 0.376 0.0
O184 O 0.10562 0.47374 0.26456 0.0
Zn185 Zn 0.1227 0.51328 0.22183 0.0
O186 O 0.13214 0.48358 0.17213 0.0
Zn187 Zn 0.18573 0.48871 0.15268 0.0
Zn188 Zn 0.12085 0.42783 0.17793 0.0
Zn189 Zn 0.09883 0.50371 0.13143 0.0
O190 O 0.19013 0.52883 0.10816 0.0
O191 O 0.12686 0.54696 0.10082 0.0
O192 O 0.17546 0.53898 0.24088 0.0
O193 O 0.21703 0.51225 0.1968 0.0
O194 O 0.21197 0.43554 0.14101 0.0
O195 O 0.17138 0.39722 0.17633 0.0
O196 O 0.08699 0.40585 0.13359 0.0
O197 O 0.07585 0.55279 0.21446 0.0
O198 O 0.0767 0.4599 0.09681 0.0
O199 O 0.0535 0.52932 0.15635 0.0
C200 C 0.09432 0.43725 0.26258 0.0
C201 C 0.16373 0.55177 0.0934 0.0
C202 C 0.2039 0.40246 0.15782 0.0
C203 C 0.21078 0.5321 0.22843 0.0
C204 C 0.07287 0.42251 0.10278 0.0
C205 C 0.0489 0.55024 0.18746 0.0
O206 O 0.09622 0.41739 0.23031 0.0
O207 O 0.74223 0.97225 0.82244 0.0
Zn208 Zn 0.70636 1e-05 0.86047 0.0
O209 O 0.6612 0.01861 0.83145 0.0
Zn210 Zn 0.65893 0.07499 0.83083 0.0
Zn211 Zn 0.65665 0.99227 0.77949 0.0
Zn212 Zn 0.61334 0.00254 0.85597 0.0
O213 O 0.6211 0.0982 0.87148 0.0
O214 O 0.59072 0.0434 0.89272 0.0
O215 O 0.74002 0.04655 0.88142 0.0
O216 O 0.71253 0.09532 0.84576 0.0
O217 O 0.64342 0.0911 0.77586 0.0
O218 O 0.64073 0.03513 0.73937 0.0
O219 O 0.61274 0.94854 0.78526 0.0
O220 O 0.68885 0.95738 0.89901 0.0
O221 O 0.57491 0.9941 0.81197 0.0
O222 O 0.62415 0.95061 0.8837 0.0
C223 C 0.74157 0.96223 0.78595 0.0
C224 C 0.59629 0.08101 0.89424 0.0
C225 C 0.63701 0.07306 0.7429 0.0
C226 C 0.74022 0.08236 0.86832 0.0
C227 C 0.57843 0.95939 0.79741 0.0
C228 C 0.65571 0.93844 0.90105 0.0
O229 O 0.71091 0.96837 0.76406 0.0
O230 O 0.83859 0.92742 0.37857 0.0
Zn231 Zn 0.80297 0.95602 0.3409 0.0
O232 O 0.83119 0.96168 0.29143 0.0
Zn233 Zn 0.83863 0.01667 0.27712 0.0
Zn234 Zn 0.88072 0.93317 0.29141 0.0
Zn235 Zn 0.79888 0.93907 0.25183 0.0
O236 O 0.79806 0.03477 0.23567 0.0
O237 O 0.76115 0.97958 0.23168 0.0
O238 O 0.78923 0.01059 0.36413 0.0
O239 O 0.82475 0.04956 0.32413 0.0
O240 O 0.89672 0.02954 0.26723 0.0
O241 O 0.92352 0.97453 0.29277 0.0
O242 O 0.88759 0.90079 0.24077 0.0
O243 O 0.75669 0.91656 0.33639 0.0
O244 O 0.83221 0.91771 0.2085 0.0
O245 O 0.76891 0.89431 0.27554 0.0
C246 C 0.86781 0.90358 0.37446 0.0
C247 C 0.76598 0.01669 0.22511 0.0
C248 C 0.92678 0.01042 0.28063 0.0
C249 C 0.80362 0.04475 0.35493 0.0
C250 C 0.86626 0.90105 0.20926 0.0
C251 C 0.75213 0.89037 0.30904 0.0
O252 O 0.88584 0.89979 0.34139 0.0
O253 O 0.35868 0.56991 0.61013 0.0
Zn254 Zn 0.32176 0.53701 0.64442 0.0
O255 O 0.34717 0.52656 0.69567 0.0
Zn256 Zn 0.35648 0.46948 0.70252 0.0
Zn257 Zn 0.39775 0.55407 0.6992 0.0
Zn258 Zn 0.31371 0.54544 0.73811 0.0
O259 O 0.31987 0.44577 0.74337 0.0
O260 O 0.28561 0.49908 0.76227 0.0
O261 O 0.3071 0.48475 0.61637 0.0
O262 O 0.33986 0.4406 0.65322 0.0
O263 O 0.4145 0.45563 0.71059 0.0
O264 O 0.44173 0.51471 0.6979 0.0
O265 O 0.40385 0.58584 0.74921 0.0
O266 O 0.27233 0.57034 0.65157 0.0
O267 O 0.34636 0.57459 0.7798 0.0
O268 O 0.27011 0.58107 0.7167 0.0
C269 C 0.39013 0.59014 0.61823 0.0
C270 C 0.2912 0.46149 0.76244 0.0
C271 C 0.44501 0.47743 0.70406 0.0
C272 C 0.31883 0.44913 0.62293 0.0
C273 C 0.38143 0.58957 0.77926 0.0
C274 C 0.25631 0.58654 0.68179 0.0
O275 O 0.40664 0.58878 0.65229 0.0
H276 H 0.27263 0.28274 0.54807 0.0
H277 H 0.16004 0.34327 0.53274 0.0
H278 H 0.18976 0.40536 0.55715 0.0
H279 H 0.24659 0.44176 0.58678 0.0
H280 H 0.35795 0.38043 0.60559 0.0
H281 H 0.33017 0.31982 0.57514 0.0
C282 C 0.2546 0.30951 0.54995 0.0
C283 C 0.21406 0.30808 0.53887 0.0
C284 C 0.27177 0.34521 0.56435 0.0
C285 C 0.19123 0.34323 0.54141 0.0
C286 C 0.20823 0.37892 0.55521 0.0
C287 C 0.26498 0.41539 0.58333 0.0
C288 C 0.30426 0.41555 0.59813 0.0
C289 C 0.24835 0.38019 0.56714 0.0
C290 C 0.3276 0.38096 0.59426 0.0
C291 C 0.31167 0.34624 0.57711 0.0
H292 H 0.77523 0.97249 0.71254 0.0
H293 H 0.79067 0.91167 0.82416 0.0
H294 H 0.85558 0.88734 0.80325 0.0
H295 H 0.90898 0.88527 0.75507 0.0
H296 H 0.89609 0.94608 0.64311 0.0
H297 H 0.82957 0.9689 0.66253 0.0
C298 C 0.79262 0.95337 0.73187 0.0
C299 C 0.77812 0.94379 0.7698 0.0
C300 C 0.83068 0.94009 0.71996 0.0
C301 C 0.8012 0.9195 0.79486 0.0
C302 C 0.83842 0.9057 0.78301 0.0
C303 C 0.89188 0.90371 0.73482 0.0
C304 C 0.90786 0.91417 0.69777 0.0
C305 C 0.85372 0.91633 0.74597 0.0
C306 C 0.88479 0.93778 0.67195 0.0
C307 C 0.84661 0.95067 0.68297 0.0
H308 H 0.24902 0.68647 -0.00342 0.0
H309 H 0.18554 0.76168 0.07898 0.0
H310 H 0.15156 0.70241 0.10571 0.0
H311 H 0.14382 0.62857 0.10836 0.0
H312 H 0.21439 0.55455 0.03108 0.0
H313 H 0.2416 0.61422 -0.00094 0.0
C314 C 0.22725 0.6902 0.01997 0.0
C315 C 0.21944 0.72861 0.03547 0.0
C316 C 0.20931 0.6561 0.03606 0.0
C317 C 0.1919 0.73254 0.06643 0.0
C318 C 0.17258 0.69865 0.0817 0.0
C319 C 0.16464 0.62572 0.08402 0.0
C320 C 0.17678 0.58743 0.07149 0.0
C321 C 0.18154 0.66022 0.06711 0.0
C322 C 0.20451 0.58379 0.04079 0.0
C323 C 0.22009 0.61784 0.02267 0.0
H324 H 0.63149 0.14189 0.18787 0.0
H325 H 0.55753 0.03873 0.21196 0.0
H326 H 0.61696 0.99734 0.21816 0.0
H327 H 0.68934 0.99122 0.22036 0.0
H328 H 0.76392 0.09477 0.20032 0.0
H329 H 0.70445 0.13516 0.18794 0.0
C330 C 0.62827 0.11032 0.19434 0.0
C331 C 0.59002 0.09353 0.1997 0.0
C332 C 0.66258 0.08676 0.19828 0.0
C333 C 0.58654 0.05255 0.20803 0.0
C334 C 0.62051 0.02881 0.21142 0.0
C335 C 0.69281 0.02248 0.21265 0.0
C336 C 0.73114 0.03993 0.21126 0.0
C337 C 0.65862 0.0457 0.20699 0.0
C338 C 0.73483 0.08058 0.20155 0.0
C339 C 0.70083 0.10371 0.19472 0.0
H340 H 0.77899 0.2164 0.42747 0.0
H341 H 0.67052 0.16027 0.46837 0.0
H342 H 0.69179 0.09644 0.44112 0.0
H343 H 0.7394 0.05701 0.40234 0.0
H344 H 0.8467 0.11361 0.35953 0.0
H345 H 0.82791 0.17633 0.39124 0.0
C346 C 0.76009 0.1902 0.43057 0.0
C347 C 0.72311 0.19336 0.44963 0.0
C348 C 0.7723 0.15345 0.41455 0.0
C349 C 0.69903 0.15895 0.45349 0.0
C350 C 0.71118 0.12227 0.43802 0.0
C351 C 0.75891 0.08291 0.40054 0.0
C352 C 0.79422 0.08072 0.37854 0.0
C353 C 0.74753 0.11923 0.41809 0.0
C354 C 0.81913 0.11463 0.37611 0.0
C355 C 0.80842 0.15056 0.39416 0.0
H356 H 0.14363 0.34729 0.76862 0.0
H357 H 0.0948 0.44888 0.83066 0.0
H358 H 0.16027 0.48128 0.83155 0.0
H359 H 0.22939 0.48341 0.80907 0.0
H360 H 0.2786 0.38197 0.74689 0.0
H361 H 0.2154 0.34613 0.75328 0.0
C362 C 0.14743 0.37652 0.78229 0.0
C363 C 0.11441 0.39612 0.79875 0.0
C364 C 0.18526 0.39471 0.78324 0.0
C365 C 0.11978 0.43346 0.81739 0.0
C366 C 0.15719 0.45192 0.81805 0.0
C367 C 0.22664 0.4531 0.79769 0.0
C368 C 0.25848 0.43573 0.77695 0.0
C369 C 0.18993 0.43313 0.80042 0.0
C370 C 0.25458 0.39619 0.76292 0.0
C371 C 0.21823 0.37582 0.76607 0.0
H372 H 0.66035 0.87176 0.85755 0.0
H373 H 0.65506 0.91472 0.97811 0.0
H374 H 0.66813 0.84706 0.00266 0.0
H375 H 0.69045 0.77923 0.98935 0.0
H376 H 0.70457 0.73812 0.86849 0.0
H377 H 0.67715 0.80121 0.84427 0.0
C378 C 0.6611 0.86583 0.88918 0.0
C379 C 0.65657 0.89757 0.91624 0.0
C380 C 0.67032 0.82739 0.90279 0.0
C381 C 0.65828 0.89036 0.95706 0.0
C382 C 0.66585 0.85184 0.97094 0.0
C383 C 0.68687 0.78351 0.95765 0.0
C384 C 0.7002 0.75405 0.93075 0.0
C385 C 0.67329 0.82052 0.94402 0.0
C386 C 0.69484 0.76028 0.88985 0.0
C387 C 0.67947 0.79649 0.876 0.0
H388 H 0.35503 0.62439 0.3082 0.0
H389 H 0.41773 0.52268 0.25993 0.0
H390 H 0.35461 0.49296 0.23861 0.0
H391 H 0.28286 0.49789 0.22927 0.0
H392 H 0.21877 0.59907 0.27598 0.0
H393 H 0.28143 0.62674 0.30315 0.0
C394 C 0.35491 0.59561 0.29321 0.0
C395 C 0.39123 0.57605 0.28523 0.0
C396 C 0.31839 0.57865 0.28084 0.0
C397 C 0.39038 0.53855 0.26624 0.0
C398 C 0.35428 0.5215 0.25401 0.0
C399 C 0.28247 0.52595 0.24561 0.0
C400 C 0.24642 0.5468 0.25013 0.0
C401 C 0.31832 0.54164 0.26049 0.0
C402 C 0.24621 0.58257 0.27209 0.0
C403 C 0.28203 0.59845 0.28733 0.0
H404 H 0.48534 0.29743 0.29771 0.0
H405 H 0.59889 0.28374 0.23936 0.0
H406 H 0.63318 0.30816 0.29929 0.0
H407 H 0.63111 0.3227 0.37136 0.0
H408 H 0.5178 0.3272 0.43073 0.0
H409 H 0.48291 0.31672 0.36726 0.0
C410 C 0.5176 0.3004 0.29757 0.0
C411 C 0.53952 0.28816 0.26406 0.0
C412 C 0.53707 0.31216 0.33268 0.0
C413 C 0.58124 0.29272 0.26467 0.0
C414 C 0.60088 0.30635 0.29908 0.0
C415 C 0.59874 0.32221 0.37 0.0
C416 C 0.57673 0.32584 0.40519 0.0
C417 C 0.57917 0.31449 0.33372 0.0
C418 C 0.535 0.32458 0.40374 0.0
C419 C 0.51522 0.31853 0.36757 0.0
H420 H 0.11746 0.15766 0.62272 0.0
H421 H 0.00402 0.18583 0.56927 0.0
H422 H 0.97442 0.1936 0.63509 0.0
H423 H 0.98485 0.20599 0.70577 0.0
H424 H 0.10111 0.1899 0.75814 0.0
H425 H 0.12546 0.16137 0.69561 0.0
C426 C 0.08595 0.16399 0.62573 0.0
C427 C 0.06267 0.17086 0.59159 0.0
C428 C 0.06986 0.17037 0.66362 0.0
C429 C 0.02221 0.18035 0.59537 0.0
C430 C 0.00542 0.18479 0.63292 0.0
C431 C 0.01496 0.19428 0.70392 0.0
C432 C 0.04113 0.19948 0.73635 0.0
C433 C 0.02942 0.18161 0.66709 0.0
C434 C 0.08033 0.18535 0.73372 0.0
C435 C 0.09439 0.16992 0.6977 0.0
H436 H 0.00429 0.74294 0.78782 0.0
H437 H 0.90755 0.72274 0.70482 0.0
H438 H 0.86819 0.69123 0.75727 0.0
H439 H 0.85853 0.67782 0.82836 0.0
H440 H 0.95541 0.70004 0.91108 0.0
H441 H -0.00234 0.72226 0.85681 0.0
C442 C 0.97478 0.73109 0.78105 0.0
C443 C 0.95849 0.73568 0.74279 0.0
C444 C 0.95226 0.7139 0.81135 0.0
C445 C 0.92064 0.71956 0.73412 0.0
C446 C 0.89805 0.70191 0.76417 0.0
C447 C 0.88901 0.68717 0.8345 0.0
C448 C 0.90352 0.68804 0.87388 0.0
C449 C 0.91307 0.70027 0.80319 0.0
C450 C 0.94333 0.69946 0.88117 0.0
C451 C 0.96751 0.71224 0.85016 0.0
H452 H 0.41419 0.75772 0.25208 0.0
H453 H 0.53426 0.76935 0.20774 0.0
H454 H 0.5093 0.80175 0.14813 0.0
H455 H 0.4527 0.81696 0.10412 0.0
H456 H 0.3327 0.80499 0.14884 0.0
H457 H 0.35844 0.78303 0.2125 0.0
C458 C 0.43498 0.76826 0.22988 0.0
C459 C 0.47582 0.76017 0.23392 0.0
C460 C 0.42044 0.78622 0.19521 0.0
C461 C 0.50246 0.77446 0.20503 0.0
C462 C 0.48825 0.79289 0.17077 0.0
C463 C 0.43224 0.81008 0.12795 0.0
C464 C 0.39091 0.81169 0.12124 0.0
C465 C 0.44716 0.79722 0.16473 0.0
C466 C 0.36477 0.80344 0.1528 0.0
C467 C 0.37938 0.79083 0.18939 0.0
H468 H 0.10625 0.34337 0.42188 0.0
H469 H 0.05946 0.25058 0.34518 0.0
H470 H 0.04475 0.29976 0.29387 0.0
H471 H 0.05672 0.3659 0.26686 0.0
H472 H 0.11024 0.45811 0.34017 0.0
H473 H 0.10977 0.41299 0.39712 0.0
C474 C 0.09163 0.3344 0.39438 0.0
C475 C 0.08379 0.29373 0.38699 0.0
C476 C 0.08504 0.36264 0.36429 0.0
C477 C 0.06556 0.2819 0.3512 0.0
C478 C 0.05739 0.30993 0.32188 0.0
C479 C 0.06757 0.37648 0.29549 0.0
C480 C 0.08432 0.41497 0.29904 0.0
C481 C 0.06877 0.34996 0.32743 0.0
C482 C 0.09746 0.42849 0.33653 0.0
C483 C 0.09751 0.40256 0.36904 0.0
H484 H 0.90323 0.83397 0.54315 0.0
H485 H 0.01599 0.80765 0.48896 0.0
H486 H 0.98939 0.82716 0.42385 0.0
H487 H 0.93728 0.86211 0.38528 0.0
H488 H 0.82612 0.89203 0.44222 0.0
H489 H 0.84865 0.86067 0.50314 0.0
C490 C 0.92129 0.83103 0.51668 0.0
C491 C 0.96102 0.81889 0.52023 0.0
C492 C 0.90638 0.84399 0.48009 0.0
C493 C 0.98493 0.81616 0.48635 0.0
C494 C 0.9699 0.82788 0.44937 0.0
C495 C 0.91781 0.86119 0.41083 0.0
C496 C 0.88047 0.88019 0.4094 0.0
C497 C 0.93119 0.84353 0.44626 0.0
C498 C 0.85541 0.87845 0.4427 0.0
C499 C 0.86813 0.86033 0.47759 0.0
H500 H 0.35856 0.58334 0.8558 0.0
H501 H 0.43613 0.65015 0.77866 0.0
H502 H 0.44992 0.69824 0.83188 0.0
H503 H 0.42823 0.72827 0.895 0.0
H504 H 0.34797 0.66293 0.9702 0.0
H505 H 0.34821 0.6064 0.92405 0.0
C506 C 0.37903 0.60805 0.85094 0.0
C507 C 0.39538 0.61396 0.8132 0.0
C508 C 0.38658 0.63565 0.88152 0.0
C509 C 0.42271 0.64538 0.80741 0.0
C510 C 0.4306 0.67291 0.8378 0.0
C511 C 0.41263 0.70073 0.90212 0.0
C512 C 0.38825 0.69933 0.93568 0.0
C513 C 0.41124 0.66932 0.87436 0.0
C514 C 0.36729 0.66412 0.94457 0.0
C515 C 0.36686 0.63217 0.91785 0.0
H516 H 0.47916 0.14961 0.02087 0.0
H517 H 0.58416 0.21737 0.05474 0.0
H518 H 0.61915 0.19172 -0.00369 0.0
H519 H 0.6221 0.14354 0.94005 0.0
H520 H 0.51876 0.0707 0.91275 0.0
H521 H 0.48084 0.10484 0.96424 0.0
C522 C 0.50947 0.15952 0.01529 0.0
C523 C 0.52901 0.18533 0.04236 0.0
C524 C 0.52987 0.14319 0.983 0.0
C525 C 0.56839 0.19751 0.03446 0.0
C526 C 0.58848 0.18263 0.00118 0.0
C527 C 0.59111 0.13571 0.94514 0.0
C528 C 0.57314 0.10467 0.92288 0.0
C529 C 0.56991 0.15444 0.97595 0.0
C530 C 0.53317 0.09432 0.92982 0.0
C531 C 0.51151 0.11385 0.95916 0.0
H532 H 0.63266 0.16617 0.58088 0.0
H533 H 0.612 0.26381 0.66206 0.0
H534 H 0.60473 0.21698 0.71687 0.0
H535 H 0.61358 0.15012 0.74295 0.0
H536 H 0.6397 0.05189 0.66386 0.0
H537 H 0.63489 0.09683 0.60685 0.0
C538 C 0.62542 0.17682 0.61042 0.0
C539 C 0.62268 0.21811 0.61773 0.0
C540 C 0.62293 0.14974 0.64215 0.0
C541 C 0.61408 0.23202 0.65604 0.0
C542 C 0.61016 0.20532 0.68733 0.0
C543 C 0.61781 0.1383 0.71323 0.0
C544 C 0.62772 0.09786 0.70776 0.0
C545 C 0.61605 0.16436 0.68096 0.0
C546 C 0.63232 0.08298 0.66895 0.0
C547 C 0.62974 0.10871 0.63636 0.0
H548 H 0.09614 0.35234 0.06963 0.0
H549 H 0.00141 0.43916 0.07023 0.0
H550 H 0.96808 0.40415 0.01544 0.0
H551 H 0.97155 0.35631 0.96153 0.0
H552 H 0.07085 0.27545 0.95291 0.0
H553 H 0.09611 0.29919 0.01764 0.0
C554 C 0.06784 0.36293 0.05804 0.0
C555 C 0.05118 0.39828 0.07332 0.0
C556 C 0.04984 0.34366 0.02528 0.0
C557 C 0.01475 0.41222 0.05834 0.0
C558 C 0.99572 0.39219 0.02721 0.0
C559 C -0.0017 0.34322 0.97428 0.0
C560 C 0.01977 0.31477 0.95246 0.0
C561 C 0.0138 0.35892 0.00958 0.0
C562 C 0.05389 0.29742 0.96932 0.0
C563 C 0.06857 0.31145 0.00597 0.0
H564 H 0.83633 0.90799 0.13529 0.0
H565 H 0.92305 0.84234 0.20385 0.0
H566 H 0.92982 0.79405 0.14949 0.0
H567 H 0.90035 0.76356 0.08897 0.0
H568 H 0.80756 0.8259 0.02576 0.0
H569 H 0.8142 0.88286 0.07107 0.0
C570 C 0.85728 0.88351 0.13813 0.0
C571 C 0.87831 0.87804 0.17388 0.0
C572 C 0.85961 0.85514 0.1077 0.0
C573 C 0.90612 0.84687 0.17675 0.0
C574 C 0.9098 0.81913 0.14578 0.0
C575 C 0.88273 0.79031 0.0845 0.0
C576 C 0.85351 0.79097 0.05446 0.0
C577 C 0.88516 0.82188 0.11203 0.0
C578 C 0.83018 0.82515 0.0489 0.0
C579 C 0.83381 0.85747 0.07489 0.0
H580 H 0.35769 0.61781 0.54939 0.0
H581 H 0.46803 0.61309 0.61622 0.0
H582 H 0.50405 0.64162 0.56056 0.0
H583 H 0.50561 0.65976 0.49035 0.0
H584 H 0.39559 0.66531 0.42327 0.0
H585 H 0.35799 0.64558 0.48185 0.0
C586 C 0.38952 0.62352 0.55188 0.0
C587 C 0.41024 0.6127 0.58656 0.0
C588 C 0.41015 0.64005 0.51974 0.0
C589 C 0.45136 0.62094 0.58974 0.0
C590 C 0.47207 0.63715 0.55788 0.0
C591 C 0.47332 0.65742 0.48879 0.0
C592 C 0.45349 0.66333 0.45247 0.0
C593 C 0.45197 0.64565 0.52237 0.0
C594 C 0.41159 0.66084 0.45093 0.0
C595 C 0.39008 0.6492 0.48431 0.0
H596 H 0.31635 0.18372 0.42515 0.0
H597 H 0.2329 0.12236 0.34772 0.0
H598 H 0.28657 0.10575 0.30213 0.0
H599 H 0.35481 0.11717 0.27955 0.0
H600 H 0.43643 0.18623 0.3518 0.0
H601 H 0.3867 0.19045 0.40473 0.0
C602 C 0.31023 0.16616 0.39861 0.0
C603 C 0.27085 0.15468 0.38943 0.0
C604 C 0.34104 0.15798 0.37174 0.0
C605 C 0.26301 0.13206 0.35495 0.0
C606 C 0.29366 0.1224 0.32898 0.0
C607 C 0.36203 0.13173 0.3076 0.0
C608 C 0.39911 0.15062 0.31251 0.0
C609 C 0.3325 0.13628 0.33643 0.0
C610 C 0.40812 0.17078 0.3481 0.0
C611 C 0.37955 0.17363 0.378 0.0
H612 H 0.20391 0.02811 0.51271 0.0
H613 H 0.16556 0.11059 0.603 0.0
H614 H 0.12794 0.05707 0.63551 0.0
H615 H 0.0982 0.98885 0.63188 0.0
H616 H 0.13832 0.90687 0.54157 0.0
H617 H 0.18252 0.95823 0.51475 0.0
C618 C 0.18862 0.0339 0.54043 0.0
C619 C 0.187 0.07314 0.55531 0.0
C620 C 0.16617 0.0034 0.55792 0.0
C621 C 0.16718 0.08052 0.59114 0.0
C622 C 0.14509 0.05008 0.60924 0.0
C623 C 0.1166 0.98251 0.60626 0.0
C624 C 0.11437 0.94474 0.58785 0.0
C625 C 0.14279 0.0119 0.5917 0.0
C626 C 0.13918 0.9361 0.55559 0.0
C627 C 0.16462 0.96528 0.5405 0.0
H628 H 0.17214 0.83415 0.73563 0.0
H629 H 0.08856 0.90771 0.79952 0.0
H630 H 0.13524 0.91208 0.8558 0.0
H631 H 0.1973 0.88943 0.88871 0.0
H632 H 0.27576 0.80936 0.82628 0.0
H633 H 0.23361 0.81322 0.76706 0.0
C634 C 0.16432 0.85177 0.76156 0.0
C635 C 0.12711 0.87064 0.76355 0.0
C636 C 0.19026 0.85261 0.79405 0.0
C637 C 0.11713 0.89285 0.79752 0.0
C638 C 0.1437 0.89526 0.82962 0.0
C639 C 0.20517 0.87335 0.86186 0.0
C640 C 0.23919 0.84913 0.86139 0.0
C641 C 0.17994 0.87443 0.82854 0.0
C642 C 0.24935 0.82791 0.82697 0.0
C643 C 0.2254 0.83016 0.79325 0.0
H644 H 0.35521 0.09313 0.07927 0.0
H645 H 0.39178 0.02675 0.18281 0.0
H646 H 0.35319 0.96907 0.15988 0.0
H647 H 0.31675 0.93458 0.10637 0.0
H648 H 0.28467 -0.00104 0.00047 0.0
H649 H 0.31249 0.06058 0.02894 0.0
C650 C 0.35438 0.06624 0.09708 0.0
C651 C 0.377 0.06417 0.13238 0.0
C652 C 0.3326 0.0328 0.08341 0.0
C653 C 0.37524 0.02909 0.15519 0.0
C654 C 0.35301 0.99604 0.1422 0.0
C655 C 0.3145 0.96243 0.09017 0.0
C656 C 0.29857 0.96233 0.05147 0.0
C657 C 0.33249 0.99717 0.10583 0.0
C658 C 0.29663 -0.00156 0.03043 0.0
C659 C 0.31297 0.03353 0.0465 0.0
H660 H 0.89003 0.39319 0.69209 0.0
H661 H 0.95934 0.30065 0.63679 0.0
H662 H 0.91242 0.29842 0.58044 0.0
H663 H 0.84412 0.31294 0.55538 0.0
H664 H 0.77344 0.40154 0.61574 0.0
H665 H 0.82854 0.41596 0.66124 0.0
C666 C 0.89553 0.37367 0.66687 0.0
C667 C 0.92752 0.34701 0.66826 0.0
C668 C 0.86771 0.37144 0.63592 0.0
C669 C 0.93481 0.32163 0.63587 0.0
C670 C 0.90772 0.32001 0.60403 0.0
C671 C 0.84148 0.33618 0.57779 0.0
C672 C 0.80487 0.35574 0.58291 0.0
C673 C 0.87287 0.34323 0.6049 0.0
C674 C 0.80134 0.38576 0.61191 0.0
C675 C 0.83274 0.39399 0.63788 0.0
H676 H 0.8482 0.40577 0.86668 0.0
H677 H 0.93489 0.48369 0.81273 0.0
H678 H 0.89575 0.54219 0.83197 0.0
H679 H 0.84181 0.57101 0.87101 0.0
H680 H 0.76181 0.49391 0.93496 0.0
H681 H 0.79245 0.43495 0.90423 0.0
C682 C 0.85803 0.43561 0.85871 0.0
C683 C 0.89416 0.44077 0.83843 0.0
C684 C 0.83641 0.46902 0.87154 0.0
C685 C 0.90721 0.47934 0.8286 0.0
C686 C 0.88483 0.51264 0.83947 0.0
C687 C 0.83026 0.54129 0.87707 0.0
C688 C 0.79917 0.53649 0.90434 0.0
C689 C 0.84996 0.50785 0.86178 0.0
C690 C 0.78527 0.49801 0.91338 0.0
C691 C 0.80308 0.46445 0.89621 0.0
H692 H 0.66554 0.59124 0.07023 0.0
H693 H 0.7569 0.65008 0.14041 0.0
H694 H 0.71772 0.64086 0.20027 0.0
H695 H 0.65484 0.6247 0.23063 0.0
H696 H 0.55896 0.57247 0.16162 0.0
H697 H 0.60275 0.56913 0.1033 0.0
C698 C 0.67682 0.60132 0.09886 0.0
C699 C 0.71356 0.62165 0.10133 0.0
C700 C 0.65337 0.59717 0.13305 0.0
C701 C 0.72833 0.63483 0.13817 0.0
C702 C 0.70608 0.62948 0.17228 0.0
C703 C 0.64367 0.61201 0.20293 0.0
C704 C 0.6038 0.59952 0.19989 0.0
C705 C 0.66813 0.612 0.16976 0.0
C706 C 0.5897 0.58235 0.16435 0.0
C707 C 0.61458 0.58087 0.13106 0.0
H708 H 0.6601 0.39304 0.39321 0.0
H709 H 0.74247 0.47206 0.45365 0.0
H710 H 0.70761 0.53018 0.42692 0.0
H711 H 0.64711 0.55786 0.39623 0.0
H712 H 0.56171 0.47827 0.34006 0.0
H713 H 0.60352 0.42098 0.35618 0.0
C714 C 0.6714 0.42299 0.39893 0.0
C715 C 0.70398 0.42846 0.42485 0.0
C716 C 0.64947 0.45611 0.38581 0.0
C717 C 0.71789 0.46733 0.43303 0.0
C718 C 0.6974 0.50049 0.41851 0.0
C719 C 0.63765 0.52799 0.38752 0.0
C720 C 0.60094 0.5223 0.36775 0.0
C721 C 0.66193 0.49517 0.3967 0.0
C722 C 0.58959 0.48346 0.3558 0.0
C723 C 0.6136 0.45068 0.36475 0.0
H724 H 0.26366 0.38647 0.1051 0.0
H725 H 0.21146 0.34699 0.2151 0.0
H726 H 0.26283 0.29657 0.2223 0.0
H727 H 0.3239 0.26559 0.19943 0.0
H728 H 0.37542 0.30028 0.08797 0.0
H729 H 0.3228 0.35056 0.07889 0.0
C730 C 0.26357 0.36664 0.13045 0.0
C731 C 0.23401 0.37059 0.15963 0.0
C732 C 0.29298 0.33701 0.13416 0.0
C733 C 0.23381 0.34446 0.19215 0.0
C734 C 0.26324 0.31569 0.19643 0.0
C735 C 0.32347 0.28411 0.17307 0.0
C736 C 0.35346 0.27994 0.14466 0.0
C737 C 0.29311 0.31204 0.16791 0.0
C738 C 0.35243 0.3033 0.11021 0.0
C739 C 0.32254 0.33203 0.10517 0.0
H740 H 0.9047 0.17222 0.8622 0.0
H741 H 0.82468 0.27018 0.83807 0.0
H742 H 0.76761 0.2281 0.85333 0.0
H743 H 0.74 0.1624 0.86581 0.0
H744 H 0.81788 0.06214 0.88575 0.0
H745 H 0.87626 0.10647 0.88126 0.0
C746 C 0.87478 0.18437 0.86076 0.0
C747 C 0.8689 0.22403 0.84828 0.0
C748 C 0.84175 0.15969 0.86893 0.0
C749 C 0.83 0.23952 0.84679 0.0
C750 C 0.7973 0.21557 0.85571 0.0
C751 C 0.76974 0.15027 0.86979 0.0
C752 C 0.77473 0.10907 0.87546 0.0
C753 C 0.80279 0.17543 0.86564 0.0
C754 C 0.81332 0.09385 0.88132 0.0
C755 C 0.84667 0.1191 0.87831 0.0
H756 H 0.9742 0.52295 0.18713 0.0
H757 H 0.04409 0.63106 0.18226 0.0
H758 H 0.99243 0.66267 0.1416 0.0
H759 H 0.93587 0.65328 0.0952 0.0
H760 H 0.86942 0.54228 0.09595 0.0
H761 H 0.91163 0.5176 0.1497 0.0
C762 C 0.97693 0.55421 0.17897 0.0
C763 C 0.01277 0.57468 0.18738 0.0
C764 C 0.94876 0.57076 0.153 0.0
C765 C 0.01649 0.61494 0.17651 0.0
C766 C 0.98745 0.63255 0.15227 0.0
C767 C 0.9305 0.62375 0.10724 0.0
C768 C 0.90032 0.59914 0.09073 0.0
C769 C 0.95497 0.60968 0.13811 0.0
C770 C 0.89296 0.56148 0.10752 0.0
C771 C 0.9169 0.54745 0.13846 0.0
H772 H 0.7012 0.87226 0.37043 0.0
H773 H 0.75636 0.82249 0.26564 0.0
H774 H 0.72266 0.75942 0.27618 0.0
H775 H 0.673 0.72042 0.31018 0.0
H776 H 0.61144 0.76909 0.41103 0.0
H777 H 0.65329 0.82981 0.40825 0.0
C778 C 0.70579 0.84754 0.35005 0.0
C779 C 0.73068 0.85252 0.31685 0.0
C780 C 0.68566 0.81094 0.35591 0.0
C781 C 0.73673 0.82001 0.29093 0.0
C782 C 0.71777 0.78365 0.29708 0.0
C783 C 0.66946 0.74397 0.3322 0.0
C784 C 0.63941 0.74063 0.36065 0.0
C785 C 0.69167 0.7791 0.32886 0.0
C786 C 0.63488 0.77101 0.38914 0.0
C787 C 0.65829 0.80591 0.38704 0.0
H788 H 0.58103 0.36399 0.64598 0.0
H789 H 0.60671 0.46831 0.57578 0.0
H790 H 0.55882 0.50722 0.61414 0.0
H791 H 0.50441 0.509 0.661 0.0
H792 H 0.47102 0.40253 0.72484 0.0
H793 H 0.52798 0.36704 0.69639 0.0
C794 C 0.57648 0.39543 0.6397 0.0
C795 C 0.59698 0.41348 0.60824 0.0
C796 C 0.5476 0.41701 0.66064 0.0
C797 C 0.59083 0.45397 0.59977 0.0
C798 C 0.5636 0.47613 0.62168 0.0
C799 C 0.51 0.4783 0.66955 0.0
C800 C 0.48347 0.45834 0.69489 0.0
C801 C 0.54104 0.45762 0.65132 0.0
C802 C 0.49103 0.41846 0.7053 0.0
C803 C 0.52337 0.39814 0.68884 0.0
H804 H 0.23458 0.62673 0.61516 0.0
H805 H 0.1991 0.60473 0.73599 0.0
H806 H 0.14204 0.64916 0.7277 0.0
H807 H 0.1048 0.69779 0.68761 0.0
H808 H 0.14412 0.72531 0.56949 0.0
H809 H 0.19668 0.67469 0.57469 0.0
C810 C 0.21414 0.6314 0.63954 0.0
C811 C 0.2211 0.61251 0.67616 0.0
C812 C 0.18196 0.65779 0.63488 0.0
C813 C 0.19458 0.61916 0.70762 0.0
C814 C 0.16186 0.64443 0.70286 0.0
C815 C 0.12438 0.69186 0.66277 0.0
C816 C 0.12036 0.71426 0.6279 0.0
C817 C 0.15555 0.66427 0.66682 0.0
C818 C 0.14648 0.70766 0.59626 0.0
C819 C 0.17662 0.67904 0.5994 0.0
H820 H 0.47854 0.85016 0.90886 0.0
H821 H 0.39179 0.94148 0.88187 0.0
H822 H 0.43533 0.96885 0.83162 0.0
H823 H 0.49992 0.97139 0.79965 0.0
H824 H 0.58956 0.88401 0.82773 0.0
H825 H 0.54264 0.84959 0.87169 0.0
C826 C 0.46929 0.87609 0.89204 0.0
C827 C 0.43204 0.89397 0.8997 0.0
C828 C 0.49469 0.89196 0.86273 0.0
C829 C 0.42029 0.92717 0.87703 0.0
C830 C 0.4451 0.94282 0.848 0.0
C831 C 0.50872 0.94398 0.81437 0.0
C832 C 0.54801 0.93024 0.81044 0.0
C833 C 0.48245 0.92584 0.84098 0.0
C834 C 0.55925 0.89487 0.8298 0.0
C835 C 0.53265 0.87569 0.8556 0.0
H836 H 0.98546 0.98583 0.32954 0.0
H837 H 0.95024 0.08536 0.25634 0.0
H838 H 0.00268 0.12679 0.28697 0.0
H839 H 0.052 0.13691 0.34115 0.0
H840 H 0.0795 0.03878 0.41916 0.0
H841 H 0.03613 0.99456 0.38026 0.0
C842 C 0.98962 0.01633 0.31951 0.0
C843 C 0.96372 0.03258 0.2909 0.0
C844 C 0.01789 0.04044 0.33884 0.0
C845 C 0.96971 0.07218 0.27843 0.0
C846 C -0.00058 0.09595 0.29618 0.0
C847 C 0.04869 0.10572 0.34923 0.0
C848 C 0.06841 0.09104 0.38306 0.0
C849 C 0.02258 0.08081 0.32753 0.0
C850 C 0.06402 0.05073 0.39353 0.0
C851 C 0.03946 0.02544 0.37121 0.0
loop_
_geom_bond_atom_site_label_1
_geom_bond_atom_site_label_2
_geom_bond_distance
_geom_bond_site_symmetry_2
_ccdc_geom_bond_type
O0 Zn1 1.953 . S
O0 C16 1.225 . S
Zn1 O0 1.953 . S
Zn1 O2 1.949 . S
Zn1 O8 1.919 . S
Zn1 O13 1.924 . S
O2 Zn1 1.949 . S
O2 Zn3 1.923 . S
O2 Zn4 1.950 . S
O2 Zn5 1.945 . S
Zn3 O2 1.923 . S
Zn3 O6 1.933 . S
Zn3 O9 1.941 . S
Zn3 O10 1.965 . S
Zn4 O2 1.950 . S
Zn4 O11 1.938 . S
Zn4 O12 1.906 . S
Zn4 O22 1.953 . S
Zn5 O2 1.945 . S
Zn5 O7 1.932 . S
Zn5 O14 1.977 . S
Zn5 O15 1.910 . S
O6 Zn3 1.933 . S
O6 C17 1.226 . S
O7 Zn5 1.932 . S
O7 C17 1.307 . S
O8 Zn1 1.919 . S
O8 C19 1.253 . S
O9 Zn3 1.941 . S
O9 C19 1.283 . S
O10 Zn3 1.965 . S
O10 C18 1.303 . S
O11 Zn4 1.938 . S
O11 C18 1.247 . S
O12 Zn4 1.906 . S
O12 C20 1.304 . S
O13 Zn1 1.924 . S
O13 C21 1.311 . S
O14 Zn5 1.977 . S
O14 C20 1.272 . S
O15 Zn5 1.910 . S
O15 C21 1.231 . S
C16 O0 1.225 . S
C16 O22 1.298 . S
C17 O6 1.226 . S
C17 O7 1.307 . S
C18 O10 1.303 . S
C18 O11 1.247 . S
C19 O8 1.253 . S
C19 O9 1.283 . S
C20 O12 1.304 . S
C20 O14 1.272 . S
C21 O13 1.311 . S
C21 O15 1.231 . S
O22 Zn4 1.953 . S
O22 C16 1.298 . S
O23 Zn24 1.953 . S
O23 C39 1.225 . S
Zn24 O23 1.953 . S
Zn24 O25 1.949 . S
Zn24 O31 1.911 1_455 S
Zn24 O36 1.924 1_455 S
O25 Zn24 1.949 . S
O25 Zn26 1.923 . S
O25 Zn27 1.950 . S
O25 Zn28 1.945 . S
Zn26 O25 1.923 . S
Zn26 O29 1.939 . S
Zn26 O32 1.941 . S
Zn26 O33 1.965 . S
Zn27 O25 1.950 . S
Zn27 O34 1.938 . S
Zn27 O35 1.906 . S
Zn27 O45 1.953 . S
Zn28 O25 1.945 . S
Zn28 O30 1.932 1_455 S
Zn28 O37 1.977 . S
Zn28 O38 1.910 1_455 S
O29 Zn26 1.939 . S
O29 C40 1.221 1_455 S
O30 Zn28 1.932 1_655 S
O30 C40 1.307 . S
O31 Zn24 1.911 1_655 S
O31 C42 1.256 . S
O32 Zn26 1.941 . S
O32 C42 1.283 1_455 S
O33 Zn26 1.965 . S
O33 C41 1.303 . S
O34 Zn27 1.938 . S
O34 C41 1.247 . S
O35 Zn27 1.906 . S
O35 C43 1.304 . S
O36 Zn24 1.924 1_655 S
O36 C44 1.311 . S
O37 Zn28 1.977 . S
O37 C43 1.272 . S
O38 Zn28 1.910 1_655 S
O38 C44 1.231 . S
C39 O23 1.225 . S
C39 O45 1.298 . S
C40 O29 1.221 1_655 S
C40 O30 1.307 . S
C41 O33 1.303 . S
C41 O34 1.247 . S
C42 O31 1.256 . S
C42 O32 1.283 1_655 S
C43 O35 1.304 . S
C43 O37 1.272 . S
C44 O36 1.311 . S
C44 O38 1.231 . S
O45 Zn27 1.953 . S
O45 C39 1.298 . S
O46 Zn47 1.953 . S
O46 C62 1.225 . S
Zn47 O46 1.953 . S
Zn47 O48 1.949 . S
Zn47 O54 1.919 . S
Zn47 O59 1.924 . S
O48 Zn47 1.949 . S
O48 Zn49 1.923 1_556 S
O48 Zn50 1.950 . S
O48 Zn51 1.945 . S
Zn49 O48 1.923 1_554 S
Zn49 O52 1.933 . S
Zn49 O55 1.941 . S
Zn49 O56 1.965 . S
Zn50 O48 1.950 . S
Zn50 O57 1.938 . S
Zn50 O58 1.906 . S
Zn50 O68 1.953 . S
Zn51 O48 1.945 . S
Zn51 O53 1.932 . S
Zn51 O60 1.977 . S
Zn51 O61 1.910 . S
O52 Zn49 1.933 . S
O52 C63 1.226 . S
O53 Zn51 1.932 . S
O53 C63 1.307 1_556 S
O54 Zn47 1.919 . S
O54 C65 1.253 1_556 S
O55 Zn49 1.941 . S
O55 C65 1.283 . S
O56 Zn49 1.965 . S
O56 C64 1.303 . S
O57 Zn50 1.938 . S
O57 C64 1.247 1_556 S
O58 Zn50 1.906 . S
O58 C66 1.304 . S
O59 Zn47 1.924 . S
O59 C67 1.311 . S
O60 Zn51 1.977 . S
O60 C66 1.272 . S
O61 Zn51 1.910 . S
O61 C67 1.231 . S
C62 O46 1.225 . S
C62 O68 1.298 . S
C63 O52 1.226 . S
C63 O53 1.307 1_554 S
C64 O56 1.303 . S
C64 O57 1.247 1_554 S
C65 O54 1.253 1_554 S
C65 O55 1.283 . S
C66 O58 1.304 . S
C66 O60 1.272 . S
C67 O59 1.311 . S
C67 O61 1.231 . S
O68 Zn50 1.953 . S
O68 C62 1.298 . S
O69 Zn70 1.953 . S
O69 C85 1.225 . S
Zn70 O69 1.953 . S
Zn70 O71 1.949 . S
Zn70 O77 1.919 . S
Zn70 O82 1.924 . S
O71 Zn70 1.949 . S
O71 Zn72 1.923 . S
O71 Zn73 1.950 . S
O71 Zn74 1.945 . S
Zn72 O71 1.923 . S
Zn72 O75 1.933 . S
Zn72 O78 1.941 . S
Zn72 O79 1.965 . S
Zn73 O71 1.950 . S
Zn73 O80 1.938 . S
Zn73 O81 1.906 . S
Zn73 O91 1.953 . S
Zn74 O71 1.945 . S
Zn74 O76 1.932 . S
Zn74 O83 1.977 . S
Zn74 O84 1.910 . S
O75 Zn72 1.933 . S
O75 C86 1.226 . S
O76 Zn74 1.932 . S
O76 C86 1.307 . S
O77 Zn70 1.919 . S
O77 C88 1.253 . S
O78 Zn72 1.941 . S
O78 C88 1.283 . S
O79 Zn72 1.965 . S
O79 C87 1.303 . S
O80 Zn73 1.938 . S
O80 C87 1.247 . S
O81 Zn73 1.906 . S
O81 C89 1.304 . S
O82 Zn70 1.924 . S
O82 C90 1.311 . S
O83 Zn74 1.977 . S
O83 C89 1.272 . S
O84 Zn74 1.910 . S
O84 C90 1.231 . S
C85 O69 1.225 . S
C85 O91 1.298 . S
C86 O75 1.226 . S
C86 O76 1.307 . S
C87 O79 1.303 . S
C87 O80 1.247 . S
C88 O77 1.253 . S
C88 O78 1.283 . S
C89 O81 1.304 . S
C89 O83 1.272 . S
C90 O82 1.311 . S
C90 O84 1.231 . S
O91 Zn73 1.953 . S
O91 C85 1.298 . S
O92 Zn93 1.953 . S
O92 C108 1.225 . S
Zn93 O92 1.953 . S
Zn93 O94 1.949 . S
Zn93 O100 1.919 . S
Zn93 O105 1.924 . S
O94 Zn93 1.949 . S
O94 Zn95 1.923 . S
O94 Zn96 1.950 . S
O94 Zn97 1.945 . S
Zn95 O94 1.923 . S
Zn95 O98 1.933 . S
Zn95 O101 1.941 . S
Zn95 O102 1.965 . S
Zn96 O94 1.950 . S
Zn96 O103 1.938 . S
Zn96 O104 1.906 . S
Zn96 O114 1.953 . S
Zn97 O94 1.945 . S
Zn97 O99 1.932 . S
Zn97 O106 1.977 . S
Zn97 O107 1.910 . S
O98 Zn95 1.933 . S
O98 C109 1.226 . S
O99 Zn97 1.932 . S
O99 C109 1.307 . S
O100 Zn93 1.919 . S
O100 C111 1.253 . S
O101 Zn95 1.941 . S
O101 C111 1.283 . S
O102 Zn95 1.965 . S
O102 C110 1.303 . S
O103 Zn96 1.938 . S
O103 C110 1.247 . S
O104 Zn96 1.906 . S
O104 C112 1.304 . S
O105 Zn93 1.924 . S
O105 C113 1.311 . S
O106 Zn97 1.977 . S
O106 C112 1.272 . S
O107 Zn97 1.910 . S
O107 C113 1.231 . S
C108 O92 1.225 . S
C108 O114 1.298 . S
C109 O98 1.226 . S
C109 O99 1.307 . S
C110 O102 1.303 . S
C110 O103 1.247 . S
C111 O100 1.253 . S
C111 O101 1.283 . S
C112 O104 1.304 . S
C112 O106 1.272 . S
C113 O105 1.311 . S
C113 O107 1.231 . S
O114 Zn96 1.953 . S
O114 C108 1.298 . S
O115 Zn116 1.953 . S
O115 C131 1.225 . S
Zn116 O115 1.953 . S
Zn116 O117 1.949 . S
Zn116 O123 1.919 . S
Zn116 O128 1.924 1_655 S
O117 Zn116 1.949 . S
O117 Zn118 1.923 . S
O117 Zn119 1.950 . S
O117 Zn120 1.945 . S
Zn118 O117 1.923 . S
Zn118 O121 1.933 . S
Zn118 O124 1.941 . S
Zn118 O125 1.965 . S
Zn119 O117 1.950 . S
Zn119 O126 1.938 . S
Zn119 O127 1.906 . S
Zn119 O137 1.953 . S
Zn120 O117 1.945 . S
Zn120 O122 1.932 1_655 S
Zn120 O129 1.977 . S
Zn120 O130 1.910 1_655 S
O121 Zn118 1.933 . S
O121 C132 1.226 1_655 S
O122 Zn120 1.932 1_455 S
O122 C132 1.307 . S
O123 Zn116 1.919 . S
O123 C134 1.253 1_655 S
O124 Zn118 1.941 . S
O124 C134 1.283 1_655 S
O125 Zn118 1.965 . S
O125 C133 1.303 . S
O126 Zn119 1.938 . S
O126 C133 1.247 . S
O127 Zn119 1.906 . S
O127 C135 1.304 . S
O128 Zn116 1.924 1_455 S
O128 C136 1.311 . S
O129 Zn120 1.977 . S
O129 C135 1.272 . S
O130 Zn120 1.910 1_455 S
O130 C136 1.231 . S
C131 O115 1.225 . S
C131 O137 1.298 . S
C132 O121 1.226 1_455 S
C132 O122 1.307 . S
C133 O125 1.303 . S
C133 O126 1.247 . S
C134 O123 1.253 1_455 S
C134 O124 1.283 1_455 S
C135 O127 1.304 . S
C135 O129 1.272 . S
C136 O128 1.311 . S
C136 O130 1.231 . S
O137 Zn119 1.953 . S
O137 C131 1.298 . S
O138 Zn139 1.953 . S
O138 C154 1.225 . S
Zn139 O138 1.953 . S
Zn139 O140 1.949 . S
Zn139 O146 1.919 . S
Zn139 O151 1.924 . S
O140 Zn139 1.949 . S
O140 Zn141 1.923 1_554 S
O140 Zn142 1.950 . S
O140 Zn143 1.945 . S
Zn141 O140 1.923 1_556 S
Zn141 O144 1.933 . S
Zn141 O147 1.941 . S
Zn141 O148 1.965 . S
Zn142 O140 1.950 . S
Zn142 O149 1.938 . S
Zn142 O150 1.906 . S
Zn142 O160 1.953 . S
Zn143 O140 1.945 . S
Zn143 O145 1.932 . S
Zn143 O152 1.977 . S
Zn143 O153 1.910 . S
O144 Zn141 1.933 . S
O144 C155 1.226 . S
O145 Zn143 1.932 . S
O145 C155 1.307 1_554 S
O146 Zn139 1.919 . S
O146 C157 1.253 1_554 S
O147 Zn141 1.941 . S
O147 C157 1.283 . S
O148 Zn141 1.965 . S
O148 C156 1.303 . S
O149 Zn142 1.938 . S
O149 C156 1.247 1_554 S
O150 Zn142 1.906 . S
O150 C158 1.304 . S
O151 Zn139 1.924 . S
O151 C159 1.311 . S
O152 Zn143 1.977 . S
O152 C158 1.272 . S
O153 Zn143 1.910 . S
O153 C159 1.231 . S
C154 O138 1.225 . S
C154 O160 1.298 . S
C155 O144 1.226 . S
C155 O145 1.307 1_556 S
C156 O148 1.303 . S
C156 O149 1.247 1_556 S
C157 O146 1.253 1_556 S
C157 O147 1.283 . S
C158 O150 1.304 . S
C158 O152 1.272 . S
C159 O151 1.311 . S
C159 O153 1.231 . S
O160 Zn142 1.953 . S
O160 C154 1.298 . S
O161 Zn162 1.953 . S
O161 C177 1.225 . S
Zn162 O161 1.953 . S
Zn162 O163 1.949 . S
Zn162 O169 1.919 . S
Zn162 O174 1.924 . S
O163 Zn162 1.949 . S
O163 Zn164 1.923 . S
O163 Zn165 1.950 . S
O163 Zn166 1.945 . S
Zn164 O163 1.923 . S
Zn164 O167 1.933 . S
Zn164 O170 1.941 . S
Zn164 O171 1.965 . S
Zn165 O163 1.950 . S
Zn165 O172 1.938 . S
Zn165 O173 1.906 . S
Zn165 O183 1.953 . S
Zn166 O163 1.945 . S
Zn166 O168 1.932 . S
Zn166 O175 1.977 . S
Zn166 O176 1.910 . S
O167 Zn164 1.933 . S
O167 C178 1.226 . S
O168 Zn166 1.932 . S
O168 C178 1.307 . S
O169 Zn162 1.919 . S
O169 C180 1.253 . S
O170 Zn164 1.941 . S
O170 C180 1.283 . S
O171 Zn164 1.965 . S
O171 C179 1.303 . S
O172 Zn165 1.938 . S
O172 C179 1.247 . S
O173 Zn165 1.906 . S
O173 C181 1.304 . S
O174 Zn162 1.924 . S
O174 C182 1.311 . S
O175 Zn166 1.977 . S
O175 C181 1.272 . S
O176 Zn166 1.910 . S
O176 C182 1.231 . S
C177 O161 1.225 . S
C177 O183 1.298 . S
C178 O167 1.226 . S
C178 O168 1.307 . S
C179 O171 1.303 . S
C179 O172 1.247 . S
C180 O169 1.253 . S
C180 O170 1.283 . S
C181 O173 1.304 . S
C181 O175 1.272 . S
C182 O174 1.311 . S
C182 O176 1.231 . S
O183 Zn165 1.953 . S
O183 C177 1.298 . S
O184 Zn185 1.953 . S
O184 C200 1.225 . S
Zn185 O184 1.953 . S
Zn185 O186 1.949 . S
Zn185 O192 1.919 . S
Zn185 O197 1.924 . S
O186 Zn185 1.949 . S
O186 Zn187 1.923 . S
O186 Zn188 1.950 . S
O186 Zn189 1.945 . S
Zn187 O186 1.923 . S
Zn187 O190 1.933 . S
Zn187 O193 1.941 . S
Zn187 O194 1.965 . S
Zn188 O186 1.950 . S
Zn188 O195 1.938 . S
Zn188 O196 1.906 . S
Zn188 O206 1.953 . S
Zn189 O186 1.945 . S
Zn189 O191 1.932 . S
Zn189 O198 1.977 . S
Zn189 O199 1.910 . S
O190 Zn187 1.933 . S
O190 C201 1.226 . S
O191 Zn189 1.932 . S
O191 C201 1.307 . S
O192 Zn185 1.919 . S
O192 C203 1.253 . S
O193 Zn187 1.941 . S
O193 C203 1.283 . S
O194 Zn187 1.965 . S
O194 C202 1.303 . S
O195 Zn188 1.938 . S
O195 C202 1.247 . S
O196 Zn188 1.906 . S
O196 C204 1.304 . S
O197 Zn185 1.924 . S
O197 C205 1.311 . S
O198 Zn189 1.977 . S
O198 C204 1.272 . S
O199 Zn189 1.910 . S
O199 C205 1.231 . S
C200 O184 1.225 . S
C200 O206 1.298 . S
C201 O190 1.226 . S
C201 O191 1.307 . S
C202 O194 1.303 . S
C202 O195 1.247 . S
C203 O192 1.253 . S
C203 O193 1.283 . S
C204 O196 1.304 . S
C204 O198 1.272 . S
C205 O197 1.311 . S
C205 O199 1.231 . S
O206 Zn188 1.953 . S
O206 C200 1.298 . S
O207 Zn208 1.953 . S
O207 C223 1.225 1_545 S
Zn208 O207 1.953 . S
Zn208 O209 1.949 . S
Zn208 O215 1.919 . S
Zn208 O220 1.924 . S
O209 Zn208 1.949 . S
O209 Zn210 1.923 . S
O209 Zn211 1.950 . S
O209 Zn212 1.945 . S
Zn210 O209 1.923 . S
Zn210 O213 1.933 . S
Zn210 O216 1.941 . S
Zn210 O217 1.965 . S
Zn211 O209 1.950 . S
Zn211 O218 1.938 . S
Zn211 O219 1.906 1_545 S
Zn211 O229 1.953 1_545 S
Zn212 O209 1.945 . S
Zn212 O214 1.932 . S
Zn212 O221 1.977 1_545 S
Zn212 O222 1.910 1_545 S
O213 Zn210 1.933 . S
O213 C224 1.226 . S
O214 Zn212 1.932 . S
O214 C224 1.307 . S
O215 Zn208 1.919 . S
O215 C226 1.253 . S
O216 Zn210 1.941 . S
O216 C226 1.283 . S
O217 Zn210 1.965 . S
O217 C225 1.303 . S
O218 Zn211 1.938 . S
O218 C225 1.247 . S
O219 Zn211 1.906 1_565 S
O219 C227 1.304 . S
O220 Zn208 1.924 . S
O220 C228 1.311 1_545 S
O221 Zn212 1.977 1_565 S
O221 C227 1.272 . S
O222 Zn212 1.910 1_565 S
O222 C228 1.231 . S
C223 O207 1.225 1_565 S
C223 O229 1.298 . S
C224 O213 1.226 . S
C224 O214 1.307 . S
C225 O217 1.303 . S
C225 O218 1.247 . S
C226 O215 1.253 . S
C226 O216 1.283 . S
C227 O219 1.304 . S
C227 O221 1.272 . S
C228 O220 1.311 1_565 S
C228 O222 1.231 . S
O229 Zn211 1.953 1_565 S
O229 C223 1.298 . S
O230 Zn231 1.953 . S
O230 C246 1.225 . S
Zn231 O230 1.953 . S
Zn231 O232 1.949 . S
Zn231 O238 1.919 . S
Zn231 O243 1.924 . S
O232 Zn231 1.949 . S
O232 Zn233 1.923 1_565 S
O232 Zn234 1.950 . S
O232 Zn235 1.945 . S
Zn233 O232 1.923 1_545 S
Zn233 O236 1.933 . S
Zn233 O239 1.941 . S
Zn233 O240 1.965 . S
Zn234 O232 1.950 . S
Zn234 O241 1.938 . S
Zn234 O242 1.906 . S
Zn234 O252 1.953 . S
Zn235 O232 1.945 . S
Zn235 O237 1.932 . S
Zn235 O244 1.977 . S
Zn235 O245 1.910 . S
O236 Zn233 1.933 . S
O236 C247 1.226 . S
O237 Zn235 1.932 . S
O237 C247 1.307 1_565 S
O238 Zn231 1.919 . S
O238 C249 1.253 1_565 S
O239 Zn233 1.941 . S
O239 C249 1.283 . S
O240 Zn233 1.965 . S
O240 C248 1.303 . S
O241 Zn234 1.938 . S
O241 C248 1.247 1_565 S
O242 Zn234 1.906 . S
O242 C250 1.304 . S
O243 Zn231 1.924 . S
O243 C251 1.311 . S
O244 Zn235 1.977 . S
O244 C250 1.272 . S
O245 Zn235 1.910 . S
O245 C251 1.231 . S
C246 O230 1.225 . S
C246 O252 1.298 . S
C247 O236 1.226 . S
C247 O237 1.307 1_545 S
C248 O240 1.303 . S
C248 O241 1.247 1_545 S
C249 O238 1.253 1_545 S
C249 O239 1.283 . S
C250 O242 1.304 . S
C250 O244 1.272 . S
C251 O243 1.311 . S
C251 O245 1.231 . S
O252 Zn234 1.953 . S
O252 C246 1.298 . S
O253 Zn254 1.953 . S
O253 C269 1.225 . S
Zn254 O253 1.953 . S
Zn254 O255 1.949 . S
Zn254 O261 1.919 . S
Zn254 O266 1.924 . S
O255 Zn254 1.949 . S
O255 Zn256 1.923 . S
O255 Zn257 1.950 . S
O255 Zn258 1.945 . S
Zn256 O255 1.923 . S
Zn256 O259 1.933 . S
Zn256 O262 1.941 . S
Zn256 O263 1.965 . S
Zn257 O255 1.950 . S
Zn257 O264 1.938 . S
Zn257 O265 1.906 . S
Zn257 O275 1.953 . S
Zn258 O255 1.945 . S
Zn258 O260 1.932 . S
Zn258 O267 1.977 . S
Zn258 O268 1.910 . S
O259 Zn256 1.933 . S
O259 C270 1.226 . S
O260 Zn258 1.932 . S
O260 C270 1.307 . S
O261 Zn254 1.919 . S
O261 C272 1.253 . S
O262 Zn256 1.941 . S
O262 C272 1.283 . S
O263 Zn256 1.965 . S
O263 C271 1.303 . S
O264 Zn257 1.938 . S
O264 C271 1.247 . S
O265 Zn257 1.906 . S
O265 C273 1.304 . S
O266 Zn254 1.924 . S
O266 C274 1.311 . S
O267 Zn258 1.977 . S
O267 C273 1.272 . S
O268 Zn258 1.910 . S
O268 C274 1.231 . S
C269 O253 1.225 . S
C269 O275 1.298 . S
C270 O259 1.226 . S
C270 O260 1.307 . S
C271 O263 1.303 . S
C271 O264 1.247 . S
C272 O261 1.253 . S
C272 O262 1.283 . S
C273 O265 1.304 . S
C273 O267 1.272 . S
C274 O266 1.311 . S
C274 O268 1.231 . S
O275 Zn257 1.953 . S
O275 C269 1.298 . S
H276 C282 0.930 . S
H277 C285 0.930 . S
H278 C286 0.930 . S
H279 C287 0.930 . S
H280 C290 0.930 . S
H281 C291 0.930 . S
C282 H276 0.930 . S
C282 C283 1.355 . S
C282 C284 1.415 . S
C283 C282 1.355 . S
C283 C285 1.419 . S
C284 C282 1.415 . S
C284 C289 1.425 . S
C284 C291 1.409 . S
C285 H277 0.930 . S
C285 C283 1.419 . S
C285 C286 1.362 . S
C286 H278 0.930 . S
C286 C285 1.362 . S
C286 C289 1.409 . S
C287 H279 0.930 . S
C287 C288 1.355 . S
C287 C289 1.415 . S
C288 C287 1.355 . S
C288 C290 1.419 . S
C289 C284 1.425 . S
C289 C286 1.409 . S
C289 C287 1.415 . S
C290 H280 0.930 . S
C290 C288 1.419 . S
C290 C291 1.362 . S
C291 H281 0.930 . S
C291 C284 1.409 . S
C291 C290 1.362 . S
H292 C298 0.930 . S
H293 C301 0.930 . S
H294 C302 0.930 . S
H295 C303 0.930 . S
H296 C306 0.930 . S
H297 C307 0.930 . S
C298 H292 0.930 . S
C298 C299 1.355 . S
C298 C300 1.415 . S
C299 C298 1.355 . S
C299 C301 1.419 1_565 S
C300 C298 1.415 . S
C300 C305 1.425 . S
C300 C307 1.409 . S
C301 H293 0.930 . S
C301 C299 1.419 1_545 S
C301 C302 1.362 . S
C302 H294 0.930 . S
C302 C301 1.362 . S
C302 C305 1.409 1_545 S
C303 H295 0.930 . S
C303 C304 1.355 . S
C303 C305 1.415 . S
C304 C303 1.355 . S
C304 C306 1.419 . S
C305 C300 1.425 . S
C305 C302 1.409 1_565 S
C305 C303 1.415 . S
C306 H296 0.930 . S
C306 C304 1.419 . S
C306 C307 1.362 . S
C307 H297 0.930 . S
C307 C300 1.409 . S
C307 C306 1.362 . S
H308 C314 0.930 . S
H309 C317 0.930 . S
H310 C318 0.930 . S
H311 C319 0.930 1_556 S
H312 C322 0.930 . S
H313 C323 0.930 . S
C314 H308 0.930 . S
C314 C315 1.355 . S
C314 C316 1.415 . S
C315 C314 1.355 . S
C315 C317 1.419 1_554 S
C316 C314 1.415 . S
C316 C321 1.425 . S
C316 C323 1.409 . S
C317 H309 0.930 . S
C317 C315 1.419 1_556 S
C317 C318 1.362 . S
C318 H310 0.930 . S
C318 C317 1.362 . S
C318 C321 1.409 1_556 S
C319 H311 0.930 1_554 S
C319 C320 1.355 . S
C319 C321 1.415 . S
C320 C319 1.355 . S
C320 C322 1.419 . S
C321 C316 1.425 . S
C321 C318 1.409 1_554 S
C321 C319 1.415 . S
C322 H312 0.930 . S
C322 C320 1.419 . S
C322 C323 1.362 . S
C323 H313 0.930 . S
C323 C316 1.409 . S
C323 C322 1.362 . S
H324 C330 0.930 . S
H325 C333 0.930 . S
H326 C334 0.930 . S
H327 C335 0.930 . S
H328 C338 0.930 . S
H329 C339 0.930 . S
C330 H324 0.930 . S
C330 C331 1.355 . S
C330 C332 1.415 . S
C331 C330 1.355 . S
C331 C333 1.419 . S
C332 C330 1.415 . S
C332 C337 1.425 . S
C332 C339 1.409 . S
C333 H325 0.930 . S
C333 C331 1.419 . S
C333 C334 1.362 . S
C334 H326 0.930 . S
C334 C333 1.362 . S
C334 C337 1.409 . S
C335 H327 0.930 . S
C335 C336 1.355 . S
C335 C337 1.415 . S
C336 C335 1.355 . S
C336 C338 1.419 . S
C337 C332 1.425 . S
C337 C334 1.409 . S
C337 C335 1.415 . S
C338 H328 0.930 . S
C338 C336 1.419 . S
C338 C339 1.362 . S
C339 H329 0.930 . S
C339 C332 1.409 . S
C339 C338 1.362 . S
H340 C346 0.930 . S
H341 C349 0.930 . S
H342 C350 0.930 . S
H343 C351 0.930 . S
H344 C354 0.930 . S
H345 C355 0.930 . S
C346 H340 0.930 . S
C346 C347 1.355 . S
C346 C348 1.415 . S
C347 C346 1.355 . S
C347 C349 1.419 . S
C348 C346 1.415 . S
C348 C353 1.425 . S
C348 C355 1.409 . S
C349 H341 0.930 . S
C349 C347 1.419 . S
C349 C350 1.362 . S
C350 H342 0.930 . S
C350 C349 1.362 . S
C350 C353 1.409 . S
C351 H343 0.930 . S
C351 C352 1.355 . S
C351 C353 1.415 . S
C352 C351 1.355 . S
C352 C354 1.419 . S
C353 C348 1.425 . S
C353 C350 1.409 . S
C353 C351 1.415 . S
C354 H344 0.930 . S
C354 C352 1.419 . S
C354 C355 1.362 . S
C355 H345 0.930 . S
C355 C348 1.409 . S
C355 C354 1.362 . S
H356 C362 0.930 . S
H357 C365 0.930 . S
H358 C366 0.930 . S
H359 C367 0.930 . S
H360 C370 0.930 . S
H361 C371 0.930 . S
C362 H356 0.930 . S
C362 C363 1.355 . S
C362 C364 1.415 . S
C363 C362 1.355 . S
C363 C365 1.419 . S
C364 C362 1.415 . S
C364 C369 1.425 . S
C364 C371 1.409 . S
C365 H357 0.930 . S
C365 C363 1.419 . S
C365 C366 1.362 . S
C366 H358 0.930 . S
C366 C365 1.362 . S
C366 C369 1.409 . S
C367 H359 0.930 . S
C367 C368 1.355 . S
C367 C369 1.415 . S
C368 C367 1.355 . S
C368 C370 1.419 . S
C369 C364 1.425 . S
C369 C366 1.409 . S
C369 C367 1.415 . S
C370 H360 0.930 . S
C370 C368 1.419 . S
C370 C371 1.362 . S
C371 H361 0.930 . S
C371 C364 1.409 . S
C371 C370 1.362 . S
H372 C378 0.930 . S
H373 C381 0.930 . S
H374 C382 0.930 1_554 S
H375 C383 0.930 1_554 S
H376 C386 0.930 . S
H377 C387 0.930 . S
C378 H372 0.930 . S
C378 C379 1.355 . S
C378 C380 1.415 . S
C379 C378 1.355 . S
C379 C381 1.419 . S
C380 C378 1.415 . S
C380 C385 1.425 . S
C380 C387 1.409 . S
C381 H373 0.930 . S
C381 C379 1.419 . S
C381 C382 1.362 . S
C382 H374 0.930 1_556 S
C382 C381 1.362 . S
C382 C385 1.409 . S
C383 H375 0.930 1_556 S
C383 C384 1.355 . S
C383 C385 1.415 . S
C384 C383 1.355 . S
C384 C386 1.419 . S
C385 C380 1.425 . S
C385 C382 1.409 . S
C385 C383 1.415 . S
C386 H376 0.930 . S
C386 C384 1.419 . S
C386 C387 1.362 . S
C387 H377 0.930 . S
C387 C380 1.409 . S
C387 C386 1.362 . S
H388 C394 0.930 . S
H389 C397 0.930 . S
H390 C398 0.930 . S
H391 C399 0.930 . S
H392 C402 0.930 . S
H393 C403 0.930 . S
C394 H388 0.930 . S
C394 C395 1.355 . S
C394 C396 1.415 . S
C395 C394 1.355 . S
C395 C397 1.419 . S
C396 C394 1.415 . S
C396 C401 1.425 . S
C396 C403 1.409 . S
C397 H389 0.930 . S
C397 C395 1.419 . S
C397 C398 1.362 . S
C398 H390 0.930 . S
C398 C397 1.362 . S
C398 C401 1.409 . S
C399 H391 0.930 . S
C399 C400 1.355 . S
C399 C401 1.415 . S
C400 C399 1.355 . S
C400 C402 1.419 . S
C401 C396 1.425 . S
C401 C398 1.409 . S
C401 C399 1.415 . S
C402 H392 0.930 . S
C402 C400 1.419 . S
C402 C403 1.362 . S
C403 H393 0.930 . S
C403 C396 1.409 . S
C403 C402 1.362 . S
H404 C410 0.930 . S
H405 C413 0.930 . S
H406 C414 0.930 . S
H407 C415 0.930 . S
H408 C418 0.930 . S
H409 C419 0.930 . S
C410 H404 0.930 . S
C410 C411 1.355 . S
C410 C412 1.415 . S
C411 C410 1.355 . S
C411 C413 1.419 . S
C412 C410 1.415 . S
C412 C417 1.425 . S
C412 C419 1.409 . S
C413 H405 0.930 . S
C413 C411 1.419 . S
C413 C414 1.362 . S
C414 H406 0.930 . S
C414 C413 1.362 . S
C414 C417 1.409 . S
C415 H407 0.930 . S
C415 C416 1.355 . S
C415 C417 1.415 . S
C416 C415 1.355 . S
C416 C418 1.419 . S
C417 C412 1.425 . S
C417 C414 1.409 . S
C417 C415 1.415 . S
C418 H408 0.930 . S
C418 C416 1.419 . S
C418 C419 1.362 . S
C419 H409 0.930 . S
C419 C412 1.409 . S
C419 C418 1.362 . S
H420 C426 0.930 . S
H421 C429 0.930 . S
H422 C430 0.930 . S
H423 C431 0.930 . S
H424 C434 0.930 . S
H425 C435 0.930 . S
C426 H420 0.930 . S
C426 C427 1.355 . S
C426 C428 1.415 . S
C427 C426 1.355 . S
C427 C429 1.419 1_455 S
C428 C426 1.415 . S
C428 C433 1.425 . S
C428 C435 1.409 . S
C429 H421 0.930 . S
C429 C427 1.419 1_655 S
C429 C430 1.362 . S
C430 H422 0.930 . S
C430 C429 1.362 . S
C430 C433 1.409 1_655 S
C431 H423 0.930 . S
C431 C432 1.355 1_655 S
C431 C433 1.415 1_655 S
C432 C431 1.355 1_455 S
C432 C434 1.419 . S
C433 C428 1.425 . S
C433 C430 1.409 1_455 S
C433 C431 1.415 1_455 S
C434 H424 0.930 . S
C434 C432 1.419 . S
C434 C435 1.362 . S
C435 H425 0.930 . S
C435 C428 1.409 . S
C435 C434 1.362 . S
H436 C442 0.930 1_455 S
H437 C445 0.930 . S
H438 C446 0.930 . S
H439 C447 0.930 . S
H440 C450 0.930 1_455 S
H441 C451 0.930 . S
C442 H436 0.930 1_655 S
C442 C443 1.355 . S
C442 C444 1.415 . S
C443 C442 1.355 . S
C443 C445 1.419 . S
C444 C442 1.415 . S
C444 C449 1.425 . S
C444 C451 1.409 1_655 S
C445 H437 0.930 . S
C445 C443 1.419 . S
C445 C446 1.362 . S
C446 H438 0.930 . S
C446 C445 1.362 . S
C446 C449 1.409 . S
C447 H439 0.930 . S
C447 C448 1.355 . S
C447 C449 1.415 . S
C448 C447 1.355 . S
C448 C450 1.419 . S
C449 C444 1.425 . S
C449 C446 1.409 . S
C449 C447 1.415 . S
C450 H440 0.930 1_655 S
C450 C448 1.419 . S
C450 C451 1.362 1_655 S
C451 H441 0.930 . S
C451 C444 1.409 1_455 S
C451 C450 1.362 1_455 S
H452 C458 0.930 . S
H453 C461 0.930 . S
H454 C462 0.930 . S
H455 C463 0.930 . S
H456 C466 0.930 . S
H457 C467 0.930 . S
C458 H452 0.930 . S
C458 C459 1.355 . S
C458 C460 1.415 . S
C459 C458 1.355 . S
C459 C461 1.419 . S
C460 C458 1.415 . S
C460 C465 1.425 . S
C460 C467 1.409 . S
C461 H453 0.930 . S
C461 C459 1.419 . S
C461 C462 1.362 . S
C462 H454 0.930 . S
C462 C461 1.362 . S
C462 C465 1.409 . S
C463 H455 0.930 . S
C463 C464 1.355 . S
C463 C465 1.415 . S
C464 C463 1.355 . S
C464 C466 1.419 . S
C465 C460 1.425 . S
C465 C462 1.409 . S
C465 C463 1.415 . S
C466 H456 0.930 . S
C466 C464 1.419 . S
C466 C467 1.362 . S
C467 H457 0.930 . S
C467 C460 1.409 . S
C467 C466 1.362 . S
H468 C474 0.930 . S
H469 C477 0.930 . S
H470 C478 0.930 . S
H471 C479 0.930 . S
H472 C482 0.930 . S
H473 C483 0.930 . S
C474 H468 0.930 . S
C474 C475 1.355 . S
C474 C476 1.415 . S
C475 C474 1.355 . S
C475 C477 1.419 . S
C476 C474 1.415 . S
C476 C481 1.425 . S
C476 C483 1.409 . S
C477 H469 0.930 . S
C477 C475 1.419 . S
C477 C478 1.362 . S
C478 H470 0.930 . S
C478 C477 1.362 . S
C478 C481 1.409 . S
C479 H471 0.930 . S
C479 C480 1.355 . S
C479 C481 1.415 . S
C480 C479 1.355 . S
C480 C482 1.419 . S
C481 C476 1.425 . S
C481 C478 1.409 . S
C481 C479 1.415 . S
C482 H472 0.930 . S
C482 C480 1.419 . S
C482 C483 1.362 . S
C483 H473 0.930 . S
C483 C476 1.409 . S
C483 C482 1.362 . S
H484 C490 0.930 . S
H485 C493 0.930 1_455 S
H486 C494 0.930 . S
H487 C495 0.930 . S
H488 C498 0.930 . S
H489 C499 0.930 . S
C490 H484 0.930 . S
C490 C491 1.355 . S
C490 C492 1.415 . S
C491 C490 1.355 . S
C491 C493 1.419 . S
C492 C490 1.415 . S
C492 C497 1.425 . S
C492 C499 1.409 . S
C493 H485 0.930 1_655 S
C493 C491 1.419 . S
C493 C494 1.362 . S
C494 H486 0.930 . S
C494 C493 1.362 . S
C494 C497 1.409 . S
C495 H487 0.930 . S
C495 C496 1.355 . S
C495 C497 1.415 . S
C496 C495 1.355 . S
C496 C498 1.419 . S
C497 C492 1.425 . S
C497 C494 1.409 . S
C497 C495 1.415 . S
C498 H488 0.930 . S
C498 C496 1.419 . S
C498 C499 1.362 . S
C499 H489 0.930 . S
C499 C492 1.409 . S
C499 C498 1.362 . S
H500 C506 0.930 . S
H501 C509 0.930 . S
H502 C510 0.930 . S
H503 C511 0.930 . S
H504 C514 0.930 . S
H505 C515 0.930 . S
C506 H500 0.930 . S
C506 C507 1.355 . S
C506 C508 1.415 . S
C507 C506 1.355 . S
C507 C509 1.419 . S
C508 C506 1.415 . S
C508 C513 1.425 . S
C508 C515 1.409 . S
C509 H501 0.930 . S
C509 C507 1.419 . S
C509 C510 1.362 . S
C510 H502 0.930 . S
C510 C509 1.362 . S
C510 C513 1.409 . S
C511 H503 0.930 . S
C511 C512 1.355 . S
C511 C513 1.415 . S
C512 C511 1.355 . S
C512 C514 1.419 . S
C513 C508 1.425 . S
C513 C510 1.409 . S
C513 C511 1.415 . S
C514 H504 0.930 . S
C514 C512 1.419 . S
C514 C515 1.362 . S
C515 H505 0.930 . S
C515 C508 1.409 . S
C515 C514 1.362 . S
H516 C522 0.930 . S
H517 C525 0.930 . S
H518 C526 0.930 . S
H519 C527 0.930 . S
H520 C530 0.930 . S
H521 C531 0.930 . S
C522 H516 0.930 . S
C522 C523 1.355 . S
C522 C524 1.415 . S
C523 C522 1.355 . S
C523 C525 1.419 . S
C524 C522 1.415 . S
C524 C529 1.425 . S
C524 C531 1.409 1_554 S
C525 H517 0.930 . S
C525 C523 1.419 . S
C525 C526 1.362 . S
C526 H518 0.930 . S
C526 C525 1.362 . S
C526 C529 1.409 . S
C527 H519 0.930 . S
C527 C528 1.355 . S
C527 C529 1.415 1_556 S
C528 C527 1.355 . S
C528 C530 1.419 . S
C529 C524 1.425 . S
C529 C526 1.409 . S
C529 C527 1.415 1_554 S
C530 H520 0.930 . S
C530 C528 1.419 . S
C530 C531 1.362 . S
C531 H521 0.930 . S
C531 C524 1.409 1_556 S
C531 C530 1.362 . S
H532 C538 0.930 . S
H533 C541 0.930 . S
H534 C542 0.930 . S
H535 C543 0.930 . S
H536 C546 0.930 . S
H537 C547 0.930 . S
C538 H532 0.930 . S
C538 C539 1.355 . S
C538 C540 1.415 . S
C539 C538 1.355 . S
C539 C541 1.419 . S
C540 C538 1.415 . S
C540 C545 1.425 . S
C540 C547 1.409 . S
C541 H533 0.930 . S
C541 C539 1.419 . S
C541 C542 1.362 . S
C542 H534 0.930 . S
C542 C541 1.362 . S
C542 C545 1.409 . S
C543 H535 0.930 . S
C543 C544 1.355 . S
C543 C545 1.415 . S
C544 C543 1.355 . S
C544 C546 1.419 . S
C545 C540 1.425 . S
C545 C542 1.409 . S
C545 C543 1.415 . S
C546 H536 0.930 . S
C546 C544 1.419 . S
C546 C547 1.362 . S
C547 H537 0.930 . S
C547 C540 1.409 . S
C547 C546 1.362 . S
H548 C554 0.930 . S
H549 C557 0.930 . S
H550 C558 0.930 . S
H551 C559 0.930 . S
H552 C562 0.930 . S
H553 C563 0.930 . S
C554 H548 0.930 . S
C554 C555 1.355 . S
C554 C556 1.415 1_554 S
C555 C554 1.355 . S
C555 C557 1.419 . S
C556 C554 1.415 1_556 S
C556 C561 1.425 . S
C556 C563 1.409 . S
C557 H549 0.930 . S
C557 C555 1.419 . S
C557 C558 1.362 1_554 S
C558 H550 0.930 . S
C558 C557 1.362 1_556 S
C558 C561 1.409 . S
C559 H551 0.930 . S
C559 C560 1.355 . S
C559 C561 1.415 . S
C560 C559 1.355 . S
C560 C562 1.419 . S
C561 C556 1.425 . S
C561 C558 1.409 . S
C561 C559 1.415 . S
C562 H552 0.930 . S
C562 C560 1.419 . S
C562 C563 1.362 . S
C563 H553 0.930 . S
C563 C556 1.409 . S
C563 C562 1.362 . S
H564 C570 0.930 . S
H565 C573 0.930 . S
H566 C574 0.930 . S
H567 C575 0.930 . S
H568 C578 0.930 . S
H569 C579 0.930 . S
C570 H564 0.930 . S
C570 C571 1.355 . S
C570 C572 1.415 . S
C571 C570 1.355 . S
C571 C573 1.419 . S
C572 C570 1.415 . S
C572 C577 1.425 . S
C572 C579 1.409 . S
C573 H565 0.930 . S
C573 C571 1.419 . S
C573 C574 1.362 . S
C574 H566 0.930 . S
C574 C573 1.362 . S
C574 C577 1.409 . S
C575 H567 0.930 . S
C575 C576 1.355 . S
C575 C577 1.415 . S
C576 C575 1.355 . S
C576 C578 1.419 . S
C577 C572 1.425 . S
C577 C574 1.409 . S
C577 C575 1.415 . S
C578 H568 0.930 . S
C578 C576 1.419 . S
C578 C579 1.362 . S
C579 H569 0.930 . S
C579 C572 1.409 . S
C579 C578 1.362 . S
H580 C586 0.930 . S
H581 C589 0.930 . S
H582 C590 0.930 . S
H583 C591 0.930 . S
H584 C594 0.930 . S
H585 C595 0.930 . S
C586 H580 0.930 . S
C586 C587 1.355 . S
C586 C588 1.415 . S
C587 C586 1.355 . S
C587 C589 1.419 . S
C588 C586 1.415 . S
C588 C593 1.425 . S
C588 C595 1.409 . S
C589 H581 0.930 . S
C589 C587 1.419 . S
C589 C590 1.362 . S
C590 H582 0.930 . S
C590 C589 1.362 . S
C590 C593 1.409 . S
C591 H583 0.930 . S
C591 C592 1.355 . S
C591 C593 1.415 . S
C592 C591 1.355 . S
C592 C594 1.419 . S
C593 C588 1.425 . S
C593 C590 1.409 . S
C593 C591 1.415 . S
C594 H584 0.930 . S
C594 C592 1.419 . S
C594 C595 1.362 . S
C595 H585 0.930 . S
C595 C588 1.409 . S
C595 C594 1.362 . S
H596 C602 0.930 . S
H597 C605 0.930 . S
H598 C606 0.930 . S
H599 C607 0.930 . S
H600 C610 0.930 . S
H601 C611 0.930 . S
C602 H596 0.930 . S
C602 C603 1.355 . S
C602 C604 1.415 . S
C603 C602 1.355 . S
C603 C605 1.419 . S
C604 C602 1.415 . S
C604 C609 1.425 . S
C604 C611 1.409 . S
C605 H597 0.930 . S
C605 C603 1.419 . S
C605 C606 1.362 . S
C606 H598 0.930 . S
C606 C605 1.362 . S
C606 C609 1.409 . S
C607 H599 0.930 . S
C607 C608 1.355 . S
C607 C609 1.415 . S
C608 C607 1.355 . S
C608 C610 1.419 . S
C609 C604 1.425 . S
C609 C606 1.409 . S
C609 C607 1.415 . S
C610 H600 0.930 . S
C610 C608 1.419 . S
C610 C611 1.362 . S
C611 H601 0.930 . S
C611 C604 1.409 . S
C611 C610 1.362 . S
H612 C618 0.930 . S
H613 C621 0.930 . S
H614 C622 0.930 . S
H615 C623 0.930 . S
H616 C626 0.930 . S
H617 C627 0.930 . S
C618 H612 0.930 . S
C618 C619 1.355 . S
C618 C620 1.415 . S
C619 C618 1.355 . S
C619 C621 1.419 . S
C620 C618 1.415 . S
C620 C625 1.425 . S
C620 C627 1.409 . S
C621 H613 0.930 . S
C621 C619 1.419 . S
C621 C622 1.362 . S
C622 H614 0.930 . S
C622 C621 1.362 . S
C622 C625 1.409 . S
C623 H615 0.930 . S
C623 C624 1.355 . S
C623 C625 1.415 1_565 S
C624 C623 1.355 . S
C624 C626 1.419 . S
C625 C620 1.425 . S
C625 C622 1.409 . S
C625 C623 1.415 1_545 S
C626 H616 0.930 . S
C626 C624 1.419 . S
C626 C627 1.362 1_565 S
C627 H617 0.930 . S
C627 C620 1.409 . S
C627 C626 1.362 1_545 S
H628 C634 0.930 . S
H629 C637 0.930 . S
H630 C638 0.930 . S
H631 C639 0.930 . S
H632 C642 0.930 . S
H633 C643 0.930 . S
C634 H628 0.930 . S
C634 C635 1.355 . S
C634 C636 1.415 . S
C635 C634 1.355 . S
C635 C637 1.419 . S
C636 C634 1.415 . S
C636 C641 1.425 . S
C636 C643 1.409 . S
C637 H629 0.930 . S
C637 C635 1.419 . S
C637 C638 1.362 . S
C638 H630 0.930 . S
C638 C637 1.362 . S
C638 C641 1.409 . S
C639 H631 0.930 . S
C639 C640 1.355 . S
C639 C641 1.415 . S
C640 C639 1.355 . S
C640 C642 1.419 . S
C641 C636 1.425 . S
C641 C638 1.409 . S
C641 C639 1.415 . S
C642 H632 0.930 . S
C642 C640 1.419 . S
C642 C643 1.362 . S
C643 H633 0.930 . S
C643 C636 1.409 . S
C643 C642 1.362 . S
H644 C650 0.930 . S
H645 C653 0.930 1_545 S
H646 C654 0.930 . S
H647 C655 0.930 . S
H648 C658 0.917 1_556 S
H649 C659 0.930 1_545 S
C650 H644 0.930 . S
C650 C651 1.355 . S
C650 C652 1.415 1_545 S
C651 C650 1.355 . S
C651 C653 1.419 1_545 S
C652 C650 1.415 1_565 S
C652 C657 1.425 . S
C652 C659 1.409 . S
C653 H645 0.930 1_565 S
C653 C651 1.419 1_565 S
C653 C654 1.362 . S
C654 H646 0.930 . S
C654 C653 1.362 . S
C654 C657 1.409 . S
C655 H647 0.930 . S
C655 C656 1.355 . S
C655 C657 1.415 . S
C656 C655 1.355 . S
C656 C658 1.419 . S
C657 C652 1.425 . S
C657 C654 1.409 . S
C657 C655 1.415 . S
C658 H648 0.917 1_554 S
C658 C656 1.419 . S
C658 C659 1.362 . S
C659 H649 0.930 1_565 S
C659 C652 1.409 . S
C659 C658 1.362 . S
H660 C666 0.930 . S
H661 C669 0.930 . S
H662 C670 0.930 . S
H663 C671 0.930 . S
H664 C674 0.930 . S
H665 C675 0.930 . S
C666 H660 0.930 . S
C666 C667 1.355 . S
C666 C668 1.415 . S
C667 C666 1.355 . S
C667 C669 1.419 . S
C668 C666 1.415 . S
C668 C673 1.425 . S
C668 C675 1.409 . S
C669 H661 0.930 . S
C669 C667 1.419 . S
C669 C670 1.362 . S
C670 H662 0.930 . S
C670 C669 1.362 . S
C670 C673 1.409 . S
C671 H663 0.930 . S
C671 C672 1.355 . S
C671 C673 1.415 . S
C672 C671 1.355 . S
C672 C674 1.419 . S
C673 C668 1.425 . S
C673 C670 1.409 . S
C673 C671 1.415 . S
C674 H664 0.930 . S
C674 C672 1.419 . S
C674 C675 1.362 . S
C675 H665 0.930 . S
C675 C668 1.409 . S
C675 C674 1.362 . S
H676 C682 0.930 . S
H677 C685 0.930 . S
H678 C686 0.930 . S
H679 C687 0.930 . S
H680 C690 0.930 1_554 S
H681 C691 0.930 . S
C682 H676 0.930 . S
C682 C683 1.355 . S
C682 C684 1.415 . S
C683 C682 1.355 . S
C683 C685 1.419 . S
C684 C682 1.415 . S
C684 C689 1.425 . S
C684 C691 1.409 . S
C685 H677 0.930 . S
C685 C683 1.419 . S
C685 C686 1.362 . S
C686 H678 0.930 . S
C686 C685 1.362 . S
C686 C689 1.409 . S
C687 H679 0.930 . S
C687 C688 1.355 . S
C687 C689 1.415 . S
C688 C687 1.355 . S
C688 C690 1.419 . S
C689 C684 1.425 . S
C689 C686 1.409 . S
C689 C687 1.415 . S
C690 H680 0.930 1_556 S
C690 C688 1.419 . S
C690 C691 1.362 . S
C691 H681 0.930 . S
C691 C684 1.409 . S
C691 C690 1.362 . S
H692 C698 0.930 . S
H693 C701 0.930 . S
H694 C702 0.930 . S
H695 C703 0.930 . S
H696 C706 0.930 . S
H697 C707 0.930 . S
C698 H692 0.930 . S
C698 C699 1.355 . S
C698 C700 1.415 . S
C699 C698 1.355 . S
C699 C701 1.419 . S
C700 C698 1.415 . S
C700 C705 1.425 . S
C700 C707 1.409 . S
C701 H693 0.930 . S
C701 C699 1.419 . S
C701 C702 1.362 . S
C702 H694 0.930 . S
C702 C701 1.362 . S
C702 C705 1.409 . S
C703 H695 0.930 . S
C703 C704 1.355 . S
C703 C705 1.415 . S
C704 C703 1.355 . S
C704 C706 1.419 . S
C705 C700 1.425 . S
C705 C702 1.409 . S
C705 C703 1.415 . S
C706 H696 0.930 . S
C706 C704 1.419 . S
C706 C707 1.362 . S
C707 H697 0.930 . S
C707 C700 1.409 . S
C707 C706 1.362 . S
H708 C714 0.930 . S
H709 C717 0.930 . S
H710 C718 0.930 . S
H711 C719 0.930 . S
H712 C722 0.930 . S
H713 C723 0.930 . S
C714 H708 0.930 . S
C714 C715 1.355 . S
C714 C716 1.415 . S
C715 C714 1.355 . S
C715 C717 1.419 . S
C716 C714 1.415 . S
C716 C721 1.425 . S
C716 C723 1.409 . S
C717 H709 0.930 . S
C717 C715 1.419 . S
C717 C718 1.362 . S
C718 H710 0.930 . S
C718 C717 1.362 . S
C718 C721 1.409 . S
C719 H711 0.930 . S
C719 C720 1.355 . S
C719 C721 1.415 . S
C720 C719 1.355 . S
C720 C722 1.419 . S
C721 C716 1.425 . S
C721 C718 1.409 . S
C721 C719 1.415 . S
C722 H712 0.930 . S
C722 C720 1.419 . S
C722 C723 1.362 . S
C723 H713 0.930 . S
C723 C716 1.409 . S
C723 C722 1.362 . S
H724 C730 0.930 . S
H725 C733 0.930 . S
H726 C734 0.930 . S
H727 C735 0.930 . S
H728 C738 0.930 . S
H729 C739 0.930 . S
C730 H724 0.930 . S
C730 C731 1.355 . S
C730 C732 1.415 . S
C731 C730 1.355 . S
C731 C733 1.419 . S
C732 C730 1.415 . S
C732 C737 1.425 . S
C732 C739 1.409 . S
C733 H725 0.930 . S
C733 C731 1.419 . S
C733 C734 1.362 . S
C734 H726 0.930 . S
C734 C733 1.362 . S
C734 C737 1.409 . S
C735 H727 0.930 . S
C735 C736 1.355 . S
C735 C737 1.415 . S
C736 C735 1.355 . S
C736 C738 1.419 . S
C737 C732 1.425 . S
C737 C734 1.409 . S
C737 C735 1.415 . S
C738 H728 0.930 . S
C738 C736 1.419 . S
C738 C739 1.362 . S
C739 H729 0.930 . S
C739 C732 1.409 . S
C739 C738 1.362 . S
H740 C746 0.930 . S
H741 C749 0.930 . S
H742 C750 0.930 . S
H743 C751 0.930 . S
H744 C754 0.930 . S
H745 C755 0.930 . S
C746 H740 0.930 . S
C746 C747 1.355 . S
C746 C748 1.415 . S
C747 C746 1.355 . S
C747 C749 1.419 . S
C748 C746 1.415 . S
C748 C753 1.425 . S
C748 C755 1.409 . S
C749 H741 0.930 . S
C749 C747 1.419 . S
C749 C750 1.362 . S
C750 H742 0.930 . S
C750 C749 1.362 . S
C750 C753 1.409 . S
C751 H743 0.930 . S
C751 C752 1.355 . S
C751 C753 1.415 . S
C752 C751 1.355 . S
C752 C754 1.419 . S
C753 C748 1.425 . S
C753 C750 1.409 . S
C753 C751 1.415 . S
C754 H744 0.930 . S
C754 C752 1.419 . S
C754 C755 1.362 . S
C755 H745 0.930 . S
C755 C748 1.409 . S
C755 C754 1.362 . S
H756 C762 0.930 . S
H757 C765 0.930 . S
H758 C766 0.930 . S
H759 C767 0.930 . S
H760 C770 0.930 . S
H761 C771 0.930 . S
C762 H756 0.930 . S
C762 C763 1.355 . S
C762 C764 1.415 . S
C763 C762 1.355 . S
C763 C765 1.419 . S
C764 C762 1.415 . S
C764 C769 1.425 . S
C764 C771 1.409 1_455 S
C765 H757 0.930 . S
C765 C763 1.419 . S
C765 C766 1.362 . S
C766 H758 0.930 . S
C766 C765 1.362 . S
C766 C769 1.409 . S
C767 H759 0.930 . S
C767 C768 1.355 1_455 S
C767 C769 1.415 . S
C768 C767 1.355 1_655 S
C768 C770 1.419 . S
C769 C764 1.425 . S
C769 C766 1.409 . S
C769 C767 1.415 . S
C770 H760 0.930 . S
C770 C768 1.419 . S
C770 C771 1.362 . S
C771 H761 0.930 . S
C771 C764 1.409 1_655 S
C771 C770 1.362 . S
H772 C778 0.930 . S
H773 C781 0.930 . S
H774 C782 0.930 . S
H775 C783 0.930 . S
H776 C786 0.930 . S
H777 C787 0.930 . S
C778 H772 0.930 . S
C778 C779 1.355 . S
C778 C780 1.415 . S
C779 C778 1.355 . S
C779 C781 1.419 . S
C780 C778 1.415 . S
C780 C785 1.425 . S
C780 C787 1.409 . S
C781 H773 0.930 . S
C781 C779 1.419 . S
C781 C782 1.362 . S
C782 H774 0.930 . S
C782 C781 1.362 . S
C782 C785 1.409 . S
C783 H775 0.930 . S
C783 C784 1.355 . S
C783 C785 1.415 . S
C784 C783 1.355 . S
C784 C786 1.419 . S
C785 C780 1.425 . S
C785 C782 1.409 . S
C785 C783 1.415 . S
C786 H776 0.930 . S
C786 C784 1.419 . S
C786 C787 1.362 . S
C787 H777 0.930 . S
C787 C780 1.409 . S
C787 C786 1.362 . S
H788 C794 0.930 . S
H789 C797 0.930 . S
H790 C798 0.930 . S
H791 C799 0.930 . S
H792 C802 0.930 . S
H793 C803 0.930 . S
C794 H788 0.930 . S
C794 C795 1.355 . S
C794 C796 1.415 . S
C795 C794 1.355 . S
C795 C797 1.419 . S
C796 C794 1.415 . S
C796 C801 1.425 . S
C796 C803 1.409 . S
C797 H789 0.930 . S
C797 C795 1.419 . S
C797 C798 1.362 . S
C798 H790 0.930 . S
C798 C797 1.362 . S
C798 C801 1.409 . S
C799 H791 0.930 . S
C799 C800 1.355 . S
C799 C801 1.415 . S
C800 C799 1.355 . S
C800 C802 1.419 . S
C801 C796 1.425 . S
C801 C798 1.409 . S
C801 C799 1.415 . S
C802 H792 0.930 . S
C802 C800 1.419 . S
C802 C803 1.362 . S
C803 H793 0.930 . S
C803 C796 1.409 . S
C803 C802 1.362 . S
H804 C810 0.930 . S
H805 C813 0.930 . S
H806 C814 0.930 . S
H807 C815 0.930 . S
H808 C818 0.930 . S
H809 C819 0.930 . S
C810 H804 0.930 . S
C810 C811 1.355 . S
C810 C812 1.415 . S
C811 C810 1.355 . S
C811 C813 1.419 . S
C812 C810 1.415 . S
C812 C817 1.425 . S
C812 C819 1.409 . S
C813 H805 0.930 . S
C813 C811 1.419 . S
C813 C814 1.362 . S
C814 H806 0.930 . S
C814 C813 1.362 . S
C814 C817 1.409 . S
C815 H807 0.930 . S
C815 C816 1.355 . S
C815 C817 1.415 . S
C816 C815 1.355 . S
C816 C818 1.419 . S
C817 C812 1.425 . S
C817 C814 1.409 . S
C817 C815 1.415 . S
C818 H808 0.930 . S
C818 C816 1.419 . S
C818 C819 1.362 . S
C819 H809 0.930 . S
C819 C812 1.409 . S
C819 C818 1.362 . S
H820 C826 0.930 . S
H821 C829 0.930 . S
H822 C830 0.930 . S
H823 C831 0.930 . S
H824 C834 0.930 . S
H825 C835 0.930 . S
C826 H820 0.930 . S
C826 C827 1.355 . S
C826 C828 1.415 . S
C827 C826 1.355 . S
C827 C829 1.419 . S
C828 C826 1.415 . S
C828 C833 1.425 . S
C828 C835 1.409 . S
C829 H821 0.930 . S
C829 C827 1.419 . S
C829 C830 1.362 . S
C830 H822 0.930 . S
C830 C829 1.362 . S
C830 C833 1.409 . S
C831 H823 0.930 . S
C831 C832 1.355 . S
C831 C833 1.415 . S
C832 C831 1.355 . S
C832 C834 1.419 . S
C833 C828 1.425 . S
C833 C830 1.409 . S
C833 C831 1.415 . S
C834 H824 0.930 . S
C834 C832 1.419 . S
C834 C835 1.362 . S
C835 H825 0.930 . S
C835 C828 1.409 . S
C835 C834 1.362 . S
H836 C842 0.930 . S
H837 C845 0.930 1_565 S
H838 C846 0.930 1_455 S
H839 C847 0.930 . S
H840 C850 0.930 . S
H841 C851 0.930 . S
C842 H836 0.930 . S
C842 C843 1.355 . S
C842 C844 1.415 . S
C843 C842 1.355 . S
C843 C845 1.419 . S
C844 C842 1.415 . S
C844 C849 1.425 . S
C844 C851 1.409 . S
C845 H837 0.930 1_545 S
C845 C843 1.419 . S
C845 C846 1.362 . S
C846 H838 0.930 1_655 S
C846 C845 1.362 . S
C846 C849 1.409 . S
C847 H839 0.930 . S
C847 C848 1.355 . S
C847 C849 1.415 1_455 S
C848 C847 1.355 . S
C848 C850 1.419 1_455 S
C849 C844 1.425 . S
C849 C846 1.409 . S
C849 C847 1.415 1_655 S
C850 H840 0.930 . S
C850 C848 1.419 1_655 S
C850 C851 1.362 . S
C851 H841 0.930 . S
C851 C844 1.409 . S
C851 C850 1.362 . S
C283 C19 1.391 . S
C288 C272 1.378 . S
C299 C223 1.596 . S
C304 C40 1.669 . S
C315 C63 1.461 . S
C320 C201 1.462 . S
C331 C88 1.436 . S
C336 C247 1.443 . S
C347 C108 1.390 . S
C352 C249 1.427 . S
C363 C132 1.586 . S
C368 C270 1.553 . S
C379 C228 1.570 . S
C384 C155 1.529 . S
C395 C180 1.403 . S
C400 C203 1.409 . S
C411 C86 1.365 . S
C416 C113 1.397 . S
C427 C17 1.471 . S
C432 C134 1.448 . S
C443 C42 1.532 . S
C448 C157 1.517 . S
C459 C178 1.382 . S
C464 C65 1.379 . S
C475 C18 1.140 . S
C480 C200 1.141 . S
C491 C44 1.048 . S
C496 C246 1.115 . S
C507 C273 1.028 . S
C512 C67 0.947 . S
C523 C87 1.066 . S
C528 C224 1.053 . S
C539 C111 1.059 . S
C544 C225 1.169 . S
C555 C204 1.163 . S
C560 C136 1.151 . S
C571 C250 1.098 . S
C576 C159 1.117 . S
C587 C269 1.147 . S
C592 C179 1.144 . S
C603 C16 1.319 . S
C608 C90 1.295 . S
C619 C21 1.159 . S
C624 C43 1.182 . S
C635 C41 0.993 . S
C640 C66 0.929 . S
C651 C85 1.030 . S
C656 C64 1.043 . S
C667 C133 1.061 . S
C672 C110 1.060 . S
C683 C135 1.048 . S
C688 C156 1.048 . S
C699 C158 1.171 . S
C704 C182 1.166 . S
C715 C112 1.156 . S
C720 C177 1.124 . S
C731 C202 1.094 . S
C736 C89 1.101 . S
C747 C131 1.170 . S
C752 C226 1.143 . S
C763 C205 1.158 . S
C768 C154 1.292 . S
C779 C251 1.117 . S
C784 C181 1.158 . S
C795 C109 1.170 . S
C800 C271 1.175 . S
C811 C274 1.058 . S
C816 C39 1.151 . S
C827 C62 1.079 . S
C832 C227 1.030 . S
C843 C248 0.927 . S
C848 C20 0.950 . S
