# Generated by pormake.
# Topology unl, (4)-cn, num edge types: 1
# Building blocks:
#     Node 0, Type 0, BuildingBlock: NAHDIM_clean_sbu_0, # of connection points: 4
#     Node 1, Type 0, BuildingBlock: NAHDIM_clean_sbu_0, # of connection points: 4
#     Node 2, Type 0, BuildingBlock: NAHDIM_clean_sbu_0, # of connection points: 4
#     Node 3, Type 0, BuildingBlock: NAHDIM_clean_sbu_0, # of connection points: 4
#     Node 4, Type 0, BuildingBlock: NAHDIM_clean_sbu_0, # of connection points: 4
#     Node 5, Type 0, BuildingBlock: NAHDIM_clean_sbu_0, # of connection points: 4
#     Node 6, Type 0, BuildingBlock: NAHDIM_clean_sbu_0, # of connection points: 4
#     Node 7, Type 0, BuildingBlock: NAHDIM_clean_sbu_0, # of connection points: 4
#     Node 8, Type 0, BuildingBlock: NAHDIM_clean_sbu_0, # of connection points: 4
#     Node 9, Type 0, BuildingBlock: NAHDIM_clean_sbu_0, # of connection points: 4
#     Node 10, Type 0, BuildingBlock: NAHDIM_clean_sbu_0, # of connection points: 4
#     Node 11, Type 0, BuildingBlock: NAHDIM_clean_sbu_0, # of connection points: 4
#     Node 12, Type 0, BuildingBlock: NAHDIM_clean_sbu_0, # of connection points: 4
#     Node 13, Type 0, BuildingBlock: NAHDIM_clean_sbu_0, # of connection points: 4
#     Node 14, Type 0, BuildingBlock: NAHDIM_clean_sbu_0, # of connection points: 4
#     Node 15, Type 0, BuildingBlock: NAHDIM_clean_sbu_0, # of connection points: 4
#     Node 16, Type 0, BuildingBlock: NAHDIM_clean_sbu_0, # of connection points: 4
#     Node 17, Type 0, BuildingBlock: NAHDIM_clean_sbu_0, # of connection points: 4
#     Node 18, Type 0, BuildingBlock: NAHDIM_clean_sbu_0, # of connection points: 4
#     Node 19, Type 0, BuildingBlock: NAHDIM_clean_sbu_0, # of connection points: 4
#     Node 20, Type 0, BuildingBlock: NAHDIM_clean_sbu_0, # of connection points: 4
#     Node 21, Type 0, BuildingBlock: NAHDIM_clean_sbu_0, # of connection points: 4
#     Node 22, Type 0, BuildingBlock: NAHDIM_clean_sbu_0, # of connection points: 4
#     Node 23, Type 0, BuildingBlock: NAHDIM_clean_sbu_0, # of connection points: 4
#     Node 24, Type 0, BuildingBlock: NAHDIM_clean_sbu_0, # of connection points: 4
#     Node 25, Type 0, BuildingBlock: NAHDIM_clean_sbu_0, # of connection points: 4
#     Node 26, Type 0, BuildingBlock: NAHDIM_clean_sbu_0, # of connection points: 4
#     Node 27, Type 0, BuildingBlock: NAHDIM_clean_sbu_0, # of connection points: 4
#     Node 28, Type 0, BuildingBlock: NAHDIM_clean_sbu_0, # of connection points: 4
#     Node 29, Type 0, BuildingBlock: NAHDIM_clean_sbu_0, # of connection points: 4
#     Node 30, Type 0, BuildingBlock: NAHDIM_clean_sbu_0, # of connection points: 4
#     Node 31, Type 0, BuildingBlock: NAHDIM_clean_sbu_0, # of connection points: 4
#     Node 32, Type 0, BuildingBlock: NAHDIM_clean_sbu_0, # of connection points: 4
#     Node 33, Type 0, BuildingBlock: NAHDIM_clean_sbu_0, # of connection points: 4
#     Node 34, Type 0, BuildingBlock: NAHDIM_clean_sbu_0, # of connection points: 4
#     Node 35, Type 0, BuildingBlock: NAHDIM_clean_sbu_0, # of connection points: 4
#     Edge 36, Type (0, 0), BuildingBlock: CIFDUS_clean_linker_0, # of connection points: 2
#     Edge 37, Type (0, 0), BuildingBlock: CIFDUS_clean_linker_0, # of connection points: 2
#     Edge 38, Type (0, 0), BuildingBlock: CIFDUS_clean_linker_0, # of connection points: 2
#     Edge 39, Type (0, 0), BuildingBlock: CIFDUS_clean_linker_0, # of connection points: 2
#     Edge 40, Type (0, 0), BuildingBlock: CIFDUS_clean_linker_0, # of connection points: 2
#     Edge 41, Type (0, 0), BuildingBlock: CIFDUS_clean_linker_0, # of connection points: 2
#     Edge 42, Type (0, 0), BuildingBlock: CIFDUS_clean_linker_0, # of connection points: 2
#     Edge 43, Type (0, 0), BuildingBlock: CIFDUS_clean_linker_0, # of connection points: 2
#     Edge 44, Type (0, 0), BuildingBlock: CIFDUS_clean_linker_0, # of connection points: 2
#     Edge 45, Type (0, 0), BuildingBlock: CIFDUS_clean_linker_0, # of connection points: 2
#     Edge 46, Type (0, 0), BuildingBlock: CIFDUS_clean_linker_0, # of connection points: 2
#     Edge 47, Type (0, 0), BuildingBlock: CIFDUS_clean_linker_0, # of connection points: 2
#     Edge 48, Type (0, 0), BuildingBlock: CIFDUS_clean_linker_0, # of connection points: 2
#     Edge 49, Type (0, 0), BuildingBlock: CIFDUS_clean_linker_0, # of connection points: 2
#     Edge 50, Type (0, 0), BuildingBlock: CIFDUS_clean_linker_0, # of connection points: 2
#     Edge 51, Type (0, 0), BuildingBlock: CIFDUS_clean_linker_0, # of connection points: 2
#     Edge 52, Type (0, 0), BuildingBlock: CIFDUS_clean_linker_0, # of connection points: 2
#     Edge 53, Type (0, 0), BuildingBlock: CIFDUS_clean_linker_0, # of connection points: 2
#     Edge 54, Type (0, 0), BuildingBlock: CIFDUS_clean_linker_0, # of connection points: 2
#     Edge 55, Type (0, 0), BuildingBlock: CIFDUS_clean_linker_0, # of connection points: 2
#     Edge 56, Type (0, 0), BuildingBlock: CIFDUS_clean_linker_0, # of connection points: 2
#     Edge 57, Type (0, 0), BuildingBlock: CIFDUS_clean_linker_0, # of connection points: 2
#     Edge 58, Type (0, 0), BuildingBlock: CIFDUS_clean_linker_0, # of connection points: 2
#     Edge 59, Type (0, 0), BuildingBlock: CIFDUS_clean_linker_0, # of connection points: 2
#     Edge 60, Type (0, 0), BuildingBlock: CIFDUS_clean_linker_0, # of connection points: 2
#     Edge 61, Type (0, 0), BuildingBlock: CIFDUS_clean_linker_0, # of connection points: 2
#     Edge 62, Type (0, 0), BuildingBlock: CIFDUS_clean_linker_0, # of connection points: 2
#     Edge 63, Type (0, 0), BuildingBlock: CIFDUS_clean_linker_0, # of connection points: 2
#     Edge 64, Type (0, 0), BuildingBlock: CIFDUS_clean_linker_0, # of connection points: 2
#     Edge 65, Type (0, 0), BuildingBlock: CIFDUS_clean_linker_0, # of connection points: 2
#     Edge 66, Type (0, 0), BuildingBlock: CIFDUS_clean_linker_0, # of connection points: 2
#     Edge 67, Type (0, 0), BuildingBlock: CIFDUS_clean_linker_0, # of connection points: 2
#     Edge 68, Type (0, 0), BuildingBlock: CIFDUS_clean_linker_0, # of connection points: 2
#     Edge 69, Type (0, 0), BuildingBlock: CIFDUS_clean_linker_0, # of connection points: 2
#     Edge 70, Type (0, 0), BuildingBlock: CIFDUS_clean_linker_0, # of connection points: 2
#     Edge 71, Type (0, 0), BuildingBlock: CIFDUS_clean_linker_0, # of connection points: 2
#     Edge 72, Type (0, 0), BuildingBlock: CIFDUS_clean_linker_0, # of connection points: 2
#     Edge 73, Type (0, 0), BuildingBlock: CIFDUS_clean_linker_0, # of connection points: 2
#     Edge 74, Type (0, 0), BuildingBlock: CIFDUS_clean_linker_0, # of connection points: 2
#     Edge 75, Type (0, 0), BuildingBlock: CIFDUS_clean_linker_0, # of connection points: 2
#     Edge 76, Type (0, 0), BuildingBlock: CIFDUS_clean_linker_0, # of connection points: 2
#     Edge 77, Type (0, 0), BuildingBlock: CIFDUS_clean_linker_0, # of connection points: 2
#     Edge 78, Type (0, 0), BuildingBlock: CIFDUS_clean_linker_0, # of connection points: 2
#     Edge 79, Type (0, 0), BuildingBlock: CIFDUS_clean_linker_0, # of connection points: 2
#     Edge 80, Type (0, 0), BuildingBlock: CIFDUS_clean_linker_0, # of connection points: 2
#     Edge 81, Type (0, 0), BuildingBlock: CIFDUS_clean_linker_0, # of connection points: 2
#     Edge 82, Type (0, 0), BuildingBlock: CIFDUS_clean_linker_0, # of connection points: 2
#     Edge 83, Type (0, 0), BuildingBlock: CIFDUS_clean_linker_0, # of connection points: 2
#     Edge 84, Type (0, 0), BuildingBlock: CIFDUS_clean_linker_0, # of connection points: 2
#     Edge 85, Type (0, 0), BuildingBlock: CIFDUS_clean_linker_0, # of connection points: 2
#     Edge 86, Type (0, 0), BuildingBlock: CIFDUS_clean_linker_0, # of connection points: 2
#     Edge 87, Type (0, 0), BuildingBlock: CIFDUS_clean_linker_0, # of connection points: 2
#     Edge 88, Type (0, 0), BuildingBlock: CIFDUS_clean_linker_0, # of connection points: 2
#     Edge 89, Type (0, 0), BuildingBlock: CIFDUS_clean_linker_0, # of connection points: 2
#     Edge 90, Type (0, 0), BuildingBlock: CIFDUS_clean_linker_0, # of connection points: 2
#     Edge 91, Type (0, 0), BuildingBlock: CIFDUS_clean_linker_0, # of connection points: 2
#     Edge 92, Type (0, 0), BuildingBlock: CIFDUS_clean_linker_0, # of connection points: 2
#     Edge 93, Type (0, 0), BuildingBlock: CIFDUS_clean_linker_0, # of connection points: 2
#     Edge 94, Type (0, 0), BuildingBlock: CIFDUS_clean_linker_0, # of connection points: 2
#     Edge 95, Type (0, 0), BuildingBlock: CIFDUS_clean_linker_0, # of connection points: 2
#     Edge 96, Type (0, 0), BuildingBlock: CIFDUS_clean_linker_0, # of connection points: 2
#     Edge 97, Type (0, 0), BuildingBlock: CIFDUS_clean_linker_0, # of connection points: 2
#     Edge 98, Type (0, 0), BuildingBlock: CIFDUS_clean_linker_0, # of connection points: 2
#     Edge 99, Type (0, 0), BuildingBlock: CIFDUS_clean_linker_0, # of connection points: 2
#     Edge 100, Type (0, 0), BuildingBlock: CIFDUS_clean_linker_0, # of connection points: 2
#     Edge 101, Type (0, 0), BuildingBlock: CIFDUS_clean_linker_0, # of connection points: 2
#     Edge 102, Type (0, 0), BuildingBlock: CIFDUS_clean_linker_0, # of connection points: 2
#     Edge 103, Type (0, 0), BuildingBlock: CIFDUS_clean_linker_0, # of connection points: 2
#     Edge 104, Type (0, 0), BuildingBlock: CIFDUS_clean_linker_0, # of connection points: 2
#     Edge 105, Type (0, 0), BuildingBlock: CIFDUS_clean_linker_0, # of connection points: 2
#     Edge 106, Type (0, 0), BuildingBlock: CIFDUS_clean_linker_0, # of connection points: 2
#     Edge 107, Type (0, 0), BuildingBlock: CIFDUS_clean_linker_0, # of connection points: 2
# Relax obj value: 0.181
# Max RMSD: 0.222
# Mean RMSD: 0.222
data_MOF--net-unl--node1-NAHDIM_clean_sbu_0--edge1-CIFDUS_clean_linker_0
_symmetry_space_group_name_H-M    P1
_symmetry_Int_Tables_number       1
_symmetry_cell_setting            triclinic
loop_
_symmetry_equiv_pos_as_xyz
'x, y, z'
_cell_length_a     56.797724
_cell_length_b     56.818943
_cell_length_c     34.422324
_cell_angle_alpha  89.925869
_cell_angle_beta   90.003964
_cell_angle_gamma 119.98359
loop_
_atom_site_label
_atom_site_type_symbol
_atom_site_fract_x
_atom_site_fract_y
_atom_site_fract_z
_atom_type_partial_charge
C0 C 0.25488 0.12971 0.15569 0.0
O1 O 0.23702 0.10744 0.17364 0.0
O2 O 0.19917 0.08112 0.09086 0.0
Zn3 Zn 0.20863 0.11841 0.10886 0.0
O4 O 0.184 0.11755 0.15166 0.0
C5 C 0.19457 0.12829 0.0317 0.0
O6 O 0.1876 0.10281 0.02559 0.0
O7 O 0.24724 0.13831 0.12702 0.0
C8 C 0.16151 0.11617 0.14342 0.0
O9 O 0.15371 0.1133 0.10696 0.0
C10 C 0.18052 0.0588 0.1047 0.0
O11 O 0.1662 0.05907 0.13447 0.0
O12 O 0.20471 0.1391 0.06429 0.0
C13 C 0.87613 0.10291 0.17347 0.0
O14 O 0.89112 0.10388 0.20317 0.0
O15 O 0.93579 0.09893 0.1312 0.0
Zn16 Zn 0.89684 0.07046 0.1401 0.0
O17 O 0.89181 0.04852 0.18869 0.0
C18 C 0.89536 0.05468 0.0601 0.0
O19 O 0.91639 0.07931 0.05712 0.0
O20 O 0.87512 0.08934 0.14362 0.0
C21 C 0.87118 0.02482 0.19137 0.0
O22 O 0.85411 0.01521 0.16209 0.0
C23 C 0.95591 0.09511 0.13427 0.0
O24 O 0.95203 0.07185 0.14801 0.0
O25 O 0.88379 0.04628 0.09289 0.0
C26 C 0.88215 0.74743 0.11988 0.0
O27 O 0.88145 0.7646 0.14475 0.0
O28 O 0.8921 0.80873 0.06095 0.0
Zn29 Zn 0.91757 0.7967 0.08069 0.0
O30 O 0.93568 0.81527 0.13086 0.0
C31 C 0.95986 0.79299 0.04031 0.0
O32 O 0.95491 0.77444 0.06685 0.0
O33 O 0.89652 0.75658 0.08942 0.0
C34 C 0.95997 0.83503 0.13169 0.0
O35 O 0.97323 0.84453 0.09889 0.0
C36 C 0.88217 0.82043 0.08102 0.0
O37 O 0.88893 0.82585 0.11778 0.0
O38 O 0.946 0.80493 0.04024 0.0
C39 C 0.09747 0.25063 0.35465 0.0
O40 O 0.08618 0.24168 0.38884 0.0
O41 O 0.05311 0.17902 0.37462 0.0
Zn42 Zn 0.09052 0.19756 0.35151 0.0
O43 O 0.09477 0.17554 0.30943 0.0
C44 C 0.11172 0.19974 0.42954 0.0
O45 O 0.08833 0.19659 0.44137 0.0
O46 O 0.10087 0.23478 0.33234 0.0
C47 C 0.0835 0.1695 0.27625 0.0
O48 O 0.06622 0.17754 0.26677 0.0
C49 C 0.0419 0.15409 0.38394 0.0
O50 O 0.05391 0.14025 0.37449 0.0
O51 O 0.11684 0.20132 0.39337 0.0
C52 C 0.719 0.84999 0.42035 0.0
O53 O 0.73128 0.83673 0.40923 0.0
O54 O 0.78635 0.86952 0.45794 0.0
Zn55 Zn 0.77376 0.89348 0.43366 0.0
O56 O 0.78895 0.90662 0.37997 0.0
C57 C 0.77917 0.94354 0.45946 0.0
O58 O 0.76373 0.93968 0.42897 0.0
O59 O 0.73317 0.87436 0.43185 0.0
C60 C 0.81244 0.92739 0.37595 0.0
O61 O 0.82728 0.93868 0.40701 0.0
C62 C 0.8003 0.8606 0.44134 0.0
O63 O 0.80703 0.86649 0.40463 0.0
O64 O 0.78606 0.92602 0.46766 0.0
C65 C 0.12327 0.8681 0.34033 0.0
O66 O 0.09842 0.8542 0.32657 0.0
O67 O 0.12227 0.94059 0.38633 0.0
Zn68 Zn 0.10299 0.90212 0.36728 0.0
O69 O 0.08346 0.8989 0.31677 0.0
C70 C 0.08014 0.8846 0.44413 0.0
O71 O 0.10374 0.90485 0.45521 0.0
O72 O 0.13009 0.88969 0.3594 0.0
C73 C 0.05782 0.8889 0.31586 0.0
O74 O 0.04404 0.8815 0.34855 0.0
C75 C 0.10828 0.9515 0.39576 0.0
O76 O 0.08189 0.93796 0.38992 0.0
O77 O 0.07576 0.87906 0.40817 0.0
C78 C 0.74262 0.87245 0.82413 0.0
O79 O 0.76078 0.8915 0.80145 0.0
O80 O 0.80028 0.91927 0.89949 0.0
Zn81 Zn 0.7899 0.88497 0.86984 0.0
O82 O 0.81296 0.89126 0.82203 0.0
C83 C 0.79862 0.86381 0.94186 0.0
O84 O 0.7942 0.88218 0.95799 0.0
O85 O 0.75042 0.86634 0.85522 0.0
C86 C 0.83514 0.891 0.82537 0.0
O87 O 0.8434 0.88886 0.86016 0.0
C88 C 0.8238 0.94021 0.89855 0.0
O89 O 0.84191 0.94115 0.87392 0.0
O90 O 0.79641 0.8606 0.90524 0.0
C91 C 0.16673 0.89156 0.87945 0.0
O92 O 0.16816 0.8975 0.91657 0.0
O93 O 0.09727 0.89511 0.8891 0.0
Zn94 Zn 0.13607 0.92003 0.87325 0.0
O95 O 0.13652 0.94286 0.82847 0.0
C96 C 0.14695 0.94194 0.95169 0.0
O97 O 0.1241 0.91969 0.96 0.0
O98 O 0.15418 0.89905 0.85652 0.0
C99 C 0.13138 0.96197 0.83389 0.0
O100 O 0.12514 0.96613 0.869 0.0
C101 C 0.08892 0.8717 0.9037 0.0
O102 O 0.1059 0.86248 0.90722 0.0
O103 O 0.15629 0.94558 0.91728 0.0
C104 C 0.11065 0.26573 0.91994 0.0
O105 O 0.10427 0.25787 0.95621 0.0
O106 O 0.11572 0.19674 0.90996 0.0
Zn107 Zn 0.08765 0.20802 0.90307 0.0
O108 O 0.06413 0.19 0.85653 0.0
C109 C 0.06844 0.18724 0.98097 0.0
O110 O 0.08976 0.18399 0.98178 0.0
O111 O 0.10578 0.24813 0.89379 0.0
C112 C 0.04113 0.1684 0.85867 0.0
O113 O 0.03252 0.15629 0.89245 0.0
C114 C 0.11318 0.17481 0.89639 0.0
O115 O 0.09222 0.1594 0.87423 0.0
O116 O 0.06402 0.19759 0.95101 0.0
C117 C 0.88295 0.74613 0.6275 0.0
O118 O 0.87709 0.74752 0.59095 0.0
O119 O 0.94531 0.81883 0.59762 0.0
Zn120 Zn 0.90915 0.80494 0.62383 0.0
O121 O 0.91068 0.82948 0.66725 0.0
C122 C 0.88625 0.80419 0.54775 0.0
O123 O 0.90751 0.8033 0.53462 0.0
O124 O 0.89656 0.76795 0.64665 0.0
C125 C 0.90336 0.84704 0.66174 0.0
O126 O 0.89696 0.85075 0.62649 0.0
C127 C 0.96822 0.8367 0.61087 0.0
O128 O 0.96954 0.84724 0.64531 0.0
O129 O 0.88239 0.80363 0.5842 0.0
C130 C 0.2337 0.13541 0.64587 0.0
O131 O 0.21796 0.13593 0.67342 0.0
O132 O 0.16819 0.12817 0.60307 0.0
Zn133 Zn 0.18232 0.10232 0.6095 0.0
O134 O 0.16626 0.07704 0.65483 0.0
C135 C 0.14735 0.06953 0.54944 0.0
O136 O 0.13103 0.0759 0.56781 0.0
O137 O 0.22293 0.12241 0.61482 0.0
C138 C 0.15666 0.08052 0.68622 0.0
O139 O 0.15603 0.10309 0.69154 0.0
C140 C 0.18031 0.14618 0.57711 0.0
O141 O 0.2021 0.14811 0.5607 0.0
O142 O 0.17151 0.07897 0.56177 0.0
C143 C 0.86764 0.12918 0.65843 0.0
O144 O 0.86203 0.10658 0.67651 0.0
O145 O 0.88099 0.08066 0.61327 0.0
Zn146 Zn 0.9077 0.11981 0.62383 0.0
O147 O 0.93184 0.12415 0.66901 0.0
C148 C 0.93745 0.11966 0.55778 0.0
O149 O 0.92917 0.09507 0.57111 0.0
O150 O 0.88717 0.13939 0.63427 0.0
C151 C 0.92484 0.10791 0.69768 0.0
O152 O 0.90033 0.08651 0.69859 0.0
C153 C 0.86347 0.0762 0.58713 0.0
O154 O 0.86307 0.09699 0.57103 0.0
O155 O 0.93089 0.13499 0.57601 0.0
C156 C 0.90108 0.44534 0.4657 0.0
O157 O 0.88526 0.43254 0.4954 0.0
O158 O 0.84005 0.38078 0.41505 0.0
Zn159 Zn 0.85017 0.41942 0.42533 0.0
O160 O 0.83163 0.42326 0.47251 0.0
C161 C 0.81928 0.41746 0.35742 0.0
O162 O 0.80699 0.39114 0.36368 0.0
O163 O 0.89056 0.4426 0.43227 0.0
C164 C 0.80653 0.41597 0.47328 0.0
O165 O 0.79127 0.40343 0.44306 0.0
C166 C 0.85451 0.37754 0.38985 0.0
O167 O 0.87573 0.39916 0.3754 0.0
O168 O 0.83867 0.43335 0.37959 0.0
C169 C 0.52277 0.4435 0.49401 0.0
O170 O 0.51182 0.41879 0.5083 0.0
O171 O 0.6057 0.46243 0.4612 0.0
Zn172 Zn 0.56687 0.43426 0.47103 0.0
O173 O 0.56251 0.41199 0.51904 0.0
C174 C 0.57032 0.40113 0.41277 0.0
O175 O 0.59313 0.40886 0.43163 0.0
O176 O 0.54551 0.45359 0.4766 0.0
C177 C 0.5443 0.38701 0.51875 0.0
O178 O 0.52949 0.3768 0.48736 0.0
C179 C 0.62684 0.46319 0.4749 0.0
O180 O 0.62424 0.44511 0.50094 0.0
O181 O 0.55462 0.40969 0.42409 0.0
C182 C 0.53746 0.04888 0.39338 0.0
O183 O 0.53433 0.05529 0.35782 0.0
O184 O 0.54987 0.11812 0.37657 0.0
Zn185 Zn 0.57523 0.10639 0.39883 0.0
O186 O 0.59612 0.12931 0.4446 0.0
C187 C 0.61063 0.12987 0.33329 0.0
O188 O 0.60054 0.14623 0.3344 0.0
O189 O 0.554 0.06746 0.41598 0.0
C190 C 0.58576 0.12465 0.47841 0.0
O191 O 0.56053 0.10503 0.48329 0.0
C192 C 0.54237 0.13294 0.39412 0.0
O193 O 0.55093 0.14115 0.42963 0.0
O194 O 0.60242 0.11065 0.3579 0.0
C195 C 0.81822 0.59265 0.70088 0.0
O196 O 0.82436 0.59116 0.73726 0.0
O197 O 0.74897 0.5161 0.71565 0.0
Zn198 Zn 0.78894 0.53345 0.70463 0.0
O199 O 0.79599 0.51113 0.66632 0.0
C200 C 0.79798 0.5291 0.7876 0.0
O201 O 0.77382 0.52643 0.79226 0.0
O202 O 0.80348 0.57088 0.68214 0.0
C203 C 0.77836 0.49289 0.64435 0.0
O204 O 0.7531 0.48773 0.64544 0.0
C205 C 0.7388 0.53032 0.72727 0.0
O206 O 0.75452 0.55679 0.72998 0.0
O207 O 0.8084 0.53355 0.75377 0.0
C208 C 0.38965 0.21172 0.70971 0.0
O209 O 0.40533 0.21079 0.68238 0.0
O210 O 0.45269 0.2171 0.76257 0.0
Zn211 Zn 0.44098 0.24368 0.74648 0.0
O212 O 0.45801 0.26151 0.69565 0.0
C213 C 0.46951 0.27646 0.81356 0.0
O214 O 0.47831 0.25912 0.81681 0.0
O215 O 0.40045 0.22459 0.74085 0.0
C216 C 0.48159 0.28239 0.69436 0.0
O217 O 0.49549 0.29175 0.72668 0.0
C218 C 0.46719 0.21069 0.74197 0.0
O219 O 0.47452 0.22097 0.70692 0.0
O220 O 0.45288 0.27327 0.78659 0.0
C221 C 0.78599 0.20972 0.66212 0.0
O222 O 0.79043 0.23137 0.64239 0.0
O223 O 0.76632 0.25494 0.70305 0.0
Zn224 Zn 0.7423 0.21547 0.69104 0.0
O225 O 0.72103 0.20953 0.6416 0.0
C226 C 0.71954 0.20753 0.76913 0.0
O227 O 0.74184 0.23048 0.77689 0.0
O228 O 0.76591 0.19881 0.6853 0.0
C229 C 0.69606 0.20281 0.64296 0.0
O230 O 0.68482 0.20157 0.67681 0.0
C231 C 0.75813 0.27203 0.70373 0.0
O232 O 0.73291 0.26416 0.69392 0.0
O233 O 0.71613 0.19737 0.73531 0.0
C234 C 0.41454 0.22194 0.19089 0.0
O235 O 0.43243 0.24361 0.17182 0.0
O236 O 0.47652 0.26647 0.25083 0.0
Zn237 Zn 0.46259 0.22928 0.22822 0.0
O238 O 0.48218 0.23044 0.17859 0.0
C239 C 0.47074 0.21 0.30319 0.0
O240 O 0.46709 0.22917 0.31828 0.0
O241 O 0.42277 0.21209 0.21722 0.0
C242 C 0.50065 0.22399 0.17892 0.0
O243 O 0.50802 0.21832 0.2122 0.0
C244 C 0.50147 0.28043 0.25994 0.0
O245 O 0.51766 0.27077 0.25207 0.0
O246 O 0.46867 0.20625 0.26669 0.0
C247 C 0.80167 0.18841 0.13613 0.0
O248 O 0.78808 0.18909 0.10566 0.0
O249 O 0.75238 0.21273 0.17899 0.0
Zn250 Zn 0.79233 0.23101 0.16585 0.0
O251 O 0.80155 0.2526 0.11624 0.0
C252 C 0.80606 0.25506 0.24305 0.0
O253 O 0.78408 0.23282 0.25419 0.0
O254 O 0.80566 0.20432 0.16438 0.0
C255 C 0.79225 0.26844 0.10949 0.0
O256 O 0.7744 0.26864 0.13355 0.0
C257 C 0.74081 0.18995 0.19648 0.0
O258 O 0.75473 0.17759 0.20326 0.0
O259 O 0.8131 0.25806 0.20756 0.0
C260 C 0.79075 0.59385 0.19003 0.0
O261 O 0.7893 0.57642 0.16376 0.0
O262 O 0.77836 0.52878 0.23975 0.0
Zn263 Zn 0.75473 0.54514 0.23076 0.0
O264 O 0.72969 0.52791 0.18505 0.0
C265 C 0.73812 0.53447 0.31218 0.0
O266 O 0.76021 0.53286 0.31708 0.0
O267 O 0.77767 0.58501 0.22159 0.0
C268 C 0.70711 0.52752 0.18492 0.0
O269 O 0.70101 0.53815 0.21442 0.0
C270 C 0.76806 0.50315 0.23954 0.0
O271 O 0.74228 0.4878 0.23044 0.0
O272 O 0.73236 0.53951 0.27864 0.0
C273 C 0.53786 0.08093 0.98721 0.0
O274 O 0.55467 0.09802 0.01315 0.0
O275 O 0.58473 0.14497 0.92283 0.0
Zn276 Zn 0.54829 0.13019 0.9486 0.0
O277 O 0.55058 0.149 -0.00072 0.0
C278 C 0.52704 0.13968 0.87695 0.0
O279 O 0.54721 0.1384 0.86037 0.0
O280 O 0.53217 0.09016 0.95724 0.0
C281 C 0.54773 0.16983 -0.00078 0.0
O282 O 0.54506 0.17956 0.96591 0.0
C283 C 0.60647 0.16616 0.93304 0.0
O284 O 0.60626 0.17985 0.96364 0.0
O285 O 0.52353 0.13605 0.91338 0.0
C286 C 0.93867 0.45863 0.93869 0.0
O287 O 0.92223 0.46423 0.95833 0.0
O288 O 0.88108 0.45413 0.89142 0.0
Zn289 Zn 0.88866 0.42382 0.9032 0.0
O290 O 0.86851 0.40021 0.94913 0.0
C291 C 0.85682 0.39631 0.83681 0.0
O292 O 0.84539 0.41072 0.84605 0.0
O293 O 0.92879 0.44069 0.91223 0.0
C294 C 0.84289 0.38833 0.95381 0.0
O295 O 0.82798 0.39311 0.92942 0.0
C296 C 0.86742 0.46288 0.90926 0.0
O297 O 0.85571 0.45189 0.9425 0.0
O298 O 0.87693 0.39906 0.85669 0.0
C299 C 0.5414 0.47702 0.973 0.0
O300 O 0.53834 0.45637 0.99408 0.0
O301 O 0.55739 0.42916 0.92487 0.0
Zn302 Zn 0.58189 0.46868 0.93778 0.0
O303 O 0.60388 0.47371 0.98615 0.0
C304 C 0.61014 0.47531 0.86473 0.0
O305 O 0.59461 0.4488 0.8625 0.0
O306 O 0.55915 0.48606 0.94622 0.0
C307 C 0.62675 0.47475 0.98475 0.0
O308 O 0.63563 0.47119 0.95126 0.0
C309 C 0.56104 0.41004 0.93675 0.0
O310 O 0.58149 0.41565 0.96007 0.0
O311 O 0.60774 0.48782 0.89367 0.0
C312 C 0.58124 0.78602 0.80133 0.0
O313 O 0.56314 0.76945 0.82655 0.0
O314 O 0.51276 0.73619 0.76485 0.0
Zn315 Zn 0.53298 0.77704 0.76378 0.0
O316 O 0.52007 0.79058 0.80811 0.0
C317 C 0.51103 0.77468 0.68631 0.0
O318 O 0.50145 0.74843 0.68986 0.0
O319 O 0.57309 0.79207 0.77054 0.0
C320 C 0.49554 0.78513 0.81067 0.0
O321 O 0.47813 0.77013 0.78368 0.0
C322 C 0.52253 0.72236 0.75025 0.0
O323 O 0.5471 0.73508 0.73529 0.0
O324 O 0.52527 0.79047 0.71362 0.0
C325 C 0.22065 0.80569 0.76482 0.0
O326 O 0.22248 0.80339 0.72711 0.0
O327 O 0.27347 0.78789 0.73646 0.0
Zn328 Zn 0.23721 0.76644 0.76254 0.0
O329 O 0.23734 0.73995 0.80151 0.0
C330 C 0.21432 0.74399 0.68646 0.0
O331 O 0.23883 0.76112 0.67361 0.0
O332 O 0.22646 0.79163 0.78742 0.0
C333 C 0.23405 0.71748 0.78873 0.0
O334 O 0.23247 0.71331 0.75106 0.0
C335 C 0.29563 0.7903 0.74885 0.0
O336 O 0.29586 0.77886 0.78193 0.0
O337 O 0.20908 0.74383 0.7224 0.0
C338 C 0.17828 0.41405 0.82671 0.0
O339 O 0.18606 0.42122 0.7906 0.0
O340 O 0.18836 0.48828 0.81312 0.0
Zn341 Zn 0.20874 0.47179 0.83835 0.0
O342 O 0.22824 0.49191 0.88672 0.0
C343 C 0.23645 0.47764 0.76443 0.0
O344 O 0.21548 0.4782 0.74938 0.0
O345 O 0.18474 0.43239 0.85226 0.0
C346 C 0.25244 0.51164 0.88376 0.0
O347 O 0.26289 0.52007 0.84903 0.0
C348 C 0.16393 0.47443 0.80143 0.0
O349 O 0.15014 0.44825 0.80878 0.0
O350 O 0.23734 0.47459 0.80089 0.0
C351 C 0.48762 0.92659 0.04344 0.0
O352 O 0.47254 0.9098 0.01592 0.0
O353 O 0.43889 0.85567 0.08483 0.0
Zn354 Zn 0.47944 0.87705 0.07679 0.0
O355 O 0.48941 0.86458 0.0279 0.0
C356 C 0.48692 0.86302 0.15503 0.0
O357 O 0.46395 0.86262 0.16172 0.0
O358 O 0.49316 0.9171 0.07329 0.0
C359 C 0.47229 0.85066 0.00172 0.0
O360 O 0.44679 0.84429 0.00587 0.0
C361 C 0.42437 0.86586 0.09497 0.0
O362 O 0.43586 0.89225 0.09992 0.0
O363 O 0.49747 0.86933 0.12136 0.0
C364 C 0.09998 0.52791 0.95698 0.0
O365 O 0.11686 0.52144 0.94055 0.0
O366 O 0.15885 0.54323 0.02257 0.0
Zn367 Zn 0.14786 0.56847 -0.00144 0.0
O368 O 0.17218 0.59158 0.95497 0.0
C369 C 0.15371 0.59203 0.07579 0.0
O370 O 0.15497 0.57072 0.08774 0.0
O371 O 0.10902 0.5472 0.98143 0.0
C372 C 0.19347 0.6136 0.96429 0.0
O373 O 0.20013 0.61844 0.00115 0.0
C374 C 0.18171 0.54431 0.02083 0.0
O375 O 0.20092 0.56248 -0.00161 0.0
O376 O 0.14998 0.59445 0.03994 0.0
C377 C 0.44478 0.53273 0.04526 0.0
O378 O 0.44836 0.55392 0.02508 0.0
O379 O 0.43344 0.5813 0.10532 0.0
Zn380 Zn 0.40759 0.54351 0.08686 0.0
O381 O 0.38631 0.54437 0.0406 0.0
C382 C 0.38276 0.53366 0.16329 0.0
O383 O 0.40312 0.55806 0.17076 0.0
O384 O 0.42807 0.52443 0.07337 0.0
C385 C 0.36383 0.54377 0.04557 0.0
O386 O 0.35492 0.54293 0.08106 0.0
C387 C 0.43226 0.60217 0.09502 0.0
O388 O 0.4149 0.59986 0.06802 0.0
O389 O 0.38119 0.52315 0.1301 0.0
C390 C 0.05659 0.53363 0.52929 0.0
O391 O 0.07266 0.54518 0.49933 0.0
O392 O 0.122 0.59536 0.57465 0.0
Zn393 Zn 0.10755 0.55526 0.56868 0.0
O394 O 0.12356 0.54649 0.52246 0.0
C395 C 0.13649 0.55737 0.63873 0.0
O396 O 0.15144 0.58304 0.62886 0.0
O397 O 0.06704 0.53572 0.56263 0.0
C398 C 0.14669 0.54808 0.5229 0.0
O399 O 0.16175 0.55694 0.55431 0.0
C400 C 0.14071 0.61386 0.55414 0.0
O401 O 0.15058 0.60702 0.52451 0.0
O402 O 0.11657 0.54155 0.61729 0.0
C403 C 0.44327 0.51933 0.56044 0.0
O404 O 0.45633 0.54494 0.54956 0.0
O405 O 0.3757 0.52069 0.6252 0.0
Zn406 Zn 0.41212 0.53852 0.59876 0.0
O407 O 0.41256 0.56059 0.55265 0.0
C408 C 0.43515 0.57381 0.66568 0.0
O409 O 0.4096 0.563 0.6763 0.0
O410 O 0.42251 0.51105 0.58215 0.0
C411 C 0.41251 0.58265 0.55858 0.0
O412 O 0.40982 0.58912 0.59427 0.0
C413 C 0.3539 0.51614 0.60838 0.0
O414 O 0.35458 0.52216 0.57138 0.0
O415 O 0.44088 0.56539 0.63489 0.0
C416 C 0.46244 0.9048 0.50045 0.0
O417 O 0.46467 0.89873 0.5366 0.0
O418 O 0.44452 0.83274 0.51679 0.0
Zn419 Zn 0.4216 0.84825 0.49787 0.0
O420 O 0.39556 0.826 0.45528 0.0
C421 C 0.40415 0.84589 0.57801 0.0
O422 O 0.4256 0.84377 0.58621 0.0
O423 O 0.4454 0.88626 0.47824 0.0
C424 C 0.37095 0.80867 0.46312 0.0
O425 O 0.36324 0.80372 0.49962 0.0
C426 C 0.43666 0.80751 0.51732 0.0
O427 O 0.41321 0.7903 0.50151 0.0
O428 O 0.39936 0.84903 0.54288 0.0
C429 C 0.17516 0.40292 0.27564 0.0
O430 O 0.18957 0.41272 0.24377 0.0
O431 O 0.23585 0.4706 0.28673 0.0
Zn432 Zn 0.19644 0.45933 0.29098 0.0
O433 O 0.18961 0.47897 0.33426 0.0
C434 C 0.19908 0.47368 0.20927 0.0
O435 O 0.2221 0.4735 0.20994 0.0
O436 O 0.17487 0.41925 0.30053 0.0
C437 C 0.16739 0.47928 0.3337 0.0
O438 O 0.15019 0.46695 0.30518 0.0
C439 C 0.25511 0.49379 0.2967 0.0
O440 O 0.2494 0.51091 0.31408 0.0
O441 O 0.18487 0.46804 0.24009 0.0
C442 C 0.55919 0.76566 0.38307 0.0
O443 O 0.54666 0.77842 0.3953 0.0
O444 O 0.50025 0.75975 0.3319 0.0
Zn445 Zn 0.50771 0.72962 0.34559 0.0
O446 O 0.4827 0.70443 0.38657 0.0
C447 C 0.49079 0.70831 0.26722 0.0
O448 O 0.48146 0.72527 0.26546 0.0
O449 O 0.54636 0.74454 0.36229 0.0
C450 C 0.47665 0.71107 0.41868 0.0
O451 O 0.48657 0.7369 0.4269 0.0
C452 C 0.51737 0.77827 0.30961 0.0
O453 O 0.53936 0.77762 0.29957 0.0
O454 O 0.50241 0.70702 0.29805 0.0
C455 C 0.21405 0.80363 0.27601 0.0
O456 O 0.23878 0.81692 0.29032 0.0
O457 O 0.21274 0.73396 0.2144 0.0
Zn458 Zn 0.23349 0.77054 0.23959 0.0
O459 O 0.25423 0.76914 0.28582 0.0
C460 C 0.27603 0.78738 0.18601 0.0
O461 O 0.26952 0.76201 0.19224 0.0
O462 O 0.20756 0.78342 0.25391 0.0
C463 C 0.2454 0.7608 0.31988 0.0
O464 O 0.21951 0.75112 0.32757 0.0
C465 C 0.20017 0.73238 0.18312 0.0
O466 O 0.20069 0.7543 0.16973 0.0
O467 O 0.26212 0.79642 0.20247 0.0
H468 H 0.20638 0.05209 0.04317 0.0
H469 H 0.13814 0.00779 0.12031 0.0
H470 H 0.12322 0.96667 0.08167 0.0
H471 H 0.12724 0.94463 0.02262 0.0
H472 H 0.19479 0.98976 0.94462 0.0
H473 H 0.21241 0.02917 0.9873 0.0
C474 C 0.18838 0.03339 0.05184 0.0
C475 C 0.17323 0.03312 0.08434 0.0
C476 C 0.17971 0.01 0.02922 0.0
C477 C 0.1501 0.00863 0.0953 0.0
C478 C 0.14151 0.98511 0.07315 0.0
C479 C 0.14603 0.96295 0.01521 0.0
C480 C 0.15951 0.96431 0.98025 0.0
C481 C 0.15581 0.98575 0.03954 0.0
C482 C 0.18388 0.9882 0.97118 0.0
C483 C 0.19396 0.01079 0.99553 0.0
H484 H 0.96599 0.13845 0.08954 0.0
H485 H 0.00399 0.0947 0.13504 0.0
H486 H 0.04392 0.12182 0.09432 0.0
H487 H 0.06545 0.1541 0.04033 0.0
H488 H 0.02565 0.19551 0.99255 0.0
H489 H 0.98899 0.17312 0.03978 0.0
C490 C 0.98315 0.13506 0.0911 0.0
C491 C 0.98185 0.11433 0.11501 0.0
C492 C 0.00557 0.15008 0.06678 0.0
C493 C 0.00436 0.11037 0.11666 0.0
C494 C 0.02715 0.1258 0.09326 0.0
C495 C 0.04895 0.15853 0.04059 0.0
C496 C 0.04814 0.17623 0.01265 0.0
C497 C 0.02759 0.1451 0.06731 0.0
C498 C 0.02664 0.18176 0.01345 0.0
C499 C 0.00566 0.16897 0.04046 0.0
H500 H 0.8136 0.87188 0.01803 0.0
H501 H 0.80982 0.82484 0.9173 0.0
H502 H 0.83409 0.80624 0.95245 0.0
H503 H 0.85925 0.80589 0.00973 0.0
H504 H 0.86393 0.85322 0.11045 0.0
H505 H 0.8363 0.86907 0.0773 0.0
C506 C 0.81777 0.85729 0.00392 0.0
C507 C 0.81007 0.84995 0.96497 0.0
C508 C 0.83211 0.84692 0.02413 0.0
C509 C 0.81561 0.83097 0.94717 0.0
C510 C 0.82958 0.82037 0.96721 0.0
C511 C 0.85416 0.81959 0.02457 0.0
C512 C 0.86391 0.82861 0.06234 0.0
C513 C 0.83843 0.82866 0.00535 0.0
C514 C 0.8568 0.84607 0.08129 0.0
C515 C 0.84103 0.85516 0.06234 0.0
H516 H 0.95304 0.09114 0.51173 0.0
H517 H 0.9611 0.17039 0.52526 0.0
H518 H 0.99222 0.18732 0.46999 0.0
H519 H 0.01948 0.18044 0.42091 0.0
H520 H 0.01232 0.10149 0.40862 0.0
H521 H 0.97815 0.08354 0.46007 0.0
C522 C 0.96147 0.11209 0.50251 0.0
C523 C 0.95496 0.12953 0.52287 0.0
C524 C 0.97948 0.12174 0.47092 0.0
C525 C 0.9659 0.15655 0.51027 0.0
C526 C 0.9837 0.16626 0.47866 0.0
C527 C 0.01018 0.1592 0.42906 0.0
C528 C 0.01858 0.14237 0.41108 0.0
C529 C 0.99095 0.14914 0.45917 0.0
C530 C 0.00632 0.11492 0.42209 0.0
C531 C 0.98685 0.10465 0.45161 0.0
H532 H 0.83565 0.84397 0.4183 0.0
H533 H 0.78864 0.84421 0.51678 0.0
H534 H 0.8093 0.82433 0.55741 0.0
H535 H 0.8433 0.81049 0.56649 0.0
H536 H 0.89135 0.81114 0.46887 0.0
H537 H 0.86738 0.82667 0.42639 0.0
C538 C 0.8297 0.8394 0.44853 0.0
C539 C 0.81085 0.84589 0.46451 0.0
C540 C 0.8419 0.8282 0.47199 0.0
C541 C 0.80328 0.83968 0.50373 0.0
C542 C 0.81509 0.8283 0.52706 0.0
C543 C 0.84835 0.81369 0.53583 0.0
C544 C 0.86929 0.80991 0.52101 0.0
C545 C 0.83482 0.82303 0.51171 0.0
C546 C 0.87541 0.81402 0.48113 0.0
C547 C 0.86177 0.823 0.45681 0.0
H548 H 0.08309 0.97699 0.42699 0.0
H549 H 0.16166 0.98302 0.4162 0.0
H550 H 0.18117 0.02147 0.46085 0.0
H551 H 0.17507 0.05083 0.50709 0.0
H552 H 0.09622 0.04406 0.51883 0.0
H553 H 0.07778 0.00856 0.46952 0.0
C554 C 0.10456 0.98691 0.43399 0.0
C555 C 0.12081 0.97696 0.41853 0.0
C556 C 0.11558 0.00875 0.46014 0.0
C557 C 0.14863 0.99015 0.42783 0.0
C558 C 0.15981 0.01211 0.45347 0.0
C559 C 0.15391 0.04177 0.49863 0.0
C560 C 0.137 0.04989 0.51697 0.0
C561 C 0.14333 0.02116 0.47049 0.0
C562 C 0.10967 0.03807 0.50542 0.0
C563 C 0.09907 0.01773 0.47722 0.0
H564 H 0.8457 0.01006 0.05012 0.0
H565 H 0.92251 0.05979 0.99248 0.0
H566 H 0.90656 0.02967 0.93614 0.0
H567 H 0.87152 0.98801 0.90459 0.0
H568 H 0.79434 0.939 0.96191 0.0
H569 H 0.8096 0.97026 0.01672 0.0
C570 C 0.85893 0.0143 0.02521 0.0
C571 C 0.88533 0.03692 0.02562 0.0
C572 C 0.84954 0.9971 0.99277 0.0
C573 C 0.90211 0.04243 0.99291 0.0
C574 C 0.89302 0.02522 0.96069 0.0
C575 C 0.85794 0.98431 0.92888 0.0
C576 C 0.83192 0.96108 0.9292 0.0
C577 C 0.86686 0.00235 0.96046 0.0
C578 C 0.8145 0.9567 0.96084 0.0
C579 C 0.82324 0.9745 0.99235 0.0
H580 H 0.97581 0.83149 0.98409 0.0
H581 H 0.99587 0.77442 0.03566 0.0
H582 H 0.0365 0.79219 0.99507 0.0
H583 H 0.06814 0.82635 0.94887 0.0
H584 H 0.04847 0.8842 0.89901 0.0
H585 H 0.00571 0.86345 0.93479 0.0
C586 C 0.98891 0.82274 0.98626 0.0
C587 C 0.98295 0.80184 0.01316 0.0
C588 C 0.01237 0.83325 0.96324 0.0
C589 C 7e-05 0.79063 0.01536 0.0
C590 C 0.02334 0.80081 0.9922 0.0
C591 C 0.05435 0.83421 0.94543 0.0
C592 C 0.06162 0.85695 0.92156 0.0
C593 C 0.02996 0.82247 0.9666 0.0
C594 C 0.04348 0.86684 0.9174 0.0
C595 C 0.01902 0.85502 0.93791 0.0
H596 H 0.15549 0.20014 0.94638 0.0
H597 H 0.11042 0.12636 0.88 0.0
H598 H 0.13445 0.10652 0.91306 0.0
H599 H 0.16394 0.10812 0.96641 0.0
H600 H 0.2073 0.18133 0.03453 0.0
H601 H 0.1884 0.20345 0.99485 0.0
C602 C 0.15117 0.17986 0.93866 0.0
C603 C 0.13088 0.16461 0.91118 0.0
C604 C 0.16458 0.16836 0.95837 0.0
C605 C 0.12578 0.13848 0.90129 0.0
C606 C 0.13944 0.12706 0.92029 0.0
C607 C 0.16962 0.12906 0.97219 0.0
C608 C 0.18669 0.1429 0.00376 0.0
C609 C 0.15822 0.1415 0.94977 0.0
C610 C 0.19396 0.17009 0.01068 0.0
C611 C 0.18313 0.18276 0.98805 0.0
H612 H 0.97136 0.81939 0.53867 0.0
H613 H 0.02023 0.87667 0.62751 0.0
H614 H 0.0598 0.8953 0.58456 0.0
H615 H 0.07971 0.89711 0.52039 0.0
H616 H 0.03013 0.84041 0.43137 0.0
H617 H 0.99169 0.81966 0.47604 0.0
C618 C 0.99069 0.83584 0.54884 0.0
C619 C 0.99275 0.84674 0.5862 0.0
C620 C 0.01323 0.84661 0.52392 0.0
C621 C 0.01802 0.86796 0.59886 0.0
C622 C 0.04066 0.87865 0.57429 0.0
C623 C 0.06059 0.88002 0.51087 0.0
C624 C 0.0578 0.87043 0.47251 0.0
C625 C 0.03839 0.86839 0.53656 0.0
C626 C 0.03284 0.84829 0.46067 0.0
C627 C 0.01081 0.83642 0.48617 0.0
H628 H 0.10072 0.18032 0.50355 0.0
H629 H 0.16454 0.21387 0.41744 0.0
H630 H 0.19316 0.2037 0.45887 0.0
H631 H 0.19775 0.18025 0.51529 0.0
H632 H 0.13296 0.14396 0.5997 0.0
H633 H 0.10727 0.16072 0.56355 0.0
C634 C 0.12108 0.18587 0.49418 0.0
C635 C 0.13037 0.19752 0.45728 0.0
C636 C 0.13718 0.1793 0.51771 0.0
C637 C 0.1568 0.20459 0.44554 0.0
C638 C 0.17318 0.19877 0.46919 0.0
C639 C 0.17821 0.17637 0.52621 0.0
C640 C 0.16714 0.16054 0.55985 0.0
C641 C 0.16322 0.18533 0.50471 0.0
C642 C 0.14188 0.15591 0.57371 0.0
C643 C 0.12711 0.16539 0.55295 0.0
H644 H 0.82606 0.06078 0.52951 0.0
H645 H 0.86258 0.02956 0.60927 0.0
H646 H 0.83822 0.98512 0.57811 0.0
H647 H 0.80939 0.95626 0.52529 0.0
H648 H 0.77351 0.98771 0.44482 0.0
H649 H 0.79476 0.03097 0.47942 0.0
C650 C 0.8285 0.0442 0.54036 0.0
C651 C 0.84631 0.04856 0.57142 0.0
C652 C 0.81473 0.01881 0.52204 0.0
C653 C 0.84909 0.02679 0.58528 0.0
C654 C 0.83524 0.00139 0.56741 0.0
C655 C 0.80605 0.9725 0.51544 0.0
C656 C 0.79012 0.96886 0.48229 0.0
C657 C 0.81847 -0.00265 0.53527 0.0
C658 C 0.78579 0.99002 0.47015 0.0
C659 C 0.79797 0.01478 0.48988 0.0
H660 H 0.78993 0.26148 0.3148 0.0
H661 H 0.85593 0.2997 0.23248 0.0
H662 H 0.87847 0.33985 0.27363 0.0
H663 H 0.87712 0.36582 0.3291 0.0
H664 H 0.8101 0.32892 0.40993 0.0
H665 H 0.79052 0.28637 0.37355 0.0
C666 C 0.80943 0.27843 0.30616 0.0
C667 C 0.82107 0.27773 0.27043 0.0
C668 C 0.82203 0.30175 0.32956 0.0
C669 C 0.84637 0.29985 0.25964 0.0
C670 C 0.85929 0.32283 0.28314 0.0
C671 C 0.85843 0.34838 0.33916 0.0
C672 C 0.84494 0.35065 0.37191 0.0
C673 C 0.84695 0.32428 0.31759 0.0
C674 C 0.82082 0.32778 0.38463 0.0
C675 C 0.80955 0.30346 0.36376 0.0
H676 H 0.63783 0.50163 0.42043 0.0
H677 H 0.67467 0.46276 0.48392 0.0
H678 H 0.71442 0.48429 0.44126 0.0
H679 H 0.73566 0.50918 0.38068 0.0
H680 H 0.69668 0.54528 0.31561 0.0
H681 H 0.6608 0.52976 0.36422 0.0
C682 C 0.6547 0.49813 0.4254 0.0
C683 C 0.65307 0.48026 0.45493 0.0
C684 C 0.67696 0.5098 0.4001 0.0
C685 C 0.67531 0.4763 0.46124 0.0
C686 C 0.69797 0.48847 0.43668 0.0
C687 C 0.71954 0.51401 0.3775 0.0
C688 C 0.71863 0.52804 0.34433 0.0
C689 C 0.69856 0.50447 0.40517 0.0
C690 C 0.69765 0.5342 0.34061 0.0
C691 C 0.67713 0.52536 0.3684 0.0
H692 H 0.52467 0.16636 0.42163 0.0
H693 H 0.52284 0.12088 0.32008 0.0
H694 H 0.49863 0.1392 0.28409 0.0
H695 H 0.48071 0.17023 0.28001 0.0
H696 H 0.48315 0.21661 0.38075 0.0
H697 H 0.50413 0.19553 0.4186 0.0
C698 C 0.5188 0.16028 0.39172 0.0
C699 C 0.52579 0.14245 0.37352 0.0
C700 C 0.50504 0.17107 0.37101 0.0
C701 C 0.51788 0.13469 0.33479 0.0
C702 C 0.50403 0.14516 0.31413 0.0
C703 C 0.48557 0.17559 0.31036 0.0
C704 C 0.48055 0.19513 0.32742 0.0
C705 C 0.49792 0.16369 0.33175 0.0
C706 C 0.48686 0.20168 0.36684 0.0
C707 C 0.49895 0.1897 0.38848 0.0
H708 H 0.62651 0.45382 0.80744 0.0
H709 H 0.64366 0.53016 0.85848 0.0
H710 H 0.68348 0.55432 0.8168 0.0
H711 H 0.71578 0.5533 0.77071 0.0
H712 H 0.6999 0.47676 0.722 0.0
H713 H 0.65703 0.45322 0.75757 0.0
C714 C 0.63874 0.47578 0.80912 0.0
C715 C 0.63227 0.49011 0.83633 0.0
C716 C 0.66192 0.48951 0.78562 0.0
C717 C 0.64832 0.51858 0.83803 0.0
C718 C 0.67111 0.53244 0.81422 0.0
C719 C 0.70275 0.53153 0.76736 0.0
C720 C 0.71115 0.51678 0.74403 0.0
C721 C 0.67847 0.51804 0.78862 0.0
C722 C 0.69401 0.48857 0.74003 0.0
C723 C 0.66952 0.47507 0.76043 0.0
H724 H 0.45464 0.18572 0.81217 0.0
H725 H 0.50427 0.1987 0.71056 0.0
H726 H 0.52573 0.17573 0.74234 0.0
H727 H 0.53299 0.15536 0.80102 0.0
H728 H 0.48376 0.14355 0.90281 0.0
H729 H 0.45947 0.16252 0.86869 0.0
C730 C 0.46998 0.18334 0.79677 0.0
C731 C 0.47803 0.19418 0.75921 0.0
C732 C 0.48243 0.17044 0.81532 0.0
C733 C 0.49776 0.19066 0.73958 0.0
C734 C 0.51011 0.17759 0.75777 0.0
C735 C 0.51673 0.15664 0.81559 0.0
C736 C 0.51042 0.14829 0.85454 0.0
C737 C 0.503 0.16791 0.79595 0.0
C738 C 0.48921 0.15 0.87293 0.0
C739 C 0.4753 0.16089 0.85347 0.0
H740 H 0.81149 0.38274 0.79441 0.0
H741 H 0.87383 0.36147 0.81233 0.0
H742 H 0.84994 0.32254 0.76909 0.0
H743 H 0.80938 0.29229 0.73149 0.0
H744 H 0.74611 0.31248 0.71559 0.0
H745 H 0.7726 0.35436 0.75246 0.0
C746 C 0.82005 0.3698 0.78854 0.0
C747 C 0.84426 0.37484 0.80696 0.0
C748 C 0.80598 0.34719 0.7642 0.0
C749 C 0.85513 0.35795 0.79878 0.0
C750 C 0.84146 0.33565 0.77411 0.0
C751 C 0.80148 0.30598 0.73564 0.0
C752 C 0.77564 0.29909 0.72117 0.0
C753 C 0.81655 0.32972 0.75747 0.0
C754 C 0.76585 0.31719 0.72661 0.0
C755 C 0.78095 0.34111 0.7478 0.0
H756 H 0.52213 0.37575 0.37369 0.0
H757 H 0.60094 0.38187 0.37993 0.0
H758 H 0.58723 0.34655 0.33087 0.0
H759 H 0.55205 0.31187 0.28953 0.0
H760 H 0.47277 0.30468 0.28405 0.0
H761 H 0.48763 0.34267 0.3291 0.0
C762 C 0.53638 0.36953 0.36405 0.0
C763 C 0.56243 0.38128 0.38073 0.0
C764 C 0.52828 0.34896 0.33603 0.0
C765 C 0.58067 0.37302 0.36784 0.0
C766 C 0.57287 0.35282 0.33974 0.0
C767 C 0.53807 0.31876 0.29783 0.0
C768 C 0.51129 0.3053 0.28365 0.0
C769 C 0.54659 0.34032 0.32414 0.0
C770 C 0.49349 0.31459 0.29466 0.0
C771 C 0.50194 0.33628 0.32051 0.0
H772 H 0.71266 0.14448 0.24044 0.0
H773 H 0.70809 0.21249 0.19305 0.0
H774 H 0.66623 0.19869 0.22927 0.0
H775 H 0.63307 0.16954 0.27838 0.0
H776 H 0.63828 0.10214 0.32681 0.0
H777 H 0.67768 0.11346 0.286 0.0
C778 C 0.70237 0.15613 0.23764 0.0
C779 C 0.71367 0.17963 0.21431 0.0
C780 C 0.67852 0.14833 0.25899 0.0
C781 C 0.69994 0.19438 0.21092 0.0
C782 C 0.67603 0.18656 0.23174 0.0
C783 C 0.64266 0.15717 0.27981 0.0
C784 C 0.63288 0.1352 0.30594 0.0
C785 C 0.66548 0.16393 0.25652 0.0
C786 C 0.64547 0.11928 0.30715 0.0
C787 C 0.66804 0.12574 0.28384 0.0
H788 H 0.84147 0.47008 0.33454 0.0
H789 H 0.77278 0.39006 0.31466 0.0
H790 H 0.75203 0.40939 0.27286 0.0
H791 H 0.75129 0.44939 0.24744 0.0
H792 H 0.81978 0.52943 0.26823 0.0
H793 H 0.8428 0.50962 0.30376 0.0
C794 C 0.82209 0.45682 0.32075 0.0
C795 C 0.80852 0.42873 0.32819 0.0
C796 C 0.81015 0.46807 0.29704 0.0
C797 C 0.7836 0.41179 0.30967 0.0
C798 C 0.77166 0.42283 0.28582 0.0
C799 C 0.77141 0.46249 0.25927 0.0
C800 C 0.78359 0.49086 0.25562 0.0
C801 C 0.78443 0.45101 0.28013 0.0
C802 C 0.8098 0.50752 0.27084 0.0
C803 C 0.82297 0.49623 0.2913 0.0
H804 H 0.61239 0.1432 0.86748 0.0
H805 H 0.65608 0.21184 0.94391 0.0
H806 H 0.69567 0.22989 0.90106 0.0
H807 H 0.71687 0.2274 0.84 0.0
H808 H 0.67234 0.15908 0.76327 0.0
H809 H 0.63414 0.13965 0.80836 0.0
C810 C 0.63061 0.16203 0.87499 0.0
C811 C 0.63118 0.17622 0.90877 0.0
C812 C 0.65314 0.1724 0.8501 0.0
C813 C 0.65503 0.20054 0.91803 0.0
C814 C 0.67768 0.2109 0.89351 0.0
C815 C 0.69892 0.20814 0.83331 0.0
C816 C 0.69745 0.19481 0.79819 0.0
C817 C 0.67682 0.19718 0.85919 0.0
C818 C 0.674 0.16986 0.78998 0.0
C819 C 0.65211 0.15872 0.81574 0.0
H820 H 0.82615 0.47328 0.9232 0.0
H821 H 0.89572 0.49612 0.84928 0.0
H822 H 0.88213 0.52198 0.80774 0.0
H823 H 0.84754 0.53295 0.78757 0.0
H824 H 0.77682 0.50883 0.85948 0.0
H825 H 0.79407 0.48913 0.90689 0.0
C826 C 0.83863 0.4844 0.89849 0.0
C827 C 0.86167 0.48243 0.88903 0.0
C828 C 0.83036 0.4988 0.87408 0.0
C829 C 0.87766 0.49698 0.85691 0.0
C830 C 0.86991 0.51177 0.83307 0.0
C831 C 0.83607 0.52377 0.81389 0.0
C832 C 0.81071 0.52195 0.81958 0.0
C833 C 0.84579 0.51199 0.84058 0.0
C834 C 0.79631 0.51032 0.85415 0.0
C835 C 0.8061 0.49892 0.88124 0.0
H836 H 0.51694 0.39196 0.88982 0.0
H837 H 0.56705 0.36571 0.94852 0.0
H838 H 0.54171 0.3212 0.91766 0.0
H839 H 0.50757 0.29098 0.87042 0.0
H840 H 0.45806 0.31774 0.81108 0.0
H841 H 0.48085 0.36074 0.8461 0.0
C842 C 0.52221 0.37645 0.89615 0.0
C843 C 0.54404 0.38227 0.92117 0.0
C844 C 0.50774 0.35102 0.87807 0.0
C845 C 0.55042 0.36184 0.92926 0.0
C846 C 0.53598 0.33638 0.91155 0.0
C847 C 0.50156 0.3061 0.86541 0.0
C848 C 0.48129 0.30121 0.83789 0.0
C849 C 0.51494 0.33093 0.88536 0.0
C850 C 0.47368 0.32099 0.83194 0.0
C851 C 0.48674 0.34564 0.85189 0.0
H852 H 0.42816 0.60269 0.72285 0.0
H853 H 0.48973 0.60144 0.65076 0.0
H854 H 0.52322 0.64647 0.67415 0.0
H855 H 0.53361 0.68815 0.70918 0.0
H856 H 0.4714 0.69001 0.77899 0.0
H857 H 0.43971 0.64272 0.76262 0.0
C858 C 0.449 0.61204 0.71271 0.0
C859 C 0.45631 0.59882 0.68474 0.0
C860 C 0.46802 0.6382 0.72558 0.0
C861 C 0.48347 0.61124 0.67206 0.0
C862 C 0.50264 0.63705 0.68533 0.0
C863 C 0.51325 0.67811 0.7213 0.0
C864 C 0.50481 0.69273 0.74486 0.0
C865 C 0.49493 0.65105 0.71117 0.0
C866 C 0.47838 0.67933 0.76045 0.0
C867 C 0.4602 0.65228 0.75108 0.0
H868 H 0.40354 0.83017 0.65295 0.0
H869 H 0.35871 0.85035 0.57103 0.0
H870 H 0.32215 0.83692 0.61815 0.0
H871 H 0.30126 0.81596 0.68014 0.0
H872 H 0.34514 0.79439 0.76173 0.0
H873 H 0.38384 0.81212 0.71724 0.0
C874 C 0.38594 0.83198 0.64557 0.0
C875 C 0.38378 0.84103 0.60837 0.0
C876 C 0.36474 0.8238 0.67261 0.0
C877 C 0.36084 0.84328 0.59934 0.0
C878 C 0.33987 0.83555 0.62625 0.0
C879 C 0.31937 0.81532 0.68843 0.0
C880 C 0.32018 0.80359 0.72405 0.0
C881 C 0.34134 0.82521 0.66258 0.0
C882 C 0.34391 0.80318 0.7344 0.0
C883 C 0.36603 0.81326 0.70893 0.0
H884 H 0.10822 0.50659 0.66983 0.0
H885 H 0.18111 0.58431 0.68511 0.0
H886 H 0.19488 0.56604 0.73909 0.0
H887 H 0.18783 0.52729 0.77889 0.0
H888 H 0.11515 0.44943 0.76346 0.0
H889 H 0.09957 0.46863 0.71295 0.0
C890 C 0.12705 0.51959 0.68509 0.0
C891 C 0.14375 0.54669 0.67313 0.0
C892 C 0.13491 0.50895 0.71608 0.0
C893 C 0.16794 0.56332 0.69351 0.0
C894 C 0.17585 0.5529 0.72441 0.0
C895 C 0.16842 0.51456 0.76482 0.0
C896 C 0.15282 0.48689 0.77473 0.0
C897 C 0.15972 0.52563 0.7355 0.0
C898 C 0.12764 0.47076 0.75634 0.0
C899 C 0.11875 0.4817 0.72731 0.0
H900 H 0.3881 0.88027 0.12158 0.0
H901 H 0.39546 0.81057 0.09059 0.0
H902 H 0.34923 0.78025 0.11293 0.0
H903 H 0.30821 0.7734 0.14596 0.0
H904 H 0.30064 0.84271 0.17826 0.0
H905 H 0.34531 0.87325 0.15017 0.0
C906 C 0.3795 0.85845 0.11936 0.0
C907 C 0.39538 0.84775 0.10484 0.0
C908 C 0.3529 0.84103 0.13259 0.0
C909 C 0.38382 0.81941 0.10192 0.0
C910 C 0.35736 0.802 0.11472 0.0
C911 C 0.31617 0.79518 0.14655 0.0
C912 C 0.30124 0.80575 0.16457 0.0
C913 C 0.34195 0.81259 0.13084 0.0
C914 C 0.31176 0.83402 0.16469 0.0
C915 C 0.33736 0.85151 0.14878 0.0
H916 H 0.14885 0.51212 0.07829 0.0
H917 H 0.22821 0.54107 0.02759 0.0
H918 H 0.23988 0.51976 0.08029 0.0
H919 H 0.22883 0.4964 0.1437 0.0
H920 H 0.15009 0.46982 0.19515 0.0
H921 H 0.13694 0.48679 0.13901 0.0
C922 C 0.16862 0.51355 0.07836 0.0
C923 C 0.18772 0.52841 0.04919 0.0
C924 C 0.17541 0.50191 0.10911 0.0
C925 C 0.21318 0.52991 0.04981 0.0
C926 C 0.2199 0.5178 0.08 0.0
C927 C 0.20869 0.49407 0.14244 0.0
C928 C 0.19054 0.48205 0.17374 0.0
C929 C 0.20139 0.50431 0.1103 0.0
C930 C 0.16454 0.47919 0.17165 0.0
C931 C 0.15697 0.48887 0.13953 0.0
H932 H 0.46687 0.70564 0.19762 0.0
H933 H 0.50403 0.66833 0.2642 0.0
H934 H 0.49197 0.63398 0.21401 0.0
H935 H 0.46711 0.61204 0.15472 0.0
H936 H 0.42873 0.64833 0.08872 0.0
H937 H 0.44556 0.6859 0.13488 0.0
C938 C 0.47255 0.69015 0.201 0.0
C939 C 0.48595 0.68933 0.2349 0.0
C940 C 0.46534 0.67026 0.17218 0.0
C941 C 0.49346 0.6693 0.23859 0.0
C942 C 0.48658 0.64962 0.2099 0.0
C943 C 0.46272 0.62835 0.15005 0.0
C944 C 0.44636 0.62717 0.11862 0.0
C945 C 0.47195 0.64954 0.17707 0.0
C946 C 0.44113 0.64863 0.11282 0.0
C947 C 0.45063 0.67006 0.13932 0.0
H948 H 0.12553 0.63392 0.61454 0.0
H949 H 0.18698 0.65758 0.52571 0.0
H950 H 0.21383 0.70197 0.55646 0.0
H951 H 0.22253 0.73143 0.61323 0.0
H952 H 0.16171 0.70651 0.70331 0.0
H953 H 0.13185 0.66537 0.66711 0.0
C954 C 0.1446 0.64891 0.6015 0.0
C955 C 0.15444 0.64225 0.56824 0.0
C956 C 0.16019 0.6741 0.61978 0.0
C957 C 0.17902 0.66207 0.55149 0.0
C958 C 0.19445 0.68743 0.56916 0.0
C959 C 0.20255 0.71726 0.62462 0.0
C960 C 0.19456 0.72186 0.66122 0.0
C961 C 0.18567 0.69329 0.60405 0.0
C962 C 0.16852 0.70334 0.67542 0.0
C963 C 0.15142 0.67975 0.65478 0.0
H964 H 0.24138 0.48501 0.68601 0.0
H965 H 0.28367 0.48023 0.78735 0.0
H966 H 0.32309 0.49028 0.74754 0.0
H967 H 0.34641 0.5026 0.68482 0.0
H968 H 0.30464 0.50796 0.58333 0.0
H969 H 0.2641 0.49529 0.62239 0.0
C970 C 0.25915 0.486 0.69937 0.0
C971 C 0.25959 0.48202 0.73965 0.0
C972 C 0.28188 0.49194 0.67633 0.0
C973 C 0.28276 0.48328 0.75643 0.0
C974 C 0.30537 0.48906 0.7337 0.0
C975 C 0.32839 0.50083 0.67111 0.0
C976 C 0.32864 0.50638 0.63124 0.0
C977 C 0.30526 0.49375 0.69374 0.0
C978 C 0.30505 0.50386 0.61399 0.0
C979 C 0.28186 0.49668 0.63632 0.0
H980 H 0.47661 0.74599 0.62736 0.0
H981 H 0.52769 0.82773 0.66966 0.0
H982 H 0.5112 0.84529 0.61815 0.0
H983 H 0.47946 0.83714 0.56508 0.0
H984 H 0.42689 0.75536 0.52414 0.0
H985 H 0.44718 0.73819 0.57077 0.0
C986 C 0.48437 0.76768 0.6251 0.0
C987 C 0.50315 0.78547 0.65264 0.0
C988 C 0.47449 0.77764 0.59572 0.0
C989 C 0.51307 0.81354 0.64909 0.0
C990 C 0.50364 0.82362 0.61963 0.0
C991 C 0.47266 0.81559 0.56591 0.0
C992 C 0.45149 0.79753 0.54137 0.0
C993 C 0.48392 0.8058 0.59337 0.0
C994 C 0.44301 0.76969 0.54287 0.0
C995 C 0.45454 0.75984 0.56963 0.0
H996 H 0.27092 0.46649 0.24864 0.0
H997 H 0.30158 0.542 0.31129 0.0
H998 H 0.34542 0.55989 0.27851 0.0
H999 H 0.37293 0.55594 0.22663 0.0
H1000 H 0.34082 0.48135 0.16128 0.0
H1001 H 0.29966 0.46117 0.20087 0.0
C1002 C 0.2873 0.48672 0.25566 0.0
C1003 C 0.28287 0.503 0.28207 0.0
C1004 C 0.3121 0.49713 0.23593 0.0
C1005 C 0.30437 0.52911 0.29086 0.0
C1006 C 0.32942 0.53939 0.27204 0.0
C1007 C 0.35713 0.53511 0.22146 0.0
C1008 C 0.35981 0.52026 0.1908 0.0
C1009 C 0.33321 0.52387 0.24366 0.0
C1010 C 0.33915 0.4933 0.18447 0.0
C1011 C 0.31559 0.48176 0.20706 0.0
H1012 H 0.54605 0.81446 0.2528 0.0
H1013 H 0.47278 0.78399 0.32115 0.0
H1014 H 0.45815 0.81002 0.28144 0.0
H1015 H 0.46399 0.83754 0.22323 0.0
H1016 H 0.53634 0.86599 0.15329 0.0
H1017 H 0.55354 0.84475 0.19793 0.0
C1018 C 0.52704 0.81377 0.25943 0.0
C1019 C 0.51041 0.79707 0.28966 0.0
C1020 C 0.51846 0.82825 0.23595 0.0
C1021 C 0.48591 0.79655 0.29789 0.0
C1022 C 0.47748 0.81136 0.27511 0.0
C1023 C 0.48369 0.83943 0.21804 0.0
C1024 C 0.49871 0.8531 0.18474 0.0
C1025 C 0.49325 0.82668 0.24341 0.0
C1026 C 0.52423 0.85537 0.17849 0.0
C1027 C 0.5341 0.84321 0.20399 0.0
H1028 H 0.1947 0.68356 0.20323 0.0
H1029 H 0.1766 0.72411 0.11166 0.0
H1030 H 0.15885 0.68348 0.07143 0.0
H1031 H 0.15135 0.63769 0.06053 0.0
H1032 H 0.16971 0.59707 0.1517 0.0
H1033 H 0.18423 0.63645 0.19393 0.0
C1034 C 0.18669 0.68345 0.17459 0.0
C1035 C 0.18723 0.70694 0.16035 0.0
C1036 C 0.17663 0.66005 0.15148 0.0
C1037 C 0.17656 0.70637 0.1233 0.0
C1038 C 0.16643 0.68315 0.10021 0.0
C1039 C 0.1583 0.63731 0.08976 0.0
C1040 C 0.15967 0.61456 0.10278 0.0
C1041 C 0.16681 0.66006 0.11375 0.0
C1042 C 0.16852 0.61436 0.14086 0.0
C1043 C 0.17692 0.6369 0.16501 0.0
H1044 H 0.1183 0.15062 0.28808 0.0
H1045 H 0.06795 0.15752 0.19999 0.0
H1046 H 0.08591 0.1391 0.15159 0.0
H1047 H 0.11879 0.12475 0.13341 0.0
H1048 H 0.17003 0.1195 0.22169 0.0
H1049 H 0.14862 0.13341 0.27098 0.0
C1050 C 0.11104 0.14793 0.25837 0.0
C1051 C 0.09203 0.15576 0.24762 0.0
C1052 C 0.12172 0.13774 0.23068 0.0
C1053 C 0.0827 0.15184 0.20904 0.0
C1054 C 0.09301 0.14136 0.18132 0.0
C1055 C 0.12504 0.1263 0.16351 0.0
C1056 C 0.14617 0.12131 0.17377 0.0
C1057 C 0.11296 0.13478 0.19167 0.0
C1058 C 0.15397 0.1234 0.21292 0.0
C1059 C 0.14177 0.1314 0.24115 0.0
H1060 H 0.85837 0.97506 0.35928 0.0
H1061 H 0.7868 0.90947 0.30603 0.0
H1062 H 0.79946 0.9333 0.24382 0.0
H1063 H 0.8293 0.97388 0.20553 0.0
H1064 H 0.90043 0.03988 0.25896 0.0
H1065 H 0.88949 0.01467 0.32006 0.0
C1066 C 0.84566 0.96582 0.33401 0.0
C1067 C 0.82158 0.94056 0.33744 0.0
C1068 C 0.85287 0.97979 0.29839 0.0
C1069 C 0.80539 0.92892 0.30431 0.0
C1070 C 0.81258 0.94257 0.2687 0.0
C1071 C 0.84252 0.98273 0.23045 0.0
C1072 C 0.86555 0.00884 0.22768 0.0
C1073 C 0.83602 0.96821 0.26557 0.0
C1074 C 0.88251 0.01988 0.26026 0.0
C1075 C 0.87626 0.00548 0.29526 0.0
H1076 H 0.01393 0.86913 0.14378 0.0
H1077 H 0.9374 0.82401 0.2042 0.0
H1078 H 0.96088 0.83819 0.26653 0.0
H1079 H 0.00327 0.86116 0.30378 0.0
H1080 H 0.07998 0.9048 0.24341 0.0
H1081 H 0.05623 0.89353 0.18113 0.0
C1082 C 0.00234 0.86261 0.17056 0.0
C1083 C 0.97396 0.84546 0.1693 0.0
C1084 C 0.01601 0.87045 0.20631 0.0
C1085 C 0.95928 0.83712 0.20432 0.0
C1086 C 0.97269 0.8452 0.23999 0.0
C1087 C 0.01482 0.86842 0.27704 0.0
C1088 C 0.04338 0.88371 0.27829 0.0
C1089 C 0.00107 0.86152 0.24132 0.0
C1090 C 0.05799 0.89289 0.24331 0.0
C1091 C 0.04443 0.88645 0.20766 0.0
H1092 H 0.87314 0.87193 0.66265 0.0
H1093 H 0.92049 0.84989 0.73659 0.0
H1094 H 0.9058 0.86467 0.79366 0.0
H1095 H 0.87588 0.87922 0.82293 0.0
H1096 H 0.82619 0.89846 0.7494 0.0
H1097 H 0.84567 0.88965 0.69173 0.0
C1098 C 0.88063 0.87078 0.69117 0.0
C1099 C 0.89774 0.85964 0.69539 0.0
C1100 C 0.87148 0.87859 0.72395 0.0
C1101 C 0.90716 0.85821 0.73258 0.0
C1102 C 0.89872 0.8666 0.76524 0.0
C1103 C 0.86957 0.88189 0.7943 0.0
C1104 C 0.84943 0.88927 0.7905 0.0
C1105 C 0.88031 0.87611 0.76134 0.0
C1106 C 0.84152 0.89261 0.75316 0.0
C1107 C 0.85261 0.88753 0.72016 0.0
H1108 H 0.15401 0.03169 0.68192 0.0
H1109 H 0.14056 0.08294 0.7606 0.0
H1110 H 0.13012 0.04997 0.81296 0.0
H1111 H 0.12728 0.00775 0.83705 0.0
H1112 H 0.14175 0.95742 0.75781 0.0
H1113 H 0.14927 0.98897 0.70496 0.0
C1114 C 0.14867 0.03567 0.71045 0.0
C1115 C 0.14827 0.05987 0.71738 0.0
C1116 C 0.14298 0.01684 0.74037 0.0
C1117 C 0.14109 0.06452 0.75448 0.0
C1118 C 0.13518 0.0457 0.78445 0.0
C1119 C 0.13188 0.00358 0.80816 0.0
C1120 C 0.13411 0.98032 0.8015 0.0
C1121 C 0.13644 0.02197 0.77784 0.0
C1122 C 0.14006 0.97522 0.76386 0.0
C1123 C 0.14437 0.99326 0.73357 0.0
H1124 H 0.97795 0.14694 0.70061 0.0
H1125 H 0.91451 0.08242 0.76834 0.0
H1126 H 0.94541 0.09451 0.82368 0.0
H1127 H 0.98977 0.12497 0.85377 0.0
H1128 H 0.05283 0.18952 0.78543 0.0
H1129 H 0.02272 0.17566 0.72934 0.0
C1130 C 0.97086 0.13542 0.72741 0.0
C1131 C 0.94389 0.11396 0.73043 0.0
C1132 C 0.98865 0.14251 0.75905 0.0
C1133 C 0.93515 0.09909 0.76526 0.0
C1134 C 0.9528 0.10602 0.79695 0.0
C1135 C -0.003 0.13588 0.82653 0.0
C1136 C 0.02346 0.15838 0.82396 0.0
C1137 C 0.9795 0.12792 0.79432 0.0
C1138 C 0.03252 0.17221 0.78836 0.0
C1139 C 0.01531 0.16434 0.75622 0.0
H1140 H 0.74775 0.45643 0.58825 0.0
H1141 H 0.82786 0.49637 0.63959 0.0
H1142 H 0.84281 0.47428 0.59316 0.0
H1143 H 0.83414 0.44584 0.53597 0.0
H1144 H 0.75468 0.40667 0.48282 0.0
H1145 H 0.73844 0.42598 0.53233 0.0
C1146 C 0.76842 0.46017 0.58942 0.0
C1147 C 0.78669 0.47822 0.61719 0.0
C1148 C 0.77704 0.44754 0.56235 0.0
C1149 C 0.8134 0.48276 0.61836 0.0
C1150 C 0.822 0.4701 0.59184 0.0
C1151 C 0.81317 0.44126 0.53535 0.0
C1152 C 0.79572 0.42496 0.50557 0.0
C1153 C 0.80412 0.45277 0.56342 0.0
C1154 C 0.76859 0.41922 0.50536 0.0
C1155 C 0.7593 0.43033 0.53359 0.0
H1156 H 0.52611 0.33233 0.68388 0.0
H1157 H 0.46051 0.26593 0.6218 0.0
H1158 H 0.47535 0.29197 0.56155 0.0
H1159 H 0.50501 0.33441 0.52742 0.0
H1160 H 0.56982 0.40155 0.58941 0.0
H1161 H 0.55728 0.37426 0.64879 0.0
C1162 C 0.51522 0.32344 0.6571 0.0
C1163 C 0.49214 0.29729 0.6574 0.0
C1164 C 0.5236 0.33869 0.62262 0.0
C1165 C 0.47825 0.28609 0.62244 0.0
C1166 C 0.48669 0.30097 0.58796 0.0
C1167 C 0.51655 0.34307 0.55382 0.0
C1168 C 0.53819 0.37005 0.55403 0.0
C1169 C 0.50904 0.32744 0.58787 0.0
C1170 C 0.55298 0.38087 0.58849 0.0
C1171 C 0.5458 0.36529 0.62247 0.0
H1172 H 0.64033 0.15933 0.48033 0.0
H1173 H 0.56847 0.12466 0.55238 0.0
H1174 H 0.59621 0.14782 0.6091 0.0
H1175 H 0.641 0.17544 0.63891 0.0
H1176 H 0.71309 0.20828 0.56754 0.0
H1177 H 0.68505 0.18849 0.50977 0.0
C1178 C 0.63069 0.15702 0.50837 0.0
C1179 C 0.60238 0.14017 0.51214 0.0
C1180 C 0.6468 0.17001 0.54099 0.0
C1181 C 0.59024 0.13737 0.5487 0.0
C1182 C 0.60608 0.15061 0.58117 0.0
C1183 C 0.6506 0.17856 0.61067 0.0
C1184 C 0.6791 0.19324 0.60756 0.0
C1185 C 0.63441 0.16663 0.57775 0.0
C1186 C 0.69119 0.19697 0.57075 0.0
C1187 C 0.67518 0.18562 0.53772 0.0
H1188 H 0.52794 0.20412 0.00897 0.0
H1189 H 0.55963 0.16043 0.07248 0.0
H1190 H 0.55004 0.17555 0.13384 0.0
H1191 H 0.52958 0.19825 0.16927 0.0
H1192 H 0.49535 0.23963 0.10579 0.0
H1193 H 0.50923 0.2285 0.0445 0.0
C1194 C 0.53307 0.19818 0.03621 0.0
C1195 C 0.5444 0.18109 0.03616 0.0
C1196 C 0.52691 0.2064 0.07136 0.0
C1197 C 0.55078 0.17345 0.07173 0.0
C1198 C 0.54528 0.18207 0.10682 0.0
C1199 C 0.52544 0.20514 0.14207 0.0
C1200 C 0.51136 0.21967 0.1421 0.0
C1201 C 0.53288 0.19812 0.10697 0.0
C1202 C 0.50604 0.22831 0.10657 0.0
C1203 C 0.51395 0.22193 0.07151 0.0
H1204 H 0.86158 0.35662 0.98315 0.0
H1205 H 0.79446 0.37168 0.99058 0.0
H1206 H 0.77242 0.33545 0.03909 0.0
H1207 H 0.7726 0.29973 0.07974 0.0
H1208 H 0.83873 0.28325 0.06871 0.0
H1209 H 0.8606 0.31957 0.02088 0.0
C1210 C 0.84221 0.3521 0.99562 0.0
C1211 C 0.82981 0.36701 0.98379 0.0
C1212 C 0.82938 0.33083 0.02255 0.0
C1213 C 0.80444 0.36054 -0.00054 0.0
C1214 C 0.79184 0.33983 0.02711 0.0
C1215 C 0.79172 0.304 0.0667 0.0
C1216 C 0.80404 0.28885 0.07795 0.0
C1217 C 0.80413 0.32482 0.03886 0.0
C1218 C 0.82872 0.2945 0.06054 0.0
C1219 C 0.84135 0.31539 0.03331 0.0
H1220 H 0.61628 0.48766 0.05619 0.0
H1221 H 0.67609 0.47769 0.9922 0.0
H1222 H 0.70581 0.49206 0.04899 0.0
H1223 H 0.71567 0.50938 0.11597 0.0
H1224 H 0.65605 0.52021 0.17906 0.0
H1225 H 0.62545 0.50352 0.12347 0.0
C1226 C 0.63573 0.48844 0.05468 0.0
C1227 C 0.64396 0.4817 0.01991 0.0
C1228 C 0.65285 0.497 0.08726 0.0
C1229 C 0.66925 0.48284 0.01855 0.0
C1230 C 0.6863 0.49109 0.05101 0.0
C1231 C 0.69592 0.50795 0.11764 0.0
C1232 C 0.68825 0.51618 0.1516 0.0
C1233 C 0.67845 0.49853 0.08539 0.0
C1234 C 0.66258 0.51418 0.15324 0.0
C1235 C 0.64502 0.50461 0.12146 0.0
H1236 H 0.44088 0.8195 0.94181 0.0
H1237 H 0.52333 0.86035 0.98483 0.0
H1238 H 0.53768 0.84381 0.92951 0.0
H1239 H 0.52687 0.81738 0.86951 0.0
H1240 H 0.44453 0.7764 0.82615 0.0
H1241 H 0.43015 0.7934 0.88108 0.0
C1242 C 0.46201 0.82485 0.93906 0.0
C1243 C 0.48097 0.84111 0.96751 0.0
C1244 C 0.47016 0.81521 0.90717 0.0
C1245 C 0.50827 0.84784 0.96343 0.0
C1246 C 0.51652 0.83838 0.93179 0.0
C1247 C 0.50576 0.81215 0.872 0.0
C1248 C 0.48681 0.79558 0.84376 0.0
C1249 C 0.49763 0.82198 0.9036 0.0
C1250 C 0.45956 0.78909 0.84747 0.0
C1251 C 0.45131 0.7988 0.87888 0.0
H1252 H 0.24669 0.72115 0.8655 0.0
H1253 H 0.20893 0.66342 0.77242 0.0
H1254 H 0.19482 0.62585 0.81811 0.0
H1255 H 0.18965 0.60944 0.88543 0.0
H1256 H 0.22858 0.66721 0.97821 0.0
H1257 H 0.24606 0.70457 0.93171 0.0
C1258 C 0.23561 0.70034 0.85521 0.0
C1259 C 0.22856 0.69508 0.81578 0.0
C1260 C 0.22768 0.6788 0.8816 0.0
C1261 C 0.21455 0.66803 0.80269 0.0
C1262 C 0.20637 0.64651 0.82881 0.0
C1263 C 0.20227 0.63018 0.89539 0.0
C1264 C 0.20748 0.63551 0.93527 0.0
C1265 C 0.2123 0.65165 0.86847 0.0
C1266 C 0.22415 0.66249 0.94768 0.0
C1267 C 0.23406 0.68393 0.92113 0.0
H1268 H 0.31066 0.53011 0.04538 0.0
H1269 H 0.37994 0.55518 0.96997 0.0
H1270 H 0.35195 0.5506 0.91352 0.0
H1271 H 0.30724 0.53599 0.88524 0.0
H1272 H 0.23718 0.50773 0.9599 0.0
H1273 H 0.26614 0.51749 0.01715 0.0
C1274 C 0.3197 0.53484 0.01664 0.0
C1275 C 0.3473 0.5428 0.01183 0.0
C1276 C 0.30335 0.53158 0.98422 0.0
C1277 C 0.35869 0.54878 0.9744 0.0
C1278 C 0.34272 0.54622 0.94212 0.0
C1279 C 0.29835 0.53241 0.91405 0.0
C1280 C 0.27013 0.52111 0.91837 0.0
C1281 C 0.31494 0.53716 0.94663 0.0
C1282 C 0.25887 0.51632 0.95587 0.0
C1283 C 0.27539 0.52181 0.98857 0.0
H1284 H 0.11911 0.5264 0.45585 0.0
H1285 H 0.19437 0.54765 0.5144 0.0
H1286 H 0.20784 0.52899 0.46049 0.0
H1287 H 0.19745 0.50509 0.39782 0.0
H1288 H 0.12179 0.48345 0.3401 0.0
H1289 H 0.10936 0.50386 0.39264 0.0
C1290 C 0.13854 0.52712 0.4568 0.0
C1291 C 0.15564 0.53832 0.48923 0.0
C1292 C 0.14606 0.51616 0.4259 0.0
C1293 C 0.18077 0.53909 0.48985 0.0
C1294 C 0.18848 0.52838 0.45905 0.0
C1295 C 0.17829 0.50492 0.39665 0.0
C1296 C 0.16054 0.49261 0.36511 0.0
C1297 C 0.17116 0.51661 0.42711 0.0
C1298 C 0.13581 0.49266 0.36406 0.0
C1299 C 0.12866 0.50435 0.3941 0.0
H1300 H 0.42409 0.63514 0.56427 0.0
H1301 H 0.41672 0.5749 0.48123 0.0
H1302 H 0.43374 0.60913 0.4299 0.0
H1303 H 0.45438 0.65663 0.40994 0.0
H1304 H 0.46351 0.71748 0.4931 0.0
H1305 H 0.44185 0.68241 0.54301 0.0
C1306 C 0.42584 0.62939 0.53484 0.0
C1307 C 0.41935 0.60252 0.52669 0.0
C1308 C 0.43615 0.64931 0.50558 0.0
C1309 C 0.42173 0.59545 0.48838 0.0
C1310 C 0.43152 0.61503 0.459 0.0
C1311 C 0.45145 0.66227 0.43888 0.0
C1312 C 0.46087 0.68972 0.44785 0.0
C1313 C 0.4394 0.64211 0.4675 0.0
C1314 C 0.45663 0.69655 0.48543 0.0
C1315 C 0.44429 0.6765 0.51402 0.0
H1316 H 0.3159 0.77987 0.4705 0.0
H1317 H 0.38013 0.81203 0.38492 0.0
H1318 H 0.34657 0.79809 0.33297 0.0
H1319 H 0.29955 0.7802 0.31223 0.0
H1320 H 0.23517 0.74943 0.39752 0.0
H1321 H 0.26833 0.75926 0.44926 0.0
C1322 C 0.32257 0.78352 0.44047 0.0
C1323 C 0.35052 0.79717 0.43166 0.0
C1324 C 0.30318 0.77591 0.41074 0.0
C1325 C 0.35877 0.80172 0.39256 0.0
C1326 C 0.3396 0.79381 0.36282 0.0
C1327 C 0.29266 0.77542 0.34209 0.0
C1328 C 0.2649 0.76433 0.35099 0.0
C1329 C 0.31182 0.78145 0.37164 0.0
C1330 C 0.2564 0.7581 0.38984 0.0
C1331 C 0.27536 0.76376 0.41945 0.0
H1332 H 0.29598 0.17632 0.12523 0.0
H1333 H 0.27846 0.11599 0.21403 0.0
H1334 H 0.32621 0.13961 0.23333 0.0
H1335 H 0.37302 0.17678 0.22407 0.0
H1336 H 0.39047 0.23695 0.13502 0.0
H1337 H 0.34254 0.21396 0.11686 0.0
C1338 C 0.30255 0.16833 0.14886 0.0
C1339 C 0.28366 0.14436 0.16806 0.0
C1340 C 0.33002 0.18196 0.15976 0.0
C1341 C 0.29256 0.13437 0.1987 0.0
C1342 C 0.31987 0.14786 0.20976 0.0
C1343 C 0.36636 0.18493 0.20075 0.0
C1344 C 0.38535 0.20852 0.18087 0.0
C1345 C 0.33879 0.17158 0.19035 0.0
C1346 C 0.37632 0.21881 0.15079 0.0
C1347 C 0.34891 0.20567 0.14034 0.0
H1348 H 0.82788 0.18062 0.19637 0.0
H1349 H 0.80031 0.15423 0.07915 0.0
H1350 H 0.82005 0.12465 0.08101 0.0
H1351 H 0.84633 0.10744 0.11512 0.0
H1352 H 0.8742 0.13423 0.23214 0.0
H1353 H 0.85294 0.16242 0.23113 0.0
C1354 C 0.82611 0.16837 0.1712 0.0
C1355 C 0.81275 0.16976 0.13758 0.0
C1356 C 0.83755 0.15149 0.17242 0.0
C1357 C 0.81053 0.15361 0.10537 0.0
C1358 C 0.82183 0.13669 0.10639 0.0
C1359 C 0.84766 0.11933 0.14051 0.0
C1360 C 0.86196 0.1188 0.17361 0.0
C1361 C 0.83555 0.13564 0.13966 0.0
C1362 C 0.86341 0.13431 0.20624 0.0
C1363 C 0.85128 0.15047 0.20568 0.0
H1364 H 0.82137 0.61942 0.12646 0.0
H1365 H 0.79634 0.63471 0.23759 0.0
H1366 H 0.82237 0.6835 0.2256 0.0
H1367 H 0.85197 0.72179 0.18356 0.0
H1368 H 0.87728 0.70667 0.07257 0.0
H1369 H 0.85136 0.65783 0.08459 0.0
C1370 C 0.82162 0.63341 0.14808 0.0
C1371 C 0.80691 0.62341 0.18282 0.0
C1372 C 0.83665 0.66147 0.14105 0.0
C1373 C 0.80749 0.64184 0.21056 0.0
C1374 C 0.82236 0.66977 0.20375 0.0
C1375 C 0.85182 0.70783 0.16197 0.0
C1376 C 0.8665 0.71788 0.12723 0.0
C1377 C 0.83695 0.6798 0.16908 0.0
C1378 C 0.86615 0.69949 0.0996 0.0
C1379 C 0.85133 0.67154 0.10643 0.0
H1380 H 0.14333 0.37658 0.33786 0.0
H1381 H 0.17377 0.36277 0.23041 0.0
H1382 H 0.15118 0.31418 0.24446 0.0
H1383 H 0.12452 0.27598 0.28853 0.0
H1384 H 0.09459 0.28995 0.39636 0.0
H1385 H 0.11514 0.33813 0.38065 0.0
C1386 C 0.14495 0.36295 0.31741 0.0
C1387 C 0.16037 0.37334 0.28326 0.0
C1388 C 0.13204 0.33507 0.32573 0.0
C1389 C 0.16212 0.35535 0.25699 0.0
C1390 C 0.14922 0.32755 0.265 0.0
C1391 C 0.12231 0.28951 0.3085 0.0
C1392 C 0.10816 0.27937 0.34367 0.0
C1393 C 0.13437 0.31724 0.29947 0.0
C1394 C 0.10545 0.2972 0.36914 0.0
C1395 C 0.11724 0.32478 0.36023 0.0
H1396 H 0.59447 0.81398 0.41658 0.0
H1397 H 0.58975 0.7422 0.36616 0.0
H1398 H 0.6386 0.76154 0.37453 0.0
H1399 H 0.68295 0.79955 0.39363 0.0
H1400 H 0.68782 0.87172 0.44289 0.0
H1401 H 0.63865 0.85144 0.43755 0.0
C1402 C 0.60408 0.80248 0.40769 0.0
C1403 C 0.58848 0.77675 0.39064 0.0
C1404 C 0.63226 0.81383 0.41218 0.0
C1405 C 0.60129 0.76212 0.37923 0.0
C1406 C 0.62925 0.77316 0.38396 0.0
C1407 C 0.67326 0.81081 0.40336 0.0
C1408 C 0.68908 0.83714 0.41845 0.0
C1409 C 0.64498 0.79912 0.39998 0.0
C1410 C 0.67616 0.85143 0.43099 0.0
C1411 C 0.64802 0.83986 0.42797 0.0
H1412 H 0.22108 0.84589 0.32143 0.0
H1413 H 0.16153 0.78021 0.25099 0.0
H1414 H 0.12821 0.79411 0.2652 0.0
H1415 H 0.11602 0.82509 0.29692 0.0
H1416 H 0.17549 0.89104 0.367 0.0
H1417 H 0.20871 0.87676 0.35367 0.0
C1418 C 0.20081 0.83459 0.30922 0.0
C1419 C 0.19388 0.81207 0.28515 0.0
C1420 C 0.18169 0.84272 0.31742 0.0
C1421 C 0.16748 0.79766 0.26959 0.0
C1422 C 0.14837 0.80557 0.27769 0.0
C1423 C 0.13622 0.83633 0.30938 0.0
C1424 C 0.14322 0.85911 0.33289 0.0
C1425 C 0.15526 0.8281 0.30148 0.0
C1426 C 0.16953 0.87344 0.34874 0.0
C1427 C 0.18857 0.8653 0.34113 0.0
H1428 H 0.70057 0.83215 0.86432 0.0
H1429 H 0.71909 0.88082 0.7603 0.0
H1430 H 0.67091 0.85776 0.74341 0.0
H1431 H 0.62346 0.82441 0.75882 0.0
H1432 H 0.60505 0.77611 0.86323 0.0
H1433 H 0.65331 0.79834 0.87914 0.0
C1434 C 0.69411 0.83772 0.83792 0.0
C1435 C 0.71344 0.85825 0.81369 0.0
C1436 C 0.66639 0.82442 0.8284 0.0
C1437 C 0.70467 0.86514 0.77954 0.0
C1438 C 0.6771 0.85195 0.76983 0.0
C1439 C 0.62999 0.81863 0.78496 0.0
C1440 C 0.61063 0.79865 0.80981 0.0
C1441 C 0.65778 0.83163 0.79412 0.0
C1442 C 0.61948 0.79146 0.84359 0.0
C1443 C 0.64709 0.80418 0.85277 0.0
H1444 H 0.21751 0.81757 0.84072 0.0
H1445 H 0.20184 0.83398 0.72388 0.0
H1446 H 0.1842 0.86219 0.74911 0.0
H1447 H 0.1723 0.88142 0.80407 0.0
H1448 H 0.18827 0.86573 0.92107 0.0
H1449 H 0.20679 0.83808 0.89596 0.0
C1450 C 0.21029 0.82737 0.82077 0.0
C1451 C 0.21091 0.82355 0.78047 0.0
C1452 C 0.20019 0.84366 0.83546 0.0
C1453 C 0.2016 0.83652 0.75503 0.0
C1454 C 0.19146 0.85265 0.76942 0.0
C1455 C 0.17985 0.87199 0.82415 0.0
C1456 C 0.17877 0.87554 0.8644 0.0
C1457 C 0.19051 0.85622 0.80955 0.0
C1458 C 0.18884 0.86333 0.88994 0.0
C1459 C 0.1994 0.84748 0.87561 0.0
H1460 H 0.16405 0.39272 0.89952 0.0
H1461 H 0.16025 0.37017 0.77893 0.0
H1462 H 0.13885 0.32239 0.7973 0.0
H1463 H 0.12237 0.28722 0.84739 0.0
H1464 H 0.12622 0.30936 0.96814 0.0
H1465 H 0.14655 0.35719 0.9498 0.0
C1466 C 0.1584 0.37735 0.87722 0.0
C1467 C 0.16381 0.38504 0.8379 0.0
C1468 C 0.14627 0.34988 0.88799 0.0
C1469 C 0.15638 0.36485 0.80941 0.0
C1470 C 0.14417 0.33751 0.81987 0.0
C1471 C 0.12764 0.30246 0.86978 0.0
C1472 C 0.12288 0.29471 0.90911 0.0
C1473 C 0.13926 0.32984 0.85907 0.0
C1474 C 0.12972 0.31476 0.93766 0.0
C1475 C 0.14133 0.34212 0.9272 0.0
H1476 H 0.85199 0.69592 0.59599 0.0
H1477 H 0.8922 0.73649 0.70217 0.0
H1478 H 0.87576 0.69269 0.73416 0.0
H1479 H 0.84977 0.64286 0.73222 0.0
H1480 H 0.80943 0.60235 0.62607 0.0
H1481 H 0.82613 0.64614 0.59399 0.0
C1482 C 0.85722 0.69521 0.6261 0.0
C1483 C 0.87331 0.71949 0.64658 0.0
C1484 C 0.84764 0.66995 0.64442 0.0
C1485 C 0.87984 0.71814 0.68564 0.0
C1486 C 0.87044 0.69308 0.70402 0.0
C1487 C 0.84462 0.64358 0.70207 0.0
C1488 C 0.82836 0.61932 0.68165 0.0
C1489 C 0.85428 0.66886 0.68372 0.0
C1490 C 0.8219 0.62069 0.64256 0.0
C1491 C 0.83145 0.64574 0.62413 0.0
H1492 H 0.26245 0.16226 0.70998 0.0
H1493 H 0.27184 0.13883 0.59426 0.0
H1494 H 0.32084 0.16021 0.60396 0.0
H1495 H 0.36095 0.18528 0.64534 0.0
H1496 H 0.35156 0.20871 0.76107 0.0
H1497 H 0.30259 0.1875 0.75126 0.0
C1498 C 0.2752 0.16187 0.68682 0.0
C1499 C 0.26347 0.14895 0.65147 0.0
C1500 C 0.30335 0.17412 0.69261 0.0
C1501 C 0.28031 0.14863 0.62179 0.0
C1502 C 0.30835 0.16083 0.62731 0.0
C1503 C 0.34821 0.18573 0.66847 0.0
C1504 C 0.35993 0.19854 0.70389 0.0
C1505 C 0.32007 0.17356 0.66263 0.0
C1506 C 0.3431 0.19897 0.7335 0.0
C1507 C 0.31507 0.18687 0.72792 0.0
H1508 H 0.87194 0.17384 0.62256 0.0
H1509 H 0.82493 0.11263 0.7084 0.0
H1510 H 0.79571 0.1323 0.71728 0.0
H1511 H 0.78301 0.1663 0.69995 0.0
H1512 H 0.82984 0.22742 0.61392 0.0
H1513 H 0.85961 0.20828 0.60588 0.0
C1514 C 0.85537 0.16485 0.64332 0.0
C1515 C 0.85062 0.14177 0.66473 0.0
C1516 C 0.83855 0.17617 0.64819 0.0
C1517 C 0.82904 0.13038 0.69149 0.0
C1518 C 0.81228 0.14159 0.69659 0.0
C1519 C 0.79973 0.17547 0.67944 0.0
C1520 C 0.80412 0.19822 0.65751 0.0
C1521 C 0.81676 0.16438 0.67494 0.0
C1522 C 0.82595 0.20987 0.63115 0.0
C1523 C 0.843 0.19895 0.62652 0.0
H1524 H 0.02833 0.52251 0.46163 0.0
H1525 H 0.01791 0.50766 0.5852 0.0
H1526 H 0.96894 0.47913 0.57637 0.0
H1527 H 0.92918 0.45784 0.53357 0.0
H1528 H 0.93958 0.47256 0.40997 0.0
H1529 H 0.98848 0.50167 0.4189 0.0
C1530 C 0.01536 0.51313 0.48667 0.0
C1531 C 0.02681 0.51721 0.524 0.0
C1532 C 0.98722 0.49664 0.4814 0.0
C1533 C 0.00967 0.50486 0.55611 0.0
C1534 C 0.98164 0.4885 0.55111 0.0
C1535 C 0.94212 0.46739 0.50856 0.0
C1536 C 0.93071 0.46296 0.47117 0.0
C1537 C 0.97022 0.48413 0.51387 0.0
C1538 C 0.9478 0.4756 0.4391 0.0
C1539 C 0.97579 0.49226 0.44416 0.0
H1540 H 0.48661 0.53111 0.51448 0.0
H1541 H 0.42277 0.46605 0.58102 0.0
H1542 H 0.44106 0.43644 0.5649 0.0
H1543 H 0.47626 0.42964 0.5341 0.0
H1544 H 0.54027 0.49508 0.46821 0.0
H1545 H 0.52069 0.52382 0.4818 0.0
C1546 C 0.47659 0.51042 0.52535 0.0
C1547 C 0.45344 0.50089 0.54909 0.0
C1548 C 0.48727 0.49355 0.51616 0.0
C1549 C 0.44067 0.47396 0.56276 0.0
C1550 C 0.45113 0.457 0.55359 0.0
C1551 C 0.48584 0.45013 0.5225 0.0
C1552 C 0.50978 0.46019 0.50033 0.0
C1553 C 0.47458 0.46668 0.53064 0.0
C1554 C 0.52189 0.4868 0.48548 0.0
C1555 C 0.51072 0.5033 0.49326 0.0
H1556 H 0.53915 0.02954 0.465 0.0
H1557 H 0.50041 0.00429 0.3529 0.0
H1558 H 0.4741 0.95748 0.37602 0.0
H1559 H 0.46175 0.92385 0.42815 0.0
H1560 H 0.50039 0.94918 0.54031 0.0
H1561 H 0.52712 0.99585 0.51693 0.0
C1562 C 0.52499 0.01381 0.44556 0.0
C1563 C 0.52176 0.02045 0.40726 0.0
C1564 C 0.5099 0.98695 0.45903 0.0
C1565 C 0.5033 -0.00022 0.38252 0.0
C1566 C 0.48823 0.97299 0.3957 0.0
C1567 C 0.47606 0.93955 0.4475 0.0
C1568 C 0.47903 0.93299 0.48596 0.0
C1569 C 0.49132 0.96637 0.43392 0.0
C1570 C 0.49767 0.95362 0.51059 0.0
C1571 C 0.51297 0.98035 0.49725 0.0
H1572 H 0.54459 0.05452 0.04846 0.0
H1573 H 0.50408 0.04062 0.93767 0.0
H1574 H 0.4847 0.99174 0.94565 0.0
H1575 H 0.47967 0.95297 0.98352 0.0
H1576 H 0.5201 0.9667 0.09432 0.0
H1577 H 0.539 0.01561 0.08685 0.0
C1578 C 0.53151 0.04082 0.02606 0.0
C1579 C 0.52588 0.05127 0.9925 0.0
C1580 C 0.52039 0.01268 0.0308 0.0
C1581 C 0.5088 0.03317 0.96381 0.0
C1582 C 0.49769 0.00518 0.96832 0.0
C1583 C 0.49257 0.96663 0.0061 0.0
C1584 C 0.49849 0.95616 0.03936 0.0
C1585 C 0.50341 0.99473 0.00162 0.0
C1586 C 0.51522 0.97419 0.06836 0.0
C1587 C 0.52607 0.00219 0.06412 0.0
H1588 H 0.97825 0.45229 0.90363 0.0
H1589 H 0.96549 0.49879 0.99183 0.0
H1590 H 0.01413 0.52434 0.00474 0.0
H1591 H 0.06017 0.53367 0.99113 0.0
H1592 H 0.07355 0.48727 0.90355 0.0
H1593 H 0.02474 0.46154 0.89024 0.0
C1594 C 0.98611 0.46798 0.92571 0.0
C1595 C 0.96821 0.4736 0.9467 0.0
C1596 C 0.0142 0.48267 0.93306 0.0
C1597 C 0.97875 0.494 0.97522 0.0
C1598 C 0.0066 0.50868 0.98263 0.0
C1599 C 0.05248 0.51798 0.96903 0.0
C1600 C 0.07052 0.51246 0.94832 0.0
C1601 C 0.02448 0.50322 0.9617 0.0
C1602 C 0.06013 0.49196 0.91993 0.0
C1603 C 0.03222 0.47722 0.91231 0.0
H1604 H 0.50261 0.46309 0.02846 0.0
H1605 H 0.54312 0.52015 0.93513 0.0
H1606 H 0.51656 0.54216 0.94893 0.0
H1607 H 0.48233 0.54565 0.98805 0.0
H1608 H 0.442 0.48865 0.08153 0.0
H1609 H 0.46801 0.4662 0.067 0.0
C1610 C 0.50561 0.4803 0.01107 0.0
C1611 C 0.52487 0.48996 0.98087 0.0
C1612 C 0.49033 0.49292 0.01919 0.0
C1613 C 0.52846 0.51229 0.9586 0.0
C1614 C 0.51329 0.52492 0.96646 0.0
C1615 C 0.47919 0.5283 0.00522 0.0
C1616 C 0.46028 0.51891 0.03587 0.0
C1617 C 0.49425 0.51548 0.99678 0.0
C1618 C 0.45645 0.49635 0.05779 0.0
C1619 C 0.47132 0.48348 0.04952 0.0
loop_
_geom_bond_atom_site_label_1
_geom_bond_atom_site_label_2
_geom_bond_distance
_geom_bond_site_symmetry_2
_ccdc_geom_bond_type
C0 O1 1.160 . S
C0 O7 1.185 . S
O1 C0 1.160 . S
O2 Zn3 1.899 . S
O2 C10 1.284 . S
Zn3 O2 1.899 . S
Zn3 O4 2.032 . S
Zn3 O7 2.086 . S
Zn3 O12 1.977 . S
O4 Zn3 2.032 . S
O4 C8 1.278 . S
C5 O6 1.203 . S
C5 O12 1.267 . S
O6 C5 1.203 . S
O7 C0 1.185 . S
O7 Zn3 2.086 . S
C8 O4 1.278 . S
C8 O9 1.211 . S
O9 C8 1.211 . S
C10 O2 1.284 . S
C10 O11 1.273 . S
O11 C10 1.273 . S
O12 Zn3 1.977 . S
O12 C5 1.267 . S
C13 O14 1.160 . S
C13 O20 1.185 . S
O14 C13 1.160 . S
O15 Zn16 1.899 . S
O15 C23 1.284 . S
Zn16 O15 1.899 . S
Zn16 O17 2.032 . S
Zn16 O20 2.086 . S
Zn16 O25 1.977 . S
O17 Zn16 2.032 . S
O17 C21 1.278 . S
C18 O19 1.203 . S
C18 O25 1.267 . S
O19 C18 1.203 . S
O20 C13 1.185 . S
O20 Zn16 2.086 . S
C21 O17 1.278 . S
C21 O22 1.211 . S
O22 C21 1.211 . S
C23 O15 1.284 . S
C23 O24 1.273 . S
O24 C23 1.273 . S
O25 Zn16 1.977 . S
O25 C18 1.267 . S
C26 O27 1.160 . S
C26 O33 1.185 . S
O27 C26 1.160 . S
O28 Zn29 1.899 . S
O28 C36 1.284 . S
Zn29 O28 1.899 . S
Zn29 O30 2.032 . S
Zn29 O33 2.086 . S
Zn29 O38 1.977 . S
O30 Zn29 2.032 . S
O30 C34 1.278 . S
C31 O32 1.203 . S
C31 O38 1.267 . S
O32 C31 1.203 . S
O33 C26 1.185 . S
O33 Zn29 2.086 . S
C34 O30 1.278 . S
C34 O35 1.211 . S
O35 C34 1.211 . S
C36 O28 1.284 . S
C36 O37 1.273 . S
O37 C36 1.273 . S
O38 Zn29 1.977 . S
O38 C31 1.267 . S
C39 O40 1.160 . S
C39 O46 1.185 . S
O40 C39 1.160 . S
O41 Zn42 1.899 . S
O41 C49 1.284 . S
Zn42 O41 1.899 . S
Zn42 O43 2.032 . S
Zn42 O46 2.086 . S
Zn42 O51 1.977 . S
O43 Zn42 2.032 . S
O43 C47 1.278 . S
C44 O45 1.203 . S
C44 O51 1.267 . S
O45 C44 1.203 . S
O46 C39 1.185 . S
O46 Zn42 2.086 . S
C47 O43 1.278 . S
C47 O48 1.211 . S
O48 C47 1.211 . S
C49 O41 1.284 . S
C49 O50 1.273 . S
O50 C49 1.273 . S
O51 Zn42 1.977 . S
O51 C44 1.267 . S
C52 O53 1.160 . S
C52 O59 1.185 . S
O53 C52 1.160 . S
O54 Zn55 1.899 . S
O54 C62 1.284 . S
Zn55 O54 1.899 . S
Zn55 O56 2.032 . S
Zn55 O59 2.086 . S
Zn55 O64 1.977 . S
O56 Zn55 2.032 . S
O56 C60 1.278 . S
C57 O58 1.203 . S
C57 O64 1.267 . S
O58 C57 1.203 . S
O59 C52 1.185 . S
O59 Zn55 2.086 . S
C60 O56 1.278 . S
C60 O61 1.211 . S
O61 C60 1.211 . S
C62 O54 1.284 . S
C62 O63 1.273 . S
O63 C62 1.273 . S
O64 Zn55 1.977 . S
O64 C57 1.267 . S
C65 O66 1.160 . S
C65 O72 1.185 . S
O66 C65 1.160 . S
O67 Zn68 1.899 . S
O67 C75 1.284 . S
Zn68 O67 1.899 . S
Zn68 O69 2.032 . S
Zn68 O72 2.086 . S
Zn68 O77 1.977 . S
O69 Zn68 2.032 . S
O69 C73 1.278 . S
C70 O71 1.203 . S
C70 O77 1.267 . S
O71 C70 1.203 . S
O72 C65 1.185 . S
O72 Zn68 2.086 . S
C73 O69 1.278 . S
C73 O74 1.211 . S
O74 C73 1.211 . S
C75 O67 1.284 . S
C75 O76 1.273 . S
O76 C75 1.273 . S
O77 Zn68 1.977 . S
O77 C70 1.267 . S
C78 O79 1.160 . S
C78 O85 1.185 . S
O79 C78 1.160 . S
O80 Zn81 1.899 . S
O80 C88 1.284 . S
Zn81 O80 1.899 . S
Zn81 O82 2.032 . S
Zn81 O85 2.086 . S
Zn81 O90 1.977 . S
O82 Zn81 2.032 . S
O82 C86 1.278 . S
C83 O84 1.203 . S
C83 O90 1.267 . S
O84 C83 1.203 . S
O85 C78 1.185 . S
O85 Zn81 2.086 . S
C86 O82 1.278 . S
C86 O87 1.211 . S
O87 C86 1.211 . S
C88 O80 1.284 . S
C88 O89 1.273 . S
O89 C88 1.273 . S
O90 Zn81 1.977 . S
O90 C83 1.267 . S
C91 O92 1.160 . S
C91 O98 1.185 . S
O92 C91 1.160 . S
O93 Zn94 1.899 . S
O93 C101 1.284 . S
Zn94 O93 1.899 . S
Zn94 O95 2.032 . S
Zn94 O98 2.086 . S
Zn94 O103 1.977 . S
O95 Zn94 2.032 . S
O95 C99 1.278 . S
C96 O97 1.203 . S
C96 O103 1.267 . S
O97 C96 1.203 . S
O98 C91 1.185 . S
O98 Zn94 2.086 . S
C99 O95 1.278 . S
C99 O100 1.211 . S
O100 C99 1.211 . S
C101 O93 1.284 . S
C101 O102 1.273 . S
O102 C101 1.273 . S
O103 Zn94 1.977 . S
O103 C96 1.267 . S
C104 O105 1.160 . S
C104 O111 1.185 . S
O105 C104 1.160 . S
O106 Zn107 1.899 . S
O106 C114 1.284 . S
Zn107 O106 1.899 . S
Zn107 O108 2.032 . S
Zn107 O111 2.086 . S
Zn107 O116 1.977 . S
O108 Zn107 2.032 . S
O108 C112 1.278 . S
C109 O110 1.203 . S
C109 O116 1.267 . S
O110 C109 1.203 . S
O111 C104 1.185 . S
O111 Zn107 2.086 . S
C112 O108 1.278 . S
C112 O113 1.211 . S
O113 C112 1.211 . S
C114 O106 1.284 . S
C114 O115 1.273 . S
O115 C114 1.273 . S
O116 Zn107 1.977 . S
O116 C109 1.267 . S
C117 O118 1.160 . S
C117 O124 1.185 . S
O118 C117 1.160 . S
O119 Zn120 1.899 . S
O119 C127 1.284 . S
Zn120 O119 1.899 . S
Zn120 O121 2.032 . S
Zn120 O124 2.086 . S
Zn120 O129 1.977 . S
O121 Zn120 2.032 . S
O121 C125 1.278 . S
C122 O123 1.203 . S
C122 O129 1.267 . S
O123 C122 1.203 . S
O124 C117 1.185 . S
O124 Zn120 2.086 . S
C125 O121 1.278 . S
C125 O126 1.211 . S
O126 C125 1.211 . S
C127 O119 1.284 . S
C127 O128 1.273 . S
O128 C127 1.273 . S
O129 Zn120 1.977 . S
O129 C122 1.267 . S
C130 O131 1.160 . S
C130 O137 1.185 . S
O131 C130 1.160 . S
O132 Zn133 1.899 . S
O132 C140 1.284 . S
Zn133 O132 1.899 . S
Zn133 O134 2.032 . S
Zn133 O137 2.086 . S
Zn133 O142 1.977 . S
O134 Zn133 2.032 . S
O134 C138 1.278 . S
C135 O136 1.203 . S
C135 O142 1.267 . S
O136 C135 1.203 . S
O137 C130 1.185 . S
O137 Zn133 2.086 . S
C138 O134 1.278 . S
C138 O139 1.211 . S
O139 C138 1.211 . S
C140 O132 1.284 . S
C140 O141 1.273 . S
O141 C140 1.273 . S
O142 Zn133 1.977 . S
O142 C135 1.267 . S
C143 O144 1.160 . S
C143 O150 1.185 . S
O144 C143 1.160 . S
O145 Zn146 1.899 . S
O145 C153 1.284 . S
Zn146 O145 1.899 . S
Zn146 O147 2.032 . S
Zn146 O150 2.086 . S
Zn146 O155 1.977 . S
O147 Zn146 2.032 . S
O147 C151 1.278 . S
C148 O149 1.203 . S
C148 O155 1.267 . S
O149 C148 1.203 . S
O150 C143 1.185 . S
O150 Zn146 2.086 . S
C151 O147 1.278 . S
C151 O152 1.211 . S
O152 C151 1.211 . S
C153 O145 1.284 . S
C153 O154 1.273 . S
O154 C153 1.273 . S
O155 Zn146 1.977 . S
O155 C148 1.267 . S
C156 O157 1.160 . S
C156 O163 1.185 . S
O157 C156 1.160 . S
O158 Zn159 1.899 . S
O158 C166 1.284 . S
Zn159 O158 1.899 . S
Zn159 O160 2.032 . S
Zn159 O163 2.086 . S
Zn159 O168 1.977 . S
O160 Zn159 2.032 . S
O160 C164 1.278 . S
C161 O162 1.203 . S
C161 O168 1.267 . S
O162 C161 1.203 . S
O163 C156 1.185 . S
O163 Zn159 2.086 . S
C164 O160 1.278 . S
C164 O165 1.211 . S
O165 C164 1.211 . S
C166 O158 1.284 . S
C166 O167 1.273 . S
O167 C166 1.273 . S
O168 Zn159 1.977 . S
O168 C161 1.267 . S
C169 O170 1.160 . S
C169 O176 1.185 . S
O170 C169 1.160 . S
O171 Zn172 1.899 . S
O171 C179 1.284 . S
Zn172 O171 1.899 . S
Zn172 O173 2.032 . S
Zn172 O176 2.086 . S
Zn172 O181 1.977 . S
O173 Zn172 2.032 . S
O173 C177 1.278 . S
C174 O175 1.203 . S
C174 O181 1.267 . S
O175 C174 1.203 . S
O176 C169 1.185 . S
O176 Zn172 2.086 . S
C177 O173 1.278 . S
C177 O178 1.211 . S
O178 C177 1.211 . S
C179 O171 1.284 . S
C179 O180 1.273 . S
O180 C179 1.273 . S
O181 Zn172 1.977 . S
O181 C174 1.267 . S
C182 O183 1.160 . S
C182 O189 1.185 . S
O183 C182 1.160 . S
O184 Zn185 1.899 . S
O184 C192 1.284 . S
Zn185 O184 1.899 . S
Zn185 O186 2.032 . S
Zn185 O189 2.086 . S
Zn185 O194 1.977 . S
O186 Zn185 2.032 . S
O186 C190 1.278 . S
C187 O188 1.203 . S
C187 O194 1.267 . S
O188 C187 1.203 . S
O189 C182 1.185 . S
O189 Zn185 2.086 . S
C190 O186 1.278 . S
C190 O191 1.211 . S
O191 C190 1.211 . S
C192 O184 1.284 . S
C192 O193 1.273 . S
O193 C192 1.273 . S
O194 Zn185 1.977 . S
O194 C187 1.267 . S
C195 O196 1.160 . S
C195 O202 1.185 . S
O196 C195 1.160 . S
O197 Zn198 1.899 . S
O197 C205 1.284 . S
Zn198 O197 1.899 . S
Zn198 O199 2.032 . S
Zn198 O202 2.086 . S
Zn198 O207 1.977 . S
O199 Zn198 2.032 . S
O199 C203 1.278 . S
C200 O201 1.203 . S
C200 O207 1.267 . S
O201 C200 1.203 . S
O202 C195 1.185 . S
O202 Zn198 2.086 . S
C203 O199 1.278 . S
C203 O204 1.211 . S
O204 C203 1.211 . S
C205 O197 1.284 . S
C205 O206 1.273 . S
O206 C205 1.273 . S
O207 Zn198 1.977 . S
O207 C200 1.267 . S
C208 O209 1.160 . S
C208 O215 1.185 . S
O209 C208 1.160 . S
O210 Zn211 1.899 . S
O210 C218 1.284 . S
Zn211 O210 1.899 . S
Zn211 O212 2.032 . S
Zn211 O215 2.086 . S
Zn211 O220 1.977 . S
O212 Zn211 2.032 . S
O212 C216 1.278 . S
C213 O214 1.203 . S
C213 O220 1.267 . S
O214 C213 1.203 . S
O215 C208 1.185 . S
O215 Zn211 2.086 . S
C216 O212 1.278 . S
C216 O217 1.211 . S
O217 C216 1.211 . S
C218 O210 1.284 . S
C218 O219 1.273 . S
O219 C218 1.273 . S
O220 Zn211 1.977 . S
O220 C213 1.267 . S
C221 O222 1.160 . S
C221 O228 1.185 . S
O222 C221 1.160 . S
O223 Zn224 1.899 . S
O223 C231 1.284 . S
Zn224 O223 1.899 . S
Zn224 O225 2.032 . S
Zn224 O228 2.086 . S
Zn224 O233 1.977 . S
O225 Zn224 2.032 . S
O225 C229 1.278 . S
C226 O227 1.203 . S
C226 O233 1.267 . S
O227 C226 1.203 . S
O228 C221 1.185 . S
O228 Zn224 2.086 . S
C229 O225 1.278 . S
C229 O230 1.211 . S
O230 C229 1.211 . S
C231 O223 1.284 . S
C231 O232 1.273 . S
O232 C231 1.273 . S
O233 Zn224 1.977 . S
O233 C226 1.267 . S
C234 O235 1.160 . S
C234 O241 1.185 . S
O235 C234 1.160 . S
O236 Zn237 1.899 . S
O236 C244 1.284 . S
Zn237 O236 1.899 . S
Zn237 O238 2.032 . S
Zn237 O241 2.086 . S
Zn237 O246 1.977 . S
O238 Zn237 2.032 . S
O238 C242 1.278 . S
C239 O240 1.203 . S
C239 O246 1.267 . S
O240 C239 1.203 . S
O241 C234 1.185 . S
O241 Zn237 2.086 . S
C242 O238 1.278 . S
C242 O243 1.211 . S
O243 C242 1.211 . S
C244 O236 1.284 . S
C244 O245 1.273 . S
O245 C244 1.273 . S
O246 Zn237 1.977 . S
O246 C239 1.267 . S
C247 O248 1.160 . S
C247 O254 1.185 . S
O248 C247 1.160 . S
O249 Zn250 1.899 . S
O249 C257 1.284 . S
Zn250 O249 1.899 . S
Zn250 O251 2.032 . S
Zn250 O254 2.086 . S
Zn250 O259 1.977 . S
O251 Zn250 2.032 . S
O251 C255 1.278 . S
C252 O253 1.203 . S
C252 O259 1.267 . S
O253 C252 1.203 . S
O254 C247 1.185 . S
O254 Zn250 2.086 . S
C255 O251 1.278 . S
C255 O256 1.211 . S
O256 C255 1.211 . S
C257 O249 1.284 . S
C257 O258 1.273 . S
O258 C257 1.273 . S
O259 Zn250 1.977 . S
O259 C252 1.267 . S
C260 O261 1.160 . S
C260 O267 1.185 . S
O261 C260 1.160 . S
O262 Zn263 1.899 . S
O262 C270 1.284 . S
Zn263 O262 1.899 . S
Zn263 O264 2.032 . S
Zn263 O267 2.086 . S
Zn263 O272 1.977 . S
O264 Zn263 2.032 . S
O264 C268 1.278 . S
C265 O266 1.203 . S
C265 O272 1.267 . S
O266 C265 1.203 . S
O267 C260 1.185 . S
O267 Zn263 2.086 . S
C268 O264 1.278 . S
C268 O269 1.211 . S
O269 C268 1.211 . S
C270 O262 1.284 . S
C270 O271 1.273 . S
O271 C270 1.273 . S
O272 Zn263 1.977 . S
O272 C265 1.267 . S
C273 O274 1.160 . S
C273 O280 1.185 . S
O274 C273 1.160 . S
O275 Zn276 1.899 . S
O275 C283 1.284 . S
Zn276 O275 1.899 . S
Zn276 O277 2.032 . S
Zn276 O280 2.086 . S
Zn276 O285 1.977 . S
O277 Zn276 2.032 . S
O277 C281 1.278 1_556 S
C278 O279 1.203 . S
C278 O285 1.267 . S
O279 C278 1.203 . S
O280 C273 1.185 . S
O280 Zn276 2.086 . S
C281 O277 1.278 1_554 S
C281 O282 1.211 1_554 S
O282 C281 1.211 1_556 S
C283 O275 1.284 . S
C283 O284 1.273 . S
O284 C283 1.273 . S
O285 Zn276 1.977 . S
O285 C278 1.267 . S
C286 O287 1.160 . S
C286 O293 1.185 . S
O287 C286 1.160 . S
O288 Zn289 1.899 . S
O288 C296 1.284 . S
Zn289 O288 1.899 . S
Zn289 O290 2.032 . S
Zn289 O293 2.086 . S
Zn289 O298 1.977 . S
O290 Zn289 2.032 . S
O290 C294 1.278 1_556 S
C291 O292 1.203 . S
C291 O298 1.267 . S
O292 C291 1.203 . S
O293 C286 1.185 . S
O293 Zn289 2.086 . S
C294 O290 1.278 1_554 S
C294 O295 1.211 1_554 S
O295 C294 1.211 1_556 S
C296 O288 1.284 . S
C296 O297 1.273 . S
O297 C296 1.273 . S
O298 Zn289 1.977 . S
O298 C291 1.267 . S
C299 O300 1.160 . S
C299 O306 1.185 . S
O300 C299 1.160 . S
O301 Zn302 1.899 . S
O301 C309 1.284 . S
Zn302 O301 1.899 . S
Zn302 O303 2.032 . S
Zn302 O306 2.086 . S
Zn302 O311 1.977 . S
O303 Zn302 2.032 . S
O303 C307 1.278 1_556 S
C304 O305 1.203 . S
C304 O311 1.267 . S
O305 C304 1.203 . S
O306 C299 1.185 . S
O306 Zn302 2.086 . S
C307 O303 1.278 1_554 S
C307 O308 1.211 1_554 S
O308 C307 1.211 1_556 S
C309 O301 1.284 . S
C309 O310 1.273 . S
O310 C309 1.273 . S
O311 Zn302 1.977 . S
O311 C304 1.267 . S
C312 O313 1.160 . S
C312 O319 1.185 . S
O313 C312 1.160 . S
O314 Zn315 1.899 . S
O314 C322 1.284 . S
Zn315 O314 1.899 . S
Zn315 O316 2.032 . S
Zn315 O319 2.086 . S
Zn315 O324 1.977 . S
O316 Zn315 2.032 . S
O316 C320 1.278 . S
C317 O318 1.203 . S
C317 O324 1.267 . S
O318 C317 1.203 . S
O319 C312 1.185 . S
O319 Zn315 2.086 . S
C320 O316 1.278 . S
C320 O321 1.211 . S
O321 C320 1.211 . S
C322 O314 1.284 . S
C322 O323 1.273 . S
O323 C322 1.273 . S
O324 Zn315 1.977 . S
O324 C317 1.267 . S
C325 O326 1.160 . S
C325 O332 1.185 . S
O326 C325 1.160 . S
O327 Zn328 1.899 . S
O327 C335 1.284 . S
Zn328 O327 1.899 . S
Zn328 O329 2.032 . S
Zn328 O332 2.086 . S
Zn328 O337 1.977 . S
O329 Zn328 2.032 . S
O329 C333 1.278 . S
C330 O331 1.203 . S
C330 O337 1.267 . S
O331 C330 1.203 . S
O332 C325 1.185 . S
O332 Zn328 2.086 . S
C333 O329 1.278 . S
C333 O334 1.211 . S
O334 C333 1.211 . S
C335 O327 1.284 . S
C335 O336 1.273 . S
O336 C335 1.273 . S
O337 Zn328 1.977 . S
O337 C330 1.267 . S
C338 O339 1.160 . S
C338 O345 1.185 . S
O339 C338 1.160 . S
O340 Zn341 1.899 . S
O340 C348 1.284 . S
Zn341 O340 1.899 . S
Zn341 O342 2.032 . S
Zn341 O345 2.086 . S
Zn341 O350 1.977 . S
O342 Zn341 2.032 . S
O342 C346 1.278 . S
C343 O344 1.203 . S
C343 O350 1.267 . S
O344 C343 1.203 . S
O345 C338 1.185 . S
O345 Zn341 2.086 . S
C346 O342 1.278 . S
C346 O347 1.211 . S
O347 C346 1.211 . S
C348 O340 1.284 . S
C348 O349 1.273 . S
O349 C348 1.273 . S
O350 Zn341 1.977 . S
O350 C343 1.267 . S
C351 O352 1.160 . S
C351 O358 1.185 . S
O352 C351 1.160 . S
O353 Zn354 1.899 . S
O353 C361 1.284 . S
Zn354 O353 1.899 . S
Zn354 O355 2.032 . S
Zn354 O358 2.086 . S
Zn354 O363 1.977 . S
O355 Zn354 2.032 . S
O355 C359 1.278 1_554 S
C356 O357 1.203 . S
C356 O363 1.267 . S
O357 C356 1.203 . S
O358 C351 1.185 . S
O358 Zn354 2.086 . S
C359 O355 1.278 1_556 S
C359 O360 1.211 1_556 S
O360 C359 1.211 1_554 S
C361 O353 1.284 . S
C361 O362 1.273 . S
O362 C361 1.273 . S
O363 Zn354 1.977 . S
O363 C356 1.267 . S
C364 O365 1.160 . S
C364 O371 1.185 . S
O365 C364 1.160 . S
O366 Zn367 1.899 . S
O366 C374 1.284 . S
Zn367 O366 1.899 . S
Zn367 O368 2.032 . S
Zn367 O371 2.086 . S
Zn367 O376 1.977 . S
O368 Zn367 2.032 . S
O368 C372 1.278 1_554 S
C369 O370 1.203 . S
C369 O376 1.267 . S
O370 C369 1.203 . S
O371 C364 1.185 . S
O371 Zn367 2.086 . S
C372 O368 1.278 1_556 S
C372 O373 1.211 1_556 S
O373 C372 1.211 1_554 S
C374 O366 1.284 . S
C374 O375 1.273 . S
O375 C374 1.273 . S
O376 Zn367 1.977 . S
O376 C369 1.267 . S
C377 O378 1.160 . S
C377 O384 1.185 . S
O378 C377 1.160 . S
O379 Zn380 1.899 . S
O379 C387 1.284 . S
Zn380 O379 1.899 . S
Zn380 O381 2.032 . S
Zn380 O384 2.086 . S
Zn380 O389 1.977 . S
O381 Zn380 2.032 . S
O381 C385 1.278 1_554 S
C382 O383 1.203 . S
C382 O389 1.267 . S
O383 C382 1.203 . S
O384 C377 1.185 . S
O384 Zn380 2.086 . S
C385 O381 1.278 1_556 S
C385 O386 1.211 1_556 S
O386 C385 1.211 1_554 S
C387 O379 1.284 . S
C387 O388 1.273 . S
O388 C387 1.273 . S
O389 Zn380 1.977 . S
O389 C382 1.267 . S
C390 O391 1.160 . S
C390 O397 1.185 . S
O391 C390 1.160 . S
O392 Zn393 1.899 . S
O392 C400 1.284 . S
Zn393 O392 1.899 . S
Zn393 O394 2.032 . S
Zn393 O397 2.086 . S
Zn393 O402 1.977 . S
O394 Zn393 2.032 . S
O394 C398 1.278 . S
C395 O396 1.203 . S
C395 O402 1.267 . S
O396 C395 1.203 . S
O397 C390 1.185 . S
O397 Zn393 2.086 . S
C398 O394 1.278 . S
C398 O399 1.211 . S
O399 C398 1.211 . S
C400 O392 1.284 . S
C400 O401 1.273 . S
O401 C400 1.273 . S
O402 Zn393 1.977 . S
O402 C395 1.267 . S
C403 O404 1.160 . S
C403 O410 1.185 . S
O404 C403 1.160 . S
O405 Zn406 1.899 . S
O405 C413 1.284 . S
Zn406 O405 1.899 . S
Zn406 O407 2.032 . S
Zn406 O410 2.086 . S
Zn406 O415 1.977 . S
O407 Zn406 2.032 . S
O407 C411 1.278 . S
C408 O409 1.203 . S
C408 O415 1.267 . S
O409 C408 1.203 . S
O410 C403 1.185 . S
O410 Zn406 2.086 . S
C411 O407 1.278 . S
C411 O412 1.211 . S
O412 C411 1.211 . S
C413 O405 1.284 . S
C413 O414 1.273 . S
O414 C413 1.273 . S
O415 Zn406 1.977 . S
O415 C408 1.267 . S
C416 O417 1.160 . S
C416 O423 1.185 . S
O417 C416 1.160 . S
O418 Zn419 1.899 . S
O418 C426 1.284 . S
Zn419 O418 1.899 . S
Zn419 O420 2.032 . S
Zn419 O423 2.086 . S
Zn419 O428 1.977 . S
O420 Zn419 2.032 . S
O420 C424 1.278 . S
C421 O422 1.203 . S
C421 O428 1.267 . S
O422 C421 1.203 . S
O423 C416 1.185 . S
O423 Zn419 2.086 . S
C424 O420 1.278 . S
C424 O425 1.211 . S
O425 C424 1.211 . S
C426 O418 1.284 . S
C426 O427 1.273 . S
O427 C426 1.273 . S
O428 Zn419 1.977 . S
O428 C421 1.267 . S
C429 O430 1.160 . S
C429 O436 1.185 . S
O430 C429 1.160 . S
O431 Zn432 1.899 . S
O431 C439 1.284 . S
Zn432 O431 1.899 . S
Zn432 O433 2.032 . S
Zn432 O436 2.086 . S
Zn432 O441 1.977 . S
O433 Zn432 2.032 . S
O433 C437 1.278 . S
C434 O435 1.203 . S
C434 O441 1.267 . S
O435 C434 1.203 . S
O436 C429 1.185 . S
O436 Zn432 2.086 . S
C437 O433 1.278 . S
C437 O438 1.211 . S
O438 C437 1.211 . S
C439 O431 1.284 . S
C439 O440 1.273 . S
O440 C439 1.273 . S
O441 Zn432 1.977 . S
O441 C434 1.267 . S
C442 O443 1.160 . S
C442 O449 1.185 . S
O443 C442 1.160 . S
O444 Zn445 1.899 . S
O444 C452 1.284 . S
Zn445 O444 1.899 . S
Zn445 O446 2.032 . S
Zn445 O449 2.086 . S
Zn445 O454 1.977 . S
O446 Zn445 2.032 . S
O446 C450 1.278 . S
C447 O448 1.203 . S
C447 O454 1.267 . S
O448 C447 1.203 . S
O449 C442 1.185 . S
O449 Zn445 2.086 . S
C450 O446 1.278 . S
C450 O451 1.211 . S
O451 C450 1.211 . S
C452 O444 1.284 . S
C452 O453 1.273 . S
O453 C452 1.273 . S
O454 Zn445 1.977 . S
O454 C447 1.267 . S
C455 O456 1.160 . S
C455 O462 1.185 . S
O456 C455 1.160 . S
O457 Zn458 1.899 . S
O457 C465 1.284 . S
Zn458 O457 1.899 . S
Zn458 O459 2.032 . S
Zn458 O462 2.086 . S
Zn458 O467 1.977 . S
O459 Zn458 2.032 . S
O459 C463 1.278 . S
C460 O461 1.203 . S
C460 O467 1.267 . S
O461 C460 1.203 . S
O462 C455 1.185 . S
O462 Zn458 2.086 . S
C463 O459 1.278 . S
C463 O464 1.211 . S
O464 C463 1.211 . S
C465 O457 1.284 . S
C465 O466 1.273 . S
O466 C465 1.273 . S
O467 Zn458 1.977 . S
O467 C460 1.267 . S
H468 C474 0.930 . S
H469 C477 0.930 . S
H470 C478 0.930 . S
H471 C479 0.930 . S
H472 C482 0.930 . S
H473 C483 0.930 . S
C474 H468 0.930 . S
C474 C475 1.355 . S
C474 C476 1.415 . S
C475 C474 1.355 . S
C475 C477 1.419 . S
C476 C474 1.415 . S
C476 C481 1.425 . S
C476 C483 1.409 . S
C477 H469 0.930 . S
C477 C475 1.419 . S
C477 C478 1.362 . S
C478 H470 0.930 . S
C478 C477 1.362 . S
C478 C481 1.409 . S
C479 H471 0.930 . S
C479 C480 1.355 . S
C479 C481 1.415 1_566 S
C480 C479 1.355 . S
C480 C482 1.419 . S
C481 C476 1.425 . S
C481 C478 1.409 . S
C481 C479 1.415 1_544 S
C482 H472 0.930 . S
C482 C480 1.419 . S
C482 C483 1.362 1_566 S
C483 H473 0.930 . S
C483 C476 1.409 . S
C483 C482 1.362 1_544 S
H484 C490 0.930 . S
H485 C493 0.930 . S
H486 C494 0.930 . S
H487 C495 0.930 . S
H488 C498 0.930 . S
H489 C499 0.930 . S
C490 H484 0.930 . S
C490 C491 1.355 . S
C490 C492 1.415 . S
C491 C490 1.355 . S
C491 C493 1.419 . S
C492 C490 1.415 . S
C492 C497 1.425 . S
C492 C499 1.409 . S
C493 H485 0.930 . S
C493 C491 1.419 . S
C493 C494 1.362 . S
C494 H486 0.930 . S
C494 C493 1.362 . S
C494 C497 1.409 . S
C495 H487 0.930 . S
C495 C496 1.355 . S
C495 C497 1.415 1_456 S
C496 C495 1.355 . S
C496 C498 1.419 . S
C497 C492 1.425 . S
C497 C494 1.409 . S
C497 C495 1.415 1_654 S
C498 H488 0.930 . S
C498 C496 1.419 . S
C498 C499 1.362 1_456 S
C499 H489 0.930 . S
C499 C492 1.409 . S
C499 C498 1.362 1_654 S
H500 C506 0.930 . S
H501 C509 0.930 . S
H502 C510 0.930 . S
H503 C511 0.930 . S
H504 C514 0.930 . S
H505 C515 0.930 . S
C506 H500 0.930 . S
C506 C507 1.355 1_554 S
C506 C508 1.415 . S
C507 C506 1.355 1_556 S
C507 C509 1.419 . S
C508 C506 1.415 . S
C508 C513 1.425 . S
C508 C515 1.409 . S
C509 H501 0.930 . S
C509 C507 1.419 . S
C509 C510 1.362 . S
C510 H502 0.930 . S
C510 C509 1.362 . S
C510 C513 1.409 1_556 S
C511 H503 0.930 . S
C511 C512 1.355 . S
C511 C513 1.415 . S
C512 C511 1.355 . S
C512 C514 1.419 . S
C513 C508 1.425 . S
C513 C510 1.409 1_554 S
C513 C511 1.415 . S
C514 H504 0.930 . S
C514 C512 1.419 . S
C514 C515 1.362 . S
C515 H505 0.930 . S
C515 C508 1.409 . S
C515 C514 1.362 . S
H516 C522 0.930 . S
H517 C525 0.930 . S
H518 C526 0.930 . S
H519 C527 0.930 . S
H520 C530 0.930 . S
H521 C531 0.939 . S
C522 H516 0.930 . S
C522 C523 1.355 . S
C522 C524 1.410 1_655 S
C523 C522 1.355 . S
C523 C525 1.419 1_655 S
C524 C522 1.410 1_455 S
C524 C529 1.429 . S
C524 C531 1.416 1_455 S
C525 H517 0.930 . S
C525 C523 1.419 1_455 S
C525 C526 1.362 . S
C526 H518 0.930 . S
C526 C525 1.362 . S
C526 C529 1.409 . S
C527 H519 0.930 . S
C527 C528 1.355 . S
C527 C529 1.415 . S
C528 C527 1.355 . S
C528 C530 1.419 . S
C529 C524 1.429 . S
C529 C526 1.409 . S
C529 C527 1.415 . S
C530 H520 0.930 . S
C530 C528 1.419 . S
C530 C531 1.349 1_455 S
C531 H521 0.939 . S
C531 C524 1.416 1_655 S
C531 C530 1.349 1_655 S
H532 C538 0.930 . S
H533 C541 0.930 . S
H534 C542 0.930 . S
H535 C543 0.930 . S
H536 C546 0.930 . S
H537 C547 0.930 . S
C538 H532 0.930 . S
C538 C539 1.355 . S
C538 C540 1.415 . S
C539 C538 1.355 . S
C539 C541 1.419 . S
C540 C538 1.415 . S
C540 C545 1.425 . S
C540 C547 1.409 . S
C541 H533 0.930 . S
C541 C539 1.419 . S
C541 C542 1.362 . S
C542 H534 0.930 . S
C542 C541 1.362 . S
C542 C545 1.409 . S
C543 H535 0.930 . S
C543 C544 1.355 . S
C543 C545 1.415 . S
C544 C543 1.355 . S
C544 C546 1.419 . S
C545 C540 1.425 . S
C545 C542 1.409 . S
C545 C543 1.415 . S
C546 H536 0.930 . S
C546 C544 1.419 . S
C546 C547 1.362 . S
C547 H537 0.930 . S
C547 C540 1.409 . S
C547 C546 1.362 . S
H548 C554 0.930 . S
H549 C557 0.930 . S
H550 C558 0.930 . S
H551 C559 0.930 . S
H552 C562 0.930 . S
H553 C563 0.930 . S
C554 H548 0.930 . S
C554 C555 1.355 . S
C554 C556 1.415 . S
C555 C554 1.355 . S
C555 C557 1.419 . S
C556 C554 1.415 . S
C556 C561 1.425 . S
C556 C563 1.409 1_565 S
C557 H549 0.930 . S
C557 C555 1.419 . S
C557 C558 1.362 . S
C558 H550 0.930 . S
C558 C557 1.362 . S
C558 C561 1.409 . S
C559 H551 0.930 . S
C559 C560 1.355 . S
C559 C561 1.415 1_545 S
C560 C559 1.355 . S
C560 C562 1.419 . S
C561 C556 1.425 . S
C561 C558 1.409 . S
C561 C559 1.415 1_565 S
C562 H552 0.930 . S
C562 C560 1.419 . S
C562 C563 1.362 . S
C563 H553 0.930 . S
C563 C556 1.409 1_545 S
C563 C562 1.362 . S
H564 C570 0.930 . S
H565 C573 0.930 . S
H566 C574 0.930 . S
H567 C575 0.930 . S
H568 C578 0.930 . S
H569 C579 0.930 . S
C570 H564 0.930 . S
C570 C571 1.355 . S
C570 C572 1.415 1_544 S
C571 C570 1.355 . S
C571 C573 1.419 . S
C572 C570 1.415 1_566 S
C572 C577 1.425 . S
C572 C579 1.409 . S
C573 H565 0.930 . S
C573 C571 1.419 . S
C573 C574 1.362 1_545 S
C574 H566 0.930 . S
C574 C573 1.362 1_565 S
C574 C577 1.409 1_554 S
C575 H567 0.930 . S
C575 C576 1.355 . S
C575 C577 1.415 . S
C576 C575 1.355 . S
C576 C578 1.419 . S
C577 C572 1.425 . S
C577 C574 1.409 1_556 S
C577 C575 1.415 . S
C578 H568 0.930 . S
C578 C576 1.419 . S
C578 C579 1.362 . S
C579 H569 0.930 . S
C579 C572 1.409 . S
C579 C578 1.362 . S
H580 C586 0.928 1_455 S
H581 C589 0.930 . S
H582 C590 0.930 . S
H583 C591 0.930 . S
H584 C594 0.930 . S
H585 C595 0.930 . S
C586 H580 0.928 1_655 S
C586 C587 1.364 . S
C586 C588 1.404 1_654 S
C587 C586 1.364 . S
C587 C589 1.419 1_554 S
C588 C586 1.404 1_456 S
C588 C593 1.428 . S
C588 C595 1.409 1_556 S
C589 H581 0.930 . S
C589 C587 1.419 1_556 S
C589 C590 1.362 . S
C590 H582 0.930 . S
C590 C589 1.362 . S
C590 C593 1.409 1_655 S
C591 H583 0.930 . S
C591 C592 1.355 . S
C591 C593 1.415 . S
C592 C591 1.355 . S
C592 C594 1.419 . S
C593 C588 1.428 . S
C593 C590 1.409 1_455 S
C593 C591 1.415 . S
C594 H584 0.930 . S
C594 C592 1.419 . S
C594 C595 1.362 1_556 S
C595 H585 0.930 . S
C595 C588 1.409 1_554 S
C595 C594 1.362 1_554 S
H596 C602 0.930 . S
H597 C605 0.930 . S
H598 C606 0.930 . S
H599 C607 0.929 1_556 S
H600 C610 0.930 . S
H601 C611 0.930 . S
C602 H596 0.930 . S
C602 C603 1.355 . S
C602 C604 1.415 . S
C603 C602 1.355 . S
C603 C605 1.419 . S
C604 C602 1.415 . S
C604 C609 1.425 . S
C604 C611 1.409 1_556 S
C605 H597 0.930 . S
C605 C603 1.419 . S
C605 C606 1.362 . S
C606 H598 0.930 . S
C606 C605 1.362 . S
C606 C609 1.409 . S
C607 H599 0.929 1_554 S
C607 C608 1.355 . S
C607 C609 1.415 1_554 S
C608 C607 1.355 . S
C608 C610 1.419 . S
C609 C604 1.425 . S
C609 C606 1.409 . S
C609 C607 1.415 1_556 S
C610 H600 0.930 . S
C610 C608 1.419 . S
C610 C611 1.362 . S
C611 H601 0.930 . S
C611 C604 1.409 1_554 S
C611 C610 1.362 . S
H612 C618 0.930 . S
H613 C621 0.930 . S
H614 C622 0.930 . S
H615 C623 0.930 . S
H616 C626 0.930 . S
H617 C627 0.930 . S
C618 H612 0.930 . S
C618 C619 1.355 . S
C618 C620 1.415 . S
C619 C618 1.355 . S
C619 C621 1.419 . S
C620 C618 1.415 . S
C620 C625 1.425 . S
C620 C627 1.409 . S
C621 H613 0.930 . S
C621 C619 1.419 . S
C621 C622 1.362 . S
C622 H614 0.930 . S
C622 C621 1.362 . S
C622 C625 1.409 . S
C623 H615 0.930 . S
C623 C624 1.355 . S
C623 C625 1.415 1_455 S
C624 C623 1.355 . S
C624 C626 1.419 . S
C625 C620 1.425 . S
C625 C622 1.409 . S
C625 C623 1.415 1_655 S
C626 H616 0.930 . S
C626 C624 1.419 . S
C626 C627 1.362 1_455 S
C627 H617 0.930 . S
C627 C620 1.409 . S
C627 C626 1.362 1_655 S
H628 C634 0.930 . S
H629 C637 0.930 . S
H630 C638 0.930 . S
H631 C639 0.930 . S
H632 C642 0.930 . S
H633 C643 0.930 . S
C634 H628 0.930 . S
C634 C635 1.355 . S
C634 C636 1.415 . S
C635 C634 1.355 . S
C635 C637 1.419 . S
C636 C634 1.415 . S
C636 C641 1.425 . S
C636 C643 1.409 . S
C637 H629 0.930 . S
C637 C635 1.419 . S
C637 C638 1.362 . S
C638 H630 0.930 . S
C638 C637 1.362 . S
C638 C641 1.409 . S
C639 H631 0.930 . S
C639 C640 1.355 . S
C639 C641 1.415 . S
C640 C639 1.355 . S
C640 C642 1.419 . S
C641 C636 1.425 . S
C641 C638 1.409 . S
C641 C639 1.415 . S
C642 H632 0.930 . S
C642 C640 1.419 . S
C642 C643 1.362 . S
C643 H633 0.930 . S
C643 C636 1.409 . S
C643 C642 1.362 . S
H644 C650 0.930 . S
H645 C653 0.930 . S
H646 C654 0.930 . S
H647 C655 0.930 . S
H648 C658 0.930 . S
H649 C659 0.930 . S
C650 H644 0.930 . S
C650 C651 1.355 . S
C650 C652 1.415 . S
C651 C650 1.355 . S
C651 C653 1.419 . S
C652 C650 1.415 . S
C652 C657 1.425 . S
C652 C659 1.409 1_545 S
C653 H645 0.930 . S
C653 C651 1.419 . S
C653 C654 1.362 . S
C654 H646 0.930 . S
C654 C653 1.362 . S
C654 C657 1.409 . S
C655 H647 0.930 . S
C655 C656 1.355 1_545 S
C655 C657 1.415 . S
C656 C655 1.355 1_565 S
C656 C658 1.419 . S
C657 C652 1.425 . S
C657 C654 1.409 . S
C657 C655 1.415 . S
C658 H648 0.930 . S
C658 C656 1.419 . S
C658 C659 1.362 . S
C659 H649 0.930 . S
C659 C652 1.409 1_565 S
C659 C658 1.362 . S
H660 C666 0.930 . S
H661 C669 0.930 . S
H662 C670 0.930 . S
H663 C671 0.930 . S
H664 C674 0.930 . S
H665 C675 0.930 . S
C666 H660 0.930 . S
C666 C667 1.355 . S
C666 C668 1.415 . S
C667 C666 1.355 . S
C667 C669 1.419 . S
C668 C666 1.415 . S
C668 C673 1.425 . S
C668 C675 1.409 . S
C669 H661 0.930 . S
C669 C667 1.419 . S
C669 C670 1.362 . S
C670 H662 0.930 . S
C670 C669 1.362 . S
C670 C673 1.409 . S
C671 H663 0.930 . S
C671 C672 1.355 . S
C671 C673 1.415 . S
C672 C671 1.355 . S
C672 C674 1.419 . S
C673 C668 1.425 . S
C673 C670 1.409 . S
C673 C671 1.415 . S
C674 H664 0.930 . S
C674 C672 1.419 . S
C674 C675 1.362 . S
C675 H665 0.930 . S
C675 C668 1.409 . S
C675 C674 1.362 . S
H676 C682 0.930 . S
H677 C685 0.930 . S
H678 C686 0.930 . S
H679 C687 0.930 . S
H680 C690 0.930 . S
H681 C691 0.930 . S
C682 H676 0.930 . S
C682 C683 1.355 . S
C682 C684 1.415 . S
C683 C682 1.355 . S
C683 C685 1.419 . S
C684 C682 1.415 . S
C684 C689 1.425 . S
C684 C691 1.409 . S
C685 H677 0.930 . S
C685 C683 1.419 . S
C685 C686 1.362 . S
C686 H678 0.930 . S
C686 C685 1.362 . S
C686 C689 1.409 . S
C687 H679 0.930 . S
C687 C688 1.355 . S
C687 C689 1.415 . S
C688 C687 1.355 . S
C688 C690 1.419 . S
C689 C684 1.425 . S
C689 C686 1.409 . S
C689 C687 1.415 . S
C690 H680 0.930 . S
C690 C688 1.419 . S
C690 C691 1.362 . S
C691 H681 0.930 . S
C691 C684 1.409 . S
C691 C690 1.362 . S
H692 C698 0.930 . S
H693 C701 0.930 . S
H694 C702 0.930 . S
H695 C703 0.930 . S
H696 C706 0.930 . S
H697 C707 0.930 . S
C698 H692 0.930 . S
C698 C699 1.355 . S
C698 C700 1.415 . S
C699 C698 1.355 . S
C699 C701 1.419 . S
C700 C698 1.415 . S
C700 C705 1.425 . S
C700 C707 1.409 . S
C701 H693 0.930 . S
C701 C699 1.419 . S
C701 C702 1.362 . S
C702 H694 0.930 . S
C702 C701 1.362 . S
C702 C705 1.409 . S
C703 H695 0.930 . S
C703 C704 1.355 . S
C703 C705 1.415 . S
C704 C703 1.355 . S
C704 C706 1.419 . S
C705 C700 1.425 . S
C705 C702 1.409 . S
C705 C703 1.415 . S
C706 H696 0.930 . S
C706 C704 1.419 . S
C706 C707 1.362 . S
C707 H697 0.930 . S
C707 C700 1.409 . S
C707 C706 1.362 . S
H708 C714 0.930 . S
H709 C717 0.930 . S
H710 C718 0.930 . S
H711 C719 0.930 . S
H712 C722 0.930 . S
H713 C723 0.930 . S
C714 H708 0.930 . S
C714 C715 1.355 . S
C714 C716 1.415 . S
C715 C714 1.355 . S
C715 C717 1.419 . S
C716 C714 1.415 . S
C716 C721 1.425 . S
C716 C723 1.409 . S
C717 H709 0.930 . S
C717 C715 1.419 . S
C717 C718 1.362 . S
C718 H710 0.930 . S
C718 C717 1.362 . S
C718 C721 1.409 . S
C719 H711 0.930 . S
C719 C720 1.355 . S
C719 C721 1.415 . S
C720 C719 1.355 . S
C720 C722 1.419 . S
C721 C716 1.425 . S
C721 C718 1.409 . S
C721 C719 1.415 . S
C722 H712 0.930 . S
C722 C720 1.419 . S
C722 C723 1.362 . S
C723 H713 0.930 . S
C723 C716 1.409 . S
C723 C722 1.362 . S
H724 C730 0.930 . S
H725 C733 0.930 . S
H726 C734 0.930 . S
H727 C735 0.930 . S
H728 C738 0.930 . S
H729 C739 0.930 . S
C730 H724 0.930 . S
C730 C731 1.355 . S
C730 C732 1.415 . S
C731 C730 1.355 . S
C731 C733 1.419 . S
C732 C730 1.415 . S
C732 C737 1.425 . S
C732 C739 1.409 . S
C733 H725 0.930 . S
C733 C731 1.419 . S
C733 C734 1.362 . S
C734 H726 0.930 . S
C734 C733 1.362 . S
C734 C737 1.409 . S
C735 H727 0.930 . S
C735 C736 1.355 . S
C735 C737 1.415 . S
C736 C735 1.355 . S
C736 C738 1.419 . S
C737 C732 1.425 . S
C737 C734 1.409 . S
C737 C735 1.415 . S
C738 H728 0.930 . S
C738 C736 1.419 . S
C738 C739 1.362 . S
C739 H729 0.930 . S
C739 C732 1.409 . S
C739 C738 1.362 . S
H740 C746 0.930 . S
H741 C749 0.930 . S
H742 C750 0.930 . S
H743 C751 0.930 . S
H744 C754 0.930 . S
H745 C755 0.930 . S
C746 H740 0.930 . S
C746 C747 1.355 . S
C746 C748 1.415 . S
C747 C746 1.355 . S
C747 C749 1.419 . S
C748 C746 1.415 . S
C748 C753 1.425 . S
C748 C755 1.409 . S
C749 H741 0.930 . S
C749 C747 1.419 . S
C749 C750 1.362 . S
C750 H742 0.930 . S
C750 C749 1.362 . S
C750 C753 1.409 . S
C751 H743 0.930 . S
C751 C752 1.355 . S
C751 C753 1.415 . S
C752 C751 1.355 . S
C752 C754 1.419 . S
C753 C748 1.425 . S
C753 C750 1.409 . S
C753 C751 1.415 . S
C754 H744 0.930 . S
C754 C752 1.419 . S
C754 C755 1.362 . S
C755 H745 0.930 . S
C755 C748 1.409 . S
C755 C754 1.362 . S
H756 C762 0.930 . S
H757 C765 0.930 . S
H758 C766 0.930 . S
H759 C767 0.930 . S
H760 C770 0.930 . S
H761 C771 0.930 . S
C762 H756 0.930 . S
C762 C763 1.355 . S
C762 C764 1.415 . S
C763 C762 1.355 . S
C763 C765 1.419 . S
C764 C762 1.415 . S
C764 C769 1.425 . S
C764 C771 1.409 . S
C765 H757 0.930 . S
C765 C763 1.419 . S
C765 C766 1.362 . S
C766 H758 0.930 . S
C766 C765 1.362 . S
C766 C769 1.409 . S
C767 H759 0.930 . S
C767 C768 1.355 . S
C767 C769 1.415 . S
C768 C767 1.355 . S
C768 C770 1.419 . S
C769 C764 1.425 . S
C769 C766 1.409 . S
C769 C767 1.415 . S
C770 H760 0.930 . S
C770 C768 1.419 . S
C770 C771 1.362 . S
C771 H761 0.930 . S
C771 C764 1.409 . S
C771 C770 1.362 . S
H772 C778 0.930 . S
H773 C781 0.930 . S
H774 C782 0.930 . S
H775 C783 0.930 . S
H776 C786 0.930 . S
H777 C787 0.930 . S
C778 H772 0.930 . S
C778 C779 1.355 . S
C778 C780 1.415 . S
C779 C778 1.355 . S
C779 C781 1.419 . S
C780 C778 1.415 . S
C780 C785 1.425 . S
C780 C787 1.409 . S
C781 H773 0.930 . S
C781 C779 1.419 . S
C781 C782 1.362 . S
C782 H774 0.930 . S
C782 C781 1.362 . S
C782 C785 1.409 . S
C783 H775 0.930 . S
C783 C784 1.355 . S
C783 C785 1.415 . S
C784 C783 1.355 . S
C784 C786 1.419 . S
C785 C780 1.425 . S
C785 C782 1.409 . S
C785 C783 1.415 . S
C786 H776 0.930 . S
C786 C784 1.419 . S
C786 C787 1.362 . S
C787 H777 0.930 . S
C787 C780 1.409 . S
C787 C786 1.362 . S
H788 C794 0.930 . S
H789 C797 0.930 . S
H790 C798 0.930 . S
H791 C799 0.930 . S
H792 C802 0.930 . S
H793 C803 0.930 . S
C794 H788 0.930 . S
C794 C795 1.355 . S
C794 C796 1.415 . S
C795 C794 1.355 . S
C795 C797 1.419 . S
C796 C794 1.415 . S
C796 C801 1.425 . S
C796 C803 1.409 . S
C797 H789 0.930 . S
C797 C795 1.419 . S
C797 C798 1.362 . S
C798 H790 0.930 . S
C798 C797 1.362 . S
C798 C801 1.409 . S
C799 H791 0.930 . S
C799 C800 1.355 . S
C799 C801 1.415 . S
C800 C799 1.355 . S
C800 C802 1.419 . S
C801 C796 1.425 . S
C801 C798 1.409 . S
C801 C799 1.415 . S
C802 H792 0.930 . S
C802 C800 1.419 . S
C802 C803 1.362 . S
C803 H793 0.930 . S
C803 C796 1.409 . S
C803 C802 1.362 . S
H804 C810 0.930 . S
H805 C813 0.930 . S
H806 C814 0.930 . S
H807 C815 0.930 . S
H808 C818 0.930 . S
H809 C819 0.930 . S
C810 H804 0.930 . S
C810 C811 1.355 . S
C810 C812 1.415 . S
C811 C810 1.355 . S
C811 C813 1.419 . S
C812 C810 1.415 . S
C812 C817 1.425 . S
C812 C819 1.409 . S
C813 H805 0.930 . S
C813 C811 1.419 . S
C813 C814 1.362 . S
C814 H806 0.930 . S
C814 C813 1.362 . S
C814 C817 1.409 . S
C815 H807 0.930 . S
C815 C816 1.355 . S
C815 C817 1.415 . S
C816 C815 1.355 . S
C816 C818 1.419 . S
C817 C812 1.425 . S
C817 C814 1.409 . S
C817 C815 1.415 . S
C818 H808 0.930 . S
C818 C816 1.419 . S
C818 C819 1.362 . S
C819 H809 0.930 . S
C819 C812 1.409 . S
C819 C818 1.362 . S
H820 C826 0.930 . S
H821 C829 0.930 . S
H822 C830 0.930 . S
H823 C831 0.930 . S
H824 C834 0.930 . S
H825 C835 0.930 . S
C826 H820 0.930 . S
C826 C827 1.355 . S
C826 C828 1.415 . S
C827 C826 1.355 . S
C827 C829 1.419 . S
C828 C826 1.415 . S
C828 C833 1.425 . S
C828 C835 1.409 . S
C829 H821 0.930 . S
C829 C827 1.419 . S
C829 C830 1.362 . S
C830 H822 0.930 . S
C830 C829 1.362 . S
C830 C833 1.409 . S
C831 H823 0.930 . S
C831 C832 1.355 . S
C831 C833 1.415 . S
C832 C831 1.355 . S
C832 C834 1.419 . S
C833 C828 1.425 . S
C833 C830 1.409 . S
C833 C831 1.415 . S
C834 H824 0.930 . S
C834 C832 1.419 . S
C834 C835 1.362 . S
C835 H825 0.930 . S
C835 C828 1.409 . S
C835 C834 1.362 . S
H836 C842 0.930 . S
H837 C845 0.930 . S
H838 C846 0.930 . S
H839 C847 0.930 . S
H840 C850 0.930 . S
H841 C851 0.930 . S
C842 H836 0.930 . S
C842 C843 1.355 . S
C842 C844 1.415 . S
C843 C842 1.355 . S
C843 C845 1.419 . S
C844 C842 1.415 . S
C844 C849 1.425 . S
C844 C851 1.409 . S
C845 H837 0.930 . S
C845 C843 1.419 . S
C845 C846 1.362 . S
C846 H838 0.930 . S
C846 C845 1.362 . S
C846 C849 1.409 . S
C847 H839 0.930 . S
C847 C848 1.355 . S
C847 C849 1.415 . S
C848 C847 1.355 . S
C848 C850 1.419 . S
C849 C844 1.425 . S
C849 C846 1.409 . S
C849 C847 1.415 . S
C850 H840 0.930 . S
C850 C848 1.419 . S
C850 C851 1.362 . S
C851 H841 0.930 . S
C851 C844 1.409 . S
C851 C850 1.362 . S
H852 C858 0.930 . S
H853 C861 0.930 . S
H854 C862 0.930 . S
H855 C863 0.930 . S
H856 C866 0.930 . S
H857 C867 0.930 . S
C858 H852 0.930 . S
C858 C859 1.355 . S
C858 C860 1.415 . S
C859 C858 1.355 . S
C859 C861 1.419 . S
C860 C858 1.415 . S
C860 C865 1.425 . S
C860 C867 1.409 . S
C861 H853 0.930 . S
C861 C859 1.419 . S
C861 C862 1.362 . S
C862 H854 0.930 . S
C862 C861 1.362 . S
C862 C865 1.409 . S
C863 H855 0.930 . S
C863 C864 1.355 . S
C863 C865 1.415 . S
C864 C863 1.355 . S
C864 C866 1.419 . S
C865 C860 1.425 . S
C865 C862 1.409 . S
C865 C863 1.415 . S
C866 H856 0.930 . S
C866 C864 1.419 . S
C866 C867 1.362 . S
C867 H857 0.930 . S
C867 C860 1.409 . S
C867 C866 1.362 . S
H868 C874 0.930 . S
H869 C877 0.930 . S
H870 C878 0.930 . S
H871 C879 0.930 . S
H872 C882 0.930 . S
H873 C883 0.930 . S
C874 H868 0.930 . S
C874 C875 1.355 . S
C874 C876 1.415 . S
C875 C874 1.355 . S
C875 C877 1.419 . S
C876 C874 1.415 . S
C876 C881 1.425 . S
C876 C883 1.409 . S
C877 H869 0.930 . S
C877 C875 1.419 . S
C877 C878 1.362 . S
C878 H870 0.930 . S
C878 C877 1.362 . S
C878 C881 1.409 . S
C879 H871 0.930 . S
C879 C880 1.355 . S
C879 C881 1.415 . S
C880 C879 1.355 . S
C880 C882 1.419 . S
C881 C876 1.425 . S
C881 C878 1.409 . S
C881 C879 1.415 . S
C882 H872 0.930 . S
C882 C880 1.419 . S
C882 C883 1.362 . S
C883 H873 0.930 . S
C883 C876 1.409 . S
C883 C882 1.362 . S
H884 C890 0.930 . S
H885 C893 0.930 . S
H886 C894 0.930 . S
H887 C895 0.930 . S
H888 C898 0.930 . S
H889 C899 0.930 . S
C890 H884 0.930 . S
C890 C891 1.355 . S
C890 C892 1.415 . S
C891 C890 1.355 . S
C891 C893 1.419 . S
C892 C890 1.415 . S
C892 C897 1.425 . S
C892 C899 1.409 . S
C893 H885 0.930 . S
C893 C891 1.419 . S
C893 C894 1.362 . S
C894 H886 0.930 . S
C894 C893 1.362 . S
C894 C897 1.409 . S
C895 H887 0.930 . S
C895 C896 1.355 . S
C895 C897 1.415 . S
C896 C895 1.355 . S
C896 C898 1.419 . S
C897 C892 1.425 . S
C897 C894 1.409 . S
C897 C895 1.415 . S
C898 H888 0.930 . S
C898 C896 1.419 . S
C898 C899 1.362 . S
C899 H889 0.930 . S
C899 C892 1.409 . S
C899 C898 1.362 . S
H900 C906 0.930 . S
H901 C909 0.930 . S
H902 C910 0.930 . S
H903 C911 0.930 . S
H904 C914 0.930 . S
H905 C915 0.930 . S
C906 H900 0.930 . S
C906 C907 1.355 . S
C906 C908 1.415 . S
C907 C906 1.355 . S
C907 C909 1.419 . S
C908 C906 1.415 . S
C908 C913 1.425 . S
C908 C915 1.409 . S
C909 H901 0.930 . S
C909 C907 1.419 . S
C909 C910 1.362 . S
C910 H902 0.930 . S
C910 C909 1.362 . S
C910 C913 1.409 . S
C911 H903 0.930 . S
C911 C912 1.355 . S
C911 C913 1.415 . S
C912 C911 1.355 . S
C912 C914 1.419 . S
C913 C908 1.425 . S
C913 C910 1.409 . S
C913 C911 1.415 . S
C914 H904 0.930 . S
C914 C912 1.419 . S
C914 C915 1.362 . S
C915 H905 0.930 . S
C915 C908 1.409 . S
C915 C914 1.362 . S
H916 C922 0.930 . S
H917 C925 0.930 . S
H918 C926 0.930 . S
H919 C927 0.930 . S
H920 C930 0.930 . S
H921 C931 0.930 . S
C922 H916 0.930 . S
C922 C923 1.355 . S
C922 C924 1.415 . S
C923 C922 1.355 . S
C923 C925 1.419 . S
C924 C922 1.415 . S
C924 C929 1.425 . S
C924 C931 1.409 . S
C925 H917 0.930 . S
C925 C923 1.419 . S
C925 C926 1.362 . S
C926 H918 0.930 . S
C926 C925 1.362 . S
C926 C929 1.409 . S
C927 H919 0.930 . S
C927 C928 1.355 . S
C927 C929 1.415 . S
C928 C927 1.355 . S
C928 C930 1.419 . S
C929 C924 1.425 . S
C929 C926 1.409 . S
C929 C927 1.415 . S
C930 H920 0.930 . S
C930 C928 1.419 . S
C930 C931 1.362 . S
C931 H921 0.930 . S
C931 C924 1.409 . S
C931 C930 1.362 . S
H932 C938 0.930 . S
H933 C941 0.930 . S
H934 C942 0.930 . S
H935 C943 0.930 . S
H936 C946 0.930 . S
H937 C947 0.930 . S
C938 H932 0.930 . S
C938 C939 1.355 . S
C938 C940 1.415 . S
C939 C938 1.355 . S
C939 C941 1.419 . S
C940 C938 1.415 . S
C940 C945 1.425 . S
C940 C947 1.409 . S
C941 H933 0.930 . S
C941 C939 1.419 . S
C941 C942 1.362 . S
C942 H934 0.930 . S
C942 C941 1.362 . S
C942 C945 1.409 . S
C943 H935 0.930 . S
C943 C944 1.355 . S
C943 C945 1.415 . S
C944 C943 1.355 . S
C944 C946 1.419 . S
C945 C940 1.425 . S
C945 C942 1.409 . S
C945 C943 1.415 . S
C946 H936 0.930 . S
C946 C944 1.419 . S
C946 C947 1.362 . S
C947 H937 0.930 . S
C947 C940 1.409 . S
C947 C946 1.362 . S
H948 C954 0.930 . S
H949 C957 0.930 . S
H950 C958 0.930 . S
H951 C959 0.930 . S
H952 C962 0.930 . S
H953 C963 0.930 . S
C954 H948 0.930 . S
C954 C955 1.355 . S
C954 C956 1.415 . S
C955 C954 1.355 . S
C955 C957 1.419 . S
C956 C954 1.415 . S
C956 C961 1.425 . S
C956 C963 1.409 . S
C957 H949 0.930 . S
C957 C955 1.419 . S
C957 C958 1.362 . S
C958 H950 0.930 . S
C958 C957 1.362 . S
C958 C961 1.409 . S
C959 H951 0.930 . S
C959 C960 1.355 . S
C959 C961 1.415 . S
C960 C959 1.355 . S
C960 C962 1.419 . S
C961 C956 1.425 . S
C961 C958 1.409 . S
C961 C959 1.415 . S
C962 H952 0.930 . S
C962 C960 1.419 . S
C962 C963 1.362 . S
C963 H953 0.930 . S
C963 C956 1.409 . S
C963 C962 1.362 . S
H964 C970 0.930 . S
H965 C973 0.930 . S
H966 C974 0.930 . S
H967 C975 0.930 . S
H968 C978 0.930 . S
H969 C979 0.930 . S
C970 H964 0.930 . S
C970 C971 1.355 . S
C970 C972 1.415 . S
C971 C970 1.355 . S
C971 C973 1.419 . S
C972 C970 1.415 . S
C972 C977 1.425 . S
C972 C979 1.409 . S
C973 H965 0.930 . S
C973 C971 1.419 . S
C973 C974 1.362 . S
C974 H966 0.930 . S
C974 C973 1.362 . S
C974 C977 1.409 . S
C975 H967 0.930 . S
C975 C976 1.355 . S
C975 C977 1.415 . S
C976 C975 1.355 . S
C976 C978 1.419 . S
C977 C972 1.425 . S
C977 C974 1.409 . S
C977 C975 1.415 . S
C978 H968 0.930 . S
C978 C976 1.419 . S
C978 C979 1.362 . S
C979 H969 0.930 . S
C979 C972 1.409 . S
C979 C978 1.362 . S
H980 C986 0.930 . S
H981 C989 0.930 . S
H982 C990 0.930 . S
H983 C991 0.930 . S
H984 C994 0.930 . S
H985 C995 0.930 . S
C986 H980 0.930 . S
C986 C987 1.355 . S
C986 C988 1.415 . S
C987 C986 1.355 . S
C987 C989 1.419 . S
C988 C986 1.415 . S
C988 C993 1.425 . S
C988 C995 1.409 . S
C989 H981 0.930 . S
C989 C987 1.419 . S
C989 C990 1.362 . S
C990 H982 0.930 . S
C990 C989 1.362 . S
C990 C993 1.409 . S
C991 H983 0.930 . S
C991 C992 1.355 . S
C991 C993 1.415 . S
C992 C991 1.355 . S
C992 C994 1.419 . S
C993 C988 1.425 . S
C993 C990 1.409 . S
C993 C991 1.415 . S
C994 H984 0.930 . S
C994 C992 1.419 . S
C994 C995 1.362 . S
C995 H985 0.930 . S
C995 C988 1.409 . S
C995 C994 1.362 . S
H996 C1002 0.930 . S
H997 C1005 0.930 . S
H998 C1006 0.930 . S
H999 C1007 0.930 . S
H1000 C1010 0.930 . S
H1001 C1011 0.930 . S
C1002 H996 0.930 . S
C1002 C1003 1.355 . S
C1002 C1004 1.415 . S
C1003 C1002 1.355 . S
C1003 C1005 1.419 . S
C1004 C1002 1.415 . S
C1004 C1009 1.425 . S
C1004 C1011 1.409 . S
C1005 H997 0.930 . S
C1005 C1003 1.419 . S
C1005 C1006 1.362 . S
C1006 H998 0.930 . S
C1006 C1005 1.362 . S
C1006 C1009 1.409 . S
C1007 H999 0.930 . S
C1007 C1008 1.355 . S
C1007 C1009 1.415 . S
C1008 C1007 1.355 . S
C1008 C1010 1.419 . S
C1009 C1004 1.425 . S
C1009 C1006 1.409 . S
C1009 C1007 1.415 . S
C1010 H1000 0.930 . S
C1010 C1008 1.419 . S
C1010 C1011 1.362 . S
C1011 H1001 0.930 . S
C1011 C1004 1.409 . S
C1011 C1010 1.362 . S
H1012 C1018 0.930 . S
H1013 C1021 0.930 . S
H1014 C1022 0.930 . S
H1015 C1023 0.930 . S
H1016 C1026 0.930 . S
H1017 C1027 0.930 . S
C1018 H1012 0.930 . S
C1018 C1019 1.355 . S
C1018 C1020 1.415 . S
C1019 C1018 1.355 . S
C1019 C1021 1.419 . S
C1020 C1018 1.415 . S
C1020 C1025 1.425 . S
C1020 C1027 1.409 . S
C1021 H1013 0.930 . S
C1021 C1019 1.419 . S
C1021 C1022 1.362 . S
C1022 H1014 0.930 . S
C1022 C1021 1.362 . S
C1022 C1025 1.409 . S
C1023 H1015 0.930 . S
C1023 C1024 1.355 . S
C1023 C1025 1.415 . S
C1024 C1023 1.355 . S
C1024 C1026 1.419 . S
C1025 C1020 1.425 . S
C1025 C1022 1.409 . S
C1025 C1023 1.415 . S
C1026 H1016 0.930 . S
C1026 C1024 1.419 . S
C1026 C1027 1.362 . S
C1027 H1017 0.930 . S
C1027 C1020 1.409 . S
C1027 C1026 1.362 . S
H1028 C1034 0.930 . S
H1029 C1037 0.930 . S
H1030 C1038 0.930 . S
H1031 C1039 0.930 . S
H1032 C1042 0.930 . S
H1033 C1043 0.930 . S
C1034 H1028 0.930 . S
C1034 C1035 1.355 . S
C1034 C1036 1.415 . S
C1035 C1034 1.355 . S
C1035 C1037 1.419 . S
C1036 C1034 1.415 . S
C1036 C1041 1.425 . S
C1036 C1043 1.409 . S
C1037 H1029 0.930 . S
C1037 C1035 1.419 . S
C1037 C1038 1.362 . S
C1038 H1030 0.930 . S
C1038 C1037 1.362 . S
C1038 C1041 1.409 . S
C1039 H1031 0.930 . S
C1039 C1040 1.355 . S
C1039 C1041 1.415 . S
C1040 C1039 1.355 . S
C1040 C1042 1.419 . S
C1041 C1036 1.425 . S
C1041 C1038 1.409 . S
C1041 C1039 1.415 . S
C1042 H1032 0.930 . S
C1042 C1040 1.419 . S
C1042 C1043 1.362 . S
C1043 H1033 0.930 . S
C1043 C1036 1.409 . S
C1043 C1042 1.362 . S
H1044 C1050 0.930 . S
H1045 C1053 0.930 . S
H1046 C1054 0.930 . S
H1047 C1055 0.930 . S
H1048 C1058 0.930 . S
H1049 C1059 0.930 . S
C1050 H1044 0.930 . S
C1050 C1051 1.355 . S
C1050 C1052 1.415 . S
C1051 C1050 1.355 . S
C1051 C1053 1.419 . S
C1052 C1050 1.415 . S
C1052 C1057 1.425 . S
C1052 C1059 1.409 . S
C1053 H1045 0.930 . S
C1053 C1051 1.419 . S
C1053 C1054 1.362 . S
C1054 H1046 0.930 . S
C1054 C1053 1.362 . S
C1054 C1057 1.409 . S
C1055 H1047 0.930 . S
C1055 C1056 1.355 . S
C1055 C1057 1.415 . S
C1056 C1055 1.355 . S
C1056 C1058 1.419 . S
C1057 C1052 1.425 . S
C1057 C1054 1.409 . S
C1057 C1055 1.415 . S
C1058 H1048 0.930 . S
C1058 C1056 1.419 . S
C1058 C1059 1.362 . S
C1059 H1049 0.930 . S
C1059 C1052 1.409 . S
C1059 C1058 1.362 . S
H1060 C1066 0.930 . S
H1061 C1069 0.930 . S
H1062 C1070 0.930 . S
H1063 C1071 0.930 . S
H1064 C1074 0.930 . S
H1065 C1075 0.930 . S
C1066 H1060 0.930 . S
C1066 C1067 1.355 . S
C1066 C1068 1.415 1_565 S
C1067 C1066 1.355 . S
C1067 C1069 1.419 . S
C1068 C1066 1.415 1_545 S
C1068 C1073 1.425 1_545 S
C1068 C1075 1.409 . S
C1069 H1061 0.930 . S
C1069 C1067 1.419 . S
C1069 C1070 1.362 . S
C1070 H1062 0.930 . S
C1070 C1069 1.362 . S
C1070 C1073 1.409 . S
C1071 H1063 0.930 . S
C1071 C1072 1.355 . S
C1071 C1073 1.415 1_545 S
C1072 C1071 1.355 . S
C1072 C1074 1.419 . S
C1073 C1068 1.425 1_565 S
C1073 C1070 1.409 . S
C1073 C1071 1.415 1_565 S
C1074 H1064 0.930 . S
C1074 C1072 1.419 . S
C1074 C1075 1.362 . S
C1075 H1065 0.930 . S
C1075 C1068 1.409 . S
C1075 C1074 1.362 . S
H1076 C1082 0.930 . S
H1077 C1085 0.930 . S
H1078 C1086 0.930 . S
H1079 C1087 0.930 . S
H1080 C1090 0.930 . S
H1081 C1091 0.930 . S
C1082 H1076 0.930 . S
C1082 C1083 1.355 . S
C1082 C1084 1.415 1_655 S
C1083 C1082 1.355 . S
C1083 C1085 1.419 . S
C1084 C1082 1.415 1_455 S
C1084 C1089 1.425 1_455 S
C1084 C1091 1.409 . S
C1085 H1077 0.930 . S
C1085 C1083 1.419 . S
C1085 C1086 1.362 . S
C1086 H1078 0.930 . S
C1086 C1085 1.362 . S
C1086 C1089 1.409 . S
C1087 H1079 0.930 . S
C1087 C1088 1.355 . S
C1087 C1089 1.415 1_455 S
C1088 C1087 1.355 . S
C1088 C1090 1.419 . S
C1089 C1084 1.425 1_655 S
C1089 C1086 1.409 . S
C1089 C1087 1.415 1_655 S
C1090 H1080 0.930 . S
C1090 C1088 1.419 . S
C1090 C1091 1.362 . S
C1091 H1081 0.930 . S
C1091 C1084 1.409 . S
C1091 C1090 1.362 . S
H1092 C1098 0.930 . S
H1093 C1101 0.930 . S
H1094 C1102 0.930 . S
H1095 C1103 0.930 . S
H1096 C1106 0.930 . S
H1097 C1107 0.930 . S
C1098 H1092 0.930 . S
C1098 C1099 1.355 . S
C1098 C1100 1.415 . S
C1099 C1098 1.355 . S
C1099 C1101 1.419 . S
C1100 C1098 1.415 . S
C1100 C1105 1.425 . S
C1100 C1107 1.409 . S
C1101 H1093 0.930 . S
C1101 C1099 1.419 . S
C1101 C1102 1.362 . S
C1102 H1094 0.930 . S
C1102 C1101 1.362 . S
C1102 C1105 1.409 . S
C1103 H1095 0.930 . S
C1103 C1104 1.355 . S
C1103 C1105 1.415 . S
C1104 C1103 1.355 . S
C1104 C1106 1.419 . S
C1105 C1100 1.425 . S
C1105 C1102 1.409 . S
C1105 C1103 1.415 . S
C1106 H1096 0.930 . S
C1106 C1104 1.419 . S
C1106 C1107 1.362 . S
C1107 H1097 0.930 . S
C1107 C1100 1.409 . S
C1107 C1106 1.362 . S
H1108 C1114 0.930 . S
H1109 C1117 0.930 . S
H1110 C1118 0.930 . S
H1111 C1119 0.930 . S
H1112 C1122 0.930 . S
H1113 C1123 0.930 . S
C1114 H1108 0.930 . S
C1114 C1115 1.355 . S
C1114 C1116 1.415 . S
C1115 C1114 1.355 . S
C1115 C1117 1.419 . S
C1116 C1114 1.415 . S
C1116 C1121 1.425 1_545 S
C1116 C1123 1.409 . S
C1117 H1109 0.930 . S
C1117 C1115 1.419 . S
C1117 C1118 1.362 1_545 S
C1118 H1110 0.930 . S
C1118 C1117 1.362 1_565 S
C1118 C1121 1.409 . S
C1119 H1111 0.930 . S
C1119 C1120 1.355 . S
C1119 C1121 1.415 . S
C1120 C1119 1.355 . S
C1120 C1122 1.419 . S
C1121 C1116 1.425 1_565 S
C1121 C1118 1.409 . S
C1121 C1119 1.415 . S
C1122 H1112 0.930 . S
C1122 C1120 1.419 . S
C1122 C1123 1.362 1_565 S
C1123 H1113 0.930 . S
C1123 C1116 1.409 . S
C1123 C1122 1.362 1_545 S
H1124 C1130 0.930 . S
H1125 C1133 0.930 . S
H1126 C1134 0.930 . S
H1127 C1135 0.930 . S
H1128 C1138 0.930 . S
H1129 C1139 0.930 . S
C1130 H1124 0.930 . S
C1130 C1131 1.355 . S
C1130 C1132 1.415 1_655 S
C1131 C1130 1.355 . S
C1131 C1133 1.419 . S
C1132 C1130 1.415 1_455 S
C1132 C1137 1.425 1_455 S
C1132 C1139 1.409 . S
C1133 H1125 0.930 . S
C1133 C1131 1.419 . S
C1133 C1134 1.362 . S
C1134 H1126 0.930 . S
C1134 C1133 1.362 . S
C1134 C1137 1.409 . S
C1135 H1127 0.930 . S
C1135 C1136 1.355 . S
C1135 C1137 1.415 1_455 S
C1136 C1135 1.355 . S
C1136 C1138 1.419 . S
C1137 C1132 1.425 1_655 S
C1137 C1134 1.409 . S
C1137 C1135 1.415 1_655 S
C1138 H1128 0.930 . S
C1138 C1136 1.419 . S
C1138 C1139 1.362 . S
C1139 H1129 0.930 . S
C1139 C1132 1.409 . S
C1139 C1138 1.362 . S
H1140 C1146 0.930 . S
H1141 C1149 0.930 . S
H1142 C1150 0.930 . S
H1143 C1151 0.930 . S
H1144 C1154 0.930 . S
H1145 C1155 0.930 . S
C1146 H1140 0.930 . S
C1146 C1147 1.355 . S
C1146 C1148 1.415 . S
C1147 C1146 1.355 . S
C1147 C1149 1.419 . S
C1148 C1146 1.415 . S
C1148 C1153 1.425 . S
C1148 C1155 1.409 . S
C1149 H1141 0.930 . S
C1149 C1147 1.419 . S
C1149 C1150 1.362 . S
C1150 H1142 0.930 . S
C1150 C1149 1.362 . S
C1150 C1153 1.409 . S
C1151 H1143 0.930 . S
C1151 C1152 1.355 . S
C1151 C1153 1.415 . S
C1152 C1151 1.355 . S
C1152 C1154 1.419 . S
C1153 C1148 1.425 . S
C1153 C1150 1.409 . S
C1153 C1151 1.415 . S
C1154 H1144 0.930 . S
C1154 C1152 1.419 . S
C1154 C1155 1.362 . S
C1155 H1145 0.930 . S
C1155 C1148 1.409 . S
C1155 C1154 1.362 . S
H1156 C1162 0.930 . S
H1157 C1165 0.930 . S
H1158 C1166 0.930 . S
H1159 C1167 0.930 . S
H1160 C1170 0.930 . S
H1161 C1171 0.930 . S
C1162 H1156 0.930 . S
C1162 C1163 1.355 . S
C1162 C1164 1.415 . S
C1163 C1162 1.355 . S
C1163 C1165 1.419 . S
C1164 C1162 1.415 . S
C1164 C1169 1.425 . S
C1164 C1171 1.409 . S
C1165 H1157 0.930 . S
C1165 C1163 1.419 . S
C1165 C1166 1.362 . S
C1166 H1158 0.930 . S
C1166 C1165 1.362 . S
C1166 C1169 1.409 . S
C1167 H1159 0.930 . S
C1167 C1168 1.355 . S
C1167 C1169 1.415 . S
C1168 C1167 1.355 . S
C1168 C1170 1.419 . S
C1169 C1164 1.425 . S
C1169 C1166 1.409 . S
C1169 C1167 1.415 . S
C1170 H1160 0.930 . S
C1170 C1168 1.419 . S
C1170 C1171 1.362 . S
C1171 H1161 0.930 . S
C1171 C1164 1.409 . S
C1171 C1170 1.362 . S
H1172 C1178 0.930 . S
H1173 C1181 0.930 . S
H1174 C1182 0.930 . S
H1175 C1183 0.930 . S
H1176 C1186 0.930 . S
H1177 C1187 0.930 . S
C1178 H1172 0.930 . S
C1178 C1179 1.355 . S
C1178 C1180 1.415 . S
C1179 C1178 1.355 . S
C1179 C1181 1.419 . S
C1180 C1178 1.415 . S
C1180 C1185 1.425 . S
C1180 C1187 1.409 . S
C1181 H1173 0.930 . S
C1181 C1179 1.419 . S
C1181 C1182 1.362 . S
C1182 H1174 0.930 . S
C1182 C1181 1.362 . S
C1182 C1185 1.409 . S
C1183 H1175 0.930 . S
C1183 C1184 1.355 . S
C1183 C1185 1.415 . S
C1184 C1183 1.355 . S
C1184 C1186 1.419 . S
C1185 C1180 1.425 . S
C1185 C1182 1.409 . S
C1185 C1183 1.415 . S
C1186 H1176 0.930 . S
C1186 C1184 1.419 . S
C1186 C1187 1.362 . S
C1187 H1177 0.930 . S
C1187 C1180 1.409 . S
C1187 C1186 1.362 . S
H1188 C1194 0.930 . S
H1189 C1197 0.930 . S
H1190 C1198 0.930 . S
H1191 C1199 0.930 . S
H1192 C1202 0.930 . S
H1193 C1203 0.930 . S
C1194 H1188 0.930 . S
C1194 C1195 1.355 . S
C1194 C1196 1.415 . S
C1195 C1194 1.355 . S
C1195 C1197 1.419 . S
C1196 C1194 1.415 . S
C1196 C1201 1.425 . S
C1196 C1203 1.409 . S
C1197 H1189 0.930 . S
C1197 C1195 1.419 . S
C1197 C1198 1.362 . S
C1198 H1190 0.930 . S
C1198 C1197 1.362 . S
C1198 C1201 1.409 . S
C1199 H1191 0.930 . S
C1199 C1200 1.355 . S
C1199 C1201 1.415 . S
C1200 C1199 1.355 . S
C1200 C1202 1.419 . S
C1201 C1196 1.425 . S
C1201 C1198 1.409 . S
C1201 C1199 1.415 . S
C1202 H1192 0.930 . S
C1202 C1200 1.419 . S
C1202 C1203 1.362 . S
C1203 H1193 0.930 . S
C1203 C1196 1.409 . S
C1203 C1202 1.362 . S
H1204 C1210 0.930 . S
H1205 C1213 0.930 . S
H1206 C1214 0.930 . S
H1207 C1215 0.930 . S
H1208 C1218 0.930 . S
H1209 C1219 0.930 . S
C1210 H1204 0.930 . S
C1210 C1211 1.355 . S
C1210 C1212 1.415 . S
C1211 C1210 1.355 . S
C1211 C1213 1.419 . S
C1212 C1210 1.415 . S
C1212 C1217 1.425 . S
C1212 C1219 1.409 . S
C1213 H1205 0.930 . S
C1213 C1211 1.419 . S
C1213 C1214 1.362 . S
C1214 H1206 0.930 . S
C1214 C1213 1.362 . S
C1214 C1217 1.409 . S
C1215 H1207 0.930 . S
C1215 C1216 1.355 . S
C1215 C1217 1.415 . S
C1216 C1215 1.355 . S
C1216 C1218 1.419 . S
C1217 C1212 1.425 . S
C1217 C1214 1.409 . S
C1217 C1215 1.415 . S
C1218 H1208 0.930 . S
C1218 C1216 1.419 . S
C1218 C1219 1.362 . S
C1219 H1209 0.930 . S
C1219 C1212 1.409 . S
C1219 C1218 1.362 . S
H1220 C1226 0.930 . S
H1221 C1229 0.930 1_556 S
H1222 C1230 0.930 . S
H1223 C1231 0.930 . S
H1224 C1234 0.930 . S
H1225 C1235 0.930 . S
C1226 H1220 0.930 . S
C1226 C1227 1.355 . S
C1226 C1228 1.415 . S
C1227 C1226 1.355 . S
C1227 C1229 1.419 . S
C1228 C1226 1.415 . S
C1228 C1233 1.425 . S
C1228 C1235 1.409 . S
C1229 H1221 0.930 1_554 S
C1229 C1227 1.419 . S
C1229 C1230 1.362 . S
C1230 H1222 0.930 . S
C1230 C1229 1.362 . S
C1230 C1233 1.409 . S
C1231 H1223 0.930 . S
C1231 C1232 1.355 . S
C1231 C1233 1.415 . S
C1232 C1231 1.355 . S
C1232 C1234 1.419 . S
C1233 C1228 1.425 . S
C1233 C1230 1.409 . S
C1233 C1231 1.415 . S
C1234 H1224 0.930 . S
C1234 C1232 1.419 . S
C1234 C1235 1.362 . S
C1235 H1225 0.930 . S
C1235 C1228 1.409 . S
C1235 C1234 1.362 . S
H1236 C1242 0.930 . S
H1237 C1245 0.930 1_554 S
H1238 C1246 0.930 . S
H1239 C1247 0.930 . S
H1240 C1250 0.930 . S
H1241 C1251 0.930 . S
C1242 H1236 0.930 . S
C1242 C1243 1.355 . S
C1242 C1244 1.415 . S
C1243 C1242 1.355 . S
C1243 C1245 1.419 . S
C1244 C1242 1.415 . S
C1244 C1249 1.425 . S
C1244 C1251 1.409 . S
C1245 H1237 0.930 1_556 S
C1245 C1243 1.419 . S
C1245 C1246 1.362 . S
C1246 H1238 0.930 . S
C1246 C1245 1.362 . S
C1246 C1249 1.409 . S
C1247 H1239 0.930 . S
C1247 C1248 1.355 . S
C1247 C1249 1.415 . S
C1248 C1247 1.355 . S
C1248 C1250 1.419 . S
C1249 C1244 1.425 . S
C1249 C1246 1.409 . S
C1249 C1247 1.415 . S
C1250 H1240 0.930 . S
C1250 C1248 1.419 . S
C1250 C1251 1.362 . S
C1251 H1241 0.930 . S
C1251 C1244 1.409 . S
C1251 C1250 1.362 . S
H1252 C1258 0.930 . S
H1253 C1261 0.930 . S
H1254 C1262 0.930 . S
H1255 C1263 0.930 . S
H1256 C1266 0.930 1_554 S
H1257 C1267 0.930 . S
C1258 H1252 0.930 . S
C1258 C1259 1.355 . S
C1258 C1260 1.415 . S
C1259 C1258 1.355 . S
C1259 C1261 1.419 . S
C1260 C1258 1.415 . S
C1260 C1265 1.425 . S
C1260 C1267 1.409 . S
C1261 H1253 0.930 . S
C1261 C1259 1.419 . S
C1261 C1262 1.362 . S
C1262 H1254 0.930 . S
C1262 C1261 1.362 . S
C1262 C1265 1.409 . S
C1263 H1255 0.930 . S
C1263 C1264 1.355 . S
C1263 C1265 1.415 . S
C1264 C1263 1.355 . S
C1264 C1266 1.419 . S
C1265 C1260 1.425 . S
C1265 C1262 1.409 . S
C1265 C1263 1.415 . S
C1266 H1256 0.930 1_556 S
C1266 C1264 1.419 . S
C1266 C1267 1.362 . S
C1267 H1257 0.930 . S
C1267 C1260 1.409 . S
C1267 C1266 1.362 . S
H1268 C1274 0.930 . S
H1269 C1277 0.930 . S
H1270 C1278 0.930 . S
H1271 C1279 0.930 . S
H1272 C1282 0.930 . S
H1273 C1283 0.930 . S
C1274 H1268 0.930 . S
C1274 C1275 1.355 . S
C1274 C1276 1.415 . S
C1275 C1274 1.355 . S
C1275 C1277 1.419 . S
C1276 C1274 1.415 . S
C1276 C1281 1.425 . S
C1276 C1283 1.409 . S
C1277 H1269 0.930 . S
C1277 C1275 1.419 . S
C1277 C1278 1.362 . S
C1278 H1270 0.930 . S
C1278 C1277 1.362 . S
C1278 C1281 1.409 . S
C1279 H1271 0.930 . S
C1279 C1280 1.355 . S
C1279 C1281 1.415 . S
C1280 C1279 1.355 . S
C1280 C1282 1.419 . S
C1281 C1276 1.425 . S
C1281 C1278 1.409 . S
C1281 C1279 1.415 . S
C1282 H1272 0.930 . S
C1282 C1280 1.419 . S
C1282 C1283 1.362 . S
C1283 H1273 0.930 . S
C1283 C1276 1.409 . S
C1283 C1282 1.362 . S
H1284 C1290 0.930 . S
H1285 C1293 0.930 . S
H1286 C1294 0.930 . S
H1287 C1295 0.930 . S
H1288 C1298 0.930 . S
H1289 C1299 0.930 . S
C1290 H1284 0.930 . S
C1290 C1291 1.355 . S
C1290 C1292 1.415 . S
C1291 C1290 1.355 . S
C1291 C1293 1.419 . S
C1292 C1290 1.415 . S
C1292 C1297 1.425 . S
C1292 C1299 1.409 . S
C1293 H1285 0.930 . S
C1293 C1291 1.419 . S
C1293 C1294 1.362 . S
C1294 H1286 0.930 . S
C1294 C1293 1.362 . S
C1294 C1297 1.409 . S
C1295 H1287 0.930 . S
C1295 C1296 1.355 . S
C1295 C1297 1.415 . S
C1296 C1295 1.355 . S
C1296 C1298 1.419 . S
C1297 C1292 1.425 . S
C1297 C1294 1.409 . S
C1297 C1295 1.415 . S
C1298 H1288 0.930 . S
C1298 C1296 1.419 . S
C1298 C1299 1.362 . S
C1299 H1289 0.930 . S
C1299 C1292 1.409 . S
C1299 C1298 1.362 . S
H1300 C1306 0.930 . S
H1301 C1309 0.930 . S
H1302 C1310 0.930 . S
H1303 C1311 0.930 . S
H1304 C1314 0.930 . S
H1305 C1315 0.930 . S
C1306 H1300 0.930 . S
C1306 C1307 1.355 . S
C1306 C1308 1.415 . S
C1307 C1306 1.355 . S
C1307 C1309 1.419 . S
C1308 C1306 1.415 . S
C1308 C1313 1.425 . S
C1308 C1315 1.409 . S
C1309 H1301 0.930 . S
C1309 C1307 1.419 . S
C1309 C1310 1.362 . S
C1310 H1302 0.930 . S
C1310 C1309 1.362 . S
C1310 C1313 1.409 . S
C1311 H1303 0.930 . S
C1311 C1312 1.355 . S
C1311 C1313 1.415 . S
C1312 C1311 1.355 . S
C1312 C1314 1.419 . S
C1313 C1308 1.425 . S
C1313 C1310 1.409 . S
C1313 C1311 1.415 . S
C1314 H1304 0.930 . S
C1314 C1312 1.419 . S
C1314 C1315 1.362 . S
C1315 H1305 0.930 . S
C1315 C1308 1.409 . S
C1315 C1314 1.362 . S
H1316 C1322 0.930 . S
H1317 C1325 0.930 . S
H1318 C1326 0.930 . S
H1319 C1327 0.930 . S
H1320 C1330 0.930 . S
H1321 C1331 0.930 . S
C1322 H1316 0.930 . S
C1322 C1323 1.355 . S
C1322 C1324 1.415 . S
C1323 C1322 1.355 . S
C1323 C1325 1.419 . S
C1324 C1322 1.415 . S
C1324 C1329 1.425 . S
C1324 C1331 1.409 . S
C1325 H1317 0.930 . S
C1325 C1323 1.419 . S
C1325 C1326 1.362 . S
C1326 H1318 0.930 . S
C1326 C1325 1.362 . S
C1326 C1329 1.409 . S
C1327 H1319 0.930 . S
C1327 C1328 1.355 . S
C1327 C1329 1.415 . S
C1328 C1327 1.355 . S
C1328 C1330 1.419 . S
C1329 C1324 1.425 . S
C1329 C1326 1.409 . S
C1329 C1327 1.415 . S
C1330 H1320 0.930 . S
C1330 C1328 1.419 . S
C1330 C1331 1.362 . S
C1331 H1321 0.930 . S
C1331 C1324 1.409 . S
C1331 C1330 1.362 . S
H1332 C1338 0.930 . S
H1333 C1341 0.930 . S
H1334 C1342 0.930 . S
H1335 C1343 0.930 . S
H1336 C1346 0.930 . S
H1337 C1347 0.930 . S
C1338 H1332 0.930 . S
C1338 C1339 1.355 . S
C1338 C1340 1.415 . S
C1339 C1338 1.355 . S
C1339 C1341 1.419 . S
C1340 C1338 1.415 . S
C1340 C1345 1.425 . S
C1340 C1347 1.409 . S
C1341 H1333 0.930 . S
C1341 C1339 1.419 . S
C1341 C1342 1.362 . S
C1342 H1334 0.930 . S
C1342 C1341 1.362 . S
C1342 C1345 1.409 . S
C1343 H1335 0.930 . S
C1343 C1344 1.355 . S
C1343 C1345 1.415 . S
C1344 C1343 1.355 . S
C1344 C1346 1.419 . S
C1345 C1340 1.425 . S
C1345 C1342 1.409 . S
C1345 C1343 1.415 . S
C1346 H1336 0.930 . S
C1346 C1344 1.419 . S
C1346 C1347 1.362 . S
C1347 H1337 0.930 . S
C1347 C1340 1.409 . S
C1347 C1346 1.362 . S
H1348 C1354 0.930 . S
H1349 C1357 0.930 . S
H1350 C1358 0.930 . S
H1351 C1359 0.930 . S
H1352 C1362 0.930 . S
H1353 C1363 0.930 . S
C1354 H1348 0.930 . S
C1354 C1355 1.355 . S
C1354 C1356 1.415 . S
C1355 C1354 1.355 . S
C1355 C1357 1.419 . S
C1356 C1354 1.415 . S
C1356 C1361 1.425 . S
C1356 C1363 1.409 . S
C1357 H1349 0.930 . S
C1357 C1355 1.419 . S
C1357 C1358 1.362 . S
C1358 H1350 0.930 . S
C1358 C1357 1.362 . S
C1358 C1361 1.409 . S
C1359 H1351 0.930 . S
C1359 C1360 1.355 . S
C1359 C1361 1.415 . S
C1360 C1359 1.355 . S
C1360 C1362 1.419 . S
C1361 C1356 1.425 . S
C1361 C1358 1.409 . S
C1361 C1359 1.415 . S
C1362 H1352 0.930 . S
C1362 C1360 1.419 . S
C1362 C1363 1.362 . S
C1363 H1353 0.930 . S
C1363 C1356 1.409 . S
C1363 C1362 1.362 . S
H1364 C1370 0.930 . S
H1365 C1373 0.930 . S
H1366 C1374 0.930 . S
H1367 C1375 0.930 . S
H1368 C1378 0.930 . S
H1369 C1379 0.930 . S
C1370 H1364 0.930 . S
C1370 C1371 1.355 . S
C1370 C1372 1.415 . S
C1371 C1370 1.355 . S
C1371 C1373 1.419 . S
C1372 C1370 1.415 . S
C1372 C1377 1.425 . S
C1372 C1379 1.409 . S
C1373 H1365 0.930 . S
C1373 C1371 1.419 . S
C1373 C1374 1.362 . S
C1374 H1366 0.930 . S
C1374 C1373 1.362 . S
C1374 C1377 1.409 . S
C1375 H1367 0.930 . S
C1375 C1376 1.355 . S
C1375 C1377 1.415 . S
C1376 C1375 1.355 . S
C1376 C1378 1.419 . S
C1377 C1372 1.425 . S
C1377 C1374 1.409 . S
C1377 C1375 1.415 . S
C1378 H1368 0.930 . S
C1378 C1376 1.419 . S
C1378 C1379 1.362 . S
C1379 H1369 0.930 . S
C1379 C1372 1.409 . S
C1379 C1378 1.362 . S
H1380 C1386 0.930 . S
H1381 C1389 0.930 . S
H1382 C1390 0.930 . S
H1383 C1391 0.930 . S
H1384 C1394 0.930 . S
H1385 C1395 0.930 . S
C1386 H1380 0.930 . S
C1386 C1387 1.355 . S
C1386 C1388 1.415 . S
C1387 C1386 1.355 . S
C1387 C1389 1.419 . S
C1388 C1386 1.415 . S
C1388 C1393 1.425 . S
C1388 C1395 1.409 . S
C1389 H1381 0.930 . S
C1389 C1387 1.419 . S
C1389 C1390 1.362 . S
C1390 H1382 0.930 . S
C1390 C1389 1.362 . S
C1390 C1393 1.409 . S
C1391 H1383 0.930 . S
C1391 C1392 1.355 . S
C1391 C1393 1.415 . S
C1392 C1391 1.355 . S
C1392 C1394 1.419 . S
C1393 C1388 1.425 . S
C1393 C1390 1.409 . S
C1393 C1391 1.415 . S
C1394 H1384 0.930 . S
C1394 C1392 1.419 . S
C1394 C1395 1.362 . S
C1395 H1385 0.930 . S
C1395 C1388 1.409 . S
C1395 C1394 1.362 . S
H1396 C1402 0.930 . S
H1397 C1405 0.930 . S
H1398 C1406 0.930 . S
H1399 C1407 0.930 . S
H1400 C1410 0.930 . S
H1401 C1411 0.930 . S
C1402 H1396 0.930 . S
C1402 C1403 1.355 . S
C1402 C1404 1.415 . S
C1403 C1402 1.355 . S
C1403 C1405 1.419 . S
C1404 C1402 1.415 . S
C1404 C1409 1.425 . S
C1404 C1411 1.409 . S
C1405 H1397 0.930 . S
C1405 C1403 1.419 . S
C1405 C1406 1.362 . S
C1406 H1398 0.930 . S
C1406 C1405 1.362 . S
C1406 C1409 1.409 . S
C1407 H1399 0.930 . S
C1407 C1408 1.355 . S
C1407 C1409 1.415 . S
C1408 C1407 1.355 . S
C1408 C1410 1.419 . S
C1409 C1404 1.425 . S
C1409 C1406 1.409 . S
C1409 C1407 1.415 . S
C1410 H1400 0.930 . S
C1410 C1408 1.419 . S
C1410 C1411 1.362 . S
C1411 H1401 0.930 . S
C1411 C1404 1.409 . S
C1411 C1410 1.362 . S
H1412 C1418 0.930 . S
H1413 C1421 0.930 . S
H1414 C1422 0.930 . S
H1415 C1423 0.930 . S
H1416 C1426 0.930 . S
H1417 C1427 0.930 . S
C1418 H1412 0.930 . S
C1418 C1419 1.355 . S
C1418 C1420 1.415 . S
C1419 C1418 1.355 . S
C1419 C1421 1.419 . S
C1420 C1418 1.415 . S
C1420 C1425 1.425 . S
C1420 C1427 1.409 . S
C1421 H1413 0.930 . S
C1421 C1419 1.419 . S
C1421 C1422 1.362 . S
C1422 H1414 0.930 . S
C1422 C1421 1.362 . S
C1422 C1425 1.409 . S
C1423 H1415 0.930 . S
C1423 C1424 1.355 . S
C1423 C1425 1.415 . S
C1424 C1423 1.355 . S
C1424 C1426 1.419 . S
C1425 C1420 1.425 . S
C1425 C1422 1.409 . S
C1425 C1423 1.415 . S
C1426 H1416 0.930 . S
C1426 C1424 1.419 . S
C1426 C1427 1.362 . S
C1427 H1417 0.930 . S
C1427 C1420 1.409 . S
C1427 C1426 1.362 . S
H1428 C1434 0.930 . S
H1429 C1437 0.930 . S
H1430 C1438 0.930 . S
H1431 C1439 0.930 . S
H1432 C1442 0.930 . S
H1433 C1443 0.930 . S
C1434 H1428 0.930 . S
C1434 C1435 1.355 . S
C1434 C1436 1.415 . S
C1435 C1434 1.355 . S
C1435 C1437 1.419 . S
C1436 C1434 1.415 . S
C1436 C1441 1.425 . S
C1436 C1443 1.409 . S
C1437 H1429 0.930 . S
C1437 C1435 1.419 . S
C1437 C1438 1.362 . S
C1438 H1430 0.930 . S
C1438 C1437 1.362 . S
C1438 C1441 1.409 . S
C1439 H1431 0.930 . S
C1439 C1440 1.355 . S
C1439 C1441 1.415 . S
C1440 C1439 1.355 . S
C1440 C1442 1.419 . S
C1441 C1436 1.425 . S
C1441 C1438 1.409 . S
C1441 C1439 1.415 . S
C1442 H1432 0.930 . S
C1442 C1440 1.419 . S
C1442 C1443 1.362 . S
C1443 H1433 0.930 . S
C1443 C1436 1.409 . S
C1443 C1442 1.362 . S
H1444 C1450 0.930 . S
H1445 C1453 0.930 . S
H1446 C1454 0.930 . S
H1447 C1455 0.930 . S
H1448 C1458 0.930 . S
H1449 C1459 0.930 . S
C1450 H1444 0.930 . S
C1450 C1451 1.355 . S
C1450 C1452 1.415 . S
C1451 C1450 1.355 . S
C1451 C1453 1.419 . S
C1452 C1450 1.415 . S
C1452 C1457 1.425 . S
C1452 C1459 1.409 . S
C1453 H1445 0.930 . S
C1453 C1451 1.419 . S
C1453 C1454 1.362 . S
C1454 H1446 0.930 . S
C1454 C1453 1.362 . S
C1454 C1457 1.409 . S
C1455 H1447 0.930 . S
C1455 C1456 1.355 . S
C1455 C1457 1.415 . S
C1456 C1455 1.355 . S
C1456 C1458 1.419 . S
C1457 C1452 1.425 . S
C1457 C1454 1.409 . S
C1457 C1455 1.415 . S
C1458 H1448 0.930 . S
C1458 C1456 1.419 . S
C1458 C1459 1.362 . S
C1459 H1449 0.930 . S
C1459 C1452 1.409 . S
C1459 C1458 1.362 . S
H1460 C1466 0.930 . S
H1461 C1469 0.930 . S
H1462 C1470 0.930 . S
H1463 C1471 0.930 . S
H1464 C1474 0.930 . S
H1465 C1475 0.930 . S
C1466 H1460 0.930 . S
C1466 C1467 1.355 . S
C1466 C1468 1.415 . S
C1467 C1466 1.355 . S
C1467 C1469 1.419 . S
C1468 C1466 1.415 . S
C1468 C1473 1.425 . S
C1468 C1475 1.409 . S
C1469 H1461 0.930 . S
C1469 C1467 1.419 . S
C1469 C1470 1.362 . S
C1470 H1462 0.930 . S
C1470 C1469 1.362 . S
C1470 C1473 1.409 . S
C1471 H1463 0.930 . S
C1471 C1472 1.355 . S
C1471 C1473 1.415 . S
C1472 C1471 1.355 . S
C1472 C1474 1.419 . S
C1473 C1468 1.425 . S
C1473 C1470 1.409 . S
C1473 C1471 1.415 . S
C1474 H1464 0.930 . S
C1474 C1472 1.419 . S
C1474 C1475 1.362 . S
C1475 H1465 0.930 . S
C1475 C1468 1.409 . S
C1475 C1474 1.362 . S
H1476 C1482 0.930 . S
H1477 C1485 0.930 . S
H1478 C1486 0.930 . S
H1479 C1487 0.930 . S
H1480 C1490 0.930 . S
H1481 C1491 0.930 . S
C1482 H1476 0.930 . S
C1482 C1483 1.355 . S
C1482 C1484 1.415 . S
C1483 C1482 1.355 . S
C1483 C1485 1.419 . S
C1484 C1482 1.415 . S
C1484 C1489 1.425 . S
C1484 C1491 1.409 . S
C1485 H1477 0.930 . S
C1485 C1483 1.419 . S
C1485 C1486 1.362 . S
C1486 H1478 0.930 . S
C1486 C1485 1.362 . S
C1486 C1489 1.409 . S
C1487 H1479 0.930 . S
C1487 C1488 1.355 . S
C1487 C1489 1.415 . S
C1488 C1487 1.355 . S
C1488 C1490 1.419 . S
C1489 C1484 1.425 . S
C1489 C1486 1.409 . S
C1489 C1487 1.415 . S
C1490 H1480 0.930 . S
C1490 C1488 1.419 . S
C1490 C1491 1.362 . S
C1491 H1481 0.930 . S
C1491 C1484 1.409 . S
C1491 C1490 1.362 . S
H1492 C1498 0.930 . S
H1493 C1501 0.930 . S
H1494 C1502 0.930 . S
H1495 C1503 0.930 . S
H1496 C1506 0.930 . S
H1497 C1507 0.930 . S
C1498 H1492 0.930 . S
C1498 C1499 1.355 . S
C1498 C1500 1.415 . S
C1499 C1498 1.355 . S
C1499 C1501 1.419 . S
C1500 C1498 1.415 . S
C1500 C1505 1.425 . S
C1500 C1507 1.409 . S
C1501 H1493 0.930 . S
C1501 C1499 1.419 . S
C1501 C1502 1.362 . S
C1502 H1494 0.930 . S
C1502 C1501 1.362 . S
C1502 C1505 1.409 . S
C1503 H1495 0.930 . S
C1503 C1504 1.355 . S
C1503 C1505 1.415 . S
C1504 C1503 1.355 . S
C1504 C1506 1.419 . S
C1505 C1500 1.425 . S
C1505 C1502 1.409 . S
C1505 C1503 1.415 . S
C1506 H1496 0.930 . S
C1506 C1504 1.419 . S
C1506 C1507 1.362 . S
C1507 H1497 0.930 . S
C1507 C1500 1.409 . S
C1507 C1506 1.362 . S
H1508 C1514 0.930 . S
H1509 C1517 0.930 . S
H1510 C1518 0.930 . S
H1511 C1519 0.930 . S
H1512 C1522 0.930 . S
H1513 C1523 0.930 . S
C1514 H1508 0.930 . S
C1514 C1515 1.355 . S
C1514 C1516 1.415 . S
C1515 C1514 1.355 . S
C1515 C1517 1.419 . S
C1516 C1514 1.415 . S
C1516 C1521 1.425 . S
C1516 C1523 1.409 . S
C1517 H1509 0.930 . S
C1517 C1515 1.419 . S
C1517 C1518 1.362 . S
C1518 H1510 0.930 . S
C1518 C1517 1.362 . S
C1518 C1521 1.409 . S
C1519 H1511 0.930 . S
C1519 C1520 1.355 . S
C1519 C1521 1.415 . S
C1520 C1519 1.355 . S
C1520 C1522 1.419 . S
C1521 C1516 1.425 . S
C1521 C1518 1.409 . S
C1521 C1519 1.415 . S
C1522 H1512 0.930 . S
C1522 C1520 1.419 . S
C1522 C1523 1.362 . S
C1523 H1513 0.930 . S
C1523 C1516 1.409 . S
C1523 C1522 1.362 . S
H1524 C1530 0.930 . S
H1525 C1533 0.930 . S
H1526 C1534 0.930 1_655 S
H1527 C1535 0.930 . S
H1528 C1538 0.930 . S
H1529 C1539 0.930 1_455 S
C1530 H1524 0.930 . S
C1530 C1531 1.355 . S
C1530 C1532 1.415 . S
C1531 C1530 1.355 . S
C1531 C1533 1.419 . S
C1532 C1530 1.415 . S
C1532 C1537 1.425 1_455 S
C1532 C1539 1.409 1_455 S
C1533 H1525 0.930 . S
C1533 C1531 1.419 . S
C1533 C1534 1.362 . S
C1534 H1526 0.930 1_455 S
C1534 C1533 1.362 . S
C1534 C1537 1.409 1_455 S
C1535 H1527 0.930 . S
C1535 C1536 1.355 . S
C1535 C1537 1.415 . S
C1536 C1535 1.355 . S
C1536 C1538 1.419 . S
C1537 C1532 1.425 1_655 S
C1537 C1534 1.409 1_655 S
C1537 C1535 1.415 . S
C1538 H1528 0.930 . S
C1538 C1536 1.419 . S
C1538 C1539 1.362 . S
C1539 H1529 0.930 1_655 S
C1539 C1532 1.409 1_655 S
C1539 C1538 1.362 . S
H1540 C1546 0.930 . S
H1541 C1549 0.930 . S
H1542 C1550 0.930 . S
H1543 C1551 0.930 . S
H1544 C1554 0.930 . S
H1545 C1555 0.930 . S
C1546 H1540 0.930 . S
C1546 C1547 1.355 . S
C1546 C1548 1.415 . S
C1547 C1546 1.355 . S
C1547 C1549 1.419 . S
C1548 C1546 1.415 . S
C1548 C1553 1.425 . S
C1548 C1555 1.409 . S
C1549 H1541 0.930 . S
C1549 C1547 1.419 . S
C1549 C1550 1.362 . S
C1550 H1542 0.930 . S
C1550 C1549 1.362 . S
C1550 C1553 1.409 . S
C1551 H1543 0.930 . S
C1551 C1552 1.355 . S
C1551 C1553 1.415 . S
C1552 C1551 1.355 . S
C1552 C1554 1.419 . S
C1553 C1548 1.425 . S
C1553 C1550 1.409 . S
C1553 C1551 1.415 . S
C1554 H1544 0.930 . S
C1554 C1552 1.419 . S
C1554 C1555 1.362 . S
C1555 H1545 0.930 . S
C1555 C1548 1.409 . S
C1555 C1554 1.362 . S
H1556 C1562 0.930 . S
H1557 C1565 0.930 . S
H1558 C1566 0.930 1_565 S
H1559 C1567 0.930 . S
H1560 C1570 0.930 . S
H1561 C1571 0.930 1_545 S
C1562 H1556 0.930 . S
C1562 C1563 1.355 . S
C1562 C1564 1.415 . S
C1563 C1562 1.355 . S
C1563 C1565 1.419 . S
C1564 C1562 1.415 . S
C1564 C1569 1.425 1_545 S
C1564 C1571 1.409 1_545 S
C1565 H1557 0.930 . S
C1565 C1563 1.419 . S
C1565 C1566 1.362 . S
C1566 H1558 0.930 1_545 S
C1566 C1565 1.362 . S
C1566 C1569 1.409 1_545 S
C1567 H1559 0.930 . S
C1567 C1568 1.355 . S
C1567 C1569 1.415 . S
C1568 C1567 1.355 . S
C1568 C1570 1.419 . S
C1569 C1564 1.425 1_565 S
C1569 C1566 1.409 1_565 S
C1569 C1567 1.415 . S
C1570 H1560 0.930 . S
C1570 C1568 1.419 . S
C1570 C1571 1.362 . S
C1571 H1561 0.930 1_565 S
C1571 C1564 1.409 1_565 S
C1571 C1570 1.362 . S
H1572 C1578 0.930 . S
H1573 C1581 0.930 . S
H1574 C1582 0.930 . S
H1575 C1583 0.930 . S
H1576 C1586 0.930 . S
H1577 C1587 0.930 . S
C1578 H1572 0.930 . S
C1578 C1579 1.355 1_554 S
C1578 C1580 1.415 . S
C1579 C1578 1.355 1_556 S
C1579 C1581 1.419 . S
C1580 C1578 1.415 . S
C1580 C1585 1.425 1_544 S
C1580 C1587 1.409 . S
C1581 H1573 0.930 . S
C1581 C1579 1.419 . S
C1581 C1582 1.362 1_545 S
C1582 H1574 0.930 . S
C1582 C1581 1.362 1_565 S
C1582 C1585 1.409 . S
C1583 H1575 0.930 . S
C1583 C1584 1.355 1_556 S
C1583 C1585 1.415 . S
C1584 C1583 1.355 1_554 S
C1584 C1586 1.419 . S
C1585 C1580 1.425 1_566 S
C1585 C1582 1.409 . S
C1585 C1583 1.415 . S
C1586 H1576 0.930 . S
C1586 C1584 1.419 . S
C1586 C1587 1.362 1_565 S
C1587 H1577 0.930 . S
C1587 C1580 1.409 . S
C1587 C1586 1.362 1_545 S
H1588 C1594 0.930 . S
H1589 C1597 0.930 . S
H1590 C1598 0.930 . S
H1591 C1599 0.930 . S
H1592 C1602 0.930 . S
H1593 C1603 0.930 . S
C1594 H1588 0.930 . S
C1594 C1595 1.355 . S
C1594 C1596 1.415 1_655 S
C1595 C1594 1.355 . S
C1595 C1597 1.419 1_556 S
C1596 C1594 1.415 1_455 S
C1596 C1601 1.425 1_456 S
C1596 C1603 1.409 . S
C1597 H1589 0.930 . S
C1597 C1595 1.419 1_554 S
C1597 C1598 1.362 . S
C1598 H1590 0.930 . S
C1598 C1597 1.362 . S
C1598 C1601 1.409 . S
C1599 H1591 0.930 . S
C1599 C1600 1.355 . S
C1599 C1601 1.415 1_455 S
C1600 C1599 1.355 . S
C1600 C1602 1.419 1_554 S
C1601 C1596 1.425 1_654 S
C1601 C1598 1.409 . S
C1601 C1599 1.415 1_655 S
C1602 H1592 0.930 . S
C1602 C1600 1.419 1_556 S
C1602 C1603 1.362 . S
C1603 H1593 0.930 . S
C1603 C1596 1.409 . S
C1603 C1602 1.362 . S
H1604 C1610 0.930 . S
H1605 C1613 0.930 . S
H1606 C1614 0.930 . S
H1607 C1615 0.930 . S
H1608 C1618 0.930 . S
H1609 C1619 0.930 . S
C1610 H1604 0.930 . S
C1610 C1611 1.355 1_554 S
C1610 C1612 1.415 . S
C1611 C1610 1.355 1_556 S
C1611 C1613 1.419 . S
C1612 C1610 1.415 . S
C1612 C1617 1.425 1_554 S
C1612 C1619 1.409 . S
C1613 H1605 0.930 . S
C1613 C1611 1.419 . S
C1613 C1614 1.362 . S
C1614 H1606 0.930 . S
C1614 C1613 1.362 . S
C1614 C1617 1.409 . S
C1615 H1607 0.930 . S
C1615 C1616 1.355 1_556 S
C1615 C1617 1.415 . S
C1616 C1615 1.355 1_554 S
C1616 C1618 1.419 . S
C1617 C1612 1.425 1_556 S
C1617 C1614 1.409 . S
C1617 C1615 1.415 . S
C1618 H1608 0.930 . S
C1618 C1616 1.419 . S
C1618 C1619 1.362 . S
C1619 H1609 0.930 . S
C1619 C1612 1.409 . S
C1619 C1618 1.362 . S
C475 C10 1.161 . S
C480 C96 1.168 . S
C491 C23 1.163 . S
C496 C109 1.169 . S
C507 C83 1.083 . S
C512 C36 1.183 . S
C523 C148 1.141 . S
C528 C49 1.184 . S
C539 C62 1.158 . S
C544 C122 1.073 . S
C555 C75 1.177 . S
C560 C135 1.065 . S
C571 C18 1.071 . S
C576 C88 1.180 . S
C587 C31 1.114 . S
C592 C101 1.151 . S
C603 C114 1.183 . S
C608 C5 1.146 . S
C619 C127 1.170 . S
C624 C70 1.171 . S
C635 C44 1.120 . S
C640 C140 1.151 . S
C651 C153 1.151 . S
C656 C57 1.110 . S
C667 C252 1.165 . S
C672 C166 1.159 . S
C683 C179 1.171 . S
C688 C265 1.170 . S
C699 C192 1.161 . S
C704 C239 1.066 . S
C715 C304 1.158 . S
C720 C205 1.156 . S
C731 C218 1.163 . S
C736 C278 1.170 . S
C747 C291 1.084 . S
C752 C231 1.183 . S
C763 C174 1.066 . S
C768 C244 1.177 . S
C779 C257 1.159 . S
C784 C187 1.165 . S
C795 C161 1.087 . S
C800 C270 1.154 . S
C811 C283 1.185 . S
C816 C226 1.136 . S
C827 C296 1.158 . S
C832 C200 1.074 . S
C843 C309 1.184 . S
C848 C213 1.090 . S
C859 C408 1.159 . S
C864 C322 1.157 . S
C875 C421 1.095 . S
C880 C335 1.185 . S
C891 C395 1.064 . S
C896 C348 1.176 . S
C907 C361 1.151 . S
C912 C460 1.132 . S
C923 C374 1.181 . S
C928 C434 1.153 . S
C939 C447 1.084 . S
C944 C387 1.183 . S
C955 C400 1.183 . S
C960 C330 1.084 . S
C971 C343 1.170 . S
C976 C413 1.164 . S
C987 C317 1.171 . S
C992 C426 1.170 . S
C1003 C439 1.186 . S
C1008 C382 1.113 . S
C1019 C452 1.159 . S
C1024 C356 1.164 . S
C1035 C465 1.178 . S
C1040 C369 1.068 . S
C1051 C47 1.368 . S
C1056 C8 1.345 . S
C1067 C60 1.367 . S
C1072 C21 1.383 . S
C1083 C34 1.375 . S
C1088 C73 1.387 . S
C1099 C125 1.390 . S
C1104 C86 1.384 . S
C1115 C138 1.276 . S
C1120 C99 1.274 . S
C1131 C151 1.368 . S
C1136 C112 1.346 . S
C1147 C203 1.285 . S
C1152 C164 1.304 . S
C1163 C216 1.363 . S
C1168 C177 1.380 . S
C1179 C190 1.384 . S
C1184 C229 1.369 . S
C1195 C281 1.389 . S
C1200 C242 1.381 . S
C1211 C294 1.342 . S
C1216 C255 1.317 . S
C1227 C307 1.273 . S
C1232 C268 1.279 . S
C1243 C359 1.274 . S
C1248 C320 1.284 . S
C1259 C333 1.281 . S
C1264 C372 1.274 . S
C1275 C385 1.389 . S
C1280 C346 1.388 . S
C1291 C398 1.275 . S
C1296 C437 1.285 . S
C1307 C411 1.350 . S
C1312 C450 1.371 . S
C1323 C424 1.341 . S
C1328 C463 1.364 . S
C1339 C0 1.413 . S
C1344 C234 1.413 . S
C1355 C247 1.425 . S
C1360 C13 1.425 . S
C1371 C260 1.454 . S
C1376 C26 1.454 . S
C1387 C429 1.395 . S
C1392 C39 1.395 . S
C1403 C442 1.447 . S
C1408 C52 1.447 . S
C1419 C455 1.416 . S
C1424 C65 1.416 . S
C1435 C78 1.410 . S
C1440 C312 1.410 . S
C1451 C325 1.402 . S
C1456 C91 1.402 . S
C1467 C338 1.404 . S
C1472 C104 1.404 . S
C1483 C117 1.452 . S
C1488 C195 1.452 . S
C1499 C130 1.454 . S
C1504 C208 1.454 . S
C1515 C143 1.437 . S
C1520 C221 1.437 . S
C1531 C390 1.410 . S
C1536 C156 1.410 . S
C1547 C403 1.405 . S
C1552 C169 1.405 . S
C1563 C182 1.418 . S
C1568 C416 1.418 . S
C1579 C273 1.431 . S
C1584 C351 1.431 . S
C1595 C286 1.419 . S
C1600 C364 1.419 . S
C1611 C299 1.430 . S
C1616 C377 1.430 . S
