# Generated by pormake.
# Topology msp, (4)-cn, num edge types: 1
# Building blocks:
#     Node 0, Type 0, BuildingBlock: ESEHIV_clean_sbu_0, # of connection points: 4
#     Node 1, Type 0, BuildingBlock: ESEHIV_clean_sbu_0, # of connection points: 4
#     Node 2, Type 0, BuildingBlock: ESEHIV_clean_sbu_0, # of connection points: 4
#     Node 3, Type 0, BuildingBlock: ESEHIV_clean_sbu_0, # of connection points: 4
#     Node 4, Type 0, BuildingBlock: ESEHIV_clean_sbu_0, # of connection points: 4
#     Node 5, Type 0, BuildingBlock: ESEHIV_clean_sbu_0, # of connection points: 4
#     Node 6, Type 0, BuildingBlock: ESEHIV_clean_sbu_0, # of connection points: 4
#     Node 7, Type 0, BuildingBlock: ESEHIV_clean_sbu_0, # of connection points: 4
#     Edge 8, Type (0, 0), BuildingBlock: EZIPEK_clean_linker_0, # of connection points: 2
#     Edge 9, Type (0, 0), BuildingBlock: EZIPEK_clean_linker_0, # of connection points: 2
#     Edge 10, Type (0, 0), BuildingBlock: EZIPEK_clean_linker_0, # of connection points: 2
#     Edge 11, Type (0, 0), BuildingBlock: EZIPEK_clean_linker_0, # of connection points: 2
#     Edge 12, Type (0, 0), BuildingBlock: EZIPEK_clean_linker_0, # of connection points: 2
#     Edge 13, Type (0, 0), BuildingBlock: EZIPEK_clean_linker_0, # of connection points: 2
#     Edge 14, Type (0, 0), BuildingBlock: EZIPEK_clean_linker_0, # of connection points: 2
#     Edge 15, Type (0, 0), BuildingBlock: EZIPEK_clean_linker_0, # of connection points: 2
#     Edge 16, Type (0, 0), BuildingBlock: EZIPEK_clean_linker_0, # of connection points: 2
#     Edge 17, Type (0, 0), BuildingBlock: EZIPEK_clean_linker_0, # of connection points: 2
#     Edge 18, Type (0, 0), BuildingBlock: EZIPEK_clean_linker_0, # of connection points: 2
#     Edge 19, Type (0, 0), BuildingBlock: EZIPEK_clean_linker_0, # of connection points: 2
#     Edge 20, Type (0, 0), BuildingBlock: EZIPEK_clean_linker_0, # of connection points: 2
#     Edge 21, Type (0, 0), BuildingBlock: EZIPEK_clean_linker_0, # of connection points: 2
#     Edge 22, Type (0, 0), BuildingBlock: EZIPEK_clean_linker_0, # of connection points: 2
#     Edge 23, Type (0, 0), BuildingBlock: EZIPEK_clean_linker_0, # of connection points: 2
# Relax obj value: 0.062
# Max RMSD: 0.182
# Mean RMSD: 0.158
data_MOF--net-msp--node1-ESEHIV_clean_sbu_0--edge1-EZIPEK_clean_linker_0
_symmetry_space_group_name_H-M    P1
_symmetry_Int_Tables_number       1
_symmetry_cell_setting            triclinic
loop_
_symmetry_equiv_pos_as_xyz
'x, y, z'
_cell_length_a     16.94166
_cell_length_b     17.037853
_cell_length_c     36.359861
_cell_angle_alpha  89.711435
_cell_angle_beta   98.501063
_cell_angle_gamma 90.233099
loop_
_atom_site_label
_atom_site_type_symbol
_atom_site_fract_x
_atom_site_fract_y
_atom_site_fract_z
_atom_type_partial_charge
Cu0 Cu 0.04994 0.29417 0.40291 0.0
N1 N 0.08336 0.20888 0.43333 0.0
N2 N 0.15673 0.14093 0.47833 0.0
C3 C 0.14475 0.21106 0.46133 0.0
C4 C 0.10107 0.0922 0.46052 0.0
C5 C 0.05563 0.13456 0.43251 0.0
O6 O 0.05734 0.38247 0.43733 0.0
C7 C 0.11535 0.33091 0.33474 0.0
O8 O 0.05768 0.38195 0.32596 0.0
H9 H 0.18001 0.26312 0.46916 0.0
H10 H 1.00613 0.11284 0.41295 0.0
N11 N 0.94315 0.27849 0.38169 0.0
N12 N 0.82784 0.27649 0.34286 0.0
C13 C 0.90795 0.28388 0.34593 0.0
C14 C 0.8832 0.2652 0.40147 0.0
C15 C 0.81198 0.26448 0.37767 0.0
C16 C 1.00535 0.43634 0.43706 0.0
O17 O 0.94952 0.44443 0.40812 0.0
H18 H 0.93949 0.29395 0.32261 0.0
H19 H 0.89087 0.25822 0.43137 0.0
O20 O 0.12301 0.29624 0.36614 0.0
H21 H 0.09393 0.03093 0.46735 0.0
H22 H 0.75301 0.25657 0.38525 0.0
Cu23 Cu 0.53309 0.27972 0.67235 0.0
N24 N 0.48505 0.19592 0.64417 0.0
N25 N 0.40273 0.13102 0.60119 0.0
C26 C 0.43138 0.2016 0.61304 0.0
C27 C 0.43971 0.07808 0.62539 0.0
C28 C 0.49075 0.11853 0.65202 0.0
O29 O 0.55305 0.36415 0.63837 0.0
C30 C 0.39257 0.29682 0.70617 0.0
O31 O 0.35299 0.28559 0.67274 0.0
H32 H 0.41144 0.25624 0.59976 0.0
H33 H 0.52755 0.09358 0.67605 0.0
N34 N 0.63138 0.24783 0.6978 0.0
N35 N 0.73326 0.23159 0.7435 0.0
C36 C 0.65918 0.26072 0.73395 0.0
C37 C 0.68973 0.20908 0.68417 0.0
C38 C 0.75289 0.19885 0.71243 0.0
C39 C 0.4991 0.40098 0.61706 0.0
O40 O 0.4243 0.39412 0.62224 0.0
H41 H 0.62617 0.29117 0.75281 0.0
H42 H 0.68652 0.18998 0.65566 0.0
O43 O 0.46804 0.30485 0.71048 0.0
H44 H 0.42866 0.01546 0.62446 0.0
H45 H 0.80885 0.1699 0.71044 0.0
Cu46 Cu 0.96399 0.76369 0.64625 0.0
N47 N 0.88564 0.75217 0.67737 0.0
N48 N 0.80728 0.77625 0.72028 0.0
C49 C 0.86869 0.80241 0.70372 0.0
C50 C 0.78469 0.70736 0.7039 0.0
C51 C 0.83328 0.69253 0.67749 0.0
O52 O 0.06317 0.79767 0.6762 0.0
C53 C 0.85576 0.85974 0.59754 0.0
O54 O 0.81194 0.86245 0.62438 0.0
H55 H 0.89977 0.85738 0.71022 0.0
H56 H 0.83003 0.64224 0.65929 0.0
N57 N 0.98254 0.66795 0.62381 0.0
N58 N 0.9982 0.58259 0.57901 0.0
C59 C 0.98709 0.65835 0.58735 0.0
C60 C 0.99111 0.59553 0.6389 0.0
C61 C 1.0007 0.54263 0.61124 0.0
C62 C 0.08671 0.75745 0.70539 0.0
O63 O 0.04405 0.69691 0.71336 0.0
H64 H 0.98032 0.70557 0.56712 0.0
H65 H 0.98858 0.58176 0.66776 0.0
O66 O 0.92612 0.83185 0.60414 0.0
H67 H 0.73592 0.67104 0.71034 0.0
H68 H 1.00685 0.47961 0.61425 0.0
Cu69 Cu 0.59612 0.71078 0.40553 0.0
N70 N 0.67879 0.68949 0.37804 0.0
N71 N 0.75806 0.69579 0.33426 0.0
C72 C 0.69651 0.72869 0.34797 0.0
C73 C 0.78007 0.63323 0.35613 0.0
C74 C 0.73102 0.62957 0.38323 0.0
O75 O 0.49947 0.73196 0.37097 0.0
C76 C 0.69414 0.82726 0.44665 0.0
O77 O 0.73562 0.82853 0.41891 0.0
H78 H 0.66488 0.77969 0.33597 0.0
H79 H 0.73251 0.58567 0.40492 0.0
N80 N 0.57451 0.62063 0.43178 0.0
N81 N 0.55058 0.54154 0.47808 0.0
C82 C 0.57797 0.61244 0.46893 0.0
C83 C 0.54437 0.55259 0.4171 0.0
C84 C 0.5296 0.50359 0.44563 0.0
C85 C 0.4895 0.78759 0.3473 0.0
O86 O 0.54175 0.84507 0.34909 0.0
H87 H 0.59788 0.65809 0.48878 0.0
H88 H 0.53224 0.54035 0.38763 0.0
O89 O 0.62822 0.78987 0.4433 0.0
H90 H 0.82725 0.59271 0.35235 0.0
H91 H 0.50447 0.44501 0.44286 0.0
Cu92 Cu 0.55314 0.8109 0.8926 0.0
N93 N 0.58249 0.72174 0.92169 0.0
N94 N 0.65086 0.64892 0.96661 0.0
C95 C 0.65286 0.71093 0.94368 0.0
C96 C 0.57723 0.61769 0.95821 0.0
C97 C 0.5351 0.66279 0.93035 0.0
O98 O 0.54778 0.89822 0.9269 0.0
C99 C 0.63302 0.8776 0.83438 0.0
O100 O 0.59201 0.94211 0.83693 0.0
H101 H 0.7033 0.75021 0.94457 0.0
H102 H 0.47277 0.65608 0.91904 0.0
N103 N 0.44916 0.79733 0.86798 0.0
N104 N 0.34097 0.7893 0.82496 0.0
C105 C 0.42134 0.79617 0.83122 0.0
C106 C 0.38424 0.79163 0.88519 0.0
C107 C 0.31743 0.7865 0.85873 0.0
C108 C 0.60182 0.91611 0.95379 0.0
O109 O 0.67425 0.88857 0.95467 0.0
H110 H 0.45867 0.80096 0.80962 0.0
H111 H 0.38556 0.79227 0.91502 0.0
O112 O 0.62692 0.82061 0.85652 0.0
H113 H 0.55394 0.56976 0.9731 0.0
H114 H 0.25614 0.78205 0.86374 0.0
Cu115 Cu 1.0242 0.77646 0.16365 0.0
N116 N 0.97849 0.69279 0.13519 0.0
N117 N 0.89461 0.63292 0.09102 0.0
C118 C 0.92673 0.70177 0.10368 0.0
C119 C 0.92697 0.57799 0.11546 0.0
C120 C 0.97923 0.6153 0.14281 0.0
O121 O 1.01521 0.86514 0.12942 0.0
C122 C 0.89329 0.78343 0.20385 0.0
O123 O 0.84973 0.78584 0.17083 0.0
H124 H 0.90948 0.75824 0.09132 0.0
H125 H 1.0123 0.58852 0.16737 0.0
N126 N 0.1316 0.75782 0.18099 0.0
N127 N 0.24808 0.75711 0.21869 0.0
C128 C 0.16861 0.76773 0.21609 0.0
C129 C 0.18949 0.7398 0.16082 0.0
C130 C 0.26169 0.73947 0.18406 0.0
C131 C 0.06526 0.92111 0.13013 0.0
O132 O 0.12002 0.9305 0.15937 0.0
H133 H 0.13838 0.78461 0.23905 0.0
H134 H 0.18 0.72993 0.13112 0.0
O135 O 0.96891 0.78592 0.20653 0.0
H136 H 0.91123 0.51632 0.11445 0.0
H137 H 0.31978 0.72833 0.17618 0.0
Cu138 Cu 0.474 0.22256 0.15772 0.0
N139 N 0.38668 0.20677 0.1835 0.0
N140 N 0.29652 0.2244 0.22193 0.0
C141 C 0.36847 0.24598 0.21335 0.0
C142 C 0.26899 0.1687 0.19703 0.0
C143 C 0.32482 0.15758 0.1736 0.0
O144 O 0.56971 0.24395 0.19297 0.0
C145 C 0.37978 0.33285 0.11059 0.0
O146 O 0.33478 0.33718 0.13692 0.0
H147 H 0.40587 0.29064 0.22805 0.0
H148 H 0.32003 0.11711 0.15056 0.0
N149 N 0.49604 0.12988 0.13386 0.0
N150 N 0.52899 0.04929 0.09032 0.0
C151 C 0.50637 0.12254 0.09794 0.0
C152 C 0.51278 0.05888 0.1494 0.0
C153 C 0.53306 0.00889 0.12254 0.0
C154 C 0.58182 0.30077 0.21567 0.0
O155 O 0.531 0.35919 0.21341 0.0
H156 H 0.49893 0.17015 0.07791 0.0
H157 H 0.51186 0.04502 0.1784 0.0
O158 O 0.44691 0.29803 0.11718 0.0
H159 H 0.21242 0.13835 0.19594 0.0
H160 H 0.54999 0.94785 0.1263 0.0
Cu161 Cu 0.1102 0.23324 0.91476 0.0
N162 N 0.19044 0.21454 0.88582 0.0
N163 N 0.26297 0.2242 0.83958 0.0
C164 C 0.20187 0.25414 0.85484 0.0
C165 C 0.29055 0.16307 0.86136 0.0
C166 C 0.24552 0.15715 0.8899 0.0
O167 O 1.01619 0.262 0.8799 0.0
C168 C 0.21537 0.33967 0.95899 0.0
O169 O 0.25735 0.34084 0.93142 0.0
H170 H 0.16527 0.30282 0.84331 0.0
H171 H 0.25133 0.11304 0.91162 0.0
N172 N 0.08904 0.14139 0.93984 0.0
N173 N 0.07062 0.06117 0.98648 0.0
C174 C 0.08487 0.13552 0.97649 0.0
C175 C 0.07715 0.0682 0.92629 0.0
C176 C 0.066 0.01832 0.95517 0.0
C177 C 0.94612 0.23699 0.88209 0.0
O178 O 0.93143 0.20155 0.91253 0.0
H179 H 0.09422 0.18423 0.99566 0.0
H180 H 0.07801 0.05218 0.89761 0.0
O181 O 0.14628 0.30814 0.9542 0.0
H182 H 0.33838 0.12445 0.85634 0.0
H183 H 0.05723 0.9554 0.95359 0.0
C184 C 0.93196 0.4725 0.49021 0.0
C185 C 1.00064 0.48043 0.47203 0.0
C186 C 0.06839 0.55481 0.52549 0.0
C187 C 0.99859 0.54999 0.54251 0.0
N188 N 0.86011 0.51672 0.53929 0.0
N189 N 0.12895 0.54004 0.46938 0.0
C190 C 0.92917 0.51271 0.52419 0.0
C191 C 0.06748 0.52477 0.48887 0.0
N192 N 0.87131 0.42283 0.47634 0.0
N193 N 0.13621 0.58601 0.54503 0.0
H194 H 0.12947 0.51995 0.44235 0.0
H195 H 0.17602 0.57793 0.47856 0.0
H196 H 0.13781 0.60894 0.57169 0.0
H197 H 0.19181 0.58421 0.53612 0.0
H198 H 0.82468 0.40739 0.49068 0.0
H199 H 0.87028 0.39155 0.45181 0.0
H200 H 0.80475 0.49901 0.52544 0.0
H201 H 0.85702 0.54409 0.56462 0.0
C202 C 0.49124 0.54691 0.53661 0.0
C203 C 0.54379 0.51153 0.5147 0.0
C204 C 0.56537 0.4024 0.55902 0.0
C205 C 0.51864 0.4412 0.58293 0.0
N206 N 0.45213 0.55946 0.59779 0.0
N207 N 0.64638 0.41704 0.50978 0.0
C208 C 0.4861 0.51635 0.57273 0.0
C209 C 0.58596 0.44298 0.52756 0.0
N210 N 0.44322 0.60712 0.52223 0.0
N211 N 0.5853 0.32507 0.56442 0.0
H212 H 0.66364 0.44672 0.48707 0.0
H213 H 0.68441 0.37148 0.52 0.0
H214 H 0.56677 0.29028 0.58517 0.0
H215 H 0.61252 0.29282 0.54553 0.0
H216 H 0.39782 0.62986 0.53543 0.0
H217 H 0.44372 0.6293 0.4955 0.0
H218 H 0.43405 0.61745 0.59297 0.0
H219 H 0.44961 0.54012 0.62486 0.0
C220 C 0.49493 0.96052 0.03685 0.0
C221 C 0.54487 0.01952 0.05502 0.0
C222 C 0.62441 0.01962 1.00372 0.0
C223 C 0.57967 0.95443 0.98761 0.0
N224 N 0.4835 0.85144 0.99426 0.0
N225 N 0.66495 0.09667 0.05936 0.0
C226 C 0.51752 0.92192 1.00548 0.0
C227 C 0.6117 0.04704 0.03937 0.0
N228 N 0.42499 0.94221 0.04937 0.0
N229 N 0.67756 0.05659 0.98459 0.0
H230 H 0.65791 0.11646 0.08577 0.0
H231 H 0.71936 0.11246 0.05131 0.0
H232 H 0.68728 0.039 0.95819 0.0
H233 H 0.70646 0.10878 0.99332 0.0
H234 H 0.38198 0.90519 0.03511 0.0
H235 H 0.40663 0.97011 0.07212 0.0
H236 H 0.4442 0.82148 1.00887 0.0
H237 H 0.50076 0.81816 0.97289 0.0
C238 C 0.13972 0.96105 0.07777 0.0
C239 C 0.06971 0.96551 0.0951 0.0
C240 C 0.99985 0.03342 0.03991 0.0
C241 C 0.07072 0.03185 1.02369 0.0
N242 N 0.21135 0.00879 1.02904 0.0
N243 N 0.93774 0.01755 0.0956 0.0
C244 C 0.14172 0.00048 0.04338 0.0
C245 C 1.00096 0.00519 0.07697 0.0
N246 N 0.20226 0.91467 0.09261 0.0
N247 N 0.93117 0.06011 1.0193 0.0
H248 H 0.93743 -0.00113 0.12296 0.0
H249 H 0.88863 0.05184 0.0853 0.0
H250 H 0.92973 0.08239 0.99242 0.0
H251 H 0.87518 0.05561 1.0277 0.0
H252 H 0.25056 0.90224 0.07894 0.0
H253 H 0.20332 0.88253 0.11707 0.0
H254 H 0.26701 0.99624 0.04406 0.0
H255 H 0.21401 0.03488 1.00324 0.0
C256 C 0.7024 0.35712 0.25642 0.0
C257 C 0.64702 0.29468 0.2479 0.0
C258 C 0.72088 0.21638 0.2984 0.0
C259 C 0.76981 0.28191 0.30964 0.0
N260 N 0.79815 0.41951 0.30357 0.0
N261 N 0.59344 0.1713 0.26681 0.0
C262 C 0.75833 0.35371 0.28974 0.0
C263 C 0.65356 0.22578 0.27045 0.0
N264 N 0.70375 0.4183 0.23213 0.0
N265 N 0.7399 0.14461 0.31402 0.0
H266 H 0.54055 0.17772 0.24838 0.0
H267 H 0.59213 0.12399 0.28498 0.0
H268 H 0.79003 0.13584 0.334 0.0
H269 H 0.71096 0.09294 0.30444 0.0
H270 H 0.74891 0.4604 0.23498 0.0
H271 H 0.66455 0.42257 0.20723 0.0
H272 H 0.78635 0.47528 0.29226 0.0
H273 H 0.83775 0.41947 0.32841 0.0
C274 C 0.79515 0.16451 0.80069 0.0
C275 C 0.78172 0.23424 0.77953 0.0
C276 C 0.86417 0.308 0.82888 0.0
C277 C 0.88544 0.23656 0.84804 0.0
N278 N 0.88176 0.09433 0.84846 0.0
N279 N 0.81002 0.37063 0.7705 0.0
C280 C 0.8533 0.16402 0.83315 0.0
C281 C 0.81775 0.30572 0.7929 0.0
N282 N 0.75124 0.09898 0.78986 0.0
N283 N 0.88654 0.37802 0.84552 0.0
H284 H 0.77671 0.37037 0.74397 0.0
H285 H 0.84156 0.42258 0.77688 0.0
H286 H 0.91949 0.38177 0.87207 0.0
H287 H 0.86646 0.43215 0.83455 0.0
H288 H 0.7521 0.04828 0.80605 0.0
H289 H 0.70826 0.09803 0.76613 0.0
H290 H 0.86645 0.04004 0.83636 0.0
H291 H 0.92657 0.09044 0.87131 0.0
C292 C 0.17128 0.84485 0.75144 0.0
C293 C 0.16256 0.77487 0.73012 0.0
C294 C 0.28048 0.71878 0.76846 0.0
C295 C 0.28861 0.7881 0.78993 0.0
N296 N 0.25566 0.92305 0.79749 0.0
N297 N 0.21995 0.65479 0.71168 0.0
C298 C 0.2385 0.85329 0.77974 0.0
C299 C 0.22107 0.71494 0.7365 0.0
N300 N 0.11311 0.90087 0.74625 0.0
N301 N 0.32653 0.65514 0.77994 0.0
H302 H 0.17783 0.6513 0.68769 0.0
H303 H 0.2648 0.61284 0.71291 0.0
H304 H 0.37067 0.65647 0.80319 0.0
H305 H 0.31752 0.59976 0.76804 0.0
H306 H 0.11141 0.94895 0.76366 0.0
H307 H 0.06342 0.89708 0.72568 0.0
H308 H 0.22562 0.97503 0.78979 0.0
H309 H 0.30498 0.93009 0.81812 0.0
C310 C 0.37447 0.84414 0.30299 0.0
C311 C 0.42626 0.78031 0.31435 0.0
C312 C 0.35259 0.69898 0.26518 0.0
C313 C 0.30697 0.76492 0.25143 0.0
N314 N 0.28477 0.90414 0.25259 0.0
N315 N 0.47702 0.65336 0.29939 0.0
C316 C 0.32068 0.83872 0.26907 0.0
C317 C 0.41873 0.70925 0.29363 0.0
N318 N 0.37454 0.90873 0.32511 0.0
N319 N 0.33145 0.6261 0.25161 0.0
H320 H 0.52953 0.66024 0.31802 0.0
H321 H 0.47761 0.60412 0.28255 0.0
H322 H 0.28207 0.61662 0.23131 0.0
H323 H 0.35785 0.57472 0.26315 0.0
H324 H 0.33265 0.95353 0.31992 0.0
H325 H 0.41158 0.91408 0.35057 0.0
H326 H 0.29868 0.96073 0.26215 0.0
H327 H 0.24689 0.90237 0.22724 0.0
C328 C 0.23219 0.19936 0.2775 0.0
C329 C 0.25652 0.25323 0.25166 0.0
C330 C 0.19955 0.36058 0.28409 0.0
C331 C 0.16488 0.30492 0.30628 0.0
N332 N 0.13196 0.16832 0.31593 0.0
N333 N 0.25016 0.38423 0.22605 0.0
C334 C 0.17687 0.22333 0.30088 0.0
C335 C 0.23684 0.33384 0.25379 0.0
N336 N 0.26335 0.12549 0.28025 0.0
N337 N 0.19939 0.4386 0.29254 0.0
H338 H 0.27412 0.36607 0.20274 0.0
H339 H 0.23004 0.44204 0.2244 0.0
H340 H 0.17544 0.46023 0.31528 0.0
H341 H 0.23034 0.48064 0.27935 0.0
H342 H 0.25279 0.08582 0.30091 0.0
H343 H 0.30689 0.10751 0.26462 0.0
H344 H 0.13433 0.10868 0.30994 0.0
H345 H 0.08533 0.18247 0.33043 0.0
C346 C 0.3586 0.33824 0.76842 0.0
C347 C 0.35313 0.28198 0.73943 0.0
C348 C 0.27401 0.19616 0.77428 0.0
C349 C 0.2887 0.24706 0.80505 0.0
N350 N 0.35131 0.36275 0.83363 0.0
N351 N 0.32067 0.14907 0.71892 0.0
C352 C 0.33239 0.31748 0.80269 0.0
C353 C 0.31429 0.20881 0.74326 0.0
N354 N 0.38717 0.41181 0.76288 0.0
N355 N 0.22054 0.13614 0.77461 0.0
H356 H 0.35454 0.1532 0.69731 0.0
H357 H 0.29987 0.09239 0.72271 0.0
H358 H 0.18963 0.12611 0.79699 0.0
H359 H 0.20114 0.10178 0.75137 0.0
H360 H 0.38579 0.45762 0.78162 0.0
H361 H 0.40598 0.42896 0.73798 0.0
H362 H 0.38995 0.41066 0.83495 0.0
H363 H 0.33281 0.34863 0.85898 0.0
C364 C 0.76394 0.84559 0.81362 0.0
C365 C 0.68253 0.86716 0.80413 0.0
C366 C 0.69311 0.84856 0.73805 0.0
C367 C 0.7694 0.81491 0.74822 0.0
N368 N 0.87747 0.77733 0.79525 0.0
N369 N 0.56707 0.88451 0.75699 0.0
C370 C 0.80534 0.81323 0.7859 0.0
C371 C 0.64663 0.86879 0.76616 0.0
N372 N 0.80185 0.85749 0.84902 0.0
N373 N 0.6656 0.8613 0.70129 0.0
H374 H 0.53041 0.89972 0.7764 0.0
H375 H 0.53577 0.87715 0.73035 0.0
H376 H 0.69879 0.84649 0.68035 0.0
H377 H 0.61393 0.89275 0.69183 0.0
H378 H 0.86293 0.84975 0.85697 0.0
H379 H 0.77338 0.88251 0.86966 0.0
H380 H 0.90328 0.76622 0.82257 0.0
H381 H 0.90919 0.75382 0.77542 0.0
C382 C 0.80935 0.69351 0.23731 0.0
C383 C 0.85597 0.76315 0.23722 0.0
C384 C 0.84167 0.7854 0.30261 0.0
C385 C 0.78997 0.7197 0.3014 0.0
N386 N 0.71065 0.62147 0.266 0.0
N387 N 0.90659 0.8822 0.2679 0.0
C388 C 0.76945 0.677 0.26817 0.0
C389 C 0.86951 0.81111 0.26942 0.0
N390 N 0.80738 0.64041 0.20913 0.0
N391 N 0.86553 0.82173 0.33579 0.0
H392 H 0.92672 0.9032 0.24393 0.0
H393 H 0.91141 0.92317 0.28927 0.0
H394 H 0.84536 0.8041 0.36032 0.0
H395 H 0.90945 0.86507 0.3396 0.0
H396 H 0.77966 0.58583 0.20934 0.0
H397 H 0.84074 0.64689 0.18743 0.0
H398 H 0.68646 0.5946 0.24118 0.0
H399 H 0.68098 0.60774 0.2884 0.0
C400 C 0.25928 0.12417 0.57702 0.0
C401 C 0.33956 0.1181 0.57077 0.0
C402 C 0.29575 0.10888 0.50363 0.0
C403 C 0.21659 0.12394 0.50965 0.0
N404 N 0.12099 0.1484 0.55073 0.0
N405 N 0.4367 0.10598 0.52946 0.0
C406 C 0.19757 0.13115 0.54609 0.0
C407 C 0.35843 0.10976 0.53437 0.0
N408 N 0.24291 0.12384 0.61267 0.0
N409 N 0.31015 0.09404 0.46836 0.0
H410 H 0.48309 0.10455 0.5518 0.0
H411 H 0.45614 0.10745 0.50363 0.0
H412 H 0.26471 0.09397 0.44559 0.0
H413 H 0.36526 0.07686 0.46184 0.0
H414 H 0.18557 0.12207 0.61968 0.0
H415 H 0.28766 0.11985 0.63558 0.0
H416 H 0.10358 0.16232 0.57616 0.0
H417 H 0.07476 0.1525 0.52842 0.0
C418 C 0.79185 0.779 0.54439 0.0
C419 C 0.81405 0.8544 0.55883 0.0
C420 C 0.75294 0.91466 0.49991 0.0
C421 C 0.73724 0.83856 0.48479 0.0
N422 N 0.76125 0.69892 0.48964 0.0
N423 N 0.82331 0.99399 0.55004 0.0
C424 C 0.7623 0.77093 0.50617 0.0
C425 C 0.79676 0.92248 0.53648 0.0
N426 N 0.79617 0.715 0.56743 0.0
N427 N 0.72453 0.97893 0.47962 0.0
H428 H 0.85383 0.00119 0.57692 0.0
H429 H 0.81962 0.04513 0.53411 0.0
H430 H 0.69385 0.97462 0.45261 0.0
H431 H 0.72696 0.0357 0.49016 0.0
H432 H 0.77078 0.66095 0.55909 0.0
H433 H 0.81779 0.71753 0.59575 0.0
H434 H 0.78707 0.64925 0.50316 0.0
H435 H 0.74187 0.69007 0.4614 0.0
C436 C 0.84392 0.59576 1.02614 0.0
C437 C 0.82947 0.62405 0.06107 0.0
C438 C 0.69455 0.66373 0.03407 0.0
C439 C 0.70812 0.63396 0.99922 0.0
N440 N 0.78875 0.56129 0.96258 0.0
N441 N 0.73744 0.66817 0.10067 0.0
C442 C 0.78081 0.59629 0.99552 0.0
C443 C 0.75329 0.65253 0.06572 0.0
N444 N 0.91897 0.57192 1.02208 0.0
N445 N 0.62753 0.7066 0.03641 0.0
H446 H 0.7797 0.65954 0.12422 0.0
H447 H 0.68097 0.68244 0.1066 0.0
H448 H 0.58339 0.71632 1.01372 0.0
H449 H 0.61843 0.7376 0.06002 0.0
H450 H 0.93621 0.55767 0.99663 0.0
H451 H 0.96562 0.57047 0.04429 0.0
H452 H 0.83752 0.52718 0.95852 0.0
H453 H 0.74308 0.56198 0.9399 0.0
C454 C 0.32033 0.41053 0.05372 0.0
C455 C 0.33987 0.33718 0.0714 0.0
C456 C 0.28559 0.26828 1.01421 0.0
C457 C 0.25932 0.34078 0.99745 0.0
N458 N 0.24537 0.48077 1.00136 0.0
N459 N 0.32412 0.19608 0.07107 0.0
C460 C 0.27506 0.41211 1.01722 0.0
C461 C 0.31799 0.26606 0.05232 0.0
N462 N 0.34638 0.47825 0.07159 0.0
N463 N 0.28169 0.20128 0.99347 0.0
H464 H 0.34651 0.19121 0.09917 0.0
H465 H 0.30005 0.14375 0.05964 0.0
H466 H 0.25676 0.1993 0.96557 0.0
H467 H 0.30989 0.14926 1.00303 0.0
H468 H 0.34092 0.53352 0.05919 0.0
H469 H 0.37851 0.47848 0.0984 0.0
H470 H 0.24775 0.53401 1.01539 0.0
H471 H 0.21373 0.48344 0.97448 0.0
loop_
_geom_bond_atom_site_label_1
_geom_bond_atom_site_label_2
_geom_bond_distance
_geom_bond_site_symmetry_2
_ccdc_geom_bond_type
Cu0 N1 1.999 1_655 S
Cu0 O6 1.974 . S
Cu0 N11 1.985 . S
Cu0 O20 1.959 1_655 S
N1 Cu0 1.999 1_455 S
N1 C3 1.263 . S
N1 C5 1.389 . S
N2 C3 1.358 . S
N2 C4 1.400 . S
C3 N1 1.263 . S
C3 N2 1.358 . S
C3 H9 0.930 . S
C4 N2 1.400 . S
C4 C5 1.351 . S
C4 H21 0.930 . S
C5 N1 1.389 . S
C5 C4 1.351 . S
C5 H10 0.930 . S
O6 Cu0 1.974 . S
O6 C16 1.282 . S
C7 O8 1.261 . S
C7 O20 1.251 . S
O8 C7 1.261 . S
H9 C3 0.930 . S
H10 C5 0.930 . S
N11 Cu0 1.985 . S
N11 C13 1.335 . S
N11 C14 1.390 . S
N12 C13 1.345 . S
N12 C15 1.336 . S
C13 N11 1.335 . S
C13 N12 1.345 . S
C13 H18 0.930 . S
C14 N11 1.390 . S
C14 C15 1.346 . S
C14 H19 0.930 . S
C15 N12 1.336 . S
C15 C14 1.346 . S
C15 H22 0.929 . S
C16 O6 1.282 . S
C16 O17 1.216 . S
O17 C16 1.216 . S
H18 C13 0.930 . S
H19 C14 0.930 . S
O20 Cu0 1.959 1_455 S
O20 C7 1.251 . S
H21 C4 0.930 . S
H22 C15 0.929 . S
Cu23 N24 1.999 . S
Cu23 O29 1.974 . S
Cu23 N34 1.985 . S
Cu23 O43 1.959 . S
N24 Cu23 1.999 . S
N24 C26 1.263 . S
N24 C28 1.389 . S
N25 C26 1.358 . S
N25 C27 1.400 . S
C26 N24 1.263 . S
C26 N25 1.358 . S
C26 H32 0.930 . S
C27 N25 1.400 . S
C27 C28 1.351 . S
C27 H44 0.930 . S
C28 N24 1.389 . S
C28 C27 1.351 . S
C28 H33 0.930 . S
O29 Cu23 1.974 . S
O29 C39 1.282 . S
C30 O31 1.261 . S
C30 O43 1.251 . S
O31 C30 1.261 . S
H32 C26 0.930 . S
H33 C28 0.930 . S
N34 Cu23 1.985 . S
N34 C36 1.335 . S
N34 C37 1.390 . S
N35 C36 1.345 . S
N35 C38 1.336 . S
C36 N34 1.335 . S
C36 N35 1.345 . S
C36 H41 0.930 . S
C37 N34 1.390 . S
C37 C38 1.346 . S
C37 H42 0.930 . S
C38 N35 1.336 . S
C38 C37 1.346 . S
C38 H45 0.929 . S
C39 O29 1.282 . S
C39 O40 1.216 . S
O40 C39 1.216 . S
H41 C36 0.930 . S
H42 C37 0.930 . S
O43 Cu23 1.959 . S
O43 C30 1.251 . S
H44 C27 0.930 . S
H45 C38 0.929 . S
Cu46 N47 1.999 . S
Cu46 O52 1.974 . S
Cu46 N57 1.985 . S
Cu46 O66 1.959 . S
N47 Cu46 1.999 . S
N47 C49 1.263 . S
N47 C51 1.389 . S
N48 C49 1.358 . S
N48 C50 1.400 . S
C49 N47 1.263 . S
C49 N48 1.358 . S
C49 H55 0.930 . S
C50 N48 1.400 . S
C50 C51 1.351 . S
C50 H67 0.930 . S
C51 N47 1.389 . S
C51 C50 1.351 . S
C51 H56 0.930 . S
O52 Cu46 1.974 . S
O52 C62 1.282 1_655 S
C53 O54 1.261 . S
C53 O66 1.251 . S
O54 C53 1.261 . S
H55 C49 0.930 . S
H56 C51 0.930 . S
N57 Cu46 1.985 . S
N57 C59 1.335 . S
N57 C60 1.390 1_655 S
N58 C59 1.345 1_455 S
N58 C61 1.336 . S
C59 N57 1.335 . S
C59 N58 1.345 1_655 S
C59 H64 0.930 . S
C60 N57 1.390 1_455 S
C60 C61 1.346 . S
C60 H65 0.930 . S
C61 N58 1.336 . S
C61 C60 1.346 . S
C61 H68 0.929 . S
C62 O52 1.282 1_455 S
C62 O63 1.216 . S
O63 C62 1.216 . S
H64 C59 0.930 . S
H65 C60 0.930 . S
O66 Cu46 1.959 . S
O66 C53 1.251 . S
H67 C50 0.930 . S
H68 C61 0.929 . S
Cu69 N70 1.999 . S
Cu69 O75 1.974 . S
Cu69 N80 1.985 . S
Cu69 O89 1.959 . S
N70 Cu69 1.999 . S
N70 C72 1.263 . S
N70 C74 1.389 . S
N71 C72 1.358 . S
N71 C73 1.400 . S
C72 N70 1.263 . S
C72 N71 1.358 . S
C72 H78 0.930 . S
C73 N71 1.400 . S
C73 C74 1.351 . S
C73 H90 0.930 . S
C74 N70 1.389 . S
C74 C73 1.351 . S
C74 H79 0.930 . S
O75 Cu69 1.974 . S
O75 C85 1.282 . S
C76 O77 1.261 . S
C76 O89 1.251 . S
O77 C76 1.261 . S
H78 C72 0.930 . S
H79 C74 0.930 . S
N80 Cu69 1.985 . S
N80 C82 1.335 . S
N80 C83 1.390 . S
N81 C82 1.345 . S
N81 C84 1.336 . S
C82 N80 1.335 . S
C82 N81 1.345 . S
C82 H87 0.930 . S
C83 N80 1.390 . S
C83 C84 1.346 . S
C83 H88 0.930 . S
C84 N81 1.336 . S
C84 C83 1.346 . S
C84 H91 0.929 . S
C85 O75 1.282 . S
C85 O86 1.216 . S
O86 C85 1.216 . S
H87 C82 0.930 . S
H88 C83 0.930 . S
O89 Cu69 1.959 . S
O89 C76 1.251 . S
H90 C73 0.930 . S
H91 C84 0.929 . S
Cu92 N93 1.999 . S
Cu92 O98 1.974 . S
Cu92 N103 1.985 . S
Cu92 O112 1.959 . S
N93 Cu92 1.999 . S
N93 C95 1.263 . S
N93 C97 1.389 . S
N94 C95 1.358 . S
N94 C96 1.400 . S
C95 N93 1.263 . S
C95 N94 1.358 . S
C95 H101 0.930 . S
C96 N94 1.400 . S
C96 C97 1.351 . S
C96 H113 0.930 . S
C97 N93 1.389 . S
C97 C96 1.351 . S
C97 H102 0.930 . S
O98 Cu92 1.974 . S
O98 C108 1.282 . S
C99 O100 1.261 . S
C99 O112 1.251 . S
O100 C99 1.261 . S
H101 C95 0.930 . S
H102 C97 0.930 . S
N103 Cu92 1.985 . S
N103 C105 1.335 . S
N103 C106 1.390 . S
N104 C105 1.345 . S
N104 C107 1.336 . S
C105 N103 1.335 . S
C105 N104 1.345 . S
C105 H110 0.930 . S
C106 N103 1.390 . S
C106 C107 1.346 . S
C106 H111 0.930 . S
C107 N104 1.336 . S
C107 C106 1.346 . S
C107 H114 0.929 . S
C108 O98 1.282 . S
C108 O109 1.216 . S
O109 C108 1.216 . S
H110 C105 0.930 . S
H111 C106 0.930 . S
O112 Cu92 1.959 . S
O112 C99 1.251 . S
H113 C96 0.930 . S
H114 C107 0.929 . S
Cu115 N116 1.999 1_455 S
Cu115 O121 1.974 . S
Cu115 N126 1.985 . S
Cu115 O135 1.959 1_455 S
N116 Cu115 1.999 1_655 S
N116 C118 1.263 . S
N116 C120 1.389 . S
N117 C118 1.358 . S
N117 C119 1.400 . S
C118 N116 1.263 . S
C118 N117 1.358 . S
C118 H124 0.930 . S
C119 N117 1.400 . S
C119 C120 1.351 . S
C119 H136 0.930 . S
C120 N116 1.389 . S
C120 C119 1.351 . S
C120 H125 0.930 . S
O121 Cu115 1.974 . S
O121 C131 1.282 . S
C122 O123 1.261 . S
C122 O135 1.251 . S
O123 C122 1.261 . S
H124 C118 0.930 . S
H125 C120 0.930 . S
N126 Cu115 1.985 . S
N126 C128 1.335 . S
N126 C129 1.390 . S
N127 C128 1.345 . S
N127 C130 1.336 . S
C128 N126 1.335 . S
C128 N127 1.345 . S
C128 H133 0.930 . S
C129 N126 1.390 . S
C129 C130 1.346 . S
C129 H134 0.930 . S
C130 N127 1.336 . S
C130 C129 1.346 . S
C130 H137 0.929 . S
C131 O121 1.282 . S
C131 O132 1.216 . S
O132 C131 1.216 . S
H133 C128 0.930 . S
H134 C129 0.930 . S
O135 Cu115 1.959 1_655 S
O135 C122 1.251 . S
H136 C119 0.930 . S
H137 C130 0.929 . S
Cu138 N139 1.999 . S
Cu138 O144 1.974 . S
Cu138 N149 1.985 . S
Cu138 O158 1.959 . S
N139 Cu138 1.999 . S
N139 C141 1.263 . S
N139 C143 1.389 . S
N140 C141 1.358 . S
N140 C142 1.400 . S
C141 N139 1.263 . S
C141 N140 1.358 . S
C141 H147 0.930 . S
C142 N140 1.400 . S
C142 C143 1.351 . S
C142 H159 0.930 . S
C143 N139 1.389 . S
C143 C142 1.351 . S
C143 H148 0.930 . S
O144 Cu138 1.974 . S
O144 C154 1.282 . S
C145 O146 1.261 . S
C145 O158 1.251 . S
O146 C145 1.261 . S
H147 C141 0.930 . S
H148 C143 0.930 . S
N149 Cu138 1.985 . S
N149 C151 1.335 . S
N149 C152 1.390 . S
N150 C151 1.345 . S
N150 C153 1.336 . S
C151 N149 1.335 . S
C151 N150 1.345 . S
C151 H156 0.930 . S
C152 N149 1.390 . S
C152 C153 1.346 . S
C152 H157 0.930 . S
C153 N150 1.336 . S
C153 C152 1.346 . S
C153 H160 0.929 . S
C154 O144 1.282 . S
C154 O155 1.216 . S
O155 C154 1.216 . S
H156 C151 0.930 . S
H157 C152 0.930 . S
O158 Cu138 1.959 . S
O158 C145 1.251 . S
H159 C142 0.930 . S
H160 C153 0.929 . S
Cu161 N162 1.999 . S
Cu161 O167 1.974 . S
Cu161 N172 1.985 . S
Cu161 O181 1.959 . S
N162 Cu161 1.999 . S
N162 C164 1.263 . S
N162 C166 1.389 . S
N163 C164 1.358 . S
N163 C165 1.400 . S
C164 N162 1.263 . S
C164 N163 1.358 . S
C164 H170 0.930 . S
C165 N163 1.400 . S
C165 C166 1.351 . S
C165 H182 0.930 . S
C166 N162 1.389 . S
C166 C165 1.351 . S
C166 H171 0.930 . S
O167 Cu161 1.974 . S
O167 C177 1.282 1_455 S
C168 O169 1.261 . S
C168 O181 1.251 . S
O169 C168 1.261 . S
H170 C164 0.930 . S
H171 C166 0.930 . S
N172 Cu161 1.985 . S
N172 C174 1.335 . S
N172 C175 1.390 1_455 S
N173 C174 1.345 1_655 S
N173 C176 1.336 . S
C174 N172 1.335 . S
C174 N173 1.345 1_455 S
C174 H179 0.930 . S
C175 N172 1.390 1_655 S
C175 C176 1.346 . S
C175 H180 0.930 . S
C176 N173 1.336 . S
C176 C175 1.346 . S
C176 H183 0.929 . S
C177 O167 1.282 1_655 S
C177 O178 1.216 . S
O178 C177 1.216 . S
H179 C174 0.930 . S
H180 C175 0.930 . S
O181 Cu161 1.959 . S
O181 C168 1.251 . S
H182 C165 0.930 . S
H183 C176 0.929 . S
C184 C185 1.363 . S
C184 C190 1.379 . S
C184 N192 1.356 . S
C185 C184 1.363 . S
C185 C191 1.363 1_655 S
C186 C187 1.363 1_455 S
C186 C191 1.379 . S
C186 N193 1.356 . S
C187 C186 1.363 1_655 S
C187 C190 1.363 . S
N188 C190 1.356 . S
N188 H200 0.984 . S
N188 H201 0.985 . S
N189 C191 1.356 . S
N189 H194 0.984 . S
N189 H195 0.985 . S
C190 C184 1.379 . S
C190 C187 1.363 . S
C190 N188 1.356 . S
C191 C185 1.363 1_455 S
C191 C186 1.379 . S
C191 N189 1.356 . S
N192 C184 1.356 . S
N192 H198 0.984 . S
N192 H199 0.984 . S
N193 C186 1.356 . S
N193 H196 0.984 . S
N193 H197 0.985 . S
H194 N189 0.984 . S
H195 N189 0.985 . S
H196 N193 0.984 . S
H197 N193 0.985 . S
H198 N192 0.984 . S
H199 N192 0.984 . S
H200 N188 0.984 . S
H201 N188 0.985 . S
C202 C203 1.363 . S
C202 C208 1.379 . S
C202 N210 1.356 . S
C203 C202 1.363 . S
C203 C209 1.363 . S
C204 C205 1.363 . S
C204 C209 1.379 . S
C204 N211 1.356 . S
C205 C204 1.363 . S
C205 C208 1.363 . S
N206 C208 1.356 . S
N206 H218 0.984 . S
N206 H219 0.985 . S
N207 C209 1.356 . S
N207 H212 0.984 . S
N207 H213 0.985 . S
C208 C202 1.379 . S
C208 C205 1.363 . S
C208 N206 1.356 . S
C209 C203 1.363 . S
C209 C204 1.379 . S
C209 N207 1.356 . S
N210 C202 1.356 . S
N210 H216 0.984 . S
N210 H217 0.984 . S
N211 C204 1.356 . S
N211 H214 0.984 . S
N211 H215 0.985 . S
H212 N207 0.984 . S
H213 N207 0.985 . S
H214 N211 0.984 . S
H215 N211 0.985 . S
H216 N210 0.984 . S
H217 N210 0.984 . S
H218 N206 0.984 . S
H219 N206 0.985 . S
C220 C221 1.363 1_565 S
C220 C226 1.379 . S
C220 N228 1.356 1_556 S
C221 C220 1.363 1_545 S
C221 C227 1.363 . S
C222 C223 1.363 . S
C222 C227 1.379 1_565 S
C222 N229 1.356 . S
C223 C222 1.363 . S
C223 C226 1.363 . S
N224 C226 1.356 . S
N224 H236 0.984 . S
N224 H237 0.985 . S
N225 C227 1.356 . S
N225 H230 0.984 . S
N225 H231 0.985 . S
C226 C220 1.379 . S
C226 C223 1.363 . S
C226 N224 1.356 . S
C227 C221 1.363 . S
C227 C222 1.379 1_545 S
C227 N225 1.356 . S
N228 C220 1.356 1_554 S
N228 H234 0.984 . S
N228 H235 0.984 1_565 S
N229 C222 1.356 . S
N229 H232 0.984 . S
N229 H233 0.985 1_565 S
H230 N225 0.984 . S
H231 N225 0.985 . S
H232 N229 0.984 . S
H233 N229 0.985 1_545 S
H234 N228 0.984 . S
H235 N228 0.984 1_545 S
H236 N224 0.984 . S
H237 N224 0.985 . S
C238 C239 1.363 . S
C238 C244 1.379 1_554 S
C238 N246 1.356 . S
C239 C238 1.363 . S
C239 C245 1.363 . S
C240 C241 1.363 1_655 S
C240 C245 1.379 1_645 S
C240 N247 1.356 . S
C241 C240 1.363 1_455 S
C241 C244 1.363 1_544 S
N242 C244 1.356 . S
N242 H254 0.984 . S
N242 H255 0.985 1_565 S
N243 C245 1.356 1_655 S
N243 H248 0.984 1_655 S
N243 H249 0.985 1_565 S
C244 C238 1.379 1_556 S
C244 C241 1.363 1_566 S
C244 N242 1.356 . S
C245 C239 1.363 . S
C245 C240 1.379 1_465 S
C245 N243 1.356 1_455 S
N246 C238 1.356 . S
N246 H252 0.984 . S
N246 H253 0.984 . S
N247 C240 1.356 . S
N247 H250 0.984 . S
N247 H251 0.985 . S
H248 N243 0.984 1_455 S
H249 N243 0.985 1_545 S
H250 N247 0.984 . S
H251 N247 0.985 . S
H252 N246 0.984 . S
H253 N246 0.984 . S
H254 N242 0.984 . S
H255 N242 0.985 1_545 S
C256 C257 1.363 . S
C256 C262 1.379 . S
C256 N264 1.356 . S
C257 C256 1.363 . S
C257 C263 1.363 . S
C258 C259 1.363 . S
C258 C263 1.379 . S
C258 N265 1.356 . S
C259 C258 1.363 . S
C259 C262 1.363 . S
N260 C262 1.356 . S
N260 H272 0.984 . S
N260 H273 0.985 . S
N261 C263 1.356 . S
N261 H266 0.984 . S
N261 H267 0.985 . S
C262 C256 1.379 . S
C262 C259 1.363 . S
C262 N260 1.356 . S
C263 C257 1.363 . S
C263 C258 1.379 . S
C263 N261 1.356 . S
N264 C256 1.356 . S
N264 H270 0.984 . S
N264 H271 0.984 . S
N265 C258 1.356 . S
N265 H268 0.984 . S
N265 H269 0.985 . S
H266 N261 0.984 . S
H267 N261 0.985 . S
H268 N265 0.984 . S
H269 N265 0.985 . S
H270 N264 0.984 . S
H271 N264 0.984 . S
H272 N260 0.984 . S
H273 N260 0.985 . S
C274 C275 1.363 . S
C274 C280 1.379 . S
C274 N282 1.356 . S
C275 C274 1.363 . S
C275 C281 1.363 . S
C276 C277 1.363 . S
C276 C281 1.379 . S
C276 N283 1.356 . S
C277 C276 1.363 . S
C277 C280 1.363 . S
N278 C280 1.356 . S
N278 H290 0.984 . S
N278 H291 0.985 . S
N279 C281 1.356 . S
N279 H284 0.984 . S
N279 H285 0.985 . S
C280 C274 1.379 . S
C280 C277 1.363 . S
C280 N278 1.356 . S
C281 C275 1.363 . S
C281 C276 1.379 . S
C281 N279 1.356 . S
N282 C274 1.356 . S
N282 H288 0.984 . S
N282 H289 0.984 . S
N283 C276 1.356 . S
N283 H286 0.984 . S
N283 H287 0.985 . S
H284 N279 0.984 . S
H285 N279 0.985 . S
H286 N283 0.984 . S
H287 N283 0.985 . S
H288 N282 0.984 . S
H289 N282 0.984 . S
H290 N278 0.984 . S
H291 N278 0.985 . S
C292 C293 1.363 . S
C292 C298 1.379 . S
C292 N300 1.356 . S
C293 C292 1.363 . S
C293 C299 1.363 . S
C294 C295 1.363 . S
C294 C299 1.379 . S
C294 N301 1.356 . S
C295 C294 1.363 . S
C295 C298 1.363 . S
N296 C298 1.356 . S
N296 H308 0.984 . S
N296 H309 0.985 . S
N297 C299 1.356 . S
N297 H302 0.984 . S
N297 H303 0.985 . S
C298 C292 1.379 . S
C298 C295 1.363 . S
C298 N296 1.356 . S
C299 C293 1.363 . S
C299 C294 1.379 . S
C299 N297 1.356 . S
N300 C292 1.356 . S
N300 H306 0.984 . S
N300 H307 0.984 . S
N301 C294 1.356 . S
N301 H304 0.984 . S
N301 H305 0.985 . S
H302 N297 0.984 . S
H303 N297 0.985 . S
H304 N301 0.984 . S
H305 N301 0.985 . S
H306 N300 0.984 . S
H307 N300 0.984 . S
H308 N296 0.984 . S
H309 N296 0.985 . S
C310 C311 1.363 . S
C310 C316 1.379 . S
C310 N318 1.356 . S
C311 C310 1.363 . S
C311 C317 1.363 . S
C312 C313 1.363 . S
C312 C317 1.379 . S
C312 N319 1.356 . S
C313 C312 1.363 . S
C313 C316 1.363 . S
N314 C316 1.356 . S
N314 H326 0.984 . S
N314 H327 0.985 . S
N315 C317 1.356 . S
N315 H320 0.984 . S
N315 H321 0.985 . S
C316 C310 1.379 . S
C316 C313 1.363 . S
C316 N314 1.356 . S
C317 C311 1.363 . S
C317 C312 1.379 . S
C317 N315 1.356 . S
N318 C310 1.356 . S
N318 H324 0.984 . S
N318 H325 0.984 . S
N319 C312 1.356 . S
N319 H322 0.984 . S
N319 H323 0.985 . S
H320 N315 0.984 . S
H321 N315 0.985 . S
H322 N319 0.984 . S
H323 N319 0.985 . S
H324 N318 0.984 . S
H325 N318 0.984 . S
H326 N314 0.984 . S
H327 N314 0.985 . S
C328 C329 1.363 . S
C328 C334 1.379 . S
C328 N336 1.356 . S
C329 C328 1.363 . S
C329 C335 1.363 . S
C330 C331 1.363 . S
C330 C335 1.379 . S
C330 N337 1.356 . S
C331 C330 1.363 . S
C331 C334 1.363 . S
N332 C334 1.356 . S
N332 H344 0.984 . S
N332 H345 0.985 . S
N333 C335 1.356 . S
N333 H338 0.984 . S
N333 H339 0.985 . S
C334 C328 1.379 . S
C334 C331 1.363 . S
C334 N332 1.356 . S
C335 C329 1.363 . S
C335 C330 1.379 . S
C335 N333 1.356 . S
N336 C328 1.356 . S
N336 H342 0.984 . S
N336 H343 0.984 . S
N337 C330 1.356 . S
N337 H340 0.984 . S
N337 H341 0.985 . S
H338 N333 0.984 . S
H339 N333 0.985 . S
H340 N337 0.984 . S
H341 N337 0.985 . S
H342 N336 0.984 . S
H343 N336 0.984 . S
H344 N332 0.984 . S
H345 N332 0.985 . S
C346 C347 1.363 . S
C346 C352 1.379 . S
C346 N354 1.356 . S
C347 C346 1.363 . S
C347 C353 1.363 . S
C348 C349 1.363 . S
C348 C353 1.379 . S
C348 N355 1.356 . S
C349 C348 1.363 . S
C349 C352 1.363 . S
N350 C352 1.356 . S
N350 H362 0.984 . S
N350 H363 0.985 . S
N351 C353 1.356 . S
N351 H356 0.984 . S
N351 H357 0.985 . S
C352 C346 1.379 . S
C352 C349 1.363 . S
C352 N350 1.356 . S
C353 C347 1.363 . S
C353 C348 1.379 . S
C353 N351 1.356 . S
N354 C346 1.356 . S
N354 H360 0.984 . S
N354 H361 0.984 . S
N355 C348 1.356 . S
N355 H358 0.984 . S
N355 H359 0.985 . S
H356 N351 0.984 . S
H357 N351 0.985 . S
H358 N355 0.984 . S
H359 N355 0.985 . S
H360 N354 0.984 . S
H361 N354 0.984 . S
H362 N350 0.984 . S
H363 N350 0.985 . S
C364 C365 1.363 . S
C364 C370 1.379 . S
C364 N372 1.356 . S
C365 C364 1.363 . S
C365 C371 1.363 . S
C366 C367 1.363 . S
C366 C371 1.379 . S
C366 N373 1.356 . S
C367 C366 1.363 . S
C367 C370 1.363 . S
N368 C370 1.356 . S
N368 H380 0.984 . S
N368 H381 0.985 . S
N369 C371 1.356 . S
N369 H374 0.984 . S
N369 H375 0.985 . S
C370 C364 1.379 . S
C370 C367 1.363 . S
C370 N368 1.356 . S
C371 C365 1.363 . S
C371 C366 1.379 . S
C371 N369 1.356 . S
N372 C364 1.356 . S
N372 H378 0.984 . S
N372 H379 0.984 . S
N373 C366 1.356 . S
N373 H376 0.984 . S
N373 H377 0.985 . S
H374 N369 0.984 . S
H375 N369 0.985 . S
H376 N373 0.984 . S
H377 N373 0.985 . S
H378 N372 0.984 . S
H379 N372 0.984 . S
H380 N368 0.984 . S
H381 N368 0.985 . S
C382 C383 1.363 . S
C382 C388 1.379 . S
C382 N390 1.356 . S
C383 C382 1.363 . S
C383 C389 1.363 . S
C384 C385 1.363 . S
C384 C389 1.379 . S
C384 N391 1.356 . S
C385 C384 1.363 . S
C385 C388 1.363 . S
N386 C388 1.356 . S
N386 H398 0.984 . S
N386 H399 0.985 . S
N387 C389 1.356 . S
N387 H392 0.984 . S
N387 H393 0.985 . S
C388 C382 1.379 . S
C388 C385 1.363 . S
C388 N386 1.356 . S
C389 C383 1.363 . S
C389 C384 1.379 . S
C389 N387 1.356 . S
N390 C382 1.356 . S
N390 H396 0.984 . S
N390 H397 0.984 . S
N391 C384 1.356 . S
N391 H394 0.984 . S
N391 H395 0.985 . S
H392 N387 0.984 . S
H393 N387 0.985 . S
H394 N391 0.984 . S
H395 N391 0.985 . S
H396 N390 0.984 . S
H397 N390 0.984 . S
H398 N386 0.984 . S
H399 N386 0.985 . S
C400 C401 1.363 . S
C400 C406 1.379 . S
C400 N408 1.356 . S
C401 C400 1.363 . S
C401 C407 1.363 . S
C402 C403 1.363 . S
C402 C407 1.379 . S
C402 N409 1.356 . S
C403 C402 1.363 . S
C403 C406 1.363 . S
N404 C406 1.356 . S
N404 H416 0.984 . S
N404 H417 0.985 . S
N405 C407 1.356 . S
N405 H410 0.984 . S
N405 H411 0.985 . S
C406 C400 1.379 . S
C406 C403 1.363 . S
C406 N404 1.356 . S
C407 C401 1.363 . S
C407 C402 1.379 . S
C407 N405 1.356 . S
N408 C400 1.356 . S
N408 H414 0.984 . S
N408 H415 0.984 . S
N409 C402 1.356 . S
N409 H412 0.984 . S
N409 H413 0.985 . S
H410 N405 0.984 . S
H411 N405 0.985 . S
H412 N409 0.984 . S
H413 N409 0.985 . S
H414 N408 0.984 . S
H415 N408 0.984 . S
H416 N404 0.984 . S
H417 N404 0.985 . S
C418 C419 1.363 . S
C418 C424 1.379 . S
C418 N426 1.356 . S
C419 C418 1.363 . S
C419 C425 1.363 . S
C420 C421 1.363 . S
C420 C425 1.379 . S
C420 N427 1.356 . S
C421 C420 1.363 . S
C421 C424 1.363 . S
N422 C424 1.356 . S
N422 H434 0.984 . S
N422 H435 0.985 . S
N423 C425 1.356 . S
N423 H428 0.984 . S
N423 H429 0.985 . S
C424 C418 1.379 . S
C424 C421 1.363 . S
C424 N422 1.356 . S
C425 C419 1.363 . S
C425 C420 1.379 . S
C425 N423 1.356 . S
N426 C418 1.356 . S
N426 H432 0.984 . S
N426 H433 0.984 . S
N427 C420 1.356 . S
N427 H430 0.984 . S
N427 H431 0.985 . S
H428 N423 0.984 . S
H429 N423 0.985 . S
H430 N427 0.984 . S
H431 N427 0.985 . S
H432 N426 0.984 . S
H433 N426 0.984 . S
H434 N422 0.984 . S
H435 N422 0.985 . S
C436 C437 1.363 . S
C436 C442 1.379 1_554 S
C436 N444 1.356 . S
C437 C436 1.363 . S
C437 C443 1.363 . S
C438 C439 1.363 . S
C438 C443 1.379 1_556 S
C438 N445 1.356 . S
C439 C438 1.363 . S
C439 C442 1.363 . S
N440 C442 1.356 . S
N440 H452 0.984 . S
N440 H453 0.985 . S
N441 C443 1.356 . S
N441 H446 0.984 . S
N441 H447 0.985 . S
C442 C436 1.379 1_556 S
C442 C439 1.363 . S
C442 N440 1.356 . S
C443 C437 1.363 . S
C443 C438 1.379 1_554 S
C443 N441 1.356 . S
N444 C436 1.356 . S
N444 H450 0.984 . S
N444 H451 0.984 . S
N445 C438 1.356 . S
N445 H448 0.984 . S
N445 H449 0.985 . S
H446 N441 0.984 . S
H447 N441 0.985 . S
H448 N445 0.984 . S
H449 N445 0.985 . S
H450 N444 0.984 . S
H451 N444 0.984 . S
H452 N440 0.984 . S
H453 N440 0.985 . S
C454 C455 1.363 . S
C454 C460 1.379 1_554 S
C454 N462 1.356 . S
C455 C454 1.363 . S
C455 C461 1.363 . S
C456 C457 1.363 . S
C456 C461 1.379 1_556 S
C456 N463 1.356 . S
C457 C456 1.363 . S
C457 C460 1.363 . S
N458 C460 1.356 . S
N458 H470 0.984 . S
N458 H471 0.985 . S
N459 C461 1.356 . S
N459 H464 0.984 . S
N459 H465 0.985 . S
C460 C454 1.379 1_556 S
C460 C457 1.363 . S
C460 N458 1.356 . S
C461 C455 1.363 . S
C461 C456 1.379 1_554 S
C461 N459 1.356 . S
N462 C454 1.356 . S
N462 H468 0.984 . S
N462 H469 0.984 . S
N463 C456 1.356 . S
N463 H466 0.984 . S
N463 H467 0.985 . S
H464 N459 0.984 . S
H465 N459 0.985 . S
H466 N463 0.984 . S
H467 N463 0.985 . S
H468 N462 0.984 . S
H469 N462 0.984 . S
H470 N458 0.984 . S
H471 N458 0.985 . S
C185 C16 1.731 . S
C187 N58 1.850 1_655 S
C203 N81 1.850 . S
C205 C39 1.731 . S
C221 N150 1.850 1_556 S
C223 C108 1.731 . S
C239 C131 1.731 . S
C241 N173 1.850 1_454 S
C257 C154 1.761 . S
C259 N12 1.738 . S
C275 N35 1.738 . S
C277 C177 1.761 . S
C293 C62 1.761 . S
C295 N104 1.738 . S
C311 C85 1.761 . S
C313 N127 1.738 . S
C329 N140 1.769 . S
C331 C7 1.931 . S
C347 C30 1.931 . S
C349 N163 1.769 . S
C365 C99 1.931 . S
C367 N48 1.769 . S
C383 C122 1.931 . S
C385 N71 1.769 . S
C401 N25 1.034 . S
C403 N2 1.035 . S
C419 C53 0.827 . S
C421 C76 0.827 . S
C437 N117 1.035 . S
C439 N94 1.035 . S
C455 C145 0.827 . S
C457 C168 0.827 . S
