# Generated by pormake.
# Topology reo-e, (6)-cn, num edge types: 1
# Building blocks:
#     Node 0, Type 0, BuildingBlock: IZENUY_clean_sbu_0, # of connection points: 6
#     Node 1, Type 0, BuildingBlock: IZENUY_clean_sbu_0, # of connection points: 6
#     Node 2, Type 0, BuildingBlock: IZENUY_clean_sbu_0, # of connection points: 6
#     Node 3, Type 0, BuildingBlock: IZENUY_clean_sbu_0, # of connection points: 6
#     Node 4, Type 0, BuildingBlock: IZENUY_clean_sbu_0, # of connection points: 6
#     Node 5, Type 0, BuildingBlock: IZENUY_clean_sbu_0, # of connection points: 6
#     Node 6, Type 0, BuildingBlock: IZENUY_clean_sbu_0, # of connection points: 6
#     Node 7, Type 0, BuildingBlock: IZENUY_clean_sbu_0, # of connection points: 6
#     Node 8, Type 0, BuildingBlock: IZENUY_clean_sbu_0, # of connection points: 6
#     Node 9, Type 0, BuildingBlock: IZENUY_clean_sbu_0, # of connection points: 6
#     Node 10, Type 0, BuildingBlock: IZENUY_clean_sbu_0, # of connection points: 6
#     Node 11, Type 0, BuildingBlock: IZENUY_clean_sbu_0, # of connection points: 6
#     Edge 12, Type (0, 0), BuildingBlock: XUDNAN_clean_linker_2, # of connection points: 2
#     Edge 13, Type (0, 0), BuildingBlock: XUDNAN_clean_linker_2, # of connection points: 2
#     Edge 14, Type (0, 0), BuildingBlock: XUDNAN_clean_linker_2, # of connection points: 2
#     Edge 15, Type (0, 0), BuildingBlock: XUDNAN_clean_linker_2, # of connection points: 2
#     Edge 16, Type (0, 0), BuildingBlock: XUDNAN_clean_linker_2, # of connection points: 2
#     Edge 17, Type (0, 0), BuildingBlock: XUDNAN_clean_linker_2, # of connection points: 2
#     Edge 18, Type (0, 0), BuildingBlock: XUDNAN_clean_linker_2, # of connection points: 2
#     Edge 19, Type (0, 0), BuildingBlock: XUDNAN_clean_linker_2, # of connection points: 2
#     Edge 20, Type (0, 0), BuildingBlock: XUDNAN_clean_linker_2, # of connection points: 2
#     Edge 21, Type (0, 0), BuildingBlock: XUDNAN_clean_linker_2, # of connection points: 2
#     Edge 22, Type (0, 0), BuildingBlock: XUDNAN_clean_linker_2, # of connection points: 2
#     Edge 23, Type (0, 0), BuildingBlock: XUDNAN_clean_linker_2, # of connection points: 2
#     Edge 24, Type (0, 0), BuildingBlock: XUDNAN_clean_linker_2, # of connection points: 2
#     Edge 25, Type (0, 0), BuildingBlock: XUDNAN_clean_linker_2, # of connection points: 2
#     Edge 26, Type (0, 0), BuildingBlock: XUDNAN_clean_linker_2, # of connection points: 2
#     Edge 27, Type (0, 0), BuildingBlock: XUDNAN_clean_linker_2, # of connection points: 2
#     Edge 28, Type (0, 0), BuildingBlock: XUDNAN_clean_linker_2, # of connection points: 2
#     Edge 29, Type (0, 0), BuildingBlock: XUDNAN_clean_linker_2, # of connection points: 2
#     Edge 30, Type (0, 0), BuildingBlock: XUDNAN_clean_linker_2, # of connection points: 2
#     Edge 31, Type (0, 0), BuildingBlock: XUDNAN_clean_linker_2, # of connection points: 2
#     Edge 32, Type (0, 0), BuildingBlock: XUDNAN_clean_linker_2, # of connection points: 2
#     Edge 33, Type (0, 0), BuildingBlock: XUDNAN_clean_linker_2, # of connection points: 2
#     Edge 34, Type (0, 0), BuildingBlock: XUDNAN_clean_linker_2, # of connection points: 2
#     Edge 35, Type (0, 0), BuildingBlock: XUDNAN_clean_linker_2, # of connection points: 2
#     Edge 36, Type (0, 0), BuildingBlock: XUDNAN_clean_linker_2, # of connection points: 2
#     Edge 37, Type (0, 0), BuildingBlock: XUDNAN_clean_linker_2, # of connection points: 2
#     Edge 38, Type (0, 0), BuildingBlock: XUDNAN_clean_linker_2, # of connection points: 2
#     Edge 39, Type (0, 0), BuildingBlock: XUDNAN_clean_linker_2, # of connection points: 2
#     Edge 40, Type (0, 0), BuildingBlock: XUDNAN_clean_linker_2, # of connection points: 2
#     Edge 41, Type (0, 0), BuildingBlock: XUDNAN_clean_linker_2, # of connection points: 2
#     Edge 42, Type (0, 0), BuildingBlock: XUDNAN_clean_linker_2, # of connection points: 2
#     Edge 43, Type (0, 0), BuildingBlock: XUDNAN_clean_linker_2, # of connection points: 2
#     Edge 44, Type (0, 0), BuildingBlock: XUDNAN_clean_linker_2, # of connection points: 2
#     Edge 45, Type (0, 0), BuildingBlock: XUDNAN_clean_linker_2, # of connection points: 2
#     Edge 46, Type (0, 0), BuildingBlock: XUDNAN_clean_linker_2, # of connection points: 2
#     Edge 47, Type (0, 0), BuildingBlock: XUDNAN_clean_linker_2, # of connection points: 2
# Relax obj value: 0.074
# Max RMSD: 0.096
# Mean RMSD: 0.095
data_MOF--net-reo-e--node1-IZENUY_clean_sbu_0--edge1-XUDNAN_clean_linker_2
_symmetry_space_group_name_H-M    P1
_symmetry_Int_Tables_number       1
_symmetry_cell_setting            triclinic
loop_
_symmetry_equiv_pos_as_xyz
'x, y, z'
_cell_length_a     37.811559
_cell_length_b     37.886249
_cell_length_c     37.801826
_cell_angle_alpha  89.959043
_cell_angle_beta   89.962693
_cell_angle_gamma 90.119587
loop_
_atom_site_label
_atom_site_type_symbol
_atom_site_fract_x
_atom_site_fract_y
_atom_site_fract_z
_atom_type_partial_charge
Fe0 Fe 0.20836 0.20405 0.55552 0.0
Fe1 Fe 0.25742 0.25652 0.51692 0.0
O2 O 0.22365 0.22395 0.51584 0.0
Fe3 Fe 0.20483 0.21121 0.47469 0.0
O4 O 0.16122 0.22632 0.48826 0.0
O5 O 0.1626 0.19983 0.54022 0.0
O6 O 0.19565 0.24629 0.57401 0.0
C7 C 0.21529 0.27307 0.57696 0.0
C8 C 0.20869 0.1467 0.51181 0.0
O9 O 0.24358 0.27581 0.55923 0.0
C10 C 0.27499 0.21394 0.45758 0.0
O11 O 0.25125 0.20513 0.57784 0.0
O12 O 0.2884 0.2272 0.53872 0.0
O13 O 0.19487 0.16593 0.48827 0.0
O14 O 0.21998 0.16007 0.54015 0.0
C15 C 0.21567 0.28459 0.46525 0.0
O16 O 0.27735 0.24264 0.47475 0.0
O17 O 0.24726 0.19532 0.459 0.0
C18 C 0.28241 0.21008 0.56671 0.0
O19 O 0.22918 0.28877 0.49541 0.0
O20 O 0.21137 0.25398 0.45272 0.0
C21 C 0.14595 0.21627 0.51628 0.0
Fe22 Fe 0.77509 0.25187 0.5144 0.0
Fe23 Fe 0.82302 0.20463 0.55952 0.0
O24 O 0.80897 0.21945 0.51741 0.0
Fe25 Fe 0.82917 0.20181 0.47878 0.0
O26 O 0.84311 0.2452 0.46395 0.0
O27 O 0.79324 0.27315 0.47465 0.0
O28 O 0.80041 0.28362 0.54053 0.0
C29 C 0.81282 0.27733 0.57086 0.0
C30 C 0.75644 0.20816 0.45951 0.0
O31 O 0.81464 0.24616 0.5824 0.0
C32 C 0.82384 0.14196 0.51927 0.0
O33 O 0.75089 0.23603 0.55375 0.0
O34 O 0.77934 0.18806 0.56994 0.0
O35 O 0.78881 0.20381 0.45201 0.0
O36 O 0.74713 0.22313 0.48788 0.0
C37 C 0.88662 0.21203 0.52602 0.0
O38 O 0.83455 0.16014 0.54511 0.0
O39 O 0.81646 0.15665 0.49028 0.0
C40 C 0.75198 0.20707 0.57066 0.0
O41 O 0.86722 0.22063 0.55168 0.0
O42 O 0.87354 0.19726 0.49885 0.0
C43 C 0.82313 0.27149 0.45956 0.0
Fe44 Fe 0.82827 0.81898 0.55748 0.0
Fe45 Fe 0.83127 0.82122 0.47632 0.0
O46 O 0.81188 0.80473 0.51606 0.0
Fe47 Fe 0.77633 0.77404 0.51468 0.0
O48 O 0.75465 0.79062 0.55491 0.0
O49 O 0.78577 0.83727 0.57006 0.0
O50 O 0.84071 0.86303 0.5422 0.0
C51 C 0.82903 0.88134 0.51683 0.0
C52 C 0.81525 0.74655 0.56905 0.0
O53 O 0.82058 0.86682 0.488 0.0
C54 C 0.82175 0.75107 0.45984 0.0
O55 O 0.87145 0.80142 0.54765 0.0
O56 O 0.87654 0.82475 0.49463 0.0
O57 O 0.80103 0.74113 0.53943 0.0
O58 O 0.81931 0.77754 0.58068 0.0
C59 C 0.75774 0.81867 0.46084 0.0
O60 O 0.84294 0.77687 0.46157 0.0
O61 O 0.79171 0.75205 0.47454 0.0
C62 C 0.89018 0.80972 0.52136 0.0
O63 O 0.78979 0.82046 0.45119 0.0
O64 O 0.74897 0.80424 0.48964 0.0
C65 C 0.7575 0.81958 0.57147 0.0
Fe66 Fe 0.20889 0.82382 0.47556 0.0
Fe67 Fe 0.26322 0.77928 0.51505 0.0
O68 O 0.22841 0.81028 0.51587 0.0
Fe69 Fe 0.21325 0.82717 0.5568 0.0
O70 O 0.16918 0.81103 0.54876 0.0
O71 O 0.16395 0.82965 0.49399 0.0
O72 O 0.19582 0.77923 0.465 0.0
C73 C 0.21729 0.75418 0.46172 0.0
C74 C 0.21202 0.88674 0.51043 0.0
O75 O 0.24806 0.7565 0.47474 0.0
C76 C 0.28378 0.82546 0.57045 0.0
O77 O 0.25056 0.82069 0.4497 0.0
O78 O 0.29076 0.80928 0.49017 0.0
O79 O 0.20294 0.87173 0.53915 0.0
O80 O 0.22047 0.86898 0.48364 0.0
C81 C 0.22362 0.75391 0.56969 0.0
O82 O 0.28511 0.7957 0.55529 0.0
O83 O 0.25653 0.8443 0.56792 0.0
C84 C 0.28248 0.82151 0.46029 0.0
O85 O 0.23715 0.74806 0.53979 0.0
O86 O 0.22067 0.78529 0.58136 0.0
C87 C 0.15039 0.81714 0.52202 0.0
Fe88 Fe 0.55631 0.21142 0.20183 0.0
Fe89 Fe 0.51721 0.25609 0.2571 0.0
O90 O 0.51649 0.22327 0.22351 0.0
Fe91 Fe 0.47606 0.20266 0.21174 0.0
O92 O 0.49568 0.15903 0.20253 0.0
O93 O 0.55198 0.16606 0.21527 0.0
O94 O 0.58394 0.21749 0.24148 0.0
C95 C 0.57604 0.21813 0.27414 0.0
C96 C 0.50601 0.21152 0.1461 0.0
O97 O 0.54645 0.22967 0.28443 0.0
C98 C 0.4583 0.27508 0.21994 0.0
O99 O 0.56372 0.25621 0.18678 0.0
O100 O 0.5547 0.28083 0.23839 0.0
O101 O 0.48012 0.21662 0.16634 0.0
O102 O 0.53588 0.20276 0.15839 0.0
C103 C 0.46578 0.20751 0.28279 0.0
O104 O 0.48809 0.28441 0.23181 0.0
O105 O 0.44944 0.24276 0.2184 0.0
C106 C 0.56707 0.28215 0.20728 0.0
O107 O 0.47974 0.23789 0.28218 0.0
O108 O 0.46853 0.18728 0.25653 0.0
C109 C 0.52573 0.14629 0.21012 0.0
Fe110 Fe 0.82467 0.47437 0.20373 0.0
Fe111 Fe 0.7777 0.50929 0.25935 0.0
O112 O 0.80996 0.51314 0.22554 0.0
Fe113 Fe 0.82691 0.55538 0.21348 0.0
O114 O 0.81368 0.54972 0.16783 0.0
O115 O 0.83206 0.49535 0.16042 0.0
O116 O 0.78036 0.46362 0.18855 0.0
C117 C 0.7546 0.45893 0.2092 0.0
C118 C 0.88716 0.51022 0.21365 0.0
O119 O 0.75584 0.4704 0.24057 0.0
C120 C 0.82191 0.5642 0.28513 0.0
O121 O 0.82068 0.44592 0.24316 0.0
O122 O 0.80652 0.48227 0.28625 0.0
O123 O 0.87249 0.53918 0.20499 0.0
O124 O 0.86932 0.4824 0.21752 0.0
C125 C 0.75282 0.56639 0.2228 0.0
O126 O 0.79299 0.54745 0.28484 0.0
O127 O 0.84143 0.56527 0.25818 0.0
C128 C 0.81962 0.45351 0.27584 0.0
O129 O 0.74706 0.53572 0.2344 0.0
O130 O 0.78416 0.57843 0.22013 0.0
C131 C 0.82113 0.52426 0.14781 0.0
Fe132 Fe 0.56192 0.82197 0.20872 0.0
Fe133 Fe 0.48117 0.82878 0.20544 0.0
O134 O 0.51964 0.81009 0.22477 0.0
Fe135 Fe 0.51609 0.77954 0.25992 0.0
O136 O 0.55721 0.79388 0.28202 0.0
O137 O 0.57469 0.83989 0.25111 0.0
O138 O 0.54911 0.8668 0.19597 0.0
C139 C 0.52464 0.88634 0.20762 0.0
C140 C 0.56967 0.74903 0.22271 0.0
O141 O 0.49531 0.87327 0.21673 0.0
C142 C 0.4595 0.76047 0.21409 0.0
O143 O 0.55138 0.80454 0.16564 0.0
O144 O 0.50028 0.83168 0.16041 0.0
O145 O 0.53881 0.7456 0.23487 0.0
O146 O 0.58301 0.77938 0.21853 0.0
C147 C 0.4648 0.82647 0.27888 0.0
O148 O 0.46451 0.7858 0.19302 0.0
O149 O 0.47436 0.75988 0.24417 0.0
C150 C 0.52568 0.8144 0.14689 0.0
O151 O 0.45508 0.82863 0.24684 0.0
O152 O 0.49325 0.81135 0.28717 0.0
C153 C 0.57496 0.82227 0.27941 0.0
Fe154 Fe 0.20558 0.5582 0.20998 0.0
Fe155 Fe 0.2609 0.51987 0.25461 0.0
O156 O 0.22621 0.51836 0.22312 0.0
Fe157 Fe 0.21216 0.47733 0.20547 0.0
O158 O 0.20317 0.49511 0.16045 0.0
O159 O 0.21797 0.55121 0.16486 0.0
O160 O 0.24627 0.58474 0.21376 0.0
C161 C 0.27861 0.57576 0.2134 0.0
C162 C 0.148 0.51042 0.21391 0.0
O163 O 0.28832 0.54626 0.22549 0.0
C164 C 0.22193 0.46427 0.27917 0.0
O165 O 0.19199 0.56788 0.25493 0.0
O166 O 0.24457 0.55927 0.27751 0.0
O167 O 0.1673 0.48416 0.22018 0.0
O168 O 0.16127 0.53909 0.203 0.0
C169 C 0.28285 0.46433 0.20902 0.0
O170 O 0.23518 0.49419 0.28531 0.0
O171 O 0.2188 0.45284 0.24763 0.0
C172 C 0.21362 0.57164 0.27997 0.0
O173 O 0.284 0.48037 0.23833 0.0
O174 O 0.25603 0.46685 0.18953 0.0
C175 C 0.21243 0.52422 0.14631 0.0
Fe176 Fe 0.56064 0.82459 0.82484 0.0
Fe177 Fe 0.47952 0.82749 0.82817 0.0
O178 O 0.51894 0.81008 0.80914 0.0
Fe179 Fe 0.51723 0.77826 0.77463 0.0
O180 O 0.54205 0.74609 0.80043 0.0
O181 O 0.58363 0.78317 0.81644 0.0
O182 O 0.55105 0.80772 0.86835 0.0
C183 C 0.52461 0.81574 0.88695 0.0
C184 C 0.574 0.82346 0.75407 0.0
O185 O 0.498 0.83104 0.87337 0.0
C186 C 0.46387 0.8231 0.75464 0.0
O187 O 0.54605 0.86885 0.83677 0.0
O188 O 0.49189 0.87269 0.81681 0.0
O189 O 0.55745 0.79433 0.7523 0.0
O190 O 0.57275 0.84201 0.78177 0.0
C191 C 0.46086 0.75772 0.81999 0.0
O192 O 0.45452 0.82665 0.78663 0.0
O193 O 0.49218 0.80758 0.74631 0.0
C194 C 0.5208 0.8871 0.82502 0.0
O195 O 0.46353 0.78382 0.84055 0.0
O196 O 0.4769 0.75671 0.79066 0.0
C197 C 0.5719 0.7521 0.81402 0.0
Fe198 Fe 0.2066 0.55961 0.81979 0.0
Fe199 Fe 0.25866 0.51541 0.7755 0.0
O200 O 0.2249 0.51796 0.808 0.0
Fe201 Fe 0.21 0.47872 0.82892 0.0
O202 O 0.16562 0.48603 0.81399 0.0
O203 O 0.16112 0.54234 0.82735 0.0
O204 O 0.19311 0.56913 0.77482 0.0
C205 C 0.21374 0.56909 0.74869 0.0
C206 C 0.21169 0.52801 0.8852 0.0
O207 O 0.24324 0.55349 0.74988 0.0
C208 C 0.28022 0.46369 0.82541 0.0
O209 O 0.24878 0.58408 0.81429 0.0
O210 O 0.28766 0.54256 0.80205 0.0
O211 O 0.20114 0.4991 0.87219 0.0
O212 O 0.21901 0.55385 0.86555 0.0
C213 C 0.21804 0.45887 0.75689 0.0
O214 O 0.28074 0.47679 0.79463 0.0
O215 O 0.25383 0.46821 0.84524 0.0
C216 C 0.28052 0.57309 0.81325 0.0
O217 O 0.23165 0.48773 0.74711 0.0
O218 O 0.21556 0.45104 0.78941 0.0
C219 C 0.14699 0.51306 0.81881 0.0
Fe220 Fe 0.51417 0.25788 0.77464 0.0
Fe221 Fe 0.47376 0.20379 0.82001 0.0
O222 O 0.51406 0.22458 0.80787 0.0
Fe223 Fe 0.55416 0.21235 0.82876 0.0
O224 O 0.56228 0.25706 0.84381 0.0
O225 O 0.55184 0.28263 0.79289 0.0
O226 O 0.48536 0.28571 0.8008 0.0
C227 C 0.45578 0.27609 0.81297 0.0
C228 C 0.5725 0.21974 0.75622 0.0
O229 O 0.44696 0.24377 0.81376 0.0
C230 C 0.52308 0.14726 0.82053 0.0
O231 O 0.47654 0.23965 0.74979 0.0
O232 O 0.46606 0.18869 0.77521 0.0
O233 O 0.5811 0.21836 0.78865 0.0
O234 O 0.54302 0.23202 0.7466 0.0
C235 C 0.5045 0.21237 0.88525 0.0
O236 O 0.49333 0.16011 0.8289 0.0
O237 O 0.54936 0.16699 0.81522 0.0
C238 C 0.4635 0.20886 0.74885 0.0
O239 O 0.47831 0.21748 0.86541 0.0
O240 O 0.53426 0.20372 0.87252 0.0
C241 C 0.56511 0.28337 0.8236 0.0
Fe242 Fe 0.82244 0.47444 0.82868 0.0
Fe243 Fe 0.77417 0.51379 0.77595 0.0
O244 O 0.80782 0.51443 0.80898 0.0
Fe245 Fe 0.82687 0.55519 0.82247 0.0
O246 O 0.87107 0.54145 0.80926 0.0
O247 O 0.8683 0.4891 0.83433 0.0
O248 O 0.83574 0.45664 0.78595 0.0
C249 C 0.81611 0.45414 0.759 0.0
C250 C 0.82019 0.51781 0.88688 0.0
O251 O 0.78766 0.47151 0.75683 0.0
C252 C 0.75683 0.57351 0.81756 0.0
O253 O 0.77937 0.45243 0.82654 0.0
O254 O 0.74278 0.49229 0.80533 0.0
O255 O 0.83433 0.54176 0.86833 0.0
O256 O 0.81012 0.48922 0.87297 0.0
C257 C 0.81855 0.56404 0.74845 0.0
O258 O 0.75456 0.55595 0.78919 0.0
O259 O 0.78414 0.57182 0.83668 0.0
C260 C 0.74836 0.464 0.82199 0.0
O261 O 0.80257 0.53522 0.74355 0.0
O262 O 0.82291 0.57634 0.77921 0.0
C263 C 0.88591 0.5135 0.81962 0.0
H264 H 0.21491 0.28648 0.39274 0.0
H265 H 0.2049 0.35296 0.48566 0.0
H266 H 0.19961 0.40542 0.44714 0.0
H267 H 0.2698 0.34465 0.3453 0.0
H268 H 0.25119 0.33487 0.30252 0.0
H269 H 0.25004 0.30211 0.337 0.0
H270 H 0.18198 0.29722 0.33053 0.0
H271 H 0.18292 0.33 0.29595 0.0
H272 H 0.15523 0.33637 0.33425 0.0
H273 H 0.19951 0.45061 0.39941 0.0
H274 H 0.20709 0.48654 0.34572 0.0
H275 H 0.21864 0.39131 0.28296 0.0
C276 C 0.21081 0.31199 0.40497 0.0
C277 C 0.2099 0.31565 0.44223 0.0
C278 C 0.2055 0.34958 0.45722 0.0
C279 C 0.20234 0.37947 0.43554 0.0
C280 C 0.20383 0.37499 0.39895 0.0
C281 C 0.20808 0.34216 0.38372 0.0
C282 C 0.21178 0.34502 0.34382 0.0
C283 C 0.24784 0.33083 0.33145 0.0
C284 C 0.18114 0.32602 0.32503 0.0
C285 C 0.20939 0.38468 0.33902 0.0
C286 C 0.20445 0.40132 0.3712 0.0
C287 C 0.2031 0.43788 0.37405 0.0
C288 C 0.20755 0.45804 0.34335 0.0
C289 C 0.21343 0.44174 0.31009 0.0
C290 C 0.21369 0.4045 0.30787 0.0
H291 H 0.58357 0.24165 0.34278 0.0
H292 H 0.63075 0.17275 0.26424 0.0
H293 H 0.67869 0.15814 0.30596 0.0
H294 H 0.66415 0.27735 0.37324 0.0
H295 H 0.65096 0.28039 0.41896 0.0
H296 H 0.61813 0.28247 0.38458 0.0
H297 H 0.58445 0.23018 0.41335 0.0
H298 H 0.61727 0.2279 0.44784 0.0
H299 H 0.6074 0.18935 0.4217 0.0
H300 H 0.72352 0.15417 0.35382 0.0
H301 H 0.76407 0.16296 0.40404 0.0
H302 H 0.68906 0.23516 0.45204 0.0
C303 C 0.60364 0.22297 0.33468 0.0
C304 C 0.60335 0.20814 0.30033 0.0
C305 C 0.63049 0.18443 0.29039 0.0
C306 C 0.65772 0.17582 0.31397 0.0
C307 C 0.65757 0.19123 0.34741 0.0
C308 C 0.63136 0.2144 0.35781 0.0
C309 C 0.63912 0.2294 0.39423 0.0
C310 C 0.64335 0.26979 0.39264 0.0
C311 C 0.61034 0.21855 0.42085 0.0
C312 C 0.67402 0.21144 0.40239 0.0
C313 C 0.68391 0.18926 0.37512 0.0
C314 C 0.71592 0.17118 0.37551 0.0
C315 C 0.73882 0.1764 0.40415 0.0
C316 C 0.72973 0.1996 0.4321 0.0
C317 C 0.69652 0.21679 0.43143 0.0
H318 H 0.8449 0.74452 0.39086 0.0
H319 H 0.81668 0.68476 0.48454 0.0
H320 H 0.82217 0.62926 0.451 0.0
H321 H 0.7943 0.69485 0.333 0.0
H322 H 0.82437 0.69646 0.29602 0.0
H323 H 0.82478 0.73123 0.32839 0.0
H324 H 0.89157 0.72082 0.33939 0.0
H325 H 0.8914 0.68605 0.30684 0.0
H326 H 0.90685 0.67731 0.35109 0.0
H327 H 0.82131 0.58177 0.40665 0.0
H328 H 0.81543 0.54433 0.35353 0.0
H329 H 0.84493 0.63305 0.28725 0.0
C330 C 0.84124 0.7196 0.40442 0.0
C331 C 0.831 0.71867 0.44037 0.0
C332 C 0.82494 0.68581 0.4571 0.0
C333 C 0.82806 0.65419 0.43829 0.0
C334 C 0.83715 0.65582 0.40264 0.0
C335 C 0.84385 0.68758 0.38576 0.0
C336 C 0.84926 0.68191 0.34632 0.0
C337 C 0.82152 0.70232 0.32467 0.0
C338 C 0.88702 0.69213 0.33526 0.0
C339 C 0.84351 0.64229 0.34367 0.0
C340 C 0.83687 0.62784 0.3766 0.0
C341 C 0.82731 0.59254 0.3808 0.0
C342 C 0.82395 0.5715 0.35055 0.0
C343 C 0.83042 0.58568 0.31655 0.0
C344 C 0.84098 0.62135 0.31311 0.0
H345 H 0.28459 0.81778 0.38743 0.0
H346 H 0.34627 0.84829 0.47924 0.0
H347 H 0.39766 0.86019 0.44091 0.0
H348 H 0.35201 0.77102 0.34607 0.0
H349 H 0.34081 0.78354 0.30146 0.0
H350 H 0.3071 0.7825 0.33504 0.0
H351 H 0.29162 0.84776 0.3217 0.0
H352 H 0.32532 0.84898 0.28795 0.0
H353 H 0.32592 0.88085 0.32333 0.0
H354 H 0.44408 0.8615 0.39486 0.0
H355 H 0.48303 0.85224 0.3433 0.0
H356 H 0.39229 0.82158 0.28019 0.0
C357 C 0.30861 0.82797 0.39923 0.0
C358 C 0.3114 0.83243 0.43627 0.0
C359 C 0.34357 0.84479 0.45093 0.0
C360 C 0.37286 0.85176 0.42935 0.0
C361 C 0.36964 0.84627 0.39309 0.0
C362 C 0.33836 0.83477 0.37801 0.0
C363 C 0.34316 0.8278 0.33874 0.0
C364 C 0.33531 0.78891 0.32982 0.0
C365 C 0.32013 0.85285 0.31662 0.0
C366 C 0.38218 0.83633 0.33442 0.0
C367 C 0.39677 0.84724 0.3661 0.0
C368 C 0.43287 0.8537 0.36971 0.0
C369 C 0.45479 0.84832 0.34034 0.0
C370 C 0.44057 0.83678 0.30772 0.0
C371 C 0.40368 0.83141 0.30456 0.0
H372 H 0.21633 0.75041 0.64258 0.0
H373 H 0.21111 0.68712 0.54697 0.0
H374 H 0.20171 0.63375 0.58277 0.0
H375 H 0.26494 0.68952 0.69257 0.0
H376 H 0.2427 0.6977 0.73392 0.0
H377 H 0.24507 0.73191 0.70096 0.0
H378 H 0.17675 0.73736 0.70163 0.0
H379 H 0.17421 0.70312 0.73469 0.0
H380 H 0.14994 0.69872 0.69389 0.0
H381 H 0.20064 0.58649 0.6279 0.0
H382 H 0.20542 0.54824 0.68081 0.0
H383 H 0.20849 0.64083 0.7479 0.0
C384 C 0.21241 0.72543 0.62923 0.0
C385 C 0.2145 0.72299 0.59195 0.0
C386 C 0.20983 0.68968 0.57548 0.0
C387 C 0.2043 0.65916 0.59557 0.0
C388 C 0.20324 0.66224 0.6322 0.0
C389 C 0.2069 0.69446 0.649 0.0
C390 C 0.20701 0.68982 0.6889 0.0
C391 C 0.24201 0.70301 0.70502 0.0
C392 C 0.17507 0.70836 0.70577 0.0
C393 C 0.20368 0.64997 0.6917 0.0
C394 C 0.20145 0.63465 0.6586 0.0
C395 C 0.20146 0.59813 0.65402 0.0
C396 C 0.20417 0.57663 0.68407 0.0
C397 C 0.20627 0.59175 0.71812 0.0
C398 C 0.2056 0.62881 0.72207 0.0
H399 H 0.34261 0.24736 0.58117 0.0
H400 H 0.28747 0.14992 0.60553 0.0
H401 H 0.33308 0.13524 0.65001 0.0
H402 H 0.4347 0.21567 0.59716 0.0
H403 H 0.44751 0.25665 0.61773 0.0
H404 H 0.41429 0.25644 0.58354 0.0
H405 H 0.37063 0.28798 0.62585 0.0
H406 H 0.40357 0.28814 0.66015 0.0
H407 H 0.36088 0.26848 0.66829 0.0
H408 H 0.38086 0.13402 0.69565 0.0
H409 H 0.4253 0.14766 0.74137 0.0
H410 H 0.44783 0.24749 0.68937 0.0
C411 C 0.34092 0.22239 0.59505 0.0
C412 C 0.31205 0.19937 0.58959 0.0
C413 C 0.30972 0.16763 0.60919 0.0
C414 C 0.33552 0.15905 0.63436 0.0
C415 C 0.36326 0.1827 0.63984 0.0
C416 C 0.36609 0.2138 0.62082 0.0
C417 C 0.39591 0.23664 0.63479 0.0
C418 C 0.42482 0.24163 0.60662 0.0
C419 C 0.38189 0.27241 0.64806 0.0
C420 C 0.40886 0.21391 0.6651 0.0
C421 C 0.3901 0.18265 0.66715 0.0
C422 C 0.39601 0.15824 0.69409 0.0
C423 C 0.42131 0.16627 0.71999 0.0
C424 C 0.4401 0.19867 0.71906 0.0
C425 C 0.43414 0.22239 0.69077 0.0
H426 H 0.77705 0.43908 0.69965 0.0
H427 H 0.87418 0.41079 0.75392 0.0
H428 H 0.88661 0.36646 0.70766 0.0
H429 H 0.75248 0.35292 0.67539 0.0
H430 H 0.73451 0.36517 0.63298 0.0
H431 H 0.73481 0.39657 0.66867 0.0
H432 H 0.76912 0.44098 0.62926 0.0
H433 H 0.76905 0.4096 0.59344 0.0
H434 H 0.81025 0.42777 0.60914 0.0
H435 H 0.88574 0.32181 0.65889 0.0
H436 H 0.87163 0.27968 0.61109 0.0
H437 H 0.77609 0.33792 0.58704 0.0
C438 C 0.8012 0.42391 0.70168 0.0
C439 C 0.82466 0.4285 0.73055 0.0
C440 C 0.85579 0.40782 0.73217 0.0
C441 C 0.86314 0.38265 0.70592 0.0
C442 C 0.83926 0.37864 0.67808 0.0
C443 C 0.80896 0.39876 0.67572 0.0
C444 C 0.78667 0.38796 0.64413 0.0
C445 C 0.74996 0.37488 0.65601 0.0
C446 C 0.7836 0.4184 0.61741 0.0
C447 C 0.80881 0.35807 0.62942 0.0
C448 C 0.83913 0.3533 0.64936 0.0
C449 C 0.86244 0.32568 0.64274 0.0
C450 C 0.85423 0.30193 0.61557 0.0
C451 C 0.82317 0.30603 0.5951 0.0
C452 C 0.80053 0.33488 0.60164 0.0
H453 H 0.69927 0.78108 0.59089 0.0
H454 H 0.75248 0.8809 0.61013 0.0
H455 H 0.70811 0.89528 0.65598 0.0
H456 H 0.60858 0.81207 0.60533 0.0
H457 H 0.59554 0.77165 0.62694 0.0
H458 H 0.62943 0.77101 0.59341 0.0
H459 H 0.67246 0.74105 0.63752 0.0
H460 H 0.6388 0.74168 0.67115 0.0
H461 H 0.68119 0.76182 0.67952 0.0
H462 H 0.66037 0.89639 0.7032 0.0
H463 H 0.6139 0.88398 0.7476 0.0
H464 H 0.59267 0.78339 0.69677 0.0
C465 C 0.70132 0.80629 0.60422 0.0
C466 C 0.72935 0.82991 0.59677 0.0
C467 C 0.73123 0.86238 0.6153 0.0
C468 C 0.7061 0.87082 0.64135 0.0
C469 C 0.67921 0.84657 0.64847 0.0
C470 C 0.67665 0.81502 0.63031 0.0
C471 C 0.6467 0.79245 0.64436 0.0
C472 C 0.61838 0.78646 0.6158 0.0
C473 C 0.66063 0.75719 0.65901 0.0
C474 C 0.63307 0.81596 0.67365 0.0
C475 C 0.65195 0.84717 0.67553 0.0
C476 C 0.64519 0.87219 0.70172 0.0
C477 C 0.61876 0.86489 0.72685 0.0
C478 C 0.59949 0.83276 0.72568 0.0
C479 C 0.60656 0.80837 0.6983 0.0
H480 H 0.4431 0.25035 0.33646 0.0
H481 H 0.42967 0.14519 0.2928 0.0
H482 H 0.38145 0.13379 0.33549 0.0
H483 H 0.42314 0.22794 0.42906 0.0
H484 H 0.39992 0.26881 0.43626 0.0
H485 H 0.43574 0.26702 0.40487 0.0
H486 H 0.39417 0.29134 0.3561 0.0
H487 H 0.35818 0.2929 0.3872 0.0
H488 H 0.35341 0.26849 0.34658 0.0
H489 H 0.33079 0.13616 0.37927 0.0
H490 H 0.28369 0.15128 0.42205 0.0
H491 H 0.33095 0.25483 0.43648 0.0
C492 C 0.43065 0.22459 0.33632 0.0
C493 C 0.44033 0.19862 0.3113 0.0
C494 C 0.42285 0.16548 0.31177 0.0
C495 C 0.3954 0.15875 0.33591 0.0
C496 C 0.38585 0.18537 0.35949 0.0
C497 C 0.40319 0.21751 0.36005 0.0
C498 C 0.38659 0.2425 0.38646 0.0
C499 C 0.41292 0.25212 0.41591 0.0
C500 C 0.37224 0.27576 0.36797 0.0
C501 C 0.35688 0.21959 0.40038 0.0
C502 C 0.35688 0.1867 0.38461 0.0
C503 C 0.3308 0.16169 0.39208 0.0
C504 C 0.30408 0.17057 0.41631 0.0
C505 C 0.30367 0.20418 0.43275 0.0
C506 C 0.33066 0.22877 0.42471 0.0
H507 H 0.78903 0.44168 0.34037 0.0
H508 H 0.87083 0.40325 0.26988 0.0
H509 H 0.88466 0.35545 0.31236 0.0
H510 H 0.83221 0.42017 0.42461 0.0
H511 H 0.79143 0.4062 0.44506 0.0
H512 H 0.79089 0.43965 0.41115 0.0
H513 H 0.74611 0.40246 0.37496 0.0
H514 H 0.74651 0.36895 0.4087 0.0
H515 H 0.7569 0.35754 0.3636 0.0
H516 H 0.88767 0.31041 0.36139 0.0
H517 H 0.87654 0.26875 0.41039 0.0
H518 H 0.79039 0.33492 0.44715 0.0
C519 C 0.81035 0.42362 0.33426 0.0
C520 C 0.82923 0.42632 0.30212 0.0
C521 C 0.85621 0.40163 0.29449 0.0
C522 C 0.86432 0.37455 0.3185 0.0
C523 C 0.84492 0.37233 0.34981 0.0
C524 C 0.81828 0.39604 0.35759 0.0
C525 C 0.7992 0.38598 0.39139 0.0
C526 C 0.80372 0.41471 0.41973 0.0
C527 C 0.75986 0.37827 0.38422 0.0
C528 C 0.81903 0.35271 0.40126 0.0
C529 C 0.84566 0.34559 0.37727 0.0
C530 C 0.86698 0.31579 0.38041 0.0
C531 C 0.86048 0.2923 0.40842 0.0
C532 C 0.83253 0.29846 0.43265 0.0
C533 C 0.81198 0.32942 0.42915 0.0
H534 H 0.5874 0.78795 0.34229 0.0
H535 H 0.62128 0.87798 0.27951 0.0
H536 H 0.6685 0.89024 0.32267 0.0
H537 H 0.60681 0.82747 0.43001 0.0
H538 H 0.62195 0.78605 0.44787 0.0
H539 H 0.58836 0.78656 0.41405 0.0
H540 H 0.62673 0.74527 0.37522 0.0
H541 H 0.66045 0.74473 0.40876 0.0
H542 H 0.67135 0.75817 0.36431 0.0
H543 H 0.71667 0.88803 0.36782 0.0
H544 H 0.76035 0.8734 0.41424 0.0
H545 H 0.69379 0.7869 0.44948 0.0
C546 C 0.60427 0.81068 0.33796 0.0
C547 C 0.60061 0.83192 0.30742 0.0
C548 C 0.62348 0.86126 0.30265 0.0
C549 C 0.6504 0.86852 0.32707 0.0
C550 C 0.65384 0.84652 0.35638 0.0
C551 C 0.63115 0.81846 0.36219 0.0
C552 C 0.64184 0.7977 0.39473 0.0
C553 C 0.61302 0.79957 0.42336 0.0
C554 C 0.65062 0.7592 0.38516 0.0
C555 C 0.67465 0.8179 0.40571 0.0
C556 C 0.68107 0.84601 0.38325 0.0
C557 C 0.71153 0.8666 0.38607 0.0
C558 C 0.73621 0.85806 0.41236 0.0
C559 C 0.73007 0.82945 0.43566 0.0
C560 C 0.69862 0.80952 0.4326 0.0
H561 H 0.26151 0.70313 0.4359 0.0
H562 H 0.15242 0.73869 0.43345 0.0
H563 H 0.13818 0.6922 0.39003 0.0
H564 H 0.26908 0.68738 0.34528 0.0
H565 H 0.29668 0.6489 0.34963 0.0
H566 H 0.29741 0.68243 0.38328 0.0
H567 H 0.28186 0.63556 0.4309 0.0
H568 H 0.28118 0.6018 0.39735 0.0
H569 H 0.24311 0.60832 0.4253 0.0
H570 H 0.13709 0.64532 0.34295 0.0
H571 H 0.14939 0.60142 0.29617 0.0
H572 H 0.25897 0.59673 0.33022 0.0
C573 C 0.23446 0.70075 0.42678 0.0
C574 C 0.20809 0.72451 0.4381 0.0
C575 C 0.17311 0.72079 0.42511 0.0
C576 C 0.16471 0.6944 0.40053 0.0
C577 C 0.19153 0.67187 0.38937 0.0
C578 C 0.22566 0.67468 0.40219 0.0
C579 C 0.25013 0.64873 0.38429 0.0
C580 C 0.28007 0.66802 0.36444 0.0
C581 C 0.26493 0.62202 0.41106 0.0
C582 C 0.22459 0.63135 0.35893 0.0
C583 C 0.19086 0.64484 0.36237 0.0
C584 C 0.1633 0.6342 0.3403 0.0
C585 C 0.17055 0.60935 0.31378 0.0
C586 C 0.20509 0.59555 0.3096 0.0
C587 C 0.23218 0.60642 0.33292 0.0
H588 H 0.3456 0.79035 0.58458 0.0
H589 H 0.28485 0.8827 0.61488 0.0
H590 H 0.3279 0.89534 0.6622 0.0
H591 H 0.36591 0.76249 0.66971 0.0
H592 H 0.41003 0.74762 0.65961 0.0
H593 H 0.37678 0.748 0.6256 0.0
H594 H 0.41708 0.78715 0.58624 0.0
H595 H 0.45059 0.78677 0.62012 0.0
H596 H 0.43404 0.82817 0.60351 0.0
H597 H 0.37271 0.89336 0.711 0.0
H598 H 0.41853 0.8789 0.75539 0.0
H599 H 0.45178 0.78977 0.69173 0.0
C600 C 0.34168 0.81365 0.60067 0.0
C601 C 0.31176 0.83547 0.59599 0.0
C602 C 0.30755 0.86557 0.61785 0.0
C603 C 0.33189 0.87301 0.64482 0.0
C604 C 0.36056 0.85041 0.6493 0.0
C605 C 0.36583 0.8216 0.62755 0.0
C606 C 0.39766 0.80035 0.63918 0.0
C607 C 0.38694 0.76238 0.64912 0.0
C608 C 0.42656 0.80065 0.61055 0.0
C609 C 0.40894 0.82121 0.67141 0.0
C610 C 0.3872 0.85 0.6768 0.0
C611 C 0.3904 0.87136 0.70664 0.0
C612 C 0.41635 0.86291 0.73174 0.0
C613 C 0.43893 0.83362 0.7266 0.0
C614 C 0.43547 0.81289 0.69578 0.0
H615 H 0.25002 0.33566 0.58941 0.0
H616 H 0.16175 0.27173 0.626 0.0
H617 H 0.15033 0.31483 0.67351 0.0
H618 H 0.28174 0.35997 0.67333 0.0
H619 H 0.29388 0.4043 0.66088 0.0
H620 H 0.29359 0.36981 0.62818 0.0
H621 H 0.25065 0.40642 0.58939 0.0
H622 H 0.25084 0.4411 0.62201 0.0
H623 H 0.20956 0.42174 0.60804 0.0
H624 H 0.15212 0.36153 0.72038 0.0
H625 H 0.1653 0.41031 0.76176 0.0
H626 H 0.25048 0.4455 0.69333 0.0
C627 C 0.22801 0.33087 0.60713 0.0
C628 C 0.20686 0.30017 0.60397 0.0
C629 C 0.17836 0.29499 0.62781 0.0
C630 C 0.17162 0.31935 0.6549 0.0
C631 C 0.19333 0.349 0.65758 0.0
C632 C 0.22074 0.35504 0.63415 0.0
C633 C 0.24087 0.38838 0.64359 0.0
C634 C 0.27981 0.3801 0.652 0.0
C635 C 0.23778 0.41605 0.61399 0.0
C636 C 0.22094 0.39975 0.67642 0.0
C637 C 0.19362 0.37663 0.68402 0.0
C638 C 0.17304 0.38014 0.7144 0.0
C639 C 0.18078 0.40781 0.73776 0.0
C640 C 0.20859 0.43181 0.73046 0.0
C641 C 0.22856 0.42798 0.69912 0.0
H642 H 0.58547 0.25127 0.69225 0.0
H643 H 0.61916 0.16549 0.76025 0.0
H644 H 0.6648 0.14886 0.71645 0.0
H645 H 0.60193 0.20842 0.60663 0.0
H646 H 0.61885 0.24822 0.58661 0.0
H647 H 0.58615 0.25086 0.62121 0.0
H648 H 0.62764 0.29162 0.65749 0.0
H649 H 0.66034 0.28921 0.62297 0.0
H650 H 0.67185 0.27703 0.66759 0.0
H651 H 0.70816 0.14318 0.66683 0.0
H652 H 0.75026 0.15214 0.61787 0.0
H653 H 0.69058 0.24382 0.58344 0.0
C654 C 0.60207 0.2286 0.69751 0.0
C655 C 0.59869 0.20933 0.72932 0.0
C656 C 0.62142 0.18046 0.73591 0.0
C657 C 0.6472 0.17072 0.71113 0.0
C658 C 0.65014 0.19042 0.68012 0.0
C659 C 0.62847 0.219 0.67338 0.0
C660 C 0.63942 0.23781 0.6397 0.0
C661 C 0.60982 0.23622 0.61189 0.0
C662 C 0.65047 0.27618 0.64741 0.0
C663 C 0.67083 0.21556 0.62877 0.0
C664 C 0.67616 0.18802 0.65213 0.0
C665 C 0.70419 0.16456 0.64826 0.0
C666 C 0.72796 0.16988 0.62029 0.0
C667 C 0.72387 0.19876 0.59676 0.0
C668 C 0.69442 0.22139 0.60079 0.0
H669 H 0.78269 0.57471 0.68603 0.0
H670 H 0.87662 0.60548 0.74418 0.0
H671 H 0.88998 0.65062 0.69909 0.0
H672 H 0.81824 0.59328 0.59442 0.0
H673 H 0.77643 0.61069 0.57968 0.0
H674 H 0.77755 0.57637 0.61274 0.0
H675 H 0.74055 0.6156 0.65486 0.0
H676 H 0.73955 0.65008 0.62215 0.0
H677 H 0.75629 0.65919 0.66584 0.0
H678 H 0.88841 0.69768 0.65441 0.0
H679 H 0.87289 0.74366 0.61098 0.0
H680 H 0.78026 0.68355 0.57994 0.0
C681 C 0.80675 0.59009 0.6884 0.0
C682 C 0.82896 0.58641 0.71824 0.0
C683 C 0.85949 0.60782 0.72134 0.0
C684 C 0.86733 0.63342 0.69582 0.0
C685 C 0.84434 0.63735 0.66734 0.0
C686 C 0.81477 0.6162 0.66323 0.0
C687 C 0.79243 0.6287 0.63228 0.0
C688 C 0.7911 0.60058 0.60304 0.0
C689 C 0.75501 0.63901 0.64453 0.0
C690 C 0.81347 0.6608 0.62051 0.0
C691 C 0.84349 0.66497 0.64098 0.0
C692 C 0.86545 0.69432 0.63766 0.0
C693 C 0.85634 0.72036 0.61308 0.0
C694 C 0.82568 0.71684 0.59195 0.0
C695 C 0.80432 0.68635 0.59521 0.0
H696 H 0.44661 0.33883 0.25207 0.0
H697 H 0.41046 0.27183 0.1664 0.0
H698 H 0.36529 0.31625 0.15051 0.0
H699 H 0.36072 0.36491 0.27895 0.0
H700 H 0.37344 0.40914 0.29111 0.0
H701 H 0.40531 0.37398 0.2932 0.0
H702 H 0.44726 0.40942 0.25206 0.0
H703 H 0.41539 0.44465 0.24971 0.0
H704 H 0.43142 0.42441 0.20966 0.0
H705 H 0.32304 0.36685 0.14517 0.0
H706 H 0.28258 0.41695 0.15423 0.0
H707 H 0.34398 0.44967 0.24565 0.0
C708 C 0.42953 0.33388 0.22961 0.0
C709 C 0.43214 0.3022 0.21013 0.0
C710 C 0.40881 0.29605 0.18154 0.0
C711 C 0.38328 0.32118 0.17222 0.0
C712 C 0.38116 0.35209 0.19208 0.0
C713 C 0.40337 0.35836 0.22044 0.0
C714 C 0.39342 0.39215 0.23941 0.0
C715 C 0.38257 0.38458 0.27794 0.0
C716 C 0.42368 0.41926 0.23759 0.0
C717 C 0.36205 0.4038 0.2174 0.0
C718 C 0.35579 0.3806 0.18991 0.0
C719 C 0.32773 0.38526 0.16654 0.0
C720 C 0.30491 0.4139 0.17189 0.0
C721 C 0.30998 0.43732 0.2007 0.0
C722 C 0.3394 0.43241 0.22328 0.0
H723 H 0.28218 0.64609 0.81214 0.0
H724 H 0.34676 0.5539 0.83341 0.0
H725 H 0.3984 0.59226 0.84373 0.0
H726 H 0.34686 0.69207 0.76363 0.0
H727 H 0.33545 0.73527 0.77992 0.0
H728 H 0.30238 0.70109 0.77818 0.0
H729 H 0.28992 0.70939 0.84504 0.0
H730 H 0.32304 0.74363 0.84701 0.0
H731 H 0.32582 0.70611 0.87623 0.0
H732 H 0.44425 0.63923 0.84603 0.0
H733 H 0.48165 0.69255 0.83961 0.0
H734 H 0.38853 0.75516 0.81751 0.0
C735 C 0.30701 0.63409 0.81975 0.0
C736 C 0.31037 0.59696 0.82217 0.0
C737 C 0.34353 0.58223 0.83138 0.0
C738 C 0.37302 0.60382 0.83746 0.0
C739 C 0.36907 0.64021 0.83425 0.0
C740 C 0.33695 0.65534 0.82564 0.0
C741 C 0.34072 0.69504 0.82128 0.0
C742 C 0.33077 0.70653 0.78351 0.0
C743 C 0.31856 0.7147 0.84905 0.0
C744 C 0.38004 0.69966 0.82813 0.0
C745 C 0.39576 0.66764 0.83586 0.0
C746 C 0.43218 0.66456 0.84073 0.0
C747 C 0.45319 0.69489 0.83714 0.0
C748 C 0.43772 0.72782 0.82908 0.0
C749 C 0.40069 0.73036 0.82488 0.0
H750 H 0.34365 0.45203 0.79263 0.0
H751 H 0.27758 0.41462 0.87888 0.0
H752 H 0.31829 0.36458 0.88811 0.0
H753 H 0.36199 0.37061 0.75621 0.0
H754 H 0.40721 0.38012 0.74442 0.0
H755 H 0.37559 0.4154 0.74738 0.0
H756 H 0.41542 0.44795 0.79266 0.0
H757 H 0.44747 0.41293 0.78954 0.0
H758 H 0.4297 0.42522 0.83204 0.0
H759 H 0.36098 0.31416 0.88195 0.0
H760 H 0.40619 0.27022 0.86488 0.0
H761 H 0.44611 0.34196 0.78475 0.0
C762 C 0.33815 0.4338 0.81402 0.0
C763 C 0.30737 0.43725 0.835 0.0
C764 C 0.30107 0.41269 0.86259 0.0
C765 C 0.324 0.3841 0.86798 0.0
C766 C 0.35341 0.38081 0.84597 0.0
C767 C 0.36091 0.40537 0.81997 0.0
C768 C 0.39319 0.39487 0.79872 0.0
C769 C 0.38392 0.38996 0.75937 0.0
C770 C 0.42323 0.42184 0.80354 0.0
C771 C 0.40207 0.36001 0.81611 0.0
C772 C 0.37878 0.35234 0.84328 0.0
C773 C 0.37983 0.32022 0.86125 0.0
C774 C 0.40539 0.29537 0.85124 0.0
C775 C 0.42974 0.30294 0.82379 0.0
C776 C 0.42824 0.33583 0.80632 0.0
H777 H 0.68829 0.44961 0.7843 0.0
H778 H 0.74255 0.42546 0.88229 0.0
H779 H 0.69659 0.38126 0.89695 0.0
H780 H 0.59596 0.43425 0.81572 0.0
H781 H 0.58319 0.41357 0.77473 0.0
H782 H 0.61675 0.44745 0.77484 0.0
H783 H 0.66018 0.40472 0.74365 0.0
H784 H 0.62689 0.37074 0.74358 0.0
H785 H 0.66938 0.36243 0.76347 0.0
H786 H 0.64837 0.336 0.89826 0.0
H787 H 0.60334 0.29077 0.88487 0.0
H788 H 0.58186 0.34229 0.78448 0.0
C789 C 0.68972 0.43582 0.80937 0.0
C790 C 0.71844 0.4413 0.83258 0.0
C791 C 0.72042 0.42181 0.86445 0.0
C792 C 0.69443 0.39678 0.87301 0.0
C793 C 0.66683 0.3913 0.8492 0.0
C794 C 0.66434 0.41018 0.81796 0.0
C795 C 0.6345 0.3963 0.79506 0.0
C796 C 0.6059 0.42458 0.78979 0.0
C797 C 0.64859 0.38274 0.75935 0.0
C798 C 0.62109 0.36627 0.81798 0.0
C799 C 0.63971 0.36422 0.84934 0.0
C800 C 0.63334 0.33755 0.87396 0.0
C801 C 0.6077 0.31193 0.86607 0.0
C802 C 0.58897 0.31288 0.83361 0.0
C803 C 0.59545 0.34089 0.80965 0.0
H804 H 0.69704 0.58806 0.77913 0.0
H805 H 0.75231 0.61669 0.8757 0.0
H806 H 0.7065 0.66126 0.88836 0.0
H807 H 0.67385 0.67378 0.75424 0.0
H808 H 0.63112 0.66211 0.73661 0.0
H809 H 0.66617 0.63008 0.73698 0.0
H810 H 0.62618 0.58671 0.77197 0.0
H811 H 0.59096 0.61871 0.7718 0.0
H812 H 0.60653 0.60072 0.81309 0.0
H813 H 0.65896 0.70666 0.88722 0.0
H814 H 0.61246 0.74987 0.87261 0.0
H815 H 0.5863 0.69075 0.77803 0.0
C816 C 0.69931 0.60329 0.80325 0.0
C817 C 0.72836 0.59884 0.82643 0.0
C818 C 0.73037 0.61959 0.85752 0.0
C819 C 0.70439 0.64488 0.86502 0.0
C820 C 0.67642 0.64888 0.84134 0.0
C821 C 0.6736 0.62857 0.81117 0.0
C822 C 0.64213 0.63965 0.78893 0.0
C823 C 0.65404 0.65215 0.75202 0.0
C824 C 0.61483 0.60966 0.78631 0.0
C825 C 0.62815 0.67 0.8109 0.0
C826 C 0.64826 0.67469 0.84114 0.0
C827 C 0.64259 0.70283 0.86407 0.0
C828 C 0.61616 0.7272 0.85557 0.0
C829 C 0.5955 0.72313 0.82462 0.0
C830 C 0.60106 0.69377 0.80239 0.0
H831 H 0.64216 0.74578 0.22031 0.0
H832 H 0.54767 0.68076 0.21417 0.0
H833 H 0.58492 0.6276 0.20826 0.0
H834 H 0.6969 0.69452 0.1588 0.0
H835 H 0.73652 0.70044 0.18465 0.0
H836 H 0.70258 0.73378 0.18513 0.0
H837 H 0.69908 0.72942 0.25346 0.0
H838 H 0.73297 0.69614 0.2532 0.0
H839 H 0.69092 0.68715 0.27384 0.0
H840 H 0.63176 0.58159 0.20644 0.0
H841 H 0.68511 0.54488 0.21137 0.0
H842 H 0.74991 0.63929 0.21988 0.0
C843 C 0.62929 0.72042 0.21711 0.0
C844 C 0.59197 0.7174 0.21744 0.0
C845 C 0.57618 0.68368 0.21395 0.0
C846 C 0.59711 0.65338 0.21042 0.0
C847 C 0.63379 0.65724 0.21057 0.0
C848 C 0.6498 0.68985 0.21395 0.0
C849 C 0.68975 0.68639 0.21581 0.0
C850 C 0.70748 0.70488 0.18421 0.0
C851 C 0.704 0.70061 0.25118 0.0
C852 C 0.69366 0.64665 0.21342 0.0
C853 C 0.66101 0.63047 0.21006 0.0
C854 C 0.65748 0.59395 0.20884 0.0
C855 C 0.688 0.57334 0.21176 0.0
C856 C 0.72176 0.58918 0.21601 0.0
C857 C 0.72459 0.6264 0.21621 0.0
H858 H 0.44629 0.69778 0.24838 0.0
H859 H 0.41156 0.76211 0.15986 0.0
H860 H 0.36403 0.71929 0.14743 0.0
H861 H 0.42792 0.61198 0.20662 0.0
H862 H 0.41323 0.59224 0.24748 0.0
H863 H 0.446 0.62685 0.24815 0.0
H864 H 0.40672 0.66312 0.29096 0.0
H865 H 0.37386 0.6287 0.2904 0.0
H866 H 0.36181 0.67317 0.27858 0.0
H867 H 0.31654 0.67322 0.14851 0.0
H868 H 0.27446 0.62467 0.16099 0.0
H869 H 0.34187 0.58818 0.24619 0.0
C870 C 0.42894 0.70268 0.22613 0.0
C871 C 0.43264 0.73339 0.20517 0.0
C872 C 0.40937 0.73877 0.17628 0.0
C873 C 0.38225 0.71459 0.16897 0.0
C874 C 0.37903 0.68489 0.19045 0.0
C875 C 0.40196 0.67859 0.21819 0.0
C876 C 0.39207 0.64511 0.23781 0.0
C877 C 0.42156 0.61741 0.23482 0.0
C878 C 0.38308 0.65302 0.27673 0.0
C879 C 0.35952 0.63402 0.21726 0.0
C880 C 0.35242 0.65739 0.19009 0.0
C881 C 0.32218 0.65434 0.16923 0.0
C882 C 0.29844 0.62681 0.17653 0.0
C883 C 0.30535 0.60251 0.20408 0.0
C884 C 0.33651 0.6059 0.22434 0.0
H885 H 0.58926 0.33669 0.2491 0.0
H886 H 0.60054 0.29304 0.14353 0.0
H887 H 0.64653 0.33755 0.13013 0.0
H888 H 0.60539 0.42998 0.22548 0.0
H889 H 0.62971 0.43795 0.26569 0.0
H890 H 0.59466 0.40564 0.26507 0.0
H891 H 0.63821 0.35819 0.28831 0.0
H892 H 0.67337 0.3902 0.28878 0.0
H893 H 0.67848 0.34976 0.26424 0.0
H894 H 0.69598 0.383 0.13076 0.0
H895 H 0.74348 0.42568 0.14523 0.0
H896 H 0.69882 0.43863 0.25028 0.0
C897 C 0.60073 0.33692 0.22284 0.0
C898 C 0.59119 0.31139 0.19736 0.0
C899 C 0.60733 0.31239 0.1635 0.0
C900 C 0.63346 0.33761 0.15561 0.0
C901 C 0.64296 0.36174 0.18177 0.0
C902 C 0.62684 0.36172 0.21461 0.0
C903 C 0.64348 0.38854 0.23908 0.0
C904 C 0.61671 0.41723 0.24943 0.0
C905 C 0.65932 0.37059 0.27202 0.0
C906 C 0.67204 0.40315 0.2152 0.0
C907 C 0.67125 0.38766 0.18214 0.0
C908 C 0.69653 0.39564 0.15642 0.0
C909 C 0.72345 0.41985 0.16489 0.0
C910 C 0.72491 0.43557 0.19887 0.0
C911 C 0.69843 0.42735 0.22397 0.0
H912 H 0.21553 0.93982 0.56128 0.0
H913 H 0.20253 0.92123 0.44856 0.0
H914 H 0.20058 0.98492 0.43792 0.0
H915 H 0.15804 0.01715 0.56598 0.0
H916 H 0.18566 0.04045 0.59705 0.0
H917 H 0.18504 0.99289 0.59682 0.0
H918 H 0.25304 0.99219 0.58859 0.0
H919 H 0.25384 0.03974 0.58861 0.0
H920 H 0.27252 1.01574 0.55196 0.0
H921 H 0.20049 0.0491 0.43802 0.0
H922 H 0.20197 0.11286 0.44916 0.0
H923 H 0.21633 0.09315 0.56153 0.0
C924 C 0.21195 0.94929 0.53449 0.0
C925 C 0.20926 0.92544 0.50578 0.0
C926 C 0.20494 0.93884 0.47101 0.0
C927 C 0.2037 0.97504 0.4646 0.0
C928 C 0.20695 0.9978 0.49317 0.0
C929 C 0.21098 0.98576 0.52744 0.0
C930 C 0.21454 0.01662 0.55292 0.0
C931 C 0.184 0.01678 0.57978 0.0
C932 C 0.25064 0.01603 0.57162 0.0
C933 C 0.21187 0.04758 0.52742 0.0
C934 C 0.20738 0.0358 0.49316 0.0
C935 C 0.20391 0.05879 0.46473 0.0
C936 C 0.20472 0.09501 0.47138 0.0
C937 C 0.20911 0.10806 0.50621 0.0
C938 C 0.21306 0.08395 0.53462 0.0
H939 H 0.09132 0.20753 0.46855 0.0
H940 H 0.11503 0.23722 0.57679 0.0
H941 H 0.05133 0.24263 0.58949 0.0
H942 H 1.01168 0.26331 0.45754 0.0
H943 H 0.98822 0.23021 0.43257 0.0
H944 H 0.0358 0.23247 0.43046 0.0
H945 H 0.03956 0.16692 0.4496 0.0
H946 H 0.99205 0.16453 0.452 0.0
H947 H 0.01836 0.15303 0.49003 0.0
H948 H 0.98637 0.24193 0.59189 0.0
H949 H 0.92239 0.23388 0.58464 0.0
H950 H 0.93872 0.20174 0.47546 0.0
C951 C 0.08292 0.21593 0.49461 0.0
C952 C 0.10788 0.22234 0.52168 0.0
C953 C 0.09617 0.23233 0.55577 0.0
C954 C 0.06011 0.23555 0.56319 0.0
C955 C 0.03606 0.22834 0.53631 0.0
C956 C 0.04676 0.21867 0.50271 0.0
C957 C 1.01505 0.20989 0.47964 0.0
C958 C 1.01254 0.2355 0.44819 0.0
C959 C 1.01634 0.1713 0.46709 0.0
C960 C 0.98507 0.21573 0.50573 0.0
C961 C 0.99797 0.22677 0.53807 0.0
C962 C 0.97585 0.23344 0.56667 0.0
C963 C 0.93947 0.22869 0.56224 0.0
C964 C 0.92537 0.21702 0.52949 0.0
C965 C 0.94862 0.21057 0.50083 0.0
H966 H 0.82008 0.08896 0.46785 0.0
H967 H 0.82314 0.10667 0.58144 0.0
H968 H 0.82266 0.04289 0.59168 0.0
H969 H 0.76225 1.01053 0.47137 0.0
H970 H 0.78513 0.98779 0.43633 0.0
H971 H 0.78401 0.03535 0.43693 0.0
H972 H 0.85241 0.03721 0.43471 0.0
H973 H 0.85375 0.98968 0.43419 0.0
H974 H 0.87749 1.01378 0.46776 0.0
H975 H 0.82462 0.97883 0.59106 0.0
H976 H 0.82805 0.91538 0.57959 0.0
H977 H 0.82336 0.93517 0.46638 0.0
C978 C 0.82032 0.07932 0.49482 0.0
C979 C 0.82188 0.10303 0.52382 0.0
C980 C 0.82233 0.08928 0.55872 0.0
C981 C 0.82191 0.05297 0.56491 0.0
C982 C 0.82095 0.03039 0.536 0.0
C983 C 0.82003 0.04271 0.50161 0.0
C984 C 0.82006 1.01193 0.47566 0.0
C985 C 0.78582 1.01138 0.45378 0.0
C986 C 0.85289 1.01324 0.45166 0.0
C987 C 0.82162 0.98069 0.50102 0.0
C988 C 0.82197 0.99234 0.53563 0.0
C989 C 0.82424 0.96927 0.56409 0.0
C990 C 0.82637 0.93317 0.5572 0.0
C991 C 0.82622 0.9201 0.52206 0.0
C992 C 0.82345 0.94429 0.49351 0.0
H993 H 0.09617 0.84251 0.47951 0.0
H994 H 0.11743 0.77608 0.57079 0.0
H995 H 0.05385 0.76496 0.5778 0.0
H996 H 0.01836 0.88262 0.51461 0.0
H997 H 0.99475 0.88374 0.47321 0.0
H998 H 0.04236 0.88511 0.47344 0.0
H999 H 0.04421 0.83048 0.43233 0.0
H1000 H 0.99656 0.82894 0.43198 0.0
H1001 H 0.02146 0.79066 0.44532 0.0
H1002 H 0.98901 0.76238 0.57717 0.0
H1003 H 0.92494 0.76945 0.5696 0.0
H1004 H 0.94324 0.83791 0.47907 0.0
C1005 C 0.08739 0.82537 0.50072 0.0
C1006 C 0.11188 0.81024 0.52464 0.0
C1007 C 0.09929 0.7882 0.55226 0.0
C1008 C 0.06318 0.78154 0.55641 0.0
C1009 C 0.03976 0.79707 0.53276 0.0
C1010 C 0.05113 0.81855 0.50546 0.0
C1011 C 0.01983 0.83298 0.48483 0.0
C1012 C 0.01877 0.87352 0.48665 0.0
C1013 C 0.02057 0.81998 0.44633 0.0
C1014 C 0.98928 0.81655 0.50521 0.0
C1015 C 1.00162 0.79576 0.53254 0.0
C1016 C 0.97892 0.77847 0.55578 0.0
C1017 C 0.94251 0.78277 0.55128 0.0
C1018 C 0.92893 0.80432 0.5238 0.0
C1019 C 0.95275 0.8211 0.50019 0.0
H1020 H 0.55204 0.19713 0.93896 0.0
H1021 H 0.44494 0.23392 0.9196 0.0
H1022 H 0.43477 0.23816 0.98359 0.0
H1023 H 0.53125 0.14402 1.01513 0.0
H1024 H 0.57121 0.15491 0.03873 0.0
H1025 H 0.5709 0.15524 0.99108 0.0
H1026 H 0.59321 0.21994 0.99114 0.0
H1027 H 0.59361 0.2198 0.03881 0.0
H1028 H 0.56886 0.25295 1.01528 0.0
H1029 H 0.43513 0.2379 0.0488 0.0
H1030 H 0.44602 0.23322 0.11264 0.0
H1031 H 0.5529 0.19661 0.09169 0.0
C1032 C 0.5265 0.20615 0.9482 0.0
C1033 C 0.49928 0.21506 0.92407 0.0
C1034 C 0.46622 0.22675 0.93735 0.0
C1035 C 0.46014 0.22934 0.97374 0.0
C1036 C 0.48733 0.22022 0.99671 0.0
C1037 C 0.51988 0.20889 0.98466 0.0
C1038 C 0.54429 0.20046 1.01542 0.0
C1039 C 0.55504 0.16133 1.01505 0.0
C1040 C 0.57692 0.22474 1.01513 0.0
C1041 C 0.5202 0.20865 0.0465 0.0
C1042 C 0.48753 0.22007 0.03491 0.0
C1043 C 0.4606 0.22902 0.05828 0.0
C1044 C 0.4671 0.22617 0.09457 0.0
C1045 C 0.50031 0.21441 0.10737 0.0
C1046 C 0.52725 0.20567 0.08284 0.0
H1047 H 0.82204 0.46919 0.94197 0.0
H1048 H 0.811 0.58088 0.91887 0.0
H1049 H 0.80818 0.59387 0.98257 0.0
H1050 H 0.76443 0.46747 0.0202 0.0
H1051 H 0.7921 0.43705 0.04418 0.0
H1052 H 0.7909 0.43576 0.99654 0.0
H1053 H 0.85895 0.44348 0.99455 0.0
H1054 H 0.86033 0.44492 0.04215 0.0
H1055 H 0.87901 0.48061 1.01665 0.0
H1056 H 0.80783 0.59564 0.04797 0.0
H1057 H 0.81152 0.58626 0.11225 0.0
H1058 H 0.82521 0.47373 0.09498 0.0
C1059 C 0.81857 0.49626 0.95043 0.0
C1060 C 0.81668 0.52405 0.92543 0.0
C1061 C 0.81269 0.55921 0.93751 0.0
C1062 C 0.81093 0.56688 0.97366 0.0
C1063 C 0.81346 0.53914 0.99764 0.0
C1064 C 0.81729 0.50453 0.98672 0.0
C1065 C 0.82103 0.48009 0.01842 0.0
C1066 C 0.79028 0.45352 0.01992 0.0
C1067 C 0.85697 0.46117 0.0179 0.0
C1068 C 0.81892 0.50647 0.04864 0.0
C1069 C 0.81422 0.5403 0.03589 0.0
C1070 C 0.81148 0.56927 0.05835 0.0
C1071 C 0.81363 0.56363 0.0949 0.0
C1072 C 0.8188 0.52928 0.10885 0.0
C1073 C 0.82145 0.50034 0.08523 0.0
H1074 H 0.48608 0.84534 0.09362 0.0
H1075 H 0.56921 0.76864 0.11283 0.0
H1076 H 0.57492 0.75878 0.04888 0.0
H1077 H 0.4463 0.79971 0.01738 0.0
H1078 H 0.43729 0.84009 0.99384 0.0
H1079 H 0.43766 0.8398 0.04152 0.0
H1080 H 0.48446 0.88983 0.04147 0.0
H1081 H 0.48427 0.89024 0.99384 0.0
H1082 H 0.5252 0.88388 0.01741 0.0
H1083 H 0.57464 0.75915 0.98391 0.0
H1084 H 0.56831 0.76969 0.92013 0.0
H1085 H 0.48528 0.84606 0.94085 0.0
C1086 C 0.50515 0.82617 0.08434 0.0
C1087 C 0.52725 0.80782 0.10831 0.0
C1088 C 0.55212 0.78319 0.09507 0.0
C1089 C 0.5555 0.77725 0.05875 0.0
C1090 C 0.53378 0.79605 0.03586 0.0
C1091 C 0.50903 0.81996 0.04793 0.0
C1092 C 0.49019 0.83764 0.01718 0.0
C1093 C 0.4505 0.82877 0.01751 0.0
C1094 C 0.49642 0.87777 0.01751 0.0
C1095 C 0.50874 0.82029 0.9861 0.0
C1096 C 0.53361 0.79626 0.9977 0.0
C1097 C 0.55512 0.77772 0.97442 0.0
C1098 C 0.5514 0.78405 0.9382 0.0
C1099 C 0.52637 0.80877 0.92544 0.0
C1100 C 0.50444 0.82682 0.94978 0.0
H1101 H 0.19139 0.48144 0.93829 0.0
H1102 H 0.23923 0.58439 0.92034 0.0
H1103 H 0.24541 0.5926 0.9844 0.0
H1104 H 0.14162 0.50625 1.01584 0.0
H1105 H 0.14833 0.465 0.03864 0.0
H1106 H 0.14805 0.46616 0.991 0.0
H1107 H 0.20996 0.43708 0.98978 0.0
H1108 H 0.21046 0.43589 0.03745 0.0
H1109 H 0.24589 0.4573 1.01373 0.0
H1110 H 0.24671 0.59075 0.04882 0.0
H1111 H 0.24157 0.58013 0.1123 0.0
H1112 H 0.19209 0.47838 0.09186 0.0
C1113 C 0.20319 0.50567 0.94787 0.0
C1114 C 0.21476 0.53231 0.9241 0.0
C1115 C 0.23001 0.56364 0.9378 0.0
C1116 C 0.23376 0.56855 0.97423 0.0
C1117 C 0.22214 0.54196 0.99682 0.0
C1118 C 0.20707 0.51116 0.98444 0.0
C1119 C 0.19636 0.48727 1.01505 0.0
C1120 C 0.1562 0.4808 1.01513 0.0
C1121 C 0.2169 0.45231 1.01392 0.0
C1122 C 0.20763 0.50972 0.04644 0.0
C1123 C 0.22258 0.54101 0.03493 0.0
C1124 C 0.23498 0.56642 0.05824 0.0
C1125 C 0.23178 0.56003 0.09442 0.0
C1126 C 0.2161 0.52846 0.10738 0.0
C1127 C 0.20415 0.50274 0.08291 0.0
H1128 H 0.0945 0.55533 0.19133 0.0
H1129 H 0.11351 0.45678 0.24709 0.0
H1130 H 0.04959 0.44858 0.25472 0.0
H1131 H 0.01832 0.58298 0.24441 0.0
H1132 H 0.99456 0.60106 0.20729 0.0
H1133 H 0.04223 0.60066 0.2071 0.0
H1134 H 0.04183 0.56673 0.14766 0.0
H1135 H 0.99419 0.56704 0.14765 0.0
H1136 H 0.01765 0.5258 0.14432 0.0
H1137 H 0.98507 0.44924 0.25541 0.0
H1138 H 0.92139 0.45785 0.2481 0.0
H1139 H 0.94095 0.55588 0.19139 0.0
C1140 C 0.08516 0.53218 0.20534 0.0
C1141 C 0.10919 0.50667 0.21855 0.0
C1142 C 0.09582 0.47663 0.23653 0.0
C1143 C 0.05949 0.47175 0.24116 0.0
C1144 C 0.03661 0.49711 0.2277 0.0
C1145 C 0.04866 0.52673 0.21011 0.0
C1146 C 0.01778 0.54912 0.1974 0.0
C1147 C 0.01826 0.58562 0.21511 0.0
C1148 C 0.01788 0.55235 0.15685 0.0
C1149 C 0.98665 0.52709 0.2103 0.0
C1150 C 0.99847 0.49738 0.22788 0.0
C1151 C 0.9754 0.4724 0.24174 0.0
C1152 C 0.93916 0.47755 0.23727 0.0
C1153 C 0.92597 0.50746 0.21892 0.0
C1154 C 0.95015 0.53285 0.20562 0.0
H1155 H 0.93934 0.5641 0.82112 0.0
H1156 H 0.91974 0.45166 0.81008 0.0
H1157 H 0.98372 0.44086 0.80671 0.0
H1158 H 0.0173 0.56827 0.76281 0.0
H1159 H 0.04067 0.5994 0.79029 0.0
H1160 H 0.993 0.59932 0.78949 0.0
H1161 H 0.99178 0.59166 0.85754 0.0
H1162 H 0.03941 0.59156 0.85853 0.0
H1163 H 1.01504 0.55519 0.87741 0.0
H1164 H 0.04809 0.441 0.806 0.0
H1165 H 0.11171 0.45132 0.80933 0.0
H1166 H 0.09333 0.56382 0.82315 0.0
C1167 C 0.94866 0.53734 0.81753 0.0
C1168 C 0.92457 0.50866 0.81579 0.0
C1169 C 0.93769 0.47395 0.81164 0.0
C1170 C 0.97399 0.46754 0.80957 0.0
C1171 C 0.99704 0.49609 0.81194 0.0
C1172 C 0.9852 0.53032 0.81592 0.0
C1173 C 1.01633 0.55569 0.81942 0.0
C1174 C 0.01685 0.58224 0.78866 0.0
C1175 C 1.01558 0.57464 0.85537 0.0
C1176 C 0.0473 0.53018 0.81705 0.0
C1177 C 0.03519 0.49607 0.81241 0.0
C1178 C 0.058 0.46757 0.80957 0.0
C1179 C 0.09429 0.47387 0.81156 0.0
C1180 C 0.10791 0.50848 0.81662 0.0
C1181 C 0.08391 0.53709 0.81936 0.0
H1182 H 0.47281 0.09397 0.82597 0.0
H1183 H 0.58541 0.1125 0.81132 0.0
H1184 H 0.59562 0.04863 0.80933 0.0
H1185 H 0.4811 0.01789 0.88197 0.0
H1186 H 0.44419 0.99446 0.86297 0.0
H1187 H 0.44489 0.042 0.8626 0.0
H1188 H 0.43687 0.04178 0.79456 0.0
H1189 H 0.43615 0.99421 0.79472 0.0
H1190 H 0.46756 0.01751 0.7674 0.0
H1191 H 0.59499 0.98395 0.81125 0.0
H1192 H 0.5833 0.92031 0.81538 0.0
H1193 H 0.47092 0.941 0.82689 0.0
C1194 C 0.49958 0.08455 0.82229 0.0
C1195 C 0.5283 0.10846 0.81896 0.0
C1196 C 0.56291 0.09496 0.81401 0.0
C1197 C 0.56905 0.05862 0.81281 0.0
C1198 C 0.54035 0.03589 0.8163 0.0
C1199 C 0.50626 0.0481 0.82076 0.0
C1200 C 0.48038 0.01746 0.82397 0.0
C1201 C 0.46153 0.018 0.86003 0.0
C1202 C 0.45366 0.01777 0.79333 0.0
C1203 C 0.50545 0.98629 0.82107 0.0
C1204 C 0.53989 0.99781 0.8167 0.0
C1205 C 0.56815 0.97452 0.8145 0.0
C1206 C 0.5612 0.9384 0.81705 0.0
C1207 C 0.52622 0.92566 0.82157 0.0
C1208 C 0.49788 0.94997 0.8232 0.0
H1209 H 0.47503 0.94005 0.21014 0.0
H1210 H 0.58807 0.91981 0.20778 0.0
H1211 H 0.59981 0.98362 0.20913 0.0
H1212 H 0.4777 0.01622 0.1531 0.0
H1213 H 0.44388 0.04005 0.17668 0.0
H1214 H 0.44375 0.9925 0.17681 0.0
H1215 H 0.44427 0.99245 0.24533 0.0
H1216 H 0.44437 0.04001 0.24542 0.0
H1217 H 0.47853 0.01618 0.26849 0.0
H1218 H 0.60009 0.04846 0.21094 0.0
H1219 H 0.58905 0.11224 0.21092 0.0
H1220 H 0.47571 0.09264 0.21012 0.0
C1221 C 0.50221 0.94912 0.21007 0.0
C1222 C 0.53065 0.92491 0.20877 0.0
C1223 C 0.56585 0.9378 0.20848 0.0
C1224 C 0.57283 0.97402 0.20939 0.0
C1225 C 0.54435 0.99715 0.21039 0.0
C1226 C 0.50973 0.98543 0.21057 0.0
C1227 C 0.48421 0.01636 0.21075 0.0
C1228 C 0.46102 0.01626 0.17734 0.0
C1229 C 0.46151 0.01623 0.24451 0.0
C1230 C 0.51002 0.04713 0.21055 0.0
C1231 C 0.54452 0.03522 0.21062 0.0
C1232 C 0.57321 0.0582 0.21081 0.0
C1233 C 0.56658 0.09446 0.21084 0.0
C1234 C 0.53148 0.1076 0.21039 0.0
C1235 C 0.50282 0.08347 0.21025 0.0
loop_
_geom_bond_atom_site_label_1
_geom_bond_atom_site_label_2
_geom_bond_distance
_geom_bond_site_symmetry_2
_ccdc_geom_bond_type
Fe0 O2 1.918 . S
Fe0 O5 1.997 . S
Fe0 O6 2.002 . S
Fe0 O11 1.976 . S
Fe0 O14 1.996 . S
Fe1 O2 1.918 . S
Fe1 O9 1.997 . S
Fe1 O12 1.996 . S
Fe1 O16 1.976 . S
Fe1 O19 2.002 . S
O2 Fe0 1.918 . S
O2 Fe1 1.918 . S
O2 Fe3 1.918 . S
Fe3 O2 1.918 . S
Fe3 O4 2.002 . S
Fe3 O13 1.976 . S
Fe3 O17 1.996 . S
Fe3 O20 1.997 . S
O4 Fe3 2.002 . S
O4 C21 1.295 . S
O5 Fe0 1.997 . S
O5 C21 1.235 . S
O6 Fe0 2.002 . S
O6 C7 1.295 . S
C7 O6 1.295 . S
C7 O9 1.235 . S
C8 O13 1.287 . S
C8 O14 1.255 . S
O9 Fe1 1.997 . S
O9 C7 1.235 . S
C10 O16 1.287 . S
C10 O17 1.255 . S
O11 Fe0 1.976 . S
O11 C18 1.287 . S
O12 Fe1 1.996 . S
O12 C18 1.255 . S
O13 Fe3 1.976 . S
O13 C8 1.287 . S
O14 Fe0 1.996 . S
O14 C8 1.255 . S
C15 O19 1.295 . S
C15 O20 1.235 . S
O16 Fe1 1.976 . S
O16 C10 1.287 . S
O17 Fe3 1.996 . S
O17 C10 1.255 . S
C18 O11 1.287 . S
C18 O12 1.255 . S
O19 Fe1 2.002 . S
O19 C15 1.295 . S
O20 Fe3 1.997 . S
O20 C15 1.235 . S
C21 O4 1.295 . S
C21 O5 1.235 . S
Fe22 O24 1.918 . S
Fe22 O27 1.997 . S
Fe22 O28 2.002 . S
Fe22 O33 1.976 . S
Fe22 O36 1.996 . S
Fe23 O24 1.918 . S
Fe23 O31 1.997 . S
Fe23 O34 1.996 . S
Fe23 O38 1.976 . S
Fe23 O41 2.002 . S
O24 Fe22 1.918 . S
O24 Fe23 1.918 . S
O24 Fe25 1.918 . S
Fe25 O24 1.918 . S
Fe25 O26 2.002 . S
Fe25 O35 1.976 . S
Fe25 O39 1.996 . S
Fe25 O42 1.997 . S
O26 Fe25 2.002 . S
O26 C43 1.295 . S
O27 Fe22 1.997 . S
O27 C43 1.235 . S
O28 Fe22 2.002 . S
O28 C29 1.295 . S
C29 O28 1.295 . S
C29 O31 1.235 . S
C30 O35 1.287 . S
C30 O36 1.255 . S
O31 Fe23 1.997 . S
O31 C29 1.235 . S
C32 O38 1.287 . S
C32 O39 1.255 . S
O33 Fe22 1.976 . S
O33 C40 1.287 . S
O34 Fe23 1.996 . S
O34 C40 1.255 . S
O35 Fe25 1.976 . S
O35 C30 1.287 . S
O36 Fe22 1.996 . S
O36 C30 1.255 . S
C37 O41 1.295 . S
C37 O42 1.235 . S
O38 Fe23 1.976 . S
O38 C32 1.287 . S
O39 Fe25 1.996 . S
O39 C32 1.255 . S
C40 O33 1.287 . S
C40 O34 1.255 . S
O41 Fe23 2.002 . S
O41 C37 1.295 . S
O42 Fe25 1.997 . S
O42 C37 1.235 . S
C43 O26 1.295 . S
C43 O27 1.235 . S
Fe44 O46 1.918 . S
Fe44 O49 1.997 . S
Fe44 O50 2.002 . S
Fe44 O55 1.976 . S
Fe44 O58 1.996 . S
Fe45 O46 1.918 . S
Fe45 O53 1.997 . S
Fe45 O56 1.996 . S
Fe45 O60 1.976 . S
Fe45 O63 2.002 . S
O46 Fe44 1.918 . S
O46 Fe45 1.918 . S
O46 Fe47 1.918 . S
Fe47 O46 1.918 . S
Fe47 O48 2.002 . S
Fe47 O57 1.976 . S
Fe47 O61 1.996 . S
Fe47 O64 1.997 . S
O48 Fe47 2.002 . S
O48 C65 1.295 . S
O49 Fe44 1.997 . S
O49 C65 1.235 . S
O50 Fe44 2.002 . S
O50 C51 1.295 . S
C51 O50 1.295 . S
C51 O53 1.235 . S
C52 O57 1.287 . S
C52 O58 1.255 . S
O53 Fe45 1.997 . S
O53 C51 1.235 . S
C54 O60 1.287 . S
C54 O61 1.255 . S
O55 Fe44 1.976 . S
O55 C62 1.287 . S
O56 Fe45 1.996 . S
O56 C62 1.255 . S
O57 Fe47 1.976 . S
O57 C52 1.287 . S
O58 Fe44 1.996 . S
O58 C52 1.255 . S
C59 O63 1.295 . S
C59 O64 1.235 . S
O60 Fe45 1.976 . S
O60 C54 1.287 . S
O61 Fe47 1.996 . S
O61 C54 1.255 . S
C62 O55 1.287 . S
C62 O56 1.255 . S
O63 Fe45 2.002 . S
O63 C59 1.295 . S
O64 Fe47 1.997 . S
O64 C59 1.235 . S
C65 O48 1.295 . S
C65 O49 1.235 . S
Fe66 O68 1.918 . S
Fe66 O71 1.997 . S
Fe66 O72 2.002 . S
Fe66 O77 1.976 . S
Fe66 O80 1.996 . S
Fe67 O68 1.918 . S
Fe67 O75 1.997 . S
Fe67 O78 1.996 . S
Fe67 O82 1.976 . S
Fe67 O85 2.002 . S
O68 Fe66 1.918 . S
O68 Fe67 1.918 . S
O68 Fe69 1.918 . S
Fe69 O68 1.918 . S
Fe69 O70 2.002 . S
Fe69 O79 1.976 . S
Fe69 O83 1.996 . S
Fe69 O86 1.997 . S
O70 Fe69 2.002 . S
O70 C87 1.295 . S
O71 Fe66 1.997 . S
O71 C87 1.235 . S
O72 Fe66 2.002 . S
O72 C73 1.295 . S
C73 O72 1.295 . S
C73 O75 1.235 . S
C74 O79 1.287 . S
C74 O80 1.255 . S
O75 Fe67 1.997 . S
O75 C73 1.235 . S
C76 O82 1.287 . S
C76 O83 1.255 . S
O77 Fe66 1.976 . S
O77 C84 1.287 . S
O78 Fe67 1.996 . S
O78 C84 1.255 . S
O79 Fe69 1.976 . S
O79 C74 1.287 . S
O80 Fe66 1.996 . S
O80 C74 1.255 . S
C81 O85 1.295 . S
C81 O86 1.235 . S
O82 Fe67 1.976 . S
O82 C76 1.287 . S
O83 Fe69 1.996 . S
O83 C76 1.255 . S
C84 O77 1.287 . S
C84 O78 1.255 . S
O85 Fe67 2.002 . S
O85 C81 1.295 . S
O86 Fe69 1.997 . S
O86 C81 1.235 . S
C87 O70 1.295 . S
C87 O71 1.235 . S
Fe88 O90 1.918 . S
Fe88 O93 1.997 . S
Fe88 O94 2.002 . S
Fe88 O99 1.976 . S
Fe88 O102 1.996 . S
Fe89 O90 1.918 . S
Fe89 O97 1.997 . S
Fe89 O100 1.996 . S
Fe89 O104 1.976 . S
Fe89 O107 2.002 . S
O90 Fe88 1.918 . S
O90 Fe89 1.918 . S
O90 Fe91 1.918 . S
Fe91 O90 1.918 . S
Fe91 O92 2.002 . S
Fe91 O101 1.976 . S
Fe91 O105 1.996 . S
Fe91 O108 1.997 . S
O92 Fe91 2.002 . S
O92 C109 1.295 . S
O93 Fe88 1.997 . S
O93 C109 1.235 . S
O94 Fe88 2.002 . S
O94 C95 1.295 . S
C95 O94 1.295 . S
C95 O97 1.235 . S
C96 O101 1.287 . S
C96 O102 1.255 . S
O97 Fe89 1.997 . S
O97 C95 1.235 . S
C98 O104 1.287 . S
C98 O105 1.255 . S
O99 Fe88 1.976 . S
O99 C106 1.287 . S
O100 Fe89 1.996 . S
O100 C106 1.255 . S
O101 Fe91 1.976 . S
O101 C96 1.287 . S
O102 Fe88 1.996 . S
O102 C96 1.255 . S
C103 O107 1.295 . S
C103 O108 1.235 . S
O104 Fe89 1.976 . S
O104 C98 1.287 . S
O105 Fe91 1.996 . S
O105 C98 1.255 . S
C106 O99 1.287 . S
C106 O100 1.255 . S
O107 Fe89 2.002 . S
O107 C103 1.295 . S
O108 Fe91 1.997 . S
O108 C103 1.235 . S
C109 O92 1.295 . S
C109 O93 1.235 . S
Fe110 O112 1.918 . S
Fe110 O115 1.997 . S
Fe110 O116 2.002 . S
Fe110 O121 1.976 . S
Fe110 O124 1.996 . S
Fe111 O112 1.918 . S
Fe111 O119 1.997 . S
Fe111 O122 1.996 . S
Fe111 O126 1.976 . S
Fe111 O129 2.002 . S
O112 Fe110 1.918 . S
O112 Fe111 1.918 . S
O112 Fe113 1.918 . S
Fe113 O112 1.918 . S
Fe113 O114 2.002 . S
Fe113 O123 1.976 . S
Fe113 O127 1.996 . S
Fe113 O130 1.997 . S
O114 Fe113 2.002 . S
O114 C131 1.295 . S
O115 Fe110 1.997 . S
O115 C131 1.235 . S
O116 Fe110 2.002 . S
O116 C117 1.295 . S
C117 O116 1.295 . S
C117 O119 1.235 . S
C118 O123 1.287 . S
C118 O124 1.255 . S
O119 Fe111 1.997 . S
O119 C117 1.235 . S
C120 O126 1.287 . S
C120 O127 1.255 . S
O121 Fe110 1.976 . S
O121 C128 1.287 . S
O122 Fe111 1.996 . S
O122 C128 1.255 . S
O123 Fe113 1.976 . S
O123 C118 1.287 . S
O124 Fe110 1.996 . S
O124 C118 1.255 . S
C125 O129 1.295 . S
C125 O130 1.235 . S
O126 Fe111 1.976 . S
O126 C120 1.287 . S
O127 Fe113 1.996 . S
O127 C120 1.255 . S
C128 O121 1.287 . S
C128 O122 1.255 . S
O129 Fe111 2.002 . S
O129 C125 1.295 . S
O130 Fe113 1.997 . S
O130 C125 1.235 . S
C131 O114 1.295 . S
C131 O115 1.235 . S
Fe132 O134 1.918 . S
Fe132 O137 1.997 . S
Fe132 O138 2.002 . S
Fe132 O143 1.976 . S
Fe132 O146 1.996 . S
Fe133 O134 1.918 . S
Fe133 O141 1.997 . S
Fe133 O144 1.996 . S
Fe133 O148 1.976 . S
Fe133 O151 2.002 . S
O134 Fe132 1.918 . S
O134 Fe133 1.918 . S
O134 Fe135 1.918 . S
Fe135 O134 1.918 . S
Fe135 O136 2.002 . S
Fe135 O145 1.976 . S
Fe135 O149 1.996 . S
Fe135 O152 1.997 . S
O136 Fe135 2.002 . S
O136 C153 1.295 . S
O137 Fe132 1.997 . S
O137 C153 1.235 . S
O138 Fe132 2.002 . S
O138 C139 1.295 . S
C139 O138 1.295 . S
C139 O141 1.235 . S
C140 O145 1.287 . S
C140 O146 1.255 . S
O141 Fe133 1.997 . S
O141 C139 1.235 . S
C142 O148 1.287 . S
C142 O149 1.255 . S
O143 Fe132 1.976 . S
O143 C150 1.287 . S
O144 Fe133 1.996 . S
O144 C150 1.255 . S
O145 Fe135 1.976 . S
O145 C140 1.287 . S
O146 Fe132 1.996 . S
O146 C140 1.255 . S
C147 O151 1.295 . S
C147 O152 1.235 . S
O148 Fe133 1.976 . S
O148 C142 1.287 . S
O149 Fe135 1.996 . S
O149 C142 1.255 . S
C150 O143 1.287 . S
C150 O144 1.255 . S
O151 Fe133 2.002 . S
O151 C147 1.295 . S
O152 Fe135 1.997 . S
O152 C147 1.235 . S
C153 O136 1.295 . S
C153 O137 1.235 . S
Fe154 O156 1.918 . S
Fe154 O159 1.997 . S
Fe154 O160 2.002 . S
Fe154 O165 1.976 . S
Fe154 O168 1.996 . S
Fe155 O156 1.918 . S
Fe155 O163 1.997 . S
Fe155 O166 1.996 . S
Fe155 O170 1.976 . S
Fe155 O173 2.002 . S
O156 Fe154 1.918 . S
O156 Fe155 1.918 . S
O156 Fe157 1.918 . S
Fe157 O156 1.918 . S
Fe157 O158 2.002 . S
Fe157 O167 1.976 . S
Fe157 O171 1.996 . S
Fe157 O174 1.997 . S
O158 Fe157 2.002 . S
O158 C175 1.295 . S
O159 Fe154 1.997 . S
O159 C175 1.235 . S
O160 Fe154 2.002 . S
O160 C161 1.295 . S
C161 O160 1.295 . S
C161 O163 1.235 . S
C162 O167 1.287 . S
C162 O168 1.255 . S
O163 Fe155 1.997 . S
O163 C161 1.235 . S
C164 O170 1.287 . S
C164 O171 1.255 . S
O165 Fe154 1.976 . S
O165 C172 1.287 . S
O166 Fe155 1.996 . S
O166 C172 1.255 . S
O167 Fe157 1.976 . S
O167 C162 1.287 . S
O168 Fe154 1.996 . S
O168 C162 1.255 . S
C169 O173 1.295 . S
C169 O174 1.235 . S
O170 Fe155 1.976 . S
O170 C164 1.287 . S
O171 Fe157 1.996 . S
O171 C164 1.255 . S
C172 O165 1.287 . S
C172 O166 1.255 . S
O173 Fe155 2.002 . S
O173 C169 1.295 . S
O174 Fe157 1.997 . S
O174 C169 1.235 . S
C175 O158 1.295 . S
C175 O159 1.235 . S
Fe176 O178 1.918 . S
Fe176 O181 1.997 . S
Fe176 O182 2.002 . S
Fe176 O187 1.976 . S
Fe176 O190 1.996 . S
Fe177 O178 1.918 . S
Fe177 O185 1.997 . S
Fe177 O188 1.996 . S
Fe177 O192 1.976 . S
Fe177 O195 2.002 . S
O178 Fe176 1.918 . S
O178 Fe177 1.918 . S
O178 Fe179 1.918 . S
Fe179 O178 1.918 . S
Fe179 O180 2.002 . S
Fe179 O189 1.976 . S
Fe179 O193 1.996 . S
Fe179 O196 1.997 . S
O180 Fe179 2.002 . S
O180 C197 1.295 . S
O181 Fe176 1.997 . S
O181 C197 1.235 . S
O182 Fe176 2.002 . S
O182 C183 1.295 . S
C183 O182 1.295 . S
C183 O185 1.235 . S
C184 O189 1.287 . S
C184 O190 1.255 . S
O185 Fe177 1.997 . S
O185 C183 1.235 . S
C186 O192 1.287 . S
C186 O193 1.255 . S
O187 Fe176 1.976 . S
O187 C194 1.287 . S
O188 Fe177 1.996 . S
O188 C194 1.255 . S
O189 Fe179 1.976 . S
O189 C184 1.287 . S
O190 Fe176 1.996 . S
O190 C184 1.255 . S
C191 O195 1.295 . S
C191 O196 1.235 . S
O192 Fe177 1.976 . S
O192 C186 1.287 . S
O193 Fe179 1.996 . S
O193 C186 1.255 . S
C194 O187 1.287 . S
C194 O188 1.255 . S
O195 Fe177 2.002 . S
O195 C191 1.295 . S
O196 Fe179 1.997 . S
O196 C191 1.235 . S
C197 O180 1.295 . S
C197 O181 1.235 . S
Fe198 O200 1.918 . S
Fe198 O203 1.997 . S
Fe198 O204 2.002 . S
Fe198 O209 1.976 . S
Fe198 O212 1.996 . S
Fe199 O200 1.918 . S
Fe199 O207 1.997 . S
Fe199 O210 1.996 . S
Fe199 O214 1.976 . S
Fe199 O217 2.002 . S
O200 Fe198 1.918 . S
O200 Fe199 1.918 . S
O200 Fe201 1.918 . S
Fe201 O200 1.918 . S
Fe201 O202 2.002 . S
Fe201 O211 1.976 . S
Fe201 O215 1.996 . S
Fe201 O218 1.997 . S
O202 Fe201 2.002 . S
O202 C219 1.295 . S
O203 Fe198 1.997 . S
O203 C219 1.235 . S
O204 Fe198 2.002 . S
O204 C205 1.295 . S
C205 O204 1.295 . S
C205 O207 1.235 . S
C206 O211 1.287 . S
C206 O212 1.255 . S
O207 Fe199 1.997 . S
O207 C205 1.235 . S
C208 O214 1.287 . S
C208 O215 1.255 . S
O209 Fe198 1.976 . S
O209 C216 1.287 . S
O210 Fe199 1.996 . S
O210 C216 1.255 . S
O211 Fe201 1.976 . S
O211 C206 1.287 . S
O212 Fe198 1.996 . S
O212 C206 1.255 . S
C213 O217 1.295 . S
C213 O218 1.235 . S
O214 Fe199 1.976 . S
O214 C208 1.287 . S
O215 Fe201 1.996 . S
O215 C208 1.255 . S
C216 O209 1.287 . S
C216 O210 1.255 . S
O217 Fe199 2.002 . S
O217 C213 1.295 . S
O218 Fe201 1.997 . S
O218 C213 1.235 . S
C219 O202 1.295 . S
C219 O203 1.235 . S
Fe220 O222 1.918 . S
Fe220 O225 1.997 . S
Fe220 O226 2.002 . S
Fe220 O231 1.976 . S
Fe220 O234 1.996 . S
Fe221 O222 1.918 . S
Fe221 O229 1.997 . S
Fe221 O232 1.996 . S
Fe221 O236 1.976 . S
Fe221 O239 2.002 . S
O222 Fe220 1.918 . S
O222 Fe221 1.918 . S
O222 Fe223 1.918 . S
Fe223 O222 1.918 . S
Fe223 O224 2.002 . S
Fe223 O233 1.976 . S
Fe223 O237 1.996 . S
Fe223 O240 1.997 . S
O224 Fe223 2.002 . S
O224 C241 1.295 . S
O225 Fe220 1.997 . S
O225 C241 1.235 . S
O226 Fe220 2.002 . S
O226 C227 1.295 . S
C227 O226 1.295 . S
C227 O229 1.235 . S
C228 O233 1.287 . S
C228 O234 1.255 . S
O229 Fe221 1.997 . S
O229 C227 1.235 . S
C230 O236 1.287 . S
C230 O237 1.255 . S
O231 Fe220 1.976 . S
O231 C238 1.287 . S
O232 Fe221 1.996 . S
O232 C238 1.255 . S
O233 Fe223 1.976 . S
O233 C228 1.287 . S
O234 Fe220 1.996 . S
O234 C228 1.255 . S
C235 O239 1.295 . S
C235 O240 1.235 . S
O236 Fe221 1.976 . S
O236 C230 1.287 . S
O237 Fe223 1.996 . S
O237 C230 1.255 . S
C238 O231 1.287 . S
C238 O232 1.255 . S
O239 Fe221 2.002 . S
O239 C235 1.295 . S
O240 Fe223 1.997 . S
O240 C235 1.235 . S
C241 O224 1.295 . S
C241 O225 1.235 . S
Fe242 O244 1.918 . S
Fe242 O247 1.997 . S
Fe242 O248 2.002 . S
Fe242 O253 1.976 . S
Fe242 O256 1.996 . S
Fe243 O244 1.918 . S
Fe243 O251 1.997 . S
Fe243 O254 1.996 . S
Fe243 O258 1.976 . S
Fe243 O261 2.002 . S
O244 Fe242 1.918 . S
O244 Fe243 1.918 . S
O244 Fe245 1.918 . S
Fe245 O244 1.918 . S
Fe245 O246 2.002 . S
Fe245 O255 1.976 . S
Fe245 O259 1.996 . S
Fe245 O262 1.997 . S
O246 Fe245 2.002 . S
O246 C263 1.295 . S
O247 Fe242 1.997 . S
O247 C263 1.235 . S
O248 Fe242 2.002 . S
O248 C249 1.295 . S
C249 O248 1.295 . S
C249 O251 1.235 . S
C250 O255 1.287 . S
C250 O256 1.255 . S
O251 Fe243 1.997 . S
O251 C249 1.235 . S
C252 O258 1.287 . S
C252 O259 1.255 . S
O253 Fe242 1.976 . S
O253 C260 1.287 . S
O254 Fe243 1.996 . S
O254 C260 1.255 . S
O255 Fe245 1.976 . S
O255 C250 1.287 . S
O256 Fe242 1.996 . S
O256 C250 1.255 . S
C257 O261 1.295 . S
C257 O262 1.235 . S
O258 Fe243 1.976 . S
O258 C252 1.287 . S
O259 Fe245 1.996 . S
O259 C252 1.255 . S
C260 O253 1.287 . S
C260 O254 1.255 . S
O261 Fe243 2.002 . S
O261 C257 1.295 . S
O262 Fe245 1.997 . S
O262 C257 1.235 . S
C263 O246 1.295 . S
C263 O247 1.235 . S
H264 C276 0.930 . S
H265 C278 0.930 . S
H266 C279 0.930 . S
H267 C283 0.959 . S
H268 C283 0.959 . S
H269 C283 0.961 . S
H270 C284 0.960 . S
H271 C284 0.961 . S
H272 C284 0.959 . S
H273 C287 0.929 . S
H274 C288 0.931 . S
H275 C290 0.930 . S
C276 H264 0.930 . S
C276 C277 1.399 . S
C276 C281 1.399 . S
C277 C276 1.399 . S
C277 C278 1.376 . S
C278 H265 0.930 . S
C278 C277 1.376 . S
C278 C279 1.388 . S
C279 H266 0.930 . S
C279 C278 1.388 . S
C279 C280 1.390 . S
C280 C279 1.390 . S
C280 C281 1.394 . S
C280 C286 1.465 . S
C281 C276 1.399 . S
C281 C280 1.394 . S
C281 C282 1.516 . S
C282 C281 1.516 . S
C282 C283 1.502 . S
C282 C284 1.561 . S
C282 C285 1.526 . S
C283 H267 0.959 . S
C283 H268 0.959 . S
C283 H269 0.961 . S
C283 C282 1.502 . S
C284 H270 0.960 . S
C284 H271 0.961 . S
C284 H272 0.959 . S
C284 C282 1.561 . S
C285 C282 1.526 . S
C285 C286 1.396 . S
C285 C290 1.390 . S
C286 C280 1.465 . S
C286 C285 1.396 . S
C286 C287 1.399 . S
C287 H273 0.929 . S
C287 C286 1.399 . S
C287 C288 1.385 . S
C288 H274 0.931 . S
C288 C287 1.385 . S
C288 C289 1.389 . S
C289 C288 1.389 . S
C289 C290 1.387 . S
C290 H275 0.930 . S
C290 C285 1.390 . S
C290 C289 1.387 . S
H291 C303 0.930 . S
H292 C305 0.930 . S
H293 C306 0.930 . S
H294 C310 0.959 . S
H295 C310 0.959 . S
H296 C310 0.961 . S
H297 C311 0.960 . S
H298 C311 0.961 . S
H299 C311 0.959 . S
H300 C314 0.929 . S
H301 C315 0.931 . S
H302 C317 0.930 . S
C303 H291 0.930 . S
C303 C304 1.399 . S
C303 C308 1.399 . S
C304 C303 1.399 . S
C304 C305 1.376 . S
C305 H292 0.930 . S
C305 C304 1.376 . S
C305 C306 1.388 . S
C306 H293 0.930 . S
C306 C305 1.388 . S
C306 C307 1.390 . S
C307 C306 1.390 . S
C307 C308 1.394 . S
C307 C313 1.465 . S
C308 C303 1.399 . S
C308 C307 1.394 . S
C308 C309 1.516 . S
C309 C308 1.516 . S
C309 C310 1.502 . S
C309 C311 1.561 . S
C309 C312 1.526 . S
C310 H294 0.959 . S
C310 H295 0.959 . S
C310 H296 0.961 . S
C310 C309 1.502 . S
C311 H297 0.960 . S
C311 H298 0.961 . S
C311 H299 0.959 . S
C311 C309 1.561 . S
C312 C309 1.526 . S
C312 C313 1.396 . S
C312 C317 1.390 . S
C313 C307 1.465 . S
C313 C312 1.396 . S
C313 C314 1.399 . S
C314 H300 0.929 . S
C314 C313 1.399 . S
C314 C315 1.385 . S
C315 H301 0.931 . S
C315 C314 1.385 . S
C315 C316 1.389 . S
C316 C315 1.389 . S
C316 C317 1.387 . S
C317 H302 0.930 . S
C317 C312 1.390 . S
C317 C316 1.387 . S
H318 C330 0.930 . S
H319 C332 0.930 . S
H320 C333 0.930 . S
H321 C337 0.959 . S
H322 C337 0.959 . S
H323 C337 0.961 . S
H324 C338 0.960 . S
H325 C338 0.961 . S
H326 C338 0.959 . S
H327 C341 0.929 . S
H328 C342 0.931 . S
H329 C344 0.930 . S
C330 H318 0.930 . S
C330 C331 1.399 . S
C330 C335 1.399 . S
C331 C330 1.399 . S
C331 C332 1.376 . S
C332 H319 0.930 . S
C332 C331 1.376 . S
C332 C333 1.388 . S
C333 H320 0.930 . S
C333 C332 1.388 . S
C333 C334 1.390 . S
C334 C333 1.390 . S
C334 C335 1.394 . S
C334 C340 1.465 . S
C335 C330 1.399 . S
C335 C334 1.394 . S
C335 C336 1.516 . S
C336 C335 1.516 . S
C336 C337 1.502 . S
C336 C338 1.561 . S
C336 C339 1.526 . S
C337 H321 0.959 . S
C337 H322 0.959 . S
C337 H323 0.961 . S
C337 C336 1.502 . S
C338 H324 0.960 . S
C338 H325 0.961 . S
C338 H326 0.959 . S
C338 C336 1.561 . S
C339 C336 1.526 . S
C339 C340 1.396 . S
C339 C344 1.390 . S
C340 C334 1.465 . S
C340 C339 1.396 . S
C340 C341 1.399 . S
C341 H327 0.929 . S
C341 C340 1.399 . S
C341 C342 1.385 . S
C342 H328 0.931 . S
C342 C341 1.385 . S
C342 C343 1.389 . S
C343 C342 1.389 . S
C343 C344 1.387 . S
C344 H329 0.930 . S
C344 C339 1.390 . S
C344 C343 1.387 . S
H345 C357 0.930 . S
H346 C359 0.930 . S
H347 C360 0.930 . S
H348 C364 0.959 . S
H349 C364 0.959 . S
H350 C364 0.961 . S
H351 C365 0.960 . S
H352 C365 0.961 . S
H353 C365 0.959 . S
H354 C368 0.929 . S
H355 C369 0.931 . S
H356 C371 0.930 . S
C357 H345 0.930 . S
C357 C358 1.399 . S
C357 C362 1.399 . S
C358 C357 1.399 . S
C358 C359 1.376 . S
C359 H346 0.930 . S
C359 C358 1.376 . S
C359 C360 1.388 . S
C360 H347 0.930 . S
C360 C359 1.388 . S
C360 C361 1.390 . S
C361 C360 1.390 . S
C361 C362 1.394 . S
C361 C367 1.465 . S
C362 C357 1.399 . S
C362 C361 1.394 . S
C362 C363 1.516 . S
C363 C362 1.516 . S
C363 C364 1.502 . S
C363 C365 1.561 . S
C363 C366 1.526 . S
C364 H348 0.959 . S
C364 H349 0.959 . S
C364 H350 0.961 . S
C364 C363 1.502 . S
C365 H351 0.960 . S
C365 H352 0.961 . S
C365 H353 0.959 . S
C365 C363 1.561 . S
C366 C363 1.526 . S
C366 C367 1.396 . S
C366 C371 1.390 . S
C367 C361 1.465 . S
C367 C366 1.396 . S
C367 C368 1.399 . S
C368 H354 0.929 . S
C368 C367 1.399 . S
C368 C369 1.385 . S
C369 H355 0.931 . S
C369 C368 1.385 . S
C369 C370 1.389 . S
C370 C369 1.389 . S
C370 C371 1.387 . S
C371 H356 0.930 . S
C371 C366 1.390 . S
C371 C370 1.387 . S
H372 C384 0.930 . S
H373 C386 0.930 . S
H374 C387 0.930 . S
H375 C391 0.959 . S
H376 C391 0.959 . S
H377 C391 0.961 . S
H378 C392 0.960 . S
H379 C392 0.961 . S
H380 C392 0.959 . S
H381 C395 0.929 . S
H382 C396 0.931 . S
H383 C398 0.930 . S
C384 H372 0.930 . S
C384 C385 1.399 . S
C384 C389 1.399 . S
C385 C384 1.399 . S
C385 C386 1.376 . S
C386 H373 0.930 . S
C386 C385 1.376 . S
C386 C387 1.388 . S
C387 H374 0.930 . S
C387 C386 1.388 . S
C387 C388 1.390 . S
C388 C387 1.390 . S
C388 C389 1.394 . S
C388 C394 1.465 . S
C389 C384 1.399 . S
C389 C388 1.394 . S
C389 C390 1.516 . S
C390 C389 1.516 . S
C390 C391 1.502 . S
C390 C392 1.561 . S
C390 C393 1.526 . S
C391 H375 0.959 . S
C391 H376 0.959 . S
C391 H377 0.961 . S
C391 C390 1.502 . S
C392 H378 0.960 . S
C392 H379 0.961 . S
C392 H380 0.959 . S
C392 C390 1.561 . S
C393 C390 1.526 . S
C393 C394 1.396 . S
C393 C398 1.390 . S
C394 C388 1.465 . S
C394 C393 1.396 . S
C394 C395 1.399 . S
C395 H381 0.929 . S
C395 C394 1.399 . S
C395 C396 1.385 . S
C396 H382 0.931 . S
C396 C395 1.385 . S
C396 C397 1.389 . S
C397 C396 1.389 . S
C397 C398 1.387 . S
C398 H383 0.930 . S
C398 C393 1.390 . S
C398 C397 1.387 . S
H399 C411 0.930 . S
H400 C413 0.930 . S
H401 C414 0.930 . S
H402 C418 0.959 . S
H403 C418 0.959 . S
H404 C418 0.961 . S
H405 C419 0.960 . S
H406 C419 0.961 . S
H407 C419 0.959 . S
H408 C422 0.929 . S
H409 C423 0.931 . S
H410 C425 0.930 . S
C411 H399 0.930 . S
C411 C412 1.399 . S
C411 C416 1.399 . S
C412 C411 1.399 . S
C412 C413 1.376 . S
C413 H400 0.930 . S
C413 C412 1.376 . S
C413 C414 1.388 . S
C414 H401 0.930 . S
C414 C413 1.388 . S
C414 C415 1.390 . S
C415 C414 1.390 . S
C415 C416 1.394 . S
C415 C421 1.465 . S
C416 C411 1.399 . S
C416 C415 1.394 . S
C416 C417 1.516 . S
C417 C416 1.516 . S
C417 C418 1.502 . S
C417 C419 1.561 . S
C417 C420 1.526 . S
C418 H402 0.959 . S
C418 H403 0.959 . S
C418 H404 0.961 . S
C418 C417 1.502 . S
C419 H405 0.960 . S
C419 H406 0.961 . S
C419 H407 0.959 . S
C419 C417 1.561 . S
C420 C417 1.526 . S
C420 C421 1.396 . S
C420 C425 1.390 . S
C421 C415 1.465 . S
C421 C420 1.396 . S
C421 C422 1.399 . S
C422 H408 0.929 . S
C422 C421 1.399 . S
C422 C423 1.385 . S
C423 H409 0.931 . S
C423 C422 1.385 . S
C423 C424 1.389 . S
C424 C423 1.389 . S
C424 C425 1.387 . S
C425 H410 0.930 . S
C425 C420 1.390 . S
C425 C424 1.387 . S
H426 C438 0.930 . S
H427 C440 0.930 . S
H428 C441 0.930 . S
H429 C445 0.959 . S
H430 C445 0.959 . S
H431 C445 0.961 . S
H432 C446 0.960 . S
H433 C446 0.961 . S
H434 C446 0.959 . S
H435 C449 0.929 . S
H436 C450 0.931 . S
H437 C452 0.930 . S
C438 H426 0.930 . S
C438 C439 1.399 . S
C438 C443 1.399 . S
C439 C438 1.399 . S
C439 C440 1.376 . S
C440 H427 0.930 . S
C440 C439 1.376 . S
C440 C441 1.388 . S
C441 H428 0.930 . S
C441 C440 1.388 . S
C441 C442 1.390 . S
C442 C441 1.390 . S
C442 C443 1.394 . S
C442 C448 1.465 . S
C443 C438 1.399 . S
C443 C442 1.394 . S
C443 C444 1.516 . S
C444 C443 1.516 . S
C444 C445 1.502 . S
C444 C446 1.561 . S
C444 C447 1.526 . S
C445 H429 0.959 . S
C445 H430 0.959 . S
C445 H431 0.961 . S
C445 C444 1.502 . S
C446 H432 0.960 . S
C446 H433 0.961 . S
C446 H434 0.959 . S
C446 C444 1.561 . S
C447 C444 1.526 . S
C447 C448 1.396 . S
C447 C452 1.390 . S
C448 C442 1.465 . S
C448 C447 1.396 . S
C448 C449 1.399 . S
C449 H435 0.929 . S
C449 C448 1.399 . S
C449 C450 1.385 . S
C450 H436 0.931 . S
C450 C449 1.385 . S
C450 C451 1.389 . S
C451 C450 1.389 . S
C451 C452 1.387 . S
C452 H437 0.930 . S
C452 C447 1.390 . S
C452 C451 1.387 . S
H453 C465 0.930 . S
H454 C467 0.930 . S
H455 C468 0.930 . S
H456 C472 0.959 . S
H457 C472 0.959 . S
H458 C472 0.961 . S
H459 C473 0.960 . S
H460 C473 0.961 . S
H461 C473 0.959 . S
H462 C476 0.929 . S
H463 C477 0.931 . S
H464 C479 0.930 . S
C465 H453 0.930 . S
C465 C466 1.399 . S
C465 C470 1.399 . S
C466 C465 1.399 . S
C466 C467 1.376 . S
C467 H454 0.930 . S
C467 C466 1.376 . S
C467 C468 1.388 . S
C468 H455 0.930 . S
C468 C467 1.388 . S
C468 C469 1.390 . S
C469 C468 1.390 . S
C469 C470 1.394 . S
C469 C475 1.465 . S
C470 C465 1.399 . S
C470 C469 1.394 . S
C470 C471 1.516 . S
C471 C470 1.516 . S
C471 C472 1.502 . S
C471 C473 1.561 . S
C471 C474 1.526 . S
C472 H456 0.959 . S
C472 H457 0.959 . S
C472 H458 0.961 . S
C472 C471 1.502 . S
C473 H459 0.960 . S
C473 H460 0.961 . S
C473 H461 0.959 . S
C473 C471 1.561 . S
C474 C471 1.526 . S
C474 C475 1.396 . S
C474 C479 1.390 . S
C475 C469 1.465 . S
C475 C474 1.396 . S
C475 C476 1.399 . S
C476 H462 0.929 . S
C476 C475 1.399 . S
C476 C477 1.385 . S
C477 H463 0.931 . S
C477 C476 1.385 . S
C477 C478 1.389 . S
C478 C477 1.389 . S
C478 C479 1.387 . S
C479 H464 0.930 . S
C479 C474 1.390 . S
C479 C478 1.387 . S
H480 C492 0.930 . S
H481 C494 0.930 . S
H482 C495 0.930 . S
H483 C499 0.959 . S
H484 C499 0.959 . S
H485 C499 0.961 . S
H486 C500 0.960 . S
H487 C500 0.961 . S
H488 C500 0.959 . S
H489 C503 0.929 . S
H490 C504 0.931 . S
H491 C506 0.930 . S
C492 H480 0.930 . S
C492 C493 1.399 . S
C492 C497 1.399 . S
C493 C492 1.399 . S
C493 C494 1.376 . S
C494 H481 0.930 . S
C494 C493 1.376 . S
C494 C495 1.388 . S
C495 H482 0.930 . S
C495 C494 1.388 . S
C495 C496 1.390 . S
C496 C495 1.390 . S
C496 C497 1.394 . S
C496 C502 1.465 . S
C497 C492 1.399 . S
C497 C496 1.394 . S
C497 C498 1.516 . S
C498 C497 1.516 . S
C498 C499 1.502 . S
C498 C500 1.561 . S
C498 C501 1.526 . S
C499 H483 0.959 . S
C499 H484 0.959 . S
C499 H485 0.961 . S
C499 C498 1.502 . S
C500 H486 0.960 . S
C500 H487 0.961 . S
C500 H488 0.959 . S
C500 C498 1.561 . S
C501 C498 1.526 . S
C501 C502 1.396 . S
C501 C506 1.390 . S
C502 C496 1.465 . S
C502 C501 1.396 . S
C502 C503 1.399 . S
C503 H489 0.929 . S
C503 C502 1.399 . S
C503 C504 1.385 . S
C504 H490 0.931 . S
C504 C503 1.385 . S
C504 C505 1.389 . S
C505 C504 1.389 . S
C505 C506 1.387 . S
C506 H491 0.930 . S
C506 C501 1.390 . S
C506 C505 1.387 . S
H507 C519 0.930 . S
H508 C521 0.930 . S
H509 C522 0.930 . S
H510 C526 0.959 . S
H511 C526 0.959 . S
H512 C526 0.961 . S
H513 C527 0.960 . S
H514 C527 0.961 . S
H515 C527 0.959 . S
H516 C530 0.929 . S
H517 C531 0.931 . S
H518 C533 0.930 . S
C519 H507 0.930 . S
C519 C520 1.399 . S
C519 C524 1.399 . S
C520 C519 1.399 . S
C520 C521 1.376 . S
C521 H508 0.930 . S
C521 C520 1.376 . S
C521 C522 1.388 . S
C522 H509 0.930 . S
C522 C521 1.388 . S
C522 C523 1.390 . S
C523 C522 1.390 . S
C523 C524 1.394 . S
C523 C529 1.465 . S
C524 C519 1.399 . S
C524 C523 1.394 . S
C524 C525 1.516 . S
C525 C524 1.516 . S
C525 C526 1.502 . S
C525 C527 1.561 . S
C525 C528 1.526 . S
C526 H510 0.959 . S
C526 H511 0.959 . S
C526 H512 0.961 . S
C526 C525 1.502 . S
C527 H513 0.960 . S
C527 H514 0.961 . S
C527 H515 0.959 . S
C527 C525 1.561 . S
C528 C525 1.526 . S
C528 C529 1.396 . S
C528 C533 1.390 . S
C529 C523 1.465 . S
C529 C528 1.396 . S
C529 C530 1.399 . S
C530 H516 0.929 . S
C530 C529 1.399 . S
C530 C531 1.385 . S
C531 H517 0.931 . S
C531 C530 1.385 . S
C531 C532 1.389 . S
C532 C531 1.389 . S
C532 C533 1.387 . S
C533 H518 0.930 . S
C533 C528 1.390 . S
C533 C532 1.387 . S
H534 C546 0.930 . S
H535 C548 0.930 . S
H536 C549 0.930 . S
H537 C553 0.959 . S
H538 C553 0.959 . S
H539 C553 0.961 . S
H540 C554 0.960 . S
H541 C554 0.961 . S
H542 C554 0.959 . S
H543 C557 0.929 . S
H544 C558 0.931 . S
H545 C560 0.930 . S
C546 H534 0.930 . S
C546 C547 1.399 . S
C546 C551 1.399 . S
C547 C546 1.399 . S
C547 C548 1.376 . S
C548 H535 0.930 . S
C548 C547 1.376 . S
C548 C549 1.388 . S
C549 H536 0.930 . S
C549 C548 1.388 . S
C549 C550 1.390 . S
C550 C549 1.390 . S
C550 C551 1.394 . S
C550 C556 1.465 . S
C551 C546 1.399 . S
C551 C550 1.394 . S
C551 C552 1.516 . S
C552 C551 1.516 . S
C552 C553 1.502 . S
C552 C554 1.561 . S
C552 C555 1.526 . S
C553 H537 0.959 . S
C553 H538 0.959 . S
C553 H539 0.961 . S
C553 C552 1.502 . S
C554 H540 0.960 . S
C554 H541 0.961 . S
C554 H542 0.959 . S
C554 C552 1.561 . S
C555 C552 1.526 . S
C555 C556 1.396 . S
C555 C560 1.390 . S
C556 C550 1.465 . S
C556 C555 1.396 . S
C556 C557 1.399 . S
C557 H543 0.929 . S
C557 C556 1.399 . S
C557 C558 1.385 . S
C558 H544 0.931 . S
C558 C557 1.385 . S
C558 C559 1.389 . S
C559 C558 1.389 . S
C559 C560 1.387 . S
C560 H545 0.930 . S
C560 C555 1.390 . S
C560 C559 1.387 . S
H561 C573 0.930 . S
H562 C575 0.930 . S
H563 C576 0.930 . S
H564 C580 0.959 . S
H565 C580 0.959 . S
H566 C580 0.961 . S
H567 C581 0.960 . S
H568 C581 0.961 . S
H569 C581 0.959 . S
H570 C584 0.929 . S
H571 C585 0.931 . S
H572 C587 0.930 . S
C573 H561 0.930 . S
C573 C574 1.399 . S
C573 C578 1.399 . S
C574 C573 1.399 . S
C574 C575 1.376 . S
C575 H562 0.930 . S
C575 C574 1.376 . S
C575 C576 1.388 . S
C576 H563 0.930 . S
C576 C575 1.388 . S
C576 C577 1.390 . S
C577 C576 1.390 . S
C577 C578 1.394 . S
C577 C583 1.465 . S
C578 C573 1.399 . S
C578 C577 1.394 . S
C578 C579 1.516 . S
C579 C578 1.516 . S
C579 C580 1.502 . S
C579 C581 1.561 . S
C579 C582 1.526 . S
C580 H564 0.959 . S
C580 H565 0.959 . S
C580 H566 0.961 . S
C580 C579 1.502 . S
C581 H567 0.960 . S
C581 H568 0.961 . S
C581 H569 0.959 . S
C581 C579 1.561 . S
C582 C579 1.526 . S
C582 C583 1.396 . S
C582 C587 1.390 . S
C583 C577 1.465 . S
C583 C582 1.396 . S
C583 C584 1.399 . S
C584 H570 0.929 . S
C584 C583 1.399 . S
C584 C585 1.385 . S
C585 H571 0.931 . S
C585 C584 1.385 . S
C585 C586 1.389 . S
C586 C585 1.389 . S
C586 C587 1.387 . S
C587 H572 0.930 . S
C587 C582 1.390 . S
C587 C586 1.387 . S
H588 C600 0.930 . S
H589 C602 0.930 . S
H590 C603 0.930 . S
H591 C607 0.959 . S
H592 C607 0.959 . S
H593 C607 0.961 . S
H594 C608 0.960 . S
H595 C608 0.961 . S
H596 C608 0.959 . S
H597 C611 0.929 . S
H598 C612 0.931 . S
H599 C614 0.930 . S
C600 H588 0.930 . S
C600 C601 1.399 . S
C600 C605 1.399 . S
C601 C600 1.399 . S
C601 C602 1.376 . S
C602 H589 0.930 . S
C602 C601 1.376 . S
C602 C603 1.388 . S
C603 H590 0.930 . S
C603 C602 1.388 . S
C603 C604 1.390 . S
C604 C603 1.390 . S
C604 C605 1.394 . S
C604 C610 1.465 . S
C605 C600 1.399 . S
C605 C604 1.394 . S
C605 C606 1.516 . S
C606 C605 1.516 . S
C606 C607 1.502 . S
C606 C608 1.561 . S
C606 C609 1.526 . S
C607 H591 0.959 . S
C607 H592 0.959 . S
C607 H593 0.961 . S
C607 C606 1.502 . S
C608 H594 0.960 . S
C608 H595 0.961 . S
C608 H596 0.959 . S
C608 C606 1.561 . S
C609 C606 1.526 . S
C609 C610 1.396 . S
C609 C614 1.390 . S
C610 C604 1.465 . S
C610 C609 1.396 . S
C610 C611 1.399 . S
C611 H597 0.929 . S
C611 C610 1.399 . S
C611 C612 1.385 . S
C612 H598 0.931 . S
C612 C611 1.385 . S
C612 C613 1.389 . S
C613 C612 1.389 . S
C613 C614 1.387 . S
C614 H599 0.930 . S
C614 C609 1.390 . S
C614 C613 1.387 . S
H615 C627 0.930 . S
H616 C629 0.930 . S
H617 C630 0.930 . S
H618 C634 0.959 . S
H619 C634 0.959 . S
H620 C634 0.961 . S
H621 C635 0.960 . S
H622 C635 0.961 . S
H623 C635 0.959 . S
H624 C638 0.929 . S
H625 C639 0.931 . S
H626 C641 0.930 . S
C627 H615 0.930 . S
C627 C628 1.399 . S
C627 C632 1.399 . S
C628 C627 1.399 . S
C628 C629 1.376 . S
C629 H616 0.930 . S
C629 C628 1.376 . S
C629 C630 1.388 . S
C630 H617 0.930 . S
C630 C629 1.388 . S
C630 C631 1.390 . S
C631 C630 1.390 . S
C631 C632 1.394 . S
C631 C637 1.465 . S
C632 C627 1.399 . S
C632 C631 1.394 . S
C632 C633 1.516 . S
C633 C632 1.516 . S
C633 C634 1.502 . S
C633 C635 1.561 . S
C633 C636 1.526 . S
C634 H618 0.959 . S
C634 H619 0.959 . S
C634 H620 0.961 . S
C634 C633 1.502 . S
C635 H621 0.960 . S
C635 H622 0.961 . S
C635 H623 0.959 . S
C635 C633 1.561 . S
C636 C633 1.526 . S
C636 C637 1.396 . S
C636 C641 1.390 . S
C637 C631 1.465 . S
C637 C636 1.396 . S
C637 C638 1.399 . S
C638 H624 0.929 . S
C638 C637 1.399 . S
C638 C639 1.385 . S
C639 H625 0.931 . S
C639 C638 1.385 . S
C639 C640 1.389 . S
C640 C639 1.389 . S
C640 C641 1.387 . S
C641 H626 0.930 . S
C641 C636 1.390 . S
C641 C640 1.387 . S
H642 C654 0.930 . S
H643 C656 0.930 . S
H644 C657 0.930 . S
H645 C661 0.959 . S
H646 C661 0.959 . S
H647 C661 0.961 . S
H648 C662 0.960 . S
H649 C662 0.961 . S
H650 C662 0.959 . S
H651 C665 0.929 . S
H652 C666 0.931 . S
H653 C668 0.930 . S
C654 H642 0.930 . S
C654 C655 1.399 . S
C654 C659 1.399 . S
C655 C654 1.399 . S
C655 C656 1.376 . S
C656 H643 0.930 . S
C656 C655 1.376 . S
C656 C657 1.388 . S
C657 H644 0.930 . S
C657 C656 1.388 . S
C657 C658 1.390 . S
C658 C657 1.390 . S
C658 C659 1.394 . S
C658 C664 1.465 . S
C659 C654 1.399 . S
C659 C658 1.394 . S
C659 C660 1.516 . S
C660 C659 1.516 . S
C660 C661 1.502 . S
C660 C662 1.561 . S
C660 C663 1.526 . S
C661 H645 0.959 . S
C661 H646 0.959 . S
C661 H647 0.961 . S
C661 C660 1.502 . S
C662 H648 0.960 . S
C662 H649 0.961 . S
C662 H650 0.959 . S
C662 C660 1.561 . S
C663 C660 1.526 . S
C663 C664 1.396 . S
C663 C668 1.390 . S
C664 C658 1.465 . S
C664 C663 1.396 . S
C664 C665 1.399 . S
C665 H651 0.929 . S
C665 C664 1.399 . S
C665 C666 1.385 . S
C666 H652 0.931 . S
C666 C665 1.385 . S
C666 C667 1.389 . S
C667 C666 1.389 . S
C667 C668 1.387 . S
C668 H653 0.930 . S
C668 C663 1.390 . S
C668 C667 1.387 . S
H669 C681 0.930 . S
H670 C683 0.930 . S
H671 C684 0.930 . S
H672 C688 0.959 . S
H673 C688 0.959 . S
H674 C688 0.961 . S
H675 C689 0.960 . S
H676 C689 0.961 . S
H677 C689 0.959 . S
H678 C692 0.929 . S
H679 C693 0.931 . S
H680 C695 0.930 . S
C681 H669 0.930 . S
C681 C682 1.399 . S
C681 C686 1.399 . S
C682 C681 1.399 . S
C682 C683 1.376 . S
C683 H670 0.930 . S
C683 C682 1.376 . S
C683 C684 1.388 . S
C684 H671 0.930 . S
C684 C683 1.388 . S
C684 C685 1.390 . S
C685 C684 1.390 . S
C685 C686 1.394 . S
C685 C691 1.465 . S
C686 C681 1.399 . S
C686 C685 1.394 . S
C686 C687 1.516 . S
C687 C686 1.516 . S
C687 C688 1.502 . S
C687 C689 1.561 . S
C687 C690 1.526 . S
C688 H672 0.959 . S
C688 H673 0.959 . S
C688 H674 0.961 . S
C688 C687 1.502 . S
C689 H675 0.960 . S
C689 H676 0.961 . S
C689 H677 0.959 . S
C689 C687 1.561 . S
C690 C687 1.526 . S
C690 C691 1.396 . S
C690 C695 1.390 . S
C691 C685 1.465 . S
C691 C690 1.396 . S
C691 C692 1.399 . S
C692 H678 0.929 . S
C692 C691 1.399 . S
C692 C693 1.385 . S
C693 H679 0.931 . S
C693 C692 1.385 . S
C693 C694 1.389 . S
C694 C693 1.389 . S
C694 C695 1.387 . S
C695 H680 0.930 . S
C695 C690 1.390 . S
C695 C694 1.387 . S
H696 C708 0.930 . S
H697 C710 0.930 . S
H698 C711 0.930 . S
H699 C715 0.959 . S
H700 C715 0.959 . S
H701 C715 0.961 . S
H702 C716 0.960 . S
H703 C716 0.961 . S
H704 C716 0.959 . S
H705 C719 0.929 . S
H706 C720 0.931 . S
H707 C722 0.930 . S
C708 H696 0.930 . S
C708 C709 1.399 . S
C708 C713 1.399 . S
C709 C708 1.399 . S
C709 C710 1.376 . S
C710 H697 0.930 . S
C710 C709 1.376 . S
C710 C711 1.388 . S
C711 H698 0.930 . S
C711 C710 1.388 . S
C711 C712 1.390 . S
C712 C711 1.390 . S
C712 C713 1.394 . S
C712 C718 1.465 . S
C713 C708 1.399 . S
C713 C712 1.394 . S
C713 C714 1.516 . S
C714 C713 1.516 . S
C714 C715 1.502 . S
C714 C716 1.561 . S
C714 C717 1.526 . S
C715 H699 0.959 . S
C715 H700 0.959 . S
C715 H701 0.961 . S
C715 C714 1.502 . S
C716 H702 0.960 . S
C716 H703 0.961 . S
C716 H704 0.959 . S
C716 C714 1.561 . S
C717 C714 1.526 . S
C717 C718 1.396 . S
C717 C722 1.390 . S
C718 C712 1.465 . S
C718 C717 1.396 . S
C718 C719 1.399 . S
C719 H705 0.929 . S
C719 C718 1.399 . S
C719 C720 1.385 . S
C720 H706 0.931 . S
C720 C719 1.385 . S
C720 C721 1.389 . S
C721 C720 1.389 . S
C721 C722 1.387 . S
C722 H707 0.930 . S
C722 C717 1.390 . S
C722 C721 1.387 . S
H723 C735 0.930 . S
H724 C737 0.930 . S
H725 C738 0.930 . S
H726 C742 0.959 . S
H727 C742 0.959 . S
H728 C742 0.961 . S
H729 C743 0.960 . S
H730 C743 0.961 . S
H731 C743 0.959 . S
H732 C746 0.929 . S
H733 C747 0.931 . S
H734 C749 0.930 . S
C735 H723 0.930 . S
C735 C736 1.399 . S
C735 C740 1.399 . S
C736 C735 1.399 . S
C736 C737 1.376 . S
C737 H724 0.930 . S
C737 C736 1.376 . S
C737 C738 1.388 . S
C738 H725 0.930 . S
C738 C737 1.388 . S
C738 C739 1.390 . S
C739 C738 1.390 . S
C739 C740 1.394 . S
C739 C745 1.465 . S
C740 C735 1.399 . S
C740 C739 1.394 . S
C740 C741 1.516 . S
C741 C740 1.516 . S
C741 C742 1.502 . S
C741 C743 1.561 . S
C741 C744 1.526 . S
C742 H726 0.959 . S
C742 H727 0.959 . S
C742 H728 0.961 . S
C742 C741 1.502 . S
C743 H729 0.960 . S
C743 H730 0.961 . S
C743 H731 0.959 . S
C743 C741 1.561 . S
C744 C741 1.526 . S
C744 C745 1.396 . S
C744 C749 1.390 . S
C745 C739 1.465 . S
C745 C744 1.396 . S
C745 C746 1.399 . S
C746 H732 0.929 . S
C746 C745 1.399 . S
C746 C747 1.385 . S
C747 H733 0.931 . S
C747 C746 1.385 . S
C747 C748 1.389 . S
C748 C747 1.389 . S
C748 C749 1.387 . S
C749 H734 0.930 . S
C749 C744 1.390 . S
C749 C748 1.387 . S
H750 C762 0.930 . S
H751 C764 0.930 . S
H752 C765 0.930 . S
H753 C769 0.959 . S
H754 C769 0.959 . S
H755 C769 0.961 . S
H756 C770 0.960 . S
H757 C770 0.961 . S
H758 C770 0.959 . S
H759 C773 0.929 . S
H760 C774 0.931 . S
H761 C776 0.930 . S
C762 H750 0.930 . S
C762 C763 1.399 . S
C762 C767 1.399 . S
C763 C762 1.399 . S
C763 C764 1.376 . S
C764 H751 0.930 . S
C764 C763 1.376 . S
C764 C765 1.388 . S
C765 H752 0.930 . S
C765 C764 1.388 . S
C765 C766 1.390 . S
C766 C765 1.390 . S
C766 C767 1.394 . S
C766 C772 1.465 . S
C767 C762 1.399 . S
C767 C766 1.394 . S
C767 C768 1.516 . S
C768 C767 1.516 . S
C768 C769 1.502 . S
C768 C770 1.561 . S
C768 C771 1.526 . S
C769 H753 0.959 . S
C769 H754 0.959 . S
C769 H755 0.961 . S
C769 C768 1.502 . S
C770 H756 0.960 . S
C770 H757 0.961 . S
C770 H758 0.959 . S
C770 C768 1.561 . S
C771 C768 1.526 . S
C771 C772 1.396 . S
C771 C776 1.390 . S
C772 C766 1.465 . S
C772 C771 1.396 . S
C772 C773 1.399 . S
C773 H759 0.929 . S
C773 C772 1.399 . S
C773 C774 1.385 . S
C774 H760 0.931 . S
C774 C773 1.385 . S
C774 C775 1.389 . S
C775 C774 1.389 . S
C775 C776 1.387 . S
C776 H761 0.930 . S
C776 C771 1.390 . S
C776 C775 1.387 . S
H777 C789 0.930 . S
H778 C791 0.930 . S
H779 C792 0.930 . S
H780 C796 0.959 . S
H781 C796 0.959 . S
H782 C796 0.961 . S
H783 C797 0.960 . S
H784 C797 0.961 . S
H785 C797 0.959 . S
H786 C800 0.929 . S
H787 C801 0.931 . S
H788 C803 0.930 . S
C789 H777 0.930 . S
C789 C790 1.399 . S
C789 C794 1.399 . S
C790 C789 1.399 . S
C790 C791 1.376 . S
C791 H778 0.930 . S
C791 C790 1.376 . S
C791 C792 1.388 . S
C792 H779 0.930 . S
C792 C791 1.388 . S
C792 C793 1.390 . S
C793 C792 1.390 . S
C793 C794 1.394 . S
C793 C799 1.465 . S
C794 C789 1.399 . S
C794 C793 1.394 . S
C794 C795 1.516 . S
C795 C794 1.516 . S
C795 C796 1.502 . S
C795 C797 1.561 . S
C795 C798 1.526 . S
C796 H780 0.959 . S
C796 H781 0.959 . S
C796 H782 0.961 . S
C796 C795 1.502 . S
C797 H783 0.960 . S
C797 H784 0.961 . S
C797 H785 0.959 . S
C797 C795 1.561 . S
C798 C795 1.526 . S
C798 C799 1.396 . S
C798 C803 1.390 . S
C799 C793 1.465 . S
C799 C798 1.396 . S
C799 C800 1.399 . S
C800 H786 0.929 . S
C800 C799 1.399 . S
C800 C801 1.385 . S
C801 H787 0.931 . S
C801 C800 1.385 . S
C801 C802 1.389 . S
C802 C801 1.389 . S
C802 C803 1.387 . S
C803 H788 0.930 . S
C803 C798 1.390 . S
C803 C802 1.387 . S
H804 C816 0.930 . S
H805 C818 0.930 . S
H806 C819 0.930 . S
H807 C823 0.959 . S
H808 C823 0.959 . S
H809 C823 0.961 . S
H810 C824 0.960 . S
H811 C824 0.961 . S
H812 C824 0.959 . S
H813 C827 0.929 . S
H814 C828 0.931 . S
H815 C830 0.930 . S
C816 H804 0.930 . S
C816 C817 1.399 . S
C816 C821 1.399 . S
C817 C816 1.399 . S
C817 C818 1.376 . S
C818 H805 0.930 . S
C818 C817 1.376 . S
C818 C819 1.388 . S
C819 H806 0.930 . S
C819 C818 1.388 . S
C819 C820 1.390 . S
C820 C819 1.390 . S
C820 C821 1.394 . S
C820 C826 1.465 . S
C821 C816 1.399 . S
C821 C820 1.394 . S
C821 C822 1.516 . S
C822 C821 1.516 . S
C822 C823 1.502 . S
C822 C824 1.561 . S
C822 C825 1.526 . S
C823 H807 0.959 . S
C823 H808 0.959 . S
C823 H809 0.961 . S
C823 C822 1.502 . S
C824 H810 0.960 . S
C824 H811 0.961 . S
C824 H812 0.959 . S
C824 C822 1.561 . S
C825 C822 1.526 . S
C825 C826 1.396 . S
C825 C830 1.390 . S
C826 C820 1.465 . S
C826 C825 1.396 . S
C826 C827 1.399 . S
C827 H813 0.929 . S
C827 C826 1.399 . S
C827 C828 1.385 . S
C828 H814 0.931 . S
C828 C827 1.385 . S
C828 C829 1.389 . S
C829 C828 1.389 . S
C829 C830 1.387 . S
C830 H815 0.930 . S
C830 C825 1.390 . S
C830 C829 1.387 . S
H831 C843 0.930 . S
H832 C845 0.930 . S
H833 C846 0.930 . S
H834 C850 0.959 . S
H835 C850 0.959 . S
H836 C850 0.961 . S
H837 C851 0.960 . S
H838 C851 0.961 . S
H839 C851 0.959 . S
H840 C854 0.929 . S
H841 C855 0.931 . S
H842 C857 0.930 . S
C843 H831 0.930 . S
C843 C844 1.399 . S
C843 C848 1.399 . S
C844 C843 1.399 . S
C844 C845 1.376 . S
C845 H832 0.930 . S
C845 C844 1.376 . S
C845 C846 1.388 . S
C846 H833 0.930 . S
C846 C845 1.388 . S
C846 C847 1.390 . S
C847 C846 1.390 . S
C847 C848 1.394 . S
C847 C853 1.465 . S
C848 C843 1.399 . S
C848 C847 1.394 . S
C848 C849 1.516 . S
C849 C848 1.516 . S
C849 C850 1.502 . S
C849 C851 1.561 . S
C849 C852 1.526 . S
C850 H834 0.959 . S
C850 H835 0.959 . S
C850 H836 0.961 . S
C850 C849 1.502 . S
C851 H837 0.960 . S
C851 H838 0.961 . S
C851 H839 0.959 . S
C851 C849 1.561 . S
C852 C849 1.526 . S
C852 C853 1.396 . S
C852 C857 1.390 . S
C853 C847 1.465 . S
C853 C852 1.396 . S
C853 C854 1.399 . S
C854 H840 0.929 . S
C854 C853 1.399 . S
C854 C855 1.385 . S
C855 H841 0.931 . S
C855 C854 1.385 . S
C855 C856 1.389 . S
C856 C855 1.389 . S
C856 C857 1.387 . S
C857 H842 0.930 . S
C857 C852 1.390 . S
C857 C856 1.387 . S
H858 C870 0.930 . S
H859 C872 0.930 . S
H860 C873 0.930 . S
H861 C877 0.959 . S
H862 C877 0.959 . S
H863 C877 0.961 . S
H864 C878 0.960 . S
H865 C878 0.961 . S
H866 C878 0.959 . S
H867 C881 0.929 . S
H868 C882 0.931 . S
H869 C884 0.930 . S
C870 H858 0.930 . S
C870 C871 1.399 . S
C870 C875 1.399 . S
C871 C870 1.399 . S
C871 C872 1.376 . S
C872 H859 0.930 . S
C872 C871 1.376 . S
C872 C873 1.388 . S
C873 H860 0.930 . S
C873 C872 1.388 . S
C873 C874 1.390 . S
C874 C873 1.390 . S
C874 C875 1.394 . S
C874 C880 1.465 . S
C875 C870 1.399 . S
C875 C874 1.394 . S
C875 C876 1.516 . S
C876 C875 1.516 . S
C876 C877 1.502 . S
C876 C878 1.561 . S
C876 C879 1.526 . S
C877 H861 0.959 . S
C877 H862 0.959 . S
C877 H863 0.961 . S
C877 C876 1.502 . S
C878 H864 0.960 . S
C878 H865 0.961 . S
C878 H866 0.959 . S
C878 C876 1.561 . S
C879 C876 1.526 . S
C879 C880 1.396 . S
C879 C884 1.390 . S
C880 C874 1.465 . S
C880 C879 1.396 . S
C880 C881 1.399 . S
C881 H867 0.929 . S
C881 C880 1.399 . S
C881 C882 1.385 . S
C882 H868 0.931 . S
C882 C881 1.385 . S
C882 C883 1.389 . S
C883 C882 1.389 . S
C883 C884 1.387 . S
C884 H869 0.930 . S
C884 C879 1.390 . S
C884 C883 1.387 . S
H885 C897 0.930 . S
H886 C899 0.930 . S
H887 C900 0.930 . S
H888 C904 0.959 . S
H889 C904 0.959 . S
H890 C904 0.961 . S
H891 C905 0.960 . S
H892 C905 0.961 . S
H893 C905 0.959 . S
H894 C908 0.929 . S
H895 C909 0.931 . S
H896 C911 0.930 . S
C897 H885 0.930 . S
C897 C898 1.399 . S
C897 C902 1.399 . S
C898 C897 1.399 . S
C898 C899 1.376 . S
C899 H886 0.930 . S
C899 C898 1.376 . S
C899 C900 1.388 . S
C900 H887 0.930 . S
C900 C899 1.388 . S
C900 C901 1.390 . S
C901 C900 1.390 . S
C901 C902 1.394 . S
C901 C907 1.465 . S
C902 C897 1.399 . S
C902 C901 1.394 . S
C902 C903 1.516 . S
C903 C902 1.516 . S
C903 C904 1.502 . S
C903 C905 1.561 . S
C903 C906 1.526 . S
C904 H888 0.959 . S
C904 H889 0.959 . S
C904 H890 0.961 . S
C904 C903 1.502 . S
C905 H891 0.960 . S
C905 H892 0.961 . S
C905 H893 0.959 . S
C905 C903 1.561 . S
C906 C903 1.526 . S
C906 C907 1.396 . S
C906 C911 1.390 . S
C907 C901 1.465 . S
C907 C906 1.396 . S
C907 C908 1.399 . S
C908 H894 0.929 . S
C908 C907 1.399 . S
C908 C909 1.385 . S
C909 H895 0.931 . S
C909 C908 1.385 . S
C909 C910 1.389 . S
C910 C909 1.389 . S
C910 C911 1.387 . S
C911 H896 0.930 . S
C911 C906 1.390 . S
C911 C910 1.387 . S
H912 C924 0.930 . S
H913 C926 0.930 . S
H914 C927 0.930 . S
H915 C931 0.963 . S
H916 C931 0.984 . S
H917 C931 0.934 1_565 S
H918 C932 0.943 1_565 S
H919 C932 0.976 . S
H920 C932 0.961 . S
H921 C935 0.929 . S
H922 C936 0.931 . S
H923 C938 0.930 . S
C924 H912 0.930 . S
C924 C925 1.399 . S
C924 C929 1.399 . S
C925 C924 1.399 . S
C925 C926 1.376 . S
C926 H913 0.930 . S
C926 C925 1.376 . S
C926 C927 1.388 . S
C927 H914 0.930 . S
C927 C926 1.388 . S
C927 C928 1.390 . S
C928 C927 1.390 . S
C928 C929 1.394 . S
C928 C934 1.465 1_565 S
C929 C924 1.399 . S
C929 C928 1.394 . S
C929 C930 1.506 1_565 S
C930 C929 1.506 1_545 S
C930 C931 1.502 . S
C930 C932 1.561 . S
C930 C933 1.536 . S
C931 H915 0.963 . S
C931 H916 0.984 . S
C931 H917 0.934 1_545 S
C931 C930 1.502 . S
C932 H918 0.943 1_545 S
C932 H919 0.976 . S
C932 H920 0.961 . S
C932 C930 1.561 . S
C933 C930 1.536 . S
C933 C934 1.396 . S
C933 C938 1.390 . S
C934 C928 1.465 1_545 S
C934 C933 1.396 . S
C934 C935 1.399 . S
C935 H921 0.929 . S
C935 C934 1.399 . S
C935 C936 1.385 . S
C936 H922 0.931 . S
C936 C935 1.385 . S
C936 C937 1.389 . S
C937 C936 1.389 . S
C937 C938 1.387 . S
C938 H923 0.930 . S
C938 C933 1.390 . S
C938 C937 1.387 . S
H939 C951 0.930 . S
H940 C953 0.930 . S
H941 C954 0.930 . S
H942 C958 0.959 . S
H943 C958 0.959 . S
H944 C958 0.961 1_455 S
H945 C959 0.932 1_455 S
H946 C959 0.987 . S
H947 C959 0.962 . S
H948 C962 0.929 . S
H949 C963 0.931 . S
H950 C965 0.930 . S
C951 H939 0.930 . S
C951 C952 1.399 . S
C951 C956 1.399 . S
C952 C951 1.399 . S
C952 C953 1.376 . S
C953 H940 0.930 . S
C953 C952 1.376 . S
C953 C954 1.388 . S
C954 H941 0.930 . S
C954 C953 1.388 . S
C954 C955 1.390 . S
C955 C954 1.390 . S
C955 C956 1.394 . S
C955 C961 1.465 1_455 S
C956 C951 1.399 . S
C956 C955 1.394 . S
C956 C957 1.495 1_455 S
C957 C956 1.495 1_655 S
C957 C958 1.503 . S
C957 C959 1.561 . S
C957 C960 1.547 . S
C958 H942 0.959 . S
C958 H943 0.959 . S
C958 H944 0.961 1_655 S
C958 C957 1.503 . S
C959 H945 0.932 1_655 S
C959 H946 0.987 . S
C959 H947 0.962 . S
C959 C957 1.561 . S
C960 C957 1.547 . S
C960 C961 1.396 . S
C960 C965 1.390 . S
C961 C955 1.465 1_655 S
C961 C960 1.396 . S
C961 C962 1.399 . S
C962 H948 0.929 . S
C962 C961 1.399 . S
C962 C963 1.385 . S
C963 H949 0.931 . S
C963 C962 1.385 . S
C963 C964 1.389 . S
C964 C963 1.389 . S
C964 C965 1.387 . S
C965 H950 0.930 . S
C965 C960 1.390 . S
C965 C964 1.387 . S
H966 C978 0.930 . S
H967 C980 0.930 . S
H968 C981 0.930 . S
H969 C985 0.959 . S
H970 C985 0.959 . S
H971 C985 0.961 1_545 S
H972 C986 0.960 1_545 S
H973 C986 0.961 . S
H974 C986 0.959 . S
H975 C989 0.929 . S
H976 C990 0.931 . S
H977 C992 0.930 . S
C978 H966 0.930 . S
C978 C979 1.399 . S
C978 C983 1.399 . S
C979 C978 1.399 . S
C979 C980 1.376 . S
C980 H967 0.930 . S
C980 C979 1.376 . S
C980 C981 1.388 . S
C981 H968 0.930 . S
C981 C980 1.388 . S
C981 C982 1.390 . S
C982 C981 1.390 . S
C982 C983 1.394 . S
C982 C988 1.465 1_545 S
C983 C978 1.399 . S
C983 C982 1.394 . S
C983 C984 1.516 1_545 S
C984 C983 1.516 1_565 S
C984 C985 1.502 . S
C984 C986 1.561 . S
C984 C987 1.526 . S
C985 H969 0.959 . S
C985 H970 0.959 . S
C985 H971 0.961 1_565 S
C985 C984 1.502 . S
C986 H972 0.960 1_565 S
C986 H973 0.961 . S
C986 H974 0.959 . S
C986 C984 1.561 . S
C987 C984 1.526 . S
C987 C988 1.396 . S
C987 C992 1.390 . S
C988 C982 1.465 1_565 S
C988 C987 1.396 . S
C988 C989 1.399 . S
C989 H975 0.929 . S
C989 C988 1.399 . S
C989 C990 1.385 . S
C990 H976 0.931 . S
C990 C989 1.385 . S
C990 C991 1.389 . S
C991 C990 1.389 . S
C991 C992 1.387 . S
C992 H977 0.930 . S
C992 C987 1.390 . S
C992 C991 1.387 . S
H993 C1005 0.930 . S
H994 C1007 0.930 . S
H995 C1008 0.930 . S
H996 C1012 0.959 1_655 S
H997 C1012 0.959 1_655 S
H998 C1012 0.961 . S
H999 C1013 0.960 . S
H1000 C1013 0.961 1_655 S
H1001 C1013 0.958 1_655 S
H1002 C1016 0.929 . S
H1003 C1017 0.931 . S
H1004 C1019 0.930 . S
C1005 H993 0.930 . S
C1005 C1006 1.399 . S
C1005 C1010 1.399 . S
C1006 C1005 1.399 . S
C1006 C1007 1.376 . S
C1007 H994 0.930 . S
C1007 C1006 1.376 . S
C1007 C1008 1.388 . S
C1008 H995 0.930 . S
C1008 C1007 1.388 . S
C1008 C1009 1.390 . S
C1009 C1008 1.390 . S
C1009 C1010 1.394 . S
C1009 C1015 1.465 1_455 S
C1010 C1005 1.399 . S
C1010 C1009 1.394 . S
C1010 C1011 1.516 . S
C1011 C1010 1.516 . S
C1011 C1012 1.502 . S
C1011 C1013 1.561 . S
C1011 C1014 1.526 1_455 S
C1012 H996 0.959 1_455 S
C1012 H997 0.959 1_455 S
C1012 H998 0.961 . S
C1012 C1011 1.502 . S
C1013 H999 0.960 . S
C1013 H1000 0.961 1_455 S
C1013 H1001 0.958 1_455 S
C1013 C1011 1.561 . S
C1014 C1011 1.526 1_655 S
C1014 C1015 1.396 . S
C1014 C1019 1.390 . S
C1015 C1009 1.465 1_655 S
C1015 C1014 1.396 . S
C1015 C1016 1.399 . S
C1016 H1002 0.929 . S
C1016 C1015 1.399 . S
C1016 C1017 1.385 . S
C1017 H1003 0.931 . S
C1017 C1016 1.385 . S
C1017 C1018 1.389 . S
C1018 C1017 1.389 . S
C1018 C1019 1.387 . S
C1019 H1004 0.930 . S
C1019 C1014 1.390 . S
C1019 C1018 1.387 . S
H1020 C1032 0.930 . S
H1021 C1034 0.930 . S
H1022 C1035 0.930 . S
H1023 C1039 0.957 1_554 S
H1024 C1039 0.959 1_554 S
H1025 C1039 0.961 . S
H1026 C1040 0.960 . S
H1027 C1040 0.961 1_554 S
H1028 C1040 0.959 . S
H1029 C1043 0.929 . S
H1030 C1044 0.931 . S
H1031 C1046 0.930 . S
C1032 H1020 0.930 . S
C1032 C1033 1.399 . S
C1032 C1037 1.399 . S
C1033 C1032 1.399 . S
C1033 C1034 1.376 . S
C1034 H1021 0.930 . S
C1034 C1033 1.376 . S
C1034 C1035 1.388 . S
C1035 H1022 0.930 . S
C1035 C1034 1.388 . S
C1035 C1036 1.390 . S
C1036 C1035 1.390 . S
C1036 C1037 1.394 . S
C1036 C1042 1.465 1_556 S
C1037 C1032 1.399 . S
C1037 C1036 1.394 . S
C1037 C1038 1.516 . S
C1038 C1037 1.516 . S
C1038 C1039 1.502 . S
C1038 C1040 1.561 . S
C1038 C1041 1.526 1_556 S
C1039 H1023 0.957 1_556 S
C1039 H1024 0.959 1_556 S
C1039 H1025 0.961 . S
C1039 C1038 1.502 . S
C1040 H1026 0.960 . S
C1040 H1027 0.961 1_556 S
C1040 H1028 0.959 . S
C1040 C1038 1.561 . S
C1041 C1038 1.526 1_554 S
C1041 C1042 1.396 . S
C1041 C1046 1.390 . S
C1042 C1036 1.465 1_554 S
C1042 C1041 1.396 . S
C1042 C1043 1.399 . S
C1043 H1029 0.929 . S
C1043 C1042 1.399 . S
C1043 C1044 1.385 . S
C1044 H1030 0.931 . S
C1044 C1043 1.385 . S
C1044 C1045 1.389 . S
C1045 C1044 1.389 . S
C1045 C1046 1.387 . S
C1046 H1031 0.930 . S
C1046 C1041 1.390 . S
C1046 C1045 1.387 . S
H1047 C1059 0.930 . S
H1048 C1061 0.930 . S
H1049 C1062 0.930 . S
H1050 C1066 0.959 . S
H1051 C1066 0.959 . S
H1052 C1066 0.961 1_556 S
H1053 C1067 0.960 1_556 S
H1054 C1067 0.961 . S
H1055 C1067 0.959 . S
H1056 C1070 0.929 . S
H1057 C1071 0.931 . S
H1058 C1073 0.930 . S
C1059 H1047 0.930 . S
C1059 C1060 1.399 . S
C1059 C1064 1.399 . S
C1060 C1059 1.399 . S
C1060 C1061 1.376 . S
C1061 H1048 0.930 . S
C1061 C1060 1.376 . S
C1061 C1062 1.388 . S
C1062 H1049 0.930 . S
C1062 C1061 1.388 . S
C1062 C1063 1.390 . S
C1063 C1062 1.390 . S
C1063 C1064 1.394 . S
C1063 C1069 1.465 1_556 S
C1064 C1059 1.399 . S
C1064 C1063 1.394 . S
C1064 C1065 1.516 1_556 S
C1065 C1064 1.516 1_554 S
C1065 C1066 1.502 . S
C1065 C1067 1.561 . S
C1065 C1068 1.526 . S
C1066 H1050 0.959 . S
C1066 H1051 0.959 . S
C1066 H1052 0.961 1_554 S
C1066 C1065 1.502 . S
C1067 H1053 0.960 1_554 S
C1067 H1054 0.961 . S
C1067 H1055 0.959 . S
C1067 C1065 1.561 . S
C1068 C1065 1.526 . S
C1068 C1069 1.396 . S
C1068 C1073 1.390 . S
C1069 C1063 1.465 1_554 S
C1069 C1068 1.396 . S
C1069 C1070 1.399 . S
C1070 H1056 0.929 . S
C1070 C1069 1.399 . S
C1070 C1071 1.385 . S
C1071 H1057 0.931 . S
C1071 C1070 1.385 . S
C1071 C1072 1.389 . S
C1072 C1071 1.389 . S
C1072 C1073 1.387 . S
C1073 H1058 0.930 . S
C1073 C1068 1.390 . S
C1073 C1072 1.387 . S
H1074 C1086 0.930 . S
H1075 C1088 0.930 . S
H1076 C1089 0.930 . S
H1077 C1093 0.959 . S
H1078 C1093 0.959 . S
H1079 C1093 0.961 1_554 S
H1080 C1094 0.960 1_554 S
H1081 C1094 0.961 . S
H1082 C1094 0.959 . S
H1083 C1097 0.929 . S
H1084 C1098 0.931 . S
H1085 C1100 0.930 . S
C1086 H1074 0.930 . S
C1086 C1087 1.399 . S
C1086 C1091 1.399 . S
C1087 C1086 1.399 . S
C1087 C1088 1.376 . S
C1088 H1075 0.930 . S
C1088 C1087 1.376 . S
C1088 C1089 1.388 . S
C1089 H1076 0.930 . S
C1089 C1088 1.388 . S
C1089 C1090 1.390 . S
C1090 C1089 1.390 . S
C1090 C1091 1.394 . S
C1090 C1096 1.465 1_554 S
C1091 C1086 1.399 . S
C1091 C1090 1.394 . S
C1091 C1092 1.516 1_554 S
C1092 C1091 1.516 1_556 S
C1092 C1093 1.502 . S
C1092 C1094 1.561 . S
C1092 C1095 1.526 . S
C1093 H1077 0.959 . S
C1093 H1078 0.959 . S
C1093 H1079 0.961 1_556 S
C1093 C1092 1.502 . S
C1094 H1080 0.960 1_556 S
C1094 H1081 0.961 . S
C1094 H1082 0.959 . S
C1094 C1092 1.561 . S
C1095 C1092 1.526 . S
C1095 C1096 1.396 . S
C1095 C1100 1.390 . S
C1096 C1090 1.465 1_556 S
C1096 C1095 1.396 . S
C1096 C1097 1.399 . S
C1097 H1083 0.929 . S
C1097 C1096 1.399 . S
C1097 C1098 1.385 . S
C1098 H1084 0.931 . S
C1098 C1097 1.385 . S
C1098 C1099 1.389 . S
C1099 C1098 1.389 . S
C1099 C1100 1.387 . S
C1100 H1085 0.930 . S
C1100 C1095 1.390 . S
C1100 C1099 1.387 . S
H1101 C1113 0.930 . S
H1102 C1115 0.930 . S
H1103 C1116 0.930 . S
H1104 C1120 0.959 . S
H1105 C1120 0.959 . S
H1106 C1120 0.961 1_556 S
H1107 C1121 0.960 1_556 S
H1108 C1121 0.961 . S
H1109 C1121 0.959 . S
H1110 C1124 0.929 . S
H1111 C1125 0.931 . S
H1112 C1127 0.930 . S
C1113 H1101 0.930 . S
C1113 C1114 1.399 . S
C1113 C1118 1.399 . S
C1114 C1113 1.399 . S
C1114 C1115 1.376 . S
C1115 H1102 0.930 . S
C1115 C1114 1.376 . S
C1115 C1116 1.388 . S
C1116 H1103 0.930 . S
C1116 C1115 1.388 . S
C1116 C1117 1.390 . S
C1117 C1116 1.390 . S
C1117 C1118 1.394 . S
C1117 C1123 1.465 1_556 S
C1118 C1113 1.399 . S
C1118 C1117 1.394 . S
C1118 C1119 1.516 1_556 S
C1119 C1118 1.516 1_554 S
C1119 C1120 1.502 . S
C1119 C1121 1.561 . S
C1119 C1122 1.526 . S
C1120 H1104 0.959 . S
C1120 H1105 0.959 . S
C1120 H1106 0.961 1_554 S
C1120 C1119 1.502 . S
C1121 H1107 0.960 1_554 S
C1121 H1108 0.961 . S
C1121 H1109 0.959 . S
C1121 C1119 1.561 . S
C1122 C1119 1.526 . S
C1122 C1123 1.396 . S
C1122 C1127 1.390 . S
C1123 C1117 1.465 1_554 S
C1123 C1122 1.396 . S
C1123 C1124 1.399 . S
C1124 H1110 0.929 . S
C1124 C1123 1.399 . S
C1124 C1125 1.385 . S
C1125 H1111 0.931 . S
C1125 C1124 1.385 . S
C1125 C1126 1.389 . S
C1126 C1125 1.389 . S
C1126 C1127 1.387 . S
C1127 H1112 0.930 . S
C1127 C1122 1.390 . S
C1127 C1126 1.387 . S
H1128 C1140 0.930 . S
H1129 C1142 0.930 . S
H1130 C1143 0.930 . S
H1131 C1147 0.959 . S
H1132 C1147 0.959 . S
H1133 C1147 0.961 1_455 S
H1134 C1148 0.956 1_455 S
H1135 C1148 0.965 . S
H1136 C1148 0.959 . S
H1137 C1151 0.929 . S
H1138 C1152 0.931 . S
H1139 C1154 0.930 . S
C1140 H1128 0.930 . S
C1140 C1141 1.399 . S
C1140 C1145 1.399 . S
C1141 C1140 1.399 . S
C1141 C1142 1.376 . S
C1142 H1129 0.930 . S
C1142 C1141 1.376 . S
C1142 C1143 1.388 . S
C1143 H1130 0.930 . S
C1143 C1142 1.388 . S
C1143 C1144 1.390 . S
C1144 C1143 1.390 . S
C1144 C1145 1.394 . S
C1144 C1150 1.465 1_455 S
C1145 C1140 1.399 . S
C1145 C1144 1.394 . S
C1145 C1146 1.508 1_455 S
C1146 C1145 1.508 1_655 S
C1146 C1147 1.502 . S
C1146 C1148 1.561 . S
C1146 C1149 1.534 . S
C1147 H1131 0.959 . S
C1147 H1132 0.959 . S
C1147 H1133 0.961 1_655 S
C1147 C1146 1.502 . S
C1148 H1134 0.956 1_655 S
C1148 H1135 0.965 . S
C1148 H1136 0.959 . S
C1148 C1146 1.561 . S
C1149 C1146 1.534 . S
C1149 C1150 1.396 . S
C1149 C1154 1.390 . S
C1150 C1144 1.465 1_655 S
C1150 C1149 1.396 . S
C1150 C1151 1.399 . S
C1151 H1137 0.929 . S
C1151 C1150 1.399 . S
C1151 C1152 1.385 . S
C1152 H1138 0.931 . S
C1152 C1151 1.385 . S
C1152 C1153 1.389 . S
C1153 C1152 1.389 . S
C1153 C1154 1.387 . S
C1154 H1139 0.930 . S
C1154 C1149 1.390 . S
C1154 C1153 1.387 . S
H1155 C1167 0.930 . S
H1156 C1169 0.930 . S
H1157 C1170 0.930 . S
H1158 C1174 0.961 . S
H1159 C1174 0.969 . S
H1160 C1174 0.950 1_655 S
H1161 C1175 0.962 1_655 S
H1162 C1175 0.959 . S
H1163 C1175 0.959 . S
H1164 C1178 0.929 . S
H1165 C1179 0.931 . S
H1166 C1181 0.930 . S
C1167 H1155 0.930 . S
C1167 C1168 1.399 . S
C1167 C1172 1.399 . S
C1168 C1167 1.399 . S
C1168 C1169 1.376 . S
C1169 H1156 0.930 . S
C1169 C1168 1.376 . S
C1169 C1170 1.388 . S
C1170 H1157 0.930 . S
C1170 C1169 1.388 . S
C1170 C1171 1.390 . S
C1171 C1170 1.390 . S
C1171 C1172 1.394 . S
C1171 C1177 1.465 1_655 S
C1172 C1167 1.399 . S
C1172 C1171 1.394 . S
C1172 C1173 1.517 . S
C1173 C1172 1.517 . S
C1173 C1174 1.502 1_655 S
C1173 C1175 1.561 1_655 S
C1173 C1176 1.525 1_655 S
C1174 H1158 0.961 . S
C1174 H1159 0.969 . S
C1174 H1160 0.950 1_455 S
C1174 C1173 1.502 1_455 S
C1175 H1161 0.962 1_455 S
C1175 H1162 0.959 . S
C1175 H1163 0.959 . S
C1175 C1173 1.561 1_455 S
C1176 C1173 1.525 1_455 S
C1176 C1177 1.396 . S
C1176 C1181 1.390 . S
C1177 C1171 1.465 1_455 S
C1177 C1176 1.396 . S
C1177 C1178 1.399 . S
C1178 H1164 0.929 . S
C1178 C1177 1.399 . S
C1178 C1179 1.385 . S
C1179 H1165 0.931 . S
C1179 C1178 1.385 . S
C1179 C1180 1.389 . S
C1180 C1179 1.389 . S
C1180 C1181 1.387 . S
C1181 H1166 0.930 . S
C1181 C1176 1.390 . S
C1181 C1180 1.387 . S
H1182 C1194 0.930 . S
H1183 C1196 0.930 . S
H1184 C1197 0.930 . S
H1185 C1201 0.961 . S
H1186 C1201 0.971 . S
H1187 C1201 0.948 1_545 S
H1188 C1202 0.963 . S
H1189 C1202 0.958 1_565 S
H1190 C1202 0.959 1_565 S
H1191 C1205 0.929 . S
H1192 C1206 0.931 . S
H1193 C1208 0.930 . S
C1194 H1182 0.930 . S
C1194 C1195 1.399 . S
C1194 C1199 1.399 . S
C1195 C1194 1.399 . S
C1195 C1196 1.376 . S
C1196 H1183 0.930 . S
C1196 C1195 1.376 . S
C1196 C1197 1.388 . S
C1197 H1184 0.930 . S
C1197 C1196 1.388 . S
C1197 C1198 1.390 . S
C1198 C1197 1.390 . S
C1198 C1199 1.394 . S
C1198 C1204 1.465 1_545 S
C1199 C1194 1.399 . S
C1199 C1198 1.394 . S
C1199 C1200 1.518 . S
C1200 C1199 1.518 . S
C1200 C1201 1.502 1_545 S
C1200 C1202 1.561 . S
C1200 C1203 1.524 1_545 S
C1201 H1185 0.961 . S
C1201 H1186 0.971 . S
C1201 H1187 0.948 1_565 S
C1201 C1200 1.502 1_565 S
C1202 H1188 0.963 . S
C1202 H1189 0.958 1_545 S
C1202 H1190 0.959 1_545 S
C1202 C1200 1.561 . S
C1203 C1200 1.524 1_565 S
C1203 C1204 1.396 . S
C1203 C1208 1.390 . S
C1204 C1198 1.465 1_565 S
C1204 C1203 1.396 . S
C1204 C1205 1.399 . S
C1205 H1191 0.929 . S
C1205 C1204 1.399 . S
C1205 C1206 1.385 . S
C1206 H1192 0.931 . S
C1206 C1205 1.385 . S
C1206 C1207 1.389 . S
C1207 C1206 1.389 . S
C1207 C1208 1.387 . S
C1208 H1193 0.930 . S
C1208 C1203 1.390 . S
C1208 C1207 1.387 . S
H1209 C1221 0.930 . S
H1210 C1223 0.930 . S
H1211 C1224 0.930 . S
H1212 C1228 0.962 . S
H1213 C1228 0.981 . S
H1214 C1228 0.937 1_565 S
H1215 C1229 0.939 1_565 S
H1216 C1229 0.980 . S
H1217 C1229 0.961 . S
H1218 C1232 0.929 . S
H1219 C1233 0.931 . S
H1220 C1235 0.930 . S
C1221 H1209 0.930 . S
C1221 C1222 1.399 . S
C1221 C1226 1.399 . S
C1222 C1221 1.399 . S
C1222 C1223 1.376 . S
C1223 H1210 0.930 . S
C1223 C1222 1.376 . S
C1223 C1224 1.388 . S
C1224 H1211 0.930 . S
C1224 C1223 1.388 . S
C1224 C1225 1.390 . S
C1225 C1224 1.390 . S
C1225 C1226 1.394 . S
C1225 C1231 1.465 1_565 S
C1226 C1221 1.399 . S
C1226 C1225 1.394 . S
C1226 C1227 1.508 1_565 S
C1227 C1226 1.508 1_545 S
C1227 C1228 1.502 . S
C1227 C1229 1.561 . S
C1227 C1230 1.534 . S
C1228 H1212 0.962 . S
C1228 H1213 0.981 . S
C1228 H1214 0.937 1_545 S
C1228 C1227 1.502 . S
C1229 H1215 0.939 1_545 S
C1229 H1216 0.980 . S
C1229 H1217 0.961 . S
C1229 C1227 1.561 . S
C1230 C1227 1.534 . S
C1230 C1231 1.396 . S
C1230 C1235 1.390 . S
C1231 C1225 1.465 1_545 S
C1231 C1230 1.396 . S
C1231 C1232 1.399 . S
C1232 H1218 0.929 . S
C1232 C1231 1.399 . S
C1232 C1233 1.385 . S
C1233 H1219 0.931 . S
C1233 C1232 1.385 . S
C1233 C1234 1.389 . S
C1234 C1233 1.389 . S
C1234 C1235 1.387 . S
C1235 H1220 0.930 . S
C1235 C1230 1.390 . S
C1235 C1234 1.387 . S
C277 C15 1.449 . S
C289 C164 1.457 . S
C304 C95 1.491 . S
C316 C30 1.498 . S
C331 C54 1.410 . S
C343 C120 1.410 . S
C358 C84 1.466 . S
C370 C147 1.446 . S
C385 C81 1.537 . S
C397 C205 1.537 . S
C412 C18 1.424 . S
C424 C238 1.425 . S
C439 C249 1.501 . S
C451 C29 1.495 . S
C466 C65 1.458 . S
C478 C184 1.475 . S
C493 C103 1.482 . S
C505 C10 1.499 . S
C520 C128 1.461 . S
C532 C43 1.446 . S
C547 C153 1.501 . S
C559 C59 1.501 . S
C574 C73 1.461 . S
C586 C172 1.467 . S
C601 C76 1.412 . S
C613 C186 1.412 . S
C628 C7 1.509 . S
C640 C213 1.503 . S
C655 C228 1.413 . S
C667 C40 1.415 . S
C682 C257 1.422 . S
C694 C52 1.457 . S
C709 C98 1.454 . S
C721 C169 1.423 . S
C736 C216 1.477 . S
C748 C191 1.463 . S
C763 C208 1.451 . S
C775 C227 1.418 . S
C790 C260 1.468 . S
C802 C241 1.457 . S
C817 C252 1.483 . S
C829 C197 1.476 . S
C844 C140 1.450 . S
C856 C125 1.422 . S
C871 C142 1.461 . S
C883 C161 1.440 . S
C898 C106 1.474 . S
C910 C117 1.468 . S
C925 C74 1.448 . S
C937 C8 1.453 . S
C952 C21 1.519 . S
C964 C37 1.519 . S
C979 C32 1.507 . S
C991 C51 1.494 . S
C1006 C87 1.481 . S
C1018 C62 1.477 . S
C1033 C235 1.474 . S
C1045 C96 1.466 . S
C1060 C250 1.491 . S
C1072 C131 1.477 . S
C1087 C150 1.491 . S
C1099 C183 1.496 . S
C1114 C206 1.508 . S
C1126 C175 1.515 . S
C1141 C162 1.401 . S
C1153 C118 1.397 . S
C1168 C263 1.545 . S
C1180 C219 1.543 . S
C1195 C230 1.430 . S
C1207 C194 1.433 . S
C1222 C139 1.570 . S
C1234 C109 1.571 . S
