# Generated by pormake.
# Topology oob, (7)-cn, num edge types: 1
# Building blocks:
#     Node 0, Type 0, BuildingBlock: HICVOG_clean_sbu_0, # of connection points: 7
#     Node 1, Type 0, BuildingBlock: HICVOG_clean_sbu_0, # of connection points: 7
#     Node 2, Type 0, BuildingBlock: HICVOG_clean_sbu_0, # of connection points: 7
#     Node 3, Type 0, BuildingBlock: HICVOG_clean_sbu_0, # of connection points: 7
#     Edge 4, Type (0, 0), BuildingBlock: AJUNOK_clean_linker_0, # of connection points: 2
#     Edge 5, Type (0, 0), BuildingBlock: AJUNOK_clean_linker_0, # of connection points: 2
#     Edge 6, Type (0, 0), BuildingBlock: AJUNOK_clean_linker_0, # of connection points: 2
#     Edge 7, Type (0, 0), BuildingBlock: AJUNOK_clean_linker_0, # of connection points: 2
#     Edge 8, Type (0, 0), BuildingBlock: AJUNOK_clean_linker_0, # of connection points: 2
#     Edge 9, Type (0, 0), BuildingBlock: AJUNOK_clean_linker_0, # of connection points: 2
#     Edge 10, Type (0, 0), BuildingBlock: AJUNOK_clean_linker_0, # of connection points: 2
#     Edge 11, Type (0, 0), BuildingBlock: AJUNOK_clean_linker_0, # of connection points: 2
#     Edge 12, Type (0, 0), BuildingBlock: AJUNOK_clean_linker_0, # of connection points: 2
#     Edge 13, Type (0, 0), BuildingBlock: AJUNOK_clean_linker_0, # of connection points: 2
#     Edge 14, Type (0, 0), BuildingBlock: AJUNOK_clean_linker_0, # of connection points: 2
#     Edge 15, Type (0, 0), BuildingBlock: AJUNOK_clean_linker_0, # of connection points: 2
#     Edge 16, Type (0, 0), BuildingBlock: AJUNOK_clean_linker_0, # of connection points: 2
#     Edge 17, Type (0, 0), BuildingBlock: AJUNOK_clean_linker_0, # of connection points: 2
# Relax obj value: 0.282
# Max RMSD: 0.262
# Mean RMSD: 0.262
data_MOF--net-oob--node1-HICVOG_clean_sbu_0--edge1-AJUNOK_clean_linker_0
_symmetry_space_group_name_H-M    P1
_symmetry_Int_Tables_number       1
_symmetry_cell_setting            triclinic
loop_
_symmetry_equiv_pos_as_xyz
'x, y, z'
_cell_length_a     14.122991
_cell_length_b     31.333658
_cell_length_c     19.463374
_cell_angle_alpha  90.127729
_cell_angle_beta   109.86252
_cell_angle_gamma 90.283065
loop_
_atom_site_label
_atom_site_type_symbol
_atom_site_fract_x
_atom_site_fract_y
_atom_site_fract_z
_atom_type_partial_charge
Zn0 Zn 0.2605 0.06811 0.8219 0.0
C1 C 0.16766 0.04393 0.98406 0.0
N2 N 0.25683 0.06215 1.01978 0.0
C3 C 0.30222 0.06167 0.97007 0.0
N4 N 0.24505 0.04334 0.90728 0.0
N5 N 0.15936 0.03164 0.91535 0.0
C6 C 0.87222 1.02769 0.84068 0.0
O7 O 0.91192 0.06316 0.82651 0.0
O8 O 0.40656 0.06406 0.82555 0.0
Zn9 Zn 0.06831 0.99007 0.84943 0.0
N10 N 0.22802 0.12765 0.82881 0.0
C11 C 0.12351 0.17612 0.86406 0.0
C12 C 0.14705 0.13474 0.84996 0.0
C13 C 0.28505 0.16069 0.81883 0.0
N14 N 0.1802 0.20904 0.85441 0.0
C15 C 0.26032 0.20275 0.83179 0.0
O16 O 0.05403 0.99807 0.74277 0.0
C17 C 0.09083 1.01921 0.70185 0.0
O18 O 0.16449 0.04504 0.72713 0.0
H19 H 0.10188 0.10832 0.85696 0.0
H20 H 0.34893 0.15428 0.80171 0.0
C21 C 0.10112 0.89721 0.84002 0.0
C22 C 0.14509 0.85802 0.86999 0.0
C23 C 0.23248 0.89318 0.98175 0.0
C24 C 0.19112 0.93179 0.95165 0.0
N25 N 0.12442 0.9333 0.88218 0.0
N26 N 0.20875 0.85741 0.94038 0.0
H27 H 0.04954 0.89902 0.78439 0.0
C28 C 0.45439 1.029 0.83477 0.0
O29 O 0.40699 0.99362 0.83989 0.0
O30 O 0.92424 0.99369 0.85165 0.0
H31 H 0.21178 0.9603 0.98418 0.0
H32 H 0.06011 0.18213 0.88189 0.0
H33 H 0.2843 0.89165 1.03728 0.0
Zn34 Zn 0.734 0.0579 0.25641 0.0
C35 C 0.86472 1.0286 0.11293 0.0
N36 N 0.78175 0.04626 0.06633 0.0
C37 C 0.72412 0.05009 0.10809 0.0
N38 N 0.76851 0.03497 0.17603 0.0
N39 N 0.8579 1.02111 0.17909 0.0
C40 C 0.14059 1.02143 0.28412 0.0
O41 O 0.10173 0.04675 0.32133 0.0
O42 O 0.58719 0.04539 0.24427 0.0
Zn43 Zn 0.94412 0.98185 0.24884 0.0
N44 N 0.75738 0.1193 0.25345 0.0
C45 C 0.8651 0.1709 0.22792 0.0
C46 C 0.84082 0.1287 0.23648 0.0
C47 C 0.69859 0.15105 0.26516 0.0
N48 N 0.80731 0.20245 0.23984 0.0
C49 C 0.72518 0.19407 0.25925 0.0
O50 O 0.94581 0.99132 0.35223 0.0
C51 C 0.90063 1.01312 0.38693 0.0
O52 O 0.82618 0.03716 0.3548 0.0
H53 H 0.88797 0.10337 0.22924 0.0
H54 H 0.63241 0.14303 0.27853 0.0
C55 C 0.91375 0.88896 0.25947 0.0
C56 C 0.87833 0.84849 0.22888 0.0
C57 C 0.81695 0.87977 0.11123 0.0
C58 C 0.84903 0.9196 0.14172 0.0
N59 N 0.8985 0.92372 0.2148 0.0
N60 N 0.83192 0.84538 0.15531 0.0
H61 H 0.95269 0.89286 0.31751 0.0
C62 C 0.55349 0.05539 0.29506 0.0
O63 O 0.61496 0.07368 0.35441 0.0
O64 O 0.0875 0.9904 0.24868 0.0
H65 H 0.83348 0.94695 0.10681 0.0
H66 H 0.93047 0.17861 0.21322 0.0
H67 H 0.77868 0.87623 0.05307 0.0
Zn68 Zn 0.76818 0.55801 0.33102 0.0
C69 C 0.64961 0.54022 0.48167 0.0
N70 N 0.73319 0.56098 0.52153 0.0
C71 C 0.78877 0.55922 0.4783 0.0
N72 N 0.74243 0.53797 0.41572 0.0
N73 N 0.65359 0.52589 0.41736 0.0
C74 C 0.37983 0.51776 0.35489 0.0
O75 O 0.41979 0.55302 0.34021 0.0
O76 O 0.917 0.5532 0.3439 0.0
Zn77 Zn 0.56954 0.48287 0.35309 0.0
N78 N 0.73327 0.61795 0.32894 0.0
C79 C 0.61402 0.66686 0.34482 0.0
C80 C 0.6431 0.6253 0.3374 0.0
C81 C 0.79506 0.65088 0.32561 0.0
N82 N 0.6753 0.69966 0.34177 0.0
C83 C 0.76527 0.69319 0.33217 0.0
O84 O 0.55283 0.49249 0.24628 0.0
C85 C 0.59808 0.51016 0.20702 0.0
O86 O 0.67796 0.53248 0.23472 0.0
H87 H 0.59488 0.59888 0.33973 0.0
H88 H 0.86682 0.64414 0.31943 0.0
C89 C 0.60761 0.39028 0.34762 0.0
C90 C 0.65636 0.352 0.37811 0.0
C91 C 0.75712 0.39056 0.48261 0.0
C92 C 0.71008 0.4282 0.45211 0.0
N93 N 0.63459 0.42757 0.38612 0.0
N94 N 0.72943 0.35356 0.44505 0.0
H95 H 0.54909 0.39037 0.29451 0.0
C96 C 0.96816 0.51901 0.35897 0.0
O97 O 0.9232 0.48325 0.36569 0.0
O98 O 0.42922 0.48317 0.3619 0.0
H99 H 0.73297 0.4576 0.48215 0.0
H100 H 0.54303 0.67309 0.35255 0.0
H101 H 0.81593 0.39077 0.53556 0.0
Zn102 Zn 0.23789 0.56501 0.7706 0.0
C103 C 0.34643 0.54708 0.61228 0.0
N104 N 0.26146 0.56743 0.57497 0.0
C105 C 0.21074 0.56638 0.62164 0.0
N106 N 0.26171 0.54633 0.68405 0.0
N107 N 0.34812 0.534 0.67873 0.0
C108 C 0.62001 0.52452 0.73597 0.0
O109 O 0.57777 0.56074 0.74312 0.0
O110 O 0.08884 0.5597 0.75723 0.0
Zn111 Zn 0.43036 0.49071 0.74117 0.0
N112 N 0.27305 0.62511 0.77375 0.0
C113 C 0.39264 0.67422 0.75753 0.0
C114 C 0.36352 0.63265 0.76565 0.0
C115 C 0.21083 0.65789 0.77584 0.0
N116 N 0.33108 0.70687 0.75953 0.0
C117 C 0.24082 0.70019 0.76874 0.0
O118 O 0.44888 0.49962 0.84791 0.0
C119 C 0.40768 0.51636 0.89036 0.0
O120 O 0.32782 0.53867 0.86629 0.0
H121 H 0.41172 0.60631 0.76382 0.0
H122 H 0.13886 0.65109 0.78187 0.0
C123 C 0.38637 0.39927 0.74654 0.0
C124 C 0.33131 0.36162 0.71888 0.0
C125 C 0.22561 0.40028 0.61745 0.0
C126 C 0.27824 0.4375 0.64569 0.0
N127 N 0.35921 0.43642 0.70863 0.0
N128 N 0.2531 0.36338 0.65461 0.0
H129 H 0.44948 0.39912 0.79726 0.0
C130 C 0.04126 0.52467 0.75356 0.0
O131 O 0.09067 0.48859 0.76085 0.0
O132 O 0.57147 0.48985 0.7337 0.0
H133 H 0.25562 0.46682 0.61601 0.0
H134 H 0.46385 0.68058 0.75004 0.0
H135 H 0.1626 0.40075 0.5667 0.0
C136 C 0.70673 0.064 0.82135 0.0
C137 C 0.76721 1.0274 0.84239 0.0
C138 C 0.60659 0.06439 0.81999 0.0
C139 C 0.56216 1.02817 0.83954 0.0
H140 H 0.73635 0.09263 0.80477 0.0
H141 H 0.56329 0.09324 0.80235 0.0
S142 S 0.69017 0.92526 0.90517 0.0
N143 N 0.77625 0.95457 0.88721 0.0
N144 N 0.58912 0.95547 0.88547 0.0
C145 C 0.62258 0.99172 0.86279 0.0
C146 C 0.72458 0.99128 0.86398 0.0
C147 C 0.40676 0.06646 0.33766 0.0
C148 C 0.44686 0.04675 0.2886 0.0
C149 C 0.30786 0.05829 0.33505 0.0
C150 C 0.24462 1.02959 0.28387 0.0
H151 H 0.45209 0.08856 0.37873 0.0
H152 H 0.2814 0.07435 0.37437 0.0
S153 S 0.31215 0.96999 0.14225 0.0
N154 N 0.41445 0.99785 0.18592 0.0
N155 N 0.22909 0.98187 0.18181 0.0
C156 C 0.28326 1.00985 0.23394 0.0
C157 C 0.38397 1.01862 0.23602 0.0
C158 C 0.22189 0.48041 0.35508 0.0
C159 C 0.27819 0.51839 0.36224 0.0
C160 C 0.12283 0.48074 0.35611 0.0
C161 C 0.076 0.51905 0.3645 0.0
H162 H 0.25341 0.45026 0.34646 0.0
H163 H 0.08176 0.4508 0.34812 0.0
S164 S 0.19667 0.6262 0.39837 0.0
N165 N 0.28346 0.59474 0.38671 0.0
N166 N 0.09818 0.59523 0.38911 0.0
C167 C 0.13343 0.5569 0.37589 0.0
C168 C 0.23415 0.5566 0.37465 0.0
C169 C 0.78411 0.48743 0.75433 0.0
C170 C 0.7244 0.52421 0.73385 0.0
C171 C 0.88568 0.48761 0.75904 0.0
C172 C 0.93172 0.52454 0.74325 0.0
H173 H 0.75315 0.45858 0.76908 0.0
H174 H 0.92901 0.45881 0.77707 0.0
S175 S 0.80391 0.6272 0.67571 0.0
N176 N 0.71598 0.59721 0.68998 0.0
N177 N 0.90604 0.59749 0.69838 0.0
C178 C 0.87134 0.56087 0.719 0.0
C179 C 0.76804 0.56071 0.71442 0.0
C180 C 0.02488 0.97832 0.58417 0.0
C181 C 0.03968 1.01739 0.62212 0.0
C182 C 0.97906 0.97692 0.50774 0.0
C183 C 0.94344 1.01436 0.46754 0.0
H184 H 0.05106 0.94891 0.6135 0.0
H185 H 0.97115 0.94642 0.47995 0.0
S186 S 0.96072 0.12423 0.54246 0.0
N187 N 0.01431 0.09406 0.61458 0.0
N188 N 0.92476 0.09134 0.47176 0.0
C189 C 0.95553 0.05337 0.50543 0.0
C190 C 0.00459 0.05491 0.58259 0.0
C191 C 0.39982 0.51018 1.01697 0.0
C192 C 0.45749 0.51173 0.97058 0.0
C193 C 0.44591 0.5078 0.09323 0.0
C194 C 0.55151 0.50801 0.12617 0.0
H195 H 0.31838 0.51096 0.9942 0.0
H196 H 0.39835 0.50731 0.12673 0.0
S197 S 0.73667 0.51107 1.02916 0.0
N198 N 0.62606 0.51218 0.96323 0.0
N199 N 0.7123 0.50897 0.10628 0.0
C200 C 0.60998 0.5091 0.08037 0.0
C201 C 0.56312 0.51059 1.00273 0.0
C202 C 0.45778 1.02177 1.00716 0.0
C203 C 0.41076 0.06165 0.99449 0.0
C204 C 0.55975 1.01866 1.04678 0.0
C205 C 0.61682 0.05533 0.07486 0.0
H206 H 0.41455 0.99268 0.98884 0.0
H207 H 0.59438 0.9874 0.05538 0.0
S208 S 0.52899 0.16705 0.05486 0.0
N209 N 0.42699 0.13842 1.0126 0.0
N210 N 0.62228 0.13264 0.0851 0.0
C211 C 0.5717 0.09551 0.06129 0.0
C212 C 0.46705 0.09864 1.0217 0.0
C213 C 0.05102 0.52854 0.58213 0.0
C214 C 0.10216 0.56775 0.59343 0.0
C215 C 0.94959 0.52621 0.54061 0.0
C216 C 0.89669 0.56309 0.51005 0.0
H217 H 0.09041 0.49925 0.60343 0.0
H218 H 0.91177 0.49548 0.53339 0.0
S219 S 0.99563 0.67351 0.52694 0.0
N220 N 0.09427 0.64413 0.57152 0.0
N221 N 0.89919 0.6401 0.49688 0.0
C222 C 0.94579 0.6027 0.52256 0.0
C223 C 0.05028 0.60493 0.56336 0.0
C224 C 0.96292 0.99571 1.04395 0.0
C225 C 0.95587 1.02593 0.09513 0.0
C226 C 0.03387 1.0007 1.00917 0.0
C227 C 0.09498 0.0372 1.02152 0.0
H228 H 0.91103 0.96907 1.02835 0.0
H229 H 0.03935 0.97618 0.97196 0.0
S230 S 0.10673 0.12455 0.15369 0.0
N231 N 0.0186 0.09179 0.16043 0.0
N232 N 0.1484 0.10282 0.09219 0.0
C233 C 0.09084 0.06679 0.07495 0.0
C234 C 0.02139 0.06087 0.11207 0.0
C235 C 0.45774 0.57989 0.55597 0.0
C236 C 0.42599 0.5426 0.58144 0.0
C237 C 0.52612 0.57803 0.5191 0.0
C238 C 0.56369 0.53878 0.50588 0.0
H239 H 0.42969 0.61082 0.56491 0.0
H240 H 0.55166 0.60762 0.50221 0.0
S241 S 0.5004 0.43183 0.55812 0.0
N242 N 0.43227 0.46519 0.58746 0.0
N243 N 0.56524 0.46187 0.52017 0.0
C244 C 0.53183 0.50115 0.52994 0.0
C245 C 0.46124 0.50301 0.5672 0.0
C246 C 0.32519 0.2432 0.74656 0.0
C247 C 0.31091 0.24068 0.81446 0.0
C248 C 0.34283 0.2826 0.719 0.0
C249 C 0.3483 0.32068 0.75875 0.0
H250 H 0.31339 0.21537 0.71147 0.0
H251 H 0.34463 0.28371 0.6638 0.0
S252 S 0.33388 0.3299 0.94481 0.0
N253 N 0.3171 0.27851 0.92507 0.0
N254 N 0.35069 0.35257 0.87325 0.0
C255 C 0.3447 0.31793 0.82982 0.0
C256 C 0.32569 0.27787 0.85761 0.0
C257 C 0.64548 0.3082 0.26801 0.0
C258 C 0.6391 0.31061 0.33841 0.0
C259 C 0.66337 0.26906 0.23936 0.0
C260 C 0.67426 0.23093 0.27961 0.0
H261 H 0.64611 0.33709 0.23769 0.0
H262 H 0.67602 0.26915 0.18748 0.0
S263 S 0.64699 0.21951 0.46162 0.0
N264 N 0.63172 0.271 0.44363 0.0
N265 N 0.66526 0.19761 0.38994 0.0
C266 C 0.65775 0.23238 0.34683 0.0
C267 C 0.64033 0.27224 0.37619 0.0
C268 C 0.894 0.7697 0.24222 0.0
C269 C 0.88122 0.80932 0.27232 0.0
C270 C 0.8657 0.7313 0.2668 0.0
C271 C 0.82302 0.73108 0.32235 0.0
H272 H 0.91903 0.76861 0.19542 0.0
H273 H 0.86914 0.70224 0.23756 0.0
S274 S 0.79156 0.82505 0.42893 0.0
N275 N 0.83596 0.84521 0.36758 0.0
N276 N 0.7845 0.77297 0.41476 0.0
C277 C 0.81982 0.76994 0.3581 0.0
C278 C 0.84871 0.8091 0.33302 0.0
C279 C 0.14897 0.73996 0.83794 0.0
C280 C 0.18357 0.738 0.77831 0.0
C281 C 0.12486 0.7792 0.86244 0.0
C282 C 0.13325 0.81776 0.82777 0.0
H283 H 0.14979 0.71177 0.87023 0.0
H284 H 0.10747 0.77975 0.91255 0.0
S285 S 0.20087 0.82856 0.66053 0.0
N286 N 0.20997 0.77692 0.67836 0.0
N287 N 0.16463 0.85066 0.72457 0.0
C288 C 0.15667 0.81561 0.76328 0.0
C289 C 0.18206 0.77568 0.73862 0.0
loop_
_geom_bond_atom_site_label_1
_geom_bond_atom_site_label_2
_geom_bond_distance
_geom_bond_site_symmetry_2
_ccdc_geom_bond_type
Zn0 N4 2.020 . S
Zn0 O8 2.019 . S
Zn0 N10 2.119 . S
Zn0 O18 1.975 . S
C1 N2 1.335 . S
C1 N5 1.336 . S
N2 C1 1.335 . S
N2 C3 1.333 1_565 S
C3 N2 1.333 1_545 S
C3 N4 1.336 . S
N4 Zn0 2.020 . S
N4 C3 1.336 . S
N4 N5 1.354 1_545 S
N5 C1 1.336 . S
N5 N4 1.354 1_565 S
N5 Zn9 2.020 . S
C6 O7 1.244 1_565 S
C6 O30 1.257 . S
O7 C6 1.244 1_545 S
O8 Zn0 2.019 . S
O8 C28 1.257 . S
Zn9 N5 2.020 . S
Zn9 O16 1.975 . S
Zn9 N25 2.119 . S
Zn9 O30 2.019 1_455 S
N10 Zn0 2.119 . S
N10 C12 1.334 . S
N10 C13 1.328 . S
C11 C12 1.391 . S
C11 N14 1.329 . S
C11 H32 0.930 . S
C12 N10 1.334 . S
C12 C11 1.391 . S
C12 H19 0.930 . S
C13 N10 1.328 . S
C13 C15 1.392 . S
C13 H20 0.930 . S
N14 C11 1.329 . S
N14 C15 1.331 . S
C15 C13 1.392 . S
C15 N14 1.331 . S
O16 Zn9 1.975 . S
O16 C17 1.249 1_565 S
C17 O16 1.249 1_545 S
C17 O18 1.255 . S
O18 Zn0 1.975 . S
O18 C17 1.255 . S
H19 C12 0.930 . S
H20 C13 0.930 . S
C21 C22 1.392 . S
C21 N25 1.328 . S
C21 H27 0.930 1_455 S
C22 C21 1.392 . S
C22 N26 1.331 . S
C23 C24 1.391 . S
C23 N26 1.329 . S
C23 H33 0.930 . S
C24 C23 1.391 . S
C24 N25 1.334 . S
C24 H31 0.930 . S
N25 Zn9 2.119 . S
N25 C21 1.328 . S
N25 C24 1.334 . S
N26 C22 1.331 . S
N26 C23 1.329 . S
H27 C21 0.930 1_655 S
C28 O8 1.257 . S
C28 O29 1.244 1_545 S
O29 C28 1.244 1_565 S
O30 C6 1.257 . S
O30 Zn9 2.019 1_655 S
H31 C24 0.930 . S
H32 C11 0.930 . S
H33 C23 0.930 . S
Zn34 N38 2.020 . S
Zn34 O42 2.019 . S
Zn34 N44 2.119 . S
Zn34 O52 1.975 . S
C35 N36 1.335 . S
C35 N39 1.336 . S
N36 C35 1.335 . S
N36 C37 1.333 1_565 S
C37 N36 1.333 1_545 S
C37 N38 1.336 . S
N38 Zn34 2.020 . S
N38 C37 1.336 . S
N38 N39 1.354 1_545 S
N39 C35 1.336 . S
N39 N38 1.354 1_565 S
N39 Zn43 2.020 . S
C40 O41 1.244 1_565 S
C40 O64 1.257 . S
O41 C40 1.244 1_545 S
O42 Zn34 2.019 . S
O42 C62 1.257 . S
Zn43 N39 2.020 . S
Zn43 O50 1.975 . S
Zn43 N59 2.119 . S
Zn43 O64 2.019 1_655 S
N44 Zn34 2.119 . S
N44 C46 1.334 . S
N44 C47 1.328 . S
C45 C46 1.391 . S
C45 N48 1.329 . S
C45 H66 0.930 . S
C46 N44 1.334 . S
C46 C45 1.391 . S
C46 H53 0.930 . S
C47 N44 1.328 . S
C47 C49 1.392 . S
C47 H54 0.930 . S
N48 C45 1.329 . S
N48 C49 1.331 . S
C49 C47 1.392 . S
C49 N48 1.331 . S
O50 Zn43 1.975 . S
O50 C51 1.249 1_565 S
C51 O50 1.249 1_545 S
C51 O52 1.255 . S
O52 Zn34 1.975 . S
O52 C51 1.255 . S
H53 C46 0.930 . S
H54 C47 0.930 . S
C55 C56 1.392 . S
C55 N59 1.328 . S
C55 H61 0.930 1_655 S
C56 C55 1.392 . S
C56 N60 1.331 . S
C57 C58 1.391 . S
C57 N60 1.329 . S
C57 H67 0.930 . S
C58 C57 1.391 . S
C58 N59 1.334 . S
C58 H65 0.930 . S
N59 Zn43 2.119 . S
N59 C55 1.328 . S
N59 C58 1.334 . S
N60 C56 1.331 . S
N60 C57 1.329 . S
H61 C55 0.930 1_455 S
C62 O42 1.257 . S
C62 O63 1.244 1_545 S
O63 C62 1.244 1_565 S
O64 C40 1.257 . S
O64 Zn43 2.019 1_455 S
H65 C58 0.930 . S
H66 C45 0.930 . S
H67 C57 0.930 . S
Zn68 N72 2.020 . S
Zn68 O76 2.019 . S
Zn68 N78 2.119 . S
Zn68 O86 1.975 . S
C69 N70 1.334 . S
C69 N73 1.336 . S
N70 C69 1.334 . S
N70 C71 1.334 . S
C71 N70 1.334 . S
C71 N72 1.336 . S
N72 Zn68 2.020 . S
N72 C71 1.336 . S
N72 N73 1.354 . S
N73 C69 1.336 . S
N73 N72 1.354 . S
N73 Zn77 2.020 . S
C74 O75 1.244 . S
C74 O98 1.257 . S
O75 C74 1.244 . S
O76 Zn68 2.019 . S
O76 C96 1.257 . S
Zn77 N73 2.020 . S
Zn77 O84 1.975 . S
Zn77 N93 2.119 . S
Zn77 O98 2.019 . S
N78 Zn68 2.119 . S
N78 C80 1.334 . S
N78 C81 1.328 . S
C79 C80 1.391 . S
C79 N82 1.329 . S
C79 H100 0.930 . S
C80 N78 1.334 . S
C80 C79 1.391 . S
C80 H87 0.930 . S
C81 N78 1.328 . S
C81 C83 1.392 . S
C81 H88 0.930 . S
N82 C79 1.329 . S
N82 C83 1.331 . S
C83 C81 1.392 . S
C83 N82 1.331 . S
O84 Zn77 1.975 . S
O84 C85 1.252 . S
C85 O84 1.252 . S
C85 O86 1.252 . S
O86 Zn68 1.975 . S
O86 C85 1.252 . S
H87 C80 0.930 . S
H88 C81 0.930 . S
C89 C90 1.392 . S
C89 N93 1.328 . S
C89 H95 0.930 . S
C90 C89 1.392 . S
C90 N94 1.331 . S
C91 C92 1.391 . S
C91 N94 1.329 . S
C91 H101 0.930 . S
C92 C91 1.391 . S
C92 N93 1.334 . S
C92 H99 0.930 . S
N93 Zn77 2.119 . S
N93 C89 1.328 . S
N93 C92 1.334 . S
N94 C90 1.331 . S
N94 C91 1.329 . S
H95 C89 0.930 . S
C96 O76 1.257 . S
C96 O97 1.244 . S
O97 C96 1.244 . S
O98 C74 1.257 . S
O98 Zn77 2.019 . S
H99 C92 0.930 . S
H100 C79 0.930 . S
H101 C91 0.930 . S
Zn102 N106 2.020 . S
Zn102 O110 2.019 . S
Zn102 N112 2.119 . S
Zn102 O120 1.975 . S
C103 N104 1.334 . S
C103 N107 1.336 . S
N104 C103 1.334 . S
N104 C105 1.334 . S
C105 N104 1.334 . S
C105 N106 1.336 . S
N106 Zn102 2.020 . S
N106 C105 1.336 . S
N106 N107 1.354 . S
N107 C103 1.336 . S
N107 N106 1.354 . S
N107 Zn111 2.020 . S
C108 O109 1.244 . S
C108 O132 1.257 . S
O109 C108 1.244 . S
O110 Zn102 2.019 . S
O110 C130 1.257 . S
Zn111 N107 2.020 . S
Zn111 O118 1.975 . S
Zn111 N127 2.119 . S
Zn111 O132 2.019 . S
N112 Zn102 2.119 . S
N112 C114 1.334 . S
N112 C115 1.328 . S
C113 C114 1.391 . S
C113 N116 1.329 . S
C113 H134 0.930 . S
C114 N112 1.334 . S
C114 C113 1.391 . S
C114 H121 0.930 . S
C115 N112 1.328 . S
C115 C117 1.392 . S
C115 H122 0.930 . S
N116 C113 1.329 . S
N116 C117 1.331 . S
C117 C115 1.392 . S
C117 N116 1.331 . S
O118 Zn111 1.975 . S
O118 C119 1.252 . S
C119 O118 1.252 . S
C119 O120 1.252 . S
O120 Zn102 1.975 . S
O120 C119 1.252 . S
H121 C114 0.930 . S
H122 C115 0.930 . S
C123 C124 1.392 . S
C123 N127 1.328 . S
C123 H129 0.930 . S
C124 C123 1.392 . S
C124 N128 1.331 . S
C125 C126 1.391 . S
C125 N128 1.329 . S
C125 H135 0.930 . S
C126 C125 1.391 . S
C126 N127 1.334 . S
C126 H133 0.930 . S
N127 Zn111 2.119 . S
N127 C123 1.328 . S
N127 C126 1.334 . S
N128 C124 1.331 . S
N128 C125 1.329 . S
H129 C123 0.930 . S
C130 O110 1.257 . S
C130 O131 1.244 . S
O131 C130 1.244 . S
O132 C108 1.257 . S
O132 Zn111 2.019 . S
H133 C126 0.930 . S
H134 C113 0.930 . S
H135 C125 0.930 . S
C136 C137 1.370 . S
C136 C138 1.417 1_565 S
C136 H140 0.930 . S
C137 C136 1.370 . S
C137 C146 1.429 . S
C138 C136 1.417 1_545 S
C138 C139 1.363 . S
C138 H141 0.929 . S
C139 C138 1.363 . S
C139 C145 1.428 . S
H140 C136 0.930 . S
H141 C138 0.929 . S
S142 N143 1.613 . S
S142 N144 1.610 1_565 S
N143 S142 1.613 . S
N143 C146 1.350 . S
N144 S142 1.610 1_545 S
N144 C145 1.351 . S
C145 C139 1.428 . S
C145 N144 1.351 . S
C145 C146 1.434 1_545 S
C146 C137 1.429 . S
C146 N143 1.350 . S
C146 C145 1.434 1_565 S
C147 C148 1.369 . S
C147 C149 1.419 1_545 S
C147 H151 0.930 . S
C148 C147 1.369 . S
C148 C157 1.429 . S
C149 C147 1.419 1_565 S
C149 C150 1.363 . S
C149 H152 0.929 . S
C150 C149 1.363 . S
C150 C156 1.428 . S
H151 C147 0.930 . S
H152 C149 0.929 . S
S153 N154 1.613 1_565 S
S153 N155 1.610 . S
N154 S153 1.613 1_545 S
N154 C157 1.350 . S
N155 S153 1.610 . S
N155 C156 1.351 . S
C156 C150 1.428 . S
C156 N155 1.351 . S
C156 C157 1.434 1_565 S
C157 C148 1.429 . S
C157 N154 1.350 . S
C157 C156 1.434 1_545 S
C158 C159 1.369 . S
C158 C160 1.419 . S
C158 H162 0.930 . S
C159 C158 1.369 . S
C159 C168 1.429 . S
C160 C158 1.419 . S
C160 C161 1.363 . S
C160 H163 0.929 . S
C161 C160 1.363 . S
C161 C167 1.428 . S
H162 C158 0.930 . S
H163 C160 0.929 . S
S164 N165 1.613 . S
S164 N166 1.610 . S
N165 S164 1.613 . S
N165 C168 1.350 . S
N166 S164 1.610 . S
N166 C167 1.351 . S
C167 C161 1.428 . S
C167 N166 1.351 . S
C167 C168 1.434 . S
C168 C159 1.429 . S
C168 N165 1.350 . S
C168 C167 1.434 . S
C169 C170 1.369 . S
C169 C171 1.419 . S
C169 H173 0.930 . S
C170 C169 1.369 . S
C170 C179 1.429 . S
C171 C169 1.419 . S
C171 C172 1.363 . S
C171 H174 0.929 . S
C172 C171 1.363 . S
C172 C178 1.428 . S
H173 C169 0.930 . S
H174 C171 0.929 . S
S175 N176 1.613 . S
S175 N177 1.610 . S
N176 S175 1.613 . S
N176 C179 1.350 . S
N177 S175 1.610 . S
N177 C178 1.351 . S
C178 C172 1.428 . S
C178 N177 1.351 . S
C178 C179 1.434 . S
C179 C170 1.429 . S
C179 N176 1.350 . S
C179 C178 1.434 . S
C180 C181 1.369 1_665 S
C180 C182 1.419 . S
C180 H184 0.930 . S
C181 C180 1.369 1_445 S
C181 C190 1.429 . S
C182 C180 1.419 . S
C182 C183 1.363 1_565 S
C182 H185 0.929 . S
C183 C182 1.363 1_545 S
C183 C189 1.428 1_655 S
H184 C180 0.930 . S
H185 C182 0.929 . S
S186 N187 1.613 . S
S186 N188 1.610 . S
N187 S186 1.613 . S
N187 C190 1.350 . S
N188 S186 1.610 . S
N188 C189 1.351 . S
C189 C183 1.428 1_455 S
C189 N188 1.351 . S
C189 C190 1.434 . S
C190 C181 1.429 . S
C190 N187 1.350 . S
C190 C189 1.434 . S
C191 C192 1.369 . S
C191 C193 1.419 1_556 S
C191 H195 0.930 . S
C192 C191 1.369 . S
C192 C201 1.429 . S
C193 C191 1.419 1_554 S
C193 C194 1.363 . S
C193 H196 0.929 . S
C194 C193 1.363 . S
C194 C200 1.428 . S
H195 C191 0.930 . S
H196 C193 0.929 . S
S197 N198 1.613 . S
S197 N199 1.610 1_556 S
N198 S197 1.613 . S
N198 C201 1.350 . S
N199 S197 1.610 1_554 S
N199 C200 1.351 . S
C200 C194 1.428 . S
C200 N199 1.351 . S
C200 C201 1.434 1_554 S
C201 C192 1.429 . S
C201 N198 1.350 . S
C201 C200 1.434 1_556 S
C202 C203 1.369 1_554 S
C202 C204 1.419 . S
C202 H206 0.937 . S
C203 C202 1.369 1_556 S
C203 C212 1.429 . S
C204 C202 1.419 . S
C204 C205 1.363 . S
C204 H207 0.927 1_545 S
C205 C204 1.363 . S
C205 C211 1.428 1_554 S
H206 C202 0.937 . S
H207 C204 0.927 1_565 S
S208 N209 1.613 . S
S208 N210 1.610 . S
N209 S208 1.613 . S
N209 C212 1.350 . S
N210 S208 1.610 . S
N210 C211 1.351 . S
C211 C205 1.428 1_556 S
C211 N210 1.351 . S
C211 C212 1.434 . S
C212 C203 1.429 . S
C212 N209 1.350 . S
C212 C211 1.434 . S
C213 C214 1.369 . S
C213 C215 1.419 1_455 S
C213 H217 0.930 . S
C214 C213 1.369 . S
C214 C223 1.428 1_455 S
C215 C213 1.419 1_655 S
C215 C216 1.363 . S
C215 H218 0.929 . S
C216 C215 1.363 . S
C216 C222 1.428 . S
H217 C213 0.930 . S
H218 C215 0.929 . S
S219 N220 1.613 . S
S219 N221 1.610 . S
N220 S219 1.613 . S
N220 C223 1.350 . S
N221 S219 1.610 . S
N221 C222 1.351 . S
C222 C216 1.428 . S
C222 N221 1.351 . S
C222 C223 1.435 . S
C223 C214 1.428 1_655 S
C223 N220 1.350 . S
C223 C222 1.435 . S
C224 C225 1.369 1_556 S
C224 C226 1.419 . S
C224 H228 0.930 . S
C225 C224 1.369 1_554 S
C225 C234 1.429 1_655 S
C226 C224 1.419 . S
C226 C227 1.363 1_655 S
C226 H229 0.929 . S
C227 C226 1.363 1_455 S
C227 C233 1.428 1_556 S
H228 C224 0.930 . S
H229 C226 0.929 . S
S230 N231 1.613 . S
S230 N232 1.610 . S
N231 S230 1.613 . S
N231 C234 1.350 . S
N232 S230 1.610 . S
N232 C233 1.351 . S
C233 C227 1.428 1_554 S
C233 N232 1.351 . S
C233 C234 1.434 . S
C234 C225 1.429 1_455 S
C234 N231 1.350 . S
C234 C233 1.434 . S
C235 C236 1.369 . S
C235 C237 1.419 . S
C235 H239 0.930 . S
C236 C235 1.369 . S
C236 C245 1.429 . S
C237 C235 1.419 . S
C237 C238 1.363 . S
C237 H240 0.929 . S
C238 C237 1.363 . S
C238 C244 1.428 . S
H239 C235 0.930 . S
H240 C237 0.929 . S
S241 N242 1.613 . S
S241 N243 1.610 . S
N242 S241 1.613 . S
N242 C245 1.350 . S
N243 S241 1.610 . S
N243 C244 1.351 . S
C244 C238 1.428 . S
C244 N243 1.351 . S
C244 C245 1.434 . S
C245 C236 1.429 . S
C245 N242 1.350 . S
C245 C244 1.434 . S
C246 C247 1.369 . S
C246 C248 1.419 . S
C246 H250 0.930 . S
C247 C246 1.369 . S
C247 C256 1.429 . S
C248 C246 1.419 . S
C248 C249 1.363 . S
C248 H251 0.929 . S
C249 C248 1.363 . S
C249 C255 1.428 . S
H250 C246 0.930 . S
H251 C248 0.929 . S
S252 N253 1.613 . S
S252 N254 1.610 . S
N253 S252 1.613 . S
N253 C256 1.350 . S
N254 S252 1.610 . S
N254 C255 1.351 . S
C255 C249 1.428 . S
C255 N254 1.351 . S
C255 C256 1.434 . S
C256 C247 1.429 . S
C256 N253 1.350 . S
C256 C255 1.434 . S
C257 C258 1.369 . S
C257 C259 1.419 . S
C257 H261 0.930 . S
C258 C257 1.369 . S
C258 C267 1.429 . S
C259 C257 1.419 . S
C259 C260 1.363 . S
C259 H262 0.929 . S
C260 C259 1.363 . S
C260 C266 1.428 . S
H261 C257 0.930 . S
H262 C259 0.929 . S
S263 N264 1.613 . S
S263 N265 1.610 . S
N264 S263 1.613 . S
N264 C267 1.350 . S
N265 S263 1.610 . S
N265 C266 1.351 . S
C266 C260 1.428 . S
C266 N265 1.351 . S
C266 C267 1.434 . S
C267 C258 1.429 . S
C267 N264 1.350 . S
C267 C266 1.434 . S
C268 C269 1.369 . S
C268 C270 1.419 . S
C268 H272 0.930 . S
C269 C268 1.369 . S
C269 C278 1.429 . S
C270 C268 1.419 . S
C270 C271 1.363 . S
C270 H273 0.929 . S
C271 C270 1.363 . S
C271 C277 1.428 . S
H272 C268 0.930 . S
H273 C270 0.929 . S
S274 N275 1.613 . S
S274 N276 1.610 . S
N275 S274 1.613 . S
N275 C278 1.350 . S
N276 S274 1.610 . S
N276 C277 1.351 . S
C277 C271 1.428 . S
C277 N276 1.351 . S
C277 C278 1.434 . S
C278 C269 1.429 . S
C278 N275 1.350 . S
C278 C277 1.434 . S
C279 C280 1.369 . S
C279 C281 1.419 . S
C279 H283 0.930 . S
C280 C279 1.369 . S
C280 C289 1.429 . S
C281 C279 1.419 . S
C281 C282 1.363 . S
C281 H284 0.929 . S
C282 C281 1.363 . S
C282 C288 1.428 . S
H283 C279 0.930 . S
H284 C281 0.929 . S
S285 N286 1.613 1_655 S
S285 N287 1.610 . S
N286 S285 1.613 1_455 S
N286 C289 1.350 . S
N287 S285 1.610 . S
N287 C288 1.351 1_655 S
C288 C282 1.428 . S
C288 N287 1.351 1_455 S
C288 C289 1.434 . S
C289 C280 1.429 . S
C289 N286 1.350 . S
C289 C288 1.434 . S
C137 C6 1.203 . S
C139 C28 1.204 . S
C148 C62 1.203 . S
C150 C40 1.201 . S
C159 C74 1.199 . S
C161 C96 1.206 1_455 S
C170 C108 1.202 . S
C172 C130 1.202 1_655 S
C181 C17 1.895 . S
C183 C51 1.894 . S
C192 C119 1.892 . S
C194 C85 1.896 . S
C203 C3 1.373 . S
C205 C37 1.366 . S
C214 C105 1.373 . S
C216 C71 1.366 . S
C225 C35 2.067 . S
C227 C1 2.066 . S
C236 C103 2.071 . S
C238 C69 2.068 . S
C247 C15 1.924 . S
C249 C124 1.672 . S
C258 C90 1.681 . S
C260 C49 1.928 . S
C269 C56 1.675 . S
C271 C83 1.925 . S
C280 C117 1.926 . S
C282 C22 1.678 . S
