# Generated by pormake.
# Topology snk, (6)-cn, num edge types: 1
# Building blocks:
#     Node 0, Type 0, BuildingBlock: KUMBUR_clean_sbu_1, # of connection points: 6
#     Node 1, Type 0, BuildingBlock: KUMBUR_clean_sbu_1, # of connection points: 6
#     Node 2, Type 0, BuildingBlock: KUMBUR_clean_sbu_1, # of connection points: 6
#     Node 3, Type 0, BuildingBlock: KUMBUR_clean_sbu_1, # of connection points: 6
#     Node 4, Type 0, BuildingBlock: KUMBUR_clean_sbu_1, # of connection points: 6
#     Node 5, Type 0, BuildingBlock: KUMBUR_clean_sbu_1, # of connection points: 6
#     Node 6, Type 0, BuildingBlock: KUMBUR_clean_sbu_1, # of connection points: 6
#     Node 7, Type 0, BuildingBlock: KUMBUR_clean_sbu_1, # of connection points: 6
#     Edge 8, Type (0, 0), BuildingBlock: UVAHIK_clean_linker_0, # of connection points: 2
#     Edge 9, Type (0, 0), BuildingBlock: UVAHIK_clean_linker_0, # of connection points: 2
#     Edge 10, Type (0, 0), BuildingBlock: UVAHIK_clean_linker_0, # of connection points: 2
#     Edge 11, Type (0, 0), BuildingBlock: UVAHIK_clean_linker_0, # of connection points: 2
#     Edge 12, Type (0, 0), BuildingBlock: UVAHIK_clean_linker_0, # of connection points: 2
#     Edge 13, Type (0, 0), BuildingBlock: UVAHIK_clean_linker_0, # of connection points: 2
#     Edge 14, Type (0, 0), BuildingBlock: UVAHIK_clean_linker_0, # of connection points: 2
#     Edge 15, Type (0, 0), BuildingBlock: UVAHIK_clean_linker_0, # of connection points: 2
#     Edge 16, Type (0, 0), BuildingBlock: UVAHIK_clean_linker_0, # of connection points: 2
#     Edge 17, Type (0, 0), BuildingBlock: UVAHIK_clean_linker_0, # of connection points: 2
#     Edge 18, Type (0, 0), BuildingBlock: UVAHIK_clean_linker_0, # of connection points: 2
#     Edge 19, Type (0, 0), BuildingBlock: UVAHIK_clean_linker_0, # of connection points: 2
#     Edge 20, Type (0, 0), BuildingBlock: UVAHIK_clean_linker_0, # of connection points: 2
#     Edge 21, Type (0, 0), BuildingBlock: UVAHIK_clean_linker_0, # of connection points: 2
#     Edge 22, Type (0, 0), BuildingBlock: UVAHIK_clean_linker_0, # of connection points: 2
#     Edge 23, Type (0, 0), BuildingBlock: UVAHIK_clean_linker_0, # of connection points: 2
#     Edge 24, Type (0, 0), BuildingBlock: UVAHIK_clean_linker_0, # of connection points: 2
#     Edge 25, Type (0, 0), BuildingBlock: UVAHIK_clean_linker_0, # of connection points: 2
#     Edge 26, Type (0, 0), BuildingBlock: UVAHIK_clean_linker_0, # of connection points: 2
#     Edge 27, Type (0, 0), BuildingBlock: UVAHIK_clean_linker_0, # of connection points: 2
#     Edge 28, Type (0, 0), BuildingBlock: UVAHIK_clean_linker_0, # of connection points: 2
#     Edge 29, Type (0, 0), BuildingBlock: UVAHIK_clean_linker_0, # of connection points: 2
#     Edge 30, Type (0, 0), BuildingBlock: UVAHIK_clean_linker_0, # of connection points: 2
#     Edge 31, Type (0, 0), BuildingBlock: UVAHIK_clean_linker_0, # of connection points: 2
# Relax obj value: 0.010
# Max RMSD: 0.072
# Mean RMSD: 0.071
data_MOF--net-snk--node1-KUMBUR_clean_sbu_1--edge1-UVAHIK_clean_linker_0
_symmetry_space_group_name_H-M    P1
_symmetry_Int_Tables_number       1
_symmetry_cell_setting            triclinic
loop_
_symmetry_equiv_pos_as_xyz
'x, y, z'
_cell_length_a     50.680816
_cell_length_b     50.53667
_cell_length_c     29.185854
_cell_angle_alpha  90.102544
_cell_angle_beta   90.358577
_cell_angle_gamma 89.953671
loop_
_atom_site_label
_atom_site_type_symbol
_atom_site_fract_x
_atom_site_fract_y
_atom_site_fract_z
_atom_type_partial_charge
Tb0 Tb 1.00051 0.02243 0.57556 0.0
C1 C 0.9751 0.92614 0.45148 0.0
N2 N 0.99912 0.93776 0.45647 0.0
C3 C 0.01983 0.89511 0.45978 0.0
C4 C 0.97247 0.89837 0.45147 0.0
C5 C 0.02142 0.92274 0.45996 0.0
C6 C 0.99524 0.88286 0.4557 0.0
C7 C 0.92764 0.93091 0.44438 0.0
C8 C 0.95298 0.94226 0.44824 0.0
C9 C 0.9249 0.90325 0.44448 0.0
C10 C 0.94725 0.88703 0.44795 0.0
Tb11 Tb 0.99936 0.98287 0.45612 0.0
N12 N 0.95633 0.96901 0.44962 0.0
C13 C 0.90583 0.94771 0.44028 0.0
C14 C 0.93525 0.9853 0.44192 0.0
C15 C 0.90972 0.975 0.43831 0.0
H16 H 0.0405 0.93201 0.46169 0.0
H17 H 0.89309 0.98813 0.43306 0.0
H18 H 0.94974 0.06408 0.57929 0.0
H19 H 0.10581 0.03739 0.59022 0.0
H20 H 0.93782 0.00609 0.43658 0.0
H21 H 0.88603 0.9398 0.4373 0.0
H22 H 0.06513 0.01105 0.58361 0.0
H23 H 0.03759 0.8833 0.46256 0.0
H24 H 0.90557 0.89421 0.44176 0.0
H25 H 0.94481 0.86573 0.44807 0.0
H26 H 0.94311 0.11243 0.5831 0.0
H27 H 0.99406 0.86145 0.45579 0.0
H28 H 0.10326 0.08623 0.5946 0.0
N29 N 0.99162 0.06661 0.58095 0.0
C30 C 0.01298 0.08266 0.58554 0.0
C31 C 0.96289 0.10432 0.58352 0.0
C32 C 0.01014 0.11035 0.58858 0.0
C33 C 0.96671 0.07696 0.58071 0.0
C34 C 0.98469 0.12111 0.58727 0.0
N35 N 0.03973 0.04451 0.58176 0.0
C36 C 0.06369 0.03225 0.58456 0.0
C37 C 0.06058 0.08712 0.59081 0.0
C38 C 0.03786 0.07123 0.58668 0.0
C39 C 0.08529 0.07474 0.59153 0.0
C40 C 0.08682 0.04717 0.58882 0.0
H41 H 0.98165 0.1423 0.58948 0.0
H42 H 0.03096 0.14765 0.59492 0.0
H43 H 0.07512 0.12731 0.59682 0.0
O44 O 0.01333 0.00487 0.63695 0.0
O45 O 0.02003 0.04122 0.51686 0.0
O46 O 0.03395 0.00826 0.4673 0.0
O47 O 0.98327 0.03484 0.63741 0.0
O48 O 0.02189 0.98463 0.57049 0.0
O49 O 0.03589 0.97751 0.49576 0.0
O50 O 0.98827 0.99519 0.39001 0.0
O51 O 0.98432 0.96377 0.51859 0.0
O52 O 0.96608 0.99745 0.56075 0.0
O53 O 0.01926 0.96677 0.39942 0.0
O54 O 0.9821 0.02288 0.45969 0.0
O55 O 0.96532 0.02585 0.53263 0.0
C56 C 0.03531 0.03248 0.48387 0.0
C57 C 0.98165 0.00241 0.69499 0.0
C58 C 0.97375 0.98902 0.77391 0.0
C59 C 0.95357 0.97205 0.75837 0.0
C60 C 0.96156 0.98543 0.68025 0.0
C61 C 0.94757 0.97028 0.71173 0.0
C62 C 0.98777 0.00415 0.74176 0.0
C63 C 0.03826 0.97414 0.5405 0.0
C64 C 0.99667 0.01807 0.66192 0.0
C65 C 0.03273 0.12632 0.59264 0.0
C66 C 0.05788 0.11473 0.59376 0.0
C67 C 0.96664 0.97254 0.54765 0.0
C68 C 0.02231 0.99546 0.33616 0.0
C69 C 0.0296 0.00859 0.25693 0.0
C70 C 0.05123 0.024 0.27134 0.0
C71 C 0.04406 0.01068 0.34977 0.0
C72 C 0.01512 0.99444 0.28978 0.0
C73 C 0.05839 0.02498 0.31756 0.0
C74 C 0.96633 0.03394 0.48994 0.0
C75 C 0.00644 0.98125 0.37006 0.0
H76 H 0.94217 0.96042 0.78228 0.0
H77 H 0.95682 0.984 0.64445 0.0
H78 H 0.932 0.95723 0.69999 0.0
H79 H 0.00367 0.01703 0.75294 0.0
H80 H 0.0629 0.03489 0.2468 0.0
H81 H 0.04988 0.01139 0.38522 0.0
H82 H 0.99809 0.98286 0.27939 0.0
H83 H 0.07516 0.03673 0.32841 0.0
Tb84 Tb 0.23022 0.75023 0.82627 0.0
C85 C 0.32029 0.72066 0.69094 0.0
N86 N 0.31122 0.74465 0.70469 0.0
C87 C 0.3556 0.75989 0.71579 0.0
C88 C 0.34752 0.71504 0.69036 0.0
C89 C 0.32838 0.76445 0.71607 0.0
C90 C 0.36523 0.73503 0.70314 0.0
C91 C 0.3106 0.67639 0.66395 0.0
C92 C 0.30203 0.70165 0.67814 0.0
C93 C 0.33769 0.67042 0.66421 0.0
C94 C 0.35612 0.68973 0.67729 0.0
Tb95 Tb 0.2667 0.75053 0.70206 0.0
N96 N 0.27599 0.70827 0.67799 0.0
C97 C 0.29175 0.65814 0.64877 0.0
C98 C 0.25786 0.69118 0.65964 0.0
C99 C 0.26531 0.66573 0.64595 0.0
H100 H 0.32114 0.78389 0.72474 0.0
H101 H 0.25072 0.65217 0.63225 0.0
H102 H 0.18277 0.7044 0.81358 0.0
H103 H 0.22369 0.85027 0.88827 0.0
H104 H 0.23776 0.69719 0.65374 0.0
H105 H 0.2975 0.63852 0.63761 0.0
H106 H 0.24627 0.80845 0.86773 0.0
H107 H 0.36913 0.77559 0.72508 0.0
H108 H 0.34462 0.65108 0.65364 0.0
H109 H 0.37696 0.68494 0.6769 0.0
H110 H 0.13475 0.70369 0.80195 0.0
H111 H 0.38632 0.73153 0.70309 0.0
H112 H 0.17541 0.85454 0.87688 0.0
N113 N 0.18526 0.74643 0.81799 0.0
C114 C 0.17123 0.76905 0.82466 0.0
C115 C 0.1448 0.72233 0.80738 0.0
C116 C 0.14347 0.7694 0.8211 0.0
C117 C 0.17225 0.72293 0.81254 0.0
C118 C 0.13036 0.74577 0.81082 0.0
N119 N 0.21126 0.78993 0.8433 0.0
C120 C 0.22526 0.81037 0.86214 0.0
C121 C 0.17088 0.81476 0.85023 0.0
C122 C 0.18462 0.79144 0.83887 0.0
C123 C 0.18523 0.83627 0.8676 0.0
C124 C 0.21251 0.83395 0.87401 0.0
H125 H 0.10905 0.74518 0.80772 0.0
H126 H 0.10836 0.79369 0.8271 0.0
H127 H 0.1324 0.83343 0.85274 0.0
O128 O 0.2505 0.75287 0.88967 0.0
O129 O 0.22411 0.78391 0.77892 0.0
O130 O 0.22583 0.76296 0.71002 0.0
O131 O 0.21414 0.73172 0.88417 0.0
O132 O 0.26893 0.76948 0.82197 0.0
O133 O 0.2732 0.78504 0.74703 0.0
O134 O 0.26556 0.748 0.63012 0.0
O135 O 0.28804 0.73435 0.76187 0.0
O136 O 0.25453 0.71677 0.80431 0.0
O137 O 0.27427 0.78489 0.66354 0.0
O138 O 0.22793 0.73112 0.70751 0.0
O139 O 0.22457 0.71518 0.78171 0.0
C140 C 0.21847 0.7831 0.73495 0.0
C141 C 0.2221 0.75436 0.95365 0.0
C142 C 0.22701 0.76604 0.03452 0.0
C143 C 0.20395 0.78137 0.03154 0.0
C144 C 0.19853 0.769 0.95211 0.0
C145 C 0.18972 0.78265 0.99062 0.0
C146 C 0.23614 0.75257 0.99536 0.0
C147 C 0.27883 0.78589 0.79136 0.0
C148 C 0.23194 0.74091 0.91207 0.0
C149 C 0.12967 0.79299 0.83 0.0
C150 C 0.14335 0.8156 0.84473 0.0
C151 C 0.27961 0.71811 0.79374 0.0
C152 C 0.29228 0.7777 0.58917 0.0
C153 C 0.30395 0.77899 0.50796 0.0
C154 C 0.32897 0.78883 0.52019 0.0
C155 C 0.3173 0.78774 0.60051 0.0
C156 C 0.28578 0.7732 0.54283 0.0
C157 C 0.33557 0.79305 0.56615 0.0
C158 C 0.21849 0.7142 0.73767 0.0
C159 C 0.27223 0.77254 0.62447 0.0
H160 H 0.19662 0.79184 0.06129 0.0
H161 H 0.1867 0.76973 0.92135 0.0
H162 H 0.17165 0.79405 0.98884 0.0
H163 H 0.25408 0.74092 0.99731 0.0
H164 H 0.34346 0.7932 0.49415 0.0
H165 H 0.32267 0.79179 0.6357 0.0
H166 H 0.26631 0.76588 0.53388 0.0
H167 H 0.35486 0.80072 0.57514 0.0
Tb168 Tb 0.49781 0.98011 0.07521 0.0
C169 C 0.51741 0.0791 0.96671 0.0
N170 N 0.49511 0.0642 0.96543 0.0
C171 C 0.46893 0.10343 0.97543 0.0
C172 C 0.51645 0.10658 0.97492 0.0
C173 C 0.47097 0.07632 0.96627 0.0
C174 C 0.4918 0.11854 0.98081 0.0
C175 C 0.56444 0.08199 0.95281 0.0
C176 C 0.54104 0.0671 0.9558 0.0
C177 C 0.56391 0.10907 0.96368 0.0
C178 C 0.53995 0.12135 0.97482 0.0
Tb179 Tb 0.50139 0.01963 0.9541 0.0
N180 N 0.54083 0.04081 0.94637 0.0
C181 C 0.58742 0.0693 0.93787 0.0
C182 C 0.56268 0.02867 0.92885 0.0
C183 C 0.58642 0.04262 0.92507 0.0
H184 H 0.45313 0.06523 0.95966 0.0
H185 H 0.60391 0.0328 0.91241 0.0
H186 H 0.52336 0.92169 0.05445 0.0
H187 H 0.40357 0.00776 0.14855 0.0
H188 H 0.56185 0.00807 0.91906 0.0
H189 H 0.60583 0.08004 0.93504 0.0
H190 H 0.45056 0.01385 0.13107 0.0
H191 H 0.44973 0.11271 0.97755 0.0
H192 H 0.58176 0.12083 0.96231 0.0
H193 H 0.53966 0.14243 0.98164 0.0
H194 H 0.50788 0.87533 0.04828 0.0
H195 H 0.49017 0.1396 0.98722 0.0
H196 H 0.38192 0.96485 0.13233 0.0
N197 N 0.48533 0.937 0.06927 0.0
C198 C 0.45978 0.93145 0.07878 0.0
C199 C 0.49409 0.89097 0.05652 0.0
C200 C 0.44997 0.90545 0.07554 0.0
C201 C 0.5028 0.91719 0.05983 0.0
C202 C 0.46748 0.88511 0.0638 0.0
N203 N 0.45476 0.97627 0.09854 0.0
C204 C 0.44105 0.99566 0.12089 0.0
C205 C 0.41727 0.94705 0.10458 0.0
C206 C 0.44377 0.95196 0.09296 0.0
C207 C 0.40237 0.96776 0.12301 0.0
C208 C 0.4145 0.99202 0.13208 0.0
H209 H 0.46076 0.86482 0.06105 0.0
H210 H 0.41519 0.88084 0.08202 0.0
H211 H 0.38649 0.91731 0.10753 0.0
O212 O 0.49535 0.97541 0.14731 0.0
O213 O 0.48338 0.96165 1.01128 0.0
O214 O 0.46621 0.99601 0.96889 0.0
O215 O 0.53257 0.97041 0.1115 0.0
O216 O 0.48129 0.02022 0.07002 0.0
O217 O 0.46555 0.0246 0.99591 0.0
O218 O 0.50541 0.99915 0.89153 0.0
O219 O 0.53381 0.02099 1.005 0.0
O220 O 0.51255 0.02062 0.07364 0.0
O221 O 0.49042 0.03863 0.89267 0.0
O222 O 0.52001 0.98062 0.95631 0.0
O223 O 0.53212 0.97054 0.03179 0.0
C224 C 0.46606 0.97105 0.98169 0.0
C225 C 0.53403 0.96474 0.19459 0.0
C226 C 0.53666 0.96746 0.27838 0.0
C227 C 0.56243 0.95727 0.27655 0.0
C228 C 0.55978 0.95445 0.19394 0.0
C229 C 0.57378 0.95064 0.23467 0.0
C230 C 0.52231 0.97085 0.23717 0.0
C231 C 0.46445 0.03009 0.04003 0.0
C232 C 0.52043 0.97051 0.15065 0.0
C233 C 0.42325 0.90063 0.08485 0.0
C234 C 0.40689 0.92142 0.09924 0.0
C235 C 0.53188 0.02879 0.04772 0.0
C236 C 0.47556 0.01086 0.8328 0.0
C237 C 0.46386 1.00041 0.7531 0.0
C238 C 0.43741 0.99739 0.76682 0.0
C239 C 0.44914 0.00774 0.84541 0.0
C240 C 0.48289 0.00708 0.78678 0.0
C241 C 0.43021 1.00091 0.81257 0.0
C242 C 0.53497 0.96833 0.98679 0.0
C243 C 0.49565 0.01827 0.86716 0.0
H244 H 0.57378 0.95427 0.3077 0.0
H245 H 0.56924 0.94955 0.16185 0.0
H246 H 0.59363 0.94274 0.23375 0.0
H247 H 0.50256 0.97905 0.23822 0.0
H248 H 0.42208 0.99279 0.74207 0.0
H249 H 0.44318 0.01086 0.88055 0.0
H250 H 0.50344 0.00921 0.77742 0.0
H251 H 0.4098 0.99862 0.82253 0.0
Tb252 Tb 0.23186 0.24968 0.205 0.0
C253 C 0.32205 0.28645 0.33095 0.0
N254 N 0.31459 0.26136 0.3205 0.0
C255 C 0.35959 0.24944 0.30638 0.0
C256 C 0.3486 0.2944 0.3276 0.0
C257 C 0.33293 0.24258 0.30985 0.0
C258 C 0.36744 0.27554 0.31479 0.0
C259 C 0.30972 0.33024 0.35668 0.0
C260 C 0.30285 0.30404 0.34509 0.0
C261 C 0.33599 0.33866 0.35181 0.0
C262 C 0.35541 0.32075 0.33739 0.0
Tb263 Tb 0.27084 0.25204 0.32691 0.0
N264 N 0.27773 0.29502 0.34973 0.0
C265 C 0.29017 0.34691 0.37419 0.0
C266 C 0.25928 0.31054 0.3707 0.0
C267 C 0.26497 0.33684 0.38204 0.0
H268 H 0.32703 0.22234 0.30392 0.0
H269 H 0.25004 0.34917 0.39771 0.0
H270 H 0.18415 0.29552 0.21069 0.0
H271 H 0.22512 0.14637 0.16048 0.0
H272 H 0.24038 0.30264 0.38013 0.0
H273 H 0.29461 0.3672 0.3835 0.0
H274 H 0.24742 0.18969 0.17004 0.0
H275 H 0.37407 0.23461 0.29727 0.0
H276 H 0.3416 0.35879 0.36015 0.0
H277 H 0.37566 0.32737 0.33455 0.0
H278 H 0.13637 0.29645 0.22552 0.0
H279 H 0.38807 0.28082 0.31189 0.0
H280 H 0.1776 0.14205 0.17839 0.0
N281 N 0.18705 0.25353 0.21377 0.0
C282 C 0.17328 0.23048 0.21249 0.0
C283 C 0.14658 0.2777 0.22283 0.0
C284 C 0.14574 0.22999 0.21879 0.0
C285 C 0.17384 0.27709 0.21562 0.0
C286 C 0.13252 0.25399 0.2254 0.0
N287 N 0.21304 0.20908 0.19455 0.0
C288 C 0.22671 0.18783 0.17796 0.0
C289 C 0.17309 0.18336 0.19666 0.0
C290 C 0.18664 0.20752 0.20147 0.0
C291 C 0.18728 0.16101 0.18254 0.0
C292 C 0.21413 0.16337 0.17245 0.0
H293 H 0.11136 0.25451 0.23037 0.0
H294 H 0.11109 0.2049 0.22167 0.0
H295 H 0.1351 0.164 0.2024 0.0
O296 O 0.25227 0.24573 0.1427 0.0
O297 O 0.22982 0.21732 0.25547 0.0
O298 O 0.2302 0.2375 0.32545 0.0
O299 O 0.21335 0.262 0.14379 0.0
O300 O 0.27135 0.23235 0.20789 0.0
O301 O 0.27867 0.21752 0.28252 0.0
O302 O 0.27505 0.25499 0.39912 0.0
O303 O 0.28888 0.26781 0.26418 0.0
O304 O 0.25467 0.28534 0.22194 0.0
O305 O 0.28059 0.21747 0.36355 0.0
O306 O 0.23136 0.26992 0.323 0.0
O307 O 0.22515 0.2849 0.24848 0.0
C308 C 0.22097 0.21942 0.29739 0.0
C309 C 0.2416 0.27634 0.0848 0.0
C310 C 0.25188 0.28808 1.0054 0.0
C311 C 0.25684 0.3142 0.02006 0.0
C312 C 0.24662 0.30244 0.09842 0.0
C313 C 0.25432 0.32122 0.06618 0.0
C314 C 0.24434 0.26919 0.03844 0.0
C315 C 0.28261 0.21628 0.23774 0.0
C316 C 0.23352 0.25629 0.11843 0.0
C317 C 0.13221 0.20573 0.2164 0.0
C318 C 0.14587 0.18245 0.20528 0.0
C319 C 0.27943 0.28573 0.23584 0.0
C320 C 0.28588 0.21656 0.44676 0.0
C321 C 0.28292 0.21443 0.53041 0.0
C322 C 0.29315 0.18861 0.52902 0.0
C323 C 0.29627 0.19078 0.44649 0.0
C324 C 0.27961 0.22855 0.48912 0.0
C325 C 0.29998 0.177 0.48738 0.0
C326 C 0.22018 0.28591 0.29286 0.0
C327 C 0.28023 0.2299 0.40264 0.0
H328 H 0.26223 0.32942 0.9958 0.0
H329 H 0.2444 0.30825 0.13388 0.0
H330 H 0.25812 0.34139 0.07691 0.0
H331 H 0.24079 0.24885 0.02833 0.0
H332 H 0.29598 0.17744 0.56033 0.0
H333 H 0.30131 0.1811 0.41456 0.0
H334 H 0.27135 0.24834 0.48991 0.0
H335 H 0.30792 0.15711 0.48675 0.0
Tb336 Tb 0.73207 0.25109 0.31917 0.0
C337 C 0.81986 0.21352 0.18777 0.0
N338 N 0.81287 0.23861 0.19894 0.0
C339 C 0.85838 0.25028 0.20917 0.0
C340 C 0.84649 0.20549 0.18834 0.0
C341 C 0.83164 0.25719 0.20853 0.0
C342 C 0.86584 0.22425 0.19942 0.0
C343 C 0.80649 0.16982 0.16299 0.0
C344 C 0.80011 0.19602 0.17549 0.0
C345 C 0.8329 0.16134 0.16504 0.0
C346 C 0.85287 0.17917 0.17759 0.0
Tb347 Tb 0.76901 0.24839 0.19568 0.0
N348 N 0.77489 0.20514 0.17325 0.0
C349 C 0.78629 0.15326 0.14724 0.0
C350 C 0.75569 0.18975 0.15366 0.0
C351 C 0.76087 0.16344 0.14174 0.0
H352 H 0.82599 0.27734 0.21561 0.0
H353 H 0.74537 0.15122 0.12729 0.0
H354 H 0.68574 0.20385 0.31227 0.0
H355 H 0.7219 0.35314 0.3694 0.0
H356 H 0.73651 0.19773 0.14565 0.0
H357 H 0.79034 0.13299 0.13733 0.0
H358 H 0.74563 0.31086 0.35691 0.0
H359 H 0.87319 0.26502 0.21717 0.0
H360 H 0.83815 0.14124 0.1559 0.0
H361 H 0.8732 0.17251 0.17822 0.0
H362 H 0.63794 0.2015 0.29781 0.0
H363 H 0.88655 0.21891 0.20011 0.0
H364 H 0.67414 0.35625 0.35166 0.0
N365 N 0.68728 0.24598 0.30992 0.0
C366 C 0.67274 0.26855 0.31185 0.0
C367 C 0.64753 0.22056 0.30081 0.0
C368 C 0.6451 0.26816 0.30612 0.0
C369 C 0.67482 0.22201 0.3078 0.0
C370 C 0.63264 0.24379 0.299 0.0
N371 N 0.71185 0.2909 0.33084 0.0
C372 C 0.72486 0.31224 0.34882 0.0
C373 C 0.67101 0.31532 0.33019 0.0
C374 C 0.68538 0.29178 0.32363 0.0
C375 C 0.68448 0.33777 0.34601 0.0
C376 C 0.71145 0.33609 0.35605 0.0
H377 H 0.61144 0.2426 0.29441 0.0
H378 H 0.60951 0.29201 0.30517 0.0
H379 H 0.63225 0.33337 0.32632 0.0
O380 O 0.75268 0.2547 0.3821 0.0
O381 O 0.7281 0.28396 0.26971 0.0
O382 O 0.72846 0.26251 0.20094 0.0
O383 O 0.71535 0.23525 0.37891 0.0
O384 O 0.77065 0.27062 0.31478 0.0
O385 O 0.7775 0.28338 0.23869 0.0
O386 O 0.76913 0.24514 0.12382 0.0
O387 O 0.78972 0.23399 0.25744 0.0
O388 O 0.75608 0.21683 0.30011 0.0
O389 O 0.77799 0.28218 0.15654 0.0
O390 O 0.72946 0.23092 0.20224 0.0
O391 O 0.72664 0.21533 0.27641 0.0
C392 C 0.7207 0.28222 0.22666 0.0
C393 C 0.72502 0.25888 0.44668 0.0
C394 C 0.73013 0.27021 0.5277 0.0
C395 C 0.70889 0.28793 0.5237 0.0
C396 C 0.70328 0.27607 0.44403 0.0
C397 C 0.69546 0.29066 0.48217 0.0
C398 C 0.73821 0.25568 0.48896 0.0
C399 C 0.78153 0.28599 0.28344 0.0
C400 C 0.73382 0.24413 0.40574 0.0
C401 C 0.63073 0.29186 0.3099 0.0
C402 C 0.64366 0.31541 0.32205 0.0
C403 C 0.78114 0.21779 0.28923 0.0
C404 C 0.79641 0.27423 0.08269 0.0
C405 C 0.80813 0.27568 1.0015 0.0
C406 C 0.83348 0.28454 1.01397 0.0
C407 C 0.82175 0.28329 0.09429 0.0
C408 C 0.78977 0.27031 0.03626 0.0
C409 C 0.84021 0.28821 0.06004 0.0
C410 C 0.72 0.21427 0.23269 0.0
C411 C 0.77613 0.26954 0.11774 0.0
H412 H 0.70234 0.29925 0.55308 0.0
H413 H 0.69213 0.27811 0.41267 0.0
H414 H 0.67879 0.304 0.47961 0.0
H415 H 0.75474 0.24213 0.49167 0.0
H416 H 0.84814 0.28857 0.98806 0.0
H417 H 0.82722 0.28687 0.12959 0.0
H418 H 0.77004 0.26377 0.02717 0.0
H419 H 0.85975 0.29513 0.06921 0.0
Tb420 Tb 0.72842 0.74824 0.70727 0.0
C421 C 0.83146 0.75689 0.83473 0.0
N422 N 0.81464 0.73624 0.82854 0.0
C423 C 0.85115 0.70601 0.8283 0.0
C424 C 0.85895 0.75294 0.83721 0.0
C425 C 0.824 0.71093 0.82629 0.0
C426 C 0.86872 0.72711 0.83354 0.0
C427 C 0.83764 0.80415 0.84504 0.0
C428 C 0.82099 0.78213 0.83864 0.0
C429 C 0.86508 0.80037 0.84728 0.0
C430 C 0.87571 0.77483 0.84335 0.0
Tb431 Tb 0.77092 0.7469 0.82498 0.0
N432 N 0.7944 0.78511 0.83438 0.0
C433 C 0.82618 0.82927 0.84869 0.0
C434 C 0.78303 0.8094 0.84007 0.0
C435 C 0.79874 0.83186 0.8466 0.0
H436 H 0.81049 0.69447 0.82394 0.0
H437 H 0.78967 0.85114 0.85024 0.0
H438 H 0.67663 0.78683 0.72419 0.0
H439 H 0.73732 0.64255 0.67692 0.0
H440 H 0.76192 0.81159 0.8395 0.0
H441 H 0.83829 0.84672 0.85356 0.0
H442 H 0.75315 0.68826 0.67932 0.0
H443 H 0.85849 0.68593 0.82621 0.0
H444 H 0.87824 0.81705 0.85203 0.0
H445 H 0.89691 0.77221 0.84523 0.0
H446 H 0.62849 0.78146 0.73264 0.0
H447 H 0.88973 0.72323 0.83522 0.0
H448 H 0.69013 0.63293 0.68992 0.0
N449 N 0.68384 0.74576 0.71531 0.0
C450 C 0.67319 0.72119 0.71096 0.0
C451 C 0.64086 0.76433 0.72686 0.0
C452 C 0.64583 0.71716 0.71561 0.0
C453 C 0.66816 0.7673 0.72253 0.0
C454 C 0.62964 0.73914 0.72357 0.0
N455 N 0.7165 0.70456 0.70083 0.0
C456 C 0.7331 0.68446 0.68874 0.0
C457 C 0.6798 0.67402 0.70087 0.0
C458 C 0.69007 0.69989 0.70401 0.0
C459 C 0.69721 0.6531 0.69255 0.0
C460 C 0.7239 0.65843 0.68565 0.0
H461 H 0.6085 0.73688 0.72726 0.0
H462 H 0.61465 0.68786 0.71668 0.0
H463 H 0.64436 0.6501 0.70364 0.0
O464 O 0.73558 0.73788 0.63854 0.0
O465 O 0.71143 0.73415 0.77229 0.0
O466 O 0.74568 0.7131 0.80822 0.0
O467 O 0.70944 0.76979 0.65486 0.0
O468 O 0.76866 0.7321 0.70677 0.0
O469 O 0.77317 0.71335 0.77808 0.0
O470 O 0.75202 0.75699 0.88651 0.0
O471 O 0.7879 0.77015 0.7688 0.0
O472 O 0.75608 0.78151 0.71394 0.0
O473 O 0.78418 0.72929 0.88627 0.0
O474 O 0.73447 0.77032 0.82186 0.0
O475 O 0.72487 0.78463 0.74763 0.0
C476 C 0.7204 0.7152 0.79886 0.0
C477 C 0.73398 0.77317 0.58642 0.0
C478 C 0.74724 0.77894 0.50658 0.0
C479 C 0.75977 0.80278 0.51892 0.0
C480 C 0.74626 0.79716 0.59761 0.0
C481 C 0.75922 0.81179 0.56413 0.0
C482 C 0.73441 0.76414 0.54081 0.0
C483 C 0.78082 0.71607 0.73545 0.0
C484 C 0.72135 0.75709 0.62221 0.0
C485 C 0.63561 0.69138 0.71296 0.0
C486 C 0.65255 0.66987 0.70569 0.0
C487 C 0.77942 0.7843 0.73378 0.0
C488 C 0.75236 0.72457 0.94428 0.0
C489 C 0.73895 0.71642 0.02333 0.0
C490 C 0.72514 0.69382 1.00832 0.0
C491 C 0.73878 0.70183 0.9302 0.0
C492 C 0.75243 0.73181 0.99076 0.0
C493 C 0.72509 0.68662 0.96205 0.0
C494 C 0.72358 0.78709 0.79267 0.0
C495 C 0.76648 0.74105 0.91107 0.0
H496 H 0.76952 0.81479 0.49342 0.0
H497 H 0.74565 0.80455 0.63224 0.0
H498 H 0.76871 0.83028 0.5732 0.0
H499 H 0.72503 0.74551 0.53215 0.0
H500 H 0.7148 0.68137 0.03244 0.0
H501 H 0.73897 0.69582 0.89473 0.0
H502 H 0.76284 0.74954 1.00141 0.0
H503 H 0.71459 0.66908 0.95091 0.0
Tb504 Tb 0.5007 0.51872 0.08433 0.0
C505 C 0.47287 0.42713 0.96574 0.0
N506 N 0.49678 0.43926 0.96904 0.0
C507 C 0.5176 0.39699 0.98005 0.0
C508 C 0.47025 0.39961 0.97202 0.0
C509 C 0.5192 0.4243 0.97288 0.0
C510 C 0.49298 0.38465 0.98055 0.0
C511 C 0.4261 0.43041 0.94802 0.0
C512 C 0.45107 0.44221 0.95374 0.0
C513 C 0.4232 0.40318 0.95606 0.0
C514 C 0.44522 0.38782 0.96813 0.0
Tb515 Tb 0.49606 0.48435 0.95905 0.0
N516 N 0.45438 0.46867 0.94806 0.0
C517 C 0.40488 0.44637 0.93425 0.0
C518 C 0.43416 0.48413 0.93229 0.0
C519 C 0.40902 0.47328 0.92578 0.0
H520 H 0.53847 0.43306 0.9694 0.0
H521 H 0.39286 0.48566 0.91431 0.0
H522 H 0.47598 0.57777 0.06184 0.0
H523 H 0.59077 0.48852 0.17066 0.0
H524 H 0.43742 0.50489 0.92559 0.0
H525 H 0.38536 0.43805 0.92945 0.0
H526 H 0.5459 0.48219 0.14022 0.0
H527 H 0.53542 0.3854 0.98428 0.0
H528 H 0.4041 0.39375 0.95243 0.0
H529 H 0.44279 0.36674 0.97331 0.0
H530 H 0.49096 0.62421 0.06481 0.0
H531 H 0.49183 0.36344 0.9856 0.0
H532 H 0.6111 0.53301 0.1701 0.0
N533 N 0.51256 0.56215 0.08563 0.0
C534 C 0.53671 0.56765 0.10349 0.0
C535 C 0.50414 0.60846 0.07534 0.0
C536 C 0.54607 0.59385 0.10618 0.0
C537 C 0.49578 0.5821 0.0733 0.0
C538 C 0.52951 0.61435 0.09137 0.0
N539 N 0.54184 0.52195 0.1169 0.0
C540 C 0.55499 0.50137 0.13708 0.0
C541 C 0.57726 0.55159 0.13787 0.0
C542 C 0.55204 0.54679 0.11897 0.0
C543 C 0.59163 0.53019 0.15536 0.0
C544 C 0.58027 0.50503 0.15555 0.0
H545 H 0.53594 0.63478 0.09291 0.0
H546 H 0.57911 0.61867 0.12589 0.0
H547 H 0.60645 0.58165 0.15368 0.0
O548 O 0.50049 0.52012 0.15686 0.0
O549 O 0.52004 0.53923 0.02667 0.0
O550 O 0.53202 0.50685 0.97402 0.0
O551 O 0.46462 0.52697 0.11699 0.0
O552 O 0.51796 0.47926 0.07406 0.0
O553 O 0.53237 0.47624 0.9991 0.0
O554 O 0.49233 0.50411 0.89571 0.0
O555 O 0.46428 0.4826 1.01041 0.0
O556 O 0.48655 0.47816 0.07759 0.0
O557 O 0.50712 0.46451 0.89875 0.0
O558 O 0.48175 0.5251 0.96402 0.0
O559 O 0.46763 0.53057 0.0393 0.0
C560 C 0.53444 0.53064 0.99214 0.0
C561 C 0.46031 0.52897 0.20031 0.0
C562 C 0.4567 0.52591 0.28383 0.0
C563 C 0.43004 0.53338 0.28027 0.0
C564 C 0.43366 0.53651 0.19788 0.0
C565 C 0.41871 0.53877 0.23764 0.0
C566 C 0.47188 0.52399 0.2436 0.0
C567 C 0.53489 0.47085 0.0432 0.0
C568 C 0.47536 0.52514 0.15752 0.0
C569 C 0.57146 0.59869 0.12382 0.0
C570 C 0.58704 0.5776 0.13956 0.0
C571 C 0.4668 0.47167 0.05085 0.0
C572 C 0.52243 0.49122 0.83849 0.0
C573 C 0.53433 0.50003 0.7587 0.0
C574 C 0.56089 0.50247 0.77268 0.0
C575 C 0.54899 0.49365 0.85147 0.0
C576 C 0.51517 0.49452 0.79225 0.0
C577 C 0.56806 0.49942 0.81869 0.0
C578 C 0.46701 0.53669 0.99525 0.0
C579 C 0.50214 0.48458 0.87243 0.0
H580 H 0.41799 0.5353 0.31064 0.0
H581 H 0.42425 0.54047 0.16517 0.0
H582 H 0.39818 0.54458 0.23538 0.0
H583 H 0.49236 0.51793 0.24595 0.0
H584 H 0.57628 0.50623 0.74799 0.0
H585 H 0.55495 0.49105 0.88689 0.0
H586 H 0.49455 0.49285 0.7826 0.0
H587 H 0.58855 0.50126 0.8289 0.0
Tb588 Tb 0.99598 0.48088 0.57617 0.0
C589 C 0.02107 0.57935 0.47255 0.0
N590 N 0.9981 0.56554 0.46987 0.0
C591 C 0.97372 0.60576 0.4818 0.0
C592 C 0.02133 0.60664 0.4826 0.0
C593 C 0.97456 0.57881 0.47085 0.0
C594 C 0.99722 0.61963 0.48875 0.0
C595 C 0.06837 0.58026 0.46051 0.0
C596 C 0.04425 0.56647 0.46162 0.0
C597 C 0.06898 0.60711 0.47301 0.0
C598 C 0.04549 0.62027 0.48416 0.0
Tb599 Tb 0.00241 0.52101 0.45537 0.0
N600 N 0.04298 0.54035 0.45101 0.0
C601 C 0.09098 0.56672 0.44613 0.0
C602 C 0.06459 0.5274 0.43432 0.0
C603 C 0.08899 0.54028 0.43228 0.0
H604 H 0.95628 0.56884 0.46276 0.0
H605 H 0.10624 0.52981 0.42019 0.0
H606 H 0.01783 0.42173 0.54729 0.0
H607 H 0.90641 0.51202 0.66131 0.0
H608 H 0.06301 0.50698 0.42378 0.0
H609 H 0.10992 0.57662 0.44474 0.0
H610 H 0.95212 0.51705 0.63501 0.0
H611 H 0.95496 0.61591 0.48403 0.0
H612 H 0.08738 0.61801 0.4731 0.0
H613 H 0.04612 0.64117 0.4924 0.0
H614 H 1.00028 0.37618 0.54234 0.0
H615 H 0.99653 0.64058 0.49658 0.0
H616 H 0.88345 0.46915 0.65187 0.0
N617 N 0.98171 0.43829 0.57025 0.0
C618 C 0.95686 0.43347 0.58506 0.0
C619 C 0.98778 0.39216 0.55402 0.0
C620 C 0.946 0.40784 0.5831 0.0
C621 C 0.99764 0.41797 0.55663 0.0
C622 C 0.96173 0.38711 0.56679 0.0
N623 N 0.95411 0.47856 0.60514 0.0
C624 C 0.94191 0.49874 0.62803 0.0
C625 C 0.91667 0.45023 0.61894 0.0
C626 C 0.94245 0.4544 0.60255 0.0
C627 C 0.9033 0.4715 0.63894 0.0
C628 C 0.91615 0.49575 0.64414 0.0
H629 H 0.95413 0.36711 0.56477 0.0
H630 H 0.91121 0.38422 0.59641 0.0
H631 H 0.88551 0.42135 0.62787 0.0
O632 O 0.99436 0.47501 0.64766 0.0
O633 O 0.97867 0.46302 0.5138 0.0
O634 O 0.96664 0.49732 0.46472 0.0
O635 O 0.03077 0.47047 0.61161 0.0
O636 O 0.9799 0.52103 0.56925 0.0
O637 O 0.96561 0.52643 0.49451 0.0
O638 O 0.01013 0.50362 0.39118 0.0
O639 O 0.03373 0.5205 0.50846 0.0
O640 O 0.01075 0.52131 0.57514 0.0
O641 O 0.99077 0.54103 0.39515 0.0
O642 O 0.01707 0.4804 0.45733 0.0
O643 O 0.0297 0.47006 0.53224 0.0
C644 C 0.96417 0.47297 0.48032 0.0
C645 C 0.03283 0.48867 0.68704 0.0
C646 C 0.0364 0.50394 0.76694 0.0
C647 C 0.05732 0.52059 0.7538 0.0
C648 C 0.05368 0.5056 0.67525 0.0
C649 C 0.06573 0.52144 0.7084 0.0
C650 C 0.02429 0.48792 0.73303 0.0
C651 C 0.96307 0.53054 0.53892 0.0
C652 C 0.01967 0.47204 0.65169 0.0
C653 C 0.92001 0.40373 0.59796 0.0
C654 C 0.90537 0.42489 0.6158 0.0
C655 C 0.03104 0.52866 0.55084 0.0
C656 C 0.98051 0.51383 0.33145 0.0
C657 C 0.97236 0.50311 0.25066 0.0
C658 C 0.94664 0.49517 0.26218 0.0
C659 C 0.95462 0.50632 0.34185 0.0
C660 C 0.98925 0.51247 0.28574 0.0
C661 C 0.93786 0.49688 0.30739 0.0
C662 C 0.03213 0.46782 0.48719 0.0
C663 C 0.99882 0.52238 0.36803 0.0
H664 H 0.06756 0.53276 0.77875 0.0
H665 H 0.06076 0.50661 0.64039 0.0
H666 H 0.08181 0.53438 0.6989 0.0
H667 H 0.00798 0.47515 0.7421 0.0
H668 H 0.93312 0.48807 0.23603 0.0
H669 H 0.94748 0.50747 0.37669 0.0
H670 H 0.00926 0.51829 0.27764 0.0
H671 H 0.91797 0.49088 0.31574 0.0
C672 C 0.05146 0.07851 0.46947 0.0
C673 C 0.05526 0.05103 0.46543 0.0
C674 C 0.06993 0.09623 0.45181 0.0
C675 C 0.12013 0.1031 0.36373 0.0
H676 H 0.14593 0.1613 0.43816 0.0
C677 C 0.20261 0.17349 0.30085 0.0
C678 C 0.20173 0.20004 0.31488 0.0
C679 C 0.18479 0.15505 0.31858 0.0
C680 C 0.13864 0.14547 0.41649 0.0
H681 H 0.08218 0.0207 0.44161 0.0
H682 H 0.11386 0.05177 0.40861 0.0
H683 H 0.115 0.12971 0.47064 0.0
H684 H 0.18127 0.2284 0.35744 0.0
H685 H 0.14963 0.19661 0.38738 0.0
H686 H 0.14299 0.1192 0.30905 0.0
C687 C 0.09646 0.05948 0.42538 0.0
C688 C 0.12103 0.12726 0.43533 0.0
C689 C 0.07824 0.04172 0.44399 0.0
C690 C 0.18253 0.20794 0.34646 0.0
C691 C 0.16449 0.18963 0.36377 0.0
C692 C 0.13745 0.12157 0.34459 0.0
C693 C 0.09246 0.08692 0.42907 0.0
C694 C 0.11159 0.10589 0.40919 0.0
C695 C 0.16554 0.16282 0.35055 0.0
C696 C 0.14697 0.14306 0.3707 0.0
H697 H 0.03399 0.0864 0.48578 0.0
H698 H 0.0663 0.11728 0.45506 0.0
H699 H 0.11292 0.08696 0.34264 0.0
H700 H 0.21749 0.16684 0.27696 0.0
H701 H 0.18658 0.1346 0.30796 0.0
C702 C 0.06062 0.95048 0.60565 0.0
C703 C 0.0594 0.95642 0.55852 0.0
C704 C 0.0798 0.93323 0.62293 0.0
C705 C 0.11708 0.87553 0.59628 0.0
H706 H 0.16643 0.89722 0.69111 0.0
C707 C 0.19473 0.80228 0.667 0.0
C708 C 0.20245 0.80435 0.71323 0.0
C709 C 0.179 0.82177 0.64657 0.0
C710 C 0.15255 0.89056 0.66527 0.0
H711 H 0.07863 0.94978 0.49324 0.0
H712 H 0.11114 0.91829 0.52331 0.0
H713 H 0.13558 0.92935 0.65894 0.0
H714 H 0.20099 0.82958 0.77305 0.0
H715 H 0.17172 0.86223 0.73929 0.0
H716 H 0.13251 0.8365 0.60403 0.0
C717 C 0.09711 0.9272 0.54657 0.0
C718 C 0.13507 0.90914 0.64653 0.0
C719 C 0.07833 0.94504 0.52937 0.0
C720 C 0.19457 0.82677 0.73808 0.0
C721 C 0.1782 0.84592 0.7181 0.0
C722 C 0.13407 0.85677 0.61575 0.0
C723 C 0.09794 0.92114 0.59349 0.0
C724 C 0.11723 0.90178 0.61187 0.0
C725 C 0.17004 0.84371 0.67197 0.0
C726 C 0.15213 0.86394 0.65062 0.0
H727 H 0.04661 0.95895 0.62939 0.0
H728 H 0.08006 0.92883 0.65925 0.0
H729 H 0.10322 0.86935 0.56994 0.0
H730 H 0.20082 0.78554 0.64638 0.0
H731 H 0.174 0.81956 0.61067 0.0
C732 C 0.30013 0.83059 0.7869 0.0
C733 C 0.29816 0.80565 0.8078 0.0
C734 C 0.31821 0.84932 0.80346 0.0
C735 C 0.3812 0.85627 0.86063 0.0
H736 H 0.35641 0.92371 0.90699 0.0
C737 C 0.45069 0.92528 0.96197 0.0
C738 C 0.44684 0.95275 0.95994 0.0
C739 C 0.43246 0.90792 0.94212 0.0
C740 C 0.36388 0.90526 0.89339 0.0
H741 H 0.31392 0.78043 0.86141 0.0
H742 H 0.34609 0.81285 0.88922 0.0
H743 H 0.32512 0.89271 0.87265 0.0
H744 H 0.42084 0.98357 0.9347 0.0
H745 H 0.39013 0.95358 0.89692 0.0
H746 H 0.41998 0.86877 0.87947 0.0
C747 C 0.33336 0.81803 0.86066 0.0
C748 C 0.34584 0.88745 0.87396 0.0
C749 C 0.31488 0.79959 0.8449 0.0
C750 C 0.42456 0.96251 0.9366 0.0
C751 C 0.40664 0.94519 0.91557 0.0
C752 C 0.39934 0.87426 0.87907 0.0
C753 C 0.33505 0.84311 0.84032 0.0
C754 C 0.35431 0.86269 0.85802 0.0
C755 C 0.41023 0.91757 0.91822 0.0
C756 C 0.39094 0.8989 0.89644 0.0
H757 H 0.28741 0.83575 0.75831 0.0
H758 H 0.31926 0.86854 0.7872 0.0
H759 H 0.38821 0.83734 0.84815 0.0
H760 H 0.46793 0.91709 0.97868 0.0
H761 H 0.43584 0.8869 0.94594 0.0
C762 C 0.41935 0.05042 0.03949 0.0
C763 C 0.44519 0.04961 0.05684 0.0
C764 C 0.40071 0.06748 0.05896 0.0
C765 C 0.38872 0.10641 0.16533 0.0
H766 H 0.33643 0.14215 0.0904 0.0
C767 C 0.30773 0.17348 0.24389 0.0
C768 C 0.30114 0.19641 0.21923 0.0
C769 C 0.32429 0.15432 0.22455 0.0
C770 C 0.35104 0.1325 0.11185 0.0
H771 H 0.47234 0.06669 0.10625 0.0
H772 H 0.44034 0.09703 0.139 0.0
H773 H 0.36761 0.11207 0.05459 0.0
H774 H 0.30752 0.2177 0.1557 0.0
H775 H 0.33679 0.18497 0.12288 0.0
H776 H 0.37295 0.12777 0.22227 0.0
C777 C 0.43397 0.08393 0.1117 0.0
C778 C 0.3687 0.11492 0.09133 0.0
C779 C 0.4524 0.06672 0.09268 0.0
C780 C 0.31188 0.20007 0.17542 0.0
C781 C 0.32856 0.18115 0.15638 0.0
C782 C 0.37121 0.12417 0.18579 0.0
C783 C 0.40774 0.08421 0.09574 0.0
C784 C 0.38799 0.1019 0.11772 0.0
C785 C 0.33476 0.15787 0.18036 0.0
C786 C 0.35235 0.1377 0.15922 0.0
H787 H 0.41336 0.03725 1.012 0.0
H788 H 0.38066 0.06703 0.04597 0.0
H789 H 0.40294 0.09632 0.18694 0.0
H790 H 0.29966 0.17008 0.27764 0.0
H791 H 0.32848 0.13653 0.2439 0.0
C792 C 0.95018 0.92645 0.5611 0.0
C793 C 0.94632 0.95386 0.56474 0.0
C794 C 0.93124 0.90871 0.57714 0.0
C795 C 0.86229 0.90554 0.6264 0.0
H796 H 0.88615 0.83526 0.65882 0.0
C797 C 0.78843 0.82604 0.68947 0.0
C798 C 0.79773 0.80465 0.71559 0.0
C799 C 0.806 0.84439 0.67068 0.0
C800 C 0.87897 0.85492 0.65114 0.0
H801 H 0.91928 0.98416 0.58808 0.0
H802 H 0.88771 0.9536 0.62059 0.0
H803 H 0.91722 0.86664 0.62989 0.0
H804 H 0.83295 0.78659 0.74421 0.0
H805 H 0.863 0.81981 0.71665 0.0
H806 H 0.82458 0.89457 0.65207 0.0
C807 C 0.90458 0.94539 0.60307 0.0
C808 C 0.89694 0.87299 0.63297 0.0
C809 C 0.92301 0.96312 0.58502 0.0
C810 C 0.82495 0.80283 0.72439 0.0
C811 C 0.8424 0.82175 0.70739 0.0
C812 C 0.84452 0.88777 0.64629 0.0
C813 C 0.90834 0.91778 0.59952 0.0
C814 C 0.88894 0.89858 0.6197 0.0
C815 C 0.83339 0.84259 0.67924 0.0
C816 C 0.85246 0.86201 0.65874 0.0
H817 H 0.968 0.91855 0.54611 0.0
H818 H 0.93485 0.88785 0.57181 0.0
H819 H 0.85482 0.92468 0.61612 0.0
H820 H 0.76753 0.82881 0.68378 0.0
H821 H 0.79787 0.85975 0.64906 0.0
C822 C 0.92241 0.05674 0.49291 0.0
C823 C 0.94768 0.05448 0.47378 0.0
C824 C 0.90432 0.07518 0.4756 0.0
C825 C 0.89892 0.13735 0.41159 0.0
H826 H 0.82913 0.11253 0.37763 0.0
C827 C 0.82734 0.20236 0.30585 0.0
C828 C 0.80007 0.19992 0.31292 0.0
C829 C 0.84515 0.18504 0.32697 0.0
C830 C 0.84832 0.12003 0.38763 0.0
H831 H 0.97407 0.06998 0.42229 0.0
H832 H 0.94262 0.10259 0.3926 0.0
H833 H 0.86043 0.08214 0.41324 0.0
H834 H 0.77022 0.17796 0.34978 0.0
H835 H 0.80123 0.14862 0.38839 0.0
H836 H 0.88686 0.17535 0.38716 0.0
C837 C 0.93677 0.09004 0.42082 0.0
C838 C 0.8663 0.10251 0.4079 0.0
C839 C 0.9547 0.07132 0.43762 0.0
C840 C 0.79108 0.18025 0.34302 0.0
C841 C 0.80893 0.1632 0.36489 0.0
C842 C 0.88082 0.15501 0.39199 0.0
C843 C 0.91129 0.09197 0.43927 0.0
C844 C 0.89186 0.11092 0.41971 0.0
C845 C 0.83624 0.16517 0.35687 0.0
C846 C 0.85531 0.14656 0.37928 0.0
H847 H 0.91642 0.04381 0.52052 0.0
H848 H 0.88485 0.07633 0.4906 0.0
H849 H 0.91842 0.14444 0.4208 0.0
H850 H 0.83505 0.21773 0.28409 0.0
H851 H 0.86591 0.18714 0.31932 0.0
C852 C 0.68304 0.20176 0.1804 0.0
C853 C 0.6999 0.19508 0.21697 0.0
C854 C 0.66454 0.18364 0.16386 0.0
C855 C 0.61753 0.14703 0.15281 0.0
H856 H 0.63888 0.07434 0.13169 0.0
C857 C 0.54348 0.06534 0.10165 0.0
C858 C 0.55117 0.04767 0.06705 0.0
C859 C 0.56155 0.08327 0.12032 0.0
C860 C 0.63268 0.09461 0.13716 0.0
H861 H 0.71064 0.16431 0.26511 0.0
H862 H 0.67811 0.13236 0.23607 0.0
H863 H 0.67035 0.10574 0.16491 0.0
H864 H 0.58388 0.03434 0.02564 0.0
H865 H 0.61556 0.06596 0.05786 0.0
H866 H 0.58002 0.13607 0.12454 0.0
C867 C 0.67933 0.15165 0.22015 0.0
C868 C 0.65059 0.1125 0.15669 0.0
C869 C 0.69778 0.16994 0.23699 0.0
C870 C 0.57737 0.04806 0.05175 0.0
C871 C 0.59553 0.06593 0.07058 0.0
C872 C 0.5996 0.12914 0.13357 0.0
C873 C 0.66255 0.15832 0.18331 0.0
C874 C 0.64325 0.13895 0.1645 0.0
C875 C 0.5878 0.08375 0.10508 0.0
C876 C 0.60698 0.10274 0.12538 0.0
H877 H 0.6842 0.22105 0.16442 0.0
H878 H 0.65213 0.18929 0.13516 0.0
H879 H 0.6112 0.16723 0.15871 0.0
H880 H 0.5234 0.06544 0.11414 0.0
H881 H 0.55505 0.09651 0.14719 0.0
C882 C 0.70144 0.80832 0.85983 0.0
C883 C 0.70642 0.80799 0.8124 0.0
C884 C 0.68429 0.82688 0.87878 0.0
C885 C 0.62742 0.86785 0.84992 0.0
H886 H 0.64402 0.90455 0.96335 0.0
C887 C 0.55939 0.9487 0.92076 0.0
C888 C 0.55564 0.95047 0.9684 0.0
C889 C 0.57849 0.93197 0.90251 0.0
C890 C 0.63892 0.89419 0.93202 0.0
H891 H 0.69803 0.82791 0.74814 0.0
H892 H 0.66748 0.86007 0.78134 0.0
H893 H 0.67659 0.87497 0.92918 0.0
H894 H 0.56948 0.936 0.03424 0.0
H895 H 0.60241 0.90599 1.00216 0.0
H896 H 0.58959 0.88636 0.85309 0.0
C897 C 0.67683 0.84567 0.80359 0.0
C898 C 0.65764 0.87738 0.91232 0.0
C899 C 0.6943 0.82723 0.78461 0.0
C900 C 0.5717 0.93507 0.9974 0.0
C901 C 0.59075 0.91802 0.97899 0.0
C902 C 0.60862 0.88443 0.8698 0.0
C903 C 0.67153 0.84553 0.85085 0.0
C904 C 0.65209 0.8641 0.871 0.0
C905 C 0.59427 0.91619 0.93123 0.0
C906 C 0.61415 0.89794 0.911 0.0
H907 H 0.7104 0.79393 0.88254 0.0
H908 H 0.68043 0.82614 0.91522 0.0
H909 H 0.62241 0.85748 0.81854 0.0
H910 H 0.54763 0.96034 0.89713 0.0
H911 H 0.581 0.93162 0.86569 0.0
C912 C 0.55459 0.55176 0.92327 0.0
C913 C 0.55366 0.54891 0.97108 0.0
C914 C 0.5728 0.56894 0.90306 0.0
C915 C 0.63573 0.60437 0.92685 0.0
H916 H 0.61464 0.64761 0.82329 0.0
C917 C 0.71008 0.66977 0.82841 0.0
C918 C 0.70162 0.69541 0.81698 0.0
C919 C 0.69222 0.65117 0.84554 0.0
C920 C 0.62081 0.63576 0.85234 0.0
H921 H 0.5717 0.5611 0.03487 0.0
H922 H 0.60263 0.59185 1.0004 0.0
H923 H 0.58306 0.61694 0.85697 0.0
H924 H 0.66778 0.7216 0.81421 0.0
H925 H 0.63658 0.68915 0.84352 0.0
H926 H 0.67327 0.62365 0.92291 0.0
C927 C 0.58951 0.58071 0.97821 0.0
C928 C 0.60279 0.61794 0.87135 0.0
C929 C 0.57136 0.56347 0.99823 0.0
C930 C 0.67487 0.70194 0.82243 0.0
C931 C 0.65697 0.68331 0.83915 0.0
C932 C 0.65375 0.62214 0.9078 0.0
C933 C 0.59052 0.58368 0.93031 0.0
C934 C 0.60994 0.60212 0.90908 0.0
C935 C 0.66544 0.65772 0.85121 0.0
C936 C 0.64648 0.63818 0.87047 0.0
H937 H 0.54094 0.54097 0.90156 0.0
H938 H 0.57314 0.57046 0.86606 0.0
H939 H 0.64209 0.59229 0.95548 0.0
H940 H 0.73051 0.66405 0.824 0.0
H941 H 0.69935 0.63155 0.85392 0.0
C942 C 0.7002 0.32752 0.22515 0.0
C943 C 0.70213 0.30183 0.20701 0.0
C944 C 0.68265 0.34591 0.20593 0.0
C945 C 0.62215 0.35014 0.13538 0.0
H946 H 0.64333 0.42295 0.11553 0.0
C947 C 0.57987 0.45 0.03912 0.0
C948 C 0.55447 0.45087 0.05799 0.0
C949 C 0.59855 0.43178 0.05554 0.0
C950 C 0.63723 0.40262 0.12054 0.0
H951 H 0.68739 0.27534 0.15424 0.0
H952 H 0.65701 0.30735 0.12063 0.0
H953 H 0.67478 0.39146 0.14888 0.0
H954 H 0.52834 0.4329 0.10751 0.0
H955 H 0.56064 0.40102 0.13558 0.0
H956 H 0.58464 0.36124 0.10724 0.0
C957 C 0.66877 0.31326 0.15001 0.0
C958 C 0.65512 0.38468 0.14011 0.0
C959 C 0.68634 0.29497 0.16909 0.0
C960 C 0.54785 0.4328 0.09257 0.0
C961 C 0.5663 0.41443 0.10846 0.0
C962 C 0.60425 0.36809 0.11624 0.0
C963 C 0.66668 0.33895 0.16817 0.0
C964 C 0.64776 0.35822 0.14776 0.0
C965 C 0.59193 0.41381 0.09045 0.0
C966 C 0.61153 0.39455 0.10872 0.0
H967 H 0.71246 0.3335 0.25382 0.0
H968 H 0.68138 0.36548 0.22093 0.0
H969 H 0.61578 0.32997 0.14114 0.0
H970 H 0.58541 0.46376 1.01244 0.0
H971 H 0.61811 0.43161 0.0408 0.0
C972 C 0.9244 0.444 0.48166 0.0
C973 C 0.94504 0.45549 0.4571 0.0
C974 C 0.90649 0.42705 0.46 0.0
C975 C 0.89687 0.38659 0.35405 0.0
H976 H 0.8249 0.38379 0.39816 0.0
C977 C 0.81293 0.32383 0.26926 0.0
C978 C 0.79968 0.30709 0.30001 0.0
C979 C 0.83044 0.34321 0.28549 0.0
C980 C 0.84495 0.38438 0.38551 0.0
H981 H 0.96322 0.45867 0.39059 0.0
H982 H 0.931 0.43036 0.35154 0.0
H983 H 0.85558 0.41572 0.43109 0.0
H984 H 0.79431 0.29814 0.3722 0.0
H985 H 0.82409 0.33229 0.40008 0.0
H986 H 0.8857 0.35543 0.30772 0.0
C987 C 0.92899 0.43363 0.38801 0.0
C988 C 0.86266 0.40254 0.40459 0.0
C989 C 0.94722 0.45021 0.4101 0.0
C990 C 0.80405 0.31058 0.34733 0.0
C991 C 0.8211 0.33022 0.36346 0.0
C992 C 0.87896 0.36869 0.33441 0.0
C993 C 0.90839 0.42169 0.41275 0.0
C994 C 0.88905 0.40358 0.38984 0.0
C995 C 0.83457 0.34664 0.33277 0.0
C996 C 0.85297 0.3671 0.35056 0.0
H997 H 0.92173 0.44848 0.51743 0.0
H998 H 0.89127 0.41803 0.48061 0.0
H999 H 0.91703 0.38648 0.34205 0.0
H1000 H 0.8099 0.32196 0.23264 0.0
H1001 H 0.84049 0.35576 0.26113 0.0
C1002 C 0.81605 0.70595 0.6788 0.0
C1003 C 0.8009 0.69799 0.71644 0.0
C1004 C 0.83379 0.68842 0.65841 0.0
C1005 C 0.84675 0.61753 0.64256 0.0
H1006 H 0.91705 0.6406 0.6094 0.0
C1007 C 0.95182 0.56806 0.59043 0.0
C1008 C 0.94431 0.55083 0.55488 0.0
C1009 C 0.93416 0.58678 0.60731 0.0
C1010 C 0.89746 0.6339 0.61842 0.0
H1011 H 0.79214 0.66542 0.76204 0.0
H1012 H 0.82336 0.63474 0.72656 0.0
H1013 H 0.88697 0.67158 0.64663 0.0
H1014 H 0.91269 0.53979 0.50854 0.0
H1015 H 0.88132 0.57254 0.53872 0.0
H1016 H 0.85742 0.57973 0.61472 0.0
C1017 C 0.8215 0.65456 0.71287 0.0
C1018 C 0.88021 0.65166 0.6395 0.0
C1019 C 0.80391 0.6722 0.73353 0.0
C1020 C 0.91887 0.55288 0.53599 0.0
C1021 C 0.90097 0.57146 0.55339 0.0
C1022 C 0.86395 0.59982 0.62106 0.0
C1023 C 0.83652 0.66245 0.6749 0.0
C1024 C 0.85474 0.64361 0.65214 0.0
C1025 C 0.90847 0.58854 0.58933 0.0
C1026 C 0.88956 0.60777 0.60916 0.0
H1027 H 0.81404 0.72572 0.66487 0.0
H1028 H 0.84493 0.69501 0.629 0.0
H1029 H 0.82714 0.61086 0.65145 0.0
H1030 H 0.97141 0.56702 0.60536 0.0
H1031 H 0.94044 0.59949 0.63523 0.0
C1032 C 0.32522 0.30026 0.21604 0.0
C1033 C 0.2979 0.30503 0.21512 0.0
C1034 C 0.34285 0.31854 0.19758 0.0
C1035 C 0.34897 0.37159 0.11321 0.0
H1036 H 0.40941 0.39302 0.18634 0.0
C1037 C 0.4204 0.45472 0.05512 0.0
C1038 C 0.44713 0.45236 0.06725 0.0
C1039 C 0.4018 0.43672 0.07187 0.0
C1040 C 0.39293 0.38697 0.165 0.0
H1041 H 0.26766 0.33271 0.19329 0.0
H1042 H 0.29851 0.36425 0.15916 0.0
H1043 H 0.37779 0.36175 0.21758 0.0
H1044 H 0.4756 0.42905 0.10526 0.0
H1045 H 0.44351 0.39723 0.13346 0.0
H1046 H 0.36441 0.39619 0.06007 0.0
C1047 C 0.30622 0.34639 0.17479 0.0
C1048 C 0.3747 0.36914 0.18313 0.0
C1049 C 0.28857 0.3283 0.19418 0.0
C1050 C 0.45502 0.4315 0.09586 0.0
C1051 C 0.43655 0.41334 0.11217 0.0
C1052 C 0.36743 0.38919 0.09475 0.0
C1053 C 0.33358 0.34181 0.17672 0.0
C1054 C 0.35254 0.36122 0.15746 0.0
C1055 C 0.40958 0.41586 0.10097 0.0
C1056 C 0.38973 0.39711 0.12036 0.0
H1057 H 0.33305 0.28221 0.23062 0.0
H1058 H 0.36379 0.31427 0.19901 0.0
H1059 H 0.33219 0.36562 0.09248 0.0
H1060 H 0.41379 0.47081 0.03342 0.0
H1061 H 0.38125 0.4396 0.06283 0.0
C1062 C 0.45312 0.57137 0.93906 0.0
C1063 C 0.44797 0.55693 0.97914 0.0
C1064 C 0.4349 0.58989 0.9226 0.0
C1065 C 0.36501 0.60496 0.91875 0.0
H1066 H 0.38697 0.67596 0.88663 0.0
C1067 C 0.29004 0.6822 0.85057 0.0
C1068 C 0.29871 0.70052 0.81774 0.0
C1069 C 0.308 0.66549 0.87295 0.0
C1070 C 0.38048 0.65611 0.89462 0.0
H1071 H 0.4197 0.55055 0.03341 0.0
H1072 H 0.38741 0.58254 1.00375 0.0
H1073 H 0.41877 0.64534 0.92025 0.0
H1074 H 0.33335 0.71624 0.78441 0.0
H1075 H 0.36427 0.68609 0.82042 0.0
H1076 H 0.32712 0.61501 0.89134 0.0
C1077 C 0.40573 0.57964 0.98549 0.0
C1078 C 0.39874 0.63865 0.91427 0.0
C1079 C 0.42424 0.56147 1.00254 0.0
C1080 C 0.32582 0.70192 0.80836 0.0
C1081 C 0.34371 0.68487 0.82995 0.0
C1082 C 0.34685 0.62224 0.89827 0.0
C1083 C 0.41091 0.59401 0.94534 0.0
C1084 C 0.39121 0.61288 0.92641 0.0
C1085 C 0.33512 0.66638 0.86269 0.0
C1086 C 0.35432 0.64808 0.88569 0.0
H1087 H 0.47129 0.56838 0.92038 0.0
H1088 H 0.43932 0.60058 0.89144 0.0
H1089 H 0.35877 0.58508 0.92733 0.0
H1090 H 0.26934 0.68077 0.85923 0.0
H1091 H 0.30055 0.65205 0.89862 0.0
C1092 C 0.19643 0.66977 0.74249 0.0
C1093 C 0.19902 0.69452 0.72119 0.0
C1094 C 0.1782 0.65124 0.72579 0.0
C1095 C 0.14966 0.61092 0.66428 0.0
H1096 H 0.08015 0.635 0.62664 0.0
C1097 C 0.07707 0.54616 0.55848 0.0
C1098 C 0.05047 0.54694 0.57144 0.0
C1099 C 0.0953 0.56364 0.57818 0.0
C1100 C 0.09941 0.62792 0.63728 0.0
H1101 H 0.18456 0.71938 0.666 0.0
H1102 H 0.15295 0.68714 0.63685 0.0
H1103 H 0.11138 0.66641 0.65987 0.0
H1104 H 0.0221 0.56602 0.61586 0.0
H1105 H 0.05388 0.59643 0.65043 0.0
H1106 H 0.13754 0.57236 0.64182 0.0
C1107 C 0.16476 0.68204 0.6666 0.0
C1108 C 0.11739 0.64596 0.65593 0.0
C1109 C 0.18302 0.70043 0.68308 0.0
C1110 C 0.04248 0.56513 0.605 0.0
C1111 C 0.06064 0.58265 0.62456 0.0
C1112 C 0.13169 0.59287 0.64537 0.0
C1113 C 0.16213 0.65722 0.68767 0.0
C1114 C 0.14276 0.63771 0.66948 0.0
C1115 C 0.08724 0.58218 0.61127 0.0
C1116 C 0.10638 0.6012 0.63159 0.0
H1117 H 0.20863 0.66469 0.77179 0.0
H1118 H 0.17649 0.63234 0.74295 0.0
H1119 H 0.16913 0.60401 0.67403 0.0
H1120 H 0.08379 0.53195 0.53333 0.0
H1121 H 0.11563 0.5629 0.56701 0.0
C1122 C 0.19407 0.32822 0.28663 0.0
C1123 C 0.20041 0.30491 0.31049 0.0
C1124 C 0.17593 0.34626 0.3049 0.0
C1125 C 0.15032 0.37088 0.41218 0.0
H1126 H 0.08673 0.38981 0.34557 0.0
C1127 C 0.06705 0.43252 0.49632 0.0
C1128 C 0.05229 0.44959 0.46813 0.0
C1129 C 0.08543 0.415 0.47721 0.0
C1130 C 0.1046 0.38524 0.36445 0.0
H1131 H 0.19238 0.28211 0.37186 0.0
H1132 H 0.16165 0.31404 0.40424 0.0
H1133 H 0.11874 0.36019 0.31045 0.0
H1134 H 0.04615 0.46215 0.39765 0.0
H1135 H 0.0788 0.43311 0.36517 0.0
H1136 H 0.1369 0.39645 0.46562 0.0
C1137 C 0.17058 0.31824 0.37141 0.0
C1138 C 0.12284 0.36813 0.34425 0.0
C1139 C 0.18817 0.3 0.35278 0.0
C1140 C 0.05686 0.44918 0.42064 0.0
C1141 C 0.07553 0.43218 0.40175 0.0
C1142 C 0.13237 0.38844 0.43206 0.0
C1143 C 0.16435 0.34152 0.34774 0.0
C1144 C 0.14574 0.36069 0.36807 0.0
C1145 C 0.08986 0.41454 0.42955 0.0
C1146 C 0.10915 0.39581 0.40857 0.0
H1147 H 0.20338 0.33269 0.25426 0.0
H1148 H 0.17138 0.36418 0.28611 0.0
H1149 H 0.16796 0.36544 0.4311 0.0
H1150 H 0.06423 0.43241 0.53306 0.0
H1151 H 0.09581 0.40155 0.49983 0.0
C1152 C 0.98037 0.96835 0.85123 0.0
C1153 C 0.97999 0.99107 0.82352 0.0
C1154 C 0.9857 0.97035 0.89809 0.0
C1155 C 0.98498 0.01806 0.99384 0.0
H1156 H 0.02922 0.96582 0.05399 0.0
C1157 C 0.02264 0.02964 0.18002 0.0
C1158 C 0.02247 0.00691 0.20768 0.0
C1159 C 0.01681 0.02784 0.1333 0.0
C1160 C 0.01659 0.98039 0.03776 0.0
H1161 H 0.98496 0.03371 0.82331 0.0
H1162 H 0.99489 0.03711 0.90491 0.0
H1163 H 0.02101 0.96247 0.97181 0.0
H1164 H 0.01589 0.9645 0.20813 0.0
H1165 H 0.00534 0.96143 0.12666 0.0
H1166 H 0.98068 0.03604 0.05984 0.0
C1167 C 0.9907 0.01779 0.89049 0.0
C1168 C 0.01189 0.97848 0.9907 0.0
C1169 C 0.98533 0.0158 0.84364 0.0
C1170 C 0.01599 0.9824 0.18777 0.0
C1171 C 0.01024 0.98059 0.14104 0.0
C1172 C 0.98972 0.02 0.04091 0.0
C1173 C 0.99082 0.99511 0.91828 0.0
C1174 C 0.99601 0.99727 0.96822 0.0
C1175 C 0.01078 0.00326 0.11325 0.0
C1176 C 0.00555 1.00117 0.06336 0.0
H1177 H 0.97666 0.94897 0.83667 0.0
H1178 H 0.98542 0.95253 0.91862 0.0
H1179 H 0.97231 0.03262 0.97766 0.0
H1180 H 0.02728 0.04884 0.19452 0.0
H1181 H 0.01755 0.04563 0.11269 0.0
C1182 C 0.30234 0.79562 0.42718 0.0
C1183 C 0.29674 0.77554 0.45884 0.0
C1184 C 0.29624 0.79241 0.38076 0.0
C1185 C 0.2561 0.75202 0.29939 0.0
H1186 H 0.30325 0.78322 0.21034 0.0
C1187 C 0.24133 0.73981 0.10293 0.0
C1188 C 0.24071 0.76396 0.07925 0.0
C1189 C 0.25032 0.73882 0.14841 0.0
C1190 C 0.28991 0.77439 0.23482 0.0
H1191 H 0.28013 0.73634 0.46668 0.0
H1192 H 0.27001 0.73035 0.38528 0.0
H1193 H 0.31408 0.7859 0.29166 0.0
H1194 H 0.24974 0.80572 0.08338 0.0
H1195 H 0.26627 0.80393 0.16227 0.0
H1196 H 0.23211 0.74034 0.24198 0.0
C1197 C 0.27871 0.74885 0.39641 0.0
C1198 C 0.29598 0.77608 0.28152 0.0
C1199 C 0.28456 0.75222 0.44308 0.0
C1200 C 0.25027 0.78685 0.10093 0.0
C1201 C 0.2597 0.7858 0.14599 0.0
C1202 C 0.2502 0.75005 0.25254 0.0
C1203 C 0.28466 0.76885 0.36453 0.0
C1204 C 0.27891 0.76538 0.31458 0.0
C1205 C 0.25927 0.7619 0.17057 0.0
C1206 C 0.26683 0.76162 0.21984 0.0
H1207 H 0.31124 0.81402 0.43843 0.0
H1208 H 0.30044 0.80858 0.35766 0.0
H1209 H 0.24231 0.74378 0.32367 0.0
H1210 H 0.23374 0.72198 0.08697 0.0
H1211 H 0.24991 0.72013 0.16649 0.0
C1212 C 0.49052 0.01325 0.68356 0.0
C1213 C 0.47124 0.99707 0.70379 0.0
C1214 C 0.49655 0.0108 0.63691 0.0
C1215 C 0.4885 0.96532 0.53635 0.0
H1216 H 0.50631 0.02818 0.46717 0.0
C1217 C 0.50186 0.96322 0.33907 0.0
C1218 C 0.52543 0.97466 0.32368 0.0
C1219 C 0.49344 0.96724 0.38429 0.0
C1220 C 0.50141 0.01044 0.48606 0.0
H1221 H 0.44383 0.96496 0.69031 0.0
H1222 H 0.45346 0.96148 0.60918 0.0
H1223 H 0.4959 0.03203 0.54842 0.0
H1224 H 0.55793 1.00034 0.34254 0.0
H1225 H 0.543 0.00783 0.42096 0.0
H1226 H 0.4937 0.94386 0.47359 0.0
C1227 C 0.4643 0.97585 0.62937 0.0
C1228 C 0.49562 0.01258 0.53282 0.0
C1229 C 0.45846 0.97813 0.67604 0.0
C1230 C 0.53971 0.99122 0.35359 0.0
C1231 C 0.5311 0.99558 0.39843 0.0
C1232 C 0.49398 0.96325 0.48949 0.0
C1233 C 0.48335 0.99223 0.60896 0.0
C1234 C 0.48925 0.99002 0.55882 0.0
C1235 C 0.5082 0.98316 0.41469 0.0
C1236 C 0.50069 0.98574 0.46384 0.0
H1237 H 0.50066 0.02825 0.70349 0.0
H1238 H 0.51167 0.02349 0.62287 0.0
H1239 H 0.4842 0.94739 0.55509 0.0
H1240 H 0.49056 0.95027 0.31677 0.0
H1241 H 0.47558 0.95759 0.39569 0.0
C1242 C 0.23661 0.26271 0.93533 0.0
C1243 C 0.25423 0.2808 0.95582 0.0
C1244 C 0.23842 0.25647 0.88865 0.0
C1245 C 0.26339 0.28188 0.77858 0.0
H1246 H 0.25906 0.20869 0.7396 0.0
C1247 C 0.28827 0.24824 0.59302 0.0
C1248 C 0.27539 0.22583 0.57538 0.0
C1249 C 0.28398 0.25635 0.6384 0.0
C1250 C 0.25982 0.22932 0.74954 0.0
H1251 H 0.2881 0.30591 0.94274 0.0
H1252 H 0.29084 0.29541 0.86136 0.0
H1253 H 0.25507 0.21958 0.82045 0.0
H1254 H 0.24683 0.19526 0.59003 0.0
H1255 H 0.23833 0.20998 0.66814 0.0
H1256 H 0.26778 0.29173 0.70769 0.0
C1257 C 0.27544 0.28628 0.88146 0.0
C1258 C 0.25765 0.23552 0.79613 0.0
C1259 C 0.27381 0.29233 0.9282 0.0
C1260 C 0.25715 0.21251 0.60301 0.0
C1261 C 0.25254 0.22081 0.64798 0.0
C1262 C 0.26527 0.27571 0.73185 0.0
C1263 C 0.25774 0.26832 0.86107 0.0
C1264 C 0.25955 0.26185 0.81129 0.0
C1265 C 0.26646 0.24237 0.66691 0.0
C1266 C 0.26362 0.2493 0.7166 0.0
H1267 H 0.221 0.25373 0.9551 0.0
H1268 H 0.22432 0.24274 0.87393 0.0
H1269 H 0.26461 0.30241 0.78909 0.0
H1270 H 0.30261 0.25868 0.57246 0.0
H1271 H 0.29528 0.27289 0.6516 0.0
C1272 C 0.78733 0.25024 0.93627 0.0
C1273 C 0.80078 0.27279 0.95229 0.0
C1274 C 0.78116 0.24742 0.88961 0.0
C1275 C 0.7995 0.2742 0.77494 0.0
H1276 H 0.73344 0.24262 0.73559 0.0
C1277 C 0.75417 0.28905 0.5951 0.0
C1278 C 0.74319 0.26697 0.57286 0.0
C1279 C 0.76346 0.28707 0.64014 0.0
C1280 C 0.75213 0.25116 0.74608 0.0
H1281 H 0.81727 0.31054 0.93228 0.0
H1282 H 0.80602 0.30605 0.85153 0.0
H1283 H 0.74419 0.24489 0.81723 0.0
H1284 H 0.73353 0.22547 0.57968 0.0
H1285 H 0.74945 0.22205 0.65921 0.0
H1286 H 0.80689 0.28134 0.70381 0.0
C1287 C 0.80101 0.29002 0.87444 0.0
C1288 C 0.75833 0.25245 0.7929 0.0
C1289 C 0.80738 0.29269 0.92086 0.0
C1290 C 0.74219 0.24268 0.59606 0.0
C1291 C 0.75106 0.2408 0.64155 0.0
C1292 C 0.79315 0.27318 0.72829 0.0
C1293 C 0.78809 0.26722 0.85796 0.0
C1294 C 0.78196 0.26435 0.80803 0.0
C1295 C 0.76152 0.26308 0.6642 0.0
C1296 C 0.76927 0.26194 0.71337 0.0
H1297 H 0.7821 0.2345 0.95966 0.0
H1298 H 0.77142 0.22949 0.87828 0.0
H1299 H 0.81819 0.28287 0.78502 0.0
H1300 H 0.75497 0.30802 0.57792 0.0
H1301 H 0.77121 0.30462 0.65678 0.0
C1302 C 0.72394 0.76026 0.43739 0.0
C1303 C 0.74712 0.77008 0.4579 0.0
C1304 C 0.72335 0.75376 0.39075 0.0
C1305 C 0.75803 0.76775 0.28218 0.0
H1306 H 0.71897 0.70701 0.23723 0.0
C1307 C 0.7632 0.73243 0.09361 0.0
C1308 C 0.73967 0.72359 0.07287 0.0
C1309 C 0.76413 0.73824 0.14048 0.0
C1310 C 0.72972 0.72423 0.24916 0.0
H1311 H 0.78821 0.7796 0.44588 0.0
H1312 H 0.78726 0.76808 0.36472 0.0
H1313 H 0.72094 0.71588 0.31933 0.0
H1314 H 0.69845 0.71475 0.08509 0.0
H1315 H 0.70007 0.72488 0.16679 0.0
H1316 H 0.76683 0.77608 0.21201 0.0
C1317 C 0.76933 0.76599 0.38439 0.0
C1318 C 0.73087 0.7293 0.29627 0.0
C1319 C 0.7699 0.77254 0.43096 0.0
C1320 C 0.71701 0.72106 0.10008 0.0
C1321 C 0.71794 0.72685 0.14695 0.0
C1322 C 0.75691 0.76265 0.23508 0.0
C1323 C 0.74596 0.75684 0.36353 0.0
C1324 C 0.74502 0.75115 0.31341 0.0
C1325 C 0.74155 0.73534 0.16782 0.0
C1326 C 0.74271 0.74085 0.21796 0.0
H1327 H 0.70598 0.75842 0.45703 0.0
H1328 H 0.70493 0.74706 0.37576 0.0
H1329 H 0.76873 0.78502 0.29405 0.0
H1330 H 0.78112 0.73425 0.07385 0.0
H1331 H 0.78272 0.74442 0.15551 0.0
C1332 C 0.50722 0.4865 0.68961 0.0
C1333 C 0.52689 0.50266 0.70922 0.0
C1334 C 0.50092 0.48837 0.64293 0.0
C1335 C 0.50829 0.53241 0.54123 0.0
H1336 H 0.48968 0.46874 0.47415 0.0
C1337 C 0.49167 0.53231 0.34447 0.0
C1338 C 0.46818 0.52012 0.32976 0.0
C1339 C 0.50073 0.52904 0.38962 0.0
C1340 C 0.49477 0.4867 0.49245 0.0
H1341 H 0.55487 0.53398 0.69464 0.0
H1342 H 0.54465 0.53651 0.61331 0.0
H1343 H 0.50121 0.46582 0.55524 0.0
H1344 H 0.43656 0.49387 0.34992 0.0
H1345 H 0.45248 0.4879 0.42834 0.0
H1346 H 0.50204 0.55318 0.47812 0.0
C1347 C 0.53374 0.52262 0.63408 0.0
C1348 C 0.50124 0.48509 0.53908 0.0
C1349 C 0.53989 0.5209 0.68081 0.0
C1350 C 0.45461 0.50368 0.36044 0.0
C1351 C 0.46382 0.50013 0.40526 0.0
C1352 C 0.50207 0.53397 0.4945 0.0
C1353 C 0.51423 0.50631 0.61436 0.0
C1354 C 0.50787 0.50795 0.5643 0.0
C1355 C 0.48669 0.51318 0.42071 0.0
C1356 C 0.49502 0.51118 0.46964 0.0
H1357 H 0.49694 0.472 0.7101 0.0
H1358 H 0.48547 0.47576 0.62933 0.0
H1359 H 0.51284 0.55053 0.55946 0.0
H1360 H 0.50249 0.54514 0.3216 0.0
H1361 H 0.51856 0.53914 0.40038 0.0
C1362 C 0.02812 0.52665 0.84265 0.0
C1363 C 0.02772 0.5034 0.81597 0.0
C1364 C 0.02192 0.52607 0.88929 0.0
C1365 C 0.01589 0.47966 0.9883 0.0
H1366 H 0.98284 0.54036 0.04573 0.0
C1367 C 0.97576 0.47952 0.17483 0.0
C1368 C 0.98109 0.50196 0.20196 0.0
C1369 C 0.98226 0.47908 0.12824 0.0
C1370 C 0.99231 0.52334 0.0303 0.0
H1371 H 0.0196 0.46129 0.81804 0.0
H1372 H 0.00767 0.46044 0.89882 0.0
H1373 H 0.99065 0.54057 0.9635 0.0
H1374 H 0.99782 0.54138 0.20143 0.0
H1375 H 0.00896 0.54073 0.11989 0.0
H1376 H 0.01681 0.46226 0.05535 0.0
C1377 C 0.01356 0.47911 0.88389 0.0
C1378 C 0.99687 0.52344 0.98301 0.0
C1379 C 0.02003 0.47965 0.83719 0.0
C1380 C 0.99357 0.52376 0.18154 0.0
C1381 C 0.99973 0.52346 0.13476 0.0
C1382 C 0.01099 0.47944 0.03556 0.0
C1383 C 0.01471 0.50227 0.91085 0.0
C1384 C 0.00892 0.50168 0.96122 0.0
C1385 C 0.99394 0.5012 0.10744 0.0
C1386 C 0.9993 0.50136 0.05719 0.0
H1387 H 0.03341 0.54546 0.82759 0.0
H1388 H 0.02338 0.54432 0.9086 0.0
H1389 H 0.02561 0.46269 0.97324 0.0
H1390 H 0.96635 0.46232 0.18962 0.0
H1391 H 0.97744 0.46167 0.10818 0.0
loop_
_geom_bond_atom_site_label_1
_geom_bond_atom_site_label_2
_geom_bond_distance
_geom_bond_site_symmetry_2
_ccdc_geom_bond_type
Tb0 N29 2.619 . S
Tb0 N35 2.551 1_655 S
Tb0 O44 2.461 1_655 S
Tb0 O45 2.373 1_655 S
Tb0 O47 2.441 . S
Tb0 O48 2.292 1_645 S
Tb0 O52 2.365 1_545 S
Tb0 O55 2.412 . S
Tb0 C64 2.808 . S
C1 N2 1.379 1_655 S
C1 C4 1.416 . S
C1 C8 1.424 . S
N2 C1 1.379 1_455 S
N2 C5 1.334 . S
N2 Tb11 2.619 . S
C3 C5 1.390 . S
C3 C6 1.339 . S
C3 H23 0.930 . S
C4 C1 1.416 . S
C4 C6 1.416 1_655 S
C4 C10 1.448 . S
C5 N2 1.334 . S
C5 C3 1.390 . S
C5 H16 0.930 . S
C6 C3 1.339 . S
C6 C4 1.416 1_455 S
C6 H27 0.930 . S
C7 C8 1.413 . S
C7 C9 1.427 . S
C7 C13 1.416 . S
C8 C1 1.424 . S
C8 C7 1.413 . S
C8 N12 1.361 . S
C9 C7 1.427 . S
C9 C10 1.328 . S
C9 H24 0.929 . S
C10 C4 1.448 . S
C10 C9 1.328 . S
C10 H25 0.930 . S
Tb11 N2 2.619 . S
Tb11 N12 2.542 1_455 S
Tb11 O46 2.371 1_565 S
Tb11 O49 2.420 . S
Tb11 O50 2.460 1_455 S
Tb11 O51 2.368 1_455 S
Tb11 O53 2.447 . S
Tb11 O54 2.285 1_465 S
Tb11 C75 2.810 . S
N12 C8 1.361 . S
N12 Tb11 2.542 1_655 S
N12 C14 1.340 . S
C13 C7 1.416 . S
C13 C15 1.332 . S
C13 H21 0.931 . S
C14 N12 1.340 . S
C14 C15 1.407 . S
C14 H20 0.930 . S
C15 C13 1.332 . S
C15 C14 1.407 . S
C15 H17 0.929 . S
H16 C5 0.930 . S
H17 C15 0.929 . S
H18 C33 0.930 . S
H19 C40 0.929 . S
H20 C14 0.930 . S
H21 C13 0.931 . S
H22 C36 0.930 . S
H23 C3 0.930 . S
H24 C9 0.929 . S
H25 C10 0.930 . S
H26 C31 0.930 . S
H27 C6 0.930 . S
H28 C39 0.931 . S
N29 Tb0 2.619 . S
N29 C30 1.379 1_655 S
N29 C33 1.334 . S
C30 N29 1.379 1_455 S
C30 C32 1.416 . S
C30 C38 1.424 . S
C31 H26 0.930 . S
C31 C33 1.390 . S
C31 C34 1.339 . S
C32 C30 1.416 . S
C32 C34 1.416 1_455 S
C32 C65 1.448 . S
C33 H18 0.930 . S
C33 N29 1.334 . S
C33 C31 1.390 . S
C34 C31 1.339 . S
C34 C32 1.416 1_655 S
C34 H41 0.930 . S
N35 Tb0 2.551 1_455 S
N35 C36 1.340 . S
N35 C38 1.361 . S
C36 H22 0.930 . S
C36 N35 1.340 . S
C36 C40 1.407 . S
C37 C38 1.413 . S
C37 C39 1.416 . S
C37 C66 1.427 . S
C38 C30 1.424 . S
C38 N35 1.361 . S
C38 C37 1.413 . S
C39 H28 0.931 . S
C39 C37 1.416 . S
C39 C40 1.332 . S
C40 H19 0.929 . S
C40 C36 1.407 . S
C40 C39 1.332 . S
H41 C34 0.930 . S
H42 C65 0.930 . S
H43 C66 0.929 . S
O44 Tb0 2.461 1_455 S
O44 C64 1.264 1_455 S
O45 Tb0 2.373 1_455 S
O45 C56 1.264 . S
O46 Tb11 2.371 1_545 S
O46 C56 1.243 . S
O47 Tb0 2.441 . S
O47 C64 1.256 . S
O48 Tb0 2.292 1_465 S
O48 C63 1.266 . S
O49 Tb11 2.420 . S
O49 C63 1.248 . S
O50 Tb11 2.460 1_655 S
O50 C75 1.264 1_655 S
O51 Tb11 2.368 1_655 S
O51 C67 1.264 . S
O52 Tb0 2.365 1_565 S
O52 C67 1.243 . S
O53 Tb11 2.447 . S
O53 C75 1.256 . S
O54 Tb11 2.285 1_645 S
O54 C74 1.266 . S
O55 Tb0 2.412 . S
O55 C74 1.248 . S
C56 O45 1.264 . S
C56 O46 1.243 . S
C57 C60 1.399 . S
C57 C62 1.396 . S
C57 C64 1.496 . S
C58 C59 1.395 1_565 S
C58 C62 1.389 1_565 S
C59 C58 1.395 1_545 S
C59 C61 1.380 . S
C59 H76 0.929 . S
C60 C57 1.399 . S
C60 C61 1.392 . S
C60 H77 0.929 . S
C61 C59 1.380 . S
C61 C60 1.392 . S
C61 H78 0.929 . S
C62 C57 1.396 . S
C62 C58 1.389 1_545 S
C62 H79 0.919 1_645 S
C63 O48 1.266 . S
C63 O49 1.248 . S
C64 Tb0 2.808 . S
C64 O44 1.264 1_655 S
C64 O47 1.256 . S
C64 C57 1.496 . S
C65 C32 1.448 . S
C65 H42 0.930 . S
C65 C66 1.328 . S
C66 C37 1.427 . S
C66 H43 0.929 . S
C66 C65 1.328 . S
C67 O51 1.264 . S
C67 O52 1.243 . S
C68 C71 1.399 . S
C68 C72 1.389 . S
C68 C75 1.496 . S
C69 C70 1.389 1_545 S
C69 C72 1.389 1_545 S
C70 C69 1.389 1_565 S
C70 C73 1.380 . S
C70 H80 0.929 . S
C71 C68 1.399 . S
C71 C73 1.392 . S
C71 H81 0.929 . S
C72 C68 1.389 . S
C72 C69 1.389 1_565 S
C72 H82 0.925 1_465 S
C73 C70 1.380 . S
C73 C71 1.392 . S
C73 H83 0.929 . S
C74 O54 1.266 . S
C74 O55 1.248 . S
C75 Tb11 2.810 . S
C75 O50 1.264 1_455 S
C75 O53 1.256 . S
C75 C68 1.496 . S
H76 C59 0.929 . S
H77 C60 0.929 . S
H78 C61 0.929 . S
H79 C62 0.919 1_465 S
H80 C70 0.929 . S
H81 C71 0.929 . S
H82 C72 0.925 1_645 S
H83 C73 0.929 . S
Tb84 N113 2.617 . S
Tb84 N119 2.572 . S
Tb84 O128 2.465 . S
Tb84 O129 2.387 . S
Tb84 O131 2.428 . S
Tb84 O132 2.308 . S
Tb84 O136 2.349 . S
Tb84 O139 2.393 . S
Tb84 C148 2.802 . S
C85 N86 1.379 . S
C85 C88 1.416 . S
C85 C92 1.424 . S
N86 C85 1.379 . S
N86 C89 1.334 . S
N86 Tb95 2.617 . S
C87 C89 1.390 . S
C87 C90 1.339 . S
C87 H107 0.930 . S
C88 C85 1.416 . S
C88 C90 1.416 . S
C88 C94 1.448 . S
C89 N86 1.334 . S
C89 C87 1.390 . S
C89 H100 0.930 . S
C90 C87 1.339 . S
C90 C88 1.416 . S
C90 H111 0.930 . S
C91 C92 1.413 . S
C91 C93 1.427 . S
C91 C97 1.416 . S
C92 C85 1.424 . S
C92 C91 1.413 . S
C92 N96 1.361 . S
C93 C91 1.427 . S
C93 C94 1.328 . S
C93 H108 0.929 . S
C94 C88 1.448 . S
C94 C93 1.328 . S
C94 H109 0.930 . S
Tb95 N86 2.617 . S
Tb95 N96 2.572 . S
Tb95 O130 2.349 . S
Tb95 O133 2.393 . S
Tb95 O134 2.465 . S
Tb95 O135 2.387 . S
Tb95 O137 2.428 . S
Tb95 O138 2.308 . S
Tb95 C159 2.802 . S
N96 C92 1.361 . S
N96 Tb95 2.572 . S
N96 C98 1.340 . S
C97 C91 1.416 . S
C97 C99 1.332 . S
C97 H105 0.931 . S
C98 N96 1.340 . S
C98 C99 1.407 . S
C98 H104 0.930 . S
C99 C97 1.332 . S
C99 C98 1.407 . S
C99 H101 0.929 . S
H100 C89 0.930 . S
H101 C99 0.929 . S
H102 C117 0.930 . S
H103 C124 0.929 . S
H104 C98 0.930 . S
H105 C97 0.931 . S
H106 C120 0.930 . S
H107 C87 0.930 . S
H108 C93 0.929 . S
H109 C94 0.930 . S
H110 C115 0.930 . S
H111 C90 0.930 . S
H112 C123 0.931 . S
N113 Tb84 2.617 . S
N113 C114 1.379 . S
N113 C117 1.334 . S
C114 N113 1.379 . S
C114 C116 1.416 . S
C114 C122 1.424 . S
C115 H110 0.930 . S
C115 C117 1.390 . S
C115 C118 1.339 . S
C116 C114 1.416 . S
C116 C118 1.416 . S
C116 C149 1.448 . S
C117 H102 0.930 . S
C117 N113 1.334 . S
C117 C115 1.390 . S
C118 C115 1.339 . S
C118 C116 1.416 . S
C118 H125 0.930 . S
N119 Tb84 2.572 . S
N119 C120 1.340 . S
N119 C122 1.361 . S
C120 H106 0.930 . S
C120 N119 1.340 . S
C120 C124 1.407 . S
C121 C122 1.413 . S
C121 C123 1.416 . S
C121 C150 1.427 . S
C122 C114 1.424 . S
C122 N119 1.361 . S
C122 C121 1.413 . S
C123 H112 0.931 . S
C123 C121 1.416 . S
C123 C124 1.332 . S
C124 H103 0.929 . S
C124 C120 1.407 . S
C124 C123 1.332 . S
H125 C118 0.930 . S
H126 C149 0.930 . S
H127 C150 0.929 . S
O128 Tb84 2.465 . S
O128 C148 1.264 . S
O129 Tb84 2.387 . S
O129 C140 1.264 . S
O130 Tb95 2.349 . S
O130 C140 1.243 . S
O131 Tb84 2.428 . S
O131 C148 1.256 . S
O132 Tb84 2.308 . S
O132 C147 1.266 . S
O133 Tb95 2.393 . S
O133 C147 1.248 . S
O134 Tb95 2.465 . S
O134 C159 1.264 . S
O135 Tb95 2.387 . S
O135 C151 1.264 . S
O136 Tb84 2.349 . S
O136 C151 1.243 . S
O137 Tb95 2.428 . S
O137 C159 1.256 . S
O138 Tb95 2.308 . S
O138 C158 1.266 . S
O139 Tb84 2.393 . S
O139 C158 1.248 . S
C140 O129 1.264 . S
C140 O130 1.243 . S
C141 C144 1.399 . S
C141 C146 1.383 . S
C141 C148 1.496 . S
C142 C143 1.399 . S
C142 C146 1.389 1_554 S
C143 C142 1.399 . S
C143 C145 1.380 . S
C143 H160 0.929 . S
C144 C141 1.399 . S
C144 C145 1.392 1_556 S
C144 H161 0.929 . S
C145 C143 1.380 . S
C145 C144 1.392 1_554 S
C145 H162 0.929 . S
C146 C141 1.383 . S
C146 C142 1.389 1_556 S
C146 H163 0.931 . S
C147 O132 1.266 . S
C147 O133 1.248 . S
C148 Tb84 2.802 . S
C148 O128 1.264 . S
C148 O131 1.256 . S
C148 C141 1.496 . S
C149 C116 1.448 . S
C149 H126 0.930 . S
C149 C150 1.328 . S
C150 C121 1.427 . S
C150 H127 0.929 . S
C150 C149 1.328 . S
C151 O135 1.264 . S
C151 O136 1.243 . S
C152 C155 1.399 . S
C152 C156 1.383 . S
C152 C159 1.496 . S
C153 C154 1.399 . S
C153 C156 1.389 . S
C154 C153 1.399 . S
C154 C157 1.380 . S
C154 H164 0.929 . S
C155 C152 1.399 . S
C155 C157 1.392 . S
C155 H165 0.929 . S
C156 C152 1.383 . S
C156 C153 1.389 . S
C156 H166 0.931 . S
C157 C154 1.380 . S
C157 C155 1.392 . S
C157 H167 0.929 . S
C158 O138 1.266 . S
C158 O139 1.248 . S
C159 Tb95 2.802 . S
C159 O134 1.264 . S
C159 O137 1.256 . S
C159 C152 1.496 . S
H160 C143 0.929 . S
H161 C144 0.929 . S
H162 C145 0.929 . S
H163 C146 0.931 . S
H164 C154 0.929 . S
H165 C155 0.929 . S
H166 C156 0.931 . S
H167 C157 0.929 . S
Tb168 N197 2.617 . S
Tb168 N203 2.572 . S
Tb168 O212 2.465 . S
Tb168 O213 2.387 1_554 S
Tb168 O215 2.428 . S
Tb168 O216 2.308 1_565 S
Tb168 O220 2.349 1_565 S
Tb168 O223 2.393 . S
Tb168 C232 2.802 . S
C169 N170 1.379 . S
C169 C172 1.416 . S
C169 C176 1.424 . S
N170 C169 1.379 . S
N170 C173 1.334 . S
N170 Tb179 2.617 . S
C171 C173 1.390 . S
C171 C174 1.339 . S
C171 H191 0.930 . S
C172 C169 1.416 . S
C172 C174 1.416 . S
C172 C178 1.448 . S
C173 N170 1.334 . S
C173 C171 1.390 . S
C173 H184 0.930 . S
C174 C171 1.339 . S
C174 C172 1.416 . S
C174 H195 0.930 . S
C175 C176 1.413 . S
C175 C177 1.427 . S
C175 C181 1.416 . S
C176 C169 1.424 . S
C176 C175 1.413 . S
C176 N180 1.361 . S
C177 C175 1.427 . S
C177 C178 1.328 . S
C177 H192 0.929 . S
C178 C172 1.448 . S
C178 C177 1.328 . S
C178 H193 0.930 . S
Tb179 N170 2.617 . S
Tb179 N180 2.572 . S
Tb179 O214 2.349 1_545 S
Tb179 O217 2.393 . S
Tb179 O218 2.465 . S
Tb179 O219 2.387 1_556 S
Tb179 O221 2.428 . S
Tb179 O222 2.308 1_545 S
Tb179 C243 2.802 . S
N180 C176 1.361 . S
N180 Tb179 2.572 . S
N180 C182 1.340 . S
C181 C175 1.416 . S
C181 C183 1.332 . S
C181 H189 0.931 . S
C182 N180 1.340 . S
C182 C183 1.407 . S
C182 H188 0.930 . S
C183 C181 1.332 . S
C183 C182 1.407 . S
C183 H185 0.929 . S
H184 C173 0.930 . S
H185 C183 0.929 . S
H186 C201 0.930 . S
H187 C208 0.929 . S
H188 C182 0.930 . S
H189 C181 0.931 . S
H190 C204 0.930 . S
H191 C171 0.930 . S
H192 C177 0.929 . S
H193 C178 0.930 . S
H194 C199 0.930 . S
H195 C174 0.930 . S
H196 C207 0.931 . S
N197 Tb168 2.617 . S
N197 C198 1.379 . S
N197 C201 1.334 . S
C198 N197 1.379 . S
C198 C200 1.416 . S
C198 C206 1.424 . S
C199 H194 0.930 . S
C199 C201 1.390 . S
C199 C202 1.339 . S
C200 C198 1.416 . S
C200 C202 1.416 . S
C200 C233 1.448 . S
C201 H186 0.930 . S
C201 N197 1.334 . S
C201 C199 1.390 . S
C202 C199 1.339 . S
C202 C200 1.416 . S
C202 H209 0.930 . S
N203 Tb168 2.572 . S
N203 C204 1.340 . S
N203 C206 1.361 . S
C204 H190 0.930 . S
C204 N203 1.340 . S
C204 C208 1.407 . S
C205 C206 1.413 . S
C205 C207 1.416 . S
C205 C234 1.427 . S
C206 C198 1.424 . S
C206 N203 1.361 . S
C206 C205 1.413 . S
C207 H196 0.931 . S
C207 C205 1.416 . S
C207 C208 1.332 . S
C208 H187 0.929 . S
C208 C204 1.407 . S
C208 C207 1.332 . S
H209 C202 0.930 . S
H210 C233 0.930 . S
H211 C234 0.929 . S
O212 Tb168 2.465 . S
O212 C232 1.264 . S
O213 Tb168 2.387 1_556 S
O213 C224 1.264 . S
O214 Tb179 2.349 1_565 S
O214 C224 1.243 . S
O215 Tb168 2.428 . S
O215 C232 1.256 . S
O216 Tb168 2.308 1_545 S
O216 C231 1.266 . S
O217 Tb179 2.393 . S
O217 C231 1.248 1_556 S
O218 Tb179 2.465 . S
O218 C243 1.264 . S
O219 Tb179 2.387 1_554 S
O219 C235 1.264 . S
O220 Tb168 2.349 1_545 S
O220 C235 1.243 . S
O221 Tb179 2.428 . S
O221 C243 1.256 . S
O222 Tb179 2.308 1_565 S
O222 C242 1.266 . S
O223 Tb168 2.393 . S
O223 C242 1.248 1_554 S
C224 O213 1.264 . S
C224 O214 1.243 . S
C225 C228 1.399 . S
C225 C230 1.361 1_565 S
C225 C232 1.496 . S
C226 C227 1.399 1_545 S
C226 C230 1.391 . S
C227 C226 1.399 1_565 S
C227 C229 1.380 . S
C227 H244 0.929 . S
C228 C225 1.399 . S
C228 C229 1.392 . S
C228 H245 0.929 . S
C229 C227 1.380 . S
C229 C228 1.392 . S
C229 H246 0.929 . S
C230 C225 1.361 1_545 S
C230 C226 1.391 . S
C230 H247 0.954 . S
C231 O216 1.266 . S
C231 O217 1.248 1_554 S
C232 Tb168 2.802 . S
C232 O212 1.264 . S
C232 O215 1.256 . S
C232 C225 1.496 . S
C233 C200 1.448 . S
C233 H210 0.930 . S
C233 C234 1.328 . S
C234 C205 1.427 . S
C234 H211 0.929 . S
C234 C233 1.328 . S
C235 O219 1.264 . S
C235 O220 1.243 . S
C236 C239 1.399 . S
C236 C240 1.367 1_545 S
C236 C243 1.496 . S
C237 C238 1.399 1_565 S
C237 C240 1.390 . S
C238 C237 1.399 1_545 S
C238 C241 1.380 . S
C238 H248 0.929 . S
C239 C236 1.399 . S
C239 C241 1.392 . S
C239 H249 0.929 . S
C240 C236 1.367 1_565 S
C240 C237 1.390 . S
C240 H250 0.947 . S
C241 C238 1.380 . S
C241 C239 1.392 . S
C241 H251 0.929 . S
C242 O222 1.266 . S
C242 O223 1.248 1_556 S
C243 Tb179 2.802 . S
C243 O218 1.264 . S
C243 O221 1.256 . S
C243 C236 1.496 . S
H244 C227 0.929 . S
H245 C228 0.929 . S
H246 C229 0.929 . S
H247 C230 0.954 . S
H248 C238 0.929 . S
H249 C239 0.929 . S
H250 C240 0.947 . S
H251 C241 0.929 . S
Tb252 N281 2.617 . S
Tb252 N287 2.572 . S
Tb252 O296 2.465 . S
Tb252 O297 2.387 . S
Tb252 O299 2.428 . S
Tb252 O300 2.308 . S
Tb252 O304 2.349 . S
Tb252 O307 2.393 . S
Tb252 C316 2.802 . S
C253 N254 1.379 . S
C253 C256 1.416 . S
C253 C260 1.424 . S
N254 C253 1.379 . S
N254 C257 1.334 . S
N254 Tb263 2.617 . S
C255 C257 1.390 . S
C255 C258 1.339 . S
C255 H275 0.930 . S
C256 C253 1.416 . S
C256 C258 1.416 . S
C256 C262 1.448 . S
C257 N254 1.334 . S
C257 C255 1.390 . S
C257 H268 0.930 . S
C258 C255 1.339 . S
C258 C256 1.416 . S
C258 H279 0.930 . S
C259 C260 1.413 . S
C259 C261 1.427 . S
C259 C265 1.416 . S
C260 C253 1.424 . S
C260 C259 1.413 . S
C260 N264 1.361 . S
C261 C259 1.427 . S
C261 C262 1.328 . S
C261 H276 0.929 . S
C262 C256 1.448 . S
C262 C261 1.328 . S
C262 H277 0.930 . S
Tb263 N254 2.617 . S
Tb263 N264 2.572 . S
Tb263 O298 2.349 . S
Tb263 O301 2.393 . S
Tb263 O302 2.465 . S
Tb263 O303 2.387 . S
Tb263 O305 2.428 . S
Tb263 O306 2.308 . S
Tb263 C327 2.802 . S
N264 C260 1.361 . S
N264 Tb263 2.572 . S
N264 C266 1.340 . S
C265 C259 1.416 . S
C265 C267 1.332 . S
C265 H273 0.931 . S
C266 N264 1.340 . S
C266 C267 1.407 . S
C266 H272 0.930 . S
C267 C265 1.332 . S
C267 C266 1.407 . S
C267 H269 0.929 . S
H268 C257 0.930 . S
H269 C267 0.929 . S
H270 C285 0.930 . S
H271 C292 0.929 . S
H272 C266 0.930 . S
H273 C265 0.931 . S
H274 C288 0.930 . S
H275 C255 0.930 . S
H276 C261 0.929 . S
H277 C262 0.930 . S
H278 C283 0.930 . S
H279 C258 0.930 . S
H280 C291 0.931 . S
N281 Tb252 2.617 . S
N281 C282 1.379 . S
N281 C285 1.334 . S
C282 N281 1.379 . S
C282 C284 1.416 . S
C282 C290 1.424 . S
C283 H278 0.930 . S
C283 C285 1.390 . S
C283 C286 1.339 . S
C284 C282 1.416 . S
C284 C286 1.416 . S
C284 C317 1.448 . S
C285 H270 0.930 . S
C285 N281 1.334 . S
C285 C283 1.390 . S
C286 C283 1.339 . S
C286 C284 1.416 . S
C286 H293 0.930 . S
N287 Tb252 2.572 . S
N287 C288 1.340 . S
N287 C290 1.361 . S
C288 H274 0.930 . S
C288 N287 1.340 . S
C288 C292 1.407 . S
C289 C290 1.413 . S
C289 C291 1.416 . S
C289 C318 1.427 . S
C290 C282 1.424 . S
C290 N287 1.361 . S
C290 C289 1.413 . S
C291 H280 0.931 . S
C291 C289 1.416 . S
C291 C292 1.332 . S
C292 H271 0.929 . S
C292 C288 1.407 . S
C292 C291 1.332 . S
H293 C286 0.930 . S
H294 C317 0.930 . S
H295 C318 0.929 . S
O296 Tb252 2.465 . S
O296 C316 1.264 . S
O297 Tb252 2.387 . S
O297 C308 1.264 . S
O298 Tb263 2.349 . S
O298 C308 1.243 . S
O299 Tb252 2.428 . S
O299 C316 1.256 . S
O300 Tb252 2.308 . S
O300 C315 1.266 . S
O301 Tb263 2.393 . S
O301 C315 1.248 . S
O302 Tb263 2.465 . S
O302 C327 1.264 . S
O303 Tb263 2.387 . S
O303 C319 1.264 . S
O304 Tb252 2.349 . S
O304 C319 1.243 . S
O305 Tb263 2.428 . S
O305 C327 1.256 . S
O306 Tb263 2.308 . S
O306 C326 1.266 . S
O307 Tb252 2.393 . S
O307 C326 1.248 . S
C308 O297 1.264 . S
C308 O298 1.243 . S
C309 C312 1.399 . S
C309 C314 1.383 . S
C309 C316 1.496 . S
C310 C311 1.399 . S
C310 C314 1.389 1_556 S
C311 C310 1.399 . S
C311 C313 1.380 . S
C311 H328 0.929 . S
C312 C309 1.399 . S
C312 C313 1.392 1_554 S
C312 H329 0.929 . S
C313 C311 1.380 . S
C313 C312 1.392 1_556 S
C313 H330 0.929 . S
C314 C309 1.383 . S
C314 C310 1.389 1_554 S
C314 H331 0.931 . S
C315 O300 1.266 . S
C315 O301 1.248 . S
C316 Tb252 2.802 . S
C316 O296 1.264 . S
C316 O299 1.256 . S
C316 C309 1.496 . S
C317 C284 1.448 . S
C317 H294 0.930 . S
C317 C318 1.328 . S
C318 C289 1.427 . S
C318 H295 0.929 . S
C318 C317 1.328 . S
C319 O303 1.264 . S
C319 O304 1.243 . S
C320 C323 1.399 . S
C320 C324 1.383 . S
C320 C327 1.496 . S
C321 C322 1.399 . S
C321 C324 1.389 . S
C322 C321 1.399 . S
C322 C325 1.380 . S
C322 H332 0.929 . S
C323 C320 1.399 . S
C323 C325 1.392 . S
C323 H333 0.929 . S
C324 C320 1.383 . S
C324 C321 1.389 . S
C324 H334 0.931 . S
C325 C322 1.380 . S
C325 C323 1.392 . S
C325 H335 0.929 . S
C326 O306 1.266 . S
C326 O307 1.248 . S
C327 Tb263 2.802 . S
C327 O302 1.264 . S
C327 O305 1.256 . S
C327 C320 1.496 . S
H328 C311 0.929 . S
H329 C312 0.929 . S
H330 C313 0.929 . S
H331 C314 0.931 . S
H332 C322 0.929 . S
H333 C323 0.929 . S
H334 C324 0.931 . S
H335 C325 0.929 . S
Tb336 N365 2.617 . S
Tb336 N371 2.572 . S
Tb336 O380 2.465 . S
Tb336 O381 2.387 . S
Tb336 O383 2.428 . S
Tb336 O384 2.308 . S
Tb336 O388 2.349 . S
Tb336 O391 2.393 . S
Tb336 C400 2.802 . S
C337 N338 1.379 . S
C337 C340 1.416 . S
C337 C344 1.424 . S
N338 C337 1.379 . S
N338 C341 1.334 . S
N338 Tb347 2.617 . S
C339 C341 1.390 . S
C339 C342 1.339 . S
C339 H359 0.930 . S
C340 C337 1.416 . S
C340 C342 1.416 . S
C340 C346 1.448 . S
C341 N338 1.334 . S
C341 C339 1.390 . S
C341 H352 0.930 . S
C342 C339 1.339 . S
C342 C340 1.416 . S
C342 H363 0.930 . S
C343 C344 1.413 . S
C343 C345 1.427 . S
C343 C349 1.416 . S
C344 C337 1.424 . S
C344 C343 1.413 . S
C344 N348 1.361 . S
C345 C343 1.427 . S
C345 C346 1.328 . S
C345 H360 0.929 . S
C346 C340 1.448 . S
C346 C345 1.328 . S
C346 H361 0.930 . S
Tb347 N338 2.617 . S
Tb347 N348 2.572 . S
Tb347 O382 2.349 . S
Tb347 O385 2.393 . S
Tb347 O386 2.465 . S
Tb347 O387 2.387 . S
Tb347 O389 2.428 . S
Tb347 O390 2.308 . S
Tb347 C411 2.802 . S
N348 C344 1.361 . S
N348 Tb347 2.572 . S
N348 C350 1.340 . S
C349 C343 1.416 . S
C349 C351 1.332 . S
C349 H357 0.931 . S
C350 N348 1.340 . S
C350 C351 1.407 . S
C350 H356 0.930 . S
C351 C349 1.332 . S
C351 C350 1.407 . S
C351 H353 0.929 . S
H352 C341 0.930 . S
H353 C351 0.929 . S
H354 C369 0.930 . S
H355 C376 0.929 . S
H356 C350 0.930 . S
H357 C349 0.931 . S
H358 C372 0.930 . S
H359 C339 0.930 . S
H360 C345 0.929 . S
H361 C346 0.930 . S
H362 C367 0.930 . S
H363 C342 0.930 . S
H364 C375 0.931 . S
N365 Tb336 2.617 . S
N365 C366 1.379 . S
N365 C369 1.334 . S
C366 N365 1.379 . S
C366 C368 1.416 . S
C366 C374 1.424 . S
C367 H362 0.930 . S
C367 C369 1.390 . S
C367 C370 1.339 . S
C368 C366 1.416 . S
C368 C370 1.416 . S
C368 C401 1.448 . S
C369 H354 0.930 . S
C369 N365 1.334 . S
C369 C367 1.390 . S
C370 C367 1.339 . S
C370 C368 1.416 . S
C370 H377 0.930 . S
N371 Tb336 2.572 . S
N371 C372 1.340 . S
N371 C374 1.361 . S
C372 H358 0.930 . S
C372 N371 1.340 . S
C372 C376 1.407 . S
C373 C374 1.413 . S
C373 C375 1.416 . S
C373 C402 1.427 . S
C374 C366 1.424 . S
C374 N371 1.361 . S
C374 C373 1.413 . S
C375 H364 0.931 . S
C375 C373 1.416 . S
C375 C376 1.332 . S
C376 H355 0.929 . S
C376 C372 1.407 . S
C376 C375 1.332 . S
H377 C370 0.930 . S
H378 C401 0.930 . S
H379 C402 0.929 . S
O380 Tb336 2.465 . S
O380 C400 1.264 . S
O381 Tb336 2.387 . S
O381 C392 1.264 . S
O382 Tb347 2.349 . S
O382 C392 1.243 . S
O383 Tb336 2.428 . S
O383 C400 1.256 . S
O384 Tb336 2.308 . S
O384 C399 1.266 . S
O385 Tb347 2.393 . S
O385 C399 1.248 . S
O386 Tb347 2.465 . S
O386 C411 1.264 . S
O387 Tb347 2.387 . S
O387 C403 1.264 . S
O388 Tb336 2.349 . S
O388 C403 1.243 . S
O389 Tb347 2.428 . S
O389 C411 1.256 . S
O390 Tb347 2.308 . S
O390 C410 1.266 . S
O391 Tb336 2.393 . S
O391 C410 1.248 . S
C392 O381 1.264 . S
C392 O382 1.243 . S
C393 C396 1.399 . S
C393 C398 1.383 . S
C393 C400 1.496 . S
C394 C395 1.399 . S
C394 C398 1.389 . S
C395 C394 1.399 . S
C395 C397 1.380 . S
C395 H412 0.929 . S
C396 C393 1.399 . S
C396 C397 1.392 . S
C396 H413 0.929 . S
C397 C395 1.380 . S
C397 C396 1.392 . S
C397 H414 0.929 . S
C398 C393 1.383 . S
C398 C394 1.389 . S
C398 H415 0.931 . S
C399 O384 1.266 . S
C399 O385 1.248 . S
C400 Tb336 2.802 . S
C400 O380 1.264 . S
C400 O383 1.256 . S
C400 C393 1.496 . S
C401 C368 1.448 . S
C401 H378 0.930 . S
C401 C402 1.328 . S
C402 C373 1.427 . S
C402 H379 0.929 . S
C402 C401 1.328 . S
C403 O387 1.264 . S
C403 O388 1.243 . S
C404 C407 1.399 . S
C404 C408 1.383 . S
C404 C411 1.496 . S
C405 C406 1.399 . S
C405 C408 1.389 1_556 S
C406 C405 1.399 . S
C406 C409 1.380 . S
C406 H416 0.929 . S
C407 C404 1.399 . S
C407 C409 1.392 1_554 S
C407 H417 0.929 . S
C408 C404 1.383 . S
C408 C405 1.389 1_554 S
C408 H418 0.931 . S
C409 C406 1.380 . S
C409 C407 1.392 1_556 S
C409 H419 0.929 . S
C410 O390 1.266 . S
C410 O391 1.248 . S
C411 Tb347 2.802 . S
C411 O386 1.264 . S
C411 O389 1.256 . S
C411 C404 1.496 . S
H412 C395 0.929 . S
H413 C396 0.929 . S
H414 C397 0.929 . S
H415 C398 0.931 . S
H416 C406 0.929 . S
H417 C407 0.929 . S
H418 C408 0.931 . S
H419 C409 0.929 . S
Tb420 N449 2.617 . S
Tb420 N455 2.572 . S
Tb420 O464 2.465 . S
Tb420 O465 2.387 . S
Tb420 O467 2.428 . S
Tb420 O468 2.308 . S
Tb420 O472 2.349 . S
Tb420 O475 2.393 . S
Tb420 C484 2.802 . S
C421 N422 1.379 . S
C421 C424 1.416 . S
C421 C428 1.424 . S
N422 C421 1.379 . S
N422 C425 1.334 . S
N422 Tb431 2.617 . S
C423 C425 1.390 . S
C423 C426 1.339 . S
C423 H443 0.930 . S
C424 C421 1.416 . S
C424 C426 1.416 . S
C424 C430 1.448 . S
C425 N422 1.334 . S
C425 C423 1.390 . S
C425 H436 0.930 . S
C426 C423 1.339 . S
C426 C424 1.416 . S
C426 H447 0.930 . S
C427 C428 1.413 . S
C427 C429 1.427 . S
C427 C433 1.416 . S
C428 C421 1.424 . S
C428 C427 1.413 . S
C428 N432 1.361 . S
C429 C427 1.427 . S
C429 C430 1.328 . S
C429 H444 0.929 . S
C430 C424 1.448 . S
C430 C429 1.328 . S
C430 H445 0.930 . S
Tb431 N422 2.617 . S
Tb431 N432 2.572 . S
Tb431 O466 2.349 . S
Tb431 O469 2.393 . S
Tb431 O470 2.465 . S
Tb431 O471 2.387 . S
Tb431 O473 2.428 . S
Tb431 O474 2.308 . S
Tb431 C495 2.802 . S
N432 C428 1.361 . S
N432 Tb431 2.572 . S
N432 C434 1.340 . S
C433 C427 1.416 . S
C433 C435 1.332 . S
C433 H441 0.931 . S
C434 N432 1.340 . S
C434 C435 1.407 . S
C434 H440 0.930 . S
C435 C433 1.332 . S
C435 C434 1.407 . S
C435 H437 0.929 . S
H436 C425 0.930 . S
H437 C435 0.929 . S
H438 C453 0.930 . S
H439 C460 0.929 . S
H440 C434 0.930 . S
H441 C433 0.931 . S
H442 C456 0.930 . S
H443 C423 0.930 . S
H444 C429 0.929 . S
H445 C430 0.930 . S
H446 C451 0.930 . S
H447 C426 0.930 . S
H448 C459 0.931 . S
N449 Tb420 2.617 . S
N449 C450 1.379 . S
N449 C453 1.334 . S
C450 N449 1.379 . S
C450 C452 1.416 . S
C450 C458 1.424 . S
C451 H446 0.930 . S
C451 C453 1.390 . S
C451 C454 1.339 . S
C452 C450 1.416 . S
C452 C454 1.416 . S
C452 C485 1.448 . S
C453 H438 0.930 . S
C453 N449 1.334 . S
C453 C451 1.390 . S
C454 C451 1.339 . S
C454 C452 1.416 . S
C454 H461 0.930 . S
N455 Tb420 2.572 . S
N455 C456 1.340 . S
N455 C458 1.361 . S
C456 H442 0.930 . S
C456 N455 1.340 . S
C456 C460 1.407 . S
C457 C458 1.413 . S
C457 C459 1.416 . S
C457 C486 1.427 . S
C458 C450 1.424 . S
C458 N455 1.361 . S
C458 C457 1.413 . S
C459 H448 0.931 . S
C459 C457 1.416 . S
C459 C460 1.332 . S
C460 H439 0.929 . S
C460 C456 1.407 . S
C460 C459 1.332 . S
H461 C454 0.930 . S
H462 C485 0.930 . S
H463 C486 0.929 . S
O464 Tb420 2.465 . S
O464 C484 1.264 . S
O465 Tb420 2.387 . S
O465 C476 1.264 . S
O466 Tb431 2.349 . S
O466 C476 1.243 . S
O467 Tb420 2.428 . S
O467 C484 1.256 . S
O468 Tb420 2.308 . S
O468 C483 1.266 . S
O469 Tb431 2.393 . S
O469 C483 1.248 . S
O470 Tb431 2.465 . S
O470 C495 1.264 . S
O471 Tb431 2.387 . S
O471 C487 1.264 . S
O472 Tb420 2.349 . S
O472 C487 1.243 . S
O473 Tb431 2.428 . S
O473 C495 1.256 . S
O474 Tb431 2.308 . S
O474 C494 1.266 . S
O475 Tb420 2.393 . S
O475 C494 1.248 . S
C476 O465 1.264 . S
C476 O466 1.243 . S
C477 C480 1.399 . S
C477 C482 1.383 . S
C477 C484 1.496 . S
C478 C479 1.399 . S
C478 C482 1.389 . S
C479 C478 1.399 . S
C479 C481 1.380 . S
C479 H496 0.929 . S
C480 C477 1.399 . S
C480 C481 1.392 . S
C480 H497 0.929 . S
C481 C479 1.380 . S
C481 C480 1.392 . S
C481 H498 0.929 . S
C482 C477 1.383 . S
C482 C478 1.389 . S
C482 H499 0.931 . S
C483 O468 1.266 . S
C483 O469 1.248 . S
C484 Tb420 2.802 . S
C484 O464 1.264 . S
C484 O467 1.256 . S
C484 C477 1.496 . S
C485 C452 1.448 . S
C485 H462 0.930 . S
C485 C486 1.328 . S
C486 C457 1.427 . S
C486 H463 0.929 . S
C486 C485 1.328 . S
C487 O471 1.264 . S
C487 O472 1.243 . S
C488 C491 1.399 . S
C488 C492 1.383 . S
C488 C495 1.496 . S
C489 C490 1.399 . S
C489 C492 1.389 1_554 S
C490 C489 1.399 . S
C490 C493 1.380 . S
C490 H500 0.929 . S
C491 C488 1.399 . S
C491 C493 1.392 1_556 S
C491 H501 0.929 . S
C492 C488 1.383 . S
C492 C489 1.389 1_556 S
C492 H502 0.931 . S
C493 C490 1.380 . S
C493 C491 1.392 1_554 S
C493 H503 0.929 . S
C494 O474 1.266 . S
C494 O475 1.248 . S
C495 Tb431 2.802 . S
C495 O470 1.264 . S
C495 O473 1.256 . S
C495 C488 1.496 . S
H496 C479 0.929 . S
H497 C480 0.929 . S
H498 C481 0.929 . S
H499 C482 0.931 . S
H500 C490 0.929 . S
H501 C491 0.929 . S
H502 C492 0.931 . S
H503 C493 0.929 . S
Tb504 N533 2.617 . S
Tb504 N539 2.572 . S
Tb504 O548 2.465 . S
Tb504 O549 2.387 1_554 S
Tb504 O551 2.428 . S
Tb504 O552 2.308 . S
Tb504 O556 2.349 . S
Tb504 O559 2.393 . S
Tb504 C568 2.802 . S
C505 N506 1.379 . S
C505 C508 1.416 . S
C505 C512 1.424 . S
N506 C505 1.379 . S
N506 C509 1.334 . S
N506 Tb515 2.617 . S
C507 C509 1.390 . S
C507 C510 1.339 . S
C507 H527 0.930 . S
C508 C505 1.416 . S
C508 C510 1.416 . S
C508 C514 1.448 . S
C509 N506 1.334 . S
C509 C507 1.390 . S
C509 H520 0.930 . S
C510 C507 1.339 . S
C510 C508 1.416 . S
C510 H531 0.930 . S
C511 C512 1.413 . S
C511 C513 1.427 . S
C511 C517 1.416 . S
C512 C505 1.424 . S
C512 C511 1.413 . S
C512 N516 1.361 . S
C513 C511 1.427 . S
C513 C514 1.328 . S
C513 H528 0.929 . S
C514 C508 1.448 . S
C514 C513 1.328 . S
C514 H529 0.930 . S
Tb515 N506 2.617 . S
Tb515 N516 2.572 . S
Tb515 O550 2.349 . S
Tb515 O553 2.393 . S
Tb515 O554 2.465 . S
Tb515 O555 2.387 1_556 S
Tb515 O557 2.428 . S
Tb515 O558 2.308 . S
Tb515 C579 2.802 . S
N516 C512 1.361 . S
N516 Tb515 2.572 . S
N516 C518 1.340 . S
C517 C511 1.416 . S
C517 C519 1.332 . S
C517 H525 0.931 . S
C518 N516 1.340 . S
C518 C519 1.407 . S
C518 H524 0.930 . S
C519 C517 1.332 . S
C519 C518 1.407 . S
C519 H521 0.929 . S
H520 C509 0.930 . S
H521 C519 0.929 . S
H522 C537 0.930 . S
H523 C544 0.929 . S
H524 C518 0.930 . S
H525 C517 0.931 . S
H526 C540 0.930 . S
H527 C507 0.930 . S
H528 C513 0.929 . S
H529 C514 0.930 . S
H530 C535 0.930 . S
H531 C510 0.930 . S
H532 C543 0.931 . S
N533 Tb504 2.617 . S
N533 C534 1.379 . S
N533 C537 1.334 . S
C534 N533 1.379 . S
C534 C536 1.416 . S
C534 C542 1.424 . S
C535 H530 0.930 . S
C535 C537 1.390 . S
C535 C538 1.339 . S
C536 C534 1.416 . S
C536 C538 1.416 . S
C536 C569 1.448 . S
C537 H522 0.930 . S
C537 N533 1.334 . S
C537 C535 1.390 . S
C538 C535 1.339 . S
C538 C536 1.416 . S
C538 H545 0.930 . S
N539 Tb504 2.572 . S
N539 C540 1.340 . S
N539 C542 1.361 . S
C540 H526 0.930 . S
C540 N539 1.340 . S
C540 C544 1.407 . S
C541 C542 1.413 . S
C541 C543 1.416 . S
C541 C570 1.427 . S
C542 C534 1.424 . S
C542 N539 1.361 . S
C542 C541 1.413 . S
C543 H532 0.931 . S
C543 C541 1.416 . S
C543 C544 1.332 . S
C544 H523 0.929 . S
C544 C540 1.407 . S
C544 C543 1.332 . S
H545 C538 0.930 . S
H546 C569 0.930 . S
H547 C570 0.929 . S
O548 Tb504 2.465 . S
O548 C568 1.264 . S
O549 Tb504 2.387 1_556 S
O549 C560 1.264 . S
O550 Tb515 2.349 . S
O550 C560 1.243 . S
O551 Tb504 2.428 . S
O551 C568 1.256 . S
O552 Tb504 2.308 . S
O552 C567 1.266 . S
O553 Tb515 2.393 . S
O553 C567 1.248 1_556 S
O554 Tb515 2.465 . S
O554 C579 1.264 . S
O555 Tb515 2.387 1_554 S
O555 C571 1.264 . S
O556 Tb504 2.349 . S
O556 C571 1.243 . S
O557 Tb515 2.428 . S
O557 C579 1.256 . S
O558 Tb515 2.308 . S
O558 C578 1.266 . S
O559 Tb504 2.393 . S
O559 C578 1.248 1_554 S
C560 O549 1.264 . S
C560 O550 1.243 . S
C561 C564 1.399 . S
C561 C566 1.383 . S
C561 C568 1.496 . S
C562 C563 1.399 . S
C562 C566 1.389 . S
C563 C562 1.399 . S
C563 C565 1.380 . S
C563 H580 0.929 . S
C564 C561 1.399 . S
C564 C565 1.392 . S
C564 H581 0.929 . S
C565 C563 1.380 . S
C565 C564 1.392 . S
C565 H582 0.929 . S
C566 C561 1.383 . S
C566 C562 1.389 . S
C566 H583 0.931 . S
C567 O552 1.266 . S
C567 O553 1.248 1_554 S
C568 Tb504 2.802 . S
C568 O548 1.264 . S
C568 O551 1.256 . S
C568 C561 1.496 . S
C569 C536 1.448 . S
C569 H546 0.930 . S
C569 C570 1.328 . S
C570 C541 1.427 . S
C570 H547 0.929 . S
C570 C569 1.328 . S
C571 O555 1.264 . S
C571 O556 1.243 . S
C572 C575 1.399 . S
C572 C576 1.383 . S
C572 C579 1.496 . S
C573 C574 1.399 . S
C573 C576 1.389 . S
C574 C573 1.399 . S
C574 C577 1.380 . S
C574 H584 0.929 . S
C575 C572 1.399 . S
C575 C577 1.392 . S
C575 H585 0.929 . S
C576 C572 1.383 . S
C576 C573 1.389 . S
C576 H586 0.931 . S
C577 C574 1.380 . S
C577 C575 1.392 . S
C577 H587 0.929 . S
C578 O558 1.266 . S
C578 O559 1.248 1_556 S
C579 Tb515 2.802 . S
C579 O554 1.264 . S
C579 O557 1.256 . S
C579 C572 1.496 . S
H580 C563 0.929 . S
H581 C564 0.929 . S
H582 C565 0.929 . S
H583 C566 0.931 . S
H584 C574 0.929 . S
H585 C575 0.929 . S
H586 C576 0.931 . S
H587 C577 0.929 . S
Tb588 N617 2.619 . S
Tb588 N623 2.542 1_455 S
Tb588 O632 2.460 1_455 S
Tb588 O633 2.368 1_455 S
Tb588 O635 2.447 . S
Tb588 O636 2.285 1_455 S
Tb588 O640 2.371 . S
Tb588 O643 2.420 . S
Tb588 C652 2.810 . S
C589 N590 1.379 1_455 S
C589 C592 1.416 . S
C589 C596 1.424 . S
N590 C589 1.379 1_655 S
N590 C593 1.334 . S
N590 Tb599 2.619 . S
C591 C593 1.390 . S
C591 C594 1.339 . S
C591 H611 0.930 . S
C592 C589 1.416 . S
C592 C594 1.416 1_455 S
C592 C598 1.448 . S
C593 N590 1.334 . S
C593 C591 1.390 . S
C593 H604 0.930 . S
C594 C591 1.339 . S
C594 C592 1.416 1_655 S
C594 H615 0.930 . S
C595 C596 1.413 . S
C595 C597 1.427 . S
C595 C601 1.416 . S
C596 C589 1.424 . S
C596 C595 1.413 . S
C596 N600 1.361 . S
C597 C595 1.427 . S
C597 C598 1.328 . S
C597 H612 0.929 . S
C598 C592 1.448 . S
C598 C597 1.328 . S
C598 H613 0.930 . S
Tb599 N590 2.619 . S
Tb599 N600 2.551 1_655 S
Tb599 O634 2.365 . S
Tb599 O637 2.412 . S
Tb599 O638 2.461 1_655 S
Tb599 O639 2.373 1_655 S
Tb599 O641 2.441 . S
Tb599 O642 2.292 1_655 S
Tb599 C663 2.808 . S
N600 C596 1.361 . S
N600 Tb599 2.551 1_455 S
N600 C602 1.340 . S
C601 C595 1.416 . S
C601 C603 1.332 . S
C601 H609 0.931 . S
C602 N600 1.340 . S
C602 C603 1.407 . S
C602 H608 0.930 . S
C603 C601 1.332 . S
C603 C602 1.407 . S
C603 H605 0.929 . S
H604 C593 0.930 . S
H605 C603 0.929 . S
H606 C621 0.930 . S
H607 C628 0.929 . S
H608 C602 0.930 . S
H609 C601 0.931 . S
H610 C624 0.930 . S
H611 C591 0.930 . S
H612 C597 0.929 . S
H613 C598 0.930 . S
H614 C619 0.930 . S
H615 C594 0.930 . S
H616 C627 0.931 . S
N617 Tb588 2.619 . S
N617 C618 1.379 1_455 S
N617 C621 1.334 . S
C618 N617 1.379 1_655 S
C618 C620 1.416 . S
C618 C626 1.424 . S
C619 H614 0.930 . S
C619 C621 1.390 . S
C619 C622 1.339 . S
C620 C618 1.416 . S
C620 C622 1.416 1_655 S
C620 C653 1.448 . S
C621 H606 0.930 . S
C621 N617 1.334 . S
C621 C619 1.390 . S
C622 C619 1.339 . S
C622 C620 1.416 1_455 S
C622 H629 0.930 . S
N623 Tb588 2.542 1_655 S
N623 C624 1.340 . S
N623 C626 1.361 . S
C624 H610 0.930 . S
C624 N623 1.340 . S
C624 C628 1.407 . S
C625 C626 1.413 . S
C625 C627 1.416 . S
C625 C654 1.427 . S
C626 C618 1.424 . S
C626 N623 1.361 . S
C626 C625 1.413 . S
C627 H616 0.931 . S
C627 C625 1.416 . S
C627 C628 1.332 . S
C628 H607 0.929 . S
C628 C624 1.407 . S
C628 C627 1.332 . S
H629 C622 0.930 . S
H630 C653 0.930 . S
H631 C654 0.929 . S
O632 Tb588 2.460 1_655 S
O632 C652 1.264 1_655 S
O633 Tb588 2.368 1_655 S
O633 C644 1.264 . S
O634 Tb599 2.365 . S
O634 C644 1.243 . S
O635 Tb588 2.447 . S
O635 C652 1.256 . S
O636 Tb588 2.285 1_655 S
O636 C651 1.266 . S
O637 Tb599 2.412 . S
O637 C651 1.248 . S
O638 Tb599 2.461 1_455 S
O638 C663 1.264 1_455 S
O639 Tb599 2.373 1_455 S
O639 C655 1.264 . S
O640 Tb588 2.371 . S
O640 C655 1.243 . S
O641 Tb599 2.441 . S
O641 C663 1.256 . S
O642 Tb599 2.292 1_455 S
O642 C662 1.266 . S
O643 Tb588 2.420 . S
O643 C662 1.248 . S
C644 O633 1.264 . S
C644 O634 1.243 . S
C645 C648 1.399 . S
C645 C650 1.383 . S
C645 C652 1.496 . S
C646 C647 1.399 . S
C646 C650 1.389 . S
C647 C646 1.399 . S
C647 C649 1.380 . S
C647 H664 0.929 . S
C648 C645 1.399 . S
C648 C649 1.392 . S
C648 H665 0.929 . S
C649 C647 1.380 . S
C649 C648 1.392 . S
C649 H666 0.929 . S
C650 C645 1.383 . S
C650 C646 1.389 . S
C650 H667 0.931 1_455 S
C651 O636 1.266 . S
C651 O637 1.248 . S
C652 Tb588 2.810 . S
C652 O632 1.264 1_455 S
C652 O635 1.256 . S
C652 C645 1.496 . S
C653 C620 1.448 . S
C653 H630 0.930 . S
C653 C654 1.328 . S
C654 C625 1.427 . S
C654 H631 0.929 . S
C654 C653 1.328 . S
C655 O639 1.264 . S
C655 O640 1.243 . S
C656 C659 1.399 . S
C656 C660 1.383 . S
C656 C663 1.496 . S
C657 C658 1.399 . S
C657 C660 1.389 . S
C658 C657 1.399 . S
C658 C661 1.380 . S
C658 H668 0.929 . S
C659 C656 1.399 . S
C659 C661 1.392 . S
C659 H669 0.929 . S
C660 C656 1.383 . S
C660 C657 1.389 . S
C660 H670 0.931 1_655 S
C661 C658 1.380 . S
C661 C659 1.392 . S
C661 H671 0.929 . S
C662 O642 1.266 . S
C662 O643 1.248 . S
C663 Tb599 2.808 . S
C663 O638 1.264 1_655 S
C663 O641 1.256 . S
C663 C656 1.496 . S
H664 C647 0.929 . S
H665 C648 0.929 . S
H666 C649 0.929 . S
H667 C650 0.931 1_655 S
H668 C658 0.929 . S
H669 C659 0.929 . S
H670 C660 0.931 1_455 S
H671 C661 0.929 . S
C672 C673 1.349 . S
C672 C674 1.327 . S
C672 H697 0.950 . S
C673 C672 1.349 . S
C673 C689 1.349 . S
C674 C672 1.327 . S
C674 C693 1.429 . S
C674 H698 0.950 . S
C675 C692 1.574 . S
C675 C694 1.368 . S
C675 H699 0.949 . S
H676 C680 0.949 . S
C677 C678 1.349 . S
C677 C679 1.327 . S
C677 H700 0.950 . S
C678 C677 1.349 . S
C678 C690 1.349 . S
C679 C677 1.327 . S
C679 C695 1.429 . S
C679 H701 0.950 . S
C680 H676 0.949 . S
C680 C688 1.574 . S
C680 C696 1.368 . S
H681 C689 0.950 . S
H682 C687 0.950 . S
H683 C688 0.949 . S
H684 C690 0.950 . S
H685 C691 0.950 . S
H686 C692 0.949 . S
C687 H682 0.950 . S
C687 C689 1.327 . S
C687 C693 1.429 . S
C688 C680 1.574 . S
C688 H683 0.949 . S
C688 C694 1.368 . S
C689 C673 1.349 . S
C689 H681 0.950 . S
C689 C687 1.327 . S
C690 C678 1.349 . S
C690 H684 0.950 . S
C690 C691 1.327 . S
C691 H685 0.950 . S
C691 C690 1.327 . S
C691 C695 1.429 . S
C692 C675 1.574 . S
C692 H686 0.949 . S
C692 C696 1.368 . S
C693 C674 1.429 . S
C693 C687 1.429 . S
C693 C694 1.523 . S
C694 C675 1.368 . S
C694 C688 1.368 . S
C694 C693 1.523 . S
C695 C679 1.429 . S
C695 C691 1.429 . S
C695 C696 1.523 . S
C696 C680 1.368 . S
C696 C692 1.368 . S
C696 C695 1.523 . S
H697 C672 0.950 . S
H698 C674 0.950 . S
H699 C675 0.949 . S
H700 C677 0.950 . S
H701 C679 0.950 . S
C702 C703 1.349 . S
C702 C704 1.327 . S
C702 H727 0.950 . S
C703 C702 1.349 . S
C703 C719 1.349 . S
C704 C702 1.327 . S
C704 C723 1.429 . S
C704 H728 0.950 . S
C705 C722 1.574 . S
C705 C724 1.368 . S
C705 H729 0.949 . S
H706 C710 0.949 . S
C707 C708 1.349 . S
C707 C709 1.327 . S
C707 H730 0.950 . S
C708 C707 1.349 . S
C708 C720 1.349 . S
C709 C707 1.327 . S
C709 C725 1.429 . S
C709 H731 0.950 . S
C710 H706 0.949 . S
C710 C718 1.574 . S
C710 C726 1.368 . S
H711 C719 0.950 . S
H712 C717 0.950 . S
H713 C718 0.949 . S
H714 C720 0.950 . S
H715 C721 0.950 . S
H716 C722 0.949 . S
C717 H712 0.950 . S
C717 C719 1.327 . S
C717 C723 1.429 . S
C718 C710 1.574 . S
C718 H713 0.949 . S
C718 C724 1.368 . S
C719 C703 1.349 . S
C719 H711 0.950 . S
C719 C717 1.327 . S
C720 C708 1.349 . S
C720 H714 0.950 . S
C720 C721 1.327 . S
C721 H715 0.950 . S
C721 C720 1.327 . S
C721 C725 1.429 . S
C722 C705 1.574 . S
C722 H716 0.949 . S
C722 C726 1.368 . S
C723 C704 1.429 . S
C723 C717 1.429 . S
C723 C724 1.523 . S
C724 C705 1.368 . S
C724 C718 1.368 . S
C724 C723 1.523 . S
C725 C709 1.429 . S
C725 C721 1.429 . S
C725 C726 1.523 . S
C726 C710 1.368 . S
C726 C722 1.368 . S
C726 C725 1.523 . S
H727 C702 0.950 . S
H728 C704 0.950 . S
H729 C705 0.949 . S
H730 C707 0.950 . S
H731 C709 0.950 . S
C732 C733 1.349 . S
C732 C734 1.327 . S
C732 H757 0.950 . S
C733 C732 1.349 . S
C733 C749 1.349 . S
C734 C732 1.327 . S
C734 C753 1.429 . S
C734 H758 0.950 . S
C735 C752 1.574 . S
C735 C754 1.368 . S
C735 H759 0.949 . S
H736 C740 0.949 . S
C737 C738 1.349 . S
C737 C739 1.327 . S
C737 H760 0.950 . S
C738 C737 1.349 . S
C738 C750 1.349 . S
C739 C737 1.327 . S
C739 C755 1.429 . S
C739 H761 0.950 . S
C740 H736 0.949 . S
C740 C748 1.574 . S
C740 C756 1.368 . S
H741 C749 0.950 . S
H742 C747 0.950 . S
H743 C748 0.949 . S
H744 C750 0.950 . S
H745 C751 0.950 . S
H746 C752 0.949 . S
C747 H742 0.950 . S
C747 C749 1.327 . S
C747 C753 1.429 . S
C748 C740 1.574 . S
C748 H743 0.949 . S
C748 C754 1.368 . S
C749 C733 1.349 . S
C749 H741 0.950 . S
C749 C747 1.327 . S
C750 C738 1.349 . S
C750 H744 0.950 . S
C750 C751 1.327 . S
C751 H745 0.950 . S
C751 C750 1.327 . S
C751 C755 1.429 . S
C752 C735 1.574 . S
C752 H746 0.949 . S
C752 C756 1.368 . S
C753 C734 1.429 . S
C753 C747 1.429 . S
C753 C754 1.523 . S
C754 C735 1.368 . S
C754 C748 1.368 . S
C754 C753 1.523 . S
C755 C739 1.429 . S
C755 C751 1.429 . S
C755 C756 1.523 . S
C756 C740 1.368 . S
C756 C752 1.368 . S
C756 C755 1.523 . S
H757 C732 0.950 . S
H758 C734 0.950 . S
H759 C735 0.949 . S
H760 C737 0.950 . S
H761 C739 0.950 . S
C762 C763 1.349 . S
C762 C764 1.327 . S
C762 H787 0.950 1_554 S
C763 C762 1.349 . S
C763 C779 1.349 . S
C764 C762 1.327 . S
C764 C783 1.429 . S
C764 H788 0.950 . S
C765 C782 1.574 . S
C765 C784 1.368 . S
C765 H789 0.949 . S
H766 C770 0.949 . S
C767 C768 1.349 . S
C767 C769 1.327 . S
C767 H790 0.950 . S
C768 C767 1.349 . S
C768 C780 1.349 . S
C769 C767 1.327 . S
C769 C785 1.429 . S
C769 H791 0.950 . S
C770 H766 0.949 . S
C770 C778 1.574 . S
C770 C786 1.368 . S
H771 C779 0.950 . S
H772 C777 0.950 . S
H773 C778 0.949 . S
H774 C780 0.950 . S
H775 C781 0.950 . S
H776 C782 0.949 . S
C777 H772 0.950 . S
C777 C779 1.327 . S
C777 C783 1.429 . S
C778 C770 1.574 . S
C778 H773 0.949 . S
C778 C784 1.368 . S
C779 C763 1.349 . S
C779 H771 0.950 . S
C779 C777 1.327 . S
C780 C768 1.349 . S
C780 H774 0.950 . S
C780 C781 1.327 . S
C781 H775 0.950 . S
C781 C780 1.327 . S
C781 C785 1.429 . S
C782 C765 1.574 . S
C782 H776 0.949 . S
C782 C786 1.368 . S
C783 C764 1.429 . S
C783 C777 1.429 . S
C783 C784 1.523 . S
C784 C765 1.368 . S
C784 C778 1.368 . S
C784 C783 1.523 . S
C785 C769 1.429 . S
C785 C781 1.429 . S
C785 C786 1.523 . S
C786 C770 1.368 . S
C786 C782 1.368 . S
C786 C785 1.523 . S
H787 C762 0.950 1_556 S
H788 C764 0.950 . S
H789 C765 0.949 . S
H790 C767 0.950 . S
H791 C769 0.950 . S
C792 C793 1.349 . S
C792 C794 1.327 . S
C792 H817 0.950 . S
C793 C792 1.349 . S
C793 C809 1.349 . S
C794 C792 1.327 . S
C794 C813 1.429 . S
C794 H818 0.950 . S
C795 C812 1.574 . S
C795 C814 1.368 . S
C795 H819 0.949 . S
H796 C800 0.949 . S
C797 C798 1.349 . S
C797 C799 1.327 . S
C797 H820 0.950 . S
C798 C797 1.349 . S
C798 C810 1.349 . S
C799 C797 1.327 . S
C799 C815 1.429 . S
C799 H821 0.950 . S
C800 H796 0.949 . S
C800 C808 1.574 . S
C800 C816 1.368 . S
H801 C809 0.950 . S
H802 C807 0.950 . S
H803 C808 0.949 . S
H804 C810 0.950 . S
H805 C811 0.950 . S
H806 C812 0.949 . S
C807 H802 0.950 . S
C807 C809 1.327 . S
C807 C813 1.429 . S
C808 C800 1.574 . S
C808 H803 0.949 . S
C808 C814 1.368 . S
C809 C793 1.349 . S
C809 H801 0.950 . S
C809 C807 1.327 . S
C810 C798 1.349 . S
C810 H804 0.950 . S
C810 C811 1.327 . S
C811 H805 0.950 . S
C811 C810 1.327 . S
C811 C815 1.429 . S
C812 C795 1.574 . S
C812 H806 0.949 . S
C812 C816 1.368 . S
C813 C794 1.429 . S
C813 C807 1.429 . S
C813 C814 1.523 . S
C814 C795 1.368 . S
C814 C808 1.368 . S
C814 C813 1.523 . S
C815 C799 1.429 . S
C815 C811 1.429 . S
C815 C816 1.523 . S
C816 C800 1.368 . S
C816 C812 1.368 . S
C816 C815 1.523 . S
H817 C792 0.950 . S
H818 C794 0.950 . S
H819 C795 0.949 . S
H820 C797 0.950 . S
H821 C799 0.950 . S
C822 C823 1.349 . S
C822 C824 1.327 . S
C822 H847 0.950 . S
C823 C822 1.349 . S
C823 C839 1.349 . S
C824 C822 1.327 . S
C824 C843 1.429 . S
C824 H848 0.950 . S
C825 C842 1.574 . S
C825 C844 1.368 . S
C825 H849 0.949 . S
H826 C830 0.949 . S
C827 C828 1.349 . S
C827 C829 1.327 . S
C827 H850 0.950 . S
C828 C827 1.349 . S
C828 C840 1.349 . S
C829 C827 1.327 . S
C829 C845 1.429 . S
C829 H851 0.950 . S
C830 H826 0.949 . S
C830 C838 1.574 . S
C830 C846 1.368 . S
H831 C839 0.950 . S
H832 C837 0.950 . S
H833 C838 0.949 . S
H834 C840 0.950 . S
H835 C841 0.950 . S
H836 C842 0.949 . S
C837 H832 0.950 . S
C837 C839 1.327 . S
C837 C843 1.429 . S
C838 C830 1.574 . S
C838 H833 0.949 . S
C838 C844 1.368 . S
C839 C823 1.349 . S
C839 H831 0.950 . S
C839 C837 1.327 . S
C840 C828 1.349 . S
C840 H834 0.950 . S
C840 C841 1.327 . S
C841 H835 0.950 . S
C841 C840 1.327 . S
C841 C845 1.429 . S
C842 C825 1.574 . S
C842 H836 0.949 . S
C842 C846 1.368 . S
C843 C824 1.429 . S
C843 C837 1.429 . S
C843 C844 1.523 . S
C844 C825 1.368 . S
C844 C838 1.368 . S
C844 C843 1.523 . S
C845 C829 1.429 . S
C845 C841 1.429 . S
C845 C846 1.523 . S
C846 C830 1.368 . S
C846 C842 1.368 . S
C846 C845 1.523 . S
H847 C822 0.950 . S
H848 C824 0.950 . S
H849 C825 0.949 . S
H850 C827 0.950 . S
H851 C829 0.950 . S
C852 C853 1.349 . S
C852 C854 1.327 . S
C852 H877 0.950 . S
C853 C852 1.349 . S
C853 C869 1.349 . S
C854 C852 1.327 . S
C854 C873 1.429 . S
C854 H878 0.950 . S
C855 C872 1.574 . S
C855 C874 1.368 . S
C855 H879 0.949 . S
H856 C860 0.949 . S
C857 C858 1.349 . S
C857 C859 1.327 . S
C857 H880 0.950 . S
C858 C857 1.349 . S
C858 C870 1.349 . S
C859 C857 1.327 . S
C859 C875 1.429 . S
C859 H881 0.950 . S
C860 H856 0.949 . S
C860 C868 1.574 . S
C860 C876 1.368 . S
H861 C869 0.950 . S
H862 C867 0.950 . S
H863 C868 0.949 . S
H864 C870 0.950 . S
H865 C871 0.950 . S
H866 C872 0.949 . S
C867 H862 0.950 . S
C867 C869 1.327 . S
C867 C873 1.429 . S
C868 C860 1.574 . S
C868 H863 0.949 . S
C868 C874 1.368 . S
C869 C853 1.349 . S
C869 H861 0.950 . S
C869 C867 1.327 . S
C870 C858 1.349 . S
C870 H864 0.950 . S
C870 C871 1.327 . S
C871 H865 0.950 . S
C871 C870 1.327 . S
C871 C875 1.429 . S
C872 C855 1.574 . S
C872 H866 0.949 . S
C872 C876 1.368 . S
C873 C854 1.429 . S
C873 C867 1.429 . S
C873 C874 1.523 . S
C874 C855 1.368 . S
C874 C868 1.368 . S
C874 C873 1.523 . S
C875 C859 1.429 . S
C875 C871 1.429 . S
C875 C876 1.523 . S
C876 C860 1.368 . S
C876 C872 1.368 . S
C876 C875 1.523 . S
H877 C852 0.950 . S
H878 C854 0.950 . S
H879 C855 0.949 . S
H880 C857 0.950 . S
H881 C859 0.950 . S
C882 C883 1.349 . S
C882 C884 1.327 . S
C882 H907 0.950 . S
C883 C882 1.349 . S
C883 C899 1.349 . S
C884 C882 1.327 . S
C884 C903 1.429 . S
C884 H908 0.950 . S
C885 C902 1.574 . S
C885 C904 1.368 . S
C885 H909 0.949 . S
H886 C890 0.949 . S
C887 C888 1.349 . S
C887 C889 1.327 . S
C887 H910 0.950 . S
C888 C887 1.349 . S
C888 C900 1.349 . S
C889 C887 1.327 . S
C889 C905 1.429 . S
C889 H911 0.950 . S
C890 H886 0.949 . S
C890 C898 1.574 . S
C890 C906 1.368 . S
H891 C899 0.950 . S
H892 C897 0.950 . S
H893 C898 0.949 . S
H894 C900 0.950 1_554 S
H895 C901 0.950 . S
H896 C902 0.949 . S
C897 H892 0.950 . S
C897 C899 1.327 . S
C897 C903 1.429 . S
C898 C890 1.574 . S
C898 H893 0.949 . S
C898 C904 1.368 . S
C899 C883 1.349 . S
C899 H891 0.950 . S
C899 C897 1.327 . S
C900 C888 1.349 . S
C900 H894 0.950 1_556 S
C900 C901 1.327 . S
C901 H895 0.950 . S
C901 C900 1.327 . S
C901 C905 1.429 . S
C902 C885 1.574 . S
C902 H896 0.949 . S
C902 C906 1.368 . S
C903 C884 1.429 . S
C903 C897 1.429 . S
C903 C904 1.523 . S
C904 C885 1.368 . S
C904 C898 1.368 . S
C904 C903 1.523 . S
C905 C889 1.429 . S
C905 C901 1.429 . S
C905 C906 1.523 . S
C906 C890 1.368 . S
C906 C902 1.368 . S
C906 C905 1.523 . S
H907 C882 0.950 . S
H908 C884 0.950 . S
H909 C885 0.949 . S
H910 C887 0.950 . S
H911 C889 0.950 . S
C912 C913 1.349 . S
C912 C914 1.327 . S
C912 H937 0.950 . S
C913 C912 1.349 . S
C913 C929 1.349 . S
C914 C912 1.327 . S
C914 C933 1.429 . S
C914 H938 0.950 . S
C915 C932 1.574 . S
C915 C934 1.368 . S
C915 H939 0.949 . S
H916 C920 0.949 . S
C917 C918 1.349 . S
C917 C919 1.327 . S
C917 H940 0.950 . S
C918 C917 1.349 . S
C918 C930 1.349 . S
C919 C917 1.327 . S
C919 C935 1.429 . S
C919 H941 0.950 . S
C920 H916 0.949 . S
C920 C928 1.574 . S
C920 C936 1.368 . S
H921 C929 0.950 . S
H922 C927 0.950 . S
H923 C928 0.949 . S
H924 C930 0.950 . S
H925 C931 0.950 . S
H926 C932 0.949 . S
C927 H922 0.950 . S
C927 C929 1.327 . S
C927 C933 1.429 . S
C928 C920 1.574 . S
C928 H923 0.949 . S
C928 C934 1.368 . S
C929 C913 1.349 . S
C929 H921 0.950 . S
C929 C927 1.327 . S
C930 C918 1.349 . S
C930 H924 0.950 . S
C930 C931 1.327 . S
C931 H925 0.950 . S
C931 C930 1.327 . S
C931 C935 1.429 . S
C932 C915 1.574 . S
C932 H926 0.949 . S
C932 C936 1.368 . S
C933 C914 1.429 . S
C933 C927 1.429 . S
C933 C934 1.523 . S
C934 C915 1.368 . S
C934 C928 1.368 . S
C934 C933 1.523 . S
C935 C919 1.429 . S
C935 C931 1.429 . S
C935 C936 1.523 . S
C936 C920 1.368 . S
C936 C932 1.368 . S
C936 C935 1.523 . S
H937 C912 0.950 . S
H938 C914 0.950 . S
H939 C915 0.949 . S
H940 C917 0.950 . S
H941 C919 0.950 . S
C942 C943 1.349 . S
C942 C944 1.327 . S
C942 H967 0.950 . S
C943 C942 1.349 . S
C943 C959 1.349 . S
C944 C942 1.327 . S
C944 C963 1.429 . S
C944 H968 0.950 . S
C945 C962 1.574 . S
C945 C964 1.368 . S
C945 H969 0.949 . S
H946 C950 0.949 . S
C947 C948 1.349 . S
C947 C949 1.327 . S
C947 H970 0.965 . S
C948 C947 1.349 . S
C948 C960 1.349 . S
C949 C947 1.327 . S
C949 C965 1.429 . S
C949 H971 0.950 . S
C950 H946 0.949 . S
C950 C958 1.574 . S
C950 C966 1.368 . S
H951 C959 0.950 . S
H952 C957 0.950 . S
H953 C958 0.949 . S
H954 C960 0.950 . S
H955 C961 0.950 . S
H956 C962 0.949 . S
C957 H952 0.950 . S
C957 C959 1.327 . S
C957 C963 1.429 . S
C958 C950 1.574 . S
C958 H953 0.949 . S
C958 C964 1.368 . S
C959 C943 1.349 . S
C959 H951 0.950 . S
C959 C957 1.327 . S
C960 C948 1.349 . S
C960 H954 0.950 . S
C960 C961 1.327 . S
C961 H955 0.950 . S
C961 C960 1.327 . S
C961 C965 1.429 . S
C962 C945 1.574 . S
C962 H956 0.949 . S
C962 C966 1.368 . S
C963 C944 1.429 . S
C963 C957 1.429 . S
C963 C964 1.523 . S
C964 C945 1.368 . S
C964 C958 1.368 . S
C964 C963 1.523 . S
C965 C949 1.429 . S
C965 C961 1.429 . S
C965 C966 1.523 . S
C966 C950 1.368 . S
C966 C962 1.368 . S
C966 C965 1.523 . S
H967 C942 0.950 . S
H968 C944 0.950 . S
H969 C945 0.949 . S
H970 C947 0.965 . S
H971 C949 0.950 . S
C972 C973 1.349 . S
C972 C974 1.327 . S
C972 H997 0.950 . S
C973 C972 1.349 . S
C973 C989 1.349 . S
C974 C972 1.327 . S
C974 C993 1.429 . S
C974 H998 0.950 . S
C975 C992 1.574 . S
C975 C994 1.368 . S
C975 H999 0.949 . S
H976 C980 0.949 . S
C977 C978 1.349 . S
C977 C979 1.327 . S
C977 H1000 0.950 . S
C978 C977 1.349 . S
C978 C990 1.349 . S
C979 C977 1.327 . S
C979 C995 1.429 . S
C979 H1001 0.950 . S
C980 H976 0.949 . S
C980 C988 1.574 . S
C980 C996 1.368 . S
H981 C989 0.950 . S
H982 C987 0.950 . S
H983 C988 0.949 . S
H984 C990 0.950 . S
H985 C991 0.950 . S
H986 C992 0.949 . S
C987 H982 0.950 . S
C987 C989 1.327 . S
C987 C993 1.429 . S
C988 C980 1.574 . S
C988 H983 0.949 . S
C988 C994 1.368 . S
C989 C973 1.349 . S
C989 H981 0.950 . S
C989 C987 1.327 . S
C990 C978 1.349 . S
C990 H984 0.950 . S
C990 C991 1.327 . S
C991 H985 0.950 . S
C991 C990 1.327 . S
C991 C995 1.429 . S
C992 C975 1.574 . S
C992 H986 0.949 . S
C992 C996 1.368 . S
C993 C974 1.429 . S
C993 C987 1.429 . S
C993 C994 1.523 . S
C994 C975 1.368 . S
C994 C988 1.368 . S
C994 C993 1.523 . S
C995 C979 1.429 . S
C995 C991 1.429 . S
C995 C996 1.523 . S
C996 C980 1.368 . S
C996 C992 1.368 . S
C996 C995 1.523 . S
H997 C972 0.950 . S
H998 C974 0.950 . S
H999 C975 0.949 . S
H1000 C977 0.950 . S
H1001 C979 0.950 . S
C1002 C1003 1.349 . S
C1002 C1004 1.327 . S
C1002 H1027 0.950 . S
C1003 C1002 1.349 . S
C1003 C1019 1.349 . S
C1004 C1002 1.327 . S
C1004 C1023 1.429 . S
C1004 H1028 0.950 . S
C1005 C1022 1.574 . S
C1005 C1024 1.368 . S
C1005 H1029 0.949 . S
H1006 C1010 0.949 . S
C1007 C1008 1.349 . S
C1007 C1009 1.327 . S
C1007 H1030 0.950 . S
C1008 C1007 1.349 . S
C1008 C1020 1.349 . S
C1009 C1007 1.327 . S
C1009 C1025 1.429 . S
C1009 H1031 0.950 . S
C1010 H1006 0.949 . S
C1010 C1018 1.574 . S
C1010 C1026 1.368 . S
H1011 C1019 0.950 . S
H1012 C1017 0.950 . S
H1013 C1018 0.949 . S
H1014 C1020 0.950 . S
H1015 C1021 0.950 . S
H1016 C1022 0.949 . S
C1017 H1012 0.950 . S
C1017 C1019 1.327 . S
C1017 C1023 1.429 . S
C1018 C1010 1.574 . S
C1018 H1013 0.949 . S
C1018 C1024 1.368 . S
C1019 C1003 1.349 . S
C1019 H1011 0.950 . S
C1019 C1017 1.327 . S
C1020 C1008 1.349 . S
C1020 H1014 0.950 . S
C1020 C1021 1.327 . S
C1021 H1015 0.950 . S
C1021 C1020 1.327 . S
C1021 C1025 1.429 . S
C1022 C1005 1.574 . S
C1022 H1016 0.949 . S
C1022 C1026 1.368 . S
C1023 C1004 1.429 . S
C1023 C1017 1.429 . S
C1023 C1024 1.523 . S
C1024 C1005 1.368 . S
C1024 C1018 1.368 . S
C1024 C1023 1.523 . S
C1025 C1009 1.429 . S
C1025 C1021 1.429 . S
C1025 C1026 1.523 . S
C1026 C1010 1.368 . S
C1026 C1022 1.368 . S
C1026 C1025 1.523 . S
H1027 C1002 0.950 . S
H1028 C1004 0.950 . S
H1029 C1005 0.949 . S
H1030 C1007 0.950 . S
H1031 C1009 0.950 . S
C1032 C1033 1.349 . S
C1032 C1034 1.327 . S
C1032 H1057 0.950 . S
C1033 C1032 1.349 . S
C1033 C1049 1.349 . S
C1034 C1032 1.327 . S
C1034 C1053 1.429 . S
C1034 H1058 0.950 . S
C1035 C1052 1.574 . S
C1035 C1054 1.368 . S
C1035 H1059 0.949 . S
H1036 C1040 0.949 . S
C1037 C1038 1.349 . S
C1037 C1039 1.327 . S
C1037 H1060 0.950 1_554 S
C1038 C1037 1.349 . S
C1038 C1050 1.349 . S
C1039 C1037 1.327 . S
C1039 C1055 1.429 . S
C1039 H1061 0.950 . S
C1040 H1036 0.949 . S
C1040 C1048 1.574 . S
C1040 C1056 1.368 . S
H1041 C1049 0.950 . S
H1042 C1047 0.950 . S
H1043 C1048 0.949 . S
H1044 C1050 0.950 . S
H1045 C1051 0.950 . S
H1046 C1052 0.949 . S
C1047 H1042 0.950 . S
C1047 C1049 1.327 . S
C1047 C1053 1.429 . S
C1048 C1040 1.574 . S
C1048 H1043 0.949 . S
C1048 C1054 1.368 . S
C1049 C1033 1.349 . S
C1049 H1041 0.950 . S
C1049 C1047 1.327 . S
C1050 C1038 1.349 . S
C1050 H1044 0.950 . S
C1050 C1051 1.327 . S
C1051 H1045 0.950 . S
C1051 C1050 1.327 . S
C1051 C1055 1.429 . S
C1052 C1035 1.574 . S
C1052 H1046 0.949 . S
C1052 C1056 1.368 . S
C1053 C1034 1.429 . S
C1053 C1047 1.429 . S
C1053 C1054 1.523 . S
C1054 C1035 1.368 . S
C1054 C1048 1.368 . S
C1054 C1053 1.523 . S
C1055 C1039 1.429 . S
C1055 C1051 1.429 . S
C1055 C1056 1.523 . S
C1056 C1040 1.368 . S
C1056 C1052 1.368 . S
C1056 C1055 1.523 . S
H1057 C1032 0.950 . S
H1058 C1034 0.950 . S
H1059 C1035 0.949 . S
H1060 C1037 0.950 1_556 S
H1061 C1039 0.950 . S
C1062 C1063 1.349 . S
C1062 C1064 1.327 . S
C1062 H1087 0.950 . S
C1063 C1062 1.349 . S
C1063 C1079 1.349 . S
C1064 C1062 1.327 . S
C1064 C1083 1.429 . S
C1064 H1088 0.950 . S
C1065 C1082 1.574 . S
C1065 C1084 1.368 . S
C1065 H1089 0.949 . S
H1066 C1070 0.949 . S
C1067 C1068 1.349 . S
C1067 C1069 1.327 . S
C1067 H1090 0.950 . S
C1068 C1067 1.349 . S
C1068 C1080 1.349 . S
C1069 C1067 1.327 . S
C1069 C1085 1.429 . S
C1069 H1091 0.950 . S
C1070 H1066 0.949 . S
C1070 C1078 1.574 . S
C1070 C1086 1.368 . S
H1071 C1079 0.950 . S
H1072 C1077 0.950 . S
H1073 C1078 0.949 . S
H1074 C1080 0.950 . S
H1075 C1081 0.950 . S
H1076 C1082 0.949 . S
C1077 H1072 0.950 . S
C1077 C1079 1.327 . S
C1077 C1083 1.429 . S
C1078 C1070 1.574 . S
C1078 H1073 0.949 . S
C1078 C1084 1.368 . S
C1079 C1063 1.349 . S
C1079 H1071 0.950 . S
C1079 C1077 1.327 . S
C1080 C1068 1.349 . S
C1080 H1074 0.950 . S
C1080 C1081 1.327 . S
C1081 H1075 0.950 . S
C1081 C1080 1.327 . S
C1081 C1085 1.429 . S
C1082 C1065 1.574 . S
C1082 H1076 0.949 . S
C1082 C1086 1.368 . S
C1083 C1064 1.429 . S
C1083 C1077 1.429 . S
C1083 C1084 1.523 . S
C1084 C1065 1.368 . S
C1084 C1078 1.368 . S
C1084 C1083 1.523 . S
C1085 C1069 1.429 . S
C1085 C1081 1.429 . S
C1085 C1086 1.523 . S
C1086 C1070 1.368 . S
C1086 C1082 1.368 . S
C1086 C1085 1.523 . S
H1087 C1062 0.950 . S
H1088 C1064 0.950 . S
H1089 C1065 0.949 . S
H1090 C1067 0.950 . S
H1091 C1069 0.950 . S
C1092 C1093 1.349 . S
C1092 C1094 1.327 . S
C1092 H1117 0.950 . S
C1093 C1092 1.349 . S
C1093 C1109 1.349 . S
C1094 C1092 1.327 . S
C1094 C1113 1.429 . S
C1094 H1118 0.950 . S
C1095 C1112 1.574 . S
C1095 C1114 1.368 . S
C1095 H1119 0.949 . S
H1096 C1100 0.949 . S
C1097 C1098 1.349 . S
C1097 C1099 1.327 . S
C1097 H1120 0.950 . S
C1098 C1097 1.349 . S
C1098 C1110 1.349 . S
C1099 C1097 1.327 . S
C1099 C1115 1.429 . S
C1099 H1121 0.950 . S
C1100 H1096 0.949 . S
C1100 C1108 1.574 . S
C1100 C1116 1.368 . S
H1101 C1109 0.950 . S
H1102 C1107 0.950 . S
H1103 C1108 0.949 . S
H1104 C1110 0.950 . S
H1105 C1111 0.950 . S
H1106 C1112 0.949 . S
C1107 H1102 0.950 . S
C1107 C1109 1.327 . S
C1107 C1113 1.429 . S
C1108 C1100 1.574 . S
C1108 H1103 0.949 . S
C1108 C1114 1.368 . S
C1109 C1093 1.349 . S
C1109 H1101 0.950 . S
C1109 C1107 1.327 . S
C1110 C1098 1.349 . S
C1110 H1104 0.950 . S
C1110 C1111 1.327 . S
C1111 H1105 0.950 . S
C1111 C1110 1.327 . S
C1111 C1115 1.429 . S
C1112 C1095 1.574 . S
C1112 H1106 0.949 . S
C1112 C1116 1.368 . S
C1113 C1094 1.429 . S
C1113 C1107 1.429 . S
C1113 C1114 1.523 . S
C1114 C1095 1.368 . S
C1114 C1108 1.368 . S
C1114 C1113 1.523 . S
C1115 C1099 1.429 . S
C1115 C1111 1.429 . S
C1115 C1116 1.523 . S
C1116 C1100 1.368 . S
C1116 C1112 1.368 . S
C1116 C1115 1.523 . S
H1117 C1092 0.950 . S
H1118 C1094 0.950 . S
H1119 C1095 0.949 . S
H1120 C1097 0.950 . S
H1121 C1099 0.950 . S
C1122 C1123 1.349 . S
C1122 C1124 1.327 . S
C1122 H1147 0.950 . S
C1123 C1122 1.349 . S
C1123 C1139 1.349 . S
C1124 C1122 1.327 . S
C1124 C1143 1.429 . S
C1124 H1148 0.950 . S
C1125 C1142 1.574 . S
C1125 C1144 1.368 . S
C1125 H1149 0.949 . S
H1126 C1130 0.949 . S
C1127 C1128 1.349 . S
C1127 C1129 1.327 . S
C1127 H1150 0.950 . S
C1128 C1127 1.349 . S
C1128 C1140 1.349 . S
C1129 C1127 1.327 . S
C1129 C1145 1.429 . S
C1129 H1151 0.950 . S
C1130 H1126 0.949 . S
C1130 C1138 1.574 . S
C1130 C1146 1.368 . S
H1131 C1139 0.950 . S
H1132 C1137 0.950 . S
H1133 C1138 0.949 . S
H1134 C1140 0.950 . S
H1135 C1141 0.950 . S
H1136 C1142 0.949 . S
C1137 H1132 0.950 . S
C1137 C1139 1.327 . S
C1137 C1143 1.429 . S
C1138 C1130 1.574 . S
C1138 H1133 0.949 . S
C1138 C1144 1.368 . S
C1139 C1123 1.349 . S
C1139 H1131 0.950 . S
C1139 C1137 1.327 . S
C1140 C1128 1.349 . S
C1140 H1134 0.950 . S
C1140 C1141 1.327 . S
C1141 H1135 0.950 . S
C1141 C1140 1.327 . S
C1141 C1145 1.429 . S
C1142 C1125 1.574 . S
C1142 H1136 0.949 . S
C1142 C1146 1.368 . S
C1143 C1124 1.429 . S
C1143 C1137 1.429 . S
C1143 C1144 1.523 . S
C1144 C1125 1.368 . S
C1144 C1138 1.368 . S
C1144 C1143 1.523 . S
C1145 C1129 1.429 . S
C1145 C1141 1.429 . S
C1145 C1146 1.523 . S
C1146 C1130 1.368 . S
C1146 C1142 1.368 . S
C1146 C1145 1.523 . S
H1147 C1122 0.950 . S
H1148 C1124 0.950 . S
H1149 C1125 0.949 . S
H1150 C1127 0.950 . S
H1151 C1129 0.950 . S
C1152 C1153 1.349 1_455 S
C1152 C1154 1.327 . S
C1152 H1177 0.950 . S
C1153 C1152 1.349 1_655 S
C1153 C1169 1.349 1_565 S
C1154 C1152 1.327 . S
C1154 C1173 1.415 1_455 S
C1154 H1178 0.950 . S
C1155 C1172 1.574 1_556 S
C1155 C1174 1.373 1_545 S
C1155 H1179 0.949 . S
H1156 C1160 0.949 . S
C1157 C1158 1.349 1_655 S
C1157 C1159 1.327 . S
C1157 H1180 0.950 . S
C1158 C1157 1.349 1_455 S
C1158 C1170 1.349 1_545 S
C1159 C1157 1.327 . S
C1159 C1175 1.410 1_655 S
C1159 H1181 0.950 . S
C1160 H1156 0.949 . S
C1160 C1168 1.574 1_554 S
C1160 C1176 1.378 1_565 S
H1161 C1169 0.950 . S
H1162 C1167 0.950 . S
H1163 C1168 0.949 . S
H1164 C1170 0.950 . S
H1165 C1171 0.950 . S
H1166 C1172 0.949 . S
C1167 H1162 0.950 . S
C1167 C1169 1.327 . S
C1167 C1173 1.443 1_545 S
C1168 C1160 1.574 1_556 S
C1168 H1163 0.949 . S
C1168 C1174 1.364 1_455 S
C1169 C1153 1.349 1_545 S
C1169 H1161 0.950 . S
C1169 C1167 1.327 . S
C1170 C1158 1.349 1_565 S
C1170 H1164 0.950 . S
C1170 C1171 1.327 . S
C1171 H1165 0.950 . S
C1171 C1170 1.327 . S
C1171 C1175 1.448 1_565 S
C1172 C1155 1.574 1_554 S
C1172 H1166 0.949 . S
C1172 C1176 1.359 1_655 S
C1173 C1154 1.415 1_655 S
C1173 C1167 1.443 1_565 S
C1173 C1174 1.523 . S
C1174 C1155 1.373 1_565 S
C1174 C1168 1.364 1_655 S
C1174 C1173 1.523 . S
C1175 C1159 1.410 1_455 S
C1175 C1171 1.448 1_545 S
C1175 C1176 1.523 . S
C1176 C1160 1.378 1_545 S
C1176 C1172 1.359 1_455 S
C1176 C1175 1.523 . S
H1177 C1152 0.950 . S
H1178 C1154 0.950 . S
H1179 C1155 0.949 . S
H1180 C1157 0.950 . S
H1181 C1159 0.950 . S
C1182 C1183 1.349 . S
C1182 C1184 1.327 . S
C1182 H1207 0.950 . S
C1183 C1182 1.349 . S
C1183 C1199 1.349 . S
C1184 C1182 1.327 . S
C1184 C1203 1.429 . S
C1184 H1208 0.950 . S
C1185 C1202 1.574 . S
C1185 C1204 1.368 . S
C1185 H1209 0.949 . S
H1186 C1190 0.949 . S
C1187 C1188 1.349 . S
C1187 C1189 1.327 . S
C1187 H1210 0.950 . S
C1188 C1187 1.349 . S
C1188 C1200 1.349 . S
C1189 C1187 1.327 . S
C1189 C1205 1.429 . S
C1189 H1211 0.950 . S
C1190 H1186 0.949 . S
C1190 C1198 1.574 . S
C1190 C1206 1.368 . S
H1191 C1199 0.950 . S
H1192 C1197 0.950 . S
H1193 C1198 0.949 . S
H1194 C1200 0.950 . S
H1195 C1201 0.950 . S
H1196 C1202 0.949 . S
C1197 H1192 0.950 . S
C1197 C1199 1.327 . S
C1197 C1203 1.429 . S
C1198 C1190 1.574 . S
C1198 H1193 0.949 . S
C1198 C1204 1.368 . S
C1199 C1183 1.349 . S
C1199 H1191 0.950 . S
C1199 C1197 1.327 . S
C1200 C1188 1.349 . S
C1200 H1194 0.950 . S
C1200 C1201 1.327 . S
C1201 H1195 0.950 . S
C1201 C1200 1.327 . S
C1201 C1205 1.429 . S
C1202 C1185 1.574 . S
C1202 H1196 0.949 . S
C1202 C1206 1.368 . S
C1203 C1184 1.429 . S
C1203 C1197 1.429 . S
C1203 C1204 1.523 . S
C1204 C1185 1.368 . S
C1204 C1198 1.368 . S
C1204 C1203 1.523 . S
C1205 C1189 1.429 . S
C1205 C1201 1.429 . S
C1205 C1206 1.523 . S
C1206 C1190 1.368 . S
C1206 C1202 1.368 . S
C1206 C1205 1.523 . S
H1207 C1182 0.950 . S
H1208 C1184 0.950 . S
H1209 C1185 0.949 . S
H1210 C1187 0.950 . S
H1211 C1189 0.950 . S
C1212 C1213 1.349 1_545 S
C1212 C1214 1.327 . S
C1212 H1237 0.950 . S
C1213 C1212 1.349 1_565 S
C1213 C1229 1.349 . S
C1214 C1212 1.327 . S
C1214 C1233 1.429 1_545 S
C1214 H1238 0.950 . S
C1215 C1232 1.574 . S
C1215 C1234 1.368 . S
C1215 H1239 0.949 . S
H1216 C1220 0.949 . S
C1217 C1218 1.349 1_565 S
C1217 C1219 1.327 . S
C1217 H1240 0.950 . S
C1218 C1217 1.349 1_545 S
C1218 C1230 1.349 . S
C1219 C1217 1.327 . S
C1219 C1235 1.429 1_565 S
C1219 H1241 0.950 . S
C1220 H1216 0.949 . S
C1220 C1228 1.574 . S
C1220 C1236 1.368 . S
H1221 C1229 0.950 . S
H1222 C1227 0.950 . S
H1223 C1228 0.949 . S
H1224 C1230 0.950 . S
H1225 C1231 0.950 . S
H1226 C1232 0.949 . S
C1227 H1222 0.950 . S
C1227 C1229 1.327 . S
C1227 C1233 1.429 . S
C1228 C1220 1.574 . S
C1228 H1223 0.949 . S
C1228 C1234 1.368 1_545 S
C1229 C1213 1.349 . S
C1229 H1221 0.950 . S
C1229 C1227 1.327 . S
C1230 C1218 1.349 . S
C1230 H1224 0.950 . S
C1230 C1231 1.327 . S
C1231 H1225 0.950 . S
C1231 C1230 1.327 . S
C1231 C1235 1.429 . S
C1232 C1215 1.574 . S
C1232 H1226 0.949 . S
C1232 C1236 1.368 1_565 S
C1233 C1214 1.429 1_565 S
C1233 C1227 1.429 . S
C1233 C1234 1.523 . S
C1234 C1215 1.368 . S
C1234 C1228 1.368 1_565 S
C1234 C1233 1.523 . S
C1235 C1219 1.429 1_545 S
C1235 C1231 1.429 . S
C1235 C1236 1.523 . S
C1236 C1220 1.368 . S
C1236 C1232 1.368 1_545 S
C1236 C1235 1.523 . S
H1237 C1212 0.950 . S
H1238 C1214 0.950 . S
H1239 C1215 0.949 . S
H1240 C1217 0.950 . S
H1241 C1219 0.950 . S
C1242 C1243 1.349 . S
C1242 C1244 1.327 . S
C1242 H1267 0.950 . S
C1243 C1242 1.349 . S
C1243 C1259 1.349 . S
C1244 C1242 1.327 . S
C1244 C1263 1.429 . S
C1244 H1268 0.950 . S
C1245 C1262 1.574 . S
C1245 C1264 1.368 . S
C1245 H1269 0.949 . S
H1246 C1250 0.949 . S
C1247 C1248 1.349 . S
C1247 C1249 1.327 . S
C1247 H1270 0.950 . S
C1248 C1247 1.349 . S
C1248 C1260 1.349 . S
C1249 C1247 1.327 . S
C1249 C1265 1.429 . S
C1249 H1271 0.950 . S
C1250 H1246 0.949 . S
C1250 C1258 1.574 . S
C1250 C1266 1.368 . S
H1251 C1259 0.950 . S
H1252 C1257 0.950 . S
H1253 C1258 0.949 . S
H1254 C1260 0.950 . S
H1255 C1261 0.950 . S
H1256 C1262 0.949 . S
C1257 H1252 0.950 . S
C1257 C1259 1.327 . S
C1257 C1263 1.429 . S
C1258 C1250 1.574 . S
C1258 H1253 0.949 . S
C1258 C1264 1.368 . S
C1259 C1243 1.349 . S
C1259 H1251 0.950 . S
C1259 C1257 1.327 . S
C1260 C1248 1.349 . S
C1260 H1254 0.950 . S
C1260 C1261 1.327 . S
C1261 H1255 0.950 . S
C1261 C1260 1.327 . S
C1261 C1265 1.429 . S
C1262 C1245 1.574 . S
C1262 H1256 0.949 . S
C1262 C1266 1.368 . S
C1263 C1244 1.429 . S
C1263 C1257 1.429 . S
C1263 C1264 1.523 . S
C1264 C1245 1.368 . S
C1264 C1258 1.368 . S
C1264 C1263 1.523 . S
C1265 C1249 1.429 . S
C1265 C1261 1.429 . S
C1265 C1266 1.523 . S
C1266 C1250 1.368 . S
C1266 C1262 1.368 . S
C1266 C1265 1.523 . S
H1267 C1242 0.950 . S
H1268 C1244 0.950 . S
H1269 C1245 0.949 . S
H1270 C1247 0.950 . S
H1271 C1249 0.950 . S
C1272 C1273 1.349 . S
C1272 C1274 1.327 . S
C1272 H1297 0.950 . S
C1273 C1272 1.349 . S
C1273 C1289 1.349 . S
C1274 C1272 1.327 . S
C1274 C1293 1.429 . S
C1274 H1298 0.950 . S
C1275 C1292 1.574 . S
C1275 C1294 1.368 . S
C1275 H1299 0.949 . S
H1276 C1280 0.949 . S
C1277 C1278 1.349 . S
C1277 C1279 1.327 . S
C1277 H1300 0.950 . S
C1278 C1277 1.349 . S
C1278 C1290 1.349 . S
C1279 C1277 1.327 . S
C1279 C1295 1.429 . S
C1279 H1301 0.950 . S
C1280 H1276 0.949 . S
C1280 C1288 1.574 . S
C1280 C1296 1.368 . S
H1281 C1289 0.950 . S
H1282 C1287 0.950 . S
H1283 C1288 0.949 . S
H1284 C1290 0.950 . S
H1285 C1291 0.950 . S
H1286 C1292 0.949 . S
C1287 H1282 0.950 . S
C1287 C1289 1.327 . S
C1287 C1293 1.429 . S
C1288 C1280 1.574 . S
C1288 H1283 0.949 . S
C1288 C1294 1.368 . S
C1289 C1273 1.349 . S
C1289 H1281 0.950 . S
C1289 C1287 1.327 . S
C1290 C1278 1.349 . S
C1290 H1284 0.950 . S
C1290 C1291 1.327 . S
C1291 H1285 0.950 . S
C1291 C1290 1.327 . S
C1291 C1295 1.429 . S
C1292 C1275 1.574 . S
C1292 H1286 0.949 . S
C1292 C1296 1.368 . S
C1293 C1274 1.429 . S
C1293 C1287 1.429 . S
C1293 C1294 1.523 . S
C1294 C1275 1.368 . S
C1294 C1288 1.368 . S
C1294 C1293 1.523 . S
C1295 C1279 1.429 . S
C1295 C1291 1.429 . S
C1295 C1296 1.523 . S
C1296 C1280 1.368 . S
C1296 C1292 1.368 . S
C1296 C1295 1.523 . S
H1297 C1272 0.950 . S
H1298 C1274 0.950 . S
H1299 C1275 0.949 . S
H1300 C1277 0.950 . S
H1301 C1279 0.950 . S
C1302 C1303 1.349 . S
C1302 C1304 1.327 . S
C1302 H1327 0.950 . S
C1303 C1302 1.349 . S
C1303 C1319 1.349 . S
C1304 C1302 1.327 . S
C1304 C1323 1.429 . S
C1304 H1328 0.950 . S
C1305 C1322 1.574 . S
C1305 C1324 1.368 . S
C1305 H1329 0.949 . S
H1306 C1310 0.949 . S
C1307 C1308 1.349 . S
C1307 C1309 1.327 . S
C1307 H1330 0.950 . S
C1308 C1307 1.349 . S
C1308 C1320 1.349 . S
C1309 C1307 1.327 . S
C1309 C1325 1.429 . S
C1309 H1331 0.950 . S
C1310 H1306 0.949 . S
C1310 C1318 1.574 . S
C1310 C1326 1.368 . S
H1311 C1319 0.950 . S
H1312 C1317 0.950 . S
H1313 C1318 0.949 . S
H1314 C1320 0.950 . S
H1315 C1321 0.950 . S
H1316 C1322 0.949 . S
C1317 H1312 0.950 . S
C1317 C1319 1.327 . S
C1317 C1323 1.429 . S
C1318 C1310 1.574 . S
C1318 H1313 0.949 . S
C1318 C1324 1.368 . S
C1319 C1303 1.349 . S
C1319 H1311 0.950 . S
C1319 C1317 1.327 . S
C1320 C1308 1.349 . S
C1320 H1314 0.950 . S
C1320 C1321 1.327 . S
C1321 H1315 0.950 . S
C1321 C1320 1.327 . S
C1321 C1325 1.429 . S
C1322 C1305 1.574 . S
C1322 H1316 0.949 . S
C1322 C1326 1.368 . S
C1323 C1304 1.429 . S
C1323 C1317 1.429 . S
C1323 C1324 1.523 . S
C1324 C1305 1.368 . S
C1324 C1318 1.368 . S
C1324 C1323 1.523 . S
C1325 C1309 1.429 . S
C1325 C1321 1.429 . S
C1325 C1326 1.523 . S
C1326 C1310 1.368 . S
C1326 C1322 1.368 . S
C1326 C1325 1.523 . S
H1327 C1302 0.950 . S
H1328 C1304 0.950 . S
H1329 C1305 0.949 . S
H1330 C1307 0.950 . S
H1331 C1309 0.950 . S
C1332 C1333 1.349 . S
C1332 C1334 1.327 . S
C1332 H1357 0.950 . S
C1333 C1332 1.349 . S
C1333 C1349 1.349 . S
C1334 C1332 1.327 . S
C1334 C1353 1.429 . S
C1334 H1358 0.950 . S
C1335 C1352 1.574 . S
C1335 C1354 1.368 . S
C1335 H1359 0.949 . S
H1336 C1340 0.949 . S
C1337 C1338 1.349 . S
C1337 C1339 1.327 . S
C1337 H1360 0.950 . S
C1338 C1337 1.349 . S
C1338 C1350 1.349 . S
C1339 C1337 1.327 . S
C1339 C1355 1.429 . S
C1339 H1361 0.950 . S
C1340 H1336 0.949 . S
C1340 C1348 1.574 . S
C1340 C1356 1.368 . S
H1341 C1349 0.950 . S
H1342 C1347 0.950 . S
H1343 C1348 0.949 . S
H1344 C1350 0.950 . S
H1345 C1351 0.950 . S
H1346 C1352 0.949 . S
C1347 H1342 0.950 . S
C1347 C1349 1.327 . S
C1347 C1353 1.429 . S
C1348 C1340 1.574 . S
C1348 H1343 0.949 . S
C1348 C1354 1.368 . S
C1349 C1333 1.349 . S
C1349 H1341 0.950 . S
C1349 C1347 1.327 . S
C1350 C1338 1.349 . S
C1350 H1344 0.950 . S
C1350 C1351 1.327 . S
C1351 H1345 0.950 . S
C1351 C1350 1.327 . S
C1351 C1355 1.429 . S
C1352 C1335 1.574 . S
C1352 H1346 0.949 . S
C1352 C1356 1.368 . S
C1353 C1334 1.429 . S
C1353 C1347 1.429 . S
C1353 C1354 1.523 . S
C1354 C1335 1.368 . S
C1354 C1348 1.368 . S
C1354 C1353 1.523 . S
C1355 C1339 1.429 . S
C1355 C1351 1.429 . S
C1355 C1356 1.523 . S
C1356 C1340 1.368 . S
C1356 C1352 1.368 . S
C1356 C1355 1.523 . S
H1357 C1332 0.950 . S
H1358 C1334 0.950 . S
H1359 C1335 0.949 . S
H1360 C1337 0.950 . S
H1361 C1339 0.950 . S
C1362 C1363 1.349 1_655 S
C1362 C1364 1.327 . S
C1362 H1387 0.950 . S
C1363 C1362 1.349 1_455 S
C1363 C1379 1.349 . S
C1364 C1362 1.327 . S
C1364 C1383 1.409 1_655 S
C1364 H1388 0.950 . S
C1365 C1382 1.574 1_556 S
C1365 C1384 1.378 . S
C1365 H1389 0.949 . S
H1366 C1370 0.949 . S
C1367 C1368 1.349 1_455 S
C1367 C1369 1.327 . S
C1367 H1390 0.950 . S
C1368 C1367 1.349 1_655 S
C1368 C1380 1.349 . S
C1369 C1367 1.327 . S
C1369 C1385 1.414 1_455 S
C1369 H1391 0.950 . S
C1370 H1366 0.949 . S
C1370 C1378 1.574 1_554 S
C1370 C1386 1.373 . S
H1371 C1379 0.950 . S
H1372 C1377 0.950 . S
H1373 C1378 0.949 . S
H1374 C1380 0.950 . S
H1375 C1381 0.950 . S
H1376 C1382 0.949 . S
C1377 H1372 0.950 . S
C1377 C1379 1.327 . S
C1377 C1383 1.449 . S
C1378 C1370 1.574 1_556 S
C1378 H1373 0.949 . S
C1378 C1384 1.358 1_655 S
C1379 C1363 1.349 . S
C1379 H1371 0.950 . S
C1379 C1377 1.327 . S
C1380 C1368 1.349 . S
C1380 H1374 0.950 . S
C1380 C1381 1.327 . S
C1381 H1375 0.950 . S
C1381 C1380 1.327 . S
C1381 C1385 1.444 . S
C1382 C1365 1.574 1_554 S
C1382 H1376 0.949 . S
C1382 C1386 1.364 1_455 S
C1383 C1364 1.409 1_455 S
C1383 C1377 1.449 . S
C1383 C1384 1.523 . S
C1384 C1365 1.378 . S
C1384 C1378 1.358 1_455 S
C1384 C1383 1.523 . S
C1385 C1369 1.414 1_655 S
C1385 C1381 1.444 . S
C1385 C1386 1.523 . S
C1386 C1370 1.373 . S
C1386 C1382 1.364 1_655 S
C1386 C1385 1.523 . S
H1387 C1362 0.950 . S
H1388 C1364 0.950 . S
H1389 C1365 0.949 . S
H1390 C1367 0.950 . S
H1391 C1369 0.950 . S
C673 C56 1.505 . S
C678 C308 1.499 . S
C703 C63 1.495 . S
C708 C140 1.505 . S
C733 C147 1.487 . S
C738 C224 1.502 . S
C763 C231 1.486 . S
C768 C315 1.482 . S
C793 C67 1.505 . S
C798 C487 1.512 . S
C823 C74 1.495 . S
C828 C403 1.503 . S
C853 C410 1.487 . S
C858 C235 1.494 . S
C883 C494 1.486 . S
C888 C242 1.491 . S
C913 C560 1.505 . S
C918 C476 1.506 . S
C943 C392 1.504 . S
C948 C567 1.493 . S
C973 C644 1.498 . S
C978 C399 1.490 . S
C1003 C483 1.486 . S
C1008 C651 1.489 . S
C1033 C319 1.505 . S
C1038 C571 1.504 . S
C1063 C578 1.495 . S
C1068 C151 1.505 . S
C1093 C158 1.487 . S
C1098 C655 1.494 . S
C1123 C326 1.486 . S
C1128 C662 1.483 . S
C1153 C58 1.454 . S
C1158 C69 1.457 . S
C1183 C153 1.449 . S
C1188 C142 1.449 . S
C1213 C237 1.455 . S
C1218 C226 1.455 . S
C1243 C310 1.450 . S
C1248 C321 1.450 . S
C1273 C405 1.449 . S
C1278 C394 1.449 . S
C1303 C478 1.450 . S
C1308 C489 1.450 . S
C1333 C573 1.452 . S
C1338 C562 1.452 . S
C1363 C646 1.455 . S
C1368 C657 1.455 . S
