# Generated by pormake.
# Topology lcy-a, (4)-cn, num edge types: 1
# Building blocks:
#     Node 0, Type 0, BuildingBlock: TATPOV_clean_sbu_0, # of connection points: 4
#     Node 1, Type 0, BuildingBlock: TATPOV_clean_sbu_0, # of connection points: 4
#     Node 2, Type 0, BuildingBlock: TATPOV_clean_sbu_0, # of connection points: 4
#     Node 3, Type 0, BuildingBlock: TATPOV_clean_sbu_0, # of connection points: 4
#     Node 4, Type 0, BuildingBlock: TATPOV_clean_sbu_0, # of connection points: 4
#     Node 5, Type 0, BuildingBlock: TATPOV_clean_sbu_0, # of connection points: 4
#     Node 6, Type 0, BuildingBlock: TATPOV_clean_sbu_0, # of connection points: 4
#     Node 7, Type 0, BuildingBlock: TATPOV_clean_sbu_0, # of connection points: 4
#     Node 8, Type 0, BuildingBlock: TATPOV_clean_sbu_0, # of connection points: 4
#     Node 9, Type 0, BuildingBlock: TATPOV_clean_sbu_0, # of connection points: 4
#     Node 10, Type 0, BuildingBlock: TATPOV_clean_sbu_0, # of connection points: 4
#     Node 11, Type 0, BuildingBlock: TATPOV_clean_sbu_0, # of connection points: 4
#     Node 12, Type 0, BuildingBlock: TATPOV_clean_sbu_0, # of connection points: 4
#     Node 13, Type 0, BuildingBlock: TATPOV_clean_sbu_0, # of connection points: 4
#     Node 14, Type 0, BuildingBlock: TATPOV_clean_sbu_0, # of connection points: 4
#     Node 15, Type 0, BuildingBlock: TATPOV_clean_sbu_0, # of connection points: 4
#     Node 16, Type 0, BuildingBlock: TATPOV_clean_sbu_0, # of connection points: 4
#     Node 17, Type 0, BuildingBlock: TATPOV_clean_sbu_0, # of connection points: 4
#     Node 18, Type 0, BuildingBlock: TATPOV_clean_sbu_0, # of connection points: 4
#     Node 19, Type 0, BuildingBlock: TATPOV_clean_sbu_0, # of connection points: 4
#     Node 20, Type 0, BuildingBlock: TATPOV_clean_sbu_0, # of connection points: 4
#     Node 21, Type 0, BuildingBlock: TATPOV_clean_sbu_0, # of connection points: 4
#     Node 22, Type 0, BuildingBlock: TATPOV_clean_sbu_0, # of connection points: 4
#     Node 23, Type 0, BuildingBlock: TATPOV_clean_sbu_0, # of connection points: 4
#     Edge 24, Type (0, 0), BuildingBlock: ZUJKAS_clean_linker_0, # of connection points: 2
#     Edge 25, Type (0, 0), BuildingBlock: ZUJKAS_clean_linker_0, # of connection points: 2
#     Edge 26, Type (0, 0), BuildingBlock: ZUJKAS_clean_linker_0, # of connection points: 2
#     Edge 27, Type (0, 0), BuildingBlock: ZUJKAS_clean_linker_0, # of connection points: 2
#     Edge 28, Type (0, 0), BuildingBlock: ZUJKAS_clean_linker_0, # of connection points: 2
#     Edge 29, Type (0, 0), BuildingBlock: ZUJKAS_clean_linker_0, # of connection points: 2
#     Edge 30, Type (0, 0), BuildingBlock: ZUJKAS_clean_linker_0, # of connection points: 2
#     Edge 31, Type (0, 0), BuildingBlock: ZUJKAS_clean_linker_0, # of connection points: 2
#     Edge 32, Type (0, 0), BuildingBlock: ZUJKAS_clean_linker_0, # of connection points: 2
#     Edge 33, Type (0, 0), BuildingBlock: ZUJKAS_clean_linker_0, # of connection points: 2
#     Edge 34, Type (0, 0), BuildingBlock: ZUJKAS_clean_linker_0, # of connection points: 2
#     Edge 35, Type (0, 0), BuildingBlock: ZUJKAS_clean_linker_0, # of connection points: 2
#     Edge 36, Type (0, 0), BuildingBlock: ZUJKAS_clean_linker_0, # of connection points: 2
#     Edge 37, Type (0, 0), BuildingBlock: ZUJKAS_clean_linker_0, # of connection points: 2
#     Edge 38, Type (0, 0), BuildingBlock: ZUJKAS_clean_linker_0, # of connection points: 2
#     Edge 39, Type (0, 0), BuildingBlock: ZUJKAS_clean_linker_0, # of connection points: 2
#     Edge 40, Type (0, 0), BuildingBlock: ZUJKAS_clean_linker_0, # of connection points: 2
#     Edge 41, Type (0, 0), BuildingBlock: ZUJKAS_clean_linker_0, # of connection points: 2
#     Edge 42, Type (0, 0), BuildingBlock: ZUJKAS_clean_linker_0, # of connection points: 2
#     Edge 43, Type (0, 0), BuildingBlock: ZUJKAS_clean_linker_0, # of connection points: 2
#     Edge 44, Type (0, 0), BuildingBlock: ZUJKAS_clean_linker_0, # of connection points: 2
#     Edge 45, Type (0, 0), BuildingBlock: ZUJKAS_clean_linker_0, # of connection points: 2
#     Edge 46, Type (0, 0), BuildingBlock: ZUJKAS_clean_linker_0, # of connection points: 2
#     Edge 47, Type (0, 0), BuildingBlock: ZUJKAS_clean_linker_0, # of connection points: 2
#     Edge 48, Type (0, 0), BuildingBlock: ZUJKAS_clean_linker_0, # of connection points: 2
#     Edge 49, Type (0, 0), BuildingBlock: ZUJKAS_clean_linker_0, # of connection points: 2
#     Edge 50, Type (0, 0), BuildingBlock: ZUJKAS_clean_linker_0, # of connection points: 2
#     Edge 51, Type (0, 0), BuildingBlock: ZUJKAS_clean_linker_0, # of connection points: 2
#     Edge 52, Type (0, 0), BuildingBlock: ZUJKAS_clean_linker_0, # of connection points: 2
#     Edge 53, Type (0, 0), BuildingBlock: ZUJKAS_clean_linker_0, # of connection points: 2
#     Edge 54, Type (0, 0), BuildingBlock: ZUJKAS_clean_linker_0, # of connection points: 2
#     Edge 55, Type (0, 0), BuildingBlock: ZUJKAS_clean_linker_0, # of connection points: 2
#     Edge 56, Type (0, 0), BuildingBlock: ZUJKAS_clean_linker_0, # of connection points: 2
#     Edge 57, Type (0, 0), BuildingBlock: ZUJKAS_clean_linker_0, # of connection points: 2
#     Edge 58, Type (0, 0), BuildingBlock: ZUJKAS_clean_linker_0, # of connection points: 2
#     Edge 59, Type (0, 0), BuildingBlock: ZUJKAS_clean_linker_0, # of connection points: 2
#     Edge 60, Type (0, 0), BuildingBlock: ZUJKAS_clean_linker_0, # of connection points: 2
#     Edge 61, Type (0, 0), BuildingBlock: ZUJKAS_clean_linker_0, # of connection points: 2
#     Edge 62, Type (0, 0), BuildingBlock: ZUJKAS_clean_linker_0, # of connection points: 2
#     Edge 63, Type (0, 0), BuildingBlock: ZUJKAS_clean_linker_0, # of connection points: 2
#     Edge 64, Type (0, 0), BuildingBlock: ZUJKAS_clean_linker_0, # of connection points: 2
#     Edge 65, Type (0, 0), BuildingBlock: ZUJKAS_clean_linker_0, # of connection points: 2
#     Edge 66, Type (0, 0), BuildingBlock: ZUJKAS_clean_linker_0, # of connection points: 2
#     Edge 67, Type (0, 0), BuildingBlock: ZUJKAS_clean_linker_0, # of connection points: 2
#     Edge 68, Type (0, 0), BuildingBlock: ZUJKAS_clean_linker_0, # of connection points: 2
#     Edge 69, Type (0, 0), BuildingBlock: ZUJKAS_clean_linker_0, # of connection points: 2
#     Edge 70, Type (0, 0), BuildingBlock: ZUJKAS_clean_linker_0, # of connection points: 2
#     Edge 71, Type (0, 0), BuildingBlock: ZUJKAS_clean_linker_0, # of connection points: 2
# Relax obj value: 0.374
# Max RMSD: 0.188
# Mean RMSD: 0.188
data_MOF--net-lcy-a--node1-TATPOV_clean_sbu_0--edge1-ZUJKAS_clean_linker_0
_symmetry_space_group_name_H-M    P1
_symmetry_Int_Tables_number       1
_symmetry_cell_setting            triclinic
loop_
_symmetry_equiv_pos_as_xyz
'x, y, z'
_cell_length_a     72.441417
_cell_length_b     72.471181
_cell_length_c     72.447407
_cell_angle_alpha  89.975864
_cell_angle_beta   89.993518
_cell_angle_gamma 90.029495
loop_
_atom_site_label
_atom_site_type_symbol
_atom_site_fract_x
_atom_site_fract_y
_atom_site_fract_z
_atom_type_partial_charge
Zn0 Zn 0.22866 0.30823 0.37898 0.0
Zn1 Zn 0.19745 0.29662 0.39253 0.0
O2 O 0.21079 0.27295 0.38376 0.0
O3 O 0.23475 0.28334 0.36834 0.0
O4 O 0.17496 0.28584 0.40455 0.0
O5 O 0.23783 0.31521 0.4042 0.0
O6 O 0.20977 0.31003 0.41455 0.0
C7 C 0.22486 0.26996 0.37366 0.0
C8 C 0.19701 0.32566 0.36245 0.0
O9 O 0.18793 0.31376 0.3717 0.0
O10 O 0.21438 0.32669 0.36406 0.0
C11 C 0.16664 0.27209 0.39753 0.0
O12 O 0.17165 0.26619 0.38113 0.0
C13 C 0.22621 0.3157 0.41723 0.0
Zn14 Zn 0.9488 0.98134 0.6378 0.0
Zn15 Zn 0.96284 0.94906 0.64554 0.0
O16 O 0.98536 0.96413 0.63642 0.0
O17 O 0.9729 0.99026 0.62745 0.0
O18 O 0.97472 0.92553 0.65377 0.0
O19 O 0.94254 0.98635 0.66424 0.0
O20 O 0.95049 0.95763 0.66995 0.0
C21 C 0.98697 0.98005 0.62913 0.0
C22 C 0.93222 0.9514 0.61727 0.0
O23 O 0.94481 0.9417 0.62479 0.0
O24 O 0.93055 0.96832 0.62135 0.0
C25 C 0.98863 0.91857 0.64566 0.0
O26 O 0.99458 0.92604 0.63024 0.0
C27 C 0.94385 0.97298 0.67538 0.0
Zn28 Zn 0.27112 0.69192 0.88159 0.0
Zn29 Zn 0.30231 0.7063 0.89265 0.0
O30 O 0.28411 0.72831 0.89085 0.0
O31 O 0.25732 0.71564 0.88451 0.0
O32 O 0.3245 0.71928 0.90274 0.0
O33 O 0.27173 0.67349 0.90228 0.0
O34 O 0.29661 0.68713 0.91304 0.0
C35 C 0.26682 0.72985 0.88802 0.0
C36 C 0.30041 0.68852 0.85486 0.0
O37 O 0.31052 0.69524 0.86759 0.0
O38 O 0.28324 0.68648 0.85735 0.0
C39 C 0.32963 0.73446 0.89561 0.0
O40 O 0.32151 0.74027 0.88046 0.0
C41 C 0.28412 0.67483 0.91453 0.0
Zn42 Zn 0.56098 0.01121 0.14273 0.0
Zn43 Zn 0.54549 0.07132 0.15018 0.0
O44 O 0.5219 0.05557 0.14713 0.0
O45 O 0.54212 0.03367 0.14537 0.0
O46 O 0.53661 0.097 0.15481 0.0
O47 O 0.55991 0.03707 0.15705 0.0
O48 O 0.56014 0.06233 0.17307 0.0
C49 C 0.52512 0.03851 0.14498 0.0
C50 C 0.56636 0.05189 0.12407 0.0
O51 O 0.56161 0.06862 0.12659 0.0
O52 O 0.56058 0.04014 0.13598 0.0
C53 C 0.52301 0.10293 0.14545 0.0
O54 O 0.51758 0.09345 0.13098 0.0
C55 C 0.56492 0.04551 0.17176 0.0
Zn56 Zn 0.73657 0.20451 0.60673 0.0
Zn57 Zn 0.70175 0.21337 0.60061 0.0
O58 O 0.71514 0.23829 0.60505 0.0
O59 O 0.74447 0.23096 0.60763 0.0
O60 O 0.6766 0.22235 0.59364 0.0
O61 O 0.738 0.19097 0.58266 0.0
O62 O 0.70918 0.19876 0.57724 0.0
C63 C 0.73194 0.24309 0.60708 0.0
C64 C 0.71075 0.19022 0.63412 0.0
O65 O 0.69838 0.19738 0.62387 0.0
O66 O 0.72766 0.1918 0.62992 0.0
C67 C 0.66926 0.23597 0.60186 0.0
O68 O 0.67726 0.24267 0.6167 0.0
C69 C 0.72402 0.19076 0.57221 0.0
Zn70 Zn 0.05955 0.48349 0.84302 0.0
Zn71 Zn 0.04693 0.44951 0.83937 0.0
O72 O 0.02376 0.46489 0.84572 0.0
O73 O 0.03428 0.49318 0.84891 0.0
O74 O 0.03555 0.4249 0.83442 0.0
O75 O 0.06792 0.48411 0.81684 0.0
O76 O 0.05957 0.45504 0.81421 0.0
C77 C 0.02095 0.4819 0.84906 0.0
C78 C 0.07552 0.45718 0.86881 0.0
O79 O 0.06438 0.44576 0.86142 0.0
O80 O 0.07631 0.47368 0.86305 0.0
C81 C 0.02233 0.4188 0.8442 0.0
O82 O 0.01764 0.42774 0.85926 0.0
C83 C 0.06666 0.46957 0.80727 0.0
Zn84 Zn 0.76985 0.81492 0.10573 0.0
Zn85 Zn 0.80179 0.79907 0.098 0.0
O86 O 0.78452 0.77735 0.10439 0.0
O87 O 0.75746 0.79024 0.10911 0.0
O88 O 0.82446 0.78542 0.09025 0.0
O89 O 0.7692 0.8274 0.08122 0.0
O90 O 0.79547 0.8139 0.07425 0.0
C91 C 0.76742 0.77593 0.10812 0.0
C92 C 0.79978 0.82562 0.13018 0.0
O93 O 0.80955 0.81471 0.12046 0.0
O94 O 0.78278 0.82774 0.12667 0.0
C95 C 0.82989 0.77132 0.09915 0.0
O96 O 0.82163 0.76695 0.1147 0.0
C97 C 0.78218 0.82458 0.06989 0.0
Zn98 Zn 0.42959 0.52559 0.36696 0.0
Zn99 Zn 0.44818 0.55401 0.35448 0.0
O100 O 0.46844 0.53626 0.3637 0.0
O101 O 0.45287 0.51318 0.3757 0.0
O102 O 0.4634 0.5741 0.34315 0.0
O103 O 0.41916 0.52006 0.3421 0.0
O104 O 0.43299 0.54504 0.33185 0.0
C105 C 0.46816 0.52085 0.37213 0.0
C106 C 0.42023 0.55966 0.38521 0.0
O107 O 0.43326 0.56643 0.3755 0.0
O108 O 0.41578 0.54285 0.38352 0.0
C109 C 0.47831 0.57969 0.35051 0.0
O110 O 0.48304 0.57339 0.36685 0.0
C111 C 0.42243 0.53123 0.32908 0.0
Zn112 Zn 0.38515 0.21093 0.33824 0.0
Zn113 Zn 0.39671 0.18625 0.31348 0.0
O114 O 0.3913 0.20915 0.29802 0.0
O115 O 0.38094 0.22971 0.31773 0.0
O116 O 0.40698 0.16978 0.29387 0.0
O117 O 0.40946 0.20979 0.35135 0.0
O118 O 0.41878 0.18886 0.33146 0.0
C119 C 0.38495 0.22516 0.30132 0.0
C120 C 0.36214 0.17838 0.33602 0.0
O121 O 0.37281 0.17382 0.3228 0.0
O122 O 0.36498 0.19305 0.34506 0.0
C123 C 0.39907 0.16882 0.27824 0.0
O124 O 0.3829 0.17673 0.27603 0.0
C125 C 0.42182 0.19888 0.34559 0.0
Zn126 Zn 0.02917 0.12937 0.57834 0.0
Zn127 Zn 0.05454 0.14459 0.55767 0.0
O128 O 0.03517 0.13599 0.53871 0.0
O129 O 0.01469 0.12162 0.55586 0.0
O130 O 0.07271 0.15767 0.54137 0.0
O131 O 0.02359 0.15297 0.59119 0.0
O132 O 0.04585 0.16578 0.57501 0.0
C133 C 0.02034 0.12666 0.5401 0.0
C134 C 0.06434 0.11186 0.58238 0.0
O135 O 0.06913 0.12286 0.56949 0.0
O136 O 0.04819 0.1126 0.589 0.0
C137 C 0.07712 0.15115 0.5257 0.0
O138 O 0.07081 0.13487 0.52081 0.0
C139 C 0.03331 0.16695 0.58732 0.0
Zn140 Zn 0.11378 0.78116 0.83494 0.0
Zn141 Zn 0.1005 0.80693 0.81264 0.0
O142 O 0.10605 0.78516 0.7953 0.0
O143 O 0.11726 0.76368 0.81352 0.0
O144 O 0.08981 0.8249 0.79461 0.0
O145 O 0.09021 0.78113 0.84933 0.0
O146 O 0.07884 0.80231 0.8308 0.0
C147 C 0.1127 0.76906 0.79753 0.0
C148 C 0.13567 0.81422 0.83471 0.0
O149 O 0.12392 0.81983 0.82289 0.0
O150 O 0.1342 0.79838 0.8419 0.0
C151 C 0.09837 0.828 0.77961 0.0
O152 O 0.11474 0.8206 0.77711 0.0
C153 C 0.07703 0.79156 0.84462 0.0
Zn154 Zn 0.48349 0.86021 0.06288 0.0
Zn155 Zn 0.45082 0.8533 0.04851 0.0
O156 O 0.46882 0.85395 0.02636 0.0
O157 O 0.49641 0.85651 0.03866 0.0
O158 O 0.4276 0.84594 0.03551 0.0
O159 O 0.48046 0.83917 0.08071 0.0
O160 O 0.45438 0.8319 0.06699 0.0
C161 C 0.48629 0.85481 0.02453 0.0
C162 C 0.45731 0.89002 0.0672 0.0
O163 O 0.44571 0.87877 0.06026 0.0
O164 O 0.47409 0.88552 0.06904 0.0
C165 C 0.42314 0.85383 0.0205 0.0
O166 O 0.43254 0.86836 0.01506 0.0
C167 C 0.46666 0.82856 0.07913 0.0
Zn168 Zn 0.87393 0.27653 0.67769 0.0
Zn169 Zn 0.88939 0.30373 0.69596 0.0
O170 O 0.88077 0.28607 0.71647 0.0
O171 O 0.86501 0.26495 0.70146 0.0
O172 O 0.90222 0.32303 0.71089 0.0
O173 O 0.89821 0.26938 0.66653 0.0
O174 O 0.91056 0.29387 0.67948 0.0
C175 C 0.87067 0.27171 0.71654 0.0
C176 C 0.85761 0.3118 0.66975 0.0
O177 O 0.86818 0.31749 0.68261 0.0
O178 O 0.85821 0.29513 0.66458 0.0
C179 C 0.8951 0.3289 0.7258 0.0
O180 O 0.87847 0.32336 0.73046 0.0
C181 C 0.912 0.27981 0.669 0.0
Zn182 Zn 0.98466 0.6381 0.94078 0.0
Zn183 Zn 0.95167 0.64669 0.95385 0.0
O184 O 0.96739 0.64164 0.97703 0.0
O185 O 0.9953 0.63617 0.96643 0.0
O186 O 0.92831 0.65531 0.96569 0.0
O187 O 0.98635 0.66191 0.92711 0.0
O188 O 0.95904 0.66947 0.93798 0.0
C189 C 0.98433 0.63804 0.9799 0.0
C190 C 0.95536 0.61297 0.92959 0.0
O191 O 0.94488 0.62326 0.93925 0.0
O192 O 0.97246 0.61646 0.92831 0.0
C193 C 0.92187 0.64686 0.97964 0.0
O194 O 0.92932 0.6311 0.98462 0.0
C195 C 0.97318 0.6733 0.9282 0.0
Zn196 Zn 0.59897 0.73134 0.17645 0.0
Zn197 Zn 0.59178 0.70021 0.19379 0.0
O198 O 0.59552 0.71896 0.2148 0.0
O199 O 0.60053 0.74522 0.20051 0.0
O200 O 0.58479 0.67773 0.20825 0.0
O201 O 0.57537 0.72995 0.16247 0.0
O202 O 0.56853 0.70443 0.17748 0.0
C203 C 0.59872 0.73622 0.21538 0.0
C204 C 0.62581 0.70293 0.16919 0.0
O205 O 0.61597 0.69327 0.18014 0.0
O206 O 0.62133 0.71942 0.16556 0.0
C207 C 0.59375 0.67336 0.22268 0.0
O208 O 0.6087 0.6827 0.22696 0.0
C209 C 0.56438 0.71676 0.16562 0.0
Zn210 Zn 0.51953 0.34917 0.42011 0.0
Zn211 Zn 0.55026 0.34123 0.43833 0.0
O212 O 0.53095 0.34527 0.45865 0.0
O213 O 0.50524 0.35177 0.44398 0.0
O214 O 0.57178 0.33373 0.4539 0.0
O215 O 0.5205 0.32499 0.40697 0.0
O216 O 0.54601 0.31813 0.42194 0.0
C217 C 0.51388 0.34934 0.45898 0.0
C218 C 0.5491 0.37526 0.4137 0.0
O219 O 0.55805 0.36537 0.42519 0.0
O220 O 0.53276 0.37092 0.40922 0.0
C221 C 0.57553 0.34298 0.46832 0.0
O222 O 0.56673 0.35855 0.47132 0.0
C223 C 0.53355 0.31387 0.41026 0.0
Zn224 Zn 0.29956 0.40074 0.24004 0.0
Zn225 Zn 0.2916 0.40542 0.20601 0.0
O226 O 0.26666 0.40556 0.22024 0.0
O227 O 0.27452 0.4076 0.24941 0.0
O228 O 0.28261 0.4115 0.18058 0.0
O229 O 0.31981 0.41939 0.23908 0.0
O230 O 0.3102 0.42663 0.21123 0.0
C231 C 0.26212 0.40734 0.23714 0.0
C232 C 0.30696 0.36871 0.2178 0.0
O233 O 0.30361 0.37959 0.20437 0.0
O234 O 0.30501 0.3742 0.23427 0.0
C235 C 0.26865 0.40309 0.17409 0.0
O236 O 0.26186 0.38897 0.18323 0.0
C237 C 0.32091 0.42952 0.2249 0.0
Zn238 Zn 0.81189 0.09687 0.761 0.0
Zn239 Zn 0.79817 0.08766 0.79236 0.0
O240 O 0.77604 0.08839 0.77416 0.0
O241 O 0.78893 0.09088 0.74687 0.0
O242 O 0.78557 0.07876 0.81531 0.0
O243 O 0.83233 0.07858 0.76323 0.0
O244 O 0.81836 0.06773 0.78789 0.0
C245 C 0.77458 0.08902 0.75664 0.0
C246 C 0.81327 0.12617 0.78768 0.0
O247 O 0.80798 0.1137 0.7989 0.0
O248 O 0.81505 0.12257 0.77068 0.0
C249 C 0.77109 0.08688 0.82096 0.0
O250 O 0.76551 0.10187 0.81242 0.0
C251 C 0.83134 0.06676 0.77603 0.0
Zn252 Zn 0.13975 0.57576 0.01934 0.0
Zn253 Zn 0.15219 0.5565 0.04712 0.0
O254 O 0.1441 0.53676 0.02829 0.0
O255 O 0.132 0.5529 0.00566 0.0
O256 O 0.16314 0.54057 0.06691 0.0
O257 O 0.16423 0.58734 0.01487 0.0
O258 O 0.17468 0.57257 0.03923 0.0
C259 C 0.13593 0.53743 0.01275 0.0
C260 C 0.12004 0.58301 0.05287 0.0
O261 O 0.13015 0.57018 0.05944 0.0
O262 O 0.12212 0.58823 0.03634 0.0
C263 C 0.15522 0.52569 0.07177 0.0
O264 O 0.13888 0.52174 0.06497 0.0
C265 C 0.17723 0.5839 0.02598 0.0
Zn266 Zn 0.69411 0.88846 0.25687 0.0
Zn267 Zn 0.70315 0.89984 0.28962 0.0
O268 O 0.72778 0.89751 0.27538 0.0
O269 O 0.71941 0.89318 0.24658 0.0
O270 O 0.71257 0.91023 0.31338 0.0
O271 O 0.67442 0.90779 0.25477 0.0
O272 O 0.68491 0.91989 0.28056 0.0
C273 C 0.73196 0.8958 0.25841 0.0
C274 C 0.68694 0.86174 0.28557 0.0
O275 O 0.69106 0.87498 0.29638 0.0
O276 O 0.68825 0.86379 0.26826 0.0
C277 C 0.72631 0.90246 0.32102 0.0
O278 O 0.7324 0.88678 0.31426 0.0
C279 C 0.67402 0.92048 0.26675 0.0
Zn280 Zn 0.36531 0.44648 0.50945 0.0
Zn281 Zn 0.35436 0.45498 0.54236 0.0
O282 O 0.35674 0.47975 0.52818 0.0
O283 O 0.36105 0.47181 0.49927 0.0
O284 O 0.34439 0.46439 0.5663 0.0
O285 O 0.34571 0.42708 0.50729 0.0
O286 O 0.33413 0.43671 0.53363 0.0
C287 C 0.35855 0.48421 0.51128 0.0
C288 C 0.39224 0.4385 0.53769 0.0
O289 O 0.37917 0.44256 0.54872 0.0
O290 O 0.39003 0.44015 0.52043 0.0
C291 C 0.3525 0.47792 0.57394 0.0
O292 O 0.36827 0.48373 0.56708 0.0
C293 C 0.33331 0.42619 0.51955 0.0
Zn294 Zn 0.18884 0.59768 0.73604 0.0
Zn295 Zn 0.2029 0.59198 0.70277 0.0
O296 O 0.22552 0.59598 0.71978 0.0
O297 O 0.2139 0.60012 0.74747 0.0
O298 O 0.21555 0.58539 0.67915 0.0
O299 O 0.17654 0.57299 0.73566 0.0
O300 O 0.18732 0.5685 0.70764 0.0
C301 C 0.22779 0.59896 0.73696 0.0
C302 C 0.17833 0.62516 0.70877 0.0
O303 O 0.18819 0.61581 0.69762 0.0
O304 O 0.17652 0.62021 0.72543 0.0
C305 C 0.23007 0.59384 0.67409 0.0
O306 O 0.23532 0.6086 0.68322 0.0
C307 C 0.178 0.56292 0.72148 0.0
Zn308 Zn 0.64045 0.90838 0.96896 0.0
Zn309 Zn 0.65162 0.93215 0.94334 0.0
O310 O 0.64662 0.94849 0.96602 0.0
O311 O 0.63879 0.92887 0.98782 0.0
O312 O 0.66193 0.95053 0.9254 0.0
O313 O 0.66359 0.89358 0.96639 0.0
O314 O 0.67345 0.91382 0.94603 0.0
C315 C 0.64183 0.94528 0.98263 0.0
C316 C 0.61618 0.9105 0.93737 0.0
O317 O 0.62765 0.92236 0.93129 0.0
O318 O 0.61863 0.90283 0.95287 0.0
C319 C 0.65492 0.96648 0.92339 0.0
O320 O 0.63968 0.97064 0.93229 0.0
C321 C 0.67604 0.89922 0.95552 0.0
Zn322 Zn 0.84302 0.0592 0.49277 0.0
Zn323 Zn 0.83753 0.04692 0.45897 0.0
O324 O 0.84252 0.02339 0.47437 0.0
O325 O 0.84716 0.03366 0.50255 0.0
O326 O 0.83093 0.03579 0.43459 0.0
O327 O 0.81768 0.0697 0.49411 0.0
O328 O 0.81369 0.06169 0.46509 0.0
C329 C 0.84604 0.02035 0.49132 0.0
C330 C 0.86931 0.07313 0.46574 0.0
O331 O 0.86081 0.06261 0.4545 0.0
O332 O 0.86404 0.0743 0.48238 0.0
C333 C 0.83965 0.02194 0.42831 0.0
O334 O 0.85459 0.01628 0.43689 0.0
C335 C 0.80773 0.06932 0.47978 0.0
H336 H 0.09107 0.18577 0.53112 0.0
H337 H 0.10532 0.20599 0.50819 0.0
H338 H 0.10059 0.16313 0.46718 0.0
H339 H 0.08612 0.14282 0.48998 0.0
H340 H 0.13737 0.20071 0.48671 0.0
H341 H 0.07456 0.20768 0.44316 0.0
H342 H 0.07384 0.19864 0.46637 0.0
H343 H 0.08178 0.1844 0.4477 0.0
C344 C 0.09314 0.18058 0.51726 0.0
C345 C 0.08734 0.16272 0.51234 0.0
C346 C 0.10126 0.19217 0.50418 0.0
C347 C 0.10366 0.18616 0.48594 0.0
C348 C 0.09849 0.16814 0.48111 0.0
H349 H 0.15112 0.23867 0.38927 0.0
H350 H 0.13482 0.21801 0.41046 0.0
C351 C 0.09036 0.15652 0.49419 0.0
C352 C 0.11161 0.19882 0.47204 0.0
H353 H 0.10187 0.22179 0.43203 0.0
C354 C 0.12962 0.20536 0.47477 0.0
C355 C 0.10142 0.20479 0.45648 0.0
C356 C 0.08177 0.19867 0.45325 0.0
C357 C 0.13782 0.21762 0.46225 0.0
C358 C 0.12757 0.22376 0.4468 0.0
C359 C 0.10962 0.21709 0.44395 0.0
C360 C 0.13541 0.23704 0.43344 0.0
C361 C 0.15749 0.22368 0.4655 0.0
C362 C 0.14039 0.25484 0.43917 0.0
C363 C 0.1497 0.26666 0.42713 0.0
C364 C 0.1541 0.26091 0.40912 0.0
C365 C 0.14802 0.24349 0.40307 0.0
C366 C 0.13873 0.23165 0.41515 0.0
H367 H 0.16479 0.21434 0.47523 0.0
H368 H 0.16533 0.22415 0.45233 0.0
H369 H 0.1575 0.23774 0.47154 0.0
H370 H 0.13758 0.25936 0.45313 0.0
H371 H 0.15404 0.28005 0.43218 0.0
H372 H 0.02279 0.90548 0.63616 0.0
H373 H 0.04318 0.88637 0.65516 0.0
H374 H 0.00042 0.88158 0.69632 0.0
H375 H 0.97993 0.90032 0.67741 0.0
H376 H 0.05452 0.89699 0.68971 0.0
H377 H 0.01972 0.82918 0.69379 0.0
H378 H 0.01411 0.84607 0.67633 0.0
H379 H 0.00431 0.8478 0.6991 0.0
C380 C 0.01756 0.89995 0.64903 0.0
C381 C -0.00022 0.90451 0.65533 0.0
C382 C 0.02925 0.88908 0.65988 0.0
C383 C 0.02325 0.88244 0.67706 0.0
C384 C 0.0052 0.88623 0.68294 0.0
H385 H 0.06356 0.84242 0.77942 0.0
H386 H 0.04698 0.85558 0.75318 0.0
C387 C 0.99354 0.89708 0.67215 0.0
C388 C 0.03635 0.87345 0.68988 0.0
H389 H 0.0412 0.83621 0.71827 0.0
C390 C 0.05184 0.88354 0.69571 0.0
C391 C 0.03276 0.85593 0.69768 0.0
C392 C 0.01691 0.84404 0.69126 0.0
C393 C 0.06331 0.87699 0.70986 0.0
C394 C 0.05921 0.85986 0.71821 0.0
C395 C 0.04416 0.84944 0.7119 0.0
C396 C 0.06981 0.85288 0.73415 0.0
C397 C 0.07919 0.88877 0.71639 0.0
C398 C 0.08821 0.84724 0.7321 0.0
C399 C 0.09776 0.83973 0.74708 0.0
C400 C 0.08901 0.8377 0.76431 0.0
C401 C 0.07071 0.84381 0.76637 0.0
C402 C 0.06118 0.85126 0.75139 0.0
H403 H 0.07867 0.90294 0.71054 0.0
H404 H 0.07921 0.88974 0.73169 0.0
H405 H 0.0924 0.88231 0.7121 0.0
H406 H 0.09501 0.84824 0.71882 0.0
H407 H 0.11182 0.83509 0.74503 0.0
H408 H 0.34113 0.76913 0.88599 0.0
H409 H 0.35824 0.79101 0.9052 0.0
H410 H 0.36263 0.74998 0.94812 0.0
H411 H 0.34592 0.72796 0.92897 0.0
H412 H 0.34677 0.80382 0.93889 0.0
H413 H 0.41481 0.76975 0.94579 0.0
H414 H 0.39823 0.7631 0.92841 0.0
H415 H 0.39609 0.75465 0.95169 0.0
C416 C 0.34608 0.76463 0.89936 0.0
C417 C 0.34215 0.7468 0.90595 0.0
C418 C 0.35579 0.77718 0.91033 0.0
C419 C 0.36184 0.77206 0.928 0.0
C420 C 0.35843 0.7541 0.93438 0.0
H421 H 0.40448 0.82155 0.02606 0.0
H422 H 0.38824 0.80324 0.0029 0.0
C423 C 0.34879 0.74155 0.92342 0.0
C424 C 0.37041 0.78583 0.94041 0.0
H425 H 0.40777 0.79317 0.9681 0.0
C426 C 0.36023 0.80165 0.94509 0.0
C427 C 0.38796 0.78294 0.94845 0.0
C428 C 0.39998 0.76678 0.94319 0.0
C429 C 0.36685 0.81431 0.95817 0.0
C430 C 0.38406 0.81102 0.96666 0.0
C431 C 0.39446 0.79549 0.96164 0.0
C432 C 0.39154 0.82331 0.98106 0.0
C433 C 0.3552 0.83076 0.96332 0.0
C434 C 0.39831 0.84085 0.97648 0.0
C435 C 0.40765 0.85138 0.98968 0.0
C436 C 0.41039 0.84445 0.00762 0.0
C437 C 0.40265 0.82728 0.01237 0.0
C438 C 0.39341 0.81677 -0.00084 0.0
H439 H 0.34107 0.82992 0.95741 0.0
H440 H 0.35415 0.83196 0.97856 0.0
H441 H 0.36189 0.84352 0.95809 0.0
H442 H 0.39709 0.84603 0.96251 0.0
H443 H 0.41344 0.86453 0.98558 0.0
H444 H 0.52769 0.12152 0.1779 0.0
H445 H 0.50374 0.13719 0.19551 0.0
H446 H 0.46605 0.13152 0.14978 0.0
H447 H 0.48986 0.11533 0.13214 0.0
H448 H 0.48043 0.16723 0.19181 0.0
H449 H 0.44148 0.10091 0.1902 0.0
H450 H 0.46497 0.10273 0.18217 0.0
H451 H 0.44633 0.11121 0.16818 0.0
C452 C 0.51446 0.12395 0.17138 0.0
C453 C 0.51053 0.11675 0.15379 0.0
C454 C 0.50077 0.13294 0.18148 0.0
C455 C 0.48298 0.13499 0.17414 0.0
C456 C 0.47957 0.12961 0.15586 0.0
H457 H 0.38721 0.16624 0.24242 0.0
H458 H 0.40596 0.15891 0.21519 0.0
C459 C 0.49325 0.12048 0.14575 0.0
C460 C 0.46778 0.14087 0.18644 0.0
H461 H 0.42974 0.12442 0.20902 0.0
C462 C 0.46918 0.158 0.19536 0.0
C463 C 0.45317 0.12871 0.19113 0.0
C464 C 0.45138 0.1098 0.18257 0.0
C465 C 0.45672 0.16303 0.20929 0.0
C466 C 0.44263 0.15057 0.21443 0.0
C467 C 0.44062 0.13387 0.20494 0.0
C468 C 0.43094 0.15396 0.23074 0.0
C469 C 0.459 0.18139 0.21881 0.0
C470 C 0.43872 0.15292 0.24841 0.0
C471 C 0.42808 0.15687 0.26394 0.0
C472 C 0.40946 0.16203 0.26205 0.0
C473 C 0.40152 0.16234 0.24433 0.0
C474 C 0.41219 0.15825 0.22877 0.0
H475 H 0.46777 0.19099 0.21067 0.0
H476 H 0.44536 0.18795 0.22123 0.0
H477 H 0.46565 0.17921 0.23244 0.0
H478 H 0.45314 0.14934 0.25014 0.0
H479 H 0.43464 0.15645 0.27738 0.0
H480 H 0.65509 0.26963 0.61151 0.0
H481 H 0.63571 0.28961 0.59239 0.0
H482 H 0.63178 0.24664 0.55139 0.0
H483 H 0.65077 0.22654 0.57045 0.0
H484 H 0.64667 0.30104 0.55819 0.0
H485 H 0.57933 0.26552 0.55278 0.0
H486 H 0.59598 0.25994 0.57047 0.0
H487 H 0.59815 0.2503 0.54766 0.0
C488 C 0.64965 0.26424 0.59867 0.0
C489 C 0.65458 0.24654 0.59243 0.0
C490 C 0.63863 0.2757 0.58775 0.0
C491 C 0.63223 0.26957 0.57053 0.0
C492 C 0.63626 0.25154 0.56478 0.0
H493 H 0.59292 0.30957 0.46773 0.0
H494 H 0.60713 0.29353 0.49375 0.0
C495 C 0.64724 0.24009 0.57567 0.0
C496 C 0.62335 0.28257 0.55752 0.0
H497 H 0.58663 0.28705 0.52841 0.0
C498 C 0.63337 0.29821 0.55192 0.0
C499 C 0.60603 0.2788 0.54936 0.0
C500 C 0.59418 0.26282 0.55552 0.0
C501 C 0.62695 0.30965 0.53768 0.0
C502 C 0.61006 0.30535 0.52898 0.0
C503 C 0.59969 0.29015 0.53504 0.0
C504 C 0.60318 0.31596 0.51301 0.0
C505 C 0.63859 0.32576 0.53146 0.0
C506 C 0.59667 0.33404 0.51522 0.0
C507 C 0.58854 0.34328 0.50036 0.0
C508 C 0.58676 0.33453 0.48312 0.0
C509 C 0.59406 0.3167 0.48081 0.0
C510 C 0.60212 0.30748 0.49567 0.0
H511 H 0.65256 0.3256 0.5378 0.0
H512 H 0.64009 0.32569 0.51621 0.0
H513 H 0.63166 0.33883 0.53541 0.0
H514 H 0.59727 0.34072 0.52857 0.0
H515 H 0.58301 0.35698 0.5026 0.0
H516 H 0.88572 0.34051 0.76051 0.0
H517 H 0.90578 0.35566 0.78311 0.0
H518 H 0.95021 0.35612 0.74348 0.0
H519 H 0.9303 0.34129 0.72078 0.0
H520 H 0.93913 0.34179 0.79695 0.0
H521 H 0.9496 0.40914 0.76226 0.0
H522 H 0.93129 0.39348 0.75587 0.0
H523 H 0.95437 0.3899 0.74744 0.0
C524 C 0.89967 0.34411 0.75651 0.0
C525 C 0.90641 0.33974 0.73884 0.0
C526 C 0.91111 0.35269 0.76946 0.0
C527 C 0.92939 0.35714 0.76488 0.0
C528 C 0.93603 0.35309 0.74716 0.0
H529 H 0.02806 0.39788 0.81347 0.0
H530 H 0.00479 0.38068 0.79624 0.0
C531 C 0.92464 0.34455 0.73423 0.0
C532 C 0.94191 0.3652 0.7788 0.0
H533 H 0.97107 0.40138 0.78612 0.0
C534 C 0.94596 0.35493 0.79476 0.0
C535 C 0.9507 0.38236 0.77586 0.0
C536 C 0.94614 0.39445 0.75952 0.0
C537 C 0.95921 0.36108 0.80749 0.0
C538 C 0.96849 0.37786 0.80412 0.0
C539 C 0.96403 0.38837 0.78849 0.0
C540 C 0.98316 0.38485 0.81637 0.0
C541 C 0.9637 0.34938 0.82411 0.0
C542 C 0.97879 0.39224 0.8337 0.0
C543 C 0.99207 0.40211 0.84363 0.0
C544 C 0.00982 0.40482 0.83622 0.0
C545 C 0.01448 0.39616 0.81949 0.0
C546 C 0.00122 0.38634 0.80961 0.0
H547 H 0.95709 0.33556 0.82341 0.0
H548 H 0.97887 0.34759 0.82539 0.0
H549 H 0.95878 0.35646 0.83677 0.0
H550 H 0.96484 0.39134 0.83902 0.0
H551 H 0.98805 0.40861 0.85647 0.0
H552 H 0.83981 0.73688 0.1111 0.0
H553 H 0.85711 0.7136 0.09379 0.0
H554 H 0.86562 0.75265 0.04965 0.0
H555 H 0.84867 0.77601 0.06687 0.0
H556 H 0.84626 0.70041 0.05967 0.0
H557 H 0.91655 0.73006 0.0554 0.0
H558 H 0.89965 0.73801 0.07191 0.0
H559 H 0.89914 0.74623 0.04846 0.0
C560 C 0.84575 0.74065 0.0979 0.0
C561 C 0.84281 0.75827 0.09032 0.0
C562 C 0.85556 0.72731 0.08802 0.0
C563 C 0.86274 0.73146 0.07052 0.0
C564 C 0.86049 0.74926 0.06328 0.0
H565 H 0.90562 0.6804 0.97431 0.0
H566 H 0.88988 0.69917 0.99742 0.0
C567 C 0.8507 0.76258 0.07312 0.0
C568 C 0.87106 0.71685 0.05898 0.0
H569 H 0.90886 0.70707 0.03272 0.0
C570 C 0.86007 0.70166 0.05401 0.0
C571 C 0.88906 0.71856 0.05165 0.0
C572 C 0.90185 0.734 0.05728 0.0
C573 C 0.86631 0.68859 0.04116 0.0
C574 C 0.88397 0.69081 0.03324 0.0
C575 C 0.89521 0.70559 0.03871 0.0
C576 C 0.89096 0.67834 0.01876 0.0
C577 C 0.85378 0.67296 0.03553 0.0
C578 C 0.89624 0.66023 0.02304 0.0
C579 C 0.90525 0.64942 0.00985 0.0
C580 C 0.90919 0.65666 0.99226 0.0
C581 C 0.90287 0.67444 0.98774 0.0
C582 C 0.89392 0.68521 0.00093 0.0
H583 H 0.83957 0.67465 0.04104 0.0
H584 H 0.85308 0.67195 0.02025 0.0
H585 H 0.85947 0.65976 0.04081 0.0
H586 H 0.89417 0.65479 0.03682 0.0
H587 H 0.90996 0.63579 0.01377 0.0
H588 H 0.60645 0.66445 0.25713 0.0
H589 H 0.59047 0.64618 0.28065 0.0
H590 H 0.5465 0.63494 0.24212 0.0
H591 H 0.56243 0.65284 0.21851 0.0
H592 H 0.55614 0.65485 0.29431 0.0
H593 H 0.55531 0.5845 0.2647 0.0
H594 H 0.57068 0.60231 0.25644 0.0
H595 H 0.5471 0.60145 0.24864 0.0
C596 C 0.59359 0.65773 0.25353 0.0
C597 C 0.58568 0.66014 0.23597 0.0
C598 C 0.58447 0.64735 0.26701 0.0
C599 C 0.5674 0.63907 0.26307 0.0
C600 C 0.55984 0.64088 0.24534 0.0
H601 H 0.47349 0.59298 0.3156 0.0
H602 H 0.49647 0.60792 0.29601 0.0
C603 C 0.56893 0.65123 0.23188 0.0
C604 C 0.55655 0.63009 0.27785 0.0
H605 H 0.5325 0.59091 0.28801 0.0
C606 C 0.55123 0.64075 0.29314 0.0
C607 C 0.5502 0.61172 0.27626 0.0
C608 C 0.55627 0.59927 0.26071 0.0
C609 C 0.53892 0.63381 0.30639 0.0
C610 C 0.53194 0.61575 0.30431 0.0
C611 C 0.5378 0.60484 0.28943 0.0
C612 C 0.51782 0.60814 0.31687 0.0
C613 C 0.53281 0.64607 0.32208 0.0
C614 C 0.52219 0.60363 0.33517 0.0
C615 C 0.50907 0.59506 0.34646 0.0
C616 C 0.49141 0.59085 0.33954 0.0
C617 C 0.48694 0.596 0.32136 0.0
C618 C 0.50006 0.60449 0.31012 0.0
H619 H 0.53744 0.66057 0.32022 0.0
H620 H 0.51754 0.64586 0.32336 0.0
H621 H 0.53867 0.64079 0.33521 0.0
H622 H 0.53591 0.60622 0.34054 0.0
H623 H 0.51296 0.59123 0.36037 0.0
H624 H 0.23539 0.3919 0.16012 0.0
H625 H 0.21527 0.40927 0.13932 0.0
H626 H 0.25724 0.45112 0.13357 0.0
H627 H 0.27751 0.43378 0.15404 0.0
H628 H 0.20286 0.44385 0.14801 0.0
H629 H 0.23927 0.44575 0.08088 0.0
H630 H 0.24497 0.42933 0.09875 0.0
H631 H 0.25389 0.4525 0.09968 0.0
C632 C 0.24054 0.40455 0.15403 0.0
C633 C 0.25801 0.41153 0.15885 0.0
C634 C 0.229 0.41447 0.14219 0.0
C635 C 0.23479 0.43142 0.13483 0.0
C636 C 0.2526 0.4379 0.13881 0.0
H637 H 0.18999 0.52876 0.08606 0.0
H638 H 0.20799 0.50481 0.1015 0.0
C639 C 0.26415 0.428 0.15062 0.0
C640 C 0.22158 0.44343 0.1249 0.0
H641 H 0.21632 0.46923 0.08585 0.0
C642 C 0.20562 0.44916 0.13428 0.0
C643 C 0.22527 0.45038 0.10704 0.0
C644 C 0.2417 0.44403 0.09593 0.0
C645 C 0.19366 0.46231 0.12661 0.0
C646 C 0.19771 0.46972 0.10904 0.0
C647 C 0.21336 0.46358 0.09941 0.0
C648 C 0.18626 0.48435 0.10064 0.0
C649 C 0.17722 0.46874 0.13766 0.0
C650 C 0.16801 0.48079 0.09526 0.0
C651 C 0.15763 0.49447 0.08647 0.0
C652 C 0.1654 0.5119 0.08285 0.0
C653 C 0.18357 0.51551 0.08866 0.0
C654 C 0.19392 0.50183 0.09741 0.0
H655 H 0.17805 0.46434 0.15233 0.0
H656 H 0.17603 0.48401 0.13716 0.0
H657 H 0.16444 0.46283 0.13162 0.0
H658 H 0.16195 0.4673 0.09746 0.0
H659 H 0.14371 0.49122 0.08209 0.0
H660 H 0.6446 0.0023 0.91698 0.0
H661 H 0.66269 0.0264 0.90155 0.0
H662 H 0.70606 0.98714 0.89078 0.0
H663 H 0.6882 0.963 0.90609 0.0
H664 H 0.71664 0.02256 0.90884 0.0
H665 H 0.675 0.03057 0.84462 0.0
H666 H 0.66305 0.03049 0.86642 0.0
H667 H 0.67411 0.00985 0.85846 0.0
C668 C 0.6579 0.99874 0.91115 0.0
C669 C 0.66496 0.98073 0.91276 0.0
C670 C 0.66818 0.01252 0.90235 0.0
C671 C 0.68564 0.00847 0.89505 0.0
C672 C 0.69259 0.99048 0.89637 0.0
H673 H 0.77757 0.05475 0.83955 0.0
H674 H 0.75637 0.03819 0.85976 0.0
C675 C 0.68233 0.97671 0.90507 0.0
C676 C 0.69707 0.02301 0.88648 0.0
H677 H 0.70183 0.04859 0.84726 0.0
C678 C 0.71336 0.02841 0.89545 0.0
C679 C 0.69258 0.03069 0.86914 0.0
C680 C 0.67529 0.02512 0.85895 0.0
C681 C 0.72557 0.04102 0.88729 0.0
C682 C 0.72155 0.04803 0.86952 0.0
C683 C 0.70488 0.04317 0.86088 0.0
C684 C 0.73508 0.05913 0.85895 0.0
C685 C 0.7427 0.04661 0.89773 0.0
C686 C 0.73013 0.07639 0.8517 0.0
C687 C 0.7422 0.08586 0.83998 0.0
C688 C 0.75936 0.07813 0.8352 0.0
C689 C 0.7645 0.06112 0.84299 0.0
C690 C 0.75243 0.05168 0.85466 0.0
H691 H 0.74068 0.04525 0.91287 0.0
H692 H 0.75426 0.03741 0.89373 0.0
H693 H 0.7467 0.06107 0.89456 0.0
H694 H 0.71676 0.08232 0.85477 0.0
H695 H 0.73781 0.09892 0.8342 0.0
H696 H 0.75884 0.8919 0.33697 0.0
H697 H 0.77916 0.91075 0.35626 0.0
H698 H 0.73938 0.95499 0.35502 0.0
H699 H 0.71889 0.93623 0.33601 0.0
H700 H 0.79399 0.9444 0.34523 0.0
H701 H 0.75322 0.95243 0.40946 0.0
H702 H 0.74821 0.93484 0.39254 0.0
H703 H 0.74042 0.95815 0.38904 0.0
C704 C 0.75423 0.90549 0.34113 0.0
C705 C 0.73726 0.91259 0.33492 0.0
C706 C 0.7659 0.91625 0.35209 0.0
C707 C 0.76071 0.93419 0.35714 0.0
C708 C 0.7435 0.94105 0.35154 0.0
H709 H 0.80836 0.02927 0.40864 0.0
H710 H 0.79069 0.00764 0.38981 0.0
C711 C 0.73183 0.93032 0.34061 0.0
C712 C 0.77382 0.94632 0.36701 0.0
H713 H 0.77826 0.97348 0.40516 0.0
C714 C 0.79068 0.95061 0.35844 0.0
C715 C 0.7694 0.95438 0.3842 0.0
C716 C 0.75191 0.94959 0.39445 0.0
C717 C 0.803 0.9633 0.36636 0.0
C718 C 0.79834 0.9717 0.38331 0.0
C719 C 0.78167 0.96711 0.39205 0.0
C720 C 0.81044 0.98541 0.39232 0.0
C721 C 0.82061 0.96805 0.3563 0.0
C722 C 0.82763 0.98018 0.39949 0.0
C723 C 0.83782 0.99253 0.41025 0.0
C724 C 0.83085 0.01023 0.41411 0.0
C725 C 0.81409 0.01572 0.40601 0.0
C726 C 0.80394 0.00338 0.39528 0.0
H727 H 0.82033 0.96335 0.34171 0.0
H728 H 0.82309 0.98318 0.35657 0.0
H729 H 0.8324 0.96124 0.3633 0.0
H730 H 0.83276 0.96628 0.39752 0.0
H731 H 0.85066 0.98786 0.41632 0.0
H732 H 0.26507 0.60454 0.66466 0.0
H733 H 0.28792 0.58633 0.64773 0.0
H734 H 0.24698 0.5444 0.63737 0.0
H735 H 0.22406 0.56239 0.65427 0.0
H736 H 0.28057 0.53237 0.65575 0.0
H737 H 0.294 0.57305 0.59191 0.0
H738 H 0.29422 0.58544 0.61343 0.0
H739 H 0.27305 0.57558 0.6052 0.0
C740 C 0.2608 0.59166 0.6584 0.0
C741 C 0.24279 0.58484 0.66094 0.0
C742 C 0.27388 0.58129 0.64873 0.0
C743 C 0.26909 0.56405 0.64137 0.0
C744 C 0.2509 0.55768 0.64301 0.0
H745 H 0.3187 0.47109 0.58917 0.0
H746 H 0.30016 0.49216 0.60771 0.0
C747 C 0.23782 0.56801 0.65263 0.0
C748 C 0.28333 0.55184 0.63345 0.0
H749 H 0.31204 0.54638 0.59657 0.0
C750 C 0.28751 0.53543 0.64283 0.0
C751 C 0.29246 0.55605 0.61676 0.0
C752 C 0.2882 0.57342 0.6061 0.0
C753 C 0.30046 0.52291 0.63581 0.0
C754 C 0.30916 0.5268 0.61878 0.0
C755 C 0.30534 0.54347 0.60965 0.0
C756 C 0.32127 0.51324 0.60953 0.0
C757 C 0.30475 0.50569 0.6467 0.0
C758 C 0.33934 0.51805 0.60451 0.0
C759 C 0.34997 0.50605 0.5938 0.0
C760 C 0.34262 0.48911 0.58782 0.0
C761 C 0.3248 0.48401 0.59358 0.0
C762 C 0.31419 0.49601 0.60426 0.0
H763 H 0.30165 0.50756 0.66161 0.0
H764 H 0.29606 0.49418 0.64154 0.0
H765 H 0.31946 0.50168 0.64519 0.0
H766 H 0.34501 0.53132 0.60842 0.0
H767 H 0.36364 0.51041 0.58959 0.0
H768 H 0.33247 0.39684 0.49641 0.0
H769 H 0.30676 0.37627 0.49 0.0
H770 H 0.27348 0.4046 0.53039 0.0
H771 H 0.29947 0.42553 0.53702 0.0
H772 H 0.28446 0.3528 0.51563 0.0
H773 H 0.24521 0.40814 0.47914 0.0
H774 H 0.26968 0.41059 0.48319 0.0
H775 H 0.25386 0.41192 0.50217 0.0
C776 C 0.31976 0.3987 0.50407 0.0
C777 C 0.31795 0.41296 0.51709 0.0
C778 C 0.30511 0.38683 0.50046 0.0
C779 C 0.28824 0.38898 0.50966 0.0
C780 C 0.28642 0.4028 0.52311 0.0
H781 H 0.20426 0.33033 0.44452 0.0
H782 H 0.21465 0.34628 0.47265 0.0
C783 C 0.30125 0.41469 0.52689 0.0
C784 C 0.27255 0.37732 0.50379 0.0
H785 H 0.23817 0.37746 0.47165 0.0
C786 C 0.27388 0.3582 0.50651 0.0
C787 C 0.25866 0.38441 0.49206 0.0
C788 C 0.25662 0.40488 0.48886 0.0
C789 C 0.26289 0.34591 0.49638 0.0
C790 C 0.25056 0.35297 0.48301 0.0
C791 C 0.24775 0.37209 0.48183 0.0
C792 C 0.24368 0.3413 0.46772 0.0
C793 C 0.26548 0.32546 0.49913 0.0
C794 C 0.25655 0.33327 0.45569 0.0
C795 C 0.25073 0.32446 0.43964 0.0
C796 C 0.23188 0.32343 0.43524 0.0
C797 C 0.21888 0.33086 0.44762 0.0
C798 C 0.22477 0.33994 0.46366 0.0
H799 H 0.26964 0.32235 0.51356 0.0
H800 H 0.25267 0.31771 0.49585 0.0
H801 H 0.27666 0.32052 0.4899 0.0
H802 H 0.27122 0.33452 0.45831 0.0
H803 H 0.26108 0.31883 0.43043 0.0
H804 H 0.94215 0.00474 0.6949 0.0
H805 H 0.92632 0.01008 0.724 0.0
H806 H 0.91306 0.95217 0.72781 0.0
H807 H 0.92925 0.94665 0.69844 0.0
H808 H 0.88246 0.97581 0.7291 0.0
H809 H 0.93471 -0.00045 0.77884 0.0
H810 H 0.93841 0.01016 0.75678 0.0
H811 H 0.94047 0.98547 0.75904 0.0
C812 C 0.93627 0.99304 0.70213 0.0
C813 C 0.93683 0.9753 0.69437 0.0
C814 C 0.92738 0.99607 0.71889 0.0
C815 C 0.91875 0.98148 0.72825 0.0
C816 C 0.91988 0.96356 0.72094 0.0
H817 H 0.82805 0.03212 0.79145 0.0
H818 H 0.8493 0.00596 0.787 0.0
C819 C 0.9291 0.96044 0.70419 0.0
C820 C 0.90621 0.98595 0.74376 0.0
H821 H 0.90449 0.01533 0.78042 0.0
C822 C 0.88719 0.9838 0.74084 0.0
C823 C 0.91242 0.99614 0.75918 0.0
C824 C 0.93265 0.99778 0.76374 0.0
C825 C 0.87431 0.99377 0.75133 0.0
C826 C 0.88074 0.00596 0.76518 0.0
C827 C 0.89959 0.00612 0.76968 0.0
C828 C 0.86926 0.02172 0.77129 0.0
C829 C 0.85416 0.99286 0.7461 0.0
C830 C 0.87385 0.03929 0.76463 0.0
C831 C 0.86185 0.05405 0.76707 0.0
C832 C 0.845 0.05163 0.77634 0.0
C833 C 0.84093 0.03434 0.78419 0.0
C834 C 0.85299 0.0194 0.7816 0.0
H835 H 0.85157 0.98312 0.73454 0.0
H836 H 0.84591 0.98833 0.75817 0.0
H837 H 0.84919 0.00676 0.74196 0.0
H838 H 0.88631 0.04139 0.75662 0.0
H839 H 0.8655 0.06726 0.76107 0.0
H840 H 0.26146 0.64541 0.91958 0.0
H841 H 0.2561 0.62823 0.94779 0.0
H842 H 0.29914 0.65898 0.97515 0.0
H843 H 0.30434 0.67681 0.94675 0.0
H844 H 0.27708 0.60642 0.97123 0.0
H845 H 0.25383 0.67096 0.00623 0.0
H846 H 0.2581 0.67056 0.98172 0.0
H847 H 0.27707 0.66958 0.99764 0.0
C848 C 0.26997 0.64847 0.93149 0.0
C849 C 0.2831 0.66274 0.93099 0.0
C850 C 0.26698 0.6385 0.94762 0.0
C851 C 0.27703 0.64247 0.96368 0.0
C852 C 0.29101 0.6559 0.963 0.0
H853 H 0.21119 0.5751 0.041 0.0
H854 H 0.24121 0.58894 0.0329 0.0
C855 C 0.29402 0.66601 0.94674 0.0
C856 C 0.271 0.63371 0.98117 0.0
H857 H 0.24215 0.64311 0.01715 0.0
C858 C 0.26999 0.61436 0.98175 0.0
C859 C 0.26197 0.64414 0.995 0.0
C860 C 0.26267 0.66496 0.99524 0.0
C861 C 0.25812 0.60532 0.99413 0.0
C862 C 0.24732 0.61596 0.0064 0.0
C863 C 0.25039 0.63505 0.0076 0.0
C864 C 0.22965 0.60872 0.01372 0.0
C865 C 0.2556 0.58472 0.99249 0.0
C866 C 0.21328 0.61563 0.00608 0.0
C867 C 0.19634 0.60787 0.01063 0.0
C868 C 0.19529 0.59297 0.02298 0.0
C869 C 0.2116 0.58653 0.03137 0.0
C870 C 0.22873 0.59435 0.02672 0.0
H871 H 0.26484 0.57855 0.98192 0.0
H872 H 0.25856 0.57808 0.00597 0.0
H873 H 0.24109 0.5815 0.98876 0.0
H874 H 0.21365 0.62667 0.99598 0.0
H875 H 0.18408 0.61334 0.00406 0.0
H876 H 0.57395 0.05832 0.20625 0.0
H877 H 0.59235 0.04234 0.22991 0.0
H878 H 0.59921 0.99598 0.19331 0.0
H879 H 0.58093 0.01163 0.16977 0.0
H880 H 0.58403 0.99691 0.24042 0.0
H881 H 0.65292 0.02059 0.21588 0.0
H882 H 0.63242 0.0347 0.21389 0.0
H883 H 0.63566 0.01544 0.1987 0.0
C884 C 0.5794 0.04471 0.20327 0.0
C885 C 0.57595 0.03618 0.18616 0.0
C886 C 0.58985 0.03565 0.21678 0.0
C887 C 0.59707 0.01807 0.21324 0.0
C888 C 0.5937 0.00958 0.19622 0.0
H889 H 0.64273 0.92076 0.24622 0.0
H890 H 0.62337 0.94712 0.23856 0.0
C891 C 0.58321 0.01853 0.1828 0.0
C892 C 0.60813 0.00815 0.22715 0.0
H893 H 0.65229 0.99418 0.23533 0.0
C894 C 0.59899 0.99663 0.23972 0.0
C895 C 0.62758 0.00798 0.22622 0.0
C896 C 0.63785 0.02039 0.21304 0.0
C897 C 0.60883 0.9839 0.25049 0.0
C898 C 0.6282 0.98261 0.24839 0.0
C899 C 0.63743 0.99519 0.23691 0.0
C900 C 0.63863 0.96652 0.25536 0.0
C901 C 0.59838 0.97131 0.26335 0.0
C902 C 0.65367 0.96869 0.2674 0.0
C903 C 0.66479 0.95353 0.27191 0.0
C904 C 0.66123 0.93613 0.26407 0.0
C905 C 0.64587 0.93399 0.25242 0.0
C906 C 0.63469 0.94902 0.24815 0.0
H907 H 0.58522 0.97772 0.26793 0.0
H908 H 0.59496 0.95832 0.256 0.0
H909 H 0.60676 0.9678 0.2757 0.0
H910 H 0.65704 0.98217 0.27292 0.0
H911 H 0.6766 0.95557 0.28086 0.0
H912 H 0.75505 0.17886 0.55502 0.0
H913 H 0.75745 0.16039 0.52726 0.0
H914 H 0.69826 0.16164 0.52079 0.0
H915 H 0.69568 0.18028 0.54906 0.0
H916 H 0.71174 0.12683 0.51888 0.0
H917 H 0.75342 0.16983 0.47268 0.0
H918 H 0.76375 0.17063 0.49511 0.0
H919 H 0.7407 0.17951 0.49185 0.0
C920 C 0.7425 0.17549 0.54761 0.0
C921 C 0.72516 0.18097 0.55432 0.0
C922 C 0.74392 0.16511 0.53154 0.0
C923 C 0.72807 0.15999 0.52165 0.0
C924 C 0.71068 0.16571 0.52805 0.0
H925 H 0.78825 0.08533 0.45134 0.0
H926 H 0.76102 0.10541 0.45446 0.0
C927 C 0.70924 0.17629 0.5442 0.0
C928 C 0.73009 0.14663 0.5063 0.0
H929 H 0.76207 0.13637 0.47348 0.0
C930 C 0.7222 0.12907 0.5084 0.0
C931 C 0.74312 0.14957 0.49206 0.0
C932 C 0.75052 0.16851 0.48768 0.0
C933 C 0.72926 0.11385 0.49874 0.0
C934 C 0.74483 0.11631 0.48719 0.0
C935 C 0.75051 0.1343 0.48277 0.0
C936 C 0.75811 0.10108 0.48389 0.0
C937 C 0.72103 0.09507 0.50223 0.0
C938 C 0.7653 0.09177 0.49928 0.0
C939 C 0.78077 0.08057 0.49756 0.0
C940 C 0.78953 0.07843 0.48042 0.0
C941 C 0.78171 0.08672 0.46471 0.0
C942 C 0.76617 0.09816 0.46647 0.0
H943 H 0.70577 0.09606 0.50339 0.0
H944 H 0.72456 0.08516 0.49109 0.0
H945 H 0.72626 0.08963 0.51557 0.0
H946 H 0.75979 0.09417 0.51297 0.0
H947 H 0.78642 0.07427 0.5099 0.0
H948 H 0.16725 0.54336 0.75136 0.0
H949 H 0.1501 0.5147 0.75224 0.0
H950 H 0.15075 0.51202 0.69274 0.0
H951 H 0.16822 0.54121 0.69175 0.0
H952 H 0.11584 0.50805 0.70728 0.0
H953 H 0.16166 0.46072 0.74425 0.0
H954 H 0.16285 0.48267 0.75553 0.0
H955 H 0.17036 0.48059 0.73185 0.0
C956 C 0.16403 0.53662 0.73841 0.0
C957 C 0.16899 0.54462 0.72148 0.0
C958 C 0.15442 0.52003 0.73894 0.0
C959 C 0.14952 0.51094 0.72257 0.0
C960 C 0.1547 0.51865 0.70554 0.0
H961 H 0.08028 0.44062 0.78675 0.0
H962 H 0.09761 0.44303 0.75762 0.0
C963 C 0.1646 0.53531 0.705 0.0
C964 C 0.13679 0.495 0.72391 0.0
H965 H 0.12874 0.46111 0.75536 0.0
C966 C 0.11878 0.49719 0.71715 0.0
C967 C 0.14061 0.48023 0.73608 0.0
C968 C 0.16002 0.47582 0.74212 0.0
C969 C 0.10406 0.48727 0.72493 0.0
C970 C 0.10755 0.47541 0.74006 0.0
C971 C 0.12588 0.47069 0.74422 0.0
C972 C 0.09348 0.47248 0.75467 0.0
C973 C 0.08476 0.49097 0.71813 0.0
C974 C 0.08515 0.48811 0.76253 0.0
C975 C 0.07552 0.48679 0.77907 0.0
C976 C 0.07402 0.46982 0.78827 0.0
C977 C 0.08123 0.45387 0.7799 0.0
C978 C 0.09108 0.45523 0.76326 0.0
H979 H 0.08466 0.49208 0.70283 0.0
H980 H 0.07499 0.47995 0.72241 0.0
H981 H 0.0799 0.50439 0.72368 0.0
H982 H 0.08723 0.50169 0.75663 0.0
H983 H 0.07 0.4993 0.78511 0.0
H984 H 0.70921 0.91127 0.94132 0.0
H985 H 0.7397 0.89768 0.9471 0.0
H986 H 0.71377 0.85256 0.97615 0.0
H987 H 0.68371 0.86554 0.96993 0.0
H988 H 0.75382 0.89556 0.97913 0.0
H989 H 0.75475 0.82464 0.95432 0.0
H990 H 0.73822 0.84111 0.94553 0.0
H991 H 0.73296 0.82719 0.9656 0.0
C992 C 0.71005 0.8981 0.94835 0.0
C993 C 0.69406 0.8896 0.95539 0.0
C994 C 0.72748 0.89034 0.95164 0.0
C995 C 0.72914 0.87392 0.96186 0.0
C996 C 0.71302 0.86488 0.96772 0.0
H997 H 0.76055 0.85342 0.06022 0.0
H998 H 0.75603 0.86656 0.02988 0.0
C999 C 0.69573 0.87253 0.96441 0.0
C1000 C 0.74712 0.86804 0.96983 0.0
H1001 H 0.76602 0.82877 0.98745 0.0
C1002 C 0.75702 0.88099 0.98032 0.0
C1003 C 0.75212 0.84919 0.97097 0.0
C1004 C 0.74403 0.83485 0.95826 0.0
C1005 C 0.76936 0.87526 0.99408 0.0
C1006 C 0.77133 0.8562 0.99773 0.0
C1007 C 0.76398 0.84342 0.98517 0.0
C1008 C 0.77657 0.84953 0.01637 0.0
C1009 C 0.77887 0.88971 0.00565 0.0
C1010 C 0.78943 0.83525 0.01898 0.0
C1011 C 0.79195 0.82747 0.03655 0.0
C1012 C 0.78136 0.83367 0.05162 0.0
C1013 C 0.7689 0.84826 0.04895 0.0
C1014 C 0.76649 0.85601 0.03157 0.0
H1015 H 0.78301 0.90165 0.99696 0.0
H1016 H 0.76913 0.89493 0.01626 0.0
H1017 H 0.79131 0.8841 0.01264 0.0
H1018 H 0.79715 0.82984 0.00737 0.0
H1019 H 0.80162 0.8162 0.0382 0.0
H1020 H 0.35139 0.43246 0.2462 0.0
H1021 H 0.37117 0.45916 0.2502 0.0
H1022 H 0.34119 0.48819 0.20771 0.0
H1023 H 0.3209 0.46118 0.20372 0.0
H1024 H 0.39397 0.48119 0.22689 0.0
H1025 H 0.33323 0.51962 0.25462 0.0
H1026 H 0.33183 0.49508 0.25079 0.0
H1027 H 0.33273 0.51058 0.23148 0.0
C1028 C 0.34908 0.4444 0.23749 0.0
C1029 C 0.33436 0.44485 0.22489 0.0
C1030 C 0.36053 0.45963 0.23968 0.0
C1031 C 0.35755 0.47574 0.22939 0.0
C1032 C 0.3436 0.47594 0.21591 0.0
H1033 H 0.42886 0.54908 0.29595 0.0
H1034 H 0.41425 0.54236 0.26594 0.0
C1035 C 0.33208 0.46051 0.21362 0.0
C1036 C 0.36774 0.49255 0.23499 0.0
H1037 H 0.3623 0.52717 0.26635 0.0
C1038 C 0.38713 0.49186 0.23485 0.0
C1039 C 0.35876 0.50653 0.24524 0.0
C1040 C 0.338 0.50814 0.24565 0.0
C1041 C 0.39758 0.50302 0.24675 0.0
C1042 C 0.38835 0.51514 0.25889 0.0
C1043 C 0.36926 0.51774 0.25704 0.0
C1044 C 0.39692 0.5205 0.2766 0.0
C1045 C 0.41815 0.50012 0.248 0.0
C1046 C 0.39191 0.5105 0.29237 0.0
C1047 C 0.40016 0.51417 0.30928 0.0
C1048 C 0.41365 0.52802 0.3109 0.0
C1049 C 0.41852 0.53831 0.29512 0.0
C1050 C 0.41023 0.53452 0.27801 0.0
H1051 H 0.42343 0.49131 0.23662 0.0
H1052 H 0.42539 0.51361 0.24756 0.0
H1053 H 0.42157 0.49343 0.26136 0.0
H1054 H 0.38173 0.49956 0.29151 0.0
H1055 H 0.39597 0.50602 0.32109 0.0
H1056 H 0.55192 0.28213 0.42038 0.0
H1057 H 0.54662 0.25096 0.40807 0.0
H1058 H 0.50848 0.27348 0.36821 0.0
H1059 H 0.51404 0.30419 0.37993 0.0
H1060 H 0.51554 0.23336 0.41016 0.0
H1061 H 0.53161 0.23558 0.33666 0.0
H1062 H 0.54074 0.25263 0.35242 0.0
H1063 H 0.51867 0.25607 0.34128 0.0
C1064 C 0.54288 0.28041 0.40859 0.0
C1065 C 0.53327 0.29558 0.40122 0.0
C1066 C 0.53986 0.26261 0.40158 0.0
C1067 C 0.52739 0.25983 0.38696 0.0
C1068 C 0.51863 0.27518 0.37905 0.0
H1069 H 0.43124 0.21638 0.37735 0.0
H1070 H 0.46193 0.22294 0.38858 0.0
C1071 C 0.52161 0.29281 0.38599 0.0
C1072 C 0.52074 0.24112 0.38186 0.0
H1073 H 0.50101 0.22055 0.34455 0.0
C1074 C 0.51298 0.23009 0.39578 0.0
C1075 C 0.51801 0.23609 0.36319 0.0
C1076 C 0.52795 0.24566 0.34762 0.0
C1077 C 0.50016 0.21623 0.39147 0.0
C1078 C 0.49455 0.21391 0.3729 0.0
C1079 C 0.50467 0.22273 0.3589 0.0
C1080 C 0.47609 0.2063 0.36812 0.0
C1081 C 0.49179 0.20518 0.407 0.0
C1082 C 0.47355 0.19473 0.35275 0.0
C1083 C 0.45575 0.19124 0.34597 0.0
C1084 C 0.44026 0.19938 0.3544 0.0
C1085 C 0.44283 0.20993 0.37045 0.0
C1086 C 0.46049 0.21348 0.37711 0.0
H1087 H 0.50256 0.20153 0.41729 0.0
H1088 H 0.48132 0.21369 0.41425 0.0
H1089 H 0.48518 0.19231 0.40196 0.0
H1090 H 0.48535 0.18916 0.34546 0.0
H1091 H 0.45423 0.18303 0.33357 0.0
H1092 H 0.01195 0.17184 0.61764 0.0
H1093 H 0.00114 0.20065 0.63072 0.0
H1094 H 0.03439 0.2312 0.59187 0.0
H1095 H 0.04512 0.20202 0.57822 0.0
H1096 H 0.01767 0.23151 0.6464 0.0
H1097 H 0.98192 0.24858 0.58033 0.0
H1098 H 0.99184 0.2261 0.58417 0.0
H1099 H 0.00657 0.24563 0.58017 0.0
C1100 C 0.01717 0.18463 0.61191 0.0
C1101 C 0.02915 0.18463 0.59666 0.0
C1102 C 0.01106 0.20114 0.61953 0.0
C1103 C 0.01675 0.21808 0.61213 0.0
C1104 C 0.02961 0.21825 0.59761 0.0
H1105 H 0.94546 0.29786 0.67157 0.0
H1106 H 0.9747 0.28901 0.65677 0.0
C1107 C 0.03579 0.20159 0.58989 0.0
C1108 C 0.00743 0.23503 0.61876 0.0
H1109 H 0.97109 0.26261 0.60714 0.0
C1110 C 0.00788 0.23883 0.63776 0.0
C1111 C 0.99474 0.24459 0.60739 0.0
C1112 C 0.99358 0.24108 0.58688 0.0
C1113 C 0.99461 0.25028 0.64602 0.0
C1114 C 0.98079 0.25835 0.63486 0.0
C1115 C 0.98169 0.25629 0.61562 0.0
C1116 C 0.96328 0.26513 0.64293 0.0
C1117 C 0.99432 0.25211 0.66677 0.0
C1118 C 0.94717 0.25489 0.63973 0.0
C1119 C 0.9306 0.25989 0.64803 0.0
C1120 C 0.92968 0.27529 0.65977 0.0
C1121 C 0.94574 0.28586 0.66267 0.0
C1122 C 0.96245 0.28081 0.65428 0.0
H1123 H 0.00537 0.2439 0.6735 0.0
H1124 H 0.99621 0.2668 0.67062 0.0
H1125 H 0.98076 0.24752 0.67228 0.0
H1126 H 0.94752 0.24269 0.63109 0.0
H1127 H 0.91854 0.25145 0.64538 0.0
H1128 H -0.00071 0.6827 0.90312 0.0
H1129 H 0.00404 0.71223 0.88823 0.0
H1130 H 0.95554 0.73401 0.91502 0.0
H1131 H 0.95075 0.7041 0.9305 0.0
H1132 H 0.98118 0.73344 0.86478 0.0
H1133 H 0.99731 0.76964 0.93076 0.0
H1134 H 0.99628 0.74478 0.92991 0.0
H1135 H 0.97549 0.75806 0.92793 0.0
C1136 C 0.98951 0.69366 0.90588 0.0
C1137 C 0.97475 0.69107 0.9182 0.0
C1138 C 0.99219 0.71055 0.89721 0.0
C1139 C 0.98022 0.72536 0.90058 0.0
C1140 C 0.96504 0.72279 0.91238 0.0
H1141 H 0.04279 0.80471 0.83428 0.0
H1142 H 0.01294 0.79622 0.84803 0.0
C1143 C 0.9623 0.70571 0.92114 0.0
C1144 C 0.98501 0.74349 0.89241 0.0
H1145 H 0.01028 0.78152 0.90372 0.0
C1146 C 0.98698 0.74441 0.87316 0.0
C1147 C 0.9923 0.75783 0.90344 0.0
C1148 C 0.99033 0.75768 0.92417 0.0
C1149 C 0.99836 0.75772 0.86487 0.0
C1150 C 0.00758 0.77072 0.8762 0.0
C1151 C 0.00334 0.77143 0.89511 0.0
C1152 C 0.02489 0.77971 0.86989 0.0
C1153 C 0.00213 0.75629 0.84442 0.0
C1154 C 0.04146 0.77428 0.8783 0.0
C1155 C 0.05837 0.77924 0.87068 0.0
C1156 C 0.05916 0.78971 0.85438 0.0
C1157 C 0.04261 0.79646 0.84675 0.0
C1158 C 0.02555 0.79153 0.85451 0.0
H1159 H 0.99479 0.74449 0.83795 0.0
H1160 H 0.99755 0.76913 0.83745 0.0
H1161 H 0.01716 0.75461 0.8419 0.0
H1162 H 0.04136 0.7652 0.89019 0.0
H1163 H 0.07083 0.77403 0.8771 0.0
H1164 H 0.5309 0.7036 0.17782 0.0
H1165 H 0.5006 0.71001 0.16383 0.0
H1166 H 0.52777 0.73678 0.11803 0.0
H1167 H 0.55756 0.73029 0.13166 0.0
H1168 H 0.48831 0.74385 0.15994 0.0
H1169 H 0.4861 0.71376 0.09091 0.0
H1170 H 0.50159 0.70504 0.10843 0.0
H1171 H 0.50858 0.72369 0.09338 0.0
C1172 C 0.5303 0.71023 0.16443 0.0
C1173 C 0.54651 0.71662 0.15588 0.0
C1174 C 0.51302 0.71389 0.15647 0.0
C1175 C 0.51184 0.72364 0.13971 0.0
C1176 C 0.52818 0.72877 0.13064 0.0
H1177 H 0.48651 0.82138 0.11005 0.0
H1178 H 0.48866 0.79252 0.12677 0.0
C1179 C 0.54528 0.72528 0.1386 0.0
C1180 C 0.49424 0.73193 0.13329 0.0
H1181 H 0.47644 0.74736 0.09264 0.0
C1182 C 0.4851 0.74406 0.14532 0.0
C1183 C 0.48931 0.73183 0.11439 0.0
C1184 C 0.49682 0.71766 0.10116 0.0
C1185 C 0.4737 0.7581 0.13843 0.0
C1186 C 0.47187 0.76024 0.11911 0.0
C1187 C 0.47835 0.74619 0.10744 0.0
C1188 C 0.46764 0.77846 0.11078 0.0
C1189 C 0.46505 0.77144 0.15183 0.0
C1190 C 0.45519 0.78028 0.09602 0.0
C1191 C 0.45407 0.79692 0.08619 0.0
C1192 C 0.46562 0.81185 0.09082 0.0
C1193 C 0.47746 0.81016 0.10607 0.0
C1194 C 0.47851 0.79368 0.11585 0.0
H1195 H 0.46037 0.76407 0.16444 0.0
H1196 H 0.4755 0.78176 0.15619 0.0
H1197 H 0.4531 0.77877 0.14563 0.0
H1198 H 0.44686 0.76864 0.09169 0.0
H1199 H 0.44483 0.7978 0.07447 0.0
H1200 H 0.16787 0.31776 0.3394 0.0
H1201 H 0.15961 0.33515 0.31138 0.0
H1202 H 0.19848 0.37767 0.32655 0.0
H1203 H 0.20648 0.36065 0.35429 0.0
H1204 H 0.16747 0.3915 0.30693 0.0
H1205 H 0.19974 0.33092 0.27187 0.0
H1206 H 0.17912 0.32789 0.28536 0.0
H1207 H 0.20063 0.33288 0.29665 0.0
C1208 C 0.17407 0.33116 0.33702 0.0
C1209 C 0.18805 0.33775 0.34876 0.0
C1210 C 0.16944 0.34102 0.32099 0.0
C1211 C 0.17872 0.35752 0.31668 0.0
C1212 C 0.19115 0.36497 0.32953 0.0
H1213 H 0.24756 0.41914 0.26955 0.0
H1214 H 0.21825 0.4099 0.2828 0.0
C1215 C 0.19582 0.35516 0.34534 0.0
C1216 C 0.17874 0.36554 0.29785 0.0
H1217 H 0.20381 0.35972 0.25852 0.0
C1218 C 0.17475 0.38441 0.29594 0.0
C1219 C 0.18784 0.35623 0.28327 0.0
C1220 C 0.19214 0.33587 0.28424 0.0
C1221 C 0.182 0.39469 0.28119 0.0
C1222 C 0.19371 0.38589 0.26831 0.0
C1223 C 0.19512 0.36657 0.26859 0.0
C1224 C 0.20825 0.39619 0.25815 0.0
C1225 C 0.17835 0.41514 0.28045 0.0
C1226 C 0.21236 0.39208 0.23964 0.0
C1227 C 0.22938 0.39729 0.23202 0.0
C1228 C 0.24258 0.40643 0.24294 0.0
C1229 C 0.23772 0.41199 0.26085 0.0
C1230 C 0.22077 0.40691 0.26837 0.0
H1231 H 0.1639 0.41812 0.28462 0.0
H1232 H 0.18754 0.42229 0.29041 0.0
H1233 H 0.1808 0.42086 0.26644 0.0
H1234 H 0.20302 0.38368 0.23153 0.0
H1235 H 0.23275 0.39281 0.21816 0.0
H1236 H 0.86057 0.99107 0.47219 0.0
H1237 H 0.87165 0.96183 0.48545 0.0
H1238 H 0.85087 0.97834 0.53877 0.0
H1239 H 0.84008 0.00729 0.52577 0.0
H1240 H 0.89817 0.96274 0.5124 0.0
H1241 H 0.83921 0.92356 0.53927 0.0
H1242 H 0.83692 0.94001 0.5206 0.0
H1243 H 0.83589 0.94753 0.54433 0.0
C1244 C 0.85791 0.98813 0.48661 0.0
C1245 C 0.84966 0.00147 0.49804 0.0
C1246 C 0.86418 0.97143 0.49414 0.0
C1247 C 0.8618 0.96773 0.51303 0.0
C1248 C 0.85244 0.9806 0.52407 0.0
H1249 H 0.89775 0.96259 0.60862 0.0
H1250 H 0.88093 0.95617 0.58037 0.0
C1251 C 0.84649 0.9973 0.51668 0.0
C1252 C 0.87205 0.95271 0.52237 0.0
H1253 H 0.8665 0.92563 0.56038 0.0
C1254 C 0.89138 0.95386 0.52237 0.0
C1255 C 0.86322 0.94083 0.53507 0.0
C1256 C 0.84265 0.93777 0.53465 0.0
C1257 C 0.90179 0.94609 0.53674 0.0
C1258 C 0.89252 0.93678 0.55122 0.0
C1259 C 0.87357 0.93304 0.54946 0.0
C1260 C 0.90067 0.93629 0.56997 0.0
C1261 C 0.92223 0.95008 0.53758 0.0
C1262 C 0.91692 0.92651 0.57402 0.0
C1263 C 0.92668 0.93024 0.59034 0.0
C1264 C 0.92027 0.94383 0.60263 0.0
C1265 C 0.90315 0.95224 0.59928 0.0
C1266 C 0.89344 0.94846 0.58317 0.0
H1267 H 0.92718 0.9578 0.52528 0.0
H1268 H 0.92545 0.95832 0.55009 0.0
H1269 H 0.93002 0.93694 0.53844 0.0
H1270 H 0.9226 0.91687 0.56412 0.0
H1271 H 0.93983 0.92351 0.59266 0.0
H1272 H 0.26072 0.60298 0.71831 0.0
H1273 H 0.29048 0.61263 0.73141 0.0
H1274 H 0.26612 0.61298 0.78578 0.0
H1275 H 0.23695 0.60299 0.77306 0.0
H1276 H 0.2975 0.64395 0.74715 0.0
H1277 H 0.3148 0.5922 0.79889 0.0
H1278 H 0.29864 0.58725 0.78054 0.0
H1279 H 0.29082 0.59698 0.80216 0.0
C1280 C 0.26192 0.60465 0.73312 0.0
C1281 C 0.24643 0.60231 0.74464 0.0
C1282 C 0.27894 0.61013 0.74058 0.0
C1283 C 0.28074 0.61315 0.75966 0.0
C1284 C 0.26541 0.61012 0.77113 0.0
H1285 H 0.28544 0.69361 0.8214 0.0
H1286 H 0.29186 0.67603 0.79382 0.0
C1287 C 0.24854 0.60464 0.76376 0.0
C1288 C 0.29728 0.62229 0.76764 0.0
H1289 H 0.31727 0.6254 0.80996 0.0
C1290 C 0.3025 0.63957 0.76057 0.0
C1291 C 0.30483 0.6164 0.78465 0.0
C1292 C 0.30211 0.59705 0.7918 0.0
C1293 C 0.31209 0.65227 0.77161 0.0
C1294 C 0.31578 0.64775 0.79026 0.0
C1295 C 0.31377 0.62932 0.79594 0.0
C1296 C 0.31604 0.66219 0.80484 0.0
C1297 C 0.31662 0.67098 0.76373 0.0
C1298 C 0.32769 0.6608 0.82034 0.0
C1299 C 0.32383 0.67092 0.83642 0.0
C1300 C 0.30815 0.68229 0.83715 0.0
C1301 C 0.29761 0.68491 0.82115 0.0
C1302 C 0.30147 0.67498 0.80521 0.0
H1303 H 0.32223 0.66948 0.74954 0.0
H1304 H 0.3038 0.6793 0.76264 0.0
H1305 H 0.32682 0.67851 0.77235 0.0
H1306 H 0.33891 0.65093 0.82049 0.0
H1307 H 0.33208 0.6686 0.84867 0.0
H1308 H 0.5759 0.07175 0.09314 0.0
H1309 H 0.59355 0.06067 0.06633 0.0
H1310 H 0.5999 0.00762 0.09256 0.0
H1311 H 0.58274 0.01855 0.11923 0.0
H1312 H 0.63275 0.0217 0.07606 0.0
H1313 H 0.57226 0.02335 0.02844 0.0
H1314 H 0.57823 0.04422 0.0405 0.0
H1315 H 0.56955 0.02479 0.05317 0.0
C1316 C 0.58118 0.05777 0.09319 0.0
C1317 C 0.57772 0.04594 0.1082 0.0
C1318 C 0.59117 0.05145 0.07786 0.0
C1319 C 0.59783 0.03326 0.07741 0.0
C1320 C 0.59484 0.02169 0.09262 0.0
H1321 H 0.63718 0.94307 0.01989 0.0
H1322 H 0.6296 0.96796 0.04119 0.0
C1323 C 0.58489 0.02794 0.10782 0.0
C1324 C 0.6074 0.02565 0.06104 0.0
H1325 H 0.59889 0.00827 0.0181 0.0
C1326 C 0.6255 0.01909 0.06322 0.0
C1327 C 0.59793 0.02237 0.04428 0.0
C1328 C 0.57839 0.02893 0.04134 0.0
C1329 C 0.63399 0.0084 0.04951 0.0
C1330 C 0.62401 0.00397 0.03335 0.0
C1331 C 0.60645 0.01166 0.03056 0.0
C1332 C 0.63041 0.98947 0.02048 0.0
C1333 C 0.6533 0.00133 0.05273 0.0
C1334 C 0.63326 0.9933 0.00171 0.0
C1335 C 0.63765 0.97904 0.98943 0.0
C1336 C 0.63891 0.96069 0.99571 0.0
C1337 C 0.63632 0.95702 0.01459 0.0
C1338 C 0.63211 0.97126 0.02682 0.0
H1339 H 0.66103 0.01042 0.06237 0.0
H1340 H 0.65255 0.98739 0.05903 0.0
H1341 H 0.66109 0.00028 0.03957 0.0
H1342 H 0.63182 0.00725 0.99653 0.0
H1343 H 0.63948 0.9823 0.97495 0.0
H1344 H 0.67837 0.17183 0.64206 0.0
H1345 H 0.67265 0.15132 0.66862 0.0
H1346 H 0.72667 0.16441 0.69002 0.0
H1347 H 0.73235 0.18461 0.66396 0.0
H1348 H 0.69299 0.12032 0.67673 0.0
H1349 H 0.69597 0.16649 0.7365 0.0
H1350 H 0.6908 0.17486 0.71356 0.0
H1351 H 0.71441 0.17263 0.72122 0.0
C1352 C 0.68879 0.1706 0.65271 0.0
C1353 C 0.70584 0.17973 0.65092 0.0
C1354 C 0.68551 0.15891 0.66783 0.0
C1355 C 0.69908 0.15661 0.6815 0.0
C1356 C 0.71577 0.16632 0.67996 0.0
H1357 H 0.76701 0.08672 0.72 0.0
H1358 H 0.73969 0.09803 0.70456 0.0
C1359 C 0.7191 0.17773 0.6649 0.0
C1360 C 0.69749 0.14242 0.69615 0.0
H1361 H 0.71305 0.13675 0.74004 0.0
C1362 C 0.69665 0.12382 0.69082 0.0
C1363 C 0.70142 0.14679 0.71475 0.0
C1364 C 0.70046 0.16632 0.72184 0.0
C1365 C 0.70264 0.10981 0.7028 0.0
C1366 C 0.71013 0.1147 0.72018 0.0
C1367 C 0.70793 0.13289 0.72652 0.0
C1368 C 0.72407 0.10295 0.72963 0.0
C1369 C 0.70214 0.09011 0.69617 0.0
C1370 C 0.72451 0.10147 0.74899 0.0
C1371 C 0.74049 0.09526 0.75796 0.0
C1372 C 0.75628 0.09056 0.74768 0.0
C1373 C 0.75514 0.09036 0.72834 0.0
C1374 C 0.7393 0.09661 0.71943 0.0
H1375 H 0.68903 0.08739 0.68868 0.0
H1376 H 0.71358 0.08779 0.68624 0.0
H1377 H 0.70341 0.08014 0.70774 0.0
H1378 H 0.71299 0.10633 0.75719 0.0
H1379 H 0.74091 0.09552 0.7729 0.0
H1380 H 0.11335 0.53436 0.98301 0.0
H1381 H 0.10506 0.50662 0.96614 0.0
H1382 H 0.13819 0.47374 0.00307 0.0
H1383 H 0.14664 0.50176 0.02032 0.0
H1384 H 0.14481 0.46725 0.96473 0.0
H1385 H 0.07048 0.4637 0.97997 0.0
H1386 H 0.07694 0.48699 0.97466 0.0
H1387 H 0.08662 0.47582 0.99467 0.0
C1388 C 0.11881 0.52126 0.9877 0.0
C1389 C 0.13069 0.52029 0.00299 0.0
C1390 C 0.1139 0.50537 0.97814 0.0
C1391 C 0.1207 0.48809 0.9836 0.0
C1392 C 0.1326 0.48694 0.99883 0.0
H1393 H 0.06821 0.43031 0.89454 0.0
H1394 H 0.08234 0.42772 0.92524 0.0
C1395 C 0.13742 0.50293 0.0086 0.0
C1396 C 0.11633 0.47186 0.97203 0.0
H1397 H 0.07947 0.4552 0.94824 0.0
C1398 C 0.13055 0.46398 0.96152 0.0
C1399 C 0.09783 0.467 0.96826 0.0
C1400 C 0.08213 0.47368 0.98017 0.0
C1401 C 0.12652 0.45367 0.94562 0.0
C1402 C 0.1079 0.4517 0.94002 0.0
C1403 C 0.09379 0.45706 0.95218 0.0
C1404 C 0.10285 0.44891 0.92036 0.0
C1405 C 0.14226 0.44627 0.93423 0.0
C1406 C 0.11006 0.4612 0.90721 0.0
C1407 C 0.10199 0.46276 0.88985 0.0
C1408 C 0.08647 0.45212 0.88524 0.0
C1409 C 0.08019 0.43866 0.89774 0.0
C1410 C 0.08826 0.43717 0.91527 0.0
H1411 H 0.15339 0.44095 0.94335 0.0
H1412 H 0.13771 0.43504 0.92485 0.0
H1413 H 0.14827 0.45762 0.92586 0.0
H1414 H 0.12093 0.4708 0.91084 0.0
H1415 H 0.1072 0.47316 0.88045 0.0
H1416 H 0.76194 0.88392 0.27815 0.0
H1417 H 0.79249 0.8763 0.26555 0.0
H1418 H 0.77596 0.8983 0.21272 0.0
H1419 H 0.74568 0.90566 0.22509 0.0
H1420 H 0.79383 0.85094 0.23799 0.0
H1421 H 0.83001 0.91258 0.21336 0.0
H1422 H 0.81334 0.91346 0.23196 0.0
H1423 H 0.80595 0.9151 0.20821 0.0
C1424 C 0.76513 0.88771 0.26404 0.0
C1425 C 0.75143 0.89517 0.25249 0.0
C1426 C 0.78259 0.8834 0.2569 0.0
C1427 C 0.78665 0.88696 0.23827 0.0
C1428 C 0.7734 0.89584 0.22725 0.0
H1429 H 0.78813 0.85833 0.1434 0.0
H1430 H 0.79631 0.87267 0.17247 0.0
C1431 C 0.75596 0.89983 0.23426 0.0
C1432 C 0.80239 0.8779 0.22889 0.0
H1433 H 0.82838 0.88625 0.19068 0.0
C1434 C 0.80221 0.85855 0.22818 0.0
C1435 C 0.81375 0.88775 0.21647 0.0
C1436 C 0.81591 0.90839 0.21772 0.0
C1437 C 0.81003 0.84913 0.21318 0.0
C1438 C 0.81835 0.85945 0.19881 0.0
C1439 C 0.82162 0.87838 0.20148 0.0
C1440 C 0.81735 0.85265 0.17956 0.0
C1441 C 0.80688 0.82861 0.21151 0.0
C1442 C 0.827 0.83697 0.17343 0.0
C1443 C 0.82221 0.8286 0.15661 0.0
C1444 C 0.80768 0.83581 0.14594 0.0
C1445 C 0.79917 0.85228 0.15148 0.0
C1446 C 0.80399 0.86061 0.16805 0.0
H1447 H 0.80051 0.82266 0.22413 0.0
H1448 H 0.79767 0.82571 0.19961 0.0
H1449 H 0.82022 0.82152 0.20903 0.0
H1450 H 0.8375 0.83071 0.18202 0.0
H1451 H 0.82904 0.81595 0.15255 0.0
H1452 H 0.35086 0.49826 0.47749 0.0
H1453 H 0.35837 0.52896 0.46607 0.0
H1454 H 0.37634 0.54513 0.52046 0.0
H1455 H 0.36864 0.51418 0.53214 0.0
H1456 H 0.35058 0.5686 0.47773 0.0
H1457 H 0.42342 0.54498 0.48606 0.0
H1458 H 0.40498 0.52829 0.48719 0.0
H1459 H 0.40765 0.54497 0.50529 0.0
C1460 C 0.35596 0.50847 0.48715 0.0
C1461 C 0.35944 0.50376 0.50561 0.0
C1462 C 0.36012 0.52606 0.48065 0.0
C1463 C 0.36802 0.53925 0.4924 0.0
C1464 C 0.37025 0.53511 0.5112 0.0
H1465 H 0.43581 0.58381 0.40982 0.0
H1466 H 0.42272 0.59153 0.44011 0.0
C1467 C 0.36585 0.51745 0.51782 0.0
C1468 C 0.37664 0.55563 0.4838 0.0
H1469 H 0.41685 0.56451 0.46131 0.0
C1470 C 0.36523 0.56833 0.47465 0.0
C1471 C 0.39582 0.55572 0.4802 0.0
C1472 C 0.4088 0.54283 0.49017 0.0
C1473 C 0.37211 0.57916 0.46011 0.0
C1474 C 0.39057 0.57658 0.45423 0.0
C1475 C 0.40257 0.56626 0.46544 0.0
C1476 C 0.39604 0.57916 0.43459 0.0
C1477 C 0.35912 0.59202 0.45021 0.0
C1478 C 0.38509 0.57078 0.42095 0.0
C1479 C 0.39252 0.56645 0.40379 0.0
C1480 C 0.41107 0.57032 0.39988 0.0
C1481 C 0.42142 0.58075 0.41252 0.0
C1482 C 0.41394 0.58511 0.42984 0.0
H1483 H 0.35065 0.59975 0.46038 0.0
H1484 H 0.36662 0.60202 0.44133 0.0
H1485 H 0.34945 0.58386 0.44157 0.0
H1486 H 0.37146 0.56556 0.42416 0.0
H1487 H 0.38426 0.55844 0.39422 0.0
H1488 H 0.21625 0.23797 0.39203 0.0
H1489 H 0.23084 0.20766 0.38771 0.0
H1490 H 0.26094 0.22883 0.34094 0.0
H1491 H 0.24676 0.25903 0.34527 0.0
H1492 H 0.24544 0.187 0.34085 0.0
H1493 H 0.2898 0.21049 0.39928 0.0
H1494 H 0.265 0.21176 0.40072 0.0
H1495 H 0.27725 0.22723 0.38579 0.0
C1496 C 0.22561 0.23599 0.38054 0.0
C1497 C 0.23063 0.25093 0.36916 0.0
C1498 C 0.23384 0.21867 0.37806 0.0
C1499 C 0.24691 0.21608 0.36401 0.0
C1500 C 0.25077 0.23056 0.35178 0.0
H1501 H 0.33423 0.17796 0.31175 0.0
H1502 H 0.30198 0.17801 0.32056 0.0
C1503 C 0.24278 0.24785 0.35438 0.0
C1504 C 0.25923 0.19985 0.36382 0.0
H1505 H 0.30201 0.1886 0.37925 0.0
C1506 C 0.2576 0.18684 0.34958 0.0
C1507 C 0.27482 0.19943 0.37548 0.0
C1508 C 0.27697 0.21291 0.39123 0.0
C1509 C 0.27202 0.17443 0.34573 0.0
C1510 C 0.28874 0.17577 0.3558 0.0
C1511 C 0.28939 0.18748 0.37129 0.0
C1512 C 0.30667 0.1686 0.34864 0.0
C1513 C 0.26934 0.16054 0.33049 0.0
C1514 C 0.32032 0.16238 0.36101 0.0
C1515 C 0.33898 0.16321 0.35612 0.0
C1516 C 0.34417 0.16941 0.33853 0.0
C1517 C 0.3305 0.17278 0.32529 0.0
C1518 C 0.3119 0.1727 0.33037 0.0
H1519 H 0.25517 0.15469 0.3311 0.0
H1520 H 0.27073 0.16754 0.31693 0.0
H1521 H 0.27945 0.14906 0.33132 0.0
H1522 H 0.31674 0.15895 0.37512 0.0
H1523 H 0.34936 0.16074 0.36661 0.0
H1524 H 0.9937 0.01198 0.61077 0.0
H1525 H 0.02299 0.02393 0.60001 0.0
H1526 H 0.05094 0.97579 0.62111 0.0
H1527 H 0.02121 0.96356 0.63225 0.0
H1528 H 0.06873 0.00855 0.63051 0.0
H1529 H 0.05474 0.00918 0.55628 0.0
H1530 H 0.0347 0.01797 0.56778 0.0
H1531 H 0.04204 0.99454 0.57204 0.0
C1532 C 0.00597 0.00376 0.61306 0.0
C1533 C 0.00506 0.98678 0.62235 0.0
C1534 C 0.02275 0.01055 0.6067 0.0
C1535 C 0.03911 0.00053 0.60929 0.0
C1536 C 0.03842 0.98359 0.61869 0.0
H1537 H 0.08803 0.0912 0.56123 0.0
H1538 H 0.09572 0.05891 0.56761 0.0
C1539 C 0.02146 0.97667 0.62507 0.0
C1540 C 0.05672 0.00904 0.60328 0.0
H1541 H 0.06989 0.0376 0.56859 0.0
C1542 C 0.06954 0.01442 0.61676 0.0
C1543 C 0.05866 0.01588 0.58512 0.0
C1544 C 0.0469 0.00885 0.56946 0.0
C1545 C 0.08192 0.02897 0.61334 0.0
C1546 C 0.08068 0.03876 0.59644 0.0
C1547 C 0.07047 0.03085 0.58193 0.0
C1548 C 0.08447 0.05898 0.59535 0.0
C1549 C 0.09512 0.03459 0.62839 0.0
C1550 C 0.07729 0.07036 0.60933 0.0
C1551 C 0.07326 0.08879 0.60579 0.0
C1552 C 0.076 0.09619 0.58812 0.0
C1553 C 0.0857 0.08578 0.57497 0.0
C1554 C 0.08999 0.06725 0.57861 0.0
H1555 H 0.10219 0.02219 0.63397 0.0
H1556 H 0.1057 0.0445 0.62338 0.0
H1557 H 0.08732 0.04087 0.63999 0.0
H1558 H 0.07249 0.06464 0.62226 0.0
H1559 H 0.06595 0.09661 0.61624 0.0
H1560 H 0.28292 0.76428 0.8905 0.0
H1561 H 0.26732 0.79434 0.88812 0.0
H1562 H 0.21496 0.76649 0.88256 0.0
H1563 H 0.23014 0.73686 0.88523 0.0
H1564 H 0.24781 0.80821 0.85959 0.0
H1565 H 0.20158 0.80566 0.91916 0.0
H1566 H 0.22166 0.79096 0.91751 0.0
H1567 H 0.19983 0.78382 0.90777 0.0
C1568 C 0.26803 0.76465 0.88911 0.0
C1569 C 0.25776 0.74816 0.88808 0.0
C1570 C 0.25917 0.78181 0.88775 0.0
C1571 C 0.23992 0.7827 0.88561 0.0
C1572 C 0.22974 0.76623 0.88483 0.0
H1573 H 0.1675 0.81038 0.81664 0.0
H1574 H 0.19748 0.8138 0.83078 0.0
C1575 C 0.2385 0.74922 0.88615 0.0
C1576 C 0.23014 0.80036 0.88224 0.0
H1577 H 0.18733 0.81759 0.89009 0.0
C1578 C 0.23485 0.81081 0.86661 0.0
C1579 C 0.21377 0.80467 0.89192 0.0
C1580 C 0.2091 0.79579 0.91017 0.0
C1581 C 0.22213 0.82316 0.85875 0.0
C1582 C 0.20409 0.82432 0.86625 0.0
C1583 C 0.20078 0.81635 0.88367 0.0
C1584 C 0.1877 0.82905 0.85468 0.0
C1585 C 0.22782 0.83394 0.84189 0.0
C1586 C 0.17196 0.83721 0.86267 0.0
C1587 C 0.15452 0.8346 0.85473 0.0
C1588 C 0.15274 0.82439 0.83839 0.0
C1589 C 0.16864 0.81864 0.82906 0.0
C1590 C 0.18594 0.82075 0.8372 0.0
H1591 H 0.24178 0.83993 0.84401 0.0
H1592 H 0.22879 0.8245 0.82987 0.0
H1593 H 0.21801 0.84527 0.8387 0.0
H1594 H 0.17284 0.84381 0.87605 0.0
H1595 H 0.14235 0.83889 0.86229 0.0
H1596 H 0.48824 0.04554 0.14086 0.0
H1597 H 0.46397 0.02364 0.13208 0.0
H1598 H 0.50416 0.97974 0.13121 0.0
H1599 H 0.52828 0.00135 0.14019 0.0
H1600 H 0.46255 0.00439 0.10032 0.0
H1601 H 0.462 0.95513 0.15807 0.0
H1602 H 0.47222 0.9778 0.16006 0.0
H1603 H 0.48531 0.95882 0.15068 0.0
C1604 C 0.4918 0.03116 0.1391 0.0
C1605 C 0.51018 0.02517 0.14118 0.0
C1606 C 0.47793 0.01867 0.13412 0.0
C1607 C 0.48217 -1e-05 0.13134 0.0
C1608 C 0.50044 0.99397 0.1338 0.0
H1609 H 0.47379 0.92174 0.05774 0.0
H1610 H 0.47103 0.95128 0.07335 0.0
C1611 C 0.51427 0.00641 0.13875 0.0
C1612 C 0.46828 0.987 0.1238 0.0
H1613 H 0.45545 0.94193 0.12739 0.0
C1614 C 0.46046 0.99092 0.10651 0.0
C1615 C 0.46496 0.96964 0.13207 0.0
C1616 C 0.47141 0.96521 0.15136 0.0
C1617 C 0.45151 0.97713 0.09629 0.0
C1618 C 0.45073 0.95899 0.10343 0.0
C1619 C 0.45634 0.95576 0.1217 0.0
C1620 C 0.44854 0.94278 0.09116 0.0
C1621 C 0.44411 0.98181 0.07741 0.0
C1622 C 0.43655 0.92818 0.09566 0.0
C1623 C 0.43808 0.91117 0.08655 0.0
C1624 C 0.45187 0.90858 0.07318 0.0
C1625 C 0.46298 0.92352 0.06792 0.0
C1626 C 0.46129 0.94046 0.07676 0.0
H1627 H 0.43851 0.99608 0.07719 0.0
H1628 H 0.45553 0.9812 0.06722 0.0
H1629 H 0.4331 0.97206 0.07308 0.0
H1630 H 0.4268 0.92961 0.10691 0.0
H1631 H 0.42956 0.8997 0.09097 0.0
H1632 H 0.76497 0.25888 0.59972 0.0
H1633 H 0.77568 0.2892 0.6093 0.0
H1634 H 0.72155 0.30196 0.63054 0.0
H1635 H 0.71058 0.2713 0.62081 0.0
H1636 H 0.76322 0.32838 0.60477 0.0
H1637 H 0.75693 0.30046 0.67628 0.0
H1638 H 0.75527 0.28482 0.65701 0.0
H1639 H 0.73729 0.30136 0.66106 0.0
C1640 C 0.7552 0.26825 0.60607 0.0
C1641 C 0.73704 0.26262 0.60983 0.0
C1642 C 0.76129 0.28566 0.61139 0.0
C1643 C 0.74945 0.29777 0.62073 0.0
C1644 C 0.7309 0.29277 0.62337 0.0
H1645 H 0.8349 0.33614 0.68764 0.0
H1646 H 0.80446 0.34589 0.67641 0.0
C1647 C 0.72468 0.27529 0.61782 0.0
C1648 C 0.75791 0.31379 0.63014 0.0
H1649 H 0.78189 0.31987 0.66999 0.0
C1650 C 0.76677 0.32717 0.61926 0.0
C1651 C 0.76211 0.31269 0.64916 0.0
C1652 C 0.75243 0.29913 0.66168 0.0
C1653 C 0.78175 0.33728 0.62624 0.0
C1654 C 0.78829 0.33337 0.64423 0.0
C1655 C 0.77727 0.32258 0.65601 0.0
C1656 C 0.80824 0.33483 0.64889 0.0
C1657 C 0.79151 0.3507 0.6137 0.0
C1658 C 0.82097 0.32646 0.63689 0.0
C1659 C 0.83821 0.32091 0.64328 0.0
C1660 C 0.84309 0.32358 0.66181 0.0
C1661 C 0.83144 0.33401 0.67325 0.0
C1662 C 0.81403 0.33954 0.66684 0.0
H1663 H 0.78124 0.35917 0.60609 0.0
H1664 H 0.8009 0.36001 0.62146 0.0
H1665 H 0.7996 0.34297 0.60325 0.0
H1666 H 0.81692 0.32218 0.62316 0.0
H1667 H 0.847 0.31292 0.63419 0.0
H1668 H 0.99263 0.46311 0.86588 0.0
H1669 H 0.96382 0.4765 0.87795 0.0
H1670 H 0.97894 0.52925 0.85478 0.0
H1671 H 0.00748 0.51615 0.84305 0.0
H1672 H 0.9653 0.50478 0.90354 0.0
H1673 H 0.92367 0.52825 0.84483 0.0
H1674 H 0.94011 0.50955 0.84291 0.0
H1675 H 0.94748 0.53319 0.84028 0.0
C1676 C 0.98947 0.47743 0.86297 0.0
C1677 C 0.00232 0.48868 0.85371 0.0
C1678 C 0.97302 0.48502 0.86981 0.0
C1679 C 0.96905 0.50378 0.86697 0.0
C1680 C 0.98142 0.51463 0.85673 0.0
H1681 H 0.96748 0.59968 0.89712 0.0
H1682 H 0.9603 0.57007 0.88319 0.0
C1683 C 0.99789 0.50719 0.85023 0.0
C1684 C 0.95423 0.5133 0.87733 0.0
H1685 H 0.92693 0.55094 0.87077 0.0
C1686 C 0.9561 0.51432 0.89657 0.0
C1687 C 0.9419 0.52542 0.86831 0.0
C1688 C 0.93803 0.52387 0.84794 0.0
C1689 C 0.94869 0.52922 0.90647 0.0
C1690 C 0.93915 0.54322 0.89676 0.0
C1691 C 0.93454 0.54037 0.87815 0.0
C1692 C 0.93975 0.56246 0.90354 0.0
C1693 C 0.95339 0.53124 0.92665 0.0
C1694 C 0.93007 0.56836 0.91928 0.0
C1695 C 0.93417 0.58552 0.92731 0.0
C1696 C 0.94814 0.5967 0.91976 0.0
C1697 C 0.95682 0.59123 0.90335 0.0
C1698 C 0.95261 0.57436 0.89529 0.0
H1699 H 0.96037 0.5188 0.93226 0.0
H1700 H 0.96262 0.54331 0.92864 0.0
H1701 H 0.94062 0.5337 0.93474 0.0
H1702 H 0.92004 0.55938 0.92579 0.0
H1703 H 0.92728 0.58949 0.93997 0.0
H1704 H 0.65009 0.67745 0.18371 0.0
H1705 H 0.68199 0.67218 0.17315 0.0
H1706 H 0.67221 0.70798 0.12652 0.0
H1707 H 0.64071 0.71278 0.13661 0.0
H1708 H 0.69635 0.68018 0.11779 0.0
H1709 H 0.71697 0.71441 0.18375 0.0
H1710 H 0.70523 0.69256 0.18441 0.0
H1711 H 0.69297 0.71295 0.1774 0.0
C1712 C 0.65467 0.68365 0.17089 0.0
C1713 C 0.64312 0.69583 0.16116 0.0
C1714 C 0.67291 0.68076 0.16496 0.0
C1715 C 0.67964 0.69005 0.14928 0.0
C1716 C 0.66743 0.70069 0.13868 0.0
H1717 H 0.73225 0.76551 0.10104 0.0
H1718 H 0.71706 0.73688 0.11012 0.0
C1719 C 0.6494 0.70355 0.14455 0.0
C1720 C 0.69962 0.69166 0.14504 0.0
H1721 H 0.7352 0.71972 0.15787 0.0
C1722 C 0.70527 0.68815 0.12681 0.0
C1723 C 0.71147 0.7018 0.15686 0.0
C1724 C 0.70647 0.70573 0.1767 0.0
C1725 C 0.72081 0.69696 0.11933 0.0
C1726 C 0.73096 0.70931 0.13044 0.0
C1727 C 0.72716 0.71038 0.14937 0.0
C1728 C 0.74154 0.72464 0.12212 0.0
C1729 C 0.72512 0.69456 0.09913 0.0
C1730 C 0.7604 0.72718 0.12574 0.0
C1731 C 0.76921 0.74354 0.12029 0.0
C1732 C 0.75907 0.75772 0.11172 0.0
C1733 C 0.74035 0.75485 0.1077 0.0
C1734 C 0.73172 0.73843 0.11272 0.0
H1735 H 0.72052 0.68082 0.0941 0.0
H1736 H 0.71766 0.70526 0.09109 0.0
H1737 H 0.74014 0.69614 0.09647 0.0
H1738 H 0.7681 0.71681 0.13325 0.0
H1739 H 0.78366 0.74548 0.12361 0.0
H1740 H 0.47176 0.48895 0.39155 0.0
H1741 H 0.49992 0.47298 0.39998 0.0
H1742 H 0.53244 0.51571 0.37423 0.0
H1743 H 0.50395 0.53191 0.3654 0.0
H1744 H 0.54394 0.48157 0.36398 0.0
H1745 H 0.53804 0.48233 0.43936 0.0
H1746 H 0.51614 0.47556 0.43014 0.0
H1747 H 0.52524 0.49817 0.42494 0.0
C1748 C 0.48484 0.49514 0.3878 0.0
C1749 C 0.48557 0.51173 0.3778 0.0
C1750 C 0.501 0.48607 0.39283 0.0
C1751 C 0.51833 0.49339 0.38819 0.0
C1752 C 0.51921 0.50998 0.37821 0.0
H1753 H 0.57328 0.39895 0.43083 0.0
H1754 H 0.57706 0.43181 0.42347 0.0
C1755 C 0.50293 0.51917 0.37315 0.0
C1756 C 0.53505 0.48238 0.39239 0.0
H1757 H 0.54949 0.45285 0.42585 0.0
C1758 C 0.54571 0.47572 0.37765 0.0
C1759 C 0.53818 0.47534 0.41031 0.0
C1760 C 0.52891 0.48345 0.42709 0.0
C1761 C 0.55709 0.4602 0.37991 0.0
C1762 C 0.55718 0.45087 0.39709 0.0
C1763 C 0.54904 0.45949 0.41244 0.0
C1764 C 0.5608 0.4307 0.39839 0.0
C1765 C 0.56779 0.45319 0.3635 0.0
C1766 C 0.55132 0.4189 0.38628 0.0
C1767 C 0.54924 0.40027 0.39041 0.0
C1768 C 0.55643 0.39299 0.40685 0.0
C1769 C 0.56761 0.40422 0.41804 0.0
C1770 C 0.56972 0.42301 0.41386 0.0
H1771 H 0.57419 0.46493 0.35599 0.0
H1772 H 0.57879 0.44335 0.36762 0.0
H1773 H 0.55821 0.44628 0.35374 0.0
H1774 H 0.54384 0.42433 0.37453 0.0
H1775 H 0.54067 0.39189 0.38147 0.0
H1776 H 0.37226 0.26056 0.30337 0.0
H1777 H 0.36378 0.28085 0.27789 0.0
H1778 H 0.38085 0.23944 0.23873 0.0
H1779 H 0.38928 0.21885 0.26423 0.0
H1780 H 0.38544 0.29419 0.24699 0.0
H1781 H 0.32582 0.25027 0.22586 0.0
H1782 H 0.33679 0.24743 0.24805 0.0
H1783 H 0.34842 0.24007 0.22749 0.0
C1784 C 0.37437 0.25577 0.28937 0.0
C1785 C 0.38131 0.23802 0.28586 0.0
C1786 C 0.36956 0.26741 0.27481 0.0
C1787 C 0.37155 0.26156 0.25646 0.0
C1788 C 0.37904 0.24411 0.25282 0.0
H1789 H 0.33206 0.35684 0.19196 0.0
H1790 H 0.34946 0.32764 0.19328 0.0
C1791 C 0.38389 0.23242 0.26741 0.0
C1792 C 0.36474 0.27367 0.24149 0.0
H1793 H 0.32643 0.28069 0.21505 0.0
C1794 C 0.37285 0.29112 0.23949 0.0
C1795 C 0.34842 0.26945 0.23166 0.0
C1796 C 0.33922 0.25083 0.2333 0.0
C1797 C 0.36407 0.30512 0.22941 0.0
C1798 C 0.3468 0.30144 0.22103 0.0
C1799 C 0.33969 0.28342 0.22144 0.0
C1800 C 0.33404 0.31672 0.21645 0.0
C1801 C 0.37239 0.32423 0.22942 0.0
C1802 C 0.31898 0.31966 0.22824 0.0
C1803 C 0.30919 0.33613 0.22753 0.0
C1804 C 0.31413 0.34994 0.21488 0.0
C1805 C 0.328 0.34634 0.20181 0.0
C1806 C 0.338 0.32977 0.20264 0.0
H1807 H 0.38541 0.32492 0.2375 0.0
H1808 H 0.37544 0.32851 0.21504 0.0
H1809 H 0.36246 0.33429 0.23533 0.0
H1810 H 0.31566 0.30978 0.23898 0.0
H1811 H 0.29844 0.33854 0.23765 0.0
H1812 H 0.80349 0.15709 0.76997 0.0
H1813 H 0.81484 0.18815 0.77537 0.0
H1814 H 0.84353 0.16952 0.82415 0.0
H1815 H 0.83197 0.13792 0.81867 0.0
H1816 H 0.81497 0.21441 0.8051 0.0
H1817 H 0.88499 0.18677 0.78864 0.0
H1818 H 0.86494 0.17251 0.78484 0.0
H1819 H 0.87205 0.17792 0.80795 0.0
C1820 C 0.81185 0.15967 0.78211 0.0
C1821 C 0.81709 0.14515 0.79377 0.0
C1822 C 0.81825 0.17745 0.78527 0.0
C1823 C 0.83019 0.18112 0.80004 0.0
C1824 C 0.83442 0.16692 0.81259 0.0
H1825 H 0.88836 0.27377 0.75002 0.0
H1826 H 0.88059 0.25666 0.77835 0.0
C1827 C 0.82777 0.14896 0.80952 0.0
C1828 C 0.83992 0.19909 0.79992 0.0
H1829 H 0.87796 0.21661 0.77845 0.0
C1830 C 0.82907 0.21514 0.80009 0.0
C1831 C 0.85841 0.20015 0.79368 0.0
C1832 C 0.87089 0.18349 0.79373 0.0
C1833 C 0.83522 0.23135 0.79147 0.0
C1834 C 0.85254 0.23136 0.78254 0.0
C1835 C 0.86454 0.2164 0.78509 0.0
C1836 C 0.85621 0.24385 0.76681 0.0
C1837 C 0.82239 0.24766 0.79027 0.0
C1838 C 0.84518 0.24214 0.75099 0.0
C1839 C 0.84976 0.25146 0.73482 0.0
C1840 C 0.86543 0.26284 0.73415 0.0
C1841 C 0.87617 0.26509 0.75019 0.0
C1842 C 0.87174 0.25543 0.76637 0.0
H1843 H 0.81326 0.24836 0.80257 0.0
H1844 H 0.83021 0.26079 0.78904 0.0
H1845 H 0.81347 0.24615 0.7779 0.0
H1846 H 0.83337 0.23295 0.75092 0.0
H1847 H 0.84116 0.24953 0.72275 0.0
H1848 H 0.96639 0.62275 0.00945 0.0
H1849 H 0.98015 0.61423 0.03936 0.0
H1850 H 0.0315 0.63936 0.02271 0.0
H1851 H 0.01814 0.64724 0.99282 0.0
H1852 H 0.01417 0.59102 0.03785 0.0
H1853 H 0.02389 0.65431 0.07898 0.0
H1854 H 0.00521 0.65141 0.06262 0.0
H1855 H 0.02786 0.65793 0.05477 0.0
C1856 C 0.98047 0.6268 0.01242 0.0
C1857 C 0.99131 0.63548 0.99884 0.0
C1858 C 0.98825 0.62201 0.02949 0.0
C1859 C 0.00672 0.62645 0.03333 0.0
C1860 C 0.01711 0.63614 0.02016 0.0
H1861 H 0.10646 0.61745 0.04998 0.0
H1862 H 0.07496 0.62647 0.05624 0.0
C1863 C 0.00954 0.64047 0.00302 0.0
C1864 C 0.01661 0.61826 0.04918 0.0
H1865 H 0.04873 0.63152 0.08076 0.0
C1866 C 0.0213 0.59957 0.04786 0.0
C1867 C 0.02551 0.62944 0.06238 0.0
C1868 C 0.02022 0.64937 0.06494 0.0
C1869 C 0.03685 0.59255 0.05703 0.0
C1870 C 0.04757 0.60456 0.06822 0.0
C1871 C 0.04078 0.62236 0.07198 0.0
C1872 C 0.0677 0.60129 0.07074 0.0
C1873 C 0.04292 0.57312 0.05255 0.0
C1874 C 0.07481 0.58483 0.07823 0.0
C1875 C 0.09301 0.57945 0.07428 0.0
C1876 C 0.10423 0.5907 0.06314 0.0
C1877 C 0.09796 0.60835 0.05828 0.0
C1878 C 0.07989 0.61357 0.06198 0.0
H1879 H 0.03336 0.5661 0.04282 0.0
H1880 H 0.05688 0.57325 0.04624 0.0
H1881 H 0.04346 0.5648 0.06538 0.0
H1882 H 0.0659 0.57544 0.08569 0.0
H1883 H 0.09761 0.56582 0.07837 0.0
H1884 H 0.66527 0.85585 0.31617 0.0
H1885 H 0.64707 0.8279 0.32258 0.0
H1886 H 0.67319 0.80076 0.27641 0.0
H1887 H 0.69126 0.82815 0.27029 0.0
H1888 H 0.62207 0.81671 0.29961 0.0
H1889 H 0.66714 0.75729 0.30878 0.0
H1890 H 0.67533 0.78048 0.31301 0.0
H1891 H 0.67715 0.77025 0.29031 0.0
C1892 C 0.6676 0.8436 0.30794 0.0
C1893 C 0.67948 0.84416 0.29261 0.0
C1894 C 0.6572 0.82766 0.31159 0.0
C1895 C 0.65886 0.81206 0.30015 0.0
C1896 C 0.67194 0.81229 0.28583 0.0
H1897 H 0.60248 0.77307 0.22124 0.0
H1898 H 0.61152 0.78845 0.24949 0.0
C1899 C 0.68213 0.82812 0.28213 0.0
C1900 C 0.64467 0.79728 0.30001 0.0
H1901 H 0.64199 0.75309 0.28438 0.0
C1902 C 0.62624 0.80256 0.29709 0.0
C1903 C 0.64961 0.77856 0.29751 0.0
C1904 C 0.66838 0.77137 0.30283 0.0
C1905 C 0.61373 0.79053 0.28852 0.0
C1906 C 0.62004 0.77313 0.28235 0.0
C1907 C 0.6373 0.76672 0.28839 0.0
C1908 C 0.6113 0.76374 0.26637 0.0
C1909 C 0.5944 0.79721 0.28473 0.0
C1910 C 0.60832 0.74458 0.26623 0.0
C1911 C 0.60335 0.73561 0.24982 0.0
C1912 C 0.60152 0.74566 0.23328 0.0
C1913 C 0.60378 0.76489 0.23369 0.0
C1914 C 0.60871 0.77378 0.24999 0.0
H1915 H 0.58916 0.80534 0.29662 0.0
H1916 H 0.59453 0.8065 0.27255 0.0
H1917 H 0.58478 0.78558 0.28204 0.0
H1918 H 0.61049 0.73651 0.27863 0.0
H1919 H 0.60171 0.72075 0.24995 0.0
H1920 H 0.39753 0.41424 0.5663 0.0
H1921 H 0.42487 0.39462 0.57067 0.0
H1922 H 0.45286 0.42459 0.52739 0.0
H1923 H 0.42603 0.44403 0.5233 0.0
H1924 H 0.43426 0.37205 0.54481 0.0
H1925 H 0.49638 0.41238 0.55779 0.0
H1926 H 0.47375 0.42137 0.56327 0.0
H1927 H 0.48385 0.42505 0.54073 0.0
C1928 C 0.40988 0.4171 0.55838 0.0
C1929 C 0.40969 0.43046 0.54433 0.0
C1930 C 0.42548 0.40588 0.56085 0.0
C1931 C 0.44107 0.40815 0.54949 0.0
C1932 C 0.44133 0.42275 0.53673 0.0
H1933 H 0.47742 0.35659 0.46446 0.0
H1934 H 0.46229 0.36506 0.4931 0.0
C1935 C 0.42584 0.43377 0.53419 0.0
C1936 C 0.45502 0.3933 0.54738 0.0
H1937 H 0.49887 0.38976 0.53086 0.0
C1938 C 0.44861 0.37565 0.54253 0.0
C1939 C 0.47397 0.39743 0.54506 0.0
C1940 C 0.48234 0.41506 0.55225 0.0
C1941 C 0.45979 0.36348 0.53248 0.0
C1942 C 0.47753 0.36935 0.52683 0.0
C1943 C 0.48499 0.38551 0.53451 0.0
C1944 C 0.48655 0.36145 0.51024 0.0
C1945 C 0.45192 0.3451 0.52672 0.0
C1946 C 0.50538 0.35685 0.51016 0.0
C1947 C 0.51419 0.35219 0.49359 0.0
C1948 C 0.50435 0.35227 0.47682 0.0
C1949 C 0.48541 0.35634 0.47709 0.0
C1950 C 0.47666 0.36097 0.49357 0.0
H1951 H 0.44319 0.33927 0.53791 0.0
H1952 H 0.44293 0.34705 0.51446 0.0
H1953 H 0.46294 0.33505 0.52325 0.0
H1954 H 0.51334 0.35737 0.52281 0.0
H1955 H 0.52883 0.34914 0.49385 0.0
H1956 H 0.19237 0.65814 0.71736 0.0
H1957 H 0.17496 0.68675 0.71978 0.0
H1958 H 0.12897 0.66128 0.69171 0.0
H1959 H 0.14637 0.63216 0.69 0.0
H1960 H 0.15539 0.71222 0.70078 0.0
H1961 H 0.10827 0.66783 0.74265 0.0
H1962 H 0.12956 0.659 0.73341 0.0
H1963 H 0.11012 0.66286 0.71846 0.0
C1964 C 0.17884 0.6589 0.71102 0.0
C1965 C 0.17062 0.64309 0.70355 0.0
C1966 C 0.16886 0.67526 0.7124 0.0
C1967 C 0.15044 0.67603 0.7064 0.0
C1968 C 0.143 0.66085 0.69684 0.0
H1969 H 0.10271 0.77484 0.76132 0.0
H1970 H 0.10766 0.75397 0.73507 0.0
C1971 C 0.15299 0.64432 0.69565 0.0
C1972 C 0.13866 0.69121 0.7135 0.0
H1973 H 0.10747 0.69929 0.74789 0.0
C1974 C 0.14451 0.7095 0.7107 0.0
C1975 C 0.12444 0.68762 0.72648 0.0
C1976 C 0.11772 0.6683 0.73058 0.0
C1977 C 0.13792 0.72397 0.72183 0.0
C1978 C 0.12489 0.72001 0.7358 0.0
C1979 C 0.11758 0.70216 0.73722 0.0
C1980 C 0.12134 0.73293 0.75124 0.0
C1981 C 0.14615 0.74297 0.71969 0.0
C1982 C 0.12713 0.72788 0.76901 0.0
C1983 C 0.12419 0.73958 0.78397 0.0
C1984 C 0.11543 0.75668 0.7815 0.0
C1985 C 0.10955 0.76176 0.76366 0.0
C1986 C 0.11244 0.74992 0.74864 0.0
H1987 H 0.15737 0.74332 0.70924 0.0
H1988 H 0.13523 0.75279 0.71535 0.0
H1989 H 0.15177 0.74784 0.73309 0.0
H1990 H 0.13408 0.71484 0.77131 0.0
H1991 H 0.12894 0.73522 0.79746 0.0
H1992 H 0.46913 0.85521 0.99058 0.0
H1993 H 0.48392 0.85866 0.96024 0.0
H1994 H 0.53734 0.8592 0.9866 0.0
H1995 H 0.52291 0.85535 0.01648 0.0
H1996 H 0.50369 0.88662 0.94765 0.0
H1997 H 0.54835 0.82606 0.94426 0.0
H1998 H 0.52912 0.8272 0.96011 0.0
H1999 H 0.55159 0.83582 0.9667 0.0
C2000 C 0.48405 0.85566 0.9898 0.0
C2001 C 0.49485 0.85499 0.00596 0.0
C2002 C 0.49247 0.85763 0.97246 0.0
C2003 C 0.51177 0.85875 0.97105 0.0
C2004 C 0.52247 0.85772 0.98718 0.0
H2005 H 0.58477 0.92832 0.94442 0.0
H2006 H 0.55445 0.91471 0.9419 0.0
C2007 C 0.51415 0.85572 0.00437 0.0
C2008 C 0.52112 0.86315 0.95335 0.0
H2009 H 0.56308 0.85563 0.93394 0.0
C2010 C 0.51639 0.87952 0.94412 0.0
C2011 C 0.53709 0.85347 0.94777 0.0
C2012 C 0.54163 0.83453 0.95513 0.0
C2013 C 0.5288 0.88791 0.93179 0.0
C2014 C 0.5466 0.88016 0.92943 0.0
C2015 C 0.54983 0.86222 0.93616 0.0
C2016 C 0.56302 0.89168 0.9247 0.0
C2017 C 0.52307 0.90553 0.92233 0.0
C2018 C 0.57818 0.88399 0.91525 0.0
C2019 C 0.59585 0.8916 0.91731 0.0
C2020 C 0.59841 0.90732 0.92829 0.0
C2021 C 0.583 0.9164 0.93555 0.0
C2022 C 0.5655 0.90859 0.93395 0.0
H2023 H 0.50882 0.90409 0.91684 0.0
H2024 H 0.5228 0.91695 0.93252 0.0
H2025 H 0.53247 0.90921 0.91079 0.0
H2026 H 0.57674 0.87104 0.90793 0.0
H2027 H 0.60765 0.88422 0.91185 0.0
H2028 H 0.88334 0.10396 0.48137 0.0
H2029 H 0.91438 0.11591 0.47812 0.0
H2030 H 0.92531 0.07658 0.43475 0.0
H2031 H 0.89391 0.0642 0.43826 0.0
H2032 H 0.94929 0.07271 0.4611 0.0
H2033 H 0.94724 0.14674 0.44709 0.0
H2034 H 0.93026 0.14249 0.46451 0.0
H2035 H 0.92775 0.13198 0.44202 0.0
C2036 C 0.89213 0.09819 0.47073 0.0
C2037 C 0.8863 0.08298 0.46026 0.0
C2038 C 0.90987 0.10525 0.46867 0.0
C2039 C 0.92223 0.09734 0.45601 0.0
C2040 C 0.91598 0.08303 0.44448 0.0
H2041 H 0.02547 0.13826 0.50425 0.0
H2042 H 0.00651 0.13032 0.47722 0.0
C2043 C 0.89805 0.07597 0.44649 0.0
C2044 C 0.9422 0.10148 0.45805 0.0
H2045 H 0.96924 0.13716 0.47252 0.0
C2046 C 0.95394 0.08683 0.46284 0.0
C2047 C 0.94874 0.11981 0.4598 0.0
C2048 C 0.93782 0.13608 0.45283 0.0
C2049 C 0.97066 0.09009 0.47202 0.0
C2050 C 0.97547 0.10838 0.47679 0.0
C2051 C 0.96525 0.12308 0.46941 0.0
C2052 C 0.9882 0.1122 0.49233 0.0
C2053 C 0.98225 0.07383 0.47786 0.0
C2054 C 0.984 0.10486 0.50975 0.0
C2055 C 0.99459 0.10944 0.52511 0.0
C2056 C 0.00962 0.12157 0.52346 0.0
C2057 C 0.01398 0.12883 0.50595 0.0
C2058 C 0.00323 0.1243 0.49051 0.0
H2059 H 0.98133 0.06254 0.46753 0.0
H2060 H 0.99696 0.07776 0.47966 0.0
H2061 H 0.97696 0.06837 0.49116 0.0
H2062 H 0.97215 0.09593 0.5116 0.0
H2063 H 0.9908 0.10359 0.53834 0.0
loop_
_geom_bond_atom_site_label_1
_geom_bond_atom_site_label_2
_geom_bond_distance
_geom_bond_site_symmetry_2
_ccdc_geom_bond_type
Zn0 O3 2.031 . S
Zn0 O5 2.049 . S
Zn0 O10 2.067 . S
Zn1 O2 1.962 . S
Zn1 O4 1.986 . S
Zn1 O6 1.996 . S
Zn1 O9 1.943 . S
O2 Zn1 1.962 . S
O2 C7 1.254 . S
O3 Zn0 2.031 . S
O3 C7 1.269 . S
O4 Zn1 1.986 . S
O4 C11 1.262 . S
O5 Zn0 2.049 . S
O5 C13 1.260 . S
O6 Zn1 1.996 . S
O6 C13 1.257 . S
C7 O2 1.254 . S
C7 O3 1.269 . S
C8 O9 1.249 . S
C8 O10 1.270 . S
O9 Zn1 1.943 . S
O9 C8 1.249 . S
O10 Zn0 2.067 . S
O10 C8 1.270 . S
C11 O4 1.262 . S
C11 O12 1.232 . S
O12 C11 1.232 . S
C13 O5 1.260 . S
C13 O6 1.257 . S
Zn14 O17 2.031 . S
Zn14 O19 2.049 . S
Zn14 O24 2.067 . S
Zn15 O16 1.962 . S
Zn15 O18 1.986 . S
Zn15 O20 1.996 . S
Zn15 O23 1.943 . S
O16 Zn15 1.962 . S
O16 C21 1.254 . S
O17 Zn14 2.031 . S
O17 C21 1.269 . S
O18 Zn15 1.986 . S
O18 C25 1.262 . S
O19 Zn14 2.049 . S
O19 C27 1.260 . S
O20 Zn15 1.996 . S
O20 C27 1.257 . S
C21 O16 1.254 . S
C21 O17 1.269 . S
C22 O23 1.249 . S
C22 O24 1.270 . S
O23 Zn15 1.943 . S
O23 C22 1.249 . S
O24 Zn14 2.067 . S
O24 C22 1.270 . S
C25 O18 1.262 . S
C25 O26 1.232 . S
O26 C25 1.232 . S
C27 O19 1.260 . S
C27 O20 1.257 . S
Zn28 O31 2.031 . S
Zn28 O33 2.049 . S
Zn28 O38 2.067 . S
Zn29 O30 1.962 . S
Zn29 O32 1.986 . S
Zn29 O34 1.996 . S
Zn29 O37 1.943 . S
O30 Zn29 1.962 . S
O30 C35 1.254 . S
O31 Zn28 2.031 . S
O31 C35 1.269 . S
O32 Zn29 1.986 . S
O32 C39 1.262 . S
O33 Zn28 2.049 . S
O33 C41 1.260 . S
O34 Zn29 1.996 . S
O34 C41 1.257 . S
C35 O30 1.254 . S
C35 O31 1.269 . S
C36 O37 1.249 . S
C36 O38 1.270 . S
O37 Zn29 1.943 . S
O37 C36 1.249 . S
O38 Zn28 2.067 . S
O38 C36 1.270 . S
C39 O32 1.262 . S
C39 O40 1.232 . S
O40 C39 1.232 . S
C41 O33 1.260 . S
C41 O34 1.257 . S
Zn42 O45 2.031 . S
Zn42 O47 2.049 . S
Zn42 O52 2.067 . S
Zn43 O44 1.962 . S
Zn43 O46 1.986 . S
Zn43 O48 1.996 . S
Zn43 O51 1.943 . S
O44 Zn43 1.962 . S
O44 C49 1.254 . S
O45 Zn42 2.031 . S
O45 C49 1.269 . S
O46 Zn43 1.986 . S
O46 C53 1.262 . S
O47 Zn42 2.049 . S
O47 C55 1.260 . S
O48 Zn43 1.996 . S
O48 C55 1.257 . S
C49 O44 1.254 . S
C49 O45 1.269 . S
C50 O51 1.249 . S
C50 O52 1.270 . S
O51 Zn43 1.943 . S
O51 C50 1.249 . S
O52 Zn42 2.067 . S
O52 C50 1.270 . S
C53 O46 1.262 . S
C53 O54 1.232 . S
O54 C53 1.232 . S
C55 O47 1.260 . S
C55 O48 1.257 . S
Zn56 O59 2.031 . S
Zn56 O61 2.049 . S
Zn56 O66 2.067 . S
Zn57 O58 1.962 . S
Zn57 O60 1.986 . S
Zn57 O62 1.996 . S
Zn57 O65 1.943 . S
O58 Zn57 1.962 . S
O58 C63 1.254 . S
O59 Zn56 2.031 . S
O59 C63 1.269 . S
O60 Zn57 1.986 . S
O60 C67 1.262 . S
O61 Zn56 2.049 . S
O61 C69 1.260 . S
O62 Zn57 1.996 . S
O62 C69 1.257 . S
C63 O58 1.254 . S
C63 O59 1.269 . S
C64 O65 1.249 . S
C64 O66 1.270 . S
O65 Zn57 1.943 . S
O65 C64 1.249 . S
O66 Zn56 2.067 . S
O66 C64 1.270 . S
C67 O60 1.262 . S
C67 O68 1.232 . S
O68 C67 1.232 . S
C69 O61 1.260 . S
C69 O62 1.257 . S
Zn70 O73 2.031 . S
Zn70 O75 2.049 . S
Zn70 O80 2.067 . S
Zn71 O72 1.962 . S
Zn71 O74 1.986 . S
Zn71 O76 1.996 . S
Zn71 O79 1.943 . S
O72 Zn71 1.962 . S
O72 C77 1.254 . S
O73 Zn70 2.031 . S
O73 C77 1.269 . S
O74 Zn71 1.986 . S
O74 C81 1.262 . S
O75 Zn70 2.049 . S
O75 C83 1.260 . S
O76 Zn71 1.996 . S
O76 C83 1.257 . S
C77 O72 1.254 . S
C77 O73 1.269 . S
C78 O79 1.249 . S
C78 O80 1.270 . S
O79 Zn71 1.943 . S
O79 C78 1.249 . S
O80 Zn70 2.067 . S
O80 C78 1.270 . S
C81 O74 1.262 . S
C81 O82 1.232 . S
O82 C81 1.232 . S
C83 O75 1.260 . S
C83 O76 1.257 . S
Zn84 O87 2.031 . S
Zn84 O89 2.049 . S
Zn84 O94 2.067 . S
Zn85 O86 1.962 . S
Zn85 O88 1.986 . S
Zn85 O90 1.996 . S
Zn85 O93 1.943 . S
O86 Zn85 1.962 . S
O86 C91 1.254 . S
O87 Zn84 2.031 . S
O87 C91 1.269 . S
O88 Zn85 1.986 . S
O88 C95 1.262 . S
O89 Zn84 2.049 . S
O89 C97 1.260 . S
O90 Zn85 1.996 . S
O90 C97 1.257 . S
C91 O86 1.254 . S
C91 O87 1.269 . S
C92 O93 1.249 . S
C92 O94 1.270 . S
O93 Zn85 1.943 . S
O93 C92 1.249 . S
O94 Zn84 2.067 . S
O94 C92 1.270 . S
C95 O88 1.262 . S
C95 O96 1.232 . S
O96 C95 1.232 . S
C97 O89 1.260 . S
C97 O90 1.257 . S
Zn98 O101 2.031 . S
Zn98 O103 2.049 . S
Zn98 O108 2.067 . S
Zn99 O100 1.962 . S
Zn99 O102 1.986 . S
Zn99 O104 1.996 . S
Zn99 O107 1.943 . S
O100 Zn99 1.962 . S
O100 C105 1.254 . S
O101 Zn98 2.031 . S
O101 C105 1.269 . S
O102 Zn99 1.986 . S
O102 C109 1.262 . S
O103 Zn98 2.049 . S
O103 C111 1.260 . S
O104 Zn99 1.996 . S
O104 C111 1.257 . S
C105 O100 1.254 . S
C105 O101 1.269 . S
C106 O107 1.249 . S
C106 O108 1.270 . S
O107 Zn99 1.943 . S
O107 C106 1.249 . S
O108 Zn98 2.067 . S
O108 C106 1.270 . S
C109 O102 1.262 . S
C109 O110 1.232 . S
O110 C109 1.232 . S
C111 O103 1.260 . S
C111 O104 1.257 . S
Zn112 O115 2.031 . S
Zn112 O117 2.049 . S
Zn112 O122 2.067 . S
Zn113 O114 1.962 . S
Zn113 O116 1.986 . S
Zn113 O118 1.996 . S
Zn113 O121 1.943 . S
O114 Zn113 1.962 . S
O114 C119 1.254 . S
O115 Zn112 2.031 . S
O115 C119 1.269 . S
O116 Zn113 1.986 . S
O116 C123 1.262 . S
O117 Zn112 2.049 . S
O117 C125 1.260 . S
O118 Zn113 1.996 . S
O118 C125 1.257 . S
C119 O114 1.254 . S
C119 O115 1.269 . S
C120 O121 1.249 . S
C120 O122 1.270 . S
O121 Zn113 1.943 . S
O121 C120 1.249 . S
O122 Zn112 2.067 . S
O122 C120 1.270 . S
C123 O116 1.262 . S
C123 O124 1.232 . S
O124 C123 1.232 . S
C125 O117 1.260 . S
C125 O118 1.257 . S
Zn126 O129 2.031 . S
Zn126 O131 2.049 . S
Zn126 O136 2.067 . S
Zn127 O128 1.962 . S
Zn127 O130 1.986 . S
Zn127 O132 1.996 . S
Zn127 O135 1.943 . S
O128 Zn127 1.962 . S
O128 C133 1.254 . S
O129 Zn126 2.031 . S
O129 C133 1.269 . S
O130 Zn127 1.986 . S
O130 C137 1.262 . S
O131 Zn126 2.049 . S
O131 C139 1.260 . S
O132 Zn127 1.996 . S
O132 C139 1.257 . S
C133 O128 1.254 . S
C133 O129 1.269 . S
C134 O135 1.249 . S
C134 O136 1.270 . S
O135 Zn127 1.943 . S
O135 C134 1.249 . S
O136 Zn126 2.067 . S
O136 C134 1.270 . S
C137 O130 1.262 . S
C137 O138 1.232 . S
O138 C137 1.232 . S
C139 O131 1.260 . S
C139 O132 1.257 . S
Zn140 O143 2.031 . S
Zn140 O145 2.049 . S
Zn140 O150 2.067 . S
Zn141 O142 1.962 . S
Zn141 O144 1.986 . S
Zn141 O146 1.996 . S
Zn141 O149 1.943 . S
O142 Zn141 1.962 . S
O142 C147 1.254 . S
O143 Zn140 2.031 . S
O143 C147 1.269 . S
O144 Zn141 1.986 . S
O144 C151 1.262 . S
O145 Zn140 2.049 . S
O145 C153 1.260 . S
O146 Zn141 1.996 . S
O146 C153 1.257 . S
C147 O142 1.254 . S
C147 O143 1.269 . S
C148 O149 1.249 . S
C148 O150 1.270 . S
O149 Zn141 1.943 . S
O149 C148 1.249 . S
O150 Zn140 2.067 . S
O150 C148 1.270 . S
C151 O144 1.262 . S
C151 O152 1.232 . S
O152 C151 1.232 . S
C153 O145 1.260 . S
C153 O146 1.257 . S
Zn154 O157 2.031 . S
Zn154 O159 2.049 . S
Zn154 O164 2.067 . S
Zn155 O156 1.962 . S
Zn155 O158 1.986 . S
Zn155 O160 1.996 . S
Zn155 O163 1.943 . S
O156 Zn155 1.962 . S
O156 C161 1.254 . S
O157 Zn154 2.031 . S
O157 C161 1.269 . S
O158 Zn155 1.986 . S
O158 C165 1.262 . S
O159 Zn154 2.049 . S
O159 C167 1.260 . S
O160 Zn155 1.996 . S
O160 C167 1.257 . S
C161 O156 1.254 . S
C161 O157 1.269 . S
C162 O163 1.249 . S
C162 O164 1.270 . S
O163 Zn155 1.943 . S
O163 C162 1.249 . S
O164 Zn154 2.067 . S
O164 C162 1.270 . S
C165 O158 1.262 . S
C165 O166 1.232 . S
O166 C165 1.232 . S
C167 O159 1.260 . S
C167 O160 1.257 . S
Zn168 O171 2.031 . S
Zn168 O173 2.049 . S
Zn168 O178 2.067 . S
Zn169 O170 1.962 . S
Zn169 O172 1.986 . S
Zn169 O174 1.996 . S
Zn169 O177 1.943 . S
O170 Zn169 1.962 . S
O170 C175 1.254 . S
O171 Zn168 2.031 . S
O171 C175 1.269 . S
O172 Zn169 1.986 . S
O172 C179 1.262 . S
O173 Zn168 2.049 . S
O173 C181 1.260 . S
O174 Zn169 1.996 . S
O174 C181 1.257 . S
C175 O170 1.254 . S
C175 O171 1.269 . S
C176 O177 1.249 . S
C176 O178 1.270 . S
O177 Zn169 1.943 . S
O177 C176 1.249 . S
O178 Zn168 2.067 . S
O178 C176 1.270 . S
C179 O172 1.262 . S
C179 O180 1.232 . S
O180 C179 1.232 . S
C181 O173 1.260 . S
C181 O174 1.257 . S
Zn182 O185 2.031 . S
Zn182 O187 2.049 . S
Zn182 O192 2.067 . S
Zn183 O184 1.962 . S
Zn183 O186 1.986 . S
Zn183 O188 1.996 . S
Zn183 O191 1.943 . S
O184 Zn183 1.962 . S
O184 C189 1.254 . S
O185 Zn182 2.031 . S
O185 C189 1.269 . S
O186 Zn183 1.986 . S
O186 C193 1.262 . S
O187 Zn182 2.049 . S
O187 C195 1.260 . S
O188 Zn183 1.996 . S
O188 C195 1.257 . S
C189 O184 1.254 . S
C189 O185 1.269 . S
C190 O191 1.249 . S
C190 O192 1.270 . S
O191 Zn183 1.943 . S
O191 C190 1.249 . S
O192 Zn182 2.067 . S
O192 C190 1.270 . S
C193 O186 1.262 . S
C193 O194 1.232 . S
O194 C193 1.232 . S
C195 O187 1.260 . S
C195 O188 1.257 . S
Zn196 O199 2.031 . S
Zn196 O201 2.049 . S
Zn196 O206 2.067 . S
Zn197 O198 1.962 . S
Zn197 O200 1.986 . S
Zn197 O202 1.996 . S
Zn197 O205 1.943 . S
O198 Zn197 1.962 . S
O198 C203 1.254 . S
O199 Zn196 2.031 . S
O199 C203 1.269 . S
O200 Zn197 1.986 . S
O200 C207 1.262 . S
O201 Zn196 2.049 . S
O201 C209 1.260 . S
O202 Zn197 1.996 . S
O202 C209 1.257 . S
C203 O198 1.254 . S
C203 O199 1.269 . S
C204 O205 1.249 . S
C204 O206 1.270 . S
O205 Zn197 1.943 . S
O205 C204 1.249 . S
O206 Zn196 2.067 . S
O206 C204 1.270 . S
C207 O200 1.262 . S
C207 O208 1.232 . S
O208 C207 1.232 . S
C209 O201 1.260 . S
C209 O202 1.257 . S
Zn210 O213 2.031 . S
Zn210 O215 2.049 . S
Zn210 O220 2.067 . S
Zn211 O212 1.962 . S
Zn211 O214 1.986 . S
Zn211 O216 1.996 . S
Zn211 O219 1.943 . S
O212 Zn211 1.962 . S
O212 C217 1.254 . S
O213 Zn210 2.031 . S
O213 C217 1.269 . S
O214 Zn211 1.986 . S
O214 C221 1.262 . S
O215 Zn210 2.049 . S
O215 C223 1.260 . S
O216 Zn211 1.996 . S
O216 C223 1.257 . S
C217 O212 1.254 . S
C217 O213 1.269 . S
C218 O219 1.249 . S
C218 O220 1.270 . S
O219 Zn211 1.943 . S
O219 C218 1.249 . S
O220 Zn210 2.067 . S
O220 C218 1.270 . S
C221 O214 1.262 . S
C221 O222 1.232 . S
O222 C221 1.232 . S
C223 O215 1.260 . S
C223 O216 1.257 . S
Zn224 O227 2.031 . S
Zn224 O229 2.049 . S
Zn224 O234 2.067 . S
Zn225 O226 1.962 . S
Zn225 O228 1.986 . S
Zn225 O230 1.996 . S
Zn225 O233 1.943 . S
O226 Zn225 1.962 . S
O226 C231 1.254 . S
O227 Zn224 2.031 . S
O227 C231 1.269 . S
O228 Zn225 1.986 . S
O228 C235 1.262 . S
O229 Zn224 2.049 . S
O229 C237 1.260 . S
O230 Zn225 1.996 . S
O230 C237 1.257 . S
C231 O226 1.254 . S
C231 O227 1.269 . S
C232 O233 1.249 . S
C232 O234 1.270 . S
O233 Zn225 1.943 . S
O233 C232 1.249 . S
O234 Zn224 2.067 . S
O234 C232 1.270 . S
C235 O228 1.262 . S
C235 O236 1.232 . S
O236 C235 1.232 . S
C237 O229 1.260 . S
C237 O230 1.257 . S
Zn238 O241 2.031 . S
Zn238 O243 2.049 . S
Zn238 O248 2.067 . S
Zn239 O240 1.962 . S
Zn239 O242 1.986 . S
Zn239 O244 1.996 . S
Zn239 O247 1.943 . S
O240 Zn239 1.962 . S
O240 C245 1.254 . S
O241 Zn238 2.031 . S
O241 C245 1.269 . S
O242 Zn239 1.986 . S
O242 C249 1.262 . S
O243 Zn238 2.049 . S
O243 C251 1.260 . S
O244 Zn239 1.996 . S
O244 C251 1.257 . S
C245 O240 1.254 . S
C245 O241 1.269 . S
C246 O247 1.249 . S
C246 O248 1.270 . S
O247 Zn239 1.943 . S
O247 C246 1.249 . S
O248 Zn238 2.067 . S
O248 C246 1.270 . S
C249 O242 1.262 . S
C249 O250 1.232 . S
O250 C249 1.232 . S
C251 O243 1.260 . S
C251 O244 1.257 . S
Zn252 O255 2.031 . S
Zn252 O257 2.049 . S
Zn252 O262 2.067 . S
Zn253 O254 1.962 . S
Zn253 O256 1.986 . S
Zn253 O258 1.996 . S
Zn253 O261 1.943 . S
O254 Zn253 1.962 . S
O254 C259 1.254 . S
O255 Zn252 2.031 . S
O255 C259 1.269 . S
O256 Zn253 1.986 . S
O256 C263 1.262 . S
O257 Zn252 2.049 . S
O257 C265 1.260 . S
O258 Zn253 1.996 . S
O258 C265 1.257 . S
C259 O254 1.254 . S
C259 O255 1.269 . S
C260 O261 1.249 . S
C260 O262 1.270 . S
O261 Zn253 1.943 . S
O261 C260 1.249 . S
O262 Zn252 2.067 . S
O262 C260 1.270 . S
C263 O256 1.262 . S
C263 O264 1.232 . S
O264 C263 1.232 . S
C265 O257 1.260 . S
C265 O258 1.257 . S
Zn266 O269 2.031 . S
Zn266 O271 2.049 . S
Zn266 O276 2.067 . S
Zn267 O268 1.962 . S
Zn267 O270 1.986 . S
Zn267 O272 1.996 . S
Zn267 O275 1.943 . S
O268 Zn267 1.962 . S
O268 C273 1.254 . S
O269 Zn266 2.031 . S
O269 C273 1.269 . S
O270 Zn267 1.986 . S
O270 C277 1.262 . S
O271 Zn266 2.049 . S
O271 C279 1.260 . S
O272 Zn267 1.996 . S
O272 C279 1.257 . S
C273 O268 1.254 . S
C273 O269 1.269 . S
C274 O275 1.249 . S
C274 O276 1.270 . S
O275 Zn267 1.943 . S
O275 C274 1.249 . S
O276 Zn266 2.067 . S
O276 C274 1.270 . S
C277 O270 1.262 . S
C277 O278 1.232 . S
O278 C277 1.232 . S
C279 O271 1.260 . S
C279 O272 1.257 . S
Zn280 O283 2.031 . S
Zn280 O285 2.049 . S
Zn280 O290 2.067 . S
Zn281 O282 1.962 . S
Zn281 O284 1.986 . S
Zn281 O286 1.996 . S
Zn281 O289 1.943 . S
O282 Zn281 1.962 . S
O282 C287 1.254 . S
O283 Zn280 2.031 . S
O283 C287 1.269 . S
O284 Zn281 1.986 . S
O284 C291 1.262 . S
O285 Zn280 2.049 . S
O285 C293 1.260 . S
O286 Zn281 1.996 . S
O286 C293 1.257 . S
C287 O282 1.254 . S
C287 O283 1.269 . S
C288 O289 1.249 . S
C288 O290 1.270 . S
O289 Zn281 1.943 . S
O289 C288 1.249 . S
O290 Zn280 2.067 . S
O290 C288 1.270 . S
C291 O284 1.262 . S
C291 O292 1.232 . S
O292 C291 1.232 . S
C293 O285 1.260 . S
C293 O286 1.257 . S
Zn294 O297 2.031 . S
Zn294 O299 2.049 . S
Zn294 O304 2.067 . S
Zn295 O296 1.962 . S
Zn295 O298 1.986 . S
Zn295 O300 1.996 . S
Zn295 O303 1.943 . S
O296 Zn295 1.962 . S
O296 C301 1.254 . S
O297 Zn294 2.031 . S
O297 C301 1.269 . S
O298 Zn295 1.986 . S
O298 C305 1.262 . S
O299 Zn294 2.049 . S
O299 C307 1.260 . S
O300 Zn295 1.996 . S
O300 C307 1.257 . S
C301 O296 1.254 . S
C301 O297 1.269 . S
C302 O303 1.249 . S
C302 O304 1.270 . S
O303 Zn295 1.943 . S
O303 C302 1.249 . S
O304 Zn294 2.067 . S
O304 C302 1.270 . S
C305 O298 1.262 . S
C305 O306 1.232 . S
O306 C305 1.232 . S
C307 O299 1.260 . S
C307 O300 1.257 . S
Zn308 O311 2.031 . S
Zn308 O313 2.049 . S
Zn308 O318 2.067 . S
Zn309 O310 1.962 . S
Zn309 O312 1.986 . S
Zn309 O314 1.996 . S
Zn309 O317 1.943 . S
O310 Zn309 1.962 . S
O310 C315 1.254 . S
O311 Zn308 2.031 . S
O311 C315 1.269 . S
O312 Zn309 1.986 . S
O312 C319 1.262 . S
O313 Zn308 2.049 . S
O313 C321 1.260 . S
O314 Zn309 1.996 . S
O314 C321 1.257 . S
C315 O310 1.254 . S
C315 O311 1.269 . S
C316 O317 1.249 . S
C316 O318 1.270 . S
O317 Zn309 1.943 . S
O317 C316 1.249 . S
O318 Zn308 2.067 . S
O318 C316 1.270 . S
C319 O312 1.262 . S
C319 O320 1.232 . S
O320 C319 1.232 . S
C321 O313 1.260 . S
C321 O314 1.257 . S
Zn322 O325 2.031 . S
Zn322 O327 2.049 . S
Zn322 O332 2.067 . S
Zn323 O324 1.962 . S
Zn323 O326 1.986 . S
Zn323 O328 1.996 . S
Zn323 O331 1.943 . S
O324 Zn323 1.962 . S
O324 C329 1.254 . S
O325 Zn322 2.031 . S
O325 C329 1.269 . S
O326 Zn323 1.986 . S
O326 C333 1.262 . S
O327 Zn322 2.049 . S
O327 C335 1.260 . S
O328 Zn323 1.996 . S
O328 C335 1.257 . S
C329 O324 1.254 . S
C329 O325 1.269 . S
C330 O331 1.249 . S
C330 O332 1.270 . S
O331 Zn323 1.943 . S
O331 C330 1.249 . S
O332 Zn322 2.067 . S
O332 C330 1.270 . S
C333 O326 1.262 . S
C333 O334 1.232 . S
O334 C333 1.232 . S
C335 O327 1.260 . S
C335 O328 1.257 . S
H336 C344 0.929 . S
H337 C346 0.930 . S
H338 C348 0.930 . S
H339 C351 0.929 . S
H340 C354 0.930 . S
H341 C356 0.960 . S
H342 C356 0.960 . S
H343 C356 0.960 . S
C344 H336 0.929 . S
C344 C345 1.377 . S
C344 C346 1.384 . S
C345 C344 1.377 . S
C345 C351 1.390 . S
C346 H337 0.930 . S
C346 C344 1.384 . S
C346 C347 1.372 . S
C347 C346 1.372 . S
C347 C348 1.400 . S
C347 C352 1.490 . S
C348 H338 0.930 . S
C348 C347 1.400 . S
C348 C351 1.386 . S
H349 C365 0.930 . S
H350 C366 0.931 . S
C351 H339 0.929 . S
C351 C345 1.390 . S
C351 C348 1.386 . S
C352 C347 1.490 . S
C352 C354 1.395 . S
C352 C355 1.403 . S
H353 C359 0.930 . S
C354 H340 0.930 . S
C354 C352 1.395 . S
C354 C357 1.403 . S
C355 C352 1.403 . S
C355 C356 1.524 . S
C355 C359 1.400 . S
C356 H341 0.960 . S
C356 H342 0.960 . S
C356 H343 0.960 . S
C356 C355 1.524 . S
C357 C354 1.403 . S
C357 C358 1.392 . S
C357 C361 1.495 . S
C358 C357 1.392 . S
C358 C359 1.385 . S
C358 C360 1.478 . S
C359 H353 0.930 . S
C359 C355 1.400 . S
C359 C358 1.385 . S
C360 C358 1.478 . S
C360 C362 1.381 . S
C360 C366 1.383 . S
C361 C357 1.495 . S
C361 H367 0.959 . S
C361 H368 0.961 . S
C361 H369 0.960 . S
C362 C360 1.381 . S
C362 C363 1.394 . S
C362 H370 0.930 . S
C363 C362 1.394 . S
C363 C364 1.383 . S
C363 H371 0.929 . S
C364 C363 1.383 . S
C364 C365 1.377 . S
C365 H349 0.930 . S
C365 C364 1.377 . S
C365 C366 1.379 . S
C366 H350 0.931 . S
C366 C360 1.383 . S
C366 C365 1.379 . S
H367 C361 0.959 . S
H368 C361 0.961 . S
H369 C361 0.960 . S
H370 C362 0.930 . S
H371 C363 0.929 . S
H372 C380 0.929 . S
H373 C382 0.930 . S
H374 C384 0.930 . S
H375 C387 0.929 . S
H376 C390 0.930 . S
H377 C392 0.960 . S
H378 C392 0.960 . S
H379 C392 0.920 1_655 S
C380 H372 0.929 . S
C380 C381 1.377 1_455 S
C380 C382 1.384 . S
C381 C380 1.377 1_655 S
C381 C387 1.390 . S
C382 H373 0.930 . S
C382 C380 1.384 . S
C382 C383 1.372 . S
C383 C382 1.372 . S
C383 C384 1.400 1_455 S
C383 C388 1.490 . S
C384 H374 0.930 . S
C384 C383 1.400 1_655 S
C384 C387 1.386 . S
H385 C401 0.930 . S
H386 C402 0.931 . S
C387 H375 0.929 . S
C387 C381 1.390 . S
C387 C384 1.386 . S
C388 C383 1.490 . S
C388 C390 1.395 . S
C388 C391 1.403 . S
H389 C395 0.930 . S
C390 H376 0.930 . S
C390 C388 1.395 . S
C390 C393 1.403 . S
C391 C388 1.403 . S
C391 C392 1.524 . S
C391 C395 1.400 . S
C392 H377 0.960 . S
C392 H378 0.960 . S
C392 H379 0.920 1_455 S
C392 C391 1.524 . S
C393 C390 1.403 . S
C393 C394 1.392 . S
C393 C397 1.495 . S
C394 C393 1.392 . S
C394 C395 1.385 . S
C394 C396 1.478 . S
C395 H389 0.930 . S
C395 C391 1.400 . S
C395 C394 1.385 . S
C396 C394 1.478 . S
C396 C398 1.381 . S
C396 C402 1.383 . S
C397 C393 1.495 . S
C397 H403 0.959 . S
C397 H404 0.961 . S
C397 H405 0.960 . S
C398 C396 1.381 . S
C398 C399 1.394 . S
C398 H406 0.930 . S
C399 C398 1.394 . S
C399 C400 1.383 . S
C399 H407 0.929 . S
C400 C399 1.383 . S
C400 C401 1.377 . S
C401 H385 0.930 . S
C401 C400 1.377 . S
C401 C402 1.379 . S
C402 H386 0.931 . S
C402 C396 1.383 . S
C402 C401 1.379 . S
H403 C397 0.959 . S
H404 C397 0.961 . S
H405 C397 0.960 . S
H406 C398 0.930 . S
H407 C399 0.929 . S
H408 C416 0.929 . S
H409 C418 0.930 . S
H410 C420 0.930 . S
H411 C423 0.929 . S
H412 C426 0.930 . S
H413 C428 0.960 . S
H414 C428 0.960 . S
H415 C428 0.960 . S
C416 H408 0.929 . S
C416 C417 1.377 . S
C416 C418 1.384 . S
C417 C416 1.377 . S
C417 C423 1.390 . S
C418 H409 0.930 . S
C418 C416 1.384 . S
C418 C419 1.372 . S
C419 C418 1.372 . S
C419 C420 1.400 . S
C419 C424 1.490 . S
C420 H410 0.930 . S
C420 C419 1.400 . S
C420 C423 1.386 . S
H421 C437 0.930 . S
H422 C438 0.931 . S
C423 H411 0.929 . S
C423 C417 1.390 . S
C423 C420 1.386 . S
C424 C419 1.490 . S
C424 C426 1.395 . S
C424 C427 1.403 . S
H425 C431 0.930 . S
C426 H412 0.930 . S
C426 C424 1.395 . S
C426 C429 1.403 . S
C427 C424 1.403 . S
C427 C428 1.524 . S
C427 C431 1.400 . S
C428 H413 0.960 . S
C428 H414 0.960 . S
C428 H415 0.960 . S
C428 C427 1.524 . S
C429 C426 1.403 . S
C429 C430 1.392 . S
C429 C433 1.495 . S
C430 C429 1.392 . S
C430 C431 1.385 . S
C430 C432 1.478 . S
C431 H425 0.930 . S
C431 C427 1.400 . S
C431 C430 1.385 . S
C432 C430 1.478 . S
C432 C434 1.381 . S
C432 C438 1.383 1_556 S
C433 C429 1.495 . S
C433 H439 0.959 . S
C433 H440 0.961 1_556 S
C433 H441 0.960 . S
C434 C432 1.381 . S
C434 C435 1.394 1_556 S
C434 H442 0.930 . S
C435 C434 1.394 1_554 S
C435 C436 1.383 . S
C435 H443 0.929 . S
C436 C435 1.383 . S
C436 C437 1.377 . S
C437 H421 0.930 . S
C437 C436 1.377 . S
C437 C438 1.379 . S
C438 H422 0.931 . S
C438 C432 1.383 1_554 S
C438 C437 1.379 . S
H439 C433 0.959 . S
H440 C433 0.961 1_554 S
H441 C433 0.960 . S
H442 C434 0.930 . S
H443 C435 0.929 . S
H444 C452 0.929 . S
H445 C454 0.930 . S
H446 C456 0.930 . S
H447 C459 0.929 . S
H448 C462 0.930 . S
H449 C464 0.960 . S
H450 C464 0.960 . S
H451 C464 0.960 . S
C452 H444 0.929 . S
C452 C453 1.377 . S
C452 C454 1.384 . S
C453 C452 1.377 . S
C453 C459 1.390 . S
C454 H445 0.930 . S
C454 C452 1.384 . S
C454 C455 1.372 . S
C455 C454 1.372 . S
C455 C456 1.400 . S
C455 C460 1.490 . S
C456 H446 0.930 . S
C456 C455 1.400 . S
C456 C459 1.386 . S
H457 C473 0.930 . S
H458 C474 0.931 . S
C459 H447 0.929 . S
C459 C453 1.390 . S
C459 C456 1.386 . S
C460 C455 1.490 . S
C460 C462 1.395 . S
C460 C463 1.403 . S
H461 C467 0.930 . S
C462 H448 0.930 . S
C462 C460 1.395 . S
C462 C465 1.403 . S
C463 C460 1.403 . S
C463 C464 1.524 . S
C463 C467 1.400 . S
C464 H449 0.960 . S
C464 H450 0.960 . S
C464 H451 0.960 . S
C464 C463 1.524 . S
C465 C462 1.403 . S
C465 C466 1.392 . S
C465 C469 1.495 . S
C466 C465 1.392 . S
C466 C467 1.385 . S
C466 C468 1.478 . S
C467 H461 0.930 . S
C467 C463 1.400 . S
C467 C466 1.385 . S
C468 C466 1.478 . S
C468 C470 1.381 . S
C468 C474 1.383 . S
C469 C465 1.495 . S
C469 H475 0.959 . S
C469 H476 0.961 . S
C469 H477 0.960 . S
C470 C468 1.381 . S
C470 C471 1.394 . S
C470 H478 0.930 . S
C471 C470 1.394 . S
C471 C472 1.383 . S
C471 H479 0.929 . S
C472 C471 1.383 . S
C472 C473 1.377 . S
C473 H457 0.930 . S
C473 C472 1.377 . S
C473 C474 1.379 . S
C474 H458 0.931 . S
C474 C468 1.383 . S
C474 C473 1.379 . S
H475 C469 0.959 . S
H476 C469 0.961 . S
H477 C469 0.960 . S
H478 C470 0.930 . S
H479 C471 0.929 . S
H480 C488 0.929 . S
H481 C490 0.930 . S
H482 C492 0.930 . S
H483 C495 0.929 . S
H484 C498 0.930 . S
H485 C500 0.960 . S
H486 C500 0.960 . S
H487 C500 0.960 . S
C488 H480 0.929 . S
C488 C489 1.377 . S
C488 C490 1.384 . S
C489 C488 1.377 . S
C489 C495 1.390 . S
C490 H481 0.930 . S
C490 C488 1.384 . S
C490 C491 1.372 . S
C491 C490 1.372 . S
C491 C492 1.400 . S
C491 C496 1.490 . S
C492 H482 0.930 . S
C492 C491 1.400 . S
C492 C495 1.386 . S
H493 C509 0.930 . S
H494 C510 0.931 . S
C495 H483 0.929 . S
C495 C489 1.390 . S
C495 C492 1.386 . S
C496 C491 1.490 . S
C496 C498 1.395 . S
C496 C499 1.403 . S
H497 C503 0.930 . S
C498 H484 0.930 . S
C498 C496 1.395 . S
C498 C501 1.403 . S
C499 C496 1.403 . S
C499 C500 1.524 . S
C499 C503 1.400 . S
C500 H485 0.960 . S
C500 H486 0.960 . S
C500 H487 0.960 . S
C500 C499 1.524 . S
C501 C498 1.403 . S
C501 C502 1.392 . S
C501 C505 1.495 . S
C502 C501 1.392 . S
C502 C503 1.385 . S
C502 C504 1.478 . S
C503 H497 0.930 . S
C503 C499 1.400 . S
C503 C502 1.385 . S
C504 C502 1.478 . S
C504 C506 1.381 . S
C504 C510 1.383 . S
C505 C501 1.495 . S
C505 H511 0.959 . S
C505 H512 0.961 . S
C505 H513 0.960 . S
C506 C504 1.381 . S
C506 C507 1.394 . S
C506 H514 0.930 . S
C507 C506 1.394 . S
C507 C508 1.383 . S
C507 H515 0.929 . S
C508 C507 1.383 . S
C508 C509 1.377 . S
C509 H493 0.930 . S
C509 C508 1.377 . S
C509 C510 1.379 . S
C510 H494 0.931 . S
C510 C504 1.383 . S
C510 C509 1.379 . S
H511 C505 0.959 . S
H512 C505 0.961 . S
H513 C505 0.960 . S
H514 C506 0.930 . S
H515 C507 0.929 . S
H516 C524 0.929 . S
H517 C526 0.930 . S
H518 C528 0.930 . S
H519 C531 0.929 . S
H520 C534 0.930 . S
H521 C536 0.960 . S
H522 C536 0.960 . S
H523 C536 0.960 . S
C524 H516 0.929 . S
C524 C525 1.377 . S
C524 C526 1.384 . S
C525 C524 1.377 . S
C525 C531 1.390 . S
C526 H517 0.930 . S
C526 C524 1.384 . S
C526 C527 1.372 . S
C527 C526 1.372 . S
C527 C528 1.400 . S
C527 C532 1.490 . S
C528 H518 0.930 . S
C528 C527 1.400 . S
C528 C531 1.386 . S
H529 C545 0.930 . S
H530 C546 0.931 . S
C531 H519 0.929 . S
C531 C525 1.390 . S
C531 C528 1.386 . S
C532 C527 1.490 . S
C532 C534 1.395 . S
C532 C535 1.403 . S
H533 C539 0.930 . S
C534 H520 0.930 . S
C534 C532 1.395 . S
C534 C537 1.403 . S
C535 C532 1.403 . S
C535 C536 1.524 . S
C535 C539 1.400 . S
C536 H521 0.960 . S
C536 H522 0.960 . S
C536 H523 0.960 . S
C536 C535 1.524 . S
C537 C534 1.403 . S
C537 C538 1.392 . S
C537 C541 1.495 . S
C538 C537 1.392 . S
C538 C539 1.385 . S
C538 C540 1.478 . S
C539 H533 0.930 . S
C539 C535 1.400 . S
C539 C538 1.385 . S
C540 C538 1.478 . S
C540 C542 1.381 . S
C540 C546 1.383 1_655 S
C541 C537 1.495 . S
C541 H547 0.959 . S
C541 H548 0.961 . S
C541 H549 0.960 . S
C542 C540 1.381 . S
C542 C543 1.394 . S
C542 H550 0.930 . S
C543 C542 1.394 . S
C543 C544 1.383 1_655 S
C543 H551 0.929 . S
C544 C543 1.383 1_455 S
C544 C545 1.377 . S
C545 H529 0.930 . S
C545 C544 1.377 . S
C545 C546 1.379 . S
C546 H530 0.931 . S
C546 C540 1.383 1_455 S
C546 C545 1.379 . S
H547 C541 0.959 . S
H548 C541 0.961 . S
H549 C541 0.960 . S
H550 C542 0.930 . S
H551 C543 0.929 . S
H552 C560 0.929 . S
H553 C562 0.930 . S
H554 C564 0.930 . S
H555 C567 0.929 . S
H556 C570 0.930 . S
H557 C572 0.960 . S
H558 C572 0.960 . S
H559 C572 0.960 . S
C560 H552 0.929 . S
C560 C561 1.377 . S
C560 C562 1.384 . S
C561 C560 1.377 . S
C561 C567 1.390 . S
C562 H553 0.930 . S
C562 C560 1.384 . S
C562 C563 1.372 . S
C563 C562 1.372 . S
C563 C564 1.400 . S
C563 C568 1.490 . S
C564 H554 0.930 . S
C564 C563 1.400 . S
C564 C567 1.386 . S
H565 C581 0.930 . S
H566 C582 0.931 . S
C567 H555 0.929 . S
C567 C561 1.390 . S
C567 C564 1.386 . S
C568 C563 1.490 . S
C568 C570 1.395 . S
C568 C571 1.403 . S
H569 C575 0.930 . S
C570 H556 0.930 . S
C570 C568 1.395 . S
C570 C573 1.403 . S
C571 C568 1.403 . S
C571 C572 1.524 . S
C571 C575 1.400 . S
C572 H557 0.960 . S
C572 H558 0.960 . S
C572 H559 0.960 . S
C572 C571 1.524 . S
C573 C570 1.403 . S
C573 C574 1.392 . S
C573 C577 1.495 . S
C574 C573 1.392 . S
C574 C575 1.385 . S
C574 C576 1.478 . S
C575 H569 0.930 . S
C575 C571 1.400 . S
C575 C574 1.385 . S
C576 C574 1.478 . S
C576 C578 1.381 . S
C576 C582 1.383 1_554 S
C577 C573 1.495 . S
C577 H583 0.959 . S
C577 H584 0.961 . S
C577 H585 0.960 . S
C578 C576 1.381 . S
C578 C579 1.394 . S
C578 H586 0.930 . S
C579 C578 1.394 . S
C579 C580 1.383 1_554 S
C579 H587 0.929 . S
C580 C579 1.383 1_556 S
C580 C581 1.377 . S
C581 H565 0.930 . S
C581 C580 1.377 . S
C581 C582 1.379 . S
C582 H566 0.931 . S
C582 C576 1.383 1_556 S
C582 C581 1.379 . S
H583 C577 0.959 . S
H584 C577 0.961 . S
H585 C577 0.960 . S
H586 C578 0.930 . S
H587 C579 0.929 . S
H588 C596 0.929 . S
H589 C598 0.930 . S
H590 C600 0.930 . S
H591 C603 0.929 . S
H592 C606 0.930 . S
H593 C608 0.960 . S
H594 C608 0.960 . S
H595 C608 0.960 . S
C596 H588 0.929 . S
C596 C597 1.377 . S
C596 C598 1.384 . S
C597 C596 1.377 . S
C597 C603 1.390 . S
C598 H589 0.930 . S
C598 C596 1.384 . S
C598 C599 1.372 . S
C599 C598 1.372 . S
C599 C600 1.400 . S
C599 C604 1.490 . S
C600 H590 0.930 . S
C600 C599 1.400 . S
C600 C603 1.386 . S
H601 C617 0.930 . S
H602 C618 0.931 . S
C603 H591 0.929 . S
C603 C597 1.390 . S
C603 C600 1.386 . S
C604 C599 1.490 . S
C604 C606 1.395 . S
C604 C607 1.403 . S
H605 C611 0.930 . S
C606 H592 0.930 . S
C606 C604 1.395 . S
C606 C609 1.403 . S
C607 C604 1.403 . S
C607 C608 1.524 . S
C607 C611 1.400 . S
C608 H593 0.960 . S
C608 H594 0.960 . S
C608 H595 0.960 . S
C608 C607 1.524 . S
C609 C606 1.403 . S
C609 C610 1.392 . S
C609 C613 1.495 . S
C610 C609 1.392 . S
C610 C611 1.385 . S
C610 C612 1.478 . S
C611 H605 0.930 . S
C611 C607 1.400 . S
C611 C610 1.385 . S
C612 C610 1.478 . S
C612 C614 1.381 . S
C612 C618 1.383 . S
C613 C609 1.495 . S
C613 H619 0.959 . S
C613 H620 0.961 . S
C613 H621 0.960 . S
C614 C612 1.381 . S
C614 C615 1.394 . S
C614 H622 0.930 . S
C615 C614 1.394 . S
C615 C616 1.383 . S
C615 H623 0.929 . S
C616 C615 1.383 . S
C616 C617 1.377 . S
C617 H601 0.930 . S
C617 C616 1.377 . S
C617 C618 1.379 . S
C618 H602 0.931 . S
C618 C612 1.383 . S
C618 C617 1.379 . S
H619 C613 0.959 . S
H620 C613 0.961 . S
H621 C613 0.960 . S
H622 C614 0.930 . S
H623 C615 0.929 . S
H624 C632 0.929 . S
H625 C634 0.930 . S
H626 C636 0.930 . S
H627 C639 0.929 . S
H628 C642 0.930 . S
H629 C644 0.960 . S
H630 C644 0.960 . S
H631 C644 0.960 . S
C632 H624 0.929 . S
C632 C633 1.377 . S
C632 C634 1.384 . S
C633 C632 1.377 . S
C633 C639 1.390 . S
C634 H625 0.930 . S
C634 C632 1.384 . S
C634 C635 1.372 . S
C635 C634 1.372 . S
C635 C636 1.400 . S
C635 C640 1.490 . S
C636 H626 0.930 . S
C636 C635 1.400 . S
C636 C639 1.386 . S
H637 C653 0.930 . S
H638 C654 0.931 . S
C639 H627 0.929 . S
C639 C633 1.390 . S
C639 C636 1.386 . S
C640 C635 1.490 . S
C640 C642 1.395 . S
C640 C643 1.403 . S
H641 C647 0.930 . S
C642 H628 0.930 . S
C642 C640 1.395 . S
C642 C645 1.403 . S
C643 C640 1.403 . S
C643 C644 1.524 . S
C643 C647 1.400 . S
C644 H629 0.960 . S
C644 H630 0.960 . S
C644 H631 0.960 . S
C644 C643 1.524 . S
C645 C642 1.403 . S
C645 C646 1.392 . S
C645 C649 1.495 . S
C646 C645 1.392 . S
C646 C647 1.385 . S
C646 C648 1.478 . S
C647 H641 0.930 . S
C647 C643 1.400 . S
C647 C646 1.385 . S
C648 C646 1.478 . S
C648 C650 1.381 . S
C648 C654 1.383 . S
C649 C645 1.495 . S
C649 H655 0.959 . S
C649 H656 0.961 . S
C649 H657 0.960 . S
C650 C648 1.381 . S
C650 C651 1.394 . S
C650 H658 0.930 . S
C651 C650 1.394 . S
C651 C652 1.383 . S
C651 H659 0.929 . S
C652 C651 1.383 . S
C652 C653 1.377 . S
C653 H637 0.930 . S
C653 C652 1.377 . S
C653 C654 1.379 . S
C654 H638 0.931 . S
C654 C648 1.383 . S
C654 C653 1.379 . S
H655 C649 0.959 . S
H656 C649 0.961 . S
H657 C649 0.960 . S
H658 C650 0.930 . S
H659 C651 0.929 . S
H660 C668 0.929 . S
H661 C670 0.930 . S
H662 C672 0.930 . S
H663 C675 0.929 . S
H664 C678 0.930 . S
H665 C680 0.960 . S
H666 C680 0.960 . S
H667 C680 0.960 . S
C668 H660 0.929 . S
C668 C669 1.377 . S
C668 C670 1.384 1_565 S
C669 C668 1.377 . S
C669 C675 1.390 . S
C670 H661 0.930 . S
C670 C668 1.384 1_545 S
C670 C671 1.372 . S
C671 C670 1.372 . S
C671 C672 1.398 . S
C671 C676 1.490 . S
C672 H662 0.930 . S
C672 C671 1.398 . S
C672 C675 1.387 1_545 S
H673 C689 0.930 . S
H674 C690 0.931 . S
C675 H663 0.929 . S
C675 C669 1.390 . S
C675 C672 1.387 1_565 S
C676 C671 1.490 . S
C676 C678 1.395 . S
C676 C679 1.403 . S
H677 C683 0.930 . S
C678 H664 0.930 . S
C678 C676 1.395 . S
C678 C681 1.403 . S
C679 C676 1.403 . S
C679 C680 1.524 . S
C679 C683 1.400 . S
C680 H665 0.960 . S
C680 H666 0.960 . S
C680 H667 0.960 . S
C680 C679 1.524 . S
C681 C678 1.403 . S
C681 C682 1.392 . S
C681 C685 1.495 . S
C682 C681 1.392 . S
C682 C683 1.385 . S
C682 C684 1.478 . S
C683 H677 0.930 . S
C683 C679 1.400 . S
C683 C682 1.385 . S
C684 C682 1.478 . S
C684 C686 1.381 . S
C684 C690 1.383 . S
C685 C681 1.495 . S
C685 H691 0.959 . S
C685 H692 0.961 . S
C685 H693 0.960 . S
C686 C684 1.381 . S
C686 C687 1.394 . S
C686 H694 0.930 . S
C687 C686 1.394 . S
C687 C688 1.383 . S
C687 H695 0.929 . S
C688 C687 1.383 . S
C688 C689 1.377 . S
C689 H673 0.930 . S
C689 C688 1.377 . S
C689 C690 1.379 . S
C690 H674 0.931 . S
C690 C684 1.383 . S
C690 C689 1.379 . S
H691 C685 0.959 . S
H692 C685 0.961 . S
H693 C685 0.960 . S
H694 C686 0.930 . S
H695 C687 0.929 . S
H696 C704 0.929 . S
H697 C706 0.930 . S
H698 C708 0.930 . S
H699 C711 0.929 . S
H700 C714 0.930 . S
H701 C716 0.960 . S
H702 C716 0.960 . S
H703 C716 0.960 . S
C704 H696 0.929 . S
C704 C705 1.377 . S
C704 C706 1.384 . S
C705 C704 1.377 . S
C705 C711 1.390 . S
C706 H697 0.930 . S
C706 C704 1.384 . S
C706 C707 1.372 . S
C707 C706 1.372 . S
C707 C708 1.400 . S
C707 C712 1.490 . S
C708 H698 0.930 . S
C708 C707 1.400 . S
C708 C711 1.386 . S
H709 C725 0.930 . S
H710 C726 0.931 . S
C711 H699 0.929 . S
C711 C705 1.390 . S
C711 C708 1.386 . S
C712 C707 1.490 . S
C712 C714 1.395 . S
C712 C715 1.403 . S
H713 C719 0.930 . S
C714 H700 0.930 . S
C714 C712 1.395 . S
C714 C717 1.403 . S
C715 C712 1.403 . S
C715 C716 1.524 . S
C715 C719 1.400 . S
C716 H701 0.960 . S
C716 H702 0.960 . S
C716 H703 0.960 . S
C716 C715 1.524 . S
C717 C714 1.403 . S
C717 C718 1.392 . S
C717 C721 1.495 . S
C718 C717 1.392 . S
C718 C719 1.385 . S
C718 C720 1.478 . S
C719 H713 0.930 . S
C719 C715 1.400 . S
C719 C718 1.385 . S
C720 C718 1.478 . S
C720 C722 1.381 . S
C720 C726 1.383 1_565 S
C721 C717 1.495 . S
C721 H727 0.959 . S
C721 H728 0.961 . S
C721 H729 0.960 . S
C722 C720 1.381 . S
C722 C723 1.394 . S
C722 H730 0.930 . S
C723 C722 1.394 . S
C723 C724 1.383 1_565 S
C723 H731 0.929 . S
C724 C723 1.383 1_545 S
C724 C725 1.377 . S
C725 H709 0.930 . S
C725 C724 1.377 . S
C725 C726 1.379 . S
C726 H710 0.931 . S
C726 C720 1.383 1_545 S
C726 C725 1.379 . S
H727 C721 0.959 . S
H728 C721 0.961 . S
H729 C721 0.960 . S
H730 C722 0.930 . S
H731 C723 0.929 . S
H732 C740 0.929 . S
H733 C742 0.930 . S
H734 C744 0.930 . S
H735 C747 0.929 . S
H736 C750 0.930 . S
H737 C752 0.960 . S
H738 C752 0.960 . S
H739 C752 0.960 . S
C740 H732 0.929 . S
C740 C741 1.377 . S
C740 C742 1.384 . S
C741 C740 1.377 . S
C741 C747 1.390 . S
C742 H733 0.930 . S
C742 C740 1.384 . S
C742 C743 1.372 . S
C743 C742 1.372 . S
C743 C744 1.400 . S
C743 C748 1.490 . S
C744 H734 0.930 . S
C744 C743 1.400 . S
C744 C747 1.386 . S
H745 C761 0.930 . S
H746 C762 0.931 . S
C747 H735 0.929 . S
C747 C741 1.390 . S
C747 C744 1.386 . S
C748 C743 1.490 . S
C748 C750 1.395 . S
C748 C751 1.403 . S
H749 C755 0.930 . S
C750 H736 0.930 . S
C750 C748 1.395 . S
C750 C753 1.403 . S
C751 C748 1.403 . S
C751 C752 1.524 . S
C751 C755 1.400 . S
C752 H737 0.960 . S
C752 H738 0.960 . S
C752 H739 0.960 . S
C752 C751 1.524 . S
C753 C750 1.403 . S
C753 C754 1.392 . S
C753 C757 1.495 . S
C754 C753 1.392 . S
C754 C755 1.385 . S
C754 C756 1.478 . S
C755 H749 0.930 . S
C755 C751 1.400 . S
C755 C754 1.385 . S
C756 C754 1.478 . S
C756 C758 1.381 . S
C756 C762 1.383 . S
C757 C753 1.495 . S
C757 H763 0.959 . S
C757 H764 0.961 . S
C757 H765 0.960 . S
C758 C756 1.381 . S
C758 C759 1.394 . S
C758 H766 0.930 . S
C759 C758 1.394 . S
C759 C760 1.383 . S
C759 H767 0.929 . S
C760 C759 1.383 . S
C760 C761 1.377 . S
C761 H745 0.930 . S
C761 C760 1.377 . S
C761 C762 1.379 . S
C762 H746 0.931 . S
C762 C756 1.383 . S
C762 C761 1.379 . S
H763 C757 0.959 . S
H764 C757 0.961 . S
H765 C757 0.960 . S
H766 C758 0.930 . S
H767 C759 0.929 . S
H768 C776 0.929 . S
H769 C778 0.930 . S
H770 C780 0.930 . S
H771 C783 0.929 . S
H772 C786 0.930 . S
H773 C788 0.960 . S
H774 C788 0.960 . S
H775 C788 0.960 . S
C776 H768 0.929 . S
C776 C777 1.377 . S
C776 C778 1.384 . S
C777 C776 1.377 . S
C777 C783 1.390 . S
C778 H769 0.930 . S
C778 C776 1.384 . S
C778 C779 1.372 . S
C779 C778 1.372 . S
C779 C780 1.400 . S
C779 C784 1.490 . S
C780 H770 0.930 . S
C780 C779 1.400 . S
C780 C783 1.386 . S
H781 C797 0.930 . S
H782 C798 0.931 . S
C783 H771 0.929 . S
C783 C777 1.390 . S
C783 C780 1.386 . S
C784 C779 1.490 . S
C784 C786 1.395 . S
C784 C787 1.403 . S
H785 C791 0.930 . S
C786 H772 0.930 . S
C786 C784 1.395 . S
C786 C789 1.403 . S
C787 C784 1.403 . S
C787 C788 1.524 . S
C787 C791 1.400 . S
C788 H773 0.960 . S
C788 H774 0.960 . S
C788 H775 0.960 . S
C788 C787 1.524 . S
C789 C786 1.403 . S
C789 C790 1.392 . S
C789 C793 1.495 . S
C790 C789 1.392 . S
C790 C791 1.385 . S
C790 C792 1.478 . S
C791 H785 0.930 . S
C791 C787 1.400 . S
C791 C790 1.385 . S
C792 C790 1.478 . S
C792 C794 1.381 . S
C792 C798 1.383 . S
C793 C789 1.495 . S
C793 H799 0.959 . S
C793 H800 0.961 . S
C793 H801 0.960 . S
C794 C792 1.381 . S
C794 C795 1.394 . S
C794 H802 0.930 . S
C795 C794 1.394 . S
C795 C796 1.383 . S
C795 H803 0.929 . S
C796 C795 1.383 . S
C796 C797 1.377 . S
C797 H781 0.930 . S
C797 C796 1.377 . S
C797 C798 1.379 . S
C798 H782 0.931 . S
C798 C792 1.383 . S
C798 C797 1.379 . S
H799 C793 0.959 . S
H800 C793 0.961 . S
H801 C793 0.960 . S
H802 C794 0.930 . S
H803 C795 0.929 . S
H804 C812 0.923 1_545 S
H805 C814 0.930 . S
H806 C816 0.930 . S
H807 C819 0.929 . S
H808 C822 0.930 . S
H809 C824 0.960 . S
H810 C824 0.960 . S
H811 C824 0.960 1_565 S
C812 H804 0.923 1_565 S
C812 C813 1.377 . S
C812 C814 1.384 1_565 S
C813 C812 1.377 . S
C813 C819 1.390 . S
C814 H805 0.930 . S
C814 C812 1.384 1_545 S
C814 C815 1.361 1_545 S
C815 C814 1.361 1_565 S
C815 C816 1.430 . S
C815 C820 1.472 1_565 S
C816 H806 0.930 . S
C816 C815 1.430 . S
C816 C819 1.386 . S
H817 C833 0.930 . S
H818 C834 0.931 . S
C819 H807 0.929 . S
C819 C813 1.390 . S
C819 C816 1.386 . S
C820 C815 1.472 1_545 S
C820 C822 1.395 . S
C820 C823 1.403 . S
H821 C827 0.930 . S
C822 H808 0.930 . S
C822 C820 1.395 . S
C822 C825 1.403 . S
C823 C820 1.403 . S
C823 C824 1.524 . S
C823 C827 1.400 . S
C824 H809 0.960 . S
C824 H810 0.960 . S
C824 H811 0.960 1_545 S
C824 C823 1.524 . S
C825 C822 1.403 . S
C825 C826 1.392 . S
C825 C829 1.495 . S
C826 C825 1.392 . S
C826 C827 1.385 . S
C826 C828 1.478 . S
C827 H821 0.930 . S
C827 C823 1.400 . S
C827 C826 1.385 . S
C828 C826 1.478 . S
C828 C830 1.381 . S
C828 C834 1.383 . S
C829 C825 1.495 . S
C829 H835 0.959 . S
C829 H836 0.961 . S
C829 H837 0.960 . S
C830 C828 1.381 . S
C830 C831 1.394 . S
C830 H838 0.930 . S
C831 C830 1.394 . S
C831 C832 1.383 . S
C831 H839 0.929 . S
C832 C831 1.383 . S
C832 C833 1.377 . S
C833 H817 0.930 . S
C833 C832 1.377 . S
C833 C834 1.379 . S
C834 H818 0.931 . S
C834 C828 1.383 . S
C834 C833 1.379 . S
H835 C829 0.959 . S
H836 C829 0.961 . S
H837 C829 0.960 . S
H838 C830 0.930 . S
H839 C831 0.929 . S
H840 C848 0.929 . S
H841 C850 0.930 . S
H842 C852 0.930 . S
H843 C855 0.929 . S
H844 C858 0.930 . S
H845 C860 0.960 1_554 S
H846 C860 0.960 . S
H847 C860 0.960 . S
C848 H840 0.929 . S
C848 C849 1.377 . S
C848 C850 1.384 . S
C849 C848 1.377 . S
C849 C855 1.390 . S
C850 H841 0.930 . S
C850 C848 1.384 . S
C850 C851 1.372 . S
C851 C850 1.372 . S
C851 C852 1.400 . S
C851 C856 1.490 . S
C852 H842 0.930 . S
C852 C851 1.400 . S
C852 C855 1.386 . S
H853 C869 0.930 . S
H854 C870 0.931 1_556 S
C855 H843 0.929 . S
C855 C849 1.390 . S
C855 C852 1.386 . S
C856 C851 1.490 . S
C856 C858 1.395 . S
C856 C859 1.403 . S
H857 C863 0.930 1_554 S
C858 H844 0.930 . S
C858 C856 1.395 . S
C858 C861 1.403 . S
C859 C856 1.403 . S
C859 C860 1.524 . S
C859 C863 1.400 . S
C860 H845 0.960 1_556 S
C860 H846 0.960 . S
C860 H847 0.960 . S
C860 C859 1.524 . S
C861 C858 1.403 . S
C861 C862 1.392 . S
C861 C865 1.495 . S
C862 C861 1.392 . S
C862 C863 1.385 . S
C862 C864 1.478 . S
C863 H857 0.930 1_556 S
C863 C859 1.400 . S
C863 C862 1.385 . S
C864 C862 1.478 . S
C864 C866 1.381 1_556 S
C864 C870 1.383 1_556 S
C865 C861 1.495 . S
C865 H871 0.959 . S
C865 H872 0.961 . S
C865 H873 0.960 . S
C866 C864 1.381 1_554 S
C866 C867 1.394 . S
C866 H874 0.930 . S
C867 C866 1.394 . S
C867 C868 1.383 . S
C867 H875 0.929 . S
C868 C867 1.383 . S
C868 C869 1.377 . S
C869 H853 0.930 . S
C869 C868 1.377 . S
C869 C870 1.379 . S
C870 H854 0.931 1_554 S
C870 C864 1.383 1_554 S
C870 C869 1.379 . S
H871 C865 0.959 . S
H872 C865 0.961 . S
H873 C865 0.960 . S
H874 C866 0.930 . S
H875 C867 0.929 . S
H876 C884 0.929 . S
H877 C886 0.930 . S
H878 C888 0.897 1_565 S
H879 C891 0.929 . S
H880 C894 0.930 . S
H881 C896 0.960 . S
H882 C896 0.960 . S
H883 C896 0.960 . S
C884 H876 0.929 . S
C884 C885 1.377 . S
C884 C886 1.384 . S
C885 C884 1.377 . S
C885 C891 1.390 . S
C886 H877 0.930 . S
C886 C884 1.384 . S
C886 C887 1.372 . S
C887 C886 1.372 . S
C887 C888 1.404 . S
C887 C892 1.490 1_545 S
C888 H878 0.897 1_545 S
C888 C887 1.404 . S
C888 C891 1.417 . S
H889 C905 0.930 . S
H890 C906 0.931 . S
C891 H879 0.929 . S
C891 C885 1.390 . S
C891 C888 1.417 . S
C892 C887 1.490 1_565 S
C892 C894 1.395 . S
C892 C895 1.403 . S
H893 C899 0.930 . S
C894 H880 0.930 . S
C894 C892 1.395 . S
C894 C897 1.403 . S
C895 C892 1.403 . S
C895 C896 1.524 1_565 S
C895 C899 1.400 . S
C896 H881 0.960 . S
C896 H882 0.960 . S
C896 H883 0.960 . S
C896 C895 1.524 1_545 S
C897 C894 1.403 . S
C897 C898 1.392 . S
C897 C901 1.495 . S
C898 C897 1.392 . S
C898 C899 1.385 . S
C898 C900 1.478 . S
C899 H893 0.930 . S
C899 C895 1.400 . S
C899 C898 1.385 . S
C900 C898 1.478 . S
C900 C902 1.381 . S
C900 C906 1.383 . S
C901 C897 1.495 . S
C901 H907 0.959 . S
C901 H908 0.961 . S
C901 H909 0.960 . S
C902 C900 1.381 . S
C902 C903 1.394 . S
C902 H910 0.930 . S
C903 C902 1.394 . S
C903 C904 1.383 . S
C903 H911 0.929 . S
C904 C903 1.383 . S
C904 C905 1.377 . S
C905 H889 0.930 . S
C905 C904 1.377 . S
C905 C906 1.379 . S
C906 H890 0.931 . S
C906 C900 1.383 . S
C906 C905 1.379 . S
H907 C901 0.959 . S
H908 C901 0.961 . S
H909 C901 0.960 . S
H910 C902 0.930 . S
H911 C903 0.929 . S
H912 C920 0.929 . S
H913 C922 0.930 . S
H914 C924 0.930 . S
H915 C927 0.929 . S
H916 C930 0.930 . S
H917 C932 0.960 . S
H918 C932 0.960 . S
H919 C932 0.960 . S
C920 H912 0.929 . S
C920 C921 1.377 . S
C920 C922 1.384 . S
C921 C920 1.377 . S
C921 C927 1.390 . S
C922 H913 0.930 . S
C922 C920 1.384 . S
C922 C923 1.372 . S
C923 C922 1.372 . S
C923 C924 1.400 . S
C923 C928 1.490 . S
C924 H914 0.930 . S
C924 C923 1.400 . S
C924 C927 1.386 . S
H925 C941 0.930 . S
H926 C942 0.931 . S
C927 H915 0.929 . S
C927 C921 1.390 . S
C927 C924 1.386 . S
C928 C923 1.490 . S
C928 C930 1.395 . S
C928 C931 1.403 . S
H929 C935 0.930 . S
C930 H916 0.930 . S
C930 C928 1.395 . S
C930 C933 1.403 . S
C931 C928 1.403 . S
C931 C932 1.524 . S
C931 C935 1.400 . S
C932 H917 0.960 . S
C932 H918 0.960 . S
C932 H919 0.960 . S
C932 C931 1.524 . S
C933 C930 1.403 . S
C933 C934 1.392 . S
C933 C937 1.495 . S
C934 C933 1.392 . S
C934 C935 1.385 . S
C934 C936 1.478 . S
C935 H929 0.930 . S
C935 C931 1.400 . S
C935 C934 1.385 . S
C936 C934 1.478 . S
C936 C938 1.381 . S
C936 C942 1.383 . S
C937 C933 1.495 . S
C937 H943 0.959 . S
C937 H944 0.961 . S
C937 H945 0.960 . S
C938 C936 1.381 . S
C938 C939 1.394 . S
C938 H946 0.930 . S
C939 C938 1.394 . S
C939 C940 1.383 . S
C939 H947 0.929 . S
C940 C939 1.383 . S
C940 C941 1.377 . S
C941 H925 0.930 . S
C941 C940 1.377 . S
C941 C942 1.379 . S
C942 H926 0.931 . S
C942 C936 1.383 . S
C942 C941 1.379 . S
H943 C937 0.959 . S
H944 C937 0.961 . S
H945 C937 0.960 . S
H946 C938 0.930 . S
H947 C939 0.929 . S
H948 C956 0.929 . S
H949 C958 0.930 . S
H950 C960 0.930 . S
H951 C963 0.929 . S
H952 C966 0.930 . S
H953 C968 0.960 . S
H954 C968 0.960 . S
H955 C968 0.960 . S
C956 H948 0.929 . S
C956 C957 1.377 . S
C956 C958 1.384 . S
C957 C956 1.377 . S
C957 C963 1.390 . S
C958 H949 0.930 . S
C958 C956 1.384 . S
C958 C959 1.372 . S
C959 C958 1.372 . S
C959 C960 1.400 . S
C959 C964 1.490 . S
C960 H950 0.930 . S
C960 C959 1.400 . S
C960 C963 1.386 . S
H961 C977 0.930 . S
H962 C978 0.931 . S
C963 H951 0.929 . S
C963 C957 1.390 . S
C963 C960 1.386 . S
C964 C959 1.490 . S
C964 C966 1.395 . S
C964 C967 1.403 . S
H965 C971 0.930 . S
C966 H952 0.930 . S
C966 C964 1.395 . S
C966 C969 1.403 . S
C967 C964 1.403 . S
C967 C968 1.524 . S
C967 C971 1.400 . S
C968 H953 0.960 . S
C968 H954 0.960 . S
C968 H955 0.960 . S
C968 C967 1.524 . S
C969 C966 1.403 . S
C969 C970 1.392 . S
C969 C973 1.495 . S
C970 C969 1.392 . S
C970 C971 1.385 . S
C970 C972 1.478 . S
C971 H965 0.930 . S
C971 C967 1.400 . S
C971 C970 1.385 . S
C972 C970 1.478 . S
C972 C974 1.381 . S
C972 C978 1.383 . S
C973 C969 1.495 . S
C973 H979 0.959 . S
C973 H980 0.961 . S
C973 H981 0.960 . S
C974 C972 1.381 . S
C974 C975 1.394 . S
C974 H982 0.930 . S
C975 C974 1.394 . S
C975 C976 1.383 . S
C975 H983 0.929 . S
C976 C975 1.383 . S
C976 C977 1.377 . S
C977 H961 0.930 . S
C977 C976 1.377 . S
C977 C978 1.379 . S
C978 H962 0.931 . S
C978 C972 1.383 . S
C978 C977 1.379 . S
H979 C973 0.959 . S
H980 C973 0.961 . S
H981 C973 0.960 . S
H982 C974 0.930 . S
H983 C975 0.929 . S
H984 C992 0.929 . S
H985 C994 0.930 . S
H986 C996 0.930 1_554 S
H987 C999 0.929 . S
H988 C1002 0.930 . S
H989 C1004 0.960 . S
H990 C1004 0.960 . S
H991 C1004 0.960 . S
C992 H984 0.929 . S
C992 C993 1.377 . S
C992 C994 1.384 . S
C993 C992 1.377 . S
C993 C999 1.390 . S
C994 H985 0.930 . S
C994 C992 1.384 . S
C994 C995 1.372 . S
C995 C994 1.372 . S
C995 C996 1.400 . S
C995 C1000 1.490 1_556 S
C996 H986 0.930 1_556 S
C996 C995 1.400 . S
C996 C999 1.386 . S
H997 C1013 0.930 . S
H998 C1014 0.931 . S
C999 H987 0.929 . S
C999 C993 1.390 . S
C999 C996 1.386 . S
C1000 C995 1.490 1_554 S
C1000 C1002 1.395 . S
C1000 C1003 1.403 . S
H1001 C1007 0.930 . S
C1002 H988 0.930 . S
C1002 C1000 1.395 . S
C1002 C1005 1.403 . S
C1003 C1000 1.403 . S
C1003 C1004 1.524 1_554 S
C1003 C1007 1.400 . S
C1004 H989 0.960 . S
C1004 H990 0.960 . S
C1004 H991 0.960 . S
C1004 C1003 1.524 1_556 S
C1005 C1002 1.403 . S
C1005 C1006 1.392 . S
C1005 C1009 1.495 . S
C1006 C1005 1.392 . S
C1006 C1007 1.385 . S
C1006 C1008 1.478 . S
C1007 H1001 0.930 . S
C1007 C1003 1.400 . S
C1007 C1006 1.385 . S
C1008 C1006 1.478 . S
C1008 C1010 1.381 . S
C1008 C1014 1.383 . S
C1009 C1005 1.495 . S
C1009 H1015 0.959 . S
C1009 H1016 0.961 . S
C1009 H1017 0.960 . S
C1010 C1008 1.381 . S
C1010 C1011 1.394 . S
C1010 H1018 0.930 . S
C1011 C1010 1.394 . S
C1011 C1012 1.383 . S
C1011 H1019 0.929 . S
C1012 C1011 1.383 . S
C1012 C1013 1.377 . S
C1013 H997 0.930 . S
C1013 C1012 1.377 . S
C1013 C1014 1.379 . S
C1014 H998 0.931 . S
C1014 C1008 1.383 . S
C1014 C1013 1.379 . S
H1015 C1009 0.959 . S
H1016 C1009 0.961 . S
H1017 C1009 0.960 . S
H1018 C1010 0.930 . S
H1019 C1011 0.929 . S
H1020 C1028 0.929 . S
H1021 C1030 0.930 . S
H1022 C1032 0.930 . S
H1023 C1035 0.929 . S
H1024 C1038 0.930 . S
H1025 C1040 0.960 . S
H1026 C1040 0.960 . S
H1027 C1040 0.960 . S
C1028 H1020 0.929 . S
C1028 C1029 1.377 . S
C1028 C1030 1.384 . S
C1029 C1028 1.377 . S
C1029 C1035 1.390 . S
C1030 H1021 0.930 . S
C1030 C1028 1.384 . S
C1030 C1031 1.372 . S
C1031 C1030 1.372 . S
C1031 C1032 1.400 . S
C1031 C1036 1.490 . S
C1032 H1022 0.930 . S
C1032 C1031 1.400 . S
C1032 C1035 1.386 . S
H1033 C1049 0.930 . S
H1034 C1050 0.931 . S
C1035 H1023 0.929 . S
C1035 C1029 1.390 . S
C1035 C1032 1.386 . S
C1036 C1031 1.490 . S
C1036 C1038 1.395 . S
C1036 C1039 1.403 . S
H1037 C1043 0.930 . S
C1038 H1024 0.930 . S
C1038 C1036 1.395 . S
C1038 C1041 1.403 . S
C1039 C1036 1.403 . S
C1039 C1040 1.524 . S
C1039 C1043 1.400 . S
C1040 H1025 0.960 . S
C1040 H1026 0.960 . S
C1040 H1027 0.960 . S
C1040 C1039 1.524 . S
C1041 C1038 1.403 . S
C1041 C1042 1.392 . S
C1041 C1045 1.495 . S
C1042 C1041 1.392 . S
C1042 C1043 1.385 . S
C1042 C1044 1.478 . S
C1043 H1037 0.930 . S
C1043 C1039 1.400 . S
C1043 C1042 1.385 . S
C1044 C1042 1.478 . S
C1044 C1046 1.381 . S
C1044 C1050 1.383 . S
C1045 C1041 1.495 . S
C1045 H1051 0.959 . S
C1045 H1052 0.961 . S
C1045 H1053 0.960 . S
C1046 C1044 1.381 . S
C1046 C1047 1.394 . S
C1046 H1054 0.930 . S
C1047 C1046 1.394 . S
C1047 C1048 1.383 . S
C1047 H1055 0.929 . S
C1048 C1047 1.383 . S
C1048 C1049 1.377 . S
C1049 H1033 0.930 . S
C1049 C1048 1.377 . S
C1049 C1050 1.379 . S
C1050 H1034 0.931 . S
C1050 C1044 1.383 . S
C1050 C1049 1.379 . S
H1051 C1045 0.959 . S
H1052 C1045 0.961 . S
H1053 C1045 0.960 . S
H1054 C1046 0.930 . S
H1055 C1047 0.929 . S
H1056 C1064 0.929 . S
H1057 C1066 0.930 . S
H1058 C1068 0.930 . S
H1059 C1071 0.929 . S
H1060 C1074 0.930 . S
H1061 C1076 0.960 . S
H1062 C1076 0.960 . S
H1063 C1076 0.960 . S
C1064 H1056 0.929 . S
C1064 C1065 1.377 . S
C1064 C1066 1.384 . S
C1065 C1064 1.377 . S
C1065 C1071 1.390 . S
C1066 H1057 0.930 . S
C1066 C1064 1.384 . S
C1066 C1067 1.372 . S
C1067 C1066 1.372 . S
C1067 C1068 1.400 . S
C1067 C1072 1.490 . S
C1068 H1058 0.930 . S
C1068 C1067 1.400 . S
C1068 C1071 1.386 . S
H1069 C1085 0.930 . S
H1070 C1086 0.931 . S
C1071 H1059 0.929 . S
C1071 C1065 1.390 . S
C1071 C1068 1.386 . S
C1072 C1067 1.490 . S
C1072 C1074 1.395 . S
C1072 C1075 1.403 . S
H1073 C1079 0.930 . S
C1074 H1060 0.930 . S
C1074 C1072 1.395 . S
C1074 C1077 1.403 . S
C1075 C1072 1.403 . S
C1075 C1076 1.524 . S
C1075 C1079 1.400 . S
C1076 H1061 0.960 . S
C1076 H1062 0.960 . S
C1076 H1063 0.960 . S
C1076 C1075 1.524 . S
C1077 C1074 1.403 . S
C1077 C1078 1.392 . S
C1077 C1081 1.495 . S
C1078 C1077 1.392 . S
C1078 C1079 1.385 . S
C1078 C1080 1.478 . S
C1079 H1073 0.930 . S
C1079 C1075 1.400 . S
C1079 C1078 1.385 . S
C1080 C1078 1.478 . S
C1080 C1082 1.381 . S
C1080 C1086 1.383 . S
C1081 C1077 1.495 . S
C1081 H1087 0.959 . S
C1081 H1088 0.961 . S
C1081 H1089 0.960 . S
C1082 C1080 1.381 . S
C1082 C1083 1.394 . S
C1082 H1090 0.930 . S
C1083 C1082 1.394 . S
C1083 C1084 1.383 . S
C1083 H1091 0.929 . S
C1084 C1083 1.383 . S
C1084 C1085 1.377 . S
C1085 H1069 0.930 . S
C1085 C1084 1.377 . S
C1085 C1086 1.379 . S
C1086 H1070 0.931 . S
C1086 C1080 1.383 . S
C1086 C1085 1.379 . S
H1087 C1081 0.959 . S
H1088 C1081 0.961 . S
H1089 C1081 0.960 . S
H1090 C1082 0.930 . S
H1091 C1083 0.929 . S
H1092 C1100 0.929 . S
H1093 C1102 0.930 . S
H1094 C1104 0.930 . S
H1095 C1107 0.929 . S
H1096 C1110 0.930 . S
H1097 C1112 0.960 . S
H1098 C1112 0.960 . S
H1099 C1112 0.960 . S
C1100 H1092 0.929 . S
C1100 C1101 1.377 . S
C1100 C1102 1.384 1_455 S
C1101 C1100 1.377 . S
C1101 C1107 1.390 . S
C1102 H1093 0.930 . S
C1102 C1100 1.384 1_655 S
C1102 C1103 1.367 1_655 S
C1103 C1102 1.367 1_455 S
C1103 C1104 1.432 . S
C1103 C1108 1.465 1_455 S
C1104 H1094 0.930 . S
C1104 C1103 1.432 . S
C1104 C1107 1.386 . S
H1105 C1121 0.930 . S
H1106 C1122 0.931 . S
C1107 H1095 0.929 . S
C1107 C1101 1.390 . S
C1107 C1104 1.386 . S
C1108 C1103 1.465 1_655 S
C1108 C1110 1.395 . S
C1108 C1111 1.403 . S
H1109 C1115 0.930 . S
C1110 H1096 0.930 . S
C1110 C1108 1.395 . S
C1110 C1113 1.403 . S
C1111 C1108 1.403 . S
C1111 C1112 1.524 . S
C1111 C1115 1.400 . S
C1112 H1097 0.960 . S
C1112 H1098 0.960 . S
C1112 H1099 0.960 . S
C1112 C1111 1.524 . S
C1113 C1110 1.403 . S
C1113 C1114 1.392 . S
C1113 C1117 1.495 . S
C1114 C1113 1.392 . S
C1114 C1115 1.385 . S
C1114 C1116 1.478 . S
C1115 H1109 0.930 . S
C1115 C1111 1.400 . S
C1115 C1114 1.385 . S
C1116 C1114 1.478 . S
C1116 C1118 1.381 . S
C1116 C1122 1.383 . S
C1117 C1113 1.495 . S
C1117 H1123 0.959 . S
C1117 H1124 0.961 . S
C1117 H1125 0.960 . S
C1118 C1116 1.381 . S
C1118 C1119 1.394 . S
C1118 H1126 0.930 . S
C1119 C1118 1.394 . S
C1119 C1120 1.383 . S
C1119 H1127 0.929 . S
C1120 C1119 1.383 . S
C1120 C1121 1.377 . S
C1121 H1105 0.930 . S
C1121 C1120 1.377 . S
C1121 C1122 1.379 . S
C1122 H1106 0.931 . S
C1122 C1116 1.383 . S
C1122 C1121 1.379 . S
H1123 C1117 0.959 . S
H1124 C1117 0.961 . S
H1125 C1117 0.960 . S
H1126 C1118 0.930 . S
H1127 C1119 0.929 . S
H1128 C1136 0.929 . S
H1129 C1138 0.930 . S
H1130 C1140 0.930 1_455 S
H1131 C1143 0.929 . S
H1132 C1146 0.930 1_655 S
H1133 C1148 0.960 . S
H1134 C1148 0.960 . S
H1135 C1148 0.960 . S
C1136 H1128 0.929 . S
C1136 C1137 1.377 . S
C1136 C1138 1.384 . S
C1137 C1136 1.377 . S
C1137 C1143 1.390 . S
C1138 H1129 0.930 . S
C1138 C1136 1.384 . S
C1138 C1139 1.372 . S
C1139 C1138 1.372 . S
C1139 C1140 1.400 . S
C1139 C1144 1.490 1_655 S
C1140 H1130 0.930 1_655 S
C1140 C1139 1.400 . S
C1140 C1143 1.386 . S
H1141 C1157 0.930 . S
H1142 C1158 0.931 . S
C1143 H1131 0.929 . S
C1143 C1137 1.390 . S
C1143 C1140 1.386 . S
C1144 C1139 1.490 1_455 S
C1144 C1146 1.395 . S
C1144 C1147 1.403 . S
H1145 C1151 0.930 . S
C1146 H1132 0.930 1_455 S
C1146 C1144 1.395 . S
C1146 C1149 1.403 . S
C1147 C1144 1.403 . S
C1147 C1148 1.524 . S
C1147 C1151 1.400 . S
C1148 H1133 0.960 . S
C1148 H1134 0.960 . S
C1148 H1135 0.960 . S
C1148 C1147 1.524 . S
C1149 C1146 1.403 . S
C1149 C1150 1.392 . S
C1149 C1153 1.495 . S
C1150 C1149 1.392 . S
C1150 C1151 1.385 . S
C1150 C1152 1.478 . S
C1151 H1145 0.930 . S
C1151 C1147 1.400 . S
C1151 C1150 1.385 . S
C1152 C1150 1.478 . S
C1152 C1154 1.381 . S
C1152 C1158 1.383 . S
C1153 C1149 1.495 . S
C1153 H1159 0.959 1_455 S
C1153 H1160 0.961 . S
C1153 H1161 0.960 . S
C1154 C1152 1.381 . S
C1154 C1155 1.394 . S
C1154 H1162 0.930 . S
C1155 C1154 1.394 . S
C1155 C1156 1.383 . S
C1155 H1163 0.929 . S
C1156 C1155 1.383 . S
C1156 C1157 1.377 . S
C1157 H1141 0.930 . S
C1157 C1156 1.377 . S
C1157 C1158 1.379 . S
C1158 H1142 0.931 . S
C1158 C1152 1.383 . S
C1158 C1157 1.379 . S
H1159 C1153 0.959 1_655 S
H1160 C1153 0.961 . S
H1161 C1153 0.960 . S
H1162 C1154 0.930 . S
H1163 C1155 0.929 . S
H1164 C1172 0.929 . S
H1165 C1174 0.930 . S
H1166 C1176 0.930 . S
H1167 C1179 0.929 . S
H1168 C1182 0.930 . S
H1169 C1184 0.960 . S
H1170 C1184 0.960 . S
H1171 C1184 0.960 . S
C1172 H1164 0.929 . S
C1172 C1173 1.377 . S
C1172 C1174 1.384 . S
C1173 C1172 1.377 . S
C1173 C1179 1.390 . S
C1174 H1165 0.930 . S
C1174 C1172 1.384 . S
C1174 C1175 1.372 . S
C1175 C1174 1.372 . S
C1175 C1176 1.400 . S
C1175 C1180 1.490 . S
C1176 H1166 0.930 . S
C1176 C1175 1.400 . S
C1176 C1179 1.386 . S
H1177 C1193 0.930 . S
H1178 C1194 0.931 . S
C1179 H1167 0.929 . S
C1179 C1173 1.390 . S
C1179 C1176 1.386 . S
C1180 C1175 1.490 . S
C1180 C1182 1.395 . S
C1180 C1183 1.403 . S
H1181 C1187 0.930 . S
C1182 H1168 0.930 . S
C1182 C1180 1.395 . S
C1182 C1185 1.403 . S
C1183 C1180 1.403 . S
C1183 C1184 1.524 . S
C1183 C1187 1.400 . S
C1184 H1169 0.960 . S
C1184 H1170 0.960 . S
C1184 H1171 0.960 . S
C1184 C1183 1.524 . S
C1185 C1182 1.403 . S
C1185 C1186 1.392 . S
C1185 C1189 1.495 . S
C1186 C1185 1.392 . S
C1186 C1187 1.385 . S
C1186 C1188 1.478 . S
C1187 H1181 0.930 . S
C1187 C1183 1.400 . S
C1187 C1186 1.385 . S
C1188 C1186 1.478 . S
C1188 C1190 1.381 . S
C1188 C1194 1.383 . S
C1189 C1185 1.495 . S
C1189 H1195 0.959 . S
C1189 H1196 0.961 . S
C1189 H1197 0.960 . S
C1190 C1188 1.381 . S
C1190 C1191 1.394 . S
C1190 H1198 0.930 . S
C1191 C1190 1.394 . S
C1191 C1192 1.383 . S
C1191 H1199 0.929 . S
C1192 C1191 1.383 . S
C1192 C1193 1.377 . S
C1193 H1177 0.930 . S
C1193 C1192 1.377 . S
C1193 C1194 1.379 . S
C1194 H1178 0.931 . S
C1194 C1188 1.383 . S
C1194 C1193 1.379 . S
H1195 C1189 0.959 . S
H1196 C1189 0.961 . S
H1197 C1189 0.960 . S
H1198 C1190 0.930 . S
H1199 C1191 0.929 . S
H1200 C1208 0.929 . S
H1201 C1210 0.930 . S
H1202 C1212 0.930 . S
H1203 C1215 0.929 . S
H1204 C1218 0.930 . S
H1205 C1220 0.960 . S
H1206 C1220 0.960 . S
H1207 C1220 0.960 . S
C1208 H1200 0.929 . S
C1208 C1209 1.377 . S
C1208 C1210 1.384 . S
C1209 C1208 1.377 . S
C1209 C1215 1.390 . S
C1210 H1201 0.930 . S
C1210 C1208 1.384 . S
C1210 C1211 1.372 . S
C1211 C1210 1.372 . S
C1211 C1212 1.400 . S
C1211 C1216 1.490 . S
C1212 H1202 0.930 . S
C1212 C1211 1.400 . S
C1212 C1215 1.386 . S
H1213 C1229 0.930 . S
H1214 C1230 0.931 . S
C1215 H1203 0.929 . S
C1215 C1209 1.390 . S
C1215 C1212 1.386 . S
C1216 C1211 1.490 . S
C1216 C1218 1.395 . S
C1216 C1219 1.403 . S
H1217 C1223 0.930 . S
C1218 H1204 0.930 . S
C1218 C1216 1.395 . S
C1218 C1221 1.403 . S
C1219 C1216 1.403 . S
C1219 C1220 1.524 . S
C1219 C1223 1.400 . S
C1220 H1205 0.960 . S
C1220 H1206 0.960 . S
C1220 H1207 0.960 . S
C1220 C1219 1.524 . S
C1221 C1218 1.403 . S
C1221 C1222 1.392 . S
C1221 C1225 1.495 . S
C1222 C1221 1.392 . S
C1222 C1223 1.385 . S
C1222 C1224 1.478 . S
C1223 H1217 0.930 . S
C1223 C1219 1.400 . S
C1223 C1222 1.385 . S
C1224 C1222 1.478 . S
C1224 C1226 1.381 . S
C1224 C1230 1.383 . S
C1225 C1221 1.495 . S
C1225 H1231 0.959 . S
C1225 H1232 0.961 . S
C1225 H1233 0.960 . S
C1226 C1224 1.381 . S
C1226 C1227 1.394 . S
C1226 H1234 0.930 . S
C1227 C1226 1.394 . S
C1227 C1228 1.383 . S
C1227 H1235 0.929 . S
C1228 C1227 1.383 . S
C1228 C1229 1.377 . S
C1229 H1213 0.930 . S
C1229 C1228 1.377 . S
C1229 C1230 1.379 . S
C1230 H1214 0.931 . S
C1230 C1224 1.383 . S
C1230 C1229 1.379 . S
H1231 C1225 0.959 . S
H1232 C1225 0.961 . S
H1233 C1225 0.960 . S
H1234 C1226 0.930 . S
H1235 C1227 0.929 . S
H1236 C1244 0.929 . S
H1237 C1246 0.930 . S
H1238 C1248 0.930 . S
H1239 C1251 0.929 . S
H1240 C1254 0.930 . S
H1241 C1256 0.960 . S
H1242 C1256 0.960 . S
H1243 C1256 0.960 . S
C1244 H1236 0.929 . S
C1244 C1245 1.377 1_565 S
C1244 C1246 1.384 . S
C1245 C1244 1.377 1_545 S
C1245 C1251 1.390 . S
C1246 H1237 0.930 . S
C1246 C1244 1.384 . S
C1246 C1247 1.372 . S
C1247 C1246 1.372 . S
C1247 C1248 1.400 1_565 S
C1247 C1252 1.490 . S
C1248 H1238 0.930 . S
C1248 C1247 1.400 1_545 S
C1248 C1251 1.386 . S
H1249 C1265 0.930 . S
H1250 C1266 0.931 . S
C1251 H1239 0.929 . S
C1251 C1245 1.390 . S
C1251 C1248 1.386 . S
C1252 C1247 1.490 . S
C1252 C1254 1.395 . S
C1252 C1255 1.403 . S
H1253 C1259 0.930 . S
C1254 H1240 0.930 . S
C1254 C1252 1.395 . S
C1254 C1257 1.403 . S
C1255 C1252 1.403 . S
C1255 C1256 1.524 . S
C1255 C1259 1.400 . S
C1256 H1241 0.960 . S
C1256 H1242 0.960 . S
C1256 H1243 0.960 . S
C1256 C1255 1.524 . S
C1257 C1254 1.403 . S
C1257 C1258 1.392 . S
C1257 C1261 1.495 . S
C1258 C1257 1.392 . S
C1258 C1259 1.385 . S
C1258 C1260 1.478 . S
C1259 H1253 0.930 . S
C1259 C1255 1.400 . S
C1259 C1258 1.385 . S
C1260 C1258 1.478 . S
C1260 C1262 1.381 . S
C1260 C1266 1.383 . S
C1261 C1257 1.495 . S
C1261 H1267 0.959 . S
C1261 H1268 0.961 . S
C1261 H1269 0.960 . S
C1262 C1260 1.381 . S
C1262 C1263 1.394 . S
C1262 H1270 0.930 . S
C1263 C1262 1.394 . S
C1263 C1264 1.383 . S
C1263 H1271 0.929 . S
C1264 C1263 1.383 . S
C1264 C1265 1.377 . S
C1265 H1249 0.930 . S
C1265 C1264 1.377 . S
C1265 C1266 1.379 . S
C1266 H1250 0.931 . S
C1266 C1260 1.383 . S
C1266 C1265 1.379 . S
H1267 C1261 0.959 . S
H1268 C1261 0.961 . S
H1269 C1261 0.960 . S
H1270 C1262 0.930 . S
H1271 C1263 0.929 . S
H1272 C1280 0.929 . S
H1273 C1282 0.930 . S
H1274 C1284 0.930 . S
H1275 C1287 0.929 . S
H1276 C1290 0.930 . S
H1277 C1292 0.960 . S
H1278 C1292 0.960 . S
H1279 C1292 0.960 . S
C1280 H1272 0.929 . S
C1280 C1281 1.377 . S
C1280 C1282 1.384 . S
C1281 C1280 1.377 . S
C1281 C1287 1.390 . S
C1282 H1273 0.930 . S
C1282 C1280 1.384 . S
C1282 C1283 1.372 . S
C1283 C1282 1.372 . S
C1283 C1284 1.400 . S
C1283 C1288 1.490 . S
C1284 H1274 0.930 . S
C1284 C1283 1.400 . S
C1284 C1287 1.386 . S
H1285 C1301 0.930 . S
H1286 C1302 0.931 . S
C1287 H1275 0.929 . S
C1287 C1281 1.390 . S
C1287 C1284 1.386 . S
C1288 C1283 1.490 . S
C1288 C1290 1.395 . S
C1288 C1291 1.403 . S
H1289 C1295 0.930 . S
C1290 H1276 0.930 . S
C1290 C1288 1.395 . S
C1290 C1293 1.403 . S
C1291 C1288 1.403 . S
C1291 C1292 1.524 . S
C1291 C1295 1.400 . S
C1292 H1277 0.960 . S
C1292 H1278 0.960 . S
C1292 H1279 0.960 . S
C1292 C1291 1.524 . S
C1293 C1290 1.403 . S
C1293 C1294 1.392 . S
C1293 C1297 1.495 . S
C1294 C1293 1.392 . S
C1294 C1295 1.385 . S
C1294 C1296 1.478 . S
C1295 H1289 0.930 . S
C1295 C1291 1.400 . S
C1295 C1294 1.385 . S
C1296 C1294 1.478 . S
C1296 C1298 1.381 . S
C1296 C1302 1.383 . S
C1297 C1293 1.495 . S
C1297 H1303 0.959 . S
C1297 H1304 0.961 . S
C1297 H1305 0.960 . S
C1298 C1296 1.381 . S
C1298 C1299 1.394 . S
C1298 H1306 0.930 . S
C1299 C1298 1.394 . S
C1299 C1300 1.383 . S
C1299 H1307 0.929 . S
C1300 C1299 1.383 . S
C1300 C1301 1.377 . S
C1301 H1285 0.930 . S
C1301 C1300 1.377 . S
C1301 C1302 1.379 . S
C1302 H1286 0.931 . S
C1302 C1296 1.383 . S
C1302 C1301 1.379 . S
H1303 C1297 0.959 . S
H1304 C1297 0.961 . S
H1305 C1297 0.960 . S
H1306 C1298 0.930 . S
H1307 C1299 0.929 . S
H1308 C1316 0.929 . S
H1309 C1318 0.930 . S
H1310 C1320 0.930 . S
H1311 C1323 0.929 . S
H1312 C1326 0.930 . S
H1313 C1328 0.960 1_565 S
H1314 C1328 0.960 . S
H1315 C1328 0.952 1_565 S
C1316 H1308 0.929 . S
C1316 C1317 1.377 . S
C1316 C1318 1.384 . S
C1317 C1316 1.377 . S
C1317 C1323 1.390 . S
C1318 H1309 0.930 . S
C1318 C1316 1.384 . S
C1318 C1319 1.372 . S
C1319 C1318 1.372 . S
C1319 C1320 1.400 . S
C1319 C1324 1.490 . S
C1320 H1310 0.930 . S
C1320 C1319 1.400 . S
C1320 C1323 1.386 . S
H1321 C1337 0.930 . S
H1322 C1338 0.931 . S
C1323 H1311 0.929 . S
C1323 C1317 1.390 . S
C1323 C1320 1.386 . S
C1324 C1319 1.490 . S
C1324 C1326 1.395 . S
C1324 C1327 1.403 . S
H1325 C1331 0.930 1_565 S
C1326 H1312 0.930 . S
C1326 C1324 1.395 . S
C1326 C1329 1.403 . S
C1327 C1324 1.403 . S
C1327 C1328 1.524 . S
C1327 C1331 1.400 . S
C1328 H1313 0.960 1_545 S
C1328 H1314 0.960 . S
C1328 H1315 0.952 1_545 S
C1328 C1327 1.524 . S
C1329 C1326 1.403 . S
C1329 C1330 1.392 . S
C1329 C1333 1.495 . S
C1330 C1329 1.392 . S
C1330 C1331 1.385 . S
C1330 C1332 1.478 . S
C1331 H1325 0.930 1_545 S
C1331 C1327 1.400 . S
C1331 C1330 1.385 . S
C1332 C1330 1.478 . S
C1332 C1334 1.381 1_554 S
C1332 C1338 1.383 1_545 S
C1333 C1329 1.495 . S
C1333 H1339 0.959 . S
C1333 H1340 0.961 . S
C1333 H1341 0.960 . S
C1334 C1332 1.381 1_556 S
C1334 C1335 1.394 . S
C1334 H1342 0.930 . S
C1335 C1334 1.394 . S
C1335 C1336 1.383 1_545 S
C1335 H1343 0.929 . S
C1336 C1335 1.383 1_565 S
C1336 C1337 1.377 1_556 S
C1337 H1321 0.930 . S
C1337 C1336 1.377 1_554 S
C1337 C1338 1.379 . S
C1338 H1322 0.931 . S
C1338 C1332 1.383 1_565 S
C1338 C1337 1.379 . S
H1339 C1333 0.959 . S
H1340 C1333 0.961 . S
H1341 C1333 0.960 . S
H1342 C1334 0.930 . S
H1343 C1335 0.929 . S
H1344 C1352 0.929 . S
H1345 C1354 0.930 . S
H1346 C1356 0.930 . S
H1347 C1359 0.929 . S
H1348 C1362 0.930 . S
H1349 C1364 0.960 . S
H1350 C1364 0.960 . S
H1351 C1364 0.960 . S
C1352 H1344 0.929 . S
C1352 C1353 1.377 . S
C1352 C1354 1.384 . S
C1353 C1352 1.377 . S
C1353 C1359 1.390 . S
C1354 H1345 0.930 . S
C1354 C1352 1.384 . S
C1354 C1355 1.372 . S
C1355 C1354 1.372 . S
C1355 C1356 1.400 . S
C1355 C1360 1.490 . S
C1356 H1346 0.930 . S
C1356 C1355 1.400 . S
C1356 C1359 1.386 . S
H1357 C1373 0.930 . S
H1358 C1374 0.931 . S
C1359 H1347 0.929 . S
C1359 C1353 1.390 . S
C1359 C1356 1.386 . S
C1360 C1355 1.490 . S
C1360 C1362 1.395 . S
C1360 C1363 1.403 . S
H1361 C1367 0.930 . S
C1362 H1348 0.930 . S
C1362 C1360 1.395 . S
C1362 C1365 1.403 . S
C1363 C1360 1.403 . S
C1363 C1364 1.524 . S
C1363 C1367 1.400 . S
C1364 H1349 0.960 . S
C1364 H1350 0.960 . S
C1364 H1351 0.960 . S
C1364 C1363 1.524 . S
C1365 C1362 1.403 . S
C1365 C1366 1.392 . S
C1365 C1369 1.495 . S
C1366 C1365 1.392 . S
C1366 C1367 1.385 . S
C1366 C1368 1.478 . S
C1367 H1361 0.930 . S
C1367 C1363 1.400 . S
C1367 C1366 1.385 . S
C1368 C1366 1.478 . S
C1368 C1370 1.381 . S
C1368 C1374 1.383 . S
C1369 C1365 1.495 . S
C1369 H1375 0.959 . S
C1369 H1376 0.961 . S
C1369 H1377 0.960 . S
C1370 C1368 1.381 . S
C1370 C1371 1.394 . S
C1370 H1378 0.930 . S
C1371 C1370 1.394 . S
C1371 C1372 1.383 . S
C1371 H1379 0.929 . S
C1372 C1371 1.383 . S
C1372 C1373 1.377 . S
C1373 H1357 0.930 . S
C1373 C1372 1.377 . S
C1373 C1374 1.379 . S
C1374 H1358 0.931 . S
C1374 C1368 1.383 . S
C1374 C1373 1.379 . S
H1375 C1369 0.959 . S
H1376 C1369 0.961 . S
H1377 C1369 0.960 . S
H1378 C1370 0.930 . S
H1379 C1371 0.929 . S
H1380 C1388 0.936 . S
H1381 C1390 0.930 . S
H1382 C1392 0.930 . S
H1383 C1395 0.929 . S
H1384 C1398 0.930 . S
H1385 C1400 0.960 . S
H1386 C1400 0.960 . S
H1387 C1400 0.960 . S
C1388 H1380 0.936 . S
C1388 C1389 1.322 1_556 S
C1388 C1390 1.436 . S
C1389 C1388 1.322 1_554 S
C1389 C1395 1.390 . S
C1390 H1381 0.930 . S
C1390 C1388 1.436 . S
C1390 C1391 1.372 . S
C1391 C1390 1.372 . S
C1391 C1392 1.400 1_556 S
C1391 C1396 1.490 . S
C1392 H1382 0.930 . S
C1392 C1391 1.400 1_554 S
C1392 C1395 1.386 . S
H1393 C1409 0.930 . S
H1394 C1410 0.931 . S
C1395 H1383 0.929 . S
C1395 C1389 1.390 . S
C1395 C1392 1.386 . S
C1396 C1391 1.490 . S
C1396 C1398 1.395 . S
C1396 C1399 1.403 . S
H1397 C1403 0.930 . S
C1398 H1384 0.930 . S
C1398 C1396 1.395 . S
C1398 C1401 1.403 . S
C1399 C1396 1.403 . S
C1399 C1400 1.524 . S
C1399 C1403 1.400 . S
C1400 H1385 0.960 . S
C1400 H1386 0.960 . S
C1400 H1387 0.960 . S
C1400 C1399 1.524 . S
C1401 C1398 1.403 . S
C1401 C1402 1.392 . S
C1401 C1405 1.495 . S
C1402 C1401 1.392 . S
C1402 C1403 1.385 . S
C1402 C1404 1.478 . S
C1403 H1397 0.930 . S
C1403 C1399 1.400 . S
C1403 C1402 1.385 . S
C1404 C1402 1.478 . S
C1404 C1406 1.381 . S
C1404 C1410 1.383 . S
C1405 C1401 1.495 . S
C1405 H1411 0.959 . S
C1405 H1412 0.961 . S
C1405 H1413 0.960 . S
C1406 C1404 1.381 . S
C1406 C1407 1.394 . S
C1406 H1414 0.930 . S
C1407 C1406 1.394 . S
C1407 C1408 1.383 . S
C1407 H1415 0.929 . S
C1408 C1407 1.383 . S
C1408 C1409 1.377 . S
C1409 H1393 0.930 . S
C1409 C1408 1.377 . S
C1409 C1410 1.379 . S
C1410 H1394 0.931 . S
C1410 C1404 1.383 . S
C1410 C1409 1.379 . S
H1411 C1405 0.959 . S
H1412 C1405 0.961 . S
H1413 C1405 0.960 . S
H1414 C1406 0.930 . S
H1415 C1407 0.929 . S
H1416 C1424 0.929 . S
H1417 C1426 0.930 . S
H1418 C1428 0.930 . S
H1419 C1431 0.929 . S
H1420 C1434 0.930 . S
H1421 C1436 0.960 . S
H1422 C1436 0.960 . S
H1423 C1436 0.960 . S
C1424 H1416 0.929 . S
C1424 C1425 1.377 . S
C1424 C1426 1.384 . S
C1425 C1424 1.377 . S
C1425 C1431 1.390 . S
C1426 H1417 0.930 . S
C1426 C1424 1.384 . S
C1426 C1427 1.372 . S
C1427 C1426 1.372 . S
C1427 C1428 1.400 . S
C1427 C1432 1.490 . S
C1428 H1418 0.930 . S
C1428 C1427 1.400 . S
C1428 C1431 1.386 . S
H1429 C1445 0.930 . S
H1430 C1446 0.931 . S
C1431 H1419 0.929 . S
C1431 C1425 1.390 . S
C1431 C1428 1.386 . S
C1432 C1427 1.490 . S
C1432 C1434 1.395 . S
C1432 C1435 1.403 . S
H1433 C1439 0.930 . S
C1434 H1420 0.930 . S
C1434 C1432 1.395 . S
C1434 C1437 1.403 . S
C1435 C1432 1.403 . S
C1435 C1436 1.524 . S
C1435 C1439 1.400 . S
C1436 H1421 0.960 . S
C1436 H1422 0.960 . S
C1436 H1423 0.960 . S
C1436 C1435 1.524 . S
C1437 C1434 1.403 . S
C1437 C1438 1.392 . S
C1437 C1441 1.495 . S
C1438 C1437 1.392 . S
C1438 C1439 1.385 . S
C1438 C1440 1.478 . S
C1439 H1433 0.930 . S
C1439 C1435 1.400 . S
C1439 C1438 1.385 . S
C1440 C1438 1.478 . S
C1440 C1442 1.381 . S
C1440 C1446 1.383 . S
C1441 C1437 1.495 . S
C1441 H1447 0.959 . S
C1441 H1448 0.961 . S
C1441 H1449 0.960 . S
C1442 C1440 1.381 . S
C1442 C1443 1.394 . S
C1442 H1450 0.930 . S
C1443 C1442 1.394 . S
C1443 C1444 1.383 . S
C1443 H1451 0.929 . S
C1444 C1443 1.383 . S
C1444 C1445 1.377 . S
C1445 H1429 0.930 . S
C1445 C1444 1.377 . S
C1445 C1446 1.379 . S
C1446 H1430 0.931 . S
C1446 C1440 1.383 . S
C1446 C1445 1.379 . S
H1447 C1441 0.959 . S
H1448 C1441 0.961 . S
H1449 C1441 0.960 . S
H1450 C1442 0.930 . S
H1451 C1443 0.929 . S
H1452 C1460 0.929 . S
H1453 C1462 0.930 . S
H1454 C1464 0.930 . S
H1455 C1467 0.929 . S
H1456 C1470 0.930 . S
H1457 C1472 0.960 . S
H1458 C1472 0.960 . S
H1459 C1472 0.960 . S
C1460 H1452 0.929 . S
C1460 C1461 1.377 . S
C1460 C1462 1.384 . S
C1461 C1460 1.377 . S
C1461 C1467 1.390 . S
C1462 H1453 0.930 . S
C1462 C1460 1.384 . S
C1462 C1463 1.372 . S
C1463 C1462 1.372 . S
C1463 C1464 1.400 . S
C1463 C1468 1.490 . S
C1464 H1454 0.930 . S
C1464 C1463 1.400 . S
C1464 C1467 1.386 . S
H1465 C1481 0.930 . S
H1466 C1482 0.931 . S
C1467 H1455 0.929 . S
C1467 C1461 1.390 . S
C1467 C1464 1.386 . S
C1468 C1463 1.490 . S
C1468 C1470 1.395 . S
C1468 C1471 1.403 . S
H1469 C1475 0.930 . S
C1470 H1456 0.930 . S
C1470 C1468 1.395 . S
C1470 C1473 1.403 . S
C1471 C1468 1.403 . S
C1471 C1472 1.524 . S
C1471 C1475 1.400 . S
C1472 H1457 0.960 . S
C1472 H1458 0.960 . S
C1472 H1459 0.960 . S
C1472 C1471 1.524 . S
C1473 C1470 1.403 . S
C1473 C1474 1.392 . S
C1473 C1477 1.495 . S
C1474 C1473 1.392 . S
C1474 C1475 1.385 . S
C1474 C1476 1.478 . S
C1475 H1469 0.930 . S
C1475 C1471 1.400 . S
C1475 C1474 1.385 . S
C1476 C1474 1.478 . S
C1476 C1478 1.381 . S
C1476 C1482 1.383 . S
C1477 C1473 1.495 . S
C1477 H1483 0.959 . S
C1477 H1484 0.961 . S
C1477 H1485 0.960 . S
C1478 C1476 1.381 . S
C1478 C1479 1.394 . S
C1478 H1486 0.930 . S
C1479 C1478 1.394 . S
C1479 C1480 1.383 . S
C1479 H1487 0.929 . S
C1480 C1479 1.383 . S
C1480 C1481 1.377 . S
C1481 H1465 0.930 . S
C1481 C1480 1.377 . S
C1481 C1482 1.379 . S
C1482 H1466 0.931 . S
C1482 C1476 1.383 . S
C1482 C1481 1.379 . S
H1483 C1477 0.959 . S
H1484 C1477 0.961 . S
H1485 C1477 0.960 . S
H1486 C1478 0.930 . S
H1487 C1479 0.929 . S
H1488 C1496 0.929 . S
H1489 C1498 0.930 . S
H1490 C1500 0.930 . S
H1491 C1503 0.929 . S
H1492 C1506 0.930 . S
H1493 C1508 0.960 . S
H1494 C1508 0.960 . S
H1495 C1508 0.960 . S
C1496 H1488 0.929 . S
C1496 C1497 1.377 . S
C1496 C1498 1.384 . S
C1497 C1496 1.377 . S
C1497 C1503 1.390 . S
C1498 H1489 0.930 . S
C1498 C1496 1.384 . S
C1498 C1499 1.372 . S
C1499 C1498 1.372 . S
C1499 C1500 1.400 . S
C1499 C1504 1.490 . S
C1500 H1490 0.930 . S
C1500 C1499 1.400 . S
C1500 C1503 1.386 . S
H1501 C1517 0.930 . S
H1502 C1518 0.931 . S
C1503 H1491 0.929 . S
C1503 C1497 1.390 . S
C1503 C1500 1.386 . S
C1504 C1499 1.490 . S
C1504 C1506 1.395 . S
C1504 C1507 1.403 . S
H1505 C1511 0.930 . S
C1506 H1492 0.930 . S
C1506 C1504 1.395 . S
C1506 C1509 1.403 . S
C1507 C1504 1.403 . S
C1507 C1508 1.524 . S
C1507 C1511 1.400 . S
C1508 H1493 0.960 . S
C1508 H1494 0.960 . S
C1508 H1495 0.960 . S
C1508 C1507 1.524 . S
C1509 C1506 1.403 . S
C1509 C1510 1.392 . S
C1509 C1513 1.495 . S
C1510 C1509 1.392 . S
C1510 C1511 1.385 . S
C1510 C1512 1.478 . S
C1511 H1505 0.930 . S
C1511 C1507 1.400 . S
C1511 C1510 1.385 . S
C1512 C1510 1.478 . S
C1512 C1514 1.381 . S
C1512 C1518 1.383 . S
C1513 C1509 1.495 . S
C1513 H1519 0.959 . S
C1513 H1520 0.961 . S
C1513 H1521 0.960 . S
C1514 C1512 1.381 . S
C1514 C1515 1.394 . S
C1514 H1522 0.930 . S
C1515 C1514 1.394 . S
C1515 C1516 1.383 . S
C1515 H1523 0.929 . S
C1516 C1515 1.383 . S
C1516 C1517 1.377 . S
C1517 H1501 0.930 . S
C1517 C1516 1.377 . S
C1517 C1518 1.379 . S
C1518 H1502 0.931 . S
C1518 C1512 1.383 . S
C1518 C1517 1.379 . S
H1519 C1513 0.959 . S
H1520 C1513 0.961 . S
H1521 C1513 0.960 . S
H1522 C1514 0.930 . S
H1523 C1515 0.929 . S
H1524 C1532 0.932 . S
H1525 C1534 0.930 . S
H1526 C1536 0.933 . S
H1527 C1539 0.929 . S
H1528 C1542 0.930 . S
H1529 C1544 0.960 . S
H1530 C1544 0.960 . S
H1531 C1544 0.960 . S
C1532 H1524 0.932 . S
C1532 C1533 1.344 1_545 S
C1532 C1534 1.415 . S
C1533 C1532 1.344 1_565 S
C1533 C1539 1.390 . S
C1534 H1525 0.930 . S
C1534 C1532 1.415 . S
C1534 C1535 1.372 1_655 S
C1535 C1534 1.372 1_455 S
C1535 C1536 1.358 1_545 S
C1535 C1540 1.490 . S
C1536 H1526 0.933 . S
C1536 C1535 1.358 1_565 S
C1536 C1539 1.426 1_455 S
H1537 C1553 0.930 . S
H1538 C1554 0.931 . S
C1539 H1527 0.929 . S
C1539 C1533 1.390 . S
C1539 C1536 1.426 1_655 S
C1540 C1535 1.490 . S
C1540 C1542 1.395 . S
C1540 C1543 1.403 . S
H1541 C1547 0.930 . S
C1542 H1528 0.930 . S
C1542 C1540 1.395 . S
C1542 C1545 1.403 . S
C1543 C1540 1.403 . S
C1543 C1544 1.524 1_455 S
C1543 C1547 1.400 . S
C1544 H1529 0.960 . S
C1544 H1530 0.960 . S
C1544 H1531 0.960 . S
C1544 C1543 1.524 1_655 S
C1545 C1542 1.403 . S
C1545 C1546 1.392 . S
C1545 C1549 1.495 . S
C1546 C1545 1.392 . S
C1546 C1547 1.385 . S
C1546 C1548 1.478 . S
C1547 H1541 0.930 . S
C1547 C1543 1.400 . S
C1547 C1546 1.385 . S
C1548 C1546 1.478 . S
C1548 C1550 1.381 . S
C1548 C1554 1.383 . S
C1549 C1545 1.495 . S
C1549 H1555 0.959 . S
C1549 H1556 0.961 . S
C1549 H1557 0.960 . S
C1550 C1548 1.381 . S
C1550 C1551 1.394 . S
C1550 H1558 0.930 . S
C1551 C1550 1.394 . S
C1551 C1552 1.383 . S
C1551 H1559 0.929 . S
C1552 C1551 1.383 . S
C1552 C1553 1.377 . S
C1553 H1537 0.930 . S
C1553 C1552 1.377 . S
C1553 C1554 1.379 . S
C1554 H1538 0.931 . S
C1554 C1548 1.383 . S
C1554 C1553 1.379 . S
H1555 C1549 0.959 . S
H1556 C1549 0.961 . S
H1557 C1549 0.960 . S
H1558 C1550 0.930 . S
H1559 C1551 0.929 . S
H1560 C1568 0.929 . S
H1561 C1570 0.930 . S
H1562 C1572 0.930 . S
H1563 C1575 0.929 . S
H1564 C1578 0.930 . S
H1565 C1580 0.960 . S
H1566 C1580 0.960 . S
H1567 C1580 0.960 . S
C1568 H1560 0.929 . S
C1568 C1569 1.377 . S
C1568 C1570 1.384 . S
C1569 C1568 1.377 . S
C1569 C1575 1.390 . S
C1570 H1561 0.930 . S
C1570 C1568 1.384 . S
C1570 C1571 1.372 . S
C1571 C1570 1.372 . S
C1571 C1572 1.400 . S
C1571 C1576 1.490 . S
C1572 H1562 0.930 . S
C1572 C1571 1.400 . S
C1572 C1575 1.386 . S
H1573 C1589 0.930 . S
H1574 C1590 0.931 . S
C1575 H1563 0.929 . S
C1575 C1569 1.390 . S
C1575 C1572 1.386 . S
C1576 C1571 1.490 . S
C1576 C1578 1.395 . S
C1576 C1579 1.403 . S
H1577 C1583 0.930 . S
C1578 H1564 0.930 . S
C1578 C1576 1.395 . S
C1578 C1581 1.403 . S
C1579 C1576 1.403 . S
C1579 C1580 1.524 . S
C1579 C1583 1.400 . S
C1580 H1565 0.960 . S
C1580 H1566 0.960 . S
C1580 H1567 0.960 . S
C1580 C1579 1.524 . S
C1581 C1578 1.403 . S
C1581 C1582 1.392 . S
C1581 C1585 1.495 . S
C1582 C1581 1.392 . S
C1582 C1583 1.385 . S
C1582 C1584 1.478 . S
C1583 H1577 0.930 . S
C1583 C1579 1.400 . S
C1583 C1582 1.385 . S
C1584 C1582 1.478 . S
C1584 C1586 1.381 . S
C1584 C1590 1.383 . S
C1585 C1581 1.495 . S
C1585 H1591 0.959 . S
C1585 H1592 0.961 . S
C1585 H1593 0.960 . S
C1586 C1584 1.381 . S
C1586 C1587 1.394 . S
C1586 H1594 0.930 . S
C1587 C1586 1.394 . S
C1587 C1588 1.383 . S
C1587 H1595 0.929 . S
C1588 C1587 1.383 . S
C1588 C1589 1.377 . S
C1589 H1573 0.930 . S
C1589 C1588 1.377 . S
C1589 C1590 1.379 . S
C1590 H1574 0.931 . S
C1590 C1584 1.383 . S
C1590 C1589 1.379 . S
H1591 C1585 0.959 . S
H1592 C1585 0.961 . S
H1593 C1585 0.960 . S
H1594 C1586 0.930 . S
H1595 C1587 0.929 . S
H1596 C1604 0.929 . S
H1597 C1606 0.930 . S
H1598 C1608 0.930 . S
H1599 C1611 0.929 . S
H1600 C1614 0.930 . S
H1601 C1616 0.960 . S
H1602 C1616 0.960 . S
H1603 C1616 0.960 . S
C1604 H1596 0.929 . S
C1604 C1605 1.377 . S
C1604 C1606 1.384 1_545 S
C1605 C1604 1.377 . S
C1605 C1611 1.390 . S
C1606 H1597 0.930 . S
C1606 C1604 1.384 1_565 S
C1606 C1607 1.372 . S
C1607 C1606 1.372 . S
C1607 C1608 1.400 . S
C1607 C1612 1.490 . S
C1608 H1598 0.930 . S
C1608 C1607 1.400 . S
C1608 C1611 1.386 1_565 S
H1609 C1625 0.930 . S
H1610 C1626 0.931 . S
C1611 H1599 0.929 . S
C1611 C1605 1.390 . S
C1611 C1608 1.386 1_545 S
C1612 C1607 1.490 . S
C1612 C1614 1.395 . S
C1612 C1615 1.403 . S
H1613 C1619 0.930 . S
C1614 H1600 0.930 . S
C1614 C1612 1.395 . S
C1614 C1617 1.403 . S
C1615 C1612 1.403 . S
C1615 C1616 1.524 . S
C1615 C1619 1.400 . S
C1616 H1601 0.960 . S
C1616 H1602 0.960 . S
C1616 H1603 0.960 . S
C1616 C1615 1.524 . S
C1617 C1614 1.403 . S
C1617 C1618 1.392 . S
C1617 C1621 1.495 . S
C1618 C1617 1.392 . S
C1618 C1619 1.385 . S
C1618 C1620 1.478 . S
C1619 H1613 0.930 . S
C1619 C1615 1.400 . S
C1619 C1618 1.385 . S
C1620 C1618 1.478 . S
C1620 C1622 1.381 . S
C1620 C1626 1.383 . S
C1621 C1617 1.495 . S
C1621 H1627 0.959 . S
C1621 H1628 0.961 . S
C1621 H1629 0.960 . S
C1622 C1620 1.381 . S
C1622 C1623 1.394 . S
C1622 H1630 0.930 . S
C1623 C1622 1.394 . S
C1623 C1624 1.383 . S
C1623 H1631 0.929 . S
C1624 C1623 1.383 . S
C1624 C1625 1.377 . S
C1625 H1609 0.930 . S
C1625 C1624 1.377 . S
C1625 C1626 1.379 . S
C1626 H1610 0.931 . S
C1626 C1620 1.383 . S
C1626 C1625 1.379 . S
H1627 C1621 0.959 . S
H1628 C1621 0.961 . S
H1629 C1621 0.960 . S
H1630 C1622 0.930 . S
H1631 C1623 0.929 . S
H1632 C1640 0.929 . S
H1633 C1642 0.930 . S
H1634 C1644 0.930 . S
H1635 C1647 0.929 . S
H1636 C1650 0.930 . S
H1637 C1652 0.960 . S
H1638 C1652 0.960 . S
H1639 C1652 0.960 . S
C1640 H1632 0.929 . S
C1640 C1641 1.377 . S
C1640 C1642 1.384 . S
C1641 C1640 1.377 . S
C1641 C1647 1.390 . S
C1642 H1633 0.930 . S
C1642 C1640 1.384 . S
C1642 C1643 1.372 . S
C1643 C1642 1.372 . S
C1643 C1644 1.400 . S
C1643 C1648 1.490 . S
C1644 H1634 0.930 . S
C1644 C1643 1.400 . S
C1644 C1647 1.386 . S
H1645 C1661 0.930 . S
H1646 C1662 0.931 . S
C1647 H1635 0.929 . S
C1647 C1641 1.390 . S
C1647 C1644 1.386 . S
C1648 C1643 1.490 . S
C1648 C1650 1.395 . S
C1648 C1651 1.403 . S
H1649 C1655 0.930 . S
C1650 H1636 0.930 . S
C1650 C1648 1.395 . S
C1650 C1653 1.403 . S
C1651 C1648 1.403 . S
C1651 C1652 1.524 . S
C1651 C1655 1.400 . S
C1652 H1637 0.960 . S
C1652 H1638 0.960 . S
C1652 H1639 0.960 . S
C1652 C1651 1.524 . S
C1653 C1650 1.403 . S
C1653 C1654 1.392 . S
C1653 C1657 1.495 . S
C1654 C1653 1.392 . S
C1654 C1655 1.385 . S
C1654 C1656 1.478 . S
C1655 H1649 0.930 . S
C1655 C1651 1.400 . S
C1655 C1654 1.385 . S
C1656 C1654 1.478 . S
C1656 C1658 1.381 . S
C1656 C1662 1.383 . S
C1657 C1653 1.495 . S
C1657 H1663 0.959 . S
C1657 H1664 0.961 . S
C1657 H1665 0.960 . S
C1658 C1656 1.381 . S
C1658 C1659 1.394 . S
C1658 H1666 0.930 . S
C1659 C1658 1.394 . S
C1659 C1660 1.383 . S
C1659 H1667 0.929 . S
C1660 C1659 1.383 . S
C1660 C1661 1.377 . S
C1661 H1645 0.930 . S
C1661 C1660 1.377 . S
C1661 C1662 1.379 . S
C1662 H1646 0.931 . S
C1662 C1656 1.383 . S
C1662 C1661 1.379 . S
H1663 C1657 0.959 . S
H1664 C1657 0.961 . S
H1665 C1657 0.960 . S
H1666 C1658 0.930 . S
H1667 C1659 0.929 . S
H1668 C1676 0.926 1_655 S
H1669 C1678 0.930 . S
H1670 C1680 0.930 . S
H1671 C1683 0.929 . S
H1672 C1686 0.953 . S
H1673 C1688 0.960 . S
H1674 C1688 0.960 . S
H1675 C1688 0.960 . S
C1676 H1668 0.926 1_455 S
C1676 C1677 1.390 . S
C1676 C1678 1.375 1_455 S
C1677 C1676 1.390 . S
C1677 C1683 1.390 . S
C1678 H1669 0.930 . S
C1678 C1676 1.375 1_655 S
C1678 C1679 1.372 . S
C1679 C1678 1.372 . S
C1679 C1680 1.400 1_655 S
C1679 C1684 1.490 . S
C1680 H1670 0.930 . S
C1680 C1679 1.400 1_455 S
C1680 C1683 1.386 . S
H1681 C1697 0.930 . S
H1682 C1698 0.931 . S
C1683 H1671 0.929 . S
C1683 C1677 1.390 . S
C1683 C1680 1.386 . S
C1684 C1679 1.490 . S
C1684 C1686 1.395 . S
C1684 C1687 1.403 . S
H1685 C1691 0.930 . S
C1686 H1672 0.953 . S
C1686 C1684 1.395 . S
C1686 C1689 1.403 . S
C1687 C1684 1.403 . S
C1687 C1688 1.524 . S
C1687 C1691 1.400 . S
C1688 H1673 0.960 . S
C1688 H1674 0.960 . S
C1688 H1675 0.960 . S
C1688 C1687 1.524 . S
C1689 C1686 1.403 . S
C1689 C1690 1.392 . S
C1689 C1693 1.495 . S
C1690 C1689 1.392 . S
C1690 C1691 1.385 . S
C1690 C1692 1.478 . S
C1691 H1685 0.930 . S
C1691 C1687 1.400 . S
C1691 C1690 1.385 . S
C1692 C1690 1.478 . S
C1692 C1694 1.381 . S
C1692 C1698 1.383 . S
C1693 C1689 1.495 . S
C1693 H1699 0.959 . S
C1693 H1700 0.961 . S
C1693 H1701 0.960 . S
C1694 C1692 1.381 . S
C1694 C1695 1.394 . S
C1694 H1702 0.930 . S
C1695 C1694 1.394 . S
C1695 C1696 1.383 . S
C1695 H1703 0.929 . S
C1696 C1695 1.383 . S
C1696 C1697 1.377 . S
C1697 H1681 0.930 . S
C1697 C1696 1.377 . S
C1697 C1698 1.379 . S
C1698 H1682 0.931 . S
C1698 C1692 1.383 . S
C1698 C1697 1.379 . S
H1699 C1693 0.959 . S
H1700 C1693 0.961 . S
H1701 C1693 0.960 . S
H1702 C1694 0.930 . S
H1703 C1695 0.929 . S
H1704 C1712 0.929 . S
H1705 C1714 0.930 . S
H1706 C1716 0.930 . S
H1707 C1719 0.929 . S
H1708 C1722 0.930 . S
H1709 C1724 0.960 . S
H1710 C1724 0.960 . S
H1711 C1724 0.960 . S
C1712 H1704 0.929 . S
C1712 C1713 1.377 . S
C1712 C1714 1.384 . S
C1713 C1712 1.377 . S
C1713 C1719 1.390 . S
C1714 H1705 0.930 . S
C1714 C1712 1.384 . S
C1714 C1715 1.372 . S
C1715 C1714 1.372 . S
C1715 C1716 1.400 . S
C1715 C1720 1.490 . S
C1716 H1706 0.930 . S
C1716 C1715 1.400 . S
C1716 C1719 1.386 . S
H1717 C1733 0.930 . S
H1718 C1734 0.931 . S
C1719 H1707 0.929 . S
C1719 C1713 1.390 . S
C1719 C1716 1.386 . S
C1720 C1715 1.490 . S
C1720 C1722 1.395 . S
C1720 C1723 1.403 . S
H1721 C1727 0.930 . S
C1722 H1708 0.930 . S
C1722 C1720 1.395 . S
C1722 C1725 1.403 . S
C1723 C1720 1.403 . S
C1723 C1724 1.524 . S
C1723 C1727 1.400 . S
C1724 H1709 0.960 . S
C1724 H1710 0.960 . S
C1724 H1711 0.960 . S
C1724 C1723 1.524 . S
C1725 C1722 1.403 . S
C1725 C1726 1.392 . S
C1725 C1729 1.495 . S
C1726 C1725 1.392 . S
C1726 C1727 1.385 . S
C1726 C1728 1.478 . S
C1727 H1721 0.930 . S
C1727 C1723 1.400 . S
C1727 C1726 1.385 . S
C1728 C1726 1.478 . S
C1728 C1730 1.381 . S
C1728 C1734 1.383 . S
C1729 C1725 1.495 . S
C1729 H1735 0.959 . S
C1729 H1736 0.961 . S
C1729 H1737 0.960 . S
C1730 C1728 1.381 . S
C1730 C1731 1.394 . S
C1730 H1738 0.930 . S
C1731 C1730 1.394 . S
C1731 C1732 1.383 . S
C1731 H1739 0.929 . S
C1732 C1731 1.383 . S
C1732 C1733 1.377 . S
C1733 H1717 0.930 . S
C1733 C1732 1.377 . S
C1733 C1734 1.379 . S
C1734 H1718 0.931 . S
C1734 C1728 1.383 . S
C1734 C1733 1.379 . S
H1735 C1729 0.959 . S
H1736 C1729 0.961 . S
H1737 C1729 0.960 . S
H1738 C1730 0.930 . S
H1739 C1731 0.929 . S
H1740 C1748 0.929 . S
H1741 C1750 0.930 . S
H1742 C1752 0.930 . S
H1743 C1755 0.929 . S
H1744 C1758 0.930 . S
H1745 C1760 0.960 . S
H1746 C1760 0.960 . S
H1747 C1760 0.960 . S
C1748 H1740 0.929 . S
C1748 C1749 1.377 . S
C1748 C1750 1.384 . S
C1749 C1748 1.377 . S
C1749 C1755 1.390 . S
C1750 H1741 0.930 . S
C1750 C1748 1.384 . S
C1750 C1751 1.372 . S
C1751 C1750 1.372 . S
C1751 C1752 1.400 . S
C1751 C1756 1.490 . S
C1752 H1742 0.930 . S
C1752 C1751 1.400 . S
C1752 C1755 1.386 . S
H1753 C1769 0.930 . S
H1754 C1770 0.931 . S
C1755 H1743 0.929 . S
C1755 C1749 1.390 . S
C1755 C1752 1.386 . S
C1756 C1751 1.490 . S
C1756 C1758 1.395 . S
C1756 C1759 1.403 . S
H1757 C1763 0.930 . S
C1758 H1744 0.930 . S
C1758 C1756 1.395 . S
C1758 C1761 1.403 . S
C1759 C1756 1.403 . S
C1759 C1760 1.524 . S
C1759 C1763 1.400 . S
C1760 H1745 0.960 . S
C1760 H1746 0.960 . S
C1760 H1747 0.960 . S
C1760 C1759 1.524 . S
C1761 C1758 1.403 . S
C1761 C1762 1.392 . S
C1761 C1765 1.495 . S
C1762 C1761 1.392 . S
C1762 C1763 1.385 . S
C1762 C1764 1.478 . S
C1763 H1757 0.930 . S
C1763 C1759 1.400 . S
C1763 C1762 1.385 . S
C1764 C1762 1.478 . S
C1764 C1766 1.381 . S
C1764 C1770 1.383 . S
C1765 C1761 1.495 . S
C1765 H1771 0.959 . S
C1765 H1772 0.961 . S
C1765 H1773 0.960 . S
C1766 C1764 1.381 . S
C1766 C1767 1.394 . S
C1766 H1774 0.930 . S
C1767 C1766 1.394 . S
C1767 C1768 1.383 . S
C1767 H1775 0.929 . S
C1768 C1767 1.383 . S
C1768 C1769 1.377 . S
C1769 H1753 0.930 . S
C1769 C1768 1.377 . S
C1769 C1770 1.379 . S
C1770 H1754 0.931 . S
C1770 C1764 1.383 . S
C1770 C1769 1.379 . S
H1771 C1765 0.959 . S
H1772 C1765 0.961 . S
H1773 C1765 0.960 . S
H1774 C1766 0.930 . S
H1775 C1767 0.929 . S
H1776 C1784 0.929 . S
H1777 C1786 0.930 . S
H1778 C1788 0.930 . S
H1779 C1791 0.929 . S
H1780 C1794 0.930 . S
H1781 C1796 0.960 . S
H1782 C1796 0.960 . S
H1783 C1796 0.960 . S
C1784 H1776 0.929 . S
C1784 C1785 1.377 . S
C1784 C1786 1.384 . S
C1785 C1784 1.377 . S
C1785 C1791 1.390 . S
C1786 H1777 0.930 . S
C1786 C1784 1.384 . S
C1786 C1787 1.372 . S
C1787 C1786 1.372 . S
C1787 C1788 1.400 . S
C1787 C1792 1.490 . S
C1788 H1778 0.930 . S
C1788 C1787 1.400 . S
C1788 C1791 1.386 . S
H1789 C1805 0.930 . S
H1790 C1806 0.931 . S
C1791 H1779 0.929 . S
C1791 C1785 1.390 . S
C1791 C1788 1.386 . S
C1792 C1787 1.490 . S
C1792 C1794 1.395 . S
C1792 C1795 1.403 . S
H1793 C1799 0.930 . S
C1794 H1780 0.930 . S
C1794 C1792 1.395 . S
C1794 C1797 1.403 . S
C1795 C1792 1.403 . S
C1795 C1796 1.524 . S
C1795 C1799 1.400 . S
C1796 H1781 0.960 . S
C1796 H1782 0.960 . S
C1796 H1783 0.960 . S
C1796 C1795 1.524 . S
C1797 C1794 1.403 . S
C1797 C1798 1.392 . S
C1797 C1801 1.495 . S
C1798 C1797 1.392 . S
C1798 C1799 1.385 . S
C1798 C1800 1.478 . S
C1799 H1793 0.930 . S
C1799 C1795 1.400 . S
C1799 C1798 1.385 . S
C1800 C1798 1.478 . S
C1800 C1802 1.381 . S
C1800 C1806 1.383 . S
C1801 C1797 1.495 . S
C1801 H1807 0.959 . S
C1801 H1808 0.961 . S
C1801 H1809 0.960 . S
C1802 C1800 1.381 . S
C1802 C1803 1.394 . S
C1802 H1810 0.930 . S
C1803 C1802 1.394 . S
C1803 C1804 1.383 . S
C1803 H1811 0.929 . S
C1804 C1803 1.383 . S
C1804 C1805 1.377 . S
C1805 H1789 0.930 . S
C1805 C1804 1.377 . S
C1805 C1806 1.379 . S
C1806 H1790 0.931 . S
C1806 C1800 1.383 . S
C1806 C1805 1.379 . S
H1807 C1801 0.959 . S
H1808 C1801 0.961 . S
H1809 C1801 0.960 . S
H1810 C1802 0.930 . S
H1811 C1803 0.929 . S
H1812 C1820 0.929 . S
H1813 C1822 0.930 . S
H1814 C1824 0.930 . S
H1815 C1827 0.929 . S
H1816 C1830 0.930 . S
H1817 C1832 0.960 . S
H1818 C1832 0.960 . S
H1819 C1832 0.960 . S
C1820 H1812 0.929 . S
C1820 C1821 1.377 . S
C1820 C1822 1.384 . S
C1821 C1820 1.377 . S
C1821 C1827 1.390 . S
C1822 H1813 0.930 . S
C1822 C1820 1.384 . S
C1822 C1823 1.372 . S
C1823 C1822 1.372 . S
C1823 C1824 1.400 . S
C1823 C1828 1.490 . S
C1824 H1814 0.930 . S
C1824 C1823 1.400 . S
C1824 C1827 1.386 . S
H1825 C1841 0.930 . S
H1826 C1842 0.931 . S
C1827 H1815 0.929 . S
C1827 C1821 1.390 . S
C1827 C1824 1.386 . S
C1828 C1823 1.490 . S
C1828 C1830 1.395 . S
C1828 C1831 1.403 . S
H1829 C1835 0.930 . S
C1830 H1816 0.930 . S
C1830 C1828 1.395 . S
C1830 C1833 1.403 . S
C1831 C1828 1.403 . S
C1831 C1832 1.524 . S
C1831 C1835 1.400 . S
C1832 H1817 0.960 . S
C1832 H1818 0.960 . S
C1832 H1819 0.960 . S
C1832 C1831 1.524 . S
C1833 C1830 1.403 . S
C1833 C1834 1.392 . S
C1833 C1837 1.495 . S
C1834 C1833 1.392 . S
C1834 C1835 1.385 . S
C1834 C1836 1.478 . S
C1835 H1829 0.930 . S
C1835 C1831 1.400 . S
C1835 C1834 1.385 . S
C1836 C1834 1.478 . S
C1836 C1838 1.381 . S
C1836 C1842 1.383 . S
C1837 C1833 1.495 . S
C1837 H1843 0.959 . S
C1837 H1844 0.961 . S
C1837 H1845 0.960 . S
C1838 C1836 1.381 . S
C1838 C1839 1.394 . S
C1838 H1846 0.930 . S
C1839 C1838 1.394 . S
C1839 C1840 1.383 . S
C1839 H1847 0.929 . S
C1840 C1839 1.383 . S
C1840 C1841 1.377 . S
C1841 H1825 0.930 . S
C1841 C1840 1.377 . S
C1841 C1842 1.379 . S
C1842 H1826 0.931 . S
C1842 C1836 1.383 . S
C1842 C1841 1.379 . S
H1843 C1837 0.959 . S
H1844 C1837 0.961 . S
H1845 C1837 0.960 . S
H1846 C1838 0.930 . S
H1847 C1839 0.929 . S
H1848 C1856 0.929 . S
H1849 C1858 0.930 . S
H1850 C1860 0.931 1_554 S
H1851 C1863 0.930 . S
H1852 C1866 0.930 1_556 S
H1853 C1868 0.960 . S
H1854 C1868 0.960 . S
H1855 C1868 0.960 . S
C1856 H1848 0.929 . S
C1856 C1857 1.377 . S
C1856 C1858 1.384 1_556 S
C1857 C1856 1.377 . S
C1857 C1863 1.377 1_655 S
C1858 H1849 0.930 . S
C1858 C1856 1.384 1_554 S
C1858 C1859 1.372 1_655 S
C1859 C1858 1.372 1_455 S
C1859 C1860 1.400 1_554 S
C1859 C1864 1.490 . S
C1860 H1850 0.931 1_556 S
C1860 C1859 1.400 1_556 S
C1860 C1863 1.398 . S
H1861 C1877 0.930 . S
H1862 C1878 0.931 . S
C1863 H1851 0.930 . S
C1863 C1857 1.377 1_455 S
C1863 C1860 1.398 . S
C1864 C1859 1.490 . S
C1864 C1866 1.395 . S
C1864 C1867 1.403 . S
H1865 C1871 0.930 . S
C1866 H1852 0.930 1_554 S
C1866 C1864 1.395 . S
C1866 C1869 1.403 . S
C1867 C1864 1.403 . S
C1867 C1868 1.524 . S
C1867 C1871 1.400 . S
C1868 H1853 0.960 . S
C1868 H1854 0.960 . S
C1868 H1855 0.960 . S
C1868 C1867 1.524 . S
C1869 C1866 1.403 . S
C1869 C1870 1.392 . S
C1869 C1873 1.495 . S
C1870 C1869 1.392 . S
C1870 C1871 1.385 . S
C1870 C1872 1.478 . S
C1871 H1865 0.930 . S
C1871 C1867 1.400 . S
C1871 C1870 1.385 . S
C1872 C1870 1.478 . S
C1872 C1874 1.381 . S
C1872 C1878 1.383 . S
C1873 C1869 1.495 . S
C1873 H1879 0.959 1_554 S
C1873 H1880 0.961 1_554 S
C1873 H1881 0.960 . S
C1874 C1872 1.381 . S
C1874 C1875 1.394 . S
C1874 H1882 0.930 . S
C1875 C1874 1.394 . S
C1875 C1876 1.383 . S
C1875 H1883 0.929 . S
C1876 C1875 1.383 . S
C1876 C1877 1.377 . S
C1877 H1861 0.930 . S
C1877 C1876 1.377 . S
C1877 C1878 1.379 . S
C1878 H1862 0.931 . S
C1878 C1872 1.383 . S
C1878 C1877 1.379 . S
H1879 C1873 0.959 1_556 S
H1880 C1873 0.961 1_556 S
H1881 C1873 0.960 . S
H1882 C1874 0.930 . S
H1883 C1875 0.929 . S
H1884 C1892 0.929 . S
H1885 C1894 0.930 . S
H1886 C1896 0.930 . S
H1887 C1899 0.929 . S
H1888 C1902 0.930 . S
H1889 C1904 0.960 . S
H1890 C1904 0.960 . S
H1891 C1904 0.960 . S
C1892 H1884 0.929 . S
C1892 C1893 1.377 . S
C1892 C1894 1.384 . S
C1893 C1892 1.377 . S
C1893 C1899 1.390 . S
C1894 H1885 0.930 . S
C1894 C1892 1.384 . S
C1894 C1895 1.372 . S
C1895 C1894 1.372 . S
C1895 C1896 1.400 . S
C1895 C1900 1.490 . S
C1896 H1886 0.930 . S
C1896 C1895 1.400 . S
C1896 C1899 1.386 . S
H1897 C1913 0.930 . S
H1898 C1914 0.931 . S
C1899 H1887 0.929 . S
C1899 C1893 1.390 . S
C1899 C1896 1.386 . S
C1900 C1895 1.490 . S
C1900 C1902 1.395 . S
C1900 C1903 1.403 . S
H1901 C1907 0.930 . S
C1902 H1888 0.930 . S
C1902 C1900 1.395 . S
C1902 C1905 1.403 . S
C1903 C1900 1.403 . S
C1903 C1904 1.524 . S
C1903 C1907 1.400 . S
C1904 H1889 0.960 . S
C1904 H1890 0.960 . S
C1904 H1891 0.960 . S
C1904 C1903 1.524 . S
C1905 C1902 1.403 . S
C1905 C1906 1.392 . S
C1905 C1909 1.495 . S
C1906 C1905 1.392 . S
C1906 C1907 1.385 . S
C1906 C1908 1.478 . S
C1907 H1901 0.930 . S
C1907 C1903 1.400 . S
C1907 C1906 1.385 . S
C1908 C1906 1.478 . S
C1908 C1910 1.381 . S
C1908 C1914 1.383 . S
C1909 C1905 1.495 . S
C1909 H1915 0.959 . S
C1909 H1916 0.961 . S
C1909 H1917 0.960 . S
C1910 C1908 1.381 . S
C1910 C1911 1.394 . S
C1910 H1918 0.930 . S
C1911 C1910 1.394 . S
C1911 C1912 1.383 . S
C1911 H1919 0.929 . S
C1912 C1911 1.383 . S
C1912 C1913 1.377 . S
C1913 H1897 0.930 . S
C1913 C1912 1.377 . S
C1913 C1914 1.379 . S
C1914 H1898 0.931 . S
C1914 C1908 1.383 . S
C1914 C1913 1.379 . S
H1915 C1909 0.959 . S
H1916 C1909 0.961 . S
H1917 C1909 0.960 . S
H1918 C1910 0.930 . S
H1919 C1911 0.929 . S
H1920 C1928 0.929 . S
H1921 C1930 0.930 . S
H1922 C1932 0.930 . S
H1923 C1935 0.929 . S
H1924 C1938 0.930 . S
H1925 C1940 0.960 . S
H1926 C1940 0.960 . S
H1927 C1940 0.960 . S
C1928 H1920 0.929 . S
C1928 C1929 1.377 . S
C1928 C1930 1.384 . S
C1929 C1928 1.377 . S
C1929 C1935 1.390 . S
C1930 H1921 0.930 . S
C1930 C1928 1.384 . S
C1930 C1931 1.372 . S
C1931 C1930 1.372 . S
C1931 C1932 1.400 . S
C1931 C1936 1.490 . S
C1932 H1922 0.930 . S
C1932 C1931 1.400 . S
C1932 C1935 1.386 . S
H1933 C1949 0.930 . S
H1934 C1950 0.931 . S
C1935 H1923 0.929 . S
C1935 C1929 1.390 . S
C1935 C1932 1.386 . S
C1936 C1931 1.490 . S
C1936 C1938 1.395 . S
C1936 C1939 1.403 . S
H1937 C1943 0.930 . S
C1938 H1924 0.930 . S
C1938 C1936 1.395 . S
C1938 C1941 1.403 . S
C1939 C1936 1.403 . S
C1939 C1940 1.524 . S
C1939 C1943 1.400 . S
C1940 H1925 0.960 . S
C1940 H1926 0.960 . S
C1940 H1927 0.960 . S
C1940 C1939 1.524 . S
C1941 C1938 1.403 . S
C1941 C1942 1.392 . S
C1941 C1945 1.495 . S
C1942 C1941 1.392 . S
C1942 C1943 1.385 . S
C1942 C1944 1.478 . S
C1943 H1937 0.930 . S
C1943 C1939 1.400 . S
C1943 C1942 1.385 . S
C1944 C1942 1.478 . S
C1944 C1946 1.381 . S
C1944 C1950 1.383 . S
C1945 C1941 1.495 . S
C1945 H1951 0.959 . S
C1945 H1952 0.961 . S
C1945 H1953 0.960 . S
C1946 C1944 1.381 . S
C1946 C1947 1.394 . S
C1946 H1954 0.930 . S
C1947 C1946 1.394 . S
C1947 C1948 1.383 . S
C1947 H1955 0.929 . S
C1948 C1947 1.383 . S
C1948 C1949 1.377 . S
C1949 H1933 0.930 . S
C1949 C1948 1.377 . S
C1949 C1950 1.379 . S
C1950 H1934 0.931 . S
C1950 C1944 1.383 . S
C1950 C1949 1.379 . S
H1951 C1945 0.959 . S
H1952 C1945 0.961 . S
H1953 C1945 0.960 . S
H1954 C1946 0.930 . S
H1955 C1947 0.929 . S
H1956 C1964 0.929 . S
H1957 C1966 0.930 . S
H1958 C1968 0.930 . S
H1959 C1971 0.929 . S
H1960 C1974 0.930 . S
H1961 C1976 0.960 . S
H1962 C1976 0.960 . S
H1963 C1976 0.960 . S
C1964 H1956 0.929 . S
C1964 C1965 1.377 . S
C1964 C1966 1.384 . S
C1965 C1964 1.377 . S
C1965 C1971 1.390 . S
C1966 H1957 0.930 . S
C1966 C1964 1.384 . S
C1966 C1967 1.372 . S
C1967 C1966 1.372 . S
C1967 C1968 1.400 . S
C1967 C1972 1.490 . S
C1968 H1958 0.930 . S
C1968 C1967 1.400 . S
C1968 C1971 1.386 . S
H1969 C1985 0.930 . S
H1970 C1986 0.931 . S
C1971 H1959 0.929 . S
C1971 C1965 1.390 . S
C1971 C1968 1.386 . S
C1972 C1967 1.490 . S
C1972 C1974 1.395 . S
C1972 C1975 1.403 . S
H1973 C1979 0.930 . S
C1974 H1960 0.930 . S
C1974 C1972 1.395 . S
C1974 C1977 1.403 . S
C1975 C1972 1.403 . S
C1975 C1976 1.524 . S
C1975 C1979 1.400 . S
C1976 H1961 0.960 . S
C1976 H1962 0.960 . S
C1976 H1963 0.960 . S
C1976 C1975 1.524 . S
C1977 C1974 1.403 . S
C1977 C1978 1.392 . S
C1977 C1981 1.495 . S
C1978 C1977 1.392 . S
C1978 C1979 1.385 . S
C1978 C1980 1.478 . S
C1979 H1973 0.930 . S
C1979 C1975 1.400 . S
C1979 C1978 1.385 . S
C1980 C1978 1.478 . S
C1980 C1982 1.381 . S
C1980 C1986 1.383 . S
C1981 C1977 1.495 . S
C1981 H1987 0.959 . S
C1981 H1988 0.961 . S
C1981 H1989 0.960 . S
C1982 C1980 1.381 . S
C1982 C1983 1.394 . S
C1982 H1990 0.930 . S
C1983 C1982 1.394 . S
C1983 C1984 1.383 . S
C1983 H1991 0.929 . S
C1984 C1983 1.383 . S
C1984 C1985 1.377 . S
C1985 H1969 0.930 . S
C1985 C1984 1.377 . S
C1985 C1986 1.379 . S
C1986 H1970 0.931 . S
C1986 C1980 1.383 . S
C1986 C1985 1.379 . S
H1987 C1981 0.959 . S
H1988 C1981 0.961 . S
H1989 C1981 0.960 . S
H1990 C1982 0.930 . S
H1991 C1983 0.929 . S
H1992 C2000 0.929 . S
H1993 C2002 0.930 . S
H1994 C2004 0.930 . S
H1995 C2007 0.929 . S
H1996 C2010 0.930 . S
H1997 C2012 0.960 . S
H1998 C2012 0.960 . S
H1999 C2012 0.960 . S
C2000 H1992 0.929 . S
C2000 C2001 1.377 1_556 S
C2000 C2002 1.384 . S
C2001 C2000 1.377 1_554 S
C2001 C2007 1.390 . S
C2002 H1993 0.930 . S
C2002 C2000 1.384 . S
C2002 C2003 1.372 . S
C2003 C2002 1.372 . S
C2003 C2004 1.400 1_556 S
C2003 C2008 1.490 . S
C2004 H1994 0.930 . S
C2004 C2003 1.400 1_554 S
C2004 C2007 1.386 . S
H2005 C2021 0.930 . S
H2006 C2022 0.931 . S
C2007 H1995 0.929 . S
C2007 C2001 1.390 . S
C2007 C2004 1.386 . S
C2008 C2003 1.490 . S
C2008 C2010 1.395 . S
C2008 C2011 1.403 . S
H2009 C2015 0.930 . S
C2010 H1996 0.930 . S
C2010 C2008 1.395 . S
C2010 C2013 1.403 . S
C2011 C2008 1.403 . S
C2011 C2012 1.524 1_556 S
C2011 C2015 1.400 . S
C2012 H1997 0.960 . S
C2012 H1998 0.960 . S
C2012 H1999 0.960 . S
C2012 C2011 1.524 1_554 S
C2013 C2010 1.403 . S
C2013 C2014 1.392 . S
C2013 C2017 1.495 . S
C2014 C2013 1.392 . S
C2014 C2015 1.385 . S
C2014 C2016 1.478 . S
C2015 H2009 0.930 . S
C2015 C2011 1.400 . S
C2015 C2014 1.385 . S
C2016 C2014 1.478 . S
C2016 C2018 1.381 . S
C2016 C2022 1.383 . S
C2017 C2013 1.495 . S
C2017 H2023 0.959 . S
C2017 H2024 0.961 . S
C2017 H2025 0.960 . S
C2018 C2016 1.381 . S
C2018 C2019 1.394 . S
C2018 H2026 0.930 . S
C2019 C2018 1.394 . S
C2019 C2020 1.383 . S
C2019 H2027 0.929 . S
C2020 C2019 1.383 . S
C2020 C2021 1.377 . S
C2021 H2005 0.930 . S
C2021 C2020 1.377 . S
C2021 C2022 1.379 . S
C2022 H2006 0.931 . S
C2022 C2016 1.383 . S
C2022 C2021 1.379 . S
H2023 C2017 0.959 . S
H2024 C2017 0.961 . S
H2025 C2017 0.960 . S
H2026 C2018 0.930 . S
H2027 C2019 0.929 . S
H2028 C2036 0.929 . S
H2029 C2038 0.930 . S
H2030 C2040 0.930 . S
H2031 C2043 0.929 . S
H2032 C2046 0.930 . S
H2033 C2048 0.960 . S
H2034 C2048 0.960 . S
H2035 C2048 0.960 . S
C2036 H2028 0.929 . S
C2036 C2037 1.377 . S
C2036 C2038 1.384 . S
C2037 C2036 1.377 . S
C2037 C2043 1.390 . S
C2038 H2029 0.930 . S
C2038 C2036 1.384 . S
C2038 C2039 1.372 . S
C2039 C2038 1.372 . S
C2039 C2040 1.400 . S
C2039 C2044 1.490 . S
C2040 H2030 0.930 . S
C2040 C2039 1.400 . S
C2040 C2043 1.386 . S
H2041 C2057 0.930 . S
H2042 C2058 0.931 . S
C2043 H2031 0.929 . S
C2043 C2037 1.390 . S
C2043 C2040 1.386 . S
C2044 C2039 1.490 . S
C2044 C2046 1.395 . S
C2044 C2047 1.403 . S
H2045 C2051 0.930 . S
C2046 H2032 0.930 . S
C2046 C2044 1.395 . S
C2046 C2049 1.403 . S
C2047 C2044 1.403 . S
C2047 C2048 1.524 . S
C2047 C2051 1.400 . S
C2048 H2033 0.960 . S
C2048 H2034 0.960 . S
C2048 H2035 0.960 . S
C2048 C2047 1.524 . S
C2049 C2046 1.403 . S
C2049 C2050 1.392 . S
C2049 C2053 1.495 . S
C2050 C2049 1.392 . S
C2050 C2051 1.385 . S
C2050 C2052 1.478 . S
C2051 H2045 0.930 . S
C2051 C2047 1.400 . S
C2051 C2050 1.385 . S
C2052 C2050 1.478 . S
C2052 C2054 1.381 . S
C2052 C2058 1.383 1_655 S
C2053 C2049 1.495 . S
C2053 H2059 0.959 . S
C2053 H2060 0.961 . S
C2053 H2061 0.960 . S
C2054 C2052 1.381 . S
C2054 C2055 1.394 . S
C2054 H2062 0.930 . S
C2055 C2054 1.394 . S
C2055 C2056 1.383 1_655 S
C2055 H2063 0.929 . S
C2056 C2055 1.383 1_455 S
C2056 C2057 1.377 . S
C2057 H2041 0.930 . S
C2057 C2056 1.377 . S
C2057 C2058 1.379 . S
C2058 H2042 0.931 . S
C2058 C2052 1.383 1_455 S
C2058 C2057 1.379 . S
H2059 C2053 0.959 . S
H2060 C2053 0.961 . S
H2061 C2053 0.960 . S
H2062 C2054 0.930 . S
H2063 C2055 0.929 . S
C345 C137 0.927 . S
C364 C11 0.943 . S
C381 C25 0.937 . S
C400 C151 0.974 . S
C417 C39 0.934 . S
C436 C165 0.973 . S
C453 C53 0.929 . S
C472 C123 0.899 . S
C489 C67 0.943 . S
C508 C221 0.944 . S
C525 C179 0.943 . S
C544 C81 0.952 . S
C561 C95 0.943 . S
C580 C193 0.930 . S
C597 C207 0.941 . S
C616 C109 0.914 . S
C633 C235 0.943 . S
C652 C263 0.933 . S
C669 C319 0.928 . S
C688 C249 0.952 . S
C705 C277 0.944 . S
C724 C333 0.940 . S
C741 C305 0.928 . S
C760 C291 0.957 . S
C777 C293 1.376 . S
C796 C13 1.359 . S
C813 C27 1.378 . S
C832 C251 1.347 . S
C849 C41 1.386 . S
C868 C265 1.334 . S
C885 C55 1.392 . S
C904 C279 1.380 . S
C921 C69 1.377 . S
C940 C335 1.352 . S
C957 C307 1.380 . S
C976 C83 1.342 . S
C993 C321 1.392 . S
C1012 C97 1.377 . S
C1029 C237 1.374 . S
C1048 C111 1.378 . S
C1065 C223 1.380 . S
C1084 C125 1.425 . S
C1101 C139 1.374 . S
C1120 C181 1.372 . S
C1137 C195 1.374 . S
C1156 C153 1.410 . S
C1173 C209 1.390 . S
C1192 C167 1.393 . S
C1209 C8 0.704 . S
C1228 C231 0.715 . S
C1245 C329 0.683 . S
C1264 C22 0.693 . S
C1281 C301 0.670 . S
C1300 C36 0.784 . S
C1317 C50 0.707 . S
C1336 C315 0.709 . S
C1353 C64 0.717 . S
C1372 C245 0.639 . S
C1389 C259 0.665 . S
C1408 C78 0.688 . S
C1425 C273 0.683 . S
C1444 C92 0.704 . S
C1461 C287 0.663 . S
C1480 C106 0.751 . S
C1497 C7 0.679 . S
C1516 C120 0.747 . S
C1533 C21 0.663 . S
C1552 C134 0.750 . S
C1569 C35 0.672 . S
C1588 C148 0.782 . S
C1605 C49 0.675 . S
C1624 C162 0.771 . S
C1641 C63 0.665 . S
C1660 C176 0.772 . S
C1677 C77 0.684 . S
C1696 C190 0.674 . S
C1713 C204 0.704 . S
C1732 C91 0.715 . S
C1749 C105 0.663 . S
C1768 C218 0.729 . S
C1785 C119 0.679 . S
C1804 C232 0.613 . S
C1821 C246 0.682 . S
C1840 C175 0.696 . S
C1857 C189 0.684 . S
C1876 C260 0.650 . S
C1893 C274 0.707 . S
C1912 C203 0.622 . S
C1929 C288 0.714 . S
C1948 C217 0.627 . S
C1965 C302 0.688 . S
C1984 C147 0.722 . S
C2001 C161 0.673 . S
C2020 C316 0.779 . S
C2037 C330 0.694 . S
C2056 C133 0.639 . S
