# Generated by pormake.
# Topology uox, (4)-cn, num edge types: 1
# Building blocks:
#     Node 0, Type 0, BuildingBlock: KUFVIS_clean_sbu_0, # of connection points: 4
#     Node 1, Type 0, BuildingBlock: KUFVIS_clean_sbu_0, # of connection points: 4
#     Node 2, Type 0, BuildingBlock: KUFVIS_clean_sbu_0, # of connection points: 4
#     Node 3, Type 0, BuildingBlock: KUFVIS_clean_sbu_0, # of connection points: 4
#     Node 4, Type 0, BuildingBlock: KUFVIS_clean_sbu_0, # of connection points: 4
#     Node 5, Type 0, BuildingBlock: KUFVIS_clean_sbu_0, # of connection points: 4
#     Node 6, Type 0, BuildingBlock: KUFVIS_clean_sbu_0, # of connection points: 4
#     Node 7, Type 0, BuildingBlock: KUFVIS_clean_sbu_0, # of connection points: 4
#     Node 8, Type 0, BuildingBlock: KUFVIS_clean_sbu_0, # of connection points: 4
#     Node 9, Type 0, BuildingBlock: KUFVIS_clean_sbu_0, # of connection points: 4
#     Node 10, Type 0, BuildingBlock: KUFVIS_clean_sbu_0, # of connection points: 4
#     Node 11, Type 0, BuildingBlock: KUFVIS_clean_sbu_0, # of connection points: 4
#     Node 12, Type 0, BuildingBlock: KUFVIS_clean_sbu_0, # of connection points: 4
#     Node 13, Type 0, BuildingBlock: KUFVIS_clean_sbu_0, # of connection points: 4
#     Node 14, Type 0, BuildingBlock: KUFVIS_clean_sbu_0, # of connection points: 4
#     Node 15, Type 0, BuildingBlock: KUFVIS_clean_sbu_0, # of connection points: 4
#     Node 16, Type 0, BuildingBlock: KUFVIS_clean_sbu_0, # of connection points: 4
#     Node 17, Type 0, BuildingBlock: KUFVIS_clean_sbu_0, # of connection points: 4
#     Node 18, Type 0, BuildingBlock: KUFVIS_clean_sbu_0, # of connection points: 4
#     Node 19, Type 0, BuildingBlock: KUFVIS_clean_sbu_0, # of connection points: 4
#     Node 20, Type 0, BuildingBlock: KUFVIS_clean_sbu_0, # of connection points: 4
#     Node 21, Type 0, BuildingBlock: KUFVIS_clean_sbu_0, # of connection points: 4
#     Node 22, Type 0, BuildingBlock: KUFVIS_clean_sbu_0, # of connection points: 4
#     Node 23, Type 0, BuildingBlock: KUFVIS_clean_sbu_0, # of connection points: 4
#     Node 24, Type 0, BuildingBlock: KUFVIS_clean_sbu_0, # of connection points: 4
#     Node 25, Type 0, BuildingBlock: KUFVIS_clean_sbu_0, # of connection points: 4
#     Node 26, Type 0, BuildingBlock: KUFVIS_clean_sbu_0, # of connection points: 4
#     Node 27, Type 0, BuildingBlock: KUFVIS_clean_sbu_0, # of connection points: 4
#     Node 28, Type 0, BuildingBlock: KUFVIS_clean_sbu_0, # of connection points: 4
#     Node 29, Type 0, BuildingBlock: KUFVIS_clean_sbu_0, # of connection points: 4
#     Node 30, Type 0, BuildingBlock: KUFVIS_clean_sbu_0, # of connection points: 4
#     Node 31, Type 0, BuildingBlock: KUFVIS_clean_sbu_0, # of connection points: 4
#     Edge 32, Type (0, 0), BuildingBlock: ZUJKAS_clean_linker_0, # of connection points: 2
#     Edge 33, Type (0, 0), BuildingBlock: ZUJKAS_clean_linker_0, # of connection points: 2
#     Edge 34, Type (0, 0), BuildingBlock: ZUJKAS_clean_linker_0, # of connection points: 2
#     Edge 35, Type (0, 0), BuildingBlock: ZUJKAS_clean_linker_0, # of connection points: 2
#     Edge 36, Type (0, 0), BuildingBlock: ZUJKAS_clean_linker_0, # of connection points: 2
#     Edge 37, Type (0, 0), BuildingBlock: ZUJKAS_clean_linker_0, # of connection points: 2
#     Edge 38, Type (0, 0), BuildingBlock: ZUJKAS_clean_linker_0, # of connection points: 2
#     Edge 39, Type (0, 0), BuildingBlock: ZUJKAS_clean_linker_0, # of connection points: 2
#     Edge 40, Type (0, 0), BuildingBlock: ZUJKAS_clean_linker_0, # of connection points: 2
#     Edge 41, Type (0, 0), BuildingBlock: ZUJKAS_clean_linker_0, # of connection points: 2
#     Edge 42, Type (0, 0), BuildingBlock: ZUJKAS_clean_linker_0, # of connection points: 2
#     Edge 43, Type (0, 0), BuildingBlock: ZUJKAS_clean_linker_0, # of connection points: 2
#     Edge 44, Type (0, 0), BuildingBlock: ZUJKAS_clean_linker_0, # of connection points: 2
#     Edge 45, Type (0, 0), BuildingBlock: ZUJKAS_clean_linker_0, # of connection points: 2
#     Edge 46, Type (0, 0), BuildingBlock: ZUJKAS_clean_linker_0, # of connection points: 2
#     Edge 47, Type (0, 0), BuildingBlock: ZUJKAS_clean_linker_0, # of connection points: 2
#     Edge 48, Type (0, 0), BuildingBlock: ZUJKAS_clean_linker_0, # of connection points: 2
#     Edge 49, Type (0, 0), BuildingBlock: ZUJKAS_clean_linker_0, # of connection points: 2
#     Edge 50, Type (0, 0), BuildingBlock: ZUJKAS_clean_linker_0, # of connection points: 2
#     Edge 51, Type (0, 0), BuildingBlock: ZUJKAS_clean_linker_0, # of connection points: 2
#     Edge 52, Type (0, 0), BuildingBlock: ZUJKAS_clean_linker_0, # of connection points: 2
#     Edge 53, Type (0, 0), BuildingBlock: ZUJKAS_clean_linker_0, # of connection points: 2
#     Edge 54, Type (0, 0), BuildingBlock: ZUJKAS_clean_linker_0, # of connection points: 2
#     Edge 55, Type (0, 0), BuildingBlock: ZUJKAS_clean_linker_0, # of connection points: 2
#     Edge 56, Type (0, 0), BuildingBlock: ZUJKAS_clean_linker_0, # of connection points: 2
#     Edge 57, Type (0, 0), BuildingBlock: ZUJKAS_clean_linker_0, # of connection points: 2
#     Edge 58, Type (0, 0), BuildingBlock: ZUJKAS_clean_linker_0, # of connection points: 2
#     Edge 59, Type (0, 0), BuildingBlock: ZUJKAS_clean_linker_0, # of connection points: 2
#     Edge 60, Type (0, 0), BuildingBlock: ZUJKAS_clean_linker_0, # of connection points: 2
#     Edge 61, Type (0, 0), BuildingBlock: ZUJKAS_clean_linker_0, # of connection points: 2
#     Edge 62, Type (0, 0), BuildingBlock: ZUJKAS_clean_linker_0, # of connection points: 2
#     Edge 63, Type (0, 0), BuildingBlock: ZUJKAS_clean_linker_0, # of connection points: 2
#     Edge 64, Type (0, 0), BuildingBlock: ZUJKAS_clean_linker_0, # of connection points: 2
#     Edge 65, Type (0, 0), BuildingBlock: ZUJKAS_clean_linker_0, # of connection points: 2
#     Edge 66, Type (0, 0), BuildingBlock: ZUJKAS_clean_linker_0, # of connection points: 2
#     Edge 67, Type (0, 0), BuildingBlock: ZUJKAS_clean_linker_0, # of connection points: 2
#     Edge 68, Type (0, 0), BuildingBlock: ZUJKAS_clean_linker_0, # of connection points: 2
#     Edge 69, Type (0, 0), BuildingBlock: ZUJKAS_clean_linker_0, # of connection points: 2
#     Edge 70, Type (0, 0), BuildingBlock: ZUJKAS_clean_linker_0, # of connection points: 2
#     Edge 71, Type (0, 0), BuildingBlock: ZUJKAS_clean_linker_0, # of connection points: 2
#     Edge 72, Type (0, 0), BuildingBlock: ZUJKAS_clean_linker_0, # of connection points: 2
#     Edge 73, Type (0, 0), BuildingBlock: ZUJKAS_clean_linker_0, # of connection points: 2
#     Edge 74, Type (0, 0), BuildingBlock: ZUJKAS_clean_linker_0, # of connection points: 2
#     Edge 75, Type (0, 0), BuildingBlock: ZUJKAS_clean_linker_0, # of connection points: 2
#     Edge 76, Type (0, 0), BuildingBlock: ZUJKAS_clean_linker_0, # of connection points: 2
#     Edge 77, Type (0, 0), BuildingBlock: ZUJKAS_clean_linker_0, # of connection points: 2
#     Edge 78, Type (0, 0), BuildingBlock: ZUJKAS_clean_linker_0, # of connection points: 2
#     Edge 79, Type (0, 0), BuildingBlock: ZUJKAS_clean_linker_0, # of connection points: 2
#     Edge 80, Type (0, 0), BuildingBlock: ZUJKAS_clean_linker_0, # of connection points: 2
#     Edge 81, Type (0, 0), BuildingBlock: ZUJKAS_clean_linker_0, # of connection points: 2
#     Edge 82, Type (0, 0), BuildingBlock: ZUJKAS_clean_linker_0, # of connection points: 2
#     Edge 83, Type (0, 0), BuildingBlock: ZUJKAS_clean_linker_0, # of connection points: 2
#     Edge 84, Type (0, 0), BuildingBlock: ZUJKAS_clean_linker_0, # of connection points: 2
#     Edge 85, Type (0, 0), BuildingBlock: ZUJKAS_clean_linker_0, # of connection points: 2
#     Edge 86, Type (0, 0), BuildingBlock: ZUJKAS_clean_linker_0, # of connection points: 2
#     Edge 87, Type (0, 0), BuildingBlock: ZUJKAS_clean_linker_0, # of connection points: 2
#     Edge 88, Type (0, 0), BuildingBlock: ZUJKAS_clean_linker_0, # of connection points: 2
#     Edge 89, Type (0, 0), BuildingBlock: ZUJKAS_clean_linker_0, # of connection points: 2
#     Edge 90, Type (0, 0), BuildingBlock: ZUJKAS_clean_linker_0, # of connection points: 2
#     Edge 91, Type (0, 0), BuildingBlock: ZUJKAS_clean_linker_0, # of connection points: 2
#     Edge 92, Type (0, 0), BuildingBlock: ZUJKAS_clean_linker_0, # of connection points: 2
#     Edge 93, Type (0, 0), BuildingBlock: ZUJKAS_clean_linker_0, # of connection points: 2
#     Edge 94, Type (0, 0), BuildingBlock: ZUJKAS_clean_linker_0, # of connection points: 2
#     Edge 95, Type (0, 0), BuildingBlock: ZUJKAS_clean_linker_0, # of connection points: 2
# Relax obj value: 0.069
# Max RMSD: 0.100
# Mean RMSD: 0.100
data_MOF--net-uox--node1-KUFVIS_clean_sbu_0--edge1-ZUJKAS_clean_linker_0
_symmetry_space_group_name_H-M    P1
_symmetry_Int_Tables_number       1
_symmetry_cell_setting            triclinic
loop_
_symmetry_equiv_pos_as_xyz
'x, y, z'
_cell_length_a     59.652126
_cell_length_b     59.65702
_cell_length_c     99.977432
_cell_angle_alpha  89.977543
_cell_angle_beta   90.0074
_cell_angle_gamma 89.981469
loop_
_atom_site_label
_atom_site_type_symbol
_atom_site_fract_x
_atom_site_fract_y
_atom_site_fract_z
_atom_type_partial_charge
Mn0 Mn 0.41488 0.05854 0.15779 0.0
Mn1 Mn 0.44442 0.01069 0.15411 0.0
C2 C 0.45349 0.05988 0.155 0.0
C3 C 0.39417 0.08821 0.14878 0.0
C4 C 0.42746 0.02707 0.18095 0.0
O5 O 0.39059 0.03594 0.15304 0.0
O6 O 0.41206 0.00521 0.15056 0.0
C7 C 0.43799 0.0047 0.12496 0.0
N8 N 0.45191 0.00672 0.13569 0.0
C9 C 0.48443 1.00057 0.12195 0.0
C10 C 0.47045 0.99832 0.11075 0.0
C11 C 0.44713 1.00052 0.11226 0.0
C12 C 0.47437 0.00495 0.13432 0.0
H13 H 0.42005 0.0062 0.12609 0.0
C14 C 0.39302 0.01517 0.15036 0.0
O15 O 0.39209 0.08235 0.16122 0.0
O16 O 0.4079 0.07653 0.14152 0.0
N17 N 0.47598 0.01329 0.15704 0.0
C18 C 0.48717 0.01721 0.16869 0.0
C19 C 0.51068 0.0162 0.16885 0.0
C20 C 0.5224 0.0108 0.1571 0.0
C21 C 0.51051 0.0068 0.14523 0.0
C22 C 0.48711 0.00823 0.14566 0.0
H23 H 0.47821 0.02112 0.17777 0.0
O24 O 0.44281 0.07639 0.16054 0.0
O25 O 0.44124 0.04303 0.15114 0.0
O26 O 0.41778 0.04471 0.17658 0.0
O27 O 0.43798 0.01337 0.17341 0.0
C28 C 0.52095 0.00151 0.13299 0.0
C29 C 0.50795 0.99866 0.12133 0.0
H30 H 0.47743 0.99498 0.10095 0.0
H31 H 0.43623 0.99886 0.10366 0.0
H32 H 0.51974 0.01939 0.17803 0.0
H33 H 0.54053 0.00988 0.15729 0.0
H34 H 0.539 0.99986 0.13239 0.0
H35 H 0.51621 0.99504 0.11192 0.0
Mn36 Mn 0.19624 0.16367 0.40778 0.0
Mn37 Mn 0.24356 0.1937 0.40346 0.0
C38 C 0.1944 0.20226 0.40503 0.0
C39 C 0.16676 0.14261 0.39888 0.0
C40 C 0.22863 0.17583 0.43048 0.0
O41 O 0.21925 0.13969 0.40289 0.0
O42 O 0.24924 0.1617 0.39909 0.0
C43 C 0.24735 0.18924 0.37406 0.0
N44 N 0.24561 0.20245 0.38512 0.0
C45 C 0.24782 0.23597 0.37181 0.0
C46 C 0.24973 0.22273 0.36028 0.0
C47 C 0.24937 0.19926 0.36141 0.0
C48 C 0.24551 0.22504 0.38412 0.0
H49 H 0.24721 0.17119 0.3749 0.0
C50 C 0.23965 0.14248 0.39938 0.0
O51 O 0.17276 0.14055 0.41131 0.0
O52 O 0.17821 0.15646 0.39159 0.0
N53 N 0.24056 0.225 0.40721 0.0
C54 C 0.23891 0.23536 0.41932 0.0
C55 C 0.23892 0.25888 0.41994 0.0
C56 C 0.24105 0.27149 0.40814 0.0
C57 C 0.2433 0.26045 0.39583 0.0
C58 C 0.24305 0.23698 0.39583 0.0
H59 H 0.23753 0.22576 0.42844 0.0
O60 O 0.17795 0.19146 0.41055 0.0
O61 O 0.21123 0.19009 0.40115 0.0
O62 O 0.21036 0.16698 0.42641 0.0
O63 O 0.24237 0.18584 0.42269 0.0
C64 C 0.24605 0.2718 0.38359 0.0
C65 C 0.24823 0.25958 0.37158 0.0
H66 H 0.25146 0.23041 0.35051 0.0
H67 H 0.25079 0.18893 0.35255 0.0
H68 H 0.23737 0.26726 0.42949 0.0
H69 H 0.24109 0.28962 0.40865 0.0
H70 H 0.24634 0.28995 0.38328 0.0
H71 H 0.25012 0.26851 0.36221 0.0
Mn72 Mn 0.08517 0.94246 0.65902 0.0
Mn73 Mn 0.05464 0.98966 0.65528 0.0
C74 C 0.04651 0.94036 0.65671 0.0
C75 C 0.10594 0.913 0.64986 0.0
C76 C 0.074 0.97473 0.68192 0.0
O77 O 0.10869 0.96557 0.65366 0.0
O78 O 0.08641 0.99558 0.65029 0.0
C79 C 0.0573 0.99414 0.62583 0.0
N80 N 0.04478 0.99229 0.63717 0.0
C81 C 0.01043 0.99482 0.62463 0.0
C82 C 0.02295 0.99688 0.61282 0.0
C83 C 0.04648 0.99647 0.61343 0.0
C84 C 0.02213 0.99256 0.6367 0.0
H85 H 0.07538 0.99382 0.62626 0.0
C86 C 0.10566 0.98597 0.6502 0.0
O87 O 0.10857 0.91915 0.66222 0.0
O88 O 0.09167 0.92433 0.64277 0.0
N89 N 0.02361 0.98622 0.65964 0.0
C90 C 0.01405 0.98273 0.67184 0.0
C91 C 0.9906 0.98255 0.67299 0.0
C92 C 0.97726 0.98599 0.6616 0.0
C93 C 0.98747 0.98919 0.64911 0.0
C94 C 0.01092 0.98953 0.64862 0.0
H95 H 0.02421 0.98016 0.68063 0.0
O96 O 0.05759 0.92412 0.66227 0.0
O97 O 0.0584 0.95734 0.65272 0.0
O98 O 0.08287 0.95658 0.67772 0.0
O99 O 0.06342 0.98831 0.67432 0.0
C100 C 0.97533 0.99189 0.63713 0.0
C101 C 0.9868 0.99459 0.62489 0.0
H102 H 0.01468 0.99861 0.60323 0.0
H103 H 0.05626 0.99795 0.60435 0.0
H104 H 0.98283 0.97988 0.68264 0.0
H105 H 0.95918 0.98605 0.66258 0.0
H106 H 0.95718 0.99165 0.63719 0.0
H107 H 0.97729 0.99633 0.61572 0.0
Mn108 Mn 0.30762 0.83467 0.90805 0.0
Mn109 Mn 0.26052 0.80382 0.90499 0.0
C110 C 0.30988 0.79599 0.90589 0.0
C111 C 0.33674 0.85537 0.89845 0.0
C112 C 0.27616 0.82364 0.93136 0.0
O113 O 0.28421 0.85799 0.90282 0.0
O114 O 0.25429 0.83546 0.89986 0.0
C115 C 0.25506 0.80599 0.87558 0.0
N116 N 0.25738 0.79366 0.88697 0.0
C117 C 0.25468 0.75911 0.87466 0.0
C118 C 0.25214 0.77143 0.86281 0.0
C119 C 0.2524 0.79497 0.86327 0.0
C120 C 0.25724 0.77101 0.88663 0.0
H121 H 0.25527 0.82408 0.8759 0.0
C122 C 0.26376 0.85476 0.89954 0.0
O123 O 0.33096 0.85818 0.91086 0.0
O124 O 0.32521 0.841 0.89156 0.0
N125 N 0.26432 0.77288 0.90949 0.0
C126 C 0.26836 0.76352 0.92169 0.0
C127 C 0.26881 0.7401 0.92296 0.0
C128 C 0.2651 0.72656 0.91169 0.0
C129 C 0.26132 0.73657 0.8992 0.0
C130 C 0.26074 0.76 0.89858 0.0
H131 H 0.27118 0.77384 0.93038 0.0
O132 O 0.32622 0.80721 0.91123 0.0
O133 O 0.29272 0.80776 0.90205 0.0
O134 O 0.29412 0.83256 0.92691 0.0
O135 O 0.26241 0.8129 0.92397 0.0
C136 C 0.25831 0.72423 0.88732 0.0
C137 C 0.2551 0.73549 0.87505 0.0
H138 H 0.25016 0.763 0.85329 0.0
H139 H 0.25055 0.8046 0.85416 0.0
H140 H 0.27194 0.7325 0.93261 0.0
H141 H 0.26529 0.7085 0.91276 0.0
H142 H 0.25871 0.70608 0.88747 0.0
H143 H 0.25313 0.72583 0.86595 0.0
Mn144 Mn 0.41615 0.93606 0.34375 0.0
Mn145 Mn 0.44899 0.98158 0.34791 0.0
C146 C 0.45452 0.93195 0.3463 0.0
C147 C 0.39392 0.90754 0.35272 0.0
C148 C 0.4294 0.96803 0.32107 0.0
O149 O 0.39376 0.96022 0.34909 0.0
O150 O 0.41737 0.98913 0.3526 0.0
C151 C 0.44559 0.986 0.37733 0.0
N152 N 0.45838 0.98342 0.36616 0.0
C153 C 0.49228 0.98281 0.37921 0.0
C154 C 0.47947 0.98562 0.39085 0.0
C155 C 0.45602 0.98719 0.3899 0.0
C156 C 0.48096 0.98193 0.36695 0.0
H157 H 0.42755 0.9871 0.37666 0.0
C158 C 0.39769 0.98042 0.35261 0.0
O159 O 0.39169 0.91392 0.34037 0.0
O160 O 0.40859 0.91813 0.3599 0.0
N161 N 0.47996 0.9764 0.34392 0.0
C162 C 0.48975 0.97229 0.33185 0.0
C163 C 0.5131 0.9696 0.33111 0.0
C164 C 0.52615 0.9712 0.34277 0.0
C165 C 0.51572 0.97554 0.35506 0.0
C166 C 0.4924 0.97831 0.35516 0.0
H167 H 0.4798 0.97087 0.32288 0.0
O168 O 0.4428 0.91636 0.34057 0.0
O169 O 0.44343 0.94948 0.35027 0.0
O170 O 0.41943 0.95038 0.32517 0.0
O171 O 0.4407 0.98088 0.32875 0.0
C172 C 0.52749 0.97674 0.36726 0.0
C173 C 0.51578 0.98037 0.37932 0.0
H174 H 0.48744 0.98637 0.40058 0.0
H175 H 0.44602 0.98923 0.39885 0.0
H176 H 0.52101 0.96616 0.32159 0.0
H177 H 0.54413 0.96886 0.34218 0.0
H178 H 0.54552 0.97455 0.3675 0.0
H179 H 0.52498 0.98094 0.38866 0.0
Mn180 Mn 0.31259 0.16191 0.59449 0.0
Mn181 Mn 0.26684 0.19458 0.5982 0.0
C182 C 0.31652 0.20022 0.59735 0.0
C183 C 0.34078 0.13957 0.60376 0.0
C184 C 0.28148 0.17526 0.57145 0.0
O185 O 0.28814 0.1394 0.59928 0.0
O186 O 0.2593 0.16306 0.60298 0.0
C187 C 0.26155 0.19162 0.62759 0.0
N188 N 0.26444 0.20424 0.61637 0.0
C189 C 0.26457 0.23834 0.62922 0.0
C190 C 0.26146 0.22571 0.64091 0.0
C191 C 0.25997 0.20225 0.64008 0.0
C192 C 0.26585 0.22683 0.61704 0.0
H193 H 0.26052 0.17357 0.62701 0.0
C194 C 0.26795 0.14335 0.60285 0.0
O195 O 0.33497 0.13759 0.59129 0.0
O196 O 0.32973 0.15398 0.61089 0.0
N197 N 0.27207 0.22548 0.59408 0.0
C198 C 0.27642 0.23509 0.58199 0.0
C199 C 0.2791 0.25843 0.58114 0.0
C200 C 0.27718 0.27166 0.5927 0.0
C201 C 0.27252 0.26141 0.60502 0.0
C202 C 0.26981 0.2381 0.60523 0.0
H203 H 0.278 0.22501 0.57307 0.0
O204 O 0.33243 0.18863 0.59184 0.0
O205 O 0.29884 0.18904 0.60095 0.0
O206 O 0.29928 0.16572 0.57568 0.0
O207 O 0.26807 0.18598 0.5791 0.0
C208 C 0.27093 0.27337 0.61713 0.0
C209 C 0.26696 0.26185 0.62922 0.0
H210 H 0.2604 0.23383 0.65058 0.0
H211 H 0.25769 0.19238 0.64906 0.0
H212 H 0.28274 0.26621 0.5716 0.0
H213 H 0.27949 0.28963 0.59203 0.0
H214 H 0.27306 0.29141 0.61728 0.0
H215 H 0.2661 0.27119 0.63849 0.0
Mn216 Mn 0.08721 0.06262 0.84555 0.0
Mn217 Mn 0.05435 0.01689 0.84878 0.0
C218 C 0.04879 0.0666 0.84788 0.0
C219 C 0.10935 0.09073 0.85504 0.0
C220 C 0.07364 0.03203 0.8222 0.0
O221 O 0.10964 0.03833 0.85053 0.0
O222 O 0.08612 0.00907 0.85288 0.0
C223 C 0.05889 0.01063 0.87803 0.0
N224 N 0.04567 0.01376 0.86708 0.0
C225 C 0.0122 0.0123 0.88048 0.0
C226 C 0.02545 0.00892 0.89189 0.0
C227 C 0.0489 0.00815 0.89066 0.0
C228 C 0.0231 0.01463 0.86816 0.0
H229 H 0.07692 0.01004 0.87713 0.0
C230 C 0.10577 0.01779 0.85325 0.0
O231 O 0.11167 0.08494 0.84259 0.0
O232 O 0.09461 0.0798 0.862 0.0
N233 N 0.02321 0.02198 0.8453 0.0
C234 C 0.01292 0.02665 0.83345 0.0
C235 C 0.98948 0.02869 0.83303 0.0
C236 C 0.97685 0.0257 0.84475 0.0
C237 C 0.98779 0.02069 0.8568 0.0
C238 C 0.01119 0.01883 0.85661 0.0
H239 H 0.02255 0.02902 0.82442 0.0
O240 O 0.06067 0.08243 0.84251 0.0
O241 O 0.05976 0.0489 0.85176 0.0
O242 O 0.0841 0.04912 0.82671 0.0
O243 O 0.06198 0.01899 0.82958 0.0
C244 C 0.97643 0.01779 0.86903 0.0
C245 C 0.98863 0.01372 0.88088 0.0
H246 H 0.01781 0.00705 0.90166 0.0
H247 H 0.05924 0.00565 0.89943 0.0
H248 H 0.98116 0.03261 0.82369 0.0
H249 H 0.95878 0.02743 0.84441 0.0
H250 H 0.95833 0.01889 0.86947 0.0
H251 H 0.97972 0.01188 0.89025 0.0
Mn252 Mn 0.19131 0.83364 0.0954 0.0
Mn253 Mn 0.23901 0.80377 0.09878 0.0
C254 C 0.18978 0.7949 0.09745 0.0
C255 C 0.16165 0.85406 0.10459 0.0
C256 C 0.22315 0.8225 0.07222 0.0
O257 O 0.21392 0.85753 0.10078 0.0
O258 O 0.2445 0.83583 0.10322 0.0
C259 C 0.24459 0.80808 0.1281 0.0
N260 N 0.24266 0.79495 0.11701 0.0
C261 C 0.24855 0.76145 0.12995 0.0
C262 C 0.25071 0.77461 0.1415 0.0
C263 C 0.24859 0.79802 0.14057 0.0
C264 C 0.24436 0.77241 0.11782 0.0
H265 H 0.24316 0.82609 0.12741 0.0
C266 C 0.23456 0.85486 0.10373 0.0
O267 O 0.16776 0.85676 0.09223 0.0
O268 O 0.17303 0.8398 0.11166 0.0
N269 N 0.23629 0.77245 0.09504 0.0
C270 C 0.2323 0.76212 0.08313 0.0
C271 C 0.2331 0.73863 0.0824 0.0
C272 C 0.23833 0.72606 0.09387 0.0
C273 C 0.24239 0.73708 0.10602 0.0
C274 C 0.24115 0.7605 0.10616 0.0
H275 H 0.2285 0.77173 0.07427 0.0
O276 O 0.1734 0.80594 0.092 0.0
O277 O 0.20661 0.80688 0.10162 0.0
O278 O 0.20539 0.83178 0.07668 0.0
O279 O 0.23676 0.81157 0.07961 0.0
C280 C 0.24753 0.72576 0.118 0.0
C281 C 0.25035 0.73791 0.12999 0.0
H282 H 0.2539 0.76692 0.15113 0.0
H283 H 0.25018 0.80829 0.14944 0.0
H284 H 0.22985 0.73024 0.073 0.0
H285 H 0.23906 0.70795 0.09325 0.0
H286 H 0.24907 0.70768 0.11816 0.0
H287 H 0.25383 0.72897 0.13919 0.0
Mn288 Mn 0.58331 0.9413 0.84547 0.0
Mn289 Mn 0.55393 0.98933 0.84864 0.0
C290 C 0.5446 0.94021 0.84766 0.0
C291 C 0.60333 0.91146 0.85483 0.0
C292 C 0.57192 0.97279 0.82209 0.0
O293 O 0.60754 0.96374 0.85061 0.0
O294 O 0.5862 0.99468 0.85258 0.0
C295 C 0.55935 0.99548 0.87785 0.0
N296 N 0.5458 0.99343 0.86695 0.0
C297 C 0.51281 0.99958 0.88029 0.0
C298 C 0.52641 0.00186 0.89165 0.0
C299 C 0.54978 0.99968 0.89043 0.0
C300 C 0.52329 0.99521 0.86804 0.0
H301 H 0.57733 0.99397 0.87694 0.0
C302 C 0.60516 0.98458 0.85313 0.0
O303 O 0.60609 0.91732 0.84243 0.0
O304 O 0.58935 0.92326 0.86184 0.0
N305 N 0.52246 0.98685 0.84532 0.0
C306 C 0.51167 0.98288 0.83354 0.0
C307 C 0.48816 0.98383 0.8331 0.0
C308 C 0.47604 0.9892 0.84471 0.0
C309 C 0.48753 0.99327 0.85671 0.0
C310 C 0.51094 0.9919 0.85656 0.0
H311 H 0.52094 0.97898 0.82456 0.0
O312 O 0.5554 0.92364 0.84226 0.0
O313 O 0.55679 0.95699 0.8517 0.0
O314 O 0.58139 0.95516 0.82664 0.0
O315 O 0.56105 0.98651 0.82943 0.0
C316 C 0.47667 0.99853 0.86883 0.0
C317 C 0.48928 0.00144 0.88064 0.0
H318 H 0.51909 0.00521 0.90137 0.0
H319 H 0.56038 0.00136 0.89916 0.0
H320 H 0.47942 0.9806 0.82382 0.0
H321 H 0.45791 0.99005 0.84431 0.0
H322 H 0.4586 1.00013 0.86921 0.0
H323 H 0.48069 0.00505 0.88994 0.0
Mn324 Mn 0.81034 0.83527 0.5949 0.0
Mn325 Mn 0.7639 0.80367 0.59877 0.0
C326 C 0.81341 0.79681 0.59736 0.0
C327 C 0.83926 0.85679 0.60402 0.0
C328 C 0.77842 0.82292 0.57201 0.0
O329 O 0.78663 0.85829 0.60007 0.0
O330 O 0.75712 0.83539 0.60345 0.0
C331 C 0.75917 0.80702 0.62817 0.0
N332 N 0.76151 0.79423 0.61698 0.0
C333 C 0.76036 0.76023 0.62991 0.0
C334 C 0.7578 0.77303 0.64157 0.0
C335 C 0.75725 0.79653 0.6407 0.0
C336 C 0.76212 0.77162 0.61771 0.0
H337 H 0.75879 0.82509 0.62755 0.0
C338 C 0.76626 0.85486 0.60345 0.0
O339 O 0.83312 0.85916 0.59163 0.0
O340 O 0.82817 0.84242 0.61116 0.0
N341 N 0.76821 0.77261 0.59472 0.0
C342 C 0.77208 0.76279 0.58264 0.0
C343 C 0.77381 0.73935 0.58184 0.0
C344 C 0.77137 0.72626 0.59343 0.0
C345 C 0.76717 0.73674 0.60573 0.0
C346 C 0.76555 0.76016 0.60591 0.0
H347 H 0.77396 0.77276 0.5737 0.0
O348 O 0.82942 0.80821 0.59181 0.0
O349 O 0.79611 0.80829 0.60131 0.0
O350 O 0.79636 0.83224 0.57621 0.0
O351 O 0.76508 0.81211 0.57965 0.0
C352 C 0.76487 0.7249 0.61784 0.0
C353 C 0.76158 0.73663 0.62993 0.0
H354 H 0.7564 0.765 0.65125 0.0
H355 H 0.75539 0.80653 0.64966 0.0
H356 H 0.77708 0.73139 0.57231 0.0
H357 H 0.77287 0.7082 0.59279 0.0
H358 H 0.76586 0.70678 0.618 0.0
H359 H 0.76019 0.72735 0.63921 0.0
Mn360 Mn 0.91716 0.06485 0.34416 0.0
Mn361 Mn 0.94931 0.01882 0.34825 0.0
C362 C 0.95546 0.06847 0.34712 0.0
C363 C 0.89482 0.09323 0.35314 0.0
C364 C 0.93048 0.03324 0.32135 0.0
O365 O 0.89439 0.04074 0.34899 0.0
O366 O 0.91758 0.01156 0.35278 0.0
C367 C 0.94563 0.01394 0.37764 0.0
N368 N 0.95854 0.01657 0.36651 0.0
C369 C 0.99234 0.01666 0.37966 0.0
C370 C 0.97942 0.0138 0.39125 0.0
C371 C 0.95596 0.01246 0.39023 0.0
C372 C 0.98113 0.01783 0.36738 0.0
H373 H 0.92759 0.01303 0.37691 0.0
C374 C 0.898 0.02047 0.35252 0.0
O375 O 0.89299 0.08724 0.3407 0.0
O376 O 0.90919 0.08235 0.36039 0.0
N377 N 0.98035 0.02371 0.34437 0.0
C378 C 0.99026 0.0278 0.33233 0.0
C379 C 0.01365 0.0303 0.33167 0.0
C380 C 0.02659 0.02848 0.34336 0.0
C381 C 0.01603 0.02408 0.35561 0.0
C382 C 0.99269 0.02153 0.35564 0.0
H383 H 0.9804 0.02932 0.32332 0.0
O384 O 0.94405 0.08439 0.34147 0.0
O385 O 0.94409 0.05095 0.35081 0.0
O386 O 0.921 0.05114 0.32547 0.0
O387 O 0.94112 0.0199 0.32909 0.0
C388 C 0.0277 0.0226 0.36783 0.0
C389 C 0.01586 0.01889 0.37985 0.0
H390 H 0.9873 0.01283 0.40099 0.0
H391 H 0.94587 0.01038 0.39914 0.0
H392 H 0.02167 0.03374 0.32218 0.0
H393 H 0.04459 0.03067 0.34283 0.0
H394 H 0.04574 0.02462 0.36813 0.0
H395 H 0.02498 0.0181 0.38921 0.0
Mn396 Mn 0.69063 0.16587 0.09519 0.0
Mn397 Mn 0.73696 0.19766 0.09899 0.0
C398 C 0.68748 0.20441 0.09734 0.0
C399 C 0.66159 0.14462 0.1044 0.0
C400 C 0.72268 0.17793 0.07231 0.0
O401 O 0.71428 0.14296 0.10059 0.0
O402 O 0.74374 0.16597 0.1039 0.0
C403 C 0.74147 0.19461 0.12843 0.0
N404 N 0.73924 0.20728 0.11718 0.0
C405 C 0.74048 0.24142 0.12996 0.0
C406 C 0.74295 0.22874 0.14168 0.0
C407 C 0.74338 0.20523 0.14091 0.0
C408 C 0.73872 0.22991 0.11781 0.0
H409 H 0.74175 0.17653 0.1279 0.0
C410 C 0.73459 0.1465 0.10405 0.0
O411 O 0.66782 0.14193 0.09206 0.0
O412 O 0.67266 0.15913 0.11144 0.0
N413 N 0.73266 0.22869 0.09482 0.0
C414 C 0.72868 0.23839 0.08271 0.0
C415 C 0.72698 0.26182 0.08181 0.0
C416 C 0.72954 0.27503 0.09334 0.0
C417 C 0.73376 0.26467 0.10568 0.0
C418 C 0.73535 0.24125 0.10596 0.0
H419 H 0.72662 0.22833 0.07383 0.0
O420 O 0.67157 0.19287 0.09179 0.0
O421 O 0.70474 0.19303 0.10145 0.0
O422 O 0.70486 0.16841 0.07654 0.0
O423 O 0.73585 0.18908 0.07988 0.0
C424 C 0.7361 0.27663 0.11774 0.0
C425 C 0.73934 0.26502 0.12989 0.0
H426 H 0.74434 0.23687 0.15133 0.0
H427 H 0.74517 0.19532 0.14992 0.0
H428 H 0.72364 0.26969 0.07226 0.0
H429 H 0.72805 0.29308 0.09263 0.0
H430 H 0.73516 0.29476 0.11782 0.0
H431 H 0.74074 0.27439 0.13912 0.0
Mn432 Mn 0.59016 0.06199 0.65899 0.0
Mn433 Mn 0.55689 0.01674 0.65496 0.0
C434 C 0.55188 0.06642 0.65612 0.0
C435 C 0.61277 0.09016 0.64994 0.0
C436 C 0.57606 0.0307 0.68183 0.0
O437 O 0.6124 0.03747 0.65401 0.0
O438 O 0.58849 0.00878 0.65055 0.0
C439 C 0.5608 0.01166 0.62559 0.0
N440 N 0.54782 0.01457 0.63666 0.0
C441 C 0.51415 0.01505 0.62339 0.0
C442 C 0.52715 0.01191 0.61186 0.0
C443 C 0.55057 0.01024 0.61297 0.0
C444 C 0.52526 0.01618 0.63572 0.0
H445 H 0.57881 0.01048 0.62639 0.0
C446 C 0.60827 0.01724 0.65061 0.0
O447 O 0.61471 0.08406 0.66236 0.0
O448 O 0.59823 0.07944 0.64273 0.0
N449 N 0.52589 0.02228 0.6587 0.0
C450 C 0.51592 0.0267 0.67067 0.0
C451 C 0.49256 0.02948 0.67125 0.0
C452 C 0.4797 0.02764 0.65953 0.0
C453 C 0.49033 0.02299 0.64733 0.0
C454 C 0.51364 0.02015 0.6474 0.0
H455 H 0.52572 0.02829 0.6797 0.0
O456 O 0.56363 0.08204 0.6618 0.0
O457 O 0.56287 0.0487 0.65238 0.0
O458 O 0.58632 0.04816 0.67768 0.0
O459 O 0.56481 0.0178 0.67415 0.0
C460 C 0.47876 0.02154 0.63508 0.0
C461 C 0.49067 0.01759 0.62312 0.0
H462 H 0.51935 0.01097 0.60209 0.0
H463 H 0.56073 0.00794 0.6041 0.0
H464 H 0.48449 0.03316 0.68069 0.0
H465 H 0.46172 0.03002 0.66 0.0
H466 H 0.46075 0.02379 0.63471 0.0
H467 H 0.48163 0.01684 0.61373 0.0
Mn468 Mn 0.69593 0.83826 0.40755 0.0
Mn469 Mn 0.7438 0.80859 0.40433 0.0
C470 C 0.69455 0.79959 0.40513 0.0
C471 C 0.66642 0.85873 0.39817 0.0
C472 C 0.72718 0.82657 0.43093 0.0
O473 O 0.71876 0.86238 0.40269 0.0
O474 O 0.74929 0.84065 0.40005 0.0
C475 C 0.74991 0.81316 0.37507 0.0
N476 N 0.74777 0.79992 0.3861 0.0
C477 C 0.75371 0.76653 0.37309 0.0
C478 C 0.75608 0.7798 0.3616 0.0
C479 C 0.75404 0.8032 0.36258 0.0
C480 C 0.7494 0.77738 0.38524 0.0
H481 H 0.74853 0.83116 0.3758 0.0
C482 C 0.73942 0.85973 0.39975 0.0
O483 O 0.67209 0.86116 0.41062 0.0
O484 O 0.67826 0.84487 0.3911 0.0
N485 N 0.74106 0.77724 0.40797 0.0
C486 C 0.73705 0.76682 0.41986 0.0
C487 C 0.73776 0.74332 0.42052 0.0
C488 C 0.74298 0.73083 0.40903 0.0
C489 C 0.74718 0.74195 0.39693 0.0
C490 C 0.74601 0.76538 0.39684 0.0
H491 H 0.73334 0.77637 0.42877 0.0
O492 O 0.67794 0.81046 0.41043 0.0
O493 O 0.71148 0.81171 0.40126 0.0
O494 O 0.7093 0.83564 0.42645 0.0
O495 O 0.74117 0.81626 0.42347 0.0
C496 C 0.75241 0.73073 0.38493 0.0
C497 C 0.75542 0.74298 0.37299 0.0
H498 H 0.75937 0.77219 0.35196 0.0
H499 H 0.75579 0.81355 0.35375 0.0
H500 H 0.73447 0.73485 0.4299 0.0
H501 H 0.74363 0.71271 0.4096 0.0
H502 H 0.75391 0.71265 0.38473 0.0
H503 H 0.75899 0.73412 0.36378 0.0
Mn504 Mn 0.91673 0.94392 0.15841 0.0
Mn505 Mn 0.94735 0.99087 0.15432 0.0
C506 C 0.95536 0.94149 0.15625 0.0
C507 C 0.89587 0.9147 0.14909 0.0
C508 C 0.92738 0.97667 0.18102 0.0
O509 O 0.89338 0.96726 0.15306 0.0
O510 O 0.91593 0.99664 0.14854 0.0
C511 C 0.94646 0.99421 0.12478 0.0
N512 N 0.9583 0.99271 0.1364 0.0
C513 C 0.99337 0.99419 0.12454 0.0
C514 C 0.98156 0.9959 0.11245 0.0
C515 C 0.958 0.99585 0.11258 0.0
C516 C 0.98096 0.99268 0.13639 0.0
H517 H 0.92836 0.9941 0.12483 0.0
C518 C 0.8966 0.98722 0.14883 0.0
O519 O 0.89315 0.92069 0.16148 0.0
O520 O 0.91023 0.92604 0.1421 0.0
N521 N 0.97808 0.98741 0.15939 0.0
C522 C 0.9869 0.98428 0.17182 0.0
C523 C 0.01026 0.9835 0.17343 0.0
C524 C 0.0243 0.98604 0.16225 0.0
C525 C 0.01484 0.9891 0.14954 0.0
C526 C 0.99144 0.98998 0.14858 0.0
H527 H 0.97621 0.98242 0.18046 0.0
O528 O 0.9441 0.92531 0.16173 0.0
O529 O 0.94359 0.95851 0.15216 0.0
O530 O 0.91927 0.958 0.17708 0.0
O531 O 0.93738 0.99035 0.1732 0.0
C532 C 0.02768 0.99106 0.13777 0.0
C533 C 0.01695 0.99352 0.12527 0.0
H534 H 0.99039 0.99706 0.10302 0.0
H535 H 0.94877 0.99705 0.10329 0.0
H536 H 0.01744 0.98103 0.18326 0.0
H537 H 0.04231 0.98553 0.16356 0.0
H538 H 0.04581 0.99043 0.13819 0.0
H539 H 0.027 0.99467 0.11628 0.0
Mn540 Mn 0.80833 0.16484 0.90808 0.0
Mn541 Mn 0.76052 0.19462 0.90504 0.0
C542 C 0.80973 0.20355 0.90584 0.0
C543 C 0.83784 0.1446 0.89853 0.0
C544 C 0.77721 0.17641 0.93156 0.0
O545 O 0.78559 0.14081 0.90306 0.0
O546 O 0.75492 0.16247 0.90088 0.0
C547 C 0.75409 0.18973 0.87582 0.0
N548 N 0.75634 0.20309 0.88678 0.0
C549 C 0.75026 0.23633 0.87365 0.0
C550 C 0.74777 0.22294 0.86222 0.0
C551 C 0.74982 0.19955 0.8633 0.0
C552 C 0.75469 0.22561 0.88583 0.0
H553 H 0.75549 0.17174 0.87662 0.0
C554 C 0.76485 0.14343 0.90035 0.0
O555 O 0.83222 0.14187 0.91098 0.0
O556 O 0.826 0.15865 0.8916 0.0
N557 N 0.76331 0.22601 0.90853 0.0
C558 C 0.76759 0.23658 0.92033 0.0
C559 C 0.76689 0.26009 0.92089 0.0
C560 C 0.76145 0.27244 0.90937 0.0
C561 C 0.75707 0.26118 0.89734 0.0
C562 C 0.75822 0.23775 0.89737 0.0
H563 H 0.77158 0.22715 0.92924 0.0
O564 O 0.82629 0.19262 0.91116 0.0
O565 O 0.7928 0.19149 0.90191 0.0
O566 O 0.79482 0.16695 0.92698 0.0
O567 O 0.7634 0.18719 0.92422 0.0
C568 C 0.75172 0.27227 0.88531 0.0
C569 C 0.74857 0.25988 0.87344 0.0
H570 H 0.74438 0.23044 0.85256 0.0
H571 H 0.74798 0.1891 0.85452 0.0
H572 H 0.77038 0.26866 0.9302 0.0
H573 H 0.76081 0.29057 0.90986 0.0
H574 H 0.75026 0.29035 0.88503 0.0
H575 H 0.74491 0.26864 0.86421 0.0
Mn576 Mn 0.91591 0.56034 0.65963 0.0
Mn577 Mn 0.94795 0.5142 0.65579 0.0
C578 C 0.9544 0.5638 0.65742 0.0
C579 C 0.89416 0.58883 0.65019 0.0
C580 C 0.92803 0.52833 0.68248 0.0
O581 O 0.89322 0.53641 0.65437 0.0
O582 O 0.91646 0.5073 0.6506 0.0
C583 C 0.94574 0.50995 0.62632 0.0
N584 N 0.95809 0.51219 0.6377 0.0
C585 C 0.99259 0.51143 0.62524 0.0
C586 C 0.98025 0.50897 0.61339 0.0
C587 C 0.95673 0.50828 0.61393 0.0
C588 C 0.98072 0.51294 0.63729 0.0
H589 H 0.92766 0.50945 0.62669 0.0
C590 C 0.89691 0.51626 0.65065 0.0
O591 O 0.89168 0.58296 0.66262 0.0
O592 O 0.90886 0.57783 0.64325 0.0
N593 N 0.97881 0.51868 0.66028 0.0
C594 C 0.98815 0.52246 0.67251 0.0
C595 C 0.01154 0.52435 0.67365 0.0
C596 C 0.02508 0.52214 0.66223 0.0
C597 C 0.0151 0.51804 0.64977 0.0
C598 C 0.99171 0.51627 0.64926 0.0
H599 H 0.97782 0.52416 0.68133 0.0
O600 O 0.94273 0.57973 0.66285 0.0
O601 O 0.94315 0.54641 0.65339 0.0
O602 O 0.91887 0.54643 0.67837 0.0
O603 O 0.93879 0.51503 0.67478 0.0
C604 C 0.02741 0.51598 0.63781 0.0
C605 C 0.01617 0.51279 0.62555 0.0
H606 H 0.98866 0.50777 0.60381 0.0
H607 H 0.94708 0.50649 0.60483 0.0
H608 H 0.01911 0.52754 0.6833 0.0
H609 H 0.0431 0.52375 0.66313 0.0
H610 H 0.04553 0.51709 0.63792 0.0
H611 H 0.02581 0.5116 0.61639 0.0
Mn612 Mn 0.69406 0.66597 0.90771 0.0
Mn613 Mn 0.74124 0.69664 0.90444 0.0
C614 C 0.69184 0.70464 0.90543 0.0
C615 C 0.66491 0.645 0.89837 0.0
C616 C 0.72525 0.67817 0.93104 0.0
O617 O 0.71722 0.64238 0.90265 0.0
O618 O 0.74743 0.6646 0.90029 0.0
C619 C 0.7474 0.69181 0.8752 0.0
N620 N 0.74502 0.70514 0.88616 0.0
C621 C 0.75035 0.73846 0.87299 0.0
C622 C 0.75296 0.7251 0.86156 0.0
C623 C 0.75135 0.70168 0.86266 0.0
C624 C 0.74624 0.7277 0.88519 0.0
H625 H 0.74635 0.67379 0.87602 0.0
C626 C 0.73788 0.64537 0.89985 0.0
O627 O 0.67075 0.64254 0.9108 0.0
O628 O 0.67631 0.65926 0.89132 0.0
N629 N 0.73788 0.72798 0.90792 0.0
C630 C 0.73357 0.73849 0.91974 0.0
C631 C 0.73388 0.76201 0.92029 0.0
C632 C 0.73897 0.77443 0.90874 0.0
C633 C 0.74338 0.76323 0.8967 0.0
C634 C 0.74263 0.73979 0.89673 0.0
H635 H 0.72988 0.729 0.92867 0.0
O636 O 0.67557 0.69339 0.91082 0.0
O637 O 0.70898 0.69291 0.90143 0.0
O638 O 0.70775 0.66843 0.92654 0.0
O639 O 0.73877 0.6892 0.92364 0.0
C640 C 0.74841 0.77439 0.88464 0.0
C641 C 0.75163 0.76204 0.87277 0.0
H642 H 0.75611 0.73265 0.85188 0.0
H643 H 0.75328 0.69125 0.85388 0.0
H644 H 0.73038 0.77053 0.92961 0.0
H645 H 0.73932 0.79257 0.90923 0.0
H646 H 0.74956 0.7925 0.88435 0.0
H647 H 0.75504 0.77085 0.86351 0.0
Mn648 Mn 0.58756 0.44314 0.15866 0.0
Mn649 Mn 0.5574 0.49064 0.15524 0.0
C650 C 0.54891 0.44136 0.15617 0.0
C651 C 0.60827 0.41394 0.14912 0.0
C652 C 0.57633 0.47482 0.18183 0.0
O653 O 0.61131 0.46625 0.15369 0.0
O654 O 0.58924 0.49643 0.15039 0.0
C655 C 0.56032 0.49582 0.12584 0.0
N656 N 0.5477 0.49382 0.13713 0.0
C657 C 0.51347 0.49711 0.12454 0.0
C658 C 0.5261 0.49933 0.11278 0.0
C659 C 0.54962 0.49862 0.11344 0.0
C660 C 0.52506 0.49437 0.13661 0.0
H661 H 0.5784 0.49528 0.12631 0.0
C662 C 0.60844 0.48672 0.15034 0.0
O663 O 0.61079 0.4195 0.1616 0.0
O664 O 0.59413 0.42566 0.14218 0.0
N665 N 0.52632 0.48737 0.15949 0.0
C666 C 0.51663 0.48366 0.17163 0.0
C667 C 0.49318 0.48379 0.17273 0.0
C668 C 0.47996 0.48774 0.16136 0.0
C669 C 0.49029 0.49113 0.14892 0.0
C670 C 0.51374 0.49115 0.14847 0.0
H671 H 0.5267 0.48069 0.18042 0.0
O672 O 0.55982 0.42486 0.16156 0.0
O673 O 0.56096 0.45838 0.15242 0.0
O674 O 0.58509 0.45667 0.17753 0.0
O675 O 0.56603 0.48869 0.17428 0.0
C676 C 0.47826 0.49433 0.13694 0.0
C677 C 0.48984 0.49719 0.12475 0.0
H678 H 0.51791 0.50143 0.10319 0.0
H679 H 0.55947 0.50022 0.1044 0.0
H680 H 0.48532 0.48096 0.18234 0.0
H681 H 0.46188 0.48806 0.1623 0.0
H682 H 0.46011 0.49434 0.13696 0.0
H683 H 0.48041 0.49931 0.11557 0.0
Mn684 Mn 0.80609 0.33753 0.40771 0.0
Mn685 Mn 0.75881 0.30691 0.405 0.0
C686 C 0.80822 0.29891 0.40546 0.0
C687 C 0.83479 0.35826 0.39767 0.0
C688 C 0.7752 0.32656 0.43128 0.0
O689 O 0.78248 0.36096 0.40292 0.0
O690 O 0.75254 0.3385 0.39983 0.0
C691 C 0.75284 0.30877 0.37562 0.0
N692 N 0.75535 0.29656 0.38704 0.0
C693 C 0.75264 0.26188 0.37486 0.0
C694 C 0.74991 0.27409 0.36298 0.0
C695 C 0.75007 0.29763 0.36336 0.0
C696 C 0.7553 0.2739 0.38678 0.0
H697 H 0.753 0.32687 0.37588 0.0
C698 C 0.762 0.35781 0.39968 0.0
O699 O 0.82963 0.36099 0.4102 0.0
O700 O 0.82288 0.34399 0.39096 0.0
N701 N 0.76261 0.27603 0.4096 0.0
C702 C 0.76664 0.26681 0.42184 0.0
C703 C 0.76727 0.2434 0.42318 0.0
C704 C 0.76364 0.22973 0.41196 0.0
C705 C 0.75969 0.2396 0.39944 0.0
C706 C 0.75899 0.26303 0.39875 0.0
H707 H 0.76929 0.27722 0.43052 0.0
O708 O 0.82481 0.31009 0.41055 0.0
O709 O 0.79094 0.31071 0.40183 0.0
O710 O 0.79332 0.33507 0.42676 0.0
O711 O 0.76107 0.31627 0.4239 0.0
C712 C 0.75659 0.22714 0.38761 0.0
C713 C 0.75318 0.23827 0.37532 0.0
H714 H 0.74784 0.26556 0.3535 0.0
H715 H 0.74807 0.30716 0.35423 0.0
H716 H 0.77043 0.2359 0.43286 0.0
H717 H 0.76399 0.21168 0.41307 0.0
H718 H 0.75706 0.209 0.38783 0.0
H719 H 0.75115 0.22852 0.36627 0.0
Mn720 Mn 0.91724 0.43989 0.84586 0.0
Mn721 Mn 0.94845 0.48663 0.84961 0.0
C722 C 0.95577 0.43716 0.84818 0.0
C723 C 0.89604 0.41085 0.85515 0.0
C724 C 0.92927 0.47181 0.82289 0.0
O725 O 0.89401 0.4634 0.85103 0.0
O726 O 0.91667 0.4931 0.85432 0.0
C727 C 0.9451 0.49137 0.87901 0.0
N728 N 0.95789 0.48917 0.86781 0.0
C729 C 0.99192 0.4909 0.88069 0.0
C730 C 0.97911 0.49332 0.89237 0.0
C731 C 0.9556 0.4935 0.89152 0.0
C732 C 0.98052 0.4889 0.86851 0.0
H733 H 0.92702 0.49147 0.87841 0.0
C734 C 0.89728 0.4838 0.85438 0.0
O735 O 0.89352 0.41684 0.84275 0.0
O736 O 0.91039 0.42212 0.86219 0.0
N737 N 0.97955 0.48269 0.84554 0.0
C738 C 0.9894 0.47898 0.83344 0.0
C739 C 0.01286 0.47762 0.83261 0.0
C740 C 0.02594 0.48032 0.84418 0.0
C741 C 0.01543 0.48438 0.85649 0.0
C742 C 0.992 0.48559 0.8567 0.0
H743 H 0.97943 0.47692 0.82451 0.0
O744 O 0.94444 0.42102 0.84271 0.0
O745 O 0.94418 0.45437 0.85217 0.0
O746 O 0.92005 0.45383 0.82712 0.0
O747 O 0.93998 0.48526 0.83051 0.0
C748 C 0.02727 0.48696 0.86859 0.0
C749 C 0.01553 0.49009 0.88069 0.0
H750 H 0.98715 0.4949 0.90204 0.0
H751 H 0.9456 0.49526 0.90049 0.0
H752 H 0.02085 0.47447 0.82308 0.0
H753 H 0.04403 0.47912 0.84352 0.0
H754 H 0.04542 0.48631 0.86871 0.0
H755 H 0.02481 0.49169 0.88995 0.0
Mn756 Mn 0.80986 0.6688 0.09539 0.0
Mn757 Mn 0.76185 0.69826 0.09841 0.0
C758 C 0.81099 0.70752 0.09754 0.0
C759 C 0.83952 0.64874 0.10491 0.0
C760 C 0.7785 0.67989 0.07194 0.0
O761 O 0.78732 0.64466 0.10054 0.0
O762 O 0.7565 0.66612 0.10269 0.0
C763 C 0.75555 0.69359 0.12765 0.0
N764 N 0.75768 0.70686 0.11664 0.0
C765 C 0.75136 0.74018 0.12965 0.0
C766 C 0.74899 0.72687 0.14113 0.0
C767 C 0.75122 0.70349 0.14013 0.0
C768 C 0.75586 0.72938 0.11751 0.0
H769 H 0.75707 0.6756 0.12692 0.0
C770 C 0.76657 0.64716 0.10327 0.0
O771 O 0.83382 0.64594 0.09248 0.0
O772 O 0.82771 0.66282 0.11184 0.0
N773 N 0.76443 0.72964 0.0948 0.0
C774 C 0.76864 0.74013 0.08296 0.0
C775 C 0.7678 0.76363 0.08232 0.0
C776 C 0.7623 0.77605 0.0938 0.0
C777 C 0.75798 0.76486 0.10586 0.0
C778 C 0.75928 0.74144 0.10592 0.0
H779 H 0.77267 0.73064 0.07409 0.0
O780 O 0.82759 0.69669 0.0922 0.0
O781 O 0.79416 0.69536 0.10152 0.0
O782 O 0.79621 0.67064 0.07652 0.0
O783 O 0.76466 0.69067 0.07925 0.0
C784 C 0.75254 0.77601 0.11785 0.0
C785 C 0.74949 0.76371 0.12977 0.0
H786 H 0.74556 0.73444 0.15076 0.0
H787 H 0.74947 0.69311 0.14895 0.0
H788 H 0.77124 0.77214 0.07298 0.0
H789 H 0.76156 0.79416 0.09324 0.0
H790 H 0.75095 0.79409 0.11806 0.0
H791 H 0.74578 0.77253 0.13897 0.0
Mn792 Mn 0.58521 0.5649 0.34495 0.0
Mn793 Mn 0.55228 0.51928 0.3484 0.0
C794 C 0.54679 0.56891 0.34721 0.0
C795 C 0.60713 0.59321 0.35439 0.0
C796 C 0.57252 0.53354 0.32186 0.0
O797 O 0.60748 0.54062 0.35025 0.0
O798 O 0.5838 0.51158 0.35323 0.0
C799 C 0.55512 0.51401 0.37779 0.0
N800 N 0.54254 0.51691 0.36656 0.0
C801 C 0.5084 0.51717 0.37938 0.0
C802 C 0.52098 0.51403 0.39108 0.0
C803 C 0.54445 0.51247 0.39028 0.0
C804 C 0.51995 0.51839 0.36721 0.0
H805 H 0.57317 0.51292 0.37724 0.0
C806 C 0.60348 0.5203 0.35349 0.0
O807 O 0.6097 0.58719 0.342 0.0
O808 O 0.59232 0.58237 0.36133 0.0
N809 N 0.52139 0.52459 0.34424 0.0
C810 C 0.51184 0.52907 0.33215 0.0
C811 C 0.4885 0.5318 0.33128 0.0
C812 C 0.47523 0.52987 0.34282 0.0
C813 C 0.48542 0.52516 0.35514 0.0
C814 C 0.50873 0.52236 0.35538 0.0
H815 H 0.52196 0.53076 0.32326 0.0
O816 O 0.55861 0.58466 0.34171 0.0
O817 O 0.5578 0.55129 0.35111 0.0
O818 O 0.58242 0.55106 0.32621 0.0
O819 O 0.56095 0.52054 0.32932 0.0
C820 C 0.47342 0.52362 0.36725 0.0
C821 C 0.4849 0.51964 0.37936 0.0
H822 H 0.51283 0.51301 0.40074 0.0
H823 H 0.55428 0.51017 0.39927 0.0
H824 H 0.48077 0.53553 0.32174 0.0
H825 H 0.45726 0.53224 0.34213 0.0
H826 H 0.45539 0.52582 0.36738 0.0
H827 H 0.47552 0.51881 0.38862 0.0
Mn828 Mn 0.69074 0.33931 0.59492 0.0
Mn829 Mn 0.73646 0.3067 0.59902 0.0
C830 C 0.68678 0.30105 0.59794 0.0
C831 C 0.66244 0.36182 0.60389 0.0
C832 C 0.72225 0.32568 0.57212 0.0
O833 O 0.7151 0.36187 0.5997 0.0
O834 O 0.744 0.33833 0.60353 0.0
C835 C 0.74136 0.31031 0.6284 0.0
N836 N 0.73864 0.29744 0.61728 0.0
C837 C 0.73837 0.26362 0.63041 0.0
C838 C 0.74132 0.27651 0.642 0.0
C839 C 0.74278 0.29996 0.64099 0.0
C840 C 0.73723 0.27486 0.61813 0.0
H841 H 0.74237 0.32835 0.62768 0.0
C842 C 0.73533 0.35802 0.60323 0.0
O843 O 0.66844 0.3636 0.59145 0.0
O844 O 0.67333 0.34749 0.61117 0.0
N845 N 0.73129 0.27571 0.59513 0.0
C846 C 0.72713 0.26585 0.5831 0.0
C847 C 0.72451 0.24248 0.58242 0.0
C848 C 0.7263 0.22951 0.5941 0.0
C849 C 0.73077 0.24002 0.60635 0.0
C850 C 0.73343 0.26334 0.60639 0.0
H851 H 0.72566 0.27574 0.57409 0.0
O852 O 0.67094 0.31257 0.59229 0.0
O853 O 0.7044 0.31227 0.60159 0.0
O854 O 0.70439 0.3353 0.57621 0.0
O855 O 0.73547 0.31493 0.57987 0.0
C856 C 0.73223 0.22832 0.61857 0.0
C857 C 0.73601 0.24011 0.63059 0.0
H858 H 0.74226 0.2686 0.65174 0.0
H859 H 0.74494 0.31002 0.6499 0.0
H860 H 0.72102 0.2345 0.57293 0.0
H861 H 0.72404 0.21151 0.59356 0.0
H862 H 0.73012 0.21029 0.61886 0.0
H863 H 0.73677 0.23097 0.63994 0.0
Mn864 Mn 0.08385 0.43726 0.34406 0.0
Mn865 Mn 0.05182 0.48352 0.34754 0.0
C866 C 0.04519 0.43414 0.34534 0.0
C867 C 0.10456 0.408 0.35336 0.0
C868 C 0.07283 0.46984 0.32117 0.0
O869 O 0.10636 0.46058 0.35038 0.0
O870 O 0.08339 0.4903 0.3527 0.0
C871 C 0.05418 0.48777 0.37702 0.0
N872 N 0.04178 0.48563 0.36565 0.0
C873 C 0.00732 0.48705 0.37813 0.0
C874 C 0.01972 0.48941 0.38997 0.0
C875 C 0.04326 0.4897 0.3894 0.0
C876 C 0.01914 0.48523 0.36608 0.0
H877 H 0.07227 0.488 0.37664 0.0
C878 C 0.10276 0.48103 0.35346 0.0
O879 O 0.10832 0.41485 0.34123 0.0
O880 O 0.08925 0.4184 0.36014 0.0
N881 N 0.0209 0.4793 0.3431 0.0
C882 C 0.01148 0.47549 0.3309 0.0
C883 C 0.98806 0.47397 0.32979 0.0
C884 C 0.97458 0.47658 0.3412 0.0
C885 C 0.98465 0.48065 0.35364 0.0
C886 C 0.00807 0.482 0.35413 0.0
H887 H 0.02176 0.47345 0.3221 0.0
O888 O 0.05701 0.41845 0.33976 0.0
O889 O 0.05635 0.45123 0.34988 0.0
O890 O 0.08265 0.45228 0.32554 0.0
O891 O 0.06085 0.48259 0.32854 0.0
C892 C 0.9724 0.48312 0.36559 0.0
C893 C 0.98372 0.48618 0.37784 0.0
H894 H 0.01136 0.49085 0.39955 0.0
H895 H 0.05294 0.49141 0.3985 0.0
H896 H 0.98041 0.47077 0.32016 0.0
H897 H 0.95653 0.47527 0.34032 0.0
H898 H 0.95426 0.48243 0.36549 0.0
H899 H 0.97412 0.48766 0.38699 0.0
Mn900 Mn 0.31268 0.3372 0.09473 0.0
Mn901 Mn 0.26709 0.30447 0.09883 0.0
C902 C 0.31678 0.29889 0.09747 0.0
C903 C 0.34108 0.35951 0.10373 0.0
C904 C 0.28102 0.32375 0.07196 0.0
O905 O 0.28835 0.35966 0.09976 0.0
O906 O 0.25949 0.33606 0.10348 0.0
C907 C 0.26246 0.30782 0.12824 0.0
N908 N 0.26514 0.29504 0.11707 0.0
C909 C 0.26587 0.26114 0.13012 0.0
C910 C 0.26297 0.27392 0.14176 0.0
C911 C 0.26128 0.29736 0.14081 0.0
C912 C 0.26674 0.27247 0.11786 0.0
H913 H 0.2613 0.32585 0.12757 0.0
C914 C 0.26814 0.35576 0.10331 0.0
O915 O 0.33489 0.36158 0.09133 0.0
O916 O 0.33028 0.34503 0.11095 0.0
N917 N 0.27232 0.27352 0.09483 0.0
C918 C 0.27641 0.26376 0.08275 0.0
C919 C 0.27923 0.24043 0.08201 0.0
C920 C 0.27774 0.22736 0.09367 0.0
C921 C 0.27333 0.23776 0.10597 0.0
C922 C 0.27045 0.26106 0.10608 0.0
H923 H 0.27767 0.27373 0.07377 0.0
O924 O 0.33249 0.31057 0.09182 0.0
O925 O 0.29918 0.31001 0.1013 0.0
O926 O 0.29881 0.33346 0.07606 0.0
O927 O 0.2679 0.31284 0.07969 0.0
C928 C 0.27217 0.22597 0.11816 0.0
C929 C 0.26845 0.23765 0.13023 0.0
H930 H 0.26223 0.26594 0.15148 0.0
H931 H 0.25917 0.30735 0.14976 0.0
H932 H 0.28267 0.23253 0.07249 0.0
H933 H 0.28018 0.2094 0.09308 0.0
H934 H 0.27446 0.20796 0.1184 0.0
H935 H 0.2679 0.22844 0.13956 0.0
Mn936 Mn 0.41731 0.56184 0.84351 0.0
Mn937 Mn 0.45049 0.51655 0.84756 0.0
C938 C 0.45562 0.56626 0.84604 0.0
C939 C 0.39486 0.59001 0.85265 0.0
C940 C 0.4305 0.53007 0.82077 0.0
O941 O 0.39518 0.53735 0.84875 0.0
O942 O 0.41911 0.50878 0.85257 0.0
C943 C 0.44801 0.51216 0.87701 0.0
N944 N 0.46044 0.51486 0.8657 0.0
C945 C 0.4947 0.51601 0.8784 0.0
C946 C 0.48227 0.51309 0.89018 0.0
C947 C 0.45882 0.51118 0.88948 0.0
C948 C 0.48302 0.51666 0.86626 0.0
H949 H 0.42997 0.51082 0.87653 0.0
C950 C 0.39933 0.51727 0.85246 0.0
O951 O 0.39264 0.58382 0.84026 0.0
O952 O 0.40961 0.57939 0.85976 0.0
N953 N 0.48127 0.52203 0.84323 0.0
C954 C 0.49065 0.52616 0.83104 0.0
C955 C 0.51393 0.52924 0.83006 0.0
C956 C 0.52733 0.52797 0.84159 0.0
C957 C 0.51733 0.52353 0.854 0.0
C958 C 0.49406 0.52038 0.85435 0.0
H959 H 0.48042 0.52727 0.82215 0.0
O960 O 0.44374 0.58185 0.84041 0.0
O961 O 0.4447 0.54859 0.84995 0.0
O962 O 0.42084 0.5479 0.82485 0.0
O963 O 0.44159 0.51707 0.8285 0.0
C964 C 0.52946 0.52259 0.86608 0.0
C965 C 0.51816 0.51883 0.87827 0.0
H966 H 0.49053 0.51252 0.89982 0.0
H967 H 0.44911 0.50905 0.89853 0.0
H968 H 0.52151 0.53272 0.82045 0.0
H969 H 0.54524 0.53062 0.84082 0.0
H970 H 0.54745 0.52507 0.86613 0.0
H971 H 0.52763 0.51846 0.88751 0.0
Mn972 Mn 0.19107 0.66646 0.59536 0.0
Mn973 Mn 0.23831 0.69707 0.59829 0.0
C974 C 0.18884 0.7051 0.59765 0.0
C975 C 0.16243 0.64541 0.60518 0.0
C976 C 0.22229 0.67733 0.57195 0.0
O977 O 0.21465 0.64308 0.60021 0.0
O978 O 0.24453 0.66551 0.60357 0.0
C979 C 0.24385 0.69545 0.6277 0.0
N980 N 0.24151 0.70757 0.61624 0.0
C981 C 0.24412 0.74235 0.62832 0.0
C982 C 0.24668 0.73025 0.64025 0.0
C983 C 0.24649 0.7067 0.63994 0.0
C984 C 0.24159 0.73023 0.61643 0.0
H985 H 0.24368 0.67735 0.62749 0.0
C986 C 0.23506 0.64621 0.60362 0.0
O987 O 0.16775 0.64289 0.59267 0.0
O988 O 0.17405 0.65977 0.612 0.0
N989 N 0.23456 0.72792 0.59358 0.0
C990 C 0.23071 0.73704 0.58129 0.0
C991 C 0.23018 0.76044 0.57987 0.0
C992 C 0.23371 0.77419 0.59107 0.0
C993 C 0.23744 0.76443 0.60364 0.0
C994 C 0.23806 0.74101 0.60441 0.0
H995 H 0.22815 0.72655 0.57263 0.0
O996 O 0.17232 0.6939 0.5925 0.0
O997 O 0.2061 0.6933 0.60133 0.0
O998 O 0.20404 0.66899 0.57639 0.0
O999 O 0.23637 0.68756 0.57939 0.0
C1000 C 0.2404 0.77699 0.61544 0.0
C1001 C 0.24363 0.76596 0.62778 0.0
H1002 H 0.24864 0.73885 0.64972 0.0
H1003 H 0.24835 0.69724 0.64911 0.0
H1004 H 0.22718 0.76786 0.57016 0.0
H1005 H 0.23346 0.79223 0.58988 0.0
H1006 H 0.23997 0.79513 0.61516 0.0
H1007 H 0.24556 0.77579 0.63681 0.0
Mn1008 Mn 0.08427 0.55735 0.15751 0.0
Mn1009 Mn 0.05379 0.51 0.1546 0.0
C1010 C 0.04552 0.5593 0.15577 0.0
C1011 C 0.10446 0.58686 0.14793 0.0
C1012 C 0.07321 0.52595 0.18095 0.0
O1013 O 0.10783 0.5344 0.15202 0.0
O1014 O 0.08572 0.50402 0.15004 0.0
C1015 C 0.05761 0.50394 0.12529 0.0
N1016 N 0.04465 0.50624 0.13643 0.0
C1017 C 0.01089 0.50098 0.12366 0.0
C1018 C 0.02385 0.49845 0.11206 0.0
C1019 C 0.04731 0.50005 0.11288 0.0
C1020 C 0.02207 0.505 0.13573 0.0
H1021 H 0.07565 0.505 0.12589 0.0
C1022 C 0.10487 0.5137 0.1493 0.0
O1023 O 0.1076 0.58089 0.16028 0.0
O1024 O 0.09005 0.57532 0.14109 0.0
N1025 N 0.02256 0.51321 0.15848 0.0
C1026 C 0.01246 0.51747 0.17044 0.0
C1027 C 0.98896 0.51722 0.17126 0.0
C1028 C 0.97614 0.51225 0.15986 0.0
C1029 C 0.98693 0.50785 0.14768 0.0
C1030 C 0.01037 0.50854 0.14743 0.0
H1031 H 0.02226 0.52109 0.17926 0.0
O1032 O 0.05684 0.57559 0.16109 0.0
O1033 O 0.05723 0.54229 0.15159 0.0
O1034 O 0.08273 0.54349 0.17634 0.0
O1035 O 0.06192 0.51244 0.17369 0.0
C1036 C 0.97536 0.50292 0.13575 0.0
C1037 C 0.9873 0.49974 0.12372 0.0
H1038 H 0.01598 0.49536 0.10248 0.0
H1039 H 0.05744 0.49818 0.10397 0.0
H1040 H 0.98076 0.52071 0.18069 0.0
H1041 H 0.95802 0.51198 0.16055 0.0
H1042 H 0.95724 0.50182 0.13567 0.0
H1043 H 0.97818 0.49641 0.11457 0.0
Mn1044 Mn 0.1949 0.33794 0.90819 0.0
Mn1045 Mn 0.24092 0.3056 0.90461 0.0
C1046 C 0.19125 0.29952 0.90579 0.0
C1047 C 0.16656 0.3599 0.89875 0.0
C1048 C 0.22613 0.32494 0.9313 0.0
O1049 O 0.21906 0.36059 0.90321 0.0
O1050 O 0.24825 0.33723 0.89999 0.0
C1051 C 0.24615 0.30899 0.87524 0.0
N1052 N 0.24348 0.2962 0.88641 0.0
C1053 C 0.24452 0.26222 0.87346 0.0
C1054 C 0.24741 0.27502 0.86183 0.0
C1055 C 0.24817 0.29851 0.86272 0.0
C1056 C 0.24265 0.27359 0.88566 0.0
H1057 H 0.2467 0.32705 0.87588 0.0
C1058 C 0.23942 0.35684 0.89995 0.0
O1059 O 0.17234 0.36219 0.9112 0.0
O1060 O 0.17764 0.34534 0.89176 0.0
N1061 N 0.23616 0.27458 0.90861 0.0
C1062 C 0.23205 0.26476 0.92067 0.0
C1063 C 0.23009 0.24134 0.92144 0.0
C1064 C 0.2326 0.22826 0.90986 0.0
C1065 C 0.23708 0.23873 0.89759 0.0
C1066 C 0.2389 0.26213 0.89743 0.0
H1067 H 0.23013 0.27473 0.9296 0.0
O1068 O 0.1753 0.31123 0.91116 0.0
O1069 O 0.20881 0.31068 0.9019 0.0
O1070 O 0.20842 0.33461 0.92701 0.0
O1071 O 0.23946 0.314 0.92371 0.0
C1072 C 0.23951 0.2269 0.88548 0.0
C1073 C 0.2431 0.23864 0.87342 0.0
H1074 H 0.24891 0.26701 0.85215 0.0
H1075 H 0.2503 0.30852 0.85378 0.0
H1076 H 0.22661 0.23338 0.93095 0.0
H1077 H 0.23093 0.21021 0.91048 0.0
H1078 H 0.23839 0.20879 0.88532 0.0
H1079 H 0.24458 0.22937 0.86415 0.0
Mn1080 Mn 0.4127 0.43962 0.65809 0.0
Mn1081 Mn 0.44511 0.48536 0.65365 0.0
C1082 C 0.45098 0.43571 0.65508 0.0
C1083 C 0.39025 0.41122 0.64919 0.0
C1084 C 0.42627 0.47152 0.68068 0.0
O1085 O 0.39003 0.46388 0.65322 0.0
O1086 O 0.41349 0.49264 0.64896 0.0
C1087 C 0.44172 0.48962 0.62422 0.0
N1088 N 0.45451 0.48719 0.63541 0.0
C1089 C 0.48845 0.48683 0.62239 0.0
C1090 C 0.47564 0.48947 0.61073 0.0
C1091 C 0.45218 0.49084 0.61166 0.0
C1092 C 0.47711 0.48588 0.63464 0.0
H1093 H 0.42367 0.49056 0.62488 0.0
C1094 C 0.39382 0.48396 0.64938 0.0
O1095 O 0.38847 0.41727 0.66162 0.0
O1096 O 0.40456 0.4221 0.6419 0.0
N1097 N 0.4761 0.48041 0.65768 0.0
C1098 C 0.48589 0.47654 0.66978 0.0
C1099 C 0.50926 0.47405 0.67055 0.0
C1100 C 0.52232 0.47566 0.6589 0.0
C1101 C 0.51189 0.47983 0.64658 0.0
C1102 C 0.48855 0.48238 0.64644 0.0
H1103 H 0.47593 0.47521 0.67876 0.0
O1104 O 0.4395 0.41991 0.66078 0.0
O1105 O 0.43969 0.45325 0.65133 0.0
O1106 O 0.41681 0.45349 0.67674 0.0
O1107 O 0.43675 0.48473 0.67279 0.0
C1108 C 0.52368 0.4811 0.63439 0.0
C1109 C 0.51197 0.48458 0.62231 0.0
H1110 H 0.48363 0.49026 0.60101 0.0
H1111 H 0.44217 0.49277 0.6027 0.0
H1112 H 0.51719 0.47079 0.68009 0.0
H1113 H 0.54033 0.4735 0.65951 0.0
H1114 H 0.54173 0.47908 0.63418 0.0
H1115 H 0.52119 0.4852 0.61298 0.0
Mn1116 Mn 0.30567 0.66291 0.40796 0.0
Mn1117 Mn 0.25856 0.69355 0.40436 0.0
C1118 C 0.30797 0.70148 0.40536 0.0
C1119 C 0.33473 0.64176 0.39864 0.0
C1120 C 0.27389 0.67439 0.431 0.0
O1121 O 0.28218 0.63942 0.40309 0.0
O1122 O 0.25244 0.66189 0.39932 0.0
C1123 C 0.25372 0.69123 0.37492 0.0
N1124 N 0.25579 0.70362 0.38629 0.0
C1125 C 0.25346 0.73811 0.37388 0.0
C1126 C 0.25119 0.72572 0.36204 0.0
C1127 C 0.25137 0.70218 0.36256 0.0
C1128 C 0.25572 0.72627 0.3859 0.0
H1129 H 0.25388 0.67313 0.3753 0.0
C1130 C 0.26185 0.64255 0.39951 0.0
O1131 O 0.32897 0.63945 0.4111 0.0
O1132 O 0.32321 0.65586 0.39155 0.0
N1133 N 0.26222 0.7245 0.40882 0.0
C1134 C 0.26578 0.73391 0.42105 0.0
C1135 C 0.26625 0.75734 0.42227 0.0
C1136 C 0.26297 0.77083 0.41093 0.0
C1137 C 0.25955 0.76077 0.39842 0.0
C1138 C 0.25896 0.73733 0.39785 0.0
H1139 H 0.26814 0.72363 0.42983 0.0
O1140 O 0.32434 0.69039 0.41078 0.0
O1141 O 0.29081 0.68962 0.40162 0.0
O1142 O 0.29221 0.66587 0.42679 0.0
O1143 O 0.26003 0.6845 0.42335 0.0
C1144 C 0.25686 0.77304 0.38648 0.0
C1145 C 0.25394 0.76172 0.37421 0.0
H1146 H 0.24945 0.7341 0.35248 0.0
H1147 H 0.24972 0.6925 0.35346 0.0
H1148 H 0.26902 0.76499 0.43194 0.0
H1149 H 0.26317 0.78889 0.41195 0.0
H1150 H 0.25728 0.79119 0.3866 0.0
H1151 H 0.25221 0.77134 0.36508 0.0
H1152 H 0.39854 0.95383 0.30254 0.0
H1153 H 0.39606 0.96445 0.27894 0.0
H1154 H 0.45486 0.00589 0.28332 0.0
H1155 H 0.45684 0.99617 0.30699 0.0
H1156 H 0.42478 0.02718 0.26917 0.0
H1157 H 0.4327 0.94126 0.24868 0.0
H1158 H 0.40915 0.94424 0.25967 0.0
H1159 H 0.43717 0.94741 0.26612 0.0
C1160 C 0.411 0.96513 0.29846 0.0
C1161 C 0.42798 0.97402 0.30666 0.0
C1162 C 0.40964 0.9711 0.28493 0.0
C1163 C 0.42555 0.98563 0.27923 0.0
C1164 C 0.44241 0.99461 0.28744 0.0
H1165 H 0.45516 0.9994 0.19512 0.0
H1166 H 0.45391 0.99061 0.2189 0.0
C1167 C 0.44356 0.98897 0.30099 0.0
C1168 C 0.42459 0.99183 0.26479 0.0
H1169 H 0.42383 0.97003 0.2332 0.0
C1170 C 0.42462 0.01466 0.2613 0.0
C1171 C 0.42465 0.97555 0.25448 0.0
C1172 C 0.42615 0.95076 0.2574 0.0
C1173 C 0.42488 0.02166 0.24787 0.0
C1174 C 0.4243 0.00538 0.23757 0.0
C1175 C 0.42409 0.98255 0.24106 0.0
C1176 C 0.42506 0.01148 0.22311 0.0
C1177 C 0.42661 0.04642 0.24492 0.0
C1178 C 0.40925 0.02617 0.21744 0.0
C1179 C 0.4102 0.03161 0.2038 0.0
C1180 C 0.42665 0.02203 0.1955 0.0
C1181 C 0.44224 0.0071 0.20118 0.0
C1182 C 0.44152 0.00199 0.21481 0.0
H1183 H 0.43346 0.05586 0.25358 0.0
H1184 H 0.43746 0.04961 0.2361 0.0
H1185 H 0.40964 0.05314 0.24276 0.0
H1186 H 0.39598 0.03323 0.2235 0.0
H1187 H 0.39776 0.04294 0.19972 0.0
H1188 H 0.24494 0.19297 0.55862 0.0
H1189 H 0.23601 0.19156 0.53483 0.0
H1190 H 0.29671 0.15437 0.52737 0.0
H1191 H 0.30568 0.15533 0.55125 0.0
H1192 H 0.25972 0.20847 0.51375 0.0
H1193 H 0.2497 0.11645 0.5083 0.0
H1194 H 0.25062 0.13012 0.5244 0.0
H1195 H 0.27611 0.1248 0.51534 0.0
C1196 C 0.25638 0.18433 0.55198 0.0
C1197 C 0.27602 0.17416 0.55693 0.0
C1198 C 0.25123 0.18358 0.53835 0.0
C1199 C 0.2655 0.1726 0.52932 0.0
C1200 C 0.28518 0.16253 0.53417 0.0
H1201 H 0.2659 0.19242 0.44313 0.0
H1202 H 0.27476 0.1913 0.46694 0.0
C1203 C 0.29036 0.16322 0.54784 0.0
C1204 C 0.26006 0.17242 0.5148 0.0
H1205 H 0.24963 0.13787 0.48825 0.0
C1206 C 0.25748 0.19303 0.50818 0.0
C1207 C 0.25683 0.15227 0.50757 0.0
C1208 C 0.25824 0.12964 0.51427 0.0
C1209 C 0.25206 0.19405 0.49452 0.0
C1210 C 0.24953 0.17392 0.48719 0.0
C1211 C 0.25178 0.1533 0.49384 0.0
C1212 C 0.24439 0.17396 0.47264 0.0
C1213 C 0.24868 0.21672 0.48812 0.0
C1214 C 0.22465 0.16399 0.46784 0.0
C1215 C 0.21955 0.16445 0.45416 0.0
C1216 C 0.23416 0.1748 0.44499 0.0
C1217 C 0.25414 0.18441 0.44985 0.0
C1218 C 0.25921 0.18391 0.46351 0.0
H1219 H 0.24527 0.22991 0.49569 0.0
H1220 H 0.26413 0.2215 0.48263 0.0
H1221 H 0.23458 0.21636 0.48088 0.0
H1222 H 0.21302 0.15611 0.47471 0.0
H1223 H 0.20406 0.15681 0.45082 0.0
H1224 H 0.10535 0.04591 0.80409 0.0
H1225 H 0.10795 0.03609 0.78037 0.0
H1226 H 0.04729 0.99712 0.78372 0.0
H1227 H 0.04516 0.006 0.80748 0.0
H1228 H 0.07681 0.97485 0.76987 0.0
H1229 H 0.07355 0.06137 0.74977 0.0
H1230 H 0.09658 0.05706 0.761 0.0
H1231 H 0.06825 0.05517 0.76712 0.0
C1232 C 0.09249 0.03536 0.79975 0.0
C1233 C 0.07498 0.02685 0.80769 0.0
C1234 C 0.09392 0.02985 0.78615 0.0
C1235 C 0.07757 0.01619 0.78014 0.0
C1236 C 0.0601 0.00772 0.78808 0.0
H1237 H 0.04832 0.00447 0.69597 0.0
H1238 H 0.05032 0.01351 0.71969 0.0
C1239 C 0.05888 0.01288 0.80169 0.0
C1240 C 0.07874 0.01022 0.76567 0.0
H1241 H 0.08125 0.03243 0.7342 0.0
C1242 C 0.07774 0.98747 0.76207 0.0
C1243 C 0.07972 0.02664 0.75545 0.0
C1244 C 0.07936 0.05142 0.7585 0.0
C1245 C 0.07743 0.98069 0.7486 0.0
C1246 C 0.079 0.99708 0.73839 0.0
C1247 C 0.08025 0.01982 0.742 0.0
C1248 C 0.07808 0.99121 0.72391 0.0
C1249 C 0.07455 0.95609 0.74552 0.0
C1250 C 0.09312 0.97574 0.71825 0.0
C1251 C 0.09173 0.97016 0.70465 0.0
C1252 C 0.07561 0.98036 0.69637 0.0
C1253 C 0.06094 0.99623 0.70202 0.0
C1254 C 0.06209 0.00149 0.71561 0.0
H1255 H 0.06716 0.94685 0.7541 0.0
H1256 H 0.06363 0.95356 0.73665 0.0
H1257 H 0.09119 0.94859 0.74338 0.0
H1258 H 0.10605 0.96805 0.72431 0.0
H1259 H 0.10348 0.9581 0.7006 0.0
H1260 H 0.29279 0.85372 0.94967 0.0
H1261 H 0.28367 0.85636 0.9735 0.0
H1262 H 0.23938 0.79955 0.96974 0.0
H1263 H 0.2475 0.79754 0.94591 0.0
H1264 H 0.22029 0.82988 0.98438 0.0
H1265 H 0.30697 0.81866 0.00319 0.0
H1266 H 0.30412 0.84254 0.99244 0.0
H1267 H 0.29976 0.8148 0.98584 0.0
C1268 C 0.28116 0.84176 0.95394 0.0
C1269 C 0.271 0.82533 0.94587 0.0
C1270 C 0.27607 0.84319 0.9676 0.0
C1271 C 0.26118 0.82786 0.97354 0.0
C1272 C 0.25096 0.81156 0.96545 0.0
H1273 H 0.25045 0.79536 0.05742 0.0
H1274 H 0.25876 0.79777 0.03358 0.0
C1275 C 0.25569 0.81039 0.95179 0.0
C1276 C 0.25584 0.82879 0.9881 0.0
H1277 H 0.27928 0.8277 0.01928 0.0
C1278 C 0.23321 0.82936 0.99201 0.0
C1279 C 0.27265 0.82787 0.9981 0.0
C1280 C 0.29721 0.8257 0.9947 0.0
C1281 C 0.2269 0.82873 0.00555 0.0
C1282 C 0.24372 0.82841 0.01555 0.0
C1283 C 0.26636 0.82813 0.01165 0.0
C1284 C 0.23831 0.82719 0.03009 0.0
C1285 C 0.20226 0.82751 0.00891 0.0
C1286 C 0.22412 0.843 0.0362 0.0
C1287 C 0.21893 0.84136 0.04983 0.0
C1288 C 0.2283 0.82422 0.05773 0.0
C1289 C 0.24291 0.80876 0.05166 0.0
C1290 C 0.24773 0.81015 0.038 0.0
H1291 H 0.19223 0.82121 1.00033 0.0
H1292 H 0.19921 0.8164 0.01763 0.0
H1293 H 0.19607 0.84455 0.01138 0.0
H1294 H 0.21716 0.85671 0.03045 0.0
H1295 H 0.20787 0.85373 0.05423 0.0
H1296 H 0.54499 1.00048 0.80741 0.0
H1297 H 0.54751 0.00927 0.78365 0.0
H1298 H 0.60558 0.96655 0.78014 0.0
H1299 H 0.60255 0.95687 0.80388 0.0
H1300 H 0.57841 0.02973 0.76983 0.0
H1301 H 0.56944 0.9438 0.74949 0.0
H1302 H 0.5646 0.95018 0.76688 0.0
H1303 H 0.59273 0.94653 0.76072 0.0
C1304 C 0.55821 0.99276 0.80158 0.0
C1305 C 0.57347 0.97781 0.80756 0.0
C1306 C 0.55966 0.99787 0.78797 0.0
C1307 C 0.57653 0.98834 0.77999 0.0
C1308 C 0.59202 0.97364 0.78595 0.0
H1309 H 0.60635 0.04517 0.70066 0.0
H1310 H 0.60801 0.03491 0.72435 0.0
C1311 C 0.59035 0.96821 0.79956 0.0
C1312 C 0.578 0.99436 0.76553 0.0
H1313 H 0.57883 0.97235 0.73399 0.0
C1314 C 0.57847 0.01716 0.762 0.0
C1315 C 0.57783 0.97801 0.75526 0.0
C1316 C 0.5759 0.95328 0.75825 0.0
C1317 C 0.57853 0.02408 0.74855 0.0
C1318 C 0.57895 0.00773 0.73829 0.0
C1319 C 0.5787 0.98492 0.74183 0.0
C1320 C 0.57847 0.01381 0.72382 0.0
C1321 C 0.57727 0.04885 0.74555 0.0
C1322 C 0.56184 0.00479 0.71547 0.0
C1323 C 0.56116 0.01023 0.70187 0.0
C1324 C 0.57699 0.02501 0.6963 0.0
C1325 C 0.59372 0.03398 0.70465 0.0
C1326 C 0.5946 0.02822 0.71824 0.0
H1327 H 0.5705 0.05847 0.75416 0.0
H1328 H 0.59437 0.05525 0.74344 0.0
H1329 H 0.56655 0.05219 0.73669 0.0
H1330 H 0.54922 0.99361 0.71949 0.0
H1331 H 0.54804 0.00297 0.69577 0.0
H1332 H 0.76346 0.80932 0.4442 0.0
H1333 H 0.77109 0.80999 0.46814 0.0
H1334 H 0.70966 0.84629 0.47494 0.0
H1335 H 0.7019 0.84603 0.45086 0.0
H1336 H 0.74631 0.86346 0.48931 0.0
H1337 H 0.73901 0.7715 0.49604 0.0
H1338 H 0.75857 0.77946 0.48325 0.0
H1339 H 0.72926 0.78568 0.48118 0.0
C1340 C 0.7515 0.8175 0.45073 0.0
C1341 C 0.73195 0.82752 0.44554 0.0
C1342 C 0.75587 0.81774 0.46446 0.0
C1343 C 0.74077 0.82784 0.47336 0.0
C1344 C 0.72148 0.83828 0.46824 0.0
H1345 H 0.74123 0.80635 0.55933 0.0
H1346 H 0.73168 0.80878 0.53566 0.0
C1347 C 0.71706 0.83807 0.45447 0.0
C1348 C 0.74523 0.82747 0.48798 0.0
H1349 H 0.75426 0.79203 0.51428 0.0
C1350 C 0.74794 0.84786 0.4948 0.0
C1351 C 0.74707 0.8071 0.49517 0.0
C1352 C 0.74311 0.78469 0.48858 0.0
C1353 C 0.75295 0.84842 0.50854 0.0
C1354 C 0.75565 0.82802 0.51561 0.0
C1355 C 0.75245 0.80766 0.50884 0.0
C1356 C 0.7614 0.82733 0.53008 0.0
C1357 C 0.75496 0.87085 0.51541 0.0
C1358 C 0.78141 0.8368 0.53486 0.0
C1359 C 0.78695 0.83551 0.54846 0.0
C1360 C 0.77265 0.82455 0.55756 0.0
C1361 C 0.75267 0.81497 0.55268 0.0
C1362 C 0.74715 0.81632 0.53911 0.0
H1363 H 0.74655 0.88434 0.50961 0.0
H1364 H 0.74757 0.87029 0.5256 0.0
H1365 H 0.77294 0.8753 0.51636 0.0
H1366 H 0.79293 0.84493 0.52804 0.0
H1367 H 0.80252 0.84297 0.5518 0.0
H1368 H 0.94903 0.99707 0.30856 0.0
H1369 H 0.94717 0.98771 0.28484 0.0
H1370 H 0.90754 0.04685 0.27744 0.0
H1371 H 0.90899 0.0563 0.30125 0.0
H1372 H 0.89096 0.00837 0.26462 0.0
H1373 H 0.98191 0.01943 0.25504 0.0
H1374 H 0.97569 1.00045 0.26848 0.0
H1375 H 0.96847 0.02959 0.27003 0.0
C1376 C 0.9399 0.00817 0.30193 0.0
C1377 C 0.92925 0.02755 0.30688 0.0
C1378 C 0.93896 0.00281 0.28833 0.0
C1379 C 0.92751 0.01675 0.27933 0.0
C1380 C 0.91656 0.03591 0.28421 0.0
H1381 H 0.94173 0.01527 0.19311 0.0
H1382 H 0.9404 0.02491 0.21678 0.0
C1383 C 0.91747 0.04131 0.29783 0.0
C1384 C 0.92693 0.01128 0.26483 0.0
H1385 H 0.9605 0.00302 0.2376 0.0
C1386 C 0.90614 0.00726 0.25869 0.0
C1387 C 0.94674 0.01008 0.25708 0.0
C1388 C 0.96946 0.01531 0.26293 0.0
C1389 C 0.90467 0.00174 0.24504 0.0
C1390 C 0.92454 0.9999 0.23738 0.0
C1391 C 0.94528 0.00422 0.2435 0.0
C1392 C 0.92427 0.99411 0.22291 0.0
C1393 C 0.88182 0.99836 0.23888 0.0
C1394 C 0.91567 0.97352 0.21844 0.0
C1395 C 0.91633 0.96792 0.20483 0.0
C1396 C 0.92577 0.98275 0.19543 0.0
C1397 C 0.9343 0.00339 0.19999 0.0
C1398 C 0.93359 0.00896 0.21356 0.0
H1399 H 0.86836 0.00593 0.24509 0.0
H1400 H 0.88105 0.00576 0.2287 0.0
H1401 H 0.87841 0.98014 0.23803 0.0
H1402 H 0.90882 0.96158 0.2255 0.0
H1403 H 0.90973 0.95183 0.20172 0.0
H1404 H 0.7498 0.20369 0.94617 0.0
H1405 H 0.74179 0.20205 0.97003 0.0
H1406 H 0.78453 0.14404 0.97383 0.0
H1407 H 0.7935 0.14624 0.94996 0.0
H1408 H 0.72174 0.17204 0.98451 0.0
H1409 H 0.8084 0.18096 0.00375 0.0
H1410 H 0.80151 0.18515 0.98638 0.0
H1411 H 0.80511 0.15725 0.99292 0.0
C1412 C 0.75768 0.19066 0.95207 0.0
C1413 C 0.77246 0.17519 0.94613 0.0
C1414 C 0.75302 0.18971 0.96575 0.0
C1415 C 0.76279 0.17314 0.97386 0.0
C1416 C 0.77727 0.1574 0.96792 0.0
H1417 H 0.70766 0.14708 0.05402 0.0
H1418 H 0.71755 0.14433 0.03033 0.0
C1419 C 0.78227 0.15858 0.95424 0.0
C1420 C 0.75726 0.17224 0.9884 0.0
H1421 H 0.78027 0.1724 0.0197 0.0
C1422 C 0.73457 0.17216 0.9922 0.0
C1423 C 0.77394 0.17265 0.99848 0.0
C1424 C 0.79858 0.17424 0.9952 0.0
C1425 C 0.72809 0.17273 0.00571 0.0
C1426 C 0.74476 0.17251 0.0158 0.0
C1427 C 0.76746 0.17237 0.01201 0.0
C1428 C 0.73913 0.17353 0.03032 0.0
C1429 C 0.70343 0.17445 0.00896 0.0
C1430 C 0.74861 0.19027 0.03841 0.0
C1431 C 0.7434 0.19155 0.05203 0.0
C1432 C 0.72838 0.17625 0.05788 0.0
C1433 C 0.71903 0.15934 0.0498 0.0
C1434 C 0.72457 0.15784 0.03621 0.0
H1435 H 0.69366 0.18112 1.00037 0.0
H1436 H 0.69684 0.15751 0.0113 0.0
H1437 H 0.7005 0.18547 0.01773 0.0
H1438 H 0.75993 0.20255 0.03416 0.0
H1439 H 0.75097 0.20477 0.05792 0.0
H1440 H 0.94403 0.49058 0.6948 0.0
H1441 H 0.94224 0.48079 0.71843 0.0
H1442 H 0.90746 0.54258 0.72676 0.0
H1443 H 0.90879 0.55245 0.70299 0.0
H1444 H 0.96037 0.50301 0.73955 0.0
H1445 H 0.86815 0.49659 0.7457 0.0
H1446 H 0.88147 0.49753 0.72949 0.0
H1447 H 0.87743 0.52288 0.73891 0.0
C1448 C 0.93582 0.5021 0.70159 0.0
C1449 C 0.92648 0.52233 0.69691 0.0
C1450 C 0.93484 0.49644 0.71514 0.0
C1451 C 0.92446 0.51078 0.72437 0.0
C1452 C 0.91513 0.53101 0.71979 0.0
H1453 H 0.94647 0.50863 0.81013 0.0
H1454 H 0.94477 0.51778 0.7864 0.0
C1455 C 0.91604 0.53669 0.70619 0.0
C1456 C 0.92434 0.50487 0.73882 0.0
H1457 H 0.89003 0.49497 0.76557 0.0
C1458 C 0.94498 0.50121 0.74523 0.0
C1459 C 0.90425 0.50221 0.74619 0.0
C1460 C 0.88155 0.50479 0.73972 0.0
C1461 C 0.9461 0.49529 0.75881 0.0
C1462 C 0.92606 0.49335 0.76629 0.0
C1463 C 0.90539 0.49665 0.75985 0.0
C1464 C 0.9263 0.48803 0.78081 0.0
C1465 C 0.96877 0.49079 0.76496 0.0
C1466 C 0.91589 0.46854 0.78567 0.0
C1467 C 0.9167 0.46326 0.79932 0.0
C1468 C 0.92784 0.47745 0.80841 0.0
C1469 C 0.93786 0.49718 0.80348 0.0
C1470 C 0.93701 0.50243 0.78987 0.0
H1471 H 0.9816 0.48698 0.75723 0.0
H1472 H 0.97436 0.50589 0.77051 0.0
H1473 H 0.96798 0.47654 0.7721 0.0
H1474 H 0.90743 0.45724 0.77886 0.0
H1475 H 0.90873 0.44798 0.80272 0.0
H1476 H 0.7948 0.6494 0.05378 0.0
H1477 H 0.78566 0.64655 0.02996 0.0
H1478 H 0.7425 0.70431 0.03334 0.0
H1479 H 0.75073 0.70663 0.05717 0.0
H1480 H 0.72267 0.6737 0.01905 0.0
H1481 H 0.80928 0.68324 0.99985 0.0
H1482 H 0.80623 0.65972 0.01086 0.0
H1483 H 0.80229 0.68772 0.01718 0.0
C1484 C 0.78345 0.66156 0.04942 0.0
C1485 C 0.77361 0.67831 0.0574 0.0
C1486 C 0.77833 0.65999 0.03577 0.0
C1487 C 0.7637 0.67548 0.02973 0.0
C1488 C 0.75386 0.69217 0.03771 0.0
H1489 H 0.75244 0.70574 0.94561 0.0
H1490 H 0.76076 0.70399 0.96945 0.0
C1491 C 0.75865 0.69351 0.05137 0.0
C1492 C 0.75819 0.67424 0.0152 0.0
H1493 H 0.78131 0.67409 0.98394 0.0
C1494 C 0.73551 0.67382 0.01138 0.0
C1495 C 0.7749 0.67464 0.00514 0.0
C1496 C 0.79952 0.67658 0.00844 0.0
C1497 C 0.72907 0.67406 0.99785 0.0
C1498 C 0.74579 0.67388 0.98779 0.0
C1499 C 0.76847 0.67404 0.99162 0.0
C1500 C 0.74025 0.67474 0.97325 0.0
C1501 C 0.70441 0.67538 0.99454 0.0
C1502 C 0.72598 0.65883 0.96732 0.0
C1503 C 0.7208 0.66006 0.95366 0.0
C1504 C 0.73024 0.67691 0.94558 0.0
C1505 C 0.74485 0.69253 0.9515 0.0
C1506 C 0.74969 0.69152 0.96517 0.0
H1507 H 0.69449 0.68195 0.00309 0.0
H1508 H 0.70138 0.6863 0.98573 0.0
H1509 H 0.6981 0.65833 0.99223 0.0
H1510 H 0.71898 0.64531 0.97321 0.0
H1511 H 0.70973 0.64759 0.94939 0.0
H1512 H 0.60469 0.5471 0.30399 0.0
H1513 H 0.60816 0.53661 0.28042 0.0
H1514 H 0.54784 0.49706 0.28349 0.0
H1515 H 0.54489 0.50658 0.30714 0.0
H1516 H 0.57778 0.4749 0.26993 0.0
H1517 H 0.57438 0.56115 0.24944 0.0
H1518 H 0.59721 0.55717 0.26086 0.0
H1519 H 0.56876 0.55514 0.26678 0.0
C1520 C 0.59211 0.53627 0.29962 0.0
C1521 C 0.57443 0.52782 0.30745 0.0
C1522 C 0.59404 0.53037 0.2861 0.0
C1523 C 0.57801 0.51639 0.28004 0.0
C1524 C 0.56041 0.50791 0.28788 0.0
H1525 H 0.55044 0.50433 0.19585 0.0
H1526 H 0.55205 0.51316 0.21959 0.0
C1527 C 0.5587 0.51344 0.30142 0.0
C1528 C 0.57958 0.51023 0.26561 0.0
H1529 H 0.5827 0.5321 0.23408 0.0
C1530 C 0.57881 0.48743 0.26209 0.0
C1531 C 0.58072 0.52654 0.25534 0.0
C1532 C 0.58008 0.55136 0.25826 0.0
C1533 C 0.57883 0.4805 0.24865 0.0
C1534 C 0.58051 0.49678 0.23839 0.0
C1535 C 0.5816 0.51956 0.24192 0.0
C1536 C 0.57973 0.49081 0.22391 0.0
C1537 C 0.57614 0.45585 0.24564 0.0
C1538 C 0.5948 0.47531 0.2183 0.0
C1539 C 0.59361 0.46982 0.20467 0.0
C1540 C 0.57767 0.48016 0.19633 0.0
C1541 C 0.56293 0.49599 0.20194 0.0
C1542 C 0.56387 0.50114 0.21555 0.0
H1543 H 0.56871 0.44665 0.25422 0.0
H1544 H 0.56535 0.45317 0.23673 0.0
H1545 H 0.59286 0.44844 0.2436 0.0
H1546 H 0.60763 0.46757 0.22441 0.0
H1547 H 0.60539 0.45777 0.20065 0.0
H1548 H 0.75925 0.30828 0.55964 0.0
H1549 H 0.76912 0.31035 0.53601 0.0
H1550 H 0.70854 0.34743 0.52799 0.0
H1551 H 0.69863 0.34583 0.55172 0.0
H1552 H 0.74653 0.29381 0.51456 0.0
H1553 H 0.75583 0.38596 0.50971 0.0
H1554 H 0.75438 0.37204 0.52572 0.0
H1555 H 0.72922 0.37739 0.51635 0.0
C1556 C 0.74802 0.31702 0.55291 0.0
C1557 C 0.72814 0.32697 0.55767 0.0
C1558 C 0.75372 0.31817 0.53937 0.0
C1559 C 0.73977 0.32934 0.53024 0.0
C1560 C 0.71984 0.33916 0.53489 0.0
H1561 H 0.73828 0.31073 0.4445 0.0
H1562 H 0.73042 0.31198 0.46839 0.0
C1563 C 0.71412 0.33808 0.54847 0.0
C1564 C 0.74573 0.32984 0.5158 0.0
H1565 H 0.75609 0.36492 0.48946 0.0
C1566 C 0.74869 0.30937 0.5091 0.0
C1567 C 0.74889 0.35014 0.5087 0.0
C1568 C 0.74714 0.37264 0.5155 0.0
C1569 C 0.75427 0.30863 0.49546 0.0
C1570 C 0.75657 0.3289 0.48824 0.0
C1571 C 0.75411 0.34939 0.49498 0.0
C1572 C 0.76116 0.32906 0.47363 0.0
C1573 C 0.75791 0.2861 0.48894 0.0
C1574 C 0.78077 0.33891 0.46854 0.0
C1575 C 0.78533 0.33835 0.45478 0.0
C1576 C 0.77027 0.32804 0.44585 0.0
C1577 C 0.75039 0.31868 0.45102 0.0
C1578 C 0.74588 0.31927 0.46472 0.0
H1579 H 0.76164 0.27287 0.49645 0.0
H1580 H 0.74245 0.28115 0.48352 0.0
H1581 H 0.77189 0.28677 0.48162 0.0
H1582 H 0.79274 0.34668 0.47524 0.0
H1583 H 0.80075 0.34579 0.45119 0.0
H1584 H 0.10435 0.45497 0.30318 0.0
H1585 H 0.1082 0.46554 0.27961 0.0
H1586 H 0.04984 0.50788 0.28294 0.0
H1587 H 0.04643 0.49818 0.30652 0.0
H1588 H 0.08227 0.45933 0.25896 0.0
H1589 H 0.09164 0.5507 0.26547 0.0
H1590 H 0.09293 0.53149 0.27938 0.0
H1591 H 0.06625 0.54106 0.2731 0.0
C1592 C 0.09242 0.46665 0.29891 0.0
C1593 C 0.07518 0.47584 0.3068 0.0
C1594 C 0.09465 0.4727 0.28543 0.0
C1595 C 0.07963 0.48795 0.27952 0.0
C1596 C 0.06213 0.49672 0.28732 0.0
H1597 H 0.04689 0.49792 0.1958 0.0
H1598 H 0.05011 0.48896 0.21949 0.0
C1599 C 0.06009 0.49097 0.30082 0.0
C1600 C 0.08157 0.49394 0.26509 0.0
H1601 H 0.08122 0.53829 0.24343 0.0
C1602 C 0.08231 0.47661 0.25559 0.0
C1603 C 0.08214 0.51648 0.26061 0.0
C1604 C 0.08346 0.53596 0.2702 0.0
C1605 C 0.08269 0.48115 0.2418 0.0
C1606 C 0.0815 0.50367 0.23731 0.0
C1607 C 0.08171 0.52101 0.24681 0.0
C1608 C 0.07946 0.50954 0.22287 0.0
C1609 C 0.08461 0.46171 0.23221 0.0
C1610 C 0.09422 0.52497 0.21691 0.0
C1611 C 0.0921 0.53057 0.20335 0.0
C1612 C 0.07522 0.52076 0.19545 0.0
C1613 C 0.06028 0.50558 0.20151 0.0
C1614 C 0.06222 0.50026 0.21507 0.0
H1615 H 0.09313 0.44718 0.23697 0.0
H1616 H 0.06756 0.45618 0.22924 0.0
H1617 H 0.09405 0.46642 0.22306 0.0
H1618 H 0.10755 0.53252 0.22273 0.0
H1619 H 0.10388 0.54232 0.19902 0.0
H1620 H 0.24414 0.3062 0.05941 0.0
H1621 H 0.23477 0.30762 0.03568 0.0
H1622 H 0.29516 0.34501 0.0278 0.0
H1623 H 0.3046 0.34404 0.05163 0.0
H1624 H 0.25781 0.3623 0.0146 0.0
H1625 H 0.26485 0.27059 0.00649 0.0
H1626 H 0.24593 0.27811 0.01971 0.0
H1627 H 0.27533 0.28418 0.02135 0.0
C1628 C 0.2555 0.31475 0.05267 0.0
C1629 C 0.27524 0.3249 0.05749 0.0
C1630 C 0.25014 0.31543 0.03907 0.0
C1631 C 0.26444 0.32609 0.02992 0.0
C1632 C 0.28393 0.33659 0.03468 0.0
H1633 H 0.26315 0.30811 0.944 0.0
H1634 H 0.27222 0.3096 0.96775 0.0
C1635 C 0.28932 0.33597 0.04831 0.0
C1636 C 0.25901 0.32626 0.01541 0.0
H1637 H 0.2493 0.2919 0.98871 0.0
C1638 C 0.256 0.34692 0.00891 0.0
C1639 C 0.25692 0.30618 0.00797 0.0
C1640 C 0.26113 0.28351 0.01418 0.0
C1641 C 0.25065 0.34804 0.99523 0.0
C1642 C 0.24789 0.32794 0.98789 0.0
C1643 C 0.25118 0.3073 0.99436 0.0
C1644 C 0.24233 0.32782 0.97338 0.0
C1645 C 0.24847 0.37074 0.98869 0.0
C1646 C 0.22239 0.33748 0.9686 0.0
C1647 C 0.21713 0.33675 0.95494 0.0
C1648 C 0.23164 0.32617 0.9458 0.0
C1649 C 0.25154 0.31644 0.95068 0.0
C1650 C 0.25679 0.31725 0.9643 0.0
H1651 H 0.25671 0.38407 0.9947 0.0
H1652 H 0.25593 0.37067 0.97852 0.0
H1653 H 0.23045 0.37506 0.98775 0.0
H1654 H 0.21072 0.34531 0.97546 0.0
H1655 H 0.2016 0.34429 0.95159 0.0
H1656 H 0.44848 0.4934 0.80822 0.0
H1657 H 0.44657 0.48366 0.78457 0.0
H1658 H 0.40772 0.54318 0.77676 0.0
H1659 H 0.4092 0.55299 0.80052 0.0
H1660 H 0.39079 0.50512 0.76401 0.0
H1661 H 0.48202 0.51411 0.75475 0.0
H1662 H 0.47539 0.49532 0.76822 0.0
H1663 H 0.46867 0.52461 0.76969 0.0
C1664 C 0.43951 0.50449 0.80152 0.0
C1665 C 0.4291 0.52409 0.80634 0.0
C1666 C 0.43855 0.49892 0.78796 0.0
C1667 C 0.42733 0.51287 0.77885 0.0
C1668 C 0.41658 0.53223 0.78361 0.0
H1669 H 0.44264 0.50938 0.69269 0.0
H1670 H 0.44166 0.5193 0.71632 0.0
C1671 C 0.41749 0.53783 0.79721 0.0
C1672 C 0.42681 0.50718 0.76438 0.0
H1673 H 0.46053 0.49758 0.73737 0.0
C1674 C 0.40602 0.50354 0.75816 0.0
C1675 C 0.44669 0.50538 0.75672 0.0
C1676 C 0.46945 0.51027 0.76263 0.0
C1677 C 0.40459 0.4978 0.74454 0.0
C1678 C 0.42451 0.4953 0.73699 0.0
C1679 C 0.44527 0.49927 0.74318 0.0
C1680 C 0.42429 0.48924 0.72256 0.0
C1681 C 0.38174 0.49491 0.7383 0.0
C1682 C 0.41495 0.46892 0.71816 0.0
C1683 C 0.41539 0.46318 0.70456 0.0
C1684 C 0.42536 0.47756 0.69511 0.0
C1685 C 0.43478 0.49785 0.69962 0.0
C1686 C 0.43427 0.50358 0.71316 0.0
H1687 H 0.36843 0.50308 0.74436 0.0
H1688 H 0.38131 0.50201 0.72803 0.0
H1689 H 0.37778 0.47678 0.73765 0.0
H1690 H 0.40761 0.45734 0.72525 0.0
H1691 H 0.4081 0.44736 0.70151 0.0
H1692 H 0.25913 0.6934 0.55873 0.0
H1693 H 0.2674 0.69131 0.53489 0.0
H1694 H 0.20575 0.65536 0.5282 0.0
H1695 H 0.19732 0.6571 0.55217 0.0
H1696 H 0.24315 0.63706 0.51454 0.0
H1697 H 0.23575 0.72869 0.50607 0.0
H1698 H 0.25488 0.7212 0.51921 0.0
H1699 H 0.2255 0.71521 0.52103 0.0
C1700 C 0.24726 0.685 0.55224 0.0
C1701 C 0.22744 0.67553 0.55743 0.0
C1702 C 0.25201 0.68392 0.53858 0.0
C1703 C 0.23704 0.6735 0.52974 0.0
C1704 C 0.21748 0.6636 0.53485 0.0
H1705 H 0.2364 0.6902 0.44366 0.0
H1706 H 0.2274 0.6886 0.46741 0.0
C1707 C 0.21268 0.66465 0.54856 0.0
C1708 C 0.24182 0.6731 0.51516 0.0
H1709 H 0.25072 0.70716 0.48822 0.0
C1710 C 0.24473 0.65236 0.50875 0.0
C1711 C 0.24363 0.69308 0.50761 0.0
C1712 C 0.23958 0.71581 0.51378 0.0
C1713 C 0.2498 0.65109 0.49503 0.0
C1714 C 0.25231 0.67112 0.48758 0.0
C1715 C 0.24903 0.69182 0.49396 0.0
C1716 C 0.25771 0.67109 0.47306 0.0
C1717 C 0.25205 0.62834 0.48859 0.0
C1718 C 0.27785 0.66185 0.4683 0.0
C1719 C 0.28309 0.66267 0.45464 0.0
C1720 C 0.26834 0.67291 0.44548 0.0
C1721 C 0.24819 0.68214 0.45035 0.0
C1722 C 0.24298 0.68127 0.46396 0.0
H1723 H 0.24413 0.615 0.49473 0.0
H1724 H 0.24431 0.62822 0.47848 0.0
H1725 H 0.27009 0.62421 0.48748 0.0
H1726 H 0.2897 0.65431 0.47517 0.0
H1727 H 0.2988 0.6555 0.4513 0.0
H1728 H 0.39107 0.97 0.14615 0.0
H1729 H 0.35903 0.94774 0.13909 0.0
H1730 H 0.31758 0.00693 0.13865 0.0
H1731 H 0.34978 0.02966 0.14572 0.0
H1732 H 0.31611 0.94359 0.15241 0.0
H1733 H 0.30957 0.97812 0.10072 0.0
H1734 H 0.33466 0.98128 0.11066 0.0
H1735 H 0.31023 0.99758 0.11448 0.0
C1736 C 0.3752 0.97843 0.14459 0.0
C1737 C 0.37309 0.00171 0.14649 0.0
C1738 C 0.35687 0.9656 0.14056 0.0
C1739 C 0.33602 0.97571 0.13824 0.0
C1740 C 0.33364 0.99887 0.14024 0.0
H1741 H 0.22123 0.89901 0.10587 0.0
H1742 H 0.24303 0.93052 0.11483 0.0
C1743 C 0.35203 0.01179 0.14435 0.0
C1744 C 0.31702 0.96159 0.13375 0.0
H1745 H 0.28639 0.94757 0.1061 0.0
C1746 C 0.30936 0.94466 0.14235 0.0
C1747 C 0.30815 0.96314 0.12066 0.0
C1748 C 0.31605 0.9809 0.11101 0.0
C1749 C 0.29373 0.92867 0.13803 0.0
C1750 C 0.28587 0.92939 0.12469 0.0
C1751 C 0.29255 0.94704 0.11631 0.0
C1752 C 0.2726 0.91072 0.11897 0.0
C1753 C 0.28616 0.91078 0.1477 0.0
C1754 C 0.28221 0.88933 0.11806 0.0
C1755 C 0.26994 0.8714 0.11294 0.0
C1756 C 0.24772 0.87442 0.10854 0.0
C1757 C 0.23826 0.89604 0.10919 0.0
C1758 C 0.25066 0.91407 0.11431 0.0
H1759 H 0.28825 0.91625 0.15825 0.0
H1760 H 0.26831 0.90629 0.14601 0.0
H1761 H 0.29647 0.8955 0.14621 0.0
H1762 H 0.29927 0.88649 0.12138 0.0
H1763 H 0.27789 0.85508 0.11257 0.0
H1764 H 0.22563 0.09904 0.39486 0.0
H1765 H 0.24876 0.06704 0.38783 0.0
H1766 H 0.30728 0.10938 0.38759 0.0
H1767 H 0.28465 0.1412 0.39455 0.0
H1768 H 0.27756 0.06436 0.36392 0.0
H1769 H 0.325 0.05471 0.41124 0.0
H1770 H 0.29854 0.06938 0.41031 0.0
H1771 H 0.32399 0.08305 0.40518 0.0
C1772 C 0.24345 0.1015 0.39339 0.0
C1773 C 0.25325 0.12273 0.39534 0.0
C1774 C 0.2566 0.08321 0.38934 0.0
C1775 C 0.27976 0.08581 0.38737 0.0
C1776 C 0.2895 0.10694 0.38926 0.0
H1777 H 0.3992 0.02399 0.36109 0.0
H1778 H 0.3685 0.04697 0.36946 0.0
C1779 C 0.27645 0.12516 0.3932 0.0
C1780 C 0.29401 0.06682 0.38301 0.0
H1781 H 0.34112 0.03783 0.39176 0.0
C1782 C 0.29122 0.05819 0.37006 0.0
C1783 C 0.31176 0.05884 0.39108 0.0
C1784 C 0.31493 0.0668 0.40528 0.0
C1785 C 0.30659 0.04274 0.36467 0.0
C1786 C 0.32498 0.03559 0.37254 0.0
C1787 C 0.3271 0.04345 0.38571 0.0
C1788 C 0.34318 0.02136 0.36704 0.0
C1789 C 0.30374 0.03512 0.35039 0.0
C1790 C 0.33915 0.99924 0.3629 0.0
C1791 C 0.35674 0.98596 0.35805 0.0
C1792 C 0.37871 0.99454 0.35731 0.0
C1793 C 0.38256 0.01676 0.36146 0.0
C1794 C 0.36502 0.02996 0.36629 0.0
H1795 H 0.29106 0.04528 0.34494 0.0
H1796 H 0.31991 0.03612 0.34492 0.0
H1797 H 0.29816 0.01738 0.35029 0.0
H1798 H 0.32248 0.99215 0.3636 0.0
H1799 H 0.35314 0.96891 0.35502 0.0
H1800 H 0.10654 0.03065 0.64422 0.0
H1801 H 0.13827 0.05302 0.6367 0.0
H1802 H 0.18098 0.9948 0.63842 0.0
H1803 H 0.14916 0.97201 0.64598 0.0
H1804 H 0.181 0.0584 0.65083 0.0
H1805 H 0.18972 0.0218 0.5998 0.0
H1806 H 0.16416 0.01918 0.60936 0.0
H1807 H 0.18831 0.00293 0.61384 0.0
C1808 C 0.12262 0.02246 0.643 0.0
C1809 C 0.12522 0.99944 0.64572 0.0
C1810 C 0.14076 0.03534 0.63871 0.0
C1811 C 0.16189 0.02553 0.63691 0.0
C1812 C 0.16471 0.00262 0.63962 0.0
H1813 H 0.27909 0.09863 0.6051 0.0
H1814 H 0.25568 0.0682 0.61392 0.0
C1815 C 0.14653 0.98966 0.644 0.0
C1816 C 0.18085 0.03971 0.63242 0.0
H1817 H 0.21291 0.05239 0.60514 0.0
C1818 C 0.18819 0.05693 0.6409 0.0
C1819 C 0.19028 0.03761 0.61951 0.0
C1820 C 0.18274 0.01949 0.61001 0.0
C1821 C 0.20421 0.07259 0.63665 0.0
C1822 C 0.21276 0.07128 0.62348 0.0
C1823 C 0.20624 0.05341 0.61521 0.0
C1824 C 0.22696 0.08935 0.61782 0.0
C1825 C 0.21162 0.09063 0.64627 0.0
C1826 C 0.21838 0.11116 0.6168 0.0
C1827 C 0.2316 0.12851 0.61179 0.0
C1828 C 0.25375 0.12445 0.60757 0.0
C1829 C 0.26216 0.10241 0.60829 0.0
C1830 C 0.24882 0.08499 0.61332 0.0
H1831 H 0.20908 0.08541 0.65683 0.0
H1832 H 0.22957 0.0949 0.6448 0.0
H1833 H 0.2015 0.10596 0.64452 0.0
H1834 H 0.20138 0.1148 0.61994 0.0
H1835 H 0.22443 0.14517 0.61133 0.0
H1836 H 0.1497 0.02967 0.85791 0.0
H1837 H 0.18062 0.00511 0.86479 0.0
H1838 H 0.13582 0.94845 0.86465 0.0
H1839 H 0.10497 0.97259 0.85778 0.0
H1840 H 0.18281 0.9768 0.88823 0.0
H1841 H 0.18923 0.92806 0.84121 0.0
H1842 H 0.17522 0.95487 0.84212 0.0
H1843 H 0.16117 0.92985 0.84763 0.0
C1844 C 0.14644 0.01196 0.85926 0.0
C1845 C 0.1248 0.00313 0.85721 0.0
C1846 C 0.16413 0.99798 0.86322 0.0
C1847 C 0.16056 0.97493 0.86503 0.0
C1848 C 0.13902 0.96612 0.86307 0.0
H1849 H 0.21987 0.85441 0.8917 0.0
H1850 H 0.1975 0.8855 0.88334 0.0
C1851 C 0.12136 0.98003 0.85919 0.0
C1852 C 0.17902 0.95993 0.86934 0.0
H1853 H 0.20645 0.91193 0.86058 0.0
C1854 C 0.18831 0.96282 0.88213 0.0
C1855 C 0.18619 0.94179 0.86131 0.0
C1856 C 0.17761 0.93853 0.84725 0.0
C1857 C 0.20364 0.94722 0.88741 0.0
C1858 C 0.21 0.9285 0.87959 0.0
C1859 C 0.20145 0.92623 0.86658 0.0
C1860 C 0.22398 0.91007 0.88504 0.0
C1861 C 0.21201 0.95024 0.90153 0.0
C1862 C 0.2464 0.91355 0.88879 0.0
C1863 C 0.25937 0.89571 0.89365 0.0
C1864 C 0.25013 0.87406 0.89479 0.0
C1865 C 0.22762 0.87078 0.89102 0.0
C1866 C 0.21476 0.88855 0.88619 0.0
H1867 H 0.20249 0.96336 0.907 0.0
H1868 H 0.21081 0.93425 0.90717 0.0
H1869 H 0.22991 0.95528 0.90128 0.0
H1870 H 0.25395 0.92997 0.88779 0.0
H1871 H 0.27665 0.89885 0.89638 0.0
H1872 H 0.72094 0.14299 0.89261 0.0
H1873 H 0.69919 0.11157 0.88414 0.0
H1874 H 0.75621 0.06791 0.88894 0.0
H1875 H 0.77837 0.09942 0.89757 0.0
H1876 H 0.71107 0.08478 0.86095 0.0
H1877 H 0.70285 0.03451 0.90771 0.0
H1878 H 0.70985 0.06396 0.90802 0.0
H1879 H 0.73038 0.04381 0.90284 0.0
C1880 C 0.72895 0.12672 0.892 0.0
C1881 C 0.75148 0.12381 0.89582 0.0
C1882 C 0.71644 0.10876 0.88711 0.0
C1883 C 0.72604 0.08741 0.88598 0.0
C1884 C 0.74842 0.08423 0.88988 0.0
H1885 H 0.64798 0.96985 0.85874 0.0
H1886 H 0.6802 0.99258 0.8658 0.0
C1887 C 0.76106 0.10228 0.89477 0.0
C1888 C 0.71249 0.06891 0.88028 0.0
H1889 H 0.68307 0.0219 0.88881 0.0
C1890 C 0.70519 0.07086 0.86699 0.0
C1891 C 0.70502 0.05067 0.88814 0.0
C1892 C 0.71227 0.04799 0.9025 0.0
C1893 C 0.6899 0.05555 0.8615 0.0
C1894 C 0.68138 0.03808 0.86959 0.0
C1895 C 0.6896 0.03538 0.88265 0.0
C1896 C 0.66227 0.02407 0.86512 0.0
C1897 C 0.6826 0.05852 0.84716 0.0
C1898 C 0.64151 0.03423 0.86257 0.0
C1899 C 0.62315 0.02139 0.8586 0.0
C1900 C 0.62506 0.998 0.8571 0.0
C1901 C 0.64592 0.98781 0.8597 0.0
C1902 C 0.66434 1.00074 0.86377 0.0
H1903 H 0.6953 0.06791 0.84127 0.0
H1904 H 0.67959 0.04208 0.84227 0.0
H1905 H 0.66674 0.06823 0.84691 0.0
H1906 H 0.63943 0.05215 0.86379 0.0
H1907 H 0.6074 0.02988 0.85675 0.0
H1908 H 0.60638 0.97323 0.64307 0.0
H1909 H 0.63671 0.94971 0.63481 0.0
H1910 H 0.68313 0.00459 0.63916 0.0
H1911 H 0.65283 0.02841 0.64765 0.0
H1912 H 0.66309 0.95766 0.61203 0.0
H1913 H 0.71519 0.95225 0.65814 0.0
H1914 H 0.6864 0.9616 0.65845 0.0
H1915 H 0.70803 0.97995 0.65246 0.0
C1916 C 0.62303 0.98037 0.6424 0.0
C1917 C 0.6271 0.00278 0.64609 0.0
C1918 C 0.64036 0.96685 0.63763 0.0
C1919 C 0.6622 0.97532 0.63647 0.0
C1920 C 0.66646 0.99761 0.64018 0.0
H1921 H 0.7793 0.89858 0.60779 0.0
H1922 H 0.7557 0.93001 0.61506 0.0
C1923 C 0.64908 0.01122 0.64498 0.0
C1924 C 0.68011 0.96078 0.63094 0.0
H1925 H 0.72805 0.9326 0.6392 0.0
C1926 C 0.67739 0.95233 0.61794 0.0
C1927 C 0.69886 0.954 0.63862 0.0
C1928 C 0.70234 0.96224 0.65273 0.0
C1929 C 0.69254 0.93678 0.61255 0.0
C1930 C 0.71072 0.92925 0.62043 0.0
C1931 C 0.71405 0.93841 0.63321 0.0
C1932 C 0.7252 0.91049 0.61599 0.0
C1933 C 0.68879 0.92827 0.59851 0.0
C1934 C 0.71589 0.88911 0.61429 0.0
C1935 C 0.72924 0.87117 0.61021 0.0
C1936 C 0.75228 0.87418 0.60772 0.0
C1937 C 0.76162 0.89566 0.60953 0.0
C1938 C 0.74819 0.91364 0.61371 0.0
H1939 H 0.67825 0.93999 0.59258 0.0
H1940 H 0.70497 0.92575 0.59323 0.0
H1941 H 0.67999 0.9119 0.59897 0.0
H1942 H 0.69825 0.88626 0.61622 0.0
H1943 H 0.72141 0.85492 0.609 0.0
H1944 H 0.7839 0.86054 0.39338 0.0
H1945 H 0.80584 0.8918 0.38493 0.0
H1946 H 0.74783 0.93474 0.38711 0.0
H1947 H 0.72547 0.90336 0.39575 0.0
H1948 H 0.79634 0.9163 0.36108 0.0
H1949 H 0.79822 0.97084 0.40632 0.0
H1950 H 0.79119 0.94143 0.40722 0.0
H1951 H 0.77132 0.96108 0.4006 0.0
C1952 C 0.77569 0.87661 0.3922 0.0
C1953 C 0.75283 0.87935 0.39528 0.0
C1954 C 0.78833 0.89449 0.38733 0.0
C1955 C 0.77852 0.9156 0.38546 0.0
C1956 C 0.75579 0.91863 0.38865 0.0
H1957 H 0.85403 0.0332 0.35623 0.0
H1958 H 0.82258 0.00956 0.36336 0.0
C1959 C 0.74303 0.90065 0.39355 0.0
C1960 C 0.79224 0.93394 0.37971 0.0
H1961 H 0.81916 0.98269 0.38766 0.0
C1962 C 0.80112 0.93096 0.36683 0.0
C1963 C 0.7983 0.95312 0.38719 0.0
C1964 C 0.78943 0.95691 0.40114 0.0
C1965 C 0.81654 0.94621 0.36142 0.0
C1966 C 0.82353 0.96474 0.36918 0.0
C1967 C 0.81381 0.96839 0.38178 0.0
C1968 C 0.84233 0.97925 0.36483 0.0
C1969 C 0.82558 0.94213 0.34754 0.0
C1970 C 0.86385 0.97008 0.36347 0.0
C1971 C 0.88181 0.98346 0.35945 0.0
C1972 C 0.87868 0.00639 0.3567 0.0
C1973 C 0.85705 0.0156 0.35817 0.0
C1974 C 0.83906 0.00215 0.36228 0.0
H1975 H 0.81413 0.93135 0.34158 0.0
H1976 H 0.82818 0.95817 0.34212 0.0
H1977 H 0.84198 0.93344 0.3483 0.0
H1978 H 0.86679 0.95252 0.36561 0.0
H1979 H 0.89817 0.97575 0.35851 0.0
H1980 H 0.72593 0.10139 0.1015 0.0
H1981 H 0.74924 0.07007 0.1093 0.0
H1982 H 0.79749 0.11686 0.12509 0.0
H1983 H 0.77459 0.14814 0.11733 0.0
H1984 H 0.79732 0.06268 0.10223 0.0
H1985 H 0.78211 0.07255 0.1567 0.0
H1986 H 0.76329 0.08359 0.14415 0.0
H1987 H 0.7889 0.09803 0.14798 0.0
C1988 C 0.74146 0.10502 0.10668 0.0
C1989 C 0.74837 0.12732 0.10877 0.0
C1990 C 0.75474 0.08711 0.11111 0.0
C1991 C 0.77492 0.0912 0.1179 0.0
C1992 C 0.78182 0.11337 0.12002 0.0
H1993 H 0.89749 0.02552 0.13388 0.0
H1994 H 0.86582 0.04776 0.12601 0.0
C1995 C 0.76873 0.13123 0.11549 0.0
C1996 C 0.78938 0.07247 0.1224 0.0
H1997 H 0.81333 0.04984 0.15035 0.0
C1998 C 0.80058 0.05961 0.11275 0.0
C1999 C 0.79343 0.0684 0.13613 0.0
C2000 C 0.78118 0.08121 0.14688 0.0
C2001 C 0.81665 0.04355 0.11647 0.0
C2002 C 0.82163 0.04039 0.13017 0.0
C2003 C 0.80956 0.0524 0.13985 0.0
C2004 C 0.84056 0.02611 0.13459 0.0
C2005 C 0.82857 0.03041 0.10573 0.0
C2006 C 0.83684 0.00664 0.14215 0.0
C2007 C 0.85498 0.99374 0.14665 0.0
C2008 C 0.87715 1.00034 0.14385 0.0
C2009 C 0.88069 0.01993 0.13628 0.0
C2010 C 0.8626 0.03262 0.13169 0.0
H2011 H 0.81916 0.03066 0.09614 0.0
H2012 H 0.84532 0.03794 0.10395 0.0
H2013 H 0.83108 0.01273 0.10887 0.0
H2014 H 0.81991 0.00145 0.14457 0.0
H2015 H 0.85164 0.97881 0.15249 0.0
H2016 H 0.72311 0.40196 0.6076 0.0
H2017 H 0.74735 0.43299 0.61472 0.0
H2018 H 0.80414 0.38831 0.6154 0.0
H2019 H 0.78032 0.35737 0.60833 0.0
H2020 H 0.77551 0.43467 0.63875 0.0
H2021 H 0.82448 0.44214 0.59184 0.0
H2022 H 0.79752 0.42841 0.59258 0.0
H2023 H 0.82233 0.41396 0.59805 0.0
C2024 C 0.74078 0.39876 0.60919 0.0
C2025 C 0.74974 0.37713 0.60733 0.0
C2026 C 0.75457 0.4165 0.61328 0.0
C2027 C 0.77756 0.41297 0.6154 0.0
C2028 C 0.7865 0.39146 0.6136 0.0
H2029 H 0.89789 0.47265 0.64228 0.0
H2030 H 0.86701 0.45012 0.63377 0.0
C2031 C 0.77278 0.37374 0.60961 0.0
C2032 C 0.79239 0.43144 0.61984 0.0
H2033 H 0.84032 0.45917 0.61131 0.0
C2034 C 0.78948 0.44038 0.6327 0.0
C2035 C 0.81052 0.43882 0.61188 0.0
C2036 C 0.81384 0.43051 0.59776 0.0
C2037 C 0.80504 0.45557 0.63812 0.0
C2038 C 0.82374 0.46218 0.63036 0.0
C2039 C 0.82604 0.45398 0.61727 0.0
C2040 C 0.84206 0.47619 0.6359 0.0
C2041 C 0.802 0.46353 0.65233 0.0
C2042 C 0.8383 0.49842 0.63993 0.0
C2043 C 0.856 0.51145 0.64488 0.0
C2044 C 0.87781 0.50248 0.64581 0.0
C2045 C 0.88139 0.48017 0.64175 0.0
C2046 C 0.86373 0.46723 0.63684 0.0
H2047 H 0.7891 0.45363 0.65775 0.0
H2048 H 0.81805 0.46246 0.65792 0.0
H2049 H 0.79662 0.48133 0.65225 0.0
H2050 H 0.82177 0.50578 0.63908 0.0
H2051 H 0.85263 0.52858 0.64783 0.0
H2052 H 0.89716 0.52842 0.86054 0.0
H2053 H 0.86566 0.55144 0.86767 0.0
H2054 H 0.82172 0.49425 0.86513 0.0
H2055 H 0.85333 0.4708 0.85796 0.0
H2056 H 0.82397 0.55817 0.85299 0.0
H2057 H 0.81159 0.52088 0.90359 0.0
H2058 H 0.83749 0.51757 0.89443 0.0
H2059 H 0.81303 0.50223 0.88945 0.0
C2060 C 0.88086 0.52059 0.86149 0.0
C2061 C 0.87786 0.49767 0.85866 0.0
C2062 C 0.86285 0.53384 0.86557 0.0
C2063 C 0.84143 0.52452 0.86702 0.0
C2064 C 0.83821 0.50169 0.86421 0.0
H2065 H 0.72494 0.60125 0.89688 0.0
H2066 H 0.74762 0.57003 0.88833 0.0
C2067 C 0.85628 0.48836 0.86005 0.0
C2068 C 0.82262 0.53911 0.87126 0.0
H2069 H 0.78957 0.55226 0.89804 0.0
C2070 C 0.81624 0.55672 0.86277 0.0
C2071 C 0.81246 0.53705 0.88398 0.0
C2072 C 0.81896 0.51851 0.89348 0.0
C2073 C 0.80051 0.57281 0.86685 0.0
C2074 C 0.79127 0.5715 0.87986 0.0
C2075 C 0.79678 0.55326 0.8881 0.0
C2076 C 0.77749 0.58998 0.88541 0.0
C2077 C 0.79421 0.59132 0.85727 0.0
C2078 C 0.78695 0.61134 0.88688 0.0
C2079 C 0.77416 0.62912 0.89176 0.0
C2080 C 0.75156 0.62595 0.89535 0.0
C2081 C 0.74225 0.60433 0.89418 0.0
C2082 C 0.75516 0.58647 0.8893 0.0
H2083 H 0.79721 0.58632 0.84671 0.0
H2084 H 0.77631 0.59609 0.85841 0.0
H2085 H 0.80465 0.6063 0.85938 0.0
H2086 H 0.80429 0.61429 0.8842 0.0
H2087 H 0.78201 0.64542 0.89256 0.0
H2088 H 0.72273 0.6465 0.11112 0.0
H2089 H 0.70131 0.61506 0.11982 0.0
H2090 H 0.7585 0.57166 0.11492 0.0
H2091 H 0.78036 0.60323 0.10606 0.0
H2092 H 0.71559 0.55367 0.10566 0.0
H2093 H 0.71121 0.58689 0.15732 0.0
H2094 H 0.70333 0.60711 0.14486 0.0
H2095 H 0.73159 0.59658 0.14526 0.0
C2096 C 0.73088 0.63032 0.11181 0.0
C2097 C 0.75339 0.62751 0.10792 0.0
C2098 C 0.71858 0.61236 0.11687 0.0
C2099 C 0.72844 0.59116 0.11823 0.0
C2100 C 0.75067 0.58798 0.11404 0.0
H2101 H 0.65199 0.47267 0.14637 0.0
H2102 H 0.68398 0.49543 0.139 0.0
C2103 C 0.76311 0.60604 0.10899 0.0
C2104 C 0.71515 0.57254 0.124 0.0
H2105 H 0.68388 0.55906 0.15143 0.0
C2106 C 0.709 0.55451 0.11575 0.0
C2107 C 0.70672 0.57367 0.1372 0.0
C2108 C 0.71371 0.59199 0.14673 0.0
C2109 C 0.69339 0.53841 0.1201 0.0
C2110 C 0.68395 0.54037 0.13302 0.0
C2111 C 0.69107 0.55769 0.1415 0.0
C2112 C 0.66496 0.52619 0.13744 0.0
C2113 C 0.68609 0.52017 0.11061 0.0
C2114 C 0.64382 0.53603 0.13914 0.0
C2115 C 0.6256 0.52319 0.14333 0.0
C2116 C 0.62811 0.50016 0.14601 0.0
C2117 C 0.64943 0.49033 0.14439 0.0
C2118 C 0.6677 0.50327 0.14013 0.0
H2119 H 0.69321 0.52243 0.10043 0.0
H2120 H 0.69167 0.50367 0.11452 0.0
H2121 H 0.66752 0.51978 0.10986 0.0
H2122 H 0.64139 0.55372 0.13713 0.0
H2123 H 0.60953 0.53142 0.14446 0.0
H2124 H 0.77545 0.40139 0.39513 0.0
H2125 H 0.75196 0.43309 0.38809 0.0
H2126 H 0.69402 0.38996 0.38755 0.0
H2127 H 0.71704 0.35839 0.39453 0.0
H2128 H 0.7234 0.43592 0.36422 0.0
H2129 H 0.67545 0.44389 0.41146 0.0
H2130 H 0.70204 0.42947 0.41049 0.0
H2131 H 0.67675 0.41575 0.40514 0.0
C2132 C 0.75769 0.39867 0.39357 0.0
C2133 C 0.74816 0.3773 0.39548 0.0
C2134 C 0.74433 0.4168 0.38952 0.0
C2135 C 0.72123 0.4139 0.38749 0.0
C2136 C 0.71175 0.39262 0.38928 0.0
H2137 H 0.60177 0.47646 0.36145 0.0
H2138 H 0.63233 0.45311 0.36964 0.0
C2139 C 0.72502 0.37454 0.39323 0.0
C2140 C 0.70677 0.4328 0.38323 0.0
H2141 H 0.65953 0.46138 0.39214 0.0
C2142 C 0.70965 0.44184 0.37038 0.0
C2143 C 0.68892 0.44046 0.39132 0.0
C2144 C 0.68567 0.43206 0.40543 0.0
C2145 C 0.6943 0.45742 0.36511 0.0
C2146 C 0.67585 0.46429 0.37301 0.0
C2147 C 0.6736 0.45598 0.38607 0.0
C2148 C 0.65773 0.47876 0.36763 0.0
C2149 C 0.69727 0.46552 0.35093 0.0
C2150 C 0.66185 0.50101 0.3638 0.0
C2151 C 0.64434 0.51451 0.35905 0.0
C2152 C 0.62236 0.506 0.35812 0.0
C2153 C 0.61842 0.48365 0.36198 0.0
C2154 C 0.63588 0.47023 0.3667 0.0
H2155 H 0.70996 0.45552 0.3454 0.0
H2156 H 0.68113 0.46476 0.34541 0.0
H2157 H 0.70288 0.48325 0.35106 0.0
H2158 H 0.67853 0.50804 0.36465 0.0
H2159 H 0.648 0.53166 0.35625 0.0
H2160 H 0.10169 0.5249 0.36136 0.0
H2161 H 0.13248 0.5477 0.36974 0.0
H2162 H 0.17767 0.49174 0.36552 0.0
H2163 H 0.1469 0.46865 0.35692 0.0
H2164 H 0.15909 0.5394 0.3925 0.0
H2165 H 0.21044 0.54321 0.34603 0.0
H2166 H 0.18144 0.53454 0.34593 0.0
H2167 H 0.20272 0.51579 0.35192 0.0
C2168 C 0.11816 0.51736 0.36211 0.0
C2169 C 0.12176 0.49489 0.35838 0.0
C2170 C 0.13576 0.53045 0.36695 0.0
C2171 C 0.1574 0.5215 0.36813 0.0
C2172 C 0.16116 0.49909 0.36448 0.0
H2173 H 0.27525 0.59874 0.39568 0.0
H2174 H 0.25181 0.56687 0.38886 0.0
C2175 C 0.14351 0.4859 0.35962 0.0
C2176 C 0.17568 0.53574 0.3735 0.0
H2177 H 0.22366 0.56334 0.36468 0.0
C2178 C 0.17333 0.54445 0.38647 0.0
C2179 C 0.19435 0.54216 0.36565 0.0
C2180 C 0.19745 0.53361 0.35157 0.0
C2181 C 0.18871 0.55998 0.39163 0.0
C2182 C 0.20676 0.56722 0.38355 0.0
C2183 C 0.20977 0.55774 0.37083 0.0
C2184 C 0.22121 0.58621 0.38764 0.0
C2185 C 0.18529 0.56887 0.4056 0.0
C2186 C 0.21179 0.6076 0.389 0.0
C2187 C 0.22503 0.62577 0.39281 0.0
C2188 C 0.24808 0.62298 0.39537 0.0
C2189 C 0.25756 0.60149 0.39388 0.0
C2190 C 0.24423 0.58327 0.38996 0.0
H2191 H 0.17485 0.55735 0.41172 0.0
H2192 H 0.2016 0.57146 0.41074 0.0
H2193 H 0.17655 0.58527 0.40506 0.0
H2194 H 0.19413 0.61028 0.38704 0.0
H2195 H 0.21709 0.64201 0.39379 0.0
H2196 H 0.2799 0.40012 0.10655 0.0
H2197 H 0.25572 0.43113 0.11374 0.0
H2198 H 0.19985 0.38565 0.11694 0.0
H2199 H 0.22361 0.35469 0.10978 0.0
H2200 H 0.19141 0.42683 0.10226 0.0
H2201 H 0.22999 0.44123 0.15229 0.0
H2202 H 0.24832 0.44026 0.138 0.0
H2203 H 0.23388 0.41537 0.14319 0.0
C2204 C 0.26247 0.39669 0.10879 0.0
C2205 C 0.25376 0.37483 0.10758 0.0
C2206 C 0.24872 0.41443 0.11296 0.0
C2207 C 0.22606 0.41062 0.11598 0.0
C2208 C 0.21731 0.38892 0.11469 0.0
H2209 H 0.10482 0.46946 0.14225 0.0
H2210 H 0.13581 0.44716 0.13373 0.0
C2211 C 0.23099 0.37122 0.11059 0.0
C2212 C 0.21107 0.4291 0.12026 0.0
H2213 H 0.19829 0.46285 0.1468 0.0
C2214 C 0.19304 0.43489 0.11194 0.0
C2215 C 0.21337 0.43971 0.13284 0.0
C2216 C 0.23233 0.43385 0.14219 0.0
C2217 C 0.17685 0.45051 0.11602 0.0
C2218 C 0.17846 0.46025 0.12888 0.0
C2219 C 0.19705 0.45527 0.13697 0.0
C2220 C 0.16003 0.47409 0.13447 0.0
C2221 C 0.15795 0.45623 0.10657 0.0
C2222 C 0.16352 0.49653 0.13815 0.0
C2223 C 0.14574 0.50946 0.14312 0.0
C2224 C 0.12421 0.50007 0.14461 0.0
C2225 C 0.12105 0.47739 0.1412 0.0
C2226 C 0.13876 0.46458 0.13623 0.0
H2227 H 0.16268 0.45296 0.096 0.0
H2228 H 0.1432 0.44562 0.10897 0.0
H2229 H 0.15293 0.47408 0.10757 0.0
H2230 H 0.1799 0.50412 0.13696 0.0
H2231 H 0.14882 0.52683 0.14568 0.0
H2232 H 0.40122 0.4736 0.86073 0.0
H2233 H 0.3708 0.45033 0.86914 0.0
H2234 H 0.32439 0.50504 0.86387 0.0
H2235 H 0.35478 0.52857 0.85523 0.0
H2236 H 0.34394 0.45849 0.89154 0.0
H2237 H 0.29273 0.4525 0.84513 0.0
H2238 H 0.32147 0.462 0.84499 0.0
H2239 H 0.29959 0.48032 0.8507 0.0
C2240 C 0.38456 0.48076 0.86124 0.0
C2241 C 0.38051 0.50301 0.85723 0.0
C2242 C 0.36717 0.46739 0.86609 0.0
C2243 C 0.34529 0.47586 0.86701 0.0
C2244 C 0.34108 0.49804 0.86303 0.0
H2245 H 0.22703 0.40066 0.8953 0.0
H2246 H 0.25117 0.4317 0.88806 0.0
C2247 C 0.35851 0.51148 0.85814 0.0
C2248 C 0.32725 0.46144 0.87252 0.0
H2249 H 0.27925 0.43348 0.86416 0.0
C2250 C 0.32971 0.45316 0.88559 0.0
C2251 C 0.30859 0.45465 0.86477 0.0
C2252 C 0.30539 0.46265 0.85058 0.0
C2253 C 0.31436 0.43782 0.89099 0.0
C2254 C 0.29624 0.43032 0.88305 0.0
C2255 C 0.2932 0.43927 0.87019 0.0
C2256 C 0.28147 0.41181 0.88754 0.0
C2257 C 0.31782 0.42952 0.90509 0.0
C2258 C 0.29049 0.39035 0.88946 0.0
C2259 C 0.27683 0.37264 0.89353 0.0
C2260 C 0.25376 0.37595 0.89576 0.0
C2261 C 0.24472 0.39751 0.89376 0.0
C2262 C 0.25846 0.41526 0.8896 0.0
H2263 H 0.32837 0.44123 0.911 0.0
H2264 H 0.30153 0.42725 0.9103 0.0
H2265 H 0.32646 0.41305 0.90479 0.0
H2266 H 0.30815 0.38726 0.88771 0.0
H2267 H 0.28444 0.35631 0.8949 0.0
H2268 H 0.39506 0.52756 0.64101 0.0
H2269 H 0.36419 0.55056 0.63296 0.0
H2270 H 0.31834 0.49563 0.63897 0.0
H2271 H 0.34922 0.47233 0.64726 0.0
H2272 H 0.33651 0.54172 0.61085 0.0
H2273 H 0.28724 0.54854 0.658 0.0
H2274 H 0.31607 0.53931 0.65781 0.0
H2275 H 0.2942 0.52073 0.65244 0.0
C2276 C 0.37843 0.52028 0.64073 0.0
C2277 C 0.37469 0.49803 0.64485 0.0
C2278 C 0.36078 0.53351 0.63609 0.0
C2279 C 0.33895 0.5249 0.63547 0.0
C2280 C 0.33501 0.50273 0.63957 0.0
H2281 H 0.22133 0.60275 0.60821 0.0
H2282 H 0.24459 0.57089 0.61525 0.0
C2283 C 0.35272 0.48941 0.64426 0.0
C2284 C 0.32066 0.53921 0.63015 0.0
H2285 H 0.27359 0.56812 0.63923 0.0
C2286 C 0.32262 0.54731 0.61701 0.0
C2287 C 0.30247 0.54634 0.63817 0.0
C2288 C 0.29981 0.53846 0.65243 0.0
C2289 C 0.30732 0.56292 0.61184 0.0
C2290 C 0.28977 0.57086 0.62007 0.0
C2291 C 0.28712 0.56199 0.63297 0.0
C2292 C 0.27544 0.58988 0.61586 0.0
C2293 C 0.31031 0.57116 0.59768 0.0
C2294 C 0.28507 0.61109 0.61407 0.0
C2295 C 0.27192 0.62927 0.61012 0.0
C2296 C 0.24877 0.62666 0.60786 0.0
C2297 C 0.2391 0.60535 0.60977 0.0
C2298 C 0.25233 0.58714 0.61382 0.0
H2299 H 0.32041 0.55927 0.59162 0.0
H2300 H 0.29385 0.57371 0.59273 0.0
H2301 H 0.31923 0.58748 0.59785 0.0
H2302 H 0.30282 0.61361 0.61579 0.0
H2303 H 0.28001 0.64537 0.60881 0.0
H2304 H 0.36916 0.11928 0.1623 0.0
H2305 H 0.35266 0.15382 0.15338 0.0
H2306 H 0.37651 0.13683 0.11397 0.0
H2307 H 0.39307 0.10231 0.12277 0.0
H2308 H 0.37849 0.18791 0.14003 0.0
H2309 H 0.30986 0.15511 0.10799 0.0
H2310 H 0.32241 0.1388 0.12126 0.0
H2311 H 0.33677 0.14212 0.1056 0.0
C2312 C 0.37062 0.12273 0.1517 0.0
C2313 C 0.38244 0.10806 0.14324 0.0
C2314 C 0.3612 0.14247 0.14663 0.0
C2315 C 0.36317 0.14776 0.133 0.0
C2316 C 0.37448 0.13289 0.12447 0.0
H2317 H 0.33281 0.26334 0.08329 0.0
H2318 H 0.34358 0.22634 0.0921 0.0
C2319 C 0.38404 0.11322 0.12955 0.0
C2320 C 0.355 0.16963 0.12788 0.0
H2321 H 0.31845 0.19381 0.10586 0.0
C2322 C 0.36525 0.18923 0.13263 0.0
C2323 C 0.33786 0.17126 0.11816 0.0
C2324 C 0.3259 0.15074 0.11299 0.0
C2325 C 0.35919 0.21042 0.12771 0.0
C2326 C 0.342 0.21209 0.11799 0.0
C2327 C 0.33163 0.19249 0.11329 0.0
C2328 C 0.33469 0.23407 0.11258 0.0
C2329 C 0.37171 0.23076 0.13269 0.0
C2330 C 0.32595 0.25054 0.12113 0.0
C2331 C 0.31987 0.27153 0.11612 0.0
C2332 C 0.32186 0.27622 0.10242 0.0
C2333 C 0.33071 0.25985 0.09385 0.0
C2334 C 0.33681 0.2388 0.09886 0.0
H2335 H 0.38809 0.22615 0.13721 0.0
H2336 H 0.37474 0.24289 0.12446 0.0
H2337 H 0.36156 0.23924 0.14049 0.0
H2338 H 0.32389 0.24719 0.13171 0.0
H2339 H 0.31373 0.28419 0.12298 0.0
H2340 H 0.13566 0.11775 0.41251 0.0
H2341 H 0.10096 0.10147 0.40367 0.0
H2342 H 0.11803 0.12495 0.36418 0.0
H2343 H 0.15268 0.14127 0.3729 0.0
H2344 H 0.06712 0.12758 0.39041 0.0
H2345 H 0.09888 0.05867 0.35823 0.0
H2346 H 0.11545 0.07105 0.37143 0.0
H2347 H 0.11221 0.08538 0.35575 0.0
C2348 C 0.1322 0.11914 0.40191 0.0
C2349 C 0.14691 0.13082 0.39341 0.0
C2350 C 0.11237 0.10985 0.39688 0.0
C2351 C 0.10705 0.1118 0.38325 0.0
C2352 C 0.12199 0.12292 0.37469 0.0
H2353 H 0.99145 0.08415 0.33318 0.0
H2354 H 0.02851 0.09412 0.34221 0.0
C2355 C 0.14173 0.13234 0.37971 0.0
C2356 C 0.08505 0.10393 0.37818 0.0
H2357 H 0.06035 0.06813 0.35595 0.0
C2358 C 0.0656 0.11445 0.38296 0.0
C2359 C 0.08317 0.08694 0.36838 0.0
C2360 C 0.1035 0.07468 0.3632 0.0
C2361 C 0.04433 0.10884 0.37797 0.0
C2362 C 0.04242 0.09185 0.36815 0.0
C2363 C 0.06186 0.08117 0.36345 0.0
C2364 C 0.02036 0.08508 0.36261 0.0
C2365 C 0.02419 0.12166 0.38297 0.0
C2366 C 0.00362 0.07654 0.37105 0.0
C2367 C 0.98259 0.07092 0.36592 0.0
C2368 C 0.97812 0.07318 0.3522 0.0
C2369 C 0.99475 0.08186 0.34375 0.0
C2370 C 0.01584 0.0875 0.34889 0.0
H2371 H 0.02906 0.13787 0.3876 0.0
H2372 H 0.01218 0.12507 0.37473 0.0
H2373 H 0.01545 0.11154 0.39069 0.0
H2374 H 0.00679 0.07426 0.38163 0.0
H2375 H 0.96974 0.0649 0.37268 0.0
H2376 H 0.10382 0.89697 0.6243 0.0
H2377 H 0.12087 0.86274 0.61546 0.0
H2378 H 0.15155 0.84999 0.65377 0.0
H2379 H 0.13442 0.88416 0.66275 0.0
H2380 H 0.16672 0.84934 0.6141 0.0
H2381 H 0.11591 0.79213 0.64581 0.0
H2382 H 0.10883 0.8213 0.64348 0.0
H2383 H 0.13102 0.81349 0.65471 0.0
C2384 C 0.11429 0.88696 0.63084 0.0
C2385 C 0.11765 0.89321 0.64426 0.0
C2386 C 0.12403 0.86741 0.62576 0.0
C2387 C 0.13718 0.85365 0.63401 0.0
C2388 C 0.14113 0.86018 0.6473 0.0
H2389 H 0.19518 0.7214 0.62263 0.0
H2390 H 0.18523 0.75859 0.63111 0.0
C2391 C 0.13143 0.87977 0.65239 0.0
C2392 C 0.14645 0.83234 0.62873 0.0
H2393 H 0.14382 0.7755 0.63236 0.0
C2394 C 0.16174 0.83317 0.61807 0.0
C2395 C 0.1399 0.81129 0.63393 0.0
C2396 C 0.12287 0.80936 0.64504 0.0
C2397 C 0.17091 0.8135 0.6126 0.0
C2398 C 0.16428 0.7924 0.61775 0.0
C2399 C 0.14901 0.79164 0.62844 0.0
C2400 C 0.17262 0.77083 0.61215 0.0
C2401 C 0.18806 0.81555 0.60161 0.0
C2402 C 0.16902 0.76529 0.59865 0.0
C2403 C 0.17514 0.74415 0.59375 0.0
C2404 C 0.18504 0.72827 0.60225 0.0
C2405 C 0.18847 0.73373 0.61575 0.0
C2406 C 0.18253 0.75487 0.62063 0.0
H2407 H 0.19586 0.83246 0.6014 0.0
H2408 H 0.20143 0.80287 0.60291 0.0
H2409 H 0.17986 0.81268 0.5918 0.0
H2410 H 0.16074 0.77698 0.592 0.0
H2411 H 0.17173 0.74004 0.5834 0.0
H2412 H 0.51064 0.92298 0.83278 0.0
H2413 H 0.47323 0.91189 0.84061 0.0
H2414 H 0.48894 0.93704 0.87994 0.0
H2415 H 0.52637 0.9478 0.87216 0.0
H2416 H 0.46651 0.88084 0.86159 0.0
H2417 H 0.42547 0.96215 0.8733 0.0
H2418 H 0.44855 0.95964 0.86172 0.0
H2419 H 0.45359 0.95873 0.87946 0.0
C2420 C 0.50583 0.9266 0.843 0.0
C2421 C 0.52105 0.93691 0.85176 0.0
C2422 C 0.48452 0.92025 0.84747 0.0
C2423 C 0.47812 0.92396 0.86081 0.0
C2424 C 0.49325 0.93454 0.86953 0.0
H2425 H 0.3666 0.88315 0.91101 0.0
H2426 H 0.40066 0.89979 0.90159 0.0
C2427 C 0.51458 0.94081 0.86506 0.0
C2428 C 0.4566 0.91477 0.86592 0.0
H2429 H 0.40698 0.92938 0.88061 0.0
C2430 C 0.45341 0.89146 0.86565 0.0
C2431 C 0.43962 0.92859 0.87133 0.0
C2432 C 0.44178 0.95371 0.87143 0.0
C2433 C 0.4339 0.88159 0.87088 0.0
C2434 C 0.41687 0.89546 0.87625 0.0
C2435 C 0.42004 0.91877 0.87649 0.0
C2436 C 0.39574 0.88608 0.88177 0.0
C2437 C 0.432 0.85637 0.87093 0.0
C2438 C 0.38135 0.87334 0.87368 0.0
C2439 C 0.36193 0.86377 0.87904 0.0
C2440 C 0.35639 0.86694 0.89258 0.0
C2441 C 0.37041 0.88036 0.90055 0.0
C2442 C 0.38989 0.88986 0.89519 0.0
H2443 H 0.44865 0.84819 0.86988 0.0
H2444 H 0.42403 0.8503 0.88029 0.0
H2445 H 0.42146 0.85098 0.86238 0.0
H2446 H 0.38522 0.87066 0.86321 0.0
H2447 H 0.35141 0.85366 0.87259 0.0
H2448 H 0.32482 0.73676 0.4194 0.0
H2449 H 0.33596 0.77348 0.41054 0.0
H2450 H 0.31229 0.75411 0.37143 0.0
H2451 H 0.30223 0.71713 0.38017 0.0
H2452 H 0.35356 0.77103 0.37026 0.0
H2453 H 0.30105 0.82869 0.40043 0.0
H2454 H 0.31693 0.80921 0.41033 0.0
H2455 H 0.29557 0.79906 0.39919 0.0
C2456 C 0.32163 0.74061 0.40899 0.0
C2457 C 0.31191 0.72452 0.40056 0.0
C2458 C 0.32782 0.76162 0.40394 0.0
C2459 C 0.32448 0.76683 0.39036 0.0
C2460 C 0.31478 0.75065 0.38196 0.0
H2461 H 0.36498 0.87948 0.33958 0.0
H2462 H 0.34687 0.84569 0.34843 0.0
C2463 C 0.30878 0.72963 0.38699 0.0
C2464 C 0.33291 0.78826 0.38463 0.0
H2465 H 0.33063 0.84526 0.38791 0.0
C2466 C 0.34835 0.78725 0.37403 0.0
C2467 C 0.32623 0.80947 0.38959 0.0
C2468 C 0.30889 0.81179 0.40045 0.0
C2469 C 0.35763 0.80678 0.36848 0.0
C2470 C 0.3511 0.82793 0.37353 0.0
C2471 C 0.33559 0.829 0.38406 0.0
C2472 C 0.3608 0.84909 0.36832 0.0
C2473 C 0.37487 0.8046 0.3575 0.0
C2474 C 0.37399 0.86257 0.37668 0.0
C2475 C 0.38427 0.88188 0.37168 0.0
C2476 C 0.38143 0.88816 0.35822 0.0
C2477 C 0.36756 0.87505 0.34998 0.0
C2478 C 0.35731 0.85568 0.35499 0.0
H2479 H 0.3816 0.78727 0.35678 0.0
H2480 H 0.36701 0.8089 0.34778 0.0
H2481 H 0.38905 0.81632 0.35918 0.0
H2482 H 0.37679 0.85784 0.38701 0.0
H2483 H 0.3948 0.89164 0.37831 0.0
H2484 H 0.37167 0.11407 0.5904 0.0
H2485 H 0.40633 0.09796 0.59943 0.0
H2486 H 0.38891 0.12202 0.63873 0.0
H2487 H 0.35431 0.13816 0.62982 0.0
H2488 H 0.43975 0.12476 0.61244 0.0
H2489 H 0.40904 0.05627 0.6453 0.0
H2490 H 0.39224 0.06813 0.63201 0.0
H2491 H 0.39534 0.08285 0.64757 0.0
C2492 C 0.37502 0.11556 0.60101 0.0
C2493 C 0.36027 0.12742 0.60939 0.0
C2494 C 0.39483 0.10639 0.60614 0.0
C2495 C 0.40008 0.10862 0.61977 0.0
C2496 C 0.38501 0.11978 0.62824 0.0
H2497 H 0.51613 0.08285 0.67 0.0
H2498 H 0.47907 0.09289 0.66096 0.0
C2499 C 0.3653 0.12909 0.6231 0.0
C2500 C 0.42218 0.10118 0.6249 0.0
H2501 H 0.44739 0.06643 0.64753 0.0
C2502 C 0.44147 0.11186 0.62002 0.0
C2503 C 0.42431 0.08452 0.63489 0.0
C2504 C 0.40417 0.0721 0.6402 0.0
C2505 C 0.46281 0.10671 0.62507 0.0
C2506 C 0.46497 0.09004 0.63506 0.0
C2507 C 0.44569 0.07922 0.63989 0.0
C2508 C 0.48714 0.0836 0.64059 0.0
C2509 C 0.48276 0.11968 0.61993 0.0
C2510 C 0.50385 0.07498 0.63216 0.0
C2511 C 0.52486 0.06931 0.6373 0.0
C2512 C 0.52935 0.07162 0.65101 0.0
C2513 C 0.5128 0.08053 0.65944 0.0
C2514 C 0.49172 0.0862 0.6543 0.0
H2515 H 0.47765 0.13574 0.6152 0.0
H2516 H 0.49479 0.12337 0.62811 0.0
H2517 H 0.49155 0.10953 0.61225 0.0
H2518 H 0.50063 0.07256 0.6216 0.0
H2519 H 0.53765 0.06311 0.63056 0.0
H2520 H 0.1367 0.12071 0.84222 0.0
H2521 H 0.15388 0.15447 0.85164 0.0
H2522 H 0.12722 0.13774 0.89047 0.0
H2523 H 0.10963 0.10427 0.88109 0.0
H2524 H 0.11779 0.18054 0.88338 0.0
H2525 H 0.20823 0.16395 0.87527 0.0
H2526 H 0.19172 0.16149 0.86034 0.0
H2527 H 0.18724 0.14226 0.87394 0.0
C2528 C 0.1348 0.12404 0.85281 0.0
C2529 C 0.12179 0.10983 0.86091 0.0
C2530 C 0.14474 0.14329 0.8582 0.0
C2531 C 0.14208 0.14851 0.87181 0.0
C2532 C 0.12956 0.13402 0.87996 0.0
H2533 H 0.17529 0.26518 0.92091 0.0
H2534 H 0.16437 0.22763 0.91317 0.0
C2535 C 0.11954 0.11487 0.87458 0.0
C2536 C 0.15079 0.16992 0.87735 0.0
H2537 H 0.19821 0.20125 0.88142 0.0
C2538 C 0.13542 0.18496 0.88307 0.0
C2539 C 0.17378 0.17574 0.87688 0.0
C2540 C 0.19124 0.15993 0.87139 0.0
C2541 C 0.14232 0.20582 0.88809 0.0
C2542 C 0.16527 0.21168 0.88755 0.0
C2543 C 0.18066 0.19666 0.88187 0.0
C2544 C 0.17343 0.23364 0.89251 0.0
C2545 C 0.12487 0.22168 0.89357 0.0
C2546 C 0.18265 0.2492 0.88354 0.0
C2547 C 0.18898 0.2705 0.88797 0.0
C2548 C 0.18667 0.27638 0.90149 0.0
C2549 C 0.17756 0.26081 0.91048 0.0
C2550 C 0.17125 0.23947 0.90606 0.0
H2551 H 0.10765 0.21685 0.89047 0.0
H2552 H 0.12555 0.22141 0.90466 0.0
H2553 H 0.12813 0.23911 0.8902 0.0
H2554 H 0.18437 0.24508 0.87303 0.0
H2555 H 0.19525 0.28255 0.88078 0.0
H2556 H 0.14583 0.85231 0.13023 0.0
H2557 H 0.11198 0.87005 0.13916 0.0
H2558 H 0.09918 0.90036 0.10076 0.0
H2559 H 0.13295 0.88261 0.0917 0.0
H2560 H 0.0993 0.91677 0.14 0.0
H2561 H 0.04104 0.86506 0.10952 0.0
H2562 H 0.07011 0.85765 0.11192 0.0
H2563 H 0.0626 0.87935 0.1003 0.0
C2564 C 0.13588 0.86283 0.12369 0.0
C2565 C 0.142 0.86594 0.11023 0.0
C2566 C 0.11656 0.87297 0.12882 0.0
C2567 C 0.10293 0.88624 0.12057 0.0
C2568 C 0.1093 0.88988 0.10723 0.0
H2569 H 0.97157 0.94604 0.13112 0.0
H2570 H 0.00865 0.93529 0.12284 0.0
C2571 C 0.12865 0.87981 0.10209 0.0
C2572 C 0.08184 0.89594 0.12587 0.0
H2573 H 0.02494 0.89383 0.12253 0.0
C2574 C 0.08301 0.91178 0.13621 0.0
C2575 C 0.06065 0.88937 0.12089 0.0
C2576 C 0.05838 0.87179 0.11012 0.0
C2577 C 0.06353 0.92154 0.14157 0.0
C2578 C 0.04229 0.91492 0.13663 0.0
C2579 C 0.04119 0.89903 0.12628 0.0
C2580 C 0.02089 0.92392 0.14208 0.0
C2581 C 0.06594 0.93926 0.15221 0.0
C2582 C 0.01541 0.92133 0.15567 0.0
C2583 C 0.99435 0.92794 0.16045 0.0
C2584 C 0.97849 0.93733 0.15173 0.0
C2585 C 0.9839 0.93977 0.13815 0.0
C2586 C 0.00497 0.93337 0.13339 0.0
H2587 H 0.08288 0.94701 0.15207 0.0
H2588 H 0.05326 0.95261 0.15084 0.0
H2589 H 0.0634 0.93155 0.16219 0.0
H2590 H 0.02708 0.91343 0.1625 0.0
H2591 H 0.99026 0.92529 0.17089 0.0
H2592 H 0.69903 0.72308 0.88093 0.0
H2593 H 0.68727 0.76021 0.87313 0.0
H2594 H 0.66148 0.7752 0.91241 0.0
H2595 H 0.67357 0.73811 0.92027 0.0
H2596 H 0.63038 0.78129 0.89136 0.0
H2597 H 0.71079 0.82422 0.87991 0.0
H2598 H 0.70811 0.79603 0.87374 0.0
H2599 H 0.70871 0.8011 0.89148 0.0
C2600 C 0.69167 0.73467 0.88801 0.0
C2601 C 0.6879 0.72809 0.90131 0.0
C2602 C 0.68483 0.75583 0.88354 0.0
C2603 C 0.67378 0.77065 0.89223 0.0
C2604 C 0.67017 0.76414 0.90557 0.0
H2605 H 0.60128 0.89622 0.88058 0.0
H2606 H 0.6185 0.86241 0.88985 0.0
C2607 C 0.67711 0.74302 0.91005 0.0
C2608 C 0.6641 0.79197 0.88712 0.0
H2609 H 0.67766 0.84197 0.87252 0.0
C2610 C 0.64072 0.79463 0.88733 0.0
C2611 C 0.67756 0.80929 0.88176 0.0
C2612 C 0.70273 0.80772 0.88175 0.0
C2613 C 0.63044 0.81395 0.88211 0.0
C2614 C 0.64395 0.8313 0.87678 0.0
C2615 C 0.66732 0.82866 0.87659 0.0
C2616 C 0.63415 0.85227 0.87128 0.0
C2617 C 0.60518 0.81532 0.88202 0.0
C2618 C 0.6379 0.85828 0.85789 0.0
C2619 C 0.62826 0.87775 0.85258 0.0
C2620 C 0.61473 0.8916 0.8606 0.0
C2621 C 0.61148 0.88583 0.8741 0.0
C2622 C 0.62118 0.86642 0.8794 0.0
H2623 H 0.59735 0.79851 0.88306 0.0
H2624 H 0.59953 0.82575 0.89057 0.0
H2625 H 0.59899 0.82317 0.87265 0.0
H2626 H 0.648 0.84769 0.85146 0.0
H2627 H 0.63112 0.88173 0.84215 0.0
H2628 H 0.03073 0.94588 0.63154 0.0
H2629 H 0.99368 0.93587 0.62289 0.0
H2630 H 0.97446 0.9125 0.6621 0.0
H2631 H 0.01127 0.92359 0.67086 0.0
H2632 H 0.97651 0.89452 0.62192 0.0
H2633 H 0.91937 0.94783 0.65201 0.0
H2634 H 0.94896 0.95329 0.65045 0.0
H2635 H 0.93912 0.93213 0.66183 0.0
C2636 C 0.01826 0.9394 0.63839 0.0
C2637 C 0.02344 0.93635 0.65197 0.0
C2638 C 0.9972 0.93343 0.63343 0.0
C2639 C 0.98103 0.92383 0.64188 0.0
C2640 C 0.98631 0.92055 0.65545 0.0
H2641 H 0.85488 0.85551 0.62967 0.0
H2642 H 0.88901 0.87273 0.63849 0.0
C2643 C 0.00737 0.92671 0.66044 0.0
C2644 C 0.9595 0.91552 0.63622 0.0
H2645 H 0.90252 0.91862 0.63942 0.0
C2646 C 0.96034 0.89997 0.62568 0.0
C2647 C 0.93837 0.9225 0.64114 0.0
C2648 C 0.93627 0.94 0.65192 0.0
C2649 C 0.9407 0.89092 0.62012 0.0
C2650 C 0.91962 0.8978 0.62512 0.0
C2651 C 0.91873 0.91338 0.63561 0.0
C2652 C 0.89833 0.88851 0.61983 0.0
C2653 C 0.94268 0.87359 0.60919 0.0
C2654 C 0.89196 0.89214 0.60648 0.0
C2655 C 0.87241 0.88235 0.6014 0.0
C2656 C 0.85887 0.8688 0.6096 0.0
C2657 C 0.86496 0.8658 0.62308 0.0
C2658 C 0.88446 0.87563 0.62815 0.0
H2659 H 0.95989 0.86653 0.60855 0.0
H2660 H 0.93067 0.85964 0.61084 0.0
H2661 H 0.93866 0.88149 0.59943 0.0
H2662 H 0.90224 0.90236 0.59996 0.0
H2663 H 0.86815 0.88504 0.59099 0.0
H2664 H 0.80171 0.28283 0.38047 0.0
H2665 H 0.81171 0.24575 0.37185 0.0
H2666 H 0.83638 0.22703 0.41086 0.0
H2667 H 0.82538 0.26387 0.4196 0.0
H2668 H 0.85351 0.22932 0.37068 0.0
H2669 H 0.80151 0.17141 0.40104 0.0
H2670 H 0.79557 0.20092 0.39955 0.0
H2671 H 0.81706 0.19136 0.41078 0.0
C2672 C 0.80847 0.27045 0.38729 0.0
C2673 C 0.81197 0.27578 0.4008 0.0
C2674 C 0.81442 0.24938 0.38234 0.0
C2675 C 0.82442 0.23338 0.39075 0.0
C2676 C 0.82804 0.23877 0.40427 0.0
H2677 H 0.89535 0.10885 0.37879 0.0
H2678 H 0.87707 0.14248 0.38753 0.0
C2679 C 0.82192 0.25984 0.40924 0.0
C2680 C 0.83295 0.21199 0.38505 0.0
H2681 H 0.831 0.155 0.3884 0.0
C2682 C 0.8484 0.21307 0.37447 0.0
C2683 C 0.8264 0.19077 0.39004 0.0
C2684 C 0.80908 0.18842 0.40092 0.0
C2685 C 0.85782 0.1936 0.36895 0.0
C2686 C 0.85139 0.17242 0.37402 0.0
C2687 C 0.83587 0.17127 0.38454 0.0
C2688 C 0.8612 0.15132 0.3688 0.0
C2689 C 0.8751 0.19587 0.358 0.0
C2690 C 0.85787 0.14483 0.35545 0.0
C2691 C 0.86829 0.12559 0.35041 0.0
C2692 C 0.88217 0.11247 0.35867 0.0
C2693 C 0.88483 0.11862 0.37215 0.0
C2694 C 0.87439 0.13783 0.37718 0.0
H2695 H 0.88181 0.21321 0.35733 0.0
H2696 H 0.88929 0.18415 0.35966 0.0
H2697 H 0.86727 0.19167 0.34825 0.0
H2698 H 0.84742 0.15482 0.34888 0.0
H2699 H 0.86583 0.12125 0.34 0.0
H2700 H 0.63195 0.1171 0.09141 0.0
H2701 H 0.5976 0.10045 0.10047 0.0
H2702 H 0.61245 0.12869 0.13917 0.0
H2703 H 0.64651 0.14569 0.13016 0.0
H2704 H 0.59057 0.07053 0.1212 0.0
H2705 H 0.54938 0.15182 0.13221 0.0
H2706 H 0.57418 0.1497 0.12195 0.0
H2707 H 0.57641 0.14879 0.13989 0.0
C2708 C 0.62795 0.11967 0.10187 0.0
C2709 C 0.64186 0.13286 0.11004 0.0
C2710 C 0.6083 0.11017 0.10702 0.0
C2711 C 0.6022 0.11374 0.12043 0.0
C2712 C 0.61651 0.1262 0.12872 0.0
H2713 H 0.48783 0.077 0.1696 0.0
H2714 H 0.52507 0.08803 0.16147 0.0
C2715 C 0.63608 0.13577 0.12357 0.0
C2716 C 0.5809 0.10444 0.12574 0.0
H2717 H 0.53139 0.11918 0.14052 0.0
C2718 C 0.57757 0.08117 0.12537 0.0
C2719 C 0.56395 0.11835 0.13117 0.0
C2720 C 0.566 0.14356 0.13123 0.0
C2721 C 0.55794 0.0714 0.1305 0.0
C2722 C 0.54109 0.08525 0.13603 0.0
C2723 C 0.5444 0.10854 0.13638 0.0
C2724 C 0.51964 0.07611 0.14129 0.0
C2725 C 0.55563 0.0463 0.13029 0.0
C2726 C 0.50428 0.06563 0.13267 0.0
C2727 C 0.48304 0.05938 0.13731 0.0
C2728 C 0.47691 0.06321 0.15068 0.0
C2729 C 0.49237 0.07344 0.15933 0.0
C2730 C 0.51358 0.07976 0.15469 0.0
H2731 H 0.57183 0.03779 0.12822 0.0
H2732 H 0.54911 0.04029 0.14004 0.0
H2733 H 0.54356 0.04146 0.12236 0.0
H2734 H 0.50833 0.06318 0.12222 0.0
H2735 H 0.47106 0.05244 0.13031 0.0
H2736 H 0.67091 0.26505 0.58407 0.0
H2737 H 0.66107 0.22799 0.59316 0.0
H2738 H 0.68101 0.24987 0.63253 0.0
H2739 H 0.69025 0.28691 0.62352 0.0
H2740 H 0.6874 0.1964 0.60677 0.0
H2741 H 0.61776 0.22698 0.63875 0.0
H2742 H 0.63028 0.24402 0.62585 0.0
H2743 H 0.64398 0.24083 0.64176 0.0
C2744 C 0.67322 0.26179 0.59464 0.0
C2745 C 0.68191 0.27845 0.60307 0.0
C2746 C 0.66766 0.2407 0.59982 0.0
C2747 C 0.67017 0.23622 0.61354 0.0
C2748 C 0.67866 0.25302 0.62195 0.0
H2749 H 0.63838 0.1207 0.66352 0.0
H2750 H 0.65493 0.15527 0.65466 0.0
C2751 C 0.6842 0.27404 0.61679 0.0
C2752 C 0.66367 0.21409 0.6191 0.0
H2753 H 0.62851 0.18905 0.64154 0.0
C2754 C 0.67449 0.19476 0.61435 0.0
C2755 C 0.64685 0.21201 0.62901 0.0
C2756 C 0.63388 0.23203 0.63407 0.0
C2757 C 0.66901 0.1734 0.61931 0.0
C2758 C 0.65218 0.17136 0.6292 0.0
C2759 C 0.64153 0.1907 0.63403 0.0
C2760 C 0.64448 0.14929 0.63425 0.0
C2761 C 0.68138 0.1532 0.61406 0.0
C2762 C 0.63329 0.13441 0.62569 0.0
C2763 C 0.62371 0.11475 0.63072 0.0
C2764 C 0.62517 0.10959 0.64443 0.0
C2765 C 0.63705 0.12415 0.65291 0.0
C2766 C 0.64649 0.14392 0.64787 0.0
H2767 H 0.69731 0.15797 0.60905 0.0
H2768 H 0.68516 0.14123 0.62226 0.0
H2769 H 0.67069 0.14445 0.60663 0.0
H2770 H 0.63122 0.13841 0.61519 0.0
H2771 H 0.61463 0.10392 0.62393 0.0
H2772 H 0.49011 0.91597 0.33208 0.0
H2773 H 0.52726 0.90557 0.34084 0.0
H2774 H 0.50635 0.92507 0.38048 0.0
H2775 H 0.46923 0.93485 0.3718 0.0
H2776 H 0.55943 0.93127 0.35442 0.0
H2777 H 0.52866 0.86143 0.38616 0.0
H2778 H 0.51155 0.87437 0.37343 0.0
H2779 H 0.51507 0.88771 0.38942 0.0
C2780 C 0.4936 0.91806 0.34264 0.0
C2781 C 0.47719 0.92679 0.35123 0.0
C2782 C 0.51475 0.91218 0.34763 0.0
C2783 C 0.51952 0.9144 0.36133 0.0
C2784 C 0.50297 0.92293 0.36991 0.0
H2785 H 0.63486 0.88364 0.41135 0.0
H2786 H 0.60005 0.89918 0.4022 0.0
C2787 C 0.48191 0.9288 0.36493 0.0
C2788 C 0.54168 0.90755 0.36671 0.0
H2789 H 0.56667 0.87206 0.38902 0.0
C2790 C 0.56105 0.91826 0.36193 0.0
C2791 C 0.54374 0.89058 0.37654 0.0
C2792 C 0.52369 0.87769 0.38161 0.0
C2793 C 0.58241 0.91262 0.36685 0.0
C2794 C 0.58442 0.89574 0.37671 0.0
C2795 C 0.56505 0.88511 0.38152 0.0
C2796 C 0.60646 0.88825 0.38193 0.0
C2797 C 0.60266 0.92495 0.36161 0.0
C2798 C 0.62164 0.87705 0.37355 0.0
C2799 C 0.64147 0.86804 0.37876 0.0
C2800 C 0.64649 0.87008 0.39245 0.0
C2801 C 0.63153 0.88185 0.40076 0.0
C2802 C 0.61163 0.89071 0.39555 0.0
H2803 H 0.59793 0.94074 0.35643 0.0
H2804 H 0.61443 0.92898 0.36987 0.0
H2805 H 0.61162 0.9141 0.35436 0.0
H2806 H 0.61782 0.87465 0.36306 0.0
H2807 H 0.6526 0.85904 0.3721 0.0
H2808 H 0.80301 0.72545 0.12205 0.0
H2809 H 0.81368 0.76275 0.13006 0.0
H2810 H 0.83971 0.77887 0.09099 0.0
H2811 H 0.82865 0.7416 0.08291 0.0
H2812 H 0.87036 0.78498 0.11242 0.0
H2813 H 0.78897 0.82652 0.12331 0.0
H2814 H 0.79197 0.79825 0.12929 0.0
H2815 H 0.79173 0.80369 0.11158 0.0
C2816 C 0.81016 0.73731 0.11505 0.0
C2817 C 0.8143 0.731 0.10175 0.0
C2818 C 0.81638 0.75856 0.11965 0.0
C2819 C 0.8272 0.77375 0.11107 0.0
C2820 C 0.83117 0.76752 0.09773 0.0
H2821 H 0.89752 0.89989 0.1233 0.0
H2822 H 0.88048 0.8661 0.11398 0.0
C2823 C 0.82483 0.74629 0.09312 0.0
C2824 C 0.83637 0.79514 0.11636 0.0
H2825 H 0.82164 0.84476 0.131 0.0
C2826 C 0.85971 0.79813 0.11639 0.0
C2827 C 0.82249 0.81218 0.12165 0.0
C2828 C 0.79736 0.8102 0.12142 0.0
C2829 C 0.86954 0.81752 0.12178 0.0
C2830 C 0.85561 0.83462 0.12702 0.0
C2831 C 0.83228 0.83164 0.12699 0.0
C2832 C 0.86497 0.85573 0.13254 0.0
C2833 C 0.89477 0.81927 0.12211 0.0
C2834 C 0.86116 0.86164 0.14595 0.0
C2835 C 0.87072 0.88112 0.1513 0.0
C2836 C 0.8842 0.89505 0.1433 0.0
C2837 C 0.88737 0.88944 0.12976 0.0
C2838 C 0.87777 0.87004 0.12443 0.0
H2839 H 0.90288 0.80258 0.12112 0.0
H2840 H 0.90048 0.82983 0.11363 0.0
H2841 H 0.90059 0.82716 0.13155 0.0
H2842 H 0.85118 0.85092 0.15236 0.0
H2843 H 0.86794 0.88499 0.16175 0.0
H2844 H 0.01485 0.08365 0.83283 0.0
H2845 H 0.97724 0.09454 0.8405 0.0
H2846 H 0.99388 0.07281 0.88045 0.0
H2847 H 0.03142 0.06201 0.87278 0.0
H2848 H 0.95034 0.05914 0.87144 0.0
H2849 H 0.96546 0.15018 0.86399 0.0
H2850 H 0.9705 0.13291 0.84957 0.0
H2851 H 0.98788 0.12985 0.86413 0.0
C2852 C 0.0103 0.08103 0.8432 0.0
C2853 C 0.02566 0.0714 0.85215 0.0
C2854 C 0.98893 0.08733 0.84759 0.0
C2855 C 0.98283 0.0846 0.86106 0.0
C2856 C 0.9982 0.07496 0.87 0.0
H2857 H 0.86853 0.11774 0.91115 0.0
H2858 H 0.90288 0.10182 0.90171 0.0
C2859 C 0.01954 0.06866 0.86561 0.0
C2860 C 0.9607 0.09242 0.86597 0.0
H2861 H 0.92908 0.13947 0.8707 0.0
C2862 C 0.94565 0.07667 0.87128 0.0
C2863 C 0.95466 0.11535 0.86577 0.0
C2864 C 0.9705 0.13313 0.86067 0.0
C2865 C 0.92458 0.08318 0.87623 0.0
C2866 C 0.91861 0.10614 0.87612 0.0
C2867 C 0.93364 0.12187 0.87075 0.0
C2868 C 0.89703 0.1144 0.88169 0.0
C2869 C 0.9088 0.06536 0.88131 0.0
C2870 C 0.88241 0.127 0.87365 0.0
C2871 C 0.86289 0.13628 0.87905 0.0
C2872 C 0.8576 0.13323 0.89264 0.0
C2873 C 0.87204 0.12027 0.90063 0.0
C2874 C 0.89163 0.11104 0.89522 0.0
H2875 H 0.91305 0.04858 0.8772 0.0
H2876 H 0.91009 0.0644 0.89237 0.0
H2877 H 0.89116 0.06934 0.87867 0.0
H2878 H 0.88627 0.12989 0.8632 0.0
H2879 H 0.85215 0.14619 0.87261 0.0
H2880 H 0.80955 0.78079 0.62259 0.0
H2881 H 0.82015 0.74352 0.6308 0.0
H2882 H 0.83949 0.72436 0.59083 0.0
H2883 H 0.82884 0.76173 0.58261 0.0
H2884 H 0.80591 0.69956 0.62322 0.0
H2885 H 0.89641 0.71395 0.61336 0.0
H2886 H 0.87611 0.73639 0.61338 0.0
H2887 H 0.87834 0.71803 0.59919 0.0
C2888 C 0.81561 0.76841 0.61553 0.0
C2889 C 0.81783 0.77377 0.60193 0.0
C2890 C 0.82178 0.74722 0.62023 0.0
C2891 C 0.83075 0.73124 0.61144 0.0
C2892 C 0.83281 0.73653 0.5978 0.0
H2893 H 0.89356 0.60181 0.62405 0.0
H2894 H 0.87614 0.63521 0.61448 0.0
C2895 C 0.82666 0.75777 0.59311 0.0
C2896 C 0.83881 0.70941 0.61668 0.0
H2897 H 0.88609 0.67801 0.62103 0.0
C2898 C 0.8234 0.69479 0.62272 0.0
C2899 C 0.8617 0.70332 0.6161 0.0
C2900 C 0.87918 0.71878 0.61027 0.0
C2901 C 0.8302 0.674 0.62797 0.0
C2902 C 0.85312 0.66794 0.62743 0.0
C2903 C 0.86851 0.68261 0.62139 0.0
C2904 C 0.86174 0.64661 0.63314 0.0
C2905 C 0.8127 0.65859 0.6338 0.0
C2906 C 0.85929 0.64175 0.64682 0.0
C2907 C 0.86914 0.62253 0.65233 0.0
C2908 C 0.88185 0.60798 0.64427 0.0
C2909 C 0.8839 0.61268 0.63054 0.0
C2910 C 0.87396 0.63178 0.62505 0.0
H2911 H 0.79567 0.66266 0.63001 0.0
H2912 H 0.81647 0.64079 0.63145 0.0
H2913 H 0.8125 0.66054 0.64484 0.0
H2914 H 0.85038 0.65319 0.65334 0.0
H2915 H 0.8674 0.61946 0.66295 0.0
H2916 H 0.63409 0.61916 0.91152 0.0
H2917 H 0.59987 0.60247 0.90231 0.0
H2918 H 0.61702 0.62757 0.86319 0.0
H2919 H 0.6512 0.64434 0.87229 0.0
H2920 H 0.56573 0.62871 0.8889 0.0
H2921 H 0.59942 0.56065 0.85671 0.0
H2922 H 0.61534 0.5729 0.87024 0.0
H2923 H 0.61238 0.58766 0.85468 0.0
C2924 C 0.63075 0.62085 0.90092 0.0
C2925 C 0.64534 0.6331 0.89264 0.0
C2926 C 0.61119 0.61132 0.89568 0.0
C2927 C 0.60604 0.6136 0.88205 0.0
C2928 C 0.62087 0.62531 0.87369 0.0
H2929 H 0.49109 0.58259 0.83187 0.0
H2930 H 0.52796 0.59368 0.84073 0.0
C2931 C 0.64033 0.63498 0.87893 0.0
C2932 C 0.5843 0.6054 0.87679 0.0
H2933 H 0.56066 0.56889 0.85456 0.0
C2934 C 0.56459 0.61553 0.88146 0.0
C2935 C 0.58293 0.58835 0.867 0.0
C2936 C 0.6036 0.57658 0.8619 0.0
C2937 C 0.54351 0.60939 0.87642 0.0
C2938 C 0.54207 0.59225 0.86666 0.0
C2939 C 0.56181 0.58203 0.86202 0.0
C2940 C 0.5202 0.58475 0.8612 0.0
C2941 C 0.52303 0.62177 0.88133 0.0
C2942 C 0.50377 0.57589 0.86974 0.0
C2943 C 0.48286 0.56964 0.8647 0.0
C2944 C 0.47822 0.57158 0.851 0.0
C2945 C 0.49454 0.58054 0.84243 0.0
C2946 C 0.51552 0.58682 0.84748 0.0
H2947 H 0.52748 0.6382 0.88583 0.0
H2948 H 0.51093 0.62469 0.87306 0.0
H2949 H 0.51457 0.6116 0.88913 0.0
H2950 H 0.50709 0.57387 0.88032 0.0
H2951 H 0.47023 0.56341 0.87155 0.0
H2952 H 0.63462 0.38289 0.16182 0.0
H2953 H 0.65102 0.34888 0.15222 0.0
H2954 H 0.6248 0.36684 0.11347 0.0
H2955 H 0.60797 0.40057 0.12303 0.0
H2956 H 0.61486 0.32399 0.1201 0.0
H2957 H 0.70539 0.33921 0.12869 0.0
H2958 H 0.6888 0.34149 0.1436 0.0
H2959 H 0.68465 0.36112 0.13016 0.0
C2960 C 0.63261 0.37975 0.15122 0.0
C2961 C 0.61999 0.39443 0.14319 0.0
C2962 C 0.64212 0.36036 0.14572 0.0
C2963 C 0.63941 0.35543 0.13207 0.0
C2964 C 0.62719 0.37032 0.12401 0.0
H2965 H 0.67183 0.23908 0.0823 0.0
H2966 H 0.66112 0.27663 0.09018 0.0
C2967 C 0.61759 0.38962 0.12949 0.0
C2968 C 0.6479 0.33403 0.12638 0.0
H2969 H 0.69497 0.30216 0.12226 0.0
C2970 C 0.63243 0.31933 0.12045 0.0
C2971 C 0.67081 0.3279 0.12688 0.0
C2972 C 0.68842 0.34334 0.13256 0.0
C2973 C 0.63912 0.29849 0.11529 0.0
C2974 C 0.66199 0.2923 0.11588 0.0
C2975 C 0.67749 0.30699 0.12176 0.0
C2976 C 0.66995 0.2703 0.11084 0.0
C2977 C 0.62155 0.28299 0.1096 0.0
C2978 C 0.67897 0.25454 0.11977 0.0
C2979 C 0.68517 0.23325 0.11527 0.0
C2980 C 0.68295 0.22754 0.10171 0.0
C2981 C 0.67403 0.24331 0.09276 0.0
C2982 C 0.66784 0.26464 0.09726 0.0
H2983 H 0.60435 0.28799 0.11265 0.0
H2984 H 0.62239 0.28348 0.09852 0.0
H2985 H 0.62453 0.26544 0.11286 0.0
H2986 H 0.68064 0.25851 0.1303 0.0
H2987 H 0.69128 0.22106 0.12243 0.0
H2988 H 0.86648 0.38445 0.40988 0.0
H2989 H 0.90053 0.40005 0.39988 0.0
H2990 H 0.8812 0.37342 0.36147 0.0
H2991 H 0.84741 0.3574 0.37145 0.0
H2992 H 0.92403 0.36286 0.36774 0.0
H2993 H 0.91064 0.45374 0.37593 0.0
H2994 H 0.90838 0.43754 0.391 0.0
H2995 H 0.88839 0.43344 0.37774 0.0
C2996 C 0.86931 0.38221 0.39927 0.0
C2997 C 0.85423 0.36969 0.39146 0.0
C2998 C 0.88874 0.39124 0.39354 0.0
C2999 C 0.89331 0.38817 0.37987 0.0
C3000 C 0.87801 0.37608 0.37202 0.0
H3001 H 0.0108 0.41827 0.33006 0.0
H3002 H 0.973 0.40783 0.3377 0.0
C3003 C 0.85867 0.36696 0.37774 0.0
C3004 C 0.91473 0.39616 0.37395 0.0
H3005 H 0.94752 0.44248 0.3696 0.0
C3006 C 0.92905 0.38033 0.36801 0.0
C3007 C 0.92132 0.41894 0.37433 0.0
C3008 C 0.90629 0.43694 0.37998 0.0
C3009 C 0.94999 0.38654 0.36277 0.0
C3010 C 0.95669 0.40926 0.36331 0.0
C3011 C 0.94232 0.42511 0.36914 0.0
C3012 C 0.97896 0.4167 0.35839 0.0
C3013 C 0.96511 0.3686 0.35711 0.0
C3014 C 0.99462 0.4256 0.36742 0.0
C3015 C 0.01603 0.43163 0.36305 0.0
C3016 C 0.022 0.42937 0.34954 0.0
C3017 C 0.00639 0.42048 0.34049 0.0
C3018 C 0.98491 0.41444 0.34485 0.0
H3019 H 0.95967 0.35152 0.36013 0.0
H3020 H 0.96473 0.36948 0.34602 0.0
H3021 H 0.9827 0.37114 0.36041 0.0
H3022 H 0.99044 0.4274 0.37791 0.0
H3023 H 0.02808 0.43773 0.3703 0.0
H3024 H 0.89734 0.39588 0.88094 0.0
H3025 H 0.88003 0.3621 0.89012 0.0
H3026 H 0.85107 0.34734 0.85159 0.0
H3027 H 0.86807 0.38139 0.84235 0.0
H3028 H 0.82129 0.34105 0.87274 0.0
H3029 H 0.90225 0.29856 0.88297 0.0
H3030 H 0.8998 0.32573 0.89053 0.0
H3031 H 0.90019 0.32326 0.87261 0.0
C3032 C 0.8872 0.38552 0.87441 0.0
C3033 C 0.8842 0.39125 0.86088 0.0
C3034 C 0.87745 0.36612 0.87966 0.0
C3035 C 0.86467 0.35193 0.87147 0.0
C3036 C 0.86103 0.35796 0.85807 0.0
H3037 H 0.80193 0.22174 0.88135 0.0
H3038 H 0.81287 0.25905 0.87345 0.0
C3039 C 0.87073 0.37743 0.8528 0.0
C3040 C 0.85517 0.33079 0.8769 0.0
H3041 H 0.86955 0.28096 0.89142 0.0
C3042 C 0.83183 0.32786 0.87677 0.0
C3043 C 0.86896 0.3136 0.88216 0.0
C3044 C 0.8942 0.31528 0.88199 0.0
C3045 C 0.8219 0.30836 0.88198 0.0
C3046 C 0.83565 0.29123 0.8873 0.0
C3047 C 0.85899 0.29417 0.88742 0.0
C3048 C 0.82633 0.26983 0.8925 0.0
C3049 C 0.79676 0.30646 0.88206 0.0
C3050 C 0.83018 0.26345 0.90583 0.0
C3051 C 0.82372 0.24222 0.91037 0.0
C3052 C 0.81316 0.22705 0.90169 0.0
C3053 C 0.80912 0.2335 0.88839 0.0
C3054 C 0.81549 0.25476 0.88386 0.0
H3055 H 0.78845 0.32283 0.88017 0.0
H3056 H 0.79146 0.2946 0.87412 0.0
H3057 H 0.79096 0.29987 0.89184 0.0
H3058 H 0.83873 0.27471 0.91263 0.0
H3059 H 0.82745 0.23742 0.92058 0.0
H3060 H 0.01225 0.57758 0.17079 0.0
H3061 H 0.97508 0.58976 0.16309 0.0
H3062 H 0.98953 0.56387 0.12376 0.0
H3063 H 0.02675 0.5521 0.13139 0.0
H3064 H 0.96908 0.62087 0.1419 0.0
H3065 H 0.92539 0.54069 0.13098 0.0
H3066 H 0.94866 0.54272 0.14246 0.0
H3067 H 0.95353 0.54303 0.1247 0.0
C3068 C 0.00721 0.57404 0.1606 0.0
C3069 C 0.02201 0.56323 0.1518 0.0
C3070 C 0.98604 0.58102 0.15621 0.0
C3071 C 0.97937 0.57742 0.14291 0.0
C3072 C 0.99405 0.56632 0.13415 0.0
H3073 H 0.86915 0.62054 0.09247 0.0
H3074 H 0.90287 0.60338 0.10202 0.0
C3075 C 0.01525 0.55946 0.13853 0.0
C3076 C 0.95807 0.5872 0.13785 0.0
H3077 H 0.90796 0.57387 0.12333 0.0
C3078 C 0.95563 0.6106 0.13794 0.0
C3079 C 0.94062 0.57381 0.13259 0.0
C3080 C 0.94198 0.54863 0.13272 0.0
C3081 C 0.93641 0.62098 0.13266 0.0
C3082 C 0.91896 0.60754 0.12738 0.0
C3083 C 0.92136 0.58414 0.12736 0.0
C3084 C 0.89815 0.61747 0.12176 0.0
C3085 C 0.93528 0.64625 0.13242 0.0
C3086 C 0.88403 0.63068 0.12976 0.0
C3087 C 0.8648 0.64053 0.12433 0.0
C3088 C 0.85919 0.63722 0.11081 0.0
C3089 C 0.87302 0.62346 0.10291 0.0
C3090 C 0.89229 0.61365 0.10835 0.0
H3091 H 0.95214 0.65394 0.13349 0.0
H3092 H 0.92761 0.65235 0.12297 0.0
H3093 H 0.92477 0.65212 0.14088 0.0
H3094 H 0.88792 0.63342 0.14021 0.0
H3095 H 0.85443 0.65091 0.13071 0.0
H3096 H 0.60609 0.60789 0.38022 0.0
H3097 H 0.62383 0.64136 0.3895 0.0
H3098 H 0.65315 0.65598 0.35105 0.0
H3099 H 0.63572 0.62222 0.34171 0.0
H3100 H 0.68286 0.66198 0.37228 0.0
H3101 H 0.60211 0.70505 0.38227 0.0
H3102 H 0.60431 0.67785 0.38984 0.0
H3103 H 0.60407 0.68035 0.37192 0.0
C3104 C 0.61641 0.61814 0.37374 0.0
C3105 C 0.61937 0.61249 0.3602 0.0
C3106 C 0.62641 0.63736 0.37904 0.0
C3107 C 0.63939 0.65143 0.37089 0.0
C3108 C 0.64304 0.64543 0.35749 0.0
H3109 H 0.70222 0.78144 0.38063 0.0
H3110 H 0.69135 0.74406 0.3728 0.0
C3111 C 0.63309 0.62614 0.35217 0.0
C3112 C 0.64902 0.67248 0.37634 0.0
H3113 H 0.63488 0.72243 0.39077 0.0
C3114 C 0.67238 0.67525 0.37628 0.0
C3115 C 0.6353 0.68977 0.38156 0.0
C3116 C 0.61005 0.68827 0.38131 0.0
C3117 C 0.6824 0.69469 0.38148 0.0
C3118 C 0.66873 0.71191 0.38675 0.0
C3119 C 0.64536 0.70914 0.38682 0.0
C3120 C 0.67813 0.73327 0.39191 0.0
C3121 C 0.70755 0.69647 0.3816 0.0
C3122 C 0.67442 0.73962 0.40526 0.0
C3123 C 0.68087 0.76087 0.40976 0.0
C3124 C 0.69125 0.77608 0.40102 0.0
C3125 C 0.69517 0.76965 0.38771 0.0
C3126 C 0.68884 0.74835 0.38322 0.0
H3127 H 0.71578 0.68008 0.37968 0.0
H3128 H 0.71292 0.70837 0.3737 0.0
H3129 H 0.71335 0.70295 0.3914 0.0
H3130 H 0.66597 0.72834 0.41209 0.0
H3131 H 0.67722 0.76566 0.41998 0.0
H3132 H 0.63181 0.38716 0.5902 0.0
H3133 H 0.59716 0.40367 0.59896 0.0
H3134 H 0.61403 0.38043 0.63853 0.0
H3135 H 0.64862 0.36387 0.62989 0.0
H3136 H 0.56351 0.37714 0.61217 0.0
H3137 H 0.59412 0.44659 0.64432 0.0
H3138 H 0.61092 0.43441 0.63115 0.0
H3139 H 0.6078 0.42007 0.64684 0.0
C3140 C 0.62835 0.38592 0.60081 0.0
C3141 C 0.64294 0.37417 0.60935 0.0
C3142 C 0.60853 0.39533 0.60579 0.0
C3143 C 0.60314 0.39345 0.61941 0.0
C3144 C 0.61805 0.3824 0.62803 0.0
H3145 H 0.48697 0.42033 0.66915 0.0
H3146 H 0.52415 0.41049 0.66024 0.0
C3147 C 0.63776 0.37284 0.62305 0.0
C3148 C 0.58102 0.40111 0.62439 0.0
H3149 H 0.55571 0.43664 0.64652 0.0
C3150 C 0.56176 0.39029 0.61959 0.0
C3151 C 0.57886 0.4181 0.63416 0.0
C3152 C 0.59898 0.43064 0.63937 0.0
C3153 C 0.54039 0.39562 0.62453 0.0
C3154 C 0.53818 0.41262 0.63431 0.0
C3155 C 0.55744 0.4236 0.63904 0.0
C3156 C 0.516 0.41915 0.63977 0.0
C3157 C 0.52046 0.38248 0.61952 0.0
C3158 C 0.49921 0.42739 0.63125 0.0
C3159 C 0.47812 0.43293 0.63632 0.0
C3160 C 0.47364 0.43089 0.65004 0.0
C3161 C 0.49029 0.42245 0.65857 0.0
C3162 C 0.51145 0.41689 0.6535 0.0
H3163 H 0.5256 0.36628 0.61497 0.0
H3164 H 0.50843 0.379 0.62773 0.0
H3165 H 0.51167 0.39238 0.61173 0.0
H3166 H 0.50241 0.42955 0.62067 0.0
H3167 H 0.46526 0.43877 0.62951 0.0
H3168 H 0.08548 0.37291 0.36605 0.0
H3169 H 0.1039 0.33953 0.37494 0.0
H3170 H 0.16824 0.36627 0.36316 0.0
H3171 H 0.14938 0.39873 0.35309 0.0
H3172 H 0.16961 0.32583 0.35849 0.0
H3173 H 0.13351 0.33046 0.40901 0.0
H3174 H 0.11114 0.32826 0.39718 0.0
H3175 H 0.12932 0.3525 0.39696 0.0
C3176 C 0.10357 0.3716 0.36541 0.0
C3177 C 0.1161 0.38834 0.359 0.0
C3178 C 0.11416 0.35264 0.37065 0.0
C3179 C 0.13764 0.35056 0.37022 0.0
C3180 C 0.15015 0.36741 0.36375 0.0
H3181 H 0.18989 0.24081 0.4194 0.0
H3182 H 0.18069 0.27811 0.41084 0.0
C3183 C 0.13943 0.38599 0.35802 0.0
C3184 C 0.14894 0.33036 0.37595 0.0
H3185 H 0.1478 0.29434 0.40243 0.0
C3186 C 0.16515 0.31922 0.36824 0.0
C3187 C 0.14369 0.32178 0.3888 0.0
C3188 C 0.12867 0.33408 0.39849 0.0
C3189 C 0.17577 0.29961 0.37279 0.0
C3190 C 0.16902 0.28984 0.38512 0.0
C3191 C 0.15312 0.30135 0.39295 0.0
C3192 C 0.17766 0.26769 0.39008 0.0
C3193 C 0.19443 0.29021 0.36431 0.0
C3194 C 0.17973 0.24917 0.38143 0.0
C3195 C 0.18672 0.2283 0.38626 0.0
C3196 C 0.19052 0.22509 0.39995 0.0
C3197 C 0.18766 0.24312 0.40874 0.0
C3198 C 0.18206 0.26438 0.40381 0.0
H3199 H 0.20381 0.30384 0.35921 0.0
H3200 H 0.20643 0.28036 0.37032 0.0
H3201 H 0.18719 0.27935 0.3564 0.0
H3202 H 0.1753 0.25052 0.37098 0.0
H3203 H 0.18805 0.21434 0.37937 0.0
H3204 H 0.36968 0.38784 0.09052 0.0
H3205 H 0.40385 0.40528 0.09933 0.0
H3206 H 0.39095 0.37604 0.13801 0.0
H3207 H 0.35676 0.35873 0.12936 0.0
H3208 H 0.40468 0.42169 0.13883 0.0
H3209 H 0.46142 0.36934 0.10769 0.0
H3210 H 0.44021 0.38449 0.09867 0.0
H3211 H 0.43219 0.36263 0.11007 0.0
C3212 C 0.37402 0.38529 0.10093 0.0
C3213 C 0.36058 0.3718 0.10922 0.0
C3214 C 0.39361 0.39514 0.10592 0.0
C3215 C 0.40011 0.39162 0.11926 0.0
C3216 C 0.3863 0.37885 0.12767 0.0
H3217 H 0.51349 0.42469 0.1702 0.0
H3218 H 0.47653 0.41428 0.16136 0.0
C3219 C 0.36676 0.36897 0.1227 0.0
C3220 C 0.42151 0.40082 0.12444 0.0
H3221 H 0.47835 0.39704 0.12113 0.0
C3222 C 0.42081 0.41634 0.13497 0.0
C3223 C 0.4425 0.39379 0.11938 0.0
C3224 C 0.44427 0.37651 0.1084 0.0
C3225 C 0.44057 0.42521 0.1405 0.0
C3226 C 0.46161 0.41805 0.13553 0.0
C3227 C 0.46225 0.40261 0.12492 0.0
C3228 C 0.48323 0.426 0.14124 0.0
C3229 C 0.4387 0.44264 0.15133 0.0
C3230 C 0.4995 0.4356 0.13285 0.0
C3231 C 0.52064 0.4412 0.13786 0.0
C3232 C 0.5258 0.43774 0.1514 0.0
C3233 C 0.50962 0.42811 0.15981 0.0
C3234 C 0.48848 0.42233 0.15478 0.0
H3235 H 0.42184 0.45055 0.15153 0.0
H3236 H 0.44167 0.4347 0.16121 0.0
H3237 H 0.45142 0.45587 0.14981 0.0
H3238 H 0.49599 0.43832 0.12234 0.0
H3239 H 0.53318 0.44769 0.13105 0.0
H3240 H 0.30364 0.7802 0.8808 0.0
H3241 H 0.31358 0.74321 0.87205 0.0
H3242 H 0.33836 0.7241 0.91097 0.0
H3243 H 0.32735 0.76086 0.91986 0.0
H3244 H 0.35504 0.72639 0.87062 0.0
H3245 H 0.30309 0.6688 0.90124 0.0
H3246 H 0.29742 0.69838 0.89983 0.0
H3247 H 0.31902 0.68854 0.91092 0.0
C3248 C 0.31042 0.76777 0.88759 0.0
C3249 C 0.31391 0.77296 0.90112 0.0
C3250 C 0.31635 0.74674 0.88255 0.0
C3251 C 0.32633 0.73063 0.8909 0.0
C3252 C 0.33003 0.73592 0.90443 0.0
H3253 H 0.39585 0.60553 0.8783 0.0
H3254 H 0.37802 0.6393 0.88716 0.0
C3255 C 0.32391 0.75695 0.90949 0.0
C3256 C 0.33462 0.70919 0.88513 0.0
H3257 H 0.33214 0.65219 0.88836 0.0
C3258 C 0.34985 0.71017 0.87442 0.0
C3259 C 0.32796 0.68799 0.89011 0.0
C3260 C 0.31083 0.68574 0.9011 0.0
C3261 C 0.35893 0.69063 0.86878 0.0
C3262 C 0.35239 0.66948 0.87384 0.0
C3263 C 0.3371 0.66844 0.88449 0.0
C3264 C 0.36189 0.6483 0.86854 0.0
C3265 C 0.37597 0.69279 0.85769 0.0
C3266 C 0.35826 0.64185 0.85521 0.0
C3267 C 0.36841 0.6225 0.8501 0.0
C3268 C 0.38233 0.60927 0.85826 0.0
C3269 C 0.38528 0.61539 0.87173 0.0
C3270 C 0.3751 0.63468 0.87683 0.0
H3271 H 0.38281 0.71006 0.85697 0.0
H3272 H 0.3901 0.68094 0.85923 0.0
H3273 H 0.36788 0.68866 0.848 0.0
H3274 H 0.34779 0.65194 0.84871 0.0
H3275 H 0.36575 0.61819 0.8397 0.0
H3276 H 0.989 0.57925 0.67256 0.0
H3277 H 0.0265 0.59024 0.66473 0.0
H3278 H 0.0085 0.57122 0.62452 0.0
H3279 H 0.9711 0.56029 0.63234 0.0
H3280 H 0.05231 0.5571 0.63249 0.0
H3281 H 0.03722 0.64746 0.64251 0.0
H3282 H 0.0329 0.62916 0.65655 0.0
H3283 H 0.01488 0.62708 0.64221 0.0
C3284 C 0.99325 0.57721 0.66209 0.0
C3285 C 0.97753 0.56837 0.65309 0.0
C3286 C 0.01455 0.58356 0.65762 0.0
C3287 C 0.02021 0.58169 0.64403 0.0
C3288 C 0.00452 0.57271 0.63505 0.0
H3289 H 0.13158 0.61859 0.59272 0.0
H3290 H 0.09804 0.60167 0.60254 0.0
C3291 C 0.98326 0.56635 0.63953 0.0
C3292 C 0.04212 0.58991 0.63901 0.0
H3293 H 0.07324 0.63742 0.63487 0.0
C3294 C 0.05695 0.57462 0.63305 0.0
C3295 C 0.04807 0.61283 0.63969 0.0
C3296 C 0.0324 0.63017 0.64547 0.0
C3297 C 0.07775 0.58158 0.6279 0.0
C3298 C 0.08361 0.60456 0.62846 0.0
C3299 C 0.06878 0.61981 0.63449 0.0
C3300 C 0.10478 0.61336 0.62264 0.0
C3301 C 0.09335 0.5642 0.62213 0.0
C3302 C 0.11961 0.62582 0.63061 0.0
C3303 C 0.13864 0.63572 0.62499 0.0
C3304 C 0.14323 0.6334 0.61126 0.0
C3305 C 0.12861 0.62055 0.60334 0.0
C3306 C 0.10949 0.61074 0.60896 0.0
H3307 H 0.08954 0.54718 0.62604 0.0
H3308 H 0.09129 0.56377 0.6111 0.0
H3309 H 0.11112 0.56821 0.62441 0.0
H3310 H 0.11628 0.62815 0.64117 0.0
H3311 H 0.14956 0.64552 0.63137 0.0
H3312 H 0.13249 0.6166 0.1604 0.0
H3313 H 0.14894 0.65076 0.15099 0.0
H3314 H 0.11879 0.63589 0.1128 0.0
H3315 H 0.10198 0.60198 0.12218 0.0
H3316 H 0.17806 0.65702 0.12981 0.0
H3317 H 0.09699 0.69944 0.11978 0.0
H3318 H 0.09912 0.67472 0.13011 0.0
H3319 H 0.09943 0.6723 0.11218 0.0
C3320 C 0.12942 0.62057 0.14999 0.0
C3321 C 0.11579 0.60666 0.14207 0.0
C3322 C 0.13881 0.6401 0.14463 0.0
C3323 C 0.13472 0.64613 0.13127 0.0
C3324 C 0.12172 0.63189 0.12323 0.0
H3325 H 0.17211 0.76128 0.08246 0.0
H3326 H 0.16067 0.72389 0.09017 0.0
C3327 C 0.11226 0.61241 0.12858 0.0
C3328 C 0.14414 0.66724 0.12574 0.0
H3329 H 0.12963 0.71716 0.11135 0.0
C3330 C 0.16747 0.67021 0.12581 0.0
C3331 C 0.1303 0.68443 0.12051 0.0
C3332 C 0.10506 0.68273 0.12073 0.0
C3333 C 0.17735 0.68976 0.12066 0.0
C3334 C 0.16356 0.70693 0.11542 0.0
C3335 C 0.14022 0.70393 0.11529 0.0
C3336 C 0.17284 0.72846 0.11038 0.0
C3337 C 0.20248 0.69173 0.12059 0.0
C3338 C 0.18359 0.74338 0.11914 0.0
C3339 C 0.19004 0.76471 0.11475 0.0
C3340 C 0.18619 0.77135 0.10147 0.0
C3341 C 0.17571 0.75633 0.09266 0.0
C3342 C 0.16914 0.73504 0.09707 0.0
H3343 H 0.21083 0.67533 0.12233 0.0
H3344 H 0.20828 0.69858 0.11088 0.0
H3345 H 0.20774 0.70339 0.12864 0.0
H3346 H 0.1861 0.73892 0.12954 0.0
H3347 H 0.19714 0.77635 0.1219 0.0
H3348 H 0.15313 0.36038 0.87268 0.0
H3349 H 0.11925 0.37728 0.86335 0.0
H3350 H 0.10177 0.4029 0.90232 0.0
H3351 H 0.13594 0.38642 0.91168 0.0
H3352 H 0.07676 0.36658 0.87034 0.0
H3353 H 0.09071 0.45731 0.87898 0.0
H3354 H 0.11299 0.43692 0.88023 0.0
H3355 H 0.09359 0.44063 0.89382 0.0
C3356 C 0.14228 0.36993 0.87924 0.0
C3357 C 0.14723 0.37207 0.89293 0.0
C3358 C 0.1229 0.37956 0.87388 0.0
C3359 C 0.10806 0.39157 0.88209 0.0
C3360 C 0.1132 0.39416 0.89572 0.0
H3361 H 0.9726 0.44125 0.87321 0.0
H3362 H 0.01034 0.43126 0.88094 0.0
C3363 C 0.13268 0.38461 0.90108 0.0
C3364 C 0.08641 0.39976 0.87657 0.0
H3365 H 0.05373 0.44633 0.87272 0.0
C3366 C 0.07183 0.38407 0.87074 0.0
C3367 C 0.07993 0.42256 0.87715 0.0
C3368 C 0.0952 0.44038 0.88277 0.0
C3369 C 0.0508 0.39046 0.86572 0.0
C3370 C 0.04427 0.41322 0.86637 0.0
C3371 C 0.05882 0.42893 0.87218 0.0
C3372 C 0.02209 0.42084 0.86143 0.0
C3373 C 0.03546 0.37266 0.86012 0.0
C3374 C 0.01633 0.41867 0.84787 0.0
C3375 C 0.99483 0.42447 0.84345 0.0
C3376 C 0.97901 0.43307 0.85247 0.0
C3377 C 0.98482 0.43537 0.86601 0.0
C3378 C 0.00628 0.42954 0.87043 0.0
H3379 H 0.04076 0.35554 0.86316 0.0
H3380 H 0.01792 0.37538 0.86347 0.0
H3381 H 0.03576 0.37349 0.84904 0.0
H3382 H 0.02836 0.41219 0.84074 0.0
H3383 H 0.99053 0.42222 0.83301 0.0
H3384 H 0.33259 0.23615 0.58348 0.0
H3385 H 0.34233 0.27325 0.59254 0.0
H3386 H 0.32186 0.25154 0.63186 0.0
H3387 H 0.3127 0.21447 0.62288 0.0
H3388 H 0.31575 0.30491 0.60608 0.0
H3389 H 0.38521 0.2743 0.63822 0.0
H3390 H 0.3728 0.2573 0.62526 0.0
H3391 H 0.35896 0.26043 0.64113 0.0
C3392 C 0.33014 0.23945 0.59403 0.0
C3393 C 0.32133 0.22284 0.60245 0.0
C3394 C 0.33564 0.26057 0.59919 0.0
C3395 C 0.33295 0.2651 0.61289 0.0
C3396 C 0.32434 0.24835 0.6213 0.0
H3397 H 0.36493 0.38053 0.66286 0.0
H3398 H 0.34836 0.34594 0.65404 0.0
C3399 C 0.31885 0.22731 0.61614 0.0
C3400 C 0.33942 0.28722 0.61845 0.0
H3401 H 0.3745 0.31225 0.64094 0.0
C3402 C 0.32862 0.30655 0.61368 0.0
C3403 C 0.3562 0.28929 0.62839 0.0
C3404 C 0.36913 0.26927 0.63348 0.0
C3405 C 0.33407 0.3279 0.61865 0.0
C3406 C 0.35087 0.32994 0.62856 0.0
C3407 C 0.3615 0.3106 0.63341 0.0
C3408 C 0.35858 0.35201 0.6336 0.0
C3409 C 0.32169 0.3481 0.61338 0.0
C3410 C 0.36965 0.36694 0.625 0.0
C3411 C 0.37922 0.38661 0.63001 0.0
C3412 C 0.3779 0.39173 0.64372 0.0
C3413 C 0.36615 0.37711 0.65224 0.0
C3414 C 0.35671 0.35734 0.64723 0.0
H3415 H 0.30571 0.34332 0.60844 0.0
H3416 H 0.31799 0.36013 0.62156 0.0
H3417 H 0.33233 0.35677 0.60589 0.0
H3418 H 0.37162 0.36297 0.6145 0.0
H3419 H 0.38819 0.39749 0.62319 0.0
H3420 H 0.51137 0.58533 0.33299 0.0
H3421 H 0.47412 0.59546 0.34169 0.0
H3422 H 0.49458 0.57485 0.38122 0.0
H3423 H 0.53179 0.56531 0.37261 0.0
H3424 H 0.44182 0.56924 0.35497 0.0
H3425 H 0.47222 0.63841 0.38733 0.0
H3426 H 0.48944 0.62584 0.37453 0.0
H3427 H 0.48584 0.61208 0.3904 0.0
C3428 C 0.50776 0.58293 0.34351 0.0
C3429 C 0.52407 0.57396 0.35209 0.0
C3430 C 0.48656 0.58866 0.34847 0.0
C3431 C 0.48163 0.58605 0.36213 0.0
C3432 C 0.49808 0.57728 0.37069 0.0
H3433 H 0.36589 0.61643 0.4119 0.0
H3434 H 0.40067 0.60068 0.40285 0.0
C3435 C 0.5192 0.57156 0.36574 0.0
C3436 C 0.45942 0.59274 0.36748 0.0
H3437 H 0.43419 0.62773 0.38994 0.0
C3438 C 0.44011 0.58209 0.36257 0.0
C3439 C 0.45726 0.60949 0.37743 0.0
C3440 C 0.47725 0.62228 0.38265 0.0
C3441 C 0.4187 0.58759 0.36746 0.0
C3442 C 0.41659 0.60428 0.37742 0.0
C3443 C 0.43589 0.61483 0.38237 0.0
C3444 C 0.39449 0.61172 0.38257 0.0
C3445 C 0.39853 0.57533 0.36207 0.0
C3446 C 0.37944 0.62302 0.37414 0.0
C3447 C 0.35964 0.63213 0.3793 0.0
C3448 C 0.35451 0.63011 0.39298 0.0
C3449 C 0.3693 0.6182 0.40132 0.0
C3450 C 0.38919 0.60922 0.39617 0.0
H3451 H 0.40333 0.55958 0.35688 0.0
H3452 H 0.3866 0.57126 0.37024 0.0
H3453 H 0.38972 0.58625 0.35477 0.0
H3454 H 0.38337 0.62546 0.36367 0.0
H3455 H 0.34862 0.64125 0.37261 0.0
loop_
_geom_bond_atom_site_label_1
_geom_bond_atom_site_label_2
_geom_bond_distance
_geom_bond_site_symmetry_2
_ccdc_geom_bond_type
Mn0 O5 2.095 . S
Mn0 O15 2.162 . S
Mn0 O16 2.297 . S
Mn0 O24 2.385 . S
Mn0 O25 2.209 . S
Mn0 O26 2.094 . S
Mn1 O6 2.121 . S
Mn1 N8 2.257 1_545 S
Mn1 N17 2.282 . S
Mn1 O25 2.215 . S
Mn1 O27 2.117 . S
C2 O24 1.234 . S
C2 O25 1.283 . S
C3 O15 1.281 . S
C3 O16 1.236 . S
C4 O26 1.240 . S
C4 O27 1.264 . S
O5 Mn0 2.095 . S
O5 C14 1.250 . S
O6 Mn1 2.121 . S
O6 C14 1.258 . S
C7 N8 1.326 . S
C7 C11 1.460 . S
C7 H13 0.929 . S
N8 Mn1 2.257 1_565 S
N8 C7 1.326 . S
N8 C12 1.362 . S
C9 C10 1.258 . S
C9 C12 1.431 . S
C9 C29 1.449 . S
C10 C9 1.258 . S
C10 C11 1.477 . S
C10 H30 0.931 . S
C11 C7 1.460 . S
C11 C10 1.477 . S
C11 H31 0.930 . S
C12 N8 1.362 . S
C12 C9 1.431 . S
C12 C22 1.476 1_565 S
H13 C7 0.929 . S
C14 O5 1.250 . S
C14 O6 1.258 . S
O15 Mn0 2.162 . S
O15 C3 1.281 . S
O16 Mn0 2.297 . S
O16 C3 1.236 . S
N17 Mn1 2.282 . S
N17 C18 1.328 . S
N17 C22 1.318 . S
C18 N17 1.328 . S
C18 C19 1.457 . S
C18 H23 0.929 . S
C19 C18 1.457 . S
C19 C20 1.291 . S
C19 H32 0.931 . S
C20 C19 1.291 . S
C20 C21 1.373 . S
C20 H33 0.929 . S
C21 C20 1.373 . S
C21 C22 1.396 . S
C21 C28 1.403 1_545 S
C22 C12 1.476 1_545 S
C22 N17 1.318 . S
C22 C21 1.396 . S
H23 C18 0.929 . S
O24 Mn0 2.385 . S
O24 C2 1.234 . S
O25 Mn0 2.209 . S
O25 Mn1 2.215 . S
O25 C2 1.283 . S
O26 Mn0 2.094 . S
O26 C4 1.240 . S
O27 Mn1 2.117 . S
O27 C4 1.264 . S
C28 C21 1.403 1_565 S
C28 C29 1.399 . S
C28 H34 0.929 . S
C29 C9 1.449 . S
C29 C28 1.399 . S
C29 H35 0.930 . S
H30 C10 0.931 . S
H31 C11 0.930 . S
H32 C19 0.931 . S
H33 C20 0.929 . S
H34 C28 0.929 . S
H35 C29 0.930 . S
Mn36 O41 2.095 . S
Mn36 O51 2.162 . S
Mn36 O52 2.297 . S
Mn36 O60 2.385 . S
Mn36 O61 2.209 . S
Mn36 O62 2.094 . S
Mn37 O42 2.121 . S
Mn37 N44 2.257 . S
Mn37 N53 2.282 . S
Mn37 O61 2.215 . S
Mn37 O63 2.117 . S
C38 O60 1.234 . S
C38 O61 1.283 . S
C39 O51 1.281 . S
C39 O52 1.236 . S
C40 O62 1.240 . S
C40 O63 1.264 . S
O41 Mn36 2.095 . S
O41 C50 1.250 . S
O42 Mn37 2.121 . S
O42 C50 1.258 . S
C43 N44 1.326 . S
C43 C47 1.460 . S
C43 H49 0.929 . S
N44 Mn37 2.257 . S
N44 C43 1.326 . S
N44 C48 1.362 . S
C45 C46 1.258 . S
C45 C48 1.431 . S
C45 C65 1.449 . S
C46 C45 1.258 . S
C46 C47 1.477 . S
C46 H66 0.931 . S
C47 C43 1.460 . S
C47 C46 1.477 . S
C47 H67 0.930 . S
C48 N44 1.362 . S
C48 C45 1.431 . S
C48 C58 1.476 . S
H49 C43 0.929 . S
C50 O41 1.250 . S
C50 O42 1.258 . S
O51 Mn36 2.162 . S
O51 C39 1.281 . S
O52 Mn36 2.297 . S
O52 C39 1.236 . S
N53 Mn37 2.282 . S
N53 C54 1.328 . S
N53 C58 1.318 . S
C54 N53 1.328 . S
C54 C55 1.457 . S
C54 H59 0.929 . S
C55 C54 1.457 . S
C55 C56 1.291 . S
C55 H68 0.931 . S
C56 C55 1.291 . S
C56 C57 1.373 . S
C56 H69 0.929 . S
C57 C56 1.373 . S
C57 C58 1.396 . S
C57 C64 1.403 . S
C58 C48 1.476 . S
C58 N53 1.318 . S
C58 C57 1.396 . S
H59 C54 0.929 . S
O60 Mn36 2.385 . S
O60 C38 1.234 . S
O61 Mn36 2.209 . S
O61 Mn37 2.215 . S
O61 C38 1.283 . S
O62 Mn36 2.094 . S
O62 C40 1.240 . S
O63 Mn37 2.117 . S
O63 C40 1.264 . S
C64 C57 1.403 . S
C64 C65 1.399 . S
C64 H70 0.929 . S
C65 C45 1.449 . S
C65 C64 1.399 . S
C65 H71 0.930 . S
H66 C46 0.931 . S
H67 C47 0.930 . S
H68 C55 0.931 . S
H69 C56 0.929 . S
H70 C64 0.929 . S
H71 C65 0.930 . S
Mn72 O77 2.095 . S
Mn72 O87 2.162 . S
Mn72 O88 2.297 . S
Mn72 O96 2.385 . S
Mn72 O97 2.209 . S
Mn72 O98 2.094 . S
Mn73 O78 2.121 . S
Mn73 N80 2.257 1_565 S
Mn73 N89 2.282 . S
Mn73 O97 2.215 . S
Mn73 O99 2.117 . S
C74 O96 1.234 . S
C74 O97 1.283 . S
C75 O87 1.281 . S
C75 O88 1.236 . S
C76 O98 1.240 . S
C76 O99 1.264 . S
O77 Mn72 2.095 . S
O77 C86 1.250 . S
O78 Mn73 2.121 . S
O78 C86 1.258 . S
C79 N80 1.326 . S
C79 C83 1.460 . S
C79 H85 0.929 . S
N80 Mn73 2.257 1_545 S
N80 C79 1.326 . S
N80 C84 1.362 . S
C81 C82 1.258 . S
C81 C84 1.431 . S
C81 C101 1.449 1_455 S
C82 C81 1.258 . S
C82 C83 1.477 . S
C82 H102 0.931 . S
C83 C79 1.460 . S
C83 C82 1.477 . S
C83 H103 0.930 . S
C84 N80 1.362 . S
C84 C81 1.431 . S
C84 C94 1.476 1_545 S
H85 C79 0.929 . S
C86 O77 1.250 . S
C86 O78 1.258 . S
O87 Mn72 2.162 . S
O87 C75 1.281 . S
O88 Mn72 2.297 . S
O88 C75 1.236 . S
N89 Mn73 2.282 . S
N89 C90 1.328 . S
N89 C94 1.318 . S
C90 N89 1.328 . S
C90 C91 1.457 . S
C90 H95 0.929 . S
C91 C90 1.457 . S
C91 C92 1.291 1_455 S
C91 H104 0.931 . S
C92 C91 1.291 1_655 S
C92 C93 1.356 1_655 S
C92 H105 0.929 . S
C93 C92 1.356 1_455 S
C93 C94 1.446 . S
C93 C100 1.373 1_465 S
C94 C84 1.476 1_565 S
C94 N89 1.318 . S
C94 C93 1.446 . S
H95 C90 0.929 . S
O96 Mn72 2.385 . S
O96 C74 1.234 . S
O97 Mn72 2.209 . S
O97 Mn73 2.215 . S
O97 C74 1.283 . S
O98 Mn72 2.094 . S
O98 C76 1.240 . S
O99 Mn73 2.117 . S
O99 C76 1.264 . S
C100 C93 1.373 1_645 S
C100 C101 1.399 . S
C100 H106 0.929 . S
C101 C81 1.449 1_655 S
C101 C100 1.399 . S
C101 H107 0.930 . S
H102 C82 0.931 . S
H103 C83 0.930 . S
H104 C91 0.931 . S
H105 C92 0.929 . S
H106 C100 0.929 . S
H107 C101 0.930 . S
Mn108 O113 2.095 . S
Mn108 O123 2.162 . S
Mn108 O124 2.297 . S
Mn108 O132 2.385 . S
Mn108 O133 2.209 . S
Mn108 O134 2.094 . S
Mn109 O114 2.121 . S
Mn109 N116 2.257 . S
Mn109 N125 2.282 . S
Mn109 O133 2.215 . S
Mn109 O135 2.117 . S
C110 O132 1.234 . S
C110 O133 1.283 . S
C111 O123 1.281 . S
C111 O124 1.236 . S
C112 O134 1.240 . S
C112 O135 1.264 . S
O113 Mn108 2.095 . S
O113 C122 1.250 . S
O114 Mn109 2.121 . S
O114 C122 1.258 . S
C115 N116 1.326 . S
C115 C119 1.460 . S
C115 H121 0.929 . S
N116 Mn109 2.257 . S
N116 C115 1.326 . S
N116 C120 1.362 . S
C117 C118 1.258 . S
C117 C120 1.431 . S
C117 C137 1.449 . S
C118 C117 1.258 . S
C118 C119 1.477 . S
C118 H138 0.931 . S
C119 C115 1.460 . S
C119 C118 1.477 . S
C119 H139 0.930 . S
C120 N116 1.362 . S
C120 C117 1.431 . S
C120 C130 1.476 . S
H121 C115 0.929 . S
C122 O113 1.250 . S
C122 O114 1.258 . S
O123 Mn108 2.162 . S
O123 C111 1.281 . S
O124 Mn108 2.297 . S
O124 C111 1.236 . S
N125 Mn109 2.282 . S
N125 C126 1.328 . S
N125 C130 1.318 . S
C126 N125 1.328 . S
C126 C127 1.457 . S
C126 H131 0.929 . S
C127 C126 1.457 . S
C127 C128 1.291 . S
C127 H140 0.931 . S
C128 C127 1.291 . S
C128 C129 1.373 . S
C128 H141 0.929 . S
C129 C128 1.373 . S
C129 C130 1.396 . S
C129 C136 1.403 . S
C130 C120 1.476 . S
C130 N125 1.318 . S
C130 C129 1.396 . S
H131 C126 0.929 . S
O132 Mn108 2.385 . S
O132 C110 1.234 . S
O133 Mn108 2.209 . S
O133 Mn109 2.215 . S
O133 C110 1.283 . S
O134 Mn108 2.094 . S
O134 C112 1.240 . S
O135 Mn109 2.117 . S
O135 C112 1.264 . S
C136 C129 1.403 . S
C136 C137 1.399 . S
C136 H142 0.929 . S
C137 C117 1.449 . S
C137 C136 1.399 . S
C137 H143 0.930 . S
H138 C118 0.931 . S
H139 C119 0.930 . S
H140 C127 0.931 . S
H141 C128 0.929 . S
H142 C136 0.929 . S
H143 C137 0.930 . S
Mn144 O149 2.095 . S
Mn144 O159 2.162 . S
Mn144 O160 2.297 . S
Mn144 O168 2.385 . S
Mn144 O169 2.209 . S
Mn144 O170 2.094 . S
Mn145 O150 2.121 . S
Mn145 N152 2.257 1_565 S
Mn145 N161 2.282 . S
Mn145 O169 2.215 . S
Mn145 O171 2.117 . S
C146 O168 1.234 . S
C146 O169 1.283 . S
C147 O159 1.281 . S
C147 O160 1.236 . S
C148 O170 1.240 . S
C148 O171 1.264 . S
O149 Mn144 2.095 . S
O149 C158 1.250 . S
O150 Mn145 2.121 . S
O150 C158 1.258 . S
C151 N152 1.326 . S
C151 C155 1.460 . S
C151 H157 0.929 . S
N152 Mn145 2.257 1_545 S
N152 C151 1.326 . S
N152 C156 1.362 . S
C153 C154 1.258 . S
C153 C156 1.431 . S
C153 C173 1.449 . S
C154 C153 1.258 . S
C154 C155 1.477 . S
C154 H174 0.931 . S
C155 C151 1.460 . S
C155 C154 1.477 . S
C155 H175 0.930 . S
C156 N152 1.362 . S
C156 C153 1.431 . S
C156 C166 1.476 1_545 S
H157 C151 0.929 . S
C158 O149 1.250 . S
C158 O150 1.258 . S
O159 Mn144 2.162 . S
O159 C147 1.281 . S
O160 Mn144 2.297 . S
O160 C147 1.236 . S
N161 Mn145 2.282 . S
N161 C162 1.328 . S
N161 C166 1.318 . S
C162 N161 1.328 . S
C162 C163 1.457 . S
C162 H167 0.929 . S
C163 C162 1.457 . S
C163 C164 1.291 . S
C163 H176 0.931 . S
C164 C163 1.291 . S
C164 C165 1.373 . S
C164 H177 0.929 . S
C165 C164 1.373 . S
C165 C166 1.396 . S
C165 C172 1.403 1_565 S
C166 C156 1.476 1_565 S
C166 N161 1.318 . S
C166 C165 1.396 . S
H167 C162 0.929 . S
O168 Mn144 2.385 . S
O168 C146 1.234 . S
O169 Mn144 2.209 . S
O169 Mn145 2.215 . S
O169 C146 1.283 . S
O170 Mn144 2.094 . S
O170 C148 1.240 . S
O171 Mn145 2.117 . S
O171 C148 1.264 . S
C172 C165 1.403 1_545 S
C172 C173 1.399 . S
C172 H178 0.929 . S
C173 C153 1.449 . S
C173 C172 1.399 . S
C173 H179 0.930 . S
H174 C154 0.931 . S
H175 C155 0.930 . S
H176 C163 0.931 . S
H177 C164 0.929 . S
H178 C172 0.929 . S
H179 C173 0.930 . S
Mn180 O185 2.095 . S
Mn180 O195 2.162 . S
Mn180 O196 2.297 . S
Mn180 O204 2.385 . S
Mn180 O205 2.209 . S
Mn180 O206 2.094 . S
Mn181 O186 2.121 . S
Mn181 N188 2.257 . S
Mn181 N197 2.282 . S
Mn181 O205 2.215 . S
Mn181 O207 2.117 . S
C182 O204 1.234 . S
C182 O205 1.283 . S
C183 O195 1.281 . S
C183 O196 1.236 . S
C184 O206 1.240 . S
C184 O207 1.264 . S
O185 Mn180 2.095 . S
O185 C194 1.250 . S
O186 Mn181 2.121 . S
O186 C194 1.258 . S
C187 N188 1.326 . S
C187 C191 1.460 . S
C187 H193 0.929 . S
N188 Mn181 2.257 . S
N188 C187 1.326 . S
N188 C192 1.362 . S
C189 C190 1.258 . S
C189 C192 1.431 . S
C189 C209 1.449 . S
C190 C189 1.258 . S
C190 C191 1.477 . S
C190 H210 0.931 . S
C191 C187 1.460 . S
C191 C190 1.477 . S
C191 H211 0.930 . S
C192 N188 1.362 . S
C192 C189 1.431 . S
C192 C202 1.476 . S
H193 C187 0.929 . S
C194 O185 1.250 . S
C194 O186 1.258 . S
O195 Mn180 2.162 . S
O195 C183 1.281 . S
O196 Mn180 2.297 . S
O196 C183 1.236 . S
N197 Mn181 2.282 . S
N197 C198 1.328 . S
N197 C202 1.318 . S
C198 N197 1.328 . S
C198 C199 1.457 . S
C198 H203 0.929 . S
C199 C198 1.457 . S
C199 C200 1.291 . S
C199 H212 0.931 . S
C200 C199 1.291 . S
C200 C201 1.373 . S
C200 H213 0.929 . S
C201 C200 1.373 . S
C201 C202 1.396 . S
C201 C208 1.403 . S
C202 C192 1.476 . S
C202 N197 1.318 . S
C202 C201 1.396 . S
H203 C198 0.929 . S
O204 Mn180 2.385 . S
O204 C182 1.234 . S
O205 Mn180 2.209 . S
O205 Mn181 2.215 . S
O205 C182 1.283 . S
O206 Mn180 2.094 . S
O206 C184 1.240 . S
O207 Mn181 2.117 . S
O207 C184 1.264 . S
C208 C201 1.403 . S
C208 C209 1.399 . S
C208 H214 0.929 . S
C209 C189 1.449 . S
C209 C208 1.399 . S
C209 H215 0.930 . S
H210 C190 0.931 . S
H211 C191 0.930 . S
H212 C199 0.931 . S
H213 C200 0.929 . S
H214 C208 0.929 . S
H215 C209 0.930 . S
Mn216 O221 2.095 . S
Mn216 O231 2.162 . S
Mn216 O232 2.297 . S
Mn216 O240 2.385 . S
Mn216 O241 2.209 . S
Mn216 O242 2.094 . S
Mn217 O222 2.121 . S
Mn217 N224 2.257 1_545 S
Mn217 N233 2.282 . S
Mn217 O241 2.215 . S
Mn217 O243 2.117 . S
C218 O240 1.234 . S
C218 O241 1.283 . S
C219 O231 1.281 . S
C219 O232 1.236 . S
C220 O242 1.240 . S
C220 O243 1.264 . S
O221 Mn216 2.095 . S
O221 C230 1.250 . S
O222 Mn217 2.121 . S
O222 C230 1.258 . S
C223 N224 1.326 . S
C223 C227 1.460 . S
C223 H229 0.929 . S
N224 Mn217 2.257 1_565 S
N224 C223 1.326 . S
N224 C228 1.362 . S
C225 C226 1.258 . S
C225 C228 1.431 . S
C225 C245 1.449 1_455 S
C226 C225 1.258 . S
C226 C227 1.477 . S
C226 H246 0.931 . S
C227 C223 1.460 . S
C227 C226 1.477 . S
C227 H247 0.930 . S
C228 N224 1.362 . S
C228 C225 1.431 . S
C228 C238 1.476 1_565 S
H229 C223 0.929 . S
C230 O221 1.250 . S
C230 O222 1.258 . S
O231 Mn216 2.162 . S
O231 C219 1.281 . S
O232 Mn216 2.297 . S
O232 C219 1.236 . S
N233 Mn217 2.282 . S
N233 C234 1.328 . S
N233 C238 1.318 . S
C234 N233 1.328 . S
C234 C235 1.457 . S
C234 H239 0.929 . S
C235 C234 1.457 . S
C235 C236 1.291 1_455 S
C235 H248 0.931 . S
C236 C235 1.291 1_655 S
C236 C237 1.356 1_655 S
C236 H249 0.929 . S
C237 C236 1.356 1_455 S
C237 C238 1.446 . S
C237 C244 1.373 1_445 S
C238 C228 1.476 1_545 S
C238 N233 1.318 . S
C238 C237 1.446 . S
H239 C234 0.929 . S
O240 Mn216 2.385 . S
O240 C218 1.234 . S
O241 Mn216 2.209 . S
O241 Mn217 2.215 . S
O241 C218 1.283 . S
O242 Mn216 2.094 . S
O242 C220 1.240 . S
O243 Mn217 2.117 . S
O243 C220 1.264 . S
C244 C237 1.373 1_665 S
C244 C245 1.399 . S
C244 H250 0.929 . S
C245 C225 1.449 1_655 S
C245 C244 1.399 . S
C245 H251 0.930 . S
H246 C226 0.931 . S
H247 C227 0.930 . S
H248 C235 0.931 . S
H249 C236 0.929 . S
H250 C244 0.929 . S
H251 C245 0.930 . S
Mn252 O257 2.095 . S
Mn252 O267 2.162 . S
Mn252 O268 2.297 . S
Mn252 O276 2.385 . S
Mn252 O277 2.209 . S
Mn252 O278 2.094 . S
Mn253 O258 2.121 . S
Mn253 N260 2.257 . S
Mn253 N269 2.282 . S
Mn253 O277 2.215 . S
Mn253 O279 2.117 . S
C254 O276 1.234 . S
C254 O277 1.283 . S
C255 O267 1.281 . S
C255 O268 1.236 . S
C256 O278 1.240 . S
C256 O279 1.264 . S
O257 Mn252 2.095 . S
O257 C266 1.250 . S
O258 Mn253 2.121 . S
O258 C266 1.258 . S
C259 N260 1.326 . S
C259 C263 1.460 . S
C259 H265 0.929 . S
N260 Mn253 2.257 . S
N260 C259 1.326 . S
N260 C264 1.362 . S
C261 C262 1.258 . S
C261 C264 1.431 . S
C261 C281 1.449 . S
C262 C261 1.258 . S
C262 C263 1.477 . S
C262 H282 0.931 . S
C263 C259 1.460 . S
C263 C262 1.477 . S
C263 H283 0.930 . S
C264 N260 1.362 . S
C264 C261 1.431 . S
C264 C274 1.476 . S
H265 C259 0.929 . S
C266 O257 1.250 . S
C266 O258 1.258 . S
O267 Mn252 2.162 . S
O267 C255 1.281 . S
O268 Mn252 2.297 . S
O268 C255 1.236 . S
N269 Mn253 2.282 . S
N269 C270 1.328 . S
N269 C274 1.318 . S
C270 N269 1.328 . S
C270 C271 1.457 . S
C270 H275 0.929 . S
C271 C270 1.457 . S
C271 C272 1.291 . S
C271 H284 0.931 . S
C272 C271 1.291 . S
C272 C273 1.373 . S
C272 H285 0.929 . S
C273 C272 1.373 . S
C273 C274 1.396 . S
C273 C280 1.403 . S
C274 C264 1.476 . S
C274 N269 1.318 . S
C274 C273 1.396 . S
H275 C270 0.929 . S
O276 Mn252 2.385 . S
O276 C254 1.234 . S
O277 Mn252 2.209 . S
O277 Mn253 2.215 . S
O277 C254 1.283 . S
O278 Mn252 2.094 . S
O278 C256 1.240 . S
O279 Mn253 2.117 . S
O279 C256 1.264 . S
C280 C273 1.403 . S
C280 C281 1.399 . S
C280 H286 0.929 . S
C281 C261 1.449 . S
C281 C280 1.399 . S
C281 H287 0.930 . S
H282 C262 0.931 . S
H283 C263 0.930 . S
H284 C271 0.931 . S
H285 C272 0.929 . S
H286 C280 0.929 . S
H287 C281 0.930 . S
Mn288 O293 2.095 . S
Mn288 O303 2.162 . S
Mn288 O304 2.297 . S
Mn288 O312 2.385 . S
Mn288 O313 2.209 . S
Mn288 O314 2.094 . S
Mn289 O294 2.121 . S
Mn289 N296 2.257 1_565 S
Mn289 N305 2.282 . S
Mn289 O313 2.215 . S
Mn289 O315 2.117 . S
C290 O312 1.234 . S
C290 O313 1.283 . S
C291 O303 1.281 . S
C291 O304 1.236 . S
C292 O314 1.240 . S
C292 O315 1.264 . S
O293 Mn288 2.095 . S
O293 C302 1.250 . S
O294 Mn289 2.121 . S
O294 C302 1.258 . S
C295 N296 1.326 . S
C295 C299 1.460 . S
C295 H301 0.929 . S
N296 Mn289 2.257 1_545 S
N296 C295 1.326 . S
N296 C300 1.362 . S
C297 C298 1.258 . S
C297 C300 1.431 . S
C297 C317 1.449 . S
C298 C297 1.258 . S
C298 C299 1.477 . S
C298 H318 0.931 . S
C299 C295 1.460 . S
C299 C298 1.477 . S
C299 H319 0.930 . S
C300 N296 1.362 . S
C300 C297 1.431 . S
C300 C310 1.476 1_545 S
H301 C295 0.929 . S
C302 O293 1.250 . S
C302 O294 1.258 . S
O303 Mn288 2.162 . S
O303 C291 1.281 . S
O304 Mn288 2.297 . S
O304 C291 1.236 . S
N305 Mn289 2.282 . S
N305 C306 1.328 . S
N305 C310 1.318 . S
C306 N305 1.328 . S
C306 C307 1.457 . S
C306 H311 0.929 . S
C307 C306 1.457 . S
C307 C308 1.291 . S
C307 H320 0.931 . S
C308 C307 1.291 . S
C308 C309 1.373 . S
C308 H321 0.929 . S
C309 C308 1.373 . S
C309 C310 1.396 . S
C309 C316 1.403 1_565 S
C310 C300 1.476 1_565 S
C310 N305 1.318 . S
C310 C309 1.396 . S
H311 C306 0.929 . S
O312 Mn288 2.385 . S
O312 C290 1.234 . S
O313 Mn288 2.209 . S
O313 Mn289 2.215 . S
O313 C290 1.283 . S
O314 Mn288 2.094 . S
O314 C292 1.240 . S
O315 Mn289 2.117 . S
O315 C292 1.264 . S
C316 C309 1.403 1_545 S
C316 C317 1.399 . S
C316 H322 0.929 . S
C317 C297 1.449 . S
C317 C316 1.399 . S
C317 H323 0.930 . S
H318 C298 0.931 . S
H319 C299 0.930 . S
H320 C307 0.931 . S
H321 C308 0.929 . S
H322 C316 0.929 . S
H323 C317 0.930 . S
Mn324 O329 2.095 . S
Mn324 O339 2.162 . S
Mn324 O340 2.297 . S
Mn324 O348 2.385 . S
Mn324 O349 2.209 . S
Mn324 O350 2.094 . S
Mn325 O330 2.121 . S
Mn325 N332 2.257 . S
Mn325 N341 2.282 . S
Mn325 O349 2.215 . S
Mn325 O351 2.117 . S
C326 O348 1.234 . S
C326 O349 1.283 . S
C327 O339 1.281 . S
C327 O340 1.236 . S
C328 O350 1.240 . S
C328 O351 1.264 . S
O329 Mn324 2.095 . S
O329 C338 1.250 . S
O330 Mn325 2.121 . S
O330 C338 1.258 . S
C331 N332 1.326 . S
C331 C335 1.460 . S
C331 H337 0.929 . S
N332 Mn325 2.257 . S
N332 C331 1.326 . S
N332 C336 1.362 . S
C333 C334 1.258 . S
C333 C336 1.431 . S
C333 C353 1.449 . S
C334 C333 1.258 . S
C334 C335 1.477 . S
C334 H354 0.931 . S
C335 C331 1.460 . S
C335 C334 1.477 . S
C335 H355 0.930 . S
C336 N332 1.362 . S
C336 C333 1.431 . S
C336 C346 1.476 . S
H337 C331 0.929 . S
C338 O329 1.250 . S
C338 O330 1.258 . S
O339 Mn324 2.162 . S
O339 C327 1.281 . S
O340 Mn324 2.297 . S
O340 C327 1.236 . S
N341 Mn325 2.282 . S
N341 C342 1.328 . S
N341 C346 1.318 . S
C342 N341 1.328 . S
C342 C343 1.457 . S
C342 H347 0.929 . S
C343 C342 1.457 . S
C343 C344 1.291 . S
C343 H356 0.931 . S
C344 C343 1.291 . S
C344 C345 1.373 . S
C344 H357 0.929 . S
C345 C344 1.373 . S
C345 C346 1.396 . S
C345 C352 1.403 . S
C346 C336 1.476 . S
C346 N341 1.318 . S
C346 C345 1.396 . S
H347 C342 0.929 . S
O348 Mn324 2.385 . S
O348 C326 1.234 . S
O349 Mn324 2.209 . S
O349 Mn325 2.215 . S
O349 C326 1.283 . S
O350 Mn324 2.094 . S
O350 C328 1.240 . S
O351 Mn325 2.117 . S
O351 C328 1.264 . S
C352 C345 1.403 . S
C352 C353 1.399 . S
C352 H358 0.929 . S
C353 C333 1.449 . S
C353 C352 1.399 . S
C353 H359 0.930 . S
H354 C334 0.931 . S
H355 C335 0.930 . S
H356 C343 0.931 . S
H357 C344 0.929 . S
H358 C352 0.929 . S
H359 C353 0.930 . S
Mn360 O365 2.095 . S
Mn360 O375 2.162 . S
Mn360 O376 2.297 . S
Mn360 O384 2.385 . S
Mn360 O385 2.209 . S
Mn360 O386 2.094 . S
Mn361 O366 2.121 . S
Mn361 N368 2.257 1_545 S
Mn361 N377 2.282 . S
Mn361 O385 2.215 . S
Mn361 O387 2.117 . S
C362 O384 1.234 . S
C362 O385 1.283 . S
C363 O375 1.281 . S
C363 O376 1.236 . S
C364 O386 1.240 . S
C364 O387 1.264 . S
O365 Mn360 2.095 . S
O365 C374 1.250 . S
O366 Mn361 2.121 . S
O366 C374 1.258 . S
C367 N368 1.326 . S
C367 C371 1.460 . S
C367 H373 0.929 . S
N368 Mn361 2.257 1_565 S
N368 C367 1.326 . S
N368 C372 1.362 . S
C369 C370 1.258 . S
C369 C372 1.431 . S
C369 C389 1.449 1_655 S
C370 C369 1.258 . S
C370 C371 1.477 . S
C370 H390 0.931 . S
C371 C367 1.460 . S
C371 C370 1.477 . S
C371 H391 0.930 . S
C372 N368 1.362 . S
C372 C369 1.431 . S
C372 C382 1.476 1_565 S
H373 C367 0.929 . S
C374 O365 1.250 . S
C374 O366 1.258 . S
O375 Mn360 2.162 . S
O375 C363 1.281 . S
O376 Mn360 2.297 . S
O376 C363 1.236 . S
N377 Mn361 2.282 . S
N377 C378 1.328 . S
N377 C382 1.318 . S
C378 N377 1.328 . S
C378 C379 1.457 . S
C378 H383 0.929 . S
C379 C378 1.457 . S
C379 C380 1.291 1_655 S
C379 H392 0.931 . S
C380 C379 1.291 1_455 S
C380 C381 1.356 1_455 S
C380 H393 0.929 . S
C381 C380 1.356 1_655 S
C381 C382 1.446 . S
C381 C388 1.373 1_645 S
C382 C372 1.476 1_545 S
C382 N377 1.318 . S
C382 C381 1.446 . S
H383 C378 0.929 . S
O384 Mn360 2.385 . S
O384 C362 1.234 . S
O385 Mn360 2.209 . S
O385 Mn361 2.215 . S
O385 C362 1.283 . S
O386 Mn360 2.094 . S
O386 C364 1.240 . S
O387 Mn361 2.117 . S
O387 C364 1.264 . S
C388 C381 1.373 1_465 S
C388 C389 1.399 . S
C388 H394 0.929 . S
C389 C369 1.449 1_455 S
C389 C388 1.399 . S
C389 H395 0.930 . S
H390 C370 0.931 . S
H391 C371 0.930 . S
H392 C379 0.931 . S
H393 C380 0.929 . S
H394 C388 0.929 . S
H395 C389 0.930 . S
Mn396 O401 2.095 . S
Mn396 O411 2.162 . S
Mn396 O412 2.297 . S
Mn396 O420 2.385 . S
Mn396 O421 2.209 . S
Mn396 O422 2.094 . S
Mn397 O402 2.121 . S
Mn397 N404 2.257 . S
Mn397 N413 2.282 . S
Mn397 O421 2.215 . S
Mn397 O423 2.117 . S
C398 O420 1.234 . S
C398 O421 1.283 . S
C399 O411 1.281 . S
C399 O412 1.236 . S
C400 O422 1.240 . S
C400 O423 1.264 . S
O401 Mn396 2.095 . S
O401 C410 1.250 . S
O402 Mn397 2.121 . S
O402 C410 1.258 . S
C403 N404 1.326 . S
C403 C407 1.460 . S
C403 H409 0.929 . S
N404 Mn397 2.257 . S
N404 C403 1.326 . S
N404 C408 1.362 . S
C405 C406 1.258 . S
C405 C408 1.431 . S
C405 C425 1.449 . S
C406 C405 1.258 . S
C406 C407 1.477 . S
C406 H426 0.931 . S
C407 C403 1.460 . S
C407 C406 1.477 . S
C407 H427 0.930 . S
C408 N404 1.362 . S
C408 C405 1.431 . S
C408 C418 1.476 . S
H409 C403 0.929 . S
C410 O401 1.250 . S
C410 O402 1.258 . S
O411 Mn396 2.162 . S
O411 C399 1.281 . S
O412 Mn396 2.297 . S
O412 C399 1.236 . S
N413 Mn397 2.282 . S
N413 C414 1.328 . S
N413 C418 1.318 . S
C414 N413 1.328 . S
C414 C415 1.457 . S
C414 H419 0.929 . S
C415 C414 1.457 . S
C415 C416 1.291 . S
C415 H428 0.931 . S
C416 C415 1.291 . S
C416 C417 1.373 . S
C416 H429 0.929 . S
C417 C416 1.373 . S
C417 C418 1.396 . S
C417 C424 1.403 . S
C418 C408 1.476 . S
C418 N413 1.318 . S
C418 C417 1.396 . S
H419 C414 0.929 . S
O420 Mn396 2.385 . S
O420 C398 1.234 . S
O421 Mn396 2.209 . S
O421 Mn397 2.215 . S
O421 C398 1.283 . S
O422 Mn396 2.094 . S
O422 C400 1.240 . S
O423 Mn397 2.117 . S
O423 C400 1.264 . S
C424 C417 1.403 . S
C424 C425 1.399 . S
C424 H430 0.929 . S
C425 C405 1.449 . S
C425 C424 1.399 . S
C425 H431 0.930 . S
H426 C406 0.931 . S
H427 C407 0.930 . S
H428 C415 0.931 . S
H429 C416 0.929 . S
H430 C424 0.929 . S
H431 C425 0.930 . S
Mn432 O437 2.095 . S
Mn432 O447 2.162 . S
Mn432 O448 2.297 . S
Mn432 O456 2.385 . S
Mn432 O457 2.209 . S
Mn432 O458 2.094 . S
Mn433 O438 2.121 . S
Mn433 N440 2.257 1_545 S
Mn433 N449 2.282 . S
Mn433 O457 2.215 . S
Mn433 O459 2.117 . S
C434 O456 1.234 . S
C434 O457 1.283 . S
C435 O447 1.281 . S
C435 O448 1.236 . S
C436 O458 1.240 . S
C436 O459 1.264 . S
O437 Mn432 2.095 . S
O437 C446 1.250 . S
O438 Mn433 2.121 . S
O438 C446 1.258 . S
C439 N440 1.326 . S
C439 C443 1.460 . S
C439 H445 0.929 . S
N440 Mn433 2.257 1_565 S
N440 C439 1.326 . S
N440 C444 1.362 . S
C441 C442 1.258 . S
C441 C444 1.431 . S
C441 C461 1.449 . S
C442 C441 1.258 . S
C442 C443 1.477 . S
C442 H462 0.931 . S
C443 C439 1.460 . S
C443 C442 1.477 . S
C443 H463 0.930 . S
C444 N440 1.362 . S
C444 C441 1.431 . S
C444 C454 1.476 1_565 S
H445 C439 0.929 . S
C446 O437 1.250 . S
C446 O438 1.258 . S
O447 Mn432 2.162 . S
O447 C435 1.281 . S
O448 Mn432 2.297 . S
O448 C435 1.236 . S
N449 Mn433 2.282 . S
N449 C450 1.328 . S
N449 C454 1.318 . S
C450 N449 1.328 . S
C450 C451 1.457 . S
C450 H455 0.929 . S
C451 C450 1.457 . S
C451 C452 1.291 . S
C451 H464 0.931 . S
C452 C451 1.291 . S
C452 C453 1.373 . S
C452 H465 0.929 . S
C453 C452 1.373 . S
C453 C454 1.396 . S
C453 C460 1.403 1_545 S
C454 C444 1.476 1_545 S
C454 N449 1.318 . S
C454 C453 1.396 . S
H455 C450 0.929 . S
O456 Mn432 2.385 . S
O456 C434 1.234 . S
O457 Mn432 2.209 . S
O457 Mn433 2.215 . S
O457 C434 1.283 . S
O458 Mn432 2.094 . S
O458 C436 1.240 . S
O459 Mn433 2.117 . S
O459 C436 1.264 . S
C460 C453 1.403 1_565 S
C460 C461 1.399 . S
C460 H466 0.929 . S
C461 C441 1.449 . S
C461 C460 1.399 . S
C461 H467 0.930 . S
H462 C442 0.931 . S
H463 C443 0.930 . S
H464 C451 0.931 . S
H465 C452 0.929 . S
H466 C460 0.929 . S
H467 C461 0.930 . S
Mn468 O473 2.095 . S
Mn468 O483 2.162 . S
Mn468 O484 2.297 . S
Mn468 O492 2.385 . S
Mn468 O493 2.209 . S
Mn468 O494 2.094 . S
Mn469 O474 2.121 . S
Mn469 N476 2.257 . S
Mn469 N485 2.282 . S
Mn469 O493 2.215 . S
Mn469 O495 2.117 . S
C470 O492 1.234 . S
C470 O493 1.283 . S
C471 O483 1.281 . S
C471 O484 1.236 . S
C472 O494 1.240 . S
C472 O495 1.264 . S
O473 Mn468 2.095 . S
O473 C482 1.250 . S
O474 Mn469 2.121 . S
O474 C482 1.258 . S
C475 N476 1.326 . S
C475 C479 1.460 . S
C475 H481 0.929 . S
N476 Mn469 2.257 . S
N476 C475 1.326 . S
N476 C480 1.362 . S
C477 C478 1.258 . S
C477 C480 1.431 . S
C477 C497 1.449 . S
C478 C477 1.258 . S
C478 C479 1.477 . S
C478 H498 0.931 . S
C479 C475 1.460 . S
C479 C478 1.477 . S
C479 H499 0.930 . S
C480 N476 1.362 . S
C480 C477 1.431 . S
C480 C490 1.476 . S
H481 C475 0.929 . S
C482 O473 1.250 . S
C482 O474 1.258 . S
O483 Mn468 2.162 . S
O483 C471 1.281 . S
O484 Mn468 2.297 . S
O484 C471 1.236 . S
N485 Mn469 2.282 . S
N485 C486 1.328 . S
N485 C490 1.318 . S
C486 N485 1.328 . S
C486 C487 1.457 . S
C486 H491 0.929 . S
C487 C486 1.457 . S
C487 C488 1.291 . S
C487 H500 0.931 . S
C488 C487 1.291 . S
C488 C489 1.373 . S
C488 H501 0.929 . S
C489 C488 1.373 . S
C489 C490 1.396 . S
C489 C496 1.403 . S
C490 C480 1.476 . S
C490 N485 1.318 . S
C490 C489 1.396 . S
H491 C486 0.929 . S
O492 Mn468 2.385 . S
O492 C470 1.234 . S
O493 Mn468 2.209 . S
O493 Mn469 2.215 . S
O493 C470 1.283 . S
O494 Mn468 2.094 . S
O494 C472 1.240 . S
O495 Mn469 2.117 . S
O495 C472 1.264 . S
C496 C489 1.403 . S
C496 C497 1.399 . S
C496 H502 0.929 . S
C497 C477 1.449 . S
C497 C496 1.399 . S
C497 H503 0.930 . S
H498 C478 0.931 . S
H499 C479 0.930 . S
H500 C487 0.931 . S
H501 C488 0.929 . S
H502 C496 0.929 . S
H503 C497 0.930 . S
Mn504 O509 2.095 . S
Mn504 O519 2.162 . S
Mn504 O520 2.297 . S
Mn504 O528 2.385 . S
Mn504 O529 2.209 . S
Mn504 O530 2.094 . S
Mn505 O510 2.121 . S
Mn505 N512 2.257 1_565 S
Mn505 N521 2.282 . S
Mn505 O529 2.215 . S
Mn505 O531 2.117 . S
C506 O528 1.234 . S
C506 O529 1.283 . S
C507 O519 1.281 . S
C507 O520 1.236 . S
C508 O530 1.240 . S
C508 O531 1.264 . S
O509 Mn504 2.095 . S
O509 C518 1.250 . S
O510 Mn505 2.121 . S
O510 C518 1.258 . S
C511 N512 1.326 . S
C511 C515 1.460 . S
C511 H517 0.929 . S
N512 Mn505 2.257 1_545 S
N512 C511 1.326 . S
N512 C516 1.362 . S
C513 C514 1.258 . S
C513 C516 1.431 . S
C513 C533 1.449 1_655 S
C514 C513 1.258 . S
C514 C515 1.477 . S
C514 H534 0.931 . S
C515 C511 1.460 . S
C515 C514 1.477 . S
C515 H535 0.930 . S
C516 N512 1.362 . S
C516 C513 1.431 . S
C516 C526 1.476 1_545 S
H517 C511 0.929 . S
C518 O509 1.250 . S
C518 O510 1.258 . S
O519 Mn504 2.162 . S
O519 C507 1.281 . S
O520 Mn504 2.297 . S
O520 C507 1.236 . S
N521 Mn505 2.282 . S
N521 C522 1.328 . S
N521 C526 1.318 . S
C522 N521 1.328 . S
C522 C523 1.457 . S
C522 H527 0.929 . S
C523 C522 1.457 . S
C523 C524 1.291 1_655 S
C523 H536 0.931 . S
C524 C523 1.291 1_455 S
C524 C525 1.356 1_455 S
C524 H537 0.929 . S
C525 C524 1.356 1_655 S
C525 C526 1.446 . S
C525 C532 1.373 1_665 S
C526 C516 1.476 1_565 S
C526 N521 1.318 . S
C526 C525 1.446 . S
H527 C522 0.929 . S
O528 Mn504 2.385 . S
O528 C506 1.234 . S
O529 Mn504 2.209 . S
O529 Mn505 2.215 . S
O529 C506 1.283 . S
O530 Mn504 2.094 . S
O530 C508 1.240 . S
O531 Mn505 2.117 . S
O531 C508 1.264 . S
C532 C525 1.373 1_445 S
C532 C533 1.399 . S
C532 H538 0.929 . S
C533 C513 1.449 1_455 S
C533 C532 1.399 . S
C533 H539 0.930 . S
H534 C514 0.931 . S
H535 C515 0.930 . S
H536 C523 0.931 . S
H537 C524 0.929 . S
H538 C532 0.929 . S
H539 C533 0.930 . S
Mn540 O545 2.095 . S
Mn540 O555 2.162 . S
Mn540 O556 2.297 . S
Mn540 O564 2.385 . S
Mn540 O565 2.209 . S
Mn540 O566 2.094 . S
Mn541 O546 2.121 . S
Mn541 N548 2.257 . S
Mn541 N557 2.282 . S
Mn541 O565 2.215 . S
Mn541 O567 2.117 . S
C542 O564 1.234 . S
C542 O565 1.283 . S
C543 O555 1.281 . S
C543 O556 1.236 . S
C544 O566 1.240 . S
C544 O567 1.264 . S
O545 Mn540 2.095 . S
O545 C554 1.250 . S
O546 Mn541 2.121 . S
O546 C554 1.258 . S
C547 N548 1.326 . S
C547 C551 1.460 . S
C547 H553 0.929 . S
N548 Mn541 2.257 . S
N548 C547 1.326 . S
N548 C552 1.362 . S
C549 C550 1.258 . S
C549 C552 1.431 . S
C549 C569 1.449 . S
C550 C549 1.258 . S
C550 C551 1.477 . S
C550 H570 0.931 . S
C551 C547 1.460 . S
C551 C550 1.477 . S
C551 H571 0.930 . S
C552 N548 1.362 . S
C552 C549 1.431 . S
C552 C562 1.476 . S
H553 C547 0.929 . S
C554 O545 1.250 . S
C554 O546 1.258 . S
O555 Mn540 2.162 . S
O555 C543 1.281 . S
O556 Mn540 2.297 . S
O556 C543 1.236 . S
N557 Mn541 2.282 . S
N557 C558 1.328 . S
N557 C562 1.318 . S
C558 N557 1.328 . S
C558 C559 1.457 . S
C558 H563 0.929 . S
C559 C558 1.457 . S
C559 C560 1.291 . S
C559 H572 0.931 . S
C560 C559 1.291 . S
C560 C561 1.373 . S
C560 H573 0.929 . S
C561 C560 1.373 . S
C561 C562 1.396 . S
C561 C568 1.403 . S
C562 C552 1.476 . S
C562 N557 1.318 . S
C562 C561 1.396 . S
H563 C558 0.929 . S
O564 Mn540 2.385 . S
O564 C542 1.234 . S
O565 Mn540 2.209 . S
O565 Mn541 2.215 . S
O565 C542 1.283 . S
O566 Mn540 2.094 . S
O566 C544 1.240 . S
O567 Mn541 2.117 . S
O567 C544 1.264 . S
C568 C561 1.403 . S
C568 C569 1.399 . S
C568 H574 0.929 . S
C569 C549 1.449 . S
C569 C568 1.399 . S
C569 H575 0.930 . S
H570 C550 0.931 . S
H571 C551 0.930 . S
H572 C559 0.931 . S
H573 C560 0.929 . S
H574 C568 0.929 . S
H575 C569 0.930 . S
Mn576 O581 2.095 . S
Mn576 O591 2.162 . S
Mn576 O592 2.297 . S
Mn576 O600 2.385 . S
Mn576 O601 2.209 . S
Mn576 O602 2.094 . S
Mn577 O582 2.121 . S
Mn577 N584 2.257 . S
Mn577 N593 2.282 . S
Mn577 O601 2.215 . S
Mn577 O603 2.117 . S
C578 O600 1.234 . S
C578 O601 1.283 . S
C579 O591 1.281 . S
C579 O592 1.236 . S
C580 O602 1.240 . S
C580 O603 1.264 . S
O581 Mn576 2.095 . S
O581 C590 1.250 . S
O582 Mn577 2.121 . S
O582 C590 1.258 . S
C583 N584 1.326 . S
C583 C587 1.460 . S
C583 H589 0.929 . S
N584 Mn577 2.257 . S
N584 C583 1.326 . S
N584 C588 1.362 . S
C585 C586 1.258 . S
C585 C588 1.431 . S
C585 C605 1.449 1_655 S
C586 C585 1.258 . S
C586 C587 1.477 . S
C586 H606 0.931 . S
C587 C583 1.460 . S
C587 C586 1.477 . S
C587 H607 0.930 . S
C588 N584 1.362 . S
C588 C585 1.431 . S
C588 C598 1.476 . S
H589 C583 0.929 . S
C590 O581 1.250 . S
C590 O582 1.258 . S
O591 Mn576 2.162 . S
O591 C579 1.281 . S
O592 Mn576 2.297 . S
O592 C579 1.236 . S
N593 Mn577 2.282 . S
N593 C594 1.328 . S
N593 C598 1.318 . S
C594 N593 1.328 . S
C594 C595 1.457 . S
C594 H599 0.929 . S
C595 C594 1.457 . S
C595 C596 1.291 1_655 S
C595 H608 0.931 . S
C596 C595 1.291 1_455 S
C596 C597 1.356 1_455 S
C596 H609 0.929 . S
C597 C596 1.356 1_655 S
C597 C598 1.446 . S
C597 C604 1.373 1_655 S
C598 C588 1.476 . S
C598 N593 1.318 . S
C598 C597 1.446 . S
H599 C594 0.929 . S
O600 Mn576 2.385 . S
O600 C578 1.234 . S
O601 Mn576 2.209 . S
O601 Mn577 2.215 . S
O601 C578 1.283 . S
O602 Mn576 2.094 . S
O602 C580 1.240 . S
O603 Mn577 2.117 . S
O603 C580 1.264 . S
C604 C597 1.373 1_455 S
C604 C605 1.399 . S
C604 H610 0.929 . S
C605 C585 1.449 1_455 S
C605 C604 1.399 . S
C605 H611 0.930 . S
H606 C586 0.931 . S
H607 C587 0.930 . S
H608 C595 0.931 . S
H609 C596 0.929 . S
H610 C604 0.929 . S
H611 C605 0.930 . S
Mn612 O617 2.095 . S
Mn612 O627 2.162 . S
Mn612 O628 2.297 . S
Mn612 O636 2.385 . S
Mn612 O637 2.209 . S
Mn612 O638 2.094 . S
Mn613 O618 2.121 . S
Mn613 N620 2.257 . S
Mn613 N629 2.282 . S
Mn613 O637 2.215 . S
Mn613 O639 2.117 . S
C614 O636 1.234 . S
C614 O637 1.283 . S
C615 O627 1.281 . S
C615 O628 1.236 . S
C616 O638 1.240 . S
C616 O639 1.264 . S
O617 Mn612 2.095 . S
O617 C626 1.250 . S
O618 Mn613 2.121 . S
O618 C626 1.258 . S
C619 N620 1.326 . S
C619 C623 1.460 . S
C619 H625 0.929 . S
N620 Mn613 2.257 . S
N620 C619 1.326 . S
N620 C624 1.362 . S
C621 C622 1.258 . S
C621 C624 1.431 . S
C621 C641 1.449 . S
C622 C621 1.258 . S
C622 C623 1.477 . S
C622 H642 0.931 . S
C623 C619 1.460 . S
C623 C622 1.477 . S
C623 H643 0.930 . S
C624 N620 1.362 . S
C624 C621 1.431 . S
C624 C634 1.476 . S
H625 C619 0.929 . S
C626 O617 1.250 . S
C626 O618 1.258 . S
O627 Mn612 2.162 . S
O627 C615 1.281 . S
O628 Mn612 2.297 . S
O628 C615 1.236 . S
N629 Mn613 2.282 . S
N629 C630 1.328 . S
N629 C634 1.318 . S
C630 N629 1.328 . S
C630 C631 1.457 . S
C630 H635 0.929 . S
C631 C630 1.457 . S
C631 C632 1.291 . S
C631 H644 0.931 . S
C632 C631 1.291 . S
C632 C633 1.373 . S
C632 H645 0.929 . S
C633 C632 1.373 . S
C633 C634 1.396 . S
C633 C640 1.403 . S
C634 C624 1.476 . S
C634 N629 1.318 . S
C634 C633 1.396 . S
H635 C630 0.929 . S
O636 Mn612 2.385 . S
O636 C614 1.234 . S
O637 Mn612 2.209 . S
O637 Mn613 2.215 . S
O637 C614 1.283 . S
O638 Mn612 2.094 . S
O638 C616 1.240 . S
O639 Mn613 2.117 . S
O639 C616 1.264 . S
C640 C633 1.403 . S
C640 C641 1.399 . S
C640 H646 0.929 . S
C641 C621 1.449 . S
C641 C640 1.399 . S
C641 H647 0.930 . S
H642 C622 0.931 . S
H643 C623 0.930 . S
H644 C631 0.931 . S
H645 C632 0.929 . S
H646 C640 0.929 . S
H647 C641 0.930 . S
Mn648 O653 2.095 . S
Mn648 O663 2.162 . S
Mn648 O664 2.297 . S
Mn648 O672 2.385 . S
Mn648 O673 2.209 . S
Mn648 O674 2.094 . S
Mn649 O654 2.121 . S
Mn649 N656 2.257 . S
Mn649 N665 2.282 . S
Mn649 O673 2.215 . S
Mn649 O675 2.117 . S
C650 O672 1.234 . S
C650 O673 1.283 . S
C651 O663 1.281 . S
C651 O664 1.236 . S
C652 O674 1.240 . S
C652 O675 1.264 . S
O653 Mn648 2.095 . S
O653 C662 1.250 . S
O654 Mn649 2.121 . S
O654 C662 1.258 . S
C655 N656 1.326 . S
C655 C659 1.460 . S
C655 H661 0.929 . S
N656 Mn649 2.257 . S
N656 C655 1.326 . S
N656 C660 1.362 . S
C657 C658 1.258 . S
C657 C660 1.431 . S
C657 C677 1.449 . S
C658 C657 1.258 . S
C658 C659 1.477 . S
C658 H678 0.931 . S
C659 C655 1.460 . S
C659 C658 1.477 . S
C659 H679 0.930 . S
C660 N656 1.362 . S
C660 C657 1.431 . S
C660 C670 1.476 . S
H661 C655 0.929 . S
C662 O653 1.250 . S
C662 O654 1.258 . S
O663 Mn648 2.162 . S
O663 C651 1.281 . S
O664 Mn648 2.297 . S
O664 C651 1.236 . S
N665 Mn649 2.282 . S
N665 C666 1.328 . S
N665 C670 1.318 . S
C666 N665 1.328 . S
C666 C667 1.457 . S
C666 H671 0.929 . S
C667 C666 1.457 . S
C667 C668 1.291 . S
C667 H680 0.931 . S
C668 C667 1.291 . S
C668 C669 1.373 . S
C668 H681 0.929 . S
C669 C668 1.373 . S
C669 C670 1.396 . S
C669 C676 1.403 . S
C670 C660 1.476 . S
C670 N665 1.318 . S
C670 C669 1.396 . S
H671 C666 0.929 . S
O672 Mn648 2.385 . S
O672 C650 1.234 . S
O673 Mn648 2.209 . S
O673 Mn649 2.215 . S
O673 C650 1.283 . S
O674 Mn648 2.094 . S
O674 C652 1.240 . S
O675 Mn649 2.117 . S
O675 C652 1.264 . S
C676 C669 1.403 . S
C676 C677 1.399 . S
C676 H682 0.929 . S
C677 C657 1.449 . S
C677 C676 1.399 . S
C677 H683 0.930 . S
H678 C658 0.931 . S
H679 C659 0.930 . S
H680 C667 0.931 . S
H681 C668 0.929 . S
H682 C676 0.929 . S
H683 C677 0.930 . S
Mn684 O689 2.095 . S
Mn684 O699 2.162 . S
Mn684 O700 2.297 . S
Mn684 O708 2.385 . S
Mn684 O709 2.209 . S
Mn684 O710 2.094 . S
Mn685 O690 2.121 . S
Mn685 N692 2.257 . S
Mn685 N701 2.282 . S
Mn685 O709 2.215 . S
Mn685 O711 2.117 . S
C686 O708 1.234 . S
C686 O709 1.283 . S
C687 O699 1.281 . S
C687 O700 1.236 . S
C688 O710 1.240 . S
C688 O711 1.264 . S
O689 Mn684 2.095 . S
O689 C698 1.250 . S
O690 Mn685 2.121 . S
O690 C698 1.258 . S
C691 N692 1.326 . S
C691 C695 1.460 . S
C691 H697 0.929 . S
N692 Mn685 2.257 . S
N692 C691 1.326 . S
N692 C696 1.362 . S
C693 C694 1.258 . S
C693 C696 1.431 . S
C693 C713 1.449 . S
C694 C693 1.258 . S
C694 C695 1.477 . S
C694 H714 0.931 . S
C695 C691 1.460 . S
C695 C694 1.477 . S
C695 H715 0.930 . S
C696 N692 1.362 . S
C696 C693 1.431 . S
C696 C706 1.476 . S
H697 C691 0.929 . S
C698 O689 1.250 . S
C698 O690 1.258 . S
O699 Mn684 2.162 . S
O699 C687 1.281 . S
O700 Mn684 2.297 . S
O700 C687 1.236 . S
N701 Mn685 2.282 . S
N701 C702 1.328 . S
N701 C706 1.318 . S
C702 N701 1.328 . S
C702 C703 1.457 . S
C702 H707 0.929 . S
C703 C702 1.457 . S
C703 C704 1.291 . S
C703 H716 0.931 . S
C704 C703 1.291 . S
C704 C705 1.373 . S
C704 H717 0.929 . S
C705 C704 1.373 . S
C705 C706 1.396 . S
C705 C712 1.403 . S
C706 C696 1.476 . S
C706 N701 1.318 . S
C706 C705 1.396 . S
H707 C702 0.929 . S
O708 Mn684 2.385 . S
O708 C686 1.234 . S
O709 Mn684 2.209 . S
O709 Mn685 2.215 . S
O709 C686 1.283 . S
O710 Mn684 2.094 . S
O710 C688 1.240 . S
O711 Mn685 2.117 . S
O711 C688 1.264 . S
C712 C705 1.403 . S
C712 C713 1.399 . S
C712 H718 0.929 . S
C713 C693 1.449 . S
C713 C712 1.399 . S
C713 H719 0.930 . S
H714 C694 0.931 . S
H715 C695 0.930 . S
H716 C703 0.931 . S
H717 C704 0.929 . S
H718 C712 0.929 . S
H719 C713 0.930 . S
Mn720 O725 2.095 . S
Mn720 O735 2.162 . S
Mn720 O736 2.297 . S
Mn720 O744 2.385 . S
Mn720 O745 2.209 . S
Mn720 O746 2.094 . S
Mn721 O726 2.121 . S
Mn721 N728 2.257 . S
Mn721 N737 2.282 . S
Mn721 O745 2.215 . S
Mn721 O747 2.117 . S
C722 O744 1.234 . S
C722 O745 1.283 . S
C723 O735 1.281 . S
C723 O736 1.236 . S
C724 O746 1.240 . S
C724 O747 1.264 . S
O725 Mn720 2.095 . S
O725 C734 1.250 . S
O726 Mn721 2.121 . S
O726 C734 1.258 . S
C727 N728 1.326 . S
C727 C731 1.460 . S
C727 H733 0.929 . S
N728 Mn721 2.257 . S
N728 C727 1.326 . S
N728 C732 1.362 . S
C729 C730 1.258 . S
C729 C732 1.431 . S
C729 C749 1.449 1_655 S
C730 C729 1.258 . S
C730 C731 1.477 . S
C730 H750 0.931 . S
C731 C727 1.460 . S
C731 C730 1.477 . S
C731 H751 0.930 . S
C732 N728 1.362 . S
C732 C729 1.431 . S
C732 C742 1.476 . S
H733 C727 0.929 . S
C734 O725 1.250 . S
C734 O726 1.258 . S
O735 Mn720 2.162 . S
O735 C723 1.281 . S
O736 Mn720 2.297 . S
O736 C723 1.236 . S
N737 Mn721 2.282 . S
N737 C738 1.328 . S
N737 C742 1.318 . S
C738 N737 1.328 . S
C738 C739 1.457 . S
C738 H743 0.929 . S
C739 C738 1.457 . S
C739 C740 1.291 1_655 S
C739 H752 0.931 . S
C740 C739 1.291 1_455 S
C740 C741 1.356 1_455 S
C740 H753 0.929 . S
C741 C740 1.356 1_655 S
C741 C742 1.446 . S
C741 C748 1.373 1_655 S
C742 C732 1.476 . S
C742 N737 1.318 . S
C742 C741 1.446 . S
H743 C738 0.929 . S
O744 Mn720 2.385 . S
O744 C722 1.234 . S
O745 Mn720 2.209 . S
O745 Mn721 2.215 . S
O745 C722 1.283 . S
O746 Mn720 2.094 . S
O746 C724 1.240 . S
O747 Mn721 2.117 . S
O747 C724 1.264 . S
C748 C741 1.373 1_455 S
C748 C749 1.399 . S
C748 H754 0.929 . S
C749 C729 1.449 1_455 S
C749 C748 1.399 . S
C749 H755 0.930 . S
H750 C730 0.931 . S
H751 C731 0.930 . S
H752 C739 0.931 . S
H753 C740 0.929 . S
H754 C748 0.929 . S
H755 C749 0.930 . S
Mn756 O761 2.095 . S
Mn756 O771 2.162 . S
Mn756 O772 2.297 . S
Mn756 O780 2.385 . S
Mn756 O781 2.209 . S
Mn756 O782 2.094 . S
Mn757 O762 2.121 . S
Mn757 N764 2.257 . S
Mn757 N773 2.282 . S
Mn757 O781 2.215 . S
Mn757 O783 2.117 . S
C758 O780 1.234 . S
C758 O781 1.283 . S
C759 O771 1.281 . S
C759 O772 1.236 . S
C760 O782 1.240 . S
C760 O783 1.264 . S
O761 Mn756 2.095 . S
O761 C770 1.250 . S
O762 Mn757 2.121 . S
O762 C770 1.258 . S
C763 N764 1.326 . S
C763 C767 1.460 . S
C763 H769 0.929 . S
N764 Mn757 2.257 . S
N764 C763 1.326 . S
N764 C768 1.362 . S
C765 C766 1.258 . S
C765 C768 1.431 . S
C765 C785 1.449 . S
C766 C765 1.258 . S
C766 C767 1.477 . S
C766 H786 0.931 . S
C767 C763 1.460 . S
C767 C766 1.477 . S
C767 H787 0.930 . S
C768 N764 1.362 . S
C768 C765 1.431 . S
C768 C778 1.476 . S
H769 C763 0.929 . S
C770 O761 1.250 . S
C770 O762 1.258 . S
O771 Mn756 2.162 . S
O771 C759 1.281 . S
O772 Mn756 2.297 . S
O772 C759 1.236 . S
N773 Mn757 2.282 . S
N773 C774 1.328 . S
N773 C778 1.318 . S
C774 N773 1.328 . S
C774 C775 1.457 . S
C774 H779 0.929 . S
C775 C774 1.457 . S
C775 C776 1.291 . S
C775 H788 0.931 . S
C776 C775 1.291 . S
C776 C777 1.373 . S
C776 H789 0.929 . S
C777 C776 1.373 . S
C777 C778 1.396 . S
C777 C784 1.403 . S
C778 C768 1.476 . S
C778 N773 1.318 . S
C778 C777 1.396 . S
H779 C774 0.929 . S
O780 Mn756 2.385 . S
O780 C758 1.234 . S
O781 Mn756 2.209 . S
O781 Mn757 2.215 . S
O781 C758 1.283 . S
O782 Mn756 2.094 . S
O782 C760 1.240 . S
O783 Mn757 2.117 . S
O783 C760 1.264 . S
C784 C777 1.403 . S
C784 C785 1.399 . S
C784 H790 0.929 . S
C785 C765 1.449 . S
C785 C784 1.399 . S
C785 H791 0.930 . S
H786 C766 0.931 . S
H787 C767 0.930 . S
H788 C775 0.931 . S
H789 C776 0.929 . S
H790 C784 0.929 . S
H791 C785 0.930 . S
Mn792 O797 2.095 . S
Mn792 O807 2.162 . S
Mn792 O808 2.297 . S
Mn792 O816 2.385 . S
Mn792 O817 2.209 . S
Mn792 O818 2.094 . S
Mn793 O798 2.121 . S
Mn793 N800 2.257 . S
Mn793 N809 2.282 . S
Mn793 O817 2.215 . S
Mn793 O819 2.117 . S
C794 O816 1.234 . S
C794 O817 1.283 . S
C795 O807 1.281 . S
C795 O808 1.236 . S
C796 O818 1.240 . S
C796 O819 1.264 . S
O797 Mn792 2.095 . S
O797 C806 1.250 . S
O798 Mn793 2.121 . S
O798 C806 1.258 . S
C799 N800 1.326 . S
C799 C803 1.460 . S
C799 H805 0.929 . S
N800 Mn793 2.257 . S
N800 C799 1.326 . S
N800 C804 1.362 . S
C801 C802 1.258 . S
C801 C804 1.431 . S
C801 C821 1.449 . S
C802 C801 1.258 . S
C802 C803 1.477 . S
C802 H822 0.931 . S
C803 C799 1.460 . S
C803 C802 1.477 . S
C803 H823 0.930 . S
C804 N800 1.362 . S
C804 C801 1.431 . S
C804 C814 1.476 . S
H805 C799 0.929 . S
C806 O797 1.250 . S
C806 O798 1.258 . S
O807 Mn792 2.162 . S
O807 C795 1.281 . S
O808 Mn792 2.297 . S
O808 C795 1.236 . S
N809 Mn793 2.282 . S
N809 C810 1.328 . S
N809 C814 1.318 . S
C810 N809 1.328 . S
C810 C811 1.457 . S
C810 H815 0.929 . S
C811 C810 1.457 . S
C811 C812 1.291 . S
C811 H824 0.931 . S
C812 C811 1.291 . S
C812 C813 1.373 . S
C812 H825 0.929 . S
C813 C812 1.373 . S
C813 C814 1.396 . S
C813 C820 1.403 . S
C814 C804 1.476 . S
C814 N809 1.318 . S
C814 C813 1.396 . S
H815 C810 0.929 . S
O816 Mn792 2.385 . S
O816 C794 1.234 . S
O817 Mn792 2.209 . S
O817 Mn793 2.215 . S
O817 C794 1.283 . S
O818 Mn792 2.094 . S
O818 C796 1.240 . S
O819 Mn793 2.117 . S
O819 C796 1.264 . S
C820 C813 1.403 . S
C820 C821 1.399 . S
C820 H826 0.929 . S
C821 C801 1.449 . S
C821 C820 1.399 . S
C821 H827 0.930 . S
H822 C802 0.931 . S
H823 C803 0.930 . S
H824 C811 0.931 . S
H825 C812 0.929 . S
H826 C820 0.929 . S
H827 C821 0.930 . S
Mn828 O833 2.095 . S
Mn828 O843 2.162 . S
Mn828 O844 2.297 . S
Mn828 O852 2.385 . S
Mn828 O853 2.209 . S
Mn828 O854 2.094 . S
Mn829 O834 2.121 . S
Mn829 N836 2.257 . S
Mn829 N845 2.282 . S
Mn829 O853 2.215 . S
Mn829 O855 2.117 . S
C830 O852 1.234 . S
C830 O853 1.283 . S
C831 O843 1.281 . S
C831 O844 1.236 . S
C832 O854 1.240 . S
C832 O855 1.264 . S
O833 Mn828 2.095 . S
O833 C842 1.250 . S
O834 Mn829 2.121 . S
O834 C842 1.258 . S
C835 N836 1.326 . S
C835 C839 1.460 . S
C835 H841 0.929 . S
N836 Mn829 2.257 . S
N836 C835 1.326 . S
N836 C840 1.362 . S
C837 C838 1.258 . S
C837 C840 1.431 . S
C837 C857 1.449 . S
C838 C837 1.258 . S
C838 C839 1.477 . S
C838 H858 0.931 . S
C839 C835 1.460 . S
C839 C838 1.477 . S
C839 H859 0.930 . S
C840 N836 1.362 . S
C840 C837 1.431 . S
C840 C850 1.476 . S
H841 C835 0.929 . S
C842 O833 1.250 . S
C842 O834 1.258 . S
O843 Mn828 2.162 . S
O843 C831 1.281 . S
O844 Mn828 2.297 . S
O844 C831 1.236 . S
N845 Mn829 2.282 . S
N845 C846 1.328 . S
N845 C850 1.318 . S
C846 N845 1.328 . S
C846 C847 1.457 . S
C846 H851 0.929 . S
C847 C846 1.457 . S
C847 C848 1.291 . S
C847 H860 0.931 . S
C848 C847 1.291 . S
C848 C849 1.373 . S
C848 H861 0.929 . S
C849 C848 1.373 . S
C849 C850 1.396 . S
C849 C856 1.403 . S
C850 C840 1.476 . S
C850 N845 1.318 . S
C850 C849 1.396 . S
H851 C846 0.929 . S
O852 Mn828 2.385 . S
O852 C830 1.234 . S
O853 Mn828 2.209 . S
O853 Mn829 2.215 . S
O853 C830 1.283 . S
O854 Mn828 2.094 . S
O854 C832 1.240 . S
O855 Mn829 2.117 . S
O855 C832 1.264 . S
C856 C849 1.403 . S
C856 C857 1.399 . S
C856 H862 0.929 . S
C857 C837 1.449 . S
C857 C856 1.399 . S
C857 H863 0.930 . S
H858 C838 0.931 . S
H859 C839 0.930 . S
H860 C847 0.931 . S
H861 C848 0.929 . S
H862 C856 0.929 . S
H863 C857 0.930 . S
Mn864 O869 2.095 . S
Mn864 O879 2.162 . S
Mn864 O880 2.297 . S
Mn864 O888 2.385 . S
Mn864 O889 2.209 . S
Mn864 O890 2.094 . S
Mn865 O870 2.121 . S
Mn865 N872 2.257 . S
Mn865 N881 2.282 . S
Mn865 O889 2.215 . S
Mn865 O891 2.117 . S
C866 O888 1.234 . S
C866 O889 1.283 . S
C867 O879 1.281 . S
C867 O880 1.236 . S
C868 O890 1.240 . S
C868 O891 1.264 . S
O869 Mn864 2.095 . S
O869 C878 1.250 . S
O870 Mn865 2.121 . S
O870 C878 1.258 . S
C871 N872 1.326 . S
C871 C875 1.460 . S
C871 H877 0.929 . S
N872 Mn865 2.257 . S
N872 C871 1.326 . S
N872 C876 1.362 . S
C873 C874 1.258 . S
C873 C876 1.431 . S
C873 C893 1.449 1_455 S
C874 C873 1.258 . S
C874 C875 1.477 . S
C874 H894 0.931 . S
C875 C871 1.460 . S
C875 C874 1.477 . S
C875 H895 0.930 . S
C876 N872 1.362 . S
C876 C873 1.431 . S
C876 C886 1.476 . S
H877 C871 0.929 . S
C878 O869 1.250 . S
C878 O870 1.258 . S
O879 Mn864 2.162 . S
O879 C867 1.281 . S
O880 Mn864 2.297 . S
O880 C867 1.236 . S
N881 Mn865 2.282 . S
N881 C882 1.328 . S
N881 C886 1.318 . S
C882 N881 1.328 . S
C882 C883 1.457 . S
C882 H887 0.929 . S
C883 C882 1.457 . S
C883 C884 1.291 1_455 S
C883 H896 0.931 . S
C884 C883 1.291 1_655 S
C884 C885 1.356 1_655 S
C884 H897 0.929 . S
C885 C884 1.356 1_455 S
C885 C886 1.446 . S
C885 C892 1.373 1_455 S
C886 C876 1.476 . S
C886 N881 1.318 . S
C886 C885 1.446 . S
H887 C882 0.929 . S
O888 Mn864 2.385 . S
O888 C866 1.234 . S
O889 Mn864 2.209 . S
O889 Mn865 2.215 . S
O889 C866 1.283 . S
O890 Mn864 2.094 . S
O890 C868 1.240 . S
O891 Mn865 2.117 . S
O891 C868 1.264 . S
C892 C885 1.373 1_655 S
C892 C893 1.399 . S
C892 H898 0.929 . S
C893 C873 1.449 1_655 S
C893 C892 1.399 . S
C893 H899 0.930 . S
H894 C874 0.931 . S
H895 C875 0.930 . S
H896 C883 0.931 . S
H897 C884 0.929 . S
H898 C892 0.929 . S
H899 C893 0.930 . S
Mn900 O905 2.095 . S
Mn900 O915 2.162 . S
Mn900 O916 2.297 . S
Mn900 O924 2.385 . S
Mn900 O925 2.209 . S
Mn900 O926 2.094 . S
Mn901 O906 2.121 . S
Mn901 N908 2.257 . S
Mn901 N917 2.282 . S
Mn901 O925 2.215 . S
Mn901 O927 2.117 . S
C902 O924 1.234 . S
C902 O925 1.283 . S
C903 O915 1.281 . S
C903 O916 1.236 . S
C904 O926 1.240 . S
C904 O927 1.264 . S
O905 Mn900 2.095 . S
O905 C914 1.250 . S
O906 Mn901 2.121 . S
O906 C914 1.258 . S
C907 N908 1.326 . S
C907 C911 1.460 . S
C907 H913 0.929 . S
N908 Mn901 2.257 . S
N908 C907 1.326 . S
N908 C912 1.362 . S
C909 C910 1.258 . S
C909 C912 1.431 . S
C909 C929 1.449 . S
C910 C909 1.258 . S
C910 C911 1.477 . S
C910 H930 0.931 . S
C911 C907 1.460 . S
C911 C910 1.477 . S
C911 H931 0.930 . S
C912 N908 1.362 . S
C912 C909 1.431 . S
C912 C922 1.476 . S
H913 C907 0.929 . S
C914 O905 1.250 . S
C914 O906 1.258 . S
O915 Mn900 2.162 . S
O915 C903 1.281 . S
O916 Mn900 2.297 . S
O916 C903 1.236 . S
N917 Mn901 2.282 . S
N917 C918 1.328 . S
N917 C922 1.318 . S
C918 N917 1.328 . S
C918 C919 1.457 . S
C918 H923 0.929 . S
C919 C918 1.457 . S
C919 C920 1.291 . S
C919 H932 0.931 . S
C920 C919 1.291 . S
C920 C921 1.373 . S
C920 H933 0.929 . S
C921 C920 1.373 . S
C921 C922 1.396 . S
C921 C928 1.403 . S
C922 C912 1.476 . S
C922 N917 1.318 . S
C922 C921 1.396 . S
H923 C918 0.929 . S
O924 Mn900 2.385 . S
O924 C902 1.234 . S
O925 Mn900 2.209 . S
O925 Mn901 2.215 . S
O925 C902 1.283 . S
O926 Mn900 2.094 . S
O926 C904 1.240 . S
O927 Mn901 2.117 . S
O927 C904 1.264 . S
C928 C921 1.403 . S
C928 C929 1.399 . S
C928 H934 0.929 . S
C929 C909 1.449 . S
C929 C928 1.399 . S
C929 H935 0.930 . S
H930 C910 0.931 . S
H931 C911 0.930 . S
H932 C919 0.931 . S
H933 C920 0.929 . S
H934 C928 0.929 . S
H935 C929 0.930 . S
Mn936 O941 2.095 . S
Mn936 O951 2.162 . S
Mn936 O952 2.297 . S
Mn936 O960 2.385 . S
Mn936 O961 2.209 . S
Mn936 O962 2.094 . S
Mn937 O942 2.121 . S
Mn937 N944 2.257 . S
Mn937 N953 2.282 . S
Mn937 O961 2.215 . S
Mn937 O963 2.117 . S
C938 O960 1.234 . S
C938 O961 1.283 . S
C939 O951 1.281 . S
C939 O952 1.236 . S
C940 O962 1.240 . S
C940 O963 1.264 . S
O941 Mn936 2.095 . S
O941 C950 1.250 . S
O942 Mn937 2.121 . S
O942 C950 1.258 . S
C943 N944 1.326 . S
C943 C947 1.460 . S
C943 H949 0.929 . S
N944 Mn937 2.257 . S
N944 C943 1.326 . S
N944 C948 1.362 . S
C945 C946 1.258 . S
C945 C948 1.431 . S
C945 C965 1.449 . S
C946 C945 1.258 . S
C946 C947 1.477 . S
C946 H966 0.931 . S
C947 C943 1.460 . S
C947 C946 1.477 . S
C947 H967 0.930 . S
C948 N944 1.362 . S
C948 C945 1.431 . S
C948 C958 1.476 . S
H949 C943 0.929 . S
C950 O941 1.250 . S
C950 O942 1.258 . S
O951 Mn936 2.162 . S
O951 C939 1.281 . S
O952 Mn936 2.297 . S
O952 C939 1.236 . S
N953 Mn937 2.282 . S
N953 C954 1.328 . S
N953 C958 1.318 . S
C954 N953 1.328 . S
C954 C955 1.457 . S
C954 H959 0.929 . S
C955 C954 1.457 . S
C955 C956 1.291 . S
C955 H968 0.931 . S
C956 C955 1.291 . S
C956 C957 1.373 . S
C956 H969 0.929 . S
C957 C956 1.373 . S
C957 C958 1.396 . S
C957 C964 1.403 . S
C958 C948 1.476 . S
C958 N953 1.318 . S
C958 C957 1.396 . S
H959 C954 0.929 . S
O960 Mn936 2.385 . S
O960 C938 1.234 . S
O961 Mn936 2.209 . S
O961 Mn937 2.215 . S
O961 C938 1.283 . S
O962 Mn936 2.094 . S
O962 C940 1.240 . S
O963 Mn937 2.117 . S
O963 C940 1.264 . S
C964 C957 1.403 . S
C964 C965 1.399 . S
C964 H970 0.929 . S
C965 C945 1.449 . S
C965 C964 1.399 . S
C965 H971 0.930 . S
H966 C946 0.931 . S
H967 C947 0.930 . S
H968 C955 0.931 . S
H969 C956 0.929 . S
H970 C964 0.929 . S
H971 C965 0.930 . S
Mn972 O977 2.095 . S
Mn972 O987 2.162 . S
Mn972 O988 2.297 . S
Mn972 O996 2.385 . S
Mn972 O997 2.209 . S
Mn972 O998 2.094 . S
Mn973 O978 2.121 . S
Mn973 N980 2.257 . S
Mn973 N989 2.282 . S
Mn973 O997 2.215 . S
Mn973 O999 2.117 . S
C974 O996 1.234 . S
C974 O997 1.283 . S
C975 O987 1.281 . S
C975 O988 1.236 . S
C976 O998 1.240 . S
C976 O999 1.264 . S
O977 Mn972 2.095 . S
O977 C986 1.250 . S
O978 Mn973 2.121 . S
O978 C986 1.258 . S
C979 N980 1.326 . S
C979 C983 1.460 . S
C979 H985 0.929 . S
N980 Mn973 2.257 . S
N980 C979 1.326 . S
N980 C984 1.362 . S
C981 C982 1.258 . S
C981 C984 1.431 . S
C981 C1001 1.449 . S
C982 C981 1.258 . S
C982 C983 1.477 . S
C982 H1002 0.931 . S
C983 C979 1.460 . S
C983 C982 1.477 . S
C983 H1003 0.930 . S
C984 N980 1.362 . S
C984 C981 1.431 . S
C984 C994 1.476 . S
H985 C979 0.929 . S
C986 O977 1.250 . S
C986 O978 1.258 . S
O987 Mn972 2.162 . S
O987 C975 1.281 . S
O988 Mn972 2.297 . S
O988 C975 1.236 . S
N989 Mn973 2.282 . S
N989 C990 1.328 . S
N989 C994 1.318 . S
C990 N989 1.328 . S
C990 C991 1.457 . S
C990 H995 0.929 . S
C991 C990 1.457 . S
C991 C992 1.291 . S
C991 H1004 0.931 . S
C992 C991 1.291 . S
C992 C993 1.373 . S
C992 H1005 0.929 . S
C993 C992 1.373 . S
C993 C994 1.396 . S
C993 C1000 1.403 . S
C994 C984 1.476 . S
C994 N989 1.318 . S
C994 C993 1.396 . S
H995 C990 0.929 . S
O996 Mn972 2.385 . S
O996 C974 1.234 . S
O997 Mn972 2.209 . S
O997 Mn973 2.215 . S
O997 C974 1.283 . S
O998 Mn972 2.094 . S
O998 C976 1.240 . S
O999 Mn973 2.117 . S
O999 C976 1.264 . S
C1000 C993 1.403 . S
C1000 C1001 1.399 . S
C1000 H1006 0.929 . S
C1001 C981 1.449 . S
C1001 C1000 1.399 . S
C1001 H1007 0.930 . S
H1002 C982 0.931 . S
H1003 C983 0.930 . S
H1004 C991 0.931 . S
H1005 C992 0.929 . S
H1006 C1000 0.929 . S
H1007 C1001 0.930 . S
Mn1008 O1013 2.095 . S
Mn1008 O1023 2.162 . S
Mn1008 O1024 2.297 . S
Mn1008 O1032 2.385 . S
Mn1008 O1033 2.209 . S
Mn1008 O1034 2.094 . S
Mn1009 O1014 2.121 . S
Mn1009 N1016 2.257 . S
Mn1009 N1025 2.282 . S
Mn1009 O1033 2.215 . S
Mn1009 O1035 2.117 . S
C1010 O1032 1.234 . S
C1010 O1033 1.283 . S
C1011 O1023 1.281 . S
C1011 O1024 1.236 . S
C1012 O1034 1.240 . S
C1012 O1035 1.264 . S
O1013 Mn1008 2.095 . S
O1013 C1022 1.250 . S
O1014 Mn1009 2.121 . S
O1014 C1022 1.258 . S
C1015 N1016 1.326 . S
C1015 C1019 1.460 . S
C1015 H1021 0.929 . S
N1016 Mn1009 2.257 . S
N1016 C1015 1.326 . S
N1016 C1020 1.362 . S
C1017 C1018 1.258 . S
C1017 C1020 1.431 . S
C1017 C1037 1.449 1_455 S
C1018 C1017 1.258 . S
C1018 C1019 1.477 . S
C1018 H1038 0.931 . S
C1019 C1015 1.460 . S
C1019 C1018 1.477 . S
C1019 H1039 0.930 . S
C1020 N1016 1.362 . S
C1020 C1017 1.431 . S
C1020 C1030 1.476 . S
H1021 C1015 0.929 . S
C1022 O1013 1.250 . S
C1022 O1014 1.258 . S
O1023 Mn1008 2.162 . S
O1023 C1011 1.281 . S
O1024 Mn1008 2.297 . S
O1024 C1011 1.236 . S
N1025 Mn1009 2.282 . S
N1025 C1026 1.328 . S
N1025 C1030 1.318 . S
C1026 N1025 1.328 . S
C1026 C1027 1.457 . S
C1026 H1031 0.929 . S
C1027 C1026 1.457 . S
C1027 C1028 1.291 1_455 S
C1027 H1040 0.931 . S
C1028 C1027 1.291 1_655 S
C1028 C1029 1.356 1_655 S
C1028 H1041 0.929 . S
C1029 C1028 1.356 1_455 S
C1029 C1030 1.446 . S
C1029 C1036 1.373 1_455 S
C1030 C1020 1.476 . S
C1030 N1025 1.318 . S
C1030 C1029 1.446 . S
H1031 C1026 0.929 . S
O1032 Mn1008 2.385 . S
O1032 C1010 1.234 . S
O1033 Mn1008 2.209 . S
O1033 Mn1009 2.215 . S
O1033 C1010 1.283 . S
O1034 Mn1008 2.094 . S
O1034 C1012 1.240 . S
O1035 Mn1009 2.117 . S
O1035 C1012 1.264 . S
C1036 C1029 1.373 1_655 S
C1036 C1037 1.399 . S
C1036 H1042 0.929 . S
C1037 C1017 1.449 1_655 S
C1037 C1036 1.399 . S
C1037 H1043 0.930 . S
H1038 C1018 0.931 . S
H1039 C1019 0.930 . S
H1040 C1027 0.931 . S
H1041 C1028 0.929 . S
H1042 C1036 0.929 . S
H1043 C1037 0.930 . S
Mn1044 O1049 2.095 . S
Mn1044 O1059 2.162 . S
Mn1044 O1060 2.297 . S
Mn1044 O1068 2.385 . S
Mn1044 O1069 2.209 . S
Mn1044 O1070 2.094 . S
Mn1045 O1050 2.121 . S
Mn1045 N1052 2.257 . S
Mn1045 N1061 2.282 . S
Mn1045 O1069 2.215 . S
Mn1045 O1071 2.117 . S
C1046 O1068 1.234 . S
C1046 O1069 1.283 . S
C1047 O1059 1.281 . S
C1047 O1060 1.236 . S
C1048 O1070 1.240 . S
C1048 O1071 1.264 . S
O1049 Mn1044 2.095 . S
O1049 C1058 1.250 . S
O1050 Mn1045 2.121 . S
O1050 C1058 1.258 . S
C1051 N1052 1.326 . S
C1051 C1055 1.460 . S
C1051 H1057 0.929 . S
N1052 Mn1045 2.257 . S
N1052 C1051 1.326 . S
N1052 C1056 1.362 . S
C1053 C1054 1.258 . S
C1053 C1056 1.431 . S
C1053 C1073 1.449 . S
C1054 C1053 1.258 . S
C1054 C1055 1.477 . S
C1054 H1074 0.931 . S
C1055 C1051 1.460 . S
C1055 C1054 1.477 . S
C1055 H1075 0.930 . S
C1056 N1052 1.362 . S
C1056 C1053 1.431 . S
C1056 C1066 1.476 . S
H1057 C1051 0.929 . S
C1058 O1049 1.250 . S
C1058 O1050 1.258 . S
O1059 Mn1044 2.162 . S
O1059 C1047 1.281 . S
O1060 Mn1044 2.297 . S
O1060 C1047 1.236 . S
N1061 Mn1045 2.282 . S
N1061 C1062 1.328 . S
N1061 C1066 1.318 . S
C1062 N1061 1.328 . S
C1062 C1063 1.457 . S
C1062 H1067 0.929 . S
C1063 C1062 1.457 . S
C1063 C1064 1.291 . S
C1063 H1076 0.931 . S
C1064 C1063 1.291 . S
C1064 C1065 1.373 . S
C1064 H1077 0.929 . S
C1065 C1064 1.373 . S
C1065 C1066 1.396 . S
C1065 C1072 1.403 . S
C1066 C1056 1.476 . S
C1066 N1061 1.318 . S
C1066 C1065 1.396 . S
H1067 C1062 0.929 . S
O1068 Mn1044 2.385 . S
O1068 C1046 1.234 . S
O1069 Mn1044 2.209 . S
O1069 Mn1045 2.215 . S
O1069 C1046 1.283 . S
O1070 Mn1044 2.094 . S
O1070 C1048 1.240 . S
O1071 Mn1045 2.117 . S
O1071 C1048 1.264 . S
C1072 C1065 1.403 . S
C1072 C1073 1.399 . S
C1072 H1078 0.929 . S
C1073 C1053 1.449 . S
C1073 C1072 1.399 . S
C1073 H1079 0.930 . S
H1074 C1054 0.931 . S
H1075 C1055 0.930 . S
H1076 C1063 0.931 . S
H1077 C1064 0.929 . S
H1078 C1072 0.929 . S
H1079 C1073 0.930 . S
Mn1080 O1085 2.095 . S
Mn1080 O1095 2.162 . S
Mn1080 O1096 2.297 . S
Mn1080 O1104 2.385 . S
Mn1080 O1105 2.209 . S
Mn1080 O1106 2.094 . S
Mn1081 O1086 2.121 . S
Mn1081 N1088 2.257 . S
Mn1081 N1097 2.282 . S
Mn1081 O1105 2.215 . S
Mn1081 O1107 2.117 . S
C1082 O1104 1.234 . S
C1082 O1105 1.283 . S
C1083 O1095 1.281 . S
C1083 O1096 1.236 . S
C1084 O1106 1.240 . S
C1084 O1107 1.264 . S
O1085 Mn1080 2.095 . S
O1085 C1094 1.250 . S
O1086 Mn1081 2.121 . S
O1086 C1094 1.258 . S
C1087 N1088 1.326 . S
C1087 C1091 1.460 . S
C1087 H1093 0.929 . S
N1088 Mn1081 2.257 . S
N1088 C1087 1.326 . S
N1088 C1092 1.362 . S
C1089 C1090 1.258 . S
C1089 C1092 1.431 . S
C1089 C1109 1.449 . S
C1090 C1089 1.258 . S
C1090 C1091 1.477 . S
C1090 H1110 0.931 . S
C1091 C1087 1.460 . S
C1091 C1090 1.477 . S
C1091 H1111 0.930 . S
C1092 N1088 1.362 . S
C1092 C1089 1.431 . S
C1092 C1102 1.476 . S
H1093 C1087 0.929 . S
C1094 O1085 1.250 . S
C1094 O1086 1.258 . S
O1095 Mn1080 2.162 . S
O1095 C1083 1.281 . S
O1096 Mn1080 2.297 . S
O1096 C1083 1.236 . S
N1097 Mn1081 2.282 . S
N1097 C1098 1.328 . S
N1097 C1102 1.318 . S
C1098 N1097 1.328 . S
C1098 C1099 1.457 . S
C1098 H1103 0.929 . S
C1099 C1098 1.457 . S
C1099 C1100 1.291 . S
C1099 H1112 0.931 . S
C1100 C1099 1.291 . S
C1100 C1101 1.373 . S
C1100 H1113 0.929 . S
C1101 C1100 1.373 . S
C1101 C1102 1.396 . S
C1101 C1108 1.403 . S
C1102 C1092 1.476 . S
C1102 N1097 1.318 . S
C1102 C1101 1.396 . S
H1103 C1098 0.929 . S
O1104 Mn1080 2.385 . S
O1104 C1082 1.234 . S
O1105 Mn1080 2.209 . S
O1105 Mn1081 2.215 . S
O1105 C1082 1.283 . S
O1106 Mn1080 2.094 . S
O1106 C1084 1.240 . S
O1107 Mn1081 2.117 . S
O1107 C1084 1.264 . S
C1108 C1101 1.403 . S
C1108 C1109 1.399 . S
C1108 H1114 0.929 . S
C1109 C1089 1.449 . S
C1109 C1108 1.399 . S
C1109 H1115 0.930 . S
H1110 C1090 0.931 . S
H1111 C1091 0.930 . S
H1112 C1099 0.931 . S
H1113 C1100 0.929 . S
H1114 C1108 0.929 . S
H1115 C1109 0.930 . S
Mn1116 O1121 2.095 . S
Mn1116 O1131 2.162 . S
Mn1116 O1132 2.297 . S
Mn1116 O1140 2.385 . S
Mn1116 O1141 2.209 . S
Mn1116 O1142 2.094 . S
Mn1117 O1122 2.121 . S
Mn1117 N1124 2.257 . S
Mn1117 N1133 2.282 . S
Mn1117 O1141 2.215 . S
Mn1117 O1143 2.117 . S
C1118 O1140 1.234 . S
C1118 O1141 1.283 . S
C1119 O1131 1.281 . S
C1119 O1132 1.236 . S
C1120 O1142 1.240 . S
C1120 O1143 1.264 . S
O1121 Mn1116 2.095 . S
O1121 C1130 1.250 . S
O1122 Mn1117 2.121 . S
O1122 C1130 1.258 . S
C1123 N1124 1.326 . S
C1123 C1127 1.460 . S
C1123 H1129 0.929 . S
N1124 Mn1117 2.257 . S
N1124 C1123 1.326 . S
N1124 C1128 1.362 . S
C1125 C1126 1.258 . S
C1125 C1128 1.431 . S
C1125 C1145 1.449 . S
C1126 C1125 1.258 . S
C1126 C1127 1.477 . S
C1126 H1146 0.931 . S
C1127 C1123 1.460 . S
C1127 C1126 1.477 . S
C1127 H1147 0.930 . S
C1128 N1124 1.362 . S
C1128 C1125 1.431 . S
C1128 C1138 1.476 . S
H1129 C1123 0.929 . S
C1130 O1121 1.250 . S
C1130 O1122 1.258 . S
O1131 Mn1116 2.162 . S
O1131 C1119 1.281 . S
O1132 Mn1116 2.297 . S
O1132 C1119 1.236 . S
N1133 Mn1117 2.282 . S
N1133 C1134 1.328 . S
N1133 C1138 1.318 . S
C1134 N1133 1.328 . S
C1134 C1135 1.457 . S
C1134 H1139 0.929 . S
C1135 C1134 1.457 . S
C1135 C1136 1.291 . S
C1135 H1148 0.931 . S
C1136 C1135 1.291 . S
C1136 C1137 1.373 . S
C1136 H1149 0.929 . S
C1137 C1136 1.373 . S
C1137 C1138 1.396 . S
C1137 C1144 1.403 . S
C1138 C1128 1.476 . S
C1138 N1133 1.318 . S
C1138 C1137 1.396 . S
H1139 C1134 0.929 . S
O1140 Mn1116 2.385 . S
O1140 C1118 1.234 . S
O1141 Mn1116 2.209 . S
O1141 Mn1117 2.215 . S
O1141 C1118 1.283 . S
O1142 Mn1116 2.094 . S
O1142 C1120 1.240 . S
O1143 Mn1117 2.117 . S
O1143 C1120 1.264 . S
C1144 C1137 1.403 . S
C1144 C1145 1.399 . S
C1144 H1150 0.929 . S
C1145 C1125 1.449 . S
C1145 C1144 1.399 . S
C1145 H1151 0.930 . S
H1146 C1126 0.931 . S
H1147 C1127 0.930 . S
H1148 C1135 0.931 . S
H1149 C1136 0.929 . S
H1150 C1144 0.929 . S
H1151 C1145 0.930 . S
H1152 C1160 0.929 . S
H1153 C1162 0.930 . S
H1154 C1164 0.930 . S
H1155 C1167 0.929 . S
H1156 C1170 0.930 . S
H1157 C1172 0.960 . S
H1158 C1172 0.960 . S
H1159 C1172 0.960 . S
C1160 H1152 0.929 . S
C1160 C1161 1.377 . S
C1160 C1162 1.384 . S
C1161 C1160 1.377 . S
C1161 C1167 1.390 . S
C1162 H1153 0.930 . S
C1162 C1160 1.384 . S
C1162 C1163 1.372 . S
C1163 C1162 1.372 . S
C1163 C1164 1.400 . S
C1163 C1168 1.490 . S
C1164 H1154 0.930 . S
C1164 C1163 1.400 . S
C1164 C1167 1.386 . S
H1165 C1181 0.930 . S
H1166 C1182 0.931 . S
C1167 H1155 0.929 . S
C1167 C1161 1.390 . S
C1167 C1164 1.386 . S
C1168 C1163 1.490 . S
C1168 C1170 1.395 1_565 S
C1168 C1171 1.403 . S
H1169 C1175 0.930 . S
C1170 H1156 0.930 . S
C1170 C1168 1.395 1_545 S
C1170 C1173 1.403 . S
C1171 C1168 1.403 . S
C1171 C1172 1.524 . S
C1171 C1175 1.400 . S
C1172 H1157 0.960 . S
C1172 H1158 0.960 . S
C1172 H1159 0.960 . S
C1172 C1171 1.524 . S
C1173 C1170 1.403 . S
C1173 C1174 1.392 . S
C1173 C1177 1.495 . S
C1174 C1173 1.392 . S
C1174 C1175 1.385 1_545 S
C1174 C1176 1.478 . S
C1175 H1169 0.930 . S
C1175 C1171 1.400 . S
C1175 C1174 1.385 1_565 S
C1176 C1174 1.478 . S
C1176 C1178 1.381 . S
C1176 C1182 1.383 . S
C1177 C1173 1.495 . S
C1177 H1183 0.959 . S
C1177 H1184 0.961 . S
C1177 H1185 0.960 . S
C1178 C1176 1.381 . S
C1178 C1179 1.394 . S
C1178 H1186 0.930 . S
C1179 C1178 1.394 . S
C1179 C1180 1.383 . S
C1179 H1187 0.929 . S
C1180 C1179 1.383 . S
C1180 C1181 1.377 . S
C1181 H1165 0.930 . S
C1181 C1180 1.377 . S
C1181 C1182 1.379 . S
C1182 H1166 0.931 . S
C1182 C1176 1.383 . S
C1182 C1181 1.379 . S
H1183 C1177 0.959 . S
H1184 C1177 0.961 . S
H1185 C1177 0.960 . S
H1186 C1178 0.930 . S
H1187 C1179 0.929 . S
H1188 C1196 0.929 . S
H1189 C1198 0.930 . S
H1190 C1200 0.930 . S
H1191 C1203 0.929 . S
H1192 C1206 0.930 . S
H1193 C1208 0.960 . S
H1194 C1208 0.960 . S
H1195 C1208 0.960 . S
C1196 H1188 0.929 . S
C1196 C1197 1.377 . S
C1196 C1198 1.384 . S
C1197 C1196 1.377 . S
C1197 C1203 1.390 . S
C1198 H1189 0.930 . S
C1198 C1196 1.384 . S
C1198 C1199 1.372 . S
C1199 C1198 1.372 . S
C1199 C1200 1.400 . S
C1199 C1204 1.490 . S
C1200 H1190 0.930 . S
C1200 C1199 1.400 . S
C1200 C1203 1.386 . S
H1201 C1217 0.930 . S
H1202 C1218 0.931 . S
C1203 H1191 0.929 . S
C1203 C1197 1.390 . S
C1203 C1200 1.386 . S
C1204 C1199 1.490 . S
C1204 C1206 1.395 . S
C1204 C1207 1.403 . S
H1205 C1211 0.930 . S
C1206 H1192 0.930 . S
C1206 C1204 1.395 . S
C1206 C1209 1.403 . S
C1207 C1204 1.403 . S
C1207 C1208 1.524 . S
C1207 C1211 1.400 . S
C1208 H1193 0.960 . S
C1208 H1194 0.960 . S
C1208 H1195 0.960 . S
C1208 C1207 1.524 . S
C1209 C1206 1.403 . S
C1209 C1210 1.392 . S
C1209 C1213 1.495 . S
C1210 C1209 1.392 . S
C1210 C1211 1.385 . S
C1210 C1212 1.478 . S
C1211 H1205 0.930 . S
C1211 C1207 1.400 . S
C1211 C1210 1.385 . S
C1212 C1210 1.478 . S
C1212 C1214 1.381 . S
C1212 C1218 1.383 . S
C1213 C1209 1.495 . S
C1213 H1219 0.959 . S
C1213 H1220 0.961 . S
C1213 H1221 0.960 . S
C1214 C1212 1.381 . S
C1214 C1215 1.394 . S
C1214 H1222 0.930 . S
C1215 C1214 1.394 . S
C1215 C1216 1.383 . S
C1215 H1223 0.929 . S
C1216 C1215 1.383 . S
C1216 C1217 1.377 . S
C1217 H1201 0.930 . S
C1217 C1216 1.377 . S
C1217 C1218 1.379 . S
C1218 H1202 0.931 . S
C1218 C1212 1.383 . S
C1218 C1217 1.379 . S
H1219 C1213 0.959 . S
H1220 C1213 0.961 . S
H1221 C1213 0.960 . S
H1222 C1214 0.930 . S
H1223 C1215 0.929 . S
H1224 C1232 0.929 . S
H1225 C1234 0.930 . S
H1226 C1236 0.930 . S
H1227 C1239 0.929 . S
H1228 C1242 0.930 . S
H1229 C1244 0.960 . S
H1230 C1244 0.960 . S
H1231 C1244 0.960 . S
C1232 H1224 0.929 . S
C1232 C1233 1.377 . S
C1232 C1234 1.384 . S
C1233 C1232 1.377 . S
C1233 C1239 1.390 . S
C1234 H1225 0.930 . S
C1234 C1232 1.384 . S
C1234 C1235 1.372 . S
C1235 C1234 1.372 . S
C1235 C1236 1.400 . S
C1235 C1240 1.490 . S
C1236 H1226 0.930 . S
C1236 C1235 1.400 . S
C1236 C1239 1.386 . S
H1237 C1253 0.930 . S
H1238 C1254 0.931 . S
C1239 H1227 0.929 . S
C1239 C1233 1.390 . S
C1239 C1236 1.386 . S
C1240 C1235 1.490 . S
C1240 C1242 1.395 1_545 S
C1240 C1243 1.403 . S
H1241 C1247 0.930 . S
C1242 H1228 0.930 . S
C1242 C1240 1.395 1_565 S
C1242 C1245 1.403 . S
C1243 C1240 1.403 . S
C1243 C1244 1.524 . S
C1243 C1247 1.400 . S
C1244 H1229 0.960 . S
C1244 H1230 0.960 . S
C1244 H1231 0.960 . S
C1244 C1243 1.524 . S
C1245 C1242 1.403 . S
C1245 C1246 1.392 . S
C1245 C1249 1.495 . S
C1246 C1245 1.392 . S
C1246 C1247 1.385 1_565 S
C1246 C1248 1.478 . S
C1247 H1241 0.930 . S
C1247 C1243 1.400 . S
C1247 C1246 1.385 1_545 S
C1248 C1246 1.478 . S
C1248 C1250 1.381 . S
C1248 C1254 1.383 . S
C1249 C1245 1.495 . S
C1249 H1255 0.959 . S
C1249 H1256 0.961 . S
C1249 H1257 0.960 . S
C1250 C1248 1.381 . S
C1250 C1251 1.394 . S
C1250 H1258 0.930 . S
C1251 C1250 1.394 . S
C1251 C1252 1.383 . S
C1251 H1259 0.929 . S
C1252 C1251 1.383 . S
C1252 C1253 1.377 . S
C1253 H1237 0.930 . S
C1253 C1252 1.377 . S
C1253 C1254 1.379 . S
C1254 H1238 0.931 . S
C1254 C1248 1.383 . S
C1254 C1253 1.379 . S
H1255 C1249 0.959 . S
H1256 C1249 0.961 . S
H1257 C1249 0.960 . S
H1258 C1250 0.930 . S
H1259 C1251 0.929 . S
H1260 C1268 0.929 . S
H1261 C1270 0.930 . S
H1262 C1272 0.930 . S
H1263 C1275 0.929 . S
H1264 C1278 0.930 . S
H1265 C1280 0.960 1_554 S
H1266 C1280 0.960 . S
H1267 C1280 0.960 . S
C1268 H1260 0.929 . S
C1268 C1269 1.377 . S
C1268 C1270 1.384 . S
C1269 C1268 1.377 . S
C1269 C1275 1.390 . S
C1270 H1261 0.930 . S
C1270 C1268 1.384 . S
C1270 C1271 1.372 . S
C1271 C1270 1.372 . S
C1271 C1272 1.400 . S
C1271 C1276 1.490 . S
C1272 H1262 0.930 . S
C1272 C1271 1.400 . S
C1272 C1275 1.386 . S
H1273 C1289 0.930 . S
H1274 C1290 0.931 . S
C1275 H1263 0.929 . S
C1275 C1269 1.390 . S
C1275 C1272 1.386 . S
C1276 C1271 1.490 . S
C1276 C1278 1.395 . S
C1276 C1279 1.403 . S
H1277 C1283 0.930 . S
C1278 H1264 0.930 . S
C1278 C1276 1.395 . S
C1278 C1281 1.403 1_556 S
C1279 C1276 1.403 . S
C1279 C1280 1.524 . S
C1279 C1283 1.400 1_556 S
C1280 H1265 0.960 1_556 S
C1280 H1266 0.960 . S
C1280 H1267 0.960 . S
C1280 C1279 1.524 . S
C1281 C1278 1.403 1_554 S
C1281 C1282 1.392 . S
C1281 C1285 1.495 . S
C1282 C1281 1.392 . S
C1282 C1283 1.385 . S
C1282 C1284 1.478 . S
C1283 H1277 0.930 . S
C1283 C1279 1.400 1_554 S
C1283 C1282 1.385 . S
C1284 C1282 1.478 . S
C1284 C1286 1.381 . S
C1284 C1290 1.383 . S
C1285 C1281 1.495 . S
C1285 H1291 0.959 1_554 S
C1285 H1292 0.961 . S
C1285 H1293 0.960 . S
C1286 C1284 1.381 . S
C1286 C1287 1.394 . S
C1286 H1294 0.930 . S
C1287 C1286 1.394 . S
C1287 C1288 1.383 . S
C1287 H1295 0.929 . S
C1288 C1287 1.383 . S
C1288 C1289 1.377 . S
C1289 H1273 0.930 . S
C1289 C1288 1.377 . S
C1289 C1290 1.379 . S
C1290 H1274 0.931 . S
C1290 C1284 1.383 . S
C1290 C1289 1.379 . S
H1291 C1285 0.959 1_556 S
H1292 C1285 0.961 . S
H1293 C1285 0.960 . S
H1294 C1286 0.930 . S
H1295 C1287 0.929 . S
H1296 C1304 0.929 . S
H1297 C1306 0.930 . S
H1298 C1308 0.930 . S
H1299 C1311 0.929 . S
H1300 C1314 0.930 . S
H1301 C1316 0.960 . S
H1302 C1316 0.960 . S
H1303 C1316 0.960 . S
C1304 H1296 0.929 . S
C1304 C1305 1.377 . S
C1304 C1306 1.384 . S
C1305 C1304 1.377 . S
C1305 C1311 1.390 . S
C1306 H1297 0.930 . S
C1306 C1304 1.384 . S
C1306 C1307 1.372 . S
C1307 C1306 1.372 . S
C1307 C1308 1.400 . S
C1307 C1312 1.490 . S
C1308 H1298 0.930 . S
C1308 C1307 1.400 . S
C1308 C1311 1.386 . S
H1309 C1325 0.930 . S
H1310 C1326 0.931 . S
C1311 H1299 0.929 . S
C1311 C1305 1.390 . S
C1311 C1308 1.386 . S
C1312 C1307 1.490 . S
C1312 C1314 1.395 1_565 S
C1312 C1315 1.403 . S
H1313 C1319 0.930 . S
C1314 H1300 0.930 . S
C1314 C1312 1.395 1_545 S
C1314 C1317 1.403 . S
C1315 C1312 1.403 . S
C1315 C1316 1.524 . S
C1315 C1319 1.400 . S
C1316 H1301 0.960 . S
C1316 H1302 0.960 . S
C1316 H1303 0.960 . S
C1316 C1315 1.524 . S
C1317 C1314 1.403 . S
C1317 C1318 1.392 . S
C1317 C1321 1.495 . S
C1318 C1317 1.392 . S
C1318 C1319 1.385 1_545 S
C1318 C1320 1.478 . S
C1319 H1313 0.930 . S
C1319 C1315 1.400 . S
C1319 C1318 1.385 1_565 S
C1320 C1318 1.478 . S
C1320 C1322 1.381 . S
C1320 C1326 1.383 . S
C1321 C1317 1.495 . S
C1321 H1327 0.959 . S
C1321 H1328 0.961 . S
C1321 H1329 0.960 . S
C1322 C1320 1.381 . S
C1322 C1323 1.394 . S
C1322 H1330 0.930 . S
C1323 C1322 1.394 . S
C1323 C1324 1.383 . S
C1323 H1331 0.929 . S
C1324 C1323 1.383 . S
C1324 C1325 1.377 . S
C1325 H1309 0.930 . S
C1325 C1324 1.377 . S
C1325 C1326 1.379 . S
C1326 H1310 0.931 . S
C1326 C1320 1.383 . S
C1326 C1325 1.379 . S
H1327 C1321 0.959 . S
H1328 C1321 0.961 . S
H1329 C1321 0.960 . S
H1330 C1322 0.930 . S
H1331 C1323 0.929 . S
H1332 C1340 0.929 . S
H1333 C1342 0.930 . S
H1334 C1344 0.930 . S
H1335 C1347 0.929 . S
H1336 C1350 0.930 . S
H1337 C1352 0.960 . S
H1338 C1352 0.960 . S
H1339 C1352 0.960 . S
C1340 H1332 0.929 . S
C1340 C1341 1.377 . S
C1340 C1342 1.384 . S
C1341 C1340 1.377 . S
C1341 C1347 1.390 . S
C1342 H1333 0.930 . S
C1342 C1340 1.384 . S
C1342 C1343 1.372 . S
C1343 C1342 1.372 . S
C1343 C1344 1.400 . S
C1343 C1348 1.490 . S
C1344 H1334 0.930 . S
C1344 C1343 1.400 . S
C1344 C1347 1.386 . S
H1345 C1361 0.930 . S
H1346 C1362 0.931 . S
C1347 H1335 0.929 . S
C1347 C1341 1.390 . S
C1347 C1344 1.386 . S
C1348 C1343 1.490 . S
C1348 C1350 1.395 . S
C1348 C1351 1.403 . S
H1349 C1355 0.930 . S
C1350 H1336 0.930 . S
C1350 C1348 1.395 . S
C1350 C1353 1.403 . S
C1351 C1348 1.403 . S
C1351 C1352 1.524 . S
C1351 C1355 1.400 . S
C1352 H1337 0.960 . S
C1352 H1338 0.960 . S
C1352 H1339 0.960 . S
C1352 C1351 1.524 . S
C1353 C1350 1.403 . S
C1353 C1354 1.392 . S
C1353 C1357 1.495 . S
C1354 C1353 1.392 . S
C1354 C1355 1.385 . S
C1354 C1356 1.478 . S
C1355 H1349 0.930 . S
C1355 C1351 1.400 . S
C1355 C1354 1.385 . S
C1356 C1354 1.478 . S
C1356 C1358 1.381 . S
C1356 C1362 1.383 . S
C1357 C1353 1.495 . S
C1357 H1363 0.959 . S
C1357 H1364 0.961 . S
C1357 H1365 0.960 . S
C1358 C1356 1.381 . S
C1358 C1359 1.394 . S
C1358 H1366 0.930 . S
C1359 C1358 1.394 . S
C1359 C1360 1.383 . S
C1359 H1367 0.929 . S
C1360 C1359 1.383 . S
C1360 C1361 1.377 . S
C1361 H1345 0.930 . S
C1361 C1360 1.377 . S
C1361 C1362 1.379 . S
C1362 H1346 0.931 . S
C1362 C1356 1.383 . S
C1362 C1361 1.379 . S
H1363 C1357 0.959 . S
H1364 C1357 0.961 . S
H1365 C1357 0.960 . S
H1366 C1358 0.930 . S
H1367 C1359 0.929 . S
H1368 C1376 0.929 1_565 S
H1369 C1378 0.906 1_565 S
H1370 C1380 0.930 . S
H1371 C1383 0.929 . S
H1372 C1386 0.930 . S
H1373 C1388 0.960 . S
H1374 C1388 0.960 . S
H1375 C1388 0.960 . S
C1376 H1368 0.929 1_545 S
C1376 C1377 1.377 . S
C1376 C1378 1.393 . S
C1377 C1376 1.377 . S
C1377 C1383 1.390 . S
C1378 H1369 0.906 1_545 S
C1378 C1376 1.393 . S
C1378 C1379 1.387 . S
C1379 C1378 1.387 . S
C1379 C1380 1.400 . S
C1379 C1384 1.490 . S
C1380 H1370 0.930 . S
C1380 C1379 1.400 . S
C1380 C1383 1.386 . S
H1381 C1397 0.953 . S
H1382 C1398 0.931 1_545 S
C1383 H1371 0.929 . S
C1383 C1377 1.390 . S
C1383 C1380 1.386 . S
C1384 C1379 1.490 . S
C1384 C1386 1.395 1_545 S
C1384 C1387 1.403 . S
H1385 C1391 0.930 . S
C1386 H1372 0.930 . S
C1386 C1384 1.395 1_565 S
C1386 C1389 1.403 . S
C1387 C1384 1.403 . S
C1387 C1388 1.524 . S
C1387 C1391 1.400 . S
C1388 H1373 0.960 . S
C1388 H1374 0.960 . S
C1388 H1375 0.960 . S
C1388 C1387 1.524 . S
C1389 C1386 1.403 . S
C1389 C1390 1.392 . S
C1389 C1393 1.495 . S
C1390 C1389 1.392 . S
C1390 C1391 1.385 1_565 S
C1390 C1392 1.478 . S
C1391 H1385 0.930 . S
C1391 C1387 1.400 . S
C1391 C1390 1.385 1_545 S
C1392 C1390 1.478 . S
C1392 C1394 1.381 . S
C1392 C1398 1.383 . S
C1393 C1389 1.495 . S
C1393 H1399 0.959 . S
C1393 H1400 0.961 . S
C1393 H1401 0.960 . S
C1394 C1392 1.381 . S
C1394 C1395 1.394 . S
C1394 H1402 0.930 . S
C1395 C1394 1.394 . S
C1395 C1396 1.383 . S
C1395 H1403 0.929 . S
C1396 C1395 1.383 . S
C1396 C1397 1.377 . S
C1397 H1381 0.953 . S
C1397 C1396 1.377 . S
C1397 C1398 1.379 . S
C1398 H1382 0.931 1_565 S
C1398 C1392 1.383 . S
C1398 C1397 1.379 . S
H1399 C1393 0.959 . S
H1400 C1393 0.961 . S
H1401 C1393 0.960 . S
H1402 C1394 0.930 . S
H1403 C1395 0.929 . S
H1404 C1412 0.929 . S
H1405 C1414 0.930 . S
H1406 C1416 0.930 . S
H1407 C1419 0.929 . S
H1408 C1422 0.930 . S
H1409 C1424 0.960 1_554 S
H1410 C1424 0.960 . S
H1411 C1424 0.960 . S
C1412 H1404 0.929 . S
C1412 C1413 1.377 . S
C1412 C1414 1.384 . S
C1413 C1412 1.377 . S
C1413 C1419 1.390 . S
C1414 H1405 0.930 . S
C1414 C1412 1.384 . S
C1414 C1415 1.372 . S
C1415 C1414 1.372 . S
C1415 C1416 1.400 . S
C1415 C1420 1.490 . S
C1416 H1406 0.930 . S
C1416 C1415 1.400 . S
C1416 C1419 1.386 . S
H1417 C1433 0.930 . S
H1418 C1434 0.931 . S
C1419 H1407 0.929 . S
C1419 C1413 1.390 . S
C1419 C1416 1.386 . S
C1420 C1415 1.490 . S
C1420 C1422 1.395 . S
C1420 C1423 1.403 . S
H1421 C1427 0.930 . S
C1422 H1408 0.930 . S
C1422 C1420 1.395 . S
C1422 C1425 1.403 1_556 S
C1423 C1420 1.403 . S
C1423 C1424 1.524 . S
C1423 C1427 1.400 1_556 S
C1424 H1409 0.960 1_556 S
C1424 H1410 0.960 . S
C1424 H1411 0.960 . S
C1424 C1423 1.524 . S
C1425 C1422 1.403 1_554 S
C1425 C1426 1.392 . S
C1425 C1429 1.495 . S
C1426 C1425 1.392 . S
C1426 C1427 1.385 . S
C1426 C1428 1.478 . S
C1427 H1421 0.930 . S
C1427 C1423 1.400 1_554 S
C1427 C1426 1.385 . S
C1428 C1426 1.478 . S
C1428 C1430 1.381 . S
C1428 C1434 1.383 . S
C1429 C1425 1.495 . S
C1429 H1435 0.959 1_554 S
C1429 H1436 0.961 . S
C1429 H1437 0.960 . S
C1430 C1428 1.381 . S
C1430 C1431 1.394 . S
C1430 H1438 0.930 . S
C1431 C1430 1.394 . S
C1431 C1432 1.383 . S
C1431 H1439 0.929 . S
C1432 C1431 1.383 . S
C1432 C1433 1.377 . S
C1433 H1417 0.930 . S
C1433 C1432 1.377 . S
C1433 C1434 1.379 . S
C1434 H1418 0.931 . S
C1434 C1428 1.383 . S
C1434 C1433 1.379 . S
H1435 C1429 0.959 1_556 S
H1436 C1429 0.961 . S
H1437 C1429 0.960 . S
H1438 C1430 0.930 . S
H1439 C1431 0.929 . S
H1440 C1448 0.929 . S
H1441 C1450 0.930 . S
H1442 C1452 0.930 . S
H1443 C1455 0.929 . S
H1444 C1458 0.930 . S
H1445 C1460 0.960 . S
H1446 C1460 0.960 . S
H1447 C1460 0.960 . S
C1448 H1440 0.929 . S
C1448 C1449 1.377 . S
C1448 C1450 1.384 . S
C1449 C1448 1.377 . S
C1449 C1455 1.390 . S
C1450 H1441 0.930 . S
C1450 C1448 1.384 . S
C1450 C1451 1.372 . S
C1451 C1450 1.372 . S
C1451 C1452 1.400 . S
C1451 C1456 1.490 . S
C1452 H1442 0.930 . S
C1452 C1451 1.400 . S
C1452 C1455 1.386 . S
H1453 C1469 0.930 . S
H1454 C1470 0.931 . S
C1455 H1443 0.929 . S
C1455 C1449 1.390 . S
C1455 C1452 1.386 . S
C1456 C1451 1.490 . S
C1456 C1458 1.395 . S
C1456 C1459 1.403 . S
H1457 C1463 0.930 . S
C1458 H1444 0.930 . S
C1458 C1456 1.395 . S
C1458 C1461 1.403 . S
C1459 C1456 1.403 . S
C1459 C1460 1.524 . S
C1459 C1463 1.400 . S
C1460 H1445 0.960 . S
C1460 H1446 0.960 . S
C1460 H1447 0.960 . S
C1460 C1459 1.524 . S
C1461 C1458 1.403 . S
C1461 C1462 1.392 . S
C1461 C1465 1.495 . S
C1462 C1461 1.392 . S
C1462 C1463 1.385 . S
C1462 C1464 1.478 . S
C1463 H1457 0.930 . S
C1463 C1459 1.400 . S
C1463 C1462 1.385 . S
C1464 C1462 1.478 . S
C1464 C1466 1.381 . S
C1464 C1470 1.383 . S
C1465 C1461 1.495 . S
C1465 H1471 0.959 . S
C1465 H1472 0.961 . S
C1465 H1473 0.960 . S
C1466 C1464 1.381 . S
C1466 C1467 1.394 . S
C1466 H1474 0.930 . S
C1467 C1466 1.394 . S
C1467 C1468 1.383 . S
C1467 H1475 0.929 . S
C1468 C1467 1.383 . S
C1468 C1469 1.377 . S
C1469 H1453 0.930 . S
C1469 C1468 1.377 . S
C1469 C1470 1.379 . S
C1470 H1454 0.931 . S
C1470 C1464 1.383 . S
C1470 C1469 1.379 . S
H1471 C1465 0.959 . S
H1472 C1465 0.961 . S
H1473 C1465 0.960 . S
H1474 C1466 0.930 . S
H1475 C1467 0.929 . S
H1476 C1484 0.929 . S
H1477 C1486 0.930 . S
H1478 C1488 0.930 . S
H1479 C1491 0.929 . S
H1480 C1494 0.930 . S
H1481 C1496 0.960 1_556 S
H1482 C1496 0.960 . S
H1483 C1496 0.960 . S
C1484 H1476 0.929 . S
C1484 C1485 1.377 . S
C1484 C1486 1.384 . S
C1485 C1484 1.377 . S
C1485 C1491 1.390 . S
C1486 H1477 0.930 . S
C1486 C1484 1.384 . S
C1486 C1487 1.372 . S
C1487 C1486 1.372 . S
C1487 C1488 1.400 . S
C1487 C1492 1.490 . S
C1488 H1478 0.930 . S
C1488 C1487 1.400 . S
C1488 C1491 1.386 . S
H1489 C1505 0.930 . S
H1490 C1506 0.931 . S
C1491 H1479 0.929 . S
C1491 C1485 1.390 . S
C1491 C1488 1.386 . S
C1492 C1487 1.490 . S
C1492 C1494 1.395 . S
C1492 C1495 1.403 . S
H1493 C1499 0.930 . S
C1494 H1480 0.930 . S
C1494 C1492 1.395 . S
C1494 C1497 1.403 1_554 S
C1495 C1492 1.403 . S
C1495 C1496 1.524 . S
C1495 C1499 1.400 1_554 S
C1496 H1481 0.960 1_554 S
C1496 H1482 0.960 . S
C1496 H1483 0.960 . S
C1496 C1495 1.524 . S
C1497 C1494 1.403 1_556 S
C1497 C1498 1.392 . S
C1497 C1501 1.495 . S
C1498 C1497 1.392 . S
C1498 C1499 1.385 . S
C1498 C1500 1.478 . S
C1499 H1493 0.930 . S
C1499 C1495 1.400 1_556 S
C1499 C1498 1.385 . S
C1500 C1498 1.478 . S
C1500 C1502 1.381 . S
C1500 C1506 1.383 . S
C1501 C1497 1.495 . S
C1501 H1507 0.959 1_556 S
C1501 H1508 0.961 . S
C1501 H1509 0.960 . S
C1502 C1500 1.381 . S
C1502 C1503 1.394 . S
C1502 H1510 0.930 . S
C1503 C1502 1.394 . S
C1503 C1504 1.383 . S
C1503 H1511 0.929 . S
C1504 C1503 1.383 . S
C1504 C1505 1.377 . S
C1505 H1489 0.930 . S
C1505 C1504 1.377 . S
C1505 C1506 1.379 . S
C1506 H1490 0.931 . S
C1506 C1500 1.383 . S
C1506 C1505 1.379 . S
H1507 C1501 0.959 1_554 S
H1508 C1501 0.961 . S
H1509 C1501 0.960 . S
H1510 C1502 0.930 . S
H1511 C1503 0.929 . S
H1512 C1520 0.929 . S
H1513 C1522 0.930 . S
H1514 C1524 0.930 . S
H1515 C1527 0.929 . S
H1516 C1530 0.930 . S
H1517 C1532 0.960 . S
H1518 C1532 0.960 . S
H1519 C1532 0.960 . S
C1520 H1512 0.929 . S
C1520 C1521 1.377 . S
C1520 C1522 1.384 . S
C1521 C1520 1.377 . S
C1521 C1527 1.390 . S
C1522 H1513 0.930 . S
C1522 C1520 1.384 . S
C1522 C1523 1.372 . S
C1523 C1522 1.372 . S
C1523 C1524 1.400 . S
C1523 C1528 1.490 . S
C1524 H1514 0.930 . S
C1524 C1523 1.400 . S
C1524 C1527 1.386 . S
H1525 C1541 0.930 . S
H1526 C1542 0.931 . S
C1527 H1515 0.929 . S
C1527 C1521 1.390 . S
C1527 C1524 1.386 . S
C1528 C1523 1.490 . S
C1528 C1530 1.395 . S
C1528 C1531 1.403 . S
H1529 C1535 0.930 . S
C1530 H1516 0.930 . S
C1530 C1528 1.395 . S
C1530 C1533 1.403 . S
C1531 C1528 1.403 . S
C1531 C1532 1.524 . S
C1531 C1535 1.400 . S
C1532 H1517 0.960 . S
C1532 H1518 0.960 . S
C1532 H1519 0.960 . S
C1532 C1531 1.524 . S
C1533 C1530 1.403 . S
C1533 C1534 1.392 . S
C1533 C1537 1.495 . S
C1534 C1533 1.392 . S
C1534 C1535 1.385 . S
C1534 C1536 1.478 . S
C1535 H1529 0.930 . S
C1535 C1531 1.400 . S
C1535 C1534 1.385 . S
C1536 C1534 1.478 . S
C1536 C1538 1.381 . S
C1536 C1542 1.383 . S
C1537 C1533 1.495 . S
C1537 H1543 0.959 . S
C1537 H1544 0.961 . S
C1537 H1545 0.960 . S
C1538 C1536 1.381 . S
C1538 C1539 1.394 . S
C1538 H1546 0.930 . S
C1539 C1538 1.394 . S
C1539 C1540 1.383 . S
C1539 H1547 0.929 . S
C1540 C1539 1.383 . S
C1540 C1541 1.377 . S
C1541 H1525 0.930 . S
C1541 C1540 1.377 . S
C1541 C1542 1.379 . S
C1542 H1526 0.931 . S
C1542 C1536 1.383 . S
C1542 C1541 1.379 . S
H1543 C1537 0.959 . S
H1544 C1537 0.961 . S
H1545 C1537 0.960 . S
H1546 C1538 0.930 . S
H1547 C1539 0.929 . S
H1548 C1556 0.929 . S
H1549 C1558 0.930 . S
H1550 C1560 0.930 . S
H1551 C1563 0.929 . S
H1552 C1566 0.930 . S
H1553 C1568 0.960 . S
H1554 C1568 0.960 . S
H1555 C1568 0.960 . S
C1556 H1548 0.929 . S
C1556 C1557 1.377 . S
C1556 C1558 1.384 . S
C1557 C1556 1.377 . S
C1557 C1563 1.390 . S
C1558 H1549 0.930 . S
C1558 C1556 1.384 . S
C1558 C1559 1.372 . S
C1559 C1558 1.372 . S
C1559 C1560 1.400 . S
C1559 C1564 1.490 . S
C1560 H1550 0.930 . S
C1560 C1559 1.400 . S
C1560 C1563 1.386 . S
H1561 C1577 0.930 . S
H1562 C1578 0.931 . S
C1563 H1551 0.929 . S
C1563 C1557 1.390 . S
C1563 C1560 1.386 . S
C1564 C1559 1.490 . S
C1564 C1566 1.395 . S
C1564 C1567 1.403 . S
H1565 C1571 0.930 . S
C1566 H1552 0.930 . S
C1566 C1564 1.395 . S
C1566 C1569 1.403 . S
C1567 C1564 1.403 . S
C1567 C1568 1.524 . S
C1567 C1571 1.400 . S
C1568 H1553 0.960 . S
C1568 H1554 0.960 . S
C1568 H1555 0.960 . S
C1568 C1567 1.524 . S
C1569 C1566 1.403 . S
C1569 C1570 1.392 . S
C1569 C1573 1.495 . S
C1570 C1569 1.392 . S
C1570 C1571 1.385 . S
C1570 C1572 1.478 . S
C1571 H1565 0.930 . S
C1571 C1567 1.400 . S
C1571 C1570 1.385 . S
C1572 C1570 1.478 . S
C1572 C1574 1.381 . S
C1572 C1578 1.383 . S
C1573 C1569 1.495 . S
C1573 H1579 0.959 . S
C1573 H1580 0.961 . S
C1573 H1581 0.960 . S
C1574 C1572 1.381 . S
C1574 C1575 1.394 . S
C1574 H1582 0.930 . S
C1575 C1574 1.394 . S
C1575 C1576 1.383 . S
C1575 H1583 0.929 . S
C1576 C1575 1.383 . S
C1576 C1577 1.377 . S
C1577 H1561 0.930 . S
C1577 C1576 1.377 . S
C1577 C1578 1.379 . S
C1578 H1562 0.931 . S
C1578 C1572 1.383 . S
C1578 C1577 1.379 . S
H1579 C1573 0.959 . S
H1580 C1573 0.961 . S
H1581 C1573 0.960 . S
H1582 C1574 0.930 . S
H1583 C1575 0.929 . S
H1584 C1592 0.929 . S
H1585 C1594 0.930 . S
H1586 C1596 0.930 . S
H1587 C1599 0.929 . S
H1588 C1602 0.930 . S
H1589 C1604 0.960 . S
H1590 C1604 0.960 . S
H1591 C1604 0.960 . S
C1592 H1584 0.929 . S
C1592 C1593 1.377 . S
C1592 C1594 1.384 . S
C1593 C1592 1.377 . S
C1593 C1599 1.390 . S
C1594 H1585 0.930 . S
C1594 C1592 1.384 . S
C1594 C1595 1.372 . S
C1595 C1594 1.372 . S
C1595 C1596 1.400 . S
C1595 C1600 1.490 . S
C1596 H1586 0.930 . S
C1596 C1595 1.400 . S
C1596 C1599 1.386 . S
H1597 C1613 0.930 . S
H1598 C1614 0.931 . S
C1599 H1587 0.929 . S
C1599 C1593 1.390 . S
C1599 C1596 1.386 . S
C1600 C1595 1.490 . S
C1600 C1602 1.395 . S
C1600 C1603 1.403 . S
H1601 C1607 0.930 . S
C1602 H1588 0.930 . S
C1602 C1600 1.395 . S
C1602 C1605 1.403 . S
C1603 C1600 1.403 . S
C1603 C1604 1.524 . S
C1603 C1607 1.400 . S
C1604 H1589 0.960 . S
C1604 H1590 0.960 . S
C1604 H1591 0.960 . S
C1604 C1603 1.524 . S
C1605 C1602 1.403 . S
C1605 C1606 1.392 . S
C1605 C1609 1.495 . S
C1606 C1605 1.392 . S
C1606 C1607 1.385 . S
C1606 C1608 1.478 . S
C1607 H1601 0.930 . S
C1607 C1603 1.400 . S
C1607 C1606 1.385 . S
C1608 C1606 1.478 . S
C1608 C1610 1.381 . S
C1608 C1614 1.383 . S
C1609 C1605 1.495 . S
C1609 H1615 0.959 . S
C1609 H1616 0.961 . S
C1609 H1617 0.960 . S
C1610 C1608 1.381 . S
C1610 C1611 1.394 . S
C1610 H1618 0.930 . S
C1611 C1610 1.394 . S
C1611 C1612 1.383 . S
C1611 H1619 0.929 . S
C1612 C1611 1.383 . S
C1612 C1613 1.377 . S
C1613 H1597 0.930 . S
C1613 C1612 1.377 . S
C1613 C1614 1.379 . S
C1614 H1598 0.931 . S
C1614 C1608 1.383 . S
C1614 C1613 1.379 . S
H1615 C1609 0.959 . S
H1616 C1609 0.961 . S
H1617 C1609 0.960 . S
H1618 C1610 0.930 . S
H1619 C1611 0.929 . S
H1620 C1628 0.929 . S
H1621 C1630 0.930 . S
H1622 C1632 0.930 . S
H1623 C1635 0.929 . S
H1624 C1638 0.930 . S
H1625 C1640 0.960 . S
H1626 C1640 0.960 . S
H1627 C1640 0.960 . S
C1628 H1620 0.929 . S
C1628 C1629 1.377 . S
C1628 C1630 1.384 . S
C1629 C1628 1.377 . S
C1629 C1635 1.390 . S
C1630 H1621 0.930 . S
C1630 C1628 1.384 . S
C1630 C1631 1.372 . S
C1631 C1630 1.372 . S
C1631 C1632 1.400 . S
C1631 C1636 1.490 . S
C1632 H1622 0.930 . S
C1632 C1631 1.400 . S
C1632 C1635 1.386 . S
H1633 C1649 0.930 . S
H1634 C1650 0.931 . S
C1635 H1623 0.929 . S
C1635 C1629 1.390 . S
C1635 C1632 1.386 . S
C1636 C1631 1.490 . S
C1636 C1638 1.395 . S
C1636 C1639 1.403 . S
H1637 C1643 0.930 . S
C1638 H1624 0.930 . S
C1638 C1636 1.395 . S
C1638 C1641 1.403 1_554 S
C1639 C1636 1.403 . S
C1639 C1640 1.524 . S
C1639 C1643 1.400 1_554 S
C1640 H1625 0.960 . S
C1640 H1626 0.960 . S
C1640 H1627 0.960 . S
C1640 C1639 1.524 . S
C1641 C1638 1.403 1_556 S
C1641 C1642 1.392 . S
C1641 C1645 1.495 . S
C1642 C1641 1.392 . S
C1642 C1643 1.385 . S
C1642 C1644 1.478 . S
C1643 H1637 0.930 . S
C1643 C1639 1.400 1_556 S
C1643 C1642 1.385 . S
C1644 C1642 1.478 . S
C1644 C1646 1.381 . S
C1644 C1650 1.383 . S
C1645 C1641 1.495 . S
C1645 H1651 0.959 . S
C1645 H1652 0.961 . S
C1645 H1653 0.960 . S
C1646 C1644 1.381 . S
C1646 C1647 1.394 . S
C1646 H1654 0.930 . S
C1647 C1646 1.394 . S
C1647 C1648 1.383 . S
C1647 H1655 0.929 . S
C1648 C1647 1.383 . S
C1648 C1649 1.377 . S
C1649 H1633 0.930 . S
C1649 C1648 1.377 . S
C1649 C1650 1.379 . S
C1650 H1634 0.931 . S
C1650 C1644 1.383 . S
C1650 C1649 1.379 . S
H1651 C1645 0.959 . S
H1652 C1645 0.961 . S
H1653 C1645 0.960 . S
H1654 C1646 0.930 . S
H1655 C1647 0.929 . S
H1656 C1664 0.929 . S
H1657 C1666 0.930 . S
H1658 C1668 0.930 . S
H1659 C1671 0.929 . S
H1660 C1674 0.930 . S
H1661 C1676 0.960 . S
H1662 C1676 0.960 . S
H1663 C1676 0.960 . S
C1664 H1656 0.929 . S
C1664 C1665 1.377 . S
C1664 C1666 1.384 . S
C1665 C1664 1.377 . S
C1665 C1671 1.390 . S
C1666 H1657 0.930 . S
C1666 C1664 1.384 . S
C1666 C1667 1.372 . S
C1667 C1666 1.372 . S
C1667 C1668 1.400 . S
C1667 C1672 1.490 . S
C1668 H1658 0.930 . S
C1668 C1667 1.400 . S
C1668 C1671 1.386 . S
H1669 C1685 0.930 . S
H1670 C1686 0.931 . S
C1671 H1659 0.929 . S
C1671 C1665 1.390 . S
C1671 C1668 1.386 . S
C1672 C1667 1.490 . S
C1672 C1674 1.395 . S
C1672 C1675 1.403 . S
H1673 C1679 0.930 . S
C1674 H1660 0.930 . S
C1674 C1672 1.395 . S
C1674 C1677 1.403 . S
C1675 C1672 1.403 . S
C1675 C1676 1.524 . S
C1675 C1679 1.400 . S
C1676 H1661 0.960 . S
C1676 H1662 0.960 . S
C1676 H1663 0.960 . S
C1676 C1675 1.524 . S
C1677 C1674 1.403 . S
C1677 C1678 1.392 . S
C1677 C1681 1.495 . S
C1678 C1677 1.392 . S
C1678 C1679 1.385 . S
C1678 C1680 1.478 . S
C1679 H1673 0.930 . S
C1679 C1675 1.400 . S
C1679 C1678 1.385 . S
C1680 C1678 1.478 . S
C1680 C1682 1.381 . S
C1680 C1686 1.383 . S
C1681 C1677 1.495 . S
C1681 H1687 0.959 . S
C1681 H1688 0.961 . S
C1681 H1689 0.960 . S
C1682 C1680 1.381 . S
C1682 C1683 1.394 . S
C1682 H1690 0.930 . S
C1683 C1682 1.394 . S
C1683 C1684 1.383 . S
C1683 H1691 0.929 . S
C1684 C1683 1.383 . S
C1684 C1685 1.377 . S
C1685 H1669 0.930 . S
C1685 C1684 1.377 . S
C1685 C1686 1.379 . S
C1686 H1670 0.931 . S
C1686 C1680 1.383 . S
C1686 C1685 1.379 . S
H1687 C1681 0.959 . S
H1688 C1681 0.961 . S
H1689 C1681 0.960 . S
H1690 C1682 0.930 . S
H1691 C1683 0.929 . S
H1692 C1700 0.929 . S
H1693 C1702 0.930 . S
H1694 C1704 0.930 . S
H1695 C1707 0.929 . S
H1696 C1710 0.930 . S
H1697 C1712 0.960 . S
H1698 C1712 0.960 . S
H1699 C1712 0.960 . S
C1700 H1692 0.929 . S
C1700 C1701 1.377 . S
C1700 C1702 1.384 . S
C1701 C1700 1.377 . S
C1701 C1707 1.390 . S
C1702 H1693 0.930 . S
C1702 C1700 1.384 . S
C1702 C1703 1.372 . S
C1703 C1702 1.372 . S
C1703 C1704 1.400 . S
C1703 C1708 1.490 . S
C1704 H1694 0.930 . S
C1704 C1703 1.400 . S
C1704 C1707 1.386 . S
H1705 C1721 0.930 . S
H1706 C1722 0.931 . S
C1707 H1695 0.929 . S
C1707 C1701 1.390 . S
C1707 C1704 1.386 . S
C1708 C1703 1.490 . S
C1708 C1710 1.395 . S
C1708 C1711 1.403 . S
H1709 C1715 0.930 . S
C1710 H1696 0.930 . S
C1710 C1708 1.395 . S
C1710 C1713 1.403 . S
C1711 C1708 1.403 . S
C1711 C1712 1.524 . S
C1711 C1715 1.400 . S
C1712 H1697 0.960 . S
C1712 H1698 0.960 . S
C1712 H1699 0.960 . S
C1712 C1711 1.524 . S
C1713 C1710 1.403 . S
C1713 C1714 1.392 . S
C1713 C1717 1.495 . S
C1714 C1713 1.392 . S
C1714 C1715 1.385 . S
C1714 C1716 1.478 . S
C1715 H1709 0.930 . S
C1715 C1711 1.400 . S
C1715 C1714 1.385 . S
C1716 C1714 1.478 . S
C1716 C1718 1.381 . S
C1716 C1722 1.383 . S
C1717 C1713 1.495 . S
C1717 H1723 0.959 . S
C1717 H1724 0.961 . S
C1717 H1725 0.960 . S
C1718 C1716 1.381 . S
C1718 C1719 1.394 . S
C1718 H1726 0.930 . S
C1719 C1718 1.394 . S
C1719 C1720 1.383 . S
C1719 H1727 0.929 . S
C1720 C1719 1.383 . S
C1720 C1721 1.377 . S
C1721 H1705 0.930 . S
C1721 C1720 1.377 . S
C1721 C1722 1.379 . S
C1722 H1706 0.931 . S
C1722 C1716 1.383 . S
C1722 C1721 1.379 . S
H1723 C1717 0.959 . S
H1724 C1717 0.961 . S
H1725 C1717 0.960 . S
H1726 C1718 0.930 . S
H1727 C1719 0.929 . S
H1728 C1736 0.929 . S
H1729 C1738 0.930 . S
H1730 C1740 0.930 . S
H1731 C1743 0.929 . S
H1732 C1746 0.930 . S
H1733 C1748 0.960 . S
H1734 C1748 0.960 1_545 S
H1735 C1748 0.960 . S
C1736 H1728 0.929 . S
C1736 C1737 1.377 . S
C1736 C1738 1.384 1_545 S
C1737 C1736 1.377 . S
C1737 C1743 1.390 . S
C1738 H1729 0.930 . S
C1738 C1736 1.384 1_565 S
C1738 C1739 1.372 . S
C1739 C1738 1.372 . S
C1739 C1740 1.400 . S
C1739 C1744 1.490 . S
C1740 H1730 0.930 . S
C1740 C1739 1.400 . S
C1740 C1743 1.386 1_565 S
H1741 C1757 0.930 . S
H1742 C1758 0.931 . S
C1743 H1731 0.929 . S
C1743 C1737 1.390 . S
C1743 C1740 1.386 1_545 S
C1744 C1739 1.490 . S
C1744 C1746 1.395 . S
C1744 C1747 1.403 . S
H1745 C1751 0.930 . S
C1746 H1732 0.930 . S
C1746 C1744 1.395 . S
C1746 C1749 1.403 . S
C1747 C1744 1.403 . S
C1747 C1748 1.524 . S
C1747 C1751 1.400 . S
C1748 H1733 0.960 . S
C1748 H1734 0.960 1_565 S
C1748 H1735 0.960 . S
C1748 C1747 1.524 . S
C1749 C1746 1.403 . S
C1749 C1750 1.392 . S
C1749 C1753 1.495 . S
C1750 C1749 1.392 . S
C1750 C1751 1.385 . S
C1750 C1752 1.478 . S
C1751 H1745 0.930 . S
C1751 C1747 1.400 . S
C1751 C1750 1.385 . S
C1752 C1750 1.478 . S
C1752 C1754 1.381 . S
C1752 C1758 1.383 . S
C1753 C1749 1.495 . S
C1753 H1759 0.959 . S
C1753 H1760 0.961 . S
C1753 H1761 0.960 . S
C1754 C1752 1.381 . S
C1754 C1755 1.394 . S
C1754 H1762 0.930 . S
C1755 C1754 1.394 . S
C1755 C1756 1.383 . S
C1755 H1763 0.929 . S
C1756 C1755 1.383 . S
C1756 C1757 1.377 . S
C1757 H1741 0.930 . S
C1757 C1756 1.377 . S
C1757 C1758 1.379 . S
C1758 H1742 0.931 . S
C1758 C1752 1.383 . S
C1758 C1757 1.379 . S
H1759 C1753 0.959 . S
H1760 C1753 0.961 . S
H1761 C1753 0.960 . S
H1762 C1754 0.930 . S
H1763 C1755 0.929 . S
H1764 C1772 0.929 . S
H1765 C1774 0.930 . S
H1766 C1776 0.930 . S
H1767 C1779 0.929 . S
H1768 C1782 0.930 . S
H1769 C1784 0.960 . S
H1770 C1784 0.960 . S
H1771 C1784 0.960 . S
C1772 H1764 0.929 . S
C1772 C1773 1.377 . S
C1772 C1774 1.384 . S
C1773 C1772 1.377 . S
C1773 C1779 1.390 . S
C1774 H1765 0.930 . S
C1774 C1772 1.384 . S
C1774 C1775 1.372 . S
C1775 C1774 1.372 . S
C1775 C1776 1.400 . S
C1775 C1780 1.490 . S
C1776 H1766 0.930 . S
C1776 C1775 1.400 . S
C1776 C1779 1.386 . S
H1777 C1793 0.930 . S
H1778 C1794 0.931 . S
C1779 H1767 0.929 . S
C1779 C1773 1.390 . S
C1779 C1776 1.386 . S
C1780 C1775 1.490 . S
C1780 C1782 1.395 . S
C1780 C1783 1.403 . S
H1781 C1787 0.930 . S
C1782 H1768 0.930 . S
C1782 C1780 1.395 . S
C1782 C1785 1.403 . S
C1783 C1780 1.403 . S
C1783 C1784 1.524 . S
C1783 C1787 1.400 . S
C1784 H1769 0.960 . S
C1784 H1770 0.960 . S
C1784 H1771 0.960 . S
C1784 C1783 1.524 . S
C1785 C1782 1.403 . S
C1785 C1786 1.392 . S
C1785 C1789 1.495 . S
C1786 C1785 1.392 . S
C1786 C1787 1.385 . S
C1786 C1788 1.478 . S
C1787 H1781 0.930 . S
C1787 C1783 1.400 . S
C1787 C1786 1.385 . S
C1788 C1786 1.478 . S
C1788 C1790 1.381 1_545 S
C1788 C1794 1.383 . S
C1789 C1785 1.495 . S
C1789 H1795 0.959 . S
C1789 H1796 0.961 1_545 S
C1789 H1797 0.960 1_545 S
C1790 C1788 1.381 1_565 S
C1790 C1791 1.394 . S
C1790 H1798 0.930 . S
C1791 C1790 1.394 . S
C1791 C1792 1.383 . S
C1791 H1799 0.929 . S
C1792 C1791 1.383 . S
C1792 C1793 1.377 1_565 S
C1793 H1777 0.930 . S
C1793 C1792 1.377 1_545 S
C1793 C1794 1.379 . S
C1794 H1778 0.931 . S
C1794 C1788 1.383 . S
C1794 C1793 1.379 . S
H1795 C1789 0.959 . S
H1796 C1789 0.961 1_565 S
H1797 C1789 0.960 1_565 S
H1798 C1790 0.930 . S
H1799 C1791 0.929 . S
H1800 C1808 0.929 . S
H1801 C1810 0.930 . S
H1802 C1812 0.930 . S
H1803 C1815 0.929 . S
H1804 C1818 0.930 . S
H1805 C1820 0.960 . S
H1806 C1820 0.960 1_565 S
H1807 C1820 0.960 1_565 S
C1808 H1800 0.929 . S
C1808 C1809 1.377 . S
C1808 C1810 1.384 1_565 S
C1809 C1808 1.377 . S
C1809 C1815 1.390 . S
C1810 H1801 0.930 . S
C1810 C1808 1.384 1_545 S
C1810 C1811 1.372 . S
C1811 C1810 1.372 . S
C1811 C1812 1.400 . S
C1811 C1816 1.490 . S
C1812 H1802 0.930 . S
C1812 C1811 1.400 . S
C1812 C1815 1.386 1_545 S
H1813 C1829 0.930 . S
H1814 C1830 0.931 . S
C1815 H1803 0.929 . S
C1815 C1809 1.390 . S
C1815 C1812 1.386 1_565 S
C1816 C1811 1.490 . S
C1816 C1818 1.395 . S
C1816 C1819 1.403 . S
H1817 C1823 0.930 . S
C1818 H1804 0.930 . S
C1818 C1816 1.395 . S
C1818 C1821 1.403 . S
C1819 C1816 1.403 . S
C1819 C1820 1.524 . S
C1819 C1823 1.400 . S
C1820 H1805 0.960 . S
C1820 H1806 0.960 1_545 S
C1820 H1807 0.960 1_545 S
C1820 C1819 1.524 . S
C1821 C1818 1.403 . S
C1821 C1822 1.392 . S
C1821 C1825 1.495 . S
C1822 C1821 1.392 . S
C1822 C1823 1.385 . S
C1822 C1824 1.478 . S
C1823 H1817 0.930 . S
C1823 C1819 1.400 . S
C1823 C1822 1.385 . S
C1824 C1822 1.478 . S
C1824 C1826 1.381 . S
C1824 C1830 1.383 . S
C1825 C1821 1.495 . S
C1825 H1831 0.959 . S
C1825 H1832 0.961 . S
C1825 H1833 0.960 . S
C1826 C1824 1.381 . S
C1826 C1827 1.394 . S
C1826 H1834 0.930 . S
C1827 C1826 1.394 . S
C1827 C1828 1.383 . S
C1827 H1835 0.929 . S
C1828 C1827 1.383 . S
C1828 C1829 1.377 . S
C1829 H1813 0.930 . S
C1829 C1828 1.377 . S
C1829 C1830 1.379 . S
C1830 H1814 0.931 . S
C1830 C1824 1.383 . S
C1830 C1829 1.379 . S
H1831 C1825 0.959 . S
H1832 C1825 0.961 . S
H1833 C1825 0.960 . S
H1834 C1826 0.930 . S
H1835 C1827 0.929 . S
H1836 C1844 0.929 . S
H1837 C1846 0.930 . S
H1838 C1848 0.930 . S
H1839 C1851 0.929 . S
H1840 C1854 0.930 . S
H1841 C1856 0.960 . S
H1842 C1856 0.960 . S
H1843 C1856 0.960 . S
C1844 H1836 0.929 . S
C1844 C1845 1.377 . S
C1844 C1846 1.384 1_545 S
C1845 C1844 1.377 . S
C1845 C1851 1.390 . S
C1846 H1837 0.930 . S
C1846 C1844 1.384 1_565 S
C1846 C1847 1.372 . S
C1847 C1846 1.372 . S
C1847 C1848 1.400 . S
C1847 C1852 1.490 . S
C1848 H1838 0.930 . S
C1848 C1847 1.400 . S
C1848 C1851 1.386 1_565 S
H1849 C1865 0.930 . S
H1850 C1866 0.931 . S
C1851 H1839 0.929 . S
C1851 C1845 1.390 . S
C1851 C1848 1.386 1_545 S
C1852 C1847 1.490 . S
C1852 C1854 1.395 . S
C1852 C1855 1.403 . S
H1853 C1859 0.930 . S
C1854 H1840 0.930 . S
C1854 C1852 1.395 . S
C1854 C1857 1.403 . S
C1855 C1852 1.403 . S
C1855 C1856 1.524 . S
C1855 C1859 1.400 . S
C1856 H1841 0.960 . S
C1856 H1842 0.960 . S
C1856 H1843 0.960 . S
C1856 C1855 1.524 . S
C1857 C1854 1.403 . S
C1857 C1858 1.392 . S
C1857 C1861 1.495 . S
C1858 C1857 1.392 . S
C1858 C1859 1.385 . S
C1858 C1860 1.478 . S
C1859 H1853 0.930 . S
C1859 C1855 1.400 . S
C1859 C1858 1.385 . S
C1860 C1858 1.478 . S
C1860 C1862 1.381 . S
C1860 C1866 1.383 . S
C1861 C1857 1.495 . S
C1861 H1867 0.959 . S
C1861 H1868 0.961 . S
C1861 H1869 0.960 . S
C1862 C1860 1.381 . S
C1862 C1863 1.394 . S
C1862 H1870 0.930 . S
C1863 C1862 1.394 . S
C1863 C1864 1.383 . S
C1863 H1871 0.929 . S
C1864 C1863 1.383 . S
C1864 C1865 1.377 . S
C1865 H1849 0.930 . S
C1865 C1864 1.377 . S
C1865 C1866 1.379 . S
C1866 H1850 0.931 . S
C1866 C1860 1.383 . S
C1866 C1865 1.379 . S
H1867 C1861 0.959 . S
H1868 C1861 0.961 . S
H1869 C1861 0.960 . S
H1870 C1862 0.930 . S
H1871 C1863 0.929 . S
H1872 C1880 0.929 . S
H1873 C1882 0.930 . S
H1874 C1884 0.930 . S
H1875 C1887 0.929 . S
H1876 C1890 0.930 . S
H1877 C1892 0.960 . S
H1878 C1892 0.960 . S
H1879 C1892 0.960 . S
C1880 H1872 0.929 . S
C1880 C1881 1.377 . S
C1880 C1882 1.384 . S
C1881 C1880 1.377 . S
C1881 C1887 1.390 . S
C1882 H1873 0.930 . S
C1882 C1880 1.384 . S
C1882 C1883 1.372 . S
C1883 C1882 1.372 . S
C1883 C1884 1.400 . S
C1883 C1888 1.490 . S
C1884 H1874 0.930 . S
C1884 C1883 1.400 . S
C1884 C1887 1.386 . S
H1885 C1901 0.930 . S
H1886 C1902 0.931 . S
C1887 H1875 0.929 . S
C1887 C1881 1.390 . S
C1887 C1884 1.386 . S
C1888 C1883 1.490 . S
C1888 C1890 1.395 . S
C1888 C1891 1.403 . S
H1889 C1895 0.930 . S
C1890 H1876 0.930 . S
C1890 C1888 1.395 . S
C1890 C1893 1.403 . S
C1891 C1888 1.403 . S
C1891 C1892 1.524 . S
C1891 C1895 1.400 . S
C1892 H1877 0.960 . S
C1892 H1878 0.960 . S
C1892 H1879 0.960 . S
C1892 C1891 1.524 . S
C1893 C1890 1.403 . S
C1893 C1894 1.392 . S
C1893 C1897 1.495 . S
C1894 C1893 1.392 . S
C1894 C1895 1.385 . S
C1894 C1896 1.478 . S
C1895 H1889 0.930 . S
C1895 C1891 1.400 . S
C1895 C1894 1.385 . S
C1896 C1894 1.478 . S
C1896 C1898 1.381 . S
C1896 C1902 1.383 . S
C1897 C1893 1.495 . S
C1897 H1903 0.959 . S
C1897 H1904 0.961 . S
C1897 H1905 0.960 . S
C1898 C1896 1.381 . S
C1898 C1899 1.394 . S
C1898 H1906 0.930 . S
C1899 C1898 1.394 . S
C1899 C1900 1.383 1_545 S
C1899 H1907 0.929 . S
C1900 C1899 1.383 1_565 S
C1900 C1901 1.377 . S
C1901 H1885 0.930 . S
C1901 C1900 1.377 . S
C1901 C1902 1.379 1_565 S
C1902 H1886 0.931 . S
C1902 C1896 1.383 . S
C1902 C1901 1.379 1_545 S
H1903 C1897 0.959 . S
H1904 C1897 0.961 . S
H1905 C1897 0.960 . S
H1906 C1898 0.930 . S
H1907 C1899 0.929 . S
H1908 C1916 0.929 . S
H1909 C1918 0.930 . S
H1910 C1920 0.928 1_545 S
H1911 C1923 0.929 . S
H1912 C1926 0.930 . S
H1913 C1928 0.960 . S
H1914 C1928 0.964 . S
H1915 C1928 0.960 1_545 S
C1916 H1908 0.929 . S
C1916 C1917 1.377 1_565 S
C1916 C1918 1.384 . S
C1917 C1916 1.377 1_545 S
C1917 C1923 1.390 . S
C1918 H1909 0.930 . S
C1918 C1916 1.384 . S
C1918 C1919 1.372 . S
C1919 C1918 1.372 . S
C1919 C1920 1.398 . S
C1919 C1924 1.490 . S
C1920 H1910 0.928 1_565 S
C1920 C1919 1.398 . S
C1920 C1923 1.387 1_565 S
H1921 C1937 0.930 . S
H1922 C1938 0.931 . S
C1923 H1911 0.929 . S
C1923 C1917 1.390 . S
C1923 C1920 1.387 1_545 S
C1924 C1919 1.490 . S
C1924 C1926 1.395 . S
C1924 C1927 1.403 . S
H1925 C1931 0.930 . S
C1926 H1912 0.930 . S
C1926 C1924 1.395 . S
C1926 C1929 1.403 . S
C1927 C1924 1.403 . S
C1927 C1928 1.524 . S
C1927 C1931 1.400 . S
C1928 H1913 0.960 . S
C1928 H1914 0.964 . S
C1928 H1915 0.960 1_565 S
C1928 C1927 1.524 . S
C1929 C1926 1.403 . S
C1929 C1930 1.392 . S
C1929 C1933 1.495 . S
C1930 C1929 1.392 . S
C1930 C1931 1.385 . S
C1930 C1932 1.478 . S
C1931 H1925 0.930 . S
C1931 C1927 1.400 . S
C1931 C1930 1.385 . S
C1932 C1930 1.478 . S
C1932 C1934 1.381 . S
C1932 C1938 1.383 . S
C1933 C1929 1.495 . S
C1933 H1939 0.959 . S
C1933 H1940 0.961 . S
C1933 H1941 0.960 . S
C1934 C1932 1.381 . S
C1934 C1935 1.394 . S
C1934 H1942 0.930 . S
C1935 C1934 1.394 . S
C1935 C1936 1.383 . S
C1935 H1943 0.929 . S
C1936 C1935 1.383 . S
C1936 C1937 1.377 . S
C1937 H1921 0.930 . S
C1937 C1936 1.377 . S
C1937 C1938 1.379 . S
C1938 H1922 0.931 . S
C1938 C1932 1.383 . S
C1938 C1937 1.379 . S
H1939 C1933 0.959 . S
H1940 C1933 0.961 . S
H1941 C1933 0.960 . S
H1942 C1934 0.930 . S
H1943 C1935 0.929 . S
H1944 C1952 0.929 . S
H1945 C1954 0.930 . S
H1946 C1956 0.930 . S
H1947 C1959 0.929 . S
H1948 C1962 0.930 . S
H1949 C1964 0.960 . S
H1950 C1964 0.960 . S
H1951 C1964 0.960 . S
C1952 H1944 0.929 . S
C1952 C1953 1.377 . S
C1952 C1954 1.384 . S
C1953 C1952 1.377 . S
C1953 C1959 1.390 . S
C1954 H1945 0.930 . S
C1954 C1952 1.384 . S
C1954 C1955 1.372 . S
C1955 C1954 1.372 . S
C1955 C1956 1.400 . S
C1955 C1960 1.490 . S
C1956 H1946 0.930 . S
C1956 C1955 1.400 . S
C1956 C1959 1.386 . S
H1957 C1973 0.930 . S
H1958 C1974 0.931 . S
C1959 H1947 0.929 . S
C1959 C1953 1.390 . S
C1959 C1956 1.386 . S
C1960 C1955 1.490 . S
C1960 C1962 1.395 . S
C1960 C1963 1.403 . S
H1961 C1967 0.930 . S
C1962 H1948 0.930 . S
C1962 C1960 1.395 . S
C1962 C1965 1.403 . S
C1963 C1960 1.403 . S
C1963 C1964 1.524 . S
C1963 C1967 1.400 . S
C1964 H1949 0.960 . S
C1964 H1950 0.960 . S
C1964 H1951 0.960 . S
C1964 C1963 1.524 . S
C1965 C1962 1.403 . S
C1965 C1966 1.392 . S
C1965 C1969 1.495 . S
C1966 C1965 1.392 . S
C1966 C1967 1.385 . S
C1966 C1968 1.478 . S
C1967 H1961 0.930 . S
C1967 C1963 1.400 . S
C1967 C1966 1.385 . S
C1968 C1966 1.478 . S
C1968 C1970 1.381 . S
C1968 C1974 1.383 . S
C1969 C1965 1.495 . S
C1969 H1975 0.959 . S
C1969 H1976 0.961 . S
C1969 H1977 0.960 . S
C1970 C1968 1.381 . S
C1970 C1971 1.394 1_565 S
C1970 H1978 0.930 . S
C1971 C1970 1.394 1_545 S
C1971 C1972 1.383 . S
C1971 H1979 0.929 . S
C1972 C1971 1.383 . S
C1972 C1973 1.377 . S
C1973 H1957 0.930 . S
C1973 C1972 1.377 . S
C1973 C1974 1.379 1_545 S
C1974 H1958 0.931 . S
C1974 C1968 1.383 . S
C1974 C1973 1.379 1_565 S
H1975 C1969 0.959 . S
H1976 C1969 0.961 . S
H1977 C1969 0.960 . S
H1978 C1970 0.930 . S
H1979 C1971 0.929 . S
H1980 C1988 0.929 . S
H1981 C1990 0.930 . S
H1982 C1992 0.930 . S
H1983 C1995 0.929 . S
H1984 C1998 0.930 . S
H1985 C2000 0.960 . S
H1986 C2000 0.960 . S
H1987 C2000 0.960 . S
C1988 H1980 0.929 . S
C1988 C1989 1.377 . S
C1988 C1990 1.384 . S
C1989 C1988 1.377 . S
C1989 C1995 1.390 . S
C1990 H1981 0.930 . S
C1990 C1988 1.384 . S
C1990 C1991 1.372 . S
C1991 C1990 1.372 . S
C1991 C1992 1.400 . S
C1991 C1996 1.490 . S
C1992 H1982 0.930 . S
C1992 C1991 1.400 . S
C1992 C1995 1.386 . S
H1993 C2009 0.930 . S
H1994 C2010 0.931 . S
C1995 H1983 0.929 . S
C1995 C1989 1.390 . S
C1995 C1992 1.386 . S
C1996 C1991 1.490 . S
C1996 C1998 1.395 . S
C1996 C1999 1.403 . S
H1997 C2003 0.930 . S
C1998 H1984 0.930 . S
C1998 C1996 1.395 . S
C1998 C2001 1.403 . S
C1999 C1996 1.403 . S
C1999 C2000 1.524 . S
C1999 C2003 1.400 . S
C2000 H1985 0.960 . S
C2000 H1986 0.960 . S
C2000 H1987 0.960 . S
C2000 C1999 1.524 . S
C2001 C1998 1.403 . S
C2001 C2002 1.392 . S
C2001 C2005 1.495 . S
C2002 C2001 1.392 . S
C2002 C2003 1.385 . S
C2002 C2004 1.478 . S
C2003 H1997 0.930 . S
C2003 C1999 1.400 . S
C2003 C2002 1.385 . S
C2004 C2002 1.478 . S
C2004 C2006 1.381 1_545 S
C2004 C2010 1.383 . S
C2005 C2001 1.495 . S
C2005 H2011 0.959 . S
C2005 H2012 0.961 . S
C2005 H2013 0.960 . S
C2006 C2004 1.381 1_565 S
C2006 C2007 1.394 . S
C2006 H2014 0.930 . S
C2007 C2006 1.394 . S
C2007 C2008 1.383 . S
C2007 H2015 0.929 . S
C2008 C2007 1.383 . S
C2008 C2009 1.377 1_565 S
C2009 H1993 0.930 . S
C2009 C2008 1.377 1_545 S
C2009 C2010 1.379 . S
C2010 H1994 0.931 . S
C2010 C2004 1.383 . S
C2010 C2009 1.379 . S
H2011 C2005 0.959 . S
H2012 C2005 0.961 . S
H2013 C2005 0.960 . S
H2014 C2006 0.930 . S
H2015 C2007 0.929 . S
H2016 C2024 0.929 . S
H2017 C2026 0.930 . S
H2018 C2028 0.930 . S
H2019 C2031 0.929 . S
H2020 C2034 0.930 . S
H2021 C2036 0.960 . S
H2022 C2036 0.960 . S
H2023 C2036 0.960 . S
C2024 H2016 0.929 . S
C2024 C2025 1.377 . S
C2024 C2026 1.384 . S
C2025 C2024 1.377 . S
C2025 C2031 1.390 . S
C2026 H2017 0.930 . S
C2026 C2024 1.384 . S
C2026 C2027 1.372 . S
C2027 C2026 1.372 . S
C2027 C2028 1.400 . S
C2027 C2032 1.490 . S
C2028 H2018 0.930 . S
C2028 C2027 1.400 . S
C2028 C2031 1.386 . S
H2029 C2045 0.930 . S
H2030 C2046 0.931 . S
C2031 H2019 0.929 . S
C2031 C2025 1.390 . S
C2031 C2028 1.386 . S
C2032 C2027 1.490 . S
C2032 C2034 1.395 . S
C2032 C2035 1.403 . S
H2033 C2039 0.930 . S
C2034 H2020 0.930 . S
C2034 C2032 1.395 . S
C2034 C2037 1.403 . S
C2035 C2032 1.403 . S
C2035 C2036 1.524 . S
C2035 C2039 1.400 . S
C2036 H2021 0.960 . S
C2036 H2022 0.960 . S
C2036 H2023 0.960 . S
C2036 C2035 1.524 . S
C2037 C2034 1.403 . S
C2037 C2038 1.392 . S
C2037 C2041 1.495 . S
C2038 C2037 1.392 . S
C2038 C2039 1.385 . S
C2038 C2040 1.478 . S
C2039 H2033 0.930 . S
C2039 C2035 1.400 . S
C2039 C2038 1.385 . S
C2040 C2038 1.478 . S
C2040 C2042 1.381 . S
C2040 C2046 1.383 . S
C2041 C2037 1.495 . S
C2041 H2047 0.959 . S
C2041 H2048 0.961 . S
C2041 H2049 0.960 . S
C2042 C2040 1.381 . S
C2042 C2043 1.394 . S
C2042 H2050 0.930 . S
C2043 C2042 1.394 . S
C2043 C2044 1.383 . S
C2043 H2051 0.929 . S
C2044 C2043 1.383 . S
C2044 C2045 1.377 . S
C2045 H2029 0.930 . S
C2045 C2044 1.377 . S
C2045 C2046 1.379 . S
C2046 H2030 0.931 . S
C2046 C2040 1.383 . S
C2046 C2045 1.379 . S
H2047 C2041 0.959 . S
H2048 C2041 0.961 . S
H2049 C2041 0.960 . S
H2050 C2042 0.930 . S
H2051 C2043 0.929 . S
H2052 C2060 0.929 . S
H2053 C2062 0.930 . S
H2054 C2064 0.930 . S
H2055 C2067 0.929 . S
H2056 C2070 0.930 . S
H2057 C2072 0.960 . S
H2058 C2072 0.960 . S
H2059 C2072 0.960 . S
C2060 H2052 0.929 . S
C2060 C2061 1.377 . S
C2060 C2062 1.384 . S
C2061 C2060 1.377 . S
C2061 C2067 1.390 . S
C2062 H2053 0.930 . S
C2062 C2060 1.384 . S
C2062 C2063 1.372 . S
C2063 C2062 1.372 . S
C2063 C2064 1.400 . S
C2063 C2068 1.490 . S
C2064 H2054 0.930 . S
C2064 C2063 1.400 . S
C2064 C2067 1.386 . S
H2065 C2081 0.930 . S
H2066 C2082 0.931 . S
C2067 H2055 0.929 . S
C2067 C2061 1.390 . S
C2067 C2064 1.386 . S
C2068 C2063 1.490 . S
C2068 C2070 1.395 . S
C2068 C2071 1.403 . S
H2069 C2075 0.930 . S
C2070 H2056 0.930 . S
C2070 C2068 1.395 . S
C2070 C2073 1.403 . S
C2071 C2068 1.403 . S
C2071 C2072 1.524 . S
C2071 C2075 1.400 . S
C2072 H2057 0.960 . S
C2072 H2058 0.960 . S
C2072 H2059 0.960 . S
C2072 C2071 1.524 . S
C2073 C2070 1.403 . S
C2073 C2074 1.392 . S
C2073 C2077 1.495 . S
C2074 C2073 1.392 . S
C2074 C2075 1.385 . S
C2074 C2076 1.478 . S
C2075 H2069 0.930 . S
C2075 C2071 1.400 . S
C2075 C2074 1.385 . S
C2076 C2074 1.478 . S
C2076 C2078 1.381 . S
C2076 C2082 1.383 . S
C2077 C2073 1.495 . S
C2077 H2083 0.959 . S
C2077 H2084 0.961 . S
C2077 H2085 0.960 . S
C2078 C2076 1.381 . S
C2078 C2079 1.394 . S
C2078 H2086 0.930 . S
C2079 C2078 1.394 . S
C2079 C2080 1.383 . S
C2079 H2087 0.929 . S
C2080 C2079 1.383 . S
C2080 C2081 1.377 . S
C2081 H2065 0.930 . S
C2081 C2080 1.377 . S
C2081 C2082 1.379 . S
C2082 H2066 0.931 . S
C2082 C2076 1.383 . S
C2082 C2081 1.379 . S
H2083 C2077 0.959 . S
H2084 C2077 0.961 . S
H2085 C2077 0.960 . S
H2086 C2078 0.930 . S
H2087 C2079 0.929 . S
H2088 C2096 0.929 . S
H2089 C2098 0.930 . S
H2090 C2100 0.930 . S
H2091 C2103 0.929 . S
H2092 C2106 0.930 . S
H2093 C2108 0.960 . S
H2094 C2108 0.960 . S
H2095 C2108 0.960 . S
C2096 H2088 0.929 . S
C2096 C2097 1.377 . S
C2096 C2098 1.384 . S
C2097 C2096 1.377 . S
C2097 C2103 1.390 . S
C2098 H2089 0.930 . S
C2098 C2096 1.384 . S
C2098 C2099 1.372 . S
C2099 C2098 1.372 . S
C2099 C2100 1.400 . S
C2099 C2104 1.490 . S
C2100 H2090 0.930 . S
C2100 C2099 1.400 . S
C2100 C2103 1.386 . S
H2101 C2117 0.930 . S
H2102 C2118 0.931 . S
C2103 H2091 0.929 . S
C2103 C2097 1.390 . S
C2103 C2100 1.386 . S
C2104 C2099 1.490 . S
C2104 C2106 1.395 . S
C2104 C2107 1.403 . S
H2105 C2111 0.930 . S
C2106 H2092 0.930 . S
C2106 C2104 1.395 . S
C2106 C2109 1.403 . S
C2107 C2104 1.403 . S
C2107 C2108 1.524 . S
C2107 C2111 1.400 . S
C2108 H2093 0.960 . S
C2108 H2094 0.960 . S
C2108 H2095 0.960 . S
C2108 C2107 1.524 . S
C2109 C2106 1.403 . S
C2109 C2110 1.392 . S
C2109 C2113 1.495 . S
C2110 C2109 1.392 . S
C2110 C2111 1.385 . S
C2110 C2112 1.478 . S
C2111 H2105 0.930 . S
C2111 C2107 1.400 . S
C2111 C2110 1.385 . S
C2112 C2110 1.478 . S
C2112 C2114 1.381 . S
C2112 C2118 1.383 . S
C2113 C2109 1.495 . S
C2113 H2119 0.959 . S
C2113 H2120 0.961 . S
C2113 H2121 0.960 . S
C2114 C2112 1.381 . S
C2114 C2115 1.394 . S
C2114 H2122 0.930 . S
C2115 C2114 1.394 . S
C2115 C2116 1.383 . S
C2115 H2123 0.929 . S
C2116 C2115 1.383 . S
C2116 C2117 1.377 . S
C2117 H2101 0.930 . S
C2117 C2116 1.377 . S
C2117 C2118 1.379 . S
C2118 H2102 0.931 . S
C2118 C2112 1.383 . S
C2118 C2117 1.379 . S
H2119 C2113 0.959 . S
H2120 C2113 0.961 . S
H2121 C2113 0.960 . S
H2122 C2114 0.930 . S
H2123 C2115 0.929 . S
H2124 C2132 0.929 . S
H2125 C2134 0.930 . S
H2126 C2136 0.930 . S
H2127 C2139 0.929 . S
H2128 C2142 0.930 . S
H2129 C2144 0.960 . S
H2130 C2144 0.960 . S
H2131 C2144 0.960 . S
C2132 H2124 0.929 . S
C2132 C2133 1.377 . S
C2132 C2134 1.384 . S
C2133 C2132 1.377 . S
C2133 C2139 1.390 . S
C2134 H2125 0.930 . S
C2134 C2132 1.384 . S
C2134 C2135 1.372 . S
C2135 C2134 1.372 . S
C2135 C2136 1.400 . S
C2135 C2140 1.490 . S
C2136 H2126 0.930 . S
C2136 C2135 1.400 . S
C2136 C2139 1.386 . S
H2137 C2153 0.930 . S
H2138 C2154 0.931 . S
C2139 H2127 0.929 . S
C2139 C2133 1.390 . S
C2139 C2136 1.386 . S
C2140 C2135 1.490 . S
C2140 C2142 1.395 . S
C2140 C2143 1.403 . S
H2141 C2147 0.930 . S
C2142 H2128 0.930 . S
C2142 C2140 1.395 . S
C2142 C2145 1.403 . S
C2143 C2140 1.403 . S
C2143 C2144 1.524 . S
C2143 C2147 1.400 . S
C2144 H2129 0.960 . S
C2144 H2130 0.960 . S
C2144 H2131 0.960 . S
C2144 C2143 1.524 . S
C2145 C2142 1.403 . S
C2145 C2146 1.392 . S
C2145 C2149 1.495 . S
C2146 C2145 1.392 . S
C2146 C2147 1.385 . S
C2146 C2148 1.478 . S
C2147 H2141 0.930 . S
C2147 C2143 1.400 . S
C2147 C2146 1.385 . S
C2148 C2146 1.478 . S
C2148 C2150 1.381 . S
C2148 C2154 1.383 . S
C2149 C2145 1.495 . S
C2149 H2155 0.959 . S
C2149 H2156 0.961 . S
C2149 H2157 0.960 . S
C2150 C2148 1.381 . S
C2150 C2151 1.394 . S
C2150 H2158 0.930 . S
C2151 C2150 1.394 . S
C2151 C2152 1.383 . S
C2151 H2159 0.929 . S
C2152 C2151 1.383 . S
C2152 C2153 1.377 . S
C2153 H2137 0.930 . S
C2153 C2152 1.377 . S
C2153 C2154 1.379 . S
C2154 H2138 0.931 . S
C2154 C2148 1.383 . S
C2154 C2153 1.379 . S
H2155 C2149 0.959 . S
H2156 C2149 0.961 . S
H2157 C2149 0.960 . S
H2158 C2150 0.930 . S
H2159 C2151 0.929 . S
H2160 C2168 0.929 . S
H2161 C2170 0.930 . S
H2162 C2172 0.930 . S
H2163 C2175 0.929 . S
H2164 C2178 0.930 . S
H2165 C2180 0.960 . S
H2166 C2180 0.960 . S
H2167 C2180 0.960 . S
C2168 H2160 0.929 . S
C2168 C2169 1.377 . S
C2168 C2170 1.384 . S
C2169 C2168 1.377 . S
C2169 C2175 1.390 . S
C2170 H2161 0.930 . S
C2170 C2168 1.384 . S
C2170 C2171 1.372 . S
C2171 C2170 1.372 . S
C2171 C2172 1.400 . S
C2171 C2176 1.490 . S
C2172 H2162 0.930 . S
C2172 C2171 1.400 . S
C2172 C2175 1.386 . S
H2173 C2189 0.930 . S
H2174 C2190 0.931 . S
C2175 H2163 0.929 . S
C2175 C2169 1.390 . S
C2175 C2172 1.386 . S
C2176 C2171 1.490 . S
C2176 C2178 1.395 . S
C2176 C2179 1.403 . S
H2177 C2183 0.930 . S
C2178 H2164 0.930 . S
C2178 C2176 1.395 . S
C2178 C2181 1.403 . S
C2179 C2176 1.403 . S
C2179 C2180 1.524 . S
C2179 C2183 1.400 . S
C2180 H2165 0.960 . S
C2180 H2166 0.960 . S
C2180 H2167 0.960 . S
C2180 C2179 1.524 . S
C2181 C2178 1.403 . S
C2181 C2182 1.392 . S
C2181 C2185 1.495 . S
C2182 C2181 1.392 . S
C2182 C2183 1.385 . S
C2182 C2184 1.478 . S
C2183 H2177 0.930 . S
C2183 C2179 1.400 . S
C2183 C2182 1.385 . S
C2184 C2182 1.478 . S
C2184 C2186 1.381 . S
C2184 C2190 1.383 . S
C2185 C2181 1.495 . S
C2185 H2191 0.959 . S
C2185 H2192 0.961 . S
C2185 H2193 0.960 . S
C2186 C2184 1.381 . S
C2186 C2187 1.394 . S
C2186 H2194 0.930 . S
C2187 C2186 1.394 . S
C2187 C2188 1.383 . S
C2187 H2195 0.929 . S
C2188 C2187 1.383 . S
C2188 C2189 1.377 . S
C2189 H2173 0.930 . S
C2189 C2188 1.377 . S
C2189 C2190 1.379 . S
C2190 H2174 0.931 . S
C2190 C2184 1.383 . S
C2190 C2189 1.379 . S
H2191 C2185 0.959 . S
H2192 C2185 0.961 . S
H2193 C2185 0.960 . S
H2194 C2186 0.930 . S
H2195 C2187 0.929 . S
H2196 C2204 0.929 . S
H2197 C2206 0.930 . S
H2198 C2208 0.930 . S
H2199 C2211 0.929 . S
H2200 C2214 0.930 . S
H2201 C2216 0.960 . S
H2202 C2216 0.960 . S
H2203 C2216 0.960 . S
C2204 H2196 0.929 . S
C2204 C2205 1.377 . S
C2204 C2206 1.384 . S
C2205 C2204 1.377 . S
C2205 C2211 1.390 . S
C2206 H2197 0.930 . S
C2206 C2204 1.384 . S
C2206 C2207 1.372 . S
C2207 C2206 1.372 . S
C2207 C2208 1.400 . S
C2207 C2212 1.490 . S
C2208 H2198 0.930 . S
C2208 C2207 1.400 . S
C2208 C2211 1.386 . S
H2209 C2225 0.930 . S
H2210 C2226 0.931 . S
C2211 H2199 0.929 . S
C2211 C2205 1.390 . S
C2211 C2208 1.386 . S
C2212 C2207 1.490 . S
C2212 C2214 1.395 . S
C2212 C2215 1.403 . S
H2213 C2219 0.930 . S
C2214 H2200 0.930 . S
C2214 C2212 1.395 . S
C2214 C2217 1.403 . S
C2215 C2212 1.403 . S
C2215 C2216 1.524 . S
C2215 C2219 1.400 . S
C2216 H2201 0.960 . S
C2216 H2202 0.960 . S
C2216 H2203 0.960 . S
C2216 C2215 1.524 . S
C2217 C2214 1.403 . S
C2217 C2218 1.392 . S
C2217 C2221 1.495 . S
C2218 C2217 1.392 . S
C2218 C2219 1.385 . S
C2218 C2220 1.478 . S
C2219 H2213 0.930 . S
C2219 C2215 1.400 . S
C2219 C2218 1.385 . S
C2220 C2218 1.478 . S
C2220 C2222 1.381 . S
C2220 C2226 1.383 . S
C2221 C2217 1.495 . S
C2221 H2227 0.959 . S
C2221 H2228 0.961 . S
C2221 H2229 0.960 . S
C2222 C2220 1.381 . S
C2222 C2223 1.394 . S
C2222 H2230 0.930 . S
C2223 C2222 1.394 . S
C2223 C2224 1.383 . S
C2223 H2231 0.929 . S
C2224 C2223 1.383 . S
C2224 C2225 1.377 . S
C2225 H2209 0.930 . S
C2225 C2224 1.377 . S
C2225 C2226 1.379 . S
C2226 H2210 0.931 . S
C2226 C2220 1.383 . S
C2226 C2225 1.379 . S
H2227 C2221 0.959 . S
H2228 C2221 0.961 . S
H2229 C2221 0.960 . S
H2230 C2222 0.930 . S
H2231 C2223 0.929 . S
H2232 C2240 0.929 . S
H2233 C2242 0.930 . S
H2234 C2244 0.930 . S
H2235 C2247 0.929 . S
H2236 C2250 0.930 . S
H2237 C2252 0.960 . S
H2238 C2252 0.960 . S
H2239 C2252 0.960 . S
C2240 H2232 0.929 . S
C2240 C2241 1.377 . S
C2240 C2242 1.384 . S
C2241 C2240 1.377 . S
C2241 C2247 1.390 . S
C2242 H2233 0.930 . S
C2242 C2240 1.384 . S
C2242 C2243 1.372 . S
C2243 C2242 1.372 . S
C2243 C2244 1.400 . S
C2243 C2248 1.490 . S
C2244 H2234 0.930 . S
C2244 C2243 1.400 . S
C2244 C2247 1.386 . S
H2245 C2261 0.930 . S
H2246 C2262 0.931 . S
C2247 H2235 0.929 . S
C2247 C2241 1.390 . S
C2247 C2244 1.386 . S
C2248 C2243 1.490 . S
C2248 C2250 1.395 . S
C2248 C2251 1.403 . S
H2249 C2255 0.930 . S
C2250 H2236 0.930 . S
C2250 C2248 1.395 . S
C2250 C2253 1.403 . S
C2251 C2248 1.403 . S
C2251 C2252 1.524 . S
C2251 C2255 1.400 . S
C2252 H2237 0.960 . S
C2252 H2238 0.960 . S
C2252 H2239 0.960 . S
C2252 C2251 1.524 . S
C2253 C2250 1.403 . S
C2253 C2254 1.392 . S
C2253 C2257 1.495 . S
C2254 C2253 1.392 . S
C2254 C2255 1.385 . S
C2254 C2256 1.478 . S
C2255 H2249 0.930 . S
C2255 C2251 1.400 . S
C2255 C2254 1.385 . S
C2256 C2254 1.478 . S
C2256 C2258 1.381 . S
C2256 C2262 1.383 . S
C2257 C2253 1.495 . S
C2257 H2263 0.959 . S
C2257 H2264 0.961 . S
C2257 H2265 0.960 . S
C2258 C2256 1.381 . S
C2258 C2259 1.394 . S
C2258 H2266 0.930 . S
C2259 C2258 1.394 . S
C2259 C2260 1.383 . S
C2259 H2267 0.929 . S
C2260 C2259 1.383 . S
C2260 C2261 1.377 . S
C2261 H2245 0.930 . S
C2261 C2260 1.377 . S
C2261 C2262 1.379 . S
C2262 H2246 0.931 . S
C2262 C2256 1.383 . S
C2262 C2261 1.379 . S
H2263 C2257 0.959 . S
H2264 C2257 0.961 . S
H2265 C2257 0.960 . S
H2266 C2258 0.930 . S
H2267 C2259 0.929 . S
H2268 C2276 0.929 . S
H2269 C2278 0.930 . S
H2270 C2280 0.930 . S
H2271 C2283 0.929 . S
H2272 C2286 0.930 . S
H2273 C2288 0.960 . S
H2274 C2288 0.960 . S
H2275 C2288 0.960 . S
C2276 H2268 0.929 . S
C2276 C2277 1.377 . S
C2276 C2278 1.384 . S
C2277 C2276 1.377 . S
C2277 C2283 1.390 . S
C2278 H2269 0.930 . S
C2278 C2276 1.384 . S
C2278 C2279 1.372 . S
C2279 C2278 1.372 . S
C2279 C2280 1.400 . S
C2279 C2284 1.490 . S
C2280 H2270 0.930 . S
C2280 C2279 1.400 . S
C2280 C2283 1.386 . S
H2281 C2297 0.930 . S
H2282 C2298 0.931 . S
C2283 H2271 0.929 . S
C2283 C2277 1.390 . S
C2283 C2280 1.386 . S
C2284 C2279 1.490 . S
C2284 C2286 1.395 . S
C2284 C2287 1.403 . S
H2285 C2291 0.930 . S
C2286 H2272 0.930 . S
C2286 C2284 1.395 . S
C2286 C2289 1.403 . S
C2287 C2284 1.403 . S
C2287 C2288 1.524 . S
C2287 C2291 1.400 . S
C2288 H2273 0.960 . S
C2288 H2274 0.960 . S
C2288 H2275 0.960 . S
C2288 C2287 1.524 . S
C2289 C2286 1.403 . S
C2289 C2290 1.392 . S
C2289 C2293 1.495 . S
C2290 C2289 1.392 . S
C2290 C2291 1.385 . S
C2290 C2292 1.478 . S
C2291 H2285 0.930 . S
C2291 C2287 1.400 . S
C2291 C2290 1.385 . S
C2292 C2290 1.478 . S
C2292 C2294 1.381 . S
C2292 C2298 1.383 . S
C2293 C2289 1.495 . S
C2293 H2299 0.959 . S
C2293 H2300 0.961 . S
C2293 H2301 0.960 . S
C2294 C2292 1.381 . S
C2294 C2295 1.394 . S
C2294 H2302 0.930 . S
C2295 C2294 1.394 . S
C2295 C2296 1.383 . S
C2295 H2303 0.929 . S
C2296 C2295 1.383 . S
C2296 C2297 1.377 . S
C2297 H2281 0.930 . S
C2297 C2296 1.377 . S
C2297 C2298 1.379 . S
C2298 H2282 0.931 . S
C2298 C2292 1.383 . S
C2298 C2297 1.379 . S
H2299 C2293 0.959 . S
H2300 C2293 0.961 . S
H2301 C2293 0.960 . S
H2302 C2294 0.930 . S
H2303 C2295 0.929 . S
H2304 C2312 0.929 . S
H2305 C2314 0.930 . S
H2306 C2316 0.930 . S
H2307 C2319 0.929 . S
H2308 C2322 0.930 . S
H2309 C2324 0.960 . S
H2310 C2324 0.960 . S
H2311 C2324 0.960 . S
C2312 H2304 0.929 . S
C2312 C2313 1.377 . S
C2312 C2314 1.384 . S
C2313 C2312 1.377 . S
C2313 C2319 1.390 . S
C2314 H2305 0.930 . S
C2314 C2312 1.384 . S
C2314 C2315 1.372 . S
C2315 C2314 1.372 . S
C2315 C2316 1.400 . S
C2315 C2320 1.490 . S
C2316 H2306 0.930 . S
C2316 C2315 1.400 . S
C2316 C2319 1.386 . S
H2317 C2333 0.930 . S
H2318 C2334 0.931 . S
C2319 H2307 0.929 . S
C2319 C2313 1.390 . S
C2319 C2316 1.386 . S
C2320 C2315 1.490 . S
C2320 C2322 1.395 . S
C2320 C2323 1.403 . S
H2321 C2327 0.930 . S
C2322 H2308 0.930 . S
C2322 C2320 1.395 . S
C2322 C2325 1.403 . S
C2323 C2320 1.403 . S
C2323 C2324 1.524 . S
C2323 C2327 1.400 . S
C2324 H2309 0.960 . S
C2324 H2310 0.960 . S
C2324 H2311 0.960 . S
C2324 C2323 1.524 . S
C2325 C2322 1.403 . S
C2325 C2326 1.392 . S
C2325 C2329 1.495 . S
C2326 C2325 1.392 . S
C2326 C2327 1.385 . S
C2326 C2328 1.478 . S
C2327 H2321 0.930 . S
C2327 C2323 1.400 . S
C2327 C2326 1.385 . S
C2328 C2326 1.478 . S
C2328 C2330 1.381 . S
C2328 C2334 1.383 . S
C2329 C2325 1.495 . S
C2329 H2335 0.959 . S
C2329 H2336 0.961 . S
C2329 H2337 0.960 . S
C2330 C2328 1.381 . S
C2330 C2331 1.394 . S
C2330 H2338 0.930 . S
C2331 C2330 1.394 . S
C2331 C2332 1.383 . S
C2331 H2339 0.929 . S
C2332 C2331 1.383 . S
C2332 C2333 1.377 . S
C2333 H2317 0.930 . S
C2333 C2332 1.377 . S
C2333 C2334 1.379 . S
C2334 H2318 0.931 . S
C2334 C2328 1.383 . S
C2334 C2333 1.379 . S
H2335 C2329 0.959 . S
H2336 C2329 0.961 . S
H2337 C2329 0.960 . S
H2338 C2330 0.930 . S
H2339 C2331 0.929 . S
H2340 C2348 0.929 . S
H2341 C2350 0.930 . S
H2342 C2352 0.930 . S
H2343 C2355 0.929 . S
H2344 C2358 0.930 . S
H2345 C2360 0.960 . S
H2346 C2360 0.960 . S
H2347 C2360 0.960 . S
C2348 H2340 0.929 . S
C2348 C2349 1.377 . S
C2348 C2350 1.384 . S
C2349 C2348 1.377 . S
C2349 C2355 1.390 . S
C2350 H2341 0.930 . S
C2350 C2348 1.384 . S
C2350 C2351 1.372 . S
C2351 C2350 1.372 . S
C2351 C2352 1.400 . S
C2351 C2356 1.490 . S
C2352 H2342 0.930 . S
C2352 C2351 1.400 . S
C2352 C2355 1.386 . S
H2353 C2369 0.930 . S
H2354 C2370 0.931 . S
C2355 H2343 0.929 . S
C2355 C2349 1.390 . S
C2355 C2352 1.386 . S
C2356 C2351 1.490 . S
C2356 C2358 1.395 . S
C2356 C2359 1.403 . S
H2357 C2363 0.930 . S
C2358 H2344 0.930 . S
C2358 C2356 1.395 . S
C2358 C2361 1.403 . S
C2359 C2356 1.403 . S
C2359 C2360 1.524 . S
C2359 C2363 1.400 . S
C2360 H2345 0.960 . S
C2360 H2346 0.960 . S
C2360 H2347 0.960 . S
C2360 C2359 1.524 . S
C2361 C2358 1.403 . S
C2361 C2362 1.392 . S
C2361 C2365 1.495 . S
C2362 C2361 1.392 . S
C2362 C2363 1.385 . S
C2362 C2364 1.525 . S
C2363 H2357 0.930 . S
C2363 C2359 1.400 . S
C2363 C2362 1.385 . S
C2364 C2362 1.525 . S
C2364 C2366 1.359 1_455 S
C2364 C2370 1.359 1_455 S
C2365 C2361 1.495 . S
C2365 H2371 0.959 . S
C2365 H2372 0.961 1_455 S
C2365 H2373 0.960 . S
C2366 C2364 1.359 1_655 S
C2366 C2367 1.394 . S
C2366 H2374 0.930 . S
C2367 C2366 1.394 . S
C2367 C2368 1.383 . S
C2367 H2375 0.929 . S
C2368 C2367 1.383 . S
C2368 C2369 1.377 . S
C2369 H2353 0.930 . S
C2369 C2368 1.377 . S
C2369 C2370 1.379 . S
C2370 H2354 0.931 . S
C2370 C2364 1.359 1_655 S
C2370 C2369 1.379 . S
H2371 C2365 0.959 . S
H2372 C2365 0.961 1_655 S
H2373 C2365 0.960 . S
H2374 C2366 0.930 . S
H2375 C2367 0.929 . S
H2376 C2384 0.929 . S
H2377 C2386 0.930 . S
H2378 C2388 0.930 . S
H2379 C2391 0.929 . S
H2380 C2394 0.930 . S
H2381 C2396 0.960 . S
H2382 C2396 0.960 . S
H2383 C2396 0.960 . S
C2384 H2376 0.929 . S
C2384 C2385 1.377 . S
C2384 C2386 1.384 . S
C2385 C2384 1.377 . S
C2385 C2391 1.390 . S
C2386 H2377 0.930 . S
C2386 C2384 1.384 . S
C2386 C2387 1.372 . S
C2387 C2386 1.372 . S
C2387 C2388 1.400 . S
C2387 C2392 1.490 . S
C2388 H2378 0.930 . S
C2388 C2387 1.400 . S
C2388 C2391 1.386 . S
H2389 C2405 0.930 . S
H2390 C2406 0.931 . S
C2391 H2379 0.929 . S
C2391 C2385 1.390 . S
C2391 C2388 1.386 . S
C2392 C2387 1.490 . S
C2392 C2394 1.395 . S
C2392 C2395 1.403 . S
H2393 C2399 0.930 . S
C2394 H2380 0.930 . S
C2394 C2392 1.395 . S
C2394 C2397 1.403 . S
C2395 C2392 1.403 . S
C2395 C2396 1.524 . S
C2395 C2399 1.400 . S
C2396 H2381 0.960 . S
C2396 H2382 0.960 . S
C2396 H2383 0.960 . S
C2396 C2395 1.524 . S
C2397 C2394 1.403 . S
C2397 C2398 1.392 . S
C2397 C2401 1.495 . S
C2398 C2397 1.392 . S
C2398 C2399 1.385 . S
C2398 C2400 1.478 . S
C2399 H2393 0.930 . S
C2399 C2395 1.400 . S
C2399 C2398 1.385 . S
C2400 C2398 1.478 . S
C2400 C2402 1.381 . S
C2400 C2406 1.383 . S
C2401 C2397 1.495 . S
C2401 H2407 0.959 . S
C2401 H2408 0.961 . S
C2401 H2409 0.960 . S
C2402 C2400 1.381 . S
C2402 C2403 1.394 . S
C2402 H2410 0.930 . S
C2403 C2402 1.394 . S
C2403 C2404 1.383 . S
C2403 H2411 0.929 . S
C2404 C2403 1.383 . S
C2404 C2405 1.377 . S
C2405 H2389 0.930 . S
C2405 C2404 1.377 . S
C2405 C2406 1.379 . S
C2406 H2390 0.931 . S
C2406 C2400 1.383 . S
C2406 C2405 1.379 . S
H2407 C2401 0.959 . S
H2408 C2401 0.961 . S
H2409 C2401 0.960 . S
H2410 C2402 0.930 . S
H2411 C2403 0.929 . S
H2412 C2420 0.929 . S
H2413 C2422 0.930 . S
H2414 C2424 0.930 . S
H2415 C2427 0.929 . S
H2416 C2430 0.930 . S
H2417 C2432 0.960 . S
H2418 C2432 0.960 . S
H2419 C2432 0.960 . S
C2420 H2412 0.929 . S
C2420 C2421 1.377 . S
C2420 C2422 1.384 . S
C2421 C2420 1.377 . S
C2421 C2427 1.390 . S
C2422 H2413 0.930 . S
C2422 C2420 1.384 . S
C2422 C2423 1.372 . S
C2423 C2422 1.372 . S
C2423 C2424 1.400 . S
C2423 C2428 1.490 . S
C2424 H2414 0.930 . S
C2424 C2423 1.400 . S
C2424 C2427 1.386 . S
H2425 C2441 0.930 . S
H2426 C2442 0.931 . S
C2427 H2415 0.929 . S
C2427 C2421 1.390 . S
C2427 C2424 1.386 . S
C2428 C2423 1.490 . S
C2428 C2430 1.395 . S
C2428 C2431 1.403 . S
H2429 C2435 0.930 . S
C2430 H2416 0.930 . S
C2430 C2428 1.395 . S
C2430 C2433 1.403 . S
C2431 C2428 1.403 . S
C2431 C2432 1.524 . S
C2431 C2435 1.400 . S
C2432 H2417 0.960 . S
C2432 H2418 0.960 . S
C2432 H2419 0.960 . S
C2432 C2431 1.524 . S
C2433 C2430 1.403 . S
C2433 C2434 1.392 . S
C2433 C2437 1.495 . S
C2434 C2433 1.392 . S
C2434 C2435 1.385 . S
C2434 C2436 1.478 . S
C2435 H2429 0.930 . S
C2435 C2431 1.400 . S
C2435 C2434 1.385 . S
C2436 C2434 1.478 . S
C2436 C2438 1.381 . S
C2436 C2442 1.383 . S
C2437 C2433 1.495 . S
C2437 H2443 0.959 . S
C2437 H2444 0.961 . S
C2437 H2445 0.960 . S
C2438 C2436 1.381 . S
C2438 C2439 1.394 . S
C2438 H2446 0.930 . S
C2439 C2438 1.394 . S
C2439 C2440 1.383 . S
C2439 H2447 0.929 . S
C2440 C2439 1.383 . S
C2440 C2441 1.377 . S
C2441 H2425 0.930 . S
C2441 C2440 1.377 . S
C2441 C2442 1.379 . S
C2442 H2426 0.931 . S
C2442 C2436 1.383 . S
C2442 C2441 1.379 . S
H2443 C2437 0.959 . S
H2444 C2437 0.961 . S
H2445 C2437 0.960 . S
H2446 C2438 0.930 . S
H2447 C2439 0.929 . S
H2448 C2456 0.929 . S
H2449 C2458 0.930 . S
H2450 C2460 0.930 . S
H2451 C2463 0.929 . S
H2452 C2466 0.930 . S
H2453 C2468 0.960 . S
H2454 C2468 0.960 . S
H2455 C2468 0.960 . S
C2456 H2448 0.929 . S
C2456 C2457 1.377 . S
C2456 C2458 1.384 . S
C2457 C2456 1.377 . S
C2457 C2463 1.390 . S
C2458 H2449 0.930 . S
C2458 C2456 1.384 . S
C2458 C2459 1.372 . S
C2459 C2458 1.372 . S
C2459 C2460 1.400 . S
C2459 C2464 1.490 . S
C2460 H2450 0.930 . S
C2460 C2459 1.400 . S
C2460 C2463 1.386 . S
H2461 C2477 0.930 . S
H2462 C2478 0.931 . S
C2463 H2451 0.929 . S
C2463 C2457 1.390 . S
C2463 C2460 1.386 . S
C2464 C2459 1.490 . S
C2464 C2466 1.395 . S
C2464 C2467 1.403 . S
H2465 C2471 0.930 . S
C2466 H2452 0.930 . S
C2466 C2464 1.395 . S
C2466 C2469 1.403 . S
C2467 C2464 1.403 . S
C2467 C2468 1.524 . S
C2467 C2471 1.400 . S
C2468 H2453 0.960 . S
C2468 H2454 0.960 . S
C2468 H2455 0.960 . S
C2468 C2467 1.524 . S
C2469 C2466 1.403 . S
C2469 C2470 1.392 . S
C2469 C2473 1.495 . S
C2470 C2469 1.392 . S
C2470 C2471 1.385 . S
C2470 C2472 1.478 . S
C2471 H2465 0.930 . S
C2471 C2467 1.400 . S
C2471 C2470 1.385 . S
C2472 C2470 1.478 . S
C2472 C2474 1.381 . S
C2472 C2478 1.383 . S
C2473 C2469 1.495 . S
C2473 H2479 0.959 . S
C2473 H2480 0.961 . S
C2473 H2481 0.960 . S
C2474 C2472 1.381 . S
C2474 C2475 1.394 . S
C2474 H2482 0.930 . S
C2475 C2474 1.394 . S
C2475 C2476 1.383 . S
C2475 H2483 0.929 . S
C2476 C2475 1.383 . S
C2476 C2477 1.377 . S
C2477 H2461 0.930 . S
C2477 C2476 1.377 . S
C2477 C2478 1.379 . S
C2478 H2462 0.931 . S
C2478 C2472 1.383 . S
C2478 C2477 1.379 . S
H2479 C2473 0.959 . S
H2480 C2473 0.961 . S
H2481 C2473 0.960 . S
H2482 C2474 0.930 . S
H2483 C2475 0.929 . S
H2484 C2492 0.929 . S
H2485 C2494 0.930 . S
H2486 C2496 0.930 . S
H2487 C2499 0.929 . S
H2488 C2502 0.930 . S
H2489 C2504 0.960 . S
H2490 C2504 0.960 . S
H2491 C2504 0.960 . S
C2492 H2484 0.929 . S
C2492 C2493 1.377 . S
C2492 C2494 1.384 . S
C2493 C2492 1.377 . S
C2493 C2499 1.390 . S
C2494 H2485 0.930 . S
C2494 C2492 1.384 . S
C2494 C2495 1.372 . S
C2495 C2494 1.372 . S
C2495 C2496 1.400 . S
C2495 C2500 1.490 . S
C2496 H2486 0.930 . S
C2496 C2495 1.400 . S
C2496 C2499 1.386 . S
H2497 C2513 0.930 . S
H2498 C2514 0.931 . S
C2499 H2487 0.929 . S
C2499 C2493 1.390 . S
C2499 C2496 1.386 . S
C2500 C2495 1.490 . S
C2500 C2502 1.395 . S
C2500 C2503 1.403 . S
H2501 C2507 0.930 . S
C2502 H2488 0.930 . S
C2502 C2500 1.395 . S
C2502 C2505 1.403 . S
C2503 C2500 1.403 . S
C2503 C2504 1.524 . S
C2503 C2507 1.400 . S
C2504 H2489 0.960 . S
C2504 H2490 0.960 . S
C2504 H2491 0.960 . S
C2504 C2503 1.524 . S
C2505 C2502 1.403 . S
C2505 C2506 1.392 . S
C2505 C2509 1.495 . S
C2506 C2505 1.392 . S
C2506 C2507 1.385 . S
C2506 C2508 1.478 . S
C2507 H2501 0.930 . S
C2507 C2503 1.400 . S
C2507 C2506 1.385 . S
C2508 C2506 1.478 . S
C2508 C2510 1.381 . S
C2508 C2514 1.383 . S
C2509 C2505 1.495 . S
C2509 H2515 0.959 . S
C2509 H2516 0.961 . S
C2509 H2517 0.960 . S
C2510 C2508 1.381 . S
C2510 C2511 1.394 . S
C2510 H2518 0.930 . S
C2511 C2510 1.394 . S
C2511 C2512 1.383 . S
C2511 H2519 0.929 . S
C2512 C2511 1.383 . S
C2512 C2513 1.377 . S
C2513 H2497 0.930 . S
C2513 C2512 1.377 . S
C2513 C2514 1.379 . S
C2514 H2498 0.931 . S
C2514 C2508 1.383 . S
C2514 C2513 1.379 . S
H2515 C2509 0.959 . S
H2516 C2509 0.961 . S
H2517 C2509 0.960 . S
H2518 C2510 0.930 . S
H2519 C2511 0.929 . S
H2520 C2528 0.929 . S
H2521 C2530 0.930 . S
H2522 C2532 0.930 . S
H2523 C2535 0.929 . S
H2524 C2538 0.930 . S
H2525 C2540 0.960 . S
H2526 C2540 0.960 . S
H2527 C2540 0.960 . S
C2528 H2520 0.929 . S
C2528 C2529 1.377 . S
C2528 C2530 1.384 . S
C2529 C2528 1.377 . S
C2529 C2535 1.390 . S
C2530 H2521 0.930 . S
C2530 C2528 1.384 . S
C2530 C2531 1.372 . S
C2531 C2530 1.372 . S
C2531 C2532 1.400 . S
C2531 C2536 1.490 . S
C2532 H2522 0.930 . S
C2532 C2531 1.400 . S
C2532 C2535 1.386 . S
H2533 C2549 0.930 . S
H2534 C2550 0.931 . S
C2535 H2523 0.929 . S
C2535 C2529 1.390 . S
C2535 C2532 1.386 . S
C2536 C2531 1.490 . S
C2536 C2538 1.395 . S
C2536 C2539 1.403 . S
H2537 C2543 0.930 . S
C2538 H2524 0.930 . S
C2538 C2536 1.395 . S
C2538 C2541 1.403 . S
C2539 C2536 1.403 . S
C2539 C2540 1.524 . S
C2539 C2543 1.400 . S
C2540 H2525 0.960 . S
C2540 H2526 0.960 . S
C2540 H2527 0.960 . S
C2540 C2539 1.524 . S
C2541 C2538 1.403 . S
C2541 C2542 1.392 . S
C2541 C2545 1.495 . S
C2542 C2541 1.392 . S
C2542 C2543 1.385 . S
C2542 C2544 1.478 . S
C2543 H2537 0.930 . S
C2543 C2539 1.400 . S
C2543 C2542 1.385 . S
C2544 C2542 1.478 . S
C2544 C2546 1.381 . S
C2544 C2550 1.383 . S
C2545 C2541 1.495 . S
C2545 H2551 0.959 . S
C2545 H2552 0.961 . S
C2545 H2553 0.960 . S
C2546 C2544 1.381 . S
C2546 C2547 1.394 . S
C2546 H2554 0.930 . S
C2547 C2546 1.394 . S
C2547 C2548 1.383 . S
C2547 H2555 0.929 . S
C2548 C2547 1.383 . S
C2548 C2549 1.377 . S
C2549 H2533 0.930 . S
C2549 C2548 1.377 . S
C2549 C2550 1.379 . S
C2550 H2534 0.931 . S
C2550 C2544 1.383 . S
C2550 C2549 1.379 . S
H2551 C2545 0.959 . S
H2552 C2545 0.961 . S
H2553 C2545 0.960 . S
H2554 C2546 0.930 . S
H2555 C2547 0.929 . S
H2556 C2564 0.929 . S
H2557 C2566 0.930 . S
H2558 C2568 0.930 . S
H2559 C2571 0.929 . S
H2560 C2574 0.930 . S
H2561 C2576 0.960 . S
H2562 C2576 0.960 . S
H2563 C2576 0.960 . S
C2564 H2556 0.929 . S
C2564 C2565 1.377 . S
C2564 C2566 1.384 . S
C2565 C2564 1.377 . S
C2565 C2571 1.390 . S
C2566 H2557 0.930 . S
C2566 C2564 1.384 . S
C2566 C2567 1.372 . S
C2567 C2566 1.372 . S
C2567 C2568 1.400 . S
C2567 C2572 1.490 . S
C2568 H2558 0.930 . S
C2568 C2567 1.400 . S
C2568 C2571 1.386 . S
H2569 C2585 0.930 . S
H2570 C2586 0.931 . S
C2571 H2559 0.929 . S
C2571 C2565 1.390 . S
C2571 C2568 1.386 . S
C2572 C2567 1.490 . S
C2572 C2574 1.395 . S
C2572 C2575 1.403 . S
H2573 C2579 0.930 . S
C2574 H2560 0.930 . S
C2574 C2572 1.395 . S
C2574 C2577 1.403 . S
C2575 C2572 1.403 . S
C2575 C2576 1.524 . S
C2575 C2579 1.400 . S
C2576 H2561 0.960 . S
C2576 H2562 0.960 . S
C2576 H2563 0.960 . S
C2576 C2575 1.524 . S
C2577 C2574 1.403 . S
C2577 C2578 1.392 . S
C2577 C2581 1.495 . S
C2578 C2577 1.392 . S
C2578 C2579 1.385 . S
C2578 C2580 1.478 . S
C2579 H2573 0.930 . S
C2579 C2575 1.400 . S
C2579 C2578 1.385 . S
C2580 C2578 1.478 . S
C2580 C2582 1.381 1_455 S
C2580 C2586 1.383 1_455 S
C2581 C2577 1.495 . S
C2581 H2587 0.959 . S
C2581 H2588 0.961 . S
C2581 H2589 0.960 . S
C2582 C2580 1.381 1_655 S
C2582 C2583 1.394 . S
C2582 H2590 0.930 1_655 S
C2583 C2582 1.394 . S
C2583 C2584 1.383 . S
C2583 H2591 0.929 . S
C2584 C2583 1.383 . S
C2584 C2585 1.377 . S
C2585 H2569 0.930 . S
C2585 C2584 1.377 . S
C2585 C2586 1.379 . S
C2586 H2570 0.931 . S
C2586 C2580 1.383 1_655 S
C2586 C2585 1.379 . S
H2587 C2581 0.959 . S
H2588 C2581 0.961 . S
H2589 C2581 0.960 . S
H2590 C2582 0.930 1_455 S
H2591 C2583 0.929 . S
H2592 C2600 0.929 . S
H2593 C2602 0.930 . S
H2594 C2604 0.930 . S
H2595 C2607 0.929 . S
H2596 C2610 0.930 . S
H2597 C2612 0.960 . S
H2598 C2612 0.960 . S
H2599 C2612 0.960 . S
C2600 H2592 0.929 . S
C2600 C2601 1.377 . S
C2600 C2602 1.384 . S
C2601 C2600 1.377 . S
C2601 C2607 1.390 . S
C2602 H2593 0.930 . S
C2602 C2600 1.384 . S
C2602 C2603 1.372 . S
C2603 C2602 1.372 . S
C2603 C2604 1.400 . S
C2603 C2608 1.490 . S
C2604 H2594 0.930 . S
C2604 C2603 1.400 . S
C2604 C2607 1.386 . S
H2605 C2621 0.930 . S
H2606 C2622 0.931 . S
C2607 H2595 0.929 . S
C2607 C2601 1.390 . S
C2607 C2604 1.386 . S
C2608 C2603 1.490 . S
C2608 C2610 1.395 . S
C2608 C2611 1.403 . S
H2609 C2615 0.930 . S
C2610 H2596 0.930 . S
C2610 C2608 1.395 . S
C2610 C2613 1.403 . S
C2611 C2608 1.403 . S
C2611 C2612 1.524 . S
C2611 C2615 1.400 . S
C2612 H2597 0.960 . S
C2612 H2598 0.960 . S
C2612 H2599 0.960 . S
C2612 C2611 1.524 . S
C2613 C2610 1.403 . S
C2613 C2614 1.392 . S
C2613 C2617 1.495 . S
C2614 C2613 1.392 . S
C2614 C2615 1.385 . S
C2614 C2616 1.478 . S
C2615 H2609 0.930 . S
C2615 C2611 1.400 . S
C2615 C2614 1.385 . S
C2616 C2614 1.478 . S
C2616 C2618 1.381 . S
C2616 C2622 1.383 . S
C2617 C2613 1.495 . S
C2617 H2623 0.959 . S
C2617 H2624 0.961 . S
C2617 H2625 0.960 . S
C2618 C2616 1.381 . S
C2618 C2619 1.394 . S
C2618 H2626 0.930 . S
C2619 C2618 1.394 . S
C2619 C2620 1.383 . S
C2619 H2627 0.929 . S
C2620 C2619 1.383 . S
C2620 C2621 1.377 . S
C2621 H2605 0.930 . S
C2621 C2620 1.377 . S
C2621 C2622 1.379 . S
C2622 H2606 0.931 . S
C2622 C2616 1.383 . S
C2622 C2621 1.379 . S
H2623 C2617 0.959 . S
H2624 C2617 0.961 . S
H2625 C2617 0.960 . S
H2626 C2618 0.930 . S
H2627 C2619 0.929 . S
H2628 C2636 0.929 . S
H2629 C2638 0.930 . S
H2630 C2640 0.920 1_655 S
H2631 C2643 0.929 . S
H2632 C2646 0.930 . S
H2633 C2648 0.960 . S
H2634 C2648 0.960 . S
H2635 C2648 0.960 . S
C2636 H2628 0.929 . S
C2636 C2637 1.377 . S
C2636 C2638 1.384 . S
C2637 C2636 1.377 . S
C2637 C2643 1.390 . S
C2638 H2629 0.930 . S
C2638 C2636 1.384 . S
C2638 C2639 1.372 1_455 S
C2639 C2638 1.372 1_655 S
C2639 C2640 1.398 1_655 S
C2639 C2644 1.490 . S
C2640 H2630 0.920 1_455 S
C2640 C2639 1.398 1_455 S
C2640 C2643 1.397 . S
H2641 C2657 0.930 . S
H2642 C2658 0.931 . S
C2643 H2631 0.929 . S
C2643 C2637 1.390 . S
C2643 C2640 1.397 . S
C2644 C2639 1.490 . S
C2644 C2646 1.395 . S
C2644 C2647 1.403 . S
H2645 C2651 0.930 . S
C2646 H2632 0.930 . S
C2646 C2644 1.395 . S
C2646 C2649 1.403 . S
C2647 C2644 1.403 . S
C2647 C2648 1.524 . S
C2647 C2651 1.400 . S
C2648 H2633 0.960 . S
C2648 H2634 0.960 . S
C2648 H2635 0.960 . S
C2648 C2647 1.524 . S
C2649 C2646 1.403 . S
C2649 C2650 1.392 . S
C2649 C2653 1.495 . S
C2650 C2649 1.392 . S
C2650 C2651 1.385 . S
C2650 C2652 1.478 . S
C2651 H2645 0.930 . S
C2651 C2647 1.400 . S
C2651 C2650 1.385 . S
C2652 C2650 1.478 . S
C2652 C2654 1.381 . S
C2652 C2658 1.383 . S
C2653 C2649 1.495 . S
C2653 H2659 0.959 . S
C2653 H2660 0.961 . S
C2653 H2661 0.960 . S
C2654 C2652 1.381 . S
C2654 C2655 1.394 . S
C2654 H2662 0.930 . S
C2655 C2654 1.394 . S
C2655 C2656 1.383 . S
C2655 H2663 0.929 . S
C2656 C2655 1.383 . S
C2656 C2657 1.377 . S
C2657 H2641 0.930 . S
C2657 C2656 1.377 . S
C2657 C2658 1.379 . S
C2658 H2642 0.931 . S
C2658 C2652 1.383 . S
C2658 C2657 1.379 . S
H2659 C2653 0.959 . S
H2660 C2653 0.961 . S
H2661 C2653 0.960 . S
H2662 C2654 0.930 . S
H2663 C2655 0.929 . S
H2664 C2672 0.929 . S
H2665 C2674 0.930 . S
H2666 C2676 0.930 . S
H2667 C2679 0.929 . S
H2668 C2682 0.930 . S
H2669 C2684 0.960 . S
H2670 C2684 0.960 . S
H2671 C2684 0.960 . S
C2672 H2664 0.929 . S
C2672 C2673 1.377 . S
C2672 C2674 1.384 . S
C2673 C2672 1.377 . S
C2673 C2679 1.390 . S
C2674 H2665 0.930 . S
C2674 C2672 1.384 . S
C2674 C2675 1.372 . S
C2675 C2674 1.372 . S
C2675 C2676 1.400 . S
C2675 C2680 1.490 . S
C2676 H2666 0.930 . S
C2676 C2675 1.400 . S
C2676 C2679 1.386 . S
H2677 C2693 0.930 . S
H2678 C2694 0.931 . S
C2679 H2667 0.929 . S
C2679 C2673 1.390 . S
C2679 C2676 1.386 . S
C2680 C2675 1.490 . S
C2680 C2682 1.395 . S
C2680 C2683 1.403 . S
H2681 C2687 0.930 . S
C2682 H2668 0.930 . S
C2682 C2680 1.395 . S
C2682 C2685 1.403 . S
C2683 C2680 1.403 . S
C2683 C2684 1.524 . S
C2683 C2687 1.400 . S
C2684 H2669 0.960 . S
C2684 H2670 0.960 . S
C2684 H2671 0.960 . S
C2684 C2683 1.524 . S
C2685 C2682 1.403 . S
C2685 C2686 1.392 . S
C2685 C2689 1.495 . S
C2686 C2685 1.392 . S
C2686 C2687 1.385 . S
C2686 C2688 1.478 . S
C2687 H2681 0.930 . S
C2687 C2683 1.400 . S
C2687 C2686 1.385 . S
C2688 C2686 1.478 . S
C2688 C2690 1.381 . S
C2688 C2694 1.383 . S
C2689 C2685 1.495 . S
C2689 H2695 0.959 . S
C2689 H2696 0.961 . S
C2689 H2697 0.960 . S
C2690 C2688 1.381 . S
C2690 C2691 1.394 . S
C2690 H2698 0.930 . S
C2691 C2690 1.394 . S
C2691 C2692 1.383 . S
C2691 H2699 0.929 . S
C2692 C2691 1.383 . S
C2692 C2693 1.377 . S
C2693 H2677 0.930 . S
C2693 C2692 1.377 . S
C2693 C2694 1.379 . S
C2694 H2678 0.931 . S
C2694 C2688 1.383 . S
C2694 C2693 1.379 . S
H2695 C2689 0.959 . S
H2696 C2689 0.961 . S
H2697 C2689 0.960 . S
H2698 C2690 0.930 . S
H2699 C2691 0.929 . S
H2700 C2708 0.929 . S
H2701 C2710 0.930 . S
H2702 C2712 0.930 . S
H2703 C2715 0.929 . S
H2704 C2718 0.930 . S
H2705 C2720 0.960 . S
H2706 C2720 0.960 . S
H2707 C2720 0.960 . S
C2708 H2700 0.929 . S
C2708 C2709 1.377 . S
C2708 C2710 1.384 . S
C2709 C2708 1.377 . S
C2709 C2715 1.390 . S
C2710 H2701 0.930 . S
C2710 C2708 1.384 . S
C2710 C2711 1.372 . S
C2711 C2710 1.372 . S
C2711 C2712 1.400 . S
C2711 C2716 1.490 . S
C2712 H2702 0.930 . S
C2712 C2711 1.400 . S
C2712 C2715 1.386 . S
H2713 C2729 0.930 . S
H2714 C2730 0.931 . S
C2715 H2703 0.929 . S
C2715 C2709 1.390 . S
C2715 C2712 1.386 . S
C2716 C2711 1.490 . S
C2716 C2718 1.395 . S
C2716 C2719 1.403 . S
H2717 C2723 0.930 . S
C2718 H2704 0.930 . S
C2718 C2716 1.395 . S
C2718 C2721 1.403 . S
C2719 C2716 1.403 . S
C2719 C2720 1.524 . S
C2719 C2723 1.400 . S
C2720 H2705 0.960 . S
C2720 H2706 0.960 . S
C2720 H2707 0.960 . S
C2720 C2719 1.524 . S
C2721 C2718 1.403 . S
C2721 C2722 1.392 . S
C2721 C2725 1.495 . S
C2722 C2721 1.392 . S
C2722 C2723 1.385 . S
C2722 C2724 1.478 . S
C2723 H2717 0.930 . S
C2723 C2719 1.400 . S
C2723 C2722 1.385 . S
C2724 C2722 1.478 . S
C2724 C2726 1.381 . S
C2724 C2730 1.383 . S
C2725 C2721 1.495 . S
C2725 H2731 0.959 . S
C2725 H2732 0.961 . S
C2725 H2733 0.960 . S
C2726 C2724 1.381 . S
C2726 C2727 1.394 . S
C2726 H2734 0.930 . S
C2727 C2726 1.394 . S
C2727 C2728 1.383 . S
C2727 H2735 0.929 . S
C2728 C2727 1.383 . S
C2728 C2729 1.377 . S
C2729 H2713 0.930 . S
C2729 C2728 1.377 . S
C2729 C2730 1.379 . S
C2730 H2714 0.931 . S
C2730 C2724 1.383 . S
C2730 C2729 1.379 . S
H2731 C2725 0.959 . S
H2732 C2725 0.961 . S
H2733 C2725 0.960 . S
H2734 C2726 0.930 . S
H2735 C2727 0.929 . S
H2736 C2744 0.929 . S
H2737 C2746 0.930 . S
H2738 C2748 0.930 . S
H2739 C2751 0.929 . S
H2740 C2754 0.930 . S
H2741 C2756 0.960 . S
H2742 C2756 0.960 . S
H2743 C2756 0.960 . S
C2744 H2736 0.929 . S
C2744 C2745 1.377 . S
C2744 C2746 1.384 . S
C2745 C2744 1.377 . S
C2745 C2751 1.390 . S
C2746 H2737 0.930 . S
C2746 C2744 1.384 . S
C2746 C2747 1.372 . S
C2747 C2746 1.372 . S
C2747 C2748 1.400 . S
C2747 C2752 1.490 . S
C2748 H2738 0.930 . S
C2748 C2747 1.400 . S
C2748 C2751 1.386 . S
H2749 C2765 0.930 . S
H2750 C2766 0.931 . S
C2751 H2739 0.929 . S
C2751 C2745 1.390 . S
C2751 C2748 1.386 . S
C2752 C2747 1.490 . S
C2752 C2754 1.395 . S
C2752 C2755 1.403 . S
H2753 C2759 0.930 . S
C2754 H2740 0.930 . S
C2754 C2752 1.395 . S
C2754 C2757 1.403 . S
C2755 C2752 1.403 . S
C2755 C2756 1.524 . S
C2755 C2759 1.400 . S
C2756 H2741 0.960 . S
C2756 H2742 0.960 . S
C2756 H2743 0.960 . S
C2756 C2755 1.524 . S
C2757 C2754 1.403 . S
C2757 C2758 1.392 . S
C2757 C2761 1.495 . S
C2758 C2757 1.392 . S
C2758 C2759 1.385 . S
C2758 C2760 1.478 . S
C2759 H2753 0.930 . S
C2759 C2755 1.400 . S
C2759 C2758 1.385 . S
C2760 C2758 1.478 . S
C2760 C2762 1.381 . S
C2760 C2766 1.383 . S
C2761 C2757 1.495 . S
C2761 H2767 0.959 . S
C2761 H2768 0.961 . S
C2761 H2769 0.960 . S
C2762 C2760 1.381 . S
C2762 C2763 1.394 . S
C2762 H2770 0.930 . S
C2763 C2762 1.394 . S
C2763 C2764 1.383 . S
C2763 H2771 0.929 . S
C2764 C2763 1.383 . S
C2764 C2765 1.377 . S
C2765 H2749 0.930 . S
C2765 C2764 1.377 . S
C2765 C2766 1.379 . S
C2766 H2750 0.931 . S
C2766 C2760 1.383 . S
C2766 C2765 1.379 . S
H2767 C2761 0.959 . S
H2768 C2761 0.961 . S
H2769 C2761 0.960 . S
H2770 C2762 0.930 . S
H2771 C2763 0.929 . S
H2772 C2780 0.929 . S
H2773 C2782 0.930 . S
H2774 C2784 0.930 . S
H2775 C2787 0.929 . S
H2776 C2790 0.930 . S
H2777 C2792 0.960 . S
H2778 C2792 0.960 . S
H2779 C2792 0.960 . S
C2780 H2772 0.929 . S
C2780 C2781 1.377 . S
C2780 C2782 1.384 . S
C2781 C2780 1.377 . S
C2781 C2787 1.390 . S
C2782 H2773 0.930 . S
C2782 C2780 1.384 . S
C2782 C2783 1.372 . S
C2783 C2782 1.372 . S
C2783 C2784 1.400 . S
C2783 C2788 1.490 . S
C2784 H2774 0.930 . S
C2784 C2783 1.400 . S
C2784 C2787 1.386 . S
H2785 C2801 0.930 . S
H2786 C2802 0.931 . S
C2787 H2775 0.929 . S
C2787 C2781 1.390 . S
C2787 C2784 1.386 . S
C2788 C2783 1.490 . S
C2788 C2790 1.395 . S
C2788 C2791 1.403 . S
H2789 C2795 0.930 . S
C2790 H2776 0.930 . S
C2790 C2788 1.395 . S
C2790 C2793 1.403 . S
C2791 C2788 1.403 . S
C2791 C2792 1.524 . S
C2791 C2795 1.400 . S
C2792 H2777 0.960 . S
C2792 H2778 0.960 . S
C2792 H2779 0.960 . S
C2792 C2791 1.524 . S
C2793 C2790 1.403 . S
C2793 C2794 1.392 . S
C2793 C2797 1.495 . S
C2794 C2793 1.392 . S
C2794 C2795 1.385 . S
C2794 C2796 1.478 . S
C2795 H2789 0.930 . S
C2795 C2791 1.400 . S
C2795 C2794 1.385 . S
C2796 C2794 1.478 . S
C2796 C2798 1.381 . S
C2796 C2802 1.383 . S
C2797 C2793 1.495 . S
C2797 H2803 0.959 . S
C2797 H2804 0.961 . S
C2797 H2805 0.960 . S
C2798 C2796 1.381 . S
C2798 C2799 1.394 . S
C2798 H2806 0.930 . S
C2799 C2798 1.394 . S
C2799 C2800 1.383 . S
C2799 H2807 0.929 . S
C2800 C2799 1.383 . S
C2800 C2801 1.377 . S
C2801 H2785 0.930 . S
C2801 C2800 1.377 . S
C2801 C2802 1.379 . S
C2802 H2786 0.931 . S
C2802 C2796 1.383 . S
C2802 C2801 1.379 . S
H2803 C2797 0.959 . S
H2804 C2797 0.961 . S
H2805 C2797 0.960 . S
H2806 C2798 0.930 . S
H2807 C2799 0.929 . S
H2808 C2816 0.929 . S
H2809 C2818 0.930 . S
H2810 C2820 0.930 . S
H2811 C2823 0.929 . S
H2812 C2826 0.930 . S
H2813 C2828 0.960 . S
H2814 C2828 0.960 . S
H2815 C2828 0.960 . S
C2816 H2808 0.929 . S
C2816 C2817 1.377 . S
C2816 C2818 1.384 . S
C2817 C2816 1.377 . S
C2817 C2823 1.390 . S
C2818 H2809 0.930 . S
C2818 C2816 1.384 . S
C2818 C2819 1.372 . S
C2819 C2818 1.372 . S
C2819 C2820 1.400 . S
C2819 C2824 1.490 . S
C2820 H2810 0.930 . S
C2820 C2819 1.400 . S
C2820 C2823 1.386 . S
H2821 C2837 0.930 . S
H2822 C2838 0.931 . S
C2823 H2811 0.929 . S
C2823 C2817 1.390 . S
C2823 C2820 1.386 . S
C2824 C2819 1.490 . S
C2824 C2826 1.395 . S
C2824 C2827 1.403 . S
H2825 C2831 0.930 . S
C2826 H2812 0.930 . S
C2826 C2824 1.395 . S
C2826 C2829 1.403 . S
C2827 C2824 1.403 . S
C2827 C2828 1.524 . S
C2827 C2831 1.400 . S
C2828 H2813 0.960 . S
C2828 H2814 0.960 . S
C2828 H2815 0.960 . S
C2828 C2827 1.524 . S
C2829 C2826 1.403 . S
C2829 C2830 1.392 . S
C2829 C2833 1.495 . S
C2830 C2829 1.392 . S
C2830 C2831 1.385 . S
C2830 C2832 1.478 . S
C2831 H2825 0.930 . S
C2831 C2827 1.400 . S
C2831 C2830 1.385 . S
C2832 C2830 1.478 . S
C2832 C2834 1.381 . S
C2832 C2838 1.383 . S
C2833 C2829 1.495 . S
C2833 H2839 0.959 . S
C2833 H2840 0.961 . S
C2833 H2841 0.960 . S
C2834 C2832 1.381 . S
C2834 C2835 1.394 . S
C2834 H2842 0.930 . S
C2835 C2834 1.394 . S
C2835 C2836 1.383 . S
C2835 H2843 0.929 . S
C2836 C2835 1.383 . S
C2836 C2837 1.377 . S
C2837 H2821 0.930 . S
C2837 C2836 1.377 . S
C2837 C2838 1.379 . S
C2838 H2822 0.931 . S
C2838 C2832 1.383 . S
C2838 C2837 1.379 . S
H2839 C2833 0.959 . S
H2840 C2833 0.961 . S
H2841 C2833 0.960 . S
H2842 C2834 0.930 . S
H2843 C2835 0.929 . S
H2844 C2852 0.929 . S
H2845 C2854 0.949 . S
H2846 C2856 0.930 . S
H2847 C2859 0.929 . S
H2848 C2862 0.930 . S
H2849 C2864 0.960 . S
H2850 C2864 0.960 . S
H2851 C2864 0.995 . S
C2852 H2844 0.929 . S
C2852 C2853 1.377 . S
C2852 C2854 1.362 1_455 S
C2853 C2852 1.377 . S
C2853 C2859 1.390 . S
C2854 H2845 0.949 . S
C2854 C2852 1.362 1_655 S
C2854 C2855 1.375 . S
C2855 C2854 1.375 . S
C2855 C2856 1.400 1_655 S
C2855 C2860 1.490 . S
C2856 H2846 0.930 . S
C2856 C2855 1.400 1_455 S
C2856 C2859 1.386 . S
H2857 C2873 0.930 . S
H2858 C2874 0.931 . S
C2859 H2847 0.929 . S
C2859 C2853 1.390 . S
C2859 C2856 1.386 . S
C2860 C2855 1.490 . S
C2860 C2862 1.395 . S
C2860 C2863 1.403 . S
H2861 C2867 0.930 . S
C2862 H2848 0.930 . S
C2862 C2860 1.395 . S
C2862 C2865 1.403 . S
C2863 C2860 1.403 . S
C2863 C2864 1.524 . S
C2863 C2867 1.400 . S
C2864 H2849 0.960 . S
C2864 H2850 0.960 . S
C2864 H2851 0.995 . S
C2864 C2863 1.524 . S
C2865 C2862 1.403 . S
C2865 C2866 1.392 . S
C2865 C2869 1.495 . S
C2866 C2865 1.392 . S
C2866 C2867 1.385 . S
C2866 C2868 1.478 . S
C2867 H2861 0.930 . S
C2867 C2863 1.400 . S
C2867 C2866 1.385 . S
C2868 C2866 1.478 . S
C2868 C2870 1.381 . S
C2868 C2874 1.383 . S
C2869 C2865 1.495 . S
C2869 H2875 0.959 . S
C2869 H2876 0.961 . S
C2869 H2877 0.960 . S
C2870 C2868 1.381 . S
C2870 C2871 1.394 . S
C2870 H2878 0.930 . S
C2871 C2870 1.394 . S
C2871 C2872 1.383 . S
C2871 H2879 0.929 . S
C2872 C2871 1.383 . S
C2872 C2873 1.377 . S
C2873 H2857 0.930 . S
C2873 C2872 1.377 . S
C2873 C2874 1.379 . S
C2874 H2858 0.931 . S
C2874 C2868 1.383 . S
C2874 C2873 1.379 . S
H2875 C2869 0.959 . S
H2876 C2869 0.961 . S
H2877 C2869 0.960 . S
H2878 C2870 0.930 . S
H2879 C2871 0.929 . S
H2880 C2888 0.929 . S
H2881 C2890 0.930 . S
H2882 C2892 0.930 . S
H2883 C2895 0.929 . S
H2884 C2898 0.930 . S
H2885 C2900 0.960 . S
H2886 C2900 0.960 . S
H2887 C2900 0.960 . S
C2888 H2880 0.929 . S
C2888 C2889 1.377 . S
C2888 C2890 1.384 . S
C2889 C2888 1.377 . S
C2889 C2895 1.390 . S
C2890 H2881 0.930 . S
C2890 C2888 1.384 . S
C2890 C2891 1.372 . S
C2891 C2890 1.372 . S
C2891 C2892 1.400 . S
C2891 C2896 1.490 . S
C2892 H2882 0.930 . S
C2892 C2891 1.400 . S
C2892 C2895 1.386 . S
H2893 C2909 0.930 . S
H2894 C2910 0.931 . S
C2895 H2883 0.929 . S
C2895 C2889 1.390 . S
C2895 C2892 1.386 . S
C2896 C2891 1.490 . S
C2896 C2898 1.395 . S
C2896 C2899 1.403 . S
H2897 C2903 0.930 . S
C2898 H2884 0.930 . S
C2898 C2896 1.395 . S
C2898 C2901 1.403 . S
C2899 C2896 1.403 . S
C2899 C2900 1.524 . S
C2899 C2903 1.400 . S
C2900 H2885 0.960 . S
C2900 H2886 0.960 . S
C2900 H2887 0.960 . S
C2900 C2899 1.524 . S
C2901 C2898 1.403 . S
C2901 C2902 1.392 . S
C2901 C2905 1.495 . S
C2902 C2901 1.392 . S
C2902 C2903 1.385 . S
C2902 C2904 1.478 . S
C2903 H2897 0.930 . S
C2903 C2899 1.400 . S
C2903 C2902 1.385 . S
C2904 C2902 1.478 . S
C2904 C2906 1.381 . S
C2904 C2910 1.383 . S
C2905 C2901 1.495 . S
C2905 H2911 0.959 . S
C2905 H2912 0.961 . S
C2905 H2913 0.960 . S
C2906 C2904 1.381 . S
C2906 C2907 1.394 . S
C2906 H2914 0.930 . S
C2907 C2906 1.394 . S
C2907 C2908 1.383 . S
C2907 H2915 0.929 . S
C2908 C2907 1.383 . S
C2908 C2909 1.377 . S
C2909 H2893 0.930 . S
C2909 C2908 1.377 . S
C2909 C2910 1.379 . S
C2910 H2894 0.931 . S
C2910 C2904 1.383 . S
C2910 C2909 1.379 . S
H2911 C2905 0.959 . S
H2912 C2905 0.961 . S
H2913 C2905 0.960 . S
H2914 C2906 0.930 . S
H2915 C2907 0.929 . S
H2916 C2924 0.929 . S
H2917 C2926 0.930 . S
H2918 C2928 0.930 . S
H2919 C2931 0.929 . S
H2920 C2934 0.930 . S
H2921 C2936 0.960 . S
H2922 C2936 0.960 . S
H2923 C2936 0.960 . S
C2924 H2916 0.929 . S
C2924 C2925 1.377 . S
C2924 C2926 1.384 . S
C2925 C2924 1.377 . S
C2925 C2931 1.390 . S
C2926 H2917 0.930 . S
C2926 C2924 1.384 . S
C2926 C2927 1.372 . S
C2927 C2926 1.372 . S
C2927 C2928 1.400 . S
C2927 C2932 1.490 . S
C2928 H2918 0.930 . S
C2928 C2927 1.400 . S
C2928 C2931 1.386 . S
H2929 C2945 0.930 . S
H2930 C2946 0.931 . S
C2931 H2919 0.929 . S
C2931 C2925 1.390 . S
C2931 C2928 1.386 . S
C2932 C2927 1.490 . S
C2932 C2934 1.395 . S
C2932 C2935 1.403 . S
H2933 C2939 0.930 . S
C2934 H2920 0.930 . S
C2934 C2932 1.395 . S
C2934 C2937 1.403 . S
C2935 C2932 1.403 . S
C2935 C2936 1.524 . S
C2935 C2939 1.400 . S
C2936 H2921 0.960 . S
C2936 H2922 0.960 . S
C2936 H2923 0.960 . S
C2936 C2935 1.524 . S
C2937 C2934 1.403 . S
C2937 C2938 1.392 . S
C2937 C2941 1.495 . S
C2938 C2937 1.392 . S
C2938 C2939 1.385 . S
C2938 C2940 1.478 . S
C2939 H2933 0.930 . S
C2939 C2935 1.400 . S
C2939 C2938 1.385 . S
C2940 C2938 1.478 . S
C2940 C2942 1.381 . S
C2940 C2946 1.383 . S
C2941 C2937 1.495 . S
C2941 H2947 0.959 . S
C2941 H2948 0.961 . S
C2941 H2949 0.960 . S
C2942 C2940 1.381 . S
C2942 C2943 1.394 . S
C2942 H2950 0.930 . S
C2943 C2942 1.394 . S
C2943 C2944 1.383 . S
C2943 H2951 0.929 . S
C2944 C2943 1.383 . S
C2944 C2945 1.377 . S
C2945 H2929 0.930 . S
C2945 C2944 1.377 . S
C2945 C2946 1.379 . S
C2946 H2930 0.931 . S
C2946 C2940 1.383 . S
C2946 C2945 1.379 . S
H2947 C2941 0.959 . S
H2948 C2941 0.961 . S
H2949 C2941 0.960 . S
H2950 C2942 0.930 . S
H2951 C2943 0.929 . S
H2952 C2960 0.929 . S
H2953 C2962 0.930 . S
H2954 C2964 0.930 . S
H2955 C2967 0.929 . S
H2956 C2970 0.930 . S
H2957 C2972 0.960 . S
H2958 C2972 0.960 . S
H2959 C2972 0.960 . S
C2960 H2952 0.929 . S
C2960 C2961 1.377 . S
C2960 C2962 1.384 . S
C2961 C2960 1.377 . S
C2961 C2967 1.390 . S
C2962 H2953 0.930 . S
C2962 C2960 1.384 . S
C2962 C2963 1.372 . S
C2963 C2962 1.372 . S
C2963 C2964 1.400 . S
C2963 C2968 1.490 . S
C2964 H2954 0.930 . S
C2964 C2963 1.400 . S
C2964 C2967 1.386 . S
H2965 C2981 0.930 . S
H2966 C2982 0.931 . S
C2967 H2955 0.929 . S
C2967 C2961 1.390 . S
C2967 C2964 1.386 . S
C2968 C2963 1.490 . S
C2968 C2970 1.395 . S
C2968 C2971 1.403 . S
H2969 C2975 0.930 . S
C2970 H2956 0.930 . S
C2970 C2968 1.395 . S
C2970 C2973 1.403 . S
C2971 C2968 1.403 . S
C2971 C2972 1.524 . S
C2971 C2975 1.400 . S
C2972 H2957 0.960 . S
C2972 H2958 0.960 . S
C2972 H2959 0.960 . S
C2972 C2971 1.524 . S
C2973 C2970 1.403 . S
C2973 C2974 1.392 . S
C2973 C2977 1.495 . S
C2974 C2973 1.392 . S
C2974 C2975 1.385 . S
C2974 C2976 1.478 . S
C2975 H2969 0.930 . S
C2975 C2971 1.400 . S
C2975 C2974 1.385 . S
C2976 C2974 1.478 . S
C2976 C2978 1.381 . S
C2976 C2982 1.383 . S
C2977 C2973 1.495 . S
C2977 H2983 0.959 . S
C2977 H2984 0.961 . S
C2977 H2985 0.960 . S
C2978 C2976 1.381 . S
C2978 C2979 1.394 . S
C2978 H2986 0.930 . S
C2979 C2978 1.394 . S
C2979 C2980 1.383 . S
C2979 H2987 0.929 . S
C2980 C2979 1.383 . S
C2980 C2981 1.377 . S
C2981 H2965 0.930 . S
C2981 C2980 1.377 . S
C2981 C2982 1.379 . S
C2982 H2966 0.931 . S
C2982 C2976 1.383 . S
C2982 C2981 1.379 . S
H2983 C2977 0.959 . S
H2984 C2977 0.961 . S
H2985 C2977 0.960 . S
H2986 C2978 0.930 . S
H2987 C2979 0.929 . S
H2988 C2996 0.929 . S
H2989 C2998 0.930 . S
H2990 C3000 0.930 . S
H2991 C3003 0.929 . S
H2992 C3006 0.930 . S
H2993 C3008 0.960 . S
H2994 C3008 0.960 . S
H2995 C3008 0.960 . S
C2996 H2988 0.929 . S
C2996 C2997 1.377 . S
C2996 C2998 1.384 . S
C2997 C2996 1.377 . S
C2997 C3003 1.390 . S
C2998 H2989 0.930 . S
C2998 C2996 1.384 . S
C2998 C2999 1.372 . S
C2999 C2998 1.372 . S
C2999 C3000 1.400 . S
C2999 C3004 1.490 . S
C3000 H2990 0.930 . S
C3000 C2999 1.400 . S
C3000 C3003 1.386 . S
H3001 C3017 0.930 . S
H3002 C3018 0.931 1_655 S
C3003 H2991 0.929 . S
C3003 C2997 1.390 . S
C3003 C3000 1.386 . S
C3004 C2999 1.490 . S
C3004 C3006 1.395 . S
C3004 C3007 1.403 . S
H3005 C3011 0.930 . S
C3006 H2992 0.930 . S
C3006 C3004 1.395 . S
C3006 C3009 1.403 . S
C3007 C3004 1.403 . S
C3007 C3008 1.524 . S
C3007 C3011 1.400 . S
C3008 H2993 0.960 . S
C3008 H2994 0.960 . S
C3008 H2995 0.960 . S
C3008 C3007 1.524 . S
C3009 C3006 1.403 . S
C3009 C3010 1.392 . S
C3009 C3013 1.495 . S
C3010 C3009 1.392 . S
C3010 C3011 1.385 . S
C3010 C3012 1.478 . S
C3011 H3005 0.930 . S
C3011 C3007 1.400 . S
C3011 C3010 1.385 . S
C3012 C3010 1.478 . S
C3012 C3014 1.381 1_655 S
C3012 C3018 1.383 1_655 S
C3013 C3009 1.495 . S
C3013 H3019 0.959 . S
C3013 H3020 0.961 . S
C3013 H3021 0.960 1_655 S
C3014 C3012 1.381 1_455 S
C3014 C3015 1.394 . S
C3014 H3022 0.930 . S
C3015 C3014 1.394 . S
C3015 C3016 1.383 . S
C3015 H3023 0.929 . S
C3016 C3015 1.383 . S
C3016 C3017 1.377 . S
C3017 H3001 0.930 . S
C3017 C3016 1.377 . S
C3017 C3018 1.379 . S
C3018 H3002 0.931 1_455 S
C3018 C3012 1.383 1_455 S
C3018 C3017 1.379 . S
H3019 C3013 0.959 . S
H3020 C3013 0.961 . S
H3021 C3013 0.960 1_455 S
H3022 C3014 0.930 . S
H3023 C3015 0.929 . S
H3024 C3032 0.929 . S
H3025 C3034 0.930 . S
H3026 C3036 0.930 . S
H3027 C3039 0.929 . S
H3028 C3042 0.930 . S
H3029 C3044 0.960 . S
H3030 C3044 0.960 . S
H3031 C3044 0.960 . S
C3032 H3024 0.929 . S
C3032 C3033 1.377 . S
C3032 C3034 1.384 . S
C3033 C3032 1.377 . S
C3033 C3039 1.390 . S
C3034 H3025 0.930 . S
C3034 C3032 1.384 . S
C3034 C3035 1.372 . S
C3035 C3034 1.372 . S
C3035 C3036 1.400 . S
C3035 C3040 1.490 . S
C3036 H3026 0.930 . S
C3036 C3035 1.400 . S
C3036 C3039 1.386 . S
H3037 C3053 0.930 . S
H3038 C3054 0.931 . S
C3039 H3027 0.929 . S
C3039 C3033 1.390 . S
C3039 C3036 1.386 . S
C3040 C3035 1.490 . S
C3040 C3042 1.395 . S
C3040 C3043 1.403 . S
H3041 C3047 0.930 . S
C3042 H3028 0.930 . S
C3042 C3040 1.395 . S
C3042 C3045 1.403 . S
C3043 C3040 1.403 . S
C3043 C3044 1.524 . S
C3043 C3047 1.400 . S
C3044 H3029 0.960 . S
C3044 H3030 0.960 . S
C3044 H3031 0.960 . S
C3044 C3043 1.524 . S
C3045 C3042 1.403 . S
C3045 C3046 1.392 . S
C3045 C3049 1.495 . S
C3046 C3045 1.392 . S
C3046 C3047 1.385 . S
C3046 C3048 1.478 . S
C3047 H3041 0.930 . S
C3047 C3043 1.400 . S
C3047 C3046 1.385 . S
C3048 C3046 1.478 . S
C3048 C3050 1.381 . S
C3048 C3054 1.383 . S
C3049 C3045 1.495 . S
C3049 H3055 0.959 . S
C3049 H3056 0.961 . S
C3049 H3057 0.960 . S
C3050 C3048 1.381 . S
C3050 C3051 1.394 . S
C3050 H3058 0.930 . S
C3051 C3050 1.394 . S
C3051 C3052 1.383 . S
C3051 H3059 0.929 . S
C3052 C3051 1.383 . S
C3052 C3053 1.377 . S
C3053 H3037 0.930 . S
C3053 C3052 1.377 . S
C3053 C3054 1.379 . S
C3054 H3038 0.931 . S
C3054 C3048 1.383 . S
C3054 C3053 1.379 . S
H3055 C3049 0.959 . S
H3056 C3049 0.961 . S
H3057 C3049 0.960 . S
H3058 C3050 0.930 . S
H3059 C3051 0.929 . S
H3060 C3068 0.929 . S
H3061 C3070 0.930 1_655 S
H3062 C3072 0.930 . S
H3063 C3075 0.929 . S
H3064 C3078 0.930 . S
H3065 C3080 0.960 . S
H3066 C3080 0.960 . S
H3067 C3080 0.960 . S
C3068 H3060 0.929 . S
C3068 C3069 1.377 . S
C3068 C3070 1.384 . S
C3069 C3068 1.377 . S
C3069 C3075 1.390 . S
C3070 H3061 0.930 1_455 S
C3070 C3068 1.384 . S
C3070 C3071 1.372 1_455 S
C3071 C3070 1.372 1_655 S
C3071 C3072 1.400 1_655 S
C3071 C3076 1.490 . S
C3072 H3062 0.930 . S
C3072 C3071 1.400 1_455 S
C3072 C3075 1.386 . S
H3073 C3089 0.930 . S
H3074 C3090 0.931 . S
C3075 H3063 0.929 . S
C3075 C3069 1.390 . S
C3075 C3072 1.386 . S
C3076 C3071 1.490 . S
C3076 C3078 1.395 . S
C3076 C3079 1.403 . S
H3077 C3083 0.930 . S
C3078 H3064 0.930 . S
C3078 C3076 1.395 . S
C3078 C3081 1.403 . S
C3079 C3076 1.403 . S
C3079 C3080 1.524 . S
C3079 C3083 1.400 . S
C3080 H3065 0.960 . S
C3080 H3066 0.960 . S
C3080 H3067 0.960 . S
C3080 C3079 1.524 . S
C3081 C3078 1.403 . S
C3081 C3082 1.392 . S
C3081 C3085 1.495 . S
C3082 C3081 1.392 . S
C3082 C3083 1.385 . S
C3082 C3084 1.478 . S
C3083 H3077 0.930 . S
C3083 C3079 1.400 . S
C3083 C3082 1.385 . S
C3084 C3082 1.478 . S
C3084 C3086 1.381 . S
C3084 C3090 1.383 . S
C3085 C3081 1.495 . S
C3085 H3091 0.959 . S
C3085 H3092 0.961 . S
C3085 H3093 0.960 . S
C3086 C3084 1.381 . S
C3086 C3087 1.394 . S
C3086 H3094 0.930 . S
C3087 C3086 1.394 . S
C3087 C3088 1.383 . S
C3087 H3095 0.929 . S
C3088 C3087 1.383 . S
C3088 C3089 1.377 . S
C3089 H3073 0.930 . S
C3089 C3088 1.377 . S
C3089 C3090 1.379 . S
C3090 H3074 0.931 . S
C3090 C3084 1.383 . S
C3090 C3089 1.379 . S
H3091 C3085 0.959 . S
H3092 C3085 0.961 . S
H3093 C3085 0.960 . S
H3094 C3086 0.930 . S
H3095 C3087 0.929 . S
H3096 C3104 0.929 . S
H3097 C3106 0.930 . S
H3098 C3108 0.930 . S
H3099 C3111 0.929 . S
H3100 C3114 0.930 . S
H3101 C3116 0.960 . S
H3102 C3116 0.960 . S
H3103 C3116 0.960 . S
C3104 H3096 0.929 . S
C3104 C3105 1.377 . S
C3104 C3106 1.384 . S
C3105 C3104 1.377 . S
C3105 C3111 1.390 . S
C3106 H3097 0.930 . S
C3106 C3104 1.384 . S
C3106 C3107 1.372 . S
C3107 C3106 1.372 . S
C3107 C3108 1.400 . S
C3107 C3112 1.490 . S
C3108 H3098 0.930 . S
C3108 C3107 1.400 . S
C3108 C3111 1.386 . S
H3109 C3125 0.930 . S
H3110 C3126 0.931 . S
C3111 H3099 0.929 . S
C3111 C3105 1.390 . S
C3111 C3108 1.386 . S
C3112 C3107 1.490 . S
C3112 C3114 1.395 . S
C3112 C3115 1.403 . S
H3113 C3119 0.930 . S
C3114 H3100 0.930 . S
C3114 C3112 1.395 . S
C3114 C3117 1.403 . S
C3115 C3112 1.403 . S
C3115 C3116 1.524 . S
C3115 C3119 1.400 . S
C3116 H3101 0.960 . S
C3116 H3102 0.960 . S
C3116 H3103 0.960 . S
C3116 C3115 1.524 . S
C3117 C3114 1.403 . S
C3117 C3118 1.392 . S
C3117 C3121 1.495 . S
C3118 C3117 1.392 . S
C3118 C3119 1.385 . S
C3118 C3120 1.478 . S
C3119 H3113 0.930 . S
C3119 C3115 1.400 . S
C3119 C3118 1.385 . S
C3120 C3118 1.478 . S
C3120 C3122 1.381 . S
C3120 C3126 1.383 . S
C3121 C3117 1.495 . S
C3121 H3127 0.959 . S
C3121 H3128 0.961 . S
C3121 H3129 0.960 . S
C3122 C3120 1.381 . S
C3122 C3123 1.394 . S
C3122 H3130 0.930 . S
C3123 C3122 1.394 . S
C3123 C3124 1.383 . S
C3123 H3131 0.929 . S
C3124 C3123 1.383 . S
C3124 C3125 1.377 . S
C3125 H3109 0.930 . S
C3125 C3124 1.377 . S
C3125 C3126 1.379 . S
C3126 H3110 0.931 . S
C3126 C3120 1.383 . S
C3126 C3125 1.379 . S
H3127 C3121 0.959 . S
H3128 C3121 0.961 . S
H3129 C3121 0.960 . S
H3130 C3122 0.930 . S
H3131 C3123 0.929 . S
H3132 C3140 0.929 . S
H3133 C3142 0.930 . S
H3134 C3144 0.930 . S
H3135 C3147 0.929 . S
H3136 C3150 0.930 . S
H3137 C3152 0.960 . S
H3138 C3152 0.960 . S
H3139 C3152 0.960 . S
C3140 H3132 0.929 . S
C3140 C3141 1.377 . S
C3140 C3142 1.384 . S
C3141 C3140 1.377 . S
C3141 C3147 1.390 . S
C3142 H3133 0.930 . S
C3142 C3140 1.384 . S
C3142 C3143 1.372 . S
C3143 C3142 1.372 . S
C3143 C3144 1.400 . S
C3143 C3148 1.490 . S
C3144 H3134 0.930 . S
C3144 C3143 1.400 . S
C3144 C3147 1.386 . S
H3145 C3161 0.930 . S
H3146 C3162 0.931 . S
C3147 H3135 0.929 . S
C3147 C3141 1.390 . S
C3147 C3144 1.386 . S
C3148 C3143 1.490 . S
C3148 C3150 1.395 . S
C3148 C3151 1.403 . S
H3149 C3155 0.930 . S
C3150 H3136 0.930 . S
C3150 C3148 1.395 . S
C3150 C3153 1.403 . S
C3151 C3148 1.403 . S
C3151 C3152 1.524 . S
C3151 C3155 1.400 . S
C3152 H3137 0.960 . S
C3152 H3138 0.960 . S
C3152 H3139 0.960 . S
C3152 C3151 1.524 . S
C3153 C3150 1.403 . S
C3153 C3154 1.392 . S
C3153 C3157 1.495 . S
C3154 C3153 1.392 . S
C3154 C3155 1.385 . S
C3154 C3156 1.478 . S
C3155 H3149 0.930 . S
C3155 C3151 1.400 . S
C3155 C3154 1.385 . S
C3156 C3154 1.478 . S
C3156 C3158 1.381 . S
C3156 C3162 1.383 . S
C3157 C3153 1.495 . S
C3157 H3163 0.959 . S
C3157 H3164 0.961 . S
C3157 H3165 0.960 . S
C3158 C3156 1.381 . S
C3158 C3159 1.394 . S
C3158 H3166 0.930 . S
C3159 C3158 1.394 . S
C3159 C3160 1.383 . S
C3159 H3167 0.929 . S
C3160 C3159 1.383 . S
C3160 C3161 1.377 . S
C3161 H3145 0.930 . S
C3161 C3160 1.377 . S
C3161 C3162 1.379 . S
C3162 H3146 0.931 . S
C3162 C3156 1.383 . S
C3162 C3161 1.379 . S
H3163 C3157 0.959 . S
H3164 C3157 0.961 . S
H3165 C3157 0.960 . S
H3166 C3158 0.930 . S
H3167 C3159 0.929 . S
H3168 C3176 0.929 . S
H3169 C3178 0.930 . S
H3170 C3180 0.930 . S
H3171 C3183 0.929 . S
H3172 C3186 0.930 . S
H3173 C3188 0.960 . S
H3174 C3188 0.960 . S
H3175 C3188 0.960 . S
C3176 H3168 0.929 . S
C3176 C3177 1.377 . S
C3176 C3178 1.384 . S
C3177 C3176 1.377 . S
C3177 C3183 1.390 . S
C3178 H3169 0.930 . S
C3178 C3176 1.384 . S
C3178 C3179 1.372 . S
C3179 C3178 1.372 . S
C3179 C3180 1.400 . S
C3179 C3184 1.490 . S
C3180 H3170 0.930 . S
C3180 C3179 1.400 . S
C3180 C3183 1.386 . S
H3181 C3197 0.930 . S
H3182 C3198 0.931 . S
C3183 H3171 0.929 . S
C3183 C3177 1.390 . S
C3183 C3180 1.386 . S
C3184 C3179 1.490 . S
C3184 C3186 1.395 . S
C3184 C3187 1.403 . S
H3185 C3191 0.930 . S
C3186 H3172 0.930 . S
C3186 C3184 1.395 . S
C3186 C3189 1.403 . S
C3187 C3184 1.403 . S
C3187 C3188 1.524 . S
C3187 C3191 1.400 . S
C3188 H3173 0.960 . S
C3188 H3174 0.960 . S
C3188 H3175 0.960 . S
C3188 C3187 1.524 . S
C3189 C3186 1.403 . S
C3189 C3190 1.392 . S
C3189 C3193 1.495 . S
C3190 C3189 1.392 . S
C3190 C3191 1.385 . S
C3190 C3192 1.478 . S
C3191 H3185 0.930 . S
C3191 C3187 1.400 . S
C3191 C3190 1.385 . S
C3192 C3190 1.478 . S
C3192 C3194 1.381 . S
C3192 C3198 1.383 . S
C3193 C3189 1.495 . S
C3193 H3199 0.959 . S
C3193 H3200 0.961 . S
C3193 H3201 0.960 . S
C3194 C3192 1.381 . S
C3194 C3195 1.394 . S
C3194 H3202 0.930 . S
C3195 C3194 1.394 . S
C3195 C3196 1.383 . S
C3195 H3203 0.929 . S
C3196 C3195 1.383 . S
C3196 C3197 1.377 . S
C3197 H3181 0.930 . S
C3197 C3196 1.377 . S
C3197 C3198 1.379 . S
C3198 H3182 0.931 . S
C3198 C3192 1.383 . S
C3198 C3197 1.379 . S
H3199 C3193 0.959 . S
H3200 C3193 0.961 . S
H3201 C3193 0.960 . S
H3202 C3194 0.930 . S
H3203 C3195 0.929 . S
H3204 C3212 0.929 . S
H3205 C3214 0.930 . S
H3206 C3216 0.930 . S
H3207 C3219 0.929 . S
H3208 C3222 0.930 . S
H3209 C3224 0.960 . S
H3210 C3224 0.960 . S
H3211 C3224 0.960 . S
C3212 H3204 0.929 . S
C3212 C3213 1.377 . S
C3212 C3214 1.384 . S
C3213 C3212 1.377 . S
C3213 C3219 1.390 . S
C3214 H3205 0.930 . S
C3214 C3212 1.384 . S
C3214 C3215 1.372 . S
C3215 C3214 1.372 . S
C3215 C3216 1.400 . S
C3215 C3220 1.490 . S
C3216 H3206 0.930 . S
C3216 C3215 1.400 . S
C3216 C3219 1.386 . S
H3217 C3233 0.930 . S
H3218 C3234 0.931 . S
C3219 H3207 0.929 . S
C3219 C3213 1.390 . S
C3219 C3216 1.386 . S
C3220 C3215 1.490 . S
C3220 C3222 1.395 . S
C3220 C3223 1.403 . S
H3221 C3227 0.930 . S
C3222 H3208 0.930 . S
C3222 C3220 1.395 . S
C3222 C3225 1.403 . S
C3223 C3220 1.403 . S
C3223 C3224 1.524 . S
C3223 C3227 1.400 . S
C3224 H3209 0.960 . S
C3224 H3210 0.960 . S
C3224 H3211 0.960 . S
C3224 C3223 1.524 . S
C3225 C3222 1.403 . S
C3225 C3226 1.392 . S
C3225 C3229 1.495 . S
C3226 C3225 1.392 . S
C3226 C3227 1.385 . S
C3226 C3228 1.478 . S
C3227 H3221 0.930 . S
C3227 C3223 1.400 . S
C3227 C3226 1.385 . S
C3228 C3226 1.478 . S
C3228 C3230 1.381 . S
C3228 C3234 1.383 . S
C3229 C3225 1.495 . S
C3229 H3235 0.959 . S
C3229 H3236 0.961 . S
C3229 H3237 0.960 . S
C3230 C3228 1.381 . S
C3230 C3231 1.394 . S
C3230 H3238 0.930 . S
C3231 C3230 1.394 . S
C3231 C3232 1.383 . S
C3231 H3239 0.929 . S
C3232 C3231 1.383 . S
C3232 C3233 1.377 . S
C3233 H3217 0.930 . S
C3233 C3232 1.377 . S
C3233 C3234 1.379 . S
C3234 H3218 0.931 . S
C3234 C3228 1.383 . S
C3234 C3233 1.379 . S
H3235 C3229 0.959 . S
H3236 C3229 0.961 . S
H3237 C3229 0.960 . S
H3238 C3230 0.930 . S
H3239 C3231 0.929 . S
H3240 C3248 0.929 . S
H3241 C3250 0.930 . S
H3242 C3252 0.930 . S
H3243 C3255 0.929 . S
H3244 C3258 0.930 . S
H3245 C3260 0.960 . S
H3246 C3260 0.960 . S
H3247 C3260 0.960 . S
C3248 H3240 0.929 . S
C3248 C3249 1.377 . S
C3248 C3250 1.384 . S
C3249 C3248 1.377 . S
C3249 C3255 1.390 . S
C3250 H3241 0.930 . S
C3250 C3248 1.384 . S
C3250 C3251 1.372 . S
C3251 C3250 1.372 . S
C3251 C3252 1.400 . S
C3251 C3256 1.490 . S
C3252 H3242 0.930 . S
C3252 C3251 1.400 . S
C3252 C3255 1.386 . S
H3253 C3269 0.930 . S
H3254 C3270 0.931 . S
C3255 H3243 0.929 . S
C3255 C3249 1.390 . S
C3255 C3252 1.386 . S
C3256 C3251 1.490 . S
C3256 C3258 1.395 . S
C3256 C3259 1.403 . S
H3257 C3263 0.930 . S
C3258 H3244 0.930 . S
C3258 C3256 1.395 . S
C3258 C3261 1.403 . S
C3259 C3256 1.403 . S
C3259 C3260 1.524 . S
C3259 C3263 1.400 . S
C3260 H3245 0.960 . S
C3260 H3246 0.960 . S
C3260 H3247 0.960 . S
C3260 C3259 1.524 . S
C3261 C3258 1.403 . S
C3261 C3262 1.392 . S
C3261 C3265 1.495 . S
C3262 C3261 1.392 . S
C3262 C3263 1.385 . S
C3262 C3264 1.478 . S
C3263 H3257 0.930 . S
C3263 C3259 1.400 . S
C3263 C3262 1.385 . S
C3264 C3262 1.478 . S
C3264 C3266 1.381 . S
C3264 C3270 1.383 . S
C3265 C3261 1.495 . S
C3265 H3271 0.959 . S
C3265 H3272 0.961 . S
C3265 H3273 0.960 . S
C3266 C3264 1.381 . S
C3266 C3267 1.394 . S
C3266 H3274 0.930 . S
C3267 C3266 1.394 . S
C3267 C3268 1.383 . S
C3267 H3275 0.929 . S
C3268 C3267 1.383 . S
C3268 C3269 1.377 . S
C3269 H3253 0.930 . S
C3269 C3268 1.377 . S
C3269 C3270 1.379 . S
C3270 H3254 0.931 . S
C3270 C3264 1.383 . S
C3270 C3269 1.379 . S
H3271 C3265 0.959 . S
H3272 C3265 0.961 . S
H3273 C3265 0.960 . S
H3274 C3266 0.930 . S
H3275 C3267 0.929 . S
H3276 C3284 0.929 . S
H3277 C3286 0.930 . S
H3278 C3288 0.930 . S
H3279 C3291 0.929 . S
H3280 C3294 0.930 . S
H3281 C3296 0.960 . S
H3282 C3296 0.960 . S
H3283 C3296 0.960 . S
C3284 H3276 0.929 . S
C3284 C3285 1.377 . S
C3284 C3286 1.384 1_655 S
C3285 C3284 1.377 . S
C3285 C3291 1.390 . S
C3286 H3277 0.930 . S
C3286 C3284 1.384 1_455 S
C3286 C3287 1.372 . S
C3287 C3286 1.372 . S
C3287 C3288 1.400 1_455 S
C3287 C3292 1.490 . S
C3288 H3278 0.930 . S
C3288 C3287 1.400 1_655 S
C3288 C3291 1.386 . S
H3289 C3305 0.930 . S
H3290 C3306 0.931 . S
C3291 H3279 0.929 . S
C3291 C3285 1.390 . S
C3291 C3288 1.386 . S
C3292 C3287 1.490 . S
C3292 C3294 1.395 . S
C3292 C3295 1.403 . S
H3293 C3299 0.930 . S
C3294 H3280 0.930 . S
C3294 C3292 1.395 . S
C3294 C3297 1.403 . S
C3295 C3292 1.403 . S
C3295 C3296 1.524 . S
C3295 C3299 1.400 . S
C3296 H3281 0.960 . S
C3296 H3282 0.960 . S
C3296 H3283 0.960 . S
C3296 C3295 1.524 . S
C3297 C3294 1.403 . S
C3297 C3298 1.392 . S
C3297 C3301 1.495 . S
C3298 C3297 1.392 . S
C3298 C3299 1.385 . S
C3298 C3300 1.478 . S
C3299 H3293 0.930 . S
C3299 C3295 1.400 . S
C3299 C3298 1.385 . S
C3300 C3298 1.478 . S
C3300 C3302 1.381 . S
C3300 C3306 1.383 . S
C3301 C3297 1.495 . S
C3301 H3307 0.959 . S
C3301 H3308 0.961 . S
C3301 H3309 0.960 . S
C3302 C3300 1.381 . S
C3302 C3303 1.394 . S
C3302 H3310 0.930 . S
C3303 C3302 1.394 . S
C3303 C3304 1.383 . S
C3303 H3311 0.929 . S
C3304 C3303 1.383 . S
C3304 C3305 1.377 . S
C3305 H3289 0.930 . S
C3305 C3304 1.377 . S
C3305 C3306 1.379 . S
C3306 H3290 0.931 . S
C3306 C3300 1.383 . S
C3306 C3305 1.379 . S
H3307 C3301 0.959 . S
H3308 C3301 0.961 . S
H3309 C3301 0.960 . S
H3310 C3302 0.930 . S
H3311 C3303 0.929 . S
H3312 C3320 0.929 . S
H3313 C3322 0.930 . S
H3314 C3324 0.930 . S
H3315 C3327 0.929 . S
H3316 C3330 0.930 . S
H3317 C3332 0.960 . S
H3318 C3332 0.960 . S
H3319 C3332 0.960 . S
C3320 H3312 0.929 . S
C3320 C3321 1.377 . S
C3320 C3322 1.384 . S
C3321 C3320 1.377 . S
C3321 C3327 1.390 . S
C3322 H3313 0.930 . S
C3322 C3320 1.384 . S
C3322 C3323 1.372 . S
C3323 C3322 1.372 . S
C3323 C3324 1.400 . S
C3323 C3328 1.490 . S
C3324 H3314 0.930 . S
C3324 C3323 1.400 . S
C3324 C3327 1.386 . S
H3325 C3341 0.930 . S
H3326 C3342 0.931 . S
C3327 H3315 0.929 . S
C3327 C3321 1.390 . S
C3327 C3324 1.386 . S
C3328 C3323 1.490 . S
C3328 C3330 1.395 . S
C3328 C3331 1.403 . S
H3329 C3335 0.930 . S
C3330 H3316 0.930 . S
C3330 C3328 1.395 . S
C3330 C3333 1.403 . S
C3331 C3328 1.403 . S
C3331 C3332 1.524 . S
C3331 C3335 1.400 . S
C3332 H3317 0.960 . S
C3332 H3318 0.960 . S
C3332 H3319 0.960 . S
C3332 C3331 1.524 . S
C3333 C3330 1.403 . S
C3333 C3334 1.392 . S
C3333 C3337 1.495 . S
C3334 C3333 1.392 . S
C3334 C3335 1.385 . S
C3334 C3336 1.478 . S
C3335 H3329 0.930 . S
C3335 C3331 1.400 . S
C3335 C3334 1.385 . S
C3336 C3334 1.478 . S
C3336 C3338 1.381 . S
C3336 C3342 1.383 . S
C3337 C3333 1.495 . S
C3337 H3343 0.959 . S
C3337 H3344 0.961 . S
C3337 H3345 0.960 . S
C3338 C3336 1.381 . S
C3338 C3339 1.394 . S
C3338 H3346 0.930 . S
C3339 C3338 1.394 . S
C3339 C3340 1.383 . S
C3339 H3347 0.929 . S
C3340 C3339 1.383 . S
C3340 C3341 1.377 . S
C3341 H3325 0.930 . S
C3341 C3340 1.377 . S
C3341 C3342 1.379 . S
C3342 H3326 0.931 . S
C3342 C3336 1.383 . S
C3342 C3341 1.379 . S
H3343 C3337 0.959 . S
H3344 C3337 0.961 . S
H3345 C3337 0.960 . S
H3346 C3338 0.930 . S
H3347 C3339 0.929 . S
H3348 C3356 0.929 . S
H3349 C3358 0.930 . S
H3350 C3360 0.930 . S
H3351 C3363 0.929 . S
H3352 C3366 0.930 . S
H3353 C3368 0.960 . S
H3354 C3368 0.960 . S
H3355 C3368 0.960 . S
C3356 H3348 0.929 . S
C3356 C3357 1.377 . S
C3356 C3358 1.384 . S
C3357 C3356 1.377 . S
C3357 C3363 1.390 . S
C3358 H3349 0.930 . S
C3358 C3356 1.384 . S
C3358 C3359 1.372 . S
C3359 C3358 1.372 . S
C3359 C3360 1.400 . S
C3359 C3364 1.490 . S
C3360 H3350 0.930 . S
C3360 C3359 1.400 . S
C3360 C3363 1.386 . S
H3361 C3377 0.930 . S
H3362 C3378 0.931 . S
C3363 H3351 0.929 . S
C3363 C3357 1.390 . S
C3363 C3360 1.386 . S
C3364 C3359 1.490 . S
C3364 C3366 1.395 . S
C3364 C3367 1.403 . S
H3365 C3371 0.930 . S
C3366 H3352 0.930 . S
C3366 C3364 1.395 . S
C3366 C3369 1.403 . S
C3367 C3364 1.403 . S
C3367 C3368 1.524 . S
C3367 C3371 1.400 . S
C3368 H3353 0.960 . S
C3368 H3354 0.960 . S
C3368 H3355 0.960 . S
C3368 C3367 1.524 . S
C3369 C3366 1.403 . S
C3369 C3370 1.392 . S
C3369 C3373 1.495 . S
C3370 C3369 1.392 . S
C3370 C3371 1.385 . S
C3370 C3372 1.478 . S
C3371 H3365 0.930 . S
C3371 C3367 1.400 . S
C3371 C3370 1.385 . S
C3372 C3370 1.478 . S
C3372 C3374 1.381 . S
C3372 C3378 1.383 1_455 S
C3373 C3369 1.495 . S
C3373 H3379 0.959 . S
C3373 H3380 0.961 . S
C3373 H3381 0.960 . S
C3374 C3372 1.381 . S
C3374 C3375 1.394 1_455 S
C3374 H3382 0.930 . S
C3375 C3374 1.394 1_655 S
C3375 C3376 1.383 . S
C3375 H3383 0.929 . S
C3376 C3375 1.383 . S
C3376 C3377 1.377 . S
C3377 H3361 0.930 . S
C3377 C3376 1.377 . S
C3377 C3378 1.379 . S
C3378 H3362 0.931 . S
C3378 C3372 1.383 1_655 S
C3378 C3377 1.379 . S
H3379 C3373 0.959 . S
H3380 C3373 0.961 . S
H3381 C3373 0.960 . S
H3382 C3374 0.930 . S
H3383 C3375 0.929 . S
H3384 C3392 0.929 . S
H3385 C3394 0.930 . S
H3386 C3396 0.930 . S
H3387 C3399 0.929 . S
H3388 C3402 0.930 . S
H3389 C3404 0.960 . S
H3390 C3404 0.960 . S
H3391 C3404 0.960 . S
C3392 H3384 0.929 . S
C3392 C3393 1.377 . S
C3392 C3394 1.384 . S
C3393 C3392 1.377 . S
C3393 C3399 1.390 . S
C3394 H3385 0.930 . S
C3394 C3392 1.384 . S
C3394 C3395 1.372 . S
C3395 C3394 1.372 . S
C3395 C3396 1.400 . S
C3395 C3400 1.490 . S
C3396 H3386 0.930 . S
C3396 C3395 1.400 . S
C3396 C3399 1.386 . S
H3397 C3413 0.930 . S
H3398 C3414 0.931 . S
C3399 H3387 0.929 . S
C3399 C3393 1.390 . S
C3399 C3396 1.386 . S
C3400 C3395 1.490 . S
C3400 C3402 1.395 . S
C3400 C3403 1.403 . S
H3401 C3407 0.930 . S
C3402 H3388 0.930 . S
C3402 C3400 1.395 . S
C3402 C3405 1.403 . S
C3403 C3400 1.403 . S
C3403 C3404 1.524 . S
C3403 C3407 1.400 . S
C3404 H3389 0.960 . S
C3404 H3390 0.960 . S
C3404 H3391 0.960 . S
C3404 C3403 1.524 . S
C3405 C3402 1.403 . S
C3405 C3406 1.392 . S
C3405 C3409 1.495 . S
C3406 C3405 1.392 . S
C3406 C3407 1.385 . S
C3406 C3408 1.478 . S
C3407 H3401 0.930 . S
C3407 C3403 1.400 . S
C3407 C3406 1.385 . S
C3408 C3406 1.478 . S
C3408 C3410 1.381 . S
C3408 C3414 1.383 . S
C3409 C3405 1.495 . S
C3409 H3415 0.959 . S
C3409 H3416 0.961 . S
C3409 H3417 0.960 . S
C3410 C3408 1.381 . S
C3410 C3411 1.394 . S
C3410 H3418 0.930 . S
C3411 C3410 1.394 . S
C3411 C3412 1.383 . S
C3411 H3419 0.929 . S
C3412 C3411 1.383 . S
C3412 C3413 1.377 . S
C3413 H3397 0.930 . S
C3413 C3412 1.377 . S
C3413 C3414 1.379 . S
C3414 H3398 0.931 . S
C3414 C3408 1.383 . S
C3414 C3413 1.379 . S
H3415 C3409 0.959 . S
H3416 C3409 0.961 . S
H3417 C3409 0.960 . S
H3418 C3410 0.930 . S
H3419 C3411 0.929 . S
H3420 C3428 0.929 . S
H3421 C3430 0.930 . S
H3422 C3432 0.930 . S
H3423 C3435 0.929 . S
H3424 C3438 0.930 . S
H3425 C3440 0.960 . S
H3426 C3440 0.960 . S
H3427 C3440 0.960 . S
C3428 H3420 0.929 . S
C3428 C3429 1.377 . S
C3428 C3430 1.384 . S
C3429 C3428 1.377 . S
C3429 C3435 1.390 . S
C3430 H3421 0.930 . S
C3430 C3428 1.384 . S
C3430 C3431 1.372 . S
C3431 C3430 1.372 . S
C3431 C3432 1.400 . S
C3431 C3436 1.490 . S
C3432 H3422 0.930 . S
C3432 C3431 1.400 . S
C3432 C3435 1.386 . S
H3433 C3449 0.930 . S
H3434 C3450 0.931 . S
C3435 H3423 0.929 . S
C3435 C3429 1.390 . S
C3435 C3432 1.386 . S
C3436 C3431 1.490 . S
C3436 C3438 1.395 . S
C3436 C3439 1.403 . S
H3437 C3443 0.930 . S
C3438 H3424 0.930 . S
C3438 C3436 1.395 . S
C3438 C3441 1.403 . S
C3439 C3436 1.403 . S
C3439 C3440 1.524 . S
C3439 C3443 1.400 . S
C3440 H3425 0.960 . S
C3440 H3426 0.960 . S
C3440 H3427 0.960 . S
C3440 C3439 1.524 . S
C3441 C3438 1.403 . S
C3441 C3442 1.392 . S
C3441 C3445 1.495 . S
C3442 C3441 1.392 . S
C3442 C3443 1.385 . S
C3442 C3444 1.478 . S
C3443 H3437 0.930 . S
C3443 C3439 1.400 . S
C3443 C3442 1.385 . S
C3444 C3442 1.478 . S
C3444 C3446 1.381 . S
C3444 C3450 1.383 . S
C3445 C3441 1.495 . S
C3445 H3451 0.959 . S
C3445 H3452 0.961 . S
C3445 H3453 0.960 . S
C3446 C3444 1.381 . S
C3446 C3447 1.394 . S
C3446 H3454 0.930 . S
C3447 C3446 1.394 . S
C3447 C3448 1.383 . S
C3447 H3455 0.929 . S
C3448 C3447 1.383 . S
C3448 C3449 1.377 . S
C3449 H3433 0.930 . S
C3449 C3448 1.377 . S
C3449 C3450 1.379 . S
C3450 H3434 0.931 . S
C3450 C3444 1.383 . S
C3450 C3449 1.379 . S
H3451 C3445 0.959 . S
H3452 C3445 0.961 . S
H3453 C3445 0.960 . S
H3454 C3446 0.930 . S
H3455 C3447 0.929 . S
C1161 C148 1.501 . S
C1180 C4 1.502 . S
C1197 C184 1.499 . S
C1216 C40 1.494 . S
C1233 C220 1.501 . S
C1252 C76 1.502 . S
C1269 C112 1.501 . S
C1288 C256 1.502 . S
C1305 C292 1.500 . S
C1324 C436 1.501 . S
C1341 C472 1.498 . S
C1360 C328 1.500 . S
C1377 C364 1.499 . S
C1396 C508 1.501 . S
C1413 C544 1.500 . S
C1432 C400 1.500 . S
C1449 C580 1.499 . S
C1468 C724 1.497 . S
C1485 C760 1.501 . S
C1504 C616 1.502 . S
C1521 C796 1.501 . S
C1540 C652 1.502 . S
C1557 C832 1.500 . S
C1576 C688 1.499 . S
C1593 C868 1.498 . S
C1612 C1012 1.494 . S
C1629 C904 1.498 . S
C1648 C1048 1.499 . S
C1665 C940 1.499 . S
C1684 C1084 1.502 . S
C1701 C976 1.498 . S
C1720 C1120 1.497 . S
C1737 C14 0.981 . S
C1756 C266 0.938 . S
C1773 C50 0.967 . S
C1792 C158 1.001 . S
C1809 C86 0.980 . S
C1828 C194 0.946 . S
C1845 C230 0.965 . S
C1864 C122 1.009 . S
C1881 C554 0.968 . S
C1900 C302 0.933 . S
C1917 C446 0.973 . S
C1936 C338 0.941 . S
C1953 C482 0.973 . S
C1972 C374 0.942 . S
C1989 C410 0.981 . S
C2008 C518 0.986 . S
C2025 C842 0.971 . S
C2044 C590 0.979 . S
C2061 C734 0.981 . S
C2080 C626 0.941 . S
C2097 C770 0.966 . S
C2116 C662 1.010 . S
C2133 C698 0.968 . S
C2152 C806 0.993 . S
C2169 C878 0.972 . S
C2188 C1130 0.939 . S
C2205 C914 0.976 . S
C2224 C1022 0.954 . S
C2241 C950 0.971 . S
C2260 C1058 0.937 . S
C2277 C1094 0.975 . S
C2296 C986 0.949 . S
C2313 C3 1.433 . S
C2332 C902 1.420 . S
C2349 C39 1.433 . S
C2368 C362 1.405 . S
C2385 C75 1.432 . S
C2404 C974 1.393 . S
C2421 C290 1.410 . S
C2440 C111 1.430 . S
C2457 C1118 1.406 . S
C2476 C147 1.428 . S
C2493 C183 1.433 . S
C2512 C434 1.401 . S
C2529 C219 1.432 . S
C2548 C1046 1.386 . S
C2565 C255 1.433 . S
C2584 C506 1.416 . S
C2601 C614 1.411 . S
C2620 C291 1.430 . S
C2637 C74 1.412 . S
C2656 C327 1.429 . S
C2673 C686 1.413 . S
C2692 C363 1.428 . S
C2709 C399 1.432 . S
C2728 C2 1.422 . S
C2745 C830 1.407 . S
C2764 C435 1.432 . S
C2781 C146 1.405 . S
C2800 C471 1.431 . S
C2817 C758 1.410 . S
C2836 C507 1.431 . S
C2853 C218 1.405 . S
C2872 C543 1.430 . S
C2889 C326 1.407 . S
C2908 C579 1.430 . S
C2925 C615 1.433 . S
C2944 C938 1.416 . S
C2961 C651 1.432 . S
C2980 C398 1.386 . S
C2997 C687 1.433 . S
C3016 C866 1.387 . S
C3033 C723 1.433 . S
C3052 C542 1.424 . S
C3069 C1010 1.411 . S
C3088 C759 1.430 . S
C3105 C795 1.433 . S
C3124 C470 1.425 . S
C3141 C831 1.433 . S
C3160 C1082 1.393 . S
C3177 C867 1.433 . S
C3196 C38 1.411 . S
C3213 C903 1.432 . S
C3232 C650 1.418 . S
C3249 C110 1.411 . S
C3268 C939 1.428 . S
C3285 C578 1.407 . S
C3304 C975 1.429 . S
C3321 C1011 1.432 . S
C3340 C254 1.421 . S
C3357 C1047 1.433 . S
C3376 C722 1.391 . S
C3393 C182 1.408 . S
C3412 C1083 1.432 . S
C3429 C794 1.405 . S
C3448 C1119 1.432 . S
