# Generated by pormake.
# Topology ukx, (4)-cn, num edge types: 1
# Building blocks:
#     Node 0, Type 0, BuildingBlock: QUQFOY_clean_sbu_1, # of connection points: 4
#     Node 1, Type 0, BuildingBlock: QUQFOY_clean_sbu_1, # of connection points: 4
#     Node 2, Type 0, BuildingBlock: QUQFOY_clean_sbu_1, # of connection points: 4
#     Node 3, Type 0, BuildingBlock: QUQFOY_clean_sbu_1, # of connection points: 4
#     Node 4, Type 0, BuildingBlock: QUQFOY_clean_sbu_1, # of connection points: 4
#     Node 5, Type 0, BuildingBlock: QUQFOY_clean_sbu_1, # of connection points: 4
#     Node 6, Type 0, BuildingBlock: QUQFOY_clean_sbu_1, # of connection points: 4
#     Node 7, Type 0, BuildingBlock: QUQFOY_clean_sbu_1, # of connection points: 4
#     Node 8, Type 0, BuildingBlock: QUQFOY_clean_sbu_1, # of connection points: 4
#     Node 9, Type 0, BuildingBlock: QUQFOY_clean_sbu_1, # of connection points: 4
#     Node 10, Type 0, BuildingBlock: QUQFOY_clean_sbu_1, # of connection points: 4
#     Node 11, Type 0, BuildingBlock: QUQFOY_clean_sbu_1, # of connection points: 4
#     Node 12, Type 0, BuildingBlock: QUQFOY_clean_sbu_1, # of connection points: 4
#     Node 13, Type 0, BuildingBlock: QUQFOY_clean_sbu_1, # of connection points: 4
#     Node 14, Type 0, BuildingBlock: QUQFOY_clean_sbu_1, # of connection points: 4
#     Node 15, Type 0, BuildingBlock: QUQFOY_clean_sbu_1, # of connection points: 4
#     Node 16, Type 0, BuildingBlock: QUQFOY_clean_sbu_1, # of connection points: 4
#     Node 17, Type 0, BuildingBlock: QUQFOY_clean_sbu_1, # of connection points: 4
#     Node 18, Type 0, BuildingBlock: QUQFOY_clean_sbu_1, # of connection points: 4
#     Node 19, Type 0, BuildingBlock: QUQFOY_clean_sbu_1, # of connection points: 4
#     Node 20, Type 0, BuildingBlock: QUQFOY_clean_sbu_1, # of connection points: 4
#     Node 21, Type 0, BuildingBlock: QUQFOY_clean_sbu_1, # of connection points: 4
#     Node 22, Type 0, BuildingBlock: QUQFOY_clean_sbu_1, # of connection points: 4
#     Node 23, Type 0, BuildingBlock: QUQFOY_clean_sbu_1, # of connection points: 4
#     Node 24, Type 0, BuildingBlock: QUQFOY_clean_sbu_1, # of connection points: 4
#     Node 25, Type 0, BuildingBlock: QUQFOY_clean_sbu_1, # of connection points: 4
#     Node 26, Type 0, BuildingBlock: QUQFOY_clean_sbu_1, # of connection points: 4
#     Node 27, Type 0, BuildingBlock: QUQFOY_clean_sbu_1, # of connection points: 4
#     Node 28, Type 0, BuildingBlock: QUQFOY_clean_sbu_1, # of connection points: 4
#     Node 29, Type 0, BuildingBlock: QUQFOY_clean_sbu_1, # of connection points: 4
#     Node 30, Type 0, BuildingBlock: QUQFOY_clean_sbu_1, # of connection points: 4
#     Node 31, Type 0, BuildingBlock: QUQFOY_clean_sbu_1, # of connection points: 4
#     Node 32, Type 0, BuildingBlock: QUQFOY_clean_sbu_1, # of connection points: 4
#     Node 33, Type 0, BuildingBlock: QUQFOY_clean_sbu_1, # of connection points: 4
#     Node 34, Type 0, BuildingBlock: QUQFOY_clean_sbu_1, # of connection points: 4
#     Node 35, Type 0, BuildingBlock: QUQFOY_clean_sbu_1, # of connection points: 4
#     Node 36, Type 0, BuildingBlock: QUQFOY_clean_sbu_1, # of connection points: 4
#     Node 37, Type 0, BuildingBlock: QUQFOY_clean_sbu_1, # of connection points: 4
#     Node 38, Type 0, BuildingBlock: QUQFOY_clean_sbu_1, # of connection points: 4
#     Node 39, Type 0, BuildingBlock: QUQFOY_clean_sbu_1, # of connection points: 4
#     Node 40, Type 0, BuildingBlock: QUQFOY_clean_sbu_1, # of connection points: 4
#     Node 41, Type 0, BuildingBlock: QUQFOY_clean_sbu_1, # of connection points: 4
#     Node 42, Type 0, BuildingBlock: QUQFOY_clean_sbu_1, # of connection points: 4
#     Node 43, Type 0, BuildingBlock: QUQFOY_clean_sbu_1, # of connection points: 4
#     Node 44, Type 0, BuildingBlock: QUQFOY_clean_sbu_1, # of connection points: 4
#     Node 45, Type 0, BuildingBlock: QUQFOY_clean_sbu_1, # of connection points: 4
#     Node 46, Type 0, BuildingBlock: QUQFOY_clean_sbu_1, # of connection points: 4
#     Node 47, Type 0, BuildingBlock: QUQFOY_clean_sbu_1, # of connection points: 4
#     Node 48, Type 0, BuildingBlock: QUQFOY_clean_sbu_1, # of connection points: 4
#     Node 49, Type 0, BuildingBlock: QUQFOY_clean_sbu_1, # of connection points: 4
#     Node 50, Type 0, BuildingBlock: QUQFOY_clean_sbu_1, # of connection points: 4
#     Node 51, Type 0, BuildingBlock: QUQFOY_clean_sbu_1, # of connection points: 4
#     Node 52, Type 0, BuildingBlock: QUQFOY_clean_sbu_1, # of connection points: 4
#     Node 53, Type 0, BuildingBlock: QUQFOY_clean_sbu_1, # of connection points: 4
#     Node 54, Type 0, BuildingBlock: QUQFOY_clean_sbu_1, # of connection points: 4
#     Node 55, Type 0, BuildingBlock: QUQFOY_clean_sbu_1, # of connection points: 4
#     Node 56, Type 0, BuildingBlock: QUQFOY_clean_sbu_1, # of connection points: 4
#     Node 57, Type 0, BuildingBlock: QUQFOY_clean_sbu_1, # of connection points: 4
#     Node 58, Type 0, BuildingBlock: QUQFOY_clean_sbu_1, # of connection points: 4
#     Node 59, Type 0, BuildingBlock: QUQFOY_clean_sbu_1, # of connection points: 4
#     Node 60, Type 0, BuildingBlock: QUQFOY_clean_sbu_1, # of connection points: 4
#     Node 61, Type 0, BuildingBlock: QUQFOY_clean_sbu_1, # of connection points: 4
#     Node 62, Type 0, BuildingBlock: QUQFOY_clean_sbu_1, # of connection points: 4
#     Node 63, Type 0, BuildingBlock: QUQFOY_clean_sbu_1, # of connection points: 4
#     Node 64, Type 0, BuildingBlock: QUQFOY_clean_sbu_1, # of connection points: 4
#     Node 65, Type 0, BuildingBlock: QUQFOY_clean_sbu_1, # of connection points: 4
#     Node 66, Type 0, BuildingBlock: QUQFOY_clean_sbu_1, # of connection points: 4
#     Node 67, Type 0, BuildingBlock: QUQFOY_clean_sbu_1, # of connection points: 4
#     Node 68, Type 0, BuildingBlock: QUQFOY_clean_sbu_1, # of connection points: 4
#     Node 69, Type 0, BuildingBlock: QUQFOY_clean_sbu_1, # of connection points: 4
#     Node 70, Type 0, BuildingBlock: QUQFOY_clean_sbu_1, # of connection points: 4
#     Node 71, Type 0, BuildingBlock: QUQFOY_clean_sbu_1, # of connection points: 4
#     Node 72, Type 0, BuildingBlock: QUQFOY_clean_sbu_1, # of connection points: 4
#     Node 73, Type 0, BuildingBlock: QUQFOY_clean_sbu_1, # of connection points: 4
#     Node 74, Type 0, BuildingBlock: QUQFOY_clean_sbu_1, # of connection points: 4
#     Node 75, Type 0, BuildingBlock: QUQFOY_clean_sbu_1, # of connection points: 4
#     Node 76, Type 0, BuildingBlock: QUQFOY_clean_sbu_1, # of connection points: 4
#     Node 77, Type 0, BuildingBlock: QUQFOY_clean_sbu_1, # of connection points: 4
#     Node 78, Type 0, BuildingBlock: QUQFOY_clean_sbu_1, # of connection points: 4
#     Node 79, Type 0, BuildingBlock: QUQFOY_clean_sbu_1, # of connection points: 4
#     Node 80, Type 0, BuildingBlock: QUQFOY_clean_sbu_1, # of connection points: 4
#     Node 81, Type 0, BuildingBlock: QUQFOY_clean_sbu_1, # of connection points: 4
#     Node 82, Type 0, BuildingBlock: QUQFOY_clean_sbu_1, # of connection points: 4
#     Node 83, Type 0, BuildingBlock: QUQFOY_clean_sbu_1, # of connection points: 4
#     Node 84, Type 0, BuildingBlock: QUQFOY_clean_sbu_1, # of connection points: 4
#     Node 85, Type 0, BuildingBlock: QUQFOY_clean_sbu_1, # of connection points: 4
#     Node 86, Type 0, BuildingBlock: QUQFOY_clean_sbu_1, # of connection points: 4
#     Node 87, Type 0, BuildingBlock: QUQFOY_clean_sbu_1, # of connection points: 4
#     Node 88, Type 0, BuildingBlock: QUQFOY_clean_sbu_1, # of connection points: 4
#     Node 89, Type 0, BuildingBlock: QUQFOY_clean_sbu_1, # of connection points: 4
#     Node 90, Type 0, BuildingBlock: QUQFOY_clean_sbu_1, # of connection points: 4
#     Node 91, Type 0, BuildingBlock: QUQFOY_clean_sbu_1, # of connection points: 4
#     Node 92, Type 0, BuildingBlock: QUQFOY_clean_sbu_1, # of connection points: 4
#     Node 93, Type 0, BuildingBlock: QUQFOY_clean_sbu_1, # of connection points: 4
#     Node 94, Type 0, BuildingBlock: QUQFOY_clean_sbu_1, # of connection points: 4
#     Node 95, Type 0, BuildingBlock: QUQFOY_clean_sbu_1, # of connection points: 4
#     Edge 96, Type (0, 0), BuildingBlock: XIVTED_clean_linker_0, # of connection points: 2
#     Edge 97, Type (0, 0), BuildingBlock: XIVTED_clean_linker_0, # of connection points: 2
#     Edge 98, Type (0, 0), BuildingBlock: XIVTED_clean_linker_0, # of connection points: 2
#     Edge 99, Type (0, 0), BuildingBlock: XIVTED_clean_linker_0, # of connection points: 2
#     Edge 100, Type (0, 0), BuildingBlock: XIVTED_clean_linker_0, # of connection points: 2
#     Edge 101, Type (0, 0), BuildingBlock: XIVTED_clean_linker_0, # of connection points: 2
#     Edge 102, Type (0, 0), BuildingBlock: XIVTED_clean_linker_0, # of connection points: 2
#     Edge 103, Type (0, 0), BuildingBlock: XIVTED_clean_linker_0, # of connection points: 2
#     Edge 104, Type (0, 0), BuildingBlock: XIVTED_clean_linker_0, # of connection points: 2
#     Edge 105, Type (0, 0), BuildingBlock: XIVTED_clean_linker_0, # of connection points: 2
#     Edge 106, Type (0, 0), BuildingBlock: XIVTED_clean_linker_0, # of connection points: 2
#     Edge 107, Type (0, 0), BuildingBlock: XIVTED_clean_linker_0, # of connection points: 2
#     Edge 108, Type (0, 0), BuildingBlock: XIVTED_clean_linker_0, # of connection points: 2
#     Edge 109, Type (0, 0), BuildingBlock: XIVTED_clean_linker_0, # of connection points: 2
#     Edge 110, Type (0, 0), BuildingBlock: XIVTED_clean_linker_0, # of connection points: 2
#     Edge 111, Type (0, 0), BuildingBlock: XIVTED_clean_linker_0, # of connection points: 2
#     Edge 112, Type (0, 0), BuildingBlock: XIVTED_clean_linker_0, # of connection points: 2
#     Edge 113, Type (0, 0), BuildingBlock: XIVTED_clean_linker_0, # of connection points: 2
#     Edge 114, Type (0, 0), BuildingBlock: XIVTED_clean_linker_0, # of connection points: 2
#     Edge 115, Type (0, 0), BuildingBlock: XIVTED_clean_linker_0, # of connection points: 2
#     Edge 116, Type (0, 0), BuildingBlock: XIVTED_clean_linker_0, # of connection points: 2
#     Edge 117, Type (0, 0), BuildingBlock: XIVTED_clean_linker_0, # of connection points: 2
#     Edge 118, Type (0, 0), BuildingBlock: XIVTED_clean_linker_0, # of connection points: 2
#     Edge 119, Type (0, 0), BuildingBlock: XIVTED_clean_linker_0, # of connection points: 2
#     Edge 120, Type (0, 0), BuildingBlock: XIVTED_clean_linker_0, # of connection points: 2
#     Edge 121, Type (0, 0), BuildingBlock: XIVTED_clean_linker_0, # of connection points: 2
#     Edge 122, Type (0, 0), BuildingBlock: XIVTED_clean_linker_0, # of connection points: 2
#     Edge 123, Type (0, 0), BuildingBlock: XIVTED_clean_linker_0, # of connection points: 2
#     Edge 124, Type (0, 0), BuildingBlock: XIVTED_clean_linker_0, # of connection points: 2
#     Edge 125, Type (0, 0), BuildingBlock: XIVTED_clean_linker_0, # of connection points: 2
#     Edge 126, Type (0, 0), BuildingBlock: XIVTED_clean_linker_0, # of connection points: 2
#     Edge 127, Type (0, 0), BuildingBlock: XIVTED_clean_linker_0, # of connection points: 2
#     Edge 128, Type (0, 0), BuildingBlock: XIVTED_clean_linker_0, # of connection points: 2
#     Edge 129, Type (0, 0), BuildingBlock: XIVTED_clean_linker_0, # of connection points: 2
#     Edge 130, Type (0, 0), BuildingBlock: XIVTED_clean_linker_0, # of connection points: 2
#     Edge 131, Type (0, 0), BuildingBlock: XIVTED_clean_linker_0, # of connection points: 2
#     Edge 132, Type (0, 0), BuildingBlock: XIVTED_clean_linker_0, # of connection points: 2
#     Edge 133, Type (0, 0), BuildingBlock: XIVTED_clean_linker_0, # of connection points: 2
#     Edge 134, Type (0, 0), BuildingBlock: XIVTED_clean_linker_0, # of connection points: 2
#     Edge 135, Type (0, 0), BuildingBlock: XIVTED_clean_linker_0, # of connection points: 2
#     Edge 136, Type (0, 0), BuildingBlock: XIVTED_clean_linker_0, # of connection points: 2
#     Edge 137, Type (0, 0), BuildingBlock: XIVTED_clean_linker_0, # of connection points: 2
#     Edge 138, Type (0, 0), BuildingBlock: XIVTED_clean_linker_0, # of connection points: 2
#     Edge 139, Type (0, 0), BuildingBlock: XIVTED_clean_linker_0, # of connection points: 2
#     Edge 140, Type (0, 0), BuildingBlock: XIVTED_clean_linker_0, # of connection points: 2
#     Edge 141, Type (0, 0), BuildingBlock: XIVTED_clean_linker_0, # of connection points: 2
#     Edge 142, Type (0, 0), BuildingBlock: XIVTED_clean_linker_0, # of connection points: 2
#     Edge 143, Type (0, 0), BuildingBlock: XIVTED_clean_linker_0, # of connection points: 2
#     Edge 144, Type (0, 0), BuildingBlock: XIVTED_clean_linker_0, # of connection points: 2
#     Edge 145, Type (0, 0), BuildingBlock: XIVTED_clean_linker_0, # of connection points: 2
#     Edge 146, Type (0, 0), BuildingBlock: XIVTED_clean_linker_0, # of connection points: 2
#     Edge 147, Type (0, 0), BuildingBlock: XIVTED_clean_linker_0, # of connection points: 2
#     Edge 148, Type (0, 0), BuildingBlock: XIVTED_clean_linker_0, # of connection points: 2
#     Edge 149, Type (0, 0), BuildingBlock: XIVTED_clean_linker_0, # of connection points: 2
#     Edge 150, Type (0, 0), BuildingBlock: XIVTED_clean_linker_0, # of connection points: 2
#     Edge 151, Type (0, 0), BuildingBlock: XIVTED_clean_linker_0, # of connection points: 2
#     Edge 152, Type (0, 0), BuildingBlock: XIVTED_clean_linker_0, # of connection points: 2
#     Edge 153, Type (0, 0), BuildingBlock: XIVTED_clean_linker_0, # of connection points: 2
#     Edge 154, Type (0, 0), BuildingBlock: XIVTED_clean_linker_0, # of connection points: 2
#     Edge 155, Type (0, 0), BuildingBlock: XIVTED_clean_linker_0, # of connection points: 2
#     Edge 156, Type (0, 0), BuildingBlock: XIVTED_clean_linker_0, # of connection points: 2
#     Edge 157, Type (0, 0), BuildingBlock: XIVTED_clean_linker_0, # of connection points: 2
#     Edge 158, Type (0, 0), BuildingBlock: XIVTED_clean_linker_0, # of connection points: 2
#     Edge 159, Type (0, 0), BuildingBlock: XIVTED_clean_linker_0, # of connection points: 2
#     Edge 160, Type (0, 0), BuildingBlock: XIVTED_clean_linker_0, # of connection points: 2
#     Edge 161, Type (0, 0), BuildingBlock: XIVTED_clean_linker_0, # of connection points: 2
#     Edge 162, Type (0, 0), BuildingBlock: XIVTED_clean_linker_0, # of connection points: 2
#     Edge 163, Type (0, 0), BuildingBlock: XIVTED_clean_linker_0, # of connection points: 2
#     Edge 164, Type (0, 0), BuildingBlock: XIVTED_clean_linker_0, # of connection points: 2
#     Edge 165, Type (0, 0), BuildingBlock: XIVTED_clean_linker_0, # of connection points: 2
#     Edge 166, Type (0, 0), BuildingBlock: XIVTED_clean_linker_0, # of connection points: 2
#     Edge 167, Type (0, 0), BuildingBlock: XIVTED_clean_linker_0, # of connection points: 2
#     Edge 168, Type (0, 0), BuildingBlock: XIVTED_clean_linker_0, # of connection points: 2
#     Edge 169, Type (0, 0), BuildingBlock: XIVTED_clean_linker_0, # of connection points: 2
#     Edge 170, Type (0, 0), BuildingBlock: XIVTED_clean_linker_0, # of connection points: 2
#     Edge 171, Type (0, 0), BuildingBlock: XIVTED_clean_linker_0, # of connection points: 2
#     Edge 172, Type (0, 0), BuildingBlock: XIVTED_clean_linker_0, # of connection points: 2
#     Edge 173, Type (0, 0), BuildingBlock: XIVTED_clean_linker_0, # of connection points: 2
#     Edge 174, Type (0, 0), BuildingBlock: XIVTED_clean_linker_0, # of connection points: 2
#     Edge 175, Type (0, 0), BuildingBlock: XIVTED_clean_linker_0, # of connection points: 2
#     Edge 176, Type (0, 0), BuildingBlock: XIVTED_clean_linker_0, # of connection points: 2
#     Edge 177, Type (0, 0), BuildingBlock: XIVTED_clean_linker_0, # of connection points: 2
#     Edge 178, Type (0, 0), BuildingBlock: XIVTED_clean_linker_0, # of connection points: 2
#     Edge 179, Type (0, 0), BuildingBlock: XIVTED_clean_linker_0, # of connection points: 2
#     Edge 180, Type (0, 0), BuildingBlock: XIVTED_clean_linker_0, # of connection points: 2
#     Edge 181, Type (0, 0), BuildingBlock: XIVTED_clean_linker_0, # of connection points: 2
#     Edge 182, Type (0, 0), BuildingBlock: XIVTED_clean_linker_0, # of connection points: 2
#     Edge 183, Type (0, 0), BuildingBlock: XIVTED_clean_linker_0, # of connection points: 2
#     Edge 184, Type (0, 0), BuildingBlock: XIVTED_clean_linker_0, # of connection points: 2
#     Edge 185, Type (0, 0), BuildingBlock: XIVTED_clean_linker_0, # of connection points: 2
#     Edge 186, Type (0, 0), BuildingBlock: XIVTED_clean_linker_0, # of connection points: 2
#     Edge 187, Type (0, 0), BuildingBlock: XIVTED_clean_linker_0, # of connection points: 2
#     Edge 188, Type (0, 0), BuildingBlock: XIVTED_clean_linker_0, # of connection points: 2
#     Edge 189, Type (0, 0), BuildingBlock: XIVTED_clean_linker_0, # of connection points: 2
#     Edge 190, Type (0, 0), BuildingBlock: XIVTED_clean_linker_0, # of connection points: 2
#     Edge 191, Type (0, 0), BuildingBlock: XIVTED_clean_linker_0, # of connection points: 2
#     Edge 192, Type (0, 0), BuildingBlock: XIVTED_clean_linker_0, # of connection points: 2
#     Edge 193, Type (0, 0), BuildingBlock: XIVTED_clean_linker_0, # of connection points: 2
#     Edge 194, Type (0, 0), BuildingBlock: XIVTED_clean_linker_0, # of connection points: 2
#     Edge 195, Type (0, 0), BuildingBlock: XIVTED_clean_linker_0, # of connection points: 2
#     Edge 196, Type (0, 0), BuildingBlock: XIVTED_clean_linker_0, # of connection points: 2
#     Edge 197, Type (0, 0), BuildingBlock: XIVTED_clean_linker_0, # of connection points: 2
#     Edge 198, Type (0, 0), BuildingBlock: XIVTED_clean_linker_0, # of connection points: 2
#     Edge 199, Type (0, 0), BuildingBlock: XIVTED_clean_linker_0, # of connection points: 2
#     Edge 200, Type (0, 0), BuildingBlock: XIVTED_clean_linker_0, # of connection points: 2
#     Edge 201, Type (0, 0), BuildingBlock: XIVTED_clean_linker_0, # of connection points: 2
#     Edge 202, Type (0, 0), BuildingBlock: XIVTED_clean_linker_0, # of connection points: 2
#     Edge 203, Type (0, 0), BuildingBlock: XIVTED_clean_linker_0, # of connection points: 2
#     Edge 204, Type (0, 0), BuildingBlock: XIVTED_clean_linker_0, # of connection points: 2
#     Edge 205, Type (0, 0), BuildingBlock: XIVTED_clean_linker_0, # of connection points: 2
#     Edge 206, Type (0, 0), BuildingBlock: XIVTED_clean_linker_0, # of connection points: 2
#     Edge 207, Type (0, 0), BuildingBlock: XIVTED_clean_linker_0, # of connection points: 2
#     Edge 208, Type (0, 0), BuildingBlock: XIVTED_clean_linker_0, # of connection points: 2
#     Edge 209, Type (0, 0), BuildingBlock: XIVTED_clean_linker_0, # of connection points: 2
#     Edge 210, Type (0, 0), BuildingBlock: XIVTED_clean_linker_0, # of connection points: 2
#     Edge 211, Type (0, 0), BuildingBlock: XIVTED_clean_linker_0, # of connection points: 2
#     Edge 212, Type (0, 0), BuildingBlock: XIVTED_clean_linker_0, # of connection points: 2
#     Edge 213, Type (0, 0), BuildingBlock: XIVTED_clean_linker_0, # of connection points: 2
#     Edge 214, Type (0, 0), BuildingBlock: XIVTED_clean_linker_0, # of connection points: 2
#     Edge 215, Type (0, 0), BuildingBlock: XIVTED_clean_linker_0, # of connection points: 2
#     Edge 216, Type (0, 0), BuildingBlock: XIVTED_clean_linker_0, # of connection points: 2
#     Edge 217, Type (0, 0), BuildingBlock: XIVTED_clean_linker_0, # of connection points: 2
#     Edge 218, Type (0, 0), BuildingBlock: XIVTED_clean_linker_0, # of connection points: 2
#     Edge 219, Type (0, 0), BuildingBlock: XIVTED_clean_linker_0, # of connection points: 2
#     Edge 220, Type (0, 0), BuildingBlock: XIVTED_clean_linker_0, # of connection points: 2
#     Edge 221, Type (0, 0), BuildingBlock: XIVTED_clean_linker_0, # of connection points: 2
#     Edge 222, Type (0, 0), BuildingBlock: XIVTED_clean_linker_0, # of connection points: 2
#     Edge 223, Type (0, 0), BuildingBlock: XIVTED_clean_linker_0, # of connection points: 2
#     Edge 224, Type (0, 0), BuildingBlock: XIVTED_clean_linker_0, # of connection points: 2
#     Edge 225, Type (0, 0), BuildingBlock: XIVTED_clean_linker_0, # of connection points: 2
#     Edge 226, Type (0, 0), BuildingBlock: XIVTED_clean_linker_0, # of connection points: 2
#     Edge 227, Type (0, 0), BuildingBlock: XIVTED_clean_linker_0, # of connection points: 2
#     Edge 228, Type (0, 0), BuildingBlock: XIVTED_clean_linker_0, # of connection points: 2
#     Edge 229, Type (0, 0), BuildingBlock: XIVTED_clean_linker_0, # of connection points: 2
#     Edge 230, Type (0, 0), BuildingBlock: XIVTED_clean_linker_0, # of connection points: 2
#     Edge 231, Type (0, 0), BuildingBlock: XIVTED_clean_linker_0, # of connection points: 2
#     Edge 232, Type (0, 0), BuildingBlock: XIVTED_clean_linker_0, # of connection points: 2
#     Edge 233, Type (0, 0), BuildingBlock: XIVTED_clean_linker_0, # of connection points: 2
#     Edge 234, Type (0, 0), BuildingBlock: XIVTED_clean_linker_0, # of connection points: 2
#     Edge 235, Type (0, 0), BuildingBlock: XIVTED_clean_linker_0, # of connection points: 2
#     Edge 236, Type (0, 0), BuildingBlock: XIVTED_clean_linker_0, # of connection points: 2
#     Edge 237, Type (0, 0), BuildingBlock: XIVTED_clean_linker_0, # of connection points: 2
#     Edge 238, Type (0, 0), BuildingBlock: XIVTED_clean_linker_0, # of connection points: 2
#     Edge 239, Type (0, 0), BuildingBlock: XIVTED_clean_linker_0, # of connection points: 2
#     Edge 240, Type (0, 0), BuildingBlock: XIVTED_clean_linker_0, # of connection points: 2
#     Edge 241, Type (0, 0), BuildingBlock: XIVTED_clean_linker_0, # of connection points: 2
#     Edge 242, Type (0, 0), BuildingBlock: XIVTED_clean_linker_0, # of connection points: 2
#     Edge 243, Type (0, 0), BuildingBlock: XIVTED_clean_linker_0, # of connection points: 2
#     Edge 244, Type (0, 0), BuildingBlock: XIVTED_clean_linker_0, # of connection points: 2
#     Edge 245, Type (0, 0), BuildingBlock: XIVTED_clean_linker_0, # of connection points: 2
#     Edge 246, Type (0, 0), BuildingBlock: XIVTED_clean_linker_0, # of connection points: 2
#     Edge 247, Type (0, 0), BuildingBlock: XIVTED_clean_linker_0, # of connection points: 2
#     Edge 248, Type (0, 0), BuildingBlock: XIVTED_clean_linker_0, # of connection points: 2
#     Edge 249, Type (0, 0), BuildingBlock: XIVTED_clean_linker_0, # of connection points: 2
#     Edge 250, Type (0, 0), BuildingBlock: XIVTED_clean_linker_0, # of connection points: 2
#     Edge 251, Type (0, 0), BuildingBlock: XIVTED_clean_linker_0, # of connection points: 2
#     Edge 252, Type (0, 0), BuildingBlock: XIVTED_clean_linker_0, # of connection points: 2
#     Edge 253, Type (0, 0), BuildingBlock: XIVTED_clean_linker_0, # of connection points: 2
#     Edge 254, Type (0, 0), BuildingBlock: XIVTED_clean_linker_0, # of connection points: 2
#     Edge 255, Type (0, 0), BuildingBlock: XIVTED_clean_linker_0, # of connection points: 2
#     Edge 256, Type (0, 0), BuildingBlock: XIVTED_clean_linker_0, # of connection points: 2
#     Edge 257, Type (0, 0), BuildingBlock: XIVTED_clean_linker_0, # of connection points: 2
#     Edge 258, Type (0, 0), BuildingBlock: XIVTED_clean_linker_0, # of connection points: 2
#     Edge 259, Type (0, 0), BuildingBlock: XIVTED_clean_linker_0, # of connection points: 2
#     Edge 260, Type (0, 0), BuildingBlock: XIVTED_clean_linker_0, # of connection points: 2
#     Edge 261, Type (0, 0), BuildingBlock: XIVTED_clean_linker_0, # of connection points: 2
#     Edge 262, Type (0, 0), BuildingBlock: XIVTED_clean_linker_0, # of connection points: 2
#     Edge 263, Type (0, 0), BuildingBlock: XIVTED_clean_linker_0, # of connection points: 2
#     Edge 264, Type (0, 0), BuildingBlock: XIVTED_clean_linker_0, # of connection points: 2
#     Edge 265, Type (0, 0), BuildingBlock: XIVTED_clean_linker_0, # of connection points: 2
#     Edge 266, Type (0, 0), BuildingBlock: XIVTED_clean_linker_0, # of connection points: 2
#     Edge 267, Type (0, 0), BuildingBlock: XIVTED_clean_linker_0, # of connection points: 2
#     Edge 268, Type (0, 0), BuildingBlock: XIVTED_clean_linker_0, # of connection points: 2
#     Edge 269, Type (0, 0), BuildingBlock: XIVTED_clean_linker_0, # of connection points: 2
#     Edge 270, Type (0, 0), BuildingBlock: XIVTED_clean_linker_0, # of connection points: 2
#     Edge 271, Type (0, 0), BuildingBlock: XIVTED_clean_linker_0, # of connection points: 2
#     Edge 272, Type (0, 0), BuildingBlock: XIVTED_clean_linker_0, # of connection points: 2
#     Edge 273, Type (0, 0), BuildingBlock: XIVTED_clean_linker_0, # of connection points: 2
#     Edge 274, Type (0, 0), BuildingBlock: XIVTED_clean_linker_0, # of connection points: 2
#     Edge 275, Type (0, 0), BuildingBlock: XIVTED_clean_linker_0, # of connection points: 2
#     Edge 276, Type (0, 0), BuildingBlock: XIVTED_clean_linker_0, # of connection points: 2
#     Edge 277, Type (0, 0), BuildingBlock: XIVTED_clean_linker_0, # of connection points: 2
#     Edge 278, Type (0, 0), BuildingBlock: XIVTED_clean_linker_0, # of connection points: 2
#     Edge 279, Type (0, 0), BuildingBlock: XIVTED_clean_linker_0, # of connection points: 2
#     Edge 280, Type (0, 0), BuildingBlock: XIVTED_clean_linker_0, # of connection points: 2
#     Edge 281, Type (0, 0), BuildingBlock: XIVTED_clean_linker_0, # of connection points: 2
#     Edge 282, Type (0, 0), BuildingBlock: XIVTED_clean_linker_0, # of connection points: 2
#     Edge 283, Type (0, 0), BuildingBlock: XIVTED_clean_linker_0, # of connection points: 2
#     Edge 284, Type (0, 0), BuildingBlock: XIVTED_clean_linker_0, # of connection points: 2
#     Edge 285, Type (0, 0), BuildingBlock: XIVTED_clean_linker_0, # of connection points: 2
#     Edge 286, Type (0, 0), BuildingBlock: XIVTED_clean_linker_0, # of connection points: 2
#     Edge 287, Type (0, 0), BuildingBlock: XIVTED_clean_linker_0, # of connection points: 2
# Relax obj value: 0.105
# Max RMSD: 0.079
# Mean RMSD: 0.079
data_MOF--net-ukx--node1-QUQFOY_clean_sbu_1--edge1-XIVTED_clean_linker_0
_symmetry_space_group_name_H-M    P1
_symmetry_Int_Tables_number       1
_symmetry_cell_setting            triclinic
loop_
_symmetry_equiv_pos_as_xyz
'x, y, z'
_cell_length_a     84.549497
_cell_length_b     84.55875
_cell_length_c     84.63138
_cell_angle_alpha  90.094468
_cell_angle_beta   89.999323
_cell_angle_gamma 90.033721
loop_
_atom_site_label
_atom_site_type_symbol
_atom_site_fract_x
_atom_site_fract_y
_atom_site_fract_z
_atom_type_partial_charge
O0 O 0.06867 0.16515 0.34992 0.0
Cd1 Cd 0.06082 0.1422 0.34879 0.0
Cd2 Cd 0.04132 0.15498 0.32603 0.0
O3 O 0.05469 0.1752 0.33028 0.0
O4 O 0.07703 0.12989 0.3606 0.0
O5 O 0.07335 0.12737 0.33483 0.0
C6 C 0.08128 0.12371 0.34735 0.0
C7 C 0.03339 0.14679 0.30073 0.0
C8 C 0.06489 0.1768 0.34126 0.0
C9 C 0.02634 0.14293 0.35625 0.0
O10 O 0.02477 0.14995 0.34309 0.0
O11 O 0.03981 0.13798 0.36073 0.0
O12 O 0.02806 0.1596 0.30703 0.0
O13 O 0.04409 0.13905 0.30839 0.0
O14 O 0.08999 0.81775 0.60647 0.0
Cd15 Cd 0.11259 0.80893 0.60688 0.0
Cd16 Cd 0.0999 0.78869 0.58462 0.0
O17 O 0.08017 0.80325 0.58705 0.0
O18 O 0.12517 0.82549 0.61799 0.0
O19 O 0.12829 0.81991 0.59263 0.0
C20 C 0.13183 0.82862 0.60467 0.0
C21 C 0.10955 0.77953 0.56023 0.0
C22 C 0.0786 0.81413 0.59737 0.0
C23 C 0.11023 0.77499 0.61611 0.0
O24 O 0.1036 0.77296 0.60279 0.0
O25 O 0.11556 0.78849 0.62008 0.0
O26 O 0.09629 0.77461 0.5659 0.0
O27 O 0.11693 0.79049 0.56795 0.0
O28 O 0.44141 0.828 0.8413 0.0
Cd29 Cd 0.45388 0.84892 0.84229 0.0
Cd30 Cd 0.47008 0.83038 0.82048 0.0
O31 O 0.45075 0.81535 0.82053 0.0
O32 O 0.44114 0.859 0.8593 0.0
O33 O 0.44148 0.86835 0.83508 0.0
C34 C 0.43565 0.86884 0.84916 0.0
C35 C 0.48125 0.8423 0.79816 0.0
C36 C 0.44082 0.8164 0.83176 0.0
C37 C 0.48564 0.83712 0.8517 0.0
O38 O 0.48466 0.8279 0.83986 0.0
O39 O 0.47566 0.84822 0.8536 0.0
O40 O 0.4833 0.82745 0.80108 0.0
O41 O 0.47213 0.85024 0.80755 0.0
O42 O 0.41487 0.18658 0.10881 0.0
Cd43 Cd 0.39361 0.19764 0.10512 0.0
Cd44 Cd 0.4105 0.21212 0.08268 0.0
O45 O 0.42731 0.19474 0.08742 0.0
O46 O 0.37763 0.18363 0.11527 0.0
O47 O 0.3793 0.18693 0.08937 0.0
C48 C 0.37302 0.17972 0.10127 0.0
C49 C 0.40137 0.21911 0.05758 0.0
C50 C 0.42688 0.1862 0.0998 0.0
C51 C 0.39984 0.23156 0.11076 0.0
O52 O 0.40875 0.23046 0.09871 0.0
O53 O 0.39138 0.2199 0.11507 0.0
O54 O 0.41551 0.22262 0.06213 0.0
O55 O 0.3928 0.21053 0.06688 0.0
O56 O 0.06516 0.84144 0.15181 0.0
Cd57 Cd 0.05431 0.86297 0.15418 0.0
Cd58 Cd 0.03887 0.84695 0.17681 0.0
O59 O 0.05627 0.82974 0.17332 0.0
O60 O 0.06869 0.87777 0.14283 0.0
O61 O 0.06542 0.87822 0.16877 0.0
C62 C 0.07279 0.88333 0.15641 0.0
C63 C 0.03101 0.85761 0.20112 0.0
C64 C 0.06519 0.82972 0.16118 0.0
C65 C 0.02066 0.85645 0.14754 0.0
O66 O 0.02128 0.84803 0.15996 0.0
O67 O 0.03244 0.86482 0.1434 0.0
O68 O 0.02747 0.84328 0.1972 0.0
O69 O 0.0401 0.86551 0.19172 0.0
O70 O 0.42072 0.81377 0.41358 0.0
Cd71 Cd 0.39961 0.80165 0.41497 0.0
Cd72 Cd 0.41831 0.7882 0.43772 0.0
O73 O 0.43324 0.80743 0.4355 0.0
O74 O 0.38852 0.81297 0.39764 0.0
O75 O 0.381 0.81506 0.42244 0.0
C76 C 0.37965 0.81969 0.40798 0.0
C77 C 0.40708 0.77906 0.46123 0.0
C78 C 0.43228 0.81566 0.42298 0.0
C79 C 0.411 0.76924 0.4086 0.0
O80 O 0.42062 0.77176 0.41987 0.0
O81 O 0.39962 0.77873 0.40605 0.0
O82 O 0.42189 0.77693 0.45813 0.0
O83 O 0.3988 0.78721 0.45129 0.0
O84 O 0.43908 0.17371 0.65989 0.0
Cd85 Cd 0.44529 0.15056 0.65615 0.0
Cd86 Cd 0.46971 0.16185 0.67828 0.0
O87 O 0.45687 0.18277 0.67676 0.0
O88 O 0.4278 0.14527 0.64139 0.0
O89 O 0.43041 0.13343 0.66438 0.0
C90 C 0.42222 0.13565 0.65171 0.0
C91 C 0.48121 0.1535 0.70217 0.0
C92 C 0.44472 0.1849 0.66815 0.0
C93 C 0.47927 0.15038 0.6453 0.0
O94 O 0.48299 0.15611 0.65869 0.0
O95 O 0.46499 0.14696 0.64198 0.0
O96 O 0.48611 0.16592 0.69488 0.0
O97 O 0.46916 0.14612 0.69631 0.0
O98 O 0.08743 0.18846 0.9036 0.0
Cd99 Cd 0.10804 0.20091 0.90719 0.0
Cd100 Cd 0.08924 0.21435 0.92775 0.0
O101 O 0.07508 0.19437 0.92574 0.0
O102 O 0.12393 0.18784 0.89566 0.0
O103 O 0.12356 0.19006 0.92169 0.0
C104 C 0.12929 0.18341 0.90919 0.0
C105 C 0.10019 0.22499 0.95086 0.0
C106 C 0.07595 0.1863 0.91305 0.0
C107 C 0.09679 0.23217 0.89813 0.0
O108 O 0.08681 0.22985 0.90912 0.0
O109 O 0.10868 0.22306 0.89666 0.0
O110 O 0.0853 0.22644 0.94775 0.0
O111 O 0.10869 0.21662 0.94127 0.0
O112 O 0.34833 0.02633 0.16468 0.0
Cd113 Cd 0.32944 0.04165 0.16353 0.0
Cd114 Cd 0.34882 0.05526 0.14396 0.0
O115 O 0.35922 0.03314 0.14204 0.0
O116 O 0.30984 0.02931 0.16848 0.0
O117 O 0.31484 0.03946 0.14489 0.0
C118 C 0.30587 0.03087 0.15382 0.0
C119 C 0.34536 0.07313 0.12327 0.0
C120 C 0.3586 0.02402 0.15396 0.0
C121 C 0.34494 0.06917 0.17667 0.0
O122 O 0.35377 0.06714 0.16468 0.0
O123 O 0.33214 0.06133 0.17793 0.0
O124 O 0.35925 0.0687 0.12769 0.0
O125 O 0.33327 0.06632 0.12967 0.0
O126 O 0.19029 0.10415 0.41681 0.0
Cd127 Cd 0.20423 0.10082 0.39713 0.0
Cd128 Cd 0.21562 0.07921 0.41607 0.0
O129 O 0.19502 0.08169 0.42907 0.0
O130 O 0.19229 0.11242 0.38046 0.0
O131 O 0.19456 0.08637 0.38085 0.0
C132 C 0.18817 0.09886 0.37482 0.0
C133 C 0.22496 0.05599 0.40433 0.0
C134 C 0.18717 0.09447 0.42785 0.0
C135 C 0.23536 0.1081 0.41039 0.0
O136 O 0.23207 0.09685 0.41979 0.0
O137 O 0.22679 0.11054 0.39827 0.0
O138 O 0.22619 0.05828 0.41939 0.0
O139 O 0.21763 0.06656 0.39609 0.0
O140 O 0.15818 0.9845 0.66753 0.0
Cd141 Cd 0.17689 0.969 0.66581 0.0
Cd142 Cd 0.15641 0.95458 0.64761 0.0
O143 O 0.14556 0.97657 0.64614 0.0
O144 O 0.19693 0.98131 0.66872 0.0
O145 O 0.19019 0.96992 0.64613 0.0
C146 C 0.19989 0.97882 0.65394 0.0
C147 C 0.1587 0.93636 0.62698 0.0
C148 C 0.14709 0.98626 0.65755 0.0
C149 C 0.16251 0.94146 0.68036 0.0
O150 O 0.15314 0.94283 0.66869 0.0
O151 O 0.17498 0.94988 0.68103 0.0
O152 O 0.14508 0.94071 0.63224 0.0
O153 O 0.17109 0.94346 0.63243 0.0
O154 O 0.31161 0.91142 0.91968 0.0
Cd155 Cd 0.30491 0.9074 0.89674 0.0
Cd156 Cd 0.281 0.93035 0.90851 0.0
O157 O 0.29406 0.92828 0.92924 0.0
O158 O 0.32132 0.89126 0.89195 0.0
O159 O 0.32035 0.91393 0.87931 0.0
C160 C 0.32759 0.90077 0.88193 0.0
C161 C 0.27022 0.95467 0.90034 0.0
C162 C 0.30621 0.91959 0.93104 0.0
C163 C 0.27047 0.89752 0.89753 0.0
O164 O 0.26711 0.91108 0.90309 0.0
O165 O 0.28461 0.89387 0.8939 0.0
O166 O 0.26519 0.94749 0.91278 0.0
O167 O 0.28196 0.94842 0.89283 0.0
O168 O 0.34251 0.98608 0.34646 0.0
Cd169 Cd 0.32371 0.9711 0.34256 0.0
Cd170 Cd 0.34764 0.94919 0.35409 0.0
O171 O 0.36071 0.96993 0.3561 0.0
O172 O 0.30564 0.98597 0.33904 0.0
O173 O 0.30683 0.96987 0.35951 0.0
C174 C 0.2996 0.98113 0.35215 0.0
C175 C 0.35317 0.92735 0.37036 0.0
C176 C 0.35632 0.98369 0.35187 0.0
C177 C 0.33458 0.94569 0.3204 0.0
O178 O 0.34369 0.94135 0.33148 0.0
O179 O 0.32518 0.95729 0.32224 0.0
O180 O 0.36325 0.93279 0.36039 0.0
O181 O 0.34013 0.93507 0.37213 0.0
O182 O 0.31102 0.09639 0.58306 0.0
Cd183 Cd 0.29743 0.09545 0.60325 0.0
Cd184 Cd 0.28398 0.07372 0.58401 0.0
O185 O 0.30414 0.07487 0.57009 0.0
O186 O 0.30875 0.11205 0.61544 0.0
O187 O 0.30915 0.08703 0.62253 0.0
C188 C 0.3143 0.10126 0.62454 0.0
C189 C 0.27389 0.05136 0.59676 0.0
C190 C 0.31306 0.0869 0.5716 0.0
C191 C 0.2661 0.10363 0.59007 0.0
O192 O 0.26844 0.0922 0.58058 0.0
O193 O 0.27515 0.10564 0.6019 0.0
O194 O 0.27213 0.05336 0.58172 0.0
O195 O 0.2822 0.0617 0.60442 0.0
O196 O 0.15377 0.0285 0.84024 0.0
Cd197 Cd 0.17251 0.04383 0.84276 0.0
Cd198 Cd 0.15095 0.05924 0.85931 0.0
O199 O 0.1392 0.0376 0.85985 0.0
O200 O 0.19212 0.0312 0.83874 0.0
O201 O 0.18645 0.04183 0.86197 0.0
C202 C 0.19569 0.0331 0.85345 0.0
C203 C 0.15302 0.07681 0.88051 0.0
C204 C 0.14164 0.02743 0.84903 0.0
C205 C 0.15945 0.07159 0.82693 0.0
O206 O 0.14941 0.07114 0.8381 0.0
O207 O 0.1715 0.06258 0.82719 0.0
O208 O 0.13952 0.0733 0.87439 0.0
O209 O 0.16536 0.06936 0.87543 0.0
O210 O 0.19226 0.90469 0.09104 0.0
Cd211 Cd 0.20102 0.90432 0.11361 0.0
Cd212 Cd 0.22258 0.92531 0.10035 0.0
O213 O 0.20817 0.92257 0.08055 0.0
O214 O 0.1843 0.89298 0.12572 0.0
O215 O 0.18983 0.91825 0.12955 0.0
C216 C 0.18111 0.90613 0.1327 0.0
C217 C 0.23263 0.94998 0.10855 0.0
C218 C 0.19665 0.91292 0.0793 0.0
C219 C 0.23458 0.89333 0.11122 0.0
O220 O 0.23748 0.90652 0.10465 0.0
O221 O 0.22083 0.89019 0.11643 0.0
O222 O 0.23725 0.94333 0.09563 0.0
O223 O 0.22164 0.94298 0.11653 0.0
O224 O 0.16665 0.35012 0.06308 0.0
Cd225 Cd 0.14444 0.35002 0.05337 0.0
Cd226 Cd 0.15863 0.32855 0.03327 0.0
O227 O 0.17774 0.33133 0.04868 0.0
O228 O 0.13145 0.36137 0.0694 0.0
O229 O 0.12847 0.3359 0.06419 0.0
C230 C 0.12474 0.34809 0.07262 0.0
C231 C 0.1496 0.304 0.0237 0.0
C232 C 0.1785 0.3415 0.05979 0.0
C233 C 0.14812 0.36004 0.01977 0.0
O234 O 0.15522 0.34695 0.01769 0.0
O235 O 0.14203 0.36346 0.03308 0.0
O236 O 0.16302 0.30982 0.01938 0.0
O237 O 0.14164 0.31169 0.03425 0.0
O238 O 0.66304 0.15736 0.93942 0.0
Cd239 Cd 0.64053 0.15868 0.9484 0.0
Cd240 Cd 0.65461 0.18161 0.9669 0.0
O241 O 0.67389 0.17751 0.95209 0.0
O242 O 0.62741 0.14699 0.93272 0.0
O243 O 0.62551 0.17284 0.93645 0.0
C244 C 0.62143 0.16037 0.92859 0.0
C245 C 0.64608 0.20669 0.97524 0.0
C246 C 0.67483 0.16628 0.94206 0.0
C247 C 0.64291 0.15165 0.98277 0.0
O248 O 0.6505 0.16459 0.98373 0.0
O249 O 0.63698 0.14715 0.96971 0.0
O250 O 0.65942 0.2009 0.97979 0.0
O251 O 0.63804 0.19872 0.96494 0.0
O252 O 0.10312 0.41597 0.22676 0.0
Cd253 Cd 0.08443 0.41384 0.21126 0.0
Cd254 Cd 0.10547 0.39666 0.19638 0.0
O255 O 0.11696 0.39567 0.21803 0.0
O256 O 0.06456 0.41785 0.22349 0.0
O257 O 0.07041 0.39466 0.21284 0.0
C258 C 0.06097 0.40316 0.22135 0.0
C259 C 0.10208 0.37543 0.17912 0.0
C260 C 0.11487 0.40669 0.22806 0.0
C261 C 0.09806 0.429 0.18342 0.0
O262 O 0.10794 0.4177 0.1843 0.0
O263 O 0.08585 0.42904 0.19222 0.0
O264 O 0.11595 0.38083 0.18243 0.0
O265 O 0.09011 0.38125 0.18662 0.0
O266 O 0.8357 0.84387 0.43892 0.0
Cd267 Cd 0.85833 0.84711 0.44697 0.0
Cd268 Cd 0.84626 0.82204 0.46735 0.0
O269 O 0.82614 0.82446 0.45354 0.0
O270 O 0.86461 0.86393 0.43184 0.0
O271 O 0.87613 0.84061 0.43204 0.0
C272 C 0.87438 0.85423 0.42542 0.0
C273 C 0.85515 0.79725 0.47605 0.0
C274 C 0.8245 0.83459 0.44257 0.0
C275 C 0.8559 0.85372 0.4819 0.0
O276 O 0.85022 0.83988 0.48343 0.0
O277 O 0.86038 0.85882 0.46849 0.0
O278 O 0.84209 0.80326 0.48105 0.0
O279 O 0.8629 0.80495 0.46539 0.0
O280 O 0.92009 0.08161 0.23032 0.0
Cd281 Cd 0.93781 0.08471 0.21388 0.0
Cd282 Cd 0.91565 0.1042 0.20139 0.0
O283 O 0.90653 0.10301 0.22416 0.0
O284 O 0.95852 0.08141 0.22473 0.0
O285 O 0.95069 0.10461 0.21544 0.0
C286 C 0.96104 0.0964 0.22313 0.0
C287 C 0.90961 0.12564 0.18486 0.0
C288 C 0.90893 0.09126 0.23321 0.0
C289 C 0.92335 0.07251 0.18536 0.0
O290 O 0.914 0.08402 0.18776 0.0
O291 O 0.93565 0.0709 0.19383 0.0
O292 O 0.89886 0.11665 0.19071 0.0
O293 O 0.92397 0.12345 0.18954 0.0
O294 O 0.34222 0.65169 0.56689 0.0
Cd295 Cd 0.36361 0.65521 0.55606 0.0
Cd296 Cd 0.34672 0.67803 0.54167 0.0
O297 O 0.32972 0.67312 0.55888 0.0
O298 O 0.37894 0.64401 0.56998 0.0
O299 O 0.37821 0.67007 0.56763 0.0
C300 C 0.38387 0.6577 0.57456 0.0
C301 C 0.35604 0.70315 0.53479 0.0
C302 C 0.33019 0.66067 0.56733 0.0
C303 C 0.35743 0.65003 0.52208 0.0
O304 O 0.34856 0.6621 0.5233 0.0
O305 O 0.36584 0.64554 0.53368 0.0
O306 O 0.3419 0.69865 0.53119 0.0
O307 O 0.36449 0.69381 0.54345 0.0
O308 O 0.0928 0.59553 0.26572 0.0
Cd309 Cd 0.07441 0.59138 0.28112 0.0
Cd310 Cd 0.0984 0.60368 0.30256 0.0
O311 O 0.11085 0.60601 0.28153 0.0
O312 O 0.05589 0.58771 0.26688 0.0
O313 O 0.05747 0.60815 0.28308 0.0
C314 C 0.0499 0.60073 0.27206 0.0
C315 C 0.10475 0.61979 0.32434 0.0
C316 C 0.10644 0.60147 0.26788 0.0
C317 C 0.08612 0.56967 0.30638 0.0
O318 O 0.09508 0.58099 0.31047 0.0
O319 O 0.07647 0.5712 0.29495 0.0
O320 O 0.11468 0.61003 0.31827 0.0
O321 O 0.09133 0.62146 0.31727 0.0
O322 O 0.4201 0.40613 0.76946 0.0
Cd323 Cd 0.43722 0.41053 0.78618 0.0
Cd324 Cd 0.41317 0.39641 0.8054 0.0
O325 O 0.40217 0.39352 0.7837 0.0
O326 O 0.4565 0.41523 0.77334 0.0
O327 O 0.45441 0.39412 0.78856 0.0
C328 C 0.46241 0.40209 0.77828 0.0
C329 C 0.40766 0.37876 0.82606 0.0
C330 C 0.40693 0.39898 0.77054 0.0
C331 C 0.42273 0.43086 0.81119 0.0
O332 O 0.41396 0.41905 0.81415 0.0
O333 O 0.43344 0.43004 0.80065 0.0
O334 O 0.39696 0.38759 0.81989 0.0
O335 O 0.42156 0.37903 0.81976 0.0
O336 O 0.93664 0.83948 0.65422 0.0
Cd337 Cd 0.9492 0.85996 0.6583 0.0
Cd338 Cd 0.961 0.8414 0.6798 0.0
O339 O 0.94092 0.82766 0.67699 0.0
O340 O 0.9367 0.87619 0.64665 0.0
O341 O 0.938 0.87524 0.67274 0.0
C342 C 0.93176 0.88122 0.66016 0.0
C343 C 0.97014 0.8531 0.70309 0.0
C344 C 0.9336 0.82837 0.66386 0.0
C345 C 0.98099 0.84836 0.65154 0.0
O346 O 0.97768 0.83842 0.6623 0.0
O347 O 0.97213 0.86033 0.64936 0.0
O348 O 0.97171 0.83809 0.70063 0.0
O349 O 0.96246 0.86127 0.69271 0.0
O350 O 0.92389 0.18861 0.40035 0.0
Cd351 Cd 0.90397 0.2024 0.4028 0.0
Cd352 Cd 0.92277 0.21579 0.42347 0.0
O353 O 0.93629 0.19537 0.42223 0.0
O354 O 0.88742 0.18965 0.39184 0.0
O355 O 0.88774 0.19338 0.41771 0.0
C356 C 0.88173 0.18632 0.40556 0.0
C357 C 0.9107 0.22626 0.44603 0.0
C358 C 0.93513 0.18653 0.4101 0.0
C359 C 0.91656 0.23331 0.39338 0.0
O360 O 0.92603 0.23116 0.40485 0.0
O361 O 0.90472 0.22419 0.39154 0.0
O362 O 0.92574 0.22774 0.44372 0.0
O363 O 0.90269 0.21805 0.4359 0.0
O364 O 0.56652 0.16999 0.15895 0.0
Cd365 Cd 0.5576 0.14743 0.16008 0.0
Cd366 Cd 0.53972 0.16112 0.18383 0.0
O367 O 0.55423 0.18057 0.17947 0.0
O368 O 0.57286 0.13452 0.1476 0.0
O369 O 0.57004 0.1321 0.17348 0.0
C370 C 0.57742 0.12822 0.16069 0.0
C371 C 0.53221 0.15232 0.20904 0.0
C372 C 0.56398 0.18168 0.16804 0.0
C373 C 0.5229 0.1499 0.1542 0.0
O374 O 0.52233 0.15717 0.16732 0.0
O375 O 0.53585 0.14413 0.14916 0.0
O376 O 0.52743 0.16569 0.20353 0.0
O377 O 0.54228 0.1444 0.2007 0.0
O378 O 0.58695 0.81148 0.91069 0.0
Cd379 Cd 0.61008 0.80443 0.90871 0.0
Cd380 Cd 0.59767 0.78272 0.9322 0.0
O381 O 0.57699 0.79552 0.92878 0.0
O382 O 0.61688 0.82051 0.89301 0.0
O383 O 0.62709 0.81947 0.91691 0.0
C384 C 0.62598 0.82666 0.90352 0.0
C385 C 0.60547 0.77402 0.95738 0.0
C386 C 0.57537 0.8068 0.91898 0.0
C387 C 0.60971 0.76967 0.90077 0.0
O388 O 0.60349 0.76733 0.91425 0.0
O389 O 0.61368 0.7835 0.89638 0.0
O390 O 0.59313 0.7684 0.95044 0.0
O391 O 0.6131 0.78523 0.95034 0.0
O392 O 0.93705 0.1625 0.85853 0.0
Cd393 Cd 0.94685 0.14067 0.85479 0.0
Cd394 Cd 0.9616 0.15682 0.83179 0.0
O395 O 0.94497 0.17434 0.83672 0.0
O396 O 0.93248 0.12585 0.86613 0.0
O397 O 0.93457 0.12647 0.84006 0.0
C398 C 0.92762 0.12101 0.85252 0.0
C399 C 0.96843 0.14789 0.80651 0.0
C400 C 0.9369 0.17444 0.84944 0.0
C401 C 0.98095 0.14591 0.85988 0.0
O402 O 0.97995 0.15467 0.84772 0.0
O403 O 0.96916 0.13776 0.86441 0.0
O404 O 0.97231 0.16184 0.81134 0.0
O405 O 0.95959 0.13939 0.81564 0.0
O406 O 0.57962 0.18677 0.59102 0.0
Cd407 Cd 0.60111 0.19834 0.59021 0.0
Cd408 Cd 0.58267 0.2135 0.56805 0.0
O409 O 0.56714 0.19471 0.56961 0.0
O410 O 0.61181 0.18587 0.607 0.0
O411 O 0.61958 0.18502 0.58221 0.0
C412 C 0.62073 0.17962 0.59641 0.0
C413 C 0.59358 0.22344 0.54473 0.0
C414 C 0.56791 0.18579 0.58165 0.0
C415 C 0.59099 0.23103 0.59776 0.0
O416 O 0.58119 0.22933 0.5865 0.0
O417 O 0.60192 0.22093 0.59996 0.0
O418 O 0.5789 0.22574 0.54825 0.0
O419 O 0.60189 0.21466 0.55409 0.0
O420 O 0.56387 0.83061 0.34688 0.0
Cd421 Cd 0.55571 0.85329 0.34978 0.0
Cd422 Cd 0.53347 0.84029 0.32741 0.0
O423 O 0.54758 0.82022 0.32929 0.0
O424 O 0.57183 0.86038 0.36528 0.0
O425 O 0.56976 0.87118 0.34173 0.0
C426 C 0.57727 0.87009 0.35496 0.0
C427 C 0.52392 0.84987 0.3032 0.0
C428 C 0.55945 0.819 0.33846 0.0
C429 C 0.5215 0.85101 0.35959 0.0
O430 O 0.51868 0.84467 0.34625 0.0
O431 O 0.53533 0.85576 0.36314 0.0
O432 O 0.5188 0.83681 0.30917 0.0
O433 O 0.53516 0.85715 0.31058 0.0
O434 O 0.91741 0.81429 0.09565 0.0
Cd435 Cd 0.89621 0.8029 0.09139 0.0
Cd436 Cd 0.91584 0.79007 0.07064 0.0
O437 O 0.93057 0.80933 0.07378 0.0
O438 O 0.88289 0.81444 0.10691 0.0
O439 O 0.87927 0.81663 0.08124 0.0
C440 C 0.87581 0.82127 0.09535 0.0
C441 C 0.90437 0.78137 0.04715 0.0
C442 C 0.92933 0.8167 0.08683 0.0
C443 C 0.90625 0.77059 0.09832 0.0
O444 O 0.91718 0.77353 0.08844 0.0
O445 O 0.89447 0.77985 0.09957 0.0
O446 O 0.91918 0.77896 0.05007 0.0
O447 O 0.89632 0.78968 0.05718 0.0
O448 O 0.6645 0.94176 0.83485 0.0
Cd449 Cd 0.66597 0.9536 0.85618 0.0
Cd450 Cd 0.68784 0.96789 0.83769 0.0
O451 O 0.68639 0.94866 0.82257 0.0
O452 O 0.64919 0.94165 0.86748 0.0
O453 O 0.67423 0.94026 0.87445 0.0
C454 C 0.65992 0.93522 0.87609 0.0
C455 C 0.71047 0.97764 0.85019 0.0
C456 C 0.674 0.94016 0.82333 0.0
C457 C 0.65855 0.98593 0.84561 0.0
O458 O 0.66944 0.9837 0.8355 0.0
O459 O 0.65667 0.97633 0.857 0.0
O460 O 0.708 0.98 0.83531 0.0
O461 O 0.70051 0.96883 0.85777 0.0
O462 O 0.81777 0.89942 0.58876 0.0
Cd463 Cd 0.80681 0.902 0.6102 0.0
Cd464 Cd 0.79136 0.92463 0.59396 0.0
O465 O 0.80866 0.9207 0.57678 0.0
O466 O 0.82119 0.89114 0.62537 0.0
O467 O 0.81764 0.91708 0.62518 0.0
C468 C 0.82508 0.90492 0.63065 0.0
C469 C 0.78373 0.94937 0.60382 0.0
C470 C 0.81768 0.90863 0.57691 0.0
C471 C 0.77299 0.89551 0.60387 0.0
O472 O 0.7736 0.90796 0.59547 0.0
O473 O 0.78485 0.89126 0.61206 0.0
O474 O 0.78011 0.94499 0.58966 0.0
O475 O 0.79274 0.94014 0.61201 0.0
O476 O 0.85706 0.06761 0.34101 0.0
Cd477 Cd 0.85695 0.05937 0.36378 0.0
Cd478 Cd 0.83564 0.03829 0.35103 0.0
O479 O 0.83865 0.05205 0.33087 0.0
O480 O 0.86804 0.07624 0.37595 0.0
O481 O 0.84262 0.07087 0.3791 0.0
C482 C 0.8547 0.0796 0.38248 0.0
C483 C 0.81092 0.02919 0.35988 0.0
C484 C 0.84868 0.0632 0.32936 0.0
C485 C 0.86717 0.02561 0.36231 0.0
O486 O 0.85397 0.02297 0.35563 0.0
O487 O 0.87065 0.03937 0.36731 0.0
O488 O 0.81717 0.02401 0.34698 0.0
O489 O 0.81831 0.04028 0.36739 0.0
O490 O 0.68587 0.10617 0.08609 0.0
Cd491 Cd 0.69918 0.10356 0.10633 0.0
Cd492 Cd 0.71255 0.08271 0.0877 0.0
O493 O 0.69234 0.08404 0.07396 0.0
O494 O 0.68647 0.11515 0.12247 0.0
O495 O 0.68941 0.08917 0.12262 0.0
C496 C 0.68269 0.10163 0.12837 0.0
C497 C 0.7231 0.05996 0.09926 0.0
C498 C 0.6838 0.09639 0.07485 0.0
C499 C 0.7303 0.11265 0.09416 0.0
O500 O 0.72802 0.10131 0.08454 0.0
O501 O 0.72121 0.11444 0.10601 0.0
O502 O 0.72448 0.06255 0.08428 0.0
O503 O 0.71491 0.06991 0.10753 0.0
O504 O 0.66554 0.06537 0.67124 0.0
Cd505 Cd 0.66334 0.05413 0.64967 0.0
Cd506 Cd 0.68719 0.03706 0.66545 0.0
O507 O 0.68714 0.05522 0.68176 0.0
O508 O 0.64589 0.06744 0.64126 0.0
O509 O 0.66955 0.06737 0.63047 0.0
C510 C 0.65551 0.07333 0.63111 0.0
C511 C 0.7101 0.02653 0.65387 0.0
C512 C 0.67581 0.06509 0.68219 0.0
C513 C 0.65575 0.02117 0.65964 0.0
O514 O 0.66839 0.02175 0.66775 0.0
O515 O 0.65246 0.03202 0.64977 0.0
O516 O 0.70668 0.02399 0.66851 0.0
O517 O 0.70083 0.03572 0.64592 0.0
O518 O 0.69194 0.91267 0.42367 0.0
Cd519 Cd 0.7036 0.91175 0.40226 0.0
Cd520 Cd 0.72078 0.93373 0.41944 0.0
O521 O 0.70242 0.93343 0.43551 0.0
O522 O 0.69045 0.89502 0.39234 0.0
O523 O 0.69089 0.91934 0.3832 0.0
C524 C 0.68496 0.9053 0.38265 0.0
C525 C 0.73172 0.95647 0.40809 0.0
C526 C 0.69232 0.92229 0.43521 0.0
C527 C 0.73579 0.90225 0.41265 0.0
O528 O 0.73549 0.91447 0.4214 0.0
O529 O 0.72517 0.90003 0.40224 0.0
O530 O 0.73414 0.95298 0.42274 0.0
O531 O 0.7224 0.9474 0.40003 0.0
O532 O 0.84591 0.9471 0.16718 0.0
Cd533 Cd 0.84862 0.95339 0.14393 0.0
Cd534 Cd 0.82728 0.97746 0.15566 0.0
O535 O 0.82977 0.96524 0.17682 0.0
O536 O 0.86304 0.93583 0.13793 0.0
O537 O 0.83961 0.93869 0.12699 0.0
C538 C 0.85231 0.93042 0.12865 0.0
C539 C 0.80282 0.98751 0.14703 0.0
C540 C 0.83835 0.95302 0.17869 0.0
C541 C 0.85979 0.98726 0.1436 0.0
O542 O 0.84649 0.99107 0.14949 0.0
O543 O 0.86292 0.97296 0.14011 0.0
O544 O 0.80998 0.99325 0.15919 0.0
O545 O 0.80919 0.97547 0.14008 0.0
O546 O 0.81456 0.10308 0.91992 0.0
Cd547 Cd 0.8022 0.09924 0.89929 0.0
Cd548 Cd 0.78969 0.07781 0.91772 0.0
O549 O 0.80921 0.0808 0.93227 0.0
O550 O 0.81525 0.11059 0.88326 0.0
O551 O 0.81306 0.08455 0.88398 0.0
C552 C 0.81976 0.09696 0.87812 0.0
C553 C 0.78117 0.05439 0.90567 0.0
C554 C 0.8169 0.09372 0.93142 0.0
C555 C 0.77025 0.1065 0.9103 0.0
O556 O 0.77299 0.0954 0.92003 0.0
O557 O 0.77955 0.10883 0.8987 0.0
O558 O 0.77885 0.05692 0.92056 0.0
O559 O 0.78918 0.0648 0.89785 0.0
O560 O 0.83278 0.6577 0.9382 0.0
Cd561 Cd 0.85524 0.65492 0.94691 0.0
Cd562 Cd 0.84296 0.67944 0.9668 0.0
O563 O 0.8231 0.67737 0.95243 0.0
O564 O 0.86303 0.63921 0.93127 0.0
O565 O 0.8732 0.66313 0.93314 0.0
C566 C 0.87246 0.64978 0.92575 0.0
C567 C 0.85303 0.70396 0.97512 0.0
C568 C 0.82159 0.66713 0.94149 0.0
C569 C 0.85209 0.64781 0.98154 0.0
O570 O 0.84625 0.66158 0.983 0.0
O571 O 0.85702 0.64286 0.96821 0.0
O572 O 0.83967 0.69867 0.9802 0.0
O573 O 0.86037 0.69569 0.96457 0.0
O574 O 0.33133 0.8424 0.06448 0.0
Cd575 Cd 0.35175 0.84358 0.05135 0.0
Cd576 Cd 0.33322 0.82138 0.03598 0.0
O577 O 0.31868 0.82136 0.05572 0.0
O578 O 0.3622 0.86032 0.06415 0.0
O579 O 0.37139 0.83602 0.06315 0.0
C580 C 0.37196 0.84994 0.06939 0.0
C581 C 0.3456 0.79918 0.02494 0.0
C582 C 0.31993 0.83268 0.06554 0.0
C583 C 0.3387 0.85282 0.02012 0.0
O584 O 0.32999 0.84061 0.02134 0.0
O585 O 0.35002 0.85514 0.02977 0.0
O586 O 0.33064 0.80168 0.02306 0.0
O587 O 0.35341 0.80896 0.03378 0.0
O588 O 0.91005 0.5831 0.81323 0.0
Cd589 Cd 0.91144 0.60336 0.79983 0.0
Cd590 Cd 0.9341 0.58477 0.78761 0.0
O591 O 0.93226 0.57075 0.80757 0.0
O592 O 0.89485 0.61567 0.81101 0.0
O593 O 0.92001 0.62232 0.81194 0.0
C594 C 0.90577 0.62437 0.81703 0.0
C595 C 0.95672 0.59813 0.77914 0.0
C596 C 0.91975 0.57195 0.81583 0.0
C597 C 0.90508 0.59033 0.76807 0.0
O598 O 0.9166 0.58113 0.77099 0.0
O599 O 0.90223 0.60203 0.7771 0.0
O600 O 0.95512 0.58308 0.77695 0.0
O601 O 0.94576 0.60545 0.78693 0.0
O602 O 0.16392 0.16017 0.56015 0.0
Cd603 Cd 0.1411 0.15888 0.55198 0.0
Cd604 Cd 0.15417 0.18227 0.53192 0.0
O605 O 0.17438 0.17905 0.54549 0.0
O606 O 0.13271 0.14362 0.5677 0.0
O607 O 0.1238 0.16804 0.566 0.0
C608 C 0.12387 0.15465 0.5733 0.0
C609 C 0.14502 0.20723 0.52413 0.0
C610 C 0.17561 0.16878 0.55638 0.0
C611 C 0.1431 0.15124 0.51743 0.0
O612 O 0.14963 0.16467 0.51573 0.0
O613 O 0.13817 0.14673 0.53089 0.0
O614 O 0.15797 0.20139 0.5186 0.0
O615 O 0.13762 0.19924 0.53484 0.0
O616 O 0.09147 0.9244 0.81573 0.0
Cd617 Cd 0.09554 0.90188 0.80765 0.0
Cd618 Cd 0.07142 0.91345 0.78606 0.0
O619 O 0.07266 0.9336 0.80014 0.0
O620 O 0.11122 0.89561 0.82397 0.0
O621 O 0.08816 0.8837 0.82164 0.0
C622 C 0.10117 0.88557 0.82939 0.0
C623 C 0.04726 0.90353 0.77649 0.0
C624 C 0.08216 0.93542 0.81167 0.0
C625 C 0.104 0.90442 0.77315 0.0
O626 O 0.09017 0.90986 0.7709 0.0
O627 O 0.10846 0.90004 0.78683 0.0
O628 O 0.05305 0.91671 0.77151 0.0
O629 O 0.05482 0.89625 0.78757 0.0
O630 O 0.65958 0.35332 0.44023 0.0
Cd631 Cd 0.63718 0.35164 0.44939 0.0
Cd632 Cd 0.65128 0.32879 0.46735 0.0
O633 O 0.6707 0.33343 0.45296 0.0
O634 O 0.62376 0.36334 0.43403 0.0
O635 O 0.62209 0.33745 0.43751 0.0
C636 C 0.61779 0.34995 0.42987 0.0
C637 C 0.64293 0.30332 0.47442 0.0
C638 C 0.67153 0.34466 0.44299 0.0
C639 C 0.63974 0.35843 0.48382 0.0
O640 O 0.6471 0.34537 0.48466 0.0
O641 O 0.6339 0.3631 0.4708 0.0
O642 O 0.6561 0.3091 0.47949 0.0
O643 O 0.6349 0.31163 0.46444 0.0
O644 O 0.90949 0.42168 0.68915 0.0
Cd645 Cd 0.91097 0.40138 0.70248 0.0
Cd646 Cd 0.93308 0.4203 0.71525 0.0
O647 O 0.93159 0.43407 0.69515 0.0
O648 O 0.89471 0.38879 0.69109 0.0
O649 O 0.92 0.3826 0.69042 0.0
C650 C 0.90584 0.38026 0.68521 0.0
C651 C 0.95587 0.40784 0.72447 0.0
C652 C 0.91922 0.43286 0.6867 0.0
C653 C 0.90381 0.41417 0.73416 0.0
O654 O 0.91512 0.4237 0.73142 0.0
O655 O 0.90145 0.40239 0.72509 0.0
O656 O 0.95377 0.42287 0.72634 0.0
O657 O 0.94531 0.40002 0.71661 0.0
O658 O 0.60242 0.59035 0.19255 0.0
Cd659 Cd 0.6 0.61267 0.2018 0.0
Cd660 Cd 0.57748 0.5977 0.21969 0.0
O661 O 0.58256 0.57867 0.20488 0.0
O662 O 0.61098 0.62661 0.18638 0.0
O663 O 0.58507 0.62712 0.19012 0.0
C664 C 0.59731 0.63197 0.18235 0.0
C665 C 0.55193 0.60522 0.22743 0.0
C666 C 0.59394 0.5782 0.19502 0.0
C667 C 0.6067 0.61032 0.23622 0.0
O668 O 0.59401 0.60232 0.23692 0.0
O669 O 0.61119 0.61647 0.22327 0.0
O670 O 0.55811 0.59208 0.23204 0.0
O671 O 0.55983 0.61364 0.21742 0.0
O672 O 0.56926 0.66764 0.85003 0.0
Cd673 Cd 0.55668 0.64706 0.84651 0.0
Cd674 Cd 0.54398 0.66561 0.82518 0.0
O675 O 0.56381 0.67982 0.8277 0.0
O676 O 0.5696 0.63113 0.85814 0.0
O677 O 0.56751 0.63141 0.83211 0.0
C678 C 0.57412 0.62572 0.84463 0.0
C679 C 0.53423 0.6545 0.80179 0.0
C680 C 0.57165 0.67901 0.84052 0.0
C681 C 0.52498 0.65848 0.85423 0.0
O682 O 0.52771 0.66822 0.84314 0.0
O683 O 0.53412 0.64672 0.85638 0.0
O684 O 0.53263 0.6694 0.80477 0.0
O685 O 0.54227 0.64608 0.81169 0.0
O686 O 0.57935 0.31951 0.09663 0.0
Cd687 Cd 0.6012 0.30862 0.09694 0.0
Cd688 Cd 0.58504 0.29172 0.07421 0.0
O689 O 0.56829 0.30946 0.07525 0.0
O690 O 0.61187 0.32267 0.11252 0.0
O691 O 0.61946 0.32132 0.08767 0.0
C692 C 0.62071 0.32796 0.10136 0.0
C693 C 0.59604 0.28184 0.05074 0.0
C694 C 0.56799 0.31907 0.08682 0.0
C695 C 0.59232 0.27564 0.10514 0.0
O696 O 0.58374 0.27611 0.09282 0.0
O697 O 0.60213 0.28668 0.10809 0.0
O698 O 0.58156 0.27894 0.05459 0.0
O699 O 0.60414 0.29102 0.05992 0.0
O700 O 0.9399 0.33773 0.33883 0.0
Cd701 Cd 0.94563 0.36093 0.34305 0.0
Cd702 Cd 0.97044 0.35014 0.32044 0.0
O703 O 0.95803 0.32898 0.32214 0.0
O704 O 0.92842 0.36516 0.35849 0.0
O705 O 0.93005 0.37798 0.33595 0.0
C706 C 0.92232 0.37507 0.34876 0.0
C707 C 0.98207 0.35826 0.2965 0.0
C708 C 0.94583 0.32664 0.33065 0.0
C709 C 0.97982 0.36157 0.35352 0.0
O710 O 0.98358 0.35616 0.34001 0.0
O711 O 0.96549 0.36458 0.357 0.0
O712 O 0.98706 0.34604 0.30406 0.0
O713 O 0.96988 0.36556 0.30212 0.0
O714 O 0.9158 0.69088 0.60537 0.0
Cd715 Cd 0.89345 0.69998 0.60263 0.0
Cd716 Cd 0.90788 0.71738 0.58006 0.0
O717 O 0.92716 0.7031 0.58531 0.0
O718 O 0.87907 0.68443 0.61284 0.0
O719 O 0.87945 0.68867 0.58702 0.0
C720 C 0.87411 0.68072 0.59891 0.0
C721 C 0.89992 0.72371 0.55435 0.0
C722 C 0.92787 0.69345 0.59682 0.0
C723 C 0.89538 0.7345 0.60887 0.0
O724 O 0.90325 0.73509 0.5961 0.0
O725 O 0.88944 0.72153 0.61358 0.0
O726 O 0.91299 0.72899 0.56016 0.0
O727 O 0.89178 0.71393 0.5628 0.0
O728 O 0.57023 0.33955 0.6502 0.0
Cd729 Cd 0.56164 0.3622 0.65195 0.0
Cd730 Cd 0.54337 0.3488 0.67495 0.0
O731 O 0.55718 0.32902 0.67021 0.0
O732 O 0.57728 0.37551 0.64046 0.0
O733 O 0.57369 0.37697 0.66634 0.0
C734 C 0.58139 0.38137 0.65391 0.0
C735 C 0.53663 0.35705 0.70054 0.0
C736 C 0.56709 0.32777 0.65894 0.0
C737 C 0.52699 0.3608 0.64552 0.0
O738 O 0.52599 0.35354 0.65861 0.0
O739 O 0.54021 0.36609 0.64069 0.0
O740 O 0.53123 0.34406 0.69466 0.0
O741 O 0.54672 0.36496 0.69224 0.0
O742 O 0.91913 0.31942 0.90317 0.0
Cd743 Cd 0.89798 0.30803 0.90653 0.0
Cd744 Cd 0.91471 0.29458 0.92986 0.0
O745 O 0.93134 0.31214 0.92502 0.0
O746 O 0.88228 0.3213 0.89507 0.0
O747 O 0.88287 0.3192 0.92114 0.0
C748 C 0.87704 0.32578 0.90866 0.0
C749 C 0.90462 0.28806 0.95471 0.0
C750 C 0.93095 0.32033 0.9124 0.0
C751 C 0.90506 0.27407 0.90222 0.0
O752 O 0.91374 0.27578 0.91436 0.0
O753 O 0.89643 0.28537 0.89736 0.0
O754 O 0.91903 0.28477 0.95089 0.0
O755 O 0.89632 0.29627 0.94485 0.0
O756 O 0.93798 0.66602 0.15029 0.0
Cd757 Cd 0.9492 0.64449 0.15294 0.0
Cd758 Cd 0.96364 0.66106 0.17494 0.0
O759 O 0.9453 0.67697 0.1728 0.0
O760 O 0.93539 0.6294 0.14118 0.0
O761 O 0.93789 0.6291 0.16721 0.0
C762 C 0.93101 0.6238 0.15464 0.0
C763 C 0.97275 0.64984 0.19846 0.0
C764 C 0.9371 0.6773 0.1602 0.0
C765 C 0.98179 0.65365 0.14551 0.0
O766 O 0.98005 0.663 0.15714 0.0
O767 O 0.97158 0.64294 0.14275 0.0
O768 O 0.97528 0.66453 0.1952 0.0
O769 O 0.96421 0.6417 0.1887 0.0
O770 O 0.58851 0.68551 0.40844 0.0
Cd771 Cd 0.6093 0.69797 0.41041 0.0
Cd772 Cd 0.59129 0.7123 0.4317 0.0
O773 O 0.57684 0.69245 0.43067 0.0
O774 O 0.62428 0.68441 0.39816 0.0
O775 O 0.62565 0.68722 0.4241 0.0
C776 C 0.63044 0.68017 0.41141 0.0
C777 C 0.60232 0.72379 0.45445 0.0
C778 C 0.57732 0.68383 0.41832 0.0
C779 C 0.5976 0.72908 0.40102 0.0
O780 O 0.58833 0.72725 0.4127 0.0
O781 O 0.60929 0.71978 0.39908 0.0
O782 O 0.58744 0.72512 0.45129 0.0
O783 O 0.61081 0.71511 0.44512 0.0
O784 O 0.84699 0.51717 0.64809 0.0
Cd785 Cd 0.82926 0.5331 0.65287 0.0
Cd786 Cd 0.85085 0.55313 0.63906 0.0
O787 O 0.86374 0.53265 0.63538 0.0
O788 O 0.81051 0.51937 0.65743 0.0
O789 O 0.81177 0.53514 0.6367 0.0
C790 C 0.80427 0.52433 0.64446 0.0
C791 C 0.84865 0.57299 0.62008 0.0
C792 C 0.85998 0.51916 0.64081 0.0
C793 C 0.84358 0.55815 0.67361 0.0
O794 O 0.85183 0.56189 0.66166 0.0
O795 O 0.83313 0.54732 0.67265 0.0
O796 O 0.86207 0.5694 0.6263 0.0
O797 O 0.83644 0.56466 0.62393 0.0
O798 O 0.68501 0.60176 0.91457 0.0
Cd799 Cd 0.69755 0.59862 0.89396 0.0
Cd800 Cd 0.71046 0.57724 0.91229 0.0
O801 O 0.69038 0.57912 0.92621 0.0
O802 O 0.68477 0.61069 0.87826 0.0
O803 O 0.68668 0.58461 0.87794 0.0
C804 C 0.68025 0.59733 0.87247 0.0
C805 C 0.72137 0.55404 0.90181 0.0
C806 C 0.6826 0.59199 0.92572 0.0
C807 C 0.72874 0.60698 0.90594 0.0
O808 O 0.7261 0.59567 0.91546 0.0
O809 O 0.71986 0.60895 0.89396 0.0
O810 O 0.72235 0.55725 0.9167 0.0
O811 O 0.7133 0.56358 0.893 0.0
O812 O 0.66774 0.48259 0.17024 0.0
Cd813 Cd 0.68541 0.46597 0.16776 0.0
Cd814 Cd 0.66281 0.45298 0.14908 0.0
O815 O 0.65377 0.47583 0.14925 0.0
O816 O 0.70614 0.47697 0.17076 0.0
O817 O 0.69854 0.46657 0.14795 0.0
C818 C 0.70884 0.47464 0.15591 0.0
C819 C 0.65721 0.43497 0.12865 0.0
C820 C 0.65642 0.48522 0.16072 0.0
C821 C 0.67032 0.43857 0.18151 0.0
O822 O 0.66094 0.44069 0.16999 0.0
O823 O 0.68298 0.44663 0.18253 0.0
O824 O 0.64626 0.44131 0.13708 0.0
O825 O 0.67147 0.44005 0.13068 0.0
O826 O 0.81081 0.41371 0.42219 0.0
Cd827 Cd 0.79775 0.41481 0.40162 0.0
Cd828 Cd 0.78427 0.43701 0.42055 0.0
O829 O 0.804 0.43539 0.43495 0.0
O830 O 0.80912 0.39807 0.38965 0.0
O831 O 0.80994 0.42309 0.38256 0.0
C832 C 0.81494 0.4088 0.38062 0.0
C833 C 0.77467 0.45984 0.40834 0.0
C834 C 0.81271 0.4232 0.43369 0.0
C835 C 0.76576 0.40758 0.41386 0.0
O836 O 0.7682 0.41891 0.42344 0.0
O837 O 0.77512 0.40524 0.40232 0.0
O838 O 0.77268 0.45743 0.42329 0.0
O839 O 0.78297 0.44965 0.40049 0.0
O840 O 0.84621 0.48802 0.85355 0.0
Cd841 Cd 0.82807 0.4725 0.8487 0.0
Cd842 Cd 0.84962 0.4517 0.86242 0.0
O843 O 0.86284 0.47205 0.8658 0.0
O844 O 0.80978 0.48667 0.84359 0.0
O845 O 0.81008 0.47103 0.86445 0.0
C846 C 0.80301 0.48189 0.85637 0.0
C847 C 0.84825 0.43174 0.88147 0.0
C848 C 0.8593 0.48567 0.86054 0.0
C849 C 0.84191 0.44713 0.82786 0.0
O850 O 0.85006 0.44304 0.83977 0.0
O851 O 0.83178 0.45824 0.82892 0.0
O852 O 0.86138 0.43543 0.87472 0.0
O853 O 0.83584 0.43994 0.87805 0.0
O854 O 0.8155 0.59984 0.08796 0.0
Cd855 Cd 0.805 0.59687 0.10958 0.0
Cd856 Cd 0.79088 0.57323 0.0935 0.0
O857 O 0.80793 0.57779 0.07622 0.0
O858 O 0.819 0.60888 0.12426 0.0
O859 O 0.81696 0.5828 0.12461 0.0
C860 C 0.82384 0.59549 0.12966 0.0
C861 C 0.78399 0.54848 0.10377 0.0
C862 C 0.81606 0.59049 0.07621 0.0
C863 C 0.77095 0.60133 0.10333 0.0
O864 O 0.77238 0.58902 0.0948 0.0
O865 O 0.78247 0.60624 0.11167 0.0
O866 O 0.78039 0.55239 0.08948 0.0
O867 O 0.79272 0.55814 0.11181 0.0
O868 O 0.65913 0.52739 0.33941 0.0
Cd869 Cd 0.67701 0.54362 0.34278 0.0
Cd870 Cd 0.65512 0.55617 0.36069 0.0
O871 O 0.64524 0.53359 0.36057 0.0
O872 O 0.6976 0.53233 0.33978 0.0
O873 O 0.68971 0.54203 0.36278 0.0
C874 C 0.7 0.53403 0.35477 0.0
C875 C 0.65699 0.57355 0.38208 0.0
C876 C 0.64772 0.52456 0.34877 0.0
C877 C 0.66214 0.57139 0.3292 0.0
O878 O 0.65217 0.56884 0.34015 0.0
O879 O 0.67501 0.5636 0.32878 0.0
O880 O 0.64345 0.56911 0.37664 0.0
O881 O 0.66951 0.56687 0.37641 0.0
O882 O 0.68891 0.4039 0.58419 0.0
Cd883 Cd 0.70308 0.40636 0.60381 0.0
Cd884 Cd 0.71561 0.42744 0.58488 0.0
O885 O 0.6949 0.426 0.57185 0.0
O886 O 0.69089 0.39455 0.62014 0.0
O887 O 0.69396 0.42051 0.62071 0.0
C888 C 0.68729 0.40799 0.62636 0.0
C889 C 0.72603 0.4503 0.59649 0.0
C890 C 0.68635 0.41368 0.5731 0.0
C891 C 0.73373 0.39746 0.59035 0.0
O892 O 0.73116 0.409 0.58108 0.0
O893 O 0.72499 0.39541 0.60242 0.0
O894 O 0.72716 0.44784 0.58146 0.0
O895 O 0.71824 0.44011 0.60481 0.0
O896 O 0.66599 0.84955 0.56461 0.0
Cd897 Cd 0.64478 0.84614 0.55317 0.0
Cd898 Cd 0.66315 0.82542 0.53881 0.0
O899 O 0.67825 0.82751 0.55808 0.0
O900 O 0.62986 0.8581 0.56699 0.0
O901 O 0.62951 0.83205 0.56495 0.0
C902 C 0.62444 0.84472 0.57182 0.0
C903 C 0.65262 0.80199 0.52827 0.0
C904 C 0.67764 0.8402 0.5662 0.0
C905 C 0.65482 0.85546 0.52171 0.0
O906 O 0.66476 0.84434 0.52353 0.0
O907 O 0.64326 0.85692 0.53121 0.0
O908 O 0.6673 0.80573 0.52625 0.0
O909 O 0.6441 0.81116 0.53707 0.0
O910 O 0.17543 0.66203 0.44156 0.0
Cd911 Cd 0.1539 0.65894 0.45257 0.0
Cd912 Cd 0.16945 0.68219 0.47123 0.0
O913 O 0.18589 0.68293 0.45321 0.0
O914 O 0.14591 0.64177 0.43861 0.0
O915 O 0.13454 0.66513 0.4395 0.0
C916 C 0.13546 0.65129 0.43313 0.0
C917 C 0.15903 0.70503 0.4832 0.0
C918 C 0.18639 0.67225 0.44264 0.0
C919 C 0.16412 0.64957 0.48498 0.0
O920 O 0.17171 0.66254 0.48541 0.0
O921 O 0.15445 0.64667 0.47383 0.0
O922 O 0.17352 0.70078 0.48536 0.0
O923 O 0.1505 0.69658 0.47371 0.0
O924 O 0.60178 0.90259 0.7352 0.0
Cd925 Cd 0.58391 0.90559 0.71896 0.0
Cd926 Cd 0.60674 0.89297 0.69948 0.0
O927 O 0.61965 0.89075 0.72025 0.0
O928 O 0.56466 0.90918 0.73231 0.0
O929 O 0.56763 0.88812 0.71714 0.0
C930 C 0.5594 0.89566 0.72759 0.0
C931 C 0.60493 0.87334 0.6801 0.0
C932 C 0.61531 0.89626 0.73356 0.0
C933 C 0.59694 0.9267 0.69353 0.0
O934 O 0.60621 0.91536 0.69022 0.0
O935 O 0.58644 0.92517 0.70423 0.0
O936 O 0.61818 0.88014 0.68332 0.0
O937 O 0.59274 0.87693 0.68859 0.0
O938 O 0.3393 0.34557 0.94844 0.0
Cd939 Cd 0.36201 0.34627 0.95696 0.0
Cd940 Cd 0.34782 0.32297 0.97673 0.0
O941 O 0.32802 0.32687 0.96274 0.0
O942 O 0.37071 0.36202 0.94193 0.0
O943 O 0.37925 0.33744 0.94264 0.0
C944 C 0.37942 0.35112 0.93591 0.0
C945 C 0.35613 0.29764 0.98431 0.0
C946 C 0.32731 0.33724 0.95188 0.0
C947 C 0.35969 0.35347 0.99167 0.0
O948 O 0.35261 0.34029 0.99317 0.0
O949 O 0.365 0.35789 0.97833 0.0
O950 O 0.34325 0.30377 0.9897 0.0
O951 O 0.36396 0.30559 0.97388 0.0
O952 O 0.41321 0.60125 0.73642 0.0
Cd953 Cd 0.43059 0.5978 0.71972 0.0
Cd954 Cd 0.4076 0.61154 0.70107 0.0
O955 O 0.39561 0.61434 0.72227 0.0
O956 O 0.44991 0.5933 0.73267 0.0
O957 O 0.44744 0.61471 0.71798 0.0
C958 C 0.45554 0.60673 0.72817 0.0
C959 C 0.40922 0.6311 0.6817 0.0
C960 C 0.40003 0.60837 0.73533 0.0
C961 C 0.41612 0.57756 0.69429 0.0
O962 O 0.407 0.58918 0.69163 0.0
O963 O 0.42711 0.57864 0.70456 0.0
O964 O 0.39591 0.6247 0.68545 0.0
O965 O 0.42162 0.62714 0.68968 0.0
O966 O 0.83426 0.1653 0.06452 0.0
Cd967 Cd 0.85707 0.16238 0.05678 0.0
Cd968 Cd 0.84511 0.1864 0.03559 0.0
O969 O 0.82468 0.18399 0.04904 0.0
O970 O 0.86365 0.14641 0.07266 0.0
O971 O 0.87479 0.16992 0.07133 0.0
C972 C 0.8733 0.15657 0.07856 0.0
C973 C 0.85426 0.2112 0.02703 0.0
C974 C 0.82295 0.17419 0.06031 0.0
C975 C 0.85544 0.15455 0.02207 0.0
O976 O 0.84962 0.16825 0.01997 0.0
O977 O 0.85968 0.14998 0.03575 0.0
O978 O 0.84139 0.20509 0.0216 0.0
O979 O 0.86166 0.20355 0.03798 0.0
O980 O 0.6023 0.09519 0.77092 0.0
Cd981 Cd 0.58328 0.09574 0.78609 0.0
Cd982 Cd 0.60366 0.11234 0.80295 0.0
O983 O 0.61579 0.11475 0.78173 0.0
O984 O 0.56391 0.09168 0.77313 0.0
O985 O 0.56846 0.11436 0.7854 0.0
C986 C 0.5596 0.10602 0.77613 0.0
C987 C 0.60019 0.1327 0.82126 0.0
C988 C 0.61398 0.10465 0.77074 0.0
C989 C 0.5966 0.07887 0.81317 0.0
O990 O 0.60601 0.09059 0.81378 0.0
O991 O 0.58484 0.07906 0.80379 0.0
O992 O 0.61403 0.12729 0.81793 0.0
O993 O 0.58827 0.12734 0.81334 0.0
O994 O 0.91701 0.92967 0.27062 0.0
Cd995 Cd 0.93576 0.9259 0.28581 0.0
Cd996 Cd 0.913 0.90766 0.30047 0.0
O997 O 0.9019 0.90997 0.2787 0.0
O998 O 0.95584 0.92828 0.27354 0.0
O999 O 0.94792 0.90553 0.28377 0.0
C1000 C 0.95808 0.91329 0.27537 0.0
C1001 C 0.90607 0.88695 0.31766 0.0
C1002 C 0.90466 0.92121 0.26911 0.0
C1003 C 0.92434 0.9389 0.31553 0.0
O1004 O 0.91439 0.92773 0.31419 0.0
O1005 O 0.93571 0.9401 0.30577 0.0
O1006 O 0.89592 0.89705 0.31264 0.0
O1007 O 0.92012 0.88756 0.31174 0.0
O1008 O 0.4342 0.34134 0.15531 0.0
Cd1009 Cd 0.44524 0.36275 0.15908 0.0
Cd1010 Cd 0.45992 0.34446 0.1793 0.0
O1011 O 0.44086 0.32914 0.17728 0.0
O1012 O 0.43099 0.37787 0.14793 0.0
O1013 O 0.43366 0.37749 0.17391 0.0
C1014 C 0.42647 0.3829 0.16158 0.0
C1015 C 0.47059 0.35502 0.20257 0.0
C1016 C 0.43281 0.32961 0.16458 0.0
C1017 C 0.47693 0.35346 0.14955 0.0
O1018 O 0.47517 0.34319 0.16035 0.0
O1019 O 0.46726 0.36492 0.14836 0.0
O1020 O 0.47265 0.34034 0.19882 0.0
O1021 O 0.4616 0.36347 0.19354 0.0
O1022 O 0.41697 0.68641 0.9029 0.0
Cd1023 Cd 0.39448 0.69545 0.90235 0.0
Cd1024 Cd 0.40735 0.71625 0.92386 0.0
O1025 O 0.42709 0.70158 0.92164 0.0
O1026 O 0.38184 0.67884 0.89142 0.0
O1027 O 0.37856 0.68486 0.91667 0.0
C1028 C 0.37501 0.67601 0.90473 0.0
C1029 C 0.39748 0.7258 0.94805 0.0
C1030 C 0.4285 0.69034 0.91168 0.0
C1031 C 0.39721 0.72907 0.89201 0.0
O1032 O 0.40376 0.73156 0.9053 0.0
O1033 O 0.39184 0.71547 0.88849 0.0
O1034 O 0.41086 0.73054 0.94247 0.0
O1035 O 0.39009 0.71483 0.94037 0.0
O1036 O 0.06754 0.67288 0.66413 0.0
Cd1037 Cd 0.05515 0.65184 0.665 0.0
Cd1038 Cd 0.04132 0.6701 0.68743 0.0
O1039 O 0.0607 0.68497 0.68615 0.0
O1040 O 0.0666 0.64063 0.6478 0.0
O1041 O 0.06808 0.63297 0.67259 0.0
C1042 C 0.07286 0.63152 0.65819 0.0
C1043 C 0.03195 0.6569 0.70975 0.0
C1044 C 0.06928 0.68422 0.67384 0.0
C1045 C 0.02279 0.66325 0.65824 0.0
O1046 O 0.0252 0.67299 0.66943 0.0
O1047 O 0.03232 0.65186 0.65588 0.0
O1048 O 0.02962 0.67189 0.70786 0.0
O1049 O 0.04053 0.64961 0.69937 0.0
O1050 O 0.07836 0.31949 0.40713 0.0
Cd1051 Cd 0.09905 0.30666 0.40917 0.0
Cd1052 Cd 0.07989 0.29335 0.43081 0.0
O1053 O 0.0654 0.31287 0.42869 0.0
O1054 O 0.11169 0.31779 0.39282 0.0
O1055 O 0.11775 0.31899 0.4181 0.0
C1056 C 0.12032 0.32371 0.40384 0.0
C1057 C 0.09195 0.28454 0.45392 0.0
C1058 C 0.06669 0.32139 0.41641 0.0
C1059 C 0.08756 0.27427 0.40218 0.0
O1060 O 0.07751 0.2768 0.41307 0.0
O1061 O 0.099 0.28381 0.40008 0.0
O1062 O 0.07702 0.28236 0.45144 0.0
O1063 O 0.09985 0.2926 0.4436 0.0
O1064 O 0.44149 0.66341 0.3558 0.0
Cd1065 Cd 0.45096 0.64116 0.35392 0.0
Cd1066 Cd 0.46923 0.65554 0.33161 0.0
O1067 O 0.45444 0.6747 0.33614 0.0
O1068 O 0.43527 0.62709 0.36438 0.0
O1069 O 0.43997 0.6265 0.33864 0.0
C1070 C 0.43179 0.62162 0.35058 0.0
C1071 C 0.47676 0.64755 0.30613 0.0
C1072 C 0.44425 0.6754 0.34722 0.0
C1073 C 0.48526 0.64386 0.36141 0.0
O1074 O 0.48631 0.65134 0.34845 0.0
O1075 O 0.47216 0.63789 0.36578 0.0
O1076 O 0.48161 0.66071 0.31213 0.0
O1077 O 0.4668 0.63928 0.31425 0.0
O1078 O 0.08968 0.68859 0.10236 0.0
Cd1079 Cd 0.11134 0.69956 0.10234 0.0
Cd1080 Cd 0.09782 0.71622 0.07819 0.0
O1081 O 0.0796 0.69985 0.08108 0.0
O1082 O 0.12571 0.68489 0.11384 0.0
O1083 O 0.12772 0.68961 0.08818 0.0
C1084 C 0.1323 0.68177 0.10046 0.0
C1085 C 0.10765 0.72438 0.05357 0.0
C1086 C 0.07852 0.69 0.09241 0.0
C1087 C 0.10571 0.73373 0.10854 0.0
O1088 O 0.09919 0.73379 0.09501 0.0
O1089 O 0.11227 0.72127 0.1138 0.0
O1090 O 0.09362 0.72814 0.05821 0.0
O1091 O 0.11578 0.71501 0.06247 0.0
O1092 O 0.06766 0.33541 0.84509 0.0
Cd1093 Cd 0.06006 0.35825 0.84801 0.0
Cd1094 Cd 0.03894 0.34637 0.82404 0.0
O1095 O 0.05254 0.326 0.82598 0.0
O1096 O 0.07647 0.36512 0.86335 0.0
O1097 O 0.07441 0.37572 0.83968 0.0
C1098 C 0.08212 0.37444 0.85278 0.0
C1099 C 0.02979 0.35598 0.79969 0.0
C1100 C 0.06367 0.32421 0.83595 0.0
C1101 C 0.02552 0.35652 0.85603 0.0
O1102 O 0.0235 0.35058 0.84237 0.0
O1103 O 0.03915 0.36099 0.8606 0.0
O1104 O 0.02457 0.34294 0.80557 0.0
O1105 O 0.04096 0.36321 0.80722 0.0
O1106 O 0.42168 0.32164 0.60003 0.0
Cd1107 Cd 0.40085 0.30923 0.59768 0.0
Cd1108 Cd 0.41895 0.29487 0.57665 0.0
O1109 O 0.43343 0.31464 0.57787 0.0
O1110 O 0.38555 0.32269 0.60961 0.0
O1111 O 0.3847 0.31983 0.58365 0.0
C1112 C 0.37956 0.3268 0.59624 0.0
C1113 C 0.40814 0.28361 0.55375 0.0
C1114 C 0.43295 0.32323 0.59023 0.0
C1115 C 0.41208 0.27789 0.607 0.0
O1116 O 0.4216 0.27971 0.59552 0.0
O1117 O 0.4005 0.28733 0.6088 0.0
O1118 O 0.423 0.28226 0.55701 0.0
O1119 O 0.39956 0.29221 0.56306 0.0
O1120 O 0.1668 0.43987 0.3295 0.0
Cd1121 Cd 0.16265 0.44978 0.35141 0.0
Cd1122 Cd 0.18534 0.47001 0.33714 0.0
O1123 O 0.18702 0.45307 0.31964 0.0
O1124 O 0.14618 0.43433 0.35789 0.0
O1125 O 0.16875 0.43642 0.3706 0.0
C1126 C 0.15555 0.42905 0.36857 0.0
C1127 C 0.20742 0.48185 0.34915 0.0
C1128 C 0.17691 0.44199 0.31862 0.0
C1129 C 0.15208 0.48223 0.34251 0.0
O1130 O 0.16521 0.48356 0.3353 0.0
O1131 O 0.14937 0.47047 0.35147 0.0
O1132 O 0.20356 0.48494 0.33474 0.0
O1133 O 0.19903 0.47152 0.35666 0.0
O1134 O 0.31638 0.4029 0.09316 0.0
Cd1135 Cd 0.30285 0.40683 0.11298 0.0
Cd1136 Cd 0.29171 0.42846 0.09392 0.0
O1137 O 0.3122 0.42543 0.08081 0.0
O1138 O 0.3147 0.39514 0.12968 0.0
O1139 O 0.31329 0.42125 0.12887 0.0
C1140 C 0.31934 0.40866 0.13502 0.0
C1141 C 0.28236 0.45216 0.10474 0.0
C1142 C 0.31965 0.41241 0.08201 0.0
C1143 C 0.27164 0.39982 0.09989 0.0
O1144 O 0.27511 0.41093 0.0904 0.0
O1145 O 0.28011 0.39744 0.1121 0.0
O1146 O 0.28125 0.44928 0.08978 0.0
O1147 O 0.28962 0.44189 0.11343 0.0
O1148 O 0.35299 0.56539 0.83871 0.0
Cd1149 Cd 0.34974 0.55242 0.85903 0.0
Cd1150 Cd 0.32898 0.53931 0.84028 0.0
O1151 O 0.33093 0.55931 0.82625 0.0
O1152 O 0.3611 0.56532 0.8752 0.0
O1153 O 0.33508 0.56266 0.8748 0.0
C1154 C 0.34747 0.56942 0.88065 0.0
C1155 C 0.30605 0.52937 0.85216 0.0
C1156 C 0.34349 0.56758 0.82728 0.0
C1157 C 0.3586 0.5212 0.84722 0.0
O1158 O 0.34741 0.5236 0.83749 0.0
O1159 O 0.36036 0.53029 0.8591 0.0
O1160 O 0.30863 0.52755 0.83721 0.0
O1161 O 0.31611 0.53767 0.86018 0.0
O1162 O 0.1938 0.59111 0.58385 0.0
Cd1163 Cd 0.20175 0.59474 0.60645 0.0
Cd1164 Cd 0.22336 0.57072 0.59434 0.0
O1165 O 0.20955 0.57268 0.57411 0.0
O1166 O 0.18557 0.61059 0.61276 0.0
O1167 O 0.18749 0.58745 0.62448 0.0
C1168 C 0.17994 0.60058 0.62269 0.0
C1169 C 0.23307 0.54634 0.60347 0.0
C1170 C 0.19801 0.5822 0.57255 0.0
C1171 C 0.23632 0.60308 0.60407 0.0
O1172 O 0.23855 0.5893 0.59845 0.0
O1173 O 0.22264 0.60755 0.60846 0.0
O1174 O 0.23797 0.55251 0.59045 0.0
O1175 O 0.22193 0.55361 0.611 0.0
O1176 O 0.15861 0.56637 0.16255 0.0
Cd1177 Cd 0.16333 0.55606 0.14101 0.0
Cd1178 Cd 0.1829 0.54017 0.15994 0.0
O1179 O 0.17936 0.55834 0.17609 0.0
O1180 O 0.15188 0.57031 0.12616 0.0
O1181 O 0.17796 0.56876 0.12702 0.0
C1182 C 0.16542 0.57553 0.12155 0.0
C1183 C 0.20719 0.53053 0.15086 0.0
C1184 C 0.16703 0.56691 0.17498 0.0
C1185 C 0.15442 0.52315 0.14755 0.0
O1186 O 0.16461 0.52413 0.15853 0.0
O1187 O 0.15315 0.53405 0.1373 0.0
O1188 O 0.2023 0.52764 0.16502 0.0
O1189 O 0.19875 0.53987 0.14219 0.0
O1190 O 0.19424 0.41142 0.92188 0.0
Cd1191 Cd 0.20776 0.412 0.90166 0.0
Cd1192 Cd 0.22135 0.43394 0.9207 0.0
O1193 O 0.20124 0.43302 0.93467 0.0
O1194 O 0.19618 0.39538 0.88971 0.0
O1195 O 0.19604 0.42032 0.88232 0.0
C1196 C 0.19069 0.40614 0.88053 0.0
C1197 C 0.23171 0.45633 0.90823 0.0
C1198 C 0.19228 0.42102 0.93327 0.0
C1199 C 0.23895 0.4037 0.91504 0.0
O1200 O 0.23671 0.41536 0.92428 0.0
O1201 O 0.22992 0.40154 0.90321 0.0
O1202 O 0.23339 0.45415 0.92325 0.0
O1203 O 0.22336 0.44614 0.90041 0.0
O1204 O 0.35708 0.43757 0.66683 0.0
Cd1205 Cd 0.35277 0.45001 0.64638 0.0
Cd1206 Cd 0.33123 0.46172 0.66505 0.0
O1207 O 0.3344 0.44182 0.67891 0.0
O1208 O 0.36423 0.43751 0.62994 0.0
O1209 O 0.33813 0.43881 0.63126 0.0
C1210 C 0.35064 0.43262 0.62505 0.0
C1211 C 0.30759 0.47059 0.65387 0.0
C1212 C 0.3476 0.43463 0.67811 0.0
C1213 C 0.35947 0.48184 0.65799 0.0
O1214 O 0.34864 0.47855 0.66786 0.0
O1215 O 0.36174 0.47295 0.64604 0.0
O1216 O 0.31035 0.4722 0.66881 0.0
O1217 O 0.31791 0.46305 0.64546 0.0
O1218 O 0.31853 0.60426 0.41484 0.0
Cd1219 Cd 0.30658 0.60035 0.39395 0.0
Cd1220 Cd 0.29261 0.58038 0.41261 0.0
O1221 O 0.31214 0.58232 0.42727 0.0
O1222 O 0.32029 0.61091 0.37797 0.0
O1223 O 0.31721 0.58496 0.37916 0.0
C1224 C 0.32434 0.59704 0.37312 0.0
C1225 C 0.28237 0.55732 0.40127 0.0
C1226 C 0.32028 0.59496 0.4265 0.0
C1227 C 0.27529 0.61007 0.40419 0.0
O1228 O 0.27731 0.59927 0.41442 0.0
O1229 O 0.28462 0.61118 0.39246 0.0
O1230 O 0.28024 0.56048 0.41607 0.0
O1231 O 0.29113 0.56687 0.39314 0.0
O1232 O 0.34208 0.15702 0.44228 0.0
Cd1233 Cd 0.3644 0.15612 0.45167 0.0
Cd1234 Cd 0.35103 0.17844 0.47209 0.0
O1235 O 0.33168 0.17599 0.45698 0.0
O1236 O 0.37653 0.14381 0.43561 0.0
O1237 O 0.38099 0.16914 0.44037 0.0
C1238 C 0.38393 0.15664 0.43209 0.0
C1239 C 0.35995 0.203 0.48179 0.0
C1240 C 0.33051 0.16592 0.44581 0.0
C1241 C 0.36061 0.14654 0.48551 0.0
O1242 O 0.35419 0.15997 0.48763 0.0
O1243 O 0.3663 0.14275 0.47211 0.0
O1244 O 0.3466 0.19705 0.48613 0.0
O1245 O 0.36795 0.1954 0.47122 0.0
O1246 O 0.83678 0.34554 0.55958 0.0
Cd1247 Cd 0.85958 0.35014 0.55282 0.0
Cd1248 Cd 0.84894 0.32748 0.52915 0.0
O1249 O 0.82805 0.32815 0.54213 0.0
O1250 O 0.86467 0.36519 0.57017 0.0
O1251 O 0.8772 0.34254 0.56748 0.0
C1252 C 0.87464 0.35515 0.57568 0.0
C1253 C 0.85915 0.30375 0.51876 0.0
C1254 C 0.82581 0.3368 0.55425 0.0
C1255 C 0.85817 0.36086 0.51887 0.0
O1256 O 0.85315 0.34711 0.51539 0.0
O1257 O 0.86188 0.36443 0.53301 0.0
O1258 O 0.84629 0.30994 0.51343 0.0
O1259 O 0.86595 0.31068 0.53057 0.0
O1260 O 0.40486 0.08994 0.31615 0.0
Cd1261 Cd 0.40789 0.11147 0.3055 0.0
Cd1262 Cd 0.43059 0.09483 0.29029 0.0
O1263 O 0.42605 0.07755 0.30729 0.0
O1264 O 0.39626 0.12633 0.31964 0.0
O1265 O 0.42232 0.12643 0.31723 0.0
C1266 C 0.40979 0.13165 0.32423 0.0
C1267 C 0.45563 0.10451 0.28343 0.0
C1268 C 0.41383 0.07789 0.31611 0.0
C1269 C 0.40206 0.10548 0.27148 0.0
O1270 O 0.4143 0.09678 0.27224 0.0
O1271 O 0.39777 0.1137 0.28333 0.0
O1272 O 0.45121 0.09042 0.27954 0.0
O1273 O 0.44622 0.11273 0.29225 0.0
O1274 O 0.66159 0.64616 0.06603 0.0
Cd1275 Cd 0.6402 0.65073 0.0556 0.0
Cd1276 Cd 0.65728 0.67339 0.0418 0.0
O1277 O 0.67411 0.66789 0.05895 0.0
O1278 O 0.62438 0.64029 0.06955 0.0
O1279 O 0.62644 0.6663 0.06722 0.0
C1280 C 0.62013 0.65422 0.07412 0.0
C1281 C 0.64865 0.69881 0.03529 0.0
C1282 C 0.67368 0.65505 0.06679 0.0
C1283 C 0.64593 0.64606 0.02162 0.0
O1284 O 0.65517 0.65784 0.0231 0.0
O1285 O 0.63737 0.6416 0.03313 0.0
O1286 O 0.66271 0.69406 0.03173 0.0
O1287 O 0.6399 0.68952 0.04371 0.0
O1288 O 0.59822 0.41872 0.31329 0.0
Cd1289 Cd 0.5977 0.39648 0.30355 0.0
Cd1290 Cd 0.57593 0.41065 0.28396 0.0
O1291 O 0.57928 0.42984 0.29917 0.0
O1292 O 0.60888 0.3831 0.31933 0.0
O1293 O 0.58332 0.38069 0.31424 0.0
C1294 C 0.59549 0.37657 0.32249 0.0
C1295 C 0.55106 0.40178 0.27517 0.0
C1296 C 0.58964 0.43061 0.31009 0.0
C1297 C 0.6069 0.39963 0.26966 0.0
O1298 O 0.59383 0.40682 0.26786 0.0
O1299 O 0.61065 0.39377 0.28296 0.0
O1300 O 0.55688 0.4151 0.27057 0.0
O1301 O 0.55895 0.39386 0.28558 0.0
O1302 O 0.17239 0.84448 0.9411 0.0
Cd1303 Cd 0.15168 0.84374 0.95394 0.0
Cd1304 Cd 0.17054 0.82127 0.96779 0.0
O1305 O 0.18501 0.82283 0.94816 0.0
O1306 O 0.1403 0.86084 0.94255 0.0
O1307 O 0.13252 0.83603 0.94144 0.0
C1308 C 0.13105 0.85039 0.93654 0.0
C1309 C 0.15913 0.79809 0.97761 0.0
C1310 C 0.18387 0.83495 0.93936 0.0
C1311 C 0.16387 0.85103 0.98596 0.0
O1312 O 0.17329 0.83954 0.98373 0.0
O1313 O 0.15243 0.85344 0.97651 0.0
O1314 O 0.17401 0.80104 0.97947 0.0
O1315 O 0.15086 0.80798 0.9694 0.0
O1316 O 0.40942 0.9221 0.18644 0.0
Cd1317 Cd 0.40672 0.90053 0.19742 0.0
Cd1318 Cd 0.42994 0.9154 0.2152 0.0
O1319 O 0.43105 0.93185 0.19727 0.0
O1320 O 0.39034 0.89172 0.18304 0.0
O1321 O 0.41417 0.88143 0.18468 0.0
C1322 C 0.40056 0.88179 0.17779 0.0
C1323 C 0.45215 0.90316 0.22635 0.0
C1324 C 0.41999 0.93275 0.18714 0.0
C1325 C 0.39761 0.91085 0.22972 0.0
O1326 O 0.41064 0.91836 0.22976 0.0
O1327 O 0.39447 0.90101 0.21876 0.0
O1328 O 0.44907 0.91789 0.22888 0.0
O1329 O 0.44291 0.89546 0.21689 0.0
O1330 O 0.08934 0.08702 0.69122 0.0
Cd1331 Cd 0.08811 0.10911 0.7017 0.0
Cd1332 Cd 0.06659 0.09156 0.71863 0.0
O1333 O 0.06852 0.07478 0.70105 0.0
O1334 O 0.10408 0.12002 0.6884 0.0
O1335 O 0.07892 0.12664 0.68798 0.0
C1336 C 0.09297 0.12833 0.68227 0.0
C1337 C 0.04275 0.10161 0.72845 0.0
C1338 C 0.08023 0.07507 0.69163 0.0
C1339 C 0.09667 0.10131 0.73471 0.0
O1340 O 0.08533 0.09148 0.73411 0.0
O1341 O 0.09864 0.1114 0.72378 0.0
O1342 O 0.04724 0.08735 0.73151 0.0
O1343 O 0.05149 0.10997 0.71908 0.0
H1344 H 0.09313 0.18444 0.355 0.0
H1345 H 0.05962 0.26098 0.3935 0.0
H1346 H 0.04946 0.20501 0.33859 0.0
H1347 H 0.10994 0.25713 0.38594 0.0
H1348 H 0.05545 0.23882 0.37538 0.0
H1349 H 0.09989 0.20966 0.36773 0.0
C1350 C 0.08514 0.19438 0.35378 0.0
C1351 C 0.0707 0.19266 0.34576 0.0
C1352 C 0.06739 0.2429 0.37761 0.0
C1353 C 0.07811 0.22121 0.36068 0.0
C1354 C 0.0698 0.25542 0.38806 0.0
C1355 C 0.08516 0.2608 0.3913 0.0
C1356 C 0.08045 0.23542 0.37064 0.0
C1357 C 0.09791 0.25329 0.38377 0.0
C1358 C 0.089 0.20872 0.36104 0.0
C1359 C 0.06074 0.20586 0.34458 0.0
N1360 N 0.0953 0.24078 0.37394 0.0
N1361 N 0.06446 0.21949 0.35228 0.0
H1362 H 1.00107 0.86938 0.63679 0.0
H1363 H 0.04935 0.8012 0.59236 0.0
H1364 H 0.99113 0.8196 0.6418 0.0
H1365 H 0.07235 0.84326 0.60994 0.0
H1366 H 0.02418 0.81099 0.60295 0.0
H1367 H 0.02398 0.86265 0.61999 0.0
C1368 C 0.00363 0.85709 0.63424 0.0
C1369 C 0.99438 0.84501 0.64084 0.0
C1370 C 0.03471 0.81818 0.60419 0.0
C1371 C 0.02002 0.83733 0.62141 0.0
C1372 C 0.04903 0.81268 0.59805 0.0
C1373 C 0.06297 0.82136 0.60043 0.0
C1374 C 0.03431 0.83257 0.61251 0.0
C1375 C 0.06188 0.83613 0.60801 0.0
C1376 C 0.01664 0.85328 0.62469 0.0
C1377 C 0.99812 0.82926 0.63714 0.0
N1378 N 0.0478 0.84125 0.61388 0.0
N1379 N 0.0106 0.82588 0.62765 0.0
H1380 H 0.39287 0.76052 0.89681 0.0
H1381 H 0.44198 0.78506 0.82256 0.0
H1382 H 0.40361 0.72647 0.86042 0.0
H1383 H 0.41421 0.81822 0.84967 0.0
H1384 H 0.42679 0.76329 0.83439 0.0
H1385 H 0.39922 0.78183 0.87847 0.0
C1386 C 0.39625 0.75758 0.88481 0.0
C1387 C 0.39772 0.74177 0.88009 0.0
C1388 C 0.4238 0.77537 0.83743 0.0
C1389 C 0.40556 0.76606 0.85914 0.0
C1390 C 0.43243 0.78779 0.83064 0.0
C1391 C 0.42958 0.80345 0.83537 0.0
C1392 C 0.4124 0.77871 0.84908 0.0
C1393 C 0.41706 0.8063 0.84591 0.0
C1394 C 0.39989 0.76973 0.87432 0.0
C1395 C 0.40223 0.73855 0.86444 0.0
N1396 N 0.40916 0.79407 0.85261 0.0
N1397 N 0.40636 0.7506 0.85459 0.0
H1398 H 0.49251 0.14699 0.16401 0.0
H1399 H 0.45699 0.18569 0.08709 0.0
H1400 H 0.52072 0.1532 0.12204 0.0
H1401 H 0.42842 0.16495 0.12393 0.0
H1402 H 0.48035 0.17267 0.0984 0.0
H1403 H 0.46872 0.15207 0.14856 0.0
C1404 C 0.49363 0.14913 0.15144 0.0
C1405 C 0.50855 0.14971 0.14428 0.0
C1406 C 0.4689 0.17078 0.10382 0.0
C1407 C 0.4814 0.15604 0.12654 0.0
C1408 C 0.45557 0.17822 0.09737 0.0
C1409 C 0.44075 0.17665 0.10472 0.0
C1410 C 0.46737 0.16186 0.11774 0.0
C1411 C 0.43961 0.16675 0.11799 0.0
C1412 C 0.48005 0.15206 0.1426 0.0
C1413 C 0.50938 0.15256 0.12796 0.0
N1414 N 0.45274 0.15994 0.12417 0.0
N1415 N 0.49599 0.15595 0.11967 0.0
H1416 H 0.0643 0.79943 0.17356 0.0
H1417 H 0.10745 0.76418 0.09879 0.0
H1418 H 0.08815 0.82808 0.13873 0.0
H1419 H 0.10029 0.73583 0.14047 0.0
H1420 H 0.10083 0.78779 0.11396 0.0
H1421 H 0.07772 0.77595 0.16277 0.0
C1422 C 0.07253 0.80084 0.16386 0.0
C1423 C 0.07487 0.81572 0.15687 0.0
C1424 C 0.10093 0.77647 0.11993 0.0
C1425 C 0.09008 0.78901 0.14444 0.0
C1426 C 0.10472 0.76299 0.11124 0.0
C1427 C 0.10442 0.74808 0.11841 0.0
C1428 C 0.09635 0.77503 0.13582 0.0
C1429 C 0.10076 0.74717 0.13457 0.0
C1430 C 0.08018 0.78745 0.1577 0.0
C1431 C 0.08572 0.81684 0.14434 0.0
N1432 N 0.09656 0.76045 0.1427 0.0
N1433 N 0.09271 0.80368 0.13842 0.0
H1434 H 0.43055 0.83967 0.40177 0.0
H1435 H 0.52411 0.8479 0.39172 0.0
H1436 H 0.46359 0.81565 0.4323 0.0
H1437 H 0.48991 0.85422 0.35446 0.0
H1438 H 0.50231 0.84342 0.41046 0.0
H1439 H 0.45257 0.85284 0.38873 0.0
C1440 C 0.44245 0.83738 0.40595 0.0
C1441 C 0.44526 0.82628 0.41794 0.0
C1442 C 0.49963 0.8461 0.39824 0.0
C1443 C 0.47056 0.84128 0.40289 0.0
C1444 C 0.51202 0.84875 0.38758 0.0
C1445 C 0.50876 0.85131 0.37151 0.0
C1446 C 0.48395 0.84632 0.39278 0.0
C1447 C 0.49292 0.85215 0.36672 0.0
C1448 C 0.45501 0.84489 0.39845 0.0
C1449 C 0.46091 0.82402 0.42302 0.0
N1450 N 0.48112 0.84959 0.37728 0.0
N1451 N 0.47305 0.83126 0.41527 0.0
H1452 H 0.39137 0.2617 0.62631 0.0
H1453 H 0.46075 0.213 0.66843 0.0
H1454 H 0.44092 0.26654 0.61513 0.0
H1455 H 0.41444 0.19306 0.66057 0.0
H1456 H 0.45175 0.23775 0.65633 0.0
H1457 H 0.3982 0.2409 0.64555 0.0
C1458 C 0.40365 0.25846 0.62798 0.0
C1459 C 0.41558 0.26563 0.61895 0.0
C1460 C 0.44348 0.22805 0.65761 0.0
C1461 C 0.42345 0.24242 0.64113 0.0
C1462 C 0.44855 0.21401 0.66467 0.0
C1463 C 0.43837 0.20094 0.66535 0.0
C1464 C 0.42808 0.22906 0.65142 0.0
C1465 C 0.4227 0.20285 0.66012 0.0
C1466 C 0.40753 0.24667 0.63894 0.0
C1467 C 0.43132 0.26111 0.62163 0.0
N1468 N 0.41806 0.21659 0.65322 0.0
N1469 N 0.4348 0.24983 0.63248 0.0
H1470 H 0.0761 0.16558 0.88839 0.0
H1471 H 0.98387 0.14526 0.89214 0.0
H1472 H 0.04617 0.18258 0.92611 0.0
H1473 H 0.0111 0.14884 0.84921 0.0
H1474 H 0.00787 0.15155 0.90744 0.0
H1475 H 0.05358 0.15166 0.87709 0.0
C1476 C 0.06484 0.16622 0.89446 0.0
C1477 C 0.06298 0.17555 0.90808 0.0
C1478 C 0.00858 0.15066 0.8947 0.0
C1479 C 0.03708 0.15955 0.89509 0.0
C1480 C 0.99498 0.14695 0.88598 0.0
C1481 C 0.99556 0.1466 0.86941 0.0
C1482 C 0.02284 0.15366 0.88673 0.0
C1483 C 0.01015 0.14908 0.86197 0.0
C1484 C 0.05198 0.15827 0.88795 0.0
C1485 C 0.04811 0.17566 0.91551 0.0
N1486 N 0.02319 0.15253 0.87067 0.0
N1487 N 0.03564 0.16794 0.9088 0.0
H1488 H 0.37089 0.08828 0.17655 0.0
H1489 H 0.36976 0.10752 0.26901 0.0
H1490 H 0.33272 0.07292 0.20678 0.0
H1491 H 0.4121 0.10152 0.24123 0.0
H1492 H 0.35381 0.10211 0.24524 0.0
H1493 H 0.38346 0.10088 0.19917 0.0
C1494 C 0.36499 0.08773 0.1879 0.0
C1495 C 0.35083 0.07924 0.18979 0.0
C1496 C 0.36659 0.10224 0.24437 0.0
C1497 C 0.36529 0.09373 0.21581 0.0
C1498 C 0.37568 0.10543 0.25785 0.0
C1499 C 0.39226 0.10488 0.25704 0.0
C1500 C 0.37419 0.09886 0.23 0.0
C1501 C 0.39935 0.10195 0.24236 0.0
C1502 C 0.37223 0.09492 0.20082 0.0
C1503 C 0.3437 0.0792 0.2048 0.0
N1504 N 0.39029 0.09904 0.22944 0.0
N1505 N 0.35111 0.08618 0.21731 0.0
H1506 H 0.14612 0.11897 0.51783 0.0
H1507 H 0.16459 0.11723 0.42534 0.0
H1508 H 0.1411 0.15861 0.48622 0.0
H1509 H 0.18301 0.08263 0.45794 0.0
H1510 H 0.1488 0.12855 0.44657 0.0
H1511 H 0.15261 0.10205 0.49509 0.0
C1512 C 0.14592 0.12399 0.50606 0.0
C1513 C 0.14323 0.14023 0.50387 0.0
C1514 C 0.15612 0.11835 0.44906 0.0
C1515 C 0.15064 0.12105 0.47797 0.0
C1516 C 0.16515 0.11185 0.43693 0.0
C1517 C 0.17541 0.09916 0.43994 0.0
C1518 C 0.15738 0.11222 0.4644 0.0
C1519 C 0.17539 0.09252 0.45514 0.0
C1520 C 0.14974 0.11437 0.49314 0.0
C1521 C 0.14326 0.14618 0.48843 0.0
N1522 N 0.16671 0.0993 0.46691 0.0
N1523 N 0.14704 0.13663 0.4761 0.0
H1524 H 0.14036 0.91812 0.67997 0.0
H1525 H 0.13611 0.90937 0.77395 0.0
H1526 H 0.17322 0.94159 0.71122 0.0
H1527 H 0.09737 0.90072 0.74194 0.0
H1528 H 0.15333 0.91479 0.75113 0.0
H1529 H 0.12849 0.90499 0.70263 0.0
C1530 C 0.14525 0.92035 0.6916 0.0
C1531 C 0.15763 0.93123 0.69372 0.0
C1532 C 0.14113 0.91142 0.74915 0.0
C1533 C 0.14392 0.91624 0.71982 0.0
C1534 C 0.13135 0.90822 0.76212 0.0
C1535 C 0.11527 0.90471 0.7598 0.0
C1536 C 0.13481 0.91083 0.7338 0.0
C1537 C 0.10965 0.90352 0.74426 0.0
C1538 C 0.13842 0.91285 0.70454 0.0
C1539 C 0.16362 0.9334 0.70906 0.0
N1540 N 0.11937 0.90665 0.73189 0.0
N1541 N 0.15654 0.92616 0.72159 0.0
H1542 H 0.33681 0.9135 0.93911 0.0
H1543 H 0.30973 0.85869 0.00756 0.0
H1544 H 0.28983 0.91668 0.95866 0.0
H1545 H 0.35806 0.87504 0.0062 0.0
H1546 H 0.30252 0.87913 0.98857 0.0
H1547 H 0.34557 0.89975 0.96303 0.0
C1548 C 0.32847 0.91176 0.94868 0.0
C1549 C 0.31257 0.9162 0.94692 0.0
C1550 C 0.31468 0.87834 0.99251 0.0
C1551 C 0.32234 0.89995 0.97393 0.0
C1552 C 0.31886 0.86654 0.00319 0.0
C1553 C 0.33457 0.86505 0.00833 0.0
C1554 C 0.32634 0.88853 0.98658 0.0
C1555 C 0.34584 0.87574 1.00247 0.0
C1556 C 0.33346 0.90385 0.96227 0.0
C1557 C 0.30221 0.91354 0.95958 0.0
N1558 N 0.34155 0.88691 0.99168 0.0
N1559 N 0.30718 0.90522 0.9724 0.0
H1560 H 0.34137 0.91496 0.3134 0.0
H1561 H 0.39231 0.93984 0.24216 0.0
H1562 H 0.33524 0.96074 0.29193 0.0
H1563 H 0.37513 0.89183 0.24381 0.0
H1564 H 0.37245 0.94743 0.26168 0.0
H1565 H 0.35371 0.90539 0.28896 0.0
C1566 C 0.34216 0.92284 0.30334 0.0
C1567 C 0.33731 0.93867 0.30465 0.0
C1568 C 0.37291 0.93526 0.25768 0.0
C1569 C 0.35192 0.928 0.27703 0.0
C1570 C 0.38436 0.93087 0.24669 0.0
C1571 C 0.38546 0.91515 0.24152 0.0
C1572 C 0.36273 0.92377 0.26391 0.0
C1573 C 0.37469 0.90406 0.24758 0.0
C1574 C 0.34924 0.91738 0.28945 0.0
C1575 C 0.33873 0.94844 0.29136 0.0
N1576 N 0.36392 0.90853 0.25873 0.0
N1577 N 0.34631 0.94307 0.27823 0.0
H1578 H 0.33821 0.10655 0.57523 0.0
H1579 H 0.35562 0.11462 0.48281 0.0
H1580 H 0.31492 0.07742 0.54035 0.0
H1581 H 0.36203 0.15176 0.5172 0.0
H1582 H 0.34771 0.09659 0.5042 0.0
H1583 H 0.35424 0.11832 0.55445 0.0
C1584 C 0.33664 0.10242 0.5632 0.0
C1585 C 0.32496 0.09119 0.55948 0.0
C1586 C 0.35118 0.10859 0.50705 0.0
C1587 C 0.3433 0.10479 0.53556 0.0
C1588 C 0.35583 0.11883 0.4949 0.0
C1589 C 0.35941 0.13471 0.49828 0.0
C1590 C 0.35043 0.11425 0.52264 0.0
C1591 C 0.35927 0.13963 0.5141 0.0
C1592 C 0.3458 0.10919 0.55134 0.0
C1593 C 0.3237 0.08612 0.54372 0.0
N1594 N 0.35477 0.12947 0.52566 0.0
N1595 N 0.33258 0.09316 0.53225 0.0
H1596 H 0.14137 0.09828 0.82449 0.0
H1597 H 0.11135 0.0742 0.74246 0.0
H1598 H 0.16747 0.06454 0.7965 0.0
H1599 H 0.10949 0.12368 0.75465 0.0
H1600 H 0.13077 0.07 0.76343 0.0
H1601 H 0.12898 0.10832 0.80029 0.0
C1602 C 0.14481 0.09329 0.81321 0.0
C1603 C 0.15536 0.08047 0.81249 0.0
C1604 C 0.12627 0.08182 0.76141 0.0
C1605 C 0.14092 0.09155 0.78499 0.0
C1606 C 0.1151 0.08419 0.74959 0.0
C1607 C 0.1088 0.09927 0.74699 0.0
C1608 C 0.13082 0.09453 0.77106 0.0
C1609 C 0.11411 0.11187 0.75639 0.0
C1610 C 0.13775 0.09902 0.79944 0.0
C1611 C 0.15941 0.07442 0.79759 0.0
N1612 N 0.12462 0.10917 0.76831 0.0
N1613 N 0.15185 0.07973 0.78445 0.0
H1614 H 0.21119 0.91423 0.0505 0.0
H1615 H 0.14294 0.86921 0.00307 0.0
H1616 H 0.16689 0.90214 0.07273 0.0
H1617 H 0.19265 0.85907 0.99765 0.0
H1618 H 0.14953 0.88797 0.02444 0.0
H1619 H 0.20202 0.90139 0.02615 0.0
C1620 C 0.19935 0.90934 0.05011 0.0
C1621 C 0.18982 0.90911 0.06367 0.0
C1622 C 0.15893 0.88167 0.01844 0.0
C1623 C 0.17936 0.89444 0.03598 0.0
C1624 C 0.1552 0.87099 0.00633 0.0
C1625 C 0.16726 0.86243 0.99878 0.0
C1626 C 0.17483 0.88411 0.0226 0.0
C1627 C 0.18298 0.86523 0.00335 0.0
C1628 C 0.19421 0.90188 0.03629 0.0
C1629 C 0.17464 0.90244 0.06254 0.0
N1630 N 0.18631 0.87588 0.0149 0.0
N1631 N 0.16989 0.89525 0.04896 0.0
H1632 H 0.25164 0.38302 0.11947 0.0
H1633 H 0.20841 0.339 0.04769 0.0
H1634 H 0.26261 0.39128 0.07039 0.0
H1635 H 0.18299 0.35287 0.08968 0.0
H1636 H 0.23248 0.35084 0.05881 0.0
H1637 H 0.22997 0.36526 0.11116 0.0
C1638 C 0.24955 0.38102 0.107 0.0
C1639 C 0.25874 0.38879 0.09559 0.0
C1640 C 0.22167 0.35098 0.06569 0.0
C1641 C 0.23455 0.36825 0.08611 0.0
C1642 C 0.208 0.3441 0.05943 0.0
C1643 C 0.19368 0.34508 0.06773 0.0
C1644 C 0.22106 0.35861 0.08045 0.0
C1645 C 0.19379 0.352 0.08285 0.0
C1646 C 0.23726 0.37092 0.10229 0.0
C1647 C 0.25563 0.38573 0.07957 0.0
N1648 N 0.20725 0.35859 0.08871 0.0
N1649 N 0.24386 0.37567 0.07532 0.0
H1650 H 0.6799 0.15251 0.9133 0.0
H1651 H 0.75991 0.11578 0.93909 0.0
H1652 H 0.70445 0.16967 0.95458 0.0
H1653 H 0.75107 0.12259 0.88937 0.0
H1654 H 0.73822 0.13382 0.94524 0.0
H1655 H 0.70458 0.14043 0.90397 0.0
C1656 C 0.69057 0.15402 0.92022 0.0
C1657 C 0.69015 0.16205 0.93476 0.0
C1658 C 0.74109 0.13147 0.93298 0.0
C1659 C 0.71817 0.14789 0.9244 0.0
C1660 C 0.75335 0.12106 0.92945 0.0
C1661 C 0.75717 0.1176 0.91369 0.0
C1662 C 0.73226 0.13818 0.92069 0.0
C1663 C 0.74843 0.12495 0.90167 0.0
C1664 C 0.70462 0.14714 0.91488 0.0
C1665 C 0.70428 0.16364 0.94328 0.0
N1666 N 0.73615 0.13471 0.90541 0.0
N1667 N 0.71765 0.1563 0.93815 0.0
H1668 H 0.08594 0.45903 0.18545 0.0
H1669 H 0.15417 0.49547 0.13084 0.0
H1670 H 0.11966 0.43086 0.15946 0.0
H1671 H 0.12882 0.52166 0.16641 0.0
H1672 H 0.13695 0.47252 0.13589 0.0
H1673 H 0.09674 0.48282 0.17301 0.0
C1674 C 0.09536 0.4578 0.17686 0.0
C1675 C 0.10208 0.44296 0.17368 0.0
C1676 C 0.13498 0.48339 0.14238 0.0
C1677 C 0.11454 0.47012 0.1595 0.0
C1678 C 0.14472 0.49644 0.13944 0.0
C1679 C 0.14276 0.51033 0.14822 0.0
C1680 C 0.12329 0.48435 0.15419 0.0
C1681 C 0.13057 0.51109 0.15938 0.0
C1682 C 0.10159 0.47139 0.16984 0.0
C1683 C 0.11429 0.44209 0.16245 0.0
N1684 N 0.12134 0.49823 0.16214 0.0
N1685 N 0.12024 0.45549 0.1559 0.0
H1686 H 0.74849 0.89492 0.44109 0.0
H1687 H 0.81771 0.84331 0.41235 0.0
H1688 H 0.74928 0.88088 0.39206 0.0
H1689 H 0.79605 0.83481 0.45766 0.0
H1690 H 0.79367 0.85702 0.40375 0.0
H1691 H 0.76734 0.87394 0.44713 0.0
C1692 C 0.75272 0.88745 0.43156 0.0
C1693 C 0.74748 0.88974 0.41601 0.0
C1694 C 0.79401 0.85173 0.4154 0.0
C1695 C 0.76905 0.8657 0.42288 0.0
C1696 C 0.80767 0.84387 0.42029 0.0
C1697 C 0.80883 0.83798 0.43575 0.0
C1698 C 0.78171 0.85413 0.42624 0.0
C1699 C 0.79558 0.83911 0.44563 0.0
C1700 C 0.7633 0.87536 0.43507 0.0
C1701 C 0.75313 0.87954 0.40418 0.0
N1702 N 0.7827 0.84746 0.44086 0.0
N1703 N 0.76388 0.8681 0.40781 0.0
H1704 H 0.90316 0.07616 0.16066 0.0
H1705 H 0.89164 0.98334 0.14815 0.0
H1706 H 0.93235 0.04119 0.18356 0.0
H1707 H 0.85632 0.01888 0.13872 0.0
H1708 H 0.91084 0.00441 0.15389 0.0
H1709 H 0.89066 0.05529 0.14521 0.0
C1710 C 0.90715 0.06409 0.16225 0.0
C1711 C 0.91859 0.06037 0.17367 0.0
C1712 C 0.89899 0.00756 0.1502 0.0
C1713 C 0.90414 0.03635 0.15608 0.0
C1714 C 0.88807 0.99557 0.1468 0.0
C1715 C 0.87234 0.99942 0.14311 0.0
C1716 C 0.89413 0.02343 0.14968 0.0
C1717 C 0.86829 0.01542 0.14168 0.0
C1718 C 0.89997 0.05218 0.15342 0.0
C1719 C 0.92347 0.04455 0.17499 0.0
N1720 N 0.87907 0.02682 0.14509 0.0
N1721 N 0.916 0.03305 0.16651 0.0
H1722 H 0.23571 0.63503 0.5984 0.0
H1723 H 0.3299 0.63865 0.5907 0.0
H1724 H 0.26743 0.59642 0.60847 0.0
H1725 H 0.29918 0.67103 0.56602 0.0
H1726 H 0.30697 0.6271 0.60362 0.0
H1727 H 0.25871 0.65196 0.59269 0.0
C1728 C 0.24751 0.63026 0.59982 0.0
C1729 C 0.24972 0.6143 0.60382 0.0
C1730 C 0.30522 0.63684 0.59551 0.0
C1731 C 0.2759 0.63348 0.59733 0.0
C1732 C 0.31833 0.64347 0.58811 0.0
C1733 C 0.31646 0.65565 0.577 0.0
C1734 C 0.29002 0.64232 0.5918 0.0
C1735 C 0.30115 0.66157 0.57439 0.0
C1736 C 0.26059 0.63987 0.59644 0.0
C1737 C 0.26522 0.60863 0.60531 0.0
N1738 N 0.28845 0.65469 0.58158 0.0
N1739 N 0.27769 0.61818 0.602 0.0
H1740 H 0.08658 0.54094 0.2917 0.0
H1741 H 0.1297 0.49539 0.36226 0.0
H1742 H 0.09377 0.56325 0.33699 0.0
H1743 H 0.14517 0.49404 0.31372 0.0
H1744 H 0.10901 0.5146 0.35471 0.0
H1745 H 0.0998 0.51713 0.3017 0.0
C1746 C 0.09036 0.54059 0.30393 0.0
C1747 C 0.08921 0.55407 0.31352 0.0
C1748 C 0.11687 0.5099 0.34576 0.0
C1749 C 0.10431 0.52705 0.32493 0.0
C1750 C 0.12864 0.49904 0.35004 0.0
C1751 C 0.13927 0.49341 0.33862 0.0
C1752 C 0.11547 0.51458 0.3299 0.0
C1753 C 0.13739 0.49836 0.32292 0.0
C1754 C 0.09804 0.5271 0.30956 0.0
C1755 C 0.09454 0.55309 0.32922 0.0
N1756 N 0.12569 0.50861 0.31901 0.0
N1757 N 0.10202 0.53985 0.33442 0.0
H1758 H 0.37641 0.50328 0.86778 0.0
H1759 H 0.42431 0.46046 0.79837 0.0
H1760 H 0.36807 0.51157 0.8182 0.0
H1761 H 0.41105 0.43566 0.84085 0.0
H1762 H 0.41104 0.4842 0.80856 0.0
H1763 H 0.39583 0.48269 0.86059 0.0
C1764 C 0.37873 0.50082 0.85543 0.0
C1765 C 0.37047 0.50892 0.84356 0.0
C1766 C 0.41138 0.47364 0.81577 0.0
C1767 C 0.39289 0.48602 0.83534 0.0
C1768 C 0.41907 0.46017 0.81005 0.0
C1769 C 0.41864 0.44608 0.81874 0.0
C1770 C 0.4035 0.47304 0.83038 0.0
C1771 C 0.41151 0.44628 0.83374 0.0
C1772 C 0.38979 0.48916 0.85136 0.0
C1773 C 0.37397 0.50541 0.82772 0.0
N1774 N 0.4041 0.45953 0.83906 0.0
N1775 N 0.38495 0.49428 0.82408 0.0
H1776 H 0.89555 0.73618 0.64123 0.0
H1777 H 0.91292 0.82902 0.63923 0.0
H1778 H 0.89477 0.76517 0.59935 0.0
H1779 H 0.92945 0.79867 0.67672 0.0
H1780 H 0.8987 0.80675 0.62777 0.0
H1781 H 0.90064 0.75999 0.65719 0.0
C1782 C 0.89599 0.7476 0.63546 0.0
C1783 C 0.89487 0.74875 0.61895 0.0
C1784 C 0.90526 0.80499 0.63862 0.0
C1785 C 0.90066 0.77583 0.63703 0.0
C1786 C 0.9134 0.81771 0.6452 0.0
C1787 C 0.92268 0.81563 0.65879 0.0
C1788 C 0.90642 0.79001 0.64561 0.0
C1789 C 0.92258 0.80075 0.66613 0.0
C1790 C 0.89902 0.76113 0.64455 0.0
C1791 C 0.8957 0.76377 0.61204 0.0
N1792 N 0.91477 0.7884 0.6593 0.0
N1793 N 0.89864 0.7767 0.62109 0.0
H1794 H 0.02631 0.14644 0.38843 0.0
H1795 H 0.9333 0.16265 0.38857 0.0
H1796 H 0.9953 0.13975 0.34852 0.0
H1797 H 0.96528 0.18377 0.42232 0.0
H1798 H 0.95503 0.14686 0.37818 0.0
H1799 H 0.0032 0.15282 0.40488 0.0
C1800 C 0.0146 0.1458 0.38327 0.0
C1801 C 0.01267 0.14269 0.36708 0.0
C1802 C 0.95727 0.15478 0.38801 0.0
C1803 C 0.98636 0.15 0.38571 0.0
C1804 C 0.94486 0.16381 0.39397 0.0
C1805 C 0.94754 0.17482 0.40612 0.0
C1806 C 0.97255 0.15677 0.39415 0.0
C1807 C 0.96272 0.17555 0.41283 0.0
C1808 C 1.00146 0.14959 0.39261 0.0
C1809 C 0.99729 0.14222 0.36092 0.0
N1810 N 0.97475 0.16684 0.40657 0.0
N1811 N 0.98475 0.14597 0.37021 0.0
H1812 H 0.59275 0.18741 0.15452 0.0
H1813 H 0.56399 0.26348 0.11349 0.0
H1814 H 0.55047 0.21087 0.17074 0.0
H1815 H 0.61384 0.25936 0.12344 0.0
H1816 H 0.55863 0.24243 0.1325 0.0
H1817 H 0.60121 0.21209 0.1418 0.0
C1818 C 0.58544 0.19787 0.15572 0.0
C1819 C 0.57087 0.19713 0.16366 0.0
C1820 C 0.57073 0.24621 0.13063 0.0
C1821 C 0.58022 0.22507 0.14875 0.0
C1822 C 0.57382 0.25809 0.11968 0.0
C1823 C 0.58939 0.26304 0.11683 0.0
C1824 C 0.58333 0.23887 0.13847 0.0
C1825 C 0.60167 0.25581 0.12531 0.0
C1826 C 0.59028 0.2119 0.14848 0.0
C1827 C 0.56181 0.21097 0.16481 0.0
N1828 N 0.59842 0.24382 0.13558 0.0
N1829 N 0.56645 0.22429 0.15708 0.0
H1830 H 0.54744 0.79062 0.91798 0.0
H1831 H 0.5 0.85812 0.87202 0.0
H1832 H 0.56769 0.8367 0.90975 0.0
H1833 H 0.49806 0.80863 0.8597 0.0
H1834 H 0.51989 0.85188 0.89238 0.0
H1835 H 0.52353 0.79896 0.90383 0.0
C1836 C 0.54662 0.80267 0.91371 0.0
C1837 C 0.55956 0.81297 0.91492 0.0
C1838 C 0.51497 0.84244 0.88525 0.0
C1839 C 0.53242 0.82249 0.89873 0.0
C1840 C 0.50371 0.84597 0.87365 0.0
C1841 C 0.49759 0.8339 0.86402 0.0
C1842 C 0.51971 0.82668 0.8875 0.0
C1843 C 0.50268 0.81833 0.86668 0.0
C1844 C 0.53308 0.80734 0.90549 0.0
C1845 C 0.55797 0.82839 0.90897 0.0
N1846 N 0.51339 0.81516 0.8782 0.0
N1847 N 0.54469 0.83267 0.901 0.0
H1848 H 0.93597 0.20404 0.83558 0.0
H1849 H 0.90863 0.24472 0.91451 0.0
H1850 H 0.9185 0.17772 0.87565 0.0
H1851 H 0.9037 0.26925 0.87016 0.0
H1852 H 0.9132 0.22012 0.90013 0.0
H1853 H 0.92491 0.22829 0.84728 0.0
C1854 C 0.92962 0.2033 0.84667 0.0
C1855 C 0.92839 0.18884 0.85474 0.0
C1856 C 0.91091 0.23082 0.8935 0.0
C1857 C 0.91595 0.21644 0.86819 0.0
C1858 C 0.90833 0.24486 0.90171 0.0
C1859 C 0.90578 0.25898 0.89349 0.0
C1860 C 0.91137 0.23094 0.87691 0.0
C1861 C 0.90553 0.25854 0.8769 0.0
C1862 C 0.92332 0.21712 0.85332 0.0
C1863 C 0.91998 0.18859 0.86906 0.0
N1864 N 0.90858 0.24476 0.8691 0.0
N1865 N 0.91432 0.20218 0.87541 0.0
H1866 H 0.51025 0.14298 0.64936 0.0
H1867 H 0.5367 0.18724 0.57221 0.0
H1868 H 0.47656 0.15649 0.61362 0.0
H1869 H 0.56866 0.16092 0.60195 0.0
H1870 H 0.51433 0.17385 0.585 0.0
H1871 H 0.53163 0.14702 0.63048 0.0
C1872 C 0.50736 0.1465 0.6374 0.0
C1873 C 0.49166 0.14948 0.63305 0.0
C1874 C 0.52627 0.17076 0.58846 0.0
C1875 C 0.51612 0.15464 0.61143 0.0
C1876 C 0.53903 0.17837 0.58112 0.0
C1877 C 0.55455 0.17543 0.58624 0.0
C1878 C 0.52911 0.16027 0.60103 0.0
C1879 C 0.55689 0.16381 0.59784 0.0
C1880 C 0.51956 0.14883 0.62659 0.0
C1881 C 0.48854 0.15402 0.6174 0.0
N1882 N 0.54433 0.15688 0.605 0.0
N1883 N 0.5007 0.15681 0.60722 0.0
H1884 H 0.54559 0.78977 0.33807 0.0
H1885 H 0.61747 0.74616 0.38155 0.0
H1886 H 0.59006 0.81321 0.34684 0.0
H1887 H 0.56824 0.73865 0.39264 0.0
H1888 H 0.60951 0.76633 0.36203 0.0
H1889 H 0.55616 0.76583 0.35054 0.0
C1890 C 0.55774 0.78971 0.34211 0.0
C1891 C 0.56692 0.80351 0.34157 0.0
C1892 C 0.60052 0.7601 0.36868 0.0
C1893 C 0.579 0.77631 0.35589 0.0
C1894 C 0.60503 0.74868 0.3798 0.0
C1895 C 0.5935 0.74096 0.38889 0.0
C1896 C 0.58438 0.76339 0.36638 0.0
C1897 C 0.57753 0.74454 0.3861 0.0
C1898 C 0.5637 0.77612 0.34938 0.0
C1899 C 0.58256 0.80282 0.34717 0.0
N1900 N 0.57345 0.75545 0.37509 0.0
N1901 N 0.58808 0.7895 0.35424 0.0
H1902 H 0.95971 0.82055 0.07527 0.0
H1903 H 0.99021 0.85277 0.15698 0.0
H1904 H 0.92844 0.83602 0.11255 0.0
H1905 H 0.01905 0.85689 0.11517 0.0
H1906 H 0.96739 0.84672 0.14039 0.0
H1907 H 0.9817 0.83405 0.08873 0.0
C1908 C 0.95739 0.827 0.08609 0.0
C1909 C 0.94225 0.82691 0.09292 0.0
C1910 C 0.97864 0.84919 0.13477 0.0
C1911 C 0.96728 0.84214 0.10839 0.0
C1912 C 0.99165 0.85262 0.14425 0.0
C1913 C 0.00649 0.85532 0.13742 0.0
C1914 C 0.98052 0.848 0.11832 0.0
C1915 C 0.00775 0.85497 0.12087 0.0
C1916 C 0.96994 0.83469 0.09376 0.0
C1917 C 0.93994 0.8355 0.10695 0.0
N1918 N 0.99497 0.85106 0.11185 0.0
N1919 N 0.95234 0.84253 0.11432 0.0
H1920 H 0.68487 0.93921 0.7925 0.0
H1921 H 0.60855 0.89329 0.76476 0.0
H1922 H 0.65233 0.91645 0.82451 0.0
H1923 H 0.64722 0.90209 0.73276 0.0
H1924 H 0.62566 0.90014 0.78693 0.0
H1925 H 0.67293 0.92433 0.77052 0.0
C1926 C 0.67548 0.93086 0.79496 0.0
C1927 C 0.66941 0.9293 0.81033 0.0
C1928 C 0.63057 0.90032 0.77511 0.0
C1929 C 0.65563 0.91243 0.78532 0.0
C1930 C 0.62078 0.89637 0.76246 0.0
C1931 C 0.62649 0.89713 0.74695 0.0
C1932 C 0.6461 0.90553 0.77224 0.0
C1933 C 0.64241 0.90125 0.74459 0.0
C1934 C 0.66864 0.9224 0.78242 0.0
C1935 C 0.65721 0.91829 0.81283 0.0
N1936 N 0.6516 0.90563 0.75709 0.0
N1937 N 0.6506 0.91049 0.80046 0.0
H1938 H 0.86097 0.84574 0.51253 0.0
H1939 H 0.81617 0.92033 0.54645 0.0
H1940 H 0.84932 0.88547 0.48288 0.0
H1941 H 0.84113 0.88665 0.57549 0.0
H1942 H 0.82944 0.90929 0.52305 0.0
H1943 H 0.85525 0.86175 0.53581 0.0
C1944 C 0.85749 0.85797 0.51097 0.0
C1945 C 0.85558 0.8643 0.4958 0.0
C1946 C 0.83219 0.90453 0.5346 0.0
C1947 C 0.84851 0.88264 0.52241 0.0
C1948 C 0.82463 0.91083 0.54795 0.0
C1949 C 0.82731 0.90422 0.56293 0.0
C1950 C 0.84238 0.8915 0.5363 0.0
C1951 C 0.83843 0.89195 0.56417 0.0
C1952 C 0.85419 0.86713 0.52426 0.0
C1953 C 0.85101 0.8802 0.49441 0.0
N1954 N 0.84536 0.88588 0.55105 0.0
N1955 N 0.84731 0.88876 0.50756 0.0
H1956 H 0.85994 0.09258 0.3221 0.0
H1957 H 0.90151 0.06259 0.24562 0.0
H1958 H 0.84733 0.04787 0.30097 0.0
H1959 H 0.89133 0.11233 0.25071 0.0
H1960 H 0.88332 0.05692 0.26732 0.0
H1961 H 0.87236 0.10054 0.29715 0.0
C1962 C 0.85946 0.0846 0.31208 0.0
C1963 C 0.85264 0.06953 0.31359 0.0
C1964 C 0.88498 0.06907 0.26362 0.0
C1965 C 0.86724 0.07834 0.28532 0.0
C1966 C 0.89548 0.07234 0.25136 0.0
C1967 C 0.89802 0.08797 0.24646 0.0
C1968 C 0.87723 0.08154 0.27132 0.0
C1969 C 0.88973 0.10012 0.25418 0.0
C1970 C 0.86656 0.08914 0.29789 0.0
C1971 C 0.85239 0.05961 0.30029 0.0
N1972 N 0.87986 0.09668 0.26643 0.0
N1973 N 0.85992 0.06405 0.28681 0.0
H1974 H 0.64 0.16047 0.01345 0.0
H1975 H 0.68107 0.08345 0.04501 0.0
H1976 H 0.64603 0.11942 0.98379 0.0
H1977 H 0.66118 0.1193 0.07544 0.0
H1978 H 0.6662 0.09463 0.02278 0.0
H1979 H 0.64536 0.14425 0.03662 0.0
C1980 C 0.64213 0.14793 0.01189 0.0
C1981 C 0.64264 0.14126 0.99674 0.0
C1982 C 0.66486 0.09983 0.0344 0.0
C1983 C 0.64931 0.12266 0.02316 0.0
C1984 C 0.67333 0.09343 0.0471 0.0
C1985 C 0.67263 0.10065 0.06205 0.0
C1986 C 0.65576 0.11356 0.0367 0.0
C1987 C 0.66236 0.11353 0.06407 0.0
C1988 C 0.64521 0.13865 0.02511 0.0
C1989 C 0.64547 0.12497 0.99532 0.0
N1990 N 0.65455 0.11971 0.05152 0.0
N1991 N 0.64906 0.11625 0.00836 0.0
H1992 H 0.68308 0.05805 0.71287 0.0
H1993 H 0.62701 0.12525 0.74916 0.0
H1994 H 0.66092 0.09366 0.68393 0.0
H1995 H 0.62975 0.07742 0.76643 0.0
H1996 H 0.64668 0.11848 0.7286 0.0
H1997 H 0.67138 0.07043 0.73635 0.0
C1998 C 0.67622 0.06878 0.71151 0.0
C1999 C 0.67278 0.07474 0.69645 0.0
C2000 C 0.64311 0.1096 0.7371 0.0
C2001 C 0.65938 0.08885 0.72313 0.0
C2002 C 0.63196 0.11344 0.74875 0.0
C2003 C 0.62671 0.10178 0.75926 0.0
C2004 C 0.64926 0.09415 0.73638 0.0
C2005 C 0.6334 0.08665 0.75836 0.0
C2006 C 0.66944 0.07574 0.72487 0.0
C2007 C 0.66369 0.0886 0.69534 0.0
N2008 N 0.64433 0.08326 0.74712 0.0
N2009 N 0.65713 0.09511 0.7085 0.0
H2010 H 0.66326 0.90824 0.43629 0.0
H2011 H 0.68359 0.86723 0.51461 0.0
H2012 H 0.70043 0.92636 0.46616 0.0
H2013 H 0.63425 0.87232 0.50273 0.0
H2014 H 0.69015 0.88779 0.49552 0.0
H2015 H 0.65172 0.89479 0.45923 0.0
C2016 C 0.6687 0.90978 0.44778 0.0
C2017 C 0.68287 0.91834 0.44934 0.0
C2018 C 0.67787 0.88453 0.49717 0.0
C2019 C 0.67007 0.9026 0.47536 0.0
C2020 C 0.67413 0.87267 0.50791 0.0
C2021 C 0.65837 0.86797 0.51009 0.0
C2022 C 0.66584 0.89148 0.48816 0.0
C2023 C 0.64655 0.87558 0.5013 0.0
C2024 C 0.66213 0.90209 0.46083 0.0
C2025 C 0.68949 0.91992 0.46445 0.0
N2026 N 0.65055 0.8868 0.49043 0.0
N2027 N 0.68327 0.91175 0.4768 0.0
H2028 H 0.84425 0.92259 0.18748 0.0
H2029 H 0.89997 0.95003 0.25564 0.0
H2030 H 0.84256 0.97021 0.2057 0.0
H2031 H 0.88216 0.9022 0.25515 0.0
H2032 H 0.88004 0.95734 0.23608 0.0
H2033 H 0.85819 0.91422 0.21144 0.0
C2034 C 0.84639 0.93118 0.19676 0.0
C2035 C 0.84224 0.94711 0.19464 0.0
C2036 C 0.88042 0.94527 0.24032 0.0
C2037 C 0.85871 0.93776 0.22169 0.0
C2038 C 0.89191 0.94103 0.25135 0.0
C2039 C 0.89282 0.92544 0.25692 0.0
C2040 C 0.86996 0.93377 0.23452 0.0
C2041 C 0.8819 0.91433 0.25111 0.0
C2042 C 0.85441 0.92641 0.21037 0.0
C2043 C 0.84543 0.95779 0.20693 0.0
N2044 N 0.87105 0.91866 0.24002 0.0
N2045 N 0.85383 0.953 0.21977 0.0
H2046 H 0.8592 0.16156 0.99095 0.0
H2047 H 0.81901 0.08234 0.96193 0.0
H2048 H 0.85114 0.12239 0.02251 0.0
H2049 H 0.83865 0.11744 0.93056 0.0
H2050 H 0.83284 0.09506 0.98409 0.0
H2051 H 0.85405 0.1442 0.96852 0.0
C2052 C 0.85662 0.1492 0.99312 0.0
C2053 C 0.8555 0.14342 0.00859 0.0
C2054 C 0.83434 0.09977 0.97229 0.0
C2055 C 0.84914 0.12349 0.98295 0.0
C2056 C 0.82648 0.09249 0.95964 0.0
C2057 C 0.82743 0.099 0.94441 0.0
C2058 C 0.84311 0.11366 0.96966 0.0
C2059 C 0.8373 0.11216 0.94214 0.0
C2060 C 0.85366 0.13926 0.98031 0.0
C2061 C 0.85215 0.12729 0.01074 0.0
N2062 N 0.84455 0.11916 0.95462 0.0
N2063 N 0.84876 0.11793 0.99806 0.0
H2064 H 0.73821 0.61556 0.93527 0.0
H2065 H 0.81617 0.65744 0.91126 0.0
H2066 H 0.74708 0.6252 0.88602 0.0
H2067 H 0.79215 0.66925 0.95464 0.0
H2068 H 0.79164 0.64578 0.90113 0.0
H2069 H 0.75873 0.63451 0.94249 0.0
C2070 C 0.74453 0.62166 0.92595 0.0
C2071 C 0.74109 0.61867 0.91 0.0
C2072 C 0.79163 0.65129 0.91269 0.0
C2073 C 0.76465 0.64039 0.91824 0.0
C2074 C 0.80559 0.65797 0.91847 0.0
C2075 C 0.80617 0.66425 0.93383 0.0
C2076 C 0.77832 0.65049 0.92254 0.0
C2077 C 0.79218 0.66459 0.94272 0.0
C2078 C 0.75611 0.63262 0.9301 0.0
C2079 C 0.74946 0.62712 0.89844 0.0
N2080 N 0.77891 0.65742 0.93709 0.0
N2081 N 0.7611 0.63742 0.90278 0.0
H2082 H 0.23056 0.86175 0.10546 0.0
H2083 H 0.32326 0.84931 0.09277 0.0
H2084 H 0.26639 0.8969 0.11455 0.0
H2085 H 0.2883 0.8244 0.06514 0.0
H2086 H 0.30218 0.86092 0.1086 0.0
H2087 H 0.25142 0.84281 0.09818 0.0
C2088 C 0.24283 0.8653 0.10642 0.0
C2089 C 0.24681 0.8809 0.11056 0.0
C2090 C 0.29912 0.85269 0.09927 0.0
C2091 C 0.27056 0.85941 0.10233 0.0
C2092 C 0.31114 0.846 0.09024 0.0
C2093 C 0.30751 0.83611 0.07739 0.0
C2094 C 0.2833 0.84953 0.09547 0.0
C2095 C 0.2916 0.83206 0.07486 0.0
C2096 C 0.25468 0.85455 0.10214 0.0
C2097 C 0.26284 0.88501 0.11137 0.0
N2098 N 0.28001 0.83903 0.08365 0.0
N2099 N 0.27412 0.87435 0.10722 0.0
H2100 H 0.89136 0.48303 0.8569 0.0
H2101 H 0.8995 0.57558 0.84043 0.0
H2102 H 0.85411 0.51733 0.86289 0.0
H2103 H 0.92956 0.54086 0.81815 0.0
H2104 H 0.8876 0.55478 0.85634 0.0
H2105 H 0.90968 0.50458 0.85013 0.0
C2106 C 0.88717 0.49513 0.85729 0.0
C2107 C 0.87119 0.49845 0.86035 0.0
C2108 C 0.89697 0.55172 0.84815 0.0
C2109 C 0.89197 0.52298 0.85266 0.0
C2110 C 0.9038 0.56359 0.83906 0.0
C2111 C 0.91531 0.55989 0.82769 0.0
C2112 C 0.90158 0.53596 0.84585 0.0
C2113 C 0.92061 0.54419 0.82668 0.0
C2114 C 0.89759 0.50737 0.85329 0.0
C2115 C 0.86631 0.51428 0.8605 0.0
N2116 N 0.91349 0.5327 0.83545 0.0
N2117 N 0.87663 0.52593 0.85659 0.0
H2118 H 0.20433 0.16869 0.54164 0.0
H2119 H 0.24955 0.1227 0.61059 0.0
H2120 H 0.1819 0.15866 0.58628 0.0
H2121 H 0.25489 0.11166 0.56108 0.0
H2122 H 0.22917 0.14231 0.60363 0.0
H2123 H 0.22814 0.15489 0.55088 0.0
C2124 C 0.20462 0.16408 0.55357 0.0
C2125 C 0.19115 0.16471 0.5632 0.0
C2126 C 0.23493 0.13562 0.59435 0.0
C2127 C 0.21815 0.14892 0.57373 0.0
C2128 C 0.24647 0.12444 0.59829 0.0
C2129 C 0.25371 0.1154 0.5864 0.0
C2130 C 0.23101 0.13806 0.57841 0.0
C2131 C 0.2494 0.11819 0.57063 0.0
C2132 C 0.21811 0.15606 0.55875 0.0
C2133 C 0.19205 0.15833 0.57849 0.0
N2134 N 0.23839 0.12931 0.56709 0.0
N2135 N 0.2053 0.15059 0.58327 0.0
H2136 H 0.08001 0.96456 0.79792 0.0
H2137 H 0.12238 0.01041 0.86915 0.0
H2138 H 0.0905 0.94164 0.84217 0.0
H2139 H 0.13326 0.01746 0.81987 0.0
H2140 H 0.10327 0.98965 0.86148 0.0
H2141 H 0.09136 0.98915 0.80841 0.0
C2142 C 0.08417 0.96485 0.81002 0.0
C2143 C 0.08447 0.95105 0.81915 0.0
C2144 C 0.10976 0.99593 0.85241 0.0
C2145 C 0.09749 0.97897 0.83113 0.0
C2146 C 0.12063 0.00769 0.85677 0.0
C2147 C 0.12957 0.01541 0.84513 0.0
C2148 C 0.10753 0.99234 0.83634 0.0
C2149 C 0.12682 0.01156 0.82923 0.0
C2150 C 0.09079 0.97881 0.81593 0.0
C2151 C 0.09019 0.95203 0.83472 0.0
N2152 N 0.11604 1.00034 0.8253 0.0
N2153 N 0.09663 0.96572 0.84019 0.0
H2154 H 0.677 0.35829 0.41427 0.0
H2155 H 0.75418 0.39913 0.44251 0.0
H2156 H 0.70075 0.3426 0.45653 0.0
H2157 H 0.74804 0.39032 0.39267 0.0
H2158 H 0.73287 0.38043 0.44816 0.0
H2159 H 0.70147 0.37141 0.40579 0.0
C2160 C 0.68748 0.35731 0.42158 0.0
C2161 C 0.68688 0.34938 0.43613 0.0
C2162 C 0.73626 0.38251 0.43599 0.0
C2163 C 0.71458 0.36475 0.42677 0.0
C2164 C 0.74829 0.3933 0.43275 0.0
C2165 C 0.75277 0.39635 0.41709 0.0
C2166 C 0.72835 0.37503 0.42349 0.0
C2167 C 0.74488 0.3883 0.40489 0.0
C2168 C 0.70139 0.36479 0.41673 0.0
C2169 C 0.70074 0.34851 0.44519 0.0
N2170 N 0.73283 0.37816 0.40833 0.0
N2171 N 0.71394 0.35644 0.44054 0.0
H2172 H 0.85389 0.48782 0.63735 0.0
H2173 H 0.93025 0.46347 0.6839 0.0
H2174 H 0.89197 0.52082 0.6452 0.0
H2175 H 0.89829 0.42984 0.66254 0.0
H2176 H 0.91856 0.48438 0.66751 0.0
H2177 H 0.87167 0.4661 0.64385 0.0
C2178 C 0.86614 0.49043 0.64008 0.0
C2179 C 0.87148 0.50608 0.64081 0.0
C2180 C 0.91436 0.47235 0.66619 0.0
C2181 C 0.89181 0.48136 0.64885 0.0
C2182 C 0.92105 0.46042 0.67552 0.0
C2183 C 0.91499 0.44498 0.67484 0.0
C2184 C 0.90152 0.46874 0.65624 0.0
C2185 C 0.90309 0.44166 0.66374 0.0
C2186 C 0.87631 0.47804 0.64384 0.0
C2187 C 0.88744 0.50887 0.64446 0.0
N2188 N 0.89659 0.45347 0.65509 0.0
N2189 N 0.89699 0.49663 0.64873 0.0
H2190 H 0.5915 0.54851 0.20744 0.0
H2191 H 0.63975 0.50383 0.13984 0.0
H2192 H 0.60816 0.57367 0.16638 0.0
H2193 H 0.64769 0.49603 0.18957 0.0
H2194 H 0.6215 0.5256 0.14664 0.0
H2195 H 0.60489 0.52462 0.19777 0.0
C2196 C 0.59758 0.54889 0.19618 0.0
C2197 C 0.59884 0.56308 0.18774 0.0
C2198 C 0.62722 0.51899 0.15598 0.0
C2199 C 0.61404 0.53591 0.17665 0.0
C2200 C 0.63759 0.50665 0.15214 0.0
C2201 C 0.64537 0.49831 0.16417 0.0
C2202 C 0.62426 0.52255 0.17193 0.0
C2203 C 0.64212 0.50234 0.17993 0.0
C2204 C 0.60531 0.53532 0.19076 0.0
C2205 C 0.60703 0.56296 0.17329 0.0
N2206 N 0.63175 0.51409 0.18336 0.0
N2207 N 0.61439 0.54959 0.1682 0.0
H2208 H 0.61445 0.73863 0.90763 0.0
H2209 H 0.57381 0.70944 0.82892 0.0
H2210 H 0.60565 0.77018 0.86864 0.0
H2211 H 0.59379 0.67812 0.86384 0.0
H2212 H 0.58789 0.73162 0.84134 0.0
H2213 H 0.6097 0.71614 0.89022 0.0
C2214 C 0.61183 0.74079 0.89529 0.0
C2215 C 0.61035 0.75626 0.88958 0.0
C2216 C 0.58942 0.71983 0.84607 0.0
C2217 C 0.60439 0.73056 0.86961 0.0
C2218 C 0.58141 0.70716 0.83896 0.0
C2219 C 0.58237 0.69195 0.84553 0.0
C2220 C 0.59834 0.71722 0.85986 0.0
C2221 C 0.59243 0.68969 0.85854 0.0
C2222 C 0.60908 0.72794 0.88533 0.0
C2223 C 0.60694 0.75841 0.87348 0.0
N2224 N 0.5998 0.70219 0.86539 0.0
N2225 N 0.60373 0.74569 0.86411 0.0
H2226 H 0.48344 0.32559 0.13557 0.0
H2227 H 0.56569 0.34715 0.10265 0.0
H2228 H 0.49747 0.37461 0.13552 0.0
H2229 H 0.53734 0.31093 0.08052 0.0
H2230 H 0.54175 0.35804 0.11487 0.0
H2231 H 0.50394 0.31985 0.1161 0.0
C2232 C 0.49086 0.33516 0.1314 0.0
C2233 C 0.48892 0.35056 0.13723 0.0
C2234 C 0.54073 0.34797 0.107 0.0
C2235 C 0.51251 0.34404 0.11506 0.0
C2236 C 0.55436 0.34175 0.10002 0.0
C2237 C 0.55349 0.32804 0.09065 0.0
C2238 C 0.52626 0.34015 0.10494 0.0
C2239 C 0.53854 0.3215 0.08765 0.0
C2240 C 0.50244 0.3319 0.12018 0.0
C2241 C 0.49869 0.36257 0.1313 0.0
N2242 N 0.52555 0.32738 0.0951 0.0
N2243 N 0.51035 0.359 0.12074 0.0
H2244 H 0.9156 0.3176 0.33733 0.0
H2245 H 0.94542 0.24567 0.38649 0.0
H2246 H 0.96286 0.29922 0.33197 0.0
H2247 H 0.89627 0.24876 0.37311 0.0
H2248 H 0.9518 0.26594 0.36704 0.0
H2249 H 0.90764 0.29279 0.34993 0.0
C2250 C 0.92418 0.30814 0.33838 0.0
C2251 C 0.93993 0.31047 0.33365 0.0
C2252 C 0.93963 0.26211 0.36824 0.0
C2253 C 0.93104 0.28236 0.34855 0.0
C2254 C 0.93594 0.25066 0.37948 0.0
C2255 C 0.92025 0.24565 0.38155 0.0
C2256 C 0.92752 0.26891 0.3592 0.0
C2257 C 0.9085 0.25236 0.37194 0.0
C2258 C 0.91963 0.29403 0.34562 0.0
C2259 C 0.95059 0.29789 0.33537 0.0
N2260 N 0.91234 0.26386 0.36133 0.0
N2261 N 0.94605 0.28451 0.34304 0.0
H2262 H 0.00431 0.64146 0.64266 0.0
H2263 H 0.95729 0.70623 0.59311 0.0
H2264 H 0.0115 0.69162 0.6486 0.0
H2265 H 0.93318 0.66558 0.61228 0.0
H2266 H 0.98168 0.69753 0.60618 0.0
H2267 H 0.982 0.64716 0.62474 0.0
C2268 C 1.00125 0.65363 0.6401 0.0
C2269 C 0.00957 0.66611 0.64723 0.0
C2270 C 0.97109 0.69039 0.60723 0.0
C2271 C 0.98469 0.67262 0.62652 0.0
C2272 C 0.95724 0.69526 0.5997 0.0
C2273 C 0.9432 0.68666 0.60174 0.0
C2274 C 0.97095 0.67668 0.61656 0.0
C2275 C 0.94375 0.6726 0.61054 0.0
C2276 C 0.98859 0.65685 0.62993 0.0
C2277 C 0.00522 0.68167 0.64352 0.0
N2278 N 0.95741 0.66804 0.61769 0.0
N2279 N 0.99315 0.68449 0.63334 0.0
H2280 H 0.595 0.32116 0.64399 0.0
H2281 H 0.56311 0.24339 0.60751 0.0
H2282 H 0.5531 0.29892 0.66276 0.0
H2283 H 0.6135 0.24838 0.61371 0.0
H2284 H 0.55892 0.26535 0.62583 0.0
H2285 H 0.60237 0.296 0.63149 0.0
C2286 C 0.58754 0.31089 0.64576 0.0
C2287 C 0.57339 0.31212 0.65436 0.0
C2288 C 0.57089 0.26156 0.62328 0.0
C2289 C 0.5815 0.2836 0.63976 0.0
C2290 C 0.5733 0.24915 0.61273 0.0
C2291 C 0.58868 0.24417 0.60903 0.0
C2292 C 0.58395 0.26937 0.62987 0.0
C2293 C 0.60147 0.25192 0.61627 0.0
C2294 C 0.59176 0.29658 0.63864 0.0
C2295 C 0.56413 0.29848 0.65627 0.0
N2296 N 0.59884 0.26438 0.62617 0.0
N2297 N 0.56816 0.28487 0.64871 0.0
H2298 H 0.02555 0.35165 0.8881 0.0
H2299 H 0.93138 0.34315 0.88978 0.0
H2300 H 0.99456 0.36084 0.84871 0.0
H2301 H 0.96167 0.31992 0.9236 0.0
H2302 H 0.9544 0.35617 0.87849 0.0
H2303 H 1.00224 0.34632 0.9047 0.0
C2304 C 0.01385 0.35297 0.88308 0.0
C2305 C 0.01194 0.35659 0.867 0.0
C2306 C 0.95603 0.34836 0.88849 0.0
C2307 C 0.9854 0.35052 0.8858 0.0
C2308 C 0.94287 0.34091 0.89498 0.0
C2309 C 0.94461 0.33017 0.90749 0.0
C2310 C 0.97114 0.34505 0.89445 0.0
C2311 C 0.9598 0.328 0.91387 0.0
C2312 C 1.00059 0.3498 0.8925 0.0
C2313 C 0.99655 0.35797 0.86102 0.0
N2314 N 0.97255 0.3352 0.90713 0.0
N2315 N 0.9839 0.35485 0.87038 0.0
H2316 H 0.94401 0.70771 0.16852 0.0
H2317 H 0.8839 0.74976 0.10955 0.0
H2318 H 0.91137 0.67994 0.14078 0.0
H2319 H 0.93335 0.76189 0.11276 0.0
H2320 H 0.8886 0.72752 0.12789 0.0
H2321 H 0.93414 0.73166 0.15556 0.0
C2322 C 0.93442 0.7067 0.16009 0.0
C2323 C 0.9286 0.69183 0.15558 0.0
C2324 C 0.89831 0.73521 0.12462 0.0
C2325 C 0.91729 0.71907 0.14086 0.0
C2326 C 0.89567 0.7478 0.11421 0.0
C2327 C 0.90833 0.75744 0.10953 0.0
C2328 C 0.91356 0.73275 0.13073 0.0
C2329 C 0.92335 0.75454 0.11591 0.0
C2330 C 0.92891 0.72033 0.15263 0.0
C2331 C 0.91626 0.69119 0.14446 0.0
N2332 N 0.92553 0.74251 0.12625 0.0
N2333 N 0.91107 0.70464 0.13737 0.0
H2334 H 0.51619 0.64122 0.35322 0.0
H2335 H 0.54688 0.6829 0.43021 0.0
H2336 H 0.48569 0.64729 0.39359 0.0
H2337 H 0.57778 0.6602 0.39652 0.0
H2338 H 0.5244 0.66858 0.41858 0.0
H2339 H 0.53906 0.64665 0.36995 0.0
C2340 C 0.51437 0.64339 0.36572 0.0
C2341 C 0.49908 0.64383 0.37205 0.0
C2342 C 0.53617 0.66651 0.41399 0.0
C2343 C 0.52515 0.65058 0.39123 0.0
C2344 C 0.549 0.67465 0.42065 0.0
C2345 C 0.56419 0.67299 0.41413 0.0
C2346 C 0.53859 0.65679 0.40069 0.0
C2347 C 0.56624 0.66211 0.40173 0.0
C2348 C 0.52742 0.64651 0.37528 0.0
C2349 C 0.49734 0.64675 0.3883 0.0
N2350 N 0.55359 0.65466 0.39527 0.0
N2351 N 0.51021 0.65037 0.3973 0.0
H2352 H 0.89857 0.56121 0.75613 0.0
H2353 H 0.85489 0.58779 0.67967 0.0
H2354 H 0.88665 0.61047 0.75033 0.0
H2355 H 0.84325 0.54372 0.70246 0.0
H2356 H 0.86779 0.59675 0.70407 0.0
H2357 H 0.88031 0.55449 0.73477 0.0
C2358 C 0.89216 0.57063 0.75029 0.0
C2359 C 0.89422 0.58645 0.75491 0.0
C2360 C 0.86211 0.58526 0.70381 0.0
C2361 C 0.87335 0.57879 0.73043 0.0
C2362 C 0.85474 0.58016 0.68993 0.0
C2363 C 0.84801 0.56499 0.68907 0.0
C2364 C 0.86318 0.57493 0.7167 0.0
C2365 C 0.84821 0.55553 0.70266 0.0
C2366 C 0.88162 0.56676 0.73823 0.0
C2367 C 0.88543 0.59814 0.74708 0.0
N2368 N 0.856 0.56051 0.71582 0.0
N2369 N 0.87553 0.59411 0.73502 0.0
H2370 H 0.67882 0.5781 0.95502 0.0
H2371 H 0.64923 0.65766 0.99195 0.0
H2372 H 0.66282 0.61737 0.92667 0.0
H2373 H 0.64399 0.61394 0.01758 0.0
H2374 H 0.65397 0.64261 0.96779 0.0
H2375 H 0.66565 0.58997 0.97805 0.0
C2376 C 0.67228 0.58901 0.95354 0.0
C2377 C 0.67219 0.5969 0.93895 0.0
C2378 C 0.65152 0.63626 0.97862 0.0
C2379 C 0.65736 0.61057 0.96519 0.0
C2380 C 0.64884 0.64486 0.9924 0.0
C2381 C 0.64624 0.63701 0.00672 0.0
C2382 C 0.65206 0.61966 0.97921 0.0
C2383 C 0.64587 0.6204 0.0067 0.0
C2384 C 0.66478 0.59577 0.96668 0.0
C2385 C 0.66348 0.61099 0.93773 0.0
N2386 N 0.64908 0.61223 0.99319 0.0
N2387 N 0.65668 0.61749 0.95071 0.0
H2388 H 0.60053 0.39772 0.23826 0.0
H2389 H 0.68031 0.43746 0.21259 0.0
H2390 H 0.63914 0.40252 0.2712 0.0
H2391 H 0.64819 0.41535 0.17963 0.0
H2392 H 0.66694 0.42349 0.23428 0.0
H2393 H 0.61877 0.40288 0.21654 0.0
C2394 C 0.61294 0.39958 0.24086 0.0
C2395 C 0.61835 0.39973 0.2565 0.0
C2396 C 0.66308 0.42146 0.22224 0.0
C2397 C 0.63928 0.40612 0.23175 0.0
C2398 C 0.67073 0.42939 0.20987 0.0
C2399 C 0.66516 0.42782 0.19432 0.0
C2400 C 0.64975 0.41204 0.21897 0.0
C2401 C 0.65269 0.4172 0.19147 0.0
C2402 C 0.62338 0.40252 0.22847 0.0
C2403 C 0.63455 0.40223 0.25926 0.0
N2404 N 0.64526 0.40995 0.20367 0.0
N2405 N 0.64442 0.40567 0.24701 0.0
H2406 H 0.81369 0.4327 0.46493 0.0
H2407 H 0.86362 0.35727 0.48741 0.0
H2408 H 0.83765 0.40316 0.43091 0.0
H2409 H 0.85049 0.39218 0.5222 0.0
H2410 H 0.85678 0.37586 0.46653 0.0
H2411 H 0.82935 0.42036 0.48605 0.0
C2412 C 0.8225 0.42392 0.46186 0.0
C2413 C 0.82416 0.41874 0.44618 0.0
C2414 C 0.85565 0.37964 0.47871 0.0
C2415 C 0.84192 0.40449 0.47019 0.0
C2416 C 0.8596 0.36901 0.49063 0.0
C2417 C 0.85755 0.37318 0.50652 0.0
C2418 C 0.84916 0.39443 0.48266 0.0
C2419 C 0.85229 0.38854 0.51006 0.0
C2420 C 0.83139 0.41684 0.47391 0.0
C2421 C 0.83574 0.40731 0.44287 0.0
N2422 N 0.84793 0.39852 0.49821 0.0
N2423 N 0.84397 0.40043 0.45476 0.0
H2424 H 0.8861 0.39339 0.75185 0.0
H2425 H 0.84087 0.46161 0.79903 0.0
H2426 H 0.89589 0.44308 0.74574 0.0
H2427 H 0.8535 0.41764 0.8215 0.0
H2428 H 0.854 0.45253 0.77481 0.0
H2429 H 0.86772 0.40012 0.77346 0.0
C2430 C 0.88433 0.40568 0.75501 0.0
C2431 C 0.89266 0.41769 0.74717 0.0
C2432 C 0.85359 0.44478 0.78497 0.0
C2433 C 0.87141 0.42542 0.77131 0.0
C2434 C 0.84597 0.44986 0.79872 0.0
C2435 C 0.8462 0.44039 0.81231 0.0
C2436 C 0.86119 0.43002 0.78474 0.0
C2437 C 0.85316 0.42533 0.8113 0.0
C2438 C 0.87386 0.40949 0.76727 0.0
C2439 C 0.88989 0.43344 0.75164 0.0
N2440 N 0.86047 0.42062 0.79777 0.0
N2441 N 0.87945 0.43685 0.76335 0.0
H2442 H 0.81488 0.57894 0.04561 0.0
H2443 H 0.85601 0.65592 0.01232 0.0
H2444 H 0.83842 0.61357 0.07487 0.0
H2445 H 0.84659 0.6158 0.98226 0.0
H2446 H 0.85073 0.63958 0.03541 0.0
H2447 H 0.82739 0.59086 0.02224 0.0
C2448 C 0.82288 0.58883 0.04716 0.0
C2449 C 0.82538 0.59543 0.0622 0.0
C2450 C 0.85004 0.6342 0.02381 0.0
C2451 C 0.83956 0.60915 0.0356 0.0
C2452 C 0.85307 0.64356 0.01062 0.0
C2453 C 0.85171 0.6372 0.99539 0.0
C2454 C 0.84519 0.61843 0.02179 0.0
C2455 C 0.84785 0.62111 0.99384 0.0
C2456 C 0.83 0.59564 0.03383 0.0
C2457 C 0.83589 0.60824 0.06351 0.0
N2458 N 0.84442 0.61231 0.00689 0.0
N2459 N 0.84239 0.61477 0.05041 0.0
H2460 H 0.59738 0.61285 0.26677 0.0
H2461 H 0.67534 0.57436 0.29951 0.0
H2462 H 0.63899 0.6082 0.23771 0.0
H2463 H 0.63843 0.59313 0.32935 0.0
H2464 H 0.66392 0.58875 0.27706 0.0
H2465 H 0.61346 0.60796 0.29017 0.0
C2466 C 0.61001 0.61112 0.26539 0.0
C2467 C 0.61689 0.61086 0.25035 0.0
C2468 C 0.65854 0.58995 0.28861 0.0
C2469 C 0.63535 0.60472 0.27702 0.0
C2470 C 0.66507 0.58176 0.30142 0.0
C2471 C 0.65764 0.58228 0.31626 0.0
C2472 C 0.64448 0.59859 0.29069 0.0
C2473 C 0.64438 0.5921 0.31807 0.0
C2474 C 0.61921 0.6083 0.27874 0.0
C2475 C 0.63329 0.60854 0.24916 0.0
N2476 N 0.6381 0.59964 0.30541 0.0
N2477 N 0.64194 0.6052 0.26232 0.0
H2478 H 0.63779 0.35 0.51471 0.0
H2479 H 0.68227 0.42639 0.54335 0.0
H2480 H 0.64326 0.3906 0.48446 0.0
H2481 H 0.66333 0.39126 0.57511 0.0
H2482 H 0.66587 0.41535 0.52208 0.0
H2483 H 0.64459 0.36636 0.53746 0.0
C2484 C 0.64008 0.36248 0.51294 0.0
C2485 C 0.64004 0.36896 0.49772 0.0
C2486 C 0.66509 0.41029 0.5338 0.0
C2487 C 0.64838 0.38771 0.52363 0.0
C2488 C 0.67443 0.4166 0.54595 0.0
C2489 C 0.67443 0.40953 0.56095 0.0
C2490 C 0.65581 0.39679 0.53672 0.0
C2491 C 0.66399 0.3969 0.56365 0.0
C2492 C 0.644 0.37184 0.52592 0.0
C2493 C 0.64311 0.38519 0.49604 0.0
N2494 N 0.65532 0.39079 0.55162 0.0
N2495 N 0.64753 0.39397 0.50881 0.0
H2496 H 0.77095 0.86311 0.60384 0.0
H2497 H 0.67792 0.86447 0.58733 0.0
H2498 H 0.74256 0.90538 0.6013 0.0
H2499 H 0.70795 0.82793 0.56808 0.0
H2500 H 0.70083 0.87625 0.60017 0.0
H2501 H 0.7472 0.84722 0.59793 0.0
C2502 C 0.75966 0.86899 0.60241 0.0
C2503 C 0.75866 0.88556 0.603 0.0
C2504 C 0.70238 0.86554 0.5933 0.0
C2505 C 0.73166 0.86758 0.59641 0.0
C2506 C 0.6893 0.85876 0.58597 0.0
C2507 C 0.69104 0.84533 0.57633 0.0
C2508 C 0.71739 0.85888 0.5911 0.0
C2509 C 0.70609 0.83835 0.57528 0.0
C2510 C 0.74619 0.85995 0.59893 0.0
C2511 C 0.74383 0.89264 0.60087 0.0
N2512 N 0.71877 0.84533 0.58242 0.0
N2513 N 0.73094 0.88362 0.59767 0.0
H2514 H 0.25549 0.62523 0.3832 0.0
H2515 H 0.21691 0.67847 0.45121 0.0
H2516 H 0.2685 0.62323 0.43243 0.0
H2517 H 0.18885 0.65902 0.41329 0.0
H2518 H 0.24051 0.66646 0.43941 0.0
H2519 H 0.23506 0.64505 0.38989 0.0
C2520 C 0.25414 0.62909 0.39534 0.0
C2521 C 0.26343 0.62245 0.40735 0.0
C2522 C 0.22923 0.66522 0.43347 0.0
C2523 C 0.24079 0.6453 0.41488 0.0
C2524 C 0.2158 0.67219 0.4401 0.0
C2525 C 0.20091 0.66955 0.43331 0.0
C2526 C 0.22773 0.65579 0.41987 0.0
C2527 C 0.20013 0.66117 0.41897 0.0
C2528 C 0.24258 0.64036 0.39912 0.0
C2529 C 0.26135 0.62786 0.42288 0.0
N2530 N 0.21334 0.6544 0.4128 0.0
N2531 N 0.25029 0.63899 0.4262 0.0
H2532 H 0.5936 0.95584 0.70707 0.0
H2533 H 0.63724 0.00423 0.63883 0.0
H2534 H 0.60841 0.93289 0.664 0.0
H2535 H 0.6479 0.00968 0.68836 0.0
H2536 H 0.619 0.98239 0.64555 0.0
H2537 H 0.60525 0.98063 0.69749 0.0
C2538 C 0.59883 0.95614 0.69539 0.0
C2539 C 0.60017 0.9423 0.68636 0.0
C2540 C 0.62525 0.98855 0.65488 0.0
C2541 C 0.61341 0.97049 0.67538 0.0
C2542 C 0.6356 1.00093 0.65108 0.0
C2543 C 0.6442 0.00854 0.66306 0.0
C2544 C 0.62315 0.98426 0.67078 0.0
C2545 C 0.64167 0.00392 0.67877 0.0
C2546 C 0.60558 0.97022 0.69001 0.0
C2547 C 0.60725 0.9433 0.67137 0.0
N2548 N 0.63133 0.99213 0.68219 0.0
N2549 N 0.61372 0.95716 0.66636 0.0
H2550 H 0.29818 0.33811 0.9658 0.0
H2551 H 0.2556 0.38402 0.89515 0.0
H2552 H 0.32212 0.34732 0.92177 0.0
H2553 H 0.24943 0.39598 0.94435 0.0
H2554 H 0.27549 0.36416 0.90287 0.0
H2555 H 0.27493 0.35227 0.95574 0.0
C2556 C 0.29834 0.34262 0.95383 0.0
C2557 C 0.31207 0.34164 0.94461 0.0
C2558 C 0.26966 0.37112 0.91191 0.0
C2559 C 0.2857 0.35783 0.93314 0.0
C2560 C 0.2584 0.38243 0.90754 0.0
C2561 C 0.25107 0.3918 0.91912 0.0
C2562 C 0.27318 0.36888 0.92798 0.0
C2563 C 0.255 0.3892 0.93502 0.0
C2564 C 0.28517 0.35085 0.94818 0.0
C2565 C 0.31175 0.34792 0.92925 0.0
N2566 N 0.26572 0.37794 0.93899 0.0
N2567 N 0.2988 0.35586 0.92401 0.0
H2568 H 0.37427 0.5023 0.63734 0.0
H2569 H 0.42086 0.54779 0.70596 0.0
H2570 H 0.36951 0.49126 0.68685 0.0
H2571 H 0.40243 0.5726 0.66545 0.0
H2572 H 0.40945 0.52318 0.69559 0.0
H2573 H 0.39146 0.52483 0.6445 0.0
C2574 C 0.37695 0.50454 0.64965 0.0
C2575 C 0.37031 0.49509 0.66155 0.0
C2576 C 0.4082 0.53399 0.68885 0.0
C2577 C 0.3902 0.52027 0.66969 0.0
C2578 C 0.41481 0.54798 0.69468 0.0
C2579 C 0.41245 0.56226 0.68662 0.0
C2580 C 0.39947 0.53424 0.67473 0.0
C2581 C 0.40437 0.56185 0.6721 0.0
C2582 C 0.38672 0.51733 0.65371 0.0
C2583 C 0.37418 0.49842 0.67734 0.0
N2584 N 0.39808 0.54807 0.66664 0.0
N2585 N 0.38391 0.51067 0.68094 0.0
H2586 H 0.74746 0.13114 0.11482 0.0
H2587 H 0.7942 0.17548 0.04561 0.0
H2588 H 0.74101 0.12125 0.06521 0.0
H2589 H 0.81613 0.16475 0.09033 0.0
H2590 H 0.76971 0.16307 0.05502 0.0
H2591 H 0.76839 0.15024 0.1079 0.0
C2592 C 0.75038 0.13306 0.10251 0.0
C2593 C 0.7427 0.12444 0.09058 0.0
C2594 C 0.7798 0.16379 0.06288 0.0
C2595 C 0.76606 0.14649 0.08263 0.0
C2596 C 0.79369 0.17102 0.05759 0.0
C2597 C 0.80721 0.17102 0.06717 0.0
C2598 C 0.7794 0.15679 0.07792 0.0
C2599 C 0.80597 0.16487 0.08254 0.0
C2600 C 0.76225 0.14394 0.09859 0.0
C2601 C 0.74683 0.12744 0.0748 0.0
N2602 N 0.79234 0.15787 0.08742 0.0
N2603 N 0.75818 0.13823 0.07128 0.0
H2604 H 0.64491 0.00568 0.86759 0.0
H2605 H 0.58993 0.04854 0.80436 0.0
H2606 H 0.64614 0.99524 0.81771 0.0
H2607 H 0.61402 0.07571 0.84025 0.0
H2608 H 0.60281 0.02459 0.81431 0.0
H2609 H 0.62646 0.02768 0.86214 0.0
C2610 C 0.64118 0.00795 0.85556 0.0
C2611 C 0.64715 0.99885 0.84303 0.0
C2612 C 0.60495 0.03577 0.8202 0.0
C2613 C 0.62584 0.02329 0.83689 0.0
C2614 C 0.59753 0.0494 0.81464 0.0
C2615 C 0.60105 0.06414 0.82141 0.0
C2616 C 0.61568 0.03686 0.8328 0.0
C2617 C 0.61111 0.06458 0.83462 0.0
C2618 C 0.63071 0.02041 0.85248 0.0
C2619 C 0.64197 1.00216 0.82765 0.0
N2620 N 0.61819 0.05112 0.83985 0.0
N2621 N 0.63154 0.01405 0.82501 0.0
H2622 H 0.89889 0.02857 0.35668 0.0
H2623 H 0.9071 0.93564 0.34239 0.0
H2624 H 0.8626 0.99402 0.36617 0.0
H2625 H 0.93412 0.97007 0.31619 0.0
H2626 H 0.89653 0.95679 0.35884 0.0
H2627 H 0.91703 0.00703 0.34936 0.0
C2628 C 0.89492 0.01643 0.35775 0.0
C2629 C 0.87922 0.01301 0.36195 0.0
C2630 C 0.90499 0.95971 0.34969 0.0
C2631 C 0.89979 0.9885 0.35363 0.0
C2632 C 0.91106 0.94765 0.34028 0.0
C2633 C 0.92125 0.95115 0.32766 0.0
C2634 C 0.90903 0.97545 0.34645 0.0
C2635 C 0.92618 0.96688 0.3257 0.0
C2636 C 0.90522 0.0042 0.35343 0.0
C2637 C 0.87459 0.99714 0.36291 0.0
N2638 N 0.91978 0.97854 0.33483 0.0
N2639 N 0.88479 0.98549 0.35868 0.0
H2640 H 0.41327 0.32806 0.13904 0.0
H2641 H 0.39774 0.23498 0.14295 0.0
H2642 H 0.43067 0.29974 0.17773 0.0
H2643 H 0.4033 0.26153 0.09984 0.0
H2644 H 0.4024 0.25943 0.15818 0.0
H2645 H 0.40163 0.30448 0.12732 0.0
C2646 C 0.41446 0.31693 0.14523 0.0
C2647 C 0.42325 0.31586 0.15927 0.0
C2648 C 0.40235 0.25987 0.14539 0.0
C2649 C 0.40985 0.28875 0.1458 0.0
C2650 C 0.3996 0.246 0.13672 0.0
C2651 C 0.40021 0.24629 0.12014 0.0
C2652 C 0.40534 0.27408 0.13736 0.0
C2653 C 0.40283 0.2608 0.11261 0.0
C2654 C 0.40782 0.30346 0.13848 0.0
C2655 C 0.42413 0.30109 0.16682 0.0
N2656 N 0.40528 0.2741 0.12126 0.0
N2657 N 0.41766 0.28803 0.15988 0.0
H2658 H 0.43471 0.66078 0.90015 0.0
H2659 H 0.51465 0.68737 0.86334 0.0
H2660 H 0.45772 0.70386 0.91496 0.0
H2661 H 0.50594 0.63765 0.87066 0.0
H2662 H 0.49287 0.69364 0.88118 0.0
H2663 H 0.45981 0.65154 0.88895 0.0
C2664 C 0.44514 0.66813 0.90137 0.0
C2665 C 0.44412 0.68316 0.90842 0.0
C2666 C 0.49579 0.68135 0.87902 0.0
C2667 C 0.47266 0.67285 0.89525 0.0
C2668 C 0.50811 0.67775 0.86871 0.0
C2669 C 0.51198 0.66196 0.8654 0.0
C2670 C 0.48694 0.66909 0.8858 0.0
C2671 C 0.50327 0.64998 0.87287 0.0
C2672 C 0.45943 0.66285 0.89498 0.0
C2673 C 0.45798 0.6922 0.90967 0.0
N2674 N 0.49092 0.65379 0.88254 0.0
N2675 N 0.4716 0.68706 0.90282 0.0
H2676 H 0.09366 0.68272 0.65298 0.0
H2677 H 0.10582 0.77631 0.64819 0.0
H2678 H 0.06998 0.71513 0.68452 0.0
H2679 H 0.11331 0.74365 0.60974 0.0
H2680 H 0.09967 0.75383 0.6656 0.0
H2681 H 0.10818 0.70479 0.64157 0.0
C2682 C 0.09169 0.69448 0.6577 0.0
C2683 C 0.08033 0.69712 0.66952 0.0
C2684 C 0.10299 0.75162 0.65343 0.0
C2685 C 0.09691 0.72252 0.65634 0.0
C2686 C 0.10662 0.76439 0.64355 0.0
C2687 C 0.10998 0.76179 0.6275 0.0
C2688 C 0.10302 0.7362 0.64723 0.0
C2689 C 0.11067 0.74616 0.62201 0.0
C2690 C 0.09998 0.70708 0.65114 0.0
C2691 C 0.07852 0.71258 0.67533 0.0
N2692 N 0.10714 0.73399 0.63182 0.0
N2693 N 0.08654 0.72479 0.66849 0.0
H2694 H 0.0357 0.32257 0.42656 0.0
H2695 H 0.01093 0.36862 0.34954 0.0
H2696 H 0.06876 0.34533 0.39507 0.0
H2697 H 0.97702 0.35521 0.38514 0.0
H2698 H 0.03227 0.36353 0.3682 0.0
H2699 H 0.01413 0.33741 0.41406 0.0
C2700 C 0.03847 0.33095 0.41729 0.0
C2701 C 0.05401 0.33247 0.41163 0.0
C2702 C 0.02017 0.36197 0.37211 0.0
C2703 C 0.02945 0.34932 0.39722 0.0
C2704 C 0.00799 0.36493 0.36144 0.0
C2705 C 0.99223 0.36222 0.36578 0.0
C2706 C 0.01662 0.35583 0.38713 0.0
C2707 C 0.98904 0.35746 0.38135 0.0
C2708 C 0.02615 0.33938 0.41013 0.0
C2709 C 0.05692 0.34352 0.39961 0.0
N2710 N 1.00117 0.35406 0.39138 0.0
N2711 N 0.04476 0.35131 0.39267 0.0
H2712 H 0.38977 0.75067 0.39226 0.0
H2713 H 0.45681 0.70499 0.34409 0.0
H2714 H 0.43969 0.75836 0.39949 0.0
H2715 H 0.41556 0.68035 0.36125 0.0
H2716 H 0.44729 0.72919 0.357 0.0
H2717 H 0.39621 0.72873 0.37407 0.0
C2718 C 0.40204 0.74779 0.38995 0.0
C2719 C 0.41423 0.75613 0.39752 0.0
C2720 C 0.4402 0.71853 0.35763 0.0
C2721 C 0.42159 0.73171 0.37648 0.0
C2722 C 0.44553 0.70479 0.35017 0.0
C2723 C 0.43701 0.69065 0.35173 0.0
C2724 C 0.42611 0.71817 0.3664 0.0
C2725 C 0.42254 0.69101 0.35989 0.0
C2726 C 0.40568 0.73535 0.37961 0.0
C2727 C 0.42995 0.75204 0.39408 0.0
N2728 N 0.41755 0.70455 0.36701 0.0
N2729 N 0.43317 0.74019 0.38375 0.0
H2730 H 0.98842 0.68169 0.13211 0.0
H2731 H 0.0746 0.6619 0.10782 0.0
H2732 H 0.00418 0.63325 0.13343 0.0
H2733 H 0.04845 0.69883 0.08435 0.0
H2734 H 0.04964 0.65076 0.11746 0.0
H2735 H 0.01081 0.68832 0.11512 0.0
C2736 C 0.9966 0.67242 0.12868 0.0
C2737 C 0.99458 0.65694 0.13418 0.0
C2738 C 0.04936 0.66109 0.1099 0.0
C2739 C 0.02035 0.66448 0.11499 0.0
C2740 C 0.06358 0.66748 0.10443 0.0
C2741 C 0.06359 0.6814 0.09539 0.0
C2742 C 0.03512 0.66892 0.10666 0.0
C2743 C 0.04898 0.6881 0.0913 0.0
C2744 C 0.00929 0.67619 0.11891 0.0
C2745 C 0.00539 0.64532 0.12937 0.0
N2746 N 0.03535 0.68201 0.09727 0.0
N2747 N 0.01807 0.6494 0.12027 0.0
H2748 H 0.11786 0.24933 0.88012 0.0
H2749 H 0.04916 0.29537 0.83418 0.0
H2750 H 0.06801 0.24259 0.88868 0.0
H2751 H 0.09368 0.31754 0.84559 0.0
H2752 H 0.05855 0.27093 0.84664 0.0
H2753 H 0.11127 0.27003 0.86069 0.0
C2754 C 0.10557 0.25214 0.87784 0.0
C2755 C 0.09346 0.24447 0.88619 0.0
C2756 C 0.06638 0.28105 0.84605 0.0
C2757 C 0.0859 0.26752 0.86376 0.0
C2758 C 0.0611 0.29492 0.8388 0.0
C2759 C 0.07062 0.30849 0.839 0.0
C2760 C 0.08133 0.28075 0.8533 0.0
C2761 C 0.08594 0.30733 0.84533 0.0
C2762 C 0.10184 0.26387 0.86677 0.0
C2763 C 0.07772 0.24843 0.88273 0.0
N2764 N 0.09079 0.29374 0.85237 0.0
N2765 N 0.0744 0.25964 0.87177 0.0
H2766 H 0.49636 0.36402 0.65463 0.0
H2767 H 0.46297 0.32463 0.57742 0.0
H2768 H 0.52556 0.35795 0.6133 0.0
H2769 H 0.43332 0.34589 0.61312 0.0
H2770 H 0.48584 0.33849 0.58876 0.0
H2771 H 0.47292 0.35932 0.6385 0.0
C2772 C 0.49778 0.36201 0.64206 0.0
C2773 C 0.51287 0.36132 0.63528 0.0
C2774 C 0.47426 0.34035 0.59388 0.0
C2775 C 0.48612 0.35542 0.61677 0.0
C2776 C 0.46119 0.33246 0.58739 0.0
C2777 C 0.44625 0.33384 0.59452 0.0
C2778 C 0.47233 0.34954 0.60762 0.0
C2779 C 0.44465 0.3442 0.60741 0.0
C2780 C 0.4844 0.35931 0.63283 0.0
C2781 C 0.51408 0.35865 0.61894 0.0
N2782 N 0.45754 0.35141 0.61368 0.0
N2783 N 0.50088 0.35544 0.61027 0.0
H2784 H 0.16596 0.41188 0.3146 0.0
H2785 H 0.12454 0.43563 0.23749 0.0
H2786 H 0.18119 0.453 0.28865 0.0
H2787 H 0.13312 0.38602 0.2455 0.0
H2788 H 0.14444 0.44213 0.25733 0.0
H2789 H 0.15405 0.40127 0.29038 0.0
C2790 C 0.16725 0.41842 0.30367 0.0
C2791 C 0.17448 0.43339 0.30362 0.0
C2792 C 0.14211 0.42982 0.25466 0.0
C2793 C 0.16042 0.42161 0.27616 0.0
C2794 C 0.13062 0.42609 0.24349 0.0
C2795 C 0.12707 0.41026 0.24002 0.0
C2796 C 0.14984 0.41764 0.2628 0.0
C2797 C 0.13548 0.39837 0.24794 0.0
C2798 C 0.16042 0.41238 0.28989 0.0
C2799 C 0.17576 0.44142 0.2892 0.0
N2800 N 0.1463 0.40229 0.25925 0.0
N2801 N 0.16839 0.43564 0.27612 0.0
H2802 H 0.3585 0.38587 0.99148 0.0
H2803 H 0.34129 0.38872 0.08422 0.0
H2804 H 0.36071 0.34579 0.02287 0.0
H2805 H 0.32375 0.42394 0.05179 0.0
H2806 H 0.35599 0.3765 0.06269 0.0
H2807 H 0.35308 0.40306 0.0143 0.0
C2808 C 0.35829 0.38077 0.00321 0.0
C2809 C 0.35991 0.36438 0.00532 0.0
C2810 C 0.34911 0.38703 0.06031 0.0
C2811 C 0.35375 0.38388 0.03131 0.0
C2812 C 0.34071 0.39405 0.0726 0.0
C2813 C 0.33099 0.40719 0.06973 0.0
C2814 C 0.34777 0.39311 0.04496 0.0
C2815 C 0.33097 0.41372 0.05448 0.0
C2816 C 0.35508 0.39055 0.01618 0.0
C2817 C 0.35938 0.35834 0.02072 0.0
N2818 N 0.33902 0.40645 0.04257 0.0
N2819 N 0.35624 0.36807 0.0331 0.0
H2820 H 0.36633 0.59022 0.82862 0.0
H2821 H 0.36768 0.60587 0.73552 0.0
H2822 H 0.33179 0.57003 0.79689 0.0
H2823 H 0.4081 0.60949 0.76638 0.0
H2824 H 0.35101 0.5998 0.75858 0.0
H2825 H 0.37786 0.60466 0.80659 0.0
C2826 C 0.361 0.58899 0.81704 0.0
C2827 C 0.34825 0.57862 0.81455 0.0
C2828 C 0.36347 0.60224 0.76028 0.0
C2829 C 0.36154 0.59514 0.78919 0.0
C2830 C 0.37294 0.60582 0.74719 0.0
C2831 C 0.38929 0.60808 0.74909 0.0
C2832 C 0.3704 0.60121 0.77533 0.0
C2833 C 0.39557 0.60771 0.76441 0.0
C2834 C 0.36762 0.59724 0.80446 0.0
C2835 C 0.3417 0.57777 0.79931 0.0
N2836 N 0.38614 0.60425 0.77691 0.0
N2837 N 0.34858 0.58574 0.78712 0.0
H2838 H 0.16727 0.58898 0.56568 0.0
H2839 H 0.19277 0.64422 0.49819 0.0
H2840 H 0.21327 0.58415 0.54427 0.0
H2841 H 0.145 0.62629 0.49753 0.0
H2842 H 0.20011 0.62338 0.5167 0.0
H2843 H 0.1579 0.60264 0.54191 0.0
C2844 C 0.17523 0.59031 0.55574 0.0
C2845 C 0.19106 0.58545 0.5569 0.0
C2846 C 0.18805 0.62392 0.51242 0.0
C2847 C 0.18064 0.60159 0.53011 0.0
C2848 C 0.18379 0.63593 0.50203 0.0
C2849 C 0.1682 0.63708 0.49648 0.0
C2850 C 0.17657 0.61319 0.51768 0.0
C2851 C 0.15712 0.62584 0.50163 0.0
C2852 C 0.16989 0.59816 0.54224 0.0
C2853 C 0.20096 0.58761 0.54379 0.0
N2854 N 0.16144 0.61449 0.51221 0.0
N2855 N 0.19571 0.59593 0.53109 0.0
H2856 H 0.13872 0.59796 0.26864 0.0
H2857 H 0.1437 0.58908 0.17471 0.0
H2858 H 0.09956 0.60441 0.23663 0.0
H2859 H 0.17706 0.56662 0.20609 0.0
H2860 H 0.13105 0.6015 0.19736 0.0
H2861 H 0.15611 0.593 0.24585 0.0
C2862 C 0.13388 0.59872 0.25682 0.0
C2863 C 0.11766 0.60149 0.25449 0.0
C2864 C 0.14125 0.594 0.1993 0.0
C2865 C 0.1374 0.59587 0.22853 0.0
C2866 C 0.14852 0.5869 0.18636 0.0
C2867 C 0.1613 0.57652 0.1885 0.0
C2868 C 0.14673 0.59076 0.21459 0.0
C2869 C 0.16715 0.5744 0.2039 0.0
C2870 C 0.14377 0.59577 0.24386 0.0
C2871 C 0.11196 0.60219 0.23895 0.0
N2872 N 0.15968 0.5813 0.21642 0.0
N2873 N 0.12179 0.59933 0.2266 0.0
H2874 H 0.15186 0.39209 0.02258 0.0
H2875 H 0.16696 0.40153 0.92994 0.0
H2876 H 0.14669 0.35487 0.98808 0.0
H2877 H 0.191 0.43034 0.96457 0.0
H2878 H 0.15159 0.38937 0.951 0.0
H2879 H 0.15868 0.41057 1.00118 0.0
C2880 C 0.1517 0.38794 0.01047 0.0
C2881 C 0.14879 0.37194 0.00704 0.0
C2882 C 0.16003 0.39854 0.95398 0.0
C2883 C 0.15646 0.3929 0.98269 0.0
C2884 C 0.1688 0.40554 0.94197 0.0
C2885 C 0.18054 0.41675 0.94554 0.0
C2886 C 0.16297 0.40272 0.96974 0.0
C2887 C 0.18217 0.42165 0.96132 0.0
C2888 C 0.15571 0.39843 0.99832 0.0
C2889 C 0.14894 0.36709 0.99121 0.0
N2890 N 0.17367 0.41439 0.97293 0.0
N2891 N 0.15279 0.3775 0.97964 0.0
H2892 H 0.33512 0.43106 0.70803 0.0
H2893 H 0.41586 0.39729 0.73975 0.0
H2894 H 0.37273 0.41454 0.67773 0.0
H2895 H 0.37453 0.40015 0.76947 0.0
H2896 H 0.39921 0.40144 0.71663 0.0
H2897 H 0.34786 0.41773 0.73041 0.0
C2898 C 0.34585 0.42437 0.706 0.0
C2899 C 0.35304 0.42418 0.69105 0.0
C2900 C 0.39368 0.4009 0.72815 0.0
C2901 C 0.36771 0.40909 0.71655 0.0
C2902 C 0.40321 0.39854 0.74136 0.0
C2903 C 0.39656 0.39849 0.75652 0.0
C2904 C 0.37741 0.40366 0.73011 0.0
C2905 C 0.38009 0.40009 0.75795 0.0
C2906 C 0.35313 0.41678 0.71878 0.0
C2907 C 0.36692 0.41528 0.6891 0.0
N2908 N 0.37108 0.40294 0.74492 0.0
N2909 N 0.3739 0.40832 0.70173 0.0
H2910 H 0.35458 0.66126 0.49222 0.0
H2911 H 0.32348 0.58161 0.45613 0.0
H2912 H 0.35838 0.61779 0.5185 0.0
H2913 H 0.34002 0.62042 0.42743 0.0
H2914 H 0.33655 0.59366 0.47912 0.0
H2915 H 0.34945 0.64601 0.46826 0.0
C2916 C 0.35457 0.64846 0.49286 0.0
C2917 C 0.35689 0.64075 0.50731 0.0
C2918 C 0.33754 0.59934 0.4677 0.0
C2919 C 0.3506 0.62319 0.48002 0.0
C2920 C 0.33009 0.59247 0.45457 0.0
C2921 C 0.3304 0.60014 0.43986 0.0
C2922 C 0.34514 0.61404 0.46608 0.0
C2923 C 0.3392 0.61418 0.43856 0.0
C2924 C 0.35166 0.63975 0.47919 0.0
C2925 C 0.35673 0.62415 0.50753 0.0
N2926 N 0.34597 0.62078 0.45152 0.0
N2927 N 0.35331 0.61588 0.49412 0.0
H2928 H 0.32504 0.15518 0.41587 0.0
H2929 H 0.24545 0.11585 0.4398 0.0
H2930 H 0.30106 0.16827 0.45892 0.0
H2931 H 0.25458 0.12549 0.3906 0.0
H2932 H 0.26693 0.13373 0.44708 0.0
H2933 H 0.30032 0.14372 0.4059 0.0
C2934 C 0.31447 0.15598 0.42306 0.0
C2935 C 0.31509 0.16263 0.43827 0.0
C2936 C 0.26416 0.13205 0.43469 0.0
C2937 C 0.28702 0.14913 0.42715 0.0
C2938 C 0.25202 0.12172 0.43051 0.0
C2939 C 0.24834 0.11907 0.41456 0.0
C2940 C 0.273 0.13952 0.42284 0.0
C2941 C 0.2571 0.12717 0.40303 0.0
C2942 C 0.3004 0.14944 0.41736 0.0
C2943 C 0.30108 0.16332 0.44711 0.0
N2944 N 0.26924 0.13686 0.40739 0.0
N2945 N 0.28769 0.15631 0.44157 0.0
H2946 H 0.79766 0.33734 0.53842 0.0
H2947 H 0.7502 0.37735 0.60994 0.0
H2948 H 0.81791 0.34284 0.58487 0.0
H2949 H 0.74483 0.39055 0.56101 0.0
H2950 H 0.77066 0.35816 0.60206 0.0
H2951 H 0.77313 0.34949 0.54808 0.0
C2952 C 0.79673 0.34055 0.55079 0.0
C2953 C 0.80983 0.33921 0.56085 0.0
C2954 C 0.76487 0.36521 0.59309 0.0
C2955 C 0.78201 0.35322 0.57187 0.0
C2956 C 0.75327 0.37616 0.59757 0.0
C2957 C 0.74601 0.38573 0.58614 0.0
C2958 C 0.76887 0.36356 0.57706 0.0
C2959 C 0.75032 0.38362 0.57025 0.0
C2960 C 0.78283 0.34766 0.55623 0.0
C2961 C 0.80808 0.34378 0.57672 0.0
N2962 N 0.76143 0.37277 0.56618 0.0
N2963 N 0.79448 0.35074 0.58173 0.0
H2964 H 0.38818 0.98295 0.34561 0.0
H2965 H 0.3925 0.07725 0.34015 0.0
H2966 H 0.34998 0.01475 0.357 0.0
H2967 H 0.42394 0.04686 0.31379 0.0
H2968 H 0.38107 0.0541 0.35277 0.0
H2969 H 0.40521 0.00593 0.34011 0.0
C2970 C 0.38352 0.99475 0.34736 0.0
C2971 C 0.36764 0.997 0.35167 0.0
C2972 C 0.39058 0.05247 0.34436 0.0
C2973 C 0.38694 0.02316 0.34545 0.0
C2974 C 0.39715 0.0657 0.33713 0.0
C2975 C 0.40901 0.06399 0.32563 0.0
C2976 C 0.39581 0.03732 0.34009 0.0
C2977 C 0.41472 0.04871 0.32247 0.0
C2978 C 0.39319 0.00782 0.3441 0.0
C2979 C 0.36212 0.01251 0.35359 0.0
N2980 N 0.4079 0.0359 0.3295 0.0
N2981 N 0.37172 0.02496 0.3504 0.0
H2982 H 0.70338 0.66859 0.06931 0.0
H2983 H 0.74133 0.58944 0.10041 0.0
H2984 H 0.67574 0.62866 0.0851 0.0
H2985 H 0.76679 0.63353 0.1036 0.0
H2986 H 0.71713 0.60406 0.09474 0.0
H2987 H 0.72683 0.65676 0.08176 0.0
C2988 C 0.70217 0.65749 0.07556 0.0
C2989 C 0.68759 0.64951 0.07593 0.0
C2990 C 0.72793 0.6106 0.09691 0.0
C2991 C 0.7143 0.63592 0.09003 0.0
C2992 C 0.74174 0.60225 0.10014 0.0
C2993 C 0.75602 0.61031 0.10247 0.0
C2994 C 0.72845 0.62715 0.09557 0.0
C2995 C 0.75594 0.62691 0.10197 0.0
C2996 C 0.71554 0.65076 0.08267 0.0
C2997 C 0.68673 0.63517 0.08427 0.0
N2998 N 0.74239 0.63482 0.09828 0.0
N2999 N 0.69991 0.62877 0.09077 0.0
H3000 H 0.63123 0.50472 0.36876 0.0
H3001 H 0.58652 0.46047 0.29807 0.0
H3002 H 0.63871 0.51536 0.3195 0.0
H3003 H 0.60192 0.4353 0.3396 0.0
H3004 H 0.59823 0.48473 0.3089 0.0
H3005 H 0.61361 0.48276 0.36087 0.0
C3006 C 0.62905 0.50252 0.35634 0.0
C3007 C 0.63658 0.51168 0.34475 0.0
C3008 C 0.59875 0.47394 0.31575 0.0
C3009 C 0.61623 0.48716 0.33574 0.0
C3010 C 0.59196 0.46014 0.30965 0.0
C3011 C 0.59338 0.44584 0.31789 0.0
C3012 C 0.60673 0.47347 0.3303 0.0
C3013 C 0.60071 0.44607 0.33281 0.0
C3014 C 0.61905 0.49005 0.35186 0.0
C3015 C 0.63334 0.50841 0.32881 0.0
N3016 N 0.60719 0.45966 0.33852 0.0
N3017 N 0.62338 0.49648 0.32478 0.0
H3018 H 0.21504 0.82525 0.9388 0.0
H3019 H 0.23909 0.90174 0.89189 0.0
H3020 H 0.18161 0.85512 0.91451 0.0
H3021 H 0.27328 0.86586 0.90374 0.0
H3022 H 0.21786 0.88308 0.89757 0.0
H3023 H 0.23654 0.83773 0.92378 0.0
C3024 C 0.21218 0.83412 0.93004 0.0
C3025 C 0.19655 0.83938 0.92813 0.0
C3026 C 0.22999 0.87912 0.89865 0.0
C3027 C 0.22101 0.85379 0.91112 0.0
C3028 C 0.24211 0.88979 0.89537 0.0
C3029 C 0.25793 0.88535 0.89743 0.0
C3030 C 0.23368 0.864 0.90447 0.0
C3031 C 0.26121 0.86972 0.90197 0.0
C3032 C 0.22446 0.84128 0.92151 0.0
C3033 C 0.19352 0.85092 0.91661 0.0
N3034 N 0.24917 0.85968 0.90569 0.0
N3035 N 0.20563 0.8579 0.90876 0.0
H3036 H 0.40584 0.93571 0.15833 0.0
H3037 H 0.3726 0.01704 0.1817 0.0
H3038 H 0.42717 0.96304 0.19576 0.0
H3039 H 0.37282 0.00405 0.13241 0.0
H3040 H 0.39238 0.99675 0.18693 0.0
H3041 H 0.39427 0.95998 0.14761 0.0
C3042 C 0.4085 0.94691 0.164 0.0
C3043 C 0.41734 0.94738 0.17804 0.0
C3044 C 0.38828 0.99844 0.17492 0.0
C3045 C 0.40376 0.97498 0.16615 0.0
C3046 C 0.37685 0.00988 0.17197 0.0
C3047 C 0.37095 0.01203 0.15664 0.0
C3048 C 0.39356 0.98873 0.16256 0.0
C3049 C 0.37704 1.00263 0.1444 0.0
C3050 C 0.40187 0.96072 0.15788 0.0
C3051 C 0.42042 0.96215 0.18493 0.0
N3052 N 0.38782 0.9911 0.14768 0.0
N3053 N 0.41326 0.97533 0.17916 0.0
H3054 H 0.09616 0.07333 0.6636 0.0
H3055 H 0.1351 0.99422 0.686 0.0
H3056 H 0.07615 0.04428 0.70037 0.0
H3057 H 0.13109 0.00531 0.63645 0.0
H3058 H 0.11503 0.01411 0.6919 0.0
H3059 H 0.10988 0.05002 0.65304 0.0
C3060 C 0.09433 0.06196 0.66919 0.0
C3061 C 0.08508 0.06072 0.68292 0.0
C3062 C 0.11843 0.01212 0.67972 0.0
C3063 C 0.10107 0.03428 0.67122 0.0
C3064 C 0.12999 1.00091 0.67636 0.0
C3065 C 0.13483 0.99827 0.66073 0.0
C3066 C 0.11195 0.02111 0.66744 0.0
C3067 C 0.12768 0.00708 0.64865 0.0
C3068 C 0.10215 0.0487 0.66316 0.0
C3069 C 0.08313 0.04574 0.68974 0.0
N3070 N 0.11676 0.0184 0.65228 0.0
N3071 N 0.0914 0.03317 0.68406 0.0
H3072 H 0.09154 0.10162 0.36827 0.0
H3073 H 0.1678 0.074 0.37129 0.0
H3074 H 0.10471 0.12546 0.32528 0.0
H3075 H 0.17651 0.1215 0.3549 0.0
H3076 H 0.14097 0.07548 0.36041 0.0
H3077 H 0.11836 0.09091 0.37022 0.0
C3078 C 0.09998 0.10419 0.35899 0.0
C3079 C 0.09595 0.11433 0.34656 0.0
C3080 C 0.14891 0.08541 0.3589 0.0
C3081 C 0.1267 0.10249 0.34888 0.0
C3082 C 0.16427 0.08453 0.36494 0.0
C3083 C 0.1743 0.09776 0.36422 0.0
C3084 C 0.14366 0.09954 0.35196 0.0
C3085 C 0.16907 0.11112 0.35589 0.0
C3086 C 0.11526 0.09803 0.36006 0.0
C3087 C 0.10736 0.11752 0.33494 0.0
N3088 N 0.15403 0.11175 0.35023 0.0
N3089 N 0.12239 0.112 0.33663 0.0
H3090 H 0.13172 0.84979 0.5804 0.0
H3091 H 0.18189 0.91405 0.62817 0.0
H3092 H 0.15298 0.84071 0.62578 0.0
H3093 H 0.13782 0.92505 0.60505 0.0
H3094 H 0.17964 0.88668 0.61868 0.0
H3095 H 0.1424 0.87686 0.58125 0.0
C3096 C 0.13912 0.85331 0.59025 0.0
C3097 C 0.14145 0.84309 0.60309 0.0
C3098 C 0.17076 0.89526 0.61528 0.0
C3099 C 0.15376 0.87375 0.604 0.0
C3100 C 0.17208 0.91088 0.62056 0.0
C3101 C 0.15995 0.92176 0.61746 0.0
C3102 C 0.15741 0.89066 0.60656 0.0
C3103 C 0.14737 0.91697 0.60776 0.0
C3104 C 0.14509 0.86874 0.59076 0.0
C3105 C 0.1509 0.84828 0.61569 0.0
N3106 N 0.14634 0.90171 0.60275 0.0
N3107 N 0.15665 0.8633 0.61588 0.0
H3108 H 0.34699 0.87679 0.89044 0.0
H3109 H 0.41552 0.88534 0.82936 0.0
H3110 H 0.34438 0.91652 0.85854 0.0
H3111 H 0.42324 0.87351 0.87835 0.0
H3112 H 0.38893 0.89511 0.83639 0.0
H3113 H 0.37401 0.87208 0.88203 0.0
C3114 C 0.35202 0.88446 0.88151 0.0
C3115 C 0.34338 0.89714 0.87524 0.0
C3116 C 0.39666 0.89067 0.84556 0.0
C3117 C 0.37453 0.89173 0.86557 0.0
C3118 C 0.41183 0.88517 0.84161 0.0
C3119 C 0.42154 0.87838 0.85326 0.0
C3120 C 0.39125 0.88906 0.86116 0.0
C3121 C 0.41612 0.8784 0.86892 0.0
C3122 C 0.36753 0.88183 0.87683 0.0
C3123 C 0.35066 0.90665 0.8637 0.0
N3124 N 0.40127 0.88334 0.87234 0.0
N3125 N 0.36588 0.90372 0.85914 0.0
H3126 H 0.37353 0.15845 0.07699 0.0
H3127 H 0.3222 0.09549 0.12503 0.0
H3128 H 0.35006 0.16864 0.12108 0.0
H3129 H 0.36525 0.08393 0.10026 0.0
H3130 H 0.32419 0.12269 0.11515 0.0
H3131 H 0.36211 0.13175 0.07743 0.0
C3132 C 0.36551 0.15528 0.08645 0.0
C3133 C 0.36284 0.16568 0.09911 0.0
C3134 C 0.33289 0.11403 0.11149 0.0
C3135 C 0.34974 0.13534 0.09959 0.0
C3136 C 0.33171 0.0985 0.117 0.0
C3137 C 0.34368 0.08752 0.11356 0.0
C3138 C 0.34595 0.11847 0.10226 0.0
C3139 C 0.35585 0.0921 0.10328 0.0
C3140 C 0.3591 0.14003 0.08673 0.0
C3141 C 0.35251 0.16091 0.11117 0.0
N3142 N 0.35678 0.10729 0.09811 0.0
N3143 N 0.34644 0.14602 0.1112 0.0
H3144 H 0.16942 0.88474 0.15367 0.0
H3145 H 0.08406 0.90505 0.13541 0.0
H3146 H 0.15938 0.92992 0.13243 0.0
H3147 H 0.09487 0.88268 0.17985 0.0
H3148 H 0.11121 0.91516 0.13424 0.0
H3149 H 0.14238 0.88393 0.16406 0.0
C3150 C 0.16162 0.89469 0.15159 0.0
C3151 C 0.16657 0.90743 0.14224 0.0
C3152 C 0.1075 0.90844 0.14448 0.0
C3153 C 0.13555 0.9063 0.15351 0.0
C3154 C 0.09203 0.90268 0.14515 0.0
C3155 C 0.08727 0.893 0.15772 0.0
C3156 C 0.11839 0.904 0.15617 0.0
C3157 C 0.09807 0.89017 0.16999 0.0
C3158 C 0.14622 0.89424 0.15752 0.0
C3159 C 0.15601 0.91996 0.13972 0.0
N3160 N 0.11329 0.89524 0.16869 0.0
N3161 N 0.14081 0.91888 0.14494 0.0
H3162 H 0.36527 0.84185 0.4273 0.0
H3163 H 0.37595 0.90617 0.36278 0.0
H3164 H 0.37381 0.83038 0.37832 0.0
H3165 H 0.3366 0.91278 0.39464 0.0
H3166 H 0.37907 0.87935 0.37251 0.0
H3167 H 0.35671 0.86851 0.41915 0.0
C3168 C 0.36494 0.84475 0.41485 0.0
C3169 C 0.3705 0.83393 0.40349 0.0
C3170 C 0.36977 0.88668 0.37742 0.0
C3171 C 0.36121 0.86429 0.39429 0.0
C3172 C 0.36806 0.90207 0.37199 0.0
C3173 C 0.35595 0.91177 0.37786 0.0
C3174 C 0.35952 0.88088 0.38905 0.0
C3175 C 0.34607 0.90567 0.38978 0.0
C3176 C 0.36013 0.85995 0.41025 0.0
C3177 C 0.36987 0.83836 0.38752 0.0
N3178 N 0.34811 0.89056 0.39509 0.0
N3179 N 0.36567 0.85327 0.38345 0.0
H3180 H 0.39973 0.14625 0.63171 0.0
H3181 H 0.3362 0.08084 0.63752 0.0
H3182 H 0.40791 0.1104 0.66705 0.0
H3183 H 0.32416 0.1303 0.63401 0.0
H3184 H 0.36271 0.08843 0.64701 0.0
H3185 H 0.37256 0.13731 0.62923 0.0
C3186 C 0.39587 0.13636 0.63887 0.0
C3187 C 0.40614 0.12905 0.6496 0.0
C3188 C 0.35405 0.09753 0.64456 0.0
C3189 C 0.37485 0.11877 0.64678 0.0
C3190 C 0.33891 0.09324 0.63924 0.0
C3191 C 0.32805 0.10498 0.63471 0.0
C3192 C 0.35823 0.11359 0.64507 0.0
C3193 C 0.33223 0.12086 0.63709 0.0
C3194 C 0.38028 0.13139 0.63755 0.0
C3195 C 0.40034 0.11635 0.65864 0.0
N3196 N 0.34709 0.12469 0.64175 0.0
N3197 N 0.38503 0.11146 0.65692 0.0
H3198 H 0.13185 0.08706 0.90258 0.0
H3199 H 0.15176 0.17345 0.88826 0.0
H3200 H 0.17668 0.09872 0.88131 0.0
H3201 H 0.12853 0.16038 0.93167 0.0
H3202 H 0.16216 0.1465 0.88601 0.0
H3203 H 0.13088 0.11352 0.91436 0.0
C3204 C 0.14171 0.09505 0.90079 0.0
C3205 C 0.15435 0.09074 0.89097 0.0
C3206 C 0.15519 0.14966 0.89628 0.0
C3207 C 0.15304 0.12116 0.90387 0.0
C3208 C 0.14928 0.16503 0.89758 0.0
C3209 C 0.13926 0.16911 0.91015 0.0
C3210 C 0.15057 0.13818 0.90733 0.0
C3211 C 0.13628 0.15772 0.92183 0.0
C3212 C 0.14115 0.11014 0.9075 0.0
C3213 C 0.16677 0.10157 0.8889 0.0
N3214 N 0.14152 0.14262 0.9199 0.0
N3215 N 0.16559 0.11647 0.89491 0.0
H3216 H 0.0777 0.37547 0.15806 0.0
H3217 H 0.12532 0.32447 0.09445 0.0
H3218 H 0.12218 0.35268 0.16809 0.0
H3219 H 0.10317 0.36914 0.08399 0.0
H3220 H 0.11532 0.32632 0.12168 0.0
H3221 H 0.07841 0.36428 0.13127 0.0
C3222 C 0.08728 0.36759 0.15485 0.0
C3223 C 0.09999 0.36508 0.16521 0.0
C3224 C 0.11223 0.33542 0.11323 0.0
C3225 C 0.10076 0.35224 0.1348 0.0
C3226 C 0.11781 0.33433 0.09771 0.0
C3227 C 0.11509 0.34672 0.08706 0.0
C3228 C 0.1036 0.3488 0.11791 0.0
C3229 C 0.10555 0.35938 0.09191 0.0
C3230 C 0.08772 0.36133 0.13955 0.0
C3231 C 0.11223 0.35497 0.16038 0.0
N3232 N 0.10022 0.36016 0.10704 0.0
N3233 N 0.11239 0.34902 0.14545 0.0
H3234 H 0.62247 0.18362 0.90635 0.0
H3235 H 0.57585 0.13203 0.84238 0.0
H3236 H 0.60025 0.13899 0.91698 0.0
H3237 H 0.62017 0.15533 0.8327 0.0
H3238 H 0.57637 0.14302 0.86927 0.0
H3239 H 0.61296 0.18139 0.87898 0.0
C3240 C 0.61507 0.17368 0.90308 0.0
C3241 C 0.61219 0.16141 0.91385 0.0
C3242 C 0.58569 0.1461 0.86105 0.0
C3243 C 0.60125 0.1589 0.88281 0.0
C3244 C 0.58536 0.13995 0.84571 0.0
C3245 C 0.59806 0.14271 0.8354 0.0
C3246 C 0.59862 0.15533 0.86591 0.0
C3247 C 0.61022 0.15286 0.84036 0.0
C3248 C 0.60978 0.17237 0.88748 0.0
C3249 C 0.60277 0.14865 0.90897 0.0
N3250 N 0.61027 0.15872 0.85533 0.0
N3251 N 0.59772 0.14766 0.89375 0.0
H3252 H 0.92608 0.86955 0.33679 0.0
H3253 H 0.86843 0.88006 0.40747 0.0
H3254 H 0.87709 0.88258 0.33073 0.0
H3255 H 0.89621 0.83721 0.40776 0.0
H3256 H 0.8767 0.88491 0.38043 0.0
H3257 H 0.91964 0.85963 0.36345 0.0
C3258 C 0.91394 0.86993 0.34085 0.0
C3259 C 0.90214 0.87712 0.3316 0.0
C3260 C 0.88106 0.87448 0.38644 0.0
C3261 C 0.89494 0.86631 0.36196 0.0
C3262 C 0.87647 0.87175 0.40195 0.0
C3263 C 0.88153 0.85812 0.40991 0.0
C3264 C 0.89103 0.86371 0.37878 0.0
C3265 C 0.89198 0.84783 0.40203 0.0
C3266 C 0.91033 0.86436 0.35605 0.0
C3267 C 0.88663 0.87737 0.33749 0.0
N3268 N 0.89645 0.85084 0.38681 0.0
N3269 N 0.88357 0.8724 0.35239 0.0
H3270 H 0.92973 0.13989 0.16342 0.0
H3271 H 0.86559 0.13332 0.09908 0.0
H3272 H 0.88032 0.1342 0.17495 0.0
H3273 H 0.89747 0.17288 0.09372 0.0
H3274 H 0.87517 0.12957 0.12586 0.0
H3275 H 0.92197 0.14999 0.13721 0.0
C3276 C 0.91729 0.14122 0.16066 0.0
C3277 C 0.90564 0.13594 0.17129 0.0
C3278 C 0.88011 0.13905 0.1188 0.0
C3279 C 0.89687 0.14699 0.14146 0.0
C3280 C 0.87477 0.14113 0.10344 0.0
C3281 C 0.8807 0.15348 0.09411 0.0
C3282 C 0.89172 0.14915 0.12493 0.0
C3283 C 0.89257 0.16324 0.10055 0.0
C3284 C 0.91291 0.1469 0.14571 0.0
C3285 C 0.88971 0.13786 0.16707 0.0
N3286 N 0.89781 0.16082 0.11562 0.0
N3287 N 0.88582 0.14286 0.15237 0.0
H3288 H 0.43282 0.63117 0.65974 0.0
H3289 H 0.3825 0.68068 0.59714 0.0
H3290 H 0.38764 0.65221 0.67045 0.0
H3291 H 0.40626 0.63711 0.5854 0.0
H3292 H 0.39266 0.67856 0.62424 0.0
H3293 H 0.43102 0.64181 0.63277 0.0
C3294 C 0.42282 0.63852 0.6566 0.0
C3295 C 0.41031 0.64078 0.66725 0.0
C3296 C 0.39602 0.66976 0.61556 0.0
C3297 C 0.40829 0.65303 0.63668 0.0
C3298 C 0.39036 0.67101 0.60009 0.0
C3299 C 0.39348 0.65898 0.58908 0.0
C3300 C 0.40514 0.6566 0.61987 0.0
C3301 C 0.40352 0.64657 0.59359 0.0
C3302 C 0.42176 0.64447 0.64122 0.0
C3303 C 0.39748 0.65017 0.66253 0.0
N3304 N 0.40891 0.64562 0.6087 0.0
N3305 N 0.39675 0.65589 0.64754 0.0
H3306 H 0.08726 0.64186 0.34121 0.0
H3307 H 0.13352 0.6222 0.41976 0.0
H3308 H 0.12986 0.61379 0.34328 0.0
H3309 H 0.1177 0.6703 0.41328 0.0
H3310 H 0.12447 0.61587 0.39322 0.0
H3311 H 0.09212 0.6504 0.36876 0.0
C3312 C 0.09768 0.63766 0.34734 0.0
C3313 C 0.10814 0.62705 0.33993 0.0
C3314 C 0.12279 0.62776 0.39768 0.0
C3315 C 0.11337 0.63628 0.37127 0.0
C3316 C 0.12786 0.6314 0.41287 0.0
C3317 C 0.12661 0.64689 0.41868 0.0
C3318 C 0.11627 0.63963 0.38817 0.0
C3319 C 0.11898 0.65823 0.40921 0.0
C3320 C 0.10039 0.64249 0.363 0.0
C3321 C 0.12143 0.62193 0.34843 0.0
N3322 N 0.1142 0.65442 0.39426 0.0
N3323 N 0.12351 0.62641 0.36366 0.0
H3324 H 0.37941 0.37666 0.84113 0.0
H3325 H 0.39777 0.3306 0.91811 0.0
H3326 H 0.42825 0.36234 0.8455 0.0
H3327 H 0.37871 0.37798 0.91847 0.0
H3328 H 0.40628 0.33474 0.89046 0.0
H3329 H 0.37481 0.36831 0.86825 0.0
C3330 C 0.38912 0.37146 0.84765 0.0
C3331 C 0.40433 0.37044 0.84108 0.0
C3332 C 0.40045 0.34421 0.89682 0.0
C3333 C 0.39898 0.36078 0.87214 0.0
C3334 C 0.39564 0.34192 0.91253 0.0
C3335 C 0.38739 0.35392 0.92058 0.0
C3336 C 0.3966 0.35841 0.8892 0.0
C3337 C 0.3849 0.36833 0.91277 0.0
C3338 C 0.38646 0.36676 0.86314 0.0
C3339 C 0.41638 0.36343 0.85016 0.0
N3340 N 0.38919 0.37005 0.89745 0.0
N3341 N 0.4135 0.35897 0.86538 0.0
H3342 H 0.90885 0.88079 0.68282 0.0
H3343 H 0.84699 0.92859 0.62997 0.0
H3344 H 0.92137 0.90311 0.63877 0.0
H3345 H 0.83596 0.88463 0.65324 0.0
H3346 H 0.87377 0.92749 0.64121 0.0
H3347 H 0.88177 0.89079 0.67985 0.0
C3348 C 0.90608 0.88831 0.67285 0.0
C3349 C 0.91732 0.89104 0.66095 0.0
C3350 C 0.86529 0.91836 0.6442 0.0
C3351 C 0.8865 0.90251 0.65758 0.0
C3352 C 0.85 0.91903 0.63792 0.0
C3353 C 0.83931 0.90662 0.64064 0.0
C3354 C 0.86972 0.9054 0.65355 0.0
C3355 C 0.8439 0.89438 0.65081 0.0
C3356 C 0.89061 0.89388 0.67112 0.0
C3357 C 0.91302 0.90067 0.64816 0.0
N3358 N 0.85881 0.89401 0.65683 0.0
N3359 N 0.89789 0.90596 0.64673 0.0
H3360 H 0.83124 0.1016 0.38078 0.0
H3361 H 0.88054 0.16541 0.42997 0.0
H3362 H 0.87526 0.09134 0.4043 0.0
H3363 H 0.85952 0.17551 0.38468 0.0
H3364 H 0.86932 0.13867 0.42881 0.0
H3365 H 0.8328 0.12898 0.39059 0.0
C3366 C 0.84089 0.10495 0.38852 0.0
C3367 C 0.85319 0.0943 0.39173 0.0
C3368 C 0.86675 0.14696 0.4194 0.0
C3369 C 0.85491 0.1253 0.40302 0.0
C3370 C 0.87302 0.16224 0.4201 0.0
C3371 C 0.87106 0.17261 0.40732 0.0
C3372 C 0.85819 0.1422 0.40601 0.0
C3373 C 0.86139 0.16781 0.39471 0.0
C3374 C 0.84182 0.12055 0.39399 0.0
C3375 C 0.86559 0.09926 0.40155 0.0
N3376 N 0.85543 0.15287 0.39429 0.0
N3377 N 0.86619 0.11445 0.4068 0.0
H3378 H 0.66047 0.07833 0.12962 0.0
H3379 H 0.60094 0.12891 0.18271 0.0
H3380 H 0.67336 0.1229 0.15085 0.0
H3381 H 0.58742 0.10671 0.13885 0.0
H3382 H 0.62787 0.11841 0.17932 0.0
H3383 H 0.63414 0.08057 0.14168 0.0
C3384 C 0.65798 0.08826 0.13733 0.0
C3385 C 0.66903 0.10051 0.13918 0.0
C3386 C 0.61883 0.11547 0.17073 0.0
C3387 C 0.63913 0.10304 0.15301 0.0
C3388 C 0.60349 0.12134 0.17269 0.0
C3389 C 0.59203 0.1187 0.16099 0.0
C3390 C 0.62254 0.1066 0.1572 0.0
C3391 C 0.59597 0.10904 0.14809 0.0
C3392 C 0.64294 0.08957 0.14408 0.0
C3393 C 0.66512 0.11325 0.14908 0.0
N3394 N 0.61094 0.10339 0.14648 0.0
N3395 N 0.65042 0.11426 0.15554 0.0
H3396 H 0.61934 0.84668 0.8795 0.0
H3397 H 0.68014 0.91406 0.89067 0.0
H3398 H 0.64859 0.84269 0.92114 0.0
H3399 H 0.63069 0.9233 0.88197 0.0
H3400 H 0.67304 0.88719 0.89957 0.0
H3401 H 0.6283 0.87378 0.87616 0.0
C3402 C 0.62783 0.85141 0.88785 0.0
C3403 C 0.63317 0.84238 0.90068 0.0
C3404 C 0.66381 0.89532 0.89605 0.0
C3405 C 0.64347 0.87354 0.89681 0.0
C3406 C 0.6678 0.91063 0.89103 0.0
C3407 C 0.656 0.92087 0.88533 0.0
C3408 C 0.64802 0.8903 0.89502 0.0
C3409 C 0.64022 0.91578 0.88601 0.0
C3410 C 0.63282 0.86694 0.88599 0.0
C3411 C 0.64416 0.84927 0.91112 0.0
N3412 N 0.63674 0.90077 0.89039 0.0
N3413 N 0.64905 0.86452 0.90893 0.0
H3414 H 0.84027 0.07207 0.87577 0.0
H3415 H 0.91727 0.09834 0.87292 0.0
H3416 H 0.83231 0.11935 0.85846 0.0
H3417 H 0.90429 0.12307 0.83037 0.0
H3418 H 0.89035 0.08787 0.87472 0.0
H3419 H 0.86737 0.07322 0.8655 0.0
C3420 C 0.84405 0.0825 0.86939 0.0
C3421 C 0.83411 0.09574 0.86817 0.0
C3422 C 0.89351 0.09513 0.86467 0.0
C3423 C 0.86506 0.09717 0.85663 0.0
C3424 C 0.90887 0.10114 0.86368 0.0
C3425 C 0.91299 0.11152 0.85145 0.0
C3426 C 0.88209 0.09992 0.85361 0.0
C3427 C 0.9016 0.11497 0.83989 0.0
C3428 C 0.85956 0.0832 0.8637 0.0
C3429 C 0.83966 0.10896 0.85983 0.0
N3430 N 0.88652 0.10956 0.84151 0.0
N3431 N 0.85483 0.10941 0.8545 0.0
H3432 H 0.63868 0.16061 0.5766 0.0
H3433 H 0.62717 0.08833 0.63189 0.0
H3434 H 0.62318 0.16535 0.625 0.0
H3435 H 0.67356 0.09165 0.61077 0.0
H3436 H 0.62113 0.11469 0.62216 0.0
H3437 H 0.64872 0.1339 0.58291 0.0
C3438 C 0.63769 0.15623 0.58858 0.0
C3439 C 0.62992 0.16519 0.60025 0.0
C3440 C 0.63255 0.10954 0.61949 0.0
C3441 C 0.64086 0.13479 0.60726 0.0
C3442 C 0.63602 0.09445 0.62495 0.0
C3443 C 0.651 0.0878 0.62233 0.0
C3444 C 0.644 0.11806 0.61111 0.0
C3445 C 0.6619 0.09638 0.61312 0.0
C3446 C 0.64336 0.14102 0.59211 0.0
C3447 C 0.62891 0.15888 0.61556 0.0
N3448 N 0.65822 0.1112 0.60787 0.0
N3449 N 0.634 0.14399 0.61851 0.0
H3450 H 0.6643 0.92544 0.36729 0.0
H3451 H 0.59642 0.86635 0.38032 0.0
H3452 H 0.67296 0.8761 0.37705 0.0
H3453 H 0.5933 0.89163 0.33611 0.0
H3454 H 0.62331 0.87591 0.3836 0.0
H3455 H 0.63743 0.91841 0.3582 0.0
C3456 C 0.66076 0.91313 0.36709 0.0
C3457 C 0.67078 0.90136 0.37319 0.0
C3458 C 0.61668 0.87946 0.37324 0.0
C3459 C 0.64028 0.89347 0.36327 0.0
C3460 C 0.60128 0.87411 0.37137 0.0
C3461 C 0.5926 0.87806 0.35782 0.0
C3462 C 0.6235 0.88907 0.36165 0.0
C3463 C 0.59963 0.88824 0.34669 0.0
C3464 C 0.64546 0.90918 0.36197 0.0
C3465 C 0.66557 0.88561 0.37272 0.0
N3466 N 0.61477 0.89345 0.34883 0.0
N3467 N 0.65058 0.88219 0.36823 0.0
H3468 H 0.86552 0.84389 0.07418 0.0
H3469 H 0.87248 0.90766 0.13836 0.0
H3470 H 0.86523 0.83191 0.12374 0.0
H3471 H 0.83594 0.91645 0.10382 0.0
H3472 H 0.87418 0.88045 0.12927 0.0
H3473 H 0.85698 0.8709 0.08114 0.0
C3474 C 0.86319 0.84675 0.08644 0.0
C3475 C 0.86637 0.8357 0.09843 0.0
C3476 C 0.8658 0.88834 0.12365 0.0
C3477 C 0.85707 0.86641 0.10634 0.0
C3478 C 0.86491 0.90394 0.12871 0.0
C3479 C 0.85403 0.91438 0.12184 0.0
C3480 C 0.85601 0.88309 0.11138 0.0
C3481 C 0.84446 0.90875 0.10944 0.0
C3482 C 0.85839 0.86215 0.09037 0.0
C3483 C 0.86321 0.84008 0.11412 0.0
N3484 N 0.84576 0.89342 0.10445 0.0
N3485 N 0.85913 0.85517 0.11764 0.0
H3486 H 0.92657 0.63851 0.83795 0.0
H3487 H 0.86819 0.62493 0.90591 0.0
H3488 H 0.87681 0.63115 0.82916 0.0
H3489 H 0.89408 0.6688 0.91003 0.0
H3490 H 0.87727 0.62238 0.87877 0.0
H3491 H 0.92007 0.64698 0.86509 0.0
C3492 C 0.91429 0.63914 0.84152 0.0
C3493 C 0.90222 0.63388 0.83133 0.0
C3494 C 0.88107 0.63249 0.88569 0.0
C3495 C 0.89491 0.64305 0.86221 0.0
C3496 C 0.87601 0.63393 0.90123 0.0
C3497 C 0.88027 0.64719 0.91028 0.0
C3498 C 0.89072 0.6442 0.8791 0.0
C3499 C 0.89047 0.65843 0.90344 0.0
C3500 C 0.91063 0.64389 0.85699 0.0
C3501 C 0.88652 0.63486 0.83663 0.0
N3502 N 0.89541 0.6567 0.88816 0.0
N3503 N 0.88337 0.63893 0.8518 0.0
H3504 H 0.38923 0.82946 0.08818 0.0
H3505 H 0.37299 0.88122 0.16139 0.0
H3506 H 0.375 0.87833 0.08409 0.0
H3507 H 0.42068 0.86297 0.15999 0.0
H3508 H 0.36904 0.87216 0.13437 0.0
H3509 H 0.39811 0.83489 0.11547 0.0
C3510 C 0.38837 0.84138 0.09281 0.0
C3511 C 0.38117 0.85342 0.08388 0.0
C3512 C 0.38028 0.86994 0.1401 0.0
C3513 C 0.39079 0.85942 0.11492 0.0
C3514 C 0.38256 0.87502 0.15555 0.0
C3515 C 0.39728 0.87306 0.16294 0.0
C3516 C 0.39269 0.86261 0.13195 0.0
C3517 C 0.40917 0.86479 0.1547 0.0
C3518 C 0.39335 0.8444 0.10836 0.0
C3519 C 0.38027 0.86861 0.09053 0.0
N3520 N 0.40667 0.85993 0.1395 0.0
N3521 N 0.38465 0.87108 0.10574 0.0
H3522 H 0.10311 0.17459 0.58904 0.0
H3523 H 0.12168 0.13564 0.66996 0.0
H3524 H 0.12703 0.12965 0.59303 0.0
H3525 H 0.07171 0.14139 0.66115 0.0
H3526 H 0.12714 0.14428 0.64305 0.0
H3527 H 0.09379 0.17154 0.61659 0.0
C3528 C 0.1062 0.16403 0.59557 0.0
C3529 C 0.11592 0.15238 0.58873 0.0
C3530 C 0.11501 0.14399 0.64718 0.0
C3531 C 0.10578 0.14917 0.61999 0.0
C3532 C 0.11185 0.1391 0.66252 0.0
C3533 C 0.09618 0.13751 0.66774 0.0
C3534 C 0.10247 0.1475 0.63698 0.0
C3535 C 0.08395 0.14235 0.65755 0.0
C3536 C 0.10091 0.16235 0.61121 0.0
C3537 C 0.11961 0.13896 0.59774 0.0
N3538 N 0.08733 0.14694 0.64247 0.0
N3539 N 0.11478 0.13787 0.61296 0.0
H3540 H 0.12308 0.87991 0.92687 0.0
H3541 H 0.08577 0.86015 0.84331 0.0
H3542 H 0.11705 0.83074 0.91445 0.0
H3543 H 0.12249 0.89474 0.85139 0.0
H3544 H 0.08959 0.85048 0.87064 0.0
H3545 H 0.11348 0.88736 0.9008 0.0
C3546 C 0.11938 0.87066 0.9188 0.0
C3547 C 0.12115 0.85466 0.92276 0.0
C3548 C 0.09678 0.86013 0.86626 0.0
C3549 C 0.11022 0.86319 0.89282 0.0
C3550 C 0.09467 0.86562 0.85074 0.0
C3551 C 0.10388 0.87823 0.84503 0.0
C3552 C 0.10779 0.86771 0.87613 0.0
C3553 C 0.11518 0.88494 0.85518 0.0
C3554 C 0.11399 0.87494 0.90389 0.0
C3555 C 0.11596 0.84322 0.91183 0.0
N3556 N 0.11666 0.87974 0.87022 0.0
N3557 N 0.11092 0.8477 0.89718 0.0
H3558 H 0.61662 0.35491 0.33342 0.0
H3559 H 0.59621 0.37123 0.41901 0.0
H3560 H 0.57158 0.37624 0.34408 0.0
H3561 H 0.61866 0.32701 0.40724 0.0
H3562 H 0.58611 0.37297 0.39194 0.0
H3563 H 0.61729 0.34367 0.36007 0.0
C3564 C 0.60666 0.35683 0.34125 0.0
C3565 C 0.59404 0.3665 0.33662 0.0
C3566 C 0.59285 0.36265 0.3954 0.0
C3567 C 0.595 0.35422 0.3672 0.0
C3568 C 0.59861 0.36166 0.41083 0.0
C3569 C 0.60828 0.34898 0.4153 0.0
C3570 C 0.59731 0.35117 0.38426 0.0
C3571 C 0.61116 0.33694 0.40424 0.0
C3572 C 0.60704 0.35041 0.35643 0.0
C3573 C 0.58148 0.36876 0.34721 0.0
N3574 N 0.60609 0.33855 0.38907 0.0
N3575 N 0.58248 0.36305 0.36221 0.0
H3576 H 0.86442 0.37596 0.59774 0.0
H3577 H 0.92699 0.36765 0.66373 0.0
H3578 H 0.89922 0.33927 0.59056 0.0
H3579 H 0.8771 0.37151 0.67384 0.0
H3580 H 0.92039 0.359 0.63668 0.0
H3581 H 0.87264 0.37814 0.62514 0.0
C3582 C 0.87395 0.36846 0.60185 0.0
C3583 C 0.88113 0.35739 0.5918 0.0
C3584 C 0.91097 0.36136 0.64503 0.0
C3585 C 0.89058 0.35989 0.62336 0.0
C3586 C 0.91468 0.3662 0.66046 0.0
C3587 C 0.90256 0.37056 0.67099 0.0
C3588 C 0.89509 0.36119 0.64019 0.0
C3589 C 0.88684 0.36853 0.66608 0.0
C3590 C 0.87851 0.36962 0.61757 0.0
C3591 C 0.89337 0.34795 0.59794 0.0
N3592 N 0.88358 0.36436 0.65096 0.0
N3593 N 0.89784 0.34948 0.61339 0.0
H3594 H 0.59749 0.63415 0.08537 0.0
H3595 H 0.61797 0.65384 0.17085 0.0
H3596 H 0.62165 0.67778 0.09612 0.0
H3597 H 0.57368 0.63081 0.16042 0.0
H3598 H 0.61875 0.66402 0.14381 0.0
H3599 H 0.58725 0.63351 0.11242 0.0
C3600 C 0.60025 0.64383 0.09331 0.0
C3601 C 0.6105 0.65598 0.08856 0.0
C3602 C 0.60862 0.65712 0.14755 0.0
C3603 C 0.59929 0.65504 0.1196 0.0
C3604 C 0.60819 0.65131 0.16297 0.0
C3605 C 0.59578 0.64145 0.16781 0.0
C3606 C 0.59685 0.65256 0.13676 0.0
C3607 C 0.58343 0.63844 0.15714 0.0
C3608 C 0.59441 0.64346 0.10873 0.0
C3609 C 0.61376 0.66821 0.09931 0.0
N3610 N 0.58449 0.6436 0.14195 0.0
N3611 N 0.60855 0.6672 0.11449 0.0
H3612 H 0.67146 0.6187 0.85001 0.0
H3613 H 0.59558 0.62378 0.82053 0.0
H3614 H 0.65662 0.57541 0.87236 0.0
H3615 H 0.5855 0.60532 0.86693 0.0
H3616 H 0.62247 0.61303 0.82243 0.0
H3617 H 0.64507 0.6214 0.83843 0.0
C3618 C 0.66279 0.60949 0.85202 0.0
C3619 C 0.66622 0.59678 0.86207 0.0
C3620 C 0.61424 0.61107 0.83203 0.0
C3621 C 0.63591 0.59999 0.84925 0.0
C3622 C 0.59884 0.61703 0.83089 0.0
C3623 C 0.58837 0.6156 0.84369 0.0
C3624 C 0.61906 0.60348 0.84597 0.0
C3625 C 0.59327 0.60683 0.85688 0.0
C3626 C 0.64774 0.61101 0.84539 0.0
C3627 C 0.65448 0.58529 0.86453 0.0
N3628 N 0.60832 0.60121 0.85773 0.0
N3629 N 0.63968 0.58742 0.85855 0.0
H3630 H 0.67794 0.41438 0.11392 0.0
H3631 H 0.62402 0.34438 0.12877 0.0
H3632 H 0.62826 0.42226 0.12277 0.0
H3633 H 0.63839 0.34514 0.0798 0.0
H3634 H 0.63465 0.37099 0.13202 0.0
H3635 H 0.67154 0.38734 0.10489 0.0
C3636 C 0.66569 0.41064 0.11354 0.0
C3637 C 0.65363 0.42056 0.1193 0.0
C3638 C 0.63571 0.36516 0.12066 0.0
C3639 C 0.64646 0.38984 0.10938 0.0
C3640 C 0.62971 0.34996 0.11876 0.0
C3641 C 0.63014 0.34254 0.10392 0.0
C3642 C 0.64242 0.37297 0.10774 0.0
C3643 C 0.63776 0.35046 0.09142 0.0
C3644 C 0.66211 0.39524 0.10844 0.0
C3645 C 0.63798 0.41503 0.11863 0.0
N3646 N 0.64352 0.3654 0.09356 0.0
N3647 N 0.6349 0.39993 0.11416 0.0
H3648 H 0.83636 0.42905 0.36652 0.0
H3649 H 0.90072 0.36337 0.36917 0.0
H3650 H 0.82517 0.37957 0.37216 0.0
H3651 H 0.90712 0.40069 0.33499 0.0
H3652 H 0.87366 0.37199 0.37325 0.0
H3653 H 0.86256 0.42151 0.35618 0.0
C3654 C 0.8392 0.41664 0.36516 0.0
C3655 C 0.82865 0.40492 0.37045 0.0
C3656 C 0.88095 0.37831 0.36482 0.0
C3657 C 0.85851 0.39636 0.3591 0.0
C3658 C 0.89648 0.3735 0.36259 0.0
C3659 C 0.90624 0.38134 0.35173 0.0
C3660 C 0.87505 0.39127 0.35639 0.0
C3661 C 0.89996 0.39433 0.34348 0.0
C3662 C 0.85415 0.41237 0.35934 0.0
C3663 C 0.83299 0.38903 0.36848 0.0
N3664 N 0.88473 0.39903 0.34608 0.0
N3665 N 0.84767 0.38524 0.36329 0.0
H3666 H 0.87553 0.65951 0.57465 0.0
H3667 H 0.82487 0.59471 0.62095 0.0
H3668 H 0.85157 0.66884 0.61866 0.0
H3669 H 0.86973 0.58486 0.59884 0.0
H3670 H 0.82652 0.62209 0.61134 0.0
H3671 H 0.86499 0.63243 0.57501 0.0
C3672 C 0.86758 0.65605 0.58407 0.0
C3673 C 0.8645 0.66632 0.59673 0.0
C3674 C 0.83572 0.61375 0.60819 0.0
C3675 C 0.85238 0.63561 0.5971 0.0
C3676 C 0.83474 0.59814 0.61355 0.0
C3677 C 0.84725 0.58762 0.61074 0.0
C3678 C 0.84911 0.61865 0.5997 0.0
C3679 C 0.85991 0.59269 0.60131 0.0
C3680 C 0.86168 0.6406 0.5843 0.0
C3681 C 0.8543 0.6612 0.60875 0.0
N3682 N 0.86058 0.6079 0.59621 0.0
N3683 N 0.84869 0.64613 0.60871 0.0
H3684 H 0.59111 0.40419 0.63349 0.0
H3685 H 0.66693 0.43276 0.63034 0.0
H3686 H 0.60473 0.3799 0.67609 0.0
H3687 H 0.67611 0.38526 0.64639 0.0
H3688 H 0.64022 0.43104 0.64153 0.0
H3689 H 0.61769 0.41554 0.63178 0.0
C3690 C 0.59959 0.40166 0.64275 0.0
C3691 C 0.59577 0.39118 0.65497 0.0
C3692 C 0.64825 0.42116 0.64291 0.0
C3693 C 0.62625 0.40377 0.65292 0.0
C3694 C 0.66355 0.42219 0.63671 0.0
C3695 C 0.67364 0.40903 0.63723 0.0
C3696 C 0.64317 0.40694 0.64981 0.0
C3697 C 0.6686 0.39559 0.64555 0.0
C3698 C 0.61472 0.40819 0.64182 0.0
C3699 C 0.60721 0.38808 0.66657 0.0
N3700 N 0.65363 0.39482 0.65137 0.0
N3701 N 0.62213 0.39396 0.665 0.0
H3702 H 0.87687 0.34834 0.9317 0.0
H3703 H 0.82537 0.40902 0.88104 0.0
H3704 H 0.85466 0.33568 0.88758 0.0
H3705 H 0.86969 0.42129 0.90303 0.0
H3706 H 0.82783 0.3821 0.89178 0.0
H3707 H 0.86558 0.37498 0.92941 0.0
C3708 C 0.86912 0.35097 0.92185 0.0
C3709 C 0.86678 0.33987 0.90973 0.0
C3710 C 0.83673 0.39088 0.89463 0.0
C3711 C 0.85383 0.37014 0.90715 0.0
C3712 C 0.83529 0.40622 0.88862 0.0
C3713 C 0.84739 0.41729 0.89114 0.0
C3714 C 0.85015 0.38682 0.9035 0.0
C3715 C 0.86016 0.41302 0.90081 0.0
C3716 C 0.86281 0.36618 0.92051 0.0
C3717 C 0.85683 0.34396 0.89711 0.0
N3718 N 0.86126 0.39808 0.90658 0.0
N3719 N 0.85081 0.35883 0.89607 0.0
H3720 H 0.92145 0.60134 0.13354 0.0
H3721 H 0.84549 0.57152 0.13109 0.0
H3722 H 0.90789 0.6241 0.17708 0.0
H3723 H 0.83588 0.61823 0.14924 0.0
H3724 H 0.87272 0.57369 0.14095 0.0
H3725 H 0.89497 0.58975 0.13165 0.0
C3726 C 0.91303 0.60347 0.14296 0.0
C3727 C 0.91684 0.61361 0.15551 0.0
C3728 C 0.86452 0.5833 0.14303 0.0
C3729 C 0.88645 0.60076 0.15325 0.0
C3730 C 0.84895 0.58202 0.13758 0.0
C3731 C 0.83849 0.59481 0.13918 0.0
C3732 C 0.86953 0.59739 0.15029 0.0
C3733 C 0.84363 0.60817 0.1476 0.0
C3734 C 0.89794 0.59682 0.14191 0.0
C3735 C 0.90545 0.61619 0.1673 0.0
N3736 N 0.85884 0.60917 0.15274 0.0
N3737 N 0.89059 0.6102 0.16564 0.0
H3738 H 0.63032 0.65729 0.43404 0.0
H3739 H 0.68006 0.59608 0.38205 0.0
H3740 H 0.65196 0.66979 0.38966 0.0
H3741 H 0.63574 0.58396 0.40415 0.0
H3742 H 0.67785 0.62289 0.39304 0.0
H3743 H 0.64063 0.63028 0.43105 0.0
C3744 C 0.63777 0.65453 0.42399 0.0
C3745 C 0.64028 0.66575 0.41204 0.0
C3746 C 0.66888 0.61418 0.39584 0.0
C3747 C 0.65211 0.63505 0.40866 0.0
C3748 C 0.67018 0.59886 0.38971 0.0
C3749 C 0.65801 0.58782 0.39215 0.0
C3750 C 0.65553 0.61831 0.40479 0.0
C3751 C 0.64533 0.59215 0.40195 0.0
C3752 C 0.6435 0.63911 0.42224 0.0
C3753 C 0.64975 0.66146 0.39911 0.0
N3754 N 0.64436 0.6071 0.40784 0.0
N3755 N 0.65526 0.64641 0.3977 0.0
H3756 H 0.62655 0.85254 0.66833 0.0
H3757 H 0.60285 0.86611 0.58274 0.0
H3758 H 0.58067 0.8726 0.65886 0.0
H3759 H 0.62623 0.82255 0.59506 0.0
H3760 H 0.59391 0.86878 0.61018 0.0
H3761 H 0.62677 0.84112 0.64169 0.0
C3762 C 0.61635 0.85418 0.66076 0.0
C3763 C 0.60357 0.86347 0.66576 0.0
C3764 C 0.6006 0.8584 0.60677 0.0
C3765 C 0.60399 0.85098 0.63516 0.0
C3766 C 0.60567 0.85686 0.59113 0.0
C3767 C 0.61527 0.84409 0.58666 0.0
C3768 C 0.60567 0.8474 0.6181 0.0
C3769 C 0.61875 0.83252 0.59801 0.0
C3770 C 0.61647 0.84766 0.64559 0.0
C3771 C 0.5907 0.86539 0.65546 0.0
N3772 N 0.61434 0.83468 0.61333 0.0
N3773 N 0.59141 0.85956 0.64046 0.0
H3774 H 0.32862 0.38727 0.15735 0.0
H3775 H 0.40508 0.38328 0.18583 0.0
H3776 H 0.34242 0.43117 0.13548 0.0
H3777 H 0.41416 0.40341 0.13993 0.0
H3778 H 0.37782 0.39322 0.18445 0.0
H3779 H 0.35513 0.385 0.16874 0.0
C3780 C 0.33708 0.39671 0.15541 0.0
C3781 C 0.33332 0.40944 0.14549 0.0
C3782 C 0.3859 0.3957 0.17485 0.0
C3783 C 0.36378 0.40674 0.15814 0.0
C3784 C 0.4015 0.39022 0.17569 0.0
C3785 C 0.41182 0.39238 0.16288 0.0
C3786 C 0.38073 0.40357 0.16118 0.0
C3787 C 0.40652 0.40134 0.14998 0.0
C3788 C 0.3522 0.39543 0.16194 0.0
C3789 C 0.34479 0.42123 0.14317 0.0
N3790 N 0.3913 0.40651 0.1494 0.0
N3791 N 0.35966 0.41935 0.14904 0.0
H3792 H 0.37533 0.65464 0.92879 0.0
H3793 H 0.32408 0.59155 0.88067 0.0
H3794 H 0.3532 0.66451 0.884 0.0
H3795 H 0.36854 0.58 0.90278 0.0
H3796 H 0.32638 0.6186 0.89096 0.0
H3797 H 0.36437 0.62768 0.92783 0.0
C3798 C 0.36766 0.65132 0.91908 0.0
C3799 C 0.36517 0.66171 0.90641 0.0
C3800 C 0.33533 0.60996 0.89397 0.0
C3801 C 0.35256 0.6312 0.90538 0.0
C3802 C 0.33398 0.5945 0.88824 0.0
C3803 C 0.34622 0.58359 0.89079 0.0
C3804 C 0.34882 0.61435 0.90259 0.0
C3805 C 0.35891 0.58812 0.90048 0.0
C3806 C 0.36153 0.63596 0.9185 0.0
C3807 C 0.35541 0.65679 0.89396 0.0
N3808 N 0.35997 0.60323 0.90592 0.0
N3809 N 0.3495 0.64184 0.8937 0.0
H3810 H 0.16568 0.58529 0.64795 0.0
H3811 H 0.08271 0.6241 0.62857 0.0
H3812 H 0.15831 0.62231 0.61366 0.0
H3813 H 0.09488 0.61718 0.67761 0.0
H3814 H 0.10873 0.61436 0.62101 0.0
H3815 H 0.13838 0.58954 0.65765 0.0
C3816 C 0.15841 0.59434 0.64256 0.0
C3817 C 0.16431 0.60351 0.63003 0.0
C3818 C 0.10559 0.61472 0.63342 0.0
C3819 C 0.13324 0.60792 0.64058 0.0
C3820 C 0.09071 0.62019 0.63776 0.0
C3821 C 0.0867 0.62173 0.65377 0.0
C3822 C 0.11658 0.61062 0.64511 0.0
C3823 C 0.09755 0.61627 0.66513 0.0
C3824 C 0.1429 0.5967 0.64806 0.0
C3825 C 0.15438 0.61502 0.6234 0.0
N3826 N 0.11217 0.61113 0.6606 0.0
N3827 N 0.13934 0.61675 0.62862 0.0
H3828 H 0.17038 0.41487 0.39419 0.0
H3829 H 0.13061 0.33279 0.37488 0.0
H3830 H 0.13261 0.40828 0.36046 0.0
H3831 H 0.13362 0.3456 0.42419 0.0
H3832 H 0.14153 0.3585 0.36787 0.0
H3833 H 0.1652 0.38791 0.40439 0.0
C3834 C 0.16096 0.40787 0.38905 0.0
C3835 C 0.1519 0.41385 0.37647 0.0
C3836 C 0.1401 0.35553 0.38024 0.0
C3837 C 0.14644 0.38319 0.38758 0.0
C3838 C 0.13393 0.34085 0.38428 0.0
C3839 C 0.13091 0.33715 0.40014 0.0
C3840 C 0.14339 0.36662 0.39211 0.0
C3841 C 0.13566 0.34805 0.41181 0.0
C3842 C 0.15807 0.39257 0.39483 0.0
C3843 C 0.13988 0.40427 0.37019 0.0
N3844 N 0.14147 0.36249 0.40755 0.0
N3845 N 0.13767 0.38939 0.37565 0.0
H3846 H 0.34596 0.57316 0.37406 0.0
H3847 H 0.41055 0.62278 0.32636 0.0
H3848 H 0.33575 0.61728 0.35071 0.0
H3849 H 0.41986 0.5994 0.37062 0.0
H3850 H 0.38341 0.61236 0.32694 0.0
H3851 H 0.37317 0.57453 0.36405 0.0
C3852 C 0.34925 0.5828 0.3663 0.0
C3853 C 0.33867 0.59522 0.36331 0.0
C3854 C 0.39159 0.60914 0.33624 0.0
C3855 C 0.36961 0.59677 0.35185 0.0
C3856 C 0.40707 0.61496 0.33588 0.0
C3857 C 0.41737 0.61201 0.34854 0.0
C3858 C 0.38658 0.60003 0.34915 0.0
C3859 C 0.41222 0.60201 0.3607 0.0
C3860 C 0.36479 0.58362 0.36072 0.0
C3861 C 0.34361 0.60754 0.35337 0.0
N3862 N 0.39713 0.59646 0.36078 0.0
N3863 N 0.3588 0.60809 0.34811 0.0
H3864 H 0.18676 0.59943 0.125 0.0
H3865 H 0.13471 0.66098 0.07591 0.0
H3866 H 0.14519 0.58598 0.09871 0.0
H3867 H 0.15345 0.67091 0.12225 0.0
H3868 H 0.14724 0.63476 0.07678 0.0
H3869 H 0.18313 0.62685 0.11616 0.0
C3870 C 0.17726 0.60212 0.11686 0.0
C3871 C 0.1662 0.59049 0.11262 0.0
C3872 C 0.14897 0.64291 0.08652 0.0
C3873 C 0.16207 0.62164 0.10248 0.0
C3874 C 0.14194 0.65787 0.08601 0.0
C3875 C 0.143 0.66804 0.09908 0.0
C3876 C 0.1574 0.63831 0.10004 0.0
C3877 C 0.1523 0.66335 0.11198 0.0
C3878 C 0.17513 0.61777 0.11195 0.0
C3879 C 0.15393 0.59465 0.10228 0.0
N3880 N 0.15907 0.64877 0.11218 0.0
N3881 N 0.15211 0.60993 0.09764 0.0
H3882 H 0.18014 0.37709 0.87184 0.0
H3883 H 0.09669 0.3986 0.83602 0.0
H3884 H 0.16924 0.42671 0.86701 0.0
H3885 H 0.10401 0.36582 0.87439 0.0
H3886 H 0.12443 0.40753 0.83903 0.0
H3887 H 0.15363 0.37061 0.86257 0.0
C3888 C 0.17233 0.38664 0.86842 0.0
C3889 C 0.17682 0.40248 0.87049 0.0
C3890 C 0.11979 0.39845 0.84676 0.0
C3891 C 0.14644 0.39507 0.85991 0.0
C3892 C 0.10403 0.3934 0.84511 0.0
C3893 C 0.098 0.38149 0.85502 0.0
C3894 C 0.12953 0.39112 0.858 0.0
C3895 C 0.10805 0.37508 0.86655 0.0
C3896 C 0.15719 0.38291 0.86321 0.0
C3897 C 0.1662 0.41434 0.86568 0.0
N3898 N 0.12331 0.37982 0.86756 0.0
N3899 N 0.15131 0.41041 0.86082 0.0
H3900 H 0.32809 0.40955 0.6255 0.0
H3901 H 0.37922 0.34953 0.57344 0.0
H3902 H 0.37159 0.4228 0.60243 0.0
H3903 H 0.35755 0.33669 0.61771 0.0
H3904 H 0.36808 0.37624 0.57615 0.0
H3905 H 0.33076 0.38281 0.61446 0.0
C3906 C 0.33787 0.40702 0.61763 0.0
C3907 C 0.34971 0.41836 0.61494 0.0
C3908 C 0.36539 0.36739 0.58499 0.0
C3909 C 0.35271 0.38794 0.60227 0.0
C3910 C 0.3716 0.35213 0.58341 0.0
C3911 C 0.36933 0.34094 0.59542 0.0
C3912 C 0.35656 0.37128 0.59849 0.0
C3913 C 0.35961 0.34502 0.60823 0.0
C3914 C 0.33943 0.39175 0.61146 0.0
C3915 C 0.36226 0.41437 0.60485 0.0
N3916 N 0.35366 0.3599 0.60949 0.0
N3917 N 0.36351 0.39944 0.59896 0.0
H3918 H 0.38879 0.15376 0.33486 0.0
H3919 H 0.40415 0.13414 0.42106 0.0
H3920 H 0.43239 0.13042 0.34714 0.0
H3921 H 0.38483 0.17992 0.40987 0.0
H3922 H 0.41496 0.13239 0.39423 0.0
H3923 H 0.38698 0.16402 0.36192 0.0
C3924 C 0.39821 0.15119 0.34314 0.0
C3925 C 0.41075 0.14124 0.3388 0.0
C3926 C 0.40874 0.14301 0.39778 0.0
C3927 C 0.40844 0.1524 0.36981 0.0
C3928 C 0.40258 0.144 0.41306 0.0
C3929 C 0.39366 0.1572 0.41764 0.0
C3930 C 0.4054 0.15503 0.38685 0.0
C3931 C 0.39178 0.16961 0.4068 0.0
C3932 C 0.39717 0.15703 0.35856 0.0
C3933 C 0.42259 0.13814 0.35001 0.0
N3934 N 0.39722 0.16804 0.39173 0.0
N3935 N 0.42092 0.14332 0.36515 0.0
H3936 H 0.01341 0.16195 0.28036 0.0
H3937 H 0.98577 0.08217 0.23847 0.0
H3938 H 0.03633 0.11703 0.28795 0.0
H3939 H 0.96716 0.12812 0.2265 0.0
H3940 H 0.00593 0.09493 0.2548 0.0
H3941 H 0.99812 0.15019 0.25886 0.0
C3942 C 0.01541 0.14966 0.27735 0.0
C3943 C 0.0261 0.14044 0.28607 0.0
C3944 C 0.99758 0.10225 0.24845 0.0
C3945 C 0.00839 0.12679 0.26154 0.0
C3946 C 0.98605 0.09496 0.2391 0.0
C3947 C 0.97465 0.10407 0.23118 0.0
C3948 C 0.99766 0.11879 0.25006 0.0
C3949 C 0.97565 0.1206 0.23242 0.0
C3950 C 0.00664 0.14293 0.26507 0.0
C3951 C 0.02821 0.12458 0.28158 0.0
N3952 N 0.98681 0.12741 0.24183 0.0
N3953 N 0.01928 0.11821 0.26978 0.0
H3954 H 0.17479 0.72645 0.50163 0.0
H3955 H 0.13872 0.78481 0.54685 0.0
H3956 H 0.12791 0.71425 0.48558 0.0
H3957 H 0.0968 0.75612 0.54177 0.0
H3958 H 0.15146 0.76928 0.52609 0.0
H3959 H 0.16348 0.7468 0.51855 0.0
C3960 C 0.1621 0.72825 0.50145 0.0
C3961 C 0.1523 0.71859 0.49214 0.0
C3962 C 0.13953 0.76625 0.52957 0.0
C3963 C 0.13914 0.74222 0.51145 0.0
C3964 C 0.13215 0.77529 0.54132 0.0
C3965 C 0.11672 0.77166 0.54624 0.0
C3966 C 0.13145 0.75337 0.52274 0.0
C3967 C 0.10877 0.75927 0.53849 0.0
C3968 C 0.15562 0.74003 0.51106 0.0
C3969 C 0.13594 0.72143 0.49251 0.0
N3970 N 0.11625 0.75054 0.52723 0.0
N3971 N 0.12987 0.73285 0.50214 0.0
H3972 H 0.53806 0.90989 0.74735 0.0
H3973 H 0.49935 0.82845 0.77509 0.0
H3974 H 0.54866 0.86503 0.72542 0.0
H3975 H 0.4837 0.87406 0.79181 0.0
H3976 H 0.51632 0.84166 0.75579 0.0
H3977 H 0.51703 0.89719 0.76254 0.0
C3978 C 0.53584 0.89739 0.74557 0.0
C3979 C 0.54523 0.88851 0.73513 0.0
C3980 C 0.50906 0.84879 0.76356 0.0
C3981 C 0.52122 0.87379 0.75272 0.0
C3982 C 0.49934 0.84125 0.7746 0.0
C3983 C 0.49011 0.85015 0.78518 0.0
C3984 C 0.50973 0.86539 0.76315 0.0
C3985 C 0.4906 0.86671 0.78393 0.0
C3986 C 0.52382 0.89013 0.75428 0.0
C3987 C 0.54175 0.87236 0.73332 0.0
N3988 N 0.50036 0.87378 0.77325 0.0
N3989 N 0.53016 0.86549 0.74216 0.0
H3990 H 0.386 0.28517 0.98155 0.0
H3991 H 0.37041 0.21945 0.04788 0.0
H3992 H 0.34054 0.27635 0.00298 0.0
H3993 H 0.41686 0.23596 0.03467 0.0
H3994 H 0.35898 0.23583 0.02698 0.0
H3995 H 0.39699 0.26292 0.99649 0.0
C3996 C 0.37825 0.27838 0.98916 0.0
C3997 C 0.36235 0.28274 0.99114 0.0
C3998 C 0.3717 0.23569 0.02851 0.0
C3999 C 0.37487 0.25732 0.0083 0.0
C4000 C 0.37825 0.22626 0.04039 0.0
C4001 C 0.39462 0.22645 0.04316 0.0
C4002 C 0.38158 0.24534 0.01928 0.0
C4003 C 0.40417 0.23554 0.03306 0.0
C4004 C 0.38456 0.26573 0.99775 0.0
C4005 C 0.3529 0.27353 1.0012 0.0
N4006 N 0.39751 0.24473 0.02168 0.0
N4007 N 0.35931 0.26135 0.00948 0.0
H4008 H 0.98201 0.92656 0.25802 0.0
H4009 H 0.01211 0.84381 0.22353 0.0
H4010 H 0.96416 0.88139 0.27361 0.0
H4011 H 0.03195 0.88885 0.21008 0.0
H4012 H 0.99629 0.85715 0.2437 0.0
H4013 H 1.00195 0.91289 0.24218 0.0
C4014 C 0.98237 0.91376 0.25825 0.0
C4015 C 0.97129 0.90513 0.26711 0.0
C4016 C 0.00423 0.86411 0.23648 0.0
C4017 C 0.9941 0.88934 0.24883 0.0
C4018 C 0.01333 0.85649 0.22496 0.0
C4019 C 0.02334 0.86522 0.21499 0.0
C4020 C 0.00501 0.88065 0.23801 0.0
C4021 C 0.0244 0.88162 0.21745 0.0
C4022 C 0.99378 0.90595 0.24918 0.0
C4023 C 0.97241 0.88855 0.26695 0.0
N4024 N 0.01523 0.88881 0.22858 0.0
N4025 N 0.98349 0.88121 0.25785 0.0
H4026 H 0.42163 0.76256 0.48496 0.0
H4027 H 0.34093 0.72564 0.51708 0.0
H4028 H 0.37552 0.77719 0.46878 0.0
H4029 H 0.38689 0.71334 0.53548 0.0
H4030 H 0.35314 0.74666 0.5015 0.0
H4031 H 0.40904 0.74663 0.50548 0.0
C4032 C 0.40885 0.76259 0.48584 0.0
C4033 C 0.39963 0.77116 0.47502 0.0
C4034 C 0.36055 0.73952 0.5091 0.0
C4035 C 0.38508 0.75274 0.49847 0.0
C4036 C 0.35357 0.72752 0.51806 0.0
C4037 C 0.3629 0.7176 0.52754 0.0
C4038 C 0.37704 0.74158 0.50948 0.0
C4039 C 0.37922 0.72064 0.52831 0.0
C4040 C 0.40166 0.75346 0.49757 0.0
C4041 C 0.38312 0.77076 0.47681 0.0
N4042 N 0.38578 0.73222 0.51926 0.0
N4043 N 0.37638 0.76157 0.48817 0.0
H4044 H 0.503 0.16903 0.72032 0.0
H4045 H 0.53641 0.09059 0.75955 0.0
H4046 H 0.47999 0.12377 0.71518 0.0
H4047 H 0.55102 0.13726 0.77419 0.0
H4048 H 0.51523 0.10243 0.74384 0.0
H4049 H 0.52015 0.15775 0.74063 0.0
C4050 C 0.50142 0.15675 0.7236 0.0
C4051 C 0.49007 0.14731 0.71597 0.0
C4052 C 0.52294 0.11008 0.75064 0.0
C4053 C 0.50989 0.13423 0.73909 0.0
C4054 C 0.53506 0.10332 0.75961 0.0
C4055 C 0.54559 0.11294 0.76815 0.0
C4056 C 0.52144 0.12661 0.74998 0.0
C4057 C 0.54321 0.12938 0.76779 0.0
C4058 C 0.51122 0.15032 0.73522 0.0
C4059 C 0.48855 0.13149 0.72075 0.0
N4060 N 0.53153 0.13569 0.7587 0.0
N4061 N 0.49849 0.12539 0.73185 0.0
H4062 H 0.08531 0.24205 0.97412 0.0
H4063 H 0.16482 0.28365 0.00362 0.0
H4064 H 0.13174 0.22857 0.9578 0.0
H4065 H 0.11934 0.29211 0.02513 0.0
H4066 H 0.15312 0.26241 0.98786 0.0
H4067 H 0.09758 0.25928 0.99388 0.0
C4068 C 0.09809 0.24255 0.9748 0.0
C4069 C 0.10749 0.23387 0.96419 0.0
C4070 C 0.14571 0.26878 0.99615 0.0
C4071 C 0.12165 0.2538 0.98674 0.0
C4072 C 0.1524 0.28092 0.00518 0.0
C4073 C 0.14305 0.28976 0.01569 0.0
C4074 C 0.12947 0.26549 0.99745 0.0
C4075 C 0.12702 0.28563 0.01719 0.0
C4076 C 0.1051 0.25243 0.9861 0.0
C4077 C 0.124 0.23503 0.96569 0.0
N4078 N 0.1207 0.27393 0.00805 0.0
N4079 N 0.13053 0.24493 0.97661 0.0
H4080 H 0.28339 0.0138 0.16981 0.0
H4081 H 0.25265 0.96962 0.09245 0.0
H4082 H 0.2977 0.02688 0.12267 0.0
H4083 H 0.2313 0.96311 0.13827 0.0
H4084 H 0.26837 0.99139 0.10316 0.0
H4085 H 0.26344 0.99611 0.15853 0.0
C4086 C 0.28221 0.01312 0.15708 0.0
C4087 C 0.29232 0.02182 0.14718 0.0
C4088 C 0.26013 0.98534 0.11085 0.0
C4089 C 0.26958 1.00135 0.13416 0.0
C4090 C 0.25113 0.97288 0.10474 0.0
C4091 C 0.24067 0.96445 0.11449 0.0
C4092 C 0.25887 0.98933 0.12693 0.0
C4093 C 0.23919 0.96927 0.13031 0.0
C4094 C 0.2708 1.00299 0.15064 0.0
C4095 C 0.2902 0.02042 0.13077 0.0
N4096 N 0.24833 0.98125 0.13608 0.0
N4097 N 0.27922 0.01026 0.12479 0.0
H4098 H 0.24056 0.03127 0.4184 0.0
H4099 H 0.27983 1.00222 0.33773 0.0
H4100 H 0.22791 0.04981 0.37264 0.0
H4101 H 0.28793 0.97912 0.38242 0.0
H4102 H 0.25938 0.01841 0.35009 0.0
H4103 H 0.25646 0.01088 0.4054 0.0
C4104 C 0.24095 0.03095 0.40561 0.0
C4105 C 0.23294 0.04237 0.39661 0.0
C4106 C 0.26547 0.00968 0.35718 0.0
C4107 C 0.25132 0.0191 0.38163 0.0
C4108 C 0.27717 1.0004 0.35012 0.0
C4109 C 0.2857 0.98933 0.35906 0.0
C4110 C 0.26235 0.00807 0.3734 0.0
C4111 C 0.28167 0.9875 0.37506 0.0
C4112 C 0.25006 0.01929 0.39819 0.0
C4113 C 0.2339 0.04131 0.38008 0.0
N4114 N 0.27043 0.9969 0.38176 0.0
N4115 N 0.24305 0.03002 0.37314 0.0
H4116 H 0.22244 0.99805 0.6672 0.0
H4117 H 0.2561 0.02749 0.58384 0.0
H4118 H 0.20759 0.97869 0.62239 0.0
H4119 H 0.27224 0.04568 0.6287 0.0
H4120 H 0.23995 0.00803 0.5978 0.0
H4121 H 0.24231 0.01393 0.65347 0.0
C4122 C 0.22346 0.99699 0.65448 0.0
C4123 C 0.21323 0.98704 0.64595 0.0
C4124 C 0.24713 0.01617 0.60461 0.0
C4125 C 0.23595 0.00539 0.63008 0.0
C4126 C 0.2564 0.02729 0.59663 0.0
C4127 C 0.26552 0.03833 0.60509 0.0
C4128 C 0.24685 0.01607 0.62122 0.0
C4129 C 0.2654 0.03744 0.62167 0.0
C4130 C 0.23481 0.00611 0.64664 0.0
C4131 C 0.21517 0.98619 0.62948 0.0
N4132 N 0.25612 0.02662 0.62917 0.0
N4133 N 0.22618 0.99533 0.62209 0.0
H4134 H 0.21918 0.01684 0.83814 0.0
H4135 H 0.24868 0.9731 0.91593 0.0
H4136 H 0.20286 0.02921 0.88485 0.0
H4137 H 0.27234 0.96843 0.871 0.0
H4138 H 0.23252 0.99436 0.90497 0.0
H4139 H 0.23937 0.99987 0.84996 0.0
C4140 C 0.21995 0.01614 0.8509 0.0
C4141 C 0.20922 0.02442 0.86051 0.0
C4142 C 0.24137 0.98883 0.89754 0.0
C4143 C 0.23224 0.00479 0.87414 0.0
C4144 C 0.25061 0.97667 0.9038 0.0
C4145 C 0.26185 0.96889 0.89435 0.0
C4146 C 0.24316 0.99316 0.88162 0.0
C4147 C 0.26383 0.97408 0.87872 0.0
C4148 C 0.2315 0.00643 0.85764 0.0
C4149 C 0.21084 0.02305 0.87697 0.0
N4150 N 0.25445 0.98574 0.87279 0.0
N4151 N 0.22199 0.01328 0.88325 0.0
H4152 H 0.58129 0.26476 0.0275 0.0
H4153 H 0.66136 0.22757 0.99473 0.0
H4154 H 0.62748 0.28034 0.04262 0.0
H4155 H 0.61568 0.21809 0.97406 0.0
H4156 H 0.64943 0.24828 0.01099 0.0
H4157 H 0.5937 0.24897 0.00672 0.0
C4158 C 0.59405 0.26501 0.02634 0.0
C4159 C 0.60335 0.27384 0.03691 0.0
C4160 C 0.64203 0.24184 0.00274 0.0
C4161 C 0.6177 0.25557 0.01317 0.0
C4162 C 0.64885 0.23001 0.99342 0.0
C4163 C 0.6395 0.22098 0.98306 0.0
C4164 C 0.62567 0.24458 1.0019 0.0
C4165 C 0.62336 0.22472 0.98187 0.0
C4166 C 0.60113 0.25598 0.01444 0.0
C4167 C 0.61983 0.27372 0.03477 0.0
N4168 N 0.61692 0.23607 0.99133 0.0
N4169 N 0.62647 0.26458 0.02328 0.0
H4170 H 0.0533 0.37176 0.22424 0.0
H4171 H 0.98002 0.38747 0.28245 0.0
H4172 H 0.03714 0.41841 0.23721 0.0
H4173 H 0.00467 0.34292 0.27918 0.0
H4174 H 0.99744 0.39818 0.26189 0.0
H4175 H 0.03212 0.36032 0.24033 0.0
C4176 C 0.04518 0.37961 0.23029 0.0
C4177 C 0.04709 0.39608 0.22945 0.0
C4178 C 0.99891 0.38601 0.26557 0.0
C4179 C 0.02281 0.38304 0.24793 0.0
C4180 C 0.98891 0.37986 0.27724 0.0
C4181 C 0.99095 0.3643 0.28263 0.0
C4182 C 0.01093 0.37649 0.25914 0.0
C4183 C 1.00273 0.35502 0.27548 0.0
C4184 C 0.03313 0.37306 0.23953 0.0
C4185 C 0.03619 0.40565 0.23759 0.0
N4186 N 0.0123 0.36126 0.26417 0.0
N4187 N 0.02458 0.399 0.24652 0.0
H4188 H 0.88559 0.78598 0.47499 0.0
H4189 H 0.8698 0.72149 0.54248 0.0
H4190 H 0.8396 0.7759 0.49464 0.0
H4191 H 0.91575 0.74119 0.53221 0.0
H4192 H 0.85878 0.73647 0.52031 0.0
H4193 H 0.89682 0.76479 0.49124 0.0
C4194 C 0.8778 0.77911 0.48247 0.0
C4195 C 0.86166 0.78283 0.48358 0.0
C4196 C 0.87132 0.73732 0.52277 0.0
C4197 C 0.87442 0.75862 0.50222 0.0
C4198 C 0.87764 0.72869 0.53537 0.0
C4199 C 0.89369 0.73022 0.53932 0.0
C4200 C 0.88113 0.74745 0.514 0.0
C4201 C 0.90327 0.73978 0.52969 0.0
C4202 C 0.88423 0.76708 0.49181 0.0
C4203 C 0.85213 0.77355 0.49353 0.0
N4204 N 0.89683 0.74813 0.51757 0.0
N4205 N 0.85867 0.76197 0.50254 0.0
H4206 H 0.97421 0.61827 0.20581 0.0
H4207 H 0.03788 0.63079 0.27499 0.0
H4208 H 0.98974 0.66411 0.22211 0.0
H4209 H 0.0295 0.5862 0.25157 0.0
H4210 H 0.01653 0.64259 0.25936 0.0
H4211 H 0.99059 0.60588 0.22617 0.0
C4212 C 0.98086 0.62575 0.21382 0.0
C4213 C 0.9807 0.64227 0.21214 0.0
C4214 C 0.01925 0.63018 0.25778 0.0
C4215 C 0.99956 0.62813 0.23544 0.0
C4216 C 0.03139 0.62341 0.26676 0.0
C4217 C 0.03559 0.6075 0.2645 0.0
C4218 C 0.01119 0.62095 0.24652 0.0
C4219 C 0.02677 0.59853 0.25362 0.0
C4220 C 0.99028 0.61866 0.2254 0.0
C4221 C 0.98959 0.65133 0.22287 0.0
N4222 N 0.01508 0.6054 0.24499 0.0
N4223 N 0.99873 0.64415 0.23397 0.0
H4224 H 0.47384 0.37174 0.77952 0.0
H4225 H 0.53871 0.38728 0.71224 0.0
H4226 H 0.48396 0.4177 0.75989 0.0
H4227 H 0.51894 0.34141 0.72263 0.0
H4228 H 0.52357 0.39845 0.73429 0.0
H4229 H 0.49516 0.36052 0.7634 0.0
C4230 C 0.48075 0.37954 0.77208 0.0
C4231 C 0.47699 0.39566 0.77094 0.0
C4232 C 0.52274 0.3859 0.73188 0.0
C4233 C 0.50135 0.38289 0.75241 0.0
C4234 C 0.53145 0.37949 0.71935 0.0
C4235 C 0.52997 0.36341 0.71547 0.0
C4236 C 0.51257 0.37613 0.74067 0.0
C4237 C 0.52033 0.3539 0.72509 0.0
C4238 C 0.49285 0.3731 0.76281 0.0
C4239 C 0.48634 0.40518 0.76104 0.0
N4240 N 0.51191 0.36042 0.73715 0.0
N4241 N 0.49798 0.39864 0.75208 0.0
H4242 H 0.97239 0.88482 0.70953 0.0
H4243 H 0.03547 0.87335 0.77939 0.0
H4244 H 0.98674 0.8392 0.72723 0.0
H4245 H 0.02709 0.91762 0.75554 0.0
H4246 H 0.01432 0.86124 0.76365 0.0
H4247 H 0.98892 0.8975 0.72961 0.0
C4248 C 0.97883 0.87745 0.71778 0.0
C4249 C 0.97825 0.8609 0.71659 0.0
C4250 C 0.01701 0.87364 0.76199 0.0
C4251 C 0.99734 0.87538 0.73958 0.0
C4252 C 0.02904 0.88059 0.77103 0.0
C4253 C 0.03316 0.89651 0.76871 0.0
C4254 C 0.00898 0.8827 0.75061 0.0
C4255 C 0.02442 0.90529 0.75766 0.0
C4256 C 0.98833 0.88471 0.72921 0.0
C4257 C 0.98688 0.85199 0.72763 0.0
N4258 N 0.01283 0.89826 0.74899 0.0
N4259 N 0.99615 0.85933 0.73858 0.0
H4260 H 0.88912 0.29163 0.52229 0.0
H4261 H 0.87888 0.22896 0.45169 0.0
H4262 H 0.84561 0.28441 0.49663 0.0
H4263 H 0.92426 0.24343 0.47005 0.0
H4264 H 0.86593 0.24582 0.47131 0.0
H4265 H 0.9015 0.27069 0.50645 0.0
C4266 C 0.88211 0.2855 0.51349 0.0
C4267 C 0.86633 0.28987 0.51072 0.0
C4268 C 0.87872 0.2452 0.47115 0.0
C4269 C 0.88043 0.26592 0.49254 0.0
C4270 C 0.88613 0.23551 0.45998 0.0
C4271 C 0.9027 0.23484 0.45912 0.0
C4272 C 0.88791 0.25427 0.48163 0.0
C4273 C 0.91146 0.24363 0.4702 0.0
C4274 C 0.8892 0.2736 0.5044 0.0
C4275 C 0.85784 0.28154 0.49911 0.0
N4276 N 0.90397 0.25304 0.48092 0.0
N4277 N 0.865 0.27004 0.49043 0.0
H4278 H 0.46531 0.1355 0.28417 0.0
H4279 H 0.53386 0.12184 0.2201 0.0
H4280 H 0.47882 0.08962 0.26634 0.0
H4281 H 0.51329 0.16733 0.23062 0.0
H4282 H 0.51779 0.1101 0.24114 0.0
H4283 H 0.48677 0.14741 0.26882 0.0
C4284 C 0.47296 0.12788 0.27727 0.0
C4285 C 0.47014 0.11153 0.27645 0.0
C4286 C 0.51696 0.1227 0.23898 0.0
C4287 C 0.4947 0.12513 0.25874 0.0
C4288 C 0.52622 0.12943 0.22703 0.0
C4289 C 0.52484 0.14558 0.22348 0.0
C4290 C 0.5063 0.13219 0.24752 0.0
C4291 C 0.51466 0.15481 0.23284 0.0
C4292 C 0.48517 0.13471 0.26843 0.0
C4293 C 0.48045 0.10228 0.26725 0.0
N4294 N 0.50571 0.14797 0.24432 0.0
N4295 N 0.49217 0.10922 0.25867 0.0
H4296 H 0.61779 0.70877 0.03459 0.0
H4297 H 0.6349 0.77673 0.97089 0.0
H4298 H 0.66463 0.72194 0.01918 0.0
H4299 H 0.5895 0.75437 0.97743 0.0
H4300 H 0.64535 0.76122 0.99303 0.0
H4301 H 0.60682 0.73003 0.01835 0.0
C4302 C 0.62581 0.71633 0.02806 0.0
C4303 C 0.64216 0.71344 0.02813 0.0
C4304 C 0.63305 0.75989 0.98974 0.0
C4305 C 0.62964 0.73774 0.0094 0.0
C4306 C 0.62705 0.76879 0.97716 0.0
C4307 C 0.61134 0.76673 0.97219 0.0
C4308 C 0.62322 0.74896 0.9975 0.0
C4309 C 0.60172 0.75623 0.98074 0.0
C4310 C 0.61952 0.72841 0.01871 0.0
C4311 C 0.65194 0.72363 0.01939 0.0
N4312 N 0.60783 0.74768 0.99288 0.0
N4313 N 0.64553 0.73522 0.01027 0.0
H4314 H 0.96761 0.11722 0.79582 0.0
H4315 H 0.03301 0.1326 0.72897 0.0
H4316 H 0.98585 0.16339 0.78405 0.0
H4317 H 0.02083 0.08637 0.74676 0.0
H4318 H 0.01214 0.14408 0.74545 0.0
H4319 H 0.98323 0.10588 0.77424 0.0
C4320 C 0.97466 0.12502 0.78853 0.0
C4321 C 0.97551 0.14127 0.79187 0.0
C4322 C 0.01392 0.1314 0.74561 0.0
C4323 C 0.99356 0.12834 0.76721 0.0
C4324 C 0.0258 0.12482 0.73615 0.0
C4325 C 0.02879 0.1085 0.73658 0.0
C4326 C 0.0049 0.12159 0.75554 0.0
C4327 C 0.01905 0.09903 0.74613 0.0
C4328 C 0.98366 0.11852 0.77626 0.0
C4329 C 0.9849 0.15079 0.782 0.0
N4330 N 0.00765 0.10571 0.7553 0.0
N4331 N 0.99365 0.14417 0.77023 0.0
H4332 H 0.57879 0.24045 0.52152 0.0
H4333 H 0.65839 0.28177 0.4929 0.0
H4334 H 0.62511 0.2261 0.53736 0.0
H4335 H 0.61286 0.29122 0.47194 0.0
H4336 H 0.64675 0.25978 0.50754 0.0
H4337 H 0.59117 0.25744 0.50172 0.0
C4338 C 0.59158 0.2407 0.5207 0.0
C4339 C 0.60092 0.2319 0.53122 0.0
C4340 C 0.63933 0.26651 0.49958 0.0
C4341 C 0.61521 0.25154 0.50864 0.0
C4342 C 0.64598 0.27908 0.49119 0.0
C4343 C 0.63657 0.28845 0.48124 0.0
C4344 C 0.62307 0.26336 0.49821 0.0
C4345 C 0.62057 0.28435 0.47948 0.0
C4346 C 0.59864 0.25042 0.50938 0.0
C4347 C 0.61743 0.23268 0.52954 0.0
N4348 N 0.61428 0.27225 0.48804 0.0
N4349 N 0.62403 0.24248 0.51862 0.0
H4350 H 0.50286 0.8357 0.2831 0.0
H4351 H 0.47564 0.91684 0.24396 0.0
H4352 H 0.5267 0.88004 0.29152 0.0
H4353 H 0.45824 0.87133 0.2287 0.0
H4354 H 0.4952 0.90353 0.26052 0.0
H4355 H 0.48732 0.84829 0.26227 0.0
C4356 C 0.50497 0.84805 0.28044 0.0
C4357 C 0.51606 0.85684 0.28915 0.0
C4358 C 0.48723 0.89643 0.25343 0.0
C4359 C 0.49809 0.87142 0.2654 0.0
C4360 C 0.47603 0.90403 0.24396 0.0
C4361 C 0.4652 0.8952 0.23497 0.0
C4362 C 0.48751 0.87984 0.25411 0.0
C4363 C 0.46633 0.87863 0.23543 0.0
C4364 C 0.49608 0.85524 0.26853 0.0
C4365 C 0.51829 0.8728 0.28513 0.0
N4366 N 0.47715 0.8715 0.24497 0.0
N4367 N 0.50926 0.87962 0.27369 0.0
H4368 H 0.87272 0.78031 0.04003 0.0
H4369 H 0.8835 0.71494 0.97213 0.0
H4370 H 0.91815 0.76396 0.02348 0.0
H4371 H 0.83906 0.7254 0.99492 0.0
H4372 H 0.89591 0.73634 0.98728 0.0
H4373 H 0.85986 0.76385 0.02 0.0
C4374 C 0.88002 0.77347 0.03203 0.0
C4375 C 0.89655 0.77344 0.03356 0.0
C4376 C 0.8834 0.73406 0.98882 0.0
C4377 C 0.88187 0.75443 0.01063 0.0
C4378 C 0.87628 0.72189 0.98011 0.0
C4379 C 0.86023 0.71827 0.98234 0.0
C4380 C 0.87438 0.74273 0.99978 0.0
C4381 C 0.85149 0.72767 0.9929 0.0
C4382 C 0.87266 0.764 0.02063 0.0
C4383 C 0.90537 0.76429 0.02283 0.0
N4384 N 0.85869 0.73937 1.00128 0.0
N4385 N 0.89792 0.75507 0.01192 0.0
H4386 H 0.71699 0.97813 0.88201 0.0
H4387 H 0.78191 0.04685 0.87411 0.0
H4388 H 0.73342 0.99667 0.83746 0.0
H4389 H 0.76304 0.03082 0.91868 0.0
H4390 H 0.76681 0.02616 0.86064 0.0
H4391 H 0.73629 0.99485 0.89569 0.0
C4392 C 0.7248 0.98554 0.87508 0.0
C4393 C 0.72349 0.98604 0.85854 0.0
C4394 C 0.76608 0.02706 0.87338 0.0
C4395 C 0.74556 0.00536 0.87418 0.0
C4396 C 0.77476 0.03886 0.8811 0.0
C4397 C 0.77369 0.04068 0.89757 0.0
C4398 C 0.75621 0.01696 0.88216 0.0
C4399 C 0.7642 0.02994 0.90597 0.0
C4400 C 0.73578 0.99515 0.88291 0.0
C4401 C 0.73393 0.99592 0.85022 0.0
N4402 N 0.75575 0.01864 0.89817 0.0
N4403 N 0.74441 0.00525 0.85811 0.0
H4404 H 0.78486 0.95939 0.63469 0.0
H4405 H 0.71798 0.0255 0.62237 0.0
H4406 H 0.76519 0.9716 0.58927 0.0
H4407 H 0.73273 0.00817 0.66798 0.0
H4408 H 0.73828 0.009 0.60992 0.0
H4409 H 0.76907 0.98041 0.64682 0.0
C4410 C 0.77743 0.96665 0.62722 0.0
C4411 C 0.77628 0.96362 0.61094 0.0
C4412 C 0.73717 0.00893 0.62266 0.0
C4413 C 0.75803 0.98765 0.6248 0.0
C4414 C 0.72561 0.0184 0.62979 0.0
C4415 C 0.72354 0.01815 0.64626 0.0
C4416 C 0.74679 0.99915 0.63205 0.0
C4417 C 0.7338 0.00868 0.65525 0.0
C4418 C 0.76835 0.97861 0.63417 0.0
C4419 C 0.7664 0.97343 0.60188 0.0
N4420 N 0.74488 0.9995 0.64803 0.0
N4421 N 0.75758 0.98489 0.60894 0.0
H4422 H 0.73405 0.96358 0.37652 0.0
H4423 H 0.79839 0.03217 0.38969 0.0
H4424 H 0.74956 0.97943 0.42247 0.0
H4425 H 0.79087 0.00844 0.34515 0.0
H4426 H 0.7769 0.01651 0.40123 0.0
H4427 H 0.75117 0.98349 0.36431 0.0
C4428 C 0.74087 0.97139 0.38406 0.0
C4429 C 0.74044 0.96974 0.40056 0.0
C4430 C 0.77985 0.01486 0.38888 0.0
C4431 C 0.76012 0.99254 0.38663 0.0
C4432 C 0.79207 0.02386 0.38226 0.0
C4433 C 0.79654 0.02155 0.36645 0.0
C4434 C 0.77196 0.00353 0.3796 0.0
C4435 C 0.78792 0.01056 0.35742 0.0
C4436 C 0.75071 0.98271 0.37707 0.0
C4437 C 0.74959 0.98019 0.40971 0.0
N4438 N 0.77613 1.00192 0.36413 0.0
N4439 N 0.7591 0.99107 0.40263 0.0
H4440 H 0.72693 0.05421 0.13093 0.0
H4441 H 0.78878 0.9834 0.118 0.0
H4442 H 0.73951 0.03584 0.08502 0.0
H4443 H 0.78435 0.00983 0.16143 0.0
H4444 H 0.76715 0.99907 0.10671 0.0
H4445 H 0.74424 0.03453 0.14315 0.0
C4446 C 0.73314 0.0459 0.12341 0.0
C4447 C 0.73183 0.04678 0.1069 0.0
C4448 C 0.77082 1.00131 0.11876 0.0
C4449 C 0.75177 0.02423 0.12084 0.0
C4450 C 0.78311 0.99232 0.12525 0.0
C4451 C 0.78847 0.99537 0.14066 0.0
C4452 C 0.76374 0.01335 0.12779 0.0
C4453 C 0.7807 0.00713 0.14947 0.0
C4454 C 0.7431 0.03471 0.1304 0.0
C4455 C 0.74022 0.03568 0.09779 0.0
N4456 N 0.7688 0.01572 0.1429 0.0
N4457 N 0.74988 0.02494 0.10486 0.0
H4458 H 0.36715 0.72309 0.95943 0.0
H4459 H 0.37748 0.79335 0.02255 0.0
H4460 H 0.4113 0.7472 0.96811 0.0
H4461 H 0.33216 0.7755 0.00726 0.0
H4462 H 0.39051 0.7736 0.00584 0.0
H4463 H 0.35471 0.73919 0.98008 0.0
C4464 C 0.37429 0.73159 0.96583 0.0
C4465 C 0.39029 0.73383 0.96194 0.0
C4466 C 0.37771 0.77392 0.00624 0.0
C4467 C 0.37608 0.7524 0.98557 0.0
C4468 C 0.37025 0.78516 0.01584 0.0
C4469 C 0.35368 0.78618 0.01627 0.0
C4470 C 0.36856 0.76352 0.99702 0.0
C4471 C 0.34496 0.77524 0.00726 0.0
C4472 C 0.36716 0.74084 0.97757 0.0
C4473 C 0.39892 0.74509 0.97063 0.0
N4474 N 0.35249 0.76444 0.99797 0.0
N4475 N 0.3917 0.75398 0.98194 0.0
H4476 H 0.96262 0.63008 0.77978 0.0
H4477 H 0.03219 0.62496 0.71564 0.0
H4478 H 0.98116 0.58617 0.76149 0.0
H4479 H 0.01269 0.66885 0.73292 0.0
H4480 H 0.01579 0.61057 0.73462 0.0
H4481 H 0.98294 0.64443 0.76502 0.0
C4482 C 0.97107 0.62343 0.77282 0.0
C4483 C 0.97009 0.60688 0.77182 0.0
C4484 C 0.01521 0.62336 0.73438 0.0
C4485 C 0.99336 0.62328 0.75474 0.0
C4486 C 0.02463 0.6316 0.72356 0.0
C4487 C 0.02377 0.64815 0.72258 0.0
C4488 C 0.00479 0.63172 0.74429 0.0
C4489 C 0.01371 0.65609 0.73318 0.0
C4490 C 0.98266 0.63165 0.76435 0.0
C4491 C 0.98139 0.59893 0.76258 0.0
N4492 N 0.00454 0.64781 0.74347 0.0
N4493 N 0.99245 0.60719 0.75433 0.0
H4494 H 0.07837 0.26858 0.47861 0.0
H4495 H 0.15943 0.22828 0.50429 0.0
H4496 H 0.12379 0.28215 0.45972 0.0
H4497 H 0.11502 0.21919 0.5277 0.0
H4498 H 0.14699 0.2498 0.48967 0.0
H4499 H 0.09178 0.25233 0.49834 0.0
C4500 C 0.09118 0.26833 0.47874 0.0
C4501 C 0.09996 0.27666 0.46738 0.0
C4502 C 0.13999 0.24326 0.49815 0.0
C4503 C 0.11541 0.25786 0.48987 0.0
C4504 C 0.1471 0.23095 0.50653 0.0
C4505 C 0.13823 0.22181 0.51716 0.0
C4506 C 0.12381 0.24638 0.50023 0.0
C4507 C 0.12231 0.22589 0.51961 0.0
C4508 C 0.09884 0.25902 0.49002 0.0
C4509 C 0.11653 0.2759 0.46819 0.0
N4510 N 0.11556 0.23772 0.51105 0.0
N4511 N 0.1237 0.26651 0.4791 0.0
H4512 H 0.96152 0.37595 0.72651 0.0
H4513 H 0.03325 0.38599 0.78774 0.0
H4514 H 0.98071 0.42114 0.74057 0.0
H4515 H 0.00837 0.34213 0.77978 0.0
H4516 H 0.01734 0.39835 0.76694 0.0
H4517 H 0.98179 0.36279 0.74239 0.0
C4518 C 0.97012 0.38311 0.73275 0.0
C4519 C 0.9693 0.39969 0.7323 0.0
C4520 C 0.01549 0.38597 0.76963 0.0
C4521 C 0.99253 0.38468 0.7506 0.0
C4522 C 0.02464 0.37889 0.78145 0.0
C4523 C 0.02206 0.36302 0.78561 0.0
C4524 C 0.00374 0.37713 0.76186 0.0
C4525 C 0.01069 0.35442 0.77707 0.0
C4526 C 0.98166 0.37559 0.74188 0.0
C4527 C 0.9808 0.40834 0.74065 0.0
N4528 N 1.0019 0.36159 0.7657 0.0
N4529 N 0.99184 0.40074 0.74953 0.0
H4530 H 0.4756 0.61738 0.29412 0.0
H4531 H 0.53989 0.63536 0.22684 0.0
H4532 H 0.49435 0.66382 0.2844 0.0
H4533 H 0.53076 0.58883 0.24562 0.0
H4534 H 0.51852 0.64586 0.24336 0.0
H4535 H 0.49104 0.60685 0.27197 0.0
C4536 C 0.48271 0.62543 0.28715 0.0
C4537 C 0.48379 0.64149 0.29123 0.0
C4538 C 0.52105 0.63331 0.24368 0.0
C4539 C 0.50154 0.6295 0.26589 0.0
C4540 C 0.53319 0.62728 0.23417 0.0
C4541 C 0.53724 0.6112 0.23495 0.0
C4542 C 0.51282 0.62318 0.25396 0.0
C4543 C 0.52815 0.60133 0.24473 0.0
C4544 C 0.49159 0.61939 0.27456 0.0
C4545 C 0.49326 0.65133 0.28178 0.0
N4546 N 0.51647 0.60748 0.25393 0.0
N4547 N 0.50184 0.64517 0.26965 0.0
H4548 H 0.53165 0.62294 0.7945 0.0
H4549 H 0.46746 0.63692 0.7261 0.0
H4550 H 0.51726 0.66912 0.77834 0.0
H4551 H 0.4763 0.59171 0.74794 0.0
H4552 H 0.48892 0.64839 0.74186 0.0
H4553 H 0.51475 0.61092 0.7743 0.0
C4554 C 0.52512 0.63057 0.78657 0.0
C4555 C 0.52581 0.64709 0.78823 0.0
C4556 C 0.48628 0.63592 0.74307 0.0
C4557 C 0.50632 0.63336 0.76508 0.0
C4558 C 0.47407 0.62934 0.734 0.0
C4559 C 0.46997 0.61334 0.73575 0.0
C4560 C 0.49451 0.62643 0.75394 0.0
C4561 C 0.47895 0.60412 0.74625 0.0
C4562 C 0.51541 0.62369 0.77506 0.0
C4563 C 0.51705 0.65634 0.77758 0.0
N4564 N 0.4907 0.61081 0.75499 0.0
N4565 N 0.5076 0.64936 0.76656 0.0
H4566 H 0.91933 0.27202 0.97869 0.0
H4567 H 0.83932 0.23216 0.00754 0.0
H4568 H 0.87322 0.28698 0.96281 0.0
H4569 H 0.88435 0.22322 0.02975 0.0
H4570 H 0.85126 0.25383 0.99271 0.0
H4571 H 0.90673 0.25591 0.99908 0.0
C4572 C 0.90656 0.27216 0.97967 0.0
C4573 C 0.89733 0.28079 0.96891 0.0
C4574 C 0.85851 0.2473 1.00098 0.0
C4575 C 0.88278 0.2621 0.99211 0.0
C4576 C 0.85169 0.23489 0.00946 0.0
C4577 C 0.86087 0.22576 0.01983 0.0
C4578 C 0.87473 0.25051 0.00266 0.0
C4579 C 0.87683 0.22992 0.02187 0.0
C4580 C 0.89936 0.26291 0.99131 0.0
C4581 C 0.88083 0.2805 0.97079 0.0
N4582 N 0.8833 0.24184 0.01319 0.0
N4583 N 0.87409 0.27112 0.98199 0.0
H4584 H 0.5874 0.74217 0.47664 0.0
H4585 H 0.6677 0.77996 0.50981 0.0
H4586 H 0.63382 0.7268 0.46205 0.0
H4587 H 0.62139 0.79294 0.52683 0.0
H4588 H 0.65562 0.75931 0.49355 0.0
H4589 H 0.59963 0.75955 0.49626 0.0
C4590 C 0.60017 0.74231 0.47766 0.0
C4591 C 0.60958 0.73301 0.46759 0.0
C4592 C 0.6481 0.76657 0.50094 0.0
C4593 C 0.62372 0.75311 0.49003 0.0
C4594 C 0.655 0.77838 0.51027 0.0
C4595 C 0.64556 0.78829 0.51971 0.0
C4596 C 0.63158 0.76465 0.50089 0.0
C4597 C 0.62915 0.78562 0.51977 0.0
C4598 C 0.60716 0.75228 0.48888 0.0
C4599 C 0.62607 0.73374 0.46952 0.0
N4600 N 0.62269 0.77417 0.51042 0.0
N4601 N 0.6326 0.74369 0.4804 0.0
H4602 H 0.72936 0.45663 0.62814 0.0
H4603 H 0.79143 0.52717 0.61476 0.0
H4604 H 0.74238 0.47439 0.58217 0.0
H4605 H 0.7845 0.50348 0.65934 0.0
H4606 H 0.77011 0.51116 0.60334 0.0
H4607 H 0.74611 0.47686 0.64034 0.0
C4608 C 0.73557 0.4649 0.6206 0.0
C4609 C 0.73453 0.4637 0.60408 0.0
C4610 C 0.77314 0.5096 0.61567 0.0
C4611 C 0.75383 0.4869 0.61801 0.0
C4612 C 0.78526 0.5188 0.62223 0.0
C4613 C 0.78986 0.5166 0.63801 0.0
C4614 C 0.76549 0.49815 0.62498 0.0
C4615 C 0.78144 0.50552 0.64709 0.0
C4616 C 0.74518 0.47643 0.62758 0.0
C4617 C 0.74288 0.47479 0.59494 0.0
N4618 N 0.76977 0.49666 0.64043 0.0
N4619 N 0.75224 0.48584 0.60201 0.0
H4620 H 0.73753 0.53067 0.9174 0.0
H4621 H 0.7836 0.50212 0.84025 0.0
H4622 H 0.72641 0.54716 0.87048 0.0
H4623 H 0.78921 0.47985 0.88573 0.0
H4624 H 0.76162 0.5176 0.85084 0.0
H4625 H 0.75534 0.51097 0.90593 0.0
C4626 C 0.73867 0.53003 0.90466 0.0
C4627 C 0.73049 0.54068 0.8949 0.0
C4628 C 0.76752 0.5092 0.85848 0.0
C4629 C 0.7511 0.51821 0.88167 0.0
C4630 C 0.78009 0.50034 0.85243 0.0
C4631 C 0.78835 0.4897 0.86213 0.0
C4632 C 0.76322 0.50762 0.87444 0.0
C4633 C 0.78321 0.4879 0.87781 0.0
C4634 C 0.74887 0.51877 0.89812 0.0
C4635 C 0.73246 0.53923 0.87848 0.0
N4636 N 0.77111 0.4969 0.88352 0.0
N4637 N 0.74268 0.52836 0.87241 0.0
H4638 H 0.78516 0.5393 0.13488 0.0
H4639 H 0.71626 0.47498 0.1243 0.0
H4640 H 0.76546 0.52582 0.08979 0.0
H4641 H 0.73272 0.49187 0.16954 0.0
H4642 H 0.73707 0.4904 0.11139 0.0
H4643 H 0.7691 0.51885 0.14758 0.0
C4644 C 0.77769 0.53186 0.1276 0.0
C4645 C 0.77659 0.5344 0.11124 0.0
C4646 C 0.73624 0.49061 0.12415 0.0
C4647 C 0.75799 0.51104 0.12575 0.0
C4648 C 0.72437 0.48175 0.13155 0.0
C4649 C 0.72263 0.4822 0.14804 0.0
C4650 C 0.74647 0.50002 0.1333 0.0
C4651 C 0.73353 0.49122 0.1568 0.0
C4652 C 0.76844 0.52023 0.13488 0.0
C4653 C 0.76664 0.52438 0.10244 0.0
N4654 N 0.74487 0.49984 0.14932 0.0
N4655 N 0.75764 0.51327 0.10981 0.0
H4656 H 0.77393 0.46676 0.37662 0.0
H4657 H 0.70729 0.5335 0.38639 0.0
H4658 H 0.75642 0.4831 0.42167 0.0
H4659 H 0.7231 0.51565 0.34128 0.0
H4660 H 0.72744 0.5174 0.39943 0.0
H4661 H 0.75771 0.48677 0.36347 0.0
C4662 C 0.76685 0.47467 0.38377 0.0
C4663 C 0.7665 0.47315 0.40029 0.0
C4664 C 0.72661 0.5171 0.38667 0.0
C4665 C 0.74774 0.49605 0.38527 0.0
C4666 C 0.71512 0.52636 0.3792 0.0
C4667 C 0.7134 0.52588 0.3627 0.0
C4668 C 0.73648 0.50725 0.37761 0.0
C4669 C 0.72392 0.51636 0.35403 0.0
C4670 C 0.75753 0.48608 0.37624 0.0
C4671 C 0.75704 0.48376 0.40891 0.0
N4672 N 0.7349 0.50735 0.36158 0.0
N4673 N 0.74798 0.49466 0.40131 0.0
H4674 H 0.53904 0.37163 0.27715 0.0
H4675 H 0.47309 0.38641 0.21055 0.0
H4676 H 0.53032 0.41695 0.25548 0.0
H4677 H 0.48872 0.34004 0.22489 0.0
H4678 H 0.49062 0.39814 0.2304 0.0
H4679 H 0.51733 0.36035 0.26157 0.0
C4680 C 0.53241 0.37928 0.26932 0.0
C4681 C 0.5366 0.39525 0.26757 0.0
C4682 C 0.4901 0.38539 0.22931 0.0
C4683 C 0.51176 0.38238 0.24962 0.0
C4684 C 0.48002 0.37867 0.21802 0.0
C4685 C 0.47948 0.3622 0.21595 0.0
C4686 C 0.49968 0.37559 0.23869 0.0
C4687 C 0.4888 0.35279 0.22599 0.0
C4688 C 0.52007 0.3728 0.26035 0.0
C4689 C 0.5276 0.40455 0.25716 0.0
N4690 N 0.49856 0.35961 0.23684 0.0
N4691 N 0.51569 0.39798 0.24855 0.0
H4692 H 0.09277 0.74281 0.03155 0.0
H4693 H 0.1736 0.77453 0.99448 0.0
H4694 H 0.13856 0.72379 0.04352 0.0
H4695 H 0.12753 0.79078 0.97979 0.0
H4696 H 0.16094 0.75423 0.01065 0.0
H4697 H 0.10508 0.7586 0.01077 0.0
C4698 C 0.1054 0.74177 0.02967 0.0
C4699 C 0.11465 0.73201 0.0394 0.0
C4700 C 0.15358 0.76211 0.00376 0.0
C4701 C 0.12891 0.7503 0.01568 0.0
C4702 C 0.16081 0.77372 0.99449 0.0
C4703 C 0.15162 0.78449 0.98581 0.0
C4704 C 0.137 0.76128 0.00451 0.0
C4705 C 0.1351 0.7828 0.9863 0.0
C4706 C 0.11244 0.75084 0.0178 0.0
C4707 C 0.13096 0.73116 0.03635 0.0
N4708 N 0.12833 0.77155 0.99561 0.0
N4709 N 0.13758 0.74032 0.02489 0.0
H4710 H 0.4233 0.26634 0.53085 0.0
H4711 H 0.34446 0.22326 0.50176 0.0
H4712 H 0.37666 0.27953 0.54678 0.0
H4713 H 0.39006 0.21526 0.48033 0.0
H4714 H 0.35584 0.24482 0.5173 0.0
H4715 H 0.41132 0.24864 0.51134 0.0
C4716 C 0.41053 0.26567 0.53013 0.0
C4717 C 0.40099 0.27442 0.54055 0.0
C4718 C 0.36334 0.23848 0.50909 0.0
C4719 C 0.38715 0.25394 0.5183 0.0
C4720 C 0.35684 0.22614 0.50018 0.0
C4721 C 0.36632 0.21735 0.48975 0.0
C4722 C 0.37953 0.242 0.50774 0.0
C4723 C 0.38229 0.2217 0.48821 0.0
C4724 C 0.40369 0.25553 0.51897 0.0
C4725 C 0.3845 0.27304 0.53902 0.0
N4726 N 0.38842 0.23358 0.49723 0.0
N4727 N 0.37813 0.26288 0.52824 0.0
H4728 H 0.2816 0.54949 0.36981 0.0
H4729 H 0.2158 0.48187 0.38056 0.0
H4730 H 0.26354 0.53483 0.41518 0.0
H4731 H 0.22875 0.50207 0.33559 0.0
H4732 H 0.23584 0.49847 0.39338 0.0
H4733 H 0.26506 0.52942 0.3571 0.0
C4734 C 0.27431 0.54192 0.37713 0.0
C4735 C 0.27391 0.54394 0.3936 0.0
C4736 C 0.23437 0.49918 0.38069 0.0
C4737 C 0.25481 0.52095 0.37908 0.0
C4738 C 0.22296 0.48966 0.37335 0.0
C4739 C 0.2205 0.49063 0.35697 0.0
C4740 C 0.24346 0.5097 0.37159 0.0
C4741 C 0.23014 0.50097 0.34826 0.0
C4742 C 0.26481 0.5305 0.36985 0.0
C4743 C 0.2642 0.53377 0.40245 0.0
N4744 N 0.24112 0.51012 0.35567 0.0
N4745 N 0.25498 0.52279 0.39508 0.0
H4746 H 0.21815 0.53036 0.12029 0.0
H4747 H 0.27976 0.46004 0.13613 0.0
H4748 H 0.22776 0.51094 0.16642 0.0
H4749 H 0.26637 0.47595 0.08959 0.0
H4750 H 0.26373 0.48121 0.14764 0.0
H4751 H 0.23869 0.51324 0.10916 0.0
C4752 C 0.22474 0.52269 0.12813 0.0
C4753 C 0.22112 0.52204 0.14432 0.0
C4754 C 0.26441 0.48017 0.1349 0.0
C4755 C 0.2446 0.50226 0.1316 0.0
C4756 C 0.27362 0.4681 0.12831 0.0
C4757 C 0.27435 0.46611 0.11185 0.0
C4758 C 0.25584 0.49038 0.12499 0.0
C4759 C 0.26611 0.47695 0.10234 0.0
C4760 C 0.23643 0.51285 0.12175 0.0
C4761 C 0.23006 0.5118 0.15387 0.0
N4762 N 0.25713 0.48852 0.10904 0.0
N4763 N 0.24127 0.50226 0.14736 0.0
H4764 H 0.28308 0.51086 0.8386 0.0
H4765 H 0.24969 0.47984 0.92151 0.0
H4766 H 0.29875 0.52864 0.88379 0.0
H4767 H 0.23338 0.46252 0.87638 0.0
H4768 H 0.26595 0.49942 0.90787 0.0
H4769 H 0.26315 0.49485 0.85209 0.0
C4770 C 0.28223 0.51155 0.85135 0.0
C4771 C 0.2927 0.52108 0.86006 0.0
C4772 C 0.25871 0.49144 0.90093 0.0
C4773 C 0.26992 0.5026 0.87564 0.0
C4774 C 0.24938 0.48025 0.90873 0.0
C4775 C 0.24018 0.46942 0.9001 0.0
C4776 C 0.25896 0.49183 0.88433 0.0
C4777 C 0.24029 0.47058 0.88354 0.0
C4778 C 0.27084 0.50236 0.85906 0.0
C4779 C 0.29098 0.52146 0.87657 0.0
N4780 N 0.24962 0.48147 0.87621 0.0
N4781 N 0.27992 0.51227 0.88381 0.0
H4782 H 0.25367 0.52638 0.58855 0.0
H4783 H 0.28317 0.48625 0.66841 0.0
H4784 H 0.23106 0.53429 0.63357 0.0
H4785 H 0.30078 0.47337 0.6223 0.0
H4786 H 0.26272 0.50234 0.65582 0.0
H4787 H 0.26962 0.5055 0.60046 0.0
C4788 C 0.25191 0.52359 0.60091 0.0
C4789 C 0.24106 0.53219 0.61009 0.0
C4790 C 0.27092 0.49584 0.64845 0.0
C4791 C 0.25952 0.50836 0.62392 0.0
C4792 C 0.28261 0.48662 0.65563 0.0
C4793 C 0.29381 0.47851 0.64642 0.0
C4794 C 0.27049 0.49712 0.6319 0.0
C4795 C 0.29245 0.47944 0.6299 0.0
C4796 C 0.26105 0.51165 0.60772 0.0
C4797 C 0.23928 0.52799 0.62604 0.0
N4798 N 0.28115 0.48871 0.6232 0.0
N4799 N 0.24855 0.51652 0.63249 0.0
loop_
_geom_bond_atom_site_label_1
_geom_bond_atom_site_label_2
_geom_bond_distance
_geom_bond_site_symmetry_2
_ccdc_geom_bond_type
O0 Cd1 2.223 . S
O0 C8 1.315 . S
Cd1 O0 2.223 . S
Cd1 O4 2.297 . S
Cd1 O5 2.439 . S
Cd1 O11 2.240 . S
Cd2 O3 2.240 . S
Cd2 O10 2.223 . S
Cd2 O12 2.297 . S
Cd2 O13 2.439 . S
O3 Cd2 2.240 . S
O3 C8 1.279 . S
O4 Cd1 2.297 . S
O4 C6 1.247 . S
O5 Cd1 2.439 . S
O5 C6 1.208 . S
C6 O4 1.247 . S
C6 O5 1.208 . S
C7 O12 1.247 . S
C7 O13 1.208 . S
C8 O0 1.315 . S
C8 O3 1.279 . S
C9 O10 1.315 . S
C9 O11 1.279 . S
O10 Cd2 2.223 . S
O10 C9 1.315 . S
O11 Cd1 2.240 . S
O11 C9 1.279 . S
O12 Cd2 2.297 . S
O12 C7 1.247 . S
O13 Cd2 2.439 . S
O13 C7 1.208 . S
O14 Cd15 2.223 . S
O14 C22 1.315 . S
Cd15 O14 2.223 . S
Cd15 O18 2.297 . S
Cd15 O19 2.439 . S
Cd15 O25 2.240 . S
Cd16 O17 2.240 . S
Cd16 O24 2.223 . S
Cd16 O26 2.297 . S
Cd16 O27 2.439 . S
O17 Cd16 2.240 . S
O17 C22 1.279 . S
O18 Cd15 2.297 . S
O18 C20 1.247 . S
O19 Cd15 2.439 . S
O19 C20 1.208 . S
C20 O18 1.247 . S
C20 O19 1.208 . S
C21 O26 1.247 . S
C21 O27 1.208 . S
C22 O14 1.315 . S
C22 O17 1.279 . S
C23 O24 1.315 . S
C23 O25 1.279 . S
O24 Cd16 2.223 . S
O24 C23 1.315 . S
O25 Cd15 2.240 . S
O25 C23 1.279 . S
O26 Cd16 2.297 . S
O26 C21 1.247 . S
O27 Cd16 2.439 . S
O27 C21 1.208 . S
O28 Cd29 2.223 . S
O28 C36 1.315 . S
Cd29 O28 2.223 . S
Cd29 O32 2.297 . S
Cd29 O33 2.439 . S
Cd29 O39 2.240 . S
Cd30 O31 2.240 . S
Cd30 O38 2.223 . S
Cd30 O40 2.297 . S
Cd30 O41 2.439 . S
O31 Cd30 2.240 . S
O31 C36 1.279 . S
O32 Cd29 2.297 . S
O32 C34 1.247 . S
O33 Cd29 2.439 . S
O33 C34 1.208 . S
C34 O32 1.247 . S
C34 O33 1.208 . S
C35 O40 1.247 . S
C35 O41 1.208 . S
C36 O28 1.315 . S
C36 O31 1.279 . S
C37 O38 1.315 . S
C37 O39 1.279 . S
O38 Cd30 2.223 . S
O38 C37 1.315 . S
O39 Cd29 2.240 . S
O39 C37 1.279 . S
O40 Cd30 2.297 . S
O40 C35 1.247 . S
O41 Cd30 2.439 . S
O41 C35 1.208 . S
O42 Cd43 2.223 . S
O42 C50 1.315 . S
Cd43 O42 2.223 . S
Cd43 O46 2.297 . S
Cd43 O47 2.439 . S
Cd43 O53 2.240 . S
Cd44 O45 2.240 . S
Cd44 O52 2.223 . S
Cd44 O54 2.297 . S
Cd44 O55 2.439 . S
O45 Cd44 2.240 . S
O45 C50 1.279 . S
O46 Cd43 2.297 . S
O46 C48 1.247 . S
O47 Cd43 2.439 . S
O47 C48 1.208 . S
C48 O46 1.247 . S
C48 O47 1.208 . S
C49 O54 1.247 . S
C49 O55 1.208 . S
C50 O42 1.315 . S
C50 O45 1.279 . S
C51 O52 1.315 . S
C51 O53 1.279 . S
O52 Cd44 2.223 . S
O52 C51 1.315 . S
O53 Cd43 2.240 . S
O53 C51 1.279 . S
O54 Cd44 2.297 . S
O54 C49 1.247 . S
O55 Cd44 2.439 . S
O55 C49 1.208 . S
O56 Cd57 2.223 . S
O56 C64 1.315 . S
Cd57 O56 2.223 . S
Cd57 O60 2.297 . S
Cd57 O61 2.439 . S
Cd57 O67 2.240 . S
Cd58 O59 2.240 . S
Cd58 O66 2.223 . S
Cd58 O68 2.297 . S
Cd58 O69 2.439 . S
O59 Cd58 2.240 . S
O59 C64 1.279 . S
O60 Cd57 2.297 . S
O60 C62 1.247 . S
O61 Cd57 2.439 . S
O61 C62 1.208 . S
C62 O60 1.247 . S
C62 O61 1.208 . S
C63 O68 1.247 . S
C63 O69 1.208 . S
C64 O56 1.315 . S
C64 O59 1.279 . S
C65 O66 1.315 . S
C65 O67 1.279 . S
O66 Cd58 2.223 . S
O66 C65 1.315 . S
O67 Cd57 2.240 . S
O67 C65 1.279 . S
O68 Cd58 2.297 . S
O68 C63 1.247 . S
O69 Cd58 2.439 . S
O69 C63 1.208 . S
O70 Cd71 2.223 . S
O70 C78 1.315 . S
Cd71 O70 2.223 . S
Cd71 O74 2.297 . S
Cd71 O75 2.439 . S
Cd71 O81 2.240 . S
Cd72 O73 2.240 . S
Cd72 O80 2.223 . S
Cd72 O82 2.297 . S
Cd72 O83 2.439 . S
O73 Cd72 2.240 . S
O73 C78 1.279 . S
O74 Cd71 2.297 . S
O74 C76 1.247 . S
O75 Cd71 2.439 . S
O75 C76 1.208 . S
C76 O74 1.247 . S
C76 O75 1.208 . S
C77 O82 1.247 . S
C77 O83 1.208 . S
C78 O70 1.315 . S
C78 O73 1.279 . S
C79 O80 1.315 . S
C79 O81 1.279 . S
O80 Cd72 2.223 . S
O80 C79 1.315 . S
O81 Cd71 2.240 . S
O81 C79 1.279 . S
O82 Cd72 2.297 . S
O82 C77 1.247 . S
O83 Cd72 2.439 . S
O83 C77 1.208 . S
O84 Cd85 2.223 . S
O84 C92 1.315 . S
Cd85 O84 2.223 . S
Cd85 O88 2.297 . S
Cd85 O89 2.439 . S
Cd85 O95 2.240 . S
Cd86 O87 2.240 . S
Cd86 O94 2.223 . S
Cd86 O96 2.297 . S
Cd86 O97 2.439 . S
O87 Cd86 2.240 . S
O87 C92 1.279 . S
O88 Cd85 2.297 . S
O88 C90 1.247 . S
O89 Cd85 2.439 . S
O89 C90 1.208 . S
C90 O88 1.247 . S
C90 O89 1.208 . S
C91 O96 1.247 . S
C91 O97 1.208 . S
C92 O84 1.315 . S
C92 O87 1.279 . S
C93 O94 1.315 . S
C93 O95 1.279 . S
O94 Cd86 2.223 . S
O94 C93 1.315 . S
O95 Cd85 2.240 . S
O95 C93 1.279 . S
O96 Cd86 2.297 . S
O96 C91 1.247 . S
O97 Cd86 2.439 . S
O97 C91 1.208 . S
O98 Cd99 2.223 . S
O98 C106 1.315 . S
Cd99 O98 2.223 . S
Cd99 O102 2.297 . S
Cd99 O103 2.439 . S
Cd99 O109 2.240 . S
Cd100 O101 2.240 . S
Cd100 O108 2.223 . S
Cd100 O110 2.297 . S
Cd100 O111 2.439 . S
O101 Cd100 2.240 . S
O101 C106 1.279 . S
O102 Cd99 2.297 . S
O102 C104 1.247 . S
O103 Cd99 2.439 . S
O103 C104 1.208 . S
C104 O102 1.247 . S
C104 O103 1.208 . S
C105 O110 1.247 . S
C105 O111 1.208 . S
C106 O98 1.315 . S
C106 O101 1.279 . S
C107 O108 1.315 . S
C107 O109 1.279 . S
O108 Cd100 2.223 . S
O108 C107 1.315 . S
O109 Cd99 2.240 . S
O109 C107 1.279 . S
O110 Cd100 2.297 . S
O110 C105 1.247 . S
O111 Cd100 2.439 . S
O111 C105 1.208 . S
O112 Cd113 2.223 . S
O112 C120 1.315 . S
Cd113 O112 2.223 . S
Cd113 O116 2.297 . S
Cd113 O117 2.439 . S
Cd113 O123 2.240 . S
Cd114 O115 2.240 . S
Cd114 O122 2.223 . S
Cd114 O124 2.297 . S
Cd114 O125 2.439 . S
O115 Cd114 2.240 . S
O115 C120 1.279 . S
O116 Cd113 2.297 . S
O116 C118 1.247 . S
O117 Cd113 2.439 . S
O117 C118 1.208 . S
C118 O116 1.247 . S
C118 O117 1.208 . S
C119 O124 1.247 . S
C119 O125 1.208 . S
C120 O112 1.315 . S
C120 O115 1.279 . S
C121 O122 1.315 . S
C121 O123 1.279 . S
O122 Cd114 2.223 . S
O122 C121 1.315 . S
O123 Cd113 2.240 . S
O123 C121 1.279 . S
O124 Cd114 2.297 . S
O124 C119 1.247 . S
O125 Cd114 2.439 . S
O125 C119 1.208 . S
O126 Cd127 2.223 . S
O126 C134 1.315 . S
Cd127 O126 2.223 . S
Cd127 O130 2.297 . S
Cd127 O131 2.439 . S
Cd127 O137 2.240 . S
Cd128 O129 2.240 . S
Cd128 O136 2.223 . S
Cd128 O138 2.297 . S
Cd128 O139 2.439 . S
O129 Cd128 2.240 . S
O129 C134 1.279 . S
O130 Cd127 2.297 . S
O130 C132 1.247 . S
O131 Cd127 2.439 . S
O131 C132 1.208 . S
C132 O130 1.247 . S
C132 O131 1.208 . S
C133 O138 1.247 . S
C133 O139 1.208 . S
C134 O126 1.315 . S
C134 O129 1.279 . S
C135 O136 1.315 . S
C135 O137 1.279 . S
O136 Cd128 2.223 . S
O136 C135 1.315 . S
O137 Cd127 2.240 . S
O137 C135 1.279 . S
O138 Cd128 2.297 . S
O138 C133 1.247 . S
O139 Cd128 2.439 . S
O139 C133 1.208 . S
O140 Cd141 2.223 . S
O140 C148 1.315 . S
Cd141 O140 2.223 . S
Cd141 O144 2.297 . S
Cd141 O145 2.439 . S
Cd141 O151 2.240 . S
Cd142 O143 2.240 . S
Cd142 O150 2.223 . S
Cd142 O152 2.297 . S
Cd142 O153 2.439 . S
O143 Cd142 2.240 . S
O143 C148 1.279 . S
O144 Cd141 2.297 . S
O144 C146 1.247 . S
O145 Cd141 2.439 . S
O145 C146 1.208 . S
C146 O144 1.247 . S
C146 O145 1.208 . S
C147 O152 1.247 . S
C147 O153 1.208 . S
C148 O140 1.315 . S
C148 O143 1.279 . S
C149 O150 1.315 . S
C149 O151 1.279 . S
O150 Cd142 2.223 . S
O150 C149 1.315 . S
O151 Cd141 2.240 . S
O151 C149 1.279 . S
O152 Cd142 2.297 . S
O152 C147 1.247 . S
O153 Cd142 2.439 . S
O153 C147 1.208 . S
O154 Cd155 2.223 . S
O154 C162 1.315 . S
Cd155 O154 2.223 . S
Cd155 O158 2.297 . S
Cd155 O159 2.439 . S
Cd155 O165 2.240 . S
Cd156 O157 2.240 . S
Cd156 O164 2.223 . S
Cd156 O166 2.297 . S
Cd156 O167 2.439 . S
O157 Cd156 2.240 . S
O157 C162 1.279 . S
O158 Cd155 2.297 . S
O158 C160 1.247 . S
O159 Cd155 2.439 . S
O159 C160 1.208 . S
C160 O158 1.247 . S
C160 O159 1.208 . S
C161 O166 1.247 . S
C161 O167 1.208 . S
C162 O154 1.315 . S
C162 O157 1.279 . S
C163 O164 1.315 . S
C163 O165 1.279 . S
O164 Cd156 2.223 . S
O164 C163 1.315 . S
O165 Cd155 2.240 . S
O165 C163 1.279 . S
O166 Cd156 2.297 . S
O166 C161 1.247 . S
O167 Cd156 2.439 . S
O167 C161 1.208 . S
O168 Cd169 2.223 . S
O168 C176 1.315 . S
Cd169 O168 2.223 . S
Cd169 O172 2.297 . S
Cd169 O173 2.439 . S
Cd169 O179 2.240 . S
Cd170 O171 2.240 . S
Cd170 O178 2.223 . S
Cd170 O180 2.297 . S
Cd170 O181 2.439 . S
O171 Cd170 2.240 . S
O171 C176 1.279 . S
O172 Cd169 2.297 . S
O172 C174 1.247 . S
O173 Cd169 2.439 . S
O173 C174 1.208 . S
C174 O172 1.247 . S
C174 O173 1.208 . S
C175 O180 1.247 . S
C175 O181 1.208 . S
C176 O168 1.315 . S
C176 O171 1.279 . S
C177 O178 1.315 . S
C177 O179 1.279 . S
O178 Cd170 2.223 . S
O178 C177 1.315 . S
O179 Cd169 2.240 . S
O179 C177 1.279 . S
O180 Cd170 2.297 . S
O180 C175 1.247 . S
O181 Cd170 2.439 . S
O181 C175 1.208 . S
O182 Cd183 2.223 . S
O182 C190 1.315 . S
Cd183 O182 2.223 . S
Cd183 O186 2.297 . S
Cd183 O187 2.439 . S
Cd183 O193 2.240 . S
Cd184 O185 2.240 . S
Cd184 O192 2.223 . S
Cd184 O194 2.297 . S
Cd184 O195 2.439 . S
O185 Cd184 2.240 . S
O185 C190 1.279 . S
O186 Cd183 2.297 . S
O186 C188 1.247 . S
O187 Cd183 2.439 . S
O187 C188 1.208 . S
C188 O186 1.247 . S
C188 O187 1.208 . S
C189 O194 1.247 . S
C189 O195 1.208 . S
C190 O182 1.315 . S
C190 O185 1.279 . S
C191 O192 1.315 . S
C191 O193 1.279 . S
O192 Cd184 2.223 . S
O192 C191 1.315 . S
O193 Cd183 2.240 . S
O193 C191 1.279 . S
O194 Cd184 2.297 . S
O194 C189 1.247 . S
O195 Cd184 2.439 . S
O195 C189 1.208 . S
O196 Cd197 2.223 . S
O196 C204 1.315 . S
Cd197 O196 2.223 . S
Cd197 O200 2.297 . S
Cd197 O201 2.439 . S
Cd197 O207 2.240 . S
Cd198 O199 2.240 . S
Cd198 O206 2.223 . S
Cd198 O208 2.297 . S
Cd198 O209 2.439 . S
O199 Cd198 2.240 . S
O199 C204 1.279 . S
O200 Cd197 2.297 . S
O200 C202 1.247 . S
O201 Cd197 2.439 . S
O201 C202 1.208 . S
C202 O200 1.247 . S
C202 O201 1.208 . S
C203 O208 1.247 . S
C203 O209 1.208 . S
C204 O196 1.315 . S
C204 O199 1.279 . S
C205 O206 1.315 . S
C205 O207 1.279 . S
O206 Cd198 2.223 . S
O206 C205 1.315 . S
O207 Cd197 2.240 . S
O207 C205 1.279 . S
O208 Cd198 2.297 . S
O208 C203 1.247 . S
O209 Cd198 2.439 . S
O209 C203 1.208 . S
O210 Cd211 2.223 . S
O210 C218 1.315 . S
Cd211 O210 2.223 . S
Cd211 O214 2.297 . S
Cd211 O215 2.439 . S
Cd211 O221 2.240 . S
Cd212 O213 2.240 . S
Cd212 O220 2.223 . S
Cd212 O222 2.297 . S
Cd212 O223 2.439 . S
O213 Cd212 2.240 . S
O213 C218 1.279 . S
O214 Cd211 2.297 . S
O214 C216 1.247 . S
O215 Cd211 2.439 . S
O215 C216 1.208 . S
C216 O214 1.247 . S
C216 O215 1.208 . S
C217 O222 1.247 . S
C217 O223 1.208 . S
C218 O210 1.315 . S
C218 O213 1.279 . S
C219 O220 1.315 . S
C219 O221 1.279 . S
O220 Cd212 2.223 . S
O220 C219 1.315 . S
O221 Cd211 2.240 . S
O221 C219 1.279 . S
O222 Cd212 2.297 . S
O222 C217 1.247 . S
O223 Cd212 2.439 . S
O223 C217 1.208 . S
O224 Cd225 2.223 . S
O224 C232 1.315 . S
Cd225 O224 2.223 . S
Cd225 O228 2.297 . S
Cd225 O229 2.439 . S
Cd225 O235 2.240 . S
Cd226 O227 2.240 . S
Cd226 O234 2.223 . S
Cd226 O236 2.297 . S
Cd226 O237 2.439 . S
O227 Cd226 2.240 . S
O227 C232 1.279 . S
O228 Cd225 2.297 . S
O228 C230 1.247 . S
O229 Cd225 2.439 . S
O229 C230 1.208 . S
C230 O228 1.247 . S
C230 O229 1.208 . S
C231 O236 1.247 . S
C231 O237 1.208 . S
C232 O224 1.315 . S
C232 O227 1.279 . S
C233 O234 1.315 . S
C233 O235 1.279 . S
O234 Cd226 2.223 . S
O234 C233 1.315 . S
O235 Cd225 2.240 . S
O235 C233 1.279 . S
O236 Cd226 2.297 . S
O236 C231 1.247 . S
O237 Cd226 2.439 . S
O237 C231 1.208 . S
O238 Cd239 2.223 . S
O238 C246 1.315 . S
Cd239 O238 2.223 . S
Cd239 O242 2.297 . S
Cd239 O243 2.439 . S
Cd239 O249 2.240 . S
Cd240 O241 2.240 . S
Cd240 O248 2.223 . S
Cd240 O250 2.297 . S
Cd240 O251 2.439 . S
O241 Cd240 2.240 . S
O241 C246 1.279 . S
O242 Cd239 2.297 . S
O242 C244 1.247 . S
O243 Cd239 2.439 . S
O243 C244 1.208 . S
C244 O242 1.247 . S
C244 O243 1.208 . S
C245 O250 1.247 . S
C245 O251 1.208 . S
C246 O238 1.315 . S
C246 O241 1.279 . S
C247 O248 1.315 . S
C247 O249 1.279 . S
O248 Cd240 2.223 . S
O248 C247 1.315 . S
O249 Cd239 2.240 . S
O249 C247 1.279 . S
O250 Cd240 2.297 . S
O250 C245 1.247 . S
O251 Cd240 2.439 . S
O251 C245 1.208 . S
O252 Cd253 2.223 . S
O252 C260 1.315 . S
Cd253 O252 2.223 . S
Cd253 O256 2.297 . S
Cd253 O257 2.439 . S
Cd253 O263 2.240 . S
Cd254 O255 2.240 . S
Cd254 O262 2.223 . S
Cd254 O264 2.297 . S
Cd254 O265 2.439 . S
O255 Cd254 2.240 . S
O255 C260 1.279 . S
O256 Cd253 2.297 . S
O256 C258 1.247 . S
O257 Cd253 2.439 . S
O257 C258 1.208 . S
C258 O256 1.247 . S
C258 O257 1.208 . S
C259 O264 1.247 . S
C259 O265 1.208 . S
C260 O252 1.315 . S
C260 O255 1.279 . S
C261 O262 1.315 . S
C261 O263 1.279 . S
O262 Cd254 2.223 . S
O262 C261 1.315 . S
O263 Cd253 2.240 . S
O263 C261 1.279 . S
O264 Cd254 2.297 . S
O264 C259 1.247 . S
O265 Cd254 2.439 . S
O265 C259 1.208 . S
O266 Cd267 2.223 . S
O266 C274 1.315 . S
Cd267 O266 2.223 . S
Cd267 O270 2.297 . S
Cd267 O271 2.439 . S
Cd267 O277 2.240 . S
Cd268 O269 2.240 . S
Cd268 O276 2.223 . S
Cd268 O278 2.297 . S
Cd268 O279 2.439 . S
O269 Cd268 2.240 . S
O269 C274 1.279 . S
O270 Cd267 2.297 . S
O270 C272 1.247 . S
O271 Cd267 2.439 . S
O271 C272 1.208 . S
C272 O270 1.247 . S
C272 O271 1.208 . S
C273 O278 1.247 . S
C273 O279 1.208 . S
C274 O266 1.315 . S
C274 O269 1.279 . S
C275 O276 1.315 . S
C275 O277 1.279 . S
O276 Cd268 2.223 . S
O276 C275 1.315 . S
O277 Cd267 2.240 . S
O277 C275 1.279 . S
O278 Cd268 2.297 . S
O278 C273 1.247 . S
O279 Cd268 2.439 . S
O279 C273 1.208 . S
O280 Cd281 2.223 . S
O280 C288 1.315 . S
Cd281 O280 2.223 . S
Cd281 O284 2.297 . S
Cd281 O285 2.439 . S
Cd281 O291 2.240 . S
Cd282 O283 2.240 . S
Cd282 O290 2.223 . S
Cd282 O292 2.297 . S
Cd282 O293 2.439 . S
O283 Cd282 2.240 . S
O283 C288 1.279 . S
O284 Cd281 2.297 . S
O284 C286 1.247 . S
O285 Cd281 2.439 . S
O285 C286 1.208 . S
C286 O284 1.247 . S
C286 O285 1.208 . S
C287 O292 1.247 . S
C287 O293 1.208 . S
C288 O280 1.315 . S
C288 O283 1.279 . S
C289 O290 1.315 . S
C289 O291 1.279 . S
O290 Cd282 2.223 . S
O290 C289 1.315 . S
O291 Cd281 2.240 . S
O291 C289 1.279 . S
O292 Cd282 2.297 . S
O292 C287 1.247 . S
O293 Cd282 2.439 . S
O293 C287 1.208 . S
O294 Cd295 2.223 . S
O294 C302 1.315 . S
Cd295 O294 2.223 . S
Cd295 O298 2.297 . S
Cd295 O299 2.439 . S
Cd295 O305 2.240 . S
Cd296 O297 2.240 . S
Cd296 O304 2.223 . S
Cd296 O306 2.297 . S
Cd296 O307 2.439 . S
O297 Cd296 2.240 . S
O297 C302 1.279 . S
O298 Cd295 2.297 . S
O298 C300 1.247 . S
O299 Cd295 2.439 . S
O299 C300 1.208 . S
C300 O298 1.247 . S
C300 O299 1.208 . S
C301 O306 1.247 . S
C301 O307 1.208 . S
C302 O294 1.315 . S
C302 O297 1.279 . S
C303 O304 1.315 . S
C303 O305 1.279 . S
O304 Cd296 2.223 . S
O304 C303 1.315 . S
O305 Cd295 2.240 . S
O305 C303 1.279 . S
O306 Cd296 2.297 . S
O306 C301 1.247 . S
O307 Cd296 2.439 . S
O307 C301 1.208 . S
O308 Cd309 2.223 . S
O308 C316 1.315 . S
Cd309 O308 2.223 . S
Cd309 O312 2.297 . S
Cd309 O313 2.439 . S
Cd309 O319 2.240 . S
Cd310 O311 2.240 . S
Cd310 O318 2.223 . S
Cd310 O320 2.297 . S
Cd310 O321 2.439 . S
O311 Cd310 2.240 . S
O311 C316 1.279 . S
O312 Cd309 2.297 . S
O312 C314 1.247 . S
O313 Cd309 2.439 . S
O313 C314 1.208 . S
C314 O312 1.247 . S
C314 O313 1.208 . S
C315 O320 1.247 . S
C315 O321 1.208 . S
C316 O308 1.315 . S
C316 O311 1.279 . S
C317 O318 1.315 . S
C317 O319 1.279 . S
O318 Cd310 2.223 . S
O318 C317 1.315 . S
O319 Cd309 2.240 . S
O319 C317 1.279 . S
O320 Cd310 2.297 . S
O320 C315 1.247 . S
O321 Cd310 2.439 . S
O321 C315 1.208 . S
O322 Cd323 2.223 . S
O322 C330 1.315 . S
Cd323 O322 2.223 . S
Cd323 O326 2.297 . S
Cd323 O327 2.439 . S
Cd323 O333 2.240 . S
Cd324 O325 2.240 . S
Cd324 O332 2.223 . S
Cd324 O334 2.297 . S
Cd324 O335 2.439 . S
O325 Cd324 2.240 . S
O325 C330 1.279 . S
O326 Cd323 2.297 . S
O326 C328 1.247 . S
O327 Cd323 2.439 . S
O327 C328 1.208 . S
C328 O326 1.247 . S
C328 O327 1.208 . S
C329 O334 1.247 . S
C329 O335 1.208 . S
C330 O322 1.315 . S
C330 O325 1.279 . S
C331 O332 1.315 . S
C331 O333 1.279 . S
O332 Cd324 2.223 . S
O332 C331 1.315 . S
O333 Cd323 2.240 . S
O333 C331 1.279 . S
O334 Cd324 2.297 . S
O334 C329 1.247 . S
O335 Cd324 2.439 . S
O335 C329 1.208 . S
O336 Cd337 2.223 . S
O336 C344 1.315 . S
Cd337 O336 2.223 . S
Cd337 O340 2.297 . S
Cd337 O341 2.439 . S
Cd337 O347 2.240 . S
Cd338 O339 2.240 . S
Cd338 O346 2.223 . S
Cd338 O348 2.297 . S
Cd338 O349 2.439 . S
O339 Cd338 2.240 . S
O339 C344 1.279 . S
O340 Cd337 2.297 . S
O340 C342 1.247 . S
O341 Cd337 2.439 . S
O341 C342 1.208 . S
C342 O340 1.247 . S
C342 O341 1.208 . S
C343 O348 1.247 . S
C343 O349 1.208 . S
C344 O336 1.315 . S
C344 O339 1.279 . S
C345 O346 1.315 . S
C345 O347 1.279 . S
O346 Cd338 2.223 . S
O346 C345 1.315 . S
O347 Cd337 2.240 . S
O347 C345 1.279 . S
O348 Cd338 2.297 . S
O348 C343 1.247 . S
O349 Cd338 2.439 . S
O349 C343 1.208 . S
O350 Cd351 2.223 . S
O350 C358 1.315 . S
Cd351 O350 2.223 . S
Cd351 O354 2.297 . S
Cd351 O355 2.439 . S
Cd351 O361 2.240 . S
Cd352 O353 2.240 . S
Cd352 O360 2.223 . S
Cd352 O362 2.297 . S
Cd352 O363 2.439 . S
O353 Cd352 2.240 . S
O353 C358 1.279 . S
O354 Cd351 2.297 . S
O354 C356 1.247 . S
O355 Cd351 2.439 . S
O355 C356 1.208 . S
C356 O354 1.247 . S
C356 O355 1.208 . S
C357 O362 1.247 . S
C357 O363 1.208 . S
C358 O350 1.315 . S
C358 O353 1.279 . S
C359 O360 1.315 . S
C359 O361 1.279 . S
O360 Cd352 2.223 . S
O360 C359 1.315 . S
O361 Cd351 2.240 . S
O361 C359 1.279 . S
O362 Cd352 2.297 . S
O362 C357 1.247 . S
O363 Cd352 2.439 . S
O363 C357 1.208 . S
O364 Cd365 2.223 . S
O364 C372 1.315 . S
Cd365 O364 2.223 . S
Cd365 O368 2.297 . S
Cd365 O369 2.439 . S
Cd365 O375 2.240 . S
Cd366 O367 2.240 . S
Cd366 O374 2.223 . S
Cd366 O376 2.297 . S
Cd366 O377 2.439 . S
O367 Cd366 2.240 . S
O367 C372 1.279 . S
O368 Cd365 2.297 . S
O368 C370 1.247 . S
O369 Cd365 2.439 . S
O369 C370 1.208 . S
C370 O368 1.247 . S
C370 O369 1.208 . S
C371 O376 1.247 . S
C371 O377 1.208 . S
C372 O364 1.315 . S
C372 O367 1.279 . S
C373 O374 1.315 . S
C373 O375 1.279 . S
O374 Cd366 2.223 . S
O374 C373 1.315 . S
O375 Cd365 2.240 . S
O375 C373 1.279 . S
O376 Cd366 2.297 . S
O376 C371 1.247 . S
O377 Cd366 2.439 . S
O377 C371 1.208 . S
O378 Cd379 2.223 . S
O378 C386 1.315 . S
Cd379 O378 2.223 . S
Cd379 O382 2.297 . S
Cd379 O383 2.439 . S
Cd379 O389 2.240 . S
Cd380 O381 2.240 . S
Cd380 O388 2.223 . S
Cd380 O390 2.297 . S
Cd380 O391 2.439 . S
O381 Cd380 2.240 . S
O381 C386 1.279 . S
O382 Cd379 2.297 . S
O382 C384 1.247 . S
O383 Cd379 2.439 . S
O383 C384 1.208 . S
C384 O382 1.247 . S
C384 O383 1.208 . S
C385 O390 1.247 . S
C385 O391 1.208 . S
C386 O378 1.315 . S
C386 O381 1.279 . S
C387 O388 1.315 . S
C387 O389 1.279 . S
O388 Cd380 2.223 . S
O388 C387 1.315 . S
O389 Cd379 2.240 . S
O389 C387 1.279 . S
O390 Cd380 2.297 . S
O390 C385 1.247 . S
O391 Cd380 2.439 . S
O391 C385 1.208 . S
O392 Cd393 2.223 . S
O392 C400 1.315 . S
Cd393 O392 2.223 . S
Cd393 O396 2.297 . S
Cd393 O397 2.439 . S
Cd393 O403 2.240 . S
Cd394 O395 2.240 . S
Cd394 O402 2.223 . S
Cd394 O404 2.297 . S
Cd394 O405 2.439 . S
O395 Cd394 2.240 . S
O395 C400 1.279 . S
O396 Cd393 2.297 . S
O396 C398 1.247 . S
O397 Cd393 2.439 . S
O397 C398 1.208 . S
C398 O396 1.247 . S
C398 O397 1.208 . S
C399 O404 1.247 . S
C399 O405 1.208 . S
C400 O392 1.315 . S
C400 O395 1.279 . S
C401 O402 1.315 . S
C401 O403 1.279 . S
O402 Cd394 2.223 . S
O402 C401 1.315 . S
O403 Cd393 2.240 . S
O403 C401 1.279 . S
O404 Cd394 2.297 . S
O404 C399 1.247 . S
O405 Cd394 2.439 . S
O405 C399 1.208 . S
O406 Cd407 2.223 . S
O406 C414 1.315 . S
Cd407 O406 2.223 . S
Cd407 O410 2.297 . S
Cd407 O411 2.439 . S
Cd407 O417 2.240 . S
Cd408 O409 2.240 . S
Cd408 O416 2.223 . S
Cd408 O418 2.297 . S
Cd408 O419 2.439 . S
O409 Cd408 2.240 . S
O409 C414 1.279 . S
O410 Cd407 2.297 . S
O410 C412 1.247 . S
O411 Cd407 2.439 . S
O411 C412 1.208 . S
C412 O410 1.247 . S
C412 O411 1.208 . S
C413 O418 1.247 . S
C413 O419 1.208 . S
C414 O406 1.315 . S
C414 O409 1.279 . S
C415 O416 1.315 . S
C415 O417 1.279 . S
O416 Cd408 2.223 . S
O416 C415 1.315 . S
O417 Cd407 2.240 . S
O417 C415 1.279 . S
O418 Cd408 2.297 . S
O418 C413 1.247 . S
O419 Cd408 2.439 . S
O419 C413 1.208 . S
O420 Cd421 2.223 . S
O420 C428 1.315 . S
Cd421 O420 2.223 . S
Cd421 O424 2.297 . S
Cd421 O425 2.439 . S
Cd421 O431 2.240 . S
Cd422 O423 2.240 . S
Cd422 O430 2.223 . S
Cd422 O432 2.297 . S
Cd422 O433 2.439 . S
O423 Cd422 2.240 . S
O423 C428 1.279 . S
O424 Cd421 2.297 . S
O424 C426 1.247 . S
O425 Cd421 2.439 . S
O425 C426 1.208 . S
C426 O424 1.247 . S
C426 O425 1.208 . S
C427 O432 1.247 . S
C427 O433 1.208 . S
C428 O420 1.315 . S
C428 O423 1.279 . S
C429 O430 1.315 . S
C429 O431 1.279 . S
O430 Cd422 2.223 . S
O430 C429 1.315 . S
O431 Cd421 2.240 . S
O431 C429 1.279 . S
O432 Cd422 2.297 . S
O432 C427 1.247 . S
O433 Cd422 2.439 . S
O433 C427 1.208 . S
O434 Cd435 2.223 . S
O434 C442 1.315 . S
Cd435 O434 2.223 . S
Cd435 O438 2.297 . S
Cd435 O439 2.439 . S
Cd435 O445 2.240 . S
Cd436 O437 2.240 . S
Cd436 O444 2.223 . S
Cd436 O446 2.297 . S
Cd436 O447 2.439 . S
O437 Cd436 2.240 . S
O437 C442 1.279 . S
O438 Cd435 2.297 . S
O438 C440 1.247 . S
O439 Cd435 2.439 . S
O439 C440 1.208 . S
C440 O438 1.247 . S
C440 O439 1.208 . S
C441 O446 1.247 . S
C441 O447 1.208 . S
C442 O434 1.315 . S
C442 O437 1.279 . S
C443 O444 1.315 . S
C443 O445 1.279 . S
O444 Cd436 2.223 . S
O444 C443 1.315 . S
O445 Cd435 2.240 . S
O445 C443 1.279 . S
O446 Cd436 2.297 . S
O446 C441 1.247 . S
O447 Cd436 2.439 . S
O447 C441 1.208 . S
O448 Cd449 2.223 . S
O448 C456 1.315 . S
Cd449 O448 2.223 . S
Cd449 O452 2.297 . S
Cd449 O453 2.439 . S
Cd449 O459 2.240 . S
Cd450 O451 2.240 . S
Cd450 O458 2.223 . S
Cd450 O460 2.297 . S
Cd450 O461 2.439 . S
O451 Cd450 2.240 . S
O451 C456 1.279 . S
O452 Cd449 2.297 . S
O452 C454 1.247 . S
O453 Cd449 2.439 . S
O453 C454 1.208 . S
C454 O452 1.247 . S
C454 O453 1.208 . S
C455 O460 1.247 . S
C455 O461 1.208 . S
C456 O448 1.315 . S
C456 O451 1.279 . S
C457 O458 1.315 . S
C457 O459 1.279 . S
O458 Cd450 2.223 . S
O458 C457 1.315 . S
O459 Cd449 2.240 . S
O459 C457 1.279 . S
O460 Cd450 2.297 . S
O460 C455 1.247 . S
O461 Cd450 2.439 . S
O461 C455 1.208 . S
O462 Cd463 2.223 . S
O462 C470 1.315 . S
Cd463 O462 2.223 . S
Cd463 O466 2.297 . S
Cd463 O467 2.439 . S
Cd463 O473 2.240 . S
Cd464 O465 2.240 . S
Cd464 O472 2.223 . S
Cd464 O474 2.297 . S
Cd464 O475 2.439 . S
O465 Cd464 2.240 . S
O465 C470 1.279 . S
O466 Cd463 2.297 . S
O466 C468 1.247 . S
O467 Cd463 2.439 . S
O467 C468 1.208 . S
C468 O466 1.247 . S
C468 O467 1.208 . S
C469 O474 1.247 . S
C469 O475 1.208 . S
C470 O462 1.315 . S
C470 O465 1.279 . S
C471 O472 1.315 . S
C471 O473 1.279 . S
O472 Cd464 2.223 . S
O472 C471 1.315 . S
O473 Cd463 2.240 . S
O473 C471 1.279 . S
O474 Cd464 2.297 . S
O474 C469 1.247 . S
O475 Cd464 2.439 . S
O475 C469 1.208 . S
O476 Cd477 2.223 . S
O476 C484 1.315 . S
Cd477 O476 2.223 . S
Cd477 O480 2.297 . S
Cd477 O481 2.439 . S
Cd477 O487 2.240 . S
Cd478 O479 2.240 . S
Cd478 O486 2.223 . S
Cd478 O488 2.297 . S
Cd478 O489 2.439 . S
O479 Cd478 2.240 . S
O479 C484 1.279 . S
O480 Cd477 2.297 . S
O480 C482 1.247 . S
O481 Cd477 2.439 . S
O481 C482 1.208 . S
C482 O480 1.247 . S
C482 O481 1.208 . S
C483 O488 1.247 . S
C483 O489 1.208 . S
C484 O476 1.315 . S
C484 O479 1.279 . S
C485 O486 1.315 . S
C485 O487 1.279 . S
O486 Cd478 2.223 . S
O486 C485 1.315 . S
O487 Cd477 2.240 . S
O487 C485 1.279 . S
O488 Cd478 2.297 . S
O488 C483 1.247 . S
O489 Cd478 2.439 . S
O489 C483 1.208 . S
O490 Cd491 2.223 . S
O490 C498 1.315 . S
Cd491 O490 2.223 . S
Cd491 O494 2.297 . S
Cd491 O495 2.439 . S
Cd491 O501 2.240 . S
Cd492 O493 2.240 . S
Cd492 O500 2.223 . S
Cd492 O502 2.297 . S
Cd492 O503 2.439 . S
O493 Cd492 2.240 . S
O493 C498 1.279 . S
O494 Cd491 2.297 . S
O494 C496 1.247 . S
O495 Cd491 2.439 . S
O495 C496 1.208 . S
C496 O494 1.247 . S
C496 O495 1.208 . S
C497 O502 1.247 . S
C497 O503 1.208 . S
C498 O490 1.315 . S
C498 O493 1.279 . S
C499 O500 1.315 . S
C499 O501 1.279 . S
O500 Cd492 2.223 . S
O500 C499 1.315 . S
O501 Cd491 2.240 . S
O501 C499 1.279 . S
O502 Cd492 2.297 . S
O502 C497 1.247 . S
O503 Cd492 2.439 . S
O503 C497 1.208 . S
O504 Cd505 2.223 . S
O504 C512 1.315 . S
Cd505 O504 2.223 . S
Cd505 O508 2.297 . S
Cd505 O509 2.439 . S
Cd505 O515 2.240 . S
Cd506 O507 2.240 . S
Cd506 O514 2.223 . S
Cd506 O516 2.297 . S
Cd506 O517 2.439 . S
O507 Cd506 2.240 . S
O507 C512 1.279 . S
O508 Cd505 2.297 . S
O508 C510 1.247 . S
O509 Cd505 2.439 . S
O509 C510 1.208 . S
C510 O508 1.247 . S
C510 O509 1.208 . S
C511 O516 1.247 . S
C511 O517 1.208 . S
C512 O504 1.315 . S
C512 O507 1.279 . S
C513 O514 1.315 . S
C513 O515 1.279 . S
O514 Cd506 2.223 . S
O514 C513 1.315 . S
O515 Cd505 2.240 . S
O515 C513 1.279 . S
O516 Cd506 2.297 . S
O516 C511 1.247 . S
O517 Cd506 2.439 . S
O517 C511 1.208 . S
O518 Cd519 2.223 . S
O518 C526 1.315 . S
Cd519 O518 2.223 . S
Cd519 O522 2.297 . S
Cd519 O523 2.439 . S
Cd519 O529 2.240 . S
Cd520 O521 2.240 . S
Cd520 O528 2.223 . S
Cd520 O530 2.297 . S
Cd520 O531 2.439 . S
O521 Cd520 2.240 . S
O521 C526 1.279 . S
O522 Cd519 2.297 . S
O522 C524 1.247 . S
O523 Cd519 2.439 . S
O523 C524 1.208 . S
C524 O522 1.247 . S
C524 O523 1.208 . S
C525 O530 1.247 . S
C525 O531 1.208 . S
C526 O518 1.315 . S
C526 O521 1.279 . S
C527 O528 1.315 . S
C527 O529 1.279 . S
O528 Cd520 2.223 . S
O528 C527 1.315 . S
O529 Cd519 2.240 . S
O529 C527 1.279 . S
O530 Cd520 2.297 . S
O530 C525 1.247 . S
O531 Cd520 2.439 . S
O531 C525 1.208 . S
O532 Cd533 2.223 . S
O532 C540 1.315 . S
Cd533 O532 2.223 . S
Cd533 O536 2.297 . S
Cd533 O537 2.439 . S
Cd533 O543 2.240 . S
Cd534 O535 2.240 . S
Cd534 O542 2.223 . S
Cd534 O544 2.297 . S
Cd534 O545 2.439 . S
O535 Cd534 2.240 . S
O535 C540 1.279 . S
O536 Cd533 2.297 . S
O536 C538 1.247 . S
O537 Cd533 2.439 . S
O537 C538 1.208 . S
C538 O536 1.247 . S
C538 O537 1.208 . S
C539 O544 1.247 . S
C539 O545 1.208 . S
C540 O532 1.315 . S
C540 O535 1.279 . S
C541 O542 1.315 . S
C541 O543 1.279 . S
O542 Cd534 2.223 . S
O542 C541 1.315 . S
O543 Cd533 2.240 . S
O543 C541 1.279 . S
O544 Cd534 2.297 . S
O544 C539 1.247 . S
O545 Cd534 2.439 . S
O545 C539 1.208 . S
O546 Cd547 2.223 . S
O546 C554 1.315 . S
Cd547 O546 2.223 . S
Cd547 O550 2.297 . S
Cd547 O551 2.439 . S
Cd547 O557 2.240 . S
Cd548 O549 2.240 . S
Cd548 O556 2.223 . S
Cd548 O558 2.297 . S
Cd548 O559 2.439 . S
O549 Cd548 2.240 . S
O549 C554 1.279 . S
O550 Cd547 2.297 . S
O550 C552 1.247 . S
O551 Cd547 2.439 . S
O551 C552 1.208 . S
C552 O550 1.247 . S
C552 O551 1.208 . S
C553 O558 1.247 . S
C553 O559 1.208 . S
C554 O546 1.315 . S
C554 O549 1.279 . S
C555 O556 1.315 . S
C555 O557 1.279 . S
O556 Cd548 2.223 . S
O556 C555 1.315 . S
O557 Cd547 2.240 . S
O557 C555 1.279 . S
O558 Cd548 2.297 . S
O558 C553 1.247 . S
O559 Cd548 2.439 . S
O559 C553 1.208 . S
O560 Cd561 2.223 . S
O560 C568 1.315 . S
Cd561 O560 2.223 . S
Cd561 O564 2.297 . S
Cd561 O565 2.439 . S
Cd561 O571 2.240 . S
Cd562 O563 2.240 . S
Cd562 O570 2.223 . S
Cd562 O572 2.297 . S
Cd562 O573 2.439 . S
O563 Cd562 2.240 . S
O563 C568 1.279 . S
O564 Cd561 2.297 . S
O564 C566 1.247 . S
O565 Cd561 2.439 . S
O565 C566 1.208 . S
C566 O564 1.247 . S
C566 O565 1.208 . S
C567 O572 1.247 . S
C567 O573 1.208 . S
C568 O560 1.315 . S
C568 O563 1.279 . S
C569 O570 1.315 . S
C569 O571 1.279 . S
O570 Cd562 2.223 . S
O570 C569 1.315 . S
O571 Cd561 2.240 . S
O571 C569 1.279 . S
O572 Cd562 2.297 . S
O572 C567 1.247 . S
O573 Cd562 2.439 . S
O573 C567 1.208 . S
O574 Cd575 2.223 . S
O574 C582 1.315 . S
Cd575 O574 2.223 . S
Cd575 O578 2.297 . S
Cd575 O579 2.439 . S
Cd575 O585 2.240 . S
Cd576 O577 2.240 . S
Cd576 O584 2.223 . S
Cd576 O586 2.297 . S
Cd576 O587 2.439 . S
O577 Cd576 2.240 . S
O577 C582 1.279 . S
O578 Cd575 2.297 . S
O578 C580 1.247 . S
O579 Cd575 2.439 . S
O579 C580 1.208 . S
C580 O578 1.247 . S
C580 O579 1.208 . S
C581 O586 1.247 . S
C581 O587 1.208 . S
C582 O574 1.315 . S
C582 O577 1.279 . S
C583 O584 1.315 . S
C583 O585 1.279 . S
O584 Cd576 2.223 . S
O584 C583 1.315 . S
O585 Cd575 2.240 . S
O585 C583 1.279 . S
O586 Cd576 2.297 . S
O586 C581 1.247 . S
O587 Cd576 2.439 . S
O587 C581 1.208 . S
O588 Cd589 2.223 . S
O588 C596 1.315 . S
Cd589 O588 2.223 . S
Cd589 O592 2.297 . S
Cd589 O593 2.439 . S
Cd589 O599 2.240 . S
Cd590 O591 2.240 . S
Cd590 O598 2.223 . S
Cd590 O600 2.297 . S
Cd590 O601 2.439 . S
O591 Cd590 2.240 . S
O591 C596 1.279 . S
O592 Cd589 2.297 . S
O592 C594 1.247 . S
O593 Cd589 2.439 . S
O593 C594 1.208 . S
C594 O592 1.247 . S
C594 O593 1.208 . S
C595 O600 1.247 . S
C595 O601 1.208 . S
C596 O588 1.315 . S
C596 O591 1.279 . S
C597 O598 1.315 . S
C597 O599 1.279 . S
O598 Cd590 2.223 . S
O598 C597 1.315 . S
O599 Cd589 2.240 . S
O599 C597 1.279 . S
O600 Cd590 2.297 . S
O600 C595 1.247 . S
O601 Cd590 2.439 . S
O601 C595 1.208 . S
O602 Cd603 2.223 . S
O602 C610 1.315 . S
Cd603 O602 2.223 . S
Cd603 O606 2.297 . S
Cd603 O607 2.439 . S
Cd603 O613 2.240 . S
Cd604 O605 2.240 . S
Cd604 O612 2.223 . S
Cd604 O614 2.297 . S
Cd604 O615 2.439 . S
O605 Cd604 2.240 . S
O605 C610 1.279 . S
O606 Cd603 2.297 . S
O606 C608 1.247 . S
O607 Cd603 2.439 . S
O607 C608 1.208 . S
C608 O606 1.247 . S
C608 O607 1.208 . S
C609 O614 1.247 . S
C609 O615 1.208 . S
C610 O602 1.315 . S
C610 O605 1.279 . S
C611 O612 1.315 . S
C611 O613 1.279 . S
O612 Cd604 2.223 . S
O612 C611 1.315 . S
O613 Cd603 2.240 . S
O613 C611 1.279 . S
O614 Cd604 2.297 . S
O614 C609 1.247 . S
O615 Cd604 2.439 . S
O615 C609 1.208 . S
O616 Cd617 2.223 . S
O616 C624 1.315 . S
Cd617 O616 2.223 . S
Cd617 O620 2.297 . S
Cd617 O621 2.439 . S
Cd617 O627 2.240 . S
Cd618 O619 2.240 . S
Cd618 O626 2.223 . S
Cd618 O628 2.297 . S
Cd618 O629 2.439 . S
O619 Cd618 2.240 . S
O619 C624 1.279 . S
O620 Cd617 2.297 . S
O620 C622 1.247 . S
O621 Cd617 2.439 . S
O621 C622 1.208 . S
C622 O620 1.247 . S
C622 O621 1.208 . S
C623 O628 1.247 . S
C623 O629 1.208 . S
C624 O616 1.315 . S
C624 O619 1.279 . S
C625 O626 1.315 . S
C625 O627 1.279 . S
O626 Cd618 2.223 . S
O626 C625 1.315 . S
O627 Cd617 2.240 . S
O627 C625 1.279 . S
O628 Cd618 2.297 . S
O628 C623 1.247 . S
O629 Cd618 2.439 . S
O629 C623 1.208 . S
O630 Cd631 2.223 . S
O630 C638 1.315 . S
Cd631 O630 2.223 . S
Cd631 O634 2.297 . S
Cd631 O635 2.439 . S
Cd631 O641 2.240 . S
Cd632 O633 2.240 . S
Cd632 O640 2.223 . S
Cd632 O642 2.297 . S
Cd632 O643 2.439 . S
O633 Cd632 2.240 . S
O633 C638 1.279 . S
O634 Cd631 2.297 . S
O634 C636 1.247 . S
O635 Cd631 2.439 . S
O635 C636 1.208 . S
C636 O634 1.247 . S
C636 O635 1.208 . S
C637 O642 1.247 . S
C637 O643 1.208 . S
C638 O630 1.315 . S
C638 O633 1.279 . S
C639 O640 1.315 . S
C639 O641 1.279 . S
O640 Cd632 2.223 . S
O640 C639 1.315 . S
O641 Cd631 2.240 . S
O641 C639 1.279 . S
O642 Cd632 2.297 . S
O642 C637 1.247 . S
O643 Cd632 2.439 . S
O643 C637 1.208 . S
O644 Cd645 2.223 . S
O644 C652 1.315 . S
Cd645 O644 2.223 . S
Cd645 O648 2.297 . S
Cd645 O649 2.439 . S
Cd645 O655 2.240 . S
Cd646 O647 2.240 . S
Cd646 O654 2.223 . S
Cd646 O656 2.297 . S
Cd646 O657 2.439 . S
O647 Cd646 2.240 . S
O647 C652 1.279 . S
O648 Cd645 2.297 . S
O648 C650 1.247 . S
O649 Cd645 2.439 . S
O649 C650 1.208 . S
C650 O648 1.247 . S
C650 O649 1.208 . S
C651 O656 1.247 . S
C651 O657 1.208 . S
C652 O644 1.315 . S
C652 O647 1.279 . S
C653 O654 1.315 . S
C653 O655 1.279 . S
O654 Cd646 2.223 . S
O654 C653 1.315 . S
O655 Cd645 2.240 . S
O655 C653 1.279 . S
O656 Cd646 2.297 . S
O656 C651 1.247 . S
O657 Cd646 2.439 . S
O657 C651 1.208 . S
O658 Cd659 2.223 . S
O658 C666 1.315 . S
Cd659 O658 2.223 . S
Cd659 O662 2.297 . S
Cd659 O663 2.439 . S
Cd659 O669 2.240 . S
Cd660 O661 2.240 . S
Cd660 O668 2.223 . S
Cd660 O670 2.297 . S
Cd660 O671 2.439 . S
O661 Cd660 2.240 . S
O661 C666 1.279 . S
O662 Cd659 2.297 . S
O662 C664 1.247 . S
O663 Cd659 2.439 . S
O663 C664 1.208 . S
C664 O662 1.247 . S
C664 O663 1.208 . S
C665 O670 1.247 . S
C665 O671 1.208 . S
C666 O658 1.315 . S
C666 O661 1.279 . S
C667 O668 1.315 . S
C667 O669 1.279 . S
O668 Cd660 2.223 . S
O668 C667 1.315 . S
O669 Cd659 2.240 . S
O669 C667 1.279 . S
O670 Cd660 2.297 . S
O670 C665 1.247 . S
O671 Cd660 2.439 . S
O671 C665 1.208 . S
O672 Cd673 2.223 . S
O672 C680 1.315 . S
Cd673 O672 2.223 . S
Cd673 O676 2.297 . S
Cd673 O677 2.439 . S
Cd673 O683 2.240 . S
Cd674 O675 2.240 . S
Cd674 O682 2.223 . S
Cd674 O684 2.297 . S
Cd674 O685 2.439 . S
O675 Cd674 2.240 . S
O675 C680 1.279 . S
O676 Cd673 2.297 . S
O676 C678 1.247 . S
O677 Cd673 2.439 . S
O677 C678 1.208 . S
C678 O676 1.247 . S
C678 O677 1.208 . S
C679 O684 1.247 . S
C679 O685 1.208 . S
C680 O672 1.315 . S
C680 O675 1.279 . S
C681 O682 1.315 . S
C681 O683 1.279 . S
O682 Cd674 2.223 . S
O682 C681 1.315 . S
O683 Cd673 2.240 . S
O683 C681 1.279 . S
O684 Cd674 2.297 . S
O684 C679 1.247 . S
O685 Cd674 2.439 . S
O685 C679 1.208 . S
O686 Cd687 2.223 . S
O686 C694 1.315 . S
Cd687 O686 2.223 . S
Cd687 O690 2.297 . S
Cd687 O691 2.439 . S
Cd687 O697 2.240 . S
Cd688 O689 2.240 . S
Cd688 O696 2.223 . S
Cd688 O698 2.297 . S
Cd688 O699 2.439 . S
O689 Cd688 2.240 . S
O689 C694 1.279 . S
O690 Cd687 2.297 . S
O690 C692 1.247 . S
O691 Cd687 2.439 . S
O691 C692 1.208 . S
C692 O690 1.247 . S
C692 O691 1.208 . S
C693 O698 1.247 . S
C693 O699 1.208 . S
C694 O686 1.315 . S
C694 O689 1.279 . S
C695 O696 1.315 . S
C695 O697 1.279 . S
O696 Cd688 2.223 . S
O696 C695 1.315 . S
O697 Cd687 2.240 . S
O697 C695 1.279 . S
O698 Cd688 2.297 . S
O698 C693 1.247 . S
O699 Cd688 2.439 . S
O699 C693 1.208 . S
O700 Cd701 2.223 . S
O700 C708 1.315 . S
Cd701 O700 2.223 . S
Cd701 O704 2.297 . S
Cd701 O705 2.439 . S
Cd701 O711 2.240 . S
Cd702 O703 2.240 . S
Cd702 O710 2.223 . S
Cd702 O712 2.297 . S
Cd702 O713 2.439 . S
O703 Cd702 2.240 . S
O703 C708 1.279 . S
O704 Cd701 2.297 . S
O704 C706 1.247 . S
O705 Cd701 2.439 . S
O705 C706 1.208 . S
C706 O704 1.247 . S
C706 O705 1.208 . S
C707 O712 1.247 . S
C707 O713 1.208 . S
C708 O700 1.315 . S
C708 O703 1.279 . S
C709 O710 1.315 . S
C709 O711 1.279 . S
O710 Cd702 2.223 . S
O710 C709 1.315 . S
O711 Cd701 2.240 . S
O711 C709 1.279 . S
O712 Cd702 2.297 . S
O712 C707 1.247 . S
O713 Cd702 2.439 . S
O713 C707 1.208 . S
O714 Cd715 2.223 . S
O714 C722 1.315 . S
Cd715 O714 2.223 . S
Cd715 O718 2.297 . S
Cd715 O719 2.439 . S
Cd715 O725 2.240 . S
Cd716 O717 2.240 . S
Cd716 O724 2.223 . S
Cd716 O726 2.297 . S
Cd716 O727 2.439 . S
O717 Cd716 2.240 . S
O717 C722 1.279 . S
O718 Cd715 2.297 . S
O718 C720 1.247 . S
O719 Cd715 2.439 . S
O719 C720 1.208 . S
C720 O718 1.247 . S
C720 O719 1.208 . S
C721 O726 1.247 . S
C721 O727 1.208 . S
C722 O714 1.315 . S
C722 O717 1.279 . S
C723 O724 1.315 . S
C723 O725 1.279 . S
O724 Cd716 2.223 . S
O724 C723 1.315 . S
O725 Cd715 2.240 . S
O725 C723 1.279 . S
O726 Cd716 2.297 . S
O726 C721 1.247 . S
O727 Cd716 2.439 . S
O727 C721 1.208 . S
O728 Cd729 2.223 . S
O728 C736 1.315 . S
Cd729 O728 2.223 . S
Cd729 O732 2.297 . S
Cd729 O733 2.439 . S
Cd729 O739 2.240 . S
Cd730 O731 2.240 . S
Cd730 O738 2.223 . S
Cd730 O740 2.297 . S
Cd730 O741 2.439 . S
O731 Cd730 2.240 . S
O731 C736 1.279 . S
O732 Cd729 2.297 . S
O732 C734 1.247 . S
O733 Cd729 2.439 . S
O733 C734 1.208 . S
C734 O732 1.247 . S
C734 O733 1.208 . S
C735 O740 1.247 . S
C735 O741 1.208 . S
C736 O728 1.315 . S
C736 O731 1.279 . S
C737 O738 1.315 . S
C737 O739 1.279 . S
O738 Cd730 2.223 . S
O738 C737 1.315 . S
O739 Cd729 2.240 . S
O739 C737 1.279 . S
O740 Cd730 2.297 . S
O740 C735 1.247 . S
O741 Cd730 2.439 . S
O741 C735 1.208 . S
O742 Cd743 2.223 . S
O742 C750 1.315 . S
Cd743 O742 2.223 . S
Cd743 O746 2.297 . S
Cd743 O747 2.439 . S
Cd743 O753 2.240 . S
Cd744 O745 2.240 . S
Cd744 O752 2.223 . S
Cd744 O754 2.297 . S
Cd744 O755 2.439 . S
O745 Cd744 2.240 . S
O745 C750 1.279 . S
O746 Cd743 2.297 . S
O746 C748 1.247 . S
O747 Cd743 2.439 . S
O747 C748 1.208 . S
C748 O746 1.247 . S
C748 O747 1.208 . S
C749 O754 1.247 . S
C749 O755 1.208 . S
C750 O742 1.315 . S
C750 O745 1.279 . S
C751 O752 1.315 . S
C751 O753 1.279 . S
O752 Cd744 2.223 . S
O752 C751 1.315 . S
O753 Cd743 2.240 . S
O753 C751 1.279 . S
O754 Cd744 2.297 . S
O754 C749 1.247 . S
O755 Cd744 2.439 . S
O755 C749 1.208 . S
O756 Cd757 2.223 . S
O756 C764 1.315 . S
Cd757 O756 2.223 . S
Cd757 O760 2.297 . S
Cd757 O761 2.439 . S
Cd757 O767 2.240 . S
Cd758 O759 2.240 . S
Cd758 O766 2.223 . S
Cd758 O768 2.297 . S
Cd758 O769 2.439 . S
O759 Cd758 2.240 . S
O759 C764 1.279 . S
O760 Cd757 2.297 . S
O760 C762 1.247 . S
O761 Cd757 2.439 . S
O761 C762 1.208 . S
C762 O760 1.247 . S
C762 O761 1.208 . S
C763 O768 1.247 . S
C763 O769 1.208 . S
C764 O756 1.315 . S
C764 O759 1.279 . S
C765 O766 1.315 . S
C765 O767 1.279 . S
O766 Cd758 2.223 . S
O766 C765 1.315 . S
O767 Cd757 2.240 . S
O767 C765 1.279 . S
O768 Cd758 2.297 . S
O768 C763 1.247 . S
O769 Cd758 2.439 . S
O769 C763 1.208 . S
O770 Cd771 2.223 . S
O770 C778 1.315 . S
Cd771 O770 2.223 . S
Cd771 O774 2.297 . S
Cd771 O775 2.439 . S
Cd771 O781 2.240 . S
Cd772 O773 2.240 . S
Cd772 O780 2.223 . S
Cd772 O782 2.297 . S
Cd772 O783 2.439 . S
O773 Cd772 2.240 . S
O773 C778 1.279 . S
O774 Cd771 2.297 . S
O774 C776 1.247 . S
O775 Cd771 2.439 . S
O775 C776 1.208 . S
C776 O774 1.247 . S
C776 O775 1.208 . S
C777 O782 1.247 . S
C777 O783 1.208 . S
C778 O770 1.315 . S
C778 O773 1.279 . S
C779 O780 1.315 . S
C779 O781 1.279 . S
O780 Cd772 2.223 . S
O780 C779 1.315 . S
O781 Cd771 2.240 . S
O781 C779 1.279 . S
O782 Cd772 2.297 . S
O782 C777 1.247 . S
O783 Cd772 2.439 . S
O783 C777 1.208 . S
O784 Cd785 2.223 . S
O784 C792 1.315 . S
Cd785 O784 2.223 . S
Cd785 O788 2.297 . S
Cd785 O789 2.439 . S
Cd785 O795 2.240 . S
Cd786 O787 2.240 . S
Cd786 O794 2.223 . S
Cd786 O796 2.297 . S
Cd786 O797 2.439 . S
O787 Cd786 2.240 . S
O787 C792 1.279 . S
O788 Cd785 2.297 . S
O788 C790 1.247 . S
O789 Cd785 2.439 . S
O789 C790 1.208 . S
C790 O788 1.247 . S
C790 O789 1.208 . S
C791 O796 1.247 . S
C791 O797 1.208 . S
C792 O784 1.315 . S
C792 O787 1.279 . S
C793 O794 1.315 . S
C793 O795 1.279 . S
O794 Cd786 2.223 . S
O794 C793 1.315 . S
O795 Cd785 2.240 . S
O795 C793 1.279 . S
O796 Cd786 2.297 . S
O796 C791 1.247 . S
O797 Cd786 2.439 . S
O797 C791 1.208 . S
O798 Cd799 2.223 . S
O798 C806 1.315 . S
Cd799 O798 2.223 . S
Cd799 O802 2.297 . S
Cd799 O803 2.439 . S
Cd799 O809 2.240 . S
Cd800 O801 2.240 . S
Cd800 O808 2.223 . S
Cd800 O810 2.297 . S
Cd800 O811 2.439 . S
O801 Cd800 2.240 . S
O801 C806 1.279 . S
O802 Cd799 2.297 . S
O802 C804 1.247 . S
O803 Cd799 2.439 . S
O803 C804 1.208 . S
C804 O802 1.247 . S
C804 O803 1.208 . S
C805 O810 1.247 . S
C805 O811 1.208 . S
C806 O798 1.315 . S
C806 O801 1.279 . S
C807 O808 1.315 . S
C807 O809 1.279 . S
O808 Cd800 2.223 . S
O808 C807 1.315 . S
O809 Cd799 2.240 . S
O809 C807 1.279 . S
O810 Cd800 2.297 . S
O810 C805 1.247 . S
O811 Cd800 2.439 . S
O811 C805 1.208 . S
O812 Cd813 2.223 . S
O812 C820 1.315 . S
Cd813 O812 2.223 . S
Cd813 O816 2.297 . S
Cd813 O817 2.439 . S
Cd813 O823 2.240 . S
Cd814 O815 2.240 . S
Cd814 O822 2.223 . S
Cd814 O824 2.297 . S
Cd814 O825 2.439 . S
O815 Cd814 2.240 . S
O815 C820 1.279 . S
O816 Cd813 2.297 . S
O816 C818 1.247 . S
O817 Cd813 2.439 . S
O817 C818 1.208 . S
C818 O816 1.247 . S
C818 O817 1.208 . S
C819 O824 1.247 . S
C819 O825 1.208 . S
C820 O812 1.315 . S
C820 O815 1.279 . S
C821 O822 1.315 . S
C821 O823 1.279 . S
O822 Cd814 2.223 . S
O822 C821 1.315 . S
O823 Cd813 2.240 . S
O823 C821 1.279 . S
O824 Cd814 2.297 . S
O824 C819 1.247 . S
O825 Cd814 2.439 . S
O825 C819 1.208 . S
O826 Cd827 2.223 . S
O826 C834 1.315 . S
Cd827 O826 2.223 . S
Cd827 O830 2.297 . S
Cd827 O831 2.439 . S
Cd827 O837 2.240 . S
Cd828 O829 2.240 . S
Cd828 O836 2.223 . S
Cd828 O838 2.297 . S
Cd828 O839 2.439 . S
O829 Cd828 2.240 . S
O829 C834 1.279 . S
O830 Cd827 2.297 . S
O830 C832 1.247 . S
O831 Cd827 2.439 . S
O831 C832 1.208 . S
C832 O830 1.247 . S
C832 O831 1.208 . S
C833 O838 1.247 . S
C833 O839 1.208 . S
C834 O826 1.315 . S
C834 O829 1.279 . S
C835 O836 1.315 . S
C835 O837 1.279 . S
O836 Cd828 2.223 . S
O836 C835 1.315 . S
O837 Cd827 2.240 . S
O837 C835 1.279 . S
O838 Cd828 2.297 . S
O838 C833 1.247 . S
O839 Cd828 2.439 . S
O839 C833 1.208 . S
O840 Cd841 2.223 . S
O840 C848 1.315 . S
Cd841 O840 2.223 . S
Cd841 O844 2.297 . S
Cd841 O845 2.439 . S
Cd841 O851 2.240 . S
Cd842 O843 2.240 . S
Cd842 O850 2.223 . S
Cd842 O852 2.297 . S
Cd842 O853 2.439 . S
O843 Cd842 2.240 . S
O843 C848 1.279 . S
O844 Cd841 2.297 . S
O844 C846 1.247 . S
O845 Cd841 2.439 . S
O845 C846 1.208 . S
C846 O844 1.247 . S
C846 O845 1.208 . S
C847 O852 1.247 . S
C847 O853 1.208 . S
C848 O840 1.315 . S
C848 O843 1.279 . S
C849 O850 1.315 . S
C849 O851 1.279 . S
O850 Cd842 2.223 . S
O850 C849 1.315 . S
O851 Cd841 2.240 . S
O851 C849 1.279 . S
O852 Cd842 2.297 . S
O852 C847 1.247 . S
O853 Cd842 2.439 . S
O853 C847 1.208 . S
O854 Cd855 2.223 . S
O854 C862 1.315 . S
Cd855 O854 2.223 . S
Cd855 O858 2.297 . S
Cd855 O859 2.439 . S
Cd855 O865 2.240 . S
Cd856 O857 2.240 . S
Cd856 O864 2.223 . S
Cd856 O866 2.297 . S
Cd856 O867 2.439 . S
O857 Cd856 2.240 . S
O857 C862 1.279 . S
O858 Cd855 2.297 . S
O858 C860 1.247 . S
O859 Cd855 2.439 . S
O859 C860 1.208 . S
C860 O858 1.247 . S
C860 O859 1.208 . S
C861 O866 1.247 . S
C861 O867 1.208 . S
C862 O854 1.315 . S
C862 O857 1.279 . S
C863 O864 1.315 . S
C863 O865 1.279 . S
O864 Cd856 2.223 . S
O864 C863 1.315 . S
O865 Cd855 2.240 . S
O865 C863 1.279 . S
O866 Cd856 2.297 . S
O866 C861 1.247 . S
O867 Cd856 2.439 . S
O867 C861 1.208 . S
O868 Cd869 2.223 . S
O868 C876 1.315 . S
Cd869 O868 2.223 . S
Cd869 O872 2.297 . S
Cd869 O873 2.439 . S
Cd869 O879 2.240 . S
Cd870 O871 2.240 . S
Cd870 O878 2.223 . S
Cd870 O880 2.297 . S
Cd870 O881 2.439 . S
O871 Cd870 2.240 . S
O871 C876 1.279 . S
O872 Cd869 2.297 . S
O872 C874 1.247 . S
O873 Cd869 2.439 . S
O873 C874 1.208 . S
C874 O872 1.247 . S
C874 O873 1.208 . S
C875 O880 1.247 . S
C875 O881 1.208 . S
C876 O868 1.315 . S
C876 O871 1.279 . S
C877 O878 1.315 . S
C877 O879 1.279 . S
O878 Cd870 2.223 . S
O878 C877 1.315 . S
O879 Cd869 2.240 . S
O879 C877 1.279 . S
O880 Cd870 2.297 . S
O880 C875 1.247 . S
O881 Cd870 2.439 . S
O881 C875 1.208 . S
O882 Cd883 2.223 . S
O882 C890 1.315 . S
Cd883 O882 2.223 . S
Cd883 O886 2.297 . S
Cd883 O887 2.439 . S
Cd883 O893 2.240 . S
Cd884 O885 2.240 . S
Cd884 O892 2.223 . S
Cd884 O894 2.297 . S
Cd884 O895 2.439 . S
O885 Cd884 2.240 . S
O885 C890 1.279 . S
O886 Cd883 2.297 . S
O886 C888 1.247 . S
O887 Cd883 2.439 . S
O887 C888 1.208 . S
C888 O886 1.247 . S
C888 O887 1.208 . S
C889 O894 1.247 . S
C889 O895 1.208 . S
C890 O882 1.315 . S
C890 O885 1.279 . S
C891 O892 1.315 . S
C891 O893 1.279 . S
O892 Cd884 2.223 . S
O892 C891 1.315 . S
O893 Cd883 2.240 . S
O893 C891 1.279 . S
O894 Cd884 2.297 . S
O894 C889 1.247 . S
O895 Cd884 2.439 . S
O895 C889 1.208 . S
O896 Cd897 2.223 . S
O896 C904 1.315 . S
Cd897 O896 2.223 . S
Cd897 O900 2.297 . S
Cd897 O901 2.439 . S
Cd897 O907 2.240 . S
Cd898 O899 2.240 . S
Cd898 O906 2.223 . S
Cd898 O908 2.297 . S
Cd898 O909 2.439 . S
O899 Cd898 2.240 . S
O899 C904 1.279 . S
O900 Cd897 2.297 . S
O900 C902 1.247 . S
O901 Cd897 2.439 . S
O901 C902 1.208 . S
C902 O900 1.247 . S
C902 O901 1.208 . S
C903 O908 1.247 . S
C903 O909 1.208 . S
C904 O896 1.315 . S
C904 O899 1.279 . S
C905 O906 1.315 . S
C905 O907 1.279 . S
O906 Cd898 2.223 . S
O906 C905 1.315 . S
O907 Cd897 2.240 . S
O907 C905 1.279 . S
O908 Cd898 2.297 . S
O908 C903 1.247 . S
O909 Cd898 2.439 . S
O909 C903 1.208 . S
O910 Cd911 2.223 . S
O910 C918 1.315 . S
Cd911 O910 2.223 . S
Cd911 O914 2.297 . S
Cd911 O915 2.439 . S
Cd911 O921 2.240 . S
Cd912 O913 2.240 . S
Cd912 O920 2.223 . S
Cd912 O922 2.297 . S
Cd912 O923 2.439 . S
O913 Cd912 2.240 . S
O913 C918 1.279 . S
O914 Cd911 2.297 . S
O914 C916 1.247 . S
O915 Cd911 2.439 . S
O915 C916 1.208 . S
C916 O914 1.247 . S
C916 O915 1.208 . S
C917 O922 1.247 . S
C917 O923 1.208 . S
C918 O910 1.315 . S
C918 O913 1.279 . S
C919 O920 1.315 . S
C919 O921 1.279 . S
O920 Cd912 2.223 . S
O920 C919 1.315 . S
O921 Cd911 2.240 . S
O921 C919 1.279 . S
O922 Cd912 2.297 . S
O922 C917 1.247 . S
O923 Cd912 2.439 . S
O923 C917 1.208 . S
O924 Cd925 2.223 . S
O924 C932 1.315 . S
Cd925 O924 2.223 . S
Cd925 O928 2.297 . S
Cd925 O929 2.439 . S
Cd925 O935 2.240 . S
Cd926 O927 2.240 . S
Cd926 O934 2.223 . S
Cd926 O936 2.297 . S
Cd926 O937 2.439 . S
O927 Cd926 2.240 . S
O927 C932 1.279 . S
O928 Cd925 2.297 . S
O928 C930 1.247 . S
O929 Cd925 2.439 . S
O929 C930 1.208 . S
C930 O928 1.247 . S
C930 O929 1.208 . S
C931 O936 1.247 . S
C931 O937 1.208 . S
C932 O924 1.315 . S
C932 O927 1.279 . S
C933 O934 1.315 . S
C933 O935 1.279 . S
O934 Cd926 2.223 . S
O934 C933 1.315 . S
O935 Cd925 2.240 . S
O935 C933 1.279 . S
O936 Cd926 2.297 . S
O936 C931 1.247 . S
O937 Cd926 2.439 . S
O937 C931 1.208 . S
O938 Cd939 2.223 . S
O938 C946 1.315 . S
Cd939 O938 2.223 . S
Cd939 O942 2.297 . S
Cd939 O943 2.439 . S
Cd939 O949 2.240 . S
Cd940 O941 2.240 . S
Cd940 O948 2.223 . S
Cd940 O950 2.297 . S
Cd940 O951 2.439 . S
O941 Cd940 2.240 . S
O941 C946 1.279 . S
O942 Cd939 2.297 . S
O942 C944 1.247 . S
O943 Cd939 2.439 . S
O943 C944 1.208 . S
C944 O942 1.247 . S
C944 O943 1.208 . S
C945 O950 1.247 . S
C945 O951 1.208 . S
C946 O938 1.315 . S
C946 O941 1.279 . S
C947 O948 1.315 . S
C947 O949 1.279 . S
O948 Cd940 2.223 . S
O948 C947 1.315 . S
O949 Cd939 2.240 . S
O949 C947 1.279 . S
O950 Cd940 2.297 . S
O950 C945 1.247 . S
O951 Cd940 2.439 . S
O951 C945 1.208 . S
O952 Cd953 2.223 . S
O952 C960 1.315 . S
Cd953 O952 2.223 . S
Cd953 O956 2.297 . S
Cd953 O957 2.439 . S
Cd953 O963 2.240 . S
Cd954 O955 2.240 . S
Cd954 O962 2.223 . S
Cd954 O964 2.297 . S
Cd954 O965 2.439 . S
O955 Cd954 2.240 . S
O955 C960 1.279 . S
O956 Cd953 2.297 . S
O956 C958 1.247 . S
O957 Cd953 2.439 . S
O957 C958 1.208 . S
C958 O956 1.247 . S
C958 O957 1.208 . S
C959 O964 1.247 . S
C959 O965 1.208 . S
C960 O952 1.315 . S
C960 O955 1.279 . S
C961 O962 1.315 . S
C961 O963 1.279 . S
O962 Cd954 2.223 . S
O962 C961 1.315 . S
O963 Cd953 2.240 . S
O963 C961 1.279 . S
O964 Cd954 2.297 . S
O964 C959 1.247 . S
O965 Cd954 2.439 . S
O965 C959 1.208 . S
O966 Cd967 2.223 . S
O966 C974 1.315 . S
Cd967 O966 2.223 . S
Cd967 O970 2.297 . S
Cd967 O971 2.439 . S
Cd967 O977 2.240 . S
Cd968 O969 2.240 . S
Cd968 O976 2.223 . S
Cd968 O978 2.297 . S
Cd968 O979 2.439 . S
O969 Cd968 2.240 . S
O969 C974 1.279 . S
O970 Cd967 2.297 . S
O970 C972 1.247 . S
O971 Cd967 2.439 . S
O971 C972 1.208 . S
C972 O970 1.247 . S
C972 O971 1.208 . S
C973 O978 1.247 . S
C973 O979 1.208 . S
C974 O966 1.315 . S
C974 O969 1.279 . S
C975 O976 1.315 . S
C975 O977 1.279 . S
O976 Cd968 2.223 . S
O976 C975 1.315 . S
O977 Cd967 2.240 . S
O977 C975 1.279 . S
O978 Cd968 2.297 . S
O978 C973 1.247 . S
O979 Cd968 2.439 . S
O979 C973 1.208 . S
O980 Cd981 2.223 . S
O980 C988 1.315 . S
Cd981 O980 2.223 . S
Cd981 O984 2.297 . S
Cd981 O985 2.439 . S
Cd981 O991 2.240 . S
Cd982 O983 2.240 . S
Cd982 O990 2.223 . S
Cd982 O992 2.297 . S
Cd982 O993 2.439 . S
O983 Cd982 2.240 . S
O983 C988 1.279 . S
O984 Cd981 2.297 . S
O984 C986 1.247 . S
O985 Cd981 2.439 . S
O985 C986 1.208 . S
C986 O984 1.247 . S
C986 O985 1.208 . S
C987 O992 1.247 . S
C987 O993 1.208 . S
C988 O980 1.315 . S
C988 O983 1.279 . S
C989 O990 1.315 . S
C989 O991 1.279 . S
O990 Cd982 2.223 . S
O990 C989 1.315 . S
O991 Cd981 2.240 . S
O991 C989 1.279 . S
O992 Cd982 2.297 . S
O992 C987 1.247 . S
O993 Cd982 2.439 . S
O993 C987 1.208 . S
O994 Cd995 2.223 . S
O994 C1002 1.315 . S
Cd995 O994 2.223 . S
Cd995 O998 2.297 . S
Cd995 O999 2.439 . S
Cd995 O1005 2.240 . S
Cd996 O997 2.240 . S
Cd996 O1004 2.223 . S
Cd996 O1006 2.297 . S
Cd996 O1007 2.439 . S
O997 Cd996 2.240 . S
O997 C1002 1.279 . S
O998 Cd995 2.297 . S
O998 C1000 1.247 . S
O999 Cd995 2.439 . S
O999 C1000 1.208 . S
C1000 O998 1.247 . S
C1000 O999 1.208 . S
C1001 O1006 1.247 . S
C1001 O1007 1.208 . S
C1002 O994 1.315 . S
C1002 O997 1.279 . S
C1003 O1004 1.315 . S
C1003 O1005 1.279 . S
O1004 Cd996 2.223 . S
O1004 C1003 1.315 . S
O1005 Cd995 2.240 . S
O1005 C1003 1.279 . S
O1006 Cd996 2.297 . S
O1006 C1001 1.247 . S
O1007 Cd996 2.439 . S
O1007 C1001 1.208 . S
O1008 Cd1009 2.223 . S
O1008 C1016 1.315 . S
Cd1009 O1008 2.223 . S
Cd1009 O1012 2.297 . S
Cd1009 O1013 2.439 . S
Cd1009 O1019 2.240 . S
Cd1010 O1011 2.240 . S
Cd1010 O1018 2.223 . S
Cd1010 O1020 2.297 . S
Cd1010 O1021 2.439 . S
O1011 Cd1010 2.240 . S
O1011 C1016 1.279 . S
O1012 Cd1009 2.297 . S
O1012 C1014 1.247 . S
O1013 Cd1009 2.439 . S
O1013 C1014 1.208 . S
C1014 O1012 1.247 . S
C1014 O1013 1.208 . S
C1015 O1020 1.247 . S
C1015 O1021 1.208 . S
C1016 O1008 1.315 . S
C1016 O1011 1.279 . S
C1017 O1018 1.315 . S
C1017 O1019 1.279 . S
O1018 Cd1010 2.223 . S
O1018 C1017 1.315 . S
O1019 Cd1009 2.240 . S
O1019 C1017 1.279 . S
O1020 Cd1010 2.297 . S
O1020 C1015 1.247 . S
O1021 Cd1010 2.439 . S
O1021 C1015 1.208 . S
O1022 Cd1023 2.223 . S
O1022 C1030 1.315 . S
Cd1023 O1022 2.223 . S
Cd1023 O1026 2.297 . S
Cd1023 O1027 2.439 . S
Cd1023 O1033 2.240 . S
Cd1024 O1025 2.240 . S
Cd1024 O1032 2.223 . S
Cd1024 O1034 2.297 . S
Cd1024 O1035 2.439 . S
O1025 Cd1024 2.240 . S
O1025 C1030 1.279 . S
O1026 Cd1023 2.297 . S
O1026 C1028 1.247 . S
O1027 Cd1023 2.439 . S
O1027 C1028 1.208 . S
C1028 O1026 1.247 . S
C1028 O1027 1.208 . S
C1029 O1034 1.247 . S
C1029 O1035 1.208 . S
C1030 O1022 1.315 . S
C1030 O1025 1.279 . S
C1031 O1032 1.315 . S
C1031 O1033 1.279 . S
O1032 Cd1024 2.223 . S
O1032 C1031 1.315 . S
O1033 Cd1023 2.240 . S
O1033 C1031 1.279 . S
O1034 Cd1024 2.297 . S
O1034 C1029 1.247 . S
O1035 Cd1024 2.439 . S
O1035 C1029 1.208 . S
O1036 Cd1037 2.223 . S
O1036 C1044 1.315 . S
Cd1037 O1036 2.223 . S
Cd1037 O1040 2.297 . S
Cd1037 O1041 2.439 . S
Cd1037 O1047 2.240 . S
Cd1038 O1039 2.240 . S
Cd1038 O1046 2.223 . S
Cd1038 O1048 2.297 . S
Cd1038 O1049 2.439 . S
O1039 Cd1038 2.240 . S
O1039 C1044 1.279 . S
O1040 Cd1037 2.297 . S
O1040 C1042 1.247 . S
O1041 Cd1037 2.439 . S
O1041 C1042 1.208 . S
C1042 O1040 1.247 . S
C1042 O1041 1.208 . S
C1043 O1048 1.247 . S
C1043 O1049 1.208 . S
C1044 O1036 1.315 . S
C1044 O1039 1.279 . S
C1045 O1046 1.315 . S
C1045 O1047 1.279 . S
O1046 Cd1038 2.223 . S
O1046 C1045 1.315 . S
O1047 Cd1037 2.240 . S
O1047 C1045 1.279 . S
O1048 Cd1038 2.297 . S
O1048 C1043 1.247 . S
O1049 Cd1038 2.439 . S
O1049 C1043 1.208 . S
O1050 Cd1051 2.223 . S
O1050 C1058 1.315 . S
Cd1051 O1050 2.223 . S
Cd1051 O1054 2.297 . S
Cd1051 O1055 2.439 . S
Cd1051 O1061 2.240 . S
Cd1052 O1053 2.240 . S
Cd1052 O1060 2.223 . S
Cd1052 O1062 2.297 . S
Cd1052 O1063 2.439 . S
O1053 Cd1052 2.240 . S
O1053 C1058 1.279 . S
O1054 Cd1051 2.297 . S
O1054 C1056 1.247 . S
O1055 Cd1051 2.439 . S
O1055 C1056 1.208 . S
C1056 O1054 1.247 . S
C1056 O1055 1.208 . S
C1057 O1062 1.247 . S
C1057 O1063 1.208 . S
C1058 O1050 1.315 . S
C1058 O1053 1.279 . S
C1059 O1060 1.315 . S
C1059 O1061 1.279 . S
O1060 Cd1052 2.223 . S
O1060 C1059 1.315 . S
O1061 Cd1051 2.240 . S
O1061 C1059 1.279 . S
O1062 Cd1052 2.297 . S
O1062 C1057 1.247 . S
O1063 Cd1052 2.439 . S
O1063 C1057 1.208 . S
O1064 Cd1065 2.223 . S
O1064 C1072 1.315 . S
Cd1065 O1064 2.223 . S
Cd1065 O1068 2.297 . S
Cd1065 O1069 2.439 . S
Cd1065 O1075 2.240 . S
Cd1066 O1067 2.240 . S
Cd1066 O1074 2.223 . S
Cd1066 O1076 2.297 . S
Cd1066 O1077 2.439 . S
O1067 Cd1066 2.240 . S
O1067 C1072 1.279 . S
O1068 Cd1065 2.297 . S
O1068 C1070 1.247 . S
O1069 Cd1065 2.439 . S
O1069 C1070 1.208 . S
C1070 O1068 1.247 . S
C1070 O1069 1.208 . S
C1071 O1076 1.247 . S
C1071 O1077 1.208 . S
C1072 O1064 1.315 . S
C1072 O1067 1.279 . S
C1073 O1074 1.315 . S
C1073 O1075 1.279 . S
O1074 Cd1066 2.223 . S
O1074 C1073 1.315 . S
O1075 Cd1065 2.240 . S
O1075 C1073 1.279 . S
O1076 Cd1066 2.297 . S
O1076 C1071 1.247 . S
O1077 Cd1066 2.439 . S
O1077 C1071 1.208 . S
O1078 Cd1079 2.223 . S
O1078 C1086 1.315 . S
Cd1079 O1078 2.223 . S
Cd1079 O1082 2.297 . S
Cd1079 O1083 2.439 . S
Cd1079 O1089 2.240 . S
Cd1080 O1081 2.240 . S
Cd1080 O1088 2.223 . S
Cd1080 O1090 2.297 . S
Cd1080 O1091 2.439 . S
O1081 Cd1080 2.240 . S
O1081 C1086 1.279 . S
O1082 Cd1079 2.297 . S
O1082 C1084 1.247 . S
O1083 Cd1079 2.439 . S
O1083 C1084 1.208 . S
C1084 O1082 1.247 . S
C1084 O1083 1.208 . S
C1085 O1090 1.247 . S
C1085 O1091 1.208 . S
C1086 O1078 1.315 . S
C1086 O1081 1.279 . S
C1087 O1088 1.315 . S
C1087 O1089 1.279 . S
O1088 Cd1080 2.223 . S
O1088 C1087 1.315 . S
O1089 Cd1079 2.240 . S
O1089 C1087 1.279 . S
O1090 Cd1080 2.297 . S
O1090 C1085 1.247 . S
O1091 Cd1080 2.439 . S
O1091 C1085 1.208 . S
O1092 Cd1093 2.223 . S
O1092 C1100 1.315 . S
Cd1093 O1092 2.223 . S
Cd1093 O1096 2.297 . S
Cd1093 O1097 2.439 . S
Cd1093 O1103 2.240 . S
Cd1094 O1095 2.240 . S
Cd1094 O1102 2.223 . S
Cd1094 O1104 2.297 . S
Cd1094 O1105 2.439 . S
O1095 Cd1094 2.240 . S
O1095 C1100 1.279 . S
O1096 Cd1093 2.297 . S
O1096 C1098 1.247 . S
O1097 Cd1093 2.439 . S
O1097 C1098 1.208 . S
C1098 O1096 1.247 . S
C1098 O1097 1.208 . S
C1099 O1104 1.247 . S
C1099 O1105 1.208 . S
C1100 O1092 1.315 . S
C1100 O1095 1.279 . S
C1101 O1102 1.315 . S
C1101 O1103 1.279 . S
O1102 Cd1094 2.223 . S
O1102 C1101 1.315 . S
O1103 Cd1093 2.240 . S
O1103 C1101 1.279 . S
O1104 Cd1094 2.297 . S
O1104 C1099 1.247 . S
O1105 Cd1094 2.439 . S
O1105 C1099 1.208 . S
O1106 Cd1107 2.223 . S
O1106 C1114 1.315 . S
Cd1107 O1106 2.223 . S
Cd1107 O1110 2.297 . S
Cd1107 O1111 2.439 . S
Cd1107 O1117 2.240 . S
Cd1108 O1109 2.240 . S
Cd1108 O1116 2.223 . S
Cd1108 O1118 2.297 . S
Cd1108 O1119 2.439 . S
O1109 Cd1108 2.240 . S
O1109 C1114 1.279 . S
O1110 Cd1107 2.297 . S
O1110 C1112 1.247 . S
O1111 Cd1107 2.439 . S
O1111 C1112 1.208 . S
C1112 O1110 1.247 . S
C1112 O1111 1.208 . S
C1113 O1118 1.247 . S
C1113 O1119 1.208 . S
C1114 O1106 1.315 . S
C1114 O1109 1.279 . S
C1115 O1116 1.315 . S
C1115 O1117 1.279 . S
O1116 Cd1108 2.223 . S
O1116 C1115 1.315 . S
O1117 Cd1107 2.240 . S
O1117 C1115 1.279 . S
O1118 Cd1108 2.297 . S
O1118 C1113 1.247 . S
O1119 Cd1108 2.439 . S
O1119 C1113 1.208 . S
O1120 Cd1121 2.223 . S
O1120 C1128 1.315 . S
Cd1121 O1120 2.223 . S
Cd1121 O1124 2.297 . S
Cd1121 O1125 2.439 . S
Cd1121 O1131 2.240 . S
Cd1122 O1123 2.240 . S
Cd1122 O1130 2.223 . S
Cd1122 O1132 2.297 . S
Cd1122 O1133 2.439 . S
O1123 Cd1122 2.240 . S
O1123 C1128 1.279 . S
O1124 Cd1121 2.297 . S
O1124 C1126 1.247 . S
O1125 Cd1121 2.439 . S
O1125 C1126 1.208 . S
C1126 O1124 1.247 . S
C1126 O1125 1.208 . S
C1127 O1132 1.247 . S
C1127 O1133 1.208 . S
C1128 O1120 1.315 . S
C1128 O1123 1.279 . S
C1129 O1130 1.315 . S
C1129 O1131 1.279 . S
O1130 Cd1122 2.223 . S
O1130 C1129 1.315 . S
O1131 Cd1121 2.240 . S
O1131 C1129 1.279 . S
O1132 Cd1122 2.297 . S
O1132 C1127 1.247 . S
O1133 Cd1122 2.439 . S
O1133 C1127 1.208 . S
O1134 Cd1135 2.223 . S
O1134 C1142 1.315 . S
Cd1135 O1134 2.223 . S
Cd1135 O1138 2.297 . S
Cd1135 O1139 2.439 . S
Cd1135 O1145 2.240 . S
Cd1136 O1137 2.240 . S
Cd1136 O1144 2.223 . S
Cd1136 O1146 2.297 . S
Cd1136 O1147 2.439 . S
O1137 Cd1136 2.240 . S
O1137 C1142 1.279 . S
O1138 Cd1135 2.297 . S
O1138 C1140 1.247 . S
O1139 Cd1135 2.439 . S
O1139 C1140 1.208 . S
C1140 O1138 1.247 . S
C1140 O1139 1.208 . S
C1141 O1146 1.247 . S
C1141 O1147 1.208 . S
C1142 O1134 1.315 . S
C1142 O1137 1.279 . S
C1143 O1144 1.315 . S
C1143 O1145 1.279 . S
O1144 Cd1136 2.223 . S
O1144 C1143 1.315 . S
O1145 Cd1135 2.240 . S
O1145 C1143 1.279 . S
O1146 Cd1136 2.297 . S
O1146 C1141 1.247 . S
O1147 Cd1136 2.439 . S
O1147 C1141 1.208 . S
O1148 Cd1149 2.223 . S
O1148 C1156 1.315 . S
Cd1149 O1148 2.223 . S
Cd1149 O1152 2.297 . S
Cd1149 O1153 2.439 . S
Cd1149 O1159 2.240 . S
Cd1150 O1151 2.240 . S
Cd1150 O1158 2.223 . S
Cd1150 O1160 2.297 . S
Cd1150 O1161 2.439 . S
O1151 Cd1150 2.240 . S
O1151 C1156 1.279 . S
O1152 Cd1149 2.297 . S
O1152 C1154 1.247 . S
O1153 Cd1149 2.439 . S
O1153 C1154 1.208 . S
C1154 O1152 1.247 . S
C1154 O1153 1.208 . S
C1155 O1160 1.247 . S
C1155 O1161 1.208 . S
C1156 O1148 1.315 . S
C1156 O1151 1.279 . S
C1157 O1158 1.315 . S
C1157 O1159 1.279 . S
O1158 Cd1150 2.223 . S
O1158 C1157 1.315 . S
O1159 Cd1149 2.240 . S
O1159 C1157 1.279 . S
O1160 Cd1150 2.297 . S
O1160 C1155 1.247 . S
O1161 Cd1150 2.439 . S
O1161 C1155 1.208 . S
O1162 Cd1163 2.223 . S
O1162 C1170 1.315 . S
Cd1163 O1162 2.223 . S
Cd1163 O1166 2.297 . S
Cd1163 O1167 2.439 . S
Cd1163 O1173 2.240 . S
Cd1164 O1165 2.240 . S
Cd1164 O1172 2.223 . S
Cd1164 O1174 2.297 . S
Cd1164 O1175 2.439 . S
O1165 Cd1164 2.240 . S
O1165 C1170 1.279 . S
O1166 Cd1163 2.297 . S
O1166 C1168 1.247 . S
O1167 Cd1163 2.439 . S
O1167 C1168 1.208 . S
C1168 O1166 1.247 . S
C1168 O1167 1.208 . S
C1169 O1174 1.247 . S
C1169 O1175 1.208 . S
C1170 O1162 1.315 . S
C1170 O1165 1.279 . S
C1171 O1172 1.315 . S
C1171 O1173 1.279 . S
O1172 Cd1164 2.223 . S
O1172 C1171 1.315 . S
O1173 Cd1163 2.240 . S
O1173 C1171 1.279 . S
O1174 Cd1164 2.297 . S
O1174 C1169 1.247 . S
O1175 Cd1164 2.439 . S
O1175 C1169 1.208 . S
O1176 Cd1177 2.223 . S
O1176 C1184 1.315 . S
Cd1177 O1176 2.223 . S
Cd1177 O1180 2.297 . S
Cd1177 O1181 2.439 . S
Cd1177 O1187 2.240 . S
Cd1178 O1179 2.240 . S
Cd1178 O1186 2.223 . S
Cd1178 O1188 2.297 . S
Cd1178 O1189 2.439 . S
O1179 Cd1178 2.240 . S
O1179 C1184 1.279 . S
O1180 Cd1177 2.297 . S
O1180 C1182 1.247 . S
O1181 Cd1177 2.439 . S
O1181 C1182 1.208 . S
C1182 O1180 1.247 . S
C1182 O1181 1.208 . S
C1183 O1188 1.247 . S
C1183 O1189 1.208 . S
C1184 O1176 1.315 . S
C1184 O1179 1.279 . S
C1185 O1186 1.315 . S
C1185 O1187 1.279 . S
O1186 Cd1178 2.223 . S
O1186 C1185 1.315 . S
O1187 Cd1177 2.240 . S
O1187 C1185 1.279 . S
O1188 Cd1178 2.297 . S
O1188 C1183 1.247 . S
O1189 Cd1178 2.439 . S
O1189 C1183 1.208 . S
O1190 Cd1191 2.223 . S
O1190 C1198 1.315 . S
Cd1191 O1190 2.223 . S
Cd1191 O1194 2.297 . S
Cd1191 O1195 2.439 . S
Cd1191 O1201 2.240 . S
Cd1192 O1193 2.240 . S
Cd1192 O1200 2.223 . S
Cd1192 O1202 2.297 . S
Cd1192 O1203 2.439 . S
O1193 Cd1192 2.240 . S
O1193 C1198 1.279 . S
O1194 Cd1191 2.297 . S
O1194 C1196 1.247 . S
O1195 Cd1191 2.439 . S
O1195 C1196 1.208 . S
C1196 O1194 1.247 . S
C1196 O1195 1.208 . S
C1197 O1202 1.247 . S
C1197 O1203 1.208 . S
C1198 O1190 1.315 . S
C1198 O1193 1.279 . S
C1199 O1200 1.315 . S
C1199 O1201 1.279 . S
O1200 Cd1192 2.223 . S
O1200 C1199 1.315 . S
O1201 Cd1191 2.240 . S
O1201 C1199 1.279 . S
O1202 Cd1192 2.297 . S
O1202 C1197 1.247 . S
O1203 Cd1192 2.439 . S
O1203 C1197 1.208 . S
O1204 Cd1205 2.223 . S
O1204 C1212 1.315 . S
Cd1205 O1204 2.223 . S
Cd1205 O1208 2.297 . S
Cd1205 O1209 2.439 . S
Cd1205 O1215 2.240 . S
Cd1206 O1207 2.240 . S
Cd1206 O1214 2.223 . S
Cd1206 O1216 2.297 . S
Cd1206 O1217 2.439 . S
O1207 Cd1206 2.240 . S
O1207 C1212 1.279 . S
O1208 Cd1205 2.297 . S
O1208 C1210 1.247 . S
O1209 Cd1205 2.439 . S
O1209 C1210 1.208 . S
C1210 O1208 1.247 . S
C1210 O1209 1.208 . S
C1211 O1216 1.247 . S
C1211 O1217 1.208 . S
C1212 O1204 1.315 . S
C1212 O1207 1.279 . S
C1213 O1214 1.315 . S
C1213 O1215 1.279 . S
O1214 Cd1206 2.223 . S
O1214 C1213 1.315 . S
O1215 Cd1205 2.240 . S
O1215 C1213 1.279 . S
O1216 Cd1206 2.297 . S
O1216 C1211 1.247 . S
O1217 Cd1206 2.439 . S
O1217 C1211 1.208 . S
O1218 Cd1219 2.223 . S
O1218 C1226 1.315 . S
Cd1219 O1218 2.223 . S
Cd1219 O1222 2.297 . S
Cd1219 O1223 2.439 . S
Cd1219 O1229 2.240 . S
Cd1220 O1221 2.240 . S
Cd1220 O1228 2.223 . S
Cd1220 O1230 2.297 . S
Cd1220 O1231 2.439 . S
O1221 Cd1220 2.240 . S
O1221 C1226 1.279 . S
O1222 Cd1219 2.297 . S
O1222 C1224 1.247 . S
O1223 Cd1219 2.439 . S
O1223 C1224 1.208 . S
C1224 O1222 1.247 . S
C1224 O1223 1.208 . S
C1225 O1230 1.247 . S
C1225 O1231 1.208 . S
C1226 O1218 1.315 . S
C1226 O1221 1.279 . S
C1227 O1228 1.315 . S
C1227 O1229 1.279 . S
O1228 Cd1220 2.223 . S
O1228 C1227 1.315 . S
O1229 Cd1219 2.240 . S
O1229 C1227 1.279 . S
O1230 Cd1220 2.297 . S
O1230 C1225 1.247 . S
O1231 Cd1220 2.439 . S
O1231 C1225 1.208 . S
O1232 Cd1233 2.223 . S
O1232 C1240 1.315 . S
Cd1233 O1232 2.223 . S
Cd1233 O1236 2.297 . S
Cd1233 O1237 2.439 . S
Cd1233 O1243 2.240 . S
Cd1234 O1235 2.240 . S
Cd1234 O1242 2.223 . S
Cd1234 O1244 2.297 . S
Cd1234 O1245 2.439 . S
O1235 Cd1234 2.240 . S
O1235 C1240 1.279 . S
O1236 Cd1233 2.297 . S
O1236 C1238 1.247 . S
O1237 Cd1233 2.439 . S
O1237 C1238 1.208 . S
C1238 O1236 1.247 . S
C1238 O1237 1.208 . S
C1239 O1244 1.247 . S
C1239 O1245 1.208 . S
C1240 O1232 1.315 . S
C1240 O1235 1.279 . S
C1241 O1242 1.315 . S
C1241 O1243 1.279 . S
O1242 Cd1234 2.223 . S
O1242 C1241 1.315 . S
O1243 Cd1233 2.240 . S
O1243 C1241 1.279 . S
O1244 Cd1234 2.297 . S
O1244 C1239 1.247 . S
O1245 Cd1234 2.439 . S
O1245 C1239 1.208 . S
O1246 Cd1247 2.223 . S
O1246 C1254 1.315 . S
Cd1247 O1246 2.223 . S
Cd1247 O1250 2.297 . S
Cd1247 O1251 2.439 . S
Cd1247 O1257 2.240 . S
Cd1248 O1249 2.240 . S
Cd1248 O1256 2.223 . S
Cd1248 O1258 2.297 . S
Cd1248 O1259 2.439 . S
O1249 Cd1248 2.240 . S
O1249 C1254 1.279 . S
O1250 Cd1247 2.297 . S
O1250 C1252 1.247 . S
O1251 Cd1247 2.439 . S
O1251 C1252 1.208 . S
C1252 O1250 1.247 . S
C1252 O1251 1.208 . S
C1253 O1258 1.247 . S
C1253 O1259 1.208 . S
C1254 O1246 1.315 . S
C1254 O1249 1.279 . S
C1255 O1256 1.315 . S
C1255 O1257 1.279 . S
O1256 Cd1248 2.223 . S
O1256 C1255 1.315 . S
O1257 Cd1247 2.240 . S
O1257 C1255 1.279 . S
O1258 Cd1248 2.297 . S
O1258 C1253 1.247 . S
O1259 Cd1248 2.439 . S
O1259 C1253 1.208 . S
O1260 Cd1261 2.223 . S
O1260 C1268 1.315 . S
Cd1261 O1260 2.223 . S
Cd1261 O1264 2.297 . S
Cd1261 O1265 2.439 . S
Cd1261 O1271 2.240 . S
Cd1262 O1263 2.240 . S
Cd1262 O1270 2.223 . S
Cd1262 O1272 2.297 . S
Cd1262 O1273 2.439 . S
O1263 Cd1262 2.240 . S
O1263 C1268 1.279 . S
O1264 Cd1261 2.297 . S
O1264 C1266 1.247 . S
O1265 Cd1261 2.439 . S
O1265 C1266 1.208 . S
C1266 O1264 1.247 . S
C1266 O1265 1.208 . S
C1267 O1272 1.247 . S
C1267 O1273 1.208 . S
C1268 O1260 1.315 . S
C1268 O1263 1.279 . S
C1269 O1270 1.315 . S
C1269 O1271 1.279 . S
O1270 Cd1262 2.223 . S
O1270 C1269 1.315 . S
O1271 Cd1261 2.240 . S
O1271 C1269 1.279 . S
O1272 Cd1262 2.297 . S
O1272 C1267 1.247 . S
O1273 Cd1262 2.439 . S
O1273 C1267 1.208 . S
O1274 Cd1275 2.223 . S
O1274 C1282 1.315 . S
Cd1275 O1274 2.223 . S
Cd1275 O1278 2.297 . S
Cd1275 O1279 2.439 . S
Cd1275 O1285 2.240 . S
Cd1276 O1277 2.240 . S
Cd1276 O1284 2.223 . S
Cd1276 O1286 2.297 . S
Cd1276 O1287 2.439 . S
O1277 Cd1276 2.240 . S
O1277 C1282 1.279 . S
O1278 Cd1275 2.297 . S
O1278 C1280 1.247 . S
O1279 Cd1275 2.439 . S
O1279 C1280 1.208 . S
C1280 O1278 1.247 . S
C1280 O1279 1.208 . S
C1281 O1286 1.247 . S
C1281 O1287 1.208 . S
C1282 O1274 1.315 . S
C1282 O1277 1.279 . S
C1283 O1284 1.315 . S
C1283 O1285 1.279 . S
O1284 Cd1276 2.223 . S
O1284 C1283 1.315 . S
O1285 Cd1275 2.240 . S
O1285 C1283 1.279 . S
O1286 Cd1276 2.297 . S
O1286 C1281 1.247 . S
O1287 Cd1276 2.439 . S
O1287 C1281 1.208 . S
O1288 Cd1289 2.223 . S
O1288 C1296 1.315 . S
Cd1289 O1288 2.223 . S
Cd1289 O1292 2.297 . S
Cd1289 O1293 2.439 . S
Cd1289 O1299 2.240 . S
Cd1290 O1291 2.240 . S
Cd1290 O1298 2.223 . S
Cd1290 O1300 2.297 . S
Cd1290 O1301 2.439 . S
O1291 Cd1290 2.240 . S
O1291 C1296 1.279 . S
O1292 Cd1289 2.297 . S
O1292 C1294 1.247 . S
O1293 Cd1289 2.439 . S
O1293 C1294 1.208 . S
C1294 O1292 1.247 . S
C1294 O1293 1.208 . S
C1295 O1300 1.247 . S
C1295 O1301 1.208 . S
C1296 O1288 1.315 . S
C1296 O1291 1.279 . S
C1297 O1298 1.315 . S
C1297 O1299 1.279 . S
O1298 Cd1290 2.223 . S
O1298 C1297 1.315 . S
O1299 Cd1289 2.240 . S
O1299 C1297 1.279 . S
O1300 Cd1290 2.297 . S
O1300 C1295 1.247 . S
O1301 Cd1290 2.439 . S
O1301 C1295 1.208 . S
O1302 Cd1303 2.223 . S
O1302 C1310 1.315 . S
Cd1303 O1302 2.223 . S
Cd1303 O1306 2.297 . S
Cd1303 O1307 2.439 . S
Cd1303 O1313 2.240 . S
Cd1304 O1305 2.240 . S
Cd1304 O1312 2.223 . S
Cd1304 O1314 2.297 . S
Cd1304 O1315 2.439 . S
O1305 Cd1304 2.240 . S
O1305 C1310 1.279 . S
O1306 Cd1303 2.297 . S
O1306 C1308 1.247 . S
O1307 Cd1303 2.439 . S
O1307 C1308 1.208 . S
C1308 O1306 1.247 . S
C1308 O1307 1.208 . S
C1309 O1314 1.247 . S
C1309 O1315 1.208 . S
C1310 O1302 1.315 . S
C1310 O1305 1.279 . S
C1311 O1312 1.315 . S
C1311 O1313 1.279 . S
O1312 Cd1304 2.223 . S
O1312 C1311 1.315 . S
O1313 Cd1303 2.240 . S
O1313 C1311 1.279 . S
O1314 Cd1304 2.297 . S
O1314 C1309 1.247 . S
O1315 Cd1304 2.439 . S
O1315 C1309 1.208 . S
O1316 Cd1317 2.223 . S
O1316 C1324 1.315 . S
Cd1317 O1316 2.223 . S
Cd1317 O1320 2.297 . S
Cd1317 O1321 2.439 . S
Cd1317 O1327 2.240 . S
Cd1318 O1319 2.240 . S
Cd1318 O1326 2.223 . S
Cd1318 O1328 2.297 . S
Cd1318 O1329 2.439 . S
O1319 Cd1318 2.240 . S
O1319 C1324 1.279 . S
O1320 Cd1317 2.297 . S
O1320 C1322 1.247 . S
O1321 Cd1317 2.439 . S
O1321 C1322 1.208 . S
C1322 O1320 1.247 . S
C1322 O1321 1.208 . S
C1323 O1328 1.247 . S
C1323 O1329 1.208 . S
C1324 O1316 1.315 . S
C1324 O1319 1.279 . S
C1325 O1326 1.315 . S
C1325 O1327 1.279 . S
O1326 Cd1318 2.223 . S
O1326 C1325 1.315 . S
O1327 Cd1317 2.240 . S
O1327 C1325 1.279 . S
O1328 Cd1318 2.297 . S
O1328 C1323 1.247 . S
O1329 Cd1318 2.439 . S
O1329 C1323 1.208 . S
O1330 Cd1331 2.223 . S
O1330 C1338 1.315 . S
Cd1331 O1330 2.223 . S
Cd1331 O1334 2.297 . S
Cd1331 O1335 2.439 . S
Cd1331 O1341 2.240 . S
Cd1332 O1333 2.240 . S
Cd1332 O1340 2.223 . S
Cd1332 O1342 2.297 . S
Cd1332 O1343 2.439 . S
O1333 Cd1332 2.240 . S
O1333 C1338 1.279 . S
O1334 Cd1331 2.297 . S
O1334 C1336 1.247 . S
O1335 Cd1331 2.439 . S
O1335 C1336 1.208 . S
C1336 O1334 1.247 . S
C1336 O1335 1.208 . S
C1337 O1342 1.247 . S
C1337 O1343 1.208 . S
C1338 O1330 1.315 . S
C1338 O1333 1.279 . S
C1339 O1340 1.315 . S
C1339 O1341 1.279 . S
O1340 Cd1332 2.223 . S
O1340 C1339 1.315 . S
O1341 Cd1331 2.240 . S
O1341 C1339 1.279 . S
O1342 Cd1332 2.297 . S
O1342 C1337 1.247 . S
O1343 Cd1332 2.439 . S
O1343 C1337 1.208 . S
H1344 C1350 0.930 . S
H1345 C1354 0.930 . S
H1346 C1359 0.929 . S
H1347 C1357 0.929 . S
H1348 C1352 0.929 . S
H1349 C1358 0.929 . S
C1350 H1344 0.930 . S
C1350 C1351 1.367 . S
C1350 C1358 1.378 . S
C1351 C1350 1.367 . S
C1351 C1359 1.433 . S
C1352 H1348 0.929 . S
C1352 C1354 1.378 . S
C1352 C1356 1.350 . S
C1353 C1356 1.463 . S
C1353 C1358 1.350 . S
C1353 N1361 1.427 . S
C1354 H1345 0.930 . S
C1354 C1352 1.378 . S
C1354 C1355 1.367 . S
C1355 C1354 1.367 . S
C1355 C1357 1.433 . S
C1356 C1352 1.350 . S
C1356 C1353 1.463 . S
C1356 N1360 1.427 . S
C1357 H1347 0.929 . S
C1357 C1355 1.433 . S
C1357 N1360 1.384 . S
C1358 H1349 0.929 . S
C1358 C1350 1.378 . S
C1358 C1353 1.350 . S
C1359 H1346 0.929 . S
C1359 C1351 1.433 . S
C1359 N1361 1.384 . S
N1360 C1356 1.427 . S
N1360 C1357 1.384 . S
N1361 C1353 1.427 . S
N1361 C1359 1.384 . S
H1362 C1368 0.930 . S
H1363 C1372 0.930 . S
H1364 C1377 0.929 . S
H1365 C1375 0.929 . S
H1366 C1370 0.929 . S
H1367 C1376 0.929 . S
C1368 H1362 0.930 . S
C1368 C1369 1.367 1_455 S
C1368 C1376 1.378 . S
C1369 C1368 1.367 1_655 S
C1369 C1377 1.433 . S
C1370 H1366 0.929 . S
C1370 C1372 1.378 . S
C1370 C1374 1.350 . S
C1371 C1374 1.463 . S
C1371 C1376 1.350 . S
C1371 N1379 1.427 . S
C1372 H1363 0.930 . S
C1372 C1370 1.378 . S
C1372 C1373 1.367 . S
C1373 C1372 1.367 . S
C1373 C1375 1.433 . S
C1374 C1370 1.350 . S
C1374 C1371 1.463 . S
C1374 N1378 1.427 . S
C1375 H1365 0.929 . S
C1375 C1373 1.433 . S
C1375 N1378 1.384 . S
C1376 H1367 0.929 . S
C1376 C1368 1.378 . S
C1376 C1371 1.350 . S
C1377 H1364 0.929 . S
C1377 C1369 1.433 . S
C1377 N1379 1.384 1_655 S
N1378 C1374 1.427 . S
N1378 C1375 1.384 . S
N1379 C1371 1.427 . S
N1379 C1377 1.384 1_455 S
H1380 C1386 0.930 . S
H1381 C1390 0.930 . S
H1382 C1395 0.929 . S
H1383 C1393 0.929 . S
H1384 C1388 0.929 . S
H1385 C1394 0.929 . S
C1386 H1380 0.930 . S
C1386 C1387 1.367 . S
C1386 C1394 1.378 . S
C1387 C1386 1.367 . S
C1387 C1395 1.433 . S
C1388 H1384 0.929 . S
C1388 C1390 1.378 . S
C1388 C1392 1.350 . S
C1389 C1392 1.463 . S
C1389 C1394 1.350 . S
C1389 N1397 1.427 . S
C1390 H1381 0.930 . S
C1390 C1388 1.378 . S
C1390 C1391 1.367 . S
C1391 C1390 1.367 . S
C1391 C1393 1.433 . S
C1392 C1388 1.350 . S
C1392 C1389 1.463 . S
C1392 N1396 1.427 . S
C1393 H1383 0.929 . S
C1393 C1391 1.433 . S
C1393 N1396 1.384 . S
C1394 H1385 0.929 . S
C1394 C1386 1.378 . S
C1394 C1389 1.350 . S
C1395 H1382 0.929 . S
C1395 C1387 1.433 . S
C1395 N1397 1.384 . S
N1396 C1392 1.427 . S
N1396 C1393 1.384 . S
N1397 C1389 1.427 . S
N1397 C1395 1.384 . S
H1398 C1404 0.930 . S
H1399 C1408 0.930 . S
H1400 C1413 0.929 . S
H1401 C1411 0.929 . S
H1402 C1406 0.929 . S
H1403 C1412 0.929 . S
C1404 H1398 0.930 . S
C1404 C1405 1.367 . S
C1404 C1412 1.378 . S
C1405 C1404 1.367 . S
C1405 C1413 1.433 . S
C1406 H1402 0.929 . S
C1406 C1408 1.378 . S
C1406 C1410 1.350 . S
C1407 C1410 1.463 . S
C1407 C1412 1.350 . S
C1407 N1415 1.427 . S
C1408 H1399 0.930 . S
C1408 C1406 1.378 . S
C1408 C1409 1.367 . S
C1409 C1408 1.367 . S
C1409 C1411 1.433 . S
C1410 C1406 1.350 . S
C1410 C1407 1.463 . S
C1410 N1414 1.427 . S
C1411 H1401 0.929 . S
C1411 C1409 1.433 . S
C1411 N1414 1.384 . S
C1412 H1403 0.929 . S
C1412 C1404 1.378 . S
C1412 C1407 1.350 . S
C1413 H1400 0.929 . S
C1413 C1405 1.433 . S
C1413 N1415 1.384 . S
N1414 C1410 1.427 . S
N1414 C1411 1.384 . S
N1415 C1407 1.427 . S
N1415 C1413 1.384 . S
H1416 C1422 0.930 . S
H1417 C1426 0.930 . S
H1418 C1431 0.929 . S
H1419 C1429 0.929 . S
H1420 C1424 0.929 . S
H1421 C1430 0.929 . S
C1422 H1416 0.930 . S
C1422 C1423 1.367 . S
C1422 C1430 1.378 . S
C1423 C1422 1.367 . S
C1423 C1431 1.433 . S
C1424 H1420 0.929 . S
C1424 C1426 1.378 . S
C1424 C1428 1.350 . S
C1425 C1428 1.463 . S
C1425 C1430 1.350 . S
C1425 N1433 1.427 . S
C1426 H1417 0.930 . S
C1426 C1424 1.378 . S
C1426 C1427 1.367 . S
C1427 C1426 1.367 . S
C1427 C1429 1.433 . S
C1428 C1424 1.350 . S
C1428 C1425 1.463 . S
C1428 N1432 1.427 . S
C1429 H1419 0.929 . S
C1429 C1427 1.433 . S
C1429 N1432 1.384 . S
C1430 H1421 0.929 . S
C1430 C1422 1.378 . S
C1430 C1425 1.350 . S
C1431 H1418 0.929 . S
C1431 C1423 1.433 . S
C1431 N1433 1.384 . S
N1432 C1428 1.427 . S
N1432 C1429 1.384 . S
N1433 C1425 1.427 . S
N1433 C1431 1.384 . S
H1434 C1440 0.930 . S
H1435 C1444 0.930 . S
H1436 C1449 0.929 . S
H1437 C1447 0.929 . S
H1438 C1442 0.929 . S
H1439 C1448 0.929 . S
C1440 H1434 0.930 . S
C1440 C1441 1.367 . S
C1440 C1448 1.378 . S
C1441 C1440 1.367 . S
C1441 C1449 1.433 . S
C1442 H1438 0.929 . S
C1442 C1444 1.378 . S
C1442 C1446 1.350 . S
C1443 C1446 1.463 . S
C1443 C1448 1.350 . S
C1443 N1451 1.427 . S
C1444 H1435 0.930 . S
C1444 C1442 1.378 . S
C1444 C1445 1.367 . S
C1445 C1444 1.367 . S
C1445 C1447 1.433 . S
C1446 C1442 1.350 . S
C1446 C1443 1.463 . S
C1446 N1450 1.427 . S
C1447 H1437 0.929 . S
C1447 C1445 1.433 . S
C1447 N1450 1.384 . S
C1448 H1439 0.929 . S
C1448 C1440 1.378 . S
C1448 C1443 1.350 . S
C1449 H1436 0.929 . S
C1449 C1441 1.433 . S
C1449 N1451 1.384 . S
N1450 C1446 1.427 . S
N1450 C1447 1.384 . S
N1451 C1443 1.427 . S
N1451 C1449 1.384 . S
H1452 C1458 0.930 . S
H1453 C1462 0.930 . S
H1454 C1467 0.929 . S
H1455 C1465 0.929 . S
H1456 C1460 0.929 . S
H1457 C1466 0.929 . S
C1458 H1452 0.930 . S
C1458 C1459 1.367 . S
C1458 C1466 1.378 . S
C1459 C1458 1.367 . S
C1459 C1467 1.433 . S
C1460 H1456 0.929 . S
C1460 C1462 1.378 . S
C1460 C1464 1.350 . S
C1461 C1464 1.463 . S
C1461 C1466 1.350 . S
C1461 N1469 1.427 . S
C1462 H1453 0.930 . S
C1462 C1460 1.378 . S
C1462 C1463 1.367 . S
C1463 C1462 1.367 . S
C1463 C1465 1.433 . S
C1464 C1460 1.350 . S
C1464 C1461 1.463 . S
C1464 N1468 1.427 . S
C1465 H1455 0.929 . S
C1465 C1463 1.433 . S
C1465 N1468 1.384 . S
C1466 H1457 0.929 . S
C1466 C1458 1.378 . S
C1466 C1461 1.350 . S
C1467 H1454 0.929 . S
C1467 C1459 1.433 . S
C1467 N1469 1.384 . S
N1468 C1464 1.427 . S
N1468 C1465 1.384 . S
N1469 C1461 1.427 . S
N1469 C1467 1.384 . S
H1470 C1476 0.930 . S
H1471 C1480 0.930 . S
H1472 C1485 0.929 . S
H1473 C1483 0.929 . S
H1474 C1478 0.921 1_655 S
H1475 C1484 0.929 . S
C1476 H1470 0.930 . S
C1476 C1477 1.367 . S
C1476 C1484 1.378 . S
C1477 C1476 1.367 . S
C1477 C1485 1.433 . S
C1478 H1474 0.921 1_455 S
C1478 C1480 1.335 1_455 S
C1478 C1482 1.401 . S
C1479 C1482 1.463 . S
C1479 C1484 1.350 . S
C1479 N1487 1.427 . S
C1480 H1471 0.930 . S
C1480 C1478 1.335 1_655 S
C1480 C1481 1.367 . S
C1481 C1480 1.367 . S
C1481 C1483 1.433 1_655 S
C1482 C1478 1.401 . S
C1482 C1479 1.463 . S
C1482 N1486 1.427 . S
C1483 H1473 0.929 . S
C1483 C1481 1.433 1_455 S
C1483 N1486 1.384 . S
C1484 H1475 0.929 . S
C1484 C1476 1.378 . S
C1484 C1479 1.350 . S
C1485 H1472 0.929 . S
C1485 C1477 1.433 . S
C1485 N1487 1.384 . S
N1486 C1482 1.427 . S
N1486 C1483 1.384 . S
N1487 C1479 1.427 . S
N1487 C1485 1.384 . S
H1488 C1494 0.930 . S
H1489 C1498 0.930 . S
H1490 C1503 0.929 . S
H1491 C1501 0.929 . S
H1492 C1496 0.929 . S
H1493 C1502 0.929 . S
C1494 H1488 0.930 . S
C1494 C1495 1.367 . S
C1494 C1502 1.378 . S
C1495 C1494 1.367 . S
C1495 C1503 1.433 . S
C1496 H1492 0.929 . S
C1496 C1498 1.378 . S
C1496 C1500 1.350 . S
C1497 C1500 1.463 . S
C1497 C1502 1.350 . S
C1497 N1505 1.427 . S
C1498 H1489 0.930 . S
C1498 C1496 1.378 . S
C1498 C1499 1.367 . S
C1499 C1498 1.367 . S
C1499 C1501 1.433 . S
C1500 C1496 1.350 . S
C1500 C1497 1.463 . S
C1500 N1504 1.427 . S
C1501 H1491 0.929 . S
C1501 C1499 1.433 . S
C1501 N1504 1.384 . S
C1502 H1493 0.929 . S
C1502 C1494 1.378 . S
C1502 C1497 1.350 . S
C1503 H1490 0.929 . S
C1503 C1495 1.433 . S
C1503 N1505 1.384 . S
N1504 C1500 1.427 . S
N1504 C1501 1.384 . S
N1505 C1497 1.427 . S
N1505 C1503 1.384 . S
H1506 C1512 0.930 . S
H1507 C1516 0.930 . S
H1508 C1521 0.929 . S
H1509 C1519 0.929 . S
H1510 C1514 0.929 . S
H1511 C1520 0.929 . S
C1512 H1506 0.930 . S
C1512 C1513 1.367 . S
C1512 C1520 1.378 . S
C1513 C1512 1.367 . S
C1513 C1521 1.433 . S
C1514 H1510 0.929 . S
C1514 C1516 1.378 . S
C1514 C1518 1.350 . S
C1515 C1518 1.463 . S
C1515 C1520 1.350 . S
C1515 N1523 1.427 . S
C1516 H1507 0.930 . S
C1516 C1514 1.378 . S
C1516 C1517 1.367 . S
C1517 C1516 1.367 . S
C1517 C1519 1.433 . S
C1518 C1514 1.350 . S
C1518 C1515 1.463 . S
C1518 N1522 1.427 . S
C1519 H1509 0.929 . S
C1519 C1517 1.433 . S
C1519 N1522 1.384 . S
C1520 H1511 0.929 . S
C1520 C1512 1.378 . S
C1520 C1515 1.350 . S
C1521 H1508 0.929 . S
C1521 C1513 1.433 . S
C1521 N1523 1.384 . S
N1522 C1518 1.427 . S
N1522 C1519 1.384 . S
N1523 C1515 1.427 . S
N1523 C1521 1.384 . S
H1524 C1530 0.930 . S
H1525 C1534 0.930 . S
H1526 C1539 0.929 . S
H1527 C1537 0.929 . S
H1528 C1532 0.929 . S
H1529 C1538 0.929 . S
C1530 H1524 0.930 . S
C1530 C1531 1.367 . S
C1530 C1538 1.378 . S
C1531 C1530 1.367 . S
C1531 C1539 1.433 . S
C1532 H1528 0.929 . S
C1532 C1534 1.378 . S
C1532 C1536 1.350 . S
C1533 C1536 1.463 . S
C1533 C1538 1.350 . S
C1533 N1541 1.427 . S
C1534 H1525 0.930 . S
C1534 C1532 1.378 . S
C1534 C1535 1.367 . S
C1535 C1534 1.367 . S
C1535 C1537 1.433 . S
C1536 C1532 1.350 . S
C1536 C1533 1.463 . S
C1536 N1540 1.427 . S
C1537 H1527 0.929 . S
C1537 C1535 1.433 . S
C1537 N1540 1.384 . S
C1538 H1529 0.929 . S
C1538 C1530 1.378 . S
C1538 C1533 1.350 . S
C1539 H1526 0.929 . S
C1539 C1531 1.433 . S
C1539 N1541 1.384 . S
N1540 C1536 1.427 . S
N1540 C1537 1.384 . S
N1541 C1533 1.427 . S
N1541 C1539 1.384 . S
H1542 C1548 0.930 . S
H1543 C1552 0.930 . S
H1544 C1557 0.929 . S
H1545 C1555 0.929 . S
H1546 C1550 0.929 . S
H1547 C1556 0.929 . S
C1548 H1542 0.930 . S
C1548 C1549 1.367 . S
C1548 C1556 1.378 . S
C1549 C1548 1.367 . S
C1549 C1557 1.433 . S
C1550 H1546 0.929 . S
C1550 C1552 1.378 1_556 S
C1550 C1554 1.350 . S
C1551 C1554 1.463 . S
C1551 C1556 1.350 . S
C1551 N1559 1.427 . S
C1552 H1543 0.930 . S
C1552 C1550 1.378 1_554 S
C1552 C1553 1.367 . S
C1553 C1552 1.367 . S
C1553 C1555 1.433 1_554 S
C1554 C1550 1.350 . S
C1554 C1551 1.463 . S
C1554 N1558 1.427 . S
C1555 H1545 0.929 . S
C1555 C1553 1.433 1_556 S
C1555 N1558 1.384 . S
C1556 H1547 0.929 . S
C1556 C1548 1.378 . S
C1556 C1551 1.350 . S
C1557 H1544 0.929 . S
C1557 C1549 1.433 . S
C1557 N1559 1.384 . S
N1558 C1554 1.427 . S
N1558 C1555 1.384 . S
N1559 C1551 1.427 . S
N1559 C1557 1.384 . S
H1560 C1566 0.930 . S
H1561 C1570 0.930 . S
H1562 C1575 0.929 . S
H1563 C1573 0.929 . S
H1564 C1568 0.929 . S
H1565 C1574 0.929 . S
C1566 H1560 0.930 . S
C1566 C1567 1.367 . S
C1566 C1574 1.378 . S
C1567 C1566 1.367 . S
C1567 C1575 1.433 . S
C1568 H1564 0.929 . S
C1568 C1570 1.378 . S
C1568 C1572 1.350 . S
C1569 C1572 1.463 . S
C1569 C1574 1.350 . S
C1569 N1577 1.427 . S
C1570 H1561 0.930 . S
C1570 C1568 1.378 . S
C1570 C1571 1.367 . S
C1571 C1570 1.367 . S
C1571 C1573 1.433 . S
C1572 C1568 1.350 . S
C1572 C1569 1.463 . S
C1572 N1576 1.427 . S
C1573 H1563 0.929 . S
C1573 C1571 1.433 . S
C1573 N1576 1.384 . S
C1574 H1565 0.929 . S
C1574 C1566 1.378 . S
C1574 C1569 1.350 . S
C1575 H1562 0.929 . S
C1575 C1567 1.433 . S
C1575 N1577 1.384 . S
N1576 C1572 1.427 . S
N1576 C1573 1.384 . S
N1577 C1569 1.427 . S
N1577 C1575 1.384 . S
H1578 C1584 0.930 . S
H1579 C1588 0.930 . S
H1580 C1593 0.929 . S
H1581 C1591 0.929 . S
H1582 C1586 0.929 . S
H1583 C1592 0.929 . S
C1584 H1578 0.930 . S
C1584 C1585 1.367 . S
C1584 C1592 1.378 . S
C1585 C1584 1.367 . S
C1585 C1593 1.433 . S
C1586 H1582 0.929 . S
C1586 C1588 1.378 . S
C1586 C1590 1.350 . S
C1587 C1590 1.463 . S
C1587 C1592 1.350 . S
C1587 N1595 1.427 . S
C1588 H1579 0.930 . S
C1588 C1586 1.378 . S
C1588 C1589 1.367 . S
C1589 C1588 1.367 . S
C1589 C1591 1.433 . S
C1590 C1586 1.350 . S
C1590 C1587 1.463 . S
C1590 N1594 1.427 . S
C1591 H1581 0.929 . S
C1591 C1589 1.433 . S
C1591 N1594 1.384 . S
C1592 H1583 0.929 . S
C1592 C1584 1.378 . S
C1592 C1587 1.350 . S
C1593 H1580 0.929 . S
C1593 C1585 1.433 . S
C1593 N1595 1.384 . S
N1594 C1590 1.427 . S
N1594 C1591 1.384 . S
N1595 C1587 1.427 . S
N1595 C1593 1.384 . S
H1596 C1602 0.930 . S
H1597 C1606 0.930 . S
H1598 C1611 0.929 . S
H1599 C1609 0.929 . S
H1600 C1604 0.929 . S
H1601 C1610 0.929 . S
C1602 H1596 0.930 . S
C1602 C1603 1.367 . S
C1602 C1610 1.378 . S
C1603 C1602 1.367 . S
C1603 C1611 1.433 . S
C1604 H1600 0.929 . S
C1604 C1606 1.378 . S
C1604 C1608 1.350 . S
C1605 C1608 1.463 . S
C1605 C1610 1.350 . S
C1605 N1613 1.427 . S
C1606 H1597 0.930 . S
C1606 C1604 1.378 . S
C1606 C1607 1.367 . S
C1607 C1606 1.367 . S
C1607 C1609 1.433 . S
C1608 C1604 1.350 . S
C1608 C1605 1.463 . S
C1608 N1612 1.427 . S
C1609 H1599 0.929 . S
C1609 C1607 1.433 . S
C1609 N1612 1.384 . S
C1610 H1601 0.929 . S
C1610 C1602 1.378 . S
C1610 C1605 1.350 . S
C1611 H1598 0.929 . S
C1611 C1603 1.433 . S
C1611 N1613 1.384 . S
N1612 C1608 1.427 . S
N1612 C1609 1.384 . S
N1613 C1605 1.427 . S
N1613 C1611 1.384 . S
H1614 C1620 0.930 . S
H1615 C1624 0.930 . S
H1616 C1629 0.929 . S
H1617 C1627 0.929 . S
H1618 C1622 0.929 . S
H1619 C1628 0.929 . S
C1620 H1614 0.930 . S
C1620 C1621 1.367 . S
C1620 C1628 1.378 . S
C1621 C1620 1.367 . S
C1621 C1629 1.433 . S
C1622 H1618 0.929 . S
C1622 C1624 1.378 . S
C1622 C1626 1.350 . S
C1623 C1626 1.463 . S
C1623 C1628 1.350 . S
C1623 N1631 1.427 . S
C1624 H1615 0.930 . S
C1624 C1622 1.378 . S
C1624 C1625 1.367 1_554 S
C1625 C1624 1.367 1_556 S
C1625 C1627 1.433 . S
C1626 C1622 1.350 . S
C1626 C1623 1.463 . S
C1626 N1630 1.427 . S
C1627 H1617 0.929 . S
C1627 C1625 1.433 . S
C1627 N1630 1.384 1_556 S
C1628 H1619 0.929 . S
C1628 C1620 1.378 . S
C1628 C1623 1.350 . S
C1629 H1616 0.929 . S
C1629 C1621 1.433 . S
C1629 N1631 1.384 . S
N1630 C1626 1.427 . S
N1630 C1627 1.384 1_554 S
N1631 C1623 1.427 . S
N1631 C1629 1.384 . S
H1632 C1638 0.930 . S
H1633 C1642 0.930 . S
H1634 C1647 0.929 . S
H1635 C1645 0.929 . S
H1636 C1640 0.929 . S
H1637 C1646 0.929 . S
C1638 H1632 0.930 . S
C1638 C1639 1.367 . S
C1638 C1646 1.378 . S
C1639 C1638 1.367 . S
C1639 C1647 1.433 . S
C1640 H1636 0.929 . S
C1640 C1642 1.378 . S
C1640 C1644 1.350 . S
C1641 C1644 1.463 . S
C1641 C1646 1.350 . S
C1641 N1649 1.427 . S
C1642 H1633 0.930 . S
C1642 C1640 1.378 . S
C1642 C1643 1.367 . S
C1643 C1642 1.367 . S
C1643 C1645 1.433 . S
C1644 C1640 1.350 . S
C1644 C1641 1.463 . S
C1644 N1648 1.427 . S
C1645 H1635 0.929 . S
C1645 C1643 1.433 . S
C1645 N1648 1.384 . S
C1646 H1637 0.929 . S
C1646 C1638 1.378 . S
C1646 C1641 1.350 . S
C1647 H1634 0.929 . S
C1647 C1639 1.433 . S
C1647 N1649 1.384 . S
N1648 C1644 1.427 . S
N1648 C1645 1.384 . S
N1649 C1641 1.427 . S
N1649 C1647 1.384 . S
H1650 C1656 0.930 . S
H1651 C1660 0.930 . S
H1652 C1665 0.929 . S
H1653 C1663 0.929 . S
H1654 C1658 0.929 . S
H1655 C1664 0.929 . S
C1656 H1650 0.930 . S
C1656 C1657 1.367 . S
C1656 C1664 1.378 . S
C1657 C1656 1.367 . S
C1657 C1665 1.433 . S
C1658 H1654 0.929 . S
C1658 C1660 1.378 . S
C1658 C1662 1.350 . S
C1659 C1662 1.463 . S
C1659 C1664 1.350 . S
C1659 N1667 1.427 . S
C1660 H1651 0.930 . S
C1660 C1658 1.378 . S
C1660 C1661 1.367 . S
C1661 C1660 1.367 . S
C1661 C1663 1.433 . S
C1662 C1658 1.350 . S
C1662 C1659 1.463 . S
C1662 N1666 1.427 . S
C1663 H1653 0.929 . S
C1663 C1661 1.433 . S
C1663 N1666 1.384 . S
C1664 H1655 0.929 . S
C1664 C1656 1.378 . S
C1664 C1659 1.350 . S
C1665 H1652 0.929 . S
C1665 C1657 1.433 . S
C1665 N1667 1.384 . S
N1666 C1662 1.427 . S
N1666 C1663 1.384 . S
N1667 C1659 1.427 . S
N1667 C1665 1.384 . S
H1668 C1674 0.930 . S
H1669 C1678 0.930 . S
H1670 C1683 0.929 . S
H1671 C1681 0.929 . S
H1672 C1676 0.929 . S
H1673 C1682 0.929 . S
C1674 H1668 0.930 . S
C1674 C1675 1.367 . S
C1674 C1682 1.378 . S
C1675 C1674 1.367 . S
C1675 C1683 1.433 . S
C1676 H1672 0.929 . S
C1676 C1678 1.378 . S
C1676 C1680 1.350 . S
C1677 C1680 1.463 . S
C1677 C1682 1.350 . S
C1677 N1685 1.427 . S
C1678 H1669 0.930 . S
C1678 C1676 1.378 . S
C1678 C1679 1.367 . S
C1679 C1678 1.367 . S
C1679 C1681 1.433 . S
C1680 C1676 1.350 . S
C1680 C1677 1.463 . S
C1680 N1684 1.427 . S
C1681 H1671 0.929 . S
C1681 C1679 1.433 . S
C1681 N1684 1.384 . S
C1682 H1673 0.929 . S
C1682 C1674 1.378 . S
C1682 C1677 1.350 . S
C1683 H1670 0.929 . S
C1683 C1675 1.433 . S
C1683 N1685 1.384 . S
N1684 C1680 1.427 . S
N1684 C1681 1.384 . S
N1685 C1677 1.427 . S
N1685 C1683 1.384 . S
H1686 C1692 0.930 . S
H1687 C1696 0.930 . S
H1688 C1701 0.929 . S
H1689 C1699 0.929 . S
H1690 C1694 0.929 . S
H1691 C1700 0.929 . S
C1692 H1686 0.930 . S
C1692 C1693 1.367 . S
C1692 C1700 1.378 . S
C1693 C1692 1.367 . S
C1693 C1701 1.433 . S
C1694 H1690 0.929 . S
C1694 C1696 1.378 . S
C1694 C1698 1.350 . S
C1695 C1698 1.463 . S
C1695 C1700 1.350 . S
C1695 N1703 1.427 . S
C1696 H1687 0.930 . S
C1696 C1694 1.378 . S
C1696 C1697 1.367 . S
C1697 C1696 1.367 . S
C1697 C1699 1.433 . S
C1698 C1694 1.350 . S
C1698 C1695 1.463 . S
C1698 N1702 1.427 . S
C1699 H1689 0.929 . S
C1699 C1697 1.433 . S
C1699 N1702 1.384 . S
C1700 H1691 0.929 . S
C1700 C1692 1.378 . S
C1700 C1695 1.350 . S
C1701 H1688 0.929 . S
C1701 C1693 1.433 . S
C1701 N1703 1.384 . S
N1702 C1698 1.427 . S
N1702 C1699 1.384 . S
N1703 C1695 1.427 . S
N1703 C1701 1.384 . S
H1704 C1710 0.930 . S
H1705 C1714 0.930 . S
H1706 C1719 0.929 . S
H1707 C1717 0.932 . S
H1708 C1712 0.929 . S
H1709 C1718 0.929 . S
C1710 H1704 0.930 . S
C1710 C1711 1.367 . S
C1710 C1718 1.378 . S
C1711 C1710 1.367 . S
C1711 C1719 1.433 . S
C1712 H1708 0.929 . S
C1712 C1714 1.378 1_545 S
C1712 C1716 1.350 . S
C1713 C1716 1.463 . S
C1713 C1718 1.350 . S
C1713 N1721 1.427 . S
C1714 H1705 0.930 . S
C1714 C1712 1.378 1_565 S
C1714 C1715 1.367 . S
C1715 C1714 1.367 . S
C1715 C1717 1.433 1_565 S
C1716 C1712 1.350 . S
C1716 C1713 1.463 . S
C1716 N1720 1.427 . S
C1717 H1707 0.932 . S
C1717 C1715 1.433 1_545 S
C1717 N1720 1.384 . S
C1718 H1709 0.929 . S
C1718 C1710 1.378 . S
C1718 C1713 1.350 . S
C1719 H1706 0.929 . S
C1719 C1711 1.433 . S
C1719 N1721 1.384 . S
N1720 C1716 1.427 . S
N1720 C1717 1.384 . S
N1721 C1713 1.427 . S
N1721 C1719 1.384 . S
H1722 C1728 0.930 . S
H1723 C1732 0.930 . S
H1724 C1737 0.929 . S
H1725 C1735 0.929 . S
H1726 C1730 0.929 . S
H1727 C1736 0.929 . S
C1728 H1722 0.930 . S
C1728 C1729 1.367 . S
C1728 C1736 1.378 . S
C1729 C1728 1.367 . S
C1729 C1737 1.433 . S
C1730 H1726 0.929 . S
C1730 C1732 1.378 . S
C1730 C1734 1.350 . S
C1731 C1734 1.463 . S
C1731 C1736 1.350 . S
C1731 N1739 1.427 . S
C1732 H1723 0.930 . S
C1732 C1730 1.378 . S
C1732 C1733 1.367 . S
C1733 C1732 1.367 . S
C1733 C1735 1.433 . S
C1734 C1730 1.350 . S
C1734 C1731 1.463 . S
C1734 N1738 1.427 . S
C1735 H1725 0.929 . S
C1735 C1733 1.433 . S
C1735 N1738 1.384 . S
C1736 H1727 0.929 . S
C1736 C1728 1.378 . S
C1736 C1731 1.350 . S
C1737 H1724 0.929 . S
C1737 C1729 1.433 . S
C1737 N1739 1.384 . S
N1738 C1734 1.427 . S
N1738 C1735 1.384 . S
N1739 C1731 1.427 . S
N1739 C1737 1.384 . S
H1740 C1746 0.930 . S
H1741 C1750 0.930 . S
H1742 C1755 0.929 . S
H1743 C1753 0.929 . S
H1744 C1748 0.929 . S
H1745 C1754 0.929 . S
C1746 H1740 0.930 . S
C1746 C1747 1.367 . S
C1746 C1754 1.378 . S
C1747 C1746 1.367 . S
C1747 C1755 1.433 . S
C1748 H1744 0.929 . S
C1748 C1750 1.378 . S
C1748 C1752 1.350 . S
C1749 C1752 1.463 . S
C1749 C1754 1.350 . S
C1749 N1757 1.427 . S
C1750 H1741 0.930 . S
C1750 C1748 1.378 . S
C1750 C1751 1.367 . S
C1751 C1750 1.367 . S
C1751 C1753 1.433 . S
C1752 C1748 1.350 . S
C1752 C1749 1.463 . S
C1752 N1756 1.427 . S
C1753 H1743 0.929 . S
C1753 C1751 1.433 . S
C1753 N1756 1.384 . S
C1754 H1745 0.929 . S
C1754 C1746 1.378 . S
C1754 C1749 1.350 . S
C1755 H1742 0.929 . S
C1755 C1747 1.433 . S
C1755 N1757 1.384 . S
N1756 C1752 1.427 . S
N1756 C1753 1.384 . S
N1757 C1749 1.427 . S
N1757 C1755 1.384 . S
H1758 C1764 0.930 . S
H1759 C1768 0.930 . S
H1760 C1773 0.929 . S
H1761 C1771 0.929 . S
H1762 C1766 0.929 . S
H1763 C1772 0.929 . S
C1764 H1758 0.930 . S
C1764 C1765 1.367 . S
C1764 C1772 1.378 . S
C1765 C1764 1.367 . S
C1765 C1773 1.433 . S
C1766 H1762 0.929 . S
C1766 C1768 1.378 . S
C1766 C1770 1.350 . S
C1767 C1770 1.463 . S
C1767 C1772 1.350 . S
C1767 N1775 1.427 . S
C1768 H1759 0.930 . S
C1768 C1766 1.378 . S
C1768 C1769 1.367 . S
C1769 C1768 1.367 . S
C1769 C1771 1.433 . S
C1770 C1766 1.350 . S
C1770 C1767 1.463 . S
C1770 N1774 1.427 . S
C1771 H1761 0.929 . S
C1771 C1769 1.433 . S
C1771 N1774 1.384 . S
C1772 H1763 0.929 . S
C1772 C1764 1.378 . S
C1772 C1767 1.350 . S
C1773 H1760 0.929 . S
C1773 C1765 1.433 . S
C1773 N1775 1.384 . S
N1774 C1770 1.427 . S
N1774 C1771 1.384 . S
N1775 C1767 1.427 . S
N1775 C1773 1.384 . S
H1776 C1782 0.930 . S
H1777 C1786 0.930 . S
H1778 C1791 0.929 . S
H1779 C1789 0.929 . S
H1780 C1784 0.929 . S
H1781 C1790 0.929 . S
C1782 H1776 0.930 . S
C1782 C1783 1.367 . S
C1782 C1790 1.378 . S
C1783 C1782 1.367 . S
C1783 C1791 1.433 . S
C1784 H1780 0.929 . S
C1784 C1786 1.378 . S
C1784 C1788 1.350 . S
C1785 C1788 1.463 . S
C1785 C1790 1.350 . S
C1785 N1793 1.427 . S
C1786 H1777 0.930 . S
C1786 C1784 1.378 . S
C1786 C1787 1.367 . S
C1787 C1786 1.367 . S
C1787 C1789 1.433 . S
C1788 C1784 1.350 . S
C1788 C1785 1.463 . S
C1788 N1792 1.427 . S
C1789 H1779 0.929 . S
C1789 C1787 1.433 . S
C1789 N1792 1.384 . S
C1790 H1781 0.929 . S
C1790 C1782 1.378 . S
C1790 C1785 1.350 . S
C1791 H1778 0.929 . S
C1791 C1783 1.433 . S
C1791 N1793 1.384 . S
N1792 C1788 1.427 . S
N1792 C1789 1.384 . S
N1793 C1785 1.427 . S
N1793 C1791 1.384 . S
H1794 C1800 0.930 . S
H1795 C1804 0.930 . S
H1796 C1809 0.929 . S
H1797 C1807 0.929 . S
H1798 C1802 0.929 . S
H1799 C1808 0.929 . S
C1800 H1794 0.930 . S
C1800 C1801 1.367 1_655 S
C1800 C1808 1.378 . S
C1801 C1800 1.367 1_455 S
C1801 C1809 1.433 . S
C1802 H1798 0.929 . S
C1802 C1804 1.378 . S
C1802 C1806 1.350 . S
C1803 C1806 1.463 . S
C1803 C1808 1.350 . S
C1803 N1811 1.427 . S
C1804 H1795 0.930 . S
C1804 C1802 1.378 . S
C1804 C1805 1.367 . S
C1805 C1804 1.367 . S
C1805 C1807 1.433 . S
C1806 C1802 1.350 . S
C1806 C1803 1.463 . S
C1806 N1810 1.427 . S
C1807 H1797 0.929 . S
C1807 C1805 1.433 . S
C1807 N1810 1.384 . S
C1808 H1799 0.929 . S
C1808 C1800 1.378 . S
C1808 C1803 1.350 . S
C1809 H1796 0.929 . S
C1809 C1801 1.433 . S
C1809 N1811 1.384 1_455 S
N1810 C1806 1.427 . S
N1810 C1807 1.384 . S
N1811 C1803 1.427 . S
N1811 C1809 1.384 1_655 S
H1812 C1818 0.930 . S
H1813 C1822 0.930 . S
H1814 C1827 0.929 . S
H1815 C1825 0.929 . S
H1816 C1820 0.929 . S
H1817 C1826 0.929 . S
C1818 H1812 0.930 . S
C1818 C1819 1.367 . S
C1818 C1826 1.378 . S
C1819 C1818 1.367 . S
C1819 C1827 1.433 . S
C1820 H1816 0.929 . S
C1820 C1822 1.378 . S
C1820 C1824 1.350 . S
C1821 C1824 1.463 . S
C1821 C1826 1.350 . S
C1821 N1829 1.427 . S
C1822 H1813 0.930 . S
C1822 C1820 1.378 . S
C1822 C1823 1.367 . S
C1823 C1822 1.367 . S
C1823 C1825 1.433 . S
C1824 C1820 1.350 . S
C1824 C1821 1.463 . S
C1824 N1828 1.427 . S
C1825 H1815 0.929 . S
C1825 C1823 1.433 . S
C1825 N1828 1.384 . S
C1826 H1817 0.929 . S
C1826 C1818 1.378 . S
C1826 C1821 1.350 . S
C1827 H1814 0.929 . S
C1827 C1819 1.433 . S
C1827 N1829 1.384 . S
N1828 C1824 1.427 . S
N1828 C1825 1.384 . S
N1829 C1821 1.427 . S
N1829 C1827 1.384 . S
H1830 C1836 0.930 . S
H1831 C1840 0.930 . S
H1832 C1845 0.929 . S
H1833 C1843 0.929 . S
H1834 C1838 0.929 . S
H1835 C1844 0.929 . S
C1836 H1830 0.930 . S
C1836 C1837 1.367 . S
C1836 C1844 1.378 . S
C1837 C1836 1.367 . S
C1837 C1845 1.433 . S
C1838 H1834 0.929 . S
C1838 C1840 1.378 . S
C1838 C1842 1.350 . S
C1839 C1842 1.463 . S
C1839 C1844 1.350 . S
C1839 N1847 1.427 . S
C1840 H1831 0.930 . S
C1840 C1838 1.378 . S
C1840 C1841 1.367 . S
C1841 C1840 1.367 . S
C1841 C1843 1.433 . S
C1842 C1838 1.350 . S
C1842 C1839 1.463 . S
C1842 N1846 1.427 . S
C1843 H1833 0.929 . S
C1843 C1841 1.433 . S
C1843 N1846 1.384 . S
C1844 H1835 0.929 . S
C1844 C1836 1.378 . S
C1844 C1839 1.350 . S
C1845 H1832 0.929 . S
C1845 C1837 1.433 . S
C1845 N1847 1.384 . S
N1846 C1842 1.427 . S
N1846 C1843 1.384 . S
N1847 C1839 1.427 . S
N1847 C1845 1.384 . S
H1848 C1854 0.930 . S
H1849 C1858 0.930 . S
H1850 C1863 0.929 . S
H1851 C1861 0.929 . S
H1852 C1856 0.929 . S
H1853 C1862 0.929 . S
C1854 H1848 0.930 . S
C1854 C1855 1.367 . S
C1854 C1862 1.378 . S
C1855 C1854 1.367 . S
C1855 C1863 1.433 . S
C1856 H1852 0.929 . S
C1856 C1858 1.378 . S
C1856 C1860 1.350 . S
C1857 C1860 1.463 . S
C1857 C1862 1.350 . S
C1857 N1865 1.427 . S
C1858 H1849 0.930 . S
C1858 C1856 1.378 . S
C1858 C1859 1.367 . S
C1859 C1858 1.367 . S
C1859 C1861 1.433 . S
C1860 C1856 1.350 . S
C1860 C1857 1.463 . S
C1860 N1864 1.427 . S
C1861 H1851 0.929 . S
C1861 C1859 1.433 . S
C1861 N1864 1.384 . S
C1862 H1853 0.929 . S
C1862 C1854 1.378 . S
C1862 C1857 1.350 . S
C1863 H1850 0.929 . S
C1863 C1855 1.433 . S
C1863 N1865 1.384 . S
N1864 C1860 1.427 . S
N1864 C1861 1.384 . S
N1865 C1857 1.427 . S
N1865 C1863 1.384 . S
H1866 C1872 0.930 . S
H1867 C1876 0.930 . S
H1868 C1881 0.929 . S
H1869 C1879 0.929 . S
H1870 C1874 0.929 . S
H1871 C1880 0.929 . S
C1872 H1866 0.930 . S
C1872 C1873 1.367 . S
C1872 C1880 1.378 . S
C1873 C1872 1.367 . S
C1873 C1881 1.433 . S
C1874 H1870 0.929 . S
C1874 C1876 1.378 . S
C1874 C1878 1.350 . S
C1875 C1878 1.463 . S
C1875 C1880 1.350 . S
C1875 N1883 1.427 . S
C1876 H1867 0.930 . S
C1876 C1874 1.378 . S
C1876 C1877 1.367 . S
C1877 C1876 1.367 . S
C1877 C1879 1.433 . S
C1878 C1874 1.350 . S
C1878 C1875 1.463 . S
C1878 N1882 1.427 . S
C1879 H1869 0.929 . S
C1879 C1877 1.433 . S
C1879 N1882 1.384 . S
C1880 H1871 0.929 . S
C1880 C1872 1.378 . S
C1880 C1875 1.350 . S
C1881 H1868 0.929 . S
C1881 C1873 1.433 . S
C1881 N1883 1.384 . S
N1882 C1878 1.427 . S
N1882 C1879 1.384 . S
N1883 C1875 1.427 . S
N1883 C1881 1.384 . S
H1884 C1890 0.930 . S
H1885 C1894 0.930 . S
H1886 C1899 0.929 . S
H1887 C1897 0.929 . S
H1888 C1892 0.929 . S
H1889 C1898 0.929 . S
C1890 H1884 0.930 . S
C1890 C1891 1.367 . S
C1890 C1898 1.378 . S
C1891 C1890 1.367 . S
C1891 C1899 1.433 . S
C1892 H1888 0.929 . S
C1892 C1894 1.378 . S
C1892 C1896 1.350 . S
C1893 C1896 1.463 . S
C1893 C1898 1.350 . S
C1893 N1901 1.427 . S
C1894 H1885 0.930 . S
C1894 C1892 1.378 . S
C1894 C1895 1.367 . S
C1895 C1894 1.367 . S
C1895 C1897 1.433 . S
C1896 C1892 1.350 . S
C1896 C1893 1.463 . S
C1896 N1900 1.427 . S
C1897 H1887 0.929 . S
C1897 C1895 1.433 . S
C1897 N1900 1.384 . S
C1898 H1889 0.929 . S
C1898 C1890 1.378 . S
C1898 C1893 1.350 . S
C1899 H1886 0.929 . S
C1899 C1891 1.433 . S
C1899 N1901 1.384 . S
N1900 C1896 1.427 . S
N1900 C1897 1.384 . S
N1901 C1893 1.427 . S
N1901 C1899 1.384 . S
H1902 C1908 0.930 . S
H1903 C1912 0.930 . S
H1904 C1917 0.929 . S
H1905 C1915 0.929 . S
H1906 C1910 0.929 . S
H1907 C1916 0.929 . S
C1908 H1902 0.930 . S
C1908 C1909 1.367 . S
C1908 C1916 1.378 . S
C1909 C1908 1.367 . S
C1909 C1917 1.433 . S
C1910 H1906 0.929 . S
C1910 C1912 1.378 . S
C1910 C1914 1.350 . S
C1911 C1914 1.463 . S
C1911 C1916 1.350 . S
C1911 N1919 1.427 . S
C1912 H1903 0.930 . S
C1912 C1910 1.378 . S
C1912 C1913 1.367 1_655 S
C1913 C1912 1.367 1_455 S
C1913 C1915 1.433 . S
C1914 C1910 1.350 . S
C1914 C1911 1.463 . S
C1914 N1918 1.403 1_655 S
C1915 H1905 0.929 . S
C1915 C1913 1.433 . S
C1915 N1918 1.404 . S
C1916 H1907 0.929 . S
C1916 C1908 1.378 . S
C1916 C1911 1.350 . S
C1917 H1904 0.929 . S
C1917 C1909 1.433 . S
C1917 N1919 1.384 . S
N1918 C1914 1.403 1_455 S
N1918 C1915 1.404 . S
N1919 C1911 1.427 . S
N1919 C1917 1.384 . S
H1920 C1926 0.930 . S
H1921 C1930 0.930 . S
H1922 C1935 0.929 . S
H1923 C1933 0.929 . S
H1924 C1928 0.929 . S
H1925 C1934 0.929 . S
C1926 H1920 0.930 . S
C1926 C1927 1.367 . S
C1926 C1934 1.378 . S
C1927 C1926 1.367 . S
C1927 C1935 1.433 . S
C1928 H1924 0.929 . S
C1928 C1930 1.378 . S
C1928 C1932 1.350 . S
C1929 C1932 1.463 . S
C1929 C1934 1.350 . S
C1929 N1937 1.427 . S
C1930 H1921 0.930 . S
C1930 C1928 1.378 . S
C1930 C1931 1.367 . S
C1931 C1930 1.367 . S
C1931 C1933 1.433 . S
C1932 C1928 1.350 . S
C1932 C1929 1.463 . S
C1932 N1936 1.427 . S
C1933 H1923 0.929 . S
C1933 C1931 1.433 . S
C1933 N1936 1.384 . S
C1934 H1925 0.929 . S
C1934 C1926 1.378 . S
C1934 C1929 1.350 . S
C1935 H1922 0.929 . S
C1935 C1927 1.433 . S
C1935 N1937 1.384 . S
N1936 C1932 1.427 . S
N1936 C1933 1.384 . S
N1937 C1929 1.427 . S
N1937 C1935 1.384 . S
H1938 C1944 0.930 . S
H1939 C1948 0.930 . S
H1940 C1953 0.929 . S
H1941 C1951 0.929 . S
H1942 C1946 0.929 . S
H1943 C1952 0.929 . S
C1944 H1938 0.930 . S
C1944 C1945 1.367 . S
C1944 C1952 1.378 . S
C1945 C1944 1.367 . S
C1945 C1953 1.433 . S
C1946 H1942 0.929 . S
C1946 C1948 1.378 . S
C1946 C1950 1.350 . S
C1947 C1950 1.463 . S
C1947 C1952 1.350 . S
C1947 N1955 1.427 . S
C1948 H1939 0.930 . S
C1948 C1946 1.378 . S
C1948 C1949 1.367 . S
C1949 C1948 1.367 . S
C1949 C1951 1.433 . S
C1950 C1946 1.350 . S
C1950 C1947 1.463 . S
C1950 N1954 1.427 . S
C1951 H1941 0.929 . S
C1951 C1949 1.433 . S
C1951 N1954 1.384 . S
C1952 H1943 0.929 . S
C1952 C1944 1.378 . S
C1952 C1947 1.350 . S
C1953 H1940 0.929 . S
C1953 C1945 1.433 . S
C1953 N1955 1.384 . S
N1954 C1950 1.427 . S
N1954 C1951 1.384 . S
N1955 C1947 1.427 . S
N1955 C1953 1.384 . S
H1956 C1962 0.930 . S
H1957 C1966 0.930 . S
H1958 C1971 0.929 . S
H1959 C1969 0.929 . S
H1960 C1964 0.929 . S
H1961 C1970 0.929 . S
C1962 H1956 0.930 . S
C1962 C1963 1.367 . S
C1962 C1970 1.378 . S
C1963 C1962 1.367 . S
C1963 C1971 1.433 . S
C1964 H1960 0.929 . S
C1964 C1966 1.378 . S
C1964 C1968 1.350 . S
C1965 C1968 1.463 . S
C1965 C1970 1.350 . S
C1965 N1973 1.427 . S
C1966 H1957 0.930 . S
C1966 C1964 1.378 . S
C1966 C1967 1.367 . S
C1967 C1966 1.367 . S
C1967 C1969 1.433 . S
C1968 C1964 1.350 . S
C1968 C1965 1.463 . S
C1968 N1972 1.427 . S
C1969 H1959 0.929 . S
C1969 C1967 1.433 . S
C1969 N1972 1.384 . S
C1970 H1961 0.929 . S
C1970 C1962 1.378 . S
C1970 C1965 1.350 . S
C1971 H1958 0.929 . S
C1971 C1963 1.433 . S
C1971 N1973 1.384 . S
N1972 C1968 1.427 . S
N1972 C1969 1.384 . S
N1973 C1965 1.427 . S
N1973 C1971 1.384 . S
H1974 C1980 0.929 1_556 S
H1975 C1984 0.930 . S
H1976 C1989 0.929 . S
H1977 C1987 0.929 . S
H1978 C1982 0.929 . S
H1979 C1988 0.929 . S
C1980 H1974 0.929 1_554 S
C1980 C1981 1.363 1_554 S
C1980 C1988 1.383 . S
C1981 C1980 1.363 1_556 S
C1981 C1989 1.433 . S
C1982 H1978 0.929 . S
C1982 C1984 1.378 . S
C1982 C1986 1.350 . S
C1983 C1986 1.463 . S
C1983 C1988 1.350 . S
C1983 N1991 1.427 . S
C1984 H1975 0.930 . S
C1984 C1982 1.378 . S
C1984 C1985 1.367 . S
C1985 C1984 1.367 . S
C1985 C1987 1.433 . S
C1986 C1982 1.350 . S
C1986 C1983 1.463 . S
C1986 N1990 1.427 . S
C1987 H1977 0.929 . S
C1987 C1985 1.433 . S
C1987 N1990 1.384 . S
C1988 H1979 0.929 . S
C1988 C1980 1.383 . S
C1988 C1983 1.350 . S
C1989 H1976 0.929 . S
C1989 C1981 1.433 . S
C1989 N1991 1.384 1_556 S
N1990 C1986 1.427 . S
N1990 C1987 1.384 . S
N1991 C1983 1.427 . S
N1991 C1989 1.384 1_554 S
H1992 C1998 0.930 . S
H1993 C2002 0.930 . S
H1994 C2007 0.929 . S
H1995 C2005 0.929 . S
H1996 C2000 0.929 . S
H1997 C2006 0.929 . S
C1998 H1992 0.930 . S
C1998 C1999 1.367 . S
C1998 C2006 1.378 . S
C1999 C1998 1.367 . S
C1999 C2007 1.433 . S
C2000 H1996 0.929 . S
C2000 C2002 1.378 . S
C2000 C2004 1.350 . S
C2001 C2004 1.463 . S
C2001 C2006 1.350 . S
C2001 N2009 1.427 . S
C2002 H1993 0.930 . S
C2002 C2000 1.378 . S
C2002 C2003 1.367 . S
C2003 C2002 1.367 . S
C2003 C2005 1.433 . S
C2004 C2000 1.350 . S
C2004 C2001 1.463 . S
C2004 N2008 1.427 . S
C2005 H1995 0.929 . S
C2005 C2003 1.433 . S
C2005 N2008 1.384 . S
C2006 H1997 0.929 . S
C2006 C1998 1.378 . S
C2006 C2001 1.350 . S
C2007 H1994 0.929 . S
C2007 C1999 1.433 . S
C2007 N2009 1.384 . S
N2008 C2004 1.427 . S
N2008 C2005 1.384 . S
N2009 C2001 1.427 . S
N2009 C2007 1.384 . S
H2010 C2016 0.930 . S
H2011 C2020 0.930 . S
H2012 C2025 0.929 . S
H2013 C2023 0.929 . S
H2014 C2018 0.929 . S
H2015 C2024 0.929 . S
C2016 H2010 0.930 . S
C2016 C2017 1.367 . S
C2016 C2024 1.378 . S
C2017 C2016 1.367 . S
C2017 C2025 1.433 . S
C2018 H2014 0.929 . S
C2018 C2020 1.378 . S
C2018 C2022 1.350 . S
C2019 C2022 1.463 . S
C2019 C2024 1.350 . S
C2019 N2027 1.427 . S
C2020 H2011 0.930 . S
C2020 C2018 1.378 . S
C2020 C2021 1.367 . S
C2021 C2020 1.367 . S
C2021 C2023 1.433 . S
C2022 C2018 1.350 . S
C2022 C2019 1.463 . S
C2022 N2026 1.427 . S
C2023 H2013 0.929 . S
C2023 C2021 1.433 . S
C2023 N2026 1.384 . S
C2024 H2015 0.929 . S
C2024 C2016 1.378 . S
C2024 C2019 1.350 . S
C2025 H2012 0.929 . S
C2025 C2017 1.433 . S
C2025 N2027 1.384 . S
N2026 C2022 1.427 . S
N2026 C2023 1.384 . S
N2027 C2019 1.427 . S
N2027 C2025 1.384 . S
H2028 C2034 0.930 . S
H2029 C2038 0.930 . S
H2030 C2043 0.929 . S
H2031 C2041 0.929 . S
H2032 C2036 0.929 . S
H2033 C2042 0.929 . S
C2034 H2028 0.930 . S
C2034 C2035 1.367 . S
C2034 C2042 1.378 . S
C2035 C2034 1.367 . S
C2035 C2043 1.433 . S
C2036 H2032 0.929 . S
C2036 C2038 1.378 . S
C2036 C2040 1.350 . S
C2037 C2040 1.463 . S
C2037 C2042 1.350 . S
C2037 N2045 1.427 . S
C2038 H2029 0.930 . S
C2038 C2036 1.378 . S
C2038 C2039 1.367 . S
C2039 C2038 1.367 . S
C2039 C2041 1.433 . S
C2040 C2036 1.350 . S
C2040 C2037 1.463 . S
C2040 N2044 1.427 . S
C2041 H2031 0.929 . S
C2041 C2039 1.433 . S
C2041 N2044 1.384 . S
C2042 H2033 0.929 . S
C2042 C2034 1.378 . S
C2042 C2037 1.350 . S
C2043 H2030 0.929 . S
C2043 C2035 1.433 . S
C2043 N2045 1.384 . S
N2044 C2040 1.427 . S
N2044 C2041 1.384 . S
N2045 C2037 1.427 . S
N2045 C2043 1.384 . S
H2046 C2052 0.930 . S
H2047 C2056 0.930 . S
H2048 C2061 0.929 . S
H2049 C2059 0.929 . S
H2050 C2054 0.929 . S
H2051 C2060 0.929 . S
C2052 H2046 0.930 . S
C2052 C2053 1.367 . S
C2052 C2060 1.378 1_554 S
C2053 C2052 1.367 . S
C2053 C2061 1.433 . S
C2054 H2050 0.929 . S
C2054 C2056 1.378 . S
C2054 C2058 1.350 . S
C2055 C2058 1.463 . S
C2055 C2060 1.350 . S
C2055 N2063 1.427 . S
C2056 H2047 0.930 . S
C2056 C2054 1.378 . S
C2056 C2057 1.367 . S
C2057 C2056 1.367 . S
C2057 C2059 1.433 . S
C2058 C2054 1.350 . S
C2058 C2055 1.463 . S
C2058 N2062 1.427 . S
C2059 H2049 0.929 . S
C2059 C2057 1.433 . S
C2059 N2062 1.384 . S
C2060 H2051 0.929 . S
C2060 C2052 1.378 1_556 S
C2060 C2055 1.350 . S
C2061 H2048 0.929 . S
C2061 C2053 1.433 . S
C2061 N2063 1.384 1_554 S
N2062 C2058 1.427 . S
N2062 C2059 1.384 . S
N2063 C2055 1.427 . S
N2063 C2061 1.384 1_556 S
H2064 C2070 0.930 . S
H2065 C2074 0.930 . S
H2066 C2079 0.929 . S
H2067 C2077 0.929 . S
H2068 C2072 0.929 . S
H2069 C2078 0.929 . S
C2070 H2064 0.930 . S
C2070 C2071 1.367 . S
C2070 C2078 1.378 . S
C2071 C2070 1.367 . S
C2071 C2079 1.433 . S
C2072 H2068 0.929 . S
C2072 C2074 1.378 . S
C2072 C2076 1.350 . S
C2073 C2076 1.463 . S
C2073 C2078 1.350 . S
C2073 N2081 1.427 . S
C2074 H2065 0.930 . S
C2074 C2072 1.378 . S
C2074 C2075 1.367 . S
C2075 C2074 1.367 . S
C2075 C2077 1.433 . S
C2076 C2072 1.350 . S
C2076 C2073 1.463 . S
C2076 N2080 1.427 . S
C2077 H2067 0.929 . S
C2077 C2075 1.433 . S
C2077 N2080 1.384 . S
C2078 H2069 0.929 . S
C2078 C2070 1.378 . S
C2078 C2073 1.350 . S
C2079 H2066 0.929 . S
C2079 C2071 1.433 . S
C2079 N2081 1.384 . S
N2080 C2076 1.427 . S
N2080 C2077 1.384 . S
N2081 C2073 1.427 . S
N2081 C2079 1.384 . S
H2082 C2088 0.930 . S
H2083 C2092 0.930 . S
H2084 C2097 0.929 . S
H2085 C2095 0.929 . S
H2086 C2090 0.929 . S
H2087 C2096 0.929 . S
C2088 H2082 0.930 . S
C2088 C2089 1.367 . S
C2088 C2096 1.378 . S
C2089 C2088 1.367 . S
C2089 C2097 1.433 . S
C2090 H2086 0.929 . S
C2090 C2092 1.378 . S
C2090 C2094 1.350 . S
C2091 C2094 1.463 . S
C2091 C2096 1.350 . S
C2091 N2099 1.427 . S
C2092 H2083 0.930 . S
C2092 C2090 1.378 . S
C2092 C2093 1.367 . S
C2093 C2092 1.367 . S
C2093 C2095 1.433 . S
C2094 C2090 1.350 . S
C2094 C2091 1.463 . S
C2094 N2098 1.427 . S
C2095 H2085 0.929 . S
C2095 C2093 1.433 . S
C2095 N2098 1.384 . S
C2096 H2087 0.929 . S
C2096 C2088 1.378 . S
C2096 C2091 1.350 . S
C2097 H2084 0.929 . S
C2097 C2089 1.433 . S
C2097 N2099 1.384 . S
N2098 C2094 1.427 . S
N2098 C2095 1.384 . S
N2099 C2091 1.427 . S
N2099 C2097 1.384 . S
H2100 C2106 0.930 . S
H2101 C2110 0.930 . S
H2102 C2115 0.929 . S
H2103 C2113 0.929 . S
H2104 C2108 0.929 . S
H2105 C2114 0.929 . S
C2106 H2100 0.930 . S
C2106 C2107 1.367 . S
C2106 C2114 1.378 . S
C2107 C2106 1.367 . S
C2107 C2115 1.433 . S
C2108 H2104 0.929 . S
C2108 C2110 1.378 . S
C2108 C2112 1.350 . S
C2109 C2112 1.463 . S
C2109 C2114 1.350 . S
C2109 N2117 1.427 . S
C2110 H2101 0.930 . S
C2110 C2108 1.378 . S
C2110 C2111 1.367 . S
C2111 C2110 1.367 . S
C2111 C2113 1.433 . S
C2112 C2108 1.350 . S
C2112 C2109 1.463 . S
C2112 N2116 1.427 . S
C2113 H2103 0.929 . S
C2113 C2111 1.433 . S
C2113 N2116 1.384 . S
C2114 H2105 0.929 . S
C2114 C2106 1.378 . S
C2114 C2109 1.350 . S
C2115 H2102 0.929 . S
C2115 C2107 1.433 . S
C2115 N2117 1.384 . S
N2116 C2112 1.427 . S
N2116 C2113 1.384 . S
N2117 C2109 1.427 . S
N2117 C2115 1.384 . S
H2118 C2124 0.930 . S
H2119 C2128 0.930 . S
H2120 C2133 0.929 . S
H2121 C2131 0.929 . S
H2122 C2126 0.929 . S
H2123 C2132 0.929 . S
C2124 H2118 0.930 . S
C2124 C2125 1.367 . S
C2124 C2132 1.378 . S
C2125 C2124 1.367 . S
C2125 C2133 1.433 . S
C2126 H2122 0.929 . S
C2126 C2128 1.378 . S
C2126 C2130 1.350 . S
C2127 C2130 1.463 . S
C2127 C2132 1.350 . S
C2127 N2135 1.427 . S
C2128 H2119 0.930 . S
C2128 C2126 1.378 . S
C2128 C2129 1.367 . S
C2129 C2128 1.367 . S
C2129 C2131 1.433 . S
C2130 C2126 1.350 . S
C2130 C2127 1.463 . S
C2130 N2134 1.427 . S
C2131 H2121 0.929 . S
C2131 C2129 1.433 . S
C2131 N2134 1.384 . S
C2132 H2123 0.929 . S
C2132 C2124 1.378 . S
C2132 C2127 1.350 . S
C2133 H2120 0.929 . S
C2133 C2125 1.433 . S
C2133 N2135 1.384 . S
N2134 C2130 1.427 . S
N2134 C2131 1.384 . S
N2135 C2127 1.427 . S
N2135 C2133 1.384 . S
H2136 C2142 0.930 . S
H2137 C2146 0.931 . S
H2138 C2151 0.929 . S
H2139 C2149 0.929 . S
H2140 C2144 0.929 . S
H2141 C2150 0.929 . S
C2142 H2136 0.930 . S
C2142 C2143 1.367 . S
C2142 C2150 1.378 . S
C2143 C2142 1.367 . S
C2143 C2151 1.433 . S
C2144 H2140 0.929 . S
C2144 C2146 1.374 1_565 S
C2144 C2148 1.350 . S
C2145 C2148 1.463 . S
C2145 C2150 1.350 . S
C2145 N2153 1.427 . S
C2146 H2137 0.931 . S
C2146 C2144 1.374 1_545 S
C2146 C2147 1.369 . S
C2147 C2146 1.369 . S
C2147 C2149 1.433 . S
C2148 C2144 1.350 . S
C2148 C2145 1.463 . S
C2148 N2152 1.427 . S
C2149 H2139 0.929 . S
C2149 C2147 1.433 . S
C2149 N2152 1.384 1_545 S
C2150 H2141 0.929 . S
C2150 C2142 1.378 . S
C2150 C2145 1.350 . S
C2151 H2138 0.929 . S
C2151 C2143 1.433 . S
C2151 N2153 1.384 . S
N2152 C2148 1.427 . S
N2152 C2149 1.384 1_565 S
N2153 C2145 1.427 . S
N2153 C2151 1.384 . S
H2154 C2160 0.930 . S
H2155 C2164 0.930 . S
H2156 C2169 0.929 . S
H2157 C2167 0.929 . S
H2158 C2162 0.929 . S
H2159 C2168 0.929 . S
C2160 H2154 0.930 . S
C2160 C2161 1.367 . S
C2160 C2168 1.378 . S
C2161 C2160 1.367 . S
C2161 C2169 1.433 . S
C2162 H2158 0.929 . S
C2162 C2164 1.378 . S
C2162 C2166 1.350 . S
C2163 C2166 1.463 . S
C2163 C2168 1.350 . S
C2163 N2171 1.427 . S
C2164 H2155 0.930 . S
C2164 C2162 1.378 . S
C2164 C2165 1.367 . S
C2165 C2164 1.367 . S
C2165 C2167 1.433 . S
C2166 C2162 1.350 . S
C2166 C2163 1.463 . S
C2166 N2170 1.427 . S
C2167 H2157 0.929 . S
C2167 C2165 1.433 . S
C2167 N2170 1.384 . S
C2168 H2159 0.929 . S
C2168 C2160 1.378 . S
C2168 C2163 1.350 . S
C2169 H2156 0.929 . S
C2169 C2161 1.433 . S
C2169 N2171 1.384 . S
N2170 C2166 1.427 . S
N2170 C2167 1.384 . S
N2171 C2163 1.427 . S
N2171 C2169 1.384 . S
H2172 C2178 0.930 . S
H2173 C2182 0.930 . S
H2174 C2187 0.929 . S
H2175 C2185 0.929 . S
H2176 C2180 0.929 . S
H2177 C2186 0.929 . S
C2178 H2172 0.930 . S
C2178 C2179 1.367 . S
C2178 C2186 1.378 . S
C2179 C2178 1.367 . S
C2179 C2187 1.433 . S
C2180 H2176 0.929 . S
C2180 C2182 1.378 . S
C2180 C2184 1.350 . S
C2181 C2184 1.463 . S
C2181 C2186 1.350 . S
C2181 N2189 1.427 . S
C2182 H2173 0.930 . S
C2182 C2180 1.378 . S
C2182 C2183 1.367 . S
C2183 C2182 1.367 . S
C2183 C2185 1.433 . S
C2184 C2180 1.350 . S
C2184 C2181 1.463 . S
C2184 N2188 1.427 . S
C2185 H2175 0.929 . S
C2185 C2183 1.433 . S
C2185 N2188 1.384 . S
C2186 H2177 0.929 . S
C2186 C2178 1.378 . S
C2186 C2181 1.350 . S
C2187 H2174 0.929 . S
C2187 C2179 1.433 . S
C2187 N2189 1.384 . S
N2188 C2184 1.427 . S
N2188 C2185 1.384 . S
N2189 C2181 1.427 . S
N2189 C2187 1.384 . S
H2190 C2196 0.930 . S
H2191 C2200 0.930 . S
H2192 C2205 0.929 . S
H2193 C2203 0.929 . S
H2194 C2198 0.929 . S
H2195 C2204 0.929 . S
C2196 H2190 0.930 . S
C2196 C2197 1.367 . S
C2196 C2204 1.378 . S
C2197 C2196 1.367 . S
C2197 C2205 1.433 . S
C2198 H2194 0.929 . S
C2198 C2200 1.378 . S
C2198 C2202 1.350 . S
C2199 C2202 1.463 . S
C2199 C2204 1.350 . S
C2199 N2207 1.427 . S
C2200 H2191 0.930 . S
C2200 C2198 1.378 . S
C2200 C2201 1.367 . S
C2201 C2200 1.367 . S
C2201 C2203 1.433 . S
C2202 C2198 1.350 . S
C2202 C2199 1.463 . S
C2202 N2206 1.427 . S
C2203 H2193 0.929 . S
C2203 C2201 1.433 . S
C2203 N2206 1.384 . S
C2204 H2195 0.929 . S
C2204 C2196 1.378 . S
C2204 C2199 1.350 . S
C2205 H2192 0.929 . S
C2205 C2197 1.433 . S
C2205 N2207 1.384 . S
N2206 C2202 1.427 . S
N2206 C2203 1.384 . S
N2207 C2199 1.427 . S
N2207 C2205 1.384 . S
H2208 C2214 0.930 . S
H2209 C2218 0.930 . S
H2210 C2223 0.929 . S
H2211 C2221 0.929 . S
H2212 C2216 0.929 . S
H2213 C2222 0.929 . S
C2214 H2208 0.930 . S
C2214 C2215 1.367 . S
C2214 C2222 1.378 . S
C2215 C2214 1.367 . S
C2215 C2223 1.433 . S
C2216 H2212 0.929 . S
C2216 C2218 1.378 . S
C2216 C2220 1.350 . S
C2217 C2220 1.463 . S
C2217 C2222 1.350 . S
C2217 N2225 1.427 . S
C2218 H2209 0.930 . S
C2218 C2216 1.378 . S
C2218 C2219 1.367 . S
C2219 C2218 1.367 . S
C2219 C2221 1.433 . S
C2220 C2216 1.350 . S
C2220 C2217 1.463 . S
C2220 N2224 1.427 . S
C2221 H2211 0.929 . S
C2221 C2219 1.433 . S
C2221 N2224 1.384 . S
C2222 H2213 0.929 . S
C2222 C2214 1.378 . S
C2222 C2217 1.350 . S
C2223 H2210 0.929 . S
C2223 C2215 1.433 . S
C2223 N2225 1.384 . S
N2224 C2220 1.427 . S
N2224 C2221 1.384 . S
N2225 C2217 1.427 . S
N2225 C2223 1.384 . S
H2226 C2232 0.930 . S
H2227 C2236 0.930 . S
H2228 C2241 0.929 . S
H2229 C2239 0.929 . S
H2230 C2234 0.929 . S
H2231 C2240 0.929 . S
C2232 H2226 0.930 . S
C2232 C2233 1.367 . S
C2232 C2240 1.378 . S
C2233 C2232 1.367 . S
C2233 C2241 1.433 . S
C2234 H2230 0.929 . S
C2234 C2236 1.378 . S
C2234 C2238 1.350 . S
C2235 C2238 1.463 . S
C2235 C2240 1.350 . S
C2235 N2243 1.427 . S
C2236 H2227 0.930 . S
C2236 C2234 1.378 . S
C2236 C2237 1.367 . S
C2237 C2236 1.367 . S
C2237 C2239 1.433 . S
C2238 C2234 1.350 . S
C2238 C2235 1.463 . S
C2238 N2242 1.427 . S
C2239 H2229 0.929 . S
C2239 C2237 1.433 . S
C2239 N2242 1.384 . S
C2240 H2231 0.929 . S
C2240 C2232 1.378 . S
C2240 C2235 1.350 . S
C2241 H2228 0.929 . S
C2241 C2233 1.433 . S
C2241 N2243 1.384 . S
N2242 C2238 1.427 . S
N2242 C2239 1.384 . S
N2243 C2235 1.427 . S
N2243 C2241 1.384 . S
H2244 C2250 0.930 . S
H2245 C2254 0.930 . S
H2246 C2259 0.929 . S
H2247 C2257 0.929 . S
H2248 C2252 0.929 . S
H2249 C2258 0.929 . S
C2250 H2244 0.930 . S
C2250 C2251 1.367 . S
C2250 C2258 1.378 . S
C2251 C2250 1.367 . S
C2251 C2259 1.433 . S
C2252 H2248 0.929 . S
C2252 C2254 1.378 . S
C2252 C2256 1.350 . S
C2253 C2256 1.463 . S
C2253 C2258 1.350 . S
C2253 N2261 1.427 . S
C2254 H2245 0.930 . S
C2254 C2252 1.378 . S
C2254 C2255 1.367 . S
C2255 C2254 1.367 . S
C2255 C2257 1.433 . S
C2256 C2252 1.350 . S
C2256 C2253 1.463 . S
C2256 N2260 1.427 . S
C2257 H2247 0.929 . S
C2257 C2255 1.433 . S
C2257 N2260 1.384 . S
C2258 H2249 0.929 . S
C2258 C2250 1.378 . S
C2258 C2253 1.350 . S
C2259 H2246 0.929 . S
C2259 C2251 1.433 . S
C2259 N2261 1.384 . S
N2260 C2256 1.427 . S
N2260 C2257 1.384 . S
N2261 C2253 1.427 . S
N2261 C2259 1.384 . S
H2262 C2268 0.941 . S
H2263 C2272 0.930 . S
H2264 C2277 0.929 . S
H2265 C2275 0.929 . S
H2266 C2270 0.929 . S
H2267 C2276 0.929 . S
C2268 H2262 0.941 . S
C2268 C2269 1.388 . S
C2268 C2276 1.348 1_455 S
C2269 C2268 1.388 . S
C2269 C2277 1.433 . S
C2270 H2266 0.929 . S
C2270 C2272 1.378 . S
C2270 C2274 1.350 . S
C2271 C2274 1.463 . S
C2271 C2276 1.350 . S
C2271 N2279 1.427 . S
C2272 H2263 0.930 . S
C2272 C2270 1.378 . S
C2272 C2273 1.367 . S
C2273 C2272 1.367 . S
C2273 C2275 1.433 . S
C2274 C2270 1.350 . S
C2274 C2271 1.463 . S
C2274 N2278 1.427 . S
C2275 H2265 0.929 . S
C2275 C2273 1.433 . S
C2275 N2278 1.384 . S
C2276 H2267 0.929 . S
C2276 C2268 1.348 1_655 S
C2276 C2271 1.350 . S
C2277 H2264 0.929 . S
C2277 C2269 1.433 . S
C2277 N2279 1.384 1_455 S
N2278 C2274 1.427 . S
N2278 C2275 1.384 . S
N2279 C2271 1.427 . S
N2279 C2277 1.384 1_655 S
H2280 C2286 0.930 . S
H2281 C2290 0.930 . S
H2282 C2295 0.929 . S
H2283 C2293 0.929 . S
H2284 C2288 0.929 . S
H2285 C2294 0.929 . S
C2286 H2280 0.930 . S
C2286 C2287 1.367 . S
C2286 C2294 1.378 . S
C2287 C2286 1.367 . S
C2287 C2295 1.433 . S
C2288 H2284 0.929 . S
C2288 C2290 1.378 . S
C2288 C2292 1.350 . S
C2289 C2292 1.463 . S
C2289 C2294 1.350 . S
C2289 N2297 1.427 . S
C2290 H2281 0.930 . S
C2290 C2288 1.378 . S
C2290 C2291 1.367 . S
C2291 C2290 1.367 . S
C2291 C2293 1.433 . S
C2292 C2288 1.350 . S
C2292 C2289 1.463 . S
C2292 N2296 1.427 . S
C2293 H2283 0.929 . S
C2293 C2291 1.433 . S
C2293 N2296 1.384 . S
C2294 H2285 0.929 . S
C2294 C2286 1.378 . S
C2294 C2289 1.350 . S
C2295 H2282 0.929 . S
C2295 C2287 1.433 . S
C2295 N2297 1.384 . S
N2296 C2292 1.427 . S
N2296 C2293 1.384 . S
N2297 C2289 1.427 . S
N2297 C2295 1.384 . S
H2298 C2304 0.930 . S
H2299 C2308 0.930 . S
H2300 C2313 0.929 . S
H2301 C2311 0.929 . S
H2302 C2306 0.929 . S
H2303 C2312 0.931 . S
C2304 H2298 0.930 . S
C2304 C2305 1.367 . S
C2304 C2312 1.388 . S
C2305 C2304 1.367 . S
C2305 C2313 1.433 1_455 S
C2306 H2302 0.929 . S
C2306 C2308 1.378 . S
C2306 C2310 1.350 . S
C2307 C2310 1.463 . S
C2307 C2312 1.337 1_655 S
C2307 N2315 1.427 . S
C2308 H2299 0.930 . S
C2308 C2306 1.378 . S
C2308 C2309 1.367 . S
C2309 C2308 1.367 . S
C2309 C2311 1.433 . S
C2310 C2306 1.350 . S
C2310 C2307 1.463 . S
C2310 N2314 1.427 . S
C2311 H2301 0.929 . S
C2311 C2309 1.433 . S
C2311 N2314 1.384 . S
C2312 H2303 0.931 . S
C2312 C2304 1.388 . S
C2312 C2307 1.337 1_455 S
C2313 H2300 0.929 . S
C2313 C2305 1.433 1_655 S
C2313 N2315 1.384 . S
N2314 C2310 1.427 . S
N2314 C2311 1.384 . S
N2315 C2307 1.427 . S
N2315 C2313 1.384 . S
H2316 C2322 0.930 . S
H2317 C2326 0.930 . S
H2318 C2331 0.929 . S
H2319 C2329 0.929 . S
H2320 C2324 0.929 . S
H2321 C2330 0.929 . S
C2322 H2316 0.930 . S
C2322 C2323 1.367 . S
C2322 C2330 1.378 . S
C2323 C2322 1.367 . S
C2323 C2331 1.433 . S
C2324 H2320 0.929 . S
C2324 C2326 1.378 . S
C2324 C2328 1.350 . S
C2325 C2328 1.463 . S
C2325 C2330 1.350 . S
C2325 N2333 1.427 . S
C2326 H2317 0.930 . S
C2326 C2324 1.378 . S
C2326 C2327 1.367 . S
C2327 C2326 1.367 . S
C2327 C2329 1.433 . S
C2328 C2324 1.350 . S
C2328 C2325 1.463 . S
C2328 N2332 1.427 . S
C2329 H2319 0.929 . S
C2329 C2327 1.433 . S
C2329 N2332 1.384 . S
C2330 H2321 0.929 . S
C2330 C2322 1.378 . S
C2330 C2325 1.350 . S
C2331 H2318 0.929 . S
C2331 C2323 1.433 . S
C2331 N2333 1.384 . S
N2332 C2328 1.427 . S
N2332 C2329 1.384 . S
N2333 C2325 1.427 . S
N2333 C2331 1.384 . S
H2334 C2340 0.930 . S
H2335 C2344 0.930 . S
H2336 C2349 0.929 . S
H2337 C2347 0.929 . S
H2338 C2342 0.929 . S
H2339 C2348 0.929 . S
C2340 H2334 0.930 . S
C2340 C2341 1.367 . S
C2340 C2348 1.378 . S
C2341 C2340 1.367 . S
C2341 C2349 1.433 . S
C2342 H2338 0.929 . S
C2342 C2344 1.378 . S
C2342 C2346 1.350 . S
C2343 C2346 1.463 . S
C2343 C2348 1.350 . S
C2343 N2351 1.427 . S
C2344 H2335 0.930 . S
C2344 C2342 1.378 . S
C2344 C2345 1.367 . S
C2345 C2344 1.367 . S
C2345 C2347 1.433 . S
C2346 C2342 1.350 . S
C2346 C2343 1.463 . S
C2346 N2350 1.427 . S
C2347 H2337 0.929 . S
C2347 C2345 1.433 . S
C2347 N2350 1.384 . S
C2348 H2339 0.929 . S
C2348 C2340 1.378 . S
C2348 C2343 1.350 . S
C2349 H2336 0.929 . S
C2349 C2341 1.433 . S
C2349 N2351 1.384 . S
N2350 C2346 1.427 . S
N2350 C2347 1.384 . S
N2351 C2343 1.427 . S
N2351 C2349 1.384 . S
H2352 C2358 0.930 . S
H2353 C2362 0.930 . S
H2354 C2367 0.929 . S
H2355 C2365 0.929 . S
H2356 C2360 0.929 . S
H2357 C2366 0.929 . S
C2358 H2352 0.930 . S
C2358 C2359 1.367 . S
C2358 C2366 1.378 . S
C2359 C2358 1.367 . S
C2359 C2367 1.433 . S
C2360 H2356 0.929 . S
C2360 C2362 1.378 . S
C2360 C2364 1.350 . S
C2361 C2364 1.463 . S
C2361 C2366 1.350 . S
C2361 N2369 1.427 . S
C2362 H2353 0.930 . S
C2362 C2360 1.378 . S
C2362 C2363 1.367 . S
C2363 C2362 1.367 . S
C2363 C2365 1.433 . S
C2364 C2360 1.350 . S
C2364 C2361 1.463 . S
C2364 N2368 1.427 . S
C2365 H2355 0.929 . S
C2365 C2363 1.433 . S
C2365 N2368 1.384 . S
C2366 H2357 0.929 . S
C2366 C2358 1.378 . S
C2366 C2361 1.350 . S
C2367 H2354 0.929 . S
C2367 C2359 1.433 . S
C2367 N2369 1.384 . S
N2368 C2364 1.427 . S
N2368 C2365 1.384 . S
N2369 C2361 1.427 . S
N2369 C2367 1.384 . S
H2370 C2376 0.930 . S
H2371 C2380 0.938 . S
H2372 C2385 0.929 . S
H2373 C2383 0.929 . S
H2374 C2378 0.929 . S
H2375 C2384 0.929 . S
C2376 H2370 0.930 . S
C2376 C2377 1.367 . S
C2376 C2384 1.378 . S
C2377 C2376 1.367 . S
C2377 C2385 1.433 . S
C2378 H2374 0.929 . S
C2378 C2380 1.378 . S
C2378 C2382 1.350 . S
C2379 C2382 1.463 . S
C2379 C2384 1.350 . S
C2379 N2387 1.427 . S
C2380 H2371 0.938 . S
C2380 C2378 1.378 . S
C2380 C2381 1.367 1_556 S
C2381 C2380 1.367 1_554 S
C2381 C2383 1.433 . S
C2382 C2378 1.350 . S
C2382 C2379 1.463 . S
C2382 N2386 1.427 . S
C2383 H2373 0.929 . S
C2383 C2381 1.433 . S
C2383 N2386 1.384 1_554 S
C2384 H2375 0.929 . S
C2384 C2376 1.378 . S
C2384 C2379 1.350 . S
C2385 H2372 0.929 . S
C2385 C2377 1.433 . S
C2385 N2387 1.384 . S
N2386 C2382 1.427 . S
N2386 C2383 1.384 1_556 S
N2387 C2379 1.427 . S
N2387 C2385 1.384 . S
H2388 C2394 0.930 . S
H2389 C2398 0.930 . S
H2390 C2403 0.929 . S
H2391 C2401 0.929 . S
H2392 C2396 0.929 . S
H2393 C2402 0.929 . S
C2394 H2388 0.930 . S
C2394 C2395 1.367 . S
C2394 C2402 1.378 . S
C2395 C2394 1.367 . S
C2395 C2403 1.433 . S
C2396 H2392 0.929 . S
C2396 C2398 1.378 . S
C2396 C2400 1.350 . S
C2397 C2400 1.463 . S
C2397 C2402 1.350 . S
C2397 N2405 1.427 . S
C2398 H2389 0.930 . S
C2398 C2396 1.378 . S
C2398 C2399 1.367 . S
C2399 C2398 1.367 . S
C2399 C2401 1.433 . S
C2400 C2396 1.350 . S
C2400 C2397 1.463 . S
C2400 N2404 1.427 . S
C2401 H2391 0.929 . S
C2401 C2399 1.433 . S
C2401 N2404 1.384 . S
C2402 H2393 0.929 . S
C2402 C2394 1.378 . S
C2402 C2397 1.350 . S
C2403 H2390 0.929 . S
C2403 C2395 1.433 . S
C2403 N2405 1.384 . S
N2404 C2400 1.427 . S
N2404 C2401 1.384 . S
N2405 C2397 1.427 . S
N2405 C2403 1.384 . S
H2406 C2412 0.930 . S
H2407 C2416 0.930 . S
H2408 C2421 0.929 . S
H2409 C2419 0.929 . S
H2410 C2414 0.929 . S
H2411 C2420 0.929 . S
C2412 H2406 0.930 . S
C2412 C2413 1.367 . S
C2412 C2420 1.378 . S
C2413 C2412 1.367 . S
C2413 C2421 1.433 . S
C2414 H2410 0.929 . S
C2414 C2416 1.378 . S
C2414 C2418 1.350 . S
C2415 C2418 1.463 . S
C2415 C2420 1.350 . S
C2415 N2423 1.427 . S
C2416 H2407 0.930 . S
C2416 C2414 1.378 . S
C2416 C2417 1.367 . S
C2417 C2416 1.367 . S
C2417 C2419 1.433 . S
C2418 C2414 1.350 . S
C2418 C2415 1.463 . S
C2418 N2422 1.427 . S
C2419 H2409 0.929 . S
C2419 C2417 1.433 . S
C2419 N2422 1.384 . S
C2420 H2411 0.929 . S
C2420 C2412 1.378 . S
C2420 C2415 1.350 . S
C2421 H2408 0.929 . S
C2421 C2413 1.433 . S
C2421 N2423 1.384 . S
N2422 C2418 1.427 . S
N2422 C2419 1.384 . S
N2423 C2415 1.427 . S
N2423 C2421 1.384 . S
H2424 C2430 0.930 . S
H2425 C2434 0.930 . S
H2426 C2439 0.929 . S
H2427 C2437 0.929 . S
H2428 C2432 0.929 . S
H2429 C2438 0.929 . S
C2430 H2424 0.930 . S
C2430 C2431 1.367 . S
C2430 C2438 1.378 . S
C2431 C2430 1.367 . S
C2431 C2439 1.433 . S
C2432 H2428 0.929 . S
C2432 C2434 1.378 . S
C2432 C2436 1.350 . S
C2433 C2436 1.463 . S
C2433 C2438 1.350 . S
C2433 N2441 1.427 . S
C2434 H2425 0.930 . S
C2434 C2432 1.378 . S
C2434 C2435 1.367 . S
C2435 C2434 1.367 . S
C2435 C2437 1.433 . S
C2436 C2432 1.350 . S
C2436 C2433 1.463 . S
C2436 N2440 1.427 . S
C2437 H2427 0.929 . S
C2437 C2435 1.433 . S
C2437 N2440 1.384 . S
C2438 H2429 0.929 . S
C2438 C2430 1.378 . S
C2438 C2433 1.350 . S
C2439 H2426 0.929 . S
C2439 C2431 1.433 . S
C2439 N2441 1.384 . S
N2440 C2436 1.427 . S
N2440 C2437 1.384 . S
N2441 C2433 1.427 . S
N2441 C2439 1.384 . S
H2442 C2448 0.930 . S
H2443 C2452 0.930 . S
H2444 C2457 0.929 . S
H2445 C2455 0.929 . S
H2446 C2450 0.929 . S
H2447 C2456 0.929 . S
C2448 H2442 0.930 . S
C2448 C2449 1.367 . S
C2448 C2456 1.378 . S
C2449 C2448 1.367 . S
C2449 C2457 1.433 . S
C2450 H2446 0.929 . S
C2450 C2452 1.378 . S
C2450 C2454 1.350 . S
C2451 C2454 1.463 . S
C2451 C2456 1.350 . S
C2451 N2459 1.427 . S
C2452 H2443 0.930 . S
C2452 C2450 1.378 . S
C2452 C2453 1.367 1_554 S
C2453 C2452 1.367 1_556 S
C2453 C2455 1.433 . S
C2454 C2450 1.350 . S
C2454 C2451 1.463 . S
C2454 N2458 1.421 . S
C2455 H2445 0.929 . S
C2455 C2453 1.433 . S
C2455 N2458 1.389 1_556 S
C2456 H2447 0.929 . S
C2456 C2448 1.378 . S
C2456 C2451 1.350 . S
C2457 H2444 0.929 . S
C2457 C2449 1.433 . S
C2457 N2459 1.384 . S
N2458 C2454 1.421 . S
N2458 C2455 1.389 1_554 S
N2459 C2451 1.427 . S
N2459 C2457 1.384 . S
H2460 C2466 0.930 . S
H2461 C2470 0.930 . S
H2462 C2475 0.929 . S
H2463 C2473 0.929 . S
H2464 C2468 0.929 . S
H2465 C2474 0.929 . S
C2466 H2460 0.930 . S
C2466 C2467 1.367 . S
C2466 C2474 1.378 . S
C2467 C2466 1.367 . S
C2467 C2475 1.433 . S
C2468 H2464 0.929 . S
C2468 C2470 1.378 . S
C2468 C2472 1.350 . S
C2469 C2472 1.463 . S
C2469 C2474 1.350 . S
C2469 N2477 1.427 . S
C2470 H2461 0.930 . S
C2470 C2468 1.378 . S
C2470 C2471 1.367 . S
C2471 C2470 1.367 . S
C2471 C2473 1.433 . S
C2472 C2468 1.350 . S
C2472 C2469 1.463 . S
C2472 N2476 1.427 . S
C2473 H2463 0.929 . S
C2473 C2471 1.433 . S
C2473 N2476 1.384 . S
C2474 H2465 0.929 . S
C2474 C2466 1.378 . S
C2474 C2469 1.350 . S
C2475 H2462 0.929 . S
C2475 C2467 1.433 . S
C2475 N2477 1.384 . S
N2476 C2472 1.427 . S
N2476 C2473 1.384 . S
N2477 C2469 1.427 . S
N2477 C2475 1.384 . S
H2478 C2484 0.930 . S
H2479 C2488 0.930 . S
H2480 C2493 0.929 . S
H2481 C2491 0.929 . S
H2482 C2486 0.929 . S
H2483 C2492 0.929 . S
C2484 H2478 0.930 . S
C2484 C2485 1.367 . S
C2484 C2492 1.378 . S
C2485 C2484 1.367 . S
C2485 C2493 1.433 . S
C2486 H2482 0.929 . S
C2486 C2488 1.378 . S
C2486 C2490 1.350 . S
C2487 C2490 1.463 . S
C2487 C2492 1.350 . S
C2487 N2495 1.427 . S
C2488 H2479 0.930 . S
C2488 C2486 1.378 . S
C2488 C2489 1.367 . S
C2489 C2488 1.367 . S
C2489 C2491 1.433 . S
C2490 C2486 1.350 . S
C2490 C2487 1.463 . S
C2490 N2494 1.427 . S
C2491 H2481 0.929 . S
C2491 C2489 1.433 . S
C2491 N2494 1.384 . S
C2492 H2483 0.929 . S
C2492 C2484 1.378 . S
C2492 C2487 1.350 . S
C2493 H2480 0.929 . S
C2493 C2485 1.433 . S
C2493 N2495 1.384 . S
N2494 C2490 1.427 . S
N2494 C2491 1.384 . S
N2495 C2487 1.427 . S
N2495 C2493 1.384 . S
H2496 C2502 0.930 . S
H2497 C2506 0.930 . S
H2498 C2511 0.929 . S
H2499 C2509 0.929 . S
H2500 C2504 0.929 . S
H2501 C2510 0.929 . S
C2502 H2496 0.930 . S
C2502 C2503 1.367 . S
C2502 C2510 1.378 . S
C2503 C2502 1.367 . S
C2503 C2511 1.433 . S
C2504 H2500 0.929 . S
C2504 C2506 1.378 . S
C2504 C2508 1.350 . S
C2505 C2508 1.463 . S
C2505 C2510 1.350 . S
C2505 N2513 1.427 . S
C2506 H2497 0.930 . S
C2506 C2504 1.378 . S
C2506 C2507 1.367 . S
C2507 C2506 1.367 . S
C2507 C2509 1.433 . S
C2508 C2504 1.350 . S
C2508 C2505 1.463 . S
C2508 N2512 1.427 . S
C2509 H2499 0.929 . S
C2509 C2507 1.433 . S
C2509 N2512 1.384 . S
C2510 H2501 0.929 . S
C2510 C2502 1.378 . S
C2510 C2505 1.350 . S
C2511 H2498 0.929 . S
C2511 C2503 1.433 . S
C2511 N2513 1.384 . S
N2512 C2508 1.427 . S
N2512 C2509 1.384 . S
N2513 C2505 1.427 . S
N2513 C2511 1.384 . S
H2514 C2520 0.930 . S
H2515 C2524 0.930 . S
H2516 C2529 0.929 . S
H2517 C2527 0.929 . S
H2518 C2522 0.929 . S
H2519 C2528 0.929 . S
C2520 H2514 0.930 . S
C2520 C2521 1.367 . S
C2520 C2528 1.378 . S
C2521 C2520 1.367 . S
C2521 C2529 1.433 . S
C2522 H2518 0.929 . S
C2522 C2524 1.378 . S
C2522 C2526 1.350 . S
C2523 C2526 1.463 . S
C2523 C2528 1.350 . S
C2523 N2531 1.427 . S
C2524 H2515 0.930 . S
C2524 C2522 1.378 . S
C2524 C2525 1.367 . S
C2525 C2524 1.367 . S
C2525 C2527 1.433 . S
C2526 C2522 1.350 . S
C2526 C2523 1.463 . S
C2526 N2530 1.427 . S
C2527 H2517 0.929 . S
C2527 C2525 1.433 . S
C2527 N2530 1.384 . S
C2528 H2519 0.929 . S
C2528 C2520 1.378 . S
C2528 C2523 1.350 . S
C2529 H2516 0.929 . S
C2529 C2521 1.433 . S
C2529 N2531 1.384 . S
N2530 C2526 1.427 . S
N2530 C2527 1.384 . S
N2531 C2523 1.427 . S
N2531 C2529 1.384 . S
H2532 C2538 0.930 . S
H2533 C2542 0.930 . S
H2534 C2547 0.929 . S
H2535 C2545 0.929 . S
H2536 C2540 0.929 . S
H2537 C2546 0.929 . S
C2538 H2532 0.930 . S
C2538 C2539 1.367 . S
C2538 C2546 1.378 . S
C2539 C2538 1.367 . S
C2539 C2547 1.433 . S
C2540 H2536 0.929 . S
C2540 C2542 1.378 1_565 S
C2540 C2544 1.350 . S
C2541 C2544 1.463 . S
C2541 C2546 1.350 . S
C2541 N2549 1.427 . S
C2542 H2533 0.930 . S
C2542 C2540 1.378 1_545 S
C2542 C2543 1.367 . S
C2543 C2542 1.367 . S
C2543 C2545 1.433 1_545 S
C2544 C2540 1.350 . S
C2544 C2541 1.463 . S
C2544 N2548 1.427 . S
C2545 H2535 0.929 . S
C2545 C2543 1.433 1_565 S
C2545 N2548 1.384 . S
C2546 H2537 0.929 . S
C2546 C2538 1.378 . S
C2546 C2541 1.350 . S
C2547 H2534 0.929 . S
C2547 C2539 1.433 . S
C2547 N2549 1.384 . S
N2548 C2544 1.427 . S
N2548 C2545 1.384 . S
N2549 C2541 1.427 . S
N2549 C2547 1.384 . S
H2550 C2556 0.930 . S
H2551 C2560 0.930 . S
H2552 C2565 0.929 . S
H2553 C2563 0.929 . S
H2554 C2558 0.929 . S
H2555 C2564 0.929 . S
C2556 H2550 0.930 . S
C2556 C2557 1.367 . S
C2556 C2564 1.378 . S
C2557 C2556 1.367 . S
C2557 C2565 1.433 . S
C2558 H2554 0.929 . S
C2558 C2560 1.378 . S
C2558 C2562 1.350 . S
C2559 C2562 1.463 . S
C2559 C2564 1.350 . S
C2559 N2567 1.427 . S
C2560 H2551 0.930 . S
C2560 C2558 1.378 . S
C2560 C2561 1.367 . S
C2561 C2560 1.367 . S
C2561 C2563 1.433 . S
C2562 C2558 1.350 . S
C2562 C2559 1.463 . S
C2562 N2566 1.427 . S
C2563 H2553 0.929 . S
C2563 C2561 1.433 . S
C2563 N2566 1.384 . S
C2564 H2555 0.929 . S
C2564 C2556 1.378 . S
C2564 C2559 1.350 . S
C2565 H2552 0.929 . S
C2565 C2557 1.433 . S
C2565 N2567 1.384 . S
N2566 C2562 1.427 . S
N2566 C2563 1.384 . S
N2567 C2559 1.427 . S
N2567 C2565 1.384 . S
H2568 C2574 0.930 . S
H2569 C2578 0.930 . S
H2570 C2583 0.929 . S
H2571 C2581 0.929 . S
H2572 C2576 0.929 . S
H2573 C2582 0.929 . S
C2574 H2568 0.930 . S
C2574 C2575 1.367 . S
C2574 C2582 1.378 . S
C2575 C2574 1.367 . S
C2575 C2583 1.433 . S
C2576 H2572 0.929 . S
C2576 C2578 1.378 . S
C2576 C2580 1.350 . S
C2577 C2580 1.463 . S
C2577 C2582 1.350 . S
C2577 N2585 1.427 . S
C2578 H2569 0.930 . S
C2578 C2576 1.378 . S
C2578 C2579 1.367 . S
C2579 C2578 1.367 . S
C2579 C2581 1.433 . S
C2580 C2576 1.350 . S
C2580 C2577 1.463 . S
C2580 N2584 1.427 . S
C2581 H2571 0.929 . S
C2581 C2579 1.433 . S
C2581 N2584 1.384 . S
C2582 H2573 0.929 . S
C2582 C2574 1.378 . S
C2582 C2577 1.350 . S
C2583 H2570 0.929 . S
C2583 C2575 1.433 . S
C2583 N2585 1.384 . S
N2584 C2580 1.427 . S
N2584 C2581 1.384 . S
N2585 C2577 1.427 . S
N2585 C2583 1.384 . S
H2586 C2592 0.930 . S
H2587 C2596 0.930 . S
H2588 C2601 0.929 . S
H2589 C2599 0.929 . S
H2590 C2594 0.929 . S
H2591 C2600 0.929 . S
C2592 H2586 0.930 . S
C2592 C2593 1.367 . S
C2592 C2600 1.378 . S
C2593 C2592 1.367 . S
C2593 C2601 1.433 . S
C2594 H2590 0.929 . S
C2594 C2596 1.378 . S
C2594 C2598 1.350 . S
C2595 C2598 1.463 . S
C2595 C2600 1.350 . S
C2595 N2603 1.427 . S
C2596 H2587 0.930 . S
C2596 C2594 1.378 . S
C2596 C2597 1.367 . S
C2597 C2596 1.367 . S
C2597 C2599 1.433 . S
C2598 C2594 1.350 . S
C2598 C2595 1.463 . S
C2598 N2602 1.427 . S
C2599 H2589 0.929 . S
C2599 C2597 1.433 . S
C2599 N2602 1.384 . S
C2600 H2591 0.929 . S
C2600 C2592 1.378 . S
C2600 C2595 1.350 . S
C2601 H2588 0.929 . S
C2601 C2593 1.433 . S
C2601 N2603 1.384 . S
N2602 C2598 1.427 . S
N2602 C2599 1.384 . S
N2603 C2595 1.427 . S
N2603 C2601 1.384 . S
H2604 C2610 0.930 . S
H2605 C2614 0.930 . S
H2606 C2619 0.929 . S
H2607 C2617 0.929 . S
H2608 C2612 0.929 . S
H2609 C2618 0.929 . S
C2610 H2604 0.930 . S
C2610 C2611 1.367 1_545 S
C2610 C2618 1.378 . S
C2611 C2610 1.367 1_565 S
C2611 C2619 1.433 . S
C2612 H2608 0.929 . S
C2612 C2614 1.378 . S
C2612 C2616 1.350 . S
C2613 C2616 1.463 . S
C2613 C2618 1.350 . S
C2613 N2621 1.427 . S
C2614 H2605 0.930 . S
C2614 C2612 1.378 . S
C2614 C2615 1.367 . S
C2615 C2614 1.367 . S
C2615 C2617 1.433 . S
C2616 C2612 1.350 . S
C2616 C2613 1.463 . S
C2616 N2620 1.427 . S
C2617 H2607 0.929 . S
C2617 C2615 1.433 . S
C2617 N2620 1.384 . S
C2618 H2609 0.929 . S
C2618 C2610 1.378 . S
C2618 C2613 1.350 . S
C2619 H2606 0.929 . S
C2619 C2611 1.433 . S
C2619 N2621 1.384 1_565 S
N2620 C2616 1.427 . S
N2620 C2617 1.384 . S
N2621 C2613 1.427 . S
N2621 C2619 1.384 1_545 S
H2622 C2628 0.930 . S
H2623 C2632 0.930 . S
H2624 C2637 0.929 . S
H2625 C2635 0.929 . S
H2626 C2630 0.929 . S
H2627 C2636 0.929 . S
C2628 H2622 0.930 . S
C2628 C2629 1.367 . S
C2628 C2636 1.378 1_545 S
C2629 C2628 1.367 . S
C2629 C2637 1.433 1_545 S
C2630 H2626 0.929 . S
C2630 C2632 1.378 . S
C2630 C2634 1.350 . S
C2631 C2634 1.463 . S
C2631 C2636 1.350 . S
C2631 N2639 1.427 . S
C2632 H2623 0.930 . S
C2632 C2630 1.378 . S
C2632 C2633 1.367 . S
C2633 C2632 1.367 . S
C2633 C2635 1.433 . S
C2634 C2630 1.350 . S
C2634 C2631 1.463 . S
C2634 N2638 1.427 . S
C2635 H2625 0.929 . S
C2635 C2633 1.433 . S
C2635 N2638 1.384 . S
C2636 H2627 0.929 . S
C2636 C2628 1.378 1_565 S
C2636 C2631 1.350 . S
C2637 H2624 0.929 . S
C2637 C2629 1.433 1_565 S
C2637 N2639 1.384 . S
N2638 C2634 1.427 . S
N2638 C2635 1.384 . S
N2639 C2631 1.427 . S
N2639 C2637 1.384 . S
H2640 C2646 0.930 . S
H2641 C2650 0.930 . S
H2642 C2655 0.929 . S
H2643 C2653 0.929 . S
H2644 C2648 0.929 . S
H2645 C2654 0.929 . S
C2646 H2640 0.930 . S
C2646 C2647 1.367 . S
C2646 C2654 1.378 . S
C2647 C2646 1.367 . S
C2647 C2655 1.433 . S
C2648 H2644 0.929 . S
C2648 C2650 1.378 . S
C2648 C2652 1.350 . S
C2649 C2652 1.463 . S
C2649 C2654 1.350 . S
C2649 N2657 1.427 . S
C2650 H2641 0.930 . S
C2650 C2648 1.378 . S
C2650 C2651 1.367 . S
C2651 C2650 1.367 . S
C2651 C2653 1.433 . S
C2652 C2648 1.350 . S
C2652 C2649 1.463 . S
C2652 N2656 1.427 . S
C2653 H2643 0.929 . S
C2653 C2651 1.433 . S
C2653 N2656 1.384 . S
C2654 H2645 0.929 . S
C2654 C2646 1.378 . S
C2654 C2649 1.350 . S
C2655 H2642 0.929 . S
C2655 C2647 1.433 . S
C2655 N2657 1.384 . S
N2656 C2652 1.427 . S
N2656 C2653 1.384 . S
N2657 C2649 1.427 . S
N2657 C2655 1.384 . S
H2658 C2664 0.930 . S
H2659 C2668 0.930 . S
H2660 C2673 0.929 . S
H2661 C2671 0.929 . S
H2662 C2666 0.929 . S
H2663 C2672 0.929 . S
C2664 H2658 0.930 . S
C2664 C2665 1.367 . S
C2664 C2672 1.378 . S
C2665 C2664 1.367 . S
C2665 C2673 1.433 . S
C2666 H2662 0.929 . S
C2666 C2668 1.378 . S
C2666 C2670 1.350 . S
C2667 C2670 1.463 . S
C2667 C2672 1.350 . S
C2667 N2675 1.427 . S
C2668 H2659 0.930 . S
C2668 C2666 1.378 . S
C2668 C2669 1.367 . S
C2669 C2668 1.367 . S
C2669 C2671 1.433 . S
C2670 C2666 1.350 . S
C2670 C2667 1.463 . S
C2670 N2674 1.427 . S
C2671 H2661 0.929 . S
C2671 C2669 1.433 . S
C2671 N2674 1.384 . S
C2672 H2663 0.929 . S
C2672 C2664 1.378 . S
C2672 C2667 1.350 . S
C2673 H2660 0.929 . S
C2673 C2665 1.433 . S
C2673 N2675 1.384 . S
N2674 C2670 1.427 . S
N2674 C2671 1.384 . S
N2675 C2667 1.427 . S
N2675 C2673 1.384 . S
H2676 C2682 0.930 . S
H2677 C2686 0.930 . S
H2678 C2691 0.929 . S
H2679 C2689 0.929 . S
H2680 C2684 0.929 . S
H2681 C2690 0.929 . S
C2682 H2676 0.930 . S
C2682 C2683 1.367 . S
C2682 C2690 1.378 . S
C2683 C2682 1.367 . S
C2683 C2691 1.433 . S
C2684 H2680 0.929 . S
C2684 C2686 1.378 . S
C2684 C2688 1.350 . S
C2685 C2688 1.463 . S
C2685 C2690 1.350 . S
C2685 N2693 1.427 . S
C2686 H2677 0.930 . S
C2686 C2684 1.378 . S
C2686 C2687 1.367 . S
C2687 C2686 1.367 . S
C2687 C2689 1.433 . S
C2688 C2684 1.350 . S
C2688 C2685 1.463 . S
C2688 N2692 1.427 . S
C2689 H2679 0.929 . S
C2689 C2687 1.433 . S
C2689 N2692 1.384 . S
C2690 H2681 0.929 . S
C2690 C2682 1.378 . S
C2690 C2685 1.350 . S
C2691 H2678 0.929 . S
C2691 C2683 1.433 . S
C2691 N2693 1.384 . S
N2692 C2688 1.427 . S
N2692 C2689 1.384 . S
N2693 C2685 1.427 . S
N2693 C2691 1.384 . S
H2694 C2700 0.930 . S
H2695 C2704 0.930 . S
H2696 C2709 0.929 . S
H2697 C2707 0.929 . S
H2698 C2702 0.929 . S
H2699 C2708 0.929 . S
C2700 H2694 0.930 . S
C2700 C2701 1.367 . S
C2700 C2708 1.378 . S
C2701 C2700 1.367 . S
C2701 C2709 1.433 . S
C2702 H2698 0.929 . S
C2702 C2704 1.378 . S
C2702 C2706 1.350 . S
C2703 C2706 1.463 . S
C2703 C2708 1.350 . S
C2703 N2711 1.427 . S
C2704 H2695 0.930 . S
C2704 C2702 1.378 . S
C2704 C2705 1.367 1_455 S
C2705 C2704 1.367 1_655 S
C2705 C2707 1.433 . S
C2706 C2702 1.350 . S
C2706 C2703 1.463 . S
C2706 N2710 1.402 1_455 S
C2707 H2697 0.929 . S
C2707 C2705 1.433 . S
C2707 N2710 1.404 . S
C2708 H2699 0.929 . S
C2708 C2700 1.378 . S
C2708 C2703 1.350 . S
C2709 H2696 0.929 . S
C2709 C2701 1.433 . S
C2709 N2711 1.384 . S
N2710 C2706 1.402 1_655 S
N2710 C2707 1.404 . S
N2711 C2703 1.427 . S
N2711 C2709 1.384 . S
H2712 C2718 0.930 . S
H2713 C2722 0.930 . S
H2714 C2727 0.929 . S
H2715 C2725 0.929 . S
H2716 C2720 0.929 . S
H2717 C2726 0.929 . S
C2718 H2712 0.930 . S
C2718 C2719 1.367 . S
C2718 C2726 1.378 . S
C2719 C2718 1.367 . S
C2719 C2727 1.433 . S
C2720 H2716 0.929 . S
C2720 C2722 1.378 . S
C2720 C2724 1.350 . S
C2721 C2724 1.463 . S
C2721 C2726 1.350 . S
C2721 N2729 1.427 . S
C2722 H2713 0.930 . S
C2722 C2720 1.378 . S
C2722 C2723 1.367 . S
C2723 C2722 1.367 . S
C2723 C2725 1.433 . S
C2724 C2720 1.350 . S
C2724 C2721 1.463 . S
C2724 N2728 1.427 . S
C2725 H2715 0.929 . S
C2725 C2723 1.433 . S
C2725 N2728 1.384 . S
C2726 H2717 0.929 . S
C2726 C2718 1.378 . S
C2726 C2721 1.350 . S
C2727 H2714 0.929 . S
C2727 C2719 1.433 . S
C2727 N2729 1.384 . S
N2728 C2724 1.427 . S
N2728 C2725 1.384 . S
N2729 C2721 1.427 . S
N2729 C2727 1.384 . S
H2730 C2736 0.930 . S
H2731 C2740 0.930 . S
H2732 C2745 0.929 . S
H2733 C2743 0.929 . S
H2734 C2738 0.929 . S
H2735 C2744 0.929 . S
C2736 H2730 0.930 . S
C2736 C2737 1.367 1_455 S
C2736 C2744 1.378 . S
C2737 C2736 1.367 1_655 S
C2737 C2745 1.433 . S
C2738 H2734 0.929 . S
C2738 C2740 1.378 . S
C2738 C2742 1.350 . S
C2739 C2742 1.463 . S
C2739 C2744 1.350 . S
C2739 N2747 1.427 . S
C2740 H2731 0.930 . S
C2740 C2738 1.378 . S
C2740 C2741 1.367 . S
C2741 C2740 1.367 . S
C2741 C2743 1.433 . S
C2742 C2738 1.350 . S
C2742 C2739 1.463 . S
C2742 N2746 1.427 . S
C2743 H2733 0.929 . S
C2743 C2741 1.433 . S
C2743 N2746 1.384 . S
C2744 H2735 0.929 . S
C2744 C2736 1.378 . S
C2744 C2739 1.350 . S
C2745 H2732 0.929 . S
C2745 C2737 1.433 . S
C2745 N2747 1.384 1_655 S
N2746 C2742 1.427 . S
N2746 C2743 1.384 . S
N2747 C2739 1.427 . S
N2747 C2745 1.384 1_455 S
H2748 C2754 0.930 . S
H2749 C2758 0.930 . S
H2750 C2763 0.929 . S
H2751 C2761 0.929 . S
H2752 C2756 0.929 . S
H2753 C2762 0.929 . S
C2754 H2748 0.930 . S
C2754 C2755 1.367 . S
C2754 C2762 1.378 . S
C2755 C2754 1.367 . S
C2755 C2763 1.433 . S
C2756 H2752 0.929 . S
C2756 C2758 1.378 . S
C2756 C2760 1.350 . S
C2757 C2760 1.463 . S
C2757 C2762 1.350 . S
C2757 N2765 1.427 . S
C2758 H2749 0.930 . S
C2758 C2756 1.378 . S
C2758 C2759 1.367 . S
C2759 C2758 1.367 . S
C2759 C2761 1.433 . S
C2760 C2756 1.350 . S
C2760 C2757 1.463 . S
C2760 N2764 1.427 . S
C2761 H2751 0.929 . S
C2761 C2759 1.433 . S
C2761 N2764 1.384 . S
C2762 H2753 0.929 . S
C2762 C2754 1.378 . S
C2762 C2757 1.350 . S
C2763 H2750 0.929 . S
C2763 C2755 1.433 . S
C2763 N2765 1.384 . S
N2764 C2760 1.427 . S
N2764 C2761 1.384 . S
N2765 C2757 1.427 . S
N2765 C2763 1.384 . S
H2766 C2772 0.930 . S
H2767 C2776 0.930 . S
H2768 C2781 0.929 . S
H2769 C2779 0.929 . S
H2770 C2774 0.929 . S
H2771 C2780 0.929 . S
C2772 H2766 0.930 . S
C2772 C2773 1.367 . S
C2772 C2780 1.378 . S
C2773 C2772 1.367 . S
C2773 C2781 1.433 . S
C2774 H2770 0.929 . S
C2774 C2776 1.378 . S
C2774 C2778 1.350 . S
C2775 C2778 1.463 . S
C2775 C2780 1.350 . S
C2775 N2783 1.427 . S
C2776 H2767 0.930 . S
C2776 C2774 1.378 . S
C2776 C2777 1.367 . S
C2777 C2776 1.367 . S
C2777 C2779 1.433 . S
C2778 C2774 1.350 . S
C2778 C2775 1.463 . S
C2778 N2782 1.427 . S
C2779 H2769 0.929 . S
C2779 C2777 1.433 . S
C2779 N2782 1.384 . S
C2780 H2771 0.929 . S
C2780 C2772 1.378 . S
C2780 C2775 1.350 . S
C2781 H2768 0.929 . S
C2781 C2773 1.433 . S
C2781 N2783 1.384 . S
N2782 C2778 1.427 . S
N2782 C2779 1.384 . S
N2783 C2775 1.427 . S
N2783 C2781 1.384 . S
H2784 C2790 0.930 . S
H2785 C2794 0.930 . S
H2786 C2799 0.929 . S
H2787 C2797 0.929 . S
H2788 C2792 0.929 . S
H2789 C2798 0.929 . S
C2790 H2784 0.930 . S
C2790 C2791 1.367 . S
C2790 C2798 1.378 . S
C2791 C2790 1.367 . S
C2791 C2799 1.433 . S
C2792 H2788 0.929 . S
C2792 C2794 1.378 . S
C2792 C2796 1.350 . S
C2793 C2796 1.463 . S
C2793 C2798 1.350 . S
C2793 N2801 1.427 . S
C2794 H2785 0.930 . S
C2794 C2792 1.378 . S
C2794 C2795 1.367 . S
C2795 C2794 1.367 . S
C2795 C2797 1.433 . S
C2796 C2792 1.350 . S
C2796 C2793 1.463 . S
C2796 N2800 1.427 . S
C2797 H2787 0.929 . S
C2797 C2795 1.433 . S
C2797 N2800 1.384 . S
C2798 H2789 0.929 . S
C2798 C2790 1.378 . S
C2798 C2793 1.350 . S
C2799 H2786 0.929 . S
C2799 C2791 1.433 . S
C2799 N2801 1.384 . S
N2800 C2796 1.427 . S
N2800 C2797 1.384 . S
N2801 C2793 1.427 . S
N2801 C2799 1.384 . S
H2802 C2808 0.930 . S
H2803 C2812 0.930 . S
H2804 C2817 0.929 . S
H2805 C2815 0.929 . S
H2806 C2810 0.929 . S
H2807 C2816 0.926 1_556 S
C2808 H2802 0.930 . S
C2808 C2809 1.367 . S
C2808 C2816 1.368 1_556 S
C2809 C2808 1.367 . S
C2809 C2817 1.433 1_556 S
C2810 H2806 0.929 . S
C2810 C2812 1.378 . S
C2810 C2814 1.350 . S
C2811 C2814 1.463 . S
C2811 C2816 1.362 . S
C2811 N2819 1.427 . S
C2812 H2803 0.930 . S
C2812 C2810 1.378 . S
C2812 C2813 1.367 . S
C2813 C2812 1.367 . S
C2813 C2815 1.433 . S
C2814 C2810 1.350 . S
C2814 C2811 1.463 . S
C2814 N2818 1.427 . S
C2815 H2805 0.929 . S
C2815 C2813 1.433 . S
C2815 N2818 1.384 . S
C2816 H2807 0.926 1_554 S
C2816 C2808 1.368 1_554 S
C2816 C2811 1.362 . S
C2817 H2804 0.929 . S
C2817 C2809 1.433 1_554 S
C2817 N2819 1.384 . S
N2818 C2814 1.427 . S
N2818 C2815 1.384 . S
N2819 C2811 1.427 . S
N2819 C2817 1.384 . S
H2820 C2826 0.930 . S
H2821 C2830 0.930 . S
H2822 C2835 0.929 . S
H2823 C2833 0.929 . S
H2824 C2828 0.929 . S
H2825 C2834 0.929 . S
C2826 H2820 0.930 . S
C2826 C2827 1.367 . S
C2826 C2834 1.378 . S
C2827 C2826 1.367 . S
C2827 C2835 1.433 . S
C2828 H2824 0.929 . S
C2828 C2830 1.378 . S
C2828 C2832 1.350 . S
C2829 C2832 1.463 . S
C2829 C2834 1.350 . S
C2829 N2837 1.427 . S
C2830 H2821 0.930 . S
C2830 C2828 1.378 . S
C2830 C2831 1.367 . S
C2831 C2830 1.367 . S
C2831 C2833 1.433 . S
C2832 C2828 1.350 . S
C2832 C2829 1.463 . S
C2832 N2836 1.427 . S
C2833 H2823 0.929 . S
C2833 C2831 1.433 . S
C2833 N2836 1.384 . S
C2834 H2825 0.929 . S
C2834 C2826 1.378 . S
C2834 C2829 1.350 . S
C2835 H2822 0.929 . S
C2835 C2827 1.433 . S
C2835 N2837 1.384 . S
N2836 C2832 1.427 . S
N2836 C2833 1.384 . S
N2837 C2829 1.427 . S
N2837 C2835 1.384 . S
H2838 C2844 0.930 . S
H2839 C2848 0.930 . S
H2840 C2853 0.929 . S
H2841 C2851 0.929 . S
H2842 C2846 0.929 . S
H2843 C2852 0.929 . S
C2844 H2838 0.930 . S
C2844 C2845 1.367 . S
C2844 C2852 1.378 . S
C2845 C2844 1.367 . S
C2845 C2853 1.433 . S
C2846 H2842 0.929 . S
C2846 C2848 1.378 . S
C2846 C2850 1.350 . S
C2847 C2850 1.463 . S
C2847 C2852 1.350 . S
C2847 N2855 1.427 . S
C2848 H2839 0.930 . S
C2848 C2846 1.378 . S
C2848 C2849 1.367 . S
C2849 C2848 1.367 . S
C2849 C2851 1.433 . S
C2850 C2846 1.350 . S
C2850 C2847 1.463 . S
C2850 N2854 1.427 . S
C2851 H2841 0.929 . S
C2851 C2849 1.433 . S
C2851 N2854 1.384 . S
C2852 H2843 0.929 . S
C2852 C2844 1.378 . S
C2852 C2847 1.350 . S
C2853 H2840 0.929 . S
C2853 C2845 1.433 . S
C2853 N2855 1.384 . S
N2854 C2850 1.427 . S
N2854 C2851 1.384 . S
N2855 C2847 1.427 . S
N2855 C2853 1.384 . S
H2856 C2862 0.930 . S
H2857 C2866 0.930 . S
H2858 C2871 0.929 . S
H2859 C2869 0.929 . S
H2860 C2864 0.929 . S
H2861 C2870 0.929 . S
C2862 H2856 0.930 . S
C2862 C2863 1.367 . S
C2862 C2870 1.378 . S
C2863 C2862 1.367 . S
C2863 C2871 1.433 . S
C2864 H2860 0.929 . S
C2864 C2866 1.378 . S
C2864 C2868 1.350 . S
C2865 C2868 1.463 . S
C2865 C2870 1.350 . S
C2865 N2873 1.427 . S
C2866 H2857 0.930 . S
C2866 C2864 1.378 . S
C2866 C2867 1.367 . S
C2867 C2866 1.367 . S
C2867 C2869 1.433 . S
C2868 C2864 1.350 . S
C2868 C2865 1.463 . S
C2868 N2872 1.427 . S
C2869 H2859 0.929 . S
C2869 C2867 1.433 . S
C2869 N2872 1.384 . S
C2870 H2861 0.929 . S
C2870 C2862 1.378 . S
C2870 C2865 1.350 . S
C2871 H2858 0.929 . S
C2871 C2863 1.433 . S
C2871 N2873 1.384 . S
N2872 C2868 1.427 . S
N2872 C2869 1.384 . S
N2873 C2865 1.427 . S
N2873 C2871 1.384 . S
H2874 C2880 0.930 . S
H2875 C2884 0.930 . S
H2876 C2889 0.929 . S
H2877 C2887 0.929 . S
H2878 C2882 0.929 . S
H2879 C2888 0.927 . S
C2880 H2874 0.930 . S
C2880 C2881 1.367 . S
C2880 C2888 1.373 . S
C2881 C2880 1.367 . S
C2881 C2889 1.433 1_554 S
C2882 H2878 0.929 . S
C2882 C2884 1.378 . S
C2882 C2886 1.350 . S
C2883 C2886 1.463 . S
C2883 C2888 1.356 1_556 S
C2883 N2891 1.427 . S
C2884 H2875 0.930 . S
C2884 C2882 1.378 . S
C2884 C2885 1.367 . S
C2885 C2884 1.367 . S
C2885 C2887 1.433 . S
C2886 C2882 1.350 . S
C2886 C2883 1.463 . S
C2886 N2890 1.427 . S
C2887 H2877 0.929 . S
C2887 C2885 1.433 . S
C2887 N2890 1.384 . S
C2888 H2879 0.927 . S
C2888 C2880 1.373 . S
C2888 C2883 1.356 1_554 S
C2889 H2876 0.929 . S
C2889 C2881 1.433 1_556 S
C2889 N2891 1.384 . S
N2890 C2886 1.427 . S
N2890 C2887 1.384 . S
N2891 C2883 1.427 . S
N2891 C2889 1.384 . S
H2892 C2898 0.930 . S
H2893 C2902 0.930 . S
H2894 C2907 0.929 . S
H2895 C2905 0.929 . S
H2896 C2900 0.929 . S
H2897 C2906 0.929 . S
C2898 H2892 0.930 . S
C2898 C2899 1.367 . S
C2898 C2906 1.378 . S
C2899 C2898 1.367 . S
C2899 C2907 1.433 . S
C2900 H2896 0.929 . S
C2900 C2902 1.378 . S
C2900 C2904 1.350 . S
C2901 C2904 1.463 . S
C2901 C2906 1.350 . S
C2901 N2909 1.427 . S
C2902 H2893 0.930 . S
C2902 C2900 1.378 . S
C2902 C2903 1.367 . S
C2903 C2902 1.367 . S
C2903 C2905 1.433 . S
C2904 C2900 1.350 . S
C2904 C2901 1.463 . S
C2904 N2908 1.427 . S
C2905 H2895 0.929 . S
C2905 C2903 1.433 . S
C2905 N2908 1.384 . S
C2906 H2897 0.929 . S
C2906 C2898 1.378 . S
C2906 C2901 1.350 . S
C2907 H2894 0.929 . S
C2907 C2899 1.433 . S
C2907 N2909 1.384 . S
N2908 C2904 1.427 . S
N2908 C2905 1.384 . S
N2909 C2901 1.427 . S
N2909 C2907 1.384 . S
H2910 C2916 0.930 . S
H2911 C2920 0.930 . S
H2912 C2925 0.929 . S
H2913 C2923 0.929 . S
H2914 C2918 0.929 . S
H2915 C2924 0.929 . S
C2916 H2910 0.930 . S
C2916 C2917 1.367 . S
C2916 C2924 1.378 . S
C2917 C2916 1.367 . S
C2917 C2925 1.433 . S
C2918 H2914 0.929 . S
C2918 C2920 1.378 . S
C2918 C2922 1.350 . S
C2919 C2922 1.463 . S
C2919 C2924 1.350 . S
C2919 N2927 1.427 . S
C2920 H2911 0.930 . S
C2920 C2918 1.378 . S
C2920 C2921 1.367 . S
C2921 C2920 1.367 . S
C2921 C2923 1.433 . S
C2922 C2918 1.350 . S
C2922 C2919 1.463 . S
C2922 N2926 1.427 . S
C2923 H2913 0.929 . S
C2923 C2921 1.433 . S
C2923 N2926 1.384 . S
C2924 H2915 0.929 . S
C2924 C2916 1.378 . S
C2924 C2919 1.350 . S
C2925 H2912 0.929 . S
C2925 C2917 1.433 . S
C2925 N2927 1.384 . S
N2926 C2922 1.427 . S
N2926 C2923 1.384 . S
N2927 C2919 1.427 . S
N2927 C2925 1.384 . S
H2928 C2934 0.930 . S
H2929 C2938 0.930 . S
H2930 C2943 0.929 . S
H2931 C2941 0.929 . S
H2932 C2936 0.929 . S
H2933 C2942 0.929 . S
C2934 H2928 0.930 . S
C2934 C2935 1.367 . S
C2934 C2942 1.378 . S
C2935 C2934 1.367 . S
C2935 C2943 1.433 . S
C2936 H2932 0.929 . S
C2936 C2938 1.378 . S
C2936 C2940 1.350 . S
C2937 C2940 1.463 . S
C2937 C2942 1.350 . S
C2937 N2945 1.427 . S
C2938 H2929 0.930 . S
C2938 C2936 1.378 . S
C2938 C2939 1.367 . S
C2939 C2938 1.367 . S
C2939 C2941 1.433 . S
C2940 C2936 1.350 . S
C2940 C2937 1.463 . S
C2940 N2944 1.427 . S
C2941 H2931 0.929 . S
C2941 C2939 1.433 . S
C2941 N2944 1.384 . S
C2942 H2933 0.929 . S
C2942 C2934 1.378 . S
C2942 C2937 1.350 . S
C2943 H2930 0.929 . S
C2943 C2935 1.433 . S
C2943 N2945 1.384 . S
N2944 C2940 1.427 . S
N2944 C2941 1.384 . S
N2945 C2937 1.427 . S
N2945 C2943 1.384 . S
H2946 C2952 0.930 . S
H2947 C2956 0.930 . S
H2948 C2961 0.929 . S
H2949 C2959 0.929 . S
H2950 C2954 0.929 . S
H2951 C2960 0.929 . S
C2952 H2946 0.930 . S
C2952 C2953 1.367 . S
C2952 C2960 1.378 . S
C2953 C2952 1.367 . S
C2953 C2961 1.433 . S
C2954 H2950 0.929 . S
C2954 C2956 1.378 . S
C2954 C2958 1.350 . S
C2955 C2958 1.463 . S
C2955 C2960 1.350 . S
C2955 N2963 1.427 . S
C2956 H2947 0.930 . S
C2956 C2954 1.378 . S
C2956 C2957 1.367 . S
C2957 C2956 1.367 . S
C2957 C2959 1.433 . S
C2958 C2954 1.350 . S
C2958 C2955 1.463 . S
C2958 N2962 1.427 . S
C2959 H2949 0.929 . S
C2959 C2957 1.433 . S
C2959 N2962 1.384 . S
C2960 H2951 0.929 . S
C2960 C2952 1.378 . S
C2960 C2955 1.350 . S
C2961 H2948 0.929 . S
C2961 C2953 1.433 . S
C2961 N2963 1.384 . S
N2962 C2958 1.427 . S
N2962 C2959 1.384 . S
N2963 C2955 1.427 . S
N2963 C2961 1.384 . S
H2964 C2970 0.930 . S
H2965 C2974 0.930 . S
H2966 C2979 0.929 . S
H2967 C2977 0.929 . S
H2968 C2972 0.929 . S
H2969 C2978 0.930 . S
C2970 H2964 0.930 . S
C2970 C2971 1.367 . S
C2970 C2978 1.383 . S
C2971 C2970 1.367 . S
C2971 C2979 1.433 1_565 S
C2972 H2968 0.929 . S
C2972 C2974 1.378 . S
C2972 C2976 1.350 . S
C2973 C2976 1.463 . S
C2973 C2978 1.344 1_545 S
C2973 N2981 1.427 . S
C2974 H2965 0.930 . S
C2974 C2972 1.378 . S
C2974 C2975 1.367 . S
C2975 C2974 1.367 . S
C2975 C2977 1.433 . S
C2976 C2972 1.350 . S
C2976 C2973 1.463 . S
C2976 N2980 1.427 . S
C2977 H2967 0.929 . S
C2977 C2975 1.433 . S
C2977 N2980 1.384 . S
C2978 H2969 0.930 . S
C2978 C2970 1.383 . S
C2978 C2973 1.344 1_565 S
C2979 H2966 0.929 . S
C2979 C2971 1.433 1_545 S
C2979 N2981 1.384 . S
N2980 C2976 1.427 . S
N2980 C2977 1.384 . S
N2981 C2973 1.427 . S
N2981 C2979 1.384 . S
H2982 C2988 0.930 . S
H2983 C2992 0.930 . S
H2984 C2997 0.929 . S
H2985 C2995 0.929 . S
H2986 C2990 0.929 . S
H2987 C2996 0.929 . S
C2988 H2982 0.930 . S
C2988 C2989 1.367 . S
C2988 C2996 1.378 . S
C2989 C2988 1.367 . S
C2989 C2997 1.433 . S
C2990 H2986 0.929 . S
C2990 C2992 1.378 . S
C2990 C2994 1.350 . S
C2991 C2994 1.463 . S
C2991 C2996 1.350 . S
C2991 N2999 1.427 . S
C2992 H2983 0.930 . S
C2992 C2990 1.378 . S
C2992 C2993 1.367 . S
C2993 C2992 1.367 . S
C2993 C2995 1.433 . S
C2994 C2990 1.350 . S
C2994 C2991 1.463 . S
C2994 N2998 1.427 . S
C2995 H2985 0.929 . S
C2995 C2993 1.433 . S
C2995 N2998 1.384 . S
C2996 H2987 0.929 . S
C2996 C2988 1.378 . S
C2996 C2991 1.350 . S
C2997 H2984 0.929 . S
C2997 C2989 1.433 . S
C2997 N2999 1.384 . S
N2998 C2994 1.427 . S
N2998 C2995 1.384 . S
N2999 C2991 1.427 . S
N2999 C2997 1.384 . S
H3000 C3006 0.930 . S
H3001 C3010 0.930 . S
H3002 C3015 0.929 . S
H3003 C3013 0.929 . S
H3004 C3008 0.929 . S
H3005 C3014 0.929 . S
C3006 H3000 0.930 . S
C3006 C3007 1.367 . S
C3006 C3014 1.378 . S
C3007 C3006 1.367 . S
C3007 C3015 1.433 . S
C3008 H3004 0.929 . S
C3008 C3010 1.378 . S
C3008 C3012 1.350 . S
C3009 C3012 1.463 . S
C3009 C3014 1.350 . S
C3009 N3017 1.427 . S
C3010 H3001 0.930 . S
C3010 C3008 1.378 . S
C3010 C3011 1.367 . S
C3011 C3010 1.367 . S
C3011 C3013 1.433 . S
C3012 C3008 1.350 . S
C3012 C3009 1.463 . S
C3012 N3016 1.427 . S
C3013 H3003 0.929 . S
C3013 C3011 1.433 . S
C3013 N3016 1.384 . S
C3014 H3005 0.929 . S
C3014 C3006 1.378 . S
C3014 C3009 1.350 . S
C3015 H3002 0.929 . S
C3015 C3007 1.433 . S
C3015 N3017 1.384 . S
N3016 C3012 1.427 . S
N3016 C3013 1.384 . S
N3017 C3009 1.427 . S
N3017 C3015 1.384 . S
H3018 C3024 0.930 . S
H3019 C3028 0.930 . S
H3020 C3033 0.929 . S
H3021 C3031 0.929 . S
H3022 C3026 0.929 . S
H3023 C3032 0.929 . S
C3024 H3018 0.930 . S
C3024 C3025 1.367 . S
C3024 C3032 1.378 . S
C3025 C3024 1.367 . S
C3025 C3033 1.433 . S
C3026 H3022 0.929 . S
C3026 C3028 1.378 . S
C3026 C3030 1.350 . S
C3027 C3030 1.463 . S
C3027 C3032 1.350 . S
C3027 N3035 1.427 . S
C3028 H3019 0.930 . S
C3028 C3026 1.378 . S
C3028 C3029 1.367 . S
C3029 C3028 1.367 . S
C3029 C3031 1.433 . S
C3030 C3026 1.350 . S
C3030 C3027 1.463 . S
C3030 N3034 1.427 . S
C3031 H3021 0.929 . S
C3031 C3029 1.433 . S
C3031 N3034 1.384 . S
C3032 H3023 0.929 . S
C3032 C3024 1.378 . S
C3032 C3027 1.350 . S
C3033 H3020 0.929 . S
C3033 C3025 1.433 . S
C3033 N3035 1.384 . S
N3034 C3030 1.427 . S
N3034 C3031 1.384 . S
N3035 C3027 1.427 . S
N3035 C3033 1.384 . S
H3036 C3042 0.930 . S
H3037 C3046 0.930 . S
H3038 C3051 0.929 . S
H3039 C3049 0.929 . S
H3040 C3044 0.932 . S
H3041 C3050 0.929 . S
C3042 H3036 0.930 . S
C3042 C3043 1.367 . S
C3042 C3050 1.378 . S
C3043 C3042 1.367 . S
C3043 C3051 1.433 . S
C3044 H3040 0.932 . S
C3044 C3046 1.378 1_565 S
C3044 C3048 1.350 . S
C3045 C3048 1.463 . S
C3045 C3050 1.350 . S
C3045 N3053 1.427 . S
C3046 H3037 0.930 . S
C3046 C3044 1.378 1_545 S
C3046 C3047 1.367 . S
C3047 C3046 1.367 . S
C3047 C3049 1.433 1_545 S
C3048 C3044 1.350 . S
C3048 C3045 1.463 . S
C3048 N3052 1.427 . S
C3049 H3039 0.929 . S
C3049 C3047 1.433 1_565 S
C3049 N3052 1.384 . S
C3050 H3041 0.929 . S
C3050 C3042 1.378 . S
C3050 C3045 1.350 . S
C3051 H3038 0.929 . S
C3051 C3043 1.433 . S
C3051 N3053 1.384 . S
N3052 C3048 1.427 . S
N3052 C3049 1.384 . S
N3053 C3045 1.427 . S
N3053 C3051 1.384 . S
H3054 C3060 0.930 . S
H3055 C3064 0.930 . S
H3056 C3069 0.929 . S
H3057 C3067 0.929 . S
H3058 C3062 0.929 . S
H3059 C3068 0.929 . S
C3060 H3054 0.930 . S
C3060 C3061 1.367 . S
C3060 C3068 1.378 . S
C3061 C3060 1.367 . S
C3061 C3069 1.433 . S
C3062 H3058 0.929 . S
C3062 C3064 1.378 1_545 S
C3062 C3066 1.350 . S
C3063 C3066 1.463 . S
C3063 C3068 1.350 . S
C3063 N3071 1.427 . S
C3064 H3055 0.930 . S
C3064 C3062 1.378 1_565 S
C3064 C3065 1.367 . S
C3065 C3064 1.367 . S
C3065 C3067 1.433 1_565 S
C3066 C3062 1.350 . S
C3066 C3063 1.463 . S
C3066 N3070 1.427 . S
C3067 H3057 0.929 . S
C3067 C3065 1.433 1_545 S
C3067 N3070 1.384 . S
C3068 H3059 0.929 . S
C3068 C3060 1.378 . S
C3068 C3063 1.350 . S
C3069 H3056 0.929 . S
C3069 C3061 1.433 . S
C3069 N3071 1.384 . S
N3070 C3066 1.427 . S
N3070 C3067 1.384 . S
N3071 C3063 1.427 . S
N3071 C3069 1.384 . S
H3072 C3078 0.930 . S
H3073 C3082 0.930 . S
H3074 C3087 0.929 . S
H3075 C3085 0.929 . S
H3076 C3080 0.929 . S
H3077 C3086 0.929 . S
C3078 H3072 0.930 . S
C3078 C3079 1.367 . S
C3078 C3086 1.378 . S
C3079 C3078 1.367 . S
C3079 C3087 1.433 . S
C3080 H3076 0.929 . S
C3080 C3082 1.378 . S
C3080 C3084 1.350 . S
C3081 C3084 1.463 . S
C3081 C3086 1.350 . S
C3081 N3089 1.427 . S
C3082 H3073 0.930 . S
C3082 C3080 1.378 . S
C3082 C3083 1.367 . S
C3083 C3082 1.367 . S
C3083 C3085 1.433 . S
C3084 C3080 1.350 . S
C3084 C3081 1.463 . S
C3084 N3088 1.427 . S
C3085 H3075 0.929 . S
C3085 C3083 1.433 . S
C3085 N3088 1.384 . S
C3086 H3077 0.929 . S
C3086 C3078 1.378 . S
C3086 C3081 1.350 . S
C3087 H3074 0.929 . S
C3087 C3079 1.433 . S
C3087 N3089 1.384 . S
N3088 C3084 1.427 . S
N3088 C3085 1.384 . S
N3089 C3081 1.427 . S
N3089 C3087 1.384 . S
H3090 C3096 0.930 . S
H3091 C3100 0.930 . S
H3092 C3105 0.929 . S
H3093 C3103 0.929 . S
H3094 C3098 0.929 . S
H3095 C3104 0.929 . S
C3096 H3090 0.930 . S
C3096 C3097 1.367 . S
C3096 C3104 1.378 . S
C3097 C3096 1.367 . S
C3097 C3105 1.433 . S
C3098 H3094 0.929 . S
C3098 C3100 1.378 . S
C3098 C3102 1.350 . S
C3099 C3102 1.463 . S
C3099 C3104 1.350 . S
C3099 N3107 1.427 . S
C3100 H3091 0.930 . S
C3100 C3098 1.378 . S
C3100 C3101 1.367 . S
C3101 C3100 1.367 . S
C3101 C3103 1.433 . S
C3102 C3098 1.350 . S
C3102 C3099 1.463 . S
C3102 N3106 1.427 . S
C3103 H3093 0.929 . S
C3103 C3101 1.433 . S
C3103 N3106 1.384 . S
C3104 H3095 0.929 . S
C3104 C3096 1.378 . S
C3104 C3099 1.350 . S
C3105 H3092 0.929 . S
C3105 C3097 1.433 . S
C3105 N3107 1.384 . S
N3106 C3102 1.427 . S
N3106 C3103 1.384 . S
N3107 C3099 1.427 . S
N3107 C3105 1.384 . S
H3108 C3114 0.930 . S
H3109 C3118 0.930 . S
H3110 C3123 0.929 . S
H3111 C3121 0.929 . S
H3112 C3116 0.929 . S
H3113 C3122 0.929 . S
C3114 H3108 0.930 . S
C3114 C3115 1.367 . S
C3114 C3122 1.378 . S
C3115 C3114 1.367 . S
C3115 C3123 1.433 . S
C3116 H3112 0.929 . S
C3116 C3118 1.378 . S
C3116 C3120 1.350 . S
C3117 C3120 1.463 . S
C3117 C3122 1.350 . S
C3117 N3125 1.427 . S
C3118 H3109 0.930 . S
C3118 C3116 1.378 . S
C3118 C3119 1.367 . S
C3119 C3118 1.367 . S
C3119 C3121 1.433 . S
C3120 C3116 1.350 . S
C3120 C3117 1.463 . S
C3120 N3124 1.427 . S
C3121 H3111 0.929 . S
C3121 C3119 1.433 . S
C3121 N3124 1.384 . S
C3122 H3113 0.929 . S
C3122 C3114 1.378 . S
C3122 C3117 1.350 . S
C3123 H3110 0.929 . S
C3123 C3115 1.433 . S
C3123 N3125 1.384 . S
N3124 C3120 1.427 . S
N3124 C3121 1.384 . S
N3125 C3117 1.427 . S
N3125 C3123 1.384 . S
H3126 C3132 0.930 . S
H3127 C3136 0.930 . S
H3128 C3141 0.929 . S
H3129 C3139 0.929 . S
H3130 C3134 0.929 . S
H3131 C3140 0.929 . S
C3132 H3126 0.930 . S
C3132 C3133 1.367 . S
C3132 C3140 1.378 . S
C3133 C3132 1.367 . S
C3133 C3141 1.433 . S
C3134 H3130 0.929 . S
C3134 C3136 1.378 . S
C3134 C3138 1.350 . S
C3135 C3138 1.463 . S
C3135 C3140 1.350 . S
C3135 N3143 1.427 . S
C3136 H3127 0.930 . S
C3136 C3134 1.378 . S
C3136 C3137 1.367 . S
C3137 C3136 1.367 . S
C3137 C3139 1.433 . S
C3138 C3134 1.350 . S
C3138 C3135 1.463 . S
C3138 N3142 1.427 . S
C3139 H3129 0.929 . S
C3139 C3137 1.433 . S
C3139 N3142 1.384 . S
C3140 H3131 0.929 . S
C3140 C3132 1.378 . S
C3140 C3135 1.350 . S
C3141 H3128 0.929 . S
C3141 C3133 1.433 . S
C3141 N3143 1.384 . S
N3142 C3138 1.427 . S
N3142 C3139 1.384 . S
N3143 C3135 1.427 . S
N3143 C3141 1.384 . S
H3144 C3150 0.930 . S
H3145 C3154 0.930 . S
H3146 C3159 0.929 . S
H3147 C3157 0.929 . S
H3148 C3152 0.929 . S
H3149 C3158 0.929 . S
C3150 H3144 0.930 . S
C3150 C3151 1.367 . S
C3150 C3158 1.378 . S
C3151 C3150 1.367 . S
C3151 C3159 1.433 . S
C3152 H3148 0.929 . S
C3152 C3154 1.378 . S
C3152 C3156 1.350 . S
C3153 C3156 1.463 . S
C3153 C3158 1.350 . S
C3153 N3161 1.427 . S
C3154 H3145 0.930 . S
C3154 C3152 1.378 . S
C3154 C3155 1.367 . S
C3155 C3154 1.367 . S
C3155 C3157 1.433 . S
C3156 C3152 1.350 . S
C3156 C3153 1.463 . S
C3156 N3160 1.427 . S
C3157 H3147 0.929 . S
C3157 C3155 1.433 . S
C3157 N3160 1.384 . S
C3158 H3149 0.929 . S
C3158 C3150 1.378 . S
C3158 C3153 1.350 . S
C3159 H3146 0.929 . S
C3159 C3151 1.433 . S
C3159 N3161 1.384 . S
N3160 C3156 1.427 . S
N3160 C3157 1.384 . S
N3161 C3153 1.427 . S
N3161 C3159 1.384 . S
H3162 C3168 0.930 . S
H3163 C3172 0.930 . S
H3164 C3177 0.929 . S
H3165 C3175 0.929 . S
H3166 C3170 0.929 . S
H3167 C3176 0.929 . S
C3168 H3162 0.930 . S
C3168 C3169 1.367 . S
C3168 C3176 1.378 . S
C3169 C3168 1.367 . S
C3169 C3177 1.433 . S
C3170 H3166 0.929 . S
C3170 C3172 1.378 . S
C3170 C3174 1.350 . S
C3171 C3174 1.463 . S
C3171 C3176 1.350 . S
C3171 N3179 1.427 . S
C3172 H3163 0.930 . S
C3172 C3170 1.378 . S
C3172 C3173 1.367 . S
C3173 C3172 1.367 . S
C3173 C3175 1.433 . S
C3174 C3170 1.350 . S
C3174 C3171 1.463 . S
C3174 N3178 1.427 . S
C3175 H3165 0.929 . S
C3175 C3173 1.433 . S
C3175 N3178 1.384 . S
C3176 H3167 0.929 . S
C3176 C3168 1.378 . S
C3176 C3171 1.350 . S
C3177 H3164 0.929 . S
C3177 C3169 1.433 . S
C3177 N3179 1.384 . S
N3178 C3174 1.427 . S
N3178 C3175 1.384 . S
N3179 C3171 1.427 . S
N3179 C3177 1.384 . S
H3180 C3186 0.930 . S
H3181 C3190 0.930 . S
H3182 C3195 0.929 . S
H3183 C3193 0.929 . S
H3184 C3188 0.929 . S
H3185 C3194 0.929 . S
C3186 H3180 0.930 . S
C3186 C3187 1.367 . S
C3186 C3194 1.378 . S
C3187 C3186 1.367 . S
C3187 C3195 1.433 . S
C3188 H3184 0.929 . S
C3188 C3190 1.378 . S
C3188 C3192 1.350 . S
C3189 C3192 1.463 . S
C3189 C3194 1.350 . S
C3189 N3197 1.427 . S
C3190 H3181 0.930 . S
C3190 C3188 1.378 . S
C3190 C3191 1.367 . S
C3191 C3190 1.367 . S
C3191 C3193 1.433 . S
C3192 C3188 1.350 . S
C3192 C3189 1.463 . S
C3192 N3196 1.427 . S
C3193 H3183 0.929 . S
C3193 C3191 1.433 . S
C3193 N3196 1.384 . S
C3194 H3185 0.929 . S
C3194 C3186 1.378 . S
C3194 C3189 1.350 . S
C3195 H3182 0.929 . S
C3195 C3187 1.433 . S
C3195 N3197 1.384 . S
N3196 C3192 1.427 . S
N3196 C3193 1.384 . S
N3197 C3189 1.427 . S
N3197 C3195 1.384 . S
H3198 C3204 0.930 . S
H3199 C3208 0.930 . S
H3200 C3213 0.929 . S
H3201 C3211 0.929 . S
H3202 C3206 0.929 . S
H3203 C3212 0.929 . S
C3204 H3198 0.930 . S
C3204 C3205 1.367 . S
C3204 C3212 1.378 . S
C3205 C3204 1.367 . S
C3205 C3213 1.433 . S
C3206 H3202 0.929 . S
C3206 C3208 1.378 . S
C3206 C3210 1.350 . S
C3207 C3210 1.463 . S
C3207 C3212 1.350 . S
C3207 N3215 1.427 . S
C3208 H3199 0.930 . S
C3208 C3206 1.378 . S
C3208 C3209 1.367 . S
C3209 C3208 1.367 . S
C3209 C3211 1.433 . S
C3210 C3206 1.350 . S
C3210 C3207 1.463 . S
C3210 N3214 1.427 . S
C3211 H3201 0.929 . S
C3211 C3209 1.433 . S
C3211 N3214 1.384 . S
C3212 H3203 0.929 . S
C3212 C3204 1.378 . S
C3212 C3207 1.350 . S
C3213 H3200 0.929 . S
C3213 C3205 1.433 . S
C3213 N3215 1.384 . S
N3214 C3210 1.427 . S
N3214 C3211 1.384 . S
N3215 C3207 1.427 . S
N3215 C3213 1.384 . S
H3216 C3222 0.930 . S
H3217 C3226 0.930 . S
H3218 C3231 0.929 . S
H3219 C3229 0.929 . S
H3220 C3224 0.929 . S
H3221 C3230 0.929 . S
C3222 H3216 0.930 . S
C3222 C3223 1.367 . S
C3222 C3230 1.378 . S
C3223 C3222 1.367 . S
C3223 C3231 1.433 . S
C3224 H3220 0.929 . S
C3224 C3226 1.378 . S
C3224 C3228 1.350 . S
C3225 C3228 1.463 . S
C3225 C3230 1.350 . S
C3225 N3233 1.427 . S
C3226 H3217 0.930 . S
C3226 C3224 1.378 . S
C3226 C3227 1.367 . S
C3227 C3226 1.367 . S
C3227 C3229 1.433 . S
C3228 C3224 1.350 . S
C3228 C3225 1.463 . S
C3228 N3232 1.427 . S
C3229 H3219 0.929 . S
C3229 C3227 1.433 . S
C3229 N3232 1.384 . S
C3230 H3221 0.929 . S
C3230 C3222 1.378 . S
C3230 C3225 1.350 . S
C3231 H3218 0.929 . S
C3231 C3223 1.433 . S
C3231 N3233 1.384 . S
N3232 C3228 1.427 . S
N3232 C3229 1.384 . S
N3233 C3225 1.427 . S
N3233 C3231 1.384 . S
H3234 C3240 0.930 . S
H3235 C3244 0.930 . S
H3236 C3249 0.929 . S
H3237 C3247 0.929 . S
H3238 C3242 0.929 . S
H3239 C3248 0.929 . S
C3240 H3234 0.930 . S
C3240 C3241 1.367 . S
C3240 C3248 1.378 . S
C3241 C3240 1.367 . S
C3241 C3249 1.433 . S
C3242 H3238 0.929 . S
C3242 C3244 1.378 . S
C3242 C3246 1.350 . S
C3243 C3246 1.463 . S
C3243 C3248 1.350 . S
C3243 N3251 1.427 . S
C3244 H3235 0.930 . S
C3244 C3242 1.378 . S
C3244 C3245 1.367 . S
C3245 C3244 1.367 . S
C3245 C3247 1.433 . S
C3246 C3242 1.350 . S
C3246 C3243 1.463 . S
C3246 N3250 1.427 . S
C3247 H3237 0.929 . S
C3247 C3245 1.433 . S
C3247 N3250 1.384 . S
C3248 H3239 0.929 . S
C3248 C3240 1.378 . S
C3248 C3243 1.350 . S
C3249 H3236 0.929 . S
C3249 C3241 1.433 . S
C3249 N3251 1.384 . S
N3250 C3246 1.427 . S
N3250 C3247 1.384 . S
N3251 C3243 1.427 . S
N3251 C3249 1.384 . S
H3252 C3258 0.930 . S
H3253 C3262 0.930 . S
H3254 C3267 0.929 . S
H3255 C3265 0.929 . S
H3256 C3260 0.929 . S
H3257 C3266 0.929 . S
C3258 H3252 0.930 . S
C3258 C3259 1.367 . S
C3258 C3266 1.378 . S
C3259 C3258 1.367 . S
C3259 C3267 1.433 . S
C3260 H3256 0.929 . S
C3260 C3262 1.378 . S
C3260 C3264 1.350 . S
C3261 C3264 1.463 . S
C3261 C3266 1.350 . S
C3261 N3269 1.427 . S
C3262 H3253 0.930 . S
C3262 C3260 1.378 . S
C3262 C3263 1.367 . S
C3263 C3262 1.367 . S
C3263 C3265 1.433 . S
C3264 C3260 1.350 . S
C3264 C3261 1.463 . S
C3264 N3268 1.427 . S
C3265 H3255 0.929 . S
C3265 C3263 1.433 . S
C3265 N3268 1.384 . S
C3266 H3257 0.929 . S
C3266 C3258 1.378 . S
C3266 C3261 1.350 . S
C3267 H3254 0.929 . S
C3267 C3259 1.433 . S
C3267 N3269 1.384 . S
N3268 C3264 1.427 . S
N3268 C3265 1.384 . S
N3269 C3261 1.427 . S
N3269 C3267 1.384 . S
H3270 C3276 0.930 . S
H3271 C3280 0.930 . S
H3272 C3285 0.929 . S
H3273 C3283 0.929 . S
H3274 C3278 0.929 . S
H3275 C3284 0.929 . S
C3276 H3270 0.930 . S
C3276 C3277 1.367 . S
C3276 C3284 1.378 . S
C3277 C3276 1.367 . S
C3277 C3285 1.433 . S
C3278 H3274 0.929 . S
C3278 C3280 1.378 . S
C3278 C3282 1.350 . S
C3279 C3282 1.463 . S
C3279 C3284 1.350 . S
C3279 N3287 1.427 . S
C3280 H3271 0.930 . S
C3280 C3278 1.378 . S
C3280 C3281 1.367 . S
C3281 C3280 1.367 . S
C3281 C3283 1.433 . S
C3282 C3278 1.350 . S
C3282 C3279 1.463 . S
C3282 N3286 1.427 . S
C3283 H3273 0.929 . S
C3283 C3281 1.433 . S
C3283 N3286 1.384 . S
C3284 H3275 0.929 . S
C3284 C3276 1.378 . S
C3284 C3279 1.350 . S
C3285 H3272 0.929 . S
C3285 C3277 1.433 . S
C3285 N3287 1.384 . S
N3286 C3282 1.427 . S
N3286 C3283 1.384 . S
N3287 C3279 1.427 . S
N3287 C3285 1.384 . S
H3288 C3294 0.930 . S
H3289 C3298 0.930 . S
H3290 C3303 0.929 . S
H3291 C3301 0.929 . S
H3292 C3296 0.929 . S
H3293 C3302 0.929 . S
C3294 H3288 0.930 . S
C3294 C3295 1.367 . S
C3294 C3302 1.378 . S
C3295 C3294 1.367 . S
C3295 C3303 1.433 . S
C3296 H3292 0.929 . S
C3296 C3298 1.378 . S
C3296 C3300 1.350 . S
C3297 C3300 1.463 . S
C3297 C3302 1.350 . S
C3297 N3305 1.427 . S
C3298 H3289 0.930 . S
C3298 C3296 1.378 . S
C3298 C3299 1.367 . S
C3299 C3298 1.367 . S
C3299 C3301 1.433 . S
C3300 C3296 1.350 . S
C3300 C3297 1.463 . S
C3300 N3304 1.427 . S
C3301 H3291 0.929 . S
C3301 C3299 1.433 . S
C3301 N3304 1.384 . S
C3302 H3293 0.929 . S
C3302 C3294 1.378 . S
C3302 C3297 1.350 . S
C3303 H3290 0.929 . S
C3303 C3295 1.433 . S
C3303 N3305 1.384 . S
N3304 C3300 1.427 . S
N3304 C3301 1.384 . S
N3305 C3297 1.427 . S
N3305 C3303 1.384 . S
H3306 C3312 0.930 . S
H3307 C3316 0.930 . S
H3308 C3321 0.929 . S
H3309 C3319 0.929 . S
H3310 C3314 0.929 . S
H3311 C3320 0.929 . S
C3312 H3306 0.930 . S
C3312 C3313 1.367 . S
C3312 C3320 1.378 . S
C3313 C3312 1.367 . S
C3313 C3321 1.433 . S
C3314 H3310 0.929 . S
C3314 C3316 1.378 . S
C3314 C3318 1.350 . S
C3315 C3318 1.463 . S
C3315 C3320 1.350 . S
C3315 N3323 1.427 . S
C3316 H3307 0.930 . S
C3316 C3314 1.378 . S
C3316 C3317 1.367 . S
C3317 C3316 1.367 . S
C3317 C3319 1.433 . S
C3318 C3314 1.350 . S
C3318 C3315 1.463 . S
C3318 N3322 1.427 . S
C3319 H3309 0.929 . S
C3319 C3317 1.433 . S
C3319 N3322 1.384 . S
C3320 H3311 0.929 . S
C3320 C3312 1.378 . S
C3320 C3315 1.350 . S
C3321 H3308 0.929 . S
C3321 C3313 1.433 . S
C3321 N3323 1.384 . S
N3322 C3318 1.427 . S
N3322 C3319 1.384 . S
N3323 C3315 1.427 . S
N3323 C3321 1.384 . S
H3324 C3330 0.930 . S
H3325 C3334 0.930 . S
H3326 C3339 0.929 . S
H3327 C3337 0.929 . S
H3328 C3332 0.929 . S
H3329 C3338 0.929 . S
C3330 H3324 0.930 . S
C3330 C3331 1.367 . S
C3330 C3338 1.378 . S
C3331 C3330 1.367 . S
C3331 C3339 1.433 . S
C3332 H3328 0.929 . S
C3332 C3334 1.378 . S
C3332 C3336 1.350 . S
C3333 C3336 1.463 . S
C3333 C3338 1.350 . S
C3333 N3341 1.427 . S
C3334 H3325 0.930 . S
C3334 C3332 1.378 . S
C3334 C3335 1.367 . S
C3335 C3334 1.367 . S
C3335 C3337 1.433 . S
C3336 C3332 1.350 . S
C3336 C3333 1.463 . S
C3336 N3340 1.427 . S
C3337 H3327 0.929 . S
C3337 C3335 1.433 . S
C3337 N3340 1.384 . S
C3338 H3329 0.929 . S
C3338 C3330 1.378 . S
C3338 C3333 1.350 . S
C3339 H3326 0.929 . S
C3339 C3331 1.433 . S
C3339 N3341 1.384 . S
N3340 C3336 1.427 . S
N3340 C3337 1.384 . S
N3341 C3333 1.427 . S
N3341 C3339 1.384 . S
H3342 C3348 0.930 . S
H3343 C3352 0.930 . S
H3344 C3357 0.929 . S
H3345 C3355 0.929 . S
H3346 C3350 0.929 . S
H3347 C3356 0.929 . S
C3348 H3342 0.930 . S
C3348 C3349 1.367 . S
C3348 C3356 1.378 . S
C3349 C3348 1.367 . S
C3349 C3357 1.433 . S
C3350 H3346 0.929 . S
C3350 C3352 1.378 . S
C3350 C3354 1.350 . S
C3351 C3354 1.463 . S
C3351 C3356 1.350 . S
C3351 N3359 1.427 . S
C3352 H3343 0.930 . S
C3352 C3350 1.378 . S
C3352 C3353 1.367 . S
C3353 C3352 1.367 . S
C3353 C3355 1.433 . S
C3354 C3350 1.350 . S
C3354 C3351 1.463 . S
C3354 N3358 1.427 . S
C3355 H3345 0.929 . S
C3355 C3353 1.433 . S
C3355 N3358 1.384 . S
C3356 H3347 0.929 . S
C3356 C3348 1.378 . S
C3356 C3351 1.350 . S
C3357 H3344 0.929 . S
C3357 C3349 1.433 . S
C3357 N3359 1.384 . S
N3358 C3354 1.427 . S
N3358 C3355 1.384 . S
N3359 C3351 1.427 . S
N3359 C3357 1.384 . S
H3360 C3366 0.930 . S
H3361 C3370 0.930 . S
H3362 C3375 0.929 . S
H3363 C3373 0.929 . S
H3364 C3368 0.929 . S
H3365 C3374 0.929 . S
C3366 H3360 0.930 . S
C3366 C3367 1.367 . S
C3366 C3374 1.378 . S
C3367 C3366 1.367 . S
C3367 C3375 1.433 . S
C3368 H3364 0.929 . S
C3368 C3370 1.378 . S
C3368 C3372 1.350 . S
C3369 C3372 1.463 . S
C3369 C3374 1.350 . S
C3369 N3377 1.427 . S
C3370 H3361 0.930 . S
C3370 C3368 1.378 . S
C3370 C3371 1.367 . S
C3371 C3370 1.367 . S
C3371 C3373 1.433 . S
C3372 C3368 1.350 . S
C3372 C3369 1.463 . S
C3372 N3376 1.427 . S
C3373 H3363 0.929 . S
C3373 C3371 1.433 . S
C3373 N3376 1.384 . S
C3374 H3365 0.929 . S
C3374 C3366 1.378 . S
C3374 C3369 1.350 . S
C3375 H3362 0.929 . S
C3375 C3367 1.433 . S
C3375 N3377 1.384 . S
N3376 C3372 1.427 . S
N3376 C3373 1.384 . S
N3377 C3369 1.427 . S
N3377 C3375 1.384 . S
H3378 C3384 0.930 . S
H3379 C3388 0.930 . S
H3380 C3393 0.929 . S
H3381 C3391 0.929 . S
H3382 C3386 0.929 . S
H3383 C3392 0.929 . S
C3384 H3378 0.930 . S
C3384 C3385 1.367 . S
C3384 C3392 1.378 . S
C3385 C3384 1.367 . S
C3385 C3393 1.433 . S
C3386 H3382 0.929 . S
C3386 C3388 1.378 . S
C3386 C3390 1.350 . S
C3387 C3390 1.463 . S
C3387 C3392 1.350 . S
C3387 N3395 1.427 . S
C3388 H3379 0.930 . S
C3388 C3386 1.378 . S
C3388 C3389 1.367 . S
C3389 C3388 1.367 . S
C3389 C3391 1.433 . S
C3390 C3386 1.350 . S
C3390 C3387 1.463 . S
C3390 N3394 1.427 . S
C3391 H3381 0.929 . S
C3391 C3389 1.433 . S
C3391 N3394 1.384 . S
C3392 H3383 0.929 . S
C3392 C3384 1.378 . S
C3392 C3387 1.350 . S
C3393 H3380 0.929 . S
C3393 C3385 1.433 . S
C3393 N3395 1.384 . S
N3394 C3390 1.427 . S
N3394 C3391 1.384 . S
N3395 C3387 1.427 . S
N3395 C3393 1.384 . S
H3396 C3402 0.930 . S
H3397 C3406 0.930 . S
H3398 C3411 0.929 . S
H3399 C3409 0.929 . S
H3400 C3404 0.929 . S
H3401 C3410 0.929 . S
C3402 H3396 0.930 . S
C3402 C3403 1.367 . S
C3402 C3410 1.378 . S
C3403 C3402 1.367 . S
C3403 C3411 1.433 . S
C3404 H3400 0.929 . S
C3404 C3406 1.378 . S
C3404 C3408 1.350 . S
C3405 C3408 1.463 . S
C3405 C3410 1.350 . S
C3405 N3413 1.427 . S
C3406 H3397 0.930 . S
C3406 C3404 1.378 . S
C3406 C3407 1.367 . S
C3407 C3406 1.367 . S
C3407 C3409 1.433 . S
C3408 C3404 1.350 . S
C3408 C3405 1.463 . S
C3408 N3412 1.427 . S
C3409 H3399 0.929 . S
C3409 C3407 1.433 . S
C3409 N3412 1.384 . S
C3410 H3401 0.929 . S
C3410 C3402 1.378 . S
C3410 C3405 1.350 . S
C3411 H3398 0.929 . S
C3411 C3403 1.433 . S
C3411 N3413 1.384 . S
N3412 C3408 1.427 . S
N3412 C3409 1.384 . S
N3413 C3405 1.427 . S
N3413 C3411 1.384 . S
H3414 C3420 0.930 . S
H3415 C3424 0.930 . S
H3416 C3429 0.929 . S
H3417 C3427 0.929 . S
H3418 C3422 0.929 . S
H3419 C3428 0.929 . S
C3420 H3414 0.930 . S
C3420 C3421 1.367 . S
C3420 C3428 1.378 . S
C3421 C3420 1.367 . S
C3421 C3429 1.433 . S
C3422 H3418 0.929 . S
C3422 C3424 1.378 . S
C3422 C3426 1.350 . S
C3423 C3426 1.463 . S
C3423 C3428 1.350 . S
C3423 N3431 1.427 . S
C3424 H3415 0.930 . S
C3424 C3422 1.378 . S
C3424 C3425 1.367 . S
C3425 C3424 1.367 . S
C3425 C3427 1.433 . S
C3426 C3422 1.350 . S
C3426 C3423 1.463 . S
C3426 N3430 1.427 . S
C3427 H3417 0.929 . S
C3427 C3425 1.433 . S
C3427 N3430 1.384 . S
C3428 H3419 0.929 . S
C3428 C3420 1.378 . S
C3428 C3423 1.350 . S
C3429 H3416 0.929 . S
C3429 C3421 1.433 . S
C3429 N3431 1.384 . S
N3430 C3426 1.427 . S
N3430 C3427 1.384 . S
N3431 C3423 1.427 . S
N3431 C3429 1.384 . S
H3432 C3438 0.930 . S
H3433 C3442 0.930 . S
H3434 C3447 0.929 . S
H3435 C3445 0.929 . S
H3436 C3440 0.929 . S
H3437 C3446 0.929 . S
C3438 H3432 0.930 . S
C3438 C3439 1.367 . S
C3438 C3446 1.378 . S
C3439 C3438 1.367 . S
C3439 C3447 1.433 . S
C3440 H3436 0.929 . S
C3440 C3442 1.378 . S
C3440 C3444 1.350 . S
C3441 C3444 1.463 . S
C3441 C3446 1.350 . S
C3441 N3449 1.427 . S
C3442 H3433 0.930 . S
C3442 C3440 1.378 . S
C3442 C3443 1.367 . S
C3443 C3442 1.367 . S
C3443 C3445 1.433 . S
C3444 C3440 1.350 . S
C3444 C3441 1.463 . S
C3444 N3448 1.427 . S
C3445 H3435 0.929 . S
C3445 C3443 1.433 . S
C3445 N3448 1.384 . S
C3446 H3437 0.929 . S
C3446 C3438 1.378 . S
C3446 C3441 1.350 . S
C3447 H3434 0.929 . S
C3447 C3439 1.433 . S
C3447 N3449 1.384 . S
N3448 C3444 1.427 . S
N3448 C3445 1.384 . S
N3449 C3441 1.427 . S
N3449 C3447 1.384 . S
H3450 C3456 0.930 . S
H3451 C3460 0.930 . S
H3452 C3465 0.929 . S
H3453 C3463 0.929 . S
H3454 C3458 0.929 . S
H3455 C3464 0.929 . S
C3456 H3450 0.930 . S
C3456 C3457 1.367 . S
C3456 C3464 1.378 . S
C3457 C3456 1.367 . S
C3457 C3465 1.433 . S
C3458 H3454 0.929 . S
C3458 C3460 1.378 . S
C3458 C3462 1.350 . S
C3459 C3462 1.463 . S
C3459 C3464 1.350 . S
C3459 N3467 1.427 . S
C3460 H3451 0.930 . S
C3460 C3458 1.378 . S
C3460 C3461 1.367 . S
C3461 C3460 1.367 . S
C3461 C3463 1.433 . S
C3462 C3458 1.350 . S
C3462 C3459 1.463 . S
C3462 N3466 1.427 . S
C3463 H3453 0.929 . S
C3463 C3461 1.433 . S
C3463 N3466 1.384 . S
C3464 H3455 0.929 . S
C3464 C3456 1.378 . S
C3464 C3459 1.350 . S
C3465 H3452 0.929 . S
C3465 C3457 1.433 . S
C3465 N3467 1.384 . S
N3466 C3462 1.427 . S
N3466 C3463 1.384 . S
N3467 C3459 1.427 . S
N3467 C3465 1.384 . S
H3468 C3474 0.930 . S
H3469 C3478 0.930 . S
H3470 C3483 0.929 . S
H3471 C3481 0.929 . S
H3472 C3476 0.929 . S
H3473 C3482 0.929 . S
C3474 H3468 0.930 . S
C3474 C3475 1.367 . S
C3474 C3482 1.378 . S
C3475 C3474 1.367 . S
C3475 C3483 1.433 . S
C3476 H3472 0.929 . S
C3476 C3478 1.378 . S
C3476 C3480 1.350 . S
C3477 C3480 1.463 . S
C3477 C3482 1.350 . S
C3477 N3485 1.427 . S
C3478 H3469 0.930 . S
C3478 C3476 1.378 . S
C3478 C3479 1.367 . S
C3479 C3478 1.367 . S
C3479 C3481 1.433 . S
C3480 C3476 1.350 . S
C3480 C3477 1.463 . S
C3480 N3484 1.427 . S
C3481 H3471 0.929 . S
C3481 C3479 1.433 . S
C3481 N3484 1.384 . S
C3482 H3473 0.929 . S
C3482 C3474 1.378 . S
C3482 C3477 1.350 . S
C3483 H3470 0.929 . S
C3483 C3475 1.433 . S
C3483 N3485 1.384 . S
N3484 C3480 1.427 . S
N3484 C3481 1.384 . S
N3485 C3477 1.427 . S
N3485 C3483 1.384 . S
H3486 C3492 0.930 . S
H3487 C3496 0.930 . S
H3488 C3501 0.929 . S
H3489 C3499 0.929 . S
H3490 C3494 0.929 . S
H3491 C3500 0.929 . S
C3492 H3486 0.930 . S
C3492 C3493 1.367 . S
C3492 C3500 1.378 . S
C3493 C3492 1.367 . S
C3493 C3501 1.433 . S
C3494 H3490 0.929 . S
C3494 C3496 1.378 . S
C3494 C3498 1.350 . S
C3495 C3498 1.463 . S
C3495 C3500 1.350 . S
C3495 N3503 1.427 . S
C3496 H3487 0.930 . S
C3496 C3494 1.378 . S
C3496 C3497 1.367 . S
C3497 C3496 1.367 . S
C3497 C3499 1.433 . S
C3498 C3494 1.350 . S
C3498 C3495 1.463 . S
C3498 N3502 1.427 . S
C3499 H3489 0.929 . S
C3499 C3497 1.433 . S
C3499 N3502 1.384 . S
C3500 H3491 0.929 . S
C3500 C3492 1.378 . S
C3500 C3495 1.350 . S
C3501 H3488 0.929 . S
C3501 C3493 1.433 . S
C3501 N3503 1.384 . S
N3502 C3498 1.427 . S
N3502 C3499 1.384 . S
N3503 C3495 1.427 . S
N3503 C3501 1.384 . S
H3504 C3510 0.930 . S
H3505 C3514 0.930 . S
H3506 C3519 0.929 . S
H3507 C3517 0.929 . S
H3508 C3512 0.929 . S
H3509 C3518 0.929 . S
C3510 H3504 0.930 . S
C3510 C3511 1.367 . S
C3510 C3518 1.378 . S
C3511 C3510 1.367 . S
C3511 C3519 1.433 . S
C3512 H3508 0.929 . S
C3512 C3514 1.378 . S
C3512 C3516 1.350 . S
C3513 C3516 1.463 . S
C3513 C3518 1.350 . S
C3513 N3521 1.427 . S
C3514 H3505 0.930 . S
C3514 C3512 1.378 . S
C3514 C3515 1.367 . S
C3515 C3514 1.367 . S
C3515 C3517 1.433 . S
C3516 C3512 1.350 . S
C3516 C3513 1.463 . S
C3516 N3520 1.427 . S
C3517 H3507 0.929 . S
C3517 C3515 1.433 . S
C3517 N3520 1.384 . S
C3518 H3509 0.929 . S
C3518 C3510 1.378 . S
C3518 C3513 1.350 . S
C3519 H3506 0.929 . S
C3519 C3511 1.433 . S
C3519 N3521 1.384 . S
N3520 C3516 1.427 . S
N3520 C3517 1.384 . S
N3521 C3513 1.427 . S
N3521 C3519 1.384 . S
H3522 C3528 0.930 . S
H3523 C3532 0.930 . S
H3524 C3537 0.929 . S
H3525 C3535 0.929 . S
H3526 C3530 0.929 . S
H3527 C3536 0.929 . S
C3528 H3522 0.930 . S
C3528 C3529 1.367 . S
C3528 C3536 1.378 . S
C3529 C3528 1.367 . S
C3529 C3537 1.433 . S
C3530 H3526 0.929 . S
C3530 C3532 1.378 . S
C3530 C3534 1.350 . S
C3531 C3534 1.463 . S
C3531 C3536 1.350 . S
C3531 N3539 1.427 . S
C3532 H3523 0.930 . S
C3532 C3530 1.378 . S
C3532 C3533 1.367 . S
C3533 C3532 1.367 . S
C3533 C3535 1.433 . S
C3534 C3530 1.350 . S
C3534 C3531 1.463 . S
C3534 N3538 1.427 . S
C3535 H3525 0.929 . S
C3535 C3533 1.433 . S
C3535 N3538 1.384 . S
C3536 H3527 0.929 . S
C3536 C3528 1.378 . S
C3536 C3531 1.350 . S
C3537 H3524 0.929 . S
C3537 C3529 1.433 . S
C3537 N3539 1.384 . S
N3538 C3534 1.427 . S
N3538 C3535 1.384 . S
N3539 C3531 1.427 . S
N3539 C3537 1.384 . S
H3540 C3546 0.930 . S
H3541 C3550 0.930 . S
H3542 C3555 0.929 . S
H3543 C3553 0.929 . S
H3544 C3548 0.929 . S
H3545 C3554 0.929 . S
C3546 H3540 0.930 . S
C3546 C3547 1.367 . S
C3546 C3554 1.378 . S
C3547 C3546 1.367 . S
C3547 C3555 1.433 . S
C3548 H3544 0.929 . S
C3548 C3550 1.378 . S
C3548 C3552 1.350 . S
C3549 C3552 1.463 . S
C3549 C3554 1.350 . S
C3549 N3557 1.427 . S
C3550 H3541 0.930 . S
C3550 C3548 1.378 . S
C3550 C3551 1.367 . S
C3551 C3550 1.367 . S
C3551 C3553 1.433 . S
C3552 C3548 1.350 . S
C3552 C3549 1.463 . S
C3552 N3556 1.427 . S
C3553 H3543 0.929 . S
C3553 C3551 1.433 . S
C3553 N3556 1.384 . S
C3554 H3545 0.929 . S
C3554 C3546 1.378 . S
C3554 C3549 1.350 . S
C3555 H3542 0.929 . S
C3555 C3547 1.433 . S
C3555 N3557 1.384 . S
N3556 C3552 1.427 . S
N3556 C3553 1.384 . S
N3557 C3549 1.427 . S
N3557 C3555 1.384 . S
H3558 C3564 0.930 . S
H3559 C3568 0.930 . S
H3560 C3573 0.929 . S
H3561 C3571 0.929 . S
H3562 C3566 0.929 . S
H3563 C3572 0.929 . S
C3564 H3558 0.930 . S
C3564 C3565 1.367 . S
C3564 C3572 1.378 . S
C3565 C3564 1.367 . S
C3565 C3573 1.433 . S
C3566 H3562 0.929 . S
C3566 C3568 1.378 . S
C3566 C3570 1.350 . S
C3567 C3570 1.463 . S
C3567 C3572 1.350 . S
C3567 N3575 1.427 . S
C3568 H3559 0.930 . S
C3568 C3566 1.378 . S
C3568 C3569 1.367 . S
C3569 C3568 1.367 . S
C3569 C3571 1.433 . S
C3570 C3566 1.350 . S
C3570 C3567 1.463 . S
C3570 N3574 1.427 . S
C3571 H3561 0.929 . S
C3571 C3569 1.433 . S
C3571 N3574 1.384 . S
C3572 H3563 0.929 . S
C3572 C3564 1.378 . S
C3572 C3567 1.350 . S
C3573 H3560 0.929 . S
C3573 C3565 1.433 . S
C3573 N3575 1.384 . S
N3574 C3570 1.427 . S
N3574 C3571 1.384 . S
N3575 C3567 1.427 . S
N3575 C3573 1.384 . S
H3576 C3582 0.930 . S
H3577 C3586 0.930 . S
H3578 C3591 0.929 . S
H3579 C3589 0.929 . S
H3580 C3584 0.929 . S
H3581 C3590 0.929 . S
C3582 H3576 0.930 . S
C3582 C3583 1.367 . S
C3582 C3590 1.378 . S
C3583 C3582 1.367 . S
C3583 C3591 1.433 . S
C3584 H3580 0.929 . S
C3584 C3586 1.378 . S
C3584 C3588 1.350 . S
C3585 C3588 1.463 . S
C3585 C3590 1.350 . S
C3585 N3593 1.427 . S
C3586 H3577 0.930 . S
C3586 C3584 1.378 . S
C3586 C3587 1.367 . S
C3587 C3586 1.367 . S
C3587 C3589 1.433 . S
C3588 C3584 1.350 . S
C3588 C3585 1.463 . S
C3588 N3592 1.427 . S
C3589 H3579 0.929 . S
C3589 C3587 1.433 . S
C3589 N3592 1.384 . S
C3590 H3581 0.929 . S
C3590 C3582 1.378 . S
C3590 C3585 1.350 . S
C3591 H3578 0.929 . S
C3591 C3583 1.433 . S
C3591 N3593 1.384 . S
N3592 C3588 1.427 . S
N3592 C3589 1.384 . S
N3593 C3585 1.427 . S
N3593 C3591 1.384 . S
H3594 C3600 0.930 . S
H3595 C3604 0.930 . S
H3596 C3609 0.929 . S
H3597 C3607 0.929 . S
H3598 C3602 0.929 . S
H3599 C3608 0.929 . S
C3600 H3594 0.930 . S
C3600 C3601 1.367 . S
C3600 C3608 1.378 . S
C3601 C3600 1.367 . S
C3601 C3609 1.433 . S
C3602 H3598 0.929 . S
C3602 C3604 1.378 . S
C3602 C3606 1.350 . S
C3603 C3606 1.463 . S
C3603 C3608 1.350 . S
C3603 N3611 1.427 . S
C3604 H3595 0.930 . S
C3604 C3602 1.378 . S
C3604 C3605 1.367 . S
C3605 C3604 1.367 . S
C3605 C3607 1.433 . S
C3606 C3602 1.350 . S
C3606 C3603 1.463 . S
C3606 N3610 1.427 . S
C3607 H3597 0.929 . S
C3607 C3605 1.433 . S
C3607 N3610 1.384 . S
C3608 H3599 0.929 . S
C3608 C3600 1.378 . S
C3608 C3603 1.350 . S
C3609 H3596 0.929 . S
C3609 C3601 1.433 . S
C3609 N3611 1.384 . S
N3610 C3606 1.427 . S
N3610 C3607 1.384 . S
N3611 C3603 1.427 . S
N3611 C3609 1.384 . S
H3612 C3618 0.930 . S
H3613 C3622 0.930 . S
H3614 C3627 0.929 . S
H3615 C3625 0.929 . S
H3616 C3620 0.929 . S
H3617 C3626 0.929 . S
C3618 H3612 0.930 . S
C3618 C3619 1.367 . S
C3618 C3626 1.378 . S
C3619 C3618 1.367 . S
C3619 C3627 1.433 . S
C3620 H3616 0.929 . S
C3620 C3622 1.378 . S
C3620 C3624 1.350 . S
C3621 C3624 1.463 . S
C3621 C3626 1.350 . S
C3621 N3629 1.427 . S
C3622 H3613 0.930 . S
C3622 C3620 1.378 . S
C3622 C3623 1.367 . S
C3623 C3622 1.367 . S
C3623 C3625 1.433 . S
C3624 C3620 1.350 . S
C3624 C3621 1.463 . S
C3624 N3628 1.427 . S
C3625 H3615 0.929 . S
C3625 C3623 1.433 . S
C3625 N3628 1.384 . S
C3626 H3617 0.929 . S
C3626 C3618 1.378 . S
C3626 C3621 1.350 . S
C3627 H3614 0.929 . S
C3627 C3619 1.433 . S
C3627 N3629 1.384 . S
N3628 C3624 1.427 . S
N3628 C3625 1.384 . S
N3629 C3621 1.427 . S
N3629 C3627 1.384 . S
H3630 C3636 0.930 . S
H3631 C3640 0.930 . S
H3632 C3645 0.929 . S
H3633 C3643 0.929 . S
H3634 C3638 0.929 . S
H3635 C3644 0.929 . S
C3636 H3630 0.930 . S
C3636 C3637 1.367 . S
C3636 C3644 1.378 . S
C3637 C3636 1.367 . S
C3637 C3645 1.433 . S
C3638 H3634 0.929 . S
C3638 C3640 1.378 . S
C3638 C3642 1.350 . S
C3639 C3642 1.463 . S
C3639 C3644 1.350 . S
C3639 N3647 1.427 . S
C3640 H3631 0.930 . S
C3640 C3638 1.378 . S
C3640 C3641 1.367 . S
C3641 C3640 1.367 . S
C3641 C3643 1.433 . S
C3642 C3638 1.350 . S
C3642 C3639 1.463 . S
C3642 N3646 1.427 . S
C3643 H3633 0.929 . S
C3643 C3641 1.433 . S
C3643 N3646 1.384 . S
C3644 H3635 0.929 . S
C3644 C3636 1.378 . S
C3644 C3639 1.350 . S
C3645 H3632 0.929 . S
C3645 C3637 1.433 . S
C3645 N3647 1.384 . S
N3646 C3642 1.427 . S
N3646 C3643 1.384 . S
N3647 C3639 1.427 . S
N3647 C3645 1.384 . S
H3648 C3654 0.930 . S
H3649 C3658 0.930 . S
H3650 C3663 0.929 . S
H3651 C3661 0.929 . S
H3652 C3656 0.929 . S
H3653 C3662 0.929 . S
C3654 H3648 0.930 . S
C3654 C3655 1.367 . S
C3654 C3662 1.378 . S
C3655 C3654 1.367 . S
C3655 C3663 1.433 . S
C3656 H3652 0.929 . S
C3656 C3658 1.378 . S
C3656 C3660 1.350 . S
C3657 C3660 1.463 . S
C3657 C3662 1.350 . S
C3657 N3665 1.427 . S
C3658 H3649 0.930 . S
C3658 C3656 1.378 . S
C3658 C3659 1.367 . S
C3659 C3658 1.367 . S
C3659 C3661 1.433 . S
C3660 C3656 1.350 . S
C3660 C3657 1.463 . S
C3660 N3664 1.427 . S
C3661 H3651 0.929 . S
C3661 C3659 1.433 . S
C3661 N3664 1.384 . S
C3662 H3653 0.929 . S
C3662 C3654 1.378 . S
C3662 C3657 1.350 . S
C3663 H3650 0.929 . S
C3663 C3655 1.433 . S
C3663 N3665 1.384 . S
N3664 C3660 1.427 . S
N3664 C3661 1.384 . S
N3665 C3657 1.427 . S
N3665 C3663 1.384 . S
H3666 C3672 0.930 . S
H3667 C3676 0.930 . S
H3668 C3681 0.929 . S
H3669 C3679 0.929 . S
H3670 C3674 0.929 . S
H3671 C3680 0.929 . S
C3672 H3666 0.930 . S
C3672 C3673 1.367 . S
C3672 C3680 1.378 . S
C3673 C3672 1.367 . S
C3673 C3681 1.433 . S
C3674 H3670 0.929 . S
C3674 C3676 1.378 . S
C3674 C3678 1.350 . S
C3675 C3678 1.463 . S
C3675 C3680 1.350 . S
C3675 N3683 1.427 . S
C3676 H3667 0.930 . S
C3676 C3674 1.378 . S
C3676 C3677 1.367 . S
C3677 C3676 1.367 . S
C3677 C3679 1.433 . S
C3678 C3674 1.350 . S
C3678 C3675 1.463 . S
C3678 N3682 1.427 . S
C3679 H3669 0.929 . S
C3679 C3677 1.433 . S
C3679 N3682 1.384 . S
C3680 H3671 0.929 . S
C3680 C3672 1.378 . S
C3680 C3675 1.350 . S
C3681 H3668 0.929 . S
C3681 C3673 1.433 . S
C3681 N3683 1.384 . S
N3682 C3678 1.427 . S
N3682 C3679 1.384 . S
N3683 C3675 1.427 . S
N3683 C3681 1.384 . S
H3684 C3690 0.930 . S
H3685 C3694 0.930 . S
H3686 C3699 0.929 . S
H3687 C3697 0.929 . S
H3688 C3692 0.929 . S
H3689 C3698 0.929 . S
C3690 H3684 0.930 . S
C3690 C3691 1.367 . S
C3690 C3698 1.378 . S
C3691 C3690 1.367 . S
C3691 C3699 1.433 . S
C3692 H3688 0.929 . S
C3692 C3694 1.378 . S
C3692 C3696 1.350 . S
C3693 C3696 1.463 . S
C3693 C3698 1.350 . S
C3693 N3701 1.427 . S
C3694 H3685 0.930 . S
C3694 C3692 1.378 . S
C3694 C3695 1.367 . S
C3695 C3694 1.367 . S
C3695 C3697 1.433 . S
C3696 C3692 1.350 . S
C3696 C3693 1.463 . S
C3696 N3700 1.427 . S
C3697 H3687 0.929 . S
C3697 C3695 1.433 . S
C3697 N3700 1.384 . S
C3698 H3689 0.929 . S
C3698 C3690 1.378 . S
C3698 C3693 1.350 . S
C3699 H3686 0.929 . S
C3699 C3691 1.433 . S
C3699 N3701 1.384 . S
N3700 C3696 1.427 . S
N3700 C3697 1.384 . S
N3701 C3693 1.427 . S
N3701 C3699 1.384 . S
H3702 C3708 0.930 . S
H3703 C3712 0.930 . S
H3704 C3717 0.929 . S
H3705 C3715 0.929 . S
H3706 C3710 0.929 . S
H3707 C3716 0.929 . S
C3708 H3702 0.930 . S
C3708 C3709 1.367 . S
C3708 C3716 1.378 . S
C3709 C3708 1.367 . S
C3709 C3717 1.433 . S
C3710 H3706 0.929 . S
C3710 C3712 1.378 . S
C3710 C3714 1.350 . S
C3711 C3714 1.463 . S
C3711 C3716 1.350 . S
C3711 N3719 1.427 . S
C3712 H3703 0.930 . S
C3712 C3710 1.378 . S
C3712 C3713 1.367 . S
C3713 C3712 1.367 . S
C3713 C3715 1.433 . S
C3714 C3710 1.350 . S
C3714 C3711 1.463 . S
C3714 N3718 1.427 . S
C3715 H3705 0.929 . S
C3715 C3713 1.433 . S
C3715 N3718 1.384 . S
C3716 H3707 0.929 . S
C3716 C3708 1.378 . S
C3716 C3711 1.350 . S
C3717 H3704 0.929 . S
C3717 C3709 1.433 . S
C3717 N3719 1.384 . S
N3718 C3714 1.427 . S
N3718 C3715 1.384 . S
N3719 C3711 1.427 . S
N3719 C3717 1.384 . S
H3720 C3726 0.930 . S
H3721 C3730 0.930 . S
H3722 C3735 0.929 . S
H3723 C3733 0.929 . S
H3724 C3728 0.929 . S
H3725 C3734 0.929 . S
C3726 H3720 0.930 . S
C3726 C3727 1.367 . S
C3726 C3734 1.378 . S
C3727 C3726 1.367 . S
C3727 C3735 1.433 . S
C3728 H3724 0.929 . S
C3728 C3730 1.378 . S
C3728 C3732 1.350 . S
C3729 C3732 1.463 . S
C3729 C3734 1.350 . S
C3729 N3737 1.427 . S
C3730 H3721 0.930 . S
C3730 C3728 1.378 . S
C3730 C3731 1.367 . S
C3731 C3730 1.367 . S
C3731 C3733 1.433 . S
C3732 C3728 1.350 . S
C3732 C3729 1.463 . S
C3732 N3736 1.427 . S
C3733 H3723 0.929 . S
C3733 C3731 1.433 . S
C3733 N3736 1.384 . S
C3734 H3725 0.929 . S
C3734 C3726 1.378 . S
C3734 C3729 1.350 . S
C3735 H3722 0.929 . S
C3735 C3727 1.433 . S
C3735 N3737 1.384 . S
N3736 C3732 1.427 . S
N3736 C3733 1.384 . S
N3737 C3729 1.427 . S
N3737 C3735 1.384 . S
H3738 C3744 0.930 . S
H3739 C3748 0.930 . S
H3740 C3753 0.929 . S
H3741 C3751 0.929 . S
H3742 C3746 0.929 . S
H3743 C3752 0.929 . S
C3744 H3738 0.930 . S
C3744 C3745 1.367 . S
C3744 C3752 1.378 . S
C3745 C3744 1.367 . S
C3745 C3753 1.433 . S
C3746 H3742 0.929 . S
C3746 C3748 1.378 . S
C3746 C3750 1.350 . S
C3747 C3750 1.463 . S
C3747 C3752 1.350 . S
C3747 N3755 1.427 . S
C3748 H3739 0.930 . S
C3748 C3746 1.378 . S
C3748 C3749 1.367 . S
C3749 C3748 1.367 . S
C3749 C3751 1.433 . S
C3750 C3746 1.350 . S
C3750 C3747 1.463 . S
C3750 N3754 1.427 . S
C3751 H3741 0.929 . S
C3751 C3749 1.433 . S
C3751 N3754 1.384 . S
C3752 H3743 0.929 . S
C3752 C3744 1.378 . S
C3752 C3747 1.350 . S
C3753 H3740 0.929 . S
C3753 C3745 1.433 . S
C3753 N3755 1.384 . S
N3754 C3750 1.427 . S
N3754 C3751 1.384 . S
N3755 C3747 1.427 . S
N3755 C3753 1.384 . S
H3756 C3762 0.930 . S
H3757 C3766 0.930 . S
H3758 C3771 0.929 . S
H3759 C3769 0.929 . S
H3760 C3764 0.929 . S
H3761 C3770 0.929 . S
C3762 H3756 0.930 . S
C3762 C3763 1.367 . S
C3762 C3770 1.378 . S
C3763 C3762 1.367 . S
C3763 C3771 1.433 . S
C3764 H3760 0.929 . S
C3764 C3766 1.378 . S
C3764 C3768 1.350 . S
C3765 C3768 1.463 . S
C3765 C3770 1.350 . S
C3765 N3773 1.427 . S
C3766 H3757 0.930 . S
C3766 C3764 1.378 . S
C3766 C3767 1.367 . S
C3767 C3766 1.367 . S
C3767 C3769 1.433 . S
C3768 C3764 1.350 . S
C3768 C3765 1.463 . S
C3768 N3772 1.427 . S
C3769 H3759 0.929 . S
C3769 C3767 1.433 . S
C3769 N3772 1.384 . S
C3770 H3761 0.929 . S
C3770 C3762 1.378 . S
C3770 C3765 1.350 . S
C3771 H3758 0.929 . S
C3771 C3763 1.433 . S
C3771 N3773 1.384 . S
N3772 C3768 1.427 . S
N3772 C3769 1.384 . S
N3773 C3765 1.427 . S
N3773 C3771 1.384 . S
H3774 C3780 0.930 . S
H3775 C3784 0.930 . S
H3776 C3789 0.929 . S
H3777 C3787 0.929 . S
H3778 C3782 0.929 . S
H3779 C3788 0.929 . S
C3780 H3774 0.930 . S
C3780 C3781 1.367 . S
C3780 C3788 1.378 . S
C3781 C3780 1.367 . S
C3781 C3789 1.433 . S
C3782 H3778 0.929 . S
C3782 C3784 1.378 . S
C3782 C3786 1.350 . S
C3783 C3786 1.463 . S
C3783 C3788 1.350 . S
C3783 N3791 1.427 . S
C3784 H3775 0.930 . S
C3784 C3782 1.378 . S
C3784 C3785 1.367 . S
C3785 C3784 1.367 . S
C3785 C3787 1.433 . S
C3786 C3782 1.350 . S
C3786 C3783 1.463 . S
C3786 N3790 1.427 . S
C3787 H3777 0.929 . S
C3787 C3785 1.433 . S
C3787 N3790 1.384 . S
C3788 H3779 0.929 . S
C3788 C3780 1.378 . S
C3788 C3783 1.350 . S
C3789 H3776 0.929 . S
C3789 C3781 1.433 . S
C3789 N3791 1.384 . S
N3790 C3786 1.427 . S
N3790 C3787 1.384 . S
N3791 C3783 1.427 . S
N3791 C3789 1.384 . S
H3792 C3798 0.930 . S
H3793 C3802 0.930 . S
H3794 C3807 0.929 . S
H3795 C3805 0.929 . S
H3796 C3800 0.929 . S
H3797 C3806 0.929 . S
C3798 H3792 0.930 . S
C3798 C3799 1.367 . S
C3798 C3806 1.378 . S
C3799 C3798 1.367 . S
C3799 C3807 1.433 . S
C3800 H3796 0.929 . S
C3800 C3802 1.378 . S
C3800 C3804 1.350 . S
C3801 C3804 1.463 . S
C3801 C3806 1.350 . S
C3801 N3809 1.427 . S
C3802 H3793 0.930 . S
C3802 C3800 1.378 . S
C3802 C3803 1.367 . S
C3803 C3802 1.367 . S
C3803 C3805 1.433 . S
C3804 C3800 1.350 . S
C3804 C3801 1.463 . S
C3804 N3808 1.427 . S
C3805 H3795 0.929 . S
C3805 C3803 1.433 . S
C3805 N3808 1.384 . S
C3806 H3797 0.929 . S
C3806 C3798 1.378 . S
C3806 C3801 1.350 . S
C3807 H3794 0.929 . S
C3807 C3799 1.433 . S
C3807 N3809 1.384 . S
N3808 C3804 1.427 . S
N3808 C3805 1.384 . S
N3809 C3801 1.427 . S
N3809 C3807 1.384 . S
H3810 C3816 0.930 . S
H3811 C3820 0.930 . S
H3812 C3825 0.929 . S
H3813 C3823 0.929 . S
H3814 C3818 0.929 . S
H3815 C3824 0.929 . S
C3816 H3810 0.930 . S
C3816 C3817 1.367 . S
C3816 C3824 1.378 . S
C3817 C3816 1.367 . S
C3817 C3825 1.433 . S
C3818 H3814 0.929 . S
C3818 C3820 1.378 . S
C3818 C3822 1.350 . S
C3819 C3822 1.463 . S
C3819 C3824 1.350 . S
C3819 N3827 1.427 . S
C3820 H3811 0.930 . S
C3820 C3818 1.378 . S
C3820 C3821 1.367 . S
C3821 C3820 1.367 . S
C3821 C3823 1.433 . S
C3822 C3818 1.350 . S
C3822 C3819 1.463 . S
C3822 N3826 1.427 . S
C3823 H3813 0.929 . S
C3823 C3821 1.433 . S
C3823 N3826 1.384 . S
C3824 H3815 0.929 . S
C3824 C3816 1.378 . S
C3824 C3819 1.350 . S
C3825 H3812 0.929 . S
C3825 C3817 1.433 . S
C3825 N3827 1.384 . S
N3826 C3822 1.427 . S
N3826 C3823 1.384 . S
N3827 C3819 1.427 . S
N3827 C3825 1.384 . S
H3828 C3834 0.930 . S
H3829 C3838 0.930 . S
H3830 C3843 0.929 . S
H3831 C3841 0.929 . S
H3832 C3836 0.929 . S
H3833 C3842 0.929 . S
C3834 H3828 0.930 . S
C3834 C3835 1.367 . S
C3834 C3842 1.378 . S
C3835 C3834 1.367 . S
C3835 C3843 1.433 . S
C3836 H3832 0.929 . S
C3836 C3838 1.378 . S
C3836 C3840 1.350 . S
C3837 C3840 1.463 . S
C3837 C3842 1.350 . S
C3837 N3845 1.427 . S
C3838 H3829 0.930 . S
C3838 C3836 1.378 . S
C3838 C3839 1.367 . S
C3839 C3838 1.367 . S
C3839 C3841 1.433 . S
C3840 C3836 1.350 . S
C3840 C3837 1.463 . S
C3840 N3844 1.427 . S
C3841 H3831 0.929 . S
C3841 C3839 1.433 . S
C3841 N3844 1.384 . S
C3842 H3833 0.929 . S
C3842 C3834 1.378 . S
C3842 C3837 1.350 . S
C3843 H3830 0.929 . S
C3843 C3835 1.433 . S
C3843 N3845 1.384 . S
N3844 C3840 1.427 . S
N3844 C3841 1.384 . S
N3845 C3837 1.427 . S
N3845 C3843 1.384 . S
H3846 C3852 0.930 . S
H3847 C3856 0.930 . S
H3848 C3861 0.929 . S
H3849 C3859 0.929 . S
H3850 C3854 0.929 . S
H3851 C3860 0.929 . S
C3852 H3846 0.930 . S
C3852 C3853 1.367 . S
C3852 C3860 1.378 . S
C3853 C3852 1.367 . S
C3853 C3861 1.433 . S
C3854 H3850 0.929 . S
C3854 C3856 1.378 . S
C3854 C3858 1.350 . S
C3855 C3858 1.463 . S
C3855 C3860 1.350 . S
C3855 N3863 1.427 . S
C3856 H3847 0.930 . S
C3856 C3854 1.378 . S
C3856 C3857 1.367 . S
C3857 C3856 1.367 . S
C3857 C3859 1.433 . S
C3858 C3854 1.350 . S
C3858 C3855 1.463 . S
C3858 N3862 1.427 . S
C3859 H3849 0.929 . S
C3859 C3857 1.433 . S
C3859 N3862 1.384 . S
C3860 H3851 0.929 . S
C3860 C3852 1.378 . S
C3860 C3855 1.350 . S
C3861 H3848 0.929 . S
C3861 C3853 1.433 . S
C3861 N3863 1.384 . S
N3862 C3858 1.427 . S
N3862 C3859 1.384 . S
N3863 C3855 1.427 . S
N3863 C3861 1.384 . S
H3864 C3870 0.930 . S
H3865 C3874 0.930 . S
H3866 C3879 0.929 . S
H3867 C3877 0.929 . S
H3868 C3872 0.929 . S
H3869 C3878 0.929 . S
C3870 H3864 0.930 . S
C3870 C3871 1.367 . S
C3870 C3878 1.378 . S
C3871 C3870 1.367 . S
C3871 C3879 1.433 . S
C3872 H3868 0.929 . S
C3872 C3874 1.378 . S
C3872 C3876 1.350 . S
C3873 C3876 1.463 . S
C3873 C3878 1.350 . S
C3873 N3881 1.427 . S
C3874 H3865 0.930 . S
C3874 C3872 1.378 . S
C3874 C3875 1.367 . S
C3875 C3874 1.367 . S
C3875 C3877 1.433 . S
C3876 C3872 1.350 . S
C3876 C3873 1.463 . S
C3876 N3880 1.427 . S
C3877 H3867 0.929 . S
C3877 C3875 1.433 . S
C3877 N3880 1.384 . S
C3878 H3869 0.929 . S
C3878 C3870 1.378 . S
C3878 C3873 1.350 . S
C3879 H3866 0.929 . S
C3879 C3871 1.433 . S
C3879 N3881 1.384 . S
N3880 C3876 1.427 . S
N3880 C3877 1.384 . S
N3881 C3873 1.427 . S
N3881 C3879 1.384 . S
H3882 C3888 0.930 . S
H3883 C3892 0.930 . S
H3884 C3897 0.929 . S
H3885 C3895 0.929 . S
H3886 C3890 0.929 . S
H3887 C3896 0.929 . S
C3888 H3882 0.930 . S
C3888 C3889 1.367 . S
C3888 C3896 1.378 . S
C3889 C3888 1.367 . S
C3889 C3897 1.433 . S
C3890 H3886 0.929 . S
C3890 C3892 1.378 . S
C3890 C3894 1.350 . S
C3891 C3894 1.463 . S
C3891 C3896 1.350 . S
C3891 N3899 1.427 . S
C3892 H3883 0.930 . S
C3892 C3890 1.378 . S
C3892 C3893 1.367 . S
C3893 C3892 1.367 . S
C3893 C3895 1.433 . S
C3894 C3890 1.350 . S
C3894 C3891 1.463 . S
C3894 N3898 1.427 . S
C3895 H3885 0.929 . S
C3895 C3893 1.433 . S
C3895 N3898 1.384 . S
C3896 H3887 0.929 . S
C3896 C3888 1.378 . S
C3896 C3891 1.350 . S
C3897 H3884 0.929 . S
C3897 C3889 1.433 . S
C3897 N3899 1.384 . S
N3898 C3894 1.427 . S
N3898 C3895 1.384 . S
N3899 C3891 1.427 . S
N3899 C3897 1.384 . S
H3900 C3906 0.930 . S
H3901 C3910 0.930 . S
H3902 C3915 0.929 . S
H3903 C3913 0.929 . S
H3904 C3908 0.929 . S
H3905 C3914 0.929 . S
C3906 H3900 0.930 . S
C3906 C3907 1.367 . S
C3906 C3914 1.378 . S
C3907 C3906 1.367 . S
C3907 C3915 1.433 . S
C3908 H3904 0.929 . S
C3908 C3910 1.378 . S
C3908 C3912 1.350 . S
C3909 C3912 1.463 . S
C3909 C3914 1.350 . S
C3909 N3917 1.427 . S
C3910 H3901 0.930 . S
C3910 C3908 1.378 . S
C3910 C3911 1.367 . S
C3911 C3910 1.367 . S
C3911 C3913 1.433 . S
C3912 C3908 1.350 . S
C3912 C3909 1.463 . S
C3912 N3916 1.427 . S
C3913 H3903 0.929 . S
C3913 C3911 1.433 . S
C3913 N3916 1.384 . S
C3914 H3905 0.929 . S
C3914 C3906 1.378 . S
C3914 C3909 1.350 . S
C3915 H3902 0.929 . S
C3915 C3907 1.433 . S
C3915 N3917 1.384 . S
N3916 C3912 1.427 . S
N3916 C3913 1.384 . S
N3917 C3909 1.427 . S
N3917 C3915 1.384 . S
H3918 C3924 0.930 . S
H3919 C3928 0.930 . S
H3920 C3933 0.929 . S
H3921 C3931 0.929 . S
H3922 C3926 0.929 . S
H3923 C3932 0.929 . S
C3924 H3918 0.930 . S
C3924 C3925 1.367 . S
C3924 C3932 1.378 . S
C3925 C3924 1.367 . S
C3925 C3933 1.433 . S
C3926 H3922 0.929 . S
C3926 C3928 1.378 . S
C3926 C3930 1.350 . S
C3927 C3930 1.463 . S
C3927 C3932 1.350 . S
C3927 N3935 1.427 . S
C3928 H3919 0.930 . S
C3928 C3926 1.378 . S
C3928 C3929 1.367 . S
C3929 C3928 1.367 . S
C3929 C3931 1.433 . S
C3930 C3926 1.350 . S
C3930 C3927 1.463 . S
C3930 N3934 1.427 . S
C3931 H3921 0.929 . S
C3931 C3929 1.433 . S
C3931 N3934 1.384 . S
C3932 H3923 0.929 . S
C3932 C3924 1.378 . S
C3932 C3927 1.350 . S
C3933 H3920 0.929 . S
C3933 C3925 1.433 . S
C3933 N3935 1.384 . S
N3934 C3930 1.427 . S
N3934 C3931 1.384 . S
N3935 C3927 1.427 . S
N3935 C3933 1.384 . S
H3936 C3942 0.930 . S
H3937 C3946 0.930 . S
H3938 C3951 0.929 . S
H3939 C3949 0.929 . S
H3940 C3944 0.929 . S
H3941 C3950 0.929 1_655 S
C3942 H3936 0.930 . S
C3942 C3943 1.367 . S
C3942 C3950 1.378 . S
C3943 C3942 1.367 . S
C3943 C3951 1.433 . S
C3944 H3940 0.929 . S
C3944 C3946 1.378 . S
C3944 C3948 1.350 . S
C3945 C3948 1.463 . S
C3945 C3950 1.350 1_655 S
C3945 N3953 1.427 1_655 S
C3946 H3937 0.930 . S
C3946 C3944 1.378 . S
C3946 C3947 1.367 . S
C3947 C3946 1.367 . S
C3947 C3949 1.433 . S
C3948 C3944 1.350 . S
C3948 C3945 1.463 . S
C3948 N3952 1.427 . S
C3949 H3939 0.929 . S
C3949 C3947 1.433 . S
C3949 N3952 1.384 . S
C3950 H3941 0.929 1_455 S
C3950 C3942 1.378 . S
C3950 C3945 1.350 1_455 S
C3951 H3938 0.929 . S
C3951 C3943 1.433 . S
C3951 N3953 1.384 . S
N3952 C3948 1.427 . S
N3952 C3949 1.384 . S
N3953 C3945 1.427 1_455 S
N3953 C3951 1.384 . S
H3954 C3960 0.930 . S
H3955 C3964 0.930 . S
H3956 C3969 0.929 . S
H3957 C3967 0.929 . S
H3958 C3962 0.929 . S
H3959 C3968 0.929 . S
C3960 H3954 0.930 . S
C3960 C3961 1.367 . S
C3960 C3968 1.378 . S
C3961 C3960 1.367 . S
C3961 C3969 1.433 . S
C3962 H3958 0.929 . S
C3962 C3964 1.378 . S
C3962 C3966 1.350 . S
C3963 C3966 1.463 . S
C3963 C3968 1.350 . S
C3963 N3971 1.427 . S
C3964 H3955 0.930 . S
C3964 C3962 1.378 . S
C3964 C3965 1.367 . S
C3965 C3964 1.367 . S
C3965 C3967 1.433 . S
C3966 C3962 1.350 . S
C3966 C3963 1.463 . S
C3966 N3970 1.427 . S
C3967 H3957 0.929 . S
C3967 C3965 1.433 . S
C3967 N3970 1.384 . S
C3968 H3959 0.929 . S
C3968 C3960 1.378 . S
C3968 C3963 1.350 . S
C3969 H3956 0.929 . S
C3969 C3961 1.433 . S
C3969 N3971 1.384 . S
N3970 C3966 1.427 . S
N3970 C3967 1.384 . S
N3971 C3963 1.427 . S
N3971 C3969 1.384 . S
H3972 C3978 0.930 . S
H3973 C3982 0.930 . S
H3974 C3987 0.929 . S
H3975 C3985 0.929 . S
H3976 C3980 0.929 . S
H3977 C3986 0.929 . S
C3978 H3972 0.930 . S
C3978 C3979 1.367 . S
C3978 C3986 1.378 . S
C3979 C3978 1.367 . S
C3979 C3987 1.433 . S
C3980 H3976 0.929 . S
C3980 C3982 1.378 . S
C3980 C3984 1.350 . S
C3981 C3984 1.463 . S
C3981 C3986 1.350 . S
C3981 N3989 1.427 . S
C3982 H3973 0.930 . S
C3982 C3980 1.378 . S
C3982 C3983 1.367 . S
C3983 C3982 1.367 . S
C3983 C3985 1.433 . S
C3984 C3980 1.350 . S
C3984 C3981 1.463 . S
C3984 N3988 1.427 . S
C3985 H3975 0.929 . S
C3985 C3983 1.433 . S
C3985 N3988 1.384 . S
C3986 H3977 0.929 . S
C3986 C3978 1.378 . S
C3986 C3981 1.350 . S
C3987 H3974 0.929 . S
C3987 C3979 1.433 . S
C3987 N3989 1.384 . S
N3988 C3984 1.427 . S
N3988 C3985 1.384 . S
N3989 C3981 1.427 . S
N3989 C3987 1.384 . S
H3990 C3996 0.930 . S
H3991 C4000 0.930 . S
H3992 C4005 0.929 . S
H3993 C4003 0.929 . S
H3994 C3998 0.929 . S
H3995 C4004 0.929 . S
C3996 H3990 0.930 . S
C3996 C3997 1.367 . S
C3996 C4004 1.378 1_556 S
C3997 C3996 1.367 . S
C3997 C4005 1.433 . S
C3998 H3994 0.929 . S
C3998 C4000 1.378 . S
C3998 C4002 1.350 . S
C3999 C4002 1.463 . S
C3999 C4004 1.350 . S
C3999 N4007 1.427 1_554 S
C4000 H3991 0.930 . S
C4000 C3998 1.378 . S
C4000 C4001 1.367 . S
C4001 C4000 1.367 . S
C4001 C4003 1.433 . S
C4002 C3998 1.350 . S
C4002 C3999 1.463 . S
C4002 N4006 1.427 . S
C4003 H3993 0.929 . S
C4003 C4001 1.433 . S
C4003 N4006 1.384 . S
C4004 H3995 0.929 . S
C4004 C3996 1.378 1_554 S
C4004 C3999 1.350 . S
C4005 H3992 0.929 . S
C4005 C3997 1.433 . S
C4005 N4007 1.384 . S
N4006 C4002 1.427 . S
N4006 C4003 1.384 . S
N4007 C3999 1.427 1_556 S
N4007 C4005 1.384 . S
H4008 C4014 0.930 . S
H4009 C4018 0.930 1_655 S
H4010 C4023 0.929 . S
H4011 C4021 0.929 . S
H4012 C4016 0.929 . S
H4013 C4022 0.929 1_455 S
C4014 H4008 0.930 . S
C4014 C4015 1.367 . S
C4014 C4022 1.378 . S
C4015 C4014 1.367 . S
C4015 C4023 1.433 . S
C4016 H4012 0.929 . S
C4016 C4018 1.378 1_655 S
C4016 C4020 1.350 . S
C4017 C4020 1.463 . S
C4017 C4022 1.350 . S
C4017 N4025 1.427 . S
C4018 H4009 0.930 1_455 S
C4018 C4016 1.378 1_455 S
C4018 C4019 1.367 . S
C4019 C4018 1.367 . S
C4019 C4021 1.433 . S
C4020 C4016 1.350 . S
C4020 C4017 1.463 . S
C4020 N4024 1.427 1_655 S
C4021 H4011 0.929 . S
C4021 C4019 1.433 . S
C4021 N4024 1.384 . S
C4022 H4013 0.929 1_655 S
C4022 C4014 1.378 . S
C4022 C4017 1.350 . S
C4023 H4010 0.929 . S
C4023 C4015 1.433 . S
C4023 N4025 1.384 . S
N4024 C4020 1.427 1_455 S
N4024 C4021 1.384 . S
N4025 C4017 1.427 . S
N4025 C4023 1.384 . S
H4026 C4032 0.930 . S
H4027 C4036 0.930 . S
H4028 C4041 0.929 . S
H4029 C4039 0.929 . S
H4030 C4034 0.929 . S
H4031 C4040 0.929 . S
C4032 H4026 0.930 . S
C4032 C4033 1.367 . S
C4032 C4040 1.378 . S
C4033 C4032 1.367 . S
C4033 C4041 1.433 . S
C4034 H4030 0.929 . S
C4034 C4036 1.378 . S
C4034 C4038 1.350 . S
C4035 C4038 1.463 . S
C4035 C4040 1.350 . S
C4035 N4043 1.427 . S
C4036 H4027 0.930 . S
C4036 C4034 1.378 . S
C4036 C4037 1.367 . S
C4037 C4036 1.367 . S
C4037 C4039 1.433 . S
C4038 C4034 1.350 . S
C4038 C4035 1.463 . S
C4038 N4042 1.427 . S
C4039 H4029 0.929 . S
C4039 C4037 1.433 . S
C4039 N4042 1.384 . S
C4040 H4031 0.929 . S
C4040 C4032 1.378 . S
C4040 C4035 1.350 . S
C4041 H4028 0.929 . S
C4041 C4033 1.433 . S
C4041 N4043 1.384 . S
N4042 C4038 1.427 . S
N4042 C4039 1.384 . S
N4043 C4035 1.427 . S
N4043 C4041 1.384 . S
H4044 C4050 0.930 . S
H4045 C4054 0.930 . S
H4046 C4059 0.929 . S
H4047 C4057 0.929 . S
H4048 C4052 0.929 . S
H4049 C4058 0.929 . S
C4050 H4044 0.930 . S
C4050 C4051 1.367 . S
C4050 C4058 1.378 . S
C4051 C4050 1.367 . S
C4051 C4059 1.433 . S
C4052 H4048 0.929 . S
C4052 C4054 1.378 . S
C4052 C4056 1.350 . S
C4053 C4056 1.463 . S
C4053 C4058 1.350 . S
C4053 N4061 1.427 . S
C4054 H4045 0.930 . S
C4054 C4052 1.378 . S
C4054 C4055 1.367 . S
C4055 C4054 1.367 . S
C4055 C4057 1.433 . S
C4056 C4052 1.350 . S
C4056 C4053 1.463 . S
C4056 N4060 1.427 . S
C4057 H4047 0.929 . S
C4057 C4055 1.433 . S
C4057 N4060 1.384 . S
C4058 H4049 0.929 . S
C4058 C4050 1.378 . S
C4058 C4053 1.350 . S
C4059 H4046 0.929 . S
C4059 C4051 1.433 . S
C4059 N4061 1.384 . S
N4060 C4056 1.427 . S
N4060 C4057 1.384 . S
N4061 C4053 1.427 . S
N4061 C4059 1.384 . S
H4062 C4068 0.930 . S
H4063 C4072 0.930 . S
H4064 C4077 0.929 . S
H4065 C4075 0.929 . S
H4066 C4070 0.929 . S
H4067 C4076 0.929 . S
C4068 H4062 0.930 . S
C4068 C4069 1.367 . S
C4068 C4076 1.378 . S
C4069 C4068 1.367 . S
C4069 C4077 1.433 . S
C4070 H4066 0.929 . S
C4070 C4072 1.378 . S
C4070 C4074 1.350 1_554 S
C4071 C4074 1.463 . S
C4071 C4076 1.350 . S
C4071 N4079 1.427 . S
C4072 H4063 0.930 . S
C4072 C4070 1.378 . S
C4072 C4073 1.367 . S
C4073 C4072 1.367 . S
C4073 C4075 1.433 . S
C4074 C4070 1.350 1_556 S
C4074 C4071 1.463 . S
C4074 N4078 1.432 . S
C4075 H4065 0.929 . S
C4075 C4073 1.433 . S
C4075 N4078 1.366 1_554 S
C4076 H4067 0.929 . S
C4076 C4068 1.378 . S
C4076 C4071 1.350 . S
C4077 H4064 0.929 . S
C4077 C4069 1.433 . S
C4077 N4079 1.384 . S
N4078 C4074 1.432 . S
N4078 C4075 1.366 1_556 S
N4079 C4071 1.427 . S
N4079 C4077 1.384 . S
H4080 C4086 0.930 . S
H4081 C4090 0.930 . S
H4082 C4095 0.929 . S
H4083 C4093 0.929 . S
H4084 C4088 0.929 . S
H4085 C4094 0.929 . S
C4086 H4080 0.930 . S
C4086 C4087 1.367 . S
C4086 C4094 1.378 1_545 S
C4087 C4086 1.367 . S
C4087 C4095 1.433 . S
C4088 H4084 0.929 . S
C4088 C4090 1.378 . S
C4088 C4092 1.350 . S
C4089 C4092 1.463 . S
C4089 C4094 1.350 . S
C4089 N4097 1.427 1_565 S
C4090 H4081 0.930 . S
C4090 C4088 1.378 . S
C4090 C4091 1.367 . S
C4091 C4090 1.367 . S
C4091 C4093 1.433 . S
C4092 C4088 1.350 . S
C4092 C4089 1.463 . S
C4092 N4096 1.427 . S
C4093 H4083 0.929 . S
C4093 C4091 1.433 . S
C4093 N4096 1.384 . S
C4094 H4085 0.929 . S
C4094 C4086 1.378 1_565 S
C4094 C4089 1.350 . S
C4095 H4082 0.929 . S
C4095 C4087 1.433 . S
C4095 N4097 1.384 . S
N4096 C4092 1.427 . S
N4096 C4093 1.384 . S
N4097 C4089 1.427 1_545 S
N4097 C4095 1.384 . S
H4098 C4104 0.930 . S
H4099 C4108 0.930 1_545 S
H4100 C4113 0.929 . S
H4101 C4111 0.929 . S
H4102 C4106 0.929 . S
H4103 C4112 0.929 1_565 S
C4104 H4098 0.930 . S
C4104 C4105 1.367 . S
C4104 C4112 1.378 . S
C4105 C4104 1.367 . S
C4105 C4113 1.433 . S
C4106 H4102 0.929 . S
C4106 C4108 1.378 1_545 S
C4106 C4110 1.350 . S
C4107 C4110 1.463 . S
C4107 C4112 1.350 . S
C4107 N4115 1.427 . S
C4108 H4099 0.930 1_565 S
C4108 C4106 1.378 1_565 S
C4108 C4109 1.367 . S
C4109 C4108 1.367 . S
C4109 C4111 1.433 . S
C4110 C4106 1.350 . S
C4110 C4107 1.463 . S
C4110 N4114 1.427 1_545 S
C4111 H4101 0.929 . S
C4111 C4109 1.433 . S
C4111 N4114 1.384 . S
C4112 H4103 0.929 1_545 S
C4112 C4104 1.378 . S
C4112 C4107 1.350 . S
C4113 H4100 0.929 . S
C4113 C4105 1.433 . S
C4113 N4115 1.384 . S
N4114 C4110 1.427 1_565 S
N4114 C4111 1.384 . S
N4115 C4107 1.427 . S
N4115 C4113 1.384 . S
H4116 C4122 0.930 . S
H4117 C4126 0.930 . S
H4118 C4131 0.929 . S
H4119 C4129 0.929 . S
H4120 C4124 0.929 . S
H4121 C4130 0.929 . S
C4122 H4116 0.930 . S
C4122 C4123 1.367 . S
C4122 C4130 1.378 1_565 S
C4123 C4122 1.367 . S
C4123 C4131 1.433 . S
C4124 H4120 0.929 . S
C4124 C4126 1.378 . S
C4124 C4128 1.350 . S
C4125 C4128 1.463 . S
C4125 C4130 1.350 . S
C4125 N4133 1.427 1_545 S
C4126 H4117 0.930 . S
C4126 C4124 1.378 . S
C4126 C4127 1.367 . S
C4127 C4126 1.367 . S
C4127 C4129 1.433 . S
C4128 C4124 1.350 . S
C4128 C4125 1.463 . S
C4128 N4132 1.427 . S
C4129 H4119 0.929 . S
C4129 C4127 1.433 . S
C4129 N4132 1.384 . S
C4130 H4121 0.929 . S
C4130 C4122 1.378 1_545 S
C4130 C4125 1.350 . S
C4131 H4118 0.929 . S
C4131 C4123 1.433 . S
C4131 N4133 1.384 . S
N4132 C4128 1.427 . S
N4132 C4129 1.384 . S
N4133 C4125 1.427 1_565 S
N4133 C4131 1.384 . S
H4134 C4140 0.930 . S
H4135 C4144 0.930 . S
H4136 C4149 0.929 . S
H4137 C4147 0.929 . S
H4138 C4142 0.929 . S
H4139 C4148 0.929 . S
C4140 H4134 0.930 . S
C4140 C4141 1.367 . S
C4140 C4148 1.378 . S
C4141 C4140 1.367 . S
C4141 C4149 1.433 . S
C4142 H4138 0.929 . S
C4142 C4144 1.378 . S
C4142 C4146 1.350 . S
C4143 C4146 1.463 . S
C4143 C4148 1.350 1_565 S
C4143 N4151 1.433 . S
C4144 H4135 0.930 . S
C4144 C4142 1.378 . S
C4144 C4145 1.367 . S
C4145 C4144 1.367 . S
C4145 C4147 1.433 . S
C4146 C4142 1.350 . S
C4146 C4143 1.463 . S
C4146 N4150 1.427 . S
C4147 H4137 0.929 . S
C4147 C4145 1.433 . S
C4147 N4150 1.384 . S
C4148 H4139 0.929 . S
C4148 C4140 1.378 . S
C4148 C4143 1.350 1_545 S
C4149 H4136 0.929 . S
C4149 C4141 1.433 . S
C4149 N4151 1.361 1_545 S
N4150 C4146 1.427 . S
N4150 C4147 1.384 . S
N4151 C4143 1.433 . S
N4151 C4149 1.361 1_565 S
H4152 C4158 0.930 . S
H4153 C4162 0.912 1_554 S
H4154 C4167 0.929 . S
H4155 C4165 0.929 . S
H4156 C4160 0.929 . S
H4157 C4166 0.929 1_556 S
C4158 H4152 0.930 . S
C4158 C4159 1.367 . S
C4158 C4166 1.378 . S
C4159 C4158 1.367 . S
C4159 C4167 1.433 . S
C4160 H4156 0.929 . S
C4160 C4162 1.378 1_554 S
C4160 C4164 1.350 . S
C4161 C4164 1.463 . S
C4161 C4166 1.350 . S
C4161 N4169 1.427 . S
C4162 H4153 0.912 1_556 S
C4162 C4160 1.378 1_556 S
C4162 C4163 1.367 . S
C4163 C4162 1.367 . S
C4163 C4165 1.433 . S
C4164 C4160 1.350 . S
C4164 C4161 1.463 . S
C4164 N4168 1.427 1_554 S
C4165 H4155 0.929 . S
C4165 C4163 1.433 . S
C4165 N4168 1.384 . S
C4166 H4157 0.929 1_554 S
C4166 C4158 1.378 . S
C4166 C4161 1.350 . S
C4167 H4154 0.929 . S
C4167 C4159 1.433 . S
C4167 N4169 1.384 . S
N4168 C4164 1.427 1_556 S
N4168 C4165 1.384 . S
N4169 C4161 1.427 . S
N4169 C4167 1.384 . S
H4170 C4176 0.930 . S
H4171 C4180 0.930 . S
H4172 C4185 0.929 . S
H4173 C4183 0.929 . S
H4174 C4178 0.929 . S
H4175 C4184 0.929 . S
C4176 H4170 0.930 . S
C4176 C4177 1.367 . S
C4176 C4184 1.378 . S
C4177 C4176 1.367 . S
C4177 C4185 1.433 . S
C4178 H4174 0.929 . S
C4178 C4180 1.378 . S
C4178 C4182 1.350 1_655 S
C4179 C4182 1.463 . S
C4179 C4184 1.350 . S
C4179 N4187 1.427 . S
C4180 H4171 0.930 . S
C4180 C4178 1.378 . S
C4180 C4181 1.367 . S
C4181 C4180 1.367 . S
C4181 C4183 1.433 . S
C4182 C4178 1.350 1_455 S
C4182 C4179 1.463 . S
C4182 N4186 1.427 . S
C4183 H4173 0.929 . S
C4183 C4181 1.433 . S
C4183 N4186 1.384 1_655 S
C4184 H4175 0.929 . S
C4184 C4176 1.378 . S
C4184 C4179 1.350 . S
C4185 H4172 0.929 . S
C4185 C4177 1.433 . S
C4185 N4187 1.384 . S
N4186 C4182 1.427 . S
N4186 C4183 1.384 1_455 S
N4187 C4179 1.427 . S
N4187 C4185 1.384 . S
H4188 C4194 0.930 . S
H4189 C4198 0.930 . S
H4190 C4203 0.929 . S
H4191 C4201 0.929 . S
H4192 C4196 0.929 . S
H4193 C4202 0.929 . S
C4194 H4188 0.930 . S
C4194 C4195 1.367 . S
C4194 C4202 1.378 . S
C4195 C4194 1.367 . S
C4195 C4203 1.433 . S
C4196 H4192 0.929 . S
C4196 C4198 1.378 . S
C4196 C4200 1.350 . S
C4197 C4200 1.463 . S
C4197 C4202 1.350 . S
C4197 N4205 1.427 . S
C4198 H4189 0.930 . S
C4198 C4196 1.378 . S
C4198 C4199 1.367 . S
C4199 C4198 1.367 . S
C4199 C4201 1.433 . S
C4200 C4196 1.350 . S
C4200 C4197 1.463 . S
C4200 N4204 1.427 . S
C4201 H4191 0.929 . S
C4201 C4199 1.433 . S
C4201 N4204 1.384 . S
C4202 H4193 0.929 . S
C4202 C4194 1.378 . S
C4202 C4197 1.350 . S
C4203 H4190 0.929 . S
C4203 C4195 1.433 . S
C4203 N4205 1.384 . S
N4204 C4200 1.427 . S
N4204 C4201 1.384 . S
N4205 C4197 1.427 . S
N4205 C4203 1.384 . S
H4206 C4212 0.930 . S
H4207 C4216 0.930 . S
H4208 C4221 0.929 . S
H4209 C4219 0.929 . S
H4210 C4214 0.929 . S
H4211 C4220 0.929 . S
C4212 H4206 0.930 . S
C4212 C4213 1.367 . S
C4212 C4220 1.378 1_655 S
C4213 C4212 1.367 . S
C4213 C4221 1.433 . S
C4214 H4210 0.929 . S
C4214 C4216 1.378 . S
C4214 C4218 1.350 . S
C4215 C4218 1.463 . S
C4215 C4220 1.350 . S
C4215 N4223 1.427 1_455 S
C4216 H4207 0.930 . S
C4216 C4214 1.378 . S
C4216 C4217 1.367 . S
C4217 C4216 1.367 . S
C4217 C4219 1.433 . S
C4218 C4214 1.350 . S
C4218 C4215 1.463 . S
C4218 N4222 1.427 . S
C4219 H4209 0.929 . S
C4219 C4217 1.433 . S
C4219 N4222 1.384 . S
C4220 H4211 0.929 . S
C4220 C4212 1.378 1_455 S
C4220 C4215 1.350 . S
C4221 H4208 0.929 . S
C4221 C4213 1.433 . S
C4221 N4223 1.384 . S
N4222 C4218 1.427 . S
N4222 C4219 1.384 . S
N4223 C4215 1.427 1_655 S
N4223 C4221 1.384 . S
H4224 C4230 0.930 . S
H4225 C4234 0.930 . S
H4226 C4239 0.929 . S
H4227 C4237 0.929 . S
H4228 C4232 0.929 . S
H4229 C4238 0.929 . S
C4230 H4224 0.930 . S
C4230 C4231 1.367 . S
C4230 C4238 1.378 . S
C4231 C4230 1.367 . S
C4231 C4239 1.433 . S
C4232 H4228 0.929 . S
C4232 C4234 1.378 . S
C4232 C4236 1.350 . S
C4233 C4236 1.463 . S
C4233 C4238 1.350 . S
C4233 N4241 1.427 . S
C4234 H4225 0.930 . S
C4234 C4232 1.378 . S
C4234 C4235 1.367 . S
C4235 C4234 1.367 . S
C4235 C4237 1.433 . S
C4236 C4232 1.350 . S
C4236 C4233 1.463 . S
C4236 N4240 1.427 . S
C4237 H4227 0.929 . S
C4237 C4235 1.433 . S
C4237 N4240 1.384 . S
C4238 H4229 0.929 . S
C4238 C4230 1.378 . S
C4238 C4233 1.350 . S
C4239 H4226 0.929 . S
C4239 C4231 1.433 . S
C4239 N4241 1.384 . S
N4240 C4236 1.427 . S
N4240 C4237 1.384 . S
N4241 C4233 1.427 . S
N4241 C4239 1.384 . S
H4242 C4248 0.930 . S
H4243 C4252 0.930 . S
H4244 C4257 0.930 1_455 S
H4245 C4255 0.929 . S
H4246 C4250 0.929 . S
H4247 C4256 0.929 . S
C4248 H4242 0.930 . S
C4248 C4249 1.367 . S
C4248 C4256 1.378 . S
C4249 C4248 1.367 . S
C4249 C4257 1.433 . S
C4250 H4246 0.929 . S
C4250 C4252 1.378 . S
C4250 C4254 1.350 . S
C4251 C4254 1.463 . S
C4251 C4256 1.350 1_455 S
C4251 N4259 1.427 . S
C4252 H4243 0.930 . S
C4252 C4250 1.378 . S
C4252 C4253 1.367 . S
C4253 C4252 1.367 . S
C4253 C4255 1.433 . S
C4254 C4250 1.350 . S
C4254 C4251 1.463 . S
C4254 N4258 1.427 . S
C4255 H4245 0.929 . S
C4255 C4253 1.433 . S
C4255 N4258 1.384 . S
C4256 H4247 0.929 . S
C4256 C4248 1.378 . S
C4256 C4251 1.350 1_655 S
C4257 H4244 0.930 1_655 S
C4257 C4249 1.433 . S
C4257 N4259 1.384 1_655 S
N4258 C4254 1.427 . S
N4258 C4255 1.384 . S
N4259 C4251 1.427 . S
N4259 C4257 1.384 1_455 S
H4260 C4266 0.930 . S
H4261 C4270 0.930 . S
H4262 C4275 0.929 . S
H4263 C4273 0.929 . S
H4264 C4268 0.929 . S
H4265 C4274 0.929 . S
C4266 H4260 0.930 . S
C4266 C4267 1.367 . S
C4266 C4274 1.378 . S
C4267 C4266 1.367 . S
C4267 C4275 1.433 . S
C4268 H4264 0.929 . S
C4268 C4270 1.378 . S
C4268 C4272 1.350 . S
C4269 C4272 1.463 . S
C4269 C4274 1.350 . S
C4269 N4277 1.427 . S
C4270 H4261 0.930 . S
C4270 C4268 1.378 . S
C4270 C4271 1.367 . S
C4271 C4270 1.367 . S
C4271 C4273 1.433 . S
C4272 C4268 1.350 . S
C4272 C4269 1.463 . S
C4272 N4276 1.427 . S
C4273 H4263 0.929 . S
C4273 C4271 1.433 . S
C4273 N4276 1.384 . S
C4274 H4265 0.929 . S
C4274 C4266 1.378 . S
C4274 C4269 1.350 . S
C4275 H4262 0.929 . S
C4275 C4267 1.433 . S
C4275 N4277 1.384 . S
N4276 C4272 1.427 . S
N4276 C4273 1.384 . S
N4277 C4269 1.427 . S
N4277 C4275 1.384 . S
H4278 C4284 0.930 . S
H4279 C4288 0.930 . S
H4280 C4293 0.929 . S
H4281 C4291 0.929 . S
H4282 C4286 0.929 . S
H4283 C4292 0.929 . S
C4284 H4278 0.930 . S
C4284 C4285 1.367 . S
C4284 C4292 1.378 . S
C4285 C4284 1.367 . S
C4285 C4293 1.433 . S
C4286 H4282 0.929 . S
C4286 C4288 1.378 . S
C4286 C4290 1.350 . S
C4287 C4290 1.463 . S
C4287 C4292 1.350 . S
C4287 N4295 1.427 . S
C4288 H4279 0.930 . S
C4288 C4286 1.378 . S
C4288 C4289 1.367 . S
C4289 C4288 1.367 . S
C4289 C4291 1.433 . S
C4290 C4286 1.350 . S
C4290 C4287 1.463 . S
C4290 N4294 1.427 . S
C4291 H4281 0.929 . S
C4291 C4289 1.433 . S
C4291 N4294 1.384 . S
C4292 H4283 0.929 . S
C4292 C4284 1.378 . S
C4292 C4287 1.350 . S
C4293 H4280 0.929 . S
C4293 C4285 1.433 . S
C4293 N4295 1.384 . S
N4294 C4290 1.427 . S
N4294 C4291 1.384 . S
N4295 C4287 1.427 . S
N4295 C4293 1.384 . S
H4296 C4302 0.930 . S
H4297 C4306 0.930 . S
H4298 C4311 0.929 . S
H4299 C4309 0.929 . S
H4300 C4304 0.929 . S
H4301 C4310 0.929 . S
C4302 H4296 0.930 . S
C4302 C4303 1.367 . S
C4302 C4310 1.378 1_554 S
C4303 C4302 1.367 . S
C4303 C4311 1.433 . S
C4304 H4300 0.929 . S
C4304 C4306 1.378 . S
C4304 C4308 1.350 . S
C4305 C4308 1.463 . S
C4305 C4310 1.350 . S
C4305 N4313 1.427 1_556 S
C4306 H4297 0.930 . S
C4306 C4304 1.378 . S
C4306 C4307 1.367 . S
C4307 C4306 1.367 . S
C4307 C4309 1.433 . S
C4308 C4304 1.350 . S
C4308 C4305 1.463 . S
C4308 N4312 1.427 . S
C4309 H4299 0.929 . S
C4309 C4307 1.433 . S
C4309 N4312 1.384 . S
C4310 H4301 0.929 . S
C4310 C4302 1.378 1_556 S
C4310 C4305 1.350 . S
C4311 H4298 0.929 . S
C4311 C4303 1.433 . S
C4311 N4313 1.384 . S
N4312 C4308 1.427 . S
N4312 C4309 1.384 . S
N4313 C4305 1.427 1_554 S
N4313 C4311 1.384 . S
H4314 C4320 0.930 . S
H4315 C4324 0.930 . S
H4316 C4329 0.930 . S
H4317 C4327 0.929 . S
H4318 C4322 0.929 . S
H4319 C4328 0.929 . S
C4320 H4314 0.930 . S
C4320 C4321 1.367 . S
C4320 C4328 1.378 . S
C4321 C4320 1.367 . S
C4321 C4329 1.433 . S
C4322 H4318 0.929 . S
C4322 C4324 1.378 . S
C4322 C4326 1.350 . S
C4323 C4326 1.463 . S
C4323 C4328 1.350 1_455 S
C4323 N4331 1.427 . S
C4324 H4315 0.930 . S
C4324 C4322 1.378 . S
C4324 C4325 1.367 . S
C4325 C4324 1.367 . S
C4325 C4327 1.433 . S
C4326 C4322 1.350 . S
C4326 C4323 1.463 . S
C4326 N4330 1.427 . S
C4327 H4317 0.929 . S
C4327 C4325 1.433 . S
C4327 N4330 1.384 . S
C4328 H4319 0.929 . S
C4328 C4320 1.378 . S
C4328 C4323 1.350 1_655 S
C4329 H4316 0.930 . S
C4329 C4321 1.433 . S
C4329 N4331 1.384 1_655 S
N4330 C4326 1.427 . S
N4330 C4327 1.384 . S
N4331 C4323 1.427 . S
N4331 C4329 1.384 1_455 S
H4332 C4338 0.930 . S
H4333 C4342 0.930 . S
H4334 C4347 0.929 . S
H4335 C4345 0.929 . S
H4336 C4340 0.929 . S
H4337 C4346 0.929 . S
C4338 H4332 0.930 . S
C4338 C4339 1.367 . S
C4338 C4346 1.378 . S
C4339 C4338 1.367 . S
C4339 C4347 1.433 . S
C4340 H4336 0.929 . S
C4340 C4342 1.378 . S
C4340 C4344 1.350 . S
C4341 C4344 1.463 . S
C4341 C4346 1.350 . S
C4341 N4349 1.427 . S
C4342 H4333 0.930 . S
C4342 C4340 1.378 . S
C4342 C4343 1.367 . S
C4343 C4342 1.367 . S
C4343 C4345 1.433 . S
C4344 C4340 1.350 . S
C4344 C4341 1.463 . S
C4344 N4348 1.427 . S
C4345 H4335 0.929 . S
C4345 C4343 1.433 . S
C4345 N4348 1.384 . S
C4346 H4337 0.929 . S
C4346 C4338 1.378 . S
C4346 C4341 1.350 . S
C4347 H4334 0.929 . S
C4347 C4339 1.433 . S
C4347 N4349 1.384 . S
N4348 C4344 1.427 . S
N4348 C4345 1.384 . S
N4349 C4341 1.427 . S
N4349 C4347 1.384 . S
H4350 C4356 0.930 . S
H4351 C4360 0.930 . S
H4352 C4365 0.929 . S
H4353 C4363 0.929 . S
H4354 C4358 0.929 . S
H4355 C4364 0.929 . S
C4356 H4350 0.930 . S
C4356 C4357 1.367 . S
C4356 C4364 1.378 . S
C4357 C4356 1.367 . S
C4357 C4365 1.433 . S
C4358 H4354 0.929 . S
C4358 C4360 1.378 . S
C4358 C4362 1.350 . S
C4359 C4362 1.463 . S
C4359 C4364 1.350 . S
C4359 N4367 1.427 . S
C4360 H4351 0.930 . S
C4360 C4358 1.378 . S
C4360 C4361 1.367 . S
C4361 C4360 1.367 . S
C4361 C4363 1.433 . S
C4362 C4358 1.350 . S
C4362 C4359 1.463 . S
C4362 N4366 1.427 . S
C4363 H4353 0.929 . S
C4363 C4361 1.433 . S
C4363 N4366 1.384 . S
C4364 H4355 0.929 . S
C4364 C4356 1.378 . S
C4364 C4359 1.350 . S
C4365 H4352 0.929 . S
C4365 C4357 1.433 . S
C4365 N4367 1.384 . S
N4366 C4362 1.427 . S
N4366 C4363 1.384 . S
N4367 C4359 1.427 . S
N4367 C4365 1.384 . S
H4368 C4374 0.930 . S
H4369 C4378 0.930 . S
H4370 C4383 0.929 . S
H4371 C4381 0.929 . S
H4372 C4376 0.915 1_554 S
H4373 C4382 0.929 . S
C4374 H4368 0.930 . S
C4374 C4375 1.367 . S
C4374 C4382 1.378 . S
C4375 C4374 1.367 . S
C4375 C4383 1.433 . S
C4376 H4372 0.915 1_556 S
C4376 C4378 1.400 . S
C4376 C4380 1.343 1_556 S
C4377 C4380 1.463 . S
C4377 C4382 1.350 . S
C4377 N4385 1.427 . S
C4378 H4369 0.930 . S
C4378 C4376 1.400 . S
C4378 C4379 1.367 . S
C4379 C4378 1.367 . S
C4379 C4381 1.433 . S
C4380 C4376 1.343 1_554 S
C4380 C4377 1.463 . S
C4380 N4384 1.427 1_554 S
C4381 H4371 0.929 . S
C4381 C4379 1.433 . S
C4381 N4384 1.384 . S
C4382 H4373 0.929 . S
C4382 C4374 1.378 . S
C4382 C4377 1.350 . S
C4383 H4370 0.929 . S
C4383 C4375 1.433 . S
C4383 N4385 1.384 . S
N4384 C4380 1.427 1_556 S
N4384 C4381 1.384 . S
N4385 C4377 1.427 . S
N4385 C4383 1.384 . S
H4386 C4392 0.930 . S
H4387 C4396 0.930 . S
H4388 C4401 0.929 . S
H4389 C4399 0.929 . S
H4390 C4394 0.929 . S
H4391 C4400 0.929 1_545 S
C4392 H4386 0.930 . S
C4392 C4393 1.367 . S
C4392 C4400 1.378 . S
C4393 C4392 1.367 . S
C4393 C4401 1.433 . S
C4394 H4390 0.929 . S
C4394 C4396 1.378 . S
C4394 C4398 1.350 . S
C4395 C4398 1.463 . S
C4395 C4400 1.350 1_545 S
C4395 N4403 1.427 1_545 S
C4396 H4387 0.930 . S
C4396 C4394 1.378 . S
C4396 C4397 1.367 . S
C4397 C4396 1.367 . S
C4397 C4399 1.433 . S
C4398 C4394 1.350 . S
C4398 C4395 1.463 . S
C4398 N4402 1.427 . S
C4399 H4389 0.929 . S
C4399 C4397 1.433 . S
C4399 N4402 1.384 . S
C4400 H4391 0.929 1_565 S
C4400 C4392 1.378 . S
C4400 C4395 1.350 1_565 S
C4401 H4388 0.929 . S
C4401 C4393 1.433 . S
C4401 N4403 1.384 . S
N4402 C4398 1.427 . S
N4402 C4399 1.384 . S
N4403 C4395 1.427 1_565 S
N4403 C4401 1.384 . S
H4404 C4410 0.930 . S
H4405 C4414 0.930 . S
H4406 C4419 0.929 . S
H4407 C4417 0.929 . S
H4408 C4412 0.929 . S
H4409 C4418 0.929 . S
C4410 H4404 0.930 . S
C4410 C4411 1.367 . S
C4410 C4418 1.378 . S
C4411 C4410 1.367 . S
C4411 C4419 1.433 . S
C4412 H4408 0.929 . S
C4412 C4414 1.378 . S
C4412 C4416 1.350 1_545 S
C4413 C4416 1.463 . S
C4413 C4418 1.350 . S
C4413 N4421 1.427 . S
C4414 H4405 0.930 . S
C4414 C4412 1.378 . S
C4414 C4415 1.367 . S
C4415 C4414 1.367 . S
C4415 C4417 1.433 . S
C4416 C4412 1.350 1_565 S
C4416 C4413 1.463 . S
C4416 N4420 1.427 . S
C4417 H4407 0.929 . S
C4417 C4415 1.433 . S
C4417 N4420 1.384 1_545 S
C4418 H4409 0.929 . S
C4418 C4410 1.378 . S
C4418 C4413 1.350 . S
C4419 H4406 0.929 . S
C4419 C4411 1.433 . S
C4419 N4421 1.384 . S
N4420 C4416 1.427 . S
N4420 C4417 1.384 1_565 S
N4421 C4413 1.427 . S
N4421 C4419 1.384 . S
H4422 C4428 0.930 . S
H4423 C4432 0.930 . S
H4424 C4437 0.929 . S
H4425 C4435 0.929 . S
H4426 C4430 0.914 1_565 S
H4427 C4436 0.929 . S
C4428 H4422 0.930 . S
C4428 C4429 1.367 . S
C4428 C4436 1.378 . S
C4429 C4428 1.367 . S
C4429 C4437 1.433 . S
C4430 H4426 0.914 1_545 S
C4430 C4432 1.378 . S
C4430 C4434 1.350 1_545 S
C4431 C4434 1.463 . S
C4431 C4436 1.350 . S
C4431 N4439 1.427 . S
C4432 H4423 0.930 . S
C4432 C4430 1.378 . S
C4432 C4433 1.367 . S
C4433 C4432 1.367 . S
C4433 C4435 1.433 . S
C4434 C4430 1.350 1_565 S
C4434 C4431 1.463 . S
C4434 N4438 1.427 1_565 S
C4435 H4425 0.929 . S
C4435 C4433 1.433 . S
C4435 N4438 1.384 . S
C4436 H4427 0.929 . S
C4436 C4428 1.378 . S
C4436 C4431 1.350 . S
C4437 H4424 0.929 . S
C4437 C4429 1.433 . S
C4437 N4439 1.384 . S
N4438 C4434 1.427 1_545 S
N4438 C4435 1.384 . S
N4439 C4431 1.427 . S
N4439 C4437 1.384 . S
H4440 C4446 0.930 . S
H4441 C4450 0.930 . S
H4442 C4455 0.929 . S
H4443 C4453 0.923 1_545 S
H4444 C4448 0.929 . S
H4445 C4454 0.929 . S
C4446 H4440 0.930 . S
C4446 C4447 1.367 . S
C4446 C4454 1.378 . S
C4447 C4446 1.367 . S
C4447 C4455 1.433 . S
C4448 H4444 0.929 . S
C4448 C4450 1.378 . S
C4448 C4452 1.350 1_565 S
C4449 C4452 1.463 . S
C4449 C4454 1.350 . S
C4449 N4457 1.427 . S
C4450 H4441 0.930 . S
C4450 C4448 1.378 . S
C4450 C4451 1.367 . S
C4451 C4450 1.367 . S
C4451 C4453 1.433 . S
C4452 C4448 1.350 1_545 S
C4452 C4449 1.463 . S
C4452 N4456 1.427 . S
C4453 H4443 0.923 1_565 S
C4453 C4451 1.433 . S
C4453 N4456 1.384 1_565 S
C4454 H4445 0.929 . S
C4454 C4446 1.378 . S
C4454 C4449 1.350 . S
C4455 H4442 0.929 . S
C4455 C4447 1.433 . S
C4455 N4457 1.384 . S
N4456 C4452 1.427 . S
N4456 C4453 1.384 1_545 S
N4457 C4449 1.427 . S
N4457 C4455 1.384 . S
H4458 C4464 0.930 . S
H4459 C4468 0.930 . S
H4460 C4473 0.929 . S
H4461 C4471 0.929 . S
H4462 C4466 0.929 . S
H4463 C4472 0.929 . S
C4464 H4458 0.930 . S
C4464 C4465 1.367 . S
C4464 C4472 1.378 . S
C4465 C4464 1.367 . S
C4465 C4473 1.433 . S
C4466 H4462 0.929 . S
C4466 C4468 1.378 . S
C4466 C4470 1.350 1_554 S
C4467 C4470 1.463 . S
C4467 C4472 1.350 . S
C4467 N4475 1.427 . S
C4468 H4459 0.930 . S
C4468 C4466 1.378 . S
C4468 C4469 1.367 . S
C4469 C4468 1.367 . S
C4469 C4471 1.433 . S
C4470 C4466 1.350 1_556 S
C4470 C4467 1.463 . S
C4470 N4474 1.427 . S
C4471 H4461 0.929 . S
C4471 C4469 1.433 . S
C4471 N4474 1.384 1_554 S
C4472 H4463 0.929 . S
C4472 C4464 1.378 . S
C4472 C4467 1.350 . S
C4473 H4460 0.929 . S
C4473 C4465 1.433 . S
C4473 N4475 1.384 . S
N4474 C4470 1.427 . S
N4474 C4471 1.384 1_556 S
N4475 C4467 1.427 . S
N4475 C4473 1.384 . S
H4476 C4482 0.930 . S
H4477 C4486 0.930 . S
H4478 C4491 0.929 . S
H4479 C4489 0.929 . S
H4480 C4484 0.929 . S
H4481 C4490 0.929 . S
C4482 H4476 0.930 . S
C4482 C4483 1.367 . S
C4482 C4490 1.378 . S
C4483 C4482 1.367 . S
C4483 C4491 1.433 . S
C4484 H4480 0.929 . S
C4484 C4486 1.378 1_655 S
C4484 C4488 1.350 . S
C4485 C4488 1.463 . S
C4485 C4490 1.350 . S
C4485 N4493 1.427 . S
C4486 H4477 0.930 . S
C4486 C4484 1.378 1_455 S
C4486 C4487 1.367 . S
C4487 C4486 1.367 . S
C4487 C4489 1.433 . S
C4488 C4484 1.350 . S
C4488 C4485 1.463 . S
C4488 N4492 1.427 1_655 S
C4489 H4479 0.929 . S
C4489 C4487 1.433 . S
C4489 N4492 1.384 . S
C4490 H4481 0.929 . S
C4490 C4482 1.378 . S
C4490 C4485 1.350 . S
C4491 H4478 0.929 . S
C4491 C4483 1.433 . S
C4491 N4493 1.384 . S
N4492 C4488 1.427 1_455 S
N4492 C4489 1.384 . S
N4493 C4485 1.427 . S
N4493 C4491 1.384 . S
H4494 C4500 0.930 . S
H4495 C4504 0.930 . S
H4496 C4509 0.929 . S
H4497 C4507 0.929 . S
H4498 C4502 0.929 . S
H4499 C4508 0.929 . S
C4500 H4494 0.930 . S
C4500 C4501 1.367 . S
C4500 C4508 1.378 . S
C4501 C4500 1.367 . S
C4501 C4509 1.433 . S
C4502 H4498 0.929 . S
C4502 C4504 1.378 . S
C4502 C4506 1.350 . S
C4503 C4506 1.463 . S
C4503 C4508 1.350 . S
C4503 N4511 1.427 . S
C4504 H4495 0.930 . S
C4504 C4502 1.378 . S
C4504 C4505 1.367 . S
C4505 C4504 1.367 . S
C4505 C4507 1.433 . S
C4506 C4502 1.350 . S
C4506 C4503 1.463 . S
C4506 N4510 1.427 . S
C4507 H4497 0.929 . S
C4507 C4505 1.433 . S
C4507 N4510 1.384 . S
C4508 H4499 0.929 . S
C4508 C4500 1.378 . S
C4508 C4503 1.350 . S
C4509 H4496 0.929 . S
C4509 C4501 1.433 . S
C4509 N4511 1.384 . S
N4510 C4506 1.427 . S
N4510 C4507 1.384 . S
N4511 C4503 1.427 . S
N4511 C4509 1.384 . S
H4512 C4518 0.930 . S
H4513 C4522 0.930 . S
H4514 C4527 0.929 . S
H4515 C4525 0.941 . S
H4516 C4520 0.929 . S
H4517 C4526 0.929 . S
C4518 H4512 0.930 . S
C4518 C4519 1.367 . S
C4518 C4526 1.378 . S
C4519 C4518 1.367 . S
C4519 C4527 1.433 . S
C4520 H4516 0.929 . S
C4520 C4522 1.378 . S
C4520 C4524 1.350 1_455 S
C4521 C4524 1.463 . S
C4521 C4526 1.350 . S
C4521 N4529 1.427 . S
C4522 H4513 0.930 . S
C4522 C4520 1.378 . S
C4522 C4523 1.367 . S
C4523 C4522 1.367 . S
C4523 C4525 1.433 . S
C4524 C4520 1.350 1_655 S
C4524 C4521 1.463 . S
C4524 N4528 1.427 . S
C4525 H4515 0.941 . S
C4525 C4523 1.433 . S
C4525 N4528 1.384 1_455 S
C4526 H4517 0.929 . S
C4526 C4518 1.378 . S
C4526 C4521 1.350 . S
C4527 H4514 0.929 . S
C4527 C4519 1.433 . S
C4527 N4529 1.384 . S
N4528 C4524 1.427 . S
N4528 C4525 1.384 1_655 S
N4529 C4521 1.427 . S
N4529 C4527 1.384 . S
H4530 C4536 0.930 . S
H4531 C4540 0.930 . S
H4532 C4545 0.929 . S
H4533 C4543 0.929 . S
H4534 C4538 0.929 . S
H4535 C4544 0.929 . S
C4536 H4530 0.930 . S
C4536 C4537 1.367 . S
C4536 C4544 1.378 . S
C4537 C4536 1.367 . S
C4537 C4545 1.433 . S
C4538 H4534 0.929 . S
C4538 C4540 1.378 . S
C4538 C4542 1.350 . S
C4539 C4542 1.463 . S
C4539 C4544 1.350 . S
C4539 N4547 1.427 . S
C4540 H4531 0.930 . S
C4540 C4538 1.378 . S
C4540 C4541 1.367 . S
C4541 C4540 1.367 . S
C4541 C4543 1.433 . S
C4542 C4538 1.350 . S
C4542 C4539 1.463 . S
C4542 N4546 1.427 . S
C4543 H4533 0.929 . S
C4543 C4541 1.433 . S
C4543 N4546 1.384 . S
C4544 H4535 0.929 . S
C4544 C4536 1.378 . S
C4544 C4539 1.350 . S
C4545 H4532 0.929 . S
C4545 C4537 1.433 . S
C4545 N4547 1.384 . S
N4546 C4542 1.427 . S
N4546 C4543 1.384 . S
N4547 C4539 1.427 . S
N4547 C4545 1.384 . S
H4548 C4554 0.930 . S
H4549 C4558 0.930 . S
H4550 C4563 0.929 . S
H4551 C4561 0.929 . S
H4552 C4556 0.929 . S
H4553 C4562 0.929 . S
C4554 H4548 0.930 . S
C4554 C4555 1.367 . S
C4554 C4562 1.378 . S
C4555 C4554 1.367 . S
C4555 C4563 1.433 . S
C4556 H4552 0.929 . S
C4556 C4558 1.378 . S
C4556 C4560 1.350 . S
C4557 C4560 1.463 . S
C4557 C4562 1.350 . S
C4557 N4565 1.427 . S
C4558 H4549 0.930 . S
C4558 C4556 1.378 . S
C4558 C4559 1.367 . S
C4559 C4558 1.367 . S
C4559 C4561 1.433 . S
C4560 C4556 1.350 . S
C4560 C4557 1.463 . S
C4560 N4564 1.427 . S
C4561 H4551 0.929 . S
C4561 C4559 1.433 . S
C4561 N4564 1.384 . S
C4562 H4553 0.929 . S
C4562 C4554 1.378 . S
C4562 C4557 1.350 . S
C4563 H4550 0.929 . S
C4563 C4555 1.433 . S
C4563 N4565 1.384 . S
N4564 C4560 1.427 . S
N4564 C4561 1.384 . S
N4565 C4557 1.427 . S
N4565 C4563 1.384 . S
H4566 C4572 0.930 . S
H4567 C4576 0.930 . S
H4568 C4581 0.929 . S
H4569 C4579 0.929 . S
H4570 C4574 0.929 . S
H4571 C4580 0.929 . S
C4572 H4566 0.930 . S
C4572 C4573 1.367 . S
C4572 C4580 1.378 . S
C4573 C4572 1.367 . S
C4573 C4581 1.433 . S
C4574 H4570 0.929 . S
C4574 C4576 1.378 . S
C4574 C4578 1.350 1_554 S
C4575 C4578 1.463 . S
C4575 C4580 1.350 . S
C4575 N4583 1.427 . S
C4576 H4567 0.930 . S
C4576 C4574 1.378 . S
C4576 C4577 1.367 . S
C4577 C4576 1.367 . S
C4577 C4579 1.433 . S
C4578 C4574 1.350 1_556 S
C4578 C4575 1.463 . S
C4578 N4582 1.427 . S
C4579 H4569 0.929 . S
C4579 C4577 1.433 . S
C4579 N4582 1.384 1_554 S
C4580 H4571 0.929 . S
C4580 C4572 1.378 . S
C4580 C4575 1.350 . S
C4581 H4568 0.929 . S
C4581 C4573 1.433 . S
C4581 N4583 1.384 . S
N4582 C4578 1.427 . S
N4582 C4579 1.384 1_556 S
N4583 C4575 1.427 . S
N4583 C4581 1.384 . S
H4584 C4590 0.930 . S
H4585 C4594 0.930 . S
H4586 C4599 0.929 . S
H4587 C4597 0.929 . S
H4588 C4592 0.929 . S
H4589 C4598 0.929 . S
C4590 H4584 0.930 . S
C4590 C4591 1.367 . S
C4590 C4598 1.378 . S
C4591 C4590 1.367 . S
C4591 C4599 1.433 . S
C4592 H4588 0.929 . S
C4592 C4594 1.378 . S
C4592 C4596 1.350 . S
C4593 C4596 1.463 . S
C4593 C4598 1.350 . S
C4593 N4601 1.427 . S
C4594 H4585 0.930 . S
C4594 C4592 1.378 . S
C4594 C4595 1.367 . S
C4595 C4594 1.367 . S
C4595 C4597 1.433 . S
C4596 C4592 1.350 . S
C4596 C4593 1.463 . S
C4596 N4600 1.427 . S
C4597 H4587 0.929 . S
C4597 C4595 1.433 . S
C4597 N4600 1.384 . S
C4598 H4589 0.929 . S
C4598 C4590 1.378 . S
C4598 C4593 1.350 . S
C4599 H4586 0.929 . S
C4599 C4591 1.433 . S
C4599 N4601 1.384 . S
N4600 C4596 1.427 . S
N4600 C4597 1.384 . S
N4601 C4593 1.427 . S
N4601 C4599 1.384 . S
H4602 C4608 0.930 . S
H4603 C4612 0.930 . S
H4604 C4617 0.929 . S
H4605 C4615 0.929 . S
H4606 C4610 0.929 . S
H4607 C4616 0.929 . S
C4608 H4602 0.930 . S
C4608 C4609 1.367 . S
C4608 C4616 1.378 . S
C4609 C4608 1.367 . S
C4609 C4617 1.433 . S
C4610 H4606 0.929 . S
C4610 C4612 1.378 . S
C4610 C4614 1.350 . S
C4611 C4614 1.463 . S
C4611 C4616 1.350 . S
C4611 N4619 1.427 . S
C4612 H4603 0.930 . S
C4612 C4610 1.378 . S
C4612 C4613 1.367 . S
C4613 C4612 1.367 . S
C4613 C4615 1.433 . S
C4614 C4610 1.350 . S
C4614 C4611 1.463 . S
C4614 N4618 1.427 . S
C4615 H4605 0.929 . S
C4615 C4613 1.433 . S
C4615 N4618 1.384 . S
C4616 H4607 0.929 . S
C4616 C4608 1.378 . S
C4616 C4611 1.350 . S
C4617 H4604 0.929 . S
C4617 C4609 1.433 . S
C4617 N4619 1.384 . S
N4618 C4614 1.427 . S
N4618 C4615 1.384 . S
N4619 C4611 1.427 . S
N4619 C4617 1.384 . S
H4620 C4626 0.930 . S
H4621 C4630 0.930 . S
H4622 C4635 0.929 . S
H4623 C4633 0.929 . S
H4624 C4628 0.929 . S
H4625 C4634 0.929 . S
C4626 H4620 0.930 . S
C4626 C4627 1.367 . S
C4626 C4634 1.378 . S
C4627 C4626 1.367 . S
C4627 C4635 1.433 . S
C4628 H4624 0.929 . S
C4628 C4630 1.378 . S
C4628 C4632 1.350 . S
C4629 C4632 1.463 . S
C4629 C4634 1.350 . S
C4629 N4637 1.427 . S
C4630 H4621 0.930 . S
C4630 C4628 1.378 . S
C4630 C4631 1.367 . S
C4631 C4630 1.367 . S
C4631 C4633 1.433 . S
C4632 C4628 1.350 . S
C4632 C4629 1.463 . S
C4632 N4636 1.427 . S
C4633 H4623 0.929 . S
C4633 C4631 1.433 . S
C4633 N4636 1.384 . S
C4634 H4625 0.929 . S
C4634 C4626 1.378 . S
C4634 C4629 1.350 . S
C4635 H4622 0.929 . S
C4635 C4627 1.433 . S
C4635 N4637 1.384 . S
N4636 C4632 1.427 . S
N4636 C4633 1.384 . S
N4637 C4629 1.427 . S
N4637 C4635 1.384 . S
H4638 C4644 0.930 . S
H4639 C4648 0.930 . S
H4640 C4653 0.929 . S
H4641 C4651 0.929 . S
H4642 C4646 0.929 . S
H4643 C4652 0.929 . S
C4644 H4638 0.930 . S
C4644 C4645 1.367 . S
C4644 C4652 1.378 . S
C4645 C4644 1.367 . S
C4645 C4653 1.433 . S
C4646 H4642 0.929 . S
C4646 C4648 1.378 . S
C4646 C4650 1.350 . S
C4647 C4650 1.463 . S
C4647 C4652 1.350 . S
C4647 N4655 1.427 . S
C4648 H4639 0.930 . S
C4648 C4646 1.378 . S
C4648 C4649 1.367 . S
C4649 C4648 1.367 . S
C4649 C4651 1.433 . S
C4650 C4646 1.350 . S
C4650 C4647 1.463 . S
C4650 N4654 1.427 . S
C4651 H4641 0.929 . S
C4651 C4649 1.433 . S
C4651 N4654 1.384 . S
C4652 H4643 0.929 . S
C4652 C4644 1.378 . S
C4652 C4647 1.350 . S
C4653 H4640 0.929 . S
C4653 C4645 1.433 . S
C4653 N4655 1.384 . S
N4654 C4650 1.427 . S
N4654 C4651 1.384 . S
N4655 C4647 1.427 . S
N4655 C4653 1.384 . S
H4656 C4662 0.930 . S
H4657 C4666 0.930 . S
H4658 C4671 0.929 . S
H4659 C4669 0.929 . S
H4660 C4664 0.929 . S
H4661 C4670 0.929 . S
C4662 H4656 0.930 . S
C4662 C4663 1.367 . S
C4662 C4670 1.378 . S
C4663 C4662 1.367 . S
C4663 C4671 1.433 . S
C4664 H4660 0.929 . S
C4664 C4666 1.378 . S
C4664 C4668 1.350 . S
C4665 C4668 1.463 . S
C4665 C4670 1.350 . S
C4665 N4673 1.427 . S
C4666 H4657 0.930 . S
C4666 C4664 1.378 . S
C4666 C4667 1.367 . S
C4667 C4666 1.367 . S
C4667 C4669 1.433 . S
C4668 C4664 1.350 . S
C4668 C4665 1.463 . S
C4668 N4672 1.427 . S
C4669 H4659 0.929 . S
C4669 C4667 1.433 . S
C4669 N4672 1.384 . S
C4670 H4661 0.929 . S
C4670 C4662 1.378 . S
C4670 C4665 1.350 . S
C4671 H4658 0.929 . S
C4671 C4663 1.433 . S
C4671 N4673 1.384 . S
N4672 C4668 1.427 . S
N4672 C4669 1.384 . S
N4673 C4665 1.427 . S
N4673 C4671 1.384 . S
H4674 C4680 0.930 . S
H4675 C4684 0.930 . S
H4676 C4689 0.929 . S
H4677 C4687 0.929 . S
H4678 C4682 0.929 . S
H4679 C4688 0.929 . S
C4680 H4674 0.930 . S
C4680 C4681 1.367 . S
C4680 C4688 1.378 . S
C4681 C4680 1.367 . S
C4681 C4689 1.433 . S
C4682 H4678 0.929 . S
C4682 C4684 1.378 . S
C4682 C4686 1.350 . S
C4683 C4686 1.463 . S
C4683 C4688 1.350 . S
C4683 N4691 1.427 . S
C4684 H4675 0.930 . S
C4684 C4682 1.378 . S
C4684 C4685 1.367 . S
C4685 C4684 1.367 . S
C4685 C4687 1.433 . S
C4686 C4682 1.350 . S
C4686 C4683 1.463 . S
C4686 N4690 1.427 . S
C4687 H4677 0.929 . S
C4687 C4685 1.433 . S
C4687 N4690 1.384 . S
C4688 H4679 0.929 . S
C4688 C4680 1.378 . S
C4688 C4683 1.350 . S
C4689 H4676 0.929 . S
C4689 C4681 1.433 . S
C4689 N4691 1.384 . S
N4690 C4686 1.427 . S
N4690 C4687 1.384 . S
N4691 C4683 1.427 . S
N4691 C4689 1.384 . S
H4692 C4698 0.930 . S
H4693 C4702 0.930 1_554 S
H4694 C4707 0.929 . S
H4695 C4705 0.929 . S
H4696 C4700 0.929 . S
H4697 C4706 0.929 1_556 S
C4698 H4692 0.930 . S
C4698 C4699 1.367 . S
C4698 C4706 1.378 . S
C4699 C4698 1.367 . S
C4699 C4707 1.433 . S
C4700 H4696 0.929 . S
C4700 C4702 1.378 1_554 S
C4700 C4704 1.350 . S
C4701 C4704 1.463 . S
C4701 C4706 1.350 . S
C4701 N4709 1.427 . S
C4702 H4693 0.930 1_556 S
C4702 C4700 1.378 1_556 S
C4702 C4703 1.367 . S
C4703 C4702 1.367 . S
C4703 C4705 1.433 . S
C4704 C4700 1.350 . S
C4704 C4701 1.463 . S
C4704 N4708 1.427 1_554 S
C4705 H4695 0.929 . S
C4705 C4703 1.433 . S
C4705 N4708 1.384 . S
C4706 H4697 0.929 1_554 S
C4706 C4698 1.378 . S
C4706 C4701 1.350 . S
C4707 H4694 0.929 . S
C4707 C4699 1.433 . S
C4707 N4709 1.384 . S
N4708 C4704 1.427 1_556 S
N4708 C4705 1.384 . S
N4709 C4701 1.427 . S
N4709 C4707 1.384 . S
H4710 C4716 0.930 . S
H4711 C4720 0.930 . S
H4712 C4725 0.929 . S
H4713 C4723 0.929 . S
H4714 C4718 0.929 . S
H4715 C4724 0.929 . S
C4716 H4710 0.930 . S
C4716 C4717 1.367 . S
C4716 C4724 1.378 . S
C4717 C4716 1.367 . S
C4717 C4725 1.433 . S
C4718 H4714 0.929 . S
C4718 C4720 1.378 . S
C4718 C4722 1.350 . S
C4719 C4722 1.463 . S
C4719 C4724 1.350 . S
C4719 N4727 1.427 . S
C4720 H4711 0.930 . S
C4720 C4718 1.378 . S
C4720 C4721 1.367 . S
C4721 C4720 1.367 . S
C4721 C4723 1.433 . S
C4722 C4718 1.350 . S
C4722 C4719 1.463 . S
C4722 N4726 1.427 . S
C4723 H4713 0.929 . S
C4723 C4721 1.433 . S
C4723 N4726 1.384 . S
C4724 H4715 0.929 . S
C4724 C4716 1.378 . S
C4724 C4719 1.350 . S
C4725 H4712 0.929 . S
C4725 C4717 1.433 . S
C4725 N4727 1.384 . S
N4726 C4722 1.427 . S
N4726 C4723 1.384 . S
N4727 C4719 1.427 . S
N4727 C4725 1.384 . S
H4728 C4734 0.930 . S
H4729 C4738 0.930 . S
H4730 C4743 0.929 . S
H4731 C4741 0.929 . S
H4732 C4736 0.929 . S
H4733 C4742 0.929 . S
C4734 H4728 0.930 . S
C4734 C4735 1.367 . S
C4734 C4742 1.378 . S
C4735 C4734 1.367 . S
C4735 C4743 1.433 . S
C4736 H4732 0.929 . S
C4736 C4738 1.378 . S
C4736 C4740 1.350 . S
C4737 C4740 1.463 . S
C4737 C4742 1.350 . S
C4737 N4745 1.427 . S
C4738 H4729 0.930 . S
C4738 C4736 1.378 . S
C4738 C4739 1.367 . S
C4739 C4738 1.367 . S
C4739 C4741 1.433 . S
C4740 C4736 1.350 . S
C4740 C4737 1.463 . S
C4740 N4744 1.427 . S
C4741 H4731 0.929 . S
C4741 C4739 1.433 . S
C4741 N4744 1.384 . S
C4742 H4733 0.929 . S
C4742 C4734 1.378 . S
C4742 C4737 1.350 . S
C4743 H4730 0.929 . S
C4743 C4735 1.433 . S
C4743 N4745 1.384 . S
N4744 C4740 1.427 . S
N4744 C4741 1.384 . S
N4745 C4737 1.427 . S
N4745 C4743 1.384 . S
H4746 C4752 0.930 . S
H4747 C4756 0.930 . S
H4748 C4761 0.929 . S
H4749 C4759 0.929 . S
H4750 C4754 0.929 . S
H4751 C4760 0.929 . S
C4752 H4746 0.930 . S
C4752 C4753 1.367 . S
C4752 C4760 1.378 . S
C4753 C4752 1.367 . S
C4753 C4761 1.433 . S
C4754 H4750 0.929 . S
C4754 C4756 1.378 . S
C4754 C4758 1.350 . S
C4755 C4758 1.463 . S
C4755 C4760 1.350 . S
C4755 N4763 1.427 . S
C4756 H4747 0.930 . S
C4756 C4754 1.378 . S
C4756 C4757 1.367 . S
C4757 C4756 1.367 . S
C4757 C4759 1.433 . S
C4758 C4754 1.350 . S
C4758 C4755 1.463 . S
C4758 N4762 1.427 . S
C4759 H4749 0.929 . S
C4759 C4757 1.433 . S
C4759 N4762 1.384 . S
C4760 H4751 0.929 . S
C4760 C4752 1.378 . S
C4760 C4755 1.350 . S
C4761 H4748 0.929 . S
C4761 C4753 1.433 . S
C4761 N4763 1.384 . S
N4762 C4758 1.427 . S
N4762 C4759 1.384 . S
N4763 C4755 1.427 . S
N4763 C4761 1.384 . S
H4764 C4770 0.930 . S
H4765 C4774 0.930 . S
H4766 C4779 0.929 . S
H4767 C4777 0.929 . S
H4768 C4772 0.929 . S
H4769 C4778 0.929 . S
C4770 H4764 0.930 . S
C4770 C4771 1.367 . S
C4770 C4778 1.378 . S
C4771 C4770 1.367 . S
C4771 C4779 1.433 . S
C4772 H4768 0.929 . S
C4772 C4774 1.378 . S
C4772 C4776 1.350 . S
C4773 C4776 1.463 . S
C4773 C4778 1.350 . S
C4773 N4781 1.427 . S
C4774 H4765 0.930 . S
C4774 C4772 1.378 . S
C4774 C4775 1.367 . S
C4775 C4774 1.367 . S
C4775 C4777 1.433 . S
C4776 C4772 1.350 . S
C4776 C4773 1.463 . S
C4776 N4780 1.427 . S
C4777 H4767 0.929 . S
C4777 C4775 1.433 . S
C4777 N4780 1.384 . S
C4778 H4769 0.929 . S
C4778 C4770 1.378 . S
C4778 C4773 1.350 . S
C4779 H4766 0.929 . S
C4779 C4771 1.433 . S
C4779 N4781 1.384 . S
N4780 C4776 1.427 . S
N4780 C4777 1.384 . S
N4781 C4773 1.427 . S
N4781 C4779 1.384 . S
H4782 C4788 0.930 . S
H4783 C4792 0.930 . S
H4784 C4797 0.929 . S
H4785 C4795 0.929 . S
H4786 C4790 0.929 . S
H4787 C4796 0.929 . S
C4788 H4782 0.930 . S
C4788 C4789 1.367 . S
C4788 C4796 1.378 . S
C4789 C4788 1.367 . S
C4789 C4797 1.433 . S
C4790 H4786 0.929 . S
C4790 C4792 1.378 . S
C4790 C4794 1.350 . S
C4791 C4794 1.463 . S
C4791 C4796 1.350 . S
C4791 N4799 1.427 . S
C4792 H4783 0.930 . S
C4792 C4790 1.378 . S
C4792 C4793 1.367 . S
C4793 C4792 1.367 . S
C4793 C4795 1.433 . S
C4794 C4790 1.350 . S
C4794 C4791 1.463 . S
C4794 N4798 1.427 . S
C4795 H4785 0.929 . S
C4795 C4793 1.433 . S
C4795 N4798 1.384 . S
C4796 H4787 0.929 . S
C4796 C4788 1.378 . S
C4796 C4791 1.350 . S
C4797 H4784 0.929 . S
C4797 C4789 1.433 . S
C4797 N4799 1.384 . S
N4798 C4794 1.427 . S
N4798 C4795 1.384 . S
N4799 C4791 1.427 . S
N4799 C4797 1.384 . S
C1351 C8 1.274 . S
C1355 C1059 1.334 . S
C1369 C345 1.338 . S
C1373 C22 1.270 . S
C1387 C1031 1.340 . S
C1391 C36 1.261 . S
C1405 C373 1.334 . S
C1409 C50 1.276 . S
C1423 C64 1.275 . S
C1427 C1087 1.336 . S
C1441 C78 1.256 . S
C1445 C429 1.340 . S
C1459 C1115 1.338 . S
C1463 C92 1.269 . S
C1477 C106 1.255 . S
C1481 C401 1.340 . S
C1495 C121 1.256 . S
C1499 C1269 1.340 . S
C1513 C611 1.340 . S
C1517 C134 1.255 . S
C1531 C149 1.271 . S
C1535 C625 1.334 . S
C1549 C162 1.260 . S
C1553 C583 1.336 . S
C1567 C177 1.264 . S
C1571 C1325 1.335 . S
C1585 C190 1.255 . S
C1589 C1241 1.340 . S
C1603 C205 1.266 . S
C1607 C1339 1.335 . S
C1621 C218 1.271 . S
C1625 C1311 1.338 . S
C1639 C1143 1.339 . S
C1643 C232 1.263 . S
C1657 C246 1.266 . S
C1661 C555 1.335 . S
C1675 C261 1.259 . S
C1679 C1185 1.340 . S
C1693 C527 1.334 . S
C1697 C274 1.274 . S
C1711 C289 1.257 . S
C1715 C541 1.340 . S
C1729 C1171 1.335 . S
C1733 C302 1.266 . S
C1747 C317 1.261 . S
C1751 C1129 1.340 . S
C1765 C1157 1.338 . S
C1769 C331 1.268 . S
C1783 C723 1.339 . S
C1787 C344 1.254 . S
C1801 C9 1.334 . S
C1805 C358 1.273 . S
C1819 C372 1.262 . S
C1823 C695 1.336 . S
C1837 C386 1.264 . S
C1841 C37 1.339 . S
C1855 C400 1.276 . S
C1859 C751 1.335 . S
C1873 C93 1.334 . S
C1877 C414 1.275 . S
C1891 C428 1.260 . S
C1895 C779 1.340 . S
C1909 C442 1.275 . S
C1913 C65 1.335 . S
C1927 C456 1.276 . S
C1931 C932 1.335 . S
C1945 C275 1.335 . S
C1949 C470 1.275 . S
C1963 C484 1.263 . S
C1967 C288 1.335 . S
C1981 C247 1.339 . S
C1985 C498 1.265 . S
C1999 C512 1.262 . S
C2003 C988 1.340 . S
C2017 C526 1.261 . S
C2021 C905 1.336 . S
C2035 C540 1.260 . S
C2039 C1002 1.336 . S
C2053 C975 1.339 . S
C2057 C554 1.263 . S
C2071 C807 1.337 . S
C2075 C568 1.257 . S
C2089 C219 1.334 . S
C2093 C582 1.268 . S
C2107 C848 1.336 . S
C2111 C596 1.261 . S
C2125 C610 1.267 . S
C2129 C191 1.339 . S
C2143 C624 1.265 . S
C2147 C204 1.339 . S
C2161 C638 1.268 . S
C2165 C835 1.334 . S
C2179 C792 1.334 . S
C2183 C652 1.274 . S
C2197 C666 1.258 . S
C2201 C820 1.340 . S
C2215 C387 1.336 . S
C2219 C680 1.275 . S
C2233 C1017 1.335 . S
C2237 C694 1.265 . S
C2251 C708 1.274 . S
C2255 C359 1.334 . S
C2269 C1045 1.339 . S
C2273 C722 1.264 . S
C2287 C736 1.265 . S
C2291 C415 1.335 . S
C2305 C1101 1.338 . S
C2309 C750 1.255 . S
C2323 C764 1.268 . S
C2327 C443 1.338 . S
C2341 C1073 1.338 . S
C2345 C778 1.269 . S
C2359 C597 1.336 . S
C2363 C793 1.263 . S
C2377 C806 1.273 . S
C2381 C1283 1.334 . S
C2395 C1297 1.335 . S
C2399 C821 1.276 . S
C2413 C834 1.269 . S
C2417 C1255 1.338 . S
C2431 C653 1.339 . S
C2435 C849 1.263 . S
C2449 C862 1.276 . S
C2453 C569 1.335 . S
C2467 C667 1.338 . S
C2471 C877 1.269 . S
C2485 C639 1.340 . S
C2489 C890 1.262 . S
C2503 C471 1.339 . S
C2507 C904 1.255 . S
C2521 C1227 1.338 . S
C2525 C918 1.270 . S
C2539 C933 1.256 . S
C2543 C513 1.340 . S
C2557 C946 1.257 . S
C2561 C1199 1.340 . S
C2575 C1213 1.339 . S
C2579 C961 1.265 . S
C2593 C499 1.339 . S
C2597 C974 1.263 . S
C2611 C457 1.338 . S
C2615 C989 1.268 . S
C2629 C485 1.336 . S
C2633 C1003 1.260 . S
C2647 C1016 1.255 . S
C2651 C51 1.340 . S
C2665 C1030 1.265 . S
C2669 C681 1.335 . S
C2683 C1044 1.255 . S
C2687 C23 1.340 . S
C2701 C1058 1.275 . S
C2705 C709 1.335 . S
C2719 C79 1.338 . S
C2723 C1072 1.271 . S
C2737 C765 1.334 . S
C2741 C1086 1.273 . S
C2755 C107 1.339 . S
C2759 C1100 1.265 . S
C2773 C737 1.334 . S
C2777 C1114 1.273 . S
C2791 C1128 1.266 . S
C2795 C260 1.335 . S
C2809 C947 1.338 . S
C2813 C1142 1.257 . S
C2827 C1156 1.256 . S
C2831 C960 1.338 . S
C2845 C1170 1.267 . S
C2849 C919 1.335 . S
C2863 C316 1.340 . S
C2867 C1184 1.256 . S
C2881 C233 1.338 . S
C2885 C1198 1.256 . S
C2899 C1212 1.272 . S
C2903 C330 1.337 . S
C2917 C303 1.337 . S
C2921 C1226 1.271 . S
C2935 C1240 1.266 . S
C2939 C135 1.335 . S
C2953 C1254 1.268 . S
C2957 C891 1.338 . S
C2971 C176 1.339 . S
C2975 C1268 1.254 . S
C2989 C1282 1.275 . S
C2993 C863 1.334 . S
C3007 C876 1.338 . S
C3011 C1296 1.270 . S
C3025 C1310 1.276 . S
C3029 C163 1.335 . S
C3043 C1324 1.259 . S
C3047 C120 1.337 . S
C3061 C1338 1.262 . S
C3065 C148 1.336 . S
C3079 C6 1.379 . S
C3083 C132 1.393 . S
C3097 C20 1.392 . S
C3101 C147 1.388 . S
C3115 C160 1.376 . S
C3119 C34 1.389 . S
C3133 C48 1.392 . S
C3137 C119 1.388 . S
C3151 C216 1.377 . S
C3155 C62 1.384 . S
C3169 C76 1.394 . S
C3173 C175 1.384 . S
C3187 C90 1.380 . S
C3191 C188 1.394 . S
C3205 C203 1.383 . S
C3209 C104 1.378 . S
C3223 C259 1.386 . S
C3227 C230 1.393 . S
C3241 C244 1.390 . S
C3245 C987 1.391 . S
C3259 C1001 1.389 . S
C3263 C272 1.376 . S
C3277 C287 1.392 . S
C3281 C972 1.378 . S
C3295 C959 1.391 . S
C3299 C300 1.389 . S
C3313 C315 1.393 . S
C3317 C916 1.380 . S
C3331 C329 1.385 . S
C3335 C944 1.394 . S
C3349 C342 1.390 . S
C3353 C468 1.391 . S
C3367 C482 1.385 . S
C3371 C356 1.394 . S
C3385 C496 1.389 . S
C3389 C370 1.392 . S
C3403 C384 1.377 . S
C3407 C454 1.391 . S
C3421 C552 1.394 . S
C3425 C398 1.382 . S
C3439 C412 1.391 . S
C3443 C510 1.377 . S
C3457 C524 1.392 . S
C3461 C426 1.378 . S
C3475 C440 1.394 . S
C3479 C538 1.382 . S
C3493 C594 1.390 . S
C3497 C566 1.376 . S
C3511 C580 1.394 . S
C3515 C1322 1.384 . S
C3529 C608 1.394 . S
C3533 C1336 1.383 . S
C3547 C1308 1.376 . S
C3551 C622 1.389 . S
C3565 C1294 1.378 . S
C3569 C636 1.381 . S
C3583 C1252 1.376 . S
C3587 C650 1.389 . S
C3601 C1280 1.383 . S
C3605 C664 1.377 . S
C3619 C804 1.376 . S
C3623 C678 1.387 . S
C3637 C819 1.393 . S
C3641 C692 1.380 . S
C3655 C832 1.394 . S
C3659 C706 1.380 . S
C3673 C720 1.390 . S
C3677 C791 1.391 . S
C3691 C734 1.376 . S
C3695 C888 1.388 . S
C3709 C748 1.389 . S
C3713 C847 1.392 . S
C3727 C762 1.379 . S
C3731 C860 1.393 . S
C3745 C776 1.386 . S
C3749 C875 1.393 . S
C3763 C931 1.385 . S
C3767 C902 1.377 . S
C3781 C1140 1.382 . S
C3785 C1014 1.394 . S
C3799 C1028 1.389 . S
C3803 C1154 1.392 . S
C3817 C1168 1.385 . S
C3821 C1042 1.377 . S
C3835 C1126 1.388 . S
C3839 C1056 1.376 . S
C3853 C1224 1.385 . S
C3857 C1070 1.394 . S
C3871 C1182 1.385 . S
C3875 C1084 1.394 . S
C3889 C1196 1.382 . S
C3893 C1098 1.394 . S
C3907 C1210 1.394 . S
C3911 C1112 1.385 . S
C3925 C1266 1.382 . S
C3929 C1238 1.378 . S
C3943 C7 1.391 . S
C3947 C286 1.389 . S
C3961 C917 1.392 . S
C3965 C21 1.398 . S
C3979 C930 1.393 . S
C3983 C35 1.389 . S
C3997 C945 1.396 . S
C4001 C49 1.402 . S
C4015 C1000 1.397 . S
C4019 C63 1.390 . S
C4033 C77 1.388 . S
C4037 C301 1.392 . S
C4051 C91 1.390 . S
C4055 C986 1.389 . S
C4069 C105 1.388 . S
C4073 C231 1.392 . S
C4087 C118 1.388 . S
C4091 C217 1.393 . S
C4105 C133 1.396 . S
C4109 C174 1.390 . S
C4123 C146 1.388 . S
C4127 C189 1.392 . S
C4141 C202 1.392 . S
C4145 C161 1.388 . S
C4159 C693 1.398 . S
C4163 C245 1.391 . S
C4177 C258 1.401 . S
C4181 C707 1.402 . S
C4195 C273 1.402 . S
C4199 C721 1.398 . S
C4213 C763 1.396 . S
C4217 C314 1.402 . S
C4231 C328 1.402 . S
C4235 C735 1.399 . S
C4249 C343 1.402 . S
C4253 C623 1.397 . S
C4267 C1253 1.394 . S
C4271 C357 1.401 . S
C4285 C1267 1.402 . S
C4289 C371 1.399 . S
C4303 C1281 1.395 . S
C4307 C385 1.401 . S
C4321 C399 1.402 . S
C4325 C1337 1.397 . S
C4339 C413 1.397 . S
C4343 C637 1.391 . S
C4357 C427 1.388 . S
C4361 C1323 1.392 . S
C4375 C441 1.402 . S
C4379 C567 1.399 . S
C4393 C455 1.400 . S
C4397 C553 1.402 . S
C4411 C469 1.399 . S
C4415 C511 1.402 . S
C4429 C525 1.402 . S
C4433 C483 1.400 . S
C4447 C497 1.392 . S
C4451 C539 1.399 . S
C4465 C1029 1.399 . S
C4469 C581 1.402 . S
C4483 C595 1.401 . S
C4487 C1043 1.394 . S
C4501 C1057 1.397 . S
C4505 C609 1.390 . S
C4519 C651 1.397 . S
C4523 C1099 1.402 . S
C4537 C1071 1.402 . S
C4541 C665 1.401 . S
C4555 C679 1.402 . S
C4559 C958 1.397 . S
C4573 C749 1.389 . S
C4577 C973 1.393 . S
C4591 C777 1.390 . S
C4595 C903 1.396 . S
C4609 C889 1.394 . S
C4613 C790 1.400 . S
C4627 C805 1.397 . S
C4631 C846 1.391 . S
C4645 C861 1.400 . S
C4649 C818 1.402 . S
C4663 C833 1.398 . S
C4667 C874 1.402 . S
C4681 C1295 1.402 . S
C4685 C1015 1.398 . S
C4699 C1085 1.397 . S
C4703 C1309 1.390 . S
C4717 C1113 1.394 . S
C4721 C1239 1.389 . S
C4735 C1225 1.399 . S
C4739 C1127 1.402 . S
C4753 C1183 1.400 . S
C4757 C1141 1.393 . S
C4771 C1155 1.389 . S
C4775 C1197 1.393 . S
C4789 C1169 1.389 . S
C4793 C1211 1.391 . S
