# Generated by pormake.
# Topology gan, (5)-cn, num edge types: 1
# Building blocks:
#     Node 0, Type 0, BuildingBlock: XOMCOT_clean_sbu_0, # of connection points: 5
#     Node 1, Type 0, BuildingBlock: XOMCOT_clean_sbu_0, # of connection points: 5
#     Node 2, Type 0, BuildingBlock: XOMCOT_clean_sbu_0, # of connection points: 5
#     Node 3, Type 0, BuildingBlock: XOMCOT_clean_sbu_0, # of connection points: 5
#     Node 4, Type 0, BuildingBlock: XOMCOT_clean_sbu_0, # of connection points: 5
#     Node 5, Type 0, BuildingBlock: XOMCOT_clean_sbu_0, # of connection points: 5
#     Node 6, Type 0, BuildingBlock: XOMCOT_clean_sbu_0, # of connection points: 5
#     Node 7, Type 0, BuildingBlock: XOMCOT_clean_sbu_0, # of connection points: 5
#     Node 8, Type 0, BuildingBlock: XOMCOT_clean_sbu_0, # of connection points: 5
#     Node 9, Type 0, BuildingBlock: XOMCOT_clean_sbu_0, # of connection points: 5
#     Node 10, Type 0, BuildingBlock: XOMCOT_clean_sbu_0, # of connection points: 5
#     Node 11, Type 0, BuildingBlock: XOMCOT_clean_sbu_0, # of connection points: 5
#     Node 12, Type 0, BuildingBlock: XOMCOT_clean_sbu_0, # of connection points: 5
#     Node 13, Type 0, BuildingBlock: XOMCOT_clean_sbu_0, # of connection points: 5
#     Node 14, Type 0, BuildingBlock: XOMCOT_clean_sbu_0, # of connection points: 5
#     Node 15, Type 0, BuildingBlock: XOMCOT_clean_sbu_0, # of connection points: 5
#     Edge 16, Type (0, 0), BuildingBlock: XUDNAN_clean_linker_2, # of connection points: 2
#     Edge 17, Type (0, 0), BuildingBlock: XUDNAN_clean_linker_2, # of connection points: 2
#     Edge 18, Type (0, 0), BuildingBlock: XUDNAN_clean_linker_2, # of connection points: 2
#     Edge 19, Type (0, 0), BuildingBlock: XUDNAN_clean_linker_2, # of connection points: 2
#     Edge 20, Type (0, 0), BuildingBlock: XUDNAN_clean_linker_2, # of connection points: 2
#     Edge 21, Type (0, 0), BuildingBlock: XUDNAN_clean_linker_2, # of connection points: 2
#     Edge 22, Type (0, 0), BuildingBlock: XUDNAN_clean_linker_2, # of connection points: 2
#     Edge 23, Type (0, 0), BuildingBlock: XUDNAN_clean_linker_2, # of connection points: 2
#     Edge 24, Type (0, 0), BuildingBlock: XUDNAN_clean_linker_2, # of connection points: 2
#     Edge 25, Type (0, 0), BuildingBlock: XUDNAN_clean_linker_2, # of connection points: 2
#     Edge 26, Type (0, 0), BuildingBlock: XUDNAN_clean_linker_2, # of connection points: 2
#     Edge 27, Type (0, 0), BuildingBlock: XUDNAN_clean_linker_2, # of connection points: 2
#     Edge 28, Type (0, 0), BuildingBlock: XUDNAN_clean_linker_2, # of connection points: 2
#     Edge 29, Type (0, 0), BuildingBlock: XUDNAN_clean_linker_2, # of connection points: 2
#     Edge 30, Type (0, 0), BuildingBlock: XUDNAN_clean_linker_2, # of connection points: 2
#     Edge 31, Type (0, 0), BuildingBlock: XUDNAN_clean_linker_2, # of connection points: 2
#     Edge 32, Type (0, 0), BuildingBlock: XUDNAN_clean_linker_2, # of connection points: 2
#     Edge 33, Type (0, 0), BuildingBlock: XUDNAN_clean_linker_2, # of connection points: 2
#     Edge 34, Type (0, 0), BuildingBlock: XUDNAN_clean_linker_2, # of connection points: 2
#     Edge 35, Type (0, 0), BuildingBlock: XUDNAN_clean_linker_2, # of connection points: 2
#     Edge 36, Type (0, 0), BuildingBlock: XUDNAN_clean_linker_2, # of connection points: 2
#     Edge 37, Type (0, 0), BuildingBlock: XUDNAN_clean_linker_2, # of connection points: 2
#     Edge 38, Type (0, 0), BuildingBlock: XUDNAN_clean_linker_2, # of connection points: 2
#     Edge 39, Type (0, 0), BuildingBlock: XUDNAN_clean_linker_2, # of connection points: 2
#     Edge 40, Type (0, 0), BuildingBlock: XUDNAN_clean_linker_2, # of connection points: 2
#     Edge 41, Type (0, 0), BuildingBlock: XUDNAN_clean_linker_2, # of connection points: 2
#     Edge 42, Type (0, 0), BuildingBlock: XUDNAN_clean_linker_2, # of connection points: 2
#     Edge 43, Type (0, 0), BuildingBlock: XUDNAN_clean_linker_2, # of connection points: 2
#     Edge 44, Type (0, 0), BuildingBlock: XUDNAN_clean_linker_2, # of connection points: 2
#     Edge 45, Type (0, 0), BuildingBlock: XUDNAN_clean_linker_2, # of connection points: 2
#     Edge 46, Type (0, 0), BuildingBlock: XUDNAN_clean_linker_2, # of connection points: 2
#     Edge 47, Type (0, 0), BuildingBlock: XUDNAN_clean_linker_2, # of connection points: 2
#     Edge 48, Type (0, 0), BuildingBlock: XUDNAN_clean_linker_2, # of connection points: 2
#     Edge 49, Type (0, 0), BuildingBlock: XUDNAN_clean_linker_2, # of connection points: 2
#     Edge 50, Type (0, 0), BuildingBlock: XUDNAN_clean_linker_2, # of connection points: 2
#     Edge 51, Type (0, 0), BuildingBlock: XUDNAN_clean_linker_2, # of connection points: 2
#     Edge 52, Type (0, 0), BuildingBlock: XUDNAN_clean_linker_2, # of connection points: 2
#     Edge 53, Type (0, 0), BuildingBlock: XUDNAN_clean_linker_2, # of connection points: 2
#     Edge 54, Type (0, 0), BuildingBlock: XUDNAN_clean_linker_2, # of connection points: 2
#     Edge 55, Type (0, 0), BuildingBlock: XUDNAN_clean_linker_2, # of connection points: 2
# Relax obj value: 0.093
# Max RMSD: 0.110
# Mean RMSD: 0.099
data_MOF--net-gan--node1-XOMCOT_clean_sbu_0--edge1-XUDNAN_clean_linker_2
_symmetry_space_group_name_H-M    P1
_symmetry_Int_Tables_number       1
_symmetry_cell_setting            triclinic
loop_
_symmetry_equiv_pos_as_xyz
'x, y, z'
_cell_length_a     41.854678
_cell_length_b     42.598766
_cell_length_c     41.655603
_cell_angle_alpha  90.687683
_cell_angle_beta   90.873176
_cell_angle_gamma 90.902634
loop_
_atom_site_label
_atom_site_type_symbol
_atom_site_fract_x
_atom_site_fract_y
_atom_site_fract_z
_atom_type_partial_charge
Co0 Co 0.18298 0.22294 0.20655 0.0
C1 C 0.22743 0.26592 0.24614 0.0
C2 C 0.22875 0.27433 0.19554 0.0
C3 C 0.24758 0.29663 0.2111 0.0
N4 N 0.21632 0.25457 0.21721 0.0
N5 N 0.2467 0.2917 0.24303 0.0
H6 H 0.22027 0.25693 0.26907 0.0
H7 H 0.22364 0.27319 0.17001 0.0
C8 C 0.23665 0.20532 0.16128 0.0
O9 O 0.25967 0.21656 0.18006 0.0
N10 N 0.14918 0.19204 0.1958 0.0
C11 C 0.12681 0.1814 0.2161 0.0
C12 C 0.10584 0.16155 0.19957 0.0
C13 C 0.14153 0.17819 0.16706 0.0
N14 N 0.11508 0.1594 0.16875 0.0
C15 C 0.19484 0.19696 0.26836 0.0
C16 C 0.21854 0.14065 0.24624 0.0
C17 C 0.21027 0.14352 0.27853 0.0
C18 C 0.19949 0.17251 0.28985 0.0
C19 C 0.21325 0.16551 0.22552 0.0
N20 N 0.201 0.19313 0.23647 0.0
H21 H 0.18378 0.21804 0.27706 0.0
H22 H 0.21627 0.16095 0.20032 0.0
H23 H 0.1256 0.18787 0.24123 0.0
H24 H 0.15447 0.1823 0.1452 0.0
O25 O 0.15387 0.2447 0.23443 0.0
O26 O 0.16013 0.25354 0.18248 0.0
O27 O 0.2075 0.20614 0.16946 0.0
C28 C 0.14499 0.2596 0.20875 0.0
H29 H 0.26038 0.31559 0.19963 0.0
H30 H 0.08552 0.14929 0.20957 0.0
H31 H 0.22599 0.11835 0.2363 0.0
H32 H 0.19249 0.17551 0.31462 0.0
Co33 Co 0.1844 0.87392 0.34867 0.0
C34 C 0.13576 0.91059 0.38971 0.0
C35 C 0.17734 0.89785 0.41645 0.0
C36 C 0.15775 0.91494 0.4363 0.0
N37 N 0.16338 0.89362 0.38718 0.0
N38 N 0.13146 0.92326 0.41968 0.0
H39 H 0.11962 0.91492 0.36991 0.0
H40 H 0.20116 0.89049 0.42284 0.0
C41 C 0.20042 0.83107 0.40187 0.0
O42 O 0.16947 0.82835 0.40621 0.0
N43 N 0.20437 0.85532 0.30953 0.0
C44 C 0.18851 0.85592 0.28119 0.0
C45 C 0.20468 0.83939 0.2584 0.0
C46 C 0.23074 0.83735 0.30303 0.0
N47 N 0.23164 0.8276 0.27135 0.0
C48 C 0.12087 0.85245 0.33481 0.0
C49 C 0.13532 0.78958 0.3283 0.0
C50 C 0.1049 0.79974 0.31921 0.0
C51 C 0.09761 0.83147 0.32308 0.0
C52 C 0.15806 0.81149 0.3397 0.0
N53 N 0.15063 0.84251 0.34312 0.0
H54 H 0.11545 0.87699 0.33491 0.0
H55 H 0.18216 0.80374 0.34408 0.0
H56 H 0.16564 0.86684 0.27739 0.0
H57 H 0.24867 0.83153 0.32087 0.0
O58 O 0.16604 0.90644 0.32315 0.0
O59 O 0.21331 0.90976 0.34806 0.0
O60 O 0.21076 0.84644 0.37783 0.0
C61 C 0.1911 0.92328 0.3312 0.0
H62 H 0.1634 0.92231 0.46073 0.0
H63 H 0.19653 0.83579 0.23382 0.0
H64 H 0.14187 0.76524 0.3253 0.0
H65 H 0.07429 0.84018 0.31641 0.0
Co66 Co 0.39513 0.84903 0.63608 0.0
C67 C 0.36007 0.80928 0.68615 0.0
C68 C 0.36945 0.78486 0.64211 0.0
C69 C 0.35264 0.76504 0.66181 0.0
N70 N 0.3745 0.81271 0.6571 0.0
N71 N 0.34649 0.78009 0.6897 0.0
H72 H 0.35924 0.82775 0.70416 0.0
H73 H 0.37674 0.77951 0.61789 0.0
C74 C 0.36304 0.84546 0.57344 0.0
O75 O 0.39201 0.84559 0.56175 0.0
N76 N 0.41468 0.88573 0.61403 0.0
C77 C 0.39801 0.91182 0.6078 0.0
C78 C 0.4163 0.93247 0.59067 0.0
C79 C 0.44349 0.89115 0.59963 0.0
N80 N 0.44506 0.9198 0.58493 0.0
C81 C 0.39257 0.89581 0.68368 0.0
C82 C 0.32731 0.90491 0.6835 0.0
C83 C 0.34737 0.92444 0.70268 0.0
C84 C 0.3802 0.9189 0.70321 0.0
C85 C 0.34084 0.88145 0.66422 0.0
N86 N 0.37322 0.87773 0.66418 0.0
H87 H 0.41817 0.89335 0.68335 0.0
H88 H 0.32547 0.86675 0.64911 0.0
H89 H 0.37357 0.91557 0.61472 0.0
H90 H 0.46252 0.87428 0.59909 0.0
O91 O 0.43262 0.84374 0.66247 0.0
O92 O 0.42449 0.82102 0.6148 0.0
O93 O 0.35921 0.84821 0.60366 0.0
C94 C 0.44273 0.82511 0.64019 0.0
H95 H 0.34452 0.74154 0.65534 0.0
H96 H 0.40854 0.95533 0.58309 0.0
H97 H 0.30172 0.90828 0.68276 0.0
H98 H 0.39652 0.93271 0.71832 0.0
Co99 Co 0.31772 0.15122 0.89552 0.0
C100 C 0.28229 0.19668 0.85068 0.0
C101 C 0.26045 0.15096 0.85337 0.0
C102 C 0.24195 0.16926 0.83355 0.0
N103 N 0.28589 0.16781 0.8644 0.0
N104 N 0.25539 0.19818 0.83157 0.0
H105 H 0.2987 0.21623 0.8549 0.0
H106 H 0.25548 0.1268 0.85955 0.0
C107 C 0.34398 0.09945 0.85405 0.0
O108 O 0.37325 0.11077 0.85731 0.0
N109 N 0.34915 0.13412 0.92812 0.0
C110 C 0.3564 0.14941 0.95604 0.0
C111 C 0.37743 0.13263 0.97414 0.0
C112 C 0.36642 0.10686 0.93079 0.0
N113 N 0.38443 0.10583 0.9586 0.0
C114 C 0.37229 0.19149 0.8914 0.0
C115 C 0.38123 0.18543 0.826 0.0
C116 C 0.40417 0.20187 0.84481 0.0
C117 C 0.3988 0.2057 0.8777 0.0
C118 C 0.35483 0.17153 0.84082 0.0
N119 N 0.35176 0.17314 0.87343 0.0
H120 H 0.36837 0.19523 0.9166 0.0
H121 H 0.3375 0.15846 0.82627 0.0
H122 H 0.34764 0.17205 0.96326 0.0
H123 H 0.36625 0.08822 0.91304 0.0
O124 O 0.30634 0.18391 0.92547 0.0
O125 O 0.28355 0.13652 0.92197 0.0
O126 O 0.32072 0.1125 0.86799 0.0
C127 C 0.28581 0.16362 0.93662 0.0
H128 H 0.22026 0.16156 0.82112 0.0
H129 H 0.38745 0.14008 0.99717 0.0
H130 H 0.38411 0.18255 0.80035 0.0
H131 H 0.41499 0.21961 0.89285 0.0
Co132 Co 0.69029 0.38721 0.84011 0.0
C133 C 0.64749 0.42999 0.88088 0.0
C134 C 0.67407 0.39769 0.90924 0.0
C135 C 0.65454 0.41461 0.92917 0.0
N136 N 0.67001 0.40692 0.87859 0.0
N137 N 0.6374 0.43501 0.91166 0.0
H138 H 0.63795 0.44228 0.86038 0.0
H139 H 0.68975 0.37939 0.91714 0.0
C140 C 0.74387 0.36206 0.8771 0.0
O141 O 0.76161 0.38224 0.86147 0.0
N142 N 0.70886 0.36696 0.80114 0.0
C143 C 0.69231 0.36706 0.77321 0.0
C144 C 0.70729 0.34909 0.75068 0.0
C145 C 0.73437 0.34778 0.79466 0.0
N146 N 0.73421 0.33687 0.76338 0.0
C147 C 0.62535 0.37015 0.82922 0.0
C148 C 0.63278 0.30577 0.83095 0.0
C149 C 0.60278 0.31793 0.82294 0.0
C150 C 0.59919 0.35052 0.82245 0.0
C151 C 0.65858 0.32636 0.83724 0.0
N152 N 0.65455 0.35808 0.83626 0.0
H153 H 0.62226 0.3952 0.82801 0.0
H154 H 0.68192 0.31678 0.84188 0.0
H155 H 0.66976 0.37864 0.76962 0.0
H156 H 0.75249 0.34177 0.8122 0.0
O157 O 0.67384 0.42103 0.81412 0.0
O158 O 0.72083 0.42182 0.83897 0.0
O159 O 0.71442 0.35826 0.86922 0.0
C160 C 0.69985 0.43656 0.82182 0.0
H161 H 0.65326 0.41193 0.95491 0.0
H162 H 0.69829 0.34482 0.7265 0.0
H163 H 0.63643 0.28067 0.83145 0.0
H164 H 0.57629 0.36082 0.81687 0.0
Co165 Co 0.8877 0.35954 0.1384 0.0
C166 C 0.84353 0.31761 0.1803 0.0
C167 C 0.87054 0.29222 0.14582 0.0
C168 C 0.85306 0.27104 0.16357 0.0
N169 N 0.86517 0.32179 0.15619 0.0
N170 N 0.83596 0.28681 0.1855 0.0
H171 H 0.83299 0.33628 0.19385 0.0
H172 H 0.88628 0.2862 0.12643 0.0
C173 C 0.83393 0.34564 0.09346 0.0
O174 O 0.81651 0.34222 0.11916 0.0
N175 N 0.91123 0.39633 0.12112 0.0
C176 C 0.91735 0.42282 0.13826 0.0
C177 C 0.93667 0.44264 0.12104 0.0
C178 C 0.9279 0.40048 0.0934 0.0
N179 N 0.9436 0.429 0.09258 0.0
C180 C 0.85587 0.39089 0.18843 0.0
C181 C 0.82586 0.4351 0.15102 0.0
C182 C 0.82555 0.43805 0.18451 0.0
C183 C 0.83988 0.41516 0.20321 0.0
C184 C 0.84132 0.4095 0.13701 0.0
N185 N 0.85631 0.38789 0.1558 0.0
H186 H 0.86934 0.37526 0.20345 0.0
H187 H 0.84357 0.40861 0.11121 0.0
H188 H 0.90913 0.42717 0.16236 0.0
H189 H 0.92893 0.38284 0.07456 0.0
O190 O 0.91631 0.36003 0.17472 0.0
O191 O 0.9245 0.33399 0.12923 0.0
O192 O 0.86336 0.35394 0.09634 0.0
C193 C 0.93448 0.34191 0.15807 0.0
H194 H 0.85273 0.24582 0.16012 0.0
H195 H 0.94592 0.46506 0.12974 0.0
H196 H 0.81591 0.45319 0.13598 0.0
H197 H 0.84094 0.41744 0.22916 0.0
Co198 Co 0.82486 0.65304 0.38697 0.0
C199 C 0.78184 0.69857 0.35043 0.0
C200 C 0.77744 0.65149 0.33224 0.0
C201 C 0.7589 0.67067 0.31327 0.0
N202 N 0.79247 0.66875 0.35556 0.0
N203 N 0.76144 0.70036 0.32453 0.0
H204 H 0.7891 0.71866 0.36508 0.0
H205 H 0.7798 0.6265 0.32867 0.0
C206 C 0.84627 0.59621 0.35011 0.0
O207 O 0.87633 0.60539 0.35283 0.0
N208 N 0.85738 0.63755 0.41962 0.0
C209 C 0.86784 0.65587 0.44453 0.0
C210 C 0.88812 0.63992 0.46405 0.0
C211 C 0.87231 0.6094 0.4256 0.0
N212 N 0.89202 0.61068 0.45237 0.0
C213 C 0.88133 0.68855 0.37467 0.0
C214 C 0.8858 0.67342 0.31012 0.0
C215 C 0.91119 0.6893 0.32572 0.0
C216 C 0.90818 0.698 0.35801 0.0
C217 C 0.85923 0.66423 0.32791 0.0
N218 N 0.85841 0.66998 0.36029 0.0
H219 H 0.87927 0.69587 0.39932 0.0
H220 H 0.84026 0.65099 0.31594 0.0
H221 H 0.86158 0.67999 0.44887 0.0
H222 H 0.86911 0.58848 0.41096 0.0
O223 O 0.81786 0.68937 0.41361 0.0
O224 O 0.79207 0.64367 0.41732 0.0
O225 O 0.82432 0.61154 0.36381 0.0
C226 C 0.79808 0.67158 0.42931 0.0
H227 H 0.74391 0.66311 0.29314 0.0
H228 H 0.89949 0.64959 0.48557 0.0
H229 H 0.887 0.66715 0.28489 0.0
H230 H 0.92667 0.71176 0.3704 0.0
Co231 Co 0.92597 0.96382 0.97086 0.0
C232 C 0.96951 1.00491 1.01309 0.0
C233 C 0.92826 0.02903 0.99569 0.0
C234 C 0.94635 0.04954 1.01461 0.0
N235 N 0.94248 1.00085 0.99478 0.0
N236 N 0.97239 0.03451 0.02546 0.0
H237 H 0.98671 0.98672 1.01749 0.0
H238 H 0.90629 0.03453 0.98313 0.0
C239 C 0.94145 0.97706 0.9021 0.0
O240 O 0.94584 0.94706 0.89673 0.0
N241 N 0.90866 0.92647 0.94646 0.0
C242 C 0.92464 0.9003 0.93795 0.0
C243 C 0.90531 0.88082 0.91948 0.0
C244 C 0.879 0.9217 0.93275 0.0
N245 N 0.87655 0.89402 0.91599 0.0
C246 C 0.97409 0.92142 0.9918 0.0
C247 C 1.01885 0.93864 0.94693 0.0
C248 C 1.02121 0.9094 0.96174 0.0
C249 C 1.00026 0.90226 0.98666 0.0
C250 C 0.99257 0.95731 0.95326 0.0
N251 N 0.96863 0.94633 0.97223 0.0
H252 H 0.95618 0.91372 1.00845 0.0
H253 H 0.99069 0.97951 0.94131 0.0
H254 H 0.94947 0.89583 0.94242 0.0
H255 H 0.85992 0.93848 0.93407 0.0
O256 O 0.90978 0.94685 1.0102 0.0
O257 O 0.883 0.97774 0.97713 0.0
O258 O 0.93399 0.98701 0.92996 0.0
C259 C 0.88379 0.96199 1.00366 0.0
H260 H 0.9412 0.07399 1.01926 0.0
H261 H 0.91215 0.85863 0.90887 0.0
H262 H 0.03567 0.9458 0.92881 0.0
H263 H 1.00157 0.88021 0.99926 0.0
Co264 Co 0.92685 0.11668 0.59968 0.0
C265 C 0.88123 0.16019 0.63798 0.0
C266 C 0.9252 0.18267 0.62532 0.0
C267 C 0.9074 0.20371 0.64255 0.0
N268 N 0.90949 0.15475 0.62244 0.0
N269 N 0.87971 0.18994 0.65099 0.0
H270 H 0.86184 0.14316 0.63904 0.0
H271 H 0.94824 0.18811 0.61534 0.0
C272 C 0.99517 0.13693 0.59194 0.0
O273 O 1.00515 0.11142 0.60608 0.0
N274 N 0.94454 0.07922 0.57602 0.0
C275 C 0.93414 0.0491 0.57824 0.0
C276 C 0.95277 0.02957 0.55985 0.0
C277 C 0.96857 0.07713 0.55389 0.0
N278 N 0.97471 0.04693 0.54443 0.0
C279 C 0.93661 0.07558 0.65226 0.0
C280 C 0.97376 0.11599 0.69 0.0
C281 C 0.96453 0.08683 0.70228 0.0
C282 C 0.94591 0.06647 0.68285 0.0
C283 C 0.96393 0.12414 0.65903 0.0
N284 N 0.94606 0.10378 0.6402 0.0
H285 H 0.91996 0.06064 0.6393 0.0
H286 H 0.97 0.14721 0.65071 0.0
H287 H 0.91357 0.04137 0.59149 0.0
H288 H 0.98138 0.09718 0.54459 0.0
O289 O 0.88643 0.09572 0.60432 0.0
O290 O 0.89984 0.12515 0.5628 0.0
O291 O 0.96548 0.14182 0.58742 0.0
C292 C 0.87833 0.10804 0.5771 0.0
H293 H 0.91379 0.22809 0.64727 0.0
H294 H 0.94964 1.00439 0.55719 0.0
H295 H 0.98768 0.13268 0.70445 0.0
H296 H 0.93683 0.04436 0.69186 0.0
Co297 Co 0.64637 0.10991 0.39576 0.0
C298 C 0.6849 0.15219 0.35152 0.0
C299 C 0.71191 0.11416 0.37064 0.0
C300 C 0.73123 0.1314 0.35062 0.0
N301 N 0.68275 0.127 0.37143 0.0
N302 N 0.71449 0.15544 0.33831 0.0
H303 H 0.66512 0.16753 0.34655 0.0
H304 H 0.71872 0.09347 0.38372 0.0
C305 C 0.67243 0.10683 0.46245 0.0
O306 O 0.6455 0.11827 0.47295 0.0
N307 N 0.60938 0.09124 0.41942 0.0
C308 C 0.57846 0.09418 0.41033 0.0
C309 C 0.55928 0.07496 0.42818 0.0
C310 C 0.60804 0.06821 0.44223 0.0
N311 N 0.57745 0.05849 0.44876 0.0
C312 C 0.60949 0.16505 0.40505 0.0
C313 C 0.65597 0.20049 0.43725 0.0
C314 C 0.62585 0.21349 0.43171 0.0
C315 C 0.6025 0.19519 0.41546 0.0
C316 C 0.66183 0.16981 0.42668 0.0
N317 N 0.63826 0.15205 0.41185 0.0
H318 H 0.59192 0.15271 0.39058 0.0
H319 H 0.68555 0.16059 0.4299 0.0
H320 H 0.56993 0.1073 0.39008 0.0
H321 H 0.62901 0.05805 0.45314 0.0
O322 O 0.62068 0.1109 0.35724 0.0
O323 O 0.64953 0.07033 0.37354 0.0
O324 O 0.67626 0.10148 0.43259 0.0
C325 C 0.62961 0.08212 0.35278 0.0
H326 H 0.75605 0.12664 0.34592 0.0
H327 H 0.53376 0.07217 0.42458 0.0
H328 H 0.67501 0.21409 0.4489 0.0
H329 H 0.57886 0.20407 0.41048 0.0
Co330 Co 0.58065 0.90488 0.13507 0.0
C331 C 0.62091 0.86177 0.18034 0.0
C332 C 0.60738 0.90528 0.20182 0.0
C333 C 0.6238 0.88848 0.22416 0.0
N334 N 0.60552 0.88946 0.17356 0.0
N335 N 0.63211 0.86057 0.21153 0.0
H336 H 0.62282 0.84248 0.16339 0.0
H337 H 0.59739 0.9279 0.20674 0.0
C338 C 0.56454 0.9681 0.16274 0.0
O339 O 0.5782 0.98213 0.13846 0.0
N340 N 0.55433 0.91978 0.0973 0.0
C341 C 0.55099 0.90505 0.06837 0.0
C342 C 0.53097 0.92184 0.04834 0.0
C343 C 0.53495 0.94528 0.09395 0.0
N344 N 0.52097 0.9474 0.06428 0.0
C345 C 0.62756 0.92761 0.09245 0.0
C346 C 0.66491 0.9602 0.13722 0.0
C347 C 0.67698 0.95472 0.10657 0.0
C348 C 0.65742 0.93922 0.08367 0.0
C349 C 0.63489 0.94818 0.14501 0.0
N350 N 0.61683 0.93132 0.123 0.0
H351 H 0.61415 0.91351 0.07517 0.0
H352 H 0.62679 0.95209 0.16902 0.0
H353 H 0.56281 0.88366 0.06159 0.0
H354 H 0.52989 0.96189 0.1127 0.0
O355 O 0.59321 0.8686 0.11159 0.0
O356 O 0.5498 0.87138 0.14159 0.0
O357 O 0.56153 0.93821 0.16311 0.0
C358 C 0.56829 0.85466 0.12331 0.0
H359 H 0.62881 0.89643 0.24852 0.0
H360 H 0.52528 0.91629 1.02345 0.0
H361 H 0.67909 0.97255 0.15547 0.0
H362 H 0.66599 0.93397 0.05983 0.0
Co363 Co 0.42754 0.61331 0.10185 0.0
C364 C 0.37889 0.66148 0.1309 0.0
C365 C 0.42249 0.65569 0.15738 0.0
C366 C 0.40352 0.67568 0.17448 0.0
N367 N 0.40753 0.64604 0.12993 0.0
N368 N 0.37589 0.67966 0.15827 0.0
H369 H 0.36046 0.65905 0.1125 0.0
H370 H 0.44587 0.64807 0.16511 0.0
C371 C 0.49782 0.63681 0.10136 0.0
O372 O 0.51044 0.61111 0.0899 0.0
N373 N 0.44802 0.57994 0.07528 0.0
C374 C 0.44385 0.54916 0.0814 0.0
C375 C 0.46214 0.53147 0.0611 0.0
C376 C 0.46821 0.58007 0.04955 0.0
N377 N 0.47821 0.55055 0.04113 0.0
C378 C 0.40967 0.58004 0.15703 0.0
C379 C 0.47013 0.56367 0.17794 0.0
C380 C 0.44345 0.55394 0.19522 0.0
C381 C 0.41295 0.5622 0.18452 0.0
C382 C 0.46573 0.58112 0.15012 0.0
N383 N 0.43579 0.58934 0.14021 0.0
H384 H 0.38602 0.58674 0.14931 0.0
H385 H 0.48635 0.58739 0.13657 0.0
H386 H 0.42868 0.53995 0.09995 0.0
H387 H 0.47644 0.60133 0.03812 0.0
O388 O 0.38657 0.59514 0.09059 0.0
O389 O 0.41162 0.63237 0.06312 0.0
O390 O 0.46803 0.63868 0.10685 0.0
C391 C 0.38725 0.61318 0.06569 0.0
H392 H 0.40991 0.68694 0.19718 0.0
H393 H 0.46336 0.50612 0.06121 0.0
H394 H 0.49403 0.55744 0.1856 0.0
H395 H 0.39183 0.55539 0.19764 0.0
Co396 Co 0.15569 0.60591 0.90349 0.0
C397 C 0.10954 0.56325 0.93982 0.0
C398 C 0.12285 0.60534 0.96575 0.0
C399 C 0.10196 0.58808 0.98408 0.0
N400 N 0.12774 0.5901 0.93782 0.0
N401 N 0.09322 0.56146 0.96802 0.0
H402 H 0.10807 0.5456 0.92094 0.0
H403 H 0.13386 0.62765 0.97249 0.0
C404 C 0.11775 0.59703 0.84314 0.0
O405 O 0.12793 0.62486 0.83415 0.0
N406 N 0.18423 0.6209 0.86866 0.0
C407 C 0.19549 0.6012 0.84611 0.0
C408 C 0.2147 0.61745 0.82529 0.0
C409 C 0.19759 0.6494 0.86096 0.0
N410 N 0.21636 0.648 0.83434 0.0
C411 C 0.14939 0.67088 0.9168 0.0
C412 C 0.08625 0.67673 0.89791 0.0
C413 C 0.10349 0.70325 0.90901 0.0
C414 C 0.13519 0.69999 0.919 0.0
C415 C 0.10135 0.64764 0.89669 0.0
N416 N 0.13309 0.64538 0.90445 0.0
H417 H 0.17387 0.66911 0.92485 0.0
H418 H 0.08737 0.62705 0.88989 0.0
H419 H 0.18975 0.57637 0.84463 0.0
H420 H 0.19411 0.67078 0.87437 0.0
O421 O 0.18805 0.61659 0.93491 0.0
O422 O 0.18393 0.57058 0.90941 0.0
O423 O 0.12573 0.58642 0.87058 0.0
C424 C 0.19925 0.58884 0.92991 0.0
H425 H 0.09432 0.59463 1.00789 0.0
H426 H 0.22612 0.60719 0.80466 0.0
H427 H 0.0613 0.67838 0.89095 0.0
H428 H 0.14911 0.71994 0.92808 0.0
Co429 Co 0.07749 0.39967 0.63248 0.0
C430 C 0.12462 0.36059 0.67311 0.0
C431 C 0.08118 0.37213 0.6968 0.0
C432 C 0.09885 0.35313 0.7166 0.0
N433 N 0.09696 0.37711 0.66934 0.0
N434 N 0.12632 0.34562 0.70205 0.0
H435 H 0.14264 0.3589 0.65484 0.0
H436 H 0.05776 0.38116 0.70187 0.0
C437 C 0.06671 0.46178 0.66329 0.0
O438 O 0.08103 0.47464 0.63872 0.0
N439 N 0.05571 0.42119 0.59529 0.0
C440 C 0.05545 0.41049 0.56448 0.0
C441 C 0.03587 0.42858 0.54548 0.0
C442 C 0.03484 0.44577 0.59399 0.0
N443 N 1.02288 0.45099 0.56383 0.0
C444 C 0.13428 0.43428 0.65293 0.0
C445 C 0.15903 0.4394 0.59204 0.0
C446 C 0.17656 0.45133 0.61836 0.0
C447 C 0.16415 0.44873 0.64914 0.0
C448 C 0.1295 0.42495 0.59687 0.0
N449 N 0.11715 0.423 0.62688 0.0
H450 H 0.12499 0.43193 0.67687 0.0
H451 H 0.1171 0.41446 0.57654 0.0
H452 H 0.06872 0.39066 0.5558 0.0
H453 H 0.02744 0.45925 0.61456 0.0
O454 O 0.08719 0.36481 0.6053 0.0
O455 O 0.04241 0.36976 0.63318 0.0
O456 O 0.0615 0.43214 0.66366 0.0
C457 C 0.05982 0.35315 0.61379 0.0
H458 H 0.09191 0.34546 0.74021 0.0
H459 H 0.03228 0.42604 0.51978 0.0
H460 H 0.16853 0.44052 0.56801 0.0
H461 H 0.17753 0.4574 0.66997 0.0
Co462 Co 0.68402 0.6988 0.72075 0.0
C463 C 0.63091 0.66375 0.68408 0.0
C464 C 0.66254 0.63278 0.70847 0.0
C465 C 0.641 0.61496 0.69039 0.0
N466 N 0.65624 0.66359 0.70498 0.0
N467 N 0.62125 0.63439 0.67471 0.0
H468 H 0.62071 0.68482 0.67444 0.0
H469 H 0.68288 0.62372 0.72147 0.0
C470 C 0.67606 0.66002 0.77726 0.0
O471 O 0.64574 0.66733 0.77486 0.0
N472 N 0.71179 0.73356 0.7363 0.0
C473 C 0.72961 0.75183 0.7171 0.0
C474 C 0.74741 0.77278 0.73567 0.0
C475 C 0.71871 0.74423 0.76663 0.0
N476 N 0.74073 0.76819 0.76686 0.0
C477 C 0.71167 0.67451 0.66525 0.0
C478 C 0.77471 0.67538 0.68604 0.0
C479 C 0.76725 0.66903 0.65361 0.0
C480 C 0.73526 0.66741 0.64375 0.0
C481 C 0.74976 0.68084 0.70758 0.0
N482 N 0.71884 0.68155 0.69655 0.0
H483 H 0.68761 0.67641 0.65598 0.0
H484 H 0.75537 0.68679 0.73236 0.0
H485 H 0.73006 0.74967 0.69121 0.0
H486 H 0.70844 0.73431 0.788 0.0
O487 O 0.66843 0.72503 0.68761 0.0
O488 O 0.64638 0.72126 0.73541 0.0
O489 O 0.69614 0.67332 0.75897 0.0
C490 C 0.64592 0.73336 0.70667 0.0
H491 H 0.64143 0.58971 0.68721 0.0
H492 H 0.76394 0.79032 0.7268 0.0
H493 H 0.79934 0.6774 0.69423 0.0
H494 H 0.72856 0.66354 0.61874 0.0
Co495 Co 0.41397 0.4661 0.47637 0.0
C496 C 0.46108 0.5092 0.51433 0.0
C497 C 0.42443 0.53282 0.48786 0.0
C498 C 0.44334 0.55497 0.50324 0.0
N499 N 0.43535 0.50394 0.49434 0.0
N500 N 0.4666 0.54041 0.51981 0.0
H501 H 0.4759 0.49106 0.52413 0.0
H502 H 0.4041 0.53754 0.47244 0.0
C503 C 0.44321 0.49727 0.41929 0.0
O504 O 0.46781 0.50732 0.4367 0.0
N505 N 0.39162 0.42938 0.45764 0.0
C506 C 0.39325 0.39936 0.46715 0.0
C507 C 0.37588 0.38053 0.4457 0.0
C508 C 0.37301 0.42835 0.4307 0.0
N509 N 0.36311 0.39867 0.42249 0.0
C510 C 0.46625 0.43206 0.50413 0.0
C511 C 0.49317 0.41491 0.44657 0.0
C512 C 0.50625 0.40291 0.47501 0.0
C513 C 0.4925 0.41205 0.5042 0.0
C514 C 0.46611 0.43325 0.44751 0.0
N515 N 0.45355 0.44273 0.47599 0.0
H516 H 0.45543 0.43813 0.5267 0.0
H517 H 0.45461 0.4383 0.42494 0.0
H518 H 0.4068 0.39154 0.48779 0.0
H519 H 0.3672 0.44911 0.4173 0.0
O520 O 0.39876 0.45543 0.51858 0.0
O521 O 0.37369 0.48559 0.48338 0.0
O522 O 0.42051 0.48166 0.43187 0.0
C523 C 0.37447 0.47298 0.5116 0.0
H524 H 0.44013 0.58011 0.50227 0.0
H525 H 0.37367 0.35526 0.4469 0.0
H526 H 0.50283 0.40936 0.42328 0.0
H527 H 0.50093 0.40293 0.52688 0.0
H528 H 0.26917 0.27617 0.30351 0.0
H529 H 0.25682 0.3545 0.23908 0.0
H530 H 0.28424 0.38965 0.27808 0.0
H531 H 0.25745 0.32166 0.37817 0.0
H532 H 0.28731 0.30077 0.40063 0.0
H533 H 0.26574 0.28136 0.36808 0.0
H534 H 0.31924 0.26783 0.34125 0.0
H535 H 0.34095 0.28731 0.37364 0.0
H536 H 0.34748 0.29891 0.33276 0.0
H537 H 0.31499 0.4166 0.32271 0.0
H538 H 0.34557 0.43376 0.37055 0.0
H539 H 0.33782 0.33933 0.40861 0.0
C540 C 0.27193 0.30077 0.29782 0.0
C541 C 0.26097 0.31227 0.26774 0.0
C542 C 0.26539 0.34472 0.26139 0.0
C543 C 0.28085 0.36507 0.28359 0.0
C544 C 0.2919 0.353 0.31254 0.0
C545 C 0.28753 0.32168 0.31992 0.0
C546 C 0.30238 0.31503 0.35279 0.0
C547 C 0.27668 0.30405 0.37631 0.0
C548 C 0.3291 0.29083 0.34993 0.0
C549 C 0.31589 0.34737 0.36239 0.0
C550 C 0.30945 0.36885 0.33873 0.0
C551 C 0.31992 0.40001 0.34155 0.0
C552 C 0.33736 0.40962 0.36918 0.0
C553 C 0.34442 0.3883 0.3942 0.0
C554 C 0.33324 0.35661 0.3904 0.0
H555 H 1.01063 0.99386 0.55078 0.0
H556 H 0.99289 0.07111 0.48674 0.0
H557 H 0.02931 0.04735 0.44687 0.0
H558 H 0.0957 0.98758 0.53263 0.0
H559 H 0.09569 0.94547 0.5363 0.0
H560 H 0.06795 0.96844 0.55899 0.0
H561 H 1.02096 0.93542 0.53468 0.0
H562 H 0.04853 0.91254 0.51169 0.0
H563 H 1.01624 0.93229 0.49166 0.0
H564 H 0.06633 1.01149 0.41156 0.0
H565 H 0.10447 0.9731 0.38918 0.0
H566 H 0.10201 0.92181 0.47817 0.0
C567 C 1.0145 1.00591 0.52841 0.0
C568 C 0.99847 0.03456 0.52209 0.0
C569 C 1.00475 0.04944 0.49249 0.0
C570 C 0.02535 0.03586 0.46953 0.0
C571 C 0.04039 1.00742 0.47638 0.0
C572 C 0.03567 0.99304 0.50556 0.0
C573 C 0.05564 0.96339 0.50785 0.0
C574 C 0.0802 0.9664 0.53559 0.0
C575 C 0.03405 0.93418 0.5117 0.0
C576 C 0.07213 0.96292 0.47538 0.0
C577 C 0.06268 0.98824 0.45725 0.0
C578 C 0.07393 0.99188 0.42591 0.0
C579 C 0.09553 0.96972 0.41316 0.0
C580 C 0.10655 0.94418 0.43165 0.0
C581 C 0.09436 0.94101 0.46327 0.0
H582 H 0.26173 0.64191 0.78715 0.0
H583 H 0.21261 0.71212 0.84349 0.0
H584 H 0.24182 0.75388 0.81466 0.0
H585 H 0.33776 0.68237 0.7831 0.0
H586 H 0.34482 0.66959 0.74246 0.0
H587 H 0.32088 0.64564 0.76844 0.0
H588 H 0.27434 0.64598 0.72679 0.0
H589 H 0.29815 0.66988 0.70067 0.0
H590 H 0.25939 0.68297 0.71291 0.0
H591 H 0.27734 0.78912 0.77692 0.0
H592 H 0.31238 0.81195 0.73533 0.0
H593 H 0.33692 0.71798 0.70431 0.0
C594 C 0.25667 0.66591 0.79368 0.0
C595 C 0.23426 0.67308 0.81807 0.0
C596 C 0.22948 0.70537 0.82537 0.0
C597 C 0.24605 0.72947 0.80889 0.0
C598 C 0.26764 0.72137 0.78489 0.0
C599 C 0.27285 0.6902 0.77742 0.0
C600 C 0.29668 0.68725 0.75034 0.0
C601 C 0.32682 0.6702 0.76178 0.0
C602 C 0.28121 0.67053 0.72094 0.0
C603 C 0.30405 0.72157 0.74339 0.0
C604 C 0.28731 0.74108 0.76359 0.0
C605 C 0.29046 0.7738 0.76115 0.0
C606 C 0.31068 0.78669 0.73744 0.0
C607 C 0.32763 0.76709 0.71599 0.0
C608 C 0.32423 0.734 0.71968 0.0
H609 H 0.38507 0.03991 0.96145 0.0
H610 H 0.44164 0.12396 0.98277 0.0
H611 H 0.48084 0.09271 1.01228 0.0
H612 H 0.39905 1.00076 0.03575 0.0
H613 H 0.40373 0.96191 1.01904 0.0
H614 H 0.37972 0.9901 0.99812 0.0
H615 H 0.41381 0.98315 0.94739 0.0
H616 H 0.43768 0.95463 0.96804 0.0
H617 H 0.45658 0.98843 0.95035 0.0
H618 H 0.51127 0.05423 0.04527 0.0
H619 H 0.53662 1.00883 0.07118 0.0
H620 H 0.4663 0.94651 0.02562 0.0
C621 C 0.40611 0.05155 0.97162 0.0
C622 C 0.40975 0.0849 0.96978 0.0
C623 C 0.43776 0.09882 0.98395 0.0
C624 C 0.46031 0.08117 1.00095 0.0
C625 C 0.45553 0.0489 1.00349 0.0
C626 C 0.4297 0.03387 0.98852 0.0
C627 C 0.43134 0.9985 0.99491 0.0
C628 C 0.40169 0.98715 1.01303 0.0
C629 C 0.43507 0.98008 0.96329 0.0
C630 C 0.4616 0.9964 1.01609 0.0
C631 C 0.47472 0.02602 1.02103 0.0
C632 C 0.50148 0.03085 0.0411 0.0
C633 C 0.51567 1.00488 0.05602 0.0
C634 C 0.50381 0.97393 0.05058 0.0
C635 C 0.47623 0.96977 0.03017 0.0
H636 H 0.35361 0.68859 0.2197 0.0
H637 H 0.34199 0.72083 0.12206 0.0
H638 H 0.3064 0.76285 0.1415 0.0
H639 H 0.27003 0.70337 0.24356 0.0
H640 H 0.28109 0.71512 0.28398 0.0
H641 H 0.30516 0.68744 0.26245 0.0
H642 H 0.35484 0.72321 0.27238 0.0
H643 H 0.33086 0.75121 0.29356 0.0
H644 H 0.35405 0.76351 0.2597 0.0
H645 H 0.27642 0.80484 0.17239 0.0
H646 H 0.24609 0.83769 0.20928 0.0
H647 H 0.27094 0.77682 0.28833 0.0
C648 C 0.34319 0.70423 0.20229 0.0
C649 C 0.35081 0.70103 0.16896 0.0
C650 C 0.33646 0.72219 0.14734 0.0
C651 C 0.31641 0.74644 0.15838 0.0
C652 C 0.31009 0.74929 0.19129 0.0
C653 C 0.3224 0.72824 0.2129 0.0
C654 C 0.31087 0.73611 0.24692 0.0
C655 C 0.29058 0.70889 0.26 0.0
C656 C 0.33936 0.74397 0.26948 0.0
C657 C 0.29046 0.76519 0.24126 0.0
C658 C 0.29095 0.77243 0.20892 0.0
C659 C 0.27536 0.79876 0.19751 0.0
C660 C 0.25794 0.81741 0.21897 0.0
C661 C 0.25492 0.81 0.25208 0.0
C662 C 0.27229 0.78354 0.26341 0.0
H663 H 0.43956 0.96906 0.54316 0.0
H664 H 0.50923 0.90543 0.58301 0.0
H665 H 0.55183 0.93331 0.55295 0.0
H666 H 0.47291 0.97684 0.46538 0.0
H667 H 0.46311 1.01776 0.46248 0.0
H668 H 0.43897 0.99196 0.48636 0.0
H669 H 0.44819 0.02857 0.53585 0.0
H670 H 0.47233 0.0545 0.51212 0.0
H671 H 0.48845 0.03853 0.5487 0.0
H672 H 0.58792 0.97157 0.51685 0.0
H673 H 0.61041 1.01213 0.48076 0.0
H674 H 0.51566 0.05059 0.46901 0.0
C675 C 0.46366 0.9608 0.54622 0.0
C676 C 0.47053 0.93479 0.56623 0.0
C677 C 0.50283 0.92501 0.56804 0.0
C678 C 0.52734 0.94095 0.55103 0.0
C679 C 0.51954 0.96686 0.53207 0.0
C680 C 0.48823 0.97649 0.52976 0.0
C681 C 0.4853 1.00496 0.50838 0.0
C682 C 0.4638 0.99742 0.47891 0.0
C683 C 0.47284 0.03331 0.5274 0.0
C684 C 0.51979 1.01018 0.49875 0.0
C685 C 0.53947 0.9881 0.51238 0.0
C686 C 0.57238 0.98879 0.50624 0.0
C687 C 0.58511 1.01216 0.48566 0.0
C688 C 0.56516 0.0349 0.47117 0.0
C689 C 0.53205 0.03363 0.47858 0.0
H690 H 0.19259 0.21062 0.81747 0.0
H691 H 0.28891 0.2445 0.8007 0.0
H692 H 0.26725 0.28493 0.76402 0.0
H693 H 0.16117 0.22068 0.73768 0.0
H694 H 0.12252 0.23328 0.75074 0.0
H695 H 0.14576 0.20749 0.77547 0.0
H696 H 0.14254 0.24675 0.82316 0.0
H697 H 0.11903 0.27252 0.79867 0.0
H698 H 0.15533 0.28695 0.8179 0.0
H699 H 0.23303 0.32122 0.72559 0.0
H700 H 0.19142 0.35146 0.69654 0.0
H701 H 0.11797 0.29452 0.74057 0.0
C702 C 0.20928 0.22648 0.80614 0.0
C703 C 0.24277 0.22393 0.81216 0.0
C704 C 0.26332 0.2458 0.79694 0.0
C705 C 0.25111 0.26879 0.77576 0.0
C706 C 0.21802 0.27023 0.77 0.0
C707 C 0.19745 0.24978 0.7853 0.0
C708 C 0.16284 0.2564 0.77604 0.0
C709 C 0.14716 0.22776 0.75897 0.0
C710 C 0.14382 0.26624 0.80571 0.0
C711 C 0.16686 0.28366 0.753 0.0
C712 C 0.19884 0.29123 0.7494 0.0
C713 C 0.20801 0.31537 0.72863 0.0
C714 C 0.18415 0.3324 0.71189 0.0
C715 C 0.15115 0.32576 0.71608 0.0
C716 C 0.14281 0.30066 0.73684 0.0
H717 H 0.05122 0.14999 0.15841 0.0
H718 H 0.14406 0.12508 0.12239 0.0
H719 H 0.11791 0.08883 0.08252 0.0
H720 H 1.01304 0.07462 0.15032 0.0
H721 H 0.9751 0.08971 0.13718 0.0
H722 H 1.00117 0.11336 0.16274 0.0
H723 H 1.00022 0.15809 0.1212 0.0
H724 H 0.9739 0.13469 0.09564 0.0
H725 H 1.011 0.14986 0.08025 0.0
H726 H 0.08056 0.05217 0.0485 0.0
H727 H 0.03606 0.02468 1.01908 0.0
H728 H 0.96774 0.07659 0.07488 0.0
C729 C 0.06603 0.13693 0.14206 0.0
C730 C 0.09978 0.14023 0.14369 0.0
C731 C 0.11825 0.12306 0.12153 0.0
C732 C 0.10354 0.10225 0.09894 0.0
C733 C 0.0702 0.09919 0.09832 0.0
C734 C 0.05169 0.11661 0.11895 0.0
C735 C 1.01633 0.11004 0.1127 0.0
C736 C 1.00049 0.0961 0.14251 0.0
C737 C 0.99937 0.13995 0.10179 0.0
C738 C 1.01769 0.08594 0.08559 0.0
C739 C 0.04896 0.07961 0.07787 0.0
C740 C 0.05604 0.05727 0.05424 0.0
C741 C 0.03062 0.04155 0.03778 0.0
C742 C 0.99839 0.0485 0.04451 0.0
C743 C 0.99208 0.07094 0.06894 0.0
H744 H 0.85969 0.19831 0.71404 0.0
H745 H 0.84073 0.22551 0.6159 0.0
H746 H 0.80384 0.26614 0.63508 0.0
H747 H 0.77521 0.21104 0.74194 0.0
H748 H 0.78774 0.22554 0.78105 0.0
H749 H 0.8118 0.19746 0.76 0.0
H750 H 0.86043 0.23532 0.76534 0.0
H751 H 0.83642 0.26372 0.78595 0.0
H752 H 0.85747 0.27468 0.75025 0.0
H753 H 0.77468 0.30802 0.66421 0.0
H754 H 0.74554 0.34264 0.70003 0.0
H755 H 0.77537 0.28769 0.78207 0.0
C756 C 0.84683 0.21211 0.69661 0.0
C757 C 0.85264 0.20786 0.663 0.0
C758 C 0.83614 0.22745 0.64135 0.0
C759 C 0.81537 0.25094 0.65219 0.0
C760 C 0.81061 0.25492 0.68515 0.0
C761 C 0.82507 0.23558 0.70718 0.0
C762 C 0.81485 0.2452 0.74129 0.0
C763 C 0.7963 0.2182 0.75701 0.0
C764 C 0.84404 0.25532 0.76193 0.0
C765 C 0.79294 0.27325 0.73492 0.0
C766 C 0.79157 0.27837 0.7022 0.0
C767 C 0.77483 0.30352 0.68973 0.0
C768 C 0.75802 0.32318 0.71062 0.0
C769 C 0.75661 0.31793 0.74429 0.0
C770 C 0.77525 0.29264 0.75665 0.0
H771 H 0.04761 0.56721 1.01455 0.0
H772 H 0.08838 0.49932 0.9492 0.0
H773 H 0.05349 0.45775 0.97201 0.0
H774 H 0.04265 0.51734 0.08245 0.0
H775 H 1.00554 0.53335 0.09605 0.0
H776 H 0.03269 0.55734 0.07345 0.0
H777 H 0.98769 0.56821 0.03192 0.0
H778 H 0.96038 0.54427 0.05442 0.0
H779 H 0.96678 0.53568 1.01256 0.0
H780 H 1.01357 0.42216 1.00553 0.0
H781 H 0.97519 0.39876 0.04374 0.0
H782 H 0.96122 0.49111 0.08569 0.0
C783 C 0.04956 0.54367 1.00489 0.0
C784 C 0.0714 0.53696 0.97989 0.0
C785 C 0.07205 0.50554 0.96804 0.0
C786 C 0.05226 0.48161 0.98107 0.0
C787 C 0.03145 0.48911 1.00602 0.0
C788 C 0.03 0.51961 1.01755 0.0
C789 C 1.0061 0.52203 0.0446 0.0
C790 C 1.02274 0.53317 0.07599 0.0
C791 C 0.97861 0.54384 0.03531 0.0
C792 C 0.9944 0.48814 0.04698 0.0
C793 C 1.00909 0.46931 0.02456 0.0
C794 C 1.00202 0.437 1.02298 0.0
C795 C 0.97992 0.42379 0.04483 0.0
C796 C 0.96484 0.44262 0.06839 0.0
C797 C 0.97227 0.47543 0.06874 0.0
H798 H 0.75116 0.71849 0.26175 0.0
H799 H 0.72838 0.74192 0.36017 0.0
H800 H 0.69131 0.78257 0.34081 0.0
H801 H 0.7503 0.80079 0.23363 0.0
H802 H 0.73379 0.79066 0.19458 0.0
H803 H 0.75816 0.76297 0.21582 0.0
H804 H 0.71253 0.72153 0.21083 0.0
H805 H 0.68788 0.74922 0.18992 0.0
H806 H 0.67352 0.73073 0.22574 0.0
H807 H 0.65271 0.81663 0.31109 0.0
H808 H 0.62307 0.85043 0.27479 0.0
H809 H 0.67427 0.81257 0.19347 0.0
C810 C 0.73858 0.73247 0.27919 0.0
C811 C 0.74285 0.72683 0.31278 0.0
C812 C 0.72594 0.74581 0.33462 0.0
C813 C 0.70455 0.76881 0.3237 0.0
C814 C 0.70054 0.77342 0.29065 0.0
C815 C 0.7177 0.75645 0.26862 0.0
C816 C 0.70981 0.7676 0.23447 0.0
C817 C 0.73981 0.78132 0.21869 0.0
C818 C 0.69507 0.74066 0.21403 0.0
C819 C 0.68521 0.7932 0.24072 0.0
C820 C 0.68001 0.79541 0.27341 0.0
C821 C 0.65741 0.8157 0.28562 0.0
C822 C 0.64067 0.83515 0.26447 0.0
C823 C 0.64671 0.83564 0.23089 0.0
C824 C 0.669 0.81346 0.21881 0.0
H825 H 0.89035 0.54454 0.45751 0.0
H826 H 0.94896 0.62739 0.47899 0.0
H827 H 0.98504 0.59613 0.51174 0.0
H828 H 0.90042 0.5055 0.53318 0.0
H829 H 0.90542 0.46653 0.51688 0.0
H830 H 0.88257 0.49486 0.49483 0.0
H831 H 0.91872 0.48739 0.44565 0.0
H832 H 0.94139 0.45872 0.46741 0.0
H833 H 0.9614 0.49227 0.45043 0.0
H834 H 1.01254 0.55803 0.54755 0.0
H835 H 0.03714 0.51229 0.57378 0.0
H836 H 0.96854 0.45049 0.52499 0.0
C837 C 0.91102 0.55597 0.46866 0.0
C838 C 0.91568 0.5892 0.46616 0.0
C839 C 0.94361 0.60258 0.48115 0.0
C840 C 0.9646 0.58489 0.49995 0.0
C841 C 0.95868 0.55292 0.50324 0.0
C842 C 0.93334 0.53814 0.48716 0.0
C843 C 0.93438 0.50277 0.49379 0.0
C844 C 0.90387 0.49177 0.51067 0.0
C845 C 0.93926 0.48418 0.46245 0.0
C846 C 0.96373 0.50049 0.51627 0.0
C847 C 0.97678 0.53002 0.52184 0.0
C848 C 1.00281 0.53469 0.54295 0.0
C849 C 1.01653 0.50858 0.55808 0.0
C850 C 1.00499 0.47772 0.55173 0.0
C851 C 0.97801 0.47376 0.53045 0.0
H852 H 0.60272 0.42893 0.96692 0.0
H853 H 0.61645 0.49064 0.88616 0.0
H854 H 0.5779 0.52788 0.90989 0.0
H855 H 0.51847 0.44173 0.97619 0.0
H856 H 0.52049 0.43975 1.01937 0.0
H857 H 0.54869 0.41855 0.99552 0.0
H858 H 0.59548 0.44648 0.02623 0.0
H859 H 0.56742 0.4678 0.05013 0.0
H860 H 0.59735 0.48878 0.02785 0.0
H861 H 0.5369 0.56021 0.94601 0.0
H862 H 0.49851 0.58013 0.98624 0.0
H863 H 0.51326 0.49644 0.04236 0.0
C864 C 0.59798 0.4503 0.95407 0.0
C865 C 0.61332 0.45654 0.92441 0.0
C866 C 0.60528 0.48483 0.90863 0.0
C867 C 0.58338 0.50633 0.92218 0.0
C868 C 0.56913 0.49951 0.95168 0.0
C869 C 0.57616 0.47186 0.96716 0.0
C870 C 0.55779 0.46933 0.99833 0.0
C871 C 0.53501 0.44064 0.99728 0.0
C872 C 0.58089 0.46803 0.02734 0.0
C873 C 0.53928 0.49983 0.99837 0.0
C874 C 0.54603 0.51719 0.97142 0.0
C875 C 0.5316 0.54644 0.96699 0.0
C876 C 0.50977 0.55779 0.99017 0.0
C877 C 0.50201 0.54005 1.01774 0.0
C878 C 0.51761 0.51073 1.02156 0.0
H879 H 0.80214 0.78962 0.77251 0.0
H880 H 0.71205 0.78736 0.82216 0.0
H881 H 0.73573 0.8219 0.86519 0.0
H882 H 0.85263 0.78707 0.84373 0.0
H883 H 0.88295 0.81233 0.82712 0.0
H884 H 0.85836 0.78783 0.80094 0.0
H885 H 0.84169 0.83691 0.76903 0.0
H886 H 0.86592 0.86161 0.79537 0.0
H887 H 0.82401 0.86949 0.78989 0.0
H888 H 0.7705 0.86008 0.90222 0.0
H889 H 0.81335 0.89059 0.93147 0.0
H890 H 0.88029 0.86525 0.85776 0.0
C891 C 0.78733 0.79633 0.79245 0.0
C892 C 0.75505 0.78583 0.79375 0.0
C893 C 0.7368 0.79487 0.82063 0.0
C894 C 0.75006 0.81474 0.84506 0.0
C895 C 0.78185 0.82517 0.84264 0.0
C896 C 0.80031 0.81569 0.81714 0.0
C897 C 0.83409 0.82901 0.82027 0.0
C898 C 0.85844 0.80248 0.8232 0.0
C899 C 0.84187 0.85053 0.79195 0.0
C900 C 0.83197 0.84769 0.85141 0.0
C901 C 0.80163 0.84564 0.86395 0.0
C902 C 0.79431 0.86155 0.89251 0.0
C903 C 0.81869 0.87911 0.9089 0.0
C904 C 0.85023 0.88038 0.89702 0.0
C905 C 0.85651 0.8647 0.8676 0.0
H906 H 0.76522 0.15059 0.29728 0.0
H907 H 0.69238 0.21497 0.3285 0.0
H908 H 0.71514 0.25579 0.29314 0.0
H909 H 0.82974 0.20704 0.29371 0.0
H910 H 0.84709 0.18952 0.25859 0.0
H911 H 0.82461 0.16555 0.28582 0.0
H912 H 0.78758 0.14665 0.23891 0.0
H913 H 0.80998 0.17052 0.21153 0.0
H914 H 0.76741 0.1752 0.21463 0.0
H915 H 0.74841 0.29102 0.25431 0.0
H916 H 0.78559 0.31477 0.21544 0.0
H917 H 0.83647 0.227 0.21 0.0
C918 C 0.75396 0.17325 0.29699 0.0
C919 C 0.72678 0.17922 0.31624 0.0
C920 C 0.71289 0.20935 0.31414 0.0
C921 C 0.72588 0.23287 0.29412 0.0
C922 C 0.75286 0.22621 0.27587 0.0
C923 C 0.76653 0.19692 0.27705 0.0
C924 C 0.79526 0.19537 0.25506 0.0
C925 C 0.82599 0.18899 0.27446 0.0
C926 C 0.78972 0.17046 0.22846 0.0
C927 C 0.79587 0.22833 0.24129 0.0
C928 C 0.77133 0.24591 0.25362 0.0
C929 C 0.76757 0.27722 0.2446 0.0
C930 C 0.78906 0.29069 0.22248 0.0
C931 C 0.81428 0.27307 0.2091 0.0
C932 C 0.81744 0.24135 0.21905 0.0
H933 H 0.49681 0.52228 0.5759 0.0
H934 H 0.49467 0.5955 0.50444 0.0
H935 H 0.53307 0.62714 0.53672 0.0
H936 H 0.50233 0.57308 0.64486 0.0
H937 H 0.52995 0.54936 0.66719 0.0
H938 H 0.50294 0.5312 0.63815 0.0
H939 H 0.55069 0.50669 0.60869 0.0
H940 H 0.57781 0.52453 0.63784 0.0
H941 H 0.58299 0.53173 0.59567 0.0
H942 H 0.56906 0.65284 0.57762 0.0
H943 H 0.60482 0.66878 0.62261 0.0
H944 H 0.58645 0.5794 0.66835 0.0
C945 C 0.50488 0.54472 0.56688 0.0
C946 C 0.49222 0.55648 0.53766 0.0
C947 C 0.50336 0.58614 0.52691 0.0
C948 C 0.52534 0.60433 0.54507 0.0
C949 C 0.53655 0.59267 0.5741 0.0
C950 C 0.52717 0.56339 0.58486 0.0
C951 C 0.54316 0.55686 0.61717 0.0
C952 C 0.5181 0.55236 0.64339 0.0
C953 C 0.56496 0.52825 0.61469 0.0
C954 C 0.56261 0.58707 0.62278 0.0
C955 C 0.5582 0.6074 0.59762 0.0
C956 C 0.57286 0.63704 0.59741 0.0
C957 C 0.59297 0.64605 0.62333 0.0
C958 C 0.5986 0.62553 0.64927 0.0
C959 C 0.58295 0.59562 0.64886 0.0
H960 H 0.25228 0.09491 0.28577 0.0
H961 H 0.15817 0.12659 0.31243 0.0
H962 H 0.14528 0.07419 0.33306 0.0
H963 H 0.22977 1.02324 0.25647 0.0
H964 H 0.26294 1.00111 0.27175 0.0
H965 H 0.26785 0.04241 0.2644 0.0
H966 H 0.2866 0.05217 0.32325 0.0
H967 H 0.28252 1.0107 0.33068 0.0
H968 H 0.26204 0.03855 0.35559 0.0
H969 H 0.13795 1.0174 0.3387 0.0
H970 H 0.14012 0.95981 0.33985 0.0
H971 H 0.24032 0.9636 0.31488 0.0
C972 C 0.22946 0.09102 0.29709 0.0
C973 C 0.20633 0.11485 0.29781 0.0
C974 C 0.17649 0.10891 0.31227 0.0
C975 C 0.16884 0.07913 0.32382 0.0
C976 C 0.19152 0.05574 0.32133 0.0
C977 C 0.22161 0.06144 0.30928 0.0
C978 C 0.24069 0.03146 0.3076 0.0
C979 C 0.25089 0.02414 0.273 0.0
C980 C 0.26968 0.03334 0.33066 0.0
C981 C 0.21596 1.00788 0.31894 0.0
C982 C 0.18777 1.02254 0.32655 0.0
C983 C 0.16018 1.0057 0.3339 0.0
C984 C 0.16157 0.973 0.33418 0.0
C985 C 0.19048 0.9575 0.32788 0.0
C986 C 0.21812 0.9751 0.32033 0.0
H987 H 0.26519 0.84369 0.4071 0.0
H988 H 0.18516 0.80396 0.45887 0.0
H989 H 0.21861 0.80194 0.50791 0.0
H990 H 0.32824 0.79841 0.44936 0.0
H991 H 0.35612 0.83109 0.44907 0.0
H992 H 0.3268 0.82631 0.41719 0.0
H993 H 0.30699 0.8826 0.42855 0.0
H994 H 0.3358 0.88737 0.46083 0.0
H995 H 0.29394 0.89293 0.4683 0.0
H996 H 0.25826 0.81061 0.55296 0.0
H997 H 0.30398 0.8229 0.58944 0.0
H998 H 0.35915 0.85495 0.50841 0.0
C999 C 0.25493 0.83372 0.42848 0.0
C1000 C 0.22245 0.82399 0.42902 0.0
C1001 C 0.20994 0.81151 0.45771 0.0
C1002 C 0.22874 0.81036 0.4858 0.0
C1003 C 0.26019 0.82137 0.48481 0.0
C1004 C 0.27346 0.8322 0.45676 0.0
C1005 C 0.30758 0.84368 0.46254 0.0
C1006 C 0.33107 0.82367 0.44341 0.0
C1007 C 0.31127 0.87872 0.45459 0.0
C1008 C 0.31111 0.83828 0.49833 0.0
C1009 C 0.28343 0.82552 0.51072 0.0
C1010 C 0.28026 0.82011 0.54346 0.0
C1011 C 0.30625 0.8274 0.56403 0.0
C1012 C 0.33516 0.83971 0.55175 0.0
C1013 C 0.33748 0.84523 0.51845 0.0
H1014 H 0.37374 0.9829 0.70844 0.0
H1015 H 0.29485 0.92535 0.7418 0.0
H1016 H 0.2823 0.9666 0.78201 0.0
H1017 H 0.40184 1.00397 0.78341 0.0
H1018 H 0.4146 0.04314 0.77315 0.0
H1019 H 0.41313 1.01272 0.74285 0.0
H1020 H 0.37567 0.04613 0.70735 0.0
H1021 H 0.3775 0.07702 0.73729 0.0
H1022 H 0.33934 0.06112 0.72394 0.0
H1023 H 0.28253 1.01183 0.82228 0.0
H1024 H 0.2949 0.0569 0.85864 0.0
H1025 H 0.37718 0.08111 0.80139 0.0
C1026 C 0.3534 0.97917 0.72379 0.0
C1027 C 0.33531 0.95091 0.72218 0.0
C1028 C 0.30877 0.947 0.74245 0.0
C1029 C 0.30164 0.97021 0.76543 0.0
C1030 C 0.32127 0.997 0.7676 0.0
C1031 C 0.34649 1.00161 0.7471 0.0
C1032 C 0.36617 0.0305 0.75624 0.0
C1033 C 0.40098 1.02205 0.7644 0.0
C1034 C 0.36455 0.05515 0.72962 0.0
C1035 C 0.34866 0.04113 0.78572 0.0
C1036 C 0.32246 1.02194 0.79157 0.0
C1037 C 0.30287 0.02707 0.81778 0.0
C1038 C 0.31015 0.0526 0.83833 0.0
C1039 C 0.33717 0.07218 0.83288 0.0
C1040 C 0.35663 0.06626 0.8063 0.0
H1041 H 0.30234 0.20724 0.98293 0.0
H1042 H 0.23672 0.12955 0.96172 0.0
H1043 H 0.21855 0.13085 1.01783 0.0
H1044 H 0.32666 0.18083 0.05908 0.0
H1045 H 0.3297 0.21926 0.07757 0.0
H1046 H 0.33551 0.21468 0.03503 0.0
H1047 H 0.29097 0.25473 1.02327 0.0
H1048 H 0.28555 0.26003 0.06579 0.0
H1049 H 0.252 0.24886 0.04027 0.0
H1050 H 0.20955 0.13861 0.07621 0.0
H1051 H 0.20674 0.15536 0.13293 0.0
H1052 H 0.27985 0.22661 0.11726 0.0
C1053 C 0.28355 0.19104 0.98987 0.0
C1054 C 0.27072 0.16842 0.96797 0.0
C1055 C 0.24668 0.14719 0.97811 0.0
C1056 C 0.23637 0.14763 1.00994 0.0
C1057 C 0.25051 0.16931 0.03127 0.0
C1058 C 0.27332 0.19086 1.02166 0.0
C1059 C 0.28553 0.21088 0.04972 0.0
C1060 C 0.32148 0.20612 0.05569 0.0
C1061 C 0.27805 0.24568 0.04445 0.0
C1062 C 0.26594 0.19723 0.07662 0.0
C1063 C 0.24596 0.17324 0.06534 0.0
C1064 C 0.22504 0.15736 0.08532 0.0
C1065 C 0.2237 0.16697 0.11747 0.0
C1066 C 0.24323 0.1921 0.12934 0.0
C1067 C 0.26516 0.20693 0.10886 0.0
H1068 H 0.11054 0.2749 0.15575 0.0
H1069 H 0.11268 0.28445 0.2596 0.0
H1070 H 0.05942 0.30897 0.25751 0.0
H1071 H 0.0668 0.34683 0.13744 0.0
H1072 H 0.04433 0.32796 0.10517 0.0
H1073 H 0.08416 0.31523 0.1148 0.0
H1074 H 0.06248 0.2584 0.12162 0.0
H1075 H 1.02254 0.27097 0.11255 0.0
H1076 H 0.03087 0.25102 0.14959 0.0
H1077 H 1.00497 0.32914 0.24415 0.0
H1078 H 0.95289 0.34381 0.22086 0.0
H1079 H 0.98546 0.31786 0.12588 0.0
C1080 C 0.10026 0.28297 0.17802 0.0
C1081 C 0.11581 0.2783 0.20784 0.0
C1082 C 0.10119 0.28822 0.23652 0.0
C1083 C 0.07101 0.30207 0.23554 0.0
C1084 C 0.0559 0.30546 0.20572 0.0
C1085 C 0.07006 0.29625 0.17749 0.0
C1086 C 0.04784 0.30003 0.14884 0.0
C1087 C 0.0616 0.32394 0.12517 0.0
C1088 C 0.04051 0.26821 0.13219 0.0
C1089 C 1.01875 0.31258 0.16538 0.0
C1090 C 1.02402 0.31584 0.19814 0.0
C1091 C 1.00061 0.32683 0.21855 0.0
C1092 C 0.97112 0.33502 0.20508 0.0
C1093 C 0.96523 0.33182 0.1716 0.0
C1094 C 0.98929 0.32029 0.15157 0.0
H1095 H 0.58124 0.26816 0.85767 0.0
H1096 H 0.56093 0.32195 0.77229 0.0
H1097 H 0.51022 0.29225 0.76407 0.0
H1098 H 0.54259 0.19226 0.82898 0.0
H1099 H 0.52753 0.18423 0.8684 0.0
H1100 H 0.5647 0.20564 0.86416 0.0
H1101 H 0.54264 0.25107 0.89889 0.0
H1102 H 0.50544 0.22999 0.90302 0.0
H1103 H 0.50568 0.26914 0.88707 0.0
H1104 H 0.45866 0.2621 0.76944 0.0
H1105 H 0.41025 0.23445 0.7886 0.0
H1106 H 0.46455 0.20006 0.87007 0.0
C1107 C 0.56662 0.27285 0.83665 0.0
C1108 C 0.57495 0.29713 0.81551 0.0
C1109 C 0.55483 0.30339 0.78877 0.0
C1110 C 0.52613 0.28653 0.7838 0.0
C1111 C 0.51802 0.26338 0.80569 0.0
C1112 C 0.5378 0.25636 0.83147 0.0
C1113 C 0.52204 0.23294 0.85343 0.0
C1114 C 0.54031 0.20192 0.85374 0.0
C1115 C 0.51876 0.24662 0.8876 0.0
C1116 C 0.48986 0.22894 0.83675 0.0
C1117 C 0.48814 0.24619 0.80893 0.0
C1118 C 0.45989 0.248 0.79085 0.0
C1119 C 0.43254 0.2322 0.80184 0.0
C1120 C 0.43367 0.21522 0.83082 0.0
C1121 C 0.46295 0.21301 0.8479 0.0
H1122 H 0.9708 0.67629 0.3463 0.0
H1123 H 0.9185 0.72121 0.2696 0.0
H1124 H 0.96883 0.74539 0.25067 0.0
H1125 H 1.01248 0.73753 0.36934 0.0
H1126 H 0.04956 0.71877 0.3794 0.0
H1127 H 1.01285 0.69664 0.38006 0.0
H1128 H 0.0354 0.65595 0.33999 0.0
H1129 H 0.07264 0.67782 0.33949 0.0
H1130 H 0.05146 0.66893 0.30241 0.0
H1131 H 1.01984 0.7753 0.24978 0.0
H1132 H 0.06731 0.80719 0.26578 0.0
H1133 H 0.0867 0.74356 0.34375 0.0
C1134 C 0.97035 0.69013 0.32465 0.0
C1135 C 0.94113 0.69701 0.30926 0.0
C1136 C 0.94089 0.71546 0.28135 0.0
C1137 C 0.96935 0.7292 0.27048 0.0
C1138 C 0.99767 0.72369 0.28756 0.0
C1139 C 0.99844 0.70404 0.31376 0.0
C1140 C 0.03022 0.70622 0.33151 0.0
C1141 C 0.02599 0.71536 0.36714 0.0
C1142 C 0.04851 0.67539 0.32813 0.0
C1143 C 0.0462 0.73223 0.31303 0.0
C1144 C 0.02751 0.7413 0.28713 0.0
C1145 C 0.03512 0.76779 0.26932 0.0
C1146 C 0.06191 0.78592 0.27875 0.0
C1147 C 0.08053 0.77761 0.30591 0.0
C1148 C 0.07325 0.74984 0.32243 0.0
H1149 H 0.59035 0.75286 0.73633 0.0
H1150 H 0.64037 0.75366 0.64562 0.0
H1151 H 0.59352 0.77567 0.61893 0.0
H1152 H 0.51368 0.73231 0.70514 0.0
H1153 H 0.49179 0.7582 0.731 0.0
H1154 H 0.5297 0.74317 0.74422 0.0
H1155 H 0.55136 0.79983 0.75423 0.0
H1156 H 0.51333 0.81502 0.74155 0.0
H1157 H 0.5494 0.82792 0.72225 0.0
H1158 H 0.54009 0.7924 0.60025 0.0
H1159 H 0.48513 0.81218 0.59302 0.0
H1160 H 0.47058 0.80542 0.69559 0.0
C1161 C 0.59157 0.75824 0.71104 0.0
C1162 C 0.61902 0.75129 0.69316 0.0
C1163 C 0.61966 0.75863 0.66 0.0
C1164 C 0.59308 0.77105 0.64441 0.0
C1165 C 0.56609 0.77669 0.66234 0.0
C1166 C 0.56527 0.77137 0.69503 0.0
C1167 C 0.5332 0.78035 0.70847 0.0
C1168 C 0.51609 0.7518 0.72306 0.0
C1169 C 0.53706 0.80739 0.73308 0.0
C1170 C 0.51625 0.79097 0.67811 0.0
C1171 C 0.53554 0.78819 0.65171 0.0
C1172 C 0.52479 0.79516 0.62077 0.0
C1173 C 0.49359 0.80609 0.61681 0.0
C1174 C 0.47399 0.8104 0.64374 0.0
C1175 C 0.48537 0.80254 0.67468 0.0
H1176 H 0.98157 0.02983 0.72566 0.0
H1177 H 0.95938 0.12487 0.75537 0.0
H1178 H 0.95771 0.10798 0.81178 0.0
H1179 H 0.9272 0.99406 0.77241 0.0
H1180 H 0.95048 0.9602 0.78237 0.0
H1181 H 0.95776 0.98068 0.74568 0.0
H1182 H 1.01735 0.98904 0.76188 0.0
H1183 H 1.01045 0.96798 0.79848 0.0
H1184 H 0.02758 1.00706 0.80013 0.0
H1185 H 0.94893 0.07913 0.86294 0.0
H1186 H 0.93699 0.04114 0.90554 0.0
H1187 H 0.96272 0.96462 0.84161 0.0
C1188 C 0.97731 0.04727 0.74417 0.0
C1189 C 0.97072 0.07864 0.73621 0.0
C1190 C 0.96508 0.10082 0.76099 0.0
C1191 C 0.9639 0.0914 0.79309 0.0
C1192 C 0.96869 0.05985 0.79989 0.0
C1193 C 0.97576 0.0382 0.77615 0.0
C1194 C 0.97618 1.00515 0.78899 0.0
C1195 C 0.95143 0.9838 0.77131 0.0
C1196 C 1.0099 0.99151 0.78728 0.0
C1197 C 0.96678 1.0114 0.8233 0.0
C1198 C 0.96307 0.0431 0.8293 0.0
C1199 C 0.95236 0.05431 0.85872 0.0
C1200 C 0.94542 0.03252 0.88267 0.0
C1201 C 0.94894 0.99991 0.87688 0.0
C1202 C 0.95995 0.98938 0.84685 0.0
H1203 H 0.85599 0.11711 0.51552 0.0
H1204 H 0.82619 0.091 0.61106 0.0
H1205 H 0.77028 0.08681 0.59195 0.0
H1206 H 0.78844 0.1634 0.49542 0.0
H1207 H 0.78603 0.15029 0.45414 0.0
H1208 H 0.82395 0.15102 0.47517 0.0
H1209 H 0.83116 0.09199 0.46178 0.0
H1210 H 0.79325 0.09112 0.44067 0.0
H1211 H 0.80055 0.06405 0.4728 0.0
H1212 H 0.71729 0.08891 0.56361 0.0
H1213 H 0.67095 0.09307 0.52627 0.0
H1214 H 0.73542 0.1141 0.44854 0.0
C1215 C 0.83767 0.1104 0.5323 0.0
C1216 C 0.84533 0.10441 0.56472 0.0
C1217 C 0.82082 0.09552 0.58603 0.0
C1218 C 0.78898 0.09316 0.57547 0.0
C1219 C 0.78212 0.09932 0.54341 0.0
C1220 C 0.80575 0.10737 0.52201 0.0
C1221 C 0.79186 0.1124 0.48874 0.0
C1222 C 0.79793 0.14629 0.47773 0.0
C1223 C 0.80499 0.08846 0.46458 0.0
C1224 C 0.75678 0.10629 0.49497 0.0
C1225 C 0.75163 0.09905 0.52671 0.0
C1226 C 0.721 0.09412 0.53857 0.0
C1227 C 0.69489 0.0966 0.5173 0.0
C1228 C 0.69977 0.10343 0.48461 0.0
C1229 C 0.73111 0.10818 0.47334 0.0
H1230 H 0.62398 0.09483 0.28921 0.0
H1231 H 0.60026 0.02605 0.36118 0.0
H1232 H 0.57035 0.99435 0.32022 0.0
H1233 H 0.55054 0.08708 0.23912 0.0
H1234 H 0.57207 0.08989 0.20208 0.0
H1235 H 0.58718 0.10982 0.23774 0.0
H1236 H 0.64124 0.08127 0.23271 0.0
H1237 H 0.6265 0.06199 0.19673 0.0
H1238 H 0.64131 0.03901 0.22966 0.0
H1239 H 0.54556 0.96933 0.27179 0.0
H1240 H 0.53793 0.94618 0.21782 0.0
H1241 H 0.58157 0.02916 0.17631 0.0
C1242 C 0.61216 0.0732 0.29617 0.0
C1243 C 0.61409 0.06261 0.32798 0.0
C1244 C 0.59903 0.03412 0.33663 0.0
C1245 C 0.58164 1.01634 0.31372 0.0
C1246 C 0.57998 0.02738 0.2824 0.0
C1247 C 0.59546 0.05476 0.27341 0.0
C1248 C 0.59395 0.05896 0.23743 0.0
C1249 C 0.57478 0.08817 0.22858 0.0
C1250 C 0.62774 0.06036 0.22331 0.0
C1251 C 0.57612 0.02913 0.2275 0.0
C1252 C 0.56725 1.0119 0.25391 0.0
C1253 C 0.55225 0.98262 0.25089 0.0
C1254 C 0.54797 0.96971 0.22009 0.0
C1255 C 0.55963 0.98569 0.19291 0.0
C1256 C 0.57229 1.01645 0.19659 0.0
H1257 H 0.70207 0.97881 0.05147 0.0
H1258 H 0.72857 0.94361 0.14537 0.0
H1259 H 0.78534 0.94574 0.13063 0.0
H1260 H 0.75478 0.93427 1.00837 0.0
H1261 H 0.76465 0.96379 0.97935 0.0
H1262 H 0.72655 0.9644 0.99871 0.0
H1263 H 0.73763 1.02149 1.01862 0.0
H1264 H 0.77565 1.02125 0.99888 0.0
H1265 H 0.7738 0.03056 0.04113 0.0
H1266 H 0.83791 0.94411 0.10319 0.0
H1267 H 0.88357 0.94364 0.06625 0.0
H1268 H 0.82292 0.98025 0.99047 0.0
C1269 C 0.71991 0.97225 0.06916 0.0
C1270 C 0.71096 0.96127 0.09961 0.0
C1271 C 0.73492 0.9527 0.12211 0.0
C1272 C 0.76723 0.95362 0.1139 0.0
C1273 C 0.77513 0.96344 0.08324 0.0
C1274 C 0.75223 0.97309 0.06138 0.0
C1275 C 0.76681 0.98058 0.02931 0.0
C1276 C 0.75234 0.9595 1.00236 0.0
C1277 C 0.76327 1.01555 1.02154 0.0
C1278 C 0.80127 0.97262 0.03625 0.0
C1279 C 0.80562 0.96289 0.06751 0.0
C1280 C 0.83497 0.95226 0.07883 0.0
C1281 C 0.86065 0.95184 0.05765 0.0
C1282 C 0.8567 0.96208 0.02567 0.0
C1283 C 0.82668 0.97269 1.01496 0.0
H1284 H 0.10018 0.7417 0.96129 0.0
H1285 H 0.07541 0.7351 0.85999 0.0
H1286 H 0.05734 0.79027 0.86137 0.0
H1287 H 0.03288 0.78758 0.98397 0.0
H1288 H 0.05509 0.81004 1.01398 0.0
H1289 H 0.06679 0.77065 1.00415 0.0
H1290 H 0.12383 0.79139 0.9917 0.0
H1291 H 0.11204 0.83097 1.00083 0.0
H1292 H 0.12893 0.82176 0.96237 0.0
H1293 H 0.04277 0.84585 0.87393 0.0
H1294 H 1.02404 0.89509 0.89814 0.0
H1295 H 0.05769 0.86501 0.99174 0.0
C1296 C 0.0908 0.75194 0.93947 0.0
C1297 C 0.08912 0.7345 0.9105 0.0
C1298 C 0.07655 0.74826 0.88241 0.0
C1299 C 0.06665 0.77956 0.88292 0.0
C1300 C 0.06938 0.79643 0.91177 0.0
C1301 C 0.08057 0.78292 0.93966 0.0
C1302 C 0.07935 0.80548 0.96792 0.0
C1303 C 0.0572 0.79268 0.99403 0.0
C1304 C 0.11305 0.81282 0.98149 0.0
C1305 C 0.06535 0.83377 0.95167 0.0
C1306 C 0.06039 0.82826 0.91917 0.0
C1307 C 0.04671 0.85052 0.89928 0.0
C1308 C 0.03651 0.8786 0.91324 0.0
C1309 C 0.03972 0.88398 0.94681 0.0
C1310 C 0.05521 0.86162 0.96601 0.0
H1311 H 0.48232 0.68825 0.13663 0.0
H1312 H 0.55688 0.65039 0.07677 0.0
H1313 H 0.58476 0.70206 0.07856 0.0
H1314 H 0.47658 0.75944 0.09996 0.0
H1315 H 0.46985 0.78222 0.1359 0.0
H1316 H 0.45825 0.74139 0.13417 0.0
H1317 H 0.49271 0.73039 0.18482 0.0
H1318 H 0.50398 0.77136 0.18723 0.0
H1319 H 0.53436 0.74188 0.1858 0.0
H1320 H 0.60035 0.75884 0.08122 0.0
H1321 H 0.60576 0.81608 0.08827 0.0
H1322 H 0.52048 0.81663 0.14642 0.0
C1323 C 0.50488 0.69053 0.12444 0.0
C1324 C 0.51747 0.66539 0.10647 0.0
C1325 C 0.54698 0.66934 0.09083 0.0
C1326 C 0.56288 0.69857 0.09165 0.0
C1327 C 0.54901 0.72321 0.10851 0.0
C1328 C 0.52095 0.71933 0.12507 0.0
C1329 C 0.50991 0.74988 0.13972 0.0
C1330 C 0.47669 0.75874 0.12664 0.0
C1331 C 0.51028 0.74827 0.17658 0.0
C1332 C 0.53561 0.77192 0.12787 0.0
C1333 C 0.55803 0.756 0.11012 0.0
C1334 C 0.58325 0.77148 0.09546 0.0
C1335 C 0.58593 0.80403 0.09945 0.0
C1336 C 0.56348 0.82074 0.11793 0.0
C1337 C 0.53797 0.80444 0.13222 0.0
H1338 H 1.01712 0.17408 0.64004 0.0
H1339 H 1.01672 0.16216 0.53673 0.0
H1340 H 0.03731 0.21665 0.5311 0.0
H1341 H 0.98203 0.24518 0.63751 0.0
H1342 H 1.00233 0.26236 0.67209 0.0
H1343 H 0.99662 0.22048 0.66917 0.0
H1344 H 0.05759 0.21208 0.67567 0.0
H1345 H 0.06351 0.25395 0.67967 0.0
H1346 H 0.08479 0.23231 0.64956 0.0
H1347 H 0.05218 0.27375 0.53682 0.0
H1348 H 0.06024 0.32944 0.55323 0.0
H1349 H 0.04203 0.3053 0.65208 0.0
C1350 C 1.02286 0.18252 0.61639 0.0
C1351 C 1.01652 0.16398 0.58881 0.0
C1352 C 1.02267 0.17599 0.55805 0.0
C1353 C 0.03404 0.20688 0.55471 0.0
C1354 C 0.03823 0.22533 0.58238 0.0
C1355 C 0.03289 0.21358 0.61267 0.0
C1356 C 0.03407 0.23926 0.63806 0.0
C1357 C 1.00185 0.24196 0.65519 0.0
C1358 C 0.06164 0.23409 0.66216 0.0
C1359 C 0.04047 0.2674 0.61731 0.0
C1360 C 0.04344 0.25882 0.58537 0.0
C1361 C 0.04986 0.28076 0.56172 0.0
C1362 C 0.05408 0.31223 0.57113 0.0
C1363 C 0.05085 0.32132 0.60364 0.0
C1364 C 0.04363 0.2988 0.62694 0.0
H1365 H 0.5166 0.36019 0.42649 0.0
H1366 H 0.55358 0.38962 0.52041 0.0
H1367 H 0.59262 0.34672 0.51821 0.0
H1368 H 0.52175 0.28156 0.43437 0.0
H1369 H 0.53449 0.27382 0.39395 0.0
H1370 H 0.51109 0.30781 0.40245 0.0
H1371 H 0.5548 0.3438 0.37816 0.0
H1372 H 0.57833 0.30982 0.36923 0.0
H1373 H 0.5954 0.34172 0.39295 0.0
H1374 H 0.62346 0.29587 0.50729 0.0
H1375 H 0.6433 0.24453 0.48808 0.0
H1376 H 0.59073 0.25585 0.39851 0.0
C1377 C 0.53352 0.35891 0.44626 0.0
C1378 C 0.53182 0.37887 0.47353 0.0
C1379 C 0.55386 0.37457 0.49931 0.0
C1380 C 0.57644 0.35045 0.49815 0.0
C1381 C 0.57725 0.33138 0.47071 0.0
C1382 C 0.55664 0.33589 0.44505 0.0
C1383 C 0.5612 0.312 0.4186 0.0
C1384 C 0.53031 0.29267 0.412 0.0
C1385 C 0.57316 0.32778 0.38793 0.0
C1386 C 0.58679 0.29237 0.43381 0.0
C1387 C 0.59593 0.3037 0.46385 0.0
C1388 C 0.61699 0.28724 0.48349 0.0
C1389 C 0.62824 0.25816 0.47235 0.0
C1390 C 0.61836 0.24603 0.44189 0.0
C1391 C 0.59841 0.26415 0.4221 0.0
H1392 H 0.65265 0.47727 0.80538 0.0
H1393 H 0.75442 0.47279 0.82577 0.0
H1394 H 0.75898 0.53051 0.8206 0.0
H1395 H 0.65597 0.53925 0.74724 0.0
H1396 H 0.61975 0.55702 0.76088 0.0
H1397 H 0.62526 0.51546 0.76528 0.0
H1398 H 0.61511 0.52116 0.82634 0.0
H1399 H 0.61027 0.56288 0.82224 0.0
H1400 H 0.63953 0.54807 0.85016 0.0
H1401 H 0.75244 0.58874 0.81144 0.0
H1402 H 0.73552 0.6424 0.79765 0.0
H1403 H 0.63752 0.6088 0.78711 0.0
C1404 C 0.676 0.48837 0.8083 0.0
C1405 C 0.70329 0.47054 0.81559 0.0
C1406 C 0.73326 0.48601 0.81992 0.0
C1407 C 0.73604 0.51878 0.81719 0.0
C1408 C 0.70853 0.53574 0.81058 0.0
C1409 C 0.67909 0.52104 0.80616 0.0
C1410 C 0.65315 0.54461 0.79959 0.0
C1411 C 0.63763 0.53873 0.76627 0.0
C1412 C 0.62804 0.54415 0.82617 0.0
C1413 C 0.67264 0.57488 0.80055 0.0
C1414 C 0.70454 0.5693 0.8069 0.0
C1415 C 0.72745 0.59343 0.80687 0.0
C1416 C 0.71763 0.62385 0.79919 0.0
C1417 C 0.68515 0.62992 0.79198 0.0
C1418 C 0.66235 0.60516 0.7935 0.0
H1419 H 0.80111 0.37564 0.90749 0.0
H1420 H 0.71402 0.31991 0.91649 0.0
H1421 H 0.73048 0.30577 0.97154 0.0
H1422 H 0.85373 0.32447 0.95713 0.0
H1423 H 0.87502 0.35788 0.97434 0.0
H1424 H 0.85873 0.35972 0.9341 0.0
H1425 H 0.82778 0.40961 0.94994 0.0
H1426 H 0.84358 0.40772 0.99025 0.0
H1427 H 0.80097 0.40825 0.98338 0.0
H1428 H 0.75242 0.30385 0.02763 0.0
H1429 H 0.77986 0.31141 0.07998 0.0
H1430 H 0.85337 0.36782 0.0348 0.0
C1431 C 0.78591 0.35966 0.92061 0.0
C1432 C 0.75626 0.34879 0.90754 0.0
C1433 C 0.73688 0.32841 0.92586 0.0
C1434 C 0.74604 0.32027 0.95719 0.0
C1435 C 0.7748 0.33241 0.96976 0.0
C1436 C 0.79469 0.35132 0.95191 0.0
C1437 C 0.82312 0.36322 0.97188 0.0
C1438 C 0.85451 0.35056 0.95857 0.0
C1439 C 0.82388 0.39933 0.97398 0.0
C1440 C 0.81557 0.34888 1.00406 0.0
C1441 C 0.78769 0.33103 1.00221 0.0
C1442 C 0.77456 0.31728 0.02924 0.0
C1443 C 0.79024 0.3219 0.05892 0.0
C1444 C 0.81885 0.34007 0.06145 0.0
C1445 C 0.83183 0.3534 0.03352 0.0
H1446 H 0.86299 0.48889 0.19431 0.0
H1447 H 0.76988 0.44937 0.21513 0.0
H1448 H 0.76323 0.48922 0.25821 0.0
H1449 H 0.88735 0.49639 0.27082 0.0
H1450 H 0.90988 0.5326 0.26758 0.0
H1451 H 0.90431 0.50739 0.23296 0.0
H1452 H 0.87909 0.55256 0.2007 0.0
H1453 H 0.88567 0.57842 0.23481 0.0
H1454 H 0.84619 0.57382 0.21734 0.0
H1455 H 0.77083 0.52699 0.30422 0.0
H1456 H 0.78993 0.56315 0.34737 0.0
H1457 H 0.87998 0.57549 0.29839 0.0
C1458 C 0.84045 0.49002 0.2067 0.0
C1459 C 0.81636 0.46711 0.20088 0.0
C1460 C 0.78793 0.46765 0.21867 0.0
C1461 C 0.78418 0.48995 0.24331 0.0
C1462 C 0.80925 0.51118 0.2498 0.0
C1463 C 0.83666 0.51173 0.23167 0.0
C1464 C 0.86178 0.5339 0.24609 0.0
C1465 C 0.89263 0.51651 0.25488 0.0
C1466 C 0.86857 0.56131 0.22339 0.0
C1467 C 0.84471 0.54486 0.27579 0.0
C1468 C 0.8143 0.53185 0.27726 0.0
C1469 C 0.79441 0.53767 0.30307 0.0
C1470 C 0.80558 0.558 0.32758 0.0
C1471 C 0.83651 0.57192 0.32629 0.0
C1472 C 0.85638 0.56492 0.3002 0.0
H1473 H 0.77938 0.62309 0.61045 0.0
H1474 H 0.8036 0.71909 0.6369 0.0
H1475 H 0.81653 0.73034 0.58056 0.0
H1476 H 0.83723 0.61601 0.53859 0.0
H1477 H 0.80751 0.59262 0.51712 0.0
H1478 H 0.81104 0.59003 0.56018 0.0
H1479 H 0.75084 0.60262 0.56377 0.0
H1480 H 0.74742 0.60741 0.52108 0.0
H1481 H 0.73645 0.63899 0.54771 0.0
H1482 H 0.81344 0.73432 0.52038 0.0
H1483 H 0.80675 0.72752 0.4616 0.0
H1484 H 0.78076 0.62957 0.47494 0.0
C1485 C 0.78979 0.64573 0.60466 0.0
C1486 C 0.79093 0.67013 0.62786 0.0
C1487 C 0.80333 0.69995 0.61952 0.0
C1488 C 0.81016 0.70666 0.58743 0.0
C1489 C 0.80497 0.68306 0.56437 0.0
C1490 C 0.79622 0.6528 0.57272 0.0
C1491 C 0.78819 0.6328 0.54331 0.0
C1492 C 0.81244 0.6063 0.53958 0.0
C1493 C 0.75369 0.61971 0.54405 0.0
C1494 C 0.79196 0.65693 0.51732 0.0
C1495 C 0.80205 0.68566 0.5298 0.0
C1496 C 0.80615 0.71175 0.51032 0.0
C1497 C 0.8017 0.70783 0.47703 0.0
C1498 C 0.79293 0.67812 0.46369 0.0
C1499 C 0.78699 0.65272 0.48434 0.0
H1500 H 0.47868 0.57022 0.2485 0.0
H1501 H 0.41446 0.49843 0.20886 0.0
H1502 H 0.41277 0.47265 0.26157 0.0
H1503 H 0.5216 0.51836 0.30779 0.0
H1504 H 0.52362 0.54937 0.33761 0.0
H1505 H 0.52478 0.55872 0.29554 0.0
H1506 H 0.4766 0.59543 0.30286 0.0
H1507 H 0.47492 0.58587 0.34473 0.0
H1508 H 0.44008 0.5799 0.31927 0.0
H1509 H 0.41108 0.45976 0.31858 0.0
H1510 H 0.41141 0.45823 0.37738 0.0
H1511 H 0.47678 0.53846 0.38161 0.0
C1512 C 0.46532 0.5484 0.2508 0.0
C1513 C 0.44694 0.53595 0.22487 0.0
C1514 C 0.42877 0.50803 0.22864 0.0
C1515 C 0.42778 0.49325 0.25835 0.0
C1516 C 0.44519 0.50672 0.28386 0.0
C1517 C 0.46391 0.53346 0.28044 0.0
C1518 C 0.47742 0.54492 0.31253 0.0
C1519 C 0.51403 0.5427 0.31341 0.0
C1520 C 0.46659 0.57851 0.32029 0.0
C1521 C 0.46219 0.52124 0.33462 0.0
C1522 C 0.44407 0.49924 0.31741 0.0
C1523 C 0.42564 0.47645 0.33234 0.0
C1524 C 0.42573 0.47605 0.3658 0.0
C1525 C 0.44407 0.49835 0.38404 0.0
C1526 C 0.46285 0.52098 0.36821 0.0
H1527 H 0.21307 0.58236 0.99299 0.0
H1528 H 0.25479 0.5822 0.89858 0.0
H1529 H 0.30889 0.58711 0.92332 0.0
H1530 H 0.26102 0.63806 0.02775 0.0
H1531 H 0.26531 0.62039 0.06665 0.0
H1532 H 0.23039 0.61182 0.04222 0.0
H1533 H 0.24124 0.55218 0.04467 0.0
H1534 H 0.27566 0.56042 0.07009 0.0
H1535 H 0.27987 0.53779 0.0336 0.0
H1536 H 0.35664 0.60236 0.95817 0.0
H1537 H 0.39642 0.61547 1.00118 0.0
H1538 H 0.3238 0.60141 0.07289 0.0
C1539 C 0.23379 0.58174 0.97773 0.0
C1540 C 0.23021 0.58111 0.94408 0.0
C1541 C 0.25745 0.58164 0.92449 0.0
C1542 C 0.28812 0.58481 0.93832 0.0
C1543 C 0.29087 0.58678 0.9717 0.0
C1544 C 0.26451 0.58416 0.9912 0.0
C1545 C 0.27373 0.58827 0.02628 0.0
C1546 C 0.25659 0.6163 0.0416 0.0
C1547 C 0.26725 0.55785 0.04475 0.0
C1548 C 0.30915 0.59485 1.02343 0.0
C1549 C 0.31858 0.59421 0.99177 0.0
C1550 C 0.34971 0.60217 0.98309 0.0
C1551 C 0.37198 0.60998 1.00755 0.0
C1552 C 0.36298 0.60931 0.04011 0.0
C1553 C 0.33121 0.60179 0.04809 0.0
H1554 H 0.11122 0.60361 0.7783 0.0
H1555 H 0.08292 0.54423 0.85719 0.0
H1556 H 0.05758 0.5067 0.81866 0.0
H1557 H 0.04054 0.58526 0.72358 0.0
H1558 H 0.06551 0.58539 0.68871 0.0
H1559 H 0.07537 0.61065 0.72259 0.0
H1560 H 0.13182 0.58656 0.72597 0.0
H1561 H 0.12215 0.56131 0.69229 0.0
H1562 H 0.13551 0.54463 0.72963 0.0
H1563 H 0.04318 0.47199 0.77186 0.0
H1564 H 0.04245 0.44225 0.72067 0.0
H1565 H 0.08044 0.52413 0.67229 0.0
C1566 C 0.09873 0.58326 0.78753 0.0
C1567 C 0.09881 0.57691 0.82069 0.0
C1568 C 0.08303 0.54958 0.83183 0.0
C1569 C 0.06839 0.52823 0.81015 0.0
C1570 C 0.06962 0.53466 0.77747 0.0
C1571 C 0.08426 0.56162 0.76621 0.0
C1572 C 0.08604 0.56109 0.72996 0.0
C1573 C 0.06564 0.58714 0.71536 0.0
C1574 C 0.12094 0.56352 0.71884 0.0
C1575 C 0.07157 0.52898 0.7227 0.0
C1576 C 0.06157 0.51438 0.75033 0.0
C1577 C 0.05027 0.48342 0.74997 0.0
C1578 C 0.04999 0.46669 0.72076 0.0
C1579 C 0.06129 0.4809 0.69245 0.0
C1580 C 0.07123 0.51273 0.6934 0.0
H1581 H 0.35071 0.43317 0.55662 0.0
H1582 H 0.33998 0.52594 0.51666 0.0
H1583 H 0.29276 0.53451 0.55016 0.0
H1584 H 0.27211 0.41339 0.55192 0.0
H1585 H 0.27033 0.39103 0.58834 0.0
H1586 H 0.30746 0.39501 0.56767 0.0
H1587 H 0.33457 0.41764 0.61951 0.0
H1588 H 0.2973 0.41377 0.64038 0.0
H1589 H 0.31775 0.45129 0.63929 0.0
H1590 H 0.24247 0.52983 0.5796 0.0
H1591 H 0.19084 0.51082 0.60078 0.0
H1592 H 0.23261 0.42083 0.62117 0.0
C1593 C 0.33901 0.45566 0.55594 0.0
C1594 C 0.34894 0.47905 0.53449 0.0
C1595 C 0.3326 0.50781 0.53314 0.0
C1596 C 0.30599 0.51299 0.55227 0.0
C1597 C 0.29602 0.48912 0.57253 0.0
C1598 C 0.31198 0.46096 0.57452 0.0
C1599 C 0.29349 0.43738 0.59417 0.0
C1600 C 0.28536 0.40747 0.57433 0.0
C1601 C 0.31188 0.42957 0.62519 0.0
C1602 C 0.2639 0.45607 0.60135 0.0
C1603 C 0.26627 0.48619 0.58944 0.0
C1604 C 0.24061 0.50668 0.58987 0.0
C1605 C 0.21147 0.4958 0.60191 0.0
C1606 C 0.20843 0.46481 0.61315 0.0
C1607 C 0.23504 0.445 0.61366 0.0
loop_
_geom_bond_atom_site_label_1
_geom_bond_atom_site_label_2
_geom_bond_distance
_geom_bond_site_symmetry_2
_ccdc_geom_bond_type
Co0 N4 2.148 . S
Co0 N10 2.128 . S
Co0 N20 2.194 . S
Co0 O25 2.351 . S
Co0 O26 2.155 . S
Co0 O27 2.096 . S
C1 N4 1.301 . S
C1 N5 1.328 . S
C1 H6 0.930 . S
C2 C3 1.333 . S
C2 N4 1.317 . S
C2 H7 0.930 . S
C3 C2 1.333 . S
C3 N5 1.350 . S
C3 H29 0.931 . S
N4 Co0 2.148 . S
N4 C1 1.301 . S
N4 C2 1.317 . S
N5 C1 1.328 . S
N5 C3 1.350 . S
H6 C1 0.930 . S
H7 C2 0.930 . S
C8 O9 1.224 . S
C8 O27 1.247 . S
O9 C8 1.224 . S
N10 Co0 2.128 . S
N10 C11 1.355 . S
N10 C13 1.311 . S
C11 N10 1.355 . S
C11 C12 1.363 . S
C11 H23 0.929 . S
C12 C11 1.363 . S
C12 N14 1.375 . S
C12 H30 0.931 . S
C13 N10 1.311 . S
C13 N14 1.347 . S
C13 H24 0.929 . S
N14 C12 1.375 . S
N14 C13 1.347 . S
C15 C18 1.365 . S
C15 N20 1.328 . S
C15 H21 0.929 . S
C16 C17 1.362 . S
C16 C19 1.378 . S
C16 H31 0.929 . S
C17 C16 1.362 . S
C17 C18 1.366 . S
C18 C15 1.365 . S
C18 C17 1.366 . S
C18 H32 0.930 . S
C19 C16 1.378 . S
C19 N20 1.315 . S
C19 H22 0.930 . S
N20 Co0 2.194 . S
N20 C15 1.328 . S
N20 C19 1.315 . S
H21 C15 0.929 . S
H22 C19 0.930 . S
H23 C11 0.929 . S
H24 C13 0.929 . S
O25 Co0 2.351 . S
O25 C28 1.244 . S
O26 Co0 2.155 . S
O26 C28 1.240 . S
O27 Co0 2.096 . S
O27 C8 1.247 . S
C28 O25 1.244 . S
C28 O26 1.240 . S
H29 C3 0.931 . S
H30 C12 0.931 . S
H31 C16 0.929 . S
H32 C18 0.930 . S
Co33 N37 2.148 . S
Co33 N43 2.128 . S
Co33 N53 2.194 . S
Co33 O58 2.351 . S
Co33 O59 2.155 . S
Co33 O60 2.096 . S
C34 N37 1.301 . S
C34 N38 1.328 . S
C34 H39 0.930 . S
C35 C36 1.333 . S
C35 N37 1.317 . S
C35 H40 0.930 . S
C36 C35 1.333 . S
C36 N38 1.350 . S
C36 H62 0.931 . S
N37 Co33 2.148 . S
N37 C34 1.301 . S
N37 C35 1.317 . S
N38 C34 1.328 . S
N38 C36 1.350 . S
H39 C34 0.930 . S
H40 C35 0.930 . S
C41 O42 1.224 . S
C41 O60 1.247 . S
O42 C41 1.224 . S
N43 Co33 2.128 . S
N43 C44 1.355 . S
N43 C46 1.311 . S
C44 N43 1.355 . S
C44 C45 1.363 . S
C44 H56 0.929 . S
C45 C44 1.363 . S
C45 N47 1.375 . S
C45 H63 0.931 . S
C46 N43 1.311 . S
C46 N47 1.347 . S
C46 H57 0.929 . S
N47 C45 1.375 . S
N47 C46 1.347 . S
C48 C51 1.365 . S
C48 N53 1.328 . S
C48 H54 0.929 . S
C49 C50 1.362 . S
C49 C52 1.378 . S
C49 H64 0.929 . S
C50 C49 1.362 . S
C50 C51 1.366 . S
C51 C48 1.365 . S
C51 C50 1.366 . S
C51 H65 0.930 . S
C52 C49 1.378 . S
C52 N53 1.315 . S
C52 H55 0.930 . S
N53 Co33 2.194 . S
N53 C48 1.328 . S
N53 C52 1.315 . S
H54 C48 0.929 . S
H55 C52 0.930 . S
H56 C44 0.929 . S
H57 C46 0.929 . S
O58 Co33 2.351 . S
O58 C61 1.244 . S
O59 Co33 2.155 . S
O59 C61 1.240 . S
O60 Co33 2.096 . S
O60 C41 1.247 . S
C61 O58 1.244 . S
C61 O59 1.240 . S
H62 C36 0.931 . S
H63 C45 0.931 . S
H64 C49 0.929 . S
H65 C51 0.930 . S
Co66 N70 2.148 . S
Co66 N76 2.128 . S
Co66 N86 2.194 . S
Co66 O91 2.351 . S
Co66 O92 2.155 . S
Co66 O93 2.096 . S
C67 N70 1.301 . S
C67 N71 1.328 . S
C67 H72 0.930 . S
C68 C69 1.333 . S
C68 N70 1.317 . S
C68 H73 0.930 . S
C69 C68 1.333 . S
C69 N71 1.350 . S
C69 H95 0.931 . S
N70 Co66 2.148 . S
N70 C67 1.301 . S
N70 C68 1.317 . S
N71 C67 1.328 . S
N71 C69 1.350 . S
H72 C67 0.930 . S
H73 C68 0.930 . S
C74 O75 1.224 . S
C74 O93 1.247 . S
O75 C74 1.224 . S
N76 Co66 2.128 . S
N76 C77 1.355 . S
N76 C79 1.311 . S
C77 N76 1.355 . S
C77 C78 1.363 . S
C77 H89 0.929 . S
C78 C77 1.363 . S
C78 N80 1.375 . S
C78 H96 0.931 . S
C79 N76 1.311 . S
C79 N80 1.347 . S
C79 H90 0.929 . S
N80 C78 1.375 . S
N80 C79 1.347 . S
C81 C84 1.365 . S
C81 N86 1.328 . S
C81 H87 0.929 . S
C82 C83 1.362 . S
C82 C85 1.378 . S
C82 H97 0.929 . S
C83 C82 1.362 . S
C83 C84 1.366 . S
C84 C81 1.365 . S
C84 C83 1.366 . S
C84 H98 0.930 . S
C85 C82 1.378 . S
C85 N86 1.315 . S
C85 H88 0.930 . S
N86 Co66 2.194 . S
N86 C81 1.328 . S
N86 C85 1.315 . S
H87 C81 0.929 . S
H88 C85 0.930 . S
H89 C77 0.929 . S
H90 C79 0.929 . S
O91 Co66 2.351 . S
O91 C94 1.244 . S
O92 Co66 2.155 . S
O92 C94 1.240 . S
O93 Co66 2.096 . S
O93 C74 1.247 . S
C94 O91 1.244 . S
C94 O92 1.240 . S
H95 C69 0.931 . S
H96 C78 0.931 . S
H97 C82 0.929 . S
H98 C84 0.930 . S
Co99 N103 2.148 . S
Co99 N109 2.128 . S
Co99 N119 2.194 . S
Co99 O124 2.351 . S
Co99 O125 2.155 . S
Co99 O126 2.096 . S
C100 N103 1.301 . S
C100 N104 1.328 . S
C100 H105 0.930 . S
C101 C102 1.333 . S
C101 N103 1.317 . S
C101 H106 0.930 . S
C102 C101 1.333 . S
C102 N104 1.350 . S
C102 H128 0.931 . S
N103 Co99 2.148 . S
N103 C100 1.301 . S
N103 C101 1.317 . S
N104 C100 1.328 . S
N104 C102 1.350 . S
H105 C100 0.930 . S
H106 C101 0.930 . S
C107 O108 1.224 . S
C107 O126 1.247 . S
O108 C107 1.224 . S
N109 Co99 2.128 . S
N109 C110 1.355 . S
N109 C112 1.311 . S
C110 N109 1.355 . S
C110 C111 1.363 . S
C110 H122 0.929 . S
C111 C110 1.363 . S
C111 N113 1.375 . S
C111 H129 0.931 . S
C112 N109 1.311 . S
C112 N113 1.347 . S
C112 H123 0.929 . S
N113 C111 1.375 . S
N113 C112 1.347 . S
C114 C117 1.365 . S
C114 N119 1.328 . S
C114 H120 0.929 . S
C115 C116 1.362 . S
C115 C118 1.378 . S
C115 H130 0.929 . S
C116 C115 1.362 . S
C116 C117 1.366 . S
C117 C114 1.365 . S
C117 C116 1.366 . S
C117 H131 0.930 . S
C118 C115 1.378 . S
C118 N119 1.315 . S
C118 H121 0.930 . S
N119 Co99 2.194 . S
N119 C114 1.328 . S
N119 C118 1.315 . S
H120 C114 0.929 . S
H121 C118 0.930 . S
H122 C110 0.929 . S
H123 C112 0.929 . S
O124 Co99 2.351 . S
O124 C127 1.244 . S
O125 Co99 2.155 . S
O125 C127 1.240 . S
O126 Co99 2.096 . S
O126 C107 1.247 . S
C127 O124 1.244 . S
C127 O125 1.240 . S
H128 C102 0.931 . S
H129 C111 0.931 . S
H130 C115 0.929 . S
H131 C117 0.930 . S
Co132 N136 2.148 . S
Co132 N142 2.128 . S
Co132 N152 2.194 . S
Co132 O157 2.351 . S
Co132 O158 2.155 . S
Co132 O159 2.096 . S
C133 N136 1.301 . S
C133 N137 1.328 . S
C133 H138 0.930 . S
C134 C135 1.333 . S
C134 N136 1.317 . S
C134 H139 0.930 . S
C135 C134 1.333 . S
C135 N137 1.350 . S
C135 H161 0.931 . S
N136 Co132 2.148 . S
N136 C133 1.301 . S
N136 C134 1.317 . S
N137 C133 1.328 . S
N137 C135 1.350 . S
H138 C133 0.930 . S
H139 C134 0.930 . S
C140 O141 1.224 . S
C140 O159 1.247 . S
O141 C140 1.224 . S
N142 Co132 2.128 . S
N142 C143 1.355 . S
N142 C145 1.311 . S
C143 N142 1.355 . S
C143 C144 1.363 . S
C143 H155 0.929 . S
C144 C143 1.363 . S
C144 N146 1.375 . S
C144 H162 0.931 . S
C145 N142 1.311 . S
C145 N146 1.347 . S
C145 H156 0.929 . S
N146 C144 1.375 . S
N146 C145 1.347 . S
C147 C150 1.365 . S
C147 N152 1.328 . S
C147 H153 0.929 . S
C148 C149 1.362 . S
C148 C151 1.378 . S
C148 H163 0.929 . S
C149 C148 1.362 . S
C149 C150 1.366 . S
C150 C147 1.365 . S
C150 C149 1.366 . S
C150 H164 0.930 . S
C151 C148 1.378 . S
C151 N152 1.315 . S
C151 H154 0.930 . S
N152 Co132 2.194 . S
N152 C147 1.328 . S
N152 C151 1.315 . S
H153 C147 0.929 . S
H154 C151 0.930 . S
H155 C143 0.929 . S
H156 C145 0.929 . S
O157 Co132 2.351 . S
O157 C160 1.244 . S
O158 Co132 2.155 . S
O158 C160 1.240 . S
O159 Co132 2.096 . S
O159 C140 1.247 . S
C160 O157 1.244 . S
C160 O158 1.240 . S
H161 C135 0.931 . S
H162 C144 0.931 . S
H163 C148 0.929 . S
H164 C150 0.930 . S
Co165 N169 2.148 . S
Co165 N175 2.128 . S
Co165 N185 2.194 . S
Co165 O190 2.351 . S
Co165 O191 2.155 . S
Co165 O192 2.096 . S
C166 N169 1.301 . S
C166 N170 1.328 . S
C166 H171 0.930 . S
C167 C168 1.333 . S
C167 N169 1.317 . S
C167 H172 0.930 . S
C168 C167 1.333 . S
C168 N170 1.350 . S
C168 H194 0.931 . S
N169 Co165 2.148 . S
N169 C166 1.301 . S
N169 C167 1.317 . S
N170 C166 1.328 . S
N170 C168 1.350 . S
H171 C166 0.930 . S
H172 C167 0.930 . S
C173 O174 1.224 . S
C173 O192 1.247 . S
O174 C173 1.224 . S
N175 Co165 2.128 . S
N175 C176 1.355 . S
N175 C178 1.311 . S
C176 N175 1.355 . S
C176 C177 1.363 . S
C176 H188 0.929 . S
C177 C176 1.363 . S
C177 N179 1.375 . S
C177 H195 0.931 . S
C178 N175 1.311 . S
C178 N179 1.347 . S
C178 H189 0.929 . S
N179 C177 1.375 . S
N179 C178 1.347 . S
C180 C183 1.365 . S
C180 N185 1.328 . S
C180 H186 0.929 . S
C181 C182 1.362 . S
C181 C184 1.378 . S
C181 H196 0.929 . S
C182 C181 1.362 . S
C182 C183 1.366 . S
C183 C180 1.365 . S
C183 C182 1.366 . S
C183 H197 0.930 . S
C184 C181 1.378 . S
C184 N185 1.315 . S
C184 H187 0.930 . S
N185 Co165 2.194 . S
N185 C180 1.328 . S
N185 C184 1.315 . S
H186 C180 0.929 . S
H187 C184 0.930 . S
H188 C176 0.929 . S
H189 C178 0.929 . S
O190 Co165 2.351 . S
O190 C193 1.244 . S
O191 Co165 2.155 . S
O191 C193 1.240 . S
O192 Co165 2.096 . S
O192 C173 1.247 . S
C193 O190 1.244 . S
C193 O191 1.240 . S
H194 C168 0.931 . S
H195 C177 0.931 . S
H196 C181 0.929 . S
H197 C183 0.930 . S
Co198 N202 2.148 . S
Co198 N208 2.128 . S
Co198 N218 2.194 . S
Co198 O223 2.351 . S
Co198 O224 2.155 . S
Co198 O225 2.096 . S
C199 N202 1.301 . S
C199 N203 1.328 . S
C199 H204 0.930 . S
C200 C201 1.333 . S
C200 N202 1.317 . S
C200 H205 0.930 . S
C201 C200 1.333 . S
C201 N203 1.350 . S
C201 H227 0.931 . S
N202 Co198 2.148 . S
N202 C199 1.301 . S
N202 C200 1.317 . S
N203 C199 1.328 . S
N203 C201 1.350 . S
H204 C199 0.930 . S
H205 C200 0.930 . S
C206 O207 1.224 . S
C206 O225 1.247 . S
O207 C206 1.224 . S
N208 Co198 2.128 . S
N208 C209 1.355 . S
N208 C211 1.311 . S
C209 N208 1.355 . S
C209 C210 1.363 . S
C209 H221 0.929 . S
C210 C209 1.363 . S
C210 N212 1.375 . S
C210 H228 0.931 . S
C211 N208 1.311 . S
C211 N212 1.347 . S
C211 H222 0.929 . S
N212 C210 1.375 . S
N212 C211 1.347 . S
C213 C216 1.365 . S
C213 N218 1.328 . S
C213 H219 0.929 . S
C214 C215 1.362 . S
C214 C217 1.378 . S
C214 H229 0.929 . S
C215 C214 1.362 . S
C215 C216 1.366 . S
C216 C213 1.365 . S
C216 C215 1.366 . S
C216 H230 0.930 . S
C217 C214 1.378 . S
C217 N218 1.315 . S
C217 H220 0.930 . S
N218 Co198 2.194 . S
N218 C213 1.328 . S
N218 C217 1.315 . S
H219 C213 0.929 . S
H220 C217 0.930 . S
H221 C209 0.929 . S
H222 C211 0.929 . S
O223 Co198 2.351 . S
O223 C226 1.244 . S
O224 Co198 2.155 . S
O224 C226 1.240 . S
O225 Co198 2.096 . S
O225 C206 1.247 . S
C226 O223 1.244 . S
C226 O224 1.240 . S
H227 C201 0.931 . S
H228 C210 0.931 . S
H229 C214 0.929 . S
H230 C216 0.930 . S
Co231 N235 2.148 . S
Co231 N241 2.128 . S
Co231 N251 2.194 . S
Co231 O256 2.351 . S
Co231 O257 2.155 . S
Co231 O258 2.096 . S
C232 N235 1.301 . S
C232 N236 1.328 . S
C232 H237 0.930 . S
C233 C234 1.333 . S
C233 N235 1.317 . S
C233 H238 0.930 . S
C234 C233 1.333 . S
C234 N236 1.350 . S
C234 H260 0.931 . S
N235 Co231 2.148 . S
N235 C232 1.301 . S
N235 C233 1.317 . S
N236 C232 1.328 . S
N236 C234 1.350 . S
H237 C232 0.930 . S
H238 C233 0.930 . S
C239 O240 1.224 . S
C239 O258 1.247 . S
O240 C239 1.224 . S
N241 Co231 2.128 . S
N241 C242 1.355 . S
N241 C244 1.311 . S
C242 N241 1.355 . S
C242 C243 1.363 . S
C242 H254 0.929 . S
C243 C242 1.363 . S
C243 N245 1.375 . S
C243 H261 0.931 . S
C244 N241 1.311 . S
C244 N245 1.347 . S
C244 H255 0.929 . S
N245 C243 1.375 . S
N245 C244 1.347 . S
C246 C249 1.365 . S
C246 N251 1.328 . S
C246 H252 0.929 . S
C247 C248 1.362 . S
C247 C250 1.378 . S
C247 H262 0.929 . S
C248 C247 1.362 . S
C248 C249 1.366 . S
C249 C246 1.365 . S
C249 C248 1.366 . S
C249 H263 0.930 . S
C250 C247 1.378 . S
C250 N251 1.315 . S
C250 H253 0.930 . S
N251 Co231 2.194 . S
N251 C246 1.328 . S
N251 C250 1.315 . S
H252 C246 0.929 . S
H253 C250 0.930 . S
H254 C242 0.929 . S
H255 C244 0.929 . S
O256 Co231 2.351 . S
O256 C259 1.244 . S
O257 Co231 2.155 . S
O257 C259 1.240 . S
O258 Co231 2.096 . S
O258 C239 1.247 . S
C259 O256 1.244 . S
C259 O257 1.240 . S
H260 C234 0.931 . S
H261 C243 0.931 . S
H262 C247 0.929 . S
H263 C249 0.930 . S
Co264 N268 2.148 . S
Co264 N274 2.128 . S
Co264 N284 2.194 . S
Co264 O289 2.351 . S
Co264 O290 2.155 . S
Co264 O291 2.096 . S
C265 N268 1.301 . S
C265 N269 1.328 . S
C265 H270 0.930 . S
C266 C267 1.333 . S
C266 N268 1.317 . S
C266 H271 0.930 . S
C267 C266 1.333 . S
C267 N269 1.350 . S
C267 H293 0.931 . S
N268 Co264 2.148 . S
N268 C265 1.301 . S
N268 C266 1.317 . S
N269 C265 1.328 . S
N269 C267 1.350 . S
H270 C265 0.930 . S
H271 C266 0.930 . S
C272 O273 1.224 . S
C272 O291 1.247 . S
O273 C272 1.224 . S
N274 Co264 2.128 . S
N274 C275 1.355 . S
N274 C277 1.311 . S
C275 N274 1.355 . S
C275 C276 1.363 . S
C275 H287 0.929 . S
C276 C275 1.363 . S
C276 N278 1.375 . S
C276 H294 0.931 . S
C277 N274 1.311 . S
C277 N278 1.347 . S
C277 H288 0.929 . S
N278 C276 1.375 . S
N278 C277 1.347 . S
C279 C282 1.365 . S
C279 N284 1.328 . S
C279 H285 0.929 . S
C280 C281 1.362 . S
C280 C283 1.378 . S
C280 H295 0.929 . S
C281 C280 1.362 . S
C281 C282 1.366 . S
C282 C279 1.365 . S
C282 C281 1.366 . S
C282 H296 0.930 . S
C283 C280 1.378 . S
C283 N284 1.315 . S
C283 H286 0.930 . S
N284 Co264 2.194 . S
N284 C279 1.328 . S
N284 C283 1.315 . S
H285 C279 0.929 . S
H286 C283 0.930 . S
H287 C275 0.929 . S
H288 C277 0.929 . S
O289 Co264 2.351 . S
O289 C292 1.244 . S
O290 Co264 2.155 . S
O290 C292 1.240 . S
O291 Co264 2.096 . S
O291 C272 1.247 . S
C292 O289 1.244 . S
C292 O290 1.240 . S
H293 C267 0.931 . S
H294 C276 0.931 . S
H295 C280 0.929 . S
H296 C282 0.930 . S
Co297 N301 2.148 . S
Co297 N307 2.128 . S
Co297 N317 2.194 . S
Co297 O322 2.351 . S
Co297 O323 2.155 . S
Co297 O324 2.096 . S
C298 N301 1.301 . S
C298 N302 1.328 . S
C298 H303 0.930 . S
C299 C300 1.333 . S
C299 N301 1.317 . S
C299 H304 0.930 . S
C300 C299 1.333 . S
C300 N302 1.350 . S
C300 H326 0.931 . S
N301 Co297 2.148 . S
N301 C298 1.301 . S
N301 C299 1.317 . S
N302 C298 1.328 . S
N302 C300 1.350 . S
H303 C298 0.930 . S
H304 C299 0.930 . S
C305 O306 1.224 . S
C305 O324 1.247 . S
O306 C305 1.224 . S
N307 Co297 2.128 . S
N307 C308 1.355 . S
N307 C310 1.311 . S
C308 N307 1.355 . S
C308 C309 1.363 . S
C308 H320 0.929 . S
C309 C308 1.363 . S
C309 N311 1.375 . S
C309 H327 0.931 . S
C310 N307 1.311 . S
C310 N311 1.347 . S
C310 H321 0.929 . S
N311 C309 1.375 . S
N311 C310 1.347 . S
C312 C315 1.365 . S
C312 N317 1.328 . S
C312 H318 0.929 . S
C313 C314 1.362 . S
C313 C316 1.378 . S
C313 H328 0.929 . S
C314 C313 1.362 . S
C314 C315 1.366 . S
C315 C312 1.365 . S
C315 C314 1.366 . S
C315 H329 0.930 . S
C316 C313 1.378 . S
C316 N317 1.315 . S
C316 H319 0.930 . S
N317 Co297 2.194 . S
N317 C312 1.328 . S
N317 C316 1.315 . S
H318 C312 0.929 . S
H319 C316 0.930 . S
H320 C308 0.929 . S
H321 C310 0.929 . S
O322 Co297 2.351 . S
O322 C325 1.244 . S
O323 Co297 2.155 . S
O323 C325 1.240 . S
O324 Co297 2.096 . S
O324 C305 1.247 . S
C325 O322 1.244 . S
C325 O323 1.240 . S
H326 C300 0.931 . S
H327 C309 0.931 . S
H328 C313 0.929 . S
H329 C315 0.930 . S
Co330 N334 2.148 . S
Co330 N340 2.128 . S
Co330 N350 2.194 . S
Co330 O355 2.351 . S
Co330 O356 2.155 . S
Co330 O357 2.096 . S
C331 N334 1.301 . S
C331 N335 1.328 . S
C331 H336 0.930 . S
C332 C333 1.333 . S
C332 N334 1.317 . S
C332 H337 0.930 . S
C333 C332 1.333 . S
C333 N335 1.350 . S
C333 H359 0.931 . S
N334 Co330 2.148 . S
N334 C331 1.301 . S
N334 C332 1.317 . S
N335 C331 1.328 . S
N335 C333 1.350 . S
H336 C331 0.930 . S
H337 C332 0.930 . S
C338 O339 1.224 . S
C338 O357 1.247 . S
O339 C338 1.224 . S
N340 Co330 2.128 . S
N340 C341 1.355 . S
N340 C343 1.311 . S
C341 N340 1.355 . S
C341 C342 1.363 . S
C341 H353 0.929 . S
C342 C341 1.363 . S
C342 N344 1.375 . S
C342 H360 0.931 . S
C343 N340 1.311 . S
C343 N344 1.347 . S
C343 H354 0.929 . S
N344 C342 1.375 . S
N344 C343 1.347 . S
C345 C348 1.365 . S
C345 N350 1.328 . S
C345 H351 0.929 . S
C346 C347 1.362 . S
C346 C349 1.378 . S
C346 H361 0.929 . S
C347 C346 1.362 . S
C347 C348 1.366 . S
C348 C345 1.365 . S
C348 C347 1.366 . S
C348 H362 0.930 . S
C349 C346 1.378 . S
C349 N350 1.315 . S
C349 H352 0.930 . S
N350 Co330 2.194 . S
N350 C345 1.328 . S
N350 C349 1.315 . S
H351 C345 0.929 . S
H352 C349 0.930 . S
H353 C341 0.929 . S
H354 C343 0.929 . S
O355 Co330 2.351 . S
O355 C358 1.244 . S
O356 Co330 2.155 . S
O356 C358 1.240 . S
O357 Co330 2.096 . S
O357 C338 1.247 . S
C358 O355 1.244 . S
C358 O356 1.240 . S
H359 C333 0.931 . S
H360 C342 0.931 . S
H361 C346 0.929 . S
H362 C348 0.930 . S
Co363 N367 2.148 . S
Co363 N373 2.128 . S
Co363 N383 2.194 . S
Co363 O388 2.351 . S
Co363 O389 2.155 . S
Co363 O390 2.096 . S
C364 N367 1.301 . S
C364 N368 1.328 . S
C364 H369 0.930 . S
C365 C366 1.333 . S
C365 N367 1.317 . S
C365 H370 0.930 . S
C366 C365 1.333 . S
C366 N368 1.350 . S
C366 H392 0.931 . S
N367 Co363 2.148 . S
N367 C364 1.301 . S
N367 C365 1.317 . S
N368 C364 1.328 . S
N368 C366 1.350 . S
H369 C364 0.930 . S
H370 C365 0.930 . S
C371 O372 1.224 . S
C371 O390 1.247 . S
O372 C371 1.224 . S
N373 Co363 2.128 . S
N373 C374 1.355 . S
N373 C376 1.311 . S
C374 N373 1.355 . S
C374 C375 1.363 . S
C374 H386 0.929 . S
C375 C374 1.363 . S
C375 N377 1.375 . S
C375 H393 0.931 . S
C376 N373 1.311 . S
C376 N377 1.347 . S
C376 H387 0.929 . S
N377 C375 1.375 . S
N377 C376 1.347 . S
C378 C381 1.365 . S
C378 N383 1.328 . S
C378 H384 0.929 . S
C379 C380 1.362 . S
C379 C382 1.378 . S
C379 H394 0.929 . S
C380 C379 1.362 . S
C380 C381 1.366 . S
C381 C378 1.365 . S
C381 C380 1.366 . S
C381 H395 0.930 . S
C382 C379 1.378 . S
C382 N383 1.315 . S
C382 H385 0.930 . S
N383 Co363 2.194 . S
N383 C378 1.328 . S
N383 C382 1.315 . S
H384 C378 0.929 . S
H385 C382 0.930 . S
H386 C374 0.929 . S
H387 C376 0.929 . S
O388 Co363 2.351 . S
O388 C391 1.244 . S
O389 Co363 2.155 . S
O389 C391 1.240 . S
O390 Co363 2.096 . S
O390 C371 1.247 . S
C391 O388 1.244 . S
C391 O389 1.240 . S
H392 C366 0.931 . S
H393 C375 0.931 . S
H394 C379 0.929 . S
H395 C381 0.930 . S
Co396 N400 2.148 . S
Co396 N406 2.128 . S
Co396 N416 2.194 . S
Co396 O421 2.351 . S
Co396 O422 2.155 . S
Co396 O423 2.096 . S
C397 N400 1.301 . S
C397 N401 1.328 . S
C397 H402 0.930 . S
C398 C399 1.333 . S
C398 N400 1.317 . S
C398 H403 0.930 . S
C399 C398 1.333 . S
C399 N401 1.350 . S
C399 H425 0.931 . S
N400 Co396 2.148 . S
N400 C397 1.301 . S
N400 C398 1.317 . S
N401 C397 1.328 . S
N401 C399 1.350 . S
H402 C397 0.930 . S
H403 C398 0.930 . S
C404 O405 1.224 . S
C404 O423 1.247 . S
O405 C404 1.224 . S
N406 Co396 2.128 . S
N406 C407 1.355 . S
N406 C409 1.311 . S
C407 N406 1.355 . S
C407 C408 1.363 . S
C407 H419 0.929 . S
C408 C407 1.363 . S
C408 N410 1.375 . S
C408 H426 0.931 . S
C409 N406 1.311 . S
C409 N410 1.347 . S
C409 H420 0.929 . S
N410 C408 1.375 . S
N410 C409 1.347 . S
C411 C414 1.365 . S
C411 N416 1.328 . S
C411 H417 0.929 . S
C412 C413 1.362 . S
C412 C415 1.378 . S
C412 H427 0.929 . S
C413 C412 1.362 . S
C413 C414 1.366 . S
C414 C411 1.365 . S
C414 C413 1.366 . S
C414 H428 0.930 . S
C415 C412 1.378 . S
C415 N416 1.315 . S
C415 H418 0.930 . S
N416 Co396 2.194 . S
N416 C411 1.328 . S
N416 C415 1.315 . S
H417 C411 0.929 . S
H418 C415 0.930 . S
H419 C407 0.929 . S
H420 C409 0.929 . S
O421 Co396 2.351 . S
O421 C424 1.244 . S
O422 Co396 2.155 . S
O422 C424 1.240 . S
O423 Co396 2.096 . S
O423 C404 1.247 . S
C424 O421 1.244 . S
C424 O422 1.240 . S
H425 C399 0.931 . S
H426 C408 0.931 . S
H427 C412 0.929 . S
H428 C414 0.930 . S
Co429 N433 2.148 . S
Co429 N439 2.128 . S
Co429 N449 2.194 . S
Co429 O454 2.351 . S
Co429 O455 2.155 . S
Co429 O456 2.096 . S
C430 N433 1.301 . S
C430 N434 1.328 . S
C430 H435 0.930 . S
C431 C432 1.333 . S
C431 N433 1.317 . S
C431 H436 0.930 . S
C432 C431 1.333 . S
C432 N434 1.350 . S
C432 H458 0.931 . S
N433 Co429 2.148 . S
N433 C430 1.301 . S
N433 C431 1.317 . S
N434 C430 1.328 . S
N434 C432 1.350 . S
H435 C430 0.930 . S
H436 C431 0.930 . S
C437 O438 1.224 . S
C437 O456 1.247 . S
O438 C437 1.224 . S
N439 Co429 2.128 . S
N439 C440 1.355 . S
N439 C442 1.311 . S
C440 N439 1.355 . S
C440 C441 1.363 . S
C440 H452 0.929 . S
C441 C440 1.363 . S
C441 N443 1.375 . S
C441 H459 0.931 . S
C442 N439 1.311 . S
C442 N443 1.347 . S
C442 H453 0.929 . S
N443 C441 1.375 . S
N443 C442 1.347 . S
C444 C447 1.365 . S
C444 N449 1.328 . S
C444 H450 0.929 . S
C445 C446 1.362 . S
C445 C448 1.378 . S
C445 H460 0.929 . S
C446 C445 1.362 . S
C446 C447 1.366 . S
C447 C444 1.365 . S
C447 C446 1.366 . S
C447 H461 0.930 . S
C448 C445 1.378 . S
C448 N449 1.315 . S
C448 H451 0.930 . S
N449 Co429 2.194 . S
N449 C444 1.328 . S
N449 C448 1.315 . S
H450 C444 0.929 . S
H451 C448 0.930 . S
H452 C440 0.929 . S
H453 C442 0.929 . S
O454 Co429 2.351 . S
O454 C457 1.244 . S
O455 Co429 2.155 . S
O455 C457 1.240 . S
O456 Co429 2.096 . S
O456 C437 1.247 . S
C457 O454 1.244 . S
C457 O455 1.240 . S
H458 C432 0.931 . S
H459 C441 0.931 . S
H460 C445 0.929 . S
H461 C447 0.930 . S
Co462 N466 2.148 . S
Co462 N472 2.128 . S
Co462 N482 2.194 . S
Co462 O487 2.351 . S
Co462 O488 2.155 . S
Co462 O489 2.096 . S
C463 N466 1.301 . S
C463 N467 1.328 . S
C463 H468 0.930 . S
C464 C465 1.333 . S
C464 N466 1.317 . S
C464 H469 0.930 . S
C465 C464 1.333 . S
C465 N467 1.350 . S
C465 H491 0.931 . S
N466 Co462 2.148 . S
N466 C463 1.301 . S
N466 C464 1.317 . S
N467 C463 1.328 . S
N467 C465 1.350 . S
H468 C463 0.930 . S
H469 C464 0.930 . S
C470 O471 1.224 . S
C470 O489 1.247 . S
O471 C470 1.224 . S
N472 Co462 2.128 . S
N472 C473 1.355 . S
N472 C475 1.311 . S
C473 N472 1.355 . S
C473 C474 1.363 . S
C473 H485 0.929 . S
C474 C473 1.363 . S
C474 N476 1.375 . S
C474 H492 0.931 . S
C475 N472 1.311 . S
C475 N476 1.347 . S
C475 H486 0.929 . S
N476 C474 1.375 . S
N476 C475 1.347 . S
C477 C480 1.365 . S
C477 N482 1.328 . S
C477 H483 0.929 . S
C478 C479 1.362 . S
C478 C481 1.378 . S
C478 H493 0.929 . S
C479 C478 1.362 . S
C479 C480 1.366 . S
C480 C477 1.365 . S
C480 C479 1.366 . S
C480 H494 0.930 . S
C481 C478 1.378 . S
C481 N482 1.315 . S
C481 H484 0.930 . S
N482 Co462 2.194 . S
N482 C477 1.328 . S
N482 C481 1.315 . S
H483 C477 0.929 . S
H484 C481 0.930 . S
H485 C473 0.929 . S
H486 C475 0.929 . S
O487 Co462 2.351 . S
O487 C490 1.244 . S
O488 Co462 2.155 . S
O488 C490 1.240 . S
O489 Co462 2.096 . S
O489 C470 1.247 . S
C490 O487 1.244 . S
C490 O488 1.240 . S
H491 C465 0.931 . S
H492 C474 0.931 . S
H493 C478 0.929 . S
H494 C480 0.930 . S
Co495 N499 2.148 . S
Co495 N505 2.128 . S
Co495 N515 2.194 . S
Co495 O520 2.351 . S
Co495 O521 2.155 . S
Co495 O522 2.096 . S
C496 N499 1.301 . S
C496 N500 1.328 . S
C496 H501 0.930 . S
C497 C498 1.333 . S
C497 N499 1.317 . S
C497 H502 0.930 . S
C498 C497 1.333 . S
C498 N500 1.350 . S
C498 H524 0.931 . S
N499 Co495 2.148 . S
N499 C496 1.301 . S
N499 C497 1.317 . S
N500 C496 1.328 . S
N500 C498 1.350 . S
H501 C496 0.930 . S
H502 C497 0.930 . S
C503 O504 1.224 . S
C503 O522 1.247 . S
O504 C503 1.224 . S
N505 Co495 2.128 . S
N505 C506 1.355 . S
N505 C508 1.311 . S
C506 N505 1.355 . S
C506 C507 1.363 . S
C506 H518 0.929 . S
C507 C506 1.363 . S
C507 N509 1.375 . S
C507 H525 0.931 . S
C508 N505 1.311 . S
C508 N509 1.347 . S
C508 H519 0.929 . S
N509 C507 1.375 . S
N509 C508 1.347 . S
C510 C513 1.365 . S
C510 N515 1.328 . S
C510 H516 0.929 . S
C511 C512 1.362 . S
C511 C514 1.378 . S
C511 H526 0.929 . S
C512 C511 1.362 . S
C512 C513 1.366 . S
C513 C510 1.365 . S
C513 C512 1.366 . S
C513 H527 0.930 . S
C514 C511 1.378 . S
C514 N515 1.315 . S
C514 H517 0.930 . S
N515 Co495 2.194 . S
N515 C510 1.328 . S
N515 C514 1.315 . S
H516 C510 0.929 . S
H517 C514 0.930 . S
H518 C506 0.929 . S
H519 C508 0.929 . S
O520 Co495 2.351 . S
O520 C523 1.244 . S
O521 Co495 2.155 . S
O521 C523 1.240 . S
O522 Co495 2.096 . S
O522 C503 1.247 . S
C523 O520 1.244 . S
C523 O521 1.240 . S
H524 C498 0.931 . S
H525 C507 0.931 . S
H526 C511 0.929 . S
H527 C513 0.930 . S
H528 C540 0.930 . S
H529 C542 0.930 . S
H530 C543 0.930 . S
H531 C547 0.959 . S
H532 C547 0.959 . S
H533 C547 0.961 . S
H534 C548 0.960 . S
H535 C548 0.961 . S
H536 C548 0.959 . S
H537 C551 0.929 . S
H538 C552 0.931 . S
H539 C554 0.930 . S
C540 H528 0.930 . S
C540 C541 1.399 . S
C540 C545 1.399 . S
C541 C540 1.399 . S
C541 C542 1.376 . S
C542 H529 0.930 . S
C542 C541 1.376 . S
C542 C543 1.388 . S
C543 H530 0.930 . S
C543 C542 1.388 . S
C543 C544 1.390 . S
C544 C543 1.390 . S
C544 C545 1.394 . S
C544 C550 1.465 . S
C545 C540 1.399 . S
C545 C544 1.394 . S
C545 C546 1.516 . S
C546 C545 1.516 . S
C546 C547 1.502 . S
C546 C548 1.561 . S
C546 C549 1.526 . S
C547 H531 0.959 . S
C547 H532 0.959 . S
C547 H533 0.961 . S
C547 C546 1.502 . S
C548 H534 0.960 . S
C548 H535 0.961 . S
C548 H536 0.959 . S
C548 C546 1.561 . S
C549 C546 1.526 . S
C549 C550 1.396 . S
C549 C554 1.390 . S
C550 C544 1.465 . S
C550 C549 1.396 . S
C550 C551 1.399 . S
C551 H537 0.929 . S
C551 C550 1.399 . S
C551 C552 1.385 . S
C552 H538 0.931 . S
C552 C551 1.385 . S
C552 C553 1.389 . S
C553 C552 1.389 . S
C553 C554 1.387 . S
C554 H539 0.930 . S
C554 C549 1.390 . S
C554 C553 1.387 . S
H555 C567 0.930 . S
H556 C569 0.930 . S
H557 C570 0.930 . S
H558 C574 0.959 1_455 S
H559 C574 0.959 . S
H560 C574 0.961 . S
H561 C575 0.960 . S
H562 C575 0.961 . S
H563 C575 0.959 . S
H564 C578 0.929 . S
H565 C579 0.931 . S
H566 C581 0.930 . S
C567 H555 0.930 . S
C567 C568 1.399 . S
C567 C572 1.399 . S
C568 C567 1.399 . S
C568 C569 1.376 . S
C569 H556 0.930 . S
C569 C568 1.376 . S
C569 C570 1.388 1_655 S
C570 H557 0.930 . S
C570 C569 1.388 1_455 S
C570 C571 1.390 . S
C571 C570 1.390 . S
C571 C572 1.394 1_455 S
C571 C577 1.465 . S
C572 C567 1.399 . S
C572 C571 1.394 1_655 S
C572 C573 1.516 1_545 S
C573 C572 1.516 1_565 S
C573 C574 1.502 . S
C573 C575 1.561 . S
C573 C576 1.526 1_655 S
C574 H558 0.959 1_655 S
C574 H559 0.959 . S
C574 H560 0.961 . S
C574 C573 1.502 . S
C575 H561 0.960 . S
C575 H562 0.961 . S
C575 H563 0.959 . S
C575 C573 1.561 . S
C576 C573 1.526 1_455 S
C576 C577 1.396 1_565 S
C576 C581 1.390 . S
C577 C571 1.465 . S
C577 C576 1.396 1_545 S
C577 C578 1.399 . S
C578 H564 0.929 . S
C578 C577 1.399 . S
C578 C579 1.385 . S
C579 H565 0.931 . S
C579 C578 1.385 . S
C579 C580 1.389 1_545 S
C580 C579 1.389 1_565 S
C580 C581 1.387 . S
C581 H566 0.930 . S
C581 C576 1.390 . S
C581 C580 1.387 . S
H582 C594 0.930 . S
H583 C596 0.930 . S
H584 C597 0.930 . S
H585 C601 0.959 . S
H586 C601 0.959 . S
H587 C601 0.961 . S
H588 C602 0.960 . S
H589 C602 0.961 . S
H590 C602 0.959 . S
H591 C605 0.929 . S
H592 C606 0.931 . S
H593 C608 0.930 . S
C594 H582 0.930 . S
C594 C595 1.399 . S
C594 C599 1.399 . S
C595 C594 1.399 . S
C595 C596 1.376 . S
C596 H583 0.930 . S
C596 C595 1.376 . S
C596 C597 1.388 . S
C597 H584 0.930 . S
C597 C596 1.388 . S
C597 C598 1.390 . S
C598 C597 1.390 . S
C598 C599 1.394 . S
C598 C604 1.465 . S
C599 C594 1.399 . S
C599 C598 1.394 . S
C599 C600 1.516 . S
C600 C599 1.516 . S
C600 C601 1.502 . S
C600 C602 1.561 . S
C600 C603 1.526 . S
C601 H585 0.959 . S
C601 H586 0.959 . S
C601 H587 0.961 . S
C601 C600 1.502 . S
C602 H588 0.960 . S
C602 H589 0.961 . S
C602 H590 0.959 . S
C602 C600 1.561 . S
C603 C600 1.526 . S
C603 C604 1.396 . S
C603 C608 1.390 . S
C604 C598 1.465 . S
C604 C603 1.396 . S
C604 C605 1.399 . S
C605 H591 0.929 . S
C605 C604 1.399 . S
C605 C606 1.385 . S
C606 H592 0.931 . S
C606 C605 1.385 . S
C606 C607 1.389 . S
C607 C606 1.389 . S
C607 C608 1.387 . S
C608 H593 0.930 . S
C608 C603 1.390 . S
C608 C607 1.387 . S
H609 C621 0.930 1_565 S
H610 C623 0.930 . S
H611 C624 0.930 1_554 S
H612 C628 0.959 1_554 S
H613 C628 0.960 . S
H614 C628 0.961 . S
H615 C629 0.960 . S
H616 C629 0.961 . S
H617 C629 0.959 . S
H618 C632 0.929 . S
H619 C633 0.931 . S
H620 C635 0.930 . S
C621 H609 0.930 1_545 S
C621 C622 1.399 . S
C621 C626 1.399 1_545 S
C622 C621 1.399 . S
C622 C623 1.376 . S
C623 H610 0.930 . S
C623 C622 1.376 . S
C623 C624 1.388 . S
C624 H611 0.930 1_556 S
C624 C623 1.388 . S
C624 C625 1.390 . S
C625 C624 1.390 . S
C625 C626 1.394 1_545 S
C625 C631 1.453 1_546 S
C626 C621 1.399 1_565 S
C626 C625 1.394 1_565 S
C626 C627 1.516 . S
C627 C626 1.516 . S
C627 C628 1.502 . S
C627 C629 1.561 . S
C627 C630 1.526 1_556 S
C628 H612 0.959 1_556 S
C628 H613 0.960 . S
C628 H614 0.961 . S
C628 C627 1.502 . S
C629 H615 0.960 . S
C629 H616 0.961 . S
C629 H617 0.959 . S
C629 C627 1.561 . S
C630 C627 1.526 1_554 S
C630 C631 1.419 . S
C630 C635 1.390 . S
C631 C625 1.453 1_564 S
C631 C630 1.419 . S
C631 C632 1.392 1_565 S
C632 H618 0.929 . S
C632 C631 1.392 1_545 S
C632 C633 1.385 1_545 S
C633 H619 0.931 . S
C633 C632 1.385 1_565 S
C633 C634 1.389 . S
C634 C633 1.389 . S
C634 C635 1.387 . S
C635 H620 0.930 . S
C635 C630 1.390 . S
C635 C634 1.387 . S
H636 C648 0.930 . S
H637 C650 0.930 . S
H638 C651 0.930 . S
H639 C655 0.959 . S
H640 C655 0.959 . S
H641 C655 0.961 . S
H642 C656 0.960 . S
H643 C656 0.961 . S
H644 C656 0.959 . S
H645 C659 0.929 . S
H646 C660 0.931 . S
H647 C662 0.930 . S
C648 H636 0.930 . S
C648 C649 1.399 . S
C648 C653 1.399 . S
C649 C648 1.399 . S
C649 C650 1.376 . S
C650 H637 0.930 . S
C650 C649 1.376 . S
C650 C651 1.388 . S
C651 H638 0.930 . S
C651 C650 1.388 . S
C651 C652 1.390 . S
C652 C651 1.390 . S
C652 C653 1.394 . S
C652 C658 1.465 . S
C653 C648 1.399 . S
C653 C652 1.394 . S
C653 C654 1.516 . S
C654 C653 1.516 . S
C654 C655 1.502 . S
C654 C656 1.561 . S
C654 C657 1.526 . S
C655 H639 0.959 . S
C655 H640 0.959 . S
C655 H641 0.961 . S
C655 C654 1.502 . S
C656 H642 0.960 . S
C656 H643 0.961 . S
C656 H644 0.959 . S
C656 C654 1.561 . S
C657 C654 1.526 . S
C657 C658 1.396 . S
C657 C662 1.390 . S
C658 C652 1.465 . S
C658 C657 1.396 . S
C658 C659 1.399 . S
C659 H645 0.929 . S
C659 C658 1.399 . S
C659 C660 1.385 . S
C660 H646 0.931 . S
C660 C659 1.385 . S
C660 C661 1.389 . S
C661 C660 1.389 . S
C661 C662 1.387 . S
C662 H647 0.930 . S
C662 C657 1.390 . S
C662 C661 1.387 . S
H663 C675 0.930 . S
H664 C677 0.930 . S
H665 C678 0.930 . S
H666 C682 0.959 . S
H667 C682 0.959 . S
H668 C682 0.961 . S
H669 C683 0.960 . S
H670 C683 0.961 . S
H671 C683 0.959 . S
H672 C686 0.929 . S
H673 C687 0.926 1_565 S
H674 C689 0.930 . S
C675 H663 0.930 . S
C675 C676 1.399 . S
C675 C680 1.399 . S
C676 C675 1.399 . S
C676 C677 1.376 . S
C677 H664 0.930 . S
C677 C676 1.376 . S
C677 C678 1.388 . S
C678 H665 0.930 . S
C678 C677 1.388 . S
C678 C679 1.390 . S
C679 C678 1.390 . S
C679 C680 1.394 . S
C679 C685 1.465 . S
C680 C675 1.399 . S
C680 C679 1.394 . S
C680 C681 1.516 1_565 S
C681 C680 1.516 1_545 S
C681 C682 1.502 . S
C681 C683 1.561 . S
C681 C684 1.526 . S
C682 H666 0.959 . S
C682 H667 0.959 . S
C682 H668 0.961 . S
C682 C681 1.502 . S
C683 H669 0.960 . S
C683 H670 0.961 . S
C683 H671 0.959 . S
C683 C681 1.561 . S
C684 C681 1.526 . S
C684 C685 1.396 1_545 S
C684 C689 1.390 . S
C685 C679 1.465 . S
C685 C684 1.396 1_565 S
C685 C686 1.399 . S
C686 H672 0.929 . S
C686 C685 1.399 . S
C686 C687 1.385 1_565 S
C687 H673 0.926 1_545 S
C687 C686 1.385 1_545 S
C687 C688 1.389 . S
C688 C687 1.389 . S
C688 C689 1.387 . S
C689 H674 0.930 . S
C689 C684 1.390 . S
C689 C688 1.387 . S
H690 C702 0.930 . S
H691 C704 0.930 . S
H692 C705 0.930 . S
H693 C709 0.959 . S
H694 C709 0.959 . S
H695 C709 0.961 . S
H696 C710 0.960 . S
H697 C710 0.961 . S
H698 C710 0.959 . S
H699 C713 0.929 . S
H700 C714 0.931 . S
H701 C716 0.930 . S
C702 H690 0.930 . S
C702 C703 1.399 . S
C702 C707 1.399 . S
C703 C702 1.399 . S
C703 C704 1.376 . S
C704 H691 0.930 . S
C704 C703 1.376 . S
C704 C705 1.388 . S
C705 H692 0.930 . S
C705 C704 1.388 . S
C705 C706 1.390 . S
C706 C705 1.390 . S
C706 C707 1.394 . S
C706 C712 1.465 . S
C707 C702 1.399 . S
C707 C706 1.394 . S
C707 C708 1.516 . S
C708 C707 1.516 . S
C708 C709 1.502 . S
C708 C710 1.561 . S
C708 C711 1.526 . S
C709 H693 0.959 . S
C709 H694 0.959 . S
C709 H695 0.961 . S
C709 C708 1.502 . S
C710 H696 0.960 . S
C710 H697 0.961 . S
C710 H698 0.959 . S
C710 C708 1.561 . S
C711 C708 1.526 . S
C711 C712 1.396 . S
C711 C716 1.390 . S
C712 C706 1.465 . S
C712 C711 1.396 . S
C712 C713 1.399 . S
C713 H699 0.929 . S
C713 C712 1.399 . S
C713 C714 1.385 . S
C714 H700 0.931 . S
C714 C713 1.385 . S
C714 C715 1.389 . S
C715 C714 1.389 . S
C715 C716 1.387 . S
C716 H701 0.930 . S
C716 C711 1.390 . S
C716 C715 1.387 . S
H717 C729 0.930 . S
H718 C731 0.930 . S
H719 C732 0.930 1_565 S
H720 C736 0.959 1_554 S
H721 C736 0.959 . S
H722 C736 0.961 1_554 S
H723 C737 0.960 . S
H724 C737 0.961 . S
H725 C737 0.959 . S
H726 C740 0.929 1_454 S
H727 C741 0.931 . S
H728 C743 0.930 . S
C729 H717 0.930 . S
C729 C730 1.399 . S
C729 C734 1.402 . S
C730 C729 1.399 . S
C730 C731 1.376 . S
C731 H718 0.930 . S
C731 C730 1.376 . S
C731 C732 1.388 . S
C732 H719 0.930 1_545 S
C732 C731 1.388 . S
C732 C733 1.390 . S
C733 C732 1.390 . S
C733 C734 1.397 . S
C733 C739 1.465 1_444 S
C734 C729 1.402 . S
C734 C733 1.397 . S
C734 C735 1.510 1_454 S
C735 C734 1.510 1_656 S
C735 C736 1.502 . S
C735 C737 1.561 . S
C735 C738 1.515 1_545 S
C736 H720 0.959 1_556 S
C736 H721 0.959 . S
C736 H722 0.961 1_556 S
C736 C735 1.502 . S
C737 H723 0.960 . S
C737 H724 0.961 . S
C737 H725 0.959 . S
C737 C735 1.561 . S
C738 C735 1.515 1_565 S
C738 C739 1.402 . S
C738 C743 1.395 . S
C739 C733 1.465 1_666 S
C739 C738 1.402 . S
C739 C740 1.399 . S
C740 H726 0.929 1_656 S
C740 C739 1.399 . S
C740 C741 1.385 . S
C741 H727 0.931 . S
C741 C740 1.385 . S
C741 C742 1.389 . S
C742 C741 1.389 . S
C742 C743 1.387 . S
C743 H728 0.930 . S
C743 C738 1.395 . S
C743 C742 1.387 . S
H744 C756 0.930 . S
H745 C758 0.930 . S
H746 C759 0.930 . S
H747 C763 0.959 . S
H748 C763 0.959 . S
H749 C763 0.961 . S
H750 C764 0.960 . S
H751 C764 0.961 . S
H752 C764 0.959 . S
H753 C767 0.929 . S
H754 C768 0.931 . S
H755 C770 0.930 . S
C756 H744 0.930 . S
C756 C757 1.399 . S
C756 C761 1.399 . S
C757 C756 1.399 . S
C757 C758 1.376 . S
C758 H745 0.930 . S
C758 C757 1.376 . S
C758 C759 1.388 . S
C759 H746 0.930 . S
C759 C758 1.388 . S
C759 C760 1.390 . S
C760 C759 1.390 . S
C760 C761 1.394 . S
C760 C766 1.465 . S
C761 C756 1.399 . S
C761 C760 1.394 . S
C761 C762 1.516 . S
C762 C761 1.516 . S
C762 C763 1.502 . S
C762 C764 1.561 . S
C762 C765 1.526 . S
C763 H747 0.959 . S
C763 H748 0.959 . S
C763 H749 0.961 . S
C763 C762 1.502 . S
C764 H750 0.960 . S
C764 H751 0.961 . S
C764 H752 0.959 . S
C764 C762 1.561 . S
C765 C762 1.526 . S
C765 C766 1.396 . S
C765 C770 1.390 . S
C766 C760 1.465 . S
C766 C765 1.396 . S
C766 C767 1.399 . S
C767 H753 0.929 . S
C767 C766 1.399 . S
C767 C768 1.385 . S
C768 H754 0.931 . S
C768 C767 1.385 . S
C768 C769 1.389 . S
C769 C768 1.389 . S
C769 C770 1.387 . S
C770 H755 0.930 . S
C770 C765 1.390 . S
C770 C769 1.387 . S
H771 C783 0.930 . S
H772 C785 0.930 . S
H773 C786 0.930 . S
H774 C790 0.959 . S
H775 C790 0.959 . S
H776 C790 0.961 . S
H777 C791 0.960 1_455 S
H778 C791 0.961 . S
H779 C791 0.959 1_455 S
H780 C794 0.929 . S
H781 C795 0.931 . S
H782 C797 0.930 1_556 S
C783 H771 0.930 . S
C783 C784 1.399 . S
C783 C788 1.399 . S
C784 C783 1.399 . S
C784 C785 1.376 . S
C785 H772 0.930 . S
C785 C784 1.376 . S
C785 C786 1.388 1_556 S
C786 H773 0.930 . S
C786 C785 1.388 1_554 S
C786 C787 1.383 1_554 S
C787 C786 1.383 1_556 S
C787 C788 1.428 . S
C787 C793 1.444 1_556 S
C788 C783 1.399 . S
C788 C787 1.428 . S
C788 C789 1.516 1_455 S
C789 C788 1.516 1_655 S
C789 C790 1.502 . S
C789 C791 1.561 . S
C789 C792 1.526 . S
C790 H774 0.959 . S
C790 H775 0.959 . S
C790 H776 0.961 . S
C790 C789 1.502 . S
C791 H777 0.960 1_655 S
C791 H778 0.961 . S
C791 H779 0.959 1_655 S
C791 C789 1.561 . S
C792 C789 1.526 . S
C792 C793 1.396 1_656 S
C792 C797 1.390 1_556 S
C793 C787 1.444 1_554 S
C793 C792 1.396 1_454 S
C793 C794 1.399 . S
C794 H780 0.929 . S
C794 C793 1.399 . S
C794 C795 1.385 1_455 S
C795 H781 0.931 . S
C795 C794 1.385 1_655 S
C795 C796 1.389 . S
C796 C795 1.389 . S
C796 C797 1.387 . S
C797 H782 0.930 1_554 S
C797 C792 1.390 1_554 S
C797 C796 1.387 . S
H798 C810 0.930 . S
H799 C812 0.930 . S
H800 C813 0.930 . S
H801 C817 0.959 . S
H802 C817 0.959 . S
H803 C817 0.961 . S
H804 C818 0.960 . S
H805 C818 0.961 . S
H806 C818 0.959 . S
H807 C821 0.929 . S
H808 C822 0.931 . S
H809 C824 0.930 . S
C810 H798 0.930 . S
C810 C811 1.399 . S
C810 C815 1.399 . S
C811 C810 1.399 . S
C811 C812 1.376 . S
C812 H799 0.930 . S
C812 C811 1.376 . S
C812 C813 1.388 . S
C813 H800 0.930 . S
C813 C812 1.388 . S
C813 C814 1.390 . S
C814 C813 1.390 . S
C814 C815 1.394 . S
C814 C820 1.465 . S
C815 C810 1.399 . S
C815 C814 1.394 . S
C815 C816 1.516 . S
C816 C815 1.516 . S
C816 C817 1.502 . S
C816 C818 1.561 . S
C816 C819 1.526 . S
C817 H801 0.959 . S
C817 H802 0.959 . S
C817 H803 0.961 . S
C817 C816 1.502 . S
C818 H804 0.960 . S
C818 H805 0.961 . S
C818 H806 0.959 . S
C818 C816 1.561 . S
C819 C816 1.526 . S
C819 C820 1.396 . S
C819 C824 1.390 . S
C820 C814 1.465 . S
C820 C819 1.396 . S
C820 C821 1.399 . S
C821 H807 0.929 . S
C821 C820 1.399 . S
C821 C822 1.385 . S
C822 H808 0.931 . S
C822 C821 1.385 . S
C822 C823 1.389 . S
C823 C822 1.389 . S
C823 C824 1.387 . S
C824 H809 0.930 . S
C824 C819 1.390 . S
C824 C823 1.387 . S
H825 C837 0.930 . S
H826 C839 0.930 . S
H827 C840 0.930 1_455 S
H828 C844 0.959 . S
H829 C844 0.959 . S
H830 C844 0.961 . S
H831 C845 0.960 . S
H832 C845 0.961 . S
H833 C845 0.959 1_455 S
H834 C848 0.929 . S
H835 C849 0.931 . S
H836 C851 0.930 . S
C837 H825 0.930 . S
C837 C838 1.399 . S
C837 C842 1.399 . S
C838 C837 1.399 . S
C838 C839 1.376 . S
C839 H826 0.930 . S
C839 C838 1.376 . S
C839 C840 1.388 . S
C840 H827 0.930 1_655 S
C840 C839 1.388 . S
C840 C841 1.390 . S
C841 C840 1.390 . S
C841 C842 1.394 . S
C841 C847 1.465 1_655 S
C842 C837 1.399 . S
C842 C841 1.394 . S
C842 C843 1.516 . S
C843 C842 1.516 . S
C843 C844 1.502 . S
C843 C845 1.561 . S
C843 C846 1.526 1_655 S
C844 H828 0.959 . S
C844 H829 0.959 . S
C844 H830 0.961 . S
C844 C843 1.502 . S
C845 H831 0.960 . S
C845 H832 0.961 . S
C845 H833 0.959 1_655 S
C845 C843 1.561 . S
C846 C843 1.526 1_455 S
C846 C847 1.396 . S
C846 C851 1.390 . S
C847 C841 1.465 1_455 S
C847 C846 1.396 . S
C847 C848 1.399 . S
C848 H834 0.929 . S
C848 C847 1.399 . S
C848 C849 1.385 . S
C849 H835 0.931 . S
C849 C848 1.385 . S
C849 C850 1.389 . S
C850 C849 1.389 . S
C850 C851 1.387 . S
C851 H836 0.930 . S
C851 C846 1.390 . S
C851 C850 1.387 . S
H852 C864 0.930 . S
H853 C866 0.930 . S
H854 C867 0.930 . S
H855 C871 0.959 1_556 S
H856 C871 0.959 . S
H857 C871 0.961 . S
H858 C872 0.960 . S
H859 C872 0.961 . S
H860 C872 0.959 . S
H861 C875 0.929 . S
H862 C876 0.931 . S
H863 C878 0.930 . S
C864 H852 0.930 . S
C864 C865 1.399 . S
C864 C869 1.399 . S
C865 C864 1.399 . S
C865 C866 1.376 . S
C866 H853 0.930 . S
C866 C865 1.376 . S
C866 C867 1.388 . S
C867 H854 0.930 . S
C867 C866 1.388 . S
C867 C868 1.390 . S
C868 C867 1.390 . S
C868 C869 1.394 . S
C868 C874 1.465 . S
C869 C864 1.399 . S
C869 C868 1.394 . S
C869 C870 1.516 1_556 S
C870 C869 1.516 1_554 S
C870 C871 1.502 . S
C870 C872 1.561 . S
C870 C873 1.526 . S
C871 H855 0.959 1_554 S
C871 H856 0.959 . S
C871 H857 0.961 . S
C871 C870 1.502 . S
C872 H858 0.960 . S
C872 H859 0.961 . S
C872 H860 0.959 . S
C872 C870 1.561 . S
C873 C870 1.526 . S
C873 C874 1.396 1_554 S
C873 C878 1.390 . S
C874 C868 1.465 . S
C874 C873 1.396 1_556 S
C874 C875 1.399 . S
C875 H861 0.929 . S
C875 C874 1.399 . S
C875 C876 1.385 1_556 S
C876 H862 0.931 . S
C876 C875 1.385 1_554 S
C876 C877 1.389 . S
C877 C876 1.389 . S
C877 C878 1.387 . S
C878 H863 0.930 . S
C878 C873 1.390 . S
C878 C877 1.387 . S
H879 C891 0.930 . S
H880 C893 0.930 . S
H881 C894 0.930 . S
H882 C898 0.959 . S
H883 C898 0.959 . S
H884 C898 0.961 . S
H885 C899 0.960 . S
H886 C899 0.961 . S
H887 C899 0.959 . S
H888 C902 0.929 . S
H889 C903 0.931 . S
H890 C905 0.930 . S
C891 H879 0.930 . S
C891 C892 1.399 . S
C891 C896 1.399 . S
C892 C891 1.399 . S
C892 C893 1.376 . S
C893 H880 0.930 . S
C893 C892 1.376 . S
C893 C894 1.388 . S
C894 H881 0.930 . S
C894 C893 1.388 . S
C894 C895 1.390 . S
C895 C894 1.390 . S
C895 C896 1.394 . S
C895 C901 1.465 . S
C896 C891 1.399 . S
C896 C895 1.394 . S
C896 C897 1.516 . S
C897 C896 1.516 . S
C897 C898 1.502 . S
C897 C899 1.561 . S
C897 C900 1.526 . S
C898 H882 0.959 . S
C898 H883 0.959 . S
C898 H884 0.961 . S
C898 C897 1.502 . S
C899 H885 0.960 . S
C899 H886 0.961 . S
C899 H887 0.959 . S
C899 C897 1.561 . S
C900 C897 1.526 . S
C900 C901 1.396 . S
C900 C905 1.390 . S
C901 C895 1.465 . S
C901 C900 1.396 . S
C901 C902 1.399 . S
C902 H888 0.929 . S
C902 C901 1.399 . S
C902 C903 1.385 . S
C903 H889 0.931 . S
C903 C902 1.385 . S
C903 C904 1.389 . S
C904 C903 1.389 . S
C904 C905 1.387 . S
C905 H890 0.930 . S
C905 C900 1.390 . S
C905 C904 1.387 . S
H906 C918 0.930 . S
H907 C920 0.930 . S
H908 C921 0.930 . S
H909 C925 0.959 . S
H910 C925 0.959 . S
H911 C925 0.961 . S
H912 C926 0.960 . S
H913 C926 0.961 . S
H914 C926 0.959 . S
H915 C929 0.929 . S
H916 C930 0.931 . S
H917 C932 0.930 . S
C918 H906 0.930 . S
C918 C919 1.399 . S
C918 C923 1.399 . S
C919 C918 1.399 . S
C919 C920 1.376 . S
C920 H907 0.930 . S
C920 C919 1.376 . S
C920 C921 1.388 . S
C921 H908 0.930 . S
C921 C920 1.388 . S
C921 C922 1.390 . S
C922 C921 1.390 . S
C922 C923 1.394 . S
C922 C928 1.465 . S
C923 C918 1.399 . S
C923 C922 1.394 . S
C923 C924 1.516 . S
C924 C923 1.516 . S
C924 C925 1.502 . S
C924 C926 1.561 . S
C924 C927 1.526 . S
C925 H909 0.959 . S
C925 H910 0.959 . S
C925 H911 0.961 . S
C925 C924 1.502 . S
C926 H912 0.960 . S
C926 H913 0.961 . S
C926 H914 0.959 . S
C926 C924 1.561 . S
C927 C924 1.526 . S
C927 C928 1.396 . S
C927 C932 1.390 . S
C928 C922 1.465 . S
C928 C927 1.396 . S
C928 C929 1.399 . S
C929 H915 0.929 . S
C929 C928 1.399 . S
C929 C930 1.385 . S
C930 H916 0.931 . S
C930 C929 1.385 . S
C930 C931 1.389 . S
C931 C930 1.389 . S
C931 C932 1.387 . S
C932 H917 0.930 . S
C932 C927 1.390 . S
C932 C931 1.387 . S
H933 C945 0.930 . S
H934 C947 0.930 . S
H935 C948 0.930 . S
H936 C952 0.959 . S
H937 C952 0.959 . S
H938 C952 0.961 . S
H939 C953 0.960 . S
H940 C953 0.961 . S
H941 C953 0.959 . S
H942 C956 0.929 . S
H943 C957 0.931 . S
H944 C959 0.930 . S
C945 H933 0.930 . S
C945 C946 1.399 . S
C945 C950 1.399 . S
C946 C945 1.399 . S
C946 C947 1.376 . S
C947 H934 0.930 . S
C947 C946 1.376 . S
C947 C948 1.388 . S
C948 H935 0.930 . S
C948 C947 1.388 . S
C948 C949 1.390 . S
C949 C948 1.390 . S
C949 C950 1.394 . S
C949 C955 1.465 . S
C950 C945 1.399 . S
C950 C949 1.394 . S
C950 C951 1.516 . S
C951 C950 1.516 . S
C951 C952 1.502 . S
C951 C953 1.561 . S
C951 C954 1.526 . S
C952 H936 0.959 . S
C952 H937 0.959 . S
C952 H938 0.961 . S
C952 C951 1.502 . S
C953 H939 0.960 . S
C953 H940 0.961 . S
C953 H941 0.959 . S
C953 C951 1.561 . S
C954 C951 1.526 . S
C954 C955 1.396 . S
C954 C959 1.390 . S
C955 C949 1.465 . S
C955 C954 1.396 . S
C955 C956 1.399 . S
C956 H942 0.929 . S
C956 C955 1.399 . S
C956 C957 1.385 . S
C957 H943 0.931 . S
C957 C956 1.385 . S
C957 C958 1.389 . S
C958 C957 1.389 . S
C958 C959 1.387 . S
C959 H944 0.930 . S
C959 C954 1.390 . S
C959 C958 1.387 . S
H960 C972 0.930 . S
H961 C974 0.930 . S
H962 C975 0.930 . S
H963 C979 0.959 . S
H964 C979 0.959 . S
H965 C979 0.961 . S
H966 C980 0.960 . S
H967 C980 0.957 1_565 S
H968 C980 0.959 . S
H969 C983 0.929 1_545 S
H970 C984 0.931 . S
H971 C986 0.930 . S
C972 H960 0.930 . S
C972 C973 1.399 . S
C972 C977 1.399 . S
C973 C972 1.399 . S
C973 C974 1.376 . S
C974 H961 0.930 . S
C974 C973 1.376 . S
C974 C975 1.388 . S
C975 H962 0.930 . S
C975 C974 1.388 . S
C975 C976 1.390 . S
C976 C975 1.390 . S
C976 C977 1.394 . S
C976 C982 1.465 . S
C977 C972 1.399 . S
C977 C976 1.394 . S
C977 C978 1.516 1_545 S
C978 C977 1.516 1_565 S
C978 C979 1.502 . S
C978 C980 1.561 1_565 S
C978 C981 1.526 . S
C979 H963 0.959 . S
C979 H964 0.959 . S
C979 H965 0.961 . S
C979 C978 1.502 . S
C980 H966 0.960 . S
C980 H967 0.957 1_545 S
C980 H968 0.959 . S
C980 C978 1.561 1_545 S
C981 C978 1.526 . S
C981 C982 1.396 1_565 S
C981 C986 1.390 . S
C982 C976 1.465 . S
C982 C981 1.396 1_545 S
C982 C983 1.399 1_545 S
C983 H969 0.929 1_565 S
C983 C982 1.399 1_565 S
C983 C984 1.385 . S
C984 H970 0.931 . S
C984 C983 1.385 . S
C984 C985 1.389 . S
C985 C984 1.389 . S
C985 C986 1.387 . S
C986 H971 0.930 . S
C986 C981 1.390 . S
C986 C985 1.387 . S
H987 C999 0.930 . S
H988 C1001 0.930 . S
H989 C1002 0.930 . S
H990 C1006 0.959 . S
H991 C1006 0.959 . S
H992 C1006 0.961 . S
H993 C1007 0.960 . S
H994 C1007 0.961 . S
H995 C1007 0.959 . S
H996 C1010 0.929 . S
H997 C1011 0.931 . S
H998 C1013 0.930 . S
C999 H987 0.930 . S
C999 C1000 1.399 . S
C999 C1004 1.399 . S
C1000 C999 1.399 . S
C1000 C1001 1.376 . S
C1001 H988 0.930 . S
C1001 C1000 1.376 . S
C1001 C1002 1.388 . S
C1002 H989 0.930 . S
C1002 C1001 1.388 . S
C1002 C1003 1.390 . S
C1003 C1002 1.390 . S
C1003 C1004 1.394 . S
C1003 C1009 1.465 . S
C1004 C999 1.399 . S
C1004 C1003 1.394 . S
C1004 C1005 1.516 . S
C1005 C1004 1.516 . S
C1005 C1006 1.502 . S
C1005 C1007 1.561 . S
C1005 C1008 1.526 . S
C1006 H990 0.959 . S
C1006 H991 0.959 . S
C1006 H992 0.961 . S
C1006 C1005 1.502 . S
C1007 H993 0.960 . S
C1007 H994 0.961 . S
C1007 H995 0.959 . S
C1007 C1005 1.561 . S
C1008 C1005 1.526 . S
C1008 C1009 1.396 . S
C1008 C1013 1.390 . S
C1009 C1003 1.465 . S
C1009 C1008 1.396 . S
C1009 C1010 1.399 . S
C1010 H996 0.929 . S
C1010 C1009 1.399 . S
C1010 C1011 1.385 . S
C1011 H997 0.931 . S
C1011 C1010 1.385 . S
C1011 C1012 1.389 . S
C1012 C1011 1.389 . S
C1012 C1013 1.387 . S
C1013 H998 0.930 . S
C1013 C1008 1.390 . S
C1013 C1012 1.387 . S
H1014 C1026 0.930 . S
H1015 C1028 0.930 . S
H1016 C1029 0.930 . S
H1017 C1033 0.959 . S
H1018 C1033 0.959 . S
H1019 C1033 0.961 . S
H1020 C1034 0.960 . S
H1021 C1034 0.961 . S
H1022 C1034 0.959 . S
H1023 C1037 0.929 . S
H1024 C1038 0.931 . S
H1025 C1040 0.930 . S
C1026 H1014 0.930 . S
C1026 C1027 1.399 . S
C1026 C1031 1.399 . S
C1027 C1026 1.399 . S
C1027 C1028 1.376 . S
C1028 H1015 0.930 . S
C1028 C1027 1.376 . S
C1028 C1029 1.388 . S
C1029 H1016 0.930 . S
C1029 C1028 1.388 . S
C1029 C1030 1.390 . S
C1030 C1029 1.390 . S
C1030 C1031 1.394 . S
C1030 C1036 1.465 . S
C1031 C1026 1.399 . S
C1031 C1030 1.394 . S
C1031 C1032 1.516 1_565 S
C1032 C1031 1.516 1_545 S
C1032 C1033 1.502 . S
C1032 C1034 1.561 . S
C1032 C1035 1.526 . S
C1033 H1017 0.959 . S
C1033 H1018 0.959 . S
C1033 H1019 0.961 . S
C1033 C1032 1.502 . S
C1034 H1020 0.960 . S
C1034 H1021 0.961 . S
C1034 H1022 0.959 . S
C1034 C1032 1.561 . S
C1035 C1032 1.526 . S
C1035 C1036 1.396 1_545 S
C1035 C1040 1.390 . S
C1036 C1030 1.465 . S
C1036 C1035 1.396 1_565 S
C1036 C1037 1.399 . S
C1037 H1023 0.929 . S
C1037 C1036 1.399 . S
C1037 C1038 1.385 1_565 S
C1038 H1024 0.931 . S
C1038 C1037 1.385 1_545 S
C1038 C1039 1.389 . S
C1039 C1038 1.389 . S
C1039 C1040 1.387 . S
C1040 H1025 0.930 . S
C1040 C1035 1.390 . S
C1040 C1039 1.387 . S
H1041 C1053 0.930 . S
H1042 C1055 0.930 . S
H1043 C1056 0.930 . S
H1044 C1060 0.959 . S
H1045 C1060 0.959 . S
H1046 C1060 0.961 . S
H1047 C1061 0.960 . S
H1048 C1061 0.961 1_554 S
H1049 C1061 0.959 . S
H1050 C1064 0.929 1_556 S
H1051 C1065 0.931 . S
H1052 C1067 0.930 . S
C1053 H1041 0.930 . S
C1053 C1054 1.399 . S
C1053 C1058 1.399 . S
C1054 C1053 1.399 . S
C1054 C1055 1.376 . S
C1055 H1042 0.930 . S
C1055 C1054 1.376 . S
C1055 C1056 1.388 . S
C1056 H1043 0.930 . S
C1056 C1055 1.388 . S
C1056 C1057 1.390 . S
C1057 C1056 1.390 . S
C1057 C1058 1.394 . S
C1057 C1063 1.465 1_556 S
C1058 C1053 1.399 . S
C1058 C1057 1.394 . S
C1058 C1059 1.516 1_556 S
C1059 C1058 1.516 1_554 S
C1059 C1060 1.502 . S
C1059 C1061 1.561 1_554 S
C1059 C1062 1.526 . S
C1060 H1044 0.959 . S
C1060 H1045 0.959 . S
C1060 H1046 0.961 . S
C1060 C1059 1.502 . S
C1061 H1047 0.960 . S
C1061 H1048 0.961 1_556 S
C1061 H1049 0.959 . S
C1061 C1059 1.561 1_556 S
C1062 C1059 1.526 . S
C1062 C1063 1.396 . S
C1062 C1067 1.390 . S
C1063 C1057 1.465 1_554 S
C1063 C1062 1.396 . S
C1063 C1064 1.399 . S
C1064 H1050 0.929 1_554 S
C1064 C1063 1.399 . S
C1064 C1065 1.385 . S
C1065 H1051 0.931 . S
C1065 C1064 1.385 . S
C1065 C1066 1.389 . S
C1066 C1065 1.389 . S
C1066 C1067 1.387 . S
C1067 H1052 0.930 . S
C1067 C1062 1.390 . S
C1067 C1066 1.387 . S
H1068 C1080 0.930 . S
H1069 C1082 0.930 . S
H1070 C1083 0.930 . S
H1071 C1087 0.959 . S
H1072 C1087 0.959 . S
H1073 C1087 0.961 . S
H1074 C1088 0.960 . S
H1075 C1088 0.961 . S
H1076 C1088 0.959 . S
H1077 C1091 0.929 . S
H1078 C1092 0.931 . S
H1079 C1094 0.930 . S
C1080 H1068 0.930 . S
C1080 C1081 1.399 . S
C1080 C1085 1.399 . S
C1081 C1080 1.399 . S
C1081 C1082 1.376 . S
C1082 H1069 0.930 . S
C1082 C1081 1.376 . S
C1082 C1083 1.388 . S
C1083 H1070 0.930 . S
C1083 C1082 1.388 . S
C1083 C1084 1.390 . S
C1084 C1083 1.390 . S
C1084 C1085 1.394 . S
C1084 C1090 1.465 1_455 S
C1085 C1080 1.399 . S
C1085 C1084 1.394 . S
C1085 C1086 1.516 . S
C1086 C1085 1.516 . S
C1086 C1087 1.502 . S
C1086 C1088 1.561 1_455 S
C1086 C1089 1.526 1_455 S
C1087 H1071 0.959 . S
C1087 H1072 0.959 . S
C1087 H1073 0.961 . S
C1087 C1086 1.502 . S
C1088 H1074 0.960 . S
C1088 H1075 0.961 . S
C1088 H1076 0.959 . S
C1088 C1086 1.561 1_655 S
C1089 C1086 1.526 1_655 S
C1089 C1090 1.396 . S
C1089 C1094 1.390 . S
C1090 C1084 1.465 1_655 S
C1090 C1089 1.396 . S
C1090 C1091 1.399 . S
C1091 H1077 0.929 . S
C1091 C1090 1.399 . S
C1091 C1092 1.385 . S
C1092 H1078 0.931 . S
C1092 C1091 1.385 . S
C1092 C1093 1.389 . S
C1093 C1092 1.389 . S
C1093 C1094 1.387 . S
C1094 H1079 0.930 . S
C1094 C1089 1.390 . S
C1094 C1093 1.387 . S
H1095 C1107 0.930 . S
H1096 C1109 0.930 . S
H1097 C1110 0.930 . S
H1098 C1114 0.959 . S
H1099 C1114 0.959 . S
H1100 C1114 0.961 . S
H1101 C1115 0.960 . S
H1102 C1115 0.961 . S
H1103 C1115 0.959 . S
H1104 C1118 0.929 . S
H1105 C1119 0.931 . S
H1106 C1121 0.930 . S
C1107 H1095 0.930 . S
C1107 C1108 1.399 . S
C1107 C1112 1.399 . S
C1108 C1107 1.399 . S
C1108 C1109 1.376 . S
C1109 H1096 0.930 . S
C1109 C1108 1.376 . S
C1109 C1110 1.388 . S
C1110 H1097 0.930 . S
C1110 C1109 1.388 . S
C1110 C1111 1.390 . S
C1111 C1110 1.390 . S
C1111 C1112 1.394 . S
C1111 C1117 1.465 . S
C1112 C1107 1.399 . S
C1112 C1111 1.394 . S
C1112 C1113 1.516 . S
C1113 C1112 1.516 . S
C1113 C1114 1.502 . S
C1113 C1115 1.561 . S
C1113 C1116 1.526 . S
C1114 H1098 0.959 . S
C1114 H1099 0.959 . S
C1114 H1100 0.961 . S
C1114 C1113 1.502 . S
C1115 H1101 0.960 . S
C1115 H1102 0.961 . S
C1115 H1103 0.959 . S
C1115 C1113 1.561 . S
C1116 C1113 1.526 . S
C1116 C1117 1.396 . S
C1116 C1121 1.390 . S
C1117 C1111 1.465 . S
C1117 C1116 1.396 . S
C1117 C1118 1.399 . S
C1118 H1104 0.929 . S
C1118 C1117 1.399 . S
C1118 C1119 1.385 . S
C1119 H1105 0.931 . S
C1119 C1118 1.385 . S
C1119 C1120 1.389 . S
C1120 C1119 1.389 . S
C1120 C1121 1.387 . S
C1121 H1106 0.930 . S
C1121 C1116 1.390 . S
C1121 C1120 1.387 . S
H1122 C1134 0.930 . S
H1123 C1136 0.930 . S
H1124 C1137 0.930 . S
H1125 C1141 0.959 . S
H1126 C1141 0.959 . S
H1127 C1141 0.961 . S
H1128 C1142 0.960 . S
H1129 C1142 0.961 . S
H1130 C1142 0.959 . S
H1131 C1145 0.929 . S
H1132 C1146 0.931 . S
H1133 C1148 0.930 . S
C1134 H1122 0.930 . S
C1134 C1135 1.399 . S
C1134 C1139 1.399 . S
C1135 C1134 1.399 . S
C1135 C1136 1.376 . S
C1136 H1123 0.930 . S
C1136 C1135 1.376 . S
C1136 C1137 1.388 . S
C1137 H1124 0.930 . S
C1137 C1136 1.388 . S
C1137 C1138 1.390 . S
C1138 C1137 1.390 . S
C1138 C1139 1.394 . S
C1138 C1144 1.465 1_655 S
C1139 C1134 1.399 . S
C1139 C1138 1.394 . S
C1139 C1140 1.516 1_655 S
C1140 C1139 1.516 1_455 S
C1140 C1141 1.502 1_455 S
C1140 C1142 1.561 . S
C1140 C1143 1.526 . S
C1141 H1125 0.959 . S
C1141 H1126 0.959 . S
C1141 H1127 0.961 . S
C1141 C1140 1.502 1_655 S
C1142 H1128 0.960 . S
C1142 H1129 0.961 . S
C1142 H1130 0.959 . S
C1142 C1140 1.561 . S
C1143 C1140 1.526 . S
C1143 C1144 1.396 . S
C1143 C1148 1.390 . S
C1144 C1138 1.465 1_455 S
C1144 C1143 1.396 . S
C1144 C1145 1.399 . S
C1145 H1131 0.929 . S
C1145 C1144 1.399 . S
C1145 C1146 1.385 . S
C1146 H1132 0.931 . S
C1146 C1145 1.385 . S
C1146 C1147 1.389 . S
C1147 C1146 1.389 . S
C1147 C1148 1.387 . S
C1148 H1133 0.930 . S
C1148 C1143 1.390 . S
C1148 C1147 1.387 . S
H1149 C1161 0.930 . S
H1150 C1163 0.930 . S
H1151 C1164 0.930 . S
H1152 C1168 0.959 . S
H1153 C1168 0.959 . S
H1154 C1168 0.961 . S
H1155 C1169 0.960 . S
H1156 C1169 0.961 . S
H1157 C1169 0.959 . S
H1158 C1172 0.929 . S
H1159 C1173 0.931 . S
H1160 C1175 0.930 . S
C1161 H1149 0.930 . S
C1161 C1162 1.399 . S
C1161 C1166 1.399 . S
C1162 C1161 1.399 . S
C1162 C1163 1.376 . S
C1163 H1150 0.930 . S
C1163 C1162 1.376 . S
C1163 C1164 1.388 . S
C1164 H1151 0.930 . S
C1164 C1163 1.388 . S
C1164 C1165 1.390 . S
C1165 C1164 1.390 . S
C1165 C1166 1.394 . S
C1165 C1171 1.465 . S
C1166 C1161 1.399 . S
C1166 C1165 1.394 . S
C1166 C1167 1.516 . S
C1167 C1166 1.516 . S
C1167 C1168 1.502 . S
C1167 C1169 1.561 . S
C1167 C1170 1.526 . S
C1168 H1152 0.959 . S
C1168 H1153 0.959 . S
C1168 H1154 0.961 . S
C1168 C1167 1.502 . S
C1169 H1155 0.960 . S
C1169 H1156 0.961 . S
C1169 H1157 0.959 . S
C1169 C1167 1.561 . S
C1170 C1167 1.526 . S
C1170 C1171 1.396 . S
C1170 C1175 1.390 . S
C1171 C1165 1.465 . S
C1171 C1170 1.396 . S
C1171 C1172 1.399 . S
C1172 H1158 0.929 . S
C1172 C1171 1.399 . S
C1172 C1173 1.385 . S
C1173 H1159 0.931 . S
C1173 C1172 1.385 . S
C1173 C1174 1.389 . S
C1174 C1173 1.389 . S
C1174 C1175 1.387 . S
C1175 H1160 0.930 . S
C1175 C1170 1.390 . S
C1175 C1174 1.387 . S
H1176 C1188 0.930 . S
H1177 C1190 0.930 . S
H1178 C1191 0.930 . S
H1179 C1195 0.959 . S
H1180 C1195 0.959 . S
H1181 C1195 0.961 . S
H1182 C1196 0.960 . S
H1183 C1196 0.961 . S
H1184 C1196 0.959 . S
H1185 C1199 0.929 . S
H1186 C1200 0.931 . S
H1187 C1202 0.930 . S
C1188 H1176 0.930 . S
C1188 C1189 1.399 . S
C1188 C1193 1.399 1_545 S
C1189 C1188 1.399 . S
C1189 C1190 1.376 . S
C1190 H1177 0.930 . S
C1190 C1189 1.376 . S
C1190 C1191 1.388 . S
C1191 H1178 0.930 . S
C1191 C1190 1.388 . S
C1191 C1192 1.390 . S
C1192 C1191 1.390 . S
C1192 C1193 1.394 1_545 S
C1192 C1198 1.465 1_545 S
C1193 C1188 1.399 1_565 S
C1193 C1192 1.394 1_565 S
C1193 C1194 1.516 . S
C1194 C1193 1.516 . S
C1194 C1195 1.502 . S
C1194 C1196 1.561 . S
C1194 C1197 1.526 . S
C1195 H1179 0.959 . S
C1195 H1180 0.959 . S
C1195 H1181 0.961 . S
C1195 C1194 1.502 . S
C1196 H1182 0.960 . S
C1196 H1183 0.961 . S
C1196 H1184 0.959 . S
C1196 C1194 1.561 . S
C1197 C1194 1.526 . S
C1197 C1198 1.396 . S
C1197 C1202 1.390 . S
C1198 C1192 1.465 1_565 S
C1198 C1197 1.396 . S
C1198 C1199 1.399 . S
C1199 H1185 0.929 . S
C1199 C1198 1.399 . S
C1199 C1200 1.385 . S
C1200 H1186 0.931 . S
C1200 C1199 1.385 . S
C1200 C1201 1.389 . S
C1201 C1200 1.389 . S
C1201 C1202 1.387 . S
C1202 H1187 0.930 . S
C1202 C1197 1.390 . S
C1202 C1201 1.387 . S
H1203 C1215 0.930 . S
H1204 C1217 0.930 . S
H1205 C1218 0.930 . S
H1206 C1222 0.959 . S
H1207 C1222 0.959 . S
H1208 C1222 0.961 . S
H1209 C1223 0.960 . S
H1210 C1223 0.961 . S
H1211 C1223 0.959 . S
H1212 C1226 0.929 . S
H1213 C1227 0.931 . S
H1214 C1229 0.930 . S
C1215 H1203 0.930 . S
C1215 C1216 1.399 . S
C1215 C1220 1.399 . S
C1216 C1215 1.399 . S
C1216 C1217 1.376 . S
C1217 H1204 0.930 . S
C1217 C1216 1.376 . S
C1217 C1218 1.388 . S
C1218 H1205 0.930 . S
C1218 C1217 1.388 . S
C1218 C1219 1.390 . S
C1219 C1218 1.390 . S
C1219 C1220 1.394 . S
C1219 C1225 1.465 . S
C1220 C1215 1.399 . S
C1220 C1219 1.394 . S
C1220 C1221 1.516 . S
C1221 C1220 1.516 . S
C1221 C1222 1.502 . S
C1221 C1223 1.561 . S
C1221 C1224 1.526 . S
C1222 H1206 0.959 . S
C1222 H1207 0.959 . S
C1222 H1208 0.961 . S
C1222 C1221 1.502 . S
C1223 H1209 0.960 . S
C1223 H1210 0.961 . S
C1223 H1211 0.959 . S
C1223 C1221 1.561 . S
C1224 C1221 1.526 . S
C1224 C1225 1.396 . S
C1224 C1229 1.390 . S
C1225 C1219 1.465 . S
C1225 C1224 1.396 . S
C1225 C1226 1.399 . S
C1226 H1212 0.929 . S
C1226 C1225 1.399 . S
C1226 C1227 1.385 . S
C1227 H1213 0.931 . S
C1227 C1226 1.385 . S
C1227 C1228 1.389 . S
C1228 C1227 1.389 . S
C1228 C1229 1.387 . S
C1229 H1214 0.930 . S
C1229 C1224 1.390 . S
C1229 C1228 1.387 . S
H1230 C1242 0.930 . S
H1231 C1244 0.930 . S
H1232 C1245 0.930 1_565 S
H1233 C1249 0.959 . S
H1234 C1249 0.959 . S
H1235 C1249 0.961 . S
H1236 C1250 0.960 . S
H1237 C1250 0.961 . S
H1238 C1250 0.959 1_565 S
H1239 C1253 0.929 . S
H1240 C1254 0.931 . S
H1241 C1256 0.930 . S
C1242 H1230 0.930 . S
C1242 C1243 1.399 . S
C1242 C1247 1.399 . S
C1243 C1242 1.399 . S
C1243 C1244 1.376 . S
C1244 H1231 0.930 . S
C1244 C1243 1.376 . S
C1244 C1245 1.388 . S
C1245 H1232 0.930 1_545 S
C1245 C1244 1.388 . S
C1245 C1246 1.390 . S
C1246 C1245 1.390 . S
C1246 C1247 1.394 . S
C1246 C1252 1.465 1_545 S
C1247 C1242 1.399 . S
C1247 C1246 1.394 . S
C1247 C1248 1.516 . S
C1248 C1247 1.516 . S
C1248 C1249 1.502 . S
C1248 C1250 1.561 . S
C1248 C1251 1.526 1_545 S
C1249 H1233 0.959 . S
C1249 H1234 0.959 . S
C1249 H1235 0.961 . S
C1249 C1248 1.502 . S
C1250 H1236 0.960 . S
C1250 H1237 0.961 . S
C1250 H1238 0.959 1_545 S
C1250 C1248 1.561 . S
C1251 C1248 1.526 1_565 S
C1251 C1252 1.396 . S
C1251 C1256 1.390 . S
C1252 C1246 1.465 1_565 S
C1252 C1251 1.396 . S
C1252 C1253 1.399 . S
C1253 H1239 0.929 . S
C1253 C1252 1.399 . S
C1253 C1254 1.385 . S
C1254 H1240 0.931 . S
C1254 C1253 1.385 . S
C1254 C1255 1.389 . S
C1255 C1254 1.389 . S
C1255 C1256 1.387 . S
C1256 H1241 0.930 . S
C1256 C1251 1.390 . S
C1256 C1255 1.387 . S
H1257 C1269 0.930 . S
H1258 C1271 0.930 . S
H1259 C1272 0.930 . S
H1260 C1276 0.959 . S
H1261 C1276 0.959 . S
H1262 C1276 0.961 . S
H1263 C1277 0.945 1_554 S
H1264 C1277 0.983 . S
H1265 C1277 0.940 1_554 S
H1266 C1280 0.929 . S
H1267 C1281 0.931 . S
H1268 C1283 0.930 . S
C1269 H1257 0.930 . S
C1269 C1270 1.399 . S
C1269 C1274 1.399 . S
C1270 C1269 1.399 . S
C1270 C1271 1.376 . S
C1271 H1258 0.930 . S
C1271 C1270 1.376 . S
C1271 C1272 1.388 . S
C1272 H1259 0.930 . S
C1272 C1271 1.388 . S
C1272 C1273 1.390 . S
C1273 C1272 1.390 . S
C1273 C1274 1.394 . S
C1273 C1279 1.465 1_554 S
C1274 C1269 1.399 . S
C1274 C1273 1.394 . S
C1274 C1275 1.516 1_554 S
C1275 C1274 1.516 1_556 S
C1275 C1276 1.502 . S
C1275 C1277 1.574 . S
C1275 C1278 1.526 . S
C1276 H1260 0.959 . S
C1276 H1261 0.959 . S
C1276 H1262 0.961 . S
C1276 C1275 1.502 . S
C1277 H1263 0.945 1_556 S
C1277 H1264 0.983 . S
C1277 H1265 0.940 1_556 S
C1277 C1275 1.574 . S
C1278 C1275 1.526 . S
C1278 C1279 1.396 . S
C1278 C1283 1.390 . S
C1279 C1273 1.465 1_556 S
C1279 C1278 1.396 . S
C1279 C1280 1.399 . S
C1280 H1266 0.929 . S
C1280 C1279 1.399 . S
C1280 C1281 1.385 . S
C1281 H1267 0.931 . S
C1281 C1280 1.385 . S
C1281 C1282 1.389 . S
C1282 C1281 1.389 . S
C1282 C1283 1.387 . S
C1283 H1268 0.930 . S
C1283 C1278 1.390 . S
C1283 C1282 1.387 . S
H1284 C1296 0.930 . S
H1285 C1298 0.930 . S
H1286 C1299 0.930 . S
H1287 C1303 0.959 . S
H1288 C1303 0.959 . S
H1289 C1303 0.961 . S
H1290 C1304 0.960 . S
H1291 C1304 0.961 . S
H1292 C1304 0.959 . S
H1293 C1307 0.929 . S
H1294 C1308 0.931 . S
H1295 C1310 0.930 . S
C1296 H1284 0.930 . S
C1296 C1297 1.399 . S
C1296 C1301 1.399 . S
C1297 C1296 1.399 . S
C1297 C1298 1.376 . S
C1298 H1285 0.930 . S
C1298 C1297 1.376 . S
C1298 C1299 1.388 . S
C1299 H1286 0.930 . S
C1299 C1298 1.388 . S
C1299 C1300 1.390 . S
C1300 C1299 1.390 . S
C1300 C1301 1.394 . S
C1300 C1306 1.465 1_455 S
C1301 C1296 1.399 . S
C1301 C1300 1.394 . S
C1301 C1302 1.516 1_455 S
C1302 C1301 1.516 1_655 S
C1302 C1303 1.502 . S
C1302 C1304 1.561 1_655 S
C1302 C1305 1.526 . S
C1303 H1287 0.959 . S
C1303 H1288 0.959 . S
C1303 H1289 0.961 . S
C1303 C1302 1.502 . S
C1304 H1290 0.960 . S
C1304 H1291 0.961 . S
C1304 H1292 0.959 . S
C1304 C1302 1.561 1_455 S
C1305 C1302 1.526 . S
C1305 C1306 1.396 . S
C1305 C1310 1.390 . S
C1306 C1300 1.465 1_655 S
C1306 C1305 1.396 . S
C1306 C1307 1.399 . S
C1307 H1293 0.929 . S
C1307 C1306 1.399 . S
C1307 C1308 1.385 . S
C1308 H1294 0.931 . S
C1308 C1307 1.385 . S
C1308 C1309 1.389 . S
C1309 C1308 1.389 . S
C1309 C1310 1.387 . S
C1310 H1295 0.930 . S
C1310 C1305 1.390 . S
C1310 C1309 1.387 . S
H1311 C1323 0.930 . S
H1312 C1325 0.930 . S
H1313 C1326 0.930 . S
H1314 C1330 0.959 . S
H1315 C1330 0.959 . S
H1316 C1330 0.961 . S
H1317 C1331 0.960 . S
H1318 C1331 0.961 . S
H1319 C1331 0.959 . S
H1320 C1334 0.929 . S
H1321 C1335 0.931 . S
H1322 C1337 0.930 . S
C1323 H1311 0.930 . S
C1323 C1324 1.399 . S
C1323 C1328 1.399 . S
C1324 C1323 1.399 . S
C1324 C1325 1.376 . S
C1325 H1312 0.930 . S
C1325 C1324 1.376 . S
C1325 C1326 1.388 . S
C1326 H1313 0.930 . S
C1326 C1325 1.388 . S
C1326 C1327 1.390 . S
C1327 C1326 1.390 . S
C1327 C1328 1.394 . S
C1327 C1333 1.465 . S
C1328 C1323 1.399 . S
C1328 C1327 1.394 . S
C1328 C1329 1.516 . S
C1329 C1328 1.516 . S
C1329 C1330 1.502 . S
C1329 C1331 1.561 . S
C1329 C1332 1.526 . S
C1330 H1314 0.959 . S
C1330 H1315 0.959 . S
C1330 H1316 0.961 . S
C1330 C1329 1.502 . S
C1331 H1317 0.960 . S
C1331 H1318 0.961 . S
C1331 H1319 0.959 . S
C1331 C1329 1.561 . S
C1332 C1329 1.526 . S
C1332 C1333 1.396 . S
C1332 C1337 1.390 . S
C1333 C1327 1.465 . S
C1333 C1332 1.396 . S
C1333 C1334 1.399 . S
C1334 H1320 0.929 . S
C1334 C1333 1.399 . S
C1334 C1335 1.385 . S
C1335 H1321 0.931 . S
C1335 C1334 1.385 . S
C1335 C1336 1.389 . S
C1336 C1335 1.389 . S
C1336 C1337 1.387 . S
C1337 H1322 0.930 . S
C1337 C1332 1.390 . S
C1337 C1336 1.387 . S
H1338 C1350 0.930 . S
H1339 C1352 0.930 . S
H1340 C1353 0.922 1_455 S
H1341 C1357 0.959 . S
H1342 C1357 0.959 . S
H1343 C1357 0.961 . S
H1344 C1358 0.960 . S
H1345 C1358 0.961 . S
H1346 C1358 0.959 . S
H1347 C1361 0.929 . S
H1348 C1362 0.931 . S
H1349 C1364 0.930 . S
C1350 H1338 0.930 . S
C1350 C1351 1.399 . S
C1350 C1355 1.399 . S
C1351 C1350 1.399 . S
C1351 C1352 1.376 . S
C1352 H1339 0.930 . S
C1352 C1351 1.376 . S
C1352 C1353 1.388 . S
C1353 H1340 0.922 1_655 S
C1353 C1352 1.388 . S
C1353 C1354 1.390 . S
C1354 C1353 1.390 . S
C1354 C1355 1.394 . S
C1354 C1360 1.465 1_655 S
C1355 C1350 1.399 . S
C1355 C1354 1.394 . S
C1355 C1356 1.516 . S
C1356 C1355 1.516 . S
C1356 C1357 1.502 . S
C1356 C1358 1.561 1_655 S
C1356 C1359 1.526 1_655 S
C1357 H1341 0.959 . S
C1357 H1342 0.959 . S
C1357 H1343 0.961 . S
C1357 C1356 1.502 . S
C1358 H1344 0.960 . S
C1358 H1345 0.961 . S
C1358 H1346 0.959 . S
C1358 C1356 1.561 1_455 S
C1359 C1356 1.526 1_455 S
C1359 C1360 1.396 . S
C1359 C1364 1.390 . S
C1360 C1354 1.465 1_455 S
C1360 C1359 1.396 . S
C1360 C1361 1.399 . S
C1361 H1347 0.929 . S
C1361 C1360 1.399 . S
C1361 C1362 1.385 . S
C1362 H1348 0.931 . S
C1362 C1361 1.385 . S
C1362 C1363 1.389 . S
C1363 C1362 1.389 . S
C1363 C1364 1.387 . S
C1364 H1349 0.930 . S
C1364 C1359 1.390 . S
C1364 C1363 1.387 . S
H1365 C1377 0.930 . S
H1366 C1379 0.930 . S
H1367 C1380 0.930 . S
H1368 C1384 0.959 . S
H1369 C1384 0.959 . S
H1370 C1384 0.961 . S
H1371 C1385 0.960 . S
H1372 C1385 0.961 . S
H1373 C1385 0.959 . S
H1374 C1388 0.929 . S
H1375 C1389 0.931 . S
H1376 C1391 0.930 . S
C1377 H1365 0.930 . S
C1377 C1378 1.399 . S
C1377 C1382 1.399 . S
C1378 C1377 1.399 . S
C1378 C1379 1.376 . S
C1379 H1366 0.930 . S
C1379 C1378 1.376 . S
C1379 C1380 1.388 . S
C1380 H1367 0.930 . S
C1380 C1379 1.388 . S
C1380 C1381 1.390 . S
C1381 C1380 1.390 . S
C1381 C1382 1.394 . S
C1381 C1387 1.465 . S
C1382 C1377 1.399 . S
C1382 C1381 1.394 . S
C1382 C1383 1.516 . S
C1383 C1382 1.516 . S
C1383 C1384 1.502 . S
C1383 C1385 1.561 . S
C1383 C1386 1.526 . S
C1384 H1368 0.959 . S
C1384 H1369 0.959 . S
C1384 H1370 0.961 . S
C1384 C1383 1.502 . S
C1385 H1371 0.960 . S
C1385 H1372 0.961 . S
C1385 H1373 0.959 . S
C1385 C1383 1.561 . S
C1386 C1383 1.526 . S
C1386 C1387 1.396 . S
C1386 C1391 1.390 . S
C1387 C1381 1.465 . S
C1387 C1386 1.396 . S
C1387 C1388 1.399 . S
C1388 H1374 0.929 . S
C1388 C1387 1.399 . S
C1388 C1389 1.385 . S
C1389 H1375 0.931 . S
C1389 C1388 1.385 . S
C1389 C1390 1.389 . S
C1390 C1389 1.389 . S
C1390 C1391 1.387 . S
C1391 H1376 0.930 . S
C1391 C1386 1.390 . S
C1391 C1390 1.387 . S
H1392 C1404 0.930 . S
H1393 C1406 0.930 . S
H1394 C1407 0.930 . S
H1395 C1411 0.959 . S
H1396 C1411 0.959 . S
H1397 C1411 0.961 . S
H1398 C1412 0.960 . S
H1399 C1412 0.961 . S
H1400 C1412 0.959 . S
H1401 C1415 0.929 . S
H1402 C1416 0.931 . S
H1403 C1418 0.930 . S
C1404 H1392 0.930 . S
C1404 C1405 1.399 . S
C1404 C1409 1.399 . S
C1405 C1404 1.399 . S
C1405 C1406 1.376 . S
C1406 H1393 0.930 . S
C1406 C1405 1.376 . S
C1406 C1407 1.388 . S
C1407 H1394 0.930 . S
C1407 C1406 1.388 . S
C1407 C1408 1.390 . S
C1408 C1407 1.390 . S
C1408 C1409 1.394 . S
C1408 C1414 1.465 . S
C1409 C1404 1.399 . S
C1409 C1408 1.394 . S
C1409 C1410 1.516 . S
C1410 C1409 1.516 . S
C1410 C1411 1.502 . S
C1410 C1412 1.561 . S
C1410 C1413 1.526 . S
C1411 H1395 0.959 . S
C1411 H1396 0.959 . S
C1411 H1397 0.961 . S
C1411 C1410 1.502 . S
C1412 H1398 0.960 . S
C1412 H1399 0.961 . S
C1412 H1400 0.959 . S
C1412 C1410 1.561 . S
C1413 C1410 1.526 . S
C1413 C1414 1.396 . S
C1413 C1418 1.390 . S
C1414 C1408 1.465 . S
C1414 C1413 1.396 . S
C1414 C1415 1.399 . S
C1415 H1401 0.929 . S
C1415 C1414 1.399 . S
C1415 C1416 1.385 . S
C1416 H1402 0.931 . S
C1416 C1415 1.385 . S
C1416 C1417 1.389 . S
C1417 C1416 1.389 . S
C1417 C1418 1.387 . S
C1418 H1403 0.930 . S
C1418 C1413 1.390 . S
C1418 C1417 1.387 . S
H1419 C1431 0.930 . S
H1420 C1433 0.930 . S
H1421 C1434 0.930 . S
H1422 C1438 0.959 . S
H1423 C1438 0.959 . S
H1424 C1438 0.961 . S
H1425 C1439 0.960 . S
H1426 C1439 0.961 . S
H1427 C1439 0.959 . S
H1428 C1442 0.926 1_556 S
H1429 C1443 0.931 . S
H1430 C1445 0.930 . S
C1431 H1419 0.930 . S
C1431 C1432 1.399 . S
C1431 C1436 1.399 . S
C1432 C1431 1.399 . S
C1432 C1433 1.376 . S
C1433 H1420 0.930 . S
C1433 C1432 1.376 . S
C1433 C1434 1.388 . S
C1434 H1421 0.930 . S
C1434 C1433 1.388 . S
C1434 C1435 1.390 . S
C1435 C1434 1.390 . S
C1435 C1436 1.394 . S
C1435 C1441 1.488 . S
C1436 C1431 1.399 . S
C1436 C1435 1.394 . S
C1436 C1437 1.516 . S
C1437 C1436 1.516 . S
C1437 C1438 1.502 1_556 S
C1437 C1439 1.561 . S
C1437 C1440 1.526 1_556 S
C1438 H1422 0.959 . S
C1438 H1423 0.959 . S
C1438 H1424 0.961 . S
C1438 C1437 1.502 1_554 S
C1439 H1425 0.960 . S
C1439 H1426 0.961 . S
C1439 H1427 0.959 . S
C1439 C1437 1.561 . S
C1440 C1437 1.526 1_554 S
C1440 C1441 1.381 1_554 S
C1440 C1445 1.390 . S
C1441 C1435 1.488 . S
C1441 C1440 1.381 1_556 S
C1441 C1442 1.390 1_556 S
C1442 H1428 0.926 1_554 S
C1442 C1441 1.390 1_554 S
C1442 C1443 1.385 . S
C1443 H1429 0.931 . S
C1443 C1442 1.385 . S
C1443 C1444 1.389 . S
C1444 C1443 1.389 . S
C1444 C1445 1.387 . S
C1445 H1430 0.930 . S
C1445 C1440 1.390 . S
C1445 C1444 1.387 . S
H1446 C1458 0.930 . S
H1447 C1460 0.930 . S
H1448 C1461 0.930 . S
H1449 C1465 0.959 . S
H1450 C1465 0.959 . S
H1451 C1465 0.961 . S
H1452 C1466 0.960 . S
H1453 C1466 0.961 . S
H1454 C1466 0.959 . S
H1455 C1469 0.929 . S
H1456 C1470 0.931 . S
H1457 C1472 0.930 . S
C1458 H1446 0.930 . S
C1458 C1459 1.399 . S
C1458 C1463 1.399 . S
C1459 C1458 1.399 . S
C1459 C1460 1.376 . S
C1460 H1447 0.930 . S
C1460 C1459 1.376 . S
C1460 C1461 1.388 . S
C1461 H1448 0.930 . S
C1461 C1460 1.388 . S
C1461 C1462 1.390 . S
C1462 C1461 1.390 . S
C1462 C1463 1.394 . S
C1462 C1468 1.465 . S
C1463 C1458 1.399 . S
C1463 C1462 1.394 . S
C1463 C1464 1.516 . S
C1464 C1463 1.516 . S
C1464 C1465 1.502 . S
C1464 C1466 1.561 . S
C1464 C1467 1.526 . S
C1465 H1449 0.959 . S
C1465 H1450 0.959 . S
C1465 H1451 0.961 . S
C1465 C1464 1.502 . S
C1466 H1452 0.960 . S
C1466 H1453 0.961 . S
C1466 H1454 0.959 . S
C1466 C1464 1.561 . S
C1467 C1464 1.526 . S
C1467 C1468 1.396 . S
C1467 C1472 1.390 . S
C1468 C1462 1.465 . S
C1468 C1467 1.396 . S
C1468 C1469 1.399 . S
C1469 H1455 0.929 . S
C1469 C1468 1.399 . S
C1469 C1470 1.385 . S
C1470 H1456 0.931 . S
C1470 C1469 1.385 . S
C1470 C1471 1.389 . S
C1471 C1470 1.389 . S
C1471 C1472 1.387 . S
C1472 H1457 0.930 . S
C1472 C1467 1.390 . S
C1472 C1471 1.387 . S
H1473 C1485 0.930 . S
H1474 C1487 0.930 . S
H1475 C1488 0.930 . S
H1476 C1492 0.959 . S
H1477 C1492 0.959 . S
H1478 C1492 0.961 . S
H1479 C1493 0.960 . S
H1480 C1493 0.961 . S
H1481 C1493 0.959 . S
H1482 C1496 0.929 . S
H1483 C1497 0.931 . S
H1484 C1499 0.930 . S
C1485 H1473 0.930 . S
C1485 C1486 1.399 . S
C1485 C1490 1.399 . S
C1486 C1485 1.399 . S
C1486 C1487 1.376 . S
C1487 H1474 0.930 . S
C1487 C1486 1.376 . S
C1487 C1488 1.388 . S
C1488 H1475 0.930 . S
C1488 C1487 1.388 . S
C1488 C1489 1.390 . S
C1489 C1488 1.390 . S
C1489 C1490 1.394 . S
C1489 C1495 1.465 . S
C1490 C1485 1.399 . S
C1490 C1489 1.394 . S
C1490 C1491 1.516 . S
C1491 C1490 1.516 . S
C1491 C1492 1.502 . S
C1491 C1493 1.561 . S
C1491 C1494 1.526 . S
C1492 H1476 0.959 . S
C1492 H1477 0.959 . S
C1492 H1478 0.961 . S
C1492 C1491 1.502 . S
C1493 H1479 0.960 . S
C1493 H1480 0.961 . S
C1493 H1481 0.959 . S
C1493 C1491 1.561 . S
C1494 C1491 1.526 . S
C1494 C1495 1.396 . S
C1494 C1499 1.390 . S
C1495 C1489 1.465 . S
C1495 C1494 1.396 . S
C1495 C1496 1.399 . S
C1496 H1482 0.929 . S
C1496 C1495 1.399 . S
C1496 C1497 1.385 . S
C1497 H1483 0.931 . S
C1497 C1496 1.385 . S
C1497 C1498 1.389 . S
C1498 C1497 1.389 . S
C1498 C1499 1.387 . S
C1499 H1484 0.930 . S
C1499 C1494 1.390 . S
C1499 C1498 1.387 . S
H1500 C1512 0.930 . S
H1501 C1514 0.930 . S
H1502 C1515 0.930 . S
H1503 C1519 0.959 . S
H1504 C1519 0.959 . S
H1505 C1519 0.961 . S
H1506 C1520 0.960 . S
H1507 C1520 0.961 . S
H1508 C1520 0.959 . S
H1509 C1523 0.929 . S
H1510 C1524 0.931 . S
H1511 C1526 0.930 . S
C1512 H1500 0.930 . S
C1512 C1513 1.399 . S
C1512 C1517 1.399 . S
C1513 C1512 1.399 . S
C1513 C1514 1.376 . S
C1514 H1501 0.930 . S
C1514 C1513 1.376 . S
C1514 C1515 1.388 . S
C1515 H1502 0.930 . S
C1515 C1514 1.388 . S
C1515 C1516 1.390 . S
C1516 C1515 1.390 . S
C1516 C1517 1.394 . S
C1516 C1522 1.465 . S
C1517 C1512 1.399 . S
C1517 C1516 1.394 . S
C1517 C1518 1.516 . S
C1518 C1517 1.516 . S
C1518 C1519 1.502 . S
C1518 C1520 1.561 . S
C1518 C1521 1.526 . S
C1519 H1503 0.959 . S
C1519 H1504 0.959 . S
C1519 H1505 0.961 . S
C1519 C1518 1.502 . S
C1520 H1506 0.960 . S
C1520 H1507 0.961 . S
C1520 H1508 0.959 . S
C1520 C1518 1.561 . S
C1521 C1518 1.526 . S
C1521 C1522 1.396 . S
C1521 C1526 1.390 . S
C1522 C1516 1.465 . S
C1522 C1521 1.396 . S
C1522 C1523 1.399 . S
C1523 H1509 0.929 . S
C1523 C1522 1.399 . S
C1523 C1524 1.385 . S
C1524 H1510 0.931 . S
C1524 C1523 1.385 . S
C1524 C1525 1.389 . S
C1525 C1524 1.389 . S
C1525 C1526 1.387 . S
C1526 H1511 0.930 . S
C1526 C1521 1.390 . S
C1526 C1525 1.387 . S
H1527 C1539 0.930 . S
H1528 C1541 0.930 . S
H1529 C1542 0.930 . S
H1530 C1546 0.959 . S
H1531 C1546 0.959 . S
H1532 C1546 0.961 . S
H1533 C1547 0.960 1_556 S
H1534 C1547 0.961 . S
H1535 C1547 0.959 . S
H1536 C1550 0.929 . S
H1537 C1551 0.931 . S
H1538 C1553 0.930 . S
C1539 H1527 0.930 . S
C1539 C1540 1.399 . S
C1539 C1544 1.399 . S
C1540 C1539 1.399 . S
C1540 C1541 1.376 . S
C1541 H1528 0.930 . S
C1541 C1540 1.376 . S
C1541 C1542 1.388 . S
C1542 H1529 0.930 . S
C1542 C1541 1.388 . S
C1542 C1543 1.390 . S
C1543 C1542 1.390 . S
C1543 C1544 1.394 . S
C1543 C1549 1.465 1_556 S
C1544 C1539 1.399 . S
C1544 C1543 1.394 . S
C1544 C1545 1.516 . S
C1545 C1544 1.516 . S
C1545 C1546 1.502 . S
C1545 C1547 1.561 1_556 S
C1545 C1548 1.526 1_556 S
C1546 H1530 0.959 . S
C1546 H1531 0.959 . S
C1546 H1532 0.961 . S
C1546 C1545 1.502 . S
C1547 H1533 0.960 1_554 S
C1547 H1534 0.961 . S
C1547 H1535 0.959 . S
C1547 C1545 1.561 1_554 S
C1548 C1545 1.526 1_554 S
C1548 C1549 1.396 . S
C1548 C1553 1.390 . S
C1549 C1543 1.465 1_554 S
C1549 C1548 1.396 . S
C1549 C1550 1.399 . S
C1550 H1536 0.929 . S
C1550 C1549 1.399 . S
C1550 C1551 1.385 . S
C1551 H1537 0.931 . S
C1551 C1550 1.385 . S
C1551 C1552 1.389 . S
C1552 C1551 1.389 . S
C1552 C1553 1.387 . S
C1553 H1538 0.930 . S
C1553 C1548 1.390 . S
C1553 C1552 1.387 . S
H1554 C1566 0.930 . S
H1555 C1568 0.930 . S
H1556 C1569 0.930 . S
H1557 C1573 0.959 . S
H1558 C1573 0.959 . S
H1559 C1573 0.961 . S
H1560 C1574 0.960 . S
H1561 C1574 0.961 . S
H1562 C1574 0.959 . S
H1563 C1577 0.929 . S
H1564 C1578 0.931 . S
H1565 C1580 0.930 . S
C1566 H1554 0.930 . S
C1566 C1567 1.399 . S
C1566 C1571 1.399 . S
C1567 C1566 1.399 . S
C1567 C1568 1.376 . S
C1568 H1555 0.930 . S
C1568 C1567 1.376 . S
C1568 C1569 1.388 . S
C1569 H1556 0.930 . S
C1569 C1568 1.388 . S
C1569 C1570 1.390 . S
C1570 C1569 1.390 . S
C1570 C1571 1.394 . S
C1570 C1576 1.465 . S
C1571 C1566 1.399 . S
C1571 C1570 1.394 . S
C1571 C1572 1.516 . S
C1572 C1571 1.516 . S
C1572 C1573 1.502 . S
C1572 C1574 1.561 . S
C1572 C1575 1.526 . S
C1573 H1557 0.959 . S
C1573 H1558 0.959 . S
C1573 H1559 0.961 . S
C1573 C1572 1.502 . S
C1574 H1560 0.960 . S
C1574 H1561 0.961 . S
C1574 H1562 0.959 . S
C1574 C1572 1.561 . S
C1575 C1572 1.526 . S
C1575 C1576 1.396 . S
C1575 C1580 1.390 . S
C1576 C1570 1.465 . S
C1576 C1575 1.396 . S
C1576 C1577 1.399 . S
C1577 H1563 0.929 . S
C1577 C1576 1.399 . S
C1577 C1578 1.385 . S
C1578 H1564 0.931 . S
C1578 C1577 1.385 . S
C1578 C1579 1.389 . S
C1579 C1578 1.389 . S
C1579 C1580 1.387 . S
C1580 H1565 0.930 . S
C1580 C1575 1.390 . S
C1580 C1579 1.387 . S
H1581 C1593 0.930 . S
H1582 C1595 0.930 . S
H1583 C1596 0.930 . S
H1584 C1600 0.959 . S
H1585 C1600 0.959 . S
H1586 C1600 0.961 . S
H1587 C1601 0.960 . S
H1588 C1601 0.961 . S
H1589 C1601 0.959 . S
H1590 C1604 0.929 . S
H1591 C1605 0.931 . S
H1592 C1607 0.930 . S
C1593 H1581 0.930 . S
C1593 C1594 1.399 . S
C1593 C1598 1.399 . S
C1594 C1593 1.399 . S
C1594 C1595 1.376 . S
C1595 H1582 0.930 . S
C1595 C1594 1.376 . S
C1595 C1596 1.388 . S
C1596 H1583 0.930 . S
C1596 C1595 1.388 . S
C1596 C1597 1.390 . S
C1597 C1596 1.390 . S
C1597 C1598 1.394 . S
C1597 C1603 1.465 . S
C1598 C1593 1.399 . S
C1598 C1597 1.394 . S
C1598 C1599 1.516 . S
C1599 C1598 1.516 . S
C1599 C1600 1.502 . S
C1599 C1601 1.561 . S
C1599 C1602 1.526 . S
C1600 H1584 0.959 . S
C1600 H1585 0.959 . S
C1600 H1586 0.961 . S
C1600 C1599 1.502 . S
C1601 H1587 0.960 . S
C1601 H1588 0.961 . S
C1601 H1589 0.959 . S
C1601 C1599 1.561 . S
C1602 C1599 1.526 . S
C1602 C1603 1.396 . S
C1602 C1607 1.390 . S
C1603 C1597 1.465 . S
C1603 C1602 1.396 . S
C1603 C1604 1.399 . S
C1604 H1590 0.929 . S
C1604 C1603 1.399 . S
C1604 C1605 1.385 . S
C1605 H1591 0.931 . S
C1605 C1604 1.385 . S
C1605 C1606 1.389 . S
C1606 C1605 1.389 . S
C1606 C1607 1.387 . S
C1607 H1592 0.930 . S
C1607 C1602 1.390 . S
C1607 C1606 1.387 . S
C541 N5 1.427 . S
C553 N509 1.487 . S
C568 N278 2.127 . S
C580 N38 2.114 . S
C595 N410 1.781 . S
C607 N71 1.746 . S
C622 N113 2.163 . S
C634 N344 2.200 . S
C649 N368 2.085 . S
C661 N47 2.071 . S
C676 N80 1.913 . S
C688 N311 1.943 . S
C703 N104 2.029 . S
C715 N434 1.984 . S
C730 N14 1.473 . S
C742 N236 1.473 . S
C757 N269 2.143 . S
C769 N146 2.199 . S
C784 N401 1.784 . S
C796 N179 1.741 . S
C811 N203 2.058 . S
C823 N335 2.040 . S
C838 N212 2.065 . S
C850 N443 2.094 . S
C865 N137 2.039 . S
C877 N377 2.054 . S
C892 N476 1.507 . S
C904 N245 1.450 . S
C919 N302 1.828 . S
C931 N170 1.887 . S
C946 N500 1.372 . S
C958 N467 1.440 . S
C973 C17 0.812 . S
C985 C61 0.816 . S
C1000 C41 1.188 . S
C1012 C74 1.218 . S
C1027 C83 1.079 . S
C1039 C107 1.115 . S
C1054 C127 1.437 . S
C1066 C8 1.437 . S
C1081 C28 0.824 . S
C1093 C193 0.838 . S
C1108 C149 0.790 . S
C1120 C116 0.774 . S
C1135 C215 0.430 . S
C1147 C50 0.479 . S
C1162 C490 0.759 . S
C1174 C94 0.753 . S
C1189 C281 0.877 . S
C1201 C239 0.844 . S
C1216 C292 1.330 . S
C1228 C305 1.332 . S
C1243 C325 1.180 . S
C1255 C338 1.202 . S
C1270 C347 0.598 . S
C1282 C259 0.634 . S
C1297 C413 0.566 . S
C1309 C248 0.549 . S
C1324 C371 1.191 . S
C1336 C358 1.180 . S
C1351 C272 1.260 . S
C1363 C457 1.251 . S
C1378 C512 0.782 . S
C1390 C314 0.786 . S
C1405 C160 1.282 . S
C1417 C470 1.262 . S
C1432 C140 1.395 . S
C1444 C173 1.378 . S
C1459 C182 0.853 . S
C1471 C206 0.907 . S
C1486 C479 0.924 . S
C1498 C226 0.933 . S
C1513 C380 0.685 . S
C1525 C503 0.732 . S
C1540 C424 1.256 . S
C1552 C391 1.243 . S
C1567 C404 1.195 . S
C1579 C437 1.184 . S
C1594 C523 0.559 . S
C1606 C446 0.501 . S
