# Generated by pormake.
# Topology wiy, (3)-cn, num edge types: 1
# Building blocks:
#     Node 0, Type 0, BuildingBlock: WUSLED_clean_sbu_0, # of connection points: 3
#     Node 1, Type 0, BuildingBlock: WUSLED_clean_sbu_0, # of connection points: 3
#     Node 2, Type 0, BuildingBlock: WUSLED_clean_sbu_0, # of connection points: 3
#     Node 3, Type 0, BuildingBlock: WUSLED_clean_sbu_0, # of connection points: 3
#     Node 4, Type 0, BuildingBlock: WUSLED_clean_sbu_0, # of connection points: 3
#     Node 5, Type 0, BuildingBlock: WUSLED_clean_sbu_0, # of connection points: 3
#     Node 6, Type 0, BuildingBlock: WUSLED_clean_sbu_0, # of connection points: 3
#     Node 7, Type 0, BuildingBlock: WUSLED_clean_sbu_0, # of connection points: 3
#     Node 8, Type 0, BuildingBlock: WUSLED_clean_sbu_0, # of connection points: 3
#     Node 9, Type 0, BuildingBlock: WUSLED_clean_sbu_0, # of connection points: 3
#     Node 10, Type 0, BuildingBlock: WUSLED_clean_sbu_0, # of connection points: 3
#     Node 11, Type 0, BuildingBlock: WUSLED_clean_sbu_0, # of connection points: 3
#     Edge 12, Type (0, 0), BuildingBlock: EZIPEK_clean_linker_0, # of connection points: 2
#     Edge 13, Type (0, 0), BuildingBlock: EZIPEK_clean_linker_0, # of connection points: 2
#     Edge 14, Type (0, 0), BuildingBlock: EZIPEK_clean_linker_0, # of connection points: 2
#     Edge 15, Type (0, 0), BuildingBlock: EZIPEK_clean_linker_0, # of connection points: 2
#     Edge 16, Type (0, 0), BuildingBlock: EZIPEK_clean_linker_0, # of connection points: 2
#     Edge 17, Type (0, 0), BuildingBlock: EZIPEK_clean_linker_0, # of connection points: 2
#     Edge 18, Type (0, 0), BuildingBlock: EZIPEK_clean_linker_0, # of connection points: 2
#     Edge 19, Type (0, 0), BuildingBlock: EZIPEK_clean_linker_0, # of connection points: 2
#     Edge 20, Type (0, 0), BuildingBlock: EZIPEK_clean_linker_0, # of connection points: 2
#     Edge 21, Type (0, 0), BuildingBlock: EZIPEK_clean_linker_0, # of connection points: 2
#     Edge 22, Type (0, 0), BuildingBlock: EZIPEK_clean_linker_0, # of connection points: 2
#     Edge 23, Type (0, 0), BuildingBlock: EZIPEK_clean_linker_0, # of connection points: 2
#     Edge 24, Type (0, 0), BuildingBlock: EZIPEK_clean_linker_0, # of connection points: 2
#     Edge 25, Type (0, 0), BuildingBlock: EZIPEK_clean_linker_0, # of connection points: 2
#     Edge 26, Type (0, 0), BuildingBlock: EZIPEK_clean_linker_0, # of connection points: 2
#     Edge 27, Type (0, 0), BuildingBlock: EZIPEK_clean_linker_0, # of connection points: 2
#     Edge 28, Type (0, 0), BuildingBlock: EZIPEK_clean_linker_0, # of connection points: 2
#     Edge 29, Type (0, 0), BuildingBlock: EZIPEK_clean_linker_0, # of connection points: 2
# Relax obj value: 0.113
# Max RMSD: 0.098
# Mean RMSD: 0.086
data_MOF--net-wiy--node1-WUSLED_clean_sbu_0--edge1-EZIPEK_clean_linker_0
_symmetry_space_group_name_H-M    P1
_symmetry_Int_Tables_number       1
_symmetry_cell_setting            triclinic
loop_
_symmetry_equiv_pos_as_xyz
'x, y, z'
_cell_length_a     45.505697
_cell_length_b     45.580745
_cell_length_c     38.993431
_cell_angle_alpha  89.968081
_cell_angle_beta   90.029062
_cell_angle_gamma 116.23091
loop_
_atom_site_label
_atom_site_type_symbol
_atom_site_fract_x
_atom_site_fract_y
_atom_site_fract_z
_atom_type_partial_charge
C0 C 0.02402 0.27515 0.99239 0.0
C1 C 0.02748 0.30258 0.97316 0.0
C2 C 0.01637 0.27043 0.92073 0.0
C3 C 0.02356 0.30016 0.93744 0.0
C4 C 1.01144 0.24278 0.94016 0.0
C5 C 0.01524 0.24517 0.97571 0.0
U6 U 0.03947 0.30626 0.08824 0.0
O7 O 0.03464 0.27562 0.13397 0.0
O8 O 0.08355 0.31327 0.11718 0.0
C9 C 0.06628 0.29115 0.13997 0.0
C10 C 0.0337 0.27747 0.02867 0.0
C11 C 0.08252 0.27926 0.16487 0.0
C12 C 0.11525 0.25096 0.17912 0.0
C13 C 0.09588 0.25794 0.1556 0.0
C14 C 0.10704 0.28583 0.22121 0.0
C15 C 0.12148 0.26551 0.21177 0.0
C16 C 0.08765 0.29259 0.19792 0.0
C17 C 1.01185 0.3788 0.09873 0.0
C18 C 0.01529 0.42888 0.12365 0.0
C19 C 0.98454 0.40764 0.07111 0.0
C20 C 0.99226 0.38111 0.07213 0.0
C21 C 0.99669 0.43199 0.09652 0.0
C22 C 0.02275 0.4024 0.12477 0.0
C23 C 0.02305 0.35332 0.09951 0.0
O24 O 0.05991 0.30375 0.03804 0.0
O25 O 1.01043 0.26676 0.052 0.0
O26 O 1.00202 0.32234 0.10258 0.0
O27 O 0.05204 0.35889 0.08758 0.0
H28 H 0.03436 0.32598 0.98551 0.0
H29 H 0.02718 0.32165 0.92271 0.0
H30 H 1.00572 0.21966 0.92766 0.0
H31 H 1.01271 0.22384 0.99011 0.0
H32 H 0.12655 0.23548 0.17141 0.0
H33 H 0.09232 0.24772 0.13 0.0
H34 H 0.11196 0.29754 0.24613 0.0
H35 H 0.0778 0.30942 0.20522 0.0
H36 H 0.02486 0.4475 0.14337 0.0
H37 H 0.97028 0.40992 0.04993 0.0
H38 H 0.98377 0.36303 0.05185 0.0
H39 H 0.03785 0.40081 0.14552 0.0
C40 C 0.74167 0.0125 0.14942 0.0
C41 C 0.71495 1.00558 0.12764 0.0
C42 C 0.74888 1.00802 0.07859 0.0
C43 C 0.71852 1.0032 0.09226 0.0
C44 C 0.77531 0.01411 0.10053 0.0
C45 C 0.77167 0.01628 0.13581 0.0
U46 U 0.72414 0.0264 0.24824 0.0
O47 O 0.75588 0.01966 0.28747 0.0
O48 O 0.76304 0.06928 0.27276 0.0
C49 C 0.77354 0.05141 0.29066 0.0
C50 C 0.74018 0.01875 0.18596 0.0
C51 C 0.79287 0.06537 0.32171 0.0
C52 C 0.84618 0.08473 0.34886 0.0
C53 C 0.82448 0.06737 0.32282 0.0
C54 C 0.80438 0.09733 0.37407 0.0
C55 C 0.83652 0.10037 0.37424 0.0
C56 C 0.7826 0.08001 0.34773 0.0
C57 C 0.62956 1.00266 0.26304 0.0
C58 C 0.5792 0.99992 0.28695 0.0
C59 C 0.58076 0.98506 0.22751 0.0
C60 C 0.61385 0.99165 0.23131 0.0
C61 C 0.56355 0.98997 0.25521 0.0
C62 C 0.61179 1.00602 0.29082 0.0
C63 C 0.66473 0.01326 0.26864 0.0
O64 O 0.73809 0.04531 0.19589 0.0
O65 O 0.73056 0.99494 0.20861 0.0
O66 O 0.67613 0.99129 0.26867 0.0
O67 O 0.68524 0.04185 0.25623 0.0
H68 H 0.69174 1.00282 0.13787 0.0
H69 H 0.69796 0.99852 0.07546 0.0
H70 H 0.79886 0.01795 0.09026 0.0
H71 H 0.79259 0.02189 0.1524 0.0
H72 H 0.87086 0.08687 0.3486 0.0
H73 H 0.83287 0.05654 0.30265 0.0
H74 H 0.7966 0.10924 0.39365 0.0
H75 H 0.75834 0.07891 0.3471 0.0
H76 H 0.56642 1.00396 0.30852 0.0
H77 H 0.56899 0.97752 0.20275 0.0
H78 H 0.62725 0.98902 0.20953 0.0
H79 H 0.62356 0.01451 0.31544 0.0
C80 C 0.73868 0.71061 0.31602 0.0
C81 C 0.72035 0.68639 0.29228 0.0
C82 C 0.74467 0.72487 0.24568 0.0
C83 C 0.72345 0.69343 0.25725 0.0
C84 C 0.76379 0.74893 0.26937 0.0
C85 C 0.76083 0.74178 0.30447 0.0
U86 U 0.72028 0.6924 0.41772 0.0
O87 O 0.75996 0.72492 0.45248 0.0
O88 O 0.71619 0.73306 0.44351 0.0
C89 C 0.74492 0.74331 0.45837 0.0
C90 C 0.73219 0.70424 0.35268 0.0
C91 C 0.75052 0.76197 0.49049 0.0
C92 C 0.78571 0.81226 0.52015 0.0
C93 C 0.78102 0.78917 0.4946 0.0
C94 C 0.72978 0.78036 0.53925 0.0
C95 C 0.75985 0.80848 0.54198 0.0
C96 C 0.72503 0.75724 0.5135 0.0
C97 C 0.65899 0.59927 0.43449 0.0
C98 C 0.60926 0.55232 0.4523 0.0
C99 C 0.63974 0.54769 0.40336 0.0
C100 C 0.66287 0.58054 0.40773 0.0
C101 C 0.61251 0.5336 0.42545 0.0
C102 C 0.63224 0.58469 0.45677 0.0
C103 C 0.68183 0.6338 0.44137 0.0
O104 O 0.70601 0.70387 0.36722 0.0
O105 O 0.75123 0.6967 0.37254 0.0
O106 O 0.71346 0.64397 0.43648 0.0
O107 O 0.67148 0.65566 0.43341 0.0
H108 H 0.70301 0.66232 0.30091 0.0
H109 H 0.70851 0.67469 0.23922 0.0
H110 H 0.7802 0.77334 0.26075 0.0
H111 H 0.77492 0.76083 0.32262 0.0
H112 H 0.80907 0.83373 0.522 0.0
H113 H 0.80079 0.79352 0.47677 0.0
H114 H 0.70966 0.77701 0.55617 0.0
H115 H 0.70118 0.7366 0.51062 0.0
H116 H 0.58855 0.54194 0.46963 0.0
H117 H 0.64258 0.53352 0.38244 0.0
H118 H 0.68341 0.59125 0.39026 0.0
H119 H 0.62895 0.59858 0.47771 0.0
C120 C 1.00885 0.74071 0.49088 0.0
C121 C 1.01381 0.7176 0.47118 0.0
C122 C 1.0148 0.74792 0.4195 0.0
C123 C 0.01696 0.72132 0.43554 0.0
C124 C 1.0109 0.7715 0.4394 0.0
C125 C 1.00803 0.76793 0.47492 0.0
U126 U 0.99089 0.71191 0.58938 0.0
O127 O 0.99437 0.74855 0.62838 0.0
O128 O 0.94604 0.71067 0.61155 0.0
C129 C 0.96235 0.73708 0.62992 0.0
C130 C 1.00033 0.73555 0.52724 0.0
C131 C 0.94669 0.7426 0.66039 0.0
C132 C 0.9192 0.7728 0.68477 0.0
C133 C 0.93836 0.76873 0.65911 0.0
C134 C 0.91791 0.72551 0.71455 0.0
C135 C 0.90845 0.751 0.71243 0.0
C136 C 0.93681 0.72114 0.68845 0.0
C137 C 0.01902 0.64186 0.60443 0.0
C138 C 0.03447 0.60217 0.63015 0.0
C139 C 0.02585 0.60156 0.56873 0.0
C140 C 0.01896 0.6286 0.57187 0.0
C141 C 0.03265 0.58767 0.59809 0.0
C142 C 0.02774 0.62905 0.63324 0.0
C143 C 1.00592 0.66566 0.61077 0.0
O144 O 0.97397 0.7093 0.53631 0.0
O145 O 0.02313 0.74733 0.55099 0.0
O146 O 0.02651 0.69689 0.61245 0.0
O147 O 0.97752 0.65979 0.59686 0.0
H148 H 1.01416 0.69632 0.48318 0.0
H149 H 0.01991 0.70291 0.42034 0.0
H150 H 1.00906 0.79205 0.42733 0.0
H151 H 1.0038 0.78577 0.48983 0.0
H152 H 0.91183 0.7923 0.68246 0.0
H153 H 0.94554 0.78527 0.63738 0.0
H154 H 0.90949 0.70827 0.73564 0.0
H155 H 0.94276 0.70063 0.6896 0.0
H156 H 0.03939 0.59158 0.65303 0.0
H157 H 0.02427 0.59049 0.5438 0.0
H158 H 1.01217 0.63809 0.54933 0.0
H159 H 0.02762 0.63878 0.65857 0.0
C160 C 0.28988 1.00688 0.64848 0.0
C161 C 0.3165 0.02253 0.62633 0.0
C162 C 0.27917 0.01039 0.57816 0.0
C163 C 0.31118 0.0243 0.59129 0.0
C164 C 0.25245 0.99579 0.60053 0.0
C165 C 0.25781 0.99407 0.63563 0.0
U166 U 0.30614 0.99225 0.74802 0.0
O167 O 0.27254 0.99873 0.78488 0.0
O168 O 0.26555 0.94924 0.77039 0.0
C169 C 0.25442 0.96701 0.78757 0.0
C170 C 0.29572 1.00161 0.68432 0.0
C171 C 0.23597 0.95331 0.81919 0.0
C172 C 0.18213 0.92841 0.84553 0.0
C173 C 0.20264 0.9459 0.81877 0.0
C174 C 0.22855 0.92714 0.87488 0.0
C175 C 0.19476 0.91848 0.87357 0.0
C176 C 0.24911 0.94429 0.84759 0.0
C177 C 0.40013 0.01765 0.76232 0.0
C178 C 0.45549 0.03961 0.78513 0.0
C179 C 0.444 0.01533 0.72844 0.0
C180 C 0.41112 0.00947 0.73169 0.0
C181 C 0.46601 0.02935 0.75572 0.0
C182 C 0.42283 0.03376 0.78837 0.0
C183 C 0.36506 1.00554 0.7707 0.0
O184 O 0.29529 0.97403 0.69481 0.0
O185 O 0.30305 0.02466 0.70755 0.0
O186 O 0.35287 0.02686 0.77152 0.0
O187 O 0.34469 0.97684 0.75838 0.0
H188 H 0.34138 0.03228 0.63595 0.0
H189 H 0.332 0.03534 0.57421 0.0
H190 H 0.22764 0.98482 0.59067 0.0
H191 H 0.23703 0.98186 0.65253 0.0
H192 H 0.15618 0.92174 0.84387 0.0
H193 H 0.1921 0.95246 0.79686 0.0
H194 H 0.23863 0.91943 0.89631 0.0
H195 H 0.27476 0.94954 0.84818 0.0
H196 H 0.47212 0.05033 0.80642 0.0
H197 H 0.45185 1.00738 0.7055 0.0
H198 H 0.39407 0.99708 0.71118 0.0
H199 H 0.41483 0.04007 0.81223 0.0
C200 C 0.28319 0.29269 0.82203 0.0
C201 C 0.29438 0.32186 0.80286 0.0
C202 C 0.28423 0.29053 0.74956 0.0
C203 C 0.29463 0.32073 0.76669 0.0
C204 C 0.27232 0.26169 0.76899 0.0
C205 C 0.2717 0.26279 0.80468 0.0
U206 U 0.30845 0.32525 0.91631 0.0
O207 O 0.27837 0.30733 0.96331 0.0
O208 O 0.32329 0.30113 0.95683 0.0
C209 C 0.29773 0.29558 0.97617 0.0
C210 C 0.28409 0.29148 0.85992 0.0
C211 C 0.28274 0.26399 0.99478 0.0
C212 C 0.27792 0.20923 1.00497 0.0
C213 C 0.28477 0.23579 0.98281 0.0
C214 C 0.26455 0.23763 0.05026 0.0
C215 C 0.26909 0.21064 0.03926 0.0
C216 C 0.27131 0.26402 0.0282 0.0
C217 C 0.3675 0.42255 0.91796 0.0
C218 C 0.41077 0.46509 0.9509 0.0
C219 C 0.39743 0.47694 0.89394 0.0
C220 C 0.37281 0.44503 0.89139 0.0
C221 C 0.41722 0.48692 0.92323 0.0
C222 C 0.38601 0.43286 0.94825 0.0
C223 C 0.34539 0.38814 0.91054 0.0
O224 O 0.31186 0.29527 0.87377 0.0
O225 O 0.26901 0.30532 0.8776 0.0
O226 O 0.31374 0.376 0.9164 0.0
O227 O 0.35715 0.36651 0.90969 0.0
H228 H 0.30339 0.34528 0.81573 0.0
H229 H 0.30386 0.3433 0.75215 0.0
H230 H 0.26412 0.23817 0.75646 0.0
H231 H 0.2629 0.24006 0.81891 0.0
H232 H 0.28147 0.18852 0.99603 0.0
H233 H 0.29352 0.23508 0.95714 0.0
H234 H 0.25784 0.23919 0.07661 0.0
H235 H 0.26973 0.2855 0.03806 0.0
H236 H 0.42595 0.47253 0.97368 0.0
H237 H 0.40226 0.49333 0.87228 0.0
H238 H 0.35894 0.43737 0.86775 0.0
H239 H 0.38231 0.41581 0.96904 0.0
C240 C 0.74565 1.00223 0.85988 0.0
C241 C 0.72153 1.00534 0.87972 0.0
C242 C 0.75301 1.00858 0.93117 0.0
C243 C 0.72531 1.00868 0.91534 0.0
C244 C 0.77754 1.00654 0.91114 0.0
C245 C 0.77388 1.00344 0.87566 0.0
U246 U 0.71659 0.98481 0.76167 0.0
O247 O 0.75302 0.98844 0.7221 0.0
O248 O 0.71471 0.94019 0.7387 0.0
C249 C 0.741 0.95644 0.72008 0.0
C250 C 0.74081 0.99358 0.82356 0.0
C251 C 0.74663 0.94058 0.68981 0.0
C252 C 0.78288 0.9218 0.66185 0.0
C253 C 0.77744 0.94086 0.68665 0.0
C254 C 0.72691 0.90278 0.64199 0.0
C255 C 0.75746 0.90213 0.63985 0.0
C256 C 0.72141 0.92182 0.66705 0.0
C257 C 0.64587 0.01248 0.74581 0.0
C258 C 0.59984 0.01819 0.72084 0.0
C259 C 0.61271 0.03024 0.78111 0.0
C260 C 0.63934 0.02264 0.77772 0.0
C261 C 0.5923 0.02714 0.75277 0.0
C262 C 0.62648 0.01114 0.7174 0.0
C263 C 0.67035 1.00007 0.74078 0.0
O264 O 0.71436 0.96743 0.81446 0.0
O265 O 0.75256 0.01645 0.79993 0.0
O266 O 0.7016 0.02089 0.73984 0.0
O267 O 0.66437 0.97162 0.75447 0.0
H268 H 0.69949 1.00412 0.86786 0.0
H269 H 0.7062 0.01024 0.93067 0.0
H270 H 0.79896 1.00634 0.92308 0.0
H271 H 0.79252 1.00066 0.86063 0.0
H272 H 0.80657 0.92162 0.66045 0.0
H273 H 0.797 0.95487 0.70438 0.0
H274 H 0.70713 0.88783 0.62495 0.0
H275 H 0.69737 0.9211 0.66933 0.0
H276 H 0.58435 0.01553 0.6988 0.0
H277 H 0.60705 0.03698 0.80601 0.0
H278 H 0.65401 0.02365 0.79998 0.0
H279 H 0.63116 1.00326 0.69264 0.0
C280 C 0.7305 0.74264 0.02818 0.0
C281 C 0.706 0.71743 0.04715 0.0
C282 C 0.7344 0.74222 0.1002 0.0
C283 C 0.70793 0.7173 0.08308 0.0
C284 C 0.7579 0.76805 0.08129 0.0
C285 C 0.7559 0.76825 0.04558 0.0
U286 U 0.70029 0.71527 0.93418 0.0
O287 O 0.71819 0.74428 0.88667 0.0
O288 O 0.72581 0.70041 0.89533 0.0
C289 C 0.73048 0.72502 0.87491 0.0
C290 C 0.73303 0.74129 0.9906 0.0
C291 C 0.76166 0.73989 0.85594 0.0
C292 C 0.81635 0.74493 0.84527 0.0
C293 C 0.79008 0.73818 0.86771 0.0
C294 C 0.78703 0.75742 0.80009 0.0
C295 C 0.81434 0.75333 0.81098 0.0
C296 C 0.7609 0.75074 0.82243 0.0
C297 C 0.60261 0.65454 0.93502 0.0
C298 C 0.55068 0.63105 0.9045 0.0
C299 C 0.55706 0.60605 0.95714 0.0
C300 C 0.58926 0.63017 0.9601 0.0
C301 C 0.53791 0.60583 0.92888 0.0
C302 C 0.58297 0.65532 0.90755 0.0
C303 C 0.63789 0.67621 0.93528 0.0
O304 O 0.72993 0.71342 0.97774 0.0
O305 O 0.71903 0.75561 0.97188 0.0
O306 O 0.6492 0.70789 0.93026 0.0
O307 O 0.65998 0.66557 0.94107 0.0
H308 H 0.68623 0.69737 0.03421 0.0
H309 H 0.68956 0.69721 0.09742 0.0
H310 H 0.77843 0.78743 0.09411 0.0
H311 H 0.77509 0.78778 0.03138 0.0
H312 H 0.83735 0.74172 0.85402 0.0
H313 H 0.7912 0.72979 0.89346 0.0
H314 H 0.78509 0.7638 0.7737 0.0
H315 H 0.73912 0.75194 0.81278 0.0
H316 H 0.53619 0.63102 0.88243 0.0
H317 H 0.54748 0.58677 0.97615 0.0
H318 H 0.60413 0.62915 0.98135 0.0
H319 H 0.59307 0.67368 0.88763 0.0
C320 C 0.01858 0.73992 0.20041 0.0
C321 C 1.01434 0.71317 0.22114 0.0
C322 C 1.01328 0.74396 0.27175 0.0
C323 C 1.01152 0.71516 0.25678 0.0
C324 C 0.01649 0.77015 0.25083 0.0
C325 C 0.01905 0.76808 0.2154 0.0
U326 U 0.03304 0.71943 0.10386 0.0
O327 O 0.02695 0.74674 0.05951 0.0
O328 O 0.07661 0.75457 0.07668 0.0
C329 C 0.05884 0.76212 0.05512 0.0
C330 C 0.02651 0.74157 0.16383 0.0
C331 C 0.07442 0.78717 0.0288 0.0
C332 C 0.11861 0.83906 0.01163 0.0
C333 C 0.10163 0.81652 0.03724 0.0
C334 C 0.08076 0.80349 0.96902 0.0
C335 C 0.10874 0.83228 0.9773 0.0
C336 C 0.06359 0.78106 0.99471 0.0
C337 C 1.00599 0.62325 0.09664 0.0
C338 C 0.97975 0.56837 0.07286 0.0
C339 C 1.01374 0.57915 0.12364 0.0
C340 C 0.01934 0.61191 0.12306 0.0
C341 C 0.99485 0.55757 0.09785 0.0
C342 C 0.98545 0.60104 0.07219 0.0
C343 C 0.01774 0.65831 0.08956 0.0
O344 O 0.05268 0.73816 0.15488 0.0
O345 O 1.00278 0.73077 0.14101 0.0
O346 O 0.99655 0.67058 0.0868 0.0
O347 O 0.04657 0.67892 0.10149 0.0
H348 H 1.01421 0.69137 0.20995 0.0
H349 H 1.00902 0.69474 0.27277 0.0
H350 H 0.01795 0.7925 0.26203 0.0
H351 H 0.02266 0.78906 0.19974 0.0
H352 H 0.14014 0.8612 0.01838 0.0
H353 H 0.11015 0.82165 0.06351 0.0
H354 H 0.07297 0.7979 0.94258 0.0
H355 H 0.04273 0.7584 0.9878 0.0
H356 H 0.96514 0.55196 0.0528 0.0
H357 H 0.02535 0.57099 0.14323 0.0
H358 H 0.03543 0.62863 0.14207 0.0
H359 H 0.97537 0.60941 0.05127 0.0
C360 C 0.28533 0.01678 0.35936 0.0
C361 C 0.31237 0.02344 0.38069 0.0
C362 C 0.27693 0.0103 0.43069 0.0
C363 C 0.30813 0.02008 0.41624 0.0
C364 C 0.24978 1.00251 0.40928 0.0
C365 C 0.25401 1.0058 0.37382 0.0
U366 U 0.31336 0.03492 0.26095 0.0
O367 O 0.27701 0.03125 0.22135 0.0
O368 O 0.31518 0.07961 0.23785 0.0
C369 C 0.28877 0.06323 0.21942 0.0
C370 C 0.28921 0.02583 0.32299 0.0
C371 C 0.28267 0.07889 0.18926 0.0
C372 C 0.25152 0.10568 0.16546 0.0
C373 C 0.25612 0.08661 0.19088 0.0
C374 C 0.29916 0.10813 0.13529 0.0
C375 C 0.27322 0.11696 0.13771 0.0
C376 C 0.30404 0.08931 0.16114 0.0
C377 C 0.38282 1.00553 0.2485 0.0
C378 C 0.4163 0.98133 0.22438 0.0
C379 C 0.42946 1.00704 0.28034 0.0
C380 C 0.40236 0.01393 0.27821 0.0
C381 C 0.43719 0.99178 0.25284 0.0
C382 C 0.38938 0.98824 0.22223 0.0
C383 C 0.35952 0.0191 0.24089 0.0
O384 O 0.31535 0.05219 0.31365 0.0
O385 O 0.27734 1.00313 0.29919 0.0
O386 O 0.32816 0.99887 0.23869 0.0
O387 O 0.36549 0.04775 0.25409 0.0
H388 H 0.33677 0.03225 0.37002 0.0
H389 H 0.32925 0.02587 0.43256 0.0
H390 H 0.22555 0.99474 0.4201 0.0
H391 H 0.23294 1.00105 0.35774 0.0
H392 H 0.23168 0.11255 0.168 0.0
H393 H 0.23966 0.079 0.21268 0.0
H394 H 0.31632 0.11694 0.11415 0.0
H395 H 0.32487 0.08383 0.15973 0.0
H396 H 0.42199 0.96963 0.20293 0.0
H397 H 0.44534 0.0151 0.30258 0.0
H398 H 0.3978 0.02732 0.29881 0.0
H399 H 0.37484 0.98184 0.19898 0.0
C400 C 0.2974 0.28275 0.52856 0.0
C401 C 0.32616 0.29623 0.54812 0.0
C402 C 0.29402 0.27838 0.60172 0.0
C403 C 0.32445 0.29479 0.58419 0.0
C404 C 0.26561 0.26869 0.58114 0.0
C405 C 0.26729 0.26975 0.54543 0.0
U406 U 0.33022 0.30663 0.43395 0.0
O407 O 0.31206 0.27554 0.38778 0.0
O408 O 0.30498 0.32002 0.39344 0.0
C409 C 0.30023 0.29457 0.37436 0.0
C410 C 0.29686 0.28344 0.49075 0.0
C411 C 0.26931 0.27938 0.35495 0.0
C412 C 0.21373 0.27191 0.34434 0.0
C413 C 0.24011 0.27931 0.36688 0.0
C414 C 0.2447 0.26257 0.29865 0.0
C415 C 0.21644 0.26468 0.30978 0.0
C416 C 0.2709 0.26986 0.32108 0.0
C417 C 0.42812 0.3673 0.43426 0.0
C418 C 0.48174 0.38596 0.40764 0.0
C419 C 0.47281 0.41894 0.45138 0.0
C420 C 0.44032 0.39547 0.45476 0.0
C421 C 0.49345 0.41475 0.42721 0.0
C422 C 0.44918 0.36238 0.41109 0.0
C423 C 0.3928 0.34533 0.43406 0.0
O424 O 0.30061 0.31095 0.4764 0.0
O425 O 0.31118 0.26834 0.47381 0.0
O426 O 0.38136 0.3134 0.43108 0.0
O427 O 0.37075 0.35623 0.43858 0.0
H428 H 0.3498 0.30828 0.53563 0.0
H429 H 0.34725 0.30753 0.59781 0.0
H430 H 0.24154 0.26098 0.59192 0.0
H431 H 0.24471 0.26096 0.53084 0.0
H432 H 0.19204 0.27371 0.35327 0.0
H433 H 0.2384 0.28675 0.39289 0.0
H434 H 0.24725 0.25724 0.27204 0.0
H435 H 0.29329 0.2701 0.3113 0.0
H436 H 0.49742 0.38238 0.38889 0.0
H437 H 0.4816 0.4409 0.46689 0.0
H438 H 0.42449 0.39975 0.47274 0.0
H439 H 0.44008 0.34103 0.39465 0.0
C440 C 1.00941 0.27798 0.70122 0.0
C441 C 0.02143 0.30656 0.72109 0.0
C442 C 0.01541 0.27396 0.77252 0.0
C443 C 0.02456 0.30453 0.75672 0.0
C444 C 1.00416 0.24568 0.75239 0.0
C445 C 1.00135 0.24774 0.71699 0.0
U446 U 0.99783 0.30013 0.60407 0.0
O447 O 1.00334 0.27082 0.56114 0.0
O448 O 0.95437 0.26677 0.57565 0.0
C449 C 0.97159 0.25724 0.55547 0.0
C450 C 1.00254 0.2776 0.66447 0.0
C451 C 0.95557 0.23407 0.52751 0.0
C452 C 0.94759 0.18576 0.4948 0.0
C453 C 0.96442 0.2089 0.52012 0.0
C454 C 0.91366 0.21338 0.48347 0.0
C455 C 0.92191 0.18776 0.47659 0.0
C456 C 0.93026 0.23629 0.50887 0.0
C457 C 0.02486 0.39649 0.59292 0.0
C458 C 0.0329 0.44701 0.56483 0.0
C459 C 0.03432 0.44446 0.62692 0.0
C460 C 0.02879 0.41167 0.62501 0.0
C461 C 0.03558 0.46197 0.59678 0.0
C462 C 0.02768 0.41455 0.56295 0.0
C463 C 1.01377 0.36119 0.58905 0.0
O464 O 0.97681 0.28148 0.6548 0.0
O465 O 0.02686 0.28841 0.64235 0.0
O466 O 0.03503 0.34892 0.58735 0.0
O467 O 0.98495 0.34115 0.60138 0.0
H468 H 0.0276 0.33006 0.70927 0.0
H469 H 0.0331 0.32655 0.77209 0.0
H470 H 0.99685 0.22194 0.76419 0.0
H471 H 0.9919 0.22545 0.70195 0.0
H472 H 0.95429 0.16615 0.48964 0.0
H473 H 0.98381 0.20675 0.53439 0.0
H474 H 0.89408 0.21539 0.46942 0.0
H475 H 0.92323 0.25568 0.51407 0.0
H476 H 0.03341 0.46004 0.54141 0.0
H477 H 0.03607 0.45569 0.65179 0.0
H478 H 0.02635 0.39793 0.64839 0.0
H479 H 0.02428 0.40303 0.538 0.0
C480 C 0.13787 0.23606 0.25699 0.0
C481 C 0.14633 0.26325 0.23477 0.0
C482 C 0.19963 0.29165 0.26292 0.0
C483 C 0.19198 0.26384 0.28406 0.0
N484 N 0.15666 0.20754 0.29756 0.0
N485 N 0.1874 0.3136 0.21121 0.0
C486 C 0.16188 0.23538 0.28002 0.0
C487 C 0.17792 0.29003 0.2361 0.0
N488 N 0.10667 0.21143 0.25671 0.0
N489 N 0.2271 0.32009 0.26929 0.0
H490 H 0.17211 0.31333 0.19114 0.0
H491 H 0.21134 0.33174 0.20857 0.0
H492 H 0.24376 0.32245 0.28871 0.0
H493 H 0.23197 0.34219 0.25731 0.0
H494 H 0.09786 0.19267 0.27475 0.0
H495 H 0.08881 0.21083 0.23954 0.0
H496 H 0.13677 0.18498 0.29311 0.0
H497 H 0.17362 0.20643 0.31489 0.0
C498 C 0.87867 0.13204 0.45985 0.0
C499 C 0.90331 0.16323 0.45006 0.0
C500 C 0.88523 0.15265 0.39027 0.0
C501 C 0.86074 0.12132 0.39999 0.0
N502 N 0.83957 0.07785 0.44161 0.0
N503 N 0.93576 0.19976 0.40553 0.0
C504 C 0.85917 0.10995 0.43409 0.0
C505 C 0.90841 0.17241 0.41505 0.0
N506 N 0.873 0.12405 0.49381 0.0
N507 N 0.88553 0.16408 0.35778 0.0
H508 H 0.95324 0.21465 0.42316 0.0
H509 H 0.94272 0.20597 0.3801 0.0
H510 H 0.86905 0.15038 0.33878 0.0
H511 H 0.90047 0.18805 0.3503 0.0
H512 H 0.85301 0.10323 0.50268 0.0
H513 H 0.88705 0.13935 0.51344 0.0
H514 H 0.83997 0.0672 0.46513 0.0
H515 H 0.82495 0.06107 0.42328 0.0
C516 C 0.76587 0.88816 0.57974 0.0
C517 C 0.76252 0.88012 0.61506 0.0
C518 C 0.7665 0.82933 0.60233 0.0
C519 C 0.76376 0.83459 0.56692 0.0
N520 N 0.75958 0.86845 0.52127 0.0
N521 N 0.7585 0.84262 0.66064 0.0
C522 C 0.7635 0.86406 0.55536 0.0
C523 C 0.76291 0.85074 0.62664 0.0
N524 N 0.77198 0.91907 0.56965 0.0
N525 N 0.77325 0.80428 0.6126 0.0
H526 H 0.75596 0.85768 0.67934 0.0
H527 H 0.75496 0.81991 0.67006 0.0
H528 H 0.77615 0.78828 0.59532 0.0
H529 H 0.77901 0.80122 0.63778 0.0
H530 H 0.77813 0.92754 0.54463 0.0
H531 H 0.77393 0.93728 0.58699 0.0
H532 H 0.75561 0.88776 0.51181 0.0
H533 H 0.75787 0.85148 0.50251 0.0
C534 C 0.89373 0.77928 0.76045 0.0
C535 C 0.88437 0.75279 0.73703 0.0
C536 C 0.8298 0.7266 0.7628 0.0
C537 C 0.83856 0.75367 0.78529 0.0
N538 N 0.87611 0.80861 0.80122 0.0
N539 N 0.84101 0.70648 0.70943 0.0
C540 C 0.86976 0.78093 0.78282 0.0
C541 C 0.85164 0.72797 0.73629 0.0
N542 N 0.92568 0.80228 0.762 0.0
N543 N 0.80098 0.69909 0.76739 0.0
H544 H 0.85605 0.7071 0.68899 0.0
H545 H 0.81649 0.69022 0.70561 0.0
H546 H 0.78414 0.6969 0.78653 0.0
H547 H 0.7951 0.67735 0.75415 0.0
H548 H 0.93471 0.82037 0.78074 0.0
H549 H 0.94387 0.80184 0.74606 0.0
H550 H 0.89701 0.83059 0.79782 0.0
H551 H 0.85915 0.81038 0.81806 0.0
C552 C 0.14909 0.84371 0.92957 0.0
C553 C 0.12949 0.85402 0.9498 0.0
C554 C 0.15381 0.90752 0.92144 0.0
C555 C 0.17189 0.89636 0.89974 0.0
N556 N 0.17928 0.85086 0.8768 0.0
N557 N 0.10809 0.89292 0.96076 0.0
C558 C 0.16736 0.86356 0.90194 0.0
C559 C 0.13029 0.88513 0.94445 0.0
N560 N 0.15121 0.81546 0.93743 0.0
N561 N 0.15988 0.93968 0.92086 0.0
H562 H 0.09065 0.87705 0.97784 0.0
H563 H 0.10509 0.91378 0.95522 0.0
H564 H 0.17719 0.95687 0.90466 0.0
H565 H 0.14982 0.94995 0.93835 0.0
H566 H 0.16797 0.80876 0.92585 0.0
H567 H 0.13841 0.80015 0.95763 0.0
H568 H 0.17358 0.8261 0.87525 0.0
H569 H 0.19201 0.86426 0.85547 0.0
C570 C 0.24227 0.15488 0.06724 0.0
C571 C 0.26913 0.1864 0.06493 0.0
C572 C 0.29515 0.17378 0.11416 0.0
C573 C 0.27082 0.14088 0.11326 0.0
N574 N 0.22185 0.09904 0.08799 0.0
N575 N 0.32338 0.22463 0.08329 0.0
C576 C 0.24437 0.13112 0.08966 0.0
C577 C 0.29616 0.19553 0.08765 0.0
N578 N 0.21451 0.14799 0.04869 0.0
N579 N 0.31653 0.18465 0.14113 0.0
H580 H 0.32536 0.24139 0.06415 0.0
H581 H 0.34515 0.23086 0.09667 0.0
H582 H 0.31618 0.16966 0.16151 0.0
H583 H 0.33238 0.20922 0.1451 0.0
H584 H 0.19275 0.12681 0.05196 0.0
H585 H 0.21243 0.16477 0.03184 0.0
H586 H 0.20385 0.08973 0.06914 0.0
H587 H 0.2226 0.08104 0.10399 0.0
C588 C 0.97112 0.46782 0.11609 0.0
C589 C 0.9928 0.46249 0.09355 0.0
C590 C 1.01342 0.51848 0.07154 0.0
C591 C 0.99305 0.52437 0.09541 0.0
N592 N 0.94856 0.50428 0.13587 0.0
N593 N 0.03669 0.48274 0.0521 0.0
C594 C 0.97077 0.49889 0.11649 0.0
C595 C 1.01413 0.48765 0.07144 0.0
N596 N 0.95174 0.44336 0.13787 0.0
N597 N 0.03183 0.54236 0.04869 0.0
H598 H 0.03793 0.46048 0.05089 0.0
H599 H 0.05572 0.50114 0.03877 0.0
H600 H 0.03395 0.56607 0.04943 0.0
H601 H 0.04356 0.53836 0.02758 0.0
H602 H 0.93817 0.44638 0.15782 0.0
H603 H 0.95004 0.41979 0.13679 0.0
H604 H 0.92954 0.48622 0.14953 0.0
H605 H 0.94779 0.5268 0.1367 0.0
C606 C 0.47202 0.96336 0.26766 0.0
C607 C 0.46901 0.98999 0.25196 0.0
C608 C 0.52688 0.01431 0.23481 0.0
C609 C 0.5302 0.98797 0.25094 0.0
N610 N 0.50727 0.93808 0.28378 0.0
N611 N 0.49115 0.03766 0.21547 0.0
C612 C 0.503 0.9625 0.26746 0.0
C613 C 0.49574 0.01447 0.23395 0.0
N614 N 0.44486 0.93843 0.28162 0.0
N615 N 0.55403 0.04041 0.22244 0.0
H616 H 0.46945 0.04013 0.2159 0.0
H617 H 0.50802 0.0532 0.19785 0.0
H618 H 0.57738 0.04148 0.22232 0.0
H619 H 0.55417 0.06225 0.21448 0.0
H620 H 0.44413 0.91678 0.29102 0.0
H621 H 0.42202 0.93861 0.28236 0.0
H622 H 0.48993 0.92059 0.29956 0.0
H623 H 0.529 0.93569 0.28227 0.0
C624 C 0.56148 0.49445 0.39513 0.0
C625 C 0.58592 0.49984 0.42032 0.0
C626 C 0.55216 0.44564 0.4454 0.0
C627 C 0.52689 0.44157 0.42187 0.0
N628 N 0.50969 0.45737 0.36945 0.0
N629 N 0.60639 0.48074 0.468 0.0
C630 C 0.53239 0.46443 0.39503 0.0
C631 C 0.58196 0.47515 0.44474 0.0
N632 N 0.56494 0.51908 0.37301 0.0
N633 N 0.54756 0.42091 0.46789 0.0
H634 H 0.62903 0.50131 0.4668 0.0
H635 H 0.60457 0.46559 0.48862 0.0
H636 H 0.52613 0.39897 0.46837 0.0
H637 H 0.56517 0.42095 0.48488 0.0
H638 H 0.54634 0.51857 0.35713 0.0
H639 H 0.58598 0.54126 0.37174 0.0
H640 H 0.51383 0.47088 0.34693 0.0
H641 H 0.48737 0.43641 0.36933 0.0
C642 C 0.06487 0.52334 0.59243 0.0
C643 C 0.03547 0.49447 0.59832 0.0
C644 C 1.00436 0.52667 0.60247 0.0
C645 C 0.03368 0.55558 0.5964 0.0
N646 N 0.09222 0.58281 0.58938 0.0
N647 N 0.97663 0.4674 0.60397 0.0
C648 C 0.06407 0.55428 0.59222 0.0
C649 C 1.00507 0.49582 0.60221 0.0
N650 N 0.09325 0.52088 0.58604 0.0
N651 N 0.97599 0.52892 0.60975 0.0
H652 H 0.97601 0.44426 0.60473 0.0
H653 H 0.95335 0.46629 0.60239 0.0
H654 H 0.97389 0.55077 0.60848 0.0
H655 H 0.95486 0.50962 0.61906 0.0
H656 H 0.11494 0.54021 0.57796 0.0
H657 H 0.09486 0.49877 0.58738 0.0
H658 H 0.11567 0.58429 0.58976 0.0
H659 H 0.09227 0.60571 0.58823 0.0
C660 C 0.50272 1.00385 0.77225 0.0
C661 C 0.49883 0.02964 0.7556 0.0
C662 C 0.55744 0.05625 0.74115 0.0
C663 C 0.56097 0.02968 0.75657 0.0
N664 N 0.53653 0.97595 0.78228 0.0
N665 N 0.52212 0.08232 0.72815 0.0
C666 C 0.53358 1.00307 0.77131 0.0
C667 C 0.52612 0.05637 0.74098 0.0
N668 N 0.47694 0.98035 0.78966 0.0
N669 N 0.584 0.08082 0.72589 0.0
H670 H 0.49943 0.08283 0.72731 0.0
H671 H 0.54114 0.10406 0.71974 0.0
H672 H 0.60756 0.08243 0.72744 0.0
H673 H 0.58296 0.09918 0.71087 0.0
H674 H 0.47923 0.96374 0.80647 0.0
H675 H 0.4533 0.97858 0.78919 0.0
H676 H 0.51675 0.95406 0.78912 0.0
H677 H 0.55856 0.97413 0.78222 0.0
C678 C 0.4479 0.54619 0.94034 0.0
C679 C 0.44722 0.51862 0.92271 0.0
C680 C 0.50387 0.55081 0.90347 0.0
C681 C 0.50562 0.57734 0.92374 0.0
N682 N 0.4796 0.60307 0.95782 0.0
N683 N 0.47463 0.49322 0.8897 0.0
C684 C 0.4776 0.57585 0.94112 0.0
C685 C 0.47509 0.52068 0.90447 0.0
N686 N 0.42017 0.54361 0.95649 0.0
N687 N 0.52968 0.55462 0.8829 0.0
H688 H 0.45409 0.47057 0.88963 0.0
H689 H 0.49525 0.492 0.87969 0.0
H690 H 0.55181 0.57579 0.88256 0.0
H691 H 0.52847 0.5379 0.86414 0.0
H692 H 0.41855 0.56201 0.97086 0.0
H693 H 0.39803 0.52244 0.95552 0.0
H694 H 0.46042 0.60457 0.97087 0.0
H695 H 0.50087 0.62516 0.95799 0.0
C696 C 0.98672 0.26577 0.8653 0.0
C697 C 0.01517 0.26853 0.8827 0.0
C698 C 0.04149 0.26887 0.82763 0.0
C699 C 1.01501 0.27099 0.81045 0.0
N700 N 0.96221 0.27141 0.81201 0.0
N701 N 0.07005 0.27311 0.88136 0.0
C702 C 0.98747 0.26927 0.82904 0.0
C703 C 0.04258 0.26984 0.86412 0.0
N704 N 0.95867 0.25864 0.88345 0.0
N705 N 0.06527 0.26544 0.80904 0.0
H706 H 0.07158 0.27334 0.90805 0.0
H707 H 0.0921 0.27768 0.86943 0.0
H708 H 0.06586 0.26586 0.7823 0.0
H709 H 0.0831 0.25986 0.81987 0.0
H710 H 0.93602 0.25265 0.87211 0.0
H711 H 0.95735 0.25595 0.91006 0.0
H712 H 0.9433 0.27424 0.82423 0.0
H713 H 0.96097 0.27223 0.78534 0.0
C714 C 0.744 0.97851 0.98691 0.0
C715 C 0.75542 1.00867 0.96899 0.0
C716 C 0.76545 0.03867 0.0231 0.0
C717 C 0.75347 1.00848 0.04101 0.0
N718 N 0.7391 0.95091 0.0414 0.0
N719 N 0.78455 0.06745 0.96914 0.0
C720 C 0.74518 0.97872 0.02332 0.0
C721 C 0.76854 0.03881 0.98686 0.0
N722 N 0.73119 0.94969 0.9691 0.0
N723 N 0.77294 0.06705 0.0407 0.0
H724 H 0.78689 0.06832 0.9425 0.0
H725 H 0.79782 0.09003 0.98084 0.0
H726 H 0.77197 0.06807 0.06737 0.0
H727 H 0.77826 0.08932 0.02891 0.0
H728 H 0.71915 0.92683 0.98062 0.0
H729 H 0.73084 0.94858 0.94237 0.0
H730 H 0.73641 0.92918 0.0301 0.0
H731 H 0.73939 0.95025 0.06814 0.0
C732 C 0.72369 0.74591 0.1967 0.0
C733 C 0.74492 0.73288 0.2088 0.0
C734 C 0.76006 0.72695 0.14985 0.0
C735 C 0.73897 0.74019 0.13771 0.0
N736 N 0.70673 0.76912 0.14903 0.0
N737 N 0.78843 0.71763 0.19834 0.0
C738 C 0.7226 0.75178 0.16102 0.0
C739 C 0.76475 0.72547 0.18576 0.0
N740 N 0.70385 0.75171 0.21926 0.0
N741 N 0.77482 0.71491 0.12703 0.0
H742 H 0.79216 0.71599 0.22454 0.0
H743 H 0.80613 0.71539 0.18313 0.0
H744 H 0.77256 0.71618 0.10051 0.0
H745 H 0.78756 0.70174 0.1342 0.0
H746 H 0.68514 0.75758 0.21172 0.0
H747 H 0.70469 0.74874 0.24571 0.0
H748 H 0.69744 0.78142 0.16485 0.0
H749 H 0.70514 0.77349 0.12299 0.0
C750 C 0.98357 0.73626 0.32761 0.0
C751 C 1.01359 0.74753 0.30953 0.0
C752 C 0.04416 0.76568 0.36341 0.0
C753 C 1.01431 0.74984 0.38163 0.0
N754 N 0.95536 0.72002 0.38217 0.0
N755 N 0.0727 0.773 0.30922 0.0
C756 C 0.98388 0.73535 0.36403 0.0
C757 C 0.04401 0.76255 0.32714 0.0
N758 N 0.95494 0.72726 0.3099 0.0
N759 N 0.07245 0.78425 0.3808 0.0
H760 H 0.07361 0.77196 0.28254 0.0
H761 H 0.09556 0.78087 0.32074 0.0
H762 H 0.07338 0.78661 0.40744 0.0
H763 H 0.09443 0.7994 0.36886 0.0
H764 H 0.93264 0.72231 0.3215 0.0
H765 H 0.95388 0.72726 0.28317 0.0
H766 H 0.93273 0.70581 0.37092 0.0
H767 H 0.95448 0.71986 0.4089 0.0
C768 C 0.27694 0.9827 0.52223 0.0
C769 C 0.27406 1.00821 0.54057 0.0
C770 C 0.26954 0.03359 0.4867 0.0
C771 C 0.27287 1.00825 0.46844 0.0
N772 N 0.27095 0.95463 0.46798 0.0
N773 N 0.26074 0.05379 0.54155 0.0
C774 C 0.27387 0.98153 0.486 0.0
C775 C 0.26802 0.03231 0.52316 0.0
N776 N 0.28344 0.96007 0.53945 0.0
N777 N 0.26917 0.05946 0.46923 0.0
H778 H 0.26043 0.05404 0.56829 0.0
H779 H 0.25264 0.0697 0.53053 0.0
H780 H 0.26975 0.06098 0.44254 0.0
H781 H 0.27026 0.08039 0.48102 0.0
H782 H 0.28998 0.94348 0.52735 0.0
H783 H 0.28407 0.95895 0.56614 0.0
H784 H 0.26797 0.93287 0.47946 0.0
H785 H 0.2685 0.95296 0.44135 0.0
C786 C 0.31969 0.28538 0.6623 0.0
C787 C 0.29158 0.2748 0.64093 0.0
C788 C 0.25831 0.27096 0.6918 0.0
C789 C 0.28712 0.28793 0.71157 0.0
N790 N 0.34612 0.31066 0.71549 0.0
N791 N 0.23604 0.23278 0.64544 0.0
C792 C 0.31811 0.29516 0.69671 0.0
C793 C 0.26088 0.26054 0.65813 0.0
N794 N 0.34549 0.2798 0.65226 0.0
N795 N 0.22832 0.26449 0.7051 0.0
H796 H 0.23966 0.22033 0.62463 0.0
H797 H 0.21408 0.21969 0.65851 0.0
H798 H 0.22534 0.27193 0.72963 0.0
H799 H 0.20695 0.25441 0.69042 0.0
H800 H 0.36545 0.28393 0.66799 0.0
H801 H 0.34421 0.2661 0.63037 0.0
H802 H 0.36938 0.31967 0.70456 0.0
H803 H 0.34622 0.31646 0.74135 0.0
loop_
_geom_bond_atom_site_label_1
_geom_bond_atom_site_label_2
_geom_bond_distance
_geom_bond_site_symmetry_2
_ccdc_geom_bond_type
C0 C1 1.264 . S
C0 C5 1.479 . S
C0 C10 1.465 1_556 S
C1 C0 1.264 . S
C1 C3 1.339 . S
C1 H28 0.931 . S
C2 C3 1.395 . S
C2 C4 1.320 . S
C3 C1 1.339 . S
C3 C2 1.395 . S
C3 H29 0.929 . S
C4 C2 1.320 . S
C4 C5 1.405 . S
C4 H30 0.930 . S
C5 C0 1.479 . S
C5 C4 1.405 . S
C5 H31 0.931 . S
U6 O7 2.454 1_655 S
U6 O8 2.458 1_655 S
U6 C9 2.984 1_655 S
U6 C10 2.847 . S
U6 C23 2.882 . S
U6 O24 2.441 . S
U6 O25 2.420 . S
U6 O26 2.455 . S
U6 O27 2.449 . S
O7 U6 2.454 1_455 S
O7 C9 1.353 . S
O8 U6 2.458 1_455 S
O8 C9 1.286 . S
C9 U6 2.984 1_455 S
C9 O7 1.353 . S
C9 O8 1.286 . S
C9 C11 1.363 . S
C10 C0 1.465 1_554 S
C10 U6 2.847 . S
C10 O24 1.249 . S
C10 O25 1.202 . S
C11 C9 1.363 . S
C11 C13 1.408 . S
C11 C16 1.342 . S
C12 C13 1.310 . S
C12 C15 1.461 . S
C12 H32 0.932 . S
C13 C11 1.408 . S
C13 C12 1.310 . S
C13 H33 0.930 . S
C14 C15 1.474 . S
C14 C16 1.285 . S
C14 H34 0.929 . S
C15 C12 1.461 . S
C15 C14 1.474 . S
C16 C11 1.342 . S
C16 C14 1.285 . S
C16 H35 0.930 . S
C17 C20 1.424 . S
C17 C22 1.245 . S
C17 C23 1.428 . S
C18 C21 1.260 . S
C18 C22 1.477 . S
C18 H36 0.932 . S
C19 C20 1.384 . S
C19 C21 1.479 . S
C19 H37 0.929 . S
C20 C17 1.424 . S
C20 C19 1.384 . S
C20 H38 0.928 . S
C21 C18 1.260 . S
C21 C19 1.479 . S
C22 C17 1.245 . S
C22 C18 1.477 . S
C22 H39 0.932 . S
C23 U6 2.882 . S
C23 C17 1.428 . S
C23 O26 1.301 . S
C23 O27 1.282 . S
O24 U6 2.441 . S
O24 C10 1.249 . S
O25 U6 2.420 . S
O25 C10 1.202 . S
O26 U6 2.455 . S
O26 C23 1.301 . S
O27 U6 2.449 . S
O27 C23 1.282 . S
H28 C1 0.931 . S
H29 C3 0.929 . S
H30 C4 0.930 . S
H31 C5 0.931 . S
H32 C12 0.932 . S
H33 C13 0.930 . S
H34 C14 0.929 . S
H35 C16 0.930 . S
H36 C18 0.932 . S
H37 C19 0.929 . S
H38 C20 0.928 . S
H39 C22 0.932 . S
C40 C41 1.264 . S
C40 C45 1.479 . S
C40 C50 1.465 . S
C41 C40 1.264 . S
C41 C43 1.339 . S
C41 H68 0.931 . S
C42 C43 1.395 . S
C42 C44 1.320 . S
C43 C41 1.339 . S
C43 C42 1.395 . S
C43 H69 0.929 . S
C44 C42 1.320 . S
C44 C45 1.405 . S
C44 H70 0.930 . S
C45 C40 1.479 . S
C45 C44 1.405 . S
C45 H71 0.931 . S
U46 O47 2.454 1_565 S
U46 O48 2.458 1_565 S
U46 C49 2.984 1_565 S
U46 C50 2.847 . S
U46 C63 2.882 . S
U46 O64 2.441 . S
U46 O65 2.420 . S
U46 O66 2.455 . S
U46 O67 2.449 . S
O47 U46 2.454 1_545 S
O47 C49 1.353 . S
O48 U46 2.458 1_545 S
O48 C49 1.286 . S
C49 U46 2.984 1_545 S
C49 O47 1.353 . S
C49 O48 1.286 . S
C49 C51 1.363 . S
C50 C40 1.465 . S
C50 U46 2.847 . S
C50 O64 1.249 . S
C50 O65 1.202 . S
C51 C49 1.363 . S
C51 C53 1.408 . S
C51 C56 1.342 . S
C52 C53 1.310 . S
C52 C55 1.461 . S
C52 H72 0.932 . S
C53 C51 1.408 . S
C53 C52 1.310 . S
C53 H73 0.930 . S
C54 C55 1.474 . S
C54 C56 1.285 . S
C54 H74 0.929 . S
C55 C52 1.461 . S
C55 C54 1.474 . S
C56 C51 1.342 . S
C56 C54 1.285 . S
C56 H75 0.930 . S
C57 C60 1.424 . S
C57 C62 1.245 . S
C57 C63 1.428 . S
C58 C61 1.260 . S
C58 C62 1.477 . S
C58 H76 0.932 . S
C59 C60 1.384 . S
C59 C61 1.479 . S
C59 H77 0.929 . S
C60 C57 1.424 . S
C60 C59 1.384 . S
C60 H78 0.928 . S
C61 C58 1.260 . S
C61 C59 1.479 . S
C62 C57 1.245 . S
C62 C58 1.477 . S
C62 H79 0.932 . S
C63 U46 2.882 . S
C63 C57 1.428 . S
C63 O66 1.301 . S
C63 O67 1.282 . S
O64 U46 2.441 . S
O64 C50 1.249 . S
O65 U46 2.420 . S
O65 C50 1.202 . S
O66 U46 2.455 . S
O66 C63 1.301 . S
O67 U46 2.449 . S
O67 C63 1.282 . S
H68 C41 0.931 . S
H69 C43 0.929 . S
H70 C44 0.930 . S
H71 C45 0.931 . S
H72 C52 0.932 . S
H73 C53 0.930 . S
H74 C54 0.929 . S
H75 C56 0.930 . S
H76 C58 0.932 . S
H77 C59 0.929 . S
H78 C60 0.928 . S
H79 C62 0.932 . S
C80 C81 1.264 . S
C80 C85 1.479 . S
C80 C90 1.465 . S
C81 C80 1.264 . S
C81 C83 1.339 . S
C81 H108 0.931 . S
C82 C83 1.395 . S
C82 C84 1.320 . S
C83 C81 1.339 . S
C83 C82 1.395 . S
C83 H109 0.929 . S
C84 C82 1.320 . S
C84 C85 1.405 . S
C84 H110 0.930 . S
C85 C80 1.479 . S
C85 C84 1.405 . S
C85 H111 0.931 . S
U86 O87 2.454 . S
U86 O88 2.458 . S
U86 C89 2.984 . S
U86 C90 2.847 . S
U86 C103 2.882 . S
U86 O104 2.441 . S
U86 O105 2.420 . S
U86 O106 2.455 . S
U86 O107 2.449 . S
O87 U86 2.454 . S
O87 C89 1.353 . S
O88 U86 2.458 . S
O88 C89 1.286 . S
C89 U86 2.984 . S
C89 O87 1.353 . S
C89 O88 1.286 . S
C89 C91 1.363 . S
C90 C80 1.465 . S
C90 U86 2.847 . S
C90 O104 1.249 . S
C90 O105 1.202 . S
C91 C89 1.363 . S
C91 C93 1.408 . S
C91 C96 1.342 . S
C92 C93 1.310 . S
C92 C95 1.461 . S
C92 H112 0.932 . S
C93 C91 1.408 . S
C93 C92 1.310 . S
C93 H113 0.930 . S
C94 C95 1.474 . S
C94 C96 1.285 . S
C94 H114 0.929 . S
C95 C92 1.461 . S
C95 C94 1.474 . S
C96 C91 1.342 . S
C96 C94 1.285 . S
C96 H115 0.930 . S
C97 C100 1.424 . S
C97 C102 1.245 . S
C97 C103 1.428 . S
C98 C101 1.260 . S
C98 C102 1.477 . S
C98 H116 0.932 . S
C99 C100 1.384 . S
C99 C101 1.479 . S
C99 H117 0.929 . S
C100 C97 1.424 . S
C100 C99 1.384 . S
C100 H118 0.928 . S
C101 C98 1.260 . S
C101 C99 1.479 . S
C102 C97 1.245 . S
C102 C98 1.477 . S
C102 H119 0.932 . S
C103 U86 2.882 . S
C103 C97 1.428 . S
C103 O106 1.301 . S
C103 O107 1.282 . S
O104 U86 2.441 . S
O104 C90 1.249 . S
O105 U86 2.420 . S
O105 C90 1.202 . S
O106 U86 2.455 . S
O106 C103 1.301 . S
O107 U86 2.449 . S
O107 C103 1.282 . S
H108 C81 0.931 . S
H109 C83 0.929 . S
H110 C84 0.930 . S
H111 C85 0.931 . S
H112 C92 0.932 . S
H113 C93 0.930 . S
H114 C94 0.929 . S
H115 C96 0.930 . S
H116 C98 0.932 . S
H117 C99 0.929 . S
H118 C100 0.928 . S
H119 C102 0.932 . S
C120 C121 1.264 . S
C120 C125 1.479 . S
C120 C130 1.465 . S
C121 C120 1.264 . S
C121 C123 1.339 . S
C121 H148 0.931 . S
C122 C123 1.395 . S
C122 C124 1.320 . S
C123 C121 1.339 . S
C123 C122 1.395 . S
C123 H149 0.929 . S
C124 C122 1.320 . S
C124 C125 1.405 . S
C124 H150 0.930 . S
C125 C120 1.479 . S
C125 C124 1.405 . S
C125 H151 0.931 . S
U126 O127 2.454 1_455 S
U126 O128 2.458 1_455 S
U126 C129 2.984 1_455 S
U126 C130 2.847 . S
U126 C143 2.882 . S
U126 O144 2.441 . S
U126 O145 2.420 . S
U126 O146 2.455 . S
U126 O147 2.449 . S
O127 U126 2.454 1_655 S
O127 C129 1.353 . S
O128 U126 2.458 1_655 S
O128 C129 1.286 . S
C129 U126 2.984 1_655 S
C129 O127 1.353 . S
C129 O128 1.286 . S
C129 C131 1.363 . S
C130 C120 1.465 . S
C130 U126 2.847 . S
C130 O144 1.249 . S
C130 O145 1.202 . S
C131 C129 1.363 . S
C131 C133 1.408 . S
C131 C136 1.342 . S
C132 C133 1.310 . S
C132 C135 1.461 . S
C132 H152 0.932 . S
C133 C131 1.408 . S
C133 C132 1.310 . S
C133 H153 0.930 . S
C134 C135 1.474 . S
C134 C136 1.285 . S
C134 H154 0.929 . S
C135 C132 1.461 . S
C135 C134 1.474 . S
C136 C131 1.342 . S
C136 C134 1.285 . S
C136 H155 0.930 . S
C137 C140 1.424 . S
C137 C142 1.245 . S
C137 C143 1.428 . S
C138 C141 1.260 . S
C138 C142 1.477 . S
C138 H156 0.932 . S
C139 C140 1.384 . S
C139 C141 1.479 . S
C139 H157 0.929 . S
C140 C137 1.424 . S
C140 C139 1.384 . S
C140 H158 0.928 . S
C141 C138 1.260 . S
C141 C139 1.479 . S
C142 C137 1.245 . S
C142 C138 1.477 . S
C142 H159 0.932 . S
C143 U126 2.882 . S
C143 C137 1.428 . S
C143 O146 1.301 . S
C143 O147 1.282 . S
O144 U126 2.441 . S
O144 C130 1.249 . S
O145 U126 2.420 . S
O145 C130 1.202 . S
O146 U126 2.455 . S
O146 C143 1.301 . S
O147 U126 2.449 . S
O147 C143 1.282 . S
H148 C121 0.931 . S
H149 C123 0.929 . S
H150 C124 0.930 . S
H151 C125 0.931 . S
H152 C132 0.932 . S
H153 C133 0.930 . S
H154 C134 0.929 . S
H155 C136 0.930 . S
H156 C138 0.932 . S
H157 C139 0.929 . S
H158 C140 0.928 . S
H159 C142 0.932 . S
C160 C161 1.264 . S
C160 C165 1.479 . S
C160 C170 1.465 . S
C161 C160 1.264 . S
C161 C163 1.339 . S
C161 H188 0.931 . S
C162 C163 1.395 . S
C162 C164 1.320 . S
C163 C161 1.339 . S
C163 C162 1.395 . S
C163 H189 0.929 . S
C164 C162 1.320 . S
C164 C165 1.405 . S
C164 H190 0.930 . S
C165 C160 1.479 . S
C165 C164 1.405 . S
C165 H191 0.931 . S
U166 O167 2.454 1_545 S
U166 O168 2.458 1_545 S
U166 C169 2.984 1_545 S
U166 C170 2.847 . S
U166 C183 2.882 . S
U166 O184 2.441 . S
U166 O185 2.420 . S
U166 O186 2.455 . S
U166 O187 2.449 . S
O167 U166 2.454 1_565 S
O167 C169 1.353 . S
O168 U166 2.458 1_565 S
O168 C169 1.286 . S
C169 U166 2.984 1_565 S
C169 O167 1.353 . S
C169 O168 1.286 . S
C169 C171 1.363 . S
C170 C160 1.465 . S
C170 U166 2.847 . S
C170 O184 1.249 . S
C170 O185 1.202 . S
C171 C169 1.363 . S
C171 C173 1.408 . S
C171 C176 1.342 . S
C172 C173 1.310 . S
C172 C175 1.461 . S
C172 H192 0.932 . S
C173 C171 1.408 . S
C173 C172 1.310 . S
C173 H193 0.930 . S
C174 C175 1.474 . S
C174 C176 1.285 . S
C174 H194 0.929 . S
C175 C172 1.461 . S
C175 C174 1.474 . S
C176 C171 1.342 . S
C176 C174 1.285 . S
C176 H195 0.930 . S
C177 C180 1.424 . S
C177 C182 1.245 . S
C177 C183 1.428 . S
C178 C181 1.260 . S
C178 C182 1.477 . S
C178 H196 0.932 . S
C179 C180 1.384 . S
C179 C181 1.479 . S
C179 H197 0.929 . S
C180 C177 1.424 . S
C180 C179 1.384 . S
C180 H198 0.928 . S
C181 C178 1.260 . S
C181 C179 1.479 . S
C182 C177 1.245 . S
C182 C178 1.477 . S
C182 H199 0.932 . S
C183 U166 2.882 . S
C183 C177 1.428 . S
C183 O186 1.301 . S
C183 O187 1.282 . S
O184 U166 2.441 . S
O184 C170 1.249 . S
O185 U166 2.420 . S
O185 C170 1.202 . S
O186 U166 2.455 . S
O186 C183 1.301 . S
O187 U166 2.449 . S
O187 C183 1.282 . S
H188 C161 0.931 . S
H189 C163 0.929 . S
H190 C164 0.930 . S
H191 C165 0.931 . S
H192 C172 0.932 . S
H193 C173 0.930 . S
H194 C174 0.929 . S
H195 C176 0.930 . S
H196 C178 0.932 . S
H197 C179 0.929 . S
H198 C180 0.928 . S
H199 C182 0.932 . S
C200 C201 1.264 . S
C200 C205 1.479 . S
C200 C210 1.465 . S
C201 C200 1.264 . S
C201 C203 1.339 . S
C201 H228 0.931 . S
C202 C203 1.395 . S
C202 C204 1.320 . S
C203 C201 1.339 . S
C203 C202 1.395 . S
C203 H229 0.929 . S
C204 C202 1.320 . S
C204 C205 1.405 . S
C204 H230 0.930 . S
C205 C200 1.479 . S
C205 C204 1.405 . S
C205 H231 0.931 . S
U206 O207 2.454 . S
U206 O208 2.458 . S
U206 C209 2.984 . S
U206 C210 2.847 . S
U206 C223 2.882 . S
U206 O224 2.441 . S
U206 O225 2.420 . S
U206 O226 2.455 . S
U206 O227 2.449 . S
O207 U206 2.454 . S
O207 C209 1.353 . S
O208 U206 2.458 . S
O208 C209 1.286 . S
C209 U206 2.984 . S
C209 O207 1.353 . S
C209 O208 1.286 . S
C209 C211 1.363 . S
C210 C200 1.465 . S
C210 U206 2.847 . S
C210 O224 1.249 . S
C210 O225 1.202 . S
C211 C209 1.363 . S
C211 C213 1.408 . S
C211 C216 1.342 1_556 S
C212 C213 1.310 1_554 S
C212 C215 1.461 . S
C212 H232 0.932 1_554 S
C213 C211 1.408 . S
C213 C212 1.310 1_556 S
C213 H233 0.930 . S
C214 C215 1.474 . S
C214 C216 1.285 . S
C214 H234 0.929 . S
C215 C212 1.461 . S
C215 C214 1.474 . S
C216 C211 1.342 1_554 S
C216 C214 1.285 . S
C216 H235 0.930 . S
C217 C220 1.424 . S
C217 C222 1.245 . S
C217 C223 1.428 . S
C218 C221 1.260 . S
C218 C222 1.477 . S
C218 H236 0.932 . S
C219 C220 1.384 . S
C219 C221 1.479 . S
C219 H237 0.929 . S
C220 C217 1.424 . S
C220 C219 1.384 . S
C220 H238 0.928 . S
C221 C218 1.260 . S
C221 C219 1.479 . S
C222 C217 1.245 . S
C222 C218 1.477 . S
C222 H239 0.932 . S
C223 U206 2.882 . S
C223 C217 1.428 . S
C223 O226 1.301 . S
C223 O227 1.282 . S
O224 U206 2.441 . S
O224 C210 1.249 . S
O225 U206 2.420 . S
O225 C210 1.202 . S
O226 U206 2.455 . S
O226 C223 1.301 . S
O227 U206 2.449 . S
O227 C223 1.282 . S
H228 C201 0.931 . S
H229 C203 0.929 . S
H230 C204 0.930 . S
H231 C205 0.931 . S
H232 C212 0.932 1_556 S
H233 C213 0.930 . S
H234 C214 0.929 . S
H235 C216 0.930 . S
H236 C218 0.932 . S
H237 C219 0.929 . S
H238 C220 0.928 . S
H239 C222 0.932 . S
C240 C241 1.264 . S
C240 C245 1.479 . S
C240 C250 1.465 . S
C241 C240 1.264 . S
C241 C243 1.339 . S
C241 H268 0.931 . S
C242 C243 1.395 . S
C242 C244 1.320 . S
C243 C241 1.339 . S
C243 C242 1.395 . S
C243 H269 0.929 . S
C244 C242 1.320 . S
C244 C245 1.405 . S
C244 H270 0.930 . S
C245 C240 1.479 . S
C245 C244 1.405 . S
C245 H271 0.931 . S
U246 O247 2.454 1_545 S
U246 O248 2.458 1_545 S
U246 C249 2.984 1_545 S
U246 C250 2.847 . S
U246 C263 2.882 . S
U246 O264 2.441 . S
U246 O265 2.420 . S
U246 O266 2.455 . S
U246 O267 2.449 . S
O247 U246 2.454 1_565 S
O247 C249 1.353 . S
O248 U246 2.458 1_565 S
O248 C249 1.286 . S
C249 U246 2.984 1_565 S
C249 O247 1.353 . S
C249 O248 1.286 . S
C249 C251 1.363 . S
C250 C240 1.465 . S
C250 U246 2.847 . S
C250 O264 1.249 . S
C250 O265 1.202 . S
C251 C249 1.363 . S
C251 C253 1.408 . S
C251 C256 1.342 . S
C252 C253 1.310 . S
C252 C255 1.461 . S
C252 H272 0.932 . S
C253 C251 1.408 . S
C253 C252 1.310 . S
C253 H273 0.930 . S
C254 C255 1.474 . S
C254 C256 1.285 . S
C254 H274 0.929 . S
C255 C252 1.461 . S
C255 C254 1.474 . S
C256 C251 1.342 . S
C256 C254 1.285 . S
C256 H275 0.930 . S
C257 C260 1.424 . S
C257 C262 1.245 . S
C257 C263 1.428 . S
C258 C261 1.260 . S
C258 C262 1.477 . S
C258 H276 0.932 . S
C259 C260 1.384 . S
C259 C261 1.479 . S
C259 H277 0.929 . S
C260 C257 1.424 . S
C260 C259 1.384 . S
C260 H278 0.928 . S
C261 C258 1.260 . S
C261 C259 1.479 . S
C262 C257 1.245 . S
C262 C258 1.477 . S
C262 H279 0.932 . S
C263 U246 2.882 . S
C263 C257 1.428 . S
C263 O266 1.301 . S
C263 O267 1.282 . S
O264 U246 2.441 . S
O264 C250 1.249 . S
O265 U246 2.420 . S
O265 C250 1.202 . S
O266 U246 2.455 . S
O266 C263 1.301 . S
O267 U246 2.449 . S
O267 C263 1.282 . S
H268 C241 0.931 . S
H269 C243 0.929 . S
H270 C244 0.930 . S
H271 C245 0.931 . S
H272 C252 0.932 . S
H273 C253 0.930 . S
H274 C254 0.929 . S
H275 C256 0.930 . S
H276 C258 0.932 . S
H277 C259 0.929 . S
H278 C260 0.928 . S
H279 C262 0.932 . S
C280 C281 1.264 . S
C280 C285 1.479 . S
C280 C290 1.465 1_554 S
C281 C280 1.264 . S
C281 C283 1.339 . S
C281 H308 0.931 . S
C282 C283 1.395 . S
C282 C284 1.320 . S
C283 C281 1.339 . S
C283 C282 1.395 . S
C283 H309 0.929 . S
C284 C282 1.320 . S
C284 C285 1.405 . S
C284 H310 0.930 . S
C285 C280 1.479 . S
C285 C284 1.405 . S
C285 H311 0.931 . S
U286 O287 2.454 . S
U286 O288 2.458 . S
U286 C289 2.984 . S
U286 C290 2.847 . S
U286 C303 2.882 . S
U286 O304 2.441 . S
U286 O305 2.420 . S
U286 O306 2.455 . S
U286 O307 2.449 . S
O287 U286 2.454 . S
O287 C289 1.353 . S
O288 U286 2.458 . S
O288 C289 1.286 . S
C289 U286 2.984 . S
C289 O287 1.353 . S
C289 O288 1.286 . S
C289 C291 1.363 . S
C290 C280 1.465 1_556 S
C290 U286 2.847 . S
C290 O304 1.249 . S
C290 O305 1.202 . S
C291 C289 1.363 . S
C291 C293 1.408 . S
C291 C296 1.342 . S
C292 C293 1.310 . S
C292 C295 1.461 . S
C292 H312 0.932 . S
C293 C291 1.408 . S
C293 C292 1.310 . S
C293 H313 0.930 . S
C294 C295 1.474 . S
C294 C296 1.285 . S
C294 H314 0.929 . S
C295 C292 1.461 . S
C295 C294 1.474 . S
C296 C291 1.342 . S
C296 C294 1.285 . S
C296 H315 0.930 . S
C297 C300 1.424 . S
C297 C302 1.245 . S
C297 C303 1.428 . S
C298 C301 1.260 . S
C298 C302 1.477 . S
C298 H316 0.932 . S
C299 C300 1.384 . S
C299 C301 1.479 . S
C299 H317 0.929 . S
C300 C297 1.424 . S
C300 C299 1.384 . S
C300 H318 0.928 . S
C301 C298 1.260 . S
C301 C299 1.479 . S
C302 C297 1.245 . S
C302 C298 1.477 . S
C302 H319 0.932 . S
C303 U286 2.882 . S
C303 C297 1.428 . S
C303 O306 1.301 . S
C303 O307 1.282 . S
O304 U286 2.441 . S
O304 C290 1.249 . S
O305 U286 2.420 . S
O305 C290 1.202 . S
O306 U286 2.455 . S
O306 C303 1.301 . S
O307 U286 2.449 . S
O307 C303 1.282 . S
H308 C281 0.931 . S
H309 C283 0.929 . S
H310 C284 0.930 . S
H311 C285 0.931 . S
H312 C292 0.932 . S
H313 C293 0.930 . S
H314 C294 0.929 . S
H315 C296 0.930 . S
H316 C298 0.932 . S
H317 C299 0.929 . S
H318 C300 0.928 . S
H319 C302 0.932 . S
C320 C321 1.264 . S
C320 C325 1.479 . S
C320 C330 1.465 . S
C321 C320 1.264 . S
C321 C323 1.339 . S
C321 H348 0.931 . S
C322 C323 1.395 . S
C322 C324 1.320 . S
C323 C321 1.339 . S
C323 C322 1.395 . S
C323 H349 0.929 . S
C324 C322 1.320 . S
C324 C325 1.405 . S
C324 H350 0.930 . S
C325 C320 1.479 . S
C325 C324 1.405 . S
C325 H351 0.931 . S
U326 O327 2.454 1_655 S
U326 O328 2.458 1_655 S
U326 C329 2.984 1_655 S
U326 C330 2.847 . S
U326 C343 2.882 . S
U326 O344 2.441 . S
U326 O345 2.420 . S
U326 O346 2.455 . S
U326 O347 2.449 . S
O327 U326 2.454 1_455 S
O327 C329 1.353 . S
O328 U326 2.458 1_455 S
O328 C329 1.286 . S
C329 U326 2.984 1_455 S
C329 O327 1.353 . S
C329 O328 1.286 . S
C329 C331 1.363 . S
C330 C320 1.465 . S
C330 U326 2.847 . S
C330 O344 1.249 . S
C330 O345 1.202 . S
C331 C329 1.363 . S
C331 C333 1.408 . S
C331 C336 1.342 1_554 S
C332 C333 1.310 . S
C332 C335 1.461 1_554 S
C332 H352 0.932 . S
C333 C331 1.408 . S
C333 C332 1.310 . S
C333 H353 0.930 . S
C334 C335 1.474 . S
C334 C336 1.285 . S
C334 H354 0.929 . S
C335 C332 1.461 1_556 S
C335 C334 1.474 . S
C336 C331 1.342 1_556 S
C336 C334 1.285 . S
C336 H355 0.930 . S
C337 C340 1.424 . S
C337 C342 1.245 . S
C337 C343 1.428 . S
C338 C341 1.260 . S
C338 C342 1.477 . S
C338 H356 0.932 . S
C339 C340 1.384 . S
C339 C341 1.479 . S
C339 H357 0.929 . S
C340 C337 1.424 . S
C340 C339 1.384 . S
C340 H358 0.928 . S
C341 C338 1.260 . S
C341 C339 1.479 . S
C342 C337 1.245 . S
C342 C338 1.477 . S
C342 H359 0.932 . S
C343 U326 2.882 . S
C343 C337 1.428 . S
C343 O346 1.301 . S
C343 O347 1.282 . S
O344 U326 2.441 . S
O344 C330 1.249 . S
O345 U326 2.420 . S
O345 C330 1.202 . S
O346 U326 2.455 . S
O346 C343 1.301 . S
O347 U326 2.449 . S
O347 C343 1.282 . S
H348 C321 0.931 . S
H349 C323 0.929 . S
H350 C324 0.930 . S
H351 C325 0.931 . S
H352 C332 0.932 . S
H353 C333 0.930 . S
H354 C334 0.929 . S
H355 C336 0.930 . S
H356 C338 0.932 . S
H357 C339 0.929 . S
H358 C340 0.928 . S
H359 C342 0.932 . S
C360 C361 1.264 . S
C360 C365 1.479 . S
C360 C370 1.465 . S
C361 C360 1.264 . S
C361 C363 1.339 . S
C361 H388 0.931 . S
C362 C363 1.395 . S
C362 C364 1.320 . S
C363 C361 1.339 . S
C363 C362 1.395 . S
C363 H389 0.929 . S
C364 C362 1.320 . S
C364 C365 1.405 . S
C364 H390 0.930 . S
C365 C360 1.479 . S
C365 C364 1.405 . S
C365 H391 0.931 . S
U366 O367 2.454 1_565 S
U366 O368 2.458 1_565 S
U366 C369 2.984 1_565 S
U366 C370 2.847 . S
U366 C383 2.882 . S
U366 O384 2.441 . S
U366 O385 2.420 . S
U366 O386 2.455 . S
U366 O387 2.449 . S
O367 U366 2.454 1_545 S
O367 C369 1.353 . S
O368 U366 2.458 1_545 S
O368 C369 1.286 . S
C369 U366 2.984 1_545 S
C369 O367 1.353 . S
C369 O368 1.286 . S
C369 C371 1.363 . S
C370 C360 1.465 . S
C370 U366 2.847 . S
C370 O384 1.249 . S
C370 O385 1.202 . S
C371 C369 1.363 . S
C371 C373 1.408 . S
C371 C376 1.342 . S
C372 C373 1.310 . S
C372 C375 1.461 . S
C372 H392 0.932 . S
C373 C371 1.408 . S
C373 C372 1.310 . S
C373 H393 0.930 . S
C374 C375 1.474 . S
C374 C376 1.285 . S
C374 H394 0.929 . S
C375 C372 1.461 . S
C375 C374 1.474 . S
C376 C371 1.342 . S
C376 C374 1.285 . S
C376 H395 0.930 . S
C377 C380 1.424 . S
C377 C382 1.245 . S
C377 C383 1.428 . S
C378 C381 1.260 . S
C378 C382 1.477 . S
C378 H396 0.932 . S
C379 C380 1.384 . S
C379 C381 1.479 . S
C379 H397 0.929 . S
C380 C377 1.424 . S
C380 C379 1.384 . S
C380 H398 0.928 . S
C381 C378 1.260 . S
C381 C379 1.479 . S
C382 C377 1.245 . S
C382 C378 1.477 . S
C382 H399 0.932 . S
C383 U366 2.882 . S
C383 C377 1.428 . S
C383 O386 1.301 . S
C383 O387 1.282 . S
O384 U366 2.441 . S
O384 C370 1.249 . S
O385 U366 2.420 . S
O385 C370 1.202 . S
O386 U366 2.455 . S
O386 C383 1.301 . S
O387 U366 2.449 . S
O387 C383 1.282 . S
H388 C361 0.931 . S
H389 C363 0.929 . S
H390 C364 0.930 . S
H391 C365 0.931 . S
H392 C372 0.932 . S
H393 C373 0.930 . S
H394 C374 0.929 . S
H395 C376 0.930 . S
H396 C378 0.932 . S
H397 C379 0.929 . S
H398 C380 0.928 . S
H399 C382 0.932 . S
C400 C401 1.264 . S
C400 C405 1.479 . S
C400 C410 1.465 . S
C401 C400 1.264 . S
C401 C403 1.339 . S
C401 H428 0.931 . S
C402 C403 1.395 . S
C402 C404 1.320 . S
C403 C401 1.339 . S
C403 C402 1.395 . S
C403 H429 0.929 . S
C404 C402 1.320 . S
C404 C405 1.405 . S
C404 H430 0.930 . S
C405 C400 1.479 . S
C405 C404 1.405 . S
C405 H431 0.931 . S
U406 O407 2.454 . S
U406 O408 2.458 . S
U406 C409 2.984 . S
U406 C410 2.847 . S
U406 C423 2.882 . S
U406 O424 2.441 . S
U406 O425 2.420 . S
U406 O426 2.455 . S
U406 O427 2.449 . S
O407 U406 2.454 . S
O407 C409 1.353 . S
O408 U406 2.458 . S
O408 C409 1.286 . S
C409 U406 2.984 . S
C409 O407 1.353 . S
C409 O408 1.286 . S
C409 C411 1.363 . S
C410 C400 1.465 . S
C410 U406 2.847 . S
C410 O424 1.249 . S
C410 O425 1.202 . S
C411 C409 1.363 . S
C411 C413 1.408 . S
C411 C416 1.342 . S
C412 C413 1.310 . S
C412 C415 1.461 . S
C412 H432 0.932 . S
C413 C411 1.408 . S
C413 C412 1.310 . S
C413 H433 0.930 . S
C414 C415 1.474 . S
C414 C416 1.285 . S
C414 H434 0.929 . S
C415 C412 1.461 . S
C415 C414 1.474 . S
C416 C411 1.342 . S
C416 C414 1.285 . S
C416 H435 0.930 . S
C417 C420 1.424 . S
C417 C422 1.245 . S
C417 C423 1.428 . S
C418 C421 1.260 . S
C418 C422 1.477 . S
C418 H436 0.932 . S
C419 C420 1.384 . S
C419 C421 1.479 . S
C419 H437 0.929 . S
C420 C417 1.424 . S
C420 C419 1.384 . S
C420 H438 0.928 . S
C421 C418 1.260 . S
C421 C419 1.479 . S
C422 C417 1.245 . S
C422 C418 1.477 . S
C422 H439 0.932 . S
C423 U406 2.882 . S
C423 C417 1.428 . S
C423 O426 1.301 . S
C423 O427 1.282 . S
O424 U406 2.441 . S
O424 C410 1.249 . S
O425 U406 2.420 . S
O425 C410 1.202 . S
O426 U406 2.455 . S
O426 C423 1.301 . S
O427 U406 2.449 . S
O427 C423 1.282 . S
H428 C401 0.931 . S
H429 C403 0.929 . S
H430 C404 0.930 . S
H431 C405 0.931 . S
H432 C412 0.932 . S
H433 C413 0.930 . S
H434 C414 0.929 . S
H435 C416 0.930 . S
H436 C418 0.932 . S
H437 C419 0.929 . S
H438 C420 0.928 . S
H439 C422 0.932 . S
C440 C441 1.264 . S
C440 C445 1.479 . S
C440 C450 1.465 . S
C441 C440 1.264 . S
C441 C443 1.339 . S
C441 H468 0.931 . S
C442 C443 1.395 . S
C442 C444 1.320 . S
C443 C441 1.339 . S
C443 C442 1.395 . S
C443 H469 0.929 . S
C444 C442 1.320 . S
C444 C445 1.405 . S
C444 H470 0.930 . S
C445 C440 1.479 . S
C445 C444 1.405 . S
C445 H471 0.931 . S
U446 O447 2.454 1_455 S
U446 O448 2.458 1_455 S
U446 C449 2.984 1_455 S
U446 C450 2.847 . S
U446 C463 2.882 . S
U446 O464 2.441 . S
U446 O465 2.420 . S
U446 O466 2.455 . S
U446 O467 2.449 . S
O447 U446 2.454 1_655 S
O447 C449 1.353 . S
O448 U446 2.458 1_655 S
O448 C449 1.286 . S
C449 U446 2.984 1_655 S
C449 O447 1.353 . S
C449 O448 1.286 . S
C449 C451 1.363 . S
C450 C440 1.465 . S
C450 U446 2.847 . S
C450 O464 1.249 . S
C450 O465 1.202 . S
C451 C449 1.363 . S
C451 C453 1.408 . S
C451 C456 1.342 . S
C452 C453 1.310 . S
C452 C455 1.461 . S
C452 H472 0.932 . S
C453 C451 1.408 . S
C453 C452 1.310 . S
C453 H473 0.930 . S
C454 C455 1.474 . S
C454 C456 1.285 . S
C454 H474 0.929 . S
C455 C452 1.461 . S
C455 C454 1.474 . S
C456 C451 1.342 . S
C456 C454 1.285 . S
C456 H475 0.930 . S
C457 C460 1.424 . S
C457 C462 1.245 . S
C457 C463 1.428 . S
C458 C461 1.260 . S
C458 C462 1.477 . S
C458 H476 0.932 . S
C459 C460 1.384 . S
C459 C461 1.479 . S
C459 H477 0.929 . S
C460 C457 1.424 . S
C460 C459 1.384 . S
C460 H478 0.928 . S
C461 C458 1.260 . S
C461 C459 1.479 . S
C462 C457 1.245 . S
C462 C458 1.477 . S
C462 H479 0.932 . S
C463 U446 2.882 . S
C463 C457 1.428 . S
C463 O466 1.301 . S
C463 O467 1.282 . S
O464 U446 2.441 . S
O464 C450 1.249 . S
O465 U446 2.420 . S
O465 C450 1.202 . S
O466 U446 2.455 . S
O466 C463 1.301 . S
O467 U446 2.449 . S
O467 C463 1.282 . S
H468 C441 0.931 . S
H469 C443 0.929 . S
H470 C444 0.930 . S
H471 C445 0.931 . S
H472 C452 0.932 . S
H473 C453 0.930 . S
H474 C454 0.929 . S
H475 C456 0.930 . S
H476 C458 0.932 . S
H477 C459 0.929 . S
H478 C460 0.928 . S
H479 C462 0.932 . S
C480 C481 1.363 . S
C480 C486 1.379 . S
C480 N488 1.356 . S
C481 C480 1.363 . S
C481 C487 1.363 . S
C482 C483 1.363 . S
C482 C487 1.379 . S
C482 N489 1.356 . S
C483 C482 1.363 . S
C483 C486 1.363 . S
N484 C486 1.356 . S
N484 H496 0.984 . S
N484 H497 0.985 . S
N485 C487 1.356 . S
N485 H490 0.984 . S
N485 H491 0.985 . S
C486 C480 1.379 . S
C486 C483 1.363 . S
C486 N484 1.356 . S
C487 C481 1.363 . S
C487 C482 1.379 . S
C487 N485 1.356 . S
N488 C480 1.356 . S
N488 H494 0.984 . S
N488 H495 0.984 . S
N489 C482 1.356 . S
N489 H492 0.984 . S
N489 H493 0.985 . S
H490 N485 0.984 . S
H491 N485 0.985 . S
H492 N489 0.984 . S
H493 N489 0.985 . S
H494 N488 0.984 . S
H495 N488 0.984 . S
H496 N484 0.984 . S
H497 N484 0.985 . S
C498 C499 1.363 . S
C498 C504 1.379 . S
C498 N506 1.356 . S
C499 C498 1.363 . S
C499 C505 1.363 . S
C500 C501 1.363 . S
C500 C505 1.379 . S
C500 N507 1.356 . S
C501 C500 1.363 . S
C501 C504 1.363 . S
N502 C504 1.356 . S
N502 H514 0.984 . S
N502 H515 0.985 . S
N503 C505 1.356 . S
N503 H508 0.984 . S
N503 H509 0.985 . S
C504 C498 1.379 . S
C504 C501 1.363 . S
C504 N502 1.356 . S
C505 C499 1.363 . S
C505 C500 1.379 . S
C505 N503 1.356 . S
N506 C498 1.356 . S
N506 H512 0.984 . S
N506 H513 0.984 . S
N507 C500 1.356 . S
N507 H510 0.984 . S
N507 H511 0.985 . S
H508 N503 0.984 . S
H509 N503 0.985 . S
H510 N507 0.984 . S
H511 N507 0.985 . S
H512 N506 0.984 . S
H513 N506 0.984 . S
H514 N502 0.984 . S
H515 N502 0.985 . S
C516 C517 1.363 . S
C516 C522 1.379 . S
C516 N524 1.356 . S
C517 C516 1.363 . S
C517 C523 1.363 . S
C518 C519 1.363 . S
C518 C523 1.379 . S
C518 N525 1.356 . S
C519 C518 1.363 . S
C519 C522 1.363 . S
N520 C522 1.356 . S
N520 H532 0.984 . S
N520 H533 0.985 . S
N521 C523 1.356 . S
N521 H526 0.984 . S
N521 H527 0.985 . S
C522 C516 1.379 . S
C522 C519 1.363 . S
C522 N520 1.356 . S
C523 C517 1.363 . S
C523 C518 1.379 . S
C523 N521 1.356 . S
N524 C516 1.356 . S
N524 H530 0.984 . S
N524 H531 0.984 . S
N525 C518 1.356 . S
N525 H528 0.984 . S
N525 H529 0.985 . S
H526 N521 0.984 . S
H527 N521 0.985 . S
H528 N525 0.984 . S
H529 N525 0.985 . S
H530 N524 0.984 . S
H531 N524 0.984 . S
H532 N520 0.984 . S
H533 N520 0.985 . S
C534 C535 1.363 . S
C534 C540 1.379 . S
C534 N542 1.356 . S
C535 C534 1.363 . S
C535 C541 1.363 . S
C536 C537 1.363 . S
C536 C541 1.379 . S
C536 N543 1.356 . S
C537 C536 1.363 . S
C537 C540 1.363 . S
N538 C540 1.356 . S
N538 H550 0.984 . S
N538 H551 0.985 . S
N539 C541 1.356 . S
N539 H544 0.984 . S
N539 H545 0.985 . S
C540 C534 1.379 . S
C540 C537 1.363 . S
C540 N538 1.356 . S
C541 C535 1.363 . S
C541 C536 1.379 . S
C541 N539 1.356 . S
N542 C534 1.356 . S
N542 H548 0.984 . S
N542 H549 0.984 . S
N543 C536 1.356 . S
N543 H546 0.984 . S
N543 H547 0.985 . S
H544 N539 0.984 . S
H545 N539 0.985 . S
H546 N543 0.984 . S
H547 N543 0.985 . S
H548 N542 0.984 . S
H549 N542 0.984 . S
H550 N538 0.984 . S
H551 N538 0.985 . S
C552 C553 1.363 . S
C552 C558 1.379 . S
C552 N560 1.356 . S
C553 C552 1.363 . S
C553 C559 1.363 . S
C554 C555 1.363 . S
C554 C559 1.379 . S
C554 N561 1.356 . S
C555 C554 1.363 . S
C555 C558 1.363 . S
N556 C558 1.356 . S
N556 H568 0.984 . S
N556 H569 0.985 . S
N557 C559 1.356 . S
N557 H562 0.984 . S
N557 H563 0.985 . S
C558 C552 1.379 . S
C558 C555 1.363 . S
C558 N556 1.356 . S
C559 C553 1.363 . S
C559 C554 1.379 . S
C559 N557 1.356 . S
N560 C552 1.356 . S
N560 H566 0.984 . S
N560 H567 0.984 . S
N561 C554 1.356 . S
N561 H564 0.984 . S
N561 H565 0.985 . S
H562 N557 0.984 . S
H563 N557 0.985 . S
H564 N561 0.984 . S
H565 N561 0.985 . S
H566 N560 0.984 . S
H567 N560 0.984 . S
H568 N556 0.984 . S
H569 N556 0.985 . S
C570 C571 1.363 . S
C570 C576 1.379 . S
C570 N578 1.356 . S
C571 C570 1.363 . S
C571 C577 1.363 . S
C572 C573 1.363 . S
C572 C577 1.379 . S
C572 N579 1.356 . S
C573 C572 1.363 . S
C573 C576 1.363 . S
N574 C576 1.356 . S
N574 H586 0.984 . S
N574 H587 0.985 . S
N575 C577 1.356 . S
N575 H580 0.984 . S
N575 H581 0.985 . S
C576 C570 1.379 . S
C576 C573 1.363 . S
C576 N574 1.356 . S
C577 C571 1.363 . S
C577 C572 1.379 . S
C577 N575 1.356 . S
N578 C570 1.356 . S
N578 H584 0.984 . S
N578 H585 0.984 . S
N579 C572 1.356 . S
N579 H582 0.984 . S
N579 H583 0.985 . S
H580 N575 0.984 . S
H581 N575 0.985 . S
H582 N579 0.984 . S
H583 N579 0.985 . S
H584 N578 0.984 . S
H585 N578 0.984 . S
H586 N574 0.984 . S
H587 N574 0.985 . S
C588 C589 1.363 . S
C588 C594 1.379 . S
C588 N596 1.356 . S
C589 C588 1.363 . S
C589 C595 1.363 . S
C590 C591 1.363 . S
C590 C595 1.379 . S
C590 N597 1.356 . S
C591 C590 1.363 . S
C591 C594 1.363 . S
N592 C594 1.356 . S
N592 H604 0.984 . S
N592 H605 0.985 . S
N593 C595 1.356 . S
N593 H598 0.984 . S
N593 H599 0.985 . S
C594 C588 1.379 . S
C594 C591 1.363 . S
C594 N592 1.356 . S
C595 C589 1.363 . S
C595 C590 1.379 . S
C595 N593 1.356 . S
N596 C588 1.356 . S
N596 H602 0.984 . S
N596 H603 0.984 . S
N597 C590 1.356 . S
N597 H600 0.984 . S
N597 H601 0.985 . S
H598 N593 0.984 . S
H599 N593 0.985 . S
H600 N597 0.984 . S
H601 N597 0.985 . S
H602 N596 0.984 . S
H603 N596 0.984 . S
H604 N592 0.984 . S
H605 N592 0.985 . S
C606 C607 1.363 . S
C606 C612 1.379 . S
C606 N614 1.356 . S
C607 C606 1.363 . S
C607 C613 1.363 . S
C608 C609 1.363 . S
C608 C613 1.379 . S
C608 N615 1.356 . S
C609 C608 1.363 . S
C609 C612 1.363 . S
N610 C612 1.356 . S
N610 H622 0.984 . S
N610 H623 0.985 . S
N611 C613 1.356 . S
N611 H616 0.984 . S
N611 H617 0.985 1_565 S
C612 C606 1.379 . S
C612 C609 1.363 . S
C612 N610 1.356 . S
C613 C607 1.363 . S
C613 C608 1.379 . S
C613 N611 1.356 . S
N614 C606 1.356 . S
N614 H620 0.984 . S
N614 H621 0.984 . S
N615 C608 1.356 . S
N615 H618 0.984 . S
N615 H619 0.985 1_565 S
H616 N611 0.984 . S
H617 N611 0.985 1_545 S
H618 N615 0.984 . S
H619 N615 0.985 1_545 S
H620 N614 0.984 . S
H621 N614 0.984 . S
H622 N610 0.984 . S
H623 N610 0.985 . S
C624 C625 1.363 . S
C624 C630 1.379 . S
C624 N632 1.356 . S
C625 C624 1.363 . S
C625 C631 1.363 . S
C626 C627 1.363 . S
C626 C631 1.379 . S
C626 N633 1.356 . S
C627 C626 1.363 . S
C627 C630 1.363 . S
N628 C630 1.356 . S
N628 H640 0.984 . S
N628 H641 0.985 . S
N629 C631 1.356 . S
N629 H634 0.984 . S
N629 H635 0.985 . S
C630 C624 1.379 . S
C630 C627 1.363 . S
C630 N628 1.356 . S
C631 C625 1.363 . S
C631 C626 1.379 . S
C631 N629 1.356 . S
N632 C624 1.356 . S
N632 H638 0.984 . S
N632 H639 0.984 . S
N633 C626 1.356 . S
N633 H636 0.984 . S
N633 H637 0.985 . S
H634 N629 0.984 . S
H635 N629 0.985 . S
H636 N633 0.984 . S
H637 N633 0.985 . S
H638 N632 0.984 . S
H639 N632 0.984 . S
H640 N628 0.984 . S
H641 N628 0.985 . S
C642 C643 1.363 . S
C642 C648 1.379 . S
C642 N650 1.356 . S
C643 C642 1.363 . S
C643 C649 1.363 . S
C644 C645 1.363 . S
C644 C649 1.379 . S
C644 N651 1.356 1_455 S
C645 C644 1.363 . S
C645 C648 1.363 . S
N646 C648 1.356 . S
N646 H658 0.984 . S
N646 H659 0.985 . S
N647 C649 1.356 1_655 S
N647 H652 0.984 . S
N647 H653 0.985 . S
C648 C642 1.379 . S
C648 C645 1.363 . S
C648 N646 1.356 . S
C649 C643 1.363 . S
C649 C644 1.379 . S
C649 N647 1.356 1_455 S
N650 C642 1.356 . S
N650 H656 0.984 . S
N650 H657 0.984 . S
N651 C644 1.356 1_655 S
N651 H654 0.984 1_655 S
N651 H655 0.985 . S
H652 N647 0.984 . S
H653 N647 0.985 . S
H654 N651 0.984 1_455 S
H655 N651 0.985 . S
H656 N650 0.984 . S
H657 N650 0.984 . S
H658 N646 0.984 . S
H659 N646 0.985 . S
C660 C661 1.363 . S
C660 C666 1.379 . S
C660 N668 1.356 . S
C661 C660 1.363 . S
C661 C667 1.363 . S
C662 C663 1.363 . S
C662 C667 1.379 . S
C662 N669 1.356 . S
C663 C662 1.363 . S
C663 C666 1.363 . S
N664 C666 1.356 . S
N664 H676 0.984 1_545 S
N664 H677 0.985 . S
N665 C667 1.356 . S
N665 H670 0.984 . S
N665 H671 0.985 . S
C666 C660 1.379 . S
C666 C663 1.363 . S
C666 N664 1.356 . S
C667 C661 1.363 . S
C667 C662 1.379 . S
C667 N665 1.356 . S
N668 C660 1.356 . S
N668 H674 0.984 1_545 S
N668 H675 0.984 . S
N669 C662 1.356 . S
N669 H672 0.984 . S
N669 H673 0.985 . S
H670 N665 0.984 . S
H671 N665 0.985 . S
H672 N669 0.984 . S
H673 N669 0.985 . S
H674 N668 0.984 1_565 S
H675 N668 0.984 . S
H676 N664 0.984 1_565 S
H677 N664 0.985 . S
C678 C679 1.363 . S
C678 C684 1.379 . S
C678 N686 1.356 . S
C679 C678 1.363 . S
C679 C685 1.363 . S
C680 C681 1.363 . S
C680 C685 1.379 . S
C680 N687 1.356 . S
C681 C680 1.363 . S
C681 C684 1.363 . S
N682 C684 1.356 . S
N682 H694 0.984 . S
N682 H695 0.985 . S
N683 C685 1.356 . S
N683 H688 0.984 . S
N683 H689 0.985 . S
C684 C678 1.379 . S
C684 C681 1.363 . S
C684 N682 1.356 . S
C685 C679 1.363 . S
C685 C680 1.379 . S
C685 N683 1.356 . S
N686 C678 1.356 . S
N686 H692 0.984 . S
N686 H693 0.984 . S
N687 C680 1.356 . S
N687 H690 0.984 . S
N687 H691 0.985 . S
H688 N683 0.984 . S
H689 N683 0.985 . S
H690 N687 0.984 . S
H691 N687 0.985 . S
H692 N686 0.984 . S
H693 N686 0.984 . S
H694 N682 0.984 . S
H695 N682 0.985 . S
C696 C697 1.363 . S
C696 C702 1.379 . S
C696 N704 1.356 . S
C697 C696 1.363 . S
C697 C703 1.363 1_655 S
C698 C699 1.363 . S
C698 C703 1.379 . S
C698 N705 1.356 . S
C699 C698 1.363 . S
C699 C702 1.363 1_455 S
N700 C702 1.356 . S
N700 H712 0.984 . S
N700 H713 0.985 1_655 S
N701 C703 1.356 . S
N701 H706 0.984 1_455 S
N701 H707 0.985 . S
C702 C696 1.379 . S
C702 C699 1.363 1_655 S
C702 N700 1.356 . S
C703 C697 1.363 1_455 S
C703 C698 1.379 . S
C703 N701 1.356 . S
N704 C696 1.356 . S
N704 H710 0.984 . S
N704 H711 0.984 . S
N705 C698 1.356 . S
N705 H708 0.984 . S
N705 H709 0.985 . S
H706 N701 0.984 1_655 S
H707 N701 0.985 . S
H708 N705 0.984 . S
H709 N705 0.985 . S
H710 N704 0.984 . S
H711 N704 0.984 . S
H712 N700 0.984 . S
H713 N700 0.985 1_455 S
C714 C715 1.363 1_565 S
C714 C720 1.379 . S
C714 N722 1.356 . S
C715 C714 1.363 1_545 S
C715 C721 1.363 . S
C716 C717 1.363 1_545 S
C716 C721 1.379 1_554 S
C716 N723 1.356 . S
C717 C716 1.363 1_565 S
C717 C720 1.363 1_554 S
N718 C720 1.356 1_554 S
N718 H730 0.984 1_554 S
N718 H731 0.985 . S
N719 C721 1.356 . S
N719 H724 0.984 . S
N719 H725 0.985 1_556 S
C720 C714 1.379 . S
C720 C717 1.363 1_556 S
C720 N718 1.356 1_556 S
C721 C715 1.363 . S
C721 C716 1.379 1_556 S
C721 N719 1.356 . S
N722 C714 1.356 . S
N722 H728 0.984 . S
N722 H729 1.002 . S
N723 C716 1.356 . S
N723 H726 0.984 . S
N723 H727 0.985 . S
H724 N719 0.984 . S
H725 N719 0.985 1_554 S
H726 N723 0.984 . S
H727 N723 0.985 . S
H728 N722 0.984 . S
H729 N722 1.002 . S
H730 N718 0.984 1_556 S
H731 N718 0.985 . S
C732 C733 1.363 . S
C732 C738 1.379 . S
C732 N740 1.356 . S
C733 C732 1.363 . S
C733 C739 1.363 . S
C734 C735 1.363 . S
C734 C739 1.379 . S
C734 N741 1.356 . S
C735 C734 1.363 . S
C735 C738 1.363 . S
N736 C738 1.356 . S
N736 H748 0.984 . S
N736 H749 0.985 . S
N737 C739 1.356 . S
N737 H742 0.984 . S
N737 H743 0.985 . S
C738 C732 1.379 . S
C738 C735 1.363 . S
C738 N736 1.356 . S
C739 C733 1.363 . S
C739 C734 1.379 . S
C739 N737 1.356 . S
N740 C732 1.356 . S
N740 H746 0.984 . S
N740 H747 0.984 . S
N741 C734 1.356 . S
N741 H744 0.984 . S
N741 H745 0.985 . S
H742 N737 0.984 . S
H743 N737 0.985 . S
H744 N741 0.984 . S
H745 N741 0.985 . S
H746 N740 0.984 . S
H747 N740 0.984 . S
H748 N736 0.984 . S
H749 N736 0.985 . S
C750 C751 1.363 . S
C750 C756 1.379 . S
C750 N758 1.356 . S
C751 C750 1.363 . S
C751 C757 1.363 1_655 S
C752 C753 1.363 . S
C752 C757 1.379 . S
C752 N759 1.356 . S
C753 C752 1.363 . S
C753 C756 1.363 1_455 S
N754 C756 1.356 . S
N754 H766 0.984 . S
N754 H767 0.997 . S
N755 C757 1.356 . S
N755 H760 0.984 . S
N755 H761 0.985 . S
C756 C750 1.379 . S
C756 C753 1.363 1_655 S
C756 N754 1.356 . S
C757 C751 1.363 1_455 S
C757 C752 1.379 . S
C757 N755 1.356 . S
N758 C750 1.356 . S
N758 H764 0.984 . S
N758 H765 0.984 . S
N759 C752 1.356 . S
N759 H762 0.984 . S
N759 H763 0.985 . S
H760 N755 0.984 . S
H761 N755 0.985 . S
H762 N759 0.984 . S
H763 N759 0.985 . S
H764 N758 0.984 . S
H765 N758 0.984 . S
H766 N754 0.984 . S
H767 N754 0.997 . S
C768 C769 1.363 1_565 S
C768 C774 1.379 . S
C768 N776 1.356 . S
C769 C768 1.363 1_545 S
C769 C775 1.363 . S
C770 C771 1.363 1_545 S
C770 C775 1.379 . S
C770 N777 1.356 . S
C771 C770 1.363 1_565 S
C771 C774 1.363 . S
N772 C774 1.356 . S
N772 H784 0.984 . S
N772 H785 0.985 . S
N773 C775 1.356 . S
N773 H778 0.984 . S
N773 H779 0.985 . S
C774 C768 1.379 . S
C774 C771 1.363 . S
C774 N772 1.356 . S
C775 C769 1.363 . S
C775 C770 1.379 . S
C775 N773 1.356 . S
N776 C768 1.356 . S
N776 H782 0.984 . S
N776 H783 0.984 1_565 S
N777 C770 1.356 . S
N777 H780 0.984 1_545 S
N777 H781 0.985 . S
H778 N773 0.984 . S
H779 N773 0.985 . S
H780 N777 0.984 1_565 S
H781 N777 0.985 . S
H782 N776 0.984 . S
H783 N776 0.984 1_545 S
H784 N772 0.984 . S
H785 N772 0.985 . S
C786 C787 1.363 . S
C786 C792 1.379 . S
C786 N794 1.356 . S
C787 C786 1.363 . S
C787 C793 1.363 . S
C788 C789 1.363 . S
C788 C793 1.379 . S
C788 N795 1.356 . S
C789 C788 1.363 . S
C789 C792 1.363 . S
N790 C792 1.356 . S
N790 H802 0.984 . S
N790 H803 0.985 . S
N791 C793 1.356 . S
N791 H796 0.984 . S
N791 H797 0.985 . S
C792 C786 1.379 . S
C792 C789 1.363 . S
C792 N790 1.356 . S
C793 C787 1.363 . S
C793 C788 1.379 . S
C793 N791 1.356 . S
N794 C786 1.356 . S
N794 H800 0.984 . S
N794 H801 0.984 . S
N795 C788 1.356 . S
N795 H798 0.984 . S
N795 H799 0.985 . S
H796 N791 0.984 . S
H797 N791 0.985 . S
H798 N795 0.984 . S
H799 N795 0.985 . S
H800 N794 0.984 . S
H801 N794 0.984 . S
H802 N790 0.984 . S
H803 N790 0.985 . S
C481 C15 2.331 . S
C483 C415 2.310 . S
C499 C455 1.947 . S
C501 C55 1.943 . S
C517 C255 2.331 . S
C519 C95 2.310 . S
C535 C135 2.331 . S
C537 C295 2.310 . S
C553 C335 1.947 . S
C555 C175 1.943 . S
C571 C215 2.314 . S
C573 C375 2.327 . S
C589 C21 2.145 . S
C591 C341 2.149 . S
C607 C381 2.145 . S
C609 C61 2.149 . S
C625 C101 2.399 . S
C627 C421 2.399 . S
C643 C461 2.149 . S
C645 C141 2.145 . S
C661 C181 2.149 . S
C663 C261 2.145 . S
C679 C221 2.399 . S
C681 C301 2.399 . S
C697 C2 1.919 . S
C699 C442 1.932 . S
C715 C242 1.919 . S
C717 C42 1.932 . S
C733 C82 2.418 . S
C735 C282 2.418 . S
C751 C322 1.934 . S
C753 C122 1.916 . S
C769 C162 1.934 . S
C771 C362 1.917 . S
C787 C402 2.418 . S
C789 C202 2.418 . S
