# Generated by pormake.
# Topology uoh, (4)-cn, num edge types: 1
# Building blocks:
#     Node 0, Type 0, BuildingBlock: CEKHIL_clean_sbu_0, # of connection points: 4
#     Node 1, Type 0, BuildingBlock: CEKHIL_clean_sbu_0, # of connection points: 4
#     Node 2, Type 0, BuildingBlock: CEKHIL_clean_sbu_0, # of connection points: 4
#     Node 3, Type 0, BuildingBlock: CEKHIL_clean_sbu_0, # of connection points: 4
#     Node 4, Type 0, BuildingBlock: CEKHIL_clean_sbu_0, # of connection points: 4
#     Node 5, Type 0, BuildingBlock: CEKHIL_clean_sbu_0, # of connection points: 4
#     Node 6, Type 0, BuildingBlock: CEKHIL_clean_sbu_0, # of connection points: 4
#     Node 7, Type 0, BuildingBlock: CEKHIL_clean_sbu_0, # of connection points: 4
#     Node 8, Type 0, BuildingBlock: CEKHIL_clean_sbu_0, # of connection points: 4
#     Node 9, Type 0, BuildingBlock: CEKHIL_clean_sbu_0, # of connection points: 4
#     Node 10, Type 0, BuildingBlock: CEKHIL_clean_sbu_0, # of connection points: 4
#     Node 11, Type 0, BuildingBlock: CEKHIL_clean_sbu_0, # of connection points: 4
#     Node 12, Type 0, BuildingBlock: CEKHIL_clean_sbu_0, # of connection points: 4
#     Node 13, Type 0, BuildingBlock: CEKHIL_clean_sbu_0, # of connection points: 4
#     Node 14, Type 0, BuildingBlock: CEKHIL_clean_sbu_0, # of connection points: 4
#     Node 15, Type 0, BuildingBlock: CEKHIL_clean_sbu_0, # of connection points: 4
#     Node 16, Type 0, BuildingBlock: CEKHIL_clean_sbu_0, # of connection points: 4
#     Node 17, Type 0, BuildingBlock: CEKHIL_clean_sbu_0, # of connection points: 4
#     Node 18, Type 0, BuildingBlock: CEKHIL_clean_sbu_0, # of connection points: 4
#     Node 19, Type 0, BuildingBlock: CEKHIL_clean_sbu_0, # of connection points: 4
#     Node 20, Type 0, BuildingBlock: CEKHIL_clean_sbu_0, # of connection points: 4
#     Node 21, Type 0, BuildingBlock: CEKHIL_clean_sbu_0, # of connection points: 4
#     Node 22, Type 0, BuildingBlock: CEKHIL_clean_sbu_0, # of connection points: 4
#     Node 23, Type 0, BuildingBlock: CEKHIL_clean_sbu_0, # of connection points: 4
#     Node 24, Type 0, BuildingBlock: CEKHIL_clean_sbu_0, # of connection points: 4
#     Node 25, Type 0, BuildingBlock: CEKHIL_clean_sbu_0, # of connection points: 4
#     Node 26, Type 0, BuildingBlock: CEKHIL_clean_sbu_0, # of connection points: 4
#     Node 27, Type 0, BuildingBlock: CEKHIL_clean_sbu_0, # of connection points: 4
#     Node 28, Type 0, BuildingBlock: CEKHIL_clean_sbu_0, # of connection points: 4
#     Node 29, Type 0, BuildingBlock: CEKHIL_clean_sbu_0, # of connection points: 4
#     Node 30, Type 0, BuildingBlock: CEKHIL_clean_sbu_0, # of connection points: 4
#     Node 31, Type 0, BuildingBlock: CEKHIL_clean_sbu_0, # of connection points: 4
#     Node 32, Type 0, BuildingBlock: CEKHIL_clean_sbu_0, # of connection points: 4
#     Node 33, Type 0, BuildingBlock: CEKHIL_clean_sbu_0, # of connection points: 4
#     Node 34, Type 0, BuildingBlock: CEKHIL_clean_sbu_0, # of connection points: 4
#     Node 35, Type 0, BuildingBlock: CEKHIL_clean_sbu_0, # of connection points: 4
#     Edge 36, Type (0, 0), None
#     Edge 37, Type (0, 0), None
#     Edge 38, Type (0, 0), None
#     Edge 39, Type (0, 0), None
#     Edge 40, Type (0, 0), None
#     Edge 41, Type (0, 0), None
#     Edge 42, Type (0, 0), None
#     Edge 43, Type (0, 0), None
#     Edge 44, Type (0, 0), None
#     Edge 45, Type (0, 0), None
#     Edge 46, Type (0, 0), None
#     Edge 47, Type (0, 0), None
#     Edge 48, Type (0, 0), None
#     Edge 49, Type (0, 0), None
#     Edge 50, Type (0, 0), None
#     Edge 51, Type (0, 0), None
#     Edge 52, Type (0, 0), None
#     Edge 53, Type (0, 0), None
#     Edge 54, Type (0, 0), None
#     Edge 55, Type (0, 0), None
#     Edge 56, Type (0, 0), None
#     Edge 57, Type (0, 0), None
#     Edge 58, Type (0, 0), None
#     Edge 59, Type (0, 0), None
#     Edge 60, Type (0, 0), None
#     Edge 61, Type (0, 0), None
#     Edge 62, Type (0, 0), None
#     Edge 63, Type (0, 0), None
#     Edge 64, Type (0, 0), None
#     Edge 65, Type (0, 0), None
#     Edge 66, Type (0, 0), None
#     Edge 67, Type (0, 0), None
#     Edge 68, Type (0, 0), None
#     Edge 69, Type (0, 0), None
#     Edge 70, Type (0, 0), None
#     Edge 71, Type (0, 0), None
#     Edge 72, Type (0, 0), None
#     Edge 73, Type (0, 0), None
#     Edge 74, Type (0, 0), None
#     Edge 75, Type (0, 0), None
#     Edge 76, Type (0, 0), None
#     Edge 77, Type (0, 0), None
#     Edge 78, Type (0, 0), None
#     Edge 79, Type (0, 0), None
#     Edge 80, Type (0, 0), None
#     Edge 81, Type (0, 0), None
#     Edge 82, Type (0, 0), None
#     Edge 83, Type (0, 0), None
#     Edge 84, Type (0, 0), None
#     Edge 85, Type (0, 0), None
#     Edge 86, Type (0, 0), None
#     Edge 87, Type (0, 0), None
#     Edge 88, Type (0, 0), None
#     Edge 89, Type (0, 0), None
#     Edge 90, Type (0, 0), None
#     Edge 91, Type (0, 0), None
#     Edge 92, Type (0, 0), None
#     Edge 93, Type (0, 0), None
#     Edge 94, Type (0, 0), None
#     Edge 95, Type (0, 0), None
#     Edge 96, Type (0, 0), None
#     Edge 97, Type (0, 0), None
#     Edge 98, Type (0, 0), None
#     Edge 99, Type (0, 0), None
#     Edge 100, Type (0, 0), None
#     Edge 101, Type (0, 0), None
#     Edge 102, Type (0, 0), None
#     Edge 103, Type (0, 0), None
#     Edge 104, Type (0, 0), None
#     Edge 105, Type (0, 0), None
#     Edge 106, Type (0, 0), None
#     Edge 107, Type (0, 0), None
# Relax obj value: 0.083
# Max RMSD: 0.132
# Mean RMSD: 0.132
data_MOF--net-uoh--node1-CEKHIL_clean_sbu_0--edge1-none
_symmetry_space_group_name_H-M    P1
_symmetry_Int_Tables_number       1
_symmetry_cell_setting            triclinic
loop_
_symmetry_equiv_pos_as_xyz
'x, y, z'
_cell_length_a     40.651357
_cell_length_b     40.648663
_cell_length_c     11.521723
_cell_angle_alpha  90.009294
_cell_angle_beta   89.981355
_cell_angle_gamma 119.99439
loop_
_atom_site_label
_atom_site_type_symbol
_atom_site_fract_x
_atom_site_fract_y
_atom_site_fract_z
_atom_type_partial_charge
Co0 Co 0.23126 0.1522 0.18703 0.0
O1 O 0.18222 0.14828 0.20022 0.0
O2 O 0.2366 0.19689 0.26248 0.0
C3 C 0.22521 0.13615 0.99661 0.0
O4 O 0.28718 0.16688 0.1881 0.0
Co5 Co 0.23968 0.08272 0.12896 0.0
O6 O 0.29507 0.11782 0.13717 0.0
C7 C 0.22565 0.09641 0.37258 0.0
C8 C 0.20022 0.18174 0.247 0.0
C9 C 0.30825 0.15199 0.1702 0.0
O10 O 0.22431 0.1261 0.34199 0.0
O11 O 0.22991 0.07482 0.30059 0.0
O12 O 0.23584 0.17049 0.02926 0.0
O13 O 0.21568 0.11134 0.07932 0.0
Co14 Co 0.84025 0.07754 0.18713 0.0
O15 O 0.84416 0.03242 0.2003 0.0
O16 O 0.79556 0.03822 0.26259 0.0
C17 C 0.85631 0.08753 0.99669 0.0
O18 O 0.82558 0.1188 0.1882 0.0
Co19 Co 0.90973 0.15542 0.12905 0.0
O20 O 0.87463 0.17572 0.13716 0.0
C21 C 0.89605 0.12773 0.37266 0.0
C22 C 0.8107 0.01697 0.24711 0.0
C23 C 0.84047 0.15475 0.17023 0.0
O24 O 0.86635 0.0967 0.34208 0.0
O25 O 0.91764 0.15355 0.30067 0.0
O26 O 0.82197 0.06383 0.02935 0.0
O27 O 0.88112 0.10281 0.07939 0.0
Co28 Co 0.91492 0.76118 0.18702 0.0
O29 O 0.96004 0.81021 0.2002 0.0
O30 O 0.95425 0.75582 0.26243 0.0
C31 C 0.90493 0.76725 0.99661 0.0
O32 O 0.87366 0.70526 0.1881 0.0
Co33 Co 0.83705 0.75281 0.12907 0.0
O34 O 0.81674 0.69741 0.13722 0.0
C35 C 0.86474 0.76681 0.37265 0.0
C36 C 0.97549 0.7922 0.24698 0.0
C37 C 0.83771 0.68421 0.17022 0.0
O38 O 0.89577 0.76813 0.34202 0.0
O39 O 0.83892 0.76258 0.3007 0.0
O40 O 0.92863 0.75661 0.02922 0.0
O41 O 0.88965 0.77679 0.07936 0.0
Co42 Co 0.15068 0.23276 0.33948 0.0
O43 O 0.14677 0.18372 0.3263 0.0
O44 O 0.19537 0.23811 0.26401 0.0
C45 C 0.13463 0.2267 0.52992 0.0
O46 O 0.16536 0.28869 0.33841 0.0
Co47 Co 0.08121 0.24118 0.39759 0.0
O48 O 0.11631 0.29657 0.38944 0.0
C49 C 0.09489 0.22716 0.15396 0.0
C50 C 0.18023 0.20173 0.2795 0.0
C51 C 0.15048 0.30976 0.35637 0.0
O52 O 0.12458 0.22582 0.18453 0.0
O53 O 0.0733 0.2314 0.22597 0.0
O54 O 0.16897 0.23734 0.49725 0.0
O55 O 0.10982 0.21717 0.44722 0.0
Co56 Co 0.75967 0.91642 0.33959 0.0
O57 O 0.80871 0.96154 0.3264 0.0
O58 O 0.75433 0.95577 0.26417 0.0
C59 C 0.76573 0.90642 0.53 0.0
O60 O 0.70375 0.87517 0.33852 0.0
Co61 Co 0.75128 0.83854 0.39759 0.0
O62 O 0.69589 0.81823 0.38938 0.0
C63 C 0.76529 0.86624 0.15398 0.0
C64 C 0.79071 0.977 0.27963 0.0
C65 C 0.68269 0.83921 0.35638 0.0
O66 O 0.76663 0.89727 0.1846 0.0
O67 O 0.76105 0.8404 0.22595 0.0
O68 O 0.75509 0.93013 0.49738 0.0
O69 O 0.77526 0.89114 0.44726 0.0
Co70 Co 0.07602 0.84174 0.3395 0.0
O71 O 0.0309 0.84564 0.32632 0.0
O72 O 0.0367 0.79704 0.26406 0.0
C73 C 0.08601 0.8578 0.52992 0.0
O74 O 0.11729 0.82708 0.33841 0.0
Co75 Co 0.15389 0.91124 0.39749 0.0
O76 O 0.1742 0.87614 0.38938 0.0
C77 C 0.1262 0.89755 0.1539 0.0
C78 C 0.01546 0.81218 0.27953 0.0
C79 C 0.15323 0.84197 0.35636 0.0
O80 O 0.09518 0.86784 0.18452 0.0
O81 O 0.15202 0.91914 0.22587 0.0
O82 O 0.06231 0.82346 0.49729 0.0
O83 O 0.10129 0.88261 0.44719 0.0
Co84 Co 0.75968 0.84175 0.83955 0.0
O85 O 0.80872 0.84567 0.82637 0.0
O86 O 0.75434 0.79707 0.7641 0.0
C87 C 0.76572 0.8578 0.02997 0.0
O88 O 0.70376 0.82708 0.83847 0.0
Co89 Co 0.75126 0.91123 0.89762 0.0
O90 O 0.69587 0.87614 0.8894 0.0
C91 C 0.7653 0.89756 0.654 0.0
C92 C 0.79072 0.81221 0.77958 0.0
C93 C 0.68269 0.84197 0.85636 0.0
O94 O 0.76664 0.86786 0.68459 0.0
O95 O 0.76104 0.91914 0.72599 0.0
O96 O 0.75509 0.82346 0.99732 0.0
O97 O 0.77526 0.88262 0.94726 0.0
Co98 Co 0.1507 0.91642 0.83945 0.0
O99 O 0.14679 0.96154 0.82629 0.0
O100 O 0.19539 0.95574 0.76398 0.0
C101 C 0.13464 0.90642 0.02989 0.0
O102 O 0.16536 0.87516 0.83836 0.0
Co103 Co 0.08121 0.83854 0.89752 0.0
O104 O 0.11631 0.81824 0.8894 0.0
C105 C 0.09489 0.86624 0.65392 0.0
C106 C 0.18025 0.97699 0.77947 0.0
C107 C 0.15048 0.83921 0.85633 0.0
O108 O 0.12459 0.89726 0.6845 0.0
O109 O 0.0733 0.84041 0.72591 0.0
O110 O 0.16898 0.93013 0.99723 0.0
O111 O 0.10983 0.89115 0.94719 0.0
Co112 Co 0.07602 0.23278 0.83955 0.0
O113 O 0.0309 0.18375 0.82639 0.0
O114 O 0.03669 0.23815 0.76414 0.0
C115 C 0.08602 0.22672 0.02997 0.0
O116 O 0.11728 0.2887 0.83846 0.0
Co117 Co 0.15389 0.24115 0.89751 0.0
O118 O 0.17421 0.29655 0.88934 0.0
C119 C 0.12619 0.22714 0.65393 0.0
C120 C 0.01545 0.20176 0.7796 0.0
C121 C 0.15324 0.30976 0.85634 0.0
O122 O 0.09517 0.22583 0.68456 0.0
O123 O 0.15202 0.23137 0.72588 0.0
O124 O 0.06231 0.23736 0.99736 0.0
O125 O 0.10129 0.21718 0.94723 0.0
Co126 Co 0.84025 0.76119 0.6871 0.0
O127 O 0.84417 0.81023 0.70028 0.0
O128 O 0.79557 0.75585 0.76258 0.0
C129 C 0.85631 0.76725 0.49667 0.0
O130 O 0.82558 0.70527 0.68819 0.0
Co131 Co 0.90973 0.75278 0.629 0.0
O132 O 0.87463 0.69738 0.63716 0.0
C133 C 0.89606 0.76682 0.87262 0.0
C134 C 0.81071 0.79223 0.74708 0.0
C135 C 0.84046 0.6842 0.67023 0.0
O136 O 0.86636 0.76814 0.84205 0.0
O137 O 0.91764 0.76256 0.80061 0.0
O138 O 0.82197 0.75662 0.52934 0.0
O139 O 0.88112 0.77678 0.57936 0.0
Co140 Co 0.23127 0.07754 0.687 0.0
O141 O 0.18224 0.03242 0.70017 0.0
O142 O 0.23662 0.03819 0.76242 0.0
C143 C 0.22522 0.08754 0.49659 0.0
O144 O 0.28719 0.11879 0.68808 0.0
Co145 Co 0.23967 0.15542 0.629 0.0
O146 O 0.29506 0.17573 0.63723 0.0
C147 C 0.22564 0.12771 0.8726 0.0
C148 C 0.20024 0.01696 0.74695 0.0
C149 C 0.30825 0.15475 0.67022 0.0
O150 O 0.22431 0.09669 0.84198 0.0
O151 O 0.22989 0.15355 0.80064 0.0
O152 O 0.23586 0.06383 0.52921 0.0
O153 O 0.21568 0.10282 0.57932 0.0
Co154 Co 0.91492 0.15222 0.68709 0.0
O155 O 0.96004 0.14832 0.70025 0.0
O156 O 0.95424 0.19692 0.76253 0.0
C157 C 0.90493 0.13616 0.49667 0.0
O158 O 0.87365 0.16688 0.68819 0.0
Co159 Co 0.83705 0.08273 0.6291 0.0
O160 O 0.81674 0.11782 0.63722 0.0
C161 C 0.86475 0.09641 0.87268 0.0
C162 C 0.97549 0.18178 0.74705 0.0
C163 C 0.83771 0.15199 0.67025 0.0
O164 O 0.89576 0.12612 0.84207 0.0
O165 O 0.83892 0.07481 0.80071 0.0
O166 O 0.92863 0.17051 0.5293 0.0
O167 O 0.88965 0.11135 0.57939 0.0
Co168 Co 0.89793 0.48554 0.52036 0.0
O169 O 0.84889 0.48161 0.53355 0.0
O170 O 0.90327 0.53022 0.59581 0.0
C171 C 0.89188 0.46948 0.32994 0.0
O172 O 0.95385 0.50021 0.52143 0.0
Co173 Co 0.90634 0.41606 0.46229 0.0
O174 O 0.96173 0.45115 0.4705 0.0
C175 C 0.89232 0.42974 0.70592 0.0
C176 C 0.86689 0.51508 0.58034 0.0
C177 C 0.97492 0.48532 0.50353 0.0
O178 O 0.89098 0.45943 0.67533 0.0
O179 O 0.89658 0.40816 0.63392 0.0
O180 O 0.90251 0.50383 0.36259 0.0
O181 O 0.88235 0.44467 0.41265 0.0
Co182 Co 0.50692 0.41087 0.52046 0.0
O183 O 0.51083 0.36575 0.53364 0.0
O184 O 0.46222 0.37155 0.59593 0.0
C185 C 0.52298 0.42087 0.33002 0.0
O186 O 0.49225 0.45213 0.52153 0.0
Co187 Co 0.5764 0.48875 0.46239 0.0
O188 O 0.5413 0.50905 0.47049 0.0
C189 C 0.56272 0.46106 0.706 0.0
C190 C 0.47736 0.3503 0.58044 0.0
C191 C 0.50713 0.48808 0.50356 0.0
O192 O 0.53302 0.43003 0.67542 0.0
O193 O 0.58431 0.48689 0.634 0.0
O194 O 0.48864 0.39716 0.36268 0.0
O195 O 0.54778 0.43614 0.41273 0.0
Co196 Co 0.58159 0.09451 0.52036 0.0
O197 O 0.62671 0.14354 0.53353 0.0
O198 O 0.62092 0.08915 0.59576 0.0
C199 C 0.5716 0.10058 0.32995 0.0
O200 O 0.54033 0.03859 0.52143 0.0
Co201 Co 0.50372 0.08614 0.4624 0.0
O202 O 0.4834 0.03074 0.47056 0.0
C203 C 0.53141 0.10014 0.70599 0.0
C204 C 0.64216 0.12553 0.58031 0.0
C205 C 0.50437 0.01754 0.50355 0.0
O206 O 0.56243 0.10146 0.67535 0.0
O207 O 0.50558 0.09591 0.63403 0.0
O208 O 0.5953 0.08994 0.36255 0.0
O209 O 0.55632 0.11012 0.41269 0.0
Co210 Co 0.81735 0.56609 0.67282 0.0
O211 O 0.81343 0.51706 0.65963 0.0
O212 O 0.86204 0.57144 0.59734 0.0
C213 C 0.80129 0.56004 0.86325 0.0
O214 O 0.83203 0.62202 0.67175 0.0
Co215 Co 0.74788 0.57451 0.73093 0.0
O216 O 0.78298 0.62991 0.72277 0.0
C217 C 0.76156 0.56049 0.4873 0.0
C218 C 0.8469 0.53506 0.61283 0.0
C219 C 0.81714 0.64309 0.68971 0.0
O220 O 0.79125 0.55915 0.51787 0.0
O221 O 0.73997 0.56474 0.5593 0.0
O222 O 0.83563 0.57067 0.83058 0.0
O223 O 0.77648 0.55051 0.78055 0.0
Co224 Co 0.42634 0.24976 0.67292 0.0
O225 O 0.47537 0.29487 0.65974 0.0
O226 O 0.42099 0.2891 0.59751 0.0
C227 C 0.4324 0.23976 0.86333 0.0
O228 O 0.37042 0.2085 0.67185 0.0
Co229 Co 0.41795 0.17187 0.73092 0.0
O230 O 0.36255 0.15156 0.72271 0.0
C231 C 0.43196 0.19957 0.48732 0.0
C232 C 0.45737 0.31033 0.61297 0.0
C233 C 0.34936 0.17255 0.68972 0.0
O234 O 0.43329 0.2306 0.51794 0.0
O235 O 0.42771 0.17374 0.55928 0.0
O236 O 0.42176 0.26346 0.83071 0.0
O237 O 0.44193 0.22448 0.7806 0.0
Co238 Co 0.74269 0.17507 0.67283 0.0
O239 O 0.69757 0.17898 0.65966 0.0
O240 O 0.70337 0.13038 0.59739 0.0
C241 C 0.75268 0.19114 0.86325 0.0
O242 O 0.78395 0.16041 0.67175 0.0
Co243 Co 0.82056 0.24457 0.73082 0.0
O244 O 0.84087 0.20948 0.72272 0.0
C245 C 0.79287 0.23088 0.48724 0.0
C246 C 0.68212 0.14552 0.61286 0.0
C247 C 0.8199 0.1753 0.68969 0.0
O248 O 0.76185 0.20117 0.51785 0.0
O249 O 0.81869 0.25248 0.5592 0.0
O250 O 0.72898 0.15679 0.83062 0.0
O251 O 0.76795 0.21594 0.78052 0.0
Co252 Co 0.42634 0.17509 0.17288 0.0
O253 O 0.47538 0.17901 0.1597 0.0
O254 O 0.42101 0.1304 0.09743 0.0
C255 C 0.43239 0.19114 0.3633 0.0
O256 O 0.37042 0.16041 0.1718 0.0
Co257 Co 0.41793 0.24457 0.23095 0.0
O258 O 0.36254 0.20947 0.22273 0.0
C259 C 0.43197 0.23089 0.98733 0.0
C260 C 0.45738 0.14555 0.11291 0.0
C261 C 0.34936 0.1753 0.1897 0.0
O262 O 0.4333 0.20119 0.01792 0.0
O263 O 0.42771 0.25247 0.05932 0.0
O264 O 0.42176 0.15679 0.33065 0.0
O265 O 0.44192 0.21595 0.2806 0.0
Co266 Co 0.81736 0.24975 0.17279 0.0
O267 O 0.81345 0.29488 0.15962 0.0
O268 O 0.86205 0.28908 0.09732 0.0
C269 C 0.8013 0.23975 0.36322 0.0
O270 O 0.83203 0.20849 0.1717 0.0
Co271 Co 0.74788 0.17187 0.23085 0.0
O272 O 0.78298 0.15157 0.22274 0.0
C273 C 0.76155 0.19958 0.98725 0.0
C274 C 0.84692 0.31032 0.11281 0.0
C275 C 0.81715 0.17254 0.18967 0.0
O276 O 0.79126 0.23059 0.01783 0.0
O277 O 0.73996 0.17375 0.05925 0.0
O278 O 0.83565 0.26346 0.33056 0.0
O279 O 0.7765 0.22448 0.28052 0.0
Co280 Co 0.74269 0.56612 0.17289 0.0
O281 O 0.69757 0.51709 0.15972 0.0
O282 O 0.70336 0.57148 0.09748 0.0
C283 C 0.75268 0.56005 0.3633 0.0
O284 O 0.78395 0.62204 0.1718 0.0
Co285 Co 0.82056 0.57449 0.23084 0.0
O286 O 0.84087 0.62989 0.22267 0.0
C287 C 0.79286 0.56047 0.98727 0.0
C288 C 0.68212 0.5351 0.11294 0.0
C289 C 0.8199 0.64309 0.18968 0.0
O290 O 0.76184 0.55916 0.0179 0.0
O291 O 0.81869 0.5647 0.05922 0.0
O292 O 0.72898 0.5707 0.33069 0.0
O293 O 0.76796 0.55051 0.28056 0.0
Co294 Co 0.50692 0.09453 0.02044 0.0
O295 O 0.51084 0.14357 0.03361 0.0
O296 O 0.46224 0.08918 0.09591 0.0
C297 C 0.52298 0.10058 0.83 0.0
O298 O 0.49225 0.0386 0.02152 0.0
Co299 Co 0.5764 0.08611 0.96233 0.0
O300 O 0.5413 0.03072 0.9705 0.0
C301 C 0.56272 0.10015 0.20595 0.0
C302 C 0.47737 0.12556 0.08042 0.0
C303 C 0.50713 0.01753 1.00357 0.0
O304 O 0.53303 0.10148 0.17538 0.0
O305 O 0.58431 0.0959 0.13394 0.0
O306 O 0.48863 0.08995 0.86268 0.0
O307 O 0.54779 0.11011 0.91269 0.0
Co308 Co 0.89794 0.41087 0.02033 0.0
O309 O 0.8489 0.36575 0.0335 0.0
O310 O 0.90329 0.37153 0.09575 0.0
C311 C 0.89189 0.42087 0.82992 0.0
O312 O 0.95386 0.45213 0.02142 0.0
Co313 Co 0.90633 0.48876 0.96234 0.0
O314 O 0.96173 0.50906 0.97056 0.0
C315 C 0.89231 0.46105 0.20593 0.0
C316 C 0.86691 0.35029 0.08028 0.0
C317 C 0.97492 0.48808 1.00356 0.0
O318 O 0.89098 0.43002 0.17531 0.0
O319 O 0.89655 0.48688 0.13397 0.0
O320 O 0.90253 0.39716 0.86254 0.0
O321 O 0.88235 0.43615 0.91265 0.0
Co322 Co 0.58158 0.48556 0.02042 0.0
O323 O 0.62671 0.48165 0.03358 0.0
O324 O 0.62091 0.53025 0.09586 0.0
C325 C 0.57159 0.4695 0.83 0.0
O326 O 0.54032 0.50022 0.02152 0.0
Co327 Co 0.50372 0.41606 0.96243 0.0
O328 O 0.48341 0.45115 0.97055 0.0
C329 C 0.53142 0.42974 0.20601 0.0
C330 C 0.64215 0.51511 0.08039 0.0
C331 C 0.50437 0.48532 1.00358 0.0
O332 O 0.56243 0.45945 0.1754 0.0
O333 O 0.50559 0.40815 0.13404 0.0
O334 O 0.5953 0.50384 0.86263 0.0
O335 O 0.55632 0.44469 0.91272 0.0
Co336 Co 0.56459 0.81887 0.8537 0.0
O337 O 0.51556 0.81495 0.86689 0.0
O338 O 0.56993 0.86356 0.92915 0.0
C339 C 0.55854 0.80282 0.66328 0.0
O340 O 0.62052 0.83354 0.85476 0.0
Co341 Co 0.57301 0.74939 0.79562 0.0
O342 O 0.6284 0.78448 0.80383 0.0
C343 C 0.55899 0.76308 0.03925 0.0
C344 C 0.53356 0.84841 0.91367 0.0
C345 C 0.64158 0.81865 0.83686 0.0
O346 O 0.55764 0.79277 1.00866 0.0
O347 O 0.56324 0.74149 0.96726 0.0
O348 O 0.56918 0.83716 0.69593 0.0
O349 O 0.54901 0.778 0.74599 0.0
Co350 Co 0.17358 0.74421 0.85379 0.0
O351 O 0.17749 0.69908 0.86697 0.0
O352 O 0.12889 0.70488 0.92926 0.0
C353 C 0.18964 0.7542 0.66336 0.0
O354 O 0.15891 0.78547 0.85487 0.0
Co355 Co 0.24307 0.82209 0.79572 0.0
O356 O 0.20797 0.84239 0.80382 0.0
C357 C 0.22938 0.79439 0.03933 0.0
C358 C 0.14403 0.68364 0.91378 0.0
C359 C 0.1738 0.82141 0.83689 0.0
O360 O 0.19968 0.76337 1.00875 0.0
O361 O 0.25097 0.82022 0.96733 0.0
O362 O 0.1553 0.73049 0.69602 0.0
O363 O 0.21445 0.76948 0.74606 0.0
Co364 Co 0.24826 0.42785 0.85369 0.0
O365 O 0.29338 0.47688 0.86687 0.0
O366 O 0.28758 0.42248 0.9291 0.0
C367 C 0.23826 0.43392 0.66328 0.0
O368 O 0.20699 0.37192 0.85477 0.0
Co369 Co 0.17038 0.41948 0.79573 0.0
O370 O 0.15007 0.36408 0.80389 0.0
C371 C 0.19808 0.43348 0.03932 0.0
C372 C 0.30883 0.45887 0.91365 0.0
C373 C 0.17104 0.35087 0.83688 0.0
O374 O 0.2291 0.4348 1.00868 0.0
O375 O 0.17225 0.42925 0.96736 0.0
O376 O 0.26197 0.42327 0.69589 0.0
O377 O 0.22299 0.44345 0.74602 0.0
Co378 Co 0.48402 0.89943 1.00615 0.0
O379 O 0.4801 0.85039 0.99296 0.0
O380 O 0.5287 0.90478 0.93068 0.0
C381 C 0.46796 0.89337 0.19658 0.0
O382 O 0.49869 0.95535 1.00508 0.0
Co383 Co 0.41454 0.90784 0.06426 0.0
O384 O 0.44964 0.96324 0.05611 0.0
C385 C 0.42822 0.89382 0.82063 0.0
C386 C 0.51356 0.8684 0.94617 0.0
C387 C 0.48381 0.97642 0.02304 0.0
O388 O 0.45792 0.89248 0.8512 0.0
O389 O 0.40664 0.89807 0.89264 0.0
O390 O 0.5023 0.904 0.16391 0.0
O391 O 0.44315 0.88384 0.11389 0.0
Co392 Co 0.09301 0.58309 1.00626 0.0
O393 O 0.14204 0.62821 0.99307 0.0
O394 O 0.08766 0.62243 0.93084 0.0
C395 C 0.09906 0.57309 0.19667 0.0
O396 O 0.03709 0.54184 1.00519 0.0
Co397 Co 0.08461 0.5052 0.06425 0.0
O398 O 0.02922 0.4849 0.05605 0.0
C399 C 0.09862 0.53291 0.82065 0.0
C400 C 0.12404 0.64367 0.9463 0.0
C401 C 0.01603 0.50588 0.02305 0.0
O402 O 0.09996 0.56394 0.85127 0.0
O403 O 0.09438 0.50707 0.89261 0.0
O404 O 0.08843 0.5968 0.16405 0.0
O405 O 0.1086 0.55781 0.11393 0.0
Co406 Co 0.40936 0.5084 1.00616 0.0
O407 O 0.36423 0.51231 0.99299 0.0
O408 O 0.37003 0.46371 0.93073 0.0
C409 C 0.41934 0.52447 0.19658 0.0
O410 O 0.45062 0.49374 1.00508 0.0
Co411 Co 0.48723 0.5779 0.06416 0.0
O412 O 0.50753 0.54281 0.05605 0.0
C413 C 0.45953 0.56421 0.82057 0.0
C414 C 0.34879 0.47885 0.9462 0.0
C415 C 0.48657 0.50864 0.02303 0.0
O416 O 0.42852 0.53451 0.85118 0.0
O417 O 0.48536 0.58581 0.89254 0.0
O418 O 0.39564 0.49012 0.16396 0.0
O419 O 0.43462 0.54928 0.11386 0.0
Co420 Co 0.09301 0.50842 0.50621 0.0
O421 O 0.14205 0.51234 0.49304 0.0
O422 O 0.08767 0.46373 0.43076 0.0
C423 C 0.09906 0.52447 0.69664 0.0
O424 O 0.03709 0.49375 0.50513 0.0
Co425 Co 0.0846 0.5779 0.56428 0.0
O426 O 0.02921 0.54281 0.55606 0.0
C427 C 0.09863 0.56422 0.32067 0.0
C428 C 0.12405 0.47888 0.44625 0.0
C429 C 0.01602 0.50864 0.52303 0.0
O430 O 0.09997 0.53453 0.35125 0.0
O431 O 0.09438 0.58581 0.39266 0.0
O432 O 0.08842 0.49013 0.66398 0.0
O433 O 0.10859 0.54929 0.61393 0.0
Co434 Co 0.48403 0.58308 0.50612 0.0
O435 O 0.48012 0.62821 0.49295 0.0
O436 O 0.52872 0.62241 0.43065 0.0
C437 C 0.46797 0.57309 0.69656 0.0
O438 O 0.4987 0.54183 0.50503 0.0
Co439 Co 0.41454 0.50521 0.56419 0.0
O440 O 0.44964 0.4849 0.55607 0.0
C441 C 0.42822 0.53291 0.32059 0.0
C442 C 0.51358 0.64366 0.44614 0.0
C443 C 0.48381 0.50588 0.523 0.0
O444 O 0.45793 0.56393 0.35117 0.0
O445 O 0.40663 0.50708 0.39258 0.0
O446 O 0.50231 0.5968 0.66389 0.0
O447 O 0.44316 0.55781 0.61386 0.0
Co448 Co 0.40935 0.89945 0.50622 0.0
O449 O 0.36423 0.85042 0.49306 0.0
O450 O 0.37002 0.90481 0.43081 0.0
C451 C 0.41935 0.89339 0.69663 0.0
O452 O 0.45062 0.95537 0.50513 0.0
Co453 Co 0.48723 0.90782 0.56418 0.0
O454 O 0.50754 0.96322 0.55601 0.0
C455 C 0.45952 0.8938 0.3206 0.0
C456 C 0.34878 0.86843 0.44627 0.0
C457 C 0.48657 0.97642 0.52301 0.0
O458 O 0.42851 0.89249 0.35123 0.0
O459 O 0.48535 0.89804 0.39255 0.0
O460 O 0.39565 0.90403 0.66402 0.0
O461 O 0.43462 0.88385 0.61389 0.0
Co462 Co 0.17359 0.42786 0.35377 0.0
O463 O 0.1775 0.4769 0.36695 0.0
O464 O 0.1289 0.42251 0.42925 0.0
C465 C 0.18964 0.43391 0.16334 0.0
O466 O 0.15891 0.37194 0.35485 0.0
Co467 Co 0.24306 0.41945 0.29566 0.0
O468 O 0.20796 0.36405 0.30383 0.0
C469 C 0.22939 0.43348 0.53928 0.0
C470 C 0.14404 0.45889 0.41375 0.0
C471 C 0.1738 0.35087 0.3369 0.0
O472 O 0.19969 0.43481 0.50872 0.0
O473 O 0.25098 0.42923 0.46728 0.0
O474 O 0.1553 0.42328 0.19601 0.0
O475 O 0.21445 0.44344 0.24603 0.0
Co476 Co 0.56461 0.7442 0.35366 0.0
O477 O 0.51557 0.69909 0.36684 0.0
O478 O 0.56995 0.70486 0.42908 0.0
C479 C 0.55856 0.75421 0.16325 0.0
O480 O 0.62053 0.78546 0.35475 0.0
Co481 Co 0.573 0.82209 0.29567 0.0
O482 O 0.62839 0.8424 0.30389 0.0
C483 C 0.55897 0.79438 0.53926 0.0
C484 C 0.53357 0.68363 0.41362 0.0
C485 C 0.64159 0.82142 0.33689 0.0
O486 O 0.55765 0.76335 0.50865 0.0
O487 O 0.56322 0.82022 0.4673 0.0
O488 O 0.56919 0.7305 0.19587 0.0
O489 O 0.54902 0.76948 0.24598 0.0
Co490 Co 0.24825 0.81889 0.35376 0.0
O491 O 0.29338 0.81499 0.36692 0.0
O492 O 0.28757 0.86358 0.4292 0.0
C493 C 0.23826 0.80283 0.16333 0.0
O494 O 0.20699 0.83355 0.35485 0.0
Co495 Co 0.17038 0.74939 0.29577 0.0
O496 O 0.15007 0.78449 0.30388 0.0
C497 C 0.19808 0.76307 0.53934 0.0
C498 C 0.30882 0.84845 0.41372 0.0
C499 C 0.17104 0.81866 0.33691 0.0
O500 O 0.2291 0.79279 0.50873 0.0
O501 O 0.17226 0.74148 0.46738 0.0
O502 O 0.26196 0.83717 0.19596 0.0
O503 O 0.22299 0.77802 0.24606 0.0
loop_
_geom_bond_atom_site_label_1
_geom_bond_atom_site_label_2
_geom_bond_distance
_geom_bond_site_symmetry_2
_ccdc_geom_bond_type
Co0 O1 2.216 . S
Co0 O2 2.091 . S
Co0 O4 2.004 . S
Co0 O10 2.021 . S
Co0 O12 2.137 . S
Co0 O13 2.244 . S
O1 Co0 2.216 . S
O1 C8 1.247 . S
O2 Co0 2.091 . S
O2 C8 1.261 . S
C3 O12 1.247 . S
C3 O13 1.272 . S
O4 Co0 2.004 . S
O4 C9 1.259 . S
Co5 O6 2.061 . S
Co5 O11 2.052 . S
Co5 O13 2.135 . S
O6 Co5 2.061 . S
O6 C9 1.235 . S
C7 O10 1.238 . S
C7 O11 1.241 . S
C8 O1 1.247 . S
C8 O2 1.261 . S
C9 O4 1.259 . S
C9 O6 1.235 . S
O10 Co0 2.021 . S
O10 C7 1.238 . S
O11 Co5 2.052 . S
O11 C7 1.241 . S
O12 Co0 2.137 . S
O12 C3 1.247 . S
O13 Co0 2.244 . S
O13 C3 1.272 . S
O13 Co5 2.135 . S
Co14 O15 2.216 . S
Co14 O16 2.091 . S
Co14 O18 2.004 . S
Co14 O24 2.021 . S
Co14 O26 2.137 . S
Co14 O27 2.244 . S
O15 Co14 2.216 . S
O15 C22 1.247 . S
O16 Co14 2.091 . S
O16 C22 1.261 . S
C17 O26 1.247 . S
C17 O27 1.272 . S
O18 Co14 2.004 . S
O18 C23 1.259 . S
Co19 O20 2.061 . S
Co19 O25 2.052 . S
Co19 O27 2.135 . S
O20 Co19 2.061 . S
O20 C23 1.235 . S
C21 O24 1.238 . S
C21 O25 1.241 . S
C22 O15 1.247 . S
C22 O16 1.261 . S
C23 O18 1.259 . S
C23 O20 1.235 . S
O24 Co14 2.021 . S
O24 C21 1.238 . S
O25 Co19 2.052 . S
O25 C21 1.241 . S
O26 Co14 2.137 . S
O26 C17 1.247 . S
O27 Co14 2.244 . S
O27 C17 1.272 . S
O27 Co19 2.135 . S
Co28 O29 2.216 . S
Co28 O30 2.091 . S
Co28 O32 2.004 . S
Co28 O38 2.021 . S
Co28 O40 2.137 . S
Co28 O41 2.244 . S
O29 Co28 2.216 . S
O29 C36 1.247 . S
O30 Co28 2.091 . S
O30 C36 1.261 . S
C31 O40 1.247 . S
C31 O41 1.272 . S
O32 Co28 2.004 . S
O32 C37 1.259 . S
Co33 O34 2.061 . S
Co33 O39 2.052 . S
Co33 O41 2.135 . S
O34 Co33 2.061 . S
O34 C37 1.235 . S
C35 O38 1.238 . S
C35 O39 1.241 . S
C36 O29 1.247 . S
C36 O30 1.261 . S
C37 O32 1.259 . S
C37 O34 1.235 . S
O38 Co28 2.021 . S
O38 C35 1.238 . S
O39 Co33 2.052 . S
O39 C35 1.241 . S
O40 Co28 2.137 . S
O40 C31 1.247 . S
O41 Co28 2.244 . S
O41 C31 1.272 . S
O41 Co33 2.135 . S
Co42 O43 2.216 . S
Co42 O44 2.091 . S
Co42 O46 2.004 . S
Co42 O52 2.021 . S
Co42 O54 2.137 . S
Co42 O55 2.244 . S
O43 Co42 2.216 . S
O43 C50 1.247 . S
O44 Co42 2.091 . S
O44 C50 1.261 . S
C45 O54 1.247 . S
C45 O55 1.272 . S
O46 Co42 2.004 . S
O46 C51 1.259 . S
Co47 O48 2.061 . S
Co47 O53 2.052 . S
Co47 O55 2.135 . S
O48 Co47 2.061 . S
O48 C51 1.235 . S
C49 O52 1.238 . S
C49 O53 1.241 . S
C50 O43 1.247 . S
C50 O44 1.261 . S
C51 O46 1.259 . S
C51 O48 1.235 . S
O52 Co42 2.021 . S
O52 C49 1.238 . S
O53 Co47 2.052 . S
O53 C49 1.241 . S
O54 Co42 2.137 . S
O54 C45 1.247 . S
O55 Co42 2.244 . S
O55 C45 1.272 . S
O55 Co47 2.135 . S
Co56 O57 2.216 . S
Co56 O58 2.091 . S
Co56 O60 2.004 . S
Co56 O66 2.021 . S
Co56 O68 2.137 . S
Co56 O69 2.244 . S
O57 Co56 2.216 . S
O57 C64 1.247 . S
O58 Co56 2.091 . S
O58 C64 1.261 . S
C59 O68 1.247 . S
C59 O69 1.272 . S
O60 Co56 2.004 . S
O60 C65 1.259 . S
Co61 O62 2.061 . S
Co61 O67 2.052 . S
Co61 O69 2.135 . S
O62 Co61 2.061 . S
O62 C65 1.235 . S
C63 O66 1.238 . S
C63 O67 1.241 . S
C64 O57 1.247 . S
C64 O58 1.261 . S
C65 O60 1.259 . S
C65 O62 1.235 . S
O66 Co56 2.021 . S
O66 C63 1.238 . S
O67 Co61 2.052 . S
O67 C63 1.241 . S
O68 Co56 2.137 . S
O68 C59 1.247 . S
O69 Co56 2.244 . S
O69 C59 1.272 . S
O69 Co61 2.135 . S
Co70 O71 2.216 . S
Co70 O72 2.091 . S
Co70 O74 2.004 . S
Co70 O80 2.021 . S
Co70 O82 2.137 . S
Co70 O83 2.244 . S
O71 Co70 2.216 . S
O71 C78 1.247 . S
O72 Co70 2.091 . S
O72 C78 1.261 . S
C73 O82 1.247 . S
C73 O83 1.272 . S
O74 Co70 2.004 . S
O74 C79 1.259 . S
Co75 O76 2.061 . S
Co75 O81 2.052 . S
Co75 O83 2.135 . S
O76 Co75 2.061 . S
O76 C79 1.235 . S
C77 O80 1.238 . S
C77 O81 1.241 . S
C78 O71 1.247 . S
C78 O72 1.261 . S
C79 O74 1.259 . S
C79 O76 1.235 . S
O80 Co70 2.021 . S
O80 C77 1.238 . S
O81 Co75 2.052 . S
O81 C77 1.241 . S
O82 Co70 2.137 . S
O82 C73 1.247 . S
O83 Co70 2.244 . S
O83 C73 1.272 . S
O83 Co75 2.135 . S
Co84 O85 2.216 . S
Co84 O86 2.091 . S
Co84 O88 2.004 . S
Co84 O94 2.021 . S
Co84 O96 2.137 . S
Co84 O97 2.244 . S
O85 Co84 2.216 . S
O85 C92 1.247 . S
O86 Co84 2.091 . S
O86 C92 1.261 . S
C87 O96 1.247 . S
C87 O97 1.272 . S
O88 Co84 2.004 . S
O88 C93 1.259 . S
Co89 O90 2.061 . S
Co89 O95 2.052 . S
Co89 O97 2.135 . S
O90 Co89 2.061 . S
O90 C93 1.235 . S
C91 O94 1.238 . S
C91 O95 1.241 . S
C92 O85 1.247 . S
C92 O86 1.261 . S
C93 O88 1.259 . S
C93 O90 1.235 . S
O94 Co84 2.021 . S
O94 C91 1.238 . S
O95 Co89 2.052 . S
O95 C91 1.241 . S
O96 Co84 2.137 . S
O96 C87 1.247 . S
O97 Co84 2.244 . S
O97 C87 1.272 . S
O97 Co89 2.135 . S
Co98 O99 2.216 . S
Co98 O100 2.091 . S
Co98 O102 2.004 . S
Co98 O108 2.021 . S
Co98 O110 2.137 . S
Co98 O111 2.244 . S
O99 Co98 2.216 . S
O99 C106 1.247 . S
O100 Co98 2.091 . S
O100 C106 1.261 . S
C101 O110 1.247 . S
C101 O111 1.272 . S
O102 Co98 2.004 . S
O102 C107 1.259 . S
Co103 O104 2.061 . S
Co103 O109 2.052 . S
Co103 O111 2.135 . S
O104 Co103 2.061 . S
O104 C107 1.235 . S
C105 O108 1.238 . S
C105 O109 1.241 . S
C106 O99 1.247 . S
C106 O100 1.261 . S
C107 O102 1.259 . S
C107 O104 1.235 . S
O108 Co98 2.021 . S
O108 C105 1.238 . S
O109 Co103 2.052 . S
O109 C105 1.241 . S
O110 Co98 2.137 . S
O110 C101 1.247 . S
O111 Co98 2.244 . S
O111 C101 1.272 . S
O111 Co103 2.135 . S
Co112 O113 2.216 . S
Co112 O114 2.091 . S
Co112 O116 2.004 . S
Co112 O122 2.021 . S
Co112 O124 2.137 . S
Co112 O125 2.244 . S
O113 Co112 2.216 . S
O113 C120 1.247 . S
O114 Co112 2.091 . S
O114 C120 1.261 . S
C115 O124 1.247 . S
C115 O125 1.272 . S
O116 Co112 2.004 . S
O116 C121 1.259 . S
Co117 O118 2.061 . S
Co117 O123 2.052 . S
Co117 O125 2.135 . S
O118 Co117 2.061 . S
O118 C121 1.235 . S
C119 O122 1.238 . S
C119 O123 1.241 . S
C120 O113 1.247 . S
C120 O114 1.261 . S
C121 O116 1.259 . S
C121 O118 1.235 . S
O122 Co112 2.021 . S
O122 C119 1.238 . S
O123 Co117 2.052 . S
O123 C119 1.241 . S
O124 Co112 2.137 . S
O124 C115 1.247 . S
O125 Co112 2.244 . S
O125 C115 1.272 . S
O125 Co117 2.135 . S
Co126 O127 2.216 . S
Co126 O128 2.091 . S
Co126 O130 2.004 . S
Co126 O136 2.021 . S
Co126 O138 2.137 . S
Co126 O139 2.244 . S
O127 Co126 2.216 . S
O127 C134 1.247 . S
O128 Co126 2.091 . S
O128 C134 1.261 . S
C129 O138 1.247 . S
C129 O139 1.272 . S
O130 Co126 2.004 . S
O130 C135 1.259 . S
Co131 O132 2.061 . S
Co131 O137 2.052 . S
Co131 O139 2.135 . S
O132 Co131 2.061 . S
O132 C135 1.235 . S
C133 O136 1.238 . S
C133 O137 1.241 . S
C134 O127 1.247 . S
C134 O128 1.261 . S
C135 O130 1.259 . S
C135 O132 1.235 . S
O136 Co126 2.021 . S
O136 C133 1.238 . S
O137 Co131 2.052 . S
O137 C133 1.241 . S
O138 Co126 2.137 . S
O138 C129 1.247 . S
O139 Co126 2.244 . S
O139 C129 1.272 . S
O139 Co131 2.135 . S
Co140 O141 2.216 . S
Co140 O142 2.091 . S
Co140 O144 2.004 . S
Co140 O150 2.021 . S
Co140 O152 2.137 . S
Co140 O153 2.244 . S
O141 Co140 2.216 . S
O141 C148 1.247 . S
O142 Co140 2.091 . S
O142 C148 1.261 . S
C143 O152 1.247 . S
C143 O153 1.272 . S
O144 Co140 2.004 . S
O144 C149 1.259 . S
Co145 O146 2.061 . S
Co145 O151 2.052 . S
Co145 O153 2.135 . S
O146 Co145 2.061 . S
O146 C149 1.235 . S
C147 O150 1.238 . S
C147 O151 1.241 . S
C148 O141 1.247 . S
C148 O142 1.261 . S
C149 O144 1.259 . S
C149 O146 1.235 . S
O150 Co140 2.021 . S
O150 C147 1.238 . S
O151 Co145 2.052 . S
O151 C147 1.241 . S
O152 Co140 2.137 . S
O152 C143 1.247 . S
O153 Co140 2.244 . S
O153 C143 1.272 . S
O153 Co145 2.135 . S
Co154 O155 2.216 . S
Co154 O156 2.091 . S
Co154 O158 2.004 . S
Co154 O164 2.021 . S
Co154 O166 2.137 . S
Co154 O167 2.244 . S
O155 Co154 2.216 . S
O155 C162 1.247 . S
O156 Co154 2.091 . S
O156 C162 1.261 . S
C157 O166 1.247 . S
C157 O167 1.272 . S
O158 Co154 2.004 . S
O158 C163 1.259 . S
Co159 O160 2.061 . S
Co159 O165 2.052 . S
Co159 O167 2.135 . S
O160 Co159 2.061 . S
O160 C163 1.235 . S
C161 O164 1.238 . S
C161 O165 1.241 . S
C162 O155 1.247 . S
C162 O156 1.261 . S
C163 O158 1.259 . S
C163 O160 1.235 . S
O164 Co154 2.021 . S
O164 C161 1.238 . S
O165 Co159 2.052 . S
O165 C161 1.241 . S
O166 Co154 2.137 . S
O166 C157 1.247 . S
O167 Co154 2.244 . S
O167 C157 1.272 . S
O167 Co159 2.135 . S
Co168 O169 2.216 . S
Co168 O170 2.091 . S
Co168 O172 2.004 . S
Co168 O178 2.021 . S
Co168 O180 2.137 . S
Co168 O181 2.244 . S
O169 Co168 2.216 . S
O169 C176 1.247 . S
O170 Co168 2.091 . S
O170 C176 1.261 . S
C171 O180 1.247 . S
C171 O181 1.272 . S
O172 Co168 2.004 . S
O172 C177 1.259 . S
Co173 O174 2.061 . S
Co173 O179 2.052 . S
Co173 O181 2.135 . S
O174 Co173 2.061 . S
O174 C177 1.235 . S
C175 O178 1.238 . S
C175 O179 1.241 . S
C176 O169 1.247 . S
C176 O170 1.261 . S
C177 O172 1.259 . S
C177 O174 1.235 . S
O178 Co168 2.021 . S
O178 C175 1.238 . S
O179 Co173 2.052 . S
O179 C175 1.241 . S
O180 Co168 2.137 . S
O180 C171 1.247 . S
O181 Co168 2.244 . S
O181 C171 1.272 . S
O181 Co173 2.135 . S
Co182 O183 2.216 . S
Co182 O184 2.091 . S
Co182 O186 2.004 . S
Co182 O192 2.021 . S
Co182 O194 2.137 . S
Co182 O195 2.244 . S
O183 Co182 2.216 . S
O183 C190 1.247 . S
O184 Co182 2.091 . S
O184 C190 1.261 . S
C185 O194 1.247 . S
C185 O195 1.272 . S
O186 Co182 2.004 . S
O186 C191 1.259 . S
Co187 O188 2.061 . S
Co187 O193 2.052 . S
Co187 O195 2.135 . S
O188 Co187 2.061 . S
O188 C191 1.235 . S
C189 O192 1.238 . S
C189 O193 1.241 . S
C190 O183 1.247 . S
C190 O184 1.261 . S
C191 O186 1.259 . S
C191 O188 1.235 . S
O192 Co182 2.021 . S
O192 C189 1.238 . S
O193 Co187 2.052 . S
O193 C189 1.241 . S
O194 Co182 2.137 . S
O194 C185 1.247 . S
O195 Co182 2.244 . S
O195 C185 1.272 . S
O195 Co187 2.135 . S
Co196 O197 2.216 . S
Co196 O198 2.091 . S
Co196 O200 2.004 . S
Co196 O206 2.021 . S
Co196 O208 2.137 . S
Co196 O209 2.244 . S
O197 Co196 2.216 . S
O197 C204 1.247 . S
O198 Co196 2.091 . S
O198 C204 1.261 . S
C199 O208 1.247 . S
C199 O209 1.272 . S
O200 Co196 2.004 . S
O200 C205 1.259 . S
Co201 O202 2.061 . S
Co201 O207 2.052 . S
Co201 O209 2.135 . S
O202 Co201 2.061 . S
O202 C205 1.235 . S
C203 O206 1.238 . S
C203 O207 1.241 . S
C204 O197 1.247 . S
C204 O198 1.261 . S
C205 O200 1.259 . S
C205 O202 1.235 . S
O206 Co196 2.021 . S
O206 C203 1.238 . S
O207 Co201 2.052 . S
O207 C203 1.241 . S
O208 Co196 2.137 . S
O208 C199 1.247 . S
O209 Co196 2.244 . S
O209 C199 1.272 . S
O209 Co201 2.135 . S
Co210 O211 2.216 . S
Co210 O212 2.091 . S
Co210 O214 2.004 . S
Co210 O220 2.021 . S
Co210 O222 2.137 . S
Co210 O223 2.244 . S
O211 Co210 2.216 . S
O211 C218 1.247 . S
O212 Co210 2.091 . S
O212 C218 1.261 . S
C213 O222 1.247 . S
C213 O223 1.272 . S
O214 Co210 2.004 . S
O214 C219 1.259 . S
Co215 O216 2.061 . S
Co215 O221 2.052 . S
Co215 O223 2.135 . S
O216 Co215 2.061 . S
O216 C219 1.235 . S
C217 O220 1.238 . S
C217 O221 1.241 . S
C218 O211 1.247 . S
C218 O212 1.261 . S
C219 O214 1.259 . S
C219 O216 1.235 . S
O220 Co210 2.021 . S
O220 C217 1.238 . S
O221 Co215 2.052 . S
O221 C217 1.241 . S
O222 Co210 2.137 . S
O222 C213 1.247 . S
O223 Co210 2.244 . S
O223 C213 1.272 . S
O223 Co215 2.135 . S
Co224 O225 2.216 . S
Co224 O226 2.091 . S
Co224 O228 2.004 . S
Co224 O234 2.021 . S
Co224 O236 2.137 . S
Co224 O237 2.244 . S
O225 Co224 2.216 . S
O225 C232 1.247 . S
O226 Co224 2.091 . S
O226 C232 1.261 . S
C227 O236 1.247 . S
C227 O237 1.272 . S
O228 Co224 2.004 . S
O228 C233 1.259 . S
Co229 O230 2.061 . S
Co229 O235 2.052 . S
Co229 O237 2.135 . S
O230 Co229 2.061 . S
O230 C233 1.235 . S
C231 O234 1.238 . S
C231 O235 1.241 . S
C232 O225 1.247 . S
C232 O226 1.261 . S
C233 O228 1.259 . S
C233 O230 1.235 . S
O234 Co224 2.021 . S
O234 C231 1.238 . S
O235 Co229 2.052 . S
O235 C231 1.241 . S
O236 Co224 2.137 . S
O236 C227 1.247 . S
O237 Co224 2.244 . S
O237 C227 1.272 . S
O237 Co229 2.135 . S
Co238 O239 2.216 . S
Co238 O240 2.091 . S
Co238 O242 2.004 . S
Co238 O248 2.021 . S
Co238 O250 2.137 . S
Co238 O251 2.244 . S
O239 Co238 2.216 . S
O239 C246 1.247 . S
O240 Co238 2.091 . S
O240 C246 1.261 . S
C241 O250 1.247 . S
C241 O251 1.272 . S
O242 Co238 2.004 . S
O242 C247 1.259 . S
Co243 O244 2.061 . S
Co243 O249 2.052 . S
Co243 O251 2.135 . S
O244 Co243 2.061 . S
O244 C247 1.235 . S
C245 O248 1.238 . S
C245 O249 1.241 . S
C246 O239 1.247 . S
C246 O240 1.261 . S
C247 O242 1.259 . S
C247 O244 1.235 . S
O248 Co238 2.021 . S
O248 C245 1.238 . S
O249 Co243 2.052 . S
O249 C245 1.241 . S
O250 Co238 2.137 . S
O250 C241 1.247 . S
O251 Co238 2.244 . S
O251 C241 1.272 . S
O251 Co243 2.135 . S
Co252 O253 2.216 . S
Co252 O254 2.091 . S
Co252 O256 2.004 . S
Co252 O262 2.021 1_554 S
Co252 O264 2.137 . S
Co252 O265 2.244 . S
O253 Co252 2.216 . S
O253 C260 1.247 . S
O254 Co252 2.091 . S
O254 C260 1.261 . S
C255 O264 1.247 . S
C255 O265 1.272 . S
O256 Co252 2.004 . S
O256 C261 1.259 . S
Co257 O258 2.061 . S
Co257 O263 2.052 1_554 S
Co257 O265 2.135 . S
O258 Co257 2.061 . S
O258 C261 1.235 . S
C259 O262 1.238 . S
C259 O263 1.241 . S
C260 O253 1.247 . S
C260 O254 1.261 . S
C261 O256 1.259 . S
C261 O258 1.235 . S
O262 Co252 2.021 1_556 S
O262 C259 1.238 . S
O263 Co257 2.052 1_556 S
O263 C259 1.241 . S
O264 Co252 2.137 . S
O264 C255 1.247 . S
O265 Co252 2.244 . S
O265 C255 1.272 . S
O265 Co257 2.135 . S
Co266 O267 2.216 . S
Co266 O268 2.091 . S
Co266 O270 2.004 . S
Co266 O276 2.021 1_554 S
Co266 O278 2.137 . S
Co266 O279 2.244 . S
O267 Co266 2.216 . S
O267 C274 1.247 . S
O268 Co266 2.091 . S
O268 C274 1.261 . S
C269 O278 1.247 . S
C269 O279 1.272 . S
O270 Co266 2.004 . S
O270 C275 1.259 . S
Co271 O272 2.061 . S
Co271 O277 2.052 1_554 S
Co271 O279 2.135 . S
O272 Co271 2.061 . S
O272 C275 1.235 . S
C273 O276 1.238 . S
C273 O277 1.241 . S
C274 O267 1.247 . S
C274 O268 1.261 . S
C275 O270 1.259 . S
C275 O272 1.235 . S
O276 Co266 2.021 1_556 S
O276 C273 1.238 . S
O277 Co271 2.052 1_556 S
O277 C273 1.241 . S
O278 Co266 2.137 . S
O278 C269 1.247 . S
O279 Co266 2.244 . S
O279 C269 1.272 . S
O279 Co271 2.135 . S
Co280 O281 2.216 . S
Co280 O282 2.091 . S
Co280 O284 2.004 . S
Co280 O290 2.021 1_554 S
Co280 O292 2.137 . S
Co280 O293 2.244 . S
O281 Co280 2.216 . S
O281 C288 1.247 . S
O282 Co280 2.091 . S
O282 C288 1.261 . S
C283 O292 1.247 . S
C283 O293 1.272 . S
O284 Co280 2.004 . S
O284 C289 1.259 . S
Co285 O286 2.061 . S
Co285 O291 2.052 1_554 S
Co285 O293 2.135 . S
O286 Co285 2.061 . S
O286 C289 1.235 . S
C287 O290 1.238 . S
C287 O291 1.241 . S
C288 O281 1.247 . S
C288 O282 1.261 . S
C289 O284 1.259 . S
C289 O286 1.235 . S
O290 Co280 2.021 1_556 S
O290 C287 1.238 . S
O291 Co285 2.052 1_556 S
O291 C287 1.241 . S
O292 Co280 2.137 . S
O292 C283 1.247 . S
O293 Co280 2.244 . S
O293 C283 1.272 . S
O293 Co285 2.135 . S
Co294 O295 2.216 . S
Co294 O296 2.091 . S
Co294 O298 2.004 . S
Co294 O304 2.021 . S
Co294 O306 2.137 1_554 S
Co294 O307 2.244 1_554 S
O295 Co294 2.216 . S
O295 C302 1.247 . S
O296 Co294 2.091 . S
O296 C302 1.261 . S
C297 O306 1.247 . S
C297 O307 1.272 . S
O298 Co294 2.004 . S
O298 C303 1.259 . S
Co299 O300 2.061 . S
Co299 O305 2.052 . S
Co299 O307 2.135 1_554 S
O300 Co299 2.061 . S
O300 C303 1.235 . S
C301 O304 1.238 . S
C301 O305 1.241 . S
C302 O295 1.247 . S
C302 O296 1.261 . S
C303 O298 1.259 . S
C303 O300 1.235 . S
O304 Co294 2.021 . S
O304 C301 1.238 . S
O305 Co299 2.052 . S
O305 C301 1.241 . S
O306 Co294 2.137 1_556 S
O306 C297 1.247 . S
O307 Co294 2.244 1_556 S
O307 C297 1.272 . S
O307 Co299 2.135 1_556 S
Co308 O309 2.216 . S
Co308 O310 2.091 . S
Co308 O312 2.004 . S
Co308 O318 2.021 . S
Co308 O320 2.137 1_554 S
Co308 O321 2.244 1_554 S
O309 Co308 2.216 . S
O309 C316 1.247 . S
O310 Co308 2.091 . S
O310 C316 1.261 . S
C311 O320 1.247 . S
C311 O321 1.272 . S
O312 Co308 2.004 . S
O312 C317 1.259 . S
Co313 O314 2.061 . S
Co313 O319 2.052 . S
Co313 O321 2.135 1_554 S
O314 Co313 2.061 . S
O314 C317 1.235 . S
C315 O318 1.238 . S
C315 O319 1.241 . S
C316 O309 1.247 . S
C316 O310 1.261 . S
C317 O312 1.259 . S
C317 O314 1.235 . S
O318 Co308 2.021 . S
O318 C315 1.238 . S
O319 Co313 2.052 . S
O319 C315 1.241 . S
O320 Co308 2.137 1_556 S
O320 C311 1.247 . S
O321 Co308 2.244 1_556 S
O321 C311 1.272 . S
O321 Co313 2.135 1_556 S
Co322 O323 2.216 . S
Co322 O324 2.091 . S
Co322 O326 2.004 . S
Co322 O332 2.021 . S
Co322 O334 2.137 1_554 S
Co322 O335 2.244 1_554 S
O323 Co322 2.216 . S
O323 C330 1.247 . S
O324 Co322 2.091 . S
O324 C330 1.261 . S
C325 O334 1.247 . S
C325 O335 1.272 . S
O326 Co322 2.004 . S
O326 C331 1.259 . S
Co327 O328 2.061 . S
Co327 O333 2.052 . S
Co327 O335 2.135 1_554 S
O328 Co327 2.061 . S
O328 C331 1.235 . S
C329 O332 1.238 . S
C329 O333 1.241 . S
C330 O323 1.247 . S
C330 O324 1.261 . S
C331 O326 1.259 . S
C331 O328 1.235 . S
O332 Co322 2.021 . S
O332 C329 1.238 . S
O333 Co327 2.052 . S
O333 C329 1.241 . S
O334 Co322 2.137 1_556 S
O334 C325 1.247 . S
O335 Co322 2.244 1_556 S
O335 C325 1.272 . S
O335 Co327 2.135 1_556 S
Co336 O337 2.216 . S
Co336 O338 2.091 . S
Co336 O340 2.004 . S
Co336 O346 2.021 1_556 S
Co336 O348 2.137 . S
Co336 O349 2.244 . S
O337 Co336 2.216 . S
O337 C344 1.247 . S
O338 Co336 2.091 . S
O338 C344 1.261 . S
C339 O348 1.247 . S
C339 O349 1.272 . S
O340 Co336 2.004 . S
O340 C345 1.259 . S
Co341 O342 2.061 . S
Co341 O347 2.052 1_556 S
Co341 O349 2.135 . S
O342 Co341 2.061 . S
O342 C345 1.235 . S
C343 O346 1.238 . S
C343 O347 1.241 . S
C344 O337 1.247 . S
C344 O338 1.261 . S
C345 O340 1.259 . S
C345 O342 1.235 . S
O346 Co336 2.021 1_554 S
O346 C343 1.238 . S
O347 Co341 2.052 1_554 S
O347 C343 1.241 . S
O348 Co336 2.137 . S
O348 C339 1.247 . S
O349 Co336 2.244 . S
O349 C339 1.272 . S
O349 Co341 2.135 . S
Co350 O351 2.216 . S
Co350 O352 2.091 . S
Co350 O354 2.004 . S
Co350 O360 2.021 1_556 S
Co350 O362 2.137 . S
Co350 O363 2.244 . S
O351 Co350 2.216 . S
O351 C358 1.247 . S
O352 Co350 2.091 . S
O352 C358 1.261 . S
C353 O362 1.247 . S
C353 O363 1.272 . S
O354 Co350 2.004 . S
O354 C359 1.259 . S
Co355 O356 2.061 . S
Co355 O361 2.052 1_556 S
Co355 O363 2.135 . S
O356 Co355 2.061 . S
O356 C359 1.235 . S
C357 O360 1.238 . S
C357 O361 1.241 . S
C358 O351 1.247 . S
C358 O352 1.261 . S
C359 O354 1.259 . S
C359 O356 1.235 . S
O360 Co350 2.021 1_554 S
O360 C357 1.238 . S
O361 Co355 2.052 1_554 S
O361 C357 1.241 . S
O362 Co350 2.137 . S
O362 C353 1.247 . S
O363 Co350 2.244 . S
O363 C353 1.272 . S
O363 Co355 2.135 . S
Co364 O365 2.216 . S
Co364 O366 2.091 . S
Co364 O368 2.004 . S
Co364 O374 2.021 1_556 S
Co364 O376 2.137 . S
Co364 O377 2.244 . S
O365 Co364 2.216 . S
O365 C372 1.247 . S
O366 Co364 2.091 . S
O366 C372 1.261 . S
C367 O376 1.247 . S
C367 O377 1.272 . S
O368 Co364 2.004 . S
O368 C373 1.259 . S
Co369 O370 2.061 . S
Co369 O375 2.052 1_556 S
Co369 O377 2.135 . S
O370 Co369 2.061 . S
O370 C373 1.235 . S
C371 O374 1.238 . S
C371 O375 1.241 . S
C372 O365 1.247 . S
C372 O366 1.261 . S
C373 O368 1.259 . S
C373 O370 1.235 . S
O374 Co364 2.021 1_554 S
O374 C371 1.238 . S
O375 Co369 2.052 1_554 S
O375 C371 1.241 . S
O376 Co364 2.137 . S
O376 C367 1.247 . S
O377 Co364 2.244 . S
O377 C367 1.272 . S
O377 Co369 2.135 . S
Co378 O379 2.216 . S
Co378 O380 2.091 . S
Co378 O382 2.004 . S
Co378 O388 2.021 . S
Co378 O390 2.137 1_556 S
Co378 O391 2.244 1_556 S
O379 Co378 2.216 . S
O379 C386 1.247 . S
O380 Co378 2.091 . S
O380 C386 1.261 . S
C381 O390 1.247 . S
C381 O391 1.272 . S
O382 Co378 2.004 . S
O382 C387 1.259 . S
Co383 O384 2.061 . S
Co383 O389 2.052 . S
Co383 O391 2.135 1_556 S
O384 Co383 2.061 . S
O384 C387 1.235 . S
C385 O388 1.238 . S
C385 O389 1.241 . S
C386 O379 1.247 . S
C386 O380 1.261 . S
C387 O382 1.259 . S
C387 O384 1.235 . S
O388 Co378 2.021 . S
O388 C385 1.238 . S
O389 Co383 2.052 . S
O389 C385 1.241 . S
O390 Co378 2.137 1_554 S
O390 C381 1.247 . S
O391 Co378 2.244 1_554 S
O391 C381 1.272 . S
O391 Co383 2.135 1_554 S
Co392 O393 2.216 . S
Co392 O394 2.091 . S
Co392 O396 2.004 . S
Co392 O402 2.021 . S
Co392 O404 2.137 1_556 S
Co392 O405 2.244 1_556 S
O393 Co392 2.216 . S
O393 C400 1.247 . S
O394 Co392 2.091 . S
O394 C400 1.261 . S
C395 O404 1.247 . S
C395 O405 1.272 . S
O396 Co392 2.004 . S
O396 C401 1.259 . S
Co397 O398 2.061 . S
Co397 O403 2.052 . S
Co397 O405 2.135 1_556 S
O398 Co397 2.061 . S
O398 C401 1.235 . S
C399 O402 1.238 . S
C399 O403 1.241 . S
C400 O393 1.247 . S
C400 O394 1.261 . S
C401 O396 1.259 . S
C401 O398 1.235 . S
O402 Co392 2.021 . S
O402 C399 1.238 . S
O403 Co397 2.052 . S
O403 C399 1.241 . S
O404 Co392 2.137 1_554 S
O404 C395 1.247 . S
O405 Co392 2.244 1_554 S
O405 C395 1.272 . S
O405 Co397 2.135 1_554 S
Co406 O407 2.216 . S
Co406 O408 2.091 . S
Co406 O410 2.004 . S
Co406 O416 2.021 . S
Co406 O418 2.137 1_556 S
Co406 O419 2.244 1_556 S
O407 Co406 2.216 . S
O407 C414 1.247 . S
O408 Co406 2.091 . S
O408 C414 1.261 . S
C409 O418 1.247 . S
C409 O419 1.272 . S
O410 Co406 2.004 . S
O410 C415 1.259 . S
Co411 O412 2.061 . S
Co411 O417 2.052 . S
Co411 O419 2.135 1_556 S
O412 Co411 2.061 . S
O412 C415 1.235 . S
C413 O416 1.238 . S
C413 O417 1.241 . S
C414 O407 1.247 . S
C414 O408 1.261 . S
C415 O410 1.259 . S
C415 O412 1.235 . S
O416 Co406 2.021 . S
O416 C413 1.238 . S
O417 Co411 2.052 . S
O417 C413 1.241 . S
O418 Co406 2.137 1_554 S
O418 C409 1.247 . S
O419 Co406 2.244 1_554 S
O419 C409 1.272 . S
O419 Co411 2.135 1_554 S
Co420 O421 2.216 . S
Co420 O422 2.091 . S
Co420 O424 2.004 . S
Co420 O430 2.021 . S
Co420 O432 2.137 . S
Co420 O433 2.244 . S
O421 Co420 2.216 . S
O421 C428 1.247 . S
O422 Co420 2.091 . S
O422 C428 1.261 . S
C423 O432 1.247 . S
C423 O433 1.272 . S
O424 Co420 2.004 . S
O424 C429 1.259 . S
Co425 O426 2.061 . S
Co425 O431 2.052 . S
Co425 O433 2.135 . S
O426 Co425 2.061 . S
O426 C429 1.235 . S
C427 O430 1.238 . S
C427 O431 1.241 . S
C428 O421 1.247 . S
C428 O422 1.261 . S
C429 O424 1.259 . S
C429 O426 1.235 . S
O430 Co420 2.021 . S
O430 C427 1.238 . S
O431 Co425 2.052 . S
O431 C427 1.241 . S
O432 Co420 2.137 . S
O432 C423 1.247 . S
O433 Co420 2.244 . S
O433 C423 1.272 . S
O433 Co425 2.135 . S
Co434 O435 2.216 . S
Co434 O436 2.091 . S
Co434 O438 2.004 . S
Co434 O444 2.021 . S
Co434 O446 2.137 . S
Co434 O447 2.244 . S
O435 Co434 2.216 . S
O435 C442 1.247 . S
O436 Co434 2.091 . S
O436 C442 1.261 . S
C437 O446 1.247 . S
C437 O447 1.272 . S
O438 Co434 2.004 . S
O438 C443 1.259 . S
Co439 O440 2.061 . S
Co439 O445 2.052 . S
Co439 O447 2.135 . S
O440 Co439 2.061 . S
O440 C443 1.235 . S
C441 O444 1.238 . S
C441 O445 1.241 . S
C442 O435 1.247 . S
C442 O436 1.261 . S
C443 O438 1.259 . S
C443 O440 1.235 . S
O444 Co434 2.021 . S
O444 C441 1.238 . S
O445 Co439 2.052 . S
O445 C441 1.241 . S
O446 Co434 2.137 . S
O446 C437 1.247 . S
O447 Co434 2.244 . S
O447 C437 1.272 . S
O447 Co439 2.135 . S
Co448 O449 2.216 . S
Co448 O450 2.091 . S
Co448 O452 2.004 . S
Co448 O458 2.021 . S
Co448 O460 2.137 . S
Co448 O461 2.244 . S
O449 Co448 2.216 . S
O449 C456 1.247 . S
O450 Co448 2.091 . S
O450 C456 1.261 . S
C451 O460 1.247 . S
C451 O461 1.272 . S
O452 Co448 2.004 . S
O452 C457 1.259 . S
Co453 O454 2.061 . S
Co453 O459 2.052 . S
Co453 O461 2.135 . S
O454 Co453 2.061 . S
O454 C457 1.235 . S
C455 O458 1.238 . S
C455 O459 1.241 . S
C456 O449 1.247 . S
C456 O450 1.261 . S
C457 O452 1.259 . S
C457 O454 1.235 . S
O458 Co448 2.021 . S
O458 C455 1.238 . S
O459 Co453 2.052 . S
O459 C455 1.241 . S
O460 Co448 2.137 . S
O460 C451 1.247 . S
O461 Co448 2.244 . S
O461 C451 1.272 . S
O461 Co453 2.135 . S
Co462 O463 2.216 . S
Co462 O464 2.091 . S
Co462 O466 2.004 . S
Co462 O472 2.021 . S
Co462 O474 2.137 . S
Co462 O475 2.244 . S
O463 Co462 2.216 . S
O463 C470 1.247 . S
O464 Co462 2.091 . S
O464 C470 1.261 . S
C465 O474 1.247 . S
C465 O475 1.272 . S
O466 Co462 2.004 . S
O466 C471 1.259 . S
Co467 O468 2.061 . S
Co467 O473 2.052 . S
Co467 O475 2.135 . S
O468 Co467 2.061 . S
O468 C471 1.235 . S
C469 O472 1.238 . S
C469 O473 1.241 . S
C470 O463 1.247 . S
C470 O464 1.261 . S
C471 O466 1.259 . S
C471 O468 1.235 . S
O472 Co462 2.021 . S
O472 C469 1.238 . S
O473 Co467 2.052 . S
O473 C469 1.241 . S
O474 Co462 2.137 . S
O474 C465 1.247 . S
O475 Co462 2.244 . S
O475 C465 1.272 . S
O475 Co467 2.135 . S
Co476 O477 2.216 . S
Co476 O478 2.091 . S
Co476 O480 2.004 . S
Co476 O486 2.021 . S
Co476 O488 2.137 . S
Co476 O489 2.244 . S
O477 Co476 2.216 . S
O477 C484 1.247 . S
O478 Co476 2.091 . S
O478 C484 1.261 . S
C479 O488 1.247 . S
C479 O489 1.272 . S
O480 Co476 2.004 . S
O480 C485 1.259 . S
Co481 O482 2.061 . S
Co481 O487 2.052 . S
Co481 O489 2.135 . S
O482 Co481 2.061 . S
O482 C485 1.235 . S
C483 O486 1.238 . S
C483 O487 1.241 . S
C484 O477 1.247 . S
C484 O478 1.261 . S
C485 O480 1.259 . S
C485 O482 1.235 . S
O486 Co476 2.021 . S
O486 C483 1.238 . S
O487 Co481 2.052 . S
O487 C483 1.241 . S
O488 Co476 2.137 . S
O488 C479 1.247 . S
O489 Co476 2.244 . S
O489 C479 1.272 . S
O489 Co481 2.135 . S
Co490 O491 2.216 . S
Co490 O492 2.091 . S
Co490 O494 2.004 . S
Co490 O500 2.021 . S
Co490 O502 2.137 . S
Co490 O503 2.244 . S
O491 Co490 2.216 . S
O491 C498 1.247 . S
O492 Co490 2.091 . S
O492 C498 1.261 . S
C493 O502 1.247 . S
C493 O503 1.272 . S
O494 Co490 2.004 . S
O494 C499 1.259 . S
Co495 O496 2.061 . S
Co495 O501 2.052 . S
Co495 O503 2.135 . S
O496 Co495 2.061 . S
O496 C499 1.235 . S
C497 O500 1.238 . S
C497 O501 1.241 . S
C498 O491 1.247 . S
C498 O492 1.261 . S
C499 O494 1.259 . S
C499 O496 1.235 . S
O500 Co490 2.021 . S
O500 C497 1.238 . S
O501 Co495 2.052 . S
O501 C497 1.241 . S
O502 Co490 2.137 . S
O502 C493 1.247 . S
O503 Co490 2.244 . S
O503 C493 1.272 . S
O503 Co495 2.135 . S
C147 C3 1.604 1_556 S
C161 C17 1.604 1_556 S
C31 C133 1.604 1_554 S
C45 C119 1.604 . S
C59 C91 1.604 . S
C105 C73 1.604 . S
C63 C87 1.604 1_554 S
C77 C101 1.604 1_554 S
C115 C49 1.604 1_556 S
C35 C129 1.604 . S
C143 C7 1.604 . S
C157 C21 1.604 . S
C315 C171 1.604 . S
C329 C185 1.604 . S
C199 C301 1.604 . S
C213 C287 1.604 . S
C227 C259 1.604 . S
C241 C273 1.604 . S
C231 C255 1.604 . S
C245 C269 1.604 . S
C217 C283 1.604 . S
C203 C297 1.604 . S
C175 C311 1.604 . S
C189 C325 1.604 . S
C339 C483 1.604 . S
C497 C353 1.604 . S
C469 C367 1.604 . S
C381 C455 1.604 . S
C395 C427 1.604 . S
C409 C441 1.604 . S
C399 C423 1.604 . S
C413 C437 1.604 . S
C385 C451 1.604 . S
C465 C371 1.604 . S
C343 C479 1.604 . S
C493 C357 1.604 . S
C50 C8 1.579 . S
C64 C22 1.580 1_565 S
C36 C78 1.579 1_655 S
C134 C92 1.579 . S
C148 C106 1.580 1_545 S
C162 C120 1.579 1_655 S
C218 C176 1.579 . S
C232 C190 1.580 . S
C204 C246 1.579 . S
C260 C302 1.579 . S
C316 C274 1.580 . S
C288 C330 1.579 . S
C386 C344 1.579 . S
C400 C358 1.580 . S
C372 C414 1.579 . S
C428 C470 1.579 . S
C442 C484 1.580 . S
C456 C498 1.579 . S
C9 C261 1.490 . S
C275 C23 1.490 . S
C289 C37 1.490 . S
C471 C51 1.490 . S
C485 C65 1.490 . S
C499 C79 1.490 . S
C93 C345 1.490 . S
C359 C107 1.490 . S
C373 C121 1.490 . S
C135 C219 1.490 . S
C149 C233 1.490 . S
C163 C247 1.490 . S
C429 C177 1.490 1_455 S
C443 C191 1.490 . S
C205 C457 1.490 1_545 S
C303 C387 1.490 1_544 S
C317 C401 1.490 1_654 S
C331 C415 1.490 1_554 S
