# Generated by pormake.
# Topology bcs, (6)-cn, num edge types: 1
# Building blocks:
#     Node 0, Type 0, BuildingBlock: BETDIP_clean_sbu_0, # of connection points: 6
#     Node 1, Type 0, BuildingBlock: BETDIP_clean_sbu_0, # of connection points: 6
#     Node 2, Type 0, BuildingBlock: BETDIP_clean_sbu_0, # of connection points: 6
#     Node 3, Type 0, BuildingBlock: BETDIP_clean_sbu_0, # of connection points: 6
#     Node 4, Type 0, BuildingBlock: BETDIP_clean_sbu_0, # of connection points: 6
#     Node 5, Type 0, BuildingBlock: BETDIP_clean_sbu_0, # of connection points: 6
#     Node 6, Type 0, BuildingBlock: BETDIP_clean_sbu_0, # of connection points: 6
#     Node 7, Type 0, BuildingBlock: BETDIP_clean_sbu_0, # of connection points: 6
#     Node 8, Type 0, BuildingBlock: BETDIP_clean_sbu_0, # of connection points: 6
#     Node 9, Type 0, BuildingBlock: BETDIP_clean_sbu_0, # of connection points: 6
#     Node 10, Type 0, BuildingBlock: BETDIP_clean_sbu_0, # of connection points: 6
#     Node 11, Type 0, BuildingBlock: BETDIP_clean_sbu_0, # of connection points: 6
#     Node 12, Type 0, BuildingBlock: BETDIP_clean_sbu_0, # of connection points: 6
#     Node 13, Type 0, BuildingBlock: BETDIP_clean_sbu_0, # of connection points: 6
#     Node 14, Type 0, BuildingBlock: BETDIP_clean_sbu_0, # of connection points: 6
#     Node 15, Type 0, BuildingBlock: BETDIP_clean_sbu_0, # of connection points: 6
#     Edge 16, Type (0, 0), BuildingBlock: AJUNOK_clean_linker_0, # of connection points: 2
#     Edge 17, Type (0, 0), BuildingBlock: AJUNOK_clean_linker_0, # of connection points: 2
#     Edge 18, Type (0, 0), BuildingBlock: AJUNOK_clean_linker_0, # of connection points: 2
#     Edge 19, Type (0, 0), BuildingBlock: AJUNOK_clean_linker_0, # of connection points: 2
#     Edge 20, Type (0, 0), BuildingBlock: AJUNOK_clean_linker_0, # of connection points: 2
#     Edge 21, Type (0, 0), BuildingBlock: AJUNOK_clean_linker_0, # of connection points: 2
#     Edge 22, Type (0, 0), BuildingBlock: AJUNOK_clean_linker_0, # of connection points: 2
#     Edge 23, Type (0, 0), BuildingBlock: AJUNOK_clean_linker_0, # of connection points: 2
#     Edge 24, Type (0, 0), BuildingBlock: AJUNOK_clean_linker_0, # of connection points: 2
#     Edge 25, Type (0, 0), BuildingBlock: AJUNOK_clean_linker_0, # of connection points: 2
#     Edge 26, Type (0, 0), BuildingBlock: AJUNOK_clean_linker_0, # of connection points: 2
#     Edge 27, Type (0, 0), BuildingBlock: AJUNOK_clean_linker_0, # of connection points: 2
#     Edge 28, Type (0, 0), BuildingBlock: AJUNOK_clean_linker_0, # of connection points: 2
#     Edge 29, Type (0, 0), BuildingBlock: AJUNOK_clean_linker_0, # of connection points: 2
#     Edge 30, Type (0, 0), BuildingBlock: AJUNOK_clean_linker_0, # of connection points: 2
#     Edge 31, Type (0, 0), BuildingBlock: AJUNOK_clean_linker_0, # of connection points: 2
#     Edge 32, Type (0, 0), BuildingBlock: AJUNOK_clean_linker_0, # of connection points: 2
#     Edge 33, Type (0, 0), BuildingBlock: AJUNOK_clean_linker_0, # of connection points: 2
#     Edge 34, Type (0, 0), BuildingBlock: AJUNOK_clean_linker_0, # of connection points: 2
#     Edge 35, Type (0, 0), BuildingBlock: AJUNOK_clean_linker_0, # of connection points: 2
#     Edge 36, Type (0, 0), BuildingBlock: AJUNOK_clean_linker_0, # of connection points: 2
#     Edge 37, Type (0, 0), BuildingBlock: AJUNOK_clean_linker_0, # of connection points: 2
#     Edge 38, Type (0, 0), BuildingBlock: AJUNOK_clean_linker_0, # of connection points: 2
#     Edge 39, Type (0, 0), BuildingBlock: AJUNOK_clean_linker_0, # of connection points: 2
#     Edge 40, Type (0, 0), BuildingBlock: AJUNOK_clean_linker_0, # of connection points: 2
#     Edge 41, Type (0, 0), BuildingBlock: AJUNOK_clean_linker_0, # of connection points: 2
#     Edge 42, Type (0, 0), BuildingBlock: AJUNOK_clean_linker_0, # of connection points: 2
#     Edge 43, Type (0, 0), BuildingBlock: AJUNOK_clean_linker_0, # of connection points: 2
#     Edge 44, Type (0, 0), BuildingBlock: AJUNOK_clean_linker_0, # of connection points: 2
#     Edge 45, Type (0, 0), BuildingBlock: AJUNOK_clean_linker_0, # of connection points: 2
#     Edge 46, Type (0, 0), BuildingBlock: AJUNOK_clean_linker_0, # of connection points: 2
#     Edge 47, Type (0, 0), BuildingBlock: AJUNOK_clean_linker_0, # of connection points: 2
#     Edge 48, Type (0, 0), BuildingBlock: AJUNOK_clean_linker_0, # of connection points: 2
#     Edge 49, Type (0, 0), BuildingBlock: AJUNOK_clean_linker_0, # of connection points: 2
#     Edge 50, Type (0, 0), BuildingBlock: AJUNOK_clean_linker_0, # of connection points: 2
#     Edge 51, Type (0, 0), BuildingBlock: AJUNOK_clean_linker_0, # of connection points: 2
#     Edge 52, Type (0, 0), BuildingBlock: AJUNOK_clean_linker_0, # of connection points: 2
#     Edge 53, Type (0, 0), BuildingBlock: AJUNOK_clean_linker_0, # of connection points: 2
#     Edge 54, Type (0, 0), BuildingBlock: AJUNOK_clean_linker_0, # of connection points: 2
#     Edge 55, Type (0, 0), BuildingBlock: AJUNOK_clean_linker_0, # of connection points: 2
#     Edge 56, Type (0, 0), BuildingBlock: AJUNOK_clean_linker_0, # of connection points: 2
#     Edge 57, Type (0, 0), BuildingBlock: AJUNOK_clean_linker_0, # of connection points: 2
#     Edge 58, Type (0, 0), BuildingBlock: AJUNOK_clean_linker_0, # of connection points: 2
#     Edge 59, Type (0, 0), BuildingBlock: AJUNOK_clean_linker_0, # of connection points: 2
#     Edge 60, Type (0, 0), BuildingBlock: AJUNOK_clean_linker_0, # of connection points: 2
#     Edge 61, Type (0, 0), BuildingBlock: AJUNOK_clean_linker_0, # of connection points: 2
#     Edge 62, Type (0, 0), BuildingBlock: AJUNOK_clean_linker_0, # of connection points: 2
#     Edge 63, Type (0, 0), BuildingBlock: AJUNOK_clean_linker_0, # of connection points: 2
# Relax obj value: 0.277
# Max RMSD: 0.257
# Mean RMSD: 0.223
data_MOF--net-bcs--node1-BETDIP_clean_sbu_0--edge1-AJUNOK_clean_linker_0
_symmetry_space_group_name_H-M    P1
_symmetry_Int_Tables_number       1
_symmetry_cell_setting            triclinic
loop_
_symmetry_equiv_pos_as_xyz
'x, y, z'
_cell_length_a     34.786258
_cell_length_b     33.994019
_cell_length_c     31.810147
_cell_angle_alpha  70.345617
_cell_angle_beta   129.45456
_cell_angle_gamma 114.5057
loop_
_atom_site_label
_atom_site_type_symbol
_atom_site_fract_x
_atom_site_fract_y
_atom_site_fract_z
_atom_type_partial_charge
Tb0 Tb 1.04446 1.00975 0.98578 0.0
Tb1 Tb 0.07918 0.04881 0.0275 0.0
C2 C 1.00359 0.94794 0.92938 0.0
C3 C 1.02245 0.93452 0.9068 0.0
C4 C 1.05853 0.96385 0.89565 0.0
C5 C 0.08479 0.94861 0.88683 0.0
C6 C 0.07626 0.90361 0.88973 0.0
C7 C 1.03904 0.87482 0.89961 0.0
C8 C 1.01301 0.89 0.90829 0.0
C9 C 0.98103 0.97264 0.04577 0.0
C10 C 0.14366 0.986 0.07281 0.0
C11 C 0.11806 0.1119 0.08175 0.0
C12 C 0.09488 0.12998 0.09557 0.0
C13 C 0.08238 0.10848 0.13342 0.0
C14 C 1.05641 0.12547 0.14088 0.0
C15 C 1.04163 0.1642 0.11033 0.0
C16 C 1.05303 0.18456 0.07146 0.0
C17 C 0.08004 0.16842 0.0652 0.0
C18 C 0.14193 0.0862 0.96675 0.0
C19 C 0.98029 0.0724 0.93806 0.0
O20 O 0.98905 0.98356 0.90884 0.0
O21 O 1.03328 0.94533 0.98212 0.0
O22 O 1.02745 0.98673 0.05059 0.0
O23 O 1.02724 0.98588 0.05242 0.0
O24 O 0.11452 0.9915 0.01986 0.0
O25 O 0.13447 1.00712 0.09195 0.0
O26 O 0.1283 0.07447 0.10479 0.0
O27 O 0.09582 0.11484 0.02996 0.0
O28 O 0.0957 0.07193 0.96232 0.0
O29 O 0.09593 0.07277 0.96052 0.0
O30 O 1.00792 0.06658 0.99104 0.0
O31 O 0.99102 0.05181 0.92019 0.0
H32 H 0.06817 0.99841 0.8962 0.0
H33 H 0.11334 0.97212 0.88001 0.0
H34 H 1.02919 0.8401 0.90025 0.0
H35 H 0.98671 0.8666 0.91844 0.0
H36 H 0.09234 0.07846 0.15702 0.0
H37 H 1.04852 0.10836 0.1712 0.0
H38 H 1.03997 0.21261 0.0443 0.0
H39 H 0.08782 0.18552 0.03474 0.0
Tb40 Tb 0.27658 0.75317 0.27193 0.0
Tb41 Tb 0.3477 0.80337 0.2439 0.0
C42 C 0.19576 0.7011 0.25807 0.0
C43 C 0.18271 0.65377 0.2642 0.0
C44 C 0.13354 0.62989 0.22516 0.0
C45 C 0.11512 0.58653 0.24014 0.0
C46 C 0.14517 0.56917 0.29448 0.0
C47 C 0.19885 0.58791 0.3252 0.0
C48 C 0.21748 0.63156 0.31157 0.0
C49 C 0.35377 0.8109 0.34105 0.0
C50 C 0.3683 0.71259 0.32294 0.0
C51 C 0.42534 0.85658 0.2512 0.0
C52 C 0.42936 0.90254 0.2315 0.0
C53 C 0.47194 0.93476 0.26466 0.0
C54 C 0.47955 0.97763 0.24123 0.0
C55 C 0.44709 0.98654 0.18395 0.0
C56 C 0.3976 0.95709 0.15558 0.0
C57 C 0.38935 0.91478 0.17891 0.0
C58 C 0.27073 0.74393 0.17665 0.0
C59 C 0.25636 0.84479 0.19304 0.0
O60 O 0.19923 0.72051 0.21693 0.0
O61 O 0.23303 0.71982 0.30354 0.0
O62 O 0.32986 0.81593 0.28972 0.0
O63 O 0.33175 0.77264 0.3551 0.0
O64 O 0.323 0.70533 0.31378 0.0
O65 O 0.3868 0.75036 0.30214 0.0
O66 O 0.42213 0.84398 0.29275 0.0
O67 O 0.39215 0.82987 0.21298 0.0
O68 O 0.29571 0.74034 0.22782 0.0
O69 O 0.29079 0.78235 0.16085 0.0
O70 O 0.29866 0.84964 0.1972 0.0
O71 O 0.24092 0.80919 0.21909 0.0
H72 H 0.10774 0.6458 0.18623 0.0
H73 H 0.07435 0.57087 0.21479 0.0
H74 H 0.22375 0.5733 0.36598 0.0
H75 H 0.25713 0.64866 0.34071 0.0
H76 H 0.50071 0.92621 0.307 0.0
H77 H 0.51573 1.00125 0.26546 0.0
H78 H 0.36859 0.96299 0.11243 0.0
H79 H 0.35362 0.89106 0.15377 0.0
Tb80 Tb 0.54818 1.01418 0.54787 0.0
Tb81 Tb 0.57089 0.03985 0.46926 0.0
C82 C 0.52982 1.00663 0.61558 0.0
C83 C 0.50717 1.02713 0.62582 0.0
C84 C 0.50132 0.06905 0.60186 0.0
C85 C 0.4842 0.08945 0.61637 0.0
C86 C 0.47304 0.06832 0.6553 0.0
C87 C 0.47826 1.02601 0.67847 0.0
C88 C 0.49469 1.00545 0.6634 0.0
C89 C 0.49954 0.95332 0.48214 0.0
C90 C 0.49187 0.0829 0.44198 0.0
C91 C 0.58611 0.04202 0.40081 0.0
C92 C 0.59946 1.01393 0.38803 0.0
C93 C 0.59195 0.96923 0.40579 0.0
C94 C 0.60294 0.94293 0.39095 0.0
C95 C 0.62062 0.961 0.3575 0.0
C96 C 0.62901 1.00574 0.34072 0.0
C97 C 0.61873 0.03206 0.3561 0.0
C98 C 0.62173 0.09944 0.53794 0.0
C99 C 0.62923 0.97335 0.57563 0.0
O100 O 0.57379 0.02967 0.62193 0.0
O101 O 0.49776 0.98609 0.57189 0.0
O102 O 0.50536 0.99387 0.46765 0.0
O103 O 0.52049 0.94667 0.53401 0.0
O104 O 0.50482 0.06488 0.49219 0.0
O105 O 0.51061 0.07449 0.42142 0.0
O106 O 0.5405 1.0275 0.39176 0.0
O107 O 0.62214 0.05911 0.44717 0.0
O108 O 0.61424 0.05873 0.55018 0.0
O109 O 0.60259 0.10765 0.48634 0.0
O110 O 0.61296 0.9887 0.52404 0.0
O111 O 0.61247 0.98345 0.59722 0.0
H112 H 0.51172 0.08652 0.57354 0.0
H113 H 0.48069 0.12209 0.59798 0.0
H114 H 0.47164 1.00939 0.70984 0.0
H115 H 0.49971 0.97329 0.68282 0.0
H116 H 0.57693 0.95463 0.43036 0.0
H117 H 0.59637 0.90843 0.40429 0.0
H118 H 0.64282 1.02017 0.315 0.0
H119 H 0.62474 0.06643 0.34203 0.0
Tb120 Tb 0.3472 0.25705 0.7901 0.0
Tb121 Tb 0.27296 0.29936 0.71965 0.0
C122 C 0.40609 0.21198 0.82506 0.0
C123 C 0.41622 0.19599 0.79617 0.0
C124 C 0.37572 0.18192 0.7439 0.0
C125 C 0.38401 0.16295 0.71863 0.0
C126 C 0.43311 0.15824 0.7448 0.0
C127 C 0.47441 0.17473 0.79555 0.0
C128 C 0.46599 0.19363 0.82098 0.0
C129 C 0.36753 0.32255 0.83407 0.0
C130 C 0.36488 0.33715 0.69007 0.0
C131 C 0.2152 0.34554 0.68458 0.0
C132 C 0.20279 0.35991 0.71248 0.0
C133 C 0.24097 0.37068 0.76661 0.0
C134 C 0.23044 0.38739 0.79172 0.0
C135 C 0.18144 0.39333 0.76333 0.0
C136 C 0.1427 0.38118 0.70987 0.0
C137 C 0.15318 0.36404 0.68491 0.0
C138 C 0.25042 0.23227 0.67617 0.0
C139 C 0.25593 0.21959 0.82035 0.0
O140 O 0.35932 0.1958 0.81272 0.0
O141 O 0.42235 0.25378 0.82747 0.0
O142 O 0.3506 0.32197 0.78563 0.0
O143 O 0.37611 0.28537 0.86096 0.0
O144 O 0.379 0.30318 0.73227 0.0
O145 O 0.32044 0.34083 0.67809 0.0
O146 O 0.26321 0.36118 0.7005 0.0
O147 O 0.19782 0.30416 0.67927 0.0
O148 O 0.26889 0.23387 0.72494 0.0
O149 O 0.24301 0.26978 0.64923 0.0
O150 O 0.24182 0.25373 0.77828 0.0
O151 O 0.29987 0.21543 0.83172 0.0
H152 H 0.3374 0.18499 0.72283 0.0
H153 H 0.35194 0.15163 0.67878 0.0
H154 H 0.51279 0.17187 0.81619 0.0
H155 H 0.49804 0.20549 0.86051 0.0
H156 H 0.27933 0.36698 0.7892 0.0
H157 H 0.2611 0.39686 0.83276 0.0
H158 H 0.10447 0.38514 0.68737 0.0
H159 H 0.12284 0.35464 0.64382 0.0
Tb160 Tb 1.02869 1.00741 0.51735 0.0
Tb161 Tb 0.09228 0.05787 0.47809 0.0
C162 C 0.97249 0.94506 0.54097 0.0
C163 C 0.98473 0.91642 0.59116 0.0
C164 C 0.94594 0.88018 0.59067 0.0
C165 C 0.95196 0.86029 0.63978 0.0
C166 C 0.99646 0.87681 0.68935 0.0
C167 C 1.03771 0.9099 0.69012 0.0
C168 C 1.0321 0.92938 0.64104 0.0
C169 C 0.10578 0.07126 0.5767 0.0
C170 C 0.12631 0.97537 0.56004 0.0
C171 C 0.14447 0.11956 0.4492 0.0
C172 C 0.12767 0.14534 0.39628 0.0
C173 C 0.15885 0.18688 0.39348 0.0
C174 C 0.15155 0.2061 0.34361 0.0
C175 C 0.11453 0.18315 0.29731 0.0
C176 C 0.07774 0.14511 0.29826 0.0
C177 C 0.08416 0.12627 0.34786 0.0
C178 C 1.01563 0.99323 0.41975 0.0
C179 C 0.99575 0.09064 0.43671 0.0
O180 O 0.98862 0.9411 0.51546 0.0
O181 O 0.98201 0.98558 0.54498 0.0
O182 O 0.10758 0.04693 0.55609 0.0
O183 O 0.06146 0.05745 0.56937 0.0
O184 O 0.08245 0.96612 0.55519 0.0
O185 O 0.14229 1.01403 0.53874 0.0
O186 O 0.13014 0.12453 0.4759 0.0
O187 O 0.1379 0.07878 0.44924 0.0
O188 O 1.01373 1.01824 0.4395 0.0
O189 O 0.06029 1.00695 0.42792 0.0
O190 O 1.03959 0.09949 0.44186 0.0
O191 O 0.97943 0.05208 0.45777 0.0
H192 H 0.90925 0.86991 0.55238 0.0
H193 H 0.91917 0.83589 0.6383 0.0
H194 H 0.07166 0.9238 0.72763 0.0
H195 H 0.06253 0.95737 0.64174 0.0
H196 H 0.1916 0.20249 0.43034 0.0
H197 H 0.17939 0.23579 0.34292 0.0
H198 H 1.04851 0.12723 0.26262 0.0
H199 H 1.05856 0.09466 0.34929 0.0
Tb200 Tb 0.2917 0.77037 0.78629 0.0
Tb201 Tb 0.32432 0.79193 0.71216 0.0
C202 C 0.2676 0.77501 0.84472 0.0
C203 C 0.23769 0.79672 0.84469 0.0
C204 C 0.25492 0.84131 0.85085 0.0
C205 C 0.22866 0.8596 0.85631 0.0
C206 C 0.18483 0.83377 0.85646 0.0
C207 C 0.16686 0.78958 0.84856 0.0
C208 C 0.19294 0.77139 0.84305 0.0
C209 C 0.24375 0.71146 0.71871 0.0
C210 C 0.24576 0.84061 0.67778 0.0
C211 C 0.34902 0.78532 0.65535 0.0
C212 C 0.37878 0.7614 0.65816 0.0
C213 C 0.35799 0.71759 0.64744 0.0
C214 C 0.3851 0.69714 0.64596 0.0
C215 C 0.43384 0.71982 0.65503 0.0
C216 C 0.45469 0.76341 0.66642 0.0
C217 C 0.42767 0.78378 0.66784 0.0
C218 C 0.37387 0.85011 0.78129 0.0
C219 C 0.37118 0.72253 0.82088 0.0
O220 O 0.31082 0.79841 0.8495 0.0
O221 O 0.24107 0.74602 0.81028 0.0
O222 O 0.25533 0.7524 0.70676 0.0
O223 O 0.25535 0.70343 0.76778 0.0
O224 O 0.25246 0.82158 0.72525 0.0
O225 O 0.26687 0.83078 0.6605 0.0
O226 O 0.30458 0.76362 0.64867 0.0
O227 O 0.37573 0.81456 0.68952 0.0
O228 O 0.36117 0.80913 0.79215 0.0
O229 O 0.36192 0.85874 0.73198 0.0
O230 O 0.36259 0.74057 0.77253 0.0
O231 O 0.35074 0.73264 0.83876 0.0
H232 H 0.28935 0.86196 0.85264 0.0
H233 H 0.24369 0.89372 0.86222 0.0
H234 H 0.13265 0.76876 0.84713 0.0
H235 H 0.17856 0.73699 0.83862 0.0
H236 H 0.32025 0.69925 0.63912 0.0
H237 H 0.36703 0.66389 0.63599 0.0
H238 H 0.4921 0.78207 0.67403 0.0
H239 H 0.44488 0.81758 0.6757 0.0
Tb240 Tb 0.58073 0.99969 0.02886 0.0
Tb241 Tb 0.52606 0.068 0.95912 0.0
C242 C 0.62354 0.94083 0.0637 0.0
C243 C 0.63934 0.923 0.04192 0.0
C244 C 0.60621 0.91234 0.98772 0.0
C245 C 0.62374 0.89821 0.96746 0.0
C246 C 0.67442 0.89405 1.0012 0.0
C247 C 0.70711 0.90426 0.05542 0.0
C248 C 0.68995 0.91912 0.07523 0.0
C249 C 0.62686 0.07153 0.07699 0.0
C250 C 0.58429 0.05302 0.92757 0.0
C251 C 0.48671 0.12802 0.92911 0.0
C252 C 0.47517 0.14546 0.95581 0.0
C253 C 0.51477 0.16572 0.00436 0.0
C254 C 0.50269 0.17985 0.03031 0.0
C255 C 0.45083 0.17378 0.00854 0.0
C256 C 0.41134 0.15418 0.95957 0.0
C257 C 0.42339 0.14003 0.9337 0.0
C258 C 0.47869 0.99558 0.9117 0.0
C259 C 0.51622 1.01194 0.0547 0.0
O260 O 0.57386 0.9332 0.03943 0.0
O261 O 0.64905 0.98101 0.07533 0.0
O262 O 0.60526 0.0702 0.02662 0.0
O263 O 0.62532 0.03236 0.10118 0.0
O264 O 0.58676 1.01708 0.96095 0.0
O265 O 0.56882 0.08337 0.92573 0.0
O266 O 0.5355 0.13482 0.95005 0.0
O267 O 0.45928 0.08844 0.91555 0.0
O268 O 0.50168 0.9977 0.96212 0.0
O269 O 0.47852 0.03446 0.88646 0.0
O270 O 0.51688 0.04902 0.02427 0.0
O271 O 0.53486 0.98259 0.05962 0.0
H272 H 0.56715 0.91558 0.96077 0.0
H273 H 0.59767 0.89034 0.92555 0.0
H274 H 0.74644 0.90168 0.08219 0.0
H275 H 0.71673 0.92836 0.11648 0.0
H276 H 0.55508 0.1702 0.0228 0.0
H277 H 0.53393 0.19489 0.06795 0.0
H278 H 0.37104 0.14991 0.94112 0.0
H279 H 0.39209 0.12448 0.89642 0.0
Tb280 Tb 0.30624 0.28027 0.20804 0.0
Tb281 Tb 0.31246 0.27398 0.3091 0.0
C282 C 0.32338 0.2902 0.13867 0.0
C283 C 0.34777 0.27269 0.12729 0.0
C284 C 0.35046 0.29209 0.08246 0.0
C285 C 0.37189 0.27555 0.06932 0.0
C286 C 0.39012 0.23874 0.10021 0.0
C287 C 0.38776 0.21943 0.14546 0.0
C288 C 0.36685 0.23641 0.15904 0.0
C289 C 0.22535 0.22869 0.20721 0.0
C290 C 0.36275 0.21123 0.31439 0.0
C291 C 0.29815 0.26314 0.38102 0.0
C292 C 0.28135 0.28289 0.39934 0.0
C293 C 0.25218 0.31282 0.36452 0.0
C294 C 0.23483 0.32974 0.38235 0.0
C295 C 0.24672 0.317 0.4354 0.0
C296 C 0.27642 0.28732 0.47031 0.0
C297 C 0.2937 0.2705 0.45242 0.0
C298 C 0.39304 0.32562 0.3097 0.0
C299 C 0.25511 0.34306 0.20216 0.0
O300 O 0.35421 0.31272 0.18086 0.0
O301 O 0.28156 0.26378 0.13511 0.0
O302 O 0.27205 0.23326 0.24703 0.0
O303 O 0.22224 0.25328 0.16458 0.0
O304 O 0.35623 0.23416 0.26771 0.0
O305 O 0.34193 0.21789 0.33403 0.0
O306 O 0.26288 0.24615 0.33429 0.0
O307 O 0.342 0.28503 0.38683 0.0
O308 O 0.34638 0.32096 0.27004 0.0
O309 O 0.39659 0.30101 0.35242 0.0
O310 O 0.2647 0.32199 0.2508 0.0
O311 O 0.27259 0.3345 0.18001 0.0
H312 H 0.3358 0.32006 0.05745 0.0
H313 H 0.37301 0.29086 0.03409 0.0
H314 H 0.40189 0.19119 0.17009 0.0
H315 H 0.3649 0.22094 0.19369 0.0
H316 H 0.24152 0.32175 0.3232 0.0
H317 H 0.21115 0.35194 0.35437 0.0
H318 H 0.28623 0.27714 0.51144 0.0
H319 H 0.31621 0.24736 0.47986 0.0
Tb320 Tb 0.54149 0.51436 0.03819 0.0
Tb321 Tb 0.57923 0.55148 0.97142 0.0
C322 C 0.49177 0.47504 0.07874 0.0
C323 C 0.50105 0.4434 0.12667 0.0
C324 C 0.46353 0.40351 0.1197 0.0
C325 C 0.46534 0.37763 0.16501 0.0
C326 C 0.50393 0.39192 0.21718 0.0
C327 C 0.54536 0.42865 0.22507 0.0
C328 C 0.54409 0.45432 0.17985 0.0
C329 C 0.62696 0.57877 0.07965 0.0
C330 C 0.62317 0.47266 0.06602 0.0
C331 C 0.63398 0.59534 0.93782 0.0
C332 C 0.63451 0.63726 0.90453 0.0
C333 C 0.68177 0.66905 0.92116 0.0
C334 C 0.68552 0.70264 0.88304 0.0
C335 C 0.64255 0.70282 0.82802 0.0
C336 C 0.5935 0.67709 0.81477 0.0
C337 C 0.58936 0.64393 0.85301 0.0
C338 C 0.49374 0.48685 0.92942 0.0
C339 C 0.49576 0.59123 0.94165 0.0
O340 O 0.48208 0.46163 0.03805 0.0
O341 O 0.52282 0.51439 0.08873 0.0
O342 O 0.58836 0.57678 0.03045 0.0
O343 O 0.61791 0.54341 0.10817 0.0
O344 O 0.58978 0.46958 0.07543 0.0
O345 O 0.6272 0.50407 0.02901 0.0
O346 O 0.6493 0.59638 0.98722 0.0
O347 O 0.59306 0.56301 0.91294 0.0
O348 O 0.532 0.48927 0.97873 0.0
O349 O 0.50376 0.52152 0.90068 0.0
O350 O 0.5329 0.59715 0.93661 0.0
O351 O 0.48895 0.55762 0.97536 0.0
H352 H 0.4306 0.39412 0.07912 0.0
H353 H 0.43309 0.34948 0.15861 0.0
H354 H 0.57538 0.44003 0.26524 0.0
H355 H 0.57445 0.48442 0.18642 0.0
H356 H 0.71667 0.66529 0.96148 0.0
H357 H 0.72374 0.72285 0.89414 0.0
H358 H 0.55993 0.67795 0.77288 0.0
H359 H 0.55184 0.62094 0.84026 0.0
Tb360 Tb 0.79391 0.26953 0.28859 0.0
Tb361 Tb 0.82468 0.29333 0.21249 0.0
C362 C 0.77443 0.2727 0.35187 0.0
C363 C 0.7483 0.29502 0.35645 0.0
C364 C 0.74177 0.33661 0.3299 0.0
C365 C 0.71651 0.35614 0.33536 0.0
C366 C 0.69761 0.3348 0.36798 0.0
C367 C 0.70477 0.2933 0.39462 0.0
C368 C 0.72952 0.27379 0.38882 0.0
C369 C 0.74223 0.21329 0.21637 0.0
C370 C 0.74607 0.34041 0.18206 0.0
C371 C 0.84405 0.29043 0.14894 0.0
C372 C 0.87248 0.27011 0.14535 0.0
C373 C 0.8925 0.23523 0.18236 0.0
C374 C 0.92032 0.21791 0.17809 0.0
C375 C 0.92856 0.23491 0.1365 0.0
C376 C 0.90681 0.2689 0.09863 0.0
C377 C 0.87967 0.28639 0.10331 0.0
C378 C 0.87467 0.35033 0.28305 0.0
C379 C 0.8731 0.22288 0.31968 0.0
O380 O 0.8173 0.29548 0.35561 0.0
O381 O 0.74477 0.24578 0.31443 0.0
O382 O 0.75548 0.25438 0.20702 0.0
O383 O 0.7552 0.20338 0.26614 0.0
O384 O 0.75464 0.32117 0.23023 0.0
O385 O 0.76643 0.33152 0.1632 0.0
O386 O 0.80318 0.26526 0.14807 0.0
O387 O 0.87187 0.3191 0.18402 0.0
O388 O 0.86251 0.30927 0.29337 0.0
O389 O 0.86259 0.35957 0.23368 0.0
O390 O 0.86603 0.24307 0.27235 0.0
O391 O 0.85112 0.23057 0.33749 0.0
H392 H 0.75582 0.35388 0.30465 0.0
H393 H 0.71096 0.38762 0.31311 0.0
H394 H 0.69155 0.2758 0.42059 0.0
H395 H 0.73415 0.24185 0.41 0.0
H396 H 0.88679 0.22146 0.2146 0.0
H397 H 0.93604 0.19162 0.20786 0.0
H398 H 0.91037 0.28196 0.06481 0.0
H399 H 0.86407 0.31282 0.0737 0.0
Tb400 Tb 0.08483 0.49323 0.5387 0.0
Tb401 Tb 1.03455 0.56287 0.47215 0.0
C402 C 0.12242 0.43086 0.5733 0.0
C403 C 0.13987 0.41207 0.55422 0.0
C404 C 0.10486 0.38115 0.51607 0.0
C405 C 0.12187 0.36496 0.49717 0.0
C406 C 0.17402 0.37969 0.51571 0.0
C407 C 0.20926 0.40939 0.55515 0.0
C408 C 0.19242 0.42528 0.57435 0.0
C409 C 0.13575 0.56498 0.58864 0.0
C410 C 0.09343 0.54715 0.44129 0.0
C411 C 0.99501 0.62353 0.43892 0.0
C412 C 0.97809 0.64045 0.46021 0.0
C413 C 1.01125 0.65277 0.51361 0.0
C414 C 0.99288 0.66637 0.53332 0.0
C415 C 0.94139 0.66839 0.49974 0.0
C416 C 0.90847 0.65633 0.44642 0.0
C417 C 0.92648 0.64187 0.42721 0.0
C418 C 0.98454 0.49217 0.42096 0.0
C419 C 1.02634 0.50879 0.56964 0.0
O420 O 0.07266 0.42615 0.54474 0.0
O421 O 0.15004 0.46984 0.58892 0.0
O422 O 0.11335 0.56376 0.53813 0.0
O423 O 0.1318 0.5256 0.61192 0.0
O424 O 0.09418 0.51068 0.47334 0.0
O425 O 0.079 0.57793 0.4404 0.0
O426 O 1.04482 0.62964 0.46542 0.0
O427 O 0.96803 0.58437 0.42383 0.0
O428 O 1.00597 0.49239 0.47159 0.0
O429 O 0.98859 0.53184 0.39865 0.0
O430 O 1.02696 0.54569 0.53871 0.0
O431 O 1.03992 0.47794 0.56968 0.0
H432 H 0.06424 0.36987 0.50025 0.0
H433 H 0.09405 0.34184 0.46694 0.0
H434 H 0.24993 0.42033 0.57118 0.0
H435 H 0.22063 0.44823 0.60476 0.0
H436 H 1.051 0.65124 0.54042 0.0
H437 H 1.0189 0.67553 0.57464 0.0
H438 H 0.86851 0.6573 0.42001 0.0
H439 H 0.89984 0.63128 0.38657 0.0
Tb440 Tb 0.84885 0.7595 0.29188 0.0
Tb441 Tb 0.77742 0.80634 0.22599 0.0
C442 C 0.90047 0.7101 0.31951 0.0
C443 C 0.91335 0.69766 0.29062 0.0
C444 C 0.87692 0.69155 0.23472 0.0
C445 C 0.88742 0.67577 0.20875 0.0
C446 C 0.93464 0.66609 0.23804 0.0
C447 C 0.97166 0.67344 0.29358 0.0
C448 C 0.9612 0.68951 0.31946 0.0
C449 C 0.87641 0.82551 0.3398 0.0
C450 C 0.86686 0.84129 0.19299 0.0
C451 C 0.72411 0.8556 0.19534 0.0
C452 C 0.69979 0.8638 0.21504 0.0
C453 C 0.68034 0.8307 0.24307 0.0
C454 C 0.66331 0.8407 0.26706 0.0
C455 C 0.66507 0.88378 0.2627 0.0
C456 C 0.68284 0.91651 0.23322 0.0
C457 C 0.70035 0.90663 0.20988 0.0
C458 C 0.75242 0.74118 0.17881 0.0
C459 C 0.75935 0.72328 0.32463 0.0
O460 O 0.85152 0.69696 0.30018 0.0
O461 O 0.92179 0.75006 0.33182 0.0
O462 O 0.85681 0.82524 0.29027 0.0
O463 O 0.88335 0.78754 0.36509 0.0
O464 O 0.87962 0.80583 0.23318 0.0
O465 O 0.82476 0.84715 0.18402 0.0
O466 O 0.7746 0.86623 0.22726 0.0
O467 O 0.70447 0.81855 0.17592 0.0
O468 O 0.76985 0.74109 0.2276 0.0
O469 O 0.74633 0.77928 0.15311 0.0
O470 O 0.74547 0.75797 0.28328 0.0
O471 O 0.80273 0.71878 0.33501 0.0
H472 H 0.8399 0.69821 0.2113 0.0
H473 H 0.85845 0.67081 0.16582 0.0
H474 H 1.00813 0.66573 0.31738 0.0
H475 H 0.99008 0.69483 0.36224 0.0
H476 H 0.67934 0.79741 0.24749 0.0
H477 H 0.64972 0.81508 0.28978 0.0
H478 H 0.68458 0.94996 0.22966 0.0
H479 H 0.7158 0.93278 0.18919 0.0
Tb480 Tb 0.77722 0.25601 0.7696 0.0
Tb481 Tb 0.84927 0.30256 0.74255 0.0
C482 C 0.70899 0.19431 0.77231 0.0
C483 C 0.69803 0.14746 0.77458 0.0
C484 C 0.65118 0.12577 0.73032 0.0
C485 C 0.62596 0.08376 0.74082 0.0
C486 C 0.6471 0.06568 0.79519 0.0
C487 C 0.70078 0.08048 0.83364 0.0
C488 C 0.72609 0.12305 0.82439 0.0
C489 C 0.84929 0.31985 0.83001 0.0
C490 C 0.86847 0.21331 0.8145 0.0
C491 C 0.91823 0.36459 0.74123 0.0
C492 C 0.92709 0.41147 0.736 0.0
C493 C 0.97379 0.43578 0.77788 0.0
C494 C 0.99464 0.47875 0.76413 0.0
C495 C 0.96992 0.49466 0.70879 0.0
C496 C 0.91639 0.47659 0.67315 0.0
C497 C 0.89523 0.43343 0.68573 0.0
C498 C 0.77679 0.23835 0.6821 0.0
C499 C 0.75785 0.34523 0.69763 0.0
O500 O 0.7015 0.21671 0.72644 0.0
O501 O 0.75045 0.2134 0.81623 0.0
O502 O 0.8554 0.29393 0.81534 0.0
O503 O 0.80208 0.30736 0.8157 0.0
O504 O 0.82632 0.20961 0.81019 0.0
O505 O 0.88669 0.24914 0.7917 0.0
O506 O 0.92404 0.34349 0.78686 0.0
O507 O 0.87855 0.34405 0.69778 0.0
O508 O 0.77092 0.26455 0.69668 0.0
O509 O 0.82411 0.25077 0.6966 0.0
O510 O 0.79947 0.34866 0.70102 0.0
O511 O 0.74015 0.30963 0.72112 0.0
H512 H 0.62984 0.14337 0.69056 0.0
H513 H 0.58546 0.07173 0.71018 0.0
H514 H 0.71919 0.06481 0.87521 0.0
H515 H 0.76397 0.13828 0.85838 0.0
H516 H 0.99776 0.42002 0.81813 0.0
H517 H 1.03483 0.4944 0.7928 0.0
H518 H 0.89502 0.49063 0.631 0.0
H519 H 0.85728 0.41615 0.6538 0.0
Tb520 Tb 0.80711 0.78308 0.70429 0.0
Tb521 Tb 0.83003 0.78727 0.81195 0.0
C522 C 0.80861 0.78366 0.62607 0.0
C523 C 0.82704 0.76321 0.61026 0.0
C524 C 0.87286 0.75038 0.64866 0.0
C525 C 0.89098 0.73366 0.63154 0.0
C526 C 0.86295 0.72868 0.57591 0.0
C527 C 0.81647 0.74069 0.53788 0.0
C528 C 0.79879 0.75789 0.55494 0.0
C529 C 0.73288 0.73948 0.71719 0.0
C530 C 0.87129 0.71866 0.8131 0.0
C531 C 0.82725 0.78781 0.88898 0.0
C532 C 0.80448 0.80632 0.90163 0.0
C533 C 0.75783 0.81761 0.86088 0.0
C534 C 0.73558 0.83243 0.8749 0.0
C535 C 0.76036 0.83735 0.92984 0.0
C536 C 0.8079 0.82718 0.97018 0.0
C537 C 0.82951 0.81162 0.95621 0.0
C538 C 0.90445 0.83115 0.79918 0.0
C539 C 0.76472 0.85052 0.70254 0.0
O540 O 0.84371 0.8103 0.66424 0.0
O541 O 0.77129 0.7584 0.63148 0.0
O542 O 0.78024 0.74274 0.75247 0.0
O543 O 0.72472 0.7606 0.67116 0.0
O544 O 0.85672 0.73671 0.76214 0.0
O545 O 0.85982 0.73073 0.83892 0.0
O546 O 0.79544 0.75841 0.85413 0.0
O547 O 0.86261 0.81522 0.88142 0.0
O548 O 0.85704 0.82788 0.76369 0.0
O549 O 0.91233 0.8098 0.84505 0.0
O550 O 0.77795 0.8318 0.7529 0.0
O551 O 0.77867 0.83984 0.67831 0.0
H552 H 0.89544 0.75467 0.69145 0.0
H553 H 0.92755 0.72568 0.66161 0.0
H554 H 0.79384 0.73689 0.49486 0.0
H555 H 0.76321 0.76751 0.52473 0.0
H556 H 0.73834 0.81438 0.81844 0.0
H557 H 0.69851 0.83919 0.84285 0.0
H558 H 0.82844 0.83117 0.01271 0.0
H559 H 0.86576 0.80339 0.98825 0.0
Tb560 Tb 0.54645 0.51052 0.48791 0.0
Tb561 Tb 0.58218 0.54873 0.53168 0.0
C562 C 0.50794 0.44934 0.43124 0.0
C563 C 0.53014 0.43423 0.41352 0.0
C564 C 0.55254 0.46209 0.38579 0.0
C565 C 0.5791 0.44753 0.37666 0.0
C566 C 0.58579 0.40514 0.39674 0.0
C567 C 0.56293 0.37759 0.42427 0.0
C568 C 0.53527 0.39168 0.43188 0.0
C569 C 0.48217 0.47184 0.54698 0.0
C570 C 0.64526 0.48578 0.57663 0.0
C571 C 0.62418 0.60763 0.59269 0.0
C572 C 0.60487 0.6185 0.61689 0.0
C573 C 0.56404 0.5889 0.62047 0.0
C574 C 0.5371 0.60283 0.62966 0.0
C575 C 0.55012 0.64689 0.63558 0.0
C576 C 0.59162 0.67591 0.63267 0.0
C577 C 0.61855 0.662 0.6238 0.0
C578 C 0.64512 0.58785 0.47088 0.0
C579 C 0.48352 0.574 0.44489 0.0
O580 O 0.49583 0.48611 0.40989 0.0
O581 O 0.53263 0.44543 0.48365 0.0
O582 O 0.52885 0.48607 0.55226 0.0
O583 O 0.52856 0.48518 0.55405 0.0
O584 O 0.61745 0.49242 0.52365 0.0
O585 O 0.63496 0.5058 0.59553 0.0
O586 O 0.63793 0.57186 0.6105 0.0
O587 O 0.59518 0.61244 0.53991 0.0
O588 O 0.59891 0.5737 0.4666 0.0
O589 O 0.59919 0.57461 0.46479 0.0
O590 O 0.51429 0.5696 0.4978 0.0
O591 O 0.48966 0.55103 0.42462 0.0
H592 H 0.54995 0.49525 0.37152 0.0
H593 H 0.59382 0.46959 0.35327 0.0
H594 H 0.56724 0.34506 0.44135 0.0
H595 H 0.51933 0.3695 0.45421 0.0
H596 H 0.55099 0.55542 0.61307 0.0
H597 H 0.5042 0.57929 0.62889 0.0
H598 H 0.60248 0.71014 0.63529 0.0
H599 H 0.64827 0.68596 0.61904 0.0
Tb600 Tb 1.04815 0.51764 0.04164 0.0
Tb601 Tb 0.07609 0.54307 0.96738 0.0
C602 C 1.02479 0.5116 0.10454 0.0
C603 C 1.00427 0.53567 0.11351 0.0
C604 C 1.00918 0.5803 0.0967 0.0
C605 C 0.99354 0.60309 0.11039 0.0
C606 C 0.97319 0.58161 0.14141 0.0
C607 C 0.96582 0.53647 0.15547 0.0
C608 C 0.98125 0.51374 0.14163 0.0
C609 C 1.0001 0.45873 0.97339 0.0
C610 C 0.99683 0.58782 0.93701 0.0
C611 C 0.09786 0.54893 0.90331 0.0
C612 C 0.1171 0.52498 0.89266 0.0
C613 C 0.10609 0.47949 0.90221 0.0
C614 C 0.11929 0.45736 0.88501 0.0
C615 C 0.14491 0.48047 0.85942 0.0
C616 C 0.15819 0.52615 0.85279 0.0
C617 C 0.14415 0.54814 0.869 0.0
C618 C 0.12452 0.60254 0.03482 0.0
C619 C 0.1281 0.4734 0.07301 0.0
O620 O 0.07139 0.53015 0.11606 0.0
O621 O 0.99286 0.49357 0.0589 0.0
O622 O 1.00798 0.49946 0.9612 0.0
O623 O 1.01793 0.4502 0.02456 0.0
O624 O 1.00983 0.57124 0.98741 0.0
O625 O 1.01453 0.57695 0.91702 0.0
O626 O 1.05138 0.53081 0.89224 0.0
O627 O 0.13074 0.56648 0.94936 0.0
O628 O 0.11646 0.56177 0.04769 0.0
O629 O 0.10667 0.61047 0.98367 0.0
O630 O 0.1149 0.48956 0.02237 0.0
O631 O 0.11029 0.4845 0.09269 0.0
H632 H 1.02651 0.59773 0.07456 0.0
H633 H 0.99862 0.63766 0.09797 0.0
H634 H 0.95033 0.51905 0.1794 0.0
H635 H 0.97691 0.47926 0.15464 0.0
H636 H 0.08506 0.46105 0.92036 0.0
H637 H 0.10727 0.42218 0.88952 0.0
H638 H 0.17857 0.54494 0.834 0.0
H639 H 0.15325 0.58329 0.86171 0.0
C640 C 0.23873 0.15153 0.90185 0.0
C641 C 0.22344 0.18622 0.85474 0.0
C642 C 0.21255 0.12304 0.9316 0.0
C643 C 0.16374 0.12048 0.92274 0.0
H644 H 0.27435 0.14546 0.91809 0.0
H645 H 0.233 0.10047 0.9649 0.0
S646 S 0.09763 0.20281 0.80461 0.0
N647 N 0.1477 0.21295 0.8034 0.0
N648 N 0.10303 0.16377 0.85457 0.0
C649 C 0.14716 0.15513 0.87528 0.0
C650 C 0.1742 0.18481 0.84464 0.0
C651 C 0.18371 0.92809 0.15526 0.0
C652 C 0.17584 0.95227 0.10544 0.0
C653 C 0.2084 0.89357 0.1823 0.0
C654 C 0.22839 0.88143 0.16242 0.0
H655 H 0.1693 0.93501 0.173 0.0
H656 H 0.21234 0.87646 0.2198 0.0
S657 S 0.21839 0.9334 0.03359 0.0
N658 N 0.18999 0.95961 0.03727 0.0
N659 N 0.23772 0.89778 0.08852 0.0
C660 C 0.22149 0.90583 0.11317 0.0
C661 C 0.19506 0.94002 0.08484 0.0
C662 C 0.44337 0.92365 0.39025 0.0
C663 C 0.46182 0.91743 0.44562 0.0
C664 C 0.40862 0.88918 0.35666 0.0
C665 C 0.39095 0.84709 0.37708 0.0
H666 H 0.45605 0.95522 0.37281 0.0
H667 H 0.39541 0.89568 0.3143 0.0
S668 S 0.42382 0.81462 0.51769 0.0
N669 N 0.45708 0.86612 0.51816 0.0
N670 N 0.3927 0.80218 0.45557 0.0
C671 C 0.40849 0.84077 0.43202 0.0
C672 C 0.44365 0.87564 0.46608 0.0
C673 C 0.47985 0.15581 0.7107 0.0
C674 C 0.44095 0.13542 0.71962 0.0
C675 C 0.48899 0.13425 0.6885 0.0
C676 C 0.45965 0.09144 0.67462 0.0
H677 H 0.50355 0.18863 0.72123 0.0
H678 H 0.52026 0.15088 0.6836 0.0
S679 S 0.35054 1.02495 0.68645 0.0
N680 N 0.3714 0.0708 0.71102 0.0
N681 N 0.38771 0.03052 0.66814 0.0
C682 C 0.41956 0.07115 0.68194 0.0
C683 C 0.41035 0.09312 0.7046 0.0
C684 C 0.14952 0.90549 0.62457 0.0
C685 C 0.15757 0.94154 0.58963 0.0
C686 C 0.17749 0.8736 0.65189 0.0
C687 C 0.21453 0.87461 0.64513 0.0
H688 H 0.12155 0.90198 0.63159 0.0
H689 H 0.16961 0.84753 0.67865 0.0
S690 S 0.25079 0.96125 0.55786 0.0
N691 N 0.20667 0.97559 0.5504 0.0
N692 N 0.25723 0.9159 0.5998 0.0
C693 C 0.22253 0.91013 0.60976 0.0
C694 C 0.19483 0.9432 0.58279 0.0
C695 C 0.40802 0.92847 0.79523 0.0
C696 C 0.40156 0.88487 0.8181 0.0
C697 C 0.43322 0.9631 0.82641 0.0
C698 C 0.45307 0.9563 0.88225 0.0
H699 H 0.39336 0.93623 0.75238 0.0
H700 H 0.43709 0.99578 0.80609 0.0
S701 S 0.44835 0.84859 0.96331 0.0
N702 N 0.41965 0.8368 0.90142 0.0
N703 N 0.46474 0.90215 0.95952 0.0
C704 C 0.44726 0.91292 0.90616 0.0
C705 C 0.42207 0.87724 0.87428 0.0
C706 C 0.46223 0.2309 0.05206 0.0
C707 C 0.43787 0.1885 0.03627 0.0
C708 C 0.44804 0.2463 0.07492 0.0
C709 C 0.40923 0.21992 0.08301 0.0
H710 H 0.49145 0.25272 0.04533 0.0
H711 H 0.46713 0.27923 0.08603 0.0
S712 S 0.33918 0.10459 0.05636 0.0
N713 N 0.37673 0.11917 0.03566 0.0
N714 N 0.35018 0.1482 0.07842 0.0
C715 C 0.38658 0.17685 0.0702 0.0
C716 C 0.40072 0.16123 0.04665 0.0
C717 C 0.13333 0.23067 0.2301 0.0
C718 C 0.12767 0.18986 0.25933 0.0
C719 C 0.16023 0.2415 0.20695 0.0
C720 C 0.18422 0.21256 0.215 0.0
H721 H 0.11944 0.25507 0.22783 0.0
H722 H 0.16585 0.2739 0.1867 0.0
S723 S 0.18052 0.10189 0.28779 0.0
N724 N 0.14613 0.11969 0.29271 0.0
N725 N 0.19949 0.14149 0.25208 0.0
C726 C 0.17728 0.17127 0.24227 0.0
C727 C 0.14836 0.15957 0.26393 0.0
C728 C 0.95214 0.1724 0.13828 0.0
C729 C 0.9593 0.21748 0.13206 0.0
C730 C 0.97879 0.15564 0.13157 0.0
C731 C 1.01405 0.18304 0.11821 0.0
H732 H 0.92472 0.14966 0.14721 0.0
H733 H 0.97056 0.1207 0.13569 0.0
S734 S 1.05153 0.30425 0.10391 0.0
N735 N 1.0081 0.28937 0.11679 0.0
N736 N 1.0567 0.2586 0.10276 0.0
C737 C 1.02222 0.2284 0.11298 0.0
C738 C 0.99551 0.24534 0.12042 0.0
C739 C 0.10865 0.59058 0.37093 0.0
C740 C 0.10276 0.55053 0.40108 0.0
C741 C 0.11888 0.59505 0.33367 0.0
C742 C 0.12365 0.55967 0.32521 0.0
H743 H 0.10674 0.61903 0.37707 0.0
H744 H 0.12567 0.62711 0.3132 0.0
S745 S 0.10389 0.44651 0.38716 0.0
N746 N 0.09621 0.47318 0.4151 0.0
N747 N 0.1174 0.48296 0.34538 0.0
C748 C 0.11547 0.51903 0.35275 0.0
C749 C 0.10448 0.5141 0.39064 0.0
C750 C 0.67906 0.92221 0.66153 0.0
C751 C 0.66508 0.94301 0.60853 0.0
C752 C 0.7112 0.89326 0.69166 0.0
C753 C 0.73171 0.88313 0.67094 0.0
H754 H 0.66465 0.92801 0.68004 0.0
H755 H 0.71959 0.87833 0.73156 0.0
S756 S 0.70876 0.92916 0.53485 0.0
N757 N 0.67631 0.95112 0.53782 0.0
N758 N 0.73519 0.89787 0.59294 0.0
C759 C 0.71833 0.90404 0.61819 0.0
C760 C 0.68573 0.9334 0.58766 0.0
C761 C 0.42109 0.44349 0.84944 0.0
C762 C 0.45681 0.44488 0.90639 0.0
C763 C 0.39067 0.40369 0.82662 0.0
C764 C 0.39471 0.36369 0.85983 0.0
H765 H 0.41781 0.47333 0.82213 0.0
H766 H 0.36502 0.40434 0.78245 0.0
S767 S 0.47997 0.34974 0.01154 0.0
N768 N 0.49242 0.4028 0.9956 0.0
N769 N 0.43518 0.3282 0.95285 0.0
C770 C 0.42844 0.36468 0.91691 0.0
C771 C 0.45948 0.4052 0.94013 0.0
C772 C 0.8923 0.90156 0.35076 0.0
C773 C 0.91142 0.86597 0.36695 0.0
C774 C 0.92606 0.94239 0.36992 0.0
C775 C 0.98006 0.94928 0.40427 0.0
H776 H 0.85107 0.89802 0.32244 0.0
H777 H 0.90993 0.96915 0.35591 0.0
S778 S 1.04955 0.86612 0.46126 0.0
N779 N 0.98768 0.83972 0.42238 0.0
N780 N 1.05095 0.91656 0.45631 0.0
C781 C 0.9995 0.91366 0.42191 0.0
C782 C 0.96521 0.87194 0.40378 0.0
C783 C 0.51267 0.70587 0.61752 0.0
C784 C 0.51928 0.66371 0.64108 0.0
C785 C 0.48563 0.72328 0.62264 0.0
C786 C 0.46212 0.69939 0.65029 0.0
H787 H 0.5281 0.72602 0.59416 0.0
H788 H 0.4828 0.75593 0.60407 0.0
S789 S 0.46931 0.58841 0.7226 0.0
N790 N 0.50173 0.59939 0.69656 0.0
N791 N 0.44869 0.63132 0.70332 0.0
C792 C 0.46762 0.65701 0.67365 0.0
C793 C 0.49652 0.63948 0.66973 0.0
C794 C 0.59633 1.01815 0.88077 0.0
C795 C 0.59287 0.05552 0.88709 0.0
C796 C 0.60883 1.02013 0.84608 0.0
C797 C 0.61726 0.05924 0.81605 0.0
H798 H 0.59119 0.98738 0.90416 0.0
H799 H 0.61456 0.99169 0.8449 0.0
S800 S 0.60867 0.16537 0.81454 0.0
N801 N 0.59562 0.13185 0.85787 0.0
N802 N 0.61733 0.13551 0.79123 0.0
C803 C 0.60972 0.09596 0.81862 0.0
C804 C 0.59802 0.09413 0.85464 0.0
C805 C 0.17492 0.42363 0.08459 0.0
C806 C 0.16142 0.44081 0.10716 0.0
C807 C 0.20482 0.39291 0.11518 0.0
C808 C 0.22353 0.37698 0.17067 0.0
H809 H 0.16193 0.43376 0.04238 0.0
H810 H 0.21296 0.38126 0.09454 0.0
S811 S 0.20208 0.41253 0.25133 0.0
N812 N 0.17136 0.43948 0.19038 0.0
N813 N 0.22694 0.38332 0.24675 0.0
C814 C 0.21078 0.3943 0.19384 0.0
C815 C 0.18022 0.4255 0.16269 0.0
C816 C 0.65374 0.74816 0.75422 0.0
C817 C 0.65288 0.70917 0.78794 0.0
C818 C 0.67555 0.75668 0.72607 0.0
C819 C 0.69758 0.72663 0.73247 0.0
H820 H 0.64052 0.77291 0.75228 0.0
H821 H 0.67815 0.78781 0.70229 0.0
S822 S 0.69471 0.6167 0.80716 0.0
N823 N 0.66695 0.63745 0.81832 0.0
N824 N 0.71046 0.65467 0.7679 0.0
C825 C 0.69254 0.68625 0.76205 0.0
C826 C 0.66924 0.67711 0.7891 0.0
C827 C 0.71835 0.40818 0.11283 0.0
C828 C 0.71304 0.37305 0.15019 0.0
C829 C 0.69004 0.43993 0.08641 0.0
C830 C 0.65427 0.43865 0.0953 0.0
H831 H 0.74547 0.41178 0.10455 0.0
H832 H 0.69653 0.46593 0.05871 0.0
S833 S 0.62229 0.35185 0.18596 0.0
N834 N 0.66623 0.33854 0.19193 0.0
N835 N 0.61433 0.39678 0.1435 0.0
C836 C 0.64803 0.40318 0.13182 0.0
C837 C 0.67683 0.37109 0.15872 0.0
C838 C 0.95301 0.41065 0.41057 0.0
C839 C 0.9542 0.45432 0.38757 0.0
C840 C 0.92642 0.3764 0.37722 0.0
C841 C 0.9001 0.38468 0.31975 0.0
H842 H 0.97337 0.40295 0.45446 0.0
H843 H 0.92744 0.34352 0.39662 0.0
S844 S 0.88789 0.4926 0.23878 0.0
N845 N 0.92391 0.50284 0.30283 0.0
N846 N 0.87467 0.43968 0.24171 0.0
C847 C 0.89992 0.42797 0.29661 0.0
C848 C 0.92671 0.46238 0.33002 0.0
C849 C 0.71782 0.62752 0.43794 0.0
C850 C 0.6675 0.62296 0.42744 0.0
C851 C 0.74381 0.65626 0.408 0.0
C852 C 0.72709 0.68953 0.35926 0.0
H853 H 0.74013 0.60678 0.47312 0.0
H854 H 0.78068 0.6518 0.42566 0.0
S855 S 0.59768 0.70142 0.30512 0.0
N856 N 0.60415 0.66329 0.35619 0.0
N857 N 0.64879 0.71309 0.30517 0.0
C858 C 0.67668 0.68642 0.3479 0.0
C859 C 0.64967 0.65635 0.37851 0.0
C860 C 0.92571 0.34674 0.92124 0.0
C861 C 0.8909 0.35579 0.86458 0.0
C862 C 0.96169 0.38044 0.95551 0.0
C863 C 0.9647 0.4246 0.93451 0.0
H864 H 0.92406 0.31334 0.93946 0.0
H865 H 0.98676 0.37169 0.99913 0.0
S866 S 0.88448 0.46537 0.78794 0.0
N867 N 0.86305 0.41191 0.78841 0.0
N868 N 0.93131 0.4752 0.85238 0.0
C869 C 0.93146 0.43403 0.87748 0.0
C870 C 0.89433 0.39963 0.84269 0.0
C871 C 0.94888 0.8771 0.16865 0.0
C872 C 0.89883 0.8743 0.15789 0.0
C873 C 0.97538 0.90567 0.1386 0.0
C874 C 0.95842 0.93891 0.08937 0.0
H875 H 0.97017 0.85556 0.20335 0.0
H876 H 1.01157 0.90029 0.15557 0.0
S877 S 0.82903 0.95118 0.03387 0.0
N878 N 0.83606 0.91433 0.08603 0.0
N879 N 0.88004 0.96188 0.03425 0.0
C880 C 0.90828 0.9359 0.07806 0.0
C881 C 0.88172 0.90729 0.10897 0.0
C882 C 0.89864 0.15007 0.89164 0.0
C883 C 0.89524 0.17614 0.84447 0.0
C884 C 0.92526 0.11689 0.9209 0.0
C885 C 0.94843 0.10608 0.90376 0.0
H886 H 0.88174 0.15613 0.9072 0.0
H887 H 0.92765 0.09943 0.95758 0.0
S888 S 0.94996 0.16284 0.78213 0.0
N889 N 0.91829 0.18769 0.78261 0.0
N890 N 0.96506 0.12517 0.83499 0.0
C891 C 0.94418 0.13118 0.85595 0.0
C892 C 0.91864 0.16588 0.82725 0.0
C893 C 0.69905 0.21157 0.59082 0.0
C894 C 0.73481 0.20242 0.64726 0.0
C895 C 0.66212 0.17796 0.5564 0.0
C896 C 0.6589 0.13369 0.57699 0.0
H897 H 0.70055 0.24502 0.57284 0.0
H898 H 0.63627 0.18685 0.51298 0.0
S899 S 0.74145 0.09255 0.723 0.0
N900 N 0.76341 0.14598 0.72278 0.0
N901 N 0.69345 0.08295 0.65873 0.0
C902 C 0.69326 0.12417 0.63386 0.0
C903 C 0.73138 0.15848 0.66875 0.0
C904 C 0.59094 0.91939 0.28599 0.0
C905 C 0.62941 0.93371 0.33839 0.0
C906 C 0.60187 0.90107 0.2624 0.0
C907 C 0.65129 0.89578 0.29111 0.0
H908 H 0.55281 0.92386 0.26234 0.0
H909 H 0.57221 0.89249 0.22083 0.0
S910 S 0.76347 0.92396 0.43149 0.0
N911 N 0.71743 0.93879 0.41956 0.0
N912 N 0.73772 0.90329 0.3758 0.0
C913 C 0.68903 0.90755 0.34472 0.0
C914 C 0.67809 0.9267 0.36836 0.0
C915 C 0.89515 0.15173 0.38252 0.0
C916 C 0.90619 0.19036 0.352 0.0
C917 C 0.92326 0.11991 0.40876 0.0
C918 C 0.96485 0.12478 0.40697 0.0
H919 H 0.86357 0.14541 0.38523 0.0
H920 H 0.91222 0.09112 0.43095 0.0
S921 S 1.01236 0.22109 0.3356 0.0
N922 N 0.96393 0.2317 0.32397 0.0
N923 N 1.01599 0.17343 0.37265 0.0
C924 C 0.97683 0.16373 0.37745 0.0
C925 C 0.94792 0.19578 0.35034 0.0
C926 C 0.70451 0.13571 0.19819 0.0
C927 C 0.71214 0.17973 0.17721 0.0
C928 C 0.67685 0.10207 0.1649 0.0
C929 C 0.65547 0.11021 0.10853 0.0
H930 H 0.72013 0.12679 0.24123 0.0
H931 H 0.67241 0.06902 0.18413 0.0
S932 S 0.66299 0.21975 0.03186 0.0
N933 N 0.69391 0.22985 0.09516 0.0
N934 N 0.64421 0.16627 0.03297 0.0
C935 C 0.66269 0.15409 0.08649 0.0
C936 C 0.6904 0.18882 0.12064 0.0
C937 C 0.73687 0.83086 0.99251 0.0
C938 C 0.73655 0.85188 0.94583 0.0
C939 C 0.71621 0.84442 0.00963 0.0
C940 C 0.69377 0.8792 0.98049 0.0
H941 H 0.75324 0.8036 0.01613 0.0
H942 H 0.7179 0.82764 0.04613 0.0
S943 S 0.68678 0.94762 0.8584 0.0
N944 N 0.71454 0.91118 0.87273 0.0
N945 N 0.6747 0.93584 0.90442 0.0
C946 C 0.69313 0.90058 0.93386 0.0
C947 C 0.71469 0.88711 0.91665 0.0
C948 C 0.98484 0.82755 0.76076 0.0
C949 C 0.9912 0.8694 0.73375 0.0
C950 C 0.96095 0.81616 0.78734 0.0
C951 C 0.94128 0.84594 0.78538 0.0
H952 H 0.99482 0.80281 0.75779 0.0
H953 H 0.95436 0.78311 0.80565 0.0
S954 S 0.95598 0.96109 0.72777 0.0
N955 N 0.98325 0.94231 0.71389 0.0
N956 N 0.93558 0.91989 0.76117 0.0
C957 C 0.95135 0.88865 0.76264 0.0
C958 C 0.97726 0.90071 0.73753 0.0
C959 C 0.1459 0.8917 0.83844 0.0
C960 C 0.1588 0.85214 0.86655 0.0
C961 C 0.11985 0.9083 0.84628 0.0
C962 C 0.10612 0.88652 0.88332 0.0
H963 H 0.15496 0.90953 0.80911 0.0
H964 H 0.10944 0.93803 0.8221 0.0
S965 S 0.13795 0.78498 0.97311 0.0
N966 N 0.15941 0.79354 0.93624 0.0
N967 N 0.11357 0.82547 0.95307 0.0
C968 C 0.12122 0.84799 0.91357 0.0
C969 C 0.14666 0.83072 0.90473 0.0
C970 C 1.00886 0.54174 0.61284 0.0
C971 C 1.01746 0.50583 0.61006 0.0
C972 C 0.99891 0.53995 0.64962 0.0
C973 C 0.99776 0.50253 0.6851 0.0
H974 H 1.00819 0.57116 0.58534 0.0
H975 H 0.98956 0.56699 0.64856 0.0
S976 S 1.02233 0.40098 0.69777 0.0
N977 N 1.02742 0.43282 0.64843 0.0
N978 N 1.01024 0.42976 0.71873 0.0
C979 C 1.00996 0.46749 0.68549 0.0
C980 C 1.01919 0.46901 0.64745 0.0
C981 C 0.45295 0.14162 0.36167 0.0
C982 C 0.45747 0.11455 0.40895 0.0
C983 C 0.42252 0.17196 0.33143 0.0
C984 C 0.39419 0.17731 0.34613 0.0
H985 H 0.47376 0.13986 0.34798 0.0
H986 H 0.42175 0.19179 0.29634 0.0
S987 S 0.38945 0.11308 0.46443 0.0
N988 N 0.42804 0.09476 0.46687 0.0
N989 N 0.3722 0.15059 0.41157 0.0
C990 C 0.3978 0.14994 0.39287 0.0
C991 C 0.42878 0.11916 0.42359 0.0
C992 C 0.69652 0.62092 0.16076 0.0
C993 C 0.66402 0.62032 0.10365 0.0
C994 C 0.72648 0.66021 0.18453 0.0
C995 C 0.72544 0.70056 0.15221 0.0
H996 H 0.69737 0.59087 0.18741 0.0
H997 H 0.74923 0.65886 0.22863 0.0
S998 S 0.65149 0.71677 1.00077 0.0
N999 N 0.63585 0.66353 0.01535 0.0
N1000 N 0.69264 0.73727 0.0602 0.0
C1001 C 0.69546 0.70039 0.09518 0.0
C1002 C 0.66467 0.66031 0.07086 0.0
C1003 C 0.17711 0.19107 0.59382 0.0
C1004 C 0.21772 0.1908 0.65011 0.0
C1005 C 0.14137 0.15214 0.57008 0.0
C1006 C 0.14592 0.11152 0.60131 0.0
H1007 H 0.1715 0.22157 0.5683 0.0
H1008 H 0.10937 0.15393 0.52723 0.0
S1009 S 0.24549 0.09222 0.74938 0.0
N1010 N 0.2597 0.14566 0.7361 0.0
N1011 N 0.19432 0.07293 0.69048 0.0
C1012 C 0.187 0.11055 0.6569 0.0
C1013 C 0.22255 0.15007 0.68149 0.0
C1014 C 0.62591 0.32816 0.37405 0.0
C1015 C 0.66953 0.35454 0.37383 0.0
C1016 C 0.60013 0.34464 0.38199 0.0
C1017 C 0.61527 0.38886 0.38874 0.0
H1018 H 0.61122 0.29411 0.36795 0.0
H1019 H 0.56742 0.32203 0.38225 0.0
S1020 S 0.73082 0.47132 0.39734 0.0
N1021 N 0.72931 0.42689 0.38536 0.0
N1022 N 0.68052 0.45801 0.39917 0.0
C1023 C 0.65943 0.41565 0.38931 0.0
C1024 C 0.68626 0.39861 0.38187 0.0
C1025 C 0.53256 1.00045 0.14467 0.0
C1026 C 0.49936 1.00768 0.08789 0.0
C1027 C 0.51945 1.00171 0.17735 0.0
C1028 C 0.47157 1.00838 0.15407 0.0
H1029 H 0.56887 0.99396 0.16392 0.0
H1030 H 0.54548 0.99383 0.22082 0.0
S1031 S 0.37793 0.03922 0.00691 0.0
N1032 N 0.42207 0.02952 0.00943 0.0
N1033 N 0.39721 0.03216 0.07097 0.0
C1034 C 0.44152 1.02107 0.09747 0.0
C1035 C 0.45496 1.0198 0.06426 0.0
C1036 C 0.94862 0.63532 0.92666 0.0
C1037 C 0.96382 0.62055 0.90381 0.0
C1038 C 0.91906 0.66616 0.89742 0.0
C1039 C 0.90227 0.68453 0.84301 0.0
H1040 H 0.95996 0.62315 0.9681 0.0
H1041 H 0.9095 0.67581 0.91821 0.0
S1042 S 0.93019 0.65714 0.76251 0.0
N1043 N 0.95844 0.62745 0.82177 0.0
N1044 N 0.90361 0.68413 0.76773 0.0
C1045 C 0.9169 0.66983 0.81949 0.0
C1046 C 0.94718 0.63849 0.84936 0.0
C1047 C 0.48302 0.33465 0.27828 0.0
C1048 C 0.49033 0.37814 0.25596 0.0
C1049 C 0.45697 0.31877 0.30318 0.0
C1050 C 0.43469 0.34535 0.30265 0.0
H1051 H 0.49545 0.31251 0.27427 0.0
H1052 H 0.45042 0.28474 0.31845 0.0
S1053 S 0.44254 0.46105 0.24882 0.0
N1054 N 0.47554 0.44789 0.23725 0.0
N1055 N 0.42257 0.41672 0.27978 0.0
C1056 C 0.44321 0.38904 0.2822 0.0
C1057 C 0.47179 0.40574 0.25944 0.0
C1058 C 0.4319 0.62655 0.92349 0.0
C1059 C 0.46336 0.62429 0.91073 0.0
C1060 C 0.40342 0.65832 0.89599 0.0
C1061 C 0.40409 0.68971 0.85349 0.0
H1062 H 0.42943 0.60367 0.9555 0.0
H1063 H 0.38004 0.65778 0.90776 0.0
S1064 S 0.47987 0.69869 0.80329 0.0
N1065 N 0.49261 0.65753 0.85162 0.0
N1066 N 0.44032 0.71557 0.80092 0.0
C1067 C 0.4354 0.68759 0.84044 0.0
C1068 C 0.46447 0.65566 0.86856 0.0
C1069 C 0.16487 0.64682 0.59503 0.0
C1070 C 0.16665 0.60394 0.62026 0.0
C1071 C 0.19105 0.68228 0.62642 0.0
C1072 C 0.22004 0.67606 0.68413 0.0
H1073 H 0.14224 0.65293 0.55089 0.0
H1074 H 0.18733 0.71439 0.60535 0.0
S1075 S 0.2426 0.57138 0.77046 0.0
N1076 N 0.20394 0.55865 0.7071 0.0
N1077 N 0.2526 0.62415 0.76487 0.0
C1078 C 0.22393 0.63371 0.70953 0.0
C1079 C 0.19746 0.59803 0.678 0.0
C1080 C 0.381 0.40313 0.60661 0.0
C1081 C 0.39795 0.37079 0.65631 0.0
C1082 C 0.40769 0.43176 0.57738 0.0
C1083 C 0.45899 0.43702 0.58972 0.0
H1084 H 0.34342 0.40689 0.58754 0.0
H1085 H 0.38512 0.45175 0.54121 0.0
S1086 S 0.53037 0.36176 0.71597 0.0
N1087 N 0.478 0.34926 0.71397 0.0
N1088 N 0.52379 0.3989 0.66406 0.0
C1089 C 0.47718 0.40472 0.63976 0.0
C1090 C 0.44949 0.37477 0.66968 0.0
C1091 C 0.20877 0.71453 0.08543 0.0
C1092 C 0.23358 0.70681 0.14225 0.0
C1093 C 0.17313 0.6807 0.05148 0.0
C1094 C 0.16152 0.63719 0.07295 0.0
H1095 H 0.21736 0.74711 0.06709 0.0
H1096 H 0.15502 0.6888 0.00788 0.0
S1097 S 0.22005 0.59834 0.21996 0.0
N1098 N 0.24604 0.65154 0.21908 0.0
N1099 N 0.18034 0.58796 0.15543 0.0
C1100 C 0.18703 0.62867 0.12995 0.0
C1101 C 0.2228 0.66337 0.16455 0.0
C1102 C 0.72565 0.40785 0.61986 0.0
C1103 C 0.7311 0.38244 0.66819 0.0
C1104 C 0.69876 0.44087 0.59119 0.0
C1105 C 0.67732 0.45216 0.61003 0.0
H1106 H 0.74108 0.40138 0.60292 0.0
H1107 H 0.69476 0.4578 0.55359 0.0
S1108 S 0.68199 0.39745 0.73553 0.0
N1109 N 0.71216 0.37222 0.73321 0.0
N1110 N 0.66493 0.43438 0.68189 0.0
C1111 C 0.68376 0.42778 0.65905 0.0
C1112 C 0.70958 0.39328 0.6872 0.0
C1113 C 0.90677 0.61074 0.18148 0.0
C1114 C 0.94424 0.64682 0.21108 0.0
C1115 C 0.91584 0.59062 0.15776 0.0
C1116 C 0.96253 0.60602 0.16234 0.0
H1117 H 0.87065 0.59723 0.1778 0.0
H1118 H 0.88627 0.56246 0.13616 0.0
S1119 S 0.07197 0.70103 0.23316 0.0
N1120 N 1.02877 0.69835 0.24165 0.0
N1121 N 1.04601 0.66046 0.19747 0.0
C1122 C 0.99972 0.64281 0.19062 0.0
C1123 C 0.9906 0.66312 0.21503 0.0
C1124 C 0.90257 0.71971 0.49295 0.0
C1125 C 0.92171 0.68308 0.51999 0.0
C1126 C 0.88359 0.73419 0.51123 0.0
C1127 C 0.88275 0.71233 0.55706 0.0
H1128 H 0.90288 0.73755 0.45782 0.0
H1129 H 0.87008 0.76304 0.4897 0.0
S1130 S 0.92338 0.61188 0.63826 0.0
N1131 N 0.93567 0.62368 0.59238 0.0
N1132 N 0.89934 0.65032 0.6265 0.0
C1133 C 0.90073 0.67503 0.58363 0.0
C1134 C 0.92033 0.66053 0.56514 0.0
C1135 C 0.409 0.60751 0.35753 0.0
C1136 C 0.45266 0.60857 0.4131 0.0
C1137 C 0.38169 0.6403 0.32903 0.0
C1138 C 0.39701 0.67692 0.3537 0.0
H1139 H 0.39538 0.58087 0.33578 0.0
H1140 H 0.34851 0.63716 0.28681 0.0
S1141 S 0.50967 0.69802 0.49636 0.0
N1142 N 0.50949 0.65153 0.49035 0.0
N1143 N 0.4601 0.71221 0.4368 0.0
C1144 C 0.44077 0.67873 0.4085 0.0
C1145 C 0.46781 0.64511 0.43789 0.0
C1146 C 0.15309 0.45104 0.76066 0.0
C1147 C 0.17167 0.41417 0.78856 0.0
C1148 C 0.14486 0.47223 0.78407 0.0
C1149 C 0.15502 0.45743 0.83642 0.0
H1150 H 0.14503 0.46374 0.72044 0.0
H1151 H 0.12966 0.5001 0.76048 0.0
S1152 S 0.20605 0.36289 0.92708 0.0
N1153 N 0.20053 0.36376 0.87126 0.0
N1154 N 0.18663 0.40435 0.91623 0.0
C1155 C 0.17419 0.42077 0.865 0.0
C1156 C 0.18232 0.39906 0.84094 0.0
C1157 C 0.19977 0.30462 0.47601 0.0
C1158 C 0.22747 0.3338 0.4543 0.0
C1159 C 0.18185 0.31968 0.495 0.0
C1160 C 0.19173 0.36443 0.49371 0.0
H1161 H 0.19168 0.26987 0.47808 0.0
H1162 H 0.16088 0.2962 0.51164 0.0
S1163 S 0.26189 0.45412 0.4402 0.0
N1164 N 0.26341 0.40942 0.43205 0.0
N1165 N 0.22998 0.43776 0.468 0.0
C1166 C 0.21916 0.39392 0.47187 0.0
C1167 C 0.23689 0.3786 0.452 0.0
loop_
_geom_bond_atom_site_label_1
_geom_bond_atom_site_label_2
_geom_bond_distance
_geom_bond_site_symmetry_2
_ccdc_geom_bond_type
Tb0 C2 2.809 . S
Tb0 O20 2.484 1_655 S
Tb0 O21 2.440 . S
Tb0 O22 2.658 1_556 S
Tb0 O23 2.409 . S
Tb0 O24 2.378 1_656 S
Tb0 O28 2.325 1_665 S
Tb0 O31 2.341 1_565 S
Tb1 C11 2.809 . S
Tb1 O22 2.325 1_445 S
Tb1 O25 2.341 1_545 S
Tb1 O26 2.484 1_455 S
Tb1 O27 2.440 . S
Tb1 O28 2.658 1_554 S
Tb1 O29 2.409 . S
Tb1 O30 2.378 1_454 S
C2 Tb0 2.809 . S
C2 C3 1.514 . S
C2 O20 1.248 1_655 S
C2 O21 1.266 . S
C3 C2 1.514 . S
C3 C4 1.359 1_655 S
C3 C8 1.348 . S
C4 C3 1.359 1_455 S
C4 C5 1.380 . S
C4 H32 0.929 . S
C5 C4 1.380 . S
C5 C6 1.347 . S
C5 H33 0.931 . S
C6 C5 1.347 . S
C6 C7 1.369 1_455 S
C7 C6 1.369 1_655 S
C7 C8 1.408 . S
C7 H34 0.930 . S
C8 C3 1.348 . S
C8 C7 1.408 . S
C8 H35 0.930 . S
C9 O22 1.281 . S
C9 O23 1.254 1_554 S
C10 O24 1.236 . S
C10 O25 1.266 . S
C11 Tb1 2.809 . S
C11 C12 1.514 . S
C11 O26 1.248 1_455 S
C11 O27 1.266 . S
C12 C11 1.514 . S
C12 C13 1.359 1_455 S
C12 C17 1.348 . S
C13 C12 1.359 1_655 S
C13 C14 1.380 . S
C13 H36 0.929 . S
C14 C13 1.380 . S
C14 C15 1.347 . S
C14 H37 0.931 . S
C15 C14 1.347 . S
C15 C16 1.369 1_655 S
C16 C15 1.369 1_455 S
C16 C17 1.408 . S
C16 H38 0.930 . S
C17 C12 1.348 . S
C17 C16 1.408 . S
C17 H39 0.930 . S
C18 O28 1.281 . S
C18 O29 1.254 1_556 S
C19 O30 1.236 . S
C19 O31 1.266 . S
O20 Tb0 2.484 1_455 S
O20 C2 1.248 1_455 S
O21 Tb0 2.440 . S
O21 C2 1.266 . S
O22 Tb0 2.658 1_554 S
O22 Tb1 2.325 1_665 S
O22 C9 1.281 . S
O23 Tb0 2.409 . S
O23 C9 1.254 1_556 S
O24 Tb0 2.378 1_454 S
O24 C10 1.236 . S
O25 Tb1 2.341 1_565 S
O25 C10 1.266 . S
O26 Tb1 2.484 1_655 S
O26 C11 1.248 1_655 S
O27 Tb1 2.440 . S
O27 C11 1.266 . S
O28 Tb0 2.325 1_445 S
O28 Tb1 2.658 1_556 S
O28 C18 1.281 . S
O29 Tb1 2.409 . S
O29 C18 1.254 1_554 S
O30 Tb1 2.378 1_656 S
O30 C19 1.236 . S
O31 Tb0 2.341 1_545 S
O31 C19 1.266 . S
H32 C4 0.929 . S
H33 C5 0.931 . S
H34 C7 0.930 . S
H35 C8 0.930 . S
H36 C13 0.929 . S
H37 C14 0.931 . S
H38 C16 0.930 . S
H39 C17 0.930 . S
Tb40 C42 2.809 . S
Tb40 O60 2.484 . S
Tb40 O61 2.440 . S
Tb40 O62 2.658 . S
Tb40 O63 2.409 . S
Tb40 O64 2.378 . S
Tb40 O68 2.325 . S
Tb40 O71 2.341 . S
Tb41 C51 2.809 . S
Tb41 O62 2.325 . S
Tb41 O65 2.341 . S
Tb41 O66 2.484 . S
Tb41 O67 2.440 . S
Tb41 O68 2.658 . S
Tb41 O69 2.409 . S
Tb41 O70 2.378 . S
C42 Tb40 2.809 . S
C42 C43 1.514 . S
C42 O60 1.248 . S
C42 O61 1.266 . S
C43 C42 1.514 . S
C43 C44 1.359 . S
C43 C48 1.348 . S
C44 C43 1.359 . S
C44 C45 1.380 . S
C44 H72 0.929 . S
C45 C44 1.380 . S
C45 C46 1.347 . S
C45 H73 0.931 . S
C46 C45 1.347 . S
C46 C47 1.369 . S
C47 C46 1.369 . S
C47 C48 1.408 . S
C47 H74 0.930 . S
C48 C43 1.348 . S
C48 C47 1.408 . S
C48 H75 0.930 . S
C49 O62 1.281 . S
C49 O63 1.254 . S
C50 O64 1.236 . S
C50 O65 1.266 . S
C51 Tb41 2.809 . S
C51 C52 1.514 . S
C51 O66 1.248 . S
C51 O67 1.266 . S
C52 C51 1.514 . S
C52 C53 1.359 . S
C52 C57 1.348 . S
C53 C52 1.359 . S
C53 C54 1.380 . S
C53 H76 0.929 . S
C54 C53 1.380 . S
C54 C55 1.347 . S
C54 H77 0.931 . S
C55 C54 1.347 . S
C55 C56 1.369 . S
C56 C55 1.369 . S
C56 C57 1.408 . S
C56 H78 0.930 . S
C57 C52 1.348 . S
C57 C56 1.408 . S
C57 H79 0.930 . S
C58 O68 1.281 . S
C58 O69 1.254 . S
C59 O70 1.236 . S
C59 O71 1.266 . S
O60 Tb40 2.484 . S
O60 C42 1.248 . S
O61 Tb40 2.440 . S
O61 C42 1.266 . S
O62 Tb40 2.658 . S
O62 Tb41 2.325 . S
O62 C49 1.281 . S
O63 Tb40 2.409 . S
O63 C49 1.254 . S
O64 Tb40 2.378 . S
O64 C50 1.236 . S
O65 Tb41 2.341 . S
O65 C50 1.266 . S
O66 Tb41 2.484 . S
O66 C51 1.248 . S
O67 Tb41 2.440 . S
O67 C51 1.266 . S
O68 Tb40 2.325 . S
O68 Tb41 2.658 . S
O68 C58 1.281 . S
O69 Tb41 2.409 . S
O69 C58 1.254 . S
O70 Tb41 2.378 . S
O70 C59 1.236 . S
O71 Tb40 2.341 . S
O71 C59 1.266 . S
H72 C44 0.929 . S
H73 C45 0.931 . S
H74 C47 0.930 . S
H75 C48 0.930 . S
H76 C53 0.929 . S
H77 C54 0.931 . S
H78 C56 0.930 . S
H79 C57 0.930 . S
Tb80 C82 2.809 1_565 S
Tb80 O100 2.484 1_565 S
Tb80 O101 2.440 . S
Tb80 O102 2.658 . S
Tb80 O103 2.409 . S
Tb80 O104 2.378 1_565 S
Tb80 O108 2.325 1_565 S
Tb80 O111 2.341 . S
Tb81 C91 2.809 1_545 S
Tb81 O102 2.325 1_545 S
Tb81 O105 2.341 . S
Tb81 O106 2.484 1_545 S
Tb81 O107 2.440 . S
Tb81 O108 2.658 . S
Tb81 O109 2.409 . S
Tb81 O110 2.378 1_545 S
C82 Tb80 2.809 1_545 S
C82 C83 1.514 . S
C82 O100 1.248 . S
C82 O101 1.266 1_545 S
C83 C82 1.514 . S
C83 C84 1.359 . S
C83 C88 1.348 . S
C84 C83 1.359 . S
C84 C85 1.380 . S
C84 H112 0.929 . S
C85 C84 1.380 . S
C85 C86 1.347 . S
C85 H113 0.931 . S
C86 C85 1.347 . S
C86 C87 1.369 . S
C87 C86 1.369 . S
C87 C88 1.408 . S
C87 H114 0.930 . S
C88 C83 1.348 . S
C88 C87 1.408 . S
C88 H115 0.930 1_545 S
C89 O102 1.281 . S
C89 O103 1.254 . S
C90 O104 1.236 . S
C90 O105 1.266 . S
C91 Tb81 2.809 1_565 S
C91 C92 1.514 . S
C91 O106 1.248 . S
C91 O107 1.266 1_565 S
C92 C91 1.514 . S
C92 C93 1.359 . S
C92 C97 1.348 . S
C93 C92 1.359 . S
C93 C94 1.380 . S
C93 H116 0.929 . S
C94 C93 1.380 . S
C94 C95 1.347 . S
C94 H117 0.931 . S
C95 C94 1.347 . S
C95 C96 1.369 . S
C96 C95 1.369 . S
C96 C97 1.408 . S
C96 H118 0.930 . S
C97 C92 1.348 . S
C97 C96 1.408 . S
C97 H119 0.930 1_565 S
C98 O108 1.281 . S
C98 O109 1.254 . S
C99 O110 1.236 . S
C99 O111 1.266 . S
O100 Tb80 2.484 1_545 S
O100 C82 1.248 . S
O101 Tb80 2.440 . S
O101 C82 1.266 1_565 S
O102 Tb80 2.658 . S
O102 Tb81 2.325 1_565 S
O102 C89 1.281 . S
O103 Tb80 2.409 . S
O103 C89 1.254 . S
O104 Tb80 2.378 1_545 S
O104 C90 1.236 . S
O105 Tb81 2.341 . S
O105 C90 1.266 . S
O106 Tb81 2.484 1_565 S
O106 C91 1.248 . S
O107 Tb81 2.440 . S
O107 C91 1.266 1_545 S
O108 Tb80 2.325 1_545 S
O108 Tb81 2.658 . S
O108 C98 1.281 . S
O109 Tb81 2.409 . S
O109 C98 1.254 . S
O110 Tb81 2.378 1_565 S
O110 C99 1.236 . S
O111 Tb80 2.341 . S
O111 C99 1.266 . S
H112 C84 0.929 . S
H113 C85 0.931 . S
H114 C87 0.930 . S
H115 C88 0.930 1_565 S
H116 C93 0.929 . S
H117 C94 0.931 . S
H118 C96 0.930 . S
H119 C97 0.930 1_545 S
Tb120 C122 2.809 . S
Tb120 O140 2.484 . S
Tb120 O141 2.440 . S
Tb120 O142 2.658 . S
Tb120 O143 2.409 . S
Tb120 O144 2.378 . S
Tb120 O148 2.325 . S
Tb120 O151 2.341 . S
Tb121 C131 2.809 . S
Tb121 O142 2.325 . S
Tb121 O145 2.341 . S
Tb121 O146 2.484 . S
Tb121 O147 2.440 . S
Tb121 O148 2.658 . S
Tb121 O149 2.409 . S
Tb121 O150 2.378 . S
C122 Tb120 2.809 . S
C122 C123 1.514 . S
C122 O140 1.248 . S
C122 O141 1.266 . S
C123 C122 1.514 . S
C123 C124 1.359 . S
C123 C128 1.348 . S
C124 C123 1.359 . S
C124 C125 1.380 . S
C124 H152 0.929 . S
C125 C124 1.380 . S
C125 C126 1.347 . S
C125 H153 0.931 . S
C126 C125 1.347 . S
C126 C127 1.369 . S
C127 C126 1.369 . S
C127 C128 1.408 . S
C127 H154 0.930 . S
C128 C123 1.348 . S
C128 C127 1.408 . S
C128 H155 0.930 . S
C129 O142 1.281 . S
C129 O143 1.254 . S
C130 O144 1.236 . S
C130 O145 1.266 . S
C131 Tb121 2.809 . S
C131 C132 1.514 . S
C131 O146 1.248 . S
C131 O147 1.266 . S
C132 C131 1.514 . S
C132 C133 1.359 . S
C132 C137 1.348 . S
C133 C132 1.359 . S
C133 C134 1.380 . S
C133 H156 0.929 . S
C134 C133 1.380 . S
C134 C135 1.347 . S
C134 H157 0.931 . S
C135 C134 1.347 . S
C135 C136 1.369 . S
C136 C135 1.369 . S
C136 C137 1.408 . S
C136 H158 0.930 . S
C137 C132 1.348 . S
C137 C136 1.408 . S
C137 H159 0.930 . S
C138 O148 1.281 . S
C138 O149 1.254 . S
C139 O150 1.236 . S
C139 O151 1.266 . S
O140 Tb120 2.484 . S
O140 C122 1.248 . S
O141 Tb120 2.440 . S
O141 C122 1.266 . S
O142 Tb120 2.658 . S
O142 Tb121 2.325 . S
O142 C129 1.281 . S
O143 Tb120 2.409 . S
O143 C129 1.254 . S
O144 Tb120 2.378 . S
O144 C130 1.236 . S
O145 Tb121 2.341 . S
O145 C130 1.266 . S
O146 Tb121 2.484 . S
O146 C131 1.248 . S
O147 Tb121 2.440 . S
O147 C131 1.266 . S
O148 Tb120 2.325 . S
O148 Tb121 2.658 . S
O148 C138 1.281 . S
O149 Tb121 2.409 . S
O149 C138 1.254 . S
O150 Tb121 2.378 . S
O150 C139 1.236 . S
O151 Tb120 2.341 . S
O151 C139 1.266 . S
H152 C124 0.929 . S
H153 C125 0.931 . S
H154 C127 0.930 . S
H155 C128 0.930 . S
H156 C133 0.929 . S
H157 C134 0.931 . S
H158 C136 0.930 . S
H159 C137 0.930 . S
Tb160 C162 2.809 . S
Tb160 O180 2.484 . S
Tb160 O181 2.440 . S
Tb160 O182 2.658 1_665 S
Tb160 O183 2.409 1_665 S
Tb160 O184 2.378 1_655 S
Tb160 O188 2.325 . S
Tb160 O191 2.341 1_565 S
Tb161 C171 2.809 . S
Tb161 O182 2.325 . S
Tb161 O185 2.341 1_545 S
Tb161 O186 2.484 . S
Tb161 O187 2.440 . S
Tb161 O188 2.658 1_445 S
Tb161 O189 2.409 1_445 S
Tb161 O190 2.378 1_455 S
C162 Tb160 2.809 . S
C162 C163 1.514 . S
C162 O180 1.248 . S
C162 O181 1.266 . S
C163 C162 1.514 . S
C163 C164 1.359 . S
C163 C168 1.348 . S
C164 C163 1.359 . S
C164 C165 1.380 . S
C164 H192 0.929 . S
C165 C164 1.380 . S
C165 C166 1.347 . S
C165 H193 0.931 . S
C166 C165 1.347 . S
C166 C167 1.369 . S
C167 C166 1.369 . S
C167 C168 1.408 . S
C167 H194 0.930 . S
C168 C163 1.348 . S
C168 C167 1.408 . S
C168 H195 0.930 . S
C169 O182 1.281 . S
C169 O183 1.254 . S
C170 O184 1.236 . S
C170 O185 1.266 . S
C171 Tb161 2.809 . S
C171 C172 1.514 . S
C171 O186 1.248 . S
C171 O187 1.266 . S
C172 C171 1.514 . S
C172 C173 1.359 . S
C172 C177 1.348 . S
C173 C172 1.359 . S
C173 C174 1.380 . S
C173 H196 0.929 . S
C174 C173 1.380 . S
C174 C175 1.347 . S
C174 H197 0.931 . S
C175 C174 1.347 . S
C175 C176 1.369 . S
C176 C175 1.369 . S
C176 C177 1.408 . S
C176 H198 0.930 . S
C177 C172 1.348 . S
C177 C176 1.408 . S
C177 H199 0.930 . S
C178 O188 1.281 . S
C178 O189 1.254 . S
C179 O190 1.236 . S
C179 O191 1.266 . S
O180 Tb160 2.484 . S
O180 C162 1.248 . S
O181 Tb160 2.440 . S
O181 C162 1.266 . S
O182 Tb160 2.658 1_445 S
O182 Tb161 2.325 . S
O182 C169 1.281 . S
O183 Tb160 2.409 1_445 S
O183 C169 1.254 . S
O184 Tb160 2.378 1_455 S
O184 C170 1.236 . S
O185 Tb161 2.341 1_565 S
O185 C170 1.266 . S
O186 Tb161 2.484 . S
O186 C171 1.248 . S
O187 Tb161 2.440 . S
O187 C171 1.266 . S
O188 Tb160 2.325 . S
O188 Tb161 2.658 1_665 S
O188 C178 1.281 . S
O189 Tb161 2.409 1_665 S
O189 C178 1.254 . S
O190 Tb161 2.378 1_655 S
O190 C179 1.236 . S
O191 Tb160 2.341 1_545 S
O191 C179 1.266 . S
H192 C164 0.929 . S
H193 C165 0.931 . S
H194 C167 0.930 . S
H195 C168 0.930 . S
H196 C173 0.929 . S
H197 C174 0.931 . S
H198 C176 0.930 . S
H199 C177 0.930 . S
Tb200 C202 2.809 . S
Tb200 O220 2.484 . S
Tb200 O221 2.440 . S
Tb200 O222 2.658 . S
Tb200 O223 2.409 . S
Tb200 O224 2.378 . S
Tb200 O228 2.325 . S
Tb200 O231 2.341 . S
Tb201 C211 2.809 . S
Tb201 O222 2.325 . S
Tb201 O225 2.341 . S
Tb201 O226 2.484 . S
Tb201 O227 2.440 . S
Tb201 O228 2.658 . S
Tb201 O229 2.409 . S
Tb201 O230 2.378 . S
C202 Tb200 2.809 . S
C202 C203 1.514 . S
C202 O220 1.248 . S
C202 O221 1.266 . S
C203 C202 1.514 . S
C203 C204 1.359 . S
C203 C208 1.348 . S
C204 C203 1.359 . S
C204 C205 1.380 . S
C204 H232 0.929 . S
C205 C204 1.380 . S
C205 C206 1.347 . S
C205 H233 0.931 . S
C206 C205 1.347 . S
C206 C207 1.369 . S
C207 C206 1.369 . S
C207 C208 1.408 . S
C207 H234 0.930 . S
C208 C203 1.348 . S
C208 C207 1.408 . S
C208 H235 0.930 . S
C209 O222 1.281 . S
C209 O223 1.254 . S
C210 O224 1.236 . S
C210 O225 1.266 . S
C211 Tb201 2.809 . S
C211 C212 1.514 . S
C211 O226 1.248 . S
C211 O227 1.266 . S
C212 C211 1.514 . S
C212 C213 1.359 . S
C212 C217 1.348 . S
C213 C212 1.359 . S
C213 C214 1.380 . S
C213 H236 0.929 . S
C214 C213 1.380 . S
C214 C215 1.347 . S
C214 H237 0.931 . S
C215 C214 1.347 . S
C215 C216 1.369 . S
C216 C215 1.369 . S
C216 C217 1.408 . S
C216 H238 0.930 . S
C217 C212 1.348 . S
C217 C216 1.408 . S
C217 H239 0.930 . S
C218 O228 1.281 . S
C218 O229 1.254 . S
C219 O230 1.236 . S
C219 O231 1.266 . S
O220 Tb200 2.484 . S
O220 C202 1.248 . S
O221 Tb200 2.440 . S
O221 C202 1.266 . S
O222 Tb200 2.658 . S
O222 Tb201 2.325 . S
O222 C209 1.281 . S
O223 Tb200 2.409 . S
O223 C209 1.254 . S
O224 Tb200 2.378 . S
O224 C210 1.236 . S
O225 Tb201 2.341 . S
O225 C210 1.266 . S
O226 Tb201 2.484 . S
O226 C211 1.248 . S
O227 Tb201 2.440 . S
O227 C211 1.266 . S
O228 Tb200 2.325 . S
O228 Tb201 2.658 . S
O228 C218 1.281 . S
O229 Tb201 2.409 . S
O229 C218 1.254 . S
O230 Tb201 2.378 . S
O230 C219 1.236 . S
O231 Tb200 2.341 . S
O231 C219 1.266 . S
H232 C204 0.929 . S
H233 C205 0.931 . S
H234 C207 0.930 . S
H235 C208 0.930 . S
H236 C213 0.929 . S
H237 C214 0.931 . S
H238 C216 0.930 . S
H239 C217 0.930 . S
Tb240 C242 2.809 . S
Tb240 O260 2.484 1_554 S
Tb240 O261 2.440 . S
Tb240 O262 2.658 1_565 S
Tb240 O263 2.409 1_565 S
Tb240 O264 2.378 1_564 S
Tb240 O268 2.325 1_554 S
Tb240 O271 2.341 . S
Tb241 C251 2.809 . S
Tb241 O262 2.325 1_556 S
Tb241 O265 2.341 . S
Tb241 O266 2.484 1_556 S
Tb241 O267 2.440 . S
Tb241 O268 2.658 1_545 S
Tb241 O269 2.409 1_545 S
Tb241 O270 2.378 1_546 S
C242 Tb240 2.809 . S
C242 C243 1.513 1_554 S
C242 O260 1.248 1_554 S
C242 O261 1.266 . S
C243 C242 1.513 1_556 S
C243 C244 1.359 . S
C243 C248 1.348 1_556 S
C244 C243 1.359 . S
C244 C245 1.380 . S
C244 H272 0.929 . S
C245 C244 1.380 . S
C245 C246 1.347 . S
C245 H273 0.931 . S
C246 C245 1.347 . S
C246 C247 1.369 1_556 S
C247 C246 1.369 1_554 S
C247 C248 1.408 . S
C247 H274 0.930 . S
C248 C243 1.348 1_554 S
C248 C247 1.408 . S
C248 H275 0.930 . S
C249 O262 1.281 . S
C249 O263 1.254 . S
C250 O264 1.236 . S
C250 O265 1.266 . S
C251 Tb241 2.809 . S
C251 C252 1.514 1_556 S
C251 O266 1.248 1_556 S
C251 O267 1.266 . S
C252 C251 1.514 1_554 S
C252 C253 1.359 . S
C252 C257 1.348 1_554 S
C253 C252 1.359 . S
C253 C254 1.380 . S
C253 H276 0.929 . S
C254 C253 1.380 . S
C254 C255 1.347 . S
C254 H277 0.931 . S
C255 C254 1.347 . S
C255 C256 1.369 1_554 S
C256 C255 1.369 1_556 S
C256 C257 1.408 . S
C256 H278 0.930 . S
C257 C252 1.348 1_556 S
C257 C256 1.408 . S
C257 H279 0.930 . S
C258 O268 1.281 . S
C258 O269 1.254 . S
C259 O270 1.236 . S
C259 O271 1.266 . S
O260 Tb240 2.484 1_556 S
O260 C242 1.248 1_556 S
O261 Tb240 2.440 . S
O261 C242 1.266 . S
O262 Tb240 2.658 1_545 S
O262 Tb241 2.325 1_554 S
O262 C249 1.281 . S
O263 Tb240 2.409 1_545 S
O263 C249 1.254 . S
O264 Tb240 2.378 1_546 S
O264 C250 1.236 . S
O265 Tb241 2.341 . S
O265 C250 1.266 . S
O266 Tb241 2.484 1_554 S
O266 C251 1.248 1_554 S
O267 Tb241 2.440 . S
O267 C251 1.266 . S
O268 Tb240 2.325 1_556 S
O268 Tb241 2.658 1_565 S
O268 C258 1.281 . S
O269 Tb241 2.409 1_565 S
O269 C258 1.254 . S
O270 Tb241 2.378 1_564 S
O270 C259 1.236 . S
O271 Tb240 2.341 . S
O271 C259 1.266 . S
H272 C244 0.929 . S
H273 C245 0.931 . S
H274 C247 0.930 . S
H275 C248 0.930 . S
H276 C253 0.929 . S
H277 C254 0.931 . S
H278 C256 0.930 . S
H279 C257 0.930 . S
Tb280 C282 2.809 . S
Tb280 O300 2.484 . S
Tb280 O301 2.440 . S
Tb280 O302 2.658 . S
Tb280 O303 2.409 . S
Tb280 O304 2.378 . S
Tb280 O308 2.325 . S
Tb280 O311 2.341 . S
Tb281 C291 2.809 . S
Tb281 O302 2.325 . S
Tb281 O305 2.341 . S
Tb281 O306 2.484 . S
Tb281 O307 2.440 . S
Tb281 O308 2.658 . S
Tb281 O309 2.409 . S
Tb281 O310 2.378 . S
C282 Tb280 2.809 . S
C282 C283 1.514 . S
C282 O300 1.248 . S
C282 O301 1.266 . S
C283 C282 1.514 . S
C283 C284 1.359 . S
C283 C288 1.348 . S
C284 C283 1.359 . S
C284 C285 1.380 . S
C284 H312 0.929 . S
C285 C284 1.380 . S
C285 C286 1.347 . S
C285 H313 0.931 . S
C286 C285 1.347 . S
C286 C287 1.369 . S
C287 C286 1.369 . S
C287 C288 1.408 . S
C287 H314 0.930 . S
C288 C283 1.348 . S
C288 C287 1.408 . S
C288 H315 0.930 . S
C289 O302 1.281 . S
C289 O303 1.254 . S
C290 O304 1.236 . S
C290 O305 1.266 . S
C291 Tb281 2.809 . S
C291 C292 1.514 . S
C291 O306 1.248 . S
C291 O307 1.266 . S
C292 C291 1.514 . S
C292 C293 1.359 . S
C292 C297 1.348 . S
C293 C292 1.359 . S
C293 C294 1.380 . S
C293 H316 0.929 . S
C294 C293 1.380 . S
C294 C295 1.347 . S
C294 H317 0.931 . S
C295 C294 1.347 . S
C295 C296 1.369 . S
C296 C295 1.369 . S
C296 C297 1.408 . S
C296 H318 0.930 . S
C297 C292 1.348 . S
C297 C296 1.408 . S
C297 H319 0.930 . S
C298 O308 1.281 . S
C298 O309 1.254 . S
C299 O310 1.236 . S
C299 O311 1.266 . S
O300 Tb280 2.484 . S
O300 C282 1.248 . S
O301 Tb280 2.440 . S
O301 C282 1.266 . S
O302 Tb280 2.658 . S
O302 Tb281 2.325 . S
O302 C289 1.281 . S
O303 Tb280 2.409 . S
O303 C289 1.254 . S
O304 Tb280 2.378 . S
O304 C290 1.236 . S
O305 Tb281 2.341 . S
O305 C290 1.266 . S
O306 Tb281 2.484 . S
O306 C291 1.248 . S
O307 Tb281 2.440 . S
O307 C291 1.266 . S
O308 Tb280 2.325 . S
O308 Tb281 2.658 . S
O308 C298 1.281 . S
O309 Tb281 2.409 . S
O309 C298 1.254 . S
O310 Tb281 2.378 . S
O310 C299 1.236 . S
O311 Tb280 2.341 . S
O311 C299 1.266 . S
H312 C284 0.929 . S
H313 C285 0.931 . S
H314 C287 0.930 . S
H315 C288 0.930 . S
H316 C293 0.929 . S
H317 C294 0.931 . S
H318 C296 0.930 . S
H319 C297 0.930 . S
Tb320 C322 2.809 . S
Tb320 O340 2.484 . S
Tb320 O341 2.440 . S
Tb320 O342 2.658 . S
Tb320 O343 2.409 . S
Tb320 O344 2.378 . S
Tb320 O348 2.325 1_554 S
Tb320 O351 2.341 1_554 S
Tb321 C331 2.809 . S
Tb321 O342 2.325 1_556 S
Tb321 O345 2.341 1_556 S
Tb321 O346 2.484 . S
Tb321 O347 2.440 . S
Tb321 O348 2.658 . S
Tb321 O349 2.409 . S
Tb321 O350 2.378 . S
C322 Tb320 2.809 . S
C322 C323 1.514 . S
C322 O340 1.248 . S
C322 O341 1.266 . S
C323 C322 1.514 . S
C323 C324 1.359 . S
C323 C328 1.348 . S
C324 C323 1.359 . S
C324 C325 1.380 . S
C324 H352 0.929 . S
C325 C324 1.380 . S
C325 C326 1.347 . S
C325 H353 0.931 . S
C326 C325 1.347 . S
C326 C327 1.369 . S
C327 C326 1.369 . S
C327 C328 1.408 . S
C327 H354 0.930 . S
C328 C323 1.348 . S
C328 C327 1.408 . S
C328 H355 0.930 . S
C329 O342 1.281 . S
C329 O343 1.254 . S
C330 O344 1.236 . S
C330 O345 1.266 . S
C331 Tb321 2.809 . S
C331 C332 1.514 . S
C331 O346 1.248 . S
C331 O347 1.266 . S
C332 C331 1.514 . S
C332 C333 1.359 . S
C332 C337 1.348 . S
C333 C332 1.359 . S
C333 C334 1.380 . S
C333 H356 0.929 . S
C334 C333 1.380 . S
C334 C335 1.347 . S
C334 H357 0.931 . S
C335 C334 1.347 . S
C335 C336 1.369 . S
C336 C335 1.369 . S
C336 C337 1.408 . S
C336 H358 0.930 . S
C337 C332 1.348 . S
C337 C336 1.408 . S
C337 H359 0.930 . S
C338 O348 1.281 . S
C338 O349 1.254 . S
C339 O350 1.236 . S
C339 O351 1.266 . S
O340 Tb320 2.484 . S
O340 C322 1.248 . S
O341 Tb320 2.440 . S
O341 C322 1.266 . S
O342 Tb320 2.658 . S
O342 Tb321 2.325 1_554 S
O342 C329 1.281 . S
O343 Tb320 2.409 . S
O343 C329 1.254 . S
O344 Tb320 2.378 . S
O344 C330 1.236 . S
O345 Tb321 2.341 1_554 S
O345 C330 1.266 . S
O346 Tb321 2.484 . S
O346 C331 1.248 . S
O347 Tb321 2.440 . S
O347 C331 1.266 . S
O348 Tb320 2.325 1_556 S
O348 Tb321 2.658 . S
O348 C338 1.281 . S
O349 Tb321 2.409 . S
O349 C338 1.254 . S
O350 Tb321 2.378 . S
O350 C339 1.236 . S
O351 Tb320 2.341 1_556 S
O351 C339 1.266 . S
H352 C324 0.929 . S
H353 C325 0.931 . S
H354 C327 0.930 . S
H355 C328 0.930 . S
H356 C333 0.929 . S
H357 C334 0.931 . S
H358 C336 0.930 . S
H359 C337 0.930 . S
Tb360 C362 2.809 . S
Tb360 O380 2.484 . S
Tb360 O381 2.440 . S
Tb360 O382 2.658 . S
Tb360 O383 2.409 . S
Tb360 O384 2.378 . S
Tb360 O388 2.325 . S
Tb360 O391 2.341 . S
Tb361 C371 2.809 . S
Tb361 O382 2.325 . S
Tb361 O385 2.341 . S
Tb361 O386 2.484 . S
Tb361 O387 2.440 . S
Tb361 O388 2.658 . S
Tb361 O389 2.409 . S
Tb361 O390 2.378 . S
C362 Tb360 2.809 . S
C362 C363 1.514 . S
C362 O380 1.248 . S
C362 O381 1.266 . S
C363 C362 1.514 . S
C363 C364 1.359 . S
C363 C368 1.348 . S
C364 C363 1.359 . S
C364 C365 1.380 . S
C364 H392 0.929 . S
C365 C364 1.380 . S
C365 C366 1.347 . S
C365 H393 0.931 . S
C366 C365 1.347 . S
C366 C367 1.369 . S
C367 C366 1.369 . S
C367 C368 1.408 . S
C367 H394 0.930 . S
C368 C363 1.348 . S
C368 C367 1.408 . S
C368 H395 0.930 . S
C369 O382 1.281 . S
C369 O383 1.254 . S
C370 O384 1.236 . S
C370 O385 1.266 . S
C371 Tb361 2.809 . S
C371 C372 1.514 . S
C371 O386 1.248 . S
C371 O387 1.266 . S
C372 C371 1.514 . S
C372 C373 1.359 . S
C372 C377 1.348 . S
C373 C372 1.359 . S
C373 C374 1.380 . S
C373 H396 0.929 . S
C374 C373 1.380 . S
C374 C375 1.347 . S
C374 H397 0.931 . S
C375 C374 1.347 . S
C375 C376 1.369 . S
C376 C375 1.369 . S
C376 C377 1.408 . S
C376 H398 0.930 . S
C377 C372 1.348 . S
C377 C376 1.408 . S
C377 H399 0.930 . S
C378 O388 1.281 . S
C378 O389 1.254 . S
C379 O390 1.236 . S
C379 O391 1.266 . S
O380 Tb360 2.484 . S
O380 C362 1.248 . S
O381 Tb360 2.440 . S
O381 C362 1.266 . S
O382 Tb360 2.658 . S
O382 Tb361 2.325 . S
O382 C369 1.281 . S
O383 Tb360 2.409 . S
O383 C369 1.254 . S
O384 Tb360 2.378 . S
O384 C370 1.236 . S
O385 Tb361 2.341 . S
O385 C370 1.266 . S
O386 Tb361 2.484 . S
O386 C371 1.248 . S
O387 Tb361 2.440 . S
O387 C371 1.266 . S
O388 Tb360 2.325 . S
O388 Tb361 2.658 . S
O388 C378 1.281 . S
O389 Tb361 2.409 . S
O389 C378 1.254 . S
O390 Tb361 2.378 . S
O390 C379 1.236 . S
O391 Tb360 2.341 . S
O391 C379 1.266 . S
H392 C364 0.929 . S
H393 C365 0.931 . S
H394 C367 0.930 . S
H395 C368 0.930 . S
H396 C373 0.929 . S
H397 C374 0.931 . S
H398 C376 0.930 . S
H399 C377 0.930 . S
Tb400 C402 2.809 . S
Tb400 O420 2.484 . S
Tb400 O421 2.440 . S
Tb400 O422 2.658 . S
Tb400 O423 2.409 . S
Tb400 O424 2.378 . S
Tb400 O428 2.325 1_455 S
Tb400 O431 2.341 . S
Tb401 C411 2.809 . S
Tb401 O422 2.325 1_655 S
Tb401 O425 2.341 . S
Tb401 O426 2.484 . S
Tb401 O427 2.440 . S
Tb401 O428 2.658 . S
Tb401 O429 2.409 . S
Tb401 O430 2.378 . S
C402 Tb400 2.809 . S
C402 C403 1.514 . S
C402 O420 1.248 . S
C402 O421 1.266 . S
C403 C402 1.514 . S
C403 C404 1.359 . S
C403 C408 1.348 . S
C404 C403 1.359 . S
C404 C405 1.380 . S
C404 H432 0.929 . S
C405 C404 1.380 . S
C405 C406 1.347 . S
C405 H433 0.931 . S
C406 C405 1.347 . S
C406 C407 1.369 . S
C407 C406 1.369 . S
C407 C408 1.408 . S
C407 H434 0.930 . S
C408 C403 1.348 . S
C408 C407 1.408 . S
C408 H435 0.930 . S
C409 O422 1.281 . S
C409 O423 1.254 . S
C410 O424 1.236 . S
C410 O425 1.266 1_455 S
C411 Tb401 2.809 . S
C411 C412 1.514 . S
C411 O426 1.248 . S
C411 O427 1.266 . S
C412 C411 1.514 . S
C412 C413 1.359 . S
C412 C417 1.348 . S
C413 C412 1.359 . S
C413 C414 1.380 . S
C413 H436 0.929 . S
C414 C413 1.380 . S
C414 C415 1.347 . S
C414 H437 0.931 . S
C415 C414 1.347 . S
C415 C416 1.369 . S
C416 C415 1.369 . S
C416 C417 1.408 . S
C416 H438 0.930 . S
C417 C412 1.348 . S
C417 C416 1.408 . S
C417 H439 0.930 . S
C418 O428 1.281 . S
C418 O429 1.254 . S
C419 O430 1.236 . S
C419 O431 1.266 1_655 S
O420 Tb400 2.484 . S
O420 C402 1.248 . S
O421 Tb400 2.440 . S
O421 C402 1.266 . S
O422 Tb400 2.658 . S
O422 Tb401 2.325 1_455 S
O422 C409 1.281 . S
O423 Tb400 2.409 . S
O423 C409 1.254 . S
O424 Tb400 2.378 . S
O424 C410 1.236 . S
O425 Tb401 2.341 . S
O425 C410 1.266 1_655 S
O426 Tb401 2.484 . S
O426 C411 1.248 . S
O427 Tb401 2.440 . S
O427 C411 1.266 . S
O428 Tb400 2.325 1_655 S
O428 Tb401 2.658 . S
O428 C418 1.281 . S
O429 Tb401 2.409 . S
O429 C418 1.254 . S
O430 Tb401 2.378 . S
O430 C419 1.236 . S
O431 Tb400 2.341 . S
O431 C419 1.266 1_455 S
H432 C404 0.929 . S
H433 C405 0.931 . S
H434 C407 0.930 . S
H435 C408 0.930 . S
H436 C413 0.929 . S
H437 C414 0.931 . S
H438 C416 0.930 . S
H439 C417 0.930 . S
Tb440 C442 2.809 . S
Tb440 O460 2.484 . S
Tb440 O461 2.440 . S
Tb440 O462 2.658 . S
Tb440 O463 2.409 . S
Tb440 O464 2.378 . S
Tb440 O468 2.325 . S
Tb440 O471 2.341 . S
Tb441 C451 2.809 . S
Tb441 O462 2.325 . S
Tb441 O465 2.341 . S
Tb441 O466 2.484 . S
Tb441 O467 2.440 . S
Tb441 O468 2.658 . S
Tb441 O469 2.409 . S
Tb441 O470 2.378 . S
C442 Tb440 2.809 . S
C442 C443 1.514 . S
C442 O460 1.248 . S
C442 O461 1.266 . S
C443 C442 1.514 . S
C443 C444 1.359 . S
C443 C448 1.348 . S
C444 C443 1.359 . S
C444 C445 1.380 . S
C444 H472 0.929 . S
C445 C444 1.380 . S
C445 C446 1.347 . S
C445 H473 0.931 . S
C446 C445 1.347 . S
C446 C447 1.369 . S
C447 C446 1.369 . S
C447 C448 1.408 . S
C447 H474 0.930 . S
C448 C443 1.348 . S
C448 C447 1.408 . S
C448 H475 0.930 . S
C449 O462 1.281 . S
C449 O463 1.254 . S
C450 O464 1.236 . S
C450 O465 1.266 . S
C451 Tb441 2.809 . S
C451 C452 1.514 . S
C451 O466 1.248 . S
C451 O467 1.266 . S
C452 C451 1.514 . S
C452 C453 1.359 . S
C452 C457 1.348 . S
C453 C452 1.359 . S
C453 C454 1.380 . S
C453 H476 0.929 . S
C454 C453 1.380 . S
C454 C455 1.347 . S
C454 H477 0.931 . S
C455 C454 1.347 . S
C455 C456 1.369 . S
C456 C455 1.369 . S
C456 C457 1.408 . S
C456 H478 0.930 . S
C457 C452 1.348 . S
C457 C456 1.408 . S
C457 H479 0.930 . S
C458 O468 1.281 . S
C458 O469 1.254 . S
C459 O470 1.236 . S
C459 O471 1.266 . S
O460 Tb440 2.484 . S
O460 C442 1.248 . S
O461 Tb440 2.440 . S
O461 C442 1.266 . S
O462 Tb440 2.658 . S
O462 Tb441 2.325 . S
O462 C449 1.281 . S
O463 Tb440 2.409 . S
O463 C449 1.254 . S
O464 Tb440 2.378 . S
O464 C450 1.236 . S
O465 Tb441 2.341 . S
O465 C450 1.266 . S
O466 Tb441 2.484 . S
O466 C451 1.248 . S
O467 Tb441 2.440 . S
O467 C451 1.266 . S
O468 Tb440 2.325 . S
O468 Tb441 2.658 . S
O468 C458 1.281 . S
O469 Tb441 2.409 . S
O469 C458 1.254 . S
O470 Tb441 2.378 . S
O470 C459 1.236 . S
O471 Tb440 2.341 . S
O471 C459 1.266 . S
H472 C444 0.929 . S
H473 C445 0.931 . S
H474 C447 0.930 . S
H475 C448 0.930 . S
H476 C453 0.929 . S
H477 C454 0.931 . S
H478 C456 0.930 . S
H479 C457 0.930 . S
Tb480 C482 2.809 . S
Tb480 O500 2.484 . S
Tb480 O501 2.440 . S
Tb480 O502 2.658 . S
Tb480 O503 2.409 . S
Tb480 O504 2.378 . S
Tb480 O508 2.325 . S
Tb480 O511 2.341 . S
Tb481 C491 2.809 . S
Tb481 O502 2.325 . S
Tb481 O505 2.341 . S
Tb481 O506 2.484 . S
Tb481 O507 2.440 . S
Tb481 O508 2.658 . S
Tb481 O509 2.409 . S
Tb481 O510 2.378 . S
C482 Tb480 2.809 . S
C482 C483 1.514 . S
C482 O500 1.248 . S
C482 O501 1.266 . S
C483 C482 1.514 . S
C483 C484 1.359 . S
C483 C488 1.348 . S
C484 C483 1.359 . S
C484 C485 1.380 . S
C484 H512 0.929 . S
C485 C484 1.380 . S
C485 C486 1.347 . S
C485 H513 0.931 . S
C486 C485 1.347 . S
C486 C487 1.369 . S
C487 C486 1.369 . S
C487 C488 1.408 . S
C487 H514 0.930 . S
C488 C483 1.348 . S
C488 C487 1.408 . S
C488 H515 0.930 . S
C489 O502 1.281 . S
C489 O503 1.254 . S
C490 O504 1.236 . S
C490 O505 1.266 . S
C491 Tb481 2.809 . S
C491 C492 1.514 . S
C491 O506 1.248 . S
C491 O507 1.266 . S
C492 C491 1.514 . S
C492 C493 1.359 . S
C492 C497 1.348 . S
C493 C492 1.359 . S
C493 C494 1.380 . S
C493 H516 0.929 . S
C494 C493 1.380 . S
C494 C495 1.347 . S
C494 H517 0.931 . S
C495 C494 1.347 . S
C495 C496 1.369 . S
C496 C495 1.369 . S
C496 C497 1.408 . S
C496 H518 0.930 . S
C497 C492 1.348 . S
C497 C496 1.408 . S
C497 H519 0.930 . S
C498 O508 1.281 . S
C498 O509 1.254 . S
C499 O510 1.236 . S
C499 O511 1.266 . S
O500 Tb480 2.484 . S
O500 C482 1.248 . S
O501 Tb480 2.440 . S
O501 C482 1.266 . S
O502 Tb480 2.658 . S
O502 Tb481 2.325 . S
O502 C489 1.281 . S
O503 Tb480 2.409 . S
O503 C489 1.254 . S
O504 Tb480 2.378 . S
O504 C490 1.236 . S
O505 Tb481 2.341 . S
O505 C490 1.266 . S
O506 Tb481 2.484 . S
O506 C491 1.248 . S
O507 Tb481 2.440 . S
O507 C491 1.266 . S
O508 Tb480 2.325 . S
O508 Tb481 2.658 . S
O508 C498 1.281 . S
O509 Tb481 2.409 . S
O509 C498 1.254 . S
O510 Tb481 2.378 . S
O510 C499 1.236 . S
O511 Tb480 2.341 . S
O511 C499 1.266 . S
H512 C484 0.929 . S
H513 C485 0.931 . S
H514 C487 0.930 . S
H515 C488 0.930 . S
H516 C493 0.929 . S
H517 C494 0.931 . S
H518 C496 0.930 . S
H519 C497 0.930 . S
Tb520 C522 2.809 . S
Tb520 O540 2.484 . S
Tb520 O541 2.440 . S
Tb520 O542 2.658 . S
Tb520 O543 2.409 . S
Tb520 O544 2.378 . S
Tb520 O548 2.325 . S
Tb520 O551 2.341 . S
Tb521 C531 2.809 . S
Tb521 O542 2.325 . S
Tb521 O545 2.341 . S
Tb521 O546 2.484 . S
Tb521 O547 2.440 . S
Tb521 O548 2.658 . S
Tb521 O549 2.409 . S
Tb521 O550 2.378 . S
C522 Tb520 2.809 . S
C522 C523 1.514 . S
C522 O540 1.248 . S
C522 O541 1.266 . S
C523 C522 1.514 . S
C523 C524 1.359 . S
C523 C528 1.348 . S
C524 C523 1.359 . S
C524 C525 1.380 . S
C524 H552 0.929 . S
C525 C524 1.380 . S
C525 C526 1.347 . S
C525 H553 0.931 . S
C526 C525 1.347 . S
C526 C527 1.369 . S
C527 C526 1.369 . S
C527 C528 1.408 . S
C527 H554 0.930 . S
C528 C523 1.348 . S
C528 C527 1.408 . S
C528 H555 0.930 . S
C529 O542 1.281 . S
C529 O543 1.254 . S
C530 O544 1.236 . S
C530 O545 1.266 . S
C531 Tb521 2.809 . S
C531 C532 1.514 . S
C531 O546 1.248 . S
C531 O547 1.266 . S
C532 C531 1.514 . S
C532 C533 1.359 . S
C532 C537 1.348 . S
C533 C532 1.359 . S
C533 C534 1.380 . S
C533 H556 0.929 . S
C534 C533 1.380 . S
C534 C535 1.347 . S
C534 H557 0.931 . S
C535 C534 1.347 . S
C535 C536 1.369 . S
C536 C535 1.369 . S
C536 C537 1.408 . S
C536 H558 0.930 . S
C537 C532 1.348 . S
C537 C536 1.408 . S
C537 H559 0.930 . S
C538 O548 1.281 . S
C538 O549 1.254 . S
C539 O550 1.236 . S
C539 O551 1.266 . S
O540 Tb520 2.484 . S
O540 C522 1.248 . S
O541 Tb520 2.440 . S
O541 C522 1.266 . S
O542 Tb520 2.658 . S
O542 Tb521 2.325 . S
O542 C529 1.281 . S
O543 Tb520 2.409 . S
O543 C529 1.254 . S
O544 Tb520 2.378 . S
O544 C530 1.236 . S
O545 Tb521 2.341 . S
O545 C530 1.266 . S
O546 Tb521 2.484 . S
O546 C531 1.248 . S
O547 Tb521 2.440 . S
O547 C531 1.266 . S
O548 Tb520 2.325 . S
O548 Tb521 2.658 . S
O548 C538 1.281 . S
O549 Tb521 2.409 . S
O549 C538 1.254 . S
O550 Tb521 2.378 . S
O550 C539 1.236 . S
O551 Tb520 2.341 . S
O551 C539 1.266 . S
H552 C524 0.929 . S
H553 C525 0.931 . S
H554 C527 0.930 . S
H555 C528 0.930 . S
H556 C533 0.929 . S
H557 C534 0.931 . S
H558 C536 0.930 . S
H559 C537 0.930 . S
Tb560 C562 2.809 . S
Tb560 O580 2.484 . S
Tb560 O581 2.440 . S
Tb560 O582 2.658 . S
Tb560 O583 2.409 . S
Tb560 O584 2.378 . S
Tb560 O588 2.325 . S
Tb560 O591 2.341 . S
Tb561 C571 2.809 . S
Tb561 O582 2.325 . S
Tb561 O585 2.341 . S
Tb561 O586 2.484 . S
Tb561 O587 2.440 . S
Tb561 O588 2.658 . S
Tb561 O589 2.409 . S
Tb561 O590 2.378 . S
C562 Tb560 2.809 . S
C562 C563 1.514 . S
C562 O580 1.248 . S
C562 O581 1.266 . S
C563 C562 1.514 . S
C563 C564 1.359 . S
C563 C568 1.348 . S
C564 C563 1.359 . S
C564 C565 1.380 . S
C564 H592 0.929 . S
C565 C564 1.380 . S
C565 C566 1.347 . S
C565 H593 0.931 . S
C566 C565 1.347 . S
C566 C567 1.369 . S
C567 C566 1.369 . S
C567 C568 1.408 . S
C567 H594 0.930 . S
C568 C563 1.348 . S
C568 C567 1.408 . S
C568 H595 0.930 . S
C569 O582 1.281 . S
C569 O583 1.254 . S
C570 O584 1.236 . S
C570 O585 1.266 . S
C571 Tb561 2.809 . S
C571 C572 1.514 . S
C571 O586 1.248 . S
C571 O587 1.266 . S
C572 C571 1.514 . S
C572 C573 1.359 . S
C572 C577 1.348 . S
C573 C572 1.359 . S
C573 C574 1.380 . S
C573 H596 0.929 . S
C574 C573 1.380 . S
C574 C575 1.347 . S
C574 H597 0.931 . S
C575 C574 1.347 . S
C575 C576 1.369 . S
C576 C575 1.369 . S
C576 C577 1.408 . S
C576 H598 0.930 . S
C577 C572 1.348 . S
C577 C576 1.408 . S
C577 H599 0.930 . S
C578 O588 1.281 . S
C578 O589 1.254 . S
C579 O590 1.236 . S
C579 O591 1.266 . S
O580 Tb560 2.484 . S
O580 C562 1.248 . S
O581 Tb560 2.440 . S
O581 C562 1.266 . S
O582 Tb560 2.658 . S
O582 Tb561 2.325 . S
O582 C569 1.281 . S
O583 Tb560 2.409 . S
O583 C569 1.254 . S
O584 Tb560 2.378 . S
O584 C570 1.236 . S
O585 Tb561 2.341 . S
O585 C570 1.266 . S
O586 Tb561 2.484 . S
O586 C571 1.248 . S
O587 Tb561 2.440 . S
O587 C571 1.266 . S
O588 Tb560 2.325 . S
O588 Tb561 2.658 . S
O588 C578 1.281 . S
O589 Tb561 2.409 . S
O589 C578 1.254 . S
O590 Tb561 2.378 . S
O590 C579 1.236 . S
O591 Tb560 2.341 . S
O591 C579 1.266 . S
H592 C564 0.929 . S
H593 C565 0.931 . S
H594 C567 0.930 . S
H595 C568 0.930 . S
H596 C573 0.929 . S
H597 C574 0.931 . S
H598 C576 0.930 . S
H599 C577 0.930 . S
Tb600 C602 2.809 . S
Tb600 O620 2.484 . S
Tb600 O621 2.440 . S
Tb600 O622 2.658 1_554 S
Tb600 O623 2.409 1_554 S
Tb600 O624 2.378 1_554 S
Tb600 O628 2.325 1_655 S
Tb600 O631 2.341 1_655 S
Tb601 C611 2.809 . S
Tb601 O622 2.325 1_455 S
Tb601 O625 2.341 1_455 S
Tb601 O626 2.484 . S
Tb601 O627 2.440 . S
Tb601 O628 2.658 1_556 S
Tb601 O629 2.409 1_556 S
Tb601 O630 2.378 1_556 S
C602 Tb600 2.809 . S
C602 C603 1.514 . S
C602 O620 1.248 . S
C602 O621 1.266 . S
C603 C602 1.514 . S
C603 C604 1.359 . S
C603 C608 1.348 . S
C604 C603 1.359 . S
C604 C605 1.380 . S
C604 H632 0.929 . S
C605 C604 1.380 . S
C605 C606 1.347 . S
C605 H633 0.931 . S
C606 C605 1.347 . S
C606 C607 1.369 . S
C607 C606 1.369 . S
C607 C608 1.408 . S
C607 H634 0.930 . S
C608 C603 1.348 . S
C608 C607 1.408 . S
C608 H635 0.930 . S
C609 O622 1.281 . S
C609 O623 1.254 . S
C610 O624 1.236 . S
C610 O625 1.266 . S
C611 Tb601 2.809 . S
C611 C612 1.514 . S
C611 O626 1.248 . S
C611 O627 1.266 . S
C612 C611 1.514 . S
C612 C613 1.359 . S
C612 C617 1.348 . S
C613 C612 1.359 . S
C613 C614 1.380 . S
C613 H636 0.929 . S
C614 C613 1.380 . S
C614 C615 1.347 . S
C614 H637 0.931 . S
C615 C614 1.347 . S
C615 C616 1.369 . S
C616 C615 1.369 . S
C616 C617 1.408 . S
C616 H638 0.930 . S
C617 C612 1.348 . S
C617 C616 1.408 . S
C617 H639 0.930 . S
C618 O628 1.281 . S
C618 O629 1.254 . S
C619 O630 1.236 . S
C619 O631 1.266 . S
O620 Tb600 2.484 . S
O620 C602 1.248 . S
O621 Tb600 2.440 . S
O621 C602 1.266 . S
O622 Tb600 2.658 1_556 S
O622 Tb601 2.325 1_655 S
O622 C609 1.281 . S
O623 Tb600 2.409 1_556 S
O623 C609 1.254 . S
O624 Tb600 2.378 1_556 S
O624 C610 1.236 . S
O625 Tb601 2.341 1_655 S
O625 C610 1.266 . S
O626 Tb601 2.484 . S
O626 C611 1.248 . S
O627 Tb601 2.440 . S
O627 C611 1.266 . S
O628 Tb600 2.325 1_455 S
O628 Tb601 2.658 1_554 S
O628 C618 1.281 . S
O629 Tb601 2.409 1_554 S
O629 C618 1.254 . S
O630 Tb601 2.378 1_554 S
O630 C619 1.236 . S
O631 Tb600 2.341 1_455 S
O631 C619 1.266 . S
H632 C604 0.929 . S
H633 C605 0.931 . S
H634 C607 0.930 . S
H635 C608 0.930 . S
H636 C613 0.929 . S
H637 C614 0.931 . S
H638 C616 0.930 . S
H639 C617 0.930 . S
C640 C641 1.369 . S
C640 C642 1.419 . S
C640 H644 0.930 . S
C641 C640 1.369 . S
C641 C650 1.429 . S
C642 C640 1.419 . S
C642 C643 1.363 . S
C642 H645 0.929 . S
C643 C642 1.363 . S
C643 C649 1.428 . S
H644 C640 0.930 . S
H645 C642 0.929 . S
S646 N647 1.613 . S
S646 N648 1.610 . S
N647 S646 1.613 . S
N647 C650 1.350 . S
N648 S646 1.610 . S
N648 C649 1.351 . S
C649 C643 1.428 . S
C649 N648 1.351 . S
C649 C650 1.434 . S
C650 C641 1.429 . S
C650 N647 1.350 . S
C650 C649 1.434 . S
C651 C652 1.369 . S
C651 C653 1.419 . S
C651 H655 0.930 . S
C652 C651 1.369 . S
C652 C661 1.429 . S
C653 C651 1.419 . S
C653 C654 1.363 . S
C653 H656 0.929 . S
C654 C653 1.363 . S
C654 C660 1.428 . S
H655 C651 0.930 . S
H656 C653 0.929 . S
S657 N658 1.613 . S
S657 N659 1.610 . S
N658 S657 1.613 . S
N658 C661 1.350 . S
N659 S657 1.610 . S
N659 C660 1.351 . S
C660 C654 1.428 . S
C660 N659 1.351 . S
C660 C661 1.434 . S
C661 C652 1.429 . S
C661 N658 1.350 . S
C661 C660 1.434 . S
C662 C663 1.369 . S
C662 C664 1.419 . S
C662 H666 0.930 . S
C663 C662 1.369 . S
C663 C672 1.429 . S
C664 C662 1.419 . S
C664 C665 1.363 . S
C664 H667 0.929 . S
C665 C664 1.363 . S
C665 C671 1.428 . S
H666 C662 0.930 . S
H667 C664 0.929 . S
S668 N669 1.613 . S
S668 N670 1.610 . S
N669 S668 1.613 . S
N669 C672 1.350 . S
N670 S668 1.610 . S
N670 C671 1.351 . S
C671 C665 1.428 . S
C671 N670 1.351 . S
C671 C672 1.434 . S
C672 C663 1.429 . S
C672 N669 1.350 . S
C672 C671 1.434 . S
C673 C674 1.369 . S
C673 C675 1.419 . S
C673 H677 0.930 . S
C674 C673 1.369 . S
C674 C683 1.429 . S
C675 C673 1.419 . S
C675 C676 1.363 . S
C675 H678 0.929 . S
C676 C675 1.363 . S
C676 C682 1.428 . S
H677 C673 0.930 . S
H678 C675 0.929 . S
S679 N680 1.613 . S
S679 N681 1.610 . S
N680 S679 1.613 . S
N680 C683 1.350 . S
N681 S679 1.610 . S
N681 C682 1.351 . S
C682 C676 1.428 . S
C682 N681 1.351 . S
C682 C683 1.434 . S
C683 C674 1.429 . S
C683 N680 1.350 . S
C683 C682 1.434 . S
C684 C685 1.369 . S
C684 C686 1.419 . S
C684 H688 0.930 . S
C685 C684 1.369 . S
C685 C694 1.429 . S
C686 C684 1.419 . S
C686 C687 1.363 . S
C686 H689 0.929 . S
C687 C686 1.363 . S
C687 C693 1.428 . S
H688 C684 0.930 . S
H689 C686 0.929 . S
S690 N691 1.613 . S
S690 N692 1.610 . S
N691 S690 1.613 . S
N691 C694 1.350 . S
N692 S690 1.610 . S
N692 C693 1.351 . S
C693 C687 1.428 . S
C693 N692 1.351 . S
C693 C694 1.434 . S
C694 C685 1.429 . S
C694 N691 1.350 . S
C694 C693 1.434 . S
C695 C696 1.369 . S
C695 C697 1.419 . S
C695 H699 0.930 . S
C696 C695 1.369 . S
C696 C705 1.429 . S
C697 C695 1.419 . S
C697 C698 1.363 . S
C697 H700 0.929 . S
C698 C697 1.363 . S
C698 C704 1.428 . S
H699 C695 0.930 . S
H700 C697 0.929 . S
S701 N702 1.613 . S
S701 N703 1.610 . S
N702 S701 1.613 . S
N702 C705 1.350 . S
N703 S701 1.610 . S
N703 C704 1.351 . S
C704 C698 1.428 . S
C704 N703 1.351 . S
C704 C705 1.434 . S
C705 C696 1.429 . S
C705 N702 1.350 . S
C705 C704 1.434 . S
C706 C707 1.369 . S
C706 C708 1.419 . S
C706 H710 0.930 . S
C707 C706 1.369 . S
C707 C716 1.429 . S
C708 C706 1.419 . S
C708 C709 1.363 . S
C708 H711 0.929 . S
C709 C708 1.363 . S
C709 C715 1.428 . S
H710 C706 0.930 . S
H711 C708 0.929 . S
S712 N713 1.613 1_565 S
S712 N714 1.610 1_566 S
N713 S712 1.613 1_545 S
N713 C716 1.350 1_556 S
N714 S712 1.610 1_544 S
N714 C715 1.351 . S
C715 C709 1.428 . S
C715 N714 1.351 . S
C715 C716 1.434 . S
C716 C707 1.429 . S
C716 N713 1.350 1_554 S
C716 C715 1.434 . S
C717 C718 1.369 . S
C717 C719 1.419 . S
C717 H721 0.930 . S
C718 C717 1.369 . S
C718 C727 1.429 . S
C719 C717 1.419 . S
C719 C720 1.363 . S
C719 H722 0.929 . S
C720 C719 1.363 . S
C720 C726 1.428 . S
H721 C717 0.930 . S
H722 C719 0.929 . S
S723 N724 1.613 . S
S723 N725 1.610 . S
N724 S723 1.613 . S
N724 C727 1.350 . S
N725 S723 1.610 . S
N725 C726 1.351 . S
C726 C720 1.428 . S
C726 N725 1.351 . S
C726 C727 1.434 . S
C727 C718 1.429 . S
C727 N724 1.350 . S
C727 C726 1.434 . S
C728 C729 1.369 . S
C728 C730 1.419 . S
C728 H732 0.930 . S
C729 C728 1.369 . S
C729 C738 1.429 . S
C730 C728 1.419 . S
C730 C731 1.363 . S
C730 H733 0.929 . S
C731 C730 1.363 . S
C731 C737 1.428 1_655 S
H732 C728 0.930 . S
H733 C730 0.929 . S
S734 N735 1.613 . S
S734 N736 1.610 . S
N735 S734 1.613 . S
N735 C738 1.350 1_455 S
N736 S734 1.610 . S
N736 C737 1.351 . S
C737 C731 1.428 1_455 S
C737 N736 1.351 . S
C737 C738 1.434 1_455 S
C738 C729 1.429 . S
C738 N735 1.350 1_655 S
C738 C737 1.434 1_655 S
C739 C740 1.369 . S
C739 C741 1.419 . S
C739 H743 0.930 . S
C740 C739 1.369 . S
C740 C749 1.429 . S
C741 C739 1.419 . S
C741 C742 1.363 . S
C741 H744 0.929 . S
C742 C741 1.363 . S
C742 C748 1.428 . S
H743 C739 0.930 . S
H744 C741 0.929 . S
S745 N746 1.613 . S
S745 N747 1.610 . S
N746 S745 1.613 . S
N746 C749 1.350 . S
N747 S745 1.610 . S
N747 C748 1.351 . S
C748 C742 1.428 . S
C748 N747 1.351 . S
C748 C749 1.434 . S
C749 C740 1.429 . S
C749 N746 1.350 . S
C749 C748 1.434 . S
C750 C751 1.369 . S
C750 C752 1.419 . S
C750 H754 0.930 . S
C751 C750 1.369 . S
C751 C760 1.429 . S
C752 C750 1.419 . S
C752 C753 1.363 . S
C752 H755 0.929 . S
C753 C752 1.363 . S
C753 C759 1.428 . S
H754 C750 0.930 . S
H755 C752 0.929 . S
S756 N757 1.613 . S
S756 N758 1.610 . S
N757 S756 1.613 . S
N757 C760 1.350 . S
N758 S756 1.610 . S
N758 C759 1.351 . S
C759 C753 1.428 . S
C759 N758 1.351 . S
C759 C760 1.434 . S
C760 C751 1.429 . S
C760 N757 1.350 . S
C760 C759 1.434 . S
C761 C762 1.369 . S
C761 C763 1.419 . S
C761 H765 0.930 . S
C762 C761 1.369 . S
C762 C771 1.429 . S
C763 C761 1.419 . S
C763 C764 1.363 . S
C763 H766 0.929 . S
C764 C763 1.363 . S
C764 C770 1.428 . S
H765 C761 0.930 . S
H766 C763 0.929 . S
S767 N768 1.613 . S
S767 N769 1.610 . S
N768 S767 1.613 . S
N768 C771 1.350 . S
N769 S767 1.610 . S
N769 C770 1.351 . S
C770 C764 1.428 . S
C770 N769 1.351 . S
C770 C771 1.434 . S
C771 C762 1.429 . S
C771 N768 1.350 . S
C771 C770 1.434 . S
C772 C773 1.369 . S
C772 C774 1.419 . S
C772 H776 0.930 . S
C773 C772 1.369 . S
C773 C782 1.429 . S
C774 C772 1.419 . S
C774 C775 1.363 . S
C774 H777 0.929 . S
C775 C774 1.363 . S
C775 C781 1.428 . S
H776 C772 0.930 . S
H777 C774 0.929 . S
S778 N779 1.613 . S
S778 N780 1.610 . S
N779 S778 1.613 . S
N779 C782 1.350 . S
N780 S778 1.610 . S
N780 C781 1.351 . S
C781 C775 1.428 . S
C781 N780 1.351 . S
C781 C782 1.434 . S
C782 C773 1.429 . S
C782 N779 1.350 . S
C782 C781 1.434 . S
C783 C784 1.369 . S
C783 C785 1.419 . S
C783 H787 0.930 . S
C784 C783 1.369 . S
C784 C793 1.429 . S
C785 C783 1.419 . S
C785 C786 1.363 . S
C785 H788 0.929 . S
C786 C785 1.363 . S
C786 C792 1.428 . S
H787 C783 0.930 . S
H788 C785 0.929 . S
S789 N790 1.613 . S
S789 N791 1.610 . S
N790 S789 1.613 . S
N790 C793 1.350 . S
N791 S789 1.610 . S
N791 C792 1.351 . S
C792 C786 1.428 . S
C792 N791 1.351 . S
C792 C793 1.434 . S
C793 C784 1.429 . S
C793 N790 1.350 . S
C793 C792 1.434 . S
C794 C795 1.369 . S
C794 C796 1.419 . S
C794 H798 0.930 1_545 S
C795 C794 1.369 . S
C795 C804 1.429 . S
C796 C794 1.419 . S
C796 C797 1.363 . S
C796 H799 0.929 . S
C797 C796 1.363 . S
C797 C803 1.428 . S
H798 C794 0.930 1_565 S
H799 C796 0.929 . S
S800 N801 1.613 . S
S800 N802 1.610 . S
N801 S800 1.613 . S
N801 C804 1.350 . S
N802 S800 1.610 . S
N802 C803 1.351 . S
C803 C797 1.428 . S
C803 N802 1.351 . S
C803 C804 1.434 . S
C804 C795 1.429 . S
C804 N801 1.350 . S
C804 C803 1.434 . S
C805 C806 1.369 . S
C805 C807 1.419 . S
C805 H809 0.930 . S
C806 C805 1.369 . S
C806 C815 1.429 . S
C807 C805 1.419 . S
C807 C808 1.363 . S
C807 H810 0.929 . S
C808 C807 1.363 . S
C808 C814 1.428 . S
H809 C805 0.930 . S
H810 C807 0.929 . S
S811 N812 1.613 . S
S811 N813 1.610 . S
N812 S811 1.613 . S
N812 C815 1.350 . S
N813 S811 1.610 . S
N813 C814 1.351 . S
C814 C808 1.428 . S
C814 N813 1.351 . S
C814 C815 1.434 . S
C815 C806 1.429 . S
C815 N812 1.350 . S
C815 C814 1.434 . S
C816 C817 1.369 . S
C816 C818 1.419 . S
C816 H820 0.930 . S
C817 C816 1.369 . S
C817 C826 1.429 . S
C818 C816 1.419 . S
C818 C819 1.363 . S
C818 H821 0.929 . S
C819 C818 1.363 . S
C819 C825 1.428 . S
H820 C816 0.930 . S
H821 C818 0.929 . S
S822 N823 1.613 . S
S822 N824 1.610 . S
N823 S822 1.613 . S
N823 C826 1.350 . S
N824 S822 1.610 . S
N824 C825 1.351 . S
C825 C819 1.428 . S
C825 N824 1.351 . S
C825 C826 1.434 . S
C826 C817 1.429 . S
C826 N823 1.350 . S
C826 C825 1.434 . S
C827 C828 1.369 . S
C827 C829 1.419 . S
C827 H831 0.930 . S
C828 C827 1.369 . S
C828 C837 1.429 . S
C829 C827 1.419 . S
C829 C830 1.363 . S
C829 H832 0.929 . S
C830 C829 1.363 . S
C830 C836 1.428 . S
H831 C827 0.930 . S
H832 C829 0.929 . S
S833 N834 1.613 . S
S833 N835 1.610 . S
N834 S833 1.613 . S
N834 C837 1.350 . S
N835 S833 1.610 . S
N835 C836 1.351 . S
C836 C830 1.428 . S
C836 N835 1.351 . S
C836 C837 1.434 . S
C837 C828 1.429 . S
C837 N834 1.350 . S
C837 C836 1.434 . S
C838 C839 1.369 . S
C838 C840 1.419 . S
C838 H842 0.930 . S
C839 C838 1.369 . S
C839 C848 1.429 . S
C840 C838 1.419 . S
C840 C841 1.363 . S
C840 H843 0.929 . S
C841 C840 1.363 . S
C841 C847 1.428 . S
H842 C838 0.930 . S
H843 C840 0.929 . S
S844 N845 1.613 . S
S844 N846 1.610 . S
N845 S844 1.613 . S
N845 C848 1.350 . S
N846 S844 1.610 . S
N846 C847 1.351 . S
C847 C841 1.428 . S
C847 N846 1.351 . S
C847 C848 1.434 . S
C848 C839 1.429 . S
C848 N845 1.350 . S
C848 C847 1.434 . S
C849 C850 1.369 . S
C849 C851 1.419 . S
C849 H853 0.930 . S
C850 C849 1.369 . S
C850 C859 1.429 . S
C851 C849 1.419 . S
C851 C852 1.363 . S
C851 H854 0.929 . S
C852 C851 1.363 . S
C852 C858 1.428 . S
H853 C849 0.930 . S
H854 C851 0.929 . S
S855 N856 1.613 . S
S855 N857 1.610 . S
N856 S855 1.613 . S
N856 C859 1.350 . S
N857 S855 1.610 . S
N857 C858 1.351 . S
C858 C852 1.428 . S
C858 N857 1.351 . S
C858 C859 1.434 . S
C859 C850 1.429 . S
C859 N856 1.350 . S
C859 C858 1.434 . S
C860 C861 1.369 . S
C860 C862 1.419 . S
C860 H864 0.930 . S
C861 C860 1.369 . S
C861 C870 1.429 . S
C862 C860 1.419 . S
C862 C863 1.363 . S
C862 H865 0.929 . S
C863 C862 1.363 . S
C863 C869 1.428 . S
H864 C860 0.930 . S
H865 C862 0.929 . S
S866 N867 1.613 . S
S866 N868 1.610 . S
N867 S866 1.613 . S
N867 C870 1.350 . S
N868 S866 1.610 . S
N868 C869 1.351 . S
C869 C863 1.428 . S
C869 N868 1.351 . S
C869 C870 1.434 . S
C870 C861 1.429 . S
C870 N867 1.350 . S
C870 C869 1.434 . S
C871 C872 1.369 . S
C871 C873 1.419 . S
C871 H875 0.930 . S
C872 C871 1.369 . S
C872 C881 1.429 . S
C873 C871 1.419 . S
C873 C874 1.363 . S
C873 H876 0.929 . S
C874 C873 1.363 . S
C874 C880 1.428 . S
H875 C871 0.930 . S
H876 C873 0.929 . S
S877 N878 1.613 . S
S877 N879 1.610 . S
N878 S877 1.613 . S
N878 C881 1.350 . S
N879 S877 1.610 . S
N879 C880 1.351 . S
C880 C874 1.428 . S
C880 N879 1.351 . S
C880 C881 1.434 . S
C881 C872 1.429 . S
C881 N878 1.350 . S
C881 C880 1.434 . S
C882 C883 1.369 . S
C882 C884 1.419 . S
C882 H886 0.930 . S
C883 C882 1.369 . S
C883 C892 1.429 . S
C884 C882 1.419 . S
C884 C885 1.363 . S
C884 H887 0.929 . S
C885 C884 1.363 . S
C885 C891 1.428 . S
H886 C882 0.930 . S
H887 C884 0.929 . S
S888 N889 1.613 . S
S888 N890 1.610 . S
N889 S888 1.613 . S
N889 C892 1.350 . S
N890 S888 1.610 . S
N890 C891 1.351 . S
C891 C885 1.428 . S
C891 N890 1.351 . S
C891 C892 1.434 . S
C892 C883 1.429 . S
C892 N889 1.350 . S
C892 C891 1.434 . S
C893 C894 1.369 . S
C893 C895 1.419 . S
C893 H897 0.930 . S
C894 C893 1.369 . S
C894 C903 1.429 . S
C895 C893 1.419 . S
C895 C896 1.363 . S
C895 H898 0.929 . S
C896 C895 1.363 . S
C896 C902 1.428 . S
H897 C893 0.930 . S
H898 C895 0.929 . S
S899 N900 1.613 . S
S899 N901 1.610 . S
N900 S899 1.613 . S
N900 C903 1.350 . S
N901 S899 1.610 . S
N901 C902 1.351 . S
C902 C896 1.428 . S
C902 N901 1.351 . S
C902 C903 1.434 . S
C903 C894 1.429 . S
C903 N900 1.350 . S
C903 C902 1.434 . S
C904 C905 1.369 . S
C904 C906 1.419 . S
C904 H908 0.930 . S
C905 C904 1.369 . S
C905 C914 1.429 . S
C906 C904 1.419 . S
C906 C907 1.363 . S
C906 H909 0.929 . S
C907 C906 1.363 . S
C907 C913 1.428 . S
H908 C904 0.930 . S
H909 C906 0.929 . S
S910 N911 1.613 . S
S910 N912 1.610 . S
N911 S910 1.613 . S
N911 C914 1.350 . S
N912 S910 1.610 . S
N912 C913 1.351 . S
C913 C907 1.428 . S
C913 N912 1.351 . S
C913 C914 1.434 . S
C914 C905 1.429 . S
C914 N911 1.350 . S
C914 C913 1.434 . S
C915 C916 1.369 . S
C915 C917 1.419 . S
C915 H919 0.930 . S
C916 C915 1.369 . S
C916 C925 1.429 . S
C917 C915 1.419 . S
C917 C918 1.363 . S
C917 H920 0.929 . S
C918 C917 1.363 . S
C918 C924 1.428 . S
H919 C915 0.930 . S
H920 C917 0.929 . S
S921 N922 1.613 . S
S921 N923 1.610 . S
N922 S921 1.613 . S
N922 C925 1.350 . S
N923 S921 1.610 . S
N923 C924 1.351 . S
C924 C918 1.428 . S
C924 N923 1.351 . S
C924 C925 1.434 . S
C925 C916 1.429 . S
C925 N922 1.350 . S
C925 C924 1.434 . S
C926 C927 1.369 . S
C926 C928 1.419 . S
C926 H930 0.930 . S
C927 C926 1.369 . S
C927 C936 1.429 . S
C928 C926 1.419 . S
C928 C929 1.363 . S
C928 H931 0.929 . S
C929 C928 1.363 . S
C929 C935 1.428 . S
H930 C926 0.930 . S
H931 C928 0.929 . S
S932 N933 1.613 . S
S932 N934 1.610 . S
N933 S932 1.613 . S
N933 C936 1.350 . S
N934 S932 1.610 . S
N934 C935 1.351 . S
C935 C929 1.428 . S
C935 N934 1.351 . S
C935 C936 1.434 . S
C936 C927 1.429 . S
C936 N933 1.350 . S
C936 C935 1.434 . S
C937 C938 1.369 . S
C937 C939 1.419 . S
C937 H941 0.930 . S
C938 C937 1.369 . S
C938 C947 1.429 . S
C939 C937 1.419 . S
C939 C940 1.363 . S
C939 H942 0.929 1_556 S
C940 C939 1.363 . S
C940 C946 1.428 . S
H941 C937 0.930 . S
H942 C939 0.929 1_554 S
S943 N944 1.613 . S
S943 N945 1.610 . S
N944 S943 1.613 . S
N944 C947 1.350 . S
N945 S943 1.610 . S
N945 C946 1.351 . S
C946 C940 1.428 . S
C946 N945 1.351 . S
C946 C947 1.434 . S
C947 C938 1.429 . S
C947 N944 1.350 . S
C947 C946 1.434 . S
C948 C949 1.369 . S
C948 C950 1.419 . S
C948 H952 0.930 . S
C949 C948 1.369 . S
C949 C958 1.429 . S
C950 C948 1.419 . S
C950 C951 1.363 . S
C950 H953 0.929 . S
C951 C950 1.363 . S
C951 C957 1.428 . S
H952 C948 0.930 . S
H953 C950 0.929 . S
S954 N955 1.613 . S
S954 N956 1.610 . S
N955 S954 1.613 . S
N955 C958 1.350 . S
N956 S954 1.610 . S
N956 C957 1.351 . S
C957 C951 1.428 . S
C957 N956 1.351 . S
C957 C958 1.434 . S
C958 C949 1.429 . S
C958 N955 1.350 . S
C958 C957 1.434 . S
C959 C960 1.369 . S
C959 C961 1.419 . S
C959 H963 0.930 . S
C960 C959 1.369 . S
C960 C969 1.429 . S
C961 C959 1.419 . S
C961 C962 1.363 . S
C961 H964 0.927 . S
C962 C961 1.363 . S
C962 C968 1.428 . S
H963 C959 0.930 . S
H964 C961 0.927 . S
S965 N966 1.613 . S
S965 N967 1.610 . S
N966 S965 1.613 . S
N966 C969 1.350 . S
N967 S965 1.610 . S
N967 C968 1.351 . S
C968 C962 1.428 . S
C968 N967 1.351 . S
C968 C969 1.434 . S
C969 C960 1.429 . S
C969 N966 1.350 . S
C969 C968 1.434 . S
C970 C971 1.369 . S
C970 C972 1.419 . S
C970 H974 0.930 . S
C971 C970 1.369 . S
C971 C980 1.429 . S
C972 C970 1.419 . S
C972 C973 1.363 . S
C972 H975 0.929 . S
C973 C972 1.363 . S
C973 C979 1.428 . S
H974 C970 0.930 . S
H975 C972 0.929 . S
S976 N977 1.613 . S
S976 N978 1.610 . S
N977 S976 1.613 . S
N977 C980 1.350 . S
N978 S976 1.610 . S
N978 C979 1.351 . S
C979 C973 1.428 . S
C979 N978 1.351 . S
C979 C980 1.434 . S
C980 C971 1.429 . S
C980 N977 1.350 . S
C980 C979 1.434 . S
C981 C982 1.369 . S
C981 C983 1.419 . S
C981 H985 0.930 . S
C982 C981 1.369 . S
C982 C991 1.429 . S
C983 C981 1.419 . S
C983 C984 1.363 . S
C983 H986 0.929 . S
C984 C983 1.363 . S
C984 C990 1.428 . S
H985 C981 0.930 . S
H986 C983 0.929 . S
S987 N988 1.613 . S
S987 N989 1.610 . S
N988 S987 1.613 . S
N988 C991 1.350 . S
N989 S987 1.610 . S
N989 C990 1.351 . S
C990 C984 1.428 . S
C990 N989 1.351 . S
C990 C991 1.434 . S
C991 C982 1.429 . S
C991 N988 1.350 . S
C991 C990 1.434 . S
C992 C993 1.369 . S
C992 C994 1.419 . S
C992 H996 0.930 . S
C993 C992 1.369 . S
C993 C1002 1.429 . S
C994 C992 1.419 . S
C994 C995 1.363 . S
C994 H997 0.929 . S
C995 C994 1.363 . S
C995 C1001 1.428 . S
H996 C992 0.930 . S
H997 C994 0.929 . S
S998 N999 1.613 . S
S998 N1000 1.610 . S
N999 S998 1.613 . S
N999 C1002 1.350 . S
N1000 S998 1.610 . S
N1000 C1001 1.351 . S
C1001 C995 1.428 . S
C1001 N1000 1.351 . S
C1001 C1002 1.434 . S
C1002 C993 1.429 . S
C1002 N999 1.350 . S
C1002 C1001 1.434 . S
C1003 C1004 1.369 . S
C1003 C1005 1.419 . S
C1003 H1007 0.930 . S
C1004 C1003 1.369 . S
C1004 C1013 1.429 . S
C1005 C1003 1.419 . S
C1005 C1006 1.363 . S
C1005 H1008 0.929 . S
C1006 C1005 1.363 . S
C1006 C1012 1.428 . S
H1007 C1003 0.930 . S
H1008 C1005 0.929 . S
S1009 N1010 1.613 . S
S1009 N1011 1.610 . S
N1010 S1009 1.613 . S
N1010 C1013 1.350 . S
N1011 S1009 1.610 . S
N1011 C1012 1.351 . S
C1012 C1006 1.428 . S
C1012 N1011 1.351 . S
C1012 C1013 1.434 . S
C1013 C1004 1.429 . S
C1013 N1010 1.350 . S
C1013 C1012 1.434 . S
C1014 C1015 1.369 . S
C1014 C1016 1.419 . S
C1014 H1018 0.930 . S
C1015 C1014 1.369 . S
C1015 C1024 1.429 . S
C1016 C1014 1.419 . S
C1016 C1017 1.363 . S
C1016 H1019 0.929 . S
C1017 C1016 1.363 . S
C1017 C1023 1.428 . S
H1018 C1014 0.930 . S
H1019 C1016 0.929 . S
S1020 N1021 1.613 . S
S1020 N1022 1.610 . S
N1021 S1020 1.613 . S
N1021 C1024 1.350 . S
N1022 S1020 1.610 . S
N1022 C1023 1.351 . S
C1023 C1017 1.428 . S
C1023 N1022 1.351 . S
C1023 C1024 1.434 . S
C1024 C1015 1.429 . S
C1024 N1021 1.350 . S
C1024 C1023 1.434 . S
C1025 C1026 1.369 . S
C1025 C1027 1.419 . S
C1025 H1029 0.930 . S
C1026 C1025 1.369 . S
C1026 C1035 1.429 . S
C1027 C1025 1.419 . S
C1027 C1028 1.363 . S
C1027 H1030 0.929 . S
C1028 C1027 1.363 . S
C1028 C1034 1.428 . S
H1029 C1025 0.930 . S
H1030 C1027 0.929 . S
S1031 N1032 1.613 . S
S1031 N1033 1.610 . S
N1032 S1031 1.613 . S
N1032 C1035 1.350 1_556 S
N1033 S1031 1.610 . S
N1033 C1034 1.351 1_556 S
C1034 C1028 1.428 . S
C1034 N1033 1.351 1_554 S
C1034 C1035 1.434 . S
C1035 C1026 1.429 . S
C1035 N1032 1.350 1_554 S
C1035 C1034 1.434 . S
C1036 C1037 1.369 . S
C1036 C1038 1.419 . S
C1036 H1040 0.930 . S
C1037 C1036 1.369 . S
C1037 C1046 1.429 . S
C1038 C1036 1.419 . S
C1038 C1039 1.363 . S
C1038 H1041 0.929 . S
C1039 C1038 1.363 . S
C1039 C1045 1.428 . S
H1040 C1036 0.930 . S
H1041 C1038 0.929 . S
S1042 N1043 1.613 . S
S1042 N1044 1.610 . S
N1043 S1042 1.613 . S
N1043 C1046 1.350 . S
N1044 S1042 1.610 . S
N1044 C1045 1.351 . S
C1045 C1039 1.428 . S
C1045 N1044 1.351 . S
C1045 C1046 1.434 . S
C1046 C1037 1.429 . S
C1046 N1043 1.350 . S
C1046 C1045 1.434 . S
C1047 C1048 1.369 . S
C1047 C1049 1.419 . S
C1047 H1051 0.930 . S
C1048 C1047 1.369 . S
C1048 C1057 1.429 . S
C1049 C1047 1.419 . S
C1049 C1050 1.363 . S
C1049 H1052 0.929 . S
C1050 C1049 1.363 . S
C1050 C1056 1.428 . S
H1051 C1047 0.930 . S
H1052 C1049 0.929 . S
S1053 N1054 1.613 . S
S1053 N1055 1.610 . S
N1054 S1053 1.613 . S
N1054 C1057 1.350 . S
N1055 S1053 1.610 . S
N1055 C1056 1.351 . S
C1056 C1050 1.428 . S
C1056 N1055 1.351 . S
C1056 C1057 1.434 . S
C1057 C1048 1.429 . S
C1057 N1054 1.350 . S
C1057 C1056 1.434 . S
C1058 C1059 1.369 . S
C1058 C1060 1.419 . S
C1058 H1062 0.930 . S
C1059 C1058 1.369 . S
C1059 C1068 1.429 . S
C1060 C1058 1.419 . S
C1060 C1061 1.363 . S
C1060 H1063 0.929 . S
C1061 C1060 1.363 . S
C1061 C1067 1.428 . S
H1062 C1058 0.930 . S
H1063 C1060 0.929 . S
S1064 N1065 1.613 . S
S1064 N1066 1.610 . S
N1065 S1064 1.613 . S
N1065 C1068 1.350 . S
N1066 S1064 1.610 . S
N1066 C1067 1.351 . S
C1067 C1061 1.428 . S
C1067 N1066 1.351 . S
C1067 C1068 1.434 . S
C1068 C1059 1.429 . S
C1068 N1065 1.350 . S
C1068 C1067 1.434 . S
C1069 C1070 1.369 . S
C1069 C1071 1.419 . S
C1069 H1073 0.930 . S
C1070 C1069 1.369 . S
C1070 C1079 1.429 . S
C1071 C1069 1.419 . S
C1071 C1072 1.363 . S
C1071 H1074 0.929 . S
C1072 C1071 1.363 . S
C1072 C1078 1.428 . S
H1073 C1069 0.930 . S
H1074 C1071 0.929 . S
S1075 N1076 1.613 . S
S1075 N1077 1.610 . S
N1076 S1075 1.613 . S
N1076 C1079 1.350 . S
N1077 S1075 1.610 . S
N1077 C1078 1.351 . S
C1078 C1072 1.428 . S
C1078 N1077 1.351 . S
C1078 C1079 1.434 . S
C1079 C1070 1.429 . S
C1079 N1076 1.350 . S
C1079 C1078 1.434 . S
C1080 C1081 1.369 . S
C1080 C1082 1.419 . S
C1080 H1084 0.930 . S
C1081 C1080 1.369 . S
C1081 C1090 1.429 . S
C1082 C1080 1.419 . S
C1082 C1083 1.363 . S
C1082 H1085 0.929 . S
C1083 C1082 1.363 . S
C1083 C1089 1.428 . S
H1084 C1080 0.930 . S
H1085 C1082 0.929 . S
S1086 N1087 1.613 . S
S1086 N1088 1.610 . S
N1087 S1086 1.613 . S
N1087 C1090 1.350 . S
N1088 S1086 1.610 . S
N1088 C1089 1.351 . S
C1089 C1083 1.428 . S
C1089 N1088 1.351 . S
C1089 C1090 1.434 . S
C1090 C1081 1.429 . S
C1090 N1087 1.350 . S
C1090 C1089 1.434 . S
C1091 C1092 1.369 . S
C1091 C1093 1.419 . S
C1091 H1095 0.930 . S
C1092 C1091 1.369 . S
C1092 C1101 1.429 . S
C1093 C1091 1.419 . S
C1093 C1094 1.363 . S
C1093 H1096 0.929 . S
C1094 C1093 1.363 . S
C1094 C1100 1.428 . S
H1095 C1091 0.930 . S
H1096 C1093 0.929 . S
S1097 N1098 1.613 . S
S1097 N1099 1.610 . S
N1098 S1097 1.613 . S
N1098 C1101 1.350 . S
N1099 S1097 1.610 . S
N1099 C1100 1.351 . S
C1100 C1094 1.428 . S
C1100 N1099 1.351 . S
C1100 C1101 1.434 . S
C1101 C1092 1.429 . S
C1101 N1098 1.350 . S
C1101 C1100 1.434 . S
C1102 C1103 1.369 . S
C1102 C1104 1.419 . S
C1102 H1106 0.930 . S
C1103 C1102 1.369 . S
C1103 C1112 1.429 . S
C1104 C1102 1.419 . S
C1104 C1105 1.363 . S
C1104 H1107 0.929 . S
C1105 C1104 1.363 . S
C1105 C1111 1.428 . S
H1106 C1102 0.930 . S
H1107 C1104 0.929 . S
S1108 N1109 1.613 . S
S1108 N1110 1.610 . S
N1109 S1108 1.613 . S
N1109 C1112 1.350 . S
N1110 S1108 1.610 . S
N1110 C1111 1.351 . S
C1111 C1105 1.428 . S
C1111 N1110 1.351 . S
C1111 C1112 1.434 . S
C1112 C1103 1.429 . S
C1112 N1109 1.350 . S
C1112 C1111 1.434 . S
C1113 C1114 1.369 . S
C1113 C1115 1.419 . S
C1113 H1117 0.930 . S
C1114 C1113 1.369 . S
C1114 C1123 1.429 . S
C1115 C1113 1.419 . S
C1115 C1116 1.363 . S
C1115 H1118 0.929 . S
C1116 C1115 1.363 . S
C1116 C1122 1.428 . S
H1117 C1113 0.930 . S
H1118 C1115 0.929 . S
S1119 N1120 1.613 . S
S1119 N1121 1.610 . S
N1120 S1119 1.613 . S
N1120 C1123 1.350 . S
N1121 S1119 1.610 . S
N1121 C1122 1.351 . S
C1122 C1116 1.428 . S
C1122 N1121 1.351 . S
C1122 C1123 1.434 . S
C1123 C1114 1.429 . S
C1123 N1120 1.350 . S
C1123 C1122 1.434 . S
C1124 C1125 1.369 . S
C1124 C1126 1.419 . S
C1124 H1128 0.930 . S
C1125 C1124 1.369 . S
C1125 C1134 1.429 . S
C1126 C1124 1.419 . S
C1126 C1127 1.363 . S
C1126 H1129 0.929 . S
C1127 C1126 1.363 . S
C1127 C1133 1.428 . S
H1128 C1124 0.930 . S
H1129 C1126 0.929 . S
S1130 N1131 1.613 . S
S1130 N1132 1.610 . S
N1131 S1130 1.613 . S
N1131 C1134 1.350 . S
N1132 S1130 1.610 . S
N1132 C1133 1.351 . S
C1133 C1127 1.428 . S
C1133 N1132 1.351 . S
C1133 C1134 1.434 . S
C1134 C1125 1.429 . S
C1134 N1131 1.350 . S
C1134 C1133 1.434 . S
C1135 C1136 1.369 . S
C1135 C1137 1.419 . S
C1135 H1139 0.930 . S
C1136 C1135 1.369 . S
C1136 C1145 1.429 . S
C1137 C1135 1.419 . S
C1137 C1138 1.363 . S
C1137 H1140 0.929 . S
C1138 C1137 1.363 . S
C1138 C1144 1.428 . S
H1139 C1135 0.930 . S
H1140 C1137 0.929 . S
S1141 N1142 1.613 . S
S1141 N1143 1.610 . S
N1142 S1141 1.613 . S
N1142 C1145 1.350 . S
N1143 S1141 1.610 . S
N1143 C1144 1.351 . S
C1144 C1138 1.428 . S
C1144 N1143 1.351 . S
C1144 C1145 1.434 . S
C1145 C1136 1.429 . S
C1145 N1142 1.350 . S
C1145 C1144 1.434 . S
C1146 C1147 1.369 . S
C1146 C1148 1.419 . S
C1146 H1150 0.930 . S
C1147 C1146 1.369 . S
C1147 C1156 1.429 . S
C1148 C1146 1.419 . S
C1148 C1149 1.363 . S
C1148 H1151 0.929 . S
C1149 C1148 1.363 . S
C1149 C1155 1.428 . S
H1150 C1146 0.930 . S
H1151 C1148 0.929 . S
S1152 N1153 1.613 . S
S1152 N1154 1.610 . S
N1153 S1152 1.613 . S
N1153 C1156 1.350 . S
N1154 S1152 1.610 . S
N1154 C1155 1.351 . S
C1155 C1149 1.428 . S
C1155 N1154 1.351 . S
C1155 C1156 1.434 . S
C1156 C1147 1.429 . S
C1156 N1153 1.350 . S
C1156 C1155 1.434 . S
C1157 C1158 1.369 . S
C1157 C1159 1.419 . S
C1157 H1161 0.930 . S
C1158 C1157 1.369 . S
C1158 C1167 1.429 . S
C1159 C1157 1.419 . S
C1159 C1160 1.363 . S
C1159 H1162 0.929 . S
C1160 C1159 1.363 . S
C1160 C1166 1.428 . S
H1161 C1157 0.930 . S
H1162 C1159 0.929 . S
S1163 N1164 1.613 . S
S1163 N1165 1.610 . S
N1164 S1163 1.613 . S
N1164 C1167 1.350 . S
N1165 S1163 1.610 . S
N1165 C1166 1.351 . S
C1166 C1160 1.428 . S
C1166 N1165 1.351 . S
C1166 C1167 1.434 . S
C1167 C1158 1.429 . S
C1167 N1164 1.350 . S
C1167 C1166 1.434 . S
C641 C139 3.617 . S
C643 C18 3.638 . S
C652 C10 2.414 . S
C654 C59 2.404 . S
C663 C89 1.291 . S
C665 C49 1.241 . S
C674 C126 1.684 . S
C676 C86 1.726 . S
C685 C170 2.371 . S
C687 C210 2.427 . S
C696 C218 1.349 . S
C698 C258 1.395 . S
C707 C255 1.413 . S
C709 C286 1.365 . S
C718 C175 1.208 . S
C720 C289 1.292 . S
C729 C375 1.253 . S
C731 C15 1.207 . S
C740 C410 1.175 . S
C742 C46 1.125 . S
C751 C99 2.361 . S
C753 C539 2.302 . S
C762 C338 1.254 . S
C764 C129 1.342 . S
C773 C449 1.344 . S
C775 C178 1.260 . S
C784 C575 1.200 . S
C786 C215 1.256 . S
C795 C250 1.179 . S
C797 C486 1.114 . S
C806 C619 2.360 . S
C808 C299 2.303 . S
C817 C335 1.199 . S
C819 C529 1.297 . S
C828 C370 2.427 . S
C830 C330 2.373 . S
C839 C418 1.391 . S
C841 C378 1.339 . S
C850 C578 3.639 . S
C852 C459 3.617 . S
C861 C489 1.247 . S
C863 C609 1.298 . S
C872 C450 3.617 . S
C874 C9 3.639 . S
C883 C490 2.400 . S
C885 C19 2.411 . S
C894 C498 1.243 . S
C896 C98 1.298 . S
C905 C95 1.728 . S
C907 C455 1.683 . S
C916 C379 2.427 . S
C918 C179 2.373 . S
C927 C369 1.346 . S
C929 C249 1.392 . S
C938 C535 1.369 . S
C940 C246 1.407 . S
C949 C166 1.195 . S
C951 C538 1.298 . S
C960 C206 1.252 . S
C962 C6 1.206 . S
C971 C419 1.181 . S
C973 C495 1.113 . S
C982 C90 2.360 . S
C984 C290 2.301 . S
C993 C329 1.256 . S
C995 C458 1.344 . S
C1004 C138 1.343 . S
C1006 C169 1.265 . S
C1015 C366 1.253 . S
C1017 C566 1.204 . S
C1026 C259 1.166 . S
C1028 C55 1.128 . S
C1037 C610 2.360 . S
C1039 C530 2.302 . S
C1048 C326 1.198 . S
C1050 C298 1.297 . S
C1059 C339 2.372 . S
C1061 C219 2.426 . S
C1070 C409 1.394 . S
C1072 C209 1.342 . S
C1081 C130 3.615 . S
C1083 C569 3.639 . S
C1092 C58 1.245 . S
C1094 C618 1.298 . S
C1103 C499 2.401 . S
C1105 C570 2.410 . S
C1114 C446 1.694 . S
C1116 C606 1.718 . S
C1125 C415 1.407 . S
C1127 C526 1.369 . S
C1136 C579 2.411 . S
C1138 C50 2.404 . S
C1147 C135 1.689 . S
C1149 C615 1.723 . S
C1158 C295 1.369 . S
C1160 C406 1.409 . S
