# Generated by pormake.
# Topology wjh, (4)-cn, num edge types: 1
# Building blocks:
#     Node 0, Type 0, BuildingBlock: NAHDIM_clean_sbu_0, # of connection points: 4
#     Node 1, Type 0, BuildingBlock: NAHDIM_clean_sbu_0, # of connection points: 4
#     Node 2, Type 0, BuildingBlock: NAHDIM_clean_sbu_0, # of connection points: 4
#     Node 3, Type 0, BuildingBlock: NAHDIM_clean_sbu_0, # of connection points: 4
#     Node 4, Type 0, BuildingBlock: NAHDIM_clean_sbu_0, # of connection points: 4
#     Node 5, Type 0, BuildingBlock: NAHDIM_clean_sbu_0, # of connection points: 4
#     Node 6, Type 0, BuildingBlock: NAHDIM_clean_sbu_0, # of connection points: 4
#     Node 7, Type 0, BuildingBlock: NAHDIM_clean_sbu_0, # of connection points: 4
#     Node 8, Type 0, BuildingBlock: NAHDIM_clean_sbu_0, # of connection points: 4
#     Node 9, Type 0, BuildingBlock: NAHDIM_clean_sbu_0, # of connection points: 4
#     Node 10, Type 0, BuildingBlock: NAHDIM_clean_sbu_0, # of connection points: 4
#     Node 11, Type 0, BuildingBlock: NAHDIM_clean_sbu_0, # of connection points: 4
#     Edge 12, Type (0, 0), BuildingBlock: CIFDUS_clean_linker_0, # of connection points: 2
#     Edge 13, Type (0, 0), BuildingBlock: CIFDUS_clean_linker_0, # of connection points: 2
#     Edge 14, Type (0, 0), BuildingBlock: CIFDUS_clean_linker_0, # of connection points: 2
#     Edge 15, Type (0, 0), BuildingBlock: CIFDUS_clean_linker_0, # of connection points: 2
#     Edge 16, Type (0, 0), BuildingBlock: CIFDUS_clean_linker_0, # of connection points: 2
#     Edge 17, Type (0, 0), BuildingBlock: CIFDUS_clean_linker_0, # of connection points: 2
#     Edge 18, Type (0, 0), BuildingBlock: CIFDUS_clean_linker_0, # of connection points: 2
#     Edge 19, Type (0, 0), BuildingBlock: CIFDUS_clean_linker_0, # of connection points: 2
#     Edge 20, Type (0, 0), BuildingBlock: CIFDUS_clean_linker_0, # of connection points: 2
#     Edge 21, Type (0, 0), BuildingBlock: CIFDUS_clean_linker_0, # of connection points: 2
#     Edge 22, Type (0, 0), BuildingBlock: CIFDUS_clean_linker_0, # of connection points: 2
#     Edge 23, Type (0, 0), BuildingBlock: CIFDUS_clean_linker_0, # of connection points: 2
#     Edge 24, Type (0, 0), BuildingBlock: CIFDUS_clean_linker_0, # of connection points: 2
#     Edge 25, Type (0, 0), BuildingBlock: CIFDUS_clean_linker_0, # of connection points: 2
#     Edge 26, Type (0, 0), BuildingBlock: CIFDUS_clean_linker_0, # of connection points: 2
#     Edge 27, Type (0, 0), BuildingBlock: CIFDUS_clean_linker_0, # of connection points: 2
#     Edge 28, Type (0, 0), BuildingBlock: CIFDUS_clean_linker_0, # of connection points: 2
#     Edge 29, Type (0, 0), BuildingBlock: CIFDUS_clean_linker_0, # of connection points: 2
#     Edge 30, Type (0, 0), BuildingBlock: CIFDUS_clean_linker_0, # of connection points: 2
#     Edge 31, Type (0, 0), BuildingBlock: CIFDUS_clean_linker_0, # of connection points: 2
#     Edge 32, Type (0, 0), BuildingBlock: CIFDUS_clean_linker_0, # of connection points: 2
#     Edge 33, Type (0, 0), BuildingBlock: CIFDUS_clean_linker_0, # of connection points: 2
#     Edge 34, Type (0, 0), BuildingBlock: CIFDUS_clean_linker_0, # of connection points: 2
#     Edge 35, Type (0, 0), BuildingBlock: CIFDUS_clean_linker_0, # of connection points: 2
# Relax obj value: 0.145
# Max RMSD: 0.135
# Mean RMSD: 0.135
data_MOF--net-wjh--node1-NAHDIM_clean_sbu_0--edge1-CIFDUS_clean_linker_0
_symmetry_space_group_name_H-M    P1
_symmetry_Int_Tables_number       1
_symmetry_cell_setting            triclinic
loop_
_symmetry_equiv_pos_as_xyz
'x, y, z'
_cell_length_a     55.788275
_cell_length_b     55.847058
_cell_length_c     21.008095
_cell_angle_alpha  90.030714
_cell_angle_beta   89.977862
_cell_angle_gamma 119.97676
loop_
_atom_site_label
_atom_site_type_symbol
_atom_site_fract_x
_atom_site_fract_y
_atom_site_fract_z
_atom_type_partial_charge
C0 C 0.50614 0.18527 0.10968 0.0
O1 O 0.52874 0.18432 0.09711 0.0
O2 O 0.50417 0.13001 0.01204 0.0
Zn3 Zn 0.48642 0.12916 0.09603 0.0
O4 O 0.5119 0.13026 0.16448 0.0
C5 C 0.43538 0.0781 0.0639 0.0
O6 O 0.44214 0.08581 0.00443 0.0
O7 O 0.48304 0.16289 0.10898 0.0
C8 C 0.50252 0.12302 0.22051 0.0
O9 O 0.47634 0.11473 0.23173 0.0
C10 C 0.51084 0.11165 0.00191 0.0
O11 O 0.50454 0.09228 0.04482 0.0
O12 O 0.45041 0.0939 0.10827 0.0
C13 C 0.30683 0.50444 0.28033 0.0
O14 O 0.32914 0.52903 0.28087 0.0
O15 O 0.36097 0.50873 0.16091 0.0
Zn16 Zn 0.3476 0.49111 0.24714 0.0
O17 O 0.37229 0.51718 0.31482 0.0
C18 C 0.35732 0.4454 0.21495 0.0
O19 O 0.36222 0.45552 0.15693 0.0
O20 O 0.30908 0.48367 0.26461 0.0
C21 C 0.37137 0.50734 0.36987 0.0
O22 O 0.35437 0.48091 0.38016 0.0
C23 C 0.3868 0.52334 0.15019 0.0
O24 O 0.4043 0.52608 0.19532 0.0
O25 O 0.34983 0.4565 0.25738 0.0
C26 C 0.82299 0.30129 0.45185 0.0
O27 O 0.83565 0.31582 0.50273 0.0
O28 O 0.86467 0.36906 0.31103 0.0
Zn29 Zn 0.86401 0.35057 0.39365 0.0
O30 O 0.85999 0.37234 0.46477 0.0
C31 C 0.91574 0.35255 0.36221 0.0
O32 O 0.90662 0.34939 0.3034 0.0
O33 O 0.83202 0.31168 0.39722 0.0
C34 C 0.88123 0.39399 0.48493 0.0
O35 O 0.90519 0.40225 0.45704 0.0
C36 C 0.84635 0.37567 0.29966 0.0
O37 O 0.82649 0.36924 0.34139 0.0
O38 O 0.90034 0.35203 0.40731 0.0
C39 C 0.48271 0.80635 0.59077 0.0
O40 O 0.46034 0.80798 0.58064 0.0
O41 O 0.49203 0.866 0.48851 0.0
Zn42 Zn 0.50539 0.86365 0.57687 0.0
O43 O 0.4797 0.86458 0.64217 0.0
C44 C 0.55631 0.91534 0.55478 0.0
O45 O 0.5487 0.91059 0.4948 0.0
O46 O 0.50613 0.82837 0.58965 0.0
C47 C 0.4755 0.88492 0.64429 0.0
O48 O 0.48738 0.90474 0.60185 0.0
C49 C 0.46681 0.85864 0.47801 0.0
O50 O 0.44892 0.84843 0.52494 0.0
O51 O 0.54206 0.89718 0.59617 0.0
C52 C 0.69228 0.5044 0.75347 0.0
O53 O 0.68206 0.49594 0.69621 0.0
O54 O 0.62461 0.48061 0.6954 0.0
Zn55 Zn 0.6399 0.50196 0.77729 0.0
O56 O 0.61648 0.48083 0.85237 0.0
C57 C 0.63433 0.54827 0.72795 0.0
O58 O 0.63035 0.53634 0.67201 0.0
O59 O 0.6782 0.50887 0.79435 0.0
C60 C 0.61925 0.49489 0.90231 0.0
O61 O 0.63698 0.52157 0.90202 0.0
C62 C 0.59887 0.46704 0.68307 0.0
O63 O 0.58122 0.46658 0.72516 0.0
O64 O 0.63967 0.53777 0.77558 0.0
C65 C 0.17668 0.67768 0.94383 0.0
O66 O 0.17782 0.65495 0.95201 0.0
O67 O 0.12337 0.61776 0.84058 0.0
Zn68 Zn 0.12199 0.63674 0.92139 0.0
O69 O 0.12406 0.6163 0.99773 0.0
C70 C 0.0726 0.63631 0.87794 0.0
O71 O 0.08473 0.64112 0.82205 0.0
O72 O 0.15386 0.67567 0.92715 0.0
C73 C 0.10679 0.59092 0.00706 0.0
O74 O 0.0872 0.57733 0.96488 0.0
C75 C 0.13558 0.60372 0.83736 0.0
O76 O 0.14857 0.60198 0.88772 0.0
O77 O 0.08541 0.63516 0.92671 0.0
C78 C 0.82518 0.51108 0.91277 0.0
O79 O 0.8359 0.51921 0.96977 0.0
O80 O 0.86286 0.47384 0.97177 0.0
Zn81 Zn 0.86839 0.49668 0.89307 0.0
O82 O 0.87285 0.47706 0.8176 0.0
C83 C 0.91395 0.54568 0.95236 0.0
O84 O 0.90165 0.53441 0.00643 0.0
O85 O 0.83566 0.50109 0.87491 0.0
C86 C 0.89622 0.4846 0.79201 0.0
O87 O 0.91857 0.50553 0.81633 0.0
C88 C 0.88127 0.46752 0.98484 0.0
O89 O 0.90294 0.47645 0.94741 0.0
O90 O 0.90276 0.53373 0.90037 0.0
C91 C 0.31885 0.80884 0.05125 0.0
O92 O 0.34209 0.80963 0.06653 0.0
O93 O 0.36928 0.86289 0.1508 0.0
Zn94 Zn 0.35553 0.86489 0.06325 0.0
O95 O 0.38104 0.86392 0.99711 0.0
C96 C 0.35606 0.91619 0.095 0.0
O97 O 0.35581 0.90882 0.1545 0.0
O98 O 0.31855 0.83139 0.04805 0.0
C99 C 0.38298 0.87504 0.94319 0.0
O100 O 0.36848 0.88725 0.93207 0.0
C101 C 0.39472 0.87114 0.16089 0.0
O102 O 0.41241 0.88192 0.1137 0.0
O103 O 0.35477 0.90013 0.05069 0.0
C104 C 0.49648 0.3135 0.24603 0.0
O105 O 0.52125 0.3355 0.24878 0.0
O106 O 0.49801 0.3716 0.35145 0.0
Zn107 Zn 0.4842 0.35576 0.26344 0.0
O108 O 0.51285 0.37701 0.19689 0.0
C109 C 0.43576 0.36249 0.27757 0.0
O110 O 0.43905 0.36063 0.33895 0.0
O111 O 0.47551 0.31631 0.2553 0.0
C112 C 0.5225 0.40261 0.18682 0.0
O113 O 0.51472 0.41656 0.2235 0.0
C114 C 0.52366 0.38489 0.36505 0.0
O115 O 0.54178 0.38788 0.32128 0.0
O116 O 0.45167 0.35978 0.23868 0.0
C117 C 0.17556 0.51224 0.40356 0.0
O118 O 0.17375 0.53455 0.41305 0.0
O119 O 0.12237 0.51233 0.49954 0.0
Zn120 Zn 0.1189 0.4903 0.42047 0.0
O121 O 0.11458 0.50952 0.34399 0.0
C122 C 0.07033 0.44217 0.4742 0.0
O123 O 0.07899 0.45513 0.52885 0.0
O124 O 0.15365 0.48876 0.40648 0.0
C125 C 0.10088 0.49543 0.29603 0.0
O126 O 0.0895 0.4684 0.29745 0.0
C127 C 0.10825 0.52438 0.50505 0.0
O128 O 0.0913 0.52203 0.45891 0.0
O129 O 0.08494 0.45262 0.42466 0.0
C130 C 0.68046 0.16635 0.54028 0.0
O131 O 0.66848 0.15087 0.49011 0.0
O132 O 0.6109 0.12512 0.68007 0.0
Zn133 Zn 0.62936 0.12713 0.59624 0.0
O134 O 0.60615 0.13025 0.52756 0.0
C135 C 0.62927 0.0752 0.61787 0.0
O136 O 0.6296 0.08071 0.67878 0.0
O137 O 0.6676 0.16 0.59302 0.0
C138 C 0.58012 0.11427 0.5305 0.0
O139 O 0.56959 0.0971 0.57867 0.0
C140 C 0.60466 0.14373 0.69109 0.0
O141 O 0.61193 0.1638 0.64959 0.0
O142 O 0.62993 0.09228 0.57711 0.0
C143 C 0.49035 0.67401 0.7044 0.0
O144 O 0.46587 0.65168 0.70061 0.0
O145 O 0.49061 0.61893 0.82297 0.0
Zn146 Zn 0.50404 0.63296 0.73381 0.0
O147 O 0.47561 0.60802 0.67047 0.0
C148 C 0.55513 0.63163 0.75369 0.0
O149 O 0.5525 0.63682 0.8135 0.0
O150 O 0.51101 0.67161 0.72048 0.0
C151 C 0.46571 0.58203 0.67237 0.0
O152 O 0.47363 0.57135 0.71779 0.0
C153 C 0.46496 0.6069 0.83639 0.0
O154 O 0.44732 0.60479 0.79227 0.0
O155 O 0.53773 0.63042 0.71307 0.0
H156 H 0.48744 0.10128 0.33896 0.0
H157 H 0.55881 0.14726 0.21843 0.0
H158 H 0.58919 0.14933 0.30448 0.0
H159 H 0.59544 0.13774 0.41353 0.0
H160 H 0.52394 0.09042 0.53278 0.0
H161 H 0.49366 0.08931 0.44758 0.0
C162 C 0.50965 0.11181 0.33155 0.0
C163 C 0.52085 0.12413 0.27247 0.0
C164 C 0.52697 0.1127 0.38096 0.0
C165 C 0.54965 0.13753 0.26345 0.0
C166 C 0.56705 0.13878 0.31265 0.0
C167 C 0.57325 0.12731 0.42099 0.0
C168 C 0.56196 0.11426 0.47941 0.0
C169 C 0.55593 0.12642 0.37155 0.0
C170 C 0.53315 0.10059 0.48817 0.0
C171 C 0.5158 0.09995 0.43951 0.0
H172 H 0.38153 0.49112 0.48347 0.0
H173 H 0.40196 0.5637 0.37164 0.0
H174 H 0.43227 0.59321 0.45646 0.0
H175 H 0.45346 0.59832 0.56138 0.0
H176 H 0.43436 0.52571 0.6717 0.0
H177 H 0.40292 0.49624 0.58831 0.0
C178 C 0.39253 0.5134 0.47773 0.0
C179 C 0.38947 0.5252 0.4214 0.0
C180 C 0.41015 0.53021 0.52631 0.0
C181 C 0.40402 0.55409 0.41449 0.0
C182 C 0.42132 0.57098 0.46298 0.0
C183 C 0.44233 0.57605 0.56737 0.0
C184 C 0.4462 0.56422 0.6227 0.0
C185 C 0.4246 0.55925 0.51896 0.0
C186 C 0.43178 0.53533 0.62949 0.0
C187 C 0.4138 0.51847 0.58187 0.0
H188 H 0.85395 0.44238 0.7278 0.0
H189 H 0.94279 0.49505 0.72661 0.0
H190 H 0.94588 0.47207 0.63067 0.0
H191 H 0.92342 0.43693 0.54754 0.0
H192 H 0.8346 0.38407 0.54926 0.0
H193 H 0.83149 0.4074 0.64451 0.0
C194 C 0.874 0.44884 0.70666 0.0
C195 C 0.89809 0.47039 0.73443 0.0
C196 C 0.87565 0.43559 0.65148 0.0
C197 C 0.9239 0.4785 0.70628 0.0
C198 C 0.9257 0.4654 0.65135 0.0
C199 C 0.90336 0.43057 0.56854 0.0
C200 C 0.87929 0.40881 0.54126 0.0
C201 C 0.90171 0.44393 0.62355 0.0
C202 C 0.85348 0.40077 0.56929 0.0
C203 C 0.85166 0.41407 0.62381 0.0
H204 H 0.45864 0.85501 0.75318 0.0
H205 H 0.45269 0.91821 0.64797 0.0
H206 H 0.42332 0.92057 0.73119 0.0
H207 H 0.3994 0.90466 0.83369 0.0
H208 H 0.40682 0.84267 0.94056 0.0
H209 H 0.43568 0.83993 0.85672 0.0
C210 C 0.45084 0.86924 0.74834 0.0
C211 C 0.4577 0.88631 0.6944 0.0
C212 C 0.43432 0.87075 0.79667 0.0
C213 C 0.44771 0.90486 0.68911 0.0
C214 C 0.4309 0.9062 0.73661 0.0
C215 C 0.4073 0.89053 0.83861 0.0
C216 C 0.4009 0.87383 0.89311 0.0
C217 C 0.42409 0.88925 0.79058 0.0
C218 C 0.4115 0.85579 0.89909 0.0
C219 C 0.42795 0.85416 0.85114 0.0
H220 H 0.55208 0.45749 0.15949 0.0
H221 H 0.53384 0.3774 0.08965 0.0
H222 H 0.56191 0.39879 0.99525 0.0
H223 H 0.59092 0.44014 0.93124 0.0
H224 H 0.61047 0.52036 0.00272 0.0
H225 H 0.58261 0.49901 0.09754 0.0
C226 C 0.55431 0.44473 0.1237 0.0
C227 C 0.54078 0.41591 0.13152 0.0
C228 C 0.57065 0.45716 0.06963 0.0
C229 C 0.54405 0.39967 0.08491 0.0
C230 C 0.56004 0.41185 0.03074 0.0
C231 C 0.58904 0.45292 0.96755 0.0
C232 C 0.6026 0.48174 0.95981 0.0
C233 C 0.57328 0.44056 0.02238 0.0
C234 C 0.60024 0.49809 0.00757 0.0
C235 C 0.58429 0.48591 0.06181 0.0
H236 H 0.12922 0.55029 0.26866 0.0
H237 H 0.0667 0.47146 0.19434 0.0
H238 H 0.06276 0.49405 0.09867 0.0
H239 H 0.07735 0.53613 0.03566 0.0
H240 H 0.14077 0.61474 0.10907 0.0
H241 H 0.14406 0.59224 0.20542 0.0
C242 C 0.11465 0.53805 0.23165 0.0
C243 C 0.09826 0.50926 0.23868 0.0
C244 C 0.11269 0.55111 0.17647 0.0
C245 C 0.07962 0.49367 0.19007 0.0
C246 C 0.07733 0.50656 0.13533 0.0
C247 C 0.09186 0.54835 0.07276 0.0
C248 C 0.10874 0.57707 0.06514 0.0
C249 C 0.09382 0.53526 0.12794 0.0
C250 C 0.12754 0.59258 0.1136 0.0
C251 C 0.12943 0.57975 0.16881 0.0
H252 H 0.5366 0.30442 0.20108 0.0
H253 H 0.44914 0.26275 0.24242 0.0
H254 H 0.44413 0.21935 0.20195 0.0
H255 H 0.4648 0.19342 0.15446 0.0
H256 H 0.55229 0.2361 0.11231 0.0
H257 H 0.55694 0.27904 0.1529 0.0
C258 C 0.51642 0.28584 0.2017 0.0
C259 C 0.49331 0.28679 0.22505 0.0
C260 C 0.51365 0.2612 0.17765 0.0
C261 C 0.46729 0.26255 0.22488 0.0
C262 C 0.4644 0.23776 0.20156 0.0
C263 C 0.48483 0.21216 0.15377 0.0
C264 C 0.50815 0.21151 0.13037 0.0
C265 C 0.48744 0.23688 0.17756 0.0
C266 C 0.53399 0.23596 0.13004 0.0
C267 C 0.53672 0.26056 0.15342 0.0
H268 H 0.29683 0.54421 0.32438 0.0
H269 H 0.25644 0.45685 0.28332 0.0
H270 H 0.21234 0.45131 0.31986 0.0
H271 H 0.18523 0.47146 0.36272 0.0
H272 H 0.22609 0.55895 0.40294 0.0
H273 H 0.27007 0.56415 0.36788 0.0
C274 C 0.2784 0.52394 0.32322 0.0
C275 C 0.27994 0.50101 0.30095 0.0
C276 C 0.2532 0.52089 0.34446 0.0
C277 C 0.25583 0.47488 0.30009 0.0
C278 C 0.23061 0.47168 0.32109 0.0
C279 C 0.20379 0.49163 0.36418 0.0
C280 C 0.20234 0.51477 0.38543 0.0
C281 C 0.22906 0.49455 0.34341 0.0
C282 C 0.22657 0.54078 0.38674 0.0
C283 C 0.25176 0.54381 0.3666 0.0
H284 H 0.71187 0.18696 0.43367 0.0
H285 H 0.71089 0.20229 0.6349 0.0
H286 H 0.75547 0.24471 0.62551 0.0
H287 H 0.79392 0.27818 0.55985 0.0
H288 H 0.79451 0.26365 0.35814 0.0
H289 H 0.75093 0.22005 0.36824 0.0
C290 C 0.72145 0.19949 0.47556 0.0
C291 C 0.70801 0.19146 0.53486 0.0
C292 C 0.74701 0.224 0.46978 0.0
C293 C 0.72074 0.20799 0.58864 0.0
C294 C 0.74625 0.23227 0.58334 0.0
C295 C 0.78465 0.2654 0.5181 0.0
C296 C 0.79744 0.27418 0.45832 0.0
C297 C 0.75945 0.24057 0.5241 0.0
C298 C 0.78505 0.25741 0.40471 0.0
C299 C 0.76012 0.23248 0.41043 0.0
H300 H 0.52335 0.79657 0.63253 0.0
H301 H 0.43626 0.75572 0.58684 0.0
H302 H 0.43105 0.71146 0.6188 0.0
H303 H 0.45084 0.6844 0.66069 0.0
H304 H 0.53778 0.72462 0.70711 0.0
H305 H 0.54335 0.76912 0.67421 0.0
C306 C 0.50327 0.77796 0.62923 0.0
C307 C 0.48024 0.77948 0.6073 0.0
C308 C 0.50033 0.7525 0.64819 0.0
C309 C 0.45434 0.75518 0.60361 0.0
C310 C 0.4513 0.72983 0.62197 0.0
C311 C 0.47103 0.70288 0.66384 0.0
C312 C 0.49383 0.70117 0.68646 0.0
C313 C 0.4741 0.72828 0.64464 0.0
C314 C 0.51985 0.72535 0.68997 0.0
C315 C 0.52307 0.7508 0.67105 0.0
H316 H 0.71814 0.52011 0.86828 0.0
H317 H 0.72605 0.4933 0.68043 0.0
H318 H 0.76824 0.49375 0.71311 0.0
H319 H 0.80171 0.49999 0.79565 0.0
H320 H 0.79398 0.52656 0.98383 0.0
H321 H 0.75277 0.528 0.9501 0.0
C322 C 0.72916 0.51451 0.83432 0.0
C323 C 0.71885 0.50655 0.77206 0.0
C324 C 0.75331 0.51465 0.85349 0.0
C325 C 0.73347 0.49946 0.72868 0.0
C326 C 0.75757 0.49965 0.74733 0.0
C327 C 0.79109 0.50615 0.82939 0.0
C328 C 0.80082 0.51298 0.89232 0.0
C329 C 0.76747 0.5069 0.80978 0.0
C330 C 0.78689 0.52113 0.93515 0.0
C331 C 0.76332 0.52194 0.91593 0.0
H332 H 0.22608 0.68715 0.98848 0.0
H333 H 0.18201 0.72908 0.93321 0.0
H334 H 0.22205 0.77351 0.96261 0.0
H335 H 0.26949 0.80028 0.00496 0.0
H336 H 0.31284 0.75755 0.06022 0.0
H337 H 0.27296 0.71353 0.03019 0.0
C338 C 0.22519 0.70598 0.98256 0.0
C339 C 0.2011 0.70479 0.95863 0.0
C340 C 0.24809 0.7313 -8e-05 0.0
C341 C 0.20033 0.72943 0.95146 0.0
C342 C 0.22319 0.75482 0.9684 0.0
C343 C 0.27015 0.78132 0.01065 0.0
C344 C 0.29411 0.78223 0.03489 0.0
C345 C 0.24714 0.75598 0.99297 0.0
C346 C 0.29469 0.75749 0.04171 0.0
C347 C 0.2719 0.73227 0.02445 0.0
H348 H 0.58167 0.10236 0.77886 0.0
H349 H 0.58949 0.18097 0.72916 0.0
H350 H 0.56051 0.17759 0.81954 0.0
H351 H 0.53308 0.15249 0.91296 0.0
H352 H 0.52536 0.07397 0.96307 0.0
H353 H 0.55397 0.0771 0.87203 0.0
C354 C 0.57714 0.11882 0.78792 0.0
C355 C 0.58784 0.14192 0.74735 0.0
C356 C 0.56033 0.11671 0.83988 0.0
C357 C 0.5816 0.16297 0.75964 0.0
C358 C 0.56496 0.16104 0.81129 0.0
C359 C 0.53752 0.13598 0.90382 0.0
C360 C 0.52707 0.11304 0.94484 0.0
C361 C 0.55418 0.13799 0.85166 0.0
C362 C 0.53314 0.09189 0.93235 0.0
C363 C 0.54956 0.09367 0.88033 0.0
H364 H 0.41152 0.57548 0.87471 0.0
H365 H 0.49566 0.60884 0.93985 0.0
H366 H 0.47888 0.58597 0.04254 0.0
H367 H 0.44035 0.55604 0.1133 0.0
H368 H 0.35625 0.52236 0.04747 0.0
H369 H 0.37306 0.54579 0.9455 0.0
C370 C 0.42623 0.57788 0.9114 0.0
C371 C 0.45482 0.5939 0.89951 0.0
C372 C 0.41646 0.56452 0.97016 0.0
C373 C 0.47355 0.59665 0.94765 0.0
C374 C 0.46397 0.58355 0.00639 0.0
C375 C 0.42567 0.55379 0.07669 0.0
C376 C 0.39707 0.53741 0.08813 0.0
C377 C 0.43547 0.56733 0.01807 0.0
C378 C 0.37838 0.53479 0.04004 0.0
C379 C 0.38797 0.54822 0.98167 0.0
H380 H 0.83933 0.44567 0.0717 0.0
H381 H 0.91691 0.45046 0.02398 0.0
H382 H 0.91258 0.42197 0.11596 0.0
H383 H 0.88715 0.3961 0.21051 0.0
H384 H 0.80978 0.39152 0.25929 0.0
H385 H 0.81364 0.4194 0.16618 0.0
C386 C 0.85529 0.44048 0.08139 0.0
C387 C 0.87842 0.45024 0.04094 0.0
C388 C 0.85271 0.42407 0.13451 0.0
C389 C 0.89889 0.44328 0.05427 0.0
C390 C 0.89644 0.42696 0.10688 0.0
C391 C 0.87105 0.40108 0.2007 0.0
C392 C 0.84821 0.39171 0.24189 0.0
C393 C 0.87347 0.41727 0.14735 0.0
C394 C 0.82761 0.39846 0.22844 0.0
C395 C 0.8298 0.41444 0.17522 0.0
H396 H 0.41522 0.84689 0.44293 0.0
H397 H 0.49814 0.87925 0.37021 0.0
H398 H 0.48321 0.88633 0.26603 0.0
H399 H 0.44662 0.88331 0.19565 0.0
H400 H 0.36376 0.85088 0.26892 0.0
H401 H 0.37878 0.84398 0.37294 0.0
C402 C 0.43006 0.85544 0.40433 0.0
C403 C 0.45775 0.86247 0.41443 0.0
C404 C 0.42138 0.85954 0.34466 0.0
C405 C 0.47668 0.8736 0.36379 0.0
C406 C 0.46818 0.8777 0.30419 0.0
C407 C 0.43184 0.8748 0.23438 0.0
C408 C 0.40409 0.86764 0.22438 0.0
C409 C 0.44058 0.87077 0.29412 0.0
C410 C 0.38523 0.85658 0.27517 0.0
C411 C 0.39379 0.85259 0.33472 0.0
H412 H 0.54556 0.43579 0.64221 0.0
H413 H 0.63015 0.4655 0.5848 0.0
H414 H 0.6143 0.44234 0.48229 0.0
H415 H 0.57661 0.41432 0.40816 0.0
H416 H 0.49197 0.38455 0.46497 0.0
H417 H 0.50771 0.40701 0.56845 0.0
C418 C 0.56054 0.43718 0.60736 0.0
C419 C 0.58902 0.45245 0.62132 0.0
C420 C 0.5513 0.4238 0.5483 0.0
C421 C 0.60811 0.45394 0.57548 0.0
C422 C 0.59907 0.4407 0.51674 0.0
C423 C 0.56156 0.41265 0.44316 0.0
C424 C 0.53314 0.39778 0.42862 0.0
C425 C 0.57074 0.42566 0.50253 0.0
C426 C 0.51398 0.39585 0.47476 0.0
C427 C 0.52296 0.40872 0.53399 0.0
H428 H 0.13966 0.53168 0.61033 0.0
H429 H 0.08251 0.55412 0.52913 0.0
H430 H 0.08644 0.58113 0.62391 0.0
H431 H 0.10563 0.59797 0.73034 0.0
H432 H 0.16228 0.57501 0.81216 0.0
H433 H 0.15904 0.54873 0.71653 0.0
C434 C 0.12808 0.5425 0.61327 0.0
C435 C 0.11081 0.54083 0.56262 0.0
C436 C 0.13035 0.55794 0.66803 0.0
C437 C 0.09594 0.55498 0.56738 0.0
C438 C 0.09818 0.57047 0.62158 0.0
C439 C 0.11737 0.58733 0.7272 0.0
C440 C 0.13418 0.5885 0.77842 0.0
C441 C 0.11527 0.57206 0.67224 0.0
C442 C 0.14915 0.57446 0.77354 0.0
C443 C 0.14731 0.55939 0.71885 0.0
H444 H 0.40659 0.03543 0.98172 0.0
H445 H 0.41676 0.05601 0.18173 0.0
H446 H 0.38936 0.0072 0.20916 0.0
H447 H 0.36851 0.95867 0.17675 0.0
H448 H 0.35981 0.93809 0.97677 0.0
H449 H 0.38021 0.98679 0.9492 0.0
C450 C 0.40235 0.0293 0.03128 0.0
C451 C 0.41417 0.04933 0.07953 0.0
C452 C 0.38707 0.00111 0.04687 0.0
C453 C 0.40824 0.04101 0.14354 0.0
C454 C 0.39262 0.01306 0.15937 0.0
C455 C 0.37057 0.96476 0.12714 0.0
C456 C 0.36313 0.94479 0.07901 0.0
C457 C 0.38286 0.9929 0.11149 0.0
C458 C 0.3657 0.95305 0.01491 0.0
C459 C 0.37745 0.98095 0.999 0.0
H460 H 0.40195 0.37455 0.3472 0.0
H461 H 0.42766 0.37239 0.15439 0.0
H462 H 0.40287 0.39524 0.11672 0.0
H463 H 0.37851 0.42061 0.14011 0.0
H464 H 0.35357 0.42354 0.33325 0.0
H465 H 0.3731 0.39537 0.36874 0.0
C466 C 0.4018 0.37869 0.29681 0.0
C467 C 0.41703 0.37214 0.25395 0.0
C468 C 0.38779 0.3922 0.27543 0.0
C469 C 0.41635 0.37743 0.18867 0.0
C470 C 0.40222 0.39058 0.16699 0.0
C471 C 0.37695 0.41474 0.18979 0.0
C472 C 0.36497 0.42456 0.23398 0.0
C473 C 0.38859 0.39882 0.2102 0.0
C474 C 0.36291 0.41651 0.29815 0.0
C475 C 0.37416 0.40044 0.31864 0.0
H476 H 0.04523 0.41391 0.36618 0.0
H477 H 0.03049 0.41888 0.56629 0.0
H478 H 0.981 0.38788 0.55022 0.0
H479 H 0.94167 0.36508 0.47708 0.0
H480 H 0.95635 0.36202 0.27617 0.0
H481 H 0.00617 0.38628 0.29514 0.0
C482 C 0.03129 0.40785 0.40658 0.0
C483 C 0.04153 0.41913 0.46717 0.0
C484 C 0.0028 0.39058 0.39675 0.0
C485 C 0.02318 0.41075 0.51903 0.0
C486 C -0.00517 0.3931 0.50984 0.0
C487 C 0.95571 0.36926 0.4375 0.0
C488 C 0.94527 0.36216 0.37511 0.0
C489 C 0.98434 0.38377 0.44852 0.0
C490 C 0.96379 0.36748 0.32458 0.0
C491 C 0.99232 0.38146 0.33535 0.0
H492 H 0.58508 0.96111 0.48139 0.0
H493 H 0.57325 0.93318 0.67647 0.0
H494 H 0.59846 0.98092 0.71345 0.0
H495 H 0.61752 0.03031 0.69089 0.0
H496 H 0.62779 0.05796 0.4957 0.0
H497 H 0.60987 0.01073 0.45855 0.0
C498 C 0.58849 0.96542 0.53195 0.0
C499 C 0.57679 0.94359 0.57602 0.0
C500 C 0.60244 0.99294 0.55304 0.0
C501 C 0.58172 0.94958 0.64139 0.0
C502 C 0.59605 0.97691 0.66269 0.0
C503 C 0.61633 0.02609 0.64025 0.0
C504 C 0.62345 0.04758 0.59626 0.0
C505 C 0.6055 -0.00125 0.61903 0.0
C506 C 0.62205 0.04176 0.53073 0.0
C507 C 0.61176 0.01472 0.50933 0.0
H508 H 0.61388 0.57007 0.64227 0.0
H509 H 0.63924 0.57603 0.83855 0.0
H510 H 0.61993 0.60569 0.86218 0.0
H511 H 0.59036 0.62456 0.83061 0.0
H512 H 0.56383 0.61746 0.63504 0.0
H513 H 0.5894 0.59406 0.60772 0.0
C514 C 0.61565 0.57827 0.68994 0.0
C515 C 0.62753 0.5704 0.73871 0.0
C516 C 0.60403 0.59493 0.70362 0.0
C517 C 0.62988 0.58145 0.80014 0.0
C518 C 0.61877 0.59838 0.81385 0.0
C519 C 0.59056 0.61834 0.78178 0.0
C520 C 0.57477 0.62231 0.73531 0.0
C521 C 0.60492 0.60442 0.7665 0.0
C522 C 0.57552 0.61437 0.67207 0.0
C523 C 0.59009 0.60089 0.65633 0.0
H524 H 0.04154 0.62355 0.98556 0.0
H525 H 0.03635 0.62728 0.78103 0.0
H526 H 0.98594 0.60264 0.78742 0.0
H527 H 0.94385 0.5743 0.84931 0.0
H528 H 0.94906 0.56894 0.05339 0.0
H529 H -0.00102 0.60037 0.04892 0.0
C530 C 0.02942 0.61942 0.94241 0.0
C531 C 0.0427 0.62676 0.88279 0.0
C532 C 0.00044 0.60472 0.94628 0.0
C533 C 0.02668 0.62162 0.82749 0.0
C534 C -0.00218 0.60741 0.83106 0.0
C535 C 0.95581 0.58036 0.893 0.0
C536 C 0.94282 0.56886 0.95146 0.0
C537 C 0.98454 0.59794 0.88995 0.0
C538 C 0.95856 0.57728 0.00769 0.0
C539 C 0.98714 0.59515 0.00514 0.0
loop_
_geom_bond_atom_site_label_1
_geom_bond_atom_site_label_2
_geom_bond_distance
_geom_bond_site_symmetry_2
_ccdc_geom_bond_type
C0 O1 1.160 . S
C0 O7 1.185 . S
O1 C0 1.160 . S
O2 Zn3 1.899 . S
O2 C10 1.284 1_554 S
Zn3 O2 1.899 . S
Zn3 O4 2.032 . S
Zn3 O7 2.086 . S
Zn3 O12 1.977 . S
O4 Zn3 2.032 . S
O4 C8 1.278 . S
C5 O6 1.203 . S
C5 O12 1.267 . S
O6 C5 1.203 . S
O7 C0 1.185 . S
O7 Zn3 2.086 . S
C8 O4 1.278 . S
C8 O9 1.211 . S
O9 C8 1.211 . S
C10 O2 1.284 1_556 S
C10 O11 1.273 1_556 S
O11 C10 1.273 1_554 S
O12 Zn3 1.977 . S
O12 C5 1.267 . S
C13 O14 1.160 . S
C13 O20 1.185 . S
O14 C13 1.160 . S
O15 Zn16 1.899 . S
O15 C23 1.284 . S
Zn16 O15 1.899 . S
Zn16 O17 2.032 . S
Zn16 O20 2.086 . S
Zn16 O25 1.977 . S
O17 Zn16 2.032 . S
O17 C21 1.278 . S
C18 O19 1.203 . S
C18 O25 1.267 . S
O19 C18 1.203 . S
O20 C13 1.185 . S
O20 Zn16 2.086 . S
C21 O17 1.278 . S
C21 O22 1.211 . S
O22 C21 1.211 . S
C23 O15 1.284 . S
C23 O24 1.273 . S
O24 C23 1.273 . S
O25 Zn16 1.977 . S
O25 C18 1.267 . S
C26 O27 1.160 . S
C26 O33 1.185 . S
O27 C26 1.160 . S
O28 Zn29 1.899 . S
O28 C36 1.284 . S
Zn29 O28 1.899 . S
Zn29 O30 2.032 . S
Zn29 O33 2.086 . S
Zn29 O38 1.977 . S
O30 Zn29 2.032 . S
O30 C34 1.278 . S
C31 O32 1.203 . S
C31 O38 1.267 . S
O32 C31 1.203 . S
O33 C26 1.185 . S
O33 Zn29 2.086 . S
C34 O30 1.278 . S
C34 O35 1.211 . S
O35 C34 1.211 . S
C36 O28 1.284 . S
C36 O37 1.273 . S
O37 C36 1.273 . S
O38 Zn29 1.977 . S
O38 C31 1.267 . S
C39 O40 1.160 . S
C39 O46 1.185 . S
O40 C39 1.160 . S
O41 Zn42 1.899 . S
O41 C49 1.284 . S
Zn42 O41 1.899 . S
Zn42 O43 2.032 . S
Zn42 O46 2.086 . S
Zn42 O51 1.977 . S
O43 Zn42 2.032 . S
O43 C47 1.278 . S
C44 O45 1.203 . S
C44 O51 1.267 . S
O45 C44 1.203 . S
O46 C39 1.185 . S
O46 Zn42 2.086 . S
C47 O43 1.278 . S
C47 O48 1.211 . S
O48 C47 1.211 . S
C49 O41 1.284 . S
C49 O50 1.273 . S
O50 C49 1.273 . S
O51 Zn42 1.977 . S
O51 C44 1.267 . S
C52 O53 1.160 . S
C52 O59 1.185 . S
O53 C52 1.160 . S
O54 Zn55 1.899 . S
O54 C62 1.284 . S
Zn55 O54 1.899 . S
Zn55 O56 2.032 . S
Zn55 O59 2.086 . S
Zn55 O64 1.977 . S
O56 Zn55 2.032 . S
O56 C60 1.278 . S
C57 O58 1.203 . S
C57 O64 1.267 . S
O58 C57 1.203 . S
O59 C52 1.185 . S
O59 Zn55 2.086 . S
C60 O56 1.278 . S
C60 O61 1.211 . S
O61 C60 1.211 . S
C62 O54 1.284 . S
C62 O63 1.273 . S
O63 C62 1.273 . S
O64 Zn55 1.977 . S
O64 C57 1.267 . S
C65 O66 1.160 . S
C65 O72 1.185 . S
O66 C65 1.160 . S
O67 Zn68 1.899 . S
O67 C75 1.284 . S
Zn68 O67 1.899 . S
Zn68 O69 2.032 . S
Zn68 O72 2.086 . S
Zn68 O77 1.977 . S
O69 Zn68 2.032 . S
O69 C73 1.278 1_556 S
C70 O71 1.203 . S
C70 O77 1.267 . S
O71 C70 1.203 . S
O72 C65 1.185 . S
O72 Zn68 2.086 . S
C73 O69 1.278 1_554 S
C73 O74 1.211 . S
O74 C73 1.211 . S
C75 O67 1.284 . S
C75 O76 1.273 . S
O76 C75 1.273 . S
O77 Zn68 1.977 . S
O77 C70 1.267 . S
C78 O79 1.160 . S
C78 O85 1.185 . S
O79 C78 1.160 . S
O80 Zn81 1.899 . S
O80 C88 1.284 1_556 S
Zn81 O80 1.899 . S
Zn81 O82 2.032 . S
Zn81 O85 2.086 . S
Zn81 O90 1.977 . S
O82 Zn81 2.032 . S
O82 C86 1.278 . S
C83 O84 1.203 . S
C83 O90 1.267 . S
O84 C83 1.203 . S
O85 C78 1.185 . S
O85 Zn81 2.086 . S
C86 O82 1.278 . S
C86 O87 1.211 . S
O87 C86 1.211 . S
C88 O80 1.284 1_554 S
C88 O89 1.273 1_554 S
O89 C88 1.273 1_556 S
O90 Zn81 1.977 . S
O90 C83 1.267 . S
C91 O92 1.160 . S
C91 O98 1.185 . S
O92 C91 1.160 . S
O93 Zn94 1.899 . S
O93 C101 1.284 . S
Zn94 O93 1.899 . S
Zn94 O95 2.032 . S
Zn94 O98 2.086 . S
Zn94 O103 1.977 . S
O95 Zn94 2.032 . S
O95 C99 1.278 1_554 S
C96 O97 1.203 . S
C96 O103 1.267 . S
O97 C96 1.203 . S
O98 C91 1.185 . S
O98 Zn94 2.086 . S
C99 O95 1.278 1_556 S
C99 O100 1.211 . S
O100 C99 1.211 . S
C101 O93 1.284 . S
C101 O102 1.273 . S
O102 C101 1.273 . S
O103 Zn94 1.977 . S
O103 C96 1.267 . S
C104 O105 1.160 . S
C104 O111 1.185 . S
O105 C104 1.160 . S
O106 Zn107 1.899 . S
O106 C114 1.284 . S
Zn107 O106 1.899 . S
Zn107 O108 2.032 . S
Zn107 O111 2.086 . S
Zn107 O116 1.977 . S
O108 Zn107 2.032 . S
O108 C112 1.278 . S
C109 O110 1.203 . S
C109 O116 1.267 . S
O110 C109 1.203 . S
O111 C104 1.185 . S
O111 Zn107 2.086 . S
C112 O108 1.278 . S
C112 O113 1.211 . S
O113 C112 1.211 . S
C114 O106 1.284 . S
C114 O115 1.273 . S
O115 C114 1.273 . S
O116 Zn107 1.977 . S
O116 C109 1.267 . S
C117 O118 1.160 . S
C117 O124 1.185 . S
O118 C117 1.160 . S
O119 Zn120 1.899 . S
O119 C127 1.284 . S
Zn120 O119 1.899 . S
Zn120 O121 2.032 . S
Zn120 O124 2.086 . S
Zn120 O129 1.977 . S
O121 Zn120 2.032 . S
O121 C125 1.278 . S
C122 O123 1.203 . S
C122 O129 1.267 . S
O123 C122 1.203 . S
O124 C117 1.185 . S
O124 Zn120 2.086 . S
C125 O121 1.278 . S
C125 O126 1.211 . S
O126 C125 1.211 . S
C127 O119 1.284 . S
C127 O128 1.273 . S
O128 C127 1.273 . S
O129 Zn120 1.977 . S
O129 C122 1.267 . S
C130 O131 1.160 . S
C130 O137 1.185 . S
O131 C130 1.160 . S
O132 Zn133 1.899 . S
O132 C140 1.284 . S
Zn133 O132 1.899 . S
Zn133 O134 2.032 . S
Zn133 O137 2.086 . S
Zn133 O142 1.977 . S
O134 Zn133 2.032 . S
O134 C138 1.278 . S
C135 O136 1.203 . S
C135 O142 1.267 . S
O136 C135 1.203 . S
O137 C130 1.185 . S
O137 Zn133 2.086 . S
C138 O134 1.278 . S
C138 O139 1.211 . S
O139 C138 1.211 . S
C140 O132 1.284 . S
C140 O141 1.273 . S
O141 C140 1.273 . S
O142 Zn133 1.977 . S
O142 C135 1.267 . S
C143 O144 1.160 . S
C143 O150 1.185 . S
O144 C143 1.160 . S
O145 Zn146 1.899 . S
O145 C153 1.284 . S
Zn146 O145 1.899 . S
Zn146 O147 2.032 . S
Zn146 O150 2.086 . S
Zn146 O155 1.977 . S
O147 Zn146 2.032 . S
O147 C151 1.278 . S
C148 O149 1.203 . S
C148 O155 1.267 . S
O149 C148 1.203 . S
O150 C143 1.185 . S
O150 Zn146 2.086 . S
C151 O147 1.278 . S
C151 O152 1.211 . S
O152 C151 1.211 . S
C153 O145 1.284 . S
C153 O154 1.273 . S
O154 C153 1.273 . S
O155 Zn146 1.977 . S
O155 C148 1.267 . S
H156 C162 0.930 . S
H157 C165 0.930 . S
H158 C166 0.930 . S
H159 C167 0.930 . S
H160 C170 0.930 . S
H161 C171 0.930 . S
C162 H156 0.930 . S
C162 C163 1.355 . S
C162 C164 1.415 . S
C163 C162 1.355 . S
C163 C165 1.419 . S
C164 C162 1.415 . S
C164 C169 1.425 . S
C164 C171 1.409 . S
C165 H157 0.930 . S
C165 C163 1.419 . S
C165 C166 1.362 . S
C166 H158 0.930 . S
C166 C165 1.362 . S
C166 C169 1.409 . S
C167 H159 0.930 . S
C167 C168 1.355 . S
C167 C169 1.415 . S
C168 C167 1.355 . S
C168 C170 1.419 . S
C169 C164 1.425 . S
C169 C166 1.409 . S
C169 C167 1.415 . S
C170 H160 0.930 . S
C170 C168 1.419 . S
C170 C171 1.362 . S
C171 H161 0.930 . S
C171 C164 1.409 . S
C171 C170 1.362 . S
H172 C178 0.930 . S
H173 C181 0.930 . S
H174 C182 0.930 . S
H175 C183 0.930 . S
H176 C186 0.930 . S
H177 C187 0.930 . S
C178 H172 0.930 . S
C178 C179 1.355 . S
C178 C180 1.415 . S
C179 C178 1.355 . S
C179 C181 1.419 . S
C180 C178 1.415 . S
C180 C185 1.425 . S
C180 C187 1.409 . S
C181 H173 0.930 . S
C181 C179 1.419 . S
C181 C182 1.362 . S
C182 H174 0.930 . S
C182 C181 1.362 . S
C182 C185 1.409 . S
C183 H175 0.930 . S
C183 C184 1.355 . S
C183 C185 1.415 . S
C184 C183 1.355 . S
C184 C186 1.419 . S
C185 C180 1.425 . S
C185 C182 1.409 . S
C185 C183 1.415 . S
C186 H176 0.930 . S
C186 C184 1.419 . S
C186 C187 1.362 . S
C187 H177 0.930 . S
C187 C180 1.409 . S
C187 C186 1.362 . S
H188 C194 0.930 . S
H189 C197 0.930 . S
H190 C198 0.930 . S
H191 C199 0.930 . S
H192 C202 0.930 . S
H193 C203 0.930 . S
C194 H188 0.930 . S
C194 C195 1.355 . S
C194 C196 1.415 . S
C195 C194 1.355 . S
C195 C197 1.419 . S
C196 C194 1.415 . S
C196 C201 1.425 . S
C196 C203 1.409 . S
C197 H189 0.930 . S
C197 C195 1.419 . S
C197 C198 1.362 . S
C198 H190 0.930 . S
C198 C197 1.362 . S
C198 C201 1.409 . S
C199 H191 0.930 . S
C199 C200 1.355 . S
C199 C201 1.415 . S
C200 C199 1.355 . S
C200 C202 1.419 . S
C201 C196 1.425 . S
C201 C198 1.409 . S
C201 C199 1.415 . S
C202 H192 0.930 . S
C202 C200 1.419 . S
C202 C203 1.362 . S
C203 H193 0.930 . S
C203 C196 1.409 . S
C203 C202 1.362 . S
H204 C210 0.930 . S
H205 C213 0.930 . S
H206 C214 0.930 . S
H207 C215 0.930 . S
H208 C218 0.930 . S
H209 C219 0.930 . S
C210 H204 0.930 . S
C210 C211 1.355 . S
C210 C212 1.415 . S
C211 C210 1.355 . S
C211 C213 1.419 . S
C212 C210 1.415 . S
C212 C217 1.425 . S
C212 C219 1.409 . S
C213 H205 0.930 . S
C213 C211 1.419 . S
C213 C214 1.362 . S
C214 H206 0.930 . S
C214 C213 1.362 . S
C214 C217 1.409 . S
C215 H207 0.930 . S
C215 C216 1.355 . S
C215 C217 1.415 . S
C216 C215 1.355 . S
C216 C218 1.419 . S
C217 C212 1.425 . S
C217 C214 1.409 . S
C217 C215 1.415 . S
C218 H208 0.930 . S
C218 C216 1.419 . S
C218 C219 1.362 . S
C219 H209 0.930 . S
C219 C212 1.409 . S
C219 C218 1.362 . S
H220 C226 0.930 . S
H221 C229 0.930 . S
H222 C230 0.930 . S
H223 C231 0.930 . S
H224 C234 0.930 . S
H225 C235 0.930 . S
C226 H220 0.930 . S
C226 C227 1.355 . S
C226 C228 1.415 . S
C227 C226 1.355 . S
C227 C229 1.419 . S
C228 C226 1.415 . S
C228 C233 1.425 1_554 S
C228 C235 1.409 . S
C229 H221 0.930 . S
C229 C227 1.419 . S
C229 C230 1.362 1_554 S
C230 H222 0.930 . S
C230 C229 1.362 1_556 S
C230 C233 1.409 . S
C231 H223 0.930 . S
C231 C232 1.355 . S
C231 C233 1.415 . S
C232 C231 1.355 . S
C232 C234 1.419 . S
C233 C228 1.425 1_556 S
C233 C230 1.409 . S
C233 C231 1.415 . S
C234 H224 0.930 . S
C234 C232 1.419 . S
C234 C235 1.362 1_556 S
C235 H225 0.930 . S
C235 C228 1.409 . S
C235 C234 1.362 1_554 S
H236 C242 0.930 . S
H237 C245 0.930 . S
H238 C246 0.930 . S
H239 C247 0.930 . S
H240 C250 0.930 . S
H241 C251 0.930 . S
C242 H236 0.930 . S
C242 C243 1.355 . S
C242 C244 1.415 . S
C243 C242 1.355 . S
C243 C245 1.419 . S
C244 C242 1.415 . S
C244 C249 1.425 . S
C244 C251 1.409 . S
C245 H237 0.930 . S
C245 C243 1.419 . S
C245 C246 1.362 . S
C246 H238 0.930 . S
C246 C245 1.362 . S
C246 C249 1.409 . S
C247 H239 0.930 . S
C247 C248 1.355 . S
C247 C249 1.415 . S
C248 C247 1.355 . S
C248 C250 1.419 . S
C249 C244 1.425 . S
C249 C246 1.409 . S
C249 C247 1.415 . S
C250 H240 0.930 . S
C250 C248 1.419 . S
C250 C251 1.362 . S
C251 H241 0.930 . S
C251 C244 1.409 . S
C251 C250 1.362 . S
H252 C258 0.930 . S
H253 C261 0.930 . S
H254 C262 0.930 . S
H255 C263 0.930 . S
H256 C266 0.930 . S
H257 C267 0.930 . S
C258 H252 0.930 . S
C258 C259 1.355 . S
C258 C260 1.415 . S
C259 C258 1.355 . S
C259 C261 1.419 . S
C260 C258 1.415 . S
C260 C265 1.425 . S
C260 C267 1.409 . S
C261 H253 0.930 . S
C261 C259 1.419 . S
C261 C262 1.362 . S
C262 H254 0.930 . S
C262 C261 1.362 . S
C262 C265 1.409 . S
C263 H255 0.930 . S
C263 C264 1.355 . S
C263 C265 1.415 . S
C264 C263 1.355 . S
C264 C266 1.419 . S
C265 C260 1.425 . S
C265 C262 1.409 . S
C265 C263 1.415 . S
C266 H256 0.930 . S
C266 C264 1.419 . S
C266 C267 1.362 . S
C267 H257 0.930 . S
C267 C260 1.409 . S
C267 C266 1.362 . S
H268 C274 0.930 . S
H269 C277 0.930 . S
H270 C278 0.930 . S
H271 C279 0.930 . S
H272 C282 0.930 . S
H273 C283 0.930 . S
C274 H268 0.930 . S
C274 C275 1.355 . S
C274 C276 1.415 . S
C275 C274 1.355 . S
C275 C277 1.419 . S
C276 C274 1.415 . S
C276 C281 1.425 . S
C276 C283 1.409 . S
C277 H269 0.930 . S
C277 C275 1.419 . S
C277 C278 1.362 . S
C278 H270 0.930 . S
C278 C277 1.362 . S
C278 C281 1.409 . S
C279 H271 0.930 . S
C279 C280 1.355 . S
C279 C281 1.415 . S
C280 C279 1.355 . S
C280 C282 1.419 . S
C281 C276 1.425 . S
C281 C278 1.409 . S
C281 C279 1.415 . S
C282 H272 0.930 . S
C282 C280 1.419 . S
C282 C283 1.362 . S
C283 H273 0.930 . S
C283 C276 1.409 . S
C283 C282 1.362 . S
H284 C290 0.930 . S
H285 C293 0.930 . S
H286 C294 0.930 . S
H287 C295 0.930 . S
H288 C298 0.930 . S
H289 C299 0.930 . S
C290 H284 0.930 . S
C290 C291 1.355 . S
C290 C292 1.415 . S
C291 C290 1.355 . S
C291 C293 1.419 . S
C292 C290 1.415 . S
C292 C297 1.425 . S
C292 C299 1.409 . S
C293 H285 0.930 . S
C293 C291 1.419 . S
C293 C294 1.362 . S
C294 H286 0.930 . S
C294 C293 1.362 . S
C294 C297 1.409 . S
C295 H287 0.930 . S
C295 C296 1.355 . S
C295 C297 1.415 . S
C296 C295 1.355 . S
C296 C298 1.419 . S
C297 C292 1.425 . S
C297 C294 1.409 . S
C297 C295 1.415 . S
C298 H288 0.930 . S
C298 C296 1.419 . S
C298 C299 1.362 . S
C299 H289 0.930 . S
C299 C292 1.409 . S
C299 C298 1.362 . S
H300 C306 0.930 . S
H301 C309 0.930 . S
H302 C310 0.930 . S
H303 C311 0.930 . S
H304 C314 0.930 . S
H305 C315 0.930 . S
C306 H300 0.930 . S
C306 C307 1.355 . S
C306 C308 1.415 . S
C307 C306 1.355 . S
C307 C309 1.419 . S
C308 C306 1.415 . S
C308 C313 1.425 . S
C308 C315 1.409 . S
C309 H301 0.930 . S
C309 C307 1.419 . S
C309 C310 1.362 . S
C310 H302 0.930 . S
C310 C309 1.362 . S
C310 C313 1.409 . S
C311 H303 0.930 . S
C311 C312 1.355 . S
C311 C313 1.415 . S
C312 C311 1.355 . S
C312 C314 1.419 . S
C313 C308 1.425 . S
C313 C310 1.409 . S
C313 C311 1.415 . S
C314 H304 0.930 . S
C314 C312 1.419 . S
C314 C315 1.362 . S
C315 H305 0.930 . S
C315 C308 1.409 . S
C315 C314 1.362 . S
H316 C322 0.930 . S
H317 C325 0.930 . S
H318 C326 0.930 . S
H319 C327 0.930 . S
H320 C330 0.930 . S
H321 C331 0.930 . S
C322 H316 0.930 . S
C322 C323 1.355 . S
C322 C324 1.415 . S
C323 C322 1.355 . S
C323 C325 1.419 . S
C324 C322 1.415 . S
C324 C329 1.425 . S
C324 C331 1.409 . S
C325 H317 0.930 . S
C325 C323 1.419 . S
C325 C326 1.362 . S
C326 H318 0.930 . S
C326 C325 1.362 . S
C326 C329 1.409 . S
C327 H319 0.930 . S
C327 C328 1.355 . S
C327 C329 1.415 . S
C328 C327 1.355 . S
C328 C330 1.419 . S
C329 C324 1.425 . S
C329 C326 1.409 . S
C329 C327 1.415 . S
C330 H320 0.930 . S
C330 C328 1.419 . S
C330 C331 1.362 . S
C331 H321 0.930 . S
C331 C324 1.409 . S
C331 C330 1.362 . S
H332 C338 0.930 . S
H333 C341 0.930 . S
H334 C342 0.930 . S
H335 C343 0.930 . S
H336 C346 0.930 . S
H337 C347 0.930 . S
C338 H332 0.930 . S
C338 C339 1.355 . S
C338 C340 1.415 . S
C339 C338 1.355 . S
C339 C341 1.419 1_556 S
C340 C338 1.415 . S
C340 C345 1.425 1_556 S
C340 C347 1.409 . S
C341 H333 0.930 . S
C341 C339 1.419 1_554 S
C341 C342 1.362 . S
C342 H334 0.930 . S
C342 C341 1.362 . S
C342 C345 1.409 . S
C343 H335 0.930 . S
C343 C344 1.355 . S
C343 C345 1.415 . S
C344 C343 1.355 . S
C344 C346 1.419 1_554 S
C345 C340 1.425 1_554 S
C345 C342 1.409 . S
C345 C343 1.415 . S
C346 H336 0.930 . S
C346 C344 1.419 1_556 S
C346 C347 1.362 . S
C347 H337 0.930 . S
C347 C340 1.409 . S
C347 C346 1.362 . S
H348 C354 0.930 . S
H349 C357 0.930 . S
H350 C358 0.930 . S
H351 C359 0.930 . S
H352 C362 0.930 . S
H353 C363 0.930 . S
C354 H348 0.930 . S
C354 C355 1.355 . S
C354 C356 1.415 . S
C355 C354 1.355 . S
C355 C357 1.419 . S
C356 C354 1.415 . S
C356 C361 1.425 . S
C356 C363 1.409 . S
C357 H349 0.930 . S
C357 C355 1.419 . S
C357 C358 1.362 . S
C358 H350 0.930 . S
C358 C357 1.362 . S
C358 C361 1.409 . S
C359 H351 0.930 . S
C359 C360 1.355 . S
C359 C361 1.415 . S
C360 C359 1.355 . S
C360 C362 1.419 . S
C361 C356 1.425 . S
C361 C358 1.409 . S
C361 C359 1.415 . S
C362 H352 0.930 . S
C362 C360 1.419 . S
C362 C363 1.362 . S
C363 H353 0.930 . S
C363 C356 1.409 . S
C363 C362 1.362 . S
H364 C370 0.930 . S
H365 C373 0.930 . S
H366 C374 0.939 . S
H367 C375 0.930 . S
H368 C378 0.930 . S
H369 C379 0.933 . S
C370 H364 0.930 . S
C370 C371 1.355 . S
C370 C372 1.415 . S
C371 C370 1.355 . S
C371 C373 1.419 . S
C372 C370 1.415 . S
C372 C377 1.425 1_556 S
C372 C379 1.410 . S
C373 H365 0.930 . S
C373 C371 1.419 . S
C373 C374 1.349 1_556 S
C374 H366 0.939 . S
C374 C373 1.349 1_554 S
C374 C377 1.414 . S
C375 H367 0.930 . S
C375 C376 1.355 . S
C375 C377 1.415 . S
C376 C375 1.355 . S
C376 C378 1.419 . S
C377 C372 1.425 1_554 S
C377 C374 1.414 . S
C377 C375 1.415 . S
C378 H368 0.930 . S
C378 C376 1.419 . S
C378 C379 1.359 1_554 S
C379 H369 0.933 . S
C379 C372 1.410 . S
C379 C378 1.359 1_556 S
H380 C386 0.930 . S
H381 C389 0.930 . S
H382 C390 0.930 . S
H383 C391 0.930 . S
H384 C394 0.930 . S
H385 C395 0.930 . S
C386 H380 0.930 . S
C386 C387 1.355 . S
C386 C388 1.415 . S
C387 C386 1.355 . S
C387 C389 1.419 . S
C388 C386 1.415 . S
C388 C393 1.425 . S
C388 C395 1.409 . S
C389 H381 0.930 . S
C389 C387 1.419 . S
C389 C390 1.362 . S
C390 H382 0.930 . S
C390 C389 1.362 . S
C390 C393 1.409 . S
C391 H383 0.930 . S
C391 C392 1.355 . S
C391 C393 1.415 . S
C392 C391 1.355 . S
C392 C394 1.419 . S
C393 C388 1.425 . S
C393 C390 1.409 . S
C393 C391 1.415 . S
C394 H384 0.930 . S
C394 C392 1.419 . S
C394 C395 1.362 . S
C395 H385 0.930 . S
C395 C388 1.409 . S
C395 C394 1.362 . S
H396 C402 0.930 . S
H397 C405 0.930 . S
H398 C406 0.930 . S
H399 C407 0.930 . S
H400 C410 0.930 . S
H401 C411 0.930 . S
C402 H396 0.930 . S
C402 C403 1.355 . S
C402 C404 1.415 . S
C403 C402 1.355 . S
C403 C405 1.419 . S
C404 C402 1.415 . S
C404 C409 1.425 . S
C404 C411 1.409 . S
C405 H397 0.930 . S
C405 C403 1.419 . S
C405 C406 1.362 . S
C406 H398 0.930 . S
C406 C405 1.362 . S
C406 C409 1.409 . S
C407 H399 0.930 . S
C407 C408 1.355 . S
C407 C409 1.415 . S
C408 C407 1.355 . S
C408 C410 1.419 . S
C409 C404 1.425 . S
C409 C406 1.409 . S
C409 C407 1.415 . S
C410 H400 0.930 . S
C410 C408 1.419 . S
C410 C411 1.362 . S
C411 H401 0.930 . S
C411 C404 1.409 . S
C411 C410 1.362 . S
H412 C418 0.930 . S
H413 C421 0.930 . S
H414 C422 0.930 . S
H415 C423 0.930 . S
H416 C426 0.930 . S
H417 C427 0.930 . S
C418 H412 0.930 . S
C418 C419 1.355 . S
C418 C420 1.415 . S
C419 C418 1.355 . S
C419 C421 1.419 . S
C420 C418 1.415 . S
C420 C425 1.425 . S
C420 C427 1.409 . S
C421 H413 0.930 . S
C421 C419 1.419 . S
C421 C422 1.362 . S
C422 H414 0.930 . S
C422 C421 1.362 . S
C422 C425 1.409 . S
C423 H415 0.930 . S
C423 C424 1.355 . S
C423 C425 1.415 . S
C424 C423 1.355 . S
C424 C426 1.419 . S
C425 C420 1.425 . S
C425 C422 1.409 . S
C425 C423 1.415 . S
C426 H416 0.930 . S
C426 C424 1.419 . S
C426 C427 1.362 . S
C427 H417 0.930 . S
C427 C420 1.409 . S
C427 C426 1.362 . S
H428 C434 0.930 . S
H429 C437 0.930 . S
H430 C438 0.930 . S
H431 C439 0.930 . S
H432 C442 0.930 . S
H433 C443 0.930 . S
C434 H428 0.930 . S
C434 C435 1.355 . S
C434 C436 1.415 . S
C435 C434 1.355 . S
C435 C437 1.419 . S
C436 C434 1.415 . S
C436 C441 1.425 . S
C436 C443 1.409 . S
C437 H429 0.930 . S
C437 C435 1.419 . S
C437 C438 1.362 . S
C438 H430 0.930 . S
C438 C437 1.362 . S
C438 C441 1.409 . S
C439 H431 0.930 . S
C439 C440 1.355 . S
C439 C441 1.415 . S
C440 C439 1.355 . S
C440 C442 1.419 . S
C441 C436 1.425 . S
C441 C438 1.409 . S
C441 C439 1.415 . S
C442 H432 0.930 . S
C442 C440 1.419 . S
C442 C443 1.362 . S
C443 H433 0.930 . S
C443 C436 1.409 . S
C443 C442 1.362 . S
H444 C450 0.930 . S
H445 C453 0.930 . S
H446 C454 0.930 . S
H447 C455 0.930 . S
H448 C458 0.930 1_556 S
H449 C459 0.930 1_556 S
C450 H444 0.930 . S
C450 C451 1.355 . S
C450 C452 1.415 . S
C451 C450 1.355 . S
C451 C453 1.419 . S
C452 C450 1.415 . S
C452 C457 1.425 1_545 S
C452 C459 1.409 1_545 S
C453 H445 0.930 . S
C453 C451 1.419 . S
C453 C454 1.362 . S
C454 H446 0.930 . S
C454 C453 1.362 . S
C454 C457 1.409 1_545 S
C455 H447 0.930 . S
C455 C456 1.355 . S
C455 C457 1.415 . S
C456 C455 1.355 . S
C456 C458 1.419 . S
C457 C452 1.425 1_565 S
C457 C454 1.409 1_565 S
C457 C455 1.415 . S
C458 H448 0.930 1_554 S
C458 C456 1.419 . S
C458 C459 1.362 . S
C459 H449 0.930 1_554 S
C459 C452 1.409 1_565 S
C459 C458 1.362 . S
H460 C466 0.930 . S
H461 C469 0.930 . S
H462 C470 0.930 . S
H463 C471 0.930 . S
H464 C474 0.930 . S
H465 C475 0.930 . S
C466 H460 0.930 . S
C466 C467 1.355 . S
C466 C468 1.415 . S
C467 C466 1.355 . S
C467 C469 1.419 . S
C468 C466 1.415 . S
C468 C473 1.425 . S
C468 C475 1.409 . S
C469 H461 0.930 . S
C469 C467 1.419 . S
C469 C470 1.362 . S
C470 H462 0.930 . S
C470 C469 1.362 . S
C470 C473 1.409 . S
C471 H463 0.930 . S
C471 C472 1.355 . S
C471 C473 1.415 . S
C472 C471 1.355 . S
C472 C474 1.419 . S
C473 C468 1.425 . S
C473 C470 1.409 . S
C473 C471 1.415 . S
C474 H464 0.930 . S
C474 C472 1.419 . S
C474 C475 1.362 . S
C475 H465 0.930 . S
C475 C468 1.409 . S
C475 C474 1.362 . S
H476 C482 0.930 . S
H477 C485 0.930 . S
H478 C486 0.930 . S
H479 C487 0.930 . S
H480 C490 0.930 . S
H481 C491 0.930 . S
C482 H476 0.930 . S
C482 C483 1.355 . S
C482 C484 1.415 . S
C483 C482 1.355 . S
C483 C485 1.419 . S
C484 C482 1.415 . S
C484 C489 1.425 1_455 S
C484 C491 1.409 1_455 S
C485 H477 0.930 . S
C485 C483 1.419 . S
C485 C486 1.362 . S
C486 H478 0.930 . S
C486 C485 1.362 . S
C486 C489 1.409 1_455 S
C487 H479 0.930 . S
C487 C488 1.355 . S
C487 C489 1.415 . S
C488 C487 1.355 . S
C488 C490 1.419 . S
C489 C484 1.425 1_655 S
C489 C486 1.409 1_655 S
C489 C487 1.415 . S
C490 H480 0.930 . S
C490 C488 1.419 . S
C490 C491 1.362 . S
C491 H481 0.930 . S
C491 C484 1.409 1_655 S
C491 C490 1.362 . S
H492 C498 0.930 . S
H493 C501 0.930 . S
H494 C502 0.930 . S
H495 C503 0.930 . S
H496 C506 0.930 . S
H497 C507 0.930 . S
C498 H492 0.930 . S
C498 C499 1.355 . S
C498 C500 1.415 . S
C499 C498 1.355 . S
C499 C501 1.419 . S
C500 C498 1.415 . S
C500 C505 1.425 1_565 S
C500 C507 1.409 1_565 S
C501 H493 0.930 . S
C501 C499 1.419 . S
C501 C502 1.362 . S
C502 H494 0.930 . S
C502 C501 1.362 . S
C502 C505 1.409 1_565 S
C503 H495 0.930 . S
C503 C504 1.355 . S
C503 C505 1.415 . S
C504 C503 1.355 . S
C504 C506 1.419 . S
C505 C500 1.425 1_545 S
C505 C502 1.409 1_545 S
C505 C503 1.415 . S
C506 H496 0.930 . S
C506 C504 1.419 . S
C506 C507 1.362 . S
C507 H497 0.930 . S
C507 C500 1.409 1_545 S
C507 C506 1.362 . S
H508 C514 0.930 . S
H509 C517 0.930 . S
H510 C518 0.930 . S
H511 C519 0.930 . S
H512 C522 0.930 . S
H513 C523 0.930 . S
C514 H508 0.930 . S
C514 C515 1.355 . S
C514 C516 1.415 . S
C515 C514 1.355 . S
C515 C517 1.419 . S
C516 C514 1.415 . S
C516 C521 1.425 . S
C516 C523 1.409 . S
C517 H509 0.930 . S
C517 C515 1.419 . S
C517 C518 1.362 . S
C518 H510 0.930 . S
C518 C517 1.362 . S
C518 C521 1.409 . S
C519 H511 0.930 . S
C519 C520 1.355 . S
C519 C521 1.415 . S
C520 C519 1.355 . S
C520 C522 1.419 . S
C521 C516 1.425 . S
C521 C518 1.409 . S
C521 C519 1.415 . S
C522 H512 0.930 . S
C522 C520 1.419 . S
C522 C523 1.362 . S
C523 H513 0.930 . S
C523 C516 1.409 . S
C523 C522 1.362 . S
H524 C530 0.930 . S
H525 C533 0.930 . S
H526 C534 0.930 . S
H527 C535 0.930 . S
H528 C538 0.930 . S
H529 C539 0.930 . S
C530 H524 0.930 . S
C530 C531 1.355 . S
C530 C532 1.415 . S
C531 C530 1.355 . S
C531 C533 1.419 . S
C532 C530 1.415 . S
C532 C537 1.425 1_455 S
C532 C539 1.409 1_455 S
C533 H525 0.930 . S
C533 C531 1.419 . S
C533 C534 1.362 . S
C534 H526 0.930 . S
C534 C533 1.362 . S
C534 C537 1.409 1_455 S
C535 H527 0.930 . S
C535 C536 1.355 . S
C535 C537 1.415 . S
C536 C535 1.355 . S
C536 C538 1.419 . S
C537 C532 1.425 1_655 S
C537 C534 1.409 1_655 S
C537 C535 1.415 . S
C538 H528 0.930 . S
C538 C536 1.419 . S
C538 C539 1.362 . S
C539 H529 0.930 . S
C539 C532 1.409 1_655 S
C539 C538 1.362 . S
C163 C8 1.341 . S
C168 C138 1.277 . S
C179 C21 1.342 . S
C184 C151 1.274 . S
C195 C86 1.281 . S
C200 C34 1.338 . S
C211 C47 1.308 . S
C216 C99 1.314 . S
C227 C112 1.308 . S
C232 C60 1.304 . S
C243 C125 1.280 . S
C248 C73 1.333 . S
C259 C104 1.265 . S
C264 C0 1.217 . S
C275 C13 1.276 . S
C280 C117 1.222 . S
C291 C130 1.242 . S
C296 C26 1.265 . S
C307 C39 1.215 . S
C312 C143 1.271 . S
C323 C52 1.252 . S
C328 C78 1.225 . S
C339 C65 1.269 . S
C344 C91 1.236 . S
C355 C140 1.558 . S
C360 C10 1.553 . S
C371 C153 1.593 . S
C376 C23 1.602 . S
C387 C88 1.565 . S
C392 C36 1.577 . S
C403 C49 1.604 . S
C408 C101 1.603 . S
C419 C62 1.603 . S
C424 C114 1.596 . S
C435 C127 1.570 . S
C440 C75 1.583 . S
C451 C5 1.234 . S
C456 C96 1.171 . S
C467 C109 1.211 . S
C472 C18 1.200 . S
C483 C122 1.160 . S
C488 C31 1.205 . S
C499 C44 1.235 . S
C504 C135 1.169 . S
C515 C57 1.157 . S
C520 C148 1.242 . S
C531 C70 1.141 . S
C536 C83 1.241 . S
