# Generated by pormake.
# Topology smg, (6)-cn, num edge types: 1
# Building blocks:
#     Node 0, Type 0, BuildingBlock: IZENUY_clean_sbu_0, # of connection points: 6
#     Node 1, Type 0, BuildingBlock: IZENUY_clean_sbu_0, # of connection points: 6
#     Node 2, Type 0, BuildingBlock: IZENUY_clean_sbu_0, # of connection points: 6
#     Node 3, Type 0, BuildingBlock: IZENUY_clean_sbu_0, # of connection points: 6
#     Node 4, Type 0, BuildingBlock: IZENUY_clean_sbu_0, # of connection points: 6
#     Node 5, Type 0, BuildingBlock: IZENUY_clean_sbu_0, # of connection points: 6
#     Node 6, Type 0, BuildingBlock: IZENUY_clean_sbu_0, # of connection points: 6
#     Node 7, Type 0, BuildingBlock: IZENUY_clean_sbu_0, # of connection points: 6
#     Node 8, Type 0, BuildingBlock: IZENUY_clean_sbu_0, # of connection points: 6
#     Node 9, Type 0, BuildingBlock: IZENUY_clean_sbu_0, # of connection points: 6
#     Node 10, Type 0, BuildingBlock: IZENUY_clean_sbu_0, # of connection points: 6
#     Node 11, Type 0, BuildingBlock: IZENUY_clean_sbu_0, # of connection points: 6
#     Node 12, Type 0, BuildingBlock: IZENUY_clean_sbu_0, # of connection points: 6
#     Node 13, Type 0, BuildingBlock: IZENUY_clean_sbu_0, # of connection points: 6
#     Node 14, Type 0, BuildingBlock: IZENUY_clean_sbu_0, # of connection points: 6
#     Node 15, Type 0, BuildingBlock: IZENUY_clean_sbu_0, # of connection points: 6
#     Node 16, Type 0, BuildingBlock: IZENUY_clean_sbu_0, # of connection points: 6
#     Node 17, Type 0, BuildingBlock: IZENUY_clean_sbu_0, # of connection points: 6
#     Edge 18, Type (0, 0), BuildingBlock: XIVTED_clean_linker_0, # of connection points: 2
#     Edge 19, Type (0, 0), BuildingBlock: XIVTED_clean_linker_0, # of connection points: 2
#     Edge 20, Type (0, 0), BuildingBlock: XIVTED_clean_linker_0, # of connection points: 2
#     Edge 21, Type (0, 0), BuildingBlock: XIVTED_clean_linker_0, # of connection points: 2
#     Edge 22, Type (0, 0), BuildingBlock: XIVTED_clean_linker_0, # of connection points: 2
#     Edge 23, Type (0, 0), BuildingBlock: XIVTED_clean_linker_0, # of connection points: 2
#     Edge 24, Type (0, 0), BuildingBlock: XIVTED_clean_linker_0, # of connection points: 2
#     Edge 25, Type (0, 0), BuildingBlock: XIVTED_clean_linker_0, # of connection points: 2
#     Edge 26, Type (0, 0), BuildingBlock: XIVTED_clean_linker_0, # of connection points: 2
#     Edge 27, Type (0, 0), BuildingBlock: XIVTED_clean_linker_0, # of connection points: 2
#     Edge 28, Type (0, 0), BuildingBlock: XIVTED_clean_linker_0, # of connection points: 2
#     Edge 29, Type (0, 0), BuildingBlock: XIVTED_clean_linker_0, # of connection points: 2
#     Edge 30, Type (0, 0), BuildingBlock: XIVTED_clean_linker_0, # of connection points: 2
#     Edge 31, Type (0, 0), BuildingBlock: XIVTED_clean_linker_0, # of connection points: 2
#     Edge 32, Type (0, 0), BuildingBlock: XIVTED_clean_linker_0, # of connection points: 2
#     Edge 33, Type (0, 0), BuildingBlock: XIVTED_clean_linker_0, # of connection points: 2
#     Edge 34, Type (0, 0), BuildingBlock: XIVTED_clean_linker_0, # of connection points: 2
#     Edge 35, Type (0, 0), BuildingBlock: XIVTED_clean_linker_0, # of connection points: 2
#     Edge 36, Type (0, 0), BuildingBlock: XIVTED_clean_linker_0, # of connection points: 2
#     Edge 37, Type (0, 0), BuildingBlock: XIVTED_clean_linker_0, # of connection points: 2
#     Edge 38, Type (0, 0), BuildingBlock: XIVTED_clean_linker_0, # of connection points: 2
#     Edge 39, Type (0, 0), BuildingBlock: XIVTED_clean_linker_0, # of connection points: 2
#     Edge 40, Type (0, 0), BuildingBlock: XIVTED_clean_linker_0, # of connection points: 2
#     Edge 41, Type (0, 0), BuildingBlock: XIVTED_clean_linker_0, # of connection points: 2
#     Edge 42, Type (0, 0), BuildingBlock: XIVTED_clean_linker_0, # of connection points: 2
#     Edge 43, Type (0, 0), BuildingBlock: XIVTED_clean_linker_0, # of connection points: 2
#     Edge 44, Type (0, 0), BuildingBlock: XIVTED_clean_linker_0, # of connection points: 2
#     Edge 45, Type (0, 0), BuildingBlock: XIVTED_clean_linker_0, # of connection points: 2
#     Edge 46, Type (0, 0), BuildingBlock: XIVTED_clean_linker_0, # of connection points: 2
#     Edge 47, Type (0, 0), BuildingBlock: XIVTED_clean_linker_0, # of connection points: 2
#     Edge 48, Type (0, 0), BuildingBlock: XIVTED_clean_linker_0, # of connection points: 2
#     Edge 49, Type (0, 0), BuildingBlock: XIVTED_clean_linker_0, # of connection points: 2
#     Edge 50, Type (0, 0), BuildingBlock: XIVTED_clean_linker_0, # of connection points: 2
#     Edge 51, Type (0, 0), BuildingBlock: XIVTED_clean_linker_0, # of connection points: 2
#     Edge 52, Type (0, 0), BuildingBlock: XIVTED_clean_linker_0, # of connection points: 2
#     Edge 53, Type (0, 0), BuildingBlock: XIVTED_clean_linker_0, # of connection points: 2
#     Edge 54, Type (0, 0), BuildingBlock: XIVTED_clean_linker_0, # of connection points: 2
#     Edge 55, Type (0, 0), BuildingBlock: XIVTED_clean_linker_0, # of connection points: 2
#     Edge 56, Type (0, 0), BuildingBlock: XIVTED_clean_linker_0, # of connection points: 2
#     Edge 57, Type (0, 0), BuildingBlock: XIVTED_clean_linker_0, # of connection points: 2
#     Edge 58, Type (0, 0), BuildingBlock: XIVTED_clean_linker_0, # of connection points: 2
#     Edge 59, Type (0, 0), BuildingBlock: XIVTED_clean_linker_0, # of connection points: 2
#     Edge 60, Type (0, 0), BuildingBlock: XIVTED_clean_linker_0, # of connection points: 2
#     Edge 61, Type (0, 0), BuildingBlock: XIVTED_clean_linker_0, # of connection points: 2
#     Edge 62, Type (0, 0), BuildingBlock: XIVTED_clean_linker_0, # of connection points: 2
#     Edge 63, Type (0, 0), BuildingBlock: XIVTED_clean_linker_0, # of connection points: 2
#     Edge 64, Type (0, 0), BuildingBlock: XIVTED_clean_linker_0, # of connection points: 2
#     Edge 65, Type (0, 0), BuildingBlock: XIVTED_clean_linker_0, # of connection points: 2
#     Edge 66, Type (0, 0), BuildingBlock: XIVTED_clean_linker_0, # of connection points: 2
#     Edge 67, Type (0, 0), BuildingBlock: XIVTED_clean_linker_0, # of connection points: 2
#     Edge 68, Type (0, 0), BuildingBlock: XIVTED_clean_linker_0, # of connection points: 2
#     Edge 69, Type (0, 0), BuildingBlock: XIVTED_clean_linker_0, # of connection points: 2
#     Edge 70, Type (0, 0), BuildingBlock: XIVTED_clean_linker_0, # of connection points: 2
#     Edge 71, Type (0, 0), BuildingBlock: XIVTED_clean_linker_0, # of connection points: 2
# Relax obj value: 0.248
# Max RMSD: 0.243
# Mean RMSD: 0.241
data_MOF--net-smg--node1-IZENUY_clean_sbu_0--edge1-XIVTED_clean_linker_0
_symmetry_space_group_name_H-M    P1
_symmetry_Int_Tables_number       1
_symmetry_cell_setting            triclinic
loop_
_symmetry_equiv_pos_as_xyz
'x, y, z'
_cell_length_a     46.380522
_cell_length_b     46.411569
_cell_length_c     42.480418
_cell_angle_alpha  89.849072
_cell_angle_beta   90.123974
_cell_angle_gamma 120.06956
loop_
_atom_site_label
_atom_site_type_symbol
_atom_site_fract_x
_atom_site_fract_y
_atom_site_fract_z
_atom_type_partial_charge
Fe0 Fe 0.05486 0.60185 0.25753 0.0
Fe1 Fe 0.02179 0.64328 0.24512 0.0
O2 O 0.01961 0.60439 0.24583 0.0
Fe3 Fe 0.98232 0.56807 0.23507 0.0
O4 O 0.97885 0.55024 0.27365 0.0
O5 O 0.03011 0.55938 0.27446 0.0
O6 O 0.05389 0.61729 0.29612 0.0
C7 C 0.05446 0.64425 0.30129 0.0
C8 C 0.03382 0.55929 0.20825 0.0
O9 O 0.05057 0.6602 0.27895 0.0
C10 C 0.98596 0.61149 0.18998 0.0
O11 O 0.08607 0.64395 0.2426 0.0
O12 O 0.05461 0.65879 0.21683 0.0
O13 O 0.00412 0.54699 0.21855 0.0
O14 O 0.05704 0.58597 0.21949 0.0
C15 C 0.95987 0.60569 0.26938 0.0
O16 O 0.99356 0.63331 0.2112 0.0
O17 O 0.98375 0.5839 0.19604 0.0
C18 C 0.08225 0.66067 0.22091 0.0
O19 O 0.98885 0.62968 0.27323 0.0
O20 O 0.95419 0.583 0.24949 0.0
C21 C 0.00041 0.54426 0.28493 0.0
Fe22 Fe 0.42534 0.45377 0.26113 0.0
Fe23 Fe 0.45866 0.4239 0.22057 0.0
O24 O 0.42401 0.41957 0.24175 0.0
Fe25 Fe 0.38718 0.37996 0.24354 0.0
O26 O 0.35891 0.39585 0.24948 0.0
O27 O 0.3891 0.44869 0.23858 0.0
O28 O 0.45156 0.48455 0.2317 0.0
C29 C 0.45964 0.48194 0.20386 0.0
C30 C 0.39496 0.40042 0.30415 0.0
O31 O 0.45963 0.45595 0.1949 0.0
C32 C 0.43631 0.3629 0.24778 0.0
O33 O 0.46149 0.46136 0.28467 0.0
O34 O 0.48999 0.4551 0.24663 0.0
O35 O 0.39189 0.37784 0.28556 0.0
O36 O 0.39991 0.42834 0.2941 0.0
C37 C 0.40326 0.38507 0.18176 0.0
O38 O 0.46028 0.39235 0.24549 0.0
O39 O 0.40787 0.35573 0.23813 0.0
C40 C 0.48827 0.46403 0.27431 0.0
O41 O 0.43271 0.39367 0.19048 0.0
O42 O 0.38126 0.38107 0.20156 0.0
C43 C 0.36113 0.42216 0.23884 0.0
Fe44 Fe 0.59869 0.04758 0.22417 0.0
Fe45 Fe 0.56347 0.97736 0.25216 0.0
O46 O 0.60049 0.01301 0.23949 0.0
Fe47 Fe 0.63912 0.0145 0.24182 0.0
O48 O 0.6565 0.05099 0.26598 0.0
O49 O 0.64166 0.07947 0.23582 0.0
O50 O 0.58441 0.05405 0.26155 0.0
C51 C 0.55756 0.03225 0.274 0.0
C52 C 0.63874 0.04094 0.1819 0.0
O53 O 0.54418 0.00179 0.2658 0.0
C54 C 0.60035 0.94997 0.22433 0.0
O55 O 0.55565 0.0226 0.20899 0.0
O56 O 0.54526 0.97122 0.21322 0.0
O57 O 0.65504 0.03833 0.20476 0.0
O58 O 0.61246 0.04198 0.18644 0.0
C59 C 0.6067 0.98393 0.29911 0.0
O60 O 0.57663 0.94693 0.24149 0.0
O61 O 0.62474 0.97805 0.21813 0.0
C62 C 0.53964 0.99237 0.20032 0.0
O63 O 0.57922 0.98124 0.29152 0.0
O64 O 0.62943 0.99088 0.27896 0.0
C65 C 0.66033 0.07837 0.25702 0.0
Fe66 Fe 0.04895 0.46345 0.75391 0.0
Fe67 Fe 0.97511 0.4289 0.73501 0.0
O68 O 0.01111 0.42682 0.7447 0.0
Fe69 Fe 0.00896 0.38794 0.74506 0.0
O70 O 0.04053 0.40123 0.71566 0.0
O71 O 0.07644 0.44845 0.73783 0.0
O72 O 0.05032 0.48132 0.71564 0.0
C73 C 0.02789 0.48694 0.70595 0.0
C74 C 0.04796 0.42071 0.79854 0.0
O75 O 0.99865 0.47104 0.71744 0.0
C76 C 0.94929 0.36964 0.77135 0.0
O77 O 0.02789 0.4843 0.77206 0.0
O78 O 0.9749 0.44537 0.77338 0.0
O79 O 0.03867 0.39826 0.77774 0.0
O80 O 0.04986 0.44818 0.79268 0.0
C81 C 0.97355 0.38624 0.69052 0.0
O82 O 0.9447 0.38674 0.75062 0.0
O83 O 0.97747 0.37263 0.77475 0.0
C84 C 0.99873 0.47235 0.78358 0.0
O85 O 0.97419 0.41313 0.69619 0.0
O86 O 0.97875 0.37061 0.71229 0.0
C87 C 0.0699 0.42441 0.71935 0.0
Fe88 Fe 0.63637 0.62975 0.74033 0.0
Fe89 Fe 0.59703 0.55431 0.7315 0.0
O90 O 0.59808 0.59223 0.73913 0.0
Fe91 Fe 0.56068 0.59253 0.74535 0.0
O92 O 0.5733 0.60808 0.78442 0.0
O93 O 0.62312 0.64864 0.77121 0.0
O94 O 0.65087 0.61464 0.77188 0.0
C95 C 0.65407 0.58941 0.77046 0.0
C96 C 0.59959 0.65156 0.70975 0.0
O97 O 0.6382 0.56704 0.74994 0.0
C98 C 0.54129 0.54863 0.69763 0.0
O99 O 0.65601 0.61716 0.70962 0.0
O100 O 0.61509 0.56888 0.69354 0.0
O101 O 0.57587 0.635 0.72889 0.0
O102 O 0.62409 0.6471 0.70884 0.0
C103 C 0.55006 0.5333 0.77662 0.0
O104 O 0.55588 0.53504 0.71142 0.0
O105 O 0.54644 0.57671 0.70632 0.0
C106 C 0.64179 0.59548 0.6882 0.0
O107 O 0.57828 0.53772 0.76924 0.0
O108 O 0.53875 0.55026 0.76329 0.0
C109 C 0.59996 0.63413 0.79131 0.0
Fe110 Fe 0.46603 0.05351 0.73127 0.0
Fe111 Fe 0.39075 0.02126 0.73999 0.0
O112 O 0.42729 0.01857 0.74126 0.0
Fe113 Fe 0.42523 0.98087 0.75239 0.0
O114 O 0.44106 0.9774 0.71449 0.0
O115 O 0.48373 0.02844 0.71564 0.0
O116 O 0.45172 0.0534 0.69197 0.0
C117 C 0.42582 0.05433 0.68507 0.0
C118 C 0.48537 0.03106 0.78104 0.0
O119 O 0.4043 0.04973 0.70585 0.0
C120 C 0.3852 0.98618 0.79592 0.0
O121 O 0.45509 0.08508 0.74451 0.0
O122 O 0.40706 0.0547 0.76795 0.0
O123 O 0.46736 0.0017 0.7703 0.0
O124 O 0.48238 0.0548 0.77028 0.0
C125 C 0.36614 0.95905 0.71623 0.0
O126 O 0.37116 0.9932 0.77392 0.0
O127 O 0.41008 0.98294 0.7906 0.0
C128 C 0.43263 0.0824 0.76334 0.0
O129 O 0.37203 0.98822 0.71182 0.0
O130 O 0.38234 0.95311 0.7369 0.0
C131 C 0.46957 0.9989 0.70482 0.0
Fe132 Fe 0.71504 0.92911 0.58172 0.0
Fe133 Fe 0.68208 0.9717 0.57702 0.0
O134 O 0.67953 0.93271 0.57354 0.0
Fe135 Fe 0.64164 0.89726 0.56226 0.0
O136 O 0.63962 0.87614 0.59878 0.0
O137 O 0.69085 0.88552 0.5957 0.0
O138 O 0.71547 0.94139 0.62201 0.0
C139 C 0.71659 0.96798 0.63017 0.0
C140 C 0.6919 0.89013 0.53002 0.0
O141 O 0.71151 0.98548 0.61036 0.0
C142 C 0.64382 0.944 0.5219 0.0
O143 O 0.7461 0.97244 0.5696 0.0
O144 O 0.71458 0.9898 0.54821 0.0
O145 O 0.66256 0.87778 0.54125 0.0
O146 O 0.7158 0.91606 0.54185 0.0
C147 C 0.62062 0.93243 0.60223 0.0
O148 O 0.65319 0.96476 0.54431 0.0
O149 O 0.64141 0.91596 0.52527 0.0
C150 C 0.74271 0.99273 0.55201 0.0
O151 O 0.64977 0.9561 0.60607 0.0
O152 O 0.61416 0.91092 0.58086 0.0
C153 C 0.66155 0.86916 0.60689 0.0
Fe154 Fe 0.12144 0.76422 0.5699 0.0
Fe155 Fe 0.08718 0.80283 0.59087 0.0
O156 O 0.0847 0.76501 0.57941 0.0
Fe157 Fe 0.04568 0.72827 0.57726 0.0
O158 O 0.05823 0.70768 0.60502 0.0
O159 O 0.10592 0.72048 0.58331 0.0
O160 O 0.13817 0.77794 0.60911 0.0
C161 C 0.14447 0.80588 0.61967 0.0
C162 C 0.07967 0.7263 0.52278 0.0
O163 O 0.12901 0.82003 0.60894 0.0
C164 C 0.02737 0.77137 0.55483 0.0
O165 O 0.1433 0.80736 0.55421 0.0
O166 O 0.1046 0.82155 0.55314 0.0
O167 O 0.05667 0.71132 0.54293 0.0
O168 O 0.10706 0.75119 0.53033 0.0
C169 C 0.04295 0.75955 0.63349 0.0
O170 O 0.04556 0.79239 0.57545 0.0
O171 O 0.03022 0.7464 0.54929 0.0
C172 C 0.13196 0.82535 0.54337 0.0
O173 O 0.07009 0.78611 0.62897 0.0
O174 O 0.02825 0.73882 0.61142 0.0
C175 C 0.08142 0.70169 0.60091 0.0
Fe176 Fe 0.22646 0.31092 0.57879 0.0
Fe177 Fe 0.30207 0.34743 0.57365 0.0
O178 O 0.26434 0.34749 0.57037 0.0
Fe179 Fe 0.26518 0.38433 0.55822 0.0
O180 O 0.24657 0.38657 0.59451 0.0
O181 O 0.20673 0.3338 0.59525 0.0
O182 O 0.23953 0.30929 0.61841 0.0
C183 C 0.26541 0.30825 0.62496 0.0
C184 C 0.20732 0.33291 0.52793 0.0
O185 O 0.28792 0.31588 0.60465 0.0
C186 C 0.31059 0.38358 0.51896 0.0
O187 O 0.24043 0.28237 0.56352 0.0
O188 O 0.28959 0.31692 0.54324 0.0
O189 O 0.22422 0.36256 0.53812 0.0
O190 O 0.21072 0.30999 0.53985 0.0
C191 C 0.3205 0.40684 0.59972 0.0
O192 O 0.32368 0.37891 0.54305 0.0
O193 O 0.28342 0.38331 0.52101 0.0
C194 C 0.26384 0.28866 0.54421 0.0
O195 O 0.31563 0.37797 0.60423 0.0
O196 O 0.30645 0.4127 0.57673 0.0
C197 C 0.21929 0.36364 0.6051 0.0
Fe198 Fe 0.69786 0.78121 0.08667 0.0
Fe199 Fe 0.65574 0.7073 0.07051 0.0
O200 O 0.66065 0.74744 0.07194 0.0
Fe201 Fe 0.62815 0.75378 0.05854 0.0
O202 O 0.62335 0.76687 0.0971 0.0
O203 O 0.67679 0.80266 0.1035 0.0
O204 O 0.69138 0.76124 0.12438 0.0
C205 C 0.68689 0.73251 0.12891 0.0
C206 C 0.68679 0.81217 0.03793 0.0
O207 O 0.68041 0.71248 0.10626 0.0
C208 C 0.62948 0.7138 0.0129 0.0
O209 O 0.72536 0.76522 0.07288 0.0
O210 O 0.69115 0.72134 0.04525 0.0
O211 O 0.65621 0.79719 0.04568 0.0
O212 O 0.70625 0.80346 0.04964 0.0
C213 C 0.5937 0.69102 0.08916 0.0
O214 O 0.63035 0.69521 0.03439 0.0
O215 O 0.63183 0.74132 0.0194 0.0
C216 C 0.7203 0.74326 0.05233 0.0
O217 O 0.61991 0.69072 0.09576 0.0
O218 O 0.59395 0.71134 0.06894 0.0
C219 C 0.64649 0.79129 0.1114 0.0
Fe220 Fe 0.26568 0.89973 0.06064 0.0
Fe221 Fe 0.23168 0.93451 0.09139 0.0
O222 O 0.26783 0.936 0.07628 0.0
Fe223 Fe 0.30622 0.9736 0.07724 0.0
O224 O 0.32429 0.95525 0.10145 0.0
O225 O 0.30868 0.91065 0.07271 0.0
O226 O 0.25188 0.87836 0.09788 0.0
C227 C 0.22574 0.87338 0.11155 0.0
C228 C 0.30527 0.94638 0.01784 0.0
O229 O 0.21226 0.89058 0.10449 0.0
C230 C 0.26645 0.99828 0.06167 0.0
O231 O 0.22245 0.88249 0.04563 0.0
O232 O 0.21147 0.92287 0.05363 0.0
O233 O 0.32187 0.96531 0.04043 0.0
O234 O 0.27906 0.91919 0.02282 0.0
C235 C 0.27727 0.97135 0.13595 0.0
O236 O 0.24474 0.97841 0.08114 0.0
O237 O 0.29024 0.99436 0.05344 0.0
C238 C 0.20573 0.89678 0.03935 0.0
O239 O 0.24997 0.94565 0.12992 0.0
O240 O 0.29725 0.98832 0.11414 0.0
C241 C 0.32644 0.93015 0.0946 0.0
Fe242 Fe 0.05931 0.35148 0.07551 0.0
Fe243 Fe 0.13464 0.38597 0.0659 0.0
O244 O 0.09657 0.35021 0.07655 0.0
Fe245 Fe 0.09558 0.31308 0.08811 0.0
O246 O 0.0797 0.31422 0.12641 0.0
O247 O 0.03998 0.32274 0.10884 0.0
O248 O 0.07489 0.38393 0.10412 0.0
C249 C 0.10063 0.41185 0.10116 0.0
C250 C 0.03685 0.29009 0.05111 0.0
O251 O 0.1227 0.41642 0.08085 0.0
C252 C 0.13903 0.33175 0.03944 0.0
O253 O 0.07177 0.38055 0.04209 0.0
O254 O 0.11957 0.38618 0.02685 0.0
O255 O 0.05303 0.28459 0.07221 0.0
O256 O 0.04175 0.31895 0.04686 0.0
C257 C 0.15568 0.36485 0.11574 0.0
O258 O 0.15312 0.36167 0.04932 0.0
O259 O 0.11142 0.30997 0.05041 0.0
C260 C 0.09323 0.38661 0.02087 0.0
O261 O 0.15207 0.38782 0.10416 0.0
O262 O 0.13785 0.33494 0.10621 0.0
C263 C 0.05372 0.31572 0.13103 0.0
Fe264 Fe 0.36744 0.26375 0.92217 0.0
Fe265 Fe 0.32526 0.29483 0.90385 0.0
O266 O 0.33037 0.25955 0.906 0.0
Fe267 Fe 0.29822 0.22076 0.89205 0.0
O268 O 0.3049 0.19613 0.92151 0.0
O269 O 0.34444 0.23262 0.95252 0.0
O270 O 0.37231 0.29537 0.95071 0.0
C271 C 0.35118 0.30212 0.96228 0.0
C272 C 0.35388 0.21939 0.87113 0.0
O273 O 0.3265 0.2984 0.94638 0.0
C274 C 0.30368 0.26725 0.8463 0.0
O275 O 0.39315 0.29528 0.8926 0.0
O276 O 0.36937 0.32497 0.90097 0.0
O277 O 0.32609 0.2168 0.8642 0.0
O278 O 0.36844 0.23265 0.89671 0.0
C279 C 0.26166 0.24503 0.92013 0.0
O280 O 0.32421 0.29262 0.86154 0.0
O281 O 0.28642 0.23925 0.85973 0.0
C282 C 0.39198 0.32164 0.88824 0.0
O283 O 0.27998 0.27188 0.90595 0.0
O284 O 0.26836 0.22184 0.91966 0.0
C285 C 0.31978 0.20384 0.94774 0.0
Fe286 Fe 0.76225 0.1239 0.9162 0.0
Fe287 Fe 0.80183 0.09008 0.89758 0.0
O288 O 0.7635 0.08755 0.90669 0.0
Fe289 Fe 0.72647 0.04877 0.90646 0.0
O290 O 0.70849 0.06258 0.87685 0.0
O291 O 0.71946 0.10878 0.90059 0.0
O292 O 0.77788 0.14139 0.87777 0.0
C293 C 0.80615 0.14767 0.86822 0.0
C294 C 0.72163 0.0806 0.96075 0.0
O295 O 0.82008 0.13233 0.87986 0.0
C296 C 0.76799 0.03071 0.93374 0.0
O297 O 0.80454 0.14548 0.93385 0.0
O298 O 0.81836 0.10663 0.93607 0.0
O299 O 0.70717 0.05923 0.93915 0.0
O300 O 0.74713 0.10817 0.95495 0.0
C301 C 0.76125 0.04719 0.85269 0.0
O302 O 0.7902 0.0481 0.91351 0.0
O303 O 0.7422 0.03284 0.93611 0.0
C304 C 0.82184 0.13383 0.94573 0.0
O305 O 0.78737 0.07413 0.85879 0.0
O306 O 0.73954 0.03164 0.87381 0.0
C307 C 0.70284 0.08612 0.88051 0.0
Fe308 Fe 0.97338 0.68907 0.91257 0.0
Fe309 Fe 0.92809 0.71871 0.90355 0.0
O310 O 0.9334 0.68455 0.91363 0.0
Fe311 Fe 0.89855 0.64601 0.92463 0.0
O312 O 0.91587 0.64742 0.96283 0.0
O313 O 0.96645 0.66175 0.94671 0.0
O314 O 0.98916 0.72256 0.94038 0.0
C315 C 0.99067 0.74984 0.93518 0.0
C316 C 0.93771 0.62654 0.88871 0.0
O317 O 0.97025 0.75147 0.91641 0.0
C318 C 0.87074 0.66293 0.87734 0.0
O319 O 0.98706 0.71697 0.87804 0.0
O320 O 0.9426 0.71963 0.86411 0.0
O321 O 0.91474 0.61962 0.9086 0.0
O322 O 0.96047 0.65604 0.88473 0.0
C323 C 0.88706 0.69482 0.95387 0.0
O324 O 0.88523 0.69243 0.88819 0.0
O325 O 0.87893 0.64231 0.88685 0.0
C326 C 0.96995 0.72158 0.85736 0.0
O327 O 0.91299 0.71926 0.94264 0.0
O328 O 0.87641 0.66558 0.94312 0.0
C329 C 0.94437 0.65144 0.96803 0.0
Fe330 Fe 0.35057 0.0599 0.40979 0.0
Fe331 Fe 0.38743 0.13547 0.41626 0.0
O332 O 0.35049 0.09768 0.40849 0.0
Fe333 Fe 0.3134 0.09772 0.3994 0.0
O334 O 0.31216 0.08102 0.36112 0.0
O335 O 0.31941 0.04032 0.37817 0.0
O336 O 0.38118 0.0735 0.37932 0.0
C337 C 0.40964 0.0988 0.38066 0.0
C338 C 0.29093 0.03969 0.43728 0.0
O339 O 0.41599 0.12174 0.40043 0.0
C340 C 0.33662 0.14264 0.44632 0.0
O341 O 0.38183 0.07317 0.44155 0.0
O342 O 0.38932 0.12203 0.45542 0.0
O343 O 0.28493 0.05574 0.41644 0.0
O344 O 0.31982 0.04421 0.44033 0.0
C345 C 0.36377 0.15516 0.36773 0.0
O346 O 0.36532 0.15567 0.43363 0.0
O347 O 0.31352 0.11469 0.43742 0.0
C348 C 0.38897 0.09549 0.46217 0.0
O349 O 0.38695 0.15074 0.37731 0.0
O350 O 0.33509 0.13964 0.38051 0.0
C351 C 0.31277 0.05463 0.35617 0.0
Fe352 Fe 0.89128 0.26717 0.42353 0.0
Fe353 Fe 0.96518 0.30999 0.40851 0.0
O354 O 0.92862 0.27074 0.40889 0.0
Fe355 Fe 0.92936 0.23529 0.39474 0.0
O356 O 0.91632 0.2147 0.43237 0.0
O357 O 0.87475 0.22419 0.43855 0.0
O358 O 0.90952 0.28105 0.46178 0.0
C359 C 0.93569 0.30818 0.46705 0.0
C360 C 0.86765 0.22719 0.37225 0.0
O361 O 0.9548 0.32506 0.44463 0.0
C362 C 0.96762 0.28107 0.35069 0.0
O363 O 0.9011 0.30979 0.41107 0.0
O364 O 0.94633 0.32644 0.38303 0.0
O365 O 0.88599 0.21491 0.37942 0.0
O366 O 0.87106 0.25268 0.38607 0.0
C367 C 0.99219 0.27289 0.42607 0.0
O368 O 0.98219 0.30223 0.37237 0.0
O369 O 0.94222 0.25337 0.35627 0.0
C370 C 0.92072 0.32784 0.38934 0.0
O371 O 0.98612 0.29541 0.43367 0.0
O372 O 0.97324 0.25005 0.407 0.0
C373 C 0.88943 0.20808 0.4456 0.0
Fe374 Fe 0.71152 0.66657 0.40787 0.0
Fe375 Fe 0.75951 0.64073 0.41961 0.0
O376 O 0.75208 0.67244 0.40612 0.0
Fe377 Fe 0.78516 0.70988 0.39068 0.0
O378 O 0.76462 0.70189 0.35308 0.0
O379 O 0.71589 0.69051 0.37181 0.0
O380 O 0.69525 0.63053 0.38303 0.0
C381 C 0.69663 0.60486 0.38932 0.0
C382 C 0.74608 0.73139 0.42454 0.0
O383 O 0.71753 0.6057 0.40918 0.0
C384 C 0.81657 0.70056 0.44027 0.0
O385 O 0.70013 0.64161 0.44432 0.0
O386 O 0.74676 0.64386 0.45868 0.0
O387 O 0.76799 0.73662 0.40384 0.0
O388 O 0.72524 0.70222 0.43268 0.0
C389 C 0.79761 0.65973 0.36712 0.0
O390 O 0.80251 0.6699 0.43292 0.0
O391 O 0.80781 0.71954 0.42746 0.0
C392 C 0.71912 0.64102 0.46553 0.0
O393 O 0.77306 0.63634 0.38103 0.0
O394 O 0.80793 0.68986 0.37469 0.0
C395 C 0.73551 0.69658 0.34884 0.0
H396 H 0.07847 0.40829 0.16018 0.0
H397 H 0.08521 0.58201 0.16632 0.0
H398 H 0.12047 0.4763 0.08199 0.0
H399 H 0.00552 0.49158 0.20631 0.0
H400 H 0.10647 0.54921 0.14009 0.0
H401 H 0.06247 0.4456 0.18455 0.0
C402 C 0.08506 0.43159 0.14849 0.0
C403 C 0.10062 0.43915 0.11891 0.0
C404 C 0.08415 0.53663 0.15432 0.0
C405 C 0.08179 0.48176 0.14656 0.0
C406 C 0.07194 0.5552 0.16919 0.0
C407 C 0.04348 0.5394 0.18842 0.0
C408 C 0.06828 0.50221 0.15946 0.0
C409 C 0.0273 0.50471 0.19148 0.0
C410 C 0.07553 0.45263 0.16225 0.0
C411 C 0.10869 0.4697 0.10489 0.0
N412 N 0.04022 0.48734 0.17753 0.0
N413 N 0.09889 0.48992 0.11877 0.0
H414 H 0.48155 0.4887 0.14246 0.0
H415 H 0.55862 0.68517 0.14225 0.0
H416 H 0.46596 0.54248 0.21704 0.0
H417 H 0.56119 0.63058 0.06159 0.0
H418 H 0.51871 0.6325 0.1675 0.0
H419 H 0.50589 0.53935 0.11022 0.0
C420 C 0.48301 0.51102 0.152 0.0
C421 C 0.4721 0.51135 0.18273 0.0
C422 C 0.52724 0.63198 0.14392 0.0
C423 C 0.49993 0.56944 0.14595 0.0
C424 C 0.54966 0.66208 0.12941 0.0
C425 C 0.56253 0.66202 0.09968 0.0
C426 C 0.51839 0.60168 0.12882 0.0
C427 C 0.5512 0.63149 0.08435 0.0
C428 C 0.49681 0.53992 0.13354 0.0
C429 C 0.47436 0.54101 0.19367 0.0
N430 N 0.53014 0.60247 0.09927 0.0
N431 N 0.4883 0.56884 0.17547 0.0
H432 H 0.50874 0.93643 0.16312 0.0
H433 H 0.34271 0.94241 0.1556 0.0
H434 H 0.50066 0.0205 0.19443 0.0
H435 H 0.37175 0.91358 0.07025 0.0
H436 H 0.39528 0.95459 0.1798 0.0
H437 H 0.45452 0.91441 0.13609 0.0
C438 C 0.49574 0.95036 0.16405 0.0
C439 C 0.50919 0.98037 0.181 0.0
C440 C 0.3899 0.945 0.15598 0.0
C441 C 0.44735 0.95491 0.15124 0.0
C442 C 0.35985 0.93777 0.14223 0.0
C443 C 0.3531 0.92732 0.11078 0.0
C444 C 0.41343 0.94155 0.13835 0.0
C445 C 0.37608 0.92153 0.09458 0.0
C446 C 0.46498 0.9378 0.14867 0.0
C447 C 0.4914 0.99744 0.18152 0.0
N448 N 0.40568 0.92915 0.10848 0.0
N449 N 0.4612 0.9842 0.1673 0.0
H450 H 0.4014 0.06834 0.32483 0.0
H451 H 0.58117 0.08998 0.30781 0.0
H452 H 0.47665 0.12519 0.39432 0.0
H453 H 0.49018 0.00113 0.28145 0.0
H454 H 0.54792 0.11131 0.33311 0.0
H455 H 0.43948 0.05394 0.29962 0.0
C456 C 0.42624 0.07828 0.33449 0.0
C457 C 0.43576 0.09756 0.362 0.0
C458 C 0.53543 0.08707 0.32198 0.0
C459 C 0.47936 0.08082 0.33331 0.0
C460 C 0.55425 0.07487 0.3076 0.0
C461 C 0.53834 0.04372 0.29252 0.0
C462 C 0.50059 0.06831 0.32048 0.0
C463 C 0.50347 0.02513 0.29293 0.0
C464 C 0.44782 0.06981 0.32022 0.0
C465 C 0.4684 0.1102 0.37319 0.0
N466 N 0.48579 0.03791 0.30633 0.0
N467 N 0.48911 0.1013 0.35891 0.0
H468 H 0.02326 0.50042 0.28582 0.0
H469 H 0.91033 0.37599 0.41629 0.0
H470 H 0.94934 0.5189 0.32758 0.0
H471 H 0.93002 0.34343 0.32808 0.0
H472 H 0.92841 0.43108 0.39233 0.0
H473 H 0.99699 0.44588 0.31164 0.0
C474 C 0.00197 0.4933 0.30098 0.0
C475 C 0.9884 0.5141 0.30457 0.0
C476 C 0.92785 0.41144 0.37815 0.0
C477 C 0.95822 0.45186 0.33395 0.0
C478 C 0.91707 0.37998 0.39161 0.0
C479 C 0.91869 0.35526 0.37403 0.0
C480 C 0.94084 0.41793 0.34742 0.0
C481 C 0.92846 0.3619 0.34238 0.0
C482 C 0.98676 0.46209 0.31536 0.0
C483 C 0.96042 0.50341 0.32418 0.0
N484 N 0.93989 0.39278 0.33032 0.0
N485 N 0.94621 0.47296 0.3383 0.0
H486 H 0.55043 0.47732 0.257 0.0
H487 H 0.63796 0.56582 0.41884 0.0
H488 H 0.49653 0.48519 0.33618 0.0
H489 H 0.69092 0.57572 0.33272 0.0
H490 H 0.58572 0.52568 0.39287 0.0
H491 H 0.60136 0.50369 0.28802 0.0
C492 C 0.54919 0.48452 0.28098 0.0
C493 C 0.51904 0.47936 0.2938 0.0
C494 C 0.60887 0.53593 0.37989 0.0
C495 C 0.57774 0.50958 0.32968 0.0
C496 C 0.63868 0.55835 0.39483 0.0
C497 C 0.66869 0.57337 0.37797 0.0
C498 C 0.60919 0.52876 0.34782 0.0
C499 C 0.66832 0.56403 0.34662 0.0
C500 C 0.57841 0.49956 0.29871 0.0
C501 C 0.51921 0.48901 0.32516 0.0
N502 N 0.63898 0.5425 0.33246 0.0
N503 N 0.54815 0.50382 0.34198 0.0
H504 H 0.90521 0.55837 0.89986 0.0
H505 H 0.03785 0.53863 0.79668 0.0
H506 H 0.98091 0.6357 0.84173 0.0
H507 H 0.94106 0.45373 0.81643 0.0
H508 H 0.02109 0.57421 0.82364 0.0
H509 H 0.92014 0.51864 0.87716 0.0
C510 C 0.9246 0.56691 0.8822 0.0
C511 C 0.94203 0.60051 0.87297 0.0
C512 C 0.00357 0.54773 0.82222 0.0
C513 C 0.95966 0.5558 0.84783 0.0
C514 C 0.01324 0.52737 0.80704 0.0
C515 C 0.9907 0.49322 0.80391 0.0
C516 C 0.97124 0.5339 0.83462 0.0
C517 C 0.95909 0.48005 0.81797 0.0
C518 C 0.93322 0.54436 0.86946 0.0
C519 C 0.96701 0.61023 0.85 0.0
N520 N 0.95018 0.50045 0.83262 0.0
N521 N 0.97524 0.58815 0.83855 0.0
H522 H 0.48371 0.50778 0.78914 0.0
H523 H 0.45934 0.34411 0.87847 0.0
H524 H 0.56525 0.48991 0.80632 0.0
H525 H 0.3805 0.36424 0.85522 0.0
H526 H 0.49929 0.39658 0.8519 0.0
H527 H 0.44615 0.45516 0.81493 0.0
C528 C 0.49381 0.49298 0.7986 0.0
C529 C 0.52769 0.50333 0.79541 0.0
C530 C 0.47317 0.38927 0.85258 0.0
C531 C 0.48462 0.44252 0.82476 0.0
C532 C 0.45044 0.35928 0.86748 0.0
C533 C 0.41672 0.35009 0.86936 0.0
C534 C 0.46181 0.40977 0.8395 0.0
C535 C 0.40639 0.37063 0.85482 0.0
C536 C 0.47229 0.46273 0.81318 0.0
C537 C 0.53926 0.4829 0.80813 0.0
N538 N 0.42877 0.39942 0.84074 0.0
N539 N 0.51776 0.45342 0.82214 0.0
H540 H 0.51058 0.99042 0.79472 0.0
H541 H 0.67068 0.1222 0.89056 0.0
H542 H 0.52859 0.08998 0.81064 0.0
H543 H 0.66525 0.04146 0.83555 0.0
H544 H 0.61614 0.10942 0.8688 0.0
H545 H 0.56377 0.00602 0.81959 0.0
C546 C 0.52547 0.01545 0.80382 0.0
C547 C 0.51517 0.03899 0.80027 0.0
C548 C 0.6272 0.09476 0.86152 0.0
C549 C 0.57645 0.05712 0.82865 0.0
C550 C 0.65832 0.10213 0.87376 0.0
C551 C 0.6725 0.08271 0.86516 0.0
C552 C 0.61019 0.06757 0.84102 0.0
C553 C 0.65528 0.05693 0.84329 0.0
C554 C 0.55601 0.02444 0.8178 0.0
C555 C 0.53569 0.07111 0.81263 0.0
N556 N 0.62504 0.04997 0.83233 0.0
N557 N 0.56548 0.07932 0.82622 0.0
H558 H 0.62739 0.96328 0.65789 0.0
H559 H 0.44703 0.94212 0.6692 0.0
H560 H 0.55411 0.90722 0.58658 0.0
H561 H 0.5372 0.02931 0.70013 0.0
H562 H 0.48111 0.92127 0.64464 0.0
H563 H 0.58878 0.97774 0.68175 0.0
C564 C 0.60291 0.95357 0.64746 0.0
C565 C 0.59416 0.93441 0.61987 0.0
C566 C 0.49325 0.94505 0.65663 0.0
C567 C 0.54978 0.95121 0.64717 0.0
C568 C 0.47393 0.95699 0.6706 0.0
C569 C 0.48931 0.98753 0.68677 0.0
C570 C 0.52803 0.96344 0.65957 0.0
C571 C 0.52421 0.00576 0.68784 0.0
C572 C 0.58098 0.96207 0.66101 0.0
C573 C 0.56186 0.92212 0.60778 0.0
N574 N 0.54231 0.99326 0.67478 0.0
N575 N 0.54079 0.93098 0.6214 0.0
H576 H 0.09056 0.53479 0.6861 0.0
H577 H 0.02191 0.64831 0.61549 0.0
H578 H 0.9868 0.50658 0.67939 0.0
H579 H 0.12673 0.67991 0.61306 0.0
H580 H 0.01003 0.59538 0.63673 0.0
H581 H 0.10538 0.58627 0.65725 0.0
C582 C 0.07084 0.53917 0.67829 0.0
C583 C 0.03731 0.51635 0.6855 0.0
C584 C 0.03571 0.61364 0.63162 0.0
C585 C 0.05424 0.57527 0.6526 0.0
C586 C 0.04266 0.64422 0.61954 0.0
C587 C 0.07557 0.66904 0.6128 0.0
C588 C 0.06175 0.60732 0.63754 0.0
C589 C 0.10105 0.6616 0.61806 0.0
C590 C 0.0794 0.56863 0.66187 0.0
C591 C 0.01295 0.52342 0.6747 0.0
N592 N 0.09364 0.63141 0.63046 0.0
N593 N 0.02193 0.55223 0.65904 0.0
H594 H 0.3405 0.40421 0.65874 0.0
H595 H 0.5155 0.57073 0.65203 0.0
H596 H 0.36709 0.46902 0.57788 0.0
H597 H 0.49829 0.48168 0.70052 0.0
H598 H 0.45983 0.53926 0.62832 0.0
H599 H 0.3958 0.43989 0.68066 0.0
C600 C 0.35779 0.4265 0.64597 0.0
C601 C 0.34938 0.43358 0.61635 0.0
C602 C 0.46851 0.52662 0.64381 0.0
C603 C 0.41294 0.47409 0.64101 0.0
C604 C 0.50023 0.5444 0.65717 0.0
C605 C 0.51145 0.52868 0.67819 0.0
C606 C 0.44774 0.49319 0.65217 0.0
C607 C 0.49074 0.49467 0.68424 0.0
C608 C 0.38946 0.44656 0.65829 0.0
C609 C 0.37262 0.46281 0.60084 0.0
N610 N 0.45967 0.47817 0.67165 0.0
N611 N 0.40367 0.48197 0.61325 0.0
H612 H 0.78932 0.79985 0.42686 0.0
H613 H 0.64849 0.83025 0.50305 0.0
H614 H 0.68811 0.72363 0.44713 0.0
H615 H 0.75296 0.90467 0.50624 0.0
H616 H 0.66236 0.79439 0.47274 0.0
H617 H 0.77638 0.84183 0.44755 0.0
C618 C 0.7645 0.79199 0.43547 0.0
C619 C 0.73997 0.75813 0.43566 0.0
C620 C 0.68229 0.81867 0.47987 0.0
C621 C 0.7249 0.80566 0.45864 0.0
C622 C 0.67433 0.83925 0.49711 0.0
C623 C 0.69958 0.87035 0.50769 0.0
C624 C 0.7158 0.82911 0.47312 0.0
C625 C 0.73265 0.88071 0.4989 0.0
C626 C 0.75712 0.81586 0.44724 0.0
C627 C 0.7081 0.7493 0.44694 0.0
N628 N 0.73987 0.85999 0.4824 0.0
N629 N 0.70159 0.7728 0.4579 0.0
H630 H 0.22293 0.00431 0.42513 0.0
H631 H 0.19929 0.85489 0.53523 0.0
H632 H 0.29809 0.00898 0.48851 0.0
H633 H 0.11466 0.86498 0.50944 0.0
H634 H 0.2359 0.90805 0.50971 0.0
H635 H 0.18213 0.95099 0.4497 0.0
C636 C 0.23072 0.99449 0.44443 0.0
C637 C 0.26408 0.01096 0.45448 0.0
C638 C 0.20929 0.89859 0.50953 0.0
C639 C 0.21811 0.95003 0.48185 0.0
C640 C 0.18833 0.86805 0.52385 0.0
C641 C 0.15385 0.85552 0.52466 0.0
C642 C 0.19578 0.91668 0.49552 0.0
C643 C 0.14116 0.87388 0.50956 0.0
C644 C 0.20755 0.96403 0.45825 0.0
C645 C 0.27282 0.997 0.47956 0.0
N646 N 0.16213 0.9036 0.49557 0.0
N647 N 0.25018 0.96728 0.49202 0.0
H648 H 0.0484 0.33238 0.42441 0.0
H649 H 0.16228 0.27042 0.50678 0.0
H650 H 0.01308 0.22881 0.44443 0.0
H651 H 0.18777 0.37333 0.49892 0.0
H652 H 0.11186 0.2541 0.4761 0.0
H653 H 0.1034 0.34648 0.44295 0.0
C654 C 0.05234 0.31249 0.43265 0.0
C655 C 0.026 0.27941 0.43352 0.0
C656 C 0.12865 0.28025 0.48084 0.0
C657 C 0.08926 0.29556 0.4551 0.0
C658 C 0.15754 0.2897 0.49832 0.0
C659 C 0.1792 0.32339 0.50586 0.0
C660 C 0.12139 0.30463 0.47061 0.0
C661 C 0.17176 0.34711 0.49398 0.0
C662 C 0.08383 0.32061 0.44322 0.0
C663 C 0.03271 0.25462 0.44365 0.0
N664 N 0.14338 0.33723 0.47716 0.0
N665 N 0.06373 0.26327 0.45454 0.0
H666 H 0.1344 0.46974 0.70025 0.0
H667 H 0.16065 0.32235 0.63527 0.0
H668 H 0.0648 0.36462 0.71093 0.0
H669 H 0.23415 0.42628 0.62325 0.0
H670 H 0.12756 0.33856 0.66714 0.0
H671 H 0.17414 0.45574 0.67582 0.0
C672 C 0.12765 0.44389 0.69769 0.0
C673 C 0.09609 0.41835 0.70697 0.0
C674 C 0.15101 0.35789 0.65767 0.0
C675 C 0.14091 0.4022 0.67957 0.0
C676 C 0.1699 0.34857 0.63943 0.0
C677 C 0.20002 0.37292 0.62628 0.0
C678 C 0.16215 0.39186 0.66267 0.0
C679 C 0.21092 0.4066 0.63275 0.0
C680 C 0.15017 0.43588 0.68377 0.0
C681 C 0.08854 0.38519 0.7034 0.0
N682 N 0.19184 0.41511 0.65027 0.0
N683 N 0.11062 0.37816 0.68991 0.0
H684 H 0.6382 0.68037 0.6586 0.0
H685 H 0.60411 0.83157 0.64087 0.0
H686 H 0.56884 0.68887 0.72006 0.0
H687 H 0.69476 0.8346 0.61196 0.0
H688 H 0.58528 0.77679 0.665 0.0
H689 H 0.65191 0.73313 0.63436 0.0
C690 C 0.62554 0.69321 0.66683 0.0
C691 C 0.60264 0.68035 0.69176 0.0
C692 C 0.60933 0.78964 0.65352 0.0
C693 C 0.61858 0.7413 0.664 0.0
C694 C 0.62014 0.82086 0.63977 0.0
C695 C 0.65109 0.83772 0.62429 0.0
C696 C 0.62936 0.77499 0.65125 0.0
C697 C 0.67082 0.82268 0.62366 0.0
C698 C 0.63358 0.7235 0.65305 0.0
C699 C 0.58668 0.69793 0.70098 0.0
N700 N 0.65949 0.79212 0.63665 0.0
N701 N 0.59514 0.72776 0.68721 0.0
H702 H 0.18087 0.78377 0.6529 0.0
H703 H 0.33787 0.96499 0.66274 0.0
H704 H 0.17948 0.87325 0.62773 0.0
H705 H 0.32572 0.89259 0.73326 0.0
H706 H 0.28342 0.92592 0.6415 0.0
H707 H 0.23626 0.8184 0.6768 0.0
C708 C 0.19197 0.8106 0.65271 0.0
C709 C 0.17547 0.82562 0.63818 0.0
C710 C 0.29266 0.91843 0.66152 0.0
C711 C 0.23886 0.86503 0.66462 0.0
C712 C 0.32389 0.94064 0.6736 0.0
C713 C 0.33625 0.9323 0.70021 0.0
C714 C 0.27341 0.88726 0.67578 0.0
C715 C 0.31711 0.90007 0.7128 0.0
C716 C 0.22351 0.83023 0.66631 0.0
C717 C 0.19105 0.86047 0.63865 0.0
N718 N 0.28638 0.87865 0.70056 0.0
N719 N 0.22196 0.87891 0.65121 0.0
H720 H 0.65591 0.94576 0.22822 0.0
H721 H 0.58404 0.7795 0.12682 0.0
H722 H 0.55282 0.88913 0.20012 0.0
H723 H 0.68827 0.8452 0.14742 0.0
H724 H 0.5701 0.81357 0.16023 0.0
H725 H 0.66554 0.90302 0.20641 0.0
C726 C 0.63516 0.92401 0.21762 0.0
C727 C 0.60363 0.9211 0.21548 0.0
C728 C 0.59596 0.82032 0.15763 0.0
C729 C 0.61462 0.87211 0.18993 0.0
C730 C 0.60402 0.80091 0.13857 0.0
C731 C 0.63751 0.80978 0.13393 0.0
C732 C 0.62153 0.8487 0.1723 0.0
C733 C 0.66219 0.83761 0.14998 0.0
C734 C 0.64069 0.89961 0.20514 0.0
C735 C 0.5775 0.89224 0.20207 0.0
N736 N 0.6537 0.85615 0.16825 0.0
N737 N 0.58369 0.86895 0.18929 0.0
H738 H 0.08043 0.67621 0.1604 0.0
H739 H 0.25202 0.84382 0.14847 0.0
H740 H 0.14624 0.70579 0.24066 0.0
H741 H 0.15857 0.83338 0.11757 0.0
H742 H 0.22118 0.7895 0.17527 0.0
H743 H 0.11831 0.72878 0.13468 0.0
C744 C 0.10343 0.69346 0.17223 0.0
C745 C 0.11014 0.68689 0.2028 0.0
C746 C 0.20763 0.79939 0.16281 0.0
C747 C 0.15327 0.7472 0.17361 0.0
C748 C 0.22504 0.83022 0.1476 0.0
C749 C 0.20771 0.84301 0.13085 0.0
C750 C 0.17286 0.78101 0.16031 0.0
C751 C 0.17286 0.82455 0.13037 0.0
C752 C 0.12477 0.72354 0.15768 0.0
C753 C 0.14032 0.70998 0.21703 0.0
N754 N 0.1566 0.79423 0.14448 0.0
N755 N 0.1608 0.73955 0.2024 0.0
H756 H 0.16869 0.32463 0.15383 0.0
H757 H 0.35414 0.46397 0.1967 0.0
H758 H 0.20877 0.42719 0.12577 0.0
H759 H 0.29763 0.37372 0.25065 0.0
H760 H 0.30261 0.4515 0.16861 0.0
H761 H 0.21791 0.3417 0.18705 0.0
C762 C 0.18772 0.35068 0.15472 0.0
C763 C 0.1845 0.37443 0.13701 0.0
C764 C 0.30159 0.43475 0.18695 0.0
C765 C 0.24104 0.39415 0.17466 0.0
C766 C 0.3309 0.44201 0.2031 0.0
C767 C 0.33031 0.41976 0.22585 0.0
C768 C 0.27179 0.40492 0.19345 0.0
C769 C 0.29947 0.39143 0.233 0.0
C770 C 0.21576 0.36047 0.17375 0.0
C771 C 0.21006 0.40796 0.13911 0.0
N772 N 0.27167 0.38463 0.21661 0.0
N773 N 0.23734 0.41677 0.15733 0.0
H774 H 0.2046 0.34851 0.04301 0.0
H775 H 0.20309 0.23909 0.90088 0.0
H776 H 0.11342 0.28598 -0.00742 0.0
H777 H 0.26353 0.25401 0.98297 0.0
H778 H 0.1714 0.25951 0.93034 0.0
H779 H 0.23064 0.32046 0.01598 0.0
C780 C 0.19036 0.32943 0.02573 0.0
C781 C 0.15698 0.31971 0.01971 0.0
C782 C 0.19103 0.25749 0.94215 0.0
C783 C 0.18626 0.2874 0.98922 0.0
C784 C 0.20868 0.24533 0.92555 0.0
C785 C 0.23531 0.24413 0.93988 0.0
C786 C 0.20105 0.26974 0.97281 0.0
C787 C 0.24264 0.2539 0.97143 0.0
C788 C 0.20499 0.31309 0.01076 0.0
C789 C 0.13932 0.29429 -0.00232 0.0
N790 N 0.22608 0.26699 0.98671 0.0
N791 N 0.15421 0.27915 0.98304 0.0
H792 H 0.66054 0.85284 0.03161 0.0
H793 H 0.7895 0.9872 0.91565 0.0
H794 H 0.74602 0.84468 0.00533 0.0
H795 H 0.74398 0.01088 -0.00784 0.0
H796 H 0.7726 0.93304 0.94114 0.0
H797 H 0.68668 0.90807 0.00774 0.0
C798 C 0.68464 0.86247 0.02047 0.0
C799 C 0.70116 0.84414 0.02057 0.0
C800 C 0.76708 0.95057 0.95253 0.0
C801 C 0.73127 0.90751 -0.00681 0.0
C802 C 0.777 0.98151 0.93822 0.0
C803 C 0.76784 0.00334 0.95173 0.0
C804 C 0.74757 0.94164 0.98 0.0
C805 C 0.75119 0.99459 0.98077 0.0
C806 C 0.69969 0.89414 0.00712 0.0
C807 C 0.73254 0.85812 0.00588 0.0
N808 N 0.74103 0.96424 -0.00644 0.0
N809 N 0.74661 0.88901 -0.00742 0.0
H810 H 0.15447 0.9099 0.0358 0.0
H811 H 0.05038 0.76454 0.91266 0.0
H812 H 0.18807 0.84578 -0.00274 0.0
H813 H 0.00355 0.80069 0.97638 0.0
H814 H 0.10478 0.80492 0.93398 0.0
H815 H 0.10288 0.87966 0.00561 0.0
C816 C 0.15121 0.88968 0.02073 0.0
C817 C 0.17563 0.88018 0.01924 0.0
C818 C 0.08273 0.80448 0.94299 0.0
C819 C 0.11665 0.84579 0.98445 0.0
C820 C 0.05176 0.7817 0.93066 0.0
C821 C 0.02265 0.7795 0.94284 0.0
C822 C 0.08465 0.82518 0.96781 0.0
C823 C 0.02556 0.80195 0.96627 0.0
C824 C 0.12167 0.87242 0.00361 0.0
C825 C 0.16988 0.85378 -0.00067 0.0
N826 N 0.05615 0.82379 0.9783 0.0
N827 N 0.14097 0.8375 0.98273 0.0
H828 H 0.33041 0.1852 0.81508 0.0
H829 H 0.46635 0.1271 0.81056 0.0
H830 H 0.41213 0.2193 0.88088 0.0
H831 H 0.39117 0.10158 0.73937 0.0
H832 H 0.45048 0.16565 0.83386 0.0
H833 H 0.35489 0.15804 0.78453 0.0
C834 C 0.35353 0.18716 0.82303 0.0
C835 C 0.36893 0.2043 0.85083 0.0
C836 C 0.43791 0.15216 0.81273 0.0
C837 C 0.39717 0.17324 0.81599 0.0
C838 C 0.44728 0.1305 0.79931 0.0
C839 C 0.43028 0.11161 0.7729 0.0
C840 C 0.41107 0.15442 0.79983 0.0
C841 C 0.40505 0.11608 0.75962 0.0
C842 C 0.36757 0.1717 0.80555 0.0
C843 C 0.39906 0.20614 0.85981 0.0
N844 N 0.39597 0.13672 0.77338 0.0
N845 N 0.41197 0.19062 0.84264 0.0
H846 H 0.87379 0.18763 0.86688 0.0
H847 H 0.88544 0.32624 0.75005 0.0
H848 H 0.78333 0.17891 0.82897 0.0
H849 H 0.95171 0.34644 0.82883 0.0
H850 H 0.84801 0.27036 0.77218 0.0
H851 H 0.9052 0.24325 0.84388 0.0
C852 C 0.8606 0.19713 0.85319 0.0
C853 C 0.82589 0.17866 0.84992 0.0
C854 C 0.8705 0.28742 0.78477 0.0
C855 C 0.86166 0.24247 0.82383 0.0
C856 C 0.89156 0.31936 0.77241 0.0
C857 C 0.92175 0.34084 0.78757 0.0
C858 C 0.88024 0.27713 0.81199 0.0
C859 C 0.92881 0.33051 0.81623 0.0
C860 C 0.87848 0.22905 0.84042 0.0
C861 C 0.8101 0.19247 0.83215 0.0
N862 N 0.90859 0.29927 0.82717 0.0
N863 N 0.82811 0.22362 0.81971 0.0
H864 H 0.83979 0.6072 0.84008 0.0
H865 H 0.67385 0.61693 0.82789 0.0
H866 H 0.82966 0.68914 0.8744 0.0
H867 H 0.69714 0.56632 0.75597 0.0
H868 H 0.72662 0.63275 0.85365 0.0
H869 H 0.78455 0.58364 0.81526 0.0
C870 C 0.82609 0.62035 0.84218 0.0
C871 C 0.83937 0.65024 0.85929 0.0
C872 C 0.7201 0.61787 0.83244 0.0
C873 C 0.77616 0.62298 0.83184 0.0
C874 C 0.68984 0.60854 0.81787 0.0
C875 C 0.6813 0.59061 0.78955 0.0
C876 C 0.74213 0.60916 0.81878 0.0
C877 C 0.70282 0.58012 0.77779 0.0
C878 C 0.79465 0.60685 0.82809 0.0
C879 C 0.82058 0.66622 0.86129 0.0
N880 N 0.7326 0.5899 0.79233 0.0
N881 N 0.78984 0.6522 0.84804 0.0
H882 H 0.82372 0.65086 0.97339 0.0
H883 H 0.78888 0.78354 0.05969 0.0
H884 H 0.90033 0.75422 0.98071 0.0
H885 H 0.71407 0.69229 0.01618 0.0
H886 H 0.8321 0.772 0.03975 0.0
H887 H 0.78526 0.66378 0.00025 0.0
C888 C 0.83264 0.67622 0.98098 0.0
C889 C 0.86522 0.70155 0.97433 0.0
C890 C 0.80612 0.75468 0.03472 0.0
C891 C 0.82104 0.7166 0.005 0.0
C892 C 0.78153 0.76127 0.04598 0.0
C893 C 0.74773 0.73894 0.03966 0.0
C894 C 0.79661 0.72532 0.01761 0.0
C895 C 0.73966 0.71038 0.02179 0.0
C896 C 0.81057 0.68363 -0.00383 0.0
C897 C 0.8753 0.73396 0.98501 0.0
N898 N 0.76379 0.7044 0.01165 0.0
N899 N 0.8532 0.74065 -0.00036 0.0
H900 H 0.35482 0.2007 -0.00111 0.0
H901 H 0.21863 0.01065 0.03719 0.0
H902 H 0.26016 0.14625 0.95121 0.0
H903 H 0.32122 0.05878 0.0671 0.0
H904 H 0.22869 0.06421 0.01539 0.0
H905 H 0.33807 0.15275 0.03388 0.0
C906 C 0.33041 0.17888 -0.00396 0.0
C907 C 0.30916 0.17722 0.97172 0.0
C908 C 0.24881 0.06308 0.0272 0.0
C909 C 0.28978 0.12242 0.01158 0.0
C910 C 0.24298 0.03265 0.03975 0.0
C911 C 0.26925 0.03043 0.0535 0.0
C912 C 0.28101 0.09126 0.02884 0.0
C913 C 0.30044 0.0595 0.05621 0.0
C914 C 0.32085 0.15149 0.01594 0.0
C915 C 0.27765 0.14836 0.96924 0.0
N916 N 0.30553 0.08861 0.04379 0.0
N917 N 0.26904 0.12203 0.9887 0.0
H918 H 0.85305 0.20137 0.95248 0.0
H919 H 0.99852 0.22324 0.06714 0.0
H920 H 0.85844 0.11531 0.98276 0.0
H921 H 0.0084 0.29568 -0.00239 0.0
H922 H 0.94442 0.18297 0.04339 0.0
H923 H 0.90622 0.23712 0.97847 0.0
C924 C 0.86513 0.18995 0.96501 0.0
C925 C 0.85139 0.15532 0.96525 0.0
C926 C 0.95878 0.20766 0.03333 0.0
C927 C 0.91247 0.19617 -0.00515 0.0
C928 C 0.98967 0.23047 0.04666 0.0
C929 C 0.00779 0.26299 0.03461 0.0
C930 C 0.94607 0.21782 0.00823 0.0
C931 C 0.99508 0.27111 0.0081 0.0
C932 C 0.89566 0.21038 0.97958 0.0
C933 C 0.86835 0.14195 0.9818 0.0
N934 N 0.96493 0.24892 -0.00385 0.0
N935 N 0.89811 0.16242 -0.00404 0.0
H936 H 0.28634 0.12117 0.48918 0.0
H937 H 0.29157 0.29478 0.48729 0.0
H938 H 0.36363 0.21006 0.44458 0.0
H939 H 0.24192 0.22386 0.56209 0.0
H940 H 0.3091 0.25789 0.46467 0.0
H941 H 0.26359 0.15405 0.51212 0.0
C942 C 0.29882 0.14772 0.48468 0.0
C943 C 0.3269 0.16303 0.465 0.0
C944 C 0.29409 0.25018 0.48585 0.0
C945 C 0.3005 0.20022 0.49023 0.0
C946 C 0.28373 0.27098 0.49853 0.0
C947 C 0.26557 0.26236 0.52671 0.0
C948 C 0.2862 0.22046 0.50137 0.0
C949 C 0.25584 0.23125 0.54027 0.0
C950 C 0.28573 0.16632 0.49761 0.0
C951 C 0.34212 0.19737 0.45981 0.0
N952 N 0.26664 0.21141 0.52762 0.0
N953 N 0.32844 0.21475 0.47204 0.0
H954 H 0.90393 0.15779 0.45184 0.0
H955 H 0.75149 0.05232 0.56841 0.0
H956 H 0.83644 0.18953 0.48529 0.0
H957 H 0.79768 0.00727 0.51536 0.0
H958 H 0.79128 0.10645 0.54657 0.0
H959 H 0.87314 0.10628 0.48227 0.0
C960 C 0.88285 0.15414 0.46582 0.0
C961 C 0.8726 0.17802 0.46583 0.0
C962 C 0.79309 0.08491 0.53987 0.0
C963 C 0.83752 0.11915 0.50084 0.0
C964 C 0.77052 0.05403 0.55247 0.0
C965 C 0.77128 0.02537 0.54345 0.0
C966 C 0.81662 0.08731 0.51782 0.0
C967 C 0.79644 0.02888 0.52291 0.0
C968 C 0.86528 0.12465 0.48309 0.0
C969 C 0.8451 0.1718 0.48436 0.0
N970 N 0.81801 0.05938 0.51041 0.0
N971 N 0.82854 0.143 0.50105 0.0
H972 H 0.96636 0.72727 0.57558 0.0
H973 H 0.86783 0.76539 0.44257 0.0
H974 H 0.0171 0.80801 0.50969 0.0
H975 H 0.83334 0.6688 0.48458 0.0
H976 H 0.91872 0.78775 0.47456 0.0
H977 H 0.91322 0.71309 0.55095 0.0
C978 C 0.96608 0.74255 0.55637 0.0
C979 C 0.99591 0.76892 0.54467 0.0
C980 C 0.89986 0.76175 0.47687 0.0
C981 C 0.9354 0.75237 0.51586 0.0
C982 C 0.87079 0.74897 0.45875 0.0
C983 C 0.8464 0.71508 0.46079 0.0
C984 C 0.90421 0.74064 0.49758 0.0
C985 C 0.85159 0.69496 0.48204 0.0
C986 C 0.93585 0.73426 0.54215 0.0
C987 C 0.99446 0.78773 0.51951 0.0
N988 N 0.87987 0.70806 0.49962 0.0
N989 N 0.96459 0.77892 0.50567 0.0
H990 H 0.96613 0.64487 0.31896 0.0
H991 H 0.77955 0.60074 0.3372 0.0
H992 H 0.89225 0.57337 0.25536 0.0
H993 H 0.8636 0.69899 0.35318 0.0
H994 H 0.81708 0.58457 0.31216 0.0
H995 H 0.92503 0.65757 0.33938 0.0
C996 C 0.94111 0.63157 0.30938 0.0
C997 C 0.9328 0.60837 0.28495 0.0
C998 C 0.82705 0.60973 0.3208 0.0
C999 C 0.88546 0.62302 0.30853 0.0
C1000 C 0.80578 0.61902 0.33506 0.0
C1001 C 0.81857 0.65123 0.34751 0.0
C1002 C 0.8613 0.63261 0.31969 0.0
C1003 C 0.85264 0.67394 0.34398 0.0
C1004 C 0.91773 0.63907 0.32098 0.0
C1005 C 0.89973 0.59152 0.27407 0.0
N1006 N 0.87288 0.66402 0.33086 0.0
N1007 N 0.87711 0.59928 0.28591 0.0
H1008 H 0.43931 0.30984 0.22475 0.0
H1009 H 0.34582 0.20265 0.37364 0.0
H1010 H 0.43327 0.35535 0.3108 0.0
H1011 H 0.40513 0.17494 0.31705 0.0
H1012 H 0.37002 0.25592 0.3452 0.0
H1013 H 0.42228 0.25777 0.25375 0.0
C1014 C 0.43574 0.3092 0.24999 0.0
C1015 C 0.43854 0.33702 0.26568 0.0
C1016 C 0.3775 0.23801 0.3389 0.0
C1017 C 0.41683 0.27733 0.29829 0.0
C1018 C 0.36332 0.20749 0.35472 0.0
C1019 C 0.37332 0.18437 0.34739 0.0
C1020 C 0.40125 0.24507 0.31521 0.0
C1021 C 0.3967 0.19214 0.3232 0.0
C1022 C 0.42555 0.27945 0.26639 0.0
C1023 C 0.43217 0.33462 0.29811 0.0
N1024 N 0.40975 0.22177 0.30777 0.0
N1025 N 0.42097 0.30507 0.31327 0.0
H1026 H 0.81688 0.23996 0.36157 0.0
H1027 H 0.72079 0.0879 0.24278 0.0
H1028 H 0.85295 0.17435 0.3332 0.0
H1029 H 0.67246 0.13368 0.29106 0.0
H1030 H 0.7738 0.12828 0.26659 0.0
H1031 H 0.76821 0.20909 0.3279 0.0
C1032 C 0.81475 0.21919 0.34811 0.0
C1033 C 0.83902 0.20954 0.35049 0.0
C1034 C 0.7518 0.12993 0.27163 0.0
C1035 C 0.78328 0.17433 0.31163 0.0
C1036 C 0.72165 0.10714 0.25784 0.0
C1037 C 0.69244 0.1077 0.26501 0.0
C1038 C 0.75274 0.15336 0.29298 0.0
C1039 C 0.69461 0.13277 0.28479 0.0
C1040 C 0.78687 0.2016 0.32891 0.0
C1041 C 0.8348 0.1825 0.33235 0.0
N1042 N 0.72431 0.15451 0.29845 0.0
N1043 N 0.80742 0.1658 0.31374 0.0
H1044 H 0.11142 0.76244 0.47083 0.0
H1045 H 0.04333 0.60849 0.35523 0.0
H1046 H 0.03802 0.66323 0.50026 0.0
H1047 H 0.07511 0.70785 0.32158 0.0
H1048 H 0.04828 0.62824 0.4093 0.0
H1049 H 0.10508 0.74286 0.41657 0.0
C1050 C 0.09402 0.73647 0.46586 0.0
C1051 C 0.0753 0.71432 0.49006 0.0
C1052 C 0.05417 0.64567 0.39007 0.0
C1053 C 0.06819 0.69186 0.42813 0.0
C1054 C 0.05166 0.63456 0.35923 0.0
C1055 C 0.05906 0.65667 0.33389 0.0
C1056 C 0.06469 0.67925 0.39566 0.0
C1057 C 0.06926 0.69003 0.34044 0.0
C1058 C 0.09031 0.72543 0.43489 0.0
C1059 C 0.05288 0.68108 0.48227 0.0
N1060 N 0.07203 0.7004 0.37077 0.0
N1061 N 0.05017 0.67073 0.45193 0.0
H1062 H 0.37655 0.41126 0.50527 0.0
H1063 H 0.3445 0.34369 0.32975 0.0
H1064 H 0.27845 0.35956 0.46366 0.0
H1065 H 0.42712 0.44045 0.35331 0.0
H1066 H 0.32558 0.33677 0.38471 0.0
H1067 H 0.40058 0.41086 0.45387 0.0
C1068 C 0.3602 0.40001 0.48525 0.0
C1069 C 0.32566 0.38602 0.48824 0.0
C1070 C 0.34819 0.35917 0.37779 0.0
C1071 C 0.35256 0.38421 0.43058 0.0
C1072 C 0.35904 0.363 0.34673 0.0
C1073 C 0.38703 0.39281 0.33736 0.0
C1074 C 0.36599 0.38505 0.3993 0.0
C1075 C 0.40513 0.41731 0.35989 0.0
C1076 C 0.37382 0.3996 0.45622 0.0
C1077 C 0.3053 0.37127 0.46194 0.0
N1078 N 0.3942 0.41297 0.39 0.0
N1079 N 0.31908 0.37056 0.43408 0.0
H1080 H 0.67511 0.00398 0.49172 0.0
H1081 H 0.55948 0.94199 0.34032 0.0
H1082 H 0.59509 0.90255 0.48175 0.0
H1083 H 0.66472 0.01245 0.33291 0.0
H1084 H 0.56713 0.93401 0.39602 0.0
H1085 H 0.66606 0.01481 0.43686 0.0
C1086 C 0.65524 0.98427 0.47816 0.0
C1087 C 0.63573 0.95238 0.49104 0.0
C1088 C 0.58851 0.95116 0.38214 0.0
C1089 C 0.62537 0.96449 0.42901 0.0
C1090 C 0.58421 0.95571 0.35046 0.0
C1091 C 0.6116 0.9777 0.33209 0.0
C1092 C 0.62025 0.9693 0.39565 0.0
C1093 C 0.6431 0.99496 0.3463 0.0
C1094 C 0.65037 0.99033 0.44693 0.0
C1095 C 0.61064 0.92745 0.47252 0.0
N1096 N 0.64658 0.99061 0.37746 0.0
N1097 N 0.60607 0.93406 0.44241 0.0
H1098 H 0.75628 0.11035 0.01386 0.0
H1099 H 0.60193 0.02495 0.12845 0.0
H1100 H 0.65923 0.03437 0.98173 0.0
H1101 H 0.70286 0.06437 0.16157 0.0
H1102 H 0.62187 0.03236 0.07429 0.0
H1103 H 0.73649 0.09831 0.06804 0.0
C1104 C 0.73069 0.09125 0.01821 0.0
C1105 C 0.70918 0.07352 -0.00671 0.0
C1106 C 0.6396 0.03918 0.0934 0.0
C1107 C 0.68658 0.05965 0.05519 0.0
C1108 C 0.62834 0.03521 0.12427 0.0
C1109 C 0.65091 0.0444 0.14943 0.0
C1110 C 0.67373 0.05297 0.08765 0.0
C1111 C 0.68472 0.05708 0.14278 0.0
C1112 C 0.71958 0.08421 0.04914 0.0
C1113 C 0.67651 0.04868 0.00029 0.0
N1114 N 0.69522 0.06138 0.1124 0.0
N1115 N 0.66605 0.04266 0.0307 0.0
H1116 H 0.01409 0.67099 0.15892 0.0
H1117 H 0.9013 0.60236 0.00714 0.0
H1118 H 0.94305 0.56642 0.1476 0.0
H1119 H 0.00297 0.68283 0.0007 0.0
H1120 H 0.91157 0.59247 0.06156 0.0
H1121 H 0.00537 0.68016 0.10353 0.0
C1122 C 0.99636 0.65011 0.14487 0.0
C1123 C 0.97908 0.61795 0.15772 0.0
C1124 C 0.93167 0.6121 0.04812 0.0
C1125 C 0.9691 0.62822 0.09493 0.0
C1126 C 0.92586 0.61775 0.01718 0.0
C1127 C 0.95143 0.64331 -0.00047 0.0
C1128 C 0.96298 0.63273 0.06171 0.0
C1129 C 0.98278 0.66265 0.01355 0.0
C1130 C 0.99171 0.65528 0.11332 0.0
C1131 C 0.95681 0.59159 0.1385 0.0
N1132 N 0.98761 0.65725 0.04409 0.0
N1133 N 0.95223 0.59734 0.10808 0.0
H1134 H 0.34101 0.35605 0.15454 0.0
H1135 H 0.41086 0.33311 -0.00815 0.0
H1136 H 0.44523 0.39551 0.13323 0.0
H1137 H 0.30857 0.30908 0.00246 0.0
H1138 H 0.42309 0.35734 0.04384 0.0
H1139 H 0.32758 0.33987 0.09916 0.0
C1140 C 0.36102 0.36139 0.13824 0.0
C1141 C 0.39422 0.37649 0.14856 0.0
C1142 C 0.39794 0.34697 0.0349 0.0
C1143 C 0.37911 0.35841 0.08567 0.0
C1144 C 0.39089 0.33294 0.00519 0.0
C1145 C 0.3585 0.31861 -0.00695 0.0
C1146 C 0.37237 0.34635 0.05297 0.0
C1147 C 0.33378 0.31962 0.01118 0.0
C1148 C 0.35335 0.35229 0.10671 0.0
C1149 C 0.41923 0.3833 0.12648 0.0
N1150 N 0.34114 0.33296 0.04058 0.0
N1151 N 0.4111 0.374 0.09618 0.0
H1152 H 0.95461 0.32313 0.66981 0.0
H1153 H 0.97534 0.37242 0.48779 0.0
H1154 H 0.97903 0.42094 0.63702 0.0
H1155 H 0.91235 0.27165 0.52061 0.0
H1156 H 0.98513 0.39136 0.54273 0.0
H1157 H 0.94661 0.30417 0.61495 0.0
C1158 C 0.95816 0.34053 0.65113 0.0
C1159 C 0.96715 0.37352 0.65796 0.0
C1160 C 0.96917 0.36512 0.53777 0.0
C1161 C 0.95875 0.3523 0.59548 0.0
C1162 C 0.96369 0.35433 0.50652 0.0
C1163 C 0.94278 0.32052 0.4997 0.0
C1164 C 0.95411 0.3418 0.5622 0.0
C1165 C 0.92833 0.29804 0.52484 0.0
C1166 C 0.95361 0.32973 0.61991 0.0
C1167 C 0.97167 0.39515 0.63284 0.0
N1168 N 0.93436 0.30906 0.55499 0.0
N1169 N 0.96759 0.3842 0.6027 0.0
H1170 H 0.60965 0.56095 0.63586 0.0
H1171 H 0.7588 0.65789 0.51728 0.0
H1172 H 0.70328 0.64409 0.66679 0.0
H1173 H 0.65566 0.61149 0.4888 0.0
H1174 H 0.74116 0.64748 0.57236 0.0
H1175 H 0.6289 0.57296 0.5818 0.0
C1176 C 0.63447 0.58157 0.63135 0.0
C1177 C 0.65501 0.60154 0.65593 0.0
C1178 C 0.72249 0.63973 0.55401 0.0
C1179 C 0.67694 0.61539 0.5939 0.0
C1180 C 0.73242 0.64542 0.52266 0.0
C1181 C 0.70853 0.63527 0.49856 0.0
C1182 C 0.68847 0.62326 0.56116 0.0
C1183 C 0.67479 0.61965 0.50671 0.0
C1184 C 0.64524 0.58854 0.60041 0.0
C1185 C 0.68673 0.6281 0.64852 0.0
N1186 N 0.66571 0.61381 0.53743 0.0
N1187 N 0.69687 0.63422 0.61801 0.0
H1188 H 0.45349 0.04422 0.63313 0.0
H1189 H 0.38529 0.12733 0.51412 0.0
H1190 H 0.38709 0.07903 0.6624 0.0
H1191 H 0.40783 0.0518 0.48452 0.0
H1192 H 0.39416 0.11733 0.56869 0.0
H1193 H 0.44494 0.05418 0.57836 0.0
C1194 C 0.43727 0.05419 0.62801 0.0
C1195 C 0.42108 0.06104 0.65225 0.0
C1196 C 0.39718 0.103 0.55023 0.0
C1197 C 0.41138 0.07245 0.58985 0.0
C1198 C 0.39244 0.10884 0.51909 0.0
C1199 C 0.39605 0.09044 0.4948 0.0
C1200 C 0.4061 0.07899 0.55709 0.0
C1201 C 0.40486 0.06651 0.5026 0.0
C1202 C 0.43227 0.05959 0.59679 0.0
C1203 C 0.40002 0.07347 0.64435 0.0
N1204 N 0.40982 0.06158 0.5332 0.0
N1205 N 0.39595 0.07905 0.6137 0.0
H1206 H 0.42057 0.99333 0.84901 0.0
H1207 H 0.2677 0.92465 0.96486 0.0
H1208 H 0.32298 0.97065 0.81698 0.0
H1209 H 0.36887 0.98787 -0.00339 0.0
H1210 H 0.28681 0.93703 0.91042 0.0
H1211 H 0.40142 0.98693 0.90325 0.0
C1212 C 0.39499 0.98682 0.85342 0.0
C1213 C 0.37313 0.98211 0.8285 0.0
C1214 C 0.30476 0.94836 0.9293 0.0
C1215 C 0.35123 0.97488 0.89052 0.0
C1216 C 0.29398 0.94115 0.96033 0.0
C1217 C 0.31689 0.95501 0.98519 0.0
C1218 C 0.33874 0.9691 0.9231 0.0
C1219 C 0.3505 0.9766 0.97807 0.0
C1220 C 0.38424 0.98351 0.88438 0.0
C1221 C 0.34051 0.97431 0.83556 0.0
N1222 N 0.36053 0.98269 0.94756 0.0
N1223 N 0.33037 0.97055 0.86605 0.0
H1224 H 0.13945 0.42803 0.97826 0.0
H1225 H 0.01903 0.36261 0.83163 0.0
H1226 H 0.03395 0.3611 0.99008 0.0
H1227 H 0.09594 0.46583 0.83758 0.0
H1228 H 0.03013 0.3549 0.88671 0.0
H1229 H 0.12942 0.43638 0.92309 0.0
C1230 C 0.1142 0.41528 0.96923 0.0
C1231 C 0.08741 0.39406 0.98862 0.0
C1232 C 0.04464 0.37912 0.87575 0.0
C1233 C 0.07607 0.40262 0.92581 0.0
C1234 C 0.03859 0.38345 0.84441 0.0
C1235 C 0.05669 0.41486 0.83025 0.0
C1236 C 0.06949 0.4062 0.89257 0.0
C1237 C 0.08146 0.44125 0.84781 0.0
C1238 C 0.10855 0.42003 0.93791 0.0
C1239 C 0.05517 0.37795 0.97589 0.0
N1240 N 0.08734 0.43628 0.8781 0.0
N1241 N 0.05039 0.38223 0.94506 0.0
H1242 H 0.56417 0.60041 0.84251 0.0
H1243 H 0.6452 0.75255 0.96042 0.0
H1244 H 0.6444 0.69672 0.81347 0.0
H1245 H 0.60315 0.65038 0.99069 0.0
H1246 H 0.6383 0.73412 0.90559 0.0
H1247 H 0.57115 0.62034 0.89637 0.0
C1248 C 0.58312 0.6259 0.84742 0.0
C1249 C 0.60371 0.64707 0.82349 0.0
C1250 C 0.63065 0.71585 0.9243 0.0
C1251 C 0.61175 0.66982 0.88514 0.0
C1252 C 0.6343 0.72622 0.95549 0.0
C1253 C 0.62455 0.70284 0.98 0.0
C1254 C 0.61664 0.68188 0.91773 0.0
C1255 C 0.61098 0.66915 0.97245 0.0
C1256 C 0.5872 0.63711 0.87822 0.0
C1257 C 0.62807 0.67968 0.8313 0.0
N1258 N 0.6072 0.65962 0.94187 0.0
N1259 N 0.63135 0.69021 0.86161 0.0
H1260 H 0.70856 0.92978 0.68184 0.0
H1261 H 0.7927 0.08196 0.80009 0.0
H1262 H 0.74232 0.03111 0.65326 0.0
H1263 H 0.71808 0.98386 0.83127 0.0
H1264 H 0.78273 0.06229 0.74592 0.0
H1265 H 0.71994 0.94812 0.73676 0.0
C1266 C 0.71864 0.95593 0.68712 0.0
C1267 C 0.72466 0.97906 0.66304 0.0
C1268 C 0.76861 0.04506 0.76463 0.0
C1269 C 0.73774 0.99998 0.72548 0.0
C1270 C 0.7744 0.05615 0.79558 0.0
C1271 C 0.75619 0.03444 0.82024 0.0
C1272 C 0.74478 0.01192 0.75823 0.0
C1273 C 0.73259 0.00137 0.81292 0.0
C1274 C 0.72486 0.96625 0.7184 0.0
C1275 C 0.73732 0.01252 0.67114 0.0
N1276 N 0.72763 0.99101 0.78246 0.0
N1277 N 0.74367 0.02204 0.70173 0.0
H1278 H 0.01246 0.70034 0.66471 0.0
H1279 H 0.96297 0.76294 0.8164 0.0
H1280 H 0.04161 0.80395 0.67424 0.0
H1281 H 0.00314 0.69712 0.82425 0.0
H1282 H 0.97915 0.77196 0.76065 0.0
H1283 H 0.99487 0.69143 0.72019 0.0
C1284 C 0.01451 0.72099 0.67835 0.0
C1285 C 0.02835 0.75287 0.66513 0.0
C1286 C 0.98447 0.75568 0.77473 0.0
C1287 C 0.00833 0.74288 0.72783 0.0
C1288 C 0.97535 0.75057 0.80637 0.0
C1289 C 0.98204 0.72948 0.82479 0.0
C1290 C -0.00068 0.73872 0.76136 0.0
C1291 C 0.99795 0.71385 0.8108 0.0
C1292 C 0.00486 0.71598 0.7099 0.0
C1293 C 0.03105 0.77902 0.68376 0.0
N1294 N 0.00571 0.71844 0.77968 0.0
N1295 N 0.02089 0.77341 0.71422 0.0
H1296 H 0.21739 0.27379 0.66923 0.0
H1297 H 0.34697 0.31418 0.80584 0.0
H1298 H 0.32317 0.31972 0.65221 0.0
H1299 H 0.24763 0.22904 0.81146 0.0
H1300 H 0.33722 0.32109 0.75059 0.0
H1301 H 0.22638 0.26079 0.72306 0.0
C1302 C 0.24241 0.28089 0.67677 0.0
C1303 C 0.26962 0.29788 0.65642 0.0
C1304 C 0.31765 0.30079 0.7639 0.0
C1305 C 0.27996 0.28358 0.7175 0.0
C1306 C 0.32309 0.297 0.79539 0.0
C1307 C 0.29797 0.27112 0.81307 0.0
C1308 C 0.28671 0.27892 0.75028 0.0
C1309 C 0.26759 0.24928 0.79847 0.0
C1310 C 0.24747 0.27337 0.70731 0.0
C1311 C 0.30152 0.30648 0.66717 0.0
N1312 N 0.26262 0.25389 0.76782 0.0
N1313 N 0.30588 0.29957 0.69719 0.0
H1314 H 0.05327 0.27208 0.17415 0.0
H1315 H 0.99786 0.3399 0.31831 0.0
H1316 H 0.02237 0.34474 0.15998 0.0
H1317 H 0.96884 0.23613 0.3109 0.0
H1318 H 0.01804 0.34827 0.26358 0.0
H1319 H 0.03265 0.26408 0.22837 0.0
C1320 C 0.04196 0.28617 0.18247 0.0
C1321 C 0.03914 0.30884 0.16269 0.0
C1322 C 0.00729 0.32376 0.27413 0.0
C1323 C 0.0166 0.30058 0.2245 0.0
C1324 C 0.99611 0.31907 0.30524 0.0
C1325 C 0.98178 0.28733 0.31888 0.0
C1326 C 0.00481 0.2967 0.25717 0.0
C1327 C 0.97965 0.26095 0.30106 0.0
C1328 C 0.03027 0.28162 0.21327 0.0
C1329 C 0.02451 0.32669 0.17451 0.0
N1330 N 0.99132 0.26627 0.27113 0.0
N1331 N 0.01406 0.32247 0.20491 0.0
H1332 H 0.68728 0.71078 0.33074 0.0
H1333 H 0.70589 0.68779 0.1473 0.0
H1334 H 0.75948 0.68679 0.29411 0.0
H1335 H 0.67609 0.75583 0.18336 0.0
H1336 H 0.7145 0.67532 0.20163 0.0
H1337 H 0.67168 0.71568 0.27659 0.0
C1338 C 0.69968 0.7064 0.31132 0.0
C1339 C 0.72498 0.69886 0.31674 0.0
C1340 C 0.70592 0.69284 0.19748 0.0
C1341 C 0.70698 0.70378 0.25528 0.0
C1342 C 0.70095 0.69985 0.16665 0.0
C1343 C 0.69073 0.72315 0.16102 0.0
C1344 C 0.6999 0.70874 0.2226 0.0
C1345 C 0.68451 0.73809 0.18679 0.0
C1346 C 0.69084 0.70923 0.28056 0.0
C1347 C 0.74021 0.69322 0.29083 0.0
N1348 N 0.68916 0.73059 0.21653 0.0
N1349 N 0.73093 0.69574 0.26114 0.0
H1350 H 0.31758 0.08816 0.30233 0.0
H1351 H 0.25291 0.93382 0.18879 0.0
H1352 H 0.29587 0.99168 0.33685 0.0
H1353 H 0.31776 0.03472 0.15721 0.0
H1354 H 0.26258 0.95341 0.24325 0.0
H1355 H 0.31103 0.06765 0.24864 0.0
C1356 C 0.31111 0.06251 0.29861 0.0
C1357 C 0.30697 0.04142 0.32402 0.0
C1358 C 0.27483 0.97116 0.22438 0.0
C1359 C 0.29971 0.01804 0.2627 0.0
C1360 C 0.2692 0.96011 0.19339 0.0
C1361 C 0.28436 0.98284 0.16862 0.0
C1362 C 0.29523 0.00519 0.23045 0.0
C1363 C 0.30558 0.01648 0.17571 0.0
C1364 C 0.30774 0.051 0.26796 0.0
C1365 C 0.29914 0.00864 0.31784 0.0
N1366 N 0.31011 0.02676 0.20609 0.0
N1367 N 0.29549 0.99779 0.28765 0.0
loop_
_geom_bond_atom_site_label_1
_geom_bond_atom_site_label_2
_geom_bond_distance
_geom_bond_site_symmetry_2
_ccdc_geom_bond_type
Fe0 O2 1.918 . S
Fe0 O5 1.997 . S
Fe0 O6 2.002 . S
Fe0 O11 1.976 . S
Fe0 O14 1.996 . S
Fe1 O2 1.918 . S
Fe1 O9 1.997 . S
Fe1 O12 1.996 . S
Fe1 O16 1.976 1_455 S
Fe1 O19 2.002 1_455 S
O2 Fe0 1.918 . S
O2 Fe1 1.918 . S
O2 Fe3 1.918 1_455 S
Fe3 O2 1.918 1_655 S
Fe3 O4 2.002 . S
Fe3 O13 1.976 1_655 S
Fe3 O17 1.996 . S
Fe3 O20 1.997 . S
O4 Fe3 2.002 . S
O4 C21 1.295 . S
O5 Fe0 1.997 . S
O5 C21 1.235 1_455 S
O6 Fe0 2.002 . S
O6 C7 1.295 . S
C7 O6 1.295 . S
C7 O9 1.235 . S
C8 O13 1.287 . S
C8 O14 1.255 . S
O9 Fe1 1.997 . S
O9 C7 1.235 . S
C10 O16 1.287 . S
C10 O17 1.255 . S
O11 Fe0 1.976 . S
O11 C18 1.287 . S
O12 Fe1 1.996 . S
O12 C18 1.255 . S
O13 Fe3 1.976 1_455 S
O13 C8 1.287 . S
O14 Fe0 1.996 . S
O14 C8 1.255 . S
C15 O19 1.295 . S
C15 O20 1.235 . S
O16 Fe1 1.976 1_655 S
O16 C10 1.287 . S
O17 Fe3 1.996 . S
O17 C10 1.255 . S
C18 O11 1.287 . S
C18 O12 1.255 . S
O19 Fe1 2.002 1_655 S
O19 C15 1.295 . S
O20 Fe3 1.997 . S
O20 C15 1.235 . S
C21 O4 1.295 . S
C21 O5 1.235 1_655 S
Fe22 O24 1.918 . S
Fe22 O27 1.997 . S
Fe22 O28 2.002 . S
Fe22 O33 1.976 . S
Fe22 O36 1.996 . S
Fe23 O24 1.918 . S
Fe23 O31 1.997 . S
Fe23 O34 1.996 . S
Fe23 O38 1.976 . S
Fe23 O41 2.002 . S
O24 Fe22 1.918 . S
O24 Fe23 1.918 . S
O24 Fe25 1.918 . S
Fe25 O24 1.918 . S
Fe25 O26 2.002 . S
Fe25 O35 1.976 . S
Fe25 O39 1.996 . S
Fe25 O42 1.997 . S
O26 Fe25 2.002 . S
O26 C43 1.295 . S
O27 Fe22 1.997 . S
O27 C43 1.235 . S
O28 Fe22 2.002 . S
O28 C29 1.295 . S
C29 O28 1.295 . S
C29 O31 1.235 . S
C30 O35 1.287 . S
C30 O36 1.255 . S
O31 Fe23 1.997 . S
O31 C29 1.235 . S
C32 O38 1.287 . S
C32 O39 1.255 . S
O33 Fe22 1.976 . S
O33 C40 1.287 . S
O34 Fe23 1.996 . S
O34 C40 1.255 . S
O35 Fe25 1.976 . S
O35 C30 1.287 . S
O36 Fe22 1.996 . S
O36 C30 1.255 . S
C37 O41 1.295 . S
C37 O42 1.235 . S
O38 Fe23 1.976 . S
O38 C32 1.287 . S
O39 Fe25 1.996 . S
O39 C32 1.255 . S
C40 O33 1.287 . S
C40 O34 1.255 . S
O41 Fe23 2.002 . S
O41 C37 1.295 . S
O42 Fe25 1.997 . S
O42 C37 1.235 . S
C43 O26 1.295 . S
C43 O27 1.235 . S
Fe44 O46 1.918 . S
Fe44 O49 1.997 . S
Fe44 O50 2.002 . S
Fe44 O55 1.976 . S
Fe44 O58 1.996 . S
Fe45 O46 1.918 1_565 S
Fe45 O53 2.012 . S
Fe45 O56 1.996 . S
Fe45 O60 1.976 . S
Fe45 O63 2.002 . S
O46 Fe44 1.918 . S
O46 Fe45 1.918 1_545 S
O46 Fe47 1.918 . S
Fe47 O46 1.918 . S
Fe47 O48 2.002 . S
Fe47 O57 1.976 . S
Fe47 O61 1.996 1_545 S
Fe47 O64 1.997 1_545 S
O48 Fe47 2.002 . S
O48 C65 1.295 . S
O49 Fe44 1.997 . S
O49 C65 1.235 . S
O50 Fe44 2.002 . S
O50 C51 1.295 . S
C51 O50 1.295 . S
C51 O53 1.217 1_545 S
C52 O57 1.287 . S
C52 O58 1.255 . S
O53 Fe45 2.012 . S
O53 C51 1.217 1_565 S
C54 O60 1.287 . S
C54 O61 1.255 . S
O55 Fe44 1.976 . S
O55 C62 1.287 1_545 S
O56 Fe45 1.996 . S
O56 C62 1.255 . S
O57 Fe47 1.976 . S
O57 C52 1.287 . S
O58 Fe44 1.996 . S
O58 C52 1.255 . S
C59 O63 1.295 . S
C59 O64 1.235 . S
O60 Fe45 1.976 . S
O60 C54 1.287 . S
O61 Fe47 1.996 1_565 S
O61 C54 1.255 . S
C62 O55 1.287 1_565 S
C62 O56 1.255 . S
O63 Fe45 2.002 . S
O63 C59 1.295 . S
O64 Fe47 1.997 1_565 S
O64 C59 1.235 . S
C65 O48 1.295 . S
C65 O49 1.235 . S
Fe66 O68 1.918 . S
Fe66 O71 1.997 . S
Fe66 O72 2.002 . S
Fe66 O77 1.976 . S
Fe66 O80 1.996 . S
Fe67 O68 1.918 1_655 S
Fe67 O75 1.993 1_655 S
Fe67 O78 1.996 . S
Fe67 O82 1.976 . S
Fe67 O85 2.002 . S
O68 Fe66 1.918 . S
O68 Fe67 1.918 1_455 S
O68 Fe69 1.918 . S
Fe69 O68 1.918 . S
Fe69 O70 2.002 . S
Fe69 O79 1.976 . S
Fe69 O83 1.996 1_455 S
Fe69 O86 1.997 1_455 S
O70 Fe69 2.002 . S
O70 C87 1.295 . S
O71 Fe66 1.997 . S
O71 C87 1.235 . S
O72 Fe66 2.002 . S
O72 C73 1.295 . S
C73 O72 1.295 . S
C73 O75 1.249 . S
C74 O79 1.287 . S
C74 O80 1.255 . S
O75 Fe67 1.993 1_455 S
O75 C73 1.249 . S
C76 O82 1.287 . S
C76 O83 1.255 . S
O77 Fe66 1.976 . S
O77 C84 1.287 1_455 S
O78 Fe67 1.996 . S
O78 C84 1.255 . S
O79 Fe69 1.976 . S
O79 C74 1.287 . S
O80 Fe66 1.996 . S
O80 C74 1.255 . S
C81 O85 1.295 . S
C81 O86 1.235 . S
O82 Fe67 1.976 . S
O82 C76 1.287 . S
O83 Fe69 1.996 1_655 S
O83 C76 1.255 . S
C84 O77 1.287 1_655 S
C84 O78 1.255 . S
O85 Fe67 2.002 . S
O85 C81 1.295 . S
O86 Fe69 1.997 1_655 S
O86 C81 1.235 . S
C87 O70 1.295 . S
C87 O71 1.235 . S
Fe88 O90 1.918 . S
Fe88 O93 1.997 . S
Fe88 O94 2.002 . S
Fe88 O99 1.976 . S
Fe88 O102 1.996 . S
Fe89 O90 1.918 . S
Fe89 O97 1.997 . S
Fe89 O100 1.996 . S
Fe89 O104 1.976 . S
Fe89 O107 2.002 . S
O90 Fe88 1.918 . S
O90 Fe89 1.918 . S
O90 Fe91 1.918 . S
Fe91 O90 1.918 . S
Fe91 O92 2.002 . S
Fe91 O101 1.976 . S
Fe91 O105 1.996 . S
Fe91 O108 1.997 . S
O92 Fe91 2.002 . S
O92 C109 1.295 . S
O93 Fe88 1.997 . S
O93 C109 1.235 . S
O94 Fe88 2.002 . S
O94 C95 1.295 . S
C95 O94 1.295 . S
C95 O97 1.235 . S
C96 O101 1.287 . S
C96 O102 1.255 . S
O97 Fe89 1.997 . S
O97 C95 1.235 . S
C98 O104 1.287 . S
C98 O105 1.255 . S
O99 Fe88 1.976 . S
O99 C106 1.287 . S
O100 Fe89 1.996 . S
O100 C106 1.255 . S
O101 Fe91 1.976 . S
O101 C96 1.287 . S
O102 Fe88 1.996 . S
O102 C96 1.255 . S
C103 O107 1.295 . S
C103 O108 1.235 . S
O104 Fe89 1.976 . S
O104 C98 1.287 . S
O105 Fe91 1.996 . S
O105 C98 1.255 . S
C106 O99 1.287 . S
C106 O100 1.255 . S
O107 Fe89 2.002 . S
O107 C103 1.295 . S
O108 Fe91 1.997 . S
O108 C103 1.235 . S
C109 O92 1.295 . S
C109 O93 1.235 . S
Fe110 O112 1.918 . S
Fe110 O115 1.997 . S
Fe110 O116 2.002 . S
Fe110 O121 1.976 . S
Fe110 O124 1.996 . S
Fe111 O112 1.918 . S
Fe111 O119 1.997 . S
Fe111 O122 1.996 . S
Fe111 O126 1.976 1_545 S
Fe111 O129 2.002 1_545 S
O112 Fe110 1.918 . S
O112 Fe111 1.918 . S
O112 Fe113 1.918 1_545 S
Fe113 O112 1.918 1_565 S
Fe113 O114 2.002 . S
Fe113 O123 1.972 1_565 S
Fe113 O127 1.996 . S
Fe113 O130 1.997 . S
O114 Fe113 2.002 . S
O114 C131 1.295 . S
O115 Fe110 1.997 . S
O115 C131 1.235 1_545 S
O116 Fe110 2.002 . S
O116 C117 1.295 . S
C117 O116 1.295 . S
C117 O119 1.235 . S
C118 O123 1.302 . S
C118 O124 1.255 . S
O119 Fe111 1.997 . S
O119 C117 1.235 . S
C120 O126 1.287 . S
C120 O127 1.255 . S
O121 Fe110 1.976 . S
O121 C128 1.287 . S
O122 Fe111 1.996 . S
O122 C128 1.255 . S
O123 Fe113 1.972 1_545 S
O123 C118 1.302 . S
O124 Fe110 1.996 . S
O124 C118 1.255 . S
C125 O129 1.295 . S
C125 O130 1.235 . S
O126 Fe111 1.976 1_565 S
O126 C120 1.287 . S
O127 Fe113 1.996 . S
O127 C120 1.255 . S
C128 O121 1.287 . S
C128 O122 1.255 . S
O129 Fe111 2.002 1_565 S
O129 C125 1.295 . S
O130 Fe113 1.997 . S
O130 C125 1.235 . S
C131 O114 1.295 . S
C131 O115 1.235 1_565 S
Fe132 O134 1.918 . S
Fe132 O137 1.997 . S
Fe132 O138 2.002 . S
Fe132 O143 1.976 . S
Fe132 O146 1.996 . S
Fe133 O134 1.918 . S
Fe133 O141 1.997 . S
Fe133 O144 1.996 1_565 S
Fe133 O148 1.976 . S
Fe133 O151 2.002 . S
O134 Fe132 1.918 . S
O134 Fe133 1.918 . S
O134 Fe135 1.918 . S
Fe135 O134 1.918 . S
Fe135 O136 2.002 . S
Fe135 O145 1.976 . S
Fe135 O149 1.996 . S
Fe135 O152 1.997 . S
O136 Fe135 2.002 . S
O136 C153 1.295 . S
O137 Fe132 1.997 . S
O137 C153 1.235 . S
O138 Fe132 2.002 . S
O138 C139 1.295 . S
C139 O138 1.295 . S
C139 O141 1.235 . S
C140 O145 1.287 . S
C140 O146 1.255 . S
O141 Fe133 1.997 . S
O141 C139 1.235 . S
C142 O148 1.287 . S
C142 O149 1.255 . S
O143 Fe132 1.976 . S
O143 C150 1.287 . S
O144 Fe133 1.996 1_545 S
O144 C150 1.255 1_545 S
O145 Fe135 1.976 . S
O145 C140 1.287 . S
O146 Fe132 1.996 . S
O146 C140 1.255 . S
C147 O151 1.295 . S
C147 O152 1.235 . S
O148 Fe133 1.976 . S
O148 C142 1.287 . S
O149 Fe135 1.996 . S
O149 C142 1.255 . S
C150 O143 1.287 . S
C150 O144 1.255 1_565 S
O151 Fe133 2.002 . S
O151 C147 1.295 . S
O152 Fe135 1.997 . S
O152 C147 1.235 . S
C153 O136 1.295 . S
C153 O137 1.235 . S
Fe154 O156 1.918 . S
Fe154 O159 1.997 . S
Fe154 O160 2.002 . S
Fe154 O165 1.976 . S
Fe154 O168 1.996 . S
Fe155 O156 1.918 . S
Fe155 O163 1.997 . S
Fe155 O166 1.996 . S
Fe155 O170 1.976 . S
Fe155 O173 2.002 . S
O156 Fe154 1.918 . S
O156 Fe155 1.918 . S
O156 Fe157 1.918 . S
Fe157 O156 1.918 . S
Fe157 O158 2.002 . S
Fe157 O167 1.976 . S
Fe157 O171 1.996 . S
Fe157 O174 1.997 . S
O158 Fe157 2.002 . S
O158 C175 1.295 . S
O159 Fe154 1.997 . S
O159 C175 1.235 . S
O160 Fe154 2.002 . S
O160 C161 1.295 . S
C161 O160 1.295 . S
C161 O163 1.235 . S
C162 O167 1.287 . S
C162 O168 1.255 . S
O163 Fe155 1.997 . S
O163 C161 1.235 . S
C164 O170 1.287 . S
C164 O171 1.255 . S
O165 Fe154 1.976 . S
O165 C172 1.287 . S
O166 Fe155 1.996 . S
O166 C172 1.255 . S
O167 Fe157 1.976 . S
O167 C162 1.287 . S
O168 Fe154 1.996 . S
O168 C162 1.255 . S
C169 O173 1.295 . S
C169 O174 1.235 . S
O170 Fe155 1.976 . S
O170 C164 1.287 . S
O171 Fe157 1.996 . S
O171 C164 1.255 . S
C172 O165 1.287 . S
C172 O166 1.255 . S
O173 Fe155 2.002 . S
O173 C169 1.295 . S
O174 Fe157 1.997 . S
O174 C169 1.235 . S
C175 O158 1.295 . S
C175 O159 1.235 . S
Fe176 O178 1.918 . S
Fe176 O181 1.997 . S
Fe176 O182 2.002 . S
Fe176 O187 1.976 . S
Fe176 O190 1.996 . S
Fe177 O178 1.918 . S
Fe177 O185 1.997 . S
Fe177 O188 1.996 . S
Fe177 O192 1.976 . S
Fe177 O195 2.002 . S
O178 Fe176 1.918 . S
O178 Fe177 1.918 . S
O178 Fe179 1.918 . S
Fe179 O178 1.918 . S
Fe179 O180 2.002 . S
Fe179 O189 1.976 . S
Fe179 O193 1.996 . S
Fe179 O196 1.997 . S
O180 Fe179 2.002 . S
O180 C197 1.295 . S
O181 Fe176 1.997 . S
O181 C197 1.235 . S
O182 Fe176 2.002 . S
O182 C183 1.295 . S
C183 O182 1.295 . S
C183 O185 1.235 . S
C184 O189 1.287 . S
C184 O190 1.255 . S
O185 Fe177 1.997 . S
O185 C183 1.235 . S
C186 O192 1.287 . S
C186 O193 1.255 . S
O187 Fe176 1.976 . S
O187 C194 1.287 . S
O188 Fe177 1.996 . S
O188 C194 1.255 . S
O189 Fe179 1.976 . S
O189 C184 1.287 . S
O190 Fe176 1.996 . S
O190 C184 1.255 . S
C191 O195 1.295 . S
C191 O196 1.235 . S
O192 Fe177 1.976 . S
O192 C186 1.287 . S
O193 Fe179 1.996 . S
O193 C186 1.255 . S
C194 O187 1.287 . S
C194 O188 1.255 . S
O195 Fe177 2.002 . S
O195 C191 1.295 . S
O196 Fe179 1.997 . S
O196 C191 1.235 . S
C197 O180 1.295 . S
C197 O181 1.235 . S
Fe198 O200 1.918 . S
Fe198 O203 1.997 . S
Fe198 O204 2.002 . S
Fe198 O209 1.976 . S
Fe198 O212 1.996 . S
Fe199 O200 1.918 . S
Fe199 O207 1.997 . S
Fe199 O210 1.996 . S
Fe199 O214 1.976 . S
Fe199 O217 2.002 . S
O200 Fe198 1.918 . S
O200 Fe199 1.918 . S
O200 Fe201 1.918 . S
Fe201 O200 1.918 . S
Fe201 O202 2.002 . S
Fe201 O211 1.976 . S
Fe201 O215 1.996 . S
Fe201 O218 1.997 . S
O202 Fe201 2.002 . S
O202 C219 1.295 . S
O203 Fe198 1.997 . S
O203 C219 1.235 . S
O204 Fe198 2.002 . S
O204 C205 1.295 . S
C205 O204 1.295 . S
C205 O207 1.235 . S
C206 O211 1.287 . S
C206 O212 1.255 . S
O207 Fe199 1.997 . S
O207 C205 1.235 . S
C208 O214 1.287 . S
C208 O215 1.255 . S
O209 Fe198 1.976 . S
O209 C216 1.287 . S
O210 Fe199 1.996 . S
O210 C216 1.255 . S
O211 Fe201 1.976 . S
O211 C206 1.287 . S
O212 Fe198 1.996 . S
O212 C206 1.255 . S
C213 O217 1.295 . S
C213 O218 1.235 . S
O214 Fe199 1.976 . S
O214 C208 1.287 . S
O215 Fe201 1.996 . S
O215 C208 1.255 . S
C216 O209 1.287 . S
C216 O210 1.255 . S
O217 Fe199 2.002 . S
O217 C213 1.295 . S
O218 Fe201 1.997 . S
O218 C213 1.235 . S
C219 O202 1.295 . S
C219 O203 1.235 . S
Fe220 O222 1.918 . S
Fe220 O225 1.997 . S
Fe220 O226 2.002 . S
Fe220 O231 1.976 . S
Fe220 O234 1.996 . S
Fe221 O222 1.918 . S
Fe221 O229 1.997 . S
Fe221 O232 1.996 . S
Fe221 O236 1.976 . S
Fe221 O239 2.002 . S
O222 Fe220 1.918 . S
O222 Fe221 1.918 . S
O222 Fe223 1.918 . S
Fe223 O222 1.918 . S
Fe223 O224 2.002 . S
Fe223 O233 1.976 . S
Fe223 O237 1.996 1_565 S
Fe223 O240 1.997 . S
O224 Fe223 2.002 . S
O224 C241 1.295 . S
O225 Fe220 1.997 . S
O225 C241 1.235 . S
O226 Fe220 2.002 . S
O226 C227 1.295 . S
C227 O226 1.295 . S
C227 O229 1.235 . S
C228 O233 1.287 . S
C228 O234 1.255 . S
O229 Fe221 1.997 . S
O229 C227 1.235 . S
C230 O236 1.287 . S
C230 O237 1.255 1_565 S
O231 Fe220 1.976 . S
O231 C238 1.287 . S
O232 Fe221 1.996 . S
O232 C238 1.255 . S
O233 Fe223 1.976 . S
O233 C228 1.287 . S
O234 Fe220 1.996 . S
O234 C228 1.255 . S
C235 O239 1.295 . S
C235 O240 1.235 . S
O236 Fe221 1.976 . S
O236 C230 1.287 . S
O237 Fe223 1.996 1_545 S
O237 C230 1.255 1_545 S
C238 O231 1.287 . S
C238 O232 1.255 . S
O239 Fe221 2.002 . S
O239 C235 1.295 . S
O240 Fe223 1.997 . S
O240 C235 1.235 . S
C241 O224 1.295 . S
C241 O225 1.235 . S
Fe242 O244 1.918 . S
Fe242 O247 1.997 . S
Fe242 O248 2.002 . S
Fe242 O253 1.976 . S
Fe242 O256 1.996 . S
Fe243 O244 1.918 . S
Fe243 O251 1.997 . S
Fe243 O254 1.996 . S
Fe243 O258 1.976 . S
Fe243 O261 2.002 . S
O244 Fe242 1.918 . S
O244 Fe243 1.918 . S
O244 Fe245 1.918 . S
Fe245 O244 1.918 . S
Fe245 O246 2.002 . S
Fe245 O255 1.976 . S
Fe245 O259 1.996 . S
Fe245 O262 1.997 . S
O246 Fe245 2.002 . S
O246 C263 1.295 . S
O247 Fe242 1.997 . S
O247 C263 1.235 . S
O248 Fe242 2.002 . S
O248 C249 1.295 . S
C249 O248 1.295 . S
C249 O251 1.235 . S
C250 O255 1.287 . S
C250 O256 1.255 . S
O251 Fe243 1.997 . S
O251 C249 1.235 . S
C252 O258 1.287 . S
C252 O259 1.255 . S
O253 Fe242 1.976 . S
O253 C260 1.287 . S
O254 Fe243 1.996 . S
O254 C260 1.255 . S
O255 Fe245 1.976 . S
O255 C250 1.287 . S
O256 Fe242 1.996 . S
O256 C250 1.255 . S
C257 O261 1.295 . S
C257 O262 1.235 . S
O258 Fe243 1.976 . S
O258 C252 1.287 . S
O259 Fe245 1.996 . S
O259 C252 1.255 . S
C260 O253 1.287 . S
C260 O254 1.255 . S
O261 Fe243 2.002 . S
O261 C257 1.295 . S
O262 Fe245 1.997 . S
O262 C257 1.235 . S
C263 O246 1.295 . S
C263 O247 1.235 . S
Fe264 O266 1.918 . S
Fe264 O269 1.997 . S
Fe264 O270 2.002 . S
Fe264 O275 1.976 . S
Fe264 O278 1.996 . S
Fe265 O266 1.918 . S
Fe265 O273 1.997 . S
Fe265 O276 1.996 . S
Fe265 O280 1.976 . S
Fe265 O283 2.002 . S
O266 Fe264 1.918 . S
O266 Fe265 1.918 . S
O266 Fe267 1.918 . S
Fe267 O266 1.918 . S
Fe267 O268 2.002 . S
Fe267 O277 1.976 . S
Fe267 O281 1.996 . S
Fe267 O284 1.997 . S
O268 Fe267 2.002 . S
O268 C285 1.295 . S
O269 Fe264 1.997 . S
O269 C285 1.235 . S
O270 Fe264 2.002 . S
O270 C271 1.295 . S
C271 O270 1.295 . S
C271 O273 1.235 . S
C272 O277 1.287 . S
C272 O278 1.255 . S
O273 Fe265 1.997 . S
O273 C271 1.235 . S
C274 O280 1.287 . S
C274 O281 1.255 . S
O275 Fe264 1.976 . S
O275 C282 1.287 . S
O276 Fe265 1.996 . S
O276 C282 1.255 . S
O277 Fe267 1.976 . S
O277 C272 1.287 . S
O278 Fe264 1.996 . S
O278 C272 1.255 . S
C279 O283 1.295 . S
C279 O284 1.235 . S
O280 Fe265 1.976 . S
O280 C274 1.287 . S
O281 Fe267 1.996 . S
O281 C274 1.255 . S
C282 O275 1.287 . S
C282 O276 1.255 . S
O283 Fe265 2.002 . S
O283 C279 1.295 . S
O284 Fe267 1.997 . S
O284 C279 1.235 . S
C285 O268 1.295 . S
C285 O269 1.235 . S
Fe286 O288 1.918 . S
Fe286 O291 1.997 . S
Fe286 O292 2.002 . S
Fe286 O297 1.976 . S
Fe286 O300 1.996 . S
Fe287 O288 1.918 . S
Fe287 O295 1.997 . S
Fe287 O298 1.996 . S
Fe287 O302 1.976 . S
Fe287 O305 2.002 . S
O288 Fe286 1.918 . S
O288 Fe287 1.918 . S
O288 Fe289 1.918 . S
Fe289 O288 1.918 . S
Fe289 O290 2.002 . S
Fe289 O299 1.976 . S
Fe289 O303 1.996 . S
Fe289 O306 1.997 . S
O290 Fe289 2.002 . S
O290 C307 1.295 . S
O291 Fe286 1.997 . S
O291 C307 1.235 . S
O292 Fe286 2.002 . S
O292 C293 1.295 . S
C293 O292 1.295 . S
C293 O295 1.235 . S
C294 O299 1.287 . S
C294 O300 1.255 . S
O295 Fe287 1.997 . S
O295 C293 1.235 . S
C296 O302 1.287 . S
C296 O303 1.255 . S
O297 Fe286 1.976 . S
O297 C304 1.287 . S
O298 Fe287 1.996 . S
O298 C304 1.255 . S
O299 Fe289 1.976 . S
O299 C294 1.287 . S
O300 Fe286 1.996 . S
O300 C294 1.255 . S
C301 O305 1.295 . S
C301 O306 1.235 . S
O302 Fe287 1.976 . S
O302 C296 1.287 . S
O303 Fe289 1.996 . S
O303 C296 1.255 . S
C304 O297 1.287 . S
C304 O298 1.255 . S
O305 Fe287 2.002 . S
O305 C301 1.295 . S
O306 Fe289 1.997 . S
O306 C301 1.235 . S
C307 O290 1.295 . S
C307 O291 1.235 . S
Fe308 O310 1.918 . S
Fe308 O313 1.997 . S
Fe308 O314 2.007 . S
Fe308 O319 1.976 . S
Fe308 O322 1.996 . S
Fe309 O310 1.918 . S
Fe309 O317 1.997 . S
Fe309 O320 1.996 . S
Fe309 O324 1.976 . S
Fe309 O327 2.002 . S
O310 Fe308 1.918 . S
O310 Fe309 1.918 . S
O310 Fe311 1.918 . S
Fe311 O310 1.918 . S
Fe311 O312 2.002 . S
Fe311 O321 1.976 . S
Fe311 O325 1.996 . S
Fe311 O328 1.997 . S
O312 Fe311 2.002 . S
O312 C329 1.295 . S
O313 Fe308 1.997 . S
O313 C329 1.235 . S
O314 Fe308 2.007 . S
O314 C315 1.317 . S
C315 O314 1.317 . S
C315 O317 1.235 . S
C316 O321 1.287 . S
C316 O322 1.255 . S
O317 Fe309 1.997 . S
O317 C315 1.235 . S
C318 O324 1.287 . S
C318 O325 1.255 . S
O319 Fe308 1.976 . S
O319 C326 1.287 . S
O320 Fe309 1.996 . S
O320 C326 1.255 . S
O321 Fe311 1.976 . S
O321 C316 1.287 . S
O322 Fe308 1.996 . S
O322 C316 1.255 . S
C323 O327 1.295 . S
C323 O328 1.235 . S
O324 Fe309 1.976 . S
O324 C318 1.287 . S
O325 Fe311 1.996 . S
O325 C318 1.255 . S
C326 O319 1.287 . S
C326 O320 1.255 . S
O327 Fe309 2.002 . S
O327 C323 1.295 . S
O328 Fe311 1.997 . S
O328 C323 1.235 . S
C329 O312 1.295 . S
C329 O313 1.235 . S
Fe330 O332 1.918 . S
Fe330 O335 1.997 . S
Fe330 O336 2.002 . S
Fe330 O341 1.976 . S
Fe330 O344 1.996 . S
Fe331 O332 1.918 . S
Fe331 O339 1.997 . S
Fe331 O342 1.996 . S
Fe331 O346 1.976 . S
Fe331 O349 2.002 . S
O332 Fe330 1.918 . S
O332 Fe331 1.918 . S
O332 Fe333 1.918 . S
Fe333 O332 1.918 . S
Fe333 O334 2.002 . S
Fe333 O343 1.976 . S
Fe333 O347 1.996 . S
Fe333 O350 1.997 . S
O334 Fe333 2.002 . S
O334 C351 1.295 . S
O335 Fe330 1.997 . S
O335 C351 1.235 . S
O336 Fe330 2.002 . S
O336 C337 1.295 . S
C337 O336 1.295 . S
C337 O339 1.235 . S
C338 O343 1.287 . S
C338 O344 1.255 . S
O339 Fe331 1.997 . S
O339 C337 1.235 . S
C340 O346 1.287 . S
C340 O347 1.255 . S
O341 Fe330 1.976 . S
O341 C348 1.287 . S
O342 Fe331 1.996 . S
O342 C348 1.255 . S
O343 Fe333 1.976 . S
O343 C338 1.287 . S
O344 Fe330 1.996 . S
O344 C338 1.255 . S
C345 O349 1.295 . S
C345 O350 1.235 . S
O346 Fe331 1.976 . S
O346 C340 1.287 . S
O347 Fe333 1.996 . S
O347 C340 1.255 . S
C348 O341 1.287 . S
C348 O342 1.255 . S
O349 Fe331 2.002 . S
O349 C345 1.295 . S
O350 Fe333 1.997 . S
O350 C345 1.235 . S
C351 O334 1.295 . S
C351 O335 1.235 . S
Fe352 O354 1.918 . S
Fe352 O357 1.997 . S
Fe352 O358 2.002 . S
Fe352 O363 1.976 . S
Fe352 O366 1.996 . S
Fe353 O354 1.918 . S
Fe353 O361 1.997 . S
Fe353 O364 1.996 . S
Fe353 O368 1.976 . S
Fe353 O371 2.026 . S
O354 Fe352 1.918 . S
O354 Fe353 1.918 . S
O354 Fe355 1.918 . S
Fe355 O354 1.918 . S
Fe355 O356 2.002 . S
Fe355 O365 1.976 . S
Fe355 O369 1.996 . S
Fe355 O372 1.997 . S
O356 Fe355 2.002 . S
O356 C373 1.295 . S
O357 Fe352 1.997 . S
O357 C373 1.235 . S
O358 Fe352 2.002 . S
O358 C359 1.295 . S
C359 O358 1.295 . S
C359 O361 1.235 . S
C360 O365 1.287 . S
C360 O366 1.255 . S
O361 Fe353 1.997 . S
O361 C359 1.235 . S
C362 O368 1.287 . S
C362 O369 1.255 . S
O363 Fe352 1.976 . S
O363 C370 1.287 . S
O364 Fe353 1.996 . S
O364 C370 1.255 . S
O365 Fe355 1.976 . S
O365 C360 1.287 . S
O366 Fe352 1.996 . S
O366 C360 1.255 . S
C367 O371 1.286 . S
C367 O372 1.235 . S
O368 Fe353 1.976 . S
O368 C362 1.287 . S
O369 Fe355 1.996 . S
O369 C362 1.255 . S
C370 O363 1.287 . S
C370 O364 1.255 . S
O371 Fe353 2.026 . S
O371 C367 1.286 . S
O372 Fe355 1.997 . S
O372 C367 1.235 . S
C373 O356 1.295 . S
C373 O357 1.235 . S
Fe374 O376 1.918 . S
Fe374 O379 1.997 . S
Fe374 O380 2.002 . S
Fe374 O385 1.976 . S
Fe374 O388 1.996 . S
Fe375 O376 1.918 . S
Fe375 O383 1.997 . S
Fe375 O386 1.996 . S
Fe375 O390 1.976 . S
Fe375 O393 2.002 . S
O376 Fe374 1.918 . S
O376 Fe375 1.918 . S
O376 Fe377 1.918 . S
Fe377 O376 1.918 . S
Fe377 O378 2.002 . S
Fe377 O387 1.976 . S
Fe377 O391 1.996 . S
Fe377 O394 1.997 . S
O378 Fe377 2.002 . S
O378 C395 1.295 . S
O379 Fe374 1.997 . S
O379 C395 1.235 . S
O380 Fe374 2.002 . S
O380 C381 1.295 . S
C381 O380 1.295 . S
C381 O383 1.235 . S
C382 O387 1.287 . S
C382 O388 1.255 . S
O383 Fe375 1.997 . S
O383 C381 1.235 . S
C384 O390 1.287 . S
C384 O391 1.255 . S
O385 Fe374 1.976 . S
O385 C392 1.287 . S
O386 Fe375 1.996 . S
O386 C392 1.255 . S
O387 Fe377 1.976 . S
O387 C382 1.287 . S
O388 Fe374 1.996 . S
O388 C382 1.255 . S
C389 O393 1.295 . S
C389 O394 1.235 . S
O390 Fe375 1.976 . S
O390 C384 1.287 . S
O391 Fe377 1.996 . S
O391 C384 1.255 . S
C392 O385 1.287 . S
C392 O386 1.255 . S
O393 Fe375 2.002 . S
O393 C389 1.295 . S
O394 Fe377 1.997 . S
O394 C389 1.235 . S
C395 O378 1.295 . S
C395 O379 1.235 . S
H396 C402 0.930 . S
H397 C406 0.930 . S
H398 C411 0.929 . S
H399 C409 0.929 . S
H400 C404 0.929 . S
H401 C410 0.929 . S
C402 H396 0.930 . S
C402 C403 1.367 . S
C402 C410 1.378 . S
C403 C402 1.367 . S
C403 C411 1.433 . S
C404 H400 0.929 . S
C404 C406 1.378 . S
C404 C408 1.350 . S
C405 C408 1.463 . S
C405 C410 1.350 . S
C405 N413 1.427 . S
C406 H397 0.930 . S
C406 C404 1.378 . S
C406 C407 1.367 . S
C407 C406 1.367 . S
C407 C409 1.433 . S
C408 C404 1.350 . S
C408 C405 1.463 . S
C408 N412 1.427 . S
C409 H399 0.929 . S
C409 C407 1.433 . S
C409 N412 1.384 . S
C410 H401 0.929 . S
C410 C402 1.378 . S
C410 C405 1.350 . S
C411 H398 0.929 . S
C411 C403 1.433 . S
C411 N413 1.384 . S
N412 C408 1.427 . S
N412 C409 1.384 . S
N413 C405 1.427 . S
N413 C411 1.384 . S
H414 C420 0.930 . S
H415 C424 0.930 . S
H416 C429 0.929 . S
H417 C427 0.929 . S
H418 C422 0.929 . S
H419 C428 0.929 . S
C420 H414 0.930 . S
C420 C421 1.367 . S
C420 C428 1.378 . S
C421 C420 1.367 . S
C421 C429 1.433 . S
C422 H418 0.929 . S
C422 C424 1.378 . S
C422 C426 1.350 . S
C423 C426 1.463 . S
C423 C428 1.350 . S
C423 N431 1.427 . S
C424 H415 0.930 . S
C424 C422 1.378 . S
C424 C425 1.367 . S
C425 C424 1.367 . S
C425 C427 1.433 . S
C426 C422 1.350 . S
C426 C423 1.463 . S
C426 N430 1.427 . S
C427 H417 0.929 . S
C427 C425 1.433 . S
C427 N430 1.384 . S
C428 H419 0.929 . S
C428 C420 1.378 . S
C428 C423 1.350 . S
C429 H416 0.929 . S
C429 C421 1.433 . S
C429 N431 1.384 . S
N430 C426 1.427 . S
N430 C427 1.384 . S
N431 C423 1.427 . S
N431 C429 1.384 . S
H432 C438 0.930 . S
H433 C442 0.930 . S
H434 C447 0.929 . S
H435 C445 0.929 . S
H436 C440 0.929 . S
H437 C446 0.929 . S
C438 H432 0.930 . S
C438 C439 1.367 . S
C438 C446 1.378 . S
C439 C438 1.367 . S
C439 C447 1.433 . S
C440 H436 0.929 . S
C440 C442 1.378 . S
C440 C444 1.350 . S
C441 C444 1.463 . S
C441 C446 1.350 . S
C441 N449 1.427 . S
C442 H433 0.930 . S
C442 C440 1.378 . S
C442 C443 1.367 . S
C443 C442 1.367 . S
C443 C445 1.433 . S
C444 C440 1.350 . S
C444 C441 1.463 . S
C444 N448 1.427 . S
C445 H435 0.929 . S
C445 C443 1.433 . S
C445 N448 1.384 . S
C446 H437 0.929 . S
C446 C438 1.378 . S
C446 C441 1.350 . S
C447 H434 0.929 . S
C447 C439 1.433 . S
C447 N449 1.384 . S
N448 C444 1.427 . S
N448 C445 1.384 . S
N449 C441 1.427 . S
N449 C447 1.384 . S
H450 C456 0.930 . S
H451 C460 0.930 . S
H452 C465 0.929 . S
H453 C463 0.929 . S
H454 C458 0.929 . S
H455 C464 0.929 . S
C456 H450 0.930 . S
C456 C457 1.367 . S
C456 C464 1.378 . S
C457 C456 1.367 . S
C457 C465 1.433 . S
C458 H454 0.929 . S
C458 C460 1.378 . S
C458 C462 1.350 . S
C459 C462 1.463 . S
C459 C464 1.350 . S
C459 N467 1.427 . S
C460 H451 0.930 . S
C460 C458 1.378 . S
C460 C461 1.367 . S
C461 C460 1.367 . S
C461 C463 1.433 . S
C462 C458 1.350 . S
C462 C459 1.463 . S
C462 N466 1.427 . S
C463 H453 0.929 . S
C463 C461 1.433 . S
C463 N466 1.384 . S
C464 H455 0.929 . S
C464 C456 1.378 . S
C464 C459 1.350 . S
C465 H452 0.929 . S
C465 C457 1.433 . S
C465 N467 1.384 . S
N466 C462 1.427 . S
N466 C463 1.384 . S
N467 C459 1.427 . S
N467 C465 1.384 . S
H468 C474 0.930 1_455 S
H469 C478 0.930 . S
H470 C483 0.929 . S
H471 C481 0.929 . S
H472 C476 0.929 . S
H473 C482 0.929 . S
C474 H468 0.930 1_655 S
C474 C475 1.367 . S
C474 C482 1.378 . S
C475 C474 1.367 . S
C475 C483 1.433 . S
C476 H472 0.929 . S
C476 C478 1.378 . S
C476 C480 1.350 . S
C477 C480 1.463 . S
C477 C482 1.350 . S
C477 N485 1.427 . S
C478 H469 0.930 . S
C478 C476 1.378 . S
C478 C479 1.367 . S
C479 C478 1.367 . S
C479 C481 1.433 . S
C480 C476 1.350 . S
C480 C477 1.463 . S
C480 N484 1.427 . S
C481 H471 0.929 . S
C481 C479 1.433 . S
C481 N484 1.384 . S
C482 H473 0.929 . S
C482 C474 1.378 . S
C482 C477 1.350 . S
C483 H470 0.929 . S
C483 C475 1.433 . S
C483 N485 1.384 . S
N484 C480 1.427 . S
N484 C481 1.384 . S
N485 C477 1.427 . S
N485 C483 1.384 . S
H486 C492 0.930 . S
H487 C496 0.930 . S
H488 C501 0.929 . S
H489 C499 0.929 . S
H490 C494 0.929 . S
H491 C500 0.929 . S
C492 H486 0.930 . S
C492 C493 1.367 . S
C492 C500 1.378 . S
C493 C492 1.367 . S
C493 C501 1.433 . S
C494 H490 0.929 . S
C494 C496 1.378 . S
C494 C498 1.350 . S
C495 C498 1.463 . S
C495 C500 1.350 . S
C495 N503 1.427 . S
C496 H487 0.930 . S
C496 C494 1.378 . S
C496 C497 1.367 . S
C497 C496 1.367 . S
C497 C499 1.433 . S
C498 C494 1.350 . S
C498 C495 1.463 . S
C498 N502 1.427 . S
C499 H489 0.929 . S
C499 C497 1.433 . S
C499 N502 1.384 . S
C500 H491 0.929 . S
C500 C492 1.378 . S
C500 C495 1.350 . S
C501 H488 0.929 . S
C501 C493 1.433 . S
C501 N503 1.384 . S
N502 C498 1.427 . S
N502 C499 1.384 . S
N503 C495 1.427 . S
N503 C501 1.384 . S
H504 C510 0.930 . S
H505 C514 0.930 . S
H506 C519 0.929 . S
H507 C517 0.929 . S
H508 C512 0.929 1_455 S
H509 C518 0.929 . S
C510 H504 0.930 . S
C510 C511 1.367 . S
C510 C518 1.378 . S
C511 C510 1.367 . S
C511 C519 1.433 . S
C512 H508 0.929 1_655 S
C512 C514 1.378 1_655 S
C512 C516 1.350 . S
C513 C516 1.463 . S
C513 C518 1.350 . S
C513 N521 1.427 . S
C514 H505 0.930 . S
C514 C512 1.378 1_455 S
C514 C515 1.367 1_455 S
C515 C514 1.367 1_655 S
C515 C517 1.433 . S
C516 C512 1.350 . S
C516 C513 1.463 . S
C516 N520 1.427 . S
C517 H507 0.929 . S
C517 C515 1.433 . S
C517 N520 1.384 . S
C518 H509 0.929 . S
C518 C510 1.378 . S
C518 C513 1.350 . S
C519 H506 0.929 . S
C519 C511 1.433 . S
C519 N521 1.384 . S
N520 C516 1.427 . S
N520 C517 1.384 . S
N521 C513 1.427 . S
N521 C519 1.384 . S
H522 C528 0.930 . S
H523 C532 0.930 . S
H524 C537 0.929 . S
H525 C535 0.929 . S
H526 C530 0.929 . S
H527 C536 0.929 . S
C528 H522 0.930 . S
C528 C529 1.367 . S
C528 C536 1.378 . S
C529 C528 1.367 . S
C529 C537 1.433 . S
C530 H526 0.929 . S
C530 C532 1.378 . S
C530 C534 1.350 . S
C531 C534 1.463 . S
C531 C536 1.350 . S
C531 N539 1.427 . S
C532 H523 0.930 . S
C532 C530 1.378 . S
C532 C533 1.367 . S
C533 C532 1.367 . S
C533 C535 1.433 . S
C534 C530 1.350 . S
C534 C531 1.463 . S
C534 N538 1.427 . S
C535 H525 0.929 . S
C535 C533 1.433 . S
C535 N538 1.384 . S
C536 H527 0.929 . S
C536 C528 1.378 . S
C536 C531 1.350 . S
C537 H524 0.929 . S
C537 C529 1.433 . S
C537 N539 1.384 . S
N538 C534 1.427 . S
N538 C535 1.384 . S
N539 C531 1.427 . S
N539 C537 1.384 . S
H540 C546 0.930 . S
H541 C550 0.930 . S
H542 C555 0.929 . S
H543 C553 0.929 . S
H544 C548 0.929 . S
H545 C554 0.929 . S
C546 H540 0.930 . S
C546 C547 1.367 . S
C546 C554 1.378 . S
C547 C546 1.367 . S
C547 C555 1.433 . S
C548 H544 0.929 . S
C548 C550 1.378 . S
C548 C552 1.350 . S
C549 C552 1.463 . S
C549 C554 1.350 . S
C549 N557 1.427 . S
C550 H541 0.930 . S
C550 C548 1.378 . S
C550 C551 1.367 . S
C551 C550 1.367 . S
C551 C553 1.433 . S
C552 C548 1.350 . S
C552 C549 1.463 . S
C552 N556 1.427 . S
C553 H543 0.929 . S
C553 C551 1.433 . S
C553 N556 1.384 . S
C554 H545 0.929 . S
C554 C546 1.378 . S
C554 C549 1.350 . S
C555 H542 0.929 . S
C555 C547 1.433 . S
C555 N557 1.384 . S
N556 C552 1.427 . S
N556 C553 1.384 . S
N557 C549 1.427 . S
N557 C555 1.384 . S
H558 C564 0.930 . S
H559 C568 0.930 . S
H560 C573 0.929 . S
H561 C571 0.899 1_545 S
H562 C566 0.929 . S
H563 C572 0.929 . S
C564 H558 0.930 . S
C564 C565 1.367 . S
C564 C572 1.378 . S
C565 C564 1.367 . S
C565 C573 1.433 . S
C566 H562 0.929 . S
C566 C568 1.378 . S
C566 C570 1.350 . S
C567 C570 1.463 . S
C567 C572 1.350 . S
C567 N575 1.427 . S
C568 H559 0.930 . S
C568 C566 1.378 . S
C568 C569 1.367 . S
C569 C568 1.367 . S
C569 C571 1.442 . S
C570 C566 1.350 . S
C570 C567 1.463 . S
C570 N574 1.427 . S
C571 H561 0.899 1_565 S
C571 C569 1.442 . S
C571 N574 1.406 . S
C572 H563 0.929 . S
C572 C564 1.378 . S
C572 C567 1.350 . S
C573 H560 0.929 . S
C573 C565 1.433 . S
C573 N575 1.384 . S
N574 C570 1.427 . S
N574 C571 1.406 . S
N575 C567 1.427 . S
N575 C573 1.384 . S
H576 C582 0.930 . S
H577 C586 0.930 . S
H578 C591 0.929 . S
H579 C589 0.929 . S
H580 C584 0.929 . S
H581 C590 0.929 . S
C582 H576 0.930 . S
C582 C583 1.367 . S
C582 C590 1.378 . S
C583 C582 1.367 . S
C583 C591 1.433 . S
C584 H580 0.929 . S
C584 C586 1.378 . S
C584 C588 1.350 . S
C585 C588 1.463 . S
C585 C590 1.350 . S
C585 N593 1.427 . S
C586 H577 0.930 . S
C586 C584 1.378 . S
C586 C587 1.367 . S
C587 C586 1.367 . S
C587 C589 1.433 . S
C588 C584 1.350 . S
C588 C585 1.463 . S
C588 N592 1.427 . S
C589 H579 0.929 . S
C589 C587 1.433 . S
C589 N592 1.384 . S
C590 H581 0.929 . S
C590 C582 1.378 . S
C590 C585 1.350 . S
C591 H578 0.929 . S
C591 C583 1.433 . S
C591 N593 1.384 . S
N592 C588 1.427 . S
N592 C589 1.384 . S
N593 C585 1.427 . S
N593 C591 1.384 . S
H594 C600 0.930 . S
H595 C604 0.930 . S
H596 C609 0.929 . S
H597 C607 0.929 . S
H598 C602 0.929 . S
H599 C608 0.929 . S
C600 H594 0.930 . S
C600 C601 1.367 . S
C600 C608 1.378 . S
C601 C600 1.367 . S
C601 C609 1.433 . S
C602 H598 0.929 . S
C602 C604 1.378 . S
C602 C606 1.350 . S
C603 C606 1.463 . S
C603 C608 1.350 . S
C603 N611 1.427 . S
C604 H595 0.930 . S
C604 C602 1.378 . S
C604 C605 1.367 . S
C605 C604 1.367 . S
C605 C607 1.433 . S
C606 C602 1.350 . S
C606 C603 1.463 . S
C606 N610 1.427 . S
C607 H597 0.929 . S
C607 C605 1.433 . S
C607 N610 1.384 . S
C608 H599 0.929 . S
C608 C600 1.378 . S
C608 C603 1.350 . S
C609 H596 0.929 . S
C609 C601 1.433 . S
C609 N611 1.384 . S
N610 C606 1.427 . S
N610 C607 1.384 . S
N611 C603 1.427 . S
N611 C609 1.384 . S
H612 C618 0.930 . S
H613 C622 0.930 . S
H614 C627 0.929 . S
H615 C625 0.929 . S
H616 C620 0.929 . S
H617 C626 0.929 . S
C618 H612 0.930 . S
C618 C619 1.367 . S
C618 C626 1.378 . S
C619 C618 1.367 . S
C619 C627 1.433 . S
C620 H616 0.929 . S
C620 C622 1.378 . S
C620 C624 1.350 . S
C621 C624 1.463 . S
C621 C626 1.350 . S
C621 N629 1.427 . S
C622 H613 0.930 . S
C622 C620 1.378 . S
C622 C623 1.367 . S
C623 C622 1.367 . S
C623 C625 1.433 . S
C624 C620 1.350 . S
C624 C621 1.463 . S
C624 N628 1.427 . S
C625 H615 0.929 . S
C625 C623 1.433 . S
C625 N628 1.384 . S
C626 H617 0.929 . S
C626 C618 1.378 . S
C626 C621 1.350 . S
C627 H614 0.929 . S
C627 C619 1.433 . S
C627 N629 1.384 . S
N628 C624 1.427 . S
N628 C625 1.384 . S
N629 C621 1.427 . S
N629 C627 1.384 . S
H630 C636 0.930 1_545 S
H631 C640 0.930 . S
H632 C645 0.929 . S
H633 C643 0.929 . S
H634 C638 0.929 . S
H635 C644 0.929 . S
C636 H630 0.930 1_565 S
C636 C637 1.367 1_565 S
C636 C644 1.378 . S
C637 C636 1.367 1_545 S
C637 C645 1.433 1_545 S
C638 H634 0.929 . S
C638 C640 1.378 . S
C638 C642 1.350 . S
C639 C642 1.463 . S
C639 C644 1.350 . S
C639 N647 1.427 . S
C640 H631 0.930 . S
C640 C638 1.378 . S
C640 C641 1.367 . S
C641 C640 1.367 . S
C641 C643 1.433 . S
C642 C638 1.350 . S
C642 C639 1.463 . S
C642 N646 1.427 . S
C643 H633 0.929 . S
C643 C641 1.433 . S
C643 N646 1.384 . S
C644 H635 0.929 . S
C644 C636 1.378 . S
C644 C639 1.350 . S
C645 H632 0.929 . S
C645 C637 1.433 1_565 S
C645 N647 1.384 . S
N646 C642 1.427 . S
N646 C643 1.384 . S
N647 C639 1.427 . S
N647 C645 1.384 . S
H648 C654 0.930 . S
H649 C658 0.930 . S
H650 C663 0.929 . S
H651 C661 0.929 . S
H652 C656 0.929 . S
H653 C662 0.929 . S
C654 H648 0.930 . S
C654 C655 1.367 . S
C654 C662 1.378 . S
C655 C654 1.367 . S
C655 C663 1.433 . S
C656 H652 0.929 . S
C656 C658 1.378 . S
C656 C660 1.350 . S
C657 C660 1.463 . S
C657 C662 1.350 . S
C657 N665 1.427 . S
C658 H649 0.930 . S
C658 C656 1.378 . S
C658 C659 1.367 . S
C659 C658 1.367 . S
C659 C661 1.433 . S
C660 C656 1.350 . S
C660 C657 1.463 . S
C660 N664 1.427 . S
C661 H651 0.929 . S
C661 C659 1.433 . S
C661 N664 1.384 . S
C662 H653 0.929 . S
C662 C654 1.378 . S
C662 C657 1.350 . S
C663 H650 0.929 . S
C663 C655 1.433 . S
C663 N665 1.384 . S
N664 C660 1.427 . S
N664 C661 1.384 . S
N665 C657 1.427 . S
N665 C663 1.384 . S
H666 C672 0.930 . S
H667 C676 0.930 . S
H668 C681 0.929 . S
H669 C679 0.929 . S
H670 C674 0.929 . S
H671 C680 0.929 . S
C672 H666 0.930 . S
C672 C673 1.367 . S
C672 C680 1.378 . S
C673 C672 1.367 . S
C673 C681 1.433 . S
C674 H670 0.929 . S
C674 C676 1.378 . S
C674 C678 1.350 . S
C675 C678 1.463 . S
C675 C680 1.350 . S
C675 N683 1.427 . S
C676 H667 0.930 . S
C676 C674 1.378 . S
C676 C677 1.367 . S
C677 C676 1.367 . S
C677 C679 1.433 . S
C678 C674 1.350 . S
C678 C675 1.463 . S
C678 N682 1.427 . S
C679 H669 0.929 . S
C679 C677 1.433 . S
C679 N682 1.384 . S
C680 H671 0.929 . S
C680 C672 1.378 . S
C680 C675 1.350 . S
C681 H668 0.929 . S
C681 C673 1.433 . S
C681 N683 1.384 . S
N682 C678 1.427 . S
N682 C679 1.384 . S
N683 C675 1.427 . S
N683 C681 1.384 . S
H684 C690 0.930 . S
H685 C694 0.930 . S
H686 C699 0.929 . S
H687 C697 0.929 . S
H688 C692 0.929 . S
H689 C698 0.929 . S
C690 H684 0.930 . S
C690 C691 1.367 . S
C690 C698 1.378 . S
C691 C690 1.367 . S
C691 C699 1.433 . S
C692 H688 0.929 . S
C692 C694 1.378 . S
C692 C696 1.350 . S
C693 C696 1.463 . S
C693 C698 1.350 . S
C693 N701 1.427 . S
C694 H685 0.930 . S
C694 C692 1.378 . S
C694 C695 1.367 . S
C695 C694 1.367 . S
C695 C697 1.433 . S
C696 C692 1.350 . S
C696 C693 1.463 . S
C696 N700 1.427 . S
C697 H687 0.929 . S
C697 C695 1.433 . S
C697 N700 1.384 . S
C698 H689 0.929 . S
C698 C690 1.378 . S
C698 C693 1.350 . S
C699 H686 0.929 . S
C699 C691 1.433 . S
C699 N701 1.384 . S
N700 C696 1.427 . S
N700 C697 1.384 . S
N701 C693 1.427 . S
N701 C699 1.384 . S
H702 C708 0.930 . S
H703 C712 0.930 . S
H704 C717 0.929 . S
H705 C715 0.929 . S
H706 C710 0.929 . S
H707 C716 0.929 . S
C708 H702 0.930 . S
C708 C709 1.367 . S
C708 C716 1.378 . S
C709 C708 1.367 . S
C709 C717 1.433 . S
C710 H706 0.929 . S
C710 C712 1.378 . S
C710 C714 1.350 . S
C711 C714 1.463 . S
C711 C716 1.350 . S
C711 N719 1.427 . S
C712 H703 0.930 . S
C712 C710 1.378 . S
C712 C713 1.367 . S
C713 C712 1.367 . S
C713 C715 1.433 . S
C714 C710 1.350 . S
C714 C711 1.463 . S
C714 N718 1.427 . S
C715 H705 0.929 . S
C715 C713 1.433 . S
C715 N718 1.384 . S
C716 H707 0.929 . S
C716 C708 1.378 . S
C716 C711 1.350 . S
C717 H704 0.929 . S
C717 C709 1.433 . S
C717 N719 1.384 . S
N718 C714 1.427 . S
N718 C715 1.384 . S
N719 C711 1.427 . S
N719 C717 1.384 . S
H720 C726 0.930 . S
H721 C730 0.930 . S
H722 C735 0.929 . S
H723 C733 0.929 . S
H724 C728 0.929 . S
H725 C734 0.929 . S
C726 H720 0.930 . S
C726 C727 1.367 . S
C726 C734 1.378 . S
C727 C726 1.367 . S
C727 C735 1.433 . S
C728 H724 0.929 . S
C728 C730 1.378 . S
C728 C732 1.350 . S
C729 C732 1.463 . S
C729 C734 1.350 . S
C729 N737 1.427 . S
C730 H721 0.930 . S
C730 C728 1.378 . S
C730 C731 1.367 . S
C731 C730 1.367 . S
C731 C733 1.433 . S
C732 C728 1.350 . S
C732 C729 1.463 . S
C732 N736 1.427 . S
C733 H723 0.929 . S
C733 C731 1.433 . S
C733 N736 1.384 . S
C734 H725 0.929 . S
C734 C726 1.378 . S
C734 C729 1.350 . S
C735 H722 0.929 . S
C735 C727 1.433 . S
C735 N737 1.384 . S
N736 C732 1.427 . S
N736 C733 1.384 . S
N737 C729 1.427 . S
N737 C735 1.384 . S
H738 C744 0.930 . S
H739 C748 0.930 . S
H740 C753 0.929 . S
H741 C751 0.929 . S
H742 C746 0.929 . S
H743 C752 0.929 . S
C744 H738 0.930 . S
C744 C745 1.367 . S
C744 C752 1.378 . S
C745 C744 1.367 . S
C745 C753 1.433 . S
C746 H742 0.929 . S
C746 C748 1.378 . S
C746 C750 1.350 . S
C747 C750 1.463 . S
C747 C752 1.350 . S
C747 N755 1.427 . S
C748 H739 0.930 . S
C748 C746 1.378 . S
C748 C749 1.367 . S
C749 C748 1.367 . S
C749 C751 1.433 . S
C750 C746 1.350 . S
C750 C747 1.463 . S
C750 N754 1.427 . S
C751 H741 0.929 . S
C751 C749 1.433 . S
C751 N754 1.384 . S
C752 H743 0.929 . S
C752 C744 1.378 . S
C752 C747 1.350 . S
C753 H740 0.929 . S
C753 C745 1.433 . S
C753 N755 1.384 . S
N754 C750 1.427 . S
N754 C751 1.384 . S
N755 C747 1.427 . S
N755 C753 1.384 . S
H756 C762 0.930 . S
H757 C766 0.930 . S
H758 C771 0.929 . S
H759 C769 0.929 . S
H760 C764 0.929 . S
H761 C770 0.929 . S
C762 H756 0.930 . S
C762 C763 1.367 . S
C762 C770 1.378 . S
C763 C762 1.367 . S
C763 C771 1.433 . S
C764 H760 0.929 . S
C764 C766 1.378 . S
C764 C768 1.350 . S
C765 C768 1.463 . S
C765 C770 1.350 . S
C765 N773 1.427 . S
C766 H757 0.930 . S
C766 C764 1.378 . S
C766 C767 1.367 . S
C767 C766 1.367 . S
C767 C769 1.433 . S
C768 C764 1.350 . S
C768 C765 1.463 . S
C768 N772 1.427 . S
C769 H759 0.929 . S
C769 C767 1.433 . S
C769 N772 1.384 . S
C770 H761 0.929 . S
C770 C762 1.378 . S
C770 C765 1.350 . S
C771 H758 0.929 . S
C771 C763 1.433 . S
C771 N773 1.384 . S
N772 C768 1.427 . S
N772 C769 1.384 . S
N773 C765 1.427 . S
N773 C771 1.384 . S
H774 C780 0.930 . S
H775 C784 0.930 . S
H776 C789 0.929 . S
H777 C787 0.929 . S
H778 C782 0.929 . S
H779 C788 0.929 . S
C780 H774 0.930 . S
C780 C781 1.367 . S
C780 C788 1.378 . S
C781 C780 1.367 . S
C781 C789 1.433 . S
C782 H778 0.929 . S
C782 C784 1.378 . S
C782 C786 1.350 . S
C783 C786 1.463 . S
C783 C788 1.350 1_556 S
C783 N791 1.427 . S
C784 H775 0.930 . S
C784 C782 1.378 . S
C784 C785 1.367 . S
C785 C784 1.367 . S
C785 C787 1.433 . S
C786 C782 1.350 . S
C786 C783 1.463 . S
C786 N790 1.427 . S
C787 H777 0.929 . S
C787 C785 1.433 . S
C787 N790 1.384 . S
C788 H779 0.929 . S
C788 C780 1.378 . S
C788 C783 1.350 1_554 S
C789 H776 0.929 . S
C789 C781 1.433 . S
C789 N791 1.384 1_554 S
N790 C786 1.427 . S
N790 C787 1.384 . S
N791 C783 1.427 . S
N791 C789 1.384 1_556 S
H792 C798 0.929 1_556 S
H793 C802 0.914 1_545 S
H794 C807 0.929 . S
H795 C805 0.929 . S
H796 C800 0.929 1_554 S
H797 C806 0.929 . S
C798 H792 0.929 1_554 S
C798 C799 1.369 . S
C798 C806 1.376 1_554 S
C799 C798 1.369 . S
C799 C807 1.433 . S
C800 H796 0.929 1_556 S
C800 C802 1.411 . S
C800 C804 1.350 . S
C801 C804 1.463 . S
C801 C806 1.350 . S
C801 N809 1.427 1_556 S
C802 H793 0.914 1_565 S
C802 C800 1.411 . S
C802 C803 1.351 1_565 S
C803 C802 1.351 1_545 S
C803 C805 1.433 1_545 S
C804 C800 1.350 . S
C804 C801 1.463 . S
C804 N808 1.427 . S
C805 H795 0.929 . S
C805 C803 1.433 1_565 S
C805 N808 1.384 . S
C806 H797 0.929 . S
C806 C798 1.376 1_556 S
C806 C801 1.350 . S
C807 H794 0.929 . S
C807 C799 1.433 . S
C807 N809 1.384 . S
N808 C804 1.427 . S
N808 C805 1.384 . S
N809 C801 1.427 1_554 S
N809 C807 1.384 . S
H810 C816 0.930 . S
H811 C820 0.930 . S
H812 C825 0.929 . S
H813 C823 0.929 1_655 S
H814 C818 0.929 . S
H815 C824 0.929 . S
C816 H810 0.930 . S
C816 C817 1.367 . S
C816 C824 1.378 . S
C817 C816 1.367 . S
C817 C825 1.433 1_554 S
C818 H814 0.929 . S
C818 C820 1.378 . S
C818 C822 1.350 . S
C819 C822 1.463 . S
C819 C824 1.350 1_556 S
C819 N827 1.427 . S
C820 H811 0.930 . S
C820 C818 1.378 . S
C820 C821 1.367 . S
C821 C820 1.367 . S
C821 C823 1.433 . S
C822 C818 1.350 . S
C822 C819 1.463 . S
C822 N826 1.427 . S
C823 H813 0.929 1_455 S
C823 C821 1.433 . S
C823 N826 1.384 . S
C824 H815 0.929 . S
C824 C816 1.378 . S
C824 C819 1.350 1_554 S
C825 H812 0.929 . S
C825 C817 1.433 1_556 S
C825 N827 1.384 . S
N826 C822 1.427 . S
N826 C823 1.384 . S
N827 C819 1.427 . S
N827 C825 1.384 . S
H828 C834 0.930 . S
H829 C838 0.930 . S
H830 C843 0.929 . S
H831 C841 0.929 . S
H832 C836 0.929 . S
H833 C842 0.929 . S
C834 H828 0.930 . S
C834 C835 1.367 . S
C834 C842 1.378 . S
C835 C834 1.367 . S
C835 C843 1.433 . S
C836 H832 0.929 . S
C836 C838 1.378 . S
C836 C840 1.350 . S
C837 C840 1.463 . S
C837 C842 1.350 . S
C837 N845 1.427 . S
C838 H829 0.930 . S
C838 C836 1.378 . S
C838 C839 1.367 . S
C839 C838 1.367 . S
C839 C841 1.433 . S
C840 C836 1.350 . S
C840 C837 1.463 . S
C840 N844 1.427 . S
C841 H831 0.929 . S
C841 C839 1.433 . S
C841 N844 1.384 . S
C842 H833 0.929 . S
C842 C834 1.378 . S
C842 C837 1.350 . S
C843 H830 0.929 . S
C843 C835 1.433 . S
C843 N845 1.384 . S
N844 C840 1.427 . S
N844 C841 1.384 . S
N845 C837 1.427 . S
N845 C843 1.384 . S
H846 C852 0.930 . S
H847 C856 0.930 . S
H848 C861 0.929 . S
H849 C859 0.929 . S
H850 C854 0.929 . S
H851 C860 0.929 . S
C852 H846 0.930 . S
C852 C853 1.367 . S
C852 C860 1.378 . S
C853 C852 1.367 . S
C853 C861 1.433 . S
C854 H850 0.929 . S
C854 C856 1.378 . S
C854 C858 1.350 . S
C855 C858 1.463 . S
C855 C860 1.350 . S
C855 N863 1.427 . S
C856 H847 0.930 . S
C856 C854 1.378 . S
C856 C857 1.367 . S
C857 C856 1.367 . S
C857 C859 1.433 . S
C858 C854 1.350 . S
C858 C855 1.463 . S
C858 N862 1.427 . S
C859 H849 0.929 . S
C859 C857 1.433 . S
C859 N862 1.384 . S
C860 H851 0.929 . S
C860 C852 1.378 . S
C860 C855 1.350 . S
C861 H848 0.929 . S
C861 C853 1.433 . S
C861 N863 1.384 . S
N862 C858 1.427 . S
N862 C859 1.384 . S
N863 C855 1.427 . S
N863 C861 1.384 . S
H864 C870 0.930 . S
H865 C874 0.930 . S
H866 C879 0.929 . S
H867 C877 0.929 . S
H868 C872 0.929 . S
H869 C878 0.929 . S
C870 H864 0.930 . S
C870 C871 1.367 . S
C870 C878 1.378 . S
C871 C870 1.367 . S
C871 C879 1.433 . S
C872 H868 0.929 . S
C872 C874 1.378 . S
C872 C876 1.350 . S
C873 C876 1.463 . S
C873 C878 1.350 . S
C873 N881 1.427 . S
C874 H865 0.930 . S
C874 C872 1.378 . S
C874 C875 1.367 . S
C875 C874 1.367 . S
C875 C877 1.433 . S
C876 C872 1.350 . S
C876 C873 1.463 . S
C876 N880 1.427 . S
C877 H867 0.929 . S
C877 C875 1.433 . S
C877 N880 1.384 . S
C878 H869 0.929 . S
C878 C870 1.378 . S
C878 C873 1.350 . S
C879 H866 0.929 . S
C879 C871 1.433 . S
C879 N881 1.384 . S
N880 C876 1.427 . S
N880 C877 1.384 . S
N881 C873 1.427 . S
N881 C879 1.384 . S
H882 C888 0.930 . S
H883 C892 0.930 . S
H884 C897 0.929 . S
H885 C895 0.929 . S
H886 C890 0.929 1_556 S
H887 C896 0.929 . S
C888 H882 0.930 . S
C888 C889 1.367 1_554 S
C888 C896 1.378 . S
C889 C888 1.367 1_556 S
C889 C897 1.433 . S
C890 H886 0.929 1_554 S
C890 C892 1.378 . S
C890 C894 1.350 . S
C891 C894 1.463 . S
C891 C896 1.350 . S
C891 N899 1.427 1_554 S
C892 H883 0.930 . S
C892 C890 1.378 . S
C892 C893 1.367 . S
C893 C892 1.367 . S
C893 C895 1.433 . S
C894 C890 1.350 . S
C894 C891 1.463 . S
C894 N898 1.427 . S
C895 H885 0.929 . S
C895 C893 1.433 . S
C895 N898 1.384 . S
C896 H887 0.929 . S
C896 C888 1.378 . S
C896 C891 1.350 . S
C897 H884 0.929 . S
C897 C889 1.433 . S
C897 N899 1.384 . S
N898 C894 1.427 . S
N898 C895 1.384 . S
N899 C891 1.427 1_556 S
N899 C897 1.384 . S
H900 C906 0.930 . S
H901 C910 0.930 . S
H902 C915 0.929 . S
H903 C913 0.929 . S
H904 C908 0.929 . S
H905 C914 0.929 . S
C906 H900 0.930 . S
C906 C907 1.367 . S
C906 C914 1.378 . S
C907 C906 1.367 . S
C907 C915 1.433 1_556 S
C908 H904 0.929 . S
C908 C910 1.378 . S
C908 C912 1.350 . S
C909 C912 1.463 . S
C909 C914 1.350 1_554 S
C909 N917 1.427 . S
C910 H901 0.930 . S
C910 C908 1.378 . S
C910 C911 1.367 . S
C911 C910 1.367 . S
C911 C913 1.433 . S
C912 C908 1.350 . S
C912 C909 1.463 . S
C912 N916 1.427 . S
C913 H903 0.929 . S
C913 C911 1.433 . S
C913 N916 1.384 . S
C914 H905 0.929 . S
C914 C906 1.378 . S
C914 C909 1.350 1_556 S
C915 H902 0.929 . S
C915 C907 1.433 1_554 S
C915 N917 1.384 . S
N916 C912 1.427 . S
N916 C913 1.384 . S
N917 C909 1.427 . S
N917 C915 1.384 . S
H918 C924 0.930 . S
H919 C928 0.930 1_455 S
H920 C933 0.929 . S
H921 C931 0.929 . S
H922 C926 0.929 . S
H923 C932 0.929 . S
C924 H918 0.930 . S
C924 C925 1.367 . S
C924 C932 1.378 . S
C925 C924 1.367 . S
C925 C933 1.433 . S
C926 H922 0.929 . S
C926 C928 1.378 . S
C926 C930 1.350 . S
C927 C930 1.463 . S
C927 C932 1.350 1_554 S
C927 N935 1.427 . S
C928 H919 0.930 1_655 S
C928 C926 1.378 . S
C928 C929 1.367 1_655 S
C929 C928 1.367 1_455 S
C929 C931 1.433 1_455 S
C930 C926 1.350 . S
C930 C927 1.463 . S
C930 N934 1.427 . S
C931 H921 0.929 . S
C931 C929 1.433 1_655 S
C931 N934 1.384 . S
C932 H923 0.929 . S
C932 C924 1.378 . S
C932 C927 1.350 1_556 S
C933 H920 0.929 . S
C933 C925 1.433 . S
C933 N935 1.384 1_556 S
N934 C930 1.427 . S
N934 C931 1.384 . S
N935 C927 1.427 . S
N935 C933 1.384 1_554 S
H936 C942 0.930 . S
H937 C946 0.930 . S
H938 C951 0.929 . S
H939 C949 0.929 . S
H940 C944 0.929 . S
H941 C950 0.929 . S
C942 H936 0.930 . S
C942 C943 1.367 . S
C942 C950 1.378 . S
C943 C942 1.367 . S
C943 C951 1.433 . S
C944 H940 0.929 . S
C944 C946 1.378 . S
C944 C948 1.350 . S
C945 C948 1.463 . S
C945 C950 1.350 . S
C945 N953 1.427 . S
C946 H937 0.930 . S
C946 C944 1.378 . S
C946 C947 1.367 . S
C947 C946 1.367 . S
C947 C949 1.433 . S
C948 C944 1.350 . S
C948 C945 1.463 . S
C948 N952 1.427 . S
C949 H939 0.929 . S
C949 C947 1.433 . S
C949 N952 1.384 . S
C950 H941 0.929 . S
C950 C942 1.378 . S
C950 C945 1.350 . S
C951 H938 0.929 . S
C951 C943 1.433 . S
C951 N953 1.384 . S
N952 C948 1.427 . S
N952 C949 1.384 . S
N953 C945 1.427 . S
N953 C951 1.384 . S
H954 C960 0.930 . S
H955 C964 0.930 . S
H956 C969 0.929 . S
H957 C967 0.929 . S
H958 C962 0.929 . S
H959 C968 0.929 . S
C960 H954 0.930 . S
C960 C961 1.367 . S
C960 C968 1.378 . S
C961 C960 1.367 . S
C961 C969 1.433 . S
C962 H958 0.929 . S
C962 C964 1.378 . S
C962 C966 1.350 . S
C963 C966 1.463 . S
C963 C968 1.350 . S
C963 N971 1.427 . S
C964 H955 0.930 . S
C964 C962 1.378 . S
C964 C965 1.367 . S
C965 C964 1.367 . S
C965 C967 1.433 . S
C966 C962 1.350 . S
C966 C963 1.463 . S
C966 N970 1.427 . S
C967 H957 0.929 . S
C967 C965 1.433 . S
C967 N970 1.384 . S
C968 H959 0.929 . S
C968 C960 1.378 . S
C968 C963 1.350 . S
C969 H956 0.929 . S
C969 C961 1.433 . S
C969 N971 1.384 . S
N970 C966 1.427 . S
N970 C967 1.384 . S
N971 C963 1.427 . S
N971 C969 1.384 . S
H972 C978 0.930 . S
H973 C982 0.930 . S
H974 C987 0.929 1_455 S
H975 C985 0.929 . S
H976 C980 0.929 . S
H977 C986 0.929 . S
C978 H972 0.930 . S
C978 C979 1.367 1_655 S
C978 C986 1.378 . S
C979 C978 1.367 1_455 S
C979 C987 1.433 1_455 S
C980 H976 0.929 . S
C980 C982 1.378 . S
C980 C984 1.350 . S
C981 C984 1.463 . S
C981 C986 1.350 . S
C981 N989 1.427 . S
C982 H973 0.930 . S
C982 C980 1.378 . S
C982 C983 1.367 . S
C983 C982 1.367 . S
C983 C985 1.433 . S
C984 C980 1.350 . S
C984 C981 1.463 . S
C984 N988 1.427 . S
C985 H975 0.929 . S
C985 C983 1.433 . S
C985 N988 1.384 . S
C986 H977 0.929 . S
C986 C978 1.378 . S
C986 C981 1.350 . S
C987 H974 0.929 1_655 S
C987 C979 1.433 1_655 S
C987 N989 1.384 . S
N988 C984 1.427 . S
N988 C985 1.384 . S
N989 C981 1.427 . S
N989 C987 1.384 . S
H990 C996 0.930 . S
H991 C1000 0.930 . S
H992 C1005 0.929 . S
H993 C1003 0.929 . S
H994 C998 0.929 . S
H995 C1004 0.929 . S
C996 H990 0.930 . S
C996 C997 1.367 . S
C996 C1004 1.378 . S
C997 C996 1.367 . S
C997 C1005 1.433 . S
C998 H994 0.929 . S
C998 C1000 1.378 . S
C998 C1002 1.350 . S
C999 C1002 1.463 . S
C999 C1004 1.350 . S
C999 N1007 1.427 . S
C1000 H991 0.930 . S
C1000 C998 1.378 . S
C1000 C1001 1.367 . S
C1001 C1000 1.367 . S
C1001 C1003 1.433 . S
C1002 C998 1.350 . S
C1002 C999 1.463 . S
C1002 N1006 1.427 . S
C1003 H993 0.929 . S
C1003 C1001 1.433 . S
C1003 N1006 1.384 . S
C1004 H995 0.929 . S
C1004 C996 1.378 . S
C1004 C999 1.350 . S
C1005 H992 0.929 . S
C1005 C997 1.433 . S
C1005 N1007 1.384 . S
N1006 C1002 1.427 . S
N1006 C1003 1.384 . S
N1007 C999 1.427 . S
N1007 C1005 1.384 . S
H1008 C1014 0.930 . S
H1009 C1018 0.930 . S
H1010 C1023 0.929 . S
H1011 C1021 0.929 . S
H1012 C1016 0.929 . S
H1013 C1022 0.929 . S
C1014 H1008 0.930 . S
C1014 C1015 1.367 . S
C1014 C1022 1.378 . S
C1015 C1014 1.367 . S
C1015 C1023 1.433 . S
C1016 H1012 0.929 . S
C1016 C1018 1.378 . S
C1016 C1020 1.350 . S
C1017 C1020 1.463 . S
C1017 C1022 1.350 . S
C1017 N1025 1.427 . S
C1018 H1009 0.930 . S
C1018 C1016 1.378 . S
C1018 C1019 1.367 . S
C1019 C1018 1.367 . S
C1019 C1021 1.433 . S
C1020 C1016 1.350 . S
C1020 C1017 1.463 . S
C1020 N1024 1.427 . S
C1021 H1011 0.929 . S
C1021 C1019 1.433 . S
C1021 N1024 1.384 . S
C1022 H1013 0.929 . S
C1022 C1014 1.378 . S
C1022 C1017 1.350 . S
C1023 H1010 0.929 . S
C1023 C1015 1.433 . S
C1023 N1025 1.384 . S
N1024 C1020 1.427 . S
N1024 C1021 1.384 . S
N1025 C1017 1.427 . S
N1025 C1023 1.384 . S
H1026 C1032 0.930 . S
H1027 C1036 0.930 . S
H1028 C1041 0.929 . S
H1029 C1039 0.929 . S
H1030 C1034 0.929 . S
H1031 C1040 0.929 . S
C1032 H1026 0.930 . S
C1032 C1033 1.367 . S
C1032 C1040 1.378 . S
C1033 C1032 1.367 . S
C1033 C1041 1.433 . S
C1034 H1030 0.929 . S
C1034 C1036 1.378 . S
C1034 C1038 1.350 . S
C1035 C1038 1.463 . S
C1035 C1040 1.350 . S
C1035 N1043 1.427 . S
C1036 H1027 0.930 . S
C1036 C1034 1.378 . S
C1036 C1037 1.367 . S
C1037 C1036 1.367 . S
C1037 C1039 1.433 . S
C1038 C1034 1.350 . S
C1038 C1035 1.463 . S
C1038 N1042 1.427 . S
C1039 H1029 0.929 . S
C1039 C1037 1.433 . S
C1039 N1042 1.384 . S
C1040 H1031 0.929 . S
C1040 C1032 1.378 . S
C1040 C1035 1.350 . S
C1041 H1028 0.929 . S
C1041 C1033 1.433 . S
C1041 N1043 1.384 . S
N1042 C1038 1.427 . S
N1042 C1039 1.384 . S
N1043 C1035 1.427 . S
N1043 C1041 1.384 . S
H1044 C1050 0.930 . S
H1045 C1054 0.930 . S
H1046 C1059 0.929 . S
H1047 C1057 0.929 . S
H1048 C1052 0.929 . S
H1049 C1058 0.929 . S
C1050 H1044 0.930 . S
C1050 C1051 1.367 . S
C1050 C1058 1.378 . S
C1051 C1050 1.367 . S
C1051 C1059 1.433 . S
C1052 H1048 0.929 . S
C1052 C1054 1.378 . S
C1052 C1056 1.350 . S
C1053 C1056 1.463 . S
C1053 C1058 1.350 . S
C1053 N1061 1.427 . S
C1054 H1045 0.930 . S
C1054 C1052 1.378 . S
C1054 C1055 1.367 . S
C1055 C1054 1.367 . S
C1055 C1057 1.433 . S
C1056 C1052 1.350 . S
C1056 C1053 1.463 . S
C1056 N1060 1.427 . S
C1057 H1047 0.929 . S
C1057 C1055 1.433 . S
C1057 N1060 1.384 . S
C1058 H1049 0.929 . S
C1058 C1050 1.378 . S
C1058 C1053 1.350 . S
C1059 H1046 0.929 . S
C1059 C1051 1.433 . S
C1059 N1061 1.384 . S
N1060 C1056 1.427 . S
N1060 C1057 1.384 . S
N1061 C1053 1.427 . S
N1061 C1059 1.384 . S
H1062 C1068 0.930 . S
H1063 C1072 0.930 . S
H1064 C1077 0.929 . S
H1065 C1075 0.929 . S
H1066 C1070 0.929 . S
H1067 C1076 0.929 . S
C1068 H1062 0.930 . S
C1068 C1069 1.367 . S
C1068 C1076 1.378 . S
C1069 C1068 1.367 . S
C1069 C1077 1.433 . S
C1070 H1066 0.929 . S
C1070 C1072 1.378 . S
C1070 C1074 1.350 . S
C1071 C1074 1.463 . S
C1071 C1076 1.350 . S
C1071 N1079 1.427 . S
C1072 H1063 0.930 . S
C1072 C1070 1.378 . S
C1072 C1073 1.367 . S
C1073 C1072 1.367 . S
C1073 C1075 1.433 . S
C1074 C1070 1.350 . S
C1074 C1071 1.463 . S
C1074 N1078 1.427 . S
C1075 H1065 0.929 . S
C1075 C1073 1.433 . S
C1075 N1078 1.384 . S
C1076 H1067 0.929 . S
C1076 C1068 1.378 . S
C1076 C1071 1.350 . S
C1077 H1064 0.929 . S
C1077 C1069 1.433 . S
C1077 N1079 1.384 . S
N1078 C1074 1.427 . S
N1078 C1075 1.384 . S
N1079 C1071 1.427 . S
N1079 C1077 1.384 . S
H1080 C1086 0.930 . S
H1081 C1090 0.930 . S
H1082 C1095 0.929 . S
H1083 C1093 0.929 1_545 S
H1084 C1088 0.929 . S
H1085 C1094 0.929 . S
C1086 H1080 0.930 . S
C1086 C1087 1.367 . S
C1086 C1094 1.378 . S
C1087 C1086 1.367 . S
C1087 C1095 1.433 . S
C1088 H1084 0.929 . S
C1088 C1090 1.378 . S
C1088 C1092 1.350 . S
C1089 C1092 1.463 . S
C1089 C1094 1.350 . S
C1089 N1097 1.427 . S
C1090 H1081 0.930 . S
C1090 C1088 1.378 . S
C1090 C1091 1.367 . S
C1091 C1090 1.367 . S
C1091 C1093 1.433 . S
C1092 C1088 1.350 . S
C1092 C1089 1.463 . S
C1092 N1096 1.427 . S
C1093 H1083 0.929 1_565 S
C1093 C1091 1.433 . S
C1093 N1096 1.384 . S
C1094 H1085 0.929 . S
C1094 C1086 1.378 . S
C1094 C1089 1.350 . S
C1095 H1082 0.929 . S
C1095 C1087 1.433 . S
C1095 N1097 1.384 . S
N1096 C1092 1.427 . S
N1096 C1093 1.384 . S
N1097 C1089 1.427 . S
N1097 C1095 1.384 . S
H1098 C1104 0.930 . S
H1099 C1108 0.930 . S
H1100 C1113 0.929 1_556 S
H1101 C1111 0.929 . S
H1102 C1106 0.929 . S
H1103 C1112 0.929 . S
C1104 H1098 0.930 . S
C1104 C1105 1.367 . S
C1104 C1112 1.378 . S
C1105 C1104 1.367 . S
C1105 C1113 1.433 . S
C1106 H1102 0.929 . S
C1106 C1108 1.378 . S
C1106 C1110 1.350 . S
C1107 C1110 1.463 . S
C1107 C1112 1.350 . S
C1107 N1115 1.427 . S
C1108 H1099 0.930 . S
C1108 C1106 1.378 . S
C1108 C1109 1.367 . S
C1109 C1108 1.367 . S
C1109 C1111 1.433 . S
C1110 C1106 1.350 . S
C1110 C1107 1.463 . S
C1110 N1114 1.427 . S
C1111 H1101 0.929 . S
C1111 C1109 1.433 . S
C1111 N1114 1.384 . S
C1112 H1103 0.929 . S
C1112 C1104 1.378 . S
C1112 C1107 1.350 . S
C1113 H1100 0.929 1_554 S
C1113 C1105 1.433 . S
C1113 N1115 1.384 . S
N1114 C1110 1.427 . S
N1114 C1111 1.384 . S
N1115 C1107 1.427 . S
N1115 C1113 1.384 . S
H1116 C1122 0.930 1_455 S
H1117 C1126 0.930 . S
H1118 C1131 0.929 . S
H1119 C1129 0.929 . S
H1120 C1124 0.929 . S
H1121 C1130 0.929 1_455 S
C1122 H1116 0.930 1_655 S
C1122 C1123 1.367 . S
C1122 C1130 1.378 . S
C1123 C1122 1.367 . S
C1123 C1131 1.433 . S
C1124 H1120 0.929 . S
C1124 C1126 1.378 . S
C1124 C1128 1.350 . S
C1125 C1128 1.463 . S
C1125 C1130 1.350 . S
C1125 N1133 1.427 . S
C1126 H1117 0.930 . S
C1126 C1124 1.378 . S
C1126 C1127 1.367 . S
C1127 C1126 1.367 . S
C1127 C1129 1.433 . S
C1128 C1124 1.350 . S
C1128 C1125 1.463 . S
C1128 N1132 1.427 . S
C1129 H1119 0.929 . S
C1129 C1127 1.433 . S
C1129 N1132 1.384 . S
C1130 H1121 0.929 1_655 S
C1130 C1122 1.378 . S
C1130 C1125 1.350 . S
C1131 H1118 0.929 . S
C1131 C1123 1.433 . S
C1131 N1133 1.384 . S
N1132 C1128 1.427 . S
N1132 C1129 1.384 . S
N1133 C1125 1.427 . S
N1133 C1131 1.384 . S
H1134 C1140 0.930 . S
H1135 C1144 0.930 . S
H1136 C1149 0.929 . S
H1137 C1147 0.929 . S
H1138 C1142 0.929 . S
H1139 C1148 0.929 . S
C1140 H1134 0.930 . S
C1140 C1141 1.367 . S
C1140 C1148 1.378 . S
C1141 C1140 1.367 . S
C1141 C1149 1.433 . S
C1142 H1138 0.929 . S
C1142 C1144 1.378 . S
C1142 C1146 1.350 . S
C1143 C1146 1.463 . S
C1143 C1148 1.350 . S
C1143 N1151 1.427 . S
C1144 H1135 0.930 . S
C1144 C1142 1.378 . S
C1144 C1145 1.367 . S
C1145 C1144 1.367 . S
C1145 C1147 1.433 . S
C1146 C1142 1.350 . S
C1146 C1143 1.463 . S
C1146 N1150 1.427 . S
C1147 H1137 0.929 . S
C1147 C1145 1.433 . S
C1147 N1150 1.384 . S
C1148 H1139 0.929 . S
C1148 C1140 1.378 . S
C1148 C1143 1.350 . S
C1149 H1136 0.929 . S
C1149 C1141 1.433 . S
C1149 N1151 1.384 . S
N1150 C1146 1.427 . S
N1150 C1147 1.384 . S
N1151 C1143 1.427 . S
N1151 C1149 1.384 . S
H1152 C1158 0.930 . S
H1153 C1162 0.930 . S
H1154 C1167 0.929 1_455 S
H1155 C1165 0.929 . S
H1156 C1160 0.929 . S
H1157 C1166 0.929 . S
C1158 H1152 0.930 . S
C1158 C1159 1.367 . S
C1158 C1166 1.378 . S
C1159 C1158 1.367 . S
C1159 C1167 1.433 . S
C1160 H1156 0.929 . S
C1160 C1162 1.378 . S
C1160 C1164 1.350 . S
C1161 C1164 1.463 . S
C1161 C1166 1.350 . S
C1161 N1169 1.427 . S
C1162 H1153 0.930 . S
C1162 C1160 1.378 . S
C1162 C1163 1.367 . S
C1163 C1162 1.367 . S
C1163 C1165 1.433 . S
C1164 C1160 1.350 . S
C1164 C1161 1.463 . S
C1164 N1168 1.427 . S
C1165 H1155 0.929 . S
C1165 C1163 1.433 . S
C1165 N1168 1.384 . S
C1166 H1157 0.929 . S
C1166 C1158 1.378 . S
C1166 C1161 1.350 . S
C1167 H1154 0.929 1_655 S
C1167 C1159 1.433 . S
C1167 N1169 1.384 . S
N1168 C1164 1.427 . S
N1168 C1165 1.384 . S
N1169 C1161 1.427 . S
N1169 C1167 1.384 . S
H1170 C1176 0.930 . S
H1171 C1180 0.930 . S
H1172 C1185 0.929 . S
H1173 C1183 0.929 . S
H1174 C1178 0.929 . S
H1175 C1184 0.929 . S
C1176 H1170 0.930 . S
C1176 C1177 1.367 . S
C1176 C1184 1.378 . S
C1177 C1176 1.367 . S
C1177 C1185 1.433 . S
C1178 H1174 0.929 . S
C1178 C1180 1.378 . S
C1178 C1182 1.350 . S
C1179 C1182 1.463 . S
C1179 C1184 1.350 . S
C1179 N1187 1.427 . S
C1180 H1171 0.930 . S
C1180 C1178 1.378 . S
C1180 C1181 1.367 . S
C1181 C1180 1.367 . S
C1181 C1183 1.433 . S
C1182 C1178 1.350 . S
C1182 C1179 1.463 . S
C1182 N1186 1.427 . S
C1183 H1173 0.929 . S
C1183 C1181 1.433 . S
C1183 N1186 1.384 . S
C1184 H1175 0.929 . S
C1184 C1176 1.378 . S
C1184 C1179 1.350 . S
C1185 H1172 0.929 . S
C1185 C1177 1.433 . S
C1185 N1187 1.384 . S
N1186 C1182 1.427 . S
N1186 C1183 1.384 . S
N1187 C1179 1.427 . S
N1187 C1185 1.384 . S
H1188 C1194 0.930 . S
H1189 C1198 0.930 . S
H1190 C1203 0.929 . S
H1191 C1201 0.929 . S
H1192 C1196 0.929 . S
H1193 C1202 0.929 . S
C1194 H1188 0.930 . S
C1194 C1195 1.367 . S
C1194 C1202 1.378 . S
C1195 C1194 1.367 . S
C1195 C1203 1.433 . S
C1196 H1192 0.929 . S
C1196 C1198 1.378 . S
C1196 C1200 1.350 . S
C1197 C1200 1.463 . S
C1197 C1202 1.350 . S
C1197 N1205 1.427 . S
C1198 H1189 0.930 . S
C1198 C1196 1.378 . S
C1198 C1199 1.367 . S
C1199 C1198 1.367 . S
C1199 C1201 1.433 . S
C1200 C1196 1.350 . S
C1200 C1197 1.463 . S
C1200 N1204 1.427 . S
C1201 H1191 0.929 . S
C1201 C1199 1.433 . S
C1201 N1204 1.384 . S
C1202 H1193 0.929 . S
C1202 C1194 1.378 . S
C1202 C1197 1.350 . S
C1203 H1190 0.929 . S
C1203 C1195 1.433 . S
C1203 N1205 1.384 . S
N1204 C1200 1.427 . S
N1204 C1201 1.384 . S
N1205 C1197 1.427 . S
N1205 C1203 1.384 . S
H1206 C1212 0.930 . S
H1207 C1216 0.930 . S
H1208 C1221 0.929 . S
H1209 C1219 0.929 1_554 S
H1210 C1214 0.929 . S
H1211 C1220 0.929 . S
C1212 H1206 0.930 . S
C1212 C1213 1.367 . S
C1212 C1220 1.378 . S
C1213 C1212 1.367 . S
C1213 C1221 1.433 . S
C1214 H1210 0.929 . S
C1214 C1216 1.378 . S
C1214 C1218 1.350 . S
C1215 C1218 1.463 . S
C1215 C1220 1.350 . S
C1215 N1223 1.427 . S
C1216 H1207 0.930 . S
C1216 C1214 1.378 . S
C1216 C1217 1.367 . S
C1217 C1216 1.367 . S
C1217 C1219 1.433 . S
C1218 C1214 1.350 . S
C1218 C1215 1.463 . S
C1218 N1222 1.427 . S
C1219 H1209 0.929 1_556 S
C1219 C1217 1.433 . S
C1219 N1222 1.384 . S
C1220 H1211 0.929 . S
C1220 C1212 1.378 . S
C1220 C1215 1.350 . S
C1221 H1208 0.929 . S
C1221 C1213 1.433 . S
C1221 N1223 1.384 . S
N1222 C1218 1.427 . S
N1222 C1219 1.384 . S
N1223 C1215 1.427 . S
N1223 C1221 1.384 . S
H1224 C1230 0.930 . S
H1225 C1234 0.930 . S
H1226 C1239 0.929 . S
H1227 C1237 0.929 . S
H1228 C1232 0.929 . S
H1229 C1238 0.929 . S
C1230 H1224 0.930 . S
C1230 C1231 1.367 . S
C1230 C1238 1.378 . S
C1231 C1230 1.367 . S
C1231 C1239 1.433 . S
C1232 H1228 0.929 . S
C1232 C1234 1.378 . S
C1232 C1236 1.350 . S
C1233 C1236 1.463 . S
C1233 C1238 1.350 . S
C1233 N1241 1.427 . S
C1234 H1225 0.930 . S
C1234 C1232 1.378 . S
C1234 C1235 1.367 . S
C1235 C1234 1.367 . S
C1235 C1237 1.433 . S
C1236 C1232 1.350 . S
C1236 C1233 1.463 . S
C1236 N1240 1.427 . S
C1237 H1227 0.929 . S
C1237 C1235 1.433 . S
C1237 N1240 1.384 . S
C1238 H1229 0.929 . S
C1238 C1230 1.378 . S
C1238 C1233 1.350 . S
C1239 H1226 0.929 . S
C1239 C1231 1.433 . S
C1239 N1241 1.384 . S
N1240 C1236 1.427 . S
N1240 C1237 1.384 . S
N1241 C1233 1.427 . S
N1241 C1239 1.384 . S
H1242 C1248 0.930 . S
H1243 C1252 0.930 . S
H1244 C1257 0.929 . S
H1245 C1255 0.929 1_554 S
H1246 C1250 0.929 . S
H1247 C1256 0.929 . S
C1248 H1242 0.930 . S
C1248 C1249 1.367 . S
C1248 C1256 1.378 . S
C1249 C1248 1.367 . S
C1249 C1257 1.433 . S
C1250 H1246 0.929 . S
C1250 C1252 1.378 . S
C1250 C1254 1.350 . S
C1251 C1254 1.463 . S
C1251 C1256 1.350 . S
C1251 N1259 1.427 . S
C1252 H1243 0.930 . S
C1252 C1250 1.378 . S
C1252 C1253 1.367 . S
C1253 C1252 1.367 . S
C1253 C1255 1.433 . S
C1254 C1250 1.350 . S
C1254 C1251 1.463 . S
C1254 N1258 1.427 . S
C1255 H1245 0.929 1_556 S
C1255 C1253 1.433 . S
C1255 N1258 1.384 . S
C1256 H1247 0.929 . S
C1256 C1248 1.378 . S
C1256 C1251 1.350 . S
C1257 H1244 0.929 . S
C1257 C1249 1.433 . S
C1257 N1259 1.384 . S
N1258 C1254 1.427 . S
N1258 C1255 1.384 . S
N1259 C1251 1.427 . S
N1259 C1257 1.384 . S
H1260 C1266 0.930 . S
H1261 C1270 0.930 . S
H1262 C1275 0.929 . S
H1263 C1273 0.929 1_565 S
H1264 C1268 0.929 . S
H1265 C1274 0.929 . S
C1266 H1260 0.930 . S
C1266 C1267 1.367 . S
C1266 C1274 1.378 . S
C1267 C1266 1.367 . S
C1267 C1275 1.433 1_565 S
C1268 H1264 0.929 . S
C1268 C1270 1.378 . S
C1268 C1272 1.350 . S
C1269 C1272 1.463 . S
C1269 C1274 1.350 1_545 S
C1269 N1277 1.427 . S
C1270 H1261 0.930 . S
C1270 C1268 1.378 . S
C1270 C1271 1.367 . S
C1271 C1270 1.367 . S
C1271 C1273 1.433 . S
C1272 C1268 1.350 . S
C1272 C1269 1.463 . S
C1272 N1276 1.427 1_545 S
C1273 H1263 0.929 1_545 S
C1273 C1271 1.433 . S
C1273 N1276 1.384 1_545 S
C1274 H1265 0.929 . S
C1274 C1266 1.378 . S
C1274 C1269 1.350 1_565 S
C1275 H1262 0.929 . S
C1275 C1267 1.433 1_545 S
C1275 N1277 1.384 . S
N1276 C1272 1.427 1_565 S
N1276 C1273 1.384 1_565 S
N1277 C1269 1.427 . S
N1277 C1275 1.384 . S
H1278 C1284 0.930 . S
H1279 C1288 0.930 . S
H1280 C1293 0.929 . S
H1281 C1291 0.929 . S
H1282 C1286 0.929 . S
H1283 C1292 0.930 . S
C1284 H1278 0.930 . S
C1284 C1285 1.367 . S
C1284 C1292 1.378 . S
C1285 C1284 1.367 . S
C1285 C1293 1.433 . S
C1286 H1282 0.929 . S
C1286 C1288 1.378 . S
C1286 C1290 1.350 . S
C1287 C1290 1.463 . S
C1287 C1292 1.350 . S
C1287 N1295 1.427 . S
C1288 H1279 0.930 . S
C1288 C1286 1.378 . S
C1288 C1289 1.367 1_455 S
C1289 C1288 1.367 1_655 S
C1289 C1291 1.433 . S
C1290 C1286 1.350 . S
C1290 C1287 1.463 . S
C1290 N1294 1.427 1_455 S
C1291 H1281 0.929 . S
C1291 C1289 1.433 . S
C1291 N1294 1.384 . S
C1292 H1283 0.930 . S
C1292 C1284 1.378 . S
C1292 C1287 1.350 . S
C1293 H1280 0.929 . S
C1293 C1285 1.433 . S
C1293 N1295 1.384 . S
N1294 C1290 1.427 1_655 S
N1294 C1291 1.384 . S
N1295 C1287 1.427 . S
N1295 C1293 1.384 . S
H1296 C1302 0.930 . S
H1297 C1306 0.930 . S
H1298 C1311 0.929 . S
H1299 C1309 0.929 . S
H1300 C1304 0.929 . S
H1301 C1310 0.929 . S
C1302 H1296 0.930 . S
C1302 C1303 1.367 . S
C1302 C1310 1.378 . S
C1303 C1302 1.367 . S
C1303 C1311 1.433 . S
C1304 H1300 0.929 . S
C1304 C1306 1.378 . S
C1304 C1308 1.350 . S
C1305 C1308 1.463 . S
C1305 C1310 1.350 . S
C1305 N1313 1.427 . S
C1306 H1297 0.930 . S
C1306 C1304 1.378 . S
C1306 C1307 1.367 . S
C1307 C1306 1.367 . S
C1307 C1309 1.433 . S
C1308 C1304 1.350 . S
C1308 C1305 1.463 . S
C1308 N1312 1.427 . S
C1309 H1299 0.929 . S
C1309 C1307 1.433 . S
C1309 N1312 1.384 . S
C1310 H1301 0.929 . S
C1310 C1302 1.378 . S
C1310 C1305 1.350 . S
C1311 H1298 0.929 . S
C1311 C1303 1.433 . S
C1311 N1313 1.384 . S
N1312 C1308 1.427 . S
N1312 C1309 1.384 . S
N1313 C1305 1.427 . S
N1313 C1311 1.384 . S
H1314 C1320 0.930 . S
H1315 C1324 0.930 . S
H1316 C1329 0.929 . S
H1317 C1327 0.929 . S
H1318 C1322 0.929 . S
H1319 C1328 0.929 . S
C1320 H1314 0.930 . S
C1320 C1321 1.367 . S
C1320 C1328 1.378 . S
C1321 C1320 1.367 . S
C1321 C1329 1.433 . S
C1322 H1318 0.929 . S
C1322 C1324 1.378 . S
C1322 C1326 1.350 1_655 S
C1323 C1326 1.463 . S
C1323 C1328 1.350 . S
C1323 N1331 1.427 . S
C1324 H1315 0.930 . S
C1324 C1322 1.378 . S
C1324 C1325 1.367 . S
C1325 C1324 1.367 . S
C1325 C1327 1.433 1_655 S
C1326 C1322 1.350 1_455 S
C1326 C1323 1.463 . S
C1326 N1330 1.427 . S
C1327 H1317 0.929 . S
C1327 C1325 1.433 1_455 S
C1327 N1330 1.384 . S
C1328 H1319 0.929 . S
C1328 C1320 1.378 . S
C1328 C1323 1.350 . S
C1329 H1316 0.929 . S
C1329 C1321 1.433 . S
C1329 N1331 1.384 . S
N1330 C1326 1.427 . S
N1330 C1327 1.384 . S
N1331 C1323 1.427 . S
N1331 C1329 1.384 . S
H1332 C1338 0.930 . S
H1333 C1342 0.930 . S
H1334 C1347 0.929 . S
H1335 C1345 0.929 . S
H1336 C1340 0.929 . S
H1337 C1346 0.929 . S
C1338 H1332 0.930 . S
C1338 C1339 1.367 . S
C1338 C1346 1.378 . S
C1339 C1338 1.367 . S
C1339 C1347 1.433 . S
C1340 H1336 0.929 . S
C1340 C1342 1.378 . S
C1340 C1344 1.350 . S
C1341 C1344 1.463 . S
C1341 C1346 1.350 . S
C1341 N1349 1.427 . S
C1342 H1333 0.930 . S
C1342 C1340 1.378 . S
C1342 C1343 1.367 . S
C1343 C1342 1.367 . S
C1343 C1345 1.433 . S
C1344 C1340 1.350 . S
C1344 C1341 1.463 . S
C1344 N1348 1.427 . S
C1345 H1335 0.929 . S
C1345 C1343 1.433 . S
C1345 N1348 1.384 . S
C1346 H1337 0.929 . S
C1346 C1338 1.378 . S
C1346 C1341 1.350 . S
C1347 H1334 0.929 . S
C1347 C1339 1.433 . S
C1347 N1349 1.384 . S
N1348 C1344 1.427 . S
N1348 C1345 1.384 . S
N1349 C1341 1.427 . S
N1349 C1347 1.384 . S
H1350 C1356 0.930 . S
H1351 C1360 0.930 . S
H1352 C1365 0.929 . S
H1353 C1363 0.929 . S
H1354 C1358 0.929 . S
H1355 C1364 0.929 . S
C1356 H1350 0.930 . S
C1356 C1357 1.367 . S
C1356 C1364 1.378 . S
C1357 C1356 1.367 . S
C1357 C1365 1.433 . S
C1358 H1354 0.929 . S
C1358 C1360 1.378 . S
C1358 C1362 1.350 1_565 S
C1359 C1362 1.463 . S
C1359 C1364 1.350 . S
C1359 N1367 1.427 . S
C1360 H1351 0.930 . S
C1360 C1358 1.378 . S
C1360 C1361 1.367 . S
C1361 C1360 1.367 . S
C1361 C1363 1.433 1_565 S
C1362 C1358 1.350 1_545 S
C1362 C1359 1.463 . S
C1362 N1366 1.427 . S
C1363 H1353 0.929 . S
C1363 C1361 1.433 1_545 S
C1363 N1366 1.384 . S
C1364 H1355 0.929 . S
C1364 C1356 1.378 . S
C1364 C1359 1.350 . S
C1365 H1352 0.929 . S
C1365 C1357 1.433 . S
C1365 N1367 1.384 . S
N1366 C1362 1.427 . S
N1366 C1363 1.384 . S
N1367 C1359 1.427 . S
N1367 C1365 1.384 . S
C403 C249 1.301 . S
C407 C8 1.331 . S
C421 C29 1.331 . S
C425 C213 1.319 . S
C439 C62 1.290 . S
C443 C241 1.258 . S
C457 C337 1.285 . S
C461 C51 1.312 . S
C475 C21 1.290 . S
C479 C370 1.283 . S
C493 C40 1.290 . S
C497 C381 1.266 . S
C511 C316 1.243 . S
C515 C84 1.264 . S
C529 C103 1.278 . S
C533 C282 1.270 . S
C547 C118 1.274 . S
C551 C307 1.249 . S
C565 C147 1.284 . S
C569 C131 1.302 . S
C583 C73 1.342 . S
C587 C175 1.324 . S
C601 C191 1.268 . S
C605 C98 1.301 . S
C619 C382 1.270 . S
C623 C140 1.292 . S
C637 C338 1.236 . S
C641 C172 1.259 . S
C655 C367 1.245 1_455 S
C659 C184 1.278 . S
C673 C87 1.295 . S
C677 C197 1.314 . S
C691 C96 1.304 . S
C695 C153 1.318 . S
C709 C161 1.353 . S
C713 C125 1.333 . S
C727 C54 1.313 . S
C731 C219 1.333 . S
C745 C18 1.275 . S
C749 C227 1.302 . S
C763 C257 1.318 . S
C767 C43 1.311 . S
C781 C252 1.268 . S
C785 C279 1.246 . S
C799 C206 1.286 . S
C803 C296 1.260 . S
C817 C238 1.304 . S
C821 C315 1.275 1_455 S
C835 C272 1.298 . S
C839 C128 1.271 . S
C853 C293 1.308 . S
C857 C76 1.301 . S
C871 C318 1.313 . S
C875 C95 1.280 . S
C889 C323 1.283 . S
C893 C216 1.264 . S
C907 C285 1.315 . S
C911 C230 1.307 1_545 S
C925 C304 1.275 . S
C929 C250 1.255 . S
C943 C340 1.299 . S
C947 C194 1.262 . S
C961 C373 1.299 . S
C965 C150 1.277 1_545 S
C979 C164 1.222 . S
C983 C384 1.255 . S
C997 C15 1.317 . S
C1001 C389 1.338 . S
C1015 C32 1.318 . S
C1019 C345 1.323 . S
C1033 C360 1.321 . S
C1037 C65 1.291 . S
C1051 C162 1.122 . S
C1055 C7 1.130 . S
C1069 C186 1.109 . S
C1073 C30 1.108 . S
C1087 C142 1.127 . S
C1091 C59 1.134 . S
C1105 C294 1.101 1_554 S
C1109 C52 1.102 . S
C1123 C10 1.136 . S
C1127 C329 1.144 1_554 S
C1141 C37 1.177 . S
C1145 C271 1.176 1_554 S
C1159 C81 1.178 . S
C1163 C359 1.179 . S
C1177 C106 1.103 . S
C1181 C392 1.101 . S
C1195 C117 1.144 . S
C1199 C348 1.137 . S
C1213 C120 1.103 . S
C1217 C228 1.103 1_556 S
C1231 C260 1.103 1_556 S
C1235 C74 1.101 . S
C1249 C109 1.132 . S
C1253 C208 1.124 1_556 S
C1267 C139 1.176 . S
C1271 C301 1.176 . S
C1285 C169 1.159 . S
C1289 C326 1.154 . S
C1303 C183 1.152 . S
C1307 C274 1.144 . S
C1321 C263 1.155 . S
C1325 C362 1.148 . S
C1339 C395 1.181 . S
C1343 C205 1.180 . S
C1357 C351 1.176 . S
C1361 C235 1.176 . S
