# Generated by pormake.
# Topology lcy-e, (6)-cn, num edge types: 1
# Building blocks:
#     Node 0, Type 0, BuildingBlock: BETDIP_clean_sbu_0, # of connection points: 6
#     Node 1, Type 0, BuildingBlock: BETDIP_clean_sbu_0, # of connection points: 6
#     Node 2, Type 0, BuildingBlock: BETDIP_clean_sbu_0, # of connection points: 6
#     Node 3, Type 0, BuildingBlock: BETDIP_clean_sbu_0, # of connection points: 6
#     Node 4, Type 0, BuildingBlock: BETDIP_clean_sbu_0, # of connection points: 6
#     Node 5, Type 0, BuildingBlock: BETDIP_clean_sbu_0, # of connection points: 6
#     Node 6, Type 0, BuildingBlock: BETDIP_clean_sbu_0, # of connection points: 6
#     Node 7, Type 0, BuildingBlock: BETDIP_clean_sbu_0, # of connection points: 6
#     Node 8, Type 0, BuildingBlock: BETDIP_clean_sbu_0, # of connection points: 6
#     Node 9, Type 0, BuildingBlock: BETDIP_clean_sbu_0, # of connection points: 6
#     Node 10, Type 0, BuildingBlock: BETDIP_clean_sbu_0, # of connection points: 6
#     Node 11, Type 0, BuildingBlock: BETDIP_clean_sbu_0, # of connection points: 6
#     Edge 12, Type (0, 0), BuildingBlock: EZIPEK_clean_linker_0, # of connection points: 2
#     Edge 13, Type (0, 0), BuildingBlock: EZIPEK_clean_linker_0, # of connection points: 2
#     Edge 14, Type (0, 0), BuildingBlock: EZIPEK_clean_linker_0, # of connection points: 2
#     Edge 15, Type (0, 0), BuildingBlock: EZIPEK_clean_linker_0, # of connection points: 2
#     Edge 16, Type (0, 0), BuildingBlock: EZIPEK_clean_linker_0, # of connection points: 2
#     Edge 17, Type (0, 0), BuildingBlock: EZIPEK_clean_linker_0, # of connection points: 2
#     Edge 18, Type (0, 0), BuildingBlock: EZIPEK_clean_linker_0, # of connection points: 2
#     Edge 19, Type (0, 0), BuildingBlock: EZIPEK_clean_linker_0, # of connection points: 2
#     Edge 20, Type (0, 0), BuildingBlock: EZIPEK_clean_linker_0, # of connection points: 2
#     Edge 21, Type (0, 0), BuildingBlock: EZIPEK_clean_linker_0, # of connection points: 2
#     Edge 22, Type (0, 0), BuildingBlock: EZIPEK_clean_linker_0, # of connection points: 2
#     Edge 23, Type (0, 0), BuildingBlock: EZIPEK_clean_linker_0, # of connection points: 2
#     Edge 24, Type (0, 0), BuildingBlock: EZIPEK_clean_linker_0, # of connection points: 2
#     Edge 25, Type (0, 0), BuildingBlock: EZIPEK_clean_linker_0, # of connection points: 2
#     Edge 26, Type (0, 0), BuildingBlock: EZIPEK_clean_linker_0, # of connection points: 2
#     Edge 27, Type (0, 0), BuildingBlock: EZIPEK_clean_linker_0, # of connection points: 2
#     Edge 28, Type (0, 0), BuildingBlock: EZIPEK_clean_linker_0, # of connection points: 2
#     Edge 29, Type (0, 0), BuildingBlock: EZIPEK_clean_linker_0, # of connection points: 2
#     Edge 30, Type (0, 0), BuildingBlock: EZIPEK_clean_linker_0, # of connection points: 2
#     Edge 31, Type (0, 0), BuildingBlock: EZIPEK_clean_linker_0, # of connection points: 2
#     Edge 32, Type (0, 0), BuildingBlock: EZIPEK_clean_linker_0, # of connection points: 2
#     Edge 33, Type (0, 0), BuildingBlock: EZIPEK_clean_linker_0, # of connection points: 2
#     Edge 34, Type (0, 0), BuildingBlock: EZIPEK_clean_linker_0, # of connection points: 2
#     Edge 35, Type (0, 0), BuildingBlock: EZIPEK_clean_linker_0, # of connection points: 2
#     Edge 36, Type (0, 0), BuildingBlock: EZIPEK_clean_linker_0, # of connection points: 2
#     Edge 37, Type (0, 0), BuildingBlock: EZIPEK_clean_linker_0, # of connection points: 2
#     Edge 38, Type (0, 0), BuildingBlock: EZIPEK_clean_linker_0, # of connection points: 2
#     Edge 39, Type (0, 0), BuildingBlock: EZIPEK_clean_linker_0, # of connection points: 2
#     Edge 40, Type (0, 0), BuildingBlock: EZIPEK_clean_linker_0, # of connection points: 2
#     Edge 41, Type (0, 0), BuildingBlock: EZIPEK_clean_linker_0, # of connection points: 2
#     Edge 42, Type (0, 0), BuildingBlock: EZIPEK_clean_linker_0, # of connection points: 2
#     Edge 43, Type (0, 0), BuildingBlock: EZIPEK_clean_linker_0, # of connection points: 2
#     Edge 44, Type (0, 0), BuildingBlock: EZIPEK_clean_linker_0, # of connection points: 2
#     Edge 45, Type (0, 0), BuildingBlock: EZIPEK_clean_linker_0, # of connection points: 2
#     Edge 46, Type (0, 0), BuildingBlock: EZIPEK_clean_linker_0, # of connection points: 2
#     Edge 47, Type (0, 0), BuildingBlock: EZIPEK_clean_linker_0, # of connection points: 2
# Relax obj value: 0.209
# Max RMSD: 0.307
# Mean RMSD: 0.289
data_MOF--net-lcy-e--node1-BETDIP_clean_sbu_0--edge1-EZIPEK_clean_linker_0
_symmetry_space_group_name_H-M    P1
_symmetry_Int_Tables_number       1
_symmetry_cell_setting            triclinic
loop_
_symmetry_equiv_pos_as_xyz
'x, y, z'
_cell_length_a     32.553931
_cell_length_b     35.226488
_cell_length_c     35.137276
_cell_angle_alpha  91.05056
_cell_angle_beta   90.168625
_cell_angle_gamma 88.851718
loop_
_atom_site_label
_atom_site_type_symbol
_atom_site_fract_x
_atom_site_fract_y
_atom_site_fract_z
_atom_type_partial_charge
Tb0 Tb 0.15596 0.26497 0.57752 0.0
Tb1 Tb 0.12302 0.31742 0.51843 0.0
C2 C 0.15724 0.22 0.63255 0.0
C3 C 0.13702 0.18347 0.64105 0.0
C4 C 0.09412 0.18173 0.64564 0.0
C5 C 0.07553 0.14773 0.6553 0.0
C6 C 0.09942 0.11478 0.6617 0.0
C7 C 0.14218 0.11617 0.6566 0.0
C8 C 0.16076 0.15012 0.64623 0.0
C9 C 0.20206 0.26419 0.51637 0.0
C10 C 0.07927 0.24038 0.52282 0.0
C11 C 0.11355 0.35457 0.45798 0.0
C12 C 0.1352 0.37283 0.42627 0.0
C13 C 0.17666 0.38265 0.42799 0.0
C14 C 0.19546 0.40001 0.39683 0.0
C15 C 0.17271 0.41015 0.36371 0.0
C16 C 0.13281 0.39483 0.36107 0.0
C17 C 0.11408 0.37778 0.392 0.0
C18 C 0.0843 0.31985 0.58653 0.0
C19 C 0.19332 0.34811 0.57215 0.0
O20 O 0.13339 0.25031 0.63093 0.0
O21 O 0.18509 0.21935 0.60571 0.0
O22 O 0.16276 0.26688 0.51666 0.0
O23 O 0.21552 0.26046 0.55098 0.0
O24 O 0.10638 0.23123 0.54975 0.0
O25 O 0.07936 0.27373 0.50678 0.0
O26 O 0.11665 0.31757 0.4591 0.0
O27 O 0.11461 0.3704 0.49204 0.0
O28 O 0.12148 0.31531 0.57886 0.0
O29 O 0.0671 0.32921 0.55443 0.0
O30 O 0.17706 0.34833 0.53758 0.0
O31 O 0.18526 0.31928 0.59515 0.0
H32 H 0.07486 0.20689 0.64276 0.0
H33 H 0.04257 0.14752 0.65949 0.0
H34 H 0.1613 0.09126 0.66178 0.0
H35 H 0.19385 0.15055 0.64321 0.0
H36 H 0.19469 0.37629 0.45309 0.0
H37 H 0.22804 0.40388 0.39925 0.0
H38 H 0.11533 0.39563 0.33491 0.0
H39 H 0.08286 0.36801 0.38889 0.0
Tb40 Tb 0.98137 0.90734 0.75439 0.0
Tb41 Tb 0.04521 0.93706 0.80859 0.0
C42 C 0.92473 0.90149 0.70518 0.0
C43 C 0.91404 0.9189 0.66774 0.0
C44 C 0.87554 0.93704 0.66276 0.0
C45 C 0.86351 0.95099 0.62708 0.0
C46 C 0.88963 0.94712 0.59539 0.0
C47 C 0.92854 0.92982 0.60039 0.0
C48 C 0.94066 0.91594 0.63613 0.0
C49 C 0.04898 0.86535 0.75652 0.0
C50 C 0.03591 0.98143 0.73442 0.0
C51 C 0.10852 0.94175 0.85005 0.0
C52 C 0.13889 0.91637 0.8694 0.0
C53 C 0.16357 0.88984 0.84884 0.0
C54 C 0.19399 0.86811 0.86726 0.0
C55 C 0.20129 0.8732 0.90644 0.0
C56 C 0.17647 0.89941 0.92704 0.0
C57 C 0.14559 0.92066 0.90875 0.0
C58 C 0.97133 0.97342 0.80974 0.0
C59 C 0.99008 0.8715 0.83612 0.0
O60 O 0.92188 0.92326 0.73567 0.0
O61 O 0.95718 0.87905 0.70641 0.0
O62 O 0.04744 0.90157 0.75753 0.0
O63 O 1.0122 0.85256 0.75225 0.0
O64 O 1.00524 0.95842 0.72538 0.0
O65 O 0.05803 0.9771 0.76534 0.0
O66 O 0.10906 0.94156 0.81279 0.0
O67 O 0.07101 0.94366 0.86351 0.0
O68 O 0.97957 0.9389 0.80508 0.0
O69 O 1.00564 0.98845 0.82088 0.0
O70 O 0.02768 0.88439 0.83481 0.0
O71 O 0.96283 0.88041 0.80885 0.0
H72 H 0.85431 0.93976 0.68639 0.0
H73 H 0.83333 0.96409 0.62399 0.0
H74 H 0.94922 0.9264 0.57643 0.0
H75 H 0.9706 0.90226 0.63876 0.0
H76 H 0.15982 0.88615 0.81838 0.0
H77 H 0.21254 0.84795 0.85079 0.0
H78 H 0.18139 0.90378 0.9573 0.0
H79 H 0.12746 0.9411 0.92528 0.0
Tb80 Tb 0.36228 0.80359 0.06969 0.0
Tb81 Tb 0.38978 0.74288 1.01468 0.0
C82 C 0.3494 0.84908 0.1252 0.0
C83 C 0.36273 0.88833 0.13395 0.0
C84 C 0.38995 0.90669 0.10962 0.0
C85 C 0.40897 0.94038 0.12131 0.0
C86 C 0.40066 0.95667 0.15734 0.0
C87 C 0.37193 0.93932 0.18089 0.0
C88 C 0.35334 0.90534 0.16938 0.0
C89 C 0.33152 0.81138 1.00026 0.0
C90 C 0.439 0.81995 1.01814 0.0
C91 C 0.40417 0.70756 0.95248 0.0
C92 C 0.38248 0.69238 0.91779 0.0
C93 C 0.38293 0.6531 0.90957 0.0
C94 C 0.36821 0.6389 0.87449 0.0
C95 C 0.35288 0.6636 0.84652 0.0
C96 C 0.35109 0.70274 0.85511 0.0
C97 C 0.36558 0.71695 0.89025 0.0
C98 C 0.41914 0.73636 0.08666 0.0
C99 C 0.31744 0.72181 0.0628 0.0
O100 O 0.37951 0.82421 0.12345 0.0
O101 O 0.32313 0.84399 0.09736 0.0
O102 O 0.3369 0.78053 1.01764 0.0
O103 O 0.34294 0.83879 0.02254 0.0
O104 O 0.41707 0.83103 0.04803 0.0
O105 O 0.43277 0.78731 1.00035 0.0
O106 O 0.405 0.7445 0.95691 0.0
O107 O 0.39965 0.69051 0.98506 0.0
O108 O 0.41364 0.76612 0.06777 0.0
O109 O 0.41472 0.70841 0.06235 0.0
O110 O 0.33104 0.72018 0.02771 0.0
O111 O 0.32748 0.75125 0.08531 0.0
H112 H 0.39787 0.89418 0.08222 0.0
H113 H 0.4311 0.95313 0.10274 0.0
H114 H 0.36524 0.95124 0.20888 0.0
H115 H 0.33293 0.89152 0.18885 0.0
H116 H 0.3961 0.63339 0.92975 0.0
H117 H 0.37028 0.60864 0.86854 0.0
H118 H 0.33976 0.72245 0.83404 0.0
H119 H 0.36487 0.74739 0.89519 0.0
Tb120 Tb 0.54035 0.15607 0.24655 0.0
Tb121 Tb 0.4781 0.13344 0.30379 0.0
C122 C 0.59587 0.16112 0.19679 0.0
C123 C 0.60891 0.14416 0.15963 0.0
C124 C 0.60886 0.10496 0.15208 0.0
C125 C 0.62567 0.08993 0.11804 0.0
C126 C 0.64586 0.1133 0.09165 0.0
C127 C 0.63864 0.15289 0.09699 0.0
C128 C 0.622 0.168 0.13087 0.0
C129 C 0.47549 0.20167 0.25032 0.0
C130 C 0.48008 0.08527 0.22961 0.0
C131 C 0.41649 0.13386 0.34793 0.0
C132 C 0.3869 0.15967 0.36909 0.0
C133 C 0.35414 0.17834 0.35017 0.0
C134 C 0.32308 0.19798 0.37071 0.0
C135 C 0.32381 0.19936 0.4107 0.0
C136 C 0.35697 0.18173 0.42964 0.0
C137 C 0.388 0.16202 0.40913 0.0
C138 C 0.55018 0.09353 0.30417 0.0
C139 C 0.53974 0.19682 0.32728 0.0
O140 O 0.59932 0.14017 0.22707 0.0
O141 O 0.56201 0.18164 0.19701 0.0
O142 O 0.4749 0.16564 0.25187 0.0
O143 O 0.51303 0.21211 0.24615 0.0
O144 O 0.51262 0.10494 0.21941 0.0
O145 O 0.4598 0.09271 0.26117 0.0
O146 O 0.4142 0.13318 0.31076 0.0
O147 O 0.4546 0.13098 0.35984 0.0
O148 O 0.54371 0.128 0.29848 0.0
O149 O 0.51489 0.08062 0.31491 0.0
O150 O 0.5014 0.18559 0.32934 0.0
O151 O 0.56337 0.18589 0.29799 0.0
H152 H 0.5959 0.08586 0.17243 0.0
H153 H 0.62175 0.05999 0.11301 0.0
H154 H 0.64604 0.17293 0.07528 0.0
H155 H 0.61978 0.19857 0.13473 0.0
H156 H 0.35178 0.17694 0.31943 0.0
H157 H 0.29794 0.21139 0.35542 0.0
H158 H 0.35829 0.1824 0.46045 0.0
H159 H 0.41227 0.14761 0.42472 0.0
Tb160 Tb 0.62336 0.24949 0.56092 0.0
Tb161 Tb 0.658 0.3058 0.5067 0.0
C162 C 0.6181 0.19685 0.60798 0.0
C163 C 0.63976 0.18607 0.64367 0.0
C164 C 0.67445 0.16165 0.64213 0.0
C165 C 0.6934 0.14909 0.67545 0.0
C166 C 0.67743 0.15975 0.71122 0.0
C167 C 0.64343 0.18489 0.7131 0.0
C168 C 0.62484 0.19806 0.67962 0.0
C169 C 0.57998 0.31303 0.55668 0.0
C170 C 0.70045 0.30143 0.58582 0.0
C171 C 0.66397 0.36443 0.46669 0.0
C172 C 0.63767 0.39462 0.44904 0.0
C173 C 0.63977 0.40067 0.40963 0.0
C174 C 0.61998 0.43229 0.39335 0.0
C175 C 0.59784 0.4587 0.41615 0.0
C176 C 0.5945 0.45212 0.4553 0.0
C177 C 0.61411 0.42046 0.47158 0.0
C178 C 0.69677 0.23765 0.50783 0.0
C179 C 0.58793 0.25136 0.47739 0.0
O180 O 0.63945 0.19407 0.57648 0.0
O181 O 0.59461 0.22748 0.60907 0.0
O182 O 0.61892 0.31 0.55602 0.0
O183 O 0.56485 0.27963 0.56148 0.0
O184 O 0.67419 0.27457 0.59443 0.0
O185 O 0.69971 0.31816 0.55264 0.0
O186 O 0.66559 0.36442 0.50387 0.0
O187 O 0.66345 0.3299 0.45216 0.0
O188 O 0.65946 0.24575 0.51163 0.0
O189 O 0.71379 0.26906 0.49752 0.0
O190 O 0.60431 0.28536 0.47539 0.0
O191 O 0.59261 0.2305 0.50835 0.0
H192 H 0.68609 0.15099 0.61514 0.0
H193 H 0.71913 0.12918 0.67332 0.0
H194 H 0.63022 0.19296 0.7404 0.0
H195 H 0.59796 0.21657 0.6819 0.0
H196 H 0.65795 0.38163 0.39157 0.0
H197 H 0.62313 0.43687 0.36311 0.0
H198 H 0.57766 0.47212 0.47345 0.0
H199 H 0.61187 0.417 0.50206 0.0
Tb200 Tb 0.99117 0.4183 0.76252 0.0
Tb201 Tb 0.04652 0.38491 0.82122 0.0
C202 C 0.94609 0.4239 0.70452 0.0
C203 C 0.90792 0.40531 0.69163 0.0
C204 C 0.90469 0.39227 0.65376 0.0
C205 C 0.86921 0.37407 0.641 0.0
C206 C 0.83628 0.36864 0.66589 0.0
C207 C 0.83947 0.38139 0.70387 0.0
C208 C 0.8751 0.3994 0.71673 0.0
C209 C 0.98732 0.4564 0.82732 0.0
C210 C 0.96592 0.34181 0.80729 0.0
C211 C 0.08601 0.37374 0.88232 0.0
C212 C 0.09963 0.39482 0.91727 0.0
C213 C 0.13456 0.41778 0.91755 0.0
C214 C 0.14872 0.43439 0.95172 0.0
C215 C 0.12838 0.42831 0.98629 0.0
C216 C 0.09293 0.40631 0.98591 0.0
C217 C 0.07885 0.38966 0.95188 0.0
C218 C 0.05565 0.35707 0.74877 0.0
C219 C 0.07639 0.45673 0.7802 0.0
O220 O 0.97885 0.40183 0.70593 0.0
O221 O 0.94335 0.447 0.7341 0.0
O222 O 0.99048 0.42009 0.82408 0.0
O223 O 0.98337 0.4709 0.7938 0.0
O224 O 0.95658 0.36768 0.78132 0.0
O225 O 0.99982 0.34345 0.82737 0.0
O226 O 0.04642 0.36947 0.87847 0.0
O227 O 0.10366 0.38038 0.84972 0.0
O228 O 0.04762 0.38986 0.76078 0.0
O229 O 0.06399 0.33787 0.77927 0.0
O230 O 0.07408 0.43998 0.8133 0.0
O231 O 0.04861 0.44984 0.75295 0.0
H232 H 0.92967 0.39619 0.634 0.0
H233 H 0.86724 0.36453 0.61158 0.0
H234 H 0.81433 0.37752 0.72345 0.0
H235 H 0.87693 0.40872 0.74622 0.0
H236 H 0.15147 0.42227 0.89157 0.0
H237 H 0.17619 0.45123 0.95137 0.0
H238 H 0.07681 0.40116 1.01218 0.0
H239 H 0.0521 0.3719 0.95284 0.0
Tb240 Tb 0.90476 0.80572 0.06289 0.0
Tb241 Tb 0.88404 0.7506 0.99937 0.0
C242 C 0.90833 0.86236 0.10838 0.0
C243 C 0.89689 0.87166 0.14856 0.0
C244 C 0.87109 0.84798 0.1693 0.0
C245 C 0.85428 0.86033 0.20438 0.0
C246 C 0.86284 0.89663 0.21943 0.0
C247 C 0.88982 0.91965 0.19939 0.0
C248 C 0.90653 0.90735 0.16432 0.0
C249 C 0.94057 0.73782 0.06944 0.0
C250 C 0.83112 0.75059 0.07537 0.0
C251 C 0.87435 0.68777 0.96431 0.0
C252 C 0.89717 0.65335 0.94879 0.0
C253 C 0.90666 0.62233 0.97242 0.0
C254 C 0.92276 0.58794 0.95724 0.0
C255 C 0.9297 0.5834 0.91796 0.0
C256 C 0.92108 0.61444 0.89434 0.0
C257 C 0.905 0.64893 0.90952 0.0
C258 C 0.85396 0.82184 0.99164 0.0
C259 C 0.95478 0.80149 0.98157 0.0
O260 O 0.87716 0.85496 0.0862 0.0
O261 O 0.93958 0.83912 0.10158 0.0
O262 O 0.93411 0.75566 0.03908 0.0
O263 O 0.92758 0.75926 0.09742 0.0
O264 O 0.85321 0.77831 0.08984 0.0
O265 O 0.83717 0.73654 0.0408 0.0
O266 O 0.8735 0.69228 1.00135 0.0
O267 O 0.87708 0.72037 0.94705 0.0
O268 O 0.85727 0.80318 0.0219 0.0
O269 O 0.86061 0.79764 0.96377 0.0
O270 O 0.94241 0.7664 0.9777 0.0
O271 O 0.94255 0.82203 1.01202 0.0
H272 H 0.86266 0.82053 0.15767 0.0
H273 H 0.83363 0.84202 0.21926 0.0
H274 H 0.89693 0.94771 0.21034 0.0
H275 H 0.92575 0.9264 0.14875 0.0
H276 H 0.90039 0.6241 1.00265 0.0
H277 H 0.92875 0.56445 0.97607 0.0
H278 H 0.92589 0.61167 0.86392 0.0
H279 H 0.89753 0.67175 0.8903 0.0
Tb280 Tb 0.48727 0.66842 0.31935 0.0
Tb281 Tb 0.54752 0.64054 0.2639 0.0
C282 C 0.42731 0.68339 0.36331 0.0
C283 C 0.41598 0.66756 0.40092 0.0
C284 C 0.41932 0.62818 0.40732 0.0
C285 C 0.4054 0.61273 0.44132 0.0
C286 C 0.38825 0.63621 0.47005 0.0
C287 C 0.38626 0.67569 0.46443 0.0
C288 C 0.39985 0.69119 0.43014 0.0
C289 C 0.56136 0.69784 0.33034 0.0
C290 C 0.53874 0.59466 0.33975 0.0
C291 C 0.61374 0.62362 0.23034 0.0
C292 C 0.64276 0.64467 0.20647 0.0
C293 C 0.6593 0.67933 0.2192 0.0
C294 C 0.68856 0.69771 0.19739 0.0
C295 C 0.7015 0.68203 0.16235 0.0
C296 C 0.68428 0.64803 0.14908 0.0
C297 C 0.65522 0.62944 0.17102 0.0
C298 C 0.46985 0.61778 0.2512 0.0
C299 C 0.49886 0.70609 0.23514 0.0
O300 O 0.42617 0.65943 0.33476 0.0
O301 O 0.45993 0.70431 0.3618 0.0
O302 O 0.54355 0.69172 0.29877 0.0
O303 O 0.53791 0.68485 0.35646 0.0
O304 O 0.50592 0.61581 0.34792 0.0
O305 O 0.56111 0.6012 0.30962 0.0
O306 O 0.61148 0.63401 0.26626 0.0
O307 O 0.5776 0.61663 0.21575 0.0
O308 O 0.48834 0.62013 0.28286 0.0
O309 O 0.49728 0.6229 0.22517 0.0
O310 O 0.53706 0.69467 0.23818 0.0
O311 O 0.47367 0.69971 0.26436 0.0
H312 H 0.43173 0.60903 0.38561 0.0
H313 H 0.40714 0.58225 0.44488 0.0
H314 H 0.37291 0.69435 0.4861 0.0
H315 H 0.39688 0.72153 0.4261 0.0
H316 H 0.65017 0.69201 0.24627 0.0
H317 H 0.70153 0.72392 0.20808 0.0
H318 H 0.694 0.63549 0.12212 0.0
H319 H 0.64294 0.60286 0.16057 0.0
Tb320 Tb 0.2909 0.48996 0.1493 0.0
Tb321 Tb 0.23506 0.54813 0.17574 0.0
C322 C 0.3462 0.43862 0.14892 0.0
C323 C 0.35222 0.39809 0.15874 0.0
C324 C 0.34042 0.38443 0.19431 0.0
C325 C 0.35594 0.34956 0.20719 0.0
C326 C 0.38592 0.32849 0.18611 0.0
C327 C 0.38938 0.33851 0.1473 0.0
C328 C 0.37448 0.37362 0.13437 0.0
C329 C 0.22262 0.48852 0.10952 0.0
C330 C 0.23552 0.47727 0.2246 0.0
C331 C 0.17957 0.59877 0.18413 0.0
C332 C 0.14776 0.61885 0.16179 0.0
C333 C 0.15052 0.62252 0.12211 0.0
C334 C 0.11807 0.63939 0.1017 0.0
C335 C 0.08314 0.6539 0.12092 0.0
C336 C 0.08087 0.65071 0.16059 0.0
C337 C 0.11276 0.63312 0.18078 0.0
C338 C 0.31152 0.55057 0.20733 0.0
C339 C 0.28548 0.56744 0.10603 0.0
O340 O 0.33833 0.46164 0.17761 0.0
O341 O 0.32466 0.44735 0.11866 0.0
O342 O 0.22461 0.49455 0.14548 0.0
O343 O 0.25903 0.48104 0.09645 0.0
O344 O 0.26385 0.46378 0.20064 0.0
O345 O 0.21777 0.51036 0.21943 0.0
O346 O 0.17385 0.56256 0.18857 0.0
O347 O 0.21804 0.60612 0.17735 0.0
O348 O 0.30137 0.54397 0.17365 0.0
O349 O 0.27716 0.5575 0.22495 0.0
O350 O 0.24759 0.56645 0.1184 0.0
O351 O 0.31204 0.54105 0.11851 0.0
H352 H 0.32066 0.40135 0.21299 0.0
H353 H 0.34519 0.34014 0.23444 0.0
H354 H 0.40395 0.32014 0.12632 0.0
H355 H 0.38162 0.38214 0.10571 0.0
H356 H 0.17754 0.61228 0.10695 0.0
H357 H 0.12043 0.64171 0.07109 0.0
H358 H 0.05423 0.66172 0.17591 0.0
H359 H 0.10999 0.63048 0.21134 0.0
Tb360 Tb 0.79712 0.05287 0.91207 0.0
Tb361 Tb 0.72727 1.00169 0.88856 0.0
C362 C 0.85728 0.09731 0.91015 0.0
C363 C 0.86729 0.13339 0.89052 0.0
C364 C 0.90651 0.13783 0.87465 0.0
C365 C 0.9176 0.17233 0.85828 0.0
C366 C 0.88975 0.20337 0.85734 0.0
C367 C 0.85008 0.19867 0.8722 0.0
C368 C 0.839 0.16416 0.88863 0.0
C369 C 0.73402 0.05695 0.95828 0.0
C370 C 0.73533 0.0742 0.84212 0.0
C371 C 0.6614 0.96467 0.88713 0.0
C372 C 0.63389 0.94316 0.91244 0.0
C373 C 0.60846 0.96207 0.93944 0.0
C374 C 0.5788 0.94231 0.95954 0.0
C375 C 0.57341 0.90332 0.95276 0.0
C376 C 0.59939 0.88411 0.92664 0.0
C377 C 0.62931 0.90383 0.90669 0.0
C378 C 0.79935 0.99353 0.8506 0.0
C379 C 0.78784 0.97214 0.95066 0.0
O380 O 0.85474 0.06647 0.88895 0.0
O381 O 0.8285 0.09909 0.93611 0.0
O382 O 0.7316 0.05411 0.92204 0.0
O383 O 0.77216 0.0602 0.96831 0.0
O384 O 0.7706 0.07983 0.86037 0.0
O385 O 0.71063 0.04701 0.85153 0.0
O386 O 0.66319 1.00138 0.89296 0.0
O387 O 0.69729 0.94974 0.87826 0.0
O388 O 0.79231 1.00089 0.88457 0.0
O389 O 0.76379 0.98602 0.83553 0.0
O390 O 0.74874 0.97553 0.94105 0.0
O391 O 0.81478 0.99823 0.93967 0.0
H392 H 0.92897 0.11475 0.87558 0.0
H393 H 0.94836 0.17511 0.84714 0.0
H394 H 0.82799 0.22207 0.8719 0.0
H395 H 0.80853 0.16183 0.90052 0.0
H396 H 0.6105 0.99241 0.9443 0.0
H397 H 0.55906 0.95771 0.97949 0.0
H398 H 0.5957 0.85406 0.92089 0.0
H399 H 0.64796 0.88852 0.88578 0.0
Tb400 Tb 0.73286 0.99714 0.42394 0.0
Tb401 Tb 0.79241 0.05131 0.39424 0.0
C402 C 0.67629 0.94859 0.42206 0.0
C403 C 0.66957 0.90808 0.41027 0.0
C404 C 0.67999 0.89457 0.37338 0.0
C405 C 0.66662 0.85908 0.35989 0.0
C406 C 0.64292 0.83591 0.383 0.0
C407 C 0.63437 0.84838 0.42051 0.0
C408 C 0.64735 0.88412 0.43389 0.0
C409 C 0.7996 0.99867 0.4658 0.0
C410 C 0.79261 0.97443 0.35199 0.0
C411 C 0.85318 0.09461 0.38874 0.0
C412 C 0.88447 0.11287 0.41417 0.0
C413 C 0.92129 0.09332 0.42352 0.0
C414 C 0.95272 0.1115 0.44384 0.0
C415 C 0.94825 0.14971 0.45542 0.0
C416 C 0.9112 0.16911 0.44711 0.0
C417 C 0.87973 0.15095 0.42663 0.0
C418 C 0.71635 0.05115 0.36016 0.0
C419 C 0.73924 0.08123 0.46031 0.0
O420 O 0.6844 0.97166 0.39453 0.0
O421 O 0.69798 0.95616 0.45271 0.0
O422 O 0.79869 1.00082 0.42939 0.0
O423 O 0.76281 0.99273 0.47823 0.0
O424 O 0.76442 0.96444 0.37701 0.0
O425 O 0.80922 1.00795 0.35335 0.0
O426 O 0.85543 0.05761 0.38505 0.0
O427 O 0.81499 0.10701 0.39039 0.0
O428 O 0.72626 0.04742 0.39428 0.0
O429 O 0.75063 0.06043 0.34394 0.0
O430 O 0.77716 0.07861 0.4482 0.0
O431 O 0.71337 0.05331 0.45144 0.0
H432 H 0.69696 0.91211 0.35421 0.0
H433 H 0.67351 0.85029 0.33086 0.0
H434 H 0.61591 0.8312 0.43883 0.0
H435 H 0.63844 0.89372 0.4622 0.0
H436 H 0.92643 0.06413 0.41423 0.0
H437 H 0.98105 0.09601 0.44967 0.0
H438 H 0.90716 0.19869 0.45546 0.0
H439 H 0.85212 0.16707 0.41969 0.0
Tb440 Tb 0.30032 0.51403 0.67291 0.0
Tb441 Tb 0.23182 0.57438 0.6543 0.0
C442 C 0.33993 0.45232 0.6658 0.0
C443 C 0.38 0.43823 0.65108 0.0
C444 C 0.38266 0.40121 0.63576 0.0
C445 C 0.41941 0.38716 0.61996 0.0
C446 C 0.45429 0.40987 0.61914 0.0
C447 C 0.4518 0.44708 0.63432 0.0
C448 C 0.41477 0.46127 0.65003 0.0
C449 C 0.3175 0.57938 0.70874 0.0
C450 C 0.31077 0.57185 0.60384 0.0
C451 C 0.18147 0.62986 0.65226 0.0
C452 C 0.16885 0.66517 0.67327 0.0
C453 C 0.19743 0.69295 0.6841 0.0
C454 C 0.18405 0.72816 0.69938 0.0
C455 C 0.14191 0.73632 0.70381 0.0
C456 C 0.11348 0.70834 0.69391 0.0
C457 C 0.12683 0.67313 0.67883 0.0
C458 C 0.22573 0.50439 0.62233 0.0
C459 C 0.22321 0.52689 0.72819 0.0
O460 O 0.31463 0.46559 0.63996 0.0
O461 O 0.33954 0.47298 0.69737 0.0
O462 O 0.28774 0.57246 0.68636 0.0
O463 O 0.33977 0.54839 0.70995 0.0
O464 O 0.32142 0.53869 0.61892 0.0
O465 O 0.28009 0.59303 0.61725 0.0
O466 O 0.21772 0.62936 0.63627 0.0
O467 O 0.17276 0.59713 0.66707 0.0
O468 O 0.23904 0.51429 0.65413 0.0
O469 O 0.21127 0.53515 0.60701 0.0
O470 O 0.21799 0.56052 0.7127 0.0
O471 O 0.25113 0.50198 0.71416 0.0
H472 H 0.35611 0.38313 0.63586 0.0
H473 H 0.42075 0.35838 0.60856 0.0
H474 H 0.47847 0.46497 0.63406 0.0
H475 H 0.41324 0.49013 0.66121 0.0
H476 H 0.23003 0.68789 0.6799 0.0
H477 H 0.20646 0.74934 0.70694 0.0
H478 H 0.08085 0.71406 0.69719 0.0
H479 H 0.10416 0.65247 0.6704 0.0
C480 C 0.22667 0.41261 0.56013 0.0
C481 C 0.21277 0.38502 0.58649 0.0
C482 C 0.20714 0.43596 0.63537 0.0
C483 C 0.22045 0.46357 0.60922 0.0
N484 N 0.25415 0.47538 0.54994 0.0
N485 N 0.21104 0.37001 0.65335 0.0
C486 C 0.2333 0.45111 0.57243 0.0
C487 C 0.20972 0.39645 0.62546 0.0
N488 N 0.23458 0.40203 0.5233 0.0
N489 N 0.19001 0.44736 0.66922 0.0
H490 H 0.21901 0.34168 0.64792 0.0
H491 H 0.21139 0.37717 0.68226 0.0
H492 H 0.18288 0.4757 0.6757 0.0
H493 H 0.17823 0.42854 0.6887 0.0
H494 H 0.23765 0.42127 0.50138 0.0
H495 H 0.23795 0.37379 0.51459 0.0
H496 H 0.26848 0.4672 0.52456 0.0
H497 H 0.26064 0.50308 0.55843 0.0
C498 C 0.87241 0.97288 0.86161 0.0
C499 C 0.8425 0.987 0.83573 0.0
C500 C 0.89931 0.99706 0.79075 0.0
C501 C 0.92861 0.98731 0.81947 0.0
N502 N 0.9401 0.9827 0.88683 0.0
N503 N 0.82936 1.01866 0.77657 0.0
C504 C 0.91422 0.98085 0.85641 0.0
C505 C 0.85642 1.00091 0.80035 0.0
N506 N 0.86149 0.949 0.88963 0.0
N507 N 0.91231 1.00262 0.75448 0.0
H508 H 0.7982 0.02156 0.78279 0.0
H509 H 0.83833 0.03267 0.7522 0.0
H510 H 0.9433 1.00162 0.7472 0.0
H511 H 0.89231 1.0059 0.73151 0.0
H512 H 0.8322 0.93786 0.89026 0.0
H513 H 0.88287 0.93636 0.9079 0.0
H514 H 0.92975 0.97996 0.91473 0.0
H515 H 0.97042 0.99129 0.88418 0.0
C516 C 0.27754 0.6611 0.05244 0.0
C517 C 0.3001 0.68528 0.07749 0.0
C518 C 0.32274 0.62935 0.11307 0.0
C519 C 0.29802 0.60503 0.09028 0.0
N520 N 0.24795 0.59907 0.04002 0.0
N521 N 0.32542 0.69209 0.14144 0.0
C522 C 0.27419 0.62143 0.06043 0.0
C523 C 0.31716 0.66937 0.11076 0.0
N524 N 0.25897 0.67631 1.02117 0.0
N525 N 0.35196 0.61477 0.1368 0.0
H526 H 0.31404 0.7199 0.14309 0.0
H527 H 0.33649 0.6816 0.16715 0.0
H528 H 0.35986 0.58606 0.137 0.0
H529 H 0.37224 0.6319 0.15203 0.0
H530 H 0.24648 0.66013 0.99908 0.0
H531 H 0.25684 0.70559 1.0172 0.0
H532 H 0.22595 0.60964 1.02122 0.0
H533 H 0.24727 0.56966 0.04307 0.0
C534 C 0.60033 0.07929 0.35721 0.0
C535 C 0.59146 0.07909 0.31786 0.0
C536 C 0.66361 0.05812 0.30512 0.0
C537 C 0.67212 0.05686 0.34505 0.0
N538 N 0.63918 0.04992 0.40663 0.0
N539 N 0.6127 0.06242 0.2542 0.0
C540 C 0.63794 0.06293 0.37045 0.0
C541 C 0.62265 0.06693 0.29177 0.0
N542 N 0.57297 0.09546 0.3825 0.0
N543 N 0.69429 0.05003 0.27964 0.0
H544 H 0.58368 0.06941 0.24356 0.0
H545 H 0.632 0.0496 0.23399 0.0
H546 H 0.72207 0.03711 0.28722 0.0
H547 H 0.69231 0.05626 0.25084 0.0
H548 H 0.57984 0.09996 0.41118 0.0
H549 H 0.54511 0.10805 0.37444 0.0
H550 H 0.61433 0.05153 0.42525 0.0
H551 H 0.66113 0.03062 0.41534 0.0
C552 C 0.708 0.18745 0.45636 0.0
C553 C 0.71062 0.19843 0.49524 0.0
C554 C 0.72546 0.13148 0.51175 0.0
C555 C 0.72484 0.12062 0.47268 0.0
N556 N 0.72582 0.14139 0.40733 0.0
N557 N 0.73201 0.18277 0.55847 0.0
C558 C 0.71897 0.14952 0.44488 0.0
C559 C 0.7221 0.17088 0.52255 0.0
N560 N 0.69427 0.21309 0.43018 0.0
N561 N 0.7293 0.10412 0.53864 0.0
H562 H 0.73057 0.21135 0.5665 0.0
H563 H 0.7457 0.16519 0.57857 0.0
H564 H 0.73223 0.07529 0.53155 0.0
H565 H 0.72635 0.10969 0.56772 0.0
H566 H 0.68741 0.20591 0.40205 0.0
H567 H 0.68651 0.24123 0.43701 0.0
H568 H 0.72727 0.16188 0.38642 0.0
H569 H 0.73421 0.11461 0.39739 0.0
C570 C 0.11456 0.51612 0.76359 0.0
C571 C 0.11541 0.47691 0.77199 0.0
C572 C 0.19135 0.47666 0.76871 0.0
C573 C 0.1896 0.51368 0.75411 0.0
N574 N 0.15356 0.57388 0.76053 0.0
N575 N 0.15562 0.41913 0.78249 0.0
C576 C 0.1523 0.53518 0.75812 0.0
C577 C 0.15417 0.45716 0.77536 0.0
N578 N 0.07778 0.5352 0.76062 0.0
N579 N 0.22864 0.46128 0.7786 0.0
H580 H 0.12966 0.40301 0.78656 0.0
H581 H 0.1823 0.40245 0.78056 0.0
H582 H 0.25554 0.47684 0.77735 0.0
H583 H 0.2324 0.4357 0.79268 0.0
H584 H 0.07494 0.56257 0.75007 0.0
H585 H 0.04972 0.5228 0.76648 0.0
H586 H 0.12792 0.59126 0.76596 0.0
H587 H 0.18122 0.58815 0.76305 0.0
C588 C 0.83188 0.93129 0.99383 0.0
C589 C 0.80234 0.93397 0.96463 0.0
C590 C 0.79857 0.86388 0.96343 0.0
C591 C 0.83371 0.86085 0.98706 0.0
N592 N 0.88797 0.89525 1.01931 0.0
N593 N 0.76617 0.90035 0.91421 0.0
C594 C 0.85128 0.89552 1.00111 0.0
C595 C 0.78749 0.89961 0.94767 0.0
N596 N 0.84128 0.96274 1.0152 0.0
N597 N 0.77563 0.83261 0.9557 0.0
H598 H 0.76329 0.92471 0.89814 0.0
H599 H 0.75741 0.87585 0.89947 0.0
H600 H 0.7821 0.80622 0.96759 0.0
H601 H 0.74767 0.83413 0.94119 0.0
H602 H 0.8597 0.96152 0.0395 0.0
H603 H 0.82723 0.98923 1.01104 0.0
H604 H 0.90478 0.9196 0.02506 0.0
H605 H 0.90239 0.87045 0.02665 0.0
C606 C 0.42727 0.56299 0.22747 0.0
C607 C 0.4283 0.60013 0.24343 0.0
C608 C 0.35268 0.60607 0.23277 0.0
C609 C 0.35204 0.56849 0.21786 0.0
N610 N 0.39301 0.52224 0.18262 0.0
N611 N 0.38964 0.65638 0.26327 0.0
C612 C 0.39042 0.54963 0.21033 0.0
C613 C 0.3903 0.62133 0.24672 0.0
N614 N 0.46157 0.54004 0.22872 0.0
N615 N 0.31863 0.62916 0.22871 0.0
H616 H 0.41607 0.66989 0.27034 0.0
H617 H 0.36325 0.67065 0.27288 0.0
H618 H 0.29246 0.62103 0.21383 0.0
H619 H 0.3177 0.65812 0.235 0.0
H620 H 0.46125 0.51133 0.22098 0.0
H621 H 0.48908 0.54859 0.24122 0.0
H622 H 0.42055 0.50911 0.17415 0.0
H623 H 0.36941 0.51843 0.16315 0.0
C624 C 0.58742 0.19542 0.38395 0.0
C625 C 0.55673 0.21507 0.36272 0.0
C626 C 0.5433 0.25696 0.41875 0.0
C627 C 0.5713 0.23488 0.44084 0.0
N628 N 0.61168 0.17649 0.44585 0.0
N629 N 0.5044 0.26418 0.35995 0.0
C630 C 0.59067 0.20209 0.42397 0.0
C631 C 0.53444 0.24583 0.38025 0.0
N632 N 0.61437 0.17076 0.36611 0.0
N633 N 0.52499 0.2886 0.43482 0.0
H634 H 0.49996 0.25926 0.33085 0.0
H635 H 0.48321 0.28342 0.37186 0.0
H636 H 0.52704 0.29499 0.46387 0.0
H637 H 0.50862 0.30891 0.41951 0.0
H638 H 0.63971 0.15846 0.3796 0.0
H639 H 0.61463 0.16533 0.337 0.0
H640 H 0.62232 0.15022 0.43552 0.0
H641 H 0.61553 0.17906 0.47508 0.0
C642 C 0.04919 0.30652 0.64941 0.0
C643 C 0.07035 0.33207 0.62599 0.0
C644 C 0.08195 0.37339 0.68228 0.0
C645 C 0.06336 0.34655 0.70679 0.0
N646 N 0.03203 0.28554 0.71305 0.0
N647 N 0.10403 0.3914 0.61893 0.0
C648 C 0.04783 0.31247 0.69009 0.0
C649 C 0.08526 0.36623 0.64214 0.0
N650 N 0.02877 0.27739 0.63223 0.0
N651 N 0.09818 0.40544 0.69773 0.0
H652 H 0.10459 0.38819 0.58936 0.0
H653 H 0.11911 0.41555 0.62828 0.0
H654 H 0.10708 0.40674 0.72598 0.0
H655 H 0.10371 0.43003 0.68283 0.0
H656 H 1.00984 0.25891 0.64642 0.0
H657 H 0.02758 0.27431 0.60267 0.0
H658 H 0.02418 0.25848 0.70357 0.0
H659 H 0.02904 0.28928 0.74238 0.0
C660 C 0.97622 0.81427 0.87619 0.0
C661 C 0.9786 0.85416 0.8734 0.0
C662 C 0.97738 0.85956 0.94408 0.0
C663 C 0.97336 0.81958 0.94661 0.0
N664 N 0.99124 0.75992 0.91536 0.0
N665 N 0.99109 0.91405 0.90538 0.0
C666 C 0.97913 0.79712 0.91268 0.0
C667 C 0.98169 0.87657 0.90763 0.0
N668 N 0.97206 0.79252 0.84391 0.0
N669 N 0.9787 0.88143 0.9765 0.0
H670 H 0.99277 0.92798 0.87966 0.0
H671 H 0.99949 0.931 0.92857 0.0
H672 H 0.98721 0.87035 1.00273 0.0
H673 H 0.97293 0.91062 0.97715 0.0
H674 H 0.96629 0.76354 0.8444 0.0
H675 H 0.97074 0.80416 0.81682 0.0
H676 H 0.99878 0.74278 0.89183 0.0
H677 H 0.99985 0.74805 0.94125 0.0
C678 C 0.49942 0.705 0.16054 0.0
C679 C 0.48269 0.71895 0.19638 0.0
C680 C 0.42429 0.74541 0.16015 0.0
C681 C 0.44205 0.73366 0.12452 0.0
N682 N 0.50382 0.71333 0.09223 0.0
N683 N 0.43611 0.76447 0.22582 0.0
C684 C 0.48195 0.71719 0.12528 0.0
C685 C 0.44734 0.74291 0.19471 0.0
N686 N 0.53006 0.67803 0.15892 0.0
N687 N 0.38448 0.75722 0.16188 0.0
H688 H 0.45361 0.7654 0.25072 0.0
H689 H 0.41257 0.78496 0.22507 0.0
H690 H 0.36691 0.75974 0.13768 0.0
H691 H 0.36849 0.76149 0.18732 0.0
H692 H 0.53854 0.66388 0.13375 0.0
H693 H 0.54464 0.66651 0.18211 0.0
H694 H 0.53492 0.70567 0.09167 0.0
H695 H 0.49229 0.72181 0.06593 0.0
C696 C 0.23217 0.44228 0.32657 0.0
C697 C 0.18992 0.433 0.33038 0.0
C698 C 0.17887 0.45223 0.26404 0.0
C699 C 0.22171 0.45577 0.25853 0.0
N700 N 0.2902 0.45143 0.28481 0.0
N701 N 0.12479 0.45955 0.3101 0.0
C702 C 0.24874 0.44933 0.2897 0.0
C703 C 0.1633 0.44631 0.30109 0.0
N704 N 0.25383 0.45322 0.35802 0.0
N705 N 0.15266 0.45445 0.2337 0.0
H706 H 0.1149 0.46218 0.33828 0.0
H707 H 0.10543 0.47288 0.29054 0.0
H708 H 0.16298 0.45775 0.20587 0.0
H709 H 0.12139 0.44899 0.23594 0.0
H710 H 0.2839 0.46272 0.35704 0.0
H711 H 0.23894 0.46036 0.38349 0.0
H712 H 0.31122 0.44316 0.30566 0.0
H713 H 0.30358 0.45838 0.25903 0.0
C714 C 0.85469 0.93269 0.53237 0.0
C715 C 0.87491 0.95916 0.55666 0.0
C716 C 0.85787 1.01034 0.51175 0.0
C717 C 0.83501 0.98439 0.48924 0.0
N718 N 0.8216 0.91982 0.4713 0.0
N719 N 0.90359 1.02108 0.56589 0.0
C720 C 0.83698 0.94511 0.49735 0.0
C721 C 0.87917 0.99738 0.54502 0.0
N722 N 0.85071 0.89601 0.54369 0.0
N723 N 0.858 0.04758 0.50168 0.0
H724 H 0.91908 1.01237 0.59036 0.0
H725 H 0.91068 0.0485 0.55803 0.0
H726 H 0.84565 0.05653 0.47586 0.0
H727 H 0.86999 0.0694 0.51837 0.0
H728 H 0.83233 0.87629 0.52978 0.0
H729 H 0.8642 0.88562 0.56847 0.0
H730 H 0.82471 0.89049 0.47343 0.0
H731 H 0.80895 0.92848 0.44547 0.0
C732 C 0.29268 0.62941 0.75775 0.0
C733 C 0.32485 0.61219 0.73607 0.0
C734 C 0.37541 0.63767 0.78201 0.0
C735 C 0.34286 0.64881 0.80704 0.0
N736 N 0.27017 0.65524 0.81906 0.0
N737 N 0.39639 0.61166 0.72009 0.0
C738 C 0.30136 0.64522 0.79473 0.0
C739 C 0.3662 0.61997 0.74609 0.0
N740 N 0.25442 0.63249 0.74218 0.0
N741 N 0.41519 0.64323 0.79315 0.0
H742 H 0.38977 0.6011 0.69286 0.0
H743 H 0.42721 0.61804 0.72366 0.0
H744 H 0.42296 0.65828 0.81789 0.0
H745 H 0.44077 0.63235 0.77873 0.0
H746 H 0.22993 0.64704 0.75516 0.0
H747 H 0.249 0.62509 0.71383 0.0
H748 H 0.23946 0.64936 0.81368 0.0
H749 H 0.27529 0.66722 0.84599 0.0
C750 C 0.67427 0.05807 0.04801 0.0
C751 C 0.67106 0.0976 0.05744 0.0
C752 C 0.70374 0.11065 0.99579 0.0
C753 C 0.70168 0.07192 0.98487 0.0
N754 N 0.6776 1.00974 0.9982 0.0
N755 N 0.71272 0.15285 0.04945 0.0
C756 C 0.6839 0.04618 1.01006 0.0
C757 C 0.69359 0.1222 0.03369 0.0
N758 N 0.67796 0.03218 0.07624 0.0
N759 N 0.71704 0.13635 0.97022 0.0
H760 H 0.7141 0.15732 0.07887 0.0
H761 H 0.73252 0.16986 0.03432 0.0
H762 H 0.72493 0.12846 0.94234 0.0
H763 H 0.71617 0.16555 0.97571 0.0
H764 H 0.68325 1.00327 0.071 0.0
H765 H 0.68395 0.04059 0.10431 0.0
H766 H 0.66209 0.99028 1.01464 0.0
H767 H 0.6837 1.00086 0.9703 0.0
C768 C 0.71453 0.15801 0.77505 0.0
C769 C 0.69209 0.13937 0.74571 0.0
C770 C 0.70517 0.07857 0.77615 0.0
C771 C 0.72311 0.0973 0.80827 0.0
N772 N 0.73699 0.15677 0.84091 0.0
N773 N 0.65672 0.08331 0.72433 0.0
C774 C 0.7259 0.13763 0.80845 0.0
C775 C 0.68453 0.10012 0.74817 0.0
N776 N 0.72553 0.19489 0.77082 0.0
N777 N 0.70939 0.04019 0.771 0.0
H778 H 0.63995 0.09818 0.70389 0.0
H779 H 0.64705 0.05553 0.72771 0.0
H780 H 0.72627 0.02306 0.7892 0.0
H781 H 0.70043 0.02605 0.7461 0.0
H782 H 0.74554 0.20873 0.78937 0.0
H783 H 0.71729 0.2106 0.74699 0.0
H784 H 0.73594 0.18628 0.84352 0.0
H785 H 0.74313 0.14331 0.8665 0.0
C786 C 0.1623 0.49724 0.06553 0.0
C787 C 0.18691 0.47279 0.08812 0.0
C788 C 0.16843 0.41837 0.04723 0.0
C789 C 0.14561 0.44315 0.02319 0.0
N790 N 0.11304 0.50422 1.01366 0.0
N791 N 0.20375 0.40954 0.10769 0.0
C792 C 0.13997 0.48205 0.0338 0.0
C793 C 0.18645 0.43306 0.08135 0.0
N794 N 0.16161 0.53519 0.07391 0.0
N795 N 0.17488 0.38126 0.03635 0.0
H796 H 0.21679 0.41995 0.13288 0.0
H797 H 0.20171 0.38009 0.10653 0.0
H798 H 0.16221 0.36935 1.01172 0.0
H799 H 0.195 0.3628 0.05025 0.0
H800 H 0.14874 0.55583 0.05645 0.0
H801 H 0.17481 0.54582 0.09886 0.0
H802 H 0.10483 0.53198 1.02141 0.0
H803 H 0.09654 0.49387 0.99031 0.0
C804 C 0.84802 0.9323 0.32251 0.0
C805 C 0.80725 0.94749 0.32118 0.0
C806 C 0.80155 0.92659 0.25403 0.0
C807 C 0.84242 0.91147 0.2553 0.0
N808 N 0.9015 0.89301 0.29238 0.0
N809 N 0.74241 0.95286 0.28851 0.0
C810 C 0.86468 0.9122 0.29014 0.0
C811 C 0.78306 0.94235 0.28786 0.0
N812 N 0.87115 0.93797 0.35459 0.0
N813 N 0.78115 0.92764 0.21997 0.0
H814 H 0.72832 0.96539 0.31236 0.0
H815 H 0.72181 0.94658 0.26669 0.0
H816 H 0.79332 0.91602 0.19482 0.0
H817 H 0.75337 0.94213 0.21589 0.0
H818 H 0.90255 0.93206 0.35616 0.0
H819 H 0.8591 0.95022 0.37953 0.0
H820 H 0.91767 0.88908 0.31764 0.0
H821 H 0.91453 0.87827 0.26923 0.0
C822 C 0.37484 0.59267 0.56896 0.0
C823 C 0.33195 0.58564 0.56888 0.0
C824 C 0.32605 0.61359 0.50506 0.0
C825 C 0.36914 0.61894 0.50437 0.0
N826 N 0.43565 0.60904 0.53309 0.0
N827 N 0.26821 0.58286 0.53368 0.0
C828 C 0.39387 0.60696 0.53555 0.0
C829 C 0.308 0.59441 0.53605 0.0
N830 N 0.39705 0.5876 0.60162 0.0
N831 N 0.30207 0.62728 0.47615 0.0
H832 H 0.25359 0.56887 0.55548 0.0
H833 H 0.25065 0.58396 0.50891 0.0
H834 H 0.31401 0.63931 0.45176 0.0
H835 H 0.27014 0.6291 0.47733 0.0
H836 H 0.42723 0.59624 0.60515 0.0
H837 H 0.38438 0.57718 0.62644 0.0
H838 H 0.45581 0.59681 0.55261 0.0
H839 H 0.45043 0.62097 0.51002 0.0
C840 C 0.22151 0.2153 0.46437 0.0
C841 C 0.22889 0.25051 0.48375 0.0
C842 C 0.2946 0.25504 0.44895 0.0
C843 C 0.28939 0.2182 0.43308 0.0
N844 N 0.24929 0.16179 0.42704 0.0
N845 N 0.27599 0.30086 0.49841 0.0
C846 C 0.25289 0.19819 0.44071 0.0
C847 C 0.26631 0.26962 0.47684 0.0
N848 N 0.18516 0.19735 0.46944 0.0
N849 N 0.32657 0.27639 0.43704 0.0
H850 H 0.25645 0.31257 0.51906 0.0
H851 H 0.3047 0.31338 0.49814 0.0
H852 H 0.34808 0.26642 0.41708 0.0
H853 H 0.32967 0.30501 0.44419 0.0
H854 H 0.17541 0.17481 0.45236 0.0
H855 H 0.16342 0.20588 0.48959 0.0
H856 H 0.22629 0.14353 0.43513 0.0
H857 H 0.27101 0.14869 0.40913 0.0
C858 C 0.06389 0.0828 0.71551 0.0
C859 C 0.08011 0.08045 0.67811 0.0
C860 C 0.06289 1.01248 0.67478 0.0
C861 C 0.04477 1.01573 0.71145 0.0
N862 N 0.01666 0.05709 0.76055 0.0
N863 N 0.08807 0.045 0.61919 0.0
C864 C 0.04178 0.0519 0.72982 0.0
C865 C 0.07745 0.04582 0.65677 0.0
N866 N 0.07118 0.11387 0.73827 0.0
N867 N 0.06767 0.97749 0.65783 0.0
H868 H 0.09878 0.0688 0.60534 0.0
H869 H 0.08313 0.0218 0.60109 0.0
H870 H 0.05634 0.95292 0.66973 0.0
H871 H 0.0848 0.97254 0.63319 0.0
H872 H 0.06383 0.11513 0.76711 0.0
H873 H 0.08833 0.13683 0.72957 0.0
H874 H 1.01023 0.08359 0.77305 0.0
H875 H 0.99819 0.03565 0.77025 0.0
C876 C 0.2251 0.82577 0.95516 0.0
C877 C 0.23507 0.85161 0.92625 0.0
C878 C 0.30846 0.83869 0.93849 0.0
C879 C 0.29834 0.81878 0.97176 0.0
N880 N 0.24569 0.79728 1.01447 0.0
N881 N 0.28702 0.88582 0.89278 0.0
C882 C 0.2563 0.81286 0.98064 0.0
C883 C 0.27702 0.85859 0.91817 0.0
N884 N 0.18578 0.81329 0.95809 0.0
N885 N 0.34827 0.83845 0.92629 0.0
H886 H 0.26514 0.90169 0.87789 0.0
H887 H 0.31691 0.895 0.88893 0.0
H888 H 0.37166 0.82354 0.94032 0.0
H889 H 0.35722 0.84957 0.9004 0.0
H890 H 0.1775 0.79159 0.97612 0.0
H891 H 0.16233 0.82189 0.93966 0.0
H892 H 0.2155 0.79657 0.02416 0.0
H893 H 0.26695 0.78788 0.03452 0.0
C894 C 0.47883 1.01539 0.21374 0.0
C895 C 0.46516 0.05292 0.20558 0.0
C896 C 0.41358 0.02738 0.1609 0.0
C897 C 0.42458 0.9899 0.17193 0.0
N898 N 0.46771 0.9474 0.20814 0.0
N899 N 0.41893 0.09541 0.17291 0.0
C900 C 0.45753 0.98371 0.19791 0.0
C901 C 0.43267 0.05911 0.17917 0.0
N902 N 0.51233 1.01019 0.23674 0.0
N903 N 0.38486 0.03256 0.1329 0.0
H904 H 0.43322 0.11916 0.18463 0.0
H905 H 0.39242 0.1022 0.15768 0.0
H906 H 0.36908 1.01019 0.12017 0.0
H907 H 0.37831 0.05858 0.12049 0.0
H908 H 0.52694 0.98412 0.24119 0.0
H909 H 0.52734 0.03267 0.24995 0.0
H910 H 0.48783 0.94058 0.23012 0.0
H911 H 0.4547 0.92348 0.19544 0.0
C912 C 0.79273 0.31113 0.65346 0.0
C913 C 0.7978 0.35101 0.65143 0.0
C914 C 0.73098 0.35722 0.61948 0.0
C915 C 0.72951 0.31713 0.61503 0.0
N916 N 0.75601 0.25526 0.63207 0.0
N917 N 0.77224 0.41251 0.6324 0.0
C918 C 0.75918 0.29382 0.63382 0.0
C919 C 0.76683 0.37423 0.63474 0.0
N920 N 0.81984 0.29001 0.67453 0.0
N921 N 0.69722 0.37892 0.61026 0.0
H922 H 0.79725 0.42631 0.64459 0.0
H923 H 0.75334 0.4303 0.61636 0.0
H924 H 0.66982 0.36705 0.60075 0.0
H925 H 0.69468 0.40798 0.61595 0.0
H926 H 0.81609 0.26148 0.68052 0.0
H927 H 0.84509 0.30174 0.68844 0.0
H928 H 0.77937 0.23637 0.63992 0.0
H929 H 0.72963 0.24188 0.62264 0.0
C930 C 0.99814 0.49842 0.88482 0.0
C931 C 0.9705 0.47875 0.86072 0.0
C932 C 0.91433 0.52176 0.88284 0.0
C933 C 0.94348 0.54554 0.90114 0.0
N934 N 1.01351 0.55649 0.92015 0.0
N935 N 0.90161 0.46951 0.83828 0.0
C936 C 0.98546 0.53353 0.90282 0.0
C937 C 0.9282 0.48948 0.86075 0.0
N938 N 0.03645 0.48313 0.89054 0.0
N939 N 0.87333 0.52986 0.887 0.0
H940 H 0.91041 0.44439 0.82404 0.0
H941 H 0.87149 0.47824 0.83274 0.0
H942 H 0.86224 0.55326 0.90275 0.0
H943 H 0.85023 0.51198 0.87754 0.0
H944 H 0.05765 0.49411 0.90983 0.0
H945 H 0.0451 0.45678 0.87878 0.0
H946 H 0.04511 0.55152 0.91901 0.0
H947 H 1.00528 0.582 0.93392 0.0
C948 C 0.75636 0.74506 0.09181 0.0
C949 C 0.79798 0.73436 0.09868 0.0
C950 C 0.77618 0.68838 0.14602 0.0
C951 C 0.73469 0.70031 0.14045 0.0
N952 N 0.68499 0.74261 0.1118 0.0
N953 N 0.84852 0.69917 0.13467 0.0
C954 C 0.7247 0.72945 0.11438 0.0
C955 C 0.80816 0.70702 0.12656 0.0
N956 N 0.74714 0.76967 0.0632 0.0
N957 N 0.78484 0.65849 0.16926 0.0
H958 H 0.8727 0.71082 0.1198 0.0
H959 H 0.85838 0.68298 0.15754 0.0
H960 H 0.76252 0.64509 0.18515 0.0
H961 H 0.8136 0.64525 0.17122 0.0
H962 H 0.71744 0.77551 0.05364 0.0
H963 H 0.76957 0.78294 0.04731 0.0
H964 H 0.67605 0.76647 0.0966 0.0
H965 H 0.66091 0.73096 0.12691 0.0
C966 C 0.53997 0.49629 0.3852 0.0
C967 C 0.58084 0.49465 0.39946 0.0
C968 C 0.58974 0.56144 0.38213 0.0
C969 C 0.55083 0.56161 0.36377 0.0
N970 N 0.49007 0.52814 0.34454 0.0
N971 N 0.64607 0.5246 0.40927 0.0
C972 C 0.52599 0.52888 0.36478 0.0
C973 C 0.60607 0.52703 0.39742 0.0
N974 N 0.5144 0.46675 0.39144 0.0
N975 N 0.61054 0.59465 0.38595 0.0
H976 H 0.65874 0.5005 0.42195 0.0
H977 H 0.66753 0.54545 0.40434 0.0
H978 H 0.59902 0.62039 0.37578 0.0
H979 H 0.63711 0.59757 0.4022 0.0
H980 H 0.48304 0.46772 0.38558 0.0
H981 H 0.52396 0.44213 0.40528 0.0
H982 H 0.47293 0.50378 0.34034 0.0
H983 H 0.47864 0.55135 0.32954 0.0
C984 C 0.43689 0.27113 0.1817 0.0
C985 C 0.41084 0.2957 0.20394 0.0
C986 C 0.42253 0.25271 0.25803 0.0
C987 C 0.44282 0.22623 0.23364 0.0
N988 N 0.4621 0.20713 0.17003 0.0
N989 N 0.40737 0.31911 0.26903 0.0
C990 C 0.44643 0.23413 0.19455 0.0
C991 C 0.41057 0.28907 0.24404 0.0
N992 N 0.46077 0.28563 0.15389 0.0
N993 N 0.41584 0.24346 0.29501 0.0
H994 H 0.4088 0.34712 0.26004 0.0
H995 H 0.41034 0.31654 0.2984 0.0
H996 H 0.42487 0.21708 0.30563 0.0
H997 H 0.39799 0.26024 0.31356 0.0
H998 H 0.48252 0.26934 0.13875 0.0
H999 H 0.46445 0.31484 0.15139 0.0
H1000 H 0.46313 0.21111 0.14069 0.0
H1001 H 0.4703 0.17988 0.17887 0.0
C1002 C 0.92589 0.30672 0.85589 0.0
C1003 C 0.93721 0.31047 0.81714 0.0
C1004 C 0.90805 0.24739 0.80337 0.0
C1005 C 0.90324 0.24134 0.84306 0.0
N1006 N 0.91086 0.2646 0.90764 0.0
N1007 N 0.93919 0.28417 0.75341 0.0
C1008 C 0.91262 0.27103 0.86943 0.0
C1009 C 0.92773 0.28096 0.79055 0.0
N1010 N 0.92719 0.3378 0.87971 0.0
N1011 N 0.89322 0.22123 0.77792 0.0
H1012 H 0.95196 0.30871 0.74282 0.0
H1013 H 0.93798 0.26198 0.73349 0.0
H1014 H 0.87899 0.1965 0.78641 0.0
H1015 H 0.89188 0.22541 0.74869 0.0
H1016 H 0.91571 0.3382 0.90735 0.0
H1017 H 0.93577 0.36448 0.87039 0.0
H1018 H 0.922 0.28343 0.92821 0.0
H1019 H 0.90126 0.23907 0.91888 0.0
C1020 C 1.01075 0.65443 0.09521 0.0
C1021 C 0.04872 0.67319 0.10028 0.0
C1022 C 0.01702 0.733 0.07909 0.0
C1023 C 0.97864 0.71458 0.07521 0.0
N1024 N 0.93968 0.65737 0.07329 0.0
N1025 N 0.09055 0.72776 0.09005 0.0
C1026 C 0.97583 0.67503 0.08115 0.0
C1027 C 0.05267 0.71161 0.08969 0.0
N1028 N 1.00806 0.61712 0.10486 0.0
N1029 N 0.01897 0.77147 0.07483 0.0
H1030 H 0.11703 0.7139 0.09976 0.0
H1031 H 0.09656 0.75392 0.07819 0.0
H1032 H 0.99431 0.78824 0.06568 0.0
H1033 H 0.04432 0.78749 0.08242 0.0
H1034 H 0.98071 0.60246 0.10603 0.0
H1035 H 0.03359 0.60076 0.11294 0.0
H1036 H 0.93594 0.62814 0.07374 0.0
H1037 H 0.91355 0.67204 0.06387 0.0
C1038 C 0.58142 0.80251 0.35511 0.0
C1039 C 0.62329 0.80076 0.36667 0.0
C1040 C 0.62583 0.73204 0.35072 0.0
C1041 C 0.584 0.73382 0.33901 0.0
N1042 N 0.52333 0.77186 0.32505 0.0
N1043 N 0.68721 0.76559 0.3709 0.0
C1044 C 0.56229 0.76943 0.33963 0.0
C1045 C 0.64607 0.76599 0.36296 0.0
N1046 N 0.55945 0.83579 0.35994 0.0
N1047 N 0.64586 0.69756 0.35102 0.0
H1048 H 0.70248 0.78939 0.38129 0.0
H1049 H 0.70686 0.74254 0.36526 0.0
H1050 H 0.63272 0.67278 0.34031 0.0
H1051 H 0.67467 0.69294 0.36316 0.0
H1052 H 0.52765 0.83809 0.35747 0.0
H1053 H 0.57272 0.86126 0.36852 0.0
H1054 H 0.5079 0.79735 0.31967 0.0
H1055 H 0.5068 0.74847 0.31586 0.0
C1056 C 0.53267 0.36947 0.5482 0.0
C1057 C 0.55722 0.34674 0.57258 0.0
C1058 C 0.52008 0.3725 0.62839 0.0
C1059 C 0.49361 0.39327 0.60385 0.0
N1060 N 0.47979 0.41892 0.54204 0.0
N1061 N 0.58232 0.33409 0.63573 0.0
C1062 C 0.50178 0.39429 0.56419 0.0
C1063 C 0.55364 0.35094 0.61271 0.0
N1064 N 0.5381 0.36613 0.50974 0.0
N1065 N 0.51178 0.37189 0.66651 0.0
H1066 H 0.60701 0.31788 0.62515 0.0
H1067 H 0.58393 0.33876 0.66502 0.0
H1068 H 0.48859 0.38857 0.67918 0.0
H1069 H 0.52637 0.35363 0.68542 0.0
H1070 H 0.5187 0.37846 0.48968 0.0
H1071 H 0.56222 0.35006 0.49778 0.0
H1072 H 0.48595 0.4235 0.51348 0.0
H1073 H 0.45689 0.43706 0.55312 0.0
C1074 C 0.12201 0.78151 0.75754 0.0
C1075 C 0.12693 0.77442 0.71792 0.0
C1076 C 0.09099 0.83473 0.70413 0.0
C1077 C 0.08454 0.84104 0.74371 0.0
N1078 N 0.10327 0.82663 0.80796 0.0
N1079 N 0.12558 0.79796 0.65402 0.0
C1080 C 0.10331 0.81638 0.77035 0.0
C1081 C 0.11465 0.80242 0.69139 0.0
N1082 N 0.13372 0.75424 0.78278 0.0
N1083 N 0.07247 0.85851 0.67868 0.0
H1084 H 0.14232 0.77436 0.64381 0.0
H1085 H 0.12109 0.81884 0.63377 0.0
H1086 H 0.05659 0.88325 0.68709 0.0
H1087 H 0.07127 0.85305 0.64949 0.0
H1088 H 0.12675 0.75556 0.81166 0.0
H1089 H 0.1487 0.72899 0.77445 0.0
H1090 H 0.1187 0.8116 0.82904 0.0
H1091 H 0.09159 0.85289 0.81724 0.0
C1092 C 0.51433 0.83505 1.01534 0.0
C1093 C 0.47314 0.84386 1.0047 0.0
C1094 C 0.49775 0.89052 0.95934 0.0
C1095 C 0.53887 0.88317 0.97127 0.0
N1096 N 0.58597 0.85335 1.01506 0.0
N1097 N 0.42506 0.88526 0.97275 0.0
C1098 C 0.54707 0.85677 1.00057 0.0
C1099 C 0.46471 0.87332 0.97866 0.0
N1100 N 0.52215 0.80554 0.0392 0.0
N1101 N 0.49032 0.91258 0.92835 0.0
H1102 H 0.40022 0.87331 0.9864 0.0
H1103 H 0.41704 0.90917 0.95717 0.0
H1104 H 0.51357 0.92542 0.91315 0.0
H1105 H 0.46155 0.91551 0.9156 0.0
H1106 H 0.55147 0.79453 0.04455 0.0
H1107 H 0.49887 0.79061 0.05226 0.0
H1108 H 0.59336 0.8376 0.03899 0.0
H1109 H 0.61055 0.86876 1.00493 0.0
C1110 C 1.01176 0.18926 0.44994 0.0
C1111 C 0.98368 0.17019 0.47338 0.0
C1112 C 0.02087 0.19317 0.53043 0.0
C1113 C 0.04937 0.21194 0.50687 0.0
N1114 N 0.07827 0.21824 0.44418 0.0
N1115 N 0.9657 0.14778 0.53529 0.0
C1116 C 0.04658 0.20712 0.4666 0.0
C1117 C 0.98967 0.17015 0.51346 0.0
N1118 N 1.00472 0.19106 0.41162 0.0
N1119 N 0.0223 0.19867 0.56894 0.0
H1120 H 0.94188 0.13166 0.52399 0.0
H1121 H 0.9712 0.14293 0.56401 0.0
H1122 H 0.0453 0.21394 0.58236 0.0
H1123 H 0.9996 0.18996 0.58747 0.0
H1124 H 0.02091 0.20855 0.39368 0.0
H1125 H 0.98064 0.17716 0.39799 0.0
H1126 H 0.0803 0.21189 0.41518 0.0
H1127 H 0.10483 0.23035 0.45517 0.0
loop_
_geom_bond_atom_site_label_1
_geom_bond_atom_site_label_2
_geom_bond_distance
_geom_bond_site_symmetry_2
_ccdc_geom_bond_type
Tb0 C2 2.809 . S
Tb0 O20 2.484 . S
Tb0 O21 2.440 . S
Tb0 O22 2.658 . S
Tb0 O23 2.409 . S
Tb0 O24 2.378 . S
Tb0 O28 2.325 . S
Tb0 O31 2.341 . S
Tb1 C11 2.809 . S
Tb1 O22 2.325 . S
Tb1 O25 2.341 . S
Tb1 O26 2.484 . S
Tb1 O27 2.440 . S
Tb1 O28 2.658 . S
Tb1 O29 2.409 . S
Tb1 O30 2.378 . S
C2 Tb0 2.809 . S
C2 C3 1.514 . S
C2 O20 1.248 . S
C2 O21 1.266 . S
C3 C2 1.514 . S
C3 C4 1.359 . S
C3 C8 1.348 . S
C4 C3 1.359 . S
C4 C5 1.380 . S
C4 H32 0.929 . S
C5 C4 1.380 . S
C5 C6 1.347 . S
C5 H33 0.931 . S
C6 C5 1.347 . S
C6 C7 1.369 . S
C7 C6 1.369 . S
C7 C8 1.408 . S
C7 H34 0.930 . S
C8 C3 1.348 . S
C8 C7 1.408 . S
C8 H35 0.930 . S
C9 O22 1.281 . S
C9 O23 1.254 . S
C10 O24 1.236 . S
C10 O25 1.266 . S
C11 Tb1 2.809 . S
C11 C12 1.514 . S
C11 O26 1.248 . S
C11 O27 1.266 . S
C12 C11 1.514 . S
C12 C13 1.359 . S
C12 C17 1.348 . S
C13 C12 1.359 . S
C13 C14 1.380 . S
C13 H36 0.929 . S
C14 C13 1.380 . S
C14 C15 1.347 . S
C14 H37 0.931 . S
C15 C14 1.347 . S
C15 C16 1.369 . S
C16 C15 1.369 . S
C16 C17 1.408 . S
C16 H38 0.930 . S
C17 C12 1.348 . S
C17 C16 1.408 . S
C17 H39 0.930 . S
C18 O28 1.281 . S
C18 O29 1.254 . S
C19 O30 1.236 . S
C19 O31 1.266 . S
O20 Tb0 2.484 . S
O20 C2 1.248 . S
O21 Tb0 2.440 . S
O21 C2 1.266 . S
O22 Tb0 2.658 . S
O22 Tb1 2.325 . S
O22 C9 1.281 . S
O23 Tb0 2.409 . S
O23 C9 1.254 . S
O24 Tb0 2.378 . S
O24 C10 1.236 . S
O25 Tb1 2.341 . S
O25 C10 1.266 . S
O26 Tb1 2.484 . S
O26 C11 1.248 . S
O27 Tb1 2.440 . S
O27 C11 1.266 . S
O28 Tb0 2.325 . S
O28 Tb1 2.658 . S
O28 C18 1.281 . S
O29 Tb1 2.409 . S
O29 C18 1.254 . S
O30 Tb1 2.378 . S
O30 C19 1.236 . S
O31 Tb0 2.341 . S
O31 C19 1.266 . S
H32 C4 0.929 . S
H33 C5 0.931 . S
H34 C7 0.930 . S
H35 C8 0.930 . S
H36 C13 0.929 . S
H37 C14 0.931 . S
H38 C16 0.930 . S
H39 C17 0.930 . S
Tb40 C42 2.809 . S
Tb40 O60 2.484 . S
Tb40 O61 2.440 . S
Tb40 O62 2.658 1_655 S
Tb40 O63 2.409 1_655 S
Tb40 O64 2.378 1_655 S
Tb40 O68 2.325 . S
Tb40 O71 2.341 . S
Tb41 C51 2.809 . S
Tb41 O62 2.325 . S
Tb41 O65 2.341 . S
Tb41 O66 2.484 . S
Tb41 O67 2.440 . S
Tb41 O68 2.658 1_455 S
Tb41 O69 2.409 1_455 S
Tb41 O70 2.378 1_455 S
C42 Tb40 2.809 . S
C42 C43 1.514 . S
C42 O60 1.248 . S
C42 O61 1.266 . S
C43 C42 1.514 . S
C43 C44 1.359 . S
C43 C48 1.348 . S
C44 C43 1.359 . S
C44 C45 1.380 . S
C44 H72 0.929 . S
C45 C44 1.380 . S
C45 C46 1.347 . S
C45 H73 0.931 . S
C46 C45 1.347 . S
C46 C47 1.369 . S
C47 C46 1.369 . S
C47 C48 1.408 . S
C47 H74 0.930 . S
C48 C43 1.348 . S
C48 C47 1.408 . S
C48 H75 0.930 . S
C49 O62 1.281 . S
C49 O63 1.254 . S
C50 O64 1.236 . S
C50 O65 1.266 . S
C51 Tb41 2.809 . S
C51 C52 1.514 . S
C51 O66 1.248 . S
C51 O67 1.266 . S
C52 C51 1.514 . S
C52 C53 1.359 . S
C52 C57 1.348 . S
C53 C52 1.359 . S
C53 C54 1.380 . S
C53 H76 0.929 . S
C54 C53 1.380 . S
C54 C55 1.347 . S
C54 H77 0.931 . S
C55 C54 1.347 . S
C55 C56 1.369 . S
C56 C55 1.369 . S
C56 C57 1.408 . S
C56 H78 0.930 . S
C57 C52 1.348 . S
C57 C56 1.408 . S
C57 H79 0.930 . S
C58 O68 1.281 . S
C58 O69 1.254 . S
C59 O70 1.236 . S
C59 O71 1.266 . S
O60 Tb40 2.484 . S
O60 C42 1.248 . S
O61 Tb40 2.440 . S
O61 C42 1.266 . S
O62 Tb40 2.658 1_455 S
O62 Tb41 2.325 . S
O62 C49 1.281 . S
O63 Tb40 2.409 1_455 S
O63 C49 1.254 . S
O64 Tb40 2.378 1_455 S
O64 C50 1.236 . S
O65 Tb41 2.341 . S
O65 C50 1.266 . S
O66 Tb41 2.484 . S
O66 C51 1.248 . S
O67 Tb41 2.440 . S
O67 C51 1.266 . S
O68 Tb40 2.325 . S
O68 Tb41 2.658 1_655 S
O68 C58 1.281 . S
O69 Tb41 2.409 1_655 S
O69 C58 1.254 . S
O70 Tb41 2.378 1_655 S
O70 C59 1.236 . S
O71 Tb40 2.341 . S
O71 C59 1.266 . S
H72 C44 0.929 . S
H73 C45 0.931 . S
H74 C47 0.930 . S
H75 C48 0.930 . S
H76 C53 0.929 . S
H77 C54 0.931 . S
H78 C56 0.930 . S
H79 C57 0.930 . S
Tb80 C82 2.809 . S
Tb80 O100 2.484 . S
Tb80 O101 2.440 . S
Tb80 O102 2.658 1_554 S
Tb80 O103 2.409 1_554 S
Tb80 O104 2.359 1_554 S
Tb80 O108 2.325 . S
Tb80 O111 2.341 . S
Tb81 C91 2.809 . S
Tb81 O102 2.325 . S
Tb81 O105 2.341 . S
Tb81 O106 2.484 . S
Tb81 O107 2.440 . S
Tb81 O108 2.658 1_556 S
Tb81 O109 2.409 1_556 S
Tb81 O110 2.364 1_556 S
C82 Tb80 2.809 . S
C82 C83 1.514 . S
C82 O100 1.248 . S
C82 O101 1.266 . S
C83 C82 1.514 . S
C83 C84 1.359 . S
C83 C88 1.348 . S
C84 C83 1.359 . S
C84 C85 1.380 . S
C84 H112 0.929 . S
C85 C84 1.380 . S
C85 C86 1.347 . S
C85 H113 0.931 . S
C86 C85 1.347 . S
C86 C87 1.369 . S
C87 C86 1.369 . S
C87 C88 1.408 . S
C87 H114 0.930 . S
C88 C83 1.348 . S
C88 C87 1.408 . S
C88 H115 0.930 . S
C89 O102 1.281 . S
C89 O103 1.254 . S
C90 O104 1.253 . S
C90 O105 1.266 . S
C91 Tb81 2.809 . S
C91 C92 1.514 . S
C91 O106 1.248 . S
C91 O107 1.266 . S
C92 C91 1.514 . S
C92 C93 1.359 . S
C92 C97 1.348 . S
C93 C92 1.359 . S
C93 C94 1.380 . S
C93 H116 0.929 . S
C94 C93 1.380 . S
C94 C95 1.347 . S
C94 H117 0.931 . S
C95 C94 1.347 . S
C95 C96 1.369 . S
C96 C95 1.369 . S
C96 C97 1.408 . S
C96 H118 0.930 . S
C97 C92 1.348 . S
C97 C96 1.408 . S
C97 H119 0.930 . S
C98 O108 1.281 . S
C98 O109 1.254 . S
C99 O110 1.249 . S
C99 O111 1.266 . S
O100 Tb80 2.484 . S
O100 C82 1.248 . S
O101 Tb80 2.440 . S
O101 C82 1.266 . S
O102 Tb80 2.658 1_556 S
O102 Tb81 2.325 . S
O102 C89 1.281 . S
O103 Tb80 2.409 1_556 S
O103 C89 1.254 . S
O104 Tb80 2.359 1_556 S
O104 C90 1.253 . S
O105 Tb81 2.341 . S
O105 C90 1.266 . S
O106 Tb81 2.484 . S
O106 C91 1.248 . S
O107 Tb81 2.440 . S
O107 C91 1.266 . S
O108 Tb80 2.325 . S
O108 Tb81 2.658 1_554 S
O108 C98 1.281 . S
O109 Tb81 2.409 1_554 S
O109 C98 1.254 . S
O110 Tb81 2.364 1_554 S
O110 C99 1.249 . S
O111 Tb80 2.341 . S
O111 C99 1.266 . S
H112 C84 0.929 . S
H113 C85 0.931 . S
H114 C87 0.930 . S
H115 C88 0.930 . S
H116 C93 0.929 . S
H117 C94 0.931 . S
H118 C96 0.930 . S
H119 C97 0.930 . S
Tb120 C122 2.809 . S
Tb120 O140 2.484 . S
Tb120 O141 2.440 . S
Tb120 O142 2.658 . S
Tb120 O143 2.409 . S
Tb120 O144 2.378 . S
Tb120 O148 2.325 . S
Tb120 O151 2.341 . S
Tb121 C131 2.809 . S
Tb121 O142 2.325 . S
Tb121 O145 2.341 . S
Tb121 O146 2.484 . S
Tb121 O147 2.440 . S
Tb121 O148 2.658 . S
Tb121 O149 2.409 . S
Tb121 O150 2.378 . S
C122 Tb120 2.809 . S
C122 C123 1.514 . S
C122 O140 1.248 . S
C122 O141 1.266 . S
C123 C122 1.514 . S
C123 C124 1.359 . S
C123 C128 1.348 . S
C124 C123 1.359 . S
C124 C125 1.380 . S
C124 H152 0.929 . S
C125 C124 1.380 . S
C125 C126 1.347 . S
C125 H153 0.931 . S
C126 C125 1.347 . S
C126 C127 1.369 . S
C127 C126 1.369 . S
C127 C128 1.408 . S
C127 H154 0.930 . S
C128 C123 1.348 . S
C128 C127 1.408 . S
C128 H155 0.930 . S
C129 O142 1.281 . S
C129 O143 1.254 . S
C130 O144 1.236 . S
C130 O145 1.266 . S
C131 Tb121 2.809 . S
C131 C132 1.514 . S
C131 O146 1.248 . S
C131 O147 1.266 . S
C132 C131 1.514 . S
C132 C133 1.359 . S
C132 C137 1.348 . S
C133 C132 1.359 . S
C133 C134 1.380 . S
C133 H156 0.929 . S
C134 C133 1.380 . S
C134 C135 1.347 . S
C134 H157 0.931 . S
C135 C134 1.347 . S
C135 C136 1.369 . S
C136 C135 1.369 . S
C136 C137 1.408 . S
C136 H158 0.930 . S
C137 C132 1.348 . S
C137 C136 1.408 . S
C137 H159 0.930 . S
C138 O148 1.281 . S
C138 O149 1.254 . S
C139 O150 1.236 . S
C139 O151 1.266 . S
O140 Tb120 2.484 . S
O140 C122 1.248 . S
O141 Tb120 2.440 . S
O141 C122 1.266 . S
O142 Tb120 2.658 . S
O142 Tb121 2.325 . S
O142 C129 1.281 . S
O143 Tb120 2.409 . S
O143 C129 1.254 . S
O144 Tb120 2.378 . S
O144 C130 1.236 . S
O145 Tb121 2.341 . S
O145 C130 1.266 . S
O146 Tb121 2.484 . S
O146 C131 1.248 . S
O147 Tb121 2.440 . S
O147 C131 1.266 . S
O148 Tb120 2.325 . S
O148 Tb121 2.658 . S
O148 C138 1.281 . S
O149 Tb121 2.409 . S
O149 C138 1.254 . S
O150 Tb121 2.378 . S
O150 C139 1.236 . S
O151 Tb120 2.341 . S
O151 C139 1.266 . S
H152 C124 0.929 . S
H153 C125 0.931 . S
H154 C127 0.930 . S
H155 C128 0.930 . S
H156 C133 0.929 . S
H157 C134 0.931 . S
H158 C136 0.930 . S
H159 C137 0.930 . S
Tb160 C162 2.809 . S
Tb160 O180 2.484 . S
Tb160 O181 2.440 . S
Tb160 O182 2.658 . S
Tb160 O183 2.409 . S
Tb160 O184 2.378 . S
Tb160 O188 2.325 . S
Tb160 O191 2.341 . S
Tb161 C171 2.809 . S
Tb161 O182 2.325 . S
Tb161 O185 2.341 . S
Tb161 O186 2.484 . S
Tb161 O187 2.440 . S
Tb161 O188 2.658 . S
Tb161 O189 2.409 . S
Tb161 O190 2.378 . S
C162 Tb160 2.809 . S
C162 C163 1.514 . S
C162 O180 1.248 . S
C162 O181 1.266 . S
C163 C162 1.514 . S
C163 C164 1.359 . S
C163 C168 1.348 . S
C164 C163 1.359 . S
C164 C165 1.380 . S
C164 H192 0.929 . S
C165 C164 1.380 . S
C165 C166 1.347 . S
C165 H193 0.931 . S
C166 C165 1.347 . S
C166 C167 1.369 . S
C167 C166 1.369 . S
C167 C168 1.408 . S
C167 H194 0.930 . S
C168 C163 1.348 . S
C168 C167 1.408 . S
C168 H195 0.930 . S
C169 O182 1.281 . S
C169 O183 1.254 . S
C170 O184 1.236 . S
C170 O185 1.266 . S
C171 Tb161 2.809 . S
C171 C172 1.514 . S
C171 O186 1.248 . S
C171 O187 1.266 . S
C172 C171 1.514 . S
C172 C173 1.359 . S
C172 C177 1.348 . S
C173 C172 1.359 . S
C173 C174 1.380 . S
C173 H196 0.929 . S
C174 C173 1.380 . S
C174 C175 1.347 . S
C174 H197 0.931 . S
C175 C174 1.347 . S
C175 C176 1.369 . S
C176 C175 1.369 . S
C176 C177 1.408 . S
C176 H198 0.930 . S
C177 C172 1.348 . S
C177 C176 1.408 . S
C177 H199 0.930 . S
C178 O188 1.281 . S
C178 O189 1.254 . S
C179 O190 1.236 . S
C179 O191 1.266 . S
O180 Tb160 2.484 . S
O180 C162 1.248 . S
O181 Tb160 2.440 . S
O181 C162 1.266 . S
O182 Tb160 2.658 . S
O182 Tb161 2.325 . S
O182 C169 1.281 . S
O183 Tb160 2.409 . S
O183 C169 1.254 . S
O184 Tb160 2.378 . S
O184 C170 1.236 . S
O185 Tb161 2.341 . S
O185 C170 1.266 . S
O186 Tb161 2.484 . S
O186 C171 1.248 . S
O187 Tb161 2.440 . S
O187 C171 1.266 . S
O188 Tb160 2.325 . S
O188 Tb161 2.658 . S
O188 C178 1.281 . S
O189 Tb161 2.409 . S
O189 C178 1.254 . S
O190 Tb161 2.378 . S
O190 C179 1.236 . S
O191 Tb160 2.341 . S
O191 C179 1.266 . S
H192 C164 0.929 . S
H193 C165 0.931 . S
H194 C167 0.930 . S
H195 C168 0.930 . S
H196 C173 0.929 . S
H197 C174 0.931 . S
H198 C176 0.930 . S
H199 C177 0.930 . S
Tb200 C202 2.809 . S
Tb200 O220 2.484 . S
Tb200 O221 2.440 . S
Tb200 O222 2.658 . S
Tb200 O223 2.409 . S
Tb200 O224 2.378 . S
Tb200 O228 2.325 1_655 S
Tb200 O231 2.341 1_655 S
Tb201 C211 2.809 . S
Tb201 O222 2.325 1_455 S
Tb201 O225 2.341 1_455 S
Tb201 O226 2.484 . S
Tb201 O227 2.440 . S
Tb201 O228 2.658 . S
Tb201 O229 2.409 . S
Tb201 O230 2.378 . S
C202 Tb200 2.809 . S
C202 C203 1.514 . S
C202 O220 1.248 . S
C202 O221 1.266 . S
C203 C202 1.514 . S
C203 C204 1.359 . S
C203 C208 1.348 . S
C204 C203 1.359 . S
C204 C205 1.380 . S
C204 H232 0.929 . S
C205 C204 1.380 . S
C205 C206 1.347 . S
C205 H233 0.931 . S
C206 C205 1.347 . S
C206 C207 1.369 . S
C207 C206 1.369 . S
C207 C208 1.408 . S
C207 H234 0.930 . S
C208 C203 1.348 . S
C208 C207 1.408 . S
C208 H235 0.930 . S
C209 O222 1.281 . S
C209 O223 1.254 . S
C210 O224 1.236 . S
C210 O225 1.266 . S
C211 Tb201 2.809 . S
C211 C212 1.514 . S
C211 O226 1.248 . S
C211 O227 1.266 . S
C212 C211 1.514 . S
C212 C213 1.359 . S
C212 C217 1.348 . S
C213 C212 1.359 . S
C213 C214 1.380 . S
C213 H236 0.929 . S
C214 C213 1.380 . S
C214 C215 1.347 . S
C214 H237 0.931 . S
C215 C214 1.347 . S
C215 C216 1.369 . S
C216 C215 1.369 . S
C216 C217 1.408 . S
C216 H238 0.930 . S
C217 C212 1.348 . S
C217 C216 1.408 . S
C217 H239 0.930 . S
C218 O228 1.281 . S
C218 O229 1.254 . S
C219 O230 1.236 . S
C219 O231 1.266 . S
O220 Tb200 2.484 . S
O220 C202 1.248 . S
O221 Tb200 2.440 . S
O221 C202 1.266 . S
O222 Tb200 2.658 . S
O222 Tb201 2.325 1_655 S
O222 C209 1.281 . S
O223 Tb200 2.409 . S
O223 C209 1.254 . S
O224 Tb200 2.378 . S
O224 C210 1.236 . S
O225 Tb201 2.341 1_655 S
O225 C210 1.266 . S
O226 Tb201 2.484 . S
O226 C211 1.248 . S
O227 Tb201 2.440 . S
O227 C211 1.266 . S
O228 Tb200 2.325 1_455 S
O228 Tb201 2.658 . S
O228 C218 1.281 . S
O229 Tb201 2.409 . S
O229 C218 1.254 . S
O230 Tb201 2.378 . S
O230 C219 1.236 . S
O231 Tb200 2.341 1_455 S
O231 C219 1.266 . S
H232 C204 0.929 . S
H233 C205 0.931 . S
H234 C207 0.930 . S
H235 C208 0.930 . S
H236 C213 0.929 . S
H237 C214 0.931 . S
H238 C216 0.930 . S
H239 C217 0.930 . S
Tb240 C242 2.809 . S
Tb240 O260 2.484 . S
Tb240 O261 2.440 . S
Tb240 O262 2.658 . S
Tb240 O263 2.409 . S
Tb240 O264 2.378 . S
Tb240 O268 2.325 1_554 S
Tb240 O271 2.341 1_554 S
Tb241 C251 2.809 . S
Tb241 O262 2.325 1_556 S
Tb241 O265 2.341 1_556 S
Tb241 O266 2.484 . S
Tb241 O267 2.440 . S
Tb241 O268 2.658 . S
Tb241 O269 2.409 . S
Tb241 O270 2.378 . S
C242 Tb240 2.809 . S
C242 C243 1.514 . S
C242 O260 1.248 . S
C242 O261 1.266 . S
C243 C242 1.514 . S
C243 C244 1.359 . S
C243 C248 1.348 . S
C244 C243 1.359 . S
C244 C245 1.380 . S
C244 H272 0.929 . S
C245 C244 1.380 . S
C245 C246 1.347 . S
C245 H273 0.931 . S
C246 C245 1.347 . S
C246 C247 1.369 . S
C247 C246 1.369 . S
C247 C248 1.408 . S
C247 H274 0.930 . S
C248 C243 1.348 . S
C248 C247 1.408 . S
C248 H275 0.930 . S
C249 O262 1.281 . S
C249 O263 1.254 . S
C250 O264 1.236 . S
C250 O265 1.266 . S
C251 Tb241 2.809 . S
C251 C252 1.514 . S
C251 O266 1.248 . S
C251 O267 1.266 . S
C252 C251 1.514 . S
C252 C253 1.359 . S
C252 C257 1.348 . S
C253 C252 1.359 . S
C253 C254 1.380 . S
C253 H276 0.929 . S
C254 C253 1.380 . S
C254 C255 1.347 . S
C254 H277 0.931 . S
C255 C254 1.347 . S
C255 C256 1.369 . S
C256 C255 1.369 . S
C256 C257 1.408 . S
C256 H278 0.930 . S
C257 C252 1.348 . S
C257 C256 1.408 . S
C257 H279 0.930 . S
C258 O268 1.281 . S
C258 O269 1.254 . S
C259 O270 1.236 . S
C259 O271 1.266 . S
O260 Tb240 2.484 . S
O260 C242 1.248 . S
O261 Tb240 2.440 . S
O261 C242 1.266 . S
O262 Tb240 2.658 . S
O262 Tb241 2.325 1_554 S
O262 C249 1.281 . S
O263 Tb240 2.409 . S
O263 C249 1.254 . S
O264 Tb240 2.378 . S
O264 C250 1.236 . S
O265 Tb241 2.341 1_554 S
O265 C250 1.266 . S
O266 Tb241 2.484 . S
O266 C251 1.248 . S
O267 Tb241 2.440 . S
O267 C251 1.266 . S
O268 Tb240 2.325 1_556 S
O268 Tb241 2.658 . S
O268 C258 1.281 . S
O269 Tb241 2.409 . S
O269 C258 1.254 . S
O270 Tb241 2.378 . S
O270 C259 1.236 . S
O271 Tb240 2.341 1_556 S
O271 C259 1.266 . S
H272 C244 0.929 . S
H273 C245 0.931 . S
H274 C247 0.930 . S
H275 C248 0.930 . S
H276 C253 0.929 . S
H277 C254 0.931 . S
H278 C256 0.930 . S
H279 C257 0.930 . S
Tb280 C282 2.809 . S
Tb280 O300 2.484 . S
Tb280 O301 2.440 . S
Tb280 O302 2.658 . S
Tb280 O303 2.409 . S
Tb280 O304 2.378 . S
Tb280 O308 2.325 . S
Tb280 O311 2.341 . S
Tb281 C291 2.809 . S
Tb281 O302 2.325 . S
Tb281 O305 2.341 . S
Tb281 O306 2.484 . S
Tb281 O307 2.440 . S
Tb281 O308 2.658 . S
Tb281 O309 2.409 . S
Tb281 O310 2.378 . S
C282 Tb280 2.809 . S
C282 C283 1.514 . S
C282 O300 1.248 . S
C282 O301 1.266 . S
C283 C282 1.514 . S
C283 C284 1.359 . S
C283 C288 1.348 . S
C284 C283 1.359 . S
C284 C285 1.380 . S
C284 H312 0.929 . S
C285 C284 1.380 . S
C285 C286 1.347 . S
C285 H313 0.931 . S
C286 C285 1.347 . S
C286 C287 1.369 . S
C287 C286 1.369 . S
C287 C288 1.408 . S
C287 H314 0.930 . S
C288 C283 1.348 . S
C288 C287 1.408 . S
C288 H315 0.930 . S
C289 O302 1.281 . S
C289 O303 1.254 . S
C290 O304 1.236 . S
C290 O305 1.266 . S
C291 Tb281 2.809 . S
C291 C292 1.514 . S
C291 O306 1.248 . S
C291 O307 1.266 . S
C292 C291 1.514 . S
C292 C293 1.359 . S
C292 C297 1.348 . S
C293 C292 1.359 . S
C293 C294 1.380 . S
C293 H316 0.929 . S
C294 C293 1.380 . S
C294 C295 1.347 . S
C294 H317 0.931 . S
C295 C294 1.347 . S
C295 C296 1.369 . S
C296 C295 1.369 . S
C296 C297 1.408 . S
C296 H318 0.930 . S
C297 C292 1.348 . S
C297 C296 1.408 . S
C297 H319 0.930 . S
C298 O308 1.281 . S
C298 O309 1.254 . S
C299 O310 1.236 . S
C299 O311 1.266 . S
O300 Tb280 2.484 . S
O300 C282 1.248 . S
O301 Tb280 2.440 . S
O301 C282 1.266 . S
O302 Tb280 2.658 . S
O302 Tb281 2.325 . S
O302 C289 1.281 . S
O303 Tb280 2.409 . S
O303 C289 1.254 . S
O304 Tb280 2.378 . S
O304 C290 1.236 . S
O305 Tb281 2.341 . S
O305 C290 1.266 . S
O306 Tb281 2.484 . S
O306 C291 1.248 . S
O307 Tb281 2.440 . S
O307 C291 1.266 . S
O308 Tb280 2.325 . S
O308 Tb281 2.658 . S
O308 C298 1.281 . S
O309 Tb281 2.409 . S
O309 C298 1.254 . S
O310 Tb281 2.378 . S
O310 C299 1.236 . S
O311 Tb280 2.341 . S
O311 C299 1.266 . S
H312 C284 0.929 . S
H313 C285 0.931 . S
H314 C287 0.930 . S
H315 C288 0.930 . S
H316 C293 0.929 . S
H317 C294 0.931 . S
H318 C296 0.930 . S
H319 C297 0.930 . S
Tb320 C322 2.809 . S
Tb320 O340 2.484 . S
Tb320 O341 2.440 . S
Tb320 O342 2.658 . S
Tb320 O343 2.409 . S
Tb320 O344 2.378 . S
Tb320 O348 2.325 . S
Tb320 O351 2.341 . S
Tb321 C331 2.809 . S
Tb321 O342 2.325 . S
Tb321 O345 2.341 . S
Tb321 O346 2.484 . S
Tb321 O347 2.440 . S
Tb321 O348 2.658 . S
Tb321 O349 2.409 . S
Tb321 O350 2.378 . S
C322 Tb320 2.809 . S
C322 C323 1.514 . S
C322 O340 1.248 . S
C322 O341 1.266 . S
C323 C322 1.514 . S
C323 C324 1.359 . S
C323 C328 1.348 . S
C324 C323 1.359 . S
C324 C325 1.380 . S
C324 H352 0.929 . S
C325 C324 1.380 . S
C325 C326 1.347 . S
C325 H353 0.931 . S
C326 C325 1.347 . S
C326 C327 1.369 . S
C327 C326 1.369 . S
C327 C328 1.408 . S
C327 H354 0.930 . S
C328 C323 1.348 . S
C328 C327 1.408 . S
C328 H355 0.930 . S
C329 O342 1.281 . S
C329 O343 1.254 . S
C330 O344 1.236 . S
C330 O345 1.266 . S
C331 Tb321 2.809 . S
C331 C332 1.514 . S
C331 O346 1.248 . S
C331 O347 1.266 . S
C332 C331 1.514 . S
C332 C333 1.359 . S
C332 C337 1.348 . S
C333 C332 1.359 . S
C333 C334 1.380 . S
C333 H356 0.929 . S
C334 C333 1.380 . S
C334 C335 1.347 . S
C334 H357 0.931 . S
C335 C334 1.347 . S
C335 C336 1.369 . S
C336 C335 1.369 . S
C336 C337 1.408 . S
C336 H358 0.930 . S
C337 C332 1.348 . S
C337 C336 1.408 . S
C337 H359 0.930 . S
C338 O348 1.281 . S
C338 O349 1.254 . S
C339 O350 1.236 . S
C339 O351 1.266 . S
O340 Tb320 2.484 . S
O340 C322 1.248 . S
O341 Tb320 2.440 . S
O341 C322 1.266 . S
O342 Tb320 2.658 . S
O342 Tb321 2.325 . S
O342 C329 1.281 . S
O343 Tb320 2.409 . S
O343 C329 1.254 . S
O344 Tb320 2.378 . S
O344 C330 1.236 . S
O345 Tb321 2.341 . S
O345 C330 1.266 . S
O346 Tb321 2.484 . S
O346 C331 1.248 . S
O347 Tb321 2.440 . S
O347 C331 1.266 . S
O348 Tb320 2.325 . S
O348 Tb321 2.658 . S
O348 C338 1.281 . S
O349 Tb321 2.409 . S
O349 C338 1.254 . S
O350 Tb321 2.378 . S
O350 C339 1.236 . S
O351 Tb320 2.341 . S
O351 C339 1.266 . S
H352 C324 0.929 . S
H353 C325 0.931 . S
H354 C327 0.930 . S
H355 C328 0.930 . S
H356 C333 0.929 . S
H357 C334 0.931 . S
H358 C336 0.930 . S
H359 C337 0.930 . S
Tb360 C362 2.809 . S
Tb360 O380 2.484 . S
Tb360 O381 2.440 . S
Tb360 O382 2.658 . S
Tb360 O383 2.409 . S
Tb360 O384 2.378 . S
Tb360 O388 2.325 . S
Tb360 O391 2.341 1_545 S
Tb361 C371 2.809 . S
Tb361 O382 2.325 1_565 S
Tb361 O385 2.341 1_565 S
Tb361 O386 2.484 . S
Tb361 O387 2.440 . S
Tb361 O388 2.658 1_565 S
Tb361 O389 2.409 . S
Tb361 O390 2.378 . S
C362 Tb360 2.809 . S
C362 C363 1.514 . S
C362 O380 1.248 . S
C362 O381 1.266 . S
C363 C362 1.514 . S
C363 C364 1.359 . S
C363 C368 1.348 . S
C364 C363 1.359 . S
C364 C365 1.380 . S
C364 H392 0.929 . S
C365 C364 1.380 . S
C365 C366 1.347 . S
C365 H393 0.931 . S
C366 C365 1.347 . S
C366 C367 1.369 . S
C367 C366 1.369 . S
C367 C368 1.408 . S
C367 H394 0.930 . S
C368 C363 1.348 . S
C368 C367 1.408 . S
C368 H395 0.930 . S
C369 O382 1.281 . S
C369 O383 1.254 . S
C370 O384 1.236 . S
C370 O385 1.266 . S
C371 Tb361 2.809 . S
C371 C372 1.514 . S
C371 O386 1.248 . S
C371 O387 1.266 . S
C372 C371 1.514 . S
C372 C373 1.359 . S
C372 C377 1.348 . S
C373 C372 1.359 . S
C373 C374 1.380 . S
C373 H396 0.929 . S
C374 C373 1.380 . S
C374 C375 1.347 . S
C374 H397 0.931 . S
C375 C374 1.347 . S
C375 C376 1.369 . S
C376 C375 1.369 . S
C376 C377 1.408 . S
C376 H398 0.930 . S
C377 C372 1.348 . S
C377 C376 1.408 . S
C377 H399 0.930 . S
C378 O388 1.281 1_565 S
C378 O389 1.254 . S
C379 O390 1.236 . S
C379 O391 1.266 . S
O380 Tb360 2.484 . S
O380 C362 1.248 . S
O381 Tb360 2.440 . S
O381 C362 1.266 . S
O382 Tb360 2.658 . S
O382 Tb361 2.325 1_545 S
O382 C369 1.281 . S
O383 Tb360 2.409 . S
O383 C369 1.254 . S
O384 Tb360 2.378 . S
O384 C370 1.236 . S
O385 Tb361 2.341 1_545 S
O385 C370 1.266 . S
O386 Tb361 2.484 . S
O386 C371 1.248 . S
O387 Tb361 2.440 . S
O387 C371 1.266 . S
O388 Tb360 2.325 . S
O388 Tb361 2.658 1_545 S
O388 C378 1.281 1_545 S
O389 Tb361 2.409 . S
O389 C378 1.254 . S
O390 Tb361 2.378 . S
O390 C379 1.236 . S
O391 Tb360 2.341 1_565 S
O391 C379 1.266 . S
H392 C364 0.929 . S
H393 C365 0.931 . S
H394 C367 0.930 . S
H395 C368 0.930 . S
H396 C373 0.929 . S
H397 C374 0.931 . S
H398 C376 0.930 . S
H399 C377 0.930 . S
Tb400 C402 2.809 . S
Tb400 O420 2.484 . S
Tb400 O421 2.440 . S
Tb400 O422 2.658 . S
Tb400 O423 2.409 . S
Tb400 O424 2.378 . S
Tb400 O428 2.325 1_565 S
Tb400 O431 2.341 1_565 S
Tb401 C411 2.809 . S
Tb401 O422 2.325 1_545 S
Tb401 O425 2.341 1_545 S
Tb401 O426 2.484 . S
Tb401 O427 2.440 . S
Tb401 O428 2.658 . S
Tb401 O429 2.409 . S
Tb401 O430 2.378 . S
C402 Tb400 2.809 . S
C402 C403 1.514 . S
C402 O420 1.248 . S
C402 O421 1.266 . S
C403 C402 1.514 . S
C403 C404 1.359 . S
C403 C408 1.348 . S
C404 C403 1.359 . S
C404 C405 1.380 . S
C404 H432 0.929 . S
C405 C404 1.380 . S
C405 C406 1.347 . S
C405 H433 0.931 . S
C406 C405 1.347 . S
C406 C407 1.369 . S
C407 C406 1.369 . S
C407 C408 1.408 . S
C407 H434 0.930 . S
C408 C403 1.348 . S
C408 C407 1.408 . S
C408 H435 0.930 . S
C409 O422 1.281 . S
C409 O423 1.254 . S
C410 O424 1.236 . S
C410 O425 1.266 . S
C411 Tb401 2.809 . S
C411 C412 1.514 . S
C411 O426 1.248 . S
C411 O427 1.266 . S
C412 C411 1.514 . S
C412 C413 1.359 . S
C412 C417 1.348 . S
C413 C412 1.359 . S
C413 C414 1.380 . S
C413 H436 0.929 . S
C414 C413 1.380 . S
C414 C415 1.347 . S
C414 H437 0.931 . S
C415 C414 1.347 . S
C415 C416 1.369 . S
C416 C415 1.369 . S
C416 C417 1.408 . S
C416 H438 0.930 . S
C417 C412 1.348 . S
C417 C416 1.408 . S
C417 H439 0.930 . S
C418 O428 1.281 . S
C418 O429 1.254 . S
C419 O430 1.236 . S
C419 O431 1.266 . S
O420 Tb400 2.484 . S
O420 C402 1.248 . S
O421 Tb400 2.440 . S
O421 C402 1.266 . S
O422 Tb400 2.658 . S
O422 Tb401 2.325 1_565 S
O422 C409 1.281 . S
O423 Tb400 2.409 . S
O423 C409 1.254 . S
O424 Tb400 2.378 . S
O424 C410 1.236 . S
O425 Tb401 2.341 1_565 S
O425 C410 1.266 . S
O426 Tb401 2.484 . S
O426 C411 1.248 . S
O427 Tb401 2.440 . S
O427 C411 1.266 . S
O428 Tb400 2.325 1_545 S
O428 Tb401 2.658 . S
O428 C418 1.281 . S
O429 Tb401 2.409 . S
O429 C418 1.254 . S
O430 Tb401 2.378 . S
O430 C419 1.236 . S
O431 Tb400 2.341 1_545 S
O431 C419 1.266 . S
H432 C404 0.929 . S
H433 C405 0.931 . S
H434 C407 0.930 . S
H435 C408 0.930 . S
H436 C413 0.929 . S
H437 C414 0.931 . S
H438 C416 0.930 . S
H439 C417 0.930 . S
Tb440 C442 2.809 . S
Tb440 O460 2.484 . S
Tb440 O461 2.440 . S
Tb440 O462 2.658 . S
Tb440 O463 2.409 . S
Tb440 O464 2.378 . S
Tb440 O468 2.325 . S
Tb440 O471 2.341 . S
Tb441 C451 2.809 . S
Tb441 O462 2.325 . S
Tb441 O465 2.341 . S
Tb441 O466 2.484 . S
Tb441 O467 2.440 . S
Tb441 O468 2.658 . S
Tb441 O469 2.409 . S
Tb441 O470 2.378 . S
C442 Tb440 2.809 . S
C442 C443 1.514 . S
C442 O460 1.248 . S
C442 O461 1.266 . S
C443 C442 1.514 . S
C443 C444 1.359 . S
C443 C448 1.348 . S
C444 C443 1.359 . S
C444 C445 1.380 . S
C444 H472 0.929 . S
C445 C444 1.380 . S
C445 C446 1.347 . S
C445 H473 0.931 . S
C446 C445 1.347 . S
C446 C447 1.369 . S
C447 C446 1.369 . S
C447 C448 1.408 . S
C447 H474 0.930 . S
C448 C443 1.348 . S
C448 C447 1.408 . S
C448 H475 0.930 . S
C449 O462 1.281 . S
C449 O463 1.254 . S
C450 O464 1.236 . S
C450 O465 1.266 . S
C451 Tb441 2.809 . S
C451 C452 1.514 . S
C451 O466 1.248 . S
C451 O467 1.266 . S
C452 C451 1.514 . S
C452 C453 1.359 . S
C452 C457 1.348 . S
C453 C452 1.359 . S
C453 C454 1.380 . S
C453 H476 0.929 . S
C454 C453 1.380 . S
C454 C455 1.347 . S
C454 H477 0.931 . S
C455 C454 1.347 . S
C455 C456 1.369 . S
C456 C455 1.369 . S
C456 C457 1.408 . S
C456 H478 0.930 . S
C457 C452 1.348 . S
C457 C456 1.408 . S
C457 H479 0.930 . S
C458 O468 1.281 . S
C458 O469 1.254 . S
C459 O470 1.236 . S
C459 O471 1.266 . S
O460 Tb440 2.484 . S
O460 C442 1.248 . S
O461 Tb440 2.440 . S
O461 C442 1.266 . S
O462 Tb440 2.658 . S
O462 Tb441 2.325 . S
O462 C449 1.281 . S
O463 Tb440 2.409 . S
O463 C449 1.254 . S
O464 Tb440 2.378 . S
O464 C450 1.236 . S
O465 Tb441 2.341 . S
O465 C450 1.266 . S
O466 Tb441 2.484 . S
O466 C451 1.248 . S
O467 Tb441 2.440 . S
O467 C451 1.266 . S
O468 Tb440 2.325 . S
O468 Tb441 2.658 . S
O468 C458 1.281 . S
O469 Tb441 2.409 . S
O469 C458 1.254 . S
O470 Tb441 2.378 . S
O470 C459 1.236 . S
O471 Tb440 2.341 . S
O471 C459 1.266 . S
H472 C444 0.929 . S
H473 C445 0.931 . S
H474 C447 0.930 . S
H475 C448 0.930 . S
H476 C453 0.929 . S
H477 C454 0.931 . S
H478 C456 0.930 . S
H479 C457 0.930 . S
C480 C481 1.363 . S
C480 C486 1.379 . S
C480 N488 1.356 . S
C481 C480 1.363 . S
C481 C487 1.363 . S
C482 C483 1.363 . S
C482 C487 1.379 . S
C482 N489 1.356 . S
C483 C482 1.363 . S
C483 C486 1.363 . S
N484 C486 1.356 . S
N484 H496 0.984 . S
N484 H497 0.985 . S
N485 C487 1.356 . S
N485 H490 0.984 . S
N485 H491 0.985 . S
C486 C480 1.379 . S
C486 C483 1.363 . S
C486 N484 1.356 . S
C487 C481 1.363 . S
C487 C482 1.379 . S
C487 N485 1.356 . S
N488 C480 1.356 . S
N488 H494 0.984 . S
N488 H495 0.984 . S
N489 C482 1.356 . S
N489 H492 0.984 . S
N489 H493 0.985 . S
H490 N485 0.984 . S
H491 N485 0.985 . S
H492 N489 0.984 . S
H493 N489 0.985 . S
H494 N488 0.984 . S
H495 N488 0.984 . S
H496 N484 0.984 . S
H497 N484 0.985 . S
C498 C499 1.363 . S
C498 C504 1.379 . S
C498 N506 1.356 . S
C499 C498 1.363 . S
C499 C505 1.363 . S
C500 C501 1.363 . S
C500 C505 1.379 . S
C500 N507 1.356 . S
C501 C500 1.363 . S
C501 C504 1.363 . S
N502 C504 1.356 . S
N502 H514 0.984 . S
N502 H515 0.985 . S
N503 C505 1.356 . S
N503 H508 0.984 . S
N503 H509 0.985 . S
C504 C498 1.379 . S
C504 C501 1.363 . S
C504 N502 1.356 . S
C505 C499 1.363 . S
C505 C500 1.379 . S
C505 N503 1.356 . S
N506 C498 1.356 . S
N506 H512 0.984 . S
N506 H513 0.984 . S
N507 C500 1.356 . S
N507 H510 0.984 . S
N507 H511 0.985 . S
H508 N503 0.984 . S
H509 N503 0.985 . S
H510 N507 0.984 . S
H511 N507 0.985 . S
H512 N506 0.984 . S
H513 N506 0.984 . S
H514 N502 0.984 . S
H515 N502 0.985 . S
C516 C517 1.363 . S
C516 C522 1.379 . S
C516 N524 1.356 1_554 S
C517 C516 1.363 . S
C517 C523 1.363 . S
C518 C519 1.363 . S
C518 C523 1.379 . S
C518 N525 1.356 . S
C519 C518 1.363 . S
C519 C522 1.363 . S
N520 C522 1.356 . S
N520 H532 0.984 1_554 S
N520 H533 0.985 . S
N521 C523 1.356 . S
N521 H526 0.984 . S
N521 H527 0.985 . S
C522 C516 1.379 . S
C522 C519 1.363 . S
C522 N520 1.356 . S
C523 C517 1.363 . S
C523 C518 1.379 . S
C523 N521 1.356 . S
N524 C516 1.356 1_556 S
N524 H530 0.984 . S
N524 H531 0.984 . S
N525 C518 1.356 . S
N525 H528 0.984 . S
N525 H529 0.985 . S
H526 N521 0.984 . S
H527 N521 0.985 . S
H528 N525 0.984 . S
H529 N525 0.985 . S
H530 N524 0.984 . S
H531 N524 0.984 . S
H532 N520 0.984 1_556 S
H533 N520 0.985 . S
C534 C535 1.363 . S
C534 C540 1.379 . S
C534 N542 1.356 . S
C535 C534 1.363 . S
C535 C541 1.363 . S
C536 C537 1.363 . S
C536 C541 1.379 . S
C536 N543 1.356 . S
C537 C536 1.363 . S
C537 C540 1.363 . S
N538 C540 1.356 . S
N538 H550 0.984 . S
N538 H551 0.985 . S
N539 C541 1.356 . S
N539 H544 0.984 . S
N539 H545 0.985 . S
C540 C534 1.379 . S
C540 C537 1.363 . S
C540 N538 1.356 . S
C541 C535 1.363 . S
C541 C536 1.379 . S
C541 N539 1.356 . S
N542 C534 1.356 . S
N542 H548 0.984 . S
N542 H549 0.984 . S
N543 C536 1.356 . S
N543 H546 0.984 . S
N543 H547 0.985 . S
H544 N539 0.984 . S
H545 N539 0.985 . S
H546 N543 0.984 . S
H547 N543 0.985 . S
H548 N542 0.984 . S
H549 N542 0.984 . S
H550 N538 0.984 . S
H551 N538 0.985 . S
C552 C553 1.363 . S
C552 C558 1.379 . S
C552 N560 1.356 . S
C553 C552 1.363 . S
C553 C559 1.363 . S
C554 C555 1.363 . S
C554 C559 1.379 . S
C554 N561 1.356 . S
C555 C554 1.363 . S
C555 C558 1.363 . S
N556 C558 1.356 . S
N556 H568 0.984 . S
N556 H569 0.985 . S
N557 C559 1.356 . S
N557 H562 0.984 . S
N557 H563 0.985 . S
C558 C552 1.379 . S
C558 C555 1.363 . S
C558 N556 1.356 . S
C559 C553 1.363 . S
C559 C554 1.379 . S
C559 N557 1.356 . S
N560 C552 1.356 . S
N560 H566 0.984 . S
N560 H567 0.984 . S
N561 C554 1.356 . S
N561 H564 0.984 . S
N561 H565 0.985 . S
H562 N557 0.984 . S
H563 N557 0.985 . S
H564 N561 0.984 . S
H565 N561 0.985 . S
H566 N560 0.984 . S
H567 N560 0.984 . S
H568 N556 0.984 . S
H569 N556 0.985 . S
C570 C571 1.363 . S
C570 C576 1.379 . S
C570 N578 1.356 . S
C571 C570 1.363 . S
C571 C577 1.363 . S
C572 C573 1.363 . S
C572 C577 1.379 . S
C572 N579 1.356 . S
C573 C572 1.363 . S
C573 C576 1.363 . S
N574 C576 1.356 . S
N574 H586 0.984 . S
N574 H587 0.985 . S
N575 C577 1.356 . S
N575 H580 0.984 . S
N575 H581 0.985 . S
C576 C570 1.379 . S
C576 C573 1.363 . S
C576 N574 1.356 . S
C577 C571 1.363 . S
C577 C572 1.379 . S
C577 N575 1.356 . S
N578 C570 1.356 . S
N578 H584 0.984 . S
N578 H585 0.984 . S
N579 C572 1.356 . S
N579 H582 0.984 . S
N579 H583 0.985 . S
H580 N575 0.984 . S
H581 N575 0.985 . S
H582 N579 0.984 . S
H583 N579 0.985 . S
H584 N578 0.984 . S
H585 N578 0.984 . S
H586 N574 0.984 . S
H587 N574 0.985 . S
C588 C589 1.363 . S
C588 C594 1.379 . S
C588 N596 1.354 1_556 S
C589 C588 1.363 . S
C589 C595 1.363 . S
C590 C591 1.363 . S
C590 C595 1.379 . S
C590 N597 1.356 . S
C591 C590 1.363 . S
C591 C594 1.363 . S
N592 C594 1.356 1_554 S
N592 H604 0.984 . S
N592 H605 0.985 . S
N593 C595 1.356 . S
N593 H598 0.984 . S
N593 H599 0.985 . S
C594 C588 1.379 . S
C594 C591 1.363 . S
C594 N592 1.356 1_556 S
C595 C589 1.363 . S
C595 C590 1.379 . S
C595 N593 1.356 . S
N596 C588 1.354 1_554 S
N596 H602 0.989 . S
N596 H603 0.983 1_554 S
N597 C590 1.356 . S
N597 H600 0.984 . S
N597 H601 0.985 . S
H598 N593 0.984 . S
H599 N593 0.985 . S
H600 N597 0.984 . S
H601 N597 0.985 . S
H602 N596 0.989 . S
H603 N596 0.983 1_556 S
H604 N592 0.984 . S
H605 N592 0.985 . S
C606 C607 1.363 . S
C606 C612 1.379 . S
C606 N614 1.356 . S
C607 C606 1.363 . S
C607 C613 1.363 . S
C608 C609 1.363 . S
C608 C613 1.379 . S
C608 N615 1.356 . S
C609 C608 1.363 . S
C609 C612 1.363 . S
N610 C612 1.356 . S
N610 H622 0.984 . S
N610 H623 0.985 . S
N611 C613 1.356 . S
N611 H616 0.984 . S
N611 H617 0.985 . S
C612 C606 1.379 . S
C612 C609 1.363 . S
C612 N610 1.356 . S
C613 C607 1.363 . S
C613 C608 1.379 . S
C613 N611 1.356 . S
N614 C606 1.356 . S
N614 H620 0.984 . S
N614 H621 0.984 . S
N615 C608 1.356 . S
N615 H618 0.984 . S
N615 H619 0.985 . S
H616 N611 0.984 . S
H617 N611 0.985 . S
H618 N615 0.984 . S
H619 N615 0.985 . S
H620 N614 0.984 . S
H621 N614 0.984 . S
H622 N610 0.984 . S
H623 N610 0.985 . S
C624 C625 1.363 . S
C624 C630 1.379 . S
C624 N632 1.356 . S
C625 C624 1.363 . S
C625 C631 1.363 . S
C626 C627 1.363 . S
C626 C631 1.379 . S
C626 N633 1.356 . S
C627 C626 1.363 . S
C627 C630 1.363 . S
N628 C630 1.356 . S
N628 H640 0.984 . S
N628 H641 0.985 . S
N629 C631 1.356 . S
N629 H634 0.984 . S
N629 H635 0.985 . S
C630 C624 1.379 . S
C630 C627 1.363 . S
C630 N628 1.356 . S
C631 C625 1.363 . S
C631 C626 1.379 . S
C631 N629 1.356 . S
N632 C624 1.356 . S
N632 H638 0.984 . S
N632 H639 0.984 . S
N633 C626 1.356 . S
N633 H636 0.984 . S
N633 H637 0.985 . S
H634 N629 0.984 . S
H635 N629 0.985 . S
H636 N633 0.984 . S
H637 N633 0.985 . S
H638 N632 0.984 . S
H639 N632 0.984 . S
H640 N628 0.984 . S
H641 N628 0.985 . S
C642 C643 1.363 . S
C642 C648 1.379 . S
C642 N650 1.356 . S
C643 C642 1.363 . S
C643 C649 1.363 . S
C644 C645 1.363 . S
C644 C649 1.379 . S
C644 N651 1.356 . S
C645 C644 1.363 . S
C645 C648 1.363 . S
N646 C648 1.356 . S
N646 H658 0.984 . S
N646 H659 0.985 . S
N647 C649 1.356 . S
N647 H652 0.984 . S
N647 H653 0.985 . S
C648 C642 1.379 . S
C648 C645 1.363 . S
C648 N646 1.356 . S
C649 C643 1.363 . S
C649 C644 1.379 . S
C649 N647 1.356 . S
N650 C642 1.356 . S
N650 H656 0.984 . S
N650 H657 0.984 . S
N651 C644 1.356 . S
N651 H654 0.984 . S
N651 H655 0.985 . S
H652 N647 0.984 . S
H653 N647 0.985 . S
H654 N651 0.984 . S
H655 N651 0.985 . S
H656 N650 0.984 . S
H657 N650 0.984 . S
H658 N646 0.984 . S
H659 N646 0.985 . S
C660 C661 1.363 . S
C660 C666 1.379 . S
C660 N668 1.356 . S
C661 C660 1.363 . S
C661 C667 1.363 . S
C662 C663 1.363 . S
C662 C667 1.379 . S
C662 N669 1.356 . S
C663 C662 1.363 . S
C663 C666 1.363 . S
N664 C666 1.356 . S
N664 H676 0.984 . S
N664 H677 0.985 . S
N665 C667 1.356 . S
N665 H670 0.984 . S
N665 H671 0.985 . S
C666 C660 1.379 . S
C666 C663 1.363 . S
C666 N664 1.356 . S
C667 C661 1.363 . S
C667 C662 1.379 . S
C667 N665 1.356 . S
N668 C660 1.356 . S
N668 H674 0.984 . S
N668 H675 0.984 . S
N669 C662 1.356 . S
N669 H672 0.984 . S
N669 H673 0.985 . S
H670 N665 0.984 . S
H671 N665 0.985 . S
H672 N669 0.984 . S
H673 N669 0.985 . S
H674 N668 0.984 . S
H675 N668 0.984 . S
H676 N664 0.984 . S
H677 N664 0.985 . S
C678 C679 1.363 . S
C678 C684 1.379 . S
C678 N686 1.356 . S
C679 C678 1.363 . S
C679 C685 1.363 . S
C680 C681 1.363 . S
C680 C685 1.379 . S
C680 N687 1.356 . S
C681 C680 1.363 . S
C681 C684 1.363 . S
N682 C684 1.356 . S
N682 H694 0.984 . S
N682 H695 0.985 . S
N683 C685 1.356 . S
N683 H688 0.984 . S
N683 H689 0.985 . S
C684 C678 1.379 . S
C684 C681 1.363 . S
C684 N682 1.356 . S
C685 C679 1.363 . S
C685 C680 1.379 . S
C685 N683 1.356 . S
N686 C678 1.356 . S
N686 H692 0.984 . S
N686 H693 0.984 . S
N687 C680 1.356 . S
N687 H690 0.984 . S
N687 H691 0.985 . S
H688 N683 0.984 . S
H689 N683 0.985 . S
H690 N687 0.984 . S
H691 N687 0.985 . S
H692 N686 0.984 . S
H693 N686 0.984 . S
H694 N682 0.984 . S
H695 N682 0.985 . S
C696 C697 1.363 . S
C696 C702 1.379 . S
C696 N704 1.356 . S
C697 C696 1.363 . S
C697 C703 1.363 . S
C698 C699 1.363 . S
C698 C703 1.379 . S
C698 N705 1.356 . S
C699 C698 1.363 . S
C699 C702 1.363 . S
N700 C702 1.356 . S
N700 H712 0.984 . S
N700 H713 0.985 . S
N701 C703 1.356 . S
N701 H706 0.984 . S
N701 H707 0.985 . S
C702 C696 1.379 . S
C702 C699 1.363 . S
C702 N700 1.356 . S
C703 C697 1.363 . S
C703 C698 1.379 . S
C703 N701 1.356 . S
N704 C696 1.356 . S
N704 H710 0.984 . S
N704 H711 0.984 . S
N705 C698 1.356 . S
N705 H708 0.984 . S
N705 H709 0.985 . S
H706 N701 0.984 . S
H707 N701 0.985 . S
H708 N705 0.984 . S
H709 N705 0.985 . S
H710 N704 0.984 . S
H711 N704 0.984 . S
H712 N700 0.984 . S
H713 N700 0.985 . S
C714 C715 1.363 . S
C714 C720 1.379 . S
C714 N722 1.356 . S
C715 C714 1.363 . S
C715 C721 1.363 . S
C716 C717 1.363 . S
C716 C721 1.379 . S
C716 N723 1.356 1_565 S
C717 C716 1.363 . S
C717 C720 1.363 . S
N718 C720 1.356 . S
N718 H730 0.984 . S
N718 H731 0.985 . S
N719 C721 1.356 . S
N719 H724 0.984 . S
N719 H725 0.985 1_565 S
C720 C714 1.379 . S
C720 C717 1.363 . S
C720 N718 1.356 . S
C721 C715 1.363 . S
C721 C716 1.379 . S
C721 N719 1.356 . S
N722 C714 1.356 . S
N722 H728 0.984 . S
N722 H729 0.984 . S
N723 C716 1.356 1_545 S
N723 H726 0.984 . S
N723 H727 0.985 . S
H724 N719 0.984 . S
H725 N719 0.985 1_545 S
H726 N723 0.984 . S
H727 N723 0.985 . S
H728 N722 0.984 . S
H729 N722 0.984 . S
H730 N718 0.984 . S
H731 N718 0.985 . S
C732 C733 1.363 . S
C732 C738 1.379 . S
C732 N740 1.356 . S
C733 C732 1.363 . S
C733 C739 1.363 . S
C734 C735 1.363 . S
C734 C739 1.379 . S
C734 N741 1.356 . S
C735 C734 1.363 . S
C735 C738 1.363 . S
N736 C738 1.356 . S
N736 H748 0.984 . S
N736 H749 0.985 . S
N737 C739 1.356 . S
N737 H742 0.984 . S
N737 H743 0.985 . S
C738 C732 1.379 . S
C738 C735 1.363 . S
C738 N736 1.356 . S
C739 C733 1.363 . S
C739 C734 1.379 . S
C739 N737 1.356 . S
N740 C732 1.356 . S
N740 H746 0.984 . S
N740 H747 0.984 . S
N741 C734 1.356 . S
N741 H744 0.984 . S
N741 H745 0.985 . S
H742 N737 0.984 . S
H743 N737 0.985 . S
H744 N741 0.984 . S
H745 N741 0.985 . S
H746 N740 0.984 . S
H747 N740 0.984 . S
H748 N736 0.984 . S
H749 N736 0.985 . S
C750 C751 1.363 . S
C750 C756 1.379 1_554 S
C750 N758 1.356 . S
C751 C750 1.363 . S
C751 C757 1.363 . S
C752 C753 1.363 . S
C752 C757 1.379 1_556 S
C752 N759 1.356 . S
C753 C752 1.363 . S
C753 C756 1.363 . S
N754 C756 1.356 . S
N754 H766 0.984 1_545 S
N754 H767 0.985 . S
N755 C757 1.356 . S
N755 H760 0.984 . S
N755 H761 0.985 . S
C756 C750 1.379 1_556 S
C756 C753 1.363 . S
C756 N754 1.356 . S
C757 C751 1.363 . S
C757 C752 1.379 1_554 S
C757 N755 1.356 . S
N758 C750 1.356 . S
N758 H764 0.966 1_545 S
N758 H765 0.984 . S
N759 C752 1.356 . S
N759 H762 0.984 . S
N759 H763 0.985 . S
H760 N755 0.984 . S
H761 N755 0.985 . S
H762 N759 0.984 . S
H763 N759 0.985 . S
H764 N758 0.966 1_565 S
H765 N758 0.984 . S
H766 N754 0.984 1_565 S
H767 N754 0.985 . S
C768 C769 1.363 . S
C768 C774 1.379 . S
C768 N776 1.356 . S
C769 C768 1.363 . S
C769 C775 1.363 . S
C770 C771 1.363 . S
C770 C775 1.379 . S
C770 N777 1.356 . S
C771 C770 1.363 . S
C771 C774 1.363 . S
N772 C774 1.356 . S
N772 H784 0.984 . S
N772 H785 0.985 . S
N773 C775 1.356 . S
N773 H778 0.984 . S
N773 H779 0.985 . S
C774 C768 1.379 . S
C774 C771 1.363 . S
C774 N772 1.356 . S
C775 C769 1.363 . S
C775 C770 1.379 . S
C775 N773 1.356 . S
N776 C768 1.356 . S
N776 H782 0.984 . S
N776 H783 0.984 . S
N777 C770 1.356 . S
N777 H780 0.984 . S
N777 H781 0.985 . S
H778 N773 0.984 . S
H779 N773 0.985 . S
H780 N777 0.984 . S
H781 N777 0.985 . S
H782 N776 0.984 . S
H783 N776 0.984 . S
H784 N772 0.984 . S
H785 N772 0.985 . S
C786 C787 1.363 . S
C786 C792 1.379 1_554 S
C786 N794 1.356 . S
C787 C786 1.363 . S
C787 C793 1.363 . S
C788 C789 1.363 . S
C788 C793 1.379 1_556 S
C788 N795 1.356 . S
C789 C788 1.363 . S
C789 C792 1.363 . S
N790 C792 1.356 . S
N790 H802 0.984 . S
N790 H803 0.985 . S
N791 C793 1.356 . S
N791 H796 0.984 . S
N791 H797 0.985 . S
C792 C786 1.379 1_556 S
C792 C789 1.363 . S
C792 N790 1.356 . S
C793 C787 1.363 . S
C793 C788 1.379 1_554 S
C793 N791 1.356 . S
N794 C786 1.356 . S
N794 H800 0.984 . S
N794 H801 0.984 . S
N795 C788 1.356 . S
N795 H798 0.984 . S
N795 H799 0.985 . S
H796 N791 0.984 . S
H797 N791 0.985 . S
H798 N795 0.984 . S
H799 N795 0.985 . S
H800 N794 0.984 . S
H801 N794 0.984 . S
H802 N790 0.984 . S
H803 N790 0.985 . S
C804 C805 1.363 . S
C804 C810 1.379 . S
C804 N812 1.356 . S
C805 C804 1.363 . S
C805 C811 1.363 . S
C806 C807 1.363 . S
C806 C811 1.379 . S
C806 N813 1.356 . S
C807 C806 1.363 . S
C807 C810 1.363 . S
N808 C810 1.356 . S
N808 H820 0.984 . S
N808 H821 0.985 . S
N809 C811 1.356 . S
N809 H814 0.984 . S
N809 H815 0.985 1_565 S
C810 C804 1.379 . S
C810 C807 1.363 . S
C810 N808 1.356 . S
C811 C805 1.363 . S
C811 C806 1.379 . S
C811 N809 1.356 . S
N812 C804 1.356 . S
N812 H818 0.984 . S
N812 H819 0.984 . S
N813 C806 1.356 . S
N813 H816 0.984 . S
N813 H817 0.985 . S
H814 N809 0.984 . S
H815 N809 0.985 1_545 S
H816 N813 0.984 . S
H817 N813 0.985 . S
H818 N812 0.984 . S
H819 N812 0.984 . S
H820 N808 0.984 . S
H821 N808 0.985 . S
C822 C823 1.363 . S
C822 C828 1.379 . S
C822 N830 1.356 . S
C823 C822 1.363 . S
C823 C829 1.363 . S
C824 C825 1.363 . S
C824 C829 1.379 . S
C824 N831 1.356 . S
C825 C824 1.363 . S
C825 C828 1.363 . S
N826 C828 1.356 . S
N826 H838 0.984 . S
N826 H839 0.985 . S
N827 C829 1.356 . S
N827 H832 0.984 . S
N827 H833 0.985 . S
C828 C822 1.379 . S
C828 C825 1.363 . S
C828 N826 1.356 . S
C829 C823 1.363 . S
C829 C824 1.379 . S
C829 N827 1.356 . S
N830 C822 1.356 . S
N830 H836 0.984 . S
N830 H837 0.984 . S
N831 C824 1.356 . S
N831 H834 0.984 . S
N831 H835 0.985 . S
H832 N827 0.984 . S
H833 N827 0.985 . S
H834 N831 0.984 . S
H835 N831 0.985 . S
H836 N830 0.984 . S
H837 N830 0.984 . S
H838 N826 0.984 . S
H839 N826 0.985 . S
C840 C841 1.363 . S
C840 C846 1.379 . S
C840 N848 1.356 . S
C841 C840 1.363 . S
C841 C847 1.363 . S
C842 C843 1.363 . S
C842 C847 1.379 . S
C842 N849 1.356 . S
C843 C842 1.363 . S
C843 C846 1.363 . S
N844 C846 1.356 . S
N844 H856 0.984 . S
N844 H857 0.985 . S
N845 C847 1.356 . S
N845 H850 0.984 . S
N845 H851 0.985 . S
C846 C840 1.379 . S
C846 C843 1.363 . S
C846 N844 1.356 . S
C847 C841 1.363 . S
C847 C842 1.379 . S
C847 N845 1.356 . S
N848 C840 1.356 . S
N848 H854 0.984 . S
N848 H855 0.984 . S
N849 C842 1.356 . S
N849 H852 0.984 . S
N849 H853 0.985 . S
H850 N845 0.984 . S
H851 N845 0.985 . S
H852 N849 0.984 . S
H853 N849 0.985 . S
H854 N848 0.984 . S
H855 N848 0.984 . S
H856 N844 0.984 . S
H857 N844 0.985 . S
C858 C859 1.363 . S
C858 C864 1.379 1_545 S
C858 N866 1.356 . S
C859 C858 1.363 . S
C859 C865 1.363 . S
C860 C861 1.363 . S
C860 C865 1.379 1_565 S
C860 N867 1.356 . S
C861 C860 1.363 . S
C861 C864 1.363 . S
N862 C864 1.356 . S
N862 H874 0.984 . S
N862 H875 0.985 . S
N863 C865 1.356 . S
N863 H868 0.984 . S
N863 H869 0.985 . S
C864 C858 1.379 1_565 S
C864 C861 1.363 . S
C864 N862 1.356 . S
C865 C859 1.363 . S
C865 C860 1.379 1_545 S
C865 N863 1.356 . S
N866 C858 1.356 . S
N866 H872 0.984 . S
N866 H873 0.984 . S
N867 C860 1.356 . S
N867 H870 0.984 . S
N867 H871 0.985 . S
H868 N863 0.984 . S
H869 N863 0.985 . S
H870 N867 0.984 . S
H871 N867 0.985 . S
H872 N866 0.984 . S
H873 N866 0.984 . S
H874 N862 0.984 . S
H875 N862 0.985 . S
C876 C877 1.363 . S
C876 C882 1.379 . S
C876 N884 1.356 1_556 S
C877 C876 1.363 . S
C877 C883 1.363 . S
C878 C879 1.363 . S
C878 C883 1.379 . S
C878 N885 1.356 . S
C879 C878 1.363 . S
C879 C882 1.363 . S
N880 C882 1.356 1_554 S
N880 H892 0.984 . S
N880 H893 0.985 1_554 S
N881 C883 1.356 . S
N881 H886 0.984 . S
N881 H887 0.985 . S
C882 C876 1.379 . S
C882 C879 1.363 . S
C882 N880 1.356 1_556 S
C883 C877 1.363 . S
C883 C878 1.379 . S
C883 N881 1.356 . S
N884 C876 1.356 1_554 S
N884 H890 0.984 . S
N884 H891 0.984 . S
N885 C878 1.356 . S
N885 H888 0.984 . S
N885 H889 0.985 . S
H886 N881 0.984 . S
H887 N881 0.985 . S
H888 N885 0.984 . S
H889 N885 0.985 . S
H890 N884 0.984 . S
H891 N884 0.984 . S
H892 N880 0.984 . S
H893 N880 0.985 1_556 S
C894 C895 1.363 . S
C894 C900 1.379 1_545 S
C894 N902 1.356 . S
C895 C894 1.363 . S
C895 C901 1.363 . S
C896 C897 1.363 1_545 S
C896 C901 1.379 . S
C896 N903 1.356 1_545 S
C897 C896 1.363 1_565 S
C897 C900 1.363 . S
N898 C900 1.356 . S
N898 H910 0.984 . S
N898 H911 0.985 . S
N899 C901 1.356 . S
N899 H904 0.984 . S
N899 H905 0.985 . S
C900 C894 1.379 1_565 S
C900 C897 1.363 . S
C900 N898 1.356 . S
C901 C895 1.363 . S
C901 C896 1.379 . S
C901 N899 1.356 . S
N902 C894 1.356 . S
N902 H908 0.984 . S
N902 H909 0.984 . S
N903 C896 1.356 1_565 S
N903 H906 0.984 . S
N903 H907 0.985 1_565 S
H904 N899 0.984 . S
H905 N899 0.985 . S
H906 N903 0.984 . S
H907 N903 0.985 1_545 S
H908 N902 0.984 . S
H909 N902 0.984 . S
H910 N898 0.984 . S
H911 N898 0.985 . S
C912 C913 1.363 . S
C912 C918 1.379 . S
C912 N920 1.356 . S
C913 C912 1.363 . S
C913 C919 1.363 . S
C914 C915 1.363 . S
C914 C919 1.379 . S
C914 N921 1.356 . S
C915 C914 1.363 . S
C915 C918 1.363 . S
N916 C918 1.356 . S
N916 H928 0.984 . S
N916 H929 0.985 . S
N917 C919 1.356 . S
N917 H922 0.984 . S
N917 H923 0.985 . S
C918 C912 1.379 . S
C918 C915 1.363 . S
C918 N916 1.356 . S
C919 C913 1.363 . S
C919 C914 1.379 . S
C919 N917 1.356 . S
N920 C912 1.356 . S
N920 H926 0.984 . S
N920 H927 0.984 . S
N921 C914 1.356 . S
N921 H924 0.984 . S
N921 H925 0.985 . S
H922 N917 0.984 . S
H923 N917 0.985 . S
H924 N921 0.984 . S
H925 N921 0.985 . S
H926 N920 0.984 . S
H927 N920 0.984 . S
H928 N916 0.984 . S
H929 N916 0.985 . S
C930 C931 1.363 . S
C930 C936 1.379 . S
C930 N938 1.356 . S
C931 C930 1.363 . S
C931 C937 1.363 . S
C932 C933 1.363 . S
C932 C937 1.379 . S
C932 N939 1.356 . S
C933 C932 1.363 . S
C933 C936 1.363 . S
N934 C936 1.356 . S
N934 H946 0.984 . S
N934 H947 0.985 . S
N935 C937 1.356 . S
N935 H940 0.984 . S
N935 H941 0.985 . S
C936 C930 1.379 . S
C936 C933 1.363 . S
C936 N934 1.356 . S
C937 C931 1.363 . S
C937 C932 1.379 . S
C937 N935 1.356 . S
N938 C930 1.356 . S
N938 H944 0.984 1_655 S
N938 H945 0.984 . S
N939 C932 1.356 . S
N939 H942 0.984 . S
N939 H943 0.985 . S
H940 N935 0.984 . S
H941 N935 0.985 . S
H942 N939 0.984 . S
H943 N939 0.985 . S
H944 N938 0.984 1_455 S
H945 N938 0.984 . S
H946 N934 0.984 . S
H947 N934 0.985 . S
C948 C949 1.363 . S
C948 C954 1.379 . S
C948 N956 1.356 . S
C949 C948 1.363 . S
C949 C955 1.363 . S
C950 C951 1.363 . S
C950 C955 1.379 . S
C950 N957 1.356 . S
C951 C950 1.363 . S
C951 C954 1.363 . S
N952 C954 1.356 . S
N952 H964 0.984 . S
N952 H965 0.985 . S
N953 C955 1.356 . S
N953 H958 0.984 . S
N953 H959 0.985 . S
C954 C948 1.379 . S
C954 C951 1.363 . S
C954 N952 1.356 . S
C955 C949 1.363 . S
C955 C950 1.379 . S
C955 N953 1.356 . S
N956 C948 1.356 . S
N956 H962 0.984 . S
N956 H963 0.984 . S
N957 C950 1.356 . S
N957 H960 0.984 . S
N957 H961 0.985 . S
H958 N953 0.984 . S
H959 N953 0.985 . S
H960 N957 0.984 . S
H961 N957 0.985 . S
H962 N956 0.984 . S
H963 N956 0.984 . S
H964 N952 0.984 . S
H965 N952 0.985 . S
C966 C967 1.363 . S
C966 C972 1.379 . S
C966 N974 1.356 . S
C967 C966 1.363 . S
C967 C973 1.363 . S
C968 C969 1.363 . S
C968 C973 1.379 . S
C968 N975 1.356 . S
C969 C968 1.363 . S
C969 C972 1.363 . S
N970 C972 1.356 . S
N970 H982 0.984 . S
N970 H983 0.985 . S
N971 C973 1.356 . S
N971 H976 0.984 . S
N971 H977 0.985 . S
C972 C966 1.379 . S
C972 C969 1.363 . S
C972 N970 1.356 . S
C973 C967 1.363 . S
C973 C968 1.379 . S
C973 N971 1.356 . S
N974 C966 1.356 . S
N974 H980 0.984 . S
N974 H981 0.984 . S
N975 C968 1.356 . S
N975 H978 0.984 . S
N975 H979 0.985 . S
H976 N971 0.984 . S
H977 N971 0.985 . S
H978 N975 0.984 . S
H979 N975 0.985 . S
H980 N974 0.984 . S
H981 N974 0.984 . S
H982 N970 0.984 . S
H983 N970 0.985 . S
C984 C985 1.363 . S
C984 C990 1.379 . S
C984 N992 1.356 . S
C985 C984 1.363 . S
C985 C991 1.363 . S
C986 C987 1.363 . S
C986 C991 1.379 . S
C986 N993 1.356 . S
C987 C986 1.363 . S
C987 C990 1.363 . S
N988 C990 1.356 . S
N988 H1000 0.984 . S
N988 H1001 0.985 . S
N989 C991 1.356 . S
N989 H994 0.984 . S
N989 H995 0.985 . S
C990 C984 1.379 . S
C990 C987 1.363 . S
C990 N988 1.356 . S
C991 C985 1.363 . S
C991 C986 1.379 . S
C991 N989 1.356 . S
N992 C984 1.356 . S
N992 H998 0.984 . S
N992 H999 0.984 . S
N993 C986 1.356 . S
N993 H996 0.984 . S
N993 H997 0.985 . S
H994 N989 0.984 . S
H995 N989 0.985 . S
H996 N993 0.984 . S
H997 N993 0.985 . S
H998 N992 0.984 . S
H999 N992 0.984 . S
H1000 N988 0.984 . S
H1001 N988 0.985 . S
C1002 C1003 1.363 . S
C1002 C1008 1.379 . S
C1002 N1010 1.356 . S
C1003 C1002 1.363 . S
C1003 C1009 1.363 . S
C1004 C1005 1.363 . S
C1004 C1009 1.379 . S
C1004 N1011 1.356 . S
C1005 C1004 1.363 . S
C1005 C1008 1.363 . S
N1006 C1008 1.356 . S
N1006 H1018 0.984 . S
N1006 H1019 0.985 . S
N1007 C1009 1.356 . S
N1007 H1012 0.984 . S
N1007 H1013 0.985 . S
C1008 C1002 1.379 . S
C1008 C1005 1.363 . S
C1008 N1006 1.356 . S
C1009 C1003 1.363 . S
C1009 C1004 1.379 . S
C1009 N1007 1.356 . S
N1010 C1002 1.356 . S
N1010 H1016 0.984 . S
N1010 H1017 0.984 . S
N1011 C1004 1.356 . S
N1011 H1014 0.984 . S
N1011 H1015 0.985 . S
H1012 N1007 0.984 . S
H1013 N1007 0.985 . S
H1014 N1011 0.984 . S
H1015 N1011 0.985 . S
H1016 N1010 0.984 . S
H1017 N1010 0.984 . S
H1018 N1006 0.984 . S
H1019 N1006 0.985 . S
C1020 C1021 1.363 . S
C1020 C1026 1.379 . S
C1020 N1028 1.356 . S
C1021 C1020 1.363 . S
C1021 C1027 1.363 . S
C1022 C1023 1.363 . S
C1022 C1027 1.379 1_655 S
C1022 N1029 1.356 . S
C1023 C1022 1.363 . S
C1023 C1026 1.363 1_655 S
N1024 C1026 1.356 1_655 S
N1024 H1036 0.984 . S
N1024 H1037 0.985 . S
N1025 C1027 1.356 . S
N1025 H1030 0.984 . S
N1025 H1031 0.985 . S
C1026 C1020 1.379 . S
C1026 C1023 1.363 1_455 S
C1026 N1024 1.356 1_455 S
C1027 C1021 1.363 . S
C1027 C1022 1.379 1_455 S
C1027 N1025 1.356 . S
N1028 C1020 1.356 . S
N1028 H1034 0.984 . S
N1028 H1035 0.984 . S
N1029 C1022 1.356 . S
N1029 H1032 0.984 . S
N1029 H1033 0.985 . S
H1030 N1025 0.984 . S
H1031 N1025 0.985 . S
H1032 N1029 0.984 . S
H1033 N1029 0.985 . S
H1034 N1028 0.984 . S
H1035 N1028 0.984 . S
H1036 N1024 0.984 . S
H1037 N1024 0.985 . S
C1038 C1039 1.363 . S
C1038 C1044 1.379 . S
C1038 N1046 1.356 . S
C1039 C1038 1.363 . S
C1039 C1045 1.363 . S
C1040 C1041 1.363 . S
C1040 C1045 1.379 . S
C1040 N1047 1.356 . S
C1041 C1040 1.363 . S
C1041 C1044 1.363 . S
N1042 C1044 1.356 . S
N1042 H1054 0.984 . S
N1042 H1055 0.985 . S
N1043 C1045 1.356 . S
N1043 H1048 0.984 . S
N1043 H1049 0.985 . S
C1044 C1038 1.379 . S
C1044 C1041 1.363 . S
C1044 N1042 1.356 . S
C1045 C1039 1.363 . S
C1045 C1040 1.379 . S
C1045 N1043 1.356 . S
N1046 C1038 1.356 . S
N1046 H1052 0.984 . S
N1046 H1053 0.984 . S
N1047 C1040 1.356 . S
N1047 H1050 0.984 . S
N1047 H1051 0.985 . S
H1048 N1043 0.984 . S
H1049 N1043 0.985 . S
H1050 N1047 0.984 . S
H1051 N1047 0.985 . S
H1052 N1046 0.984 . S
H1053 N1046 0.984 . S
H1054 N1042 0.984 . S
H1055 N1042 0.985 . S
C1056 C1057 1.363 . S
C1056 C1062 1.379 . S
C1056 N1064 1.356 . S
C1057 C1056 1.363 . S
C1057 C1063 1.363 . S
C1058 C1059 1.363 . S
C1058 C1063 1.379 . S
C1058 N1065 1.356 . S
C1059 C1058 1.363 . S
C1059 C1062 1.363 . S
N1060 C1062 1.356 . S
N1060 H1072 0.984 . S
N1060 H1073 0.985 . S
N1061 C1063 1.356 . S
N1061 H1066 0.984 . S
N1061 H1067 0.985 . S
C1062 C1056 1.379 . S
C1062 C1059 1.363 . S
C1062 N1060 1.356 . S
C1063 C1057 1.363 . S
C1063 C1058 1.379 . S
C1063 N1061 1.356 . S
N1064 C1056 1.356 . S
N1064 H1070 0.984 . S
N1064 H1071 0.984 . S
N1065 C1058 1.356 . S
N1065 H1068 0.984 . S
N1065 H1069 0.985 . S
H1066 N1061 0.984 . S
H1067 N1061 0.985 . S
H1068 N1065 0.984 . S
H1069 N1065 0.985 . S
H1070 N1064 0.984 . S
H1071 N1064 0.984 . S
H1072 N1060 0.984 . S
H1073 N1060 0.985 . S
C1074 C1075 1.363 . S
C1074 C1080 1.379 . S
C1074 N1082 1.356 . S
C1075 C1074 1.363 . S
C1075 C1081 1.363 . S
C1076 C1077 1.363 . S
C1076 C1081 1.379 . S
C1076 N1083 1.356 . S
C1077 C1076 1.363 . S
C1077 C1080 1.363 . S
N1078 C1080 1.356 . S
N1078 H1090 0.984 1_455 S
N1078 H1091 0.985 . S
N1079 C1081 1.356 . S
N1079 H1084 0.984 . S
N1079 H1085 0.985 . S
C1080 C1074 1.379 . S
C1080 C1077 1.363 . S
C1080 N1078 1.356 . S
C1081 C1075 1.363 . S
C1081 C1076 1.379 . S
C1081 N1079 1.356 . S
N1082 C1074 1.356 . S
N1082 H1088 0.984 1_455 S
N1082 H1089 0.984 . S
N1083 C1076 1.356 . S
N1083 H1086 0.984 . S
N1083 H1087 0.985 . S
H1084 N1079 0.984 . S
H1085 N1079 0.985 . S
H1086 N1083 0.984 . S
H1087 N1083 0.985 . S
H1088 N1082 0.984 1_655 S
H1089 N1082 0.984 . S
H1090 N1078 0.984 1_655 S
H1091 N1078 0.985 . S
C1092 C1093 1.363 . S
C1092 C1098 1.379 . S
C1092 N1100 1.356 1_556 S
C1093 C1092 1.363 . S
C1093 C1099 1.363 . S
C1094 C1095 1.363 . S
C1094 C1099 1.379 . S
C1094 N1101 1.356 . S
C1095 C1094 1.363 . S
C1095 C1098 1.363 . S
N1096 C1098 1.356 . S
N1096 H1108 0.984 1_556 S
N1096 H1109 0.985 . S
N1097 C1099 1.356 . S
N1097 H1102 0.984 . S
N1097 H1103 0.985 . S
C1098 C1092 1.379 . S
C1098 C1095 1.363 . S
C1098 N1096 1.356 . S
C1099 C1093 1.363 . S
C1099 C1094 1.379 . S
C1099 N1097 1.356 . S
N1100 C1092 1.356 1_554 S
N1100 H1106 0.984 . S
N1100 H1107 0.984 . S
N1101 C1094 1.356 . S
N1101 H1104 0.984 . S
N1101 H1105 0.985 . S
H1102 N1097 0.984 . S
H1103 N1097 0.985 . S
H1104 N1101 0.984 . S
H1105 N1101 0.985 . S
H1106 N1100 0.984 . S
H1107 N1100 0.984 . S
H1108 N1096 0.984 1_554 S
H1109 N1096 0.985 . S
C1110 C1111 1.363 . S
C1110 C1116 1.379 . S
C1110 N1118 1.356 . S
C1111 C1110 1.363 . S
C1111 C1117 1.363 . S
C1112 C1113 1.363 1_655 S
C1112 C1117 1.379 . S
C1112 N1119 1.356 1_655 S
C1113 C1112 1.363 1_455 S
C1113 C1116 1.363 1_455 S
N1114 C1116 1.356 1_455 S
N1114 H1126 0.984 . S
N1114 H1127 0.985 . S
N1115 C1117 1.356 . S
N1115 H1120 0.984 . S
N1115 H1121 0.985 . S
C1116 C1110 1.379 . S
C1116 C1113 1.363 1_655 S
C1116 N1114 1.356 1_655 S
C1117 C1111 1.363 . S
C1117 C1112 1.379 . S
C1117 N1115 1.356 . S
N1118 C1110 1.356 . S
N1118 H1124 0.984 . S
N1118 H1125 0.984 . S
N1119 C1112 1.356 1_455 S
N1119 H1122 0.984 . S
N1119 H1123 0.985 1_455 S
H1120 N1115 0.984 . S
H1121 N1115 0.985 . S
H1122 N1119 0.984 . S
H1123 N1119 0.985 1_655 S
H1124 N1118 0.984 . S
H1125 N1118 0.984 . S
H1126 N1114 0.984 . S
H1127 N1114 0.985 . S
C481 C19 1.652 . S
C483 C458 1.778 . S
C499 C378 1.899 . S
C501 C58 1.911 . S
C517 C99 1.477 . S
C519 C339 1.493 . S
C535 C138 1.783 . S
C537 C418 1.784 . S
C553 C178 2.146 . S
C555 C419 2.007 . S
C571 C219 1.522 . S
C573 C459 1.526 . S
C589 C379 1.848 . S
C591 C258 1.978 . S
C607 C298 1.645 . S
C609 C338 1.660 . S
C625 C139 1.853 . S
C627 C179 1.822 . S
C643 C18 2.041 . S
C645 C218 2.044 . S
C661 C59 1.584 . S
C663 C259 1.619 . S
C679 C299 1.771 . S
C681 C98 1.868 . S
C697 C15 2.731 . S
C699 C330 2.892 . S
C715 C46 1.286 . S
C717 C409 1.220 . S
C733 C449 1.899 . S
C735 C95 1.987 . S
C751 C126 1.492 . S
C753 C369 1.388 . S
C769 C166 1.544 . S
C771 C370 1.525 . S
C787 C329 1.956 . S
C789 C215 2.033 . S
C805 C410 1.904 . S
C807 C246 1.926 . S
C823 C450 1.790 . S
C825 C286 1.817 . S
C841 C9 1.673 . S
C843 C135 1.766 . S
C859 C6 2.077 . S
C861 C50 2.047 . S
C877 C55 2.064 . S
C879 C89 1.975 . S
C895 C130 1.880 . S
C897 C86 1.893 . S
C913 C206 1.118 . S
C915 C170 1.093 . S
C931 C209 1.968 . S
C933 C255 2.054 . S
C949 C250 1.699 . S
C951 C295 1.625 . S
C967 C175 1.941 . S
C969 C290 2.068 . S
C985 C326 1.385 . S
C987 C129 1.273 . S
C1003 C210 1.641 . S
C1005 C366 1.672 . S
C1021 C335 2.218 . S
C1023 C249 2.138 . S
C1039 C406 1.687 . S
C1041 C289 1.540 . S
C1057 C169 0.882 . S
C1059 C446 0.915 . S
C1075 C455 1.845 . S
C1077 C49 1.771 . S
C1093 C90 1.628 . S
C1095 C375 1.546 . S
C1111 C415 1.992 . S
C1113 C10 2.099 . S
