# Generated by pormake.
# Topology wkj, (6)-cn, num edge types: 1
# Building blocks:
#     Node 0, Type 0, BuildingBlock: PAMTOO_clean_sbu_0, # of connection points: 6
#     Node 1, Type 0, BuildingBlock: PAMTOO_clean_sbu_0, # of connection points: 6
#     Node 2, Type 0, BuildingBlock: PAMTOO_clean_sbu_0, # of connection points: 6
#     Node 3, Type 0, BuildingBlock: PAMTOO_clean_sbu_0, # of connection points: 6
#     Node 4, Type 0, BuildingBlock: PAMTOO_clean_sbu_0, # of connection points: 6
#     Node 5, Type 0, BuildingBlock: PAMTOO_clean_sbu_0, # of connection points: 6
#     Node 6, Type 0, BuildingBlock: PAMTOO_clean_sbu_0, # of connection points: 6
#     Node 7, Type 0, BuildingBlock: PAMTOO_clean_sbu_0, # of connection points: 6
#     Node 8, Type 0, BuildingBlock: PAMTOO_clean_sbu_0, # of connection points: 6
#     Node 9, Type 0, BuildingBlock: PAMTOO_clean_sbu_0, # of connection points: 6
#     Node 10, Type 0, BuildingBlock: PAMTOO_clean_sbu_0, # of connection points: 6
#     Node 11, Type 0, BuildingBlock: PAMTOO_clean_sbu_0, # of connection points: 6
#     Edge 12, Type (0, 0), BuildingBlock: TEMPAE_clean_linker_10, # of connection points: 2
#     Edge 13, Type (0, 0), BuildingBlock: TEMPAE_clean_linker_10, # of connection points: 2
#     Edge 14, Type (0, 0), BuildingBlock: TEMPAE_clean_linker_10, # of connection points: 2
#     Edge 15, Type (0, 0), BuildingBlock: TEMPAE_clean_linker_10, # of connection points: 2
#     Edge 16, Type (0, 0), BuildingBlock: TEMPAE_clean_linker_10, # of connection points: 2
#     Edge 17, Type (0, 0), BuildingBlock: TEMPAE_clean_linker_10, # of connection points: 2
#     Edge 18, Type (0, 0), BuildingBlock: TEMPAE_clean_linker_10, # of connection points: 2
#     Edge 19, Type (0, 0), BuildingBlock: TEMPAE_clean_linker_10, # of connection points: 2
#     Edge 20, Type (0, 0), BuildingBlock: TEMPAE_clean_linker_10, # of connection points: 2
#     Edge 21, Type (0, 0), BuildingBlock: TEMPAE_clean_linker_10, # of connection points: 2
#     Edge 22, Type (0, 0), BuildingBlock: TEMPAE_clean_linker_10, # of connection points: 2
#     Edge 23, Type (0, 0), BuildingBlock: TEMPAE_clean_linker_10, # of connection points: 2
#     Edge 24, Type (0, 0), BuildingBlock: TEMPAE_clean_linker_10, # of connection points: 2
#     Edge 25, Type (0, 0), BuildingBlock: TEMPAE_clean_linker_10, # of connection points: 2
#     Edge 26, Type (0, 0), BuildingBlock: TEMPAE_clean_linker_10, # of connection points: 2
#     Edge 27, Type (0, 0), BuildingBlock: TEMPAE_clean_linker_10, # of connection points: 2
#     Edge 28, Type (0, 0), BuildingBlock: TEMPAE_clean_linker_10, # of connection points: 2
#     Edge 29, Type (0, 0), BuildingBlock: TEMPAE_clean_linker_10, # of connection points: 2
#     Edge 30, Type (0, 0), BuildingBlock: TEMPAE_clean_linker_10, # of connection points: 2
#     Edge 31, Type (0, 0), BuildingBlock: TEMPAE_clean_linker_10, # of connection points: 2
#     Edge 32, Type (0, 0), BuildingBlock: TEMPAE_clean_linker_10, # of connection points: 2
#     Edge 33, Type (0, 0), BuildingBlock: TEMPAE_clean_linker_10, # of connection points: 2
#     Edge 34, Type (0, 0), BuildingBlock: TEMPAE_clean_linker_10, # of connection points: 2
#     Edge 35, Type (0, 0), BuildingBlock: TEMPAE_clean_linker_10, # of connection points: 2
#     Edge 36, Type (0, 0), BuildingBlock: TEMPAE_clean_linker_10, # of connection points: 2
#     Edge 37, Type (0, 0), BuildingBlock: TEMPAE_clean_linker_10, # of connection points: 2
#     Edge 38, Type (0, 0), BuildingBlock: TEMPAE_clean_linker_10, # of connection points: 2
#     Edge 39, Type (0, 0), BuildingBlock: TEMPAE_clean_linker_10, # of connection points: 2
#     Edge 40, Type (0, 0), BuildingBlock: TEMPAE_clean_linker_10, # of connection points: 2
#     Edge 41, Type (0, 0), BuildingBlock: TEMPAE_clean_linker_10, # of connection points: 2
#     Edge 42, Type (0, 0), BuildingBlock: TEMPAE_clean_linker_10, # of connection points: 2
#     Edge 43, Type (0, 0), BuildingBlock: TEMPAE_clean_linker_10, # of connection points: 2
#     Edge 44, Type (0, 0), BuildingBlock: TEMPAE_clean_linker_10, # of connection points: 2
#     Edge 45, Type (0, 0), BuildingBlock: TEMPAE_clean_linker_10, # of connection points: 2
#     Edge 46, Type (0, 0), BuildingBlock: TEMPAE_clean_linker_10, # of connection points: 2
#     Edge 47, Type (0, 0), BuildingBlock: TEMPAE_clean_linker_10, # of connection points: 2
# Relax obj value: 0.808
# Max RMSD: 0.190
# Mean RMSD: 0.190
data_MOF--net-wkj--node1-PAMTOO_clean_sbu_0--edge1-TEMPAE_clean_linker_10
_symmetry_space_group_name_H-M    P1
_symmetry_Int_Tables_number       1
_symmetry_cell_setting            triclinic
loop_
_symmetry_equiv_pos_as_xyz
'x, y, z'
_cell_length_a     49.840397
_cell_length_b     49.68029
_cell_length_c     30.607889
_cell_angle_alpha  90.1635
_cell_angle_beta   90.168387
_cell_angle_gamma 119.92829
loop_
_atom_site_label
_atom_site_type_symbol
_atom_site_fract_x
_atom_site_fract_y
_atom_site_fract_z
_atom_type_partial_charge
Dy0 Dy 0.54601 0.11582 0.33637 0.0
Dy1 Dy 0.47508 0.08012 0.35967 0.0
C2 C 0.50847 0.15143 0.32511 0.0
O3 O 0.54912 0.12014 0.41241 0.0
O4 O 0.4976 0.09416 0.43014 0.0
O5 O 0.59459 0.13759 0.35417 0.0
O6 O 0.58121 0.13577 0.28676 0.0
O7 O 0.49352 0.05427 0.39619 0.0
O8 O 0.53497 0.06793 0.35225 0.0
O9 O 0.47401 0.0537 0.29719 0.0
O10 O 0.52106 0.08985 0.27083 0.0
O11 O 0.42869 0.04098 0.35702 0.0
O12 O 0.43724 0.0855 0.38264 0.0
C13 C 0.52738 0.10896 0.44322 0.0
O14 O 0.53449 0.15416 0.33916 0.0
O15 O 0.48418 0.12346 0.32172 0.0
C16 C 0.6229 0.18224 0.31087 0.0
C17 C 0.63502 0.23861 0.27411 0.0
C18 C 0.62073 0.2299 0.31519 0.0
C19 C 0.6142 0.20146 0.33319 0.0
C20 C 0.6431 0.19427 0.27544 0.0
C21 C 0.64957 0.22266 0.25744 0.0
C22 C 0.60377 0.14837 0.31506 0.0
C23 C 0.5188 0.05358 0.38675 0.0
C24 C 0.49371 0.06395 0.26425 0.0
C25 C 0.39367 0.04076 0.40839 0.0
C26 C 0.34951 0.01312 0.47449 0.0
C27 C 0.38005 0.01921 0.48084 0.0
C28 C 0.40198 0.03292 0.44798 0.0
C29 C 0.36326 0.03449 0.40156 0.0
C30 C 0.34125 0.02078 0.43449 0.0
C31 C 0.41667 0.05655 0.37451 0.0
H32 H 0.60987 0.24211 0.32928 0.0
H33 H 0.59885 0.19279 0.36103 0.0
H34 H 0.6503 0.17992 0.25804 0.0
H35 H 0.66126 0.22898 0.22623 0.0
H36 H 0.38726 0.01419 0.51173 0.0
H37 H 0.42551 0.0379 0.45369 0.0
H38 H 0.35668 0.04058 0.37098 0.0
H39 H 0.31792 0.01631 0.42881 0.0
Dy40 Dy 0.42401 0.54164 0.67716 0.0
Dy41 Dy 0.38158 0.47118 0.7022 0.0
C42 C 0.35017 0.5096 0.65968 0.0
O43 O 0.42017 0.54663 0.75201 0.0
O44 O 0.38705 0.4958 0.77049 0.0
O45 O 0.43621 0.58966 0.68321 0.0
O46 O 0.46294 0.5771 0.64121 0.0
O47 O 0.42113 0.48438 0.74744 0.0
O48 O 0.45578 0.52941 0.7132 0.0
O49 O 0.40631 0.46754 0.64 0.0
O50 O 0.4223 0.51551 0.61216 0.0
O51 O 0.37131 0.42355 0.70429 0.0
O52 O 0.33542 0.43508 0.71807 0.0
C53 C 0.40463 0.5257 0.7828 0.0
O54 O 0.37658 0.53551 0.66457 0.0
O55 O 0.34855 0.48288 0.66751 0.0
C56 C 0.45013 0.61436 0.61516 0.0
C57 C 0.42179 0.62857 0.5461 0.0
C58 C 0.42066 0.63817 0.58893 0.0
C59 C 0.43482 0.63123 0.62317 0.0
C60 C 0.45436 0.6081 0.57181 0.0
C61 C 0.44026 0.615 0.53772 0.0
C62 C 0.4562 0.59857 0.65158 0.0
C63 C 0.4486 0.50923 0.74511 0.0
C64 C 0.41786 0.4869 0.60654 0.0
C65 C 0.32905 0.38894 0.74838 0.0
C66 C 0.30121 0.34349 0.81312 0.0
C67 C 0.33319 0.36499 0.81469 0.0
C68 C 0.34702 0.38763 0.78262 0.0
C69 C 0.2973 0.36717 0.74613 0.0
C70 C 0.28339 0.34465 0.77845 0.0
C71 C 0.34245 0.41313 0.71515 0.0
H72 H 0.4072 0.64925 0.59641 0.0
H73 H 0.43168 0.63689 0.65628 0.0
H74 H 0.46637 0.59553 0.56433 0.0
H75 H 0.44163 0.60699 0.50531 0.0
H76 H 0.34733 0.3651 0.84173 0.0
H77 H 0.3715 0.40442 0.78507 0.0
H78 H 0.28317 0.36798 0.71977 0.0
H79 H 0.25871 0.3285 0.77676 0.0
Dy80 Dy 0.88085 0.42084 1.00177 0.0
Dy81 Dy 0.90619 0.37718 1.02827 0.0
C82 C 0.83605 0.34676 0.99625 0.0
O83 O 0.87554 0.41949 1.07804 0.0
O84 O 0.89283 0.38648 1.09844 0.0
O85 O 0.84715 0.43385 1.01974 0.0
O86 O 0.87431 0.45303 0.96139 0.0
O87 O 0.94035 0.42011 1.06131 0.0
O88 O 0.92588 0.45388 1.03344 0.0
O89 O 0.93009 0.39638 0.96021 0.0
O90 O 0.91059 0.42735 0.9396 0.0
O91 O 0.9377 0.36351 1.05492 0.0
O92 O 0.89889 0.33121 1.01525 0.0
C93 C 0.88209 0.40545 1.11014 0.0
O94 O 0.84512 0.37323 0.97644 0.0
O95 O 0.85431 0.34549 1.02598 0.0
C96 C 0.8207 0.43548 0.95721 0.0
C97 C 0.77261 0.40448 0.89633 0.0
C98 C 0.77154 0.39048 0.93631 0.0
C99 C 0.79541 0.40586 0.96662 0.0
C100 C 0.81996 0.4507 0.91914 0.0
C101 C 0.79603 0.43522 0.88878 0.0
C102 C 0.84959 0.44787 0.9829 0.0
C103 C 0.94176 0.4471 1.06135 0.0
C104 C 0.92859 0.41528 0.9305 0.0
C105 C 0.91404 0.31082 1.07294 0.0
C106 C 0.90761 0.27039 0.14124 0.0
C107 C 0.89487 0.29005 0.14472 0.0
C108 C 0.89802 0.31004 1.11081 0.0
C109 C 0.92453 0.28961 1.0676 0.0
C110 C 0.92119 0.26935 1.10147 0.0
C111 C 0.92161 0.33508 1.04048 0.0
H112 H 0.754 0.36656 0.94223 0.0
H113 H 0.7952 0.39337 0.99569 0.0
H114 H 0.83913 0.47344 0.9112 0.0
H115 H 0.79744 0.44609 0.85757 0.0
H116 H 0.88471 0.29199 0.17495 0.0
H117 H 0.88953 0.32615 0.11516 0.0
H118 H 0.93659 0.28972 1.03815 0.0
H119 H 0.93092 0.25427 1.09757 0.0
Dy120 Dy 0.4717 0.8936 0.34425 0.0
Dy121 Dy 0.53908 0.90616 0.36219 0.0
C122 C 0.49046 0.8393 0.32252 0.0
O123 O 0.46614 0.88165 0.41751 0.0
O124 O 0.51703 0.89938 0.43376 0.0
O125 O 0.42238 0.86501 0.35143 0.0
O126 O 0.44109 0.90796 0.31535 0.0
O127 O 0.53933 0.95026 0.35717 0.0
O128 O 0.49497 0.93405 0.39173 0.0
O129 O 0.5411 0.91664 0.28697 0.0
O130 O 0.49947 0.92401 0.28434 0.0
O131 O 0.58829 0.93574 0.35383 0.0
O132 O 0.57109 0.89575 0.39565 0.0
C133 C 0.48764 0.88804 0.44774 0.0
O134 O 0.46994 0.84881 0.3194 0.0
O135 O 0.51794 0.85759 0.33892 0.0
C136 C 0.39613 0.86345 0.2877 0.0
C137 C 0.36716 0.81875 0.22114 0.0
C138 C 0.35442 0.81315 0.26325 0.0
C139 C 0.36876 0.83543 0.29625 0.0
C140 C 0.40703 0.87027 0.24469 0.0
C141 C 0.3927 0.84817 0.2118 0.0
C142 C 0.41635 0.88153 0.32442 0.0
C143 C 0.52394 0.95544 0.38648 0.0
C144 C 0.52515 0.9276 0.26535 0.0
C145 C 0.61723 0.94021 0.4162 0.0
C146 C 0.65942 0.9787 0.48062 0.0
C147 C 0.63039 0.97676 0.47585 0.0
C148 C 0.6094 0.95742 0.44431 0.0
C149 C 0.64605 0.94201 0.42033 0.0
C150 C 0.66699 0.961 0.4525 0.0
C151 C 0.59541 0.92087 0.38219 0.0
H152 H 0.33456 0.79091 0.2713 0.0
H153 H 0.35992 0.82971 0.32926 0.0
H154 H 0.42812 0.89159 0.23698 0.0
H155 H 0.40347 0.85331 0.17992 0.0
H156 H 0.62384 0.99037 0.49623 0.0
H157 H 0.58707 0.95594 0.44162 0.0
H158 H 0.65229 0.92865 0.39884 0.0
H159 H 0.68884 0.96144 0.4557 0.0
Dy160 Dy 0.55962 0.45751 0.67479 0.0
Dy161 Dy 0.61042 0.52577 0.69955 0.0
C162 C 0.63255 0.48097 0.65986 0.0
O163 O 0.56476 0.4528 0.7504 0.0
O164 O 0.59568 0.5038 0.77004 0.0
O165 O 0.54572 0.40919 0.68031 0.0
O166 O 0.51826 0.42295 0.64134 0.0
O167 O 0.56485 0.52287 0.70439 0.0
O168 O 0.53499 0.47233 0.72039 0.0
O169 O 0.60239 0.52795 0.62406 0.0
O170 O 0.55339 0.4868 0.62035 0.0
O171 O 0.62471 0.57463 0.69921 0.0
O172 O 0.65637 0.55974 0.72123 0.0
C173 C 0.57791 0.47405 0.78227 0.0
O174 O 0.60441 0.46486 0.6435 0.0
O175 O 0.63827 0.50221 0.68935 0.0
C176 C 0.52724 0.38332 0.61359 0.0
C177 C 0.55074 0.36501 0.54333 0.0
C178 C 0.55221 0.35535 0.5858 0.0
C179 C 0.54036 0.3643 0.6207 0.0
C180 C 0.52263 0.38986 0.57052 0.0
C181 C 0.53422 0.38068 0.53571 0.0
C182 C 0.52413 0.40068 0.65061 0.0
C183 C 0.54276 0.50128 0.72736 0.0
C184 C 0.57541 0.51291 0.60238 0.0
C185 C 0.65977 0.60422 0.75449 0.0
C186 C 0.67186 0.64486 0.82536 0.0
C187 C 0.66358 0.6137 0.83254 0.0
C188 C 0.65726 0.59345 0.79741 0.0
C189 C 0.66913 0.6355 0.74711 0.0
C190 C 0.67509 0.65571 0.78228 0.0
C191 C 0.6514 0.58295 0.71717 0.0
H192 H 0.56455 0.34299 0.59246 0.0
H193 H 0.54376 0.3585 0.65358 0.0
H194 H 0.51211 0.40394 0.56377 0.0
H195 H 0.53196 0.38757 0.50295 0.0
H196 H 0.66134 0.6048 0.86539 0.0
H197 H 0.6499 0.56931 0.80383 0.0
H198 H 0.67105 0.64411 0.71411 0.0
H199 H 0.68109 0.67947 0.77573 0.0
Dy200 Dy 0.10319 0.57195 1.00229 0.0
Dy201 Dy 0.08513 0.62264 1.0255 0.0
C202 C 0.15292 0.64511 0.98672 0.0
O203 O 0.11354 0.57793 1.0775 0.0
O204 O 0.09309 0.60863 1.09663 0.0
O205 O 0.13799 0.55853 1.00779 0.0
O206 O 0.09527 0.52889 0.97286 0.0
O207 O 0.04335 0.58052 1.04699 0.0
O208 O 0.06308 0.54768 1.04773 0.0
O209 O 0.0678 0.60951 0.95295 0.0
O210 O 0.07026 0.56524 0.94382 0.0
O211 O 0.05464 0.64157 1.01885 0.0
O212 O 0.09986 0.66915 1.04828 0.0
C213 C 0.1054 0.59108 1.10909 0.0
O214 O 0.14241 0.61647 0.97277 0.0
O215 O 0.13598 0.65092 1.01321 0.0
C216 C 0.14243 0.53568 0.94367 0.0
C217 C 0.18549 0.55373 0.87504 0.0
C218 C 0.19359 0.54902 0.91717 0.0
C219 C 0.17215 0.53993 0.95119 0.0
C220 C 0.13356 0.53789 0.90091 0.0
C221 C 0.15483 0.54678 0.86701 0.0
C222 C 0.12357 0.53508 0.98105 0.0
C223 C 0.04299 0.55569 1.06133 0.0
C224 C 0.06073 0.58426 0.92903 0.0
C225 C 0.06123 0.67988 1.07034 0.0
C226 C 0.04138 0.70456 0.13703 0.0
C227 C 0.02777 0.67219 0.13165 0.0
C228 C 0.0377 0.65993 1.09863 0.0
C229 C 0.0741 0.71212 1.07453 0.0
C230 C 0.06434 0.72444 1.10783 0.0
C231 C 0.07389 0.66774 1.0378 0.0
H232 H 0.2169 0.55391 0.92428 0.0
H233 H 0.17949 0.53838 0.984 0.0
H234 H 0.11093 0.53499 0.89402 0.0
H235 H 0.14781 0.55061 0.83518 0.0
H236 H 0.01056 0.65632 0.15442 0.0
H237 H 0.02769 0.63499 1.09605 0.0
H238 H 0.09236 0.72777 1.05282 0.0
H239 H 0.07528 0.74942 1.11156 0.0
Dy240 Dy 0.88205 0.45969 0.55423 0.0
Dy241 Dy 0.90276 0.52972 0.53156 0.0
C242 C 0.83274 0.48473 0.56674 0.0
O243 O 0.87184 0.45444 0.47954 0.0
O244 O 0.8952 0.5059 0.46142 0.0
O245 O 0.86854 0.41236 0.53658 0.0
O246 O 0.87167 0.42527 0.60435 0.0
O247 O 0.94552 0.52767 0.52448 0.0
O248 O 0.92468 0.47579 0.51441 0.0
O249 O 0.92237 0.53605 0.60233 0.0
O250 O 0.9154 0.48746 0.61273 0.0
O251 O 0.9291 0.57881 0.54463 0.0
O252 O 0.8957 0.56161 0.49173 0.0
C253 C 0.88197 0.47601 0.44845 0.0
O254 O 0.83712 0.46075 0.56336 0.0
O255 O 0.85568 0.51286 0.55993 0.0
C256 C 0.82922 0.37785 0.58359 0.0
C257 C 0.76924 0.34588 0.61808 0.0
C258 C 0.77505 0.36365 0.58005 0.0
C259 C 0.80494 0.37973 0.56306 0.0
C260 C 0.8225 0.35665 0.61756 0.0
C261 C 0.79256 0.34051 0.63453 0.0
C262 C 0.86138 0.40241 0.5764 0.0
C263 C 0.9456 0.50443 0.50498 0.0
C264 C 0.92713 0.51676 0.62697 0.0
C265 C 0.93886 0.61176 0.48451 0.0
C266 C 0.97813 0.65907 0.42737 0.0
C267 C 0.98895 0.64182 0.45024 0.0
C268 C 0.96941 0.61824 0.47855 0.0
C269 C 0.9285 0.62989 0.46348 0.0
C270 C 0.94797 0.65338 0.43507 0.0
C271 C 0.91722 0.58602 0.51194 0.0
H272 H 0.75751 0.36821 0.56685 0.0
H273 H 0.80961 0.39599 0.53672 0.0
H274 H 0.84093 0.35494 0.63382 0.0
H275 H 0.78883 0.32716 0.66409 0.0
H276 H 0.01216 0.64584 0.44507 0.0
H277 H 0.97796 0.6047 0.49495 0.0
H278 H 0.90501 0.62525 0.46802 0.0
H279 H 0.9388 0.66591 0.41737 0.0
Dy280 Dy 0.43215 0.88245 0.8924 0.0
Dy281 Dy 0.39039 0.91087 0.86606 0.0
C282 C 0.35784 0.84018 0.89973 0.0
O283 O 0.42833 0.87591 0.81597 0.0
O284 O 0.40103 0.89982 0.79559 0.0
O285 O 0.4509 0.85367 0.87107 0.0
O286 O 0.45986 0.87221 0.93652 0.0
O287 O 0.43396 0.94037 0.83004 0.0
O288 O 0.46557 0.93047 0.87245 0.0
O289 O 0.40564 0.92887 0.93751 0.0
O290 O 0.44366 0.91706 0.9505 0.0
O291 O 0.38305 0.95023 0.86053 0.0
O292 O 0.34429 0.9031 0.85707 0.0
C293 C 0.41688 0.88564 0.78393 0.0
O294 O 0.38457 0.84767 0.91796 0.0
O295 O 0.35643 0.85948 0.87195 0.0
C296 C 0.44944 0.82117 0.9275 0.0
C297 C 0.42487 0.76838 0.9813 0.0
C298 C 0.40526 0.77441 0.95485 0.0
C299 C 0.41747 0.80051 0.92822 0.0
C300 C 0.46935 0.81332 0.94912 0.0
C301 C 0.45715 0.78673 0.97523 0.0
C302 C 0.46111 0.85247 0.90974 0.0
C303 C 0.46118 0.94341 0.83815 0.0
C304 C 0.42853 0.93156 0.96303 0.0
C305 C 0.33786 0.94225 0.82317 0.0
C306 C 0.30832 0.96168 0.76313 0.0
C307 C 0.32361 0.98009 0.79979 0.0
C308 C 0.33814 0.97034 0.8297 0.0
C309 C 0.32178 0.92334 0.78729 0.0
C310 C 0.30706 0.93296 0.75758 0.0
C311 C 0.35322 0.9326 0.85533 0.0
H312 H 0.38034 0.76114 0.958 0.0
H313 H 0.40171 0.80583 0.91098 0.0
H314 H 0.49418 0.82878 0.94824 0.0
H315 H 0.47305 0.78224 0.99371 0.0
H316 H 0.32512 0.00243 0.80449 0.0
H317 H 0.35007 0.98499 0.85761 0.0
H318 H 0.32107 0.90145 0.78171 0.0
H319 H 0.29611 0.91869 0.72899 0.0
Dy320 Dy 0.53282 0.42315 0.22935 0.0
Dy321 Dy 0.46146 0.38162 0.20737 0.0
C322 C 0.50044 0.34948 0.24124 0.0
O323 O 0.53532 0.42177 0.15345 0.0
O324 O 0.48392 0.39037 0.13652 0.0
O325 O 0.58002 0.45595 0.21077 0.0
O326 O 0.56961 0.43937 0.27708 0.0
O327 O 0.47495 0.42466 0.17058 0.0
O328 O 0.51502 0.45521 0.21523 0.0
O329 O 0.45926 0.40613 0.27068 0.0
O330 O 0.50889 0.42518 0.29479 0.0
O331 O 0.41427 0.37011 0.21669 0.0
O332 O 0.42454 0.33851 0.18077 0.0
C333 C 0.51341 0.40805 0.12289 0.0
O334 O 0.5253 0.37434 0.22754 0.0
O335 O 0.4745 0.35011 0.24439 0.0
C336 C 0.6136 0.44241 0.24657 0.0
C337 C 0.6342 0.40214 0.27382 0.0
C338 C 0.61727 0.39604 0.23467 0.0
C339 C 0.60657 0.41593 0.22145 0.0
C340 C 0.63602 0.45181 0.27958 0.0
C341 C 0.64675 0.43193 0.29273 0.0
C342 C 0.59125 0.45348 0.24804 0.0
C343 C 0.49872 0.45183 0.17996 0.0
C344 C 0.48009 0.41965 0.3023 0.0
C345 C 0.37738 0.33741 0.16396 0.0
C346 C 0.32861 0.3235 1.10526 0.0
C347 C 0.34134 0.35077 0.13062 0.0
C348 C 0.36555 0.35771 0.15966 0.0
C349 C 0.36349 0.30934 0.14051 0.0
C350 C 0.33938 0.30248 1.11127 0.0
C351 C 0.40306 0.34436 0.19417 0.0
H352 H 0.60772 0.37349 0.21902 0.0
H353 H 0.58946 0.40835 0.19548 0.0
H354 H 0.64192 0.47227 0.29911 0.0
H355 H 0.66028 0.43765 0.32257 0.0
H356 H 0.33328 0.36726 0.12683 0.0
H357 H 0.3753 0.37924 0.17805 0.0
H358 H 0.37178 0.29302 0.14404 0.0
H359 H 0.33031 0.28149 1.09173 0.0
Dy360 Dy 0.10354 0.536 0.55304 0.0
Dy361 Dy 0.07956 0.46577 0.52596 0.0
C362 C 0.14901 0.50619 0.5659 0.0
O363 O 0.11271 0.54058 0.4779 0.0
O364 O 0.09279 0.48987 0.45668 0.0
O365 O 0.12686 0.58361 0.53128 0.0
O366 O 0.11182 0.57322 0.59796 0.0
O367 O 0.0494 0.47709 0.48647 0.0
O368 O 0.05658 0.51974 0.52461 0.0
O369 O 0.05822 0.46143 0.59599 0.0
O370 O 0.07273 0.51153 0.6138 0.0
O371 O 0.04409 0.41834 0.53536 0.0
O372 O 0.08458 0.42867 0.49695 0.0
C373 C 0.10546 0.51994 0.44564 0.0
O374 O 0.14261 0.52815 0.576 0.0
O375 O 0.12913 0.48156 0.54375 0.0
C376 C 0.16012 0.61719 0.58492 0.0
C377 C 0.21609 0.65236 0.63082 0.0
C378 C 0.21067 0.626 0.6064 0.0
C379 C 0.18298 0.60867 0.58368 0.0
C380 C 0.16687 0.6455 0.60409 0.0
C381 C 0.19501 0.66336 0.62617 0.0
C382 C 0.12865 0.5949 0.57015 0.0
C383 C 0.04493 0.50071 0.49108 0.0
C384 C 0.05743 0.48151 0.62445 0.0
C385 C 0.03713 0.38459 0.47713 0.0
C386 C -0.00161 0.34051 0.41473 0.0
C387 C 0.99311 0.36463 0.42789 0.0
C388 C 0.01246 0.38662 0.45851 0.0
C389 C 0.04216 0.36028 0.46487 0.0
C390 C 0.02298 0.33841 0.43379 0.0
C391 C 0.05729 0.40728 0.50997 0.0
H392 H 0.226 0.6165 0.60852 0.0
H393 H 0.17855 0.58732 0.56788 0.0
H394 H 0.14971 0.65282 0.60433 0.0
H395 H 0.19886 0.68418 0.64305 0.0
H396 H 0.97411 0.36665 0.41428 0.0
H397 H 0.00812 0.40521 0.46759 0.0
H398 H 0.0611 0.3584 0.47906 0.0
H399 H 0.02791 0.32038 0.42386 0.0
Dy400 Dy 0.57075 0.08972 0.88206 0.0
Dy401 Dy 0.62485 0.07692 0.86067 0.0
C402 C 0.64281 0.14332 0.89612 0.0
O403 O 0.57789 0.10331 0.80896 0.0
O404 O 0.61284 0.0882 0.79004 0.0
O405 O 0.55338 0.12129 0.87554 0.0
O406 O 0.52676 0.07845 0.91121 0.0
O407 O 0.58072 0.03292 0.86058 0.0
O408 O 0.55283 0.05175 0.83107 0.0
O409 O 0.61363 0.06186 0.93467 0.0
O410 O 0.56502 0.05526 0.93792 0.0
O411 O 0.64156 0.04966 0.82853 0.0
O412 O 0.67143 0.08626 0.87372 0.0
C413 C 0.59403 0.0991 0.77782 0.0
O414 O 0.61479 0.12974 0.91328 0.0
O415 O 0.64871 0.12852 0.86578 0.0
C416 C 0.52885 0.12452 0.93846 0.0
C417 C 0.5433 0.16582 1.00913 0.0
C418 C 0.54494 0.17636 0.96623 0.0
C419 C 0.53753 0.15578 0.93115 0.0
C420 C 0.52389 0.11337 0.98142 0.0
C421 C 0.53086 0.13382 1.01646 0.0
C422 C 0.53035 0.10577 0.90207 0.0
C423 C 0.56113 0.03059 0.83083 0.0
C424 C 0.58665 0.05045 0.95602 0.0
C425 C 0.69432 0.07746 0.81226 0.0
C426 C 0.73462 0.08748 0.74225 0.0
C427 C 0.7117 0.09616 0.73913 0.0
C428 C 0.69188 0.09133 0.77388 0.0
C429 C 0.71886 0.0716 0.81742 0.0
C430 C 0.73914 0.0769 0.78277 0.0
C431 C 0.66948 0.06615 0.84456 0.0
H432 H 0.55424 0.20082 0.95958 0.0
H433 H 0.54106 0.16488 0.89824 0.0
H434 H 0.51672 0.08935 0.98809 0.0
H435 H 0.52848 0.12492 1.04935 0.0
H436 H 0.70698 0.10404 0.70865 0.0
H437 H 0.67321 0.09633 0.7696 0.0
H438 H 0.72129 0.06131 0.84726 0.0
H439 H 0.75695 0.07067 0.7868 0.0
Dy440 Dy 0.46136 0.56276 0.21992 0.0
Dy441 Dy 0.52818 0.61744 0.20173 0.0
C442 C 0.47775 0.63454 0.2296 0.0
O443 O 0.45549 0.57433 0.14875 0.0
O444 O 0.50642 0.60523 0.1304 0.0
O445 O 0.41397 0.5332 0.19942 0.0
O446 O 0.42838 0.52708 0.26309 0.0
O447 O 0.52933 0.57385 0.1996 0.0
O448 O 0.48232 0.54481 0.17081 0.0
O449 O 0.52926 0.60559 0.27603 0.0
O450 O 0.49083 0.5553 0.27297 0.0
O451 O 0.57348 0.63444 0.17476 0.0
O452 O 0.56421 0.66473 0.21535 0.0
C453 C 0.47657 0.58861 0.11783 0.0
O454 O 0.46325 0.60677 0.24783 0.0
O455 O 0.49959 0.6405 0.20138 0.0
C456 C 0.37932 0.52237 0.25671 0.0
C457 C 0.33649 0.53039 0.30664 0.0
C458 C 0.35931 0.55512 0.2821 0.0
C459 C 0.38053 0.55115 0.25755 0.0
C460 C 0.355 0.49686 0.2776 0.0
C461 C 0.33352 0.50077 0.30217 0.0
C462 C 0.40498 0.52009 0.23727 0.0
C463 C 0.51185 0.55376 0.17036 0.0
C464 C 0.51524 0.57743 0.29439 0.0
C465 C 0.60118 0.68736 0.15912 0.0
C466 C 0.63877 0.72367 1.09034 0.0
C467 C 0.60652 0.70492 1.0844 0.0
C468 C 0.58787 0.68688 0.11859 0.0
C469 C 0.63253 0.70861 0.16674 0.0
C470 C 0.65122 0.72689 0.13261 0.0
C471 C 0.58416 0.66241 0.19044 0.0
H472 H 0.36285 0.57841 0.28503 0.0
H473 H 0.39907 0.57112 0.24137 0.0
H474 H 0.35359 0.47438 0.27686 0.0
H475 H 0.31602 0.48116 0.32023 0.0
H476 H 0.59605 0.70154 1.05232 0.0
H477 H 0.56361 0.67059 1.1123 0.0
H478 H 0.64304 0.70933 0.19808 0.0
H479 H 0.67585 0.74148 0.13836 0.0
C480 C 0.48415 0.17896 0.28385 0.0
C481 C 0.50701 0.18026 0.31239 0.0
C482 C 0.48361 0.20624 0.27092 0.0
C483 C 0.5057 0.23592 0.28797 0.0
C484 C 0.52866 0.23713 0.31703 0.0
C485 C 0.52914 0.2097 0.32842 0.0
C486 C 0.46004 0.20338 0.23748 0.0
C487 C 0.55228 0.26724 0.33782 0.0
C488 C 0.52261 0.31332 0.23277 0.0
C489 C 0.50171 0.32048 0.25332 0.0
C490 C 0.52384 0.28607 0.24301 0.0
C491 C 0.50448 0.26533 0.276 0.0
C492 C 0.48391 0.273 0.29771 0.0
C493 C 0.48224 0.29977 0.28547 0.0
C494 C 0.54538 0.27917 0.2172 0.0
C495 C 0.46443 0.25355 0.33525 0.0
H496 H 0.4671 0.15664 0.27052 0.0
H497 H 0.54687 0.21134 0.35067 0.0
H498 H 0.44466 0.21124 0.25167 0.0
H499 H 0.47204 0.21865 0.20927 0.0
H500 H 0.44554 0.17917 0.2254 0.0
H501 H 0.54077 0.27278 0.36438 0.0
H502 H 0.57202 0.26578 0.35217 0.0
H503 H 0.56147 0.28653 0.31405 0.0
H504 H 0.53768 0.3288 0.20769 0.0
H505 H 0.46626 0.30502 0.30222 0.0
H506 H 0.55859 0.27223 0.23907 0.0
H507 H 0.56204 0.29933 0.19746 0.0
H508 H 0.53136 0.25953 0.19469 0.0
H509 H 0.44821 0.22955 0.32394 0.0
H510 H 0.45081 0.26324 0.3504 0.0
H511 H 0.47959 0.25204 0.36064 0.0
C512 C 0.3216 0.53836 0.63731 0.0
C513 C 0.3212 0.51026 0.64551 0.0
C514 C 0.29443 0.53907 0.62488 0.0
C515 C 0.26558 0.511 0.62041 0.0
C516 C 0.26502 0.48263 0.62917 0.0
C517 C 0.29253 0.48259 0.6412 0.0
C518 C 0.29682 0.57022 0.61777 0.0
C519 C 0.23507 0.45209 0.62655 0.0
C520 C 0.19035 0.51609 0.62302 0.0
C521 C 0.17949 0.50896 0.57969 0.0
C522 C 0.21775 0.51632 0.63679 0.0
C523 C 0.23614 0.51104 0.60618 0.0
C524 C 0.22576 0.50505 0.56195 0.0
C525 C 0.19741 0.50323 0.54971 0.0
C526 C 0.22659 0.52164 0.68452 0.0
C527 C 0.24412 0.5 0.52698 0.0
H528 H 0.34322 0.56007 0.64081 0.0
H529 H 0.29141 0.46062 0.64764 0.0
H530 H 0.28023 0.56909 0.5926 0.0
H531 H 0.29151 0.57807 0.64883 0.0
H532 H 0.3206 0.58802 0.60814 0.0
H533 H 0.23757 0.43243 0.63881 0.0
H534 H 0.21688 0.45336 0.64582 0.0
H535 H 0.22697 0.44716 0.59214 0.0
H536 H 0.17671 0.52029 0.64668 0.0
H537 H 0.18948 0.49776 0.51612 0.0
H538 H 0.2354 0.50622 0.69571 0.0
H539 H 0.20671 0.51748 0.70539 0.0
H540 H 0.24528 0.54599 0.68947 0.0
H541 H 0.26916 0.51142 0.53494 0.0
H542 H 0.24135 0.50887 0.49498 0.0
H543 H 0.23519 0.47472 0.52312 0.0
C544 C 0.78587 0.31877 0.95165 0.0
C545 C 0.80568 0.31793 0.98393 0.0
C546 C 0.75806 0.29168 0.93867 0.0
C547 C 0.74933 0.26244 0.95805 0.0
C548 C 0.76899 0.26159 0.99116 0.0
C549 C 0.79658 0.28903 1.00359 0.0
C550 C 0.73829 0.2943 0.90339 0.0
C551 C 0.76126 0.23136 1.01288 0.0
C552 C 0.66585 0.19187 0.94578 0.0
C553 C 0.6691 0.1746 0.91169 0.0
C554 C 0.69132 0.22049 0.96077 0.0
C555 C 0.72117 0.23251 0.94161 0.0
C556 C 0.72436 0.21528 0.90696 0.0
C557 C 0.69866 0.187 0.89261 0.0
C558 C 0.68633 0.23776 0.99752 0.0
C559 C 0.75528 0.22653 0.88518 0.0
H560 H 0.79228 0.34067 0.93593 0.0
H561 H 0.81136 0.28767 1.02849 0.0
H562 H 0.73806 0.28098 0.87409 0.0
H563 H 0.71403 0.28408 0.91469 0.0
H564 H 0.74681 0.31876 0.89365 0.0
H565 H 0.7778 0.23456 1.03952 0.0
H566 H 0.73756 0.22028 1.02662 0.0
H567 H 0.76159 0.21506 0.9883 0.0
H568 H 0.64342 0.18292 0.96108 0.0
H569 H 0.702 0.17432 0.86632 0.0
H570 H 0.69354 0.26182 0.9872 0.0
H571 H 0.70096 0.23948 1.02597 0.0
H572 H 0.66177 0.22623 1.00811 0.0
H573 H 0.76384 0.25011 0.87166 0.0
H574 H 0.75409 0.21088 0.85831 0.0
H575 H 0.77256 0.22825 0.90962 0.0
C576 C 0.48065 0.6858 0.21299 0.0
C577 C 0.47184 0.66074 0.24188 0.0
C578 C 0.47934 0.7127 0.22479 0.0
C579 C 0.46963 0.71563 0.26722 0.0
C580 C 0.45964 0.68996 0.29619 0.0
C581 C 0.4604 0.66281 0.283 0.0
C582 C 0.48967 0.7387 0.19213 0.0
C583 C 0.44854 0.69094 0.34164 0.0
C584 C 0.50693 0.79898 0.31277 0.0
C585 C 0.48371 0.80718 0.30795 0.0
C586 C 0.5023 0.76953 0.30048 0.0
C587 C 0.47364 0.74678 0.28231 0.0
C588 C 0.44983 0.75452 0.27767 0.0
C589 C 0.45508 0.78445 0.29035 0.0
C590 C 0.52832 0.76267 0.30731 0.0
C591 C 0.41863 0.73098 0.25967 0.0
H592 H 0.48925 0.68468 0.18095 0.0
H593 H 0.45334 0.64381 0.30579 0.0
H594 H 0.47208 0.74608 0.18924 0.0
H595 H 0.51152 0.75911 0.20361 0.0
H596 H 0.49365 0.73188 0.15923 0.0
H597 H 0.42288 0.67921 0.34122 0.0
H598 H 0.4554 0.67831 0.36489 0.0
H599 H 0.4576 0.71491 0.35414 0.0
H600 H 0.52919 0.81574 0.32646 0.0
H601 H 0.43673 0.78996 0.28657 0.0
H602 H 0.53526 0.75729 0.27551 0.0
H603 H 0.52031 0.74192 0.32838 0.0
H604 H 0.54902 0.7824 0.32276 0.0
H605 H 0.42132 0.72308 0.22686 0.0
H606 H 0.40269 0.74047 0.25715 0.0
H607 H 0.40804 0.71029 0.28116 0.0
C608 C 0.66199 0.46993 0.60078 0.0
C609 C 0.65883 0.47632 0.64468 0.0
C610 C 0.68858 0.46903 0.586 0.0
C611 C 0.71249 0.47363 0.61594 0.0
C612 C 0.70852 0.47857 0.66064 0.0
C613 C 0.68233 0.48044 0.67414 0.0
C614 C 0.69171 0.46472 0.53785 0.0
C615 C 0.73235 0.48251 0.6944 0.0
C616 C 0.77496 0.4517 0.58615 0.0
C617 C 0.80131 0.48087 0.57825 0.0
C618 C 0.74585 0.4488 0.59714 0.0
C619 C 0.74259 0.47562 0.60066 0.0
C620 C 0.76888 0.50492 0.59158 0.0
C621 C 0.79754 0.50716 0.58084 0.0
C622 C 0.71857 0.41695 0.60547 0.0
C623 C 0.76681 0.5342 0.59326 0.0
H624 H 0.6443 0.46701 0.57748 0.0
H625 H 0.68024 0.4852 0.70817 0.0
H626 H 0.70948 0.48717 0.52384 0.0
H627 H 0.69961 0.44772 0.53226 0.0
H628 H 0.66959 0.45681 0.51988 0.0
H629 H 0.7245 0.4828 0.72824 0.0
H630 H 0.73764 0.46338 0.69146 0.0
H631 H 0.75419 0.5046 0.6887 0.0
H632 H 0.77706 0.43107 0.58385 0.0
H633 H 0.81722 0.52992 0.57449 0.0
H634 H 0.72329 0.39818 0.59576 0.0
H635 H 0.69786 0.41365 0.58729 0.0
H636 H 0.71267 0.41462 0.64068 0.0
H637 H 0.74731 0.53152 0.57253 0.0
H638 H 0.78844 0.55489 0.58208 0.0
H639 H 0.76209 0.53851 0.62719 0.0
C640 C 0.30074 0.80028 0.88819 0.0
C641 C 0.32877 0.80982 0.9108 0.0
C642 C 0.27315 0.77238 0.89861 0.0
C643 C 0.27281 0.75309 0.93309 0.0
C644 C 0.30122 0.7622 0.95534 0.0
C645 C 0.32856 0.79015 0.94406 0.0
C646 C 0.24411 0.76358 0.87269 0.0
C647 C 0.30322 0.74312 0.99204 0.0
C648 C 0.19438 0.70209 0.99 0.0
C649 C 0.18411 0.67205 0.97294 0.0
C650 C 0.22298 0.72808 0.97789 0.0
C651 C 0.24247 0.72476 0.94729 0.0
C652 C 0.23273 0.69443 0.93067 0.0
C653 C 0.20382 0.66865 0.94334 0.0
C654 C 0.23259 0.75925 0.99849 0.0
C655 C 0.25308 0.68917 0.89965 0.0
H656 H 0.30024 0.81474 0.86214 0.0
H657 H 0.34977 0.79674 0.96198 0.0
H658 H 0.23438 0.73964 0.85953 0.0
H659 H 0.22636 0.76372 0.89432 0.0
H660 H 0.24835 0.77967 0.84508 0.0
H661 H 0.30475 0.75493 1.02355 0.0
H662 H 0.28315 0.71922 0.99347 0.0
H663 H 0.32454 0.7415 0.9886 0.0
H664 H 0.17995 0.70548 1.01323 0.0
H665 H 0.19669 0.64581 0.92998 0.0
H666 H 0.23547 0.77623 0.97286 0.0
H667 H 0.25532 0.76819 1.01512 0.0
H668 H 0.21548 0.75809 1.02269 0.0
H669 H 0.25483 0.70117 0.86837 0.0
H670 H 0.24401 0.66409 0.89313 0.0
H671 H 0.27685 0.69925 0.91326 0.0
C672 C 0.55545 0.21466 1.05041 0.0
C673 C 0.55851 0.18821 1.04542 0.0
C674 C 0.56994 0.2354 1.08543 0.0
C675 C 0.58741 0.22915 0.11612 0.0
C676 C 0.59171 0.20326 1.10983 0.0
C677 C 0.57744 0.18338 1.07442 0.0
C678 C 0.56522 0.26297 1.09047 0.0
C679 C 0.61021 0.19552 0.14157 0.0
C680 C 0.64201 0.2702 0.20717 0.0
C681 C 0.62312 0.25227 0.24166 0.0
C682 C 0.62931 0.26767 0.16528 0.0
C683 C 0.59756 0.24609 0.15831 0.0
C684 C 0.57781 0.23297 0.19456 0.0
C685 C 0.59085 0.23714 0.23621 0.0
C686 C 0.65066 0.28379 0.12754 0.0
C687 C 0.54393 0.2093 0.18888 0.0
H688 H 0.54117 0.21874 1.02765 0.0
H689 H 0.58094 0.16372 1.06964 0.0
H690 H 0.54408 0.2561 1.11002 0.0
H691 H 0.58505 0.28263 1.10744 0.0
H692 H 0.56183 0.27101 1.05816 0.0
H693 H 0.61142 0.17467 0.13141 0.0
H694 H 0.63418 0.21532 0.1444 0.0
H695 H 0.59963 0.19113 0.1745 0.0
H696 H 0.66694 0.28269 0.21143 0.0
H697 H 0.57587 0.22366 0.26274 0.0
H698 H 0.63863 0.28934 1.10154 0.0
H699 H 0.65839 0.26825 0.11325 0.0
H700 H 0.67152 0.30552 0.13845 0.0
H701 H 0.53082 0.20708 0.21905 0.0
H702 H 0.54153 0.18628 0.1816 0.0
H703 H 0.53339 0.21536 0.16149 0.0
C704 C 0.32447 0.52678 0.38561 0.0
C705 C 0.32257 0.53791 0.34431 0.0
C706 C 0.32891 0.54479 0.42303 0.0
C707 C 0.33121 0.57425 0.41848 0.0
C708 C 0.32136 0.58145 0.37913 0.0
C709 C 0.31716 0.56307 0.34201 0.0
C710 C 0.33693 0.53488 0.46543 0.0
C711 C 0.31993 0.61087 0.37441 0.0
C712 C 0.36864 0.6163 0.52231 0.0
C713 C 0.39981 0.62698 0.51183 0.0
C714 C 0.34547 0.60324 0.49004 0.0
C715 C 0.35372 0.59973 0.44718 0.0
C716 C 0.38547 0.61491 0.43533 0.0
C717 C 0.40813 0.62921 0.46779 0.0
C718 C 0.31216 0.59032 0.50314 0.0
C719 C 0.3957 0.61248 0.38972 0.0
H720 H 0.32741 0.50667 0.38828 0.0
H721 H 0.31376 0.57079 0.31044 0.0
H722 H 0.36211 0.54953 0.47213 0.0
H723 H 0.3243 0.53793 0.49295 0.0
H724 H 0.33113 0.51019 0.46452 0.0
H725 H 0.30129 0.60733 0.35113 0.0
H726 H 0.3158 0.61883 0.40632 0.0
H727 H 0.34216 0.62948 0.3611 0.0
H728 H 0.36184 0.61529 0.55608 0.0
H729 H 0.43232 0.63904 0.45927 0.0
H730 H 0.29678 0.58619 0.47459 0.0
H731 H 0.31009 0.60651 0.52614 0.0
H732 H 0.30404 0.56806 0.5205 0.0
H733 H 0.38731 0.5878 0.38124 0.0
H734 H 0.42127 0.62529 0.38633 0.0
H735 H 0.38582 0.62174 0.36556 0.0
C736 C 0.7732 0.37485 0.83303 0.0
C737 C 0.75655 0.38465 0.85858 0.0
C738 C 0.76153 0.35994 0.79314 0.0
C739 C 0.73197 0.35417 0.77884 0.0
C740 C 0.71371 0.3613 0.80683 0.0
C741 C 0.72646 0.37695 0.84651 0.0
C742 C 0.78236 0.3532 0.76478 0.0
C743 C 0.68157 0.35421 0.79423 0.0
C744 C 0.7461 0.37055 0.66173 0.0
C745 C 0.745 0.34296 0.64862 0.0
C746 C 0.73625 0.37331 0.7033 0.0
C747 C 0.72448 0.34752 0.73173 0.0
C748 C 0.71686 0.31798 0.71492 0.0
C749 C 0.72812 0.31609 0.67365 0.0
C750 C 0.74362 0.40514 0.71917 0.0
C751 C 0.70112 0.28938 0.74296 0.0
H752 H 0.79628 0.38047 0.84336 0.0
H753 H 0.71345 0.38411 0.86711 0.0
H754 H 0.77074 0.32818 0.75633 0.0
H755 H 0.78759 0.36647 0.73386 0.0
H756 H 0.80469 0.35948 0.7811 0.0
H757 H 0.66604 0.34548 0.82301 0.0
H758 H 0.68231 0.37591 0.78361 0.0
H759 H 0.67149 0.33676 0.76751 0.0
H760 H 0.75904 0.39137 0.64248 0.0
H761 H 0.72654 0.29449 0.66314 0.0
H762 H 0.76029 0.41279 0.74686 0.0
H763 H 0.72219 0.40428 0.73093 0.0
H764 H 0.75389 0.42298 0.69319 0.0
H765 H 0.71875 0.28677 0.76175 0.0
H766 H 0.68794 0.26821 0.7225 0.0
H767 H 0.68518 0.29112 0.76658 0.0
C768 C 0.3805 0.72715 1.02436 0.0
C769 C 0.41201 0.74999 1.02209 0.0
C770 C 0.36387 0.72311 1.06312 0.0
C771 C 0.37952 0.74195 1.09963 0.0
C772 C 0.41227 0.75818 1.10053 0.0
C773 C 0.42826 0.76211 1.06146 0.0
C774 C 0.3292 0.70238 1.06323 0.0
C775 C 0.43026 0.77647 0.14026 0.0
C776 C 0.3594 0.79975 0.1443 0.0
C777 C 0.35788 0.79316 0.18891 0.0
C778 C 0.36314 0.78105 0.11358 0.0
C779 C 0.36372 0.75415 0.12778 0.0
C780 C 0.35635 0.74437 0.17155 0.0
C781 C 0.35406 0.76435 0.20204 0.0
C782 C 0.37102 0.79292 1.06729 0.0
C783 C 0.35327 0.71406 0.18656 0.0
H784 H 0.36806 0.71563 0.99472 0.0
H785 H 0.45287 0.77856 1.06123 0.0
H786 H 0.32248 0.68563 1.09054 0.0
H787 H 0.31778 0.71638 1.06882 0.0
H788 H 0.32038 0.68927 1.03209 0.0
H789 H 0.45493 0.78259 0.13862 0.0
H790 H 0.42939 0.79834 0.14233 0.0
H791 H 0.4201 0.76319 0.17062 0.0
H792 H 0.36103 0.82136 0.13385 0.0
H793 H 0.35205 0.75858 0.23643 0.0
H794 H 0.36032 0.77374 1.04328 0.0
H795 H 0.39649 0.80467 1.06294 0.0
H796 H 0.36336 0.80991 1.05968 0.0
H797 H 0.34858 0.7103 0.22213 0.0
H798 H 0.37454 0.71314 0.17898 0.0
H799 H 0.33393 0.69464 0.16854 0.0
C800 C 0.59501 0.35691 0.31355 0.0
C801 C 0.62654 0.37612 0.30419 0.0
C802 C 0.58548 0.34672 0.35613 0.0
C803 C 0.60811 0.35355 0.38884 0.0
C804 C 0.63946 0.36593 0.37677 0.0
C805 C 0.6486 0.37796 0.33447 0.0
C806 C 0.5519 0.33481 0.36725 0.0
C807 C 0.66384 0.37106 0.41018 0.0
C808 C 0.58741 0.38852 0.48207 0.0
C809 C 0.5694 0.36243 0.50785 0.0
C810 C 0.60272 0.38651 0.44523 0.0
C811 C 0.6003 0.35764 0.43415 0.0
C812 C 0.58486 0.33202 0.46267 0.0
C813 C 0.56932 0.33466 0.49926 0.0
C814 C 0.61928 0.41478 0.41633 0.0
C815 C 0.58258 0.30113 0.4533 0.0
H816 H 0.57767 0.35477 0.29015 0.0
H817 H 0.67302 0.39207 0.32705 0.0
H818 H 0.54408 0.31813 0.39467 0.0
H819 H 0.54895 0.3547 0.3771 0.0
H820 H 0.53673 0.32344 0.33861 0.0
H821 H 0.68433 0.37198 0.39442 0.0
H822 H 0.67162 0.39351 0.42725 0.0
H823 H 0.65444 0.35235 0.43502 0.0
H824 H 0.58864 0.41041 0.48993 0.0
H825 H 0.55601 0.31462 0.51985 0.0
H826 H 0.60737 0.41013 0.38418 0.0
H827 H 0.64339 0.42021 0.41039 0.0
H828 H 0.62004 0.43567 0.43086 0.0
H829 H 0.559 0.28467 0.44089 0.0
H830 H 0.58588 0.29117 0.48393 0.0
H831 H 0.5998 0.30284 0.42894 0.0
C832 C 0.20146 0.56295 0.79702 0.0
C833 C 0.20931 0.57037 0.84109 0.0
C834 C 0.2175 0.58474 0.76442 0.0
C835 C 0.24297 0.6141 0.77622 0.0
C836 C 0.25445 0.6193 0.81952 0.0
C837 C 0.23712 0.59751 0.85186 0.0
C838 C 0.20432 0.57783 0.71851 0.0
C839 C 0.28326 0.6491 0.83222 0.0
C840 C 0.2617 0.65502 0.67022 0.0
C841 C 0.23713 0.66133 0.66957 0.0
C842 C 0.26871 0.64431 0.70865 0.0
C843 C 0.25105 0.6406 0.74648 0.0
C844 C 0.23233 0.65462 0.74829 0.0
C845 C 0.22595 0.66533 0.70968 0.0
C846 C 0.29121 0.63243 0.70699 0.0
C847 C 0.21367 0.6524 0.78829 0.0
H848 H 0.18074 0.54138 0.78847 0.0
H849 H 0.24384 0.60315 0.88582 0.0
H850 H 0.19461 0.59304 0.71049 0.0
H851 H 0.2227 0.58254 0.69443 0.0
H852 H 0.18552 0.55336 0.71453 0.0
H853 H 0.28066 0.66945 0.82418 0.0
H854 H 0.28875 0.64995 0.86758 0.0
H855 H 0.30317 0.65138 0.81314 0.0
H856 H 0.27229 0.65416 0.63977 0.0
H857 H 0.20808 0.67165 0.71053 0.0
H858 H 0.27831 0.60667 0.70626 0.0
H859 H 0.306 0.63979 0.73672 0.0
H860 H 0.3062 0.64087 0.67763 0.0
H861 H 0.19233 0.62925 0.78877 0.0
H862 H 0.20669 0.67043 0.7882 0.0
H863 H 0.22678 0.65488 0.8186 0.0
C864 C 0.41683 0.94349 1.04279 0.0
C865 C 0.4372 0.9515 1.00672 0.0
C866 C 0.42414 0.96178 1.08264 0.0
C867 C 0.45341 0.98987 1.08949 0.0
C868 C 0.47323 0.99904 1.05165 0.0
C869 C 0.46519 0.98014 1.01226 0.0
C870 C 0.39872 0.95103 0.11602 0.0
C871 C 0.50269 0.03001 1.05077 0.0
C872 C 0.4811 0.05839 0.17952 0.0
C873 C 0.48421 0.04554 0.21926 0.0
C874 C 0.46978 0.04082 0.13911 0.0
C875 C 0.46308 0.00907 0.13484 0.0
C876 C 0.46594 0.99599 0.17546 0.0
C877 C 0.47528 0.01362 0.21599 0.0
C878 C 0.46327 0.05671 1.10213 0.0
C879 C 0.45942 0.96292 0.17709 0.0
H880 H 0.39446 0.92254 1.03995 0.0
H881 H 0.48106 0.98837 0.98497 0.0
H882 H 0.40377 0.96816 0.14256 0.0
H883 H 0.3768 0.94623 1.09976 0.0
H884 H 0.39451 0.92873 0.13023 0.0
H885 H 0.51964 0.03018 1.02751 0.0
H886 H 0.49718 0.04763 1.03858 0.0
H887 H 0.51365 0.03748 1.08335 0.0
H888 H 0.48615 0.08228 0.18024 0.0
H889 H 0.4764 0.00222 0.24551 0.0
H890 H 0.45008 0.04073 1.0749 0.0
H891 H 0.48546 0.07601 1.08981 0.0
H892 H 0.44974 0.06738 0.1144 0.0
H893 H 0.43456 0.94728 0.1841 0.0
H894 H 0.47241 0.9596 0.20397 0.0
H895 H 0.46523 0.95563 0.1459 0.0
C896 C 0.46316 0.41034 0.38537 0.0
C897 C 0.47036 0.42865 0.34706 0.0
C898 C 0.45207 0.41701 0.42554 0.0
C899 C 0.44959 0.4446 0.43145 0.0
C900 C 0.45583 0.46256 0.39182 0.0
C901 C 0.46517 0.45418 0.3514 0.0
C902 C 0.44042 0.39205 0.45983 0.0
C903 C 0.45176 0.49064 0.3903 0.0
C904 C 0.40811 0.47022 0.52308 0.0
C905 C 0.42582 0.47596 0.56193 0.0
C906 C 0.4141 0.45864 0.48276 0.0
C907 C 0.44048 0.45424 0.47731 0.0
C908 C 0.45801 0.45937 0.51726 0.0
C909 C 0.45023 0.46917 0.55782 0.0
C910 C 0.39004 0.4493 0.44726 0.0
C911 C 0.48542 0.4543 0.51835 0.0
H912 H 0.46488 0.38946 0.38358 0.0
H913 H 0.46896 0.46838 0.32274 0.0
H914 H 0.4284 0.39626 0.48715 0.0
H915 H 0.4239 0.36935 0.44465 0.0
H916 H 0.46003 0.3897 0.47257 0.0
H917 H 0.46796 0.50812 0.36704 0.0
H918 H 0.42829 0.48349 0.37758 0.0
H919 H 0.45472 0.5018 0.42264 0.0
H920 H 0.38827 0.47361 0.52444 0.0
H921 H 0.46414 0.47225 0.58668 0.0
H922 H 0.39288 0.43583 0.42053 0.0
H923 H 0.3908 0.47039 0.4338 0.0
H924 H 0.36659 0.43487 0.46132 0.0
H925 H 0.47731 0.4295 0.52453 0.0
H926 H 0.50131 0.46692 0.54579 0.0
H927 H 0.49847 0.46122 0.48724 0.0
C928 C 0.0417 0.49061 0.70396 0.0
C929 C 0.03893 0.46999 0.66969 0.0
C930 C 0.0253 0.48086 0.74531 0.0
C931 C 0.00346 0.44888 0.75552 0.0
C932 C 0.0013 0.42774 0.72132 0.0
C933 C 0.01829 0.43822 0.68028 0.0
C934 C 0.0317 0.50641 0.77711 0.0
C935 C 0.98135 0.39322 0.72748 0.0
C936 C 0.98001 0.43404 0.88368 0.0
C937 C 0.94759 0.42296 0.88574 0.0
C938 C -0.00237 0.44152 0.84322 0.0
C939 C 0.98368 0.43815 0.80059 0.0
C940 C 0.9504 0.42474 0.80262 0.0
C941 C 0.93365 0.41853 0.84371 0.0
C942 C 0.03176 0.45267 0.84715 0.0
C943 C 0.93112 0.41567 0.76139 0.0
H944 H 0.05724 0.5152 0.69875 0.0
H945 H 0.01516 0.42091 0.6561 0.0
H946 H 0.01897 0.49855 0.80822 0.0
H947 H 0.05691 0.52013 0.7842 0.0
H948 H 0.02497 0.52199 0.76103 0.0
H949 H 0.99299 0.38093 0.71395 0.0
H950 H 0.97585 0.38669 0.76229 0.0
H951 H 0.95941 0.38491 0.70898 0.0
H952 H 0.99217 0.4374 0.91439 0.0
H953 H 0.90881 0.40913 0.84259 0.0
H954 H 0.04432 0.47781 0.85527 0.0
H955 H 0.04149 0.44902 0.81662 0.0
H956 H 0.0362 0.44051 0.87419 0.0
H957 H 0.91205 0.42101 0.76434 0.0
H958 H 0.92019 0.39018 0.75675 0.0
H959 H 0.94474 0.4272 0.7318 0.0
C960 C 0.5338 0.97199 0.20962 0.0
C961 C 0.5366 0.94555 0.21988 0.0
C962 C 0.5438 0.98887 0.16867 0.0
C963 C 0.55652 0.97963 0.13355 0.0
C964 C 0.56028 0.95344 0.1441 0.0
C965 C 0.55075 0.93735 0.1859 0.0
C966 C 0.5407 0.0172 0.16301 0.0
C967 C 0.57495 0.94233 1.11106 0.0
C968 C 0.55173 0.00361 1.0092 0.0
C969 C 0.58003 0.03155 1.00079 0.0
C970 C 0.54442 0.9868 1.05037 0.0
C971 C 0.56542 0.99703 1.08693 0.0
C972 C 0.59463 0.02451 1.078 0.0
C973 C 0.60134 0.04088 1.03644 0.0
C974 C 0.51348 0.95767 1.05485 0.0
C975 C 0.61944 0.03723 0.11275 0.0
H976 H 0.52409 0.98017 0.23446 0.0
H977 H 0.55408 0.9177 0.19159 0.0
H978 H 0.5229 0.01215 0.13776 0.0
H979 H 0.53423 0.02428 0.19383 0.0
H980 H 0.56268 0.03702 0.1512 0.0
H981 H 0.55855 0.93053 1.08367 0.0
H982 H 0.59603 0.96232 1.09721 0.0
H983 H 0.58132 0.92577 0.12544 0.0
H984 H 0.53464 0.99471 0.9832 0.0
H985 H 0.62357 0.06174 1.03232 0.0
H986 H 0.49952 0.96145 1.0797 0.0
H987 H 0.51653 0.93828 1.0666 0.0
H988 H 0.50048 0.95049 1.02349 0.0
H989 H 0.61523 0.05218 0.13539 0.0
H990 H 0.64279 0.05159 1.09837 0.0
H991 H 0.61926 0.01829 0.13213 0.0
C992 C 0.54186 0.52683 0.54959 0.0
C993 C 0.56924 0.52536 0.55758 0.0
C994 C 0.53493 0.53683 0.5086 0.0
C995 C 0.55527 0.54595 0.47158 0.0
C996 C 0.58377 0.54598 0.48024 0.0
C997 C 0.59014 0.53597 0.52176 0.0
C998 C 0.50518 0.53753 0.50503 0.0
C999 C 0.60876 0.55721 0.44617 0.0
C1000 C 0.52685 0.54197 0.34712 0.0
C1001 C 0.52694 0.57026 0.33923 0.0
C1002 C 0.53648 0.53451 0.38812 0.0
C1003 C 0.54659 0.55512 0.42524 0.0
C1004 C 0.54805 0.58437 0.41674 0.0
C1005 C 0.53853 0.59131 0.37522 0.0
C1006 C 0.53597 0.50403 0.39152 0.0
C1007 C 0.56035 0.6096 0.45101 0.0
H1008 H 0.52532 0.51999 0.57599 0.0
H1009 H 0.61184 0.53616 0.52575 0.0
H1010 H 0.51 0.56112 0.49614 0.0
H1011 H 0.49073 0.52154 0.47863 0.0
H1012 H 0.49193 0.53096 0.53598 0.0
H1013 H 0.61104 0.5373 0.43434 0.0
H1014 H 0.60429 0.56833 0.41786 0.0
H1015 H 0.63136 0.57416 0.46106 0.0
H1016 H 0.51903 0.52512 0.32073 0.0
H1017 H 0.53989 0.61363 0.37137 0.0
H1018 H 0.52013 0.48995 0.41809 0.0
H1019 H 0.55931 0.50812 0.40007 0.0
H1020 H 0.52879 0.49065 0.36047 0.0
H1021 H 0.54113 0.61281 0.46301 0.0
H1022 H 0.57773 0.63197 0.43627 0.0
H1023 H 0.57121 0.60463 0.47919 0.0
C1024 C 0.05475 0.58271 0.8425 0.0
C1025 C 0.04126 0.57686 0.88477 0.0
C1026 C 0.03716 0.57571 0.80191 0.0
C1027 C 0.00376 0.56102 0.80084 0.0
C1028 C 0.99027 0.55635 0.84379 0.0
C1029 C 0.00855 0.56383 0.88375 0.0
C1030 C 0.05552 0.58477 0.76013 0.0
C1031 C 0.95593 0.54356 0.84861 0.0
C1032 C 0.96562 0.56032 0.68326 0.0
C1033 C 0.94633 0.52841 0.67169 0.0
C1034 C 0.98345 0.57104 0.72377 0.0
C1035 C 0.98333 0.55003 0.75634 0.0
C1036 C 0.96283 0.51788 0.7452 0.0
C1037 C 0.94571 0.50786 0.70428 0.0
C1038 C 0.00216 0.6056 0.7312 0.0
C1039 C 0.95864 0.49255 0.77557 0.0
H1040 H 0.0797 0.59324 0.84082 0.0
H1041 H 0.99676 0.55921 0.91484 0.0
H1042 H 0.04137 0.57254 0.73098 0.0
H1043 H 0.06571 0.61014 0.75531 0.0
H1044 H 0.07507 0.58009 0.76245 0.0
H1045 H 0.95105 0.55431 0.87713 0.0
H1046 H 0.94539 0.54747 0.81908 0.0
H1047 H 0.94448 0.51822 0.85478 0.0
H1048 H 0.96709 0.57751 0.66021 0.0
H1049 H 0.93127 0.48316 0.69816 0.0
H1050 H 0.02429 0.61496 0.71316 0.0
H1051 H 0.00737 0.61176 0.76628 0.0
H1052 H 0.98973 0.61722 0.71811 0.0
H1053 H 0.97202 0.5006 0.80634 0.0
H1054 H 0.96616 0.47816 0.75783 0.0
H1055 H 0.93373 0.47773 0.78344 0.0
C1056 C 0.51806 0.03018 0.45862 0.0
C1057 C 0.53507 0.04938 0.42393 0.0
C1058 C 0.53357 0.02837 0.49571 0.0
C1059 C 0.56627 0.04134 0.49363 0.0
C1060 C 0.58145 0.06892 0.46916 0.0
C1061 C 0.5668 0.07067 0.43093 0.0
C1062 C 0.51485 0.01065 0.53464 0.0
C1063 C 0.6137 0.09408 0.48059 0.0
C1064 C 0.5721 0.0018 0.41181 0.0
C1065 C 0.5426 0.97681 0.42194 0.0
C1066 C 0.5915 0.02061 0.44554 0.0
C1067 C 0.57804 0.01872 0.48692 0.0
C1068 C 0.55707 0.98796 0.49872 0.0
C1069 C 0.53616 0.96845 0.4663 0.0
C1070 C 0.62515 0.04243 0.43668 0.0
C1071 C 0.5554 0.97768 0.54509 0.0
H1072 H 0.49297 0.01737 0.4574 0.0
H1073 H 0.57968 0.08932 0.40811 0.0
H1074 H 0.5024 0.98539 0.52744 0.0
H1075 H 0.52956 0.01582 0.56426 0.0
H1076 H 0.49649 0.01652 0.54088 0.0
H1077 H 0.62408 0.08675 0.50687 0.0
H1078 H 0.62871 0.10168 0.45128 0.0
H1079 H 0.61276 0.11468 0.49234 0.0
H1080 H 0.58059 0.00562 0.37854 0.0
H1081 H 0.51613 0.94697 0.47551 0.0
H1082 H 0.63818 0.05366 0.4671 0.0
H1083 H 0.62759 0.06016 0.41262 0.0
H1084 H 0.63544 0.02939 0.42138 0.0
H1085 H 0.56615 0.96282 0.54698 0.0
H1086 H 0.53104 0.96366 0.55575 0.0
H1087 H 0.56833 0.99776 0.56753 0.0
C1088 C 0.49396 0.54934 0.78783 0.0
C1089 C 0.46783 0.5194 0.78548 0.0
C1090 C 0.51125 0.55928 0.82665 0.0
C1091 C 0.50651 0.53659 0.8583 0.0
C1092 C 0.47515 0.51427 0.86352 0.0
C1093 C 0.45676 0.50305 0.82531 0.0
C1094 C 0.53479 0.59298 0.83289 0.0
C1095 C 0.46353 0.50038 0.90774 0.0
C1096 C 0.51632 0.48577 0.7987 0.0
C1097 C 0.53792 0.50932 0.77178 0.0
C1098 C 0.51461 0.49206 0.8427 0.0
C1099 C 0.52836 0.52364 0.85606 0.0
C1100 C 0.557 0.54311 0.83588 0.0
C1101 C 0.56021 0.53745 0.7917 0.0
C1102 C 0.49777 0.46529 0.87339 0.0
C1103 C 0.58257 0.57026 0.85982 0.0
H1104 H 0.5001 0.56534 0.76077 0.0
H1105 H 0.43404 0.48255 0.82704 0.0
H1106 H 0.54445 0.5979 0.86657 0.0
H1107 H 0.5536 0.60006 0.80859 0.0
H1108 H 0.52375 0.60727 0.82658 0.0
H1109 H 0.4596 0.51685 0.92709 0.0
H1110 H 0.44188 0.47759 0.90547 0.0
H1111 H 0.4813 0.4983 0.92677 0.0
H1112 H 0.50247 0.46219 0.78656 0.0
H1113 H 0.58059 0.55404 0.77403 0.0
H1114 H 0.47242 0.45541 0.86993 0.0
H1115 H 0.50518 0.47233 0.90772 0.0
H1116 H 0.50244 0.44636 0.86445 0.0
H1117 H 0.59314 0.59124 0.83889 0.0
H1118 H 0.60106 0.56479 0.86764 0.0
H1119 H 0.57438 0.57507 0.89103 0.0
C1120 C 0.95903 0.45207 0.13933 0.0
C1121 C 0.9516 0.46465 1.10291 0.0
C1122 C 0.96445 0.46662 0.18035 0.0
C1123 C 0.96894 0.49698 0.18209 0.0
C1124 C 0.94999 0.50201 0.15236 0.0
C1125 C 0.94465 0.48834 1.1109 0.0
C1126 C 0.96876 0.4515 0.22008 0.0
C1127 C 0.93666 0.52246 0.16307 0.0
C1128 C 0.01808 0.56125 0.12915 0.0
C1129 C 0.02859 0.54424 1.10432 0.0
C1130 C 0.008 0.55237 0.1723 0.0
C1131 C 0.00232 0.52291 0.18603 0.0
C1132 C 0.02436 0.51533 0.1698 0.0
C1133 C 0.03381 0.52258 0.12646 0.0
C1134 C 0.00215 0.57308 0.20194 0.0
C1135 C 0.03787 0.50001 0.19711 0.0
H1136 H 0.95938 0.4305 0.13661 0.0
H1137 H 0.93344 0.49492 1.08614 0.0
H1138 H 0.98578 0.44377 0.2141 0.0
H1139 H 0.97525 0.46687 0.24914 0.0
H1140 H 0.94696 0.43002 0.22689 0.0
H1141 H 0.9117 0.51028 0.15422 0.0
H1142 H 0.93913 0.5286 0.19827 0.0
H1143 H 0.94793 0.54374 0.1428 0.0
H1144 H 0.01921 0.58207 0.11628 0.0
H1145 H 0.04737 0.5134 1.11177 0.0
H1146 H 0.02474 0.59309 0.21208 0.0
H1147 H 0.98941 0.56066 0.23179 0.0
H1148 H 0.98953 0.58295 0.18439 0.0
H1149 H 0.03085 0.49816 0.23178 0.0
H1150 H 0.06342 0.51384 0.19509 0.0
H1151 H 0.03144 0.47694 0.18313 0.0
C1152 C 0.04255 0.54235 0.44859 0.0
C1153 C 0.03692 0.5117 0.45084 0.0
C1154 C 0.03708 0.55323 0.40929 0.0
C1155 C 0.01891 0.53107 0.3769 0.0
C1156 C 0.02604 0.50719 0.37233 0.0
C1157 C 0.03158 0.49521 0.41086 0.0
C1158 C 0.04939 0.58738 0.4033 0.0
C1159 C 0.023 0.49219 0.32857 0.0
C1160 C 0.95589 0.4849 0.43591 0.0
C1161 C 0.95908 0.51003 0.4609 0.0
C1162 C 0.96505 0.48944 0.39224 0.0
C1163 C 0.98463 0.52039 0.37775 0.0
C1164 C 0.97702 0.54197 0.39532 0.0
C1165 C 0.96706 0.53803 0.43892 0.0
C1166 C 0.95441 0.46154 0.363 0.0
C1167 C 0.9814 0.56953 0.36944 0.0
H1168 H 0.0527 0.55817 0.476 0.0
H1169 H 0.03251 0.4739 0.40924 0.0
H1170 H 0.04642 0.5929 0.36913 0.0
H1171 H 0.03772 0.5955 0.42629 0.0
H1172 H 0.07444 0.60028 0.41168 0.0
H1173 H 0.01678 0.46748 0.33149 0.0
H1174 H 0.00641 0.49476 0.30735 0.0
H1175 H 0.04528 0.50483 0.31156 0.0
H1176 H 0.94453 0.46159 0.44916 0.0
H1177 H 0.96428 0.55605 0.45458 0.0
H1178 H 0.9678 0.44972 0.37018 0.0
H1179 H 0.95641 0.46792 0.32801 0.0
H1180 H 0.92982 0.44439 0.36991 0.0
H1181 H 0.99293 0.59102 0.38957 0.0
H1182 H 0.9583 0.56601 0.36027 0.0
H1183 H 0.99463 0.57241 0.33899 0.0
C1184 C 0.49493 0.9298 0.79512 0.0
C1185 C 0.48065 0.94795 0.79979 0.0
C1186 C 0.50985 0.93042 0.75617 0.0
C1187 C 0.51582 0.95403 0.72553 0.0
C1188 C 0.49322 0.96367 0.72423 0.0
C1189 C 0.47779 0.9628 0.76278 0.0
C1190 C 0.52134 0.90789 0.74981 0.0
C1191 C 0.48694 0.97713 0.68415 0.0
C1192 C 0.55422 0.02391 0.74871 0.0
C1193 C 0.56042 0.01461 0.7895 0.0
C1194 C 0.5545 0.0079 0.71061 0.0
C1195 C 0.54964 0.97783 0.71666 0.0
C1196 C 0.57048 0.97856 0.74869 0.0
C1197 C 0.57231 0.99402 0.78822 0.0
C1198 C 0.55811 0.021 0.66565 0.0
C1199 C 0.59115 0.96522 0.74026 0.0
H1200 H 0.49323 0.91399 0.82071 0.0
H1201 H 0.46296 0.973 0.76344 0.0
H1202 H 0.53158 0.91007 0.71697 0.0
H1203 H 0.53839 0.91132 0.77572 0.0
H1204 H 0.50178 0.88384 0.75369 0.0
H1205 H 0.46181 0.96865 0.68131 0.0
H1206 H 0.49783 0.00267 0.68763 0.0
H1207 H 0.495 0.97088 0.65408 0.0
H1208 H 0.5501 0.04319 0.74626 0.0
H1209 H 0.584 0.99121 0.81624 0.0
H1210 H 0.54849 0.03682 0.66352 0.0
H1211 H 0.54733 0.00237 0.64059 0.0
H1212 H 0.58316 0.03424 0.65837 0.0
H1213 H 0.59114 0.95138 0.76868 0.0
H1214 H 0.61526 0.98461 0.73639 0.0
H1215 H 0.58434 0.95091 0.70998 0.0
C1216 C 0.51047 0.54397 1.08897 0.0
C1217 C 0.52668 0.55209 0.12934 0.0
C1218 C 0.5262 0.54299 1.05119 0.0
C1219 C 0.55254 0.5401 1.05765 0.0
C1220 C 0.57253 0.56274 1.08808 0.0
C1221 C 0.55923 0.5652 0.12737 0.0
C1222 C 0.51634 0.54562 1.00602 0.0
C1223 C 0.60609 0.58428 1.07831 0.0
C1224 C 0.49783 0.46731 1.10311 0.0
C1225 C 0.5144 0.47171 0.14212 0.0
C1226 C 0.5132 0.48278 1.06508 0.0
C1227 C 0.54463 0.50701 1.06846 0.0
C1228 C 0.56204 0.50309 1.10192 0.0
C1229 C 0.5469 0.48819 0.1404 0.0
C1230 C 0.49509 0.4747 1.023 0.0
C1231 C 0.59643 0.51628 1.09854 0.0
H1232 H 0.48722 0.54026 1.08644 0.0
H1233 H 0.57398 0.57836 0.15454 0.0
H1234 H 0.52297 0.53343 0.98167 0.0
H1235 H 0.49115 0.53726 1.00428 0.0
H1236 H 0.52953 0.57041 0.99726 0.0
H1237 H 0.60959 0.60784 1.07216 0.0
H1238 H 0.6207 0.58626 1.10692 0.0
H1239 H 0.61359 0.5767 1.04888 0.0
H1240 H 0.47312 0.45112 1.10178 0.0
H1241 H 0.56055 0.48826 0.16801 0.0
H1242 H 0.51052 0.48319 0.99422 0.0
H1243 H 0.4791 0.48415 1.02325 0.0
H1244 H 0.47999 0.4492 1.02024 0.0
H1245 H 0.6021 0.49773 1.10526 0.0
H1246 H 0.60848 0.53436 0.12402 0.0
H1247 H 0.60512 0.52585 1.06556 0.0
C1248 C 0.3212 0.00287 0.70873 0.0
C1249 C 0.29903 0.97448 0.72646 0.0
C1250 C 0.31869 0.01011 0.66539 0.0
C1251 C 0.29316 0.98851 0.63989 0.0
C1252 C 0.26794 0.963 0.66032 0.0
C1253 C 0.27141 0.95581 0.70348 0.0
C1254 C 0.34574 0.03829 0.64528 0.0
C1255 C 0.23909 0.94116 0.63514 0.0
C1256 C 0.30977 0.01441 0.52298 0.0
C1257 C 0.32729 0.00057 0.51093 0.0
C1258 C 0.29464 0.00769 0.56341 0.0
C1259 C 0.29797 0.98741 0.59238 0.0
C1260 C 0.31253 0.97069 0.57797 0.0
C1261 C 0.32668 0.97726 0.53709 0.0
C1262 C 0.27752 0.02438 0.57615 0.0
C1263 C 0.31628 0.94834 0.60738 0.0
H1264 H 0.34238 0.01758 0.72671 0.0
H1265 H 0.25376 0.93429 0.7178 0.0
H1266 H 0.35854 0.03078 0.6234 0.0
H1267 H 0.3375 0.05132 0.62532 0.0
H1268 H 0.36214 0.05427 0.6704 0.0
H1269 H 0.21873 0.93005 0.65712 0.0
H1270 H 0.23439 0.95348 0.60863 0.0
H1271 H 0.24206 0.92247 0.62011 0.0
H1272 H 0.30969 0.0321 0.50242 0.0
H1273 H 0.33926 0.96574 0.5269 0.0
H1274 H 0.29439 0.04838 0.58681 0.0
H1275 H 0.26089 0.01251 0.60305 0.0
H1276 H 0.26477 0.02623 0.54755 0.0
H1277 H 0.33089 0.96102 0.63605 0.0
H1278 H 0.32725 0.93654 0.59034 0.0
H1279 H 0.29346 0.9303 0.61974 0.0
C1280 C 0.31705 0.34449 1.0392 0.0
C1281 C 0.30828 0.31952 1.06767 0.0
C1282 C 0.30375 0.33995 0.99775 0.0
C1283 C 0.28078 0.30962 0.98469 0.0
C1284 C 0.26913 0.28509 1.01522 0.0
C1285 C 0.28337 0.29024 1.05641 0.0
C1286 C 0.31685 0.36708 0.96649 0.0
C1287 C 0.24343 0.25289 1.00372 0.0
C1288 C 0.26193 0.3227 0.8724 0.0
C1289 C 0.28657 0.32261 0.85051 0.0
C1290 C 0.25543 0.31271 0.91585 0.0
C1291 C 0.27458 0.30342 0.93736 0.0
C1292 C 0.29546 0.29795 0.91281 0.0
C1293 C 0.30118 0.30764 0.86935 0.0
C1294 C 0.23119 0.31634 0.94028 0.0
C1295 C 0.31538 0.28664 0.93405 0.0
H1296 H 0.33633 0.36714 1.04771 0.0
H1297 H 0.27607 0.27101 1.07886 0.0
H1298 H 0.32899 0.36278 0.93937 0.0
H1299 H 0.298 0.3699 0.95202 0.0
H1300 H 0.33355 0.38931 0.98267 0.0
H1301 H 0.22819 0.24205 1.03237 0.0
H1302 H 0.22914 0.25295 0.9759 0.0
H1303 H 0.25353 0.23814 0.99491 0.0
H1304 H 0.25 0.33358 0.85748 0.0
H1305 H 0.31942 0.30653 0.85163 0.0
H1306 H 0.24203 0.33975 0.95552 0.0
H1307 H 0.22077 0.29884 0.96663 0.0
H1308 H 0.2126 0.31405 0.91784 0.0
H1309 H 0.33323 0.3054 0.95488 0.0
H1310 H 0.32731 0.27982 0.90951 0.0
H1311 H 0.30119 0.26643 0.95526 0.0
C1312 C 0.94251 0.2619 0.19033 0.0
C1313 C 0.91278 0.25715 0.18171 0.0
C1314 C 0.95283 0.26378 0.2334 0.0
C1315 C 0.93299 0.2612 0.26802 0.0
C1316 C 0.90124 0.24985 0.25942 0.0
C1317 C 0.89136 0.24782 0.21599 0.0
C1318 C 0.98647 0.27403 0.24145 0.0
C1319 C 0.87891 0.24491 0.29575 0.0
C1320 C 0.97008 0.2873 0.38036 0.0
C1321 C 0.97964 0.31909 0.37901 0.0
C1322 C 0.9537 0.26752 0.34525 0.0
C1323 C 0.94709 0.28002 0.30799 0.0
C1324 C 0.95596 0.31195 0.30712 0.0
C1325 C 0.97222 0.33101 0.34246 0.0
C1326 C 0.94462 0.2337 0.34779 0.0
C1327 C 0.94924 0.32644 0.2682 0.0
H1328 H 0.95917 0.26835 0.16414 0.0
H1329 H 0.86787 0.24262 0.20935 0.0
H1330 H -0.00043 0.29956 0.24671 0.0
H1331 H 0.98922 0.26284 0.2711 0.0
H1332 H 0.99679 0.26844 0.21318 0.0
H1333 H 0.85462 0.22875 0.28553 0.0
H1334 H 0.88432 0.23559 0.32532 0.0
H1335 H 0.88088 0.26751 0.30459 0.0
H1336 H 0.9755 0.27789 0.40877 0.0
H1337 H 0.98002 0.35562 0.3408 0.0
H1338 H 0.9638 0.23079 0.33485 0.0
H1339 H 0.92351 0.21868 0.32829 0.0
H1340 H 0.94061 0.22554 0.38217 0.0
H1341 H 0.96137 0.32466 0.23894 0.0
H1342 H 0.95676 0.35134 0.27366 0.0
H1343 H 0.92407 0.31393 0.26086 0.0
C1344 C 0.75081 0.10054 0.66416 0.0
C1345 C 0.74788 0.08275 0.70132 0.0
C1346 C 0.7471 0.08764 0.62227 0.0
C1347 C 0.74173 0.05701 0.61801 0.0
C1348 C 0.74668 0.04252 0.65431 0.0
C1349 C 0.74922 0.05533 0.69596 0.0
C1350 C 0.74374 0.10463 0.5838 0.0
C1351 C 0.74389 0.01096 0.65022 0.0
C1352 C 0.66943 0.00147 0.55572 0.0
C1353 C 0.68116 0.99855 0.51555 0.0
C1354 C 0.68902 0.02094 0.5886 0.0
C1355 C 0.72151 0.03707 0.58205 0.0
C1356 C 0.73375 0.03353 0.5422 0.0
C1357 C 0.71336 0.01472 0.50906 0.0
C1358 C 0.67468 0.02405 0.63048 0.0
C1359 C 0.76813 0.04979 0.53381 0.0
H1360 H 0.75187 0.12276 0.66791 0.0
H1361 H 0.74813 0.04163 0.72406 0.0
H1362 H 0.75475 0.10137 0.55438 0.0
H1363 H 0.71876 0.09502 0.57644 0.0
H1364 H 0.75419 0.12989 0.59056 0.0
H1365 H 0.75609 0.0067 0.67744 0.0
H1366 H 0.71907 0.99278 0.65134 0.0
H1367 H 0.75349 0.00863 0.61866 0.0
H1368 H 0.64475 0.98838 0.56175 0.0
H1369 H 0.72273 0.01299 0.47796 0.0
H1370 H 0.6831 0.04889 0.63791 0.0
H1371 H 0.68147 0.01428 0.65812 0.0
H1372 H 0.64898 0.01177 0.6288 0.0
H1373 H 0.77529 0.07234 0.51771 0.0
H1374 H 0.77401 0.03587 0.51142 0.0
H1375 H 0.78177 0.05438 0.56439 0.0
C1376 C 0.65002 0.74063 1.01239 0.0
C1377 C 0.65909 0.73265 1.05142 0.0
C1378 C 0.66006 0.73561 0.97202 0.0
C1379 C 0.67963 0.72258 0.97119 0.0
C1380 C 0.6933 0.72015 1.0104 0.0
C1381 C 0.68279 0.72517 1.05027 0.0
C1382 C 0.646 0.73975 0.93069 0.0
C1383 C 0.71516 0.70739 1.01083 0.0
C1384 C 0.65293 0.65332 0.89627 0.0
C1385 C 0.67475 0.6652 0.86266 0.0
C1386 C 0.65439 0.67194 0.93147 0.0
C1387 C 0.67831 0.70344 0.93313 0.0
C1388 C 0.70053 0.71571 0.89939 0.0
C1389 C 0.69839 0.69642 0.86431 0.0
C1390 C 0.63019 0.6577 0.96689 0.0
C1391 C 0.72622 0.74916 0.8999 0.0
H1392 H 0.63252 0.74751 1.01317 0.0
H1393 H 0.6904 0.71934 1.08016 0.0
H1394 H 0.66308 0.74826 0.90376 0.0
H1395 H 0.62621 0.71698 0.92052 0.0
H1396 H 0.63732 0.75624 0.93558 0.0
H1397 H 0.72906 0.71372 1.04145 0.0
H1398 H 0.70154 0.68167 1.00853 0.0
H1399 H 0.7311 0.71599 0.98255 0.0
H1400 H 0.63428 0.62944 0.89476 0.0
H1401 H 0.71535 0.70568 0.83837 0.0
H1402 H 0.61745 0.67063 0.96995 0.0
H1403 H 0.64149 0.65927 0.99882 0.0
H1404 H 0.61311 0.63289 0.96032 0.0
H1405 H 0.71671 0.76424 0.89013 0.0
H1406 H 0.74503 0.75319 0.87683 0.0
H1407 H 0.73628 0.75649 0.93312 0.0
C1408 C 0.05882 0.73666 0.2047 0.0
C1409 C 0.03451 0.71677 0.17683 0.0
C1410 C 0.0532 0.73903 0.24897 0.0
C1411 C 0.02282 0.72071 0.26508 0.0
C1412 C -0.00226 0.7051 0.23552 0.0
C1413 C 0.00395 0.70333 0.19144 0.0
C1414 C 0.08024 0.75743 0.27931 0.0
C1415 C 0.9648 0.68624 0.25125 0.0
C1416 C 0.00928 0.66824 0.36046 0.0
C1417 C 0.99613 0.67933 0.39079 0.0
C1418 C 0.0203 0.68311 0.32053 0.0
C1419 C 0.01828 0.70995 0.31087 0.0
C1420 C 0.00776 0.72298 0.34298 0.0
C1421 C 0.99651 0.70731 0.38264 0.0
C1422 C 0.03155 0.66838 0.28734 0.0
C1423 C 0.0062 0.75208 0.33466 0.0
H1424 H 0.08252 0.74759 0.19329 0.0
H1425 H 0.98511 0.68874 0.16938 0.0
H1426 H 0.07359 0.76746 0.30683 0.0
H1427 H 0.08803 0.74185 0.29322 0.0
H1428 H 0.10006 0.77647 0.26169 0.0
H1429 H 0.94785 0.6799 0.22406 0.0
H1430 H 0.96143 0.66449 0.26642 0.0
H1431 H 0.95981 0.69923 0.27638 0.0
H1432 H 0.00882 0.64652 0.36641 0.0
H1433 H 0.98678 0.71621 0.40644 0.0
H1434 H 0.05469 0.68576 0.27498 0.0
H1435 H 0.01541 0.6597 0.25901 0.0
H1436 H 0.03321 0.64858 0.3011 0.0
H1437 H 0.02386 0.76754 0.31079 0.0
H1438 H 0.00942 0.7652 0.36553 0.0
H1439 H 0.983 0.74561 0.32139 0.0
C1440 C 0.51762 0.08841 0.52519 0.0
C1441 C 0.53713 0.10999 0.49316 0.0
C1442 C 0.52739 0.08768 0.56984 0.0
C1443 C 0.55794 0.1093 0.58595 0.0
C1444 C 0.57722 0.13202 0.55413 0.0
C1445 C 0.56712 0.13157 0.50943 0.0
C1446 C 0.50448 0.06317 0.60013 0.0
C1447 C 0.60881 0.15826 0.56665 0.0
C1448 C 0.56637 0.11437 0.71701 0.0
C1449 C 0.58739 0.10387 0.7281 0.0
C1450 C 0.55775 0.11724 0.67272 0.0
C1451 C 0.56895 0.1084 0.63519 0.0
C1452 C 0.59106 0.09872 0.64593 0.0
C1453 C 0.59984 0.09675 0.69085 0.0
C1454 C 0.53697 0.13099 0.66739 0.0
C1455 C 0.60508 0.08938 0.6095 0.0
H1456 H 0.49445 0.07115 0.51505 0.0
H1457 H 0.58321 0.1489 0.48698 0.0
H1458 H 0.51477 0.04999 0.61492 0.0
H1459 H 0.4987 0.07423 0.62712 0.0
H1460 H 0.4825 0.04677 0.58332 0.0
H1461 H 0.61135 0.18066 0.55547 0.0
H1462 H 0.61338 0.1599 0.60231 0.0
H1463 H 0.62679 0.15533 0.54955 0.0
H1464 H 0.55625 0.12074 0.74355 0.0
H1465 H 0.6161 0.08869 0.6967 0.0
H1466 H 0.51397 0.11501 0.68167 0.0
H1467 H 0.53388 0.13575 0.63293 0.0
H1468 H 0.54668 0.1531 0.68612 0.0
H1469 H 0.58648 0.07143 0.58854 0.0
H1470 H 0.62 0.0803 0.62184 0.0
H1471 H 0.6195 0.10968 0.58862 0.0
C1472 C 0.40227 0.51467 0.86786 0.0
C1473 C 0.41117 0.53589 0.83261 0.0
C1474 C 0.41106 0.52403 0.913 0.0
C1475 C 0.42986 0.5562 0.92603 0.0
C1476 C 0.43594 0.57765 0.89078 0.0
C1477 C 0.42791 0.56753 0.84587 0.0
C1478 C 0.39943 0.49843 0.94647 0.0
C1479 C 0.44844 0.61173 0.89961 0.0
C1480 C 0.43361 0.56767 1.05646 0.0
C1481 C 0.46552 0.58317 1.06814 0.0
C1482 C 0.42212 0.56053 1.01201 0.0
C1483 C 0.44227 0.56698 0.97514 0.0
C1484 C 0.47477 0.58398 0.98653 0.0
C1485 C 0.48561 0.59167 1.03155 0.0
C1486 C 0.38777 0.54704 1.00571 0.0
C1487 C 0.49881 0.59388 0.95102 0.0
H1488 H 0.38875 0.49013 0.86015 0.0
H1489 H 0.43431 0.58505 0.82083 0.0
H1490 H 0.4149 0.50482 0.97541 0.0
H1491 H 0.37609 0.4931 0.9573 0.0
H1492 H 0.39665 0.47663 0.93215 0.0
H1493 H 0.43162 0.61844 0.88726 0.0
H1494 H 0.45262 0.618 0.93474 0.0
H1495 H 0.47014 0.62566 0.88097 0.0
H1496 H 0.41691 0.56117 1.0826 0.0
H1497 H 0.51028 0.60389 1.03808 0.0
H1498 H 0.37546 0.52303 1.01872 0.0
H1499 H 0.38101 0.54687 0.97113 0.0
H1500 H 0.37976 0.56064 1.02504 0.0
H1501 H 0.49514 0.5734 0.93163 0.0
H1502 H 0.5228 0.60627 0.96408 0.0
H1503 H 0.49713 0.61019 0.92842 0.0
C1504 C 0.88654 0.40066 0.19686 0.0
C1505 C 0.87972 0.41384 0.16017 0.0
C1506 C 0.88612 0.40978 0.24215 0.0
C1507 C 0.87835 0.43322 0.25433 0.0
C1508 C 0.87007 0.44551 0.21727 0.0
C1509 C 0.87142 0.43644 0.17241 0.0
C1510 C 0.89439 0.3937 0.27696 0.0
C1511 C 0.85853 0.46804 0.22417 0.0
C1512 C 0.86018 0.43487 0.38315 0.0
C1513 C 0.88001 0.46583 0.39816 0.0
C1514 C 0.85851 0.4246 0.3381 0.0
C1515 C 0.87872 0.44456 0.30425 0.0
C1516 C 0.89911 0.47595 0.31949 0.0
C1517 C 0.89867 0.48598 0.36422 0.0
C1518 C 0.83367 0.39184 0.32765 0.0
C1519 C 0.92268 0.49978 0.28913 0.0
H1520 H 0.89289 0.38313 0.19029 0.0
H1521 H 0.86562 0.44741 0.14639 0.0
H1522 H 0.90525 0.40881 0.30588 0.0
H1523 H 0.87306 0.37251 0.28742 0.0
H1524 H 0.91027 0.38591 0.2643 0.0
H1525 H 0.84035 0.46401 0.19973 0.0
H1526 H 0.84887 0.46631 0.25732 0.0
H1527 H 0.87787 0.49203 0.21934 0.0
H1528 H 0.84488 0.41813 0.40687 0.0
H1529 H 0.91415 0.51002 0.37284 0.0
H1530 H 0.84015 0.37542 0.34217 0.0
H1531 H 0.82959 0.38722 0.2921 0.0
H1532 H 0.81152 0.38693 0.34302 0.0
H1533 H 0.94484 0.51452 0.30658 0.0
H1534 H 0.91425 0.51543 0.27775 0.0
H1535 H 0.92748 0.48918 0.26046 0.0
C1536 C 0.44612 0.87064 0.5108 0.0
C1537 C 0.47778 0.88516 0.49805 0.0
C1538 C 0.43566 0.86868 0.55548 0.0
C1539 C 0.45675 0.88288 0.5916 0.0
C1540 C 0.48887 0.89717 0.57918 0.0
C1541 C 0.49866 0.89768 0.53412 0.0
C1542 C 0.40124 0.85004 0.5629 0.0
C1543 C 0.51346 0.91286 0.61386 0.0
C1544 C 0.42162 0.9006 0.6995 0.0
C1545 C 0.42532 0.8836 0.73413 0.0
C1546 C 0.43144 0.90058 0.65472 0.0
C1547 C 0.44559 0.88276 0.64107 0.0
C1548 C 0.44802 0.86443 0.67566 0.0
C1549 C 0.43878 0.8656 0.7203 0.0
C1550 C 0.42652 0.92012 0.62159 0.0
C1551 C 0.45938 0.84201 0.66636 0.0
H1552 H 0.42873 0.86005 0.48533 0.0
H1553 H 0.52315 0.90882 0.52706 0.0
H1554 H 0.39482 0.84627 0.59791 0.0
H1555 H 0.38993 0.86196 0.5472 0.0
H1556 H 0.39171 0.82701 0.54671 0.0
H1557 H 0.5372 0.92295 0.60055 0.0
H1558 H 0.51087 0.93151 0.62988 0.0
H1559 H 0.5108 0.89602 0.6394 0.0
H1560 H 0.41148 0.91483 0.70755 0.0
H1561 H 0.44195 0.85167 0.74471 0.0
H1562 H 0.40797 0.90485 0.59846 0.0
H1563 H 0.44795 0.93415 0.60243 0.0
H1564 H 0.41936 0.93581 0.63693 0.0
H1565 H 0.44284 0.81886 0.67993 0.0
H1566 H 0.48181 0.85 0.68339 0.0
H1567 H 0.4623 0.83922 0.63105 0.0
C1568 C 0.55456 0.43266 0.84689 0.0
C1569 C 0.57005 0.46414 0.83263 0.0
C1570 C 0.54629 0.423 0.89212 0.0
C1571 C 0.55142 0.44458 0.92726 0.0
C1572 C 0.56702 0.47656 0.91282 0.0
C1573 C 0.57645 0.48552 0.86763 0.0
C1574 C 0.53213 0.38883 0.90137 0.0
C1575 C 0.57343 0.50249 0.94432 0.0
C1576 C 0.50098 0.40614 1.0372 0.0
C1577 C 0.52261 0.41558 1.07236 0.0
C1578 C 0.50948 0.41489 0.99169 0.0
C1579 C 0.54123 0.43405 0.97755 0.0
C1580 C 0.56316 0.44267 1.01308 0.0
C1581 C 0.55385 0.43403 1.05826 0.0
C1582 C 0.48325 0.40299 0.95919 0.0
C1583 C 0.5974 0.46105 1.00414 0.0
H1584 H 0.54902 0.41489 0.8223 0.0
H1585 H 0.58835 0.50995 0.8596 0.0
H1586 H 0.54338 0.37862 0.88126 0.0
H1587 H 0.53408 0.38401 0.93623 0.0
H1588 H 0.50731 0.37683 0.89186 0.0
H1589 H 0.59881 0.51711 0.9492 0.0
H1590 H 0.56524 0.51769 0.93017 0.0
H1591 H 0.56227 0.49424 0.97648 0.0
H1592 H 0.47668 0.39202 1.04519 0.0
H1593 H 0.57177 0.44194 1.08306 0.0
H1594 H 0.49002 0.41565 0.92793 0.0
H1595 H 0.46342 0.4045 0.97282 0.0
H1596 H 0.47487 0.37805 0.95268 0.0
H1597 H 0.60306 0.4578 0.97021 0.0
H1598 H 0.61042 0.45438 1.02702 0.0
H1599 H 0.60567 0.48607 1.00963 0.0
C1600 C 0.11663 0.5619 0.38432 0.0
C1601 C 0.10852 0.53103 0.396 0.0
C1602 C 0.11817 0.57247 0.33968 0.0
C1603 C 0.11048 0.55208 0.30232 0.0
C1604 C 0.10321 0.52093 0.31409 0.0
C1605 C 0.10219 0.5112 0.35919 0.0
C1606 C 0.12865 0.60638 0.33343 0.0
C1607 C 0.09486 0.49625 0.27966 0.0
C1608 C 0.08926 0.5844 0.19361 0.0
C1609 C 0.10785 0.58311 0.15926 0.0
C1610 C 0.08923 0.57404 0.2382 0.0
C1611 C 0.10978 0.56314 0.25274 0.0
C1612 C 0.12979 0.56345 0.21848 0.0
C1613 C 0.12783 0.57206 0.17363 0.0
C1614 C 0.06547 0.57383 0.26881 0.0
C1615 C 0.15428 0.55496 0.22833 0.0
H1616 H 0.12186 0.57846 0.41063 0.0
H1617 H 0.09581 0.48729 0.36547 0.0
H1618 H 0.13832 0.61473 0.30043 0.0
H1619 H 0.10871 0.61011 0.33843 0.0
H1620 H 0.14653 0.62081 0.35811 0.0
H1621 H 0.11426 0.49145 0.27631 0.0
H1622 H 0.07422 0.47422 0.2899 0.0
H1623 H 0.09 0.50281 0.24742 0.0
H1624 H 0.07345 0.59261 0.1854 0.0
H1625 H 0.1429 0.57057 0.1495 0.0
H1626 H 0.06979 0.59787 0.2731 0.0
H1627 H 0.06488 0.56378 0.30122 0.0
H1628 H 0.04212 0.55994 0.25423 0.0
H1629 H 0.17575 0.57015 0.20987 0.0
H1630 H 0.14598 0.53077 0.21727 0.0
H1631 H 0.16018 0.5569 0.26359 0.0
loop_
_geom_bond_atom_site_label_1
_geom_bond_atom_site_label_2
_geom_bond_distance
_geom_bond_site_symmetry_2
_ccdc_geom_bond_type
Dy0 O3 2.307 . S
Dy0 O5 2.395 . S
Dy0 O6 2.379 . S
Dy0 O8 2.339 . S
Dy0 O10 2.298 . S
Dy0 O14 2.275 . S
Dy0 C22 2.738 . S
Dy1 O4 2.298 . S
Dy1 O7 2.275 . S
Dy1 O9 2.307 . S
Dy1 O11 2.395 . S
Dy1 O12 2.379 . S
Dy1 O15 2.339 . S
Dy1 C31 2.738 . S
C2 O14 1.254 . S
C2 O15 1.257 . S
O3 Dy0 2.307 . S
O3 C13 1.266 . S
O4 Dy1 2.298 . S
O4 C13 1.236 . S
O5 Dy0 2.395 . S
O5 C22 1.255 . S
O6 Dy0 2.379 . S
O6 C22 1.249 . S
O7 Dy1 2.275 . S
O7 C23 1.254 . S
O8 Dy0 2.339 . S
O8 C23 1.257 . S
O9 Dy1 2.307 . S
O9 C24 1.266 . S
O10 Dy0 2.298 . S
O10 C24 1.236 . S
O11 Dy1 2.395 . S
O11 C31 1.255 . S
O12 Dy1 2.379 . S
O12 C31 1.249 . S
C13 O3 1.266 . S
C13 O4 1.236 . S
O14 Dy0 2.275 . S
O14 C2 1.254 . S
O15 Dy1 2.339 . S
O15 C2 1.257 . S
C16 C19 1.344 . S
C16 C20 1.328 . S
C16 C22 1.516 . S
C17 C18 1.304 . S
C17 C21 1.323 . S
C18 C17 1.304 . S
C18 C19 1.371 . S
C18 H32 0.930 . S
C19 C16 1.344 . S
C19 C18 1.371 . S
C19 H33 0.931 . S
C20 C16 1.328 . S
C20 C21 1.433 . S
C20 H34 0.931 . S
C21 C17 1.323 . S
C21 C20 1.433 . S
C21 H35 0.933 . S
C22 Dy0 2.738 . S
C22 O5 1.255 . S
C22 O6 1.249 . S
C22 C16 1.516 . S
C23 O7 1.254 . S
C23 O8 1.257 . S
C24 O9 1.266 . S
C24 O10 1.236 . S
C25 C28 1.344 . S
C25 C29 1.328 . S
C25 C31 1.516 . S
C26 C27 1.304 . S
C26 C30 1.323 . S
C27 C26 1.304 . S
C27 C28 1.371 . S
C27 H36 0.930 . S
C28 C25 1.344 . S
C28 C27 1.371 . S
C28 H37 0.931 . S
C29 C25 1.328 . S
C29 C30 1.433 . S
C29 H38 0.931 . S
C30 C26 1.323 . S
C30 C29 1.433 . S
C30 H39 0.933 . S
C31 Dy1 2.738 . S
C31 O11 1.255 . S
C31 O12 1.249 . S
C31 C25 1.516 . S
H32 C18 0.930 . S
H33 C19 0.931 . S
H34 C20 0.931 . S
H35 C21 0.933 . S
H36 C27 0.930 . S
H37 C28 0.931 . S
H38 C29 0.931 . S
H39 C30 0.933 . S
Dy40 O43 2.307 . S
Dy40 O45 2.395 . S
Dy40 O46 2.379 . S
Dy40 O48 2.339 . S
Dy40 O50 2.298 . S
Dy40 O54 2.275 . S
Dy40 C62 2.738 . S
Dy41 O44 2.298 . S
Dy41 O47 2.275 . S
Dy41 O49 2.307 . S
Dy41 O51 2.395 . S
Dy41 O52 2.379 . S
Dy41 O55 2.339 . S
Dy41 C71 2.738 . S
C42 O54 1.254 . S
C42 O55 1.257 . S
O43 Dy40 2.307 . S
O43 C53 1.266 . S
O44 Dy41 2.298 . S
O44 C53 1.236 . S
O45 Dy40 2.395 . S
O45 C62 1.255 . S
O46 Dy40 2.379 . S
O46 C62 1.249 . S
O47 Dy41 2.275 . S
O47 C63 1.254 . S
O48 Dy40 2.339 . S
O48 C63 1.257 . S
O49 Dy41 2.307 . S
O49 C64 1.266 . S
O50 Dy40 2.298 . S
O50 C64 1.236 . S
O51 Dy41 2.395 . S
O51 C71 1.255 . S
O52 Dy41 2.379 . S
O52 C71 1.249 . S
C53 O43 1.266 . S
C53 O44 1.236 . S
O54 Dy40 2.275 . S
O54 C42 1.254 . S
O55 Dy41 2.339 . S
O55 C42 1.257 . S
C56 C59 1.344 . S
C56 C60 1.328 . S
C56 C62 1.516 . S
C57 C58 1.304 . S
C57 C61 1.323 . S
C58 C57 1.304 . S
C58 C59 1.371 . S
C58 H72 0.930 . S
C59 C56 1.344 . S
C59 C58 1.371 . S
C59 H73 0.931 . S
C60 C56 1.328 . S
C60 C61 1.433 . S
C60 H74 0.931 . S
C61 C57 1.323 . S
C61 C60 1.433 . S
C61 H75 0.933 . S
C62 Dy40 2.738 . S
C62 O45 1.255 . S
C62 O46 1.249 . S
C62 C56 1.516 . S
C63 O47 1.254 . S
C63 O48 1.257 . S
C64 O49 1.266 . S
C64 O50 1.236 . S
C65 C68 1.344 . S
C65 C69 1.328 . S
C65 C71 1.516 . S
C66 C67 1.304 . S
C66 C70 1.323 . S
C67 C66 1.304 . S
C67 C68 1.371 . S
C67 H76 0.930 . S
C68 C65 1.344 . S
C68 C67 1.371 . S
C68 H77 0.931 . S
C69 C65 1.328 . S
C69 C70 1.433 . S
C69 H78 0.931 . S
C70 C66 1.323 . S
C70 C69 1.433 . S
C70 H79 0.933 . S
C71 Dy41 2.738 . S
C71 O51 1.255 . S
C71 O52 1.249 . S
C71 C65 1.516 . S
H72 C58 0.930 . S
H73 C59 0.931 . S
H74 C60 0.931 . S
H75 C61 0.933 . S
H76 C67 0.930 . S
H77 C68 0.931 . S
H78 C69 0.931 . S
H79 C70 0.933 . S
Dy80 O83 2.307 . S
Dy80 O85 2.395 . S
Dy80 O86 2.379 . S
Dy80 O88 2.339 . S
Dy80 O90 2.298 . S
Dy80 O94 2.275 . S
Dy80 C102 2.738 . S
Dy81 O84 2.298 . S
Dy81 O87 2.275 . S
Dy81 O89 2.307 . S
Dy81 O91 2.395 . S
Dy81 O92 2.379 . S
Dy81 O95 2.339 . S
Dy81 C111 2.738 1_556 S
C82 O94 1.254 . S
C82 O95 1.257 . S
O83 Dy80 2.307 . S
O83 C93 1.266 . S
O84 Dy81 2.298 . S
O84 C93 1.236 . S
O85 Dy80 2.395 . S
O85 C102 1.255 . S
O86 Dy80 2.379 . S
O86 C102 1.249 . S
O87 Dy81 2.275 . S
O87 C103 1.254 . S
O88 Dy80 2.339 . S
O88 C103 1.257 . S
O89 Dy81 2.307 . S
O89 C104 1.266 . S
O90 Dy80 2.298 . S
O90 C104 1.236 . S
O91 Dy81 2.395 . S
O91 C111 1.255 1_556 S
O92 Dy81 2.379 . S
O92 C111 1.249 1_556 S
C93 O83 1.266 . S
C93 O84 1.236 . S
O94 Dy80 2.275 . S
O94 C82 1.254 . S
O95 Dy81 2.339 . S
O95 C82 1.257 . S
C96 C99 1.344 . S
C96 C100 1.328 . S
C96 C102 1.516 . S
C97 C98 1.304 . S
C97 C101 1.323 . S
C98 C97 1.304 . S
C98 C99 1.371 . S
C98 H112 0.930 . S
C99 C96 1.344 . S
C99 C98 1.371 . S
C99 H113 0.931 . S
C100 C96 1.328 . S
C100 C101 1.433 . S
C100 H114 0.931 . S
C101 C97 1.323 . S
C101 C100 1.433 . S
C101 H115 0.933 . S
C102 Dy80 2.738 . S
C102 O85 1.255 . S
C102 O86 1.249 . S
C102 C96 1.516 . S
C103 O87 1.254 . S
C103 O88 1.257 . S
C104 O89 1.266 . S
C104 O90 1.236 . S
C105 C108 1.344 . S
C105 C109 1.328 . S
C105 C111 1.516 . S
C106 C107 1.304 . S
C106 C110 1.323 . S
C107 C106 1.304 . S
C107 C108 1.371 . S
C107 H116 0.930 . S
C108 C105 1.344 . S
C108 C107 1.371 . S
C108 H117 0.931 . S
C109 C105 1.328 . S
C109 C110 1.433 . S
C109 H118 0.931 . S
C110 C106 1.323 . S
C110 C109 1.433 . S
C110 H119 0.933 . S
C111 Dy81 2.738 1_554 S
C111 O91 1.255 1_554 S
C111 O92 1.249 1_554 S
C111 C105 1.516 . S
H112 C98 0.930 . S
H113 C99 0.931 . S
H114 C100 0.931 . S
H115 C101 0.933 . S
H116 C107 0.930 . S
H117 C108 0.931 . S
H118 C109 0.931 . S
H119 C110 0.933 . S
Dy120 O123 2.307 . S
Dy120 O125 2.395 . S
Dy120 O126 2.379 . S
Dy120 O128 2.339 . S
Dy120 O130 2.298 . S
Dy120 O134 2.275 . S
Dy120 C142 2.738 . S
Dy121 O124 2.298 . S
Dy121 O127 2.275 . S
Dy121 O129 2.307 . S
Dy121 O131 2.395 . S
Dy121 O132 2.379 . S
Dy121 O135 2.339 . S
Dy121 C151 2.738 . S
C122 O134 1.254 . S
C122 O135 1.257 . S
O123 Dy120 2.307 . S
O123 C133 1.266 . S
O124 Dy121 2.298 . S
O124 C133 1.236 . S
O125 Dy120 2.395 . S
O125 C142 1.255 . S
O126 Dy120 2.379 . S
O126 C142 1.249 . S
O127 Dy121 2.275 . S
O127 C143 1.254 . S
O128 Dy120 2.339 . S
O128 C143 1.257 . S
O129 Dy121 2.307 . S
O129 C144 1.266 . S
O130 Dy120 2.298 . S
O130 C144 1.236 . S
O131 Dy121 2.395 . S
O131 C151 1.255 . S
O132 Dy121 2.379 . S
O132 C151 1.249 . S
C133 O123 1.266 . S
C133 O124 1.236 . S
O134 Dy120 2.275 . S
O134 C122 1.254 . S
O135 Dy121 2.339 . S
O135 C122 1.257 . S
C136 C139 1.344 . S
C136 C140 1.328 . S
C136 C142 1.516 . S
C137 C138 1.304 . S
C137 C141 1.323 . S
C138 C137 1.304 . S
C138 C139 1.371 . S
C138 H152 0.930 . S
C139 C136 1.344 . S
C139 C138 1.371 . S
C139 H153 0.931 . S
C140 C136 1.328 . S
C140 C141 1.433 . S
C140 H154 0.931 . S
C141 C137 1.323 . S
C141 C140 1.433 . S
C141 H155 0.933 . S
C142 Dy120 2.738 . S
C142 O125 1.255 . S
C142 O126 1.249 . S
C142 C136 1.516 . S
C143 O127 1.254 . S
C143 O128 1.257 . S
C144 O129 1.266 . S
C144 O130 1.236 . S
C145 C148 1.344 . S
C145 C149 1.328 . S
C145 C151 1.516 . S
C146 C147 1.304 . S
C146 C150 1.323 . S
C147 C146 1.304 . S
C147 C148 1.371 . S
C147 H156 0.930 . S
C148 C145 1.344 . S
C148 C147 1.371 . S
C148 H157 0.931 . S
C149 C145 1.328 . S
C149 C150 1.433 . S
C149 H158 0.931 . S
C150 C146 1.323 . S
C150 C149 1.433 . S
C150 H159 0.933 . S
C151 Dy121 2.738 . S
C151 O131 1.255 . S
C151 O132 1.249 . S
C151 C145 1.516 . S
H152 C138 0.930 . S
H153 C139 0.931 . S
H154 C140 0.931 . S
H155 C141 0.933 . S
H156 C147 0.930 . S
H157 C148 0.931 . S
H158 C149 0.931 . S
H159 C150 0.933 . S
Dy160 O163 2.307 . S
Dy160 O165 2.395 . S
Dy160 O166 2.379 . S
Dy160 O168 2.339 . S
Dy160 O170 2.298 . S
Dy160 O174 2.275 . S
Dy160 C182 2.738 . S
Dy161 O164 2.298 . S
Dy161 O167 2.275 . S
Dy161 O169 2.307 . S
Dy161 O171 2.395 . S
Dy161 O172 2.379 . S
Dy161 O175 2.339 . S
Dy161 C191 2.738 . S
C162 O174 1.254 . S
C162 O175 1.257 . S
O163 Dy160 2.307 . S
O163 C173 1.266 . S
O164 Dy161 2.298 . S
O164 C173 1.236 . S
O165 Dy160 2.395 . S
O165 C182 1.255 . S
O166 Dy160 2.379 . S
O166 C182 1.249 . S
O167 Dy161 2.275 . S
O167 C183 1.254 . S
O168 Dy160 2.339 . S
O168 C183 1.257 . S
O169 Dy161 2.307 . S
O169 C184 1.266 . S
O170 Dy160 2.298 . S
O170 C184 1.236 . S
O171 Dy161 2.395 . S
O171 C191 1.255 . S
O172 Dy161 2.379 . S
O172 C191 1.249 . S
C173 O163 1.266 . S
C173 O164 1.236 . S
O174 Dy160 2.275 . S
O174 C162 1.254 . S
O175 Dy161 2.339 . S
O175 C162 1.257 . S
C176 C179 1.344 . S
C176 C180 1.328 . S
C176 C182 1.516 . S
C177 C178 1.304 . S
C177 C181 1.323 . S
C178 C177 1.304 . S
C178 C179 1.371 . S
C178 H192 0.930 . S
C179 C176 1.344 . S
C179 C178 1.371 . S
C179 H193 0.931 . S
C180 C176 1.328 . S
C180 C181 1.433 . S
C180 H194 0.931 . S
C181 C177 1.323 . S
C181 C180 1.433 . S
C181 H195 0.933 . S
C182 Dy160 2.738 . S
C182 O165 1.255 . S
C182 O166 1.249 . S
C182 C176 1.516 . S
C183 O167 1.254 . S
C183 O168 1.257 . S
C184 O169 1.266 . S
C184 O170 1.236 . S
C185 C188 1.344 . S
C185 C189 1.328 . S
C185 C191 1.516 . S
C186 C187 1.304 . S
C186 C190 1.323 . S
C187 C186 1.304 . S
C187 C188 1.371 . S
C187 H196 0.930 . S
C188 C185 1.344 . S
C188 C187 1.371 . S
C188 H197 0.931 . S
C189 C185 1.328 . S
C189 C190 1.433 . S
C189 H198 0.931 . S
C190 C186 1.323 . S
C190 C189 1.433 . S
C190 H199 0.933 . S
C191 Dy161 2.738 . S
C191 O171 1.255 . S
C191 O172 1.249 . S
C191 C185 1.516 . S
H192 C178 0.930 . S
H193 C179 0.931 . S
H194 C180 0.931 . S
H195 C181 0.933 . S
H196 C187 0.930 . S
H197 C188 0.931 . S
H198 C189 0.931 . S
H199 C190 0.933 . S
Dy200 O203 2.307 . S
Dy200 O205 2.395 . S
Dy200 O206 2.379 . S
Dy200 O208 2.339 . S
Dy200 O210 2.298 . S
Dy200 O214 2.275 . S
Dy200 C222 2.738 . S
Dy201 O204 2.298 . S
Dy201 O207 2.275 . S
Dy201 O209 2.307 . S
Dy201 O211 2.395 . S
Dy201 O212 2.379 . S
Dy201 O215 2.339 . S
Dy201 C231 2.738 1_556 S
C202 O214 1.254 . S
C202 O215 1.257 . S
O203 Dy200 2.307 . S
O203 C213 1.266 . S
O204 Dy201 2.298 . S
O204 C213 1.236 . S
O205 Dy200 2.395 . S
O205 C222 1.255 . S
O206 Dy200 2.379 . S
O206 C222 1.249 . S
O207 Dy201 2.275 . S
O207 C223 1.254 . S
O208 Dy200 2.339 . S
O208 C223 1.257 . S
O209 Dy201 2.307 . S
O209 C224 1.266 . S
O210 Dy200 2.298 . S
O210 C224 1.236 . S
O211 Dy201 2.395 . S
O211 C231 1.255 1_556 S
O212 Dy201 2.379 . S
O212 C231 1.249 1_556 S
C213 O203 1.266 . S
C213 O204 1.236 . S
O214 Dy200 2.275 . S
O214 C202 1.254 . S
O215 Dy201 2.339 . S
O215 C202 1.257 . S
C216 C219 1.344 . S
C216 C220 1.328 . S
C216 C222 1.516 . S
C217 C218 1.304 . S
C217 C221 1.323 . S
C218 C217 1.304 . S
C218 C219 1.371 . S
C218 H232 0.930 . S
C219 C216 1.344 . S
C219 C218 1.371 . S
C219 H233 0.931 . S
C220 C216 1.328 . S
C220 C221 1.433 . S
C220 H234 0.931 . S
C221 C217 1.323 . S
C221 C220 1.433 . S
C221 H235 0.933 . S
C222 Dy200 2.738 . S
C222 O205 1.255 . S
C222 O206 1.249 . S
C222 C216 1.516 . S
C223 O207 1.254 . S
C223 O208 1.257 . S
C224 O209 1.266 . S
C224 O210 1.236 . S
C225 C228 1.344 . S
C225 C229 1.328 . S
C225 C231 1.516 . S
C226 C227 1.304 . S
C226 C230 1.323 . S
C227 C226 1.304 . S
C227 C228 1.371 . S
C227 H236 0.930 . S
C228 C225 1.344 . S
C228 C227 1.371 . S
C228 H237 0.931 . S
C229 C225 1.328 . S
C229 C230 1.433 . S
C229 H238 0.931 . S
C230 C226 1.323 . S
C230 C229 1.433 . S
C230 H239 0.933 . S
C231 Dy201 2.738 1_554 S
C231 O211 1.255 1_554 S
C231 O212 1.249 1_554 S
C231 C225 1.516 . S
H232 C218 0.930 . S
H233 C219 0.931 . S
H234 C220 0.931 . S
H235 C221 0.933 . S
H236 C227 0.930 . S
H237 C228 0.931 . S
H238 C229 0.931 . S
H239 C230 0.933 . S
Dy240 O243 2.307 . S
Dy240 O245 2.395 . S
Dy240 O246 2.379 . S
Dy240 O248 2.339 . S
Dy240 O250 2.298 . S
Dy240 O254 2.275 . S
Dy240 C262 2.738 . S
Dy241 O244 2.298 . S
Dy241 O247 2.275 . S
Dy241 O249 2.307 . S
Dy241 O251 2.395 . S
Dy241 O252 2.379 . S
Dy241 O255 2.339 . S
Dy241 C271 2.738 . S
C242 O254 1.254 . S
C242 O255 1.257 . S
O243 Dy240 2.307 . S
O243 C253 1.266 . S
O244 Dy241 2.298 . S
O244 C253 1.236 . S
O245 Dy240 2.395 . S
O245 C262 1.255 . S
O246 Dy240 2.379 . S
O246 C262 1.249 . S
O247 Dy241 2.275 . S
O247 C263 1.254 . S
O248 Dy240 2.339 . S
O248 C263 1.257 . S
O249 Dy241 2.307 . S
O249 C264 1.266 . S
O250 Dy240 2.298 . S
O250 C264 1.236 . S
O251 Dy241 2.395 . S
O251 C271 1.255 . S
O252 Dy241 2.379 . S
O252 C271 1.249 . S
C253 O243 1.266 . S
C253 O244 1.236 . S
O254 Dy240 2.275 . S
O254 C242 1.254 . S
O255 Dy241 2.339 . S
O255 C242 1.257 . S
C256 C259 1.344 . S
C256 C260 1.328 . S
C256 C262 1.516 . S
C257 C258 1.304 . S
C257 C261 1.323 . S
C258 C257 1.304 . S
C258 C259 1.371 . S
C258 H272 0.930 . S
C259 C256 1.344 . S
C259 C258 1.371 . S
C259 H273 0.931 . S
C260 C256 1.328 . S
C260 C261 1.433 . S
C260 H274 0.931 . S
C261 C257 1.323 . S
C261 C260 1.433 . S
C261 H275 0.933 . S
C262 Dy240 2.738 . S
C262 O245 1.255 . S
C262 O246 1.249 . S
C262 C256 1.516 . S
C263 O247 1.254 . S
C263 O248 1.257 . S
C264 O249 1.266 . S
C264 O250 1.236 . S
C265 C268 1.344 . S
C265 C269 1.328 . S
C265 C271 1.516 . S
C266 C267 1.304 . S
C266 C270 1.323 . S
C267 C266 1.304 . S
C267 C268 1.371 . S
C267 H276 0.930 . S
C268 C265 1.344 . S
C268 C267 1.371 . S
C268 H277 0.931 . S
C269 C265 1.328 . S
C269 C270 1.433 . S
C269 H278 0.931 . S
C270 C266 1.323 . S
C270 C269 1.433 . S
C270 H279 0.933 . S
C271 Dy241 2.738 . S
C271 O251 1.255 . S
C271 O252 1.249 . S
C271 C265 1.516 . S
H272 C258 0.930 . S
H273 C259 0.931 . S
H274 C260 0.931 . S
H275 C261 0.933 . S
H276 C267 0.930 . S
H277 C268 0.931 . S
H278 C269 0.931 . S
H279 C270 0.933 . S
Dy280 O283 2.307 . S
Dy280 O285 2.395 . S
Dy280 O286 2.379 . S
Dy280 O288 2.339 . S
Dy280 O290 2.298 . S
Dy280 O294 2.275 . S
Dy280 C302 2.738 . S
Dy281 O284 2.298 . S
Dy281 O287 2.275 . S
Dy281 O289 2.307 . S
Dy281 O291 2.395 . S
Dy281 O292 2.379 . S
Dy281 O295 2.339 . S
Dy281 C311 2.738 . S
C282 O294 1.254 . S
C282 O295 1.257 . S
O283 Dy280 2.307 . S
O283 C293 1.266 . S
O284 Dy281 2.298 . S
O284 C293 1.236 . S
O285 Dy280 2.395 . S
O285 C302 1.255 . S
O286 Dy280 2.379 . S
O286 C302 1.249 . S
O287 Dy281 2.275 . S
O287 C303 1.254 . S
O288 Dy280 2.339 . S
O288 C303 1.257 . S
O289 Dy281 2.307 . S
O289 C304 1.266 . S
O290 Dy280 2.298 . S
O290 C304 1.236 . S
O291 Dy281 2.395 . S
O291 C311 1.255 . S
O292 Dy281 2.379 . S
O292 C311 1.249 . S
C293 O283 1.266 . S
C293 O284 1.236 . S
O294 Dy280 2.275 . S
O294 C282 1.254 . S
O295 Dy281 2.339 . S
O295 C282 1.257 . S
C296 C299 1.344 . S
C296 C300 1.328 . S
C296 C302 1.516 . S
C297 C298 1.304 . S
C297 C301 1.323 . S
C298 C297 1.304 . S
C298 C299 1.371 . S
C298 H312 0.930 . S
C299 C296 1.344 . S
C299 C298 1.371 . S
C299 H313 0.931 . S
C300 C296 1.328 . S
C300 C301 1.433 . S
C300 H314 0.931 . S
C301 C297 1.323 . S
C301 C300 1.433 . S
C301 H315 0.933 . S
C302 Dy280 2.738 . S
C302 O285 1.255 . S
C302 O286 1.249 . S
C302 C296 1.516 . S
C303 O287 1.254 . S
C303 O288 1.257 . S
C304 O289 1.266 . S
C304 O290 1.236 . S
C305 C308 1.344 . S
C305 C309 1.328 . S
C305 C311 1.516 . S
C306 C307 1.304 . S
C306 C310 1.323 . S
C307 C306 1.304 . S
C307 C308 1.371 . S
C307 H316 0.930 . S
C308 C305 1.344 . S
C308 C307 1.371 . S
C308 H317 0.931 . S
C309 C305 1.328 . S
C309 C310 1.433 . S
C309 H318 0.931 . S
C310 C306 1.323 . S
C310 C309 1.433 . S
C310 H319 0.933 . S
C311 Dy281 2.738 . S
C311 O291 1.255 . S
C311 O292 1.249 . S
C311 C305 1.516 . S
H312 C298 0.930 . S
H313 C299 0.931 . S
H314 C300 0.931 . S
H315 C301 0.933 . S
H316 C307 0.930 . S
H317 C308 0.931 . S
H318 C309 0.931 . S
H319 C310 0.933 . S
Dy320 O323 2.307 . S
Dy320 O325 2.395 . S
Dy320 O326 2.379 . S
Dy320 O328 2.339 . S
Dy320 O330 2.298 . S
Dy320 O334 2.275 . S
Dy320 C342 2.738 . S
Dy321 O324 2.298 . S
Dy321 O327 2.275 . S
Dy321 O329 2.307 . S
Dy321 O331 2.395 . S
Dy321 O332 2.379 . S
Dy321 O335 2.339 . S
Dy321 C351 2.738 1_554 S
C322 O334 1.254 . S
C322 O335 1.257 . S
O323 Dy320 2.307 . S
O323 C333 1.266 . S
O324 Dy321 2.298 . S
O324 C333 1.236 . S
O325 Dy320 2.395 . S
O325 C342 1.255 . S
O326 Dy320 2.379 . S
O326 C342 1.249 . S
O327 Dy321 2.275 . S
O327 C343 1.254 . S
O328 Dy320 2.339 . S
O328 C343 1.257 . S
O329 Dy321 2.307 . S
O329 C344 1.266 . S
O330 Dy320 2.298 . S
O330 C344 1.236 . S
O331 Dy321 2.395 . S
O331 C351 1.255 1_554 S
O332 Dy321 2.379 . S
O332 C351 1.249 1_554 S
C333 O323 1.266 . S
C333 O324 1.236 . S
O334 Dy320 2.275 . S
O334 C322 1.254 . S
O335 Dy321 2.339 . S
O335 C322 1.257 . S
C336 C339 1.344 . S
C336 C340 1.328 . S
C336 C342 1.516 . S
C337 C338 1.304 . S
C337 C341 1.323 . S
C338 C337 1.304 . S
C338 C339 1.371 . S
C338 H352 0.930 . S
C339 C336 1.344 . S
C339 C338 1.371 . S
C339 H353 0.931 . S
C340 C336 1.328 . S
C340 C341 1.433 . S
C340 H354 0.931 . S
C341 C337 1.323 . S
C341 C340 1.433 . S
C341 H355 0.933 . S
C342 Dy320 2.738 . S
C342 O325 1.255 . S
C342 O326 1.249 . S
C342 C336 1.516 . S
C343 O327 1.254 . S
C343 O328 1.257 . S
C344 O329 1.266 . S
C344 O330 1.236 . S
C345 C348 1.344 . S
C345 C349 1.328 . S
C345 C351 1.516 . S
C346 C347 1.304 . S
C346 C350 1.323 . S
C347 C346 1.304 . S
C347 C348 1.371 . S
C347 H356 0.930 . S
C348 C345 1.344 . S
C348 C347 1.371 . S
C348 H357 0.931 . S
C349 C345 1.328 . S
C349 C350 1.433 . S
C349 H358 0.931 . S
C350 C346 1.323 . S
C350 C349 1.433 . S
C350 H359 0.933 . S
C351 Dy321 2.738 1_556 S
C351 O331 1.255 1_556 S
C351 O332 1.249 1_556 S
C351 C345 1.516 . S
H352 C338 0.930 . S
H353 C339 0.931 . S
H354 C340 0.931 . S
H355 C341 0.933 . S
H356 C347 0.930 . S
H357 C348 0.931 . S
H358 C349 0.931 . S
H359 C350 0.933 . S
Dy360 O363 2.307 . S
Dy360 O365 2.395 . S
Dy360 O366 2.379 . S
Dy360 O368 2.339 . S
Dy360 O370 2.298 . S
Dy360 O374 2.275 . S
Dy360 C382 2.738 . S
Dy361 O364 2.298 . S
Dy361 O367 2.275 . S
Dy361 O369 2.307 . S
Dy361 O371 2.395 . S
Dy361 O372 2.379 . S
Dy361 O375 2.339 . S
Dy361 C391 2.738 . S
C362 O374 1.254 . S
C362 O375 1.257 . S
O363 Dy360 2.307 . S
O363 C373 1.266 . S
O364 Dy361 2.298 . S
O364 C373 1.236 . S
O365 Dy360 2.395 . S
O365 C382 1.255 . S
O366 Dy360 2.379 . S
O366 C382 1.249 . S
O367 Dy361 2.275 . S
O367 C383 1.254 . S
O368 Dy360 2.339 . S
O368 C383 1.257 . S
O369 Dy361 2.307 . S
O369 C384 1.266 . S
O370 Dy360 2.298 . S
O370 C384 1.236 . S
O371 Dy361 2.395 . S
O371 C391 1.255 . S
O372 Dy361 2.379 . S
O372 C391 1.249 . S
C373 O363 1.266 . S
C373 O364 1.236 . S
O374 Dy360 2.275 . S
O374 C362 1.254 . S
O375 Dy361 2.339 . S
O375 C362 1.257 . S
C376 C379 1.344 . S
C376 C380 1.328 . S
C376 C382 1.516 . S
C377 C378 1.304 . S
C377 C381 1.323 . S
C378 C377 1.304 . S
C378 C379 1.371 . S
C378 H392 0.930 . S
C379 C376 1.344 . S
C379 C378 1.371 . S
C379 H393 0.931 . S
C380 C376 1.328 . S
C380 C381 1.433 . S
C380 H394 0.931 . S
C381 C377 1.323 . S
C381 C380 1.433 . S
C381 H395 0.933 . S
C382 Dy360 2.738 . S
C382 O365 1.255 . S
C382 O366 1.249 . S
C382 C376 1.516 . S
C383 O367 1.254 . S
C383 O368 1.257 . S
C384 O369 1.266 . S
C384 O370 1.236 . S
C385 C388 1.344 . S
C385 C389 1.328 . S
C385 C391 1.516 . S
C386 C387 1.304 . S
C386 C390 1.323 . S
C387 C386 1.304 . S
C387 C388 1.371 . S
C387 H396 0.930 . S
C388 C385 1.344 . S
C388 C387 1.371 . S
C388 H397 0.931 . S
C389 C385 1.328 . S
C389 C390 1.433 . S
C389 H398 0.931 . S
C390 C386 1.323 . S
C390 C389 1.433 . S
C390 H399 0.933 . S
C391 Dy361 2.738 . S
C391 O371 1.255 . S
C391 O372 1.249 . S
C391 C385 1.516 . S
H392 C378 0.930 . S
H393 C379 0.931 . S
H394 C380 0.931 . S
H395 C381 0.933 . S
H396 C387 0.930 . S
H397 C388 0.931 . S
H398 C389 0.931 . S
H399 C390 0.933 . S
Dy400 O403 2.307 . S
Dy400 O405 2.395 . S
Dy400 O406 2.379 . S
Dy400 O408 2.339 . S
Dy400 O410 2.298 . S
Dy400 O414 2.275 . S
Dy400 C422 2.738 . S
Dy401 O404 2.298 . S
Dy401 O407 2.275 . S
Dy401 O409 2.307 . S
Dy401 O411 2.395 . S
Dy401 O412 2.379 . S
Dy401 O415 2.339 . S
Dy401 C431 2.738 . S
C402 O414 1.254 . S
C402 O415 1.257 . S
O403 Dy400 2.307 . S
O403 C413 1.266 . S
O404 Dy401 2.298 . S
O404 C413 1.236 . S
O405 Dy400 2.395 . S
O405 C422 1.255 . S
O406 Dy400 2.379 . S
O406 C422 1.249 . S
O407 Dy401 2.275 . S
O407 C423 1.254 . S
O408 Dy400 2.339 . S
O408 C423 1.257 . S
O409 Dy401 2.307 . S
O409 C424 1.266 . S
O410 Dy400 2.298 . S
O410 C424 1.236 . S
O411 Dy401 2.395 . S
O411 C431 1.255 . S
O412 Dy401 2.379 . S
O412 C431 1.249 . S
C413 O403 1.266 . S
C413 O404 1.236 . S
O414 Dy400 2.275 . S
O414 C402 1.254 . S
O415 Dy401 2.339 . S
O415 C402 1.257 . S
C416 C419 1.344 . S
C416 C420 1.328 . S
C416 C422 1.516 . S
C417 C418 1.304 . S
C417 C421 1.323 . S
C418 C417 1.304 . S
C418 C419 1.371 . S
C418 H432 0.930 . S
C419 C416 1.344 . S
C419 C418 1.371 . S
C419 H433 0.931 . S
C420 C416 1.328 . S
C420 C421 1.433 . S
C420 H434 0.931 . S
C421 C417 1.323 . S
C421 C420 1.433 . S
C421 H435 0.933 . S
C422 Dy400 2.738 . S
C422 O405 1.255 . S
C422 O406 1.249 . S
C422 C416 1.516 . S
C423 O407 1.254 . S
C423 O408 1.257 . S
C424 O409 1.266 . S
C424 O410 1.236 . S
C425 C428 1.344 . S
C425 C429 1.328 . S
C425 C431 1.516 . S
C426 C427 1.304 . S
C426 C430 1.323 . S
C427 C426 1.304 . S
C427 C428 1.371 . S
C427 H436 0.930 . S
C428 C425 1.344 . S
C428 C427 1.371 . S
C428 H437 0.931 . S
C429 C425 1.328 . S
C429 C430 1.433 . S
C429 H438 0.931 . S
C430 C426 1.323 . S
C430 C429 1.433 . S
C430 H439 0.933 . S
C431 Dy401 2.738 . S
C431 O411 1.255 . S
C431 O412 1.249 . S
C431 C425 1.516 . S
H432 C418 0.930 . S
H433 C419 0.931 . S
H434 C420 0.931 . S
H435 C421 0.933 . S
H436 C427 0.930 . S
H437 C428 0.931 . S
H438 C429 0.931 . S
H439 C430 0.933 . S
Dy440 O443 2.307 . S
Dy440 O445 2.395 . S
Dy440 O446 2.379 . S
Dy440 O448 2.339 . S
Dy440 O450 2.298 . S
Dy440 O454 2.275 . S
Dy440 C462 2.738 . S
Dy441 O444 2.298 . S
Dy441 O447 2.275 . S
Dy441 O449 2.307 . S
Dy441 O451 2.395 . S
Dy441 O452 2.379 . S
Dy441 O455 2.339 . S
Dy441 C471 2.738 1_554 S
C442 O454 1.254 . S
C442 O455 1.257 . S
O443 Dy440 2.307 . S
O443 C453 1.266 . S
O444 Dy441 2.298 . S
O444 C453 1.236 . S
O445 Dy440 2.395 . S
O445 C462 1.255 . S
O446 Dy440 2.379 . S
O446 C462 1.249 . S
O447 Dy441 2.275 . S
O447 C463 1.254 . S
O448 Dy440 2.339 . S
O448 C463 1.257 . S
O449 Dy441 2.307 . S
O449 C464 1.266 . S
O450 Dy440 2.298 . S
O450 C464 1.236 . S
O451 Dy441 2.395 . S
O451 C471 1.255 1_554 S
O452 Dy441 2.379 . S
O452 C471 1.249 1_554 S
C453 O443 1.266 . S
C453 O444 1.236 . S
O454 Dy440 2.275 . S
O454 C442 1.254 . S
O455 Dy441 2.339 . S
O455 C442 1.257 . S
C456 C459 1.344 . S
C456 C460 1.328 . S
C456 C462 1.516 . S
C457 C458 1.304 . S
C457 C461 1.323 . S
C458 C457 1.304 . S
C458 C459 1.371 . S
C458 H472 0.930 . S
C459 C456 1.344 . S
C459 C458 1.371 . S
C459 H473 0.931 . S
C460 C456 1.328 . S
C460 C461 1.433 . S
C460 H474 0.931 . S
C461 C457 1.323 . S
C461 C460 1.433 . S
C461 H475 0.933 . S
C462 Dy440 2.738 . S
C462 O445 1.255 . S
C462 O446 1.249 . S
C462 C456 1.516 . S
C463 O447 1.254 . S
C463 O448 1.257 . S
C464 O449 1.266 . S
C464 O450 1.236 . S
C465 C468 1.344 . S
C465 C469 1.328 . S
C465 C471 1.516 . S
C466 C467 1.304 . S
C466 C470 1.323 . S
C467 C466 1.304 . S
C467 C468 1.371 . S
C467 H476 0.930 . S
C468 C465 1.344 . S
C468 C467 1.371 . S
C468 H477 0.931 . S
C469 C465 1.328 . S
C469 C470 1.433 . S
C469 H478 0.931 . S
C470 C466 1.323 . S
C470 C469 1.433 . S
C470 H479 0.933 . S
C471 Dy441 2.738 1_556 S
C471 O451 1.255 1_556 S
C471 O452 1.249 1_556 S
C471 C465 1.516 . S
H472 C458 0.930 . S
H473 C459 0.931 . S
H474 C460 0.931 . S
H475 C461 0.933 . S
H476 C467 0.930 . S
H477 C468 0.931 . S
H478 C469 0.931 . S
H479 C470 0.933 . S
C480 C481 1.391 . S
C480 C482 1.394 . S
C480 H496 0.931 . S
C481 C480 1.391 . S
C481 C485 1.376 . S
C482 C480 1.394 . S
C482 C483 1.369 . S
C482 C486 1.531 . S
C483 C482 1.369 . S
C483 C484 1.410 . S
C483 C491 1.503 . S
C484 C483 1.410 . S
C484 C485 1.392 . S
C484 C487 1.511 . S
C485 C481 1.376 . S
C485 C484 1.392 . S
C485 H497 0.929 . S
C486 C482 1.531 . S
C486 H498 0.960 . S
C486 H499 0.962 . S
C486 H500 0.960 . S
C487 C484 1.511 . S
C487 H501 0.961 . S
C487 H502 0.961 . S
C487 H503 0.961 . S
C488 C489 1.370 . S
C488 C490 1.363 . S
C488 H504 0.931 . S
C489 C488 1.370 . S
C489 C493 1.408 . S
C490 C488 1.363 . S
C490 C491 1.370 . S
C490 C494 1.524 . S
C491 C483 1.503 . S
C491 C490 1.370 . S
C491 C492 1.403 . S
C492 C491 1.403 . S
C492 C493 1.404 . S
C492 C495 1.539 . S
C493 C489 1.408 . S
C493 C492 1.404 . S
C493 H505 0.930 . S
C494 C490 1.524 . S
C494 H506 0.956 . S
C494 H507 0.961 . S
C494 H508 0.961 . S
C495 C492 1.539 . S
C495 H509 0.958 . S
C495 H510 0.961 . S
C495 H511 0.960 . S
H496 C480 0.931 . S
H497 C485 0.929 . S
H498 C486 0.960 . S
H499 C486 0.962 . S
H500 C486 0.960 . S
H501 C487 0.961 . S
H502 C487 0.961 . S
H503 C487 0.961 . S
H504 C488 0.931 . S
H505 C493 0.930 . S
H506 C494 0.956 . S
H507 C494 0.961 . S
H508 C494 0.961 . S
H509 C495 0.958 . S
H510 C495 0.961 . S
H511 C495 0.960 . S
C512 C513 1.391 . S
C512 C514 1.394 . S
C512 H528 0.931 . S
C513 C512 1.391 . S
C513 C517 1.376 . S
C514 C512 1.394 . S
C514 C515 1.369 . S
C514 C518 1.531 . S
C515 C514 1.369 . S
C515 C516 1.410 . S
C515 C523 1.503 . S
C516 C515 1.410 . S
C516 C517 1.392 . S
C516 C519 1.511 . S
C517 C513 1.376 . S
C517 C516 1.392 . S
C517 H529 0.929 . S
C518 C514 1.531 . S
C518 H530 0.960 . S
C518 H531 0.962 . S
C518 H532 0.960 . S
C519 C516 1.511 . S
C519 H533 0.961 . S
C519 H534 0.961 . S
C519 H535 0.961 . S
C520 C521 1.370 . S
C520 C522 1.363 . S
C520 H536 0.931 . S
C521 C520 1.370 . S
C521 C525 1.408 . S
C522 C520 1.363 . S
C522 C523 1.370 . S
C522 C526 1.524 . S
C523 C515 1.503 . S
C523 C522 1.370 . S
C523 C524 1.403 . S
C524 C523 1.403 . S
C524 C525 1.404 . S
C524 C527 1.539 . S
C525 C521 1.408 . S
C525 C524 1.404 . S
C525 H537 0.930 . S
C526 C522 1.524 . S
C526 H538 0.956 . S
C526 H539 0.961 . S
C526 H540 0.961 . S
C527 C524 1.539 . S
C527 H541 0.958 . S
C527 H542 0.961 . S
C527 H543 0.960 . S
H528 C512 0.931 . S
H529 C517 0.929 . S
H530 C518 0.960 . S
H531 C518 0.962 . S
H532 C518 0.960 . S
H533 C519 0.961 . S
H534 C519 0.961 . S
H535 C519 0.961 . S
H536 C520 0.931 . S
H537 C525 0.930 . S
H538 C526 0.956 . S
H539 C526 0.961 . S
H540 C526 0.961 . S
H541 C527 0.958 . S
H542 C527 0.961 . S
H543 C527 0.960 . S
C544 C545 1.391 . S
C544 C546 1.394 . S
C544 H560 0.931 . S
C545 C544 1.391 . S
C545 C549 1.376 . S
C546 C544 1.394 . S
C546 C547 1.369 . S
C546 C550 1.531 . S
C547 C546 1.369 . S
C547 C548 1.410 . S
C547 C555 1.503 . S
C548 C547 1.410 . S
C548 C549 1.392 . S
C548 C551 1.511 . S
C549 C545 1.376 . S
C549 C548 1.392 . S
C549 H561 0.929 . S
C550 C546 1.531 . S
C550 H562 0.960 . S
C550 H563 0.962 . S
C550 H564 0.960 . S
C551 C548 1.511 . S
C551 H565 0.961 . S
C551 H566 0.961 . S
C551 H567 0.961 . S
C552 C553 1.370 . S
C552 C554 1.363 . S
C552 H568 0.931 . S
C553 C552 1.370 . S
C553 C557 1.408 . S
C554 C552 1.363 . S
C554 C555 1.370 . S
C554 C558 1.524 . S
C555 C547 1.503 . S
C555 C554 1.370 . S
C555 C556 1.403 . S
C556 C555 1.403 . S
C556 C557 1.404 . S
C556 C559 1.539 . S
C557 C553 1.408 . S
C557 C556 1.404 . S
C557 H569 0.930 . S
C558 C554 1.524 . S
C558 H570 0.956 . S
C558 H571 0.961 . S
C558 H572 0.961 . S
C559 C556 1.539 . S
C559 H573 0.958 . S
C559 H574 0.961 . S
C559 H575 0.960 . S
H560 C544 0.931 . S
H561 C549 0.929 . S
H562 C550 0.960 . S
H563 C550 0.962 . S
H564 C550 0.960 . S
H565 C551 0.961 . S
H566 C551 0.961 . S
H567 C551 0.961 . S
H568 C552 0.931 . S
H569 C557 0.930 . S
H570 C558 0.956 . S
H571 C558 0.961 . S
H572 C558 0.961 . S
H573 C559 0.958 . S
H574 C559 0.961 . S
H575 C559 0.960 . S
C576 C577 1.391 . S
C576 C578 1.394 . S
C576 H592 0.931 . S
C577 C576 1.391 . S
C577 C581 1.376 . S
C578 C576 1.394 . S
C578 C579 1.369 . S
C578 C582 1.531 . S
C579 C578 1.369 . S
C579 C580 1.410 . S
C579 C587 1.503 . S
C580 C579 1.410 . S
C580 C581 1.392 . S
C580 C583 1.511 . S
C581 C577 1.376 . S
C581 C580 1.392 . S
C581 H593 0.929 . S
C582 C578 1.531 . S
C582 H594 0.960 . S
C582 H595 0.962 . S
C582 H596 0.960 . S
C583 C580 1.511 . S
C583 H597 0.961 . S
C583 H598 0.961 . S
C583 H599 0.961 . S
C584 C585 1.370 . S
C584 C586 1.363 . S
C584 H600 0.931 . S
C585 C584 1.370 . S
C585 C589 1.408 . S
C586 C584 1.363 . S
C586 C587 1.370 . S
C586 C590 1.524 . S
C587 C579 1.503 . S
C587 C586 1.370 . S
C587 C588 1.403 . S
C588 C587 1.403 . S
C588 C589 1.404 . S
C588 C591 1.539 . S
C589 C585 1.408 . S
C589 C588 1.404 . S
C589 H601 0.930 . S
C590 C586 1.524 . S
C590 H602 0.956 . S
C590 H603 0.961 . S
C590 H604 0.961 . S
C591 C588 1.539 . S
C591 H605 0.958 . S
C591 H606 0.961 . S
C591 H607 0.960 . S
H592 C576 0.931 . S
H593 C581 0.929 . S
H594 C582 0.960 . S
H595 C582 0.962 . S
H596 C582 0.960 . S
H597 C583 0.961 . S
H598 C583 0.961 . S
H599 C583 0.961 . S
H600 C584 0.931 . S
H601 C589 0.930 . S
H602 C590 0.956 . S
H603 C590 0.961 . S
H604 C590 0.961 . S
H605 C591 0.958 . S
H606 C591 0.961 . S
H607 C591 0.960 . S
C608 C609 1.391 . S
C608 C610 1.394 . S
C608 H624 0.931 . S
C609 C608 1.391 . S
C609 C613 1.376 . S
C610 C608 1.394 . S
C610 C611 1.369 . S
C610 C614 1.531 . S
C611 C610 1.369 . S
C611 C612 1.410 . S
C611 C619 1.503 . S
C612 C611 1.410 . S
C612 C613 1.392 . S
C612 C615 1.511 . S
C613 C609 1.376 . S
C613 C612 1.392 . S
C613 H625 0.929 . S
C614 C610 1.531 . S
C614 H626 0.960 . S
C614 H627 0.962 . S
C614 H628 0.960 . S
C615 C612 1.511 . S
C615 H629 0.961 . S
C615 H630 0.961 . S
C615 H631 0.961 . S
C616 C617 1.370 . S
C616 C618 1.363 . S
C616 H632 0.931 . S
C617 C616 1.370 . S
C617 C621 1.408 . S
C618 C616 1.363 . S
C618 C619 1.370 . S
C618 C622 1.524 . S
C619 C611 1.503 . S
C619 C618 1.370 . S
C619 C620 1.403 . S
C620 C619 1.403 . S
C620 C621 1.404 . S
C620 C623 1.539 . S
C621 C617 1.408 . S
C621 C620 1.404 . S
C621 H633 0.930 . S
C622 C618 1.524 . S
C622 H634 0.956 . S
C622 H635 0.961 . S
C622 H636 0.961 . S
C623 C620 1.539 . S
C623 H637 0.958 . S
C623 H638 0.961 . S
C623 H639 0.960 . S
H624 C608 0.931 . S
H625 C613 0.929 . S
H626 C614 0.960 . S
H627 C614 0.962 . S
H628 C614 0.960 . S
H629 C615 0.961 . S
H630 C615 0.961 . S
H631 C615 0.961 . S
H632 C616 0.931 . S
H633 C621 0.930 . S
H634 C622 0.956 . S
H635 C622 0.961 . S
H636 C622 0.961 . S
H637 C623 0.958 . S
H638 C623 0.961 . S
H639 C623 0.960 . S
C640 C641 1.391 . S
C640 C642 1.394 . S
C640 H656 0.931 . S
C641 C640 1.391 . S
C641 C645 1.376 . S
C642 C640 1.394 . S
C642 C643 1.369 . S
C642 C646 1.531 . S
C643 C642 1.369 . S
C643 C644 1.410 . S
C643 C651 1.503 . S
C644 C643 1.410 . S
C644 C645 1.392 . S
C644 C647 1.511 . S
C645 C641 1.376 . S
C645 C644 1.392 . S
C645 H657 0.929 . S
C646 C642 1.531 . S
C646 H658 0.960 . S
C646 H659 0.962 . S
C646 H660 0.960 . S
C647 C644 1.511 . S
C647 H661 0.961 . S
C647 H662 0.961 . S
C647 H663 0.961 . S
C648 C649 1.370 . S
C648 C650 1.363 . S
C648 H664 0.931 . S
C649 C648 1.370 . S
C649 C653 1.408 . S
C650 C648 1.363 . S
C650 C651 1.370 . S
C650 C654 1.524 . S
C651 C643 1.503 . S
C651 C650 1.370 . S
C651 C652 1.403 . S
C652 C651 1.403 . S
C652 C653 1.404 . S
C652 C655 1.539 . S
C653 C649 1.408 . S
C653 C652 1.404 . S
C653 H665 0.930 . S
C654 C650 1.524 . S
C654 H666 0.956 . S
C654 H667 0.961 . S
C654 H668 0.961 . S
C655 C652 1.539 . S
C655 H669 0.958 . S
C655 H670 0.961 . S
C655 H671 0.960 . S
H656 C640 0.931 . S
H657 C645 0.929 . S
H658 C646 0.960 . S
H659 C646 0.962 . S
H660 C646 0.960 . S
H661 C647 0.961 . S
H662 C647 0.961 . S
H663 C647 0.961 . S
H664 C648 0.931 . S
H665 C653 0.930 . S
H666 C654 0.956 . S
H667 C654 0.961 . S
H668 C654 0.961 . S
H669 C655 0.958 . S
H670 C655 0.961 . S
H671 C655 0.960 . S
C672 C673 1.391 . S
C672 C674 1.394 . S
C672 H688 0.931 . S
C673 C672 1.391 . S
C673 C677 1.376 . S
C674 C672 1.394 . S
C674 C675 1.369 . S
C674 C678 1.531 . S
C675 C674 1.369 . S
C675 C676 1.410 . S
C675 C683 1.503 1_556 S
C676 C675 1.410 . S
C676 C677 1.392 . S
C676 C679 1.511 1_556 S
C677 C673 1.376 . S
C677 C676 1.392 . S
C677 H689 0.929 . S
C678 C674 1.531 . S
C678 H690 0.960 . S
C678 H691 0.962 . S
C678 H692 0.960 . S
C679 C676 1.511 1_554 S
C679 H693 0.961 . S
C679 H694 0.961 . S
C679 H695 0.961 . S
C680 C681 1.370 . S
C680 C682 1.363 . S
C680 H696 0.931 . S
C681 C680 1.370 . S
C681 C685 1.408 . S
C682 C680 1.363 . S
C682 C683 1.370 . S
C682 C686 1.524 . S
C683 C675 1.503 1_554 S
C683 C682 1.370 . S
C683 C684 1.403 . S
C684 C683 1.403 . S
C684 C685 1.404 . S
C684 C687 1.539 . S
C685 C681 1.408 . S
C685 C684 1.404 . S
C685 H697 0.930 . S
C686 C682 1.524 . S
C686 H698 0.956 1_554 S
C686 H699 0.961 . S
C686 H700 0.961 . S
C687 C684 1.539 . S
C687 H701 0.956 . S
C687 H702 0.961 . S
C687 H703 0.960 . S
H688 C672 0.931 . S
H689 C677 0.929 . S
H690 C678 0.960 . S
H691 C678 0.962 . S
H692 C678 0.960 . S
H693 C679 0.961 . S
H694 C679 0.961 . S
H695 C679 0.961 . S
H696 C680 0.931 . S
H697 C685 0.930 . S
H698 C686 0.956 1_556 S
H699 C686 0.961 . S
H700 C686 0.961 . S
H701 C687 0.956 . S
H702 C687 0.961 . S
H703 C687 0.960 . S
C704 C705 1.391 . S
C704 C706 1.394 . S
C704 H720 0.931 . S
C705 C704 1.391 . S
C705 C709 1.376 . S
C706 C704 1.394 . S
C706 C707 1.369 . S
C706 C710 1.531 . S
C707 C706 1.369 . S
C707 C708 1.410 . S
C707 C715 1.503 . S
C708 C707 1.410 . S
C708 C709 1.392 . S
C708 C711 1.511 . S
C709 C705 1.376 . S
C709 C708 1.392 . S
C709 H721 0.929 . S
C710 C706 1.531 . S
C710 H722 0.960 . S
C710 H723 0.962 . S
C710 H724 0.960 . S
C711 C708 1.511 . S
C711 H725 0.961 . S
C711 H726 0.961 . S
C711 H727 0.961 . S
C712 C713 1.370 . S
C712 C714 1.363 . S
C712 H728 0.931 . S
C713 C712 1.370 . S
C713 C717 1.408 . S
C714 C712 1.363 . S
C714 C715 1.370 . S
C714 C718 1.524 . S
C715 C707 1.503 . S
C715 C714 1.370 . S
C715 C716 1.403 . S
C716 C715 1.403 . S
C716 C717 1.404 . S
C716 C719 1.539 . S
C717 C713 1.408 . S
C717 C716 1.404 . S
C717 H729 0.930 . S
C718 C714 1.524 . S
C718 H730 0.956 . S
C718 H731 0.961 . S
C718 H732 0.961 . S
C719 C716 1.539 . S
C719 H733 0.958 . S
C719 H734 0.961 . S
C719 H735 0.960 . S
H720 C704 0.931 . S
H721 C709 0.929 . S
H722 C710 0.960 . S
H723 C710 0.962 . S
H724 C710 0.960 . S
H725 C711 0.961 . S
H726 C711 0.961 . S
H727 C711 0.961 . S
H728 C712 0.931 . S
H729 C717 0.930 . S
H730 C718 0.956 . S
H731 C718 0.961 . S
H732 C718 0.961 . S
H733 C719 0.958 . S
H734 C719 0.961 . S
H735 C719 0.960 . S
C736 C737 1.391 . S
C736 C738 1.394 . S
C736 H752 0.931 . S
C737 C736 1.391 . S
C737 C741 1.376 . S
C738 C736 1.394 . S
C738 C739 1.369 . S
C738 C742 1.531 . S
C739 C738 1.369 . S
C739 C740 1.410 . S
C739 C747 1.503 . S
C740 C739 1.410 . S
C740 C741 1.392 . S
C740 C743 1.511 . S
C741 C737 1.376 . S
C741 C740 1.392 . S
C741 H753 0.929 . S
C742 C738 1.531 . S
C742 H754 0.960 . S
C742 H755 0.962 . S
C742 H756 0.960 . S
C743 C740 1.511 . S
C743 H757 0.961 . S
C743 H758 0.961 . S
C743 H759 0.961 . S
C744 C745 1.370 . S
C744 C746 1.363 . S
C744 H760 0.931 . S
C745 C744 1.370 . S
C745 C749 1.408 . S
C746 C744 1.363 . S
C746 C747 1.370 . S
C746 C750 1.524 . S
C747 C739 1.503 . S
C747 C746 1.370 . S
C747 C748 1.403 . S
C748 C747 1.403 . S
C748 C749 1.404 . S
C748 C751 1.539 . S
C749 C745 1.408 . S
C749 C748 1.404 . S
C749 H761 0.930 . S
C750 C746 1.524 . S
C750 H762 0.956 . S
C750 H763 0.961 . S
C750 H764 0.961 . S
C751 C748 1.539 . S
C751 H765 0.958 . S
C751 H766 0.961 . S
C751 H767 0.960 . S
H752 C736 0.931 . S
H753 C741 0.929 . S
H754 C742 0.960 . S
H755 C742 0.962 . S
H756 C742 0.960 . S
H757 C743 0.961 . S
H758 C743 0.961 . S
H759 C743 0.961 . S
H760 C744 0.931 . S
H761 C749 0.930 . S
H762 C750 0.956 . S
H763 C750 0.961 . S
H764 C750 0.961 . S
H765 C751 0.958 . S
H766 C751 0.961 . S
H767 C751 0.960 . S
C768 C769 1.391 . S
C768 C770 1.394 . S
C768 H784 0.931 . S
C769 C768 1.391 . S
C769 C773 1.376 . S
C770 C768 1.394 . S
C770 C771 1.369 . S
C770 C774 1.531 1_556 S
C771 C770 1.369 . S
C771 C772 1.410 . S
C771 C779 1.503 1_556 S
C772 C771 1.410 . S
C772 C773 1.392 . S
C772 C775 1.511 . S
C773 C769 1.376 . S
C773 C772 1.392 . S
C773 H785 0.929 . S
C774 C770 1.531 1_554 S
C774 H786 0.960 . S
C774 H787 0.962 . S
C774 H788 0.960 1_554 S
C775 C772 1.511 . S
C775 H789 0.961 . S
C775 H790 0.961 . S
C775 H791 0.961 . S
C776 C777 1.370 . S
C776 C778 1.363 . S
C776 H792 0.931 . S
C777 C776 1.370 . S
C777 C781 1.408 . S
C778 C776 1.363 . S
C778 C779 1.370 . S
C778 C782 1.524 . S
C779 C771 1.503 1_554 S
C779 C778 1.370 . S
C779 C780 1.403 . S
C780 C779 1.403 . S
C780 C781 1.404 . S
C780 C783 1.539 1_554 S
C781 C777 1.408 . S
C781 C780 1.404 . S
C781 H793 0.930 . S
C782 C778 1.524 . S
C782 H794 0.956 . S
C782 H795 0.961 . S
C782 H796 0.961 . S
C783 C780 1.539 1_556 S
C783 H797 0.958 . S
C783 H798 0.961 . S
C783 H799 0.960 . S
H784 C768 0.931 . S
H785 C773 0.929 . S
H786 C774 0.960 . S
H787 C774 0.962 . S
H788 C774 0.960 1_556 S
H789 C775 0.961 . S
H790 C775 0.961 . S
H791 C775 0.961 . S
H792 C776 0.931 . S
H793 C781 0.930 . S
H794 C782 0.956 . S
H795 C782 0.961 . S
H796 C782 0.961 . S
H797 C783 0.958 . S
H798 C783 0.961 . S
H799 C783 0.960 . S
C800 C801 1.391 . S
C800 C802 1.394 . S
C800 H816 0.931 . S
C801 C800 1.391 . S
C801 C805 1.376 . S
C802 C800 1.394 . S
C802 C803 1.369 . S
C802 C806 1.531 . S
C803 C802 1.369 . S
C803 C804 1.410 . S
C803 C811 1.503 . S
C804 C803 1.410 . S
C804 C805 1.392 . S
C804 C807 1.511 . S
C805 C801 1.376 . S
C805 C804 1.392 . S
C805 H817 0.929 . S
C806 C802 1.531 . S
C806 H818 0.960 . S
C806 H819 0.962 . S
C806 H820 0.960 . S
C807 C804 1.511 . S
C807 H821 0.961 . S
C807 H822 0.961 . S
C807 H823 0.961 . S
C808 C809 1.370 . S
C808 C810 1.363 . S
C808 H824 0.931 . S
C809 C808 1.370 . S
C809 C813 1.408 . S
C810 C808 1.363 . S
C810 C811 1.370 . S
C810 C814 1.524 . S
C811 C803 1.503 . S
C811 C810 1.370 . S
C811 C812 1.403 . S
C812 C811 1.403 . S
C812 C813 1.404 . S
C812 C815 1.539 . S
C813 C809 1.408 . S
C813 C812 1.404 . S
C813 H825 0.930 . S
C814 C810 1.524 . S
C814 H826 0.956 . S
C814 H827 0.961 . S
C814 H828 0.961 . S
C815 C812 1.539 . S
C815 H829 0.958 . S
C815 H830 0.961 . S
C815 H831 0.960 . S
H816 C800 0.931 . S
H817 C805 0.929 . S
H818 C806 0.960 . S
H819 C806 0.962 . S
H820 C806 0.960 . S
H821 C807 0.961 . S
H822 C807 0.961 . S
H823 C807 0.961 . S
H824 C808 0.931 . S
H825 C813 0.930 . S
H826 C814 0.956 . S
H827 C814 0.961 . S
H828 C814 0.961 . S
H829 C815 0.958 . S
H830 C815 0.961 . S
H831 C815 0.960 . S
C832 C833 1.391 . S
C832 C834 1.394 . S
C832 H848 0.931 . S
C833 C832 1.391 . S
C833 C837 1.376 . S
C834 C832 1.394 . S
C834 C835 1.369 . S
C834 C838 1.531 . S
C835 C834 1.369 . S
C835 C836 1.410 . S
C835 C843 1.503 . S
C836 C835 1.410 . S
C836 C837 1.392 . S
C836 C839 1.511 . S
C837 C833 1.376 . S
C837 C836 1.392 . S
C837 H849 0.929 . S
C838 C834 1.531 . S
C838 H850 0.960 . S
C838 H851 0.962 . S
C838 H852 0.960 . S
C839 C836 1.511 . S
C839 H853 0.961 . S
C839 H854 0.961 . S
C839 H855 0.961 . S
C840 C841 1.370 . S
C840 C842 1.363 . S
C840 H856 0.931 . S
C841 C840 1.370 . S
C841 C845 1.408 . S
C842 C840 1.363 . S
C842 C843 1.370 . S
C842 C846 1.524 . S
C843 C835 1.503 . S
C843 C842 1.370 . S
C843 C844 1.403 . S
C844 C843 1.403 . S
C844 C845 1.404 . S
C844 C847 1.539 . S
C845 C841 1.408 . S
C845 C844 1.404 . S
C845 H857 0.930 . S
C846 C842 1.524 . S
C846 H858 0.956 . S
C846 H859 0.961 . S
C846 H860 0.961 . S
C847 C844 1.539 . S
C847 H861 0.958 . S
C847 H862 0.961 . S
C847 H863 0.960 . S
H848 C832 0.931 . S
H849 C837 0.929 . S
H850 C838 0.960 . S
H851 C838 0.962 . S
H852 C838 0.960 . S
H853 C839 0.961 . S
H854 C839 0.961 . S
H855 C839 0.961 . S
H856 C840 0.931 . S
H857 C845 0.930 . S
H858 C846 0.956 . S
H859 C846 0.961 . S
H860 C846 0.961 . S
H861 C847 0.958 . S
H862 C847 0.961 . S
H863 C847 0.960 . S
C864 C865 1.391 . S
C864 C866 1.394 . S
C864 H880 0.931 . S
C865 C864 1.391 . S
C865 C869 1.376 . S
C866 C864 1.394 . S
C866 C867 1.369 . S
C866 C870 1.531 . S
C867 C866 1.369 . S
C867 C868 1.410 . S
C867 C875 1.503 1_566 S
C868 C867 1.410 . S
C868 C869 1.392 . S
C868 C871 1.511 . S
C869 C865 1.376 . S
C869 C868 1.392 . S
C869 H881 0.929 . S
C870 C866 1.531 . S
C870 H882 0.960 1_556 S
C870 H883 0.962 . S
C870 H884 0.960 . S
C871 C868 1.511 . S
C871 H885 0.961 . S
C871 H886 0.961 1_565 S
C871 H887 0.961 . S
C872 C873 1.370 . S
C872 C874 1.363 . S
C872 H888 0.931 . S
C873 C872 1.370 . S
C873 C877 1.408 . S
C874 C872 1.363 . S
C874 C875 1.370 . S
C874 C878 1.524 1_554 S
C875 C867 1.503 1_544 S
C875 C874 1.370 . S
C875 C876 1.403 1_545 S
C876 C875 1.403 1_565 S
C876 C877 1.404 1_565 S
C876 C879 1.539 . S
C877 C873 1.408 . S
C877 C876 1.404 1_545 S
C877 H889 0.930 1_545 S
C878 C874 1.524 1_556 S
C878 H890 0.956 . S
C878 H891 0.961 . S
C878 H892 0.961 . S
C879 C876 1.539 . S
C879 H893 0.958 . S
C879 H894 0.961 . S
C879 H895 0.960 . S
H880 C864 0.931 . S
H881 C869 0.929 . S
H882 C870 0.960 1_554 S
H883 C870 0.962 . S
H884 C870 0.960 . S
H885 C871 0.961 . S
H886 C871 0.961 1_545 S
H887 C871 0.961 . S
H888 C872 0.931 . S
H889 C877 0.930 1_565 S
H890 C878 0.956 . S
H891 C878 0.961 . S
H892 C878 0.961 . S
H893 C879 0.958 . S
H894 C879 0.961 . S
H895 C879 0.960 . S
C896 C897 1.391 . S
C896 C898 1.394 . S
C896 H912 0.931 . S
C897 C896 1.391 . S
C897 C901 1.376 . S
C898 C896 1.394 . S
C898 C899 1.369 . S
C898 C902 1.531 . S
C899 C898 1.369 . S
C899 C900 1.410 . S
C899 C907 1.503 . S
C900 C899 1.410 . S
C900 C901 1.392 . S
C900 C903 1.511 . S
C901 C897 1.376 . S
C901 C900 1.392 . S
C901 H913 0.929 . S
C902 C898 1.531 . S
C902 H914 0.960 . S
C902 H915 0.962 . S
C902 H916 0.960 . S
C903 C900 1.511 . S
C903 H917 0.961 . S
C903 H918 0.961 . S
C903 H919 0.961 . S
C904 C905 1.370 . S
C904 C906 1.363 . S
C904 H920 0.931 . S
C905 C904 1.370 . S
C905 C909 1.408 . S
C906 C904 1.363 . S
C906 C907 1.370 . S
C906 C910 1.524 . S
C907 C899 1.503 . S
C907 C906 1.370 . S
C907 C908 1.403 . S
C908 C907 1.403 . S
C908 C909 1.404 . S
C908 C911 1.539 . S
C909 C905 1.408 . S
C909 C908 1.404 . S
C909 H921 0.930 . S
C910 C906 1.524 . S
C910 H922 0.956 . S
C910 H923 0.961 . S
C910 H924 0.961 . S
C911 C908 1.539 . S
C911 H925 0.958 . S
C911 H926 0.961 . S
C911 H927 0.960 . S
H912 C896 0.931 . S
H913 C901 0.929 . S
H914 C902 0.960 . S
H915 C902 0.962 . S
H916 C902 0.960 . S
H917 C903 0.961 . S
H918 C903 0.961 . S
H919 C903 0.961 . S
H920 C904 0.931 . S
H921 C909 0.930 . S
H922 C910 0.956 . S
H923 C910 0.961 . S
H924 C910 0.961 . S
H925 C911 0.958 . S
H926 C911 0.961 . S
H927 C911 0.960 . S
C928 C929 1.391 . S
C928 C930 1.394 . S
C928 H944 0.931 . S
C929 C928 1.391 . S
C929 C933 1.376 . S
C930 C928 1.394 . S
C930 C931 1.369 . S
C930 C934 1.531 . S
C931 C930 1.369 . S
C931 C932 1.410 . S
C931 C939 1.503 1_455 S
C932 C931 1.410 . S
C932 C933 1.392 . S
C932 C935 1.511 1_455 S
C933 C929 1.376 . S
C933 C932 1.392 . S
C933 H945 0.929 . S
C934 C930 1.531 . S
C934 H946 0.960 1_455 S
C934 H947 0.962 . S
C934 H948 0.960 . S
C935 C932 1.511 1_655 S
C935 H949 0.961 . S
C935 H950 0.961 . S
C935 H951 0.961 . S
C936 C937 1.370 . S
C936 C938 1.363 1_655 S
C936 H952 0.926 1_655 S
C937 C936 1.370 . S
C937 C941 1.408 . S
C938 C936 1.363 1_455 S
C938 C939 1.370 1_455 S
C938 C942 1.524 . S
C939 C931 1.503 1_655 S
C939 C938 1.370 1_655 S
C939 C940 1.403 . S
C940 C939 1.403 . S
C940 C941 1.404 . S
C940 C943 1.539 . S
C941 C937 1.408 . S
C941 C940 1.404 . S
C941 H953 0.930 . S
C942 C938 1.524 . S
C942 H954 0.956 . S
C942 H955 0.961 . S
C942 H956 0.961 . S
C943 C940 1.539 . S
C943 H957 0.958 . S
C943 H958 0.961 . S
C943 H959 0.960 . S
H944 C928 0.931 . S
H945 C933 0.929 . S
H946 C934 0.960 1_655 S
H947 C934 0.962 . S
H948 C934 0.960 . S
H949 C935 0.961 . S
H950 C935 0.961 . S
H951 C935 0.961 . S
H952 C936 0.926 1_455 S
H953 C941 0.930 . S
H954 C942 0.956 . S
H955 C942 0.961 . S
H956 C942 0.961 . S
H957 C943 0.958 . S
H958 C943 0.961 . S
H959 C943 0.960 . S
C960 C961 1.391 . S
C960 C962 1.394 1_565 S
C960 H976 0.931 . S
C961 C960 1.391 . S
C961 C965 1.376 . S
C962 C960 1.394 1_545 S
C962 C963 1.369 1_545 S
C962 C966 1.531 . S
C963 C962 1.369 1_565 S
C963 C964 1.410 . S
C963 C971 1.503 1_564 S
C964 C963 1.410 . S
C964 C965 1.392 . S
C964 C967 1.511 1_554 S
C965 C961 1.376 . S
C965 C964 1.392 . S
C965 H977 0.929 . S
C966 C962 1.531 . S
C966 H978 0.960 . S
C966 H979 0.962 . S
C966 H980 0.960 . S
C967 C964 1.511 1_556 S
C967 H981 0.962 . S
C967 H982 0.961 . S
C967 H983 0.961 1_556 S
C968 C969 1.370 . S
C968 C970 1.380 . S
C968 H984 0.931 . S
C969 C968 1.370 . S
C969 C973 1.408 . S
C970 C968 1.380 . S
C970 C971 1.372 . S
C970 C974 1.508 1_545 S
C971 C963 1.503 1_546 S
C971 C970 1.372 . S
C971 C972 1.403 . S
C972 C971 1.403 . S
C972 C973 1.404 . S
C972 C975 1.539 1_556 S
C973 C969 1.408 . S
C973 C972 1.404 . S
C973 H985 0.930 . S
C974 C970 1.508 1_565 S
C974 H986 0.956 . S
C974 H987 0.961 . S
C974 H988 0.961 . S
C975 C972 1.539 1_554 S
C975 H989 0.958 . S
C975 H990 0.961 1_554 S
C975 H991 0.960 . S
H976 C960 0.931 . S
H977 C965 0.929 . S
H978 C966 0.960 . S
H979 C966 0.962 . S
H980 C966 0.960 . S
H981 C967 0.962 . S
H982 C967 0.961 . S
H983 C967 0.961 1_554 S
H984 C968 0.931 . S
H985 C973 0.930 . S
H986 C974 0.956 . S
H987 C974 0.961 . S
H988 C974 0.961 . S
H989 C975 0.958 . S
H990 C975 0.961 1_556 S
H991 C975 0.960 . S
C992 C993 1.391 . S
C992 C994 1.394 . S
C992 H1008 0.931 . S
C993 C992 1.391 . S
C993 C997 1.376 . S
C994 C992 1.394 . S
C994 C995 1.369 . S
C994 C998 1.531 . S
C995 C994 1.369 . S
C995 C996 1.410 . S
C995 C1003 1.503 . S
C996 C995 1.410 . S
C996 C997 1.392 . S
C996 C999 1.511 . S
C997 C993 1.376 . S
C997 C996 1.392 . S
C997 H1009 0.929 . S
C998 C994 1.531 . S
C998 H1010 0.960 . S
C998 H1011 0.962 . S
C998 H1012 0.960 . S
C999 C996 1.511 . S
C999 H1013 0.961 . S
C999 H1014 0.961 . S
C999 H1015 0.961 . S
C1000 C1001 1.370 . S
C1000 C1002 1.363 . S
C1000 H1016 0.931 . S
C1001 C1000 1.370 . S
C1001 C1005 1.408 . S
C1002 C1000 1.363 . S
C1002 C1003 1.370 . S
C1002 C1006 1.524 . S
C1003 C995 1.503 . S
C1003 C1002 1.370 . S
C1003 C1004 1.403 . S
C1004 C1003 1.403 . S
C1004 C1005 1.404 . S
C1004 C1007 1.539 . S
C1005 C1001 1.408 . S
C1005 C1004 1.404 . S
C1005 H1017 0.930 . S
C1006 C1002 1.524 . S
C1006 H1018 0.956 . S
C1006 H1019 0.961 . S
C1006 H1020 0.961 . S
C1007 C1004 1.539 . S
C1007 H1021 0.958 . S
C1007 H1022 0.961 . S
C1007 H1023 0.960 . S
H1008 C992 0.931 . S
H1009 C997 0.929 . S
H1010 C998 0.960 . S
H1011 C998 0.962 . S
H1012 C998 0.960 . S
H1013 C999 0.961 . S
H1014 C999 0.961 . S
H1015 C999 0.961 . S
H1016 C1000 0.931 . S
H1017 C1005 0.930 . S
H1018 C1006 0.956 . S
H1019 C1006 0.961 . S
H1020 C1006 0.961 . S
H1021 C1007 0.958 . S
H1022 C1007 0.961 . S
H1023 C1007 0.960 . S
C1024 C1025 1.391 . S
C1024 C1026 1.394 . S
C1024 H1040 0.931 . S
C1025 C1024 1.391 . S
C1025 C1029 1.376 . S
C1026 C1024 1.394 . S
C1026 C1027 1.369 . S
C1026 C1030 1.531 . S
C1027 C1026 1.369 . S
C1027 C1028 1.410 1_455 S
C1027 C1035 1.503 1_455 S
C1028 C1027 1.410 1_655 S
C1028 C1029 1.392 1_655 S
C1028 C1031 1.511 . S
C1029 C1025 1.376 . S
C1029 C1028 1.392 1_455 S
C1029 H1041 0.929 . S
C1030 C1026 1.531 . S
C1030 H1042 0.960 . S
C1030 H1043 0.962 . S
C1030 H1044 0.960 . S
C1031 C1028 1.511 . S
C1031 H1045 0.961 . S
C1031 H1046 0.961 . S
C1031 H1047 0.961 . S
C1032 C1033 1.370 . S
C1032 C1034 1.369 . S
C1032 H1048 0.931 . S
C1033 C1032 1.370 . S
C1033 C1037 1.408 . S
C1034 C1032 1.369 . S
C1034 C1035 1.371 . S
C1034 C1038 1.518 1_655 S
C1035 C1027 1.503 1_655 S
C1035 C1034 1.371 . S
C1035 C1036 1.403 . S
C1036 C1035 1.403 . S
C1036 C1037 1.404 . S
C1036 C1039 1.539 . S
C1037 C1033 1.408 . S
C1037 C1036 1.404 . S
C1037 H1049 0.930 . S
C1038 C1034 1.518 1_455 S
C1038 H1050 0.956 . S
C1038 H1051 0.961 . S
C1038 H1052 0.961 . S
C1039 C1036 1.539 . S
C1039 H1053 0.958 . S
C1039 H1054 0.961 . S
C1039 H1055 0.960 . S
H1040 C1024 0.931 . S
H1041 C1029 0.929 . S
H1042 C1030 0.960 . S
H1043 C1030 0.962 . S
H1044 C1030 0.960 . S
H1045 C1031 0.961 . S
H1046 C1031 0.961 . S
H1047 C1031 0.961 . S
H1048 C1032 0.931 . S
H1049 C1037 0.930 . S
H1050 C1038 0.956 . S
H1051 C1038 0.961 . S
H1052 C1038 0.961 . S
H1053 C1039 0.958 . S
H1054 C1039 0.961 . S
H1055 C1039 0.960 . S
C1056 C1057 1.391 . S
C1056 C1058 1.394 . S
C1056 H1072 0.931 . S
C1057 C1056 1.391 . S
C1057 C1061 1.376 . S
C1058 C1056 1.394 . S
C1058 C1059 1.369 . S
C1058 C1062 1.531 . S
C1059 C1058 1.369 . S
C1059 C1060 1.410 . S
C1059 C1067 1.503 1_545 S
C1060 C1059 1.410 . S
C1060 C1061 1.392 . S
C1060 C1063 1.511 1_545 S
C1061 C1057 1.376 . S
C1061 C1060 1.392 . S
C1061 H1073 0.929 . S
C1062 C1058 1.531 . S
C1062 H1074 0.960 . S
C1062 H1075 0.962 . S
C1062 H1076 0.960 . S
C1063 C1060 1.511 1_565 S
C1063 H1077 0.961 . S
C1063 H1078 0.961 . S
C1063 H1079 0.961 . S
C1064 C1065 1.370 . S
C1064 C1066 1.363 . S
C1064 H1080 0.931 . S
C1065 C1064 1.370 . S
C1065 C1069 1.408 . S
C1066 C1064 1.363 . S
C1066 C1067 1.370 . S
C1066 C1070 1.524 1_565 S
C1067 C1059 1.503 1_565 S
C1067 C1066 1.370 . S
C1067 C1068 1.403 . S
C1068 C1067 1.403 . S
C1068 C1069 1.404 . S
C1068 C1071 1.539 . S
C1069 C1065 1.408 . S
C1069 C1068 1.404 . S
C1069 H1081 0.930 . S
C1070 C1066 1.524 1_545 S
C1070 H1082 0.956 . S
C1070 H1083 0.961 . S
C1070 H1084 0.961 . S
C1071 C1068 1.539 . S
C1071 H1085 0.958 . S
C1071 H1086 0.961 . S
C1071 H1087 0.960 . S
H1072 C1056 0.931 . S
H1073 C1061 0.929 . S
H1074 C1062 0.960 . S
H1075 C1062 0.962 . S
H1076 C1062 0.960 . S
H1077 C1063 0.961 . S
H1078 C1063 0.961 . S
H1079 C1063 0.961 . S
H1080 C1064 0.931 . S
H1081 C1069 0.930 . S
H1082 C1070 0.956 . S
H1083 C1070 0.961 . S
H1084 C1070 0.961 . S
H1085 C1071 0.958 . S
H1086 C1071 0.961 . S
H1087 C1071 0.960 . S
C1088 C1089 1.391 . S
C1088 C1090 1.394 . S
C1088 H1104 0.931 . S
C1089 C1088 1.391 . S
C1089 C1093 1.376 . S
C1090 C1088 1.394 . S
C1090 C1091 1.369 . S
C1090 C1094 1.531 . S
C1091 C1090 1.369 . S
C1091 C1092 1.410 . S
C1091 C1099 1.503 . S
C1092 C1091 1.410 . S
C1092 C1093 1.392 . S
C1092 C1095 1.511 . S
C1093 C1089 1.376 . S
C1093 C1092 1.392 . S
C1093 H1105 0.929 . S
C1094 C1090 1.531 . S
C1094 H1106 0.960 . S
C1094 H1107 0.962 . S
C1094 H1108 0.960 . S
C1095 C1092 1.511 . S
C1095 H1109 0.961 . S
C1095 H1110 0.961 . S
C1095 H1111 0.961 . S
C1096 C1097 1.370 . S
C1096 C1098 1.363 . S
C1096 H1112 0.931 . S
C1097 C1096 1.370 . S
C1097 C1101 1.408 . S
C1098 C1096 1.363 . S
C1098 C1099 1.370 . S
C1098 C1102 1.524 . S
C1099 C1091 1.503 . S
C1099 C1098 1.370 . S
C1099 C1100 1.403 . S
C1100 C1099 1.403 . S
C1100 C1101 1.404 . S
C1100 C1103 1.539 . S
C1101 C1097 1.408 . S
C1101 C1100 1.404 . S
C1101 H1113 0.930 . S
C1102 C1098 1.524 . S
C1102 H1114 0.956 . S
C1102 H1115 0.961 . S
C1102 H1116 0.961 . S
C1103 C1100 1.539 . S
C1103 H1117 0.958 . S
C1103 H1118 0.961 . S
C1103 H1119 0.960 . S
H1104 C1088 0.931 . S
H1105 C1093 0.929 . S
H1106 C1094 0.960 . S
H1107 C1094 0.962 . S
H1108 C1094 0.960 . S
H1109 C1095 0.961 . S
H1110 C1095 0.961 . S
H1111 C1095 0.961 . S
H1112 C1096 0.931 . S
H1113 C1101 0.930 . S
H1114 C1102 0.956 . S
H1115 C1102 0.961 . S
H1116 C1102 0.961 . S
H1117 C1103 0.958 . S
H1118 C1103 0.961 . S
H1119 C1103 0.960 . S
C1120 C1121 1.391 . S
C1120 C1122 1.394 . S
C1120 H1136 0.931 . S
C1121 C1120 1.391 . S
C1121 C1125 1.376 . S
C1122 C1120 1.394 . S
C1122 C1123 1.369 . S
C1122 C1126 1.531 1_655 S
C1123 C1122 1.369 . S
C1123 C1124 1.410 . S
C1123 C1131 1.503 1_655 S
C1124 C1123 1.410 . S
C1124 C1125 1.392 . S
C1124 C1127 1.511 . S
C1125 C1121 1.376 . S
C1125 C1124 1.392 . S
C1125 H1137 0.929 . S
C1126 C1122 1.531 1_455 S
C1126 H1138 0.960 . S
C1126 H1139 0.955 1_556 S
C1126 H1140 0.960 . S
C1127 C1124 1.511 . S
C1127 H1141 0.961 . S
C1127 H1142 0.961 . S
C1127 H1143 0.961 . S
C1128 C1129 1.370 . S
C1128 C1130 1.363 . S
C1128 H1144 0.931 . S
C1129 C1128 1.370 . S
C1129 C1133 1.408 . S
C1130 C1128 1.363 . S
C1130 C1131 1.370 . S
C1130 C1134 1.524 1_455 S
C1131 C1123 1.503 1_455 S
C1131 C1130 1.370 . S
C1131 C1132 1.403 . S
C1132 C1131 1.403 . S
C1132 C1133 1.404 . S
C1132 C1135 1.539 . S
C1133 C1129 1.408 . S
C1133 C1132 1.404 . S
C1133 H1145 0.930 . S
C1134 C1130 1.524 1_655 S
C1134 H1146 0.956 . S
C1134 H1147 0.961 . S
C1134 H1148 0.961 . S
C1135 C1132 1.539 . S
C1135 H1149 0.958 . S
C1135 H1150 0.961 . S
C1135 H1151 0.960 . S
H1136 C1120 0.931 . S
H1137 C1125 0.929 . S
H1138 C1126 0.960 . S
H1139 C1126 0.955 1_554 S
H1140 C1126 0.960 . S
H1141 C1127 0.961 . S
H1142 C1127 0.961 . S
H1143 C1127 0.961 . S
H1144 C1128 0.931 . S
H1145 C1133 0.930 . S
H1146 C1134 0.956 . S
H1147 C1134 0.961 . S
H1148 C1134 0.961 . S
H1149 C1135 0.958 . S
H1150 C1135 0.961 . S
H1151 C1135 0.960 . S
C1152 C1153 1.391 . S
C1152 C1154 1.394 . S
C1152 H1168 0.931 . S
C1153 C1152 1.391 . S
C1153 C1157 1.376 . S
C1154 C1152 1.394 . S
C1154 C1155 1.369 . S
C1154 C1158 1.531 . S
C1155 C1154 1.369 . S
C1155 C1156 1.410 . S
C1155 C1163 1.503 1_455 S
C1156 C1155 1.410 . S
C1156 C1157 1.392 . S
C1156 C1159 1.511 1_455 S
C1157 C1153 1.376 . S
C1157 C1156 1.392 . S
C1157 H1169 0.929 . S
C1158 C1154 1.531 . S
C1158 H1170 0.960 . S
C1158 H1171 0.962 . S
C1158 H1172 0.960 . S
C1159 C1156 1.511 1_655 S
C1159 H1173 0.961 . S
C1159 H1174 0.961 . S
C1159 H1175 0.961 . S
C1160 C1161 1.370 . S
C1160 C1162 1.363 . S
C1160 H1176 0.931 . S
C1161 C1160 1.370 . S
C1161 C1165 1.408 . S
C1162 C1160 1.363 . S
C1162 C1163 1.370 . S
C1162 C1166 1.524 . S
C1163 C1155 1.503 1_655 S
C1163 C1162 1.370 . S
C1163 C1164 1.403 . S
C1164 C1163 1.403 . S
C1164 C1165 1.404 . S
C1164 C1167 1.539 1_655 S
C1165 C1161 1.408 . S
C1165 C1164 1.404 . S
C1165 H1177 0.930 . S
C1166 C1162 1.524 . S
C1166 H1178 0.956 . S
C1166 H1179 0.961 . S
C1166 H1180 0.961 . S
C1167 C1164 1.539 1_455 S
C1167 H1181 0.958 . S
C1167 H1182 0.961 . S
C1167 H1183 0.960 . S
H1168 C1152 0.931 . S
H1169 C1157 0.929 . S
H1170 C1158 0.960 . S
H1171 C1158 0.962 . S
H1172 C1158 0.960 . S
H1173 C1159 0.961 . S
H1174 C1159 0.961 . S
H1175 C1159 0.961 . S
H1176 C1160 0.931 . S
H1177 C1165 0.930 . S
H1178 C1166 0.956 . S
H1179 C1166 0.961 . S
H1180 C1166 0.961 . S
H1181 C1167 0.958 . S
H1182 C1167 0.961 . S
H1183 C1167 0.960 . S
C1184 C1185 1.391 . S
C1184 C1186 1.394 . S
C1184 H1200 0.931 . S
C1185 C1184 1.391 . S
C1185 C1189 1.376 . S
C1186 C1184 1.394 . S
C1186 C1187 1.369 . S
C1186 C1190 1.531 1_565 S
C1187 C1186 1.369 . S
C1187 C1188 1.410 . S
C1187 C1195 1.503 1_565 S
C1188 C1187 1.410 . S
C1188 C1189 1.392 . S
C1188 C1191 1.511 . S
C1189 C1185 1.376 . S
C1189 C1188 1.392 . S
C1189 H1201 0.929 . S
C1190 C1186 1.531 1_545 S
C1190 H1202 0.960 . S
C1190 H1203 0.962 . S
C1190 H1204 0.960 1_545 S
C1191 C1188 1.511 . S
C1191 H1205 0.961 . S
C1191 H1206 0.961 . S
C1191 H1207 0.961 . S
C1192 C1193 1.370 . S
C1192 C1194 1.363 . S
C1192 H1208 0.931 . S
C1193 C1192 1.370 . S
C1193 C1197 1.408 . S
C1194 C1192 1.363 . S
C1194 C1195 1.370 . S
C1194 C1198 1.524 . S
C1195 C1187 1.503 1_545 S
C1195 C1194 1.370 . S
C1195 C1196 1.403 . S
C1196 C1195 1.403 . S
C1196 C1197 1.404 . S
C1196 C1199 1.539 1_545 S
C1197 C1193 1.408 . S
C1197 C1196 1.404 . S
C1197 H1209 0.930 . S
C1198 C1194 1.524 . S
C1198 H1210 0.956 . S
C1198 H1211 0.961 . S
C1198 H1212 0.961 . S
C1199 C1196 1.539 1_565 S
C1199 H1213 0.958 . S
C1199 H1214 0.961 . S
C1199 H1215 0.960 . S
H1200 C1184 0.931 . S
H1201 C1189 0.929 . S
H1202 C1190 0.960 . S
H1203 C1190 0.962 . S
H1204 C1190 0.960 1_565 S
H1205 C1191 0.961 . S
H1206 C1191 0.961 . S
H1207 C1191 0.961 . S
H1208 C1192 0.931 . S
H1209 C1197 0.930 . S
H1210 C1198 0.956 . S
H1211 C1198 0.961 . S
H1212 C1198 0.961 . S
H1213 C1199 0.958 . S
H1214 C1199 0.961 . S
H1215 C1199 0.960 . S
C1216 C1217 1.391 . S
C1216 C1218 1.394 . S
C1216 H1232 0.931 . S
C1217 C1216 1.391 . S
C1217 C1221 1.376 . S
C1218 C1216 1.394 . S
C1218 C1219 1.369 . S
C1218 C1222 1.531 . S
C1219 C1218 1.369 . S
C1219 C1220 1.410 . S
C1219 C1227 1.503 . S
C1220 C1219 1.410 . S
C1220 C1221 1.392 . S
C1220 C1223 1.511 . S
C1221 C1217 1.376 . S
C1221 C1220 1.392 . S
C1221 H1233 0.929 . S
C1222 C1218 1.531 . S
C1222 H1234 0.960 . S
C1222 H1235 0.962 1_554 S
C1222 H1236 0.960 . S
C1223 C1220 1.511 . S
C1223 H1237 0.961 . S
C1223 H1238 0.961 . S
C1223 H1239 0.961 . S
C1224 C1225 1.370 . S
C1224 C1226 1.363 . S
C1224 H1240 0.931 . S
C1225 C1224 1.370 . S
C1225 C1229 1.408 . S
C1226 C1224 1.363 . S
C1226 C1227 1.370 . S
C1226 C1230 1.524 . S
C1227 C1219 1.503 . S
C1227 C1226 1.370 . S
C1227 C1228 1.403 . S
C1228 C1227 1.403 . S
C1228 C1229 1.404 . S
C1228 C1231 1.539 . S
C1229 C1225 1.408 . S
C1229 C1228 1.404 . S
C1229 H1241 0.930 . S
C1230 C1226 1.524 . S
C1230 H1242 0.956 . S
C1230 H1243 0.961 . S
C1230 H1244 0.961 . S
C1231 C1228 1.539 . S
C1231 H1245 0.958 . S
C1231 H1246 0.961 . S
C1231 H1247 0.960 . S
H1232 C1216 0.931 . S
H1233 C1221 0.929 . S
H1234 C1222 0.960 . S
H1235 C1222 0.962 1_556 S
H1236 C1222 0.960 . S
H1237 C1223 0.961 . S
H1238 C1223 0.961 . S
H1239 C1223 0.961 . S
H1240 C1224 0.931 . S
H1241 C1229 0.930 . S
H1242 C1230 0.956 . S
H1243 C1230 0.961 . S
H1244 C1230 0.961 . S
H1245 C1231 0.958 . S
H1246 C1231 0.961 . S
H1247 C1231 0.960 . S
C1248 C1249 1.391 . S
C1248 C1250 1.394 . S
C1248 H1264 0.931 . S
C1249 C1248 1.391 . S
C1249 C1253 1.376 . S
C1250 C1248 1.394 . S
C1250 C1251 1.369 . S
C1250 C1254 1.531 . S
C1251 C1250 1.369 . S
C1251 C1252 1.410 . S
C1251 C1259 1.503 1_565 S
C1252 C1251 1.410 . S
C1252 C1253 1.392 . S
C1252 C1255 1.511 . S
C1253 C1249 1.376 . S
C1253 C1252 1.392 . S
C1253 H1265 0.929 . S
C1254 C1250 1.531 . S
C1254 H1266 0.953 1_565 S
C1254 H1267 0.962 1_565 S
C1254 H1268 0.960 . S
C1255 C1252 1.511 . S
C1255 H1269 0.961 . S
C1255 H1270 0.961 . S
C1255 H1271 0.961 . S
C1256 C1257 1.370 . S
C1256 C1258 1.363 . S
C1256 H1272 0.931 . S
C1257 C1256 1.370 . S
C1257 C1261 1.408 . S
C1258 C1256 1.363 . S
C1258 C1259 1.370 . S
C1258 C1262 1.524 . S
C1259 C1251 1.503 1_545 S
C1259 C1258 1.370 . S
C1259 C1260 1.403 . S
C1260 C1259 1.403 . S
C1260 C1261 1.404 . S
C1260 C1263 1.539 1_545 S
C1261 C1257 1.408 . S
C1261 C1260 1.404 . S
C1261 H1273 0.930 . S
C1262 C1258 1.524 . S
C1262 H1274 0.956 . S
C1262 H1275 0.961 . S
C1262 H1276 0.961 . S
C1263 C1260 1.539 1_565 S
C1263 H1277 0.958 . S
C1263 H1278 0.961 . S
C1263 H1279 0.960 . S
H1264 C1248 0.931 . S
H1265 C1253 0.929 . S
H1266 C1254 0.953 1_545 S
H1267 C1254 0.962 1_545 S
H1268 C1254 0.960 . S
H1269 C1255 0.961 . S
H1270 C1255 0.961 . S
H1271 C1255 0.961 . S
H1272 C1256 0.931 . S
H1273 C1261 0.930 . S
H1274 C1262 0.956 . S
H1275 C1262 0.961 . S
H1276 C1262 0.961 . S
H1277 C1263 0.958 . S
H1278 C1263 0.961 . S
H1279 C1263 0.960 . S
C1280 C1281 1.391 . S
C1280 C1282 1.394 . S
C1280 H1296 0.931 . S
C1281 C1280 1.391 . S
C1281 C1285 1.376 . S
C1282 C1280 1.394 . S
C1282 C1283 1.369 . S
C1282 C1286 1.531 . S
C1283 C1282 1.369 . S
C1283 C1284 1.410 . S
C1283 C1291 1.503 . S
C1284 C1283 1.410 . S
C1284 C1285 1.392 . S
C1284 C1287 1.511 . S
C1285 C1281 1.376 . S
C1285 C1284 1.392 . S
C1285 H1297 0.929 . S
C1286 C1282 1.531 . S
C1286 H1298 0.960 . S
C1286 H1299 0.962 . S
C1286 H1300 0.960 . S
C1287 C1284 1.511 . S
C1287 H1301 0.961 . S
C1287 H1302 0.961 . S
C1287 H1303 0.961 . S
C1288 C1289 1.370 . S
C1288 C1290 1.363 . S
C1288 H1304 0.931 . S
C1289 C1288 1.370 . S
C1289 C1293 1.408 . S
C1290 C1288 1.363 . S
C1290 C1291 1.370 . S
C1290 C1294 1.524 . S
C1291 C1283 1.503 . S
C1291 C1290 1.370 . S
C1291 C1292 1.403 . S
C1292 C1291 1.403 . S
C1292 C1293 1.404 . S
C1292 C1295 1.539 . S
C1293 C1289 1.408 . S
C1293 C1292 1.404 . S
C1293 H1305 0.930 . S
C1294 C1290 1.524 . S
C1294 H1306 0.956 . S
C1294 H1307 0.961 . S
C1294 H1308 0.961 . S
C1295 C1292 1.539 . S
C1295 H1309 0.958 . S
C1295 H1310 0.961 . S
C1295 H1311 0.960 . S
H1296 C1280 0.931 . S
H1297 C1285 0.929 . S
H1298 C1286 0.960 . S
H1299 C1286 0.962 . S
H1300 C1286 0.960 . S
H1301 C1287 0.961 . S
H1302 C1287 0.961 . S
H1303 C1287 0.961 . S
H1304 C1288 0.931 . S
H1305 C1293 0.930 . S
H1306 C1294 0.956 . S
H1307 C1294 0.961 . S
H1308 C1294 0.961 . S
H1309 C1295 0.958 . S
H1310 C1295 0.961 . S
H1311 C1295 0.960 . S
C1312 C1313 1.391 . S
C1312 C1314 1.394 . S
C1312 H1328 0.931 . S
C1313 C1312 1.391 . S
C1313 C1317 1.376 . S
C1314 C1312 1.394 . S
C1314 C1315 1.369 . S
C1314 C1318 1.531 1_655 S
C1315 C1314 1.369 . S
C1315 C1316 1.410 . S
C1315 C1323 1.503 1_655 S
C1316 C1315 1.410 . S
C1316 C1317 1.392 . S
C1316 C1319 1.511 . S
C1317 C1313 1.376 . S
C1317 C1316 1.392 . S
C1317 H1329 0.929 . S
C1318 C1314 1.531 1_455 S
C1318 H1330 0.960 . S
C1318 H1331 0.962 . S
C1318 H1332 0.960 . S
C1319 C1316 1.511 . S
C1319 H1333 0.961 . S
C1319 H1334 0.961 . S
C1319 H1335 0.961 . S
C1320 C1321 1.370 . S
C1320 C1322 1.363 . S
C1320 H1336 0.931 . S
C1321 C1320 1.370 . S
C1321 C1325 1.408 . S
C1322 C1320 1.363 . S
C1322 C1323 1.370 . S
C1322 C1326 1.524 . S
C1323 C1315 1.503 1_455 S
C1323 C1322 1.370 . S
C1323 C1324 1.403 . S
C1324 C1323 1.403 . S
C1324 C1325 1.404 . S
C1324 C1327 1.539 . S
C1325 C1321 1.408 . S
C1325 C1324 1.404 . S
C1325 H1337 0.930 . S
C1326 C1322 1.524 . S
C1326 H1338 0.956 . S
C1326 H1339 0.961 1_455 S
C1326 H1340 0.961 . S
C1327 C1324 1.539 . S
C1327 H1341 0.958 . S
C1327 H1342 0.961 . S
C1327 H1343 0.960 1_455 S
H1328 C1312 0.931 . S
H1329 C1317 0.929 . S
H1330 C1318 0.960 . S
H1331 C1318 0.962 . S
H1332 C1318 0.960 . S
H1333 C1319 0.961 . S
H1334 C1319 0.961 . S
H1335 C1319 0.961 . S
H1336 C1320 0.931 . S
H1337 C1325 0.930 . S
H1338 C1326 0.956 . S
H1339 C1326 0.961 1_655 S
H1340 C1326 0.961 . S
H1341 C1327 0.958 . S
H1342 C1327 0.961 . S
H1343 C1327 0.960 1_655 S
C1344 C1345 1.391 . S
C1344 C1346 1.394 . S
C1344 H1360 0.931 . S
C1345 C1344 1.391 . S
C1345 C1349 1.376 . S
C1346 C1344 1.394 . S
C1346 C1347 1.369 . S
C1346 C1350 1.531 . S
C1347 C1346 1.369 . S
C1347 C1348 1.410 . S
C1347 C1355 1.503 1_545 S
C1348 C1347 1.410 . S
C1348 C1349 1.392 . S
C1348 C1351 1.511 1_545 S
C1349 C1345 1.376 . S
C1349 C1348 1.392 . S
C1349 H1361 0.929 . S
C1350 C1346 1.531 . S
C1350 H1362 0.960 . S
C1350 H1363 0.962 . S
C1350 H1364 0.960 . S
C1351 C1348 1.511 1_565 S
C1351 H1365 0.961 . S
C1351 H1366 0.961 . S
C1351 H1367 0.961 . S
C1352 C1353 1.370 . S
C1352 C1354 1.363 . S
C1352 H1368 0.931 . S
C1353 C1352 1.370 . S
C1353 C1357 1.408 . S
C1354 C1352 1.363 . S
C1354 C1355 1.370 . S
C1354 C1358 1.524 . S
C1355 C1347 1.503 1_565 S
C1355 C1354 1.370 . S
C1355 C1356 1.403 . S
C1356 C1355 1.403 . S
C1356 C1357 1.404 . S
C1356 C1359 1.539 . S
C1357 C1353 1.408 . S
C1357 C1356 1.404 . S
C1357 H1369 0.930 . S
C1358 C1354 1.524 . S
C1358 H1370 0.956 1_565 S
C1358 H1371 0.961 . S
C1358 H1372 0.961 . S
C1359 C1356 1.539 . S
C1359 H1373 0.958 1_565 S
C1359 H1374 0.961 . S
C1359 H1375 0.960 . S
H1360 C1344 0.931 . S
H1361 C1349 0.929 . S
H1362 C1350 0.960 . S
H1363 C1350 0.962 . S
H1364 C1350 0.960 . S
H1365 C1351 0.961 . S
H1366 C1351 0.961 . S
H1367 C1351 0.961 . S
H1368 C1352 0.931 . S
H1369 C1357 0.930 . S
H1370 C1358 0.956 1_545 S
H1371 C1358 0.961 . S
H1372 C1358 0.961 . S
H1373 C1359 0.958 1_545 S
H1374 C1359 0.961 . S
H1375 C1359 0.960 . S
C1376 C1377 1.391 . S
C1376 C1378 1.394 . S
C1376 H1392 0.931 . S
C1377 C1376 1.391 . S
C1377 C1381 1.376 . S
C1378 C1376 1.394 . S
C1378 C1379 1.369 . S
C1378 C1382 1.531 . S
C1379 C1378 1.369 . S
C1379 C1380 1.410 . S
C1379 C1387 1.503 . S
C1380 C1379 1.410 . S
C1380 C1381 1.392 . S
C1380 C1383 1.511 . S
C1381 C1377 1.376 . S
C1381 C1380 1.392 . S
C1381 H1393 0.929 . S
C1382 C1378 1.531 . S
C1382 H1394 0.960 . S
C1382 H1395 0.962 . S
C1382 H1396 0.960 . S
C1383 C1380 1.511 . S
C1383 H1397 0.961 . S
C1383 H1398 0.961 . S
C1383 H1399 0.961 . S
C1384 C1385 1.370 . S
C1384 C1386 1.363 . S
C1384 H1400 0.931 . S
C1385 C1384 1.370 . S
C1385 C1389 1.408 . S
C1386 C1384 1.363 . S
C1386 C1387 1.370 . S
C1386 C1390 1.524 . S
C1387 C1379 1.503 . S
C1387 C1386 1.370 . S
C1387 C1388 1.403 . S
C1388 C1387 1.403 . S
C1388 C1389 1.404 . S
C1388 C1391 1.539 . S
C1389 C1385 1.408 . S
C1389 C1388 1.404 . S
C1389 H1401 0.930 . S
C1390 C1386 1.524 . S
C1390 H1402 0.956 . S
C1390 H1403 0.961 . S
C1390 H1404 0.961 . S
C1391 C1388 1.539 . S
C1391 H1405 0.958 . S
C1391 H1406 0.961 . S
C1391 H1407 0.960 . S
H1392 C1376 0.931 . S
H1393 C1381 0.929 . S
H1394 C1382 0.960 . S
H1395 C1382 0.962 . S
H1396 C1382 0.960 . S
H1397 C1383 0.961 . S
H1398 C1383 0.961 . S
H1399 C1383 0.961 . S
H1400 C1384 0.931 . S
H1401 C1389 0.930 . S
H1402 C1390 0.956 . S
H1403 C1390 0.961 . S
H1404 C1390 0.961 . S
H1405 C1391 0.958 . S
H1406 C1391 0.961 . S
H1407 C1391 0.960 . S
C1408 C1409 1.391 . S
C1408 C1410 1.394 . S
C1408 H1424 0.931 . S
C1409 C1408 1.391 . S
C1409 C1413 1.376 . S
C1410 C1408 1.394 . S
C1410 C1411 1.369 . S
C1410 C1414 1.531 . S
C1411 C1410 1.369 . S
C1411 C1412 1.410 . S
C1411 C1419 1.503 1_455 S
C1412 C1411 1.410 . S
C1412 C1413 1.392 . S
C1412 C1415 1.511 1_455 S
C1413 C1409 1.376 . S
C1413 C1412 1.392 . S
C1413 H1425 0.929 . S
C1414 C1410 1.531 . S
C1414 H1426 0.960 . S
C1414 H1427 0.962 . S
C1414 H1428 0.960 . S
C1415 C1412 1.511 1_655 S
C1415 H1429 0.961 . S
C1415 H1430 0.961 . S
C1415 H1431 0.961 . S
C1416 C1417 1.370 . S
C1416 C1418 1.363 . S
C1416 H1432 0.931 . S
C1417 C1416 1.370 . S
C1417 C1421 1.408 . S
C1418 C1416 1.363 . S
C1418 C1419 1.370 . S
C1418 C1422 1.524 . S
C1419 C1411 1.503 1_655 S
C1419 C1418 1.370 . S
C1419 C1420 1.403 . S
C1420 C1419 1.403 . S
C1420 C1421 1.404 . S
C1420 C1423 1.539 . S
C1421 C1417 1.408 . S
C1421 C1420 1.404 . S
C1421 H1433 0.930 . S
C1422 C1418 1.524 . S
C1422 H1434 0.956 1_655 S
C1422 H1435 0.961 . S
C1422 H1436 0.961 . S
C1423 C1420 1.539 . S
C1423 H1437 0.958 . S
C1423 H1438 0.961 . S
C1423 H1439 0.960 . S
H1424 C1408 0.931 . S
H1425 C1413 0.929 . S
H1426 C1414 0.960 . S
H1427 C1414 0.962 . S
H1428 C1414 0.960 . S
H1429 C1415 0.961 . S
H1430 C1415 0.961 . S
H1431 C1415 0.961 . S
H1432 C1416 0.931 . S
H1433 C1421 0.930 . S
H1434 C1422 0.956 1_455 S
H1435 C1422 0.961 . S
H1436 C1422 0.961 . S
H1437 C1423 0.958 . S
H1438 C1423 0.961 . S
H1439 C1423 0.960 . S
C1440 C1441 1.391 . S
C1440 C1442 1.394 . S
C1440 H1456 0.931 . S
C1441 C1440 1.391 . S
C1441 C1445 1.376 . S
C1442 C1440 1.394 . S
C1442 C1443 1.369 . S
C1442 C1446 1.531 . S
C1443 C1442 1.369 . S
C1443 C1444 1.410 . S
C1443 C1451 1.503 . S
C1444 C1443 1.410 . S
C1444 C1445 1.392 . S
C1444 C1447 1.511 . S
C1445 C1441 1.376 . S
C1445 C1444 1.392 . S
C1445 H1457 0.929 . S
C1446 C1442 1.531 . S
C1446 H1458 0.960 . S
C1446 H1459 0.962 . S
C1446 H1460 0.960 . S
C1447 C1444 1.511 . S
C1447 H1461 0.961 . S
C1447 H1462 0.961 . S
C1447 H1463 0.961 . S
C1448 C1449 1.370 . S
C1448 C1450 1.363 . S
C1448 H1464 0.931 . S
C1449 C1448 1.370 . S
C1449 C1453 1.408 . S
C1450 C1448 1.363 . S
C1450 C1451 1.370 . S
C1450 C1454 1.524 . S
C1451 C1443 1.503 . S
C1451 C1450 1.370 . S
C1451 C1452 1.403 . S
C1452 C1451 1.403 . S
C1452 C1453 1.404 . S
C1452 C1455 1.539 . S
C1453 C1449 1.408 . S
C1453 C1452 1.404 . S
C1453 H1465 0.930 . S
C1454 C1450 1.524 . S
C1454 H1466 0.956 . S
C1454 H1467 0.961 . S
C1454 H1468 0.961 . S
C1455 C1452 1.539 . S
C1455 H1469 0.958 . S
C1455 H1470 0.961 . S
C1455 H1471 0.960 . S
H1456 C1440 0.931 . S
H1457 C1445 0.929 . S
H1458 C1446 0.960 . S
H1459 C1446 0.962 . S
H1460 C1446 0.960 . S
H1461 C1447 0.961 . S
H1462 C1447 0.961 . S
H1463 C1447 0.961 . S
H1464 C1448 0.931 . S
H1465 C1453 0.930 . S
H1466 C1454 0.956 . S
H1467 C1454 0.961 . S
H1468 C1454 0.961 . S
H1469 C1455 0.958 . S
H1470 C1455 0.961 . S
H1471 C1455 0.960 . S
C1472 C1473 1.391 . S
C1472 C1474 1.394 . S
C1472 H1488 0.931 . S
C1473 C1472 1.391 . S
C1473 C1477 1.376 . S
C1474 C1472 1.394 . S
C1474 C1475 1.369 . S
C1474 C1478 1.531 . S
C1475 C1474 1.369 . S
C1475 C1476 1.410 . S
C1475 C1483 1.503 . S
C1476 C1475 1.410 . S
C1476 C1477 1.392 . S
C1476 C1479 1.511 . S
C1477 C1473 1.376 . S
C1477 C1476 1.392 . S
C1477 H1489 0.929 . S
C1478 C1474 1.531 . S
C1478 H1490 0.960 . S
C1478 H1491 0.962 . S
C1478 H1492 0.960 . S
C1479 C1476 1.511 . S
C1479 H1493 0.961 . S
C1479 H1494 0.961 . S
C1479 H1495 0.961 . S
C1480 C1481 1.370 . S
C1480 C1482 1.363 . S
C1480 H1496 0.931 . S
C1481 C1480 1.370 . S
C1481 C1485 1.408 . S
C1482 C1480 1.363 . S
C1482 C1483 1.370 . S
C1482 C1486 1.524 . S
C1483 C1475 1.503 . S
C1483 C1482 1.370 . S
C1483 C1484 1.403 . S
C1484 C1483 1.403 . S
C1484 C1485 1.404 . S
C1484 C1487 1.539 . S
C1485 C1481 1.408 . S
C1485 C1484 1.404 . S
C1485 H1497 0.930 . S
C1486 C1482 1.524 . S
C1486 H1498 0.956 . S
C1486 H1499 0.961 . S
C1486 H1500 0.961 . S
C1487 C1484 1.539 . S
C1487 H1501 0.958 . S
C1487 H1502 0.961 . S
C1487 H1503 0.960 . S
H1488 C1472 0.931 . S
H1489 C1477 0.929 . S
H1490 C1478 0.960 . S
H1491 C1478 0.962 . S
H1492 C1478 0.960 . S
H1493 C1479 0.961 . S
H1494 C1479 0.961 . S
H1495 C1479 0.961 . S
H1496 C1480 0.931 . S
H1497 C1485 0.930 . S
H1498 C1486 0.956 . S
H1499 C1486 0.961 . S
H1500 C1486 0.961 . S
H1501 C1487 0.958 . S
H1502 C1487 0.961 . S
H1503 C1487 0.960 . S
C1504 C1505 1.391 . S
C1504 C1506 1.394 . S
C1504 H1520 0.931 . S
C1505 C1504 1.391 . S
C1505 C1509 1.376 . S
C1506 C1504 1.394 . S
C1506 C1507 1.369 . S
C1506 C1510 1.531 . S
C1507 C1506 1.369 . S
C1507 C1508 1.410 . S
C1507 C1515 1.503 . S
C1508 C1507 1.410 . S
C1508 C1509 1.392 . S
C1508 C1511 1.511 . S
C1509 C1505 1.376 . S
C1509 C1508 1.392 . S
C1509 H1521 0.929 . S
C1510 C1506 1.531 . S
C1510 H1522 0.960 . S
C1510 H1523 0.962 . S
C1510 H1524 0.960 . S
C1511 C1508 1.511 . S
C1511 H1525 0.961 . S
C1511 H1526 0.961 . S
C1511 H1527 0.961 . S
C1512 C1513 1.370 . S
C1512 C1514 1.363 . S
C1512 H1528 0.931 . S
C1513 C1512 1.370 . S
C1513 C1517 1.408 . S
C1514 C1512 1.363 . S
C1514 C1515 1.370 . S
C1514 C1518 1.524 . S
C1515 C1507 1.503 . S
C1515 C1514 1.370 . S
C1515 C1516 1.403 . S
C1516 C1515 1.403 . S
C1516 C1517 1.404 . S
C1516 C1519 1.539 . S
C1517 C1513 1.408 . S
C1517 C1516 1.404 . S
C1517 H1529 0.930 . S
C1518 C1514 1.524 . S
C1518 H1530 0.956 . S
C1518 H1531 0.961 . S
C1518 H1532 0.961 . S
C1519 C1516 1.539 . S
C1519 H1533 0.958 . S
C1519 H1534 0.961 . S
C1519 H1535 0.960 . S
H1520 C1504 0.931 . S
H1521 C1509 0.929 . S
H1522 C1510 0.960 . S
H1523 C1510 0.962 . S
H1524 C1510 0.960 . S
H1525 C1511 0.961 . S
H1526 C1511 0.961 . S
H1527 C1511 0.961 . S
H1528 C1512 0.931 . S
H1529 C1517 0.930 . S
H1530 C1518 0.956 . S
H1531 C1518 0.961 . S
H1532 C1518 0.961 . S
H1533 C1519 0.958 . S
H1534 C1519 0.961 . S
H1535 C1519 0.960 . S
C1536 C1537 1.391 . S
C1536 C1538 1.394 . S
C1536 H1552 0.931 . S
C1537 C1536 1.391 . S
C1537 C1541 1.376 . S
C1538 C1536 1.394 . S
C1538 C1539 1.369 . S
C1538 C1542 1.531 . S
C1539 C1538 1.369 . S
C1539 C1540 1.410 . S
C1539 C1547 1.503 . S
C1540 C1539 1.410 . S
C1540 C1541 1.392 . S
C1540 C1543 1.511 . S
C1541 C1537 1.376 . S
C1541 C1540 1.392 . S
C1541 H1553 0.929 . S
C1542 C1538 1.531 . S
C1542 H1554 0.960 . S
C1542 H1555 0.962 . S
C1542 H1556 0.960 . S
C1543 C1540 1.511 . S
C1543 H1557 0.961 . S
C1543 H1558 0.961 . S
C1543 H1559 0.961 . S
C1544 C1545 1.370 . S
C1544 C1546 1.363 . S
C1544 H1560 0.931 . S
C1545 C1544 1.370 . S
C1545 C1549 1.408 . S
C1546 C1544 1.363 . S
C1546 C1547 1.370 . S
C1546 C1550 1.524 . S
C1547 C1539 1.503 . S
C1547 C1546 1.370 . S
C1547 C1548 1.403 . S
C1548 C1547 1.403 . S
C1548 C1549 1.404 . S
C1548 C1551 1.539 . S
C1549 C1545 1.408 . S
C1549 C1548 1.404 . S
C1549 H1561 0.930 . S
C1550 C1546 1.524 . S
C1550 H1562 0.956 . S
C1550 H1563 0.961 . S
C1550 H1564 0.961 . S
C1551 C1548 1.539 . S
C1551 H1565 0.958 . S
C1551 H1566 0.961 . S
C1551 H1567 0.960 . S
H1552 C1536 0.931 . S
H1553 C1541 0.929 . S
H1554 C1542 0.960 . S
H1555 C1542 0.962 . S
H1556 C1542 0.960 . S
H1557 C1543 0.961 . S
H1558 C1543 0.961 . S
H1559 C1543 0.961 . S
H1560 C1544 0.931 . S
H1561 C1549 0.930 . S
H1562 C1550 0.956 . S
H1563 C1550 0.961 . S
H1564 C1550 0.961 . S
H1565 C1551 0.958 . S
H1566 C1551 0.961 . S
H1567 C1551 0.960 . S
C1568 C1569 1.391 . S
C1568 C1570 1.394 . S
C1568 H1584 0.931 . S
C1569 C1568 1.391 . S
C1569 C1573 1.376 . S
C1570 C1568 1.394 . S
C1570 C1571 1.369 . S
C1570 C1574 1.531 . S
C1571 C1570 1.369 . S
C1571 C1572 1.410 . S
C1571 C1579 1.503 . S
C1572 C1571 1.410 . S
C1572 C1573 1.392 . S
C1572 C1575 1.511 . S
C1573 C1569 1.376 . S
C1573 C1572 1.392 . S
C1573 H1585 0.929 . S
C1574 C1570 1.531 . S
C1574 H1586 0.960 . S
C1574 H1587 0.962 . S
C1574 H1588 0.960 . S
C1575 C1572 1.511 . S
C1575 H1589 0.961 . S
C1575 H1590 0.961 . S
C1575 H1591 0.961 . S
C1576 C1577 1.370 . S
C1576 C1578 1.363 . S
C1576 H1592 0.931 . S
C1577 C1576 1.370 . S
C1577 C1581 1.408 . S
C1578 C1576 1.363 . S
C1578 C1579 1.370 . S
C1578 C1582 1.524 . S
C1579 C1571 1.503 . S
C1579 C1578 1.370 . S
C1579 C1580 1.403 . S
C1580 C1579 1.403 . S
C1580 C1581 1.404 . S
C1580 C1583 1.539 . S
C1581 C1577 1.408 . S
C1581 C1580 1.404 . S
C1581 H1593 0.930 . S
C1582 C1578 1.524 . S
C1582 H1594 0.956 . S
C1582 H1595 0.961 . S
C1582 H1596 0.961 . S
C1583 C1580 1.539 . S
C1583 H1597 0.958 . S
C1583 H1598 0.961 . S
C1583 H1599 0.960 . S
H1584 C1568 0.931 . S
H1585 C1573 0.929 . S
H1586 C1574 0.960 . S
H1587 C1574 0.962 . S
H1588 C1574 0.960 . S
H1589 C1575 0.961 . S
H1590 C1575 0.961 . S
H1591 C1575 0.961 . S
H1592 C1576 0.931 . S
H1593 C1581 0.930 . S
H1594 C1582 0.956 . S
H1595 C1582 0.961 . S
H1596 C1582 0.961 . S
H1597 C1583 0.958 . S
H1598 C1583 0.961 . S
H1599 C1583 0.960 . S
C1600 C1601 1.391 . S
C1600 C1602 1.394 . S
C1600 H1616 0.931 . S
C1601 C1600 1.391 . S
C1601 C1605 1.376 . S
C1602 C1600 1.394 . S
C1602 C1603 1.369 . S
C1602 C1606 1.531 . S
C1603 C1602 1.369 . S
C1603 C1604 1.410 . S
C1603 C1611 1.503 . S
C1604 C1603 1.410 . S
C1604 C1605 1.392 . S
C1604 C1607 1.511 . S
C1605 C1601 1.376 . S
C1605 C1604 1.392 . S
C1605 H1617 0.929 . S
C1606 C1602 1.531 . S
C1606 H1618 0.960 . S
C1606 H1619 0.962 . S
C1606 H1620 0.960 . S
C1607 C1604 1.511 . S
C1607 H1621 0.961 . S
C1607 H1622 0.961 . S
C1607 H1623 0.961 . S
C1608 C1609 1.370 . S
C1608 C1610 1.363 . S
C1608 H1624 0.931 . S
C1609 C1608 1.370 . S
C1609 C1613 1.408 . S
C1610 C1608 1.363 . S
C1610 C1611 1.370 . S
C1610 C1614 1.524 . S
C1611 C1603 1.503 . S
C1611 C1610 1.370 . S
C1611 C1612 1.403 . S
C1612 C1611 1.403 . S
C1612 C1613 1.404 . S
C1612 C1615 1.539 . S
C1613 C1609 1.408 . S
C1613 C1612 1.404 . S
C1613 H1625 0.930 . S
C1614 C1610 1.524 . S
C1614 H1626 0.956 . S
C1614 H1627 0.961 . S
C1614 H1628 0.961 . S
C1615 C1612 1.539 . S
C1615 H1629 0.958 . S
C1615 H1630 0.961 . S
C1615 H1631 0.960 . S
H1616 C1600 0.931 . S
H1617 C1605 0.929 . S
H1618 C1606 0.960 . S
H1619 C1606 0.962 . S
H1620 C1606 0.960 . S
H1621 C1607 0.961 . S
H1622 C1607 0.961 . S
H1623 C1607 0.961 . S
H1624 C1608 0.931 . S
H1625 C1613 0.930 . S
H1626 C1614 0.956 . S
H1627 C1614 0.961 . S
H1628 C1614 0.961 . S
H1629 C1615 0.958 . S
H1630 C1615 0.961 . S
H1631 C1615 0.960 . S
C481 C2 0.915 . S
C489 C322 0.922 . S
C513 C42 0.907 . S
C521 C362 0.926 . S
C545 C82 0.908 . S
C553 C402 0.927 . S
C577 C442 0.933 . S
C585 C122 0.938 . S
C609 C162 0.903 . S
C617 C242 0.934 . S
C641 C282 0.947 . S
C649 C202 0.935 . S
C673 C417 1.382 . S
C681 C17 1.380 . S
C705 C457 1.408 . S
C713 C57 1.385 . S
C737 C97 1.421 . S
C745 C257 1.395 . S
C769 C297 1.404 . S
C777 C137 1.396 . S
C801 C337 1.418 . S
C809 C177 1.391 . S
C833 C217 1.379 . S
C841 C377 1.382 . S
C865 C304 4.428 . S
C873 C24 4.429 . S
C897 C344 4.423 . S
C905 C64 4.428 . S
C929 C384 4.418 . S
C937 C104 4.433 . S
C961 C144 4.428 . S
C969 C424 4.436 . S
C993 C184 4.429 . S
C1001 C464 4.436 . S
C1025 C224 4.416 . S
C1033 C264 4.432 . S
C1057 C23 0.778 . S
C1065 C143 0.698 . S
C1089 C63 0.677 . S
C1097 C183 0.736 . S
C1121 C103 0.721 . S
C1129 C223 0.677 . S
C1153 C383 0.719 . S
C1161 C263 0.739 . S
C1185 C303 0.636 . S
C1193 C423 0.719 . S
C1217 C463 0.729 . S
C1225 C343 0.678 . S
C1249 C306 0.927 . S
C1257 C26 0.862 . S
C1281 C346 0.952 . S
C1289 C66 0.902 . S
C1313 C106 0.861 . S
C1321 C386 0.857 . S
C1345 C426 0.945 . S
C1353 C146 0.906 . S
C1377 C466 0.903 . S
C1385 C186 0.911 . S
C1409 C226 0.939 . S
C1417 C266 0.908 . S
C1441 C13 4.560 . S
C1449 C413 4.569 . S
C1473 C53 4.558 . S
C1481 C453 4.568 1_556 S
C1505 C93 4.563 1_554 S
C1513 C253 4.570 . S
C1537 C133 4.568 . S
C1545 C293 4.571 . S
C1569 C173 4.567 . S
C1577 C333 4.571 1_556 S
C1601 C373 4.563 . S
C1609 C213 4.569 1_554 S
