# Generated by pormake.
# Topology svz, (7)-cn, num edge types: 1
# Building blocks:
#     Node 0, Type 0, BuildingBlock: HICVOG_clean_sbu_0, # of connection points: 7
#     Node 1, Type 0, BuildingBlock: HICVOG_clean_sbu_0, # of connection points: 7
#     Node 2, Type 0, BuildingBlock: HICVOG_clean_sbu_0, # of connection points: 7
#     Node 3, Type 0, BuildingBlock: HICVOG_clean_sbu_0, # of connection points: 7
#     Node 4, Type 0, BuildingBlock: HICVOG_clean_sbu_0, # of connection points: 7
#     Node 5, Type 0, BuildingBlock: HICVOG_clean_sbu_0, # of connection points: 7
#     Node 6, Type 0, BuildingBlock: HICVOG_clean_sbu_0, # of connection points: 7
#     Node 7, Type 0, BuildingBlock: HICVOG_clean_sbu_0, # of connection points: 7
#     Node 8, Type 0, BuildingBlock: HICVOG_clean_sbu_0, # of connection points: 7
#     Node 9, Type 0, BuildingBlock: HICVOG_clean_sbu_0, # of connection points: 7
#     Node 10, Type 0, BuildingBlock: HICVOG_clean_sbu_0, # of connection points: 7
#     Node 11, Type 0, BuildingBlock: HICVOG_clean_sbu_0, # of connection points: 7
#     Node 12, Type 0, BuildingBlock: HICVOG_clean_sbu_0, # of connection points: 7
#     Node 13, Type 0, BuildingBlock: HICVOG_clean_sbu_0, # of connection points: 7
#     Node 14, Type 0, BuildingBlock: HICVOG_clean_sbu_0, # of connection points: 7
#     Node 15, Type 0, BuildingBlock: HICVOG_clean_sbu_0, # of connection points: 7
#     Node 16, Type 0, BuildingBlock: HICVOG_clean_sbu_0, # of connection points: 7
#     Node 17, Type 0, BuildingBlock: HICVOG_clean_sbu_0, # of connection points: 7
#     Node 18, Type 0, BuildingBlock: HICVOG_clean_sbu_0, # of connection points: 7
#     Node 19, Type 0, BuildingBlock: HICVOG_clean_sbu_0, # of connection points: 7
#     Node 20, Type 0, BuildingBlock: HICVOG_clean_sbu_0, # of connection points: 7
#     Node 21, Type 0, BuildingBlock: HICVOG_clean_sbu_0, # of connection points: 7
#     Node 22, Type 0, BuildingBlock: HICVOG_clean_sbu_0, # of connection points: 7
#     Node 23, Type 0, BuildingBlock: HICVOG_clean_sbu_0, # of connection points: 7
#     Node 24, Type 0, BuildingBlock: HICVOG_clean_sbu_0, # of connection points: 7
#     Node 25, Type 0, BuildingBlock: HICVOG_clean_sbu_0, # of connection points: 7
#     Node 26, Type 0, BuildingBlock: HICVOG_clean_sbu_0, # of connection points: 7
#     Node 27, Type 0, BuildingBlock: HICVOG_clean_sbu_0, # of connection points: 7
#     Node 28, Type 0, BuildingBlock: HICVOG_clean_sbu_0, # of connection points: 7
#     Node 29, Type 0, BuildingBlock: HICVOG_clean_sbu_0, # of connection points: 7
#     Node 30, Type 0, BuildingBlock: HICVOG_clean_sbu_0, # of connection points: 7
#     Node 31, Type 0, BuildingBlock: HICVOG_clean_sbu_0, # of connection points: 7
#     Node 32, Type 0, BuildingBlock: HICVOG_clean_sbu_0, # of connection points: 7
#     Node 33, Type 0, BuildingBlock: HICVOG_clean_sbu_0, # of connection points: 7
#     Node 34, Type 0, BuildingBlock: HICVOG_clean_sbu_0, # of connection points: 7
#     Node 35, Type 0, BuildingBlock: HICVOG_clean_sbu_0, # of connection points: 7
#     Node 36, Type 0, BuildingBlock: HICVOG_clean_sbu_0, # of connection points: 7
#     Node 37, Type 0, BuildingBlock: HICVOG_clean_sbu_0, # of connection points: 7
#     Node 38, Type 0, BuildingBlock: HICVOG_clean_sbu_0, # of connection points: 7
#     Node 39, Type 0, BuildingBlock: HICVOG_clean_sbu_0, # of connection points: 7
#     Node 40, Type 0, BuildingBlock: HICVOG_clean_sbu_0, # of connection points: 7
#     Node 41, Type 0, BuildingBlock: HICVOG_clean_sbu_0, # of connection points: 7
#     Node 42, Type 0, BuildingBlock: HICVOG_clean_sbu_0, # of connection points: 7
#     Node 43, Type 0, BuildingBlock: HICVOG_clean_sbu_0, # of connection points: 7
#     Node 44, Type 0, BuildingBlock: HICVOG_clean_sbu_0, # of connection points: 7
#     Node 45, Type 0, BuildingBlock: HICVOG_clean_sbu_0, # of connection points: 7
#     Node 46, Type 0, BuildingBlock: HICVOG_clean_sbu_0, # of connection points: 7
#     Node 47, Type 0, BuildingBlock: HICVOG_clean_sbu_0, # of connection points: 7
#     Edge 48, Type (0, 0), None
#     Edge 49, Type (0, 0), None
#     Edge 50, Type (0, 0), None
#     Edge 51, Type (0, 0), None
#     Edge 52, Type (0, 0), None
#     Edge 53, Type (0, 0), None
#     Edge 54, Type (0, 0), None
#     Edge 55, Type (0, 0), None
#     Edge 56, Type (0, 0), None
#     Edge 57, Type (0, 0), None
#     Edge 58, Type (0, 0), None
#     Edge 59, Type (0, 0), None
#     Edge 60, Type (0, 0), None
#     Edge 61, Type (0, 0), None
#     Edge 62, Type (0, 0), None
#     Edge 63, Type (0, 0), None
#     Edge 64, Type (0, 0), None
#     Edge 65, Type (0, 0), None
#     Edge 66, Type (0, 0), None
#     Edge 67, Type (0, 0), None
#     Edge 68, Type (0, 0), None
#     Edge 69, Type (0, 0), None
#     Edge 70, Type (0, 0), None
#     Edge 71, Type (0, 0), None
#     Edge 72, Type (0, 0), None
#     Edge 73, Type (0, 0), None
#     Edge 74, Type (0, 0), None
#     Edge 75, Type (0, 0), None
#     Edge 76, Type (0, 0), None
#     Edge 77, Type (0, 0), None
#     Edge 78, Type (0, 0), None
#     Edge 79, Type (0, 0), None
#     Edge 80, Type (0, 0), None
#     Edge 81, Type (0, 0), None
#     Edge 82, Type (0, 0), None
#     Edge 83, Type (0, 0), None
#     Edge 84, Type (0, 0), None
#     Edge 85, Type (0, 0), None
#     Edge 86, Type (0, 0), None
#     Edge 87, Type (0, 0), None
#     Edge 88, Type (0, 0), None
#     Edge 89, Type (0, 0), None
#     Edge 90, Type (0, 0), None
#     Edge 91, Type (0, 0), None
#     Edge 92, Type (0, 0), None
#     Edge 93, Type (0, 0), None
#     Edge 94, Type (0, 0), None
#     Edge 95, Type (0, 0), None
#     Edge 96, Type (0, 0), None
#     Edge 97, Type (0, 0), None
#     Edge 98, Type (0, 0), None
#     Edge 99, Type (0, 0), None
#     Edge 100, Type (0, 0), None
#     Edge 101, Type (0, 0), None
#     Edge 102, Type (0, 0), None
#     Edge 103, Type (0, 0), None
#     Edge 104, Type (0, 0), None
#     Edge 105, Type (0, 0), None
#     Edge 106, Type (0, 0), None
#     Edge 107, Type (0, 0), None
#     Edge 108, Type (0, 0), None
#     Edge 109, Type (0, 0), None
#     Edge 110, Type (0, 0), None
#     Edge 111, Type (0, 0), None
#     Edge 112, Type (0, 0), None
#     Edge 113, Type (0, 0), None
#     Edge 114, Type (0, 0), None
#     Edge 115, Type (0, 0), None
#     Edge 116, Type (0, 0), None
#     Edge 117, Type (0, 0), None
#     Edge 118, Type (0, 0), None
#     Edge 119, Type (0, 0), None
#     Edge 120, Type (0, 0), None
#     Edge 121, Type (0, 0), None
#     Edge 122, Type (0, 0), None
#     Edge 123, Type (0, 0), None
#     Edge 124, Type (0, 0), None
#     Edge 125, Type (0, 0), None
#     Edge 126, Type (0, 0), None
#     Edge 127, Type (0, 0), None
#     Edge 128, Type (0, 0), None
#     Edge 129, Type (0, 0), None
#     Edge 130, Type (0, 0), None
#     Edge 131, Type (0, 0), None
#     Edge 132, Type (0, 0), None
#     Edge 133, Type (0, 0), None
#     Edge 134, Type (0, 0), None
#     Edge 135, Type (0, 0), None
#     Edge 136, Type (0, 0), None
#     Edge 137, Type (0, 0), None
#     Edge 138, Type (0, 0), None
#     Edge 139, Type (0, 0), None
#     Edge 140, Type (0, 0), None
#     Edge 141, Type (0, 0), None
#     Edge 142, Type (0, 0), None
#     Edge 143, Type (0, 0), None
#     Edge 144, Type (0, 0), None
#     Edge 145, Type (0, 0), None
#     Edge 146, Type (0, 0), None
#     Edge 147, Type (0, 0), None
#     Edge 148, Type (0, 0), None
#     Edge 149, Type (0, 0), None
#     Edge 150, Type (0, 0), None
#     Edge 151, Type (0, 0), None
#     Edge 152, Type (0, 0), None
#     Edge 153, Type (0, 0), None
#     Edge 154, Type (0, 0), None
#     Edge 155, Type (0, 0), None
#     Edge 156, Type (0, 0), None
#     Edge 157, Type (0, 0), None
#     Edge 158, Type (0, 0), None
#     Edge 159, Type (0, 0), None
#     Edge 160, Type (0, 0), None
#     Edge 161, Type (0, 0), None
#     Edge 162, Type (0, 0), None
#     Edge 163, Type (0, 0), None
#     Edge 164, Type (0, 0), None
#     Edge 165, Type (0, 0), None
#     Edge 166, Type (0, 0), None
#     Edge 167, Type (0, 0), None
#     Edge 168, Type (0, 0), None
#     Edge 169, Type (0, 0), None
#     Edge 170, Type (0, 0), None
#     Edge 171, Type (0, 0), None
#     Edge 172, Type (0, 0), None
#     Edge 173, Type (0, 0), None
#     Edge 174, Type (0, 0), None
#     Edge 175, Type (0, 0), None
#     Edge 176, Type (0, 0), None
#     Edge 177, Type (0, 0), None
#     Edge 178, Type (0, 0), None
#     Edge 179, Type (0, 0), None
#     Edge 180, Type (0, 0), None
#     Edge 181, Type (0, 0), None
#     Edge 182, Type (0, 0), None
#     Edge 183, Type (0, 0), None
#     Edge 184, Type (0, 0), None
#     Edge 185, Type (0, 0), None
#     Edge 186, Type (0, 0), None
#     Edge 187, Type (0, 0), None
#     Edge 188, Type (0, 0), None
#     Edge 189, Type (0, 0), None
#     Edge 190, Type (0, 0), None
#     Edge 191, Type (0, 0), None
#     Edge 192, Type (0, 0), None
#     Edge 193, Type (0, 0), None
#     Edge 194, Type (0, 0), None
#     Edge 195, Type (0, 0), None
#     Edge 196, Type (0, 0), None
#     Edge 197, Type (0, 0), None
#     Edge 198, Type (0, 0), None
#     Edge 199, Type (0, 0), None
#     Edge 200, Type (0, 0), None
#     Edge 201, Type (0, 0), None
#     Edge 202, Type (0, 0), None
#     Edge 203, Type (0, 0), None
#     Edge 204, Type (0, 0), None
#     Edge 205, Type (0, 0), None
#     Edge 206, Type (0, 0), None
#     Edge 207, Type (0, 0), None
#     Edge 208, Type (0, 0), None
#     Edge 209, Type (0, 0), None
#     Edge 210, Type (0, 0), None
#     Edge 211, Type (0, 0), None
#     Edge 212, Type (0, 0), None
#     Edge 213, Type (0, 0), None
#     Edge 214, Type (0, 0), None
#     Edge 215, Type (0, 0), None
# Relax obj value: 0.642
# Max RMSD: 0.273
# Mean RMSD: 0.273
data_MOF--net-svz--node1-HICVOG_clean_sbu_0--edge1-none
_symmetry_space_group_name_H-M    P1
_symmetry_Int_Tables_number       1
_symmetry_cell_setting            triclinic
loop_
_symmetry_equiv_pos_as_xyz
'x, y, z'
_cell_length_a     29.065506
_cell_length_b     29.042327
_cell_length_c     29.060697
_cell_angle_alpha  90.002423
_cell_angle_beta   89.999339
_cell_angle_gamma 89.801493
loop_
_atom_site_label
_atom_site_type_symbol
_atom_site_fract_x
_atom_site_fract_y
_atom_site_fract_z
_atom_type_partial_charge
Zn0 Zn 0.15048 0.67087 0.1584 0.0
C1 C 0.20736 0.65369 0.28768 0.0
N2 N 0.24515 0.63861 0.26578 0.0
C3 C 0.24258 0.65295 0.22167 0.0
N4 N 0.19857 0.66923 0.21379 0.0
N5 N 0.17803 0.66992 0.25527 0.0
C6 C 0.06593 0.69204 0.3079 0.0
O7 O 0.08556 0.71996 0.27842 0.0
O8 O 0.15724 0.6801 0.0867 0.0
Zn9 Zn 0.11956 0.63973 0.26168 0.0
N10 N 0.11862 0.72694 0.16973 0.0
C11 C 0.11262 0.79551 0.21264 0.0
C12 C 0.13858 0.75865 0.19726 0.0
C13 C 0.07466 0.73217 0.15454 0.0
N14 N 0.06662 0.79622 0.20398 0.0
C15 C 0.04644 0.76417 0.17639 0.0
O16 O 0.06845 0.65683 0.21962 0.0
C17 C 0.0626 0.63572 0.18269 0.0
O18 O 0.09798 0.62181 0.16093 0.0
H19 H 0.17404 0.75498 0.20774 0.0
H20 H 0.06079 0.7086 0.12947 0.0
C21 C 0.09985 0.54606 0.27985 0.0
C22 C 0.10684 0.4983 0.27879 0.0
C23 C 0.17291 0.50885 0.23243 0.0
C24 C 0.16525 0.55627 0.23269 0.0
N25 N 0.12954 0.57403 0.25736 0.0
N26 N 0.14366 0.48091 0.25566 0.0
H27 H 0.07144 0.56108 0.29879 0.0
C28 C 0.1263 0.66531 0.05831 0.0
O29 O 0.09574 0.6353 0.07215 0.0
O30 O 0.08693 0.65529 0.31915 0.0
H31 H 0.18764 0.57844 0.21333 0.0
H32 H 0.12892 0.82179 0.23303 0.0
H33 H 0.20163 0.49435 0.21362 0.0
Zn34 Zn 0.90032 0.15111 0.15191 0.0
C35 C 0.92102 0.2062 0.28093 0.0
N36 N 0.93709 0.24375 0.25928 0.0
C37 C 0.923 0.24168 0.21502 0.0
N38 N 0.90635 0.19809 0.20692 0.0
N39 N 0.90506 0.17723 0.24817 0.0
C40 C 0.88421 0.06463 0.30198 0.0
O41 O 0.85447 0.08548 0.27518 0.0
O42 O 0.89082 0.15809 0.08069 0.0
Zn43 Zn 0.93371 0.11739 0.25273 0.0
N44 N 0.84255 0.12406 0.16579 0.0
C45 C 0.77828 0.12151 0.21538 0.0
C46 C 0.81396 0.1459 0.19555 0.0
C47 C 0.83472 0.08008 0.15222 0.0
N48 N 0.77571 0.07537 0.20806 0.0
C49 C 0.80433 0.05364 0.17784 0.0
O50 O 0.91235 0.06661 0.21191 0.0
C51 C 0.93187 0.06029 0.17422 0.0
O52 O 0.94625 0.09536 0.15251 0.0
H53 H 0.81948 0.18148 0.20476 0.0
H54 H 0.85622 0.0645 0.12616 0.0
C55 C 1.02717 0.09613 0.26818 0.0
C56 C 0.07492 0.10168 0.26531 0.0
C57 C 0.06427 0.16439 0.21438 0.0
C58 C 1.01673 0.15844 0.2169 0.0
N59 N 0.99913 0.125 0.24453 0.0
N60 N 0.09234 0.13613 0.23893 0.0
H61 H 1.01224 0.0697 0.28973 0.0
C62 C 0.90825 0.12895 0.05186 0.0
O63 O 0.94282 0.10267 0.06425 0.0
O64 O 0.92162 0.08511 0.31117 0.0
H65 H 0.99431 0.1804 0.19705 0.0
H66 H 0.75498 0.13884 0.23858 0.0
H67 H 0.07876 0.19114 0.19301 0.0
Zn68 Zn 0.41894 0.89971 0.1584 0.0
C69 C 0.36205 0.9169 0.28767 0.0
N70 N 0.32425 0.93196 0.26577 0.0
C71 C 0.32684 0.91762 0.22166 0.0
N72 N 0.37085 0.90136 0.21378 0.0
N73 N 0.39139 0.90068 0.25527 0.0
C74 C 0.50344 0.87858 0.3079 0.0
O75 O 0.4838 0.85068 0.2784 0.0
O76 O 0.41219 0.89043 0.0867 0.0
Zn77 Zn 0.44983 0.93091 0.2617 0.0
N78 N 0.45082 0.84366 0.16978 0.0
C79 C 0.45681 0.77509 0.21268 0.0
C80 C 0.43085 0.81194 0.19728 0.0
C81 C 0.49478 0.83843 0.15461 0.0
N82 N 0.50281 0.77438 0.20404 0.0
C83 C 0.52299 0.80643 0.17646 0.0
O84 O 0.50097 0.91387 0.21965 0.0
C85 C 0.5068 0.93494 0.18269 0.0
O86 O 0.47142 0.9488 0.16091 0.0
H87 H 0.39537 0.81561 0.20775 0.0
H88 H 0.50866 0.86201 0.12954 0.0
C89 C 0.46945 1.02457 0.27997 0.0
C90 C 0.46242 0.07233 0.27896 0.0
C91 C 0.39637 0.06177 0.23257 0.0
C92 C 0.40408 1.01436 0.23278 0.0
N93 N 0.43979 0.9966 0.25744 0.0
N94 N 0.42558 0.08971 0.25584 0.0
H95 H 0.49786 1.00956 0.29891 0.0
C96 C 0.44314 0.90521 0.05831 0.0
O97 O 0.4737 0.93522 0.07214 0.0
O98 O 0.48245 0.91533 0.31917 0.0
H99 H 0.38171 0.99218 0.21338 0.0
H100 H 0.4405 0.74881 0.23306 0.0
H101 H 0.36765 0.07627 0.21377 0.0
Zn102 Zn 0.63601 0.45315 0.25269 0.0
C103 C 0.64654 0.32894 0.21498 0.0
N104 N 0.63239 0.32692 0.25924 0.0
C105 C 0.64855 0.36441 0.28092 0.0
N106 N 0.66466 0.39328 0.24816 0.0
N107 N 0.66341 0.37246 0.2069 0.0
C108 C 0.66123 0.4417 0.05187 0.0
O109 O 0.62679 0.4681 0.06431 0.0
O110 O 0.64814 0.48554 0.31107 0.0
Zn111 Zn 0.66915 0.4195 0.1519 0.0
N112 N 0.57057 0.44554 0.24455 0.0
C113 C 0.50543 0.40617 0.21437 0.0
C114 C 0.55297 0.41213 0.21689 0.0
C115 C 0.54252 0.47439 0.26823 0.0
N116 N 0.47736 0.43441 0.23894 0.0
C117 C 0.49477 0.46884 0.26535 0.0
O118 O 0.62313 0.47519 0.1526 0.0
C119 C 0.6376 0.51026 0.17425 0.0
O120 O 0.65732 0.50391 0.21183 0.0
H121 H 0.57539 0.39021 0.197 0.0
H122 H 0.55744 0.50081 0.2898 0.0
C123 C 0.73469 0.49058 0.15199 0.0
C124 C 0.76511 0.51709 0.17752 0.0
C125 C 0.79136 0.44929 0.21503 0.0
C126 C 0.75563 0.42485 0.19534 0.0
N127 N 0.72694 0.44662 0.16564 0.0
N128 N 0.79384 0.49543 0.20767 0.0
H129 H 0.71311 0.50612 0.12597 0.0
C130 C 0.68552 0.50608 0.30186 0.0
O131 O 0.7153 0.48527 0.27506 0.0
O132 O 0.67861 0.4125 0.08069 0.0
H133 H 0.75018 0.38927 0.20461 0.0
H134 H 0.49095 0.37944 0.19297 0.0
H135 H 0.81477 0.43201 0.23815 0.0
Zn136 Zn 0.14934 0.90003 0.41805 0.0
C137 C 0.20606 0.91644 0.28873 0.0
N138 N 0.24354 0.93253 0.31031 0.0
C139 C 0.24112 0.91938 0.35483 0.0
N140 N 0.1974 0.90265 0.36291 0.0
N141 N 0.17697 0.90074 0.3214 0.0
C142 C 0.06407 0.87808 0.2673 0.0
O143 O 0.083 0.85017 0.29738 0.0
O144 O 0.15636 0.89109 0.48982 0.0
Zn145 Zn 0.11837 0.93067 0.3134 0.0
N146 N 0.11864 0.84358 0.4061 0.0
C147 C 0.11431 0.7754 0.36238 0.0
C148 C 0.13948 0.8123 0.37855 0.0
C149 C 0.07449 0.83793 0.42042 0.0
N150 N 0.0682 0.77426 0.37027 0.0
C151 C 0.04712 0.80591 0.39779 0.0
O152 O 0.06761 0.91424 0.35534 0.0
C153 C 0.06105 0.93446 0.39263 0.0
O154 O 0.09584 0.94821 0.41528 0.0
H155 H 0.17506 0.81634 0.36867 0.0
H156 H 0.05986 0.86121 0.44544 0.0
C157 C 0.09922 1.02356 0.29128 0.0
C158 C 0.10597 0.0713 0.29091 0.0
C159 C 0.16946 0.0624 0.34111 0.0
C160 C 0.16209 1.01498 0.34214 0.0
N161 N 0.12777 0.9964 0.31633 0.0
N162 N 0.14139 0.08952 0.31535 0.0
H163 H 0.07186 1.00794 0.27147 0.0
C164 C 0.12545 0.90607 0.51825 0.0
O165 O 0.09469 0.93607 0.50435 0.0
O166 O 0.08559 0.91436 0.25597 0.0
H167 H 0.18361 0.99342 0.36333 0.0
H168 H 0.13128 0.74944 0.34194 0.0
H169 H 0.19697 0.07759 0.36095 0.0
Zn170 Zn 0.63598 0.11858 0.31168 0.0
C171 C 0.64841 0.24296 0.34834 0.0
N172 N 0.63302 0.24516 0.30454 0.0
C173 C 0.64817 0.20737 0.28251 0.0
N174 N 0.66492 0.17825 0.31494 0.0
N175 N 0.66482 0.19914 0.35618 0.0
C176 C 0.66205 0.12924 0.51129 0.0
O177 O 0.62843 0.10208 0.49875 0.0
O178 O 0.64806 0.08604 0.25363 0.0
Zn179 Zn 0.66898 0.152 0.41143 0.0
N180 N 0.57056 0.12723 0.32012 0.0
C181 C 0.50614 0.16906 0.3492 0.0
C182 C 0.55357 0.1623 0.34623 0.0
C183 C 0.54196 0.09742 0.29861 0.0
N184 N 0.47752 0.13979 0.32683 0.0
C185 C 0.49426 0.10366 0.30214 0.0
O186 O 0.62175 0.09747 0.41079 0.0
C187 C 0.63643 0.06179 0.39012 0.0
O188 O 0.65712 0.06739 0.35295 0.0
H189 H 0.57637 0.18494 0.3646 0.0
H190 H 0.55641 0.06969 0.27826 0.0
C191 C 0.73359 0.07973 0.41323 0.0
C192 C 0.76439 0.05242 0.38888 0.0
C193 C 0.7919 0.11924 0.35085 0.0
C194 C 0.75585 0.14443 0.36923 0.0
N195 N 0.72636 0.12351 0.39858 0.0
N196 N 0.79393 0.07319 0.359 0.0
H197 H 0.71144 0.06493 0.4391 0.0
C198 C 0.68548 0.0655 0.26327 0.0
O199 O 0.71522 0.08669 0.28963 0.0
O200 O 0.67869 0.15882 0.48256 0.0
H201 H 0.75088 0.17994 0.35931 0.0
H202 H 0.49218 0.19725 0.36921 0.0
H203 H 0.81604 0.13595 0.32823 0.0
Zn204 Zn 0.42011 0.67052 0.41803 0.0
C205 C 0.36339 0.65406 0.28871 0.0
N206 N 0.3259 0.63799 0.31029 0.0
C207 C 0.32833 0.65114 0.3548 0.0
N208 N 0.37206 0.66785 0.36288 0.0
N209 N 0.39249 0.66974 0.32138 0.0
C210 C 0.50538 0.69244 0.26725 0.0
O211 O 0.48645 0.72035 0.29734 0.0
O212 O 0.41308 0.67945 0.48981 0.0
Zn213 Zn 0.45112 0.63984 0.31336 0.0
N214 N 0.45077 0.72698 0.40608 0.0
C215 C 0.4551 0.79513 0.36232 0.0
C216 C 0.42993 0.75823 0.37851 0.0
C217 C 0.49492 0.73265 0.42041 0.0
N218 N 0.50121 0.79629 0.37023 0.0
C219 C 0.52229 0.76466 0.39777 0.0
O220 O 0.50185 0.65631 0.35531 0.0
C221 C 0.50841 0.63613 0.39263 0.0
O222 O 0.47362 0.62237 0.41526 0.0
H223 H 0.39436 0.75418 0.36862 0.0
H224 H 0.50954 0.70939 0.44545 0.0
C225 C 0.47041 0.54695 0.29132 0.0
C226 C 0.4637 0.49921 0.29095 0.0
C227 C 0.4001 0.50807 0.34102 0.0
C228 C 0.40742 0.5555 0.34204 0.0
N229 N 0.44178 0.5741 0.3163 0.0
N230 N 0.42824 0.48097 0.31533 0.0
H231 H 0.49779 0.56259 0.27156 0.0
C232 C 0.444 0.66446 0.51823 0.0
O233 O 0.47475 0.63446 0.50434 0.0
O234 O 0.48388 0.65616 0.25593 0.0
H235 H 0.38583 0.57705 0.36318 0.0
H236 H 0.43813 0.82107 0.34186 0.0
H237 H 0.37256 0.49287 0.36081 0.0
Zn238 Zn 0.93326 0.45204 0.31165 0.0
C239 C 0.92093 0.32765 0.34832 0.0
N240 N 0.93634 0.32546 0.30453 0.0
C241 C 0.92115 0.36323 0.28249 0.0
N242 N 0.90436 0.39234 0.31492 0.0
N243 N 0.90448 0.37146 0.35615 0.0
C244 C 0.90738 0.44133 0.51129 0.0
O245 O 0.94095 0.46855 0.49873 0.0
O246 O 0.92107 0.48468 0.25367 0.0
Zn247 Zn 0.90042 0.41858 0.41143 0.0
N248 N 0.9987 0.44342 0.32 0.0
C249 C 0.06313 0.40158 0.34903 0.0
C250 C 1.0157 0.40835 0.3461 0.0
C251 C 1.02729 0.47322 0.29847 0.0
N252 N 0.09174 0.43084 0.32664 0.0
C253 C 0.07499 0.46698 0.30196 0.0
O254 O 0.94766 0.4731 0.41076 0.0
C255 C 0.93297 0.50879 0.39012 0.0
O256 O 0.91218 0.50319 0.353 0.0
H257 H 0.99292 0.38573 0.36449 0.0
H258 H 1.01283 0.50095 0.27813 0.0
C259 C 0.83584 0.49086 0.41339 0.0
C260 C 0.80504 0.51821 0.38911 0.0
C261 C 0.77739 0.45144 0.3511 0.0
C262 C 0.81347 0.42621 0.36937 0.0
N263 N 0.84303 0.44709 0.39869 0.0
N264 N 0.77542 0.49749 0.35927 0.0
H265 H 0.85806 0.50562 0.43924 0.0
C266 C 0.88368 0.50526 0.26336 0.0
O267 O 0.85394 0.4841 0.28976 0.0
O268 O 0.89076 0.41173 0.48256 0.0
H269 H 0.81841 0.39072 0.3594 0.0
H270 H 0.0771 0.37339 0.36904 0.0
H271 H 0.75317 0.43476 0.32853 0.0
Zn272 Zn 0.1574 0.15244 0.67268 0.0
C273 C 0.2836 0.20697 0.64703 0.0
N274 N 0.2618 0.24477 0.63136 0.0
C275 C 0.21797 0.24315 0.64679 0.0
N276 N 0.21041 0.19985 0.66422 0.0
N277 N 0.25133 0.17857 0.66441 0.0
C278 C 0.3081 0.07074 0.67597 0.0
O279 O 0.28656 0.09396 0.70808 0.0
O280 O 0.08712 0.16368 0.67862 0.0
Zn281 Zn 0.25197 0.12072 0.63339 0.0
N282 N 0.17463 0.12552 0.73093 0.0
C283 C 0.2301 0.12341 0.79086 0.0
C284 C 0.20689 0.14744 0.75667 0.0
C285 C 0.16334 0.08107 0.73966 0.0
N286 N 0.2241 0.07726 0.79408 0.0
C287 C 0.19234 0.05507 0.76782 0.0
O288 O 0.21544 0.06762 0.65854 0.0
C289 C 0.17695 0.06106 0.64073 0.0
O290 O 0.15468 0.0962 0.62746 0.0
H291 H 0.21539 0.18301 0.75017 0.0
H292 H 0.13608 0.0649 0.72031 0.0
C293 C 0.25902 0.11157 0.53793 0.0
C294 C 0.24847 0.11846 0.49142 0.0
C295 C 0.19103 0.17228 0.51249 0.0
C296 C 0.20013 0.16355 0.55885 0.0
N297 N 0.23439 0.13361 0.57058 0.0
N298 N 0.21512 0.14923 0.4797 0.0
H299 H 0.28611 0.0882 0.54844 0.0
C300 C 0.05643 0.13852 0.65866 0.0
O301 O 0.06776 0.11096 0.62479 0.0
O302 O 0.31242 0.08942 0.6367 0.0
H303 H 0.17965 0.18029 0.58487 0.0
H304 H 0.25483 0.14078 0.81238 0.0
H305 H 0.16421 0.19623 0.50266 0.0
Zn306 Zn 0.41872 0.1566 0.65977 0.0
C307 C 0.36462 0.28206 0.66964 0.0
N308 N 0.32919 0.25925 0.689 0.0
C309 C 0.32937 0.21615 0.67081 0.0
N310 N 0.37083 0.20899 0.64926 0.0
N311 N 0.39116 0.25026 0.64841 0.0
C312 C 0.49939 0.30296 0.6705 0.0
O313 O 0.4777 0.27206 0.69495 0.0
O314 O 0.40722 0.08692 0.67231 0.0
Zn315 Zn 0.44423 0.26382 0.61326 0.0
N316 N 0.44675 0.17511 0.71619 0.0
C317 C 0.44547 0.22247 0.78258 0.0
C318 C 0.42269 0.2016 0.74626 0.0
C319 C 0.49207 0.16611 0.7228 0.0
N320 N 0.49179 0.21787 0.7859 0.0
C321 C 0.51589 0.19069 0.75623 0.0
O322 O 0.50017 0.22153 0.61997 0.0
C323 C 0.50706 0.17881 0.61852 0.0
O324 O 0.47292 0.15205 0.61468 0.0
H325 H 0.3864 0.20725 0.74181 0.0
H326 H 0.50966 0.14188 0.70083 0.0
C327 C 0.45374 0.28063 0.52095 0.0
C328 C 0.44252 0.28046 0.47411 0.0
C329 C 0.36585 0.2605 0.493 0.0
C330 C 0.37797 0.25864 0.53942 0.0
N331 N 0.42198 0.2684 0.55202 0.0
N332 N 0.39852 0.27095 0.46128 0.0
H333 H 0.48717 0.29013 0.53386 0.0
C334 C 0.43546 0.05494 0.65954 0.0
O335 O 0.46872 0.06422 0.63059 0.0
O336 O 0.47955 0.31859 0.6346 0.0
H337 H 0.35258 0.24931 0.56487 0.0
H338 H 0.42651 0.24348 0.80673 0.0
H339 H 0.33104 0.25301 0.48222 0.0
Zn340 Zn 0.41209 0.41809 0.67268 0.0
C341 C 0.28587 0.36356 0.64699 0.0
N342 N 0.30767 0.32574 0.63133 0.0
C343 C 0.35146 0.3274 0.64682 0.0
N344 N 0.35907 0.3707 0.66421 0.0
N345 N 0.31815 0.39197 0.66438 0.0
C346 C 0.26138 0.49984 0.67602 0.0
O347 O 0.28294 0.47662 0.70812 0.0
O348 O 0.48236 0.40683 0.67862 0.0
Zn349 Zn 0.31749 0.44984 0.63339 0.0
N350 N 0.39486 0.445 0.73094 0.0
C351 C 0.33939 0.44714 0.79085 0.0
C352 C 0.3626 0.4231 0.75667 0.0
C353 C 0.40617 0.48945 0.73966 0.0
N354 N 0.3454 0.49329 0.79407 0.0
C355 C 0.37717 0.51547 0.76781 0.0
O356 O 0.35405 0.50292 0.65855 0.0
C357 C 0.39253 0.50947 0.64075 0.0
O358 O 0.41481 0.47433 0.62748 0.0
H359 H 0.35408 0.38753 0.75017 0.0
H360 H 0.43343 0.50561 0.7203 0.0
C361 C 0.31043 0.45902 0.53792 0.0
C362 C 0.32098 0.45212 0.49142 0.0
C363 C 0.37841 0.39829 0.51248 0.0
C364 C 0.36931 0.40702 0.55884 0.0
N365 N 0.33505 0.43697 0.57057 0.0
N366 N 0.35432 0.42135 0.4797 0.0
H367 H 0.28335 0.48239 0.54844 0.0
C368 C 0.51306 0.43199 0.65867 0.0
O369 O 0.50173 0.45958 0.62483 0.0
O370 O 0.25705 0.48117 0.63675 0.0
H371 H 0.38978 0.39027 0.58486 0.0
H372 H 0.31465 0.42978 0.81237 0.0
H373 H 0.40522 0.37433 0.50265 0.0
Zn374 Zn 0.12524 0.30668 0.61323 0.0
C375 C 0.2401 0.35439 0.67075 0.0
N376 N 0.24029 0.3113 0.68898 0.0
C377 C 0.20487 0.28853 0.66958 0.0
N378 N 0.17834 0.32031 0.64832 0.0
N379 N 0.19866 0.36159 0.64915 0.0
C380 C 0.13401 0.51557 0.65944 0.0
O381 O 0.10084 0.50631 0.63037 0.0
O382 O 0.08994 0.25191 0.63461 0.0
Zn383 Zn 0.15071 0.41389 0.65974 0.0
N384 N 0.14746 0.30206 0.55197 0.0
C385 C 0.20359 0.30984 0.49295 0.0
C386 C 0.19149 0.3117 0.53937 0.0
C387 C 0.11565 0.28993 0.52091 0.0
N388 N 0.17088 0.2995 0.46123 0.0
C389 C 0.12686 0.2901 0.47406 0.0
O390 O 0.0965 0.41845 0.61468 0.0
C391 C 0.06238 0.39167 0.6185 0.0
O392 O 0.06927 0.34895 0.61993 0.0
H393 H 0.21692 0.32095 0.56482 0.0
H394 H 0.0822 0.28052 0.53383 0.0
C395 C 0.07739 0.40436 0.7228 0.0
C396 C 0.05359 0.37979 0.75625 0.0
C397 C 0.12402 0.34803 0.78257 0.0
C398 C 0.14678 0.3689 0.74624 0.0
N399 N 0.12271 0.39536 0.71617 0.0
N400 N 0.0777 0.35263 0.78591 0.0
H401 H 0.05979 0.42857 0.70083 0.0
C402 C 0.0701 0.26756 0.67051 0.0
O403 O 0.09181 0.29847 0.69494 0.0
O404 O 0.1622 0.48358 0.67228 0.0
H405 H 0.18308 0.36325 0.74178 0.0
H406 H 0.23841 0.31725 0.48216 0.0
H407 H 0.14299 0.32703 0.80673 0.0
Zn408 Zn 0.26413 0.44395 0.95814 0.0
C409 C 0.21574 0.32973 0.89959 0.0
N410 N 0.25895 0.3295 0.88169 0.0
C411 C 0.2817 0.36491 0.90118 0.0
N412 N 0.24998 0.39111 0.92288 0.0
N413 N 0.20866 0.37099 0.92157 0.0
C414 C 0.05531 0.43557 0.9107 0.0
O415 O 0.06474 0.46854 0.93996 0.0
O416 O 0.31903 0.47826 0.93612 0.0
Zn417 Zn 0.15672 0.41896 0.91037 0.0
N418 N 0.26928 0.42214 1.01955 0.0
C419 C 0.26291 0.36604 0.07879 0.0
C420 C 0.26051 0.37796 1.03233 0.0
C421 C 0.28095 0.45433 0.05047 0.0
N422 N 0.27292 0.39904 0.11036 0.0
C423 C 0.28142 0.44325 0.09738 0.0
O424 O 0.15246 0.47363 0.95484 0.0
C425 C 0.17974 0.50744 0.95173 0.0
O426 O 0.2224 0.50014 0.95139 0.0
H427 H 0.25156 0.35231 1.00697 0.0
H428 H 0.2896 0.48794 0.03739 0.0
C429 C 0.16732 0.49188 0.84697 0.0
C430 C 0.19194 0.51498 0.81307 0.0
C431 C 0.22221 0.44376 0.78703 0.0
C432 C 0.20116 0.4216 0.82362 0.0
N433 N 0.17544 0.44639 0.85376 0.0
N434 N 0.2184 0.49016 0.78339 0.0
H435 H 0.14369 0.51012 0.86905 0.0
C436 C 0.30324 0.49776 0.90013 0.0
O437 O 0.27247 0.47569 0.87585 0.0
O438 O 0.08713 0.40724 0.89778 0.0
H439 H 0.206 0.38518 0.82816 0.0
H440 H 0.25621 0.33109 0.08973 0.0
H441 H 0.24266 0.42426 0.76282 0.0
Zn442 Zn 0.15148 0.15745 0.89719 0.0
C443 C 0.20596 0.28383 0.92272 0.0
N444 N 0.24339 0.26197 0.93914 0.0
C445 C 0.24201 0.21823 0.92335 0.0
N446 N 0.19912 0.21079 0.90486 0.0
N447 N 0.17783 0.25174 0.90446 0.0
C448 C 0.068 0.30754 0.8927 0.0
O449 O 0.09076 0.28583 0.86039 0.0
O450 O 0.16255 0.08702 0.89166 0.0
Zn451 Zn 0.11955 0.25175 0.93499 0.0
N452 N 0.1241 0.17387 0.83885 0.0
C453 C 0.12016 0.22936 0.77899 0.0
C454 C 0.14502 0.20666 0.81295 0.0
C455 C 0.07992 0.16144 0.83039 0.0
N456 N 0.07415 0.22238 0.77628 0.0
C457 C 0.05297 0.19004 0.80268 0.0
O458 O 0.06654 0.21463 0.91006 0.0
C459 C 0.06013 0.17655 0.92888 0.0
O460 O 0.09539 0.15481 0.94265 0.0
H461 H 0.18035 0.2161 0.81923 0.0
H462 H 0.06452 0.1339 0.85001 0.0
C463 C 0.11135 0.25912 1.03041 0.0
C464 C 0.11831 0.2485 0.07687 0.0
C465 C 0.17114 0.19024 0.05565 0.0
C466 C 0.16228 0.19939 1.00934 0.0
N467 N 0.13273 0.23406 0.9977 0.0
N468 N 0.14861 0.2147 0.08851 0.0
H469 H 0.08834 0.28656 1.01999 0.0
C470 C 0.13726 0.05622 0.91136 0.0
O471 O 0.10927 0.06748 0.94489 0.0
O472 O 0.08706 0.3118 0.93181 0.0
H473 H 0.17854 0.17856 0.98328 0.0
H474 H 0.13673 0.2546 0.75743 0.0
H475 H 0.19472 0.16306 0.06539 0.0
Zn476 Zn 0.41275 0.15155 0.91035 0.0
C477 C 0.28777 0.20561 0.90119 0.0
N478 N 0.31049 0.24101 0.88167 0.0
C479 C 0.35371 0.24076 0.89954 0.0
N480 N 0.36075 0.19947 0.92148 0.0
N481 N 0.31945 0.17934 0.92284 0.0
C482 C 0.26618 0.07272 0.90017 0.0
O483 O 0.29696 0.09478 0.87587 0.0
O484 O 0.48234 0.16326 0.89775 0.0
Zn485 Zn 0.30532 0.12654 0.95815 0.0
N486 N 0.39405 0.12408 0.85374 0.0
C487 C 0.34726 0.12673 0.78703 0.0
C488 C 0.36833 0.14887 0.82361 0.0
C489 C 0.40214 0.07859 0.84695 0.0
N490 N 0.35104 0.08033 0.7834 0.0
C491 C 0.3775 0.05549 0.81307 0.0
O492 O 0.34706 0.07036 0.9514 0.0
C493 C 0.38972 0.06307 0.95172 0.0
O494 O 0.41699 0.09688 0.95483 0.0
H495 H 0.36352 0.1853 0.82815 0.0
H496 H 0.42576 0.06034 0.86903 0.0
C497 C 0.28847 0.11622 0.05048 0.0
C498 C 0.28801 0.12731 0.09738 0.0
C499 C 0.30666 0.20448 0.07879 0.0
C500 C 0.30905 0.19255 1.03233 0.0
N501 N 0.30021 0.14838 1.01955 0.0
N502 N 0.29659 0.1715 0.11036 0.0
H503 H 0.27976 0.08262 0.03741 0.0
C504 C 0.51414 0.13493 0.91068 0.0
O505 O 0.5047 0.10198 0.93995 0.0
O506 O 0.25041 0.09224 0.93616 0.0
H507 H 0.31805 0.21818 1.00696 0.0
H508 H 0.32682 0.14624 0.76283 0.0
H509 H 0.31341 0.23942 0.08972 0.0
Zn510 Zn 0.41796 0.41304 0.89718 0.0
C511 C 0.36349 0.28665 0.92272 0.0
N512 N 0.32605 0.30848 0.93915 0.0
C513 C 0.32744 0.3522 0.92333 0.0
N514 N 0.37033 0.3597 0.90486 0.0
N515 N 0.39162 0.31876 0.90447 0.0
C516 C 0.50146 0.26297 0.8927 0.0
O517 O 0.47869 0.28469 0.8604 0.0
O518 O 0.4069 0.48348 0.89165 0.0
Zn519 Zn 0.4499 0.31876 0.93499 0.0
N520 N 0.44536 0.39662 0.83885 0.0
C521 C 0.44928 0.34114 0.77898 0.0
C522 C 0.42443 0.36383 0.81294 0.0
C523 C 0.48954 0.40904 0.83039 0.0
N524 N 0.4953 0.34811 0.77627 0.0
C525 C 0.51648 0.38044 0.80268 0.0
O526 O 0.50291 0.35588 0.91007 0.0
C527 C 0.50932 0.39396 0.92888 0.0
O528 O 0.47405 0.4157 0.94265 0.0
H529 H 0.3891 0.3544 0.81923 0.0
H530 H 0.50494 0.43658 0.85001 0.0
C531 C 0.45811 0.31142 1.03042 0.0
C532 C 0.45116 0.32206 0.07687 0.0
C533 C 0.3983 0.38029 0.05564 0.0
C534 C 0.40716 0.37112 1.00933 0.0
N535 N 0.43671 0.33646 0.9977 0.0
N536 N 0.42085 0.35585 0.0885 0.0
H537 H 0.48114 0.28399 1.02 0.0
C538 C 0.43217 0.51428 0.91137 0.0
O539 O 0.46012 0.50302 0.94493 0.0
O540 O 0.4824 0.25871 0.93181 0.0
H541 H 0.39088 0.39193 0.98327 0.0
H542 H 0.43271 0.31589 0.75742 0.0
H543 H 0.37471 0.40746 0.06538 0.0
Zn544 Zn 0.616 0.26609 0.11907 0.0
C545 C 0.67166 0.21705 0.23628 0.0
N546 N 0.68927 0.26037 0.23649 0.0
C547 C 0.66921 0.2835 0.20144 0.0
N548 N 0.64773 0.25195 0.175 0.0
N549 N 0.64986 0.21033 0.19482 0.0
C550 C 0.6541 0.05611 0.13462 0.0
O551 O 0.62268 0.06565 0.10367 0.0
O552 O 0.63934 0.32162 0.08559 0.0
Zn553 Zn 0.66084 0.1584 0.14665 0.0
N554 N 0.55306 0.27285 0.13533 0.0
C555 C 0.49017 0.27228 0.18775 0.0
C556 C 0.53628 0.26284 0.17787 0.0
C557 C 0.52618 0.29147 0.10254 0.0
N558 N 0.46298 0.29125 0.15467 0.0
C559 C 0.47992 0.30054 0.11204 0.0
O560 O 0.6152 0.15528 0.09306 0.0
C561 C 0.62245 0.18095 0.05854 0.0
O562 O 0.62621 0.22365 0.06439 0.0
H563 H 0.55852 0.24849 0.20406 0.0
H564 H 0.54162 0.30037 0.06984 0.0
C565 C 0.7243 0.16176 0.07232 0.0
C566 C 0.75717 0.18428 0.04554 0.0
C567 C 0.78355 0.22312 0.11235 0.0
C568 C 0.74747 0.20442 0.13755 0.0
N569 N 0.71765 0.17525 0.11664 0.0
N570 N 0.78663 0.21392 0.06666 0.0
H571 H 0.70263 0.13552 0.0576 0.0
C572 C 0.67659 0.30738 0.06741 0.0
O573 O 0.69957 0.27512 0.08881 0.0
O574 O 0.67069 0.08845 0.16009 0.0
H575 H 0.74274 0.21405 0.17304 0.0
H576 H 0.47625 0.26506 0.2215 0.0
H577 H 0.80757 0.24625 0.12863 0.0
Zn578 Zn 0.61702 0.30493 0.44108 0.0
C579 C 0.67344 0.3544 0.32632 0.0
N580 N 0.69108 0.31096 0.32536 0.0
C581 C 0.67218 0.28789 0.361 0.0
N582 N 0.65191 0.31952 0.38825 0.0
N583 N 0.65282 0.36109 0.36841 0.0
C584 C 0.65607 0.51444 0.4316 0.0
O585 O 0.62511 0.50431 0.46274 0.0
O586 O 0.63805 0.24859 0.47488 0.0
Zn587 Zn 0.6621 0.41277 0.41717 0.0
N588 N 0.5555 0.3022 0.41905 0.0
C589 C 0.4964 0.31421 0.36364 0.0
C590 C 0.54286 0.3146 0.37565 0.0
C591 C 0.52437 0.28854 0.45018 0.0
N592 N 0.46463 0.30266 0.39588 0.0
C593 C 0.47748 0.2904 0.43924 0.0
O594 O 0.61565 0.41527 0.47019 0.0
C595 C 0.62198 0.38866 0.50422 0.0
O596 O 0.62537 0.34606 0.4973 0.0
H597 H 0.5683 0.32493 0.35067 0.0
H598 H 0.5372 0.27697 0.48304 0.0
C599 C 0.72418 0.40825 0.49262 0.0
C600 C 0.75694 0.38537 0.5194 0.0
C601 C 0.78395 0.34708 0.45241 0.0
C602 C 0.74824 0.36638 0.42707 0.0
N603 N 0.71819 0.39544 0.44802 0.0
N604 N 0.78661 0.35577 0.49821 0.0
H605 H 0.70213 0.43426 0.50749 0.0
C606 C 0.67522 0.2626 0.49336 0.0
O607 O 0.69862 0.29442 0.47196 0.0
O608 O 0.67221 0.48271 0.40496 0.0
H609 H 0.74393 0.35726 0.39139 0.0
H610 H 0.48561 0.32388 0.32933 0.0
H611 H 0.80804 0.32399 0.43601 0.0
Zn612 Zn 0.15695 0.6637 0.42479 0.0
C613 C 0.28264 0.6731 0.36906 0.0
N614 N 0.25942 0.69429 0.33472 0.0
C615 C 0.21613 0.6766 0.3344 0.0
N616 N 0.20924 0.65385 0.37539 0.0
N617 N 0.25107 0.65053 0.39468 0.0
C618 C 0.30765 0.67766 0.50038 0.0
O619 O 0.27508 0.70022 0.47906 0.0
O620 O 0.08527 0.67609 0.41737 0.0
Zn621 Zn 0.26601 0.61749 0.44973 0.0
N622 N 0.17481 0.71922 0.45571 0.0
C623 C 0.22232 0.78518 0.4604 0.0
C624 C 0.20364 0.74939 0.43494 0.0
C625 C 0.1613 0.72536 0.50007 0.0
N626 N 0.21319 0.78782 0.50613 0.0
C627 C 0.18364 0.7581 0.52704 0.0
O628 O 0.22466 0.62716 0.50515 0.0
C629 C 0.18205 0.62337 0.51124 0.0
O630 O 0.15624 0.61614 0.47682 0.0
H631 H 0.21296 0.74519 0.39933 0.0
H632 H 0.13509 0.7035 0.51455 0.0
C633 C 0.29091 0.52752 0.46579 0.0
C634 C 0.29971 0.48118 0.45623 0.0
C635 C 0.2715 0.49177 0.38052 0.0
C636 C 0.26241 0.53799 0.39044 0.0
N637 N 0.27252 0.55462 0.433 0.0
N638 N 0.2903 0.46438 0.41356 0.0
H639 H 0.29982 0.54283 0.49854 0.0
C640 C 0.05546 0.66046 0.44652 0.0
O641 O 0.06751 0.62819 0.47567 0.0
O642 O 0.32208 0.64045 0.48227 0.0
H643 H 0.24823 0.56043 0.36432 0.0
H644 H 0.24529 0.80929 0.44415 0.0
H645 H 0.2642 0.47794 0.34674 0.0
Zn646 Zn 0.90737 0.15777 0.41714 0.0
C647 C 0.89719 0.2827 0.36096 0.0
N648 N 0.87835 0.25959 0.32531 0.0
C649 C 0.89601 0.21615 0.3263 0.0
N650 N 0.91654 0.20953 0.36844 0.0
N651 N 0.91743 0.2511 0.38828 0.0
C652 C 0.8941 0.30792 0.4934 0.0
O653 O 0.87076 0.27603 0.47204 0.0
O654 O 0.89728 0.08782 0.40494 0.0
Zn655 Zn 0.95234 0.26571 0.44108 0.0
N656 N 0.85127 0.17503 0.448 0.0
C657 C 0.78546 0.22332 0.45241 0.0
C658 C 0.82118 0.20406 0.42706 0.0
C659 C 0.84531 0.16223 0.49261 0.0
N660 N 0.78282 0.21464 0.49821 0.0
C661 C 0.81254 0.18508 0.51939 0.0
O662 O 0.94409 0.22453 0.49728 0.0
C663 C 0.9475 0.18194 0.50419 0.0
O664 O 0.95382 0.15532 0.47016 0.0
H665 H 0.82548 0.21319 0.39138 0.0
H666 H 0.8674 0.13625 0.50747 0.0
C667 C 0.04499 0.2821 0.45015 0.0
C668 C 0.09187 0.28026 0.43919 0.0
C669 C 0.07291 0.25666 0.36353 0.0
C670 C 1.02646 0.25625 0.37556 0.0
N671 N 1.01384 0.26854 0.41899 0.0
N672 N 0.10469 0.26811 0.39579 0.0
H673 H 1.03216 0.29357 0.48304 0.0
C674 C 0.91332 0.05612 0.43167 0.0
O675 O 0.94415 0.06627 0.46293 0.0
O676 O 0.93123 0.32199 0.47489 0.0
H677 H 1.001 0.24598 0.35056 0.0
H678 H 0.76134 0.24638 0.43601 0.0
H679 H 0.08369 0.24707 0.32919 0.0
Zn680 Zn 0.30345 0.95309 0.44973 0.0
C681 C 0.35331 0.89401 0.3344 0.0
N682 N 0.31004 0.87627 0.33475 0.0
C683 C 0.28683 0.89745 0.36908 0.0
N684 N 0.3184 0.92005 0.39467 0.0
N685 N 0.36024 0.91681 0.37537 0.0
C686 C 0.51397 0.91019 0.44647 0.0
O687 O 0.50196 0.94254 0.47554 0.0
O688 O 0.24736 0.93013 0.48225 0.0
Zn689 Zn 0.41246 0.90688 0.42482 0.0
N690 N 0.29694 1.01596 0.43301 0.0
C691 C 0.29801 0.07883 0.38054 0.0
C692 C 0.30708 1.0326 0.39046 0.0
C693 C 0.27854 0.04307 0.46579 0.0
N694 N 0.27919 0.10621 0.41357 0.0
C695 C 0.26975 0.08941 0.45624 0.0
O696 O 0.4132 0.95442 0.47686 0.0
C697 C 0.38738 0.9472 0.51127 0.0
O698 O 0.34478 0.94341 0.50518 0.0
H699 H 0.32129 1.01016 0.36434 0.0
H700 H 0.2696 1.02774 0.49854 0.0
C701 C 0.40808 0.84519 0.50007 0.0
C702 C 0.38576 0.81243 0.52702 0.0
C703 C 0.3471 0.78536 0.46035 0.0
C704 C 0.36578 0.82116 0.43491 0.0
N705 N 0.39459 0.85134 0.45571 0.0
N706 N 0.35622 0.7827 0.50608 0.0
H707 H 0.43428 0.86706 0.51456 0.0
C708 C 0.2618 0.89291 0.50034 0.0
O709 O 0.29436 0.87036 0.47899 0.0
O710 O 0.48414 0.89449 0.41738 0.0
H711 H 0.35647 0.82537 0.39929 0.0
H712 H 0.30535 0.09266 0.34677 0.0
H713 H 0.32415 0.76124 0.44408 0.0
Zn714 Zn 0.95348 0.30449 0.11906 0.0
C715 C 0.89772 0.35352 0.23624 0.0
N716 N 0.88015 0.31019 0.23644 0.0
C717 C 0.90026 0.28706 0.20141 0.0
N718 N 0.92174 0.31862 0.17499 0.0
N719 N 0.91956 0.36024 0.1948 0.0
C720 C 0.91534 0.51446 0.1347 0.0
O721 O 0.94688 0.50494 0.10386 0.0
O722 O 0.93018 0.24895 0.08556 0.0
Zn723 Zn 0.90856 0.41217 0.14665 0.0
N724 N 1.01642 0.29776 0.13532 0.0
C725 C 0.07933 0.29835 0.18773 0.0
C726 C 1.03321 0.30779 0.17786 0.0
C727 C 0.0433 0.27912 0.10254 0.0
N728 N 0.10651 0.27936 0.15466 0.0
C729 C 0.08956 0.27005 0.11204 0.0
O730 O 0.95421 0.41531 0.09307 0.0
C731 C 0.94698 0.38964 0.05855 0.0
O732 O 0.94325 0.34693 0.0644 0.0
H733 H 1.01098 0.32215 0.20404 0.0
H734 H 1.02786 0.27021 0.06985 0.0
C735 C 0.84511 0.40877 0.07229 0.0
C736 C 0.81226 0.38622 0.04552 0.0
C737 C 0.78591 0.34735 0.11232 0.0
C738 C 0.82198 0.36607 0.13751 0.0
N739 N 0.85177 0.39527 0.11662 0.0
N740 N 0.78282 0.35655 0.06663 0.0
H741 H 0.86676 0.43503 0.05758 0.0
C742 C 0.89292 0.26316 0.0674 0.0
O743 O 0.86992 0.2954 0.08882 0.0
O744 O 0.89868 0.48212 0.1601 0.0
H745 H 0.82671 0.35645 0.173 0.0
H746 H 0.09325 0.30558 0.22148 0.0
H747 H 0.76191 0.3242 0.1286 0.0
Zn748 Zn 0.26522 0.95235 0.12992 0.0
C749 C 0.21507 0.89231 0.24274 0.0
N750 N 0.25846 0.87451 0.24305 0.0
C751 C 0.28159 0.89469 0.20817 0.0
N752 N 0.24992 0.91629 0.18187 0.0
N753 N 0.20813 0.91413 0.20123 0.0
C754 C 0.05568 0.90761 0.12664 0.0
O755 O 0.0685 0.93854 0.0965 0.0
O756 O 0.32217 0.93172 0.09711 0.0
Zn757 Zn 0.15621 0.90579 0.15118 0.0
N758 N 0.2674 1.01379 0.15228 0.0
C759 C 0.25456 0.07268 0.20773 0.0
C760 C 0.25475 1.02618 0.19565 0.0
C761 C 0.28067 0.04517 0.12117 0.0
N762 N 0.26582 0.10467 0.17556 0.0
C763 C 0.27832 0.09207 0.13218 0.0
O764 O 0.15599 0.95419 0.09985 0.0
C765 C 0.18272 0.94784 0.06592 0.0
O766 O 0.22521 0.9444 0.07303 0.0
H767 H 0.24462 1.00047 0.2205 0.0
H768 H 0.29231 1.03251 0.08828 0.0
C769 C 0.16195 0.84547 0.07492 0.0
C770 C 0.18468 0.81278 0.04805 0.0
C771 C 0.2227 0.7852 0.11498 0.0
C772 C 0.20334 0.82063 0.14048 0.0
N773 N 0.17469 0.85102 0.11956 0.0
N774 N 0.21416 0.78289 0.06913 0.0
H775 H 0.13599 0.86765 0.06021 0.0
C776 C 0.30807 0.89451 0.07874 0.0
O777 O 0.27596 0.87148 0.10005 0.0
O778 O 0.08464 0.89306 0.15728 0.0
H779 H 0.21205 0.82443 0.17629 0.0
H780 H 0.24466 0.08331 0.24203 0.0
H781 H 0.24559 0.76105 0.13143 0.0
Zn782 Zn 0.30419 0.61822 0.12991 0.0
C783 C 0.35437 0.67822 0.24273 0.0
N784 N 0.31099 0.69603 0.24307 0.0
C785 C 0.28784 0.67587 0.20818 0.0
N786 N 0.3195 0.65428 0.18186 0.0
N787 N 0.3613 0.65642 0.20121 0.0
C788 C 0.51376 0.66303 0.12657 0.0
O789 O 0.50091 0.6322 0.09633 0.0
O790 O 0.24727 0.63888 0.09709 0.0
Zn791 Zn 0.41324 0.66474 0.15118 0.0
N792 N 0.30195 0.55679 0.15229 0.0
C793 C 0.3147 0.49792 0.20777 0.0
C794 C 0.31452 0.54441 0.19569 0.0
C795 C 0.28874 0.5254 0.12116 0.0
N796 N 0.30349 0.46592 0.17559 0.0
C797 C 0.29107 0.4785 0.13218 0.0
O798 O 0.41345 0.61633 0.09985 0.0
C799 C 0.38672 0.62267 0.06592 0.0
O800 O 0.34423 0.62611 0.07304 0.0
H801 H 0.32461 0.57012 0.22055 0.0
H802 H 0.27716 0.53806 0.08825 0.0
C803 C 0.40749 0.72505 0.07491 0.0
C804 C 0.38477 0.75774 0.04805 0.0
C805 C 0.34678 0.78535 0.11498 0.0
C806 C 0.36613 0.74991 0.14048 0.0
N807 N 0.39477 0.71951 0.11955 0.0
N808 N 0.35531 0.78765 0.06913 0.0
H809 H 0.43345 0.70285 0.06019 0.0
C810 C 0.26139 0.67606 0.0787 0.0
O811 O 0.29352 0.69908 0.09999 0.0
O812 O 0.48481 0.67749 0.15727 0.0
H813 H 0.35743 0.74612 0.17629 0.0
H814 H 0.32453 0.48729 0.24209 0.0
H815 H 0.3239 0.80951 0.13143 0.0
Zn816 Zn 0.91859 0.40256 0.91166 0.0
C817 C 0.86391 0.42128 0.78208 0.0
N818 N 0.82633 0.43764 0.80362 0.0
C819 C 0.82841 0.42388 0.84802 0.0
N820 N 0.87185 0.40676 0.85622 0.0
N821 N 0.89275 0.40507 0.81501 0.0
C822 C 1.00368 0.38318 0.761 0.0
O823 O 0.98403 0.35488 0.79008 0.0
O824 O 0.91151 0.39324 0.98293 0.0
Zn825 Zn 0.95218 0.43396 0.81055 0.0
N826 N 0.94674 0.34494 0.89947 0.0
C827 C 0.95045 0.27866 0.85275 0.0
C828 C 0.92548 0.315 0.87085 0.0
C829 C 0.99059 0.33784 0.91382 0.0
N830 N 0.99659 0.27679 0.8603 0.0
C831 C 1.01764 0.30677 0.88955 0.0
O832 O 1.00373 0.41397 0.85211 0.0
C833 C 1.00899 0.43456 0.88953 0.0
O834 O 0.97328 0.44929 0.91013 0.0
H835 H 0.8899 0.31992 0.86123 0.0
H836 H 1.0056 0.36027 0.93932 0.0
C837 C 0.97216 0.52786 0.79547 0.0
C838 C 0.96626 0.5756 0.79906 0.0
C839 C 0.9028 0.56425 0.84865 0.0
C840 C 0.90932 0.51674 0.84574 0.0
N841 N 0.94323 0.49946 0.81834 0.0
N842 N 0.93127 0.59268 0.82506 0.0
H843 H 0.99918 0.51322 0.77434 0.0
C844 C 0.94166 0.40904 1.01154 0.0
O845 O 0.97004 0.4415 0.99865 0.0
O846 O 0.98349 0.42088 0.75169 0.0
H847 H 0.88758 0.49416 0.86539 0.0
H848 H 0.93338 0.25409 0.83088 0.0
H849 H 0.87564 0.57842 0.86983 0.0
Zn850 Zn 0.17125 0.92022 0.91787 0.0
C851 C 0.15293 0.86252 0.78919 0.0
N852 N 0.13819 0.82474 0.81118 0.0
C853 C 0.15273 0.82736 0.85518 0.0
N854 N 0.16825 0.87163 0.86299 0.0
N855 N 0.16867 0.89206 0.82146 0.0
C856 C 0.19036 1.00471 0.7692 0.0
O857 O 0.21897 0.98382 0.79719 0.0
O858 O 0.18089 0.91353 0.98949 0.0
Zn859 Zn 0.1382 0.95062 0.81447 0.0
N860 N 0.2275 0.95079 0.90473 0.0
C861 C 0.29489 0.95479 0.85972 0.0
C862 C 0.25827 0.92974 0.87673 0.0
C863 C 0.23337 0.99508 0.91858 0.0
N864 N 0.29631 1.00094 0.8675 0.0
C865 C 0.26519 1.02225 0.89541 0.0
O866 O 0.15556 1.00168 0.8556 0.0
C867 C 0.13619 1.00875 0.89311 0.0
O868 O 0.12299 0.97412 0.9163 0.0
H869 H 0.25403 0.8941 0.86709 0.0
H870 H 0.21056 1.00987 0.94394 0.0
C871 C 0.04506 0.97055 0.79425 0.0
C872 C 0.99741 0.96336 0.7937 0.0
C873 C 1.00712 0.89781 0.8412 0.0
C874 C 0.05444 0.90554 0.84232 0.0
N875 N 0.07256 0.94114 0.81794 0.0
N876 N 0.97967 0.9267 0.81669 0.0
H877 H 0.06041 0.99869 0.77533 0.0
C878 C 0.16487 0.94375 1.01811 0.0
O879 O 0.13321 0.97302 1.00474 0.0
O880 O 0.15376 0.98392 0.75761 0.0
H881 H 0.07633 0.88314 0.86225 0.0
H882 H 0.32033 0.93777 0.83868 0.0
H883 H 0.99231 0.86917 0.85977 0.0
Zn884 Zn 0.65085 0.1679 0.91163 0.0
C885 C 0.70553 0.14917 0.78203 0.0
N886 N 0.7431 0.13281 0.80357 0.0
C887 C 0.74102 0.14656 0.84797 0.0
N888 N 0.69758 0.16368 0.85618 0.0
N889 N 0.67668 0.16536 0.81497 0.0
C890 C 0.5658 0.18729 0.76096 0.0
O891 O 0.58546 0.21558 0.79005 0.0
O892 O 0.65793 0.17727 0.98291 0.0
Zn893 Zn 0.61726 0.13646 0.81049 0.0
N894 N 0.6227 0.22551 0.89942 0.0
C895 C 0.61901 0.29181 0.85272 0.0
C896 C 0.64397 0.25545 0.87081 0.0
C897 C 0.57886 0.23263 0.91378 0.0
N898 N 0.57287 0.29369 0.86028 0.0
C899 C 0.55181 0.26372 0.88953 0.0
O900 O 0.56571 0.15645 0.85206 0.0
C901 C 0.56046 0.1359 0.88949 0.0
O902 O 0.59617 0.12118 0.91011 0.0
H903 H 0.67955 0.25053 0.86119 0.0
H904 H 0.56384 0.2102 0.93928 0.0
C905 C 0.59722 0.04258 0.79537 0.0
C906 C 0.60311 0.99483 0.79891 0.0
C907 C 0.66665 1.00614 0.84842 0.0
C908 C 0.66013 0.05365 0.84556 0.0
N909 N 0.62618 0.07096 0.81822 0.0
N910 N 0.63814 0.97773 0.82484 0.0
H911 H 0.57017 0.05724 0.77429 0.0
C912 C 0.62774 0.16153 1.01152 0.0
O913 O 0.59929 0.12912 0.99863 0.0
O914 O 0.58597 0.14959 0.75164 0.0
H915 H 0.68191 0.07621 0.86519 0.0
H916 H 0.63608 0.31637 0.83086 0.0
H917 H 0.69384 0.99194 0.86955 0.0
Zn918 Zn 0.3982 0.65027 0.91787 0.0
C919 C 0.41658 0.70798 0.7892 0.0
N920 N 0.43132 0.74577 0.8112 0.0
C921 C 0.41676 0.74314 0.8552 0.0
N922 N 0.40123 0.69887 0.863 0.0
N923 N 0.40084 0.67844 0.82146 0.0
C924 C 0.37916 0.56582 0.76918 0.0
O925 O 0.35056 0.58673 0.79717 0.0
O926 O 0.38854 0.65697 0.98949 0.0
Zn927 Zn 0.43131 0.61988 0.81447 0.0
N928 N 0.34195 0.6197 0.90469 0.0
C929 C 0.2746 0.61569 0.85963 0.0
C930 C 0.3112 0.64074 0.87667 0.0
C931 C 0.33607 0.57541 0.91854 0.0
N932 N 0.27317 0.56954 0.86742 0.0
C933 C 0.30427 0.54823 0.89536 0.0
O934 O 0.41393 0.56881 0.85558 0.0
C935 C 0.43326 0.56174 0.89312 0.0
O936 O 0.44645 0.59637 0.91631 0.0
H937 H 0.31545 0.67638 0.86703 0.0
H938 H 0.35886 0.56062 0.94391 0.0
C939 C 0.52444 0.59994 0.79429 0.0
C940 C 0.57209 0.60711 0.79374 0.0
C941 C 0.56239 0.67268 0.84124 0.0
C942 C 0.51507 0.66496 0.84234 0.0
N943 N 0.49695 0.62935 0.81797 0.0
N944 N 0.58984 0.64378 0.81674 0.0
H945 H 0.50909 0.57179 0.77537 0.0
C946 C 0.40456 0.62675 1.01811 0.0
O947 O 0.43622 0.59748 1.00474 0.0
O948 O 0.41577 0.5866 0.7576 0.0
H949 H 0.49317 0.68737 0.86226 0.0
H950 H 0.24918 0.6327 0.83856 0.0
H951 H 0.5772 0.70131 0.8598 0.0
Zn952 Zn 0.95069 0.13597 0.75433 0.0
C953 C 0.82727 0.14794 0.71453 0.0
N954 N 0.8248 0.13301 0.75851 0.0
C955 C 0.86222 0.14836 0.78076 0.0
N956 N 0.89136 0.1651 0.7486 0.0
N957 N 0.87107 0.16478 0.70702 0.0
C958 C 0.94327 0.16372 0.55187 0.0
O959 O 0.97249 0.13195 0.56509 0.0
O960 O 0.98296 0.14961 0.81226 0.0
Zn961 Zn 0.91965 0.16977 0.65222 0.0
N962 N 0.94318 0.0703 0.74736 0.0
C963 C 0.90331 1.00493 0.71833 0.0
C964 C 0.90939 0.0525 0.72033 0.0
C965 C 0.97229 0.04239 0.77093 0.0
N966 N 0.93184 0.977 0.74272 0.0
C967 C 0.96665 0.99454 0.76853 0.0
O968 O 0.97473 0.12287 0.65365 0.0
C969 C 1.00897 0.13711 0.67675 0.0
O970 O 1.00128 0.15681 0.71401 0.0
H971 H 0.88724 0.07483 0.70058 0.0
H972 H 0.99899 0.0575 0.792 0.0
C973 C 0.99288 0.23385 0.65179 0.0
C974 C 1.01969 0.26554 0.6756 0.0
C975 C 0.95205 0.29321 0.71253 0.0
C976 C 0.92738 0.25678 0.69446 0.0
N977 N 0.9488 0.22691 0.66575 0.0
N978 N 0.9981 0.29555 0.70455 0.0
H979 H 1.00797 0.21167 0.62602 0.0
C980 C 1.00265 0.18728 0.80225 0.0
O981 O 0.98085 0.21638 0.77547 0.0
O982 O 0.91293 0.17945 0.58052 0.0
H983 H 0.89183 0.25184 0.70402 0.0
H984 H 0.87624 0.99029 0.69747 0.0
H985 H 0.93484 0.31774 0.73449 0.0
Zn986 Zn 0.43054 0.95192 0.75994 0.0
C987 C 0.41798 0.82848 0.72217 0.0
N988 N 0.43152 0.82634 0.76657 0.0
C989 C 0.41566 0.86421 0.78792 0.0
N990 N 0.40018 0.89324 0.75486 0.0
N991 N 0.40178 0.87224 0.71368 0.0
C992 C 0.40638 0.94217 0.55845 0.0
O993 O 0.43843 0.9709 0.57158 0.0
O994 O 0.41683 0.98426 0.81815 0.0
Zn995 Zn 0.39983 0.91907 0.65821 0.0
N996 N 0.49594 0.9413 0.75422 0.0
C997 C 0.56071 0.89805 0.72808 0.0
C998 C 0.51334 0.90588 0.72884 0.0
C999 C 0.52417 0.97052 0.77691 0.0
N1000 N 0.58893 0.92683 0.75156 0.0
C1001 C 0.57181 0.96337 0.77537 0.0
O1002 O 0.44799 0.97258 0.66007 0.0
C1003 C 0.43392 1.00859 0.68068 0.0
O1004 O 0.41293 1.0037 0.71788 0.0
H1005 H 0.49098 0.88387 0.70927 0.0
H1006 H 0.50944 0.9987 0.79644 0.0
C1007 C 0.33704 0.99269 0.65537 0.0
C1008 C 0.30627 1.02042 0.6792 0.0
C1009 C 0.27618 0.95382 0.71553 0.0
C1010 C 0.31236 0.92816 0.69822 0.0
N1011 N 0.34304 0.94872 0.6699 0.0
N1012 N 0.2754 1.00001 0.70794 0.0
H1013 H 0.36002 1.00718 0.63007 0.0
C1014 C 0.38002 1.00555 0.80785 0.0
O1015 O 0.35165 0.98655 0.77841 0.0
O1016 O 0.3905 0.91199 0.587 0.0
H1017 H 0.31646 0.89255 0.70809 0.0
H1018 H 0.57495 0.86958 0.70869 0.0
H1019 H 0.25083 0.93721 0.73683 0.0
Zn1020 Zn 0.61879 0.4345 0.75434 0.0
C1021 C 0.74223 0.42251 0.71453 0.0
N1022 N 0.7447 0.43745 0.7585 0.0
C1023 C 0.70727 0.42212 0.78075 0.0
N1024 N 0.67812 0.40539 0.74859 0.0
N1025 N 0.69843 0.4057 0.70702 0.0
C1026 C 0.62626 0.40687 0.55189 0.0
O1027 O 0.5971 0.43872 0.56511 0.0
O1028 O 0.58651 0.42085 0.81226 0.0
Zn1029 Zn 0.64984 0.40073 0.65222 0.0
N1030 N 0.6263 0.50017 0.74738 0.0
C1031 C 0.66617 0.56554 0.71835 0.0
C1032 C 0.66008 0.51796 0.72034 0.0
C1033 C 0.5972 0.52808 0.77097 0.0
N1034 N 0.63765 0.59346 0.74275 0.0
C1035 C 0.60285 0.57593 0.76857 0.0
O1036 O 0.59476 0.44763 0.65367 0.0
C1037 C 0.56052 0.43338 0.67676 0.0
O1038 O 0.56821 0.41366 0.714 0.0
H1039 H 0.68222 0.49563 0.70058 0.0
H1040 H 0.57051 0.51297 0.79204 0.0
C1041 C 0.57662 0.33664 0.65177 0.0
C1042 C 0.54981 0.30495 0.67559 0.0
C1043 C 0.61744 0.27727 0.7125 0.0
C1044 C 0.64212 0.3137 0.69444 0.0
N1045 N 0.62071 0.34358 0.66573 0.0
N1046 N 0.5714 0.27495 0.70453 0.0
H1047 H 0.56154 0.35883 0.62601 0.0
C1048 C 0.56681 0.38319 0.80225 0.0
O1049 O 0.5886 0.35409 0.77546 0.0
O1050 O 0.65656 0.39108 0.58054 0.0
H1051 H 0.67767 0.31864 0.70399 0.0
H1052 H 0.69324 0.58017 0.69748 0.0
H1053 H 0.63464 0.25274 0.73447 0.0
Zn1054 Zn 0.1696 0.65148 0.65819 0.0
C1055 C 0.15374 0.70634 0.7879 0.0
N1056 N 0.13796 0.74425 0.76658 0.0
C1057 C 0.15144 0.74208 0.72218 0.0
N1058 N 0.16746 0.69825 0.71369 0.0
N1059 N 0.1691 0.67721 0.75485 0.0
C1060 C 0.18938 0.56492 0.80786 0.0
O1061 O 0.2177 0.58392 0.77837 0.0
O1062 O 0.17895 0.65855 0.58698 0.0
Zn1063 Zn 0.1388 0.61853 0.76 0.0
N1064 N 0.22639 0.62185 0.66995 0.0
C1065 C 0.2932 0.61678 0.71566 0.0
C1066 C 0.25702 0.64242 0.69831 0.0
C1067 C 0.23241 0.57788 0.65543 0.0
N1068 N 0.29401 0.57059 0.70806 0.0
C1069 C 0.26317 0.55016 0.67928 0.0
O1070 O 0.15637 0.56677 0.71789 0.0
C1071 C 0.13549 0.56191 0.68062 0.0
O1072 O 0.12149 0.59793 0.65999 0.0
H1073 H 0.25289 0.67804 0.70818 0.0
H1074 H 0.20945 0.56339 0.63011 0.0
C1075 C 0.04518 0.59991 0.77701 0.0
C1076 C 0.99754 0.60708 0.77553 0.0
C1077 C 1.00862 0.67247 0.72834 0.0
C1078 C 0.05598 0.66462 0.72904 0.0
N1079 N 0.0734 0.62915 0.75434 0.0
N1080 N 0.98041 0.64366 0.7518 0.0
H1081 H 0.05992 0.5717 0.79648 0.0
C1082 C 0.16304 0.62841 0.55841 0.0
O1083 O 0.13092 0.59974 0.57151 0.0
O1084 O 0.15257 0.58621 0.8182 0.0
H1085 H 0.07833 0.68667 0.70949 0.0
H1086 H 0.31851 0.63339 0.73699 0.0
H1087 H 0.99437 0.70098 0.70901 0.0
Zn1088 Zn 0.81805 0.95001 0.43648 0.0
C1089 C 0.85163 0.82751 0.42462 0.0
N1090 N 0.80767 0.82622 0.43972 0.0
C1091 C 0.78607 0.86382 0.42324 0.0
N1092 N 0.81859 0.89189 0.40571 0.0
N1093 N 0.85951 0.87058 0.40675 0.0
C1094 C 1.01404 0.93373 0.4117 0.0
O1095 O 1.00285 0.96377 0.44343 0.0
O1096 O 0.75843 0.98329 0.43175 0.0
Zn1097 Zn 0.91343 0.91776 0.40041 0.0
N1098 N 0.83433 0.93673 0.49957 0.0
C1099 C 0.87631 0.89744 0.55829 0.0
C1100 C 0.86829 0.90664 0.51182 0.0
C1101 C 0.809 0.95851 0.53184 0.0
N1102 N 0.85163 0.92038 0.59071 0.0
C1103 C 0.81865 0.95135 0.57848 0.0
O1104 O 0.91542 0.97406 0.44572 0.0
C1105 C 0.89379 1.0091 0.43118 0.0
O1106 O 0.85602 1.0024 0.41205 0.0
H1107 H 0.88938 0.89012 0.48615 0.0
H1108 H 0.78216 0.98197 0.52092 0.0
C1109 C 0.91035 0.98858 0.33286 0.0
C1110 C 0.88211 1.0143 0.30376 0.0
C1111 C 0.84462 0.94572 0.2808 0.0
C1112 C 0.86735 0.92196 0.31532 0.0
N1113 N 0.89859 0.94431 0.3418 0.0
N1114 N 0.85073 0.99187 0.27727 0.0
H1115 H 0.93708 1.00494 0.35279 0.0
C1116 C 0.76404 1.00208 0.39266 0.0
O1117 O 0.78724 0.97929 0.36143 0.0
O1118 O 0.98343 0.90675 0.39419 0.0
H1119 H 0.85902 0.88634 0.32163 0.0
H1120 H 0.90277 0.87324 0.5685 0.0
H1121 H 0.82016 0.92795 0.2593 0.0
Zn1122 Zn 0.62539 0.80823 0.45799 0.0
C1123 C 0.74035 0.85438 0.39942 0.0
N1124 N 0.74051 0.81096 0.38199 0.0
C1125 C 0.70509 0.78851 0.40179 0.0
N1126 N 0.67874 0.82062 0.42277 0.0
N1127 N 0.69893 0.8619 0.42091 0.0
C1128 C 0.63551 1.01521 0.41086 0.0
O1129 O 0.60424 1.00623 0.44203 0.0
O1130 O 0.59203 0.75154 0.43922 0.0
Zn1131 Zn 0.65048 0.91304 0.40841 0.0
N1132 N 0.64665 0.80747 0.51987 0.0
C1133 C 0.70125 0.82097 0.57934 0.0
C1134 C 0.68961 0.82086 0.53275 0.0
C1135 C 0.61557 0.79344 0.55091 0.0
N1136 N 0.66912 0.80871 0.61096 0.0
C1137 C 0.62618 0.79554 0.59786 0.0
O1138 O 0.59604 0.91829 0.4533 0.0
C1139 C 0.56181 0.89168 0.44937 0.0
O1140 O 0.56863 0.84894 0.44813 0.0
H1141 H 0.71458 0.83143 0.50738 0.0
H1142 H 0.58306 0.78102 0.53806 0.0
C1143 C 0.57727 0.90112 0.34521 0.0
C1144 C 0.5534 0.87551 0.31253 0.0
C1145 C 0.62374 0.84326 0.28676 0.0
C1146 C 0.64653 0.86481 0.32285 0.0
N1147 N 0.62262 0.89244 0.35208 0.0
N1148 N 0.57744 0.84774 0.28338 0.0
H1149 H 0.55968 0.92602 0.36641 0.0
C1150 C 0.57281 0.76476 0.40207 0.0
O1151 O 0.59542 0.79307 0.37537 0.0
O1152 O 0.66228 0.98288 0.39594 0.0
H1153 H 0.68283 0.85918 0.32752 0.0
H1154 H 0.73523 0.83138 0.59031 0.0
H1155 H 0.64252 0.82198 0.26268 0.0
Zn1156 Zn 0.65601 0.65285 0.40042 0.0
C1157 C 0.78334 0.70683 0.42341 0.0
N1158 N 0.76178 0.7445 0.43978 0.0
C1159 C 0.71785 0.74311 0.42469 0.0
N1160 N 0.70993 0.69998 0.40703 0.0
N1161 N 0.75083 0.67862 0.40601 0.0
C1162 C 0.8055 0.56855 0.3929 0.0
O1163 O 0.78235 0.59138 0.36165 0.0
O1164 O 0.58602 0.66385 0.39418 0.0
Zn1165 Zn 0.7514 0.62049 0.43669 0.0
N1166 N 0.67096 0.62635 0.34183 0.0
C1167 C 0.72499 0.62506 0.28087 0.0
C1168 C 0.70221 0.64875 0.31541 0.0
C1169 C 0.65927 0.58207 0.33283 0.0
N1170 N 0.71893 0.57891 0.27728 0.0
C1171 C 0.68756 0.55641 0.30372 0.0
O1172 O 0.71346 0.56813 0.41215 0.0
C1173 C 0.67563 0.56145 0.43117 0.0
O1174 O 0.65396 0.59649 0.44565 0.0
H1175 H 0.71051 0.68438 0.32179 0.0
H1176 H 0.63253 0.56567 0.35271 0.0
C1177 C 0.76033 0.61195 0.53203 0.0
C1178 C 0.75066 0.61909 0.57867 0.0
C1179 C 0.693 0.67299 0.55846 0.0
C1180 C 0.70106 0.66381 0.512 0.0
N1181 N 0.73502 0.63372 0.49976 0.0
N1182 N 0.71766 0.65004 0.59089 0.0
H1183 H 0.7872 0.5885 0.52111 0.0
C1184 C 0.5554 0.63691 0.41172 0.0
O1185 O 0.56657 0.60696 0.44355 0.0
O1186 O 0.81106 0.58732 0.43201 0.0
H1187 H 0.67999 0.68035 0.48632 0.0
H1188 H 0.74943 0.64288 0.25939 0.0
H1189 H 0.66652 0.69719 0.56867 0.0
Zn1190 Zn 0.94401 0.76241 0.45803 0.0
C1191 C 0.82904 0.71619 0.39952 0.0
N1192 N 0.82886 0.75958 0.38203 0.0
C1193 C 0.86428 0.78202 0.40183 0.0
N1194 N 0.89066 0.74997 0.42284 0.0
N1195 N 0.87049 0.70869 0.42099 0.0
C1196 C 0.93394 0.55537 0.41085 0.0
O1197 O 0.96529 0.56435 0.44195 0.0
O1198 O 0.97736 0.81908 0.43921 0.0
Zn1199 Zn 0.91894 0.65755 0.40845 0.0
N1200 N 0.92274 0.76326 0.51991 0.0
C1201 C 0.86811 0.74992 0.57938 0.0
C1202 C 0.87975 0.74997 0.53279 0.0
C1203 C 0.95385 0.77723 0.55095 0.0
N1204 N 0.90026 0.76212 0.611 0.0
C1205 C 0.94324 0.77519 0.5979 0.0
O1206 O 0.9734 0.65231 0.45331 0.0
C1207 C 1.00761 0.67894 0.4494 0.0
O1208 O 1.00078 0.72168 0.44822 0.0
H1209 H 0.85476 0.73944 0.50743 0.0
H1210 H 0.98639 0.78957 0.53809 0.0
C1211 C 0.99211 0.66948 0.34523 0.0
C1212 C 1.01597 0.69508 0.31253 0.0
C1213 C 0.9456 0.72728 0.28677 0.0
C1214 C 0.92283 0.70574 0.32287 0.0
N1215 N 0.94676 0.67814 0.3521 0.0
N1216 N 0.99191 0.72282 0.28338 0.0
H1217 H 1.00972 0.6446 0.36644 0.0
C1218 C 0.99659 0.80582 0.40207 0.0
O1219 O 0.97399 0.77748 0.37541 0.0
O1220 O 0.90714 0.5877 0.39599 0.0
H1221 H 0.88653 0.71135 0.32755 0.0
H1222 H 0.8341 0.73959 0.59036 0.0
H1223 H 0.92681 0.74854 0.26268 0.0
Zn1224 Zn 0.91479 0.65288 0.16891 0.0
C1225 C 0.78641 0.70671 0.1461 0.0
N1226 N 0.80786 0.74438 0.12998 0.0
C1227 C 0.85173 0.74288 0.14528 0.0
N1228 N 0.85992 0.69959 0.16252 0.0
N1229 N 0.81912 0.67823 0.16317 0.0
C1230 C 0.76514 0.56751 0.17467 0.0
O1231 O 0.78824 0.58953 0.20643 0.0
O1232 O 0.98476 0.66359 0.1777 0.0
Zn1233 Zn 0.81883 0.62045 0.13147 0.0
N1234 N 0.89957 0.62601 0.22676 0.0
C1235 C 0.84546 0.62448 0.28745 0.0
C1236 C 0.86873 0.64853 0.25366 0.0
C1237 C 0.9108 0.58142 0.23481 0.0
N1238 N 0.85079 0.57808 0.28989 0.0
C1239 C 0.88203 0.55562 0.26302 0.0
O1240 O 0.85749 0.56786 0.15472 0.0
C1241 C 0.89569 0.56161 0.1361 0.0
O1242 O 0.91761 0.59696 0.12296 0.0
H1243 H 0.86097 0.68446 0.24801 0.0
H1244 H 0.93754 0.56506 0.21474 0.0
C1245 C 0.80987 0.61232 0.03587 0.0
C1246 C 0.81941 0.62007 0.98928 0.0
C1247 C 0.87627 0.67421 1.01012 0.0
C1248 C 0.86825 0.66461 0.05647 0.0
N1249 N 0.83469 0.63419 0.0684 0.0
N1250 N 0.85195 0.65143 0.97745 0.0
H1251 H 0.78338 0.58851 0.04653 0.0
C1252 C 1.01585 0.63539 0.16279 0.0
O1253 O 1.00531 0.60324 0.13303 0.0
O1254 O 0.7595 0.58712 0.13597 0.0
H1255 H 0.889 0.68109 0.08235 0.0
H1256 H 0.82119 0.64243 0.30911 0.0
H1257 H 0.90243 0.69868 1.00016 0.0
Zn1258 Zn 0.94427 0.80669 0.1137 0.0
C1259 C 0.82859 0.85417 0.17042 0.0
N1260 N 0.82831 0.81076 0.1879 0.0
C1261 C 0.86401 0.78808 0.1686 0.0
N1262 N 0.89065 0.81992 0.14807 0.0
N1263 N 0.87031 0.86126 0.14936 0.0
C1264 C 0.93155 1.01347 0.15428 0.0
O1265 O 0.96018 1.00389 0.12076 0.0
O1266 O 0.97759 0.75018 0.13376 0.0
Zn1267 Zn 0.91875 0.9117 0.16223 0.0
N1268 N 0.92325 0.80545 0.05179 0.0
C1269 C 0.86914 0.81893 0.99177 0.0
C1270 C 0.88028 0.81871 0.03849 0.0
C1271 C 0.95475 0.79157 1.02108 0.0
N1272 N 0.90179 0.80702 0.96045 0.0
C1273 C 0.94471 0.79399 0.97404 0.0
O1274 O 0.97386 0.91628 0.11854 0.0
C1275 C 1.00794 0.88946 0.12319 0.0
O1276 O 1.00108 0.8468 0.12385 0.0
H1277 H 0.85493 0.82916 0.06359 0.0
H1278 H 0.98721 0.77915 1.03427 0.0
C1279 C 0.99107 0.90031 0.2274 0.0
C1280 C 1.01426 0.87508 0.26107 0.0
C1281 C 0.94355 0.84272 0.285 0.0
C1282 C 0.92155 0.864 0.24818 0.0
N1283 N 0.94589 0.89164 0.21946 0.0
N1284 N 0.98965 0.84745 0.28969 0.0
H1285 H 1.00911 0.92489 0.20632 0.0
C1286 C 0.996 0.76394 0.17111 0.0
O1287 O 0.97265 0.79259 0.19692 0.0
O1288 O 0.90645 0.98154 0.17216 0.0
H1289 H 0.88546 0.8582 0.2426 0.0
H1290 H 0.83517 0.82925 0.98046 0.0
H1291 H 0.92438 0.82143 0.30868 0.0
Zn1292 Zn 0.75059 0.9501 0.1317 0.0
C1293 C 0.71767 0.82779 0.14537 0.0
N1294 N 0.76154 0.82633 0.13001 0.0
C1295 C 0.78297 0.86394 0.14627 0.0
N1296 N 0.75029 0.89233 0.16348 0.0
N1297 N 0.70948 0.87101 0.16282 0.0
C1298 C 0.55356 0.93526 0.16279 0.0
O1299 O 0.56412 0.96745 0.13308 0.0
O1300 O 0.80986 0.98357 0.13631 0.0
Zn1301 Zn 0.65461 0.91777 0.16892 0.0
N1302 N 0.73486 0.93631 0.0686 0.0
C1303 C 0.69334 0.89625 1.0103 0.0
C1304 C 0.70132 0.90589 0.05666 0.0
C1305 C 0.7597 0.95818 0.03608 0.0
N1306 N 0.71769 0.91903 0.97764 0.0
C1307 C 0.7502 0.9504 0.98949 0.0
O1308 O 0.65185 0.97361 0.12289 0.0
C1309 C 0.67373 1.00896 0.13608 0.0
O1310 O 0.71187 1.0027 0.15482 0.0
H1311 H 0.68053 0.88943 0.08252 0.0
H1312 H 0.78616 0.98202 0.04675 0.0
C1313 C 0.65842 0.9893 0.23477 0.0
C1314 C 0.68714 1.01513 0.263 0.0
C1315 C 0.72372 0.94633 0.28754 0.0
C1316 C 0.70049 0.92223 0.25376 0.0
N1317 N 0.66969 0.94471 0.22678 0.0
N1318 N 0.71836 0.99273 0.28993 0.0
H1319 H 0.63171 1.00563 0.21465 0.0
C1320 C 0.80415 1.00322 0.17499 0.0
O1321 O 0.78097 0.98124 0.20672 0.0
O1322 O 0.58464 0.90705 0.17769 0.0
H1323 H 0.70828 0.88629 0.24816 0.0
H1324 H 0.6672 0.87178 1.00034 0.0
H1325 H 0.74799 0.92841 0.30922 0.0
Zn1326 Zn 0.65072 0.65887 0.16218 0.0
C1327 C 0.70545 0.78254 0.16862 0.0
N1328 N 0.74118 0.75986 0.18789 0.0
C1329 C 0.74084 0.71646 0.17037 0.0
N1330 N 0.69911 0.70938 0.14936 0.0
N1331 N 0.67877 0.75072 0.14808 0.0
C1332 C 0.57344 0.80666 0.17117 0.0
O1333 O 0.59675 0.77793 0.19692 0.0
O1334 O 0.663 0.58901 0.17209 0.0
Zn1335 Zn 0.62517 0.76398 0.11371 0.0
N1336 N 0.62357 0.67889 0.21943 0.0
C1337 C 0.62591 0.72779 0.28498 0.0
C1338 C 0.64792 0.70652 0.24816 0.0
C1339 C 0.57839 0.67021 0.22735 0.0
N1340 N 0.5798 0.72307 0.28966 0.0
C1341 C 0.55519 0.69545 0.26103 0.0
O1342 O 0.56837 0.72383 0.12379 0.0
C1343 C 0.56151 0.68117 0.12316 0.0
O1344 O 0.59559 0.65433 0.11851 0.0
H1345 H 0.684 0.71232 0.24258 0.0
H1346 H 0.56035 0.64565 0.20626 0.0
C1347 C 0.6147 0.7791 1.02109 0.0
C1348 C 0.62475 0.77669 0.97405 0.0
C1349 C 0.70038 0.75195 0.9918 0.0
C1350 C 0.68923 0.75214 0.03852 0.0
N1351 N 0.64622 0.7653 0.05181 0.0
N1352 N 0.66771 0.76377 0.96048 0.0
H1353 H 0.5822 0.79143 1.03429 0.0
C1354 C 0.63779 0.55709 0.15435 0.0
O1355 O 0.60895 0.56668 0.12102 0.0
O1356 O 0.59185 0.82045 0.13383 0.0
H1357 H 0.7146 0.74175 0.06363 0.0
H1358 H 0.64507 0.74908 0.30867 0.0
H1359 H 0.73437 0.74171 0.9805 0.0
Zn1360 Zn 0.45035 0.80447 0.94633 0.0
C1361 C 0.39098 0.8551 0.83365 0.0
N1362 N 0.37334 0.81169 0.83315 0.0
C1363 C 0.39305 0.78841 0.86835 0.0
N1364 N 0.41389 0.82013 0.89501 0.0
N1365 N 0.41221 0.86191 0.87546 0.0
C1366 C 0.40737 1.01498 0.94883 0.0
O1367 O 0.4382 1.00196 0.97907 0.0
O1368 O 0.42971 0.74781 0.97964 0.0
Zn1369 Zn 0.40441 0.9142 0.9252 0.0
N1370 N 0.51101 0.80112 0.92219 0.0
C1371 C 0.56872 0.81292 0.86534 0.0
C1372 C 0.5226 0.81409 0.87868 0.0
C1373 C 0.54277 0.78614 0.9521 0.0
N1374 N 0.60122 0.80022 0.8965 0.0
C1375 C 0.58932 0.78747 0.93996 0.0
O1376 O 0.4528 0.91417 0.97649 0.0
C1377 C 0.44682 0.88739 1.01042 0.0
O1378 O 0.44355 0.84486 1.00326 0.0
H1379 H 0.49661 0.82543 0.85464 0.0
H1380 H 0.53082 0.77408 0.98512 0.0
C1381 C 0.34449 0.90926 1.00177 0.0
C1382 C 0.31221 0.88657 1.02897 0.0
C1383 C 0.28428 0.84841 0.96237 0.0
C1384 C 0.31939 0.86765 0.93654 0.0
N1385 N 0.34971 0.89643 0.95711 0.0
N1386 N 0.28231 0.85707 1.00821 0.0
H1387 H 0.36676 0.93512 1.01629 0.0
C1388 C 0.39279 0.76241 0.99833 0.0
O1389 O 0.36991 0.79503 0.9774 0.0
O1390 O 0.3924 0.98593 0.91855 0.0
H1391 H 0.32317 0.85855 0.90081 0.0
H1392 H 0.57868 0.82297 0.8309 0.0
H1393 H 0.26022 0.82537 0.94622 0.0
Zn1394 Zn 0.40604 0.65848 0.65304 0.0
C1395 C 0.39513 0.78343 0.70834 0.0
N1396 N 0.37481 0.76027 0.74311 0.0
C1397 C 0.39292 0.71702 0.74304 0.0
N1398 N 0.41507 0.71031 0.70176 0.0
N1399 N 0.41682 0.75189 0.68202 0.0
C1400 C 0.39416 0.80766 0.5767 0.0
O1401 O 0.37137 0.77534 0.59798 0.0
O1402 O 0.39509 0.58871 0.66561 0.0
Zn1403 Zn 0.45239 0.76634 0.62948 0.0
N1404 N 0.35043 0.67599 0.62172 0.0
C1405 C 0.2846 0.72415 0.61683 0.0
C1406 C 0.32017 0.70502 0.6424 0.0
C1407 C 0.3449 0.6632 0.57707 0.0
N1408 N 0.28226 0.71538 0.57103 0.0
C1409 C 0.31221 0.68589 0.55009 0.0
O1410 O 0.44519 0.72485 0.5733 0.0
C1411 C 0.44759 0.6822 0.56617 0.0
O1412 O 0.45258 0.65517 0.6001 0.0
H1413 H 0.32412 0.71412 0.6781 0.0
H1414 H 0.36716 0.63727 0.56238 0.0
C1415 C 0.54464 0.78479 0.62118 0.0
C1416 C 0.59144 0.78413 0.63247 0.0
C1417 C 0.57265 0.75897 0.70766 0.0
C1418 C 0.52628 0.75743 0.69529 0.0
N1419 N 0.51365 0.76999 0.65195 0.0
N1420 N 0.60433 0.77179 0.6758 0.0
H1421 H 0.53188 0.79639 0.58827 0.0
C1422 C 0.41208 0.5565 0.64015 0.0
O1423 O 0.44439 0.566 0.61019 0.0
O1424 O 0.43108 0.82228 0.59518 0.0
H1425 H 0.5009 0.74615 0.71994 0.0
H1426 H 0.26031 0.7471 0.63309 0.0
H1427 H 0.58344 0.74924 0.74196 0.0
Zn1428 Zn 0.80452 0.45322 0.61963 0.0
C1429 C 0.85438 0.39695 0.73614 0.0
N1430 N 0.81089 0.37973 0.73665 0.0
C1431 C 0.78781 0.39955 0.70141 0.0
N1432 N 0.81952 0.42066 0.67482 0.0
N1433 N 0.86134 0.4181 0.69427 0.0
C1434 C 1.01447 0.40995 0.62131 0.0
O1435 O 1.00184 0.44093 0.59104 0.0
O1436 O 0.74798 0.43078 0.58739 0.0
Zn1437 Zn 0.91338 0.40754 0.64478 0.0
N1438 N 0.79898 0.5162 0.63632 0.0
C1439 C 0.80109 0.57897 0.68889 0.0
C1440 C 0.80969 0.5327 0.67879 0.0
C1441 C 0.78049 0.5435 0.60378 0.0
N1442 N 0.78221 0.60657 0.65609 0.0
C1443 C 0.77223 0.5899 0.6135 0.0
O1444 O 0.91363 0.45497 0.59268 0.0
C1445 C 0.88807 0.44701 0.55824 0.0
O1446 O 0.84553 0.44268 0.56423 0.0
H1447 H 0.82393 0.51012 0.70476 0.0
H1448 H 0.77102 0.52827 0.57115 0.0
C1449 C 0.90866 0.34526 0.57003 0.0
C1450 C 0.88599 0.31264 0.54318 0.0
C1451 C 0.84739 0.28596 0.61005 0.0
C1452 C 0.86634 0.32178 0.63537 0.0
N1453 N 0.89525 0.35172 0.61437 0.0
N1454 N 0.85632 0.28316 0.56428 0.0
H1455 H 0.93502 0.36685 0.55543 0.0
C1456 C 0.76174 0.39336 0.56917 0.0
O1457 O 0.79391 0.37013 0.59042 0.0
O1458 O 0.98517 0.39533 0.65153 0.0
H1459 H 0.85705 0.32628 0.671 0.0
H1460 H 0.80887 0.59269 0.7226 0.0
H1461 H 0.82429 0.26201 0.6264 0.0
Zn1462 Zn 0.16343 0.91205 0.65303 0.0
C1463 C 0.17434 0.78708 0.7083 0.0
N1464 N 0.19469 0.81024 0.74306 0.0
C1465 C 0.17659 0.85349 0.74301 0.0
N1466 N 0.15442 0.86021 0.70175 0.0
N1467 N 0.15265 0.81864 0.682 0.0
C1468 C 0.17524 0.76284 0.57673 0.0
O1469 O 0.19807 0.79512 0.59803 0.0
O1470 O 0.17439 0.98183 0.6656 0.0
Zn1471 Zn 0.11705 0.80421 0.62948 0.0
N1472 N 0.21902 0.89453 0.62168 0.0
C1473 C 0.28483 0.84635 0.61675 0.0
C1474 C 0.24927 0.86549 0.64234 0.0
C1475 C 0.22455 0.90734 0.57704 0.0
N1476 N 0.28717 0.85514 0.57096 0.0
C1477 C 0.25723 0.88466 0.55004 0.0
O1478 O 0.12427 0.84569 0.5733 0.0
C1479 C 0.12186 0.88834 0.56618 0.0
O1480 O 0.11686 0.91535 0.60011 0.0
H1481 H 0.24533 0.85637 0.67803 0.0
H1482 H 0.20229 0.93328 0.56237 0.0
C1483 C 1.02479 0.78584 0.62122 0.0
C1484 C 0.97799 0.78656 0.63251 0.0
C1485 C 0.99681 0.81172 0.70769 0.0
C1486 C 0.04318 0.81321 0.69531 0.0
N1487 N 0.05579 0.80062 0.65197 0.0
N1488 N 0.96512 0.79892 0.67583 0.0
H1489 H 0.03754 0.77421 0.58831 0.0
C1490 C 0.15741 1.01403 0.64013 0.0
O1491 O 0.12512 1.00453 0.61015 0.0
O1492 O 0.1383 0.74825 0.5952 0.0
H1493 H 0.06858 0.82448 0.71996 0.0
H1494 H 0.30912 0.82339 0.633 0.0
H1495 H 0.98603 0.82147 0.74199 0.0
Zn1496 Zn 0.65606 0.16295 0.64477 0.0
C1497 C 0.78169 0.1709 0.70142 0.0
N1498 N 0.75859 0.19072 0.73665 0.0
C1499 C 0.71508 0.17355 0.73611 0.0
N1500 N 0.70817 0.15246 0.69421 0.0
N1501 N 0.74999 0.14981 0.67478 0.0
C1502 C 0.80778 0.1771 0.56917 0.0
O1503 O 0.77561 0.20034 0.59042 0.0
O1504 O 0.58426 0.17515 0.65154 0.0
Zn1505 Zn 0.76494 0.11726 0.61958 0.0
N1506 N 0.67415 0.21877 0.61433 0.0
C1507 C 0.72205 0.28449 0.60997 0.0
C1508 C 0.70311 0.24869 0.6353 0.0
C1509 C 0.66069 0.22525 0.57 0.0
N1510 N 0.71308 0.28731 0.5642 0.0
C1511 C 0.68336 0.25786 0.54313 0.0
O1512 O 0.72392 0.12787 0.5642 0.0
C1513 C 0.68138 0.12353 0.55823 0.0
O1514 O 0.65583 0.11552 0.59267 0.0
H1515 H 0.71243 0.24418 0.67091 0.0
H1516 H 0.63431 0.20367 0.55542 0.0
C1517 C 0.78885 1.02695 0.60364 0.0
C1518 C 0.79708 0.98054 0.61333 0.0
C1519 C 0.7683 0.99146 0.68875 0.0
C1520 C 0.75973 0.03775 0.67868 0.0
N1521 N 0.77042 0.05425 0.6362 0.0
N1522 N 0.78713 0.96386 0.65592 0.0
H1523 H 0.79831 0.04218 0.571 0.0
C1524 C 0.55496 0.16052 0.62133 0.0
O1525 O 0.56758 0.12952 0.59108 0.0
O1526 O 0.8215 0.13966 0.58737 0.0
H1527 H 0.74554 0.06033 0.70468 0.0
H1528 H 0.74519 0.30843 0.6263 0.0
H1529 H 0.76053 0.97774 0.72246 0.0
Zn1530 Zn 0.11908 0.76603 0.94633 0.0
C1531 C 0.17844 0.71538 0.83364 0.0
N1532 N 0.19612 0.75878 0.83316 0.0
C1533 C 0.17641 0.78207 0.86835 0.0
N1534 N 0.15553 0.75037 0.895 0.0
N1535 N 0.1572 0.70859 0.87545 0.0
C1536 C 0.16209 0.55552 0.94884 0.0
O1537 O 0.13127 0.56855 0.97909 0.0
O1538 O 0.13973 0.82269 0.97965 0.0
Zn1539 Zn 0.16503 0.6563 0.92519 0.0
N1540 N 0.05842 0.7694 0.92219 0.0
C1541 C 1.0007 0.75761 0.86535 0.0
C1542 C 0.04682 0.75642 0.87869 0.0
C1543 C 1.02668 0.78443 0.95209 0.0
N1544 N 0.96821 0.77037 0.8965 0.0
C1545 C 0.98013 0.78313 0.93995 0.0
O1546 O 0.11665 0.65633 0.97649 0.0
C1547 C 0.12261 0.68312 1.01041 0.0
O1548 O 0.12587 0.72565 1.00325 0.0
H1549 H 0.07281 0.74504 0.85465 0.0
H1550 H 0.03864 0.7965 0.98511 0.0
C1551 C 0.22496 0.66128 1.00175 0.0
C1552 C 0.25725 0.68399 1.02892 0.0
C1553 C 0.28518 0.7221 0.9623 0.0
C1554 C 0.25005 0.70285 0.93649 0.0
N1555 N 0.21973 0.67409 0.95708 0.0
N1556 N 0.28714 0.71347 1.00815 0.0
H1557 H 0.20269 0.63543 1.01627 0.0
C1558 C 0.17666 0.80808 0.99834 0.0
O1559 O 0.19953 0.77546 0.97741 0.0
O1560 O 0.17704 0.58457 0.91855 0.0
H1561 H 0.24628 0.71192 0.90075 0.0
H1562 H 0.99074 0.74756 0.83092 0.0
H1563 H 0.30924 0.74513 0.94613 0.0
Zn1564 Zn 0.91108 0.16134 0.91688 0.0
C1565 C 0.78627 0.16883 0.86184 0.0
N1566 N 0.80923 0.18927 0.82701 0.0
C1567 C 0.85259 0.17166 0.82712 0.0
N1568 N 0.85948 0.14964 0.86848 0.0
N1569 N 0.81786 0.14694 0.88811 0.0
C1570 C 0.76213 0.17598 0.99581 0.0
O1571 O 0.79406 0.19913 0.97433 0.0
O1572 O 0.98088 0.17254 0.90408 0.0
Zn1573 Zn 0.80407 0.11539 0.94448 0.0
N1574 N 0.89331 0.21798 0.94681 0.0
C1575 C 0.84541 0.28417 0.95086 0.0
C1576 C 0.86411 0.24786 0.92579 0.0
C1577 C 0.90691 0.22483 0.99105 0.0
N1578 N 0.85465 0.28742 0.99653 0.0
C1579 C 0.88438 0.25791 1.01773 0.0
O1580 O 0.84622 0.12637 0.99906 0.0
C1581 C 0.88892 0.12285 1.00494 0.0
O1582 O 0.91466 0.1156 0.97043 0.0
H1583 H 0.85465 0.24315 0.89026 0.0
H1584 H 0.93341 0.20328 1.00573 0.0
C1585 C 0.78003 1.02545 0.9628 0.0
C1586 C 0.77173 0.97889 0.9541 0.0
C1587 C 0.80022 0.98808 0.87833 0.0
C1588 C 0.80876 1.03451 0.88737 0.0
N1589 N 0.79824 0.05198 0.92952 0.0
N1590 N 0.78154 0.9613 0.9118 0.0
H1591 H 0.77076 0.04137 0.99519 0.0
C1592 C 1.01319 0.15675 0.93018 0.0
O1593 O 1.00389 0.12553 0.96135 0.0
O1594 O 0.7483 0.13863 0.97769 0.0
H1595 H 0.82284 0.05646 0.86086 0.0
H1596 H 0.82241 0.30836 0.93442 0.0
H1597 H 0.80787 0.9736 0.84489 0.0
Zn1598 Zn 0.76538 0.45511 0.94444 0.0
C1599 C 0.71687 0.39885 0.82712 0.0
N1600 N 0.7602 0.38118 0.82704 0.0
C1601 C 0.78315 0.40161 0.86187 0.0
N1602 N 0.75154 0.42352 0.88811 0.0
N1603 N 0.70992 0.4209 0.86846 0.0
C1604 C 0.55625 0.41376 0.93019 0.0
O1605 O 0.56555 0.44498 0.96137 0.0
O1606 O 0.82113 0.43186 0.97766 0.0
Zn1607 Zn 0.65837 0.40918 0.9169 0.0
N1608 N 0.77127 0.51849 0.9294 0.0
C1609 C 0.76931 0.58236 0.87817 0.0
C1610 C 0.76073 0.53594 0.88724 0.0
C1611 C 0.78955 0.54503 0.96264 0.0
N1612 N 0.78805 0.60914 0.91161 0.0
C1613 C 0.79787 0.59158 0.9539 0.0
O1614 O 0.65477 0.45493 0.97044 0.0
C1615 C 0.68054 0.44774 1.00493 0.0
O1616 O 0.72323 0.44423 0.99904 0.0
H1617 H 0.7466 0.51399 0.86076 0.0
H1618 H 0.79883 0.52912 0.99503 0.0
C1619 C 0.66259 0.34572 0.99108 0.0
C1620 C 0.68511 0.31262 1.01774 0.0
C1621 C 0.724 0.28631 0.95084 0.0
C1622 C 0.70531 0.32263 0.92578 0.0
N1623 N 0.67616 0.35255 0.94682 0.0
N1624 N 0.7148 0.28308 0.99652 0.0
H1625 H 0.63612 0.36729 1.00577 0.0
C1626 C 0.80727 0.39452 0.99579 0.0
O1627 O 0.77533 0.37138 0.97431 0.0
O1628 O 0.58857 0.39797 0.90411 0.0
H1629 H 0.71474 0.32733 0.89023 0.0
H1630 H 0.76164 0.59683 0.84472 0.0
H1631 H 0.74697 0.2621 0.93439 0.0
loop_
_geom_bond_atom_site_label_1
_geom_bond_atom_site_label_2
_geom_bond_distance
_geom_bond_site_symmetry_2
_ccdc_geom_bond_type
Zn0 N4 2.020 . S
Zn0 O8 2.019 . S
Zn0 N10 2.119 . S
Zn0 O18 1.975 . S
C1 N2 1.334 . S
C1 N5 1.336 . S
N2 C1 1.334 . S
N2 C3 1.334 . S
C3 N2 1.334 . S
C3 N4 1.336 . S
N4 Zn0 2.020 . S
N4 C3 1.336 . S
N4 N5 1.354 . S
N5 C1 1.336 . S
N5 N4 1.354 . S
N5 Zn9 2.020 . S
C6 O7 1.244 . S
C6 O30 1.257 . S
O7 C6 1.244 . S
O8 Zn0 2.019 . S
O8 C28 1.257 . S
Zn9 N5 2.020 . S
Zn9 O16 1.975 . S
Zn9 N25 2.119 . S
Zn9 O30 2.019 . S
N10 Zn0 2.119 . S
N10 C12 1.334 . S
N10 C13 1.328 . S
C11 C12 1.391 . S
C11 N14 1.329 . S
C11 H32 0.930 . S
C12 N10 1.334 . S
C12 C11 1.391 . S
C12 H19 0.930 . S
C13 N10 1.328 . S
C13 C15 1.392 . S
C13 H20 0.930 . S
N14 C11 1.329 . S
N14 C15 1.331 . S
C15 C13 1.392 . S
C15 N14 1.331 . S
O16 Zn9 1.975 . S
O16 C17 1.252 . S
C17 O16 1.252 . S
C17 O18 1.252 . S
O18 Zn0 1.975 . S
O18 C17 1.252 . S
H19 C12 0.930 . S
H20 C13 0.930 . S
C21 C22 1.392 . S
C21 N25 1.328 . S
C21 H27 0.930 . S
C22 C21 1.392 . S
C22 N26 1.331 . S
C23 C24 1.391 . S
C23 N26 1.329 . S
C23 H33 0.930 . S
C24 C23 1.391 . S
C24 N25 1.334 . S
C24 H31 0.930 . S
N25 Zn9 2.119 . S
N25 C21 1.328 . S
N25 C24 1.334 . S
N26 C22 1.331 . S
N26 C23 1.329 . S
H27 C21 0.930 . S
C28 O8 1.257 . S
C28 O29 1.244 . S
O29 C28 1.244 . S
O30 C6 1.257 . S
O30 Zn9 2.019 . S
H31 C24 0.930 . S
H32 C11 0.930 . S
H33 C23 0.930 . S
Zn34 N38 2.020 . S
Zn34 O42 2.019 . S
Zn34 N44 2.119 . S
Zn34 O52 1.975 . S
C35 N36 1.334 . S
C35 N39 1.336 . S
N36 C35 1.334 . S
N36 C37 1.334 . S
C37 N36 1.334 . S
C37 N38 1.336 . S
N38 Zn34 2.020 . S
N38 C37 1.336 . S
N38 N39 1.354 . S
N39 C35 1.336 . S
N39 N38 1.354 . S
N39 Zn43 2.020 . S
C40 O41 1.244 . S
C40 O64 1.257 . S
O41 C40 1.244 . S
O42 Zn34 2.019 . S
O42 C62 1.257 . S
Zn43 N39 2.020 . S
Zn43 O50 1.975 . S
Zn43 N59 2.119 1_655 S
Zn43 O64 2.019 . S
N44 Zn34 2.119 . S
N44 C46 1.334 . S
N44 C47 1.328 . S
C45 C46 1.391 . S
C45 N48 1.329 . S
C45 H66 0.930 . S
C46 N44 1.334 . S
C46 C45 1.391 . S
C46 H53 0.930 . S
C47 N44 1.328 . S
C47 C49 1.392 . S
C47 H54 0.930 . S
N48 C45 1.329 . S
N48 C49 1.331 . S
C49 C47 1.392 . S
C49 N48 1.331 . S
O50 Zn43 1.975 . S
O50 C51 1.252 . S
C51 O50 1.252 . S
C51 O52 1.252 . S
O52 Zn34 1.975 . S
O52 C51 1.252 . S
H53 C46 0.930 . S
H54 C47 0.930 . S
C55 C56 1.392 . S
C55 N59 1.328 . S
C55 H61 0.930 . S
C56 C55 1.392 . S
C56 N60 1.331 . S
C57 C58 1.391 . S
C57 N60 1.329 . S
C57 H67 0.930 . S
C58 C57 1.391 . S
C58 N59 1.334 . S
C58 H65 0.930 . S
N59 Zn43 2.119 1_455 S
N59 C55 1.328 . S
N59 C58 1.334 . S
N60 C56 1.331 . S
N60 C57 1.329 . S
H61 C55 0.930 . S
C62 O42 1.257 . S
C62 O63 1.244 . S
O63 C62 1.244 . S
O64 C40 1.257 . S
O64 Zn43 2.019 . S
H65 C58 0.930 . S
H66 C45 0.930 . S
H67 C57 0.930 . S
Zn68 N72 2.020 . S
Zn68 O76 2.019 . S
Zn68 N78 2.119 . S
Zn68 O86 1.975 . S
C69 N70 1.334 . S
C69 N73 1.336 . S
N70 C69 1.334 . S
N70 C71 1.334 . S
C71 N70 1.334 . S
C71 N72 1.336 . S
N72 Zn68 2.020 . S
N72 C71 1.336 . S
N72 N73 1.354 . S
N73 C69 1.336 . S
N73 N72 1.354 . S
N73 Zn77 2.020 . S
C74 O75 1.244 . S
C74 O98 1.257 . S
O75 C74 1.244 . S
O76 Zn68 2.019 . S
O76 C96 1.257 . S
Zn77 N73 2.020 . S
Zn77 O84 1.975 . S
Zn77 N93 2.119 1_565 S
Zn77 O98 2.019 . S
N78 Zn68 2.119 . S
N78 C80 1.334 . S
N78 C81 1.328 . S
C79 C80 1.391 . S
C79 N82 1.329 . S
C79 H100 0.930 . S
C80 N78 1.334 . S
C80 C79 1.391 . S
C80 H87 0.930 . S
C81 N78 1.328 . S
C81 C83 1.392 . S
C81 H88 0.930 . S
N82 C79 1.329 . S
N82 C83 1.331 . S
C83 C81 1.392 . S
C83 N82 1.331 . S
O84 Zn77 1.975 . S
O84 C85 1.252 . S
C85 O84 1.252 . S
C85 O86 1.252 . S
O86 Zn68 1.975 . S
O86 C85 1.252 . S
H87 C80 0.930 . S
H88 C81 0.930 . S
C89 C90 1.392 . S
C89 N93 1.328 . S
C89 H95 0.930 . S
C90 C89 1.392 . S
C90 N94 1.331 . S
C91 C92 1.391 . S
C91 N94 1.329 . S
C91 H101 0.930 . S
C92 C91 1.391 . S
C92 N93 1.334 . S
C92 H99 0.930 . S
N93 Zn77 2.119 1_545 S
N93 C89 1.328 . S
N93 C92 1.334 . S
N94 C90 1.331 . S
N94 C91 1.329 . S
H95 C89 0.930 . S
C96 O76 1.257 . S
C96 O97 1.244 . S
O97 C96 1.244 . S
O98 C74 1.257 . S
O98 Zn77 2.019 . S
H99 C92 0.930 . S
H100 C79 0.930 . S
H101 C91 0.930 . S
Zn102 N106 2.020 . S
Zn102 O110 2.019 . S
Zn102 N112 2.119 . S
Zn102 O120 1.975 . S
C103 N104 1.334 . S
C103 N107 1.336 . S
N104 C103 1.334 . S
N104 C105 1.334 . S
C105 N104 1.334 . S
C105 N106 1.336 . S
N106 Zn102 2.020 . S
N106 C105 1.336 . S
N106 N107 1.354 . S
N107 C103 1.336 . S
N107 N106 1.354 . S
N107 Zn111 2.020 . S
C108 O109 1.244 . S
C108 O132 1.257 . S
O109 C108 1.244 . S
O110 Zn102 2.019 . S
O110 C130 1.257 . S
Zn111 N107 2.020 . S
Zn111 O118 1.975 . S
Zn111 N127 2.119 . S
Zn111 O132 2.019 . S
N112 Zn102 2.119 . S
N112 C114 1.334 . S
N112 C115 1.328 . S
C113 C114 1.391 . S
C113 N116 1.329 . S
C113 H134 0.930 . S
C114 N112 1.334 . S
C114 C113 1.391 . S
C114 H121 0.930 . S
C115 N112 1.328 . S
C115 C117 1.392 . S
C115 H122 0.930 . S
N116 C113 1.329 . S
N116 C117 1.331 . S
C117 C115 1.392 . S
C117 N116 1.331 . S
O118 Zn111 1.975 . S
O118 C119 1.252 . S
C119 O118 1.252 . S
C119 O120 1.252 . S
O120 Zn102 1.975 . S
O120 C119 1.252 . S
H121 C114 0.930 . S
H122 C115 0.930 . S
C123 C124 1.392 . S
C123 N127 1.328 . S
C123 H129 0.930 . S
C124 C123 1.392 . S
C124 N128 1.331 . S
C125 C126 1.391 . S
C125 N128 1.329 . S
C125 H135 0.930 . S
C126 C125 1.391 . S
C126 N127 1.334 . S
C126 H133 0.930 . S
N127 Zn111 2.119 . S
N127 C123 1.328 . S
N127 C126 1.334 . S
N128 C124 1.331 . S
N128 C125 1.329 . S
H129 C123 0.930 . S
C130 O110 1.257 . S
C130 O131 1.244 . S
O131 C130 1.244 . S
O132 C108 1.257 . S
O132 Zn111 2.019 . S
H133 C126 0.930 . S
H134 C113 0.930 . S
H135 C125 0.930 . S
Zn136 N140 2.020 . S
Zn136 O144 2.019 . S
Zn136 N146 2.119 . S
Zn136 O154 1.975 . S
C137 N138 1.334 . S
C137 N141 1.336 . S
N138 C137 1.334 . S
N138 C139 1.334 . S
C139 N138 1.334 . S
C139 N140 1.336 . S
N140 Zn136 2.020 . S
N140 C139 1.336 . S
N140 N141 1.354 . S
N141 C137 1.336 . S
N141 N140 1.354 . S
N141 Zn145 2.020 . S
C142 O143 1.244 . S
C142 O166 1.257 . S
O143 C142 1.244 . S
O144 Zn136 2.019 . S
O144 C164 1.257 . S
Zn145 N141 2.020 . S
Zn145 O152 1.975 . S
Zn145 N161 2.119 1_565 S
Zn145 O166 2.019 . S
N146 Zn136 2.119 . S
N146 C148 1.334 . S
N146 C149 1.328 . S
C147 C148 1.391 . S
C147 N150 1.329 . S
C147 H168 0.930 . S
C148 N146 1.334 . S
C148 C147 1.391 . S
C148 H155 0.930 . S
C149 N146 1.328 . S
C149 C151 1.392 . S
C149 H156 0.930 . S
N150 C147 1.329 . S
N150 C151 1.331 . S
C151 C149 1.392 . S
C151 N150 1.331 . S
O152 Zn145 1.975 . S
O152 C153 1.252 . S
C153 O152 1.252 . S
C153 O154 1.252 . S
O154 Zn136 1.975 . S
O154 C153 1.252 . S
H155 C148 0.930 . S
H156 C149 0.930 . S
C157 C158 1.392 . S
C157 N161 1.328 . S
C157 H163 0.930 . S
C158 C157 1.392 . S
C158 N162 1.331 . S
C159 C160 1.391 . S
C159 N162 1.329 . S
C159 H169 0.930 . S
C160 C159 1.391 . S
C160 N161 1.334 . S
C160 H167 0.930 . S
N161 Zn145 2.119 1_545 S
N161 C157 1.328 . S
N161 C160 1.334 . S
N162 C158 1.331 . S
N162 C159 1.329 . S
H163 C157 0.930 . S
C164 O144 1.257 . S
C164 O165 1.244 . S
O165 C164 1.244 . S
O166 C142 1.257 . S
O166 Zn145 2.019 . S
H167 C160 0.930 . S
H168 C147 0.930 . S
H169 C159 0.930 . S
Zn170 N174 2.020 . S
Zn170 O178 2.019 . S
Zn170 N180 2.119 . S
Zn170 O188 1.975 . S
C171 N172 1.334 . S
C171 N175 1.336 . S
N172 C171 1.334 . S
N172 C173 1.334 . S
C173 N172 1.334 . S
C173 N174 1.336 . S
N174 Zn170 2.020 . S
N174 C173 1.336 . S
N174 N175 1.354 . S
N175 C171 1.336 . S
N175 N174 1.354 . S
N175 Zn179 2.020 . S
C176 O177 1.244 . S
C176 O200 1.257 . S
O177 C176 1.244 . S
O178 Zn170 2.019 . S
O178 C198 1.257 . S
Zn179 N175 2.020 . S
Zn179 O186 1.975 . S
Zn179 N195 2.119 . S
Zn179 O200 2.019 . S
N180 Zn170 2.119 . S
N180 C182 1.334 . S
N180 C183 1.328 . S
C181 C182 1.391 . S
C181 N184 1.329 . S
C181 H202 0.930 . S
C182 N180 1.334 . S
C182 C181 1.391 . S
C182 H189 0.930 . S
C183 N180 1.328 . S
C183 C185 1.392 . S
C183 H190 0.930 . S
N184 C181 1.329 . S
N184 C185 1.331 . S
C185 C183 1.392 . S
C185 N184 1.331 . S
O186 Zn179 1.975 . S
O186 C187 1.252 . S
C187 O186 1.252 . S
C187 O188 1.252 . S
O188 Zn170 1.975 . S
O188 C187 1.252 . S
H189 C182 0.930 . S
H190 C183 0.930 . S
C191 C192 1.392 . S
C191 N195 1.328 . S
C191 H197 0.930 . S
C192 C191 1.392 . S
C192 N196 1.331 . S
C193 C194 1.391 . S
C193 N196 1.329 . S
C193 H203 0.930 . S
C194 C193 1.391 . S
C194 N195 1.334 . S
C194 H201 0.930 . S
N195 Zn179 2.119 . S
N195 C191 1.328 . S
N195 C194 1.334 . S
N196 C192 1.331 . S
N196 C193 1.329 . S
H197 C191 0.930 . S
C198 O178 1.257 . S
C198 O199 1.244 . S
O199 C198 1.244 . S
O200 C176 1.257 . S
O200 Zn179 2.019 . S
H201 C194 0.930 . S
H202 C181 0.930 . S
H203 C193 0.930 . S
Zn204 N208 2.020 . S
Zn204 O212 2.019 . S
Zn204 N214 2.119 . S
Zn204 O222 1.975 . S
C205 N206 1.334 . S
C205 N209 1.336 . S
N206 C205 1.334 . S
N206 C207 1.334 . S
C207 N206 1.334 . S
C207 N208 1.336 . S
N208 Zn204 2.020 . S
N208 C207 1.336 . S
N208 N209 1.354 . S
N209 C205 1.336 . S
N209 N208 1.354 . S
N209 Zn213 2.020 . S
C210 O211 1.244 . S
C210 O234 1.257 . S
O211 C210 1.244 . S
O212 Zn204 2.019 . S
O212 C232 1.257 . S
Zn213 N209 2.020 . S
Zn213 O220 1.975 . S
Zn213 N229 2.119 . S
Zn213 O234 2.019 . S
N214 Zn204 2.119 . S
N214 C216 1.334 . S
N214 C217 1.328 . S
C215 C216 1.391 . S
C215 N218 1.329 . S
C215 H236 0.930 . S
C216 N214 1.334 . S
C216 C215 1.391 . S
C216 H223 0.930 . S
C217 N214 1.328 . S
C217 C219 1.392 . S
C217 H224 0.930 . S
N218 C215 1.329 . S
N218 C219 1.331 . S
C219 C217 1.392 . S
C219 N218 1.331 . S
O220 Zn213 1.975 . S
O220 C221 1.252 . S
C221 O220 1.252 . S
C221 O222 1.252 . S
O222 Zn204 1.975 . S
O222 C221 1.252 . S
H223 C216 0.930 . S
H224 C217 0.930 . S
C225 C226 1.392 . S
C225 N229 1.328 . S
C225 H231 0.930 . S
C226 C225 1.392 . S
C226 N230 1.331 . S
C227 C228 1.391 . S
C227 N230 1.329 . S
C227 H237 0.930 . S
C228 C227 1.391 . S
C228 N229 1.334 . S
C228 H235 0.930 . S
N229 Zn213 2.119 . S
N229 C225 1.328 . S
N229 C228 1.334 . S
N230 C226 1.331 . S
N230 C227 1.329 . S
H231 C225 0.930 . S
C232 O212 1.257 . S
C232 O233 1.244 . S
O233 C232 1.244 . S
O234 C210 1.257 . S
O234 Zn213 2.019 . S
H235 C228 0.930 . S
H236 C215 0.930 . S
H237 C227 0.930 . S
Zn238 N242 2.020 . S
Zn238 O246 2.019 . S
Zn238 N248 2.119 1_655 S
Zn238 O256 1.975 . S
C239 N240 1.334 . S
C239 N243 1.336 . S
N240 C239 1.334 . S
N240 C241 1.334 . S
C241 N240 1.334 . S
C241 N242 1.336 . S
N242 Zn238 2.020 . S
N242 C241 1.336 . S
N242 N243 1.354 . S
N243 C239 1.336 . S
N243 N242 1.354 . S
N243 Zn247 2.020 . S
C244 O245 1.244 . S
C244 O268 1.257 . S
O245 C244 1.244 . S
O246 Zn238 2.019 . S
O246 C266 1.257 . S
Zn247 N243 2.020 . S
Zn247 O254 1.975 . S
Zn247 N263 2.119 . S
Zn247 O268 2.019 . S
N248 Zn238 2.119 1_455 S
N248 C250 1.334 . S
N248 C251 1.328 . S
C249 C250 1.391 . S
C249 N252 1.329 . S
C249 H270 0.930 . S
C250 N248 1.334 . S
C250 C249 1.391 . S
C250 H257 0.930 . S
C251 N248 1.328 . S
C251 C253 1.392 . S
C251 H258 0.930 . S
N252 C249 1.329 . S
N252 C253 1.331 . S
C253 C251 1.392 . S
C253 N252 1.331 . S
O254 Zn247 1.975 . S
O254 C255 1.252 . S
C255 O254 1.252 . S
C255 O256 1.252 . S
O256 Zn238 1.975 . S
O256 C255 1.252 . S
H257 C250 0.930 . S
H258 C251 0.930 . S
C259 C260 1.392 . S
C259 N263 1.328 . S
C259 H265 0.930 . S
C260 C259 1.392 . S
C260 N264 1.331 . S
C261 C262 1.391 . S
C261 N264 1.329 . S
C261 H271 0.930 . S
C262 C261 1.391 . S
C262 N263 1.334 . S
C262 H269 0.930 . S
N263 Zn247 2.119 . S
N263 C259 1.328 . S
N263 C262 1.334 . S
N264 C260 1.331 . S
N264 C261 1.329 . S
H265 C259 0.930 . S
C266 O246 1.257 . S
C266 O267 1.244 . S
O267 C266 1.244 . S
O268 C244 1.257 . S
O268 Zn247 2.019 . S
H269 C262 0.930 . S
H270 C249 0.930 . S
H271 C261 0.930 . S
Zn272 N276 2.020 . S
Zn272 O280 2.019 . S
Zn272 N282 2.119 . S
Zn272 O290 1.975 . S
C273 N274 1.334 . S
C273 N277 1.336 . S
N274 C273 1.334 . S
N274 C275 1.334 . S
C275 N274 1.334 . S
C275 N276 1.336 . S
N276 Zn272 2.020 . S
N276 C275 1.336 . S
N276 N277 1.354 . S
N277 C273 1.336 . S
N277 N276 1.354 . S
N277 Zn281 2.020 . S
C278 O279 1.244 . S
C278 O302 1.257 . S
O279 C278 1.244 . S
O280 Zn272 2.019 . S
O280 C300 1.257 . S
Zn281 N277 2.020 . S
Zn281 O288 1.975 . S
Zn281 N297 2.119 . S
Zn281 O302 2.019 . S
N282 Zn272 2.119 . S
N282 C284 1.334 . S
N282 C285 1.328 . S
C283 C284 1.391 . S
C283 N286 1.329 . S
C283 H304 0.930 . S
C284 N282 1.334 . S
C284 C283 1.391 . S
C284 H291 0.930 . S
C285 N282 1.328 . S
C285 C287 1.392 . S
C285 H292 0.930 . S
N286 C283 1.329 . S
N286 C287 1.331 . S
C287 C285 1.392 . S
C287 N286 1.331 . S
O288 Zn281 1.975 . S
O288 C289 1.252 . S
C289 O288 1.252 . S
C289 O290 1.252 . S
O290 Zn272 1.975 . S
O290 C289 1.252 . S
H291 C284 0.930 . S
H292 C285 0.930 . S
C293 C294 1.392 . S
C293 N297 1.328 . S
C293 H299 0.930 . S
C294 C293 1.392 . S
C294 N298 1.331 . S
C295 C296 1.391 . S
C295 N298 1.329 . S
C295 H305 0.930 . S
C296 C295 1.391 . S
C296 N297 1.334 . S
C296 H303 0.930 . S
N297 Zn281 2.119 . S
N297 C293 1.328 . S
N297 C296 1.334 . S
N298 C294 1.331 . S
N298 C295 1.329 . S
H299 C293 0.930 . S
C300 O280 1.257 . S
C300 O301 1.244 . S
O301 C300 1.244 . S
O302 C278 1.257 . S
O302 Zn281 2.019 . S
H303 C296 0.930 . S
H304 C283 0.930 . S
H305 C295 0.930 . S
Zn306 N310 2.020 . S
Zn306 O314 2.019 . S
Zn306 N316 2.119 . S
Zn306 O324 1.975 . S
C307 N308 1.334 . S
C307 N311 1.336 . S
N308 C307 1.334 . S
N308 C309 1.334 . S
C309 N308 1.334 . S
C309 N310 1.336 . S
N310 Zn306 2.020 . S
N310 C309 1.336 . S
N310 N311 1.354 . S
N311 C307 1.336 . S
N311 N310 1.354 . S
N311 Zn315 2.020 . S
C312 O313 1.244 . S
C312 O336 1.257 . S
O313 C312 1.244 . S
O314 Zn306 2.019 . S
O314 C334 1.257 . S
Zn315 N311 2.020 . S
Zn315 O322 1.975 . S
Zn315 N331 2.119 . S
Zn315 O336 2.019 . S
N316 Zn306 2.119 . S
N316 C318 1.334 . S
N316 C319 1.328 . S
C317 C318 1.391 . S
C317 N320 1.329 . S
C317 H338 0.930 . S
C318 N316 1.334 . S
C318 C317 1.391 . S
C318 H325 0.930 . S
C319 N316 1.328 . S
C319 C321 1.392 . S
C319 H326 0.930 . S
N320 C317 1.329 . S
N320 C321 1.331 . S
C321 C319 1.392 . S
C321 N320 1.331 . S
O322 Zn315 1.975 . S
O322 C323 1.252 . S
C323 O322 1.252 . S
C323 O324 1.252 . S
O324 Zn306 1.975 . S
O324 C323 1.252 . S
H325 C318 0.930 . S
H326 C319 0.930 . S
C327 C328 1.392 . S
C327 N331 1.328 . S
C327 H333 0.930 . S
C328 C327 1.392 . S
C328 N332 1.331 . S
C329 C330 1.391 . S
C329 N332 1.329 . S
C329 H339 0.930 . S
C330 C329 1.391 . S
C330 N331 1.334 . S
C330 H337 0.930 . S
N331 Zn315 2.119 . S
N331 C327 1.328 . S
N331 C330 1.334 . S
N332 C328 1.331 . S
N332 C329 1.329 . S
H333 C327 0.930 . S
C334 O314 1.257 . S
C334 O335 1.244 . S
O335 C334 1.244 . S
O336 C312 1.257 . S
O336 Zn315 2.019 . S
H337 C330 0.930 . S
H338 C317 0.930 . S
H339 C329 0.930 . S
Zn340 N344 2.020 . S
Zn340 O348 2.019 . S
Zn340 N350 2.119 . S
Zn340 O358 1.975 . S
C341 N342 1.334 . S
C341 N345 1.336 . S
N342 C341 1.334 . S
N342 C343 1.334 . S
C343 N342 1.334 . S
C343 N344 1.336 . S
N344 Zn340 2.020 . S
N344 C343 1.336 . S
N344 N345 1.354 . S
N345 C341 1.336 . S
N345 N344 1.354 . S
N345 Zn349 2.020 . S
C346 O347 1.244 . S
C346 O370 1.257 . S
O347 C346 1.244 . S
O348 Zn340 2.019 . S
O348 C368 1.257 . S
Zn349 N345 2.020 . S
Zn349 O356 1.975 . S
Zn349 N365 2.119 . S
Zn349 O370 2.019 . S
N350 Zn340 2.119 . S
N350 C352 1.334 . S
N350 C353 1.328 . S
C351 C352 1.391 . S
C351 N354 1.329 . S
C351 H372 0.930 . S
C352 N350 1.334 . S
C352 C351 1.391 . S
C352 H359 0.930 . S
C353 N350 1.328 . S
C353 C355 1.392 . S
C353 H360 0.930 . S
N354 C351 1.329 . S
N354 C355 1.331 . S
C355 C353 1.392 . S
C355 N354 1.331 . S
O356 Zn349 1.975 . S
O356 C357 1.252 . S
C357 O356 1.252 . S
C357 O358 1.252 . S
O358 Zn340 1.975 . S
O358 C357 1.252 . S
H359 C352 0.930 . S
H360 C353 0.930 . S
C361 C362 1.392 . S
C361 N365 1.328 . S
C361 H367 0.930 . S
C362 C361 1.392 . S
C362 N366 1.331 . S
C363 C364 1.391 . S
C363 N366 1.329 . S
C363 H373 0.930 . S
C364 C363 1.391 . S
C364 N365 1.334 . S
C364 H371 0.930 . S
N365 Zn349 2.119 . S
N365 C361 1.328 . S
N365 C364 1.334 . S
N366 C362 1.331 . S
N366 C363 1.329 . S
H367 C361 0.930 . S
C368 O348 1.257 . S
C368 O369 1.244 . S
O369 C368 1.244 . S
O370 C346 1.257 . S
O370 Zn349 2.019 . S
H371 C364 0.930 . S
H372 C351 0.930 . S
H373 C363 0.930 . S
Zn374 N378 2.020 . S
Zn374 O382 2.019 . S
Zn374 N384 2.119 . S
Zn374 O392 1.975 . S
C375 N376 1.334 . S
C375 N379 1.336 . S
N376 C375 1.334 . S
N376 C377 1.334 . S
C377 N376 1.334 . S
C377 N378 1.336 . S
N378 Zn374 2.020 . S
N378 C377 1.336 . S
N378 N379 1.354 . S
N379 C375 1.336 . S
N379 N378 1.354 . S
N379 Zn383 2.020 . S
C380 O381 1.244 . S
C380 O404 1.257 . S
O381 C380 1.244 . S
O382 Zn374 2.019 . S
O382 C402 1.257 . S
Zn383 N379 2.020 . S
Zn383 O390 1.975 . S
Zn383 N399 2.119 . S
Zn383 O404 2.019 . S
N384 Zn374 2.119 . S
N384 C386 1.334 . S
N384 C387 1.328 . S
C385 C386 1.391 . S
C385 N388 1.329 . S
C385 H406 0.930 . S
C386 N384 1.334 . S
C386 C385 1.391 . S
C386 H393 0.930 . S
C387 N384 1.328 . S
C387 C389 1.392 . S
C387 H394 0.930 . S
N388 C385 1.329 . S
N388 C389 1.331 . S
C389 C387 1.392 . S
C389 N388 1.331 . S
O390 Zn383 1.975 . S
O390 C391 1.252 . S
C391 O390 1.252 . S
C391 O392 1.252 . S
O392 Zn374 1.975 . S
O392 C391 1.252 . S
H393 C386 0.930 . S
H394 C387 0.930 . S
C395 C396 1.392 . S
C395 N399 1.328 . S
C395 H401 0.930 . S
C396 C395 1.392 . S
C396 N400 1.331 . S
C397 C398 1.391 . S
C397 N400 1.329 . S
C397 H407 0.930 . S
C398 C397 1.391 . S
C398 N399 1.334 . S
C398 H405 0.930 . S
N399 Zn383 2.119 . S
N399 C395 1.328 . S
N399 C398 1.334 . S
N400 C396 1.331 . S
N400 C397 1.329 . S
H401 C395 0.930 . S
C402 O382 1.257 . S
C402 O403 1.244 . S
O403 C402 1.244 . S
O404 C380 1.257 . S
O404 Zn383 2.019 . S
H405 C398 0.930 . S
H406 C385 0.930 . S
H407 C397 0.930 . S
Zn408 N412 2.020 . S
Zn408 O416 2.019 . S
Zn408 N418 2.119 1_556 S
Zn408 O426 1.975 . S
C409 N410 1.334 . S
C409 N413 1.336 . S
N410 C409 1.334 . S
N410 C411 1.334 . S
C411 N410 1.334 . S
C411 N412 1.336 . S
N412 Zn408 2.020 . S
N412 C411 1.336 . S
N412 N413 1.354 . S
N413 C409 1.336 . S
N413 N412 1.354 . S
N413 Zn417 2.020 . S
C414 O415 1.244 . S
C414 O438 1.257 . S
O415 C414 1.244 . S
O416 Zn408 2.019 . S
O416 C436 1.257 . S
Zn417 N413 2.020 . S
Zn417 O424 1.975 . S
Zn417 N433 2.119 . S
Zn417 O438 2.019 . S
N418 Zn408 2.119 1_554 S
N418 C420 1.334 . S
N418 C421 1.328 . S
C419 C420 1.391 . S
C419 N422 1.329 . S
C419 H440 0.930 . S
C420 N418 1.334 . S
C420 C419 1.391 . S
C420 H427 0.930 . S
C421 N418 1.328 . S
C421 C423 1.392 . S
C421 H428 0.930 . S
N422 C419 1.329 . S
N422 C423 1.331 . S
C423 C421 1.392 . S
C423 N422 1.331 . S
O424 Zn417 1.975 . S
O424 C425 1.252 . S
C425 O424 1.252 . S
C425 O426 1.252 . S
O426 Zn408 1.975 . S
O426 C425 1.252 . S
H427 C420 0.930 . S
H428 C421 0.930 . S
C429 C430 1.392 . S
C429 N433 1.328 . S
C429 H435 0.930 . S
C430 C429 1.392 . S
C430 N434 1.331 . S
C431 C432 1.391 . S
C431 N434 1.329 . S
C431 H441 0.930 . S
C432 C431 1.391 . S
C432 N433 1.334 . S
C432 H439 0.930 . S
N433 Zn417 2.119 . S
N433 C429 1.328 . S
N433 C432 1.334 . S
N434 C430 1.331 . S
N434 C431 1.329 . S
H435 C429 0.930 . S
C436 O416 1.257 . S
C436 O437 1.244 . S
O437 C436 1.244 . S
O438 C414 1.257 . S
O438 Zn417 2.019 . S
H439 C432 0.930 . S
H440 C419 0.930 . S
H441 C431 0.930 . S
Zn442 N446 2.020 . S
Zn442 O450 2.019 . S
Zn442 N452 2.119 . S
Zn442 O460 1.975 . S
C443 N444 1.334 . S
C443 N447 1.336 . S
N444 C443 1.334 . S
N444 C445 1.334 . S
C445 N444 1.334 . S
C445 N446 1.336 . S
N446 Zn442 2.020 . S
N446 C445 1.336 . S
N446 N447 1.354 . S
N447 C443 1.336 . S
N447 N446 1.354 . S
N447 Zn451 2.020 . S
C448 O449 1.244 . S
C448 O472 1.257 . S
O449 C448 1.244 . S
O450 Zn442 2.019 . S
O450 C470 1.257 . S
Zn451 N447 2.020 . S
Zn451 O458 1.975 . S
Zn451 N467 2.119 1_556 S
Zn451 O472 2.019 . S
N452 Zn442 2.119 . S
N452 C454 1.334 . S
N452 C455 1.328 . S
C453 C454 1.391 . S
C453 N456 1.329 . S
C453 H474 0.930 . S
C454 N452 1.334 . S
C454 C453 1.391 . S
C454 H461 0.930 . S
C455 N452 1.328 . S
C455 C457 1.392 . S
C455 H462 0.930 . S
N456 C453 1.329 . S
N456 C457 1.331 . S
C457 C455 1.392 . S
C457 N456 1.331 . S
O458 Zn451 1.975 . S
O458 C459 1.252 . S
C459 O458 1.252 . S
C459 O460 1.252 . S
O460 Zn442 1.975 . S
O460 C459 1.252 . S
H461 C454 0.930 . S
H462 C455 0.930 . S
C463 C464 1.392 . S
C463 N467 1.328 . S
C463 H469 0.930 . S
C464 C463 1.392 . S
C464 N468 1.331 . S
C465 C466 1.391 . S
C465 N468 1.329 . S
C465 H475 0.930 . S
C466 C465 1.391 . S
C466 N467 1.334 . S
C466 H473 0.930 . S
N467 Zn451 2.119 1_554 S
N467 C463 1.328 . S
N467 C466 1.334 . S
N468 C464 1.331 . S
N468 C465 1.329 . S
H469 C463 0.930 . S
C470 O450 1.257 . S
C470 O471 1.244 . S
O471 C470 1.244 . S
O472 C448 1.257 . S
O472 Zn451 2.019 . S
H473 C466 0.930 . S
H474 C453 0.930 . S
H475 C465 0.930 . S
Zn476 N480 2.020 . S
Zn476 O484 2.019 . S
Zn476 N486 2.119 . S
Zn476 O494 1.975 . S
C477 N478 1.334 . S
C477 N481 1.336 . S
N478 C477 1.334 . S
N478 C479 1.334 . S
C479 N478 1.334 . S
C479 N480 1.336 . S
N480 Zn476 2.020 . S
N480 C479 1.336 . S
N480 N481 1.354 . S
N481 C477 1.336 . S
N481 N480 1.354 . S
N481 Zn485 2.020 . S
C482 O483 1.244 . S
C482 O506 1.257 . S
O483 C482 1.244 . S
O484 Zn476 2.019 . S
O484 C504 1.257 . S
Zn485 N481 2.020 . S
Zn485 O492 1.975 . S
Zn485 N501 2.119 1_556 S
Zn485 O506 2.019 . S
N486 Zn476 2.119 . S
N486 C488 1.334 . S
N486 C489 1.328 . S
C487 C488 1.391 . S
C487 N490 1.329 . S
C487 H508 0.930 . S
C488 N486 1.334 . S
C488 C487 1.391 . S
C488 H495 0.930 . S
C489 N486 1.328 . S
C489 C491 1.392 . S
C489 H496 0.930 . S
N490 C487 1.329 . S
N490 C491 1.331 . S
C491 C489 1.392 . S
C491 N490 1.331 . S
O492 Zn485 1.975 . S
O492 C493 1.252 . S
C493 O492 1.252 . S
C493 O494 1.252 . S
O494 Zn476 1.975 . S
O494 C493 1.252 . S
H495 C488 0.930 . S
H496 C489 0.930 . S
C497 C498 1.392 . S
C497 N501 1.328 . S
C497 H503 0.930 . S
C498 C497 1.392 . S
C498 N502 1.331 . S
C499 C500 1.391 . S
C499 N502 1.329 . S
C499 H509 0.930 . S
C500 C499 1.391 . S
C500 N501 1.334 . S
C500 H507 0.930 . S
N501 Zn485 2.119 1_554 S
N501 C497 1.328 . S
N501 C500 1.334 . S
N502 C498 1.331 . S
N502 C499 1.329 . S
H503 C497 0.930 . S
C504 O484 1.257 . S
C504 O505 1.244 . S
O505 C504 1.244 . S
O506 C482 1.257 . S
O506 Zn485 2.019 . S
H507 C500 0.930 . S
H508 C487 0.930 . S
H509 C499 0.930 . S
Zn510 N514 2.020 . S
Zn510 O518 2.019 . S
Zn510 N520 2.119 . S
Zn510 O528 1.975 . S
C511 N512 1.334 . S
C511 N515 1.336 . S
N512 C511 1.334 . S
N512 C513 1.334 . S
C513 N512 1.334 . S
C513 N514 1.336 . S
N514 Zn510 2.020 . S
N514 C513 1.336 . S
N514 N515 1.354 . S
N515 C511 1.336 . S
N515 N514 1.354 . S
N515 Zn519 2.020 . S
C516 O517 1.244 . S
C516 O540 1.257 . S
O517 C516 1.244 . S
O518 Zn510 2.019 . S
O518 C538 1.257 . S
Zn519 N515 2.020 . S
Zn519 O526 1.975 . S
Zn519 N535 2.119 1_556 S
Zn519 O540 2.019 . S
N520 Zn510 2.119 . S
N520 C522 1.334 . S
N520 C523 1.328 . S
C521 C522 1.391 . S
C521 N524 1.329 . S
C521 H542 0.930 . S
C522 N520 1.334 . S
C522 C521 1.391 . S
C522 H529 0.930 . S
C523 N520 1.328 . S
C523 C525 1.392 . S
C523 H530 0.930 . S
N524 C521 1.329 . S
N524 C525 1.331 . S
C525 C523 1.392 . S
C525 N524 1.331 . S
O526 Zn519 1.975 . S
O526 C527 1.252 . S
C527 O526 1.252 . S
C527 O528 1.252 . S
O528 Zn510 1.975 . S
O528 C527 1.252 . S
H529 C522 0.930 . S
H530 C523 0.930 . S
C531 C532 1.392 . S
C531 N535 1.328 . S
C531 H537 0.930 . S
C532 C531 1.392 . S
C532 N536 1.331 . S
C533 C534 1.391 . S
C533 N536 1.329 . S
C533 H543 0.930 . S
C534 C533 1.391 . S
C534 N535 1.334 . S
C534 H541 0.930 . S
N535 Zn519 2.119 1_554 S
N535 C531 1.328 . S
N535 C534 1.334 . S
N536 C532 1.331 . S
N536 C533 1.329 . S
H537 C531 0.930 . S
C538 O518 1.257 . S
C538 O539 1.244 . S
O539 C538 1.244 . S
O540 C516 1.257 . S
O540 Zn519 2.019 . S
H541 C534 0.930 . S
H542 C521 0.930 . S
H543 C533 0.930 . S
Zn544 N548 2.020 . S
Zn544 O552 2.019 . S
Zn544 N554 2.119 . S
Zn544 O562 1.975 . S
C545 N546 1.334 . S
C545 N549 1.336 . S
N546 C545 1.334 . S
N546 C547 1.334 . S
C547 N546 1.334 . S
C547 N548 1.336 . S
N548 Zn544 2.020 . S
N548 C547 1.336 . S
N548 N549 1.354 . S
N549 C545 1.336 . S
N549 N548 1.354 . S
N549 Zn553 2.020 . S
C550 O551 1.244 . S
C550 O574 1.257 . S
O551 C550 1.244 . S
O552 Zn544 2.019 . S
O552 C572 1.257 . S
Zn553 N549 2.020 . S
Zn553 O560 1.975 . S
Zn553 N569 2.119 . S
Zn553 O574 2.019 . S
N554 Zn544 2.119 . S
N554 C556 1.334 . S
N554 C557 1.328 . S
C555 C556 1.391 . S
C555 N558 1.329 . S
C555 H576 0.930 . S
C556 N554 1.334 . S
C556 C555 1.391 . S
C556 H563 0.930 . S
C557 N554 1.328 . S
C557 C559 1.392 . S
C557 H564 0.930 . S
N558 C555 1.329 . S
N558 C559 1.331 . S
C559 C557 1.392 . S
C559 N558 1.331 . S
O560 Zn553 1.975 . S
O560 C561 1.252 . S
C561 O560 1.252 . S
C561 O562 1.252 . S
O562 Zn544 1.975 . S
O562 C561 1.252 . S
H563 C556 0.930 . S
H564 C557 0.930 . S
C565 C566 1.392 . S
C565 N569 1.328 . S
C565 H571 0.930 . S
C566 C565 1.392 . S
C566 N570 1.331 . S
C567 C568 1.391 . S
C567 N570 1.329 . S
C567 H577 0.930 . S
C568 C567 1.391 . S
C568 N569 1.334 . S
C568 H575 0.930 . S
N569 Zn553 2.119 . S
N569 C565 1.328 . S
N569 C568 1.334 . S
N570 C566 1.331 . S
N570 C567 1.329 . S
H571 C565 0.930 . S
C572 O552 1.257 . S
C572 O573 1.244 . S
O573 C572 1.244 . S
O574 C550 1.257 . S
O574 Zn553 2.019 . S
H575 C568 0.930 . S
H576 C555 0.930 . S
H577 C567 0.930 . S
Zn578 N582 2.020 . S
Zn578 O586 2.019 . S
Zn578 N588 2.119 . S
Zn578 O596 1.975 . S
C579 N580 1.334 . S
C579 N583 1.336 . S
N580 C579 1.334 . S
N580 C581 1.334 . S
C581 N580 1.334 . S
C581 N582 1.336 . S
N582 Zn578 2.020 . S
N582 C581 1.336 . S
N582 N583 1.354 . S
N583 C579 1.336 . S
N583 N582 1.354 . S
N583 Zn587 2.020 . S
C584 O585 1.244 . S
C584 O608 1.257 . S
O585 C584 1.244 . S
O586 Zn578 2.019 . S
O586 C606 1.257 . S
Zn587 N583 2.020 . S
Zn587 O594 1.975 . S
Zn587 N603 2.119 . S
Zn587 O608 2.019 . S
N588 Zn578 2.119 . S
N588 C590 1.334 . S
N588 C591 1.328 . S
C589 C590 1.391 . S
C589 N592 1.329 . S
C589 H610 0.930 . S
C590 N588 1.334 . S
C590 C589 1.391 . S
C590 H597 0.930 . S
C591 N588 1.328 . S
C591 C593 1.392 . S
C591 H598 0.930 . S
N592 C589 1.329 . S
N592 C593 1.331 . S
C593 C591 1.392 . S
C593 N592 1.331 . S
O594 Zn587 1.975 . S
O594 C595 1.252 . S
C595 O594 1.252 . S
C595 O596 1.252 . S
O596 Zn578 1.975 . S
O596 C595 1.252 . S
H597 C590 0.930 . S
H598 C591 0.930 . S
C599 C600 1.392 . S
C599 N603 1.328 . S
C599 H605 0.930 . S
C600 C599 1.392 . S
C600 N604 1.331 . S
C601 C602 1.391 . S
C601 N604 1.329 . S
C601 H611 0.930 . S
C602 C601 1.391 . S
C602 N603 1.334 . S
C602 H609 0.930 . S
N603 Zn587 2.119 . S
N603 C599 1.328 . S
N603 C602 1.334 . S
N604 C600 1.331 . S
N604 C601 1.329 . S
H605 C599 0.930 . S
C606 O586 1.257 . S
C606 O607 1.244 . S
O607 C606 1.244 . S
O608 C584 1.257 . S
O608 Zn587 2.019 . S
H609 C602 0.930 . S
H610 C589 0.930 . S
H611 C601 0.930 . S
Zn612 N616 2.020 . S
Zn612 O620 2.019 . S
Zn612 N622 2.119 . S
Zn612 O630 1.975 . S
C613 N614 1.334 . S
C613 N617 1.336 . S
N614 C613 1.334 . S
N614 C615 1.334 . S
C615 N614 1.334 . S
C615 N616 1.336 . S
N616 Zn612 2.020 . S
N616 C615 1.336 . S
N616 N617 1.354 . S
N617 C613 1.336 . S
N617 N616 1.354 . S
N617 Zn621 2.020 . S
C618 O619 1.244 . S
C618 O642 1.257 . S
O619 C618 1.244 . S
O620 Zn612 2.019 . S
O620 C640 1.257 . S
Zn621 N617 2.020 . S
Zn621 O628 1.975 . S
Zn621 N637 2.119 . S
Zn621 O642 2.019 . S
N622 Zn612 2.119 . S
N622 C624 1.334 . S
N622 C625 1.328 . S
C623 C624 1.391 . S
C623 N626 1.329 . S
C623 H644 0.930 . S
C624 N622 1.334 . S
C624 C623 1.391 . S
C624 H631 0.930 . S
C625 N622 1.328 . S
C625 C627 1.392 . S
C625 H632 0.930 . S
N626 C623 1.329 . S
N626 C627 1.331 . S
C627 C625 1.392 . S
C627 N626 1.331 . S
O628 Zn621 1.975 . S
O628 C629 1.252 . S
C629 O628 1.252 . S
C629 O630 1.252 . S
O630 Zn612 1.975 . S
O630 C629 1.252 . S
H631 C624 0.930 . S
H632 C625 0.930 . S
C633 C634 1.392 . S
C633 N637 1.328 . S
C633 H639 0.930 . S
C634 C633 1.392 . S
C634 N638 1.331 . S
C635 C636 1.391 . S
C635 N638 1.329 . S
C635 H645 0.930 . S
C636 C635 1.391 . S
C636 N637 1.334 . S
C636 H643 0.930 . S
N637 Zn621 2.119 . S
N637 C633 1.328 . S
N637 C636 1.334 . S
N638 C634 1.331 . S
N638 C635 1.329 . S
H639 C633 0.930 . S
C640 O620 1.257 . S
C640 O641 1.244 . S
O641 C640 1.244 . S
O642 C618 1.257 . S
O642 Zn621 2.019 . S
H643 C636 0.930 . S
H644 C623 0.930 . S
H645 C635 0.930 . S
Zn646 N650 2.020 . S
Zn646 O654 2.019 . S
Zn646 N656 2.119 . S
Zn646 O664 1.975 . S
C647 N648 1.334 . S
C647 N651 1.336 . S
N648 C647 1.334 . S
N648 C649 1.334 . S
C649 N648 1.334 . S
C649 N650 1.336 . S
N650 Zn646 2.020 . S
N650 C649 1.336 . S
N650 N651 1.354 . S
N651 C647 1.336 . S
N651 N650 1.354 . S
N651 Zn655 2.020 . S
C652 O653 1.244 . S
C652 O676 1.257 . S
O653 C652 1.244 . S
O654 Zn646 2.019 . S
O654 C674 1.257 . S
Zn655 N651 2.020 . S
Zn655 O662 1.975 . S
Zn655 N671 2.119 1_655 S
Zn655 O676 2.019 . S
N656 Zn646 2.119 . S
N656 C658 1.334 . S
N656 C659 1.328 . S
C657 C658 1.391 . S
C657 N660 1.329 . S
C657 H678 0.930 . S
C658 N656 1.334 . S
C658 C657 1.391 . S
C658 H665 0.930 . S
C659 N656 1.328 . S
C659 C661 1.392 . S
C659 H666 0.930 . S
N660 C657 1.329 . S
N660 C661 1.331 . S
C661 C659 1.392 . S
C661 N660 1.331 . S
O662 Zn655 1.975 . S
O662 C663 1.252 . S
C663 O662 1.252 . S
C663 O664 1.252 . S
O664 Zn646 1.975 . S
O664 C663 1.252 . S
H665 C658 0.930 . S
H666 C659 0.930 . S
C667 C668 1.392 . S
C667 N671 1.328 . S
C667 H673 0.930 . S
C668 C667 1.392 . S
C668 N672 1.331 . S
C669 C670 1.391 . S
C669 N672 1.329 . S
C669 H679 0.930 . S
C670 C669 1.391 . S
C670 N671 1.334 . S
C670 H677 0.930 . S
N671 Zn655 2.119 1_455 S
N671 C667 1.328 . S
N671 C670 1.334 . S
N672 C668 1.331 . S
N672 C669 1.329 . S
H673 C667 0.930 . S
C674 O654 1.257 . S
C674 O675 1.244 . S
O675 C674 1.244 . S
O676 C652 1.257 . S
O676 Zn655 2.019 . S
H677 C670 0.930 . S
H678 C657 0.930 . S
H679 C669 0.930 . S
Zn680 N684 2.020 . S
Zn680 O688 2.019 . S
Zn680 N690 2.119 1_565 S
Zn680 O698 1.975 . S
C681 N682 1.334 . S
C681 N685 1.336 . S
N682 C681 1.334 . S
N682 C683 1.334 . S
C683 N682 1.334 . S
C683 N684 1.336 . S
N684 Zn680 2.020 . S
N684 C683 1.336 . S
N684 N685 1.354 . S
N685 C681 1.336 . S
N685 N684 1.354 . S
N685 Zn689 2.020 . S
C686 O687 1.244 . S
C686 O710 1.257 . S
O687 C686 1.244 . S
O688 Zn680 2.019 . S
O688 C708 1.257 . S
Zn689 N685 2.020 . S
Zn689 O696 1.975 . S
Zn689 N705 2.119 . S
Zn689 O710 2.019 . S
N690 Zn680 2.119 1_545 S
N690 C692 1.334 . S
N690 C693 1.328 . S
C691 C692 1.391 . S
C691 N694 1.329 . S
C691 H712 0.930 . S
C692 N690 1.334 . S
C692 C691 1.391 . S
C692 H699 0.930 . S
C693 N690 1.328 . S
C693 C695 1.392 . S
C693 H700 0.930 . S
N694 C691 1.329 . S
N694 C695 1.331 . S
C695 C693 1.392 . S
C695 N694 1.331 . S
O696 Zn689 1.975 . S
O696 C697 1.252 . S
C697 O696 1.252 . S
C697 O698 1.252 . S
O698 Zn680 1.975 . S
O698 C697 1.252 . S
H699 C692 0.930 . S
H700 C693 0.930 . S
C701 C702 1.392 . S
C701 N705 1.328 . S
C701 H707 0.930 . S
C702 C701 1.392 . S
C702 N706 1.331 . S
C703 C704 1.391 . S
C703 N706 1.329 . S
C703 H713 0.930 . S
C704 C703 1.391 . S
C704 N705 1.334 . S
C704 H711 0.930 . S
N705 Zn689 2.119 . S
N705 C701 1.328 . S
N705 C704 1.334 . S
N706 C702 1.331 . S
N706 C703 1.329 . S
H707 C701 0.930 . S
C708 O688 1.257 . S
C708 O709 1.244 . S
O709 C708 1.244 . S
O710 C686 1.257 . S
O710 Zn689 2.019 . S
H711 C704 0.930 . S
H712 C691 0.930 . S
H713 C703 0.930 . S
Zn714 N718 2.020 . S
Zn714 O722 2.019 . S
Zn714 N724 2.119 1_655 S
Zn714 O732 1.975 . S
C715 N716 1.334 . S
C715 N719 1.336 . S
N716 C715 1.334 . S
N716 C717 1.334 . S
C717 N716 1.334 . S
C717 N718 1.336 . S
N718 Zn714 2.020 . S
N718 C717 1.336 . S
N718 N719 1.354 . S
N719 C715 1.336 . S
N719 N718 1.354 . S
N719 Zn723 2.020 . S
C720 O721 1.244 . S
C720 O744 1.257 . S
O721 C720 1.244 . S
O722 Zn714 2.019 . S
O722 C742 1.257 . S
Zn723 N719 2.020 . S
Zn723 O730 1.975 . S
Zn723 N739 2.119 . S
Zn723 O744 2.019 . S
N724 Zn714 2.119 1_455 S
N724 C726 1.334 . S
N724 C727 1.328 . S
C725 C726 1.391 . S
C725 N728 1.329 . S
C725 H746 0.930 . S
C726 N724 1.334 . S
C726 C725 1.391 . S
C726 H733 0.930 . S
C727 N724 1.328 . S
C727 C729 1.392 . S
C727 H734 0.930 . S
N728 C725 1.329 . S
N728 C729 1.331 . S
C729 C727 1.392 . S
C729 N728 1.331 . S
O730 Zn723 1.975 . S
O730 C731 1.252 . S
C731 O730 1.252 . S
C731 O732 1.252 . S
O732 Zn714 1.975 . S
O732 C731 1.252 . S
H733 C726 0.930 . S
H734 C727 0.930 . S
C735 C736 1.392 . S
C735 N739 1.328 . S
C735 H741 0.930 . S
C736 C735 1.392 . S
C736 N740 1.331 . S
C737 C738 1.391 . S
C737 N740 1.329 . S
C737 H747 0.930 . S
C738 C737 1.391 . S
C738 N739 1.334 . S
C738 H745 0.930 . S
N739 Zn723 2.119 . S
N739 C735 1.328 . S
N739 C738 1.334 . S
N740 C736 1.331 . S
N740 C737 1.329 . S
H741 C735 0.930 . S
C742 O722 1.257 . S
C742 O743 1.244 . S
O743 C742 1.244 . S
O744 C720 1.257 . S
O744 Zn723 2.019 . S
H745 C738 0.930 . S
H746 C725 0.930 . S
H747 C737 0.930 . S
Zn748 N752 2.020 . S
Zn748 O756 2.019 . S
Zn748 N758 2.119 1_565 S
Zn748 O766 1.975 . S
C749 N750 1.334 . S
C749 N753 1.336 . S
N750 C749 1.334 . S
N750 C751 1.334 . S
C751 N750 1.334 . S
C751 N752 1.336 . S
N752 Zn748 2.020 . S
N752 C751 1.336 . S
N752 N753 1.354 . S
N753 C749 1.336 . S
N753 N752 1.354 . S
N753 Zn757 2.020 . S
C754 O755 1.244 . S
C754 O778 1.257 . S
O755 C754 1.244 . S
O756 Zn748 2.019 . S
O756 C776 1.257 . S
Zn757 N753 2.020 . S
Zn757 O764 1.975 . S
Zn757 N773 2.119 . S
Zn757 O778 2.019 . S
N758 Zn748 2.119 1_545 S
N758 C760 1.334 . S
N758 C761 1.328 . S
C759 C760 1.391 . S
C759 N762 1.329 . S
C759 H780 0.930 . S
C760 N758 1.334 . S
C760 C759 1.391 . S
C760 H767 0.930 . S
C761 N758 1.328 . S
C761 C763 1.392 . S
C761 H768 0.930 . S
N762 C759 1.329 . S
N762 C763 1.331 . S
C763 C761 1.392 . S
C763 N762 1.331 . S
O764 Zn757 1.975 . S
O764 C765 1.252 . S
C765 O764 1.252 . S
C765 O766 1.252 . S
O766 Zn748 1.975 . S
O766 C765 1.252 . S
H767 C760 0.930 . S
H768 C761 0.930 . S
C769 C770 1.392 . S
C769 N773 1.328 . S
C769 H775 0.930 . S
C770 C769 1.392 . S
C770 N774 1.331 . S
C771 C772 1.391 . S
C771 N774 1.329 . S
C771 H781 0.930 . S
C772 C771 1.391 . S
C772 N773 1.334 . S
C772 H779 0.930 . S
N773 Zn757 2.119 . S
N773 C769 1.328 . S
N773 C772 1.334 . S
N774 C770 1.331 . S
N774 C771 1.329 . S
H775 C769 0.930 . S
C776 O756 1.257 . S
C776 O777 1.244 . S
O777 C776 1.244 . S
O778 C754 1.257 . S
O778 Zn757 2.019 . S
H779 C772 0.930 . S
H780 C759 0.930 . S
H781 C771 0.930 . S
Zn782 N786 2.020 . S
Zn782 O790 2.019 . S
Zn782 N792 2.119 . S
Zn782 O800 1.975 . S
C783 N784 1.334 . S
C783 N787 1.336 . S
N784 C783 1.334 . S
N784 C785 1.334 . S
C785 N784 1.334 . S
C785 N786 1.336 . S
N786 Zn782 2.020 . S
N786 C785 1.336 . S
N786 N787 1.354 . S
N787 C783 1.336 . S
N787 N786 1.354 . S
N787 Zn791 2.020 . S
C788 O789 1.244 . S
C788 O812 1.257 . S
O789 C788 1.244 . S
O790 Zn782 2.019 . S
O790 C810 1.257 . S
Zn791 N787 2.020 . S
Zn791 O798 1.975 . S
Zn791 N807 2.119 . S
Zn791 O812 2.019 . S
N792 Zn782 2.119 . S
N792 C794 1.334 . S
N792 C795 1.328 . S
C793 C794 1.391 . S
C793 N796 1.329 . S
C793 H814 0.930 . S
C794 N792 1.334 . S
C794 C793 1.391 . S
C794 H801 0.930 . S
C795 N792 1.328 . S
C795 C797 1.392 . S
C795 H802 0.930 . S
N796 C793 1.329 . S
N796 C797 1.331 . S
C797 C795 1.392 . S
C797 N796 1.331 . S
O798 Zn791 1.975 . S
O798 C799 1.252 . S
C799 O798 1.252 . S
C799 O800 1.252 . S
O800 Zn782 1.975 . S
O800 C799 1.252 . S
H801 C794 0.930 . S
H802 C795 0.930 . S
C803 C804 1.392 . S
C803 N807 1.328 . S
C803 H809 0.930 . S
C804 C803 1.392 . S
C804 N808 1.331 . S
C805 C806 1.391 . S
C805 N808 1.329 . S
C805 H815 0.930 . S
C806 C805 1.391 . S
C806 N807 1.334 . S
C806 H813 0.930 . S
N807 Zn791 2.119 . S
N807 C803 1.328 . S
N807 C806 1.334 . S
N808 C804 1.331 . S
N808 C805 1.329 . S
H809 C803 0.930 . S
C810 O790 1.257 . S
C810 O811 1.244 . S
O811 C810 1.244 . S
O812 C788 1.257 . S
O812 Zn791 2.019 . S
H813 C806 0.930 . S
H814 C793 0.930 . S
H815 C805 0.930 . S
Zn816 N820 2.020 . S
Zn816 O824 2.019 . S
Zn816 N826 2.119 . S
Zn816 O834 1.975 . S
C817 N818 1.334 . S
C817 N821 1.336 . S
N818 C817 1.334 . S
N818 C819 1.334 . S
C819 N818 1.334 . S
C819 N820 1.336 . S
N820 Zn816 2.020 . S
N820 C819 1.336 . S
N820 N821 1.354 . S
N821 C817 1.336 . S
N821 N820 1.354 . S
N821 Zn825 2.020 . S
C822 O823 1.244 . S
C822 O846 1.257 . S
O823 C822 1.244 . S
O824 Zn816 2.019 . S
O824 C844 1.257 . S
Zn825 N821 2.020 . S
Zn825 O832 1.975 . S
Zn825 N841 2.119 . S
Zn825 O846 2.019 . S
N826 Zn816 2.119 . S
N826 C828 1.334 . S
N826 C829 1.328 . S
C827 C828 1.391 . S
C827 N830 1.329 . S
C827 H848 0.930 . S
C828 N826 1.334 . S
C828 C827 1.391 . S
C828 H835 0.930 . S
C829 N826 1.328 . S
C829 C831 1.392 . S
C829 H836 0.930 . S
N830 C827 1.329 . S
N830 C831 1.331 . S
C831 C829 1.392 . S
C831 N830 1.331 . S
O832 Zn825 1.975 . S
O832 C833 1.252 . S
C833 O832 1.252 . S
C833 O834 1.252 . S
O834 Zn816 1.975 . S
O834 C833 1.252 . S
H835 C828 0.930 . S
H836 C829 0.930 . S
C837 C838 1.392 . S
C837 N841 1.328 . S
C837 H843 0.930 . S
C838 C837 1.392 . S
C838 N842 1.331 . S
C839 C840 1.391 . S
C839 N842 1.329 . S
C839 H849 0.930 . S
C840 C839 1.391 . S
C840 N841 1.334 . S
C840 H847 0.930 . S
N841 Zn825 2.119 . S
N841 C837 1.328 . S
N841 C840 1.334 . S
N842 C838 1.331 . S
N842 C839 1.329 . S
H843 C837 0.930 . S
C844 O824 1.257 . S
C844 O845 1.244 . S
O845 C844 1.244 . S
O846 C822 1.257 . S
O846 Zn825 2.019 . S
H847 C840 0.930 . S
H848 C827 0.930 . S
H849 C839 0.930 . S
Zn850 N854 2.020 . S
Zn850 O858 2.019 . S
Zn850 N860 2.119 . S
Zn850 O868 1.975 . S
C851 N852 1.334 . S
C851 N855 1.336 . S
N852 C851 1.334 . S
N852 C853 1.334 . S
C853 N852 1.334 . S
C853 N854 1.336 . S
N854 Zn850 2.020 . S
N854 C853 1.336 . S
N854 N855 1.354 . S
N855 C851 1.336 . S
N855 N854 1.354 . S
N855 Zn859 2.020 . S
C856 O857 1.244 . S
C856 O880 1.257 . S
O857 C856 1.244 . S
O858 Zn850 2.019 . S
O858 C878 1.257 . S
Zn859 N855 2.020 . S
Zn859 O866 1.975 . S
Zn859 N875 2.119 1_455 S
Zn859 O880 2.019 . S
N860 Zn850 2.119 . S
N860 C862 1.334 . S
N860 C863 1.328 . S
C861 C862 1.391 . S
C861 N864 1.329 . S
C861 H882 0.930 . S
C862 N860 1.334 . S
C862 C861 1.391 . S
C862 H869 0.930 . S
C863 N860 1.328 . S
C863 C865 1.392 . S
C863 H870 0.930 . S
N864 C861 1.329 . S
N864 C865 1.331 . S
C865 C863 1.392 . S
C865 N864 1.331 . S
O866 Zn859 1.975 . S
O866 C867 1.252 . S
C867 O866 1.252 . S
C867 O868 1.252 . S
O868 Zn850 1.975 . S
O868 C867 1.252 . S
H869 C862 0.930 . S
H870 C863 0.930 . S
C871 C872 1.392 . S
C871 N875 1.328 . S
C871 H877 0.930 . S
C872 C871 1.392 . S
C872 N876 1.331 . S
C873 C874 1.391 . S
C873 N876 1.329 . S
C873 H883 0.930 . S
C874 C873 1.391 . S
C874 N875 1.334 . S
C874 H881 0.930 . S
N875 Zn859 2.119 1_655 S
N875 C871 1.328 . S
N875 C874 1.334 . S
N876 C872 1.331 . S
N876 C873 1.329 . S
H877 C871 0.930 . S
C878 O858 1.257 . S
C878 O879 1.244 . S
O879 C878 1.244 . S
O880 C856 1.257 . S
O880 Zn859 2.019 . S
H881 C874 0.930 . S
H882 C861 0.930 . S
H883 C873 0.930 . S
Zn884 N888 2.020 . S
Zn884 O892 2.019 . S
Zn884 N894 2.119 . S
Zn884 O902 1.975 . S
C885 N886 1.334 . S
C885 N889 1.336 . S
N886 C885 1.334 . S
N886 C887 1.334 . S
C887 N886 1.334 . S
C887 N888 1.336 . S
N888 Zn884 2.020 . S
N888 C887 1.336 . S
N888 N889 1.354 . S
N889 C885 1.336 . S
N889 N888 1.354 . S
N889 Zn893 2.020 . S
C890 O891 1.244 . S
C890 O914 1.257 . S
O891 C890 1.244 . S
O892 Zn884 2.019 . S
O892 C912 1.257 . S
Zn893 N889 2.020 . S
Zn893 O900 1.975 . S
Zn893 N909 2.119 1_545 S
Zn893 O914 2.019 . S
N894 Zn884 2.119 . S
N894 C896 1.334 . S
N894 C897 1.328 . S
C895 C896 1.391 . S
C895 N898 1.329 . S
C895 H916 0.930 . S
C896 N894 1.334 . S
C896 C895 1.391 . S
C896 H903 0.930 . S
C897 N894 1.328 . S
C897 C899 1.392 . S
C897 H904 0.930 . S
N898 C895 1.329 . S
N898 C899 1.331 . S
C899 C897 1.392 . S
C899 N898 1.331 . S
O900 Zn893 1.975 . S
O900 C901 1.252 . S
C901 O900 1.252 . S
C901 O902 1.252 . S
O902 Zn884 1.975 . S
O902 C901 1.252 . S
H903 C896 0.930 . S
H904 C897 0.930 . S
C905 C906 1.392 . S
C905 N909 1.328 . S
C905 H911 0.930 . S
C906 C905 1.392 . S
C906 N910 1.331 . S
C907 C908 1.391 . S
C907 N910 1.329 . S
C907 H917 0.930 . S
C908 C907 1.391 . S
C908 N909 1.334 . S
C908 H915 0.930 . S
N909 Zn893 2.119 1_565 S
N909 C905 1.328 . S
N909 C908 1.334 . S
N910 C906 1.331 . S
N910 C907 1.329 . S
H911 C905 0.930 . S
C912 O892 1.257 . S
C912 O913 1.244 . S
O913 C912 1.244 . S
O914 C890 1.257 . S
O914 Zn893 2.019 . S
H915 C908 0.930 . S
H916 C895 0.930 . S
H917 C907 0.930 . S
Zn918 N922 2.020 . S
Zn918 O926 2.019 . S
Zn918 N928 2.119 . S
Zn918 O936 1.975 . S
C919 N920 1.334 . S
C919 N923 1.336 . S
N920 C919 1.334 . S
N920 C921 1.334 . S
C921 N920 1.334 . S
C921 N922 1.336 . S
N922 Zn918 2.020 . S
N922 C921 1.336 . S
N922 N923 1.354 . S
N923 C919 1.336 . S
N923 N922 1.354 . S
N923 Zn927 2.020 . S
C924 O925 1.244 . S
C924 O948 1.257 . S
O925 C924 1.244 . S
O926 Zn918 2.019 . S
O926 C946 1.257 . S
Zn927 N923 2.020 . S
Zn927 O934 1.975 . S
Zn927 N943 2.119 . S
Zn927 O948 2.019 . S
N928 Zn918 2.119 . S
N928 C930 1.334 . S
N928 C931 1.328 . S
C929 C930 1.391 . S
C929 N932 1.329 . S
C929 H950 0.930 . S
C930 N928 1.334 . S
C930 C929 1.391 . S
C930 H937 0.930 . S
C931 N928 1.328 . S
C931 C933 1.392 . S
C931 H938 0.930 . S
N932 C929 1.329 . S
N932 C933 1.331 . S
C933 C931 1.392 . S
C933 N932 1.331 . S
O934 Zn927 1.975 . S
O934 C935 1.252 . S
C935 O934 1.252 . S
C935 O936 1.252 . S
O936 Zn918 1.975 . S
O936 C935 1.252 . S
H937 C930 0.930 . S
H938 C931 0.930 . S
C939 C940 1.392 . S
C939 N943 1.328 . S
C939 H945 0.930 . S
C940 C939 1.392 . S
C940 N944 1.331 . S
C941 C942 1.391 . S
C941 N944 1.329 . S
C941 H951 0.930 . S
C942 C941 1.391 . S
C942 N943 1.334 . S
C942 H949 0.930 . S
N943 Zn927 2.119 . S
N943 C939 1.328 . S
N943 C942 1.334 . S
N944 C940 1.331 . S
N944 C941 1.329 . S
H945 C939 0.930 . S
C946 O926 1.257 . S
C946 O947 1.244 . S
O947 C946 1.244 . S
O948 C924 1.257 . S
O948 Zn927 2.019 . S
H949 C942 0.930 . S
H950 C929 0.930 . S
H951 C941 0.930 . S
Zn952 N956 2.020 . S
Zn952 O960 2.019 . S
Zn952 N962 2.119 1_545 S
Zn952 O970 1.975 . S
C953 N954 1.334 . S
C953 N957 1.336 . S
N954 C953 1.334 . S
N954 C955 1.334 . S
C955 N954 1.334 . S
C955 N956 1.336 . S
N956 Zn952 2.020 . S
N956 C955 1.336 . S
N956 N957 1.354 . S
N957 C953 1.336 . S
N957 N956 1.354 . S
N957 Zn961 2.020 . S
C958 O959 1.244 . S
C958 O982 1.257 . S
O959 C958 1.244 . S
O960 Zn952 2.019 . S
O960 C980 1.257 . S
Zn961 N957 2.020 . S
Zn961 O968 1.975 . S
Zn961 N977 2.119 . S
Zn961 O982 2.019 . S
N962 Zn952 2.119 1_565 S
N962 C964 1.334 . S
N962 C965 1.328 . S
C963 C964 1.391 . S
C963 N966 1.329 . S
C963 H984 0.930 . S
C964 N962 1.334 . S
C964 C963 1.391 . S
C964 H971 0.930 . S
C965 N962 1.328 . S
C965 C967 1.392 . S
C965 H972 0.930 . S
N966 C963 1.329 . S
N966 C967 1.331 . S
C967 C965 1.392 . S
C967 N966 1.331 . S
O968 Zn961 1.975 . S
O968 C969 1.252 . S
C969 O968 1.252 . S
C969 O970 1.252 . S
O970 Zn952 1.975 . S
O970 C969 1.252 . S
H971 C964 0.930 . S
H972 C965 0.930 . S
C973 C974 1.392 . S
C973 N977 1.328 . S
C973 H979 0.930 . S
C974 C973 1.392 . S
C974 N978 1.331 . S
C975 C976 1.391 . S
C975 N978 1.329 . S
C975 H985 0.930 . S
C976 C975 1.391 . S
C976 N977 1.334 . S
C976 H983 0.930 . S
N977 Zn961 2.119 . S
N977 C973 1.328 . S
N977 C976 1.334 . S
N978 C974 1.331 . S
N978 C975 1.329 . S
H979 C973 0.930 . S
C980 O960 1.257 . S
C980 O981 1.244 . S
O981 C980 1.244 . S
O982 C958 1.257 . S
O982 Zn961 2.019 . S
H983 C976 0.930 . S
H984 C963 0.930 . S
H985 C975 0.930 . S
Zn986 N990 2.020 . S
Zn986 O994 2.019 . S
Zn986 N996 2.119 . S
Zn986 O1004 1.975 . S
C987 N988 1.334 . S
C987 N991 1.336 . S
N988 C987 1.334 . S
N988 C989 1.334 . S
C989 N988 1.334 . S
C989 N990 1.336 . S
N990 Zn986 2.020 . S
N990 C989 1.336 . S
N990 N991 1.354 . S
N991 C987 1.336 . S
N991 N990 1.354 . S
N991 Zn995 2.020 . S
C992 O993 1.244 . S
C992 O1016 1.257 . S
O993 C992 1.244 . S
O994 Zn986 2.019 . S
O994 C1014 1.257 . S
Zn995 N991 2.020 . S
Zn995 O1002 1.975 . S
Zn995 N1011 2.119 . S
Zn995 O1016 2.019 . S
N996 Zn986 2.119 . S
N996 C998 1.334 . S
N996 C999 1.328 . S
C997 C998 1.391 . S
C997 N1000 1.329 . S
C997 H1018 0.930 . S
C998 N996 1.334 . S
C998 C997 1.391 . S
C998 H1005 0.930 . S
C999 N996 1.328 . S
C999 C1001 1.392 . S
C999 H1006 0.930 . S
N1000 C997 1.329 . S
N1000 C1001 1.331 . S
C1001 C999 1.392 . S
C1001 N1000 1.331 . S
O1002 Zn995 1.975 . S
O1002 C1003 1.252 . S
C1003 O1002 1.252 . S
C1003 O1004 1.252 . S
O1004 Zn986 1.975 . S
O1004 C1003 1.252 . S
H1005 C998 0.930 . S
H1006 C999 0.930 . S
C1007 C1008 1.392 . S
C1007 N1011 1.328 . S
C1007 H1013 0.930 . S
C1008 C1007 1.392 . S
C1008 N1012 1.331 . S
C1009 C1010 1.391 . S
C1009 N1012 1.329 . S
C1009 H1019 0.930 . S
C1010 C1009 1.391 . S
C1010 N1011 1.334 . S
C1010 H1017 0.930 . S
N1011 Zn995 2.119 . S
N1011 C1007 1.328 . S
N1011 C1010 1.334 . S
N1012 C1008 1.331 . S
N1012 C1009 1.329 . S
H1013 C1007 0.930 . S
C1014 O994 1.257 . S
C1014 O1015 1.244 . S
O1015 C1014 1.244 . S
O1016 C992 1.257 . S
O1016 Zn995 2.019 . S
H1017 C1010 0.930 . S
H1018 C997 0.930 . S
H1019 C1009 0.930 . S
Zn1020 N1024 2.020 . S
Zn1020 O1028 2.019 . S
Zn1020 N1030 2.119 . S
Zn1020 O1038 1.975 . S
C1021 N1022 1.334 . S
C1021 N1025 1.336 . S
N1022 C1021 1.334 . S
N1022 C1023 1.334 . S
C1023 N1022 1.334 . S
C1023 N1024 1.336 . S
N1024 Zn1020 2.020 . S
N1024 C1023 1.336 . S
N1024 N1025 1.354 . S
N1025 C1021 1.336 . S
N1025 N1024 1.354 . S
N1025 Zn1029 2.020 . S
C1026 O1027 1.244 . S
C1026 O1050 1.257 . S
O1027 C1026 1.244 . S
O1028 Zn1020 2.019 . S
O1028 C1048 1.257 . S
Zn1029 N1025 2.020 . S
Zn1029 O1036 1.975 . S
Zn1029 N1045 2.119 . S
Zn1029 O1050 2.019 . S
N1030 Zn1020 2.119 . S
N1030 C1032 1.334 . S
N1030 C1033 1.328 . S
C1031 C1032 1.391 . S
C1031 N1034 1.329 . S
C1031 H1052 0.930 . S
C1032 N1030 1.334 . S
C1032 C1031 1.391 . S
C1032 H1039 0.930 . S
C1033 N1030 1.328 . S
C1033 C1035 1.392 . S
C1033 H1040 0.930 . S
N1034 C1031 1.329 . S
N1034 C1035 1.331 . S
C1035 C1033 1.392 . S
C1035 N1034 1.331 . S
O1036 Zn1029 1.975 . S
O1036 C1037 1.252 . S
C1037 O1036 1.252 . S
C1037 O1038 1.252 . S
O1038 Zn1020 1.975 . S
O1038 C1037 1.252 . S
H1039 C1032 0.930 . S
H1040 C1033 0.930 . S
C1041 C1042 1.392 . S
C1041 N1045 1.328 . S
C1041 H1047 0.930 . S
C1042 C1041 1.392 . S
C1042 N1046 1.331 . S
C1043 C1044 1.391 . S
C1043 N1046 1.329 . S
C1043 H1053 0.930 . S
C1044 C1043 1.391 . S
C1044 N1045 1.334 . S
C1044 H1051 0.930 . S
N1045 Zn1029 2.119 . S
N1045 C1041 1.328 . S
N1045 C1044 1.334 . S
N1046 C1042 1.331 . S
N1046 C1043 1.329 . S
H1047 C1041 0.930 . S
C1048 O1028 1.257 . S
C1048 O1049 1.244 . S
O1049 C1048 1.244 . S
O1050 C1026 1.257 . S
O1050 Zn1029 2.019 . S
H1051 C1044 0.930 . S
H1052 C1031 0.930 . S
H1053 C1043 0.930 . S
Zn1054 N1058 2.020 . S
Zn1054 O1062 2.019 . S
Zn1054 N1064 2.119 . S
Zn1054 O1072 1.975 . S
C1055 N1056 1.334 . S
C1055 N1059 1.336 . S
N1056 C1055 1.334 . S
N1056 C1057 1.334 . S
C1057 N1056 1.334 . S
C1057 N1058 1.336 . S
N1058 Zn1054 2.020 . S
N1058 C1057 1.336 . S
N1058 N1059 1.354 . S
N1059 C1055 1.336 . S
N1059 N1058 1.354 . S
N1059 Zn1063 2.020 . S
C1060 O1061 1.244 . S
C1060 O1084 1.257 . S
O1061 C1060 1.244 . S
O1062 Zn1054 2.019 . S
O1062 C1082 1.257 . S
Zn1063 N1059 2.020 . S
Zn1063 O1070 1.975 . S
Zn1063 N1079 2.119 1_455 S
Zn1063 O1084 2.019 . S
N1064 Zn1054 2.119 . S
N1064 C1066 1.334 . S
N1064 C1067 1.328 . S
C1065 C1066 1.391 . S
C1065 N1068 1.329 . S
C1065 H1086 0.930 . S
C1066 N1064 1.334 . S
C1066 C1065 1.391 . S
C1066 H1073 0.930 . S
C1067 N1064 1.328 . S
C1067 C1069 1.392 . S
C1067 H1074 0.930 . S
N1068 C1065 1.329 . S
N1068 C1069 1.331 . S
C1069 C1067 1.392 . S
C1069 N1068 1.331 . S
O1070 Zn1063 1.975 . S
O1070 C1071 1.252 . S
C1071 O1070 1.252 . S
C1071 O1072 1.252 . S
O1072 Zn1054 1.975 . S
O1072 C1071 1.252 . S
H1073 C1066 0.930 . S
H1074 C1067 0.930 . S
C1075 C1076 1.392 . S
C1075 N1079 1.328 . S
C1075 H1081 0.930 . S
C1076 C1075 1.392 . S
C1076 N1080 1.331 . S
C1077 C1078 1.391 . S
C1077 N1080 1.329 . S
C1077 H1087 0.930 . S
C1078 C1077 1.391 . S
C1078 N1079 1.334 . S
C1078 H1085 0.930 . S
N1079 Zn1063 2.119 1_655 S
N1079 C1075 1.328 . S
N1079 C1078 1.334 . S
N1080 C1076 1.331 . S
N1080 C1077 1.329 . S
H1081 C1075 0.930 . S
C1082 O1062 1.257 . S
C1082 O1083 1.244 . S
O1083 C1082 1.244 . S
O1084 C1060 1.257 . S
O1084 Zn1063 2.019 . S
H1085 C1078 0.930 . S
H1086 C1065 0.930 . S
H1087 C1077 0.930 . S
Zn1088 N1092 2.020 . S
Zn1088 O1096 2.019 . S
Zn1088 N1098 2.119 . S
Zn1088 O1106 1.975 . S
C1089 N1090 1.334 . S
C1089 N1093 1.336 . S
N1090 C1089 1.334 . S
N1090 C1091 1.334 . S
C1091 N1090 1.334 . S
C1091 N1092 1.336 . S
N1092 Zn1088 2.020 . S
N1092 C1091 1.336 . S
N1092 N1093 1.354 . S
N1093 C1089 1.336 . S
N1093 N1092 1.354 . S
N1093 Zn1097 2.020 . S
C1094 O1095 1.244 . S
C1094 O1118 1.257 . S
O1095 C1094 1.244 . S
O1096 Zn1088 2.019 . S
O1096 C1116 1.257 . S
Zn1097 N1093 2.020 . S
Zn1097 O1104 1.975 . S
Zn1097 N1113 2.119 . S
Zn1097 O1118 2.019 . S
N1098 Zn1088 2.119 . S
N1098 C1100 1.334 . S
N1098 C1101 1.328 . S
C1099 C1100 1.391 . S
C1099 N1102 1.329 . S
C1099 H1120 0.930 . S
C1100 N1098 1.334 . S
C1100 C1099 1.391 . S
C1100 H1107 0.930 . S
C1101 N1098 1.328 . S
C1101 C1103 1.392 . S
C1101 H1108 0.930 . S
N1102 C1099 1.329 . S
N1102 C1103 1.331 . S
C1103 C1101 1.392 . S
C1103 N1102 1.331 . S
O1104 Zn1097 1.975 . S
O1104 C1105 1.252 . S
C1105 O1104 1.252 . S
C1105 O1106 1.252 . S
O1106 Zn1088 1.975 . S
O1106 C1105 1.252 . S
H1107 C1100 0.930 . S
H1108 C1101 0.930 . S
C1109 C1110 1.392 . S
C1109 N1113 1.328 . S
C1109 H1115 0.930 . S
C1110 C1109 1.392 . S
C1110 N1114 1.331 . S
C1111 C1112 1.391 . S
C1111 N1114 1.329 . S
C1111 H1121 0.930 . S
C1112 C1111 1.391 . S
C1112 N1113 1.334 . S
C1112 H1119 0.930 . S
N1113 Zn1097 2.119 . S
N1113 C1109 1.328 . S
N1113 C1112 1.334 . S
N1114 C1110 1.331 . S
N1114 C1111 1.329 . S
H1115 C1109 0.930 . S
C1116 O1096 1.257 . S
C1116 O1117 1.244 . S
O1117 C1116 1.244 . S
O1118 C1094 1.257 . S
O1118 Zn1097 2.019 . S
H1119 C1112 0.930 . S
H1120 C1099 0.930 . S
H1121 C1111 0.930 . S
Zn1122 N1126 2.020 . S
Zn1122 O1130 2.019 . S
Zn1122 N1132 2.119 . S
Zn1122 O1140 1.975 . S
C1123 N1124 1.334 . S
C1123 N1127 1.336 . S
N1124 C1123 1.334 . S
N1124 C1125 1.334 . S
C1125 N1124 1.334 . S
C1125 N1126 1.336 . S
N1126 Zn1122 2.020 . S
N1126 C1125 1.336 . S
N1126 N1127 1.354 . S
N1127 C1123 1.336 . S
N1127 N1126 1.354 . S
N1127 Zn1131 2.020 . S
C1128 O1129 1.244 . S
C1128 O1152 1.257 . S
O1129 C1128 1.244 . S
O1130 Zn1122 2.019 . S
O1130 C1150 1.257 . S
Zn1131 N1127 2.020 . S
Zn1131 O1138 1.975 . S
Zn1131 N1147 2.119 . S
Zn1131 O1152 2.019 . S
N1132 Zn1122 2.119 . S
N1132 C1134 1.334 . S
N1132 C1135 1.328 . S
C1133 C1134 1.391 . S
C1133 N1136 1.329 . S
C1133 H1154 0.930 . S
C1134 N1132 1.334 . S
C1134 C1133 1.391 . S
C1134 H1141 0.930 . S
C1135 N1132 1.328 . S
C1135 C1137 1.392 . S
C1135 H1142 0.930 . S
N1136 C1133 1.329 . S
N1136 C1137 1.331 . S
C1137 C1135 1.392 . S
C1137 N1136 1.331 . S
O1138 Zn1131 1.975 . S
O1138 C1139 1.252 . S
C1139 O1138 1.252 . S
C1139 O1140 1.252 . S
O1140 Zn1122 1.975 . S
O1140 C1139 1.252 . S
H1141 C1134 0.930 . S
H1142 C1135 0.930 . S
C1143 C1144 1.392 . S
C1143 N1147 1.328 . S
C1143 H1149 0.930 . S
C1144 C1143 1.392 . S
C1144 N1148 1.331 . S
C1145 C1146 1.391 . S
C1145 N1148 1.329 . S
C1145 H1155 0.930 . S
C1146 C1145 1.391 . S
C1146 N1147 1.334 . S
C1146 H1153 0.930 . S
N1147 Zn1131 2.119 . S
N1147 C1143 1.328 . S
N1147 C1146 1.334 . S
N1148 C1144 1.331 . S
N1148 C1145 1.329 . S
H1149 C1143 0.930 . S
C1150 O1130 1.257 . S
C1150 O1151 1.244 . S
O1151 C1150 1.244 . S
O1152 C1128 1.257 . S
O1152 Zn1131 2.019 . S
H1153 C1146 0.930 . S
H1154 C1133 0.930 . S
H1155 C1145 0.930 . S
Zn1156 N1160 2.020 . S
Zn1156 O1164 2.019 . S
Zn1156 N1166 2.119 . S
Zn1156 O1174 1.975 . S
C1157 N1158 1.334 . S
C1157 N1161 1.336 . S
N1158 C1157 1.334 . S
N1158 C1159 1.334 . S
C1159 N1158 1.334 . S
C1159 N1160 1.336 . S
N1160 Zn1156 2.020 . S
N1160 C1159 1.336 . S
N1160 N1161 1.354 . S
N1161 C1157 1.336 . S
N1161 N1160 1.354 . S
N1161 Zn1165 2.020 . S
C1162 O1163 1.244 . S
C1162 O1186 1.257 . S
O1163 C1162 1.244 . S
O1164 Zn1156 2.019 . S
O1164 C1184 1.257 . S
Zn1165 N1161 2.020 . S
Zn1165 O1172 1.975 . S
Zn1165 N1181 2.119 . S
Zn1165 O1186 2.019 . S
N1166 Zn1156 2.119 . S
N1166 C1168 1.334 . S
N1166 C1169 1.328 . S
C1167 C1168 1.391 . S
C1167 N1170 1.329 . S
C1167 H1188 0.930 . S
C1168 N1166 1.334 . S
C1168 C1167 1.391 . S
C1168 H1175 0.930 . S
C1169 N1166 1.328 . S
C1169 C1171 1.392 . S
C1169 H1176 0.930 . S
N1170 C1167 1.329 . S
N1170 C1171 1.331 . S
C1171 C1169 1.392 . S
C1171 N1170 1.331 . S
O1172 Zn1165 1.975 . S
O1172 C1173 1.252 . S
C1173 O1172 1.252 . S
C1173 O1174 1.252 . S
O1174 Zn1156 1.975 . S
O1174 C1173 1.252 . S
H1175 C1168 0.930 . S
H1176 C1169 0.930 . S
C1177 C1178 1.392 . S
C1177 N1181 1.328 . S
C1177 H1183 0.930 . S
C1178 C1177 1.392 . S
C1178 N1182 1.331 . S
C1179 C1180 1.391 . S
C1179 N1182 1.329 . S
C1179 H1189 0.930 . S
C1180 C1179 1.391 . S
C1180 N1181 1.334 . S
C1180 H1187 0.930 . S
N1181 Zn1165 2.119 . S
N1181 C1177 1.328 . S
N1181 C1180 1.334 . S
N1182 C1178 1.331 . S
N1182 C1179 1.329 . S
H1183 C1177 0.930 . S
C1184 O1164 1.257 . S
C1184 O1185 1.244 . S
O1185 C1184 1.244 . S
O1186 C1162 1.257 . S
O1186 Zn1165 2.019 . S
H1187 C1180 0.930 . S
H1188 C1167 0.930 . S
H1189 C1179 0.930 . S
Zn1190 N1194 2.020 . S
Zn1190 O1198 2.019 . S
Zn1190 N1200 2.119 . S
Zn1190 O1208 1.975 . S
C1191 N1192 1.334 . S
C1191 N1195 1.336 . S
N1192 C1191 1.334 . S
N1192 C1193 1.334 . S
C1193 N1192 1.334 . S
C1193 N1194 1.336 . S
N1194 Zn1190 2.020 . S
N1194 C1193 1.336 . S
N1194 N1195 1.354 . S
N1195 C1191 1.336 . S
N1195 N1194 1.354 . S
N1195 Zn1199 2.020 . S
C1196 O1197 1.244 . S
C1196 O1220 1.257 . S
O1197 C1196 1.244 . S
O1198 Zn1190 2.019 . S
O1198 C1218 1.257 . S
Zn1199 N1195 2.020 . S
Zn1199 O1206 1.975 . S
Zn1199 N1215 2.119 . S
Zn1199 O1220 2.019 . S
N1200 Zn1190 2.119 . S
N1200 C1202 1.334 . S
N1200 C1203 1.328 . S
C1201 C1202 1.391 . S
C1201 N1204 1.329 . S
C1201 H1222 0.930 . S
C1202 N1200 1.334 . S
C1202 C1201 1.391 . S
C1202 H1209 0.930 . S
C1203 N1200 1.328 . S
C1203 C1205 1.392 . S
C1203 H1210 0.930 . S
N1204 C1201 1.329 . S
N1204 C1205 1.331 . S
C1205 C1203 1.392 . S
C1205 N1204 1.331 . S
O1206 Zn1199 1.975 . S
O1206 C1207 1.252 . S
C1207 O1206 1.252 . S
C1207 O1208 1.252 . S
O1208 Zn1190 1.975 . S
O1208 C1207 1.252 . S
H1209 C1202 0.930 . S
H1210 C1203 0.930 . S
C1211 C1212 1.392 . S
C1211 N1215 1.328 . S
C1211 H1217 0.930 . S
C1212 C1211 1.392 . S
C1212 N1216 1.331 . S
C1213 C1214 1.391 . S
C1213 N1216 1.329 . S
C1213 H1223 0.930 . S
C1214 C1213 1.391 . S
C1214 N1215 1.334 . S
C1214 H1221 0.930 . S
N1215 Zn1199 2.119 . S
N1215 C1211 1.328 . S
N1215 C1214 1.334 . S
N1216 C1212 1.331 . S
N1216 C1213 1.329 . S
H1217 C1211 0.930 . S
C1218 O1198 1.257 . S
C1218 O1219 1.244 . S
O1219 C1218 1.244 . S
O1220 C1196 1.257 . S
O1220 Zn1199 2.019 . S
H1221 C1214 0.930 . S
H1222 C1201 0.930 . S
H1223 C1213 0.930 . S
Zn1224 N1228 2.020 . S
Zn1224 O1232 2.019 . S
Zn1224 N1234 2.119 . S
Zn1224 O1242 1.975 . S
C1225 N1226 1.334 . S
C1225 N1229 1.336 . S
N1226 C1225 1.334 . S
N1226 C1227 1.334 . S
C1227 N1226 1.334 . S
C1227 N1228 1.336 . S
N1228 Zn1224 2.020 . S
N1228 C1227 1.336 . S
N1228 N1229 1.354 . S
N1229 C1225 1.336 . S
N1229 N1228 1.354 . S
N1229 Zn1233 2.020 . S
C1230 O1231 1.244 . S
C1230 O1254 1.257 . S
O1231 C1230 1.244 . S
O1232 Zn1224 2.019 . S
O1232 C1252 1.257 . S
Zn1233 N1229 2.020 . S
Zn1233 O1240 1.975 . S
Zn1233 N1249 2.119 1_554 S
Zn1233 O1254 2.019 . S
N1234 Zn1224 2.119 . S
N1234 C1236 1.334 . S
N1234 C1237 1.328 . S
C1235 C1236 1.391 . S
C1235 N1238 1.329 . S
C1235 H1256 0.930 . S
C1236 N1234 1.334 . S
C1236 C1235 1.391 . S
C1236 H1243 0.930 . S
C1237 N1234 1.328 . S
C1237 C1239 1.392 . S
C1237 H1244 0.930 . S
N1238 C1235 1.329 . S
N1238 C1239 1.331 . S
C1239 C1237 1.392 . S
C1239 N1238 1.331 . S
O1240 Zn1233 1.975 . S
O1240 C1241 1.252 . S
C1241 O1240 1.252 . S
C1241 O1242 1.252 . S
O1242 Zn1224 1.975 . S
O1242 C1241 1.252 . S
H1243 C1236 0.930 . S
H1244 C1237 0.930 . S
C1245 C1246 1.392 . S
C1245 N1249 1.328 . S
C1245 H1251 0.930 . S
C1246 C1245 1.392 . S
C1246 N1250 1.331 . S
C1247 C1248 1.391 . S
C1247 N1250 1.329 . S
C1247 H1257 0.930 . S
C1248 C1247 1.391 . S
C1248 N1249 1.334 . S
C1248 H1255 0.930 . S
N1249 Zn1233 2.119 1_556 S
N1249 C1245 1.328 . S
N1249 C1248 1.334 . S
N1250 C1246 1.331 . S
N1250 C1247 1.329 . S
H1251 C1245 0.930 . S
C1252 O1232 1.257 . S
C1252 O1253 1.244 . S
O1253 C1252 1.244 . S
O1254 C1230 1.257 . S
O1254 Zn1233 2.019 . S
H1255 C1248 0.930 . S
H1256 C1235 0.930 . S
H1257 C1247 0.930 . S
Zn1258 N1262 2.020 . S
Zn1258 O1266 2.019 . S
Zn1258 N1268 2.119 1_554 S
Zn1258 O1276 1.975 . S
C1259 N1260 1.334 . S
C1259 N1263 1.336 . S
N1260 C1259 1.334 . S
N1260 C1261 1.334 . S
C1261 N1260 1.334 . S
C1261 N1262 1.336 . S
N1262 Zn1258 2.020 . S
N1262 C1261 1.336 . S
N1262 N1263 1.354 . S
N1263 C1259 1.336 . S
N1263 N1262 1.354 . S
N1263 Zn1267 2.020 . S
C1264 O1265 1.244 . S
C1264 O1288 1.257 . S
O1265 C1264 1.244 . S
O1266 Zn1258 2.019 . S
O1266 C1286 1.257 . S
Zn1267 N1263 2.020 . S
Zn1267 O1274 1.975 . S
Zn1267 N1283 2.119 . S
Zn1267 O1288 2.019 . S
N1268 Zn1258 2.119 1_556 S
N1268 C1270 1.334 . S
N1268 C1271 1.328 . S
C1269 C1270 1.391 . S
C1269 N1272 1.329 . S
C1269 H1290 0.930 . S
C1270 N1268 1.334 . S
C1270 C1269 1.391 . S
C1270 H1277 0.930 . S
C1271 N1268 1.328 . S
C1271 C1273 1.392 . S
C1271 H1278 0.930 . S
N1272 C1269 1.329 . S
N1272 C1273 1.331 . S
C1273 C1271 1.392 . S
C1273 N1272 1.331 . S
O1274 Zn1267 1.975 . S
O1274 C1275 1.252 . S
C1275 O1274 1.252 . S
C1275 O1276 1.252 . S
O1276 Zn1258 1.975 . S
O1276 C1275 1.252 . S
H1277 C1270 0.930 . S
H1278 C1271 0.930 . S
C1279 C1280 1.392 . S
C1279 N1283 1.328 . S
C1279 H1285 0.930 . S
C1280 C1279 1.392 . S
C1280 N1284 1.331 . S
C1281 C1282 1.391 . S
C1281 N1284 1.329 . S
C1281 H1291 0.930 . S
C1282 C1281 1.391 . S
C1282 N1283 1.334 . S
C1282 H1289 0.930 . S
N1283 Zn1267 2.119 . S
N1283 C1279 1.328 . S
N1283 C1282 1.334 . S
N1284 C1280 1.331 . S
N1284 C1281 1.329 . S
H1285 C1279 0.930 . S
C1286 O1266 1.257 . S
C1286 O1287 1.244 . S
O1287 C1286 1.244 . S
O1288 C1264 1.257 . S
O1288 Zn1267 2.019 . S
H1289 C1282 0.930 . S
H1290 C1269 0.930 . S
H1291 C1281 0.930 . S
Zn1292 N1296 2.020 . S
Zn1292 O1300 2.019 . S
Zn1292 N1302 2.119 1_554 S
Zn1292 O1310 1.975 . S
C1293 N1294 1.334 . S
C1293 N1297 1.336 . S
N1294 C1293 1.334 . S
N1294 C1295 1.334 . S
C1295 N1294 1.334 . S
C1295 N1296 1.336 . S
N1296 Zn1292 2.020 . S
N1296 C1295 1.336 . S
N1296 N1297 1.354 . S
N1297 C1293 1.336 . S
N1297 N1296 1.354 . S
N1297 Zn1301 2.020 . S
C1298 O1299 1.244 . S
C1298 O1322 1.257 . S
O1299 C1298 1.244 . S
O1300 Zn1292 2.019 . S
O1300 C1320 1.257 . S
Zn1301 N1297 2.020 . S
Zn1301 O1308 1.975 . S
Zn1301 N1317 2.119 . S
Zn1301 O1322 2.019 . S
N1302 Zn1292 2.119 1_556 S
N1302 C1304 1.334 . S
N1302 C1305 1.328 . S
C1303 C1304 1.391 . S
C1303 N1306 1.329 . S
C1303 H1324 0.930 . S
C1304 N1302 1.334 . S
C1304 C1303 1.391 . S
C1304 H1311 0.930 . S
C1305 N1302 1.328 . S
C1305 C1307 1.392 . S
C1305 H1312 0.930 . S
N1306 C1303 1.329 . S
N1306 C1307 1.331 . S
C1307 C1305 1.392 . S
C1307 N1306 1.331 . S
O1308 Zn1301 1.975 . S
O1308 C1309 1.252 . S
C1309 O1308 1.252 . S
C1309 O1310 1.252 . S
O1310 Zn1292 1.975 . S
O1310 C1309 1.252 . S
H1311 C1304 0.930 . S
H1312 C1305 0.930 . S
C1313 C1314 1.392 . S
C1313 N1317 1.328 . S
C1313 H1319 0.930 . S
C1314 C1313 1.392 . S
C1314 N1318 1.331 . S
C1315 C1316 1.391 . S
C1315 N1318 1.329 . S
C1315 H1325 0.930 . S
C1316 C1315 1.391 . S
C1316 N1317 1.334 . S
C1316 H1323 0.930 . S
N1317 Zn1301 2.119 . S
N1317 C1313 1.328 . S
N1317 C1316 1.334 . S
N1318 C1314 1.331 . S
N1318 C1315 1.329 . S
H1319 C1313 0.930 . S
C1320 O1300 1.257 . S
C1320 O1321 1.244 . S
O1321 C1320 1.244 . S
O1322 C1298 1.257 . S
O1322 Zn1301 2.019 . S
H1323 C1316 0.930 . S
H1324 C1303 0.930 . S
H1325 C1315 0.930 . S
Zn1326 N1330 2.020 . S
Zn1326 O1334 2.019 . S
Zn1326 N1336 2.119 . S
Zn1326 O1344 1.975 . S
C1327 N1328 1.334 . S
C1327 N1331 1.336 . S
N1328 C1327 1.334 . S
N1328 C1329 1.334 . S
C1329 N1328 1.334 . S
C1329 N1330 1.336 . S
N1330 Zn1326 2.020 . S
N1330 C1329 1.336 . S
N1330 N1331 1.354 . S
N1331 C1327 1.336 . S
N1331 N1330 1.354 . S
N1331 Zn1335 2.020 . S
C1332 O1333 1.244 . S
C1332 O1356 1.257 . S
O1333 C1332 1.244 . S
O1334 Zn1326 2.019 . S
O1334 C1354 1.257 . S
Zn1335 N1331 2.020 . S
Zn1335 O1342 1.975 . S
Zn1335 N1351 2.119 1_554 S
Zn1335 O1356 2.019 . S
N1336 Zn1326 2.119 . S
N1336 C1338 1.334 . S
N1336 C1339 1.328 . S
C1337 C1338 1.391 . S
C1337 N1340 1.329 . S
C1337 H1358 0.930 . S
C1338 N1336 1.334 . S
C1338 C1337 1.391 . S
C1338 H1345 0.930 . S
C1339 N1336 1.328 . S
C1339 C1341 1.392 . S
C1339 H1346 0.930 . S
N1340 C1337 1.329 . S
N1340 C1341 1.331 . S
C1341 C1339 1.392 . S
C1341 N1340 1.331 . S
O1342 Zn1335 1.975 . S
O1342 C1343 1.252 . S
C1343 O1342 1.252 . S
C1343 O1344 1.252 . S
O1344 Zn1326 1.975 . S
O1344 C1343 1.252 . S
H1345 C1338 0.930 . S
H1346 C1339 0.930 . S
C1347 C1348 1.392 . S
C1347 N1351 1.328 . S
C1347 H1353 0.930 . S
C1348 C1347 1.392 . S
C1348 N1352 1.331 . S
C1349 C1350 1.391 . S
C1349 N1352 1.329 . S
C1349 H1359 0.930 . S
C1350 C1349 1.391 . S
C1350 N1351 1.334 . S
C1350 H1357 0.930 . S
N1351 Zn1335 2.119 1_556 S
N1351 C1347 1.328 . S
N1351 C1350 1.334 . S
N1352 C1348 1.331 . S
N1352 C1349 1.329 . S
H1353 C1347 0.930 . S
C1354 O1334 1.257 . S
C1354 O1355 1.244 . S
O1355 C1354 1.244 . S
O1356 C1332 1.257 . S
O1356 Zn1335 2.019 . S
H1357 C1350 0.930 . S
H1358 C1337 0.930 . S
H1359 C1349 0.930 . S
Zn1360 N1364 2.020 . S
Zn1360 O1368 2.019 . S
Zn1360 N1370 2.119 . S
Zn1360 O1378 1.975 . S
C1361 N1362 1.334 . S
C1361 N1365 1.336 . S
N1362 C1361 1.334 . S
N1362 C1363 1.334 . S
C1363 N1362 1.334 . S
C1363 N1364 1.336 . S
N1364 Zn1360 2.020 . S
N1364 C1363 1.336 . S
N1364 N1365 1.354 . S
N1365 C1361 1.336 . S
N1365 N1364 1.354 . S
N1365 Zn1369 2.020 . S
C1366 O1367 1.244 . S
C1366 O1390 1.257 . S
O1367 C1366 1.244 . S
O1368 Zn1360 2.019 . S
O1368 C1388 1.257 . S
Zn1369 N1365 2.020 . S
Zn1369 O1376 1.975 . S
Zn1369 N1385 2.119 . S
Zn1369 O1390 2.019 . S
N1370 Zn1360 2.119 . S
N1370 C1372 1.334 . S
N1370 C1373 1.328 . S
C1371 C1372 1.391 . S
C1371 N1374 1.329 . S
C1371 H1392 0.930 . S
C1372 N1370 1.334 . S
C1372 C1371 1.391 . S
C1372 H1379 0.930 . S
C1373 N1370 1.328 . S
C1373 C1375 1.392 . S
C1373 H1380 0.930 . S
N1374 C1371 1.329 . S
N1374 C1375 1.331 . S
C1375 C1373 1.392 . S
C1375 N1374 1.331 . S
O1376 Zn1369 1.975 . S
O1376 C1377 1.252 . S
C1377 O1376 1.252 . S
C1377 O1378 1.252 . S
O1378 Zn1360 1.975 . S
O1378 C1377 1.252 . S
H1379 C1372 0.930 . S
H1380 C1373 0.930 . S
C1381 C1382 1.392 . S
C1381 N1385 1.328 . S
C1381 H1387 0.930 . S
C1382 C1381 1.392 . S
C1382 N1386 1.331 . S
C1383 C1384 1.391 . S
C1383 N1386 1.329 . S
C1383 H1393 0.930 . S
C1384 C1383 1.391 . S
C1384 N1385 1.334 . S
C1384 H1391 0.930 . S
N1385 Zn1369 2.119 . S
N1385 C1381 1.328 . S
N1385 C1384 1.334 . S
N1386 C1382 1.331 . S
N1386 C1383 1.329 . S
H1387 C1381 0.930 . S
C1388 O1368 1.257 . S
C1388 O1389 1.244 . S
O1389 C1388 1.244 . S
O1390 C1366 1.257 . S
O1390 Zn1369 2.019 . S
H1391 C1384 0.930 . S
H1392 C1371 0.930 . S
H1393 C1383 0.930 . S
Zn1394 N1398 2.020 . S
Zn1394 O1402 2.019 . S
Zn1394 N1404 2.119 . S
Zn1394 O1412 1.975 . S
C1395 N1396 1.334 . S
C1395 N1399 1.336 . S
N1396 C1395 1.334 . S
N1396 C1397 1.334 . S
C1397 N1396 1.334 . S
C1397 N1398 1.336 . S
N1398 Zn1394 2.020 . S
N1398 C1397 1.336 . S
N1398 N1399 1.354 . S
N1399 C1395 1.336 . S
N1399 N1398 1.354 . S
N1399 Zn1403 2.020 . S
C1400 O1401 1.244 . S
C1400 O1424 1.257 . S
O1401 C1400 1.244 . S
O1402 Zn1394 2.019 . S
O1402 C1422 1.257 . S
Zn1403 N1399 2.020 . S
Zn1403 O1410 1.975 . S
Zn1403 N1419 2.119 . S
Zn1403 O1424 2.019 . S
N1404 Zn1394 2.119 . S
N1404 C1406 1.334 . S
N1404 C1407 1.328 . S
C1405 C1406 1.391 . S
C1405 N1408 1.329 . S
C1405 H1426 0.930 . S
C1406 N1404 1.334 . S
C1406 C1405 1.391 . S
C1406 H1413 0.930 . S
C1407 N1404 1.328 . S
C1407 C1409 1.392 . S
C1407 H1414 0.930 . S
N1408 C1405 1.329 . S
N1408 C1409 1.331 . S
C1409 C1407 1.392 . S
C1409 N1408 1.331 . S
O1410 Zn1403 1.975 . S
O1410 C1411 1.252 . S
C1411 O1410 1.252 . S
C1411 O1412 1.252 . S
O1412 Zn1394 1.975 . S
O1412 C1411 1.252 . S
H1413 C1406 0.930 . S
H1414 C1407 0.930 . S
C1415 C1416 1.392 . S
C1415 N1419 1.328 . S
C1415 H1421 0.930 . S
C1416 C1415 1.392 . S
C1416 N1420 1.331 . S
C1417 C1418 1.391 . S
C1417 N1420 1.329 . S
C1417 H1427 0.930 . S
C1418 C1417 1.391 . S
C1418 N1419 1.334 . S
C1418 H1425 0.930 . S
N1419 Zn1403 2.119 . S
N1419 C1415 1.328 . S
N1419 C1418 1.334 . S
N1420 C1416 1.331 . S
N1420 C1417 1.329 . S
H1421 C1415 0.930 . S
C1422 O1402 1.257 . S
C1422 O1423 1.244 . S
O1423 C1422 1.244 . S
O1424 C1400 1.257 . S
O1424 Zn1403 2.019 . S
H1425 C1418 0.930 . S
H1426 C1405 0.930 . S
H1427 C1417 0.930 . S
Zn1428 N1432 2.020 . S
Zn1428 O1436 2.019 . S
Zn1428 N1438 2.119 . S
Zn1428 O1446 1.975 . S
C1429 N1430 1.334 . S
C1429 N1433 1.336 . S
N1430 C1429 1.334 . S
N1430 C1431 1.334 . S
C1431 N1430 1.334 . S
C1431 N1432 1.336 . S
N1432 Zn1428 2.020 . S
N1432 C1431 1.336 . S
N1432 N1433 1.354 . S
N1433 C1429 1.336 . S
N1433 N1432 1.354 . S
N1433 Zn1437 2.020 . S
C1434 O1435 1.244 . S
C1434 O1458 1.257 . S
O1435 C1434 1.244 . S
O1436 Zn1428 2.019 . S
O1436 C1456 1.257 . S
Zn1437 N1433 2.020 . S
Zn1437 O1444 1.975 . S
Zn1437 N1453 2.119 . S
Zn1437 O1458 2.019 . S
N1438 Zn1428 2.119 . S
N1438 C1440 1.334 . S
N1438 C1441 1.328 . S
C1439 C1440 1.391 . S
C1439 N1442 1.329 . S
C1439 H1460 0.930 . S
C1440 N1438 1.334 . S
C1440 C1439 1.391 . S
C1440 H1447 0.930 . S
C1441 N1438 1.328 . S
C1441 C1443 1.392 . S
C1441 H1448 0.930 . S
N1442 C1439 1.329 . S
N1442 C1443 1.331 . S
C1443 C1441 1.392 . S
C1443 N1442 1.331 . S
O1444 Zn1437 1.975 . S
O1444 C1445 1.252 . S
C1445 O1444 1.252 . S
C1445 O1446 1.252 . S
O1446 Zn1428 1.975 . S
O1446 C1445 1.252 . S
H1447 C1440 0.930 . S
H1448 C1441 0.930 . S
C1449 C1450 1.392 . S
C1449 N1453 1.328 . S
C1449 H1455 0.930 . S
C1450 C1449 1.392 . S
C1450 N1454 1.331 . S
C1451 C1452 1.391 . S
C1451 N1454 1.329 . S
C1451 H1461 0.930 . S
C1452 C1451 1.391 . S
C1452 N1453 1.334 . S
C1452 H1459 0.930 . S
N1453 Zn1437 2.119 . S
N1453 C1449 1.328 . S
N1453 C1452 1.334 . S
N1454 C1450 1.331 . S
N1454 C1451 1.329 . S
H1455 C1449 0.930 . S
C1456 O1436 1.257 . S
C1456 O1457 1.244 . S
O1457 C1456 1.244 . S
O1458 C1434 1.257 . S
O1458 Zn1437 2.019 . S
H1459 C1452 0.930 . S
H1460 C1439 0.930 . S
H1461 C1451 0.930 . S
Zn1462 N1466 2.020 . S
Zn1462 O1470 2.019 . S
Zn1462 N1472 2.119 . S
Zn1462 O1480 1.975 . S
C1463 N1464 1.334 . S
C1463 N1467 1.336 . S
N1464 C1463 1.334 . S
N1464 C1465 1.334 . S
C1465 N1464 1.334 . S
C1465 N1466 1.336 . S
N1466 Zn1462 2.020 . S
N1466 C1465 1.336 . S
N1466 N1467 1.354 . S
N1467 C1463 1.336 . S
N1467 N1466 1.354 . S
N1467 Zn1471 2.020 . S
C1468 O1469 1.244 . S
C1468 O1492 1.257 . S
O1469 C1468 1.244 . S
O1470 Zn1462 2.019 . S
O1470 C1490 1.257 . S
Zn1471 N1467 2.020 . S
Zn1471 O1478 1.975 . S
Zn1471 N1487 2.119 1_455 S
Zn1471 O1492 2.019 . S
N1472 Zn1462 2.119 . S
N1472 C1474 1.334 . S
N1472 C1475 1.328 . S
C1473 C1474 1.391 . S
C1473 N1476 1.329 . S
C1473 H1494 0.930 . S
C1474 N1472 1.334 . S
C1474 C1473 1.391 . S
C1474 H1481 0.930 . S
C1475 N1472 1.328 . S
C1475 C1477 1.392 . S
C1475 H1482 0.930 . S
N1476 C1473 1.329 . S
N1476 C1477 1.331 . S
C1477 C1475 1.392 . S
C1477 N1476 1.331 . S
O1478 Zn1471 1.975 . S
O1478 C1479 1.252 . S
C1479 O1478 1.252 . S
C1479 O1480 1.252 . S
O1480 Zn1462 1.975 . S
O1480 C1479 1.252 . S
H1481 C1474 0.930 . S
H1482 C1475 0.930 . S
C1483 C1484 1.392 . S
C1483 N1487 1.328 . S
C1483 H1489 0.930 . S
C1484 C1483 1.392 . S
C1484 N1488 1.331 . S
C1485 C1486 1.391 . S
C1485 N1488 1.329 . S
C1485 H1495 0.930 . S
C1486 C1485 1.391 . S
C1486 N1487 1.334 . S
C1486 H1493 0.930 . S
N1487 Zn1471 2.119 1_655 S
N1487 C1483 1.328 . S
N1487 C1486 1.334 . S
N1488 C1484 1.331 . S
N1488 C1485 1.329 . S
H1489 C1483 0.930 . S
C1490 O1470 1.257 . S
C1490 O1491 1.244 . S
O1491 C1490 1.244 . S
O1492 C1468 1.257 . S
O1492 Zn1471 2.019 . S
H1493 C1486 0.930 . S
H1494 C1473 0.930 . S
H1495 C1485 0.930 . S
Zn1496 N1500 2.020 . S
Zn1496 O1504 2.019 . S
Zn1496 N1506 2.119 . S
Zn1496 O1514 1.975 . S
C1497 N1498 1.334 . S
C1497 N1501 1.336 . S
N1498 C1497 1.334 . S
N1498 C1499 1.334 . S
C1499 N1498 1.334 . S
C1499 N1500 1.336 . S
N1500 Zn1496 2.020 . S
N1500 C1499 1.336 . S
N1500 N1501 1.354 . S
N1501 C1497 1.336 . S
N1501 N1500 1.354 . S
N1501 Zn1505 2.020 . S
C1502 O1503 1.244 . S
C1502 O1526 1.257 . S
O1503 C1502 1.244 . S
O1504 Zn1496 2.019 . S
O1504 C1524 1.257 . S
Zn1505 N1501 2.020 . S
Zn1505 O1512 1.975 . S
Zn1505 N1521 2.119 1_545 S
Zn1505 O1526 2.019 . S
N1506 Zn1496 2.119 . S
N1506 C1508 1.334 . S
N1506 C1509 1.328 . S
C1507 C1508 1.391 . S
C1507 N1510 1.329 . S
C1507 H1528 0.930 . S
C1508 N1506 1.334 . S
C1508 C1507 1.391 . S
C1508 H1515 0.930 . S
C1509 N1506 1.328 . S
C1509 C1511 1.392 . S
C1509 H1516 0.930 . S
N1510 C1507 1.329 . S
N1510 C1511 1.331 . S
C1511 C1509 1.392 . S
C1511 N1510 1.331 . S
O1512 Zn1505 1.975 . S
O1512 C1513 1.252 . S
C1513 O1512 1.252 . S
C1513 O1514 1.252 . S
O1514 Zn1496 1.975 . S
O1514 C1513 1.252 . S
H1515 C1508 0.930 . S
H1516 C1509 0.930 . S
C1517 C1518 1.392 . S
C1517 N1521 1.328 . S
C1517 H1523 0.930 . S
C1518 C1517 1.392 . S
C1518 N1522 1.331 . S
C1519 C1520 1.391 . S
C1519 N1522 1.329 . S
C1519 H1529 0.930 . S
C1520 C1519 1.391 . S
C1520 N1521 1.334 . S
C1520 H1527 0.930 . S
N1521 Zn1505 2.119 1_565 S
N1521 C1517 1.328 . S
N1521 C1520 1.334 . S
N1522 C1518 1.331 . S
N1522 C1519 1.329 . S
H1523 C1517 0.930 . S
C1524 O1504 1.257 . S
C1524 O1525 1.244 . S
O1525 C1524 1.244 . S
O1526 C1502 1.257 . S
O1526 Zn1505 2.019 . S
H1527 C1520 0.930 . S
H1528 C1507 0.930 . S
H1529 C1519 0.930 . S
Zn1530 N1534 2.020 . S
Zn1530 O1538 2.019 . S
Zn1530 N1540 2.119 1_455 S
Zn1530 O1548 1.975 . S
C1531 N1532 1.334 . S
C1531 N1535 1.336 . S
N1532 C1531 1.334 . S
N1532 C1533 1.334 . S
C1533 N1532 1.334 . S
C1533 N1534 1.336 . S
N1534 Zn1530 2.020 . S
N1534 C1533 1.336 . S
N1534 N1535 1.354 . S
N1535 C1531 1.336 . S
N1535 N1534 1.354 . S
N1535 Zn1539 2.020 . S
C1536 O1537 1.244 . S
C1536 O1560 1.257 . S
O1537 C1536 1.244 . S
O1538 Zn1530 2.019 . S
O1538 C1558 1.257 . S
Zn1539 N1535 2.020 . S
Zn1539 O1546 1.975 . S
Zn1539 N1555 2.119 . S
Zn1539 O1560 2.019 . S
N1540 Zn1530 2.119 1_655 S
N1540 C1542 1.334 . S
N1540 C1543 1.328 . S
C1541 C1542 1.391 . S
C1541 N1544 1.329 . S
C1541 H1562 0.930 . S
C1542 N1540 1.334 . S
C1542 C1541 1.391 . S
C1542 H1549 0.930 . S
C1543 N1540 1.328 . S
C1543 C1545 1.392 . S
C1543 H1550 0.930 . S
N1544 C1541 1.329 . S
N1544 C1545 1.331 . S
C1545 C1543 1.392 . S
C1545 N1544 1.331 . S
O1546 Zn1539 1.975 . S
O1546 C1547 1.252 . S
C1547 O1546 1.252 . S
C1547 O1548 1.252 . S
O1548 Zn1530 1.975 . S
O1548 C1547 1.252 . S
H1549 C1542 0.930 . S
H1550 C1543 0.930 . S
C1551 C1552 1.392 . S
C1551 N1555 1.328 . S
C1551 H1557 0.930 . S
C1552 C1551 1.392 . S
C1552 N1556 1.331 . S
C1553 C1554 1.391 . S
C1553 N1556 1.329 . S
C1553 H1563 0.930 . S
C1554 C1553 1.391 . S
C1554 N1555 1.334 . S
C1554 H1561 0.930 . S
N1555 Zn1539 2.119 . S
N1555 C1551 1.328 . S
N1555 C1554 1.334 . S
N1556 C1552 1.331 . S
N1556 C1553 1.329 . S
H1557 C1551 0.930 . S
C1558 O1538 1.257 . S
C1558 O1559 1.244 . S
O1559 C1558 1.244 . S
O1560 C1536 1.257 . S
O1560 Zn1539 2.019 . S
H1561 C1554 0.930 . S
H1562 C1541 0.930 . S
H1563 C1553 0.930 . S
Zn1564 N1568 2.020 . S
Zn1564 O1572 2.019 . S
Zn1564 N1574 2.119 . S
Zn1564 O1582 1.975 . S
C1565 N1566 1.334 . S
C1565 N1569 1.336 . S
N1566 C1565 1.334 . S
N1566 C1567 1.334 . S
C1567 N1566 1.334 . S
C1567 N1568 1.336 . S
N1568 Zn1564 2.020 . S
N1568 C1567 1.336 . S
N1568 N1569 1.354 . S
N1569 C1565 1.336 . S
N1569 N1568 1.354 . S
N1569 Zn1573 2.020 . S
C1570 O1571 1.244 . S
C1570 O1594 1.257 . S
O1571 C1570 1.244 . S
O1572 Zn1564 2.019 . S
O1572 C1592 1.257 . S
Zn1573 N1569 2.020 . S
Zn1573 O1580 1.975 . S
Zn1573 N1589 2.119 1_545 S
Zn1573 O1594 2.019 . S
N1574 Zn1564 2.119 . S
N1574 C1576 1.334 . S
N1574 C1577 1.328 . S
C1575 C1576 1.391 . S
C1575 N1578 1.329 . S
C1575 H1596 0.930 . S
C1576 N1574 1.334 . S
C1576 C1575 1.391 . S
C1576 H1583 0.930 . S
C1577 N1574 1.328 . S
C1577 C1579 1.392 . S
C1577 H1584 0.930 . S
N1578 C1575 1.329 . S
N1578 C1579 1.331 . S
C1579 C1577 1.392 . S
C1579 N1578 1.331 . S
O1580 Zn1573 1.975 . S
O1580 C1581 1.252 . S
C1581 O1580 1.252 . S
C1581 O1582 1.252 . S
O1582 Zn1564 1.975 . S
O1582 C1581 1.252 . S
H1583 C1576 0.930 . S
H1584 C1577 0.930 . S
C1585 C1586 1.392 . S
C1585 N1589 1.328 . S
C1585 H1591 0.930 . S
C1586 C1585 1.392 . S
C1586 N1590 1.331 . S
C1587 C1588 1.391 . S
C1587 N1590 1.329 . S
C1587 H1597 0.930 . S
C1588 C1587 1.391 . S
C1588 N1589 1.334 . S
C1588 H1595 0.930 . S
N1589 Zn1573 2.119 1_565 S
N1589 C1585 1.328 . S
N1589 C1588 1.334 . S
N1590 C1586 1.331 . S
N1590 C1587 1.329 . S
H1591 C1585 0.930 . S
C1592 O1572 1.257 . S
C1592 O1593 1.244 . S
O1593 C1592 1.244 . S
O1594 C1570 1.257 . S
O1594 Zn1573 2.019 . S
H1595 C1588 0.930 . S
H1596 C1575 0.930 . S
H1597 C1587 0.930 . S
Zn1598 N1602 2.020 . S
Zn1598 O1606 2.019 . S
Zn1598 N1608 2.119 . S
Zn1598 O1616 1.975 . S
C1599 N1600 1.334 . S
C1599 N1603 1.336 . S
N1600 C1599 1.334 . S
N1600 C1601 1.334 . S
C1601 N1600 1.334 . S
C1601 N1602 1.336 . S
N1602 Zn1598 2.020 . S
N1602 C1601 1.336 . S
N1602 N1603 1.354 . S
N1603 C1599 1.336 . S
N1603 N1602 1.354 . S
N1603 Zn1607 2.020 . S
C1604 O1605 1.244 . S
C1604 O1628 1.257 . S
O1605 C1604 1.244 . S
O1606 Zn1598 2.019 . S
O1606 C1626 1.257 . S
Zn1607 N1603 2.020 . S
Zn1607 O1614 1.975 . S
Zn1607 N1623 2.119 . S
Zn1607 O1628 2.019 . S
N1608 Zn1598 2.119 . S
N1608 C1610 1.334 . S
N1608 C1611 1.328 . S
C1609 C1610 1.391 . S
C1609 N1612 1.329 . S
C1609 H1630 0.930 . S
C1610 N1608 1.334 . S
C1610 C1609 1.391 . S
C1610 H1617 0.930 . S
C1611 N1608 1.328 . S
C1611 C1613 1.392 . S
C1611 H1618 0.930 . S
N1612 C1609 1.329 . S
N1612 C1613 1.331 . S
C1613 C1611 1.392 . S
C1613 N1612 1.331 . S
O1614 Zn1607 1.975 . S
O1614 C1615 1.252 . S
C1615 O1614 1.252 . S
C1615 O1616 1.252 . S
O1616 Zn1598 1.975 . S
O1616 C1615 1.252 . S
H1617 C1610 0.930 . S
H1618 C1611 0.930 . S
C1619 C1620 1.392 . S
C1619 N1623 1.328 . S
C1619 H1625 0.930 . S
C1620 C1619 1.392 . S
C1620 N1624 1.331 . S
C1621 C1622 1.391 . S
C1621 N1624 1.329 . S
C1621 H1631 0.930 . S
C1622 C1621 1.391 . S
C1622 N1623 1.334 . S
C1622 H1629 0.930 . S
N1623 Zn1607 2.119 . S
N1623 C1619 1.328 . S
N1623 C1622 1.334 . S
N1624 C1620 1.331 . S
N1624 C1621 1.329 . S
H1625 C1619 0.930 . S
C1626 O1606 1.257 . S
C1626 O1627 1.244 . S
O1627 C1626 1.244 . S
O1628 C1604 1.257 . S
O1628 Zn1607 2.019 . S
H1629 C1622 0.930 . S
H1630 C1609 0.930 . S
H1631 C1621 0.930 . S
C22 C253 2.649 . S
C56 C158 2.649 . S
C185 C90 2.649 . S
C117 C226 2.649 . S
C294 C695 2.649 . S
C328 C593 2.649 . S
C634 C362 2.649 . S
C668 C389 2.649 . S
C797 C423 2.649 . S
C729 C464 2.649 . S
C498 C763 2.649 . S
C532 C559 2.649 . S
C838 C1076 2.649 . S
C967 C872 2.649 . S
C1001 C906 2.649 . S
C940 C1035 2.649 . S
C1103 C1518 2.649 . S
C1416 C1137 2.649 . S
C1443 C1178 2.649 . S
C1484 C1205 2.649 . S
C1246 C1613 2.649 . S
C1273 C1545 2.649 . S
C1307 C1586 2.649 . S
C1348 C1375 2.649 . S
C3 C785 3.792 . S
C717 C37 3.792 . S
C751 C71 3.792 . S
C547 C103 3.792 . S
C139 C683 3.792 . S
C581 C171 3.792 . S
C207 C613 3.792 . S
C239 C647 3.792 . S
C377 C275 3.792 . S
C273 C309 3.792 . S
C343 C307 3.792 . S
C341 C375 3.792 . S
C443 C409 3.792 . S
C445 C477 3.792 . S
C511 C479 3.792 . S
C411 C513 3.792 . S
C545 C173 3.792 . S
C579 C105 3.792 . S
C1 C615 3.792 . S
C649 C35 3.792 . S
C69 C681 3.792 . S
C241 C715 3.792 . S
C749 C137 3.792 . S
C783 C205 3.792 . S
C819 C1601 3.792 . S
C853 C1533 3.792 . S
C887 C1565 3.792 . S
C921 C1363 3.792 . S
C953 C1497 3.792 . S
C987 C1395 3.792 . S
C1021 C1431 3.792 . S
C1057 C1463 3.792 . S
C1089 C1193 3.792 . S
C1091 C1123 3.792 . S
C1159 C1125 3.792 . S
C1191 C1157 3.792 . S
C1227 C1261 3.792 . S
C1295 C1259 3.792 . S
C1327 C1293 3.792 . S
C1225 C1329 3.792 . S
C989 C1361 3.792 . S
C919 C1397 3.792 . S
C817 C1429 3.792 . S
C851 C1465 3.792 . S
C1499 C885 3.792 . S
C1531 C1055 3.792 . S
C1567 C955 3.792 . S
C1023 C1599 3.792 . S
C1212 C6 2.964 1_655 S
C1110 C40 2.964 1_565 S
C74 C1144 2.964 . S
C130 C1171 2.964 . S
C1280 C142 2.964 1_655 S
C198 C1314 2.964 1_545 S
C1341 C210 2.964 . S
C266 C1239 2.964 . S
C278 C1008 2.964 1_545 S
C312 C1042 2.964 . S
C1069 C346 2.964 . S
C402 C974 2.964 1_455 S
C436 C933 2.964 . S
C448 C831 2.964 1_455 S
C865 C482 2.964 1_565 S
C899 C516 2.964 . S
C1620 C572 2.964 1_556 S
C606 C1511 2.964 . S
C1409 C618 2.964 . S
C652 C1450 2.964 . S
C708 C1477 2.964 . S
C1579 C742 2.964 1_556 S
C1382 C776 2.964 1_556 S
C1552 C810 2.964 1_556 S
C396 C822 2.964 1_455 S
C287 C856 2.964 1_545 S
C321 C890 2.964 . S
C924 C355 2.964 . S
C980 C457 2.964 1_655 S
C1014 C491 2.964 1_565 S
C1048 C525 2.964 . S
C1060 C430 2.964 . S
C192 C1116 2.964 1_545 S
C219 C1150 2.964 . S
C1162 C260 2.964 . S
C151 C1218 2.964 1_455 S
C124 C1230 2.964 . S
C15 C1286 2.964 1_455 S
C1320 C49 2.964 1_565 S
C83 C1332 2.964 . S
C1388 C804 2.964 1_556 S
C1400 C702 2.964 . S
C1456 C600 2.964 . S
C627 C1468 2.964 . S
C661 C1502 2.964 . S
C1558 C770 2.964 1_556 S
C1570 C566 2.964 1_556 S
C736 C1626 2.964 1_554 S
C1547 C28 2.462 1_556 S
C62 C1581 2.462 1_554 S
C1377 C96 2.462 1_556 S
C108 C1615 2.462 1_554 S
C1479 C164 2.462 . S
C176 C1513 2.462 . S
C232 C1411 2.462 . S
C1445 C244 2.462 . S
C969 C300 2.462 1_655 S
C1003 C334 2.462 1_565 S
C1037 C368 2.462 . S
C1071 C380 2.462 . S
C833 C414 2.462 1_655 S
C470 C867 2.462 1_545 S
C901 C504 2.462 . S
C935 C538 2.462 . S
C550 C1309 2.462 1_545 S
C1173 C584 2.462 . S
C640 C1207 2.462 1_455 S
C1105 C674 2.462 1_565 S
C1139 C686 2.462 . S
C720 C1241 2.462 . S
C1275 C754 2.462 1_655 S
C788 C1343 2.462 . S
C844 C731 2.462 1_556 S
C765 C878 2.462 1_554 S
C912 C561 2.462 1_556 S
C799 C946 2.462 1_554 S
C663 C958 2.462 . S
C697 C992 2.462 . S
C595 C1026 2.462 . S
C629 C1082 2.462 . S
C153 C1094 2.462 1_455 S
C187 C1128 2.462 1_545 S
C221 C1184 2.462 . S
C1196 C255 2.462 . S
C1252 C17 2.462 1_655 S
C1264 C51 2.462 1_565 S
C85 C1298 2.462 . S
C1354 C119 2.462 . S
C1366 C493 2.462 1_565 S
C1422 C357 2.462 . S
C1434 C391 2.462 1_655 S
C1490 C289 2.462 1_565 S
C1524 C323 2.462 . S
C1536 C425 2.462 . S
C459 C1592 2.462 1_455 S
C1604 C527 2.462 . S
