# Generated by pormake.
# Topology snp, (6)-cn, num edge types: 1
# Building blocks:
#     Node 0, Type 0, BuildingBlock: HISSIN_clean_sbu_0, # of connection points: 6
#     Node 1, Type 0, BuildingBlock: HISSIN_clean_sbu_0, # of connection points: 6
#     Node 2, Type 0, BuildingBlock: HISSIN_clean_sbu_0, # of connection points: 6
#     Node 3, Type 0, BuildingBlock: HISSIN_clean_sbu_0, # of connection points: 6
#     Edge 4, Type (0, 0), BuildingBlock: CIFDUS_clean_linker_0, # of connection points: 2
#     Edge 5, Type (0, 0), BuildingBlock: CIFDUS_clean_linker_0, # of connection points: 2
#     Edge 6, Type (0, 0), BuildingBlock: CIFDUS_clean_linker_0, # of connection points: 2
#     Edge 7, Type (0, 0), BuildingBlock: CIFDUS_clean_linker_0, # of connection points: 2
#     Edge 8, Type (0, 0), BuildingBlock: CIFDUS_clean_linker_0, # of connection points: 2
#     Edge 9, Type (0, 0), BuildingBlock: CIFDUS_clean_linker_0, # of connection points: 2
#     Edge 10, Type (0, 0), BuildingBlock: CIFDUS_clean_linker_0, # of connection points: 2
#     Edge 11, Type (0, 0), BuildingBlock: CIFDUS_clean_linker_0, # of connection points: 2
#     Edge 12, Type (0, 0), BuildingBlock: CIFDUS_clean_linker_0, # of connection points: 2
#     Edge 13, Type (0, 0), BuildingBlock: CIFDUS_clean_linker_0, # of connection points: 2
#     Edge 14, Type (0, 0), BuildingBlock: CIFDUS_clean_linker_0, # of connection points: 2
#     Edge 15, Type (0, 0), BuildingBlock: CIFDUS_clean_linker_0, # of connection points: 2
# Relax obj value: 0.838
# Max RMSD: 0.184
# Mean RMSD: 0.184
data_MOF--net-snp--node1-HISSIN_clean_sbu_0--edge1-CIFDUS_clean_linker_0
_symmetry_space_group_name_H-M    P1
_symmetry_Int_Tables_number       1
_symmetry_cell_setting            triclinic
loop_
_symmetry_equiv_pos_as_xyz
'x, y, z'
_cell_length_a     21.231488
_cell_length_b     22.015693
_cell_length_c     25.45857
_cell_angle_alpha  89.720571
_cell_angle_beta   91.036722
_cell_angle_gamma 122.91666
loop_
_atom_site_label
_atom_site_type_symbol
_atom_site_fract_x
_atom_site_fract_y
_atom_site_fract_z
_atom_type_partial_charge
Eu0 Eu 0.30365 -0.0307 0.21987 0.0
Eu1 Eu 0.24323 0.059 1.18479 0.0
C2 C 0.41838 0.1216 0.19834 0.0
C3 C 0.43947 0.92351 0.2785 0.0
C4 C 0.47488 -0.01482 0.31071 0.0
C5 C 0.48825 0.86844 0.33472 0.0
C6 C 0.51329 -0.01321 0.35628 0.0
C7 C 0.44972 0.8669 0.2891 0.0
C8 C 0.51606 0.9263 0.3706 0.0
C9 C 0.38225 0.91256 0.23974 0.0
O10 O 0.1865 -0.02449 1.11917 0.0
O11 O 0.27796 0.95292 1.12616 0.0
C12 C 0.22159 0.94862 1.09743 0.0
O13 O 0.18857 0.87624 0.22228 0.0
O14 O 0.18747 0.11568 0.2014 0.0
O15 O 0.2298 0.12059 1.12366 0.0
O16 O 0.1481 0.95367 0.2218 0.0
C17 C 0.13638 0.88833 0.22901 0.0
O18 O 0.275 0.00681 0.30011 0.0
O19 O 0.27614 0.10401 0.26817 0.0
O20 O 0.36809 0.10982 1.16174 0.0
O21 O 0.31607 0.88828 0.25901 0.0
O22 O 0.40184 -0.03586 0.2056 0.0
O23 O 0.39045 0.08354 0.24006 0.0
C24 C 0.23713 0.22385 1.15412 0.0
C25 C 0.20446 0.25348 1.12424 0.0
C26 C 0.35306 0.34175 1.16058 0.0
C27 C 0.24743 0.32614 1.10983 0.0
C28 C 0.31 0.26902 1.17493 0.0
C29 C 0.32382 0.36949 1.12474 0.0
C30 C 0.2009 0.14538 1.15516 0.0
C31 C 0.27331 0.06636 0.30923 0.0
H32 H 0.46753 0.02943 0.30304 0.0
H33 H 0.49037 0.82156 0.3442 0.0
H34 H 0.53343 0.0322 0.38289 0.0
H35 H 0.42304 0.81905 0.2643 0.0
H36 H 0.14811 0.21907 1.10811 0.0
H37 H 0.41149 0.37411 1.17298 0.0
H38 H 0.22326 0.3456 1.08196 0.0
H39 H 0.33577 0.24668 0.19836 0.0
Eu40 Eu 0.09104 0.23187 0.66209 0.0
Eu41 Eu 0.25535 0.36694 0.6782 0.0
C42 C 0.13185 0.39609 0.64033 0.0
C43 C 0.89202 0.1431 0.62174 0.0
C44 C 0.88871 0.19748 0.64781 0.0
C45 C 0.82051 0.1491 0.54896 0.0
C46 C 0.85643 0.23105 0.6227 0.0
C47 C 0.85203 0.11503 0.5743 0.0
C48 C 0.82903 0.21199 0.57075 0.0
C49 C 0.95359 0.13275 0.63433 0.0
O50 O 0.1986 0.33622 0.76375 0.0
O51 O 0.07795 0.23974 0.74897 0.0
C52 C 0.13031 0.28554 0.78221 0.0
O53 O 0.15286 0.20097 0.71691 0.0
O54 O 0.32368 0.47708 0.70897 0.0
O55 O 0.37732 0.42935 0.67122 0.0
O56 O 0.2767 0.28284 0.70068 0.0
C57 C 0.22442 0.22377 0.72222 0.0
O58 O 0.1558 0.2081 0.60182 0.0
O59 O 0.25719 0.32313 0.5939 0.0
O60 O 0.20157 0.41671 0.63443 0.0
O61 O 0.00875 0.16454 0.60144 0.0
O62 O 0.97777 0.14346 0.68296 0.0
O63 O 0.08255 0.33002 0.65547 0.0
C64 C 0.43371 0.49818 0.74865 0.0
C65 C 0.44205 0.44457 0.77116 0.0
C66 C 0.48014 0.5673 0.82982 0.0
C67 C 0.46566 0.45062 0.8233 0.0
C68 C 0.45665 0.56129 0.77742 0.0
C69 C 0.48108 0.51025 0.85413 0.0
C70 C 0.38668 0.48172 0.70111 0.0
C71 C 0.21691 0.25484 0.57618 0.0
H72 H 0.9187 0.21995 0.68473 0.0
H73 H 0.79918 0.1321 0.5092 0.0
H74 H 0.86185 0.27795 0.64114 0.0
H75 H 0.85361 0.07299 0.55359 0.0
H76 H 0.42445 0.39504 0.75003 0.0
H77 H 0.49316 0.61467 0.8521 0.0
H78 H 0.46506 0.40522 0.84044 0.0
H79 H 0.45068 0.60331 0.76073 0.0
Eu80 Eu 0.97728 0.17393 0.21133 0.0
Eu81 Eu 0.8381 0.02172 1.17082 0.0
C82 C 0.80363 0.14032 0.20594 0.0
C83 C 0.08206 0.35911 0.27172 0.0
C84 C 0.02935 0.37702 0.25889 0.0
C85 C 0.10129 0.4152 0.35719 0.0
C86 C 0.00971 0.41 0.29619 0.0
C87 C 0.12153 0.38307 0.3197 0.0
C88 C 0.04113 0.42397 0.34723 0.0
C89 C 0.08501 0.30397 0.24117 0.0
O90 O 0.88818 0.08388 1.0917 0.0
O91 O 0.9972 0.1861 1.12102 0.0
C92 C 0.95265 0.14626 1.08127 0.0
O93 O 0.01413 0.0954 0.2001 0.0
O94 O 0.73442 0.94787 1.12667 0.0
O95 O 0.77893 0.9059 1.1831 0.0
O96 O 0.93566 0.03358 1.13236 0.0
C97 C 0.99124 0.04686 1.16236 0.0
O98 O 0.96218 0.1081 0.28746 0.0
O99 O 0.865 -0.00104 0.25656 0.0
O100 O 0.7793 0.07842 1.18317 0.0
O101 O 0.06677 0.24556 0.26698 0.0
O102 O 0.0542 0.28891 0.1944 0.0
O103 O 0.87352 0.18123 0.22421 0.0
C104 C 0.71342 0.83299 1.10976 0.0
C105 C 0.7696 0.82034 1.09763 0.0
C106 C 0.62806 0.73834 1.04881 0.0
C107 C 0.75529 0.76747 1.06083 0.0
C108 C 0.64222 0.79082 1.08598 0.0
C109 C 0.68494 0.72724 1.03537 0.0
C110 C 0.72841 0.8903 1.14665 0.0
C111 C 0.91489 0.03758 0.29484 0.0
H112 H 0.99846 0.36 0.22186 0.0
H113 H 0.1271 0.4251 0.39592 0.0
H114 H 0.96452 0.41766 0.28678 0.0
H115 H 0.16276 0.37033 0.33027 0.0
H116 H 0.82497 0.85236 1.11564 0.0
H117 H 0.57343 0.70777 1.02948 0.0
H118 H 0.80029 0.76055 1.0504 0.0
H119 H 0.59817 0.79965 1.09529 0.0
Eu120 Eu 0.1206 0.89303 0.66984 0.0
Eu121 Eu 0.95308 0.7629 0.67267 0.0
C122 C 0.08337 0.73372 0.65016 0.0
C123 C 0.33179 0.00969 0.66563 0.0
C124 C 0.33875 0.95304 0.68328 0.0
C125 C 0.4524 0.06498 0.62409 0.0
C126 C 0.40101 0.95099 0.66956 0.0
C127 C 0.39053 0.06727 0.63823 0.0
C128 C 0.45633 0.00473 0.63703 0.0
C129 C 0.25969 0.00373 0.6683 0.0
O130 O 0.99475 0.79129 0.76316 0.0
O131 O 0.12173 0.8526 0.75305 0.0
C132 C 0.06431 0.82387 0.78505 0.0
O133 O 0.04744 0.91577 0.718 0.0
O134 O 0.87349 0.65323 0.64322 0.0
O135 O 0.83775 0.70318 0.69829 0.0
O136 O 0.93658 0.85323 0.67431 0.0
C137 C 0.98244 0.90627 0.70495 0.0
O138 O 0.06826 0.92146 0.60094 0.0
O139 O 0.96081 0.81137 0.58709 0.0
O140 O 0.02132 0.71264 0.67471 0.0
O141 O 0.21696 -0.02329 0.62647 0.0
O142 O 0.2221 -0.02324 0.71118 0.0
O143 O 0.12691 0.80139 0.63586 0.0
C144 C 0.78776 0.58071 0.7086 0.0
C145 C 0.83267 0.57947 0.74914 0.0
C146 C 0.67701 0.50171 0.75877 0.0
C147 C 0.80017 0.54632 0.79661 0.0
C148 C 0.70958 0.53594 0.71151 0.0
C149 C 0.72309 0.51561 0.80344 0.0
C150 C 0.8205 0.64365 0.67418 0.0
C151 C 0.00791 0.87954 0.57104 0.0
H152 H 0.29378 0.90794 0.70457 0.0
H153 H 0.49315 0.1071 0.5986 0.0
H154 H 0.40275 0.90441 0.68085 0.0
H155 H 0.3859 0.1113 0.62426 0.0
H156 H 0.89333 0.61319 0.74713 0.0
H157 H 0.61707 0.47648 0.76291 0.0
H158 H 0.83698 0.55657 0.83009 0.0
H159 H 0.67411 0.53564 0.68022 0.0
H160 H 0.99339 -0.01048 0.25441 0.0
H161 H 0.99029 -0.03972 1.08692 0.0
H162 H 0.98644 0.84803 1.10044 0.0
H163 H 0.02804 0.78885 1.16052 0.0
H164 H 0.05482 0.83722 0.32344 0.0
H165 H 0.98905 0.89977 0.31453 0.0
C166 C 0.98976 0.95779 0.22094 0.0
C167 C 0.9964 -0.01557 1.17004 0.0
C168 C 0.98543 0.89337 0.22912 0.0
C169 C 0.99023 0.94225 1.12662 0.0
C170 C 0.98542 0.87722 1.13421 0.0
C171 C 0.01575 0.81065 0.19412 0.0
C172 C 0.06004 0.82685 0.23963 0.0
C173 C 0.98883 0.85549 1.18535 0.0
C174 C 0.03158 0.8378 0.28536 0.0
C175 C 0.99556 0.875 0.28013 0.0
H176 H 0.98881 -0.00869 0.79217 0.0
H177 H 0.97245 -0.01159 0.62579 0.0
H178 H 0.10954 0.07033 0.61886 0.0
H179 H 0.23361 0.13027 0.66214 0.0
H180 H 0.24528 0.18045 0.82434 0.0
H181 H 0.11526 0.07667 0.83646 0.0
C182 C 0.01625 0.00923 0.75462 0.0
C183 C 0.97895 -0.02966 0.70864 0.0
C184 C 0.09467 0.05519 0.75259 0.0
C185 C 0.00673 0.00777 0.66136 0.0
C186 C 0.08478 0.05118 0.65692 0.0
C187 C 0.20772 0.11639 0.70045 0.0
C188 C 0.23921 0.16938 0.73976 0.0
C189 C 0.12963 0.0696 0.7027 0.0
C190 C 0.21417 0.14585 0.79109 0.0
C191 C 0.13935 0.08884 0.79771 0.0
H192 H 0.70947 0.13441 1.12965 0.0
H193 H 0.76771 0.18864 0.29325 0.0
H194 H 0.65687 0.19555 0.30388 0.0
H195 H 0.53535 0.17197 0.26856 0.0
H196 H 0.47975 0.12102 1.1042 0.0
H197 H 0.59812 0.12885 1.09162 0.0
C198 C 0.69897 0.14955 1.16741 0.0
C199 C 0.74726 0.16103 0.21066 0.0
C200 C 0.63524 0.15383 1.173 0.0
C201 C 0.73245 0.18036 0.25923 0.0
C202 C 0.66851 0.1837 0.26532 0.0
C203 C 0.55011 0.1647 0.22958 0.0
C204 C 0.49813 0.14612 1.18727 0.0
C205 C 0.61844 0.16874 0.22277 0.0
C206 C 0.5184 0.13635 1.13728 0.0
C207 C 0.58595 0.13995 1.13026 0.0
H208 H 0.21809 0.54035 0.6124 0.0
H209 H 0.9966 0.37469 0.66346 0.0
H210 H 0.96192 0.46308 0.66827 0.0
H211 H 0.99564 0.58812 0.66367 0.0
H212 H 0.21698 0.75668 0.61481 0.0
H213 H 0.25027 0.66685 0.60365 0.0
C214 C 0.16194 0.52339 0.62396 0.0
C215 C 0.10991 0.45017 0.63709 0.0
C216 C 0.14246 0.57537 0.62769 0.0
C217 C 0.03771 0.42993 0.65246 0.0
C218 C 0.01783 0.48076 0.65562 0.0
C219 C 0.05128 0.60559 0.65042 0.0
C220 C 0.10385 0.67958 0.64054 0.0
C221 C 0.07003 0.55376 0.64424 0.0
C222 C 0.1753 0.70039 0.62288 0.0
C223 C 0.1944 0.64889 0.61655 0.0
H224 H 0.21358 0.12655 0.55076 0.0
H225 H 0.26504 0.3269 0.48138 0.0
H226 H 0.28614 0.28842 0.39687 0.0
H227 H 0.28701 0.19644 0.33926 0.0
H228 H 0.23961 -0.00327 0.40766 0.0
H229 H 0.22034 0.03553 0.49313 0.0
C230 C 0.22904 0.162 0.51723 0.0
C231 C 0.23617 0.23045 0.52423 0.0
C232 C 0.24236 0.13918 0.46727 0.0
C233 C 0.25863 0.27471 0.47914 0.0
C234 C 0.27054 0.25215 0.42997 0.0
C235 C 0.27291 0.16085 0.37264 0.0
C236 C 0.26543 0.0924 0.36481 0.0
C237 C 0.26216 0.18427 0.42297 0.0
C238 C 0.24678 0.04921 0.41041 0.0
C239 C 0.2354 0.07177 0.46006 0.0
H240 H 0.99779 0.17847 0.82902 0.0
H241 H 0.21662 0.36155 0.87259 0.0
H242 H 0.18311 0.33718 0.96597 0.0
H243 H 0.09002 0.26216 1.0377 0.0
H244 H 0.8731 0.07842 0.99049 0.0
H245 H 0.90743 0.10504 0.89853 0.0
C246 C 0.03882 0.21395 0.85848 0.0
C247 C 0.11048 0.27299 0.84163 0.0
C248 C 0.01901 0.19911 0.91292 0.0
C249 C 0.16124 0.31632 0.88242 0.0
C250 C 0.14176 0.30203 0.93656 0.0
C251 C 0.04983 0.22771 1.00753 0.0
C252 C 0.9777 0.16745 1.02323 0.0
C253 C 0.07056 0.24338 0.95279 0.0
C254 C 0.9283 0.12478 0.98172 0.0
C255 C 0.94819 0.14015 0.92825 0.0
H256 H 0.89279 0.8227 0.48616 0.0
H257 H 0.09536 0.01926 0.53705 0.0
H258 H 0.08444 0.08409 0.46357 0.0
H259 H 0.02194 0.08912 0.38068 0.0
H260 H 0.8215 0.89355 0.3258 0.0
H261 H 0.82884 0.82784 0.40121 0.0
C262 C 0.93523 0.87965 0.48157 0.0
C263 C 0.99548 0.91445 0.52027 0.0
C264 C 0.92975 0.91849 0.43649 0.0
C265 C 0.04806 -0.01102 0.51055 0.0
C266 C 0.04223 0.02697 0.46735 0.0
C267 C 0.97899 0.0322 0.38487 0.0
C268 C 0.92025 -0.00162 0.34548 0.0
C269 C 0.98377 -0.007 0.42946 0.0
C270 C 0.86725 0.92346 0.35387 0.0
C271 C 0.87158 0.88493 0.39782 0.0
H272 H 0.19456 0.86208 0.8474 0.0
H273 H 0.97342 0.82203 0.86379 0.0
H274 H 1.00081 0.85602 0.95699 0.0
H275 H 0.08917 0.90202 1.03614 0.0
H276 H 0.30638 0.93244 1.02206 0.0
H277 H 0.27907 0.89821 0.92873 0.0
C278 C 0.15141 0.85966 0.87111 0.0
C279 C 0.08061 0.8381 0.84598 0.0
C280 C 0.16739 0.87851 0.92668 0.0
C281 C 0.02761 0.8368 0.87974 0.0
C282 C 0.04376 0.85701 0.93395 0.0
C283 C 0.13082 0.9006 1.01324 0.0
C284 C 0.20092 0.92075 1.03877 0.0
C285 C 0.11364 0.87861 0.95832 0.0
C286 C 0.25225 0.91765 1.00596 0.0
C287 C 0.23639 0.89796 0.95158 0.0
H288 H 0.71307 0.62049 1.03019 0.0
H289 H 0.63729 0.73515 0.93855 0.0
H290 H 0.6364 0.67358 0.85923 0.0
H291 H 0.66151 0.59237 0.81575 0.0
H292 H 0.74158 0.47863 0.90368 0.0
H293 H 0.7328 0.53206 0.98565 0.0
C294 C 0.69509 0.63064 0.99286 0.0
C295 C 0.67473 0.68162 0.98993 0.0
C296 C 0.69422 0.59456 0.9473 0.0
C297 C 0.65188 0.69512 0.94166 0.0
C298 C 0.65175 0.66031 0.89634 0.0
C299 C 0.67485 0.57715 0.85291 0.0
C300 C 0.70044 0.53022 0.8539 0.0
C301 C 0.67288 0.61022 0.89876 0.0
C302 C 0.72014 0.51341 0.90227 0.0
C303 C 0.71614 0.54472 0.94884 0.0
H304 H 0.62238 0.02574 0.44008 0.0
H305 H 0.43437 0.80398 0.42873 0.0
H306 H 0.41352 0.80269 0.52197 0.0
H307 H 0.42087 0.87617 0.59567 0.0
H308 H 0.60252 0.10057 0.60696 0.0
H309 H 0.65434 0.08794 0.52608 0.0
C310 C 0.57869 -0.02368 0.45847 0.0
C311 C 0.52805 0.91629 0.4269 0.0
C312 C 0.56423 -0.02307 0.51203 0.0
C313 C 0.4736 0.85168 0.45155 0.0
C314 C 0.46078 0.85107 0.5051 0.0
C315 C 0.47381 0.92181 0.5821 0.0
C316 C 0.50555 -0.00973 0.60591 0.0
C317 C 0.50147 0.91529 0.53436 0.0
C318 C 0.57505 0.04797 0.58807 0.0
C319 C 0.60454 0.04104 0.54153 0.0
H320 H 0.42272 0.55563 0.92689 0.0
H321 H 0.54723 0.45365 0.91227 0.0
H322 H 0.52737 0.42034 1.00436 0.0
H323 H 0.44914 0.39395 1.08012 0.0
H324 H 0.31062 0.48122 1.09135 0.0
H325 H 0.36382 0.54902 1.01025 0.0
C326 C 0.44798 0.52849 0.94415 0.0
C327 C 0.48569 0.50646 0.91225 0.0
C328 C 0.43299 0.50613 0.99659 0.0
C329 C 0.5168 0.47021 0.93548 0.0
C330 C 0.50557 0.45118 0.98827 0.0
C331 C 0.433 0.4304 1.06631 0.0
C332 C 0.37506 0.43163 1.09113 0.0
C333 C 0.4599 0.46498 1.01814 0.0
C334 C 0.35451 0.47878 1.07244 0.0
C335 C 0.38433 0.51685 1.02582 0.0
H336 H 0.89003 0.34875 0.3582 0.0
H337 H 0.09715 0.503 0.43928 0.0
H338 H 0.03481 0.46094 0.52348 0.0
H339 H 0.9371 0.35491 0.56997 0.0
H340 H 0.73478 0.19453 0.48756 0.0
H341 H 0.77857 0.2663 0.408 0.0
C342 C 0.92106 0.37608 0.39391 0.0
C343 C 0.99923 0.42661 0.3925 0.0
C344 C 0.88583 0.34911 0.44211 0.0
C345 C 0.03759 0.462 0.4394 0.0
C346 C 1.002 0.43763 0.48761 0.0
C347 C 0.90049 0.3372 0.53564 0.0
C348 C 0.83405 0.26758 0.53435 0.0
C349 C 0.92817 0.37694 0.48923 0.0
C350 C 0.7872 0.24651 0.4894 0.0
C351 C 0.81265 0.28747 0.44359 0.0
loop_
_geom_bond_atom_site_label_1
_geom_bond_atom_site_label_2
_geom_bond_distance
_geom_bond_site_symmetry_2
_ccdc_geom_bond_type
Eu0 C9 2.828 . S
Eu0 O11 2.392 1_554 S
Eu0 O13 2.418 . S
Eu0 O18 2.373 . S
Eu0 O21 2.488 . S
Eu0 O22 2.471 . S
Eu0 O23 2.349 . S
Eu1 O10 2.373 . S
Eu1 O14 2.488 . S
Eu1 O15 2.471 . S
Eu1 O16 2.349 . S
Eu1 O19 2.392 1_556 S
Eu1 O20 2.418 . S
Eu1 C30 2.828 . S
C2 O20 1.244 1_554 S
C2 O23 1.265 . S
C3 C4 1.379 . S
C3 C7 1.373 1_545 S
C3 C9 1.505 . S
C4 C3 1.379 . S
C4 C6 1.369 . S
C4 H32 0.930 . S
C5 C7 1.383 . S
C5 C8 1.382 . S
C5 H33 0.930 . S
C6 C4 1.369 . S
C6 C8 1.392 1_545 S
C6 H34 0.930 . S
C7 C3 1.373 1_565 S
C7 C5 1.383 . S
C7 H35 0.931 . S
C8 C5 1.382 . S
C8 C6 1.392 1_565 S
C9 Eu0 2.828 . S
C9 C3 1.505 . S
C9 O21 1.249 . S
C9 O22 1.244 . S
O10 Eu1 2.373 . S
O10 C12 1.258 . S
O11 Eu0 2.392 1_556 S
O11 C12 1.242 . S
C12 O10 1.258 . S
C12 O11 1.242 . S
O13 Eu0 2.418 . S
O13 C17 1.244 . S
O14 Eu1 2.488 . S
O14 C30 1.249 . S
O15 Eu1 2.471 . S
O15 C30 1.244 . S
O16 Eu1 2.349 . S
O16 C17 1.265 1_556 S
C17 O13 1.244 . S
C17 O16 1.265 1_554 S
O18 Eu0 2.373 . S
O18 C31 1.258 . S
O19 Eu1 2.392 1_554 S
O19 C31 1.242 . S
O20 Eu1 2.418 . S
O20 C2 1.244 1_556 S
O21 Eu0 2.488 . S
O21 C9 1.249 . S
O22 Eu0 2.471 . S
O22 C9 1.244 . S
O23 Eu0 2.349 . S
O23 C2 1.265 . S
C24 C25 1.379 . S
C24 C28 1.373 . S
C24 C30 1.505 . S
C25 C24 1.379 . S
C25 C27 1.369 . S
C25 H36 0.930 . S
C26 C28 1.383 . S
C26 C29 1.382 . S
C26 H37 0.930 . S
C27 C25 1.369 . S
C27 C29 1.392 . S
C27 H38 0.930 . S
C28 C24 1.373 . S
C28 C26 1.383 . S
C28 H39 0.931 . S
C29 C26 1.382 . S
C29 C27 1.392 . S
C30 Eu1 2.828 . S
C30 O14 1.249 . S
C30 O15 1.244 . S
C30 C24 1.505 . S
C31 O18 1.258 . S
C31 O19 1.242 . S
H32 C4 0.930 . S
H33 C5 0.930 . S
H34 C6 0.930 . S
H35 C7 0.931 . S
H36 C25 0.930 . S
H37 C26 0.930 . S
H38 C27 0.930 . S
H39 C28 0.931 . S
Eu40 C49 2.828 . S
Eu40 O51 2.392 . S
Eu40 O53 2.418 . S
Eu40 O58 2.373 . S
Eu40 O61 2.488 . S
Eu40 O62 2.471 . S
Eu40 O63 2.349 . S
Eu41 O50 2.373 . S
Eu41 O54 2.488 . S
Eu41 O55 2.471 . S
Eu41 O56 2.349 . S
Eu41 O59 2.392 . S
Eu41 O60 2.418 . S
Eu41 C70 2.828 . S
C42 O60 1.244 . S
C42 O63 1.265 . S
C43 C44 1.379 . S
C43 C47 1.373 1_455 S
C43 C49 1.505 . S
C44 C43 1.379 . S
C44 C46 1.369 . S
C44 H72 0.930 . S
C45 C47 1.383 . S
C45 C48 1.382 . S
C45 H73 0.930 . S
C46 C44 1.369 . S
C46 C48 1.392 1_455 S
C46 H74 0.930 . S
C47 C43 1.373 1_655 S
C47 C45 1.383 . S
C47 H75 0.931 . S
C48 C45 1.382 . S
C48 C46 1.392 1_655 S
C49 Eu40 2.828 . S
C49 C43 1.505 . S
C49 O61 1.249 . S
C49 O62 1.244 . S
O50 Eu41 2.373 . S
O50 C52 1.258 . S
O51 Eu40 2.392 . S
O51 C52 1.242 . S
C52 O50 1.258 . S
C52 O51 1.242 . S
O53 Eu40 2.418 . S
O53 C57 1.244 . S
O54 Eu41 2.488 . S
O54 C70 1.249 . S
O55 Eu41 2.471 . S
O55 C70 1.244 . S
O56 Eu41 2.349 . S
O56 C57 1.265 . S
C57 O53 1.244 . S
C57 O56 1.265 . S
O58 Eu40 2.373 . S
O58 C71 1.258 . S
O59 Eu41 2.392 . S
O59 C71 1.242 . S
O60 Eu41 2.418 . S
O60 C42 1.244 . S
O61 Eu40 2.488 . S
O61 C49 1.249 . S
O62 Eu40 2.471 . S
O62 C49 1.244 . S
O63 Eu40 2.349 . S
O63 C42 1.265 . S
C64 C65 1.379 . S
C64 C68 1.373 . S
C64 C70 1.505 . S
C65 C64 1.379 . S
C65 C67 1.369 . S
C65 H76 0.930 . S
C66 C68 1.383 . S
C66 C69 1.382 . S
C66 H77 0.930 . S
C67 C65 1.369 . S
C67 C69 1.392 . S
C67 H78 0.930 . S
C68 C64 1.373 . S
C68 C66 1.383 . S
C68 H79 0.931 . S
C69 C66 1.382 . S
C69 C67 1.392 . S
C70 Eu41 2.828 . S
C70 O54 1.249 . S
C70 O55 1.244 . S
C70 C64 1.505 . S
C71 O58 1.258 . S
C71 O59 1.242 . S
H72 C44 0.930 . S
H73 C45 0.930 . S
H74 C46 0.930 . S
H75 C47 0.931 . S
H76 C65 0.930 . S
H77 C66 0.930 . S
H78 C67 0.930 . S
H79 C68 0.931 . S
Eu80 C89 2.828 . S
Eu80 O91 2.392 1_554 S
Eu80 O93 2.418 . S
Eu80 O98 2.368 1_545 S
Eu80 O101 2.488 . S
Eu80 O102 2.471 . S
Eu80 O103 2.349 . S
Eu81 O90 2.373 1_565 S
Eu81 O94 2.488 . S
Eu81 O95 2.471 . S
Eu81 O96 2.349 . S
Eu81 O99 2.392 1_556 S
Eu81 O100 2.418 . S
Eu81 C110 2.828 . S
C82 O100 1.244 1_554 S
C82 O103 1.265 1_565 S
C83 C84 1.379 . S
C83 C87 1.373 . S
C83 C89 1.505 . S
C84 C83 1.379 . S
C84 C86 1.369 . S
C84 H112 0.930 . S
C85 C87 1.383 . S
C85 C88 1.382 . S
C85 H113 0.930 1_655 S
C86 C84 1.369 . S
C86 C88 1.392 . S
C86 H114 0.930 . S
C87 C83 1.373 . S
C87 C85 1.383 . S
C87 H115 0.931 1_655 S
C88 C85 1.382 . S
C88 C86 1.392 . S
C89 Eu80 2.828 . S
C89 C83 1.505 . S
C89 O101 1.249 . S
C89 O102 1.244 . S
O90 Eu81 2.373 1_545 S
O90 C92 1.258 . S
O91 Eu80 2.392 1_556 S
O91 C92 1.242 . S
C92 O90 1.258 . S
C92 O91 1.242 . S
O93 Eu80 2.418 . S
O93 C97 1.244 . S
O94 Eu81 2.488 . S
O94 C110 1.249 . S
O95 Eu81 2.471 . S
O95 C110 1.244 . S
O96 Eu81 2.349 . S
O96 C97 1.265 1_566 S
C97 O93 1.244 . S
C97 O96 1.265 1_544 S
O98 Eu80 2.368 1_565 S
O98 C111 1.262 . S
O99 Eu81 2.392 1_554 S
O99 C111 1.242 . S
O100 Eu81 2.418 . S
O100 C82 1.244 1_556 S
O101 Eu80 2.488 . S
O101 C89 1.249 . S
O102 Eu80 2.471 . S
O102 C89 1.244 . S
O103 Eu80 2.349 . S
O103 C82 1.265 1_545 S
C104 C105 1.379 . S
C104 C108 1.373 . S
C104 C110 1.505 . S
C105 C104 1.379 . S
C105 C107 1.369 . S
C105 H116 0.930 . S
C106 C108 1.383 . S
C106 C109 1.382 . S
C106 H117 0.930 . S
C107 C105 1.369 . S
C107 C109 1.392 . S
C107 H118 0.930 . S
C108 C104 1.373 . S
C108 C106 1.383 . S
C108 H119 0.931 . S
C109 C106 1.382 . S
C109 C107 1.392 . S
C110 Eu81 2.828 . S
C110 O94 1.249 . S
C110 O95 1.244 . S
C110 C104 1.505 . S
C111 O98 1.262 . S
C111 O99 1.242 . S
H112 C84 0.930 . S
H113 C85 0.930 1_455 S
H114 C86 0.930 . S
H115 C87 0.931 1_455 S
H116 C105 0.930 . S
H117 C106 0.930 . S
H118 C107 0.930 . S
H119 C108 0.931 . S
Eu120 C129 2.828 . S
Eu120 O131 2.392 . S
Eu120 O133 2.418 . S
Eu120 O138 2.368 1_455 S
Eu120 O141 2.488 . S
Eu120 O142 2.471 . S
Eu120 O143 2.349 . S
Eu121 O130 2.373 1_655 S
Eu121 O134 2.488 . S
Eu121 O135 2.471 . S
Eu121 O136 2.349 . S
Eu121 O139 2.392 . S
Eu121 O140 2.418 . S
Eu121 C150 2.828 . S
C122 O140 1.244 . S
C122 O143 1.265 1_655 S
C123 C124 1.379 . S
C123 C127 1.373 . S
C123 C129 1.505 . S
C124 C123 1.379 . S
C124 C126 1.369 . S
C124 H152 0.930 . S
C125 C127 1.383 . S
C125 C128 1.382 . S
C125 H153 0.930 1_565 S
C126 C124 1.369 . S
C126 C128 1.392 . S
C126 H154 0.930 . S
C127 C123 1.373 . S
C127 C125 1.383 . S
C127 H155 0.931 1_565 S
C128 C125 1.382 . S
C128 C126 1.392 . S
C129 Eu120 2.828 . S
C129 C123 1.505 . S
C129 O141 1.249 . S
C129 O142 1.244 . S
O130 Eu121 2.373 1_455 S
O130 C132 1.258 . S
O131 Eu120 2.392 . S
O131 C132 1.242 . S
C132 O130 1.258 . S
C132 O131 1.242 . S
O133 Eu120 2.418 . S
O133 C137 1.244 . S
O134 Eu121 2.488 . S
O134 C150 1.249 . S
O135 Eu121 2.471 . S
O135 C150 1.244 . S
O136 Eu121 2.349 . S
O136 C137 1.265 1_655 S
C137 O133 1.244 . S
C137 O136 1.265 1_455 S
O138 Eu120 2.368 1_655 S
O138 C151 1.262 . S
O139 Eu121 2.392 . S
O139 C151 1.242 . S
O140 Eu121 2.418 . S
O140 C122 1.244 . S
O141 Eu120 2.488 . S
O141 C129 1.249 . S
O142 Eu120 2.471 . S
O142 C129 1.244 . S
O143 Eu120 2.349 . S
O143 C122 1.265 1_455 S
C144 C145 1.379 . S
C144 C148 1.373 . S
C144 C150 1.505 . S
C145 C144 1.379 . S
C145 C147 1.369 . S
C145 H156 0.930 . S
C146 C148 1.383 . S
C146 C149 1.382 . S
C146 H157 0.930 . S
C147 C145 1.369 . S
C147 C149 1.392 . S
C147 H158 0.930 . S
C148 C144 1.373 . S
C148 C146 1.383 . S
C148 H159 0.931 . S
C149 C146 1.382 . S
C149 C147 1.392 . S
C150 Eu121 2.828 . S
C150 O134 1.249 . S
C150 O135 1.244 . S
C150 C144 1.505 . S
C151 O138 1.262 . S
C151 O139 1.242 . S
H152 C124 0.930 . S
H153 C125 0.930 1_545 S
H154 C126 0.930 . S
H155 C127 0.931 1_545 S
H156 C145 0.930 . S
H157 C146 0.930 . S
H158 C147 0.930 . S
H159 C148 0.931 . S
H160 C166 0.930 1_665 S
H161 C169 0.930 . S
H162 C170 0.930 . S
H163 C171 0.930 . S
H164 C174 0.930 . S
H165 C175 0.930 1_565 S
C166 H160 0.930 1_445 S
C166 C167 1.355 1_455 S
C166 C168 1.415 . S
C167 C166 1.355 1_655 S
C167 C169 1.419 1_554 S
C168 C166 1.415 . S
C168 C173 1.424 1_554 S
C168 C175 1.409 . S
C169 H161 0.930 . S
C169 C167 1.419 1_556 S
C169 C170 1.362 1_655 S
C170 H162 0.930 . S
C170 C169 1.362 1_455 S
C170 C173 1.410 . S
C171 H163 0.930 . S
C171 C172 1.355 1_556 S
C171 C173 1.415 . S
C172 C171 1.355 1_554 S
C172 C174 1.419 . S
C173 C168 1.424 1_556 S
C173 C170 1.410 . S
C173 C171 1.415 . S
C174 H164 0.930 . S
C174 C172 1.419 . S
C174 C175 1.362 . S
C175 H165 0.930 1_545 S
C175 C168 1.409 . S
C175 C174 1.362 . S
H176 C182 0.930 1_665 S
H177 C185 0.930 . S
H178 C186 0.930 . S
H179 C187 0.930 . S
H180 C190 0.930 . S
H181 C191 0.930 . S
C182 H176 0.930 1_445 S
C182 C183 1.355 1_545 S
C182 C184 1.415 . S
C183 C182 1.355 1_565 S
C183 C185 1.419 . S
C184 C182 1.415 . S
C184 C189 1.425 . S
C184 C191 1.409 . S
C185 H177 0.930 . S
C185 C183 1.419 . S
C185 C186 1.362 1_565 S
C186 H178 0.930 . S
C186 C185 1.362 1_545 S
C186 C189 1.409 . S
C187 H179 0.930 . S
C187 C188 1.355 . S
C187 C189 1.415 . S
C188 C187 1.355 . S
C188 C190 1.419 . S
C189 C184 1.425 . S
C189 C186 1.409 . S
C189 C187 1.415 . S
C190 H180 0.930 . S
C190 C188 1.419 . S
C190 C191 1.362 . S
C191 H181 0.930 . S
C191 C184 1.409 . S
C191 C190 1.362 . S
H192 C198 0.930 . S
H193 C201 0.930 1_565 S
H194 C202 0.930 . S
H195 C203 0.930 . S
H196 C206 0.930 . S
H197 C207 0.930 . S
C198 H192 0.930 . S
C198 C199 1.355 1_556 S
C198 C200 1.415 . S
C199 C198 1.355 1_554 S
C199 C201 1.419 . S
C200 C198 1.415 . S
C200 C205 1.425 1_556 S
C200 C207 1.409 . S
C201 H193 0.930 1_545 S
C201 C199 1.419 . S
C201 C202 1.362 . S
C202 H194 0.930 . S
C202 C201 1.362 . S
C202 C205 1.409 . S
C203 H195 0.930 . S
C203 C204 1.355 . S
C203 C205 1.415 . S
C204 C203 1.355 . S
C204 C206 1.419 1_554 S
C205 C200 1.425 1_554 S
C205 C202 1.409 . S
C205 C203 1.415 . S
C206 H196 0.930 . S
C206 C204 1.419 1_556 S
C206 C207 1.362 . S
C207 H197 0.930 . S
C207 C200 1.409 . S
C207 C206 1.362 . S
H208 C214 0.930 . S
H209 C217 0.930 . S
H210 C218 0.930 . S
H211 C219 0.930 1_655 S
H212 C222 0.930 . S
H213 C223 0.930 . S
C214 H208 0.930 . S
C214 C215 1.355 . S
C214 C216 1.415 . S
C215 C214 1.355 . S
C215 C217 1.419 . S
C216 C214 1.415 . S
C216 C221 1.425 . S
C216 C223 1.409 . S
C217 H209 0.930 . S
C217 C215 1.419 . S
C217 C218 1.362 . S
C218 H210 0.930 . S
C218 C217 1.362 . S
C218 C221 1.409 . S
C219 H211 0.930 1_455 S
C219 C220 1.355 . S
C219 C221 1.415 . S
C220 C219 1.355 . S
C220 C222 1.419 . S
C221 C216 1.425 . S
C221 C218 1.409 . S
C221 C219 1.415 . S
C222 H212 0.930 . S
C222 C220 1.419 . S
C222 C223 1.362 . S
C223 H213 0.930 . S
C223 C216 1.409 . S
C223 C222 1.362 . S
H224 C230 0.930 . S
H225 C233 0.930 . S
H226 C234 0.930 . S
H227 C235 0.930 . S
H228 C238 0.930 . S
H229 C239 0.930 . S
C230 H224 0.930 . S
C230 C231 1.355 . S
C230 C232 1.415 . S
C231 C230 1.355 . S
C231 C233 1.419 . S
C232 C230 1.415 . S
C232 C237 1.425 . S
C232 C239 1.409 . S
C233 H225 0.930 . S
C233 C231 1.419 . S
C233 C234 1.362 . S
C234 H226 0.930 . S
C234 C233 1.362 . S
C234 C237 1.409 . S
C235 H227 0.930 . S
C235 C236 1.355 . S
C235 C237 1.415 . S
C236 C235 1.355 . S
C236 C238 1.419 . S
C237 C232 1.425 . S
C237 C234 1.409 . S
C237 C235 1.415 . S
C238 H228 0.930 . S
C238 C236 1.419 . S
C238 C239 1.362 . S
C239 H229 0.930 . S
C239 C232 1.409 . S
C239 C238 1.362 . S
H240 C246 0.930 . S
H241 C249 0.930 . S
H242 C250 0.930 . S
H243 C251 0.930 . S
H244 C254 0.930 . S
H245 C255 0.930 . S
C246 H240 0.930 . S
C246 C247 1.355 1_655 S
C246 C248 1.415 . S
C247 C246 1.355 1_455 S
C247 C249 1.419 . S
C248 C246 1.415 . S
C248 C253 1.425 . S
C248 C255 1.409 . S
C249 H241 0.930 . S
C249 C247 1.419 . S
C249 C250 1.362 . S
C250 H242 0.930 . S
C250 C249 1.362 . S
C250 C253 1.409 1_455 S
C251 H243 0.930 . S
C251 C252 1.355 . S
C251 C253 1.415 . S
C252 C251 1.355 . S
C252 C254 1.419 . S
C253 C248 1.425 . S
C253 C250 1.409 1_655 S
C253 C251 1.415 . S
C254 H244 0.930 . S
C254 C252 1.419 . S
C254 C255 1.362 . S
C255 H245 0.930 . S
C255 C248 1.409 . S
C255 C254 1.362 . S
H256 C262 0.930 . S
H257 C265 0.930 . S
H258 C266 0.930 . S
H259 C267 0.930 . S
H260 C270 0.930 . S
H261 C271 0.930 . S
C262 H256 0.930 . S
C262 C263 1.355 . S
C262 C264 1.415 . S
C263 C262 1.355 . S
C263 C265 1.419 . S
C264 C262 1.415 . S
C264 C269 1.425 . S
C264 C271 1.409 . S
C265 H257 0.930 . S
C265 C263 1.419 . S
C265 C266 1.362 . S
C266 H258 0.930 . S
C266 C265 1.362 . S
C266 C269 1.409 . S
C267 H259 0.930 . S
C267 C268 1.355 . S
C267 C269 1.415 . S
C268 C267 1.355 . S
C268 C270 1.419 . S
C269 C264 1.425 . S
C269 C266 1.409 . S
C269 C267 1.415 . S
C270 H260 0.930 . S
C270 C268 1.419 . S
C270 C271 1.362 . S
C271 H261 0.930 . S
C271 C264 1.409 . S
C271 C270 1.362 . S
H272 C278 0.930 . S
H273 C281 0.930 . S
H274 C282 0.930 . S
H275 C283 0.930 . S
H276 C286 0.930 . S
H277 C287 0.930 . S
C278 H272 0.930 . S
C278 C279 1.355 . S
C278 C280 1.415 . S
C279 C278 1.355 . S
C279 C281 1.419 1_565 S
C280 C278 1.415 . S
C280 C285 1.425 1_565 S
C280 C287 1.409 . S
C281 H273 0.930 . S
C281 C279 1.419 1_545 S
C281 C282 1.362 . S
C282 H274 0.930 . S
C282 C281 1.362 . S
C282 C285 1.409 . S
C283 H275 0.930 . S
C283 C284 1.355 . S
C283 C285 1.415 . S
C284 C283 1.355 . S
C284 C286 1.419 1_545 S
C285 C280 1.425 1_545 S
C285 C282 1.409 . S
C285 C283 1.415 . S
C286 H276 0.930 . S
C286 C284 1.419 1_565 S
C286 C287 1.362 . S
C287 H277 0.930 . S
C287 C280 1.409 . S
C287 C286 1.362 . S
H288 C294 0.930 . S
H289 C297 0.930 . S
H290 C298 0.930 . S
H291 C299 0.930 . S
H292 C302 0.930 . S
H293 C303 0.930 . S
C294 H288 0.930 . S
C294 C295 1.355 . S
C294 C296 1.415 . S
C295 C294 1.355 . S
C295 C297 1.419 . S
C296 C294 1.415 . S
C296 C301 1.425 . S
C296 C303 1.409 . S
C297 H289 0.930 . S
C297 C295 1.419 . S
C297 C298 1.362 . S
C298 H290 0.930 . S
C298 C297 1.362 . S
C298 C301 1.409 . S
C299 H291 0.930 . S
C299 C300 1.355 . S
C299 C301 1.415 . S
C300 C299 1.355 . S
C300 C302 1.419 . S
C301 C296 1.425 . S
C301 C298 1.409 . S
C301 C299 1.415 . S
C302 H292 0.930 . S
C302 C300 1.419 . S
C302 C303 1.362 . S
C303 H293 0.930 . S
C303 C296 1.409 . S
C303 C302 1.362 . S
H304 C310 0.930 . S
H305 C313 0.930 . S
H306 C314 0.930 . S
H307 C315 0.930 . S
H308 C318 0.930 . S
H309 C319 0.930 . S
C310 H304 0.930 . S
C310 C311 1.355 1_565 S
C310 C312 1.415 . S
C311 C310 1.355 1_545 S
C311 C313 1.419 . S
C312 C310 1.415 . S
C312 C317 1.425 . S
C312 C319 1.409 . S
C313 H305 0.930 . S
C313 C311 1.419 . S
C313 C314 1.362 1_545 S
C314 H306 0.930 . S
C314 C313 1.362 1_565 S
C314 C317 1.409 . S
C315 H307 0.930 . S
C315 C316 1.355 . S
C315 C317 1.415 . S
C316 C315 1.355 . S
C316 C318 1.419 . S
C317 C312 1.425 . S
C317 C314 1.409 . S
C317 C315 1.415 . S
C318 H308 0.930 . S
C318 C316 1.419 . S
C318 C319 1.362 . S
C319 H309 0.930 . S
C319 C312 1.409 . S
C319 C318 1.362 . S
H320 C326 0.930 . S
H321 C329 0.930 . S
H322 C330 0.930 . S
H323 C331 0.930 . S
H324 C334 0.930 . S
H325 C335 0.930 . S
C326 H320 0.930 . S
C326 C327 1.355 . S
C326 C328 1.415 . S
C327 C326 1.355 . S
C327 C329 1.419 . S
C328 C326 1.415 . S
C328 C333 1.425 . S
C328 C335 1.409 . S
C329 H321 0.930 . S
C329 C327 1.419 . S
C329 C330 1.362 . S
C330 H322 0.930 . S
C330 C329 1.362 . S
C330 C333 1.409 . S
C331 H323 0.930 . S
C331 C332 1.355 . S
C331 C333 1.415 . S
C332 C331 1.355 . S
C332 C334 1.419 . S
C333 C328 1.425 . S
C333 C330 1.409 . S
C333 C331 1.415 . S
C334 H324 0.930 . S
C334 C332 1.419 . S
C334 C335 1.362 . S
C335 H325 0.930 . S
C335 C328 1.409 . S
C335 C334 1.362 . S
H336 C342 0.930 . S
H337 C345 0.930 . S
H338 C346 0.930 . S
H339 C347 0.930 . S
H340 C350 0.934 1_455 S
H341 C351 0.930 . S
C342 H336 0.930 . S
C342 C343 1.355 . S
C342 C344 1.415 . S
C343 C342 1.355 . S
C343 C345 1.419 . S
C344 C342 1.415 . S
C344 C349 1.425 . S
C344 C351 1.409 . S
C345 H337 0.930 . S
C345 C343 1.419 . S
C345 C346 1.362 . S
C346 H338 0.930 . S
C346 C345 1.362 . S
C346 C349 1.409 . S
C347 H339 0.930 . S
C347 C348 1.355 . S
C347 C349 1.415 1_455 S
C348 C347 1.355 . S
C348 C350 1.410 1_455 S
C349 C344 1.425 . S
C349 C346 1.409 . S
C349 C347 1.415 1_655 S
C350 H340 0.934 1_655 S
C350 C348 1.410 1_655 S
C350 C351 1.368 . S
C351 H341 0.930 . S
C351 C344 1.409 . S
C351 C350 1.368 . S
C167 C97 0.728 . S
C172 C17 0.743 . S
C183 C137 0.780 . S
C188 C57 0.842 . S
C199 C82 1.362 1_545 S
C204 C2 1.323 . S
C215 C42 1.321 . S
C220 C122 1.311 1_455 S
C231 C71 4.719 . S
C236 C31 4.719 . S
C247 C52 4.483 . S
C252 C92 4.493 . S
C263 C151 4.705 . S
C268 C111 4.715 . S
C279 C132 4.485 . S
C284 C12 4.487 . S
C295 C109 0.915 . S
C300 C149 0.952 . S
C311 C8 1.193 1_545 S
C316 C128 1.230 . S
C327 C69 0.862 . S
C332 C29 0.842 . S
C343 C88 1.223 . S
C348 C48 1.267 1_455 S
