# Generated by pormake.
# Topology afw, (4)-cn, num edge types: 1
# Building blocks:
#     Node 0, Type 0, BuildingBlock: ESEHIV_clean_sbu_0, # of connection points: 4
#     Node 1, Type 0, BuildingBlock: ESEHIV_clean_sbu_0, # of connection points: 4
#     Node 2, Type 0, BuildingBlock: ESEHIV_clean_sbu_0, # of connection points: 4
#     Node 3, Type 0, BuildingBlock: ESEHIV_clean_sbu_0, # of connection points: 4
#     Node 4, Type 0, BuildingBlock: ESEHIV_clean_sbu_0, # of connection points: 4
#     Node 5, Type 0, BuildingBlock: ESEHIV_clean_sbu_0, # of connection points: 4
#     Node 6, Type 0, BuildingBlock: ESEHIV_clean_sbu_0, # of connection points: 4
#     Node 7, Type 0, BuildingBlock: ESEHIV_clean_sbu_0, # of connection points: 4
#     Node 8, Type 0, BuildingBlock: ESEHIV_clean_sbu_0, # of connection points: 4
#     Edge 9, Type (0, 0), BuildingBlock: FUNLAD_clean_linker_0, # of connection points: 2
#     Edge 10, Type (0, 0), BuildingBlock: FUNLAD_clean_linker_0, # of connection points: 2
#     Edge 11, Type (0, 0), BuildingBlock: FUNLAD_clean_linker_0, # of connection points: 2
#     Edge 12, Type (0, 0), BuildingBlock: FUNLAD_clean_linker_0, # of connection points: 2
#     Edge 13, Type (0, 0), BuildingBlock: FUNLAD_clean_linker_0, # of connection points: 2
#     Edge 14, Type (0, 0), BuildingBlock: FUNLAD_clean_linker_0, # of connection points: 2
#     Edge 15, Type (0, 0), BuildingBlock: FUNLAD_clean_linker_0, # of connection points: 2
#     Edge 16, Type (0, 0), BuildingBlock: FUNLAD_clean_linker_0, # of connection points: 2
#     Edge 17, Type (0, 0), BuildingBlock: FUNLAD_clean_linker_0, # of connection points: 2
#     Edge 18, Type (0, 0), BuildingBlock: FUNLAD_clean_linker_0, # of connection points: 2
#     Edge 19, Type (0, 0), BuildingBlock: FUNLAD_clean_linker_0, # of connection points: 2
#     Edge 20, Type (0, 0), BuildingBlock: FUNLAD_clean_linker_0, # of connection points: 2
#     Edge 21, Type (0, 0), BuildingBlock: FUNLAD_clean_linker_0, # of connection points: 2
#     Edge 22, Type (0, 0), BuildingBlock: FUNLAD_clean_linker_0, # of connection points: 2
#     Edge 23, Type (0, 0), BuildingBlock: FUNLAD_clean_linker_0, # of connection points: 2
#     Edge 24, Type (0, 0), BuildingBlock: FUNLAD_clean_linker_0, # of connection points: 2
#     Edge 25, Type (0, 0), BuildingBlock: FUNLAD_clean_linker_0, # of connection points: 2
#     Edge 26, Type (0, 0), BuildingBlock: FUNLAD_clean_linker_0, # of connection points: 2
# Relax obj value: 0.052
# Max RMSD: 0.168
# Mean RMSD: 0.157
data_MOF--net-afw--node1-ESEHIV_clean_sbu_0--edge1-FUNLAD_clean_linker_0
_symmetry_space_group_name_H-M    P1
_symmetry_Int_Tables_number       1
_symmetry_cell_setting            triclinic
loop_
_symmetry_equiv_pos_as_xyz
'x, y, z'
_cell_length_a     56.566368
_cell_length_b     60.774426
_cell_length_c     23.473372
_cell_angle_alpha  97.195512
_cell_angle_beta   89.719536
_cell_angle_gamma 117.98475
loop_
_atom_site_label
_atom_site_type_symbol
_atom_site_fract_x
_atom_site_fract_y
_atom_site_fract_z
_atom_type_partial_charge
Cu0 Cu 0.05481 0.22512 0.0394 0.0
N1 N 0.05374 0.19863 0.07477 0.0
N2 N 0.04114 0.15846 0.08476 0.0
C3 C 1.03459 0.17447 0.06236 0.0
C4 C 0.06508 0.17332 0.1139 0.0
C5 C 0.07278 0.19801 0.1077 0.0
O6 O 0.04149 0.21202 0.95941 0.0
C7 C 0.0388 0.25275 0.12357 0.0
O8 O 0.0625 0.25978 0.14829 0.0
H9 H 1.01733 0.16866 0.03315 0.0
H10 H 0.09169 0.21406 0.12317 0.0
N11 N 0.08935 0.25235 0.03865 0.0
N12 N 0.12351 0.28557 0.00767 0.0
C13 C 0.09818 0.26664 0.99586 0.0
C14 C 0.10974 0.26266 0.07917 0.0
C15 C 0.13081 0.28304 0.06015 0.0
C16 C 0.04436 0.19544 0.92524 0.0
O17 O 1.03175 0.18809 0.8741 0.0
H18 H 0.08615 0.26311 0.95677 0.0
H19 H 0.10915 0.25639 0.12045 0.0
O20 O 1.03135 0.2374 0.07693 0.0
H21 H 0.07681 0.16683 0.13619 0.0
H22 H 0.14971 0.29548 0.08407 0.0
Cu23 Cu 0.88505 0.8636 0.07525 0.0
N24 N 0.90328 0.88761 0.02637 0.0
N25 N 0.92968 0.92632 0.00495 0.0
C26 C 0.91833 0.91212 0.04696 0.0
C27 C 0.92138 0.91007 0.95554 0.0
C28 C 0.90523 0.88609 0.96894 0.0
O29 O 0.91056 0.87556 0.14172 0.0
C30 C 0.83745 0.86578 0.0524 0.0
O31 O 0.85024 0.87629 0.0084 0.0
H32 H 0.92052 0.91945 0.09217 0.0
H33 H 0.89554 0.86893 0.93894 0.0
N34 N 0.87686 0.8306 0.04548 0.0
N35 N 0.86058 0.78933 0.04777 0.0
C36 C 0.87306 0.8126 0.0781 0.0
C37 C 0.86625 0.81826 0.99265 0.0
C38 C 0.85626 0.79278 0.9939 0.0
C39 C 0.9304 0.87109 0.13625 0.0
O40 O 0.93009 0.85561 0.09155 0.0
H41 H 0.87737 0.81634 0.12423 0.0
H42 H 0.86401 0.82691 0.95698 0.0
O43 O 0.85003 0.8613 0.09047 0.0
H44 H 0.92681 0.91511 0.91298 0.0
H45 H 0.84557 0.7779 0.95867 0.0
Cu46 Cu 0.20833 0.05268 0.09145 0.0
N47 N 0.21303 0.03009 0.03647 0.0
N48 N 0.22888 1.00619 0.98762 0.0
C49 C 0.2311 1.02144 0.03687 0.0
C50 C 0.20861 1.00521 0.95542 0.0
C51 C 0.19893 1.0199 0.98559 0.0
O52 O 0.2396 0.07045 0.14549 0.0
C53 C 0.16476 1.0124 0.13701 0.0
O54 O 0.17782 0.9997 0.12241 0.0
H55 H 0.24589 0.02663 0.07193 0.0
H56 H 0.18281 0.02315 0.9713 0.0
N57 N 0.20531 0.0765 0.05309 0.0
N58 N 0.19101 0.10218 0.02381 0.0
C59 C 0.18688 0.0847 0.05864 0.0
C60 C 0.22153 0.08905 0.0134 0.0
C61 C 0.21282 0.10487 0.99529 0.0
C62 C 0.246 0.06046 0.18304 0.0
O63 O 0.23043 0.03665 0.18781 0.0
H64 H 0.17101 0.07818 0.08815 0.0
H65 H 0.23847 0.08674 0.99853 0.0
O66 O 0.17504 0.03536 0.12917 0.0
H67 H 0.2011 0.99445 0.9132 0.0
H68 H 0.22168 0.11712 0.96291 0.0
Cu69 Cu 0.71489 0.5345 0.34464 0.0
N70 N 0.68584 0.50467 0.31062 0.0
N71 N 0.65976 0.46352 0.2816 0.0
C72 C 0.68222 0.48124 0.31252 0.0
C73 C 0.64888 0.4765 0.25958 0.0
C74 C 0.66503 0.50184 0.27748 0.0
O75 O 0.73892 0.5243 0.37933 0.0
C76 C 0.68751 0.5414 0.44059 0.0
O77 O 0.68298 0.51848 0.44569 0.0
H78 H 0.69585 0.47738 0.33636 0.0
H79 H 0.66207 0.51717 0.26647 0.0
N80 N 0.73178 0.55387 0.28636 0.0
N81 N 0.75239 0.58574 0.23516 0.0
C82 C 0.73942 0.57832 0.28339 0.0
C83 C 0.73989 0.54556 0.23827 0.0
C84 C 0.75269 0.56515 0.20678 0.0
C85 C 0.76402 0.53399 0.3726 0.0
O86 O 0.77574 0.55431 0.34742 0.0
H87 H 0.73611 0.59053 0.31643 0.0
H88 H 0.73701 0.5266 0.22742 0.0
O89 O 0.70177 0.55226 0.40044 0.0
H90 H 0.63087 0.46839 0.23145 0.0
H91 H 0.76139 0.56427 0.16593 0.0
Cu92 Cu 0.5291 0.17936 0.36529 0.0
N93 N 0.54306 0.19834 0.30502 0.0
N94 N 0.55987 0.23338 0.26336 0.0
C95 C 0.54521 0.22138 0.30582 0.0
C96 C 0.56734 0.21717 0.23462 0.0
C97 C 0.55697 0.19555 0.26055 0.0
O98 O 0.55836 0.19541 0.42479 0.0
C99 C 0.47992 0.17607 0.3407 0.0
O100 O 0.48818 0.17459 0.2887 0.0
H101 H 0.53753 0.22975 0.33939 0.0
H102 H 0.56057 0.1796 0.24966 0.0
N103 N 0.51992 0.14533 0.34802 0.0
N104 N 0.50328 0.10528 0.36364 0.0
C105 C 0.51135 0.12932 0.38731 0.0
C106 C 0.5172 0.13104 0.29737 0.0
C107 C 0.5071 0.10631 0.30695 0.0
C108 C 0.5781 0.19117 0.4139 0.0
O109 O 0.57549 0.17471 0.36914 0.0
H110 H 0.51067 0.13529 0.43241 0.0
H111 H 0.52132 0.1379 0.25623 0.0
O112 O 0.49535 0.17928 0.38393 0.0
H113 H 0.58005 0.22092 0.19862 0.0
H114 H 0.50195 0.09026 0.27433 0.0
Cu115 Cu 0.89395 0.37496 0.45541 0.0
N116 N 0.92104 0.39443 0.51343 0.0
N117 N 0.96154 0.41628 0.56038 0.0
C118 C 0.94739 0.40129 0.51183 0.0
C119 C 0.9432 0.41881 0.59376 0.0
C120 C 0.91833 0.40536 0.56472 0.0
O121 O 0.90714 0.35756 0.39858 0.0
C122 C 0.89543 0.42001 0.42659 0.0
O123 O 0.92047 0.43108 0.4473 0.0
H124 H 0.95605 0.39581 0.47519 0.0
H125 H 0.89956 0.4038 0.57969 0.0
N126 N 0.86419 0.35105 0.48791 0.0
N127 N 0.82148 0.32453 0.50184 0.0
C128 C 0.8386 0.33945 0.46596 0.0
C129 C 0.86329 0.34318 0.53935 0.0
C130 C 0.83698 0.32685 0.5481 0.0
C131 C 0.92579 0.36913 0.36601 0.0
O132 O 0.93536 0.39354 0.3677 0.0
H133 H 0.83263 0.34244 0.42509 0.0
H134 H 0.88053 0.34916 0.56874 0.0
O135 O 0.88165 0.39618 0.42305 0.0
H136 H 0.94732 0.42948 0.63631 0.0
H137 H 0.82986 0.31729 0.58541 0.0
Cu138 Cu 0.37336 0.86809 0.71366 0.0
N139 N 0.34479 0.83821 0.67794 0.0
N140 N 0.32115 0.79751 0.6417 0.0
C141 C 0.34506 0.8161 0.6651 0.0
C142 C 0.30531 0.80853 0.63933 0.0
C143 C 0.31999 0.83365 0.66154 0.0
O144 O 0.39402 0.85864 0.76238 0.0
C145 C 0.3413 0.88324 0.78764 0.0
O146 O 0.3288 0.85961 0.79639 0.0
H147 H 0.36227 0.8136 0.67461 0.0
H148 H 0.31299 0.84752 0.66618 0.0
N149 N 0.3954 0.88432 0.65651 0.0
N150 N 0.41852 0.9123 0.5974 0.0
C151 C 0.40142 0.90682 0.64035 0.0
C152 C 0.40896 0.87524 0.62268 0.0
C153 C 0.42321 0.89239 0.58628 0.0
C154 C 0.38284 0.84139 0.79415 0.0
O155 O 0.35691 0.8318 0.79995 0.0
H156 H 0.39373 0.91902 0.66025 0.0
H157 H 0.40844 0.85732 0.62444 0.0
O158 O 0.36086 0.89037 0.75497 0.0
H159 H 0.28458 0.79915 0.62292 0.0
H160 H 0.43576 0.89014 0.55358 0.0
Cu161 Cu 0.25911 0.53451 0.70415 0.0
N162 N 0.26965 0.54753 0.63517 0.0
N163 N 0.28245 0.5796 0.58408 0.0
C164 C 0.26573 0.56667 0.62299 0.0
C165 C 0.2973 0.56781 0.57055 0.0
C166 C 0.28947 0.54812 0.60241 0.0
O167 O 0.28739 0.56012 0.75911 0.0
C168 C 0.2063 0.51291 0.67338 0.0
O169 O 0.21594 0.50278 0.63326 0.0
H170 H 0.25329 0.57293 0.64784 0.0
H171 H 0.29958 0.53701 0.60604 0.0
N172 N 0.25635 0.50257 0.70567 0.0
N173 N 0.24057 0.46425 0.73235 0.0
C174 C 0.24052 0.48662 0.74109 0.0
C175 C 0.26692 0.48991 0.67314 0.0
C176 C 0.25732 0.46629 0.68975 0.0
C177 C 0.3069 0.55689 0.77533 0.0
O178 O 0.30436 0.5341 0.76758 0.0
H179 H 0.22903 0.49141 0.77252 0.0
H180 H 0.28026 0.49709 0.63919 0.0
O181 O 0.22263 0.52962 0.71271 0.0
H182 H 0.31405 0.57414 0.54322 0.0
H183 H 0.26173 0.45156 0.67075 0.0
Cu184 Cu 0.56095 0.70691 0.78041 0.0
N185 N 0.56189 0.67626 0.76793 0.0
N186 N 0.57594 0.64901 0.72967 0.0
C187 C 0.57648 0.67137 0.72763 0.0
C188 C 0.56018 0.63938 0.77308 0.0
C189 C 0.55169 0.6563 0.79684 0.0
O190 O 0.59576 0.73244 0.81497 0.0
C191 C 0.5343 0.7111 0.6795 0.0
O192 O 0.5357 0.72056 0.6315 0.0
H193 H 0.58759 0.68429 0.69784 0.0
H194 H 0.53975 0.65447 0.83372 0.0
N195 N 0.53455 0.70839 0.82666 0.0
N196 N 0.5074 0.72413 0.8581 0.0
C197 C 0.53007 0.7284 0.83165 0.0
C198 C 0.51425 0.69086 0.85208 0.0
C199 C 0.49733 0.70049 0.87117 0.0
C200 C 0.60364 0.73211 0.86544 0.0
O201 O 0.5877 0.71424 0.89472 0.0
H202 H 0.54214 0.74505 0.81186 0.0
H203 H 0.51085 0.67189 0.85311 0.0
O204 O 0.5561 0.71548 0.7058 0.0
H205 H 0.5559 0.62184 0.78814 0.0
H206 H 0.47855 0.6905 0.89088 0.0
C207 C 0.14853 0.10488 0.03102 0.0
C208 C 0.17564 0.11533 0.01785 0.0
C209 C 0.13358 0.11744 0.02348 0.0
C210 C 0.14544 0.14079 0.0024 0.0
C211 C 0.17266 0.15143 0.99064 0.0
C212 C 0.18752 0.13889 0.99803 0.0
C213 C 0.13054 0.15494 0.99252 0.0
C214 C 0.10356 0.14446 0.98582 0.0
C215 C 0.08902 0.15838 0.97144 0.0
C216 C 0.0628 0.14454 0.94607 0.0
C217 C 0.04847 0.1567 0.93109 0.0
C218 C 0.05978 0.18301 0.94228 0.0
H219 H 0.12028 0.1963 0.00293 0.0
C220 C 0.08598 0.19697 0.9674 0.0
C221 C 0.10041 0.18483 0.98234 0.0
H222 H 0.09545 0.21725 0.97494 0.0
H223 H 0.13869 0.08679 0.04635 0.0
H224 H 0.11289 0.10881 0.03468 0.0
H225 H 0.1825 0.16949 0.97504 0.0
H226 H 0.20845 0.14783 0.98855 0.0
H227 H 0.14262 0.17451 0.98675 0.0
H228 H 0.09149 0.12443 0.98705 0.0
H229 H 0.05338 0.12419 0.93737 0.0
H230 H 1.02832 0.14547 0.91146 0.0
C231 C 0.9458 0.96788 0.97163 0.0
C232 C 0.94667 0.95322 0.01257 0.0
C233 C 0.96094 0.99419 0.98148 0.0
C234 C 0.97744 1.00634 0.03239 0.0
C235 C 0.97906 0.99156 0.07205 0.0
C236 C 0.96372 0.96536 0.06254 0.0
C237 C 0.9934 0.03427 0.04562 0.0
C238 C 0.98596 0.05027 0.02641 0.0
C239 C 1.00076 0.07813 0.04307 0.0
C240 C 0.98688 0.09203 0.04004 0.0
C241 C 0.99994 0.1182 0.0548 0.0
C242 C 1.02737 0.13127 0.07251 0.0
H243 H 0.03995 0.08133 0.06172 0.0
C244 C 0.04134 0.11736 0.07526 0.0
C245 C 1.02825 0.09115 0.06056 0.0
H246 H 0.0626 0.12673 0.08719 0.0
H247 H 0.93289 0.95904 0.93272 0.0
H248 H 0.95976 1.00488 0.94907 0.0
H249 H 0.99184 1.00033 0.11121 0.0
H250 H 0.96521 0.95456 0.09439 0.0
H251 H 1.01069 0.04167 0.07591 0.0
H252 H 0.96728 0.04264 1.00042 0.0
H253 H 0.96574 0.08258 0.02651 0.0
H254 H 0.98845 0.12816 0.05245 0.0
C255 C 0.96542 0.91338 0.18302 0.0
C256 C 0.95627 0.88738 0.16925 0.0
C257 C 0.99259 0.92974 0.19886 0.0
C258 C 1.01095 0.92025 0.20173 0.0
C259 C 1.00115 0.89409 0.19328 0.0
C260 C 0.9742 0.87785 0.17651 0.0
C261 C 0.04055 0.93671 0.20879 0.0
C262 C 0.0531 0.95916 0.1892 0.0
C263 C 0.08265 0.97312 0.18321 0.0
C264 C 0.09443 0.99869 0.17646 0.0
C265 C 0.12137 1.01175 0.16375 0.0
C266 C 0.13714 0.99943 0.15681 0.0
H267 H 0.09045 0.94118 0.18123 0.0
C268 C 0.12561 0.97403 0.16514 0.0
C269 C 0.09871 0.961 0.17806 0.0
H270 H 0.13713 0.96392 0.15993 0.0
H271 H 0.95206 0.92126 0.17748 0.0
H272 H 0.99924 0.94976 0.20685 0.0
H273 H 1.01473 0.88622 0.19586 0.0
H274 H 0.96767 0.85788 0.1661 0.0
H275 H 0.05235 0.92872 0.22491 0.0
H276 H 0.04123 0.96713 0.17323 0.0
H277 H 0.08257 1.0085 0.17965 0.0
H278 H 0.12954 0.03129 0.15752 0.0
C279 C 0.85471 0.42423 0.40088 0.0
C280 C 0.88251 0.43543 0.41415 0.0
C281 C 0.84225 0.43906 0.39432 0.0
C282 C 0.85732 0.46551 0.40107 0.0
C283 C 0.88521 0.47656 0.41227 0.0
C284 C 0.89763 0.46176 0.41902 0.0
C285 C 0.84499 0.48223 0.39563 0.0
C286 C 0.81893 0.4755 0.40371 0.0
C287 C 0.80621 0.49201 0.39872 0.0
C288 C 0.77983 0.48386 0.41568 0.0
C289 C 0.76643 0.49786 0.40914 0.0
C290 C 0.77907 0.52048 0.38543 0.0
H291 H 0.83909 0.52201 0.3613 0.0
C292 C 0.80566 0.529 0.36968 0.0
C293 C 0.81903 0.51494 0.37593 0.0
H294 H 0.81598 0.54623 0.35085 0.0
H295 H 0.84245 0.40399 0.39648 0.0
H296 H 0.82087 0.42966 0.38365 0.0
H297 H 0.89743 0.49682 0.41695 0.0
H298 H 0.91909 0.47106 0.42897 0.0
H299 H 0.85849 0.50114 0.38732 0.0
H300 H 0.80613 0.45709 0.416 0.0
H301 H 0.76932 0.46632 0.4333 0.0
H302 H 0.74592 0.49063 0.42153 0.0
C303 C 0.59281 0.27387 0.2329 0.0
C304 C 0.56813 0.25916 0.25576 0.0
C305 C 0.60172 0.29948 0.23046 0.0
C306 C 0.58611 0.31096 0.25099 0.0
C307 C 0.56097 0.29594 0.27145 0.0
C308 C 0.55213 0.27043 0.27402 0.0
C309 C 0.59509 0.33837 0.25213 0.0
C310 C 0.62102 0.35599 0.25227 0.0
C311 C 0.63029 0.38365 0.25841 0.0
C312 C 0.65741 0.40028 0.27449 0.0
C313 C 0.66706 0.42633 0.28188 0.0
C314 C 0.64983 0.43656 0.27321 0.0
H315 H 0.59224 0.38193 0.23445 0.0
C316 C 0.62275 0.41993 0.25608 0.0
C317 C 0.61311 0.39385 0.24851 0.0
H318 H 0.60882 0.427 0.24905 0.0
H319 H 0.60563 0.26581 0.2184 0.0
H320 H 0.62081 0.3101 0.21253 0.0
H321 H 0.54829 0.30408 0.28674 0.0
H322 H 0.53279 0.25955 0.29077 0.0
H323 H 0.57971 0.3442 0.25738 0.0
H324 H 0.63651 0.35022 0.25159 0.0
H325 H 0.67126 0.39309 0.28183 0.0
H326 H 0.68814 0.43839 0.2939 0.0
C327 C 0.62524 0.19991 0.43255 0.0
C328 C 0.60508 0.20696 0.44357 0.0
C329 C 0.65189 0.21627 0.45129 0.0
C330 C 0.65919 0.24024 0.48148 0.0
C331 C 0.63886 0.24668 0.49617 0.0
C332 C 0.61201 0.23024 0.4771 0.0
C333 C 0.68792 0.25875 0.49679 0.0
C334 C 0.70746 0.26012 0.46181 0.0
C335 C 0.73655 0.27805 0.47385 0.0
C336 C 0.75321 0.28368 0.42741 0.0
C337 C 0.78089 0.29921 0.43653 0.0
C338 C 0.79274 0.30924 0.49252 0.0
H339 H 0.73625 0.28402 0.56698 0.0
C340 C 0.7761 0.30368 0.53917 0.0
C341 C 0.74829 0.28832 0.52999 0.0
H342 H 0.78458 0.31124 0.58282 0.0
H343 H 0.62059 0.18195 0.40767 0.0
H344 H 0.66683 0.21023 0.44123 0.0
H345 H 0.6439 0.26488 0.52023 0.0
H346 H 0.59697 0.23622 0.48639 0.0
H347 H 0.69271 0.2723 0.53539 0.0
H348 H 0.70182 0.24802 0.42063 0.0
H349 H 0.74479 0.27587 0.38372 0.0
H350 H 0.7931 0.30283 0.39972 0.0
C351 C 0.42367 0.83517 0.79905 0.0
C352 C 0.3977 0.82916 0.81596 0.0
C353 C 0.43619 0.82124 0.81324 0.0
C354 C 0.4231 0.80108 0.8453 0.0
C355 C 0.39751 0.79569 0.86369 0.0
C356 C 0.38498 0.80954 0.84935 0.0
C357 C 0.43438 0.7841 0.85683 0.0
C358 C 0.46042 0.78993 0.8526 0.0
C359 C 0.47148 0.77233 0.85939 0.0
C360 C 0.49944 0.7823 0.86632 0.0
C361 C 0.51107 0.76654 0.86795 0.0
C362 C 0.49506 0.74031 0.86261 0.0
H363 H 0.43378 0.73733 0.84844 0.0
C364 C 0.46704 0.73023 0.85725 0.0
C365 C 0.45534 0.74602 0.85531 0.0
H366 H 0.45418 0.71007 0.85198 0.0
H367 H 0.43396 0.84999 0.77281 0.0
H368 H 0.4556 0.82581 0.79681 0.0
H369 H 0.38684 0.78028 0.88824 0.0
H370 H 0.36496 0.80435 0.86309 0.0
H371 H 0.42047 0.76614 0.86973 0.0
H372 H 0.47468 0.80865 0.84426 0.0
H373 H 0.51245 0.80241 0.86949 0.0
H374 H 0.5327 0.77489 0.87261 0.0
C375 C 0.3334 0.76366 0.61284 0.0
C376 C 0.31377 0.77119 0.62641 0.0
C377 C 0.32651 0.73813 0.60124 0.0
C378 C 0.2997 0.71943 0.60268 0.0
C379 C 0.28008 0.727 0.61552 0.0
C380 C 0.28696 0.7525 0.62697 0.0
C381 C 0.29153 0.69199 0.59508 0.0
C382 C 0.30624 0.6817 0.56978 0.0
C383 C 0.29892 0.65457 0.56759 0.0
C384 C 0.3193 0.64754 0.56181 0.0
C385 C 0.31377 0.6227 0.56446 0.0
C386 C 0.28763 0.60423 0.57265 0.0
H387 H 0.25591 0.63999 0.57437 0.0
C388 C 0.26696 0.61094 0.57506 0.0
C389 C 0.27247 0.63575 0.57233 0.0
H390 H 0.24653 0.59702 0.58015 0.0
H391 H 0.3542 0.7775 0.61154 0.0
H392 H 0.34245 0.73333 0.59296 0.0
H393 H 0.25931 0.71308 0.61749 0.0
H394 H 0.27134 0.75751 0.63794 0.0
H395 H 0.27272 0.67998 0.61262 0.0
H396 H 0.32511 0.69365 0.55239 0.0
H397 H 0.33981 0.66152 0.55743 0.0
H398 H 0.33023 0.61831 0.56281 0.0
C399 C 0.34051 0.60222 0.77191 0.0
C400 C 0.33426 0.5786 0.7877 0.0
C401 C 0.36731 0.62086 0.7717 0.0
C402 C 0.3885 0.61625 0.78727 0.0
C403 C 0.382 0.59334 0.80717 0.0
C404 C 0.35531 0.57474 0.80718 0.0
C405 C 0.41746 0.63387 0.78082 0.0
C406 C 0.42625 0.65301 0.74913 0.0
C407 C 0.45492 0.6682 0.73639 0.0
C408 C 0.46337 0.69226 0.72098 0.0
C409 C 0.48939 0.70634 0.70394 0.0
C410 C 0.50768 0.69675 0.70213 0.0
H411 H 0.46739 0.63976 0.74391 0.0
C412 C 0.4994 0.67269 0.71725 0.0
C413 C 0.47329 0.65853 0.73433 0.0
H414 H 0.51287 0.66459 0.7145 0.0
H415 H 0.3248 0.60588 0.75673 0.0
H416 H 0.37111 0.63849 0.75795 0.0
H417 H 0.39772 0.58926 0.82029 0.0
H418 H 0.35126 0.55685 0.82001 0.0
H419 H 0.4321 0.62986 0.80049 0.0
H420 H 0.41205 0.65769 0.73016 0.0
H421 H 0.44967 0.70011 0.72148 0.0
H422 H 0.4952 0.72474 0.6918 0.0
C423 C 0.12645 0.31166 0.93182 0.0
C424 C 0.13909 0.30498 0.97285 0.0
C425 C 0.14153 0.33087 0.89916 0.0
C426 C 0.16972 0.34405 0.90692 0.0
C427 C 0.18235 0.33698 0.94694 0.0
C428 C 0.16728 0.3178 0.97965 0.0
C429 C 0.18665 0.36492 0.87372 0.0
C430 C 0.17756 0.37883 0.84981 0.0
C431 C 0.19451 0.40058 0.81905 0.0
C432 C 0.18567 0.41827 0.8128 0.0
C433 C 0.20071 0.43901 0.78445 0.0
C434 C 0.22498 0.44258 0.76102 0.0
H435 H 0.22585 0.39038 0.79718 0.0
C436 C 0.23366 0.42464 0.76619 0.0
C437 C 0.21862 0.40387 0.79485 0.0
H438 H 0.25223 0.42679 0.74865 0.0
H439 H 0.10483 0.30231 0.92537 0.0
H440 H 0.13094 0.33508 0.86759 0.0
H441 H 0.20402 0.34652 0.95343 0.0
H442 H 0.17778 0.31293 0.00999 0.0
H443 H 0.20771 0.36986 0.8722 0.0
H444 H 0.15707 0.3752 0.85574 0.0
H445 H 0.16706 0.41615 0.83025 0.0
H446 H 0.19306 0.45208 0.78029 0.0
C447 C 0.79461 0.86077 0.00933 0.0
C448 C 0.80777 0.85438 0.04978 0.0
C449 C 0.76686 0.84682 0.99785 0.0
C450 C 0.75157 0.8259 0.02617 0.0
C451 C 0.76442 0.82069 0.06971 0.0
C452 C 0.79226 0.83473 0.08135 0.0
C453 C 0.72252 0.80874 0.0101 0.0
C454 C 0.71151 0.80509 0.95648 0.0
C455 C 0.68318 0.78672 0.93626 0.0
C456 C 0.67392 0.7875 0.88142 0.0
C457 C 0.64808 0.77004 0.85877 0.0
C458 C 0.63074 0.7512 0.89032 0.0
H459 H 0.67183 0.76625 0.01015 0.0
C460 C 0.63979 0.75049 0.94546 0.0
C461 C 0.66568 0.76799 0.96819 0.0
H462 H 0.62698 0.73619 0.97094 0.0
H463 H 0.80589 0.87606 0.98487 0.0
H464 H 0.75762 0.85227 0.96599 0.0
H465 H 0.7531 0.80496 0.09294 0.0
H466 H 0.80174 0.8293 0.11282 0.0
H467 H 0.7106 0.7979 0.04259 0.0
H468 H 0.72413 0.81565 0.9243 0.0
H469 H 0.68684 0.80159 0.85557 0.0
H470 H 0.64182 0.77118 0.81619 0.0
C471 C 0.31157 0.89383 0.85286 0.0
C472 C 0.33164 0.90106 0.81303 0.0
C473 C 0.30138 0.91004 0.87454 0.0
C474 C 0.31101 0.93391 0.85679 0.0
C475 C 0.33122 0.94118 0.81737 0.0
C476 C 0.34156 0.92507 0.79607 0.0
C477 C 0.29918 0.9509 0.87502 0.0
C478 C 0.28643 0.9504 0.92407 0.0
C479 C 0.27305 0.96628 0.93981 0.0
C480 C 0.26925 0.97195 0.99798 0.0
C481 C 0.2554 0.98559 0.01391 0.0
C482 C 0.24459 0.99348 0.97189 0.0
H483 H 0.2644 0.97004 0.8525 0.0
C484 C 0.24854 0.98792 0.91373 0.0
C485 C 0.26256 0.97452 0.89784 0.0
H486 H 0.24067 0.99386 0.88025 0.0
H487 H 0.30337 0.87545 0.86675 0.0
H488 H 0.28536 0.9034 0.90363 0.0
H489 H 0.3389 0.95935 0.80251 0.0
H490 H 0.35693 0.93124 0.76531 0.0
H491 H 0.30162 0.96471 0.84715 0.0
H492 H 0.28617 0.93831 0.95471 0.0
H493 H 0.27685 0.96565 0.03125 0.0
H494 H 0.25249 0.98931 0.059 0.0
C495 C 0.43434 0.15155 0.37657 0.0
C496 C 0.45183 0.17076 0.34607 0.0
C497 C 0.40648 0.14197 0.36858 0.0
C498 C 0.39583 0.15176 0.33057 0.0
C499 C 0.41355 0.17237 0.30413 0.0
C500 C 0.44122 0.18149 0.31103 0.0
C501 C 0.36665 0.14021 0.31413 0.0
C502 C 0.35011 0.11518 0.30863 0.0
C503 C 0.32246 0.10248 0.28017 0.0
C504 C 0.30515 0.07735 0.2872 0.0
C505 C 0.28007 0.06389 0.25692 0.0
C506 C 0.27171 0.07519 0.21841 0.0
H507 H 0.32656 0.13295 0.23406 0.0
C508 C 0.28875 0.10048 0.21214 0.0
C509 C 0.31381 0.11394 0.24241 0.0
H510 H 0.28304 0.10977 0.18268 0.0
H511 H 0.44207 0.14279 0.4033 0.0
H512 H 0.39337 0.12649 0.39081 0.0
H513 H 0.40594 0.18043 0.27508 0.0
H514 H 0.45433 0.19621 0.28679 0.0
H515 H 0.35952 0.15255 0.30032 0.0
H516 H 0.35758 0.10306 0.32247 0.0
H517 H 0.31126 0.06791 0.3155 0.0
H518 H 0.2675 0.04445 0.26283 0.0
C519 C 1.03213 0.28365 0.1943 0.0
C520 C 1.02161 0.26348 0.14904 0.0
C521 C 1.01643 0.29428 0.21804 0.0
C522 C 0.98968 0.28497 0.19729 0.0
C523 C 0.97897 0.26448 0.15286 0.0
C524 C 0.99481 0.254 0.12859 0.0
C525 C 0.97237 0.29571 0.22261 0.0
C526 C 0.98226 0.32015 0.24516 0.0
C527 C 0.96587 0.33159 0.27219 0.0
C528 C 0.97588 0.35772 0.2756 0.0
C529 C 0.96238 0.36968 0.30429 0.0
C530 C 0.93862 0.35587 0.33126 0.0
H531 H 0.93361 0.29751 0.29739 0.0
C532 C 0.9283 0.32962 0.32725 0.0
C533 C 0.94172 0.31759 0.29795 0.0
H534 H 0.91012 0.3184 0.34772 0.0
H535 H 0.05263 0.29139 0.21141 0.0
H536 H 1.02521 0.30951 0.25335 0.0
H537 H 0.95836 0.25672 0.13641 0.0
H538 H 0.986 0.23841 0.09402 0.0
H539 H 0.95087 0.28337 0.22031 0.0
H540 H 1.00345 0.33282 0.24219 0.0
H541 H 0.99448 0.36905 0.25651 0.0
H542 H 0.97103 0.38991 0.30658 0.0
C543 C 0.78711 0.61904 0.18613 0.0
C544 C 0.76383 0.61035 0.21713 0.0
C545 C 0.79764 0.64236 0.1661 0.0
C546 C 0.78497 0.65751 0.17625 0.0
C547 C 0.76171 0.64884 0.20729 0.0
C548 C 0.75142 0.62564 0.22815 0.0
C549 C 0.79472 0.68164 0.15219 0.0
C550 C 0.82081 0.69664 0.14431 0.0
C551 C 0.83051 0.72048 0.11911 0.0
C552 C 0.85592 0.7406 0.1375 0.0
C553 C 0.86575 0.76316 0.11412 0.0
C554 C 0.85069 0.76583 0.07067 0.0
H555 H 0.79602 0.70777 0.05933 0.0
C556 C 0.8255 0.74551 0.05127 0.0
C557 C 0.81542 0.72311 0.07548 0.0
H558 H 0.81338 0.74711 0.01811 0.0
H559 H 0.79719 0.60773 0.17723 0.0
H560 H 0.81523 0.64811 0.14125 0.0
H561 H 0.75142 0.66002 0.2153 0.0
H562 H 0.73331 0.61932 0.25138 0.0
H563 H 0.78002 0.68764 0.14265 0.0
H564 H 0.83584 0.69197 0.15926 0.0
H565 H 0.86808 0.73897 0.17057 0.0
H566 H 0.88528 0.77847 0.12955 0.0
C567 C 0.16001 0.48009 0.6403 0.0
C568 C 0.17691 0.50361 0.67221 0.0
C569 C 0.13239 0.47112 0.63483 0.0
C570 C 0.12076 0.48565 0.66021 0.0
C571 C 0.13748 0.50878 0.6942 0.0
C572 C 0.16536 0.51771 0.70022 0.0
C573 C 0.09128 0.47674 0.65258 0.0
C574 C 0.07615 0.46058 0.60628 0.0
C575 C 0.04648 0.44964 0.59703 0.0
C576 C 1.03307 0.42844 0.55515 0.0
C577 C 1.00538 0.41745 0.5436 0.0
C578 C 0.99018 0.42749 0.57327 0.0
H579 H 0.04086 0.47635 0.6588 0.0
C580 C 1.00357 0.44878 0.61526 0.0
C581 C 1.03138 0.45975 0.62706 0.0
H582 H 0.99271 0.45735 0.63842 0.0
H583 H 0.16813 0.4684 0.61932 0.0
H584 H 0.12032 0.45263 0.61092 0.0
H585 H 0.12905 0.52018 0.71519 0.0
H586 H 0.17786 0.53583 0.72542 0.0
H587 H 0.08217 0.4838 0.68574 0.0
H588 H 0.08589 0.45445 0.57274 0.0
H589 H 0.04408 0.42017 0.53127 0.0
H590 H 0.99594 0.40092 0.51164 0.0
C591 C 0.67612 0.57658 0.46957 0.0
C592 C 0.67474 0.55362 0.47909 0.0
C593 C 0.66277 0.58724 0.50423 0.0
C594 C 0.64786 0.57526 0.54976 0.0
C595 C 0.64681 0.55245 0.55936 0.0
C596 C 0.66002 0.54179 0.52466 0.0
C597 C 0.63237 0.58513 0.58716 0.0
C598 C 0.63466 0.60838 0.58907 0.0
C599 C 0.61907 0.61805 0.62657 0.0
C600 C 0.62796 0.6441 0.63577 0.0
C601 C 0.61394 0.65418 0.66949 0.0
C602 C 0.59044 0.63848 0.69496 0.0
H603 H 0.58724 0.58202 0.64477 0.0
C604 C 0.58141 0.61237 0.68574 0.0
C605 C 0.59542 0.60224 0.6518 0.0
H606 H 0.56319 0.59966 0.70387 0.0
H607 H 0.6871 0.58613 0.43458 0.0
H608 H 0.66388 0.60453 0.49406 0.0
H609 H 0.6355 0.54265 0.59378 0.0
H610 H 0.65845 0.52408 0.53335 0.0
H611 H 0.61899 0.57263 0.61554 0.0
H612 H 0.64927 0.62154 0.56361 0.0
H613 H 0.64598 0.65683 0.61695 0.0
H614 H 0.6218 0.67439 0.6761 0.0
C615 C 0.41595 0.94869 0.56591 0.0
C616 C 0.4296 0.93455 0.56898 0.0
C617 C 0.42639 0.96975 0.5366 0.0
C618 C 0.45093 0.97731 0.51008 0.0
C619 C 0.46451 0.96318 0.51344 0.0
C620 C 0.45408 0.94217 0.54256 0.0
C621 C 0.46276 0.99919 0.47706 0.0
C622 C 0.45607 1.01791 0.48226 0.0
C623 C 0.4686 0.04009 0.45032 0.0
C624 C 0.46714 0.06198 0.47208 0.0
C625 C 0.47849 0.08325 0.44382 0.0
C626 C 0.4915 0.08319 0.39259 0.0
H627 H 0.48219 0.02316 0.37915 0.0
C628 C 0.49259 0.06113 0.37013 0.0
C629 C 0.48126 0.03982 0.39853 0.0
H630 H 0.50242 0.06038 0.33081 0.0
H631 H 0.39686 0.94314 0.58492 0.0
H632 H 0.41479 0.97957 0.53388 0.0
H633 H 0.48339 0.96843 0.4935 0.0
H634 H 0.46536 0.932 0.54462 0.0
H635 H 0.4786 1.00035 0.44934 0.0
H636 H 0.44184 1.0179 0.51341 0.0
H637 H 0.45726 0.06272 0.51139 0.0
H638 H 0.47668 0.09962 0.46188 0.0
loop_
_geom_bond_atom_site_label_1
_geom_bond_atom_site_label_2
_geom_bond_distance
_geom_bond_site_symmetry_2
_ccdc_geom_bond_type
Cu0 N1 1.999 1_455 S
Cu0 O6 1.974 . S
Cu0 N11 1.985 . S
Cu0 O20 1.959 1_455 S
N1 Cu0 1.999 1_655 S
N1 C3 1.263 . S
N1 C5 1.389 . S
N2 C3 1.358 . S
N2 C4 1.400 . S
C3 N1 1.263 . S
C3 N2 1.358 . S
C3 H9 0.959 . S
C4 N2 1.400 . S
C4 C5 1.351 . S
C4 H21 0.930 . S
C5 N1 1.389 . S
C5 C4 1.351 . S
C5 H10 0.930 . S
O6 Cu0 1.974 . S
O6 C16 1.282 . S
C7 O8 1.261 . S
C7 O20 1.251 . S
O8 C7 1.261 . S
H9 C3 0.959 . S
H10 C5 0.930 . S
N11 Cu0 1.985 . S
N11 C13 1.335 . S
N11 C14 1.390 . S
N12 C13 1.345 . S
N12 C15 1.336 . S
C13 N11 1.335 . S
C13 N12 1.345 . S
C13 H18 0.930 . S
C14 N11 1.390 . S
C14 C15 1.346 . S
C14 H19 0.930 . S
C15 N12 1.336 . S
C15 C14 1.346 . S
C15 H22 0.929 . S
C16 O6 1.282 . S
C16 O17 1.216 . S
O17 C16 1.216 . S
H18 C13 0.930 . S
H19 C14 0.930 . S
O20 Cu0 1.959 1_655 S
O20 C7 1.251 . S
H21 C4 0.930 . S
H22 C15 0.929 . S
Cu23 N24 1.999 . S
Cu23 O29 1.974 . S
Cu23 N34 1.985 . S
Cu23 O43 1.959 . S
N24 Cu23 1.999 . S
N24 C26 1.263 . S
N24 C28 1.389 . S
N25 C26 1.358 . S
N25 C27 1.400 . S
C26 N24 1.263 . S
C26 N25 1.358 . S
C26 H32 0.930 . S
C27 N25 1.400 . S
C27 C28 1.351 . S
C27 H44 0.930 . S
C28 N24 1.389 . S
C28 C27 1.351 . S
C28 H33 0.930 . S
O29 Cu23 1.974 . S
O29 C39 1.282 . S
C30 O31 1.261 1_554 S
C30 O43 1.251 . S
O31 C30 1.261 1_556 S
H32 C26 0.930 . S
H33 C28 0.930 . S
N34 Cu23 1.985 . S
N34 C36 1.335 . S
N34 C37 1.390 . S
N35 C36 1.345 . S
N35 C38 1.336 . S
C36 N34 1.335 . S
C36 N35 1.345 . S
C36 H41 0.930 . S
C37 N34 1.390 . S
C37 C38 1.346 . S
C37 H42 0.930 . S
C38 N35 1.336 . S
C38 C37 1.346 . S
C38 H45 0.929 . S
C39 O29 1.282 . S
C39 O40 1.216 . S
O40 C39 1.216 . S
H41 C36 0.930 . S
H42 C37 0.930 . S
O43 Cu23 1.959 . S
O43 C30 1.251 . S
H44 C27 0.930 . S
H45 C38 0.929 . S
Cu46 N47 1.999 1_545 S
Cu46 O52 1.974 . S
Cu46 N57 1.985 . S
Cu46 O66 1.959 1_545 S
N47 Cu46 1.999 1_565 S
N47 C49 1.263 . S
N47 C51 1.389 1_554 S
N48 C49 1.362 . S
N48 C50 1.394 1_554 S
C49 N47 1.263 . S
C49 N48 1.362 . S
C49 H55 0.930 . S
C50 N48 1.394 1_556 S
C50 C51 1.351 . S
C50 H67 0.930 . S
C51 N47 1.389 1_556 S
C51 C50 1.351 . S
C51 H56 0.930 . S
O52 Cu46 1.974 . S
O52 C62 1.282 . S
C53 O54 1.261 . S
C53 O66 1.251 . S
O54 C53 1.261 . S
H55 C49 0.930 . S
H56 C51 0.930 . S
N57 Cu46 1.985 . S
N57 C59 1.335 . S
N57 C60 1.390 . S
N58 C59 1.345 . S
N58 C61 1.336 . S
C59 N57 1.335 . S
C59 N58 1.345 . S
C59 H64 0.930 . S
C60 N57 1.390 . S
C60 C61 1.346 . S
C60 H65 0.930 . S
C61 N58 1.336 . S
C61 C60 1.346 . S
C61 H68 0.929 . S
C62 O52 1.282 . S
C62 O63 1.216 . S
O63 C62 1.216 . S
H64 C59 0.930 . S
H65 C60 0.930 . S
O66 Cu46 1.959 1_565 S
O66 C53 1.251 . S
H67 C50 0.930 . S
H68 C61 0.929 . S
Cu69 N70 1.999 . S
Cu69 O75 1.974 . S
Cu69 N80 1.985 . S
Cu69 O89 1.959 . S
N70 Cu69 1.999 . S
N70 C72 1.263 . S
N70 C74 1.389 . S
N71 C72 1.358 . S
N71 C73 1.400 . S
C72 N70 1.263 . S
C72 N71 1.358 . S
C72 H78 0.930 . S
C73 N71 1.400 . S
C73 C74 1.351 . S
C73 H90 0.930 . S
C74 N70 1.389 . S
C74 C73 1.351 . S
C74 H79 0.930 . S
O75 Cu69 1.974 . S
O75 C85 1.282 . S
C76 O77 1.261 . S
C76 O89 1.251 . S
O77 C76 1.261 . S
H78 C72 0.930 . S
H79 C74 0.930 . S
N80 Cu69 1.985 . S
N80 C82 1.335 . S
N80 C83 1.390 . S
N81 C82 1.345 . S
N81 C84 1.336 . S
C82 N80 1.335 . S
C82 N81 1.345 . S
C82 H87 0.930 . S
C83 N80 1.390 . S
C83 C84 1.346 . S
C83 H88 0.930 . S
C84 N81 1.336 . S
C84 C83 1.346 . S
C84 H91 0.929 . S
C85 O75 1.282 . S
C85 O86 1.216 . S
O86 C85 1.216 . S
H87 C82 0.930 . S
H88 C83 0.930 . S
O89 Cu69 1.959 . S
O89 C76 1.251 . S
H90 C73 0.930 . S
H91 C84 0.929 . S
Cu92 N93 1.999 . S
Cu92 O98 1.974 . S
Cu92 N103 1.985 . S
Cu92 O112 1.959 . S
N93 Cu92 1.999 . S
N93 C95 1.263 . S
N93 C97 1.389 . S
N94 C95 1.358 . S
N94 C96 1.400 . S
C95 N93 1.263 . S
C95 N94 1.358 . S
C95 H101 0.930 . S
C96 N94 1.400 . S
C96 C97 1.351 . S
C96 H113 0.930 . S
C97 N93 1.389 . S
C97 C96 1.351 . S
C97 H102 0.930 . S
O98 Cu92 1.974 . S
O98 C108 1.282 . S
C99 O100 1.261 . S
C99 O112 1.251 . S
O100 C99 1.261 . S
H101 C95 0.930 . S
H102 C97 0.930 . S
N103 Cu92 1.985 . S
N103 C105 1.335 . S
N103 C106 1.390 . S
N104 C105 1.345 . S
N104 C107 1.336 . S
C105 N103 1.335 . S
C105 N104 1.345 . S
C105 H110 0.930 . S
C106 N103 1.390 . S
C106 C107 1.346 . S
C106 H111 0.930 . S
C107 N104 1.336 . S
C107 C106 1.346 . S
C107 H114 0.929 . S
C108 O98 1.282 . S
C108 O109 1.216 . S
O109 C108 1.216 . S
H110 C105 0.930 . S
H111 C106 0.930 . S
O112 Cu92 1.959 . S
O112 C99 1.251 . S
H113 C96 0.930 . S
H114 C107 0.929 . S
Cu115 N116 1.999 . S
Cu115 O121 1.974 . S
Cu115 N126 1.985 . S
Cu115 O135 1.959 . S
N116 Cu115 1.999 . S
N116 C118 1.263 . S
N116 C120 1.389 . S
N117 C118 1.358 . S
N117 C119 1.400 . S
C118 N116 1.263 . S
C118 N117 1.358 . S
C118 H124 0.930 . S
C119 N117 1.400 . S
C119 C120 1.351 . S
C119 H136 0.930 . S
C120 N116 1.389 . S
C120 C119 1.351 . S
C120 H125 0.930 . S
O121 Cu115 1.974 . S
O121 C131 1.282 . S
C122 O123 1.261 . S
C122 O135 1.251 . S
O123 C122 1.261 . S
H124 C118 0.930 . S
H125 C120 0.930 . S
N126 Cu115 1.985 . S
N126 C128 1.335 . S
N126 C129 1.390 . S
N127 C128 1.345 . S
N127 C130 1.336 . S
C128 N126 1.335 . S
C128 N127 1.345 . S
C128 H133 0.930 . S
C129 N126 1.390 . S
C129 C130 1.346 . S
C129 H134 0.930 . S
C130 N127 1.336 . S
C130 C129 1.346 . S
C130 H137 0.929 . S
C131 O121 1.282 . S
C131 O132 1.216 . S
O132 C131 1.216 . S
H133 C128 0.930 . S
H134 C129 0.930 . S
O135 Cu115 1.959 . S
O135 C122 1.251 . S
H136 C119 0.930 . S
H137 C130 0.929 . S
Cu138 N139 1.999 . S
Cu138 O144 1.974 . S
Cu138 N149 1.985 . S
Cu138 O158 1.959 . S
N139 Cu138 1.999 . S
N139 C141 1.263 . S
N139 C143 1.389 . S
N140 C141 1.358 . S
N140 C142 1.400 . S
C141 N139 1.263 . S
C141 N140 1.358 . S
C141 H147 0.930 . S
C142 N140 1.400 . S
C142 C143 1.351 . S
C142 H159 0.930 . S
C143 N139 1.389 . S
C143 C142 1.351 . S
C143 H148 0.930 . S
O144 Cu138 1.974 . S
O144 C154 1.282 . S
C145 O146 1.261 . S
C145 O158 1.251 . S
O146 C145 1.261 . S
H147 C141 0.930 . S
H148 C143 0.930 . S
N149 Cu138 1.985 . S
N149 C151 1.335 . S
N149 C152 1.390 . S
N150 C151 1.345 . S
N150 C153 1.336 . S
C151 N149 1.335 . S
C151 N150 1.345 . S
C151 H156 0.930 . S
C152 N149 1.390 . S
C152 C153 1.346 . S
C152 H157 0.930 . S
C153 N150 1.336 . S
C153 C152 1.346 . S
C153 H160 0.929 . S
C154 O144 1.282 . S
C154 O155 1.216 . S
O155 C154 1.216 . S
H156 C151 0.930 . S
H157 C152 0.930 . S
O158 Cu138 1.959 . S
O158 C145 1.251 . S
H159 C142 0.930 . S
H160 C153 0.929 . S
Cu161 N162 1.999 . S
Cu161 O167 1.974 . S
Cu161 N172 1.985 . S
Cu161 O181 1.959 . S
N162 Cu161 1.999 . S
N162 C164 1.263 . S
N162 C166 1.389 . S
N163 C164 1.358 . S
N163 C165 1.400 . S
C164 N162 1.263 . S
C164 N163 1.358 . S
C164 H170 0.930 . S
C165 N163 1.400 . S
C165 C166 1.351 . S
C165 H182 0.930 . S
C166 N162 1.389 . S
C166 C165 1.351 . S
C166 H171 0.930 . S
O167 Cu161 1.974 . S
O167 C177 1.282 . S
C168 O169 1.261 . S
C168 O181 1.251 . S
O169 C168 1.261 . S
H170 C164 0.930 . S
H171 C166 0.930 . S
N172 Cu161 1.985 . S
N172 C174 1.335 . S
N172 C175 1.390 . S
N173 C174 1.345 . S
N173 C176 1.336 . S
C174 N172 1.335 . S
C174 N173 1.345 . S
C174 H179 0.930 . S
C175 N172 1.390 . S
C175 C176 1.346 . S
C175 H180 0.930 . S
C176 N173 1.336 . S
C176 C175 1.346 . S
C176 H183 0.929 . S
C177 O167 1.282 . S
C177 O178 1.216 . S
O178 C177 1.216 . S
H179 C174 0.930 . S
H180 C175 0.930 . S
O181 Cu161 1.959 . S
O181 C168 1.251 . S
H182 C165 0.930 . S
H183 C176 0.929 . S
Cu184 N185 1.999 . S
Cu184 O190 1.974 . S
Cu184 N195 1.985 . S
Cu184 O204 1.959 . S
N185 Cu184 1.999 . S
N185 C187 1.263 . S
N185 C189 1.389 . S
N186 C187 1.358 . S
N186 C188 1.400 . S
C187 N185 1.263 . S
C187 N186 1.358 . S
C187 H193 0.930 . S
C188 N186 1.400 . S
C188 C189 1.351 . S
C188 H205 0.930 . S
C189 N185 1.389 . S
C189 C188 1.351 . S
C189 H194 0.930 . S
O190 Cu184 1.974 . S
O190 C200 1.282 . S
C191 O192 1.261 . S
C191 O204 1.251 . S
O192 C191 1.261 . S
H193 C187 0.930 . S
H194 C189 0.930 . S
N195 Cu184 1.985 . S
N195 C197 1.335 . S
N195 C198 1.390 . S
N196 C197 1.345 . S
N196 C199 1.336 . S
C197 N195 1.335 . S
C197 N196 1.345 . S
C197 H202 0.930 . S
C198 N195 1.390 . S
C198 C199 1.346 . S
C198 H203 0.930 . S
C199 N196 1.336 . S
C199 C198 1.346 . S
C199 H206 0.929 . S
C200 O190 1.282 . S
C200 O201 1.216 . S
O201 C200 1.216 . S
H202 C197 0.930 . S
H203 C198 0.930 . S
O204 Cu184 1.959 . S
O204 C191 1.251 . S
H205 C188 0.930 . S
H206 C199 0.929 . S
C207 C208 1.386 . S
C207 C209 1.383 . S
C207 H223 0.951 . S
C208 C207 1.386 . S
C208 C212 1.383 . S
C209 C207 1.383 . S
C209 C210 1.402 . S
C209 H224 0.951 . S
C210 C209 1.402 . S
C210 C211 1.375 . S
C210 C213 1.481 . S
C211 C210 1.375 . S
C211 C212 1.367 . S
C211 H225 0.951 . S
C212 C208 1.383 . S
C212 C211 1.367 . S
C212 H226 0.950 . S
C213 C210 1.481 . S
C213 C214 1.297 . S
C213 H227 0.950 . S
C214 C213 1.297 . S
C214 C215 1.479 . S
C214 H228 0.950 . S
C215 C214 1.479 . S
C215 C216 1.375 . S
C215 C221 1.404 . S
C216 C215 1.375 . S
C216 C217 1.369 . S
C216 H229 0.950 . S
C217 C216 1.369 . S
C217 C218 1.392 . S
C217 H230 0.951 . S
C218 C217 1.392 . S
C218 C220 1.384 . S
H219 C221 0.949 . S
C220 C218 1.384 . S
C220 C221 1.385 . S
C220 H222 0.950 . S
C221 C215 1.404 . S
C221 H219 0.949 . S
C221 C220 1.385 . S
H222 C220 0.950 . S
H223 C207 0.951 . S
H224 C209 0.951 . S
H225 C211 0.951 . S
H226 C212 0.950 . S
H227 C213 0.950 . S
H228 C214 0.950 . S
H229 C216 0.950 . S
H230 C217 0.951 . S
C231 C232 1.392 . S
C231 C233 1.384 . S
C231 H247 0.943 1_554 S
C232 C231 1.392 . S
C232 C236 1.383 . S
C233 C231 1.384 . S
C233 C234 1.402 . S
C233 H248 0.951 1_554 S
C234 C233 1.402 . S
C234 C235 1.375 . S
C234 C237 1.481 1_565 S
C235 C234 1.375 . S
C235 C236 1.367 . S
C235 H249 0.951 . S
C236 C232 1.383 . S
C236 C235 1.367 . S
C236 H250 0.950 . S
C237 C234 1.481 1_545 S
C237 C238 1.297 . S
C237 H251 0.950 . S
C238 C237 1.297 . S
C238 C239 1.479 . S
C238 H252 0.950 . S
C239 C238 1.479 . S
C239 C240 1.375 . S
C239 C245 1.404 . S
C240 C239 1.375 . S
C240 C241 1.369 . S
C240 H253 0.950 1_554 S
C241 C240 1.369 . S
C241 C242 1.392 . S
C241 H254 0.951 . S
C242 C241 1.392 . S
C242 C244 1.384 . S
H243 C245 0.949 . S
C244 C242 1.384 . S
C244 C245 1.385 . S
C244 H246 0.950 . S
C245 C239 1.404 . S
C245 H243 0.949 . S
C245 C244 1.385 . S
H246 C244 0.950 . S
H247 C231 0.943 1_556 S
H248 C233 0.951 1_556 S
H249 C235 0.951 . S
H250 C236 0.950 . S
H251 C237 0.950 . S
H252 C238 0.950 . S
H253 C240 0.950 1_556 S
H254 C241 0.951 . S
C255 C256 1.386 . S
C255 C257 1.383 . S
C255 H271 0.951 . S
C256 C255 1.386 . S
C256 C260 1.383 . S
C257 C255 1.383 . S
C257 C258 1.402 . S
C257 H272 0.951 . S
C258 C257 1.402 . S
C258 C259 1.375 . S
C258 C261 1.481 1_655 S
C259 C258 1.375 . S
C259 C260 1.367 . S
C259 H273 0.951 . S
C260 C256 1.383 . S
C260 C259 1.367 . S
C260 H274 0.950 . S
C261 C258 1.481 1_455 S
C261 C262 1.297 . S
C261 H275 0.950 . S
C262 C261 1.297 . S
C262 C263 1.479 . S
C262 H276 0.950 . S
C263 C262 1.479 . S
C263 C264 1.375 . S
C263 C269 1.404 . S
C264 C263 1.375 . S
C264 C265 1.369 . S
C264 H277 0.950 . S
C265 C264 1.369 . S
C265 C266 1.392 . S
C265 H278 0.951 . S
C266 C265 1.392 . S
C266 C268 1.384 . S
H267 C269 0.949 . S
C268 C266 1.384 . S
C268 C269 1.385 . S
C268 H270 0.950 . S
C269 C263 1.404 . S
C269 H267 0.949 . S
C269 C268 1.385 . S
H270 C268 0.950 . S
H271 C255 0.951 . S
H272 C257 0.951 . S
H273 C259 0.951 . S
H274 C260 0.950 . S
H275 C261 0.950 . S
H276 C262 0.950 . S
H277 C264 0.950 . S
H278 C265 0.951 . S
C279 C280 1.386 . S
C279 C281 1.383 . S
C279 H295 0.951 . S
C280 C279 1.386 . S
C280 C284 1.383 . S
C281 C279 1.383 . S
C281 C282 1.402 . S
C281 H296 0.951 . S
C282 C281 1.402 . S
C282 C283 1.375 . S
C282 C285 1.481 . S
C283 C282 1.375 . S
C283 C284 1.367 . S
C283 H297 0.951 . S
C284 C280 1.383 . S
C284 C283 1.367 . S
C284 H298 0.950 . S
C285 C282 1.481 . S
C285 C286 1.297 . S
C285 H299 0.950 . S
C286 C285 1.297 . S
C286 C287 1.479 . S
C286 H300 0.950 . S
C287 C286 1.479 . S
C287 C288 1.375 . S
C287 C293 1.404 . S
C288 C287 1.375 . S
C288 C289 1.369 . S
C288 H301 0.950 . S
C289 C288 1.369 . S
C289 C290 1.392 . S
C289 H302 0.951 . S
C290 C289 1.392 . S
C290 C292 1.384 . S
H291 C293 0.949 . S
C292 C290 1.384 . S
C292 C293 1.385 . S
C292 H294 0.950 . S
C293 C287 1.404 . S
C293 H291 0.949 . S
C293 C292 1.385 . S
H294 C292 0.950 . S
H295 C279 0.951 . S
H296 C281 0.951 . S
H297 C283 0.951 . S
H298 C284 0.950 . S
H299 C285 0.950 . S
H300 C286 0.950 . S
H301 C288 0.950 . S
H302 C289 0.951 . S
C303 C304 1.386 . S
C303 C305 1.383 . S
C303 H319 0.951 . S
C304 C303 1.386 . S
C304 C308 1.383 . S
C305 C303 1.383 . S
C305 C306 1.402 . S
C305 H320 0.951 . S
C306 C305 1.402 . S
C306 C307 1.375 . S
C306 C309 1.481 . S
C307 C306 1.375 . S
C307 C308 1.367 . S
C307 H321 0.951 . S
C308 C304 1.383 . S
C308 C307 1.367 . S
C308 H322 0.950 . S
C309 C306 1.481 . S
C309 C310 1.297 . S
C309 H323 0.950 . S
C310 C309 1.297 . S
C310 C311 1.479 . S
C310 H324 0.950 . S
C311 C310 1.479 . S
C311 C312 1.375 . S
C311 C317 1.404 . S
C312 C311 1.375 . S
C312 C313 1.369 . S
C312 H325 0.950 . S
C313 C312 1.369 . S
C313 C314 1.392 . S
C313 H326 0.951 . S
C314 C313 1.392 . S
C314 C316 1.384 . S
H315 C317 0.949 . S
C316 C314 1.384 . S
C316 C317 1.385 . S
C316 H318 0.950 . S
C317 C311 1.404 . S
C317 H315 0.949 . S
C317 C316 1.385 . S
H318 C316 0.950 . S
H319 C303 0.951 . S
H320 C305 0.951 . S
H321 C307 0.951 . S
H322 C308 0.950 . S
H323 C309 0.950 . S
H324 C310 0.950 . S
H325 C312 0.950 . S
H326 C313 0.951 . S
C327 C328 1.386 . S
C327 C329 1.383 . S
C327 H343 0.951 . S
C328 C327 1.386 . S
C328 C332 1.383 . S
C329 C327 1.383 . S
C329 C330 1.402 . S
C329 H344 0.951 . S
C330 C329 1.402 . S
C330 C331 1.375 . S
C330 C333 1.481 . S
C331 C330 1.375 . S
C331 C332 1.367 . S
C331 H345 0.951 . S
C332 C328 1.383 . S
C332 C331 1.367 . S
C332 H346 0.950 . S
C333 C330 1.481 . S
C333 C334 1.297 . S
C333 H347 0.950 . S
C334 C333 1.297 . S
C334 C335 1.479 . S
C334 H348 0.950 . S
C335 C334 1.479 . S
C335 C336 1.375 . S
C335 C341 1.404 . S
C336 C335 1.375 . S
C336 C337 1.369 . S
C336 H349 0.950 . S
C337 C336 1.369 . S
C337 C338 1.392 . S
C337 H350 0.951 . S
C338 C337 1.392 . S
C338 C340 1.384 . S
H339 C341 0.949 . S
C340 C338 1.384 . S
C340 C341 1.385 . S
C340 H342 0.950 . S
C341 C335 1.404 . S
C341 H339 0.949 . S
C341 C340 1.385 . S
H342 C340 0.950 . S
H343 C327 0.951 . S
H344 C329 0.951 . S
H345 C331 0.951 . S
H346 C332 0.950 . S
H347 C333 0.950 . S
H348 C334 0.950 . S
H349 C336 0.950 . S
H350 C337 0.951 . S
C351 C352 1.386 . S
C351 C353 1.383 . S
C351 H367 0.951 . S
C352 C351 1.386 . S
C352 C356 1.383 . S
C353 C351 1.383 . S
C353 C354 1.402 . S
C353 H368 0.951 . S
C354 C353 1.402 . S
C354 C355 1.375 . S
C354 C357 1.481 . S
C355 C354 1.375 . S
C355 C356 1.367 . S
C355 H369 0.951 . S
C356 C352 1.383 . S
C356 C355 1.367 . S
C356 H370 0.950 . S
C357 C354 1.481 . S
C357 C358 1.297 . S
C357 H371 0.950 . S
C358 C357 1.297 . S
C358 C359 1.479 . S
C358 H372 0.950 . S
C359 C358 1.479 . S
C359 C360 1.375 . S
C359 C365 1.404 . S
C360 C359 1.375 . S
C360 C361 1.369 . S
C360 H373 0.950 . S
C361 C360 1.369 . S
C361 C362 1.392 . S
C361 H374 0.951 . S
C362 C361 1.392 . S
C362 C364 1.384 . S
H363 C365 0.949 . S
C364 C362 1.384 . S
C364 C365 1.385 . S
C364 H366 0.950 . S
C365 C359 1.404 . S
C365 H363 0.949 . S
C365 C364 1.385 . S
H366 C364 0.950 . S
H367 C351 0.951 . S
H368 C353 0.951 . S
H369 C355 0.951 . S
H370 C356 0.950 . S
H371 C357 0.950 . S
H372 C358 0.950 . S
H373 C360 0.950 . S
H374 C361 0.951 . S
C375 C376 1.386 . S
C375 C377 1.383 . S
C375 H391 0.951 . S
C376 C375 1.386 . S
C376 C380 1.383 . S
C377 C375 1.383 . S
C377 C378 1.402 . S
C377 H392 0.951 . S
C378 C377 1.402 . S
C378 C379 1.375 . S
C378 C381 1.481 . S
C379 C378 1.375 . S
C379 C380 1.367 . S
C379 H393 0.951 . S
C380 C376 1.383 . S
C380 C379 1.367 . S
C380 H394 0.950 . S
C381 C378 1.481 . S
C381 C382 1.297 . S
C381 H395 0.950 . S
C382 C381 1.297 . S
C382 C383 1.479 . S
C382 H396 0.950 . S
C383 C382 1.479 . S
C383 C384 1.375 . S
C383 C389 1.404 . S
C384 C383 1.375 . S
C384 C385 1.369 . S
C384 H397 0.950 . S
C385 C384 1.369 . S
C385 C386 1.392 . S
C385 H398 0.951 . S
C386 C385 1.392 . S
C386 C388 1.384 . S
H387 C389 0.949 . S
C388 C386 1.384 . S
C388 C389 1.385 . S
C388 H390 0.950 . S
C389 C383 1.404 . S
C389 H387 0.949 . S
C389 C388 1.385 . S
H390 C388 0.950 . S
H391 C375 0.951 . S
H392 C377 0.951 . S
H393 C379 0.951 . S
H394 C380 0.950 . S
H395 C381 0.950 . S
H396 C382 0.950 . S
H397 C384 0.950 . S
H398 C385 0.951 . S
C399 C400 1.386 . S
C399 C401 1.383 . S
C399 H415 0.951 . S
C400 C399 1.386 . S
C400 C404 1.383 . S
C401 C399 1.383 . S
C401 C402 1.402 . S
C401 H416 0.951 . S
C402 C401 1.402 . S
C402 C403 1.375 . S
C402 C405 1.481 . S
C403 C402 1.375 . S
C403 C404 1.367 . S
C403 H417 0.951 . S
C404 C400 1.383 . S
C404 C403 1.367 . S
C404 H418 0.950 . S
C405 C402 1.481 . S
C405 C406 1.297 . S
C405 H419 0.950 . S
C406 C405 1.297 . S
C406 C407 1.479 . S
C406 H420 0.950 . S
C407 C406 1.479 . S
C407 C408 1.375 . S
C407 C413 1.404 . S
C408 C407 1.375 . S
C408 C409 1.369 . S
C408 H421 0.950 . S
C409 C408 1.369 . S
C409 C410 1.392 . S
C409 H422 0.951 . S
C410 C409 1.392 . S
C410 C412 1.384 . S
H411 C413 0.949 . S
C412 C410 1.384 . S
C412 C413 1.385 . S
C412 H414 0.950 . S
C413 C407 1.404 . S
C413 H411 0.949 . S
C413 C412 1.385 . S
H414 C412 0.950 . S
H415 C399 0.951 . S
H416 C401 0.951 . S
H417 C403 0.951 . S
H418 C404 0.950 . S
H419 C405 0.950 . S
H420 C406 0.950 . S
H421 C408 0.950 . S
H422 C409 0.951 . S
C423 C424 1.386 . S
C423 C425 1.383 . S
C423 H439 0.951 . S
C424 C423 1.386 . S
C424 C428 1.383 . S
C425 C423 1.383 . S
C425 C426 1.402 . S
C425 H440 0.951 . S
C426 C425 1.402 . S
C426 C427 1.375 . S
C426 C429 1.481 . S
C427 C426 1.375 . S
C427 C428 1.367 . S
C427 H441 0.951 . S
C428 C424 1.383 . S
C428 C427 1.367 . S
C428 H442 0.950 . S
C429 C426 1.481 . S
C429 C430 1.297 . S
C429 H443 0.950 . S
C430 C429 1.297 . S
C430 C431 1.479 . S
C430 H444 0.950 . S
C431 C430 1.479 . S
C431 C432 1.375 . S
C431 C437 1.404 . S
C432 C431 1.375 . S
C432 C433 1.369 . S
C432 H445 0.950 . S
C433 C432 1.369 . S
C433 C434 1.392 . S
C433 H446 0.951 . S
C434 C433 1.392 . S
C434 C436 1.384 . S
H435 C437 0.949 . S
C436 C434 1.384 . S
C436 C437 1.385 . S
C436 H438 0.950 . S
C437 C431 1.404 . S
C437 H435 0.949 . S
C437 C436 1.385 . S
H438 C436 0.950 . S
H439 C423 0.951 . S
H440 C425 0.951 . S
H441 C427 0.951 . S
H442 C428 0.950 . S
H443 C429 0.950 . S
H444 C430 0.950 . S
H445 C432 0.950 . S
H446 C433 0.951 . S
C447 C448 1.381 1_554 S
C447 C449 1.372 1_554 S
C447 H463 0.966 . S
C448 C447 1.381 1_556 S
C448 C452 1.383 . S
C449 C447 1.372 1_556 S
C449 C450 1.402 . S
C449 H464 0.951 . S
C450 C449 1.402 . S
C450 C451 1.375 . S
C450 C453 1.481 . S
C451 C450 1.375 . S
C451 C452 1.367 . S
C451 H465 0.951 . S
C452 C448 1.383 . S
C452 C451 1.367 . S
C452 H466 0.950 . S
C453 C450 1.481 . S
C453 C454 1.297 . S
C453 H467 0.950 . S
C454 C453 1.297 . S
C454 C455 1.479 . S
C454 H468 0.950 . S
C455 C454 1.479 . S
C455 C456 1.375 . S
C455 C461 1.404 . S
C456 C455 1.375 . S
C456 C457 1.369 . S
C456 H469 0.950 . S
C457 C456 1.369 . S
C457 C458 1.392 . S
C457 H470 0.951 . S
C458 C457 1.392 . S
C458 C460 1.384 . S
H459 C461 0.949 . S
C460 C458 1.384 . S
C460 C461 1.385 . S
C460 H462 0.950 . S
C461 C455 1.404 . S
C461 H459 0.949 . S
C461 C460 1.385 . S
H462 C460 0.950 . S
H463 C447 0.966 . S
H464 C449 0.951 . S
H465 C451 0.951 . S
H466 C452 0.950 . S
H467 C453 0.950 . S
H468 C454 0.950 . S
H469 C456 0.950 . S
H470 C457 0.951 . S
C471 C472 1.386 . S
C471 C473 1.383 . S
C471 H487 0.951 . S
C472 C471 1.386 . S
C472 C476 1.383 . S
C473 C471 1.383 . S
C473 C474 1.402 . S
C473 H488 0.951 . S
C474 C473 1.402 . S
C474 C475 1.375 . S
C474 C477 1.481 . S
C475 C474 1.375 . S
C475 C476 1.367 . S
C475 H489 0.951 . S
C476 C472 1.383 . S
C476 C475 1.367 . S
C476 H490 0.950 . S
C477 C474 1.481 . S
C477 C478 1.297 . S
C477 H491 0.950 . S
C478 C477 1.297 . S
C478 C479 1.479 . S
C478 H492 0.950 . S
C479 C478 1.479 . S
C479 C480 1.375 . S
C479 C485 1.404 . S
C480 C479 1.375 . S
C480 C481 1.369 1_556 S
C480 H493 0.950 1_556 S
C481 C480 1.369 1_554 S
C481 C482 1.392 1_554 S
C481 H494 0.951 . S
C482 C481 1.392 1_556 S
C482 C484 1.384 . S
H483 C485 0.949 . S
C484 C482 1.384 . S
C484 C485 1.385 . S
C484 H486 0.950 . S
C485 C479 1.404 . S
C485 H483 0.949 . S
C485 C484 1.385 . S
H486 C484 0.950 . S
H487 C471 0.951 . S
H488 C473 0.951 . S
H489 C475 0.951 . S
H490 C476 0.950 . S
H491 C477 0.950 . S
H492 C478 0.950 . S
H493 C480 0.950 1_554 S
H494 C481 0.951 . S
C495 C496 1.386 . S
C495 C497 1.383 . S
C495 H511 0.951 . S
C496 C495 1.386 . S
C496 C500 1.383 . S
C497 C495 1.383 . S
C497 C498 1.402 . S
C497 H512 0.951 . S
C498 C497 1.402 . S
C498 C499 1.375 . S
C498 C501 1.481 . S
C499 C498 1.375 . S
C499 C500 1.367 . S
C499 H513 0.951 . S
C500 C496 1.383 . S
C500 C499 1.367 . S
C500 H514 0.950 . S
C501 C498 1.481 . S
C501 C502 1.297 . S
C501 H515 0.950 . S
C502 C501 1.297 . S
C502 C503 1.479 . S
C502 H516 0.950 . S
C503 C502 1.479 . S
C503 C504 1.375 . S
C503 C509 1.404 . S
C504 C503 1.375 . S
C504 C505 1.369 . S
C504 H517 0.950 . S
C505 C504 1.369 . S
C505 C506 1.392 . S
C505 H518 0.951 . S
C506 C505 1.392 . S
C506 C508 1.384 . S
H507 C509 0.949 . S
C508 C506 1.384 . S
C508 C509 1.385 . S
C508 H510 0.950 . S
C509 C503 1.404 . S
C509 H507 0.949 . S
C509 C508 1.385 . S
H510 C508 0.950 . S
H511 C495 0.951 . S
H512 C497 0.951 . S
H513 C499 0.951 . S
H514 C500 0.950 . S
H515 C501 0.950 . S
H516 C502 0.950 . S
H517 C504 0.950 . S
H518 C505 0.951 . S
C519 C520 1.386 . S
C519 C521 1.383 . S
C519 H535 0.951 . S
C520 C519 1.386 . S
C520 C524 1.383 . S
C521 C519 1.383 . S
C521 C522 1.402 . S
C521 H536 0.951 . S
C522 C521 1.402 . S
C522 C523 1.375 . S
C522 C525 1.481 . S
C523 C522 1.375 . S
C523 C524 1.367 . S
C523 H537 0.951 . S
C524 C520 1.383 . S
C524 C523 1.367 . S
C524 H538 0.950 . S
C525 C522 1.481 . S
C525 C526 1.297 . S
C525 H539 0.950 . S
C526 C525 1.297 . S
C526 C527 1.479 . S
C526 H540 0.950 . S
C527 C526 1.479 . S
C527 C528 1.375 . S
C527 C533 1.404 . S
C528 C527 1.375 . S
C528 C529 1.369 . S
C528 H541 0.950 . S
C529 C528 1.369 . S
C529 C530 1.392 . S
C529 H542 0.951 . S
C530 C529 1.392 . S
C530 C532 1.384 . S
H531 C533 0.949 . S
C532 C530 1.384 . S
C532 C533 1.385 . S
C532 H534 0.950 . S
C533 C527 1.404 . S
C533 H531 0.949 . S
C533 C532 1.385 . S
H534 C532 0.950 . S
H535 C519 0.951 . S
H536 C521 0.951 . S
H537 C523 0.951 . S
H538 C524 0.950 . S
H539 C525 0.950 . S
H540 C526 0.950 . S
H541 C528 0.950 . S
H542 C529 0.951 . S
C543 C544 1.386 . S
C543 C545 1.383 . S
C543 H559 0.951 . S
C544 C543 1.386 . S
C544 C548 1.383 . S
C545 C543 1.383 . S
C545 C546 1.402 . S
C545 H560 0.951 . S
C546 C545 1.402 . S
C546 C547 1.375 . S
C546 C549 1.481 . S
C547 C546 1.375 . S
C547 C548 1.367 . S
C547 H561 0.951 . S
C548 C544 1.383 . S
C548 C547 1.367 . S
C548 H562 0.950 . S
C549 C546 1.481 . S
C549 C550 1.297 . S
C549 H563 0.950 . S
C550 C549 1.297 . S
C550 C551 1.479 . S
C550 H564 0.950 . S
C551 C550 1.479 . S
C551 C552 1.375 . S
C551 C557 1.404 . S
C552 C551 1.375 . S
C552 C553 1.369 . S
C552 H565 0.950 . S
C553 C552 1.369 . S
C553 C554 1.392 . S
C553 H566 0.951 . S
C554 C553 1.392 . S
C554 C556 1.384 . S
H555 C557 0.949 . S
C556 C554 1.384 . S
C556 C557 1.385 . S
C556 H558 0.950 . S
C557 C551 1.404 . S
C557 H555 0.949 . S
C557 C556 1.385 . S
H558 C556 0.950 . S
H559 C543 0.951 . S
H560 C545 0.951 . S
H561 C547 0.951 . S
H562 C548 0.950 . S
H563 C549 0.950 . S
H564 C550 0.950 . S
H565 C552 0.950 . S
H566 C553 0.951 . S
C567 C568 1.386 . S
C567 C569 1.383 . S
C567 H583 0.951 . S
C568 C567 1.386 . S
C568 C572 1.383 . S
C569 C567 1.383 . S
C569 C570 1.402 . S
C569 H584 0.951 . S
C570 C569 1.402 . S
C570 C571 1.375 . S
C570 C573 1.481 . S
C571 C570 1.375 . S
C571 C572 1.367 . S
C571 H585 0.951 . S
C572 C568 1.383 . S
C572 C571 1.367 . S
C572 H586 0.950 . S
C573 C570 1.481 . S
C573 C574 1.297 . S
C573 H587 0.950 . S
C574 C573 1.297 . S
C574 C575 1.505 . S
C574 H588 0.950 . S
C575 C574 1.505 . S
C575 C576 1.365 1_455 S
C575 C581 1.391 1_455 S
C576 C575 1.365 1_655 S
C576 C577 1.369 . S
C576 H589 0.950 . S
C577 C576 1.369 . S
C577 C578 1.392 . S
C577 H590 0.951 . S
C578 C577 1.392 . S
C578 C580 1.384 . S
H579 C581 0.949 1_455 S
C580 C578 1.384 . S
C580 C581 1.385 . S
C580 H582 0.950 . S
C581 C575 1.391 1_655 S
C581 H579 0.949 1_655 S
C581 C580 1.385 . S
H582 C580 0.950 . S
H583 C567 0.951 . S
H584 C569 0.951 . S
H585 C571 0.951 . S
H586 C572 0.950 . S
H587 C573 0.950 . S
H588 C574 0.950 . S
H589 C576 0.950 . S
H590 C577 0.951 . S
C591 C592 1.386 . S
C591 C593 1.383 . S
C591 H607 0.951 . S
C592 C591 1.386 . S
C592 C596 1.383 . S
C593 C591 1.383 . S
C593 C594 1.402 . S
C593 H608 0.951 . S
C594 C593 1.402 . S
C594 C595 1.375 . S
C594 C597 1.481 . S
C595 C594 1.375 . S
C595 C596 1.367 . S
C595 H609 0.951 . S
C596 C592 1.383 . S
C596 C595 1.367 . S
C596 H610 0.950 . S
C597 C594 1.481 . S
C597 C598 1.297 . S
C597 H611 0.950 . S
C598 C597 1.297 . S
C598 C599 1.479 . S
C598 H612 0.950 . S
C599 C598 1.479 . S
C599 C600 1.375 . S
C599 C605 1.404 . S
C600 C599 1.375 . S
C600 C601 1.369 . S
C600 H613 0.950 . S
C601 C600 1.369 . S
C601 C602 1.392 . S
C601 H614 0.951 . S
C602 C601 1.392 . S
C602 C604 1.384 . S
H603 C605 0.949 . S
C604 C602 1.384 . S
C604 C605 1.385 . S
C604 H606 0.950 . S
C605 C599 1.404 . S
C605 H603 0.949 . S
C605 C604 1.385 . S
H606 C604 0.950 . S
H607 C591 0.951 . S
H608 C593 0.951 . S
H609 C595 0.951 . S
H610 C596 0.950 . S
H611 C597 0.950 . S
H612 C598 0.950 . S
H613 C600 0.950 . S
H614 C601 0.951 . S
C615 C616 1.386 . S
C615 C617 1.383 . S
C615 H631 0.951 . S
C616 C615 1.386 . S
C616 C620 1.383 . S
C617 C615 1.383 . S
C617 C618 1.402 . S
C617 H632 0.951 . S
C618 C617 1.402 . S
C618 C619 1.375 . S
C618 C621 1.481 1_565 S
C619 C618 1.375 . S
C619 C620 1.367 . S
C619 H633 0.951 . S
C620 C616 1.383 . S
C620 C619 1.367 . S
C620 H634 0.950 . S
C621 C618 1.481 1_545 S
C621 C622 1.297 . S
C621 H635 0.950 . S
C622 C621 1.297 . S
C622 C623 1.479 . S
C622 H636 0.950 . S
C623 C622 1.479 . S
C623 C624 1.375 . S
C623 C629 1.404 . S
C624 C623 1.375 . S
C624 C625 1.369 . S
C624 H637 0.950 . S
C625 C624 1.369 . S
C625 C626 1.392 . S
C625 H638 0.951 . S
C626 C625 1.392 . S
C626 C628 1.384 . S
H627 C629 0.949 . S
C628 C626 1.384 . S
C628 C629 1.385 . S
C628 H630 0.950 . S
C629 C623 1.404 . S
C629 H627 0.949 . S
C629 C628 1.385 . S
H630 C628 0.950 . S
H631 C615 0.951 . S
H632 C617 0.951 . S
H633 C619 0.951 . S
H634 C620 0.950 . S
H635 C621 0.950 . S
H636 C622 0.950 . S
H637 C624 0.950 . S
H638 C625 0.951 . S
C208 N58 1.272 . S
C218 C16 1.217 . S
C232 N25 1.162 . S
C242 N2 1.197 . S
C256 C39 1.478 . S
C266 C53 1.458 . S
C280 C122 1.548 . S
C290 C85 1.464 . S
C304 N94 1.096 . S
C314 N71 1.052 . S
C328 C108 1.330 . S
C338 N127 1.350 . S
C352 C154 1.296 . S
C362 N196 1.315 . S
C376 N140 1.088 . S
C386 N163 1.056 . S
C400 C177 1.553 . S
C410 C191 1.551 . S
C424 N12 1.505 1_556 S
C434 N173 1.505 . S
C448 C30 1.554 1_556 S
C458 C200 1.560 . S
C472 C145 1.532 . S
C482 N48 1.446 1_556 S
C496 C99 1.492 . S
C506 C62 1.420 . S
C520 C7 1.537 . S
C530 C131 1.468 . S
C544 N81 1.546 . S
C554 N35 1.524 . S
C568 C168 1.560 . S
C578 N117 1.416 . S
C592 C76 1.582 . S
C602 N186 1.437 . S
C616 N150 1.479 . S
C626 N104 1.453 . S
