# Generated by pormake.
# Topology zfy, (5)-cn, num edge types: 1
# Building blocks:
#     Node 0, Type 0, BuildingBlock: XOMCOT_clean_sbu_1, # of connection points: 5
#     Node 1, Type 0, BuildingBlock: XOMCOT_clean_sbu_1, # of connection points: 5
#     Node 2, Type 0, BuildingBlock: XOMCOT_clean_sbu_1, # of connection points: 5
#     Node 3, Type 0, BuildingBlock: XOMCOT_clean_sbu_1, # of connection points: 5
#     Node 4, Type 0, BuildingBlock: XOMCOT_clean_sbu_1, # of connection points: 5
#     Node 5, Type 0, BuildingBlock: XOMCOT_clean_sbu_1, # of connection points: 5
#     Node 6, Type 0, BuildingBlock: XOMCOT_clean_sbu_1, # of connection points: 5
#     Node 7, Type 0, BuildingBlock: XOMCOT_clean_sbu_1, # of connection points: 5
#     Node 8, Type 0, BuildingBlock: XOMCOT_clean_sbu_1, # of connection points: 5
#     Node 9, Type 0, BuildingBlock: XOMCOT_clean_sbu_1, # of connection points: 5
#     Node 10, Type 0, BuildingBlock: XOMCOT_clean_sbu_1, # of connection points: 5
#     Node 11, Type 0, BuildingBlock: XOMCOT_clean_sbu_1, # of connection points: 5
#     Node 12, Type 0, BuildingBlock: XOMCOT_clean_sbu_1, # of connection points: 5
#     Node 13, Type 0, BuildingBlock: XOMCOT_clean_sbu_1, # of connection points: 5
#     Node 14, Type 0, BuildingBlock: XOMCOT_clean_sbu_1, # of connection points: 5
#     Node 15, Type 0, BuildingBlock: XOMCOT_clean_sbu_1, # of connection points: 5
#     Edge 16, Type (0, 0), BuildingBlock: AJUNOK_clean_linker_0, # of connection points: 2
#     Edge 17, Type (0, 0), BuildingBlock: AJUNOK_clean_linker_0, # of connection points: 2
#     Edge 18, Type (0, 0), BuildingBlock: AJUNOK_clean_linker_0, # of connection points: 2
#     Edge 19, Type (0, 0), BuildingBlock: AJUNOK_clean_linker_0, # of connection points: 2
#     Edge 20, Type (0, 0), BuildingBlock: AJUNOK_clean_linker_0, # of connection points: 2
#     Edge 21, Type (0, 0), BuildingBlock: AJUNOK_clean_linker_0, # of connection points: 2
#     Edge 22, Type (0, 0), BuildingBlock: AJUNOK_clean_linker_0, # of connection points: 2
#     Edge 23, Type (0, 0), BuildingBlock: AJUNOK_clean_linker_0, # of connection points: 2
#     Edge 24, Type (0, 0), BuildingBlock: AJUNOK_clean_linker_0, # of connection points: 2
#     Edge 25, Type (0, 0), BuildingBlock: AJUNOK_clean_linker_0, # of connection points: 2
#     Edge 26, Type (0, 0), BuildingBlock: AJUNOK_clean_linker_0, # of connection points: 2
#     Edge 27, Type (0, 0), BuildingBlock: AJUNOK_clean_linker_0, # of connection points: 2
#     Edge 28, Type (0, 0), BuildingBlock: AJUNOK_clean_linker_0, # of connection points: 2
#     Edge 29, Type (0, 0), BuildingBlock: AJUNOK_clean_linker_0, # of connection points: 2
#     Edge 30, Type (0, 0), BuildingBlock: AJUNOK_clean_linker_0, # of connection points: 2
#     Edge 31, Type (0, 0), BuildingBlock: AJUNOK_clean_linker_0, # of connection points: 2
#     Edge 32, Type (0, 0), BuildingBlock: AJUNOK_clean_linker_0, # of connection points: 2
#     Edge 33, Type (0, 0), BuildingBlock: AJUNOK_clean_linker_0, # of connection points: 2
#     Edge 34, Type (0, 0), BuildingBlock: AJUNOK_clean_linker_0, # of connection points: 2
#     Edge 35, Type (0, 0), BuildingBlock: AJUNOK_clean_linker_0, # of connection points: 2
#     Edge 36, Type (0, 0), BuildingBlock: AJUNOK_clean_linker_0, # of connection points: 2
#     Edge 37, Type (0, 0), BuildingBlock: AJUNOK_clean_linker_0, # of connection points: 2
#     Edge 38, Type (0, 0), BuildingBlock: AJUNOK_clean_linker_0, # of connection points: 2
#     Edge 39, Type (0, 0), BuildingBlock: AJUNOK_clean_linker_0, # of connection points: 2
#     Edge 40, Type (0, 0), BuildingBlock: AJUNOK_clean_linker_0, # of connection points: 2
#     Edge 41, Type (0, 0), BuildingBlock: AJUNOK_clean_linker_0, # of connection points: 2
#     Edge 42, Type (0, 0), BuildingBlock: AJUNOK_clean_linker_0, # of connection points: 2
#     Edge 43, Type (0, 0), BuildingBlock: AJUNOK_clean_linker_0, # of connection points: 2
#     Edge 44, Type (0, 0), BuildingBlock: AJUNOK_clean_linker_0, # of connection points: 2
#     Edge 45, Type (0, 0), BuildingBlock: AJUNOK_clean_linker_0, # of connection points: 2
#     Edge 46, Type (0, 0), BuildingBlock: AJUNOK_clean_linker_0, # of connection points: 2
#     Edge 47, Type (0, 0), BuildingBlock: AJUNOK_clean_linker_0, # of connection points: 2
#     Edge 48, Type (0, 0), BuildingBlock: AJUNOK_clean_linker_0, # of connection points: 2
#     Edge 49, Type (0, 0), BuildingBlock: AJUNOK_clean_linker_0, # of connection points: 2
#     Edge 50, Type (0, 0), BuildingBlock: AJUNOK_clean_linker_0, # of connection points: 2
#     Edge 51, Type (0, 0), BuildingBlock: AJUNOK_clean_linker_0, # of connection points: 2
#     Edge 52, Type (0, 0), BuildingBlock: AJUNOK_clean_linker_0, # of connection points: 2
#     Edge 53, Type (0, 0), BuildingBlock: AJUNOK_clean_linker_0, # of connection points: 2
#     Edge 54, Type (0, 0), BuildingBlock: AJUNOK_clean_linker_0, # of connection points: 2
#     Edge 55, Type (0, 0), BuildingBlock: AJUNOK_clean_linker_0, # of connection points: 2
# Relax obj value: 0.137
# Max RMSD: 0.190
# Mean RMSD: 0.190
data_MOF--net-zfy--node1-XOMCOT_clean_sbu_1--edge1-AJUNOK_clean_linker_0
_symmetry_space_group_name_H-M    P1
_symmetry_Int_Tables_number       1
_symmetry_cell_setting            triclinic
loop_
_symmetry_equiv_pos_as_xyz
'x, y, z'
_cell_length_a     38.558241
_cell_length_b     38.383316
_cell_length_c     24.051522
_cell_angle_alpha  90.021908
_cell_angle_beta   90.184558
_cell_angle_gamma 89.919405
loop_
_atom_site_label
_atom_site_type_symbol
_atom_site_fract_x
_atom_site_fract_y
_atom_site_fract_z
_atom_type_partial_charge
C0 C 0.27963 0.28224 0.07635 0.0
C1 C 0.26784 0.29406 0.12687 0.0
N2 N 0.2807 0.27332 0.16699 0.0
N3 N 0.29938 0.25347 0.08335 0.0
C4 C 0.30069 0.24975 0.13973 0.0
H5 H 0.27444 0.2944 0.03664 0.0
Co6 Co 0.32112 0.23101 1.02087 0.0
C7 C 0.33371 0.17529 0.10603 0.0
O8 O 0.30048 0.17439 0.11783 0.0
N9 N 0.34325 0.21075 0.95861 0.0
C10 C 0.35498 0.1937 0.87223 0.0
C11 C 0.3301 0.20764 0.90685 0.0
C12 C 0.3763 0.19908 0.9542 0.0
N13 N 0.3843 0.18858 0.90189 0.0
O14 O 0.35897 0.26415 1.02569 0.0
H15 H 0.30399 0.21493 0.89507 0.0
H16 H 0.39436 0.19881 0.98873 0.0
O17 O 0.34517 0.19685 0.06971 0.0
C18 C 0.35356 0.28682 0.98758 0.0
O19 O 0.32474 0.28428 0.95848 0.0
N20 N 0.28216 0.20077 1.00954 0.0
C21 C 0.22719 0.16329 0.9608 0.0
C22 C 0.25859 0.14676 0.97471 0.0
C23 C 0.28577 0.16593 0.99871 0.0
C24 C 0.25139 0.21686 0.99754 0.0
C25 C 0.22355 0.19861 0.97407 0.0
H26 H 0.31059 0.15331 1.00429 0.0
H27 H 0.24897 0.24466 1.00122 0.0
H28 H 0.31653 0.23087 0.16117 0.0
H29 H 0.25184 0.31686 0.13351 0.0
H30 H 0.35121 0.18694 0.82898 0.0
H31 H 0.26282 0.11964 0.96422 0.0
H32 H 0.20041 0.21282 0.96216 0.0
C33 C 0.50991 0.53081 0.32356 0.0
C34 C 0.49898 0.51907 0.3746 0.0
N35 N 0.51869 0.53401 0.41419 0.0
N36 N 0.53744 0.55223 0.32972 0.0
C37 C 0.54128 0.55443 0.38598 0.0
H38 H 0.49805 0.52422 0.28417 0.0
Co39 Co 0.55935 0.57536 0.26808 0.0
C40 C 0.61475 0.58714 0.35324 0.0
O41 O 0.6166 0.55329 0.36105 0.0
N42 N 0.57942 0.59895 0.2073 0.0
C43 C 0.59807 0.61271 0.1227 0.0
C44 C 0.58298 0.58715 0.15483 0.0
C45 C 0.59178 0.63193 0.20574 0.0
N46 N 0.60383 0.64095 0.15479 0.0
O47 O 0.52537 0.6124 0.27313 0.0
H48 H 0.5753 0.56147 0.14096 0.0
H49 H 0.59111 0.64916 0.24127 0.0
O50 O 0.59234 0.59945 0.31888 0.0
C51 C 0.50331 0.60523 0.23489 0.0
O52 O 0.50697 0.57549 0.20843 0.0
N53 N 0.59028 0.53707 0.25566 0.0
C54 C 0.62837 0.48253 0.20676 0.0
C55 C 0.64445 0.51412 0.22129 0.0
C56 C 0.62492 0.54116 0.24505 0.0
C57 C 0.57457 0.50631 0.24224 0.0
C58 C 0.59308 0.47872 0.21869 0.0
H59 H 0.63719 0.56617 0.25129 0.0
H60 H 0.5469 0.50378 0.24474 0.0
H61 H 0.55915 0.57171 0.4067 0.0
H62 H 0.47834 0.50054 0.38163 0.0
H63 H 0.60499 0.61033 0.07929 0.0
H64 H 0.67151 0.51856 0.2117 0.0
H65 H 0.5791 0.45562 0.20579 0.0
C66 C 0.26034 0.76083 0.57321 0.0
C67 C 0.27233 0.75112 0.62492 0.0
N68 N 0.25942 0.77328 0.66312 0.0
N69 N 0.23963 0.78896 0.57802 0.0
C70 C 0.23937 0.79586 0.63354 0.0
H71 H 0.26622 0.74798 0.53435 0.0
Co72 Co 0.21812 0.81025 0.51575 0.0
C73 C 0.18849 0.877 0.55871 0.0
O74 O 0.19786 0.89255 0.51248 0.0
N75 N 0.19591 0.83071 0.45231 0.0
C76 C 0.18313 0.85009 0.36716 0.0
C77 C 0.20874 0.83652 0.40092 0.0
C78 C 0.16202 0.84009 0.44784 0.0
N79 N 0.15362 0.85232 0.39668 0.0
O80 O 0.17969 0.7778 0.5205 0.0
H81 H 0.23499 0.8313 0.38801 0.0
H82 H 0.14383 0.83833 0.48191 0.0
O83 O 0.19499 0.84449 0.56562 0.0
C84 C 0.18588 0.75485 0.48309 0.0
O85 O 0.21519 0.75737 0.45565 0.0
N86 N 0.25847 0.83799 0.50538 0.0
C87 C 0.31757 0.8712 0.46388 0.0
C88 C 0.29778 0.88668 0.50622 0.0
C89 C 0.26891 0.86897 0.52802 0.0
C90 C 0.27956 0.82133 0.46848 0.0
C91 C 0.30898 0.83747 0.44686 0.0
H92 H 0.255 0.88066 0.56202 0.0
H93 H 0.2723 0.79591 0.45305 0.0
H94 H 0.22505 0.81716 0.65202 0.0
H95 H 0.28867 0.72884 0.63369 0.0
H96 H 0.18642 0.85879 0.32472 0.0
H97 H 0.30426 0.91238 0.52163 0.0
H98 H 0.3237 0.82444 0.41465 0.0
C99 C 0.02103 0.51464 0.82196 0.0
C100 C 0.02959 0.52631 0.87433 0.0
N101 N 1.00797 0.51155 0.91138 0.0
N102 N 0.99412 0.49241 0.82529 0.0
C103 C 0.9867 0.49098 0.88044 0.0
H104 H 0.0337 0.5219 0.78364 0.0
Co105 Co 0.97505 0.47024 0.7623 0.0
C106 C 0.90896 0.4372 0.79822 0.0
O107 O 0.89546 0.4466 0.7503 0.0
N108 N 0.95676 0.44727 0.69791 0.0
C109 C 0.93203 0.4335 0.61699 0.0
C110 C 0.94474 0.46025 0.64934 0.0
C111 C 0.95211 0.41236 0.69279 0.0
N112 N 0.93624 0.40321 0.64455 0.0
O113 O 1.00821 0.43251 0.77 0.0
H114 H 0.94399 0.48743 0.63813 0.0
H115 H 0.95966 0.39421 0.72494 0.0
O116 O 0.94028 0.44593 0.80991 0.0
C117 C 0.03175 0.43845 0.73381 0.0
O118 O 0.02955 0.46748 0.70506 0.0
N119 N 0.94655 0.50989 0.74994 0.0
C120 C 0.91259 0.56873 0.7078 0.0
C121 C 0.89685 0.54789 0.74856 0.0
C122 C 0.91486 0.51913 0.7707 0.0
C123 C 0.96321 0.5318 0.71425 0.0
C124 C 0.94671 0.56118 0.69245 0.0
H125 H 0.90286 0.50426 0.80336 0.0
H126 H 0.98894 0.52519 0.69993 0.0
H127 H 0.96664 0.47463 0.8977 0.0
H128 H 0.05004 0.54459 0.88431 0.0
H129 H 0.91908 0.43648 0.57728 0.0
H130 H 0.87075 0.5535 0.76248 0.0
H131 H 0.95984 0.57669 0.66135 0.0
C132 C 0.75847 0.76254 0.98954 0.0
C133 C 0.77058 0.75307 0.93793 0.0
N134 N 0.75951 0.77662 0.90027 0.0
N135 N 0.73942 0.79186 0.98517 0.0
C136 C 0.74038 0.79979 0.93006 0.0
H137 H 0.76316 0.74872 1.02799 0.0
Co138 Co 0.71827 0.81336 0.04731 0.0
C139 C 0.68898 0.88033 1.00398 0.0
O140 O 0.69831 0.89564 0.05055 0.0
N141 N 0.69643 0.83398 0.11062 0.0
C142 C 0.68337 0.85254 0.19601 0.0
C143 C 0.70918 0.83956 0.16228 0.0
C144 C 0.66246 0.84297 0.11485 0.0
N145 N 0.65387 0.85463 0.16615 0.0
O146 O 0.67959 0.78095 0.04308 0.0
H147 H 0.73543 0.83436 0.1755 0.0
H148 H 0.64428 0.84108 0.08059 0.0
O149 O 0.69504 0.84772 0.99709 0.0
C150 C 0.68606 0.75862 0.08137 0.0
O151 O 0.71605 0.76084 0.1072 0.0
N152 N 0.75877 0.84097 0.0575 0.0
C153 C 0.81772 0.87466 0.09931 0.0
C154 C 0.79824 0.88951 0.05578 0.0
C155 C 0.76937 0.87161 0.03406 0.0
C156 C 0.7798 0.82467 0.09509 0.0
C157 C 0.80912 0.84107 0.11691 0.0
H158 H 0.75555 0.88287 0.99948 0.0
H159 H 0.77253 0.79938 0.11096 0.0
H160 H 0.72765 0.82227 0.91205 0.0
H161 H 0.78572 0.73002 0.92881 0.0
H162 H 0.68647 0.86081 0.23876 0.0
H163 H 0.80488 0.91494 0.03951 0.0
H164 H 0.8237 0.82837 0.14974 0.0
C165 C 0.52462 0.51517 0.74138 0.0
C166 C 0.53396 0.52637 0.6892 0.0
N167 N 0.51436 0.50956 0.65154 0.0
N168 N 0.49845 0.49186 0.73774 0.0
C169 C 0.49401 0.48797 0.68183 0.0
H170 H 0.53706 0.52308 0.77964 0.0
Co171 Co 0.47923 0.46832 0.80137 0.0
C172 C 0.42188 0.45671 0.71921 0.0
O173 O 0.42104 0.49018 0.70787 0.0
N174 N 0.4622 0.44456 0.86403 0.0
C175 C 0.44862 0.43072 0.95109 0.0
C176 C 0.46249 0.456 0.917 0.0
C177 C 0.44864 0.4121 0.86706 0.0
N178 N 0.44006 0.40288 0.91968 0.0
O179 O 0.51224 0.43098 0.79125 0.0
H180 H 0.47171 0.48136 0.92987 0.0
H181 H 0.44524 0.39543 0.83117 0.0
O182 O 0.44389 0.44468 0.75443 0.0
C183 C 0.53929 0.43755 0.82027 0.0
O184 O 0.54094 0.46734 0.84703 0.0
N185 N 0.44872 0.50643 0.81756 0.0
C186 C 0.41017 0.55951 0.86937 0.0
C187 C 0.39441 0.5281 0.85329 0.0
C188 C 0.4142 0.50174 0.82837 0.0
C189 C 0.4641 0.53721 0.83197 0.0
C190 C 0.44526 0.56421 0.85688 0.0
H191 H 0.4022 0.47671 0.82158 0.0
H192 H 0.49171 0.54017 0.82888 0.0
H193 H 0.47751 0.46857 0.663 0.0
H194 H 0.55371 0.54547 0.67972 0.0
H195 H 0.44399 0.43337 0.99522 0.0
H196 H 0.36741 0.52318 0.86269 0.0
H197 H 0.45872 0.58756 0.87011 0.0
C198 C 0.78148 0.28186 0.49171 0.0
C199 C 0.76896 0.29228 0.44071 0.0
N200 N 0.77816 0.26844 0.40229 0.0
N201 N 0.7989 0.25164 0.48618 0.0
C202 C 0.7966 0.24413 0.43102 0.0
H203 H 0.77842 0.29573 0.53053 0.0
Co204 Co 0.8206 0.22952 0.54724 0.0
C205 C 0.84814 0.16225 0.50247 0.0
O206 O 0.83863 0.1465 0.54846 0.0
N207 N 0.84308 0.20836 0.6098 0.0
C208 C 0.85705 0.19054 0.69536 0.0
C209 C 0.83106 0.20379 0.66204 0.0
C210 C 0.87684 0.19844 0.61323 0.0
N211 N 0.88598 0.18726 0.66467 0.0
O212 O 0.85992 0.26062 0.5408 0.0
H213 H 0.80527 0.21006 0.67604 0.0
H214 H 0.89455 0.19954 0.57844 0.0
O215 O 0.84225 0.19493 0.49636 0.0
C216 C 0.85648 0.28319 0.57957 0.0
O217 O 0.82838 0.28201 0.61027 0.0
N218 N 0.77968 0.20284 0.55886 0.0
C219 C 0.72055 0.17024 0.60172 0.0
C220 C 0.73904 0.15527 0.55737 0.0
C221 C 0.76806 0.17259 0.53526 0.0
C222 C 0.7596 0.21939 0.59731 0.0
C223 C 0.73024 0.2035 0.61973 0.0
H224 H 0.78116 0.16119 0.50017 0.0
H225 H 0.76769 0.24446 0.61325 0.0
H226 H 0.80805 0.22124 0.41221 0.0
H227 H 0.75499 0.31621 0.4325 0.0
H228 H 0.85446 0.18304 0.73851 0.0
H229 H 0.73152 0.13018 0.54068 0.0
H230 H 0.71642 0.21633 0.65315 0.0
C231 C 1.00666 0.53048 0.23976 0.0
C232 C 0.99493 0.51962 0.18853 0.0
N233 N 1.01434 0.53489 0.1491 0.0
N234 N 0.03438 0.55164 0.23383 0.0
C235 C 0.03751 0.55466 0.17758 0.0
H236 H 0.99505 0.52368 0.27912 0.0
Co237 Co 0.05644 0.57445 0.29595 0.0
C238 C 0.11217 0.58349 0.21194 0.0
O239 O 0.11134 0.54961 0.20417 0.0
N240 N 0.07627 0.59766 0.35748 0.0
C241 C 0.09045 0.61132 0.44458 0.0
C242 C 0.07565 0.58646 0.41061 0.0
C243 C 0.09131 0.62948 0.36021 0.0
N244 N 0.10013 0.63854 0.41286 0.0
O245 O 0.02336 0.61216 0.28951 0.0
H246 H 0.0651 0.56171 0.42374 0.0
H247 H 0.09532 0.64595 0.3243 0.0
O248 O 0.09056 0.5975 0.24583 0.0
C249 C 1.00048 0.60586 0.32666 0.0
O250 O 1.00307 0.57646 0.35439 0.0
N251 N 0.08667 0.53567 0.30966 0.0
C252 C 0.12453 0.48146 0.36015 0.0
C253 C 0.14058 0.51308 0.34614 0.0
C254 C 0.12118 0.53992 0.32154 0.0
C255 C 0.071 0.50478 0.32231 0.0
C256 C 0.08944 0.47732 0.34667 0.0
H257 H 0.13344 0.56494 0.3156 0.0
H258 H 0.0434 0.502 0.31837 0.0
H259 H 0.05531 0.57209 0.15717 0.0
H260 H 0.97391 0.50155 0.18116 0.0
H261 H 0.09461 0.60903 0.48894 0.0
H262 H 0.1675 0.5177 0.35677 0.0
H263 H 0.07554 0.45406 0.35888 0.0
C264 C 0.77842 0.78326 0.57224 0.0
C265 C 0.76759 0.79269 0.62468 0.0
N266 N 0.78162 0.77055 0.66203 0.0
N267 N 0.79923 0.75514 0.57579 0.0
C268 C 0.80062 0.74788 0.63108 0.0
H269 H 0.7716 0.79617 0.53377 0.0
Co270 Co 0.81997 0.73396 0.5132 0.0
C271 C 0.84554 0.66564 0.55562 0.0
O272 O 0.83352 0.65089 0.51016 0.0
N273 N 0.84175 0.7135 0.4493 0.0
C274 C 0.85602 0.6979 0.36278 0.0
C275 C 0.83055 0.71192 0.39596 0.0
C276 C 0.87475 0.70117 0.44654 0.0
N277 N 0.88394 0.6912 0.39461 0.0
O278 O 0.85922 0.76517 0.51911 0.0
H279 H 0.80583 0.72097 0.38078 0.0
H280 H 0.89198 0.69981 0.4821 0.0
O281 O 0.8422 0.69864 0.56223 0.0
C282 C 0.85397 0.78856 0.48205 0.0
O283 O 0.82471 0.78742 0.45394 0.0
N284 N 0.77907 0.70723 0.50248 0.0
C285 C 0.71869 0.67331 0.4662 0.0
C286 C 0.7364 0.66219 0.51441 0.0
C287 C 0.76614 0.68007 0.5327 0.0
C288 C 0.75972 0.72083 0.46023 0.0
C289 C 0.73033 0.70375 0.44012 0.0
H290 H 0.77871 0.67175 0.57059 0.0
H291 H 0.76794 0.74469 0.44047 0.0
H292 H 0.81477 0.72602 0.6482 0.0
H293 H 0.751 0.81459 0.63457 0.0
H294 H 0.85376 0.69236 0.3188 0.0
H295 H 0.72753 0.63971 0.5375 0.0
H296 H 0.7178 0.71375 0.40309 0.0
C297 C 1.01088 0.03224 0.82132 0.0
C298 C 1.00136 1.0201 0.87286 0.0
N299 N 0.0247 0.03124 0.91073 0.0
N300 N 0.04003 0.05132 0.82592 0.0
C301 C 0.04779 0.05044 0.88113 0.0
H302 H 0.99715 0.02769 0.78273 0.0
Co303 Co 0.06074 0.0728 0.76367 0.0
C304 C 0.12806 0.10242 0.80326 0.0
O305 O 0.14139 0.09352 0.75507 0.0
N306 N 0.08056 0.09506 0.70013 0.0
C307 C 0.10385 0.10836 0.61808 0.0
C308 C 0.09042 0.08201 0.65042 0.0
C309 C 0.08727 0.12965 0.69584 0.0
N310 N 0.10226 0.13838 0.64692 0.0
O311 O 0.0284 0.11158 0.76945 0.0
H312 H 0.08867 0.05506 0.63807 0.0
H313 H 0.08171 0.14797 0.72881 0.0
O314 O 0.09599 0.0957 0.81302 0.0
C315 C 1.00576 0.10599 0.73131 0.0
O316 O 1.0085 0.07708 0.70235 0.0
N317 N 0.0881 0.03216 0.75256 0.0
C318 C 0.12108 0.97257 0.71131 0.0
C319 C 0.13655 0.99256 0.75358 0.0
C320 C 0.119 0.0217 0.77519 0.0
C321 C 0.07144 1.01095 0.71563 0.0
C322 C 0.08749 0.98126 0.69413 0.0
H323 H 0.13075 0.03583 0.80902 0.0
H324 H 0.04617 1.01837 0.70005 0.0
H325 H 0.07001 0.06338 0.89933 0.0
H326 H 0.97839 1.00497 0.88181 0.0
H327 H 0.11524 0.10533 0.57728 0.0
H328 H 0.16216 0.98603 0.76905 0.0
H329 H 0.07452 0.96643 0.66188 0.0
C330 C 0.75219 0.26117 0.07604 0.0
C331 C 0.76307 0.2517 0.12843 0.0
N332 N 0.75239 0.27602 0.16497 0.0
N333 N 0.73472 0.29155 0.07866 0.0
C334 C 0.73525 0.30004 0.13358 0.0
H335 H 0.75675 0.2467 0.03818 0.0
Co336 Co 0.71577 0.31294 1.01445 0.0
C337 C 0.68864 0.38239 0.05106 0.0
O338 O 0.69748 0.39542 1.00262 0.0
N339 N 0.69626 0.33325 0.94863 0.0
C340 C 0.68834 0.35324 0.8625 0.0
C341 C 0.71182 0.33905 0.89922 0.0
C342 C 0.66278 0.34308 0.93977 0.0
N343 N 0.65743 0.35582 0.88791 0.0
O344 O 0.67499 0.28355 1.01945 0.0
H345 H 0.73852 0.3334 0.88964 0.0
H346 H 0.64306 0.34229 0.97168 0.0
O347 O 0.69456 0.35009 0.06131 0.0
C348 C 0.67972 0.26001 0.98245 0.0
O349 O 0.70936 0.25978 0.95567 0.0
N350 N 0.75807 0.3375 1.00422 0.0
C351 C 0.81653 0.36656 0.95423 0.0
C352 C 0.79789 0.38534 0.99445 0.0
C353 C 0.76895 0.36994 1.02014 0.0
C354 C 0.77908 0.31742 0.97186 0.0
C355 C 0.80825 0.33142 0.94617 0.0
H356 H 0.75498 0.38477 0.05075 0.0
H357 H 0.77131 0.29115 0.96159 0.0
H358 H 0.72385 0.32362 0.15009 0.0
H359 H 0.77737 0.2283 0.13892 0.0
H360 H 0.6937 0.36138 0.82029 0.0
H361 H 0.8043 0.41223 1.00344 0.0
H362 H 0.8227 0.31559 0.91697 0.0
C363 C 0.52721 1.00995 0.32277 0.0
C364 C 0.53763 1.0211 0.3746 0.0
N365 N 0.51676 1.00668 0.41309 0.0
N366 N 0.49968 0.98863 0.32782 0.0
C367 C 0.49371 0.98731 0.3835 0.0
H368 H 0.53893 1.01707 0.28361 0.0
Co369 Co 0.47837 0.96714 0.26584 0.0
C370 C 0.41203 0.93787 0.30946 0.0
O371 O 0.39636 0.9477 0.26345 0.0
N372 N 0.45792 0.94492 0.20253 0.0
C373 C 0.43938 0.93191 0.11699 0.0
C374 C 0.45298 0.95757 0.15064 0.0
C375 C 0.44803 0.91107 0.19847 0.0
N376 N 0.43628 0.90256 0.1471 0.0
O377 O 0.51092 0.92859 0.27066 0.0
H378 H 0.45897 0.98365 0.13719 0.0
H379 H 0.44918 0.89296 0.23292 0.0
O380 O 0.44453 0.94385 0.31593 0.0
C381 C 0.53348 0.93448 0.2328 0.0
O382 O 0.53065 0.96354 0.20426 0.0
N383 N 0.45045 1.00755 0.25561 0.0
C384 C 0.41619 0.06677 0.2146 0.0
C385 C 0.40226 0.04748 0.25904 0.0
C386 C 0.42035 1.01843 0.28011 0.0
C387 C 0.46616 0.02855 0.21761 0.0
C388 C 0.44958 0.05803 0.19642 0.0
H389 H 0.4097 1.00476 0.31523 0.0
H390 H 0.49134 1.0214 0.20156 0.0
H391 H 0.47319 0.97215 0.4022 0.0
H392 H 0.55859 0.03907 0.38309 0.0
H393 H 0.4313 0.93507 0.07415 0.0
H394 H 0.37725 0.05413 0.27643 0.0
H395 H 0.46261 0.07337 0.16505 0.0
C396 C 0.26011 0.26834 0.49392 0.0
C397 C 0.27213 0.26016 0.4417 0.0
N398 N 0.25693 0.28153 0.40441 0.0
N399 N 0.23735 0.2949 0.49033 0.0
C400 C 0.23596 0.30249 0.43516 0.0
H401 H 0.26753 0.25568 0.53231 0.0
Co402 Co 0.21514 0.31384 0.55335 0.0
C403 C 0.18693 0.38239 0.51619 0.0
O404 O 0.19662 0.39549 0.5643 0.0
N405 N 0.19217 0.33177 0.61775 0.0
C406 C 0.17727 0.34722 0.70397 0.0
C407 C 0.20343 0.33426 0.67092 0.0
C408 C 0.15856 0.34217 0.62045 0.0
N409 N 0.149 0.35229 0.67209 0.0
O410 O 0.17674 0.28182 0.54416 0.0
H411 H 0.22891 0.32712 0.68561 0.0
H412 H 0.14142 0.34284 0.58473 0.0
O413 O 0.19265 0.35005 0.50602 0.0
C414 C 0.18279 0.25764 0.57953 0.0
O415 O 0.21254 0.25823 0.6063 0.0
N416 N 0.25506 0.34136 0.56735 0.0
C417 C 0.31377 0.37515 0.60982 0.0
C418 C 0.29534 0.38916 0.56441 0.0
C419 C 0.26652 0.37128 0.54265 0.0
C420 C 0.27524 0.3255 0.60649 0.0
C421 C 0.30441 0.34193 0.62858 0.0
H422 H 0.25349 0.38188 0.50672 0.0
H423 H 0.26786 0.30021 0.62222 0.0
H424 H 0.22041 0.32336 0.41803 0.0
H425 H 0.29037 0.23961 0.43188 0.0
H426 H 0.17942 0.35366 0.74766 0.0
H427 H 0.30254 0.41404 0.5467 0.0
H428 H 0.31915 0.32887 0.66084 0.0
C429 C 0.02937 1.01161 0.23876 0.0
C430 C 0.03894 0.02275 0.18658 0.0
N431 N 1.01699 1.00897 0.14882 0.0
N432 N 1.00133 0.99088 0.23466 0.0
C433 C 0.99427 0.98982 0.17927 0.0
H434 H 0.04221 1.01808 0.27744 0.0
Co435 Co 0.98041 0.96957 0.29694 0.0
C436 C 0.91348 0.94025 0.25418 0.0
O437 O 0.89846 0.94931 0.30099 0.0
N438 N 0.96041 0.94755 0.36047 0.0
C439 C 0.942 0.93469 0.44591 0.0
C440 C 0.95539 0.96034 0.41221 0.0
C441 C 0.95082 0.91364 0.36468 0.0
N442 N 0.93912 0.90521 0.41597 0.0
O443 O 1.01267 0.93073 0.29181 0.0
H444 H 0.96112 0.98654 0.42547 0.0
H445 H 0.95201 0.89546 0.33033 0.0
O446 O 0.94587 0.94642 0.24709 0.0
C447 C 0.03548 0.93595 0.3298 0.0
O448 O 0.03336 0.96492 0.35874 0.0
N449 N 0.95275 1.01019 0.30746 0.0
C450 C 0.91828 0.06876 0.34939 0.0
C451 C 0.90368 0.04906 0.306 0.0
C452 C 0.92205 1.02053 0.284 0.0
C453 C 0.9687 0.03139 0.34519 0.0
C454 C 0.95188 0.06054 0.36712 0.0
H455 H 0.91106 1.00674 0.24919 0.0
H456 H 0.99401 0.02433 0.36107 0.0
H457 H 0.97261 0.97571 0.16168 0.0
H458 H 0.06086 0.03929 0.17712 0.0
H459 H 0.93383 0.93794 0.48861 0.0
H460 H 0.87817 0.05535 0.2899 0.0
H461 H 0.96427 0.07529 0.40004 0.0
C462 C 0.27354 0.77561 0.99202 0.0
C463 C 0.26266 0.7847 0.9394 0.0
N464 N 0.27907 0.76436 0.90206 0.0
N465 N 0.29675 0.74947 0.98871 0.0
C466 C 0.29961 0.74308 0.93329 0.0
H467 H 0.26512 0.78743 1.03052 0.0
Co468 Co 0.3182 0.73001 0.05237 0.0
C469 C 0.34346 0.66043 1.0181 0.0
O470 O 0.33098 0.64934 0.06566 0.0
N471 N 0.34089 0.71141 0.11728 0.0
C472 C 0.35659 0.69302 0.20188 0.0
C473 C 0.33017 0.70716 0.17039 0.0
C474 C 0.37454 0.70096 0.11877 0.0
N475 N 0.38445 0.68868 0.16914 0.0
O476 O 0.35705 0.76156 0.04433 0.0
H477 H 0.30495 0.71378 0.18636 0.0
H478 H 0.39142 0.70207 0.08297 0.0
O479 O 0.34044 0.69291 1.00583 0.0
C480 C 0.35138 0.78555 0.08025 0.0
O481 O 0.32201 0.78454 0.1078 0.0
N482 N 0.27764 0.70306 0.06485 0.0
C483 C 0.21841 0.66749 0.10085 0.0
C484 C 0.23545 0.65769 0.05152 0.0
C485 C 0.26466 0.67634 0.03352 0.0
C486 C 0.25845 0.71583 0.10779 0.0
C487 C 0.22942 0.69801 0.1275 0.0
H488 H 0.27699 0.66888 0.99506 0.0
H489 H 0.26648 0.73957 0.12828 0.0
H490 H 0.31601 0.72285 0.91631 0.0
H491 H 0.24439 0.80522 0.92942 0.0
H492 H 0.35504 0.68548 0.24516 0.0
H493 H 0.22649 0.63568 1.02729 0.0
H494 H 0.21652 0.7075 0.16447 0.0
C495 C 0.50812 0.03276 0.73966 0.0
C496 C 0.49886 1.02083 0.68765 0.0
N497 N 0.52196 0.03277 0.65031 0.0
N498 N 0.53691 0.05242 0.73575 0.0
C499 C 0.54477 0.05198 0.6807 0.0
H500 H 0.49465 0.02741 0.77809 0.0
Co501 Co 0.558 0.07434 0.79755 0.0
C502 C 0.62425 0.10445 0.7547 0.0
O503 O 0.63945 0.09567 0.80162 0.0
N504 N 0.5785 0.0971 0.86032 0.0
C505 C 0.60194 0.11094 0.94228 0.0
C506 C 0.58865 0.08436 0.91017 0.0
C507 C 0.58505 0.13175 0.86422 0.0
N508 N 0.59999 0.14085 0.91321 0.0
O509 O 0.52514 0.1127 0.79219 0.0
H510 H 0.58697 0.05752 0.923 0.0
H511 H 0.57902 0.14988 0.83118 0.0
O512 O 0.59197 0.09767 0.74725 0.0
C513 C 0.50293 0.10718 0.83074 0.0
O514 O 0.50609 0.07844 0.86002 0.0
N515 N 0.58603 0.03406 0.80841 0.0
C516 C 0.62068 0.97552 0.85053 0.0
C517 C 0.63491 0.99498 0.80661 0.0
C518 C 0.61655 0.02364 0.78479 0.0
C519 C 0.5703 1.01301 0.8464 0.0
C520 C 0.58721 0.98389 0.86839 0.0
H521 H 0.62733 0.03744 0.74995 0.0
H522 H 0.54517 1.02023 0.86256 0.0
H523 H 0.56639 0.06601 0.66304 0.0
H524 H 0.47694 1.00425 0.67817 0.0
H525 H 0.61328 0.10816 0.98327 0.0
H526 H 0.6602 0.98849 0.79007 0.0
H527 H 0.57498 0.96932 0.90152 0.0
C528 C 0.46436 0.13228 0.90327 0.0
C529 C 0.4754 0.13235 0.84745 0.0
C530 C 0.43572 0.15184 0.92086 0.0
C531 C 0.41616 0.17199 0.88339 0.0
H532 H 0.47761 0.11634 0.93387 0.0
H533 H 0.42815 0.15008 0.96396 0.0
S534 S 0.43673 0.18477 0.73376 0.0
N535 N 0.46652 0.15692 0.75559 0.0
N536 N 0.41241 0.19379 0.78837 0.0
C537 C 0.42795 0.17381 0.8278 0.0
C538 C 0.45763 0.15405 0.80997 0.0
C539 C 0.61954 0.68482 0.08259 0.0
C540 C 0.62127 0.67283 0.13819 0.0
C541 C 0.63888 0.71389 0.06444 0.0
C542 C 0.66093 0.73188 0.10114 0.0
H543 H 0.60353 0.67126 0.05257 0.0
H544 H 0.63772 0.7213 1.02103 0.0
S545 S 0.67314 0.71311 0.25166 0.0
N546 N 0.64609 0.68274 0.22992 0.0
N547 N 0.68122 0.7374 0.19666 0.0
C548 C 0.66162 0.72119 0.15728 0.0
C549 C 0.64214 0.69172 0.17562 0.0
C550 C 0.10381 0.89058 0.41779 0.0
C551 C 0.12166 0.86934 0.37985 0.0
C552 C 0.07524 0.91071 0.40113 0.0
C553 C 0.06282 0.91032 0.34587 0.0
H554 H 0.11293 0.89291 0.46026 0.0
H555 H 0.06323 0.92742 0.43188 0.0
S556 S 0.09788 0.8562 0.23147 0.0
N557 N 0.12309 0.84694 0.28519 0.0
N558 N 0.06914 0.88484 0.2541 0.0
C559 C 0.07918 0.88783 0.30805 0.0
C560 C 0.10869 0.86746 0.32492 0.0
C561 C 0.91613 0.36172 0.57162 0.0
C562 C 0.92186 0.36966 0.62839 0.0
C563 C 0.89731 0.33197 0.55501 0.0
C564 C 0.88343 0.3091 0.59463 0.0
H565 H 0.92525 0.37929 0.53969 0.0
H566 H 0.89182 0.32806 0.51126 0.0
S567 S 0.89428 0.31465 0.74769 0.0
N568 N 0.91414 0.34958 0.72372 0.0
N569 N 0.87962 0.29394 0.69232 0.0
C570 C 0.89091 0.31529 0.65104 0.0
C571 C 0.90994 0.34542 0.66802 0.0
C572 C 0.60326 0.89184 0.14517 0.0
C573 C 0.62154 0.87074 0.18293 0.0
C574 C 0.57409 0.91096 0.16173 0.0
C575 C 0.56148 0.90969 0.21671 0.0
H576 H 0.61246 0.89484 0.10296 0.0
H577 H 0.56174 0.92762 0.13114 0.0
S578 S 0.59754 0.85538 0.3304 0.0
N579 N 0.62321 0.84738 0.27697 0.0
N580 N 0.56814 0.88347 0.30795 0.0
C581 C 0.57831 0.8873 0.25431 0.0
C582 C 0.60843 0.86793 0.23753 0.0
C583 C 0.37713 0.32801 0.91718 0.0
C584 C 0.37898 0.31425 0.97146 0.0
C585 C 0.39807 0.35582 0.90033 0.0
C586 C 0.42154 0.37183 0.93704 0.0
H587 H 0.35895 0.31747 0.88717 0.0
H588 H 0.39497 0.36553 0.85849 0.0
S589 S 0.43952 0.34331 0.08205 0.0
N590 N 0.40843 0.31686 0.06071 0.0
N591 N 0.44784 0.36947 1.0292 0.0
C592 C 0.42486 0.35743 0.99091 0.0
C593 C 0.40365 0.32858 1.00798 0.0
C594 C 0.9645 0.12922 0.66048 0.0
C595 C 0.97788 0.13101 0.71512 0.0
C596 C 0.93553 0.14873 0.64388 0.0
C597 C 0.91823 0.17078 0.68124 0.0
H598 H 0.97607 0.11189 0.63017 0.0
H599 H 0.9257 0.14531 0.60201 0.0
S600 S 0.94465 0.18799 0.8274 0.0
N601 N 0.97308 0.15885 0.80541 0.0
N602 N 0.91841 0.1957 0.77432 0.0
C603 C 0.93215 0.17416 0.73538 0.0
C604 C 0.96206 0.15436 0.75222 0.0
C605 C 0.14525 0.6828 0.39642 0.0
C606 C 0.11909 0.6692 0.4305 0.0
C607 C 0.16582 0.71081 0.41386 0.0
C608 C 0.16113 0.72692 0.46611 0.0
H609 H 0.15065 0.67097 0.35649 0.0
H610 H 0.18596 0.71964 0.38592 0.0
S611 S 0.09393 0.70336 0.56926 0.0
N612 N 0.08791 0.67544 0.5178 0.0
N613 N 0.12676 0.72831 0.5505 0.0
C614 C 0.13418 0.71452 0.49992 0.0
C615 C 0.11325 0.68558 0.48225 0.0
C616 C 0.92984 0.64799 0.41355 0.0
C617 C 0.91515 0.673 0.37801 0.0
C618 C 0.95783 0.62732 0.39652 0.0
C619 C 0.97277 0.63086 0.3433 0.0
H620 H 0.91876 0.64339 0.4542 0.0
H621 H 0.96751 0.60794 0.42542 0.0
S622 S 0.94623 0.69511 0.2363 0.0
N623 N 0.91922 0.70207 0.28837 0.0
N624 N 0.97209 0.66312 0.25648 0.0
C625 C 0.95941 0.65686 0.30812 0.0
C626 C 0.93051 0.67784 0.32536 0.0
C627 C 0.11953 0.18148 0.57475 0.0
C628 C 0.11793 0.17127 0.63118 0.0
C629 C 0.13847 0.21109 0.55785 0.0
C630 C 0.15676 0.2313 0.59681 0.0
H631 H 0.10681 0.16589 0.54324 0.0
H632 H 0.14034 0.21701 0.51394 0.0
S633 S 0.15931 0.21763 0.74965 0.0
N634 N 0.13538 0.18527 0.72588 0.0
N635 N 0.17001 0.24076 0.6945 0.0
C636 C 0.15394 0.22242 0.65344 0.0
C637 C 0.13478 0.1925 0.67059 0.0
C638 C 0.60216 0.42382 0.81754 0.0
C639 C 0.56815 0.41254 0.82804 0.0
C640 C 0.63099 0.40449 0.83555 0.0
C641 C 0.62707 0.37353 0.86627 0.0
H642 H 0.60651 0.4485 0.79685 0.0
H643 H 0.65664 0.41477 0.82759 0.0
S644 S 0.54337 0.33233 0.90379 0.0
N645 N 0.53198 0.36795 0.86965 0.0
N646 N 0.58625 0.33176 0.90445 0.0
C647 C 0.59314 0.3615 0.87606 0.0
C648 C 0.56368 0.38095 0.85666 0.0
C649 C 0.39679 0.85382 0.16803 0.0
C650 C 0.41888 0.87077 0.13048 0.0
C651 C 0.37631 0.82554 0.15135 0.0
C652 C 0.37719 0.81254 0.09649 0.0
H653 H 0.3941 0.86346 0.21012 0.0
H654 H 0.35897 0.81421 0.18173 0.0
S655 S 0.43347 0.84514 0.9834 0.0
N656 N 0.44254 0.87074 0.03678 0.0
N657 N 0.40397 0.81727 1.00563 0.0
C658 C 0.40049 0.82796 0.05915 0.0
C659 C 0.42122 0.8572 0.07602 0.0
C660 C 0.10317 0.39504 0.65048 0.0
C661 C 0.11765 0.37067 0.6874 0.0
C662 C 0.07499 0.41588 0.66596 0.0
C663 C 0.05961 0.41319 0.71894 0.0
H664 H 0.11457 0.39903 0.60989 0.0
H665 H 0.0655 0.43472 0.63601 0.0
S666 S 0.08565 0.35106 0.82943 0.0
N667 N 0.11312 0.34328 0.77826 0.0
N668 N 0.05975 0.3825 0.80724 0.0
C669 C 0.07279 0.38788 0.75559 0.0
C670 C 0.10195 0.36674 0.73994 0.0
C671 C 0.89969 0.85645 0.3946 0.0
C672 C 0.92171 0.87346 0.43243 0.0
C673 C 0.87915 0.82823 0.41107 0.0
C674 C 0.87991 0.81537 0.46601 0.0
H675 H 0.89706 0.866 0.35244 0.0
H676 H 0.86185 0.81686 0.38049 0.0
S677 S 0.93605 0.84813 0.5798 0.0
N678 N 0.94523 0.8736 0.52645 0.0
N679 N 0.90655 0.82025 0.55725 0.0
C680 C 0.90317 0.83083 0.50364 0.0
C681 C 0.92396 0.86001 0.48696 0.0
C682 C 0.45992 0.65349 0.25346 0.0
C683 C 0.47514 0.62941 0.21673 0.0
C684 C 0.43077 0.67341 0.23731 0.0
C685 C 0.41615 0.67044 0.18359 0.0
H686 H 0.46979 0.65606 0.29547 0.0
H687 H 0.4193 0.69101 0.26727 0.0
S688 S 0.44739 0.61242 0.0708 0.0
N689 N 0.47425 0.60513 0.12305 0.0
N690 N 0.41971 0.64186 0.0937 0.0
C691 C 0.43188 0.64727 0.14608 0.0
C692 C 0.46127 0.62698 0.16242 0.0
C693 C 0.61687 0.18377 0.98614 0.0
C694 C 0.61479 0.17413 0.92943 0.0
C695 C 0.63553 0.21347 1.00356 0.0
C696 C 0.65293 0.23447 0.96487 0.0
H697 H 0.60493 0.16756 1.0175 0.0
H698 H 0.63809 0.21874 0.04764 0.0
S699 S 0.65341 0.22297 0.81157 0.0
N700 N 0.63045 0.18982 0.83478 0.0
N701 N 0.66447 0.24556 0.86724 0.0
C702 C 0.64931 0.22639 0.90802 0.0
C703 C 0.63049 0.1963 0.89032 0.0
C704 C 0.30088 0.26868 0.26509 0.0
C705 C 0.27442 0.27608 0.22641 0.0
C706 C 0.29512 0.27121 0.32279 0.0
C707 C 0.26258 0.2811 0.34461 0.0
H708 H 0.3264 0.26121 0.25065 0.0
H709 H 0.31649 0.26548 0.35061 0.0
S710 S 0.18372 0.30038 0.26121 0.0
N711 N 0.2138 0.29199 0.21437 0.0
N712 N 0.20306 0.29658 0.32225 0.0
C713 C 0.23582 0.28832 0.30636 0.0
C714 C 0.2417 0.2858 0.24757 0.0
C715 C 0.54636 0.52187 0.56414 0.0
C716 C 0.51497 0.5146 0.59171 0.0
C717 C 0.54733 0.52849 0.50655 0.0
C718 C 0.51692 0.52826 0.47388 0.0
H719 H 0.57049 0.52217 0.58727 0.0
H720 H 0.5722 0.53332 0.48729 0.0
S721 S 0.42755 0.51424 0.52682 0.0
N722 N 0.45247 0.5098 0.58231 0.0
N723 N 0.45409 0.52244 0.47471 0.0
C724 C 0.48525 0.52162 0.50116 0.0
C725 C 0.48433 0.51473 0.55976 0.0
C726 C 0.23809 0.77939 0.76024 0.0
C727 C 0.26511 0.77181 0.72294 0.0
C728 C 0.24276 0.77644 0.81825 0.0
C729 C 0.27474 0.76592 0.84186 0.0
H730 H 0.21288 0.78701 0.74443 0.0
H731 H 0.22088 0.78209 0.84484 0.0
S732 S 0.35492 0.74643 0.76258 0.0
N733 N 0.3258 0.75544 0.71419 0.0
N734 N 0.33453 0.75013 0.82255 0.0
C735 C 0.30217 0.75887 0.80498 0.0
C736 C 0.29739 0.7618 0.74588 0.0
C737 C 0.04054 0.52277 0.99891 0.0
C738 C 1.00875 0.51679 0.97125 0.0
C739 C 0.04208 0.52913 0.05652 0.0
C740 C 1.01191 0.52978 0.08931 0.0
H741 H 0.06461 0.52213 0.9759 0.0
H742 H 0.06722 0.53293 0.07575 0.0
S743 S 0.9218 0.51889 0.03681 0.0
N744 N 0.94616 0.51401 0.98101 0.0
N745 N 0.94893 0.52597 0.08886 0.0
C746 C 0.97986 0.52436 0.06212 0.0
C747 C 0.97832 0.51784 1.00335 0.0
C748 C 0.74528 0.78413 0.74478 0.0
C749 C 0.77667 0.77161 0.72202 0.0
C750 C 0.74006 0.78629 0.80269 0.0
C751 C 0.76592 0.77592 0.84068 0.0
H752 H 0.72427 0.79195 0.71755 0.0
H753 H 0.71527 0.79549 0.81783 0.0
S754 S 0.85413 0.74459 0.8034 0.0
N755 N 0.83485 0.75096 0.74287 0.0
N756 N 0.82513 0.75489 0.85105 0.0
C757 C 0.79768 0.76398 0.81858 0.0
C758 C 0.803 0.76181 0.7596 0.0
C759 C 0.78948 0.26079 0.24634 0.0
C760 C 0.75857 0.27533 0.22469 0.0
C761 C 0.79552 0.25816 0.30403 0.0
C762 C 0.77095 0.26998 0.3429 0.0
H763 H 0.80941 0.25158 0.21834 0.0
H764 H 0.8199 0.24732 0.3183 0.0
S765 S 0.68435 0.30699 0.30853 0.0
N766 N 0.70226 0.29972 0.24734 0.0
N767 N 0.71335 0.2947 0.35522 0.0
C768 C 0.73968 0.28407 0.32186 0.0
C769 C 0.73359 0.28681 0.26307 0.0
C770 C 0.03095 0.04559 0.06632 0.0
C771 C 1.01849 1.014 0.08886 0.0
C772 C 0.03357 0.05085 1.00844 0.0
C773 C 0.02375 0.0248 0.97032 0.0
H774 H 0.03836 0.06671 0.0937 0.0
H775 H 0.04267 0.07579 0.9934 0.0
S776 S 0.99308 0.93601 1.00712 0.0
N777 N 0.99867 0.95543 0.06773 0.0
N778 N 1.00348 0.9652 0.95964 0.0
C779 C 1.01197 0.99283 0.99224 0.0
C780 C 1.00932 0.98749 0.05115 0.0
C781 C 0.48811 1.01549 0.50459 0.0
C782 C 0.51855 1.01205 0.47288 0.0
C783 C 0.48948 0.0225 0.56213 0.0
C784 C 0.52134 0.02629 0.59069 0.0
H785 H 0.46302 1.01349 0.48453 0.0
H786 H 0.46528 0.02547 0.58432 0.0
S787 S 0.60858 1.01568 0.52816 0.0
N788 N 0.58157 1.01039 0.47542 0.0
N789 N 0.58405 0.02338 0.58296 0.0
C790 C 0.55195 0.02211 0.55965 0.0
C791 C 0.55057 1.01501 0.50108 0.0
C792 C 0.18806 0.1154 0.83737 0.0
C793 C 0.15195 0.11688 0.84657 0.0
C794 C 0.21188 0.12928 0.87548 0.0
C795 C 0.20089 0.14564 0.92463 0.0
H796 H 0.19831 0.10356 0.79998 0.0
H797 H 0.23922 0.12811 0.86536 0.0
S798 S 0.10954 0.15538 0.97055 0.0
N799 N 0.10649 0.13511 0.91011 0.0
N800 N 0.15139 0.1616 0.98167 0.0
C801 C 0.16494 0.14696 0.93511 0.0
C802 C 0.14051 0.13243 0.89629 0.0
C803 C 0.66454 0.46695 0.12409 0.0
C804 C 0.64651 0.45603 0.1717 0.0
C805 C 0.6783 0.44287 0.08627 0.0
C806 C 0.67493 0.40662 0.0943 0.0
H807 H 0.66696 0.49444 0.1147 0.0
H808 H 0.69139 0.45298 0.04993 0.0
S809 S 0.63186 0.36425 0.21422 0.0
N810 N 0.62739 0.40638 0.22634 0.0
N811 N 0.65334 0.36103 0.15513 0.0
C812 C 0.65794 0.39522 0.14268 0.0
C813 C 0.64366 0.41989 0.18123 0.0
C814 C 0.33398 0.92014 0.40102 0.0
C815 C 0.34426 0.89104 0.43247 0.0
C816 C 0.35657 0.93563 0.36264 0.0
C817 C 0.3906 0.92313 0.35495 0.0
H818 H 0.30767 0.92988 0.40397 0.0
H819 H 0.34701 0.95721 0.33788 0.0
S820 S 0.43101 0.84919 0.43017 0.0
N821 N 0.39119 0.85117 0.45522 0.0
N822 N 0.43407 0.88115 0.3844 0.0
C823 C 0.40184 0.89522 0.38823 0.0
C824 C 0.37853 0.8789 0.42653 0.0
C825 C 0.8498 0.6081 0.60389 0.0
C826 C 0.86068 0.64305 0.59976 0.0
C827 C 0.8653 0.58491 0.64166 0.0
C828 C 0.89275 0.59552 0.67622 0.0
H829 H 0.82942 0.59832 0.577 0.0
H830 H 0.85681 0.55801 0.64196 0.0
S831 S 0.92986 0.68446 0.68434 0.0
N832 N 0.89935 0.68758 0.63617 0.0
N833 N 0.92928 0.64358 0.70591 0.0
C834 C 0.90328 0.63057 0.67385 0.0
C835 C 0.88699 0.65446 0.63609 0.0
C836 C 0.87788 0.88119 0.14001 0.0
C837 C 0.84432 0.89484 0.13092 0.0
C838 C 0.9012 0.89714 0.17749 0.0
C839 C 0.89134 0.92665 0.20837 0.0
H840 H 0.88574 0.85743 0.11922 0.0
H841 H 0.92633 0.88524 0.1845 0.0
S842 S 0.80724 0.97344 0.19794 0.0
N843 N 0.80337 0.94067 0.15387 0.0
N844 N 0.84651 0.96996 0.22498 0.0
C845 C 0.85835 0.94112 0.19821 0.0
C846 C 0.83503 0.92542 0.15932 0.0
C847 C 0.39146 0.62098 0.8935 0.0
C848 C 0.39172 0.58505 0.90574 0.0
C849 C 0.37552 0.64528 0.92938 0.0
C850 C 0.3597 0.63463 0.97934 0.0
H851 H 0.40364 0.63035 0.85586 0.0
H852 H 0.37594 0.67259 0.91811 0.0
S853 S 0.35534 0.54342 1.03183 0.0
N854 N 0.37604 0.54027 0.97216 0.0
N855 N 0.34624 0.58516 0.03921 0.0
C856 C 0.36014 0.59865 0.99199 0.0
C857 C 0.37609 0.57411 0.95539 0.0
C858 C 0.66085 0.1653 0.64432 0.0
C859 C 0.69365 0.15049 0.63322 0.0
C860 C 0.63732 0.14924 0.6811 0.0
C861 C 0.6462 0.11833 0.70917 0.0
H862 H 0.65375 0.18997 0.6256 0.0
H863 H 0.61288 0.16203 0.68984 0.0
S864 S 0.72815 0.06851 0.69349 0.0
N865 N 0.73288 0.10233 0.6518 0.0
N866 N 0.68937 0.07283 0.72161 0.0
C867 C 0.67843 0.10285 0.69722 0.0
C868 C 0.70195 0.11872 0.65906 0.0
C869 C 0.15962 0.46649 0.44457 0.0
C870 C 0.14257 0.45527 0.39604 0.0
C871 C 0.17392 0.44267 0.4824 0.0
C872 C 0.17208 0.4064 0.47346 0.0
H873 H 0.16102 0.494 0.45445 0.0
H874 H 0.18632 0.45301 0.51933 0.0
S875 S 0.13169 0.36337 0.35118 0.0
N876 N 0.1257 0.4054 0.33983 0.0
N877 N 0.15269 0.3605 0.41098 0.0
C878 C 0.15582 0.39473 0.42437 0.0
C879 C 0.14099 0.41914 0.38582 0.0
C880 C 0.66888 0.59525 0.40959 0.0
C881 C 0.63953 0.61013 0.38371 0.0
C882 C 0.69354 0.61575 0.43736 0.0
C883 C 0.69001 0.65217 0.441 0.0
H884 H 0.67342 0.56742 0.40744 0.0
H885 H 0.71618 0.60293 0.45466 0.0
S886 S 0.61608 0.70391 0.38523 0.0
N887 N 0.60735 0.66352 0.36623 0.0
N888 N 0.65311 0.70202 0.41979 0.0
C889 C 0.66016 0.66738 0.41685 0.0
C890 C 0.63514 0.64643 0.38795 0.0
C891 C 0.1703 0.95561 0.64983 0.0
C892 C 0.14088 0.94558 0.68019 0.0
C893 C 0.18607 0.93273 0.61199 0.0
C894 C 0.17355 0.89864 0.60387 0.0
H895 H 0.18013 0.98196 0.65319 0.0
H896 H 0.20788 0.9421 0.58798 0.0
S897 S 0.09878 0.85878 0.67622 0.0
N898 N 0.10066 0.89881 0.70143 0.0
N899 N 0.13114 0.85536 0.63163 0.0
C900 C 0.14528 0.88764 0.63607 0.0
C901 C 0.12868 0.91125 0.67378 0.0
C902 C 0.86983 0.40312 0.93404 0.0
C903 C 0.84087 0.38409 0.91515 0.0
C904 C 0.89256 0.41947 0.89622 0.0
C905 C 0.88665 0.41794 0.83835 0.0
H906 H 0.87502 0.40519 0.97819 0.0
H907 H 0.91439 0.43402 0.91249 0.0
S908 S 0.81385 0.37189 0.76817 0.0
N909 N 0.80741 0.36504 0.83503 0.0
N910 N 0.84943 0.39559 0.76455 0.0
C911 C 0.85766 0.39898 0.81932 0.0
C912 C 0.83496 0.38216 0.85752 0.0
C913 C 0.3763 0.11923 0.21743 0.0
C914 C 0.39613 0.09529 0.18639 0.0
C915 C 0.35685 0.14563 0.19118 0.0
C916 C 0.35701 0.14959 0.13301 0.0
H917 H 0.37575 0.11758 0.26237 0.0
H918 H 0.34147 0.16307 0.2166 0.0
S919 S 0.40112 0.09188 1.03208 0.0
N920 N 0.41189 0.07581 0.0934 0.0
N921 N 0.37671 0.12631 0.04494 0.0
C922 C 0.37652 0.12599 0.10143 0.0
C923 C 0.39572 0.09866 0.12788 0.0
C924 C 0.36689 0.41366 0.60742 0.0
C925 C 0.34211 0.39498 0.63832 0.0
C926 C 0.39321 0.4329 0.63394 0.0
C927 C 0.39614 0.43367 0.69223 0.0
H928 H 0.36596 0.41346 0.56241 0.0
H929 H 0.4114 0.44733 0.60865 0.0
S930 S 0.33609 0.39268 0.7925 0.0
N931 N 0.32083 0.38121 0.73098 0.0
N932 N 0.37112 0.41609 0.78012 0.0
C933 C 0.37169 0.41531 0.72365 0.0
C934 C 0.3445 0.39629 0.69688 0.0
C935 C 0.85229 0.10644 0.44932 0.0
C936 C 0.86368 0.14095 0.45729 0.0
C937 C 0.86871 0.08407 0.41137 0.0
C938 C 0.89769 0.09505 0.38074 0.0
H939 H 0.83087 0.09637 0.47348 0.0
H940 H 0.85975 0.0574 0.40807 0.0
S941 S 0.93698 0.18316 0.38434 0.0
N942 N 0.90464 0.18555 0.42913 0.0
N943 N 0.93633 0.14307 0.35922 0.0
C944 C 0.90878 0.12975 0.38707 0.0
C945 C 0.89153 0.15283 0.42487 0.0
C946 C 0.13538 0.641 0.17714 0.0
C947 C 0.13878 0.60461 0.18214 0.0
C948 C 0.16061 0.66105 0.14952 0.0
C949 C 0.19041 0.64559 0.12602 0.0
H950 H 0.11304 0.65414 0.19456 0.0
H951 H 0.15674 0.68894 0.1467 0.0
S952 S 0.21302 0.55159 0.13114 0.0
N953 N 0.17517 0.55415 0.16268 0.0
N954 N 0.22249 0.59177 0.11227 0.0
C955 C 0.19418 0.60927 0.13109 0.0
C956 C 0.16847 0.58886 0.15879 0.0
C957 C 0.62807 0.91541 0.89191 0.0
C958 C 0.64134 0.94909 0.88197 0.0
C959 C 0.6447 0.89221 0.92892 0.0
C960 C 0.6746 0.90229 0.95847 0.0
H961 H 0.60412 0.90735 0.87211 0.0
H962 H 0.63308 0.867 0.93663 0.0
S963 S 0.72057 0.98679 0.94557 0.0
N964 N 0.68718 0.99041 0.90281 0.0
N965 N 0.71776 0.94747 0.97302 0.0
C966 C 0.68865 0.9354 0.9475 0.0
C967 C 0.67222 0.95861 0.9091 0.0
loop_
_geom_bond_atom_site_label_1
_geom_bond_atom_site_label_2
_geom_bond_distance
_geom_bond_site_symmetry_2
_ccdc_geom_bond_type
C0 C1 1.351 . S
C0 N3 1.368 . S
C0 H5 0.931 . S
C1 C0 1.351 . S
C1 N2 1.373 . S
C1 H29 0.930 . S
N2 C1 1.373 . S
N2 C4 1.340 . S
N3 C0 1.368 . S
N3 C4 1.321 . S
N3 Co6 2.135 . S
C4 N2 1.340 . S
C4 N3 1.321 . S
C4 H28 0.930 . S
H5 C0 0.931 . S
Co6 N3 2.135 . S
Co6 N9 2.121 1_554 S
Co6 O14 2.055 . S
Co6 O17 2.039 . S
Co6 N20 2.140 1_554 S
C7 O8 1.227 . S
C7 O17 1.265 . S
O8 C7 1.227 . S
N9 Co6 2.121 1_556 S
N9 C11 1.375 . S
N9 C12 1.313 . S
C10 C11 1.338 . S
C10 N13 1.377 . S
C10 H30 0.930 . S
C11 N9 1.375 . S
C11 C10 1.338 . S
C11 H15 0.931 . S
C12 N9 1.313 . S
C12 N13 1.344 . S
C12 H16 0.930 . S
N13 C10 1.377 . S
N13 C12 1.344 . S
O14 Co6 2.055 . S
O14 C18 1.253 1_554 S
H15 C11 0.931 . S
H16 C12 0.930 . S
O17 Co6 2.039 . S
O17 C7 1.265 . S
C18 O14 1.253 1_556 S
C18 O19 1.227 . S
O19 C18 1.227 . S
N20 Co6 2.140 1_556 S
N20 C23 1.346 1_556 S
N20 C24 1.345 . S
C21 C22 1.387 . S
C21 C25 1.391 . S
C22 C21 1.387 . S
C22 C23 1.369 1_556 S
C22 H31 0.929 1_556 S
C23 N20 1.346 1_554 S
C23 C22 1.369 1_554 S
C23 H26 0.928 . S
C24 N20 1.345 . S
C24 C25 1.371 . S
C24 H27 0.931 . S
C25 C21 1.391 . S
C25 C24 1.371 . S
C25 H32 0.930 . S
H26 C23 0.928 . S
H27 C24 0.931 . S
H28 C4 0.930 . S
H29 C1 0.930 . S
H30 C10 0.930 . S
H31 C22 0.929 1_554 S
H32 C25 0.930 . S
C33 C34 1.351 . S
C33 N36 1.368 . S
C33 H38 0.931 . S
C34 C33 1.351 . S
C34 N35 1.373 . S
C34 H62 0.930 . S
N35 C34 1.373 . S
N35 C37 1.340 . S
N36 C33 1.368 . S
N36 C37 1.321 . S
N36 Co39 2.135 . S
C37 N35 1.340 . S
C37 N36 1.321 . S
C37 H61 0.930 . S
H38 C33 0.931 . S
Co39 N36 2.135 . S
Co39 N42 2.121 . S
Co39 O47 2.055 . S
Co39 O50 2.039 . S
Co39 N53 2.140 . S
C40 O41 1.227 . S
C40 O50 1.265 . S
O41 C40 1.227 . S
N42 Co39 2.121 . S
N42 C44 1.375 . S
N42 C45 1.313 . S
C43 C44 1.338 . S
C43 N46 1.377 . S
C43 H63 0.930 . S
C44 N42 1.375 . S
C44 C43 1.338 . S
C44 H48 0.931 . S
C45 N42 1.313 . S
C45 N46 1.344 . S
C45 H49 0.930 . S
N46 C43 1.377 . S
N46 C45 1.344 . S
O47 Co39 2.055 . S
O47 C51 1.253 . S
H48 C44 0.931 . S
H49 C45 0.930 . S
O50 Co39 2.039 . S
O50 C40 1.265 . S
C51 O47 1.253 . S
C51 O52 1.227 . S
O52 C51 1.227 . S
N53 Co39 2.140 . S
N53 C56 1.346 . S
N53 C57 1.345 . S
C54 C55 1.387 . S
C54 C58 1.391 . S
C55 C54 1.387 . S
C55 C56 1.369 . S
C55 H64 0.929 . S
C56 N53 1.346 . S
C56 C55 1.369 . S
C56 H59 0.928 . S
C57 N53 1.345 . S
C57 C58 1.371 . S
C57 H60 0.931 . S
C58 C54 1.391 . S
C58 C57 1.371 . S
C58 H65 0.930 . S
H59 C56 0.928 . S
H60 C57 0.931 . S
H61 C37 0.930 . S
H62 C34 0.930 . S
H63 C43 0.930 . S
H64 C55 0.929 . S
H65 C58 0.930 . S
C66 C67 1.351 . S
C66 N69 1.368 . S
C66 H71 0.931 . S
C67 C66 1.351 . S
C67 N68 1.373 . S
C67 H95 0.930 . S
N68 C67 1.373 . S
N68 C70 1.340 . S
N69 C66 1.368 . S
N69 C70 1.321 . S
N69 Co72 2.135 . S
C70 N68 1.340 . S
C70 N69 1.321 . S
C70 H94 0.930 . S
H71 C66 0.931 . S
Co72 N69 2.135 . S
Co72 N75 2.121 . S
Co72 O80 2.055 . S
Co72 O83 2.039 . S
Co72 N86 2.140 . S
C73 O74 1.227 . S
C73 O83 1.265 . S
O74 C73 1.227 . S
N75 Co72 2.121 . S
N75 C77 1.375 . S
N75 C78 1.313 . S
C76 C77 1.338 . S
C76 N79 1.377 . S
C76 H96 0.930 . S
C77 N75 1.375 . S
C77 C76 1.338 . S
C77 H81 0.931 . S
C78 N75 1.313 . S
C78 N79 1.344 . S
C78 H82 0.930 . S
N79 C76 1.377 . S
N79 C78 1.344 . S
O80 Co72 2.055 . S
O80 C84 1.253 . S
H81 C77 0.931 . S
H82 C78 0.930 . S
O83 Co72 2.039 . S
O83 C73 1.265 . S
C84 O80 1.253 . S
C84 O85 1.227 . S
O85 C84 1.227 . S
N86 Co72 2.140 . S
N86 C89 1.346 . S
N86 C90 1.345 . S
C87 C88 1.387 . S
C87 C91 1.391 . S
C88 C87 1.387 . S
C88 C89 1.369 . S
C88 H97 0.929 . S
C89 N86 1.346 . S
C89 C88 1.369 . S
C89 H92 0.928 . S
C90 N86 1.345 . S
C90 C91 1.371 . S
C90 H93 0.931 . S
C91 C87 1.391 . S
C91 C90 1.371 . S
C91 H98 0.930 . S
H92 C89 0.928 . S
H93 C90 0.931 . S
H94 C70 0.930 . S
H95 C67 0.930 . S
H96 C76 0.930 . S
H97 C88 0.929 . S
H98 C91 0.930 . S
C99 C100 1.351 1_655 S
C99 N102 1.368 . S
C99 H104 0.931 1_655 S
C100 C99 1.351 1_455 S
C100 N101 1.373 1_455 S
C100 H128 0.930 . S
N101 C100 1.373 1_655 S
N101 C103 1.340 . S
N102 C99 1.368 . S
N102 C103 1.321 . S
N102 Co105 2.135 . S
C103 N101 1.340 . S
C103 N102 1.321 . S
C103 H127 0.930 . S
H104 C99 0.931 1_455 S
Co105 N102 2.135 . S
Co105 N108 2.121 . S
Co105 O113 2.055 . S
Co105 O116 2.039 . S
Co105 N119 2.140 . S
C106 O107 1.227 . S
C106 O116 1.265 . S
O107 C106 1.227 . S
N108 Co105 2.121 . S
N108 C110 1.375 . S
N108 C111 1.313 . S
C109 C110 1.338 . S
C109 N112 1.377 . S
C109 H129 0.930 . S
C110 N108 1.375 . S
C110 C109 1.338 . S
C110 H114 0.931 . S
C111 N108 1.313 . S
C111 N112 1.344 . S
C111 H115 0.930 . S
N112 C109 1.377 . S
N112 C111 1.344 . S
O113 Co105 2.055 . S
O113 C117 1.253 . S
H114 C110 0.931 . S
H115 C111 0.930 . S
O116 Co105 2.039 . S
O116 C106 1.265 . S
C117 O113 1.253 . S
C117 O118 1.227 . S
O118 C117 1.227 . S
N119 Co105 2.140 . S
N119 C122 1.346 . S
N119 C123 1.345 . S
C120 C121 1.387 . S
C120 C124 1.391 . S
C121 C120 1.387 . S
C121 C122 1.369 . S
C121 H130 0.929 . S
C122 N119 1.346 . S
C122 C121 1.369 . S
C122 H125 0.928 . S
C123 N119 1.345 . S
C123 C124 1.371 . S
C123 H126 0.931 . S
C124 C120 1.391 . S
C124 C123 1.371 . S
C124 H131 0.930 . S
H125 C122 0.928 . S
H126 C123 0.931 . S
H127 C103 0.930 . S
H128 C100 0.930 . S
H129 C109 0.930 . S
H130 C121 0.929 . S
H131 C124 0.930 . S
C132 C133 1.351 . S
C132 N135 1.368 . S
C132 H137 0.931 . S
C133 C132 1.351 . S
C133 N134 1.373 . S
C133 H161 0.930 . S
N134 C133 1.373 . S
N134 C136 1.340 . S
N135 C132 1.368 . S
N135 C136 1.321 . S
N135 Co138 2.135 . S
C136 N134 1.340 . S
C136 N135 1.321 . S
C136 H160 0.930 . S
H137 C132 0.931 . S
Co138 N135 2.135 . S
Co138 N141 2.121 1_556 S
Co138 O146 2.055 . S
Co138 O149 2.039 . S
Co138 N152 2.140 1_556 S
C139 O140 1.227 . S
C139 O149 1.265 . S
O140 C139 1.227 . S
N141 Co138 2.121 1_554 S
N141 C143 1.375 . S
N141 C144 1.313 . S
C142 C143 1.338 . S
C142 N145 1.377 . S
C142 H162 0.930 . S
C143 N141 1.375 . S
C143 C142 1.338 . S
C143 H147 0.931 . S
C144 N141 1.313 . S
C144 N145 1.344 . S
C144 H148 0.930 . S
N145 C142 1.377 . S
N145 C144 1.344 . S
O146 Co138 2.055 . S
O146 C150 1.253 1_556 S
H147 C143 0.931 . S
H148 C144 0.930 . S
O149 Co138 2.039 . S
O149 C139 1.265 . S
C150 O146 1.253 1_554 S
C150 O151 1.227 . S
O151 C150 1.227 . S
N152 Co138 2.140 1_554 S
N152 C155 1.346 1_554 S
N152 C156 1.345 . S
C153 C154 1.387 . S
C153 C157 1.391 . S
C154 C153 1.387 . S
C154 C155 1.369 1_554 S
C154 H163 0.929 1_554 S
C155 N152 1.346 1_556 S
C155 C154 1.369 1_556 S
C155 H158 0.928 . S
C156 N152 1.345 . S
C156 C157 1.371 . S
C156 H159 0.931 . S
C157 C153 1.391 . S
C157 C156 1.371 . S
C157 H164 0.930 . S
H158 C155 0.928 . S
H159 C156 0.931 . S
H160 C136 0.930 . S
H161 C133 0.930 . S
H162 C142 0.930 . S
H163 C154 0.929 1_556 S
H164 C157 0.930 . S
C165 C166 1.351 . S
C165 N168 1.368 . S
C165 H170 0.931 . S
C166 C165 1.351 . S
C166 N167 1.373 . S
C166 H194 0.930 . S
N167 C166 1.373 . S
N167 C169 1.340 . S
N168 C165 1.368 . S
N168 C169 1.321 . S
N168 Co171 2.135 . S
C169 N167 1.340 . S
C169 N168 1.321 . S
C169 H193 0.930 . S
H170 C165 0.931 . S
Co171 N168 2.135 . S
Co171 N174 2.121 . S
Co171 O179 2.055 . S
Co171 O182 2.039 . S
Co171 N185 2.140 . S
C172 O173 1.227 . S
C172 O182 1.265 . S
O173 C172 1.227 . S
N174 Co171 2.121 . S
N174 C176 1.375 . S
N174 C177 1.313 . S
C175 C176 1.338 . S
C175 N178 1.377 . S
C175 H195 0.930 . S
C176 N174 1.375 . S
C176 C175 1.338 . S
C176 H180 0.931 . S
C177 N174 1.313 . S
C177 N178 1.344 . S
C177 H181 0.930 . S
N178 C175 1.377 . S
N178 C177 1.344 . S
O179 Co171 2.055 . S
O179 C183 1.253 . S
H180 C176 0.931 . S
H181 C177 0.930 . S
O182 Co171 2.039 . S
O182 C172 1.265 . S
C183 O179 1.253 . S
C183 O184 1.227 . S
O184 C183 1.227 . S
N185 Co171 2.140 . S
N185 C188 1.346 . S
N185 C189 1.345 . S
C186 C187 1.387 . S
C186 C190 1.391 . S
C187 C186 1.387 . S
C187 C188 1.369 . S
C187 H196 0.929 . S
C188 N185 1.346 . S
C188 C187 1.369 . S
C188 H191 0.928 . S
C189 N185 1.345 . S
C189 C190 1.371 . S
C189 H192 0.931 . S
C190 C186 1.391 . S
C190 C189 1.371 . S
C190 H197 0.930 . S
H191 C188 0.928 . S
H192 C189 0.931 . S
H193 C169 0.930 . S
H194 C166 0.930 . S
H195 C175 0.930 . S
H196 C187 0.929 . S
H197 C190 0.930 . S
C198 C199 1.351 . S
C198 N201 1.368 . S
C198 H203 0.931 . S
C199 C198 1.351 . S
C199 N200 1.373 . S
C199 H227 0.930 . S
N200 C199 1.373 . S
N200 C202 1.340 . S
N201 C198 1.368 . S
N201 C202 1.321 . S
N201 Co204 2.135 . S
C202 N200 1.340 . S
C202 N201 1.321 . S
C202 H226 0.930 . S
H203 C198 0.931 . S
Co204 N201 2.135 . S
Co204 N207 2.121 . S
Co204 O212 2.055 . S
Co204 O215 2.039 . S
Co204 N218 2.140 . S
C205 O206 1.227 . S
C205 O215 1.265 . S
O206 C205 1.227 . S
N207 Co204 2.121 . S
N207 C209 1.375 . S
N207 C210 1.313 . S
C208 C209 1.338 . S
C208 N211 1.377 . S
C208 H228 0.930 . S
C209 N207 1.375 . S
C209 C208 1.338 . S
C209 H213 0.931 . S
C210 N207 1.313 . S
C210 N211 1.344 . S
C210 H214 0.930 . S
N211 C208 1.377 . S
N211 C210 1.344 . S
O212 Co204 2.055 . S
O212 C216 1.253 . S
H213 C209 0.931 . S
H214 C210 0.930 . S
O215 Co204 2.039 . S
O215 C205 1.265 . S
C216 O212 1.253 . S
C216 O217 1.227 . S
O217 C216 1.227 . S
N218 Co204 2.140 . S
N218 C221 1.346 . S
N218 C222 1.345 . S
C219 C220 1.387 . S
C219 C223 1.391 . S
C220 C219 1.387 . S
C220 C221 1.369 . S
C220 H229 0.929 . S
C221 N218 1.346 . S
C221 C220 1.369 . S
C221 H224 0.928 . S
C222 N218 1.345 . S
C222 C223 1.371 . S
C222 H225 0.931 . S
C223 C219 1.391 . S
C223 C222 1.371 . S
C223 H230 0.930 . S
H224 C221 0.928 . S
H225 C222 0.931 . S
H226 C202 0.930 . S
H227 C199 0.930 . S
H228 C208 0.930 . S
H229 C220 0.929 . S
H230 C223 0.930 . S
C231 C232 1.351 1_455 S
C231 N234 1.368 . S
C231 H236 0.931 1_455 S
C232 C231 1.351 1_655 S
C232 N233 1.373 1_655 S
C232 H260 0.930 . S
N233 C232 1.373 1_455 S
N233 C235 1.340 . S
N234 C231 1.368 . S
N234 C235 1.321 . S
N234 Co237 2.135 . S
C235 N233 1.340 . S
C235 N234 1.321 . S
C235 H259 0.930 . S
H236 C231 0.931 1_655 S
Co237 N234 2.135 . S
Co237 N240 2.121 . S
Co237 O245 2.055 . S
Co237 O248 2.039 . S
Co237 N251 2.140 . S
C238 O239 1.227 . S
C238 O248 1.265 . S
O239 C238 1.227 . S
N240 Co237 2.121 . S
N240 C242 1.375 . S
N240 C243 1.313 . S
C241 C242 1.338 . S
C241 N244 1.377 . S
C241 H261 0.930 . S
C242 N240 1.375 . S
C242 C241 1.338 . S
C242 H246 0.931 . S
C243 N240 1.313 . S
C243 N244 1.344 . S
C243 H247 0.930 . S
N244 C241 1.377 . S
N244 C243 1.344 . S
O245 Co237 2.055 . S
O245 C249 1.253 . S
H246 C242 0.931 . S
H247 C243 0.930 . S
O248 Co237 2.039 . S
O248 C238 1.265 . S
C249 O245 1.253 . S
C249 O250 1.227 . S
O250 C249 1.227 . S
N251 Co237 2.140 . S
N251 C254 1.346 . S
N251 C255 1.345 . S
C252 C253 1.387 . S
C252 C256 1.391 . S
C253 C252 1.387 . S
C253 C254 1.369 . S
C253 H262 0.929 . S
C254 N251 1.346 . S
C254 C253 1.369 . S
C254 H257 0.928 . S
C255 N251 1.345 . S
C255 C256 1.371 . S
C255 H258 0.931 . S
C256 C252 1.391 . S
C256 C255 1.371 . S
C256 H263 0.930 . S
H257 C254 0.928 . S
H258 C255 0.931 . S
H259 C235 0.930 . S
H260 C232 0.930 . S
H261 C241 0.930 . S
H262 C253 0.929 . S
H263 C256 0.930 . S
C264 C265 1.351 . S
C264 N267 1.368 . S
C264 H269 0.931 . S
C265 C264 1.351 . S
C265 N266 1.373 . S
C265 H293 0.930 . S
N266 C265 1.373 . S
N266 C268 1.340 . S
N267 C264 1.368 . S
N267 C268 1.321 . S
N267 Co270 2.135 . S
C268 N266 1.340 . S
C268 N267 1.321 . S
C268 H292 0.930 . S
H269 C264 0.931 . S
Co270 N267 2.135 . S
Co270 N273 2.121 . S
Co270 O278 2.055 . S
Co270 O281 2.039 . S
Co270 N284 2.140 . S
C271 O272 1.227 . S
C271 O281 1.265 . S
O272 C271 1.227 . S
N273 Co270 2.121 . S
N273 C275 1.375 . S
N273 C276 1.313 . S
C274 C275 1.338 . S
C274 N277 1.377 . S
C274 H294 0.930 . S
C275 N273 1.375 . S
C275 C274 1.338 . S
C275 H279 0.931 . S
C276 N273 1.313 . S
C276 N277 1.344 . S
C276 H280 0.930 . S
N277 C274 1.377 . S
N277 C276 1.344 . S
O278 Co270 2.055 . S
O278 C282 1.253 . S
H279 C275 0.931 . S
H280 C276 0.930 . S
O281 Co270 2.039 . S
O281 C271 1.265 . S
C282 O278 1.253 . S
C282 O283 1.227 . S
O283 C282 1.227 . S
N284 Co270 2.140 . S
N284 C287 1.346 . S
N284 C288 1.345 . S
C285 C286 1.387 . S
C285 C289 1.391 . S
C286 C285 1.387 . S
C286 C287 1.369 . S
C286 H295 0.929 . S
C287 N284 1.346 . S
C287 C286 1.369 . S
C287 H290 0.928 . S
C288 N284 1.345 . S
C288 C289 1.371 . S
C288 H291 0.931 . S
C289 C285 1.391 . S
C289 C288 1.371 . S
C289 H296 0.930 . S
H290 C287 0.928 . S
H291 C288 0.931 . S
H292 C268 0.930 . S
H293 C265 0.930 . S
H294 C274 0.930 . S
H295 C286 0.929 . S
H296 C289 0.930 . S
C297 C298 1.351 1_455 S
C297 N300 1.368 . S
C297 H302 0.931 1_455 S
C298 C297 1.351 1_655 S
C298 N299 1.373 1_655 S
C298 H326 0.930 . S
N299 C298 1.373 1_455 S
N299 C301 1.340 . S
N300 C297 1.368 . S
N300 C301 1.321 . S
N300 Co303 2.135 . S
C301 N299 1.340 . S
C301 N300 1.321 . S
C301 H325 0.930 . S
H302 C297 0.931 1_655 S
Co303 N300 2.135 . S
Co303 N306 2.121 . S
Co303 O311 2.055 . S
Co303 O314 2.039 . S
Co303 N317 2.140 . S
C304 O305 1.227 . S
C304 O314 1.265 . S
O305 C304 1.227 . S
N306 Co303 2.121 . S
N306 C308 1.375 . S
N306 C309 1.313 . S
C307 C308 1.338 . S
C307 N310 1.377 . S
C307 H327 0.930 . S
C308 N306 1.375 . S
C308 C307 1.338 . S
C308 H312 0.931 . S
C309 N306 1.313 . S
C309 N310 1.344 . S
C309 H313 0.930 . S
N310 C307 1.377 . S
N310 C309 1.344 . S
O311 Co303 2.055 . S
O311 C315 1.253 . S
H312 C308 0.931 . S
H313 C309 0.930 . S
O314 Co303 2.039 . S
O314 C304 1.265 . S
C315 O311 1.253 . S
C315 O316 1.227 . S
O316 C315 1.227 . S
N317 Co303 2.140 . S
N317 C320 1.346 . S
N317 C321 1.345 . S
C318 C319 1.387 . S
C318 C322 1.391 1_565 S
C319 C318 1.387 . S
C319 C320 1.369 1_565 S
C319 H328 0.929 . S
C320 N317 1.346 . S
C320 C319 1.369 1_545 S
C320 H323 0.928 . S
C321 N317 1.345 . S
C321 C322 1.371 . S
C321 H324 0.931 . S
C322 C318 1.391 1_545 S
C322 C321 1.371 . S
C322 H329 0.930 . S
H323 C320 0.928 . S
H324 C321 0.931 . S
H325 C301 0.930 . S
H326 C298 0.930 . S
H327 C307 0.930 . S
H328 C319 0.929 . S
H329 C322 0.930 . S
C330 C331 1.351 . S
C330 N333 1.368 . S
C330 H335 0.931 . S
C331 C330 1.351 . S
C331 N332 1.373 . S
C331 H359 0.930 . S
N332 C331 1.373 . S
N332 C334 1.340 . S
N333 C330 1.368 . S
N333 C334 1.321 . S
N333 Co336 2.135 . S
C334 N332 1.340 . S
C334 N333 1.321 . S
C334 H358 0.930 . S
H335 C330 0.931 . S
Co336 N333 2.135 . S
Co336 N339 2.121 1_554 S
Co336 O344 2.055 . S
Co336 O347 2.039 . S
Co336 N350 2.140 1_554 S
C337 O338 1.227 . S
C337 O347 1.265 . S
O338 C337 1.227 . S
N339 Co336 2.121 1_556 S
N339 C341 1.375 . S
N339 C342 1.313 . S
C340 C341 1.338 . S
C340 N343 1.377 . S
C340 H360 0.930 . S
C341 N339 1.375 . S
C341 C340 1.338 . S
C341 H345 0.931 . S
C342 N339 1.313 . S
C342 N343 1.344 . S
C342 H346 0.930 . S
N343 C340 1.377 . S
N343 C342 1.344 . S
O344 Co336 2.055 . S
O344 C348 1.253 1_554 S
H345 C341 0.931 . S
H346 C342 0.930 . S
O347 Co336 2.039 . S
O347 C337 1.265 . S
C348 O344 1.253 1_556 S
C348 O349 1.227 . S
O349 C348 1.227 . S
N350 Co336 2.140 1_556 S
N350 C353 1.346 1_556 S
N350 C354 1.345 . S
C351 C352 1.387 . S
C351 C355 1.391 . S
C352 C351 1.387 . S
C352 C353 1.369 1_556 S
C352 H361 0.929 1_556 S
C353 N350 1.346 1_554 S
C353 C352 1.369 1_554 S
C353 H356 0.928 . S
C354 N350 1.345 . S
C354 C355 1.371 . S
C354 H357 0.931 . S
C355 C351 1.391 . S
C355 C354 1.371 . S
C355 H362 0.930 . S
H356 C353 0.928 . S
H357 C354 0.931 . S
H358 C334 0.930 . S
H359 C331 0.930 . S
H360 C340 0.930 . S
H361 C352 0.929 1_554 S
H362 C355 0.930 . S
C363 C364 1.351 . S
C363 N366 1.368 . S
C363 H368 0.931 . S
C364 C363 1.351 . S
C364 N365 1.373 . S
C364 H392 0.930 . S
N365 C364 1.373 . S
N365 C367 1.340 . S
N366 C363 1.368 . S
N366 C367 1.321 . S
N366 Co369 2.135 . S
C367 N365 1.340 . S
C367 N366 1.321 . S
C367 H391 0.930 . S
H368 C363 0.931 . S
Co369 N366 2.135 . S
Co369 N372 2.121 . S
Co369 O377 2.055 . S
Co369 O380 2.039 . S
Co369 N383 2.140 . S
C370 O371 1.227 . S
C370 O380 1.265 . S
O371 C370 1.227 . S
N372 Co369 2.121 . S
N372 C374 1.375 . S
N372 C375 1.313 . S
C373 C374 1.338 . S
C373 N376 1.377 . S
C373 H393 0.930 . S
C374 N372 1.375 . S
C374 C373 1.338 . S
C374 H378 0.931 . S
C375 N372 1.313 . S
C375 N376 1.344 . S
C375 H379 0.930 . S
N376 C373 1.377 . S
N376 C375 1.344 . S
O377 Co369 2.055 . S
O377 C381 1.253 . S
H378 C374 0.931 . S
H379 C375 0.930 . S
O380 Co369 2.039 . S
O380 C370 1.265 . S
C381 O377 1.253 . S
C381 O382 1.227 . S
O382 C381 1.227 . S
N383 Co369 2.140 . S
N383 C386 1.346 . S
N383 C387 1.345 . S
C384 C385 1.387 . S
C384 C388 1.391 1_545 S
C385 C384 1.387 . S
C385 C386 1.369 1_545 S
C385 H394 0.929 . S
C386 N383 1.346 . S
C386 C385 1.369 1_565 S
C386 H389 0.928 . S
C387 N383 1.345 . S
C387 C388 1.371 . S
C387 H390 0.931 . S
C388 C384 1.391 1_565 S
C388 C387 1.371 . S
C388 H395 0.930 . S
H389 C386 0.928 . S
H390 C387 0.931 . S
H391 C367 0.930 . S
H392 C364 0.930 . S
H393 C373 0.930 . S
H394 C385 0.929 . S
H395 C388 0.930 . S
C396 C397 1.351 . S
C396 N399 1.368 . S
C396 H401 0.931 . S
C397 C396 1.351 . S
C397 N398 1.373 . S
C397 H425 0.930 . S
N398 C397 1.373 . S
N398 C400 1.340 . S
N399 C396 1.368 . S
N399 C400 1.321 . S
N399 Co402 2.135 . S
C400 N398 1.340 . S
C400 N399 1.321 . S
C400 H424 0.930 . S
H401 C396 0.931 . S
Co402 N399 2.135 . S
Co402 N405 2.121 . S
Co402 O410 2.055 . S
Co402 O413 2.039 . S
Co402 N416 2.140 . S
C403 O404 1.227 . S
C403 O413 1.265 . S
O404 C403 1.227 . S
N405 Co402 2.121 . S
N405 C407 1.375 . S
N405 C408 1.313 . S
C406 C407 1.338 . S
C406 N409 1.377 . S
C406 H426 0.930 . S
C407 N405 1.375 . S
C407 C406 1.338 . S
C407 H411 0.931 . S
C408 N405 1.313 . S
C408 N409 1.344 . S
C408 H412 0.930 . S
N409 C406 1.377 . S
N409 C408 1.344 . S
O410 Co402 2.055 . S
O410 C414 1.253 . S
H411 C407 0.931 . S
H412 C408 0.930 . S
O413 Co402 2.039 . S
O413 C403 1.265 . S
C414 O410 1.253 . S
C414 O415 1.227 . S
O415 C414 1.227 . S
N416 Co402 2.140 . S
N416 C419 1.346 . S
N416 C420 1.345 . S
C417 C418 1.387 . S
C417 C421 1.391 . S
C418 C417 1.387 . S
C418 C419 1.369 . S
C418 H427 0.929 . S
C419 N416 1.346 . S
C419 C418 1.369 . S
C419 H422 0.928 . S
C420 N416 1.345 . S
C420 C421 1.371 . S
C420 H423 0.931 . S
C421 C417 1.391 . S
C421 C420 1.371 . S
C421 H428 0.930 . S
H422 C419 0.928 . S
H423 C420 0.931 . S
H424 C400 0.930 . S
H425 C397 0.930 . S
H426 C406 0.930 . S
H427 C418 0.929 . S
H428 C421 0.930 . S
C429 C430 1.351 1_655 S
C429 N432 1.368 . S
C429 H434 0.931 1_655 S
C430 C429 1.351 1_455 S
C430 N431 1.373 1_455 S
C430 H458 0.930 . S
N431 C430 1.373 1_655 S
N431 C433 1.340 . S
N432 C429 1.368 . S
N432 C433 1.321 . S
N432 Co435 2.135 . S
C433 N431 1.340 . S
C433 N432 1.321 . S
C433 H457 0.930 . S
H434 C429 0.931 1_455 S
Co435 N432 2.135 . S
Co435 N438 2.121 . S
Co435 O443 2.055 . S
Co435 O446 2.039 . S
Co435 N449 2.140 . S
C436 O437 1.227 . S
C436 O446 1.265 . S
O437 C436 1.227 . S
N438 Co435 2.121 . S
N438 C440 1.375 . S
N438 C441 1.313 . S
C439 C440 1.338 . S
C439 N442 1.377 . S
C439 H459 0.930 . S
C440 N438 1.375 . S
C440 C439 1.338 . S
C440 H444 0.931 . S
C441 N438 1.313 . S
C441 N442 1.344 . S
C441 H445 0.930 . S
N442 C439 1.377 . S
N442 C441 1.344 . S
O443 Co435 2.055 . S
O443 C447 1.253 . S
H444 C440 0.931 . S
H445 C441 0.930 . S
O446 Co435 2.039 . S
O446 C436 1.265 . S
C447 O443 1.253 . S
C447 O448 1.227 . S
O448 C447 1.227 . S
N449 Co435 2.140 . S
N449 C452 1.346 . S
N449 C453 1.345 . S
C450 C451 1.387 . S
C450 C454 1.391 1_545 S
C451 C450 1.387 . S
C451 C452 1.369 1_545 S
C451 H460 0.929 . S
C452 N449 1.346 . S
C452 C451 1.369 1_565 S
C452 H455 0.928 . S
C453 N449 1.345 . S
C453 C454 1.371 . S
C453 H456 0.931 . S
C454 C450 1.391 1_565 S
C454 C453 1.371 . S
C454 H461 0.930 . S
H455 C452 0.928 . S
H456 C453 0.931 . S
H457 C433 0.930 . S
H458 C430 0.930 . S
H459 C439 0.930 . S
H460 C451 0.929 . S
H461 C454 0.930 . S
C462 C463 1.351 . S
C462 N465 1.368 . S
C462 H467 0.931 . S
C463 C462 1.351 . S
C463 N464 1.373 . S
C463 H491 0.930 . S
N464 C463 1.373 . S
N464 C466 1.340 . S
N465 C462 1.368 . S
N465 C466 1.321 . S
N465 Co468 2.135 . S
C466 N464 1.340 . S
C466 N465 1.321 . S
C466 H490 0.930 . S
H467 C462 0.931 . S
Co468 N465 2.135 . S
Co468 N471 2.121 1_556 S
Co468 O476 2.055 . S
Co468 O479 2.039 . S
Co468 N482 2.140 1_556 S
C469 O470 1.227 . S
C469 O479 1.265 . S
O470 C469 1.227 . S
N471 Co468 2.121 1_554 S
N471 C473 1.375 . S
N471 C474 1.313 . S
C472 C473 1.338 . S
C472 N475 1.377 . S
C472 H492 0.930 . S
C473 N471 1.375 . S
C473 C472 1.338 . S
C473 H477 0.931 . S
C474 N471 1.313 . S
C474 N475 1.344 . S
C474 H478 0.930 . S
N475 C472 1.377 . S
N475 C474 1.344 . S
O476 Co468 2.055 . S
O476 C480 1.253 1_556 S
H477 C473 0.931 . S
H478 C474 0.930 . S
O479 Co468 2.039 . S
O479 C469 1.265 . S
C480 O476 1.253 1_554 S
C480 O481 1.227 . S
O481 C480 1.227 . S
N482 Co468 2.140 1_554 S
N482 C485 1.346 1_554 S
N482 C486 1.345 . S
C483 C484 1.387 . S
C483 C487 1.391 . S
C484 C483 1.387 . S
C484 C485 1.369 1_554 S
C484 H493 0.929 1_554 S
C485 N482 1.346 1_556 S
C485 C484 1.369 1_556 S
C485 H488 0.928 . S
C486 N482 1.345 . S
C486 C487 1.371 . S
C486 H489 0.931 . S
C487 C483 1.391 . S
C487 C486 1.371 . S
C487 H494 0.930 . S
H488 C485 0.928 . S
H489 C486 0.931 . S
H490 C466 0.930 . S
H491 C463 0.930 . S
H492 C472 0.930 . S
H493 C484 0.929 1_556 S
H494 C487 0.930 . S
C495 C496 1.351 . S
C495 N498 1.368 . S
C495 H500 0.931 . S
C496 C495 1.351 . S
C496 N497 1.373 . S
C496 H524 0.930 . S
N497 C496 1.373 . S
N497 C499 1.340 . S
N498 C495 1.368 . S
N498 C499 1.321 . S
N498 Co501 2.135 . S
C499 N497 1.340 . S
C499 N498 1.321 . S
C499 H523 0.930 . S
H500 C495 0.931 . S
Co501 N498 2.135 . S
Co501 N504 2.121 . S
Co501 O509 2.055 . S
Co501 O512 2.039 . S
Co501 N515 2.140 . S
C502 O503 1.227 . S
C502 O512 1.265 . S
O503 C502 1.227 . S
N504 Co501 2.121 . S
N504 C506 1.375 . S
N504 C507 1.313 . S
C505 C506 1.338 . S
C505 N508 1.377 . S
C505 H525 0.930 . S
C506 N504 1.375 . S
C506 C505 1.338 . S
C506 H510 0.931 . S
C507 N504 1.313 . S
C507 N508 1.344 . S
C507 H511 0.930 . S
N508 C505 1.377 . S
N508 C507 1.344 . S
O509 Co501 2.055 . S
O509 C513 1.253 . S
H510 C506 0.931 . S
H511 C507 0.930 . S
O512 Co501 2.039 . S
O512 C502 1.265 . S
C513 O509 1.253 . S
C513 O514 1.227 . S
O514 C513 1.227 . S
N515 Co501 2.140 . S
N515 C518 1.346 . S
N515 C519 1.345 . S
C516 C517 1.387 . S
C516 C520 1.391 1_565 S
C517 C516 1.387 . S
C517 C518 1.369 1_565 S
C517 H526 0.929 . S
C518 N515 1.346 . S
C518 C517 1.369 1_545 S
C518 H521 0.928 . S
C519 N515 1.345 . S
C519 C520 1.371 . S
C519 H522 0.931 . S
C520 C516 1.391 1_545 S
C520 C519 1.371 . S
C520 H527 0.930 . S
H521 C518 0.928 . S
H522 C519 0.931 . S
H523 C499 0.930 . S
H524 C496 0.930 . S
H525 C505 0.930 . S
H526 C517 0.929 . S
H527 C520 0.930 . S
C528 C529 1.369 . S
C528 C530 1.419 . S
C528 H532 0.930 . S
C529 C528 1.369 . S
C529 C538 1.429 . S
C530 C528 1.419 . S
C530 C531 1.363 . S
C530 H533 0.929 . S
C531 C530 1.363 . S
C531 C537 1.428 . S
H532 C528 0.930 . S
H533 C530 0.929 . S
S534 N535 1.613 . S
S534 N536 1.610 . S
N535 S534 1.613 . S
N535 C538 1.350 . S
N536 S534 1.610 . S
N536 C537 1.351 . S
C537 C531 1.428 . S
C537 N536 1.351 . S
C537 C538 1.434 . S
C538 C529 1.429 . S
C538 N535 1.350 . S
C538 C537 1.434 . S
C539 C540 1.369 . S
C539 C541 1.419 . S
C539 H543 0.930 . S
C540 C539 1.369 . S
C540 C549 1.429 . S
C541 C539 1.419 . S
C541 C542 1.363 . S
C541 H544 0.929 . S
C542 C541 1.363 . S
C542 C548 1.428 . S
H543 C539 0.930 . S
H544 C541 0.929 . S
S545 N546 1.613 . S
S545 N547 1.610 . S
N546 S545 1.613 . S
N546 C549 1.350 . S
N547 S545 1.610 . S
N547 C548 1.351 . S
C548 C542 1.428 . S
C548 N547 1.351 . S
C548 C549 1.434 . S
C549 C540 1.429 . S
C549 N546 1.350 . S
C549 C548 1.434 . S
C550 C551 1.369 . S
C550 C552 1.419 . S
C550 H554 0.930 . S
C551 C550 1.369 . S
C551 C560 1.429 . S
C552 C550 1.419 . S
C552 C553 1.363 . S
C552 H555 0.929 . S
C553 C552 1.363 . S
C553 C559 1.428 . S
H554 C550 0.930 . S
H555 C552 0.929 . S
S556 N557 1.613 . S
S556 N558 1.610 . S
N557 S556 1.613 . S
N557 C560 1.350 . S
N558 S556 1.610 . S
N558 C559 1.351 . S
C559 C553 1.428 . S
C559 N558 1.351 . S
C559 C560 1.434 . S
C560 C551 1.429 . S
C560 N557 1.350 . S
C560 C559 1.434 . S
C561 C562 1.369 . S
C561 C563 1.419 . S
C561 H565 0.930 . S
C562 C561 1.369 . S
C562 C571 1.429 . S
C563 C561 1.419 . S
C563 C564 1.363 . S
C563 H566 0.929 . S
C564 C563 1.363 . S
C564 C570 1.428 . S
H565 C561 0.930 . S
H566 C563 0.929 . S
S567 N568 1.613 . S
S567 N569 1.610 . S
N568 S567 1.613 . S
N568 C571 1.350 . S
N569 S567 1.610 . S
N569 C570 1.351 . S
C570 C564 1.428 . S
C570 N569 1.351 . S
C570 C571 1.434 . S
C571 C562 1.429 . S
C571 N568 1.350 . S
C571 C570 1.434 . S
C572 C573 1.369 . S
C572 C574 1.419 . S
C572 H576 0.930 . S
C573 C572 1.369 . S
C573 C582 1.429 . S
C574 C572 1.419 . S
C574 C575 1.363 . S
C574 H577 0.929 . S
C575 C574 1.363 . S
C575 C581 1.428 . S
H576 C572 0.930 . S
H577 C574 0.929 . S
S578 N579 1.613 . S
S578 N580 1.610 . S
N579 S578 1.613 . S
N579 C582 1.350 . S
N580 S578 1.610 . S
N580 C581 1.351 . S
C581 C575 1.428 . S
C581 N580 1.351 . S
C581 C582 1.434 . S
C582 C573 1.429 . S
C582 N579 1.350 . S
C582 C581 1.434 . S
C583 C584 1.369 . S
C583 C585 1.419 . S
C583 H587 0.930 . S
C584 C583 1.369 . S
C584 C593 1.429 . S
C585 C583 1.419 . S
C585 C586 1.363 . S
C585 H588 0.929 . S
C586 C585 1.363 . S
C586 C592 1.428 . S
H587 C583 0.930 . S
H588 C585 0.929 . S
S589 N590 1.613 . S
S589 N591 1.610 . S
N590 S589 1.613 . S
N590 C593 1.350 . S
N591 S589 1.610 . S
N591 C592 1.351 . S
C592 C586 1.428 . S
C592 N591 1.351 . S
C592 C593 1.434 . S
C593 C584 1.429 . S
C593 N590 1.350 . S
C593 C592 1.434 . S
C594 C595 1.369 . S
C594 C596 1.419 . S
C594 H598 0.930 . S
C595 C594 1.369 . S
C595 C604 1.429 . S
C596 C594 1.419 . S
C596 C597 1.363 . S
C596 H599 0.929 . S
C597 C596 1.363 . S
C597 C603 1.428 . S
H598 C594 0.930 . S
H599 C596 0.929 . S
S600 N601 1.613 . S
S600 N602 1.610 . S
N601 S600 1.613 . S
N601 C604 1.350 . S
N602 S600 1.610 . S
N602 C603 1.351 . S
C603 C597 1.428 . S
C603 N602 1.351 . S
C603 C604 1.434 . S
C604 C595 1.429 . S
C604 N601 1.350 . S
C604 C603 1.434 . S
C605 C606 1.369 . S
C605 C607 1.419 . S
C605 H609 0.930 . S
C606 C605 1.369 . S
C606 C615 1.429 . S
C607 C605 1.419 . S
C607 C608 1.363 . S
C607 H610 0.929 . S
C608 C607 1.363 . S
C608 C614 1.428 . S
H609 C605 0.930 . S
H610 C607 0.929 . S
S611 N612 1.613 . S
S611 N613 1.610 . S
N612 S611 1.613 . S
N612 C615 1.350 . S
N613 S611 1.610 . S
N613 C614 1.351 . S
C614 C608 1.428 . S
C614 N613 1.351 . S
C614 C615 1.434 . S
C615 C606 1.429 . S
C615 N612 1.350 . S
C615 C614 1.434 . S
C616 C617 1.369 . S
C616 C618 1.419 . S
C616 H620 0.930 . S
C617 C616 1.369 . S
C617 C626 1.429 . S
C618 C616 1.419 . S
C618 C619 1.363 . S
C618 H621 0.929 . S
C619 C618 1.363 . S
C619 C625 1.428 . S
H620 C616 0.930 . S
H621 C618 0.929 . S
S622 N623 1.613 . S
S622 N624 1.610 . S
N623 S622 1.613 . S
N623 C626 1.350 . S
N624 S622 1.610 . S
N624 C625 1.351 . S
C625 C619 1.428 . S
C625 N624 1.351 . S
C625 C626 1.434 . S
C626 C617 1.429 . S
C626 N623 1.350 . S
C626 C625 1.434 . S
C627 C628 1.369 . S
C627 C629 1.419 . S
C627 H631 0.930 . S
C628 C627 1.369 . S
C628 C637 1.429 . S
C629 C627 1.419 . S
C629 C630 1.363 . S
C629 H632 0.929 . S
C630 C629 1.363 . S
C630 C636 1.428 . S
H631 C627 0.930 . S
H632 C629 0.929 . S
S633 N634 1.613 . S
S633 N635 1.610 . S
N634 S633 1.613 . S
N634 C637 1.350 . S
N635 S633 1.610 . S
N635 C636 1.351 . S
C636 C630 1.428 . S
C636 N635 1.351 . S
C636 C637 1.434 . S
C637 C628 1.429 . S
C637 N634 1.350 . S
C637 C636 1.434 . S
C638 C639 1.369 . S
C638 C640 1.419 . S
C638 H642 0.930 . S
C639 C638 1.369 . S
C639 C648 1.429 . S
C640 C638 1.419 . S
C640 C641 1.363 . S
C640 H643 0.929 . S
C641 C640 1.363 . S
C641 C647 1.428 . S
H642 C638 0.930 . S
H643 C640 0.929 . S
S644 N645 1.613 . S
S644 N646 1.610 . S
N645 S644 1.613 . S
N645 C648 1.350 . S
N646 S644 1.610 . S
N646 C647 1.351 . S
C647 C641 1.428 . S
C647 N646 1.351 . S
C647 C648 1.434 . S
C648 C639 1.429 . S
C648 N645 1.350 . S
C648 C647 1.434 . S
C649 C650 1.369 . S
C649 C651 1.419 . S
C649 H653 0.930 . S
C650 C649 1.369 . S
C650 C659 1.429 . S
C651 C649 1.419 . S
C651 C652 1.363 . S
C651 H654 0.929 . S
C652 C651 1.363 . S
C652 C658 1.428 . S
H653 C649 0.930 . S
H654 C651 0.929 . S
S655 N656 1.613 1_556 S
S655 N657 1.610 . S
N656 S655 1.613 1_554 S
N656 C659 1.350 . S
N657 S655 1.610 . S
N657 C658 1.351 1_556 S
C658 C652 1.428 . S
C658 N657 1.351 1_554 S
C658 C659 1.434 . S
C659 C650 1.429 . S
C659 N656 1.350 . S
C659 C658 1.434 . S
C660 C661 1.369 . S
C660 C662 1.419 . S
C660 H664 0.930 . S
C661 C660 1.369 . S
C661 C670 1.429 . S
C662 C660 1.419 . S
C662 C663 1.363 . S
C662 H665 0.929 . S
C663 C662 1.363 . S
C663 C669 1.428 . S
H664 C660 0.930 . S
H665 C662 0.929 . S
S666 N667 1.613 . S
S666 N668 1.610 . S
N667 S666 1.613 . S
N667 C670 1.350 . S
N668 S666 1.610 . S
N668 C669 1.351 . S
C669 C663 1.428 . S
C669 N668 1.351 . S
C669 C670 1.434 . S
C670 C661 1.429 . S
C670 N667 1.350 . S
C670 C669 1.434 . S
C671 C672 1.369 . S
C671 C673 1.419 . S
C671 H675 0.930 . S
C672 C671 1.369 . S
C672 C681 1.429 . S
C673 C671 1.419 . S
C673 C674 1.363 . S
C673 H676 0.929 . S
C674 C673 1.363 . S
C674 C680 1.428 . S
H675 C671 0.930 . S
H676 C673 0.929 . S
S677 N678 1.613 . S
S677 N679 1.610 . S
N678 S677 1.613 . S
N678 C681 1.350 . S
N679 S677 1.610 . S
N679 C680 1.351 . S
C680 C674 1.428 . S
C680 N679 1.351 . S
C680 C681 1.434 . S
C681 C672 1.429 . S
C681 N678 1.350 . S
C681 C680 1.434 . S
C682 C683 1.369 . S
C682 C684 1.419 . S
C682 H686 0.930 . S
C683 C682 1.369 . S
C683 C692 1.429 . S
C684 C682 1.419 . S
C684 C685 1.363 . S
C684 H687 0.929 . S
C685 C684 1.363 . S
C685 C691 1.428 . S
H686 C682 0.930 . S
H687 C684 0.929 . S
S688 N689 1.613 . S
S688 N690 1.610 . S
N689 S688 1.613 . S
N689 C692 1.350 . S
N690 S688 1.610 . S
N690 C691 1.351 . S
C691 C685 1.428 . S
C691 N690 1.351 . S
C691 C692 1.434 . S
C692 C683 1.429 . S
C692 N689 1.350 . S
C692 C691 1.434 . S
C693 C694 1.369 . S
C693 C695 1.419 . S
C693 H697 0.930 . S
C694 C693 1.369 . S
C694 C703 1.429 . S
C695 C693 1.419 . S
C695 C696 1.363 . S
C695 H698 0.929 1_556 S
C696 C695 1.363 . S
C696 C702 1.428 . S
H697 C693 0.930 . S
H698 C695 0.929 1_554 S
S699 N700 1.613 . S
S699 N701 1.610 . S
N700 S699 1.613 . S
N700 C703 1.350 . S
N701 S699 1.610 . S
N701 C702 1.351 . S
C702 C696 1.428 . S
C702 N701 1.351 . S
C702 C703 1.434 . S
C703 C694 1.429 . S
C703 N700 1.350 . S
C703 C702 1.434 . S
C704 C705 1.369 . S
C704 C706 1.419 . S
C704 H708 0.930 . S
C705 C704 1.369 . S
C705 C714 1.429 . S
C706 C704 1.419 . S
C706 C707 1.363 . S
C706 H709 0.929 . S
C707 C706 1.363 . S
C707 C713 1.428 . S
H708 C704 0.930 . S
H709 C706 0.929 . S
S710 N711 1.613 . S
S710 N712 1.610 . S
N711 S710 1.613 . S
N711 C714 1.350 . S
N712 S710 1.610 . S
N712 C713 1.351 . S
C713 C707 1.428 . S
C713 N712 1.351 . S
C713 C714 1.434 . S
C714 C705 1.429 . S
C714 N711 1.350 . S
C714 C713 1.434 . S
C715 C716 1.369 . S
C715 C717 1.419 . S
C715 H719 0.930 . S
C716 C715 1.369 . S
C716 C725 1.429 . S
C717 C715 1.419 . S
C717 C718 1.363 . S
C717 H720 0.929 . S
C718 C717 1.363 . S
C718 C724 1.428 . S
H719 C715 0.930 . S
H720 C717 0.929 . S
S721 N722 1.613 . S
S721 N723 1.610 . S
N722 S721 1.613 . S
N722 C725 1.350 . S
N723 S721 1.610 . S
N723 C724 1.351 . S
C724 C718 1.428 . S
C724 N723 1.351 . S
C724 C725 1.434 . S
C725 C716 1.429 . S
C725 N722 1.350 . S
C725 C724 1.434 . S
C726 C727 1.369 . S
C726 C728 1.419 . S
C726 H730 0.930 . S
C727 C726 1.369 . S
C727 C736 1.429 . S
C728 C726 1.419 . S
C728 C729 1.363 . S
C728 H731 0.929 . S
C729 C728 1.363 . S
C729 C735 1.428 . S
H730 C726 0.930 . S
H731 C728 0.929 . S
S732 N733 1.613 . S
S732 N734 1.610 . S
N733 S732 1.613 . S
N733 C736 1.350 . S
N734 S732 1.610 . S
N734 C735 1.351 . S
C735 C729 1.428 . S
C735 N734 1.351 . S
C735 C736 1.434 . S
C736 C727 1.429 . S
C736 N733 1.350 . S
C736 C735 1.434 . S
C737 C738 1.369 1_455 S
C737 C739 1.419 1_556 S
C737 H741 0.930 . S
C738 C737 1.369 1_655 S
C738 C747 1.429 . S
C739 C737 1.419 1_554 S
C739 C740 1.363 . S
C739 H742 0.929 . S
C740 C739 1.363 . S
C740 C746 1.428 1_455 S
H741 C737 0.930 . S
H742 C739 0.929 . S
S743 N744 1.600 1_554 S
S743 N745 1.624 . S
N744 S743 1.600 1_556 S
N744 C747 1.350 . S
N745 S743 1.624 . S
N745 C746 1.351 . S
C746 C740 1.428 1_655 S
C746 N745 1.351 . S
C746 C747 1.434 1_554 S
C747 C738 1.429 . S
C747 N744 1.350 . S
C747 C746 1.434 1_556 S
C748 C749 1.369 . S
C748 C750 1.419 . S
C748 H752 0.930 . S
C749 C748 1.369 . S
C749 C758 1.429 . S
C750 C748 1.419 . S
C750 C751 1.363 . S
C750 H753 0.929 . S
C751 C750 1.363 . S
C751 C757 1.428 . S
H752 C748 0.930 . S
H753 C750 0.929 . S
S754 N755 1.613 . S
S754 N756 1.610 . S
N755 S754 1.613 . S
N755 C758 1.350 . S
N756 S754 1.610 . S
N756 C757 1.351 . S
C757 C751 1.428 . S
C757 N756 1.351 . S
C757 C758 1.434 . S
C758 C749 1.429 . S
C758 N755 1.350 . S
C758 C757 1.434 . S
C759 C760 1.369 . S
C759 C761 1.419 . S
C759 H763 0.930 . S
C760 C759 1.369 . S
C760 C769 1.429 . S
C761 C759 1.419 . S
C761 C762 1.363 . S
C761 H764 0.929 . S
C762 C761 1.363 . S
C762 C768 1.428 . S
H763 C759 0.930 . S
H764 C761 0.929 . S
S765 N766 1.613 . S
S765 N767 1.610 . S
N766 S765 1.613 . S
N766 C769 1.350 . S
N767 S765 1.610 . S
N767 C768 1.351 . S
C768 C762 1.428 . S
C768 N767 1.351 . S
C768 C769 1.434 . S
C769 C760 1.429 . S
C769 N766 1.350 . S
C769 C768 1.434 . S
C770 C771 1.369 1_545 S
C770 C772 1.419 1_654 S
C770 H774 0.930 . S
C771 C770 1.369 1_565 S
C771 C780 1.429 . S
C772 C770 1.419 1_456 S
C772 C773 1.363 . S
C772 H775 0.929 . S
C773 C772 1.363 . S
C773 C779 1.428 1_545 S
H774 C770 0.930 . S
H775 C772 0.929 . S
S776 N777 1.613 1_456 S
S776 N778 1.610 . S
N777 S776 1.613 1_654 S
N777 C780 1.350 . S
N778 S776 1.610 . S
N778 C779 1.351 . S
C779 C773 1.428 1_565 S
C779 N778 1.351 . S
C779 C780 1.434 1_456 S
C780 C771 1.429 . S
C780 N777 1.350 . S
C780 C779 1.434 1_654 S
C781 C782 1.369 1_545 S
C781 C783 1.419 . S
C781 H785 0.930 . S
C782 C781 1.369 1_565 S
C782 C791 1.429 . S
C783 C781 1.419 . S
C783 C784 1.363 . S
C783 H786 0.929 . S
C784 C783 1.363 . S
C784 C790 1.428 1_545 S
H785 C781 0.930 . S
H786 C783 0.929 . S
S787 N788 1.613 . S
S787 N789 1.610 . S
N788 S787 1.613 . S
N788 C791 1.350 . S
N789 S787 1.610 . S
N789 C790 1.351 . S
C790 C784 1.428 1_565 S
C790 N789 1.351 . S
C790 C791 1.434 . S
C791 C782 1.429 . S
C791 N788 1.350 . S
C791 C790 1.434 . S
C792 C793 1.369 . S
C792 C794 1.419 . S
C792 H796 0.930 . S
C793 C792 1.369 . S
C793 C802 1.429 . S
C794 C792 1.419 . S
C794 C795 1.363 . S
C794 H797 0.929 . S
C795 C794 1.363 . S
C795 C801 1.428 . S
H796 C792 0.930 . S
H797 C794 0.929 . S
S798 N799 1.613 1_554 S
S798 N800 1.614 . S
N799 S798 1.613 1_556 S
N799 C802 1.350 . S
N800 S798 1.614 . S
N800 C801 1.339 1_554 S
C801 C795 1.428 . S
C801 N800 1.339 1_556 S
C801 C802 1.434 . S
C802 C793 1.429 . S
C802 N799 1.350 . S
C802 C801 1.434 . S
C803 C804 1.369 . S
C803 C805 1.419 . S
C803 H807 0.930 . S
C804 C803 1.369 . S
C804 C813 1.429 . S
C805 C803 1.419 . S
C805 C806 1.363 . S
C805 H808 0.929 . S
C806 C805 1.363 . S
C806 C812 1.428 . S
H807 C803 0.930 . S
H808 C805 0.929 . S
S809 N810 1.613 . S
S809 N811 1.610 . S
N810 S809 1.613 . S
N810 C813 1.350 . S
N811 S809 1.610 . S
N811 C812 1.351 . S
C812 C806 1.428 . S
C812 N811 1.351 . S
C812 C813 1.434 . S
C813 C804 1.429 . S
C813 N810 1.350 . S
C813 C812 1.434 . S
C814 C815 1.369 . S
C814 C816 1.419 . S
C814 H818 0.930 . S
C815 C814 1.369 . S
C815 C824 1.429 . S
C816 C814 1.419 . S
C816 C817 1.363 . S
C816 H819 0.929 . S
C817 C816 1.363 . S
C817 C823 1.428 . S
H818 C814 0.930 . S
H819 C816 0.929 . S
S820 N821 1.613 . S
S820 N822 1.610 . S
N821 S820 1.613 . S
N821 C824 1.350 . S
N822 S820 1.610 . S
N822 C823 1.351 . S
C823 C817 1.428 . S
C823 N822 1.351 . S
C823 C824 1.434 . S
C824 C815 1.429 . S
C824 N821 1.350 . S
C824 C823 1.434 . S
C825 C826 1.369 . S
C825 C827 1.419 . S
C825 H829 0.930 . S
C826 C825 1.369 . S
C826 C835 1.429 . S
C827 C825 1.419 . S
C827 C828 1.363 . S
C827 H830 0.929 . S
C828 C827 1.363 . S
C828 C834 1.428 . S
H829 C825 0.930 . S
H830 C827 0.929 . S
S831 N832 1.613 . S
S831 N833 1.610 . S
N832 S831 1.613 . S
N832 C835 1.350 . S
N833 S831 1.610 . S
N833 C834 1.351 . S
C834 C828 1.428 . S
C834 N833 1.351 . S
C834 C835 1.434 . S
C835 C826 1.429 . S
C835 N832 1.350 . S
C835 C834 1.434 . S
C836 C837 1.369 . S
C836 C838 1.419 . S
C836 H840 0.930 . S
C837 C836 1.369 . S
C837 C846 1.429 . S
C838 C836 1.419 . S
C838 C839 1.363 . S
C838 H841 0.929 . S
C839 C838 1.363 . S
C839 C845 1.428 . S
H840 C836 0.930 . S
H841 C838 0.929 . S
S842 N843 1.613 . S
S842 N844 1.610 . S
N843 S842 1.613 . S
N843 C846 1.350 . S
N844 S842 1.610 . S
N844 C845 1.351 . S
C845 C839 1.428 . S
C845 N844 1.351 . S
C845 C846 1.434 . S
C846 C837 1.429 . S
C846 N843 1.350 . S
C846 C845 1.434 . S
C847 C848 1.369 . S
C847 C849 1.419 . S
C847 H851 0.930 . S
C848 C847 1.369 . S
C848 C857 1.429 . S
C849 C847 1.419 . S
C849 C850 1.363 . S
C849 H852 0.929 . S
C850 C849 1.363 . S
C850 C856 1.428 . S
H851 C847 0.930 . S
H852 C849 0.929 . S
S853 N854 1.613 . S
S853 N855 1.610 . S
N854 S853 1.613 . S
N854 C857 1.350 . S
N855 S853 1.610 . S
N855 C856 1.351 . S
C856 C850 1.428 . S
C856 N855 1.351 . S
C856 C857 1.434 . S
C857 C848 1.429 . S
C857 N854 1.350 . S
C857 C856 1.434 . S
C858 C859 1.369 . S
C858 C860 1.419 . S
C858 H862 0.930 . S
C859 C858 1.369 . S
C859 C868 1.429 . S
C860 C858 1.419 . S
C860 C861 1.363 . S
C860 H863 0.929 . S
C861 C860 1.363 . S
C861 C867 1.428 . S
H862 C858 0.930 . S
H863 C860 0.929 . S
S864 N865 1.613 . S
S864 N866 1.610 . S
N865 S864 1.613 . S
N865 C868 1.350 . S
N866 S864 1.610 . S
N866 C867 1.351 . S
C867 C861 1.428 . S
C867 N866 1.351 . S
C867 C868 1.434 . S
C868 C859 1.429 . S
C868 N865 1.350 . S
C868 C867 1.434 . S
C869 C870 1.369 . S
C869 C871 1.419 . S
C869 H873 0.930 . S
C870 C869 1.369 . S
C870 C879 1.429 . S
C871 C869 1.419 . S
C871 C872 1.363 . S
C871 H874 0.929 . S
C872 C871 1.363 . S
C872 C878 1.428 . S
H873 C869 0.930 . S
H874 C871 0.929 . S
S875 N876 1.613 . S
S875 N877 1.610 . S
N876 S875 1.613 . S
N876 C879 1.350 . S
N877 S875 1.610 . S
N877 C878 1.351 . S
C878 C872 1.428 . S
C878 N877 1.351 . S
C878 C879 1.434 . S
C879 C870 1.429 . S
C879 N876 1.350 . S
C879 C878 1.434 . S
C880 C881 1.369 . S
C880 C882 1.419 . S
C880 H884 0.930 . S
C881 C880 1.369 . S
C881 C890 1.429 . S
C882 C880 1.419 . S
C882 C883 1.363 . S
C882 H885 0.929 . S
C883 C882 1.363 . S
C883 C889 1.428 . S
H884 C880 0.930 . S
H885 C882 0.929 . S
S886 N887 1.613 . S
S886 N888 1.610 . S
N887 S886 1.613 . S
N887 C890 1.350 . S
N888 S886 1.610 . S
N888 C889 1.351 . S
C889 C883 1.428 . S
C889 N888 1.351 . S
C889 C890 1.434 . S
C890 C881 1.429 . S
C890 N887 1.350 . S
C890 C889 1.434 . S
C891 C892 1.369 . S
C891 C893 1.419 . S
C891 H895 0.930 . S
C892 C891 1.369 . S
C892 C901 1.429 . S
C893 C891 1.419 . S
C893 C894 1.363 . S
C893 H896 0.929 . S
C894 C893 1.363 . S
C894 C900 1.428 . S
H895 C891 0.930 . S
H896 C893 0.929 . S
S897 N898 1.613 . S
S897 N899 1.610 . S
N898 S897 1.613 . S
N898 C901 1.350 . S
N899 S897 1.610 . S
N899 C900 1.351 . S
C900 C894 1.428 . S
C900 N899 1.351 . S
C900 C901 1.434 . S
C901 C892 1.429 . S
C901 N898 1.350 . S
C901 C900 1.434 . S
C902 C903 1.369 . S
C902 C904 1.419 . S
C902 H906 0.930 . S
C903 C902 1.369 . S
C903 C912 1.429 . S
C904 C902 1.419 . S
C904 C905 1.363 . S
C904 H907 0.929 . S
C905 C904 1.363 . S
C905 C911 1.428 . S
H906 C902 0.930 . S
H907 C904 0.929 . S
S908 N909 1.613 . S
S908 N910 1.610 . S
N909 S908 1.613 . S
N909 C912 1.350 . S
N910 S908 1.610 . S
N910 C911 1.351 . S
C911 C905 1.428 . S
C911 N910 1.351 . S
C911 C912 1.434 . S
C912 C903 1.429 . S
C912 N909 1.350 . S
C912 C911 1.434 . S
C913 C914 1.369 . S
C913 C915 1.419 . S
C913 H917 0.930 . S
C914 C913 1.369 . S
C914 C923 1.429 . S
C915 C913 1.419 . S
C915 C916 1.363 . S
C915 H918 0.929 . S
C916 C915 1.363 . S
C916 C922 1.428 . S
H917 C913 0.930 . S
H918 C915 0.929 . S
S919 N920 1.613 . S
S919 N921 1.610 . S
N920 S919 1.613 . S
N920 C923 1.350 . S
N921 S919 1.610 . S
N921 C922 1.351 . S
C922 C916 1.428 . S
C922 N921 1.351 . S
C922 C923 1.434 . S
C923 C914 1.429 . S
C923 N920 1.350 . S
C923 C922 1.434 . S
C924 C925 1.369 . S
C924 C926 1.419 . S
C924 H928 0.930 . S
C925 C924 1.369 . S
C925 C934 1.429 . S
C926 C924 1.419 . S
C926 C927 1.363 . S
C926 H929 0.929 . S
C927 C926 1.363 . S
C927 C933 1.428 . S
H928 C924 0.930 . S
H929 C926 0.929 . S
S930 N931 1.613 . S
S930 N932 1.610 . S
N931 S930 1.613 . S
N931 C934 1.350 . S
N932 S930 1.610 . S
N932 C933 1.351 . S
C933 C927 1.428 . S
C933 N932 1.351 . S
C933 C934 1.434 . S
C934 C925 1.429 . S
C934 N931 1.350 . S
C934 C933 1.434 . S
C935 C936 1.369 . S
C935 C937 1.419 . S
C935 H939 0.930 . S
C936 C935 1.369 . S
C936 C945 1.429 . S
C937 C935 1.419 . S
C937 C938 1.363 . S
C937 H940 0.929 . S
C938 C937 1.363 . S
C938 C944 1.428 . S
H939 C935 0.930 . S
H940 C937 0.929 . S
S941 N942 1.613 . S
S941 N943 1.610 . S
N942 S941 1.613 . S
N942 C945 1.350 . S
N943 S941 1.610 . S
N943 C944 1.351 . S
C944 C938 1.428 . S
C944 N943 1.351 . S
C944 C945 1.434 . S
C945 C936 1.429 . S
C945 N942 1.350 . S
C945 C944 1.434 . S
C946 C947 1.369 . S
C946 C948 1.419 . S
C946 H950 0.930 . S
C947 C946 1.369 . S
C947 C956 1.429 . S
C948 C946 1.419 . S
C948 C949 1.363 . S
C948 H951 0.929 . S
C949 C948 1.363 . S
C949 C955 1.428 . S
H950 C946 0.930 . S
H951 C948 0.929 . S
S952 N953 1.613 . S
S952 N954 1.610 . S
N953 S952 1.613 . S
N953 C956 1.350 . S
N954 S952 1.610 . S
N954 C955 1.351 . S
C955 C949 1.428 . S
C955 N954 1.351 . S
C955 C956 1.434 . S
C956 C947 1.429 . S
C956 N953 1.350 . S
C956 C955 1.434 . S
C957 C958 1.369 . S
C957 C959 1.419 . S
C957 H961 0.930 . S
C958 C957 1.369 . S
C958 C967 1.429 . S
C959 C957 1.419 . S
C959 C960 1.363 . S
C959 H962 0.929 . S
C960 C959 1.363 . S
C960 C966 1.428 . S
H961 C957 0.930 . S
H962 C959 0.929 . S
S963 N964 1.613 . S
S963 N965 1.610 . S
N964 S963 1.613 . S
N964 C967 1.350 . S
N965 S963 1.610 . S
N965 C966 1.351 . S
C966 C960 1.428 . S
C966 N965 1.351 . S
C966 C967 1.434 . S
C967 C958 1.429 . S
C967 N964 1.350 . S
C967 C966 1.434 . S
C529 C513 1.487 . S
C531 N13 1.461 . S
C540 N46 1.453 . S
C542 C150 1.482 . S
C551 N79 1.461 . S
C553 C447 1.486 1_455 S
C562 N112 1.453 . S
C564 C216 1.482 . S
C573 N145 1.461 . S
C575 C381 1.486 . S
C584 C18 1.484 . S
C586 N178 1.457 . S
C595 C315 1.484 1_655 S
C597 N211 1.457 . S
C606 N244 1.462 . S
C608 C84 1.486 . S
C617 N277 1.457 . S
C619 C249 1.485 1_655 S
C628 N310 1.460 . S
C630 C414 1.485 . S
C639 C183 1.485 . S
C641 N343 1.460 . S
C650 N376 1.461 . S
C652 C480 1.486 . S
C661 N409 1.462 . S
C663 C117 1.487 1_455 S
C672 N442 1.458 . S
C674 C282 1.485 . S
C683 C51 1.481 . S
C685 N475 1.454 . S
C694 N508 1.453 . S
C696 C348 1.482 . S
C705 N2 1.587 . S
C707 N398 1.586 . S
C716 N167 1.588 . S
C718 N35 1.586 . S
C727 N68 1.584 . S
C729 N464 1.589 . S
C738 N101 1.590 . S
C740 N233 1.584 . S
C749 N266 1.589 . S
C751 N134 1.585 . S
C760 N332 1.588 . S
C762 N200 1.586 . S
C771 N431 1.583 . S
C773 N299 1.590 . S
C782 N365 1.583 . S
C784 N497 1.590 . S
C793 C304 1.392 . S
C795 C21 1.415 . S
C804 C54 1.416 . S
C806 C337 1.390 . S
C815 C87 1.416 . S
C817 C370 1.390 . S
C826 C271 1.387 . S
C828 C120 1.416 . S
C837 C153 1.415 . S
C839 C436 1.389 . S
C848 C186 1.415 . S
C850 C469 1.389 . S
C859 C219 1.416 . S
C861 C502 1.386 . S
C870 C252 1.416 . S
C872 C403 1.387 . S
C881 C40 1.390 . S
C883 C285 1.416 . S
C892 C318 1.415 . S
C894 C73 1.391 . S
C903 C351 1.416 . S
C905 C106 1.386 . S
C914 C384 1.416 . S
C916 C7 1.386 . S
C925 C417 1.416 . S
C927 C172 1.386 . S
C936 C205 1.392 . S
C938 C450 1.415 . S
C947 C238 1.385 . S
C949 C483 1.416 . S
C958 C516 1.415 . S
C960 C139 1.390 . S
