# Generated by pormake.
# Topology smm, (6)-cn, num edge types: 1
# Building blocks:
#     Node 0, Type 0, BuildingBlock: FUNLAD_clean_sbu_0, # of connection points: 6
#     Node 1, Type 0, BuildingBlock: FUNLAD_clean_sbu_0, # of connection points: 6
#     Node 2, Type 0, BuildingBlock: FUNLAD_clean_sbu_0, # of connection points: 6
#     Node 3, Type 0, BuildingBlock: FUNLAD_clean_sbu_0, # of connection points: 6
#     Node 4, Type 0, BuildingBlock: FUNLAD_clean_sbu_0, # of connection points: 6
#     Node 5, Type 0, BuildingBlock: FUNLAD_clean_sbu_0, # of connection points: 6
#     Node 6, Type 0, BuildingBlock: FUNLAD_clean_sbu_0, # of connection points: 6
#     Node 7, Type 0, BuildingBlock: FUNLAD_clean_sbu_0, # of connection points: 6
#     Node 8, Type 0, BuildingBlock: FUNLAD_clean_sbu_0, # of connection points: 6
#     Edge 9, Type (0, 0), BuildingBlock: OJICUG_clean_linker_0, # of connection points: 2
#     Edge 10, Type (0, 0), BuildingBlock: OJICUG_clean_linker_0, # of connection points: 2
#     Edge 11, Type (0, 0), BuildingBlock: OJICUG_clean_linker_0, # of connection points: 2
#     Edge 12, Type (0, 0), BuildingBlock: OJICUG_clean_linker_0, # of connection points: 2
#     Edge 13, Type (0, 0), BuildingBlock: OJICUG_clean_linker_0, # of connection points: 2
#     Edge 14, Type (0, 0), BuildingBlock: OJICUG_clean_linker_0, # of connection points: 2
#     Edge 15, Type (0, 0), BuildingBlock: OJICUG_clean_linker_0, # of connection points: 2
#     Edge 16, Type (0, 0), BuildingBlock: OJICUG_clean_linker_0, # of connection points: 2
#     Edge 17, Type (0, 0), BuildingBlock: OJICUG_clean_linker_0, # of connection points: 2
#     Edge 18, Type (0, 0), BuildingBlock: OJICUG_clean_linker_0, # of connection points: 2
#     Edge 19, Type (0, 0), BuildingBlock: OJICUG_clean_linker_0, # of connection points: 2
#     Edge 20, Type (0, 0), BuildingBlock: OJICUG_clean_linker_0, # of connection points: 2
#     Edge 21, Type (0, 0), BuildingBlock: OJICUG_clean_linker_0, # of connection points: 2
#     Edge 22, Type (0, 0), BuildingBlock: OJICUG_clean_linker_0, # of connection points: 2
#     Edge 23, Type (0, 0), BuildingBlock: OJICUG_clean_linker_0, # of connection points: 2
#     Edge 24, Type (0, 0), BuildingBlock: OJICUG_clean_linker_0, # of connection points: 2
#     Edge 25, Type (0, 0), BuildingBlock: OJICUG_clean_linker_0, # of connection points: 2
#     Edge 26, Type (0, 0), BuildingBlock: OJICUG_clean_linker_0, # of connection points: 2
#     Edge 27, Type (0, 0), BuildingBlock: OJICUG_clean_linker_0, # of connection points: 2
#     Edge 28, Type (0, 0), BuildingBlock: OJICUG_clean_linker_0, # of connection points: 2
#     Edge 29, Type (0, 0), BuildingBlock: OJICUG_clean_linker_0, # of connection points: 2
#     Edge 30, Type (0, 0), BuildingBlock: OJICUG_clean_linker_0, # of connection points: 2
#     Edge 31, Type (0, 0), BuildingBlock: OJICUG_clean_linker_0, # of connection points: 2
#     Edge 32, Type (0, 0), BuildingBlock: OJICUG_clean_linker_0, # of connection points: 2
#     Edge 33, Type (0, 0), BuildingBlock: OJICUG_clean_linker_0, # of connection points: 2
#     Edge 34, Type (0, 0), BuildingBlock: OJICUG_clean_linker_0, # of connection points: 2
#     Edge 35, Type (0, 0), BuildingBlock: OJICUG_clean_linker_0, # of connection points: 2
# Relax obj value: 0.490
# Max RMSD: 0.302
# Mean RMSD: 0.300
data_MOF--net-smm--node1-FUNLAD_clean_sbu_0--edge1-OJICUG_clean_linker_0
_symmetry_space_group_name_H-M    P1
_symmetry_Int_Tables_number       1
_symmetry_cell_setting            triclinic
loop_
_symmetry_equiv_pos_as_xyz
'x, y, z'
_cell_length_a     35.023424
_cell_length_b     34.925418
_cell_length_c     16.930825
_cell_angle_alpha  90.618131
_cell_angle_beta   90.123796
_cell_angle_gamma 119.62002
loop_
_atom_site_label
_atom_site_type_symbol
_atom_site_fract_x
_atom_site_fract_y
_atom_site_fract_z
_atom_type_partial_charge
C0 C 0.93193 0.08509 0.03489 0.0
N1 N 0.01748 0.19071 0.1902 0.0
C2 C 0.98101 0.16043 0.22866 0.0
C3 C 0.9777 0.16222 0.30951 0.0
C4 C 0.01227 0.19527 0.35254 0.0
C5 C 0.05062 0.22565 0.31358 0.0
C6 C 0.05238 0.22301 0.23085 0.0
Zn7 Zn 0.00755 0.18551 0.07067 0.0
C8 C 0.05098 0.15 0.99845 0.0
N9 N 0.96018 0.15867 0.84362 0.0
C10 C 0.92465 0.14847 0.79673 0.0
C11 C 0.0006 0.1731 0.81138 0.0
C12 C 0.00699 0.17807 0.73131 0.0
C13 C 0.97159 0.1677 0.68114 0.0
C14 C 0.92969 0.15282 0.71414 0.0
Zn15 Zn 0.96667 0.16277 0.96479 0.0
O16 O 0.96487 0.11035 0.07921 0.0
C17 C 0.92211 0.19155 0.06629 0.0
O18 O 0.92119 0.10102 0.97844 0.0
H19 H 0.02945 0.18391 0.84769 0.0
H20 H 0.95257 0.13615 0.19685 0.0
H21 H 0.89294 0.13798 0.82308 0.0
O22 O 0.95554 0.19402 0.0986 0.0
O23 O 0.91627 0.18265 0.99202 0.0
H24 H 0.08076 0.24723 0.1993 0.0
O25 O 0.01065 0.22534 0.94222 0.0
O26 O 0.05098 0.25805 0.04465 0.0
O27 O 0.01706 0.13892 0.95468 0.0
O28 O 0.05936 0.17752 0.05362 0.0
C29 C 0.04145 0.2595 0.97206 0.0
H30 H 0.94788 0.13819 0.33823 0.0
H31 H 0.07812 0.25134 0.34631 0.0
H32 H 0.04013 0.19143 0.70922 0.0
H33 H 0.90151 0.14483 0.67684 0.0
C34 C 0.84003 0.89976 0.98127 0.0
N35 N 0.82498 0.79928 0.82248 0.0
C36 C 0.81787 0.82992 0.78648 0.0
C37 C 0.81562 0.83125 0.70568 0.0
C38 C 0.82024 0.80057 0.65979 0.0
C39 C 0.82704 0.76851 0.69665 0.0
C40 C 0.82955 0.76859 0.77953 0.0
Zn41 Zn 0.82004 0.8028 0.9416 0.0
C42 C 0.90045 0.83842 0.01098 0.0
N43 N 0.80221 0.82708 0.16999 0.0
C44 C 0.77011 0.83006 0.21018 0.0
C45 C 0.83295 0.82095 0.20844 0.0
C46 C 0.83248 0.81751 0.28932 0.0
C47 C 0.79979 0.81976 0.33191 0.0
C48 C 0.76826 0.82642 0.2927 0.0
Zn49 Zn 0.80465 0.8205 0.0514 0.0
O50 O 0.85158 0.87765 0.93612 0.0
C51 C 0.72847 0.79061 0.95448 0.0
O52 O 0.81218 0.88004 0.03414 0.0
H53 H 0.85655 0.81568 0.17668 0.0
H54 H 0.81132 0.85235 0.81996 0.0
H55 H 0.74534 0.83374 0.17833 0.0
O56 O 0.76035 0.79528 0.91437 0.0
O57 O 0.73235 0.79249 0.02994 0.0
H58 H 0.83403 0.74382 0.80927 0.0
O59 O 0.7963 0.76107 0.07913 0.0
O60 O 0.79076 0.73005 0.96454 0.0
O61 O 0.87919 0.85071 0.05653 0.0
O62 O 0.8797 0.8097 0.9584 0.0
C63 C 0.78973 0.72774 0.04022 0.0
H64 H 0.80898 0.85554 0.67922 0.0
H65 H 0.83029 0.74404 0.66206 0.0
H66 H 0.85687 0.81188 0.31838 0.0
H67 H 0.74259 0.82827 0.32515 0.0
C68 C 0.14214 0.05163 0.01262 0.0
N69 N 0.15713 0.96264 0.16419 0.0
C70 C 0.16775 0.00218 0.19876 0.0
C71 C 0.17134 0.00814 0.27942 0.0
C72 C 0.16403 0.97332 0.32799 0.0
C73 C 0.15306 0.93231 0.29259 0.0
C74 C 0.14966 0.9276 0.2095 0.0
Zn75 Zn 0.16246 0.9706 0.04275 0.0
C76 C 0.08607 0.93304 0.96586 0.0
N77 N 0.19041 0.02392 0.82201 0.0
C78 C 0.2156 0.06084 0.7795 0.0
C79 C 0.16638 0.98397 0.78503 0.0
C80 C 0.16795 0.97934 0.70435 0.0
C81 C 0.19344 0.01621 0.65921 0.0
C82 C 0.21707 0.05776 0.69662 0.0
Zn83 Zn 0.1845 0.01609 0.94274 0.0
O84 O 0.13439 0.01799 0.05403 0.0
C85 C 0.2565 0.05238 0.04845 0.0
O86 O 0.16873 0.06286 0.95626 0.0
H87 H 0.14678 0.9545 0.81812 0.0
H88 H 0.17713 0.03109 0.16425 0.0
H89 H 0.23459 0.09227 0.80949 0.0
O90 O 0.22403 0.01775 0.07171 0.0
O91 O 0.25464 0.06492 0.97827 0.0
H92 H 0.1423 0.89666 0.18162 0.0
O93 O 0.20195 0.97041 0.92001 0.0
O94 O 0.18693 0.92287 0.01224 0.0
O95 O 0.11091 0.96725 0.92525 0.0
O96 O 0.1019 0.92261 0.02307 0.0
C97 C 0.20209 0.93665 0.94313 0.0
H98 H 0.18189 0.04084 0.30318 0.0
H99 H 0.14754 0.90457 0.32842 0.0
H100 H 0.14876 0.947 0.67721 0.0
H101 H 0.23662 0.08706 0.66245 0.0
C102 C 0.71995 0.48331 0.33581 0.0
N103 N 0.63074 0.48352 0.16365 0.0
C104 C 0.66957 0.49341 0.12876 0.0
C105 C 0.67476 0.49893 0.04822 0.0
C106 C 0.63979 0.49424 1.00218 0.0
C107 C 0.59904 0.4816 0.03744 0.0
C108 C 0.5953 0.47679 0.11971 0.0
Zn109 Zn 0.63777 0.4945 0.2826 0.0
C110 C 0.60032 0.42301 0.37029 0.0
N111 N 0.68389 0.53467 0.50953 0.0
C112 C 0.72096 0.556 0.55487 0.0
C113 C 0.64366 0.51158 0.54365 0.0
C114 C 0.63904 0.50916 0.62422 0.0
C115 C 0.67619 0.52849 0.6726 0.0
C116 C 0.71782 0.55329 0.63781 0.0
Zn117 Zn 0.6768 0.52487 0.38928 0.0
O118 O 0.68758 0.47056 0.28738 0.0
C119 C 0.71344 0.59166 0.27562 0.0
O120 O 0.727 0.51317 0.38554 0.0
H121 H 0.61424 0.49314 0.50879 0.0
H122 H 0.69839 0.50136 0.16335 0.0
H123 H 0.75274 0.57353 0.52708 0.0
O124 O 0.68295 0.55591 0.24923 0.0
O125 O 0.72199 0.59436 0.34992 0.0
H126 H 0.56515 0.47016 0.14854 0.0
O127 O 0.62713 0.53885 0.4017 0.0
O128 O 0.58668 0.51443 0.29536 0.0
O129 O 0.63183 0.45154 0.41374 0.0
O130 O 0.59203 0.43418 0.30504 0.0
C131 C 0.59324 0.53161 0.36465 0.0
H132 H 0.70651 0.50857 0.02242 0.0
H133 H 0.57136 0.47765 1.00246 0.0
H134 H 0.60627 0.49072 0.64831 0.0
H135 H 0.74736 0.56881 0.67384 0.0
C136 C 0.50462 0.23719 0.33301 0.0
N137 N 0.49361 0.14128 0.16492 0.0
C138 C 0.48803 0.17331 0.13066 0.0
C139 C 0.48449 0.17492 0.05006 0.0
C140 C 0.48631 0.14316 1.00231 0.0
C141 C 0.49272 0.11041 0.03763 0.0
C142 C 0.49639 0.11011 0.12026 0.0
Zn143 Zn 0.48511 0.14076 0.28392 0.0
C144 C 0.5627 0.17393 0.36216 0.0
N145 N 0.45943 0.15807 0.51223 0.0
C146 C 0.43036 0.16642 0.55142 0.0
C147 C 0.48615 0.14656 0.55156 0.0
C148 C 0.48389 0.142 0.63232 0.0
C149 C 0.4545 0.15017 0.67405 0.0
C150 C 0.42766 0.16309 0.63396 0.0
Zn151 Zn 0.46574 0.1556 0.39368 0.0
O152 O 0.51622 0.21556 0.28673 0.0
C153 C 0.3928 0.12814 0.28864 0.0
O154 O 0.47516 0.2166 0.38296 0.0
H155 H 0.50862 0.13928 0.52029 0.0
H156 H 0.4823 0.19589 0.16536 0.0
H157 H 0.40926 0.17521 0.51889 0.0
O158 O 0.42585 0.13314 0.25188 0.0
O159 O 0.39449 0.12934 0.36436 0.0
H160 H 0.49942 0.08411 0.14855 0.0
O161 O 0.45537 0.09448 0.41449 0.0
O162 O 0.45698 0.06767 0.29893 0.0
O163 O 0.53989 0.18431 0.40771 0.0
O164 O 0.54397 0.14782 0.30508 0.0
C165 C 0.45229 0.06296 0.37396 0.0
H166 H 0.47777 0.19961 0.02581 0.0
H167 H 0.49393 0.08506 1.00214 0.0
H168 H 0.50536 0.13258 0.66222 0.0
H169 H 0.4051 0.17025 0.66584 0.0
C170 C 0.74896 0.26929 0.33001 0.0
N171 N 0.85639 0.3637 0.19185 0.0
C172 C 0.82091 0.3616 0.1548 0.0
C173 C 0.81387 0.35177 0.07416 0.0
C174 C 0.84414 0.34499 0.03018 0.0
C175 C 0.88293 0.35225 0.06848 0.0
C176 C 0.88837 0.3615 0.14978 0.0
Zn177 Zn 0.84841 0.34721 0.30938 0.0
C178 C 0.81035 0.38663 0.38894 0.0
N179 N 0.81698 0.29128 0.53331 0.0
C180 C 0.80442 0.25375 0.57512 0.0
C181 C 0.82954 0.33023 0.57203 0.0
C182 C 0.82948 0.33296 0.65339 0.0
C183 C 0.81627 0.29535 0.6984 0.0
C184 C 0.80404 0.25511 0.65873 0.0
Zn185 Zn 0.82465 0.3033 0.41187 0.0
O186 O 0.77492 0.30297 0.28915 0.0
C187 C 0.85562 0.26293 0.30194 0.0
O188 O 0.76362 0.25797 0.38783 0.0
H189 H 0.84164 0.36056 0.54036 0.0
H190 H 0.79573 0.36326 0.18899 0.0
H191 H 0.79516 0.22308 0.54421 0.0
O192 O 0.85821 0.29732 0.27433 0.0
O193 O 0.84599 0.25468 0.37538 0.0
H194 H 0.91603 0.36253 0.18036 0.0
O195 O 0.8867 0.348 0.44417 0.0
O196 O 0.91918 0.39073 0.34553 0.0
O197 O 0.79907 0.35138 0.42767 0.0
O198 O 0.83834 0.39734 0.33518 0.0
C199 C 0.92034 0.38034 0.41753 0.0
H200 H 0.78336 0.34655 0.04828 0.0
H201 H 0.90791 0.34871 0.03701 0.0
H202 H 0.84076 0.36496 0.68098 0.0
H203 H 0.79406 0.22529 0.6917 0.0
C204 C 0.26689 0.75617 0.69837 0.0
N205 N 0.35164 0.86671 0.83835 0.0
C206 C 0.31122 0.84407 0.87198 0.0
C207 C 0.30625 0.84177 0.95249 0.0
C208 C 0.3432 0.86079 1.00139 0.0
C209 C 0.38504 0.88503 0.96708 0.0
C210 C 0.38856 0.8876 0.88416 0.0
Zn211 Zn 0.34479 0.85741 0.71791 0.0
C212 C 0.38595 0.81418 0.66338 0.0
N213 N 0.2974 0.81741 0.49271 0.0
C214 C 0.26203 0.81124 0.44915 0.0
C215 C 0.33599 0.82678 0.45744 0.0
C216 C 0.34104 0.83231 0.37689 0.0
C217 C 0.30617 0.82816 0.33121 0.0
C218 C 0.26563 0.81607 0.36686 0.0
Zn219 Zn 0.3048 0.82795 0.61173 0.0
O220 O 0.29887 0.78429 0.74146 0.0
C221 C 0.2625 0.86687 0.69464 0.0
O222 O 0.25826 0.76778 0.63388 0.0
H223 H 0.36478 0.83427 0.49177 0.0
H224 H 0.28182 0.82611 0.83676 0.0
H225 H 0.23208 0.805 0.47828 0.0
O226 O 0.29623 0.87293 0.73081 0.0
O227 O 0.25488 0.84943 0.62548 0.0
H228 H 0.42049 0.90481 0.85679 0.0
O229 O 0.35063 0.88915 0.57885 0.0
O230 O 0.39084 0.92693 0.67898 0.0
O231 O 0.35365 0.80267 0.61518 0.0
O232 O 0.39406 0.8441 0.71374 0.0
C233 C 0.38168 0.92461 0.60497 0.0
H234 H 0.27334 0.82381 0.97615 0.0
H235 H 0.41444 0.90029 1.0035 0.0
H236 H 0.37261 0.84148 0.3508 0.0
H237 H 0.23802 0.81251 0.33216 0.0
C238 C 0.17387 0.5694 0.67206 0.0
N239 N 0.16152 0.46772 0.5198 0.0
C240 C 0.15315 0.49659 0.48035 0.0
C241 C 0.15584 0.4995 0.39929 0.0
C242 C 0.16768 0.47278 0.35612 0.0
C243 C 0.17562 0.44237 0.39676 0.0
C244 C 0.17255 0.44053 0.47981 0.0
Zn245 Zn 0.15342 0.47242 0.63932 0.0
C246 C 0.23252 0.50737 0.71599 0.0
N247 N 0.13256 0.50116 0.86596 0.0
C248 C 0.10011 0.46818 0.90794 0.0
C249 C 0.16902 0.53365 0.90227 0.0
C250 C 0.17644 0.5309 0.98231 0.0
C251 C 0.14544 0.49494 0.02606 0.0
C252 C 0.1058 0.46458 0.98863 0.0
Zn253 Zn 0.13749 0.49112 0.74891 0.0
O254 O 0.1853 0.54643 0.62912 0.0
C255 C 0.06194 0.45992 0.6466 0.0
O256 O 0.14574 0.55065 0.72495 0.0
H257 H 0.19439 0.55959 0.86781 0.0
H258 H 0.1432 0.51731 0.51127 0.0
H259 H 0.07168 0.44232 0.87759 0.0
O260 O 0.09416 0.46444 0.60762 0.0
O261 O 0.06553 0.46298 0.72211 0.0
H262 H 0.17875 0.41751 0.51189 0.0
O263 O 0.12937 0.43224 0.78218 0.0
O264 O 0.12358 0.40071 0.66734 0.0
O265 O 0.21124 0.5201 0.76058 0.0
O266 O 0.2122 0.4793 0.66227 0.0
C267 C 0.12241 0.39868 0.74318 0.0
H268 H 0.14787 0.52226 0.37048 0.0
H269 H 0.18438 0.42079 0.36497 0.0
H270 H 0.20757 0.5552 0.00776 0.0
H271 H 0.08025 0.43714 0.02026 0.0
C272 C 0.47671 0.71649 0.69838 0.0
N273 N 0.49342 0.62631 0.84255 0.0
C274 C 0.50798 0.66681 0.87661 0.0
C275 C 0.51177 0.67293 0.9572 0.0
C276 C 0.49951 0.63708 1.0063 0.0
C277 C 0.48472 0.5951 0.97144 0.0
C278 C 0.48185 0.59038 0.88832 0.0
Zn279 Zn 0.49558 0.63362 0.72099 0.0
C280 C 0.41652 0.59763 0.65438 0.0
N281 N 0.51766 0.68705 0.50129 0.0
C282 C 0.54592 0.72279 0.4588 0.0
C283 C 0.49017 0.6479 0.46439 0.0
C284 C 0.49117 0.64278 0.38368 0.0
C285 C 0.5202 0.67828 0.33874 0.0
C286 C 0.5473 0.71922 0.37606 0.0
Zn287 Zn 0.51505 0.67919 0.62183 0.0
O288 O 0.46912 0.68247 0.73867 0.0
C289 C 0.59031 0.71369 0.71897 0.0
O290 O 0.50216 0.72732 0.64038 0.0
H291 H 0.4691 0.619 0.49763 0.0
H292 H 0.51874 0.69583 0.84156 0.0
H293 H 0.56806 0.75338 0.48889 0.0
O294 O 0.5581 0.67944 0.74371 0.0
O295 O 0.58672 0.72684 0.65035 0.0
H296 H 0.47064 0.55844 0.86087 0.0
O297 O 0.52959 0.63202 0.59305 0.0
O298 O 0.51813 0.585 0.68462 0.0
O299 O 0.44015 0.63178 0.61261 0.0
O300 O 0.4343 0.58643 0.707 0.0
C301 C 0.5303 0.59818 0.6139 0.0
H302 H 0.52502 0.70612 0.98068 0.0
H303 H 0.47518 0.56649 0.00774 0.0
H304 H 0.4696 0.61092 0.35656 0.0
H305 H 0.56988 0.74746 0.34206 0.0
C306 C 0.04559 0.29163 0.8384 0.0
C307 C 0.06508 0.29619 0.91438 0.0
H308 H 0.04929 0.3184 0.7232 0.0
C309 C 0.10712 0.3322 0.92726 0.0
H310 H 0.01308 0.26454 0.82498 0.0
C311 C 0.12801 0.36318 0.86694 0.0
C312 C 0.10781 0.35871 0.79191 0.0
H313 H 0.12357 0.33669 0.98362 0.0
H314 H 0.15934 0.39213 0.88025 0.0
C315 C 0.06668 0.322 0.77825 0.0
C316 C 0.65271 0.73497 0.91447 0.0
C317 C 0.68797 0.77751 0.90718 0.0
H318 H 0.59741 0.68127 0.86022 0.0
C319 C 0.69133 0.8003 0.83617 0.0
H320 H 0.65015 0.71565 0.96591 0.0
C321 C 0.66068 0.78059 0.77351 0.0
C322 C 0.62639 0.73706 0.77962 0.0
H323 H 0.71937 0.83273 0.82743 0.0
H324 H 0.66434 0.79899 0.72032 0.0
C325 C 0.62298 0.71501 0.85181 0.0
C326 C 0.24012 0.94177 0.8159 0.0
C327 C 0.21595 0.91516 0.88032 0.0
H328 H 0.26949 0.94659 0.70303 0.0
C329 C 0.20025 0.86966 0.8732 0.0
H330 H 0.25308 0.97709 0.81776 0.0
C331 C 0.20995 0.85211 0.80502 0.0
C332 C 0.23434 0.87925 0.74132 0.0
H333 H 0.18085 0.84782 0.91991 0.0
H334 H 0.20069 0.81756 0.80414 0.0
C335 C 0.24851 0.9242 0.74789 0.0
C336 C 0.36 0.13675 0.16292 0.0
C337 C 0.35372 0.11621 0.23753 0.0
H338 H 0.33541 0.13363 0.04423 0.0
C339 C 0.31507 0.07668 0.24908 0.0
H340 H 0.39031 0.1669 0.15136 0.0
C341 C 0.28486 0.05695 0.18693 0.0
C342 C 0.29141 0.07633 0.11091 0.0
H343 H 0.3098 0.05907 0.30389 0.0
H344 H 0.25667 0.02518 0.19872 0.0
C345 C 0.32911 0.11732 0.1006 0.0
C346 C 0.87752 0.20579 0.26188 0.0
C347 C 0.86267 0.23493 0.24226 0.0
H348 H 0.90518 0.16706 0.21987 0.0
C349 C 0.85875 0.24191 0.16052 0.0
H350 H 0.88049 0.19899 0.32317 0.0
C351 C 0.87405 0.22464 0.10094 0.0
C352 C 0.8929 0.19904 0.12124 0.0
H353 H 0.84592 0.26301 0.14227 0.0
H354 H 0.87399 0.23396 0.04017 0.0
C355 C 0.89199 0.18782 0.20203 0.0
C356 C 0.79709 0.69481 0.16561 0.0
C357 C 0.77712 0.68823 0.08973 0.0
H358 H 0.79303 0.67117 0.28444 0.0
C359 C 0.73784 0.64922 0.07579 0.0
H360 H 0.82714 0.72518 0.179 0.0
C361 C 0.71804 0.61884 0.13677 0.0
C362 C 0.73669 0.62632 0.21416 0.0
H363 H 0.72068 0.64367 0.01987 0.0
H364 H 0.68688 0.58977 0.12326 0.0
C365 C 0.77718 0.66443 0.22702 0.0
C366 C 0.98305 0.40805 0.61408 0.0
C367 C 0.02172 0.44693 0.59834 0.0
H368 H 0.92266 0.35627 0.56943 0.0
C369 C 0.02651 0.46568 0.52243 0.0
H370 H 0.97884 0.39186 0.67021 0.0
C371 C -0.00566 0.44499 0.4627 0.0
C372 C 0.95658 0.4047 0.47719 0.0
H373 H 0.05663 0.49535 0.5078 0.0
H374 H -0.00047 0.45992 0.40514 0.0
C375 C 0.95122 0.38724 0.55459 0.0
C376 C 0.56226 0.60219 0.47997 0.0
C377 C 0.54283 0.57682 0.5485 0.0
H378 H 0.58968 0.60667 0.36518 0.0
C379 C 0.53214 0.53243 0.5459 0.0
H380 H 0.57142 0.63668 0.47811 0.0
C381 C 0.54247 0.51505 0.4783 0.0
C382 C 0.56303 0.54124 0.41122 0.0
H383 H 0.51662 0.51148 0.59598 0.0
H384 H 0.53722 0.4818 0.48063 0.0
C385 C 0.57176 0.58476 0.41297 0.0
C386 C 0.46265 0.02964 0.49605 0.0
C387 C 0.44193 0.02316 0.42094 0.0
H388 H 0.46026 0.00528 0.61381 0.0
C389 C 0.40349 0.9834 0.40662 0.0
H390 H 0.49213 0.06047 0.50961 0.0
C391 C 0.38507 0.95221 0.46675 0.0
C392 C 0.40423 0.95963 0.54374 0.0
H393 H 0.38579 0.9778 0.35129 0.0
H394 H 0.35439 0.92262 0.45305 0.0
C395 C 0.44405 -0.00152 0.55672 0.0
C396 C 0.1303 0.11187 0.0616 0.0
C397 C 0.11531 0.07298 0.01758 0.0
H398 H 0.12262 0.16746 0.08803 0.0
C399 C 0.08084 0.06074 0.96273 0.0
H400 H 0.1581 0.12285 0.1015 0.0
C401 C 0.06087 0.08663 0.95327 0.0
C402 C 0.07541 0.12543 0.99816 0.0
H403 H 0.07022 0.03173 0.92551 0.0
H404 H 0.03394 0.07608 0.91153 0.0
C405 C 0.11049 0.13777 0.05222 0.0
C406 C 0.84165 0.96932 0.01651 0.0
C407 C 0.864 0.94809 0.98719 0.0
H408 H 0.84642 0.02957 0.05845 0.0
C409 C 0.90998 0.97187 0.98219 0.0
H410 H 0.80621 0.95153 0.02215 0.0
C411 C 0.93312 0.01608 0.00703 0.0
C412 C 0.91049 0.03709 0.03593 0.0
H413 H 0.92799 0.95607 0.96104 0.0
H414 H 0.96841 0.0344 1.00019 0.0
C415 C 0.86461 0.01343 0.0398 0.0
C416 C 0.97318 0.90772 0.02345 0.0
C417 C 0.94877 0.86265 1.00464 0.0
H418 H 0.03622 0.96633 0.02058 0.0
C419 C 0.9697 0.84239 0.96531 0.0
H420 H 0.95792 0.92425 0.05319 0.0
C421 C 0.01403 0.86651 0.94565 0.0
C422 C 0.03814 0.91162 0.96304 0.0
H423 H 0.95168 0.8077 0.94954 0.0
H424 H 0.02987 0.84965 0.91911 0.0
C425 C 0.01749 0.93205 1.0024 0.0
C426 C 0.73005 0.41798 0.30936 0.0
C427 C 0.74404 0.45883 0.34672 0.0
H428 H 0.73954 0.36219 0.29677 0.0
C429 C 0.77817 0.47386 0.40366 0.0
H430 H 0.70404 0.40547 0.26535 0.0
C431 C 0.79775 0.44866 0.42275 0.0
C432 C 0.78317 0.40766 0.38632 0.0
H433 H 0.78986 0.50525 0.43382 0.0
H434 H 0.82511 0.46176 0.46409 0.0
C435 C 0.74951 0.39269 0.32898 0.0
C436 C 0.59997 0.35314 0.35168 0.0
C437 C 0.57922 0.37563 0.38256 0.0
H438 H 0.59217 0.29188 0.30698 0.0
C439 C 0.53383 0.35251 0.39477 0.0
H440 H 0.63468 0.37087 0.33858 0.0
C441 C 0.50949 0.30773 0.37583 0.0
C442 C 0.52989 0.28545 0.34222 0.0
H443 H 0.51687 0.36963 0.41494 0.0
H444 H 0.47443 0.29058 0.38634 0.0
C445 C 0.57547 0.30844 0.33104 0.0
C446 C 0.63504 0.24269 0.38324 0.0
C447 C 0.61112 0.1981 0.36089 0.0
H448 H 0.69818 0.3012 0.38683 0.0
C449 C 0.63289 0.17884 0.32112 0.0
H450 H 0.61908 0.25854 0.41294 0.0
C451 C 0.67744 0.20354 0.30376 0.0
C452 C 0.70115 0.24819 0.32466 0.0
H453 H 0.61523 0.14454 0.3026 0.0
H454 H 0.69377 0.18739 0.27638 0.0
C455 C 0.67979 0.26751 0.36538 0.0
C456 C 0.41594 0.72411 0.64264 0.0
C457 C 0.44845 0.73637 0.70164 0.0
H458 H 0.37127 0.73943 0.58252 0.0
C459 C 0.46122 0.77484 0.74589 0.0
H460 H 0.40715 0.69556 0.60513 0.0
C461 C 0.44156 0.80057 0.73164 0.0
C462 C 0.40908 0.78857 0.67212 0.0
H463 H 0.48757 0.78593 0.78906 0.0
H464 H 0.45215 0.83014 0.76717 0.0
C465 C 0.39626 0.7498 0.62821 0.0
C466 C 0.17679 0.64019 0.7043 0.0
C467 C 0.19806 0.61785 0.67476 0.0
H468 H 0.18285 0.70223 0.73854 0.0
C469 C 0.24363 0.64135 0.66362 0.0
H470 H 0.1417 0.6227 0.7145 0.0
C471 C 0.2674 0.68646 0.68165 0.0
C472 C 0.24585 0.70873 0.70984 0.0
H473 H 0.26091 0.62482 0.64224 0.0
H474 H 0.30221 0.70446 0.66931 0.0
C475 C 0.20038 0.68528 0.72063 0.0
C476 C 0.34427 0.53037 0.6525 0.0
C477 C 0.36855 0.57637 0.6579 0.0
H478 H 0.28255 0.47232 0.67041 0.0
C479 C 0.34897 0.59941 0.6916 0.0
H480 H 0.35935 0.51175 0.63056 0.0
C481 C 0.30538 0.57673 0.71778 0.0
C482 C 0.2808 0.53068 0.71035 0.0
H483 H 0.36795 0.63467 0.70111 0.0
H484 H 0.29061 0.5952 0.74165 0.0
C485 C 0.30087 0.50783 0.67779 0.0
C486 C 0.96421 0.19627 0.54986 0.0
C487 C 0.98059 0.17425 0.59565 0.0
H488 H 0.96298 0.22167 0.43546 0.0
C489 C 0.01006 0.16249 0.56145 0.0
H490 H 0.9419 0.20611 0.57493 0.0
C491 C 0.02353 0.17315 0.48376 0.0
C492 C 0.00717 0.19499 0.43822 0.0
H493 H 0.02272 0.14485 0.59495 0.0
H494 H 0.04512 0.16251 0.45805 0.0
C495 C 0.97718 0.20625 0.47123 0.0
C496 C 0.78305 0.76825 0.53095 0.0
C497 C 0.81671 0.80319 0.57406 0.0
H498 H 0.75004 0.74693 0.41857 0.0
C499 C 0.84251 0.84401 0.53797 0.0
H500 H 0.76235 0.73682 0.55848 0.0
C501 C 0.83451 0.85013 0.4602 0.0
C502 C 0.80071 0.81552 0.41726 0.0
H503 H 0.86842 0.87145 0.57066 0.0
H504 H 0.85545 0.88155 0.43273 0.0
C505 C 0.77517 0.77438 0.45241 0.0
C506 C 0.20473 0.98163 0.53858 0.0
C507 C 0.19126 0.00981 0.57308 0.0
H508 H 0.20646 0.94757 0.43346 0.0
C509 C 0.16709 0.02384 0.52816 0.0
H510 H 0.22231 0.96938 0.57344 0.0
C511 C 0.15635 0.00987 0.44988 0.0
C512 C 0.17041 0.98232 0.41422 0.0
H513 H 0.15488 0.04406 0.55464 0.0
H514 H 0.13694 0.02074 0.41701 0.0
C515 C 0.19469 0.96825 0.45944 0.0
C516 C 0.63892 0.47743 0.78354 0.0
C517 C 0.66971 0.51999 0.75808 0.0
H518 H 0.60397 0.43654 0.88094 0.0
C519 C 0.69024 0.55422 0.81391 0.0
H520 H 0.62323 0.45013 0.74188 0.0
C521 C 0.67935 0.54607 0.89362 0.0
C522 C 0.64749 0.50383 0.91796 0.0
H523 H 0.71379 0.58726 0.79581 0.0
H524 H 0.69575 0.57264 0.93645 0.0
C525 C 0.6275 0.46957 0.86265 0.0
C526 C 0.43769 0.10772 0.79748 0.0
C527 C 0.45622 0.14857 0.75982 0.0
H528 H 0.43306 0.07381 0.905 0.0
C529 C 0.48586 0.18691 0.80056 0.0
H530 H 0.41598 0.07764 0.76534 0.0
C531 C 0.49716 0.18459 0.87827 0.0
C532 C 0.47839 0.14391 0.91701 0.0
H533 H 0.50185 0.21835 0.77099 0.0
H534 H 0.52077 0.21472 0.90817 0.0
C535 C 0.44843 0.10542 0.87611 0.0
C536 C 0.83989 0.28654 0.83481 0.0
C537 C 0.81698 0.30064 0.78583 0.0
H538 H 0.86626 0.28911 0.95035 0.0
C539 C 0.80082 0.32688 0.81898 0.0
H540 H 0.85305 0.26661 0.81084 0.0
C541 C 0.80974 0.3412 0.89746 0.0
C542 C 0.83425 0.32885 0.94626 0.0
H543 H 0.78287 0.33818 0.78281 0.0
H544 H 0.79855 0.36328 0.91875 0.0
C545 C 0.84831 0.30038 0.91432 0.0
C546 C 0.29324 0.80311 0.19191 0.0
C547 C 0.31373 0.83749 0.24688 0.0
H548 H 0.28875 0.78309 0.07146 0.0
C549 C 0.34613 0.87941 0.22215 0.0
H550 H 0.26927 0.77031 0.21052 0.0
C551 C 0.35719 0.88709 0.14241 0.0
C552 C 0.33625 0.85272 0.08695 0.0
H553 H 0.36292 0.90605 0.26471 0.0
H554 H 0.38124 0.91988 0.12403 0.0
C555 C 0.30478 0.8105 0.11279 0.0
C556 C 0.18095 0.52506 0.15818 0.0
C557 C 0.15515 0.48849 0.10906 0.0
H558 H 0.20741 0.54841 0.27347 0.0
C559 C 0.139 0.44589 0.14002 0.0
H560 H 0.19387 0.55837 0.1374 0.0
C561 C 0.1459 0.44024 0.21957 0.0
C562 C 0.16954 0.47707 0.26914 0.0
H563 H 0.12026 0.41684 0.10337 0.0
H564 H 0.13075 0.40728 0.24315 0.0
C565 C 0.18862 0.51938 0.23666 0.0
C566 C 0.50057 0.68911 0.20384 0.0
C567 C 0.51963 0.67124 0.25298 0.0
H568 H 0.47656 0.68996 0.08853 0.0
C569 C 0.53012 0.64003 0.22211 0.0
H570 H 0.4907 0.71187 0.22731 0.0
C571 C 0.52236 0.6275 0.14231 0.0
C572 C 0.50339 0.64557 0.09275 0.0
H573 H 0.54375 0.62496 0.26015 0.0
H574 H 0.53183 0.60437 0.11924 0.0
C575 C 0.49205 0.67604 0.12481 0.0
loop_
_geom_bond_atom_site_label_1
_geom_bond_atom_site_label_2
_geom_bond_distance
_geom_bond_site_symmetry_2
_ccdc_geom_bond_type
C0 O16 1.251 . S
C0 O18 1.254 1_554 S
N1 C2 1.333 . S
N1 C6 1.307 . S
N1 Zn7 2.020 . S
C2 N1 1.333 . S
C2 C3 1.379 . S
C2 H20 0.952 1_455 S
C3 C2 1.379 . S
C3 C4 1.390 . S
C3 H30 0.949 1_455 S
C4 C3 1.390 . S
C4 C5 1.357 . S
C5 C4 1.357 . S
C5 C6 1.370 . S
C5 H31 0.950 . S
C6 N1 1.307 . S
C6 C5 1.370 . S
C6 H24 0.948 . S
Zn7 N1 2.020 . S
Zn7 O16 2.039 1_455 S
Zn7 O22 2.034 1_455 S
Zn7 O26 2.025 . S
Zn7 O28 2.024 . S
C8 O27 1.246 . S
C8 O28 1.249 1_556 S
N9 C10 1.307 . S
N9 C11 1.333 1_655 S
N9 Zn15 2.020 . S
C10 N9 1.307 . S
C10 C14 1.370 . S
C10 H21 0.948 . S
C11 N9 1.333 1_455 S
C11 C12 1.379 . S
C11 H19 0.952 . S
C12 C11 1.379 . S
C12 C13 1.390 1_455 S
C12 H32 0.949 . S
C13 C12 1.390 1_655 S
C13 C14 1.357 . S
C14 C10 1.370 . S
C14 C13 1.357 . S
C14 H33 0.950 . S
Zn15 N9 2.020 . S
Zn15 O18 2.025 . S
Zn15 O23 2.024 . S
Zn15 O25 2.039 1_655 S
Zn15 O27 2.034 1_655 S
O16 C0 1.251 . S
O16 Zn7 2.039 1_655 S
C17 O22 1.246 . S
C17 O23 1.249 1_554 S
O18 C0 1.254 1_556 S
O18 Zn15 2.025 . S
H19 C11 0.952 . S
H20 C2 0.952 1_655 S
H21 C10 0.948 . S
O22 Zn7 2.034 1_655 S
O22 C17 1.246 . S
O23 Zn15 2.024 . S
O23 C17 1.249 1_556 S
H24 C6 0.948 . S
O25 Zn15 2.039 1_455 S
O25 C29 1.251 . S
O26 Zn7 2.025 . S
O26 C29 1.254 1_554 S
O27 C8 1.246 . S
O27 Zn15 2.034 1_455 S
O28 Zn7 2.024 . S
O28 C8 1.249 1_554 S
C29 O25 1.251 . S
C29 O26 1.254 1_556 S
H30 C3 0.949 1_655 S
H31 C5 0.950 . S
H32 C12 0.949 . S
H33 C14 0.950 . S
C34 O50 1.251 . S
C34 O52 1.254 1_556 S
N35 C36 1.333 . S
N35 C40 1.307 . S
N35 Zn41 2.020 . S
C36 N35 1.333 . S
C36 C37 1.379 . S
C36 H54 0.952 . S
C37 C36 1.379 . S
C37 C38 1.390 . S
C37 H64 0.949 . S
C38 C37 1.390 . S
C38 C39 1.357 . S
C39 C38 1.357 . S
C39 C40 1.370 . S
C39 H65 0.950 . S
C40 N35 1.307 . S
C40 C39 1.370 . S
C40 H58 0.948 . S
Zn41 N35 2.020 . S
Zn41 O50 2.039 . S
Zn41 O56 2.034 . S
Zn41 O60 2.025 . S
Zn41 O62 2.024 . S
C42 O61 1.246 . S
C42 O62 1.249 1_554 S
N43 C44 1.307 . S
N43 C45 1.333 . S
N43 Zn49 2.020 . S
C44 N43 1.307 . S
C44 C48 1.370 . S
C44 H55 0.948 . S
C45 N43 1.333 . S
C45 C46 1.379 . S
C45 H53 0.952 . S
C46 C45 1.379 . S
C46 C47 1.390 . S
C46 H66 0.949 . S
C47 C46 1.390 . S
C47 C48 1.357 . S
C48 C44 1.370 . S
C48 C47 1.357 . S
C48 H67 0.950 . S
Zn49 N43 2.020 . S
Zn49 O52 2.025 . S
Zn49 O57 2.024 . S
Zn49 O59 2.039 . S
Zn49 O61 2.034 . S
O50 C34 1.251 . S
O50 Zn41 2.039 . S
C51 O56 1.246 . S
C51 O57 1.249 1_556 S
O52 C34 1.254 1_554 S
O52 Zn49 2.025 . S
H53 C45 0.952 . S
H54 C36 0.952 . S
H55 C44 0.948 . S
O56 Zn41 2.034 . S
O56 C51 1.246 . S
O57 Zn49 2.024 . S
O57 C51 1.249 1_554 S
H58 C40 0.948 . S
O59 Zn49 2.039 . S
O59 C63 1.251 . S
O60 Zn41 2.025 . S
O60 C63 1.254 1_556 S
O61 C42 1.246 . S
O61 Zn49 2.034 . S
O62 Zn41 2.024 . S
O62 C42 1.249 1_556 S
C63 O59 1.251 . S
C63 O60 1.254 1_554 S
H64 C37 0.949 . S
H65 C39 0.950 . S
H66 C46 0.949 . S
H67 C48 0.950 . S
C68 O84 1.251 . S
C68 O86 1.254 1_554 S
N69 C70 1.333 1_565 S
N69 C74 1.307 . S
N69 Zn75 2.020 . S
C70 N69 1.333 1_545 S
C70 C71 1.379 . S
C70 H88 0.952 . S
C71 C70 1.379 . S
C71 C72 1.390 1_545 S
C71 H98 0.949 . S
C72 C71 1.390 1_565 S
C72 C73 1.357 . S
C73 C72 1.357 . S
C73 C74 1.370 . S
C73 H99 0.950 . S
C74 N69 1.307 . S
C74 C73 1.370 . S
C74 H92 0.948 . S
Zn75 N69 2.020 . S
Zn75 O84 2.039 1_565 S
Zn75 O90 2.034 1_565 S
Zn75 O94 2.025 . S
Zn75 O96 2.024 . S
C76 O95 1.246 . S
C76 O96 1.249 1_556 S
N77 C78 1.307 . S
N77 C79 1.333 1_545 S
N77 Zn83 2.020 . S
C78 N77 1.307 . S
C78 C82 1.370 . S
C78 H89 0.948 . S
C79 N77 1.333 1_565 S
C79 C80 1.379 1_565 S
C79 H87 0.952 . S
C80 C79 1.379 1_545 S
C80 C81 1.390 . S
C80 H100 0.949 1_545 S
C81 C80 1.390 . S
C81 C82 1.357 . S
C82 C78 1.370 . S
C82 C81 1.357 . S
C82 H101 0.950 . S
Zn83 N77 2.020 . S
Zn83 O86 2.025 . S
Zn83 O91 2.024 . S
Zn83 O93 2.039 1_545 S
Zn83 O95 2.034 1_545 S
O84 C68 1.251 . S
O84 Zn75 2.039 1_545 S
C85 O90 1.246 . S
C85 O91 1.249 1_554 S
O86 C68 1.254 1_556 S
O86 Zn83 2.025 . S
H87 C79 0.952 . S
H88 C70 0.952 . S
H89 C78 0.948 . S
O90 Zn75 2.034 1_545 S
O90 C85 1.246 . S
O91 Zn83 2.024 . S
O91 C85 1.249 1_556 S
H92 C74 0.948 . S
O93 Zn83 2.039 1_565 S
O93 C97 1.251 . S
O94 Zn75 2.025 . S
O94 C97 1.254 1_554 S
O95 C76 1.246 . S
O95 Zn83 2.034 1_565 S
O96 Zn75 2.024 . S
O96 C76 1.249 1_554 S
C97 O93 1.251 . S
C97 O94 1.254 1_556 S
H98 C71 0.949 . S
H99 C73 0.950 . S
H100 C80 0.949 1_565 S
H101 C82 0.950 . S
C102 O118 1.251 . S
C102 O120 1.254 . S
N103 C104 1.333 . S
N103 C108 1.307 . S
N103 Zn109 2.020 . S
C104 N103 1.333 . S
C104 C105 1.379 . S
C104 H122 0.952 . S
C105 C104 1.379 . S
C105 C106 1.390 1_554 S
C105 H132 0.949 1_554 S
C106 C105 1.390 1_556 S
C106 C107 1.357 1_556 S
C107 C106 1.357 1_554 S
C107 C108 1.370 . S
C107 H133 0.950 . S
C108 N103 1.307 . S
C108 C107 1.370 . S
C108 H126 0.948 . S
Zn109 N103 2.020 . S
Zn109 O118 2.039 . S
Zn109 O124 2.034 . S
Zn109 O128 2.025 . S
Zn109 O130 2.024 . S
C110 O129 1.246 . S
C110 O130 1.249 . S
N111 C112 1.307 . S
N111 C113 1.333 . S
N111 Zn117 2.020 . S
C112 N111 1.307 . S
C112 C116 1.370 . S
C112 H123 0.948 . S
C113 N111 1.333 . S
C113 C114 1.379 . S
C113 H121 0.952 . S
C114 C113 1.379 . S
C114 C115 1.390 . S
C114 H134 0.949 . S
C115 C114 1.390 . S
C115 C116 1.357 . S
C116 C112 1.370 . S
C116 C115 1.357 . S
C116 H135 0.950 . S
Zn117 N111 2.020 . S
Zn117 O120 2.025 . S
Zn117 O125 2.024 . S
Zn117 O127 2.039 . S
Zn117 O129 2.034 . S
O118 C102 1.251 . S
O118 Zn109 2.039 . S
C119 O124 1.246 . S
C119 O125 1.249 . S
O120 C102 1.254 . S
O120 Zn117 2.025 . S
H121 C113 0.952 . S
H122 C104 0.952 . S
H123 C112 0.948 . S
O124 Zn109 2.034 . S
O124 C119 1.246 . S
O125 Zn117 2.024 . S
O125 C119 1.249 . S
H126 C108 0.948 . S
O127 Zn117 2.039 . S
O127 C131 1.251 . S
O128 Zn109 2.025 . S
O128 C131 1.254 . S
O129 C110 1.246 . S
O129 Zn117 2.034 . S
O130 Zn109 2.024 . S
O130 C110 1.249 . S
C131 O127 1.251 . S
C131 O128 1.254 . S
H132 C105 0.949 1_556 S
H133 C107 0.950 . S
H134 C114 0.949 . S
H135 C116 0.950 . S
C136 O152 1.251 . S
C136 O154 1.254 . S
N137 C138 1.333 . S
N137 C142 1.307 . S
N137 Zn143 2.020 . S
C138 N137 1.333 . S
C138 C139 1.379 . S
C138 H156 0.952 . S
C139 C138 1.379 . S
C139 C140 1.390 1_554 S
C139 H166 0.949 1_554 S
C140 C139 1.390 1_556 S
C140 C141 1.357 1_556 S
C141 C140 1.357 1_554 S
C141 C142 1.370 . S
C141 H167 0.950 1_554 S
C142 N137 1.307 . S
C142 C141 1.370 . S
C142 H160 0.948 . S
Zn143 N137 2.020 . S
Zn143 O152 2.039 . S
Zn143 O158 2.034 . S
Zn143 O162 2.025 . S
Zn143 O164 2.024 . S
C144 O163 1.246 . S
C144 O164 1.249 . S
N145 C146 1.307 . S
N145 C147 1.333 . S
N145 Zn151 2.020 . S
C146 N145 1.307 . S
C146 C150 1.370 . S
C146 H157 0.948 . S
C147 N145 1.333 . S
C147 C148 1.379 . S
C147 H155 0.952 . S
C148 C147 1.379 . S
C148 C149 1.390 . S
C148 H168 0.949 . S
C149 C148 1.390 . S
C149 C150 1.357 . S
C150 C146 1.370 . S
C150 C149 1.357 . S
C150 H169 0.950 . S
Zn151 N145 2.020 . S
Zn151 O154 2.025 . S
Zn151 O159 2.024 . S
Zn151 O161 2.039 . S
Zn151 O163 2.034 . S
O152 C136 1.251 . S
O152 Zn143 2.039 . S
C153 O158 1.246 . S
C153 O159 1.249 . S
O154 C136 1.254 . S
O154 Zn151 2.025 . S
H155 C147 0.952 . S
H156 C138 0.952 . S
H157 C146 0.948 . S
O158 Zn143 2.034 . S
O158 C153 1.246 . S
O159 Zn151 2.024 . S
O159 C153 1.249 . S
H160 C142 0.948 . S
O161 Zn151 2.039 . S
O161 C165 1.251 . S
O162 Zn143 2.025 . S
O162 C165 1.254 . S
O163 C144 1.246 . S
O163 Zn151 2.034 . S
O164 Zn143 2.024 . S
O164 C144 1.249 . S
C165 O161 1.251 . S
C165 O162 1.254 . S
H166 C139 0.949 1_556 S
H167 C141 0.950 1_556 S
H168 C148 0.949 . S
H169 C150 0.950 . S
C170 O186 1.251 . S
C170 O188 1.254 . S
N171 C172 1.333 . S
N171 C176 1.307 . S
N171 Zn177 2.020 . S
C172 N171 1.333 . S
C172 C173 1.379 . S
C172 H190 0.952 . S
C173 C172 1.379 . S
C173 C174 1.390 1_554 S
C173 H200 0.949 1_554 S
C174 C173 1.390 1_556 S
C174 C175 1.357 1_556 S
C175 C174 1.357 1_554 S
C175 C176 1.370 . S
C175 H201 0.950 . S
C176 N171 1.307 . S
C176 C175 1.370 . S
C176 H194 0.948 . S
Zn177 N171 2.020 . S
Zn177 O186 2.039 . S
Zn177 O192 2.034 . S
Zn177 O196 2.025 . S
Zn177 O198 2.024 . S
C178 O197 1.246 . S
C178 O198 1.249 . S
N179 C180 1.307 . S
N179 C181 1.333 . S
N179 Zn185 2.020 . S
C180 N179 1.307 . S
C180 C184 1.370 . S
C180 H191 0.948 . S
C181 N179 1.333 . S
C181 C182 1.379 . S
C181 H189 0.952 . S
C182 C181 1.379 . S
C182 C183 1.390 . S
C182 H202 0.949 . S
C183 C182 1.390 . S
C183 C184 1.357 . S
C184 C180 1.370 . S
C184 C183 1.357 . S
C184 H203 0.950 . S
Zn185 N179 2.020 . S
Zn185 O188 2.025 . S
Zn185 O193 2.024 . S
Zn185 O195 2.039 . S
Zn185 O197 2.034 . S
O186 C170 1.251 . S
O186 Zn177 2.039 . S
C187 O192 1.246 . S
C187 O193 1.249 . S
O188 C170 1.254 . S
O188 Zn185 2.025 . S
H189 C181 0.952 . S
H190 C172 0.952 . S
H191 C180 0.948 . S
O192 Zn177 2.034 . S
O192 C187 1.246 . S
O193 Zn185 2.024 . S
O193 C187 1.249 . S
H194 C176 0.948 . S
O195 Zn185 2.039 . S
O195 C199 1.251 . S
O196 Zn177 2.025 . S
O196 C199 1.254 . S
O197 C178 1.246 . S
O197 Zn185 2.034 . S
O198 Zn177 2.024 . S
O198 C178 1.249 . S
C199 O195 1.251 . S
C199 O196 1.254 . S
H200 C173 0.949 1_556 S
H201 C175 0.950 . S
H202 C182 0.949 . S
H203 C184 0.950 . S
C204 O220 1.251 . S
C204 O222 1.254 . S
N205 C206 1.333 . S
N205 C210 1.307 . S
N205 Zn211 2.020 . S
C206 N205 1.333 . S
C206 C207 1.379 . S
C206 H224 0.952 . S
C207 C206 1.379 . S
C207 C208 1.390 1_556 S
C207 H234 0.949 1_556 S
C208 C207 1.390 1_554 S
C208 C209 1.357 1_554 S
C209 C208 1.357 1_556 S
C209 C210 1.370 . S
C209 H235 0.950 . S
C210 N205 1.307 . S
C210 C209 1.370 . S
C210 H228 0.948 . S
Zn211 N205 2.020 . S
Zn211 O220 2.039 . S
Zn211 O226 2.034 . S
Zn211 O230 2.025 . S
Zn211 O232 2.024 . S
C212 O231 1.246 . S
C212 O232 1.249 . S
N213 C214 1.307 . S
N213 C215 1.333 . S
N213 Zn219 2.020 . S
C214 N213 1.307 . S
C214 C218 1.370 . S
C214 H225 0.948 . S
C215 N213 1.333 . S
C215 C216 1.379 . S
C215 H223 0.952 . S
C216 C215 1.379 . S
C216 C217 1.390 . S
C216 H236 0.949 . S
C217 C216 1.390 . S
C217 C218 1.357 . S
C218 C214 1.370 . S
C218 C217 1.357 . S
C218 H237 0.950 . S
Zn219 N213 2.020 . S
Zn219 O222 2.025 . S
Zn219 O227 2.024 . S
Zn219 O229 2.039 . S
Zn219 O231 2.034 . S
O220 C204 1.251 . S
O220 Zn211 2.039 . S
C221 O226 1.246 . S
C221 O227 1.249 . S
O222 C204 1.254 . S
O222 Zn219 2.025 . S
H223 C215 0.952 . S
H224 C206 0.952 . S
H225 C214 0.948 . S
O226 Zn211 2.034 . S
O226 C221 1.246 . S
O227 Zn219 2.024 . S
O227 C221 1.249 . S
H228 C210 0.948 . S
O229 Zn219 2.039 . S
O229 C233 1.251 . S
O230 Zn211 2.025 . S
O230 C233 1.254 . S
O231 C212 1.246 . S
O231 Zn219 2.034 . S
O232 Zn211 2.024 . S
O232 C212 1.249 . S
C233 O229 1.251 . S
C233 O230 1.254 . S
H234 C207 0.949 1_554 S
H235 C209 0.950 . S
H236 C216 0.949 . S
H237 C218 0.950 . S
C238 O254 1.251 . S
C238 O256 1.254 . S
N239 C240 1.333 . S
N239 C244 1.307 . S
N239 Zn245 2.020 . S
C240 N239 1.333 . S
C240 C241 1.379 . S
C240 H258 0.952 . S
C241 C240 1.379 . S
C241 C242 1.390 . S
C241 H268 0.949 . S
C242 C241 1.390 . S
C242 C243 1.357 . S
C243 C242 1.357 . S
C243 C244 1.370 . S
C243 H269 0.950 . S
C244 N239 1.307 . S
C244 C243 1.370 . S
C244 H262 0.948 . S
Zn245 N239 2.020 . S
Zn245 O254 2.039 . S
Zn245 O260 2.034 . S
Zn245 O264 2.025 . S
Zn245 O266 2.024 . S
C246 O265 1.246 . S
C246 O266 1.249 . S
N247 C248 1.307 . S
N247 C249 1.333 . S
N247 Zn253 2.020 . S
C248 N247 1.307 . S
C248 C252 1.370 . S
C248 H259 0.948 . S
C249 N247 1.333 . S
C249 C250 1.379 . S
C249 H257 0.952 . S
C250 C249 1.379 . S
C250 C251 1.390 1_556 S
C250 H270 0.949 1_556 S
C251 C250 1.390 1_554 S
C251 C252 1.357 1_554 S
C252 C248 1.370 . S
C252 C251 1.357 1_556 S
C252 H271 0.950 . S
Zn253 N247 2.020 . S
Zn253 O256 2.025 . S
Zn253 O261 2.024 . S
Zn253 O263 2.039 . S
Zn253 O265 2.034 . S
O254 C238 1.251 . S
O254 Zn245 2.039 . S
C255 O260 1.246 . S
C255 O261 1.249 . S
O256 C238 1.254 . S
O256 Zn253 2.025 . S
H257 C249 0.952 . S
H258 C240 0.952 . S
H259 C248 0.948 . S
O260 Zn245 2.034 . S
O260 C255 1.246 . S
O261 Zn253 2.024 . S
O261 C255 1.249 . S
H262 C244 0.948 . S
O263 Zn253 2.039 . S
O263 C267 1.251 . S
O264 Zn245 2.025 . S
O264 C267 1.254 . S
O265 C246 1.246 . S
O265 Zn253 2.034 . S
O266 Zn245 2.024 . S
O266 C246 1.249 . S
C267 O263 1.251 . S
C267 O264 1.254 . S
H268 C241 0.949 . S
H269 C243 0.950 . S
H270 C250 0.949 1_554 S
H271 C252 0.950 . S
C272 O288 1.251 . S
C272 O290 1.254 . S
N273 C274 1.333 . S
N273 C278 1.307 . S
N273 Zn279 2.020 . S
C274 N273 1.333 . S
C274 C275 1.379 . S
C274 H292 0.952 . S
C275 C274 1.379 . S
C275 C276 1.390 1_556 S
C275 H302 0.949 1_556 S
C276 C275 1.390 1_554 S
C276 C277 1.357 1_554 S
C277 C276 1.357 1_556 S
C277 C278 1.370 . S
C277 H303 0.950 . S
C278 N273 1.307 . S
C278 C277 1.370 . S
C278 H296 0.948 . S
Zn279 N273 2.020 . S
Zn279 O288 2.039 . S
Zn279 O294 2.034 . S
Zn279 O298 2.025 . S
Zn279 O300 2.024 . S
C280 O299 1.246 . S
C280 O300 1.249 . S
N281 C282 1.307 . S
N281 C283 1.333 . S
N281 Zn287 2.020 . S
C282 N281 1.307 . S
C282 C286 1.370 . S
C282 H293 0.948 . S
C283 N281 1.333 . S
C283 C284 1.379 . S
C283 H291 0.952 . S
C284 C283 1.379 . S
C284 C285 1.390 . S
C284 H304 0.949 . S
C285 C284 1.390 . S
C285 C286 1.357 . S
C286 C282 1.370 . S
C286 C285 1.357 . S
C286 H305 0.950 . S
Zn287 N281 2.020 . S
Zn287 O290 2.025 . S
Zn287 O295 2.024 . S
Zn287 O297 2.039 . S
Zn287 O299 2.034 . S
O288 C272 1.251 . S
O288 Zn279 2.039 . S
C289 O294 1.246 . S
C289 O295 1.249 . S
O290 C272 1.254 . S
O290 Zn287 2.025 . S
H291 C283 0.952 . S
H292 C274 0.952 . S
H293 C282 0.948 . S
O294 Zn279 2.034 . S
O294 C289 1.246 . S
O295 Zn287 2.024 . S
O295 C289 1.249 . S
H296 C278 0.948 . S
O297 Zn287 2.039 . S
O297 C301 1.251 . S
O298 Zn279 2.025 . S
O298 C301 1.254 . S
O299 C280 1.246 . S
O299 Zn287 2.034 . S
O300 Zn279 2.024 . S
O300 C280 1.249 . S
C301 O297 1.251 . S
C301 O298 1.254 . S
H302 C275 0.949 1_554 S
H303 C277 0.950 . S
H304 C284 0.949 . S
H305 C286 0.950 . S
C306 C307 1.387 . S
C306 H310 0.950 . S
C306 C315 1.390 . S
C307 C306 1.387 . S
C307 C309 1.387 . S
H308 C315 0.950 . S
C309 C307 1.387 . S
C309 C311 1.390 . S
C309 H313 0.950 . S
H310 C306 0.950 . S
C311 C309 1.390 . S
C311 C312 1.387 . S
C311 H314 0.950 . S
C312 C311 1.387 . S
C312 C315 1.387 . S
H313 C309 0.950 . S
H314 C311 0.950 . S
C315 C306 1.390 . S
C315 H308 0.950 . S
C315 C312 1.387 . S
C316 C317 1.387 . S
C316 H320 0.950 . S
C316 C325 1.390 . S
C317 C316 1.387 . S
C317 C319 1.387 . S
H318 C325 0.950 . S
C319 C317 1.387 . S
C319 C321 1.390 . S
C319 H323 0.950 . S
H320 C316 0.950 . S
C321 C319 1.390 . S
C321 C322 1.387 . S
C321 H324 0.950 . S
C322 C321 1.387 . S
C322 C325 1.387 . S
H323 C319 0.950 . S
H324 C321 0.950 . S
C325 C316 1.390 . S
C325 H318 0.950 . S
C325 C322 1.387 . S
C326 C327 1.387 . S
C326 H330 0.950 . S
C326 C335 1.390 . S
C327 C326 1.387 . S
C327 C329 1.387 . S
H328 C335 0.950 . S
C329 C327 1.387 . S
C329 C331 1.390 . S
C329 H333 0.950 . S
H330 C326 0.950 . S
C331 C329 1.390 . S
C331 C332 1.387 . S
C331 H334 0.950 . S
C332 C331 1.387 . S
C332 C335 1.387 . S
H333 C329 0.950 . S
H334 C331 0.950 . S
C335 C326 1.390 . S
C335 H328 0.950 . S
C335 C332 1.387 . S
C336 C337 1.387 . S
C336 H340 0.950 . S
C336 C345 1.390 . S
C337 C336 1.387 . S
C337 C339 1.387 . S
H338 C345 0.950 . S
C339 C337 1.387 . S
C339 C341 1.390 . S
C339 H343 0.950 . S
H340 C336 0.950 . S
C341 C339 1.390 . S
C341 C342 1.387 . S
C341 H344 0.950 . S
C342 C341 1.387 . S
C342 C345 1.387 . S
H343 C339 0.950 . S
H344 C341 0.950 . S
C345 C336 1.390 . S
C345 H338 0.950 . S
C345 C342 1.387 . S
C346 C347 1.387 . S
C346 H350 0.950 . S
C346 C355 1.390 . S
C347 C346 1.387 . S
C347 C349 1.387 . S
H348 C355 0.950 . S
C349 C347 1.387 . S
C349 C351 1.390 . S
C349 H353 0.950 . S
H350 C346 0.950 . S
C351 C349 1.390 . S
C351 C352 1.387 . S
C351 H354 0.950 . S
C352 C351 1.387 . S
C352 C355 1.387 . S
H353 C349 0.950 . S
H354 C351 0.950 . S
C355 C346 1.390 . S
C355 H348 0.950 . S
C355 C352 1.387 . S
C356 C357 1.387 . S
C356 H360 0.950 . S
C356 C365 1.390 . S
C357 C356 1.387 . S
C357 C359 1.387 . S
H358 C365 0.950 . S
C359 C357 1.387 . S
C359 C361 1.390 . S
C359 H363 0.950 . S
H360 C356 0.950 . S
C361 C359 1.390 . S
C361 C362 1.387 . S
C361 H364 0.950 . S
C362 C361 1.387 . S
C362 C365 1.387 . S
H363 C359 0.950 . S
H364 C361 0.950 . S
C365 C356 1.390 . S
C365 H358 0.950 . S
C365 C362 1.387 . S
C366 C367 1.387 1_655 S
C366 H370 0.950 . S
C366 C375 1.390 . S
C367 C366 1.387 1_455 S
C367 C369 1.387 . S
H368 C375 0.950 . S
C369 C367 1.387 . S
C369 C371 1.390 . S
C369 H373 0.950 . S
H370 C366 0.950 . S
C371 C369 1.390 . S
C371 C372 1.387 1_455 S
C371 H374 0.950 . S
C372 C371 1.387 1_655 S
C372 C375 1.387 . S
H373 C369 0.950 . S
H374 C371 0.950 . S
C375 C366 1.390 . S
C375 H368 0.950 . S
C375 C372 1.387 . S
C376 C377 1.387 . S
C376 H380 0.950 . S
C376 C385 1.390 . S
C377 C376 1.387 . S
C377 C379 1.387 . S
H378 C385 0.950 . S
C379 C377 1.387 . S
C379 C381 1.390 . S
C379 H383 0.950 . S
H380 C376 0.950 . S
C381 C379 1.390 . S
C381 C382 1.387 . S
C381 H384 0.950 . S
C382 C381 1.387 . S
C382 C385 1.387 . S
H383 C379 0.950 . S
H384 C381 0.950 . S
C385 C376 1.390 . S
C385 H378 0.950 . S
C385 C382 1.387 . S
C386 C387 1.387 . S
C386 H390 0.950 . S
C386 C395 1.390 1_545 S
C387 C386 1.387 . S
C387 C389 1.387 . S
H388 C395 0.950 . S
C389 C387 1.387 . S
C389 C391 1.390 1_545 S
C389 H393 0.950 . S
H390 C386 0.950 . S
C391 C389 1.390 1_565 S
C391 C392 1.387 . S
C391 H394 0.950 . S
C392 C391 1.387 . S
C392 C395 1.387 . S
H393 C389 0.950 . S
H394 C391 0.950 . S
C395 C386 1.390 1_565 S
C395 H388 0.950 . S
C395 C392 1.387 . S
C396 C397 1.387 . S
C396 H400 0.950 . S
C396 C405 1.390 . S
C397 C396 1.387 . S
C397 C399 1.387 1_554 S
H398 C405 0.950 . S
C399 C397 1.387 1_556 S
C399 C401 1.390 . S
C399 H403 0.950 . S
H400 C396 0.950 . S
C401 C399 1.390 . S
C401 C402 1.387 . S
C401 H404 0.950 . S
C402 C401 1.387 . S
C402 C405 1.387 1_556 S
H403 C399 0.950 . S
H404 C401 0.950 . S
C405 C396 1.390 . S
C405 H398 0.950 . S
C405 C402 1.387 1_554 S
C406 C407 1.387 . S
C406 H410 0.950 . S
C406 C415 1.390 1_566 S
C407 C406 1.387 . S
C407 C409 1.387 . S
H408 C415 0.950 . S
C409 C407 1.387 . S
C409 C411 1.390 1_566 S
C409 H413 0.950 . S
H410 C406 0.950 . S
C411 C409 1.390 1_544 S
C411 C412 1.387 . S
C411 H414 0.950 . S
C412 C411 1.387 . S
C412 C415 1.387 . S
H413 C409 0.950 . S
H414 C411 0.950 . S
C415 C406 1.390 1_544 S
C415 H408 0.950 . S
C415 C412 1.387 . S
C416 C417 1.387 . S
C416 H420 0.950 . S
C416 C425 1.390 1_655 S
C417 C416 1.387 . S
C417 C419 1.387 1_554 S
H418 C425 0.950 . S
C419 C417 1.387 1_556 S
C419 C421 1.390 1_655 S
C419 H423 0.950 . S
H420 C416 0.950 . S
C421 C419 1.390 1_455 S
C421 C422 1.387 . S
C421 H424 0.950 . S
C422 C421 1.387 . S
C422 C425 1.387 1_556 S
H423 C419 0.950 . S
H424 C421 0.950 . S
C425 C416 1.390 1_455 S
C425 H418 0.950 . S
C425 C422 1.387 1_554 S
C426 C427 1.387 . S
C426 H430 0.950 . S
C426 C435 1.390 . S
C427 C426 1.387 . S
C427 C429 1.387 . S
H428 C435 0.950 . S
C429 C427 1.387 . S
C429 C431 1.390 . S
C429 H433 0.950 . S
H430 C426 0.950 . S
C431 C429 1.390 . S
C431 C432 1.387 . S
C431 H434 0.950 . S
C432 C431 1.387 . S
C432 C435 1.387 . S
H433 C429 0.950 . S
H434 C431 0.950 . S
C435 C426 1.390 . S
C435 H428 0.950 . S
C435 C432 1.387 . S
C436 C437 1.387 . S
C436 H440 0.950 . S
C436 C445 1.390 . S
C437 C436 1.387 . S
C437 C439 1.387 . S
H438 C445 0.950 . S
C439 C437 1.387 . S
C439 C441 1.390 . S
C439 H443 0.950 . S
H440 C436 0.950 . S
C441 C439 1.390 . S
C441 C442 1.387 . S
C441 H444 0.950 . S
C442 C441 1.387 . S
C442 C445 1.387 . S
H443 C439 0.950 . S
H444 C441 0.950 . S
C445 C436 1.390 . S
C445 H438 0.950 . S
C445 C442 1.387 . S
C446 C447 1.387 . S
C446 H450 0.950 . S
C446 C455 1.390 . S
C447 C446 1.387 . S
C447 C449 1.387 . S
H448 C455 0.950 . S
C449 C447 1.387 . S
C449 C451 1.390 . S
C449 H453 0.950 . S
H450 C446 0.950 . S
C451 C449 1.390 . S
C451 C452 1.387 . S
C451 H454 0.950 . S
C452 C451 1.387 . S
C452 C455 1.387 . S
H453 C449 0.950 . S
H454 C451 0.950 . S
C455 C446 1.390 . S
C455 H448 0.950 . S
C455 C452 1.387 . S
C456 C457 1.387 . S
C456 H460 0.950 . S
C456 C465 1.390 . S
C457 C456 1.387 . S
C457 C459 1.387 . S
H458 C465 0.950 . S
C459 C457 1.387 . S
C459 C461 1.390 . S
C459 H463 0.950 . S
H460 C456 0.950 . S
C461 C459 1.390 . S
C461 C462 1.387 . S
C461 H464 0.950 . S
C462 C461 1.387 . S
C462 C465 1.387 . S
H463 C459 0.950 . S
H464 C461 0.950 . S
C465 C456 1.390 . S
C465 H458 0.950 . S
C465 C462 1.387 . S
C466 C467 1.387 . S
C466 H470 0.950 . S
C466 C475 1.390 . S
C467 C466 1.387 . S
C467 C469 1.387 . S
H468 C475 0.950 . S
C469 C467 1.387 . S
C469 C471 1.390 . S
C469 H473 0.950 . S
H470 C466 0.950 . S
C471 C469 1.390 . S
C471 C472 1.387 . S
C471 H474 0.950 . S
C472 C471 1.387 . S
C472 C475 1.387 . S
H473 C469 0.950 . S
H474 C471 0.950 . S
C475 C466 1.390 . S
C475 H468 0.950 . S
C475 C472 1.387 . S
C476 C477 1.387 . S
C476 H480 0.950 . S
C476 C485 1.390 . S
C477 C476 1.387 . S
C477 C479 1.387 . S
H478 C485 0.950 . S
C479 C477 1.387 . S
C479 C481 1.390 . S
C479 H483 0.950 . S
H480 C476 0.950 . S
C481 C479 1.390 . S
C481 C482 1.387 . S
C481 H484 0.950 . S
C482 C481 1.387 . S
C482 C485 1.387 . S
H483 C479 0.950 . S
H484 C481 0.950 . S
C485 C476 1.390 . S
C485 H478 0.950 . S
C485 C482 1.387 . S
C486 C487 1.387 . S
C486 H490 0.950 . S
C486 C495 1.390 . S
C487 C486 1.387 . S
C487 C489 1.387 1_655 S
H488 C495 0.950 . S
C489 C487 1.387 1_455 S
C489 C491 1.390 . S
C489 H493 0.950 . S
H490 C486 0.950 . S
C491 C489 1.390 . S
C491 C492 1.387 . S
C491 H494 0.950 . S
C492 C491 1.387 . S
C492 C495 1.387 1_455 S
H493 C489 0.950 . S
H494 C491 0.950 . S
C495 C486 1.390 . S
C495 H488 0.950 . S
C495 C492 1.387 1_655 S
C496 C497 1.387 . S
C496 H500 0.950 . S
C496 C505 1.390 . S
C497 C496 1.387 . S
C497 C499 1.387 . S
H498 C505 0.950 . S
C499 C497 1.387 . S
C499 C501 1.390 . S
C499 H503 0.950 . S
H500 C496 0.950 . S
C501 C499 1.390 . S
C501 C502 1.387 . S
C501 H504 0.950 . S
C502 C501 1.387 . S
C502 C505 1.387 . S
H503 C499 0.950 . S
H504 C501 0.950 . S
C505 C496 1.390 . S
C505 H498 0.950 . S
C505 C502 1.387 . S
C506 C507 1.387 . S
C506 H510 0.950 . S
C506 C515 1.390 1_545 S
C507 C506 1.387 . S
C507 C509 1.387 . S
H508 C515 0.950 . S
C509 C507 1.387 . S
C509 C511 1.390 1_545 S
C509 H513 0.950 . S
H510 C506 0.950 . S
C511 C509 1.390 1_565 S
C511 C512 1.387 . S
C511 H514 0.950 . S
C512 C511 1.387 . S
C512 C515 1.387 . S
H513 C509 0.950 . S
H514 C511 0.950 . S
C515 C506 1.390 1_565 S
C515 H508 0.950 . S
C515 C512 1.387 . S
C516 C517 1.387 . S
C516 H520 0.950 . S
C516 C525 1.390 . S
C517 C516 1.387 . S
C517 C519 1.387 . S
H518 C525 0.950 . S
C519 C517 1.387 . S
C519 C521 1.390 . S
C519 H523 0.950 . S
H520 C516 0.950 . S
C521 C519 1.390 . S
C521 C522 1.387 . S
C521 H524 0.950 . S
C522 C521 1.387 . S
C522 C525 1.387 . S
H523 C519 0.950 . S
H524 C521 0.950 . S
C525 C516 1.390 . S
C525 H518 0.950 . S
C525 C522 1.387 . S
C526 C527 1.387 . S
C526 H530 0.950 . S
C526 C535 1.390 . S
C527 C526 1.387 . S
C527 C529 1.387 . S
H528 C535 0.950 . S
C529 C527 1.387 . S
C529 C531 1.390 . S
C529 H533 0.950 . S
H530 C526 0.950 . S
C531 C529 1.390 . S
C531 C532 1.387 . S
C531 H534 0.950 . S
C532 C531 1.387 . S
C532 C535 1.387 . S
H533 C529 0.950 . S
H534 C531 0.950 . S
C535 C526 1.390 . S
C535 H528 0.950 . S
C535 C532 1.387 . S
C536 C537 1.387 . S
C536 H540 0.950 . S
C536 C545 1.390 . S
C537 C536 1.387 . S
C537 C539 1.387 . S
H538 C545 0.950 . S
C539 C537 1.387 . S
C539 C541 1.390 . S
C539 H543 0.950 . S
H540 C536 0.950 . S
C541 C539 1.390 . S
C541 C542 1.387 . S
C541 H544 0.950 . S
C542 C541 1.387 . S
C542 C545 1.387 . S
H543 C539 0.950 . S
H544 C541 0.950 . S
C545 C536 1.390 . S
C545 H538 0.950 . S
C545 C542 1.387 . S
C546 C547 1.387 . S
C546 H550 0.950 . S
C546 C555 1.390 . S
C547 C546 1.387 . S
C547 C549 1.387 . S
H548 C555 0.950 . S
C549 C547 1.387 . S
C549 C551 1.390 . S
C549 H553 0.950 . S
H550 C546 0.950 . S
C551 C549 1.390 . S
C551 C552 1.387 . S
C551 H554 0.950 . S
C552 C551 1.387 . S
C552 C555 1.387 . S
H553 C549 0.950 . S
H554 C551 0.950 . S
C555 C546 1.390 . S
C555 H548 0.950 . S
C555 C552 1.387 . S
C556 C557 1.387 . S
C556 H560 0.950 . S
C556 C565 1.390 . S
C557 C556 1.387 . S
C557 C559 1.387 . S
H558 C565 0.950 . S
C559 C557 1.387 . S
C559 C561 1.390 . S
C559 H563 0.950 . S
H560 C556 0.950 . S
C561 C559 1.390 . S
C561 C562 1.387 . S
C561 H564 0.950 . S
C562 C561 1.387 . S
C562 C565 1.387 . S
H563 C559 0.950 . S
H564 C561 0.950 . S
C565 C556 1.390 . S
C565 H558 0.950 . S
C565 C562 1.387 . S
C566 C567 1.387 . S
C566 H570 0.950 . S
C566 C575 1.390 . S
C567 C566 1.387 . S
C567 C569 1.387 . S
H568 C575 0.950 . S
C569 C567 1.387 . S
C569 C571 1.390 . S
C569 H573 0.950 . S
H570 C566 0.950 . S
C571 C569 1.390 . S
C571 C572 1.387 . S
C571 H574 0.950 . S
C572 C571 1.387 . S
C572 C575 1.387 . S
H573 C569 0.950 . S
H574 C571 0.950 . S
C575 C566 1.390 . S
C575 H568 0.950 . S
C575 C572 1.387 . S
C307 C29 1.944 . S
C312 C267 1.945 . S
C317 C51 1.936 . S
C322 C289 1.937 . S
C327 C97 1.940 . S
C332 C221 1.941 . S
C337 C153 1.898 . S
C342 C85 1.896 . S
C347 C187 1.922 . S
C352 C17 1.923 . S
C357 C63 1.938 . S
C362 C119 1.939 . S
C367 C255 1.947 . S
C372 C199 1.947 . S
C377 C301 1.960 . S
C382 C131 1.961 . S
C387 C165 1.988 . S
C392 C233 1.991 . S
C397 C68 1.396 . S
C402 C8 1.402 . S
C407 C34 1.410 . S
C412 C0 1.410 . S
C417 C42 1.416 . S
C422 C76 1.417 . S
C427 C102 1.410 . S
C432 C178 1.416 . S
C437 C110 1.417 . S
C442 C136 1.411 . S
C447 C144 1.414 . S
C452 C170 1.410 . S
C457 C272 1.424 . S
C462 C212 1.429 . S
C467 C238 1.410 . S
C472 C204 1.410 . S
C477 C280 1.418 . S
C482 C246 1.418 . S
C487 C13 1.385 . S
C492 C4 1.385 . S
C497 C38 1.356 . S
C502 C47 1.356 . S
C507 C81 1.343 . S
C512 C72 1.343 . S
C517 C115 1.380 . S
C522 C106 1.380 . S
C527 C149 1.369 . S
C532 C140 1.369 . S
C537 C183 1.357 . S
C542 C174 1.357 . S
C547 C217 1.393 . S
C552 C208 1.393 . S
C557 C251 1.379 . S
C562 C242 1.379 . S
C567 C285 1.347 . S
C572 C276 1.347 . S
