# Generated by pormake.
# Topology wgf, (5)-cn, num edge types: 1
# Building blocks:
#     Node 0, Type 0, BuildingBlock: BEQFEK_clean_sbu_0, # of connection points: 5
#     Node 1, Type 0, BuildingBlock: BEQFEK_clean_sbu_0, # of connection points: 5
#     Node 2, Type 0, BuildingBlock: BEQFEK_clean_sbu_0, # of connection points: 5
#     Node 3, Type 0, BuildingBlock: BEQFEK_clean_sbu_0, # of connection points: 5
#     Node 4, Type 0, BuildingBlock: BEQFEK_clean_sbu_0, # of connection points: 5
#     Node 5, Type 0, BuildingBlock: BEQFEK_clean_sbu_0, # of connection points: 5
#     Node 6, Type 0, BuildingBlock: BEQFEK_clean_sbu_0, # of connection points: 5
#     Node 7, Type 0, BuildingBlock: BEQFEK_clean_sbu_0, # of connection points: 5
#     Node 8, Type 0, BuildingBlock: BEQFEK_clean_sbu_0, # of connection points: 5
#     Node 9, Type 0, BuildingBlock: BEQFEK_clean_sbu_0, # of connection points: 5
#     Node 10, Type 0, BuildingBlock: BEQFEK_clean_sbu_0, # of connection points: 5
#     Node 11, Type 0, BuildingBlock: BEQFEK_clean_sbu_0, # of connection points: 5
#     Node 12, Type 0, BuildingBlock: BEQFEK_clean_sbu_0, # of connection points: 5
#     Node 13, Type 0, BuildingBlock: BEQFEK_clean_sbu_0, # of connection points: 5
#     Node 14, Type 0, BuildingBlock: BEQFEK_clean_sbu_0, # of connection points: 5
#     Node 15, Type 0, BuildingBlock: BEQFEK_clean_sbu_0, # of connection points: 5
#     Node 16, Type 0, BuildingBlock: BEQFEK_clean_sbu_0, # of connection points: 5
#     Node 17, Type 0, BuildingBlock: BEQFEK_clean_sbu_0, # of connection points: 5
#     Node 18, Type 0, BuildingBlock: BEQFEK_clean_sbu_0, # of connection points: 5
#     Node 19, Type 0, BuildingBlock: BEQFEK_clean_sbu_0, # of connection points: 5
#     Node 20, Type 0, BuildingBlock: BEQFEK_clean_sbu_0, # of connection points: 5
#     Node 21, Type 0, BuildingBlock: BEQFEK_clean_sbu_0, # of connection points: 5
#     Node 22, Type 0, BuildingBlock: BEQFEK_clean_sbu_0, # of connection points: 5
#     Node 23, Type 0, BuildingBlock: BEQFEK_clean_sbu_0, # of connection points: 5
#     Node 24, Type 0, BuildingBlock: BEQFEK_clean_sbu_0, # of connection points: 5
#     Node 25, Type 0, BuildingBlock: BEQFEK_clean_sbu_0, # of connection points: 5
#     Node 26, Type 0, BuildingBlock: BEQFEK_clean_sbu_0, # of connection points: 5
#     Node 27, Type 0, BuildingBlock: BEQFEK_clean_sbu_0, # of connection points: 5
#     Node 28, Type 0, BuildingBlock: BEQFEK_clean_sbu_0, # of connection points: 5
#     Node 29, Type 0, BuildingBlock: BEQFEK_clean_sbu_0, # of connection points: 5
#     Node 30, Type 0, BuildingBlock: BEQFEK_clean_sbu_0, # of connection points: 5
#     Node 31, Type 0, BuildingBlock: BEQFEK_clean_sbu_0, # of connection points: 5
#     Edge 32, Type (0, 0), BuildingBlock: KIFKEQ_clean_linker_1, # of connection points: 2
#     Edge 33, Type (0, 0), BuildingBlock: KIFKEQ_clean_linker_1, # of connection points: 2
#     Edge 34, Type (0, 0), BuildingBlock: KIFKEQ_clean_linker_1, # of connection points: 2
#     Edge 35, Type (0, 0), BuildingBlock: KIFKEQ_clean_linker_1, # of connection points: 2
#     Edge 36, Type (0, 0), BuildingBlock: KIFKEQ_clean_linker_1, # of connection points: 2
#     Edge 37, Type (0, 0), BuildingBlock: KIFKEQ_clean_linker_1, # of connection points: 2
#     Edge 38, Type (0, 0), BuildingBlock: KIFKEQ_clean_linker_1, # of connection points: 2
#     Edge 39, Type (0, 0), BuildingBlock: KIFKEQ_clean_linker_1, # of connection points: 2
#     Edge 40, Type (0, 0), BuildingBlock: KIFKEQ_clean_linker_1, # of connection points: 2
#     Edge 41, Type (0, 0), BuildingBlock: KIFKEQ_clean_linker_1, # of connection points: 2
#     Edge 42, Type (0, 0), BuildingBlock: KIFKEQ_clean_linker_1, # of connection points: 2
#     Edge 43, Type (0, 0), BuildingBlock: KIFKEQ_clean_linker_1, # of connection points: 2
#     Edge 44, Type (0, 0), BuildingBlock: KIFKEQ_clean_linker_1, # of connection points: 2
#     Edge 45, Type (0, 0), BuildingBlock: KIFKEQ_clean_linker_1, # of connection points: 2
#     Edge 46, Type (0, 0), BuildingBlock: KIFKEQ_clean_linker_1, # of connection points: 2
#     Edge 47, Type (0, 0), BuildingBlock: KIFKEQ_clean_linker_1, # of connection points: 2
#     Edge 48, Type (0, 0), BuildingBlock: KIFKEQ_clean_linker_1, # of connection points: 2
#     Edge 49, Type (0, 0), BuildingBlock: KIFKEQ_clean_linker_1, # of connection points: 2
#     Edge 50, Type (0, 0), BuildingBlock: KIFKEQ_clean_linker_1, # of connection points: 2
#     Edge 51, Type (0, 0), BuildingBlock: KIFKEQ_clean_linker_1, # of connection points: 2
#     Edge 52, Type (0, 0), BuildingBlock: KIFKEQ_clean_linker_1, # of connection points: 2
#     Edge 53, Type (0, 0), BuildingBlock: KIFKEQ_clean_linker_1, # of connection points: 2
#     Edge 54, Type (0, 0), BuildingBlock: KIFKEQ_clean_linker_1, # of connection points: 2
#     Edge 55, Type (0, 0), BuildingBlock: KIFKEQ_clean_linker_1, # of connection points: 2
#     Edge 56, Type (0, 0), BuildingBlock: KIFKEQ_clean_linker_1, # of connection points: 2
#     Edge 57, Type (0, 0), BuildingBlock: KIFKEQ_clean_linker_1, # of connection points: 2
#     Edge 58, Type (0, 0), BuildingBlock: KIFKEQ_clean_linker_1, # of connection points: 2
#     Edge 59, Type (0, 0), BuildingBlock: KIFKEQ_clean_linker_1, # of connection points: 2
#     Edge 60, Type (0, 0), BuildingBlock: KIFKEQ_clean_linker_1, # of connection points: 2
#     Edge 61, Type (0, 0), BuildingBlock: KIFKEQ_clean_linker_1, # of connection points: 2
#     Edge 62, Type (0, 0), BuildingBlock: KIFKEQ_clean_linker_1, # of connection points: 2
#     Edge 63, Type (0, 0), BuildingBlock: KIFKEQ_clean_linker_1, # of connection points: 2
#     Edge 64, Type (0, 0), BuildingBlock: KIFKEQ_clean_linker_1, # of connection points: 2
#     Edge 65, Type (0, 0), BuildingBlock: KIFKEQ_clean_linker_1, # of connection points: 2
#     Edge 66, Type (0, 0), BuildingBlock: KIFKEQ_clean_linker_1, # of connection points: 2
#     Edge 67, Type (0, 0), BuildingBlock: KIFKEQ_clean_linker_1, # of connection points: 2
#     Edge 68, Type (0, 0), BuildingBlock: KIFKEQ_clean_linker_1, # of connection points: 2
#     Edge 69, Type (0, 0), BuildingBlock: KIFKEQ_clean_linker_1, # of connection points: 2
#     Edge 70, Type (0, 0), BuildingBlock: KIFKEQ_clean_linker_1, # of connection points: 2
#     Edge 71, Type (0, 0), BuildingBlock: KIFKEQ_clean_linker_1, # of connection points: 2
#     Edge 72, Type (0, 0), BuildingBlock: KIFKEQ_clean_linker_1, # of connection points: 2
#     Edge 73, Type (0, 0), BuildingBlock: KIFKEQ_clean_linker_1, # of connection points: 2
#     Edge 74, Type (0, 0), BuildingBlock: KIFKEQ_clean_linker_1, # of connection points: 2
#     Edge 75, Type (0, 0), BuildingBlock: KIFKEQ_clean_linker_1, # of connection points: 2
#     Edge 76, Type (0, 0), BuildingBlock: KIFKEQ_clean_linker_1, # of connection points: 2
#     Edge 77, Type (0, 0), BuildingBlock: KIFKEQ_clean_linker_1, # of connection points: 2
#     Edge 78, Type (0, 0), BuildingBlock: KIFKEQ_clean_linker_1, # of connection points: 2
#     Edge 79, Type (0, 0), BuildingBlock: KIFKEQ_clean_linker_1, # of connection points: 2
#     Edge 80, Type (0, 0), BuildingBlock: KIFKEQ_clean_linker_1, # of connection points: 2
#     Edge 81, Type (0, 0), BuildingBlock: KIFKEQ_clean_linker_1, # of connection points: 2
#     Edge 82, Type (0, 0), BuildingBlock: KIFKEQ_clean_linker_1, # of connection points: 2
#     Edge 83, Type (0, 0), BuildingBlock: KIFKEQ_clean_linker_1, # of connection points: 2
#     Edge 84, Type (0, 0), BuildingBlock: KIFKEQ_clean_linker_1, # of connection points: 2
#     Edge 85, Type (0, 0), BuildingBlock: KIFKEQ_clean_linker_1, # of connection points: 2
#     Edge 86, Type (0, 0), BuildingBlock: KIFKEQ_clean_linker_1, # of connection points: 2
#     Edge 87, Type (0, 0), BuildingBlock: KIFKEQ_clean_linker_1, # of connection points: 2
#     Edge 88, Type (0, 0), BuildingBlock: KIFKEQ_clean_linker_1, # of connection points: 2
#     Edge 89, Type (0, 0), BuildingBlock: KIFKEQ_clean_linker_1, # of connection points: 2
#     Edge 90, Type (0, 0), BuildingBlock: KIFKEQ_clean_linker_1, # of connection points: 2
#     Edge 91, Type (0, 0), BuildingBlock: KIFKEQ_clean_linker_1, # of connection points: 2
#     Edge 92, Type (0, 0), BuildingBlock: KIFKEQ_clean_linker_1, # of connection points: 2
#     Edge 93, Type (0, 0), BuildingBlock: KIFKEQ_clean_linker_1, # of connection points: 2
#     Edge 94, Type (0, 0), BuildingBlock: KIFKEQ_clean_linker_1, # of connection points: 2
#     Edge 95, Type (0, 0), BuildingBlock: KIFKEQ_clean_linker_1, # of connection points: 2
#     Edge 96, Type (0, 0), BuildingBlock: KIFKEQ_clean_linker_1, # of connection points: 2
#     Edge 97, Type (0, 0), BuildingBlock: KIFKEQ_clean_linker_1, # of connection points: 2
#     Edge 98, Type (0, 0), BuildingBlock: KIFKEQ_clean_linker_1, # of connection points: 2
#     Edge 99, Type (0, 0), BuildingBlock: KIFKEQ_clean_linker_1, # of connection points: 2
#     Edge 100, Type (0, 0), BuildingBlock: KIFKEQ_clean_linker_1, # of connection points: 2
#     Edge 101, Type (0, 0), BuildingBlock: KIFKEQ_clean_linker_1, # of connection points: 2
#     Edge 102, Type (0, 0), BuildingBlock: KIFKEQ_clean_linker_1, # of connection points: 2
#     Edge 103, Type (0, 0), BuildingBlock: KIFKEQ_clean_linker_1, # of connection points: 2
#     Edge 104, Type (0, 0), BuildingBlock: KIFKEQ_clean_linker_1, # of connection points: 2
#     Edge 105, Type (0, 0), BuildingBlock: KIFKEQ_clean_linker_1, # of connection points: 2
#     Edge 106, Type (0, 0), BuildingBlock: KIFKEQ_clean_linker_1, # of connection points: 2
#     Edge 107, Type (0, 0), BuildingBlock: KIFKEQ_clean_linker_1, # of connection points: 2
#     Edge 108, Type (0, 0), BuildingBlock: KIFKEQ_clean_linker_1, # of connection points: 2
#     Edge 109, Type (0, 0), BuildingBlock: KIFKEQ_clean_linker_1, # of connection points: 2
#     Edge 110, Type (0, 0), BuildingBlock: KIFKEQ_clean_linker_1, # of connection points: 2
#     Edge 111, Type (0, 0), BuildingBlock: KIFKEQ_clean_linker_1, # of connection points: 2
# Relax obj value: 0.591
# Max RMSD: 0.178
# Mean RMSD: 0.177
data_MOF--net-wgf--node1-BEQFEK_clean_sbu_0--edge1-KIFKEQ_clean_linker_1
_symmetry_space_group_name_H-M    P1
_symmetry_Int_Tables_number       1
_symmetry_cell_setting            triclinic
loop_
_symmetry_equiv_pos_as_xyz
'x, y, z'
_cell_length_a     83.808111
_cell_length_b     83.800852
_cell_length_c     25.292115
_cell_angle_alpha  89.952573
_cell_angle_beta   90.020806
_cell_angle_gamma 90.00387
loop_
_atom_site_label
_atom_site_type_symbol
_atom_site_fract_x
_atom_site_fract_y
_atom_site_fract_z
_atom_type_partial_charge
Co0 Co 0.07017 0.05043 0.11398 0.0
Co1 Co 0.05429 0.07831 0.05634 0.0
C2 C 0.03825 0.06405 0.15074 0.0
O3 O 0.05006 0.05449 0.15571 0.0
O4 O 0.0377 0.07404 0.11244 0.0
C5 C 0.07535 0.02083 0.16817 0.0
O6 O 0.05976 0.02003 0.17303 0.0
C7 C 0.03522 0.09982 0.98897 0.0
C8 C 0.05423 0.11589 0.95973 0.0
C9 C 0.03809 0.11276 0.95607 0.0
N10 N 0.04905 0.0956 0.01151 0.0
N11 N 0.06029 0.10546 0.9947 0.0
C12 C 0.02012 0.09042 0.99384 0.0
H13 H 0.02225 0.0791 0.01556 0.0
H14 H 0.01521 0.0878 0.954 0.0
H15 H 0.01114 0.09762 0.01549 0.0
C16 C 0.06777 0.03492 0.00892 0.0
N17 N 0.06577 0.04753 0.04129 0.0
N18 N 0.05918 0.05936 0.01511 0.0
C19 C 0.05692 0.0546 0.96437 0.0
C20 C 0.06234 0.03888 0.95857 0.0
C21 C 0.0735 0.01895 0.02753 0.0
H22 H 0.08628 0.01981 0.03857 0.0
H23 H 0.06669 0.01542 0.06321 0.0
H24 H 0.07191 0.00953 0.99725 0.0
O25 O 0.08621 0.06736 0.12688 0.0
O26 O 0.07299 0.08752 0.09251 0.0
H27 H 0.05503 0.07723 0.92532 0.0
H28 H 0.0527 0.06023 0.88205 0.0
C29 C 0.05008 0.06501 0.92199 0.0
H30 H 0.03696 0.06574 0.9272 0.0
H31 H 0.0723 0.10462 0.00524 0.0
O32 O 0.08149 0.0321 0.14194 0.0
C33 C 0.08493 0.08213 0.11738 0.0
Co34 Co 0.19724 0.82203 0.35235 0.0
Co35 Co 0.16982 0.80433 0.29895 0.0
C36 C 0.18503 0.78979 0.39347 0.0
O37 O 0.19368 0.80231 0.39684 0.0
O38 O 0.1752 0.78812 0.35521 0.0
C39 C 0.21104 0.83887 0.42781 0.0
O40 O 0.19745 0.83407 0.44832 0.0
C41 C 0.14953 0.78472 0.22846 0.0
C42 C 0.13001 0.80186 0.21323 0.0
C43 C 0.13573 0.78702 0.19879 0.0
N44 N 0.15201 0.79781 0.25776 0.0
N45 N 0.13998 0.80774 0.24978 0.0
C46 C 0.16112 0.77118 0.22485 0.0
H47 H 0.17227 0.77402 0.24662 0.0
H48 H 0.16386 0.76847 0.18289 0.0
H49 H 0.15564 0.76036 0.24249 0.0
C50 C 0.21269 0.8193 0.24741 0.0
N51 N 0.20029 0.81693 0.28039 0.0
N52 N 0.18849 0.80993 0.25501 0.0
C53 C 0.19314 0.8079 0.2039 0.0
C54 C 0.20876 0.81359 0.19747 0.0
C55 C 0.22781 0.82746 0.26353 0.0
H56 H 0.22491 0.83863 0.28499 0.0
H57 H 0.2345 0.81961 0.29105 0.0
H58 H 0.23543 0.83038 0.22899 0.0
O59 O 0.18011 0.838 0.35992 0.0
O60 O 0.16003 0.82299 0.33512 0.0
H61 H 0.17042 0.80247 0.16909 0.0
H62 H 0.18655 0.80406 0.12222 0.0
C63 C 0.18323 0.79998 0.16238 0.0
H64 H 0.18533 0.78694 0.16419 0.0
H65 H 0.13901 0.81905 0.2667 0.0
O66 O 0.21509 0.83379 0.38247 0.0
C67 C 0.16529 0.83586 0.35463 0.0
Co68 Co 0.43089 0.95085 0.6115 0.0
Co69 Co 0.44772 0.92288 0.55741 0.0
C70 C 0.46297 0.93864 0.65154 0.0
O71 O 0.45116 0.94831 0.65431 0.0
O72 O 0.46362 0.92808 0.61502 0.0
C73 C 0.42055 0.98327 0.64466 0.0
O74 O 0.43472 0.98942 0.63589 0.0
C75 C 0.46806 0.90123 0.49448 0.0
C76 C 0.44957 0.88491 0.46321 0.0
C77 C 0.46573 0.88814 0.46175 0.0
N78 N 0.45389 0.90548 0.51452 0.0
N79 N 0.44296 0.89546 0.49658 0.0
C80 C 0.48306 0.91065 0.50171 0.0
H81 H 0.48061 0.92199 0.52282 0.0
H82 H 0.48858 0.91321 0.46271 0.0
H83 H 0.4917 0.90349 0.52502 0.0
C84 C 0.43275 0.96508 0.50299 0.0
N85 N 0.43504 0.95304 0.53774 0.0
N86 N 0.44266 0.94134 0.51402 0.0
C87 C 0.44562 0.94577 0.46329 0.0
C88 C 0.43958 0.96111 0.45487 0.0
C89 C 0.42362 0.98002 0.51441 0.0
H90 H 0.41327 0.97732 0.5401 0.0
H91 H 0.43159 0.98866 0.53445 0.0
H92 H 0.41922 0.98562 0.47739 0.0
O93 O 0.41604 0.93321 0.62828 0.0
O94 O 0.42882 0.91324 0.59168 0.0
H95 H 0.44976 0.92371 0.42301 0.0
H96 H 0.45463 0.9413 0.38451 0.0
C97 C 0.45482 0.93593 0.42461 0.0
H98 H 0.46736 0.93499 0.43815 0.0
H99 H 0.43081 0.89626 0.50516 0.0
O100 O 0.41814 0.96858 0.63664 0.0
C101 C 0.41714 0.91846 0.61822 0.0
Co102 Co 0.29924 0.17541 0.85983 0.0
Co103 Co 0.32458 0.19547 0.80408 0.0
C104 C 0.31106 0.20718 0.90584 0.0
O105 O 0.30245 0.19457 0.90832 0.0
O106 O 0.32016 0.20967 0.8661 0.0
C107 C 0.26846 0.16387 0.89937 0.0
O108 O 0.26212 0.17792 0.88982 0.0
C109 C 0.34828 0.21733 0.75654 0.0
C110 C 0.35513 0.20291 0.68699 0.0
C111 C 0.35816 0.21725 0.71229 0.0
N112 N 0.33971 0.20379 0.75639 0.0
N113 N 0.34411 0.19511 0.71539 0.0
C114 C 0.3478 0.22925 0.80053 0.0
H115 H 0.34686 0.22295 0.83898 0.0
H116 H 0.33707 0.23688 0.79597 0.0
H117 H 0.35868 0.2368 0.80084 0.0
C118 C 0.28202 0.17935 0.75643 0.0
N119 N 0.29461 0.18151 0.78905 0.0
N120 N 0.30522 0.19061 0.7654 0.0
C121 C 0.29942 0.19488 0.71736 0.0
C122 C 0.28447 0.18791 0.71015 0.0
C123 C 0.26824 0.1685 0.76741 0.0
H124 H 0.27212 0.15828 0.79206 0.0
H125 H 0.2588 0.17526 0.78833 0.0
H126 H 0.26307 0.16389 0.73 0.0
O127 O 0.31774 0.16104 0.86411 0.0
O128 O 0.33639 0.17651 0.83066 0.0
H129 H 0.31601 0.19945 0.65525 0.0
H130 H 0.29873 0.21217 0.65413 0.0
C131 C 0.30752 0.2062 0.68035 0.0
H132 H 0.31428 0.21532 0.70292 0.0
H133 H 0.33942 0.18388 0.70655 0.0
O134 O 0.28296 0.16142 0.8885 0.0
C135 C 0.33219 0.16355 0.85246 0.0
Co136 Co 0.07379 0.95139 0.49002 0.0
Co137 Co 0.05615 0.92367 0.54363 0.0
C138 C 0.04198 0.93913 0.44765 0.0
O139 O 0.0541 0.94839 0.44499 0.0
O140 O 0.04063 0.92899 0.48528 0.0
C141 C 0.10082 0.97082 0.47292 0.0
O142 O 0.10828 0.9595 0.499 0.0
C143 C 0.03505 0.90284 0.60643 0.0
C144 C 0.05268 0.88531 0.63604 0.0
C145 C 0.03674 0.88944 0.6382 0.0
N146 N 0.04937 0.90637 0.58602 0.0
N147 N 0.05977 0.89567 0.60302 0.0
C148 C 0.02061 0.91318 0.60063 0.0
H149 H 0.02369 0.92455 0.58055 0.0
H150 H 0.01537 0.91569 0.64006 0.0
H151 H 0.01151 0.90675 0.57695 0.0
C152 C 0.0701 0.96642 0.59531 0.0
N153 N 0.06842 0.95393 0.56219 0.0
N154 N 0.06123 0.94215 0.58682 0.0
C155 C 0.05838 0.94675 0.6374 0.0
C156 C 0.06397 0.96236 0.64465 0.0
C157 C 0.07603 0.98248 0.57828 0.0
H158 H 0.07157 0.98527 0.53808 0.0
H159 H 0.07203 0.99203 0.60556 0.0
H160 H 0.08926 0.98233 0.57722 0.0
O161 O 0.089 0.93367 0.47675 0.0
O162 O 0.0749 0.91389 0.5096 0.0
H163 H 0.05503 0.92389 0.67392 0.0
H164 H 0.05346 0.94061 0.71878 0.0
C165 C 0.05076 0.93633 0.67824 0.0
H166 H 0.03765 0.93644 0.67236 0.0
H167 H 0.07192 0.89582 0.59396 0.0
O168 O 0.08579 0.97 0.46624 0.0
C169 C 0.08715 0.91892 0.48561 0.0
Co170 Co 0.3029 0.82613 0.73525 0.0
Co171 Co 0.32752 0.80693 0.79727 0.0
C172 C 0.31509 0.79395 0.69506 0.0
O173 O 0.30649 0.80648 0.69038 0.0
O174 O 0.32402 0.79204 0.73555 0.0
C175 C 0.29252 0.84526 0.65742 0.0
O176 O 0.30671 0.84083 0.641 0.0
C177 C 0.35034 0.7851 0.84859 0.0
C178 C 0.35591 0.79913 0.92022 0.0
C179 C 0.35935 0.78489 0.89482 0.0
N180 N 0.3418 0.79864 0.84778 0.0
N181 N 0.34548 0.80713 0.88999 0.0
C182 C 0.35073 0.77347 0.80373 0.0
H183 H 0.35088 0.78003 0.76566 0.0
H184 H 0.33979 0.76602 0.80473 0.0
H185 H 0.36145 0.76572 0.80576 0.0
C186 C 0.28395 0.82304 0.83542 0.0
N187 N 0.29709 0.82064 0.80555 0.0
N188 N 0.30745 0.81205 0.83223 0.0
C189 C 0.30098 0.80836 0.87983 0.0
C190 C 0.28584 0.8153 0.88396 0.0
C191 C 0.27011 0.83304 0.81812 0.0
H192 H 0.2743 0.84301 0.79285 0.0
H193 H 0.26183 0.82558 0.79445 0.0
H194 H 0.26356 0.83796 0.85259 0.0
O195 O 0.3215 0.84044 0.73432 0.0
O196 O 0.33988 0.82594 0.77307 0.0
H197 H 0.31632 0.80415 0.94582 0.0
H198 H 0.29933 0.79105 0.94285 0.0
C199 C 0.30852 0.79723 0.91882 0.0
H200 H 0.31589 0.78821 0.89804 0.0
H201 H 0.34067 0.81833 0.89845 0.0
O202 O 0.28699 0.83937 0.69998 0.0
C203 C 0.33577 0.8386 0.74924 0.0
Co204 Co 0.42597 0.05137 0.9959 0.0
Co205 Co 0.44385 0.07896 0.04798 0.0
C206 C 0.45802 0.06285 0.95315 0.0
O207 O 0.44579 0.05371 0.95062 0.0
O208 O 0.45937 0.07315 0.99024 0.0
C209 C 0.41627 0.02096 0.95114 0.0
O210 O 0.43137 0.01679 0.94947 0.0
C211 C 0.46513 0.09994 0.10939 0.0
C212 C 0.44771 0.11789 0.13731 0.0
C213 C 0.46361 0.11361 0.13994 0.0
N214 N 0.45079 0.0964 0.08929 0.0
N215 N 0.4405 0.10737 0.10522 0.0
C216 C 0.47943 0.08935 0.10462 0.0
H217 H 0.47624 0.07793 0.08509 0.0
H218 H 0.48454 0.08694 0.14435 0.0
H219 H 0.4887 0.09552 0.08086 0.0
C220 C 0.42915 0.03658 0.10206 0.0
N221 N 0.43101 0.04893 0.06841 0.0
N222 N 0.43856 0.06063 0.09229 0.0
C223 C 0.44166 0.05601 0.14273 0.0
C224 C 0.43576 0.04054 0.15081 0.0
C225 C 0.42277 0.02066 0.08543 0.0
H226 H 0.42986 0.01627 0.05153 0.0
H227 H 0.42349 0.01157 0.1171 0.0
H228 H 0.41021 0.02199 0.07236 0.0
O229 O 0.41106 0.06915 0.98235 0.0
O230 O 0.4253 0.08907 0.01307 0.0
H231 H 0.44765 0.062 0.22337 0.0
H232 H 0.46313 0.06553 0.17522 0.0
C233 C 0.45009 0.06616 0.1825 0.0
H234 H 0.44627 0.07876 0.17838 0.0
H235 H 0.42836 0.10729 0.09609 0.0
O236 O 0.41241 0.03411 0.97179 0.0
C237 C 0.41298 0.08394 0.98976 0.0
Co238 Co 0.19724 0.17843 0.24605 0.0
Co239 Co 0.16895 0.19565 0.2969 0.0
C240 C 0.18553 0.21004 0.20224 0.0
O241 O 0.19505 0.19811 0.20035 0.0
O242 O 0.17488 0.21098 0.2384 0.0
C243 C 0.22829 0.16875 0.20464 0.0
O244 O 0.23239 0.18386 0.20119 0.0
C245 C 0.14868 0.2174 0.35837 0.0
C246 C 0.12983 0.20075 0.38496 0.0
C247 C 0.135 0.21636 0.38904 0.0
N248 N 0.15142 0.20306 0.33693 0.0
N249 N 0.1399 0.19326 0.35193 0.0
C250 C 0.16008 0.2311 0.35503 0.0
H251 H 0.17136 0.22741 0.33555 0.0
H252 H 0.16266 0.2358 0.39517 0.0
H253 H 0.15451 0.24087 0.33182 0.0
C254 C 0.21129 0.18179 0.35312 0.0
N255 N 0.19917 0.18366 0.3186 0.0
N256 N 0.18707 0.19061 0.34225 0.0
C257 C 0.19111 0.19313 0.39357 0.0
C258 C 0.20666 0.18758 0.40234 0.0
C259 C 0.22754 0.17612 0.33731 0.0
H260 H 0.23159 0.18309 0.30269 0.0
H261 H 0.23653 0.17768 0.36896 0.0
H262 H 0.22691 0.16336 0.32583 0.0
O263 O 0.17967 0.16318 0.23237 0.0
O264 O 0.15931 0.17665 0.26389 0.0
H265 H 0.18378 0.19676 0.47448 0.0
H266 H 0.18082 0.21349 0.43082 0.0
C267 C 0.18022 0.20031 0.43387 0.0
H268 H 0.16776 0.1965 0.42653 0.0
H269 H 0.13934 0.1812 0.34188 0.0
O270 O 0.2149 0.16504 0.22387 0.0
C271 C 0.16485 0.1645 0.24066 0.0
Co272 Co 0.94825 0.92774 0.9872 0.0
Co273 Co 0.92344 0.94719 0.04802 0.0
C274 C 0.9356 0.95986 0.94663 0.0
O275 O 0.94377 0.94709 0.94162 0.0
O276 O 0.92729 0.9623 0.9881 0.0
C277 C 0.95965 0.91143 0.90609 0.0
O278 O 0.94553 0.91647 0.89088 0.0
C279 C 0.90419 0.97 0.11037 0.0
C280 C 0.89163 0.95293 0.16261 0.0
C281 C 0.89341 0.96904 0.15209 0.0
N282 N 0.90874 0.95512 0.09792 0.0
N283 N 0.90098 0.94499 0.12862 0.0
C284 C 0.90952 0.98455 0.08085 0.0
H285 H 0.91042 0.98187 0.03811 0.0
H286 H 0.92153 0.98813 0.09504 0.0
H287 H 0.90104 0.99458 0.08624 0.0
C288 C 0.96666 0.93098 0.08842 0.0
N289 N 0.95376 0.93347 0.05747 0.0
N290 N 0.94312 0.94178 0.08386 0.0
C291 C 0.94901 0.945 0.13254 0.0
C292 C 0.96417 0.93821 0.13737 0.0
C293 C 0.98128 0.92231 0.07049 0.0
H294 H 0.97904 0.90927 0.07268 0.0
H295 H 0.98392 0.92536 0.02872 0.0
H296 H 0.99174 0.92527 0.09556 0.0
O297 O 0.93004 0.91281 0.9866 0.0
O298 O 0.91152 0.92849 0.01984 0.0
H299 H 0.92887 0.94727 0.1836 0.0
H300 H 0.94693 0.95529 0.2111 0.0
C301 C 0.93996 0.95388 0.17418 0.0
H302 H 0.93652 0.96579 0.15878 0.0
H303 H 0.90237 0.93263 0.12711 0.0
O304 O 0.96482 0.91545 0.95138 0.0
C305 C 0.91561 0.91544 0.99845 0.0
Co306 Co 0.82134 0.20083 0.74087 0.0
Co307 Co 0.80452 0.17455 0.80344 0.0
C308 C 0.78948 0.18634 0.70488 0.0
O309 O 0.80161 0.19538 0.69918 0.0
O310 O 0.78805 0.17752 0.74592 0.0
C311 C 0.83553 0.2132 0.65761 0.0
O312 O 0.83003 0.1993 0.64202 0.0
C313 C 0.78499 0.15453 0.87471 0.0
C314 C 0.80415 0.13994 0.91079 0.0
C315 C 0.78791 0.14266 0.9117 0.0
N316 N 0.79896 0.1586 0.85274 0.0
N317 N 0.8103 0.14964 0.87381 0.0
C318 C 0.76959 0.16301 0.8645 0.0
H319 H 0.77166 0.1741 0.84152 0.0
H320 H 0.76361 0.16588 0.90247 0.0
H321 H 0.76156 0.15505 0.8417 0.0
C322 C 0.81889 0.21847 0.84359 0.0
N323 N 0.81657 0.20557 0.8126 0.0
N324 N 0.80937 0.19435 0.84003 0.0
C325 C 0.80685 0.19985 0.88971 0.0
C326 C 0.8128 0.21538 0.89387 0.0
C327 C 0.82625 0.23368 0.82448 0.0
H328 H 0.83943 0.23238 0.82469 0.0
H329 H 0.82244 0.23612 0.78326 0.0
H330 H 0.8229 0.2439 0.85008 0.0
O331 O 0.83728 0.18362 0.73509 0.0
O332 O 0.82354 0.16422 0.77142 0.0
H333 H 0.80522 0.17826 0.93469 0.0
H334 H 0.80076 0.19602 0.97206 0.0
C335 C 0.79947 0.19016 0.93299 0.0
H336 H 0.78662 0.18841 0.92431 0.0
H337 H 0.82239 0.15059 0.86448 0.0
O338 O 0.83229 0.21806 0.70395 0.0
C339 C 0.83585 0.16905 0.74717 0.0
Co340 Co 0.55078 0.07147 0.49092 0.0
Co341 Co 0.57774 0.05578 0.55394 0.0
C342 C 0.56575 0.03965 0.4573 0.0
O343 O 0.556 0.05124 0.4521 0.0
O344 O 0.57538 0.03912 0.49654 0.0
C345 C 0.53761 0.08436 0.40681 0.0
O346 O 0.55146 0.0788 0.39091 0.0
C347 C 0.59905 0.03734 0.62515 0.0
C348 C 0.61085 0.05753 0.66582 0.0
C349 C 0.61003 0.04107 0.66433 0.0
N350 N 0.59363 0.05106 0.60452 0.0
N351 N 0.60096 0.06304 0.62833 0.0
C352 C 0.59257 0.02123 0.61151 0.0
H353 H 0.58157 0.02233 0.58734 0.0
H354 H 0.58999 0.01437 0.6481 0.0
H355 H 0.60166 0.01454 0.58862 0.0
C356 C 0.53356 0.06952 0.5942 0.0
N357 N 0.54645 0.06734 0.56307 0.0
N358 N 0.55779 0.06029 0.59032 0.0
C359 C 0.55236 0.05762 0.64 0.0
C360 C 0.53673 0.06337 0.64442 0.0
C361 C 0.5187 0.0778 0.57623 0.0
H362 H 0.52174 0.08751 0.54819 0.0
H363 H 0.51097 0.06911 0.55529 0.0
H364 H 0.51201 0.08285 0.61018 0.0
O365 O 0.56784 0.08752 0.48194 0.0
O366 O 0.58754 0.07495 0.52113 0.0
H367 H 0.57144 0.05638 0.69585 0.0
H368 H 0.55397 0.04504 0.71483 0.0
C369 C 0.5616 0.04872 0.68116 0.0
H370 H 0.56695 0.03792 0.66325 0.0
H371 H 0.59873 0.07505 0.62039 0.0
O372 O 0.53312 0.08165 0.45391 0.0
C373 C 0.5824 0.08675 0.49484 0.0
Co374 Co 0.67798 0.80032 0.24728 0.0
Co375 Co 0.69774 0.82586 0.30251 0.0
C376 C 0.71019 0.81185 0.20342 0.0
O377 O 0.69733 0.80367 0.20032 0.0
O378 O 0.71282 0.82084 0.24326 0.0
C379 C 0.67063 0.76885 0.2097 0.0
O380 O 0.68557 0.76516 0.21964 0.0
C381 C 0.71993 0.84723 0.36034 0.0
C382 C 0.70255 0.85848 0.41458 0.0
C383 C 0.71861 0.85807 0.40186 0.0
N384 N 0.70533 0.84141 0.35012 0.0
N385 N 0.69501 0.84837 0.38205 0.0
C386 C 0.7345 0.84286 0.3294 0.0
H387 H 0.73137 0.8412 0.2872 0.0
H388 H 0.73931 0.83138 0.34448 0.0
H389 H 0.7438 0.85224 0.33254 0.0
C390 C 0.68019 0.78431 0.35315 0.0
N391 N 0.68329 0.79636 0.31916 0.0
N392 N 0.69228 0.80702 0.34278 0.0
C393 C 0.69562 0.8018 0.39232 0.0
C394 C 0.68807 0.78713 0.40075 0.0
C395 C 0.66891 0.77089 0.3418 0.0
H396 H 0.67546 0.76111 0.32179 0.0
H397 H 0.66367 0.7661 0.37887 0.0
H398 H 0.65914 0.77503 0.31566 0.0
O399 O 0.66321 0.81838 0.24007 0.0
O400 O 0.67894 0.83721 0.27145 0.0
H401 H 0.71136 0.80201 0.46009 0.0
H402 H 0.71666 0.81563 0.40738 0.0
C403 C 0.70659 0.81025 0.42959 0.0
H404 H 0.69996 0.82 0.44949 0.0
H405 H 0.6828 0.84591 0.38238 0.0
O406 O 0.66563 0.78278 0.21927 0.0
C407 C 0.66597 0.83295 0.24967 0.0
Co408 Co 0.94724 0.07362 0.61156 0.0
Co409 Co 0.91975 0.05695 0.55362 0.0
C410 C 0.93378 0.04157 0.64861 0.0
O411 O 0.9428 0.05374 0.65329 0.0
O412 O 0.92419 0.04033 0.6095 0.0
C413 C 0.96152 0.08759 0.69198 0.0
O414 O 0.94779 0.08242 0.71028 0.0
C415 C 0.8995 0.03739 0.48307 0.0
C416 C 0.88111 0.05526 0.46209 0.0
C417 C 0.88594 0.03978 0.45231 0.0
N418 N 0.90252 0.05095 0.50937 0.0
N419 N 0.8913 0.06144 0.49744 0.0
C420 C 0.91035 0.02322 0.48355 0.0
H421 H 0.92181 0.02618 0.50332 0.0
H422 H 0.91262 0.01906 0.44259 0.0
H423 H 0.90453 0.01336 0.50558 0.0
C424 C 0.96296 0.07154 0.50619 0.0
N425 N 0.95048 0.06913 0.53888 0.0
N426 N 0.93876 0.06225 0.51277 0.0
C427 C 0.94351 0.0602 0.46196 0.0
C428 C 0.95906 0.06597 0.45598 0.0
C429 C 0.97861 0.07828 0.52386 0.0
H430 H 0.98165 0.07362 0.56366 0.0
H431 H 0.98834 0.07526 0.49588 0.0
H432 H 0.97756 0.09145 0.52672 0.0
O433 O 0.93014 0.0895 0.62187 0.0
O434 O 0.91016 0.07584 0.58878 0.0
H435 H 0.92068 0.05727 0.42473 0.0
H436 H 0.93738 0.05745 0.37956 0.0
C437 C 0.93322 0.05348 0.4191 0.0
H438 H 0.9338 0.04027 0.42059 0.0
H439 H 0.89093 0.07312 0.51164 0.0
O440 O 0.96537 0.08433 0.64464 0.0
C441 C 0.91539 0.08806 0.61264 0.0
Co442 Co 0.6762 0.20018 0.3685 0.0
Co443 Co 0.69327 0.17392 0.30686 0.0
C444 C 0.70802 0.18581 0.40559 0.0
O445 O 0.69582 0.19478 0.41093 0.0
O446 O 0.7096 0.17701 0.36465 0.0
C447 C 0.66178 0.21282 0.45109 0.0
O448 O 0.6669 0.1988 0.46704 0.0
C449 C 0.71304 0.15394 0.23623 0.0
C450 C 0.69402 0.13919 0.20014 0.0
C451 C 0.71025 0.14203 0.19934 0.0
N452 N 0.69901 0.15791 0.25801 0.0
N453 N 0.68776 0.14885 0.23694 0.0
C454 C 0.72835 0.16256 0.24646 0.0
H455 H 0.72618 0.17363 0.26944 0.0
H456 H 0.73431 0.16551 0.20849 0.0
H457 H 0.73646 0.15466 0.26925 0.0
C458 C 0.67913 0.21786 0.26586 0.0
N459 N 0.68123 0.20491 0.2969 0.0
N460 N 0.68853 0.19369 0.26982 0.0
C461 C 0.69133 0.19923 0.22033 0.0
C462 C 0.68547 0.2148 0.21593 0.0
C463 C 0.6718 0.2331 0.28473 0.0
H464 H 0.6756 0.23555 0.32594 0.0
H465 H 0.6752 0.2433 0.25906 0.0
H466 H 0.65862 0.23183 0.28448 0.0
O467 O 0.66022 0.18297 0.37403 0.0
O468 O 0.6742 0.16359 0.33871 0.0
H469 H 0.69768 0.1954 0.13824 0.0
H470 H 0.7118 0.18806 0.18645 0.0
C471 C 0.69895 0.18959 0.17743 0.0
H472 H 0.69338 0.17761 0.17579 0.0
H473 H 0.67566 0.14971 0.24612 0.0
O474 O 0.66527 0.21755 0.40479 0.0
C475 C 0.66178 0.16838 0.36242 0.0
Co476 Co 0.55462 0.92815 0.11378 0.0
Co477 Co 0.58146 0.94565 0.05589 0.0
C478 C 0.56807 0.96023 0.15264 0.0
O479 O 0.55898 0.94804 0.15617 0.0
O480 O 0.57768 0.96175 0.11372 0.0
C481 C 0.54143 0.91373 0.19509 0.0
O482 O 0.55527 0.91909 0.21186 0.0
C483 C 0.60157 0.96585 0.98703 0.0
C484 C 0.61711 0.94723 0.95241 0.0
C485 C 0.61381 0.96337 0.95109 0.0
N486 N 0.59784 0.95174 0.00876 0.0
N487 N 0.60737 0.94073 0.98862 0.0
C488 C 0.5924 0.9809 0.99619 0.0
H489 H 0.58123 0.97841 0.01827 0.0
H490 H 0.58956 0.98672 0.95787 0.0
H491 H 0.59986 0.98928 0.01948 0.0
C492 C 0.53806 0.93086 0.0096 0.0
N493 N 0.55066 0.93311 0.04199 0.0
N494 N 0.56207 0.94059 0.01632 0.0
C495 C 0.55698 0.94333 0.9662 0.0
C496 C 0.54154 0.93725 0.96005 0.0
C497 C 0.5227 0.92343 0.02695 0.0
H498 H 0.52404 0.91025 0.02675 0.0
H499 H 0.51986 0.92718 0.06792 0.0
H500 H 0.51271 0.92679 1.00036 0.0
O501 O 0.57209 0.91238 0.12099 0.0
O502 O 0.59178 0.92693 0.08987 0.0
H503 H 0.57906 0.9459 0.92442 0.0
H504 H 0.5616 0.94961 0.88451 0.0
C505 C 0.56692 0.95113 0.92437 0.0
H506 H 0.56797 0.96404 0.93318 0.0
H507 H 0.60677 0.92862 0.99791 0.0
O508 O 0.53701 0.91698 0.14825 0.0
C509 C 0.58681 0.91436 0.11227 0.0
Co510 Co 0.82167 0.80375 0.85508 0.0
Co511 Co 0.80327 0.83131 0.80452 0.0
C512 C 0.78901 0.81485 0.8965 0.0
O513 O 0.80173 0.80646 0.89898 0.0
O514 O 0.78698 0.82489 0.85901 0.0
C515 C 0.82893 0.77108 0.8875 0.0
O516 O 0.81479 0.76641 0.8713 0.0
C517 C 0.7833 0.85243 0.7373 0.0
C518 C 0.80083 0.87156 0.72114 0.0
C519 C 0.78559 0.86647 0.70882 0.0
N520 N 0.79673 0.84934 0.76439 0.0
N521 N 0.80697 0.86104 0.75552 0.0
C522 C 0.7694 0.84126 0.73469 0.0
H523 H 0.77239 0.82968 0.75359 0.0
H524 H 0.76576 0.83934 0.69298 0.0
H525 H 0.75915 0.84663 0.75597 0.0
C526 C 0.82164 0.79099 0.74453 0.0
N527 N 0.81773 0.80207 0.78112 0.0
N528 N 0.80953 0.81361 0.75852 0.0
C529 C 0.80767 0.80988 0.7066 0.0
C530 C 0.81524 0.79539 0.696 0.0
C531 C 0.83095 0.77615 0.75621 0.0
H532 H 0.84042 0.77872 0.78554 0.0
H533 H 0.82277 0.767 0.77251 0.0
H534 H 0.83652 0.77111 0.72025 0.0
O535 O 0.83682 0.82099 0.87018 0.0
O536 O 0.82167 0.84087 0.84347 0.0
H537 H 0.80221 0.83282 0.67367 0.0
H538 H 0.80264 0.81676 0.62603 0.0
C539 C 0.79926 0.82011 0.66698 0.0
H540 H 0.78621 0.81845 0.67143 0.0
H541 H 0.81853 0.86148 0.77075 0.0
O542 O 0.83318 0.78547 0.8823 0.0
C543 C 0.8343 0.8358 0.8654 0.0
Co544 Co 0.56972 0.55322 0.5968 0.0
Co545 Co 0.55432 0.58301 0.54969 0.0
C546 C 0.53805 0.56792 0.63835 0.0
O547 O 0.54994 0.55838 0.63927 0.0
O548 O 0.53695 0.57852 0.60222 0.0
C549 C 0.56448 0.52097 0.60793 0.0
O550 O 0.55092 0.52509 0.58562 0.0
C551 C 0.5388 0.60732 0.4822 0.0
C552 C 0.55958 0.62257 0.4646 0.0
C553 C 0.54378 0.62006 0.45111 0.0
N554 N 0.55118 0.6023 0.51135 0.0
N555 N 0.56337 0.61192 0.50224 0.0
C556 C 0.52319 0.59871 0.47867 0.0
H557 H 0.5236 0.58736 0.50129 0.0
H558 H 0.52005 0.59635 0.43676 0.0
H559 H 0.51368 0.60644 0.49527 0.0
C560 C 0.56899 0.54193 0.48627 0.0
N561 N 0.56626 0.55326 0.52302 0.0
N562 N 0.55833 0.56517 0.50168 0.0
C563 C 0.55528 0.5613 0.45039 0.0
C564 C 0.56177 0.54632 0.43949 0.0
C565 C 0.57913 0.52739 0.49402 0.0
H566 H 0.5877 0.52916 0.52687 0.0
H567 H 0.57139 0.51694 0.5022 0.0
H568 H 0.58587 0.52472 0.45728 0.0
O569 O 0.58727 0.56757 0.61727 0.0
O570 O 0.57365 0.58879 0.59182 0.0
H571 H 0.54986 0.58388 0.41553 0.0
H572 H 0.54745 0.56709 0.37139 0.0
C573 C 0.54593 0.5713 0.41268 0.0
H574 H 0.53312 0.57054 0.42315 0.0
H575 H 0.57473 0.61043 0.51839 0.0
O576 O 0.57495 0.53158 0.61686 0.0
C577 C 0.58571 0.5826 0.61438 0.0
Co578 Co 0.70001 0.32526 0.86402 0.0
Co579 Co 0.67259 0.30743 0.81071 0.0
C580 C 0.68751 0.29326 0.90681 0.0
O581 O 0.69681 0.30538 0.90936 0.0
O582 O 0.67742 0.29192 0.86909 0.0
C583 C 0.73216 0.33606 0.8999 0.0
O584 O 0.73885 0.32222 0.88967 0.0
C585 C 0.65067 0.28696 0.74881 0.0
C586 C 0.63524 0.30564 0.714 0.0
C587 C 0.63781 0.28936 0.715 0.0
N588 N 0.6554 0.30122 0.76696 0.0
N589 N 0.6459 0.31227 0.74687 0.0
C590 C 0.65936 0.27168 0.75921 0.0
H591 H 0.67067 0.27396 0.78081 0.0
H592 H 0.66194 0.2655 0.72137 0.0
H593 H 0.6517 0.26372 0.78336 0.0
C594 C 0.71489 0.32244 0.75691 0.0
N595 N 0.70277 0.32028 0.79134 0.0
N596 N 0.69132 0.31217 0.76814 0.0
C597 C 0.69603 0.3086 0.71821 0.0
C598 C 0.71128 0.31487 0.70954 0.0
C599 C 0.72935 0.33238 0.76773 0.0
H600 H 0.72623 0.34255 0.79369 0.0
H601 H 0.73852 0.32491 0.78736 0.0
H602 H 0.7345 0.33711 0.73044 0.0
O603 O 0.68258 0.34067 0.87521 0.0
O604 O 0.66273 0.32641 0.84397 0.0
H605 H 0.67479 0.30411 0.6738 0.0
H606 H 0.69281 0.29659 0.643 0.0
C607 C 0.68655 0.29844 0.68111 0.0
H608 H 0.68438 0.28668 0.69978 0.0
H609 H 0.64713 0.32448 0.75384 0.0
O610 O 0.71746 0.33806 0.89095 0.0
C611 C 0.66784 0.33886 0.8666 0.0
Co612 Co 0.93054 0.44911 0.10469 0.0
Co613 Co 0.94715 0.4202 0.05472 0.0
C614 C 0.96185 0.4376 0.14835 0.0
O615 O 0.9501 0.44732 0.14986 0.0
O616 O 0.96251 0.42669 0.11297 0.0
C617 C 0.92043 0.48059 0.14287 0.0
O618 O 0.93544 0.48491 0.14737 0.0
C619 C 0.96791 0.40062 0.98688 0.0
C620 C 0.95273 0.37927 0.97699 0.0
C621 C 0.96673 0.38625 0.95977 0.0
N622 N 0.95499 0.40217 0.01763 0.0
N623 N 0.94627 0.38909 0.01292 0.0
C624 C 0.98005 0.41352 0.97918 0.0
H625 H 0.97603 0.42481 0.99788 0.0
H626 H 0.9824 0.41545 0.93648 0.0
H627 H 0.99144 0.40975 0.99775 0.0
C628 C 0.93339 0.46229 0.99644 0.0
N629 N 0.93556 0.45038 0.03157 0.0
N630 N 0.94175 0.43791 0.00766 0.0
C631 C 0.94305 0.44142 0.95532 0.0
C632 C 0.93788 0.45708 0.94647 0.0
C633 C 0.92854 0.47884 0.0118 0.0
H634 H 0.93564 0.4826 0.04647 0.0
H635 H 0.93066 0.48764 0.97986 0.0
H636 H 0.91573 0.47891 0.02279 0.0
O637 O 0.91548 0.43159 0.12166 0.0
O638 O 0.92793 0.41101 0.08753 0.0
H639 H 0.94116 0.43205 0.87647 0.0
H640 H 0.96073 0.43135 0.90469 0.0
C641 C 0.94788 0.42977 0.91355 0.0
H642 H 0.94567 0.41737 0.92679 0.0
H643 H 0.93529 0.38727 0.03148 0.0
O644 O 0.91705 0.46694 0.12491 0.0
C645 C 0.91621 0.41676 0.11258 0.0
Co646 Co 0.80451 0.68134 0.36629 0.0
Co647 Co 0.83082 0.69768 0.3033 0.0
C648 C 0.81744 0.71445 0.39645 0.0
O649 O 0.80893 0.70202 0.40436 0.0
O650 O 0.82664 0.71533 0.35612 0.0
C651 C 0.79244 0.66634 0.44876 0.0
O652 O 0.80615 0.672 0.46569 0.0
C653 C 0.85033 0.71457 0.22252 0.0
C654 C 0.86719 0.69527 0.2025 0.0
C655 C 0.86263 0.7105 0.18825 0.0
N656 N 0.84766 0.70222 0.25507 0.0
N657 N 0.85819 0.69095 0.24394 0.0
C658 C 0.8402 0.72924 0.2203 0.0
H659 H 0.82959 0.72798 0.24626 0.0
H660 H 0.83645 0.73171 0.179 0.0
H661 H 0.84738 0.73959 0.23377 0.0
C662 C 0.78672 0.68235 0.26485 0.0
N663 N 0.79986 0.68493 0.29446 0.0
N664 N 0.81115 0.69141 0.26537 0.0
C665 C 0.80539 0.69292 0.21534 0.0
C666 C 0.78962 0.68738 0.21333 0.0
C667 C 0.77179 0.67489 0.28581 0.0
H668 H 0.77486 0.66409 0.30906 0.0
H669 H 0.76581 0.68342 0.31286 0.0
H670 H 0.76346 0.67155 0.25356 0.0
O671 O 0.82176 0.66553 0.37402 0.0
O672 O 0.8414 0.68003 0.34307 0.0
H673 H 0.82705 0.69675 0.17303 0.0
H674 H 0.80945 0.69705 0.13189 0.0
C675 C 0.8144 0.70042 0.17091 0.0
H676 H 0.81361 0.71356 0.17465 0.0
H677 H 0.85853 0.67976 0.26197 0.0
O678 O 0.7875 0.67022 0.40306 0.0
C679 C 0.83648 0.66759 0.36623 0.0
Co680 Co 0.57114 0.45032 0.99567 0.0
Co681 Co 0.5557 0.4227 0.0544 0.0
C682 C 0.53934 0.43482 0.96009 0.0
O683 O 0.55131 0.44409 0.95515 0.0
O684 O 0.53835 0.42543 0.99978 0.0
C685 C 0.56686 0.4773 0.94127 0.0
O686 O 0.5529 0.47705 0.96496 0.0
C687 C 0.53824 0.4005 0.12366 0.0
C688 C 0.55825 0.38602 0.15459 0.0
C689 C 0.54192 0.38804 0.15769 0.0
N690 N 0.55179 0.4055 0.10103 0.0
N691 N 0.56366 0.39659 0.11885 0.0
C692 C 0.52254 0.4088 0.1177 0.0
H693 H 0.52395 0.42014 0.09547 0.0
H694 H 0.51731 0.41127 0.15719 0.0
H695 H 0.51416 0.4009 0.09607 0.0
C696 C 0.56899 0.46653 0.099 0.0
N697 N 0.56688 0.45372 0.06763 0.0
N698 N 0.55983 0.44223 0.0941 0.0
C699 C 0.55703 0.44755 0.1439 0.0
C700 C 0.56279 0.46318 0.14878 0.0
C701 C 0.57571 0.48205 0.07971 0.0
H702 H 0.56722 0.4875 0.05142 0.0
H703 H 0.57776 0.49073 0.11191 0.0
H704 H 0.58707 0.47983 0.05846 0.0
O705 O 0.58837 0.43473 0.98417 0.0
O706 O 0.57482 0.41443 0.01667 0.0
H707 H 0.55065 0.44342 0.22563 0.0
H708 H 0.53629 0.43674 0.17713 0.0
C709 C 0.54919 0.43783 0.18615 0.0
H710 H 0.55438 0.42567 0.18679 0.0
H711 H 0.57559 0.39817 0.10831 0.0
O712 O 0.5783 0.46973 0.96217 0.0
C713 C 0.58696 0.41991 0.99283 0.0
Co714 Co 0.80078 0.32552 0.24624 0.0
Co715 Co 0.828 0.30745 0.3002 0.0
C716 C 0.81284 0.2936 0.20327 0.0
O717 O 0.80347 0.30566 0.20115 0.0
O718 O 0.82311 0.2923 0.2405 0.0
C719 C 0.76882 0.33651 0.21057 0.0
O720 O 0.76227 0.32258 0.22039 0.0
C721 C 0.84961 0.28631 0.36095 0.0
C722 C 0.86571 0.30449 0.39523 0.0
C723 C 0.8627 0.28829 0.39404 0.0
N724 N 0.84515 0.30073 0.34341 0.0
N725 N 0.85503 0.31148 0.36319 0.0
C726 C 0.84047 0.27129 0.35056 0.0
H727 H 0.82918 0.27392 0.32936 0.0
H728 H 0.83784 0.2651 0.38839 0.0
H729 H 0.84785 0.26317 0.32603 0.0
C730 C 0.78585 0.32273 0.3535 0.0
N731 N 0.79799 0.32051 0.3192 0.0
N732 N 0.8093 0.31219 0.34246 0.0
C733 C 0.80448 0.30856 0.39224 0.0
C734 C 0.78929 0.315 0.40078 0.0
C735 C 0.77149 0.33282 0.34261 0.0
H736 H 0.77475 0.34301 0.31689 0.0
H737 H 0.76228 0.32547 0.32271 0.0
H738 H 0.76633 0.33751 0.3799 0.0
O739 O 0.81857 0.34048 0.23365 0.0
O740 O 0.83796 0.32672 0.26967 0.0
H741 H 0.8257 0.3036 0.4362 0.0
H742 H 0.80758 0.29653 0.46754 0.0
C743 C 0.81379 0.29821 0.42926 0.0
H744 H 0.81564 0.28639 0.4107 0.0
H745 H 0.85411 0.32374 0.35657 0.0
O746 O 0.7835 0.33863 0.21976 0.0
C747 C 0.83318 0.33896 0.24508 0.0
Co748 Co 0.92447 0.55026 0.48684 0.0
Co749 Co 0.94551 0.57422 0.54474 0.0
C750 C 0.95725 0.5606 0.44381 0.0
O751 O 0.94404 0.55299 0.43945 0.0
O752 O 0.96011 0.56914 0.48455 0.0
C753 C 0.9118 0.52024 0.44476 0.0
O754 O 0.92542 0.51321 0.45566 0.0
C755 C 0.96806 0.59657 0.59533 0.0
C756 C 0.95353 0.60363 0.66442 0.0
C757 C 0.96818 0.6061 0.64041 0.0
N758 N 0.95413 0.58869 0.59388 0.0
N759 N 0.94539 0.59323 0.63458 0.0
C760 C 0.98025 0.59576 0.55217 0.0
H761 H 0.9742 0.59517 0.51321 0.0
H762 H 0.98743 0.58473 0.55692 0.0
H763 H 0.98821 0.60634 0.55282 0.0
C764 C 0.92734 0.53221 0.58952 0.0
N765 N 0.93005 0.5449 0.55767 0.0
N766 N 0.93952 0.55499 0.58215 0.0
C767 C 0.94351 0.54875 0.62983 0.0
C768 C 0.93593 0.53406 0.6361 0.0
C769 C 0.91599 0.51893 0.57747 0.0
H770 H 0.9061 0.52328 0.55222 0.0
H771 H 0.92247 0.50925 0.55679 0.0
H772 H 0.91095 0.51389 0.61447 0.0
O773 O 0.91092 0.56937 0.48356 0.0
O774 O 0.92736 0.58714 0.51707 0.0
H775 H 0.94899 0.56474 0.69286 0.0
H776 H 0.96088 0.54687 0.69255 0.0
C777 C 0.95528 0.55609 0.66706 0.0
H778 H 0.96466 0.56253 0.64469 0.0
H779 H 0.9339 0.58902 0.64229 0.0
O780 O 0.90993 0.53481 0.456 0.0
C781 C 0.91419 0.58366 0.49529 0.0
Co782 Co 0.69781 0.67631 0.75124 0.0
Co783 Co 0.67096 0.69449 0.8058 0.0
C784 C 0.6858 0.70847 0.7094 0.0
O785 O 0.69424 0.6958 0.70562 0.0
O786 O 0.67629 0.71037 0.74842 0.0
C787 C 0.71121 0.65761 0.67787 0.0
O788 O 0.69721 0.66113 0.65752 0.0
C789 C 0.65148 0.71448 0.87764 0.0
C790 C 0.63108 0.69821 0.89072 0.0
C791 C 0.63746 0.71265 0.90642 0.0
N792 N 0.65342 0.7015 0.84735 0.0
N793 N 0.6409 0.69211 0.85415 0.0
C794 C 0.66368 0.72742 0.88284 0.0
H795 H 0.67484 0.72414 0.86181 0.0
H796 H 0.66624 0.72982 0.92514 0.0
H797 H 0.65886 0.73856 0.8653 0.0
C798 C 0.71421 0.67987 0.85447 0.0
N799 N 0.70149 0.68197 0.82256 0.0
N800 N 0.68985 0.68894 0.84873 0.0
C801 C 0.69486 0.69107 0.89941 0.0
C802 C 0.71057 0.6855 0.90483 0.0
C803 C 0.72988 0.67346 0.83564 0.0
H804 H 0.73212 0.67739 0.79443 0.0
H805 H 0.73986 0.67756 0.86106 0.0
H806 H 0.72946 0.66023 0.83617 0.0
O807 O 0.68042 0.66047 0.74608 0.0
O808 O 0.66072 0.67584 0.77124 0.0
H809 H 0.68791 0.69162 0.98126 0.0
H810 H 0.68659 0.71032 0.94711 0.0
C811 C 0.68463 0.6973 0.94312 0.0
H812 H 0.67187 0.69497 0.93476 0.0
H813 H 0.63941 0.681 0.83624 0.0
O814 O 0.71536 0.66405 0.7212 0.0
C815 C 0.66567 0.66281 0.75209 0.0
Co816 Co 0.45041 0.42959 0.49356 0.0
Co817 Co 0.42278 0.44633 0.55075 0.0
C818 C 0.43742 0.46171 0.4561 0.0
O819 O 0.44645 0.44953 0.45179 0.0
O820 O 0.42767 0.46294 0.49479 0.0
C821 C 0.46502 0.41501 0.41445 0.0
O822 O 0.45157 0.42037 0.39442 0.0
C823 C 0.403 0.46617 0.62202 0.0
C824 C 0.38415 0.44871 0.64223 0.0
C825 C 0.38944 0.46399 0.65293 0.0
N826 N 0.4056 0.45268 0.5948 0.0
N827 N 0.39409 0.44245 0.60628 0.0
C828 C 0.41423 0.48004 0.62222 0.0
H829 H 0.42564 0.47682 0.60263 0.0
H830 H 0.41653 0.48405 0.66334 0.0
H831 H 0.40873 0.49011 0.60032 0.0
C832 C 0.46557 0.43087 0.59993 0.0
N833 N 0.45332 0.43375 0.56661 0.0
N834 N 0.44156 0.44063 0.59248 0.0
C835 C 0.44606 0.4422 0.64379 0.0
C836 C 0.46147 0.4361 0.65035 0.0
C837 C 0.48117 0.42391 0.58278 0.0
H838 H 0.48464 0.42893 0.54386 0.0
H839 H 0.49076 0.42635 0.61193 0.0
H840 H 0.4798 0.41082 0.57816 0.0
O841 O 0.43305 0.41415 0.48154 0.0
O842 O 0.41294 0.42758 0.51482 0.0
H843 H 0.43952 0.44434 0.72604 0.0
H844 H 0.43632 0.46187 0.68636 0.0
C845 C 0.43561 0.44866 0.68662 0.0
H846 H 0.42306 0.44503 0.67993 0.0
H847 H 0.39339 0.43086 0.59142 0.0
O848 O 0.46852 0.41849 0.4619 0.0
C849 C 0.41826 0.41552 0.49024 0.0
Co850 Co 0.32372 0.7004 0.23404 0.0
Co851 Co 0.30671 0.67385 0.29643 0.0
C852 C 0.2912 0.68713 0.19997 0.0
O853 O 0.30333 0.69621 0.19417 0.0
O854 O 0.29022 0.67759 0.23939 0.0
C855 C 0.34049 0.71209 0.1539 0.0
O856 O 0.3354 0.69811 0.13753 0.0
C857 C 0.28749 0.65345 0.36936 0.0
C858 C 0.30691 0.63793 0.39886 0.0
C859 C 0.29079 0.64096 0.40421 0.0
N860 N 0.30116 0.65758 0.34526 0.0
N861 N 0.31261 0.64806 0.36253 0.0
C862 C 0.27207 0.66216 0.36172 0.0
H863 H 0.27398 0.67327 0.33863 0.0
H864 H 0.26665 0.66505 0.40058 0.0
H865 H 0.26365 0.65442 0.33963 0.0
C866 C 0.32222 0.71747 0.33758 0.0
N867 N 0.3196 0.70468 0.30638 0.0
N868 N 0.31236 0.69346 0.33376 0.0
C869 C 0.31007 0.6989 0.38368 0.0
C870 C 0.3162 0.7144 0.388 0.0
C871 C 0.33075 0.73217 0.31939 0.0
H872 H 0.34058 0.72888 0.2922 0.0
H873 H 0.32227 0.73986 0.29736 0.0
H874 H 0.33568 0.73898 0.35326 0.0
O875 O 0.339 0.68257 0.2268 0.0
O876 O 0.32521 0.66316 0.26248 0.0
H877 H 0.30729 0.67839 0.43323 0.0
H878 H 0.29973 0.69667 0.46218 0.0
C879 C 0.30108 0.68982 0.42502 0.0
H880 H 0.28904 0.68699 0.40976 0.0
H881 H 0.32453 0.64882 0.35096 0.0
O882 O 0.33542 0.7175 0.19775 0.0
C883 C 0.33743 0.66795 0.23782 0.0
Co884 Co 0.05173 0.57369 0.98638 0.0
Co885 Co 0.07753 0.55551 0.04669 0.0
C886 C 0.06491 0.54121 0.94934 0.0
O887 O 0.05693 0.55408 0.94297 0.0
O888 O 0.0732 0.53898 0.99115 0.0
C889 C 0.04059 0.591 0.90713 0.0
O890 O 0.05501 0.58658 0.89298 0.0
C891 C 0.09739 0.53623 0.12054 0.0
C892 C 0.11447 0.55495 0.14518 0.0
C893 C 0.11037 0.53918 0.15356 0.0
N894 N 0.09402 0.54976 0.09436 0.0
N895 N 0.10445 0.56078 0.10872 0.0
C896 C 0.08744 0.52145 0.11715 0.0
H897 H 0.07615 0.52388 0.09562 0.0
H898 H 0.0848 0.51684 0.15737 0.0
H899 H 0.09416 0.51214 0.09538 0.0
C900 C 0.03363 0.57008 0.0873 0.0
N901 N 0.04675 0.56823 0.05701 0.0
N902 N 0.05807 0.56127 0.08473 0.0
C903 C 0.05248 0.55876 0.13437 0.0
C904 C 0.03675 0.56415 0.1376 0.0
C905 C 0.01847 0.57749 0.06808 0.0
H906 H 0.02103 0.58964 0.05281 0.0
H907 H 0.01373 0.57036 0.03462 0.0
H908 H 0.00939 0.57819 0.0999 0.0
O909 O 0.06917 0.58962 0.98534 0.0
O910 O 0.08841 0.57352 0.01003 0.0
H911 H 0.07419 0.55516 0.17759 0.0
H912 H 0.05624 0.55312 0.21682 0.0
C913 C 0.0617 0.55082 0.1776 0.0
H914 H 0.06177 0.53777 0.17067 0.0
H915 H 0.10439 0.57253 0.09515 0.0
O916 O 0.03473 0.58544 0.94975 0.0
C917 C 0.08386 0.58675 0.99112 0.0
Co918 Co 0.18155 0.30248 0.74118 0.0
Co919 Co 0.198 0.32941 0.80248 0.0
C920 C 0.21397 0.31591 0.70762 0.0
O921 O 0.20177 0.30699 0.70172 0.0
O922 O 0.21502 0.32531 0.7473 0.0
C923 C 0.16842 0.28897 0.65801 0.0
O924 O 0.17433 0.30258 0.64115 0.0
C925 C 0.21722 0.3489 0.87644 0.0
C926 C 0.19913 0.36685 0.8993 0.0
C927 C 0.21463 0.36203 0.90897 0.0
N928 N 0.20377 0.34611 0.84922 0.0
N929 N 0.19314 0.35706 0.86238 0.0
C930 C 0.23148 0.33817 0.87491 0.0
H931 H 0.22859 0.32685 0.85422 0.0
H932 H 0.23573 0.3356 0.91561 0.0
H933 H 0.24126 0.34423 0.85319 0.0
C934 C 0.18274 0.28593 0.84544 0.0
N935 N 0.18547 0.29863 0.8139 0.0
N936 N 0.19231 0.31008 0.84137 0.0
C937 C 0.19403 0.30492 0.89193 0.0
C938 C 0.18806 0.28939 0.89631 0.0
C939 C 0.17591 0.2705 0.82612 0.0
H940 H 0.18071 0.26772 0.78633 0.0
H941 H 0.17868 0.26053 0.85347 0.0
H942 H 0.16277 0.27173 0.82265 0.0
O943 O 0.16596 0.31984 0.73071 0.0
O944 O 0.17936 0.33952 0.76676 0.0
H945 H 0.19662 0.31024 0.97504 0.0
H946 H 0.2138 0.31443 0.93465 0.0
C947 C 0.20059 0.31483 0.93602 0.0
H948 H 0.19666 0.32738 0.93167 0.0
H949 H 0.1815 0.35751 0.84782 0.0
O950 O 0.17085 0.2848 0.70562 0.0
C951 C 0.16733 0.33452 0.74132 0.0
Co952 Co 0.45182 0.57507 0.11537 0.0
Co953 Co 0.42586 0.55627 0.05707 0.0
C954 C 0.43953 0.54298 0.15631 0.0
O955 O 0.44827 0.55542 0.16013 0.0
O956 O 0.4303 0.54106 0.11664 0.0
C957 C 0.48373 0.58413 0.15245 0.0
O958 O 0.48974 0.57106 0.13188 0.0
C959 C 0.40527 0.5337 0.99832 0.0
C960 C 0.39408 0.5506 0.94222 0.0
C961 C 0.39489 0.53459 0.95541 0.0
N962 N 0.41056 0.5485 0.00872 0.0
N963 N 0.40358 0.55855 0.97579 0.0
C964 C 0.40973 0.51935 0.0303 0.0
H965 H 0.41027 0.52254 0.07276 0.0
H966 H 0.42175 0.51518 0.01815 0.0
H967 H 0.40094 0.50957 0.02513 0.0
C968 C 0.46756 0.57389 0.00773 0.0
N969 N 0.45575 0.57041 0.04237 0.0
N970 N 0.44496 0.56165 0.0183 0.0
C971 C 0.44987 0.55878 0.96819 0.0
C972 C 0.4644 0.56648 0.95953 0.0
C973 C 0.48083 0.58538 0.01848 0.0
H974 H 0.4772 0.59417 0.0489 0.0
H975 H 0.49145 0.57873 0.03254 0.0
H976 H 0.48423 0.59182 0.98179 0.0
O977 O 0.43359 0.58958 0.12388 0.0
O978 O 0.41467 0.57538 0.08599 0.0
H979 H 0.43143 0.55489 0.91139 0.0
H980 H 0.44938 0.54362 0.89904 0.0
C981 C 0.44126 0.54811 0.93031 0.0
H982 H 0.43606 0.53782 0.9518 0.0
H983 H 0.40571 0.57082 0.97525 0.0
O984 O 0.46901 0.5872 0.1479 0.0
C985 C 0.4191 0.58776 0.11093 0.0
Co986 Co 0.17778 0.69936 0.85825 0.0
Co987 Co 0.19635 0.67293 0.8023 0.0
C988 C 0.20974 0.68737 0.90065 0.0
O989 O 0.19756 0.69652 0.9033 0.0
O990 O 0.2113 0.67751 0.86249 0.0
C991 C 0.17052 0.73086 0.89677 0.0
O992 O 0.18554 0.7345 0.88801 0.0
C993 C 0.21902 0.65226 0.74509 0.0
C994 C 0.20242 0.64103 0.6882 0.0
C995 C 0.21839 0.64196 0.70198 0.0
N996 N 0.20417 0.65742 0.75496 0.0
N997 N 0.19428 0.6504 0.72164 0.0
C998 C 0.23322 0.65686 0.77761 0.0
H999 H 0.2299 0.65719 0.82 0.0
H1000 H 0.2372 0.669 0.76605 0.0
H1001 H 0.24316 0.64826 0.77242 0.0
C1002 C 0.17974 0.71498 0.75187 0.0
N1003 N 0.18266 0.70288 0.78587 0.0
N1004 N 0.19122 0.69193 0.76198 0.0
C1005 C 0.19442 0.69697 0.71213 0.0
C1006 C 0.18724 0.71183 0.70386 0.0
C1007 C 0.16906 0.72882 0.76388 0.0
H1008 H 0.15916 0.72499 0.79001 0.0
H1009 H 0.17605 0.73822 0.78425 0.0
H1010 H 0.16395 0.73396 0.72713 0.0
O1011 O 0.16305 0.68123 0.86793 0.0
O1012 O 0.17733 0.66195 0.83223 0.0
H1013 H 0.19811 0.67842 0.6557 0.0
H1014 H 0.20958 0.69624 0.64298 0.0
C1015 C 0.20499 0.68821 0.67439 0.0
H1016 H 0.2152 0.6829 0.69601 0.0
H1017 H 0.18201 0.65248 0.72054 0.0
O1018 O 0.16549 0.71701 0.88603 0.0
C1019 C 0.16493 0.66664 0.85645 0.0
Co1020 Co 0.05283 0.42683 0.61169 0.0
Co1021 Co 0.07901 0.44545 0.55454 0.0
C1022 C 0.06475 0.45884 0.6531 0.0
O1023 O 0.05596 0.44643 0.65686 0.0
O1024 O 0.07425 0.4606 0.61402 0.0
C1025 C 0.02148 0.41984 0.6516 0.0
O1026 O 0.01803 0.43491 0.64287 0.0
C1027 C 0.09962 0.4682 0.49732 0.0
C1028 C 0.11068 0.45169 0.43981 0.0
C1029 C 0.10984 0.46762 0.45401 0.0
N1030 N 0.0944 0.45334 0.50691 0.0
N1031 N 0.10133 0.44351 0.47323 0.0
C1032 C 0.09519 0.48232 0.53038 0.0
H1033 H 0.09512 0.47891 0.57271 0.0
H1034 H 0.08298 0.48631 0.5197 0.0
H1035 H 0.10375 0.49229 0.52485 0.0
C1036 C 0.03681 0.42915 0.50569 0.0
N1037 N 0.04908 0.43183 0.53924 0.0
N1038 N 0.06002 0.44034 0.51499 0.0
C1039 C 0.05484 0.44373 0.46548 0.0
C1040 C 0.03989 0.43673 0.45772 0.0
C1041 C 0.02278 0.41878 0.5182 0.0
H1042 H 0.02648 0.40875 0.54404 0.0
H1043 H 0.01363 0.42595 0.5391 0.0
H1044 H 0.01737 0.41387 0.48159 0.0
O1045 O 0.07101 0.41221 0.62132 0.0
O1046 O 0.09006 0.42628 0.58363 0.0
H1047 H 0.07327 0.44761 0.40871 0.0
H1048 H 0.05542 0.4591 0.39671 0.0
C1049 C 0.06351 0.45442 0.42781 0.0
H1050 H 0.06884 0.46458 0.44958 0.0
H1051 H 0.0992 0.43124 0.47192 0.0
O1052 O 0.0352 0.4146 0.64011 0.0
C1053 C 0.08555 0.41395 0.6087 0.0
Co1054 Co 0.32817 0.3 0.37084 0.0
Co1055 Co 0.30862 0.32458 0.30824 0.0
C1056 C 0.29637 0.3132 0.41174 0.0
O1057 O 0.30902 0.30483 0.417 0.0
O1058 O 0.29395 0.32134 0.36978 0.0
C1059 C 0.34772 0.2901 0.44836 0.0
O1060 O 0.34389 0.30474 0.4618 0.0
C1061 C 0.28587 0.34489 0.24888 0.0
C1062 C 0.30225 0.35407 0.1874 0.0
C1063 C 0.28657 0.35464 0.20441 0.0
N1064 N 0.30045 0.33872 0.25691 0.0
N1065 N 0.31021 0.34444 0.22056 0.0
C1066 C 0.27197 0.34204 0.2848 0.0
H1067 H 0.276 0.34219 0.32651 0.0
H1068 H 0.26686 0.33008 0.27651 0.0
H1069 H 0.26263 0.35129 0.2795 0.0
C1070 C 0.32425 0.28089 0.27053 0.0
N1071 N 0.32208 0.29398 0.30092 0.0
N1072 N 0.31361 0.30451 0.27443 0.0
C1073 C 0.30982 0.29829 0.22671 0.0
C1074 C 0.31654 0.2831 0.22203 0.0
C1075 C 0.33404 0.26683 0.28714 0.0
H1076 H 0.34378 0.27069 0.3139 0.0
H1077 H 0.32632 0.25833 0.30898 0.0
H1078 H 0.33918 0.26064 0.25231 0.0
O1079 O 0.34276 0.31845 0.36877 0.0
O1080 O 0.3276 0.33685 0.33274 0.0
H1081 H 0.30562 0.31511 0.16473 0.0
H1082 H 0.29337 0.29743 0.16077 0.0
C1083 C 0.29881 0.30621 0.18815 0.0
H1084 H 0.28917 0.31251 0.20963 0.0
H1085 H 0.32229 0.34155 0.21798 0.0
O1086 O 0.3412 0.28394 0.40775 0.0
C1087 C 0.34054 0.33278 0.35496 0.0
H1088 H 0.03898 0.96821 0.71309 0.0
H1089 H 0.08826 0.98021 0.6849 0.0
H1090 H 0.03842 0.9867 0.78815 0.0
H1091 H 0.08757 0.99925 0.75725 0.0
H1092 H 0.08718 0.02139 0.92037 0.0
H1093 H 0.08727 0.0023 0.84806 0.0
H1094 H 0.03812 0.01401 0.8136 0.0
H1095 H 0.03792 0.03256 0.88852 0.0
C1096 C 0.04973 0.97473 0.72313 0.0
C1097 C 0.06366 0.97272 0.69291 0.0
C1098 C 0.04936 0.98555 0.76572 0.0
C1099 C 0.06293 0.99468 0.77921 0.0
C1100 C 0.0769 0.9924 0.74912 0.0
C1101 C 0.07728 0.98154 0.70703 0.0
C1102 C 0.07637 0.01986 0.89743 0.0
C1103 C 0.06252 0.02844 0.91053 0.0
C1104 C 0.07644 0.00897 0.8554 0.0
C1105 C 0.06269 0.00643 0.82435 0.0
C1106 C 0.04889 0.01534 0.83681 0.0
C1107 C 0.04882 0.02619 0.87934 0.0
H1108 H 0.23846 0.80041 0.19044 0.0
H1109 H 0.20352 0.82565 0.09751 0.0
H1110 H 0.25677 0.80037 0.11522 0.0
H1111 H 0.22176 0.82561 0.02185 0.0
H1112 H 0.2534 0.81005 0.88145 0.0
H1113 H 0.23464 0.80925 0.95542 0.0
H1114 H 0.27346 0.81784 0.06402 0.0
H1115 H 0.29211 0.81878 0.98992 0.0
C1116 C 0.23466 0.80589 0.15373 0.0
C1117 C 0.21944 0.81288 0.14992 0.0
C1118 C 0.24521 0.80596 0.11055 0.0
C1119 C 0.24088 0.81302 0.06199 0.0
C1120 C 0.22552 0.81984 0.05808 0.0
C1121 C 0.21499 0.81982 0.10147 0.0
C1122 C 0.25792 0.81193 0.92107 0.0
C1123 C 0.27432 0.81453 0.92948 0.0
C1124 C 0.24713 0.81145 0.96367 0.0
C1125 C 0.25241 0.81347 0.01619 0.0
C1126 C 0.26887 0.81598 0.02449 0.0
C1127 C 0.27963 0.81651 0.98185 0.0
H1128 H 0.42731 0.95708 0.3551 0.0
H1129 H 0.45465 0.98982 0.45007 0.0
H1130 H 0.42685 0.97666 0.28265 0.0
H1131 H 0.45439 0.00933 0.37784 0.0
H1132 H 0.46211 0.03367 0.21203 0.0
H1133 H 0.46416 0.01419 0.28434 0.0
H1134 H 0.414 0.00363 0.26843 0.0
H1135 H 0.4119 0.02341 0.19763 0.0
C1136 C 0.43348 0.96834 0.36003 0.0
C1137 C 0.44112 0.97188 0.40803 0.0
C1138 C 0.4331 0.97964 0.31882 0.0
C1139 C 0.44052 0.99466 0.32439 0.0
C1140 C 0.44864 0.9979 0.37189 0.0
C1141 C 0.4488 0.98672 0.41329 0.0
C1142 C 0.45148 0.02739 0.22466 0.0
C1143 C 0.43688 0.03 0.19861 0.0
C1144 C 0.45267 0.01614 0.26589 0.0
C1145 C 0.4393 0.00708 0.28171 0.0
C1146 C 0.42462 0.01008 0.2566 0.0
C1147 C 0.4234 0.02147 0.21612 0.0
H1148 H 0.28971 0.18093 0.60583 0.0
H1149 H 0.25361 0.19821 0.71274 0.0
H1150 H 0.27018 0.18116 0.53326 0.0
H1151 H 0.23418 0.19885 0.64007 0.0
H1152 H 0.2114 0.21249 0.4719 0.0
H1153 H 0.23003 0.2135 0.547 0.0
H1154 H 0.24357 0.16468 0.51733 0.0
H1155 H 0.22446 0.16342 0.44437 0.0
C1156 C 0.27766 0.185 0.61355 0.0
C1157 C 0.27316 0.18952 0.66487 0.0
C1158 C 0.26646 0.18505 0.57219 0.0
C1159 C 0.2506 0.18998 0.58096 0.0
C1160 C 0.24629 0.19505 0.63196 0.0
C1161 C 0.25739 0.19465 0.67354 0.0
C1162 C 0.21811 0.20188 0.48215 0.0
C1163 C 0.21658 0.18793 0.45162 0.0
C1164 C 0.22886 0.2025 0.52489 0.0
C1165 C 0.23851 0.18925 0.53748 0.0
C1166 C 0.23657 0.17518 0.508 0.0
C1167 C 0.22561 0.17447 0.46623 0.0
H1168 H 0.88159 0.00742 0.44797 0.0
H1169 H 0.87786 0.05061 0.35535 0.0
H1170 H 0.87785 0.99155 0.36766 0.0
H1171 H 0.87413 0.03476 0.2755 0.0
H1172 H 0.90727 0.99775 0.17645 0.0
H1173 H 0.8991 0.01623 0.24449 0.0
H1174 H 0.85848 0.98656 0.2808 0.0
H1175 H 0.86601 0.96837 0.20932 0.0
C1176 C 0.87967 0.01347 0.41069 0.0
C1177 C 0.88044 0.03015 0.40738 0.0
C1178 C 0.87729 0.00445 0.36505 0.0
C1179 C 0.87579 0.01205 0.31581 0.0
C1180 C 0.87523 0.02873 0.31324 0.0
C1181 C 0.8774 0.03773 0.35885 0.0
C1182 C 0.89605 0.99558 0.19616 0.0
C1183 C 0.88705 0.98178 0.18627 0.0
C1184 C 0.89147 0.00611 0.23578 0.0
C1185 C 0.87813 0.00279 0.26728 0.0
C1186 C 0.86875 0.98936 0.25648 0.0
C1187 C 0.8731 0.97899 0.21582 0.0
H1188 H 0.75852 0.12923 0.9002 0.0
H1189 H 0.79331 0.14375 0.01628 0.0
H1190 H 0.73963 0.12297 0.97085 0.0
H1191 H 0.77437 0.13873 0.08652 0.0
H1192 H 0.73979 0.12894 0.21077 0.0
H1193 H 0.75876 0.123 0.14007 0.0
H1194 H 0.72382 0.13842 0.0245 0.0
H1195 H 0.70482 0.14313 0.09476 0.0
C1196 C 0.76207 0.13099 0.94098 0.0
C1197 C 0.77714 0.13711 0.95327 0.0
C1198 C 0.7513 0.12749 0.98142 0.0
C1199 C 0.75533 0.13058 0.03454 0.0
C1200 C 0.77083 0.13591 0.04644 0.0
C1201 C 0.78168 0.13898 0.00616 0.0
C1202 C 0.73622 0.13069 0.17 0.0
C1203 C 0.72107 0.13663 0.15775 0.0
C1204 C 0.74703 0.12738 0.12954 0.0
C1205 C 0.74296 0.13047 0.07644 0.0
C1206 C 0.72739 0.13561 0.06457 0.0
C1207 C 0.7165 0.13849 0.10486 0.0
H1208 H 0.62536 0.01253 0.65251 0.0
H1209 H 0.6085 0.04607 0.76913 0.0
H1210 H 0.6325 0.99383 0.72291 0.0
H1211 H 0.61455 0.02732 0.83894 0.0
H1212 H 0.62582 0.99335 0.96284 0.0
H1213 H 0.63119 0.01258 0.89234 0.0
H1214 H 0.61775 0.97704 0.77625 0.0
H1215 H 0.61359 0.95782 0.84643 0.0
C1216 C 0.62326 0.01586 0.69329 0.0
C1217 C 0.61619 0.03051 0.70573 0.0
C1218 C 0.62729 0.0052 0.73359 0.0
C1219 C 0.62389 0.00892 0.78674 0.0
C1220 C 0.61763 0.02405 0.79884 0.0
C1221 C 0.61399 0.03479 0.75874 0.0
C1222 C 0.62441 0.9897 0.92203 0.0
C1223 C 0.61913 0.97432 0.90962 0.0
C1224 C 0.62739 1.00066 0.88167 0.0
C1225 C 0.62462 0.9965 0.82847 0.0
C1226 C 0.62026 0.9807 0.81643 0.0
C1227 C 0.61771 0.96968 0.85667 0.0
H1228 H 0.79762 0.87569 0.61449 0.0
H1229 H 0.75321 0.86988 0.6991 0.0
H1230 H 0.78292 0.87964 0.53234 0.0
H1231 H 0.7385 0.87383 0.61651 0.0
H1232 H 0.71625 0.88523 0.4596 0.0
H1233 H 0.73362 0.89326 0.53262 0.0
H1234 H 0.7662 0.85523 0.4932 0.0
H1235 H 0.74863 0.84657 0.42319 0.0
C1236 C 0.7847 0.87573 0.61579 0.0
C1237 C 0.77649 0.87207 0.66272 0.0
C1238 C 0.77635 0.87801 0.56883 0.0
C1239 C 0.75968 0.87695 0.56838 0.0
C1240 C 0.75139 0.8748 0.61615 0.0
C1241 C 0.75977 0.87231 0.66312 0.0
C1242 C 0.72736 0.87887 0.46561 0.0
C1243 C 0.73111 0.86536 0.43502 0.0
C1244 C 0.73725 0.8835 0.50723 0.0
C1245 C 0.75118 0.87488 0.51804 0.0
C1246 C 0.75563 0.86225 0.4848 0.0
C1247 C 0.74559 0.85739 0.44407 0.0
H1248 H 0.54386 0.51946 0.43553 0.0
H1249 H 0.57533 0.54841 0.34105 0.0
H1250 H 0.54341 0.49907 0.3663 0.0
H1251 H 0.575 0.52798 0.27135 0.0
H1252 H 0.58727 0.4794 0.19528 0.0
H1253 H 0.58573 0.50033 0.26238 0.0
H1254 H 0.53485 0.49311 0.27392 0.0
H1255 H 0.53644 0.47231 0.20572 0.0
C1256 C 0.55038 0.52159 0.39922 0.0
C1257 C 0.55944 0.5356 0.39322 0.0
C1258 C 0.55016 0.5099 0.35959 0.0
C1259 C 0.55925 0.51178 0.31325 0.0
C1260 C 0.56799 0.52604 0.30674 0.0
C1261 C 0.56805 0.53785 0.34624 0.0
C1262 C 0.57575 0.4823 0.21218 0.0
C1263 C 0.56195 0.47435 0.19473 0.0
C1264 C 0.57484 0.49437 0.25041 0.0
C1265 C 0.56012 0.49866 0.27303 0.0
C1266 C 0.54638 0.49017 0.25731 0.0
C1267 C 0.54729 0.47819 0.21847 0.0
H1268 H 0.70537 0.32149 0.60467 0.0
H1269 H 0.74208 0.30446 0.70984 0.0
H1270 H 0.72427 0.32066 0.53082 0.0
H1271 H 0.76096 0.30348 0.6365 0.0
H1272 H 0.79516 0.32134 0.5058 0.0
H1273 H 0.77623 0.32042 0.57951 0.0
H1274 H 0.73944 0.30386 0.47317 0.0
H1275 H 0.75838 0.30492 0.39994 0.0
C1276 C 0.71741 0.31731 0.6118 0.0
C1277 C 0.7222 0.31304 0.66311 0.0
C1278 C 0.7283 0.31684 0.56948 0.0
C1279 C 0.7443 0.31209 0.57737 0.0
C1280 C 0.74891 0.30751 0.62872 0.0
C1281 C 0.73804 0.30798 0.67085 0.0
C1282 C 0.7831 0.31727 0.49848 0.0
C1283 C 0.7783 0.31318 0.44703 0.0
C1284 C 0.77218 0.31675 0.54072 0.0
C1285 C 0.75615 0.31214 0.53263 0.0
C1286 C 0.75152 0.30776 0.48111 0.0
C1287 C 0.76242 0.30828 0.43905 0.0
H1288 H 0.94419 0.50256 0.63159 0.0
H1289 H 0.93032 0.53937 0.74126 0.0
H1290 H 0.94494 0.48306 0.70408 0.0
H1291 H 0.93075 0.51983 0.8137 0.0
H1292 H 0.91352 0.47572 0.90975 0.0
H1293 H 0.91383 0.49431 0.83524 0.0
H1294 H 0.96094 0.47807 0.79282 0.0
H1295 H 0.96094 0.45993 0.86924 0.0
C1296 C 0.94132 0.50646 0.67128 0.0
C1297 C 0.93716 0.52248 0.68079 0.0
C1298 C 0.94182 0.49532 0.71278 0.0
C1299 C 0.93782 0.49985 0.76463 0.0
C1300 C 0.93377 0.51592 0.77414 0.0
C1301 C 0.93362 0.52713 0.7328 0.0
C1302 C 0.92399 0.47614 0.8847 0.0
C1303 C 0.93733 0.46653 0.89617 0.0
C1304 C 0.92416 0.48681 0.84201 0.0
C1305 C 0.9375 0.48787 0.80854 0.0
C1306 C 0.95049 0.47758 0.81798 0.0
C1307 C 0.95045 0.4671 0.86153 0.0
H1308 H 0.76003 0.70114 0.20937 0.0
H1309 H 0.79288 0.67372 0.11516 0.0
H1310 H 0.74059 0.70064 0.13709 0.0
H1311 H 0.7737 0.67352 0.04214 0.0
H1312 H 0.72976 0.66148 0.94215 0.0
H1313 H 0.74864 0.66216 0.01559 0.0
H1314 H 0.73464 0.71065 0.04973 0.0
H1315 H 0.7158 0.70991 0.97578 0.0
C1316 C 0.76314 0.6951 0.17295 0.0
C1317 C 0.77808 0.68759 0.16794 0.0
C1318 C 0.75202 0.69489 0.13125 0.0
C1319 C 0.75544 0.68704 0.08327 0.0
C1320 C 0.77046 0.67955 0.07842 0.0
C1321 C 0.78159 0.67982 0.12009 0.0
C1322 C 0.73075 0.67232 0.96514 0.0
C1323 C 0.72128 0.68567 0.95257 0.0
C1324 C 0.74165 0.67274 0.00737 0.0
C1325 C 0.74341 0.68652 0.0388 0.0
C1326 C 0.73361 0.69976 0.02701 0.0
C1327 C 0.72273 0.69934 0.98453 0.0
H1328 H 0.38102 0.45303 0.74946 0.0
H1329 H 0.38587 0.49643 0.6585 0.0
H1330 H 0.37688 0.46871 0.82951 0.0
H1331 H 0.38172 0.51212 0.73895 0.0
H1332 H 0.36839 0.53562 0.89373 0.0
H1333 H 0.3617 0.51742 0.8214 0.0
H1334 H 0.40071 0.48676 0.86692 0.0
H1335 H 0.40807 0.50517 0.93613 0.0
C1336 C 0.38078 0.46593 0.74637 0.0
C1337 C 0.38416 0.47359 0.69824 0.0
C1338 C 0.37839 0.47483 0.7921 0.0
C1339 C 0.37906 0.49152 0.79009 0.0
C1340 C 0.38106 0.49922 0.74119 0.0
C1341 C 0.38367 0.49029 0.69547 0.0
C1342 C 0.37527 0.52476 0.88912 0.0
C1343 C 0.38859 0.52173 0.92149 0.0
C1344 C 0.37141 0.5144 0.84789 0.0
C1345 C 0.38064 0.50073 0.8392 0.0
C1346 C 0.39321 0.49709 0.87375 0.0
C1347 C 0.39731 0.5076 0.91405 0.0
H1348 H 0.30115 0.63253 0.50151 0.0
H1349 H 0.25845 0.63478 0.40579 0.0
H1350 H 0.28506 0.6269 0.5792 0.0
H1351 H 0.24231 0.62949 0.48439 0.0
H1352 H 0.2181 0.61581 0.6385 0.0
H1353 H 0.23674 0.60992 0.5665 0.0
H1354 H 0.26621 0.64949 0.61525 0.0
H1355 H 0.24742 0.65602 0.68392 0.0
C1356 C 0.28834 0.6315 0.49674 0.0
C1357 C 0.28097 0.63473 0.44794 0.0
C1358 C 0.27919 0.62823 0.54126 0.0
C1359 C 0.26253 0.62797 0.53761 0.0
C1360 C 0.25519 0.62964 0.48798 0.0
C1361 C 0.26438 0.633 0.44329 0.0
C1362 C 0.2288 0.62297 0.63463 0.0
C1363 C 0.23143 0.63617 0.66791 0.0
C1364 C 0.2394 0.61958 0.59356 0.0
C1365 C 0.2529 0.62917 0.58597 0.0
C1366 C 0.25606 0.64168 0.62123 0.0
C1367 C 0.24533 0.64529 0.66131 0.0
H1368 H 0.09582 0.49673 0.43677 0.0
H1369 H 0.13586 0.46738 0.39 0.0
H1370 H 0.10208 0.51546 0.36744 0.0
H1371 H 0.14143 0.48592 0.3174 0.0
H1372 H 0.11546 0.5068 0.15741 0.0
H1373 H 0.12091 0.49099 0.23677 0.0
H1374 H 0.1247 0.53421 0.32864 0.0
H1375 H 0.11907 0.54999 0.24996 0.0
C1376 C 0.10646 0.49463 0.41372 0.0
C1377 C 0.1156 0.48071 0.42003 0.0
C1378 C 0.10991 0.50532 0.37329 0.0
C1379 C 0.12224 0.50208 0.33744 0.0
C1380 C 0.1319 0.48863 0.34491 0.0
C1381 C 0.12869 0.47809 0.38631 0.0
C1382 C 0.11759 0.51289 0.19443 0.0
C1383 C 0.11631 0.52954 0.19802 0.0
C1384 C 0.12101 0.5039 0.23951 0.0
C1385 C 0.12312 0.51149 0.28851 0.0
C1386 C 0.12309 0.52817 0.29116 0.0
C1387 C 0.11982 0.53714 0.24616 0.0
H1388 H 0.20385 0.37004 0.00613 0.0
H1389 H 0.24699 0.36633 0.91349 0.0
H1390 H 0.21972 0.37426 0.08572 0.0
H1391 H 0.26288 0.37038 0.99338 0.0
H1392 H 0.28811 0.38119 0.1433 0.0
H1393 H 0.26928 0.38888 0.07392 0.0
H1394 H 0.23725 0.35155 0.12456 0.0
H1395 H 0.25616 0.34338 0.19151 0.0
C1396 C 0.21672 0.37051 1.0026 0.0
C1397 C 0.22427 0.36739 0.95411 0.0
C1398 C 0.22575 0.37294 0.04809 0.0
C1399 C 0.24244 0.37251 0.04552 0.0
C1400 C 0.24998 0.37083 0.99622 0.0
C1401 C 0.24094 0.36825 0.95074 0.0
C1402 C 0.27682 0.37496 0.14055 0.0
C1403 C 0.27355 0.3618 0.17334 0.0
C1404 C 0.26609 0.37938 0.101 0.0
C1405 C 0.25188 0.37081 0.09422 0.0
C1406 C 0.24801 0.35854 0.12975 0.0
C1407 C 0.25883 0.35394 0.16862 0.0
H1408 H 0.95902 0.09091 0.79779 0.0
H1409 H 0.98723 0.1059 0.66364 0.0
H1410 H 0.97701 0.1045 0.85669 0.0
H1411 H 0.0051 0.12042 0.72299 0.0
H1412 H 0.04447 0.11153 0.85201 0.0
H1413 H 0.02487 0.11183 0.78165 0.0
H1414 H 0.98876 0.12707 0.89313 0.0
H1415 H 0.00842 0.12558 0.96432 0.0
C1416 C 0.96894 0.09743 0.7808 0.0
C1417 C 0.97196 0.09706 0.72634 0.0
C1418 C 0.97916 0.10551 0.81462 0.0
C1419 C 0.99256 0.11363 0.79472 0.0
C1420 C 0.99502 0.1141 0.73968 0.0
C1421 C 0.98486 0.10575 0.70574 0.0
C1422 C 0.03245 0.11547 0.86094 0.0
C1423 C 0.0277 0.11815 0.91326 0.0
C1424 C 0.02119 0.11576 0.82054 0.0
C1425 C 0.00509 0.11897 0.83204 0.0
C1426 C 0.00096 0.12397 0.8834 0.0
C1427 C 0.01215 0.12324 0.92406 0.0
H1428 H 0.13116 0.80199 0.10542 0.0
H1429 H 0.13297 0.75523 0.17727 0.0
H1430 H 0.13388 0.79 0.0182 0.0
H1431 H 0.13562 0.74322 0.08969 0.0
H1432 H 0.13991 0.72513 0.9273 0.0
H1433 H 0.12459 0.74015 0.99204 0.0
H1434 H 0.16144 0.77613 0.99602 0.0
H1435 H 0.17702 0.76102 0.93183 0.0
C1436 C 0.13145 0.78909 0.10238 0.0
C1437 C 0.13223 0.77946 0.14784 0.0
C1438 C 0.13304 0.7823 0.05251 0.0
C1439 C 0.13515 0.7658 0.04765 0.0
C1440 C 0.13395 0.75601 0.09265 0.0
C1441 C 0.13257 0.76284 0.14265 0.0
C1442 C 0.14461 0.73644 0.94097 0.0
C1443 C 0.15989 0.74173 0.9257 0.0
C1444 C 0.13576 0.74502 0.97776 0.0
C1445 C 0.14193 0.75914 0.99896 0.0
C1446 C 0.15642 0.76527 0.97973 0.0
C1447 C 0.16539 0.75658 0.9434 0.0
H1448 H 0.54422 0.91163 0.30114 0.0
H1449 H 0.51656 0.89402 0.16934 0.0
H1450 H 0.52688 0.89794 0.36196 0.0
H1451 H 0.49944 0.87933 0.23062 0.0
H1452 H 0.45964 0.88776 0.35741 0.0
H1453 H 0.47934 0.88755 0.28768 0.0
H1454 H 0.51594 0.87559 0.40196 0.0
H1455 H 0.49607 0.87695 0.47249 0.0
C1456 C 0.53458 0.9045 0.28514 0.0
C1457 C 0.53147 0.90417 0.23072 0.0
C1458 C 0.52474 0.89636 0.32008 0.0
C1459 C 0.51168 0.88747 0.30137 0.0
C1460 C 0.50923 0.88628 0.24643 0.0
C1461 C 0.51896 0.89472 0.21137 0.0
C1462 C 0.47181 0.88456 0.36725 0.0
C1463 C 0.47656 0.88282 0.42004 0.0
C1464 C 0.48316 0.88432 0.32716 0.0
C1465 C 0.49937 0.88208 0.3394 0.0
C1466 C 0.50363 0.87797 0.39155 0.0
C1467 C 0.49232 0.87864 0.43187 0.0
H1468 H 0.35218 0.24936 0.72013 0.0
H1469 H 0.38307 0.21503 0.64394 0.0
H1470 H 0.35955 0.26911 0.65597 0.0
H1471 H 0.3898 0.23493 0.57701 0.0
H1472 H 0.35433 0.25816 0.4443 0.0
H1473 H 0.36697 0.24246 0.51368 0.0
H1474 H 0.37825 0.28562 0.59912 0.0
H1475 H 0.36558 0.30135 0.52989 0.0
C1476 C 0.36129 0.24621 0.69185 0.0
C1477 C 0.36692 0.2305 0.68711 0.0
C1478 C 0.36548 0.25763 0.65444 0.0
C1479 C 0.37501 0.25342 0.61095 0.0
C1480 C 0.38232 0.23838 0.60998 0.0
C1481 C 0.37839 0.22702 0.64817 0.0
C1482 C 0.35994 0.26431 0.47705 0.0
C1483 C 0.35844 0.28087 0.48284 0.0
C1484 C 0.36739 0.25535 0.51646 0.0
C1485 C 0.37338 0.26287 0.56207 0.0
C1486 C 0.37359 0.27957 0.56454 0.0
C1487 C 0.36616 0.28852 0.5252 0.0
H1488 H 0.00636 0.87875 0.62499 0.0
H1489 H 0.04215 0.88879 0.74285 0.0
H1490 H 0.98618 0.87643 0.69429 0.0
H1491 H 0.02213 0.88779 0.81154 0.0
H1492 H 0.9849 0.89202 0.92966 0.0
H1493 H 0.00238 0.87847 0.86684 0.0
H1494 H 0.97399 0.89716 0.73771 0.0
H1495 H 0.95623 0.90957 0.80016 0.0
C1496 C 0.00988 0.88013 0.66595 0.0
C1497 C 0.02557 0.88421 0.67902 0.0
C1498 C 0.99839 0.87894 0.70559 0.0
C1499 C 0.00237 0.88248 0.75844 0.0
C1500 C 0.01851 0.88492 0.77159 0.0
C1501 C 0.03003 0.88563 0.73214 0.0
C1502 C 0.98235 0.89292 0.88777 0.0
C1503 C 0.96947 0.90207 0.86953 0.0
C1504 C 0.99232 0.88518 0.85178 0.0
C1505 C 0.98979 0.88686 0.797 0.0
C1506 C 0.97627 0.89528 0.77937 0.0
C1507 C 0.96616 0.90266 0.81527 0.0
H1508 H 0.35882 0.70035 0.0747 0.0
H1509 H 0.34831 0.74371 0.16025 0.0
H1510 H 0.37378 0.71561 0.0095 0.0
H1511 H 0.36307 0.75901 0.0945 0.0
H1512 H 0.38259 0.78621 0.96967 0.0
H1513 H 0.38704 0.76592 0.03739 0.0
H1514 H 0.35799 0.73288 0.94853 0.0
H1515 H 0.35289 0.75298 0.88349 0.0
C1516 C 0.35996 0.71312 0.08008 0.0
C1517 C 0.35191 0.721 0.12121 0.0
C1518 C 0.36871 0.72179 0.04315 0.0
C1519 C 0.36938 0.73846 0.04651 0.0
C1520 C 0.36284 0.74612 0.09106 0.0
C1521 C 0.35417 0.73742 0.12829 0.0
C1522 C 0.37774 0.77437 0.96357 0.0
C1523 C 0.36721 0.77133 0.9214 0.0
C1524 C 0.38034 0.76278 1.00227 0.0
C1525 C 0.37262 0.74797 0.99863 0.0
C1526 C 0.3642 0.74416 0.95232 0.0
C1527 C 0.36133 0.7558 0.91434 0.0
H1528 H 0.53988 0.08517 0.30049 0.0
H1529 H 0.5142 0.10578 0.43182 0.0
H1530 H 0.52346 0.09987 0.2392 0.0
H1531 H 0.49809 0.12141 0.37011 0.0
H1532 H 0.45749 0.11547 0.24405 0.0
H1533 H 0.47722 0.11463 0.31373 0.0
H1534 H 0.51452 0.12311 0.19864 0.0
H1535 H 0.49455 0.12281 0.12826 0.0
C1536 C 0.53087 0.09313 0.31621 0.0
C1537 C 0.52802 0.09409 0.37066 0.0
C1538 C 0.5216 0.10184 0.28104 0.0
C1539 C 0.50941 0.11192 0.29959 0.0
C1540 C 0.50721 0.11358 0.35447 0.0
C1541 C 0.51634 0.10459 0.38977 0.0
C1542 C 0.46986 0.11772 0.23402 0.0
C1543 C 0.4747 0.11874 0.18113 0.0
C1544 C 0.48122 0.11734 0.27405 0.0
C1545 C 0.49755 0.11822 0.26157 0.0
C1546 C 0.50207 0.12176 0.20923 0.0
C1547 C 0.49071 0.1217 0.169 0.0
H1548 H 0.12671 0.24761 0.38115 0.0
H1549 H 0.13456 0.2095 0.49286 0.0
H1550 H 0.12814 0.26706 0.45288 0.0
H1551 H 0.1371 0.22872 0.5638 0.0
H1552 H 0.14712 0.26545 0.68376 0.0
H1553 H 0.13113 0.2495 0.62254 0.0
H1554 H 0.15226 0.27493 0.49094 0.0
H1555 H 0.1674 0.29112 0.55166 0.0
C1556 C 0.12826 0.24344 0.42138 0.0
C1557 C 0.13081 0.22725 0.43188 0.0
C1558 C 0.12922 0.2545 0.46235 0.0
C1559 C 0.13334 0.24949 0.51373 0.0
C1560 C 0.13392 0.23306 0.52488 0.0
C1561 C 0.13254 0.22201 0.48416 0.0
C1562 C 0.14816 0.26763 0.64167 0.0
C1563 C 0.15862 0.27931 0.62223 0.0
C1564 C 0.13897 0.25859 0.60668 0.0
C1565 C 0.14033 0.26095 0.55176 0.0
C1566 C 0.1505 0.27301 0.53287 0.0
C1567 C 0.15944 0.28215 0.56771 0.0
H1568 H 0.97498 0.96423 0.19222 0.0
H1569 H 0.97845 0.91296 0.18705 0.0
H1570 H 0.99299 0.96479 0.26849 0.0
H1571 H 0.9967 0.91343 0.26272 0.0
H1572 H 0.01658 0.91884 0.43122 0.0
H1573 H 0.99763 0.91879 0.35775 0.0
H1574 H 0.02081 0.96024 0.29163 0.0
H1575 H 0.03965 0.96039 0.36512 0.0
C1576 C 0.97956 0.95307 0.20761 0.0
C1577 C 0.97519 0.93855 0.18387 0.0
C1578 C 0.99 0.95338 0.25107 0.0
C1579 C 0.99634 0.93915 0.27217 0.0
C1580 C 0.99193 0.92462 0.24823 0.0
C1581 C 0.98157 0.92433 0.20454 0.0
C1582 C 0.01759 0.92803 0.40126 0.0
C1583 C 0.02973 0.93962 0.40445 0.0
C1584 C 0.00677 0.92792 0.35877 0.0
C1585 C 0.00765 0.93947 0.31835 0.0
C1586 C 0.0196 0.95124 0.32211 0.0
C1587 C 0.03049 0.95128 0.36434 0.0
H1588 H 0.83787 0.23165 0.9376 0.0
H1589 H 0.78735 0.22388 0.95591 0.0
H1590 H 0.83762 0.24993 0.01314 0.0
H1591 H 0.78702 0.24208 0.03177 0.0
H1592 H 0.79036 0.28997 0.12475 0.0
H1593 H 0.79021 0.27084 0.05189 0.0
H1594 H 0.83399 0.25023 0.11025 0.0
H1595 H 0.83416 0.26934 0.18322 0.0
C1596 C 0.8267 0.23384 0.95789 0.0
C1597 C 0.81264 0.22628 0.9408 0.0
C1598 C 0.82656 0.24424 1.00148 0.0
C1599 C 0.8123 0.24754 0.0289 0.0
C1600 C 0.79821 0.23997 0.01157 0.0
C1601 C 0.79841 0.22942 0.96832 0.0
C1602 C 0.79992 0.28131 0.12236 0.0
C1603 C 0.81228 0.2813 0.1602 0.0
C1604 C 0.7998 0.27026 0.08054 0.0
C1605 C 0.81211 0.25895 0.0748 0.0
C1606 C 0.82439 0.25885 0.11288 0.0
C1607 C 0.82442 0.26977 0.15507 0.0
H1608 H 0.54299 0.07114 0.74801 0.0
H1609 H 0.50538 0.0541 0.64644 0.0
H1610 H 0.52488 0.0701 0.82372 0.0
H1611 H 0.487 0.05384 0.72108 0.0
H1612 H 0.46044 0.04128 0.87156 0.0
H1613 H 0.47974 0.04078 0.7996 0.0
H1614 H 0.50279 0.08255 0.86423 0.0
H1615 H 0.48378 0.08271 0.93716 0.0
C1616 C 0.53084 0.06714 0.74186 0.0
C1617 C 0.52568 0.06268 0.69105 0.0
C1618 C 0.52035 0.06672 0.78524 0.0
C1619 C 0.50432 0.06189 0.77912 0.0
C1620 C 0.49923 0.0574 0.72807 0.0
C1621 C 0.50975 0.05776 0.68486 0.0
C1622 C 0.46969 0.05031 0.87074 0.0
C1623 C 0.47045 0.06204 0.91051 0.0
C1624 C 0.48074 0.05011 0.82898 0.0
C1625 C 0.4929 0.0617 0.82527 0.0
C1626 C 0.49381 0.07328 0.86562 0.0
C1627 C 0.48279 0.07342 0.90758 0.0
H1628 H 0.69341 0.75501 0.40214 0.0
H1629 H 0.68421 0.79466 0.50618 0.0
H1630 H 0.69295 0.7368 0.4771 0.0
H1631 H 0.68437 0.77648 0.58226 0.0
H1632 H 0.66831 0.73623 0.6977 0.0
H1633 H 0.66943 0.75557 0.62532 0.0
H1634 H 0.70728 0.72841 0.55251 0.0
H1635 H 0.70588 0.70897 0.62376 0.0
C1636 C 0.69134 0.75986 0.44121 0.0
C1637 C 0.68875 0.77631 0.44796 0.0
C1638 C 0.69126 0.74941 0.48453 0.0
C1639 C 0.68866 0.75504 0.53631 0.0
C1640 C 0.68624 0.77159 0.54315 0.0
C1641 C 0.68633 0.78208 0.49957 0.0
C1642 C 0.67691 0.7344 0.66634 0.0
C1643 C 0.68692 0.72089 0.66676 0.0
C1644 C 0.67762 0.74559 0.6248 0.0
C1645 C 0.68837 0.74361 0.58238 0.0
C1646 C 0.6986 0.73027 0.58359 0.0
C1647 C 0.69787 0.71911 0.62491 0.0
H1648 H 0.03274 0.04156 0.22755 0.0
H1649 H 0.01462 0.08633 0.168 0.0
H1650 H 0.0129 0.04202 0.29807 0.0
H1651 H 0.99474 0.08678 0.23889 0.0
H1652 H 0.97592 0.0907 0.41257 0.0
H1653 H 0.99406 0.09008 0.33669 0.0
H1654 H 0.98381 0.04004 0.31472 0.0
H1655 H 0.96574 0.04072 0.39089 0.0
C1656 C 0.02447 0.05147 0.22919 0.0
C1657 C 0.02537 0.06392 0.19182 0.0
C1658 C 0.013 0.05168 0.26964 0.0
C1659 C 0.00218 0.06445 0.27447 0.0
C1660 C 0.00295 0.07683 0.2368 0.0
C1661 C 0.01431 0.07651 0.19586 0.0
C1662 C 0.97752 0.07959 0.39137 0.0
C1663 C 0.96942 0.06576 0.40783 0.0
C1664 C 0.98783 0.07925 0.34761 0.0
C1665 C 0.99048 0.065 0.31942 0.0
C1666 C 0.9822 0.0512 0.33565 0.0
C1667 C 0.97174 0.0516 0.37905 0.0
H1668 H 0.66615 0.26896 0.92547 0.0
H1669 H 0.70955 0.28964 0.98686 0.0
H1670 H 0.66587 0.24985 0.99842 0.0
H1671 H 0.70926 0.27046 0.05978 0.0
H1672 H 0.66078 0.23126 0.17065 0.0
H1673 H 0.6616 0.24963 0.09531 0.0
H1674 H 0.71226 0.24158 0.08011 0.0
H1675 H 0.71137 0.22326 0.15574 0.0
C1676 C 0.67571 0.2694 0.95426 0.0
C1677 C 0.68787 0.28095 0.94995 0.0
C1678 C 0.67548 0.25847 0.99645 0.0
C1679 C 0.6875 0.25858 0.03538 0.0
C1680 C 0.69986 0.26989 0.03047 0.0
C1681 C 0.69998 0.28097 0.98862 0.0
C1682 C 0.67208 0.23343 0.15117 0.0
C1683 C 0.686 0.22577 0.16914 0.0
C1684 C 0.67255 0.24388 0.10769 0.0
C1685 C 0.687 0.24714 0.08129 0.0
C1686 C 0.70094 0.23949 0.09953 0.0
C1687 C 0.70042 0.22888 0.14264 0.0
H1688 H 0.52553 0.91243 0.91399 0.0
H1689 H 0.53347 0.96301 0.89844 0.0
H1690 H 0.50738 0.9131 0.83816 0.0
H1691 H 0.51543 0.96376 0.82212 0.0
H1692 H 0.46741 0.96112 0.7295 0.0
H1693 H 0.48684 0.96096 0.80147 0.0
H1694 H 0.50668 0.91701 0.7418 0.0
H1695 H 0.48722 0.91713 0.66979 0.0
C1696 C 0.52343 0.92369 0.89417 0.0
C1697 C 0.53097 0.93766 0.91225 0.0
C1698 C 0.51311 0.92408 0.85038 0.0
C1699 C 0.50987 0.93848 0.82365 0.0
C1700 C 0.51748 0.95246 0.84177 0.0
C1701 C 0.52795 0.95203 0.88528 0.0
C1702 C 0.47598 0.95146 0.73135 0.0
C1703 C 0.47564 0.93913 0.6935 0.0
C1704 C 0.48721 0.95141 0.77268 0.0
C1705 C 0.49837 0.93894 0.77789 0.0
C1706 C 0.49818 0.92672 0.73963 0.0
C1707 C 0.48705 0.92685 0.69796 0.0
H1708 H 0.79737 0.71727 0.48142 0.0
H1709 H 0.83582 0.74186 0.40218 0.0
H1710 H 0.79665 0.73796 0.54864 0.0
H1711 H 0.83496 0.76281 0.46965 0.0
H1712 H 0.84097 0.78564 0.63748 0.0
H1713 H 0.84124 0.76722 0.56239 0.0
H1714 H 0.78974 0.76538 0.56596 0.0
H1715 H 0.78964 0.78354 0.64186 0.0
C1716 C 0.80563 0.72716 0.47795 0.0
C1717 C 0.81669 0.72777 0.43602 0.0
C1718 C 0.80512 0.73916 0.51657 0.0
C1719 C 0.8157 0.7522 0.51491 0.0
C1720 C 0.8267 0.75292 0.47271 0.0
C1721 C 0.82714 0.74092 0.43373 0.0
C1722 C 0.82972 0.78134 0.62192 0.0
C1723 C 0.81529 0.78587 0.646 0.0
C1724 C 0.82985 0.77086 0.57856 0.0
C1725 C 0.81552 0.76458 0.55806 0.0
C1726 C 0.80105 0.76968 0.58103 0.0
C1727 C 0.80094 0.78023 0.62425 0.0
H1728 H 0.55673 0.60971 0.36083 0.0
H1729 H 0.51678 0.63615 0.4227 0.0
H1730 H 0.54295 0.60593 0.27832 0.0
H1731 H 0.50331 0.63398 0.33733 0.0
H1732 H 0.47386 0.59847 0.24143 0.0
H1733 H 0.48953 0.61335 0.30393 0.0
H1734 H 0.5306 0.60956 0.2004 0.0
H1735 H 0.51485 0.59318 0.13986 0.0
C1736 C 0.54525 0.61546 0.35544 0.0
C1737 C 0.53761 0.62299 0.39789 0.0
C1738 C 0.53731 0.61339 0.30774 0.0
C1739 C 0.52167 0.61917 0.30119 0.0
C1740 C 0.51502 0.6287 0.34163 0.0
C1741 C 0.52277 0.63022 0.39025 0.0
C1742 C 0.48623 0.60093 0.23196 0.0
C1743 C 0.49331 0.59444 0.18665 0.0
C1744 C 0.49525 0.60975 0.2675 0.0
C1745 C 0.51152 0.61272 0.25789 0.0
C1746 C 0.51826 0.60716 0.21018 0.0
C1747 C 0.5093 0.59781 0.17535 0.0
H1748 H 0.63651 0.29476 0.61028 0.0
H1749 H 0.62657 0.25906 0.72878 0.0
H1750 H 0.6356 0.27469 0.54206 0.0
H1751 H 0.6246 0.23877 0.65975 0.0
H1752 H 0.66004 0.21005 0.55724 0.0
H1753 H 0.64647 0.22743 0.61831 0.0
H1754 H 0.62703 0.25439 0.48705 0.0
H1755 H 0.64163 0.23729 0.42563 0.0
C1756 C 0.63339 0.28266 0.62132 0.0
C1757 C 0.63214 0.27824 0.67458 0.0
C1758 C 0.63274 0.27109 0.58205 0.0
C1759 C 0.63058 0.25495 0.59554 0.0
C1760 C 0.62693 0.25101 0.64832 0.0
C1761 C 0.62798 0.26256 0.68781 0.0
C1762 C 0.65274 0.2196 0.54138 0.0
C1763 C 0.6522 0.22264 0.48695 0.0
C1764 C 0.64468 0.22945 0.57645 0.0
C1765 C 0.63565 0.24244 0.55778 0.0
C1766 C 0.63414 0.2447 0.50284 0.0
C1767 C 0.64252 0.23499 0.46768 0.0
H1768 H 0.99839 0.38467 0.93667 0.0
H1769 H 0.95139 0.38123 0.86755 0.0
H1770 H 0.00994 0.38712 0.84825 0.0
H1771 H 0.9629 0.38393 0.77938 0.0
H1772 H 0.99156 0.42681 0.68799 0.0
H1773 H 0.97672 0.41179 0.75446 0.0
H1774 H 0.01237 0.37464 0.75097 0.0
H1775 H 0.02711 0.38937 0.68392 0.0
C1776 C 0.99066 0.38383 0.90244 0.0
C1777 C 0.97409 0.38294 0.90848 0.0
C1778 C 0.99721 0.38515 0.85201 0.0
C1779 C 0.9872 0.38581 0.80747 0.0
C1780 C 0.97077 0.38342 0.81333 0.0
C1781 C 0.96425 0.38183 0.86365 0.0
C1782 C 0.99597 0.41522 0.70015 0.0
C1783 C 0.01067 0.40947 0.68186 0.0
C1784 C 0.98743 0.40658 0.7378 0.0
C1785 C 0.99358 0.39218 0.75776 0.0
C1786 C 0.00751 0.38575 0.73607 0.0
C1787 C 0.01592 0.39426 0.69795 0.0
H1788 H 0.84618 0.6996 0.10547 0.0
H1789 H 0.88197 0.73399 0.14977 0.0
H1790 H 0.84298 0.71235 0.02082 0.0
H1791 H 0.88027 0.74605 0.06181 0.0
H1792 H 0.84863 0.77999 0.96597 0.0
H1793 H 0.86238 0.76316 0.02772 0.0
H1794 H 0.84765 0.72147 0.93874 0.0
H1795 H 0.83246 0.7387 0.87922 0.0
C1796 C 0.85372 0.7097 0.09599 0.0
C1797 C 0.86388 0.71628 0.13405 0.0
C1798 C 0.85214 0.71689 0.04687 0.0
C1799 C 0.86105 0.73061 0.03438 0.0
C1800 C 0.8727 0.73594 0.07071 0.0
C1801 C 0.87384 0.72902 0.12084 0.0
C1802 C 0.84847 0.76722 0.95924 0.0
C1803 C 0.83915 0.76055 0.9189 0.0
C1804 C 0.85662 0.75748 0.9944 0.0
C1805 C 0.85599 0.74079 0.98925 0.0
C1806 C 0.84794 0.73422 0.94531 0.0
C1807 C 0.83927 0.74403 0.91105 0.0
H1808 H 0.51284 0.37383 0.15005 0.0
H1809 H 0.54825 0.38985 0.26179 0.0
H1810 H 0.49305 0.37252 0.22082 0.0
H1811 H 0.52851 0.38964 0.33163 0.0
H1812 H 0.49046 0.39692 0.44673 0.0
H1813 H 0.50851 0.38153 0.39052 0.0
H1814 H 0.481 0.39561 0.25326 0.0
H1815 H 0.46285 0.41011 0.30913 0.0
C1816 C 0.51643 0.3766 0.19015 0.0
C1817 C 0.5318 0.38229 0.20076 0.0
C1818 C 0.50516 0.37597 0.23058 0.0
C1819 C 0.50902 0.38162 0.28142 0.0
C1820 C 0.52502 0.38525 0.29308 0.0
C1821 C 0.53637 0.38547 0.25295 0.0
C1822 C 0.48824 0.39648 0.40456 0.0
C1823 C 0.47549 0.40495 0.38204 0.0
C1824 C 0.4985 0.38762 0.37243 0.0
C1825 C 0.49628 0.38734 0.31728 0.0
C1826 C 0.48298 0.39519 0.29553 0.0
C1827 C 0.47267 0.4038 0.32757 0.0
H1828 H 0.83687 0.21057 0.55143 0.0
H1829 H 0.85702 0.2365 0.68299 0.0
H1830 H 0.85145 0.22713 0.49031 0.0
H1831 H 0.87261 0.25271 0.62154 0.0
H1832 H 0.86503 0.29365 0.49856 0.0
H1833 H 0.86526 0.27354 0.56676 0.0
H1834 H 0.87395 0.23717 0.4487 0.0
H1835 H 0.8727 0.25755 0.3797 0.0
C1836 C 0.84474 0.21964 0.56724 0.0
C1837 C 0.84551 0.22259 0.62168 0.0
C1838 C 0.85338 0.229 0.53216 0.0
C1839 C 0.86323 0.24138 0.55082 0.0
C1840 C 0.8649 0.24351 0.60576 0.0
C1841 C 0.85594 0.23431 0.64093 0.0
C1842 C 0.86753 0.28142 0.48739 0.0
C1843 C 0.86825 0.27695 0.43408 0.0
C1844 C 0.86778 0.26982 0.52666 0.0
C1845 C 0.86902 0.2536 0.51308 0.0
C1846 C 0.8723 0.2495 0.46019 0.0
C1847 C 0.87165 0.26111 0.42071 0.0
H1848 H 0.00872 0.59802 0.91073 0.0
H1849 H 0.05222 0.60866 0.82594 0.0
H1850 H 0.99337 0.61143 0.84189 0.0
H1851 H 0.03687 0.62213 0.75748 0.0
H1852 H 1.00002 0.59867 0.63338 0.0
H1853 H 0.0198 0.6044 0.69909 0.0
H1854 H 0.98669 0.63521 0.78067 0.0
H1855 H 0.9668 0.63019 0.71211 0.0
C1856 C 0.01501 0.60363 0.87826 0.0
C1857 C 0.03154 0.60179 0.8725 0.0
C1858 C 0.00627 0.61152 0.83922 0.0
C1859 C 0.01398 0.61763 0.79413 0.0
C1860 C 0.03068 0.61739 0.79167 0.0
C1861 C 0.0394 0.6095 0.83053 0.0
C1862 C 0.99715 0.60758 0.66265 0.0
C1863 C 0.98171 0.61388 0.66743 0.0
C1864 C 0.00859 0.61081 0.70099 0.0
C1865 C 0.00464 0.62003 0.74543 0.0
C1866 C 0.98992 0.62795 0.7469 0.0
C1867 C 0.97857 0.62501 0.70776 0.0
H1868 H 0.63546 0.74445 0.92795 0.0
H1869 H 0.63203 0.69771 0.99923 0.0
H1870 H 0.63745 0.75637 0.01585 0.0
H1871 H 0.63418 0.70961 0.08687 0.0
H1872 H 0.67722 0.73855 0.17617 0.0
H1873 H 0.66194 0.72334 0.11142 0.0
H1874 H 0.62511 0.75935 0.11266 0.0
H1875 H 0.64011 0.77447 0.178 0.0
C1876 C 0.63458 0.73684 0.96248 0.0
C1877 C 0.63391 0.72024 0.9572 0.0
C1878 C 0.63558 0.74362 0.01263 0.0
C1879 C 0.63611 0.73379 0.05767 0.0
C1880 C 0.6338 0.71733 0.05251 0.0
C1881 C 0.63255 0.71059 1.00245 0.0
C1882 C 0.66564 0.74297 0.16393 0.0
C1883 C 0.66008 0.75788 0.18089 0.0
C1884 C 0.65684 0.73421 0.1273 0.0
C1885 C 0.64247 0.74036 0.10708 0.0
C1886 C 0.63619 0.75449 0.12775 0.0
C1887 C 0.64487 0.76313 0.16484 0.0
H1888 H 0.51525 0.41296 0.94123 0.0
H1889 H 0.53484 0.45721 0.88268 0.0
H1890 H 0.49563 0.41312 0.86914 0.0
H1891 H 0.51532 0.4574 0.81137 0.0
H1892 H 0.47737 0.4106 0.69315 0.0
H1893 H 0.49514 0.41022 0.77018 0.0
H1894 H 0.48621 0.46038 0.79496 0.0
H1895 H 0.46846 0.46069 0.71787 0.0
C1896 C 0.51533 0.42277 0.91335 0.0
C1897 C 0.52671 0.43506 0.91805 0.0
C1898 C 0.50412 0.42282 0.87177 0.0
C1899 C 0.50382 0.43529 0.83426 0.0
C1900 C 0.51502 0.44769 0.83966 0.0
C1901 C 0.52632 0.44753 0.8806 0.0
C1902 C 0.47916 0.42152 0.71526 0.0
C1903 C 0.47154 0.43568 0.69928 0.0
C1904 C 0.48926 0.42129 0.75966 0.0
C1905 C 0.4922 0.43528 0.78893 0.0
C1906 C 0.48437 0.4494 0.77322 0.0
C1907 C 0.4741 0.44957 0.72926 0.0
H1908 H 0.3352 0.76823 0.68062 0.0
H1909 H 0.29443 0.79169 0.61109 0.0
H1910 H 0.33547 0.7491 0.60795 0.0
H1911 H 0.29422 0.77225 0.53981 0.0
H1912 H 0.30681 0.74567 0.3891 0.0
H1913 H 0.30682 0.76438 0.46265 0.0
H1914 H 0.32373 0.72705 0.56654 0.0
H1915 H 0.32466 0.70866 0.4916 0.0
C1916 C 0.32617 0.76923 0.65016 0.0
C1917 C 0.31485 0.78165 0.65193 0.0
C1918 C 0.32625 0.75814 0.60837 0.0
C1919 C 0.31492 0.75899 0.56714 0.0
C1920 C 0.30341 0.77126 0.5697 0.0
C1921 C 0.30344 0.78242 0.61112 0.0
C1922 C 0.31066 0.74149 0.42757 0.0
C1923 C 0.31569 0.72561 0.43428 0.0
C1924 C 0.31047 0.75221 0.47023 0.0
C1925 C 0.31517 0.74739 0.5214 0.0
C1926 C 0.32017 0.73141 0.52802 0.0
C1927 C 0.32049 0.72073 0.48509 0.0
H1928 H 0.98898 0.5688 0.44699 0.0
H1929 H 0.95272 0.55146 0.34048 0.0
H1930 H 0.00829 0.56881 0.37518 0.0
H1931 H 0.97169 0.55233 0.26773 0.0
H1932 H 0.01176 0.54367 0.15033 0.0
H1933 H 0.99322 0.54179 0.22459 0.0
H1934 H 0.01741 0.58123 0.30051 0.0
H1935 H 0.0364 0.58224 0.22732 0.0
C1936 C 0.98509 0.56505 0.40809 0.0
C1937 C 0.96923 0.56008 0.39984 0.0
C1938 C 0.99618 0.56521 0.36641 0.0
C1939 C 0.99176 0.56068 0.31467 0.0
C1940 C 0.97586 0.55564 0.3067 0.0
C1941 C 0.96484 0.55522 0.34862 0.0
C1942 C 0.0131 0.55183 0.18325 0.0
C1943 C 0.02553 0.56305 0.18326 0.0
C1944 C 0.00237 0.5509 0.22584 0.0
C1945 C 0.00356 0.56138 0.2694 0.0
C1946 C 0.0161 0.57267 0.26881 0.0
C1947 C 0.02698 0.57339 0.22657 0.0
H1948 H 0.20892 0.21462 0.12736 0.0
H1949 H 0.16404 0.23405 0.18097 0.0
H1950 H 0.20965 0.23429 0.05601 0.0
H1951 H 0.16478 0.25368 0.10948 0.0
H1952 H 0.21272 0.28179 0.9631 0.0
H1953 H 0.21244 0.2634 0.0386 0.0
H1954 H 0.1624 0.25427 0.0117 0.0
H1955 H 0.16275 0.2727 0.93652 0.0
C1956 C 0.19924 0.22312 0.12422 0.0
C1957 C 0.18641 0.22265 0.16021 0.0
C1958 C 0.1997 0.23448 0.0833 0.0
C1959 C 0.18725 0.2456 0.07665 0.0
C1960 C 0.1745 0.24522 0.11291 0.0
C1961 C 0.17413 0.23399 0.15423 0.0
C1962 C 0.20164 0.27594 0.97367 0.0
C1963 C 0.18776 0.2787 0.94378 0.0
C1964 C 0.2015 0.26529 0.01669 0.0
C1965 C 0.18739 0.25727 0.03145 0.0
C1966 C 0.17345 0.2603 1.00197 0.0
C1967 C 0.17366 0.27078 0.9586 0.0
H1968 H 0.45539 0.57166 0.85619 0.0
H1969 H 0.49652 0.56133 0.9527 0.0
H1970 H 0.47229 0.57159 0.777 0.0
H1971 H 0.51346 0.56167 0.87432 0.0
H1972 H 0.5372 0.54684 0.72116 0.0
H1973 H 0.51907 0.54627 0.79612 0.0
H1974 H 0.49349 0.58656 0.73178 0.0
H1975 H 0.51164 0.58704 0.6559 0.0
C1976 C 0.46804 0.56934 0.86048 0.0
C1977 C 0.47459 0.56648 0.91085 0.0
C1978 C 0.47777 0.56945 0.81512 0.0
C1979 C 0.49431 0.56658 0.81888 0.0
C1980 C 0.50079 0.56372 0.86945 0.0
C1981 C 0.49109 0.5637 0.91465 0.0
C1982 C 0.52768 0.55556 0.72256 0.0
C1983 C 0.52602 0.56704 0.68217 0.0
C1984 C 0.5173 0.5553 0.76602 0.0
C1985 C 0.50484 0.56648 0.77069 0.0
C1986 C 0.50286 0.57769 0.72959 0.0
C1987 C 0.51333 0.578 0.68602 0.0
H1988 H 0.1669 0.76253 0.40701 0.0
H1989 H 0.20582 0.7888 0.47718 0.0
H1990 H 0.16799 0.74332 0.47982 0.0
H1991 H 0.20718 0.7695 0.5488 0.0
H1992 H 0.1936 0.74376 0.70107 0.0
H1993 H 0.19318 0.76177 0.62556 0.0
H1994 H 0.18255 0.7221 0.52242 0.0
H1995 H 0.18235 0.70415 0.59908 0.0
C1996 C 0.1758 0.76415 0.43759 0.0
C1997 C 0.1862 0.77736 0.43603 0.0
C1998 C 0.17649 0.75305 0.47938 0.0
C1999 C 0.1876 0.75481 0.52089 0.0
C2000 C 0.19822 0.76783 0.51847 0.0
C2001 C 0.19751 0.77891 0.47691 0.0
C2002 C 0.19109 0.73888 0.66233 0.0
C2003 C 0.18793 0.7225 0.65631 0.0
C2004 C 0.19103 0.74921 0.61869 0.0
C2005 C 0.18787 0.74351 0.56731 0.0
C2006 C 0.18487 0.72704 0.5612 0.0
C2007 C 0.18493 0.71668 0.6051 0.0
H2008 H 0.00811 0.44393 0.45569 0.0
H2009 H 0.0473 0.43175 0.35306 0.0
H2010 H 0.99008 0.44447 0.38003 0.0
H2011 H 0.02935 0.43276 0.27653 0.0
H2012 H 0.98815 0.41825 0.16253 0.0
H2013 H 0.00735 0.41859 0.23527 0.0
H2014 H 0.98334 0.45939 0.30247 0.0
H2015 H 0.96404 0.45888 0.23054 0.0
C2016 C 0.01289 0.44139 0.41681 0.0
C2017 C 0.02914 0.43773 0.41052 0.0
C2018 C 0.00257 0.44187 0.37317 0.0
C2019 C 0.00817 0.43869 0.32172 0.0
C2020 C 0.02451 0.43512 0.31542 0.0
C2021 C 0.03486 0.4347 0.35923 0.0
C2022 C 0.98701 0.42737 0.1926 0.0
C2023 C 0.97441 0.43848 0.19046 0.0
C2024 C 0.99811 0.42761 0.23435 0.0
C2025 C 0.99692 0.43895 0.27533 0.0
C2026 C 0.98454 0.45028 0.27239 0.0
C2027 C 0.97348 0.45006 0.2307 0.0
H2028 H 0.32964 0.23398 0.91851 0.0
H2029 H 0.29293 0.20663 0.9968 0.0
H2030 H 0.33105 0.25187 0.99407 0.0
H2031 H 0.29397 0.22485 0.07192 0.0
H2032 H 0.31072 0.25076 0.22174 0.0
H2033 H 0.30937 0.23272 0.14601 0.0
H2034 H 0.31825 0.27243 0.04099 0.0
H2035 H 0.32041 0.29018 0.11699 0.0
C2036 C 0.32171 0.23184 0.95157 0.0
C2037 C 0.31117 0.21875 0.95114 0.0
C2038 C 0.32246 0.24222 0.99511 0.0
C2039 C 0.31265 0.23994 0.03975 0.0
C2040 C 0.30194 0.22694 0.03899 0.0
C2041 C 0.30124 0.21652 0.99547 0.0
C2042 C 0.31258 0.25559 0.18251 0.0
C2043 C 0.31569 0.27196 0.17565 0.0
C2044 C 0.31159 0.24526 0.1388 0.0
C2045 C 0.31364 0.25099 0.08674 0.0
C2046 C 0.31678 0.2674 0.08012 0.0
C2047 C 0.31783 0.27769 0.12383 0.0
H2048 H 0.06717 0.9954 0.22965 0.0
H2049 H 0.10723 0.02514 0.18528 0.0
H2050 H 0.08297 0.98432 0.30197 0.0
H2051 H 0.12271 0.01431 0.25892 0.0
H2052 H 0.12142 0.96077 0.39864 0.0
H2053 H 0.12232 0.97314 0.31125 0.0
H2054 H 0.09999 0.01536 0.37438 0.0
H2055 H 0.09834 0.00272 0.46107 0.0
C2056 C 0.07944 0.99922 0.23432 0.0
C2057 C 0.08584 0.01131 0.20249 0.0
C2058 C 0.08846 0.99287 0.27544 0.0
C2059 C 0.10391 0.99862 0.28541 0.0
C2060 C 0.11084 0.00973 0.25133 0.0
C2061 C 0.10191 0.01589 0.20949 0.0
C2062 C 0.11775 0.97311 0.39461 0.0
C2063 C 0.10956 0.9808 0.43576 0.0
C2064 C 0.11825 0.98014 0.34463 0.0
C2065 C 0.11105 0.99501 0.3367 0.0
C2066 C 0.10568 0.00388 0.38019 0.0
C2067 C 0.10476 0.99669 0.42971 0.0
H2068 H 0.26699 0.86362 0.68567 0.0
H2069 H 0.29577 0.84959 0.55202 0.0
H2070 H 0.24683 0.87422 0.62567 0.0
H2071 H 0.2754 0.85873 0.49249 0.0
H2072 H 0.23592 0.85702 0.39195 0.0
H2073 H 0.25561 0.87086 0.44617 0.0
H2074 H 0.22905 0.85758 0.5865 0.0
H2075 H 0.2092 0.84502 0.53244 0.0
C2076 C 0.26906 0.86302 0.64343 0.0
C2077 C 0.28244 0.8551 0.62315 0.0
C2078 C 0.25756 0.86908 0.60901 0.0
C2079 C 0.25894 0.86645 0.55419 0.0
C2080 C 0.27358 0.86079 0.53427 0.0
C2081 C 0.28528 0.85525 0.56859 0.0
C2082 C 0.23424 0.85745 0.4344 0.0
C2083 C 0.22152 0.84936 0.45844 0.0
C2084 C 0.24546 0.86541 0.46549 0.0
C2085 C 0.24441 0.86479 0.52105 0.0
C2086 C 0.23052 0.85836 0.54409 0.0
C2087 C 0.21917 0.85081 0.51302 0.0
H2088 H 0.39024 0.03494 0.90653 0.0
H2089 H 0.41644 0.99054 0.91321 0.0
H2090 H 0.37892 0.0272 0.82187 0.0
H2091 H 0.40424 0.98244 0.83015 0.0
H2092 H 0.3917 0.97208 0.67795 0.0
H2093 H 0.37787 0.98165 0.75605 0.0
H2094 H 0.40686 0.02418 0.75492 0.0
H2095 H 0.42142 0.0143 0.67852 0.0
C2096 C 0.39285 0.02312 0.89158 0.0
C2097 C 0.40474 0.01354 0.91504 0.0
C2098 C 0.38617 0.01868 0.84338 0.0
C2099 C 0.39092 0.00441 0.81956 0.0
C2100 C 0.40041 0.99355 0.84806 0.0
C2101 C 0.40755 0.99822 0.89527 0.0
C2102 C 0.39475 0.9838 0.69299 0.0
C2103 C 0.40829 0.99206 0.67439 0.0
C2104 C 0.38657 0.98934 0.73716 0.0
C2105 C 0.39163 0.00337 0.76183 0.0
C2106 C 0.40286 0.01322 0.73645 0.0
C2107 C 0.41136 0.00747 0.69314 0.0
H2108 H 0.23724 0.16367 0.93056 0.0
H2109 H 0.28164 0.13784 0.94723 0.0
H2110 H 0.22773 0.15172 0.01229 0.0
H2111 H 0.27237 0.12666 0.03033 0.0
H2112 H 0.25905 0.16946 0.16964 0.0
H2113 H 0.26884 0.15493 0.09302 0.0
H2114 H 0.2257 0.12685 0.08979 0.0
H2115 H 0.21623 0.14067 0.16821 0.0
C2116 C 0.24467 0.15494 0.95035 0.0
C2117 C 0.26043 0.15234 0.93421 0.0
C2118 C 0.23917 0.1479 0.99679 0.0
C2119 C 0.24958 0.13866 0.0279 0.0
C2120 C 0.26423 0.13383 0.00695 0.0
C2121 C 0.26957 0.14048 0.95973 0.0
C2122 C 0.25208 0.1596 0.15441 0.0
C2123 C 0.23668 0.15662 0.17335 0.0
C2124 C 0.25774 0.15111 0.11099 0.0
C2125 C 0.2478 0.14002 0.08533 0.0
C2126 C 0.2335 0.13534 0.10916 0.0
C2127 C 0.22807 0.14345 0.15366 0.0
H2128 H 0.92622 0.99127 0.95002 0.0
H2129 H 0.94441 0.95546 0.84319 0.0
H2130 H 0.92568 0.01062 0.87753 0.0
H2131 H 0.94364 0.97478 0.77065 0.0
H2132 H 0.9223 0.01067 0.64585 0.0
H2133 H 0.92276 0.99079 0.71725 0.0
H2134 H 0.94616 0.02473 0.81935 0.0
H2135 H 0.94594 0.04442 0.74838 0.0
C2136 C 0.93009 0.9875 0.91113 0.0
C2137 C 0.93542 0.97178 0.90268 0.0
C2138 C 0.92982 0.99862 0.86958 0.0
C2139 C 0.93459 0.99426 0.8182 0.0
C2140 C 0.93977 0.97851 0.80959 0.0
C2141 C 0.94031 0.96746 0.85134 0.0
C2142 C 0.92758 0.01386 0.68347 0.0
C2143 C 0.93411 0.02917 0.69112 0.0
C2144 C 0.9279 0.00246 0.72433 0.0
C2145 C 0.93445 0.00619 0.77414 0.0
C2146 C 0.94089 0.0215 0.78173 0.0
C2147 C 0.94085 0.03276 0.74076 0.0
H2148 H 0.79302 0.1961 0.60237 0.0
H2149 H 0.75848 0.17515 0.7084 0.0
H2150 H 0.77361 0.19516 0.53052 0.0
H2151 H 0.73891 0.17447 0.63618 0.0
H2152 H 0.7043 0.19558 0.508 0.0
H2153 H 0.72368 0.19491 0.57999 0.0
H2154 H 0.75864 0.17449 0.4748 0.0
H2155 H 0.7391 0.17491 0.40249 0.0
C2156 C 0.78126 0.19133 0.61052 0.0
C2157 C 0.77734 0.18575 0.6615 0.0
C2158 C 0.77016 0.19069 0.56905 0.0
C2159 C 0.7547 0.18472 0.57741 0.0
C2160 C 0.7507 0.17921 0.62841 0.0
C2161 C 0.76193 0.17956 0.66979 0.0
C2162 C 0.71611 0.19093 0.50001 0.0
C2163 C 0.72011 0.18535 0.44912 0.0
C2164 C 0.72719 0.19044 0.54155 0.0
C2165 C 0.74273 0.18463 0.53334 0.0
C2166 C 0.7468 0.17911 0.48245 0.0
C2167 C 0.73559 0.17931 0.44102 0.0
H2168 H 0.59084 0.98268 0.17889 0.0
H2169 H 0.54462 0.96493 0.22619 0.0
H2170 H 0.59062 0.00121 0.25403 0.0
H2171 H 0.54436 0.98352 0.30036 0.0
H2172 H 0.54224 0.03232 0.38664 0.0
H2173 H 0.54306 0.01343 0.31345 0.0
H2174 H 0.59102 1.00007 0.35682 0.0
H2175 H 0.59015 0.01894 0.43109 0.0
C2176 C 0.58058 0.9828 0.20493 0.0
C2177 C 0.56773 0.9723 0.19618 0.0
C2178 C 0.58053 0.99333 0.24829 0.0
C2179 C 0.56749 0.99384 0.28338 0.0
C2180 C 0.55456 0.98352 0.27406 0.0
C2181 C 0.55473 0.97283 0.23144 0.0
C2182 C 0.55295 0.02529 0.38102 0.0
C2183 C 0.56611 0.02716 0.41511 0.0
C2184 C 0.55339 0.01441 0.33897 0.0
C2185 C 0.56712 0.00524 0.32902 0.0
C2186 C 0.58031 0.00704 0.36309 0.0
C2187 C 0.57975 0.01775 0.40595 0.0
H2188 H 0.74167 0.82124 0.20317 0.0
H2189 H 0.70511 0.8019 0.10137 0.0
H2190 H 0.76035 0.82147 0.12873 0.0
H2191 H 0.72373 0.80243 0.02687 0.0
H2192 H 0.75766 0.82501 0.8977 0.0
H2193 H 0.73864 0.82376 0.97133 0.0
H2194 H 0.77431 0.80103 0.06855 0.0
H2195 H 0.79318 0.80197 0.9951 0.0
C2196 C 0.7376 0.81701 0.16502 0.0
C2197 C 0.72185 0.81149 0.15857 0.0
C2198 C 0.74834 0.81711 0.12232 0.0
C2199 C 0.74355 0.81201 0.07169 0.0
C2200 C 0.72779 0.80655 0.06516 0.0
C2201 C 0.71715 0.80615 0.10807 0.0
C2202 C 0.76142 0.81964 0.93463 0.0
C2203 C 0.777 0.81355 0.94015 0.0
C2204 C 0.75049 0.81889 0.97682 0.0
C2205 C 0.75495 0.81235 0.02602 0.0
C2206 C 0.7705 0.80627 0.03145 0.0
C2207 C 0.7813 0.80672 0.98906 0.0
H2208 H 0.54465 0.49185 0.87978 0.0
H2209 H 0.58947 0.46632 0.87263 0.0
H2210 H 0.54414 0.49327 0.78404 0.0
H2211 H 0.58866 0.46724 0.77668 0.0
H2212 H 0.59182 0.50771 0.64489 0.0
H2213 H 0.59266 0.48939 0.71852 0.0
H2214 H 0.54234 0.4797 0.69875 0.0
H2215 H 0.5414 0.49859 0.62564 0.0
C2216 C 0.55435 0.4865 0.85771 0.0
C2217 C 0.56723 0.47932 0.88369 0.0
C2218 C 0.55388 0.48692 0.8028 0.0
C2219 C 0.56626 0.48009 0.77279 0.0
C2220 C 0.57895 0.47255 0.79881 0.0
C2221 C 0.57951 0.47227 0.85375 0.0
C2222 C 0.58108 0.50118 0.65486 0.0
C2223 C 0.56635 0.50524 0.63225 0.0
C2224 C 0.58158 0.4905 0.69682 0.0
C2225 C 0.56734 0.48385 0.71602 0.0
C2226 C 0.55334 0.48525 0.68578 0.0
C2227 C 0.55281 0.49604 0.64392 0.0
H2228 H 0.76286 0.33574 0.93698 0.0
H2229 H 0.71935 0.36351 0.93924 0.0
H2230 H 0.77144 0.34896 0.01767 0.0
H2231 H 0.72763 0.37593 0.02151 0.0
H2232 H 0.73807 0.33611 0.17404 0.0
H2233 H 0.72941 0.34909 0.09296 0.0
H2234 H 0.7732 0.3761 0.08775 0.0
H2235 H 0.78156 0.36392 0.17039 0.0
C2236 C 0.75546 0.34512 0.9533 0.0
C2237 C 0.74012 0.34797 0.93356 0.0
C2238 C 0.76044 0.35285 0.99918 0.0
C2239 C 0.74992 0.36311 0.02606 0.0
C2240 C 0.73583 0.36799 1.00142 0.0
C2241 C 0.73105 0.36063 0.95472 0.0
C2242 C 0.74544 0.34546 0.15734 0.0
C2243 C 0.76081 0.34837 0.17681 0.0
C2244 C 0.74042 0.35305 0.11122 0.0
C2245 C 0.75091 0.36324 0.08387 0.0
C2246 C 0.76502 0.36821 0.10822 0.0
C2247 C 0.76984 0.36099 0.15515 0.0
H2248 H 0.88732 0.53491 0.39284 0.0
H2249 H 0.91022 0.48908 0.41353 0.0
H2250 H 0.87687 0.52627 0.30799 0.0
H2251 H 0.89901 0.48026 0.3299 0.0
H2252 H 0.89139 0.4692 0.17332 0.0
H2253 H 0.87623 0.47917 0.24819 0.0
H2254 H 0.90513 0.52179 0.24965 0.0
H2255 H 0.92093 0.51151 0.17662 0.0
C2256 C 0.88943 0.5227 0.38074 0.0
C2257 C 0.90034 0.5129 0.4081 0.0
C2258 C 0.88319 0.51773 0.33245 0.0
C2259 C 0.8875 0.50283 0.31215 0.0
C2260 C 0.89561 0.4919 0.34477 0.0
C2261 C 0.90224 0.49701 0.39234 0.0
C2262 C 0.89411 0.48102 0.18806 0.0
C2263 C 0.90783 0.48931 0.17106 0.0
C2264 C 0.88523 0.48677 0.23048 0.0
C2265 C 0.88974 0.50102 0.25498 0.0
C2266 C 0.90146 0.5107 0.23128 0.0
C2267 C 0.91067 0.50474 0.18995 0.0
H2268 H 0.77004 0.64448 0.41922 0.0
H2269 H 0.79439 0.66398 0.55502 0.0
H2270 H 0.75193 0.63003 0.47761 0.0
H2271 H 0.77591 0.65078 0.613 0.0
H2272 H 0.73843 0.64305 0.71288 0.0
H2273 H 0.76002 0.63317 0.65723 0.0
H2274 H 0.73065 0.64132 0.51879 0.0
H2275 H 0.70909 0.64984 0.57427 0.0
C2276 C 0.77152 0.64559 0.46161 0.0
C2277 C 0.78304 0.65586 0.48292 0.0
C2278 C 0.76124 0.63727 0.49509 0.0
C2279 C 0.76192 0.63973 0.55012 0.0
C2280 C 0.77478 0.64852 0.57106 0.0
C2281 C 0.78529 0.65643 0.53769 0.0
C2282 C 0.73655 0.6422 0.67059 0.0
C2283 C 0.72251 0.648 0.64735 0.0
C2284 C 0.74887 0.63653 0.63868 0.0
C2285 C 0.7475 0.63737 0.58325 0.0
C2286 C 0.73245 0.64073 0.5611 0.0
C2287 C 0.72003 0.64593 0.59303 0.0
H2288 H 0.42917 0.51183 0.15407 0.0
H2289 H 0.44966 0.54702 0.25859 0.0
H2290 H 0.42859 0.49256 0.22693 0.0
H2291 H 0.44878 0.52783 0.3315 0.0
H2292 H 0.42663 0.49289 0.45855 0.0
H2293 H 0.42726 0.51261 0.38658 0.0
H2294 H 0.44938 0.4779 0.2843 0.0
H2295 H 0.44906 0.4584 0.35588 0.0
C2296 C 0.43355 0.51548 0.1925 0.0
C2297 C 0.43954 0.531 0.20019 0.0
C2298 C 0.43324 0.50441 0.23428 0.0
C2299 C 0.43859 0.50866 0.28516 0.0
C2300 C 0.44445 0.5242 0.29298 0.0
C2301 C 0.44507 0.53516 0.25098 0.0
C2302 C 0.43168 0.4895 0.42078 0.0
C2303 C 0.43785 0.47404 0.4133 0.0
C2304 C 0.43208 0.50081 0.37958 0.0
C2305 C 0.43832 0.49682 0.32956 0.0
C2306 C 0.44437 0.48135 0.32209 0.0
C2307 C 0.44427 0.47019 0.36341 0.0
H2308 H 0.28449 0.71105 0.12957 0.0
H2309 H 0.2691 0.66389 0.17569 0.0
H2310 H 0.26478 0.71121 0.05838 0.0
H2311 H 0.24952 0.66397 0.10351 0.0
H2312 H 0.23164 0.66428 0.927 0.0
H2313 H 0.25053 0.66421 1.00087 0.0
H2314 H 0.23427 0.71099 0.04704 0.0
H2315 H 0.21515 0.71098 0.97383 0.0
C2316 C 0.27687 0.70072 0.1247 0.0
C2317 C 0.27842 0.68746 0.15862 0.0
C2318 C 0.26551 0.70084 0.08389 0.0
C2319 C 0.25558 0.68759 0.075 0.0
C2320 C 0.25706 0.67433 0.10899 0.0
C2321 C 0.26821 0.67434 0.15062 0.0
C2322 C 0.23211 0.67459 0.95273 0.0
C2323 C 0.22185 0.68766 0.94417 0.0
C2324 C 0.24287 0.67448 0.99539 0.0
C2325 C 0.2439 0.68757 0.03007 0.0
C2326 C 0.23384 0.70074 0.02103 0.0
C2327 C 0.22285 0.70072 0.97903 0.0
H2328 H 0.05286 0.45569 0.75368 0.0
H2329 H 0.07594 0.48971 0.65064 0.0
H2330 H 0.05306 0.47531 0.82522 0.0
H2331 H 0.07592 0.50937 0.72215 0.0
H2332 H 0.05567 0.54505 0.84625 0.0
H2333 H 0.05563 0.52534 0.77521 0.0
H2334 H 0.07355 0.48974 0.88328 0.0
H2335 H 0.07382 0.50956 0.95457 0.0
C2336 C 0.0579 0.46738 0.74609 0.0
C2337 C 0.06437 0.47107 0.69614 0.0
C2338 C 0.05811 0.47859 0.78733 0.0
C2339 C 0.06453 0.49392 0.77957 0.0
C2340 C 0.0708 0.49771 0.72944 0.0
C2341 C 0.07086 0.4864 0.68845 0.0
C2342 C 0.0596 0.53302 0.85508 0.0
C2343 C 0.06474 0.52894 0.90639 0.0
C2344 C 0.05966 0.52174 0.81413 0.0
C2345 C 0.0646 0.50595 0.8234 0.0
C2346 C 0.06958 0.50178 0.87481 0.0
C2347 C 0.06979 0.51316 0.91565 0.0
H2348 H 0.21142 0.30415 0.60739 0.0
H2349 H 0.24501 0.32716 0.71208 0.0
H2350 H 0.23134 0.30388 0.53739 0.0
H2351 H 0.26516 0.32665 0.64148 0.0
H2352 H 0.30058 0.30458 0.51567 0.0
H2353 H 0.28119 0.30577 0.58794 0.0
H2354 H 0.24578 0.32419 0.48016 0.0
H2355 H 0.26518 0.32323 0.40802 0.0
C2356 C 0.22309 0.3091 0.61569 0.0
C2357 C 0.22656 0.31567 0.6657 0.0
C2358 C 0.2345 0.30903 0.57525 0.0
C2359 C 0.24985 0.31529 0.58363 0.0
C2360 C 0.25346 0.32168 0.63378 0.0
C2361 C 0.2419 0.32202 0.67418 0.0
C2362 C 0.28866 0.30889 0.50729 0.0
C2363 C 0.28447 0.31375 0.45576 0.0
C2364 C 0.27758 0.30968 0.5489 0.0
C2365 C 0.26192 0.31507 0.53994 0.0
C2366 C 0.25771 0.31988 0.48842 0.0
C2367 C 0.26886 0.31936 0.44704 0.0
H2368 H 0.13534 0.1689 0.19975 0.0
H2369 H 0.1694 0.13218 0.23888 0.0
H2370 H 0.1168 0.14887 0.1682 0.0
H2371 H 0.15031 0.11176 0.21177 0.0
H2372 H 0.1174 0.07859 0.11897 0.0
H2373 H 0.13718 0.09831 0.14659 0.0
H2374 H 0.09898 0.13026 0.19234 0.0
H2375 H 0.07958 0.11113 0.16026 0.0
C2376 C 0.13872 0.15644 0.20231 0.0
C2377 C 0.15374 0.15207 0.22188 0.0
C2378 C 0.12801 0.14485 0.18473 0.0
C2379 C 0.13177 0.12848 0.18802 0.0
C2380 C 0.14693 0.12416 0.20768 0.0
C2381 C 0.15788 0.13585 0.22368 0.0
C2382 C 0.11337 0.0899 0.13484 0.0
C2383 C 0.09703 0.09346 0.13704 0.0
C2384 C 0.12468 0.10121 0.1511 0.0
C2385 C 0.11985 0.11613 0.17142 0.0
C2386 C 0.10336 0.11927 0.17527 0.0
C2387 C 0.09215 0.10821 0.15742 0.0
H2388 H 0.13603 0.83137 0.39816 0.0
H2389 H 0.16929 0.86817 0.35276 0.0
H2390 H 0.11781 0.85143 0.43168 0.0
H2391 H 0.15051 0.88854 0.38183 0.0
H2392 H 0.11962 0.92197 0.47938 0.0
H2393 H 0.13874 0.90198 0.44934 0.0
H2394 H 0.09961 0.87016 0.41178 0.0
H2395 H 0.08091 0.88959 0.44622 0.0
C2396 C 0.13928 0.84384 0.3945 0.0
C2397 C 0.15403 0.84823 0.37281 0.0
C2398 C 0.12875 0.85544 0.41331 0.0
C2399 C 0.13245 0.87182 0.40926 0.0
C2400 C 0.14724 0.87614 0.38685 0.0
C2401 C 0.15799 0.86447 0.3696 0.0
C2402 C 0.11523 0.91062 0.46491 0.0
C2403 C 0.09885 0.90723 0.4656 0.0
C2404 C 0.12616 0.89916 0.44717 0.0
C2405 C 0.12089 0.88422 0.42814 0.0
C2406 C 0.10435 0.88117 0.42759 0.0
C2407 C 0.09353 0.8924 0.44689 0.0
H2408 H 0.38966 0.92521 0.67283 0.0
H2409 H 0.41733 0.88589 0.61104 0.0
H2410 H 0.37025 0.90633 0.70864 0.0
H2411 H 0.39788 0.86712 0.64645 0.0
H2412 H 0.36831 0.83727 0.76135 0.0
H2413 H 0.38799 0.85691 0.73216 0.0
H2414 H 0.35006 0.88738 0.67581 0.0
H2415 H 0.33041 0.86791 0.70526 0.0
C2416 C 0.39159 0.91257 0.66673 0.0
C2417 C 0.40506 0.9071 0.63897 0.0
C2418 C 0.38044 0.90175 0.68716 0.0
C2419 C 0.38256 0.88521 0.68061 0.0
C2420 C 0.39602 0.87976 0.65289 0.0
C2421 C 0.40711 0.89056 0.6322 0.0
C2422 C 0.36416 0.84822 0.74322 0.0
C2423 C 0.34777 0.85097 0.73556 0.0
C2424 C 0.37544 0.85943 0.72615 0.0
C2425 C 0.37059 0.87368 0.7014 0.0
C2426 C 0.35419 0.8766 0.69513 0.0
C2427 C 0.34293 0.86538 0.71184 0.0
H2428 H 0.41888 0.11305 0.94709 0.0
H2429 H 0.38062 0.08058 0.98464 0.0
H2430 H 0.3999 0.13168 0.9091 0.0
H2431 H 0.36126 0.09976 0.95121 0.0
H2432 H 0.32963 0.13112 0.85206 0.0
H2433 H 0.34932 0.11171 0.88163 0.0
H2434 H 0.38123 0.15036 0.92352 0.0
H2435 H 0.36204 0.16944 0.88934 0.0
C2436 C 0.40631 0.11007 0.94801 0.0
C2437 C 0.40119 0.09542 0.96883 0.0
C2438 C 0.39532 0.12083 0.92658 0.0
C2439 C 0.37884 0.11747 0.92702 0.0
C2440 C 0.37379 0.10278 0.94869 0.0
C2441 C 0.38486 0.09179 0.96851 0.0
C2442 C 0.34099 0.13535 0.86698 0.0
C2443 C 0.34439 0.15174 0.86809 0.0
C2444 C 0.35226 0.12424 0.88465 0.0
C2445 C 0.36703 0.12928 0.90565 0.0
C2446 C 0.37029 0.1458 0.90662 0.0
C2447 C 0.35923 0.15684 0.8873 0.0
H2448 H 0.91828 0.88302 0.99778 0.0
H2449 H 0.8854 0.92131 0.96472 0.0
H2450 H 0.89841 0.86362 0.96971 0.0
H2451 H 0.86596 0.90224 0.93211 0.0
H2452 H 0.82836 0.86462 0.91063 0.0
H2453 H 0.84749 0.88329 0.94781 0.0
H2454 H 0.88607 0.85204 0.90019 0.0
H2455 H 0.86667 0.83286 0.86751 0.0
C2456 C 0.90678 0.88725 0.98412 0.0
C2457 C 0.90332 0.90363 0.98369 0.0
C2458 C 0.89539 0.87615 0.96731 0.0
C2459 C 0.88043 0.88119 0.94791 0.0
C2460 C 0.87708 0.89768 0.94773 0.0
C2461 C 0.88829 0.90872 0.96615 0.0
C2462 C 0.84095 0.86179 0.90842 0.0
C2463 C 0.84605 0.84732 0.8863 0.0
C2464 C 0.85201 0.87256 0.92937 0.0
C2465 C 0.86853 0.86939 0.92715 0.0
C2466 C 0.87354 0.85489 0.90416 0.0
C2467 C 0.86242 0.8439 0.88479 0.0
H2468 H 0.92227 0.1164 0.66175 0.0
H2469 H 0.88281 0.08762 0.60674 0.0
H2470 H 0.90347 0.13611 0.69601 0.0
H2471 H 0.86411 0.10736 0.64064 0.0
H2472 H 0.8356 0.13663 0.75982 0.0
H2473 H 0.85512 0.11739 0.72767 0.0
H2474 H 0.88352 0.15583 0.66373 0.0
H2475 H 0.86406 0.17514 0.69615 0.0
C2476 C 0.90961 0.11431 0.65668 0.0
C2477 C 0.90406 0.1004 0.63151 0.0
C2478 C 0.89884 0.12563 0.67618 0.0
C2479 C 0.88231 0.12325 0.67129 0.0
C2480 C 0.87678 0.10943 0.64572 0.0
C2481 C 0.88751 0.09817 0.62594 0.0
C2482 C 0.84604 0.14101 0.73919 0.0
C2483 C 0.84822 0.15745 0.73047 0.0
C2484 C 0.85718 0.12997 0.72046 0.0
C2485 C 0.87081 0.13508 0.69283 0.0
C2486 C 0.87319 0.15152 0.68518 0.0
C2487 C 0.862 0.16258 0.70363 0.0
H2488 H 0.66269 0.13587 0.35323 0.0
H2489 H 0.633 0.17439 0.41 0.0
H2490 H 0.64323 0.11656 0.38546 0.0
H2491 H 0.61356 0.15499 0.44236 0.0
H2492 H 0.57553 0.11458 0.44239 0.0
H2493 H 0.5943 0.13449 0.40909 0.0
H2494 H 0.63353 0.10724 0.47318 0.0
H2495 H 0.61485 0.08732 0.50635 0.0
C2496 C 0.65199 0.14024 0.37233 0.0
C2497 C 0.64945 0.1567 0.37911 0.0
C2498 C 0.64089 0.12915 0.39112 0.0
C2499 C 0.62691 0.13425 0.41679 0.0
C2500 C 0.62417 0.1507 0.42248 0.0
C2501 C 0.63534 0.16181 0.40405 0.0
C2502 C 0.58815 0.11287 0.44965 0.0
C2503 C 0.59367 0.09932 0.47699 0.0
C2504 C 0.5989 0.12431 0.43068 0.0
C2505 C 0.6154 0.12238 0.43821 0.0
C2506 C 0.6209 0.10895 0.46608 0.0
C2507 C 0.61017 0.09758 0.4854 0.0
H2508 H 0.67226 0.86239 0.20971 0.0
H2509 H 0.6335 0.83079 0.24967 0.0
H2510 H 0.65343 0.88163 0.17421 0.0
H2511 H 0.61437 0.85054 0.21874 0.0
H2512 H 0.58324 0.882 0.11696 0.0
H2513 H 0.60239 0.86242 0.14914 0.0
H2514 H 0.63509 0.90068 0.18822 0.0
H2515 H 0.61645 0.91987 0.15153 0.0
C2516 C 0.65962 0.85976 0.21194 0.0
C2517 C 0.65433 0.84513 0.23241 0.0
C2518 C 0.64872 0.87086 0.19187 0.0
C2519 C 0.63216 0.86785 0.19332 0.0
C2520 C 0.62694 0.85328 0.21533 0.0
C2521 C 0.6379 0.84197 0.23378 0.0
C2522 C 0.59462 0.88611 0.13202 0.0
C2523 C 0.59843 0.9024 0.13135 0.0
C2524 C 0.6056 0.87491 0.15117 0.0
C2525 C 0.62047 0.87978 0.17181 0.0
C2526 C 0.62407 0.89622 0.17157 0.0
C2527 C 0.6133 0.90733 0.15084 0.0
H2528 H 0.63552 0.66765 0.71615 0.0
H2529 H 0.66981 0.63047 0.7479 0.0
H2530 H 0.61679 0.64799 0.68323 0.0
H2531 H 0.65061 0.61043 0.71899 0.0
H2532 H 0.61823 0.57923 0.61635 0.0
H2533 H 0.63775 0.59837 0.64988 0.0
H2534 H 0.59917 0.62861 0.70393 0.0
H2535 H 0.58001 0.61015 0.66643 0.0
C2536 C 0.63891 0.65517 0.71701 0.0
C2537 C 0.65409 0.65059 0.73468 0.0
C2538 C 0.6281 0.64379 0.69851 0.0
C2539 C 0.63196 0.62741 0.6987 0.0
C2540 C 0.64718 0.62286 0.71715 0.0
C2541 C 0.65818 0.63434 0.73426 0.0
C2542 C 0.61404 0.59001 0.63549 0.0
C2543 C 0.59766 0.59332 0.63838 0.0
C2544 C 0.62521 0.60098 0.65511 0.0
C2545 C 0.62019 0.61529 0.67939 0.0
C2546 C 0.60367 0.61812 0.68404 0.0
C2547 C 0.5926 0.60742 0.66302 0.0
H2548 H 0.6717 0.37124 0.86864 0.0
H2549 H 0.63818 0.33385 0.90582 0.0
H2550 H 0.65231 0.39125 0.89638 0.0
H2551 H 0.61931 0.35348 0.93803 0.0
H2552 H 0.58174 0.39092 0.94944 0.0
H2553 H 0.60121 0.37207 0.91616 0.0
H2554 H 0.63926 0.40413 0.96267 0.0
H2555 H 0.61941 0.42357 0.9915 0.0
C2556 C 0.66022 0.36734 0.88345 0.0
C2557 C 0.65635 0.35105 0.88466 0.0
C2558 C 0.6491 0.37879 0.89988 0.0
C2559 C 0.63403 0.37417 0.91944 0.0
C2560 C 0.63047 0.35773 0.92174 0.0
C2561 C 0.64137 0.34637 0.90372 0.0
C2562 C 0.59429 0.39392 0.95226 0.0
C2563 C 0.5991 0.40864 0.97314 0.0
C2564 C 0.60555 0.38302 0.93366 0.0
C2565 C 0.62202 0.38629 0.93719 0.0
C2566 C 0.62678 0.40114 0.95825 0.0
C2567 C 0.61542 0.41229 0.97527 0.0
H2568 H 0.86546 0.33849 0.25932 0.0
H2569 H 0.82755 0.36718 0.19284 0.0
H2570 H 0.88501 0.35781 0.22848 0.0
H2571 H 0.84727 0.38652 0.16153 0.0
H2572 H 0.88785 0.42462 0.16061 0.0
H2573 H 0.8674 0.40639 0.19424 0.0
H2574 H 0.89543 0.36618 0.14174 0.0
H2575 H 0.91583 0.38422 0.10878 0.0
C2576 C 0.86127 0.34894 0.23823 0.0
C2577 C 0.84491 0.35122 0.2283 0.0
C2578 C 0.87251 0.35998 0.22032 0.0
C2579 C 0.8677 0.37362 0.19218 0.0
C2580 C 0.85133 0.37616 0.18336 0.0
C2581 C 0.84005 0.36504 0.20109 0.0
C2582 C 0.88963 0.41189 0.15622 0.0
C2583 C 0.90352 0.4059 0.13206 0.0
C2584 C 0.87788 0.40146 0.17526 0.0
C2585 C 0.87985 0.38485 0.17093 0.0
C2586 C 0.89366 0.3789 0.1464 0.0
C2587 C 0.90532 0.38928 0.12715 0.0
H2588 H 0.8325 0.63538 0.37015 0.0
H2589 H 0.86631 0.67264 0.40564 0.0
H2590 H 0.85134 0.61543 0.40115 0.0
H2591 H 0.88474 0.65297 0.44131 0.0
H2592 H 0.9212 0.6134 0.45881 0.0
H2593 H 0.90273 0.63352 0.42641 0.0
H2594 H 0.86305 0.60312 0.47007 0.0
H2595 H 0.88174 0.58256 0.49776 0.0
C2596 C 0.84394 0.63928 0.38533 0.0
C2597 C 0.84799 0.65552 0.38528 0.0
C2598 C 0.85475 0.62785 0.40381 0.0
C2599 C 0.86972 0.6324 0.42447 0.0
C2600 C 0.8736 0.64878 0.4248 0.0
C2601 C 0.86297 0.66015 0.40467 0.0
C2602 C 0.9085 0.61112 0.46152 0.0
C2603 C 0.90288 0.59644 0.4806 0.0
C2604 C 0.89782 0.62272 0.44323 0.0
C2605 C 0.88119 0.62013 0.44509 0.0
C2606 C 0.87567 0.60554 0.46617 0.0
C2607 C 0.88638 0.59376 0.4828 0.0
H2608 H 0.38559 0.41532 0.49614 0.0
H2609 H 0.42555 0.38806 0.43693 0.0
H2610 H 0.36725 0.39552 0.46004 0.0
H2611 H 0.40719 0.3684 0.40039 0.0
H2612 H 0.3698 0.32794 0.40002 0.0
H2613 H 0.38858 0.34794 0.43142 0.0
H2614 H 0.35759 0.38534 0.37428 0.0
H2615 H 0.3386 0.3653 0.34324 0.0
C2616 C 0.39048 0.40512 0.47548 0.0
C2617 C 0.40707 0.40328 0.46964 0.0
C2618 C 0.37995 0.39383 0.45439 0.0
C2619 C 0.38575 0.3804 0.42716 0.0
C2620 C 0.40233 0.37853 0.42156 0.0
C2621 C 0.41286 0.38983 0.44244 0.0
C2622 C 0.36702 0.34042 0.3936 0.0
C2623 C 0.35264 0.34499 0.36914 0.0
C2624 C 0.37784 0.35189 0.41151 0.0
C2625 C 0.37456 0.36824 0.40562 0.0
C2626 C 0.36036 0.37284 0.38008 0.0
C2627 C 0.34955 0.36134 0.36189 0.0
H2628 H 0.36545 0.67414 0.18599 0.0
H2629 H 0.33706 0.63542 0.24856 0.0
H2630 H 0.38505 0.65499 0.15374 0.0
H2631 H 0.35676 0.6163 0.21652 0.0
H2632 H 0.38655 0.58637 0.10088 0.0
H2633 H 0.36694 0.60585 0.13128 0.0
H2634 H 0.40496 0.636 0.18873 0.0
H2635 H 0.42458 0.61664 0.15807 0.0
C2636 C 0.36342 0.66156 0.19316 0.0
C2637 C 0.34966 0.65634 0.21996 0.0
C2638 C 0.37469 0.65058 0.17477 0.0
C2639 C 0.37244 0.63412 0.18243 0.0
C2640 C 0.35873 0.62889 0.20939 0.0
C2641 C 0.3475 0.63987 0.22808 0.0
C2642 C 0.39075 0.59719 0.11973 0.0
C2643 C 0.40716 0.59991 0.12706 0.0
C2644 C 0.3795 0.6083 0.13749 0.0
C2645 C 0.38439 0.62244 0.16262 0.0
C2646 C 0.4008 0.62529 0.16913 0.0
C2647 C 0.41205 0.61414 0.15171 0.0
H2648 H 0.11277 0.58063 0.94717 0.0
H2649 H 0.08171 0.61925 0.99282 0.0
H2650 H 0.13182 0.59961 0.9116 0.0
H2651 H 0.10134 0.6385 0.96173 0.0
H2652 H 0.13263 0.67031 0.86207 0.0
H2653 H 0.113 0.65098 0.89264 0.0
H2654 H 0.15113 0.61761 0.92679 0.0
H2655 H 0.17036 0.6365 0.89166 0.0
C2656 C 0.11021 0.59326 0.95054 0.0
C2657 C 0.0958 0.59848 0.97279 0.0
C2658 C 0.12121 0.60424 0.93046 0.0
C2659 C 0.11835 0.6208 0.93365 0.0
C2660 C 0.10396 0.62594 0.95706 0.0
C2661 C 0.09272 0.61491 0.97557 0.0
C2662 C 0.1367 0.65875 0.87567 0.0
C2663 C 0.15297 0.65484 0.87415 0.0
C2664 C 0.12547 0.64766 0.89388 0.0
C2665 C 0.13029 0.63256 0.91275 0.0
C2666 C 0.14671 0.62883 0.91152 0.0
C2667 C 0.15784 0.63972 0.89168 0.0
H2668 H 0.11809 0.41522 0.59885 0.0
H2669 H 0.08 0.38522 0.65718 0.0
H2670 H 0.13766 0.39589 0.63049 0.0
H2671 H 0.0996 0.36599 0.68912 0.0
H2672 H 0.13934 0.32791 0.6897 0.0
H2673 H 0.11965 0.34681 0.65606 0.0
H2674 H 0.14779 0.38595 0.71629 0.0
H2675 H 0.16756 0.36711 0.74965 0.0
C2676 C 0.11387 0.40449 0.61822 0.0
C2677 C 0.09744 0.40181 0.62551 0.0
C2678 C 0.12511 0.39346 0.63669 0.0
C2679 C 0.1202 0.37944 0.66257 0.0
C2680 C 0.10378 0.37661 0.66898 0.0
C2681 C 0.09254 0.38768 0.65083 0.0
C2682 C 0.14132 0.34055 0.69596 0.0
C2683 C 0.15506 0.34597 0.72243 0.0
C2684 C 0.12999 0.35137 0.67681 0.0
C2685 C 0.13217 0.36789 0.68333 0.0
C2686 C 0.14586 0.37332 0.70999 0.0
C2687 C 0.15714 0.36249 0.72944 0.0
loop_
_geom_bond_atom_site_label_1
_geom_bond_atom_site_label_2
_geom_bond_distance
_geom_bond_site_symmetry_2
_ccdc_geom_bond_type
Co0 O3 1.970 . S
Co0 N17 1.989 . S
Co0 O25 1.967 . S
Co0 O32 1.920 . S
Co1 O4 1.966 . S
Co1 N10 2.022 1_554 S
Co1 N18 1.993 . S
Co1 O26 1.941 . S
C2 O3 1.258 . S
C2 O4 1.263 . S
O3 Co0 1.970 . S
O3 C2 1.258 . S
O4 Co1 1.966 . S
O4 C2 1.263 . S
C5 O6 1.235 . S
C5 O32 1.289 . S
O6 C5 1.235 . S
C7 C9 1.400 . S
C7 N10 1.351 . S
C7 C12 1.503 . S
C8 C9 1.387 . S
C8 N11 1.341 . S
C9 C7 1.400 . S
C9 C8 1.387 . S
N10 Co1 2.022 1_556 S
N10 C7 1.351 . S
N10 N11 1.365 . S
N11 C8 1.341 . S
N11 N10 1.365 . S
N11 H31 0.862 . S
C12 C7 1.503 . S
C12 H13 0.958 1_556 S
C12 H14 0.962 . S
C12 H15 0.960 1_556 S
H13 C12 0.958 1_554 S
H14 C12 0.962 . S
H15 C12 0.960 1_554 S
C16 N17 1.342 . S
C16 C20 1.401 1_554 S
C16 C21 1.499 . S
N17 Co0 1.989 . S
N17 C16 1.342 . S
N17 N18 1.388 . S
N18 Co1 1.993 . S
N18 N17 1.388 . S
N18 C19 1.346 1_554 S
C19 N18 1.346 1_556 S
C19 C20 1.396 . S
C19 C29 1.510 . S
C20 C16 1.401 1_556 S
C20 C19 1.396 . S
C21 C16 1.499 . S
C21 H22 0.959 . S
C21 H23 0.960 . S
C21 H24 0.961 . S
H22 C21 0.959 . S
H23 C21 0.960 . S
H24 C21 0.961 . S
O25 Co0 1.967 . S
O25 C33 1.258 . S
O26 Co1 1.941 . S
O26 C33 1.266 . S
H27 C29 0.959 . S
H28 C29 0.961 . S
C29 C19 1.510 . S
C29 H27 0.959 . S
C29 H28 0.961 . S
C29 H30 0.960 . S
H30 C29 0.960 . S
H31 N11 0.862 . S
O32 Co0 1.920 . S
O32 C5 1.289 . S
C33 O25 1.258 . S
C33 O26 1.266 . S
Co34 O37 1.970 . S
Co34 N51 1.989 . S
Co34 O59 1.967 . S
Co34 O66 1.920 . S
Co35 O38 1.966 . S
Co35 N44 2.022 . S
Co35 N52 1.993 . S
Co35 O60 1.941 . S
C36 O37 1.258 . S
C36 O38 1.263 . S
O37 Co34 1.970 . S
O37 C36 1.258 . S
O38 Co35 1.966 . S
O38 C36 1.263 . S
C39 O40 1.235 . S
C39 O66 1.289 . S
O40 C39 1.235 . S
C41 C43 1.400 . S
C41 N44 1.351 . S
C41 C46 1.501 . S
C42 C43 1.387 . S
C42 N45 1.341 . S
C43 C41 1.400 . S
C43 C42 1.387 . S
N44 Co35 2.022 . S
N44 C41 1.351 . S
N44 N45 1.365 . S
N45 C42 1.341 . S
N45 N44 1.365 . S
N45 H65 0.862 . S
C46 C41 1.501 . S
C46 H47 0.961 . S
C46 H48 0.961 . S
C46 H49 0.960 . S
H47 C46 0.961 . S
H48 C46 0.961 . S
H49 C46 0.960 . S
C50 N51 1.342 . S
C50 C54 1.401 . S
C50 C55 1.499 . S
N51 Co34 1.989 . S
N51 C50 1.342 . S
N51 N52 1.388 . S
N52 Co35 1.993 . S
N52 N51 1.388 . S
N52 C53 1.346 . S
C53 N52 1.346 . S
C53 C54 1.396 . S
C53 C63 1.510 . S
C54 C50 1.401 . S
C54 C53 1.396 . S
C55 C50 1.499 . S
C55 H56 0.959 . S
C55 H57 0.960 . S
C55 H58 0.961 . S
H56 C55 0.959 . S
H57 C55 0.960 . S
H58 C55 0.961 . S
O59 Co34 1.967 . S
O59 C67 1.258 . S
O60 Co35 1.941 . S
O60 C67 1.266 . S
H61 C63 0.959 . S
H62 C63 0.961 . S
C63 C53 1.510 . S
C63 H61 0.959 . S
C63 H62 0.961 . S
C63 H64 0.960 . S
H64 C63 0.960 . S
H65 N45 0.862 . S
O66 Co34 1.920 . S
O66 C39 1.289 . S
C67 O59 1.258 . S
C67 O60 1.266 . S
Co68 O71 1.970 . S
Co68 N85 1.989 . S
Co68 O93 1.967 . S
Co68 O100 1.920 . S
Co69 O72 1.966 . S
Co69 N78 2.022 . S
Co69 N86 1.993 . S
Co69 O94 1.941 . S
C70 O71 1.258 . S
C70 O72 1.263 . S
O71 Co68 1.970 . S
O71 C70 1.258 . S
O72 Co69 1.966 . S
O72 C70 1.263 . S
C73 O74 1.235 . S
C73 O100 1.289 . S
O74 C73 1.235 . S
C75 C77 1.400 . S
C75 N78 1.351 . S
C75 C80 1.501 . S
C76 C77 1.387 . S
C76 N79 1.341 . S
C77 C75 1.400 . S
C77 C76 1.387 . S
N78 Co69 2.022 . S
N78 C75 1.351 . S
N78 N79 1.365 . S
N79 C76 1.341 . S
N79 N78 1.365 . S
N79 H99 0.862 . S
C80 C75 1.501 . S
C80 H81 0.961 . S
C80 H82 0.961 . S
C80 H83 0.960 . S
H81 C80 0.961 . S
H82 C80 0.961 . S
H83 C80 0.960 . S
C84 N85 1.342 . S
C84 C88 1.401 . S
C84 C89 1.499 . S
N85 Co68 1.989 . S
N85 C84 1.342 . S
N85 N86 1.388 . S
N86 Co69 1.993 . S
N86 N85 1.388 . S
N86 C87 1.346 . S
C87 N86 1.346 . S
C87 C88 1.396 . S
C87 C97 1.510 . S
C88 C84 1.401 . S
C88 C87 1.396 . S
C89 C84 1.499 . S
C89 H90 0.959 . S
C89 H91 0.960 . S
C89 H92 0.961 . S
H90 C89 0.959 . S
H91 C89 0.960 . S
H92 C89 0.961 . S
O93 Co68 1.967 . S
O93 C101 1.258 . S
O94 Co69 1.941 . S
O94 C101 1.266 . S
H95 C97 0.959 . S
H96 C97 0.961 . S
C97 C87 1.510 . S
C97 H95 0.959 . S
C97 H96 0.961 . S
C97 H98 0.960 . S
H98 C97 0.960 . S
H99 N79 0.862 . S
O100 Co68 1.920 . S
O100 C73 1.289 . S
C101 O93 1.258 . S
C101 O94 1.266 . S
Co102 O105 1.970 . S
Co102 N119 1.989 . S
Co102 O127 1.967 . S
Co102 O134 1.920 . S
Co103 O106 1.966 . S
Co103 N112 2.022 . S
Co103 N120 1.993 . S
Co103 O128 1.941 . S
C104 O105 1.258 . S
C104 O106 1.263 . S
O105 Co102 1.970 . S
O105 C104 1.258 . S
O106 Co103 1.966 . S
O106 C104 1.263 . S
C107 O108 1.235 . S
C107 O134 1.289 . S
O108 C107 1.235 . S
C109 C111 1.400 . S
C109 N112 1.351 . S
C109 C114 1.501 . S
C110 C111 1.387 . S
C110 N113 1.341 . S
C111 C109 1.400 . S
C111 C110 1.387 . S
N112 Co103 2.022 . S
N112 C109 1.351 . S
N112 N113 1.365 . S
N113 C110 1.341 . S
N113 N112 1.365 . S
N113 H133 0.862 . S
C114 C109 1.501 . S
C114 H115 0.961 . S
C114 H116 0.961 . S
C114 H117 0.960 . S
H115 C114 0.961 . S
H116 C114 0.961 . S
H117 C114 0.960 . S
C118 N119 1.342 . S
C118 C122 1.401 . S
C118 C123 1.499 . S
N119 Co102 1.989 . S
N119 C118 1.342 . S
N119 N120 1.388 . S
N120 Co103 1.993 . S
N120 N119 1.388 . S
N120 C121 1.346 . S
C121 N120 1.346 . S
C121 C122 1.396 . S
C121 C131 1.510 . S
C122 C118 1.401 . S
C122 C121 1.396 . S
C123 C118 1.499 . S
C123 H124 0.959 . S
C123 H125 0.960 . S
C123 H126 0.961 . S
H124 C123 0.959 . S
H125 C123 0.960 . S
H126 C123 0.961 . S
O127 Co102 1.967 . S
O127 C135 1.258 . S
O128 Co103 1.941 . S
O128 C135 1.266 . S
H129 C131 0.959 . S
H130 C131 0.961 . S
C131 C121 1.510 . S
C131 H129 0.959 . S
C131 H130 0.961 . S
C131 H132 0.960 . S
H132 C131 0.960 . S
H133 N113 0.862 . S
O134 Co102 1.920 . S
O134 C107 1.289 . S
C135 O127 1.258 . S
C135 O128 1.266 . S
Co136 O139 1.970 . S
Co136 N153 1.989 . S
Co136 O161 1.967 . S
Co136 O168 1.920 . S
Co137 O140 1.966 . S
Co137 N146 2.022 . S
Co137 N154 1.993 . S
Co137 O162 1.941 . S
C138 O139 1.258 . S
C138 O140 1.263 . S
O139 Co136 1.970 . S
O139 C138 1.258 . S
O140 Co137 1.966 . S
O140 C138 1.263 . S
C141 O142 1.235 . S
C141 O168 1.289 . S
O142 C141 1.235 . S
C143 C145 1.400 . S
C143 N146 1.351 . S
C143 C148 1.501 . S
C144 C145 1.387 . S
C144 N147 1.341 . S
C145 C143 1.400 . S
C145 C144 1.387 . S
N146 Co137 2.022 . S
N146 C143 1.351 . S
N146 N147 1.365 . S
N147 C144 1.341 . S
N147 N146 1.365 . S
N147 H167 0.862 . S
C148 C143 1.501 . S
C148 H149 0.961 . S
C148 H150 0.961 . S
C148 H151 0.960 . S
H149 C148 0.961 . S
H150 C148 0.961 . S
H151 C148 0.960 . S
C152 N153 1.342 . S
C152 C156 1.401 . S
C152 C157 1.499 . S
N153 Co136 1.989 . S
N153 C152 1.342 . S
N153 N154 1.388 . S
N154 Co137 1.993 . S
N154 N153 1.388 . S
N154 C155 1.346 . S
C155 N154 1.346 . S
C155 C156 1.396 . S
C155 C165 1.510 . S
C156 C152 1.401 . S
C156 C155 1.396 . S
C157 C152 1.499 . S
C157 H158 0.959 . S
C157 H159 0.960 . S
C157 H160 0.961 . S
H158 C157 0.959 . S
H159 C157 0.960 . S
H160 C157 0.961 . S
O161 Co136 1.967 . S
O161 C169 1.258 . S
O162 Co137 1.941 . S
O162 C169 1.266 . S
H163 C165 0.959 . S
H164 C165 0.961 . S
C165 C155 1.510 . S
C165 H163 0.959 . S
C165 H164 0.961 . S
C165 H166 0.960 . S
H166 C165 0.960 . S
H167 N147 0.862 . S
O168 Co136 1.920 . S
O168 C141 1.289 . S
C169 O161 1.258 . S
C169 O162 1.266 . S
Co170 O173 1.970 . S
Co170 N187 1.989 . S
Co170 O195 1.967 . S
Co170 O202 1.920 . S
Co171 O174 1.966 . S
Co171 N180 2.022 . S
Co171 N188 1.993 . S
Co171 O196 1.941 . S
C172 O173 1.258 . S
C172 O174 1.263 . S
O173 Co170 1.970 . S
O173 C172 1.258 . S
O174 Co171 1.966 . S
O174 C172 1.263 . S
C175 O176 1.235 . S
C175 O202 1.289 . S
O176 C175 1.235 . S
C177 C179 1.400 . S
C177 N180 1.351 . S
C177 C182 1.501 . S
C178 C179 1.387 . S
C178 N181 1.341 . S
C179 C177 1.400 . S
C179 C178 1.387 . S
N180 Co171 2.022 . S
N180 C177 1.351 . S
N180 N181 1.365 . S
N181 C178 1.341 . S
N181 N180 1.365 . S
N181 H201 0.862 . S
C182 C177 1.501 . S
C182 H183 0.961 . S
C182 H184 0.961 . S
C182 H185 0.960 . S
H183 C182 0.961 . S
H184 C182 0.961 . S
H185 C182 0.960 . S
C186 N187 1.342 . S
C186 C190 1.401 . S
C186 C191 1.499 . S
N187 Co170 1.989 . S
N187 C186 1.342 . S
N187 N188 1.388 . S
N188 Co171 1.993 . S
N188 N187 1.388 . S
N188 C189 1.346 . S
C189 N188 1.346 . S
C189 C190 1.396 . S
C189 C199 1.510 . S
C190 C186 1.401 . S
C190 C189 1.396 . S
C191 C186 1.499 . S
C191 H192 0.959 . S
C191 H193 0.960 . S
C191 H194 0.961 . S
H192 C191 0.959 . S
H193 C191 0.960 . S
H194 C191 0.961 . S
O195 Co170 1.967 . S
O195 C203 1.258 . S
O196 Co171 1.941 . S
O196 C203 1.266 . S
H197 C199 0.959 . S
H198 C199 0.961 . S
C199 C189 1.510 . S
C199 H197 0.959 . S
C199 H198 0.961 . S
C199 H200 0.960 . S
H200 C199 0.960 . S
H201 N181 0.862 . S
O202 Co170 1.920 . S
O202 C175 1.289 . S
C203 O195 1.258 . S
C203 O196 1.266 . S
Co204 O207 1.970 . S
Co204 N221 1.989 1_556 S
Co204 O229 1.967 . S
Co204 O236 1.920 . S
Co205 O208 1.966 . S
Co205 N214 2.022 . S
Co205 N222 1.993 . S
Co205 O230 1.941 . S
C206 O207 1.258 . S
C206 O208 1.263 1_556 S
O207 Co204 1.970 . S
O207 C206 1.258 . S
O208 Co205 1.966 . S
O208 C206 1.263 1_554 S
C209 O210 1.235 . S
C209 O236 1.289 . S
O210 C209 1.235 . S
C211 C213 1.400 . S
C211 N214 1.351 . S
C211 C216 1.501 . S
C212 C213 1.387 . S
C212 N215 1.341 . S
C213 C211 1.400 . S
C213 C212 1.387 . S
N214 Co205 2.022 . S
N214 C211 1.351 . S
N214 N215 1.365 . S
N215 C212 1.341 . S
N215 N214 1.365 . S
N215 H235 0.862 . S
C216 C211 1.501 . S
C216 H217 0.961 . S
C216 H218 0.961 . S
C216 H219 0.960 . S
H217 C216 0.961 . S
H218 C216 0.961 . S
H219 C216 0.960 . S
C220 N221 1.342 . S
C220 C224 1.401 . S
C220 C225 1.499 . S
N221 Co204 1.989 1_554 S
N221 C220 1.342 . S
N221 N222 1.388 . S
N222 Co205 1.993 . S
N222 N221 1.388 . S
N222 C223 1.346 . S
C223 N222 1.346 . S
C223 C224 1.396 . S
C223 C233 1.510 . S
C224 C220 1.401 . S
C224 C223 1.396 . S
C225 C220 1.499 . S
C225 H226 0.959 . S
C225 H227 0.960 . S
C225 H228 0.961 . S
H226 C225 0.959 . S
H227 C225 0.960 . S
H228 C225 0.961 . S
O229 Co204 1.967 . S
O229 C237 1.256 1_556 S
O230 Co205 1.941 . S
O230 C237 1.269 . S
H231 C233 0.959 . S
H232 C233 0.961 . S
C233 C223 1.510 . S
C233 H231 0.959 . S
C233 H232 0.961 . S
C233 H234 0.960 . S
H234 C233 0.960 . S
H235 N215 0.862 . S
O236 Co204 1.920 . S
O236 C209 1.289 . S
C237 O229 1.256 1_554 S
C237 O230 1.269 . S
Co238 O241 1.970 . S
Co238 N255 1.989 . S
Co238 O263 1.967 . S
Co238 O270 1.920 . S
Co239 O242 1.966 . S
Co239 N248 2.022 . S
Co239 N256 1.993 . S
Co239 O264 1.941 . S
C240 O241 1.258 . S
C240 O242 1.263 . S
O241 Co238 1.970 . S
O241 C240 1.258 . S
O242 Co239 1.966 . S
O242 C240 1.263 . S
C243 O244 1.235 . S
C243 O270 1.289 . S
O244 C243 1.235 . S
C245 C247 1.400 . S
C245 N248 1.351 . S
C245 C250 1.501 . S
C246 C247 1.387 . S
C246 N249 1.341 . S
C247 C245 1.400 . S
C247 C246 1.387 . S
N248 Co239 2.022 . S
N248 C245 1.351 . S
N248 N249 1.365 . S
N249 C246 1.341 . S
N249 N248 1.365 . S
N249 H269 0.862 . S
C250 C245 1.501 . S
C250 H251 0.961 . S
C250 H252 0.961 . S
C250 H253 0.960 . S
H251 C250 0.961 . S
H252 C250 0.961 . S
H253 C250 0.960 . S
C254 N255 1.342 . S
C254 C258 1.401 . S
C254 C259 1.499 . S
N255 Co238 1.989 . S
N255 C254 1.342 . S
N255 N256 1.388 . S
N256 Co239 1.993 . S
N256 N255 1.388 . S
N256 C257 1.346 . S
C257 N256 1.346 . S
C257 C258 1.396 . S
C257 C267 1.510 . S
C258 C254 1.401 . S
C258 C257 1.396 . S
C259 C254 1.499 . S
C259 H260 0.959 . S
C259 H261 0.960 . S
C259 H262 0.961 . S
H260 C259 0.959 . S
H261 C259 0.960 . S
H262 C259 0.961 . S
O263 Co238 1.967 . S
O263 C271 1.258 . S
O264 Co239 1.941 . S
O264 C271 1.266 . S
H265 C267 0.959 . S
H266 C267 0.961 . S
C267 C257 1.510 . S
C267 H265 0.959 . S
C267 H266 0.961 . S
C267 H268 0.960 . S
H268 C267 0.960 . S
H269 N249 0.862 . S
O270 Co238 1.920 . S
O270 C243 1.289 . S
C271 O263 1.258 . S
C271 O264 1.266 . S
Co272 O275 1.970 . S
Co272 N289 1.989 1_556 S
Co272 O297 1.967 . S
Co272 O304 1.920 . S
Co273 O276 1.966 . S
Co273 N282 2.022 . S
Co273 N290 1.993 . S
Co273 O298 1.941 . S
C274 O275 1.258 . S
C274 O276 1.263 1_556 S
O275 Co272 1.970 . S
O275 C274 1.258 . S
O276 Co273 1.966 . S
O276 C274 1.263 1_554 S
C277 O278 1.235 . S
C277 O304 1.289 . S
O278 C277 1.235 . S
C279 C281 1.400 . S
C279 N282 1.351 . S
C279 C284 1.501 . S
C280 C281 1.387 . S
C280 N283 1.341 . S
C281 C279 1.400 . S
C281 C280 1.387 . S
N282 Co273 2.022 . S
N282 C279 1.351 . S
N282 N283 1.365 . S
N283 C280 1.341 . S
N283 N282 1.365 . S
N283 H303 0.862 . S
C284 C279 1.501 . S
C284 H285 0.961 . S
C284 H286 0.961 . S
C284 H287 0.960 . S
H285 C284 0.961 . S
H286 C284 0.961 . S
H287 C284 0.960 . S
C288 N289 1.342 . S
C288 C292 1.401 . S
C288 C293 1.499 . S
N289 Co272 1.989 1_554 S
N289 C288 1.342 . S
N289 N290 1.388 . S
N290 Co273 1.993 . S
N290 N289 1.388 . S
N290 C291 1.346 . S
C291 N290 1.346 . S
C291 C292 1.396 . S
C291 C301 1.510 . S
C292 C288 1.401 . S
C292 C291 1.396 . S
C293 C288 1.499 . S
C293 H294 0.959 . S
C293 H295 0.960 . S
C293 H296 0.961 . S
H294 C293 0.959 . S
H295 C293 0.960 . S
H296 C293 0.961 . S
O297 Co272 1.967 . S
O297 C305 1.256 1_556 S
O298 Co273 1.941 . S
O298 C305 1.270 . S
H299 C301 0.959 . S
H300 C301 0.961 . S
C301 C291 1.510 . S
C301 H299 0.959 . S
C301 H300 0.961 . S
C301 H302 0.960 . S
H302 C301 0.960 . S
H303 N283 0.862 . S
O304 Co272 1.920 . S
O304 C277 1.289 . S
C305 O297 1.256 1_554 S
C305 O298 1.270 . S
Co306 O309 1.970 . S
Co306 N323 1.989 . S
Co306 O331 1.967 . S
Co306 O338 1.920 . S
Co307 O310 1.966 . S
Co307 N316 2.022 . S
Co307 N324 1.993 . S
Co307 O332 1.941 . S
C308 O309 1.258 . S
C308 O310 1.263 . S
O309 Co306 1.970 . S
O309 C308 1.258 . S
O310 Co307 1.966 . S
O310 C308 1.263 . S
C311 O312 1.235 . S
C311 O338 1.289 . S
O312 C311 1.235 . S
C313 C315 1.400 . S
C313 N316 1.351 . S
C313 C318 1.501 . S
C314 C315 1.387 . S
C314 N317 1.341 . S
C315 C313 1.400 . S
C315 C314 1.387 . S
N316 Co307 2.022 . S
N316 C313 1.351 . S
N316 N317 1.365 . S
N317 C314 1.341 . S
N317 N316 1.365 . S
N317 H337 0.862 . S
C318 C313 1.501 . S
C318 H319 0.961 . S
C318 H320 0.961 . S
C318 H321 0.960 . S
H319 C318 0.961 . S
H320 C318 0.961 . S
H321 C318 0.960 . S
C322 N323 1.342 . S
C322 C326 1.401 . S
C322 C327 1.499 . S
N323 Co306 1.989 . S
N323 C322 1.342 . S
N323 N324 1.388 . S
N324 Co307 1.993 . S
N324 N323 1.388 . S
N324 C325 1.346 . S
C325 N324 1.346 . S
C325 C326 1.396 . S
C325 C335 1.510 . S
C326 C322 1.401 . S
C326 C325 1.396 . S
C327 C322 1.499 . S
C327 H328 0.959 . S
C327 H329 0.960 . S
C327 H330 0.961 . S
H328 C327 0.959 . S
H329 C327 0.960 . S
H330 C327 0.961 . S
O331 Co306 1.967 . S
O331 C339 1.258 . S
O332 Co307 1.941 . S
O332 C339 1.266 . S
H333 C335 0.959 . S
H334 C335 0.961 . S
C335 C325 1.510 . S
C335 H333 0.959 . S
C335 H334 0.961 . S
C335 H336 0.960 . S
H336 C335 0.960 . S
H337 N317 0.862 . S
O338 Co306 1.920 . S
O338 C311 1.289 . S
C339 O331 1.258 . S
C339 O332 1.266 . S
Co340 O343 1.970 . S
Co340 N357 1.989 . S
Co340 O365 1.967 . S
Co340 O372 1.920 . S
Co341 O344 1.966 . S
Co341 N350 2.022 . S
Co341 N358 1.993 . S
Co341 O366 1.941 . S
C342 O343 1.258 . S
C342 O344 1.263 . S
O343 Co340 1.970 . S
O343 C342 1.258 . S
O344 Co341 1.966 . S
O344 C342 1.263 . S
C345 O346 1.235 . S
C345 O372 1.289 . S
O346 C345 1.235 . S
C347 C349 1.400 . S
C347 N350 1.351 . S
C347 C352 1.501 . S
C348 C349 1.387 . S
C348 N351 1.341 . S
C349 C347 1.400 . S
C349 C348 1.387 . S
N350 Co341 2.022 . S
N350 C347 1.351 . S
N350 N351 1.365 . S
N351 C348 1.341 . S
N351 N350 1.365 . S
N351 H371 0.862 . S
C352 C347 1.501 . S
C352 H353 0.961 . S
C352 H354 0.961 . S
C352 H355 0.960 . S
H353 C352 0.961 . S
H354 C352 0.961 . S
H355 C352 0.960 . S
C356 N357 1.342 . S
C356 C360 1.401 . S
C356 C361 1.499 . S
N357 Co340 1.989 . S
N357 C356 1.342 . S
N357 N358 1.388 . S
N358 Co341 1.993 . S
N358 N357 1.388 . S
N358 C359 1.346 . S
C359 N358 1.346 . S
C359 C360 1.396 . S
C359 C369 1.510 . S
C360 C356 1.401 . S
C360 C359 1.396 . S
C361 C356 1.499 . S
C361 H362 0.959 . S
C361 H363 0.960 . S
C361 H364 0.961 . S
H362 C361 0.959 . S
H363 C361 0.960 . S
H364 C361 0.961 . S
O365 Co340 1.967 . S
O365 C373 1.258 . S
O366 Co341 1.941 . S
O366 C373 1.266 . S
H367 C369 0.959 . S
H368 C369 0.961 . S
C369 C359 1.510 . S
C369 H367 0.959 . S
C369 H368 0.961 . S
C369 H370 0.960 . S
H370 C369 0.960 . S
H371 N351 0.862 . S
O372 Co340 1.920 . S
O372 C345 1.289 . S
C373 O365 1.258 . S
C373 O366 1.266 . S
Co374 O377 1.970 . S
Co374 N391 1.989 . S
Co374 O399 1.967 . S
Co374 O406 1.920 . S
Co375 O378 1.966 . S
Co375 N384 2.022 . S
Co375 N392 1.993 . S
Co375 O400 1.941 . S
C376 O377 1.258 . S
C376 O378 1.263 . S
O377 Co374 1.970 . S
O377 C376 1.258 . S
O378 Co375 1.966 . S
O378 C376 1.263 . S
C379 O380 1.235 . S
C379 O406 1.289 . S
O380 C379 1.235 . S
C381 C383 1.400 . S
C381 N384 1.351 . S
C381 C386 1.501 . S
C382 C383 1.387 . S
C382 N385 1.341 . S
C383 C381 1.400 . S
C383 C382 1.387 . S
N384 Co375 2.022 . S
N384 C381 1.351 . S
N384 N385 1.365 . S
N385 C382 1.341 . S
N385 N384 1.365 . S
N385 H405 0.862 . S
C386 C381 1.501 . S
C386 H387 0.961 . S
C386 H388 0.961 . S
C386 H389 0.960 . S
H387 C386 0.961 . S
H388 C386 0.961 . S
H389 C386 0.960 . S
C390 N391 1.342 . S
C390 C394 1.401 . S
C390 C395 1.499 . S
N391 Co374 1.989 . S
N391 C390 1.342 . S
N391 N392 1.388 . S
N392 Co375 1.993 . S
N392 N391 1.388 . S
N392 C393 1.346 . S
C393 N392 1.346 . S
C393 C394 1.396 . S
C393 C403 1.510 . S
C394 C390 1.401 . S
C394 C393 1.396 . S
C395 C390 1.499 . S
C395 H396 0.959 . S
C395 H397 0.960 . S
C395 H398 0.961 . S
H396 C395 0.959 . S
H397 C395 0.960 . S
H398 C395 0.961 . S
O399 Co374 1.967 . S
O399 C407 1.258 . S
O400 Co375 1.941 . S
O400 C407 1.266 . S
H401 C403 0.959 . S
H402 C403 0.961 . S
C403 C393 1.510 . S
C403 H401 0.959 . S
C403 H402 0.961 . S
C403 H404 0.960 . S
H404 C403 0.960 . S
H405 N385 0.862 . S
O406 Co374 1.920 . S
O406 C379 1.289 . S
C407 O399 1.258 . S
C407 O400 1.266 . S
Co408 O411 1.970 . S
Co408 N425 1.989 . S
Co408 O433 1.967 . S
Co408 O440 1.920 . S
Co409 O412 1.966 . S
Co409 N418 2.022 . S
Co409 N426 1.993 . S
Co409 O434 1.941 . S
C410 O411 1.258 . S
C410 O412 1.263 . S
O411 Co408 1.970 . S
O411 C410 1.258 . S
O412 Co409 1.966 . S
O412 C410 1.263 . S
C413 O414 1.235 . S
C413 O440 1.289 . S
O414 C413 1.235 . S
C415 C417 1.400 . S
C415 N418 1.351 . S
C415 C420 1.501 . S
C416 C417 1.387 . S
C416 N419 1.341 . S
C417 C415 1.400 . S
C417 C416 1.387 . S
N418 Co409 2.022 . S
N418 C415 1.351 . S
N418 N419 1.365 . S
N419 C416 1.341 . S
N419 N418 1.365 . S
N419 H439 0.862 . S
C420 C415 1.501 . S
C420 H421 0.961 . S
C420 H422 0.961 . S
C420 H423 0.960 . S
H421 C420 0.961 . S
H422 C420 0.961 . S
H423 C420 0.960 . S
C424 N425 1.342 . S
C424 C428 1.401 . S
C424 C429 1.499 . S
N425 Co408 1.989 . S
N425 C424 1.342 . S
N425 N426 1.388 . S
N426 Co409 1.993 . S
N426 N425 1.388 . S
N426 C427 1.346 . S
C427 N426 1.346 . S
C427 C428 1.396 . S
C427 C437 1.510 . S
C428 C424 1.401 . S
C428 C427 1.396 . S
C429 C424 1.499 . S
C429 H430 0.959 . S
C429 H431 0.960 . S
C429 H432 0.961 . S
H430 C429 0.959 . S
H431 C429 0.960 . S
H432 C429 0.961 . S
O433 Co408 1.967 . S
O433 C441 1.258 . S
O434 Co409 1.941 . S
O434 C441 1.266 . S
H435 C437 0.959 . S
H436 C437 0.961 . S
C437 C427 1.510 . S
C437 H435 0.959 . S
C437 H436 0.961 . S
C437 H438 0.960 . S
H438 C437 0.960 . S
H439 N419 0.862 . S
O440 Co408 1.920 . S
O440 C413 1.289 . S
C441 O433 1.258 . S
C441 O434 1.266 . S
Co442 O445 1.970 . S
Co442 N459 1.989 . S
Co442 O467 1.967 . S
Co442 O474 1.920 . S
Co443 O446 1.966 . S
Co443 N452 2.022 . S
Co443 N460 1.993 . S
Co443 O468 1.941 . S
C444 O445 1.258 . S
C444 O446 1.263 . S
O445 Co442 1.970 . S
O445 C444 1.258 . S
O446 Co443 1.966 . S
O446 C444 1.263 . S
C447 O448 1.235 . S
C447 O474 1.289 . S
O448 C447 1.235 . S
C449 C451 1.400 . S
C449 N452 1.351 . S
C449 C454 1.501 . S
C450 C451 1.387 . S
C450 N453 1.341 . S
C451 C449 1.400 . S
C451 C450 1.387 . S
N452 Co443 2.022 . S
N452 C449 1.351 . S
N452 N453 1.365 . S
N453 C450 1.341 . S
N453 N452 1.365 . S
N453 H473 0.862 . S
C454 C449 1.501 . S
C454 H455 0.961 . S
C454 H456 0.961 . S
C454 H457 0.960 . S
H455 C454 0.961 . S
H456 C454 0.961 . S
H457 C454 0.960 . S
C458 N459 1.342 . S
C458 C462 1.401 . S
C458 C463 1.499 . S
N459 Co442 1.989 . S
N459 C458 1.342 . S
N459 N460 1.388 . S
N460 Co443 1.993 . S
N460 N459 1.388 . S
N460 C461 1.346 . S
C461 N460 1.346 . S
C461 C462 1.396 . S
C461 C471 1.510 . S
C462 C458 1.401 . S
C462 C461 1.396 . S
C463 C458 1.499 . S
C463 H464 0.959 . S
C463 H465 0.960 . S
C463 H466 0.961 . S
H464 C463 0.959 . S
H465 C463 0.960 . S
H466 C463 0.961 . S
O467 Co442 1.967 . S
O467 C475 1.258 . S
O468 Co443 1.941 . S
O468 C475 1.266 . S
H469 C471 0.959 . S
H470 C471 0.961 . S
C471 C461 1.510 . S
C471 H469 0.959 . S
C471 H470 0.961 . S
C471 H472 0.960 . S
H472 C471 0.960 . S
H473 N453 0.862 . S
O474 Co442 1.920 . S
O474 C447 1.289 . S
C475 O467 1.258 . S
C475 O468 1.266 . S
Co476 O479 1.970 . S
Co476 N493 1.989 . S
Co476 O501 1.967 . S
Co476 O508 1.920 . S
Co477 O480 1.966 . S
Co477 N486 2.022 1_554 S
Co477 N494 1.993 . S
Co477 O502 1.941 . S
C478 O479 1.258 . S
C478 O480 1.263 . S
O479 Co476 1.970 . S
O479 C478 1.258 . S
O480 Co477 1.966 . S
O480 C478 1.263 . S
C481 O482 1.235 . S
C481 O508 1.289 . S
O482 C481 1.235 . S
C483 C485 1.400 . S
C483 N486 1.351 . S
C483 C488 1.501 . S
C484 C485 1.387 . S
C484 N487 1.341 . S
C485 C483 1.400 . S
C485 C484 1.387 . S
N486 Co477 2.022 1_556 S
N486 C483 1.351 . S
N486 N487 1.365 . S
N487 C484 1.341 . S
N487 N486 1.365 . S
N487 H507 0.862 . S
C488 C483 1.501 . S
C488 H489 0.961 1_556 S
C488 H490 0.961 . S
C488 H491 0.961 . S
H489 C488 0.961 1_554 S
H490 C488 0.961 . S
H491 C488 0.961 . S
C492 N493 1.342 . S
C492 C496 1.401 1_554 S
C492 C497 1.499 . S
N493 Co476 1.989 . S
N493 C492 1.342 . S
N493 N494 1.388 . S
N494 Co477 1.993 . S
N494 N493 1.388 . S
N494 C495 1.346 1_554 S
C495 N494 1.346 1_556 S
C495 C496 1.396 . S
C495 C505 1.510 . S
C496 C492 1.401 1_556 S
C496 C495 1.396 . S
C497 C492 1.499 . S
C497 H498 0.959 . S
C497 H499 0.960 . S
C497 H500 0.961 . S
H498 C497 0.959 . S
H499 C497 0.960 . S
H500 C497 0.961 . S
O501 Co476 1.967 . S
O501 C509 1.258 . S
O502 Co477 1.941 . S
O502 C509 1.266 . S
H503 C505 0.959 . S
H504 C505 0.961 . S
C505 C495 1.510 . S
C505 H503 0.959 . S
C505 H504 0.961 . S
C505 H506 0.960 . S
H506 C505 0.960 . S
H507 N487 0.862 . S
O508 Co476 1.920 . S
O508 C481 1.289 . S
C509 O501 1.258 . S
C509 O502 1.266 . S
Co510 O513 1.970 . S
Co510 N527 1.989 . S
Co510 O535 1.967 . S
Co510 O542 1.920 . S
Co511 O514 1.966 . S
Co511 N520 2.022 . S
Co511 N528 1.993 . S
Co511 O536 1.941 . S
C512 O513 1.258 . S
C512 O514 1.263 . S
O513 Co510 1.970 . S
O513 C512 1.258 . S
O514 Co511 1.966 . S
O514 C512 1.263 . S
C515 O516 1.235 . S
C515 O542 1.289 . S
O516 C515 1.235 . S
C517 C519 1.400 . S
C517 N520 1.351 . S
C517 C522 1.501 . S
C518 C519 1.387 . S
C518 N521 1.341 . S
C519 C517 1.400 . S
C519 C518 1.387 . S
N520 Co511 2.022 . S
N520 C517 1.351 . S
N520 N521 1.365 . S
N521 C518 1.341 . S
N521 N520 1.365 . S
N521 H541 0.862 . S
C522 C517 1.501 . S
C522 H523 0.961 . S
C522 H524 0.961 . S
C522 H525 0.960 . S
H523 C522 0.961 . S
H524 C522 0.961 . S
H525 C522 0.960 . S
C526 N527 1.342 . S
C526 C530 1.401 . S
C526 C531 1.499 . S
N527 Co510 1.989 . S
N527 C526 1.342 . S
N527 N528 1.388 . S
N528 Co511 1.993 . S
N528 N527 1.388 . S
N528 C529 1.346 . S
C529 N528 1.346 . S
C529 C530 1.396 . S
C529 C539 1.510 . S
C530 C526 1.401 . S
C530 C529 1.396 . S
C531 C526 1.499 . S
C531 H532 0.959 . S
C531 H533 0.960 . S
C531 H534 0.961 . S
H532 C531 0.959 . S
H533 C531 0.960 . S
H534 C531 0.961 . S
O535 Co510 1.967 . S
O535 C543 1.258 . S
O536 Co511 1.941 . S
O536 C543 1.266 . S
H537 C539 0.959 . S
H538 C539 0.961 . S
C539 C529 1.510 . S
C539 H537 0.959 . S
C539 H538 0.961 . S
C539 H540 0.960 . S
H540 C539 0.960 . S
H541 N521 0.862 . S
O542 Co510 1.920 . S
O542 C515 1.289 . S
C543 O535 1.258 . S
C543 O536 1.266 . S
Co544 O547 1.970 . S
Co544 N561 1.989 . S
Co544 O569 1.967 . S
Co544 O576 1.920 . S
Co545 O548 1.966 . S
Co545 N554 2.022 . S
Co545 N562 1.993 . S
Co545 O570 1.941 . S
C546 O547 1.258 . S
C546 O548 1.263 . S
O547 Co544 1.970 . S
O547 C546 1.258 . S
O548 Co545 1.966 . S
O548 C546 1.263 . S
C549 O550 1.235 . S
C549 O576 1.289 . S
O550 C549 1.235 . S
C551 C553 1.400 . S
C551 N554 1.351 . S
C551 C556 1.501 . S
C552 C553 1.387 . S
C552 N555 1.341 . S
C553 C551 1.400 . S
C553 C552 1.387 . S
N554 Co545 2.022 . S
N554 C551 1.351 . S
N554 N555 1.365 . S
N555 C552 1.341 . S
N555 N554 1.365 . S
N555 H575 0.862 . S
C556 C551 1.501 . S
C556 H557 0.961 . S
C556 H558 0.961 . S
C556 H559 0.960 . S
H557 C556 0.961 . S
H558 C556 0.961 . S
H559 C556 0.960 . S
C560 N561 1.342 . S
C560 C564 1.401 . S
C560 C565 1.499 . S
N561 Co544 1.989 . S
N561 C560 1.342 . S
N561 N562 1.388 . S
N562 Co545 1.993 . S
N562 N561 1.388 . S
N562 C563 1.346 . S
C563 N562 1.346 . S
C563 C564 1.396 . S
C563 C573 1.510 . S
C564 C560 1.401 . S
C564 C563 1.396 . S
C565 C560 1.499 . S
C565 H566 0.959 . S
C565 H567 0.960 . S
C565 H568 0.961 . S
H566 C565 0.959 . S
H567 C565 0.960 . S
H568 C565 0.961 . S
O569 Co544 1.967 . S
O569 C577 1.258 . S
O570 Co545 1.941 . S
O570 C577 1.266 . S
H571 C573 0.959 . S
H572 C573 0.961 . S
C573 C563 1.510 . S
C573 H571 0.959 . S
C573 H572 0.961 . S
C573 H574 0.960 . S
H574 C573 0.960 . S
H575 N555 0.862 . S
O576 Co544 1.920 . S
O576 C549 1.289 . S
C577 O569 1.258 . S
C577 O570 1.266 . S
Co578 O581 1.970 . S
Co578 N595 1.989 . S
Co578 O603 1.967 . S
Co578 O610 1.920 . S
Co579 O582 1.966 . S
Co579 N588 2.022 . S
Co579 N596 1.993 . S
Co579 O604 1.941 . S
C580 O581 1.258 . S
C580 O582 1.263 . S
O581 Co578 1.970 . S
O581 C580 1.258 . S
O582 Co579 1.966 . S
O582 C580 1.263 . S
C583 O584 1.235 . S
C583 O610 1.289 . S
O584 C583 1.235 . S
C585 C587 1.400 . S
C585 N588 1.351 . S
C585 C590 1.501 . S
C586 C587 1.387 . S
C586 N589 1.341 . S
C587 C585 1.400 . S
C587 C586 1.387 . S
N588 Co579 2.022 . S
N588 C585 1.351 . S
N588 N589 1.365 . S
N589 C586 1.341 . S
N589 N588 1.365 . S
N589 H609 0.862 . S
C590 C585 1.501 . S
C590 H591 0.961 . S
C590 H592 0.961 . S
C590 H593 0.960 . S
H591 C590 0.961 . S
H592 C590 0.961 . S
H593 C590 0.960 . S
C594 N595 1.342 . S
C594 C598 1.401 . S
C594 C599 1.499 . S
N595 Co578 1.989 . S
N595 C594 1.342 . S
N595 N596 1.388 . S
N596 Co579 1.993 . S
N596 N595 1.388 . S
N596 C597 1.346 . S
C597 N596 1.346 . S
C597 C598 1.396 . S
C597 C607 1.510 . S
C598 C594 1.401 . S
C598 C597 1.396 . S
C599 C594 1.499 . S
C599 H600 0.959 . S
C599 H601 0.960 . S
C599 H602 0.961 . S
H600 C599 0.959 . S
H601 C599 0.960 . S
H602 C599 0.961 . S
O603 Co578 1.967 . S
O603 C611 1.258 . S
O604 Co579 1.941 . S
O604 C611 1.266 . S
H605 C607 0.959 . S
H606 C607 0.961 . S
C607 C597 1.510 . S
C607 H605 0.959 . S
C607 H606 0.961 . S
C607 H608 0.960 . S
H608 C607 0.960 . S
H609 N589 0.862 . S
O610 Co578 1.920 . S
O610 C583 1.289 . S
C611 O603 1.258 . S
C611 O604 1.266 . S
Co612 O615 1.970 . S
Co612 N629 1.989 . S
Co612 O637 1.967 . S
Co612 O644 1.920 . S
Co613 O616 1.966 . S
Co613 N622 2.022 1_554 S
Co613 N630 1.993 . S
Co613 O638 1.941 . S
C614 O615 1.258 . S
C614 O616 1.263 . S
O615 Co612 1.970 . S
O615 C614 1.258 . S
O616 Co613 1.966 . S
O616 C614 1.263 . S
C617 O618 1.235 . S
C617 O644 1.289 . S
O618 C617 1.235 . S
C619 C621 1.400 . S
C619 N622 1.351 . S
C619 C624 1.503 . S
C620 C621 1.387 . S
C620 N623 1.341 . S
C621 C619 1.400 . S
C621 C620 1.387 . S
N622 Co613 2.022 1_556 S
N622 C619 1.351 . S
N622 N623 1.365 . S
N623 C620 1.341 . S
N623 N622 1.365 . S
N623 H643 0.862 . S
C624 C619 1.503 . S
C624 H625 0.958 1_556 S
C624 H626 0.962 . S
C624 H627 0.960 1_556 S
H625 C624 0.958 1_554 S
H626 C624 0.962 . S
H627 C624 0.960 1_554 S
C628 N629 1.342 . S
C628 C632 1.401 1_554 S
C628 C633 1.499 . S
N629 Co612 1.989 . S
N629 C628 1.342 . S
N629 N630 1.388 . S
N630 Co613 1.993 . S
N630 N629 1.388 . S
N630 C631 1.346 1_554 S
C631 N630 1.346 1_556 S
C631 C632 1.396 . S
C631 C641 1.510 . S
C632 C628 1.401 1_556 S
C632 C631 1.396 . S
C633 C628 1.499 . S
C633 H634 0.959 . S
C633 H635 0.960 . S
C633 H636 0.961 . S
H634 C633 0.959 . S
H635 C633 0.960 . S
H636 C633 0.961 . S
O637 Co612 1.967 . S
O637 C645 1.258 . S
O638 Co613 1.941 . S
O638 C645 1.266 . S
H639 C641 0.959 . S
H640 C641 0.961 . S
C641 C631 1.510 . S
C641 H639 0.959 . S
C641 H640 0.961 . S
C641 H642 0.960 . S
H642 C641 0.960 . S
H643 N623 0.862 . S
O644 Co612 1.920 . S
O644 C617 1.289 . S
C645 O637 1.258 . S
C645 O638 1.266 . S
Co646 O649 1.970 . S
Co646 N663 1.989 . S
Co646 O671 1.967 . S
Co646 O678 1.920 . S
Co647 O650 1.966 . S
Co647 N656 2.022 . S
Co647 N664 1.993 . S
Co647 O672 1.941 . S
C648 O649 1.258 . S
C648 O650 1.263 . S
O649 Co646 1.970 . S
O649 C648 1.258 . S
O650 Co647 1.966 . S
O650 C648 1.263 . S
C651 O652 1.235 . S
C651 O678 1.289 . S
O652 C651 1.235 . S
C653 C655 1.400 . S
C653 N656 1.351 . S
C653 C658 1.501 . S
C654 C655 1.387 . S
C654 N657 1.341 . S
C655 C653 1.400 . S
C655 C654 1.387 . S
N656 Co647 2.022 . S
N656 C653 1.351 . S
N656 N657 1.365 . S
N657 C654 1.341 . S
N657 N656 1.365 . S
N657 H677 0.862 . S
C658 C653 1.501 . S
C658 H659 0.961 . S
C658 H660 0.961 . S
C658 H661 0.960 . S
H659 C658 0.961 . S
H660 C658 0.961 . S
H661 C658 0.960 . S
C662 N663 1.342 . S
C662 C666 1.401 . S
C662 C667 1.499 . S
N663 Co646 1.989 . S
N663 C662 1.342 . S
N663 N664 1.388 . S
N664 Co647 1.993 . S
N664 N663 1.388 . S
N664 C665 1.346 . S
C665 N664 1.346 . S
C665 C666 1.396 . S
C665 C675 1.510 . S
C666 C662 1.401 . S
C666 C665 1.396 . S
C667 C662 1.499 . S
C667 H668 0.959 . S
C667 H669 0.960 . S
C667 H670 0.961 . S
H668 C667 0.959 . S
H669 C667 0.960 . S
H670 C667 0.961 . S
O671 Co646 1.967 . S
O671 C679 1.258 . S
O672 Co647 1.941 . S
O672 C679 1.266 . S
H673 C675 0.959 . S
H674 C675 0.961 . S
C675 C665 1.510 . S
C675 H673 0.959 . S
C675 H674 0.961 . S
C675 H676 0.960 . S
H676 C675 0.960 . S
H677 N657 0.862 . S
O678 Co646 1.920 . S
O678 C651 1.289 . S
C679 O671 1.258 . S
C679 O672 1.266 . S
Co680 O683 1.970 . S
Co680 N697 1.989 1_556 S
Co680 O705 1.967 . S
Co680 O712 1.920 . S
Co681 O684 1.966 . S
Co681 N690 2.022 . S
Co681 N698 1.993 . S
Co681 O706 1.941 . S
C682 O683 1.258 . S
C682 O684 1.263 1_556 S
O683 Co680 1.970 . S
O683 C682 1.258 . S
O684 Co681 1.966 . S
O684 C682 1.263 1_554 S
C685 O686 1.235 . S
C685 O712 1.289 . S
O686 C685 1.235 . S
C687 C689 1.400 . S
C687 N690 1.351 . S
C687 C692 1.501 . S
C688 C689 1.387 . S
C688 N691 1.341 . S
C689 C687 1.400 . S
C689 C688 1.387 . S
N690 Co681 2.022 . S
N690 C687 1.351 . S
N690 N691 1.365 . S
N691 C688 1.341 . S
N691 N690 1.365 . S
N691 H711 0.862 . S
C692 C687 1.501 . S
C692 H693 0.961 . S
C692 H694 0.961 . S
C692 H695 0.960 . S
H693 C692 0.961 . S
H694 C692 0.961 . S
H695 C692 0.960 . S
C696 N697 1.342 . S
C696 C700 1.401 . S
C696 C701 1.499 . S
N697 Co680 1.989 1_554 S
N697 C696 1.342 . S
N697 N698 1.388 . S
N698 Co681 1.993 . S
N698 N697 1.388 . S
N698 C699 1.346 . S
C699 N698 1.346 . S
C699 C700 1.396 . S
C699 C709 1.510 . S
C700 C696 1.401 . S
C700 C699 1.396 . S
C701 C696 1.499 . S
C701 H702 0.959 . S
C701 H703 0.960 . S
C701 H704 0.961 . S
H702 C701 0.959 . S
H703 C701 0.960 . S
H704 C701 0.961 . S
O705 Co680 1.967 . S
O705 C713 1.256 1_556 S
O706 Co681 1.941 . S
O706 C713 1.269 . S
H707 C709 0.959 . S
H708 C709 0.961 . S
C709 C699 1.510 . S
C709 H707 0.959 . S
C709 H708 0.961 . S
C709 H710 0.960 . S
H710 C709 0.960 . S
H711 N691 0.862 . S
O712 Co680 1.920 . S
O712 C685 1.289 . S
C713 O705 1.256 1_554 S
C713 O706 1.269 . S
Co714 O717 1.970 . S
Co714 N731 1.989 . S
Co714 O739 1.967 . S
Co714 O746 1.920 . S
Co715 O718 1.966 . S
Co715 N724 2.022 . S
Co715 N732 1.993 . S
Co715 O740 1.941 . S
C716 O717 1.258 . S
C716 O718 1.263 . S
O717 Co714 1.970 . S
O717 C716 1.258 . S
O718 Co715 1.966 . S
O718 C716 1.263 . S
C719 O720 1.235 . S
C719 O746 1.289 . S
O720 C719 1.235 . S
C721 C723 1.400 . S
C721 N724 1.351 . S
C721 C726 1.501 . S
C722 C723 1.387 . S
C722 N725 1.341 . S
C723 C721 1.400 . S
C723 C722 1.387 . S
N724 Co715 2.022 . S
N724 C721 1.351 . S
N724 N725 1.365 . S
N725 C722 1.341 . S
N725 N724 1.365 . S
N725 H745 0.862 . S
C726 C721 1.501 . S
C726 H727 0.961 . S
C726 H728 0.961 . S
C726 H729 0.960 . S
H727 C726 0.961 . S
H728 C726 0.961 . S
H729 C726 0.960 . S
C730 N731 1.342 . S
C730 C734 1.401 . S
C730 C735 1.499 . S
N731 Co714 1.989 . S
N731 C730 1.342 . S
N731 N732 1.388 . S
N732 Co715 1.993 . S
N732 N731 1.388 . S
N732 C733 1.346 . S
C733 N732 1.346 . S
C733 C734 1.396 . S
C733 C743 1.510 . S
C734 C730 1.401 . S
C734 C733 1.396 . S
C735 C730 1.499 . S
C735 H736 0.959 . S
C735 H737 0.960 . S
C735 H738 0.961 . S
H736 C735 0.959 . S
H737 C735 0.960 . S
H738 C735 0.961 . S
O739 Co714 1.967 . S
O739 C747 1.258 . S
O740 Co715 1.941 . S
O740 C747 1.266 . S
H741 C743 0.959 . S
H742 C743 0.961 . S
C743 C733 1.510 . S
C743 H741 0.959 . S
C743 H742 0.961 . S
C743 H744 0.960 . S
H744 C743 0.960 . S
H745 N725 0.862 . S
O746 Co714 1.920 . S
O746 C719 1.289 . S
C747 O739 1.258 . S
C747 O740 1.266 . S
Co748 O751 1.970 . S
Co748 N765 1.989 . S
Co748 O773 1.967 . S
Co748 O780 1.920 . S
Co749 O752 1.966 . S
Co749 N758 2.022 . S
Co749 N766 1.993 . S
Co749 O774 1.941 . S
C750 O751 1.258 . S
C750 O752 1.263 . S
O751 Co748 1.970 . S
O751 C750 1.258 . S
O752 Co749 1.966 . S
O752 C750 1.263 . S
C753 O754 1.235 . S
C753 O780 1.289 . S
O754 C753 1.235 . S
C755 C757 1.400 . S
C755 N758 1.351 . S
C755 C760 1.501 . S
C756 C757 1.387 . S
C756 N759 1.341 . S
C757 C755 1.400 . S
C757 C756 1.387 . S
N758 Co749 2.022 . S
N758 C755 1.351 . S
N758 N759 1.365 . S
N759 C756 1.341 . S
N759 N758 1.365 . S
N759 H779 0.862 . S
C760 C755 1.501 . S
C760 H761 0.961 . S
C760 H762 0.961 . S
C760 H763 0.960 . S
H761 C760 0.961 . S
H762 C760 0.961 . S
H763 C760 0.960 . S
C764 N765 1.342 . S
C764 C768 1.401 . S
C764 C769 1.499 . S
N765 Co748 1.989 . S
N765 C764 1.342 . S
N765 N766 1.388 . S
N766 Co749 1.993 . S
N766 N765 1.388 . S
N766 C767 1.346 . S
C767 N766 1.346 . S
C767 C768 1.396 . S
C767 C777 1.510 . S
C768 C764 1.401 . S
C768 C767 1.396 . S
C769 C764 1.499 . S
C769 H770 0.959 . S
C769 H771 0.960 . S
C769 H772 0.961 . S
H770 C769 0.959 . S
H771 C769 0.960 . S
H772 C769 0.961 . S
O773 Co748 1.967 . S
O773 C781 1.258 . S
O774 Co749 1.941 . S
O774 C781 1.266 . S
H775 C777 0.959 . S
H776 C777 0.961 . S
C777 C767 1.510 . S
C777 H775 0.959 . S
C777 H776 0.961 . S
C777 H778 0.960 . S
H778 C777 0.960 . S
H779 N759 0.862 . S
O780 Co748 1.920 . S
O780 C753 1.289 . S
C781 O773 1.258 . S
C781 O774 1.266 . S
Co782 O785 1.970 . S
Co782 N799 1.989 . S
Co782 O807 1.967 . S
Co782 O814 1.920 . S
Co783 O786 1.966 . S
Co783 N792 2.022 . S
Co783 N800 1.993 . S
Co783 O808 1.941 . S
C784 O785 1.258 . S
C784 O786 1.263 . S
O785 Co782 1.970 . S
O785 C784 1.258 . S
O786 Co783 1.966 . S
O786 C784 1.263 . S
C787 O788 1.235 . S
C787 O814 1.289 . S
O788 C787 1.235 . S
C789 C791 1.400 . S
C789 N792 1.351 . S
C789 C794 1.501 . S
C790 C791 1.387 . S
C790 N793 1.341 . S
C791 C789 1.400 . S
C791 C790 1.387 . S
N792 Co783 2.022 . S
N792 C789 1.351 . S
N792 N793 1.365 . S
N793 C790 1.341 . S
N793 N792 1.365 . S
N793 H813 0.862 . S
C794 C789 1.501 . S
C794 H795 0.961 . S
C794 H796 0.961 . S
C794 H797 0.960 . S
H795 C794 0.961 . S
H796 C794 0.961 . S
H797 C794 0.960 . S
C798 N799 1.342 . S
C798 C802 1.401 . S
C798 C803 1.499 . S
N799 Co782 1.989 . S
N799 C798 1.342 . S
N799 N800 1.388 . S
N800 Co783 1.993 . S
N800 N799 1.388 . S
N800 C801 1.346 . S
C801 N800 1.346 . S
C801 C802 1.396 . S
C801 C811 1.510 . S
C802 C798 1.401 . S
C802 C801 1.396 . S
C803 C798 1.499 . S
C803 H804 0.959 . S
C803 H805 0.960 . S
C803 H806 0.961 . S
H804 C803 0.959 . S
H805 C803 0.960 . S
H806 C803 0.961 . S
O807 Co782 1.967 . S
O807 C815 1.258 . S
O808 Co783 1.941 . S
O808 C815 1.266 . S
H809 C811 0.959 . S
H810 C811 0.961 . S
C811 C801 1.510 . S
C811 H809 0.959 . S
C811 H810 0.961 . S
C811 H812 0.960 . S
H812 C811 0.960 . S
H813 N793 0.862 . S
O814 Co782 1.920 . S
O814 C787 1.289 . S
C815 O807 1.258 . S
C815 O808 1.266 . S
Co816 O819 1.970 . S
Co816 N833 1.989 . S
Co816 O841 1.967 . S
Co816 O848 1.920 . S
Co817 O820 1.966 . S
Co817 N826 2.022 . S
Co817 N834 1.993 . S
Co817 O842 1.941 . S
C818 O819 1.258 . S
C818 O820 1.263 . S
O819 Co816 1.970 . S
O819 C818 1.258 . S
O820 Co817 1.966 . S
O820 C818 1.263 . S
C821 O822 1.235 . S
C821 O848 1.289 . S
O822 C821 1.235 . S
C823 C825 1.400 . S
C823 N826 1.351 . S
C823 C828 1.501 . S
C824 C825 1.387 . S
C824 N827 1.341 . S
C825 C823 1.400 . S
C825 C824 1.387 . S
N826 Co817 2.022 . S
N826 C823 1.351 . S
N826 N827 1.365 . S
N827 C824 1.341 . S
N827 N826 1.365 . S
N827 H847 0.862 . S
C828 C823 1.501 . S
C828 H829 0.961 . S
C828 H830 0.961 . S
C828 H831 0.960 . S
H829 C828 0.961 . S
H830 C828 0.961 . S
H831 C828 0.960 . S
C832 N833 1.342 . S
C832 C836 1.401 . S
C832 C837 1.499 . S
N833 Co816 1.989 . S
N833 C832 1.342 . S
N833 N834 1.388 . S
N834 Co817 1.993 . S
N834 N833 1.388 . S
N834 C835 1.346 . S
C835 N834 1.346 . S
C835 C836 1.396 . S
C835 C845 1.510 . S
C836 C832 1.401 . S
C836 C835 1.396 . S
C837 C832 1.499 . S
C837 H838 0.959 . S
C837 H839 0.960 . S
C837 H840 0.961 . S
H838 C837 0.959 . S
H839 C837 0.960 . S
H840 C837 0.961 . S
O841 Co816 1.967 . S
O841 C849 1.258 . S
O842 Co817 1.941 . S
O842 C849 1.266 . S
H843 C845 0.959 . S
H844 C845 0.961 . S
C845 C835 1.510 . S
C845 H843 0.959 . S
C845 H844 0.961 . S
C845 H846 0.960 . S
H846 C845 0.960 . S
H847 N827 0.862 . S
O848 Co816 1.920 . S
O848 C821 1.289 . S
C849 O841 1.258 . S
C849 O842 1.266 . S
Co850 O853 1.970 . S
Co850 N867 1.989 . S
Co850 O875 1.967 . S
Co850 O882 1.920 . S
Co851 O854 1.966 . S
Co851 N860 2.022 . S
Co851 N868 1.993 . S
Co851 O876 1.941 . S
C852 O853 1.258 . S
C852 O854 1.263 . S
O853 Co850 1.970 . S
O853 C852 1.258 . S
O854 Co851 1.966 . S
O854 C852 1.263 . S
C855 O856 1.235 . S
C855 O882 1.289 . S
O856 C855 1.235 . S
C857 C859 1.400 . S
C857 N860 1.351 . S
C857 C862 1.501 . S
C858 C859 1.387 . S
C858 N861 1.341 . S
C859 C857 1.400 . S
C859 C858 1.387 . S
N860 Co851 2.022 . S
N860 C857 1.351 . S
N860 N861 1.365 . S
N861 C858 1.341 . S
N861 N860 1.365 . S
N861 H881 0.862 . S
C862 C857 1.501 . S
C862 H863 0.961 . S
C862 H864 0.961 . S
C862 H865 0.960 . S
H863 C862 0.961 . S
H864 C862 0.961 . S
H865 C862 0.960 . S
C866 N867 1.342 . S
C866 C870 1.401 . S
C866 C871 1.499 . S
N867 Co850 1.989 . S
N867 C866 1.342 . S
N867 N868 1.388 . S
N868 Co851 1.993 . S
N868 N867 1.388 . S
N868 C869 1.346 . S
C869 N868 1.346 . S
C869 C870 1.396 . S
C869 C879 1.510 . S
C870 C866 1.401 . S
C870 C869 1.396 . S
C871 C866 1.499 . S
C871 H872 0.959 . S
C871 H873 0.960 . S
C871 H874 0.961 . S
H872 C871 0.959 . S
H873 C871 0.960 . S
H874 C871 0.961 . S
O875 Co850 1.967 . S
O875 C883 1.258 . S
O876 Co851 1.941 . S
O876 C883 1.266 . S
H877 C879 0.959 . S
H878 C879 0.961 . S
C879 C869 1.510 . S
C879 H877 0.959 . S
C879 H878 0.961 . S
C879 H880 0.960 . S
H880 C879 0.960 . S
H881 N861 0.862 . S
O882 Co850 1.920 . S
O882 C855 1.289 . S
C883 O875 1.258 . S
C883 O876 1.266 . S
Co884 O887 1.970 . S
Co884 N901 1.989 1_556 S
Co884 O909 1.967 . S
Co884 O916 1.920 . S
Co885 O888 1.966 . S
Co885 N894 2.022 . S
Co885 N902 1.993 . S
Co885 O910 1.941 . S
C886 O887 1.258 . S
C886 O888 1.263 1_556 S
O887 Co884 1.970 . S
O887 C886 1.258 . S
O888 Co885 1.966 . S
O888 C886 1.263 1_554 S
C889 O890 1.235 . S
C889 O916 1.289 . S
O890 C889 1.235 . S
C891 C893 1.400 . S
C891 N894 1.351 . S
C891 C896 1.501 . S
C892 C893 1.387 . S
C892 N895 1.341 . S
C893 C891 1.400 . S
C893 C892 1.387 . S
N894 Co885 2.022 . S
N894 C891 1.351 . S
N894 N895 1.365 . S
N895 C892 1.341 . S
N895 N894 1.365 . S
N895 H915 0.862 . S
C896 C891 1.501 . S
C896 H897 0.961 . S
C896 H898 0.961 . S
C896 H899 0.960 . S
H897 C896 0.961 . S
H898 C896 0.961 . S
H899 C896 0.960 . S
C900 N901 1.342 . S
C900 C904 1.401 . S
C900 C905 1.499 . S
N901 Co884 1.989 1_554 S
N901 C900 1.342 . S
N901 N902 1.388 . S
N902 Co885 1.993 . S
N902 N901 1.388 . S
N902 C903 1.346 . S
C903 N902 1.346 . S
C903 C904 1.396 . S
C903 C913 1.510 . S
C904 C900 1.401 . S
C904 C903 1.396 . S
C905 C900 1.499 . S
C905 H906 0.959 . S
C905 H907 0.960 . S
C905 H908 0.961 . S
H906 C905 0.959 . S
H907 C905 0.960 . S
H908 C905 0.961 . S
O909 Co884 1.967 . S
O909 C917 1.256 1_556 S
O910 Co885 1.941 . S
O910 C917 1.270 . S
H911 C913 0.959 . S
H912 C913 0.961 . S
C913 C903 1.510 . S
C913 H911 0.959 . S
C913 H912 0.961 . S
C913 H914 0.960 . S
H914 C913 0.960 . S
H915 N895 0.862 . S
O916 Co884 1.920 . S
O916 C889 1.289 . S
C917 O909 1.256 1_554 S
C917 O910 1.270 . S
Co918 O921 1.970 . S
Co918 N935 1.989 . S
Co918 O943 1.967 . S
Co918 O950 1.920 . S
Co919 O922 1.966 . S
Co919 N928 2.022 . S
Co919 N936 1.993 . S
Co919 O944 1.941 . S
C920 O921 1.258 . S
C920 O922 1.263 . S
O921 Co918 1.970 . S
O921 C920 1.258 . S
O922 Co919 1.966 . S
O922 C920 1.263 . S
C923 O924 1.235 . S
C923 O950 1.289 . S
O924 C923 1.235 . S
C925 C927 1.400 . S
C925 N928 1.351 . S
C925 C930 1.501 . S
C926 C927 1.387 . S
C926 N929 1.341 . S
C927 C925 1.400 . S
C927 C926 1.387 . S
N928 Co919 2.022 . S
N928 C925 1.351 . S
N928 N929 1.365 . S
N929 C926 1.341 . S
N929 N928 1.365 . S
N929 H949 0.862 . S
C930 C925 1.501 . S
C930 H931 0.961 . S
C930 H932 0.961 . S
C930 H933 0.960 . S
H931 C930 0.961 . S
H932 C930 0.961 . S
H933 C930 0.960 . S
C934 N935 1.342 . S
C934 C938 1.401 . S
C934 C939 1.499 . S
N935 Co918 1.989 . S
N935 C934 1.342 . S
N935 N936 1.388 . S
N936 Co919 1.993 . S
N936 N935 1.388 . S
N936 C937 1.346 . S
C937 N936 1.346 . S
C937 C938 1.396 . S
C937 C947 1.510 . S
C938 C934 1.401 . S
C938 C937 1.396 . S
C939 C934 1.499 . S
C939 H940 0.959 . S
C939 H941 0.960 . S
C939 H942 0.961 . S
H940 C939 0.959 . S
H941 C939 0.960 . S
H942 C939 0.961 . S
O943 Co918 1.967 . S
O943 C951 1.258 . S
O944 Co919 1.941 . S
O944 C951 1.266 . S
H945 C947 0.959 . S
H946 C947 0.961 . S
C947 C937 1.510 . S
C947 H945 0.959 . S
C947 H946 0.961 . S
C947 H948 0.960 . S
H948 C947 0.960 . S
H949 N929 0.862 . S
O950 Co918 1.920 . S
O950 C923 1.289 . S
C951 O943 1.258 . S
C951 O944 1.266 . S
Co952 O955 1.970 . S
Co952 N969 1.989 . S
Co952 O977 1.967 . S
Co952 O984 1.920 . S
Co953 O956 1.966 . S
Co953 N962 2.022 1_554 S
Co953 N970 1.993 . S
Co953 O978 1.941 . S
C954 O955 1.258 . S
C954 O956 1.263 . S
O955 Co952 1.970 . S
O955 C954 1.258 . S
O956 Co953 1.966 . S
O956 C954 1.263 . S
C957 O958 1.235 . S
C957 O984 1.289 . S
O958 C957 1.235 . S
C959 C961 1.400 . S
C959 N962 1.351 . S
C959 C964 1.501 . S
C960 C961 1.387 . S
C960 N963 1.341 . S
C961 C959 1.400 . S
C961 C960 1.387 . S
N962 Co953 2.022 1_556 S
N962 C959 1.351 . S
N962 N963 1.365 . S
N963 C960 1.341 . S
N963 N962 1.365 . S
N963 H983 0.862 . S
C964 C959 1.501 . S
C964 H965 0.961 1_556 S
C964 H966 0.961 . S
C964 H967 0.961 . S
H965 C964 0.961 1_554 S
H966 C964 0.961 . S
H967 C964 0.961 . S
C968 N969 1.342 . S
C968 C972 1.401 1_554 S
C968 C973 1.499 . S
N969 Co952 1.989 . S
N969 C968 1.342 . S
N969 N970 1.388 . S
N970 Co953 1.993 . S
N970 N969 1.388 . S
N970 C971 1.346 1_554 S
C971 N970 1.346 1_556 S
C971 C972 1.396 . S
C971 C981 1.510 . S
C972 C968 1.401 1_556 S
C972 C971 1.396 . S
C973 C968 1.499 . S
C973 H974 0.959 . S
C973 H975 0.960 . S
C973 H976 0.961 . S
H974 C973 0.959 . S
H975 C973 0.960 . S
H976 C973 0.961 . S
O977 Co952 1.967 . S
O977 C985 1.258 . S
O978 Co953 1.941 . S
O978 C985 1.266 . S
H979 C981 0.959 . S
H980 C981 0.961 . S
C981 C971 1.510 . S
C981 H979 0.959 . S
C981 H980 0.961 . S
C981 H982 0.960 . S
H982 C981 0.960 . S
H983 N963 0.862 . S
O984 Co952 1.920 . S
O984 C957 1.289 . S
C985 O977 1.258 . S
C985 O978 1.266 . S
Co986 O989 1.970 . S
Co986 N1003 1.989 . S
Co986 O1011 1.967 . S
Co986 O1018 1.920 . S
Co987 O990 1.966 . S
Co987 N996 2.022 . S
Co987 N1004 1.993 . S
Co987 O1012 1.941 . S
C988 O989 1.258 . S
C988 O990 1.263 . S
O989 Co986 1.970 . S
O989 C988 1.258 . S
O990 Co987 1.966 . S
O990 C988 1.263 . S
C991 O992 1.235 . S
C991 O1018 1.289 . S
O992 C991 1.235 . S
C993 C995 1.400 . S
C993 N996 1.351 . S
C993 C998 1.501 . S
C994 C995 1.387 . S
C994 N997 1.341 . S
C995 C993 1.400 . S
C995 C994 1.387 . S
N996 Co987 2.022 . S
N996 C993 1.351 . S
N996 N997 1.365 . S
N997 C994 1.341 . S
N997 N996 1.365 . S
N997 H1017 0.862 . S
C998 C993 1.501 . S
C998 H999 0.961 . S
C998 H1000 0.961 . S
C998 H1001 0.960 . S
H999 C998 0.961 . S
H1000 C998 0.961 . S
H1001 C998 0.960 . S
C1002 N1003 1.342 . S
C1002 C1006 1.401 . S
C1002 C1007 1.499 . S
N1003 Co986 1.989 . S
N1003 C1002 1.342 . S
N1003 N1004 1.388 . S
N1004 Co987 1.993 . S
N1004 N1003 1.388 . S
N1004 C1005 1.346 . S
C1005 N1004 1.346 . S
C1005 C1006 1.396 . S
C1005 C1015 1.510 . S
C1006 C1002 1.401 . S
C1006 C1005 1.396 . S
C1007 C1002 1.499 . S
C1007 H1008 0.959 . S
C1007 H1009 0.960 . S
C1007 H1010 0.961 . S
H1008 C1007 0.959 . S
H1009 C1007 0.960 . S
H1010 C1007 0.961 . S
O1011 Co986 1.967 . S
O1011 C1019 1.258 . S
O1012 Co987 1.941 . S
O1012 C1019 1.266 . S
H1013 C1015 0.959 . S
H1014 C1015 0.961 . S
C1015 C1005 1.510 . S
C1015 H1013 0.959 . S
C1015 H1014 0.961 . S
C1015 H1016 0.960 . S
H1016 C1015 0.960 . S
H1017 N997 0.862 . S
O1018 Co986 1.920 . S
O1018 C991 1.289 . S
C1019 O1011 1.258 . S
C1019 O1012 1.266 . S
Co1020 O1023 1.970 . S
Co1020 N1037 1.989 . S
Co1020 O1045 1.967 . S
Co1020 O1052 1.920 . S
Co1021 O1024 1.966 . S
Co1021 N1030 2.022 . S
Co1021 N1038 1.993 . S
Co1021 O1046 1.941 . S
C1022 O1023 1.258 . S
C1022 O1024 1.263 . S
O1023 Co1020 1.970 . S
O1023 C1022 1.258 . S
O1024 Co1021 1.966 . S
O1024 C1022 1.263 . S
C1025 O1026 1.235 . S
C1025 O1052 1.289 . S
O1026 C1025 1.235 . S
C1027 C1029 1.400 . S
C1027 N1030 1.351 . S
C1027 C1032 1.501 . S
C1028 C1029 1.387 . S
C1028 N1031 1.341 . S
C1029 C1027 1.400 . S
C1029 C1028 1.387 . S
N1030 Co1021 2.022 . S
N1030 C1027 1.351 . S
N1030 N1031 1.365 . S
N1031 C1028 1.341 . S
N1031 N1030 1.365 . S
N1031 H1051 0.862 . S
C1032 C1027 1.501 . S
C1032 H1033 0.961 . S
C1032 H1034 0.961 . S
C1032 H1035 0.960 . S
H1033 C1032 0.961 . S
H1034 C1032 0.961 . S
H1035 C1032 0.960 . S
C1036 N1037 1.342 . S
C1036 C1040 1.401 . S
C1036 C1041 1.499 . S
N1037 Co1020 1.989 . S
N1037 C1036 1.342 . S
N1037 N1038 1.388 . S
N1038 Co1021 1.993 . S
N1038 N1037 1.388 . S
N1038 C1039 1.346 . S
C1039 N1038 1.346 . S
C1039 C1040 1.396 . S
C1039 C1049 1.510 . S
C1040 C1036 1.401 . S
C1040 C1039 1.396 . S
C1041 C1036 1.499 . S
C1041 H1042 0.959 . S
C1041 H1043 0.960 . S
C1041 H1044 0.961 . S
H1042 C1041 0.959 . S
H1043 C1041 0.960 . S
H1044 C1041 0.961 . S
O1045 Co1020 1.967 . S
O1045 C1053 1.258 . S
O1046 Co1021 1.941 . S
O1046 C1053 1.266 . S
H1047 C1049 0.959 . S
H1048 C1049 0.961 . S
C1049 C1039 1.510 . S
C1049 H1047 0.959 . S
C1049 H1048 0.961 . S
C1049 H1050 0.960 . S
H1050 C1049 0.960 . S
H1051 N1031 0.862 . S
O1052 Co1020 1.920 . S
O1052 C1025 1.289 . S
C1053 O1045 1.258 . S
C1053 O1046 1.266 . S
Co1054 O1057 1.970 . S
Co1054 N1071 1.989 . S
Co1054 O1079 1.967 . S
Co1054 O1086 1.920 . S
Co1055 O1058 1.966 . S
Co1055 N1064 2.022 . S
Co1055 N1072 1.993 . S
Co1055 O1080 1.941 . S
C1056 O1057 1.258 . S
C1056 O1058 1.263 . S
O1057 Co1054 1.970 . S
O1057 C1056 1.258 . S
O1058 Co1055 1.966 . S
O1058 C1056 1.263 . S
C1059 O1060 1.235 . S
C1059 O1086 1.289 . S
O1060 C1059 1.235 . S
C1061 C1063 1.400 . S
C1061 N1064 1.351 . S
C1061 C1066 1.501 . S
C1062 C1063 1.387 . S
C1062 N1065 1.341 . S
C1063 C1061 1.400 . S
C1063 C1062 1.387 . S
N1064 Co1055 2.022 . S
N1064 C1061 1.351 . S
N1064 N1065 1.365 . S
N1065 C1062 1.341 . S
N1065 N1064 1.365 . S
N1065 H1085 0.862 . S
C1066 C1061 1.501 . S
C1066 H1067 0.961 . S
C1066 H1068 0.961 . S
C1066 H1069 0.960 . S
H1067 C1066 0.961 . S
H1068 C1066 0.961 . S
H1069 C1066 0.960 . S
C1070 N1071 1.342 . S
C1070 C1074 1.401 . S
C1070 C1075 1.499 . S
N1071 Co1054 1.989 . S
N1071 C1070 1.342 . S
N1071 N1072 1.388 . S
N1072 Co1055 1.993 . S
N1072 N1071 1.388 . S
N1072 C1073 1.346 . S
C1073 N1072 1.346 . S
C1073 C1074 1.396 . S
C1073 C1083 1.510 . S
C1074 C1070 1.401 . S
C1074 C1073 1.396 . S
C1075 C1070 1.499 . S
C1075 H1076 0.959 . S
C1075 H1077 0.960 . S
C1075 H1078 0.961 . S
H1076 C1075 0.959 . S
H1077 C1075 0.960 . S
H1078 C1075 0.961 . S
O1079 Co1054 1.967 . S
O1079 C1087 1.258 . S
O1080 Co1055 1.941 . S
O1080 C1087 1.266 . S
H1081 C1083 0.959 . S
H1082 C1083 0.961 . S
C1083 C1073 1.510 . S
C1083 H1081 0.959 . S
C1083 H1082 0.961 . S
C1083 H1084 0.960 . S
H1084 C1083 0.960 . S
H1085 N1065 0.862 . S
O1086 Co1054 1.920 . S
O1086 C1059 1.289 . S
C1087 O1079 1.258 . S
C1087 O1080 1.266 . S
H1088 C1096 0.950 . S
H1089 C1101 0.950 . S
H1090 C1098 0.950 . S
H1091 C1100 0.950 . S
H1092 C1102 0.950 . S
H1093 C1104 0.950 . S
H1094 C1106 0.950 . S
H1095 C1107 0.950 . S
C1096 H1088 0.950 . S
C1096 C1097 1.386 . S
C1096 C1098 1.391 . S
C1097 C1096 1.386 . S
C1097 C1101 1.393 . S
C1098 H1090 0.950 . S
C1098 C1096 1.391 . S
C1098 C1099 1.400 . S
C1099 C1098 1.400 . S
C1099 C1100 1.398 . S
C1099 C1105 1.491 1_565 S
C1100 H1091 0.950 . S
C1100 C1099 1.398 . S
C1100 C1101 1.391 . S
C1101 H1089 0.950 . S
C1101 C1097 1.393 . S
C1101 C1100 1.391 . S
C1102 H1092 0.950 . S
C1102 C1103 1.386 . S
C1102 C1104 1.391 . S
C1103 C1102 1.386 . S
C1103 C1107 1.393 . S
C1104 H1093 0.950 . S
C1104 C1102 1.391 . S
C1104 C1105 1.400 . S
C1105 C1099 1.491 1_545 S
C1105 C1104 1.400 . S
C1105 C1106 1.398 . S
C1106 H1094 0.950 . S
C1106 C1105 1.398 . S
C1106 C1107 1.391 . S
C1107 H1095 0.950 . S
C1107 C1103 1.393 . S
C1107 C1106 1.391 . S
H1108 C1116 0.950 . S
H1109 C1121 0.950 . S
H1110 C1118 0.950 . S
H1111 C1120 0.950 . S
H1112 C1122 0.950 . S
H1113 C1124 0.950 . S
H1114 C1126 0.950 . S
H1115 C1127 0.950 1_554 S
C1116 H1108 0.950 . S
C1116 C1117 1.386 . S
C1116 C1118 1.391 . S
C1117 C1116 1.386 . S
C1117 C1121 1.393 . S
C1118 H1110 0.950 . S
C1118 C1116 1.391 . S
C1118 C1119 1.400 . S
C1119 C1118 1.400 . S
C1119 C1120 1.398 . S
C1119 C1125 1.491 . S
C1120 H1111 0.950 . S
C1120 C1119 1.398 . S
C1120 C1121 1.391 . S
C1121 H1109 0.950 . S
C1121 C1117 1.393 . S
C1121 C1120 1.391 . S
C1122 H1112 0.950 . S
C1122 C1123 1.386 . S
C1122 C1124 1.391 . S
C1123 C1122 1.386 . S
C1123 C1127 1.393 . S
C1124 H1113 0.950 . S
C1124 C1122 1.391 . S
C1124 C1125 1.400 1_556 S
C1125 C1119 1.491 . S
C1125 C1124 1.400 1_554 S
C1125 C1126 1.398 . S
C1126 H1114 0.950 . S
C1126 C1125 1.398 . S
C1126 C1127 1.391 1_554 S
C1127 H1115 0.950 1_556 S
C1127 C1123 1.393 . S
C1127 C1126 1.391 1_556 S
H1128 C1136 0.950 . S
H1129 C1141 0.950 . S
H1130 C1138 0.950 . S
H1131 C1140 0.950 1_545 S
H1132 C1142 0.950 . S
H1133 C1144 0.950 . S
H1134 C1146 0.950 1_565 S
H1135 C1147 0.950 . S
C1136 H1128 0.950 . S
C1136 C1137 1.386 . S
C1136 C1138 1.391 . S
C1137 C1136 1.386 . S
C1137 C1141 1.393 . S
C1138 H1130 0.950 . S
C1138 C1136 1.391 . S
C1138 C1139 1.400 . S
C1139 C1138 1.400 . S
C1139 C1140 1.398 . S
C1139 C1145 1.491 1_565 S
C1140 H1131 0.950 1_565 S
C1140 C1139 1.398 . S
C1140 C1141 1.391 . S
C1141 H1129 0.950 . S
C1141 C1137 1.393 . S
C1141 C1140 1.391 . S
C1142 H1132 0.950 . S
C1142 C1143 1.386 . S
C1142 C1144 1.391 . S
C1143 C1142 1.386 . S
C1143 C1147 1.393 . S
C1144 H1133 0.950 . S
C1144 C1142 1.391 . S
C1144 C1145 1.400 . S
C1145 C1139 1.491 1_545 S
C1145 C1144 1.400 . S
C1145 C1146 1.398 . S
C1146 H1134 0.950 1_545 S
C1146 C1145 1.398 . S
C1146 C1147 1.391 . S
C1147 H1135 0.950 . S
C1147 C1143 1.393 . S
C1147 C1146 1.391 . S
H1148 C1156 0.950 . S
H1149 C1161 0.950 . S
H1150 C1158 0.950 . S
H1151 C1160 0.950 . S
H1152 C1162 0.950 . S
H1153 C1164 0.950 . S
H1154 C1166 0.950 . S
H1155 C1167 0.950 . S
C1156 H1148 0.950 . S
C1156 C1157 1.386 . S
C1156 C1158 1.391 . S
C1157 C1156 1.386 . S
C1157 C1161 1.393 . S
C1158 H1150 0.950 . S
C1158 C1156 1.391 . S
C1158 C1159 1.400 . S
C1159 C1158 1.400 . S
C1159 C1160 1.398 . S
C1159 C1165 1.491 . S
C1160 H1151 0.950 . S
C1160 C1159 1.398 . S
C1160 C1161 1.391 . S
C1161 H1149 0.950 . S
C1161 C1157 1.393 . S
C1161 C1160 1.391 . S
C1162 H1152 0.950 . S
C1162 C1163 1.386 . S
C1162 C1164 1.391 . S
C1163 C1162 1.386 . S
C1163 C1167 1.393 . S
C1164 H1153 0.950 . S
C1164 C1162 1.391 . S
C1164 C1165 1.400 . S
C1165 C1159 1.491 . S
C1165 C1164 1.400 . S
C1165 C1166 1.398 . S
C1166 H1154 0.950 . S
C1166 C1165 1.398 . S
C1166 C1167 1.391 . S
C1167 H1155 0.950 . S
C1167 C1163 1.393 . S
C1167 C1166 1.391 . S
H1168 C1176 0.950 . S
H1169 C1181 0.950 . S
H1170 C1178 0.950 . S
H1171 C1180 0.950 . S
H1172 C1182 0.950 . S
H1173 C1184 0.950 . S
H1174 C1186 0.950 . S
H1175 C1187 0.950 . S
C1176 H1168 0.950 . S
C1176 C1177 1.386 . S
C1176 C1178 1.391 . S
C1177 C1176 1.386 . S
C1177 C1181 1.393 . S
C1178 H1170 0.950 . S
C1178 C1176 1.391 . S
C1178 C1179 1.400 . S
C1179 C1178 1.400 . S
C1179 C1180 1.398 . S
C1179 C1185 1.491 1_545 S
C1180 H1171 0.950 . S
C1180 C1179 1.398 . S
C1180 C1181 1.391 . S
C1181 H1169 0.950 . S
C1181 C1177 1.393 . S
C1181 C1180 1.391 . S
C1182 H1172 0.950 . S
C1182 C1183 1.386 . S
C1182 C1184 1.391 . S
C1183 C1182 1.386 . S
C1183 C1187 1.393 . S
C1184 H1173 0.950 . S
C1184 C1182 1.391 . S
C1184 C1185 1.400 . S
C1185 C1179 1.491 1_565 S
C1185 C1184 1.400 . S
C1185 C1186 1.398 . S
C1186 H1174 0.950 . S
C1186 C1185 1.398 . S
C1186 C1187 1.391 . S
C1187 H1175 0.950 . S
C1187 C1183 1.393 . S
C1187 C1186 1.391 . S
H1188 C1196 0.950 . S
H1189 C1201 0.950 . S
H1190 C1198 0.950 . S
H1191 C1200 0.950 . S
H1192 C1202 0.950 . S
H1193 C1204 0.950 . S
H1194 C1206 0.950 . S
H1195 C1207 0.950 . S
C1196 H1188 0.950 . S
C1196 C1197 1.386 . S
C1196 C1198 1.391 . S
C1197 C1196 1.386 . S
C1197 C1201 1.393 1_556 S
C1198 H1190 0.950 . S
C1198 C1196 1.391 . S
C1198 C1199 1.400 1_556 S
C1199 C1198 1.400 1_554 S
C1199 C1200 1.398 . S
C1199 C1205 1.491 . S
C1200 H1191 0.950 . S
C1200 C1199 1.398 . S
C1200 C1201 1.391 . S
C1201 H1189 0.950 . S
C1201 C1197 1.393 1_554 S
C1201 C1200 1.391 . S
C1202 H1192 0.950 . S
C1202 C1203 1.386 . S
C1202 C1204 1.391 . S
C1203 C1202 1.386 . S
C1203 C1207 1.393 . S
C1204 H1193 0.950 . S
C1204 C1202 1.391 . S
C1204 C1205 1.400 . S
C1205 C1199 1.491 . S
C1205 C1204 1.400 . S
C1205 C1206 1.398 . S
C1206 H1194 0.950 . S
C1206 C1205 1.398 . S
C1206 C1207 1.391 . S
C1207 H1195 0.950 . S
C1207 C1203 1.393 . S
C1207 C1206 1.391 . S
H1208 C1216 0.950 . S
H1209 C1221 0.950 . S
H1210 C1218 0.950 1_565 S
H1211 C1220 0.950 . S
H1212 C1222 0.950 . S
H1213 C1224 0.950 1_545 S
H1214 C1226 0.950 . S
H1215 C1227 0.950 . S
C1216 H1208 0.950 . S
C1216 C1217 1.386 . S
C1216 C1218 1.391 . S
C1217 C1216 1.386 . S
C1217 C1221 1.393 . S
C1218 H1210 0.950 1_545 S
C1218 C1216 1.391 . S
C1218 C1219 1.400 . S
C1219 C1218 1.400 . S
C1219 C1220 1.398 . S
C1219 C1225 1.491 1_545 S
C1220 H1211 0.950 . S
C1220 C1219 1.398 . S
C1220 C1221 1.391 . S
C1221 H1209 0.950 . S
C1221 C1217 1.393 . S
C1221 C1220 1.391 . S
C1222 H1212 0.950 . S
C1222 C1223 1.386 . S
C1222 C1224 1.391 . S
C1223 C1222 1.386 . S
C1223 C1227 1.393 . S
C1224 H1213 0.950 1_565 S
C1224 C1222 1.391 . S
C1224 C1225 1.400 . S
C1225 C1219 1.491 1_565 S
C1225 C1224 1.400 . S
C1225 C1226 1.398 . S
C1226 H1214 0.950 . S
C1226 C1225 1.398 . S
C1226 C1227 1.391 . S
C1227 H1215 0.950 . S
C1227 C1223 1.393 . S
C1227 C1226 1.391 . S
H1228 C1236 0.950 . S
H1229 C1241 0.950 . S
H1230 C1238 0.950 . S
H1231 C1240 0.950 . S
H1232 C1242 0.950 . S
H1233 C1244 0.950 . S
H1234 C1246 0.950 . S
H1235 C1247 0.950 . S
C1236 H1228 0.950 . S
C1236 C1237 1.386 . S
C1236 C1238 1.391 . S
C1237 C1236 1.386 . S
C1237 C1241 1.393 . S
C1238 H1230 0.950 . S
C1238 C1236 1.391 . S
C1238 C1239 1.400 . S
C1239 C1238 1.400 . S
C1239 C1240 1.398 . S
C1239 C1245 1.491 . S
C1240 H1231 0.950 . S
C1240 C1239 1.398 . S
C1240 C1241 1.391 . S
C1241 H1229 0.950 . S
C1241 C1237 1.393 . S
C1241 C1240 1.391 . S
C1242 H1232 0.950 . S
C1242 C1243 1.386 . S
C1242 C1244 1.391 . S
C1243 C1242 1.386 . S
C1243 C1247 1.393 . S
C1244 H1233 0.950 . S
C1244 C1242 1.391 . S
C1244 C1245 1.400 . S
C1245 C1239 1.491 . S
C1245 C1244 1.400 . S
C1245 C1246 1.398 . S
C1246 H1234 0.950 . S
C1246 C1245 1.398 . S
C1246 C1247 1.391 . S
C1247 H1235 0.950 . S
C1247 C1243 1.393 . S
C1247 C1246 1.391 . S
H1248 C1256 0.950 . S
H1249 C1261 0.950 . S
H1250 C1258 0.950 . S
H1251 C1260 0.950 . S
H1252 C1262 0.950 . S
H1253 C1264 0.950 . S
H1254 C1266 0.950 . S
H1255 C1267 0.950 . S
C1256 H1248 0.950 . S
C1256 C1257 1.386 . S
C1256 C1258 1.391 . S
C1257 C1256 1.386 . S
C1257 C1261 1.393 . S
C1258 H1250 0.950 . S
C1258 C1256 1.391 . S
C1258 C1259 1.400 . S
C1259 C1258 1.400 . S
C1259 C1260 1.398 . S
C1259 C1265 1.491 . S
C1260 H1251 0.950 . S
C1260 C1259 1.398 . S
C1260 C1261 1.391 . S
C1261 H1249 0.950 . S
C1261 C1257 1.393 . S
C1261 C1260 1.391 . S
C1262 H1252 0.950 . S
C1262 C1263 1.386 . S
C1262 C1264 1.391 . S
C1263 C1262 1.386 . S
C1263 C1267 1.393 . S
C1264 H1253 0.950 . S
C1264 C1262 1.391 . S
C1264 C1265 1.400 . S
C1265 C1259 1.491 . S
C1265 C1264 1.400 . S
C1265 C1266 1.398 . S
C1266 H1254 0.950 . S
C1266 C1265 1.398 . S
C1266 C1267 1.391 . S
C1267 H1255 0.950 . S
C1267 C1263 1.393 . S
C1267 C1266 1.391 . S
H1268 C1276 0.950 . S
H1269 C1281 0.950 . S
H1270 C1278 0.950 . S
H1271 C1280 0.950 . S
H1272 C1282 0.950 . S
H1273 C1284 0.950 . S
H1274 C1286 0.950 . S
H1275 C1287 0.950 . S
C1276 H1268 0.950 . S
C1276 C1277 1.386 . S
C1276 C1278 1.391 . S
C1277 C1276 1.386 . S
C1277 C1281 1.393 . S
C1278 H1270 0.950 . S
C1278 C1276 1.391 . S
C1278 C1279 1.400 . S
C1279 C1278 1.400 . S
C1279 C1280 1.398 . S
C1279 C1285 1.491 . S
C1280 H1271 0.950 . S
C1280 C1279 1.398 . S
C1280 C1281 1.391 . S
C1281 H1269 0.950 . S
C1281 C1277 1.393 . S
C1281 C1280 1.391 . S
C1282 H1272 0.950 . S
C1282 C1283 1.386 . S
C1282 C1284 1.391 . S
C1283 C1282 1.386 . S
C1283 C1287 1.393 . S
C1284 H1273 0.950 . S
C1284 C1282 1.391 . S
C1284 C1285 1.400 . S
C1285 C1279 1.491 . S
C1285 C1284 1.400 . S
C1285 C1286 1.398 . S
C1286 H1274 0.950 . S
C1286 C1285 1.398 . S
C1286 C1287 1.391 . S
C1287 H1275 0.950 . S
C1287 C1283 1.393 . S
C1287 C1286 1.391 . S
H1288 C1296 0.950 . S
H1289 C1301 0.950 . S
H1290 C1298 0.950 . S
H1291 C1300 0.950 . S
H1292 C1302 0.950 . S
H1293 C1304 0.950 . S
H1294 C1306 0.950 . S
H1295 C1307 0.950 . S
C1296 H1288 0.950 . S
C1296 C1297 1.386 . S
C1296 C1298 1.391 . S
C1297 C1296 1.386 . S
C1297 C1301 1.393 . S
C1298 H1290 0.950 . S
C1298 C1296 1.391 . S
C1298 C1299 1.400 . S
C1299 C1298 1.400 . S
C1299 C1300 1.398 . S
C1299 C1305 1.491 . S
C1300 H1291 0.950 . S
C1300 C1299 1.398 . S
C1300 C1301 1.391 . S
C1301 H1289 0.950 . S
C1301 C1297 1.393 . S
C1301 C1300 1.391 . S
C1302 H1292 0.950 . S
C1302 C1303 1.386 . S
C1302 C1304 1.391 . S
C1303 C1302 1.386 . S
C1303 C1307 1.393 . S
C1304 H1293 0.950 . S
C1304 C1302 1.391 . S
C1304 C1305 1.400 . S
C1305 C1299 1.491 . S
C1305 C1304 1.400 . S
C1305 C1306 1.398 . S
C1306 H1294 0.950 . S
C1306 C1305 1.398 . S
C1306 C1307 1.391 . S
C1307 H1295 0.950 . S
C1307 C1303 1.393 . S
C1307 C1306 1.391 . S
H1308 C1316 0.950 . S
H1309 C1321 0.950 . S
H1310 C1318 0.950 . S
H1311 C1320 0.950 . S
H1312 C1322 0.950 . S
H1313 C1324 0.950 . S
H1314 C1326 0.950 . S
H1315 C1327 0.950 . S
C1316 H1308 0.950 . S
C1316 C1317 1.386 . S
C1316 C1318 1.391 . S
C1317 C1316 1.386 . S
C1317 C1321 1.393 . S
C1318 H1310 0.950 . S
C1318 C1316 1.391 . S
C1318 C1319 1.400 . S
C1319 C1318 1.400 . S
C1319 C1320 1.398 . S
C1319 C1325 1.491 . S
C1320 H1311 0.950 . S
C1320 C1319 1.398 . S
C1320 C1321 1.391 . S
C1321 H1309 0.950 . S
C1321 C1317 1.393 . S
C1321 C1320 1.391 . S
C1322 H1312 0.950 . S
C1322 C1323 1.386 . S
C1322 C1324 1.391 . S
C1323 C1322 1.386 . S
C1323 C1327 1.393 . S
C1324 H1313 0.950 . S
C1324 C1322 1.391 . S
C1324 C1325 1.400 1_556 S
C1325 C1319 1.491 . S
C1325 C1324 1.400 1_554 S
C1325 C1326 1.398 . S
C1326 H1314 0.950 . S
C1326 C1325 1.398 . S
C1326 C1327 1.391 1_554 S
C1327 H1315 0.950 . S
C1327 C1323 1.393 . S
C1327 C1326 1.391 1_556 S
H1328 C1336 0.950 . S
H1329 C1341 0.950 . S
H1330 C1338 0.950 . S
H1331 C1340 0.950 . S
H1332 C1342 0.950 . S
H1333 C1344 0.950 . S
H1334 C1346 0.950 . S
H1335 C1347 0.950 . S
C1336 H1328 0.950 . S
C1336 C1337 1.386 . S
C1336 C1338 1.391 . S
C1337 C1336 1.386 . S
C1337 C1341 1.393 . S
C1338 H1330 0.950 . S
C1338 C1336 1.391 . S
C1338 C1339 1.400 . S
C1339 C1338 1.400 . S
C1339 C1340 1.398 . S
C1339 C1345 1.491 . S
C1340 H1331 0.950 . S
C1340 C1339 1.398 . S
C1340 C1341 1.391 . S
C1341 H1329 0.950 . S
C1341 C1337 1.393 . S
C1341 C1340 1.391 . S
C1342 H1332 0.950 . S
C1342 C1343 1.386 . S
C1342 C1344 1.391 . S
C1343 C1342 1.386 . S
C1343 C1347 1.393 . S
C1344 H1333 0.950 . S
C1344 C1342 1.391 . S
C1344 C1345 1.400 . S
C1345 C1339 1.491 . S
C1345 C1344 1.400 . S
C1345 C1346 1.398 . S
C1346 H1334 0.950 . S
C1346 C1345 1.398 . S
C1346 C1347 1.391 . S
C1347 H1335 0.950 . S
C1347 C1343 1.393 . S
C1347 C1346 1.391 . S
H1348 C1356 0.950 . S
H1349 C1361 0.950 . S
H1350 C1358 0.950 . S
H1351 C1360 0.950 . S
H1352 C1362 0.950 . S
H1353 C1364 0.950 . S
H1354 C1366 0.950 . S
H1355 C1367 0.950 . S
C1356 H1348 0.950 . S
C1356 C1357 1.386 . S
C1356 C1358 1.391 . S
C1357 C1356 1.386 . S
C1357 C1361 1.393 . S
C1358 H1350 0.950 . S
C1358 C1356 1.391 . S
C1358 C1359 1.400 . S
C1359 C1358 1.400 . S
C1359 C1360 1.398 . S
C1359 C1365 1.491 . S
C1360 H1351 0.950 . S
C1360 C1359 1.398 . S
C1360 C1361 1.391 . S
C1361 H1349 0.950 . S
C1361 C1357 1.393 . S
C1361 C1360 1.391 . S
C1362 H1352 0.950 . S
C1362 C1363 1.386 . S
C1362 C1364 1.391 . S
C1363 C1362 1.386 . S
C1363 C1367 1.393 . S
C1364 H1353 0.950 . S
C1364 C1362 1.391 . S
C1364 C1365 1.400 . S
C1365 C1359 1.491 . S
C1365 C1364 1.400 . S
C1365 C1366 1.398 . S
C1366 H1354 0.950 . S
C1366 C1365 1.398 . S
C1366 C1367 1.391 . S
C1367 H1355 0.950 . S
C1367 C1363 1.393 . S
C1367 C1366 1.391 . S
H1368 C1376 0.950 . S
H1369 C1381 0.950 . S
H1370 C1378 0.950 . S
H1371 C1380 0.950 . S
H1372 C1382 0.950 . S
H1373 C1384 0.950 . S
H1374 C1386 0.950 . S
H1375 C1387 0.950 . S
C1376 H1368 0.950 . S
C1376 C1377 1.386 . S
C1376 C1378 1.391 . S
C1377 C1376 1.386 . S
C1377 C1381 1.393 . S
C1378 H1370 0.950 . S
C1378 C1376 1.391 . S
C1378 C1379 1.400 . S
C1379 C1378 1.400 . S
C1379 C1380 1.398 . S
C1379 C1385 1.491 . S
C1380 H1371 0.950 . S
C1380 C1379 1.398 . S
C1380 C1381 1.391 . S
C1381 H1369 0.950 . S
C1381 C1377 1.393 . S
C1381 C1380 1.391 . S
C1382 H1372 0.950 . S
C1382 C1383 1.386 . S
C1382 C1384 1.391 . S
C1383 C1382 1.386 . S
C1383 C1387 1.393 . S
C1384 H1373 0.950 . S
C1384 C1382 1.391 . S
C1384 C1385 1.400 . S
C1385 C1379 1.491 . S
C1385 C1384 1.400 . S
C1385 C1386 1.398 . S
C1386 H1374 0.950 . S
C1386 C1385 1.398 . S
C1386 C1387 1.391 . S
C1387 H1375 0.950 . S
C1387 C1383 1.393 . S
C1387 C1386 1.391 . S
H1388 C1396 0.947 1_554 S
H1389 C1401 0.950 . S
H1390 C1398 0.950 . S
H1391 C1400 0.950 . S
H1392 C1402 0.950 . S
H1393 C1404 0.950 . S
H1394 C1406 0.950 . S
H1395 C1407 0.950 . S
C1396 H1388 0.947 1_556 S
C1396 C1397 1.399 . S
C1396 C1398 1.380 1_556 S
C1397 C1396 1.399 . S
C1397 C1401 1.393 . S
C1398 H1390 0.950 . S
C1398 C1396 1.380 1_554 S
C1398 C1399 1.400 . S
C1399 C1398 1.400 . S
C1399 C1400 1.398 1_554 S
C1399 C1405 1.491 . S
C1400 H1391 0.950 . S
C1400 C1399 1.398 1_556 S
C1400 C1401 1.391 . S
C1401 H1389 0.950 . S
C1401 C1397 1.393 . S
C1401 C1400 1.391 . S
C1402 H1392 0.950 . S
C1402 C1403 1.386 . S
C1402 C1404 1.391 . S
C1403 C1402 1.386 . S
C1403 C1407 1.393 . S
C1404 H1393 0.950 . S
C1404 C1402 1.391 . S
C1404 C1405 1.400 . S
C1405 C1399 1.491 . S
C1405 C1404 1.400 . S
C1405 C1406 1.398 . S
C1406 H1394 0.950 . S
C1406 C1405 1.398 . S
C1406 C1407 1.391 . S
C1407 H1395 0.950 . S
C1407 C1403 1.393 . S
C1407 C1406 1.391 . S
H1408 C1416 0.950 . S
H1409 C1421 0.950 . S
H1410 C1418 0.950 . S
H1411 C1420 0.950 1_455 S
H1412 C1422 0.950 . S
H1413 C1424 0.950 . S
H1414 C1426 0.950 1_655 S
H1415 C1427 0.950 . S
C1416 H1408 0.950 . S
C1416 C1417 1.386 . S
C1416 C1418 1.391 . S
C1417 C1416 1.386 . S
C1417 C1421 1.393 . S
C1418 H1410 0.950 . S
C1418 C1416 1.391 . S
C1418 C1419 1.400 . S
C1419 C1418 1.400 . S
C1419 C1420 1.398 . S
C1419 C1425 1.491 1_655 S
C1420 H1411 0.950 1_655 S
C1420 C1419 1.398 . S
C1420 C1421 1.391 . S
C1421 H1409 0.950 . S
C1421 C1417 1.393 . S
C1421 C1420 1.391 . S
C1422 H1412 0.950 . S
C1422 C1423 1.386 . S
C1422 C1424 1.391 . S
C1423 C1422 1.386 . S
C1423 C1427 1.393 . S
C1424 H1413 0.950 . S
C1424 C1422 1.391 . S
C1424 C1425 1.400 . S
C1425 C1419 1.491 1_455 S
C1425 C1424 1.400 . S
C1425 C1426 1.398 . S
C1426 H1414 0.950 1_455 S
C1426 C1425 1.398 . S
C1426 C1427 1.391 . S
C1427 H1415 0.950 . S
C1427 C1423 1.393 . S
C1427 C1426 1.391 . S
H1428 C1436 0.950 . S
H1429 C1441 0.950 . S
H1430 C1438 0.950 . S
H1431 C1440 0.950 . S
H1432 C1442 0.950 . S
H1433 C1444 0.950 . S
H1434 C1446 0.950 . S
H1435 C1447 0.950 . S
C1436 H1428 0.950 . S
C1436 C1437 1.386 . S
C1436 C1438 1.391 . S
C1437 C1436 1.386 . S
C1437 C1441 1.393 . S
C1438 H1430 0.950 . S
C1438 C1436 1.391 . S
C1438 C1439 1.400 . S
C1439 C1438 1.400 . S
C1439 C1440 1.398 . S
C1439 C1445 1.491 . S
C1440 H1431 0.950 . S
C1440 C1439 1.398 . S
C1440 C1441 1.391 . S
C1441 H1429 0.950 . S
C1441 C1437 1.393 . S
C1441 C1440 1.391 . S
C1442 H1432 0.950 . S
C1442 C1443 1.386 . S
C1442 C1444 1.391 1_556 S
C1443 C1442 1.386 . S
C1443 C1447 1.393 . S
C1444 H1433 0.950 . S
C1444 C1442 1.391 1_554 S
C1444 C1445 1.400 . S
C1445 C1439 1.491 . S
C1445 C1444 1.400 . S
C1445 C1446 1.398 . S
C1446 H1434 0.950 . S
C1446 C1445 1.398 . S
C1446 C1447 1.391 1_554 S
C1447 H1435 0.950 . S
C1447 C1443 1.393 . S
C1447 C1446 1.391 1_556 S
H1448 C1456 0.950 . S
H1449 C1461 0.950 . S
H1450 C1458 0.950 . S
H1451 C1460 0.950 . S
H1452 C1462 0.950 . S
H1453 C1464 0.950 . S
H1454 C1466 0.950 . S
H1455 C1467 0.950 . S
C1456 H1448 0.950 . S
C1456 C1457 1.386 . S
C1456 C1458 1.391 . S
C1457 C1456 1.386 . S
C1457 C1461 1.393 . S
C1458 H1450 0.950 . S
C1458 C1456 1.391 . S
C1458 C1459 1.400 . S
C1459 C1458 1.400 . S
C1459 C1460 1.398 . S
C1459 C1465 1.491 . S
C1460 H1451 0.950 . S
C1460 C1459 1.398 . S
C1460 C1461 1.391 . S
C1461 H1449 0.950 . S
C1461 C1457 1.393 . S
C1461 C1460 1.391 . S
C1462 H1452 0.950 . S
C1462 C1463 1.386 . S
C1462 C1464 1.391 . S
C1463 C1462 1.386 . S
C1463 C1467 1.393 . S
C1464 H1453 0.950 . S
C1464 C1462 1.391 . S
C1464 C1465 1.400 . S
C1465 C1459 1.491 . S
C1465 C1464 1.400 . S
C1465 C1466 1.398 . S
C1466 H1454 0.950 . S
C1466 C1465 1.398 . S
C1466 C1467 1.391 . S
C1467 H1455 0.950 . S
C1467 C1463 1.393 . S
C1467 C1466 1.391 . S
H1468 C1476 0.950 . S
H1469 C1481 0.950 . S
H1470 C1478 0.950 . S
H1471 C1480 0.950 . S
H1472 C1482 0.950 . S
H1473 C1484 0.950 . S
H1474 C1486 0.950 . S
H1475 C1487 0.950 . S
C1476 H1468 0.950 . S
C1476 C1477 1.386 . S
C1476 C1478 1.391 . S
C1477 C1476 1.386 . S
C1477 C1481 1.393 . S
C1478 H1470 0.950 . S
C1478 C1476 1.391 . S
C1478 C1479 1.400 . S
C1479 C1478 1.400 . S
C1479 C1480 1.398 . S
C1479 C1485 1.491 . S
C1480 H1471 0.950 . S
C1480 C1479 1.398 . S
C1480 C1481 1.391 . S
C1481 H1469 0.950 . S
C1481 C1477 1.393 . S
C1481 C1480 1.391 . S
C1482 H1472 0.950 . S
C1482 C1483 1.386 . S
C1482 C1484 1.391 . S
C1483 C1482 1.386 . S
C1483 C1487 1.393 . S
C1484 H1473 0.950 . S
C1484 C1482 1.391 . S
C1484 C1485 1.400 . S
C1485 C1479 1.491 . S
C1485 C1484 1.400 . S
C1485 C1486 1.398 . S
C1486 H1474 0.950 . S
C1486 C1485 1.398 . S
C1486 C1487 1.391 . S
C1487 H1475 0.950 . S
C1487 C1483 1.393 . S
C1487 C1486 1.391 . S
H1488 C1496 0.950 . S
H1489 C1501 0.950 . S
H1490 C1498 0.950 1_655 S
H1491 C1500 0.950 . S
H1492 C1502 0.950 . S
H1493 C1504 0.950 1_455 S
H1494 C1506 0.950 . S
H1495 C1507 0.950 . S
C1496 H1488 0.950 . S
C1496 C1497 1.386 . S
C1496 C1498 1.391 . S
C1497 C1496 1.386 . S
C1497 C1501 1.393 . S
C1498 H1490 0.950 1_455 S
C1498 C1496 1.391 . S
C1498 C1499 1.400 . S
C1499 C1498 1.400 . S
C1499 C1500 1.398 . S
C1499 C1505 1.491 1_455 S
C1500 H1491 0.950 . S
C1500 C1499 1.398 . S
C1500 C1501 1.391 . S
C1501 H1489 0.950 . S
C1501 C1497 1.393 . S
C1501 C1500 1.391 . S
C1502 H1492 0.950 . S
C1502 C1503 1.386 . S
C1502 C1504 1.391 . S
C1503 C1502 1.386 . S
C1503 C1507 1.393 . S
C1504 H1493 0.950 1_655 S
C1504 C1502 1.391 . S
C1504 C1505 1.400 . S
C1505 C1499 1.491 1_655 S
C1505 C1504 1.400 . S
C1505 C1506 1.398 . S
C1506 H1494 0.950 . S
C1506 C1505 1.398 . S
C1506 C1507 1.391 . S
C1507 H1495 0.950 . S
C1507 C1503 1.393 . S
C1507 C1506 1.391 . S
H1508 C1516 0.950 . S
H1509 C1521 0.950 . S
H1510 C1518 0.950 . S
H1511 C1520 0.950 . S
H1512 C1522 0.950 . S
H1513 C1524 0.950 . S
H1514 C1526 0.950 . S
H1515 C1527 0.950 . S
C1516 H1508 0.950 . S
C1516 C1517 1.386 . S
C1516 C1518 1.391 . S
C1517 C1516 1.386 . S
C1517 C1521 1.393 . S
C1518 H1510 0.950 . S
C1518 C1516 1.391 . S
C1518 C1519 1.400 . S
C1519 C1518 1.400 . S
C1519 C1520 1.398 . S
C1519 C1525 1.491 . S
C1520 H1511 0.950 . S
C1520 C1519 1.398 . S
C1520 C1521 1.391 . S
C1521 H1509 0.950 . S
C1521 C1517 1.393 . S
C1521 C1520 1.391 . S
C1522 H1512 0.950 . S
C1522 C1523 1.386 1_554 S
C1522 C1524 1.391 . S
C1523 C1522 1.386 1_556 S
C1523 C1527 1.393 . S
C1524 H1513 0.950 . S
C1524 C1522 1.391 . S
C1524 C1525 1.400 . S
C1525 C1519 1.491 . S
C1525 C1524 1.400 . S
C1525 C1526 1.398 1_554 S
C1526 H1514 0.950 . S
C1526 C1525 1.398 1_556 S
C1526 C1527 1.391 . S
C1527 H1515 0.950 . S
C1527 C1523 1.393 . S
C1527 C1526 1.391 . S
H1528 C1536 0.950 . S
H1529 C1541 0.950 . S
H1530 C1538 0.950 . S
H1531 C1540 0.950 . S
H1532 C1542 0.950 . S
H1533 C1544 0.950 . S
H1534 C1546 0.950 . S
H1535 C1547 0.950 . S
C1536 H1528 0.950 . S
C1536 C1537 1.386 . S
C1536 C1538 1.391 . S
C1537 C1536 1.386 . S
C1537 C1541 1.393 . S
C1538 H1530 0.950 . S
C1538 C1536 1.391 . S
C1538 C1539 1.400 . S
C1539 C1538 1.400 . S
C1539 C1540 1.398 . S
C1539 C1545 1.491 . S
C1540 H1531 0.950 . S
C1540 C1539 1.398 . S
C1540 C1541 1.391 . S
C1541 H1529 0.950 . S
C1541 C1537 1.393 . S
C1541 C1540 1.391 . S
C1542 H1532 0.950 . S
C1542 C1543 1.386 . S
C1542 C1544 1.391 . S
C1543 C1542 1.386 . S
C1543 C1547 1.393 . S
C1544 H1533 0.950 . S
C1544 C1542 1.391 . S
C1544 C1545 1.400 . S
C1545 C1539 1.491 . S
C1545 C1544 1.400 . S
C1545 C1546 1.398 . S
C1546 H1534 0.950 . S
C1546 C1545 1.398 . S
C1546 C1547 1.391 . S
C1547 H1535 0.950 . S
C1547 C1543 1.393 . S
C1547 C1546 1.391 . S
H1548 C1556 0.950 . S
H1549 C1561 0.950 . S
H1550 C1558 0.950 . S
H1551 C1560 0.950 . S
H1552 C1562 0.950 . S
H1553 C1564 0.950 . S
H1554 C1566 0.950 . S
H1555 C1567 0.950 . S
C1556 H1548 0.950 . S
C1556 C1557 1.386 . S
C1556 C1558 1.391 . S
C1557 C1556 1.386 . S
C1557 C1561 1.393 . S
C1558 H1550 0.950 . S
C1558 C1556 1.391 . S
C1558 C1559 1.400 . S
C1559 C1558 1.400 . S
C1559 C1560 1.398 . S
C1559 C1565 1.491 . S
C1560 H1551 0.950 . S
C1560 C1559 1.398 . S
C1560 C1561 1.391 . S
C1561 H1549 0.950 . S
C1561 C1557 1.393 . S
C1561 C1560 1.391 . S
C1562 H1552 0.950 . S
C1562 C1563 1.386 . S
C1562 C1564 1.391 . S
C1563 C1562 1.386 . S
C1563 C1567 1.393 . S
C1564 H1553 0.950 . S
C1564 C1562 1.391 . S
C1564 C1565 1.400 . S
C1565 C1559 1.491 . S
C1565 C1564 1.400 . S
C1565 C1566 1.398 . S
C1566 H1554 0.950 . S
C1566 C1565 1.398 . S
C1566 C1567 1.391 . S
C1567 H1555 0.950 . S
C1567 C1563 1.393 . S
C1567 C1566 1.391 . S
H1568 C1576 0.950 . S
H1569 C1581 0.950 . S
H1570 C1578 0.950 1_455 S
H1571 C1580 0.950 . S
H1572 C1582 0.950 . S
H1573 C1584 0.950 . S
H1574 C1586 0.950 . S
H1575 C1587 0.950 . S
C1576 H1568 0.950 . S
C1576 C1577 1.386 . S
C1576 C1578 1.391 . S
C1577 C1576 1.386 . S
C1577 C1581 1.393 . S
C1578 H1570 0.950 1_655 S
C1578 C1576 1.391 . S
C1578 C1579 1.400 . S
C1579 C1578 1.400 . S
C1579 C1580 1.398 . S
C1579 C1585 1.491 1_655 S
C1580 H1571 0.950 . S
C1580 C1579 1.398 . S
C1580 C1581 1.391 . S
C1581 H1569 0.950 . S
C1581 C1577 1.393 . S
C1581 C1580 1.391 . S
C1582 H1572 0.950 . S
C1582 C1583 1.386 . S
C1582 C1584 1.391 . S
C1583 C1582 1.386 . S
C1583 C1587 1.393 . S
C1584 H1573 0.950 . S
C1584 C1582 1.391 . S
C1584 C1585 1.400 . S
C1585 C1579 1.491 1_455 S
C1585 C1584 1.400 . S
C1585 C1586 1.398 . S
C1586 H1574 0.950 . S
C1586 C1585 1.398 . S
C1586 C1587 1.391 . S
C1587 H1575 0.950 . S
C1587 C1583 1.393 . S
C1587 C1586 1.391 . S
H1588 C1596 0.950 . S
H1589 C1601 0.950 . S
H1590 C1598 0.950 . S
H1591 C1600 0.950 . S
H1592 C1602 0.950 . S
H1593 C1604 0.950 . S
H1594 C1606 0.950 . S
H1595 C1607 0.950 . S
C1596 H1588 0.950 . S
C1596 C1597 1.386 . S
C1596 C1598 1.391 1_556 S
C1597 C1596 1.386 . S
C1597 C1601 1.393 . S
C1598 H1590 0.950 . S
C1598 C1596 1.391 1_554 S
C1598 C1599 1.400 . S
C1599 C1598 1.400 . S
C1599 C1600 1.398 1_554 S
C1599 C1605 1.491 . S
C1600 H1591 0.950 . S
C1600 C1599 1.398 1_556 S
C1600 C1601 1.391 . S
C1601 H1589 0.950 . S
C1601 C1597 1.393 . S
C1601 C1600 1.391 . S
C1602 H1592 0.950 . S
C1602 C1603 1.386 . S
C1602 C1604 1.391 . S
C1603 C1602 1.386 . S
C1603 C1607 1.393 . S
C1604 H1593 0.950 . S
C1604 C1602 1.391 . S
C1604 C1605 1.400 . S
C1605 C1599 1.491 . S
C1605 C1604 1.400 . S
C1605 C1606 1.398 . S
C1606 H1594 0.950 . S
C1606 C1605 1.398 . S
C1606 C1607 1.391 . S
C1607 H1595 0.950 . S
C1607 C1603 1.393 . S
C1607 C1606 1.391 . S
H1608 C1616 0.950 . S
H1609 C1621 0.950 . S
H1610 C1618 0.950 . S
H1611 C1620 0.950 . S
H1612 C1622 0.950 . S
H1613 C1624 0.950 . S
H1614 C1626 0.950 . S
H1615 C1627 0.950 . S
C1616 H1608 0.950 . S
C1616 C1617 1.386 . S
C1616 C1618 1.391 . S
C1617 C1616 1.386 . S
C1617 C1621 1.393 . S
C1618 H1610 0.950 . S
C1618 C1616 1.391 . S
C1618 C1619 1.400 . S
C1619 C1618 1.400 . S
C1619 C1620 1.398 . S
C1619 C1625 1.491 . S
C1620 H1611 0.950 . S
C1620 C1619 1.398 . S
C1620 C1621 1.391 . S
C1621 H1609 0.950 . S
C1621 C1617 1.393 . S
C1621 C1620 1.391 . S
C1622 H1612 0.950 . S
C1622 C1623 1.386 . S
C1622 C1624 1.391 . S
C1623 C1622 1.386 . S
C1623 C1627 1.393 . S
C1624 H1613 0.950 . S
C1624 C1622 1.391 . S
C1624 C1625 1.400 . S
C1625 C1619 1.491 . S
C1625 C1624 1.400 . S
C1625 C1626 1.398 . S
C1626 H1614 0.950 . S
C1626 C1625 1.398 . S
C1626 C1627 1.391 . S
C1627 H1615 0.950 . S
C1627 C1623 1.393 . S
C1627 C1626 1.391 . S
H1628 C1636 0.950 . S
H1629 C1641 0.950 . S
H1630 C1638 0.950 . S
H1631 C1640 0.950 . S
H1632 C1642 0.950 . S
H1633 C1644 0.950 . S
H1634 C1646 0.950 . S
H1635 C1647 0.950 . S
C1636 H1628 0.950 . S
C1636 C1637 1.386 . S
C1636 C1638 1.391 . S
C1637 C1636 1.386 . S
C1637 C1641 1.393 . S
C1638 H1630 0.950 . S
C1638 C1636 1.391 . S
C1638 C1639 1.400 . S
C1639 C1638 1.400 . S
C1639 C1640 1.398 . S
C1639 C1645 1.491 . S
C1640 H1631 0.950 . S
C1640 C1639 1.398 . S
C1640 C1641 1.391 . S
C1641 H1629 0.950 . S
C1641 C1637 1.393 . S
C1641 C1640 1.391 . S
C1642 H1632 0.950 . S
C1642 C1643 1.386 . S
C1642 C1644 1.391 . S
C1643 C1642 1.386 . S
C1643 C1647 1.393 . S
C1644 H1633 0.950 . S
C1644 C1642 1.391 . S
C1644 C1645 1.400 . S
C1645 C1639 1.491 . S
C1645 C1644 1.400 . S
C1645 C1646 1.398 . S
C1646 H1634 0.950 . S
C1646 C1645 1.398 . S
C1646 C1647 1.391 . S
C1647 H1635 0.950 . S
C1647 C1643 1.393 . S
C1647 C1646 1.391 . S
H1648 C1656 0.950 . S
H1649 C1661 0.950 . S
H1650 C1658 0.950 . S
H1651 C1660 0.950 . S
H1652 C1662 0.950 . S
H1653 C1664 0.950 . S
H1654 C1666 0.950 . S
H1655 C1667 0.950 . S
C1656 H1648 0.950 . S
C1656 C1657 1.386 . S
C1656 C1658 1.391 . S
C1657 C1656 1.386 . S
C1657 C1661 1.393 . S
C1658 H1650 0.950 . S
C1658 C1656 1.391 . S
C1658 C1659 1.400 . S
C1659 C1658 1.400 . S
C1659 C1660 1.398 . S
C1659 C1665 1.491 1_455 S
C1660 H1651 0.950 . S
C1660 C1659 1.398 . S
C1660 C1661 1.391 . S
C1661 H1649 0.950 . S
C1661 C1657 1.393 . S
C1661 C1660 1.391 . S
C1662 H1652 0.950 . S
C1662 C1663 1.386 . S
C1662 C1664 1.391 . S
C1663 C1662 1.386 . S
C1663 C1667 1.393 . S
C1664 H1653 0.950 . S
C1664 C1662 1.391 . S
C1664 C1665 1.400 . S
C1665 C1659 1.491 1_655 S
C1665 C1664 1.400 . S
C1665 C1666 1.398 . S
C1666 H1654 0.950 . S
C1666 C1665 1.398 . S
C1666 C1667 1.391 . S
C1667 H1655 0.950 . S
C1667 C1663 1.393 . S
C1667 C1666 1.391 . S
H1668 C1676 0.950 . S
H1669 C1681 0.950 . S
H1670 C1678 0.950 . S
H1671 C1680 0.950 . S
H1672 C1682 0.950 . S
H1673 C1684 0.950 . S
H1674 C1686 0.950 . S
H1675 C1687 0.950 . S
C1676 H1668 0.950 . S
C1676 C1677 1.386 . S
C1676 C1678 1.391 . S
C1677 C1676 1.386 . S
C1677 C1681 1.393 . S
C1678 H1670 0.950 . S
C1678 C1676 1.391 . S
C1678 C1679 1.400 1_556 S
C1679 C1678 1.400 1_554 S
C1679 C1680 1.398 . S
C1679 C1685 1.491 . S
C1680 H1671 0.950 . S
C1680 C1679 1.398 . S
C1680 C1681 1.391 1_554 S
C1681 H1669 0.950 . S
C1681 C1677 1.393 . S
C1681 C1680 1.391 1_556 S
C1682 H1672 0.950 . S
C1682 C1683 1.386 . S
C1682 C1684 1.391 . S
C1683 C1682 1.386 . S
C1683 C1687 1.393 . S
C1684 H1673 0.950 . S
C1684 C1682 1.391 . S
C1684 C1685 1.400 . S
C1685 C1679 1.491 . S
C1685 C1684 1.400 . S
C1685 C1686 1.398 . S
C1686 H1674 0.950 . S
C1686 C1685 1.398 . S
C1686 C1687 1.391 . S
C1687 H1675 0.950 . S
C1687 C1683 1.393 . S
C1687 C1686 1.391 . S
H1688 C1696 0.950 . S
H1689 C1701 0.950 . S
H1690 C1698 0.950 . S
H1691 C1700 0.950 . S
H1692 C1702 0.950 . S
H1693 C1704 0.950 . S
H1694 C1706 0.950 . S
H1695 C1707 0.950 . S
C1696 H1688 0.950 . S
C1696 C1697 1.386 . S
C1696 C1698 1.391 . S
C1697 C1696 1.386 . S
C1697 C1701 1.393 . S
C1698 H1690 0.950 . S
C1698 C1696 1.391 . S
C1698 C1699 1.400 . S
C1699 C1698 1.400 . S
C1699 C1700 1.398 . S
C1699 C1705 1.491 . S
C1700 H1691 0.950 . S
C1700 C1699 1.398 . S
C1700 C1701 1.391 . S
C1701 H1689 0.950 . S
C1701 C1697 1.393 . S
C1701 C1700 1.391 . S
C1702 H1692 0.950 . S
C1702 C1703 1.386 . S
C1702 C1704 1.391 . S
C1703 C1702 1.386 . S
C1703 C1707 1.393 . S
C1704 H1693 0.950 . S
C1704 C1702 1.391 . S
C1704 C1705 1.400 . S
C1705 C1699 1.491 . S
C1705 C1704 1.400 . S
C1705 C1706 1.398 . S
C1706 H1694 0.950 . S
C1706 C1705 1.398 . S
C1706 C1707 1.391 . S
C1707 H1695 0.950 . S
C1707 C1703 1.393 . S
C1707 C1706 1.391 . S
H1708 C1716 0.950 . S
H1709 C1721 0.950 . S
H1710 C1718 0.950 . S
H1711 C1720 0.950 . S
H1712 C1722 0.950 . S
H1713 C1724 0.950 . S
H1714 C1726 0.950 . S
H1715 C1727 0.950 . S
C1716 H1708 0.950 . S
C1716 C1717 1.386 . S
C1716 C1718 1.391 . S
C1717 C1716 1.386 . S
C1717 C1721 1.393 . S
C1718 H1710 0.950 . S
C1718 C1716 1.391 . S
C1718 C1719 1.400 . S
C1719 C1718 1.400 . S
C1719 C1720 1.398 . S
C1719 C1725 1.491 . S
C1720 H1711 0.950 . S
C1720 C1719 1.398 . S
C1720 C1721 1.391 . S
C1721 H1709 0.950 . S
C1721 C1717 1.393 . S
C1721 C1720 1.391 . S
C1722 H1712 0.950 . S
C1722 C1723 1.386 . S
C1722 C1724 1.391 . S
C1723 C1722 1.386 . S
C1723 C1727 1.393 . S
C1724 H1713 0.950 . S
C1724 C1722 1.391 . S
C1724 C1725 1.400 . S
C1725 C1719 1.491 . S
C1725 C1724 1.400 . S
C1725 C1726 1.398 . S
C1726 H1714 0.950 . S
C1726 C1725 1.398 . S
C1726 C1727 1.391 . S
C1727 H1715 0.950 . S
C1727 C1723 1.393 . S
C1727 C1726 1.391 . S
H1728 C1736 0.950 . S
H1729 C1741 0.950 . S
H1730 C1738 0.950 . S
H1731 C1740 0.950 . S
H1732 C1742 0.950 . S
H1733 C1744 0.950 . S
H1734 C1746 0.950 . S
H1735 C1747 0.950 . S
C1736 H1728 0.950 . S
C1736 C1737 1.386 . S
C1736 C1738 1.391 . S
C1737 C1736 1.386 . S
C1737 C1741 1.393 . S
C1738 H1730 0.950 . S
C1738 C1736 1.391 . S
C1738 C1739 1.400 . S
C1739 C1738 1.400 . S
C1739 C1740 1.398 . S
C1739 C1745 1.491 . S
C1740 H1731 0.950 . S
C1740 C1739 1.398 . S
C1740 C1741 1.391 . S
C1741 H1729 0.950 . S
C1741 C1737 1.393 . S
C1741 C1740 1.391 . S
C1742 H1732 0.950 . S
C1742 C1743 1.386 . S
C1742 C1744 1.391 . S
C1743 C1742 1.386 . S
C1743 C1747 1.393 . S
C1744 H1733 0.950 . S
C1744 C1742 1.391 . S
C1744 C1745 1.400 . S
C1745 C1739 1.491 . S
C1745 C1744 1.400 . S
C1745 C1746 1.398 . S
C1746 H1734 0.950 . S
C1746 C1745 1.398 . S
C1746 C1747 1.391 . S
C1747 H1735 0.950 . S
C1747 C1743 1.393 . S
C1747 C1746 1.391 . S
H1748 C1756 0.950 . S
H1749 C1761 0.950 . S
H1750 C1758 0.950 . S
H1751 C1760 0.950 . S
H1752 C1762 0.950 . S
H1753 C1764 0.950 . S
H1754 C1766 0.950 . S
H1755 C1767 0.950 . S
C1756 H1748 0.950 . S
C1756 C1757 1.386 . S
C1756 C1758 1.391 . S
C1757 C1756 1.386 . S
C1757 C1761 1.393 . S
C1758 H1750 0.950 . S
C1758 C1756 1.391 . S
C1758 C1759 1.400 . S
C1759 C1758 1.400 . S
C1759 C1760 1.398 . S
C1759 C1765 1.491 . S
C1760 H1751 0.950 . S
C1760 C1759 1.398 . S
C1760 C1761 1.391 . S
C1761 H1749 0.950 . S
C1761 C1757 1.393 . S
C1761 C1760 1.391 . S
C1762 H1752 0.950 . S
C1762 C1763 1.386 . S
C1762 C1764 1.391 . S
C1763 C1762 1.386 . S
C1763 C1767 1.393 . S
C1764 H1753 0.950 . S
C1764 C1762 1.391 . S
C1764 C1765 1.400 . S
C1765 C1759 1.491 . S
C1765 C1764 1.400 . S
C1765 C1766 1.398 . S
C1766 H1754 0.950 . S
C1766 C1765 1.398 . S
C1766 C1767 1.391 . S
C1767 H1755 0.950 . S
C1767 C1763 1.393 . S
C1767 C1766 1.391 . S
H1768 C1776 0.950 . S
H1769 C1781 0.950 . S
H1770 C1778 0.950 . S
H1771 C1780 0.950 . S
H1772 C1782 0.950 . S
H1773 C1784 0.950 . S
H1774 C1786 0.950 . S
H1775 C1787 0.950 . S
C1776 H1768 0.950 . S
C1776 C1777 1.386 . S
C1776 C1778 1.391 . S
C1777 C1776 1.386 . S
C1777 C1781 1.393 . S
C1778 H1770 0.950 . S
C1778 C1776 1.391 . S
C1778 C1779 1.400 . S
C1779 C1778 1.400 . S
C1779 C1780 1.398 . S
C1779 C1785 1.491 1_655 S
C1780 H1771 0.950 . S
C1780 C1779 1.398 . S
C1780 C1781 1.391 . S
C1781 H1769 0.950 . S
C1781 C1777 1.393 . S
C1781 C1780 1.391 . S
C1782 H1772 0.950 . S
C1782 C1783 1.386 . S
C1782 C1784 1.391 . S
C1783 C1782 1.386 . S
C1783 C1787 1.393 . S
C1784 H1773 0.950 . S
C1784 C1782 1.391 . S
C1784 C1785 1.400 . S
C1785 C1779 1.491 1_455 S
C1785 C1784 1.400 . S
C1785 C1786 1.398 . S
C1786 H1774 0.950 . S
C1786 C1785 1.398 . S
C1786 C1787 1.391 . S
C1787 H1775 0.950 . S
C1787 C1783 1.393 . S
C1787 C1786 1.391 . S
H1788 C1796 0.950 . S
H1789 C1801 0.950 . S
H1790 C1798 0.950 . S
H1791 C1800 0.950 . S
H1792 C1802 0.949 1_554 S
H1793 C1804 0.950 . S
H1794 C1806 0.950 . S
H1795 C1807 0.950 . S
C1796 H1788 0.950 . S
C1796 C1797 1.386 . S
C1796 C1798 1.391 . S
C1797 C1796 1.386 . S
C1797 C1801 1.393 . S
C1798 H1790 0.950 . S
C1798 C1796 1.391 . S
C1798 C1799 1.400 . S
C1799 C1798 1.400 . S
C1799 C1800 1.398 . S
C1799 C1805 1.491 . S
C1800 H1791 0.950 . S
C1800 C1799 1.398 . S
C1800 C1801 1.391 . S
C1801 H1789 0.950 . S
C1801 C1797 1.393 . S
C1801 C1800 1.391 . S
C1802 H1792 0.949 1_556 S
C1802 C1803 1.397 . S
C1802 C1804 1.381 1_556 S
C1803 C1802 1.397 . S
C1803 C1807 1.393 . S
C1804 H1793 0.950 . S
C1804 C1802 1.381 1_554 S
C1804 C1805 1.400 . S
C1805 C1799 1.491 . S
C1805 C1804 1.400 . S
C1805 C1806 1.398 1_554 S
C1806 H1794 0.950 . S
C1806 C1805 1.398 1_556 S
C1806 C1807 1.391 . S
C1807 H1795 0.950 . S
C1807 C1803 1.393 . S
C1807 C1806 1.391 . S
H1808 C1816 0.950 . S
H1809 C1821 0.950 . S
H1810 C1818 0.950 . S
H1811 C1820 0.950 . S
H1812 C1822 0.950 . S
H1813 C1824 0.950 . S
H1814 C1826 0.950 . S
H1815 C1827 0.950 . S
C1816 H1808 0.950 . S
C1816 C1817 1.386 . S
C1816 C1818 1.391 . S
C1817 C1816 1.386 . S
C1817 C1821 1.393 . S
C1818 H1810 0.950 . S
C1818 C1816 1.391 . S
C1818 C1819 1.400 . S
C1819 C1818 1.400 . S
C1819 C1820 1.398 . S
C1819 C1825 1.491 . S
C1820 H1811 0.950 . S
C1820 C1819 1.398 . S
C1820 C1821 1.391 . S
C1821 H1809 0.950 . S
C1821 C1817 1.393 . S
C1821 C1820 1.391 . S
C1822 H1812 0.950 . S
C1822 C1823 1.386 . S
C1822 C1824 1.391 . S
C1823 C1822 1.386 . S
C1823 C1827 1.393 . S
C1824 H1813 0.950 . S
C1824 C1822 1.391 . S
C1824 C1825 1.400 . S
C1825 C1819 1.491 . S
C1825 C1824 1.400 . S
C1825 C1826 1.398 . S
C1826 H1814 0.950 . S
C1826 C1825 1.398 . S
C1826 C1827 1.391 . S
C1827 H1815 0.950 . S
C1827 C1823 1.393 . S
C1827 C1826 1.391 . S
H1828 C1836 0.950 . S
H1829 C1841 0.950 . S
H1830 C1838 0.950 . S
H1831 C1840 0.950 . S
H1832 C1842 0.950 . S
H1833 C1844 0.950 . S
H1834 C1846 0.950 . S
H1835 C1847 0.950 . S
C1836 H1828 0.950 . S
C1836 C1837 1.386 . S
C1836 C1838 1.391 . S
C1837 C1836 1.386 . S
C1837 C1841 1.393 . S
C1838 H1830 0.950 . S
C1838 C1836 1.391 . S
C1838 C1839 1.400 . S
C1839 C1838 1.400 . S
C1839 C1840 1.398 . S
C1839 C1845 1.491 . S
C1840 H1831 0.950 . S
C1840 C1839 1.398 . S
C1840 C1841 1.391 . S
C1841 H1829 0.950 . S
C1841 C1837 1.393 . S
C1841 C1840 1.391 . S
C1842 H1832 0.950 . S
C1842 C1843 1.386 . S
C1842 C1844 1.391 . S
C1843 C1842 1.386 . S
C1843 C1847 1.393 . S
C1844 H1833 0.950 . S
C1844 C1842 1.391 . S
C1844 C1845 1.400 . S
C1845 C1839 1.491 . S
C1845 C1844 1.400 . S
C1845 C1846 1.398 . S
C1846 H1834 0.950 . S
C1846 C1845 1.398 . S
C1846 C1847 1.391 . S
C1847 H1835 0.950 . S
C1847 C1843 1.393 . S
C1847 C1846 1.391 . S
H1848 C1856 0.950 . S
H1849 C1861 0.950 . S
H1850 C1858 0.950 1_655 S
H1851 C1860 0.950 . S
H1852 C1862 0.950 . S
H1853 C1864 0.950 1_455 S
H1854 C1866 0.950 . S
H1855 C1867 0.950 . S
C1856 H1848 0.950 . S
C1856 C1857 1.386 . S
C1856 C1858 1.391 . S
C1857 C1856 1.386 . S
C1857 C1861 1.393 . S
C1858 H1850 0.950 1_455 S
C1858 C1856 1.391 . S
C1858 C1859 1.400 . S
C1859 C1858 1.400 . S
C1859 C1860 1.398 . S
C1859 C1865 1.491 1_455 S
C1860 H1851 0.950 . S
C1860 C1859 1.398 . S
C1860 C1861 1.391 . S
C1861 H1849 0.950 . S
C1861 C1857 1.393 . S
C1861 C1860 1.391 . S
C1862 H1852 0.950 . S
C1862 C1863 1.386 . S
C1862 C1864 1.391 . S
C1863 C1862 1.386 . S
C1863 C1867 1.393 . S
C1864 H1853 0.950 1_655 S
C1864 C1862 1.391 . S
C1864 C1865 1.400 . S
C1865 C1859 1.491 1_655 S
C1865 C1864 1.400 . S
C1865 C1866 1.398 . S
C1866 H1854 0.950 . S
C1866 C1865 1.398 . S
C1866 C1867 1.391 . S
C1867 H1855 0.950 . S
C1867 C1863 1.393 . S
C1867 C1866 1.391 . S
H1868 C1876 0.950 . S
H1869 C1881 0.950 . S
H1870 C1878 0.950 . S
H1871 C1880 0.950 . S
H1872 C1882 0.950 . S
H1873 C1884 0.950 . S
H1874 C1886 0.950 . S
H1875 C1887 0.950 . S
C1876 H1868 0.950 . S
C1876 C1877 1.386 . S
C1876 C1878 1.391 . S
C1877 C1876 1.386 . S
C1877 C1881 1.393 . S
C1878 H1870 0.950 . S
C1878 C1876 1.391 . S
C1878 C1879 1.400 1_556 S
C1879 C1878 1.400 1_554 S
C1879 C1880 1.398 . S
C1879 C1885 1.491 . S
C1880 H1871 0.950 . S
C1880 C1879 1.398 . S
C1880 C1881 1.391 1_554 S
C1881 H1869 0.950 . S
C1881 C1877 1.393 . S
C1881 C1880 1.391 1_556 S
C1882 H1872 0.950 . S
C1882 C1883 1.386 . S
C1882 C1884 1.391 . S
C1883 C1882 1.386 . S
C1883 C1887 1.393 . S
C1884 H1873 0.950 . S
C1884 C1882 1.391 . S
C1884 C1885 1.400 . S
C1885 C1879 1.491 . S
C1885 C1884 1.400 . S
C1885 C1886 1.398 . S
C1886 H1874 0.950 . S
C1886 C1885 1.398 . S
C1886 C1887 1.391 . S
C1887 H1875 0.950 . S
C1887 C1883 1.393 . S
C1887 C1886 1.391 . S
H1888 C1896 0.950 . S
H1889 C1901 0.950 . S
H1890 C1898 0.950 . S
H1891 C1900 0.950 . S
H1892 C1902 0.950 . S
H1893 C1904 0.950 . S
H1894 C1906 0.950 . S
H1895 C1907 0.950 . S
C1896 H1888 0.950 . S
C1896 C1897 1.386 . S
C1896 C1898 1.391 . S
C1897 C1896 1.386 . S
C1897 C1901 1.393 . S
C1898 H1890 0.950 . S
C1898 C1896 1.391 . S
C1898 C1899 1.400 . S
C1899 C1898 1.400 . S
C1899 C1900 1.398 . S
C1899 C1905 1.491 . S
C1900 H1891 0.950 . S
C1900 C1899 1.398 . S
C1900 C1901 1.391 . S
C1901 H1889 0.950 . S
C1901 C1897 1.393 . S
C1901 C1900 1.391 . S
C1902 H1892 0.950 . S
C1902 C1903 1.386 . S
C1902 C1904 1.391 . S
C1903 C1902 1.386 . S
C1903 C1907 1.393 . S
C1904 H1893 0.950 . S
C1904 C1902 1.391 . S
C1904 C1905 1.400 . S
C1905 C1899 1.491 . S
C1905 C1904 1.400 . S
C1905 C1906 1.398 . S
C1906 H1894 0.950 . S
C1906 C1905 1.398 . S
C1906 C1907 1.391 . S
C1907 H1895 0.950 . S
C1907 C1903 1.393 . S
C1907 C1906 1.391 . S
H1908 C1916 0.950 . S
H1909 C1921 0.950 . S
H1910 C1918 0.950 . S
H1911 C1920 0.950 . S
H1912 C1922 0.950 . S
H1913 C1924 0.950 . S
H1914 C1926 0.950 . S
H1915 C1927 0.950 . S
C1916 H1908 0.950 . S
C1916 C1917 1.386 . S
C1916 C1918 1.391 . S
C1917 C1916 1.386 . S
C1917 C1921 1.393 . S
C1918 H1910 0.950 . S
C1918 C1916 1.391 . S
C1918 C1919 1.400 . S
C1919 C1918 1.400 . S
C1919 C1920 1.398 . S
C1919 C1925 1.491 . S
C1920 H1911 0.950 . S
C1920 C1919 1.398 . S
C1920 C1921 1.391 . S
C1921 H1909 0.950 . S
C1921 C1917 1.393 . S
C1921 C1920 1.391 . S
C1922 H1912 0.950 . S
C1922 C1923 1.386 . S
C1922 C1924 1.391 . S
C1923 C1922 1.386 . S
C1923 C1927 1.393 . S
C1924 H1913 0.950 . S
C1924 C1922 1.391 . S
C1924 C1925 1.400 . S
C1925 C1919 1.491 . S
C1925 C1924 1.400 . S
C1925 C1926 1.398 . S
C1926 H1914 0.950 . S
C1926 C1925 1.398 . S
C1926 C1927 1.391 . S
C1927 H1915 0.950 . S
C1927 C1923 1.393 . S
C1927 C1926 1.391 . S
H1928 C1936 0.950 . S
H1929 C1941 0.950 . S
H1930 C1938 0.950 1_455 S
H1931 C1940 0.950 . S
H1932 C1942 0.950 . S
H1933 C1944 0.950 . S
H1934 C1946 0.950 . S
H1935 C1947 0.950 . S
C1936 H1928 0.950 . S
C1936 C1937 1.386 . S
C1936 C1938 1.391 . S
C1937 C1936 1.386 . S
C1937 C1941 1.393 . S
C1938 H1930 0.950 1_655 S
C1938 C1936 1.391 . S
C1938 C1939 1.400 . S
C1939 C1938 1.400 . S
C1939 C1940 1.398 . S
C1939 C1945 1.491 1_655 S
C1940 H1931 0.950 . S
C1940 C1939 1.398 . S
C1940 C1941 1.391 . S
C1941 H1929 0.950 . S
C1941 C1937 1.393 . S
C1941 C1940 1.391 . S
C1942 H1932 0.950 . S
C1942 C1943 1.386 . S
C1942 C1944 1.391 1_455 S
C1943 C1942 1.386 . S
C1943 C1947 1.393 . S
C1944 H1933 0.950 . S
C1944 C1942 1.391 1_655 S
C1944 C1945 1.400 1_655 S
C1945 C1939 1.491 1_455 S
C1945 C1944 1.400 1_455 S
C1945 C1946 1.398 . S
C1946 H1934 0.950 . S
C1946 C1945 1.398 . S
C1946 C1947 1.391 . S
C1947 H1935 0.950 . S
C1947 C1943 1.393 . S
C1947 C1946 1.391 . S
H1948 C1956 0.950 . S
H1949 C1961 0.950 . S
H1950 C1958 0.950 . S
H1951 C1960 0.950 . S
H1952 C1962 0.950 . S
H1953 C1964 0.950 . S
H1954 C1966 0.950 . S
H1955 C1967 0.950 . S
C1956 H1948 0.950 . S
C1956 C1957 1.386 . S
C1956 C1958 1.391 . S
C1957 C1956 1.386 . S
C1957 C1961 1.393 . S
C1958 H1950 0.950 . S
C1958 C1956 1.391 . S
C1958 C1959 1.400 . S
C1959 C1958 1.400 . S
C1959 C1960 1.398 . S
C1959 C1965 1.491 . S
C1960 H1951 0.950 . S
C1960 C1959 1.398 . S
C1960 C1961 1.391 . S
C1961 H1949 0.950 . S
C1961 C1957 1.393 . S
C1961 C1960 1.391 . S
C1962 H1952 0.950 . S
C1962 C1963 1.386 . S
C1962 C1964 1.391 1_556 S
C1963 C1962 1.386 . S
C1963 C1967 1.393 . S
C1964 H1953 0.950 . S
C1964 C1962 1.391 1_554 S
C1964 C1965 1.400 . S
C1965 C1959 1.491 . S
C1965 C1964 1.400 . S
C1965 C1966 1.398 1_554 S
C1966 H1954 0.950 . S
C1966 C1965 1.398 1_556 S
C1966 C1967 1.391 . S
C1967 H1955 0.950 . S
C1967 C1963 1.393 . S
C1967 C1966 1.391 . S
H1968 C1976 0.950 . S
H1969 C1981 0.950 . S
H1970 C1978 0.950 . S
H1971 C1980 0.950 . S
H1972 C1982 0.950 . S
H1973 C1984 0.950 . S
H1974 C1986 0.950 . S
H1975 C1987 0.950 . S
C1976 H1968 0.950 . S
C1976 C1977 1.386 . S
C1976 C1978 1.391 . S
C1977 C1976 1.386 . S
C1977 C1981 1.393 . S
C1978 H1970 0.950 . S
C1978 C1976 1.391 . S
C1978 C1979 1.400 . S
C1979 C1978 1.400 . S
C1979 C1980 1.398 . S
C1979 C1985 1.491 . S
C1980 H1971 0.950 . S
C1980 C1979 1.398 . S
C1980 C1981 1.391 . S
C1981 H1969 0.950 . S
C1981 C1977 1.393 . S
C1981 C1980 1.391 . S
C1982 H1972 0.950 . S
C1982 C1983 1.386 . S
C1982 C1984 1.391 . S
C1983 C1982 1.386 . S
C1983 C1987 1.393 . S
C1984 H1973 0.950 . S
C1984 C1982 1.391 . S
C1984 C1985 1.400 . S
C1985 C1979 1.491 . S
C1985 C1984 1.400 . S
C1985 C1986 1.398 . S
C1986 H1974 0.950 . S
C1986 C1985 1.398 . S
C1986 C1987 1.391 . S
C1987 H1975 0.950 . S
C1987 C1983 1.393 . S
C1987 C1986 1.391 . S
H1988 C1996 0.950 . S
H1989 C2001 0.950 . S
H1990 C1998 0.950 . S
H1991 C2000 0.950 . S
H1992 C2002 0.950 . S
H1993 C2004 0.950 . S
H1994 C2006 0.950 . S
H1995 C2007 0.950 . S
C1996 H1988 0.950 . S
C1996 C1997 1.386 . S
C1996 C1998 1.391 . S
C1997 C1996 1.386 . S
C1997 C2001 1.393 . S
C1998 H1990 0.950 . S
C1998 C1996 1.391 . S
C1998 C1999 1.400 . S
C1999 C1998 1.400 . S
C1999 C2000 1.398 . S
C1999 C2005 1.491 . S
C2000 H1991 0.950 . S
C2000 C1999 1.398 . S
C2000 C2001 1.391 . S
C2001 H1989 0.950 . S
C2001 C1997 1.393 . S
C2001 C2000 1.391 . S
C2002 H1992 0.950 . S
C2002 C2003 1.386 . S
C2002 C2004 1.391 . S
C2003 C2002 1.386 . S
C2003 C2007 1.393 . S
C2004 H1993 0.950 . S
C2004 C2002 1.391 . S
C2004 C2005 1.400 . S
C2005 C1999 1.491 . S
C2005 C2004 1.400 . S
C2005 C2006 1.398 . S
C2006 H1994 0.950 . S
C2006 C2005 1.398 . S
C2006 C2007 1.391 . S
C2007 H1995 0.950 . S
C2007 C2003 1.393 . S
C2007 C2006 1.391 . S
H2008 C2016 0.950 . S
H2009 C2021 0.950 . S
H2010 C2018 0.950 . S
H2011 C2020 0.950 . S
H2012 C2022 0.950 . S
H2013 C2024 0.950 1_455 S
H2014 C2026 0.950 . S
H2015 C2027 0.950 . S
C2016 H2008 0.950 . S
C2016 C2017 1.386 . S
C2016 C2018 1.391 1_455 S
C2017 C2016 1.386 . S
C2017 C2021 1.393 . S
C2018 H2010 0.950 . S
C2018 C2016 1.391 1_655 S
C2018 C2019 1.400 1_655 S
C2019 C2018 1.400 1_455 S
C2019 C2020 1.398 . S
C2019 C2025 1.491 1_455 S
C2020 H2011 0.950 . S
C2020 C2019 1.398 . S
C2020 C2021 1.391 . S
C2021 H2009 0.950 . S
C2021 C2017 1.393 . S
C2021 C2020 1.391 . S
C2022 H2012 0.950 . S
C2022 C2023 1.386 . S
C2022 C2024 1.391 . S
C2023 C2022 1.386 . S
C2023 C2027 1.393 . S
C2024 H2013 0.950 1_655 S
C2024 C2022 1.391 . S
C2024 C2025 1.400 . S
C2025 C2019 1.491 1_655 S
C2025 C2024 1.400 . S
C2025 C2026 1.398 . S
C2026 H2014 0.950 . S
C2026 C2025 1.398 . S
C2026 C2027 1.391 . S
C2027 H2015 0.950 . S
C2027 C2023 1.393 . S
C2027 C2026 1.391 . S
H2028 C2036 0.950 . S
H2029 C2041 0.946 1_554 S
H2030 C2038 0.950 . S
H2031 C2040 0.950 . S
H2032 C2042 0.950 . S
H2033 C2044 0.950 . S
H2034 C2046 0.950 . S
H2035 C2047 0.950 . S
C2036 H2028 0.950 . S
C2036 C2037 1.386 . S
C2036 C2038 1.391 . S
C2037 C2036 1.386 . S
C2037 C2041 1.413 . S
C2038 H2030 0.950 . S
C2038 C2036 1.391 . S
C2038 C2039 1.400 1_556 S
C2039 C2038 1.400 1_554 S
C2039 C2040 1.398 . S
C2039 C2045 1.491 . S
C2040 H2031 0.950 . S
C2040 C2039 1.398 . S
C2040 C2041 1.375 1_554 S
C2041 H2029 0.946 1_556 S
C2041 C2037 1.413 . S
C2041 C2040 1.375 1_556 S
C2042 H2032 0.950 . S
C2042 C2043 1.386 . S
C2042 C2044 1.391 . S
C2043 C2042 1.386 . S
C2043 C2047 1.393 . S
C2044 H2033 0.950 . S
C2044 C2042 1.391 . S
C2044 C2045 1.400 . S
C2045 C2039 1.491 . S
C2045 C2044 1.400 . S
C2045 C2046 1.398 . S
C2046 H2034 0.950 . S
C2046 C2045 1.398 . S
C2046 C2047 1.391 . S
C2047 H2035 0.950 . S
C2047 C2043 1.393 . S
C2047 C2046 1.391 . S
H2048 C2056 0.950 . S
H2049 C2061 0.950 . S
H2050 C2058 0.950 . S
H2051 C2060 0.950 1_565 S
H2052 C2062 0.950 . S
H2053 C2064 0.950 . S
H2054 C2066 0.950 1_545 S
H2055 C2067 0.950 . S
C2056 H2048 0.950 . S
C2056 C2057 1.386 . S
C2056 C2058 1.391 . S
C2057 C2056 1.386 . S
C2057 C2061 1.393 . S
C2058 H2050 0.950 . S
C2058 C2056 1.391 . S
C2058 C2059 1.400 . S
C2059 C2058 1.400 . S
C2059 C2060 1.398 . S
C2059 C2065 1.491 1_545 S
C2060 H2051 0.950 1_545 S
C2060 C2059 1.398 . S
C2060 C2061 1.391 . S
C2061 H2049 0.950 . S
C2061 C2057 1.393 . S
C2061 C2060 1.391 . S
C2062 H2052 0.950 . S
C2062 C2063 1.386 . S
C2062 C2064 1.391 . S
C2063 C2062 1.386 . S
C2063 C2067 1.393 . S
C2064 H2053 0.950 . S
C2064 C2062 1.391 . S
C2064 C2065 1.400 . S
C2065 C2059 1.491 1_565 S
C2065 C2064 1.400 . S
C2065 C2066 1.398 . S
C2066 H2054 0.950 1_565 S
C2066 C2065 1.398 . S
C2066 C2067 1.391 . S
C2067 H2055 0.950 . S
C2067 C2063 1.393 . S
C2067 C2066 1.391 . S
H2068 C2076 0.950 . S
H2069 C2081 0.950 . S
H2070 C2078 0.950 . S
H2071 C2080 0.950 . S
H2072 C2082 0.950 . S
H2073 C2084 0.950 . S
H2074 C2086 0.950 . S
H2075 C2087 0.950 . S
C2076 H2068 0.950 . S
C2076 C2077 1.386 . S
C2076 C2078 1.391 . S
C2077 C2076 1.386 . S
C2077 C2081 1.393 . S
C2078 H2070 0.950 . S
C2078 C2076 1.391 . S
C2078 C2079 1.400 . S
C2079 C2078 1.400 . S
C2079 C2080 1.398 . S
C2079 C2085 1.491 . S
C2080 H2071 0.950 . S
C2080 C2079 1.398 . S
C2080 C2081 1.391 . S
C2081 H2069 0.950 . S
C2081 C2077 1.393 . S
C2081 C2080 1.391 . S
C2082 H2072 0.950 . S
C2082 C2083 1.386 . S
C2082 C2084 1.391 . S
C2083 C2082 1.386 . S
C2083 C2087 1.393 . S
C2084 H2073 0.950 . S
C2084 C2082 1.391 . S
C2084 C2085 1.400 . S
C2085 C2079 1.491 . S
C2085 C2084 1.400 . S
C2085 C2086 1.398 . S
C2086 H2074 0.950 . S
C2086 C2085 1.398 . S
C2086 C2087 1.391 . S
C2087 H2075 0.950 . S
C2087 C2083 1.393 . S
C2087 C2086 1.391 . S
H2088 C2096 0.950 . S
H2089 C2101 0.950 . S
H2090 C2098 0.950 . S
H2091 C2100 0.950 . S
H2092 C2102 0.950 . S
H2093 C2104 0.950 . S
H2094 C2106 0.950 . S
H2095 C2107 0.950 . S
C2096 H2088 0.950 . S
C2096 C2097 1.386 . S
C2096 C2098 1.391 . S
C2097 C2096 1.386 . S
C2097 C2101 1.393 . S
C2098 H2090 0.950 . S
C2098 C2096 1.391 . S
C2098 C2099 1.400 . S
C2099 C2098 1.400 . S
C2099 C2100 1.398 . S
C2099 C2105 1.491 1_545 S
C2100 H2091 0.950 . S
C2100 C2099 1.398 . S
C2100 C2101 1.391 . S
C2101 H2089 0.950 . S
C2101 C2097 1.393 . S
C2101 C2100 1.391 . S
C2102 H2092 0.950 . S
C2102 C2103 1.386 . S
C2102 C2104 1.391 . S
C2103 C2102 1.386 . S
C2103 C2107 1.393 . S
C2104 H2093 0.950 . S
C2104 C2102 1.391 . S
C2104 C2105 1.400 . S
C2105 C2099 1.491 1_565 S
C2105 C2104 1.400 . S
C2105 C2106 1.398 . S
C2106 H2094 0.950 . S
C2106 C2105 1.398 . S
C2106 C2107 1.391 . S
C2107 H2095 0.950 . S
C2107 C2103 1.393 . S
C2107 C2106 1.391 . S
H2108 C2116 0.950 . S
H2109 C2121 0.950 . S
H2110 C2118 0.950 . S
H2111 C2120 0.950 . S
H2112 C2122 0.950 . S
H2113 C2124 0.950 . S
H2114 C2126 0.950 . S
H2115 C2127 0.950 . S
C2116 H2108 0.950 . S
C2116 C2117 1.386 . S
C2116 C2118 1.388 1_556 S
C2117 C2116 1.386 . S
C2117 C2121 1.393 . S
C2118 H2110 0.950 . S
C2118 C2116 1.388 1_554 S
C2118 C2119 1.403 . S
C2119 C2118 1.403 . S
C2119 C2120 1.398 . S
C2119 C2125 1.491 . S
C2120 H2111 0.950 . S
C2120 C2119 1.398 . S
C2120 C2121 1.391 1_554 S
C2121 H2109 0.950 . S
C2121 C2117 1.393 . S
C2121 C2120 1.391 1_556 S
C2122 H2112 0.950 . S
C2122 C2123 1.386 . S
C2122 C2124 1.391 . S
C2123 C2122 1.386 . S
C2123 C2127 1.393 . S
C2124 H2113 0.950 . S
C2124 C2122 1.391 . S
C2124 C2125 1.400 . S
C2125 C2119 1.491 . S
C2125 C2124 1.400 . S
C2125 C2126 1.398 . S
C2126 H2114 0.950 . S
C2126 C2125 1.398 . S
C2126 C2127 1.391 . S
C2127 H2115 0.950 . S
C2127 C2123 1.393 . S
C2127 C2126 1.391 . S
H2128 C2136 0.950 . S
H2129 C2141 0.950 . S
H2130 C2138 0.950 1_545 S
H2131 C2140 0.950 . S
H2132 C2142 0.950 . S
H2133 C2144 0.950 1_565 S
H2134 C2146 0.950 . S
H2135 C2147 0.950 . S
C2136 H2128 0.950 . S
C2136 C2137 1.386 . S
C2136 C2138 1.391 . S
C2137 C2136 1.386 . S
C2137 C2141 1.393 . S
C2138 H2130 0.950 1_565 S
C2138 C2136 1.391 . S
C2138 C2139 1.400 . S
C2139 C2138 1.400 . S
C2139 C2140 1.398 . S
C2139 C2145 1.491 1_565 S
C2140 H2131 0.950 . S
C2140 C2139 1.398 . S
C2140 C2141 1.391 . S
C2141 H2129 0.950 . S
C2141 C2137 1.393 . S
C2141 C2140 1.391 . S
C2142 H2132 0.950 . S
C2142 C2143 1.386 . S
C2142 C2144 1.391 . S
C2143 C2142 1.386 . S
C2143 C2147 1.393 . S
C2144 H2133 0.950 1_545 S
C2144 C2142 1.391 . S
C2144 C2145 1.400 . S
C2145 C2139 1.491 1_545 S
C2145 C2144 1.400 . S
C2145 C2146 1.398 . S
C2146 H2134 0.950 . S
C2146 C2145 1.398 . S
C2146 C2147 1.391 . S
C2147 H2135 0.950 . S
C2147 C2143 1.393 . S
C2147 C2146 1.391 . S
H2148 C2156 0.950 . S
H2149 C2161 0.950 . S
H2150 C2158 0.950 . S
H2151 C2160 0.950 . S
H2152 C2162 0.950 . S
H2153 C2164 0.950 . S
H2154 C2166 0.950 . S
H2155 C2167 0.950 . S
C2156 H2148 0.950 . S
C2156 C2157 1.386 . S
C2156 C2158 1.391 . S
C2157 C2156 1.386 . S
C2157 C2161 1.393 . S
C2158 H2150 0.950 . S
C2158 C2156 1.391 . S
C2158 C2159 1.400 . S
C2159 C2158 1.400 . S
C2159 C2160 1.398 . S
C2159 C2165 1.491 . S
C2160 H2151 0.950 . S
C2160 C2159 1.398 . S
C2160 C2161 1.391 . S
C2161 H2149 0.950 . S
C2161 C2157 1.393 . S
C2161 C2160 1.391 . S
C2162 H2152 0.950 . S
C2162 C2163 1.386 . S
C2162 C2164 1.391 . S
C2163 C2162 1.386 . S
C2163 C2167 1.393 . S
C2164 H2153 0.950 . S
C2164 C2162 1.391 . S
C2164 C2165 1.400 . S
C2165 C2159 1.491 . S
C2165 C2164 1.400 . S
C2165 C2166 1.398 . S
C2166 H2154 0.950 . S
C2166 C2165 1.398 . S
C2166 C2167 1.391 . S
C2167 H2155 0.950 . S
C2167 C2163 1.393 . S
C2167 C2166 1.391 . S
H2168 C2176 0.950 . S
H2169 C2181 0.950 . S
H2170 C2178 0.911 1_545 S
H2171 C2180 0.950 . S
H2172 C2182 0.950 . S
H2173 C2184 0.911 1_565 S
H2174 C2186 0.950 . S
H2175 C2187 0.950 . S
C2176 H2168 0.950 . S
C2176 C2177 1.386 . S
C2176 C2178 1.391 . S
C2177 C2176 1.386 . S
C2177 C2181 1.393 . S
C2178 H2170 0.911 1_565 S
C2178 C2176 1.391 . S
C2178 C2179 1.400 . S
C2179 C2178 1.400 . S
C2179 C2180 1.398 . S
C2179 C2185 1.491 1_565 S
C2180 H2171 0.950 . S
C2180 C2179 1.398 . S
C2180 C2181 1.391 . S
C2181 H2169 0.950 . S
C2181 C2177 1.393 . S
C2181 C2180 1.391 . S
C2182 H2172 0.950 . S
C2182 C2183 1.386 . S
C2182 C2184 1.391 . S
C2183 C2182 1.386 . S
C2183 C2187 1.393 . S
C2184 H2173 0.911 1_545 S
C2184 C2182 1.391 . S
C2184 C2185 1.400 . S
C2185 C2179 1.491 1_545 S
C2185 C2184 1.400 . S
C2185 C2186 1.398 . S
C2186 H2174 0.950 . S
C2186 C2185 1.398 . S
C2186 C2187 1.391 . S
C2187 H2175 0.950 . S
C2187 C2183 1.393 . S
C2187 C2186 1.391 . S
H2188 C2196 0.950 . S
H2189 C2201 0.950 . S
H2190 C2198 0.950 . S
H2191 C2200 0.950 . S
H2192 C2202 0.950 . S
H2193 C2204 0.950 . S
H2194 C2206 0.950 . S
H2195 C2207 0.949 1_554 S
C2196 H2188 0.950 . S
C2196 C2197 1.386 . S
C2196 C2198 1.391 . S
C2197 C2196 1.386 . S
C2197 C2201 1.393 . S
C2198 H2190 0.950 . S
C2198 C2196 1.391 . S
C2198 C2199 1.400 . S
C2199 C2198 1.400 . S
C2199 C2200 1.398 . S
C2199 C2205 1.491 . S
C2200 H2191 0.950 . S
C2200 C2199 1.398 . S
C2200 C2201 1.391 . S
C2201 H2189 0.950 . S
C2201 C2197 1.393 . S
C2201 C2200 1.391 . S
C2202 H2192 0.950 . S
C2202 C2203 1.386 . S
C2202 C2204 1.391 . S
C2203 C2202 1.386 . S
C2203 C2207 1.393 . S
C2204 H2193 0.950 . S
C2204 C2202 1.391 . S
C2204 C2205 1.400 1_556 S
C2205 C2199 1.491 . S
C2205 C2204 1.400 1_554 S
C2205 C2206 1.398 . S
C2206 H2194 0.950 . S
C2206 C2205 1.398 . S
C2206 C2207 1.391 1_554 S
C2207 H2195 0.949 1_556 S
C2207 C2203 1.393 . S
C2207 C2206 1.391 1_556 S
H2208 C2216 0.950 . S
H2209 C2221 0.950 . S
H2210 C2218 0.950 . S
H2211 C2220 0.950 . S
H2212 C2222 0.950 . S
H2213 C2224 0.950 . S
H2214 C2226 0.950 . S
H2215 C2227 0.950 . S
C2216 H2208 0.950 . S
C2216 C2217 1.386 . S
C2216 C2218 1.391 . S
C2217 C2216 1.386 . S
C2217 C2221 1.393 . S
C2218 H2210 0.950 . S
C2218 C2216 1.391 . S
C2218 C2219 1.400 . S
C2219 C2218 1.400 . S
C2219 C2220 1.398 . S
C2219 C2225 1.491 . S
C2220 H2211 0.950 . S
C2220 C2219 1.398 . S
C2220 C2221 1.391 . S
C2221 H2209 0.950 . S
C2221 C2217 1.393 . S
C2221 C2220 1.391 . S
C2222 H2212 0.950 . S
C2222 C2223 1.386 . S
C2222 C2224 1.391 . S
C2223 C2222 1.386 . S
C2223 C2227 1.393 . S
C2224 H2213 0.950 . S
C2224 C2222 1.391 . S
C2224 C2225 1.400 . S
C2225 C2219 1.491 . S
C2225 C2224 1.400 . S
C2225 C2226 1.398 . S
C2226 H2214 0.950 . S
C2226 C2225 1.398 . S
C2226 C2227 1.391 . S
C2227 H2215 0.950 . S
C2227 C2223 1.393 . S
C2227 C2226 1.391 . S
H2228 C2236 0.950 . S
H2229 C2241 0.949 1_554 S
H2230 C2238 0.950 . S
H2231 C2240 0.950 . S
H2232 C2242 0.950 . S
H2233 C2244 0.950 . S
H2234 C2246 0.950 . S
H2235 C2247 0.950 . S
C2236 H2228 0.950 . S
C2236 C2237 1.386 . S
C2236 C2238 1.391 . S
C2237 C2236 1.386 . S
C2237 C2241 1.393 . S
C2238 H2230 0.950 . S
C2238 C2236 1.391 . S
C2238 C2239 1.400 1_556 S
C2239 C2238 1.400 1_554 S
C2239 C2240 1.398 . S
C2239 C2245 1.491 . S
C2240 H2231 0.950 . S
C2240 C2239 1.398 . S
C2240 C2241 1.391 1_554 S
C2241 H2229 0.949 1_556 S
C2241 C2237 1.393 . S
C2241 C2240 1.391 1_556 S
C2242 H2232 0.950 . S
C2242 C2243 1.386 . S
C2242 C2244 1.391 . S
C2243 C2242 1.386 . S
C2243 C2247 1.393 . S
C2244 H2233 0.950 . S
C2244 C2242 1.391 . S
C2244 C2245 1.400 . S
C2245 C2239 1.491 . S
C2245 C2244 1.400 . S
C2245 C2246 1.398 . S
C2246 H2234 0.950 . S
C2246 C2245 1.398 . S
C2246 C2247 1.391 . S
C2247 H2235 0.950 . S
C2247 C2243 1.393 . S
C2247 C2246 1.391 . S
H2248 C2256 0.950 . S
H2249 C2261 0.950 . S
H2250 C2258 0.950 . S
H2251 C2260 0.950 . S
H2252 C2262 0.950 . S
H2253 C2264 0.950 . S
H2254 C2266 0.950 . S
H2255 C2267 0.950 . S
C2256 H2248 0.950 . S
C2256 C2257 1.386 . S
C2256 C2258 1.391 . S
C2257 C2256 1.386 . S
C2257 C2261 1.393 . S
C2258 H2250 0.950 . S
C2258 C2256 1.391 . S
C2258 C2259 1.400 . S
C2259 C2258 1.400 . S
C2259 C2260 1.398 . S
C2259 C2265 1.491 . S
C2260 H2251 0.950 . S
C2260 C2259 1.398 . S
C2260 C2261 1.391 . S
C2261 H2249 0.950 . S
C2261 C2257 1.393 . S
C2261 C2260 1.391 . S
C2262 H2252 0.950 . S
C2262 C2263 1.386 . S
C2262 C2264 1.391 . S
C2263 C2262 1.386 . S
C2263 C2267 1.393 . S
C2264 H2253 0.950 . S
C2264 C2262 1.391 . S
C2264 C2265 1.400 . S
C2265 C2259 1.491 . S
C2265 C2264 1.400 . S
C2265 C2266 1.398 . S
C2266 H2254 0.950 . S
C2266 C2265 1.398 . S
C2266 C2267 1.391 . S
C2267 H2255 0.950 . S
C2267 C2263 1.393 . S
C2267 C2266 1.391 . S
H2268 C2276 0.950 . S
H2269 C2281 0.950 . S
H2270 C2278 0.950 . S
H2271 C2280 0.950 . S
H2272 C2282 0.950 . S
H2273 C2284 0.950 . S
H2274 C2286 0.950 . S
H2275 C2287 0.950 . S
C2276 H2268 0.950 . S
C2276 C2277 1.386 . S
C2276 C2278 1.391 . S
C2277 C2276 1.386 . S
C2277 C2281 1.393 . S
C2278 H2270 0.950 . S
C2278 C2276 1.391 . S
C2278 C2279 1.400 . S
C2279 C2278 1.400 . S
C2279 C2280 1.398 . S
C2279 C2285 1.491 . S
C2280 H2271 0.950 . S
C2280 C2279 1.398 . S
C2280 C2281 1.391 . S
C2281 H2269 0.950 . S
C2281 C2277 1.393 . S
C2281 C2280 1.391 . S
C2282 H2272 0.950 . S
C2282 C2283 1.386 . S
C2282 C2284 1.391 . S
C2283 C2282 1.386 . S
C2283 C2287 1.393 . S
C2284 H2273 0.950 . S
C2284 C2282 1.391 . S
C2284 C2285 1.400 . S
C2285 C2279 1.491 . S
C2285 C2284 1.400 . S
C2285 C2286 1.398 . S
C2286 H2274 0.950 . S
C2286 C2285 1.398 . S
C2286 C2287 1.391 . S
C2287 H2275 0.950 . S
C2287 C2283 1.393 . S
C2287 C2286 1.391 . S
H2288 C2296 0.950 . S
H2289 C2301 0.950 . S
H2290 C2298 0.950 . S
H2291 C2300 0.950 . S
H2292 C2302 0.950 . S
H2293 C2304 0.950 . S
H2294 C2306 0.950 . S
H2295 C2307 0.950 . S
C2296 H2288 0.950 . S
C2296 C2297 1.386 . S
C2296 C2298 1.391 . S
C2297 C2296 1.386 . S
C2297 C2301 1.393 . S
C2298 H2290 0.950 . S
C2298 C2296 1.391 . S
C2298 C2299 1.400 . S
C2299 C2298 1.400 . S
C2299 C2300 1.398 . S
C2299 C2305 1.491 . S
C2300 H2291 0.950 . S
C2300 C2299 1.398 . S
C2300 C2301 1.391 . S
C2301 H2289 0.950 . S
C2301 C2297 1.393 . S
C2301 C2300 1.391 . S
C2302 H2292 0.950 . S
C2302 C2303 1.386 . S
C2302 C2304 1.391 . S
C2303 C2302 1.386 . S
C2303 C2307 1.393 . S
C2304 H2293 0.950 . S
C2304 C2302 1.391 . S
C2304 C2305 1.400 . S
C2305 C2299 1.491 . S
C2305 C2304 1.400 . S
C2305 C2306 1.398 . S
C2306 H2294 0.950 . S
C2306 C2305 1.398 . S
C2306 C2307 1.391 . S
C2307 H2295 0.950 . S
C2307 C2303 1.393 . S
C2307 C2306 1.391 . S
H2308 C2316 0.950 . S
H2309 C2321 0.950 . S
H2310 C2318 0.950 . S
H2311 C2320 0.950 . S
H2312 C2322 0.950 . S
H2313 C2324 0.950 . S
H2314 C2326 0.950 . S
H2315 C2327 0.950 . S
C2316 H2308 0.950 . S
C2316 C2317 1.386 . S
C2316 C2318 1.391 . S
C2317 C2316 1.386 . S
C2317 C2321 1.393 . S
C2318 H2310 0.950 . S
C2318 C2316 1.391 . S
C2318 C2319 1.400 . S
C2319 C2318 1.400 . S
C2319 C2320 1.398 . S
C2319 C2325 1.491 . S
C2320 H2311 0.950 . S
C2320 C2319 1.398 . S
C2320 C2321 1.391 . S
C2321 H2309 0.950 . S
C2321 C2317 1.393 . S
C2321 C2320 1.391 . S
C2322 H2312 0.950 . S
C2322 C2323 1.386 . S
C2322 C2324 1.391 . S
C2323 C2322 1.386 . S
C2323 C2327 1.393 . S
C2324 H2313 0.950 . S
C2324 C2322 1.391 . S
C2324 C2325 1.400 1_556 S
C2325 C2319 1.491 . S
C2325 C2324 1.400 1_554 S
C2325 C2326 1.398 . S
C2326 H2314 0.950 . S
C2326 C2325 1.398 . S
C2326 C2327 1.391 1_554 S
C2327 H2315 0.950 . S
C2327 C2323 1.393 . S
C2327 C2326 1.391 1_556 S
H2328 C2336 0.950 . S
H2329 C2341 0.950 . S
H2330 C2338 0.950 . S
H2331 C2340 0.950 . S
H2332 C2342 0.950 . S
H2333 C2344 0.950 . S
H2334 C2346 0.950 . S
H2335 C2347 0.950 . S
C2336 H2328 0.950 . S
C2336 C2337 1.386 . S
C2336 C2338 1.391 . S
C2337 C2336 1.386 . S
C2337 C2341 1.393 . S
C2338 H2330 0.950 . S
C2338 C2336 1.391 . S
C2338 C2339 1.400 . S
C2339 C2338 1.400 . S
C2339 C2340 1.398 . S
C2339 C2345 1.491 . S
C2340 H2331 0.950 . S
C2340 C2339 1.398 . S
C2340 C2341 1.391 . S
C2341 H2329 0.950 . S
C2341 C2337 1.393 . S
C2341 C2340 1.391 . S
C2342 H2332 0.950 . S
C2342 C2343 1.386 . S
C2342 C2344 1.391 . S
C2343 C2342 1.386 . S
C2343 C2347 1.393 . S
C2344 H2333 0.950 . S
C2344 C2342 1.391 . S
C2344 C2345 1.400 . S
C2345 C2339 1.491 . S
C2345 C2344 1.400 . S
C2345 C2346 1.398 . S
C2346 H2334 0.950 . S
C2346 C2345 1.398 . S
C2346 C2347 1.391 . S
C2347 H2335 0.950 . S
C2347 C2343 1.393 . S
C2347 C2346 1.391 . S
H2348 C2356 0.950 . S
H2349 C2361 0.950 . S
H2350 C2358 0.950 . S
H2351 C2360 0.950 . S
H2352 C2362 0.950 . S
H2353 C2364 0.950 . S
H2354 C2366 0.950 . S
H2355 C2367 0.950 . S
C2356 H2348 0.950 . S
C2356 C2357 1.386 . S
C2356 C2358 1.391 . S
C2357 C2356 1.386 . S
C2357 C2361 1.393 . S
C2358 H2350 0.950 . S
C2358 C2356 1.391 . S
C2358 C2359 1.400 . S
C2359 C2358 1.400 . S
C2359 C2360 1.398 . S
C2359 C2365 1.491 . S
C2360 H2351 0.950 . S
C2360 C2359 1.398 . S
C2360 C2361 1.391 . S
C2361 H2349 0.950 . S
C2361 C2357 1.393 . S
C2361 C2360 1.391 . S
C2362 H2352 0.950 . S
C2362 C2363 1.386 . S
C2362 C2364 1.391 . S
C2363 C2362 1.386 . S
C2363 C2367 1.393 . S
C2364 H2353 0.950 . S
C2364 C2362 1.391 . S
C2364 C2365 1.400 . S
C2365 C2359 1.491 . S
C2365 C2364 1.400 . S
C2365 C2366 1.398 . S
C2366 H2354 0.950 . S
C2366 C2365 1.398 . S
C2366 C2367 1.391 . S
C2367 H2355 0.950 . S
C2367 C2363 1.393 . S
C2367 C2366 1.391 . S
H2368 C2376 0.950 . S
H2369 C2381 0.950 . S
H2370 C2378 0.950 . S
H2371 C2380 0.950 . S
H2372 C2382 0.950 . S
H2373 C2384 0.950 . S
H2374 C2386 0.950 . S
H2375 C2387 0.950 . S
C2376 H2368 0.950 . S
C2376 C2377 1.386 . S
C2376 C2378 1.391 . S
C2377 C2376 1.386 . S
C2377 C2381 1.393 . S
C2378 H2370 0.950 . S
C2378 C2376 1.391 . S
C2378 C2379 1.400 . S
C2379 C2378 1.400 . S
C2379 C2380 1.398 . S
C2379 C2385 1.491 . S
C2380 H2371 0.950 . S
C2380 C2379 1.398 . S
C2380 C2381 1.391 . S
C2381 H2369 0.950 . S
C2381 C2377 1.393 . S
C2381 C2380 1.391 . S
C2382 H2372 0.950 . S
C2382 C2383 1.386 . S
C2382 C2384 1.391 . S
C2383 C2382 1.386 . S
C2383 C2387 1.393 . S
C2384 H2373 0.950 . S
C2384 C2382 1.391 . S
C2384 C2385 1.400 . S
C2385 C2379 1.491 . S
C2385 C2384 1.400 . S
C2385 C2386 1.398 . S
C2386 H2374 0.950 . S
C2386 C2385 1.398 . S
C2386 C2387 1.391 . S
C2387 H2375 0.950 . S
C2387 C2383 1.393 . S
C2387 C2386 1.391 . S
H2388 C2396 0.950 . S
H2389 C2401 0.950 . S
H2390 C2398 0.950 . S
H2391 C2400 0.950 . S
H2392 C2402 0.950 . S
H2393 C2404 0.950 . S
H2394 C2406 0.950 . S
H2395 C2407 0.950 . S
C2396 H2388 0.950 . S
C2396 C2397 1.386 . S
C2396 C2398 1.391 . S
C2397 C2396 1.386 . S
C2397 C2401 1.393 . S
C2398 H2390 0.950 . S
C2398 C2396 1.391 . S
C2398 C2399 1.400 . S
C2399 C2398 1.400 . S
C2399 C2400 1.398 . S
C2399 C2405 1.491 . S
C2400 H2391 0.950 . S
C2400 C2399 1.398 . S
C2400 C2401 1.391 . S
C2401 H2389 0.950 . S
C2401 C2397 1.393 . S
C2401 C2400 1.391 . S
C2402 H2392 0.950 . S
C2402 C2403 1.386 . S
C2402 C2404 1.391 . S
C2403 C2402 1.386 . S
C2403 C2407 1.393 . S
C2404 H2393 0.950 . S
C2404 C2402 1.391 . S
C2404 C2405 1.400 . S
C2405 C2399 1.491 . S
C2405 C2404 1.400 . S
C2405 C2406 1.398 . S
C2406 H2394 0.950 . S
C2406 C2405 1.398 . S
C2406 C2407 1.391 . S
C2407 H2395 0.950 . S
C2407 C2403 1.393 . S
C2407 C2406 1.391 . S
H2408 C2416 0.950 . S
H2409 C2421 0.950 . S
H2410 C2418 0.950 . S
H2411 C2420 0.950 . S
H2412 C2422 0.950 . S
H2413 C2424 0.950 . S
H2414 C2426 0.950 . S
H2415 C2427 0.950 . S
C2416 H2408 0.950 . S
C2416 C2417 1.386 . S
C2416 C2418 1.391 . S
C2417 C2416 1.386 . S
C2417 C2421 1.393 . S
C2418 H2410 0.950 . S
C2418 C2416 1.391 . S
C2418 C2419 1.400 . S
C2419 C2418 1.400 . S
C2419 C2420 1.398 . S
C2419 C2425 1.491 . S
C2420 H2411 0.950 . S
C2420 C2419 1.398 . S
C2420 C2421 1.391 . S
C2421 H2409 0.950 . S
C2421 C2417 1.393 . S
C2421 C2420 1.391 . S
C2422 H2412 0.950 . S
C2422 C2423 1.386 . S
C2422 C2424 1.391 . S
C2423 C2422 1.386 . S
C2423 C2427 1.393 . S
C2424 H2413 0.950 . S
C2424 C2422 1.391 . S
C2424 C2425 1.400 . S
C2425 C2419 1.491 . S
C2425 C2424 1.400 . S
C2425 C2426 1.398 . S
C2426 H2414 0.950 . S
C2426 C2425 1.398 . S
C2426 C2427 1.391 . S
C2427 H2415 0.950 . S
C2427 C2423 1.393 . S
C2427 C2426 1.391 . S
H2428 C2436 0.950 . S
H2429 C2441 0.950 1_554 S
H2430 C2438 0.950 . S
H2431 C2440 0.950 . S
H2432 C2442 0.950 . S
H2433 C2444 0.950 . S
H2434 C2446 0.950 . S
H2435 C2447 0.950 . S
C2436 H2428 0.950 . S
C2436 C2437 1.386 1_556 S
C2436 C2438 1.391 . S
C2437 C2436 1.386 1_554 S
C2437 C2441 1.393 1_554 S
C2438 H2430 0.950 . S
C2438 C2436 1.391 . S
C2438 C2439 1.400 . S
C2439 C2438 1.400 . S
C2439 C2440 1.398 . S
C2439 C2445 1.491 . S
C2440 H2431 0.950 . S
C2440 C2439 1.398 . S
C2440 C2441 1.391 . S
C2441 H2429 0.950 1_556 S
C2441 C2437 1.393 1_556 S
C2441 C2440 1.391 . S
C2442 H2432 0.950 . S
C2442 C2443 1.386 . S
C2442 C2444 1.391 . S
C2443 C2442 1.386 . S
C2443 C2447 1.393 . S
C2444 H2433 0.950 . S
C2444 C2442 1.391 . S
C2444 C2445 1.400 . S
C2445 C2439 1.491 . S
C2445 C2444 1.400 . S
C2445 C2446 1.398 . S
C2446 H2434 0.950 . S
C2446 C2445 1.398 . S
C2446 C2447 1.391 . S
C2447 H2435 0.950 . S
C2447 C2443 1.393 . S
C2447 C2446 1.391 . S
H2448 C2456 0.950 . S
H2449 C2461 0.950 . S
H2450 C2458 0.950 . S
H2451 C2460 0.950 . S
H2452 C2462 0.950 . S
H2453 C2464 0.950 . S
H2454 C2466 0.950 . S
H2455 C2467 0.950 . S
C2456 H2448 0.950 . S
C2456 C2457 1.386 1_556 S
C2456 C2458 1.391 . S
C2457 C2456 1.386 1_554 S
C2457 C2461 1.393 . S
C2458 H2450 0.950 . S
C2458 C2456 1.391 . S
C2458 C2459 1.400 . S
C2459 C2458 1.400 . S
C2459 C2460 1.398 . S
C2459 C2465 1.491 . S
C2460 H2451 0.950 . S
C2460 C2459 1.398 . S
C2460 C2461 1.391 1_556 S
C2461 H2449 0.950 . S
C2461 C2457 1.393 . S
C2461 C2460 1.391 1_554 S
C2462 H2452 0.950 . S
C2462 C2463 1.386 . S
C2462 C2464 1.391 . S
C2463 C2462 1.386 . S
C2463 C2467 1.393 . S
C2464 H2453 0.950 . S
C2464 C2462 1.391 . S
C2464 C2465 1.400 . S
C2465 C2459 1.491 . S
C2465 C2464 1.400 . S
C2465 C2466 1.398 . S
C2466 H2454 0.950 . S
C2466 C2465 1.398 . S
C2466 C2467 1.391 . S
C2467 H2455 0.950 . S
C2467 C2463 1.393 . S
C2467 C2466 1.391 . S
H2468 C2476 0.950 . S
H2469 C2481 0.950 . S
H2470 C2478 0.950 . S
H2471 C2480 0.950 . S
H2472 C2482 0.950 . S
H2473 C2484 0.950 . S
H2474 C2486 0.950 . S
H2475 C2487 0.950 . S
C2476 H2468 0.950 . S
C2476 C2477 1.386 . S
C2476 C2478 1.391 . S
C2477 C2476 1.386 . S
C2477 C2481 1.393 . S
C2478 H2470 0.950 . S
C2478 C2476 1.391 . S
C2478 C2479 1.400 . S
C2479 C2478 1.400 . S
C2479 C2480 1.398 . S
C2479 C2485 1.491 . S
C2480 H2471 0.950 . S
C2480 C2479 1.398 . S
C2480 C2481 1.391 . S
C2481 H2469 0.950 . S
C2481 C2477 1.393 . S
C2481 C2480 1.391 . S
C2482 H2472 0.950 . S
C2482 C2483 1.386 . S
C2482 C2484 1.391 . S
C2483 C2482 1.386 . S
C2483 C2487 1.393 . S
C2484 H2473 0.950 . S
C2484 C2482 1.391 . S
C2484 C2485 1.400 . S
C2485 C2479 1.491 . S
C2485 C2484 1.400 . S
C2485 C2486 1.398 . S
C2486 H2474 0.950 . S
C2486 C2485 1.398 . S
C2486 C2487 1.391 . S
C2487 H2475 0.950 . S
C2487 C2483 1.393 . S
C2487 C2486 1.391 . S
H2488 C2496 0.950 . S
H2489 C2501 0.950 . S
H2490 C2498 0.950 . S
H2491 C2500 0.950 . S
H2492 C2502 0.950 . S
H2493 C2504 0.950 . S
H2494 C2506 0.950 . S
H2495 C2507 0.950 . S
C2496 H2488 0.950 . S
C2496 C2497 1.386 . S
C2496 C2498 1.391 . S
C2497 C2496 1.386 . S
C2497 C2501 1.393 . S
C2498 H2490 0.950 . S
C2498 C2496 1.391 . S
C2498 C2499 1.400 . S
C2499 C2498 1.400 . S
C2499 C2500 1.398 . S
C2499 C2505 1.491 . S
C2500 H2491 0.950 . S
C2500 C2499 1.398 . S
C2500 C2501 1.391 . S
C2501 H2489 0.950 . S
C2501 C2497 1.393 . S
C2501 C2500 1.391 . S
C2502 H2492 0.950 . S
C2502 C2503 1.386 . S
C2502 C2504 1.391 . S
C2503 C2502 1.386 . S
C2503 C2507 1.393 . S
C2504 H2493 0.950 . S
C2504 C2502 1.391 . S
C2504 C2505 1.400 . S
C2505 C2499 1.491 . S
C2505 C2504 1.400 . S
C2505 C2506 1.398 . S
C2506 H2494 0.950 . S
C2506 C2505 1.398 . S
C2506 C2507 1.391 . S
C2507 H2495 0.950 . S
C2507 C2503 1.393 . S
C2507 C2506 1.391 . S
H2508 C2516 0.950 . S
H2509 C2521 0.950 . S
H2510 C2518 0.950 . S
H2511 C2520 0.950 . S
H2512 C2522 0.950 . S
H2513 C2524 0.950 . S
H2514 C2526 0.950 . S
H2515 C2527 0.950 . S
C2516 H2508 0.950 . S
C2516 C2517 1.386 . S
C2516 C2518 1.391 . S
C2517 C2516 1.386 . S
C2517 C2521 1.393 . S
C2518 H2510 0.950 . S
C2518 C2516 1.391 . S
C2518 C2519 1.400 . S
C2519 C2518 1.400 . S
C2519 C2520 1.398 . S
C2519 C2525 1.491 . S
C2520 H2511 0.950 . S
C2520 C2519 1.398 . S
C2520 C2521 1.391 . S
C2521 H2509 0.950 . S
C2521 C2517 1.393 . S
C2521 C2520 1.391 . S
C2522 H2512 0.950 . S
C2522 C2523 1.386 . S
C2522 C2524 1.391 . S
C2523 C2522 1.386 . S
C2523 C2527 1.393 . S
C2524 H2513 0.950 . S
C2524 C2522 1.391 . S
C2524 C2525 1.400 . S
C2525 C2519 1.491 . S
C2525 C2524 1.400 . S
C2525 C2526 1.398 . S
C2526 H2514 0.950 . S
C2526 C2525 1.398 . S
C2526 C2527 1.391 . S
C2527 H2515 0.950 . S
C2527 C2523 1.393 . S
C2527 C2526 1.391 . S
H2528 C2536 0.950 . S
H2529 C2541 0.950 . S
H2530 C2538 0.950 . S
H2531 C2540 0.950 . S
H2532 C2542 0.950 . S
H2533 C2544 0.950 . S
H2534 C2546 0.950 . S
H2535 C2547 0.950 . S
C2536 H2528 0.950 . S
C2536 C2537 1.386 . S
C2536 C2538 1.391 . S
C2537 C2536 1.386 . S
C2537 C2541 1.393 . S
C2538 H2530 0.950 . S
C2538 C2536 1.391 . S
C2538 C2539 1.400 . S
C2539 C2538 1.400 . S
C2539 C2540 1.398 . S
C2539 C2545 1.491 . S
C2540 H2531 0.950 . S
C2540 C2539 1.398 . S
C2540 C2541 1.391 . S
C2541 H2529 0.950 . S
C2541 C2537 1.393 . S
C2541 C2540 1.391 . S
C2542 H2532 0.950 . S
C2542 C2543 1.386 . S
C2542 C2544 1.391 . S
C2543 C2542 1.386 . S
C2543 C2547 1.393 . S
C2544 H2533 0.950 . S
C2544 C2542 1.391 . S
C2544 C2545 1.400 . S
C2545 C2539 1.491 . S
C2545 C2544 1.400 . S
C2545 C2546 1.398 . S
C2546 H2534 0.950 . S
C2546 C2545 1.398 . S
C2546 C2547 1.391 . S
C2547 H2535 0.950 . S
C2547 C2543 1.393 . S
C2547 C2546 1.391 . S
H2548 C2556 0.950 . S
H2549 C2561 0.950 . S
H2550 C2558 0.950 . S
H2551 C2560 0.950 . S
H2552 C2562 0.950 . S
H2553 C2564 0.950 . S
H2554 C2566 0.950 . S
H2555 C2567 0.958 . S
C2556 H2548 0.950 . S
C2556 C2557 1.386 . S
C2556 C2558 1.391 . S
C2557 C2556 1.386 . S
C2557 C2561 1.393 . S
C2558 H2550 0.950 . S
C2558 C2556 1.391 . S
C2558 C2559 1.400 . S
C2559 C2558 1.400 . S
C2559 C2560 1.398 . S
C2559 C2565 1.491 . S
C2560 H2551 0.950 . S
C2560 C2559 1.398 . S
C2560 C2561 1.391 . S
C2561 H2549 0.950 . S
C2561 C2557 1.393 . S
C2561 C2560 1.391 . S
C2562 H2552 0.950 . S
C2562 C2563 1.386 1_556 S
C2562 C2564 1.391 . S
C2563 C2562 1.386 1_554 S
C2563 C2567 1.394 . S
C2564 H2553 0.950 . S
C2564 C2562 1.391 . S
C2564 C2565 1.400 . S
C2565 C2559 1.491 . S
C2565 C2564 1.400 . S
C2565 C2566 1.398 . S
C2566 H2554 0.950 . S
C2566 C2565 1.398 . S
C2566 C2567 1.382 1_556 S
C2567 H2555 0.958 . S
C2567 C2563 1.394 . S
C2567 C2566 1.382 1_554 S
H2568 C2576 0.950 . S
H2569 C2581 0.950 . S
H2570 C2578 0.950 . S
H2571 C2580 0.950 . S
H2572 C2582 0.950 . S
H2573 C2584 0.950 . S
H2574 C2586 0.950 . S
H2575 C2587 0.950 . S
C2576 H2568 0.950 . S
C2576 C2577 1.386 . S
C2576 C2578 1.391 . S
C2577 C2576 1.386 . S
C2577 C2581 1.393 . S
C2578 H2570 0.950 . S
C2578 C2576 1.391 . S
C2578 C2579 1.400 . S
C2579 C2578 1.400 . S
C2579 C2580 1.398 . S
C2579 C2585 1.491 . S
C2580 H2571 0.950 . S
C2580 C2579 1.398 . S
C2580 C2581 1.391 . S
C2581 H2569 0.950 . S
C2581 C2577 1.393 . S
C2581 C2580 1.391 . S
C2582 H2572 0.950 . S
C2582 C2583 1.386 . S
C2582 C2584 1.391 . S
C2583 C2582 1.386 . S
C2583 C2587 1.393 . S
C2584 H2573 0.950 . S
C2584 C2582 1.391 . S
C2584 C2585 1.400 . S
C2585 C2579 1.491 . S
C2585 C2584 1.400 . S
C2585 C2586 1.398 . S
C2586 H2574 0.950 . S
C2586 C2585 1.398 . S
C2586 C2587 1.391 . S
C2587 H2575 0.950 . S
C2587 C2583 1.393 . S
C2587 C2586 1.391 . S
H2588 C2596 0.950 . S
H2589 C2601 0.950 . S
H2590 C2598 0.950 . S
H2591 C2600 0.950 . S
H2592 C2602 0.950 . S
H2593 C2604 0.950 . S
H2594 C2606 0.950 . S
H2595 C2607 0.950 . S
C2596 H2588 0.950 . S
C2596 C2597 1.386 . S
C2596 C2598 1.391 . S
C2597 C2596 1.386 . S
C2597 C2601 1.393 . S
C2598 H2590 0.950 . S
C2598 C2596 1.391 . S
C2598 C2599 1.400 . S
C2599 C2598 1.400 . S
C2599 C2600 1.398 . S
C2599 C2605 1.491 . S
C2600 H2591 0.950 . S
C2600 C2599 1.398 . S
C2600 C2601 1.391 . S
C2601 H2589 0.950 . S
C2601 C2597 1.393 . S
C2601 C2600 1.391 . S
C2602 H2592 0.950 . S
C2602 C2603 1.386 . S
C2602 C2604 1.391 . S
C2603 C2602 1.386 . S
C2603 C2607 1.393 . S
C2604 H2593 0.950 . S
C2604 C2602 1.391 . S
C2604 C2605 1.400 . S
C2605 C2599 1.491 . S
C2605 C2604 1.400 . S
C2605 C2606 1.398 . S
C2606 H2594 0.950 . S
C2606 C2605 1.398 . S
C2606 C2607 1.391 . S
C2607 H2595 0.950 . S
C2607 C2603 1.393 . S
C2607 C2606 1.391 . S
H2608 C2616 0.950 . S
H2609 C2621 0.950 . S
H2610 C2618 0.950 . S
H2611 C2620 0.950 . S
H2612 C2622 0.950 . S
H2613 C2624 0.950 . S
H2614 C2626 0.950 . S
H2615 C2627 0.950 . S
C2616 H2608 0.950 . S
C2616 C2617 1.386 . S
C2616 C2618 1.391 . S
C2617 C2616 1.386 . S
C2617 C2621 1.393 . S
C2618 H2610 0.950 . S
C2618 C2616 1.391 . S
C2618 C2619 1.400 . S
C2619 C2618 1.400 . S
C2619 C2620 1.398 . S
C2619 C2625 1.491 . S
C2620 H2611 0.950 . S
C2620 C2619 1.398 . S
C2620 C2621 1.391 . S
C2621 H2609 0.950 . S
C2621 C2617 1.393 . S
C2621 C2620 1.391 . S
C2622 H2612 0.950 . S
C2622 C2623 1.386 . S
C2622 C2624 1.391 . S
C2623 C2622 1.386 . S
C2623 C2627 1.393 . S
C2624 H2613 0.950 . S
C2624 C2622 1.391 . S
C2624 C2625 1.400 . S
C2625 C2619 1.491 . S
C2625 C2624 1.400 . S
C2625 C2626 1.398 . S
C2626 H2614 0.950 . S
C2626 C2625 1.398 . S
C2626 C2627 1.391 . S
C2627 H2615 0.950 . S
C2627 C2623 1.393 . S
C2627 C2626 1.391 . S
H2628 C2636 0.950 . S
H2629 C2641 0.950 . S
H2630 C2638 0.950 . S
H2631 C2640 0.950 . S
H2632 C2642 0.950 . S
H2633 C2644 0.950 . S
H2634 C2646 0.950 . S
H2635 C2647 0.950 . S
C2636 H2628 0.950 . S
C2636 C2637 1.386 . S
C2636 C2638 1.391 . S
C2637 C2636 1.386 . S
C2637 C2641 1.393 . S
C2638 H2630 0.950 . S
C2638 C2636 1.391 . S
C2638 C2639 1.400 . S
C2639 C2638 1.400 . S
C2639 C2640 1.398 . S
C2639 C2645 1.491 . S
C2640 H2631 0.950 . S
C2640 C2639 1.398 . S
C2640 C2641 1.391 . S
C2641 H2629 0.950 . S
C2641 C2637 1.393 . S
C2641 C2640 1.391 . S
C2642 H2632 0.950 . S
C2642 C2643 1.386 . S
C2642 C2644 1.391 . S
C2643 C2642 1.386 . S
C2643 C2647 1.393 . S
C2644 H2633 0.950 . S
C2644 C2642 1.391 . S
C2644 C2645 1.400 . S
C2645 C2639 1.491 . S
C2645 C2644 1.400 . S
C2645 C2646 1.398 . S
C2646 H2634 0.950 . S
C2646 C2645 1.398 . S
C2646 C2647 1.391 . S
C2647 H2635 0.950 . S
C2647 C2643 1.393 . S
C2647 C2646 1.391 . S
H2648 C2656 0.950 . S
H2649 C2661 0.950 1_554 S
H2650 C2658 0.950 . S
H2651 C2660 0.950 . S
H2652 C2662 0.950 . S
H2653 C2664 0.950 . S
H2654 C2666 0.950 . S
H2655 C2667 0.950 . S
C2656 H2648 0.950 . S
C2656 C2657 1.386 1_556 S
C2656 C2658 1.391 . S
C2657 C2656 1.386 1_554 S
C2657 C2661 1.393 1_554 S
C2658 H2650 0.950 . S
C2658 C2656 1.391 . S
C2658 C2659 1.400 . S
C2659 C2658 1.400 . S
C2659 C2660 1.398 . S
C2659 C2665 1.491 . S
C2660 H2651 0.950 . S
C2660 C2659 1.398 . S
C2660 C2661 1.391 . S
C2661 H2649 0.950 1_556 S
C2661 C2657 1.393 1_556 S
C2661 C2660 1.391 . S
C2662 H2652 0.950 . S
C2662 C2663 1.386 . S
C2662 C2664 1.391 . S
C2663 C2662 1.386 . S
C2663 C2667 1.393 . S
C2664 H2653 0.950 . S
C2664 C2662 1.391 . S
C2664 C2665 1.400 . S
C2665 C2659 1.491 . S
C2665 C2664 1.400 . S
C2665 C2666 1.398 . S
C2666 H2654 0.950 . S
C2666 C2665 1.398 . S
C2666 C2667 1.391 . S
C2667 H2655 0.950 . S
C2667 C2663 1.393 . S
C2667 C2666 1.391 . S
H2668 C2676 0.950 . S
H2669 C2681 0.950 . S
H2670 C2678 0.950 . S
H2671 C2680 0.950 . S
H2672 C2682 0.950 . S
H2673 C2684 0.950 . S
H2674 C2686 0.950 . S
H2675 C2687 0.950 . S
C2676 H2668 0.950 . S
C2676 C2677 1.386 . S
C2676 C2678 1.391 . S
C2677 C2676 1.386 . S
C2677 C2681 1.393 . S
C2678 H2670 0.950 . S
C2678 C2676 1.391 . S
C2678 C2679 1.400 . S
C2679 C2678 1.400 . S
C2679 C2680 1.398 . S
C2679 C2685 1.491 . S
C2680 H2671 0.950 . S
C2680 C2679 1.398 . S
C2680 C2681 1.391 . S
C2681 H2669 0.950 . S
C2681 C2677 1.393 . S
C2681 C2680 1.391 . S
C2682 H2672 0.950 . S
C2682 C2683 1.386 . S
C2682 C2684 1.391 . S
C2683 C2682 1.386 . S
C2683 C2687 1.393 . S
C2684 H2673 0.950 . S
C2684 C2682 1.391 . S
C2684 C2685 1.400 . S
C2685 C2679 1.491 . S
C2685 C2684 1.400 . S
C2685 C2686 1.398 . S
C2686 H2674 0.950 . S
C2686 C2685 1.398 . S
C2686 C2687 1.391 . S
C2687 H2675 0.950 . S
C2687 C2683 1.393 . S
C2687 C2686 1.391 . S
C1097 C156 2.260 . S
C1103 C20 2.258 . S
C1117 C54 2.255 . S
C1123 C190 2.264 . S
C1137 C88 2.260 . S
C1143 C224 2.256 . S
C1157 C122 2.261 . S
C1163 C258 2.255 . S
C1177 C417 0.889 . S
C1183 C281 0.889 . S
C1197 C315 0.897 . S
C1203 C451 0.891 . S
C1217 C349 0.896 . S
C1223 C485 0.891 . S
C1237 C519 0.903 . S
C1243 C383 0.905 . S
C1257 C564 2.256 . S
C1263 C700 2.262 . S
C1277 C598 2.263 . S
C1283 C734 2.254 . S
C1297 C768 2.256 . S
C1303 C632 2.262 . S
C1317 C666 2.258 . S
C1323 C802 2.262 . S
C1337 C825 0.904 . S
C1343 C961 0.904 . S
C1357 C859 0.903 . S
C1363 C995 0.905 . S
C1377 C1029 0.904 . S
C1383 C893 0.900 . S
C1397 C927 0.901 . S
C1403 C1063 0.904 . S
C1417 C413 0.944 . S
C1423 C9 0.988 . S
C1437 C43 0.991 . S
C1443 C991 0.952 . S
C1457 C481 0.941 . S
C1463 C77 0.990 . S
C1477 C111 0.992 . S
C1483 C1059 0.939 . S
C1497 C145 0.985 . S
C1503 C277 0.951 . S
C1517 C855 0.939 . S
C1523 C179 0.994 . S
C1537 C345 0.938 . S
C1543 C213 0.992 . S
C1557 C247 0.988 . S
C1563 C923 0.945 . S
C1577 C292 2.427 . S
C1583 C138 2.437 . S
C1597 C326 2.428 . S
C1603 C716 2.437 . S
C1617 C360 2.431 . S
C1623 C206 2.435 . S
C1637 C394 2.431 . S
C1643 C784 2.434 . S
C1657 C2 2.436 . S
C1663 C428 2.428 . S
C1677 C580 2.435 . S
C1683 C462 2.430 . S
C1697 C496 2.432 . S
C1703 C70 2.434 . S
C1717 C648 2.442 . S
C1723 C530 2.422 . S
C1737 C553 0.986 . S
C1743 C957 0.963 . S
C1757 C587 0.983 . S
C1763 C447 0.969 . S
C1777 C621 0.976 . S
C1783 C1025 0.971 . S
C1797 C655 0.987 . S
C1803 C515 0.961 . S
C1817 C689 0.986 . S
C1823 C821 0.949 . S
C1837 C311 0.939 . S
C1843 C723 0.992 . S
C1857 C889 0.981 . S
C1863 C757 0.975 . S
C1877 C791 0.980 . S
C1883 C379 0.963 . S
C1897 C682 2.434 . S
C1903 C836 2.431 . S
C1917 C172 2.434 . S
C1923 C870 2.432 . S
C1937 C750 2.434 . S
C1943 C904 2.432 . S
C1957 C240 2.441 . S
C1963 C938 2.424 . S
C1977 C972 2.432 . S
C1983 C546 2.435 . S
C1997 C36 2.435 . S
C2003 C1006 2.431 . S
C2017 C1040 2.423 . S
C2023 C614 2.441 . S
C2037 C104 2.435 . S
C2043 C1074 2.431 . S
C2057 C5 0.978 . S
C2063 C141 1.005 . S
C2077 C175 1.019 . S
C2083 C39 0.976 . S
C2097 C209 0.985 . S
C2103 C73 0.994 . S
C2117 C107 0.998 . S
C2123 C243 0.981 . S
C2137 C274 2.596 . S
C2143 C410 2.603 . S
C2157 C308 2.604 . S
C2163 C444 2.598 . S
C2177 C478 2.598 . S
C2183 C342 2.604 . S
C2197 C376 2.596 . S
C2203 C512 2.602 . S
C2217 C685 0.980 . S
C2223 C549 1.000 . S
C2237 C583 1.015 . S
C2243 C719 0.998 . S
C2257 C753 0.987 . S
C2263 C617 0.992 . S
C2277 C651 1.020 . S
C2283 C787 0.987 . S
C2297 C954 2.596 . S
C2303 C818 2.604 . S
C2317 C852 2.597 . S
C2323 C988 2.601 . S
C2337 C1022 2.604 . S
C2343 C886 2.597 . S
C2357 C920 2.604 . S
C2363 C1056 2.598 . S
C2377 C271 0.309 . S
C2383 C33 0.312 . S
C2397 C67 0.319 . S
C2403 C169 0.325 . S
C2417 C101 0.352 . S
C2423 C203 0.359 . S
C2437 C237 0.313 . S
C2443 C135 0.310 . S
C2457 C305 0.389 . S
C2463 C543 0.385 . S
C2477 C441 0.368 . S
C2483 C339 0.362 . S
C2497 C475 0.336 . S
C2503 C373 0.342 . S
C2517 C407 0.319 . S
C2523 C509 0.318 . S
C2537 C815 0.309 . S
C2543 C577 0.309 . S
C2557 C611 0.384 . S
C2563 C713 0.384 . S
C2577 C747 0.352 . S
C2583 C645 0.345 . S
C2597 C679 0.372 . S
C2603 C781 0.377 . S
C2617 C849 0.341 . S
C2623 C1087 0.335 . S
C2637 C883 0.372 . S
C2643 C985 0.366 . S
C2657 C917 0.324 . S
C2663 C1019 0.320 . S
C2677 C1053 0.353 . S
C2683 C951 0.346 . S
