# Generated by pormake.
# Topology whw, (6)-cn, num edge types: 1
# Building blocks:
#     Node 0, Type 0, BuildingBlock: HISSIN_clean_sbu_0, # of connection points: 6
#     Node 1, Type 0, BuildingBlock: HISSIN_clean_sbu_0, # of connection points: 6
#     Node 2, Type 0, BuildingBlock: HISSIN_clean_sbu_0, # of connection points: 6
#     Node 3, Type 0, BuildingBlock: HISSIN_clean_sbu_0, # of connection points: 6
#     Node 4, Type 0, BuildingBlock: HISSIN_clean_sbu_0, # of connection points: 6
#     Node 5, Type 0, BuildingBlock: HISSIN_clean_sbu_0, # of connection points: 6
#     Node 6, Type 0, BuildingBlock: HISSIN_clean_sbu_0, # of connection points: 6
#     Node 7, Type 0, BuildingBlock: HISSIN_clean_sbu_0, # of connection points: 6
#     Node 8, Type 0, BuildingBlock: HISSIN_clean_sbu_0, # of connection points: 6
#     Node 9, Type 0, BuildingBlock: HISSIN_clean_sbu_0, # of connection points: 6
#     Node 10, Type 0, BuildingBlock: HISSIN_clean_sbu_0, # of connection points: 6
#     Node 11, Type 0, BuildingBlock: HISSIN_clean_sbu_0, # of connection points: 6
#     Node 12, Type 0, BuildingBlock: HISSIN_clean_sbu_0, # of connection points: 6
#     Node 13, Type 0, BuildingBlock: HISSIN_clean_sbu_0, # of connection points: 6
#     Node 14, Type 0, BuildingBlock: HISSIN_clean_sbu_0, # of connection points: 6
#     Node 15, Type 0, BuildingBlock: HISSIN_clean_sbu_0, # of connection points: 6
#     Edge 16, Type (0, 0), BuildingBlock: CIFDUS_clean_linker_0, # of connection points: 2
#     Edge 17, Type (0, 0), BuildingBlock: CIFDUS_clean_linker_0, # of connection points: 2
#     Edge 18, Type (0, 0), BuildingBlock: CIFDUS_clean_linker_0, # of connection points: 2
#     Edge 19, Type (0, 0), BuildingBlock: CIFDUS_clean_linker_0, # of connection points: 2
#     Edge 20, Type (0, 0), BuildingBlock: CIFDUS_clean_linker_0, # of connection points: 2
#     Edge 21, Type (0, 0), BuildingBlock: CIFDUS_clean_linker_0, # of connection points: 2
#     Edge 22, Type (0, 0), BuildingBlock: CIFDUS_clean_linker_0, # of connection points: 2
#     Edge 23, Type (0, 0), BuildingBlock: CIFDUS_clean_linker_0, # of connection points: 2
#     Edge 24, Type (0, 0), BuildingBlock: CIFDUS_clean_linker_0, # of connection points: 2
#     Edge 25, Type (0, 0), BuildingBlock: CIFDUS_clean_linker_0, # of connection points: 2
#     Edge 26, Type (0, 0), BuildingBlock: CIFDUS_clean_linker_0, # of connection points: 2
#     Edge 27, Type (0, 0), BuildingBlock: CIFDUS_clean_linker_0, # of connection points: 2
#     Edge 28, Type (0, 0), BuildingBlock: CIFDUS_clean_linker_0, # of connection points: 2
#     Edge 29, Type (0, 0), BuildingBlock: CIFDUS_clean_linker_0, # of connection points: 2
#     Edge 30, Type (0, 0), BuildingBlock: CIFDUS_clean_linker_0, # of connection points: 2
#     Edge 31, Type (0, 0), BuildingBlock: CIFDUS_clean_linker_0, # of connection points: 2
#     Edge 32, Type (0, 0), BuildingBlock: CIFDUS_clean_linker_0, # of connection points: 2
#     Edge 33, Type (0, 0), BuildingBlock: CIFDUS_clean_linker_0, # of connection points: 2
#     Edge 34, Type (0, 0), BuildingBlock: CIFDUS_clean_linker_0, # of connection points: 2
#     Edge 35, Type (0, 0), BuildingBlock: CIFDUS_clean_linker_0, # of connection points: 2
#     Edge 36, Type (0, 0), BuildingBlock: CIFDUS_clean_linker_0, # of connection points: 2
#     Edge 37, Type (0, 0), BuildingBlock: CIFDUS_clean_linker_0, # of connection points: 2
#     Edge 38, Type (0, 0), BuildingBlock: CIFDUS_clean_linker_0, # of connection points: 2
#     Edge 39, Type (0, 0), BuildingBlock: CIFDUS_clean_linker_0, # of connection points: 2
#     Edge 40, Type (0, 0), BuildingBlock: CIFDUS_clean_linker_0, # of connection points: 2
#     Edge 41, Type (0, 0), BuildingBlock: CIFDUS_clean_linker_0, # of connection points: 2
#     Edge 42, Type (0, 0), BuildingBlock: CIFDUS_clean_linker_0, # of connection points: 2
#     Edge 43, Type (0, 0), BuildingBlock: CIFDUS_clean_linker_0, # of connection points: 2
#     Edge 44, Type (0, 0), BuildingBlock: CIFDUS_clean_linker_0, # of connection points: 2
#     Edge 45, Type (0, 0), BuildingBlock: CIFDUS_clean_linker_0, # of connection points: 2
#     Edge 46, Type (0, 0), BuildingBlock: CIFDUS_clean_linker_0, # of connection points: 2
#     Edge 47, Type (0, 0), BuildingBlock: CIFDUS_clean_linker_0, # of connection points: 2
#     Edge 48, Type (0, 0), BuildingBlock: CIFDUS_clean_linker_0, # of connection points: 2
#     Edge 49, Type (0, 0), BuildingBlock: CIFDUS_clean_linker_0, # of connection points: 2
#     Edge 50, Type (0, 0), BuildingBlock: CIFDUS_clean_linker_0, # of connection points: 2
#     Edge 51, Type (0, 0), BuildingBlock: CIFDUS_clean_linker_0, # of connection points: 2
#     Edge 52, Type (0, 0), BuildingBlock: CIFDUS_clean_linker_0, # of connection points: 2
#     Edge 53, Type (0, 0), BuildingBlock: CIFDUS_clean_linker_0, # of connection points: 2
#     Edge 54, Type (0, 0), BuildingBlock: CIFDUS_clean_linker_0, # of connection points: 2
#     Edge 55, Type (0, 0), BuildingBlock: CIFDUS_clean_linker_0, # of connection points: 2
#     Edge 56, Type (0, 0), BuildingBlock: CIFDUS_clean_linker_0, # of connection points: 2
#     Edge 57, Type (0, 0), BuildingBlock: CIFDUS_clean_linker_0, # of connection points: 2
#     Edge 58, Type (0, 0), BuildingBlock: CIFDUS_clean_linker_0, # of connection points: 2
#     Edge 59, Type (0, 0), BuildingBlock: CIFDUS_clean_linker_0, # of connection points: 2
#     Edge 60, Type (0, 0), BuildingBlock: CIFDUS_clean_linker_0, # of connection points: 2
#     Edge 61, Type (0, 0), BuildingBlock: CIFDUS_clean_linker_0, # of connection points: 2
#     Edge 62, Type (0, 0), BuildingBlock: CIFDUS_clean_linker_0, # of connection points: 2
#     Edge 63, Type (0, 0), BuildingBlock: CIFDUS_clean_linker_0, # of connection points: 2
# Relax obj value: 0.957
# Max RMSD: 0.202
# Mean RMSD: 0.202
data_MOF--net-whw--node1-HISSIN_clean_sbu_0--edge1-CIFDUS_clean_linker_0
_symmetry_space_group_name_H-M    P1
_symmetry_Int_Tables_number       1
_symmetry_cell_setting            triclinic
loop_
_symmetry_equiv_pos_as_xyz
'x, y, z'
_cell_length_a     42.396862
_cell_length_b     42.135903
_cell_length_c     25.038723
_cell_angle_alpha  90.474619
_cell_angle_beta   89.749742
_cell_angle_gamma 90.140817
loop_
_atom_site_label
_atom_site_type_symbol
_atom_site_fract_x
_atom_site_fract_y
_atom_site_fract_z
_atom_type_partial_charge
Eu0 Eu 0.02544 0.14651 0.29443 0.0
Eu1 Eu 0.96999 0.1049 0.32833 0.0
C2 C 0.02263 0.07607 0.25806 0.0
C3 C 0.10781 0.1564 0.25179 0.0
C4 C 0.11522 0.12803 0.27821 0.0
C5 C 0.14688 0.14373 0.18427 0.0
C6 C 0.13704 0.10682 0.25606 0.0
C7 C 0.12515 0.16494 0.20655 0.0
C8 C 0.15141 0.1134 0.20669 0.0
C9 C 0.078 0.17286 0.26397 0.0
O10 O -0.00334 0.12056 0.41025 0.0
O11 O 0.03071 0.15893 0.38254 0.0
C12 C 0.01767 0.14377 0.42243 0.0
O13 O 0.98314 0.17675 0.31853 0.0
O14 O 0.96615 0.05663 0.359 0.0
O15 O 0.92428 0.0817 0.33206 0.0
O16 O 0.94355 0.14584 0.35489 0.0
C17 C 0.95499 0.17309 0.34184 0.0
O18 O -0.00582 0.15515 0.22034 0.0
O19 O 0.9508 0.12708 0.24805 0.0
O20 O -0.00678 0.08383 0.25577 0.0
O21 O 0.05502 0.16626 0.23118 0.0
O22 O 0.06878 0.17222 0.31366 0.0
O23 O 0.04045 0.09441 0.28753 0.0
C24 C 0.9161 0.041 0.39388 0.0
C25 C 0.92308 0.04485 0.44815 0.0
C26 C 0.86681 0.01501 0.41709 0.0
C27 C 0.90164 0.03444 0.48672 0.0
C28 C 0.8884 0.02513 0.3786 0.0
C29 C 0.87281 0.02042 0.47145 0.0
C30 C 0.93551 0.05564 0.3523 0.0
C31 C 0.96488 0.14547 0.21146 0.0
H32 H 0.10215 0.12088 0.3134 0.0
H33 H 0.1572 0.14988 1.1461 0.0
H34 H 0.14028 0.084 0.27486 0.0
H35 H 0.11973 0.18662 0.18551 0.0
H36 H 0.94428 0.05721 0.46064 0.0
H37 H 0.84474 0.00442 0.40437 0.0
H38 H 0.9066 0.03946 0.52835 0.0
H39 H 0.88275 0.02197 0.33672 0.0
Eu40 Eu 0.1215 0.7843 0.51657 0.0
Eu41 Eu 0.16007 0.72437 0.55461 0.0
C42 C 0.19589 0.78034 0.49463 0.0
C43 C 0.10926 0.86944 0.49131 0.0
C44 C 0.13527 0.87535 0.5246 0.0
C45 C 0.12144 0.91717 0.44224 0.0
C46 C 0.1553 0.90104 0.51474 0.0
C47 C 0.10144 0.89147 0.45214 0.0
C48 C 0.14979 0.92093 0.47102 0.0
C49 C 0.09528 0.83754 0.48939 0.0
O50 O 0.14822 0.75281 0.63617 0.0
O51 O 0.11239 0.78873 0.60614 0.0
C52 C 0.12664 0.77541 0.64675 0.0
O53 O 0.08855 0.74294 0.52735 0.0
O54 O 0.2036 0.71046 0.59403 0.0
O55 O 0.17379 0.6746 0.55706 0.0
O56 O 0.11405 0.70707 0.58044 0.0
C57 C 0.08919 0.71644 0.55542 0.0
O58 O 0.11193 0.75226 0.4435 0.0
O59 O 0.1382 0.70762 0.47105 0.0
O60 O 0.19228 0.74975 0.49782 0.0
O61 O 0.10888 0.81836 0.45525 0.0
O62 O 0.09025 0.82405 0.53534 0.0
O63 O 0.17319 0.79908 0.51108 0.0
C64 C 0.20206 0.65943 0.63295 0.0
C65 C 0.1945 0.67026 0.68454 0.0
C66 C 0.21022 0.60645 0.66759 0.0
C67 C 0.19433 0.64919 0.72723 0.0
C68 C 0.21069 0.62763 0.62497 0.0
C69 C 0.20131 0.6169 0.71887 0.0
C70 C 0.19853 0.68013 0.58652 0.0
C71 C 0.12006 0.72233 0.43484 0.0
H72 H 0.1418 0.85849 0.55505 0.0
H73 H 0.11645 0.93174 0.40787 0.0
H74 H 0.17675 0.90339 0.53781 0.0
H75 H 0.08161 0.88718 0.42588 0.0
H76 H 0.18749 0.69466 0.69152 0.0
H77 H 0.21567 0.5817 0.66016 0.0
H78 H 0.18683 0.65778 0.76615 0.0
H79 H 0.21658 0.61891 0.58533 0.0
Eu80 Eu 0.50161 0.82508 0.77692 0.0
Eu81 Eu 0.54668 0.88029 0.79889 0.0
C82 C 0.49045 0.89779 0.73583 0.0
C83 C 0.42432 0.78657 0.74181 0.0
C84 C 0.40626 0.81106 0.76487 0.0
C85 C 0.3848 0.77993 0.67312 0.0
C86 C 0.37852 0.82106 0.7403 0.0
C87 C 0.41218 0.76957 0.69829 0.0
C88 C 0.36924 0.80765 0.6911 0.0
C89 C 0.45785 0.78301 0.75532 0.0
O90 O 0.52179 0.86931 0.88273 0.0
O91 O 0.47766 0.84515 0.85113 0.0
C92 C 0.49357 0.85589 0.89236 0.0
O93 O 0.53659 0.80912 0.84266 0.0
O94 O 0.55999 0.92592 0.83434 0.0
O95 O 0.58581 0.90792 0.76634 0.0
O96 O 0.57532 0.84747 0.84432 0.0
C97 C 0.56308 0.82164 0.86258 0.0
O98 O 0.54318 0.80549 0.73011 0.0
O99 O 0.55799 0.85589 0.71359 0.0
O100 O 0.50097 0.90317 0.7832 0.0
O101 O 0.47745 0.79411 0.71984 0.0
O102 O 0.46607 0.79097 0.80361 0.0
O103 O 0.49207 0.86794 0.7194 0.0
C104 C 0.61527 0.93461 0.83318 0.0
C105 C 0.64413 0.92461 0.81081 0.0
C106 C 0.64203 0.94547 0.91686 0.0
C107 C 0.67125 0.92324 0.84227 0.0
C108 C 0.61502 0.94695 0.88541 0.0
C109 C 0.66997 0.93181 0.89661 0.0
C110 C 0.5852 0.92893 0.80479 0.0
C111 C 0.55865 0.82505 0.6992 0.0
H112 H 0.41494 0.82435 0.79901 0.0
H113 H 0.37847 0.76848 0.63583 0.0
H114 H 0.3665 0.84166 0.75652 0.0
H115 H 0.42559 0.75035 0.68033 0.0
H116 H 0.64534 0.91584 0.77007 0.0
H117 H 0.63994 0.95228 0.95851 0.0
H118 H 0.69258 0.9133 0.82512 0.0
H119 H 0.59336 0.95558 0.9034 0.0
Eu120 Eu 0.4023 0.17416 1.01484 0.0
Eu121 Eu 0.38518 0.24252 1.06746 0.0
C122 C 0.32973 0.20048 1.01514 0.0
C123 C 0.37986 0.11286 0.92221 0.0
C124 C 0.34278 0.09371 0.95323 0.0
C125 C 0.34042 0.1319 0.80843 0.0
C126 C 0.30261 0.09397 0.91802 0.0
C127 C 0.37916 0.13097 0.85014 0.0
C128 C 0.29953 0.11551 0.84315 0.0
C129 C 0.40516 0.12188 0.95969 0.0
O130 O 0.38983 0.20881 1.14221 0.0
O131 O 0.41617 0.1659 1.10558 0.0
C132 C 0.40644 0.18196 1.14918 0.0
O133 O 0.44726 0.20335 1.01114 0.0
O134 O 0.35501 0.27407 1.11552 0.0
O135 O 0.39911 0.29175 1.07921 0.0
O136 O 0.43245 0.22409 1.08788 0.0
C137 C 0.45294 0.22347 1.04985 0.0
O138 O 0.39846 0.20746 0.94157 0.0
O139 O 0.40116 0.2565 0.98096 0.0
O140 O 0.34046 0.22891 1.02563 0.0
O141 O 0.42128 0.14699 0.94681 0.0
O142 O 0.39687 0.12249 1.00993 0.0
O143 O 0.34825 0.17563 1.01893 0.0
C144 C 0.36785 0.33017 1.1289 0.0
C145 C 0.39299 0.35144 1.13538 0.0
C146 C 0.3316 0.37122 1.15921 0.0
C147 C 0.38767 0.38206 1.15472 0.0
C148 C 0.33704 0.34034 1.14034 0.0
C149 C 0.35694 0.39231 1.16751 0.0
C150 C 0.37369 0.29829 1.10671 0.0
C151 C 0.40291 0.23856 0.93712 0.0
H152 H 0.34375 0.08547 0.99396 0.0
H153 H 0.33962 0.1455 0.77201 0.0
H154 H 0.28152 0.08744 0.93983 0.0
H155 H 0.39991 0.14297 0.83507 0.0
H156 H 0.41693 0.34426 1.12649 0.0
H157 H 0.30762 0.37834 1.16821 0.0
H158 H 0.40796 0.39714 1.16183 0.0
H159 H 0.31716 0.32451 1.13445 0.0
Eu160 Eu 0.09321 0.84953 1.09288 0.0
Eu161 Eu 0.02162 0.84238 1.05039 0.0
C162 C 0.0457 0.90976 1.10135 0.0
C163 C 0.16455 0.89063 1.15004 0.0
C164 C 0.14415 0.91111 1.17736 0.0
C165 C 0.20931 0.92045 0.18441 0.0
C166 C 0.15601 0.93588 0.20823 0.0
C167 C 0.19721 0.8958 1.15248 0.0
C168 C 0.18879 0.9404 0.21358 0.0
C169 C 0.15118 0.86496 1.11742 0.0
O170 O 0.04749 0.83924 0.96755 0.0
O171 O 0.09805 0.84514 0.9987 0.0
C172 C 0.07844 0.83985 0.95773 0.0
O173 O 0.09373 0.79864 1.07275 0.0
O174 O 0.97954 0.86012 1.00925 0.0
O175 O 0.97744 0.81644 1.05627 0.0
O176 O 0.04741 0.79819 1.02493 0.0
C177 C 0.07529 0.78639 1.03666 0.0
O178 O 0.06704 0.8308 1.16976 0.0
O179 O 0.01623 0.82833 1.13905 0.0
O180 O 0.0263 0.89521 1.06846 0.0
O181 O 0.13494 0.84335 1.14284 0.0
O182 O 0.13669 0.87472 1.07483 0.0
O183 O 0.07083 0.89551 1.11884 0.0
C184 C 0.93135 0.82931 1.00641 0.0
C185 C 0.9276 0.8026 0.97354 0.0
C186 C 0.87538 0.84045 0.99954 0.0
C187 C 0.89793 0.79525 0.95269 0.0
C188 C 0.90509 0.8479 1.01993 0.0
C189 C 0.87152 0.81437 0.96487 0.0
C190 C 0.96193 0.83766 1.02939 0.0
C191 C 0.03646 0.82468 1.1785 0.0
H192 H 0.11896 0.90728 1.17624 0.0
H193 H 0.23463 0.92306 0.18813 0.0
H194 H 0.1393 0.94992 0.2311 0.0
H195 H 0.21328 0.88034 1.13089 0.0
H196 H 0.94766 0.78783 0.96324 0.0
H197 H 0.85558 0.85547 1.01009 0.0
H198 H 0.89604 0.77535 0.92522 0.0
H199 H 0.90762 0.86833 1.04616 0.0
Eu200 Eu 0.43384 0.79285 0.30544 0.0
Eu201 Eu 0.37853 0.75104 0.27706 0.0
C202 C 0.36215 0.80437 0.34671 0.0
C203 C 0.44579 0.86736 0.37222 0.0
C204 C 0.41513 0.8781 0.35976 0.0
C205 C 0.43749 0.88483 0.46364 0.0
C206 C 0.39517 0.88974 0.39965 0.0
C207 C 0.45736 0.87256 0.42386 0.0
C208 C 0.4057 0.89164 0.45239 0.0
C209 C 0.46161 0.84444 0.33594 0.0
O210 O 0.39139 0.7737 0.1922 0.0
O211 O 0.42983 0.80821 0.21882 0.0
C212 C 0.41304 0.79592 0.17992 0.0
O213 O 0.45392 0.75764 0.24304 0.0
O214 O 0.33575 0.73555 0.23572 0.0
O215 O 0.34777 0.71489 0.31136 0.0
O216 O 0.41196 0.7234 0.23054 0.0
C217 C 0.4398 0.7335 0.21774 0.0
O218 O 0.45192 0.75393 0.35901 0.0
O219 O 0.40209 0.73363 0.36003 0.0
O220 O 0.35646 0.79749 0.2975 0.0
O221 O 0.46882 0.81685 0.35631 0.0
O222 O 0.44834 0.84139 0.28939 0.0
O223 O 0.39082 0.79753 0.36183 0.0
C224 C 0.32484 0.68139 0.24711 0.0
C225 C 0.35109 0.66307 0.23271 0.0
C226 C 0.29046 0.64155 0.20758 0.0
C227 C 0.34718 0.63484 0.20415 0.0
C228 C 0.29445 0.67 0.23611 0.0
C229 C 0.31686 0.62431 0.18928 0.0
C230 C 0.32943 0.71326 0.2699 0.0
C231 C 0.43119 0.73513 0.38191 0.0
H232 H 0.40527 0.87466 0.3203 0.0
H233 H 0.44604 0.88573 0.50435 0.0
H234 H 0.37075 0.89465 0.39017 0.0
H235 H 0.48068 0.86441 0.43464 0.0
H236 H 0.37475 0.6714 0.24117 0.0
H237 H 0.2668 0.63399 0.19729 0.0
H238 H 0.36818 0.62273 0.19017 0.0
H239 H 0.27391 0.68377 0.24748 0.0
Eu240 Eu 0.47075 0.13302 0.57977 0.0
Eu241 Eu 0.54032 0.13155 0.54373 0.0
C242 C 0.50792 0.07091 0.59896 0.0
C243 C 0.40801 0.10668 0.67268 0.0
C244 C 0.38123 0.08753 0.66827 0.0
C245 C 0.419 0.08312 0.75939 0.0
C246 C 0.37303 0.06678 0.70913 0.0
C247 C 0.42735 0.10376 0.71798 0.0
C248 C 0.39127 0.06477 0.75629 0.0
C249 C 0.41668 0.12759 0.6279 0.0
O250 O 0.51172 0.12481 0.46196 0.0
O251 O 0.46114 0.1366 0.48863 0.0
C252 C 0.48152 0.13136 0.44906 0.0
O253 O 0.47898 0.18123 0.54575 0.0
O254 O 0.57593 0.09757 0.51841 0.0
O255 O 0.5896 0.14619 0.53696 0.0
O256 O 0.52474 0.17366 0.49769 0.0
C257 C 0.49884 0.18946 0.50777 0.0
O258 O 0.4996 0.15033 0.654 0.0
O259 O 0.54447 0.16749 0.61398 0.0
O260 O 0.53095 0.09155 0.60379 0.0
O261 O 0.43652 0.15048 0.63831 0.0
O262 O 0.42319 0.11309 0.58305 0.0
O263 O 0.48255 0.08071 0.57566 0.0
C264 C 0.62149 0.1167 0.47578 0.0
C265 C 0.62641 0.14263 0.44201 0.0
C266 C 0.65123 0.08303 0.41491 0.0
C267 C 0.64221 0.13828 0.39358 0.0
C268 C 0.63588 0.08751 0.46373 0.0
C269 C 0.65256 0.10786 0.37805 0.0
C270 C 0.59896 0.11824 0.52032 0.0
C271 C 0.52573 0.16787 0.6562 0.0
H272 H 0.36636 0.08885 0.63326 0.0
H273 H 0.43374 0.08231 0.79456 0.0
H274 H 0.35132 0.05356 0.70424 0.0
H275 H 0.44875 0.11767 0.72178 0.0
H276 H 0.61598 0.16553 0.45085 0.0
H277 H 0.65896 0.05941 0.40361 0.0
H278 H 0.64274 0.15776 0.3656 0.0
H279 H 0.63287 0.06741 0.49001 0.0
Eu280 Eu 0.08992 0.21007 0.84277 0.0
Eu281 Eu 0.12597 0.26748 0.80706 0.0
C282 C 0.15795 0.22062 0.8809 0.0
C283 C 0.08439 0.12744 0.89192 0.0
C284 C 0.11367 0.11992 0.86845 0.0
C285 C 0.09484 0.08983 0.96212 0.0
C286 C 0.13404 0.09857 0.89316 0.0
C287 C 0.07444 0.11095 0.93716 0.0
C288 C 0.12574 0.08492 0.94234 0.0
C289 C 0.06727 0.15611 0.87574 0.0
O290 O 0.11047 0.24032 0.72555 0.0
O291 O 0.07648 0.20261 0.75531 0.0
C292 C 0.08922 0.21723 0.71454 0.0
O293 O 0.05685 0.25044 0.81911 0.0
O294 O 0.17487 0.26917 0.78002 0.0
O295 O 0.1493 0.31305 0.79708 0.0
O296 O 0.08435 0.29297 0.78399 0.0
C297 C 0.05824 0.27937 0.79758 0.0
O298 O 0.07725 0.24251 0.91507 0.0
O299 O 0.10298 0.28735 0.88688 0.0
O300 O 0.1444 0.24795 0.88364 0.0
O301 O 0.07124 0.18069 0.90707 0.0
O302 O 0.06937 0.1636 0.82545 0.0
O303 O 0.14324 0.20001 0.85076 0.0
C304 C 0.19188 0.31615 0.73699 0.0
C305 C 0.18637 0.30713 0.68393 0.0
C306 C 0.22173 0.36182 0.7068 0.0
C307 C 0.1976 0.32603 0.64247 0.0
C308 C 0.21071 0.34275 0.74822 0.0
C309 C 0.21407 0.35437 0.65369 0.0
C310 C 0.17585 0.30026 0.78116 0.0
C311 C 0.08483 0.27274 0.92327 0.0
H312 H 0.12189 0.13234 0.8333 0.0
H313 H 0.08737 0.08015 1.00005 0.0
H314 H 0.15732 0.09499 0.87621 0.0
H315 H 0.052 0.11645 0.95588 0.0
H316 H 0.17184 0.28664 0.67465 0.0
H317 H 0.23422 0.38358 0.71643 0.0
H318 H 0.19085 0.31997 0.60196 0.0
H319 H 0.21528 0.34985 0.78917 0.0
Eu320 Eu 0.88888 0.27555 0.83532 0.0
Eu321 Eu 0.85785 0.21102 0.80231 0.0
C322 C 0.81433 0.26057 0.86113 0.0
C323 C 0.89457 0.35783 0.89212 0.0
C324 C 0.86926 0.35022 0.92565 0.0
C325 C 0.89078 0.41295 0.92024 0.0
C326 C 0.85483 0.37364 0.95636 0.0
C327 C 0.90508 0.38933 0.88886 0.0
C328 C 0.86551 0.40527 0.9544 0.0
C329 C 0.90706 0.33341 0.85626 0.0
O330 O 0.87243 0.23494 0.71789 0.0
O331 O 0.8919 0.28293 0.74504 0.0
C332 C 0.88599 0.26309 0.70561 0.0
O333 O 0.92367 0.24393 0.7923 0.0
O334 O 0.82029 0.17646 0.81803 0.0
O335 O 0.8543 0.1681 0.75429 0.0
O336 O 0.9061 0.19483 0.81533 0.0
C337 C 0.92806 0.21312 0.79761 0.0
O338 O 0.90819 0.24651 0.90447 0.0
O339 O 0.87576 0.20343 0.89237 0.0
O340 O 0.81506 0.2411 0.82036 0.0
O341 O 0.91977 0.30851 0.87848 0.0
O342 O 0.88755 0.32577 0.81813 0.0
O343 O 0.84076 0.27381 0.87706 0.0
C344 C 0.80485 0.14248 0.74651 0.0
C345 C 0.79095 0.11442 0.76506 0.0
C346 C 0.7847 0.13133 0.65808 0.0
C347 C 0.77584 0.09382 0.72941 0.0
C348 C 0.79968 0.15195 0.69379 0.0
C349 C 0.77499 0.10093 0.67468 0.0
C350 C 0.82924 0.15774 0.77921 0.0
C351 C 0.89736 0.21901 0.92204 0.0
H352 H 0.86066 0.32606 0.92812 0.0
H353 H 0.89976 0.43702 0.91858 0.0
H354 H 0.83615 0.36658 0.98347 0.0
H355 H 0.92425 0.39559 0.86218 0.0
H356 H 0.79441 0.10697 0.80594 0.0
H357 H 0.78444 0.13772 0.61627 0.0
H358 H 0.76812 0.07082 0.74351 0.0
H359 H 0.80991 0.17377 0.67894 0.0
Eu360 Eu 0.63317 0.67132 0.33277 0.0
Eu361 Eu 0.64145 0.74168 0.29216 0.0
C362 C 0.70165 0.70315 0.33333 0.0
C363 C 0.65904 0.5884 0.37492 0.0
C364 C 0.68435 0.6004 0.40448 0.0
C365 C 0.67242 0.53504 0.40275 0.0
C366 C 0.70305 0.58003 0.43428 0.0
C367 C 0.65374 0.55557 0.3727 0.0
C368 C 0.69661 0.54718 0.43545 0.0
C369 C 0.63798 0.61012 0.34697 0.0
O370 O 0.63138 0.7176 0.20856 0.0
O371 O 0.61524 0.6703 0.24285 0.0
C372 C 0.61781 0.68938 0.20059 0.0
O373 O 0.58389 0.68449 0.33938 0.0
O374 O 0.66463 0.78705 0.3078 0.0
O375 O 0.63112 0.78287 0.24301 0.0
O376 O 0.58962 0.73244 0.29706 0.0
C377 C 0.57244 0.70845 0.31378 0.0
O378 O 0.62225 0.69895 0.41244 0.0
O379 O 0.6263 0.74989 0.38105 0.0
O380 O 0.69128 0.72147 0.29505 0.0
O381 O 0.62044 0.62861 0.37688 0.0
O382 O 0.65079 0.62523 0.30703 0.0
O383 O 0.68169 0.68574 0.35983 0.0
C384 C 0.66985 0.82293 0.23628 0.0
C385 C 0.65951 0.85417 0.23058 0.0
C386 C 0.71305 0.83346 1.17492 0.0
C387 C 0.67515 0.87471 0.19613 0.0
C388 C 0.69718 0.81278 0.20946 0.0
C389 C 0.70162 0.86442 1.16661 0.0
C390 C 0.65068 0.80137 0.26856 0.0
C391 C 0.62008 0.73027 0.42106 0.0
H392 H 0.68876 0.62569 0.40635 0.0
H393 H 0.66687 0.50994 0.40265 0.0
H394 H 0.72095 0.59054 0.45962 0.0
H395 H 0.63448 0.54593 0.34929 0.0
H396 H 0.63847 0.86234 0.25119 0.0
H397 H 0.73348 0.82484 1.15318 0.0
H398 H 0.66511 0.89801 0.19017 0.0
H399 H 0.70559 0.78869 0.2139 0.0
Eu400 Eu 0.60837 0.32994 1.01419 0.0
Eu401 Eu 0.56976 0.27029 1.03702 0.0
C402 C 0.64532 0.26692 1.01421 0.0
C403 C 0.67443 0.38195 0.96038 0.0
C404 C 0.70354 0.36651 0.96699 0.0
C405 C 0.69024 0.39657 0.87086 0.0
C406 C 0.7249 0.36443 0.92435 0.0
C407 C 0.6693 0.39917 0.91363 0.0
C408 C 0.71705 0.37691 0.87418 0.0
C409 C 0.64787 0.37698 0.99789 0.0
O410 O 0.5815 0.28822 1.12138 0.0
O411 O 0.58284 0.33973 1.09822 0.0
C412 C 0.57798 0.31812 1.13623 0.0
O413 O 0.56598 0.34584 0.97274 0.0
O414 O 0.54602 0.22698 1.01107 0.0
O415 O 0.54185 0.24217 1.09316 0.0
O416 O 0.53768 0.3136 1.02745 0.0
C417 C 0.53931 0.33755 0.99316 0.0
O418 O 0.6043 0.29804 0.9332 0.0
O419 O 0.55673 0.27625 0.95154 0.0
O420 O 0.61824 0.25229 1.00614 0.0
O421 O 0.61998 0.37502 0.9765 0.0
O422 O 0.65162 0.35564 1.0346 0.0
O423 O 0.64445 0.29436 1.03804 0.0
C424 C 0.54433 0.18726 1.07665 0.0
C425 C 0.53025 0.17566 1.12331 0.0
C426 C 0.57992 0.14223 1.07509 0.0
C427 C 0.54202 0.14837 1.14719 0.0
C428 C 0.56822 0.16954 1.05127 0.0
C429 C 0.56799 0.13239 1.12457 0.0
C430 C 0.53665 0.21942 1.05878 0.0
C431 C 0.57895 0.28111 0.91648 0.0
H432 H 0.70884 0.35408 1.00354 0.0
H433 H 0.68316 0.40713 0.83357 0.0
H434 H 0.74612 0.35059 0.92917 0.0
H435 H 0.64757 0.41222 0.90812 0.0
H436 H 0.5117 0.18892 1.14329 0.0
H437 H 0.59992 0.13023 1.05702 0.0
H438 H 0.53272 0.14155 0.18579 0.0
H439 H 0.57935 0.17782 1.01492 0.0
Eu440 Eu 0.93572 0.69594 0.53426 0.0
Eu441 Eu 0.89201 0.753 0.55552 0.0
C442 C 0.86942 0.70054 0.48227 0.0
C443 C 0.95389 0.61214 0.50694 0.0
C444 C 0.92616 0.60524 0.53581 0.0
C445 C 0.93651 0.57616 0.43718 0.0
C446 C 0.90218 0.58754 0.51147 0.0
C447 C 0.96056 0.59423 0.4608 0.0
C448 C 0.90562 0.57865 0.45765 0.0
C449 C 0.96726 0.64436 0.51162 0.0
O450 O 0.8997 0.72658 0.64006 0.0
O451 O 0.9287 0.68252 0.61992 0.0
C452 C 0.91506 0.70026 0.65608 0.0
O453 O 0.96014 0.73402 0.58521 0.0
O454 O 0.8411 0.75336 0.56689 0.0
O455 O 0.86691 0.79793 0.56021 0.0
O456 O 0.93014 0.77953 0.59194 0.0
C457 C 0.9554 0.7637 0.60257 0.0
O458 O 0.954 0.72955 0.46776 0.0
O459 O 0.91994 0.77125 0.47992 0.0
O460 O 0.88079 0.72882 0.47846 0.0
O461 O 0.9571 0.66395 0.47547 0.0
O462 O 0.96675 0.65729 0.55903 0.0
O463 O 0.88428 0.68196 0.5153 0.0
C464 C 0.82029 0.79778 0.61371 0.0
C465 C 0.82826 0.827 0.63733 0.0
C466 C 0.77905 0.79093 0.68053 0.0
C467 C 0.81309 0.83711 0.68388 0.0
C468 C 0.79429 0.78079 0.63383 0.0
C469 C 0.7896 0.81822 0.70783 0.0
C470 C 0.83963 0.7844 0.56982 0.0
C471 C 0.94376 0.7578 0.45272 0.0
H472 H 0.92066 0.61791 0.5725 0.0
H473 H 0.94022 0.56764 0.39668 0.0
H474 H 0.87891 0.5881 0.52953 0.0
H475 H 0.98207 0.59842 0.43841 0.0
H476 H 0.84752 0.8412 0.62185 0.0
H477 H 0.76067 0.77616 0.69744 0.0
H478 H 0.82203 0.85823 0.70363 0.0
H479 H 0.78688 0.75872 0.61523 0.0
Eu480 Eu 0.56574 0.64101 0.74913 0.0
Eu481 Eu 0.49484 0.63412 0.7941 0.0
C482 C 0.535 0.57132 0.75693 0.0
C483 C 0.6495 0.62 0.72583 0.0
C484 C 0.64321 0.5915 0.75268 0.0
C485 C 0.69361 0.59504 0.68108 0.0
C486 C 0.66099 0.56436 0.74135 0.0
C487 C 0.67589 0.62211 0.69256 0.0
C488 C 0.68486 0.56525 0.70221 0.0
C489 C 0.62537 0.6448 0.72412 0.0
O490 O 0.52223 0.63755 0.87702 0.0
O491 O 0.57164 0.64592 0.84239 0.0
C492 C 0.55277 0.64447 0.88519 0.0
O493 O 0.54078 0.68689 0.74798 0.0
O494 O 0.45168 0.6065 0.78323 0.0
O495 O 0.45239 0.64543 0.83996 0.0
O496 O 0.50868 0.68312 0.81828 0.0
C497 C 0.53096 0.69828 0.79318 0.0
O498 O 0.53788 0.65747 0.67435 0.0
O499 O 0.48706 0.65328 0.70582 0.0
O500 O 0.51436 0.58374 0.79045 0.0
O501 O 0.60319 0.63959 0.68928 0.0
O502 O 0.61406 0.65405 0.77007 0.0
O503 O 0.55557 0.58934 0.73268 0.0
C504 C 0.42158 0.60044 0.86122 0.0
C505 C 0.43657 0.59387 0.90962 0.0
C506 C 0.37605 0.56997 0.89022 0.0
C507 C 0.42081 0.57678 0.94908 0.0
C508 C 0.39177 0.5874 0.8509 0.0
C509 C 0.38981 0.56568 0.94073 0.0
C510 C 0.43668 0.62106 0.82161 0.0
C511 C 0.50696 0.66045 0.66596 0.0
H512 H 0.62285 0.58951 0.77878 0.0
H513 H 0.71169 0.597 0.6506 0.0
H514 H 0.6539 0.54205 0.759 0.0
H515 H 0.68106 0.64393 0.67157 0.0
H516 H 0.45992 0.60317 0.91786 0.0
H517 H 0.35248 0.56131 0.88205 0.0
H518 H 0.43219 0.57438 0.98745 0.0
H519 H 0.38019 0.59163 0.81314 0.0
Eu520 Eu 0.9429 0.3491 0.29255 0.0
Eu521 Eu 0.00522 0.38057 0.32552 0.0
C522 C 0.95383 0.42108 0.27058 0.0
C523 C 0.85783 0.34754 0.25694 0.0
C524 C 0.85482 0.37779 0.28045 0.0
C525 C 0.81486 0.35958 0.19743 0.0
C526 C 0.83349 0.39962 0.25971 0.0
C527 C 0.83623 0.33779 0.2181 0.0
C528 C 0.81549 0.39155 0.21459 0.0
C529 C 0.88702 0.3295 0.26407 0.0
O530 O 0.97948 0.36419 0.40786 0.0
O531 O 0.94019 0.33168 0.37826 0.0
C532 C 0.95644 0.34279 0.41869 0.0
O533 O 0.98033 0.31176 0.30457 0.0
O534 O 0.01758 0.42488 0.36602 0.0
O535 O 0.05386 0.39711 0.32542 0.0
O536 O 0.02463 0.3343 0.34253 0.0
C537 C 0.0093 0.30991 0.32459 0.0
O538 O 0.97257 0.33806 0.21675 0.0
O539 O 0.02041 0.35876 0.24197 0.0
O540 O 0.98167 0.4095 0.26189 0.0
O541 O 0.90939 0.33638 0.23006 0.0
O542 O 0.89746 0.32784 0.3128 0.0
O543 O 0.93466 0.40301 0.2978 0.0
C544 C 0.07108 0.43296 0.39183 0.0
C545 C 0.06609 0.42994 0.44687 0.0
C546 C 0.1243 0.4519 0.40825 0.0
C547 C 0.09039 0.43726 0.48238 0.0
C548 C 0.09991 0.44488 0.37285 0.0
C549 C 0.12001 0.44735 0.46321 0.0
C550 C 0.04742 0.42276 0.35285 0.0
C551 C 0.0029 0.34312 0.20604 0.0
H552 H 0.87116 0.38566 0.31097 0.0
H553 H 0.8013 0.35241 1.16278 0.0
H554 H 0.83429 0.42394 0.27404 0.0
H555 H 0.83812 0.31448 0.19977 0.0
H556 H 0.04398 0.42078 0.46224 0.0
H557 H 0.14695 0.45944 0.39259 0.0
H558 H 0.08668 0.43292 0.52453 0.0
H559 H 0.10398 0.44757 0.33036 0.0
Eu560 Eu 0.51679 0.3317 0.56619 0.0
Eu561 Eu 0.4659 0.38399 0.55606 0.0
C562 C 0.5235 0.39778 0.62366 0.0
C563 C 0.597 0.29589 0.59337 0.0
C564 C 0.61547 0.31583 0.56107 0.0
C565 C 0.64069 0.29108 0.65472 0.0
C566 C 0.64615 0.32404 0.57645 0.0
C567 C 0.61035 0.28253 0.63884 0.0
C568 C 0.6586 0.31302 0.62492 0.0
C569 C 0.56284 0.29219 0.58497 0.0
O570 O 0.49257 0.38041 0.47011 0.0
O571 O 0.52714 0.33928 0.47882 0.0
C572 C 0.51396 0.36037 0.44802 0.0
O573 O 0.47668 0.3117 0.51453 0.0
O574 O 0.46682 0.43545 0.54785 0.0
O575 O 0.42218 0.41084 0.56057 0.0
O576 O 0.43809 0.35026 0.50949 0.0
C577 C 0.4498 0.32313 0.4952 0.0
O578 O 0.48339 0.31606 0.63437 0.0
O579 O 0.44741 0.35644 0.63178 0.0
O580 O 0.49406 0.3911 0.63016 0.0
O581 O 0.54508 0.30463 0.62219 0.0
O582 O 0.55208 0.29784 0.53739 0.0
O583 O 0.53813 0.38089 0.58703 0.0
C584 C 0.42107 0.45582 0.50639 0.0
C585 C 0.43392 0.45533 0.45475 0.0
C586 C 0.37357 0.48029 0.47201 0.0
C587 C 0.4162 0.46597 0.41177 0.0
C588 C 0.39147 0.46976 0.51516 0.0
C589 C 0.3851 0.47688 0.41953 0.0
C590 C 0.43599 0.43779 0.54936 0.0
C591 C 0.45848 0.33035 0.65535 0.0
H592 H 0.60569 0.32644 0.52555 0.0
H593 H 0.64886 0.28238 0.69276 0.0
H594 H 0.65934 0.3405 0.55194 0.0
H595 H 0.59638 0.26718 0.66412 0.0
H596 H 0.45668 0.44455 0.44695 0.0
H597 H 0.34981 0.48871 0.47927 0.0
H598 H 0.42579 0.4625 0.37199 0.0
H599 H 0.38125 0.47041 0.5549 0.0
Eu600 Eu 0.96298 0.65689 1.07847 0.0
Eu601 Eu 0.01108 0.60316 1.06281 0.0
C602 C 0.95564 0.59138 1.13777 0.0
C603 C 0.88893 0.6927 1.13177 0.0
C604 C 0.8765 0.66221 1.13973 0.0
C605 C 0.85867 0.71193 0.20738 0.0
C606 C 0.85784 0.65608 0.18417 0.0
C607 C 0.878 0.71801 1.16322 0.0
C608 C 0.85188 0.68031 0.22184 0.0
C609 C 0.91685 0.69642 1.09771 0.0
O610 O 0.9839 0.61031 0.97771 0.0
O611 O 0.95679 0.65641 0.99018 0.0
C612 C 0.96608 0.63409 0.95758 0.0
O613 O 0.00114 0.67521 1.0199 0.0
O614 O 0.00971 0.55232 1.04426 0.0
O615 O 0.05372 0.57506 1.06764 0.0
O616 O 0.03873 0.6357 1.01688 0.0
C617 C 0.0272 0.66204 0.9998 0.0
O618 O -0.00289 0.66819 1.14789 0.0
O619 O 0.03569 0.63112 1.13365 0.0
O620 O 0.98568 0.59579 1.13971 0.0
O621 O 0.94383 0.69766 1.12268 0.0
O622 O 0.91788 0.67734 1.05665 0.0
O623 O 0.94051 0.60878 1.10307 0.0
C624 C 0.05774 0.53458 1.00445 0.0
C625 C 0.04813 0.53919 0.95155 0.0
C626 C 0.10852 0.5157 0.9724 0.0
C627 C 0.06903 0.53317 0.90948 0.0
C628 C 0.08745 0.52134 1.01444 0.0
C629 C 0.09997 0.523 0.91981 0.0
C630 C 0.04036 0.54936 1.04895 0.0
C631 C 0.02444 0.65558 1.1622 0.0
H632 H 0.88395 0.64234 1.11507 0.0
H633 H 0.85299 0.73142 0.23418 0.0
H634 H 0.85251 0.63149 0.19248 0.0
H635 H 0.8867 0.74187 1.15672 0.0
H636 H 0.02548 0.54978 0.94289 0.0
H637 H 0.13223 0.50788 0.98133 0.0
H638 H 0.06196 0.53941 0.86939 0.0
H639 H 0.09532 0.51783 1.05508 0.0
H640 H 0.20015 0.11396 1.13435 0.0
H641 H 0.12832 0.05255 0.19875 0.0
H642 H 0.12266 0.02627 1.11299 0.0
H643 H 0.12173 0.03757 1.01685 0.0
H644 H 0.1866 0.10679 0.95299 0.0
H645 H 0.21218 0.11143 1.03903 0.0
C646 C 0.18423 0.0939 1.13008 0.0
C647 C 0.16287 0.08707 1.17155 0.0
C648 C 0.17908 0.08074 1.07923 0.0
C649 C 0.14401 0.0596 1.16682 0.0
C650 C 0.14038 0.0447 1.11721 0.0
C651 C 0.14222 0.05282 1.02126 0.0
C652 C 0.15056 0.0735 0.97959 0.0
C653 C 0.15508 0.05774 1.07221 0.0
C654 C 0.17853 0.09144 0.98471 0.0
C655 C 0.19306 0.09457 1.03438 0.0
H656 H 0.14932 0.97934 0.42349 0.0
H657 H 0.21054 0.90074 0.45919 0.0
H658 H 0.24092 0.91061 0.37903 0.0
H659 H 0.23354 0.92509 0.28587 0.0
H660 H 0.16931 0.00011 0.2457 0.0
H661 H 0.15779 0.00913 0.34003 0.0
C662 C 0.17029 0.96544 0.41502 0.0
C663 C 0.17639 0.9382 0.44539 0.0
C664 C 0.18659 0.96997 0.36676 0.0
C665 C 0.20449 0.92128 0.43566 0.0
C666 C 0.22178 0.92662 0.38911 0.0
C667 C 0.21854 0.94477 0.2977 0.0
C668 C 0.20013 0.96006 0.25917 0.0
C669 C 0.21067 0.94843 0.35181 0.0
C670 C 0.18235 0.98673 0.27504 0.0
C671 C 0.17536 -0.00842 0.32906 0.0
H672 H 0.35695 0.85171 0.46674 0.0
H673 H 0.40444 0.93179 0.53853 0.0
H674 H 0.38397 0.91699 0.62617 0.0
H675 H 0.3704 0.87198 0.68108 0.0
H676 H 0.32892 0.78804 0.61016 0.0
H677 H 0.32801 0.8142 0.52367 0.0
C678 C 0.36142 0.8668 0.50123 0.0
C679 C 0.38281 0.89227 0.49691 0.0
C680 C 0.35144 0.8568 0.55182 0.0
C681 C 0.38844 0.91179 0.54147 0.0
C682 C 0.37697 0.9031 0.59155 0.0
C683 C 0.35967 0.85965 0.64763 0.0
C684 C 0.35182 0.82719 0.65149 0.0
C685 C 0.36107 0.87408 0.59753 0.0
C686 C 0.33679 0.81247 0.60775 0.0
C687 C 0.33646 0.82734 0.55806 0.0
H688 H 0.27243 0.08071 0.79212 0.0
H689 H 0.29177 0.17335 0.88992 0.0
H690 H 0.33801 0.12191 0.88795 0.0
H691 H 0.39776 0.07369 0.86569 0.0
H692 H 0.35695 0.00756 0.76781 0.0
H693 H 0.30359 0.02667 0.78533 0.0
C694 C 0.2905 0.09304 0.8186 0.0
C695 C 0.27911 0.13013 0.84006 0.0
C696 C 0.32051 0.06805 0.82773 0.0
C697 C 0.29979 0.14991 0.8787 0.0
C698 C 0.33259 0.13847 0.89985 0.0
C699 C 0.37453 0.0684 0.85043 0.0
C700 C 0.37814 0.04857 0.8049 0.0
C701 C 0.34502 0.08733 0.86047 0.0
C702 C 0.35372 0.02705 0.79578 0.0
C703 C 0.32352 0.03822 0.80418 0.0
H704 H 0.00616 0.77771 0.42198 0.0
H705 H 0.91168 0.77137 0.36026 0.0
H706 H 0.93068 0.79002 0.27327 0.0
H707 H 0.97449 0.80776 0.21171 0.0
H708 H 0.06875 0.8156 0.27434 0.0
H709 H 0.04959 0.79773 0.36169 0.0
C710 C -0.01056 0.78017 0.38993 0.0
C711 C 0.95685 0.7725 0.39979 0.0
C712 C 0.00074 0.79165 0.33879 0.0
C713 C 0.93649 0.77701 0.35592 0.0
C714 C 0.94757 0.78767 0.30532 0.0
C715 C -0.00885 0.80559 0.24414 0.0
C716 C 0.02374 0.81331 0.23414 0.0
C717 C 0.97973 0.795 0.2957 0.0
C718 C 0.04392 0.81009 0.27866 0.0
C719 C 0.03277 0.79972 0.32946 0.0
H720 H 0.87541 0.17437 1.00305 0.0
H721 H 0.95532 0.23325 0.96285 0.0
H722 H 0.98258 0.21567 1.04212 0.0
H723 H 0.98466 0.18612 1.12808 0.0
H724 H 0.90514 0.12833 1.17302 0.0
H725 H 0.87781 0.14358 1.09082 0.0
C726 C 0.89876 0.18357 1.01136 0.0
C727 C 0.91266 0.20559 0.97428 0.0
C728 C 0.91476 0.17407 1.06022 0.0
C729 C 0.94314 0.21663 0.98847 0.0
C730 C 0.95905 0.20672 1.03507 0.0
C731 C 0.96133 0.17662 1.12042 0.0
C732 C 0.94763 0.15562 1.15894 0.0
C733 C 0.94521 0.18579 1.07205 0.0
C734 C 0.91704 0.14434 1.14595 0.0
C735 C 0.90113 0.15319 1.09808 0.0
H736 H 0.52817 0.24535 0.88074 0.0
H737 H 0.62067 0.27411 0.8278 0.0
H738 H 0.61357 0.24225 0.74559 0.0
H739 H 0.57984 0.20597 0.68554 0.0
H740 H 0.48857 0.17691 0.74493 0.0
H741 H 0.49661 0.20871 0.82532 0.0
C742 C 0.54697 0.2453 0.85129 0.0
C743 C 0.57503 0.26333 0.862 0.0
C744 C 0.5427 0.22657 0.8036 0.0
C745 C 0.59862 0.26156 0.82199 0.0
C746 C 0.59443 0.24306 0.7743 0.0
C747 C 0.56156 0.20648 0.71588 0.0
C748 C 0.53319 0.18823 0.70711 0.0
C749 C 0.56641 0.22539 0.76404 0.0
C750 C 0.5105 0.18997 0.74856 0.0
C751 C 0.51505 0.20856 0.79524 0.0
H752 H 0.5712 0.76213 0.66399 0.0
H753 H 0.57832 0.85848 0.60891 0.0
H754 H 0.597 0.83907 0.52161 0.0
H755 H 0.61077 0.79421 0.45741 0.0
H756 H 0.60549 0.69812 0.51466 0.0
H757 H 0.58842 0.7179 0.60234 0.0
C758 C 0.57696 0.77919 0.63328 0.0
C759 C 0.57284 0.8124 0.64514 0.0
C760 C 0.58832 0.76764 0.58199 0.0
C761 C 0.58093 0.83314 0.60303 0.0
C762 C 0.59167 0.82183 0.55222 0.0
C763 C 0.6058 0.77729 0.48869 0.0
C764 C 0.60966 0.74398 0.47697 0.0
C765 C 0.59534 0.78904 0.54056 0.0
C766 C 0.60295 0.7235 0.52013 0.0
C767 C 0.59278 0.73495 0.57104 0.0
H768 H 0.66547 0.50508 0.49796 0.0
H769 H 0.75745 0.54654 0.47407 0.0
H770 H 0.76801 0.54296 0.56946 0.0
H771 H 0.74181 0.54916 0.65676 0.0
H772 H 0.64668 0.51465 0.6768 0.0
H773 H 0.64768 0.49204 0.58786 0.0
C774 C 0.68856 0.51166 0.51289 0.0
C775 C 0.70981 0.52812 0.47977 0.0
C776 C 0.69364 0.51131 0.56813 0.0
C777 C 0.74005 0.53528 0.4995 0.0
C778 C 0.74601 0.53345 0.55421 0.0
C779 C 0.72187 0.53538 0.64244 0.0
C780 C 0.69339 0.53602 0.67154 0.0
C781 C 0.72153 0.5249 0.58911 0.0
C782 C 0.66855 0.51613 0.65445 0.0
C783 C 0.66883 0.50352 0.60279 0.0
H784 H 0.72525 0.40491 0.77628 0.0
H785 H 0.73855 0.31607 0.85762 0.0
H786 H 0.73167 0.28725 0.77468 0.0
H787 H 0.70312 0.28651 0.68987 0.0
H788 H 0.67733 0.37536 0.61729 0.0
H789 H 0.70771 0.40423 0.68349 0.0
C790 C 0.72738 0.37926 0.77562 0.0
C791 C 0.7303 0.36277 0.82402 0.0
C792 C 0.71988 0.36249 0.72873 0.0
C793 C 0.73539 0.32972 0.8217 0.0
C794 C 0.73081 0.31296 0.77404 0.0
C795 C 0.70464 0.31217 0.68786 0.0
C796 C 0.68657 0.32862 0.65002 0.0
C797 C 0.71989 0.32895 0.72893 0.0
C798 C 0.69036 0.36177 0.64626 0.0
C799 C 0.70753 0.37852 0.68475 0.0
H800 H 0.85402 0.43854 0.18341 0.0
H801 H 0.76209 0.39872 1.15296 0.0
H802 H 0.76661 0.41319 1.05898 0.0
H803 H 0.80479 0.41621 0.98516 0.0
H804 H 0.90085 0.44356 1.01795 0.0
H805 H 0.88736 0.45415 1.10998 0.0
C806 C 0.8342 0.43453 1.15693 0.0
C807 C 0.80844 0.41613 1.17434 0.0
C808 C 0.83856 0.43962 1.1023 0.0
C809 C 0.78258 0.41206 1.13999 0.0
C810 C 0.78545 0.41984 1.08601 0.0
C811 C 0.82221 0.42634 1.01202 0.0
C812 C 0.85399 0.42781 0.99563 0.0
C813 C 0.81462 0.43047 1.06616 0.0
C814 C 0.8763 0.4418 1.02975 0.0
C815 C 0.86853 0.44784 1.0829 0.0
H816 H 0.90587 0.63933 0.4363 0.0
H817 H 0.85683 0.55289 0.39651 0.0
H818 H 0.82728 0.58125 0.32671 0.0
H819 H 0.82278 0.62868 0.26889 0.0
H820 H 0.8811 0.71075 0.30417 0.0
H821 H 0.89996 0.6859 0.38335 0.0
C822 C 0.88838 0.62674 0.41289 0.0
C823 C 0.88346 0.59426 0.4211 0.0
C824 C 0.87348 0.64244 0.37164 0.0
C825 C 0.86085 0.57801 0.39067 0.0
C826 C 0.84416 0.59423 0.35089 0.0
C827 C 0.83881 0.64153 0.29488 0.0
C828 C 0.85085 0.6714 0.27917 0.0
C829 C 0.85114 0.62628 0.33991 0.0
C830 C 0.87106 0.68793 0.31422 0.0
C831 C 0.88248 0.67345 0.35956 0.0
H832 H 0.45839 0.26845 0.69914 0.0
H833 H 0.42677 0.36313 0.73641 0.0
H834 H 0.4083 0.34516 0.82426 0.0
H835 H 0.40125 0.30203 0.89417 0.0
H836 H 0.42858 0.20662 0.85135 0.0
H837 H 0.44728 0.22509 0.76478 0.0
C838 C 0.4472 0.28535 0.72596 0.0
C839 C 0.44434 0.31766 0.70901 0.0
C840 C 0.43552 0.27447 0.77712 0.0
C841 C 0.42947 0.33831 0.74623 0.0
C842 C 0.41888 0.3279 0.79741 0.0
C843 C 0.41115 0.28506 0.86609 0.0
C844 C 0.41305 0.25232 0.88161 0.0
C845 C 0.42175 0.29595 0.81397 0.0
C846 C 0.4262 0.23163 0.84261 0.0
C847 C 0.43729 0.24234 0.79229 0.0
H848 H 0.44498 0.66642 0.61639 0.0
H849 H 0.54306 0.68709 0.58683 0.0
H850 H 0.52965 0.71118 0.50193 0.0
H851 H 0.49046 0.72739 0.43258 0.0
H852 H 0.39246 0.70439 0.4568 0.0
H853 H 0.40535 0.68078 0.54347 0.0
C854 C 0.46363 0.67609 0.59169 0.0
C855 C 0.49564 0.67464 0.61101 0.0
C856 C 0.45563 0.68977 0.54 0.0
C857 C 0.51847 0.68758 0.57578 0.0
C858 C 0.5107 0.70152 0.52606 0.0
C859 C 0.47164 0.71714 0.45628 0.0
C860 C 0.44003 0.71826 0.43574 0.0
C861 C 0.4794 0.70292 0.50718 0.0
C862 C 0.41688 0.70432 0.46927 0.0
C863 C 0.42438 0.69068 0.51985 0.0
H864 H 0.07258 0.74138 0.36375 0.0
H865 H 0.13539 0.66291 0.38916 0.0
H866 H 0.11378 0.63594 0.30969 0.0
H867 H 0.07574 0.63376 0.23017 0.0
H868 H 0.01248 0.71286 0.21009 0.0
H869 H 0.03495 0.73885 0.28761 0.0
C870 C 0.08194 0.71842 0.35225 0.0
C871 C 0.10645 0.70496 0.3842 0.0
C872 C 0.06891 0.70251 0.30589 0.0
C873 C 0.11703 0.67467 0.36694 0.0
C874 C 0.10445 0.659 0.3207 0.0
C875 C 0.06689 0.65683 0.24221 0.0
C876 C 0.04175 0.67073 0.21167 0.0
C877 C 0.08022 0.67252 0.28923 0.0
C878 C 0.03131 0.70072 0.2306 0.0
C879 C 0.04443 0.71607 0.27586 0.0
H880 H 0.04038 0.25391 1.00182 0.0
H881 H 0.10163 0.33233 0.964 0.0
H882 H 0.08417 0.3602 1.04535 0.0
H883 H 0.05069 0.36332 1.13026 0.0
H884 H -0.01233 0.28542 1.16334 0.0
H885 H 0.00684 0.25742 1.08433 0.0
C886 C 0.05015 0.27711 1.01093 0.0
C887 C 0.07292 0.29034 0.97484 0.0
C888 C 0.03949 0.29366 1.05859 0.0
C889 C 0.08437 0.32082 0.98933 0.0
C890 C 0.07426 0.33702 1.03667 0.0
C891 C 0.04103 0.34019 1.12045 0.0
C892 C 0.0172 0.32704 1.1549 0.0
C893 C 0.05173 0.32386 1.0722 0.0
C894 C 0.00552 0.29691 1.13916 0.0
C895 C 0.01658 0.28058 1.09306 0.0
H896 H 0.0098 0.26143 0.25462 0.0
H897 H 0.03771 0.28384 0.4143 0.0
H898 H -0.00127 0.24586 0.4498 0.0
H899 H 0.95084 0.21244 0.43182 0.0
H900 H 0.9138 0.20637 0.27486 0.0
H901 H 0.95559 0.24135 0.24022 0.0
C902 C 0.00763 0.25722 0.29722 0.0
C903 C 0.02199 0.27836 0.33257 0.0
C904 C 0.98019 0.24324 0.31642 0.0
C905 C 0.02338 0.27014 0.38675 0.0
C906 C -1e-05 0.25018 0.40725 0.0
C907 C 0.95178 0.2197 0.39037 0.0
C908 C 0.93635 0.20153 0.35149 0.0
C909 C 0.97688 0.23839 0.37238 0.0
C910 C 0.93085 0.21633 0.30245 0.0
C911 C 0.95522 0.23514 0.28214 0.0
H912 H -0.00293 0.79233 0.54206 0.0
H913 H 0.98065 0.77391 0.70689 0.0
H914 H 0.02554 0.73664 0.70816 0.0
H915 H 0.05943 0.699 0.65214 0.0
H916 H 0.04167 0.69531 0.4855 0.0
H917 H 0.01196 0.74501 0.49005 0.0
C918 C 0.00429 0.78078 0.57868 0.0
C919 C 0.98314 0.78084 0.62143 0.0
C920 C 0.02171 0.75288 0.57429 0.0
C921 C -0.00558 0.77017 0.67087 0.0
C922 C 0.0189 0.74788 0.67112 0.0
C923 C 0.04885 0.70951 0.61716 0.0
C924 C 0.05913 0.70098 0.56586 0.0
C925 C 0.03064 0.73702 0.62178 0.0
C926 C 0.03818 0.70679 0.52396 0.0
C927 C 0.02282 0.73602 0.52561 0.0
H928 H 0.52365 0.71698 0.8955 0.0
H929 H 0.59132 0.71386 0.76597 0.0
H930 H 0.62668 0.74817 0.81543 0.0
H931 H 0.622 0.79685 0.86614 0.0
H932 H 0.54299 0.81117 0.9683 0.0
H933 H 0.53172 0.75452 0.96915 0.0
C934 C 0.54648 0.72323 0.8788 0.0
C935 C 0.55403 0.71495 0.82604 0.0
C936 C 0.5656 0.74471 0.9058 0.0
C937 C 0.58426 0.72163 0.80557 0.0
C938 C 0.60487 0.74068 0.83434 0.0
C939 C 0.60333 0.78675 0.89057 0.0
C940 C 0.57919 0.80674 0.90773 0.0
C941 C 0.59377 0.75561 0.88066 0.0
C942 C 0.55904 0.79525 0.94773 0.0
C943 C 0.55214 0.76289 0.94713 0.0
H944 H 0.48765 0.36591 1.04171 0.0
H945 H 0.51732 0.33919 0.88648 0.0
H946 H 0.48519 0.29067 0.88946 0.0
H947 H 0.47067 0.24726 0.95246 0.0
H948 H 0.46369 0.27017 1.12078 0.0
H949 H 0.4693 0.32609 1.10205 0.0
C950 C 0.48577 0.34957 1.00811 0.0
C951 C 0.50988 0.35002 0.9702 0.0
C952 C 0.47296 0.3194 1.01652 0.0
C953 C 0.50289 0.33481 0.92147 0.0
C954 C 0.48537 0.30658 0.9237 0.0
C955 C 0.47008 0.26456 0.98476 0.0
C956 C 0.46585 0.25477 1.03768 0.0
C957 C 0.47431 0.29675 0.97398 0.0
C958 C 0.46655 0.2773 1.07953 0.0
C959 C 0.46846 0.30941 1.06889 0.0
H960 H 0.05732 0.77701 0.93581 0.0
H961 H 0.12659 0.7469 1.04969 0.0
H962 H 0.13211 0.69664 1.00196 0.0
H963 H 0.0894 0.65969 0.9844 0.0
H964 H 0.00428 0.69448 0.91309 0.0
H965 H 0.03315 0.73934 0.87671 0.0
C966 C 0.07454 0.75979 0.94892 0.0
C967 C 0.0887 0.76339 0.99911 0.0
C968 C 0.07418 0.72993 0.92546 0.0
C969 C 0.11315 0.74294 1.01353 0.0
C970 C 0.11656 0.71443 0.98554 0.0
C971 C 0.07762 0.67691 0.95938 0.0
C972 C 0.0446 0.67668 0.95642 0.0
C973 C 0.09239 0.70584 0.95003 0.0
C974 C 0.02944 0.69624 0.91977 0.0
C975 C 0.04616 0.72177 0.89906 0.0
H976 H 0.55853 0.73298 0.21928 0.0
H977 H 0.52629 0.66557 0.3372 0.0
H978 H 0.48222 0.65077 0.27958 0.0
H979 H 0.44628 0.67036 0.21282 0.0
H980 H 0.47121 0.7526 1.12394 0.0
H981 H 0.52699 0.7439 1.14186 0.0
C982 C 0.54194 0.71506 0.23279 0.0
C983 C 0.54427 0.70168 0.28361 0.0
C984 C 0.51687 0.70742 0.20051 0.0
C985 C 0.52365 0.67729 0.29913 0.0
C986 C 0.4992 0.66814 0.26564 0.0
C987 C 0.46455 0.68543 0.19594 0.0
C988 C 0.45605 0.71506 1.17652 0.0
C989 C 0.49447 0.68466 0.21811 0.0
C990 C 0.47811 0.73166 1.14575 0.0
C991 C 0.50977 0.72731 1.15757 0.0
H992 H 0.43821 0.2008 0.4877 0.0
H993 H 0.53215 0.22374 0.43321 0.0
H994 H 0.51131 0.26886 0.38368 0.0
H995 H 0.47384 0.31172 0.39772 0.0
H996 H 0.39083 0.29512 0.49103 0.0
H997 H 0.39576 0.23817 0.47625 0.0
C998 C 0.45413 0.21549 0.46445 0.0
C999 C 0.48689 0.21125 0.46773 0.0
C1000 C 0.44243 0.24259 0.44093 0.0
C1001 C 0.50702 0.22828 0.4339 0.0
C1002 C 0.49501 0.25373 0.40518 0.0
C1003 C 0.45617 0.29526 0.41235 0.0
C1004 C 0.43476 0.30605 0.45112 0.0
C1005 C 0.46368 0.26316 0.4143 0.0
C1006 C 0.40935 0.28648 0.4648 0.0
C1007 C 0.41279 0.25385 0.45758 0.0
H1008 H 0.02195 0.28158 0.70617 0.0
H1009 H 0.01945 0.31562 0.86621 0.0
H1010 H -0.01303 0.27023 0.89444 0.0
H1011 H 0.97102 0.21483 0.87403 0.0
H1012 H 0.96101 0.1866 0.71083 0.0
H1013 H -0.0045 0.23051 0.68217 0.0
C1014 C 0.01334 0.27918 0.74681 0.0
C1015 C 0.02854 0.29546 0.78813 0.0
C1016 C -0.00319 0.25183 0.76142 0.0
C1017 C 0.01198 0.29837 0.83653 0.0
C1018 C -0.00532 0.27197 0.85325 0.0
C1019 C 0.97712 0.21816 0.83232 0.0
C1020 C 0.96006 0.20181 0.79346 0.0
C1021 C -0.01005 0.24703 0.81652 0.0
C1022 C 0.97126 0.20222 0.74067 0.0
C1023 C -0.01074 0.22812 0.72396 0.0
H1024 H -0.01067 0.03969 0.18816 0.0
H1025 H 0.0807 0.04633 0.26257 0.0
H1026 H 0.0965 -0.0035 0.21835 0.0
H1027 H 0.08315 0.94971 1.1618 0.0
H1028 H -0.00873 0.9438 1.08866 0.0
H1029 H 0.97704 -0.00522 1.12892 0.0
C1030 C 0.01282 0.03041 0.19476 0.0
C1031 C 0.03373 0.04685 0.22916 0.0
C1032 C 0.0216 0.00174 1.16941 0.0
C1033 C 0.06408 0.03433 0.23654 0.0
C1034 C 0.07307 0.00573 0.2113 0.0
C1035 C 0.06004 0.95952 1.15438 0.0
C1036 C 0.03829 0.94245 1.12218 0.0
C1037 C 0.05186 0.989 1.17812 0.0
C1038 C 0.00859 0.95609 1.11293 0.0
C1039 C 0.00035 0.9853 1.13622 0.0
H1040 H 0.25386 0.75341 0.4968 0.0
H1041 H 0.20496 0.8353 0.43732 0.0
H1042 H 0.25257 0.85138 0.388 0.0
H1043 H 0.30738 0.83938 0.35581 0.0
H1044 H 0.35632 0.75948 0.42257 0.0
H1045 H 0.30966 0.74536 0.47434 0.0
C1046 C 0.25365 0.77499 0.47349 0.0
C1047 C 0.22566 0.79288 0.47032 0.0
C1048 C 0.28123 0.78434 0.44608 0.0
C1049 C 0.22608 0.82103 0.44051 0.0
C1050 C 0.25333 0.83016 0.41208 0.0
C1051 C 0.30797 0.81936 0.38271 0.0
C1052 C 0.33551 0.80061 0.38533 0.0
C1053 C 0.28096 0.81168 0.41375 0.0
C1054 C 0.33576 0.77457 0.4201 0.0
C1055 C 0.3089 0.76628 0.4495 0.0
H1056 H 0.46648 0.01951 0.58905 0.0
H1057 H 0.55274 0.04855 0.66664 0.0
H1058 H 0.55521 -0.00226 0.71217 0.0
H1059 H 0.53241 0.94602 0.73355 0.0
H1060 H 0.44749 0.91408 0.65596 0.0
H1061 H 0.4452 0.96449 0.60653 0.0
C1062 C 0.48591 0.01469 0.61573 0.0
C1063 C 0.50936 0.03845 0.62435 0.0
C1064 C 0.48746 0.98472 0.64182 0.0
C1065 C 0.53434 0.03125 0.65895 0.0
C1066 C 0.53578 0.00202 0.68519 0.0
C1067 C 0.51342 0.9498 0.70551 0.0
C1068 C 0.49005 0.926 0.69898 0.0
C1069 C 0.51241 0.97873 0.67738 0.0
C1070 C 0.46592 0.93159 0.66186 0.0
C1071 C 0.46454 0.96066 0.63384 0.0
H1072 H 0.29545 0.24588 0.96731 0.0
H1073 H 0.28918 0.14827 1.01618 0.0
H1074 H 0.23624 0.14435 0.9763 0.0
H1075 H 0.19071 0.16956 0.92722 0.0
H1076 H 0.20037 0.26769 0.88104 0.0
H1077 H 0.2524 0.27011 0.91962 0.0
C1078 C 0.28248 0.22373 0.9701 0.0
C1079 C 0.29654 0.19747 0.99492 0.0
C1080 C 0.2523 0.2216 0.94702 0.0
C1081 C 0.27908 0.169 0.99762 0.0
C1082 C 0.24866 0.16677 0.97487 0.0
C1083 C 0.20444 0.19125 0.92505 0.0
C1084 C 0.1913 0.21835 0.9005 0.0
C1085 C 0.23495 0.19291 0.94891 0.0
C1086 C 0.2095 0.24636 0.89913 0.0
C1087 C 0.23943 0.24794 0.92162 0.0
H1088 H 0.70405 0.29289 1.02638 0.0
H1089 H 0.65424 0.22239 0.93353 0.0
H1090 H 0.70114 0.21488 0.87696 0.0
H1091 H 0.75638 0.22979 0.85161 0.0
H1092 H 0.80485 0.30091 0.94567 0.0
H1093 H 0.75873 0.30654 1.00321 0.0
C1094 C 0.70341 0.27547 0.99428 0.0
C1095 C 0.67533 0.25802 0.98503 0.0
C1096 C 0.73039 0.27165 0.96129 0.0
C1097 C 0.67538 0.23584 0.94262 0.0
C1098 C 0.70223 0.23179 0.90973 0.0
C1099 C 0.75682 0.24674 0.8844 0.0
C1100 C 0.78446 0.26509 0.89348 0.0
C1101 C 0.72984 0.24989 0.91814 0.0
C1102 C 0.78427 0.28653 0.93695 0.0
C1103 C 0.75778 0.2897 0.9703 0.0
H1104 H 0.84138 0.73461 0.40466 0.0
H1105 H 0.82813 0.6502 0.49845 0.0
H1106 H 0.77576 0.64252 0.45825 0.0
H1107 H 0.73233 0.66231 0.40086 0.0
H1108 H 0.74766 0.74569 0.30503 0.0
H1109 H 0.80089 0.7509 0.34111 0.0
C1110 C 0.82716 0.7144 0.41645 0.0
C1111 C 0.83867 0.69326 0.45538 0.0
C1112 C 0.7974 0.70999 0.39266 0.0
C1113 C 0.81995 0.66697 0.46906 0.0
C1114 C 0.78996 0.66262 0.446 0.0
C1115 C 0.74735 0.68149 0.38741 0.0
C1116 C 0.73553 0.70384 0.35047 0.0
C1117 C 0.77819 0.68435 0.40844 0.0
C1118 C 0.75576 0.72822 0.33332 0.0
C1119 C 0.78625 0.73131 0.35422 0.0
H1120 H 0.57086 0.5369 0.68398 0.0
H1121 H 0.49549 0.52672 0.79932 0.0
H1122 H 0.48815 0.47166 0.77179 0.0
H1123 H 0.49959 0.42768 0.71057 0.0
H1124 H 0.57352 0.43651 0.59289 0.0
H1125 H 0.58537 0.49031 0.62645 0.0
C1126 C 0.55307 0.52256 0.70362 0.0
C1127 C 0.53361 0.53644 0.74374 0.0
C1128 C 0.54865 0.49054 0.68706 0.0
C1129 C 0.51079 0.51714 0.76845 0.0
C1130 C 0.5065 0.48548 0.75259 0.0
C1131 C 0.51864 0.44111 0.69249 0.0
C1132 C 0.53552 0.42788 0.64888 0.0
C1133 C 0.52479 0.47214 0.71128 0.0
C1134 C 0.56022 0.4458 0.62655 0.0
C1135 C 0.56678 0.47676 0.64552 0.0
H1136 H 0.97963 0.56495 0.22616 0.0
H1137 H 0.90335 0.55326 1.11472 0.0
H1138 H 0.89168 0.50085 1.1526 0.0
H1139 H 0.91094 0.45326 0.20557 0.0
H1140 H -0.01171 0.46769 0.31432 0.0
H1141 H -0.00755 0.52283 0.28807 0.0
C1142 C 0.9602 0.55108 0.21016 0.0
C1143 C 0.94281 0.56303 1.16678 0.0
C1144 C 0.95465 0.52045 0.23041 0.0
C1145 C 0.91737 0.54479 1.14768 0.0
C1146 C 0.91115 0.51435 1.16872 0.0
C1147 C 0.92798 0.46879 0.22459 0.0
C1148 C 0.94936 0.45601 0.26219 0.0
C1149 C 0.93065 0.50113 0.20839 0.0
C1150 C 0.9716 0.47656 0.2856 0.0
C1151 C 0.97411 0.50825 0.27032 0.0
H1152 H 0.06121 0.19088 0.45902 0.0
H1153 H -0.00228 0.12054 0.52262 0.0
H1154 H 0.01319 0.13625 0.61365 0.0
H1155 H 0.04517 0.17012 0.67845 0.0
H1156 H 0.10887 0.24015 0.61444 0.0
H1157 H 0.09314 0.22462 0.52358 0.0
C1158 C 0.05056 0.17863 0.49242 0.0
C1159 C 0.02779 0.15379 0.48119 0.0
C1160 C 0.05989 0.18799 0.54634 0.0
C1161 C 0.01502 0.13929 0.52736 0.0
C1162 C 0.02406 0.14848 0.58041 0.0
C1163 C 0.05595 0.18218 0.64496 0.0
C1164 C 0.07896 0.20683 0.65603 0.0
C1165 C 0.04657 0.17281 0.59101 0.0
C1166 C 0.09158 0.22139 0.60981 0.0
C1167 C 0.08238 0.21232 0.55684 0.0
H1168 H 0.15782 0.78327 0.75083 0.0
H1169 H 0.06749 0.79426 0.67505 0.0
H1170 H 0.04482 0.8138 0.75838 0.0
H1171 H 0.04913 0.8296 0.85541 0.0
H1172 H 0.1399 0.82292 0.93089 0.0
H1173 H 0.16253 0.80122 0.84831 0.0
C1174 C 0.13309 0.78957 0.75218 0.0
C1175 C 0.11476 0.78599 0.70413 0.0
C1176 C 0.11971 0.80255 0.80176 0.0
C1177 C 0.08281 0.79563 0.70946 0.0
C1178 C 0.06953 0.8073 0.75799 0.0
C1179 C 0.07402 0.82389 0.85418 0.0
C1180 C 0.09229 0.82897 0.90177 0.0
C1181 C 0.08755 0.81127 0.80484 0.0
C1182 C 0.12456 0.82039 0.89667 0.0
C1183 C 0.13777 0.80746 0.8486 0.0
H1184 H 0.4612 0.83667 1.14472 0.0
H1185 H 0.3879 0.77648 1.08094 0.0
H1186 H 0.40508 0.78992 0.98986 0.0
H1187 H 0.44188 0.81828 0.92608 0.0
H1188 H 0.51596 0.87705 0.99106 0.0
H1189 H 0.49764 0.8648 1.08166 0.0
C1190 C 0.44851 0.8265 1.11122 0.0
C1191 C 0.42245 0.80549 1.1218 0.0
C1192 C 0.45895 0.83422 1.05788 0.0
C1193 C 0.40746 0.79278 1.07604 0.0
C1194 C 0.41754 0.80052 1.02323 0.0
C1195 C 0.45403 0.82883 0.95982 0.0
C1196 C 0.4806 0.84933 0.94971 0.0
C1197 C 0.44334 0.82121 1.01323 0.0
C1198 C 0.49561 0.86173 0.99564 0.0
C1199 C 0.48502 0.85452 1.04819 0.0
H1200 H 0.42697 0.16121 0.40614 0.0
H1201 H 0.51203 0.11482 0.35308 0.0
H1202 H 0.49701 0.12395 0.25985 0.0
H1203 H 0.45979 0.14657 0.18967 0.0
H1204 H 0.37704 0.19641 0.24494 0.0
H1205 H 0.39116 0.18504 0.33735 0.0
C1206 C 0.4425 0.15289 0.37459 0.0
C1207 C 0.47102 0.13669 0.38932 0.0
C1208 C 0.43396 0.15917 0.31945 0.0
C1209 C 0.49005 0.12697 0.34546 0.0
C1210 C 0.48135 0.1324 0.2911 0.0
C1211 C 0.44443 0.15476 0.22158 0.0
C1212 C 0.41644 0.17229 0.20759 0.0
C1213 C 0.4533 0.14859 0.27689 0.0
C1214 C 0.39825 0.18282 0.25191 0.0
C1215 C 0.40648 0.17625 0.30583 0.0
H1216 H 0.78628 0.77226 0.78248 0.0
H1217 H 0.77955 0.87373 0.76439 0.0
H1218 H 0.79833 0.88146 0.85559 0.0
H1219 H 0.83301 0.85966 0.92418 0.0
H1220 H 0.84235 0.75812 0.93928 0.0
H1221 H 0.80577 0.75013 0.86549 0.0
C1222 C 0.7873 0.79608 0.79914 0.0
C1223 C 0.78323 0.82247 0.7658 0.0
C1224 C 0.79976 0.80031 0.85038 0.0
C1225 C 0.78383 0.85305 0.78872 0.0
C1226 C 0.79489 0.85748 0.8407 0.0
C1227 C 0.82604 0.83574 0.91308 0.0
C1228 C 0.84153 0.8095 0.93548 0.0
C1229 C 0.80569 0.83134 0.86968 0.0
C1230 C 0.83177 0.77871 0.92102 0.0
C1231 C 0.81078 0.77413 0.87893 0.0
H1232 H 0.80394 0.04422 0.68159 0.0
H1233 H 0.74614 0.09972 0.57629 0.0
H1234 H 0.76724 0.07059 0.49933 0.0
H1235 H 0.81349 0.04274 0.46328 0.0
H1236 H 0.87538 -0.00723 0.56965 0.0
H1237 H 0.84091 0.00577 0.64509 0.0
C1238 C 0.79466 0.04896 0.64216 0.0
C1239 C 0.77435 0.0749 0.63442 0.0
C1240 C 0.80846 0.03364 0.59815 0.0
C1241 C 0.7624 0.08038 0.58305 0.0
C1242 C 0.77474 0.06395 0.53902 0.0
C1243 C 0.81864 0.03347 0.50258 0.0
C1244 C 0.84724 0.01751 0.51141 0.0
C1245 C 0.79966 0.04254 0.54601 0.0
C1246 C 0.85374 0.00562 0.56236 0.0
C1247 C 0.83411 0.01319 0.60543 0.0
H1248 H 0.62949 0.13853 1.14613 0.0
H1249 H 0.54796 0.08093 0.18147 0.0
H1250 H 0.57484 0.0589 0.25898 0.0
H1251 H 0.6144 0.06771 0.32751 0.0
H1252 H 0.69031 0.13392 0.30072 0.0
H1253 H 0.67391 0.13986 0.20774 0.0
C1254 C 0.61821 0.12005 1.16941 0.0
C1255 C 0.58684 0.11134 1.15856 0.0
C1256 C 0.63293 0.10934 0.21574 0.0
C1257 C 0.57212 0.0879 0.18941 0.0
C1258 C 0.58742 0.07552 0.23379 0.0
C1259 C 0.6283 0.08215 0.30045 0.0
C1260 C 0.65334 0.10055 0.32054 0.0
C1261 C 0.61691 0.08767 0.2491 0.0
C1262 C 0.671 0.11957 0.28572 0.0
C1263 C 0.66127 0.1233 0.23295 0.0
H1264 H 0.69307 0.96147 0.98611 0.0
H1265 H 0.70055 0.87487 0.89356 0.0
H1266 H 0.72074 0.84722 0.97066 0.0
H1267 H 0.71947 0.84393 1.06782 0.0
H1268 H 0.70903 0.92928 1.16269 0.0
H1269 H 0.7066 0.96087 1.08159 0.0
C1270 C 0.7 0.93678 0.98248 0.0
C1271 C 0.69399 0.92004 0.9347 0.0
C1272 C 0.71003 0.92042 1.02794 0.0
C1273 C 0.70436 0.88841 0.92991 0.0
C1274 C 0.71555 0.87233 0.97439 0.0
C1275 C 0.71813 0.86956 1.07114 0.0
C1276 C 0.71301 0.88403 1.12126 0.0
C1277 C 0.71597 0.88748 1.02438 0.0
C1278 C 0.71173 0.91739 1.12443 0.0
C1279 C 0.71033 0.9355 1.07804 0.0
H1280 H 0.53315 0.63389 0.99742 0.0
H1281 H 0.60696 0.67867 0.90595 0.0
H1282 H 0.63162 0.69743 0.988 0.0
H1283 H 0.63449 0.70204 1.08926 0.0
H1284 H 0.56467 0.65225 0.18182 0.0
H1285 H 0.53785 0.63586 1.09965 0.0
C1286 C 0.5547 0.64764 0.99472 0.0
C1287 C 0.56726 0.65435 0.94203 0.0
C1288 C 0.5703 0.65804 1.04437 0.0
C1289 C 0.59572 0.67234 0.94328 0.0
C1290 C 0.61026 0.68344 0.99139 0.0
C1291 C 0.61344 0.68755 1.09218 0.0
C1292 C 0.6023 0.67913 1.1449 0.0
C1293 C 0.59813 0.67659 1.04281 0.0
C1294 C 0.57477 0.65976 1.14418 0.0
C1295 C 0.55904 0.65011 1.09607 0.0
H1296 H 0.55047 0.31565 0.39232 0.0
H1297 H 0.49937 0.40177 0.36217 0.0
H1298 H 0.51484 0.39832 0.26712 0.0
H1299 H 0.54312 0.36981 0.18881 0.0
H1300 H 0.59111 0.2822 0.22331 0.0
H1301 H 0.57679 0.28751 0.31706 0.0
C1302 C 0.54254 0.33403 0.36556 0.0
C1303 C 0.52352 0.35931 0.38713 0.0
C1304 C 0.55128 0.33158 0.30976 0.0
C1305 C 0.51392 0.38207 0.34916 0.0
C1306 C 0.52293 0.38001 0.29384 0.0
C1307 C 0.55092 0.35197 0.21666 0.0
C1308 C 0.56917 0.32551 0.19633 0.0
C1309 C 0.54176 0.35481 0.27296 0.0
C1310 C 0.57763 0.30289 0.23525 0.0
C1311 C 0.56927 0.3059 0.28996 0.0
H1312 H 0.91745 0.29107 0.4517 0.0
H1313 H 0.97337 0.36644 0.52037 0.0
H1314 H 0.95706 0.34951 0.6101 0.0
H1315 H 0.92597 0.31367 0.67211 0.0
H1316 H 0.87188 0.23679 0.604 0.0
H1317 H 0.88816 0.25368 0.51412 0.0
C1318 C 0.92631 0.30409 0.48599 0.0
C1319 C 0.94706 0.33088 0.47661 0.0
C1320 C 0.9168 0.29373 0.5392 0.0
C1321 C 0.95773 0.3462 0.52375 0.0
C1322 C 0.94814 0.33634 0.57602 0.0
C1323 C 0.91741 0.30034 0.63793 0.0
C1324 C 0.89676 0.2735 0.6475 0.0
C1325 C 0.92748 0.31021 0.5848 0.0
C1326 C 0.88721 0.25726 0.6005 0.0
C1327 C 0.89671 0.26715 0.54813 0.0
H1328 H 0.92916 0.68176 0.9129 0.0
H1329 H 0.98453 0.60091 0.86336 0.0
H1330 H 0.97322 0.61358 0.76938 0.0
H1331 H 0.9485 0.64862 0.69934 0.0
H1332 H 0.89396 0.72973 0.75049 0.0
H1333 H 0.90407 0.71594 0.84397 0.0
C1334 C 0.93881 0.66642 0.88202 0.0
C1335 C 0.95786 0.63975 0.89752 0.0
C1336 C 0.93229 0.67417 0.82716 0.0
C1337 C 0.96975 0.62115 0.85482 0.0
C1338 C 0.96327 0.62865 0.80035 0.0
C1339 C 0.93844 0.66339 0.73062 0.0
C1340 C 0.91989 0.69058 0.71567 0.0
C1341 C 0.94465 0.65521 0.78564 0.0
C1342 C 0.90788 0.70883 0.75866 0.0
C1343 C 0.91385 0.70083 0.81286 0.0
H1344 H 0.39497 0.49957 0.31874 0.0
H1345 H 0.32604 0.45135 0.41622 0.0
H1346 H 0.30374 0.42624 0.33753 0.0
H1347 H 0.31658 0.40424 0.24989 0.0
H1348 H 0.38755 0.44931 1.15218 0.0
H1349 H 0.39616 0.48925 0.22173 0.0
C1350 C 0.37425 0.48457 0.32236 0.0
C1351 C 0.36322 0.47616 0.37342 0.0
C1352 C 0.36269 0.46858 0.27712 0.0
C1353 C 0.33556 0.45779 0.37758 0.0
C1354 C 0.32301 0.44292 0.33249 0.0
C1355 C 0.3329 0.42356 0.24243 0.0
C1356 C 0.35262 0.42276 0.19714 0.0
C1357 C 0.33833 0.4459 0.28311 0.0
C1358 C 0.37314 0.44849 0.18798 0.0
C1359 C 0.37807 0.47139 0.22772 0.0
H1360 H 0.35093 0.56962 1.17481 0.0
H1361 H 0.2763 0.62481 1.10479 0.0
H1362 H 0.28716 0.60125 1.01812 0.0
H1363 H 0.32867 0.58087 0.9603 0.0
H1364 H 0.40689 0.52971 1.02758 0.0
H1365 H 0.38384 0.53564 1.11666 0.0
C1366 C 0.33644 0.57574 1.14084 0.0
C1367 C 0.31391 0.60013 1.14592 0.0
C1368 C 0.34419 0.56365 1.09007 0.0
C1369 C 0.29427 0.60665 1.10221 0.0
C1370 C 0.30076 0.59347 1.05214 0.0
C1371 C 0.34009 0.56963 0.99383 0.0
C1372 C 0.37029 0.55629 0.98759 0.0
C1373 C 0.32741 0.57429 1.04502 0.0
C1374 C 0.38425 0.54136 1.03167 0.0
C1375 C 0.37112 0.54482 1.08268 0.0
H1376 H 0.16725 0.56291 0.71054 0.0
H1377 H 0.21932 0.62016 0.82342 0.0
H1378 H 0.19679 0.58992 0.89735 0.0
H1379 H 0.15461 0.55509 0.92924 0.0
H1380 H 0.09896 0.50141 0.81642 0.0
H1381 H 0.13118 0.52168 0.74279 0.0
C1382 C 0.17451 0.56801 0.75122 0.0
C1383 C 0.19458 0.5939 0.76175 0.0
C1384 C 0.16051 0.55137 0.79342 0.0
C1385 C 0.20357 0.60054 0.8146 0.0
C1386 C 0.19064 0.58332 0.85677 0.0
C1387 C 0.15032 0.54687 0.88873 0.0
C1388 C 0.12438 0.52699 0.87803 0.0
C1389 C 0.16792 0.55979 0.84669 0.0
C1390 C 0.11873 0.51688 0.82536 0.0
C1391 C 0.137 0.52862 0.78336 0.0
H1392 H 0.17439 0.41608 0.44688 0.0
H1393 H 0.12607 0.47591 0.56108 0.0
H1394 H 0.16136 0.45807 0.63164 0.0
H1395 H 0.19356 0.41432 0.66338 0.0
H1396 H 0.23583 0.34904 0.55076 0.0
H1397 H 0.21639 0.38079 0.47659 0.0
C1398 C 0.17255 0.42628 0.4867 0.0
C1399 C 0.14738 0.44668 0.49935 0.0
C1400 C 0.19156 0.41438 0.52744 0.0
C1401 C 0.14506 0.45975 0.55094 0.0
C1402 C 0.16509 0.44939 0.59122 0.0
C1403 C 0.19984 0.40791 0.62266 0.0
C1404 C 0.2154 0.37907 0.61224 0.0
C1405 C 0.1867 0.42496 0.58058 0.0
C1406 C 0.22342 0.37095 0.55943 0.0
C1407 C 0.21203 0.38892 0.51713 0.0
loop_
_geom_bond_atom_site_label_1
_geom_bond_atom_site_label_2
_geom_bond_distance
_geom_bond_site_symmetry_2
_ccdc_geom_bond_type
Eu0 C9 2.828 . S
Eu0 O11 2.392 . S
Eu0 O13 2.418 . S
Eu0 O18 2.373 . S
Eu0 O21 2.488 . S
Eu0 O22 2.471 . S
Eu0 O23 2.349 . S
Eu1 O10 2.373 1_655 S
Eu1 O14 2.488 . S
Eu1 O15 2.471 . S
Eu1 O16 2.349 1_655 S
Eu1 O19 2.392 . S
Eu1 O20 2.418 1_655 S
Eu1 C30 2.828 . S
C2 O20 1.244 . S
C2 O23 1.265 . S
C3 C4 1.379 . S
C3 C7 1.373 . S
C3 C9 1.505 1_556 S
C4 C3 1.379 . S
C4 C6 1.369 . S
C4 H32 0.930 . S
C5 C7 1.383 . S
C5 C8 1.382 . S
C5 H33 0.930 . S
C6 C4 1.369 . S
C6 C8 1.392 . S
C6 H34 0.930 . S
C7 C3 1.373 . S
C7 C5 1.383 . S
C7 H35 0.931 . S
C8 C5 1.382 . S
C8 C6 1.392 . S
C9 Eu0 2.828 . S
C9 C3 1.505 1_554 S
C9 O21 1.249 . S
C9 O22 1.244 . S
O10 Eu1 2.373 1_455 S
O10 C12 1.258 . S
O11 Eu0 2.392 . S
O11 C12 1.242 . S
C12 O10 1.258 . S
C12 O11 1.242 . S
O13 Eu0 2.418 . S
O13 C17 1.244 . S
O14 Eu1 2.488 . S
O14 C30 1.249 . S
O15 Eu1 2.471 . S
O15 C30 1.244 . S
O16 Eu1 2.349 1_455 S
O16 C17 1.265 . S
C17 O13 1.244 . S
C17 O16 1.265 . S
O18 Eu0 2.373 . S
O18 C31 1.258 . S
O19 Eu1 2.392 . S
O19 C31 1.242 1_655 S
O20 Eu1 2.418 1_455 S
O20 C2 1.244 . S
O21 Eu0 2.488 . S
O21 C9 1.249 . S
O22 Eu0 2.471 . S
O22 C9 1.244 . S
O23 Eu0 2.349 . S
O23 C2 1.265 . S
C24 C25 1.379 . S
C24 C28 1.373 . S
C24 C30 1.505 . S
C25 C24 1.379 . S
C25 C27 1.369 . S
C25 H36 0.930 . S
C26 C28 1.383 . S
C26 C29 1.382 . S
C26 H37 0.930 . S
C27 C25 1.369 . S
C27 C29 1.392 . S
C27 H38 0.930 . S
C28 C24 1.373 . S
C28 C26 1.383 . S
C28 H39 0.931 . S
C29 C26 1.382 . S
C29 C27 1.392 . S
C30 Eu1 2.828 . S
C30 O14 1.249 . S
C30 O15 1.244 . S
C30 C24 1.505 . S
C31 O18 1.258 . S
C31 O19 1.242 1_455 S
H32 C4 0.930 . S
H33 C5 0.930 . S
H34 C6 0.930 . S
H35 C7 0.931 . S
H36 C25 0.930 . S
H37 C26 0.930 . S
H38 C27 0.930 . S
H39 C28 0.931 . S
Eu40 C49 2.828 . S
Eu40 O51 2.392 . S
Eu40 O53 2.418 . S
Eu40 O58 2.373 . S
Eu40 O61 2.488 . S
Eu40 O62 2.471 . S
Eu40 O63 2.349 . S
Eu41 O50 2.373 . S
Eu41 O54 2.488 . S
Eu41 O55 2.471 . S
Eu41 O56 2.349 . S
Eu41 O59 2.392 . S
Eu41 O60 2.418 . S
Eu41 C70 2.828 . S
C42 O60 1.244 . S
C42 O63 1.265 . S
C43 C44 1.379 . S
C43 C47 1.373 . S
C43 C49 1.505 . S
C44 C43 1.379 . S
C44 C46 1.369 . S
C44 H72 0.930 . S
C45 C47 1.383 . S
C45 C48 1.382 . S
C45 H73 0.930 . S
C46 C44 1.369 . S
C46 C48 1.392 . S
C46 H74 0.930 . S
C47 C43 1.373 . S
C47 C45 1.383 . S
C47 H75 0.931 . S
C48 C45 1.382 . S
C48 C46 1.392 . S
C49 Eu40 2.828 . S
C49 C43 1.505 . S
C49 O61 1.249 . S
C49 O62 1.244 . S
O50 Eu41 2.373 . S
O50 C52 1.258 . S
O51 Eu40 2.392 . S
O51 C52 1.242 . S
C52 O50 1.258 . S
C52 O51 1.242 . S
O53 Eu40 2.418 . S
O53 C57 1.244 . S
O54 Eu41 2.488 . S
O54 C70 1.249 . S
O55 Eu41 2.471 . S
O55 C70 1.244 . S
O56 Eu41 2.349 . S
O56 C57 1.265 . S
C57 O53 1.244 . S
C57 O56 1.265 . S
O58 Eu40 2.373 . S
O58 C71 1.258 . S
O59 Eu41 2.392 . S
O59 C71 1.242 . S
O60 Eu41 2.418 . S
O60 C42 1.244 . S
O61 Eu40 2.488 . S
O61 C49 1.249 . S
O62 Eu40 2.471 . S
O62 C49 1.244 . S
O63 Eu40 2.349 . S
O63 C42 1.265 . S
C64 C65 1.379 . S
C64 C68 1.373 . S
C64 C70 1.505 . S
C65 C64 1.379 . S
C65 C67 1.369 . S
C65 H76 0.930 . S
C66 C68 1.383 . S
C66 C69 1.382 . S
C66 H77 0.930 . S
C67 C65 1.369 . S
C67 C69 1.392 . S
C67 H78 0.930 . S
C68 C64 1.373 . S
C68 C66 1.383 . S
C68 H79 0.931 . S
C69 C66 1.382 . S
C69 C67 1.392 . S
C70 Eu41 2.828 . S
C70 O54 1.249 . S
C70 O55 1.244 . S
C70 C64 1.505 . S
C71 O58 1.258 . S
C71 O59 1.242 . S
H72 C44 0.930 . S
H73 C45 0.930 . S
H74 C46 0.930 . S
H75 C47 0.931 . S
H76 C65 0.930 . S
H77 C66 0.930 . S
H78 C67 0.930 . S
H79 C68 0.931 . S
Eu80 C89 2.828 . S
Eu80 O91 2.392 . S
Eu80 O93 2.418 . S
Eu80 O98 2.373 . S
Eu80 O101 2.488 . S
Eu80 O102 2.471 . S
Eu80 O103 2.349 . S
Eu81 O90 2.373 . S
Eu81 O94 2.488 . S
Eu81 O95 2.471 . S
Eu81 O96 2.349 . S
Eu81 O99 2.392 . S
Eu81 O100 2.418 . S
Eu81 C110 2.828 . S
C82 O100 1.244 . S
C82 O103 1.265 . S
C83 C84 1.379 . S
C83 C87 1.373 . S
C83 C89 1.505 . S
C84 C83 1.379 . S
C84 C86 1.369 . S
C84 H112 0.930 . S
C85 C87 1.383 . S
C85 C88 1.382 . S
C85 H113 0.930 . S
C86 C84 1.369 . S
C86 C88 1.392 . S
C86 H114 0.930 . S
C87 C83 1.373 . S
C87 C85 1.383 . S
C87 H115 0.931 . S
C88 C85 1.382 . S
C88 C86 1.392 . S
C89 Eu80 2.828 . S
C89 C83 1.505 . S
C89 O101 1.249 . S
C89 O102 1.244 . S
O90 Eu81 2.373 . S
O90 C92 1.258 . S
O91 Eu80 2.392 . S
O91 C92 1.242 . S
C92 O90 1.258 . S
C92 O91 1.242 . S
O93 Eu80 2.418 . S
O93 C97 1.244 . S
O94 Eu81 2.488 . S
O94 C110 1.249 . S
O95 Eu81 2.471 . S
O95 C110 1.244 . S
O96 Eu81 2.349 . S
O96 C97 1.265 . S
C97 O93 1.244 . S
C97 O96 1.265 . S
O98 Eu80 2.373 . S
O98 C111 1.258 . S
O99 Eu81 2.392 . S
O99 C111 1.242 . S
O100 Eu81 2.418 . S
O100 C82 1.244 . S
O101 Eu80 2.488 . S
O101 C89 1.249 . S
O102 Eu80 2.471 . S
O102 C89 1.244 . S
O103 Eu80 2.349 . S
O103 C82 1.265 . S
C104 C105 1.379 . S
C104 C108 1.373 . S
C104 C110 1.505 . S
C105 C104 1.379 . S
C105 C107 1.369 . S
C105 H116 0.930 . S
C106 C108 1.383 . S
C106 C109 1.382 . S
C106 H117 0.930 . S
C107 C105 1.369 . S
C107 C109 1.392 . S
C107 H118 0.930 . S
C108 C104 1.373 . S
C108 C106 1.383 . S
C108 H119 0.931 . S
C109 C106 1.382 . S
C109 C107 1.392 . S
C110 Eu81 2.828 . S
C110 O94 1.249 . S
C110 O95 1.244 . S
C110 C104 1.505 . S
C111 O98 1.258 . S
C111 O99 1.242 . S
H112 C84 0.930 . S
H113 C85 0.930 . S
H114 C86 0.930 . S
H115 C87 0.931 . S
H116 C105 0.930 . S
H117 C106 0.930 . S
H118 C107 0.930 . S
H119 C108 0.931 . S
Eu120 C129 2.828 . S
Eu120 O131 2.392 . S
Eu120 O133 2.418 . S
Eu120 O138 2.373 . S
Eu120 O141 2.488 . S
Eu120 O142 2.471 . S
Eu120 O143 2.349 . S
Eu121 O130 2.373 . S
Eu121 O134 2.488 . S
Eu121 O135 2.471 . S
Eu121 O136 2.349 . S
Eu121 O139 2.392 . S
Eu121 O140 2.418 . S
Eu121 C150 2.828 . S
C122 O140 1.244 . S
C122 O143 1.265 . S
C123 C124 1.379 . S
C123 C127 1.373 . S
C123 C129 1.505 . S
C124 C123 1.379 . S
C124 C126 1.369 . S
C124 H152 0.930 . S
C125 C127 1.383 . S
C125 C128 1.382 . S
C125 H153 0.930 . S
C126 C124 1.369 . S
C126 C128 1.392 . S
C126 H154 0.930 . S
C127 C123 1.373 . S
C127 C125 1.383 . S
C127 H155 0.931 . S
C128 C125 1.382 . S
C128 C126 1.392 . S
C129 Eu120 2.828 . S
C129 C123 1.505 . S
C129 O141 1.249 . S
C129 O142 1.244 . S
O130 Eu121 2.373 . S
O130 C132 1.258 . S
O131 Eu120 2.392 . S
O131 C132 1.242 . S
C132 O130 1.258 . S
C132 O131 1.242 . S
O133 Eu120 2.418 . S
O133 C137 1.244 . S
O134 Eu121 2.488 . S
O134 C150 1.249 . S
O135 Eu121 2.471 . S
O135 C150 1.244 . S
O136 Eu121 2.349 . S
O136 C137 1.265 . S
C137 O133 1.244 . S
C137 O136 1.265 . S
O138 Eu120 2.373 . S
O138 C151 1.258 . S
O139 Eu121 2.392 . S
O139 C151 1.242 . S
O140 Eu121 2.418 . S
O140 C122 1.244 . S
O141 Eu120 2.488 . S
O141 C129 1.249 . S
O142 Eu120 2.471 . S
O142 C129 1.244 . S
O143 Eu120 2.349 . S
O143 C122 1.265 . S
C144 C145 1.379 . S
C144 C148 1.373 . S
C144 C150 1.505 1_554 S
C145 C144 1.379 . S
C145 C147 1.369 . S
C145 H156 0.930 . S
C146 C148 1.383 . S
C146 C149 1.382 . S
C146 H157 0.930 . S
C147 C145 1.369 . S
C147 C149 1.392 . S
C147 H158 0.930 . S
C148 C144 1.373 . S
C148 C146 1.383 . S
C148 H159 0.931 . S
C149 C146 1.382 . S
C149 C147 1.392 . S
C150 Eu121 2.828 . S
C150 O134 1.249 . S
C150 O135 1.244 . S
C150 C144 1.505 1_556 S
C151 O138 1.258 . S
C151 O139 1.242 . S
H152 C124 0.930 . S
H153 C125 0.930 . S
H154 C126 0.930 . S
H155 C127 0.931 . S
H156 C145 0.930 . S
H157 C146 0.930 . S
H158 C147 0.930 . S
H159 C148 0.931 . S
Eu160 C169 2.828 . S
Eu160 O171 2.392 . S
Eu160 O173 2.418 . S
Eu160 O178 2.373 . S
Eu160 O181 2.488 . S
Eu160 O182 2.471 . S
Eu160 O183 2.349 . S
Eu161 O170 2.373 1_655 S
Eu161 O174 2.488 . S
Eu161 O175 2.471 . S
Eu161 O176 2.349 1_655 S
Eu161 O179 2.392 . S
Eu161 O180 2.418 1_655 S
Eu161 C190 2.828 . S
C162 O180 1.244 . S
C162 O183 1.265 . S
C163 C164 1.379 . S
C163 C167 1.373 . S
C163 C169 1.505 1_554 S
C164 C163 1.379 . S
C164 C166 1.369 . S
C164 H192 0.930 . S
C165 C167 1.383 . S
C165 C168 1.382 . S
C165 H193 0.930 . S
C166 C164 1.369 . S
C166 C168 1.392 . S
C166 H194 0.930 . S
C167 C163 1.373 . S
C167 C165 1.383 . S
C167 H195 0.931 . S
C168 C165 1.382 . S
C168 C166 1.392 . S
C169 Eu160 2.828 . S
C169 C163 1.505 1_556 S
C169 O181 1.249 . S
C169 O182 1.244 . S
O170 Eu161 2.373 1_455 S
O170 C172 1.258 . S
O171 Eu160 2.392 . S
O171 C172 1.242 . S
C172 O170 1.258 . S
C172 O171 1.242 . S
O173 Eu160 2.418 . S
O173 C177 1.244 . S
O174 Eu161 2.488 . S
O174 C190 1.249 . S
O175 Eu161 2.471 . S
O175 C190 1.244 . S
O176 Eu161 2.349 1_455 S
O176 C177 1.265 . S
C177 O173 1.244 . S
C177 O176 1.265 . S
O178 Eu160 2.373 . S
O178 C191 1.258 . S
O179 Eu161 2.392 . S
O179 C191 1.242 1_655 S
O180 Eu161 2.418 1_455 S
O180 C162 1.244 . S
O181 Eu160 2.488 . S
O181 C169 1.249 . S
O182 Eu160 2.471 . S
O182 C169 1.244 . S
O183 Eu160 2.349 . S
O183 C162 1.265 . S
C184 C185 1.379 . S
C184 C188 1.373 . S
C184 C190 1.505 . S
C185 C184 1.379 . S
C185 C187 1.369 . S
C185 H196 0.930 . S
C186 C188 1.383 . S
C186 C189 1.382 . S
C186 H197 0.930 . S
C187 C185 1.369 . S
C187 C189 1.392 . S
C187 H198 0.930 . S
C188 C184 1.373 . S
C188 C186 1.383 . S
C188 H199 0.931 . S
C189 C186 1.382 . S
C189 C187 1.392 . S
C190 Eu161 2.828 . S
C190 O174 1.249 . S
C190 O175 1.244 . S
C190 C184 1.505 . S
C191 O178 1.258 . S
C191 O179 1.242 1_455 S
H192 C164 0.930 . S
H193 C165 0.930 . S
H194 C166 0.930 . S
H195 C167 0.931 . S
H196 C185 0.930 . S
H197 C186 0.930 . S
H198 C187 0.930 . S
H199 C188 0.931 . S
Eu200 C209 2.828 . S
Eu200 O211 2.392 . S
Eu200 O213 2.418 . S
Eu200 O218 2.373 . S
Eu200 O221 2.488 . S
Eu200 O222 2.471 . S
Eu200 O223 2.349 . S
Eu201 O210 2.373 . S
Eu201 O214 2.488 . S
Eu201 O215 2.471 . S
Eu201 O216 2.349 . S
Eu201 O219 2.392 . S
Eu201 O220 2.418 . S
Eu201 C230 2.828 . S
C202 O220 1.244 . S
C202 O223 1.265 . S
C203 C204 1.379 . S
C203 C207 1.373 . S
C203 C209 1.505 . S
C204 C203 1.379 . S
C204 C206 1.369 . S
C204 H232 0.930 . S
C205 C207 1.383 . S
C205 C208 1.382 . S
C205 H233 0.930 . S
C206 C204 1.369 . S
C206 C208 1.392 . S
C206 H234 0.930 . S
C207 C203 1.373 . S
C207 C205 1.383 . S
C207 H235 0.931 . S
C208 C205 1.382 . S
C208 C206 1.392 . S
C209 Eu200 2.828 . S
C209 C203 1.505 . S
C209 O221 1.249 . S
C209 O222 1.244 . S
O210 Eu201 2.373 . S
O210 C212 1.258 . S
O211 Eu200 2.392 . S
O211 C212 1.242 . S
C212 O210 1.258 . S
C212 O211 1.242 . S
O213 Eu200 2.418 . S
O213 C217 1.244 . S
O214 Eu201 2.488 . S
O214 C230 1.249 . S
O215 Eu201 2.471 . S
O215 C230 1.244 . S
O216 Eu201 2.349 . S
O216 C217 1.265 . S
C217 O213 1.244 . S
C217 O216 1.265 . S
O218 Eu200 2.373 . S
O218 C231 1.258 . S
O219 Eu201 2.392 . S
O219 C231 1.242 . S
O220 Eu201 2.418 . S
O220 C202 1.244 . S
O221 Eu200 2.488 . S
O221 C209 1.249 . S
O222 Eu200 2.471 . S
O222 C209 1.244 . S
O223 Eu200 2.349 . S
O223 C202 1.265 . S
C224 C225 1.379 . S
C224 C228 1.373 . S
C224 C230 1.505 1_556 S
C225 C224 1.379 . S
C225 C227 1.369 . S
C225 H236 0.930 . S
C226 C228 1.383 . S
C226 C229 1.382 . S
C226 H237 0.930 . S
C227 C225 1.369 . S
C227 C229 1.392 . S
C227 H238 0.930 . S
C228 C224 1.373 . S
C228 C226 1.383 . S
C228 H239 0.931 . S
C229 C226 1.382 . S
C229 C227 1.392 . S
C230 Eu201 2.828 . S
C230 O214 1.249 . S
C230 O215 1.244 . S
C230 C224 1.505 1_554 S
C231 O218 1.258 . S
C231 O219 1.242 . S
H232 C204 0.930 . S
H233 C205 0.930 . S
H234 C206 0.930 . S
H235 C207 0.931 . S
H236 C225 0.930 . S
H237 C226 0.930 . S
H238 C227 0.930 . S
H239 C228 0.931 . S
Eu240 C249 2.828 . S
Eu240 O251 2.392 . S
Eu240 O253 2.418 . S
Eu240 O258 2.373 . S
Eu240 O261 2.488 . S
Eu240 O262 2.471 . S
Eu240 O263 2.349 . S
Eu241 O250 2.373 . S
Eu241 O254 2.488 . S
Eu241 O255 2.471 . S
Eu241 O256 2.349 . S
Eu241 O259 2.392 . S
Eu241 O260 2.418 . S
Eu241 C270 2.828 . S
C242 O260 1.244 . S
C242 O263 1.265 . S
C243 C244 1.379 . S
C243 C247 1.373 . S
C243 C249 1.505 . S
C244 C243 1.379 . S
C244 C246 1.369 . S
C244 H272 0.930 . S
C245 C247 1.383 . S
C245 C248 1.382 . S
C245 H273 0.930 . S
C246 C244 1.369 . S
C246 C248 1.392 . S
C246 H274 0.930 . S
C247 C243 1.373 . S
C247 C245 1.383 . S
C247 H275 0.931 . S
C248 C245 1.382 . S
C248 C246 1.392 . S
C249 Eu240 2.828 . S
C249 C243 1.505 . S
C249 O261 1.249 . S
C249 O262 1.244 . S
O250 Eu241 2.373 . S
O250 C252 1.258 . S
O251 Eu240 2.392 . S
O251 C252 1.242 . S
C252 O250 1.258 . S
C252 O251 1.242 . S
O253 Eu240 2.418 . S
O253 C257 1.244 . S
O254 Eu241 2.488 . S
O254 C270 1.249 . S
O255 Eu241 2.471 . S
O255 C270 1.244 . S
O256 Eu241 2.349 . S
O256 C257 1.265 . S
C257 O253 1.244 . S
C257 O256 1.265 . S
O258 Eu240 2.373 . S
O258 C271 1.258 . S
O259 Eu241 2.392 . S
O259 C271 1.242 . S
O260 Eu241 2.418 . S
O260 C242 1.244 . S
O261 Eu240 2.488 . S
O261 C249 1.249 . S
O262 Eu240 2.471 . S
O262 C249 1.244 . S
O263 Eu240 2.349 . S
O263 C242 1.265 . S
C264 C265 1.379 . S
C264 C268 1.373 . S
C264 C270 1.505 . S
C265 C264 1.379 . S
C265 C267 1.369 . S
C265 H276 0.930 . S
C266 C268 1.383 . S
C266 C269 1.382 . S
C266 H277 0.930 . S
C267 C265 1.369 . S
C267 C269 1.392 . S
C267 H278 0.930 . S
C268 C264 1.373 . S
C268 C266 1.383 . S
C268 H279 0.931 . S
C269 C266 1.382 . S
C269 C267 1.392 . S
C270 Eu241 2.828 . S
C270 O254 1.249 . S
C270 O255 1.244 . S
C270 C264 1.505 . S
C271 O258 1.258 . S
C271 O259 1.242 . S
H272 C244 0.930 . S
H273 C245 0.930 . S
H274 C246 0.930 . S
H275 C247 0.931 . S
H276 C265 0.930 . S
H277 C266 0.930 . S
H278 C267 0.930 . S
H279 C268 0.931 . S
Eu280 C289 2.828 . S
Eu280 O291 2.392 . S
Eu280 O293 2.418 . S
Eu280 O298 2.373 . S
Eu280 O301 2.488 . S
Eu280 O302 2.471 . S
Eu280 O303 2.349 . S
Eu281 O290 2.373 . S
Eu281 O294 2.488 . S
Eu281 O295 2.471 . S
Eu281 O296 2.349 . S
Eu281 O299 2.392 . S
Eu281 O300 2.418 . S
Eu281 C310 2.828 . S
C282 O300 1.244 . S
C282 O303 1.265 . S
C283 C284 1.379 . S
C283 C287 1.373 . S
C283 C289 1.505 . S
C284 C283 1.379 . S
C284 C286 1.369 . S
C284 H312 0.930 . S
C285 C287 1.383 . S
C285 C288 1.382 . S
C285 H313 0.930 . S
C286 C284 1.369 . S
C286 C288 1.392 . S
C286 H314 0.930 . S
C287 C283 1.373 . S
C287 C285 1.383 . S
C287 H315 0.931 . S
C288 C285 1.382 . S
C288 C286 1.392 . S
C289 Eu280 2.828 . S
C289 C283 1.505 . S
C289 O301 1.249 . S
C289 O302 1.244 . S
O290 Eu281 2.373 . S
O290 C292 1.258 . S
O291 Eu280 2.392 . S
O291 C292 1.242 . S
C292 O290 1.258 . S
C292 O291 1.242 . S
O293 Eu280 2.418 . S
O293 C297 1.244 . S
O294 Eu281 2.488 . S
O294 C310 1.249 . S
O295 Eu281 2.471 . S
O295 C310 1.244 . S
O296 Eu281 2.349 . S
O296 C297 1.265 . S
C297 O293 1.244 . S
C297 O296 1.265 . S
O298 Eu280 2.373 . S
O298 C311 1.258 . S
O299 Eu281 2.392 . S
O299 C311 1.242 . S
O300 Eu281 2.418 . S
O300 C282 1.244 . S
O301 Eu280 2.488 . S
O301 C289 1.249 . S
O302 Eu280 2.471 . S
O302 C289 1.244 . S
O303 Eu280 2.349 . S
O303 C282 1.265 . S
C304 C305 1.379 . S
C304 C308 1.373 . S
C304 C310 1.505 . S
C305 C304 1.379 . S
C305 C307 1.369 . S
C305 H316 0.930 . S
C306 C308 1.383 . S
C306 C309 1.382 . S
C306 H317 0.930 . S
C307 C305 1.369 . S
C307 C309 1.392 . S
C307 H318 0.930 . S
C308 C304 1.373 . S
C308 C306 1.383 . S
C308 H319 0.931 . S
C309 C306 1.382 . S
C309 C307 1.392 . S
C310 Eu281 2.828 . S
C310 O294 1.249 . S
C310 O295 1.244 . S
C310 C304 1.505 . S
C311 O298 1.258 . S
C311 O299 1.242 . S
H312 C284 0.930 . S
H313 C285 0.930 . S
H314 C286 0.930 . S
H315 C287 0.931 . S
H316 C305 0.930 . S
H317 C306 0.930 . S
H318 C307 0.930 . S
H319 C308 0.931 . S
Eu320 C329 2.828 . S
Eu320 O331 2.392 . S
Eu320 O333 2.418 . S
Eu320 O338 2.373 . S
Eu320 O341 2.488 . S
Eu320 O342 2.471 . S
Eu320 O343 2.349 . S
Eu321 O330 2.373 . S
Eu321 O334 2.488 . S
Eu321 O335 2.471 . S
Eu321 O336 2.349 . S
Eu321 O339 2.392 . S
Eu321 O340 2.418 . S
Eu321 C350 2.828 . S
C322 O340 1.244 . S
C322 O343 1.265 . S
C323 C324 1.379 . S
C323 C327 1.373 . S
C323 C329 1.505 . S
C324 C323 1.379 . S
C324 C326 1.369 . S
C324 H352 0.930 . S
C325 C327 1.383 . S
C325 C328 1.382 . S
C325 H353 0.930 . S
C326 C324 1.369 . S
C326 C328 1.392 . S
C326 H354 0.930 . S
C327 C323 1.373 . S
C327 C325 1.383 . S
C327 H355 0.931 . S
C328 C325 1.382 . S
C328 C326 1.392 . S
C329 Eu320 2.828 . S
C329 C323 1.505 . S
C329 O341 1.249 . S
C329 O342 1.244 . S
O330 Eu321 2.373 . S
O330 C332 1.258 . S
O331 Eu320 2.392 . S
O331 C332 1.242 . S
C332 O330 1.258 . S
C332 O331 1.242 . S
O333 Eu320 2.418 . S
O333 C337 1.244 . S
O334 Eu321 2.488 . S
O334 C350 1.249 . S
O335 Eu321 2.471 . S
O335 C350 1.244 . S
O336 Eu321 2.349 . S
O336 C337 1.265 . S
C337 O333 1.244 . S
C337 O336 1.265 . S
O338 Eu320 2.373 . S
O338 C351 1.258 . S
O339 Eu321 2.392 . S
O339 C351 1.242 . S
O340 Eu321 2.418 . S
O340 C322 1.244 . S
O341 Eu320 2.488 . S
O341 C329 1.249 . S
O342 Eu320 2.471 . S
O342 C329 1.244 . S
O343 Eu320 2.349 . S
O343 C322 1.265 . S
C344 C345 1.379 . S
C344 C348 1.373 . S
C344 C350 1.505 . S
C345 C344 1.379 . S
C345 C347 1.369 . S
C345 H356 0.930 . S
C346 C348 1.383 . S
C346 C349 1.382 . S
C346 H357 0.930 . S
C347 C345 1.369 . S
C347 C349 1.392 . S
C347 H358 0.930 . S
C348 C344 1.373 . S
C348 C346 1.383 . S
C348 H359 0.931 . S
C349 C346 1.382 . S
C349 C347 1.392 . S
C350 Eu321 2.828 . S
C350 O334 1.249 . S
C350 O335 1.244 . S
C350 C344 1.505 . S
C351 O338 1.258 . S
C351 O339 1.242 . S
H352 C324 0.930 . S
H353 C325 0.930 . S
H354 C326 0.930 . S
H355 C327 0.931 . S
H356 C345 0.930 . S
H357 C346 0.930 . S
H358 C347 0.930 . S
H359 C348 0.931 . S
Eu360 C369 2.828 . S
Eu360 O371 2.392 . S
Eu360 O373 2.418 . S
Eu360 O378 2.373 . S
Eu360 O381 2.488 . S
Eu360 O382 2.471 . S
Eu360 O383 2.349 . S
Eu361 O370 2.373 . S
Eu361 O374 2.488 . S
Eu361 O375 2.471 . S
Eu361 O376 2.349 . S
Eu361 O379 2.392 . S
Eu361 O380 2.418 . S
Eu361 C390 2.828 . S
C362 O380 1.244 . S
C362 O383 1.265 . S
C363 C364 1.379 . S
C363 C367 1.373 . S
C363 C369 1.505 . S
C364 C363 1.379 . S
C364 C366 1.369 . S
C364 H392 0.930 . S
C365 C367 1.383 . S
C365 C368 1.382 . S
C365 H393 0.930 . S
C366 C364 1.369 . S
C366 C368 1.392 . S
C366 H394 0.930 . S
C367 C363 1.373 . S
C367 C365 1.383 . S
C367 H395 0.931 . S
C368 C365 1.382 . S
C368 C366 1.392 . S
C369 Eu360 2.828 . S
C369 C363 1.505 . S
C369 O381 1.249 . S
C369 O382 1.244 . S
O370 Eu361 2.373 . S
O370 C372 1.258 . S
O371 Eu360 2.392 . S
O371 C372 1.242 . S
C372 O370 1.258 . S
C372 O371 1.242 . S
O373 Eu360 2.418 . S
O373 C377 1.244 . S
O374 Eu361 2.488 . S
O374 C390 1.249 . S
O375 Eu361 2.471 . S
O375 C390 1.244 . S
O376 Eu361 2.349 . S
O376 C377 1.265 . S
C377 O373 1.244 . S
C377 O376 1.265 . S
O378 Eu360 2.373 . S
O378 C391 1.258 . S
O379 Eu361 2.392 . S
O379 C391 1.242 . S
O380 Eu361 2.418 . S
O380 C362 1.244 . S
O381 Eu360 2.488 . S
O381 C369 1.249 . S
O382 Eu360 2.471 . S
O382 C369 1.244 . S
O383 Eu360 2.349 . S
O383 C362 1.265 . S
C384 C385 1.379 . S
C384 C388 1.373 . S
C384 C390 1.505 1_556 S
C385 C384 1.379 . S
C385 C387 1.369 . S
C385 H396 0.930 . S
C386 C388 1.383 . S
C386 C389 1.382 . S
C386 H397 0.930 . S
C387 C385 1.369 . S
C387 C389 1.392 . S
C387 H398 0.930 . S
C388 C384 1.373 . S
C388 C386 1.383 . S
C388 H399 0.931 . S
C389 C386 1.382 . S
C389 C387 1.392 . S
C390 Eu361 2.828 . S
C390 O374 1.249 . S
C390 O375 1.244 . S
C390 C384 1.505 1_554 S
C391 O378 1.258 . S
C391 O379 1.242 . S
H392 C364 0.930 . S
H393 C365 0.930 . S
H394 C366 0.930 . S
H395 C367 0.931 . S
H396 C385 0.930 . S
H397 C386 0.930 . S
H398 C387 0.930 . S
H399 C388 0.931 . S
Eu400 C409 2.828 . S
Eu400 O411 2.392 . S
Eu400 O413 2.418 . S
Eu400 O418 2.373 . S
Eu400 O421 2.488 . S
Eu400 O422 2.471 . S
Eu400 O423 2.349 . S
Eu401 O410 2.373 . S
Eu401 O414 2.488 . S
Eu401 O415 2.471 . S
Eu401 O416 2.349 . S
Eu401 O419 2.392 . S
Eu401 O420 2.418 . S
Eu401 C430 2.828 . S
C402 O420 1.244 . S
C402 O423 1.265 . S
C403 C404 1.379 . S
C403 C407 1.373 . S
C403 C409 1.505 . S
C404 C403 1.379 . S
C404 C406 1.369 . S
C404 H432 0.930 . S
C405 C407 1.383 . S
C405 C408 1.382 . S
C405 H433 0.930 . S
C406 C404 1.369 . S
C406 C408 1.392 . S
C406 H434 0.930 . S
C407 C403 1.373 . S
C407 C405 1.383 . S
C407 H435 0.931 . S
C408 C405 1.382 . S
C408 C406 1.392 . S
C409 Eu400 2.828 . S
C409 C403 1.505 . S
C409 O421 1.249 . S
C409 O422 1.244 . S
O410 Eu401 2.373 . S
O410 C412 1.258 . S
O411 Eu400 2.392 . S
O411 C412 1.242 . S
C412 O410 1.258 . S
C412 O411 1.242 . S
O413 Eu400 2.418 . S
O413 C417 1.244 . S
O414 Eu401 2.488 . S
O414 C430 1.249 . S
O415 Eu401 2.471 . S
O415 C430 1.244 . S
O416 Eu401 2.349 . S
O416 C417 1.265 . S
C417 O413 1.244 . S
C417 O416 1.265 . S
O418 Eu400 2.373 . S
O418 C431 1.258 . S
O419 Eu401 2.392 . S
O419 C431 1.242 . S
O420 Eu401 2.418 . S
O420 C402 1.244 . S
O421 Eu400 2.488 . S
O421 C409 1.249 . S
O422 Eu400 2.471 . S
O422 C409 1.244 . S
O423 Eu400 2.349 . S
O423 C402 1.265 . S
C424 C425 1.379 . S
C424 C428 1.373 . S
C424 C430 1.505 1_554 S
C425 C424 1.379 . S
C425 C427 1.369 . S
C425 H436 0.930 . S
C426 C428 1.383 . S
C426 C429 1.382 . S
C426 H437 0.930 . S
C427 C425 1.369 . S
C427 C429 1.392 . S
C427 H438 0.930 . S
C428 C424 1.373 . S
C428 C426 1.383 . S
C428 H439 0.931 . S
C429 C426 1.382 . S
C429 C427 1.392 . S
C430 Eu401 2.828 . S
C430 O414 1.249 . S
C430 O415 1.244 . S
C430 C424 1.505 1_556 S
C431 O418 1.258 . S
C431 O419 1.242 . S
H432 C404 0.930 . S
H433 C405 0.930 . S
H434 C406 0.930 . S
H435 C407 0.931 . S
H436 C425 0.930 . S
H437 C426 0.930 . S
H438 C427 0.930 . S
H439 C428 0.931 . S
Eu440 C449 2.828 . S
Eu440 O451 2.392 . S
Eu440 O453 2.418 . S
Eu440 O458 2.373 . S
Eu440 O461 2.488 . S
Eu440 O462 2.471 . S
Eu440 O463 2.349 . S
Eu441 O450 2.373 . S
Eu441 O454 2.488 . S
Eu441 O455 2.471 . S
Eu441 O456 2.349 . S
Eu441 O459 2.392 . S
Eu441 O460 2.418 . S
Eu441 C470 2.828 . S
C442 O460 1.244 . S
C442 O463 1.265 . S
C443 C444 1.379 . S
C443 C447 1.373 . S
C443 C449 1.505 . S
C444 C443 1.379 . S
C444 C446 1.369 . S
C444 H472 0.930 . S
C445 C447 1.383 . S
C445 C448 1.382 . S
C445 H473 0.930 . S
C446 C444 1.369 . S
C446 C448 1.392 . S
C446 H474 0.930 . S
C447 C443 1.373 . S
C447 C445 1.383 . S
C447 H475 0.931 . S
C448 C445 1.382 . S
C448 C446 1.392 . S
C449 Eu440 2.828 . S
C449 C443 1.505 . S
C449 O461 1.249 . S
C449 O462 1.244 . S
O450 Eu441 2.373 . S
O450 C452 1.258 . S
O451 Eu440 2.392 . S
O451 C452 1.242 . S
C452 O450 1.258 . S
C452 O451 1.242 . S
O453 Eu440 2.418 . S
O453 C457 1.244 . S
O454 Eu441 2.488 . S
O454 C470 1.249 . S
O455 Eu441 2.471 . S
O455 C470 1.244 . S
O456 Eu441 2.349 . S
O456 C457 1.265 . S
C457 O453 1.244 . S
C457 O456 1.265 . S
O458 Eu440 2.373 . S
O458 C471 1.258 . S
O459 Eu441 2.392 . S
O459 C471 1.242 . S
O460 Eu441 2.418 . S
O460 C442 1.244 . S
O461 Eu440 2.488 . S
O461 C449 1.249 . S
O462 Eu440 2.471 . S
O462 C449 1.244 . S
O463 Eu440 2.349 . S
O463 C442 1.265 . S
C464 C465 1.379 . S
C464 C468 1.373 . S
C464 C470 1.505 . S
C465 C464 1.379 . S
C465 C467 1.369 . S
C465 H476 0.930 . S
C466 C468 1.383 . S
C466 C469 1.382 . S
C466 H477 0.930 . S
C467 C465 1.369 . S
C467 C469 1.392 . S
C467 H478 0.930 . S
C468 C464 1.373 . S
C468 C466 1.383 . S
C468 H479 0.931 . S
C469 C466 1.382 . S
C469 C467 1.392 . S
C470 Eu441 2.828 . S
C470 O454 1.249 . S
C470 O455 1.244 . S
C470 C464 1.505 . S
C471 O458 1.258 . S
C471 O459 1.242 . S
H472 C444 0.930 . S
H473 C445 0.930 . S
H474 C446 0.930 . S
H475 C447 0.931 . S
H476 C465 0.930 . S
H477 C466 0.930 . S
H478 C467 0.930 . S
H479 C468 0.931 . S
Eu480 C489 2.828 . S
Eu480 O491 2.392 . S
Eu480 O493 2.418 . S
Eu480 O498 2.373 . S
Eu480 O501 2.488 . S
Eu480 O502 2.471 . S
Eu480 O503 2.349 . S
Eu481 O490 2.373 . S
Eu481 O494 2.488 . S
Eu481 O495 2.471 . S
Eu481 O496 2.349 . S
Eu481 O499 2.392 . S
Eu481 O500 2.418 . S
Eu481 C510 2.828 . S
C482 O500 1.244 . S
C482 O503 1.265 . S
C483 C484 1.379 . S
C483 C487 1.373 . S
C483 C489 1.505 . S
C484 C483 1.379 . S
C484 C486 1.369 . S
C484 H512 0.930 . S
C485 C487 1.383 . S
C485 C488 1.382 . S
C485 H513 0.930 . S
C486 C484 1.369 . S
C486 C488 1.392 . S
C486 H514 0.930 . S
C487 C483 1.373 . S
C487 C485 1.383 . S
C487 H515 0.931 . S
C488 C485 1.382 . S
C488 C486 1.392 . S
C489 Eu480 2.828 . S
C489 C483 1.505 . S
C489 O501 1.249 . S
C489 O502 1.244 . S
O490 Eu481 2.373 . S
O490 C492 1.258 . S
O491 Eu480 2.392 . S
O491 C492 1.242 . S
C492 O490 1.258 . S
C492 O491 1.242 . S
O493 Eu480 2.418 . S
O493 C497 1.244 . S
O494 Eu481 2.488 . S
O494 C510 1.249 . S
O495 Eu481 2.471 . S
O495 C510 1.244 . S
O496 Eu481 2.349 . S
O496 C497 1.265 . S
C497 O493 1.244 . S
C497 O496 1.265 . S
O498 Eu480 2.373 . S
O498 C511 1.258 . S
O499 Eu481 2.392 . S
O499 C511 1.242 . S
O500 Eu481 2.418 . S
O500 C482 1.244 . S
O501 Eu480 2.488 . S
O501 C489 1.249 . S
O502 Eu480 2.471 . S
O502 C489 1.244 . S
O503 Eu480 2.349 . S
O503 C482 1.265 . S
C504 C505 1.379 . S
C504 C508 1.373 . S
C504 C510 1.505 . S
C505 C504 1.379 . S
C505 C507 1.369 . S
C505 H516 0.930 . S
C506 C508 1.383 . S
C506 C509 1.382 . S
C506 H517 0.930 . S
C507 C505 1.369 . S
C507 C509 1.392 . S
C507 H518 0.930 . S
C508 C504 1.373 . S
C508 C506 1.383 . S
C508 H519 0.931 . S
C509 C506 1.382 . S
C509 C507 1.392 . S
C510 Eu481 2.828 . S
C510 O494 1.249 . S
C510 O495 1.244 . S
C510 C504 1.505 . S
C511 O498 1.258 . S
C511 O499 1.242 . S
H512 C484 0.930 . S
H513 C485 0.930 . S
H514 C486 0.930 . S
H515 C487 0.931 . S
H516 C505 0.930 . S
H517 C506 0.930 . S
H518 C507 0.930 . S
H519 C508 0.931 . S
Eu520 C529 2.828 . S
Eu520 O531 2.392 . S
Eu520 O533 2.418 . S
Eu520 O538 2.373 1_655 S
Eu520 O541 2.488 . S
Eu520 O542 2.471 . S
Eu520 O543 2.349 . S
Eu521 O530 2.373 . S
Eu521 O534 2.488 . S
Eu521 O535 2.471 . S
Eu521 O536 2.349 . S
Eu521 O539 2.392 . S
Eu521 O540 2.418 . S
Eu521 C550 2.828 . S
C522 O540 1.244 . S
C522 O543 1.265 1_455 S
C523 C524 1.379 . S
C523 C527 1.373 . S
C523 C529 1.505 1_556 S
C524 C523 1.379 . S
C524 C526 1.369 . S
C524 H552 0.930 . S
C525 C527 1.383 . S
C525 C528 1.382 . S
C525 H553 0.930 . S
C526 C524 1.369 . S
C526 C528 1.392 . S
C526 H554 0.930 . S
C527 C523 1.373 . S
C527 C525 1.383 . S
C527 H555 0.931 . S
C528 C525 1.382 . S
C528 C526 1.392 . S
C529 Eu520 2.828 . S
C529 C523 1.505 1_554 S
C529 O541 1.249 . S
C529 O542 1.244 . S
O530 Eu521 2.373 . S
O530 C532 1.258 1_455 S
O531 Eu520 2.392 . S
O531 C532 1.242 . S
C532 O530 1.258 1_655 S
C532 O531 1.242 . S
O533 Eu520 2.418 . S
O533 C537 1.244 1_655 S
O534 Eu521 2.488 . S
O534 C550 1.249 . S
O535 Eu521 2.471 . S
O535 C550 1.244 . S
O536 Eu521 2.349 . S
O536 C537 1.265 . S
C537 O533 1.244 1_455 S
C537 O536 1.265 . S
O538 Eu520 2.373 1_455 S
O538 C551 1.258 . S
O539 Eu521 2.392 . S
O539 C551 1.242 . S
O540 Eu521 2.418 . S
O540 C522 1.244 . S
O541 Eu520 2.488 . S
O541 C529 1.249 . S
O542 Eu520 2.471 . S
O542 C529 1.244 . S
O543 Eu520 2.349 . S
O543 C522 1.265 1_655 S
C544 C545 1.379 . S
C544 C548 1.373 . S
C544 C550 1.505 . S
C545 C544 1.379 . S
C545 C547 1.369 . S
C545 H556 0.930 . S
C546 C548 1.383 . S
C546 C549 1.382 . S
C546 H557 0.930 . S
C547 C545 1.369 . S
C547 C549 1.392 . S
C547 H558 0.930 . S
C548 C544 1.373 . S
C548 C546 1.383 . S
C548 H559 0.931 . S
C549 C546 1.382 . S
C549 C547 1.392 . S
C550 Eu521 2.828 . S
C550 O534 1.249 . S
C550 O535 1.244 . S
C550 C544 1.505 . S
C551 O538 1.258 . S
C551 O539 1.242 . S
H552 C524 0.930 . S
H553 C525 0.930 . S
H554 C526 0.930 . S
H555 C527 0.931 . S
H556 C545 0.930 . S
H557 C546 0.930 . S
H558 C547 0.930 . S
H559 C548 0.931 . S
Eu560 C569 2.828 . S
Eu560 O571 2.392 . S
Eu560 O573 2.418 . S
Eu560 O578 2.373 . S
Eu560 O581 2.488 . S
Eu560 O582 2.471 . S
Eu560 O583 2.349 . S
Eu561 O570 2.373 . S
Eu561 O574 2.488 . S
Eu561 O575 2.471 . S
Eu561 O576 2.349 . S
Eu561 O579 2.392 . S
Eu561 O580 2.418 . S
Eu561 C590 2.828 . S
C562 O580 1.244 . S
C562 O583 1.265 . S
C563 C564 1.379 . S
C563 C567 1.373 . S
C563 C569 1.505 . S
C564 C563 1.379 . S
C564 C566 1.369 . S
C564 H592 0.930 . S
C565 C567 1.383 . S
C565 C568 1.382 . S
C565 H593 0.930 . S
C566 C564 1.369 . S
C566 C568 1.392 . S
C566 H594 0.930 . S
C567 C563 1.373 . S
C567 C565 1.383 . S
C567 H595 0.931 . S
C568 C565 1.382 . S
C568 C566 1.392 . S
C569 Eu560 2.828 . S
C569 C563 1.505 . S
C569 O581 1.249 . S
C569 O582 1.244 . S
O570 Eu561 2.373 . S
O570 C572 1.258 . S
O571 Eu560 2.392 . S
O571 C572 1.242 . S
C572 O570 1.258 . S
C572 O571 1.242 . S
O573 Eu560 2.418 . S
O573 C577 1.244 . S
O574 Eu561 2.488 . S
O574 C590 1.249 . S
O575 Eu561 2.471 . S
O575 C590 1.244 . S
O576 Eu561 2.349 . S
O576 C577 1.265 . S
C577 O573 1.244 . S
C577 O576 1.265 . S
O578 Eu560 2.373 . S
O578 C591 1.258 . S
O579 Eu561 2.392 . S
O579 C591 1.242 . S
O580 Eu561 2.418 . S
O580 C562 1.244 . S
O581 Eu560 2.488 . S
O581 C569 1.249 . S
O582 Eu560 2.471 . S
O582 C569 1.244 . S
O583 Eu560 2.349 . S
O583 C562 1.265 . S
C584 C585 1.379 . S
C584 C588 1.373 . S
C584 C590 1.505 . S
C585 C584 1.379 . S
C585 C587 1.369 . S
C585 H596 0.930 . S
C586 C588 1.383 . S
C586 C589 1.382 . S
C586 H597 0.930 . S
C587 C585 1.369 . S
C587 C589 1.392 . S
C587 H598 0.930 . S
C588 C584 1.373 . S
C588 C586 1.383 . S
C588 H599 0.931 . S
C589 C586 1.382 . S
C589 C587 1.392 . S
C590 Eu561 2.828 . S
C590 O574 1.249 . S
C590 O575 1.244 . S
C590 C584 1.505 . S
C591 O578 1.258 . S
C591 O579 1.242 . S
H592 C564 0.930 . S
H593 C565 0.930 . S
H594 C566 0.930 . S
H595 C567 0.931 . S
H596 C585 0.930 . S
H597 C586 0.930 . S
H598 C587 0.930 . S
H599 C588 0.931 . S
Eu600 C609 2.828 . S
Eu600 O611 2.392 . S
Eu600 O613 2.418 . S
Eu600 O618 2.373 1_655 S
Eu600 O621 2.488 . S
Eu600 O622 2.471 . S
Eu600 O623 2.349 . S
Eu601 O610 2.373 . S
Eu601 O614 2.488 . S
Eu601 O615 2.471 . S
Eu601 O616 2.349 . S
Eu601 O619 2.392 . S
Eu601 O620 2.418 . S
Eu601 C630 2.828 . S
C602 O620 1.244 . S
C602 O623 1.265 1_455 S
C603 C604 1.379 . S
C603 C607 1.373 . S
C603 C609 1.505 1_554 S
C604 C603 1.379 . S
C604 C606 1.369 . S
C604 H632 0.930 . S
C605 C607 1.383 . S
C605 C608 1.382 . S
C605 H633 0.930 . S
C606 C604 1.369 . S
C606 C608 1.392 . S
C606 H634 0.930 . S
C607 C603 1.373 . S
C607 C605 1.383 . S
C607 H635 0.931 . S
C608 C605 1.382 . S
C608 C606 1.392 . S
C609 Eu600 2.828 . S
C609 C603 1.505 1_556 S
C609 O621 1.249 . S
C609 O622 1.244 . S
O610 Eu601 2.373 . S
O610 C612 1.258 1_455 S
O611 Eu600 2.392 . S
O611 C612 1.242 . S
C612 O610 1.258 1_655 S
C612 O611 1.242 . S
O613 Eu600 2.418 . S
O613 C617 1.244 1_655 S
O614 Eu601 2.488 . S
O614 C630 1.249 . S
O615 Eu601 2.471 . S
O615 C630 1.244 . S
O616 Eu601 2.349 . S
O616 C617 1.265 . S
C617 O613 1.244 1_455 S
C617 O616 1.265 . S
O618 Eu600 2.373 1_455 S
O618 C631 1.258 . S
O619 Eu601 2.392 . S
O619 C631 1.242 . S
O620 Eu601 2.418 . S
O620 C602 1.244 . S
O621 Eu600 2.488 . S
O621 C609 1.249 . S
O622 Eu600 2.471 . S
O622 C609 1.244 . S
O623 Eu600 2.349 . S
O623 C602 1.265 1_655 S
C624 C625 1.379 . S
C624 C628 1.373 . S
C624 C630 1.505 . S
C625 C624 1.379 . S
C625 C627 1.369 . S
C625 H636 0.930 . S
C626 C628 1.383 . S
C626 C629 1.382 . S
C626 H637 0.930 . S
C627 C625 1.369 . S
C627 C629 1.392 . S
C627 H638 0.930 . S
C628 C624 1.373 . S
C628 C626 1.383 . S
C628 H639 0.931 . S
C629 C626 1.382 . S
C629 C627 1.392 . S
C630 Eu601 2.828 . S
C630 O614 1.249 . S
C630 O615 1.244 . S
C630 C624 1.505 . S
C631 O618 1.258 . S
C631 O619 1.242 . S
H632 C604 0.930 . S
H633 C605 0.930 . S
H634 C606 0.930 . S
H635 C607 0.931 . S
H636 C625 0.930 . S
H637 C626 0.930 . S
H638 C627 0.930 . S
H639 C628 0.931 . S
H640 C646 0.930 . S
H641 C649 0.930 . S
H642 C650 0.930 . S
H643 C651 0.930 . S
H644 C654 0.930 . S
H645 C655 0.930 . S
C646 H640 0.930 . S
C646 C647 1.355 . S
C646 C648 1.415 . S
C647 C646 1.355 . S
C647 C649 1.419 . S
C648 C646 1.415 . S
C648 C653 1.425 . S
C648 C655 1.409 . S
C649 H641 0.930 . S
C649 C647 1.419 . S
C649 C650 1.362 . S
C650 H642 0.930 . S
C650 C649 1.362 . S
C650 C653 1.409 . S
C651 H643 0.930 . S
C651 C652 1.355 . S
C651 C653 1.415 . S
C652 C651 1.355 . S
C652 C654 1.419 . S
C653 C648 1.425 . S
C653 C650 1.409 . S
C653 C651 1.415 . S
C654 H644 0.930 . S
C654 C652 1.419 . S
C654 C655 1.362 . S
C655 H645 0.930 . S
C655 C648 1.409 . S
C655 C654 1.362 . S
H656 C662 0.930 . S
H657 C665 0.930 . S
H658 C666 0.930 . S
H659 C667 0.930 . S
H660 C670 0.930 . S
H661 C671 0.930 . S
C662 H656 0.930 . S
C662 C663 1.355 . S
C662 C664 1.415 . S
C663 C662 1.355 . S
C663 C665 1.419 . S
C664 C662 1.415 . S
C664 C669 1.425 . S
C664 C671 1.409 . S
C665 H657 0.930 . S
C665 C663 1.419 . S
C665 C666 1.362 . S
C666 H658 0.930 . S
C666 C665 1.362 . S
C666 C669 1.409 . S
C667 H659 0.930 . S
C667 C668 1.355 . S
C667 C669 1.415 . S
C668 C667 1.355 . S
C668 C670 1.419 . S
C669 C664 1.425 . S
C669 C666 1.409 . S
C669 C667 1.415 . S
C670 H660 0.930 . S
C670 C668 1.419 . S
C670 C671 1.362 . S
C671 H661 0.930 . S
C671 C664 1.409 . S
C671 C670 1.362 . S
H672 C678 0.930 . S
H673 C681 0.930 . S
H674 C682 0.930 . S
H675 C683 0.930 . S
H676 C686 0.930 . S
H677 C687 0.930 . S
C678 H672 0.930 . S
C678 C679 1.355 . S
C678 C680 1.415 . S
C679 C678 1.355 . S
C679 C681 1.419 . S
C680 C678 1.415 . S
C680 C685 1.425 . S
C680 C687 1.409 . S
C681 H673 0.930 . S
C681 C679 1.419 . S
C681 C682 1.362 . S
C682 H674 0.930 . S
C682 C681 1.362 . S
C682 C685 1.409 . S
C683 H675 0.930 . S
C683 C684 1.355 . S
C683 C685 1.415 . S
C684 C683 1.355 . S
C684 C686 1.419 . S
C685 C680 1.425 . S
C685 C682 1.409 . S
C685 C683 1.415 . S
C686 H676 0.930 . S
C686 C684 1.419 . S
C686 C687 1.362 . S
C687 H677 0.930 . S
C687 C680 1.409 . S
C687 C686 1.362 . S
H688 C694 0.930 . S
H689 C697 0.930 . S
H690 C698 0.930 . S
H691 C699 0.930 . S
H692 C702 0.930 . S
H693 C703 0.930 . S
C694 H688 0.930 . S
C694 C695 1.355 . S
C694 C696 1.415 . S
C695 C694 1.355 . S
C695 C697 1.419 . S
C696 C694 1.415 . S
C696 C701 1.425 . S
C696 C703 1.409 . S
C697 H689 0.930 . S
C697 C695 1.419 . S
C697 C698 1.362 . S
C698 H690 0.930 . S
C698 C697 1.362 . S
C698 C701 1.409 . S
C699 H691 0.930 . S
C699 C700 1.355 . S
C699 C701 1.415 . S
C700 C699 1.355 . S
C700 C702 1.419 . S
C701 C696 1.425 . S
C701 C698 1.409 . S
C701 C699 1.415 . S
C702 H692 0.930 . S
C702 C700 1.419 . S
C702 C703 1.362 . S
C703 H693 0.930 . S
C703 C696 1.409 . S
C703 C702 1.362 . S
H704 C710 0.930 . S
H705 C713 0.930 . S
H706 C714 0.930 . S
H707 C715 0.930 . S
H708 C718 0.930 1_455 S
H709 C719 0.947 . S
C710 H704 0.930 . S
C710 C711 1.355 . S
C710 C712 1.415 . S
C711 C710 1.355 . S
C711 C713 1.419 . S
C712 C710 1.415 . S
C712 C717 1.425 . S
C712 C719 1.409 . S
C713 H705 0.930 . S
C713 C711 1.419 . S
C713 C714 1.362 . S
C714 H706 0.930 . S
C714 C713 1.362 . S
C714 C717 1.409 . S
C715 H707 0.930 . S
C715 C716 1.355 . S
C715 C717 1.415 . S
C716 C715 1.355 . S
C716 C718 1.419 . S
C717 C712 1.425 . S
C717 C714 1.409 . S
C717 C715 1.415 . S
C718 H708 0.930 1_655 S
C718 C716 1.419 . S
C718 C719 1.362 . S
C719 H709 0.947 . S
C719 C712 1.409 . S
C719 C718 1.362 . S
H720 C726 0.930 . S
H721 C729 0.930 . S
H722 C730 0.930 . S
H723 C731 0.930 . S
H724 C734 0.930 . S
H725 C735 0.930 . S
C726 H720 0.930 . S
C726 C727 1.355 . S
C726 C728 1.415 . S
C727 C726 1.355 . S
C727 C729 1.419 . S
C728 C726 1.415 . S
C728 C733 1.425 . S
C728 C735 1.409 . S
C729 H721 0.930 . S
C729 C727 1.419 . S
C729 C730 1.362 . S
C730 H722 0.930 . S
C730 C729 1.362 . S
C730 C733 1.409 . S
C731 H723 0.930 . S
C731 C732 1.355 . S
C731 C733 1.415 . S
C732 C731 1.355 . S
C732 C734 1.419 . S
C733 C728 1.425 . S
C733 C730 1.409 . S
C733 C731 1.415 . S
C734 H724 0.930 . S
C734 C732 1.419 . S
C734 C735 1.362 . S
C735 H725 0.930 . S
C735 C728 1.409 . S
C735 C734 1.362 . S
H736 C742 0.930 . S
H737 C745 0.930 . S
H738 C746 0.930 . S
H739 C747 0.930 . S
H740 C750 0.930 . S
H741 C751 0.930 . S
C742 H736 0.930 . S
C742 C743 1.355 . S
C742 C744 1.415 . S
C743 C742 1.355 . S
C743 C745 1.419 . S
C744 C742 1.415 . S
C744 C749 1.425 . S
C744 C751 1.409 . S
C745 H737 0.930 . S
C745 C743 1.419 . S
C745 C746 1.362 . S
C746 H738 0.930 . S
C746 C745 1.362 . S
C746 C749 1.409 . S
C747 H739 0.930 . S
C747 C748 1.355 . S
C747 C749 1.415 . S
C748 C747 1.355 . S
C748 C750 1.419 . S
C749 C744 1.425 . S
C749 C746 1.409 . S
C749 C747 1.415 . S
C750 H740 0.930 . S
C750 C748 1.419 . S
C750 C751 1.362 . S
C751 H741 0.930 . S
C751 C744 1.409 . S
C751 C750 1.362 . S
H752 C758 0.930 . S
H753 C761 0.930 . S
H754 C762 0.930 . S
H755 C763 0.930 . S
H756 C766 0.930 . S
H757 C767 0.930 . S
C758 H752 0.930 . S
C758 C759 1.355 . S
C758 C760 1.415 . S
C759 C758 1.355 . S
C759 C761 1.419 . S
C760 C758 1.415 . S
C760 C765 1.425 . S
C760 C767 1.409 . S
C761 H753 0.930 . S
C761 C759 1.419 . S
C761 C762 1.362 . S
C762 H754 0.930 . S
C762 C761 1.362 . S
C762 C765 1.409 . S
C763 H755 0.930 . S
C763 C764 1.355 . S
C763 C765 1.415 . S
C764 C763 1.355 . S
C764 C766 1.419 . S
C765 C760 1.425 . S
C765 C762 1.409 . S
C765 C763 1.415 . S
C766 H756 0.930 . S
C766 C764 1.419 . S
C766 C767 1.362 . S
C767 H757 0.930 . S
C767 C760 1.409 . S
C767 C766 1.362 . S
H768 C774 0.930 . S
H769 C777 0.930 . S
H770 C778 0.930 . S
H771 C779 0.930 . S
H772 C782 0.930 . S
H773 C783 0.930 . S
C774 H768 0.930 . S
C774 C775 1.355 . S
C774 C776 1.415 . S
C775 C774 1.355 . S
C775 C777 1.419 . S
C776 C774 1.415 . S
C776 C781 1.425 . S
C776 C783 1.409 . S
C777 H769 0.930 . S
C777 C775 1.419 . S
C777 C778 1.362 . S
C778 H770 0.930 . S
C778 C777 1.362 . S
C778 C781 1.409 . S
C779 H771 0.930 . S
C779 C780 1.355 . S
C779 C781 1.415 . S
C780 C779 1.355 . S
C780 C782 1.419 . S
C781 C776 1.425 . S
C781 C778 1.409 . S
C781 C779 1.415 . S
C782 H772 0.930 . S
C782 C780 1.419 . S
C782 C783 1.362 . S
C783 H773 0.930 . S
C783 C776 1.409 . S
C783 C782 1.362 . S
H784 C790 0.930 . S
H785 C793 0.930 . S
H786 C794 0.930 . S
H787 C795 0.930 . S
H788 C798 0.930 . S
H789 C799 0.930 . S
C790 H784 0.930 . S
C790 C791 1.355 . S
C790 C792 1.415 . S
C791 C790 1.355 . S
C791 C793 1.419 . S
C792 C790 1.415 . S
C792 C797 1.425 . S
C792 C799 1.409 . S
C793 H785 0.930 . S
C793 C791 1.419 . S
C793 C794 1.362 . S
C794 H786 0.930 . S
C794 C793 1.362 . S
C794 C797 1.409 . S
C795 H787 0.930 . S
C795 C796 1.355 . S
C795 C797 1.415 . S
C796 C795 1.355 . S
C796 C798 1.419 . S
C797 C792 1.425 . S
C797 C794 1.409 . S
C797 C795 1.415 . S
C798 H788 0.930 . S
C798 C796 1.419 . S
C798 C799 1.362 . S
C799 H789 0.930 . S
C799 C792 1.409 . S
C799 C798 1.362 . S
H800 C806 0.930 . S
H801 C809 0.930 . S
H802 C810 0.930 . S
H803 C811 0.930 . S
H804 C814 0.930 . S
H805 C815 0.930 . S
C806 H800 0.930 . S
C806 C807 1.355 . S
C806 C808 1.415 . S
C807 C806 1.355 . S
C807 C809 1.419 . S
C808 C806 1.415 . S
C808 C813 1.425 . S
C808 C815 1.409 . S
C809 H801 0.930 . S
C809 C807 1.419 . S
C809 C810 1.362 . S
C810 H802 0.930 . S
C810 C809 1.362 . S
C810 C813 1.409 . S
C811 H803 0.930 . S
C811 C812 1.355 . S
C811 C813 1.415 . S
C812 C811 1.355 . S
C812 C814 1.419 . S
C813 C808 1.425 . S
C813 C810 1.409 . S
C813 C811 1.415 . S
C814 H804 0.930 . S
C814 C812 1.419 . S
C814 C815 1.362 . S
C815 H805 0.930 . S
C815 C808 1.409 . S
C815 C814 1.362 . S
H816 C822 0.930 . S
H817 C825 0.930 . S
H818 C826 0.930 . S
H819 C827 0.930 . S
H820 C830 0.930 . S
H821 C831 0.930 . S
C822 H816 0.930 . S
C822 C823 1.355 . S
C822 C824 1.415 . S
C823 C822 1.355 . S
C823 C825 1.419 . S
C824 C822 1.415 . S
C824 C829 1.425 . S
C824 C831 1.409 . S
C825 H817 0.930 . S
C825 C823 1.419 . S
C825 C826 1.362 . S
C826 H818 0.930 . S
C826 C825 1.362 . S
C826 C829 1.409 . S
C827 H819 0.930 . S
C827 C828 1.355 . S
C827 C829 1.415 . S
C828 C827 1.355 . S
C828 C830 1.419 . S
C829 C824 1.425 . S
C829 C826 1.409 . S
C829 C827 1.415 . S
C830 H820 0.930 . S
C830 C828 1.419 . S
C830 C831 1.362 . S
C831 H821 0.930 . S
C831 C824 1.409 . S
C831 C830 1.362 . S
H832 C838 0.930 . S
H833 C841 0.930 . S
H834 C842 0.930 . S
H835 C843 0.930 . S
H836 C846 0.930 . S
H837 C847 0.930 . S
C838 H832 0.930 . S
C838 C839 1.355 . S
C838 C840 1.415 . S
C839 C838 1.355 . S
C839 C841 1.419 . S
C840 C838 1.415 . S
C840 C845 1.425 . S
C840 C847 1.409 . S
C841 H833 0.930 . S
C841 C839 1.419 . S
C841 C842 1.362 . S
C842 H834 0.930 . S
C842 C841 1.362 . S
C842 C845 1.409 . S
C843 H835 0.930 . S
C843 C844 1.355 . S
C843 C845 1.415 . S
C844 C843 1.355 . S
C844 C846 1.419 . S
C845 C840 1.425 . S
C845 C842 1.409 . S
C845 C843 1.415 . S
C846 H836 0.930 . S
C846 C844 1.419 . S
C846 C847 1.362 . S
C847 H837 0.930 . S
C847 C840 1.409 . S
C847 C846 1.362 . S
H848 C854 0.930 . S
H849 C857 0.930 . S
H850 C858 0.930 . S
H851 C859 0.930 . S
H852 C862 0.930 . S
H853 C863 0.930 . S
C854 H848 0.930 . S
C854 C855 1.355 . S
C854 C856 1.415 . S
C855 C854 1.355 . S
C855 C857 1.419 . S
C856 C854 1.415 . S
C856 C861 1.425 . S
C856 C863 1.409 . S
C857 H849 0.930 . S
C857 C855 1.419 . S
C857 C858 1.362 . S
C858 H850 0.930 . S
C858 C857 1.362 . S
C858 C861 1.409 . S
C859 H851 0.930 . S
C859 C860 1.355 . S
C859 C861 1.415 . S
C860 C859 1.355 . S
C860 C862 1.419 . S
C861 C856 1.425 . S
C861 C858 1.409 . S
C861 C859 1.415 . S
C862 H852 0.930 . S
C862 C860 1.419 . S
C862 C863 1.362 . S
C863 H853 0.930 . S
C863 C856 1.409 . S
C863 C862 1.362 . S
H864 C870 0.930 . S
H865 C873 0.930 . S
H866 C874 0.930 . S
H867 C875 0.930 . S
H868 C878 0.930 . S
H869 C879 0.930 . S
C870 H864 0.930 . S
C870 C871 1.355 . S
C870 C872 1.415 . S
C871 C870 1.355 . S
C871 C873 1.419 . S
C872 C870 1.415 . S
C872 C877 1.425 . S
C872 C879 1.409 . S
C873 H865 0.930 . S
C873 C871 1.419 . S
C873 C874 1.362 . S
C874 H866 0.930 . S
C874 C873 1.362 . S
C874 C877 1.409 . S
C875 H867 0.930 . S
C875 C876 1.355 . S
C875 C877 1.415 . S
C876 C875 1.355 . S
C876 C878 1.419 . S
C877 C872 1.425 . S
C877 C874 1.409 . S
C877 C875 1.415 . S
C878 H868 0.930 . S
C878 C876 1.419 . S
C878 C879 1.362 . S
C879 H869 0.930 . S
C879 C872 1.409 . S
C879 C878 1.362 . S
H880 C886 0.930 . S
H881 C889 0.930 . S
H882 C890 0.930 . S
H883 C891 0.930 . S
H884 C894 0.930 . S
H885 C895 0.930 . S
C886 H880 0.930 . S
C886 C887 1.355 . S
C886 C888 1.415 . S
C887 C886 1.355 . S
C887 C889 1.419 . S
C888 C886 1.415 . S
C888 C893 1.425 . S
C888 C895 1.409 . S
C889 H881 0.930 . S
C889 C887 1.419 . S
C889 C890 1.362 . S
C890 H882 0.930 . S
C890 C889 1.362 . S
C890 C893 1.409 . S
C891 H883 0.930 . S
C891 C892 1.355 . S
C891 C893 1.415 . S
C892 C891 1.355 . S
C892 C894 1.419 . S
C893 C888 1.425 . S
C893 C890 1.409 . S
C893 C891 1.415 . S
C894 H884 0.930 . S
C894 C892 1.419 . S
C894 C895 1.362 . S
C895 H885 0.930 . S
C895 C888 1.409 . S
C895 C894 1.362 . S
H896 C902 0.930 . S
H897 C905 0.918 1_655 S
H898 C906 0.930 1_655 S
H899 C907 0.930 . S
H900 C910 0.930 . S
H901 C911 0.930 . S
C902 H896 0.930 . S
C902 C903 1.355 . S
C902 C904 1.415 . S
C903 C902 1.355 . S
C903 C905 1.430 . S
C904 C902 1.415 . S
C904 C909 1.425 . S
C904 C911 1.409 . S
C905 H897 0.918 1_455 S
C905 C903 1.430 . S
C905 C906 1.365 . S
C906 H898 0.930 1_455 S
C906 C905 1.365 . S
C906 C909 1.409 . S
C907 H899 0.930 . S
C907 C908 1.355 . S
C907 C909 1.415 . S
C908 C907 1.355 . S
C908 C910 1.419 . S
C909 C904 1.425 . S
C909 C906 1.409 . S
C909 C907 1.415 . S
C910 H900 0.930 . S
C910 C908 1.419 . S
C910 C911 1.362 . S
C911 H901 0.930 . S
C911 C904 1.409 . S
C911 C910 1.362 . S
H912 C918 0.930 . S
H913 C921 0.930 . S
H914 C922 0.930 . S
H915 C923 0.930 . S
H916 C926 0.930 . S
H917 C927 0.930 . S
C918 H912 0.930 . S
C918 C919 1.355 . S
C918 C920 1.415 1_655 S
C919 C918 1.355 . S
C919 C921 1.419 . S
C920 C918 1.415 1_455 S
C920 C925 1.425 . S
C920 C927 1.409 . S
C921 H913 0.930 . S
C921 C919 1.419 . S
C921 C922 1.362 1_655 S
C922 H914 0.930 . S
C922 C921 1.362 1_455 S
C922 C925 1.409 . S
C923 H915 0.930 . S
C923 C924 1.355 . S
C923 C925 1.415 . S
C924 C923 1.355 . S
C924 C926 1.419 . S
C925 C920 1.425 . S
C925 C922 1.409 . S
C925 C923 1.415 . S
C926 H916 0.930 . S
C926 C924 1.419 . S
C926 C927 1.362 . S
C927 H917 0.930 . S
C927 C920 1.409 . S
C927 C926 1.362 . S
H928 C934 0.930 . S
H929 C937 0.930 . S
H930 C938 0.930 . S
H931 C939 0.930 . S
H932 C942 0.930 . S
H933 C943 0.930 . S
C934 H928 0.930 . S
C934 C935 1.355 . S
C934 C936 1.415 . S
C935 C934 1.355 . S
C935 C937 1.419 . S
C936 C934 1.415 . S
C936 C941 1.425 . S
C936 C943 1.409 . S
C937 H929 0.930 . S
C937 C935 1.419 . S
C937 C938 1.362 . S
C938 H930 0.930 . S
C938 C937 1.362 . S
C938 C941 1.409 . S
C939 H931 0.930 . S
C939 C940 1.355 . S
C939 C941 1.415 . S
C940 C939 1.355 . S
C940 C942 1.419 . S
C941 C936 1.425 . S
C941 C938 1.409 . S
C941 C939 1.415 . S
C942 H932 0.930 . S
C942 C940 1.419 . S
C942 C943 1.362 . S
C943 H933 0.930 . S
C943 C936 1.409 . S
C943 C942 1.362 . S
H944 C950 0.930 . S
H945 C953 0.930 . S
H946 C954 0.930 . S
H947 C955 0.930 . S
H948 C958 0.930 . S
H949 C959 0.930 . S
C950 H944 0.930 . S
C950 C951 1.355 . S
C950 C952 1.415 . S
C951 C950 1.355 . S
C951 C953 1.419 . S
C952 C950 1.415 . S
C952 C957 1.425 . S
C952 C959 1.409 . S
C953 H945 0.930 . S
C953 C951 1.419 . S
C953 C954 1.362 . S
C954 H946 0.930 . S
C954 C953 1.362 . S
C954 C957 1.409 . S
C955 H947 0.930 . S
C955 C956 1.355 . S
C955 C957 1.415 . S
C956 C955 1.355 . S
C956 C958 1.419 . S
C957 C952 1.425 . S
C957 C954 1.409 . S
C957 C955 1.415 . S
C958 H948 0.930 . S
C958 C956 1.419 . S
C958 C959 1.362 . S
C959 H949 0.930 . S
C959 C952 1.409 . S
C959 C958 1.362 . S
H960 C966 0.930 . S
H961 C969 0.930 . S
H962 C970 0.930 . S
H963 C971 0.930 . S
H964 C974 0.930 . S
H965 C975 0.930 . S
C966 H960 0.930 . S
C966 C967 1.355 . S
C966 C968 1.415 . S
C967 C966 1.355 . S
C967 C969 1.419 . S
C968 C966 1.415 . S
C968 C973 1.425 . S
C968 C975 1.409 . S
C969 H961 0.930 . S
C969 C967 1.419 . S
C969 C970 1.362 . S
C970 H962 0.930 . S
C970 C969 1.362 . S
C970 C973 1.409 . S
C971 H963 0.930 . S
C971 C972 1.355 . S
C971 C973 1.415 . S
C972 C971 1.355 . S
C972 C974 1.419 . S
C973 C968 1.425 . S
C973 C970 1.409 . S
C973 C971 1.415 . S
C974 H964 0.930 . S
C974 C972 1.419 . S
C974 C975 1.362 . S
C975 H965 0.930 . S
C975 C968 1.409 . S
C975 C974 1.362 . S
H976 C982 0.930 . S
H977 C985 0.930 . S
H978 C986 0.930 . S
H979 C987 0.930 . S
H980 C990 0.930 . S
H981 C991 0.930 . S
C982 H976 0.930 . S
C982 C983 1.355 . S
C982 C984 1.415 . S
C983 C982 1.355 . S
C983 C985 1.419 . S
C984 C982 1.415 . S
C984 C989 1.425 . S
C984 C991 1.409 . S
C985 H977 0.930 . S
C985 C983 1.419 . S
C985 C986 1.362 . S
C986 H978 0.930 . S
C986 C985 1.362 . S
C986 C989 1.409 . S
C987 H979 0.930 . S
C987 C988 1.355 . S
C987 C989 1.415 . S
C988 C987 1.355 . S
C988 C990 1.419 . S
C989 C984 1.425 . S
C989 C986 1.409 . S
C989 C987 1.415 . S
C990 H980 0.930 . S
C990 C988 1.419 . S
C990 C991 1.362 . S
C991 H981 0.930 . S
C991 C984 1.409 . S
C991 C990 1.362 . S
H992 C998 0.930 . S
H993 C1001 0.930 . S
H994 C1002 0.930 . S
H995 C1003 0.930 . S
H996 C1006 0.930 . S
H997 C1007 0.930 . S
C998 H992 0.930 . S
C998 C999 1.355 . S
C998 C1000 1.415 . S
C999 C998 1.355 . S
C999 C1001 1.419 . S
C1000 C998 1.415 . S
C1000 C1005 1.425 . S
C1000 C1007 1.409 . S
C1001 H993 0.930 . S
C1001 C999 1.419 . S
C1001 C1002 1.362 . S
C1002 H994 0.930 . S
C1002 C1001 1.362 . S
C1002 C1005 1.409 . S
C1003 H995 0.930 . S
C1003 C1004 1.355 . S
C1003 C1005 1.415 . S
C1004 C1003 1.355 . S
C1004 C1006 1.419 . S
C1005 C1000 1.425 . S
C1005 C1002 1.409 . S
C1005 C1003 1.415 . S
C1006 H996 0.930 . S
C1006 C1004 1.419 . S
C1006 C1007 1.362 . S
C1007 H997 0.930 . S
C1007 C1000 1.409 . S
C1007 C1006 1.362 . S
H1008 C1014 0.930 . S
H1009 C1017 0.930 . S
H1010 C1018 0.930 . S
H1011 C1019 0.930 . S
H1012 C1022 0.930 . S
H1013 C1023 0.930 . S
C1014 H1008 0.930 . S
C1014 C1015 1.355 . S
C1014 C1016 1.415 . S
C1015 C1014 1.355 . S
C1015 C1017 1.419 . S
C1016 C1014 1.415 . S
C1016 C1021 1.425 . S
C1016 C1023 1.409 . S
C1017 H1009 0.930 . S
C1017 C1015 1.419 . S
C1017 C1018 1.362 . S
C1018 H1010 0.930 . S
C1018 C1017 1.362 . S
C1018 C1021 1.409 . S
C1019 H1011 0.930 . S
C1019 C1020 1.355 . S
C1019 C1021 1.415 1_655 S
C1020 C1019 1.355 . S
C1020 C1022 1.419 . S
C1021 C1016 1.425 . S
C1021 C1018 1.409 . S
C1021 C1019 1.415 1_455 S
C1022 H1012 0.930 . S
C1022 C1020 1.419 . S
C1022 C1023 1.362 1_655 S
C1023 H1013 0.930 . S
C1023 C1016 1.409 . S
C1023 C1022 1.362 1_455 S
H1024 C1030 0.930 . S
H1025 C1033 0.930 . S
H1026 C1034 0.930 1_556 S
H1027 C1035 0.930 . S
H1028 C1038 0.930 . S
H1029 C1039 0.930 1_654 S
C1030 H1024 0.930 . S
C1030 C1031 1.355 1_565 S
C1030 C1032 1.415 . S
C1031 C1030 1.355 1_545 S
C1031 C1033 1.419 . S
C1032 C1030 1.415 . S
C1032 C1037 1.425 1_564 S
C1032 C1039 1.409 1_554 S
C1033 H1025 0.930 . S
C1033 C1031 1.419 . S
C1033 C1034 1.362 . S
C1034 H1026 0.930 1_554 S
C1034 C1033 1.362 . S
C1034 C1037 1.409 1_554 S
C1035 H1027 0.930 . S
C1035 C1036 1.355 1_545 S
C1035 C1037 1.415 . S
C1036 C1035 1.355 1_565 S
C1036 C1038 1.419 . S
C1037 C1032 1.425 1_546 S
C1037 C1034 1.409 1_556 S
C1037 C1035 1.415 . S
C1038 H1028 0.930 . S
C1038 C1036 1.419 . S
C1038 C1039 1.362 . S
C1039 H1029 0.930 1_456 S
C1039 C1032 1.409 1_556 S
C1039 C1038 1.362 . S
H1040 C1046 0.930 . S
H1041 C1049 0.930 . S
H1042 C1050 0.930 . S
H1043 C1051 0.930 . S
H1044 C1054 0.930 . S
H1045 C1055 0.930 . S
C1046 H1040 0.930 . S
C1046 C1047 1.355 . S
C1046 C1048 1.415 . S
C1047 C1046 1.355 . S
C1047 C1049 1.419 . S
C1048 C1046 1.415 . S
C1048 C1053 1.425 . S
C1048 C1055 1.409 . S
C1049 H1041 0.930 . S
C1049 C1047 1.419 . S
C1049 C1050 1.362 . S
C1050 H1042 0.930 . S
C1050 C1049 1.362 . S
C1050 C1053 1.409 . S
C1051 H1043 0.930 . S
C1051 C1052 1.355 . S
C1051 C1053 1.415 . S
C1052 C1051 1.355 . S
C1052 C1054 1.419 . S
C1053 C1048 1.425 . S
C1053 C1050 1.409 . S
C1053 C1051 1.415 . S
C1054 H1044 0.930 . S
C1054 C1052 1.419 . S
C1054 C1055 1.362 . S
C1055 H1045 0.930 . S
C1055 C1048 1.409 . S
C1055 C1054 1.362 . S
H1056 C1062 0.930 . S
H1057 C1065 0.930 . S
H1058 C1066 0.930 . S
H1059 C1067 0.930 . S
H1060 C1070 0.930 . S
H1061 C1071 0.930 . S
C1062 H1056 0.930 . S
C1062 C1063 1.355 . S
C1062 C1064 1.415 . S
C1063 C1062 1.355 . S
C1063 C1065 1.419 1_545 S
C1064 C1062 1.415 . S
C1064 C1069 1.425 1_545 S
C1064 C1071 1.409 . S
C1065 H1057 0.930 . S
C1065 C1063 1.419 1_565 S
C1065 C1066 1.362 . S
C1066 H1058 0.930 . S
C1066 C1065 1.362 . S
C1066 C1069 1.409 . S
C1067 H1059 0.930 . S
C1067 C1068 1.355 . S
C1067 C1069 1.415 . S
C1068 C1067 1.355 . S
C1068 C1070 1.419 1_565 S
C1069 C1064 1.425 1_565 S
C1069 C1066 1.409 . S
C1069 C1067 1.415 . S
C1070 H1060 0.930 . S
C1070 C1068 1.419 1_545 S
C1070 C1071 1.362 . S
C1071 H1061 0.930 . S
C1071 C1064 1.409 . S
C1071 C1070 1.362 . S
H1072 C1078 0.930 . S
H1073 C1081 0.930 . S
H1074 C1082 0.930 . S
H1075 C1083 0.930 . S
H1076 C1086 0.930 . S
H1077 C1087 0.930 . S
C1078 H1072 0.930 . S
C1078 C1079 1.355 . S
C1078 C1080 1.415 . S
C1079 C1078 1.355 . S
C1079 C1081 1.419 . S
C1080 C1078 1.415 . S
C1080 C1085 1.425 . S
C1080 C1087 1.409 . S
C1081 H1073 0.930 . S
C1081 C1079 1.419 . S
C1081 C1082 1.362 . S
C1082 H1074 0.930 . S
C1082 C1081 1.362 . S
C1082 C1085 1.409 . S
C1083 H1075 0.930 . S
C1083 C1084 1.355 . S
C1083 C1085 1.415 . S
C1084 C1083 1.355 . S
C1084 C1086 1.419 . S
C1085 C1080 1.425 . S
C1085 C1082 1.409 . S
C1085 C1083 1.415 . S
C1086 H1076 0.930 . S
C1086 C1084 1.419 . S
C1086 C1087 1.362 . S
C1087 H1077 0.930 . S
C1087 C1080 1.409 . S
C1087 C1086 1.362 . S
H1088 C1094 0.930 . S
H1089 C1097 0.930 . S
H1090 C1098 0.930 . S
H1091 C1099 0.930 . S
H1092 C1102 0.930 . S
H1093 C1103 0.930 . S
C1094 H1088 0.930 . S
C1094 C1095 1.355 . S
C1094 C1096 1.415 . S
C1095 C1094 1.355 . S
C1095 C1097 1.419 . S
C1096 C1094 1.415 . S
C1096 C1101 1.425 . S
C1096 C1103 1.409 . S
C1097 H1089 0.930 . S
C1097 C1095 1.419 . S
C1097 C1098 1.362 . S
C1098 H1090 0.930 . S
C1098 C1097 1.362 . S
C1098 C1101 1.409 . S
C1099 H1091 0.930 . S
C1099 C1100 1.355 . S
C1099 C1101 1.415 . S
C1100 C1099 1.355 . S
C1100 C1102 1.419 . S
C1101 C1096 1.425 . S
C1101 C1098 1.409 . S
C1101 C1099 1.415 . S
C1102 H1092 0.930 . S
C1102 C1100 1.419 . S
C1102 C1103 1.362 . S
C1103 H1093 0.930 . S
C1103 C1096 1.409 . S
C1103 C1102 1.362 . S
H1104 C1110 0.930 . S
H1105 C1113 0.930 . S
H1106 C1114 0.930 . S
H1107 C1115 0.930 . S
H1108 C1118 0.930 . S
H1109 C1119 0.930 . S
C1110 H1104 0.930 . S
C1110 C1111 1.355 . S
C1110 C1112 1.415 . S
C1111 C1110 1.355 . S
C1111 C1113 1.419 . S
C1112 C1110 1.415 . S
C1112 C1117 1.425 . S
C1112 C1119 1.409 . S
C1113 H1105 0.930 . S
C1113 C1111 1.419 . S
C1113 C1114 1.362 . S
C1114 H1106 0.930 . S
C1114 C1113 1.362 . S
C1114 C1117 1.409 . S
C1115 H1107 0.930 . S
C1115 C1116 1.355 . S
C1115 C1117 1.415 . S
C1116 C1115 1.355 . S
C1116 C1118 1.419 . S
C1117 C1112 1.425 . S
C1117 C1114 1.409 . S
C1117 C1115 1.415 . S
C1118 H1108 0.930 . S
C1118 C1116 1.419 . S
C1118 C1119 1.362 . S
C1119 H1109 0.930 . S
C1119 C1112 1.409 . S
C1119 C1118 1.362 . S
H1120 C1126 0.930 . S
H1121 C1129 0.930 . S
H1122 C1130 0.930 . S
H1123 C1131 0.930 . S
H1124 C1134 0.930 . S
H1125 C1135 0.930 . S
C1126 H1120 0.930 . S
C1126 C1127 1.355 . S
C1126 C1128 1.415 . S
C1127 C1126 1.355 . S
C1127 C1129 1.419 . S
C1128 C1126 1.415 . S
C1128 C1133 1.425 . S
C1128 C1135 1.409 . S
C1129 H1121 0.930 . S
C1129 C1127 1.419 . S
C1129 C1130 1.362 . S
C1130 H1122 0.930 . S
C1130 C1129 1.362 . S
C1130 C1133 1.409 . S
C1131 H1123 0.930 . S
C1131 C1132 1.355 . S
C1131 C1133 1.415 . S
C1132 C1131 1.355 . S
C1132 C1134 1.419 . S
C1133 C1128 1.425 . S
C1133 C1130 1.409 . S
C1133 C1131 1.415 . S
C1134 H1124 0.930 . S
C1134 C1132 1.419 . S
C1134 C1135 1.362 . S
C1135 H1125 0.930 . S
C1135 C1128 1.409 . S
C1135 C1134 1.362 . S
H1136 C1142 0.930 . S
H1137 C1145 0.930 . S
H1138 C1146 0.930 1_554 S
H1139 C1147 0.927 1_655 S
H1140 C1150 0.930 . S
H1141 C1151 0.930 1_556 S
C1142 H1136 0.930 . S
C1142 C1143 1.355 . S
C1142 C1144 1.415 . S
C1143 C1142 1.355 . S
C1143 C1145 1.419 1_455 S
C1144 C1142 1.415 . S
C1144 C1149 1.429 1_556 S
C1144 C1151 1.409 1_556 S
C1145 H1137 0.930 . S
C1145 C1143 1.419 1_655 S
C1145 C1146 1.362 . S
C1146 H1138 0.930 1_556 S
C1146 C1145 1.362 . S
C1146 C1149 1.406 1_656 S
C1147 H1139 0.927 1_455 S
C1147 C1148 1.358 . S
C1147 C1149 1.415 . S
C1148 C1147 1.358 . S
C1148 C1150 1.419 . S
C1149 C1144 1.429 1_554 S
C1149 C1146 1.406 1_454 S
C1149 C1147 1.415 . S
C1150 H1140 0.930 . S
C1150 C1148 1.419 . S
C1150 C1151 1.362 . S
C1151 H1141 0.930 1_554 S
C1151 C1144 1.409 1_554 S
C1151 C1150 1.362 . S
H1152 C1158 0.930 . S
H1153 C1161 0.930 . S
H1154 C1162 0.930 . S
H1155 C1163 0.930 . S
H1156 C1166 0.930 . S
H1157 C1167 0.930 . S
C1158 H1152 0.930 . S
C1158 C1159 1.355 . S
C1158 C1160 1.415 . S
C1159 C1158 1.355 . S
C1159 C1161 1.419 . S
C1160 C1158 1.415 . S
C1160 C1165 1.425 . S
C1160 C1167 1.409 . S
C1161 H1153 0.930 . S
C1161 C1159 1.419 . S
C1161 C1162 1.362 . S
C1162 H1154 0.930 . S
C1162 C1161 1.362 . S
C1162 C1165 1.409 . S
C1163 H1155 0.930 . S
C1163 C1164 1.355 . S
C1163 C1165 1.415 . S
C1164 C1163 1.355 . S
C1164 C1166 1.419 . S
C1165 C1160 1.425 . S
C1165 C1162 1.409 . S
C1165 C1163 1.415 . S
C1166 H1156 0.930 . S
C1166 C1164 1.419 . S
C1166 C1167 1.362 . S
C1167 H1157 0.930 . S
C1167 C1160 1.409 . S
C1167 C1166 1.362 . S
H1168 C1174 0.930 . S
H1169 C1177 0.930 . S
H1170 C1178 0.930 . S
H1171 C1179 0.930 . S
H1172 C1182 0.930 . S
H1173 C1183 0.930 . S
C1174 H1168 0.930 . S
C1174 C1175 1.355 . S
C1174 C1176 1.415 . S
C1175 C1174 1.355 . S
C1175 C1177 1.419 . S
C1176 C1174 1.415 . S
C1176 C1181 1.425 . S
C1176 C1183 1.409 . S
C1177 H1169 0.930 . S
C1177 C1175 1.419 . S
C1177 C1178 1.362 . S
C1178 H1170 0.930 . S
C1178 C1177 1.362 . S
C1178 C1181 1.409 . S
C1179 H1171 0.930 . S
C1179 C1180 1.355 . S
C1179 C1181 1.415 . S
C1180 C1179 1.355 . S
C1180 C1182 1.419 . S
C1181 C1176 1.425 . S
C1181 C1178 1.409 . S
C1181 C1179 1.415 . S
C1182 H1172 0.930 . S
C1182 C1180 1.419 . S
C1182 C1183 1.362 . S
C1183 H1173 0.930 . S
C1183 C1176 1.409 . S
C1183 C1182 1.362 . S
H1184 C1190 0.930 . S
H1185 C1193 0.930 . S
H1186 C1194 0.930 . S
H1187 C1195 0.930 . S
H1188 C1198 0.930 . S
H1189 C1199 0.930 . S
C1190 H1184 0.930 . S
C1190 C1191 1.355 . S
C1190 C1192 1.415 . S
C1191 C1190 1.355 . S
C1191 C1193 1.419 . S
C1192 C1190 1.415 . S
C1192 C1197 1.425 . S
C1192 C1199 1.409 . S
C1193 H1185 0.930 . S
C1193 C1191 1.419 . S
C1193 C1194 1.362 . S
C1194 H1186 0.930 . S
C1194 C1193 1.362 . S
C1194 C1197 1.409 . S
C1195 H1187 0.930 . S
C1195 C1196 1.355 . S
C1195 C1197 1.415 . S
C1196 C1195 1.355 . S
C1196 C1198 1.419 . S
C1197 C1192 1.425 . S
C1197 C1194 1.409 . S
C1197 C1195 1.415 . S
C1198 H1188 0.930 . S
C1198 C1196 1.419 . S
C1198 C1199 1.362 . S
C1199 H1189 0.930 . S
C1199 C1192 1.409 . S
C1199 C1198 1.362 . S
H1200 C1206 0.930 . S
H1201 C1209 0.930 . S
H1202 C1210 0.930 . S
H1203 C1211 0.930 . S
H1204 C1214 0.930 . S
H1205 C1215 0.930 . S
C1206 H1200 0.930 . S
C1206 C1207 1.355 . S
C1206 C1208 1.415 . S
C1207 C1206 1.355 . S
C1207 C1209 1.419 . S
C1208 C1206 1.415 . S
C1208 C1213 1.425 . S
C1208 C1215 1.409 . S
C1209 H1201 0.930 . S
C1209 C1207 1.419 . S
C1209 C1210 1.362 . S
C1210 H1202 0.930 . S
C1210 C1209 1.362 . S
C1210 C1213 1.409 . S
C1211 H1203 0.930 . S
C1211 C1212 1.355 . S
C1211 C1213 1.415 . S
C1212 C1211 1.355 . S
C1212 C1214 1.419 . S
C1213 C1208 1.425 . S
C1213 C1210 1.409 . S
C1213 C1211 1.415 . S
C1214 H1204 0.930 . S
C1214 C1212 1.419 . S
C1214 C1215 1.362 . S
C1215 H1205 0.930 . S
C1215 C1208 1.409 . S
C1215 C1214 1.362 . S
H1216 C1222 0.930 . S
H1217 C1225 0.930 . S
H1218 C1226 0.930 . S
H1219 C1227 0.930 . S
H1220 C1230 0.930 . S
H1221 C1231 0.930 . S
C1222 H1216 0.930 . S
C1222 C1223 1.355 . S
C1222 C1224 1.415 . S
C1223 C1222 1.355 . S
C1223 C1225 1.419 . S
C1224 C1222 1.415 . S
C1224 C1229 1.425 . S
C1224 C1231 1.409 . S
C1225 H1217 0.930 . S
C1225 C1223 1.419 . S
C1225 C1226 1.362 . S
C1226 H1218 0.930 . S
C1226 C1225 1.362 . S
C1226 C1229 1.409 . S
C1227 H1219 0.930 . S
C1227 C1228 1.355 . S
C1227 C1229 1.415 . S
C1228 C1227 1.355 . S
C1228 C1230 1.419 . S
C1229 C1224 1.425 . S
C1229 C1226 1.409 . S
C1229 C1227 1.415 . S
C1230 H1220 0.930 . S
C1230 C1228 1.419 . S
C1230 C1231 1.362 . S
C1231 H1221 0.930 . S
C1231 C1224 1.409 . S
C1231 C1230 1.362 . S
H1232 C1238 0.930 . S
H1233 C1241 0.930 . S
H1234 C1242 0.930 . S
H1235 C1243 0.930 . S
H1236 C1246 0.930 . S
H1237 C1247 0.930 . S
C1238 H1232 0.930 . S
C1238 C1239 1.355 . S
C1238 C1240 1.415 . S
C1239 C1238 1.355 . S
C1239 C1241 1.419 . S
C1240 C1238 1.415 . S
C1240 C1245 1.425 . S
C1240 C1247 1.409 . S
C1241 H1233 0.930 . S
C1241 C1239 1.419 . S
C1241 C1242 1.362 . S
C1242 H1234 0.930 . S
C1242 C1241 1.362 . S
C1242 C1245 1.409 . S
C1243 H1235 0.930 . S
C1243 C1244 1.355 . S
C1243 C1245 1.415 . S
C1244 C1243 1.355 . S
C1244 C1246 1.419 . S
C1245 C1240 1.425 . S
C1245 C1242 1.409 . S
C1245 C1243 1.415 . S
C1246 H1236 0.930 . S
C1246 C1244 1.419 . S
C1246 C1247 1.362 . S
C1247 H1237 0.930 . S
C1247 C1240 1.409 . S
C1247 C1246 1.362 . S
H1248 C1254 0.930 . S
H1249 C1257 0.930 . S
H1250 C1258 0.930 . S
H1251 C1259 0.930 . S
H1252 C1262 0.930 . S
H1253 C1263 0.930 . S
C1254 H1248 0.930 . S
C1254 C1255 1.355 . S
C1254 C1256 1.415 . S
C1255 C1254 1.355 . S
C1255 C1257 1.419 . S
C1256 C1254 1.415 . S
C1256 C1261 1.425 . S
C1256 C1263 1.409 . S
C1257 H1249 0.930 . S
C1257 C1255 1.419 . S
C1257 C1258 1.362 . S
C1258 H1250 0.930 . S
C1258 C1257 1.362 . S
C1258 C1261 1.409 . S
C1259 H1251 0.930 . S
C1259 C1260 1.355 . S
C1259 C1261 1.415 . S
C1260 C1259 1.355 . S
C1260 C1262 1.419 . S
C1261 C1256 1.425 . S
C1261 C1258 1.409 . S
C1261 C1259 1.415 . S
C1262 H1252 0.930 . S
C1262 C1260 1.419 . S
C1262 C1263 1.362 . S
C1263 H1253 0.930 . S
C1263 C1256 1.409 . S
C1263 C1262 1.362 . S
H1264 C1270 0.930 . S
H1265 C1273 0.930 . S
H1266 C1274 0.930 . S
H1267 C1275 0.930 . S
H1268 C1278 0.930 . S
H1269 C1279 0.930 . S
C1270 H1264 0.930 . S
C1270 C1271 1.355 . S
C1270 C1272 1.415 . S
C1271 C1270 1.355 . S
C1271 C1273 1.419 . S
C1272 C1270 1.415 . S
C1272 C1277 1.425 . S
C1272 C1279 1.409 . S
C1273 H1265 0.930 . S
C1273 C1271 1.419 . S
C1273 C1274 1.362 . S
C1274 H1266 0.930 . S
C1274 C1273 1.362 . S
C1274 C1277 1.409 . S
C1275 H1267 0.930 . S
C1275 C1276 1.355 . S
C1275 C1277 1.415 . S
C1276 C1275 1.355 . S
C1276 C1278 1.419 . S
C1277 C1272 1.425 . S
C1277 C1274 1.409 . S
C1277 C1275 1.415 . S
C1278 H1268 0.930 . S
C1278 C1276 1.419 . S
C1278 C1279 1.362 . S
C1279 H1269 0.930 . S
C1279 C1272 1.409 . S
C1279 C1278 1.362 . S
H1280 C1286 0.930 . S
H1281 C1289 0.930 . S
H1282 C1290 0.930 . S
H1283 C1291 0.930 . S
H1284 C1294 0.930 . S
H1285 C1295 0.930 . S
C1286 H1280 0.930 . S
C1286 C1287 1.355 . S
C1286 C1288 1.415 . S
C1287 C1286 1.355 . S
C1287 C1289 1.419 . S
C1288 C1286 1.415 . S
C1288 C1293 1.425 . S
C1288 C1295 1.409 . S
C1289 H1281 0.930 . S
C1289 C1287 1.419 . S
C1289 C1290 1.362 . S
C1290 H1282 0.930 . S
C1290 C1289 1.362 . S
C1290 C1293 1.409 . S
C1291 H1283 0.930 . S
C1291 C1292 1.355 . S
C1291 C1293 1.415 . S
C1292 C1291 1.355 . S
C1292 C1294 1.419 . S
C1293 C1288 1.425 . S
C1293 C1290 1.409 . S
C1293 C1291 1.415 . S
C1294 H1284 0.930 . S
C1294 C1292 1.419 . S
C1294 C1295 1.362 . S
C1295 H1285 0.930 . S
C1295 C1288 1.409 . S
C1295 C1294 1.362 . S
H1296 C1302 0.930 . S
H1297 C1305 0.930 . S
H1298 C1306 0.930 . S
H1299 C1307 0.930 . S
H1300 C1310 0.930 . S
H1301 C1311 0.930 . S
C1302 H1296 0.930 . S
C1302 C1303 1.355 . S
C1302 C1304 1.415 . S
C1303 C1302 1.355 . S
C1303 C1305 1.419 . S
C1304 C1302 1.415 . S
C1304 C1309 1.425 . S
C1304 C1311 1.409 . S
C1305 H1297 0.930 . S
C1305 C1303 1.419 . S
C1305 C1306 1.362 . S
C1306 H1298 0.930 . S
C1306 C1305 1.362 . S
C1306 C1309 1.409 . S
C1307 H1299 0.930 . S
C1307 C1308 1.355 . S
C1307 C1309 1.415 . S
C1308 C1307 1.355 . S
C1308 C1310 1.419 . S
C1309 C1304 1.425 . S
C1309 C1306 1.409 . S
C1309 C1307 1.415 . S
C1310 H1300 0.930 . S
C1310 C1308 1.419 . S
C1310 C1311 1.362 . S
C1311 H1301 0.930 . S
C1311 C1304 1.409 . S
C1311 C1310 1.362 . S
H1312 C1318 0.930 . S
H1313 C1321 0.930 . S
H1314 C1322 0.930 . S
H1315 C1323 0.930 . S
H1316 C1326 0.930 . S
H1317 C1327 0.930 . S
C1318 H1312 0.930 . S
C1318 C1319 1.355 . S
C1318 C1320 1.415 . S
C1319 C1318 1.355 . S
C1319 C1321 1.419 . S
C1320 C1318 1.415 . S
C1320 C1325 1.425 . S
C1320 C1327 1.409 . S
C1321 H1313 0.930 . S
C1321 C1319 1.419 . S
C1321 C1322 1.362 . S
C1322 H1314 0.930 . S
C1322 C1321 1.362 . S
C1322 C1325 1.409 . S
C1323 H1315 0.930 . S
C1323 C1324 1.355 . S
C1323 C1325 1.415 . S
C1324 C1323 1.355 . S
C1324 C1326 1.419 . S
C1325 C1320 1.425 . S
C1325 C1322 1.409 . S
C1325 C1323 1.415 . S
C1326 H1316 0.930 . S
C1326 C1324 1.419 . S
C1326 C1327 1.362 . S
C1327 H1317 0.930 . S
C1327 C1320 1.409 . S
C1327 C1326 1.362 . S
H1328 C1334 0.930 . S
H1329 C1337 0.930 . S
H1330 C1338 0.930 . S
H1331 C1339 0.930 . S
H1332 C1342 0.930 . S
H1333 C1343 0.930 . S
C1334 H1328 0.930 . S
C1334 C1335 1.355 . S
C1334 C1336 1.415 . S
C1335 C1334 1.355 . S
C1335 C1337 1.419 . S
C1336 C1334 1.415 . S
C1336 C1341 1.425 . S
C1336 C1343 1.409 . S
C1337 H1329 0.930 . S
C1337 C1335 1.419 . S
C1337 C1338 1.362 . S
C1338 H1330 0.930 . S
C1338 C1337 1.362 . S
C1338 C1341 1.409 . S
C1339 H1331 0.930 . S
C1339 C1340 1.355 . S
C1339 C1341 1.415 . S
C1340 C1339 1.355 . S
C1340 C1342 1.419 . S
C1341 C1336 1.425 . S
C1341 C1338 1.409 . S
C1341 C1339 1.415 . S
C1342 H1332 0.930 . S
C1342 C1340 1.419 . S
C1342 C1343 1.362 . S
C1343 H1333 0.930 . S
C1343 C1336 1.409 . S
C1343 C1342 1.362 . S
H1344 C1350 0.930 . S
H1345 C1353 0.930 . S
H1346 C1354 0.930 . S
H1347 C1355 0.930 . S
H1348 C1358 0.930 . S
H1349 C1359 0.930 . S
C1350 H1344 0.930 . S
C1350 C1351 1.355 . S
C1350 C1352 1.415 . S
C1351 C1350 1.355 . S
C1351 C1353 1.419 . S
C1352 C1350 1.415 . S
C1352 C1357 1.425 . S
C1352 C1359 1.409 . S
C1353 H1345 0.930 . S
C1353 C1351 1.419 . S
C1353 C1354 1.362 . S
C1354 H1346 0.930 . S
C1354 C1353 1.362 . S
C1354 C1357 1.409 . S
C1355 H1347 0.930 . S
C1355 C1356 1.355 . S
C1355 C1357 1.415 . S
C1356 C1355 1.355 . S
C1356 C1358 1.419 . S
C1357 C1352 1.425 . S
C1357 C1354 1.409 . S
C1357 C1355 1.415 . S
C1358 H1348 0.930 . S
C1358 C1356 1.419 . S
C1358 C1359 1.362 . S
C1359 H1349 0.930 . S
C1359 C1352 1.409 . S
C1359 C1358 1.362 . S
H1360 C1366 0.930 . S
H1361 C1369 0.930 . S
H1362 C1370 0.930 . S
H1363 C1371 0.930 . S
H1364 C1374 0.930 . S
H1365 C1375 0.930 . S
C1366 H1360 0.930 . S
C1366 C1367 1.355 . S
C1366 C1368 1.415 . S
C1367 C1366 1.355 . S
C1367 C1369 1.419 . S
C1368 C1366 1.415 . S
C1368 C1373 1.425 . S
C1368 C1375 1.409 . S
C1369 H1361 0.930 . S
C1369 C1367 1.419 . S
C1369 C1370 1.362 . S
C1370 H1362 0.930 . S
C1370 C1369 1.362 . S
C1370 C1373 1.409 . S
C1371 H1363 0.930 . S
C1371 C1372 1.355 . S
C1371 C1373 1.415 . S
C1372 C1371 1.355 . S
C1372 C1374 1.419 . S
C1373 C1368 1.425 . S
C1373 C1370 1.409 . S
C1373 C1371 1.415 . S
C1374 H1364 0.930 . S
C1374 C1372 1.419 . S
C1374 C1375 1.362 . S
C1375 H1365 0.930 . S
C1375 C1368 1.409 . S
C1375 C1374 1.362 . S
H1376 C1382 0.930 . S
H1377 C1385 0.930 . S
H1378 C1386 0.930 . S
H1379 C1387 0.930 . S
H1380 C1390 0.930 . S
H1381 C1391 0.930 . S
C1382 H1376 0.930 . S
C1382 C1383 1.355 . S
C1382 C1384 1.415 . S
C1383 C1382 1.355 . S
C1383 C1385 1.419 . S
C1384 C1382 1.415 . S
C1384 C1389 1.425 . S
C1384 C1391 1.409 . S
C1385 H1377 0.930 . S
C1385 C1383 1.419 . S
C1385 C1386 1.362 . S
C1386 H1378 0.930 . S
C1386 C1385 1.362 . S
C1386 C1389 1.409 . S
C1387 H1379 0.930 . S
C1387 C1388 1.355 . S
C1387 C1389 1.415 . S
C1388 C1387 1.355 . S
C1388 C1390 1.419 . S
C1389 C1384 1.425 . S
C1389 C1386 1.409 . S
C1389 C1387 1.415 . S
C1390 H1380 0.930 . S
C1390 C1388 1.419 . S
C1390 C1391 1.362 . S
C1391 H1381 0.930 . S
C1391 C1384 1.409 . S
C1391 C1390 1.362 . S
H1392 C1398 0.930 . S
H1393 C1401 0.930 . S
H1394 C1402 0.930 . S
H1395 C1403 0.930 . S
H1396 C1406 0.930 . S
H1397 C1407 0.930 . S
C1398 H1392 0.930 . S
C1398 C1399 1.355 . S
C1398 C1400 1.415 . S
C1399 C1398 1.355 . S
C1399 C1401 1.419 . S
C1400 C1398 1.415 . S
C1400 C1405 1.425 . S
C1400 C1407 1.409 . S
C1401 H1393 0.930 . S
C1401 C1399 1.419 . S
C1401 C1402 1.362 . S
C1402 H1394 0.930 . S
C1402 C1401 1.362 . S
C1402 C1405 1.409 . S
C1403 H1395 0.930 . S
C1403 C1404 1.355 . S
C1403 C1405 1.415 . S
C1404 C1403 1.355 . S
C1404 C1406 1.419 . S
C1405 C1400 1.425 . S
C1405 C1402 1.409 . S
C1405 C1403 1.415 . S
C1406 H1396 0.930 . S
C1406 C1404 1.419 . S
C1406 C1407 1.362 . S
C1407 H1397 0.930 . S
C1407 C1400 1.409 . S
C1407 C1406 1.362 . S
C647 C8 2.203 . S
C652 C288 2.186 . S
C663 C48 2.178 . S
C668 C168 2.192 . S
C679 C208 2.243 . S
C684 C88 2.224 . S
C695 C128 2.173 . S
C700 C248 2.171 . S
C711 C471 4.131 . S
C716 C191 4.120 1_654 S
C727 C351 4.129 . S
C732 C31 4.130 1_656 S
C743 C431 4.123 . S
C748 C271 4.132 . S
C759 C111 4.120 . S
C764 C391 4.127 . S
C775 C368 2.234 . S
C780 C488 2.214 . S
C791 C408 2.178 . S
C796 C568 2.192 . S
C807 C528 2.261 . S
C812 C328 2.256 . S
C823 C448 2.245 . S
C828 C608 2.227 . S
C839 C591 4.128 . S
C844 C151 4.120 . S
C855 C511 4.123 . S
C860 C231 4.123 . S
C871 C71 4.127 . S
C876 C631 4.120 1_554 S
C887 C311 4.131 . S
C892 C551 4.127 1_556 S
C903 C537 0.882 . S
C908 C17 0.819 . S
C919 C457 0.918 . S
C924 C57 0.837 . S
C935 C497 0.832 . S
C940 C97 0.914 . S
C951 C417 0.824 . S
C956 C137 0.904 . S
C967 C177 0.842 . S
C972 C617 0.921 . S
C983 C377 0.833 . S
C988 C217 0.915 . S
C999 C257 0.913 . S
C1004 C577 0.900 . S
C1015 C297 0.860 . S
C1020 C337 0.926 . S
C1031 C2 1.657 . S
C1036 C162 1.614 . S
C1047 C42 1.629 . S
C1052 C202 1.608 . S
C1063 C242 1.666 . S
C1068 C82 1.702 . S
C1079 C122 1.693 . S
C1084 C282 1.646 . S
C1095 C402 1.664 . S
C1100 C322 1.702 . S
C1111 C442 1.681 . S
C1116 C362 1.631 . S
C1127 C482 1.614 . S
C1132 C562 1.617 . S
C1143 C602 1.633 . S
C1148 C522 1.608 . S
C1159 C12 4.650 . S
C1164 C292 4.662 . S
C1175 C52 4.645 . S
C1180 C172 4.653 . S
C1191 C212 4.659 1_556 S
C1196 C92 4.643 . S
C1207 C252 4.651 . S
C1212 C132 4.662 1_554 S
C1223 C469 0.660 . S
C1228 C189 0.632 . S
C1239 C349 0.757 . S
C1244 C29 0.707 . S
C1255 C429 0.785 . S
C1260 C269 0.736 . S
C1271 C109 0.659 . S
C1276 C389 0.703 . S
C1287 C492 4.645 . S
C1292 C372 4.653 1_556 S
C1303 C572 4.645 . S
C1308 C412 4.662 1_554 S
C1319 C532 4.662 . S
C1324 C332 4.645 . S
C1335 C612 4.662 . S
C1340 C452 4.651 . S
C1351 C589 0.633 . S
C1356 C149 0.627 . S
C1367 C229 0.860 . S
C1372 C509 0.841 . S
C1383 C69 0.716 . S
C1388 C629 0.766 . S
C1399 C549 0.848 . S
C1404 C309 0.862 . S
