# Generated by pormake.
# Topology why, (6)-cn, num edge types: 1
# Building blocks:
#     Node 0, Type 0, BuildingBlock: KUMBOL_clean_sbu_0, # of connection points: 6
#     Node 1, Type 0, BuildingBlock: KUMBOL_clean_sbu_0, # of connection points: 6
#     Node 2, Type 0, BuildingBlock: KUMBOL_clean_sbu_0, # of connection points: 6
#     Node 3, Type 0, BuildingBlock: KUMBOL_clean_sbu_0, # of connection points: 6
#     Node 4, Type 0, BuildingBlock: KUMBOL_clean_sbu_0, # of connection points: 6
#     Node 5, Type 0, BuildingBlock: KUMBOL_clean_sbu_0, # of connection points: 6
#     Node 6, Type 0, BuildingBlock: KUMBOL_clean_sbu_0, # of connection points: 6
#     Node 7, Type 0, BuildingBlock: KUMBOL_clean_sbu_0, # of connection points: 6
#     Node 8, Type 0, BuildingBlock: KUMBOL_clean_sbu_0, # of connection points: 6
#     Node 9, Type 0, BuildingBlock: KUMBOL_clean_sbu_0, # of connection points: 6
#     Node 10, Type 0, BuildingBlock: KUMBOL_clean_sbu_0, # of connection points: 6
#     Node 11, Type 0, BuildingBlock: KUMBOL_clean_sbu_0, # of connection points: 6
#     Node 12, Type 0, BuildingBlock: KUMBOL_clean_sbu_0, # of connection points: 6
#     Node 13, Type 0, BuildingBlock: KUMBOL_clean_sbu_0, # of connection points: 6
#     Node 14, Type 0, BuildingBlock: KUMBOL_clean_sbu_0, # of connection points: 6
#     Node 15, Type 0, BuildingBlock: KUMBOL_clean_sbu_0, # of connection points: 6
#     Edge 16, Type (0, 0), BuildingBlock: XIVTED_clean_linker_0, # of connection points: 2
#     Edge 17, Type (0, 0), BuildingBlock: XIVTED_clean_linker_0, # of connection points: 2
#     Edge 18, Type (0, 0), BuildingBlock: XIVTED_clean_linker_0, # of connection points: 2
#     Edge 19, Type (0, 0), BuildingBlock: XIVTED_clean_linker_0, # of connection points: 2
#     Edge 20, Type (0, 0), BuildingBlock: XIVTED_clean_linker_0, # of connection points: 2
#     Edge 21, Type (0, 0), BuildingBlock: XIVTED_clean_linker_0, # of connection points: 2
#     Edge 22, Type (0, 0), BuildingBlock: XIVTED_clean_linker_0, # of connection points: 2
#     Edge 23, Type (0, 0), BuildingBlock: XIVTED_clean_linker_0, # of connection points: 2
#     Edge 24, Type (0, 0), BuildingBlock: XIVTED_clean_linker_0, # of connection points: 2
#     Edge 25, Type (0, 0), BuildingBlock: XIVTED_clean_linker_0, # of connection points: 2
#     Edge 26, Type (0, 0), BuildingBlock: XIVTED_clean_linker_0, # of connection points: 2
#     Edge 27, Type (0, 0), BuildingBlock: XIVTED_clean_linker_0, # of connection points: 2
#     Edge 28, Type (0, 0), BuildingBlock: XIVTED_clean_linker_0, # of connection points: 2
#     Edge 29, Type (0, 0), BuildingBlock: XIVTED_clean_linker_0, # of connection points: 2
#     Edge 30, Type (0, 0), BuildingBlock: XIVTED_clean_linker_0, # of connection points: 2
#     Edge 31, Type (0, 0), BuildingBlock: XIVTED_clean_linker_0, # of connection points: 2
#     Edge 32, Type (0, 0), BuildingBlock: XIVTED_clean_linker_0, # of connection points: 2
#     Edge 33, Type (0, 0), BuildingBlock: XIVTED_clean_linker_0, # of connection points: 2
#     Edge 34, Type (0, 0), BuildingBlock: XIVTED_clean_linker_0, # of connection points: 2
#     Edge 35, Type (0, 0), BuildingBlock: XIVTED_clean_linker_0, # of connection points: 2
#     Edge 36, Type (0, 0), BuildingBlock: XIVTED_clean_linker_0, # of connection points: 2
#     Edge 37, Type (0, 0), BuildingBlock: XIVTED_clean_linker_0, # of connection points: 2
#     Edge 38, Type (0, 0), BuildingBlock: XIVTED_clean_linker_0, # of connection points: 2
#     Edge 39, Type (0, 0), BuildingBlock: XIVTED_clean_linker_0, # of connection points: 2
#     Edge 40, Type (0, 0), BuildingBlock: XIVTED_clean_linker_0, # of connection points: 2
#     Edge 41, Type (0, 0), BuildingBlock: XIVTED_clean_linker_0, # of connection points: 2
#     Edge 42, Type (0, 0), BuildingBlock: XIVTED_clean_linker_0, # of connection points: 2
#     Edge 43, Type (0, 0), BuildingBlock: XIVTED_clean_linker_0, # of connection points: 2
#     Edge 44, Type (0, 0), BuildingBlock: XIVTED_clean_linker_0, # of connection points: 2
#     Edge 45, Type (0, 0), BuildingBlock: XIVTED_clean_linker_0, # of connection points: 2
#     Edge 46, Type (0, 0), BuildingBlock: XIVTED_clean_linker_0, # of connection points: 2
#     Edge 47, Type (0, 0), BuildingBlock: XIVTED_clean_linker_0, # of connection points: 2
#     Edge 48, Type (0, 0), BuildingBlock: XIVTED_clean_linker_0, # of connection points: 2
#     Edge 49, Type (0, 0), BuildingBlock: XIVTED_clean_linker_0, # of connection points: 2
#     Edge 50, Type (0, 0), BuildingBlock: XIVTED_clean_linker_0, # of connection points: 2
#     Edge 51, Type (0, 0), BuildingBlock: XIVTED_clean_linker_0, # of connection points: 2
#     Edge 52, Type (0, 0), BuildingBlock: XIVTED_clean_linker_0, # of connection points: 2
#     Edge 53, Type (0, 0), BuildingBlock: XIVTED_clean_linker_0, # of connection points: 2
#     Edge 54, Type (0, 0), BuildingBlock: XIVTED_clean_linker_0, # of connection points: 2
#     Edge 55, Type (0, 0), BuildingBlock: XIVTED_clean_linker_0, # of connection points: 2
#     Edge 56, Type (0, 0), BuildingBlock: XIVTED_clean_linker_0, # of connection points: 2
#     Edge 57, Type (0, 0), BuildingBlock: XIVTED_clean_linker_0, # of connection points: 2
#     Edge 58, Type (0, 0), BuildingBlock: XIVTED_clean_linker_0, # of connection points: 2
#     Edge 59, Type (0, 0), BuildingBlock: XIVTED_clean_linker_0, # of connection points: 2
#     Edge 60, Type (0, 0), BuildingBlock: XIVTED_clean_linker_0, # of connection points: 2
#     Edge 61, Type (0, 0), BuildingBlock: XIVTED_clean_linker_0, # of connection points: 2
#     Edge 62, Type (0, 0), BuildingBlock: XIVTED_clean_linker_0, # of connection points: 2
#     Edge 63, Type (0, 0), BuildingBlock: XIVTED_clean_linker_0, # of connection points: 2
# Relax obj value: 0.276
# Max RMSD: 0.228
# Mean RMSD: 0.228
data_MOF--net-why--node1-KUMBOL_clean_sbu_0--edge1-XIVTED_clean_linker_0
_symmetry_space_group_name_H-M    P1
_symmetry_Int_Tables_number       1
_symmetry_cell_setting            triclinic
loop_
_symmetry_equiv_pos_as_xyz
'x, y, z'
_cell_length_a     47.733987
_cell_length_b     48.088742
_cell_length_c     40.539383
_cell_angle_alpha  90.017453
_cell_angle_beta   90.049358
_cell_angle_gamma 90.163762
loop_
_atom_site_label
_atom_site_type_symbol
_atom_site_fract_x
_atom_site_fract_y
_atom_site_fract_z
_atom_type_partial_charge
Gd0 Gd 0.43306 0.21931 0.09291 0.0
Gd1 Gd 0.46926 0.17885 0.03898 0.0
C2 C 0.44615 0.16323 0.93079 0.0
C3 C 0.40583 0.1326 0.93558 0.0
C4 C 0.42979 0.14925 0.98484 0.0
C5 C 0.44831 0.16406 0.9655 0.0
C6 C 0.40861 0.13291 0.97006 0.0
C7 C 0.42456 0.14776 0.91597 0.0
C8 C 0.46598 0.17765 0.91199 0.0
C9 C 0.48769 0.19181 0.92781 0.0
N10 N 0.46901 0.17861 0.98062 0.0
C11 C 0.48927 0.19158 0.96225 0.0
H12 H 0.50623 0.20254 0.97427 0.0
C13 C 0.41677 0.13359 0.03784 0.0
N14 N 0.43296 0.15017 0.01808 0.0
C15 C 0.39545 0.11713 0.02438 0.0
C16 C 0.39113 0.11701 0.99035 0.0
H17 H 0.41965 0.13358 0.06417 0.0
H18 H 0.42245 0.14702 0.88937 0.0
H19 H 0.48479 0.1887 0.13848 0.0
H20 H 0.46497 0.17763 0.88529 0.0
H21 H 0.50334 0.20279 0.9135 0.0
H22 H 0.38953 0.12038 0.92382 0.0
H23 H 0.40065 0.2788 0.07217 0.0
H24 H 0.53032 0.25238 0.18828 0.0
H25 H 0.52223 0.20267 0.1762 0.0
H26 H 0.48502 0.33617 0.15451 0.0
H27 H 0.38233 0.10458 0.04028 0.0
H28 H 0.37459 0.10425 0.97997 0.0
H29 H 0.51644 0.30192 0.17991 0.0
H30 H 0.40583 0.32921 0.0823 0.0
N31 N 0.47071 0.22996 0.129 0.0
C32 C 0.51346 0.24635 0.17183 0.0
C33 C 0.50895 0.21829 0.1651 0.0
C34 C 0.49608 0.2663 0.15743 0.0
C35 C 0.47439 0.25739 0.13612 0.0
C36 C 0.48734 0.21041 0.14378 0.0
N37 N 0.43588 0.26772 0.10158 0.0
C38 C 0.45659 0.27677 0.12192 0.0
C39 C 0.42029 0.31472 0.09351 0.0
C40 C 0.44177 0.32439 0.11388 0.0
C41 C 0.41752 0.28621 0.08772 0.0
C42 C 0.46015 0.30541 0.12851 0.0
H43 H 0.44389 0.34652 0.11831 0.0
O44 O 0.40284 0.24024 0.12422 0.0
O45 O 0.4236 0.18909 0.0511 0.0
O46 O 0.45729 0.21566 1.0086 0.0
O47 O 0.43816 0.24645 0.04694 0.0
O48 O 0.39843 0.22368 0.05386 0.0
O49 O 0.40531 0.19537 0.12438 0.0
O50 O 0.48489 0.13729 0.04937 0.0
O51 O 0.47808 0.21299 0.07729 0.0
O52 O 0.43698 0.17585 0.12014 0.0
O53 O 0.46609 0.15095 0.0866 0.0
O54 O 0.50315 0.21333 0.03696 0.0
O55 O 0.51074 0.16646 0.02296 0.0
C56 C 0.40272 0.20175 0.0361 0.0
C57 C 0.48191 0.31427 0.14933 0.0
C58 C 0.4998 0.29477 0.16377 0.0
C59 C 0.39554 0.21739 0.13898 0.0
C60 C 0.39738 0.21802 0.17509 0.0
C61 C 0.41961 0.20545 0.19223 0.0
C62 C 0.37791 0.23389 0.19237 0.0
C63 C 0.38063 0.2378 0.22649 0.0
C64 C 0.42192 0.20853 0.22639 0.0
C65 C 0.40265 0.22485 0.24352 0.0
C66 C 0.44767 0.24032 0.01707 0.0
C67 C 0.4977 0.22805 0.06275 0.0
C68 C 0.50639 0.14043 0.03004 0.0
C69 C 0.5087 0.12094 1.00201 0.0
C70 C 0.48911 0.09941 0.9973 0.0
C71 C 0.52763 0.12716 0.9767 0.0
C72 C 0.52498 0.11485 0.9454 0.0
C73 C 0.48771 0.08548 0.96711 0.0
C74 C 0.50505 0.09352 0.94103 0.0
C75 C 0.451 0.15229 0.11424 0.0
H76 H 0.43551 0.19378 0.17935 0.0
H77 H 0.36151 0.24454 0.17884 0.0
H78 H 0.4391 0.19884 0.23946 0.0
H79 H 0.40515 0.22773 0.26986 0.0
H80 H 0.47411 0.09409 0.01633 0.0
H81 H 0.54329 0.14311 0.98095 0.0
H82 H 0.4722 0.06931 0.96341 0.0
H83 H 0.50204 0.08369 0.91728 0.0
Gd84 Gd 0.66457 0.68042 0.34042 0.0
Gd85 Gd 0.70552 0.71627 0.28728 0.0
C86 C 0.71753 0.69945 0.17752 0.0
C87 C 0.74612 0.65778 0.17783 0.0
C88 C 0.7329 0.67981 0.22965 0.0
C89 C 0.71806 0.69985 0.21234 0.0
C90 C 0.74755 0.65888 0.2124 0.0
C91 C 0.73114 0.678 0.16044 0.0
C92 C 0.70385 0.72098 0.16083 0.0
C93 C 0.69188 0.74266 0.17875 0.0
N94 N 0.70515 0.72042 0.22943 0.0
C95 C 0.69295 0.74221 0.21319 0.0
H96 H 0.68377 0.75922 0.2267 0.0
C97 C 0.75025 0.6632 0.28063 0.0
N98 N 0.73368 0.6812 0.26317 0.0
C99 C 0.76514 0.64222 0.26454 0.0
C100 C 0.76354 0.63983 0.23034 0.0
H101 H 0.75123 0.66396 0.30715 0.0
H102 H 0.73069 0.6772 0.13373 0.0
H103 H 0.69328 0.734 0.38533 0.0
H104 H 0.70301 0.72139 0.13412 0.0
H105 H 0.68183 0.75974 0.16606 0.0
H106 H 0.75695 0.64164 0.16427 0.0
H107 H 0.60745 0.64286 0.32302 0.0
H108 H 0.62612 0.77844 0.43006 0.0
H109 H 0.67677 0.772 0.42045 0.0
H110 H 0.54431 0.7282 0.39675 0.0
H111 H 0.77763 0.62768 0.27863 0.0
H112 H 0.775 0.62343 0.21799 0.0
H113 H 0.57696 0.76221 0.42078 0.0
H114 H 0.55628 0.64546 0.33229 0.0
N115 N 0.65238 0.71801 0.3752 0.0
C116 C 0.63323 0.76133 0.41484 0.0
C117 C 0.66183 0.75772 0.40955 0.0
C118 C 0.61412 0.74274 0.40068 0.0
C119 C 0.62439 0.72085 0.38089 0.0
C120 C 0.67114 0.73577 0.38985 0.0
N121 N 0.61605 0.68063 0.3484 0.0
C122 C 0.60578 0.70175 0.36703 0.0
C123 C 0.56993 0.6615 0.34199 0.0
C124 C 0.55881 0.68365 0.35996 0.0
C125 C 0.59882 0.66014 0.33669 0.0
C126 C 0.57675 0.70394 0.37304 0.0
H127 H 0.53641 0.68464 0.36405 0.0
O128 O 0.64656 0.65841 0.38181 0.0
O129 O 0.69563 0.67093 0.2994 0.0
O130 O 0.66687 0.70718 0.25762 0.0
O131 O 0.63668 0.68488 0.29477 0.0
O132 O 0.65906 0.64758 0.29993 0.0
O133 O 0.68597 0.64461 0.3613 0.0
O134 O 0.72339 0.75137 0.31402 0.0
O135 O 0.67045 0.72505 0.32418 0.0
O136 O 0.70668 0.68767 0.3702 0.0
O137 O 0.73604 0.7063 0.3313 0.0
O138 O 0.6697 0.74853 0.28253 0.0
O139 O 0.73952 0.73997 0.26602 0.0
C140 C 0.68213 0.65098 0.28354 0.0
C141 C 0.56656 0.72604 0.39215 0.0
C142 C 0.58517 0.74539 0.40587 0.0
C143 C 0.66562 0.63922 0.38169 0.0
C144 C 0.65504 0.61059 0.38367 0.0
C145 C 0.66171 0.59003 0.36037 0.0
C146 C 0.63712 0.60412 0.40976 0.0
C147 C 0.62548 0.57753 0.41288 0.0
C148 C 0.65054 0.56321 0.36364 0.0
C149 C 0.63255 0.55687 0.38988 0.0
C150 C 0.64249 0.69585 0.26545 0.0
C151 C 0.65524 0.74408 0.30898 0.0
C152 C 0.73956 0.75846 0.2895 0.0
C153 C 0.73878 0.78787 0.27921 0.0
C154 C 0.7396 0.80914 0.30291 0.0
C155 C 0.7367 0.79491 0.24569 0.0
C156 C 0.73423 0.82271 0.23581 0.0
C157 C 0.73775 0.83696 0.2932 0.0
C158 C 0.73482 0.84376 0.25985 0.0
C159 C 0.73235 0.69651 0.3618 0.0
H160 H 0.67539 0.59463 0.33977 0.0
H161 H 0.63229 0.61998 0.42793 0.0
H162 H 0.65574 0.54735 0.34574 0.0
H163 H 0.62391 0.5361 0.39197 0.0
H164 H 0.74146 0.80423 0.3289 0.0
H165 H 0.73614 0.77873 0.22717 0.0
H166 H 0.73828 0.85327 0.31159 0.0
H167 H 0.73309 0.86543 0.25287 0.0
Gd168 Gd 0.20461 0.91247 0.59262 0.0
Gd169 Gd 0.16792 0.95176 0.53901 0.0
C170 C 0.18322 0.96443 0.429 0.0
C171 C 0.22492 0.99344 0.42869 0.0
C172 C 0.20359 0.97976 0.48085 0.0
C173 C 0.18331 0.9648 0.46382 0.0
C174 C 0.2243 0.99468 0.46328 0.0
C175 C 0.20443 0.97836 0.41159 0.0
C176 C 0.16145 0.95057 0.41262 0.0
C177 C 0.14005 0.93816 0.43088 0.0
N178 N 0.163 0.95153 0.48123 0.0
C179 C 0.14102 0.93903 0.46531 0.0
H180 H 0.12422 0.92951 0.47907 0.0
C181 C 0.22087 0.99707 0.53158 0.0
N182 N 0.20264 0.98041 0.5144 0.0
C183 C 0.24167 1.01218 0.51518 0.0
C184 C 0.24362 1.01074 0.48094 0.0
H185 H 0.22049 0.99795 0.55809 0.0
H186 H 0.20485 0.97805 0.38487 0.0
H187 H 0.1516 0.94577 0.63374 0.0
H188 H 0.16064 0.94987 0.38592 0.0
H189 H 0.12278 0.92794 0.41846 0.0
H190 H 0.24087 1.0045 0.41489 0.0
H191 H 0.23442 0.85121 0.5736 0.0
H192 H 0.10648 0.88543 0.68933 0.0
H193 H 0.11437 0.9342 0.67269 0.0
H194 H 0.15078 0.79958 0.66181 0.0
H195 H 0.2564 1.02473 0.52906 0.0
H196 H 0.25986 1.0224 0.46835 0.0
H197 H 0.1201 0.8355 0.68505 0.0
H198 H 0.22827 0.80148 0.5869 0.0
N199 N 0.16625 0.90409 0.62857 0.0
C200 C 0.12336 0.89042 0.67247 0.0
C201 C 0.12777 0.91796 0.66319 0.0
C202 C 0.14066 0.86961 0.65979 0.0
C203 C 0.16237 0.87714 0.63783 0.0
C204 C 0.14939 0.92449 0.6413 0.0
N205 N 0.20025 0.86448 0.60344 0.0
C206 C 0.17976 0.85682 0.62483 0.0
C207 C 0.21443 0.81679 0.59765 0.0
C208 C 0.19337 0.80857 0.6194 0.0
C209 C 0.21768 0.84493 0.58999 0.0
C210 C 0.17576 0.82859 0.63332 0.0
H211 H 0.19088 0.78672 0.62528 0.0
O212 O 0.23539 0.89127 0.62293 0.0
O213 O 0.21389 0.94302 0.55112 0.0
O214 O 0.17783 0.91405 0.50901 0.0
O215 O 0.20123 0.88521 0.54632 0.0
O216 O 0.23888 0.90815 0.55337 0.0
O217 O 0.23248 0.93607 0.62442 0.0
O218 O 0.13276 0.96871 0.5665 0.0
O219 O 0.15956 0.91665 0.57616 0.0
O220 O 0.19987 0.95586 0.62011 0.0
O221 O 0.1774 0.98316 0.5822 0.0
O222 O 0.13643 0.91509 0.53424 0.0
O223 O 0.14254 0.98435 0.51777 0.0
C224 C 0.23467 0.93026 0.53592 0.0
C225 C 0.15419 0.82114 0.65511 0.0
C226 C 0.13671 0.84159 0.66832 0.0
C227 C 0.24267 0.91387 0.63822 0.0
C228 C 0.24137 0.91246 0.67432 0.0
C229 C 0.21971 0.92518 0.69228 0.0
C230 C 0.26073 0.89577 0.69072 0.0
C231 C 0.25852 0.89123 0.72478 0.0
C232 C 0.21786 0.92139 0.72637 0.0
C233 C 0.23706 0.90432 0.74262 0.0
C234 C 0.1901 0.89041 0.51691 0.0
C235 C 0.14098 0.9009 0.5608 0.0
C236 C 0.1244 0.98394 0.54176 0.0
C237 C 0.09465 0.98131 0.53234 0.0
C238 C 0.07379 0.98001 0.5567 0.0
C239 C 0.08694 0.97884 0.49902 0.0
C240 C 1.05914 0.97331 0.49008 0.0
C241 C 1.04585 0.97542 0.54786 0.0
C242 C 1.03855 0.9717 0.51476 0.0
C243 C 0.18927 0.98071 0.61188 0.0
H244 H 0.20392 0.93751 0.68005 0.0
H245 H 0.27667 0.88508 0.67653 0.0
H246 H 0.20114 0.93119 0.74009 0.0
H247 H 0.23495 0.90105 0.76894 0.0
H248 H 0.07917 0.98213 0.58255 0.0
H249 H 0.10272 0.98003 0.47992 0.0
H250 H 1.0299 0.97423 0.56677 0.0
H251 H 1.0169 0.96751 0.50844 0.0
Gd252 Gd 0.97381 0.45216 0.8421 0.0
Gd253 Gd 0.9334 0.41697 0.78823 0.0
C254 C 0.92077 0.43443 0.67869 0.0
C255 C 0.89233 0.47619 0.67948 0.0
C256 C 0.90576 0.45386 0.73106 0.0
C257 C 0.92043 0.43387 0.71351 0.0
C258 C 0.8911 0.47495 0.71405 0.0
C259 C 0.90712 0.45599 0.66184 0.0
C260 C 0.93431 0.41296 0.66176 0.0
C261 C 0.94641 0.39121 0.67946 0.0
N262 N 0.93339 0.4132 0.73037 0.0
C263 C 0.94554 0.39151 0.7139 0.0
H264 H 0.95482 0.37446 0.72726 0.0
C265 C 0.88874 0.47032 0.78224 0.0
N266 N 0.90511 0.45228 0.76458 0.0
C267 C 0.87388 0.49145 0.76639 0.0
C268 C 0.87531 0.49399 0.7322 0.0
H269 H 0.88793 0.46954 0.80875 0.0
H270 H 0.9074 0.45691 0.63514 0.0
H271 H 0.9443 0.39877 0.88647 0.0
H272 H 0.93499 0.41266 0.63505 0.0
H273 H 0.95639 0.37418 0.6666 0.0
H274 H 0.88147 0.49243 0.6661 0.0
H275 H 1.03136 0.48953 0.82613 0.0
H276 H 1.01085 0.35275 0.93036 0.0
H277 H 0.96029 0.3601 0.92095 0.0
H278 H 0.09335 0.40229 0.89812 0.0
H279 H 0.86157 0.506 0.78064 0.0
H280 H 0.86386 0.5105 0.72003 0.0
H281 H 1.06024 0.36838 0.92138 0.0
H282 H 0.08248 0.48621 0.8356 0.0
N283 N 0.98544 0.41416 0.8765 0.0
C284 C 1.00399 0.37014 0.91544 0.0
C285 C 0.97542 0.37426 0.91025 0.0
C286 C 1.02336 0.38861 0.9016 0.0
C287 C 1.01339 0.41087 0.88217 0.0
C288 C 0.96642 0.39658 0.89093 0.0
N289 N 1.02228 0.45145 0.85054 0.0
C290 C 1.03226 0.42991 0.86873 0.0
C291 C 0.06862 0.47016 0.84484 0.0
C292 C 0.07945 0.44758 0.86229 0.0
C293 C 1.03977 0.47195 0.83944 0.0
C294 C 1.06125 0.42728 0.87481 0.0
H295 H 0.10183 0.44627 0.86646 0.0
O296 O 0.95257 0.4879 0.8634 0.0
O297 O 0.94317 0.46228 0.80082 0.0
O298 O 0.97208 0.42637 0.75887 0.0
O299 O 1.00205 0.4482 0.79665 0.0
O300 O 0.97989 0.48537 0.80223 0.0
O301 O 0.99178 0.47357 0.88398 0.0
O302 O 0.91501 0.38252 0.81544 0.0
O303 O 0.96819 0.40751 0.82549 0.0
O304 O 0.93125 0.44528 0.87124 0.0
O305 O 0.90235 0.42668 0.83179 0.0
O306 O 0.96972 0.38533 0.78289 0.0
O307 O 0.90074 0.3919 0.766 0.0
C308 C 0.95695 0.48231 0.78546 0.0
C309 C 0.07114 0.40478 0.89348 0.0
C310 C 1.05227 0.38549 0.90678 0.0
C311 C 0.97292 0.49296 0.88394 0.0
C312 C 0.9838 0.52147 0.88623 0.0
C313 C 0.97613 0.54267 0.86418 0.0
C314 C 1.00289 0.52724 0.91141 0.0
C315 C 1.01468 0.55372 0.91486 0.0
C316 C 0.9875 0.56938 0.86781 0.0
C317 C 1.00665 0.575 0.89317 0.0
C318 C 0.99642 0.43761 0.76706 0.0
C319 C 0.9838 0.3891 0.80979 0.0
C320 C 0.90026 0.37411 0.79022 0.0
C321 C 0.90271 0.34444 0.78137 0.0
C322 C 0.90389 0.32411 0.8062 0.0
C323 C 0.90497 0.33625 0.7482 0.0
C324 C 0.90987 0.3084 0.73989 0.0
C325 C 0.90808 0.29621 0.798 0.0
C326 C 0.91139 0.28838 0.76505 0.0
C327 C 0.90564 0.43649 0.86239 0.0
H328 H 0.9615 0.53866 0.8443 0.0
H329 H 1.00851 0.51093 0.92868 0.0
H330 H 0.98152 0.58573 0.85088 0.0
H331 H 1.01537 0.59572 0.89562 0.0
H332 H 0.90195 0.32985 0.83194 0.0
H333 H 0.904 0.35162 0.72873 0.0
H334 H 0.9092 0.28068 0.81727 0.0
H335 H 0.91513 0.26672 0.75921 0.0
Gd336 Gd 0.67043 0.95149 0.99019 0.0
Gd337 Gd 0.70593 0.91119 0.9366 0.0
C338 C 0.64282 0.85984 0.87779 0.0
C339 C 0.65997 0.8129 0.88669 0.0
C340 C 0.68459 0.85237 0.91079 0.0
C341 C 0.66508 0.87047 0.89705 0.0
C342 C 0.68247 0.82347 0.90519 0.0
C343 C 0.64019 0.83102 0.87309 0.0
C344 C 0.62384 0.87848 0.86366 0.0
C345 C 0.62748 0.90697 0.86841 0.0
N346 N 0.6679 0.89834 0.90228 0.0
C347 C 0.64981 0.91664 0.88758 0.0
H348 H 0.65159 0.93869 0.89171 0.0
C349 C 0.72707 0.84626 0.94022 0.0
N350 N 0.7061 0.863 0.92881 0.0
C351 C 0.72581 0.81752 0.93529 0.0
C352 C 0.70325 0.80604 0.91801 0.0
H353 H 0.74464 0.85516 0.95339 0.0
H354 H 0.62308 0.82254 0.85862 0.0
H355 H 0.62844 0.93033 0.05195 0.0
H356 H 0.60644 0.87109 0.84886 0.0
H357 H 0.61293 0.92154 0.85749 0.0
H358 H 0.65785 0.79075 0.88243 0.0
H359 H 0.72305 0.99672 0.96811 0.0
H360 H 0.66727 0.95226 0.14339 0.0
H361 H 0.62847 0.92996 0.11268 0.0
H362 H 0.74708 1.00578 0.11038 0.0
H363 H 0.74223 0.80426 0.94477 0.0
H364 H 0.70233 0.78375 0.91422 0.0
H365 H 0.71168 0.98013 0.14226 0.0
H366 H 0.7598 1.02383 0.99528 0.0
N367 N 0.66726 0.95205 0.04805 0.0
C368 C 0.66743 0.95242 0.11666 0.0
C369 C 0.64549 0.93981 0.09944 0.0
C370 C 0.68888 0.96579 0.09923 0.0
C371 C 0.6881 0.96549 0.06441 0.0
C372 C 0.64561 0.94 0.06498 0.0
N373 N 0.70613 0.98017 1.01282 0.0
C374 C 0.70799 0.98006 0.04634 0.0
C375 C 0.74534 1.01164 1.00994 0.0
C376 C 0.74815 1.01082 0.04414 0.0
C377 C 0.72406 0.99636 0.99462 0.0
C378 C 0.72923 0.99516 0.06282 0.0
H379 H 0.76477 1.0226 0.05589 0.0
O380 O 0.63467 0.96864 0.96384 0.0
O381 O 0.66106 0.91676 0.95313 0.0
O382 O 0.69812 0.9528 0.90682 0.0
O383 O 0.67958 0.98185 0.9459 0.0
O384 O 0.63879 0.91521 0.99597 0.0
O385 O 0.64602 0.98455 1.01197 0.0
O386 O 0.72805 0.89369 0.89504 0.0
O387 O 0.71591 0.94191 0.97758 0.0
O388 O 0.68014 0.9133 0.02002 0.0
O389 O 0.70184 0.88348 0.98224 0.0
O390 O 0.73926 0.90571 0.9768 0.0
O391 O 0.74168 0.93302 0.91556 0.0
C392 C 0.64264 0.90127 0.96907 0.0
C393 C 0.73073 0.99455 0.0974 0.0
C394 C 0.71059 0.97992 0.11556 0.0
C395 C 0.62724 0.98422 0.98865 0.0
C396 C 0.59769 0.98234 0.99912 0.0
C397 C 0.57617 0.9817 0.97552 0.0
C398 C 0.59078 0.98049 0.03273 0.0
C399 C 0.56295 0.97668 0.04278 0.0
C400 C 0.54829 0.97858 0.98539 0.0
C401 C 0.54168 0.97582 0.0188 0.0
C402 C 0.68916 0.9782 0.91526 0.0
C403 C 0.73602 0.92856 0.99331 0.0
C404 C 0.74737 0.91276 0.89537 0.0
C405 C 0.77625 0.90242 0.89408 0.0
C406 C 0.79704 0.91058 0.9167 0.0
C407 C 0.78275 0.88318 0.86952 0.0
C408 C 0.80955 0.87171 0.86725 0.0
C409 C 0.82409 0.89955 0.91422 0.0
C410 C 0.83044 0.88024 0.88947 0.0
C411 C 0.69148 0.88915 1.01193 0.0
H412 H 0.58094 0.98335 0.94946 0.0
H413 H 0.60714 0.98111 0.05119 0.0
H414 H 0.5318 0.97798 0.96706 0.0
H415 H 0.51997 0.97309 0.0259 0.0
H416 H 0.79246 0.92531 0.93615 0.0
H417 H 0.76675 0.87716 0.85183 0.0
H418 H 0.84012 0.9059 0.93157 0.0
H419 H 0.8514 0.87178 0.8879 0.0
Gd420 Gd 0.4326 0.41429 0.743 0.0
Gd421 Gd 0.47344 0.45003 0.69014 0.0
C422 C 0.52345 0.38701 0.63042 0.0
C423 C 0.57119 0.40287 0.63972 0.0
C424 C 0.53212 0.42788 0.66416 0.0
C425 C 0.51334 0.40908 0.65004 0.0
C426 C 0.56116 0.42521 0.65857 0.0
C427 C 0.55241 0.38382 0.62575 0.0
C428 C 0.50417 0.3688 0.61588 0.0
C429 C 0.47557 0.37299 0.62056 0.0
N430 N 0.48533 0.41243 0.65523 0.0
C431 C 0.46642 0.39511 0.6401 0.0
H432 H 0.44426 0.39734 0.64415 0.0
C433 C 0.53943 0.46963 0.69414 0.0
N434 N 0.522 0.44928 0.68247 0.0
C435 C 0.56834 0.46779 0.68925 0.0
C436 C 0.57929 0.44532 0.6717 0.0
H437 H 0.53093 0.48713 0.70752 0.0
H438 H 0.56048 0.36684 0.61101 0.0
H439 H 0.45416 0.37158 0.8038 0.0
H440 H 0.51115 0.35156 0.60078 0.0
H441 H 0.46051 0.35904 0.60932 0.0
H442 H 0.59345 0.40034 0.63546 0.0
H443 H 0.38698 0.46686 0.72273 0.0
H444 H 0.43385 0.40916 0.89621 0.0
H445 H 0.45557 0.37098 0.86446 0.0
H446 H 0.37982 0.48869 0.86555 0.0
H447 H 0.58214 0.4837 0.69895 0.0
H448 H 0.60171 0.44396 0.66791 0.0
H449 H 0.40593 0.45318 0.89634 0.0
H450 H 0.36023 0.50288 0.75102 0.0
N451 N 0.43247 0.41019 0.80087 0.0
C452 C 0.43323 0.40959 0.86949 0.0
C453 C 0.4455 0.38801 0.85168 0.0
C454 C 0.41957 0.43105 0.85267 0.0
C455 C 0.41933 0.43068 0.81784 0.0
C456 C 0.44471 0.38849 0.81724 0.0
N457 N 0.40405 0.4493 0.76684 0.0
C458 C 0.40457 0.45068 0.80038 0.0
C459 C 0.37257 0.48831 0.76522 0.0
C460 C 0.37384 0.49061 0.79944 0.0
C461 C 0.38766 0.4674 0.74925 0.0
C462 C 0.38972 0.47156 0.8175 0.0
H463 H 0.36224 0.50696 0.81169 0.0
O464 O 0.41459 0.37978 0.71545 0.0
O465 O 0.46754 0.40516 0.70576 0.0
O466 O 0.43111 0.44343 0.66056 0.0
O467 O 0.40181 0.42446 0.69929 0.0
O468 O 0.46891 0.38268 0.74823 0.0
O469 O 0.39973 0.38914 0.76461 0.0
O470 O 0.45245 0.48597 0.66901 0.0
O471 O 0.44238 0.45967 0.73102 0.0
O472 O 0.47115 0.42334 0.77287 0.0
O473 O 0.50134 0.44562 0.73583 0.0
O474 O 0.47913 0.48263 0.73087 0.0
O475 O 0.49195 0.47197 0.64898 0.0
C476 C 0.48301 0.38661 0.72141 0.0
C477 C 0.39083 0.47261 0.85209 0.0
C478 C 0.40572 0.45241 0.86962 0.0
C479 C 0.39978 0.37122 0.74051 0.0
C480 C 0.40288 0.34167 0.74966 0.0
C481 C 0.40517 0.32121 0.72509 0.0
C482 C 0.40522 0.33386 0.78294 0.0
C483 C 0.41155 0.30641 0.79164 0.0
C484 C 0.41062 0.29361 0.73368 0.0
C485 C 0.4142 0.28625 0.76676 0.0
C486 C 0.40542 0.43462 0.66893 0.0
C487 C 0.45597 0.4794 0.74713 0.0
C488 C 0.47302 0.49128 0.64891 0.0
C489 C 0.48378 0.51985 0.64721 0.0
C490 C 0.47712 0.54033 0.67062 0.0
C491 C 0.50186 0.52636 0.62129 0.0
C492 C 0.51363 0.55291 0.61842 0.0
C493 C 0.48844 0.56711 0.66761 0.0
C494 C 0.50657 0.57349 0.64152 0.0
C495 C 0.49554 0.43466 0.76515 0.0
H496 H 0.40323 0.32665 0.69926 0.0
H497 H 0.40333 0.34933 0.80221 0.0
H498 H 0.41262 0.27798 0.71462 0.0
H499 H 0.41904 0.26488 0.77291 0.0
H500 H 0.46332 0.5357 0.69111 0.0
H501 H 0.5067 0.51056 0.60304 0.0
H502 H 0.48324 0.58291 0.68559 0.0
H503 H 0.51531 0.59423 0.63962 0.0
Gd504 Gd 0.97101 0.17571 0.49288 0.0
Gd505 Gd 0.93413 0.21518 0.44072 0.0
C506 C 0.98972 0.25726 0.36388 0.0
C507 C 0.97545 0.30553 0.36832 0.0
C508 C 0.95544 0.27065 0.40498 0.0
C509 C 0.97164 0.25027 0.39023 0.0
C510 C 0.95741 0.29856 0.39437 0.0
C511 C 0.99141 0.28491 0.35296 0.0
C512 C 1.00617 0.23638 0.34982 0.0
C513 C 1.00496 0.2095 0.36256 0.0
N514 N 0.97026 0.22383 0.40204 0.0
C515 C 0.9869 0.20356 0.38876 0.0
H516 H 0.98684 0.1828 0.39856 0.0
C517 C 0.92109 0.2828 0.44448 0.0
N518 N 0.9376 0.26323 0.42952 0.0
C519 C 0.92278 0.31073 0.43523 0.0
C520 C 0.94099 0.31866 0.41003 0.0
H521 H 0.90599 0.2767 0.463 0.0
H522 H 1.00528 0.29061 0.33292 0.0
H523 H 1.01485 0.1967 0.55327 0.0
H524 H 1.02032 0.24093 0.32962 0.0
H525 H 1.01801 0.1933 0.35228 0.0
H526 H 0.97715 0.32683 0.35979 0.0
H527 H 0.91801 0.13007 0.47251 0.0
H528 H 0.97958 0.17291 0.64587 0.0
H529 H 1.01686 0.19633 0.61387 0.0
H530 H 0.89942 0.11873 0.61556 0.0
H531 H 0.90967 0.32606 0.44716 0.0
H532 H 0.942 0.34029 0.40263 0.0
H533 H 0.93563 0.14436 0.64624 0.0
H534 H 0.88256 0.10231 0.50086 0.0
N535 N 0.97638 0.17416 0.55059 0.0
C536 C 0.97853 0.17304 0.61917 0.0
C537 C 0.9996 0.18628 0.60122 0.0
C538 C 0.95674 0.1595 0.60246 0.0
C539 C 0.95633 0.1602 0.56764 0.0
C540 C 0.99831 0.1865 0.5668 0.0
N541 N 0.93657 0.1461 0.51665 0.0
C542 C 0.93595 0.14569 0.55023 0.0
C543 C 0.89747 0.11438 0.51506 0.0
C544 C 0.89595 0.11467 0.54936 0.0
C545 C 0.91808 0.13002 0.49904 0.0
C546 C 0.91545 0.13017 0.56742 0.0
H547 H 0.87986 0.1026 0.56167 0.0
O548 O 1.00625 0.16023 0.46438 0.0
O549 O 0.97986 0.21131 0.45579 0.0
O550 O 0.9385 0.1719 0.41271 0.0
O551 O 0.96172 0.14443 0.44971 0.0
O552 O 1.00051 0.21332 0.49976 0.0
O553 O 0.99764 0.1435 0.51287 0.0
O554 O 0.9018 0.23612 0.41251 0.0
O555 O 0.92498 0.18434 0.48165 0.0
O556 O 0.96075 0.21245 0.52436 0.0
O557 O 0.93825 0.24211 0.48736 0.0
O558 O 0.90039 0.21953 0.48044 0.0
O559 O 0.90616 0.19146 0.40919 0.0
C560 C 0.99769 0.22698 0.4725 0.0
C561 C 0.9152 0.13029 0.60205 0.0
C562 C 0.93579 0.1449 0.61952 0.0
C563 C 1.01556 0.1451 0.48872 0.0
C564 C 1.04521 0.14927 0.49794 0.0
C565 C 1.06561 0.15366 0.47353 0.0
C566 C 1.05301 0.1509 0.53129 0.0
C567 C 0.08011 0.15906 0.54034 0.0
C568 C 0.09304 0.16064 0.48243 0.0
C569 C 0.1002 0.16382 0.51566 0.0
C570 C 0.94944 0.14705 0.42033 0.0
C571 C 0.90454 0.19714 0.49736 0.0
C572 C 0.89525 0.21373 0.39631 0.0
C573 C 0.8965 0.21628 0.36029 0.0
C574 C 0.91694 0.20254 0.34139 0.0
C575 C 0.87855 0.23509 0.34501 0.0
C576 C 0.88102 0.24076 0.31125 0.0
C577 C 0.91876 0.20727 0.30746 0.0
C578 C 0.90087 0.22635 0.29233 0.0
C579 C 0.94877 0.23633 0.51693 0.0
H580 H 1.0602 0.15227 0.44762 0.0
H581 H 1.03764 0.14724 0.55042 0.0
H582 H 0.1086 0.16429 0.4635 0.0
H583 H 0.12132 0.17009 0.52207 0.0
H584 H 0.93182 0.18864 0.35274 0.0
H585 H 0.86304 0.24594 0.35971 0.0
H586 H 0.9345 0.19663 0.29302 0.0
H587 H 0.9031 0.23045 0.26619 0.0
Gd588 Gd 0.20471 0.71149 0.24081 0.0
Gd589 Gd 0.16796 0.67622 0.18446 0.0
C590 C 0.12039 0.73226 0.11331 0.0
C591 C 0.07316 0.71358 0.11711 0.0
C592 C 0.11054 0.69397 0.15061 0.0
C593 C 0.12941 0.71319 0.13759 0.0
C594 C 0.08233 0.69381 0.14014 0.0
C595 C 0.09216 0.73261 0.10358 0.0
C596 C 0.14001 0.75047 0.09942 0.0
C597 C 0.16774 0.74985 0.11025 0.0
N598 N 0.15665 0.71269 0.14775 0.0
C599 C 0.17573 0.73086 0.13457 0.0
H600 H 0.19711 0.73129 0.14305 0.0
C601 C 0.10311 0.6531 0.18211 0.0
N602 N 0.12013 0.67426 0.17178 0.0
C603 C 0.07488 0.65251 0.17301 0.0
C604 C 1.06436 0.67311 0.15218 0.0
H605 H 0.11148 0.63655 0.19717 0.0
H606 H 0.08486 0.74736 0.08531 0.0
H607 H 0.18056 0.75213 0.30214 0.0
H608 H 0.1339 0.76533 0.08067 0.0
H609 H 0.18297 0.76415 0.10001 0.0
H610 H 1.05154 0.71384 0.10892 0.0
H611 H 0.25243 0.66069 0.22022 0.0
H612 H 0.20169 0.71419 0.39404 0.0
H613 H 0.17858 0.7518 0.36272 0.0
H614 H 0.25926 0.63741 0.36268 0.0
H615 H 1.06136 0.63593 0.18162 0.0
H616 H 1.04257 0.67234 0.14474 0.0
H617 H 0.2314 0.67137 0.39375 0.0
H618 H 0.28048 0.62557 0.24826 0.0
N619 N 0.2039 0.71449 0.29872 0.0
C620 C 0.20252 0.71412 0.36733 0.0
C621 C 0.18944 0.73537 0.34976 0.0
C622 C 0.2172 0.69347 0.3503 0.0
C623 C 0.21774 0.69433 0.31548 0.0
C624 C 0.1905 0.73536 0.31533 0.0
N625 N 0.23435 0.67714 0.26437 0.0
C626 C 0.23353 0.67524 0.29787 0.0
C627 C 0.26743 0.63945 0.26253 0.0
C628 C 0.26595 0.63666 0.29668 0.0
C629 C 0.25159 0.65989 0.24672 0.0
C630 C 0.24908 0.65476 0.31483 0.0
H631 H 0.27813 0.62066 0.3088 0.0
O632 O 0.22181 0.74715 0.2147 0.0
O633 O 0.17082 0.72157 0.20189 0.0
O634 O 0.21045 0.68472 0.15707 0.0
O635 O 0.23754 0.7034 0.1981 0.0
O636 O 0.16654 0.73983 0.24721 0.0
O637 O 0.2354 0.73806 0.26447 0.0
O638 O 0.19228 0.64137 0.16567 0.0
O639 O 0.19718 0.6665 0.22705 0.0
O640 O 0.16533 0.69908 0.26869 0.0
O641 O 0.13759 0.67928 0.22728 0.0
O642 O 0.16136 0.64242 0.22389 0.0
O643 O 0.15345 0.65312 0.14204 0.0
C644 C 0.15425 0.73845 0.21886 0.0
C645 C 0.24769 0.65318 0.34937 0.0
C646 C 0.2318 0.6725 0.36706 0.0
C647 C 0.23534 0.75616 0.24057 0.0
C648 C 0.23071 0.78549 0.24979 0.0
C649 C 0.22756 0.80586 0.22524 0.0
C650 C 0.2282 0.79321 0.2831 0.0
C651 C 0.22113 0.82049 0.29182 0.0
C652 C 0.22116 0.83324 0.23385 0.0
C653 C 0.21761 0.84051 0.26694 0.0
C654 C 0.23542 0.69388 0.16715 0.0
C655 C 0.18367 0.64602 0.2417 0.0
C656 C 0.1732 0.63471 0.14407 0.0
C657 C 0.16376 0.60564 0.14239 0.0
C658 C 0.17283 0.58507 0.16457 0.0
C659 C 0.14446 0.59868 0.11785 0.0
C660 C 0.13369 0.57171 0.11531 0.0
C661 C 0.16256 0.55785 0.16174 0.0
C662 C 0.1431 0.55108 0.13709 0.0
C663 C 0.14158 0.68771 0.25811 0.0
H664 H 0.22965 0.80052 0.19939 0.0
H665 H 0.23069 0.77782 0.30237 0.0
H666 H 0.21853 0.84878 0.2148 0.0
H667 H 0.2122 0.86174 0.27312 0.0
H668 H 0.18766 0.58996 0.18396 0.0
H669 H 0.13778 0.61447 0.10043 0.0
H670 H 0.1696 0.542 0.17877 0.0
H671 H 0.13519 0.53 0.1353 0.0
Gd672 Gd 0.93161 0.71937 0.59287 0.0
Gd673 Gd 0.96776 0.679 0.53888 0.0
C674 C 0.94193 0.66296 0.43171 0.0
C675 C 0.90186 0.63221 0.43807 0.0
C676 C 0.92695 0.64918 0.48639 0.0
C677 C 0.94491 0.66402 0.46633 0.0
C678 C 0.90544 0.63274 0.47245 0.0
C679 C 0.92007 0.6473 0.41773 0.0
C680 C 0.96124 0.67735 0.41214 0.0
C681 C 0.98325 0.69173 0.42712 0.0
N682 N 0.96584 0.67883 0.48061 0.0
C683 C 0.98559 0.69179 0.46149 0.0
H684 H 1.00278 0.70287 0.4729 0.0
C685 C 0.915 0.63403 0.53998 0.0
N686 N 0.93084 0.65035 0.51952 0.0
C687 C 0.89338 0.6175 0.52734 0.0
C688 C 0.88838 0.61704 0.49344 0.0
H689 H 0.91837 0.63433 0.56623 0.0
H690 H 0.91733 0.64639 0.39122 0.0
H691 H 0.98477 0.69377 0.64058 0.0
H692 H 0.95961 0.67713 0.38548 0.0
H693 H 0.9985 0.70267 0.4122 0.0
H694 H 0.88531 0.61989 0.42696 0.0
H695 H 0.89109 0.77409 0.57527 0.0
H696 H 1.0277 0.76287 0.68338 0.0
H697 H 1.02238 0.71217 0.67566 0.0
H698 H 0.97492 0.84155 0.64714 0.0
H699 H 0.88055 0.60514 0.54378 0.0
H700 H 0.87161 0.60421 0.48371 0.0
H701 H 1.01011 0.81093 0.67227 0.0
H702 H 0.8918 0.82503 0.58346 0.0
N703 N 0.96829 0.73362 0.62827 0.0
C704 C 1.01085 0.75492 0.66809 0.0
C705 C 1.00789 0.72629 0.66384 0.0
C706 C 0.99182 0.77295 0.65299 0.0
C707 C 0.97031 0.76158 0.63316 0.0
C708 C 0.98625 0.71591 0.64409 0.0
N709 N 0.92964 0.76758 0.60042 0.0
C710 C 0.95054 0.779 0.61876 0.0
C711 C 0.90854 0.81236 0.59329 0.0
C712 C 0.93053 0.82466 0.61079 0.0
C713 C 0.90824 0.78357 0.58862 0.0
C714 C 0.95168 0.80797 0.62413 0.0
H715 H 0.93068 0.84699 0.6144 0.0
O716 O 0.89552 0.69699 0.61221 0.0
O717 O 0.92228 0.6897 0.55048 0.0
O718 O 0.95683 0.71709 0.50976 0.0
O719 O 0.93794 0.7479 0.54843 0.0
O720 O 0.89833 0.72536 0.55258 0.0
O721 O 0.90931 0.73536 0.63511 0.0
O722 O 0.98362 0.63724 0.54764 0.0
O723 O 0.97675 0.71234 0.57776 0.0
O724 O 0.9386 0.67744 0.6223 0.0
O725 O 0.96489 0.65132 0.58673 0.0
O726 O 1.00199 0.71303 0.53737 0.0
O727 O 1.00899 0.66707 0.52162 0.0
C728 C 0.90209 0.70314 0.53507 0.0
C729 C 0.97355 0.81932 0.64305 0.0
C730 C 0.99357 0.80187 0.65739 0.0
C731 C 0.88995 0.71633 0.63368 0.0
C732 C 0.86106 0.72653 0.636 0.0
C733 C 0.83986 0.7187 0.61376 0.0
C734 C 0.85488 0.74499 0.66151 0.0
C735 C 0.82801 0.75604 0.66507 0.0
C736 C 0.81274 0.72932 0.61751 0.0
C737 C 0.80673 0.74786 0.64319 0.0
C738 C 0.94765 0.74191 0.51857 0.0
C739 C 0.99668 0.72731 0.56356 0.0
C740 C 1.00482 0.64089 0.52795 0.0
C741 C 1.00679 0.6221 0.49921 0.0
C742 C 0.98718 0.60065 0.49413 0.0
C743 C 1.02545 0.62893 0.47382 0.0
C744 C 1.0227 0.61707 0.4423 0.0
C745 C 0.98555 0.58732 0.46358 0.0
C746 C 1.00274 0.59581 0.43757 0.0
C747 C 0.9516 0.65347 0.61558 0.0
H748 H 0.84416 0.70451 0.59367 0.0
H749 H 0.87118 0.75069 0.67896 0.0
H750 H 0.79639 0.72321 0.60045 0.0
H751 H 0.78571 0.75602 0.64572 0.0
H752 H 0.97236 0.59492 0.51319 0.0
H753 H 1.04106 0.6449 0.47825 0.0
H754 H 0.97004 0.5712 0.45962 0.0
H755 H 0.99966 0.58636 0.41362 0.0
Gd756 Gd 0.16535 0.17965 0.8416 0.0
Gd757 Gd 0.20601 0.21504 0.78819 0.0
C758 C 0.218 0.19776 0.67854 0.0
C759 C 0.2463 0.15589 0.67905 0.0
C760 C 0.23323 0.17819 0.73076 0.0
C761 C 0.21853 0.19826 0.71336 0.0
C762 C 0.24779 0.15714 0.71361 0.0
C763 C 0.23143 0.17614 0.66156 0.0
C764 C 0.20455 0.21937 0.66175 0.0
C765 C 0.1928 0.24123 0.67958 0.0
N766 N 0.20583 0.21902 0.73035 0.0
C767 C 0.19387 0.24088 0.71402 0.0
H768 H 0.18487 0.25801 0.72749 0.0
C769 C 0.25074 0.16186 0.78179 0.0
N770 N 0.23411 0.17976 0.76427 0.0
C771 C 0.26559 0.14079 0.76579 0.0
C772 C 0.26384 0.13818 0.73162 0.0
H773 H 0.25181 0.16273 0.80828 0.0
H774 H 0.23098 0.17525 0.63485 0.0
H775 H 0.19492 0.23302 0.88616 0.0
H776 H 0.20372 0.21971 0.63504 0.0
H777 H 0.18294 0.25838 0.66682 0.0
H778 H 0.25706 0.13966 0.66557 0.0
H779 H 0.10779 0.1425 0.82506 0.0
H780 H 0.12848 0.27834 0.93113 0.0
H781 H 0.179 0.27131 0.92123 0.0
H782 H 1.04597 0.22878 0.8988 0.0
H783 H 0.27813 0.12634 0.77992 0.0
H784 H 0.27524 0.12171 0.71935 0.0
H785 H 0.0791 0.26257 0.92233 0.0
H786 H 1.05671 0.14559 0.83485 0.0
N787 N 0.15379 0.21749 0.87631 0.0
C788 C 0.13531 0.26112 0.91592 0.0
C789 C 0.16385 0.25717 0.91046 0.0
C790 C 0.11593 0.24269 0.90196 0.0
C791 C 0.12585 0.22065 0.88216 0.0
C792 C 0.17282 0.23506 0.8908 0.0
N793 N 0.1169 0.18036 0.84999 0.0
C794 C 0.10696 0.20169 0.86856 0.0
C795 C 0.07058 0.16158 0.84425 0.0
C796 C 1.05979 0.18393 0.86215 0.0
C797 C 0.0994 0.15994 0.83865 0.0
C798 C 0.07801 0.20415 0.87487 0.0
H799 H 1.03743 0.18513 0.8665 0.0
O800 O 0.18616 0.14343 0.86235 0.0
O801 O 0.19622 0.1697 0.8005 0.0
O802 O 0.16721 0.20603 0.75871 0.0
O803 O 0.13713 0.1841 0.79623 0.0
O804 O 0.15927 0.14696 0.80104 0.0
O805 O 0.14733 0.15816 0.88339 0.0
O806 O 0.2246 0.24947 0.81537 0.0
O807 O 0.17115 0.22436 0.82531 0.0
O808 O 0.20775 0.18644 0.8711 0.0
O809 O 0.23675 0.20521 0.83197 0.0
O810 O 0.17007 0.24712 0.78314 0.0
O811 O 0.23935 0.23935 0.76635 0.0
C812 C 0.1824 0.14995 0.78465 0.0
C813 C 1.06816 0.22642 0.89396 0.0
C814 C 0.08704 0.24564 0.90741 0.0
C815 C 0.16594 0.13855 0.88308 0.0
C816 C 0.15471 0.11019 0.88534 0.0
C817 C 0.16009 0.08963 0.86157 0.0
C818 C 0.13733 0.10404 0.91206 0.0
C819 C 0.12491 0.0778 0.91531 0.0
C820 C 0.14817 1.06315 0.86497 0.0
C821 C 0.13068 1.05716 0.89178 0.0
C822 C 0.14279 0.19489 0.76677 0.0
C823 C 0.15576 0.24307 0.8098 0.0
C824 C 0.2401 0.2572 0.79051 0.0
C825 C 0.23912 0.28689 0.78149 0.0
C826 C 0.23995 0.30739 0.80614 0.0
C827 C 0.23671 0.29499 0.74833 0.0
C828 C 0.23375 0.32306 0.73986 0.0
C829 C 0.23764 0.33548 0.79777 0.0
C830 C 0.23423 0.34332 0.76483 0.0
C831 C 0.23334 0.19534 0.86247 0.0
H832 H 0.17331 0.094 0.84048 0.0
H833 H 0.1335 0.1199 0.93055 0.0
H834 H 0.15236 1.04729 0.84668 0.0
H835 H 0.1214 1.03666 0.89388 0.0
H836 H 0.2421 0.30166 0.83187 0.0
H837 H 0.23615 0.27946 0.72901 0.0
H838 H 0.23811 0.35117 0.8169 0.0
H839 H 0.23197 0.36515 0.75884 0.0
Gd840 Gd 0.70491 0.41362 0.09124 0.0
Gd841 Gd 0.66847 0.45324 0.03784 0.0
C842 C 0.68453 0.46511 0.92783 0.0
C843 C 0.72634 0.49397 0.92765 0.0
C844 C 0.70458 0.48076 0.97972 0.0
C845 C 0.68435 0.46577 0.96265 0.0
C846 C 0.72546 0.4955 0.96222 0.0
C847 C 0.70594 0.47881 0.9105 0.0
C848 C 0.66284 0.4512 0.91138 0.0
C849 C 0.64123 0.43906 0.92953 0.0
N850 N 0.66382 0.45277 0.97999 0.0
C851 C 0.6419 0.44025 0.96396 0.0
H852 H 0.62496 0.43087 0.97764 0.0
C853 C 0.72145 0.49851 0.03043 0.0
N854 N 0.70337 0.48168 1.01326 0.0
C855 C 0.74239 0.51348 1.01409 0.0
C856 C 0.74464 0.5117 0.97989 0.0
H857 H 0.72084 0.49964 0.05692 0.0
H858 H 0.70657 0.47829 0.88379 0.0
H859 H 0.65205 0.44712 0.1323 0.0
H860 H 0.66226 0.45026 0.88468 0.0
H861 H 0.62404 0.42877 0.91704 0.0
H862 H 0.74243 0.50488 0.9139 0.0
H863 H 0.73435 0.35219 0.07211 0.0
H864 H 0.60681 0.38705 0.18818 0.0
H865 H 0.61485 0.43576 0.17139 0.0
H866 H 0.65079 0.301 0.16078 0.0
H867 H 0.757 0.52615 0.02798 0.0
H868 H 0.761 0.52323 0.96735 0.0
H869 H 0.62026 0.33705 0.18401 0.0
H870 H 0.72808 0.30252 0.08558 0.0
N871 N 0.66649 0.40538 0.12715 0.0
C872 C 0.62367 0.39195 0.17125 0.0
C873 C 0.62817 0.41945 0.16187 0.0
C874 C 0.64087 0.37105 0.15857 0.0
C875 C 0.66256 0.37847 0.13651 0.0
C876 C 0.64975 0.42585 0.1399 0.0
N877 N 0.70032 0.36564 0.10207 0.0
C878 C 0.67986 0.35808 0.12354 0.0
C879 C 0.71432 0.31789 0.09635 0.0
C880 C 0.69329 0.30977 0.1182 0.0
C881 C 0.71763 0.346 0.08858 0.0
C882 C 0.67578 0.32988 0.13212 0.0
H883 H 0.69076 0.28795 0.12415 0.0
O884 O 0.73615 0.39233 0.12073 0.0
O885 O 0.71448 0.44447 0.05007 0.0
O886 O 0.67806 0.41545 1.00783 0.0
O887 O 0.70138 0.38641 0.04496 0.0
O888 O 0.73903 0.40926 0.05186 0.0
O889 O 0.73209 0.43698 0.1241 0.0
O890 O 0.63347 0.47067 0.06525 0.0
O891 O 0.65997 0.41803 0.07479 0.0
O892 O 0.70047 0.45703 0.11874 0.0
O893 O 0.67793 0.48456 0.08115 0.0
O894 O 0.63649 0.41688 0.03319 0.0
O895 O 0.64341 0.48599 0.01641 0.0
C896 C 0.73506 0.43156 0.03468 0.0
C897 C 0.65424 0.32253 0.154 0.0
C898 C 0.63685 0.34306 0.1672 0.0
C899 C 0.74246 0.41459 0.13727 0.0
C900 C 0.74022 0.41191 0.17321 0.0
C901 C 0.71918 0.42546 0.19136 0.0
C902 C 0.75782 0.39312 0.18907 0.0
C903 C 0.75442 0.3873 0.22267 0.0
C904 C 0.71651 0.42066 0.22521 0.0
C905 C 0.73407 0.40161 0.24093 0.0
C906 C 0.69018 0.39172 0.01564 0.0
C907 C 0.64118 0.40247 0.05956 0.0
C908 C 0.62544 0.48612 0.04057 0.0
C909 C 0.59555 0.48459 0.0315 0.0
C910 C 0.57484 0.48613 0.05599 0.0
C911 C 0.58746 0.48098 0.99847 0.0
C912 C 0.55922 0.47753 0.98994 0.0
C913 C 0.54656 0.48344 0.04757 0.0
C914 C 0.53874 0.47887 0.01478 0.0
C915 C 0.6899 0.48195 0.11075 0.0
H916 H 0.70448 0.43923 0.17945 0.0
H917 H 0.77374 0.38235 0.1749 0.0
H918 H 0.70034 0.43119 0.23909 0.0
H919 H 0.73116 0.3974 0.26695 0.0
H920 H 0.58055 0.48918 0.08161 0.0
H921 H 0.60319 0.47994 0.97934 0.0
H922 H 0.53069 0.48452 0.06658 0.0
H923 H 0.51675 0.47641 1.00883 0.0
Gd924 Gd 0.47214 0.95171 0.34168 0.0
Gd925 Gd 0.43177 0.91651 0.28755 0.0
C926 C 0.41956 0.93512 0.17822 0.0
C927 C 0.39104 0.97681 0.17946 0.0
C928 C 0.40429 0.95396 0.23078 0.0
C929 C 0.41909 0.93419 0.21302 0.0
C930 C 0.38965 0.97518 0.214 0.0
C931 C 0.40595 0.95683 0.16161 0.0
C932 C 0.43316 0.91382 0.16105 0.0
C933 C 0.44519 0.89188 0.17849 0.0
N934 N 0.43201 0.91336 0.22965 0.0
C935 C 0.44422 0.89184 0.21293 0.0
H936 H 0.45351 0.8747 0.22612 0.0
C937 C 0.38702 0.96982 0.28211 0.0
N938 N 0.40351 0.95201 0.26427 0.0
C939 C 0.37211 0.99104 0.26648 0.0
C940 C 0.37367 0.99395 0.23234 0.0
H941 H 0.38612 0.96877 0.3086 0.0
H942 H 0.40635 0.95804 0.13493 0.0
H943 H 0.44283 0.89747 0.38487 0.0
H944 H 0.43394 0.91379 0.13433 0.0
H945 H 0.45522 0.87499 0.16544 0.0
H946 H 0.3802 0.99317 0.16626 0.0
H947 H 0.52949 0.98938 0.32597 0.0
H948 H 0.50926 0.85308 0.43121 0.0
H949 H 0.4588 0.85929 0.42004 0.0
H950 H 0.59147 0.90398 0.401 0.0
H951 H 0.35968 1.00538 0.28088 0.0
H952 H 0.36221 1.01054 0.22035 0.0
H953 H 0.5585 0.86965 0.42369 0.0
H954 H 0.58047 0.9869 0.33668 0.0
N955 N 0.48382 0.91387 0.37636 0.0
C956 C 0.50238 0.87028 0.416 0.0
C957 C 0.47388 0.87376 0.40983 0.0
C958 C 0.52167 0.88911 0.4027 0.0
C959 C 0.5117 0.91112 0.38288 0.0
C960 C 0.46487 0.89584 0.39013 0.0
N961 N 0.5205 0.95158 0.35106 0.0
C962 C 0.53048 0.93041 0.36982 0.0
C963 C 0.56668 0.97081 0.34594 0.0
C964 C 0.57752 0.94866 0.36415 0.0
C965 C 0.53791 0.9721 0.33983 0.0
C966 C 0.5594 0.92827 0.37661 0.0
H967 H 0.59985 0.94771 0.36886 0.0
O968 O 0.48956 0.97425 0.38304 0.0
O969 O 0.44166 0.96174 0.30019 0.0
O970 O 0.47078 0.9259 0.25849 0.0
O971 O 0.50058 0.9476 0.29658 0.0
O972 O 0.47843 0.98474 0.30162 0.0
O973 O 0.44971 0.98688 0.3625 0.0
O974 O 0.41299 0.88196 0.31423 0.0
O975 O 0.46658 0.90721 0.32471 0.0
O976 O 0.42989 0.94423 0.37095 0.0
O977 O 0.40077 0.92599 0.33147 0.0
O978 O 0.46776 0.88447 0.28251 0.0
O979 O 0.3992 0.8917 0.2647 0.0
C980 C 0.4555 0.98173 0.28484 0.0
C981 C 0.56931 0.90608 0.39579 0.0
C982 C 0.55052 0.88655 0.40874 0.0
C983 C 0.4701 0.99307 0.38258 0.0
C984 C 0.48011 1.02195 0.38354 0.0
C985 C 0.47114 1.04237 0.36111 0.0
C986 C 0.49983 1.02888 0.4076 0.0
C987 C 0.51099 1.05573 0.40954 0.0
C988 C 0.48187 0.06945 0.36328 0.0
C989 C 0.50166 0.07623 0.38753 0.0
C990 C 0.49512 0.93712 0.26688 0.0
C991 C 0.48197 0.88847 0.30928 0.0
C992 C 0.39845 0.87375 0.28874 0.0
C993 C 0.40092 0.84413 0.27965 0.0
C994 C 0.4013 0.82362 0.3043 0.0
C995 C 0.40406 0.83616 0.2465 0.0
C996 C 0.40913 0.80837 0.2381 0.0
C997 C 0.4056 0.79576 0.29598 0.0
C998 C 0.40984 0.78816 0.2631 0.0
C999 C 0.40425 0.93557 0.36218 0.0
H1000 H 0.45601 1.03747 0.34205 0.0
H1001 H 0.50648 1.01318 0.42517 0.0
H1002 H 0.47488 0.08519 0.34607 0.0
H1003 H 0.50988 0.09722 0.38888 0.0
H1004 H 0.39866 0.82919 0.33001 0.0
H1005 H 0.40364 0.85167 0.22716 0.0
H1006 H 0.40608 0.78008 0.31512 0.0
H1007 H 0.41367 0.76653 0.25719 0.0
Gd1008 Gd 0.16886 0.45272 0.492 0.0
Gd1009 Gd 0.20538 0.4125 0.44002 0.0
C1010 C 0.14737 0.36876 0.36676 0.0
C1011 C 0.16095 0.32044 0.37314 0.0
C1012 C 0.18273 0.35629 0.40707 0.0
C1013 C 0.16633 0.3764 0.39202 0.0
C1014 C 0.18003 0.32806 0.39792 0.0
C1015 C 0.14482 0.34075 0.35744 0.0
C1016 C 0.13103 0.38941 0.35203 0.0
C1017 C 0.13323 0.41676 0.36308 0.0
N1018 N 0.16859 0.40326 0.40225 0.0
C1019 C 0.15208 0.42335 0.38831 0.0
H1020 H 0.15278 0.44448 0.39689 0.0
C1021 C 0.21853 0.34505 0.44522 0.0
N1022 N 0.20158 0.36428 0.43033 0.0
C1023 C 0.21617 0.31684 0.4374 0.0
C1024 C 0.19683 0.3083 0.41366 0.0
H1025 H 0.23434 0.35159 0.46273 0.0
H1026 H 0.13024 0.33455 0.33828 0.0
H1027 H 0.12511 0.43262 0.55272 0.0
H1028 H 0.11626 0.38436 0.3326 0.0
H1029 H 0.1203 0.43281 0.35229 0.0
H1030 H 0.15865 0.29889 0.36577 0.0
H1031 H 0.22187 0.49791 0.47082 0.0
H1032 H 0.16093 0.45699 0.64494 0.0
H1033 H 0.12331 0.43362 0.61334 0.0
H1034 H 0.24137 0.5103 0.61366 0.0
H1035 H 0.22957 0.30177 0.44935 0.0
H1036 H 0.19527 0.28644 0.40736 0.0
H1037 H 0.20513 0.48519 0.6448 0.0
H1038 H 0.25767 0.52572 0.49867 0.0
N1039 N 0.16381 0.4547 0.54969 0.0
C1040 C 0.1619 0.45656 0.61824 0.0
C1041 C 0.14064 0.44334 0.60052 0.0
C1042 C 0.18375 0.46974 0.6013 0.0
C1043 C 0.18404 0.46867 0.56649 0.0
C1044 C 0.14181 0.44276 0.5661 0.0
N1045 N 0.20362 0.48224 0.51525 0.0
C1046 C 0.20443 0.48291 0.54882 0.0
C1047 C 0.24281 0.5138 0.51309 0.0
C1048 C 0.24454 0.51376 0.54738 0.0
C1049 C 0.22204 0.49813 0.49735 0.0
C1050 C 0.22508 0.49848 0.56572 0.0
H1051 H 0.26074 0.52587 0.55947 0.0
O1052 O 0.13321 0.4681 0.464 0.0
O1053 O 0.15984 0.41694 0.4553 0.0
O1054 O 0.20073 0.45541 0.41143 0.0
O1055 O 0.17794 0.4834 0.44824 0.0
O1056 O 0.13914 0.41531 0.49923 0.0
O1057 O 0.14294 0.48553 0.51187 0.0
O1058 O 0.23637 0.39101 0.41033 0.0
O1059 O 0.21482 0.44367 0.48061 0.0
O1060 O 0.179 0.41616 0.52377 0.0
O1061 O 0.20159 0.3862 0.48717 0.0
O1062 O 0.23935 0.40843 0.47963 0.0
O1063 O 0.2341 0.4359 0.40921 0.0
C1064 C 0.14193 0.40147 0.47207 0.0
C1065 C 0.22548 0.49869 0.60035 0.0
C1066 C 0.20486 0.48437 0.61809 0.0
C1067 C 0.12462 0.48387 0.48812 0.0
C1068 C 0.09501 0.48071 0.49799 0.0
C1069 C 0.0741 0.47688 0.47401 0.0
C1070 C 0.0876 0.47996 0.53151 0.0
C1071 C 1.06023 0.47336 0.54117 0.0
C1072 C 1.0465 0.47136 0.4835 0.0
C1073 C 1.03962 0.46915 0.5169 0.0
C1074 C 0.18994 0.48037 0.41879 0.0
C1075 C 0.23539 0.431 0.49631 0.0
C1076 C 0.24417 0.41364 0.39543 0.0
C1077 C 0.24336 0.41254 0.35929 0.0
C1078 C 0.22187 0.42529 0.34103 0.0
C1079 C 0.26305 0.39614 0.34308 0.0
C1080 C 0.26128 0.39188 0.30894 0.0
C1081 C 0.22051 0.42183 0.30686 0.0
C1082 C 0.24001 0.40501 0.2908 0.0
C1083 C 0.19104 0.39224 0.51663 0.0
H1084 H 0.0792 0.47766 0.44799 0.0
H1085 H 0.10338 0.48321 0.55031 0.0
H1086 H 1.03052 0.46817 0.4649 0.0
H1087 H 1.01829 0.46407 0.52378 0.0
H1088 H 0.20581 0.43738 0.35303 0.0
H1089 H 0.27886 0.38539 0.35745 0.0
H1090 H 0.20391 0.43165 0.29292 0.0
H1091 H 0.23825 0.40189 0.26442 0.0
Gd1092 Gd 0.93225 0.91372 0.24129 0.0
Gd1093 Gd 0.97297 0.94986 0.18938 0.0
C1094 C 1.02299 0.89413 0.12026 0.0
C1095 C 0.07056 0.91038 0.12975 0.0
C1096 C 1.03179 0.93071 0.16028 0.0
C1097 C 1.0131 0.91282 0.14449 0.0
C1098 C 1.06064 0.92983 0.15271 0.0
C1099 C 1.05177 0.89272 0.11341 0.0
C1100 C 1.00364 0.87746 0.1034 0.0
C1101 C 0.97527 0.87918 0.11126 0.0
N1102 N 0.98528 0.91431 0.15187 0.0
C1103 C 0.96641 0.89769 0.13569 0.0
H1104 H 0.94448 0.8981 0.1418 0.0
C1105 C 1.03881 0.97007 0.19456 0.0
N1106 N 1.0216 0.95016 0.1814 0.0
C1107 C 1.06758 0.96957 0.18835 0.0
C1108 C 0.0786 0.94921 0.16757 0.0
H1109 H 1.03026 0.98631 0.20998 0.0
H1110 H 1.0597 0.87824 0.0952 0.0
H1111 H 0.95325 0.87217 0.30334 0.0
H1112 H 1.01042 0.86297 0.08457 0.0
H1113 H 0.96019 0.8661 0.09866 0.0
H1114 H 0.09265 0.90932 0.12378 0.0
H1115 H 0.88658 0.96576 0.21882 0.0
H1116 H 0.93051 0.91054 0.39453 0.0
H1117 H 0.95332 0.87224 0.36408 0.0
H1118 H 0.87632 0.98912 0.361 0.0
H1119 H 0.0812 0.9851 0.19925 0.0
H1120 H 0.10087 0.94914 0.16242 0.0
H1121 H 0.90218 0.95428 0.39311 0.0
H1122 H 0.85881 1.00172 0.24578 0.0
N1123 N 0.93115 0.91045 0.29919 0.0
C1124 C 0.93046 0.91066 0.3678 0.0
C1125 C 0.94334 0.88901 0.35073 0.0
C1126 C 0.91696 0.93179 0.35022 0.0
C1127 C 0.91744 0.93102 0.3154 0.0
C1128 C 0.94329 0.88909 0.31627 0.0
N1129 N 0.90295 0.94885 0.26365 0.0
C1130 C 0.9028 0.95063 0.29718 0.0
C1131 C 0.87104 0.98746 0.26054 0.0
C1132 C 0.87161 0.99016 0.29474 0.0
C1133 C 0.8867 0.96657 0.24533 0.0
C1134 C 0.88737 0.97154 0.31354 0.0
H1135 H 0.85956 1.0065 0.3064 0.0
O1136 O 0.91476 0.87848 0.21454 0.0
O1137 O 0.96734 0.90433 0.20378 0.0
O1138 O 0.9307 0.9435 0.15934 0.0
O1139 O 0.90181 0.92271 0.1971 0.0
O1140 O 0.96905 0.88333 0.24755 0.0
O1141 O 0.89964 0.88849 0.26336 0.0
O1142 O 0.95128 0.98611 0.16985 0.0
O1143 O 0.94191 0.95926 0.23028 0.0
O1144 O 0.9705 0.92273 0.27176 0.0
O1145 O 1.00099 0.94458 0.23488 0.0
O1146 O 0.97891 0.98182 0.23077 0.0
O1147 O 0.99088 0.9733 0.14905 0.0
C1148 C 0.9826 0.88593 0.22011 0.0
C1149 C 0.88779 0.97301 0.34813 0.0
C1150 C 0.90254 0.9532 0.36641 0.0
C1151 C 0.89999 0.87015 0.23974 0.0
C1152 C 0.90346 0.8408 0.24966 0.0
C1153 C 0.9062 0.81996 0.22562 0.0
C1154 C 0.90569 0.83358 0.28316 0.0
C1155 C 0.91258 0.80641 0.29257 0.0
C1156 C 0.91207 0.79261 0.23491 0.0
C1157 C 0.91567 0.78589 0.26817 0.0
C1158 C 0.90527 0.93361 0.16713 0.0
C1159 C 0.95562 0.97869 0.24675 0.0
C1160 C 0.97157 0.99221 0.14966 0.0
C1161 C 0.98179 1.02099 0.14838 0.0
C1162 C 0.97498 1.04106 0.17222 0.0
C1163 C 0.99954 1.02812 0.12237 0.0
C1164 C 1.01101 1.05484 0.11991 0.0
C1165 C 0.9859 0.06804 0.16957 0.0
C1166 C 1.00381 0.075 0.14346 0.0
C1167 C 0.99502 0.93387 0.26427 0.0
H1168 H 0.90429 0.82492 0.19964 0.0
H1169 H 0.90331 0.8493 0.30204 0.0
H1170 H 0.9144 0.77669 0.21624 0.0
H1171 H 0.92089 0.76472 0.27485 0.0
H1172 H 0.96141 1.03596 0.19275 0.0
H1173 H 1.00444 1.01263 0.10378 0.0
H1174 H 0.98061 0.08353 0.1879 0.0
H1175 H 1.0123 0.09587 0.14193 0.0
Gd1176 Gd 0.47135 0.67749 0.99209 0.0
Gd1177 Gd 0.43514 0.71703 0.93827 0.0
C1178 C 0.50043 0.75932 0.87237 0.0
C1179 C 0.48776 0.80799 0.87752 0.0
C1180 C 0.46122 0.7725 0.90697 0.0
C1181 C 0.47836 0.75198 0.89392 0.0
C1182 C 0.46581 0.80072 0.89887 0.0
C1183 C 0.505 0.78735 0.8643 0.0
C1184 C 0.51745 0.73832 0.8596 0.0
C1185 C 0.5124 0.71078 0.86839 0.0
N1186 N 0.47388 0.72501 0.90273 0.0
C1187 C 0.49045 0.70443 0.88989 0.0
H1188 H 0.48776 0.68311 0.89707 0.0
C1189 C 0.42301 0.78474 0.9412 0.0
N1190 N 0.44033 0.76502 0.9279 0.0
C1191 C 0.42684 0.81288 0.93391 0.0
C1192 C 0.44835 0.82093 0.91269 0.0
H1193 H 0.40594 0.77862 0.95718 0.0
H1194 H 0.5219 0.7933 0.84789 0.0
H1195 H 0.51516 0.69937 0.05211 0.0
H1196 H 0.53459 0.74316 0.84305 0.0
H1197 H 0.52558 0.69438 0.85881 0.0
H1198 H 0.49162 0.82954 0.87114 0.0
H1199 H 0.41862 0.63139 0.97296 0.0
H1200 H 0.47862 0.67906 0.1452 0.0
H1201 H 0.51659 0.70084 0.11272 0.0
H1202 H 0.39816 0.62482 0.11612 0.0
H1203 H 0.4131 0.82833 0.94455 0.0
H1204 H 0.45128 0.84278 0.90709 0.0
H1205 H 0.43428 0.65109 0.1462 0.0
H1206 H 0.3827 0.60465 1.00194 0.0
N1207 N 0.47628 0.67752 0.04989 0.0
C1208 C 0.47781 0.6784 0.1185 0.0
C1209 C 0.49927 0.69072 0.10027 0.0
C1210 C 0.45598 0.66467 0.1021 0.0
C1211 C 0.45589 0.66435 0.06727 0.0
C1212 C 0.49831 0.68991 0.06584 0.0
N1213 N 0.43654 0.64887 0.01667 0.0
C1214 C 0.43555 0.64951 0.05022 0.0
C1215 C 0.39744 0.61716 0.01583 0.0
C1216 C 0.39546 0.61861 0.05007 0.0
C1217 C 0.41827 0.63225 0.99947 0.0
C1218 C 0.41478 0.63464 0.06775 0.0
H1219 H 0.37918 0.60699 0.06264 0.0
O1220 O 0.50651 0.66079 0.96436 0.0
O1221 O 0.48007 0.71257 0.95491 0.0
O1222 O 0.4395 0.67359 0.91088 0.0
O1223 O 0.46159 0.64614 0.94898 0.0
O1224 O 0.50247 0.71433 0.99746 0.0
O1225 O 0.49677 0.64473 1.0129 0.0
O1226 O 0.40482 0.73877 0.90784 0.0
O1227 O 0.42562 0.68627 0.97932 0.0
O1228 O 0.46119 0.71508 0.02228 0.0
O1229 O 0.43809 0.74406 0.98486 0.0
O1230 O 0.40084 0.72127 0.97748 0.0
O1231 O 0.4072 0.69395 0.90603 0.0
C1232 C 0.49821 0.7284 0.97075 0.0
C1233 C 0.41416 0.63585 0.10234 0.0
C1234 C 0.4347 0.65082 0.11947 0.0
C1235 C 0.51477 0.64517 0.98877 0.0
C1236 C 0.54463 0.64715 0.99792 0.0
C1237 C 0.56538 0.64682 0.97342 0.0
C1238 C 0.55261 0.6502 0.03107 0.0
C1239 C 0.58071 0.65447 0.03973 0.0
C1240 C 0.59356 0.65022 0.98195 0.0
C1241 C 0.60123 0.65434 0.01488 0.0
C1242 C 0.44982 0.64867 0.91925 0.0
C1243 C 0.40492 0.69896 0.99462 0.0
C1244 C 0.39737 0.71634 0.89232 0.0
C1245 C 0.39894 0.71792 0.85625 0.0
C1246 C 0.42064 0.70514 0.83843 0.0
C1247 C 0.37977 0.73476 0.83976 0.0
C1248 C 0.3822 0.73938 0.80574 0.0
C1249 C 0.42275 0.70906 0.80437 0.0
C1250 C 0.40374 0.72629 0.78803 0.0
C1251 C 0.44896 0.73877 0.0144 0.0
H1252 H 0.55977 0.64423 0.94769 0.0
H1253 H 0.53685 0.65027 0.05021 0.0
H1254 H 0.60946 0.65009 0.96293 0.0
H1255 H 0.62312 0.65743 0.02091 0.0
H1256 H 0.43626 0.69265 0.85075 0.0
H1257 H 0.36377 0.74546 0.85386 0.0
H1258 H 0.43951 0.69923 0.79075 0.0
H1259 H 0.40602 0.72963 0.76175 0.0
Gd1260 Gd 0.70367 0.21151 0.74244 0.0
Gd1261 Gd 0.66609 0.17747 0.6847 0.0
C1262 C 0.61873 0.24321 0.62605 0.0
C1263 C 0.57076 0.22653 0.6304 0.0
C1264 C 0.6087 0.20059 0.656 0.0
C1265 C 0.62801 0.22022 0.64475 0.0
C1266 C 0.57999 0.20336 0.64838 0.0
C1267 C 0.59005 0.2464 0.61933 0.0
C1268 C 0.63852 0.26234 0.61449 0.0
C1269 C 0.66684 0.2582 0.6212 0.0
N1270 N 0.65571 0.21684 0.65189 0.0
C1271 C 0.67518 0.23517 0.63973 0.0
H1272 H 0.69708 0.23302 0.64549 0.0
C1273 C 0.60018 0.15743 0.68249 0.0
N1274 N 0.61802 0.17838 0.67353 0.0
C1275 C 0.57158 0.15935 0.67555 0.0
C1276 C 0.56138 0.18256 0.65873 0.0
H1277 H 0.60817 0.1393 0.6951 0.0
H1278 H 0.5826 0.26405 0.60525 0.0
H1279 H 0.67958 0.2527 0.80336 0.0
H1280 H 0.63217 0.28029 0.60019 0.0
H1281 H 0.6823 0.27291 0.61232 0.0
H1282 H 0.54876 0.22913 0.62461 0.0
H1283 H 0.75034 0.15966 0.72266 0.0
H1284 H 0.69907 0.21457 0.89563 0.0
H1285 H 0.67695 0.2525 0.86387 0.0
H1286 H 0.75539 0.13658 0.86529 0.0
H1287 H 0.55743 0.14291 0.68307 0.0
H1288 H 0.53919 0.18397 0.65334 0.0
H1289 H 0.72797 0.1712 0.89588 0.0
H1290 H 0.77713 0.1238 0.75113 0.0
N1291 N 0.70231 0.21467 0.80034 0.0
C1292 C 0.7002 0.21444 0.86894 0.0
C1293 C 0.68767 0.23587 0.85112 0.0
C1294 C 0.71471 0.19353 0.85217 0.0
C1295 C 0.71565 0.19433 0.81737 0.0
C1296 C 0.68909 0.23578 0.8167 0.0
N1297 N 0.73232 0.17664 0.76655 0.0
C1298 C 0.73121 0.17489 0.80004 0.0
C1299 C 0.76435 0.13807 0.76521 0.0
C1300 C 0.76257 0.13545 0.79935 0.0
C1301 C 0.74924 0.15892 0.74915 0.0
C1302 C 0.7461 0.15407 0.81726 0.0
H1303 H 0.7742 0.11915 0.81167 0.0
O1304 O 0.72152 0.24678 0.71621 0.0
O1305 O 0.66982 0.22171 0.70409 0.0
O1306 O 0.70881 0.18571 0.65792 0.0
O1307 O 0.73645 0.20239 0.69977 0.0
O1308 O 0.6661 0.2414 0.74826 0.0
O1309 O 0.7352 0.23723 0.76588 0.0
O1310 O 0.64922 0.15639 0.64193 0.0
O1311 O 0.69543 0.16698 0.72696 0.0
O1312 O 0.6644 0.19881 0.76997 0.0
O1313 O 0.63667 0.17881 0.72854 0.0
O1314 O 0.66035 0.14208 0.72236 0.0
O1315 O 0.68934 0.14381 0.66173 0.0
C1316 C 0.65314 0.23873 0.72045 0.0
C1317 C 0.74435 0.15261 0.85178 0.0
C1318 C 0.7287 0.17229 0.86919 0.0
C1319 C 0.73585 0.25514 0.74178 0.0
C1320 C 0.7333 0.28478 0.75067 0.0
C1321 C 0.73438 0.30522 0.72598 0.0
C1322 C 0.72943 0.29292 0.78365 0.0
C1323 C 0.7256 0.32097 0.79187 0.0
C1324 C 0.73108 0.33325 0.73408 0.0
C1325 C 0.7265 0.34113 0.76679 0.0
C1326 C 0.73407 0.19367 0.66846 0.0
C1327 C 0.68237 0.14574 0.74065 0.0
C1328 C 0.66917 0.1381 0.64117 0.0
C1329 C 0.65996 0.10908 0.63815 0.0
C1330 C 0.66879 0.08799 0.65975 0.0
C1331 C 0.64113 0.1027 0.61292 0.0
C1332 C 0.63066 0.07572 0.60904 0.0
C1333 C 0.65879 1.06079 0.65564 0.0
C1334 C 0.63984 1.05458 0.63027 0.0
C1335 C 0.64081 0.18714 0.7594 0.0
H1336 H 0.73761 0.29948 0.70042 0.0
H1337 H 0.72862 0.27741 0.80295 0.0
H1338 H 0.73183 0.34889 0.7149 0.0
H1339 H 0.72377 0.36296 0.7725 0.0
H1340 H 0.68324 0.09246 0.67967 0.0
H1341 H 0.63461 0.11896 0.59602 0.0
H1342 H 0.66565 1.04454 0.67223 0.0
H1343 H 0.63214 1.0335 0.62749 0.0
H1344 H 0.48683 0.28739 0.06302 0.0
H1345 H 0.65165 0.34323 0.06516 0.0
H1346 H 0.556 0.23188 0.07614 0.0
H1347 H 0.58224 0.39943 0.06894 0.0
H1348 H 0.61846 0.30365 0.07002 0.0
H1349 H 0.51982 0.32729 0.06605 0.0
C1350 C 0.50865 0.2831 0.06804 0.0
C1351 C 0.51707 0.25469 0.07171 0.0
C1352 C 0.61014 0.32455 0.07053 0.0
C1353 C 0.55772 0.30297 0.07232 0.0
C1354 C 0.62968 0.34784 0.06851 0.0
C1355 C 0.62121 0.37638 0.06901 0.0
C1356 C 0.58043 0.32829 0.07176 0.0
C1357 C 0.59117 0.3788 0.07008 0.0
C1358 C 0.5281 0.30652 0.06902 0.0
C1359 C 0.54703 0.25249 0.07485 0.0
N1360 N 0.57275 0.356 0.07142 0.0
N1361 N 0.56538 0.27536 0.07511 0.0
H1362 H 0.59534 0.7342 0.31005 0.0
H1363 H 0.54185 0.89834 0.31362 0.0
H1364 H 0.65272 0.80215 0.32205 0.0
H1365 H 0.48426 0.82998 0.31888 0.0
H1366 H 0.5813 0.86501 0.31745 0.0
H1367 H 0.55579 0.76741 0.31393 0.0
C1368 C 0.60013 0.75581 0.31492 0.0
C1369 C 0.62893 0.76382 0.31803 0.0
C1370 C 0.56013 0.85695 0.3185 0.0
C1371 C 0.58107 0.80472 0.31975 0.0
C1372 C 0.53694 0.87657 0.31706 0.0
C1373 C 0.50807 0.86844 0.31832 0.0
C1374 C 0.55592 0.82751 0.31985 0.0
C1375 C 0.5052 0.83865 0.3195 0.0
C1376 C 0.57691 0.77538 0.31644 0.0
C1377 C 0.63177 0.79351 0.32115 0.0
N1378 N 0.52789 0.82015 0.32026 0.0
N1379 N 0.60906 0.812 0.32194 0.0
H1380 H 0.15108 0.84168 0.56705 0.0
H1381 H 0.98606 0.78668 0.56316 0.0
H1382 H 0.08197 0.89828 0.56965 0.0
H1383 H 1.05478 0.73094 0.57806 0.0
H1384 H 1.01922 0.82644 0.56625 0.0
H1385 H 0.11765 0.80231 0.57188 0.0
C1386 C 0.12911 0.84642 0.57016 0.0
C1387 C 0.12081 0.87502 0.57036 0.0
C1388 C 1.02735 0.80565 0.5696 0.0
C1389 C 0.07974 0.82717 0.57299 0.0
C1390 C 1.0078 0.78232 0.56855 0.0
C1391 C 1.01603 0.75391 0.5727 0.0
C1392 C 1.05691 0.80198 0.57346 0.0
C1393 C 1.04593 0.75158 0.57639 0.0
C1394 C 0.10943 0.82326 0.57215 0.0
C1395 C 0.09078 0.8776 0.57107 0.0
N1396 N 1.06439 0.77436 0.5767 0.0
N1397 N 0.07222 0.85492 0.57236 0.0
H1398 H 0.98408 0.33118 0.82335 0.0
H1399 H 0.15539 0.30107 0.82229 0.0
H1400 H 1.04421 0.39672 0.81125 0.0
H1401 H 0.09528 0.23526 0.8122 0.0
H1402 H 0.11658 0.33504 0.82491 0.0
H1403 H 1.02288 0.29715 0.82599 0.0
C1404 C 1.00534 0.33905 0.82245 0.0
C1405 C 1.00935 0.36846 0.81914 0.0
C1406 C 0.11142 0.31318 0.82293 0.0
C1407 C 1.05674 0.32697 0.8208 0.0
C1408 C 0.13414 0.29314 0.82186 0.0
C1409 C 0.13017 0.26368 0.81913 0.0
C1410 C 0.08272 0.3051 0.8208 0.0
C1411 C 0.1009 0.25675 0.81653 0.0
C1412 C 1.02804 0.31897 0.82353 0.0
C1413 C 1.0386 0.37528 0.81597 0.0
N1414 N 0.07926 0.27656 0.81774 0.0
N1415 N 1.06021 0.35545 0.8172 0.0
H1416 H 0.58455 0.89982 0.95465 0.0
H1417 H 0.55668 0.72945 0.9592 0.0
H1418 H 0.65129 0.84161 0.9689 0.0
H1419 H 0.48951 0.78804 0.96679 0.0
H1420 H 0.59042 0.76857 0.95614 0.0
H1421 H 0.55084 0.86062 0.95233 0.0
C1422 C 0.59274 0.87889 0.95611 0.0
C1423 C 0.62234 0.87547 0.95996 0.0
C1424 C 0.56831 0.77328 0.95765 0.0
C1425 C 0.58134 0.82774 0.95867 0.0
C1426 C 0.54844 0.75041 0.95898 0.0
C1427 C 0.51872 0.75391 0.96117 0.0
C1428 C 0.55972 0.80161 0.95895 0.0
C1429 C 0.51128 0.78282 0.96291 0.0
C1430 C 0.57287 0.85598 0.95521 0.0
C1431 C 0.62966 0.84667 0.96381 0.0
N1432 N 0.53093 0.80462 0.96147 0.0
N1433 N 0.61002 0.82484 0.96275 0.0
H1434 H 0.48299 0.32912 0.70514 0.0
H1435 H 0.65396 0.29732 0.71172 0.0
H1436 H 0.5434 0.39368 0.72202 0.0
H1437 H 0.59293 0.23182 0.7139 0.0
H1438 H 0.61557 0.3318 0.70929 0.0
H1439 H 0.52156 0.29484 0.70208 0.0
C1440 C 0.50429 0.33675 0.70705 0.0
C1441 C 0.50849 0.36598 0.71188 0.0
C1442 C 0.61015 0.30994 0.70949 0.0
C1443 C 0.55554 0.32417 0.70973 0.0
C1444 C 0.63265 0.28963 0.71043 0.0
C1445 C 0.62829 0.26013 0.71094 0.0
C1446 C 0.58133 0.30208 0.70957 0.0
C1447 C 0.59889 0.25342 0.71144 0.0
C1448 C 0.52685 0.31653 0.70572 0.0
C1449 C 0.53772 0.37244 0.71624 0.0
N1450 N 0.5775 0.27349 0.71046 0.0
N1451 N 0.55918 0.35247 0.71477 0.0
H1452 H 1.02593 0.25174 0.41415 0.0
H1453 H 0.1259 0.3613 0.51765 0.0
H1454 H 1.01939 0.26461 0.51834 0.0
H1455 H 0.10944 0.3782 0.41578 0.0
H1456 H 0.09227 0.32255 0.51569 0.0
H1457 H 1.05835 0.29221 0.41079 0.0
C1458 C 1.02981 0.26345 0.43628 0.0
C1459 C 1.01696 0.25431 0.46632 0.0
C1460 C 0.09623 0.33403 0.4932 0.0
C1461 C 1.05868 0.30154 0.46324 0.0
C1462 C 0.11618 0.35667 0.49416 0.0
C1463 C 0.12326 0.37368 0.46641 0.0
C1464 C 0.08162 0.32651 0.46397 0.0
C1465 C 0.10758 0.36559 0.43761 0.0
C1466 C 1.04954 0.28672 0.43451 0.0
C1467 C 1.02696 0.27013 0.49407 0.0
N1468 N 0.08842 0.34319 0.43718 0.0
N1469 N 1.04644 0.29183 0.49184 0.0
H1470 H 0.13234 0.77014 0.1614 0.0
H1471 H 1.02343 0.86935 0.26503 0.0
H1472 H 0.11492 0.75821 0.26393 0.0
H1473 H 1.00435 0.85275 0.16378 0.0
H1474 H 1.06148 0.83507 0.26261 0.0
H1475 H 0.09252 0.80329 0.15819 0.0
C1476 C 0.11973 0.77301 0.18304 0.0
C1477 C 0.1274 0.75842 0.21247 0.0
C1478 C 1.04973 0.83919 0.24031 0.0
C1479 C 0.08103 0.80104 0.20996 0.0
C1480 C 1.02749 0.85952 0.24152 0.0
C1481 C 1.01012 0.86684 0.21405 0.0
C1482 C 1.05653 0.82443 0.21103 0.0
C1483 C 1.01741 0.85087 0.18528 0.0
C1484 C 0.09685 0.79315 0.18146 0.0
C1485 C 0.11057 0.76719 0.24 0.0
N1486 N 1.0395 0.83142 0.18454 0.0
N1487 N 0.08936 0.78715 0.23808 0.0
H1488 H 0.28987 0.21359 0.85515 0.0
H1489 H 0.35057 0.17373 0.04031 0.0
H1490 H 0.23835 0.17531 0.92926 0.0
H1491 H 0.40077 0.21505 0.9675 0.0
H1492 H 0.31136 0.17165 1.00031 0.0
H1493 H 0.32992 0.2126 0.8939 0.0
C1494 C 0.28653 0.20487 0.87944 0.0
C1495 C 0.2593 0.19458 0.88764 0.0
C1496 C 0.331 0.18081 0.99251 0.0
C1497 C 0.3076 0.19322 0.93445 0.0
C1498 C 0.35407 0.18163 0.01565 0.0
C1499 C 0.38075 0.19347 1.00808 0.0
C1500 C 0.33312 0.19246 0.96033 0.0
C1501 C 0.3818 0.20466 0.97535 0.0
C1502 C 0.30998 0.20431 0.90203 0.0
C1503 C 0.25805 0.18368 0.92052 0.0
N1504 N 0.35911 0.20378 0.95349 0.0
N1505 N 0.28112 0.18334 0.94188 0.0
H1506 H 0.71385 0.48746 0.17542 0.0
H1507 H 0.66949 0.65031 0.21505 0.0
H1508 H 0.66856 0.5376 0.10594 0.0
H1509 H 0.70904 0.59816 0.28703 0.0
H1510 H 0.67149 0.61161 0.17485 0.0
H1511 H 0.71428 0.52705 0.21434 0.0
C1512 C 0.70377 0.50652 0.16787 0.0
C1513 C 0.69091 0.50769 0.13607 0.0
C1514 C 0.68026 0.60844 0.19918 0.0
C1515 C 0.69175 0.55578 0.18281 0.0
C1516 C 0.67941 0.63114 0.22259 0.0
C1517 C 0.6902 0.62921 0.25537 0.0
C1518 C 0.69154 0.58196 0.20752 0.0
C1519 C 0.7014 0.60224 0.26238 0.0
C1520 C 0.70416 0.5297 0.19065 0.0
C1521 C 0.67884 0.53439 0.12942 0.0
N1522 N 0.70182 0.58054 0.23936 0.0
N1523 N 0.67959 0.55652 0.15187 0.0
H1524 H 0.40107 0.95382 0.42932 0.0
H1525 H 0.23391 0.91954 0.4667 0.0
H1526 H 0.34638 0.91964 0.35542 0.0
H1527 H 0.28895 0.9543 0.53959 0.0
H1528 H 0.27271 0.92104 0.42615 0.0
H1529 H 0.36114 0.95517 0.46824 0.0
C1530 C 0.38086 0.9465 0.42077 0.0
C1531 C 0.37848 0.93653 0.38769 0.0
C1532 C 0.27649 0.92893 0.45076 0.0
C1533 C 0.33018 0.93815 0.43456 0.0
C1534 C 0.25371 0.92848 0.47435 0.0
C1535 C 0.25643 0.9382 0.50751 0.0
C1536 C 0.30384 0.93852 0.45933 0.0
C1537 C 0.28426 0.9477 0.51467 0.0
C1538 C 0.35755 0.94733 0.44357 0.0
C1539 C 0.35054 0.92758 0.37991 0.0
N1540 N 0.306 0.94766 0.49154 0.0
N1541 N 0.32835 0.92859 0.40247 0.0
H1542 H 0.9287 0.64815 0.6807 0.0
H1543 H 0.97019 0.48389 0.71723 0.0
H1544 H 0.97273 0.59783 0.61031 0.0
H1545 H 0.93049 0.5353 0.78979 0.0
H1546 H 0.96897 0.52325 0.6779 0.0
H1547 H 0.92743 0.60796 0.71892 0.0
C1548 C 0.93827 0.62889 0.67282 0.0
C1549 C 0.95103 0.62781 0.64099 0.0
C1550 C 0.95998 0.52612 0.70216 0.0
C1551 C 0.94932 0.57917 0.68684 0.0
C1552 C 0.96033 0.50302 0.72503 0.0
C1553 C 0.94925 0.50454 0.75768 0.0
C1554 C 0.94895 0.5526 0.71096 0.0
C1555 C 0.9383 0.53153 0.76515 0.0
C1556 C 0.93746 0.60541 0.69518 0.0
C1557 C 0.96266 0.60099 0.63391 0.0
N1558 N 0.93838 0.55362 0.74266 0.0
N1559 N 0.96149 0.5786 0.65593 0.0
H1560 H 0.78784 0.95769 0.98957 0.0
H1561 H 0.84919 0.91396 0.17322 0.0
H1562 H 0.7387 0.91354 0.06105 0.0
H1563 H 0.90021 0.95546 0.10107 0.0
H1564 H 0.80932 0.91525 0.1343 0.0
H1565 H 0.82715 0.95946 0.02953 0.0
C1566 C 0.78458 0.94909 1.01395 0.0
C1567 C 0.75816 0.93656 0.02122 0.0
C1568 C 0.8291 0.92419 0.12663 0.0
C1569 C 0.80589 0.93723 0.06882 0.0
C1570 C 0.85246 0.92345 0.14932 0.0
C1571 C 0.87949 0.93454 0.14172 0.0
C1572 C 0.83137 0.93627 0.09471 0.0
C1573 C 0.88066 0.94642 0.10933 0.0
C1574 C 0.80771 0.94975 0.03705 0.0
C1575 C 0.75745 0.92448 0.0535 0.0
N1576 N 0.85766 0.94692 0.08784 0.0
N1577 N 0.78015 0.92524 0.0753 0.0
H1578 H 0.47082 0.59344 0.92566 0.0
H1579 H 0.42686 0.53084 0.74257 0.0
H1580 H 0.42645 0.64225 0.85402 0.0
H1581 H 0.47031 0.48243 0.81511 0.0
H1582 H 0.42471 0.56999 0.78228 0.0
H1583 H 0.46972 0.55353 0.88716 0.0
C1584 C 0.46073 0.59622 0.90197 0.0
C1585 C 0.44882 0.62268 0.89438 0.0
C1586 C 0.43437 0.55075 0.79008 0.0
C1587 C 0.44743 0.57456 0.8478 0.0
C1588 C 0.43524 0.52772 0.7671 0.0
C1589 C 0.44772 0.50156 0.77473 0.0
C1590 C 0.44665 0.54913 0.82206 0.0
C1591 C 0.45951 0.50102 0.80724 0.0
C1592 C 0.46013 0.57285 0.87951 0.0
C1593 C 0.43624 0.62323 0.86224 0.0
N1594 N 0.4586 0.52365 0.82888 0.0
N1595 N 0.43596 0.60029 0.84096 0.0
H1596 H 0.73772 0.17681 0.60141 0.0
H1597 H 0.90589 0.20611 0.56681 0.0
H1598 H 0.79247 0.2078 0.67723 0.0
H1599 H 0.84988 0.17464 0.49283 0.0
H1600 H 0.86694 0.20513 0.60722 0.0
H1601 H 0.77795 0.17487 0.56321 0.0
C1602 C 0.75803 0.18332 0.61052 0.0
C1603 C 0.76033 0.19259 0.64387 0.0
C1604 C 0.86299 0.19783 0.58239 0.0
C1605 C 0.80898 0.19023 0.59787 0.0
C1606 C 0.88582 0.19794 0.5589 0.0
C1607 C 0.8828 0.18898 0.5255 0.0
C1608 C 0.83539 0.18938 0.5734 0.0
C1609 C 0.85474 0.18054 0.51796 0.0
C1610 C 0.78151 0.18213 0.58814 0.0
C1611 C 0.7884 0.20047 0.65245 0.0
N1612 N 0.83298 0.18091 0.54098 0.0
N1613 N 0.81082 0.19914 0.63023 0.0
H1614 H 0.1651 0.53412 0.42171 0.0
H1615 H 0.21734 0.59715 0.24196 0.0
H1616 H 0.21666 0.48705 0.35538 0.0
H1617 H 0.16311 0.64195 0.30728 0.0
H1618 H 0.21954 0.55882 0.28282 0.0
H1619 H 0.16578 0.57325 0.38215 0.0
C1620 C 0.1767 0.53156 0.39898 0.0
C1621 C 0.1907 0.50582 0.39317 0.0
C1622 C 0.20745 0.57714 0.2888 0.0
C1623 C 0.19169 0.55304 0.34538 0.0
C1624 C 0.2065 0.59972 0.2652 0.0
C1625 C 0.19101 0.62466 0.27053 0.0
C1626 C 0.19231 0.57801 0.31906 0.0
C1627 C 0.17632 0.62444 0.30133 0.0
C1628 C 0.17704 0.55447 0.3759 0.0
C1629 C 0.20513 0.50549 0.36216 0.0
N1630 N 0.17745 0.6023 0.32362 0.0
N1631 N 0.2052 0.52802 0.34028 0.0
H1632 H 0.73569 0.67755 0.42872 0.0
H1633 H 0.90198 0.7152 0.4664 0.0
H1634 H 0.78975 0.71343 0.35542 0.0
H1635 H 0.84839 0.67758 0.53869 0.0
H1636 H 0.86304 0.71328 0.42603 0.0
H1637 H 0.77568 0.67653 0.4677 0.0
C1638 C 0.75576 0.6853 0.42032 0.0
C1639 C 0.758 0.69564 0.38741 0.0
C1640 C 0.85961 0.70491 0.45048 0.0
C1641 C 0.80627 0.69446 0.43427 0.0
C1642 C 0.88245 0.70565 0.47395 0.0
C1643 C 0.88014 0.69534 0.50685 0.0
C1644 C 0.83262 0.6944 0.45897 0.0
C1645 C 0.8527 0.68484 0.51396 0.0
C1646 C 0.7791 0.68467 0.44314 0.0
C1647 C 0.78575 0.70516 0.37979 0.0
N1648 N 0.83085 0.68464 0.49094 0.0
N1649 N 0.80794 0.70436 0.40235 0.0
H1650 H 0.21304 0.09918 0.78819 0.0
H1651 H 0.16674 1.03543 0.60628 0.0
H1652 H 0.16597 0.14608 0.7174 0.0
H1653 H 0.21367 0.98764 0.6766 0.0
H1654 H 0.16749 0.07527 0.64491 0.0
H1655 H 0.21536 1.06008 0.74836 0.0
C1656 C 0.20386 0.10201 0.764 0.0
C1657 C 0.19034 0.12777 0.75688 0.0
C1658 C 0.17772 1.05619 0.65224 0.0
C1659 C 0.19166 0.0802 0.70944 0.0
C1660 C 0.17733 1.03285 0.6297 0.0
C1661 C 0.19005 1.00668 0.63687 0.0
C1662 C 0.19105 1.05477 0.68363 0.0
C1663 C 0.20322 1.00641 0.6687 0.0
C1664 C 0.20485 0.07899 0.74097 0.0
C1665 C 0.17761 0.12787 0.72485 0.0
N1666 N 0.20331 1.02932 0.69006 0.0
N1667 N 0.17867 0.10527 0.70314 0.0
H1668 H 0.78763 0.45901 0.03954 0.0
H1669 H 0.8489 0.4187 0.85468 0.0
H1670 H 0.73734 0.41847 0.96608 0.0
H1671 H 0.90046 0.45651 0.92923 0.0
H1672 H 0.8087 0.42006 0.89314 0.0
H1673 H 0.8271 0.4607 0.99992 0.0
C1674 C 0.78415 0.45124 0.0148 0.0
C1675 C 0.75733 0.43979 1.00694 0.0
C1676 C 0.82868 0.42817 0.90143 0.0
C1677 C 0.80533 0.44027 0.95961 0.0
C1678 C 0.85223 0.42739 0.87901 0.0
C1679 C 0.87954 0.43743 0.8874 0.0
C1680 C 0.831 0.43924 0.9339 0.0
C1681 C 0.88072 0.44831 0.92032 0.0
C1682 C 0.80738 0.45182 0.99187 0.0
C1683 C 0.75639 0.42864 0.97416 0.0
N1684 N 0.85755 0.44887 0.94151 0.0
N1685 N 0.77922 0.42928 0.95251 0.0
H1686 H 0.47261 0.9842 0.21805 0.0
H1687 H 0.4225 0.14487 0.17597 0.0
H1688 H 0.42557 1.03317 0.28678 0.0
H1689 H 0.47655 0.09836 0.11189 0.0
H1690 H 0.42131 0.10489 0.21434 0.0
H1691 H 0.47161 1.02339 0.17859 0.0
C1692 C 0.46125 1.00274 0.22494 0.0
C1693 C 0.44812 1.0036 0.25655 0.0
C1694 C 0.43356 0.10315 0.19199 0.0
C1695 C 0.44784 1.05149 0.20964 0.0
C1696 C 0.43441 0.12657 0.16957 0.0
C1697 C 0.44999 0.12654 0.13949 0.0
C1698 C 0.44816 0.07796 0.18541 0.0
C1699 C 0.46423 0.10072 0.1341 0.0
C1700 C 0.46097 1.02574 0.20198 0.0
C1701 C 0.43511 1.02987 0.26291 0.0
N1702 N 0.46292 0.07832 0.15611 0.0
N1703 N 0.43524 1.05191 0.24033 0.0
H1704 H 0.2344 0.42208 0.56578 0.0
H1705 H 0.4024 0.45304 0.60182 0.0
H1706 H 0.29004 0.45381 0.49172 0.0
H1707 H 0.34749 0.41964 0.67588 0.0
H1708 H 0.36233 0.45498 0.56304 0.0
H1709 H 0.27344 0.42322 0.60608 0.0
C1710 C 0.2544 0.43032 0.55782 0.0
C1711 C 0.25726 0.43928 0.52441 0.0
C1712 C 0.35872 0.44719 0.58773 0.0
C1713 C 0.30486 0.43916 0.57227 0.0
C1714 C 0.38211 0.44603 0.61043 0.0
C1715 C 0.37968 0.43606 0.64348 0.0
C1716 C 0.33127 0.43842 0.59687 0.0
C1717 C 0.35166 0.42752 0.65138 0.0
C1718 C 0.27731 0.43054 0.58126 0.0
C1719 C 0.28529 0.44787 0.51685 0.0
N1720 N 0.3294 0.4289 0.62894 0.0
N1721 N 0.30713 0.44766 0.53985 0.0
H1722 H 0.97342 0.09295 0.42452 0.0
H1723 H 0.92351 1.02871 0.24425 0.0
H1724 H 0.92299 0.13979 0.35671 0.0
H1725 H 0.97317 0.9827 0.31338 0.0
H1726 H 0.92127 0.06768 0.2843 0.0
H1727 H 0.9724 1.05327 0.38572 0.0
C1728 C 0.96202 0.09536 0.40161 0.0
C1729 C 0.94845 0.12124 0.39516 0.0
C1730 C 0.93235 1.04898 0.29128 0.0
C1731 C 0.94711 0.07334 0.34821 0.0
C1732 C 0.93328 1.02602 0.26814 0.0
C1733 C 0.94754 1.00058 0.27476 0.0
C1734 C 0.94634 1.04799 0.32235 0.0
C1735 C 0.96099 1.00067 0.30637 0.0
C1736 C 0.96147 0.07212 0.37897 0.0
C1737 C 0.93423 0.12131 0.36397 0.0
N1738 N 0.95998 1.02319 0.32815 0.0
N1739 N 0.93402 0.09849 0.34249 0.0
H1740 H 0.29214 0.71247 0.17544 0.0
H1741 H 0.35287 0.6708 0.99089 0.0
H1742 H 0.24104 0.67382 0.10104 0.0
H1743 H 0.40333 0.71294 0.06294 0.0
H1744 H 0.3138 0.66924 0.03099 0.0
H1745 H 0.33244 0.7112 0.13695 0.0
C1746 C 0.28895 0.70363 0.15117 0.0
C1747 C 0.26179 0.69332 0.14271 0.0
C1748 C 0.33348 0.67845 0.03862 0.0
C1749 C 0.31024 0.69158 0.09637 0.0
C1750 C 0.35647 0.67895 0.01543 0.0
C1751 C 0.38316 0.69083 0.02279 0.0
C1752 C 0.33572 0.69049 0.07059 0.0
C1753 C 0.38433 0.70245 0.05531 0.0
C1754 C 0.31252 0.7029 0.12874 0.0
C1755 C 0.26069 0.68224 0.10992 0.0
N1756 N 0.36172 0.70187 0.07723 0.0
N1757 N 0.28382 0.68171 0.08879 0.0
H1758 H 0.66958 0.1459 0.80943 0.0
H1759 H 0.70792 0.98137 0.84827 0.0
H1760 H 0.70752 0.09241 0.73764 0.0
H1761 H 0.67186 1.03509 0.9214 0.0
H1762 H 0.70867 1.02084 0.80905 0.0
H1763 H 0.67148 0.10753 0.85011 0.0
C1764 C 0.6792 0.12653 0.80204 0.0
C1765 C 0.68967 0.12409 0.7692 0.0
C1766 C 0.70055 1.0243 0.83362 0.0
C1767 C 0.69057 0.07723 0.81747 0.0
C1768 C 0.70007 1.00126 0.85658 0.0
C1769 C 0.68977 1.00356 0.88952 0.0
C1770 C 0.69063 1.05123 0.84236 0.0
C1771 C 0.68011 1.03106 0.89702 0.0
C1772 C 0.67993 0.10401 0.82571 0.0
C1773 C 0.70018 0.09683 0.76232 0.0
N1774 N 0.68076 1.05297 0.87432 0.0
N1775 N 0.70038 0.07531 0.78552 0.0
H1776 H 0.54245 0.16879 0.9355 0.0
H1777 H 0.60321 0.14449 0.75593 0.0
H1778 H 0.54424 0.08749 0.88979 0.0
H1779 H 0.63173 0.21067 0.81974 0.0
H1780 H 0.57348 0.12714 0.80041 0.0
H1781 H 0.56805 0.18751 0.88916 0.0
C1782 C 0.54831 0.15465 0.916 0.0
C1783 C 0.54113 0.12625 0.91703 0.0
C1784 C 0.58609 0.14559 0.80449 0.0
C1785 C 0.57012 0.14818 0.86311 0.0
C1786 C 0.60279 0.15573 0.77905 0.0
C1787 C 0.61989 0.17912 0.7842 0.0
C1788 C 0.58625 0.15918 0.83505 0.0
C1789 C 0.61891 0.19254 0.81484 0.0
C1790 C 0.56285 0.16557 0.88934 0.0
C1791 C 0.54891 0.10951 0.89015 0.0
N1792 N 0.60234 0.18235 0.8392 0.0
N1793 N 0.56298 0.12075 0.86422 0.0
H1794 H 0.76044 0.80059 0.18158 0.0
H1795 H 0.73634 0.85524 0.02338 0.0
H1796 H 0.69609 0.85871 0.20992 0.0
H1797 H 0.65648 0.87996 0.06317 0.0
H1798 H 0.74837 0.83462 0.07667 0.0
H1799 H 0.74919 0.80903 0.12364 0.0
C1800 C 0.74411 0.81533 0.17555 0.0
C1801 C 0.72936 0.82922 0.20058 0.0
C1802 C 0.72784 0.84368 0.07353 0.0
C1803 C 0.71662 0.83928 0.13439 0.0
C1804 C 0.72093 0.85531 0.04298 0.0
C1805 C 0.69555 0.86951 0.03918 0.0
C1806 C 0.70903 0.84629 0.10008 0.0
C1807 C 0.67647 0.86955 0.0654 0.0
C1808 C 0.73783 0.82028 0.14244 0.0
C1809 C 0.70837 0.848 0.19145 0.0
N1810 N 0.68379 0.85858 0.0949 0.0
N1811 N 0.70259 0.85239 0.15912 0.0
H1812 H 1.02932 0.9779 0.27949 0.0
H1813 H 1.02888 0.92966 0.46653 0.0
H1814 H 1.00417 0.89636 0.31249 0.0
H1815 H 0.07504 1.00205 0.43464 0.0
H1816 H 1.02012 0.91764 0.40905 0.0
H1817 H 1.04927 0.98696 0.33443 0.0
C1818 C 1.02896 0.96158 0.2979 0.0
C1819 C 1.01482 0.93652 0.2918 0.0
C1820 C 1.03227 0.93613 0.41451 0.0
C1821 C 1.03665 0.94686 0.35436 0.0
C1822 C 1.03691 0.94317 0.44735 0.0
C1823 C 1.05239 0.96701 0.45527 0.0
C1824 C 1.04296 0.95319 0.3893 0.0
C1825 C 1.06292 0.98349 0.42945 0.0
C1826 C 1.03998 0.96685 0.32931 0.0
C1827 C 1.01452 0.91613 0.31647 0.0
N1828 N 1.05783 0.9764 0.39752 0.0
N1829 N 1.02481 0.92191 0.34681 0.0
H1830 H 0.98714 0.24721 0.56393 0.0
H1831 H 0.87975 0.32294 0.68487 0.0
H1832 H 0.90345 0.26855 0.53316 0.0
H1833 H 0.95294 0.27752 0.71599 0.0
H1834 H 0.89089 0.31164 0.62722 0.0
H1835 H 0.97845 0.26874 0.61721 0.0
C1836 C 0.9671 0.25708 0.56821 0.0
C1837 C 0.94588 0.25599 0.54437 0.0
C1838 C 0.90445 0.3042 0.64673 0.0
C1839 C 0.93549 0.28006 0.60559 0.0
C1840 C 0.89812 0.31058 0.67951 0.0
C1841 C 0.91532 0.30084 0.70514 0.0
C1842 C 0.92836 0.2884 0.63966 0.0
C1843 C 0.93888 0.28499 0.69701 0.0
C1844 C 0.96206 0.26915 0.59872 0.0
C1845 C 0.92035 0.26917 0.55098 0.0
N1846 N 0.94472 0.27932 0.66499 0.0
N1847 N 0.91564 0.28036 0.58135 0.0
H1848 H 0.58427 1.00436 0.09657 0.0
H1849 H 0.52936 0.98169 0.25495 0.0
H1850 H 0.52824 0.93758 0.06945 0.0
H1851 H 0.50515 0.90147 0.21677 0.0
H1852 H 0.55061 0.99286 0.2017 0.0
H1853 H 0.57585 0.99396 0.1547 0.0
C1854 C 0.57001 0.98764 0.1029 0.0
C1855 C 0.55665 0.972 0.07813 0.0
C1856 C 0.54156 0.97244 0.20518 0.0
C1857 C 0.54656 0.96024 0.14459 0.0
C1858 C 0.52957 0.96603 0.23573 0.0
C1859 C 0.51529 0.94079 0.23993 0.0
C1860 C 0.53927 0.95326 0.17904 0.0
C1861 C 0.51561 0.92136 0.21421 0.0
C1862 C 0.56505 0.98184 0.13613 0.0
C1863 C 0.53849 0.95055 0.08767 0.0
N1864 N 0.52696 0.92818 0.18469 0.0
N1865 N 0.53404 0.94529 0.12011 0.0
H1866 H 0.45625 0.27814 0.81606 0.0
H1867 H 0.40205 0.27176 1.00062 0.0
H1868 H 0.38076 0.32008 0.84636 0.0
H1869 H 0.48656 0.25262 0.9713 0.0
H1870 H 0.39376 0.29227 0.94591 0.0
H1871 H 0.46715 0.26884 0.87378 0.0
C1872 C 0.44185 0.28515 0.83494 0.0
C1873 C 0.41744 0.29958 0.82651 0.0
C1874 C 0.41432 0.28418 0.95177 0.0
C1875 C 0.42993 0.28947 0.8927 0.0
C1876 C 0.41911 0.27284 0.98306 0.0
C1877 C 0.44488 0.26029 0.99002 0.0
C1878 C 0.43548 0.28268 0.92769 0.0
C1879 C 0.46625 0.26172 0.96646 0.0
C1880 C 0.44824 0.2802 0.86791 0.0
C1881 C 0.39978 0.3088 0.85195 0.0
N1882 N 0.46095 0.27225 0.93614 0.0
N1883 N 0.40624 0.30338 0.88398 0.0
H1884 H 0.11037 0.15 0.75016 0.0
H1885 H 0.10503 0.20524 0.56576 0.0
H1886 H 0.13097 0.2338 0.7211 0.0
H1887 H 1.06803 0.12696 0.59443 0.0
H1888 H 0.11264 0.21634 0.62375 0.0
H1889 H 0.09022 0.14191 0.69517 0.0
C1890 C 0.10964 0.16697 0.73261 0.0
C1891 C 0.12258 0.19244 0.73973 0.0
C1892 C 0.10276 0.19673 0.61748 0.0
C1893 C 0.10056 0.18327 0.67706 0.0
C1894 C 0.09881 0.19026 0.58434 0.0
C1895 C 0.0863 0.165 0.57537 0.0
C1896 C 0.0944 0.17769 0.64189 0.0
C1897 C 0.0779 0.14662 0.60043 0.0
C1898 C 0.09852 0.16228 0.70114 0.0
C1899 C 0.12153 0.21371 0.71619 0.0
N1900 N 0.08232 0.15322 0.63263 0.0
N1901 N 0.11118 0.20851 0.68571 0.0
H1902 H 0.23608 0.85992 0.49916 0.0
H1903 H 0.17612 0.84754 0.31728 0.0
H1904 H 0.15037 0.87685 0.47256 0.0
H1905 H 0.25369 0.80843 0.34567 0.0
H1906 H 0.16677 0.85791 0.37511 0.0
H1907 H 0.24312 0.83828 0.44479 0.0
C1908 C 0.21854 0.85815 0.48231 0.0
C1909 C 0.19272 0.87029 0.48996 0.0
C1910 C 0.1858 0.84692 0.36881 0.0
C1911 C 0.20066 0.84656 0.42801 0.0
C1912 C 0.19127 0.84132 0.33576 0.0
C1913 C 0.21582 0.82743 0.32677 0.0
C1914 C 0.2052 0.83886 0.39308 0.0
C1915 C 0.23452 0.81926 0.35172 0.0
C1916 C 0.2226 0.84614 0.45122 0.0
C1917 C 0.17071 0.86798 0.46726 0.0
N1918 N 0.22896 0.82534 0.38381 0.0
N1919 N 0.17529 0.85677 0.43712 0.0
H1920 H 1.04005 0.67112 0.43272 0.0
H1921 H 0.1028 0.6462 0.25428 0.0
H1922 H 1.04247 0.58986 0.38699 0.0
H1923 H 0.13251 0.71161 0.31842 0.0
H1924 H 0.07219 0.62969 0.29821 0.0
H1925 H 1.06656 0.68983 0.38686 0.0
C1926 C 1.04623 0.65701 0.4133 0.0
C1927 C 1.03902 0.62861 0.41416 0.0
C1928 C 0.08523 0.6478 0.30251 0.0
C1929 C 0.0689 0.6505 0.36088 0.0
C1930 C 0.10246 0.65749 0.27733 0.0
C1931 C 0.12019 0.68037 0.28271 0.0
C1932 C 0.08548 0.66133 0.33309 0.0
C1933 C 0.11924 0.69383 0.31335 0.0
C1934 C 1.06126 0.66791 0.38695 0.0
C1935 C 1.04716 0.61188 0.38744 0.0
N1936 N 0.10214 0.68408 0.33749 0.0
N1937 N 1.06165 0.6231 0.36184 0.0
H1938 H 0.26166 0.30605 0.68432 0.0
H1939 H 0.15366 0.38265 0.56507 0.0
H1940 H 0.19234 0.35647 0.71675 0.0
H1941 H 0.23626 0.35961 0.53214 0.0
H1942 H 0.1635 0.36219 0.61866 0.0
H1943 H 0.2495 0.31679 0.62677 0.0
C1944 C 0.24396 0.31944 0.67926 0.0
C1945 C 0.2281 0.33067 0.7052 0.0
C1946 C 0.17938 0.36119 0.59963 0.0
C1947 C 0.21386 0.34242 0.63992 0.0
C1948 C 0.17369 0.37264 0.56896 0.0
C1949 C 0.19431 0.37299 0.54441 0.0
C1950 C 0.20597 0.35009 0.6059 0.0
C1951 C 0.21982 0.35958 0.55052 0.0
C1952 C 0.23705 0.32548 0.64655 0.0
C1953 C 0.20537 0.3478 0.69749 0.0
N1954 N 0.22517 0.34897 0.58103 0.0
N1955 N 0.19887 0.35306 0.66554 0.0
H1956 H 0.50877 0.39503 0.80937 0.0
H1957 H 0.52277 0.43766 0.96859 0.0
H1958 H 0.5258 0.48041 0.78388 0.0
H1959 H 0.57897 0.50135 0.93292 0.0
H1960 H 0.51287 0.4243 0.91183 0.0
H1961 H 0.52794 0.40328 0.86426 0.0
C1962 C 0.51719 0.41539 0.81524 0.0
C1963 C 0.51542 0.43721 0.79249 0.0
C1964 C 0.52783 0.44082 0.91633 0.0
C1965 C 0.5358 0.44727 0.85562 0.0
C1966 C 0.53299 0.44886 0.94876 0.0
C1967 C 0.55172 0.47061 0.95545 0.0
C1968 C 0.54158 0.45456 0.89034 0.0
C1969 C 0.56459 0.48425 0.92877 0.0
C1970 C 0.52761 0.42024 0.84672 0.0
C1971 C 0.52686 0.46311 0.80092 0.0
N1972 N 0.55915 0.47611 0.89729 0.0
N1973 N 0.53616 0.46764 0.83223 0.0
H1974 H 0.40329 0.7709 0.02932 0.0
H1975 H 0.4528 0.77756 0.21569 0.0
H1976 H 0.48665 0.75035 0.06205 0.0
H1977 H 0.38059 0.82325 0.18205 0.0
H1978 H 0.46453 0.76693 0.15855 0.0
H1979 H 0.39409 0.79209 0.0835 0.0
C1980 C 0.41991 0.77173 0.04751 0.0
C1981 C 0.4456 0.75861 0.04161 0.0
C1982 C 0.44616 0.7794 0.16356 0.0
C1983 C 0.43513 0.78187 0.10331 0.0
C1984 C 0.4393 0.78515 0.1962 0.0
C1985 C 0.41557 0.80102 0.20352 0.0
C1986 C 0.429 0.78933 0.13797 0.0
C1987 C 0.39907 0.81088 0.17731 0.0
C1988 C 0.41459 0.78349 0.07848 0.0
C1989 C 0.46638 0.75983 0.06598 0.0
N1990 N 0.40595 0.80465 0.14561 0.0
N1991 N 0.46055 0.7708 0.09594 0.0
H1992 H 0.07435 0.50605 0.59416 0.0
H1993 H 1.00943 0.39803 0.72281 0.0
H1994 H 1.03339 0.42899 0.5683 0.0
H1995 H 1.02748 0.48307 0.74902 0.0
H1996 H 1.02966 0.40601 0.66849 0.0
H1997 H 1.06643 0.49561 0.65275 0.0
C1998 C 1.06363 0.48699 0.60087 0.0
C1999 C 1.05413 0.4685 0.57645 0.0
C2000 C 1.02973 0.42285 0.68624 0.0
C2001 C 1.04561 0.45624 0.64302 0.0
C2002 C 1.01848 0.4182 0.71733 0.0
C2003 C 1.01666 0.44003 0.74009 0.0
C2004 C 1.03903 0.44959 0.67777 0.0
C2005 C 1.02869 0.46574 0.73204 0.0
C2006 C 1.05922 0.48104 0.63419 0.0
C2007 C 1.04051 0.44406 0.58632 0.0
N2008 N 1.03897 0.47004 0.70112 0.0
N2009 N 1.0367 0.43863 0.61883 0.0
H2010 H 0.9577 0.77924 0.3177 0.0
H2011 H 0.9023 0.77352 0.50177 0.0
H2012 H 0.88153 0.82048 0.34699 0.0
H2013 H 0.98699 0.75424 0.47333 0.0
H2014 H 0.8944 0.7939 0.44694 0.0
H2015 H 0.96848 0.77064 0.37561 0.0
C2016 C 0.94313 0.78627 0.3364 0.0
C2017 C 0.91854 0.80025 0.32762 0.0
C2018 C 0.91493 0.78586 0.45303 0.0
C2019 C 0.93088 0.79091 0.39404 0.0
C2020 C 0.91951 0.7746 0.4844 0.0
C2021 C 0.94524 0.7621 0.49169 0.0
C2022 C 0.93625 0.78431 0.42914 0.0
C2023 C 0.96676 0.76344 0.46831 0.0
C2024 C 0.94944 0.7817 0.36948 0.0
C2025 C 0.90068 0.80952 0.35283 0.0
N2026 N 0.96166 0.77389 0.43788 0.0
N2027 N 0.90706 0.80446 0.38497 0.0
H2028 H 0.61574 0.6952 0.06201 0.0
H2029 H 0.6283 0.73583 0.22212 0.0
H2030 H 0.56169 0.62915 0.0962 0.0
H2031 H 0.61335 0.64972 0.24584 0.0
H2032 H 0.60945 0.72789 0.16701 0.0
H2033 H 0.62503 0.70811 0.11905 0.0
C2034 C 0.60588 0.68338 0.08158 0.0
C2035 C 0.58793 0.6611 0.07438 0.0
C2036 C 0.61016 0.71069 0.1842 0.0
C2037 C 0.59729 0.67661 0.13984 0.0
C2038 C 0.62035 0.71536 0.21583 0.0
C2039 C 0.6226 0.69328 0.23814 0.0
C2040 C 0.60272 0.68359 0.17472 0.0
C2041 C 0.61186 0.66723 0.22915 0.0
C2042 C 0.61065 0.69115 0.11417 0.0
C2043 C 0.57546 0.64666 0.10074 0.0
N2044 N 0.6028 0.6629 0.19771 0.0
N2045 N 0.58051 0.65457 0.13239 0.0
H2046 H 0.64898 0.37637 0.97411 0.0
H2047 H 0.68543 0.35671 0.81356 0.0
H2048 H 0.73636 0.36277 0.99523 0.0
H2049 H 0.75123 0.30288 0.84861 0.0
H2050 H 0.67419 0.36856 0.8704 0.0
H2051 H 0.65521 0.35508 0.92006 0.0
C2052 C 0.66939 0.36832 0.96747 0.0
C2053 C 0.6923 0.37154 0.98873 0.0
C2054 C 0.69071 0.35368 0.8658 0.0
C2055 C 0.69999 0.34864 0.92642 0.0
C2056 C 0.69749 0.34736 0.83328 0.0
C2057 C 0.71927 0.32881 0.82639 0.0
C2058 C 0.70578 0.34131 0.89172 0.0
C2059 C 0.73408 0.3171 0.85295 0.0
C2060 C 0.67306 0.35664 0.93645 0.0
C2061 C 0.71824 0.36056 0.97934 0.0
N2062 N 0.72721 0.32373 0.88453 0.0
N2063 N 0.72157 0.34995 0.94845 0.0
H2064 H 0.32381 0.24155 0.22162 0.0
H2065 H 0.31786 0.38713 0.31629 0.0
H2066 H 0.39567 0.28022 0.2674 0.0
H2067 H 0.24673 0.34943 0.26789 0.0
H2068 H 0.34691 0.34819 0.29849 0.0
H2069 H 0.29475 0.28012 0.24037 0.0
C2070 C 0.33332 0.25803 0.23606 0.0
C2071 C 0.3621 0.25787 0.24294 0.0
C2072 C 0.325 0.34852 0.29154 0.0
C2073 C 0.32925 0.30213 0.26398 0.0
C2074 C 0.30851 0.37077 0.30153 0.0
C2075 C 0.27994 0.37135 0.29353 0.0
C2076 C 0.31275 0.3267 0.27356 0.0
C2077 C 0.26876 0.34984 0.27425 0.0
C2078 C 0.31682 0.28008 0.24658 0.0
C2079 C 0.37348 0.27952 0.26186 0.0
N2080 N 0.28519 0.32822 0.26511 0.0
N2081 N 0.35703 0.30096 0.27151 0.0
H2082 H 0.58105 0.60858 0.43274 0.0
H2083 H 0.55807 0.52185 0.59863 0.0
H2084 H 0.62752 0.53454 0.45698 0.0
H2085 H 0.5118 0.59604 0.57451 0.0
H2086 H 0.58443 0.52668 0.54738 0.0
H2087 H 0.5548 0.60381 0.48407 0.0
C2088 C 0.58548 0.59113 0.44882 0.0
C2089 C 0.60656 0.57199 0.44087 0.0
C2090 C 0.56866 0.54203 0.55333 0.0
C2091 C 0.57687 0.56656 0.49969 0.0
C2092 C 0.55373 0.53935 0.5826 0.0
C2093 C 0.53267 0.55851 0.59056 0.0
C2094 C 0.56246 0.564 0.53182 0.0
C2095 C 0.52798 0.58094 0.56927 0.0
C2096 C 0.5706 0.58849 0.47813 0.0
C2097 C 0.61133 0.54962 0.46222 0.0
N2098 N 0.54263 0.58296 0.54065 0.0
N2099 N 0.59672 0.54763 0.49087 0.0
H2100 H 0.24396 0.84905 0.76635 0.0
H2101 H 0.39695 0.78169 0.76442 0.0
H2102 H 0.31513 0.88631 0.71769 0.0
H2103 H 0.32556 0.74419 0.81236 0.0
H2104 H 0.36705 0.81975 0.74581 0.0
H2105 H 0.2739 0.81102 0.78488 0.0
C2106 C 0.26602 0.84946 0.76013 0.0
C2107 C 0.27715 0.87072 0.74045 0.0
C2108 C 0.35787 0.8031 0.76021 0.0
C2109 C 0.31129 0.82708 0.76072 0.0
C2110 C 0.37485 0.78124 0.77046 0.0
C2111 C 0.36365 0.75991 0.78998 0.0
C2112 C 0.32956 0.80356 0.76962 0.0
C2113 C 0.33501 0.76047 0.7976 0.0
C2114 C 0.28302 0.82761 0.77033 0.0
C2115 C 0.30575 0.87009 0.73259 0.0
N2116 N 0.31895 0.78207 0.78756 0.0
N2117 N 0.32183 0.8485 0.74261 0.0
H2118 H 0.08606 0.60027 0.10183 0.0
H2119 H 1.06058 0.52295 0.92995 0.0
H2120 H 0.13564 0.53095 0.0684 0.0
H2121 H 1.01336 0.59435 0.96192 0.0
H2122 H 0.08837 0.52546 0.98046 0.0
H2123 H 1.0577 0.59694 0.05186 0.0
C2124 C 0.09062 0.58404 0.08409 0.0
C2125 C 0.11322 0.56592 0.08897 0.0
C2126 C 0.0721 0.54073 0.97639 0.0
C2127 C 0.08127 0.56227 0.03162 0.0
C2128 C 1.05639 0.53941 0.94752 0.0
C2129 C 1.03467 0.55844 0.94201 0.0
C2130 C 1.06597 0.56118 0.99994 0.0
C2131 C 1.03007 0.57944 0.96527 0.0
C2132 C 0.07459 0.58227 0.05551 0.0
C2133 C 0.11827 0.54518 0.06551 0.0
N2134 N 1.04547 0.58012 0.99345 0.0
N2135 N 0.10254 0.54407 0.03759 0.0
H2136 H 0.77934 0.82547 0.85216 0.0
H2137 H 0.85829 0.80204 0.68081 0.0
H2138 H 0.85133 0.87316 0.82133 0.0
H2139 H 0.78709 0.75337 0.71208 0.0
H2140 H 0.85548 0.82893 0.73175 0.0
H2141 H 0.78262 0.79786 0.80177 0.0
C2142 C 0.79613 0.82977 0.8349 0.0
C2143 C 0.81504 0.85162 0.84064 0.0
C2144 C 0.84032 0.81253 0.72745 0.0
C2145 C 0.81865 0.82056 0.78283 0.0
C2146 C 0.8418 0.79734 0.69833 0.0
C2147 C 0.82293 0.77547 0.69249 0.0
C2148 C 0.81984 0.80576 0.75092 0.0
C2149 C 0.80188 0.77021 0.71569 0.0
C2150 C 0.79788 0.81417 0.8061 0.0
C2151 C 0.83648 0.85636 0.81779 0.0
N2152 N 0.80102 0.78515 0.74412 0.0
N2153 N 0.83755 0.8411 0.78963 0.0
H2154 H 0.78356 0.38917 0.28074 0.0
H2155 H 0.85088 0.23851 0.25395 0.0
H2156 H 0.76397 0.33558 0.19844 0.0
H2157 H 0.87133 0.29245 0.33564 0.0
H2158 H 0.81901 0.2741 0.2328 0.0
H2159 H 0.815 0.35335 0.30232 0.0
C2160 C 0.78573 0.36975 0.26746 0.0
C2161 C 0.77153 0.36531 0.23771 0.0
C2162 C 0.83051 0.27815 0.25534 0.0
C2163 C 0.8074 0.3246 0.26175 0.0
C2164 C 0.84879 0.25795 0.2672 0.0
C2165 C 0.86341 0.26257 0.29663 0.0
C2166 C 0.82703 0.30303 0.27307 0.0
C2167 C 0.85997 0.28798 0.31311 0.0
C2168 C 0.80377 0.34942 0.27957 0.0
C2169 C 0.77502 0.33991 0.22122 0.0
N2170 N 0.84203 0.30726 0.30115 0.0
N2171 N 0.79272 0.32053 0.2334 0.0
H2172 H 0.12545 1.03351 0.95767 0.0
H2173 H 1.00957 0.09912 0.07748 0.0
H2174 H 0.08273 0.11068 0.93796 0.0
H2175 H 1.05517 1.02392 0.0989 0.0
H2176 H 1.0368 0.10443 0.02662 0.0
H2177 H 0.0987 1.02885 1.0089 0.0
C2178 C 0.11014 1.04922 0.96394 0.0
C2179 C 0.10638 0.07257 0.94381 0.0
C2180 C 1.04096 0.08686 0.04257 0.0
C2181 C 0.07619 0.06778 1.00243 0.0
C2182 C 1.02565 0.08403 0.07171 0.0
C2183 C 1.03003 1.06097 0.09213 0.0
C2184 C 1.06072 0.06645 0.03397 0.0
C2185 C 1.05091 1.04181 0.08348 0.0
C2186 C 0.09511 1.04676 0.9933 0.0
C2187 C 0.08648 0.09253 0.95312 0.0
N2188 N 1.06534 1.04487 0.05493 0.0
N2189 N 0.07222 0.08976 0.98185 0.0
H2190 H 0.58338 0.10463 0.59481 0.0
H2191 H 0.55849 1.02697 0.42307 0.0
H2192 H 0.63341 1.03561 0.56141 0.0
H2193 H 0.5095 0.09692 0.45584 0.0
H2194 H 0.58712 1.03064 0.47283 0.0
H2195 H 0.55547 0.10153 0.54448 0.0
C2196 C 0.58819 0.08856 0.57695 0.0
C2197 C 0.61074 0.07041 0.582 0.0
C2198 C 0.57031 1.04538 0.46905 0.0
C2199 C 0.57925 0.06698 0.52428 0.0
C2200 C 0.55414 1.04342 0.44061 0.0
C2201 C 0.53163 1.06164 0.43562 0.0
C2202 C 0.56383 0.06565 0.49271 0.0
C2203 C 0.5268 0.08262 0.45881 0.0
C2204 C 0.5724 0.08691 0.54819 0.0
C2205 C 0.61607 1.04986 0.5584 0.0
N2206 N 0.54264 0.0839 0.48662 0.0
N2207 N 0.60054 1.04883 0.53033 0.0
loop_
_geom_bond_atom_site_label_1
_geom_bond_atom_site_label_2
_geom_bond_distance
_geom_bond_site_symmetry_2
_ccdc_geom_bond_type
Gd0 N31 2.661 . S
Gd0 N37 2.601 . S
Gd0 O44 2.545 . S
Gd0 O45 2.606 . S
Gd0 O47 2.429 . S
Gd0 O48 2.545 . S
Gd0 O49 2.412 . S
Gd0 O51 2.362 . S
Gd0 O52 2.324 . S
Gd0 C59 2.828 . S
Gd1 N10 2.661 1_554 S
Gd1 N14 2.606 . S
Gd1 O45 2.362 . S
Gd1 O46 2.324 1_554 S
Gd1 O50 2.545 1_554 S
Gd1 O51 2.606 . S
Gd1 O53 2.429 . S
Gd1 O54 2.545 . S
Gd1 O55 2.412 1_554 S
Gd1 C68 2.828 1_554 S
C2 C5 1.417 . S
C2 C7 1.431 . S
C2 C8 1.412 . S
C3 C6 1.437 . S
C3 C7 1.317 . S
C3 H22 0.929 . S
C4 C5 1.426 . S
C4 C6 1.413 . S
C4 N14 1.335 1_556 S
C5 C2 1.417 . S
C5 C4 1.426 . S
C5 N10 1.350 . S
C6 C3 1.437 . S
C6 C4 1.413 . S
C6 C16 1.391 . S
C7 C2 1.431 . S
C7 C3 1.317 . S
C7 H18 0.930 . S
C8 C2 1.412 . S
C8 C9 1.355 . S
C8 H20 0.930 . S
C9 C8 1.355 . S
C9 C11 1.402 . S
C9 H21 0.930 . S
N10 Gd1 2.661 1_556 S
N10 C5 1.350 . S
N10 C11 1.307 . S
C11 C9 1.402 . S
C11 N10 1.307 . S
C11 H12 0.930 . S
H12 C11 0.930 . S
C13 N14 1.352 . S
C13 C15 1.394 . S
C13 H17 0.930 . S
N14 Gd1 2.606 . S
N14 C4 1.335 1_554 S
N14 C13 1.352 . S
C15 C13 1.394 . S
C15 C16 1.359 1_554 S
C15 H27 0.930 . S
C16 C6 1.391 . S
C16 C15 1.359 1_556 S
C16 H28 0.929 . S
H17 C13 0.930 . S
H18 C7 0.930 . S
H19 C36 0.930 . S
H20 C8 0.930 . S
H21 C9 0.930 . S
H22 C3 0.929 . S
H23 C41 0.930 . S
H24 C32 0.930 . S
H25 C33 0.930 . S
H26 C57 0.929 . S
H27 C15 0.930 . S
H28 C16 0.929 . S
H29 C58 0.930 . S
H30 C39 0.930 . S
N31 Gd0 2.661 . S
N31 C35 1.350 . S
N31 C36 1.307 . S
C32 H24 0.930 . S
C32 C33 1.355 . S
C32 C34 1.412 . S
C33 H25 0.930 . S
C33 C32 1.355 . S
C33 C36 1.402 . S
C34 C32 1.412 . S
C34 C35 1.417 . S
C34 C58 1.431 . S
C35 N31 1.350 . S
C35 C34 1.417 . S
C35 C38 1.426 . S
C36 H19 0.930 . S
C36 N31 1.307 . S
C36 C33 1.402 . S
N37 Gd0 2.601 . S
N37 C38 1.359 . S
N37 C41 1.334 . S
C38 C35 1.426 . S
C38 N37 1.359 . S
C38 C42 1.413 . S
C39 H30 0.930 . S
C39 C40 1.359 . S
C39 C41 1.394 . S
C40 C39 1.359 . S
C40 C42 1.391 . S
C40 H43 0.929 . S
C41 H23 0.930 . S
C41 N37 1.334 . S
C41 C39 1.394 . S
C42 C38 1.413 . S
C42 C40 1.391 . S
C42 C57 1.437 . S
H43 C40 0.929 . S
O44 Gd0 2.545 . S
O44 C59 1.258 . S
O45 Gd0 2.606 . S
O45 Gd1 2.362 . S
O45 C56 1.284 . S
O46 Gd1 2.324 1_556 S
O46 C66 1.254 . S
O47 Gd0 2.429 . S
O47 C66 1.268 1_554 S
O48 Gd0 2.545 . S
O48 C56 1.250 . S
O49 Gd0 2.412 . S
O49 C59 1.252 . S
O50 Gd1 2.545 1_556 S
O50 C68 1.258 . S
O51 Gd0 2.362 . S
O51 Gd1 2.606 . S
O51 C67 1.284 . S
O52 Gd0 2.324 . S
O52 C75 1.254 . S
O53 Gd1 2.429 . S
O53 C75 1.268 . S
O54 Gd1 2.545 . S
O54 C67 1.250 . S
O55 Gd1 2.412 1_556 S
O55 C68 1.252 . S
C56 O45 1.284 . S
C56 O48 1.250 . S
C57 H26 0.929 . S
C57 C42 1.437 . S
C57 C58 1.317 . S
C58 H29 0.930 . S
C58 C34 1.431 . S
C58 C57 1.317 . S
C59 Gd0 2.828 . S
C59 O44 1.258 . S
C59 O49 1.252 . S
C59 C60 1.497 . S
C60 C59 1.497 . S
C60 C61 1.395 . S
C60 C62 1.380 . S
C61 C60 1.395 . S
C61 C64 1.398 . S
C61 H76 0.930 . S
C62 C60 1.380 . S
C62 C63 1.391 . S
C62 H77 0.930 . S
C63 C62 1.391 . S
C63 C65 1.387 . S
C64 C61 1.398 . S
C64 C65 1.380 . S
C64 H78 0.930 . S
C65 C63 1.387 . S
C65 C64 1.380 . S
C65 H79 0.930 . S
C66 O46 1.254 . S
C66 O47 1.268 1_556 S
C67 O51 1.284 . S
C67 O54 1.250 . S
C68 Gd1 2.828 1_556 S
C68 O50 1.258 . S
C68 O55 1.252 . S
C68 C69 1.497 . S
C69 C68 1.497 . S
C69 C70 1.395 . S
C69 C71 1.380 . S
C70 C69 1.395 . S
C70 C73 1.398 . S
C70 H80 0.930 . S
C71 C69 1.380 . S
C71 C72 1.391 . S
C71 H81 0.930 . S
C72 C71 1.391 . S
C72 C74 1.387 . S
C73 C70 1.398 . S
C73 C74 1.380 . S
C73 H82 0.930 . S
C74 C72 1.387 . S
C74 C73 1.380 . S
C74 H83 0.930 . S
C75 O52 1.254 . S
C75 O53 1.268 . S
H76 C61 0.930 . S
H77 C62 0.930 . S
H78 C64 0.930 . S
H79 C65 0.930 . S
H80 C70 0.930 . S
H81 C71 0.930 . S
H82 C73 0.930 . S
H83 C74 0.930 . S
Gd84 N115 2.661 . S
Gd84 N121 2.601 . S
Gd84 O128 2.545 . S
Gd84 O129 2.606 . S
Gd84 O131 2.429 . S
Gd84 O132 2.545 . S
Gd84 O133 2.412 . S
Gd84 O135 2.362 . S
Gd84 O136 2.324 . S
Gd84 C143 2.828 . S
Gd85 N94 2.661 . S
Gd85 N98 2.601 . S
Gd85 O129 2.362 . S
Gd85 O130 2.324 . S
Gd85 O134 2.545 . S
Gd85 O135 2.606 . S
Gd85 O137 2.429 . S
Gd85 O138 2.545 . S
Gd85 O139 2.412 . S
Gd85 C152 2.828 . S
C86 C89 1.417 . S
C86 C91 1.431 . S
C86 C92 1.412 . S
C87 C90 1.437 . S
C87 C91 1.317 . S
C87 H106 0.929 . S
C88 C89 1.426 . S
C88 C90 1.413 . S
C88 N98 1.359 . S
C89 C86 1.417 . S
C89 C88 1.426 . S
C89 N94 1.350 . S
C90 C87 1.437 . S
C90 C88 1.413 . S
C90 C100 1.391 . S
C91 C86 1.431 . S
C91 C87 1.317 . S
C91 H102 0.930 . S
C92 C86 1.412 . S
C92 C93 1.355 . S
C92 H104 0.930 . S
C93 C92 1.355 . S
C93 C95 1.402 . S
C93 H105 0.930 . S
N94 Gd85 2.661 . S
N94 C89 1.350 . S
N94 C95 1.307 . S
C95 C93 1.402 . S
C95 N94 1.307 . S
C95 H96 0.930 . S
H96 C95 0.930 . S
C97 N98 1.334 . S
C97 C99 1.394 . S
C97 H101 0.930 . S
N98 Gd85 2.601 . S
N98 C88 1.359 . S
N98 C97 1.334 . S
C99 C97 1.394 . S
C99 C100 1.359 . S
C99 H111 0.930 . S
C100 C90 1.391 . S
C100 C99 1.359 . S
C100 H112 0.929 . S
H101 C97 0.930 . S
H102 C91 0.930 . S
H103 C120 0.930 . S
H104 C92 0.930 . S
H105 C93 0.930 . S
H106 C87 0.929 . S
H107 C125 0.930 . S
H108 C116 0.930 . S
H109 C117 0.930 . S
H110 C141 0.929 . S
H111 C99 0.930 . S
H112 C100 0.929 . S
H113 C142 0.930 . S
H114 C123 0.930 . S
N115 Gd84 2.661 . S
N115 C119 1.350 . S
N115 C120 1.307 . S
C116 H108 0.930 . S
C116 C117 1.355 . S
C116 C118 1.412 . S
C117 H109 0.930 . S
C117 C116 1.355 . S
C117 C120 1.402 . S
C118 C116 1.412 . S
C118 C119 1.417 . S
C118 C142 1.431 . S
C119 N115 1.350 . S
C119 C118 1.417 . S
C119 C122 1.426 . S
C120 H103 0.930 . S
C120 N115 1.307 . S
C120 C117 1.402 . S
N121 Gd84 2.601 . S
N121 C122 1.359 . S
N121 C125 1.334 . S
C122 C119 1.426 . S
C122 N121 1.359 . S
C122 C126 1.413 . S
C123 H114 0.930 . S
C123 C124 1.359 . S
C123 C125 1.394 . S
C124 C123 1.359 . S
C124 C126 1.391 . S
C124 H127 0.929 . S
C125 H107 0.930 . S
C125 N121 1.334 . S
C125 C123 1.394 . S
C126 C122 1.413 . S
C126 C124 1.391 . S
C126 C141 1.437 . S
H127 C124 0.929 . S
O128 Gd84 2.545 . S
O128 C143 1.258 . S
O129 Gd84 2.606 . S
O129 Gd85 2.362 . S
O129 C140 1.284 . S
O130 Gd85 2.324 . S
O130 C150 1.254 . S
O131 Gd84 2.429 . S
O131 C150 1.268 . S
O132 Gd84 2.545 . S
O132 C140 1.250 . S
O133 Gd84 2.412 . S
O133 C143 1.252 . S
O134 Gd85 2.545 . S
O134 C152 1.258 . S
O135 Gd84 2.362 . S
O135 Gd85 2.606 . S
O135 C151 1.284 . S
O136 Gd84 2.324 . S
O136 C159 1.254 . S
O137 Gd85 2.429 . S
O137 C159 1.268 . S
O138 Gd85 2.545 . S
O138 C151 1.250 . S
O139 Gd85 2.412 . S
O139 C152 1.252 . S
C140 O129 1.284 . S
C140 O132 1.250 . S
C141 H110 0.929 . S
C141 C126 1.437 . S
C141 C142 1.317 . S
C142 H113 0.930 . S
C142 C118 1.431 . S
C142 C141 1.317 . S
C143 Gd84 2.828 . S
C143 O128 1.258 . S
C143 O133 1.252 . S
C143 C144 1.497 . S
C144 C143 1.497 . S
C144 C145 1.395 . S
C144 C146 1.380 . S
C145 C144 1.395 . S
C145 C148 1.398 . S
C145 H160 0.930 . S
C146 C144 1.380 . S
C146 C147 1.391 . S
C146 H161 0.930 . S
C147 C146 1.391 . S
C147 C149 1.387 . S
C148 C145 1.398 . S
C148 C149 1.380 . S
C148 H162 0.930 . S
C149 C147 1.387 . S
C149 C148 1.380 . S
C149 H163 0.930 . S
C150 O130 1.254 . S
C150 O131 1.268 . S
C151 O135 1.284 . S
C151 O138 1.250 . S
C152 Gd85 2.828 . S
C152 O134 1.258 . S
C152 O139 1.252 . S
C152 C153 1.497 . S
C153 C152 1.497 . S
C153 C154 1.395 . S
C153 C155 1.380 . S
C154 C153 1.395 . S
C154 C157 1.398 . S
C154 H164 0.930 . S
C155 C153 1.380 . S
C155 C156 1.391 . S
C155 H165 0.930 . S
C156 C155 1.391 . S
C156 C158 1.387 . S
C157 C154 1.398 . S
C157 C158 1.380 . S
C157 H166 0.930 . S
C158 C156 1.387 . S
C158 C157 1.380 . S
C158 H167 0.930 . S
C159 O136 1.254 . S
C159 O137 1.268 . S
H160 C145 0.930 . S
H161 C146 0.930 . S
H162 C148 0.930 . S
H163 C149 0.930 . S
H164 C154 0.930 . S
H165 C155 0.930 . S
H166 C157 0.930 . S
H167 C158 0.930 . S
Gd168 N199 2.661 . S
Gd168 N205 2.601 . S
Gd168 O212 2.545 . S
Gd168 O213 2.606 . S
Gd168 O215 2.429 . S
Gd168 O216 2.545 . S
Gd168 O217 2.412 . S
Gd168 O219 2.362 . S
Gd168 O220 2.324 . S
Gd168 C227 2.828 . S
Gd169 N178 2.661 . S
Gd169 N182 2.601 . S
Gd169 O213 2.362 . S
Gd169 O214 2.324 . S
Gd169 O218 2.545 . S
Gd169 O219 2.606 . S
Gd169 O221 2.429 . S
Gd169 O222 2.545 . S
Gd169 O223 2.412 . S
Gd169 C236 2.828 . S
C170 C173 1.417 . S
C170 C175 1.431 . S
C170 C176 1.412 . S
C171 C174 1.437 . S
C171 C175 1.317 . S
C171 H190 0.929 . S
C172 C173 1.426 . S
C172 C174 1.413 . S
C172 N182 1.359 . S
C173 C170 1.417 . S
C173 C172 1.426 . S
C173 N178 1.350 . S
C174 C171 1.437 . S
C174 C172 1.413 . S
C174 C184 1.391 . S
C175 C170 1.431 . S
C175 C171 1.317 . S
C175 H186 0.930 . S
C176 C170 1.412 . S
C176 C177 1.355 . S
C176 H188 0.930 . S
C177 C176 1.355 . S
C177 C179 1.402 . S
C177 H189 0.930 . S
N178 Gd169 2.661 . S
N178 C173 1.350 . S
N178 C179 1.307 . S
C179 C177 1.402 . S
C179 N178 1.307 . S
C179 H180 0.930 . S
H180 C179 0.930 . S
C181 N182 1.334 . S
C181 C183 1.394 . S
C181 H185 0.930 . S
N182 Gd169 2.601 . S
N182 C172 1.359 . S
N182 C181 1.334 . S
C183 C181 1.394 . S
C183 C184 1.359 . S
C183 H195 0.930 . S
C184 C174 1.391 . S
C184 C183 1.359 . S
C184 H196 0.929 . S
H185 C181 0.930 . S
H186 C175 0.930 . S
H187 C204 0.930 . S
H188 C176 0.930 . S
H189 C177 0.930 . S
H190 C171 0.929 . S
H191 C209 0.930 . S
H192 C200 0.930 . S
H193 C201 0.930 . S
H194 C225 0.929 . S
H195 C183 0.930 . S
H196 C184 0.929 . S
H197 C226 0.930 . S
H198 C207 0.930 . S
N199 Gd168 2.661 . S
N199 C203 1.350 . S
N199 C204 1.307 . S
C200 H192 0.930 . S
C200 C201 1.355 . S
C200 C202 1.412 . S
C201 H193 0.930 . S
C201 C200 1.355 . S
C201 C204 1.402 . S
C202 C200 1.412 . S
C202 C203 1.417 . S
C202 C226 1.431 . S
C203 N199 1.350 . S
C203 C202 1.417 . S
C203 C206 1.426 . S
C204 H187 0.930 . S
C204 N199 1.307 . S
C204 C201 1.402 . S
N205 Gd168 2.601 . S
N205 C206 1.359 . S
N205 C209 1.334 . S
C206 C203 1.426 . S
C206 N205 1.359 . S
C206 C210 1.413 . S
C207 H198 0.930 . S
C207 C208 1.359 . S
C207 C209 1.394 . S
C208 C207 1.359 . S
C208 C210 1.391 . S
C208 H211 0.929 . S
C209 H191 0.930 . S
C209 N205 1.334 . S
C209 C207 1.394 . S
C210 C206 1.413 . S
C210 C208 1.391 . S
C210 C225 1.437 . S
H211 C208 0.929 . S
O212 Gd168 2.545 . S
O212 C227 1.258 . S
O213 Gd168 2.606 . S
O213 Gd169 2.362 . S
O213 C224 1.284 . S
O214 Gd169 2.324 . S
O214 C234 1.254 . S
O215 Gd168 2.429 . S
O215 C234 1.268 . S
O216 Gd168 2.545 . S
O216 C224 1.250 . S
O217 Gd168 2.412 . S
O217 C227 1.252 . S
O218 Gd169 2.545 . S
O218 C236 1.258 . S
O219 Gd168 2.362 . S
O219 Gd169 2.606 . S
O219 C235 1.284 . S
O220 Gd168 2.324 . S
O220 C243 1.254 . S
O221 Gd169 2.429 . S
O221 C243 1.268 . S
O222 Gd169 2.545 . S
O222 C235 1.250 . S
O223 Gd169 2.412 . S
O223 C236 1.252 . S
C224 O213 1.284 . S
C224 O216 1.250 . S
C225 H194 0.929 . S
C225 C210 1.437 . S
C225 C226 1.317 . S
C226 H197 0.930 . S
C226 C202 1.431 . S
C226 C225 1.317 . S
C227 Gd168 2.828 . S
C227 O212 1.258 . S
C227 O217 1.252 . S
C227 C228 1.497 . S
C228 C227 1.497 . S
C228 C229 1.395 . S
C228 C230 1.380 . S
C229 C228 1.395 . S
C229 C232 1.398 . S
C229 H244 0.930 . S
C230 C228 1.380 . S
C230 C231 1.391 . S
C230 H245 0.930 . S
C231 C230 1.391 . S
C231 C233 1.387 . S
C232 C229 1.398 . S
C232 C233 1.380 . S
C232 H246 0.930 . S
C233 C231 1.387 . S
C233 C232 1.380 . S
C233 H247 0.930 . S
C234 O214 1.254 . S
C234 O215 1.268 . S
C235 O219 1.284 . S
C235 O222 1.250 . S
C236 Gd169 2.828 . S
C236 O218 1.258 . S
C236 O223 1.252 . S
C236 C237 1.497 . S
C237 C236 1.497 . S
C237 C238 1.395 . S
C237 C239 1.380 . S
C238 C237 1.395 . S
C238 C241 1.398 . S
C238 H248 0.930 . S
C239 C237 1.380 . S
C239 C240 1.391 . S
C239 H249 0.930 . S
C240 C239 1.391 . S
C240 C242 1.387 . S
C241 C238 1.398 . S
C241 C242 1.380 . S
C241 H250 0.930 . S
C242 C240 1.387 . S
C242 C241 1.380 . S
C242 H251 0.924 1_455 S
C243 O220 1.254 . S
C243 O221 1.268 . S
H244 C229 0.930 . S
H245 C230 0.930 . S
H246 C232 0.930 . S
H247 C233 0.930 . S
H248 C238 0.930 . S
H249 C239 0.930 . S
H250 C241 0.930 . S
H251 C242 0.924 1_655 S
Gd252 N283 2.661 . S
Gd252 N289 2.601 . S
Gd252 O296 2.545 . S
Gd252 O297 2.606 . S
Gd252 O299 2.429 . S
Gd252 O300 2.545 . S
Gd252 O301 2.412 . S
Gd252 O303 2.362 . S
Gd252 O304 2.324 . S
Gd252 C311 2.828 . S
Gd253 N262 2.661 . S
Gd253 N266 2.601 . S
Gd253 O297 2.362 . S
Gd253 O298 2.324 . S
Gd253 O302 2.545 . S
Gd253 O303 2.606 . S
Gd253 O305 2.429 . S
Gd253 O306 2.545 . S
Gd253 O307 2.412 . S
Gd253 C320 2.828 . S
C254 C257 1.417 . S
C254 C259 1.431 . S
C254 C260 1.412 . S
C255 C258 1.437 . S
C255 C259 1.317 . S
C255 H274 0.929 . S
C256 C257 1.426 . S
C256 C258 1.413 . S
C256 N266 1.359 . S
C257 C254 1.417 . S
C257 C256 1.426 . S
C257 N262 1.350 . S
C258 C255 1.437 . S
C258 C256 1.413 . S
C258 C268 1.391 . S
C259 C254 1.431 . S
C259 C255 1.317 . S
C259 H270 0.930 . S
C260 C254 1.412 . S
C260 C261 1.355 . S
C260 H272 0.930 . S
C261 C260 1.355 . S
C261 C263 1.402 . S
C261 H273 0.930 . S
N262 Gd253 2.661 . S
N262 C257 1.350 . S
N262 C263 1.307 . S
C263 C261 1.402 . S
C263 N262 1.307 . S
C263 H264 0.930 . S
H264 C263 0.930 . S
C265 N266 1.334 . S
C265 C267 1.394 . S
C265 H269 0.930 . S
N266 Gd253 2.601 . S
N266 C256 1.359 . S
N266 C265 1.334 . S
C267 C265 1.394 . S
C267 C268 1.359 . S
C267 H279 0.930 . S
C268 C258 1.391 . S
C268 C267 1.359 . S
C268 H280 0.929 . S
H269 C265 0.930 . S
H270 C259 0.930 . S
H271 C288 0.930 . S
H272 C260 0.930 . S
H273 C261 0.930 . S
H274 C255 0.929 . S
H275 C293 0.930 1_655 S
H276 C284 0.930 . S
H277 C285 0.930 . S
H278 C309 0.929 . S
H279 C267 0.930 . S
H280 C268 0.929 . S
H281 C310 0.936 . S
H282 C291 0.930 . S
N283 Gd252 2.661 . S
N283 C287 1.350 . S
N283 C288 1.307 . S
C284 H276 0.930 . S
C284 C285 1.355 . S
C284 C286 1.412 . S
C285 H277 0.930 . S
C285 C284 1.355 . S
C285 C288 1.402 . S
C286 C284 1.412 . S
C286 C287 1.417 . S
C286 C310 1.408 1_655 S
C287 N283 1.350 . S
C287 C286 1.417 . S
C287 C290 1.426 . S
C288 H271 0.930 . S
C288 N283 1.307 . S
C288 C285 1.402 . S
N289 Gd252 2.601 . S
N289 C290 1.359 . S
N289 C293 1.334 1_655 S
C290 C287 1.426 . S
C290 N289 1.359 . S
C290 C294 1.413 1_655 S
C291 H282 0.930 . S
C291 C292 1.359 . S
C291 C293 1.394 . S
C292 C291 1.359 . S
C292 C294 1.391 . S
C292 H295 0.929 . S
C293 H275 0.930 1_455 S
C293 N289 1.334 1_455 S
C293 C291 1.394 . S
C294 C290 1.413 1_455 S
C294 C292 1.391 . S
C294 C309 1.437 . S
H295 C292 0.929 . S
O296 Gd252 2.545 . S
O296 C311 1.258 . S
O297 Gd252 2.606 . S
O297 Gd253 2.362 . S
O297 C308 1.284 . S
O298 Gd253 2.324 . S
O298 C318 1.254 . S
O299 Gd252 2.429 . S
O299 C318 1.268 . S
O300 Gd252 2.545 . S
O300 C308 1.250 . S
O301 Gd252 2.412 . S
O301 C311 1.252 . S
O302 Gd253 2.545 . S
O302 C320 1.258 . S
O303 Gd252 2.362 . S
O303 Gd253 2.606 . S
O303 C319 1.284 . S
O304 Gd252 2.324 . S
O304 C327 1.254 . S
O305 Gd253 2.429 . S
O305 C327 1.268 . S
O306 Gd253 2.545 . S
O306 C319 1.250 . S
O307 Gd253 2.412 . S
O307 C320 1.252 . S
C308 O297 1.284 . S
C308 O300 1.250 . S
C309 H278 0.929 . S
C309 C294 1.437 . S
C309 C310 1.335 . S
C310 H281 0.936 . S
C310 C286 1.408 1_455 S
C310 C309 1.335 . S
C311 Gd252 2.828 . S
C311 O296 1.258 . S
C311 O301 1.252 . S
C311 C312 1.497 . S
C312 C311 1.497 . S
C312 C313 1.395 . S
C312 C314 1.380 . S
C313 C312 1.395 . S
C313 C316 1.398 . S
C313 H328 0.930 . S
C314 C312 1.380 . S
C314 C315 1.391 . S
C314 H329 0.930 . S
C315 C314 1.391 . S
C315 C317 1.387 . S
C316 C313 1.398 . S
C316 C317 1.380 . S
C316 H330 0.930 1_655 S
C317 C315 1.387 . S
C317 C316 1.380 . S
C317 H331 0.930 . S
C318 O298 1.254 . S
C318 O299 1.268 . S
C319 O303 1.284 . S
C319 O306 1.250 . S
C320 Gd253 2.828 . S
C320 O302 1.258 . S
C320 O307 1.252 . S
C320 C321 1.497 . S
C321 C320 1.497 . S
C321 C322 1.395 . S
C321 C323 1.380 . S
C322 C321 1.395 . S
C322 C325 1.398 . S
C322 H332 0.930 . S
C323 C321 1.380 . S
C323 C324 1.391 . S
C323 H333 0.930 . S
C324 C323 1.391 . S
C324 C326 1.387 . S
C325 C322 1.398 . S
C325 C326 1.380 . S
C325 H334 0.930 . S
C326 C324 1.387 . S
C326 C325 1.380 . S
C326 H335 0.930 . S
C327 O304 1.254 . S
C327 O305 1.268 . S
H328 C313 0.930 . S
H329 C314 0.930 . S
H330 C316 0.930 1_455 S
H331 C317 0.930 . S
H332 C322 0.930 . S
H333 C323 0.930 . S
H334 C325 0.930 . S
H335 C326 0.930 . S
Gd336 N367 2.661 1_556 S
Gd336 N373 2.606 . S
Gd336 O380 2.545 1_556 S
Gd336 O381 2.606 . S
Gd336 O383 2.429 . S
Gd336 O384 2.545 . S
Gd336 O385 2.412 1_556 S
Gd336 O387 2.362 . S
Gd336 O388 2.324 1_556 S
Gd336 C395 2.828 1_556 S
Gd337 N346 2.661 . S
Gd337 N350 2.601 . S
Gd337 O381 2.362 . S
Gd337 O382 2.324 . S
Gd337 O386 2.545 . S
Gd337 O387 2.606 . S
Gd337 O389 2.429 . S
Gd337 O390 2.545 . S
Gd337 O391 2.412 . S
Gd337 C404 2.828 . S
C338 C341 1.417 . S
C338 C343 1.431 . S
C338 C344 1.412 . S
C339 C342 1.437 . S
C339 C343 1.317 . S
C339 H358 0.929 . S
C340 C341 1.426 . S
C340 C342 1.413 . S
C340 N350 1.359 . S
C341 C338 1.417 . S
C341 C340 1.426 . S
C341 N346 1.350 . S
C342 C339 1.437 . S
C342 C340 1.413 . S
C342 C352 1.391 . S
C343 C338 1.431 . S
C343 C339 1.317 . S
C343 H354 0.930 . S
C344 C338 1.412 . S
C344 C345 1.355 . S
C344 H356 0.930 . S
C345 C344 1.355 . S
C345 C347 1.402 . S
C345 H357 0.930 . S
N346 Gd337 2.661 . S
N346 C341 1.350 . S
N346 C347 1.307 . S
C347 C345 1.402 . S
C347 N346 1.307 . S
C347 H348 0.930 . S
H348 C347 0.930 . S
C349 N350 1.334 . S
C349 C351 1.394 . S
C349 H353 0.930 . S
N350 Gd337 2.601 . S
N350 C340 1.359 . S
N350 C349 1.334 . S
C351 C349 1.394 . S
C351 C352 1.359 . S
C351 H363 0.930 . S
C352 C342 1.391 . S
C352 C351 1.359 . S
C352 H364 0.929 . S
H353 C349 0.930 . S
H354 C343 0.930 . S
H355 C372 0.930 . S
H356 C344 0.930 . S
H357 C345 0.930 . S
H358 C339 0.929 . S
H359 C377 0.930 . S
H360 C368 0.930 . S
H361 C369 0.930 . S
H362 C393 0.929 . S
H363 C351 0.930 . S
H364 C352 0.929 . S
H365 C394 0.930 . S
H366 C375 0.930 . S
N367 Gd336 2.661 1_554 S
N367 C371 1.350 . S
N367 C372 1.307 . S
C368 H360 0.930 . S
C368 C369 1.355 . S
C368 C370 1.412 . S
C369 H361 0.930 . S
C369 C368 1.355 . S
C369 C372 1.402 . S
C370 C368 1.412 . S
C370 C371 1.417 . S
C370 C394 1.431 . S
C371 N367 1.350 . S
C371 C370 1.417 . S
C371 C374 1.426 . S
C372 H355 0.930 . S
C372 N367 1.307 . S
C372 C369 1.402 . S
N373 Gd336 2.606 . S
N373 C374 1.335 1_556 S
N373 C377 1.352 . S
C374 C371 1.426 . S
C374 N373 1.335 1_554 S
C374 C378 1.413 . S
C375 H366 0.930 . S
C375 C376 1.359 1_556 S
C375 C377 1.394 . S
C376 C375 1.359 1_554 S
C376 C378 1.391 . S
C376 H379 0.929 . S
C377 H359 0.930 . S
C377 N373 1.352 . S
C377 C375 1.394 . S
C378 C374 1.413 . S
C378 C376 1.391 . S
C378 C393 1.437 . S
H379 C376 0.929 . S
O380 Gd336 2.545 1_554 S
O380 C395 1.258 . S
O381 Gd336 2.606 . S
O381 Gd337 2.362 . S
O381 C392 1.284 . S
O382 Gd337 2.324 . S
O382 C402 1.254 . S
O383 Gd336 2.429 . S
O383 C402 1.268 . S
O384 Gd336 2.545 . S
O384 C392 1.250 . S
O385 Gd336 2.412 1_554 S
O385 C395 1.252 . S
O386 Gd337 2.545 . S
O386 C404 1.258 . S
O387 Gd336 2.362 . S
O387 Gd337 2.606 . S
O387 C403 1.284 . S
O388 Gd336 2.324 1_554 S
O388 C411 1.254 . S
O389 Gd337 2.429 . S
O389 C411 1.268 1_556 S
O390 Gd337 2.545 . S
O390 C403 1.250 . S
O391 Gd337 2.412 . S
O391 C404 1.252 . S
C392 O381 1.284 . S
C392 O384 1.250 . S
C393 H362 0.929 . S
C393 C378 1.437 . S
C393 C394 1.317 . S
C394 H365 0.930 . S
C394 C370 1.431 . S
C394 C393 1.317 . S
C395 Gd336 2.828 1_554 S
C395 O380 1.258 . S
C395 O385 1.252 . S
C395 C396 1.497 . S
C396 C395 1.497 . S
C396 C397 1.395 . S
C396 C398 1.380 . S
C397 C396 1.395 . S
C397 C400 1.398 . S
C397 H412 0.930 . S
C398 C396 1.380 . S
C398 C399 1.391 . S
C398 H413 0.930 . S
C399 C398 1.391 . S
C399 C401 1.387 . S
C400 C397 1.398 . S
C400 C401 1.380 . S
C400 H414 0.930 . S
C401 C399 1.387 . S
C401 C400 1.380 . S
C401 H415 0.930 . S
C402 O382 1.254 . S
C402 O383 1.268 . S
C403 O387 1.284 . S
C403 O390 1.250 . S
C404 Gd337 2.828 . S
C404 O386 1.258 . S
C404 O391 1.252 . S
C404 C405 1.497 . S
C405 C404 1.497 . S
C405 C406 1.395 . S
C405 C407 1.380 . S
C406 C405 1.395 . S
C406 C409 1.398 . S
C406 H416 0.930 . S
C407 C405 1.380 . S
C407 C408 1.391 . S
C407 H417 0.930 . S
C408 C407 1.391 . S
C408 C410 1.387 . S
C409 C406 1.398 . S
C409 C410 1.380 . S
C409 H418 0.930 . S
C410 C408 1.387 . S
C410 C409 1.380 . S
C410 H419 0.930 . S
C411 O388 1.254 . S
C411 O389 1.268 1_554 S
H412 C397 0.930 . S
H413 C398 0.930 . S
H414 C400 0.930 . S
H415 C401 0.930 . S
H416 C406 0.930 . S
H417 C407 0.930 . S
H418 C409 0.930 . S
H419 C410 0.930 . S
Gd420 N451 2.661 . S
Gd420 N457 2.601 . S
Gd420 O464 2.545 . S
Gd420 O465 2.606 . S
Gd420 O467 2.429 . S
Gd420 O468 2.545 . S
Gd420 O469 2.412 . S
Gd420 O471 2.362 . S
Gd420 O472 2.324 . S
Gd420 C479 2.828 . S
Gd421 N430 2.661 . S
Gd421 N434 2.601 . S
Gd421 O465 2.362 . S
Gd421 O466 2.324 . S
Gd421 O470 2.545 . S
Gd421 O471 2.606 . S
Gd421 O473 2.429 . S
Gd421 O474 2.545 . S
Gd421 O475 2.412 . S
Gd421 C488 2.828 . S
C422 C425 1.417 . S
C422 C427 1.431 . S
C422 C428 1.412 . S
C423 C426 1.437 . S
C423 C427 1.317 . S
C423 H442 0.929 . S
C424 C425 1.426 . S
C424 C426 1.413 . S
C424 N434 1.359 . S
C425 C422 1.417 . S
C425 C424 1.426 . S
C425 N430 1.350 . S
C426 C423 1.437 . S
C426 C424 1.413 . S
C426 C436 1.391 . S
C427 C422 1.431 . S
C427 C423 1.317 . S
C427 H438 0.930 . S
C428 C422 1.412 . S
C428 C429 1.355 . S
C428 H440 0.930 . S
C429 C428 1.355 . S
C429 C431 1.402 . S
C429 H441 0.930 . S
N430 Gd421 2.661 . S
N430 C425 1.350 . S
N430 C431 1.307 . S
C431 C429 1.402 . S
C431 N430 1.307 . S
C431 H432 0.930 . S
H432 C431 0.930 . S
C433 N434 1.334 . S
C433 C435 1.394 . S
C433 H437 0.930 . S
N434 Gd421 2.601 . S
N434 C424 1.359 . S
N434 C433 1.334 . S
C435 C433 1.394 . S
C435 C436 1.359 . S
C435 H447 0.930 . S
C436 C426 1.391 . S
C436 C435 1.359 . S
C436 H448 0.929 . S
H437 C433 0.930 . S
H438 C427 0.930 . S
H439 C456 0.930 . S
H440 C428 0.930 . S
H441 C429 0.930 . S
H442 C423 0.929 . S
H443 C461 0.930 . S
H444 C452 0.930 . S
H445 C453 0.930 . S
H446 C477 0.929 . S
H447 C435 0.930 . S
H448 C436 0.929 . S
H449 C478 0.930 . S
H450 C459 0.930 . S
N451 Gd420 2.661 . S
N451 C455 1.350 . S
N451 C456 1.307 . S
C452 H444 0.930 . S
C452 C453 1.355 . S
C452 C454 1.412 . S
C453 H445 0.930 . S
C453 C452 1.355 . S
C453 C456 1.402 . S
C454 C452 1.412 . S
C454 C455 1.417 . S
C454 C478 1.431 . S
C455 N451 1.350 . S
C455 C454 1.417 . S
C455 C458 1.426 . S
C456 H439 0.930 . S
C456 N451 1.307 . S
C456 C453 1.402 . S
N457 Gd420 2.601 . S
N457 C458 1.359 . S
N457 C461 1.334 . S
C458 C455 1.426 . S
C458 N457 1.359 . S
C458 C462 1.413 . S
C459 H450 0.930 . S
C459 C460 1.359 . S
C459 C461 1.394 . S
C460 C459 1.359 . S
C460 C462 1.391 . S
C460 H463 0.929 . S
C461 H443 0.930 . S
C461 N457 1.334 . S
C461 C459 1.394 . S
C462 C458 1.413 . S
C462 C460 1.391 . S
C462 C477 1.437 . S
H463 C460 0.929 . S
O464 Gd420 2.545 . S
O464 C479 1.258 . S
O465 Gd420 2.606 . S
O465 Gd421 2.362 . S
O465 C476 1.284 . S
O466 Gd421 2.324 . S
O466 C486 1.254 . S
O467 Gd420 2.429 . S
O467 C486 1.268 . S
O468 Gd420 2.545 . S
O468 C476 1.250 . S
O469 Gd420 2.412 . S
O469 C479 1.252 . S
O470 Gd421 2.545 . S
O470 C488 1.258 . S
O471 Gd420 2.362 . S
O471 Gd421 2.606 . S
O471 C487 1.284 . S
O472 Gd420 2.324 . S
O472 C495 1.254 . S
O473 Gd421 2.429 . S
O473 C495 1.268 . S
O474 Gd421 2.545 . S
O474 C487 1.250 . S
O475 Gd421 2.412 . S
O475 C488 1.252 . S
C476 O465 1.284 . S
C476 O468 1.250 . S
C477 H446 0.929 . S
C477 C462 1.437 . S
C477 C478 1.317 . S
C478 H449 0.930 . S
C478 C454 1.431 . S
C478 C477 1.317 . S
C479 Gd420 2.828 . S
C479 O464 1.258 . S
C479 O469 1.252 . S
C479 C480 1.497 . S
C480 C479 1.497 . S
C480 C481 1.395 . S
C480 C482 1.380 . S
C481 C480 1.395 . S
C481 C484 1.398 . S
C481 H496 0.930 . S
C482 C480 1.380 . S
C482 C483 1.391 . S
C482 H497 0.930 . S
C483 C482 1.391 . S
C483 C485 1.387 . S
C484 C481 1.398 . S
C484 C485 1.380 . S
C484 H498 0.930 . S
C485 C483 1.387 . S
C485 C484 1.380 . S
C485 H499 0.930 . S
C486 O466 1.254 . S
C486 O467 1.268 . S
C487 O471 1.284 . S
C487 O474 1.250 . S
C488 Gd421 2.828 . S
C488 O470 1.258 . S
C488 O475 1.252 . S
C488 C489 1.497 . S
C489 C488 1.497 . S
C489 C490 1.395 . S
C489 C491 1.380 . S
C490 C489 1.395 . S
C490 C493 1.398 . S
C490 H500 0.930 . S
C491 C489 1.380 . S
C491 C492 1.391 . S
C491 H501 0.930 . S
C492 C491 1.391 . S
C492 C494 1.387 . S
C493 C490 1.398 . S
C493 C494 1.380 . S
C493 H502 0.930 . S
C494 C492 1.387 . S
C494 C493 1.380 . S
C494 H503 0.930 . S
C495 O472 1.254 . S
C495 O473 1.268 . S
H496 C481 0.930 . S
H497 C482 0.930 . S
H498 C484 0.930 . S
H499 C485 0.930 . S
H500 C490 0.930 . S
H501 C491 0.930 . S
H502 C493 0.930 . S
H503 C494 0.930 . S
Gd504 N535 2.661 . S
Gd504 N541 2.601 . S
Gd504 O548 2.545 . S
Gd504 O549 2.606 . S
Gd504 O551 2.429 . S
Gd504 O552 2.545 . S
Gd504 O553 2.412 . S
Gd504 O555 2.362 . S
Gd504 O556 2.324 . S
Gd504 C563 2.828 . S
Gd505 N514 2.661 . S
Gd505 N518 2.601 . S
Gd505 O549 2.362 . S
Gd505 O550 2.324 . S
Gd505 O554 2.545 . S
Gd505 O555 2.606 . S
Gd505 O557 2.429 . S
Gd505 O558 2.545 . S
Gd505 O559 2.412 . S
Gd505 C572 2.828 . S
C506 C509 1.417 . S
C506 C511 1.431 . S
C506 C512 1.412 . S
C507 C510 1.437 . S
C507 C511 1.317 . S
C507 H526 0.929 . S
C508 C509 1.426 . S
C508 C510 1.413 . S
C508 N518 1.359 . S
C509 C506 1.417 . S
C509 C508 1.426 . S
C509 N514 1.350 . S
C510 C507 1.437 . S
C510 C508 1.413 . S
C510 C520 1.391 . S
C511 C506 1.431 . S
C511 C507 1.317 . S
C511 H522 0.930 . S
C512 C506 1.412 . S
C512 C513 1.355 . S
C512 H524 0.930 . S
C513 C512 1.355 . S
C513 C515 1.402 . S
C513 H525 0.930 . S
N514 Gd505 2.661 . S
N514 C509 1.350 . S
N514 C515 1.307 . S
C515 C513 1.402 . S
C515 N514 1.307 . S
C515 H516 0.930 . S
H516 C515 0.930 . S
C517 N518 1.334 . S
C517 C519 1.394 . S
C517 H521 0.930 . S
N518 Gd505 2.601 . S
N518 C508 1.359 . S
N518 C517 1.334 . S
C519 C517 1.394 . S
C519 C520 1.359 . S
C519 H531 0.930 . S
C520 C510 1.391 . S
C520 C519 1.359 . S
C520 H532 0.929 . S
H521 C517 0.930 . S
H522 C511 0.930 . S
H523 C540 0.930 . S
H524 C512 0.930 . S
H525 C513 0.930 . S
H526 C507 0.929 . S
H527 C545 0.930 . S
H528 C536 0.930 . S
H529 C537 0.930 . S
H530 C561 0.929 . S
H531 C519 0.930 . S
H532 C520 0.929 . S
H533 C562 0.930 . S
H534 C543 0.930 . S
N535 Gd504 2.661 . S
N535 C539 1.350 . S
N535 C540 1.307 . S
C536 H528 0.930 . S
C536 C537 1.355 . S
C536 C538 1.412 . S
C537 H529 0.930 . S
C537 C536 1.355 . S
C537 C540 1.402 . S
C538 C536 1.412 . S
C538 C539 1.417 . S
C538 C562 1.431 . S
C539 N535 1.350 . S
C539 C538 1.417 . S
C539 C542 1.426 . S
C540 H523 0.930 . S
C540 N535 1.307 . S
C540 C537 1.402 . S
N541 Gd504 2.601 . S
N541 C542 1.359 . S
N541 C545 1.334 . S
C542 C539 1.426 . S
C542 N541 1.359 . S
C542 C546 1.413 . S
C543 H534 0.930 . S
C543 C544 1.359 . S
C543 C545 1.394 . S
C544 C543 1.359 . S
C544 C546 1.391 . S
C544 H547 0.929 . S
C545 H527 0.930 . S
C545 N541 1.334 . S
C545 C543 1.394 . S
C546 C542 1.413 . S
C546 C544 1.391 . S
C546 C561 1.437 . S
H547 C544 0.929 . S
O548 Gd504 2.545 . S
O548 C563 1.258 . S
O549 Gd504 2.606 . S
O549 Gd505 2.362 . S
O549 C560 1.284 . S
O550 Gd505 2.324 . S
O550 C570 1.254 . S
O551 Gd504 2.429 . S
O551 C570 1.268 . S
O552 Gd504 2.545 . S
O552 C560 1.250 . S
O553 Gd504 2.412 . S
O553 C563 1.252 . S
O554 Gd505 2.545 . S
O554 C572 1.258 . S
O555 Gd504 2.362 . S
O555 Gd505 2.606 . S
O555 C571 1.284 . S
O556 Gd504 2.324 . S
O556 C579 1.254 . S
O557 Gd505 2.429 . S
O557 C579 1.268 . S
O558 Gd505 2.545 . S
O558 C571 1.250 . S
O559 Gd505 2.412 . S
O559 C572 1.252 . S
C560 O549 1.284 . S
C560 O552 1.250 . S
C561 H530 0.929 . S
C561 C546 1.437 . S
C561 C562 1.317 . S
C562 H533 0.930 . S
C562 C538 1.431 . S
C562 C561 1.317 . S
C563 Gd504 2.828 . S
C563 O548 1.258 . S
C563 O553 1.252 . S
C563 C564 1.497 . S
C564 C563 1.497 . S
C564 C565 1.395 . S
C564 C566 1.380 . S
C565 C564 1.395 . S
C565 C568 1.398 . S
C565 H580 0.930 . S
C566 C564 1.380 . S
C566 C567 1.391 . S
C566 H581 0.930 . S
C567 C566 1.391 . S
C567 C569 1.387 . S
C568 C565 1.398 . S
C568 C569 1.380 . S
C568 H582 0.930 . S
C569 C567 1.387 . S
C569 C568 1.380 . S
C569 H583 0.924 1_655 S
C570 O550 1.254 . S
C570 O551 1.268 . S
C571 O555 1.284 . S
C571 O558 1.250 . S
C572 Gd505 2.828 . S
C572 O554 1.258 . S
C572 O559 1.252 . S
C572 C573 1.497 . S
C573 C572 1.497 . S
C573 C574 1.395 . S
C573 C575 1.380 . S
C574 C573 1.395 . S
C574 C577 1.398 . S
C574 H584 0.930 . S
C575 C573 1.380 . S
C575 C576 1.391 . S
C575 H585 0.930 . S
C576 C575 1.391 . S
C576 C578 1.387 . S
C577 C574 1.398 . S
C577 C578 1.380 . S
C577 H586 0.930 . S
C578 C576 1.387 . S
C578 C577 1.380 . S
C578 H587 0.930 . S
C579 O556 1.254 . S
C579 O557 1.268 . S
H580 C565 0.930 . S
H581 C566 0.930 . S
H582 C568 0.930 . S
H583 C569 0.924 1_455 S
H584 C574 0.930 . S
H585 C575 0.930 . S
H586 C577 0.930 . S
H587 C578 0.930 . S
Gd588 N619 2.661 . S
Gd588 N625 2.601 . S
Gd588 O632 2.545 . S
Gd588 O633 2.606 . S
Gd588 O635 2.429 . S
Gd588 O636 2.545 . S
Gd588 O637 2.412 . S
Gd588 O639 2.362 . S
Gd588 O640 2.324 . S
Gd588 C647 2.828 . S
Gd589 N598 2.661 . S
Gd589 N602 2.601 . S
Gd589 O633 2.362 . S
Gd589 O634 2.324 . S
Gd589 O638 2.545 . S
Gd589 O639 2.606 . S
Gd589 O641 2.429 . S
Gd589 O642 2.545 . S
Gd589 O643 2.412 . S
Gd589 C656 2.828 . S
C590 C593 1.417 . S
C590 C595 1.408 1_455 S
C590 C596 1.412 . S
C591 C594 1.437 . S
C591 C595 1.335 . S
C591 H610 0.929 . S
C592 C593 1.426 . S
C592 C594 1.413 1_455 S
C592 N602 1.359 . S
C593 C590 1.417 . S
C593 C592 1.426 . S
C593 N598 1.350 . S
C594 C591 1.437 . S
C594 C592 1.413 1_655 S
C594 C604 1.391 . S
C595 C590 1.408 1_655 S
C595 C591 1.335 . S
C595 H606 0.936 . S
C596 C590 1.412 . S
C596 C597 1.355 . S
C596 H608 0.930 . S
C597 C596 1.355 . S
C597 C599 1.402 . S
C597 H609 0.930 . S
N598 Gd589 2.661 . S
N598 C593 1.350 . S
N598 C599 1.307 . S
C599 C597 1.402 . S
C599 N598 1.307 . S
C599 H600 0.930 . S
H600 C599 0.930 . S
C601 N602 1.334 1_655 S
C601 C603 1.394 . S
C601 H605 0.930 1_655 S
N602 Gd589 2.601 . S
N602 C592 1.359 . S
N602 C601 1.334 1_455 S
C603 C601 1.394 . S
C603 C604 1.359 . S
C603 H615 0.930 . S
C604 C594 1.391 . S
C604 C603 1.359 . S
C604 H616 0.929 . S
H605 C601 0.930 1_455 S
H606 C595 0.936 . S
H607 C624 0.930 . S
H608 C596 0.930 . S
H609 C597 0.930 . S
H610 C591 0.929 . S
H611 C629 0.930 . S
H612 C620 0.930 . S
H613 C621 0.930 . S
H614 C645 0.929 . S
H615 C603 0.930 . S
H616 C604 0.929 . S
H617 C646 0.930 . S
H618 C627 0.930 . S
N619 Gd588 2.661 . S
N619 C623 1.350 . S
N619 C624 1.307 . S
C620 H612 0.930 . S
C620 C621 1.355 . S
C620 C622 1.412 . S
C621 H613 0.930 . S
C621 C620 1.355 . S
C621 C624 1.402 . S
C622 C620 1.412 . S
C622 C623 1.417 . S
C622 C646 1.431 . S
C623 N619 1.350 . S
C623 C622 1.417 . S
C623 C626 1.426 . S
C624 H607 0.930 . S
C624 N619 1.307 . S
C624 C621 1.402 . S
N625 Gd588 2.601 . S
N625 C626 1.359 . S
N625 C629 1.334 . S
C626 C623 1.426 . S
C626 N625 1.359 . S
C626 C630 1.413 . S
C627 H618 0.930 . S
C627 C628 1.359 . S
C627 C629 1.394 . S
C628 C627 1.359 . S
C628 C630 1.391 . S
C628 H631 0.929 . S
C629 H611 0.930 . S
C629 N625 1.334 . S
C629 C627 1.394 . S
C630 C626 1.413 . S
C630 C628 1.391 . S
C630 C645 1.437 . S
H631 C628 0.929 . S
O632 Gd588 2.545 . S
O632 C647 1.258 . S
O633 Gd588 2.606 . S
O633 Gd589 2.362 . S
O633 C644 1.284 . S
O634 Gd589 2.324 . S
O634 C654 1.254 . S
O635 Gd588 2.429 . S
O635 C654 1.268 . S
O636 Gd588 2.545 . S
O636 C644 1.250 . S
O637 Gd588 2.412 . S
O637 C647 1.252 . S
O638 Gd589 2.545 . S
O638 C656 1.258 . S
O639 Gd588 2.362 . S
O639 Gd589 2.606 . S
O639 C655 1.284 . S
O640 Gd588 2.324 . S
O640 C663 1.254 . S
O641 Gd589 2.429 . S
O641 C663 1.268 . S
O642 Gd589 2.545 . S
O642 C655 1.250 . S
O643 Gd589 2.412 . S
O643 C656 1.252 . S
C644 O633 1.284 . S
C644 O636 1.250 . S
C645 H614 0.929 . S
C645 C630 1.437 . S
C645 C646 1.317 . S
C646 H617 0.930 . S
C646 C622 1.431 . S
C646 C645 1.317 . S
C647 Gd588 2.828 . S
C647 O632 1.258 . S
C647 O637 1.252 . S
C647 C648 1.497 . S
C648 C647 1.497 . S
C648 C649 1.395 . S
C648 C650 1.380 . S
C649 C648 1.395 . S
C649 C652 1.398 . S
C649 H664 0.930 . S
C650 C648 1.380 . S
C650 C651 1.391 . S
C650 H665 0.930 . S
C651 C650 1.391 . S
C651 C653 1.387 . S
C652 C649 1.398 . S
C652 C653 1.380 . S
C652 H666 0.930 . S
C653 C651 1.387 . S
C653 C652 1.380 . S
C653 H667 0.930 . S
C654 O634 1.254 . S
C654 O635 1.268 . S
C655 O639 1.284 . S
C655 O642 1.250 . S
C656 Gd589 2.828 . S
C656 O638 1.258 . S
C656 O643 1.252 . S
C656 C657 1.497 . S
C657 C656 1.497 . S
C657 C658 1.395 . S
C657 C659 1.380 . S
C658 C657 1.395 . S
C658 C661 1.398 . S
C658 H668 0.930 . S
C659 C657 1.380 . S
C659 C660 1.391 . S
C659 H669 0.930 . S
C660 C659 1.391 . S
C660 C662 1.387 . S
C661 C658 1.398 . S
C661 C662 1.380 . S
C661 H670 0.930 1_455 S
C662 C660 1.387 . S
C662 C661 1.380 . S
C662 H671 0.930 . S
C663 O640 1.254 . S
C663 O641 1.268 . S
H664 C649 0.930 . S
H665 C650 0.930 . S
H666 C652 0.930 . S
H667 C653 0.930 . S
H668 C658 0.930 . S
H669 C659 0.930 . S
H670 C661 0.930 1_655 S
H671 C662 0.930 . S
Gd672 N703 2.661 . S
Gd672 N709 2.601 . S
Gd672 O716 2.545 . S
Gd672 O717 2.606 . S
Gd672 O719 2.429 . S
Gd672 O720 2.545 . S
Gd672 O721 2.412 . S
Gd672 O723 2.362 . S
Gd672 O724 2.324 . S
Gd672 C731 2.828 . S
Gd673 N682 2.661 . S
Gd673 N686 2.601 . S
Gd673 O717 2.362 . S
Gd673 O718 2.324 . S
Gd673 O722 2.545 . S
Gd673 O723 2.606 . S
Gd673 O725 2.429 . S
Gd673 O726 2.545 . S
Gd673 O727 2.412 . S
Gd673 C740 2.828 . S
C674 C677 1.417 . S
C674 C679 1.431 . S
C674 C680 1.412 . S
C675 C678 1.437 . S
C675 C679 1.317 . S
C675 H694 0.929 . S
C676 C677 1.426 . S
C676 C678 1.413 . S
C676 N686 1.359 . S
C677 C674 1.417 . S
C677 C676 1.426 . S
C677 N682 1.350 . S
C678 C675 1.437 . S
C678 C676 1.413 . S
C678 C688 1.391 . S
C679 C674 1.431 . S
C679 C675 1.317 . S
C679 H690 0.930 . S
C680 C674 1.412 . S
C680 C681 1.355 . S
C680 H692 0.930 . S
C681 C680 1.355 . S
C681 C683 1.402 . S
C681 H693 0.930 . S
N682 Gd673 2.661 . S
N682 C677 1.350 . S
N682 C683 1.307 . S
C683 C681 1.402 . S
C683 N682 1.307 . S
C683 H684 0.930 . S
H684 C683 0.930 . S
C685 N686 1.334 . S
C685 C687 1.394 . S
C685 H689 0.930 . S
N686 Gd673 2.601 . S
N686 C676 1.359 . S
N686 C685 1.334 . S
C687 C685 1.394 . S
C687 C688 1.359 . S
C687 H699 0.930 . S
C688 C678 1.391 . S
C688 C687 1.359 . S
C688 H700 0.929 . S
H689 C685 0.930 . S
H690 C679 0.930 . S
H691 C708 0.930 . S
H692 C680 0.930 . S
H693 C681 0.930 . S
H694 C675 0.929 . S
H695 C713 0.930 . S
H696 C704 0.930 . S
H697 C705 0.930 . S
H698 C729 0.929 . S
H699 C687 0.930 . S
H700 C688 0.929 . S
H701 C730 0.930 . S
H702 C711 0.930 . S
N703 Gd672 2.661 . S
N703 C707 1.350 . S
N703 C708 1.307 . S
C704 H696 0.930 . S
C704 C705 1.355 . S
C704 C706 1.412 . S
C705 H697 0.930 . S
C705 C704 1.355 . S
C705 C708 1.402 . S
C706 C704 1.412 . S
C706 C707 1.417 . S
C706 C730 1.431 . S
C707 N703 1.350 . S
C707 C706 1.417 . S
C707 C710 1.426 . S
C708 H691 0.930 . S
C708 N703 1.307 . S
C708 C705 1.402 . S
N709 Gd672 2.601 . S
N709 C710 1.359 . S
N709 C713 1.334 . S
C710 C707 1.426 . S
C710 N709 1.359 . S
C710 C714 1.413 . S
C711 H702 0.930 . S
C711 C712 1.359 . S
C711 C713 1.394 . S
C712 C711 1.359 . S
C712 C714 1.391 . S
C712 H715 0.929 . S
C713 H695 0.930 . S
C713 N709 1.334 . S
C713 C711 1.394 . S
C714 C710 1.413 . S
C714 C712 1.391 . S
C714 C729 1.437 . S
H715 C712 0.929 . S
O716 Gd672 2.545 . S
O716 C731 1.258 . S
O717 Gd672 2.606 . S
O717 Gd673 2.362 . S
O717 C728 1.284 . S
O718 Gd673 2.324 . S
O718 C738 1.254 . S
O719 Gd672 2.429 . S
O719 C738 1.268 . S
O720 Gd672 2.545 . S
O720 C728 1.250 . S
O721 Gd672 2.412 . S
O721 C731 1.252 . S
O722 Gd673 2.545 . S
O722 C740 1.258 . S
O723 Gd672 2.362 . S
O723 Gd673 2.606 . S
O723 C739 1.284 . S
O724 Gd672 2.324 . S
O724 C747 1.254 . S
O725 Gd673 2.429 . S
O725 C747 1.268 . S
O726 Gd673 2.545 . S
O726 C739 1.250 . S
O727 Gd673 2.412 . S
O727 C740 1.252 . S
C728 O717 1.284 . S
C728 O720 1.250 . S
C729 H698 0.929 . S
C729 C714 1.437 . S
C729 C730 1.317 . S
C730 H701 0.930 . S
C730 C706 1.431 . S
C730 C729 1.317 . S
C731 Gd672 2.828 . S
C731 O716 1.258 . S
C731 O721 1.252 . S
C731 C732 1.497 . S
C732 C731 1.497 . S
C732 C733 1.395 . S
C732 C734 1.380 . S
C733 C732 1.395 . S
C733 C736 1.398 . S
C733 H748 0.930 . S
C734 C732 1.380 . S
C734 C735 1.391 . S
C734 H749 0.930 . S
C735 C734 1.391 . S
C735 C737 1.387 . S
C736 C733 1.398 . S
C736 C737 1.380 . S
C736 H750 0.930 . S
C737 C735 1.387 . S
C737 C736 1.380 . S
C737 H751 0.930 . S
C738 O718 1.254 . S
C738 O719 1.268 . S
C739 O723 1.284 . S
C739 O726 1.250 . S
C740 Gd673 2.828 . S
C740 O722 1.258 . S
C740 O727 1.252 . S
C740 C741 1.497 . S
C741 C740 1.497 . S
C741 C742 1.395 . S
C741 C743 1.380 . S
C742 C741 1.395 . S
C742 C745 1.398 . S
C742 H752 0.930 . S
C743 C741 1.380 . S
C743 C744 1.391 . S
C743 H753 0.930 . S
C744 C743 1.391 . S
C744 C746 1.387 . S
C745 C742 1.398 . S
C745 C746 1.380 . S
C745 H754 0.930 . S
C746 C744 1.387 . S
C746 C745 1.380 . S
C746 H755 0.924 1_655 S
C747 O724 1.254 . S
C747 O725 1.268 . S
H748 C733 0.930 . S
H749 C734 0.930 . S
H750 C736 0.930 . S
H751 C737 0.930 . S
H752 C742 0.930 . S
H753 C743 0.930 . S
H754 C745 0.930 . S
H755 C746 0.924 1_455 S
Gd756 N787 2.661 . S
Gd756 N793 2.601 . S
Gd756 O800 2.545 . S
Gd756 O801 2.606 . S
Gd756 O803 2.429 . S
Gd756 O804 2.545 . S
Gd756 O805 2.412 . S
Gd756 O807 2.362 . S
Gd756 O808 2.324 . S
Gd756 C815 2.828 . S
Gd757 N766 2.661 . S
Gd757 N770 2.601 . S
Gd757 O801 2.362 . S
Gd757 O802 2.324 . S
Gd757 O806 2.545 . S
Gd757 O807 2.606 . S
Gd757 O809 2.429 . S
Gd757 O810 2.545 . S
Gd757 O811 2.412 . S
Gd757 C824 2.828 . S
C758 C761 1.417 . S
C758 C763 1.431 . S
C758 C764 1.412 . S
C759 C762 1.437 . S
C759 C763 1.317 . S
C759 H778 0.929 . S
C760 C761 1.426 . S
C760 C762 1.413 . S
C760 N770 1.359 . S
C761 C758 1.417 . S
C761 C760 1.426 . S
C761 N766 1.350 . S
C762 C759 1.437 . S
C762 C760 1.413 . S
C762 C772 1.391 . S
C763 C758 1.431 . S
C763 C759 1.317 . S
C763 H774 0.930 . S
C764 C758 1.412 . S
C764 C765 1.355 . S
C764 H776 0.930 . S
C765 C764 1.355 . S
C765 C767 1.402 . S
C765 H777 0.930 . S
N766 Gd757 2.661 . S
N766 C761 1.350 . S
N766 C767 1.307 . S
C767 C765 1.402 . S
C767 N766 1.307 . S
C767 H768 0.930 . S
H768 C767 0.930 . S
C769 N770 1.334 . S
C769 C771 1.394 . S
C769 H773 0.930 . S
N770 Gd757 2.601 . S
N770 C760 1.359 . S
N770 C769 1.334 . S
C771 C769 1.394 . S
C771 C772 1.359 . S
C771 H783 0.930 . S
C772 C762 1.391 . S
C772 C771 1.359 . S
C772 H784 0.929 . S
H773 C769 0.930 . S
H774 C763 0.930 . S
H775 C792 0.930 . S
H776 C764 0.930 . S
H777 C765 0.930 . S
H778 C759 0.929 . S
H779 C797 0.930 1_455 S
H780 C788 0.930 . S
H781 C789 0.930 . S
H782 C813 0.929 . S
H783 C771 0.930 . S
H784 C772 0.929 . S
H785 C814 0.936 . S
H786 C795 0.930 . S
N787 Gd756 2.661 . S
N787 C791 1.350 . S
N787 C792 1.307 . S
C788 H780 0.930 . S
C788 C789 1.355 . S
C788 C790 1.412 . S
C789 H781 0.930 . S
C789 C788 1.355 . S
C789 C792 1.402 . S
C790 C788 1.412 . S
C790 C791 1.417 . S
C790 C814 1.408 1_455 S
C791 N787 1.350 . S
C791 C790 1.417 . S
C791 C794 1.426 . S
C792 H775 0.930 . S
C792 N787 1.307 . S
C792 C789 1.402 . S
N793 Gd756 2.601 . S
N793 C794 1.359 . S
N793 C797 1.334 1_455 S
C794 C791 1.426 . S
C794 N793 1.359 . S
C794 C798 1.413 1_455 S
C795 H786 0.930 . S
C795 C796 1.359 . S
C795 C797 1.394 . S
C796 C795 1.359 . S
C796 C798 1.391 . S
C796 H799 0.929 . S
C797 H779 0.930 1_655 S
C797 N793 1.334 1_655 S
C797 C795 1.394 . S
C798 C794 1.413 1_655 S
C798 C796 1.391 . S
C798 C813 1.437 . S
H799 C796 0.929 . S
O800 Gd756 2.545 . S
O800 C815 1.258 . S
O801 Gd756 2.606 . S
O801 Gd757 2.362 . S
O801 C812 1.284 . S
O802 Gd757 2.324 . S
O802 C822 1.254 . S
O803 Gd756 2.429 . S
O803 C822 1.268 . S
O804 Gd756 2.545 . S
O804 C812 1.250 . S
O805 Gd756 2.412 . S
O805 C815 1.252 . S
O806 Gd757 2.545 . S
O806 C824 1.258 . S
O807 Gd756 2.362 . S
O807 Gd757 2.606 . S
O807 C823 1.284 . S
O808 Gd756 2.324 . S
O808 C831 1.254 . S
O809 Gd757 2.429 . S
O809 C831 1.268 . S
O810 Gd757 2.545 . S
O810 C823 1.250 . S
O811 Gd757 2.412 . S
O811 C824 1.252 . S
C812 O801 1.284 . S
C812 O804 1.250 . S
C813 H782 0.929 . S
C813 C798 1.437 . S
C813 C814 1.335 . S
C814 H785 0.936 . S
C814 C790 1.408 1_655 S
C814 C813 1.335 . S
C815 Gd756 2.828 . S
C815 O800 1.258 . S
C815 O805 1.252 . S
C815 C816 1.497 . S
C816 C815 1.497 . S
C816 C817 1.395 . S
C816 C818 1.380 . S
C817 C816 1.395 . S
C817 C820 1.398 . S
C817 H832 0.930 . S
C818 C816 1.380 . S
C818 C819 1.391 . S
C818 H833 0.930 . S
C819 C818 1.391 . S
C819 C821 1.387 . S
C820 C817 1.398 . S
C820 C821 1.380 . S
C820 H834 0.930 1_455 S
C821 C819 1.387 . S
C821 C820 1.380 . S
C821 H835 0.930 . S
C822 O802 1.254 . S
C822 O803 1.268 . S
C823 O807 1.284 . S
C823 O810 1.250 . S
C824 Gd757 2.828 . S
C824 O806 1.258 . S
C824 O811 1.252 . S
C824 C825 1.497 . S
C825 C824 1.497 . S
C825 C826 1.395 . S
C825 C827 1.380 . S
C826 C825 1.395 . S
C826 C829 1.398 . S
C826 H836 0.930 . S
C827 C825 1.380 . S
C827 C828 1.391 . S
C827 H837 0.930 . S
C828 C827 1.391 . S
C828 C830 1.387 . S
C829 C826 1.398 . S
C829 C830 1.380 . S
C829 H838 0.930 . S
C830 C828 1.387 . S
C830 C829 1.380 . S
C830 H839 0.930 . S
C831 O808 1.254 . S
C831 O809 1.268 . S
H832 C817 0.930 . S
H833 C818 0.930 . S
H834 C820 0.930 1_655 S
H835 C821 0.930 . S
H836 C826 0.930 . S
H837 C827 0.930 . S
H838 C829 0.930 . S
H839 C830 0.930 . S
Gd840 N871 2.661 . S
Gd840 N877 2.601 . S
Gd840 O884 2.545 . S
Gd840 O885 2.606 . S
Gd840 O887 2.429 . S
Gd840 O888 2.545 . S
Gd840 O889 2.412 . S
Gd840 O891 2.362 . S
Gd840 O892 2.324 . S
Gd840 C899 2.828 . S
Gd841 N850 2.661 1_554 S
Gd841 N854 2.606 . S
Gd841 O885 2.362 . S
Gd841 O886 2.324 1_554 S
Gd841 O890 2.545 1_554 S
Gd841 O891 2.606 . S
Gd841 O893 2.429 . S
Gd841 O894 2.545 . S
Gd841 O895 2.412 1_554 S
Gd841 C908 2.828 1_554 S
C842 C845 1.417 . S
C842 C847 1.431 . S
C842 C848 1.412 . S
C843 C846 1.437 . S
C843 C847 1.317 . S
C843 H862 0.929 . S
C844 C845 1.426 . S
C844 C846 1.413 . S
C844 N854 1.335 1_556 S
C845 C842 1.417 . S
C845 C844 1.426 . S
C845 N850 1.350 . S
C846 C843 1.437 . S
C846 C844 1.413 . S
C846 C856 1.391 . S
C847 C842 1.431 . S
C847 C843 1.317 . S
C847 H858 0.930 . S
C848 C842 1.412 . S
C848 C849 1.355 . S
C848 H860 0.930 . S
C849 C848 1.355 . S
C849 C851 1.402 . S
C849 H861 0.930 . S
N850 Gd841 2.661 1_556 S
N850 C845 1.350 . S
N850 C851 1.307 . S
C851 C849 1.402 . S
C851 N850 1.307 . S
C851 H852 0.930 . S
H852 C851 0.930 . S
C853 N854 1.352 . S
C853 C855 1.394 . S
C853 H857 0.930 . S
N854 Gd841 2.606 . S
N854 C844 1.335 1_554 S
N854 C853 1.352 . S
C855 C853 1.394 . S
C855 C856 1.359 1_554 S
C855 H867 0.930 . S
C856 C846 1.391 . S
C856 C855 1.359 1_556 S
C856 H868 0.929 . S
H857 C853 0.930 . S
H858 C847 0.930 . S
H859 C876 0.930 . S
H860 C848 0.930 . S
H861 C849 0.930 . S
H862 C843 0.929 . S
H863 C881 0.930 . S
H864 C872 0.930 . S
H865 C873 0.930 . S
H866 C897 0.929 . S
H867 C855 0.930 . S
H868 C856 0.929 . S
H869 C898 0.930 . S
H870 C879 0.930 . S
N871 Gd840 2.661 . S
N871 C875 1.350 . S
N871 C876 1.307 . S
C872 H864 0.930 . S
C872 C873 1.355 . S
C872 C874 1.412 . S
C873 H865 0.930 . S
C873 C872 1.355 . S
C873 C876 1.402 . S
C874 C872 1.412 . S
C874 C875 1.417 . S
C874 C898 1.431 . S
C875 N871 1.350 . S
C875 C874 1.417 . S
C875 C878 1.426 . S
C876 H859 0.930 . S
C876 N871 1.307 . S
C876 C873 1.402 . S
N877 Gd840 2.601 . S
N877 C878 1.359 . S
N877 C881 1.334 . S
C878 C875 1.426 . S
C878 N877 1.359 . S
C878 C882 1.413 . S
C879 H870 0.930 . S
C879 C880 1.359 . S
C879 C881 1.394 . S
C880 C879 1.359 . S
C880 C882 1.391 . S
C880 H883 0.929 . S
C881 H863 0.930 . S
C881 N877 1.334 . S
C881 C879 1.394 . S
C882 C878 1.413 . S
C882 C880 1.391 . S
C882 C897 1.437 . S
H883 C880 0.929 . S
O884 Gd840 2.545 . S
O884 C899 1.258 . S
O885 Gd840 2.606 . S
O885 Gd841 2.362 . S
O885 C896 1.284 . S
O886 Gd841 2.324 1_556 S
O886 C906 1.254 . S
O887 Gd840 2.429 . S
O887 C906 1.268 1_554 S
O888 Gd840 2.545 . S
O888 C896 1.250 . S
O889 Gd840 2.412 . S
O889 C899 1.252 . S
O890 Gd841 2.545 1_556 S
O890 C908 1.258 . S
O891 Gd840 2.362 . S
O891 Gd841 2.606 . S
O891 C907 1.284 . S
O892 Gd840 2.324 . S
O892 C915 1.254 . S
O893 Gd841 2.429 . S
O893 C915 1.268 . S
O894 Gd841 2.545 . S
O894 C907 1.250 . S
O895 Gd841 2.412 1_556 S
O895 C908 1.252 . S
C896 O885 1.284 . S
C896 O888 1.250 . S
C897 H866 0.929 . S
C897 C882 1.437 . S
C897 C898 1.317 . S
C898 H869 0.930 . S
C898 C874 1.431 . S
C898 C897 1.317 . S
C899 Gd840 2.828 . S
C899 O884 1.258 . S
C899 O889 1.252 . S
C899 C900 1.497 . S
C900 C899 1.497 . S
C900 C901 1.395 . S
C900 C902 1.380 . S
C901 C900 1.395 . S
C901 C904 1.398 . S
C901 H916 0.930 . S
C902 C900 1.380 . S
C902 C903 1.391 . S
C902 H917 0.930 . S
C903 C902 1.391 . S
C903 C905 1.387 . S
C904 C901 1.398 . S
C904 C905 1.380 . S
C904 H918 0.930 . S
C905 C903 1.387 . S
C905 C904 1.380 . S
C905 H919 0.930 . S
C906 O886 1.254 . S
C906 O887 1.268 1_556 S
C907 O891 1.284 . S
C907 O894 1.250 . S
C908 Gd841 2.828 1_556 S
C908 O890 1.258 . S
C908 O895 1.252 . S
C908 C909 1.497 . S
C909 C908 1.497 . S
C909 C910 1.395 . S
C909 C911 1.380 . S
C910 C909 1.395 . S
C910 C913 1.398 . S
C910 H920 0.930 . S
C911 C909 1.380 . S
C911 C912 1.391 . S
C911 H921 0.930 . S
C912 C911 1.391 . S
C912 C914 1.387 . S
C913 C910 1.398 . S
C913 C914 1.380 . S
C913 H922 0.930 . S
C914 C912 1.387 . S
C914 C913 1.380 . S
C914 H923 0.930 . S
C915 O892 1.254 . S
C915 O893 1.268 . S
H916 C901 0.930 . S
H917 C902 0.930 . S
H918 C904 0.930 . S
H919 C905 0.930 . S
H920 C910 0.930 . S
H921 C911 0.930 . S
H922 C913 0.930 . S
H923 C914 0.930 . S
Gd924 N955 2.661 . S
Gd924 N961 2.601 . S
Gd924 O968 2.545 . S
Gd924 O969 2.606 . S
Gd924 O971 2.429 . S
Gd924 O972 2.545 . S
Gd924 O973 2.412 . S
Gd924 O975 2.362 . S
Gd924 O976 2.324 . S
Gd924 C983 2.828 . S
Gd925 N934 2.661 . S
Gd925 N938 2.601 . S
Gd925 O969 2.362 . S
Gd925 O970 2.324 . S
Gd925 O974 2.545 . S
Gd925 O975 2.606 . S
Gd925 O977 2.429 . S
Gd925 O978 2.545 . S
Gd925 O979 2.412 . S
Gd925 C992 2.828 . S
C926 C929 1.417 . S
C926 C931 1.431 . S
C926 C932 1.412 . S
C927 C930 1.437 . S
C927 C931 1.317 . S
C927 H946 0.929 . S
C928 C929 1.426 . S
C928 C930 1.413 . S
C928 N938 1.359 . S
C929 C926 1.417 . S
C929 C928 1.426 . S
C929 N934 1.350 . S
C930 C927 1.437 . S
C930 C928 1.413 . S
C930 C940 1.391 . S
C931 C926 1.431 . S
C931 C927 1.317 . S
C931 H942 0.930 . S
C932 C926 1.412 . S
C932 C933 1.355 . S
C932 H944 0.930 . S
C933 C932 1.355 . S
C933 C935 1.402 . S
C933 H945 0.930 . S
N934 Gd925 2.661 . S
N934 C929 1.350 . S
N934 C935 1.307 . S
C935 C933 1.402 . S
C935 N934 1.307 . S
C935 H936 0.930 . S
H936 C935 0.930 . S
C937 N938 1.334 . S
C937 C939 1.394 . S
C937 H941 0.930 . S
N938 Gd925 2.601 . S
N938 C928 1.359 . S
N938 C937 1.334 . S
C939 C937 1.394 . S
C939 C940 1.359 . S
C939 H951 0.930 . S
C940 C930 1.391 . S
C940 C939 1.359 . S
C940 H952 0.929 . S
H941 C937 0.930 . S
H942 C931 0.930 . S
H943 C960 0.930 . S
H944 C932 0.930 . S
H945 C933 0.930 . S
H946 C927 0.929 . S
H947 C965 0.930 . S
H948 C956 0.930 . S
H949 C957 0.930 . S
H950 C981 0.929 . S
H951 C939 0.930 . S
H952 C940 0.929 . S
H953 C982 0.930 . S
H954 C963 0.930 . S
N955 Gd924 2.661 . S
N955 C959 1.350 . S
N955 C960 1.307 . S
C956 H948 0.930 . S
C956 C957 1.355 . S
C956 C958 1.412 . S
C957 H949 0.930 . S
C957 C956 1.355 . S
C957 C960 1.402 . S
C958 C956 1.412 . S
C958 C959 1.417 . S
C958 C982 1.431 . S
C959 N955 1.350 . S
C959 C958 1.417 . S
C959 C962 1.426 . S
C960 H943 0.930 . S
C960 N955 1.307 . S
C960 C957 1.402 . S
N961 Gd924 2.601 . S
N961 C962 1.359 . S
N961 C965 1.334 . S
C962 C959 1.426 . S
C962 N961 1.359 . S
C962 C966 1.413 . S
C963 H954 0.930 . S
C963 C964 1.359 . S
C963 C965 1.394 . S
C964 C963 1.359 . S
C964 C966 1.391 . S
C964 H967 0.929 . S
C965 H947 0.930 . S
C965 N961 1.334 . S
C965 C963 1.394 . S
C966 C962 1.413 . S
C966 C964 1.391 . S
C966 C981 1.437 . S
H967 C964 0.929 . S
O968 Gd924 2.545 . S
O968 C983 1.258 . S
O969 Gd924 2.606 . S
O969 Gd925 2.362 . S
O969 C980 1.284 . S
O970 Gd925 2.324 . S
O970 C990 1.254 . S
O971 Gd924 2.429 . S
O971 C990 1.268 . S
O972 Gd924 2.545 . S
O972 C980 1.250 . S
O973 Gd924 2.412 . S
O973 C983 1.252 . S
O974 Gd925 2.545 . S
O974 C992 1.258 . S
O975 Gd924 2.362 . S
O975 Gd925 2.606 . S
O975 C991 1.284 . S
O976 Gd924 2.324 . S
O976 C999 1.254 . S
O977 Gd925 2.429 . S
O977 C999 1.268 . S
O978 Gd925 2.545 . S
O978 C991 1.250 . S
O979 Gd925 2.412 . S
O979 C992 1.252 . S
C980 O969 1.284 . S
C980 O972 1.250 . S
C981 H950 0.929 . S
C981 C966 1.437 . S
C981 C982 1.317 . S
C982 H953 0.930 . S
C982 C958 1.431 . S
C982 C981 1.317 . S
C983 Gd924 2.828 . S
C983 O968 1.258 . S
C983 O973 1.252 . S
C983 C984 1.497 . S
C984 C983 1.497 . S
C984 C985 1.395 . S
C984 C986 1.380 . S
C985 C984 1.395 . S
C985 C988 1.398 . S
C985 H1000 0.930 . S
C986 C984 1.380 . S
C986 C987 1.391 . S
C986 H1001 0.930 . S
C987 C986 1.391 . S
C987 C989 1.387 . S
C988 C985 1.398 . S
C988 C989 1.380 . S
C988 H1002 0.930 . S
C989 C987 1.387 . S
C989 C988 1.380 . S
C989 H1003 0.930 . S
C990 O970 1.254 . S
C990 O971 1.268 . S
C991 O975 1.284 . S
C991 O978 1.250 . S
C992 Gd925 2.828 . S
C992 O974 1.258 . S
C992 O979 1.252 . S
C992 C993 1.497 . S
C993 C992 1.497 . S
C993 C994 1.395 . S
C993 C995 1.380 . S
C994 C993 1.395 . S
C994 C997 1.398 . S
C994 H1004 0.930 . S
C995 C993 1.380 . S
C995 C996 1.391 . S
C995 H1005 0.930 . S
C996 C995 1.391 . S
C996 C998 1.387 . S
C997 C994 1.398 . S
C997 C998 1.380 . S
C997 H1006 0.930 . S
C998 C996 1.387 . S
C998 C997 1.380 . S
C998 H1007 0.930 . S
C999 O976 1.254 . S
C999 O977 1.268 . S
H1000 C985 0.930 . S
H1001 C986 0.930 . S
H1002 C988 0.930 . S
H1003 C989 0.930 . S
H1004 C994 0.930 . S
H1005 C995 0.930 . S
H1006 C997 0.930 . S
H1007 C998 0.930 . S
Gd1008 N1039 2.661 . S
Gd1008 N1045 2.601 . S
Gd1008 O1052 2.545 . S
Gd1008 O1053 2.606 . S
Gd1008 O1055 2.429 . S
Gd1008 O1056 2.545 . S
Gd1008 O1057 2.412 . S
Gd1008 O1059 2.362 . S
Gd1008 O1060 2.324 . S
Gd1008 C1067 2.828 . S
Gd1009 N1018 2.661 . S
Gd1009 N1022 2.601 . S
Gd1009 O1053 2.362 . S
Gd1009 O1054 2.324 . S
Gd1009 O1058 2.545 . S
Gd1009 O1059 2.606 . S
Gd1009 O1061 2.429 . S
Gd1009 O1062 2.545 . S
Gd1009 O1063 2.412 . S
Gd1009 C1076 2.828 . S
C1010 C1013 1.417 . S
C1010 C1015 1.431 . S
C1010 C1016 1.412 . S
C1011 C1014 1.437 . S
C1011 C1015 1.317 . S
C1011 H1030 0.929 . S
C1012 C1013 1.426 . S
C1012 C1014 1.413 . S
C1012 N1022 1.359 . S
C1013 C1010 1.417 . S
C1013 C1012 1.426 . S
C1013 N1018 1.350 . S
C1014 C1011 1.437 . S
C1014 C1012 1.413 . S
C1014 C1024 1.391 . S
C1015 C1010 1.431 . S
C1015 C1011 1.317 . S
C1015 H1026 0.930 . S
C1016 C1010 1.412 . S
C1016 C1017 1.355 . S
C1016 H1028 0.930 . S
C1017 C1016 1.355 . S
C1017 C1019 1.402 . S
C1017 H1029 0.930 . S
N1018 Gd1009 2.661 . S
N1018 C1013 1.350 . S
N1018 C1019 1.307 . S
C1019 C1017 1.402 . S
C1019 N1018 1.307 . S
C1019 H1020 0.930 . S
H1020 C1019 0.930 . S
C1021 N1022 1.334 . S
C1021 C1023 1.394 . S
C1021 H1025 0.930 . S
N1022 Gd1009 2.601 . S
N1022 C1012 1.359 . S
N1022 C1021 1.334 . S
C1023 C1021 1.394 . S
C1023 C1024 1.359 . S
C1023 H1035 0.930 . S
C1024 C1014 1.391 . S
C1024 C1023 1.359 . S
C1024 H1036 0.929 . S
H1025 C1021 0.930 . S
H1026 C1015 0.930 . S
H1027 C1044 0.930 . S
H1028 C1016 0.930 . S
H1029 C1017 0.930 . S
H1030 C1011 0.929 . S
H1031 C1049 0.930 . S
H1032 C1040 0.930 . S
H1033 C1041 0.930 . S
H1034 C1065 0.929 . S
H1035 C1023 0.930 . S
H1036 C1024 0.929 . S
H1037 C1066 0.930 . S
H1038 C1047 0.930 . S
N1039 Gd1008 2.661 . S
N1039 C1043 1.350 . S
N1039 C1044 1.307 . S
C1040 H1032 0.930 . S
C1040 C1041 1.355 . S
C1040 C1042 1.412 . S
C1041 H1033 0.930 . S
C1041 C1040 1.355 . S
C1041 C1044 1.402 . S
C1042 C1040 1.412 . S
C1042 C1043 1.417 . S
C1042 C1066 1.431 . S
C1043 N1039 1.350 . S
C1043 C1042 1.417 . S
C1043 C1046 1.426 . S
C1044 H1027 0.930 . S
C1044 N1039 1.307 . S
C1044 C1041 1.402 . S
N1045 Gd1008 2.601 . S
N1045 C1046 1.359 . S
N1045 C1049 1.334 . S
C1046 C1043 1.426 . S
C1046 N1045 1.359 . S
C1046 C1050 1.413 . S
C1047 H1038 0.930 . S
C1047 C1048 1.359 . S
C1047 C1049 1.394 . S
C1048 C1047 1.359 . S
C1048 C1050 1.391 . S
C1048 H1051 0.929 . S
C1049 H1031 0.930 . S
C1049 N1045 1.334 . S
C1049 C1047 1.394 . S
C1050 C1046 1.413 . S
C1050 C1048 1.391 . S
C1050 C1065 1.437 . S
H1051 C1048 0.929 . S
O1052 Gd1008 2.545 . S
O1052 C1067 1.258 . S
O1053 Gd1008 2.606 . S
O1053 Gd1009 2.362 . S
O1053 C1064 1.284 . S
O1054 Gd1009 2.324 . S
O1054 C1074 1.254 . S
O1055 Gd1008 2.429 . S
O1055 C1074 1.268 . S
O1056 Gd1008 2.545 . S
O1056 C1064 1.250 . S
O1057 Gd1008 2.412 . S
O1057 C1067 1.252 . S
O1058 Gd1009 2.545 . S
O1058 C1076 1.258 . S
O1059 Gd1008 2.362 . S
O1059 Gd1009 2.606 . S
O1059 C1075 1.284 . S
O1060 Gd1008 2.324 . S
O1060 C1083 1.254 . S
O1061 Gd1009 2.429 . S
O1061 C1083 1.268 . S
O1062 Gd1009 2.545 . S
O1062 C1075 1.250 . S
O1063 Gd1009 2.412 . S
O1063 C1076 1.252 . S
C1064 O1053 1.284 . S
C1064 O1056 1.250 . S
C1065 H1034 0.929 . S
C1065 C1050 1.437 . S
C1065 C1066 1.317 . S
C1066 H1037 0.930 . S
C1066 C1042 1.431 . S
C1066 C1065 1.317 . S
C1067 Gd1008 2.828 . S
C1067 O1052 1.258 . S
C1067 O1057 1.252 . S
C1067 C1068 1.497 . S
C1068 C1067 1.497 . S
C1068 C1069 1.395 . S
C1068 C1070 1.380 . S
C1069 C1068 1.395 . S
C1069 C1072 1.398 . S
C1069 H1084 0.930 . S
C1070 C1068 1.380 . S
C1070 C1071 1.391 . S
C1070 H1085 0.930 . S
C1071 C1070 1.391 . S
C1071 C1073 1.387 . S
C1072 C1069 1.398 . S
C1072 C1073 1.380 . S
C1072 H1086 0.930 . S
C1073 C1071 1.387 . S
C1073 C1072 1.380 . S
C1073 H1087 0.924 1_455 S
C1074 O1054 1.254 . S
C1074 O1055 1.268 . S
C1075 O1059 1.284 . S
C1075 O1062 1.250 . S
C1076 Gd1009 2.828 . S
C1076 O1058 1.258 . S
C1076 O1063 1.252 . S
C1076 C1077 1.497 . S
C1077 C1076 1.497 . S
C1077 C1078 1.395 . S
C1077 C1079 1.380 . S
C1078 C1077 1.395 . S
C1078 C1081 1.398 . S
C1078 H1088 0.930 . S
C1079 C1077 1.380 . S
C1079 C1080 1.391 . S
C1079 H1089 0.930 . S
C1080 C1079 1.391 . S
C1080 C1082 1.387 . S
C1081 C1078 1.398 . S
C1081 C1082 1.380 . S
C1081 H1090 0.930 . S
C1082 C1080 1.387 . S
C1082 C1081 1.380 . S
C1082 H1091 0.930 . S
C1083 O1060 1.254 . S
C1083 O1061 1.268 . S
H1084 C1069 0.930 . S
H1085 C1070 0.930 . S
H1086 C1072 0.930 . S
H1087 C1073 0.924 1_655 S
H1088 C1078 0.930 . S
H1089 C1079 0.930 . S
H1090 C1081 0.930 . S
H1091 C1082 0.930 . S
Gd1092 N1123 2.661 . S
Gd1092 N1129 2.601 . S
Gd1092 O1136 2.545 . S
Gd1092 O1137 2.606 . S
Gd1092 O1139 2.429 . S
Gd1092 O1140 2.545 . S
Gd1092 O1141 2.412 . S
Gd1092 O1143 2.362 . S
Gd1092 O1144 2.324 . S
Gd1092 C1151 2.828 . S
Gd1093 N1102 2.661 . S
Gd1093 N1106 2.601 . S
Gd1093 O1137 2.362 . S
Gd1093 O1138 2.324 . S
Gd1093 O1142 2.545 . S
Gd1093 O1143 2.606 . S
Gd1093 O1145 2.429 . S
Gd1093 O1146 2.545 . S
Gd1093 O1147 2.412 . S
Gd1093 C1160 2.828 . S
C1094 C1097 1.417 . S
C1094 C1099 1.408 1_655 S
C1094 C1100 1.412 . S
C1095 C1098 1.437 . S
C1095 C1099 1.335 . S
C1095 H1114 0.929 . S
C1096 C1097 1.426 . S
C1096 C1098 1.413 1_655 S
C1096 N1106 1.359 . S
C1097 C1094 1.417 . S
C1097 C1096 1.426 . S
C1097 N1102 1.350 . S
C1098 C1095 1.437 . S
C1098 C1096 1.413 1_455 S
C1098 C1108 1.391 . S
C1099 C1094 1.408 1_455 S
C1099 C1095 1.335 . S
C1099 H1110 0.936 . S
C1100 C1094 1.412 . S
C1100 C1101 1.355 . S
C1100 H1112 0.930 . S
C1101 C1100 1.355 . S
C1101 C1103 1.402 . S
C1101 H1113 0.930 . S
N1102 Gd1093 2.661 . S
N1102 C1097 1.350 . S
N1102 C1103 1.307 . S
C1103 C1101 1.402 . S
C1103 N1102 1.307 . S
C1103 H1104 0.930 . S
H1104 C1103 0.930 . S
C1105 N1106 1.334 1_455 S
C1105 C1107 1.394 . S
C1105 H1109 0.930 1_455 S
N1106 Gd1093 2.601 . S
N1106 C1096 1.359 . S
N1106 C1105 1.334 1_655 S
C1107 C1105 1.394 . S
C1107 C1108 1.359 . S
C1107 H1119 0.930 . S
C1108 C1098 1.391 . S
C1108 C1107 1.359 . S
C1108 H1120 0.929 . S
H1109 C1105 0.930 1_655 S
H1110 C1099 0.936 . S
H1111 C1128 0.930 . S
H1112 C1100 0.930 . S
H1113 C1101 0.930 . S
H1114 C1095 0.929 . S
H1115 C1133 0.930 . S
H1116 C1124 0.930 . S
H1117 C1125 0.930 . S
H1118 C1149 0.929 . S
H1119 C1107 0.930 . S
H1120 C1108 0.929 . S
H1121 C1150 0.930 . S
H1122 C1131 0.930 . S
N1123 Gd1092 2.661 . S
N1123 C1127 1.350 . S
N1123 C1128 1.307 . S
C1124 H1116 0.930 . S
C1124 C1125 1.355 . S
C1124 C1126 1.412 . S
C1125 H1117 0.930 . S
C1125 C1124 1.355 . S
C1125 C1128 1.402 . S
C1126 C1124 1.412 . S
C1126 C1127 1.417 . S
C1126 C1150 1.431 . S
C1127 N1123 1.350 . S
C1127 C1126 1.417 . S
C1127 C1130 1.426 . S
C1128 H1111 0.930 . S
C1128 N1123 1.307 . S
C1128 C1125 1.402 . S
N1129 Gd1092 2.601 . S
N1129 C1130 1.359 . S
N1129 C1133 1.334 . S
C1130 C1127 1.426 . S
C1130 N1129 1.359 . S
C1130 C1134 1.413 . S
C1131 H1122 0.930 . S
C1131 C1132 1.359 . S
C1131 C1133 1.394 . S
C1132 C1131 1.359 . S
C1132 C1134 1.391 . S
C1132 H1135 0.929 . S
C1133 H1115 0.930 . S
C1133 N1129 1.334 . S
C1133 C1131 1.394 . S
C1134 C1130 1.413 . S
C1134 C1132 1.391 . S
C1134 C1149 1.437 . S
H1135 C1132 0.929 . S
O1136 Gd1092 2.545 . S
O1136 C1151 1.258 . S
O1137 Gd1092 2.606 . S
O1137 Gd1093 2.362 . S
O1137 C1148 1.284 . S
O1138 Gd1093 2.324 . S
O1138 C1158 1.254 . S
O1139 Gd1092 2.429 . S
O1139 C1158 1.268 . S
O1140 Gd1092 2.545 . S
O1140 C1148 1.250 . S
O1141 Gd1092 2.412 . S
O1141 C1151 1.252 . S
O1142 Gd1093 2.545 . S
O1142 C1160 1.258 . S
O1143 Gd1092 2.362 . S
O1143 Gd1093 2.606 . S
O1143 C1159 1.284 . S
O1144 Gd1092 2.324 . S
O1144 C1167 1.254 . S
O1145 Gd1093 2.429 . S
O1145 C1167 1.268 . S
O1146 Gd1093 2.545 . S
O1146 C1159 1.250 . S
O1147 Gd1093 2.412 . S
O1147 C1160 1.252 . S
C1148 O1137 1.284 . S
C1148 O1140 1.250 . S
C1149 H1118 0.929 . S
C1149 C1134 1.437 . S
C1149 C1150 1.317 . S
C1150 H1121 0.930 . S
C1150 C1126 1.431 . S
C1150 C1149 1.317 . S
C1151 Gd1092 2.828 . S
C1151 O1136 1.258 . S
C1151 O1141 1.252 . S
C1151 C1152 1.497 . S
C1152 C1151 1.497 . S
C1152 C1153 1.395 . S
C1152 C1154 1.380 . S
C1153 C1152 1.395 . S
C1153 C1156 1.398 . S
C1153 H1168 0.930 . S
C1154 C1152 1.380 . S
C1154 C1155 1.391 . S
C1154 H1169 0.930 . S
C1155 C1154 1.391 . S
C1155 C1157 1.387 . S
C1156 C1153 1.398 . S
C1156 C1157 1.380 . S
C1156 H1170 0.930 . S
C1157 C1155 1.387 . S
C1157 C1156 1.380 . S
C1157 H1171 0.930 . S
C1158 O1138 1.254 . S
C1158 O1139 1.268 . S
C1159 O1143 1.284 . S
C1159 O1146 1.250 . S
C1160 Gd1093 2.828 . S
C1160 O1142 1.258 . S
C1160 O1147 1.252 . S
C1160 C1161 1.497 . S
C1161 C1160 1.497 . S
C1161 C1162 1.395 . S
C1161 C1163 1.380 . S
C1162 C1161 1.395 . S
C1162 C1165 1.398 . S
C1162 H1172 0.930 . S
C1163 C1161 1.380 . S
C1163 C1164 1.391 . S
C1163 H1173 0.930 . S
C1164 C1163 1.391 . S
C1164 C1166 1.387 . S
C1165 C1162 1.398 . S
C1165 C1166 1.380 . S
C1165 H1174 0.930 1_655 S
C1166 C1164 1.387 . S
C1166 C1165 1.380 . S
C1166 H1175 0.930 . S
C1167 O1144 1.254 . S
C1167 O1145 1.268 . S
H1168 C1153 0.930 . S
H1169 C1154 0.930 . S
H1170 C1156 0.930 . S
H1171 C1157 0.930 . S
H1172 C1162 0.930 . S
H1173 C1163 0.930 . S
H1174 C1165 0.930 1_455 S
H1175 C1166 0.930 . S
Gd1176 N1207 2.661 1_556 S
Gd1176 N1213 2.606 . S
Gd1176 O1220 2.545 1_556 S
Gd1176 O1221 2.606 . S
Gd1176 O1223 2.429 . S
Gd1176 O1224 2.545 . S
Gd1176 O1225 2.412 1_556 S
Gd1176 O1227 2.362 . S
Gd1176 O1228 2.324 1_556 S
Gd1176 C1235 2.828 1_556 S
Gd1177 N1186 2.661 . S
Gd1177 N1190 2.601 . S
Gd1177 O1221 2.362 . S
Gd1177 O1222 2.324 . S
Gd1177 O1226 2.545 . S
Gd1177 O1227 2.606 . S
Gd1177 O1229 2.429 . S
Gd1177 O1230 2.545 . S
Gd1177 O1231 2.412 . S
Gd1177 C1244 2.828 . S
C1178 C1181 1.417 . S
C1178 C1183 1.431 . S
C1178 C1184 1.412 . S
C1179 C1182 1.437 . S
C1179 C1183 1.317 . S
C1179 H1198 0.929 . S
C1180 C1181 1.426 . S
C1180 C1182 1.413 . S
C1180 N1190 1.359 . S
C1181 C1178 1.417 . S
C1181 C1180 1.426 . S
C1181 N1186 1.350 . S
C1182 C1179 1.437 . S
C1182 C1180 1.413 . S
C1182 C1192 1.391 . S
C1183 C1178 1.431 . S
C1183 C1179 1.317 . S
C1183 H1194 0.930 . S
C1184 C1178 1.412 . S
C1184 C1185 1.355 . S
C1184 H1196 0.930 . S
C1185 C1184 1.355 . S
C1185 C1187 1.402 . S
C1185 H1197 0.930 . S
N1186 Gd1177 2.661 . S
N1186 C1181 1.350 . S
N1186 C1187 1.307 . S
C1187 C1185 1.402 . S
C1187 N1186 1.307 . S
C1187 H1188 0.930 . S
H1188 C1187 0.930 . S
C1189 N1190 1.334 . S
C1189 C1191 1.394 . S
C1189 H1193 0.930 . S
N1190 Gd1177 2.601 . S
N1190 C1180 1.359 . S
N1190 C1189 1.334 . S
C1191 C1189 1.394 . S
C1191 C1192 1.359 . S
C1191 H1203 0.930 . S
C1192 C1182 1.391 . S
C1192 C1191 1.359 . S
C1192 H1204 0.929 . S
H1193 C1189 0.930 . S
H1194 C1183 0.930 . S
H1195 C1212 0.930 . S
H1196 C1184 0.930 . S
H1197 C1185 0.930 . S
H1198 C1179 0.929 . S
H1199 C1217 0.930 . S
H1200 C1208 0.930 . S
H1201 C1209 0.930 . S
H1202 C1233 0.929 . S
H1203 C1191 0.930 . S
H1204 C1192 0.929 . S
H1205 C1234 0.930 . S
H1206 C1215 0.930 . S
N1207 Gd1176 2.661 1_554 S
N1207 C1211 1.350 . S
N1207 C1212 1.307 . S
C1208 H1200 0.930 . S
C1208 C1209 1.355 . S
C1208 C1210 1.412 . S
C1209 H1201 0.930 . S
C1209 C1208 1.355 . S
C1209 C1212 1.402 . S
C1210 C1208 1.412 . S
C1210 C1211 1.417 . S
C1210 C1234 1.431 . S
C1211 N1207 1.350 . S
C1211 C1210 1.417 . S
C1211 C1214 1.426 . S
C1212 H1195 0.930 . S
C1212 N1207 1.307 . S
C1212 C1209 1.402 . S
N1213 Gd1176 2.606 . S
N1213 C1214 1.335 1_556 S
N1213 C1217 1.352 . S
C1214 C1211 1.426 . S
C1214 N1213 1.335 1_554 S
C1214 C1218 1.413 . S
C1215 H1206 0.930 . S
C1215 C1216 1.359 1_556 S
C1215 C1217 1.394 . S
C1216 C1215 1.359 1_554 S
C1216 C1218 1.391 . S
C1216 H1219 0.929 . S
C1217 H1199 0.930 . S
C1217 N1213 1.352 . S
C1217 C1215 1.394 . S
C1218 C1214 1.413 . S
C1218 C1216 1.391 . S
C1218 C1233 1.437 . S
H1219 C1216 0.929 . S
O1220 Gd1176 2.545 1_554 S
O1220 C1235 1.258 . S
O1221 Gd1176 2.606 . S
O1221 Gd1177 2.362 . S
O1221 C1232 1.284 . S
O1222 Gd1177 2.324 . S
O1222 C1242 1.254 . S
O1223 Gd1176 2.429 . S
O1223 C1242 1.268 . S
O1224 Gd1176 2.545 . S
O1224 C1232 1.250 . S
O1225 Gd1176 2.412 1_554 S
O1225 C1235 1.252 . S
O1226 Gd1177 2.545 . S
O1226 C1244 1.258 . S
O1227 Gd1176 2.362 . S
O1227 Gd1177 2.606 . S
O1227 C1243 1.284 . S
O1228 Gd1176 2.324 1_554 S
O1228 C1251 1.254 . S
O1229 Gd1177 2.429 . S
O1229 C1251 1.268 1_556 S
O1230 Gd1177 2.545 . S
O1230 C1243 1.250 . S
O1231 Gd1177 2.412 . S
O1231 C1244 1.252 . S
C1232 O1221 1.284 . S
C1232 O1224 1.250 . S
C1233 H1202 0.929 . S
C1233 C1218 1.437 . S
C1233 C1234 1.317 . S
C1234 H1205 0.930 . S
C1234 C1210 1.431 . S
C1234 C1233 1.317 . S
C1235 Gd1176 2.828 1_554 S
C1235 O1220 1.258 . S
C1235 O1225 1.252 . S
C1235 C1236 1.497 . S
C1236 C1235 1.497 . S
C1236 C1237 1.395 . S
C1236 C1238 1.380 . S
C1237 C1236 1.395 . S
C1237 C1240 1.398 . S
C1237 H1252 0.930 . S
C1238 C1236 1.380 . S
C1238 C1239 1.391 . S
C1238 H1253 0.930 . S
C1239 C1238 1.391 . S
C1239 C1241 1.387 . S
C1240 C1237 1.398 . S
C1240 C1241 1.380 . S
C1240 H1254 0.930 . S
C1241 C1239 1.387 . S
C1241 C1240 1.380 . S
C1241 H1255 0.930 . S
C1242 O1222 1.254 . S
C1242 O1223 1.268 . S
C1243 O1227 1.284 . S
C1243 O1230 1.250 . S
C1244 Gd1177 2.828 . S
C1244 O1226 1.258 . S
C1244 O1231 1.252 . S
C1244 C1245 1.497 . S
C1245 C1244 1.497 . S
C1245 C1246 1.395 . S
C1245 C1247 1.380 . S
C1246 C1245 1.395 . S
C1246 C1249 1.398 . S
C1246 H1256 0.930 . S
C1247 C1245 1.380 . S
C1247 C1248 1.391 . S
C1247 H1257 0.930 . S
C1248 C1247 1.391 . S
C1248 C1250 1.387 . S
C1249 C1246 1.398 . S
C1249 C1250 1.380 . S
C1249 H1258 0.930 . S
C1250 C1248 1.387 . S
C1250 C1249 1.380 . S
C1250 H1259 0.930 . S
C1251 O1228 1.254 . S
C1251 O1229 1.268 1_554 S
H1252 C1237 0.930 . S
H1253 C1238 0.930 . S
H1254 C1240 0.930 . S
H1255 C1241 0.930 . S
H1256 C1246 0.930 . S
H1257 C1247 0.930 . S
H1258 C1249 0.930 . S
H1259 C1250 0.930 . S
Gd1260 N1291 2.661 . S
Gd1260 N1297 2.601 . S
Gd1260 O1304 2.545 . S
Gd1260 O1305 2.606 . S
Gd1260 O1307 2.429 . S
Gd1260 O1308 2.545 . S
Gd1260 O1309 2.412 . S
Gd1260 O1311 2.362 . S
Gd1260 O1312 2.324 . S
Gd1260 C1319 2.828 . S
Gd1261 N1270 2.661 . S
Gd1261 N1274 2.601 . S
Gd1261 O1305 2.362 . S
Gd1261 O1306 2.324 . S
Gd1261 O1310 2.545 . S
Gd1261 O1311 2.606 . S
Gd1261 O1313 2.429 . S
Gd1261 O1314 2.545 . S
Gd1261 O1315 2.412 . S
Gd1261 C1328 2.828 . S
C1262 C1265 1.417 . S
C1262 C1267 1.431 . S
C1262 C1268 1.412 . S
C1263 C1266 1.437 . S
C1263 C1267 1.317 . S
C1263 H1282 0.929 . S
C1264 C1265 1.426 . S
C1264 C1266 1.413 . S
C1264 N1274 1.359 . S
C1265 C1262 1.417 . S
C1265 C1264 1.426 . S
C1265 N1270 1.350 . S
C1266 C1263 1.437 . S
C1266 C1264 1.413 . S
C1266 C1276 1.391 . S
C1267 C1262 1.431 . S
C1267 C1263 1.317 . S
C1267 H1278 0.930 . S
C1268 C1262 1.412 . S
C1268 C1269 1.355 . S
C1268 H1280 0.930 . S
C1269 C1268 1.355 . S
C1269 C1271 1.402 . S
C1269 H1281 0.930 . S
N1270 Gd1261 2.661 . S
N1270 C1265 1.350 . S
N1270 C1271 1.307 . S
C1271 C1269 1.402 . S
C1271 N1270 1.307 . S
C1271 H1272 0.930 . S
H1272 C1271 0.930 . S
C1273 N1274 1.334 . S
C1273 C1275 1.394 . S
C1273 H1277 0.930 . S
N1274 Gd1261 2.601 . S
N1274 C1264 1.359 . S
N1274 C1273 1.334 . S
C1275 C1273 1.394 . S
C1275 C1276 1.359 . S
C1275 H1287 0.930 . S
C1276 C1266 1.391 . S
C1276 C1275 1.359 . S
C1276 H1288 0.929 . S
H1277 C1273 0.930 . S
H1278 C1267 0.930 . S
H1279 C1296 0.930 . S
H1280 C1268 0.930 . S
H1281 C1269 0.930 . S
H1282 C1263 0.929 . S
H1283 C1301 0.930 . S
H1284 C1292 0.930 . S
H1285 C1293 0.930 . S
H1286 C1317 0.929 . S
H1287 C1275 0.930 . S
H1288 C1276 0.929 . S
H1289 C1318 0.930 . S
H1290 C1299 0.930 . S
N1291 Gd1260 2.661 . S
N1291 C1295 1.350 . S
N1291 C1296 1.307 . S
C1292 H1284 0.930 . S
C1292 C1293 1.355 . S
C1292 C1294 1.412 . S
C1293 H1285 0.930 . S
C1293 C1292 1.355 . S
C1293 C1296 1.402 . S
C1294 C1292 1.412 . S
C1294 C1295 1.417 . S
C1294 C1318 1.431 . S
C1295 N1291 1.350 . S
C1295 C1294 1.417 . S
C1295 C1298 1.426 . S
C1296 H1279 0.930 . S
C1296 N1291 1.307 . S
C1296 C1293 1.402 . S
N1297 Gd1260 2.601 . S
N1297 C1298 1.359 . S
N1297 C1301 1.334 . S
C1298 C1295 1.426 . S
C1298 N1297 1.359 . S
C1298 C1302 1.413 . S
C1299 H1290 0.930 . S
C1299 C1300 1.359 . S
C1299 C1301 1.394 . S
C1300 C1299 1.359 . S
C1300 C1302 1.391 . S
C1300 H1303 0.929 . S
C1301 H1283 0.930 . S
C1301 N1297 1.334 . S
C1301 C1299 1.394 . S
C1302 C1298 1.413 . S
C1302 C1300 1.391 . S
C1302 C1317 1.437 . S
H1303 C1300 0.929 . S
O1304 Gd1260 2.545 . S
O1304 C1319 1.258 . S
O1305 Gd1260 2.606 . S
O1305 Gd1261 2.362 . S
O1305 C1316 1.284 . S
O1306 Gd1261 2.324 . S
O1306 C1326 1.254 . S
O1307 Gd1260 2.429 . S
O1307 C1326 1.268 . S
O1308 Gd1260 2.545 . S
O1308 C1316 1.250 . S
O1309 Gd1260 2.412 . S
O1309 C1319 1.252 . S
O1310 Gd1261 2.545 . S
O1310 C1328 1.258 . S
O1311 Gd1260 2.362 . S
O1311 Gd1261 2.606 . S
O1311 C1327 1.284 . S
O1312 Gd1260 2.324 . S
O1312 C1335 1.254 . S
O1313 Gd1261 2.429 . S
O1313 C1335 1.268 . S
O1314 Gd1261 2.545 . S
O1314 C1327 1.250 . S
O1315 Gd1261 2.412 . S
O1315 C1328 1.252 . S
C1316 O1305 1.284 . S
C1316 O1308 1.250 . S
C1317 H1286 0.929 . S
C1317 C1302 1.437 . S
C1317 C1318 1.317 . S
C1318 H1289 0.930 . S
C1318 C1294 1.431 . S
C1318 C1317 1.317 . S
C1319 Gd1260 2.828 . S
C1319 O1304 1.258 . S
C1319 O1309 1.252 . S
C1319 C1320 1.497 . S
C1320 C1319 1.497 . S
C1320 C1321 1.395 . S
C1320 C1322 1.380 . S
C1321 C1320 1.395 . S
C1321 C1324 1.398 . S
C1321 H1336 0.930 . S
C1322 C1320 1.380 . S
C1322 C1323 1.391 . S
C1322 H1337 0.930 . S
C1323 C1322 1.391 . S
C1323 C1325 1.387 . S
C1324 C1321 1.398 . S
C1324 C1325 1.380 . S
C1324 H1338 0.930 . S
C1325 C1323 1.387 . S
C1325 C1324 1.380 . S
C1325 H1339 0.930 . S
C1326 O1306 1.254 . S
C1326 O1307 1.268 . S
C1327 O1311 1.284 . S
C1327 O1314 1.250 . S
C1328 Gd1261 2.828 . S
C1328 O1310 1.258 . S
C1328 O1315 1.252 . S
C1328 C1329 1.497 . S
C1329 C1328 1.497 . S
C1329 C1330 1.395 . S
C1329 C1331 1.380 . S
C1330 C1329 1.395 . S
C1330 C1333 1.398 . S
C1330 H1340 0.930 . S
C1331 C1329 1.380 . S
C1331 C1332 1.391 . S
C1331 H1341 0.930 . S
C1332 C1331 1.391 . S
C1332 C1334 1.387 . S
C1333 C1330 1.398 . S
C1333 C1334 1.380 . S
C1333 H1342 0.930 . S
C1334 C1332 1.387 . S
C1334 C1333 1.380 . S
C1334 H1343 0.930 . S
C1335 O1312 1.254 . S
C1335 O1313 1.268 . S
H1336 C1321 0.930 . S
H1337 C1322 0.930 . S
H1338 C1324 0.930 . S
H1339 C1325 0.930 . S
H1340 C1330 0.930 . S
H1341 C1331 0.930 . S
H1342 C1333 0.930 . S
H1343 C1334 0.930 . S
H1344 C1350 0.930 . S
H1345 C1354 0.930 . S
H1346 C1359 0.929 . S
H1347 C1357 0.929 . S
H1348 C1352 0.929 . S
H1349 C1358 0.929 . S
C1350 H1344 0.930 . S
C1350 C1351 1.367 . S
C1350 C1358 1.378 . S
C1351 C1350 1.367 . S
C1351 C1359 1.433 . S
C1352 H1348 0.929 . S
C1352 C1354 1.378 . S
C1352 C1356 1.350 . S
C1353 C1356 1.463 . S
C1353 C1358 1.350 . S
C1353 N1361 1.427 . S
C1354 H1345 0.930 . S
C1354 C1352 1.378 . S
C1354 C1355 1.367 . S
C1355 C1354 1.367 . S
C1355 C1357 1.433 . S
C1356 C1352 1.350 . S
C1356 C1353 1.463 . S
C1356 N1360 1.427 . S
C1357 H1347 0.929 . S
C1357 C1355 1.433 . S
C1357 N1360 1.384 . S
C1358 H1349 0.929 . S
C1358 C1350 1.378 . S
C1358 C1353 1.350 . S
C1359 H1346 0.929 . S
C1359 C1351 1.433 . S
C1359 N1361 1.384 . S
N1360 C1356 1.427 . S
N1360 C1357 1.384 . S
N1361 C1353 1.427 . S
N1361 C1359 1.384 . S
H1362 C1368 0.930 . S
H1363 C1372 0.930 . S
H1364 C1377 0.929 . S
H1365 C1375 0.929 . S
H1366 C1370 0.929 . S
H1367 C1376 0.929 . S
C1368 H1362 0.930 . S
C1368 C1369 1.367 . S
C1368 C1376 1.378 . S
C1369 C1368 1.367 . S
C1369 C1377 1.433 . S
C1370 H1366 0.929 . S
C1370 C1372 1.378 . S
C1370 C1374 1.350 . S
C1371 C1374 1.463 . S
C1371 C1376 1.350 . S
C1371 N1379 1.427 . S
C1372 H1363 0.930 . S
C1372 C1370 1.378 . S
C1372 C1373 1.367 . S
C1373 C1372 1.367 . S
C1373 C1375 1.433 . S
C1374 C1370 1.350 . S
C1374 C1371 1.463 . S
C1374 N1378 1.427 . S
C1375 H1365 0.929 . S
C1375 C1373 1.433 . S
C1375 N1378 1.384 . S
C1376 H1367 0.929 . S
C1376 C1368 1.378 . S
C1376 C1371 1.350 . S
C1377 H1364 0.929 . S
C1377 C1369 1.433 . S
C1377 N1379 1.384 . S
N1378 C1374 1.427 . S
N1378 C1375 1.384 . S
N1379 C1371 1.427 . S
N1379 C1377 1.384 . S
H1380 C1386 0.930 . S
H1381 C1390 0.930 . S
H1382 C1395 0.929 . S
H1383 C1393 0.929 . S
H1384 C1388 0.929 . S
H1385 C1394 0.929 . S
C1386 H1380 0.930 . S
C1386 C1387 1.367 . S
C1386 C1394 1.378 . S
C1387 C1386 1.367 . S
C1387 C1395 1.433 . S
C1388 H1384 0.929 . S
C1388 C1390 1.378 . S
C1388 C1392 1.350 . S
C1389 C1392 1.463 1_455 S
C1389 C1394 1.350 . S
C1389 N1397 1.427 . S
C1390 H1381 0.930 . S
C1390 C1388 1.378 . S
C1390 C1391 1.367 . S
C1391 C1390 1.367 . S
C1391 C1393 1.433 . S
C1392 C1388 1.350 . S
C1392 C1389 1.463 1_655 S
C1392 N1396 1.427 . S
C1393 H1383 0.929 . S
C1393 C1391 1.433 . S
C1393 N1396 1.384 . S
C1394 H1385 0.929 . S
C1394 C1386 1.378 . S
C1394 C1389 1.350 . S
C1395 H1382 0.929 . S
C1395 C1387 1.433 . S
C1395 N1397 1.384 . S
N1396 C1392 1.427 . S
N1396 C1393 1.384 . S
N1397 C1389 1.427 . S
N1397 C1395 1.384 . S
H1398 C1404 0.930 . S
H1399 C1408 0.930 . S
H1400 C1413 0.929 . S
H1401 C1411 0.929 . S
H1402 C1406 0.929 . S
H1403 C1412 0.929 . S
C1404 H1398 0.930 . S
C1404 C1405 1.367 . S
C1404 C1412 1.378 . S
C1405 C1404 1.367 . S
C1405 C1413 1.433 . S
C1406 H1402 0.929 . S
C1406 C1408 1.378 . S
C1406 C1410 1.350 . S
C1407 C1410 1.463 1_655 S
C1407 C1412 1.350 . S
C1407 N1415 1.427 . S
C1408 H1399 0.930 . S
C1408 C1406 1.378 . S
C1408 C1409 1.367 . S
C1409 C1408 1.367 . S
C1409 C1411 1.433 . S
C1410 C1406 1.350 . S
C1410 C1407 1.463 1_455 S
C1410 N1414 1.427 . S
C1411 H1401 0.929 . S
C1411 C1409 1.433 . S
C1411 N1414 1.384 . S
C1412 H1403 0.929 . S
C1412 C1404 1.378 . S
C1412 C1407 1.350 . S
C1413 H1400 0.929 . S
C1413 C1405 1.433 . S
C1413 N1415 1.384 . S
N1414 C1410 1.427 . S
N1414 C1411 1.384 . S
N1415 C1407 1.427 . S
N1415 C1413 1.384 . S
H1416 C1422 0.930 . S
H1417 C1426 0.930 . S
H1418 C1431 0.929 . S
H1419 C1429 0.929 . S
H1420 C1424 0.929 . S
H1421 C1430 0.929 . S
C1422 H1416 0.930 . S
C1422 C1423 1.367 . S
C1422 C1430 1.378 . S
C1423 C1422 1.367 . S
C1423 C1431 1.433 . S
C1424 H1420 0.929 . S
C1424 C1426 1.378 . S
C1424 C1428 1.350 . S
C1425 C1428 1.463 . S
C1425 C1430 1.350 . S
C1425 N1433 1.427 . S
C1426 H1417 0.930 . S
C1426 C1424 1.378 . S
C1426 C1427 1.367 . S
C1427 C1426 1.367 . S
C1427 C1429 1.433 . S
C1428 C1424 1.350 . S
C1428 C1425 1.463 . S
C1428 N1432 1.427 . S
C1429 H1419 0.929 . S
C1429 C1427 1.433 . S
C1429 N1432 1.384 . S
C1430 H1421 0.929 . S
C1430 C1422 1.378 . S
C1430 C1425 1.350 . S
C1431 H1418 0.929 . S
C1431 C1423 1.433 . S
C1431 N1433 1.384 . S
N1432 C1428 1.427 . S
N1432 C1429 1.384 . S
N1433 C1425 1.427 . S
N1433 C1431 1.384 . S
H1434 C1440 0.930 . S
H1435 C1444 0.930 . S
H1436 C1449 0.929 . S
H1437 C1447 0.929 . S
H1438 C1442 0.929 . S
H1439 C1448 0.929 . S
C1440 H1434 0.930 . S
C1440 C1441 1.367 . S
C1440 C1448 1.378 . S
C1441 C1440 1.367 . S
C1441 C1449 1.433 . S
C1442 H1438 0.929 . S
C1442 C1444 1.378 . S
C1442 C1446 1.350 . S
C1443 C1446 1.463 . S
C1443 C1448 1.350 . S
C1443 N1451 1.427 . S
C1444 H1435 0.930 . S
C1444 C1442 1.378 . S
C1444 C1445 1.367 . S
C1445 C1444 1.367 . S
C1445 C1447 1.433 . S
C1446 C1442 1.350 . S
C1446 C1443 1.463 . S
C1446 N1450 1.427 . S
C1447 H1437 0.929 . S
C1447 C1445 1.433 . S
C1447 N1450 1.384 . S
C1448 H1439 0.929 . S
C1448 C1440 1.378 . S
C1448 C1443 1.350 . S
C1449 H1436 0.929 . S
C1449 C1441 1.433 . S
C1449 N1451 1.384 . S
N1450 C1446 1.427 . S
N1450 C1447 1.384 . S
N1451 C1443 1.427 . S
N1451 C1449 1.384 . S
H1452 C1458 0.930 . S
H1453 C1462 0.930 . S
H1454 C1467 0.929 . S
H1455 C1465 0.929 . S
H1456 C1460 0.929 . S
H1457 C1466 0.929 . S
C1458 H1452 0.930 . S
C1458 C1459 1.367 . S
C1458 C1466 1.378 . S
C1459 C1458 1.367 . S
C1459 C1467 1.433 . S
C1460 H1456 0.929 . S
C1460 C1462 1.378 . S
C1460 C1464 1.350 . S
C1461 C1464 1.463 1_655 S
C1461 C1466 1.350 . S
C1461 N1469 1.427 . S
C1462 H1453 0.930 . S
C1462 C1460 1.378 . S
C1462 C1463 1.367 . S
C1463 C1462 1.367 . S
C1463 C1465 1.433 . S
C1464 C1460 1.350 . S
C1464 C1461 1.463 1_455 S
C1464 N1468 1.427 . S
C1465 H1455 0.929 . S
C1465 C1463 1.433 . S
C1465 N1468 1.384 . S
C1466 H1457 0.929 . S
C1466 C1458 1.378 . S
C1466 C1461 1.350 . S
C1467 H1454 0.929 . S
C1467 C1459 1.433 . S
C1467 N1469 1.384 . S
N1468 C1464 1.427 . S
N1468 C1465 1.384 . S
N1469 C1461 1.427 . S
N1469 C1467 1.384 . S
H1470 C1476 0.930 . S
H1471 C1480 0.930 . S
H1472 C1485 0.929 . S
H1473 C1483 0.929 . S
H1474 C1478 0.929 . S
H1475 C1484 0.929 . S
C1476 H1470 0.930 . S
C1476 C1477 1.367 . S
C1476 C1484 1.378 . S
C1477 C1476 1.367 . S
C1477 C1485 1.433 . S
C1478 H1474 0.929 . S
C1478 C1480 1.378 . S
C1478 C1482 1.350 . S
C1479 C1482 1.463 1_455 S
C1479 C1484 1.350 . S
C1479 N1487 1.427 . S
C1480 H1471 0.930 . S
C1480 C1478 1.378 . S
C1480 C1481 1.367 . S
C1481 C1480 1.367 . S
C1481 C1483 1.433 . S
C1482 C1478 1.350 . S
C1482 C1479 1.463 1_655 S
C1482 N1486 1.427 . S
C1483 H1473 0.929 . S
C1483 C1481 1.433 . S
C1483 N1486 1.384 . S
C1484 H1475 0.929 . S
C1484 C1476 1.378 . S
C1484 C1479 1.350 . S
C1485 H1472 0.929 . S
C1485 C1477 1.433 . S
C1485 N1487 1.384 . S
N1486 C1482 1.427 . S
N1486 C1483 1.384 . S
N1487 C1479 1.427 . S
N1487 C1485 1.384 . S
H1488 C1494 0.930 . S
H1489 C1498 0.951 . S
H1490 C1503 0.929 . S
H1491 C1501 0.929 . S
H1492 C1496 0.929 . S
H1493 C1502 0.929 . S
C1494 H1488 0.930 . S
C1494 C1495 1.367 . S
C1494 C1502 1.378 . S
C1495 C1494 1.367 . S
C1495 C1503 1.433 . S
C1496 H1492 0.929 . S
C1496 C1498 1.365 1_556 S
C1496 C1500 1.350 . S
C1497 C1500 1.463 . S
C1497 C1502 1.350 . S
C1497 N1505 1.427 . S
C1498 H1489 0.951 . S
C1498 C1496 1.365 1_554 S
C1498 C1499 1.359 1_554 S
C1499 C1498 1.359 1_556 S
C1499 C1501 1.433 . S
C1500 C1496 1.350 . S
C1500 C1497 1.463 . S
C1500 N1504 1.427 . S
C1501 H1491 0.929 . S
C1501 C1499 1.433 . S
C1501 N1504 1.384 . S
C1502 H1493 0.929 . S
C1502 C1494 1.378 . S
C1502 C1497 1.350 . S
C1503 H1490 0.929 . S
C1503 C1495 1.433 . S
C1503 N1505 1.384 . S
N1504 C1500 1.427 . S
N1504 C1501 1.384 . S
N1505 C1497 1.427 . S
N1505 C1503 1.384 . S
H1506 C1512 0.930 . S
H1507 C1516 0.930 . S
H1508 C1521 0.929 . S
H1509 C1519 0.929 . S
H1510 C1514 0.929 . S
H1511 C1520 0.929 . S
C1512 H1506 0.930 . S
C1512 C1513 1.367 . S
C1512 C1520 1.378 . S
C1513 C1512 1.367 . S
C1513 C1521 1.433 . S
C1514 H1510 0.929 . S
C1514 C1516 1.378 . S
C1514 C1518 1.350 . S
C1515 C1518 1.463 . S
C1515 C1520 1.350 . S
C1515 N1523 1.427 . S
C1516 H1507 0.930 . S
C1516 C1514 1.378 . S
C1516 C1517 1.367 . S
C1517 C1516 1.367 . S
C1517 C1519 1.433 . S
C1518 C1514 1.350 . S
C1518 C1515 1.463 . S
C1518 N1522 1.427 . S
C1519 H1509 0.929 . S
C1519 C1517 1.433 . S
C1519 N1522 1.384 . S
C1520 H1511 0.929 . S
C1520 C1512 1.378 . S
C1520 C1515 1.350 . S
C1521 H1508 0.929 . S
C1521 C1513 1.433 . S
C1521 N1523 1.384 . S
N1522 C1518 1.427 . S
N1522 C1519 1.384 . S
N1523 C1515 1.427 . S
N1523 C1521 1.384 . S
H1524 C1530 0.930 . S
H1525 C1534 0.930 . S
H1526 C1539 0.929 . S
H1527 C1537 0.929 . S
H1528 C1532 0.929 . S
H1529 C1538 0.929 . S
C1530 H1524 0.930 . S
C1530 C1531 1.367 . S
C1530 C1538 1.378 . S
C1531 C1530 1.367 . S
C1531 C1539 1.433 . S
C1532 H1528 0.929 . S
C1532 C1534 1.378 . S
C1532 C1536 1.350 . S
C1533 C1536 1.463 . S
C1533 C1538 1.350 . S
C1533 N1541 1.427 . S
C1534 H1525 0.930 . S
C1534 C1532 1.378 . S
C1534 C1535 1.367 . S
C1535 C1534 1.367 . S
C1535 C1537 1.433 . S
C1536 C1532 1.350 . S
C1536 C1533 1.463 . S
C1536 N1540 1.427 . S
C1537 H1527 0.929 . S
C1537 C1535 1.433 . S
C1537 N1540 1.384 . S
C1538 H1529 0.929 . S
C1538 C1530 1.378 . S
C1538 C1533 1.350 . S
C1539 H1526 0.929 . S
C1539 C1531 1.433 . S
C1539 N1541 1.384 . S
N1540 C1536 1.427 . S
N1540 C1537 1.384 . S
N1541 C1533 1.427 . S
N1541 C1539 1.384 . S
H1542 C1548 0.930 . S
H1543 C1552 0.930 . S
H1544 C1557 0.929 . S
H1545 C1555 0.929 . S
H1546 C1550 0.929 . S
H1547 C1556 0.929 . S
C1548 H1542 0.930 . S
C1548 C1549 1.367 . S
C1548 C1556 1.378 . S
C1549 C1548 1.367 . S
C1549 C1557 1.433 . S
C1550 H1546 0.929 . S
C1550 C1552 1.378 . S
C1550 C1554 1.350 . S
C1551 C1554 1.463 . S
C1551 C1556 1.350 . S
C1551 N1559 1.427 . S
C1552 H1543 0.930 . S
C1552 C1550 1.378 . S
C1552 C1553 1.367 . S
C1553 C1552 1.367 . S
C1553 C1555 1.433 . S
C1554 C1550 1.350 . S
C1554 C1551 1.463 . S
C1554 N1558 1.427 . S
C1555 H1545 0.929 . S
C1555 C1553 1.433 . S
C1555 N1558 1.384 . S
C1556 H1547 0.929 . S
C1556 C1548 1.378 . S
C1556 C1551 1.350 . S
C1557 H1544 0.929 . S
C1557 C1549 1.433 . S
C1557 N1559 1.384 . S
N1558 C1554 1.427 . S
N1558 C1555 1.384 . S
N1559 C1551 1.427 . S
N1559 C1557 1.384 . S
H1560 C1566 0.949 . S
H1561 C1570 0.930 . S
H1562 C1575 0.929 . S
H1563 C1573 0.929 . S
H1564 C1568 0.929 . S
H1565 C1574 0.929 . S
C1566 H1560 0.949 . S
C1566 C1567 1.360 1_556 S
C1566 C1574 1.366 1_556 S
C1567 C1566 1.360 1_554 S
C1567 C1575 1.433 . S
C1568 H1564 0.929 . S
C1568 C1570 1.378 . S
C1568 C1572 1.350 . S
C1569 C1572 1.463 . S
C1569 C1574 1.350 . S
C1569 N1577 1.427 . S
C1570 H1561 0.930 . S
C1570 C1568 1.378 . S
C1570 C1571 1.367 . S
C1571 C1570 1.367 . S
C1571 C1573 1.433 . S
C1572 C1568 1.350 . S
C1572 C1569 1.463 . S
C1572 N1576 1.427 . S
C1573 H1563 0.929 . S
C1573 C1571 1.433 . S
C1573 N1576 1.384 . S
C1574 H1565 0.929 . S
C1574 C1566 1.366 1_554 S
C1574 C1569 1.350 . S
C1575 H1562 0.929 . S
C1575 C1567 1.433 . S
C1575 N1577 1.384 . S
N1576 C1572 1.427 . S
N1576 C1573 1.384 . S
N1577 C1569 1.427 . S
N1577 C1575 1.384 . S
H1578 C1584 0.930 . S
H1579 C1588 0.930 . S
H1580 C1593 0.929 . S
H1581 C1591 0.929 . S
H1582 C1586 0.929 . S
H1583 C1592 0.929 . S
C1584 H1578 0.930 . S
C1584 C1585 1.367 . S
C1584 C1592 1.378 . S
C1585 C1584 1.367 . S
C1585 C1593 1.433 . S
C1586 H1582 0.929 . S
C1586 C1588 1.378 . S
C1586 C1590 1.350 . S
C1587 C1590 1.463 . S
C1587 C1592 1.350 . S
C1587 N1595 1.427 . S
C1588 H1579 0.930 . S
C1588 C1586 1.378 . S
C1588 C1589 1.367 . S
C1589 C1588 1.367 . S
C1589 C1591 1.433 . S
C1590 C1586 1.350 . S
C1590 C1587 1.463 . S
C1590 N1594 1.427 . S
C1591 H1581 0.929 . S
C1591 C1589 1.433 . S
C1591 N1594 1.384 . S
C1592 H1583 0.929 . S
C1592 C1584 1.378 . S
C1592 C1587 1.350 . S
C1593 H1580 0.929 . S
C1593 C1585 1.433 . S
C1593 N1595 1.384 . S
N1594 C1590 1.427 . S
N1594 C1591 1.384 . S
N1595 C1587 1.427 . S
N1595 C1593 1.384 . S
H1596 C1602 0.930 . S
H1597 C1606 0.930 . S
H1598 C1611 0.929 . S
H1599 C1609 0.929 . S
H1600 C1604 0.929 . S
H1601 C1610 0.929 . S
C1602 H1596 0.930 . S
C1602 C1603 1.367 . S
C1602 C1610 1.378 . S
C1603 C1602 1.367 . S
C1603 C1611 1.433 . S
C1604 H1600 0.929 . S
C1604 C1606 1.378 . S
C1604 C1608 1.350 . S
C1605 C1608 1.463 . S
C1605 C1610 1.350 . S
C1605 N1613 1.427 . S
C1606 H1597 0.930 . S
C1606 C1604 1.378 . S
C1606 C1607 1.367 . S
C1607 C1606 1.367 . S
C1607 C1609 1.433 . S
C1608 C1604 1.350 . S
C1608 C1605 1.463 . S
C1608 N1612 1.427 . S
C1609 H1599 0.929 . S
C1609 C1607 1.433 . S
C1609 N1612 1.384 . S
C1610 H1601 0.929 . S
C1610 C1602 1.378 . S
C1610 C1605 1.350 . S
C1611 H1598 0.929 . S
C1611 C1603 1.433 . S
C1611 N1613 1.384 . S
N1612 C1608 1.427 . S
N1612 C1609 1.384 . S
N1613 C1605 1.427 . S
N1613 C1611 1.384 . S
H1614 C1620 0.930 . S
H1615 C1624 0.930 . S
H1616 C1629 0.929 . S
H1617 C1627 0.929 . S
H1618 C1622 0.929 . S
H1619 C1628 0.929 . S
C1620 H1614 0.930 . S
C1620 C1621 1.367 . S
C1620 C1628 1.378 . S
C1621 C1620 1.367 . S
C1621 C1629 1.433 . S
C1622 H1618 0.929 . S
C1622 C1624 1.378 . S
C1622 C1626 1.350 . S
C1623 C1626 1.463 . S
C1623 C1628 1.350 . S
C1623 N1631 1.427 . S
C1624 H1615 0.930 . S
C1624 C1622 1.378 . S
C1624 C1625 1.367 . S
C1625 C1624 1.367 . S
C1625 C1627 1.433 . S
C1626 C1622 1.350 . S
C1626 C1623 1.463 . S
C1626 N1630 1.427 . S
C1627 H1617 0.929 . S
C1627 C1625 1.433 . S
C1627 N1630 1.384 . S
C1628 H1619 0.929 . S
C1628 C1620 1.378 . S
C1628 C1623 1.350 . S
C1629 H1616 0.929 . S
C1629 C1621 1.433 . S
C1629 N1631 1.384 . S
N1630 C1626 1.427 . S
N1630 C1627 1.384 . S
N1631 C1623 1.427 . S
N1631 C1629 1.384 . S
H1632 C1638 0.930 . S
H1633 C1642 0.930 . S
H1634 C1647 0.929 . S
H1635 C1645 0.929 . S
H1636 C1640 0.929 . S
H1637 C1646 0.929 . S
C1638 H1632 0.930 . S
C1638 C1639 1.367 . S
C1638 C1646 1.378 . S
C1639 C1638 1.367 . S
C1639 C1647 1.433 . S
C1640 H1636 0.929 . S
C1640 C1642 1.378 . S
C1640 C1644 1.350 . S
C1641 C1644 1.463 . S
C1641 C1646 1.350 . S
C1641 N1649 1.427 . S
C1642 H1633 0.930 . S
C1642 C1640 1.378 . S
C1642 C1643 1.367 . S
C1643 C1642 1.367 . S
C1643 C1645 1.433 . S
C1644 C1640 1.350 . S
C1644 C1641 1.463 . S
C1644 N1648 1.427 . S
C1645 H1635 0.929 . S
C1645 C1643 1.433 . S
C1645 N1648 1.384 . S
C1646 H1637 0.929 . S
C1646 C1638 1.378 . S
C1646 C1641 1.350 . S
C1647 H1634 0.929 . S
C1647 C1639 1.433 . S
C1647 N1649 1.384 . S
N1648 C1644 1.427 . S
N1648 C1645 1.384 . S
N1649 C1641 1.427 . S
N1649 C1647 1.384 . S
H1650 C1656 0.930 . S
H1651 C1660 0.930 . S
H1652 C1665 0.929 . S
H1653 C1663 0.929 . S
H1654 C1658 0.929 . S
H1655 C1664 0.929 . S
C1656 H1650 0.930 . S
C1656 C1657 1.367 . S
C1656 C1664 1.378 . S
C1657 C1656 1.367 . S
C1657 C1665 1.433 . S
C1658 H1654 0.929 . S
C1658 C1660 1.378 . S
C1658 C1662 1.350 . S
C1659 C1662 1.463 . S
C1659 C1664 1.350 1_565 S
C1659 N1667 1.427 . S
C1660 H1651 0.930 . S
C1660 C1658 1.378 . S
C1660 C1661 1.367 . S
C1661 C1660 1.367 . S
C1661 C1663 1.433 . S
C1662 C1658 1.350 . S
C1662 C1659 1.463 . S
C1662 N1666 1.427 . S
C1663 H1653 0.929 . S
C1663 C1661 1.433 . S
C1663 N1666 1.384 . S
C1664 H1655 0.929 . S
C1664 C1656 1.378 . S
C1664 C1659 1.350 1_545 S
C1665 H1652 0.929 . S
C1665 C1657 1.433 . S
C1665 N1667 1.384 1_545 S
N1666 C1662 1.427 . S
N1666 C1663 1.384 . S
N1667 C1659 1.427 . S
N1667 C1665 1.384 1_565 S
H1668 C1674 0.930 1_554 S
H1669 C1678 0.930 . S
H1670 C1683 0.929 . S
H1671 C1681 0.929 . S
H1672 C1676 0.929 . S
H1673 C1682 0.929 . S
C1674 H1668 0.930 1_556 S
C1674 C1675 1.367 . S
C1674 C1682 1.378 . S
C1675 C1674 1.367 . S
C1675 C1683 1.433 . S
C1676 H1672 0.929 . S
C1676 C1678 1.378 . S
C1676 C1680 1.350 . S
C1677 C1680 1.463 . S
C1677 C1682 1.350 . S
C1677 N1685 1.427 . S
C1678 H1669 0.930 . S
C1678 C1676 1.378 . S
C1678 C1679 1.367 . S
C1679 C1678 1.367 . S
C1679 C1681 1.433 . S
C1680 C1676 1.350 . S
C1680 C1677 1.463 . S
C1680 N1684 1.427 . S
C1681 H1671 0.929 . S
C1681 C1679 1.433 . S
C1681 N1684 1.384 . S
C1682 H1673 0.929 . S
C1682 C1674 1.378 . S
C1682 C1677 1.350 . S
C1683 H1670 0.929 . S
C1683 C1675 1.433 . S
C1683 N1685 1.384 . S
N1684 C1680 1.427 . S
N1684 C1681 1.384 . S
N1685 C1677 1.427 . S
N1685 C1683 1.384 . S
H1686 C1692 0.930 . S
H1687 C1696 0.930 . S
H1688 C1701 0.929 . S
H1689 C1699 0.929 . S
H1690 C1694 0.929 . S
H1691 C1700 0.929 . S
C1692 H1686 0.930 . S
C1692 C1693 1.367 . S
C1692 C1700 1.378 . S
C1693 C1692 1.367 . S
C1693 C1701 1.433 . S
C1694 H1690 0.929 . S
C1694 C1696 1.378 . S
C1694 C1698 1.350 . S
C1695 C1698 1.463 . S
C1695 C1700 1.350 1_545 S
C1695 N1703 1.427 . S
C1696 H1687 0.930 . S
C1696 C1694 1.378 . S
C1696 C1697 1.367 . S
C1697 C1696 1.367 . S
C1697 C1699 1.433 . S
C1698 C1694 1.350 . S
C1698 C1695 1.463 . S
C1698 N1702 1.427 . S
C1699 H1689 0.929 . S
C1699 C1697 1.433 . S
C1699 N1702 1.384 . S
C1700 H1691 0.929 . S
C1700 C1692 1.378 . S
C1700 C1695 1.350 1_565 S
C1701 H1688 0.929 . S
C1701 C1693 1.433 . S
C1701 N1703 1.384 1_565 S
N1702 C1698 1.427 . S
N1702 C1699 1.384 . S
N1703 C1695 1.427 . S
N1703 C1701 1.384 1_545 S
H1704 C1710 0.930 . S
H1705 C1714 0.930 . S
H1706 C1719 0.929 . S
H1707 C1717 0.929 . S
H1708 C1712 0.929 . S
H1709 C1718 0.929 . S
C1710 H1704 0.930 . S
C1710 C1711 1.367 . S
C1710 C1718 1.378 . S
C1711 C1710 1.367 . S
C1711 C1719 1.433 . S
C1712 H1708 0.929 . S
C1712 C1714 1.378 . S
C1712 C1716 1.350 . S
C1713 C1716 1.463 . S
C1713 C1718 1.350 . S
C1713 N1721 1.427 . S
C1714 H1705 0.930 . S
C1714 C1712 1.378 . S
C1714 C1715 1.367 . S
C1715 C1714 1.367 . S
C1715 C1717 1.433 . S
C1716 C1712 1.350 . S
C1716 C1713 1.463 . S
C1716 N1720 1.427 . S
C1717 H1707 0.929 . S
C1717 C1715 1.433 . S
C1717 N1720 1.384 . S
C1718 H1709 0.929 . S
C1718 C1710 1.378 . S
C1718 C1713 1.350 . S
C1719 H1706 0.929 . S
C1719 C1711 1.433 . S
C1719 N1721 1.384 . S
N1720 C1716 1.427 . S
N1720 C1717 1.384 . S
N1721 C1713 1.427 . S
N1721 C1719 1.384 . S
H1722 C1728 0.930 . S
H1723 C1732 0.930 . S
H1724 C1737 0.929 . S
H1725 C1735 0.929 . S
H1726 C1730 0.929 . S
H1727 C1736 0.929 . S
C1728 H1722 0.930 . S
C1728 C1729 1.367 . S
C1728 C1736 1.378 . S
C1729 C1728 1.367 . S
C1729 C1737 1.433 . S
C1730 H1726 0.929 . S
C1730 C1732 1.378 1_545 S
C1730 C1734 1.350 . S
C1731 C1734 1.463 . S
C1731 C1736 1.350 . S
C1731 N1739 1.427 . S
C1732 H1723 0.930 . S
C1732 C1730 1.378 1_565 S
C1732 C1733 1.367 . S
C1733 C1732 1.367 . S
C1733 C1735 1.433 . S
C1734 C1730 1.350 . S
C1734 C1731 1.463 . S
C1734 N1738 1.427 1_545 S
C1735 H1725 0.929 . S
C1735 C1733 1.433 . S
C1735 N1738 1.384 . S
C1736 H1727 0.929 . S
C1736 C1728 1.378 . S
C1736 C1731 1.350 . S
C1737 H1724 0.929 . S
C1737 C1729 1.433 . S
C1737 N1739 1.384 . S
N1738 C1734 1.427 1_565 S
N1738 C1735 1.384 . S
N1739 C1731 1.427 . S
N1739 C1737 1.384 . S
H1740 C1746 0.930 . S
H1741 C1750 0.930 . S
H1742 C1755 0.929 . S
H1743 C1753 0.929 . S
H1744 C1748 0.929 . S
H1745 C1754 0.929 . S
C1746 H1740 0.930 . S
C1746 C1747 1.367 . S
C1746 C1754 1.378 . S
C1747 C1746 1.367 . S
C1747 C1755 1.433 . S
C1748 H1744 0.929 . S
C1748 C1750 1.378 . S
C1748 C1752 1.350 . S
C1749 C1752 1.463 . S
C1749 C1754 1.350 . S
C1749 N1757 1.427 . S
C1750 H1741 0.930 . S
C1750 C1748 1.378 . S
C1750 C1751 1.367 . S
C1751 C1750 1.367 . S
C1751 C1753 1.433 . S
C1752 C1748 1.350 . S
C1752 C1749 1.463 . S
C1752 N1756 1.427 . S
C1753 H1743 0.929 . S
C1753 C1751 1.433 . S
C1753 N1756 1.384 . S
C1754 H1745 0.929 . S
C1754 C1746 1.378 . S
C1754 C1749 1.350 . S
C1755 H1742 0.929 . S
C1755 C1747 1.433 . S
C1755 N1757 1.384 . S
N1756 C1752 1.427 . S
N1756 C1753 1.384 . S
N1757 C1749 1.427 . S
N1757 C1755 1.384 . S
H1758 C1764 0.930 . S
H1759 C1768 0.930 . S
H1760 C1773 0.929 . S
H1761 C1771 0.929 . S
H1762 C1766 0.929 . S
H1763 C1772 0.929 . S
C1764 H1758 0.930 . S
C1764 C1765 1.367 . S
C1764 C1772 1.378 . S
C1765 C1764 1.367 . S
C1765 C1773 1.433 . S
C1766 H1762 0.929 . S
C1766 C1768 1.378 . S
C1766 C1770 1.350 . S
C1767 C1770 1.463 . S
C1767 C1772 1.350 1_565 S
C1767 N1775 1.427 . S
C1768 H1759 0.930 . S
C1768 C1766 1.378 . S
C1768 C1769 1.367 . S
C1769 C1768 1.367 . S
C1769 C1771 1.433 . S
C1770 C1766 1.350 . S
C1770 C1767 1.463 . S
C1770 N1774 1.427 . S
C1771 H1761 0.929 . S
C1771 C1769 1.433 . S
C1771 N1774 1.384 . S
C1772 H1763 0.929 . S
C1772 C1764 1.378 . S
C1772 C1767 1.350 1_545 S
C1773 H1760 0.929 . S
C1773 C1765 1.433 . S
C1773 N1775 1.384 1_545 S
N1774 C1770 1.427 . S
N1774 C1771 1.384 . S
N1775 C1767 1.427 . S
N1775 C1773 1.384 1_565 S
H1776 C1782 0.930 . S
H1777 C1786 0.930 . S
H1778 C1791 0.929 . S
H1779 C1789 0.929 . S
H1780 C1784 0.929 . S
H1781 C1790 0.929 . S
C1782 H1776 0.930 . S
C1782 C1783 1.367 . S
C1782 C1790 1.378 . S
C1783 C1782 1.367 . S
C1783 C1791 1.433 . S
C1784 H1780 0.929 . S
C1784 C1786 1.378 . S
C1784 C1788 1.350 . S
C1785 C1788 1.463 . S
C1785 C1790 1.350 . S
C1785 N1793 1.427 . S
C1786 H1777 0.930 . S
C1786 C1784 1.378 . S
C1786 C1787 1.367 . S
C1787 C1786 1.367 . S
C1787 C1789 1.433 . S
C1788 C1784 1.350 . S
C1788 C1785 1.463 . S
C1788 N1792 1.427 . S
C1789 H1779 0.929 . S
C1789 C1787 1.433 . S
C1789 N1792 1.384 . S
C1790 H1781 0.929 . S
C1790 C1782 1.378 . S
C1790 C1785 1.350 . S
C1791 H1778 0.929 . S
C1791 C1783 1.433 . S
C1791 N1793 1.384 . S
N1792 C1788 1.427 . S
N1792 C1789 1.384 . S
N1793 C1785 1.427 . S
N1793 C1791 1.384 . S
H1794 C1800 0.930 . S
H1795 C1804 0.930 . S
H1796 C1809 0.929 . S
H1797 C1807 0.929 1_556 S
H1798 C1802 0.929 . S
H1799 C1808 0.929 . S
C1800 H1794 0.930 . S
C1800 C1801 1.367 . S
C1800 C1808 1.378 . S
C1801 C1800 1.367 . S
C1801 C1809 1.433 . S
C1802 H1798 0.929 . S
C1802 C1804 1.378 . S
C1802 C1806 1.350 . S
C1803 C1806 1.463 . S
C1803 C1808 1.350 . S
C1803 N1811 1.427 . S
C1804 H1795 0.930 . S
C1804 C1802 1.378 . S
C1804 C1805 1.367 . S
C1805 C1804 1.367 . S
C1805 C1807 1.433 . S
C1806 C1802 1.350 . S
C1806 C1803 1.463 . S
C1806 N1810 1.427 . S
C1807 H1797 0.929 1_554 S
C1807 C1805 1.433 . S
C1807 N1810 1.384 . S
C1808 H1799 0.929 . S
C1808 C1800 1.378 . S
C1808 C1803 1.350 . S
C1809 H1796 0.929 . S
C1809 C1801 1.433 . S
C1809 N1811 1.384 . S
N1810 C1806 1.427 . S
N1810 C1807 1.384 . S
N1811 C1803 1.427 . S
N1811 C1809 1.384 . S
H1812 C1818 0.930 . S
H1813 C1822 0.930 . S
H1814 C1827 0.929 . S
H1815 C1825 0.929 . S
H1816 C1820 0.929 . S
H1817 C1826 0.929 1_455 S
C1818 H1812 0.930 . S
C1818 C1819 1.367 . S
C1818 C1826 1.378 . S
C1819 C1818 1.367 . S
C1819 C1827 1.433 . S
C1820 H1816 0.929 . S
C1820 C1822 1.378 . S
C1820 C1824 1.350 . S
C1821 C1824 1.463 . S
C1821 C1826 1.350 . S
C1821 N1829 1.427 . S
C1822 H1813 0.930 . S
C1822 C1820 1.378 . S
C1822 C1823 1.367 1_655 S
C1823 C1822 1.367 1_455 S
C1823 C1825 1.433 . S
C1824 C1820 1.350 . S
C1824 C1821 1.463 . S
C1824 N1828 1.427 1_655 S
C1825 H1815 0.929 . S
C1825 C1823 1.433 . S
C1825 N1828 1.384 . S
C1826 H1817 0.929 1_655 S
C1826 C1818 1.378 . S
C1826 C1821 1.350 . S
C1827 H1814 0.929 . S
C1827 C1819 1.433 . S
C1827 N1829 1.384 . S
N1828 C1824 1.427 1_455 S
N1828 C1825 1.384 . S
N1829 C1821 1.427 . S
N1829 C1827 1.384 . S
H1830 C1836 0.930 . S
H1831 C1840 0.930 . S
H1832 C1845 0.929 . S
H1833 C1843 0.929 . S
H1834 C1838 0.929 . S
H1835 C1844 0.929 . S
C1836 H1830 0.930 . S
C1836 C1837 1.367 . S
C1836 C1844 1.378 . S
C1837 C1836 1.367 . S
C1837 C1845 1.433 . S
C1838 H1834 0.929 . S
C1838 C1840 1.378 . S
C1838 C1842 1.350 . S
C1839 C1842 1.463 . S
C1839 C1844 1.350 . S
C1839 N1847 1.427 . S
C1840 H1831 0.930 . S
C1840 C1838 1.378 . S
C1840 C1841 1.367 . S
C1841 C1840 1.367 . S
C1841 C1843 1.433 . S
C1842 C1838 1.350 . S
C1842 C1839 1.463 . S
C1842 N1846 1.427 . S
C1843 H1833 0.929 . S
C1843 C1841 1.433 . S
C1843 N1846 1.384 . S
C1844 H1835 0.929 . S
C1844 C1836 1.378 . S
C1844 C1839 1.350 . S
C1845 H1832 0.929 . S
C1845 C1837 1.433 . S
C1845 N1847 1.384 . S
N1846 C1842 1.427 . S
N1846 C1843 1.384 . S
N1847 C1839 1.427 . S
N1847 C1845 1.384 . S
H1848 C1854 0.930 . S
H1849 C1858 0.930 . S
H1850 C1863 0.929 . S
H1851 C1861 0.929 . S
H1852 C1856 0.929 . S
H1853 C1862 0.929 . S
C1854 H1848 0.930 . S
C1854 C1855 1.367 . S
C1854 C1862 1.378 . S
C1855 C1854 1.367 . S
C1855 C1863 1.433 . S
C1856 H1852 0.929 . S
C1856 C1858 1.378 . S
C1856 C1860 1.350 . S
C1857 C1860 1.463 . S
C1857 C1862 1.350 . S
C1857 N1865 1.427 . S
C1858 H1849 0.930 . S
C1858 C1856 1.378 . S
C1858 C1859 1.367 . S
C1859 C1858 1.367 . S
C1859 C1861 1.433 . S
C1860 C1856 1.350 . S
C1860 C1857 1.463 . S
C1860 N1864 1.427 . S
C1861 H1851 0.929 . S
C1861 C1859 1.433 . S
C1861 N1864 1.384 . S
C1862 H1853 0.929 . S
C1862 C1854 1.378 . S
C1862 C1857 1.350 . S
C1863 H1850 0.929 . S
C1863 C1855 1.433 . S
C1863 N1865 1.384 . S
N1864 C1860 1.427 . S
N1864 C1861 1.384 . S
N1865 C1857 1.427 . S
N1865 C1863 1.384 . S
H1866 C1872 0.930 . S
H1867 C1876 0.930 1_554 S
H1868 C1881 0.929 . S
H1869 C1879 0.929 . S
H1870 C1874 0.929 . S
H1871 C1880 0.929 . S
C1872 H1866 0.930 . S
C1872 C1873 1.367 . S
C1872 C1880 1.378 . S
C1873 C1872 1.367 . S
C1873 C1881 1.433 . S
C1874 H1870 0.929 . S
C1874 C1876 1.378 . S
C1874 C1878 1.350 . S
C1875 C1878 1.463 . S
C1875 C1880 1.350 . S
C1875 N1883 1.427 . S
C1876 H1867 0.930 1_556 S
C1876 C1874 1.378 . S
C1876 C1877 1.367 . S
C1877 C1876 1.367 . S
C1877 C1879 1.433 . S
C1878 C1874 1.350 . S
C1878 C1875 1.463 . S
C1878 N1882 1.427 . S
C1879 H1869 0.929 . S
C1879 C1877 1.433 . S
C1879 N1882 1.384 . S
C1880 H1871 0.929 . S
C1880 C1872 1.378 . S
C1880 C1875 1.350 . S
C1881 H1868 0.929 . S
C1881 C1873 1.433 . S
C1881 N1883 1.384 . S
N1882 C1878 1.427 . S
N1882 C1879 1.384 . S
N1883 C1875 1.427 . S
N1883 C1881 1.384 . S
H1884 C1890 0.930 . S
H1885 C1894 0.930 . S
H1886 C1899 0.929 . S
H1887 C1897 0.929 . S
H1888 C1892 0.929 . S
H1889 C1898 0.959 . S
C1890 H1884 0.930 . S
C1890 C1891 1.367 . S
C1890 C1898 1.378 . S
C1891 C1890 1.367 . S
C1891 C1899 1.433 . S
C1892 H1888 0.929 . S
C1892 C1894 1.378 . S
C1892 C1896 1.350 . S
C1893 C1896 1.463 . S
C1893 C1898 1.350 . S
C1893 N1901 1.427 . S
C1894 H1885 0.930 . S
C1894 C1892 1.378 . S
C1894 C1895 1.367 1_455 S
C1895 C1894 1.367 1_655 S
C1895 C1897 1.433 . S
C1896 C1892 1.350 . S
C1896 C1893 1.463 . S
C1896 N1900 1.427 1_455 S
C1897 H1887 0.929 . S
C1897 C1895 1.433 . S
C1897 N1900 1.384 . S
C1898 H1889 0.959 . S
C1898 C1890 1.378 . S
C1898 C1893 1.350 . S
C1899 H1886 0.929 . S
C1899 C1891 1.433 . S
C1899 N1901 1.384 . S
N1900 C1896 1.427 1_655 S
N1900 C1897 1.384 . S
N1901 C1893 1.427 . S
N1901 C1899 1.384 . S
H1902 C1908 0.930 . S
H1903 C1912 0.930 . S
H1904 C1917 0.929 . S
H1905 C1915 0.929 . S
H1906 C1910 0.929 . S
H1907 C1916 0.929 . S
C1908 H1902 0.930 . S
C1908 C1909 1.367 . S
C1908 C1916 1.378 . S
C1909 C1908 1.367 . S
C1909 C1917 1.433 . S
C1910 H1906 0.929 . S
C1910 C1912 1.378 . S
C1910 C1914 1.350 . S
C1911 C1914 1.463 . S
C1911 C1916 1.350 . S
C1911 N1919 1.427 . S
C1912 H1903 0.930 . S
C1912 C1910 1.378 . S
C1912 C1913 1.367 . S
C1913 C1912 1.367 . S
C1913 C1915 1.433 . S
C1914 C1910 1.350 . S
C1914 C1911 1.463 . S
C1914 N1918 1.427 . S
C1915 H1905 0.929 . S
C1915 C1913 1.433 . S
C1915 N1918 1.384 . S
C1916 H1907 0.929 . S
C1916 C1908 1.378 . S
C1916 C1911 1.350 . S
C1917 H1904 0.929 . S
C1917 C1909 1.433 . S
C1917 N1919 1.384 . S
N1918 C1914 1.427 . S
N1918 C1915 1.384 . S
N1919 C1911 1.427 . S
N1919 C1917 1.384 . S
H1920 C1926 0.930 . S
H1921 C1930 0.930 . S
H1922 C1935 0.929 . S
H1923 C1933 0.929 . S
H1924 C1928 0.929 . S
H1925 C1934 0.929 . S
C1926 H1920 0.930 . S
C1926 C1927 1.367 . S
C1926 C1934 1.378 . S
C1927 C1926 1.367 . S
C1927 C1935 1.433 . S
C1928 H1924 0.929 . S
C1928 C1930 1.378 . S
C1928 C1932 1.350 . S
C1929 C1932 1.463 . S
C1929 C1934 1.350 1_455 S
C1929 N1937 1.427 . S
C1930 H1921 0.930 . S
C1930 C1928 1.378 . S
C1930 C1931 1.367 . S
C1931 C1930 1.367 . S
C1931 C1933 1.433 . S
C1932 C1928 1.350 . S
C1932 C1929 1.463 . S
C1932 N1936 1.427 . S
C1933 H1923 0.929 . S
C1933 C1931 1.433 . S
C1933 N1936 1.384 . S
C1934 H1925 0.929 . S
C1934 C1926 1.378 . S
C1934 C1929 1.350 1_655 S
C1935 H1922 0.929 . S
C1935 C1927 1.433 . S
C1935 N1937 1.384 1_655 S
N1936 C1932 1.427 . S
N1936 C1933 1.384 . S
N1937 C1929 1.427 . S
N1937 C1935 1.384 1_455 S
H1938 C1944 0.930 . S
H1939 C1948 0.930 . S
H1940 C1953 0.929 . S
H1941 C1951 0.929 . S
H1942 C1946 0.929 . S
H1943 C1952 0.929 . S
C1944 H1938 0.930 . S
C1944 C1945 1.367 . S
C1944 C1952 1.378 . S
C1945 C1944 1.367 . S
C1945 C1953 1.433 . S
C1946 H1942 0.929 . S
C1946 C1948 1.378 . S
C1946 C1950 1.350 . S
C1947 C1950 1.463 . S
C1947 C1952 1.350 . S
C1947 N1955 1.427 . S
C1948 H1939 0.930 . S
C1948 C1946 1.378 . S
C1948 C1949 1.367 . S
C1949 C1948 1.367 . S
C1949 C1951 1.433 . S
C1950 C1946 1.350 . S
C1950 C1947 1.463 . S
C1950 N1954 1.427 . S
C1951 H1941 0.929 . S
C1951 C1949 1.433 . S
C1951 N1954 1.384 . S
C1952 H1943 0.929 . S
C1952 C1944 1.378 . S
C1952 C1947 1.350 . S
C1953 H1940 0.929 . S
C1953 C1945 1.433 . S
C1953 N1955 1.384 . S
N1954 C1950 1.427 . S
N1954 C1951 1.384 . S
N1955 C1947 1.427 . S
N1955 C1953 1.384 . S
H1956 C1962 0.930 . S
H1957 C1966 0.930 . S
H1958 C1971 0.929 . S
H1959 C1969 0.929 . S
H1960 C1964 0.929 . S
H1961 C1970 0.929 . S
C1962 H1956 0.930 . S
C1962 C1963 1.367 . S
C1962 C1970 1.378 . S
C1963 C1962 1.367 . S
C1963 C1971 1.433 . S
C1964 H1960 0.929 . S
C1964 C1966 1.378 . S
C1964 C1968 1.350 . S
C1965 C1968 1.463 . S
C1965 C1970 1.350 . S
C1965 N1973 1.427 . S
C1966 H1957 0.930 . S
C1966 C1964 1.378 . S
C1966 C1967 1.367 . S
C1967 C1966 1.367 . S
C1967 C1969 1.433 . S
C1968 C1964 1.350 . S
C1968 C1965 1.463 . S
C1968 N1972 1.427 . S
C1969 H1959 0.929 . S
C1969 C1967 1.433 . S
C1969 N1972 1.384 . S
C1970 H1961 0.929 . S
C1970 C1962 1.378 . S
C1970 C1965 1.350 . S
C1971 H1958 0.929 . S
C1971 C1963 1.433 . S
C1971 N1973 1.384 . S
N1972 C1968 1.427 . S
N1972 C1969 1.384 . S
N1973 C1965 1.427 . S
N1973 C1971 1.384 . S
H1974 C1980 0.930 . S
H1975 C1984 0.930 . S
H1976 C1989 0.929 . S
H1977 C1987 0.929 . S
H1978 C1982 0.929 . S
H1979 C1988 0.929 . S
C1980 H1974 0.930 . S
C1980 C1981 1.367 . S
C1980 C1988 1.378 . S
C1981 C1980 1.367 . S
C1981 C1989 1.433 . S
C1982 H1978 0.929 . S
C1982 C1984 1.378 . S
C1982 C1986 1.350 . S
C1983 C1986 1.463 . S
C1983 C1988 1.350 . S
C1983 N1991 1.427 . S
C1984 H1975 0.930 . S
C1984 C1982 1.378 . S
C1984 C1985 1.367 . S
C1985 C1984 1.367 . S
C1985 C1987 1.433 . S
C1986 C1982 1.350 . S
C1986 C1983 1.463 . S
C1986 N1990 1.427 . S
C1987 H1977 0.929 . S
C1987 C1985 1.433 . S
C1987 N1990 1.384 . S
C1988 H1979 0.929 . S
C1988 C1980 1.378 . S
C1988 C1983 1.350 . S
C1989 H1976 0.929 . S
C1989 C1981 1.433 . S
C1989 N1991 1.384 . S
N1990 C1986 1.427 . S
N1990 C1987 1.384 . S
N1991 C1983 1.427 . S
N1991 C1989 1.384 . S
H1992 C1998 0.930 . S
H1993 C2002 0.930 . S
H1994 C2007 0.929 . S
H1995 C2005 0.929 . S
H1996 C2000 0.929 . S
H1997 C2006 0.923 1_655 S
C1998 H1992 0.930 . S
C1998 C1999 1.367 . S
C1998 C2006 1.395 . S
C1999 C1998 1.367 . S
C1999 C2007 1.433 . S
C2000 H1996 0.929 . S
C2000 C2002 1.378 . S
C2000 C2004 1.350 . S
C2001 C2004 1.463 . S
C2001 C2006 1.340 1_655 S
C2001 N2009 1.427 . S
C2002 H1993 0.930 . S
C2002 C2000 1.378 . S
C2002 C2003 1.367 . S
C2003 C2002 1.367 . S
C2003 C2005 1.433 . S
C2004 C2000 1.350 . S
C2004 C2001 1.463 . S
C2004 N2008 1.427 . S
C2005 H1995 0.929 . S
C2005 C2003 1.433 . S
C2005 N2008 1.384 . S
C2006 H1997 0.923 1_455 S
C2006 C1998 1.395 . S
C2006 C2001 1.340 1_455 S
C2007 H1994 0.929 . S
C2007 C1999 1.433 . S
C2007 N2009 1.384 1_455 S
N2008 C2004 1.427 . S
N2008 C2005 1.384 . S
N2009 C2001 1.427 . S
N2009 C2007 1.384 1_655 S
H2010 C2016 0.930 . S
H2011 C2020 0.930 . S
H2012 C2025 0.929 . S
H2013 C2023 0.929 . S
H2014 C2018 0.929 . S
H2015 C2024 0.929 . S
C2016 H2010 0.930 . S
C2016 C2017 1.367 . S
C2016 C2024 1.378 . S
C2017 C2016 1.367 . S
C2017 C2025 1.433 . S
C2018 H2014 0.929 . S
C2018 C2020 1.378 . S
C2018 C2022 1.350 . S
C2019 C2022 1.463 . S
C2019 C2024 1.350 . S
C2019 N2027 1.427 . S
C2020 H2011 0.930 . S
C2020 C2018 1.378 . S
C2020 C2021 1.367 . S
C2021 C2020 1.367 . S
C2021 C2023 1.433 . S
C2022 C2018 1.350 . S
C2022 C2019 1.463 . S
C2022 N2026 1.427 . S
C2023 H2013 0.929 . S
C2023 C2021 1.433 . S
C2023 N2026 1.384 . S
C2024 H2015 0.929 . S
C2024 C2016 1.378 . S
C2024 C2019 1.350 . S
C2025 H2012 0.929 . S
C2025 C2017 1.433 . S
C2025 N2027 1.384 . S
N2026 C2022 1.427 . S
N2026 C2023 1.384 . S
N2027 C2019 1.427 . S
N2027 C2025 1.384 . S
H2028 C2034 0.930 . S
H2029 C2038 0.930 . S
H2030 C2043 0.929 . S
H2031 C2041 0.929 . S
H2032 C2036 0.929 . S
H2033 C2042 0.929 . S
C2034 H2028 0.930 . S
C2034 C2035 1.367 . S
C2034 C2042 1.378 . S
C2035 C2034 1.367 . S
C2035 C2043 1.433 . S
C2036 H2032 0.929 . S
C2036 C2038 1.378 . S
C2036 C2040 1.350 . S
C2037 C2040 1.463 . S
C2037 C2042 1.350 . S
C2037 N2045 1.427 . S
C2038 H2029 0.930 . S
C2038 C2036 1.378 . S
C2038 C2039 1.367 . S
C2039 C2038 1.367 . S
C2039 C2041 1.433 . S
C2040 C2036 1.350 . S
C2040 C2037 1.463 . S
C2040 N2044 1.427 . S
C2041 H2031 0.929 . S
C2041 C2039 1.433 . S
C2041 N2044 1.384 . S
C2042 H2033 0.929 . S
C2042 C2034 1.378 . S
C2042 C2037 1.350 . S
C2043 H2030 0.929 . S
C2043 C2035 1.433 . S
C2043 N2045 1.384 . S
N2044 C2040 1.427 . S
N2044 C2041 1.384 . S
N2045 C2037 1.427 . S
N2045 C2043 1.384 . S
H2046 C2052 0.930 . S
H2047 C2056 0.930 . S
H2048 C2061 0.929 . S
H2049 C2059 0.929 . S
H2050 C2054 0.929 . S
H2051 C2060 0.929 . S
C2052 H2046 0.930 . S
C2052 C2053 1.367 . S
C2052 C2060 1.378 . S
C2053 C2052 1.367 . S
C2053 C2061 1.433 . S
C2054 H2050 0.929 . S
C2054 C2056 1.378 . S
C2054 C2058 1.350 . S
C2055 C2058 1.463 . S
C2055 C2060 1.350 . S
C2055 N2063 1.427 . S
C2056 H2047 0.930 . S
C2056 C2054 1.378 . S
C2056 C2057 1.367 . S
C2057 C2056 1.367 . S
C2057 C2059 1.433 . S
C2058 C2054 1.350 . S
C2058 C2055 1.463 . S
C2058 N2062 1.427 . S
C2059 H2049 0.929 . S
C2059 C2057 1.433 . S
C2059 N2062 1.384 . S
C2060 H2051 0.929 . S
C2060 C2052 1.378 . S
C2060 C2055 1.350 . S
C2061 H2048 0.929 . S
C2061 C2053 1.433 . S
C2061 N2063 1.384 . S
N2062 C2058 1.427 . S
N2062 C2059 1.384 . S
N2063 C2055 1.427 . S
N2063 C2061 1.384 . S
H2064 C2070 0.930 . S
H2065 C2074 0.930 . S
H2066 C2079 0.929 . S
H2067 C2077 0.929 . S
H2068 C2072 0.929 . S
H2069 C2078 0.929 . S
C2070 H2064 0.930 . S
C2070 C2071 1.367 . S
C2070 C2078 1.378 . S
C2071 C2070 1.367 . S
C2071 C2079 1.433 . S
C2072 H2068 0.929 . S
C2072 C2074 1.378 . S
C2072 C2076 1.350 . S
C2073 C2076 1.463 . S
C2073 C2078 1.350 . S
C2073 N2081 1.427 . S
C2074 H2065 0.930 . S
C2074 C2072 1.378 . S
C2074 C2075 1.367 . S
C2075 C2074 1.367 . S
C2075 C2077 1.433 . S
C2076 C2072 1.350 . S
C2076 C2073 1.463 . S
C2076 N2080 1.427 . S
C2077 H2067 0.929 . S
C2077 C2075 1.433 . S
C2077 N2080 1.384 . S
C2078 H2069 0.929 . S
C2078 C2070 1.378 . S
C2078 C2073 1.350 . S
C2079 H2066 0.929 . S
C2079 C2071 1.433 . S
C2079 N2081 1.384 . S
N2080 C2076 1.427 . S
N2080 C2077 1.384 . S
N2081 C2073 1.427 . S
N2081 C2079 1.384 . S
H2082 C2088 0.930 . S
H2083 C2092 0.930 . S
H2084 C2097 0.929 . S
H2085 C2095 0.929 . S
H2086 C2090 0.929 . S
H2087 C2096 0.929 . S
C2088 H2082 0.930 . S
C2088 C2089 1.367 . S
C2088 C2096 1.378 . S
C2089 C2088 1.367 . S
C2089 C2097 1.433 . S
C2090 H2086 0.929 . S
C2090 C2092 1.378 . S
C2090 C2094 1.350 . S
C2091 C2094 1.463 . S
C2091 C2096 1.350 . S
C2091 N2099 1.427 . S
C2092 H2083 0.930 . S
C2092 C2090 1.378 . S
C2092 C2093 1.367 . S
C2093 C2092 1.367 . S
C2093 C2095 1.433 . S
C2094 C2090 1.350 . S
C2094 C2091 1.463 . S
C2094 N2098 1.427 . S
C2095 H2085 0.929 . S
C2095 C2093 1.433 . S
C2095 N2098 1.384 . S
C2096 H2087 0.929 . S
C2096 C2088 1.378 . S
C2096 C2091 1.350 . S
C2097 H2084 0.929 . S
C2097 C2089 1.433 . S
C2097 N2099 1.384 . S
N2098 C2094 1.427 . S
N2098 C2095 1.384 . S
N2099 C2091 1.427 . S
N2099 C2097 1.384 . S
H2100 C2106 0.930 . S
H2101 C2110 0.930 . S
H2102 C2115 0.929 . S
H2103 C2113 0.929 . S
H2104 C2108 0.929 . S
H2105 C2114 0.929 . S
C2106 H2100 0.930 . S
C2106 C2107 1.367 . S
C2106 C2114 1.378 . S
C2107 C2106 1.367 . S
C2107 C2115 1.433 . S
C2108 H2104 0.929 . S
C2108 C2110 1.378 . S
C2108 C2112 1.350 . S
C2109 C2112 1.463 . S
C2109 C2114 1.350 . S
C2109 N2117 1.427 . S
C2110 H2101 0.930 . S
C2110 C2108 1.378 . S
C2110 C2111 1.367 . S
C2111 C2110 1.367 . S
C2111 C2113 1.433 . S
C2112 C2108 1.350 . S
C2112 C2109 1.463 . S
C2112 N2116 1.427 . S
C2113 H2103 0.929 . S
C2113 C2111 1.433 . S
C2113 N2116 1.384 . S
C2114 H2105 0.929 . S
C2114 C2106 1.378 . S
C2114 C2109 1.350 . S
C2115 H2102 0.929 . S
C2115 C2107 1.433 . S
C2115 N2117 1.384 . S
N2116 C2112 1.427 . S
N2116 C2113 1.384 . S
N2117 C2109 1.427 . S
N2117 C2115 1.384 . S
H2118 C2124 0.930 . S
H2119 C2128 0.930 . S
H2120 C2133 0.929 . S
H2121 C2131 0.929 . S
H2122 C2126 0.929 . S
H2123 C2132 0.929 . S
C2124 H2118 0.930 . S
C2124 C2125 1.367 . S
C2124 C2132 1.378 . S
C2125 C2124 1.367 . S
C2125 C2133 1.433 . S
C2126 H2122 0.929 . S
C2126 C2128 1.378 . S
C2126 C2130 1.350 . S
C2127 C2130 1.463 1_454 S
C2127 C2132 1.350 . S
C2127 N2135 1.427 . S
C2128 H2119 0.930 . S
C2128 C2126 1.378 . S
C2128 C2129 1.367 . S
C2129 C2128 1.367 . S
C2129 C2131 1.433 . S
C2130 C2126 1.350 . S
C2130 C2127 1.463 1_656 S
C2130 N2134 1.427 . S
C2131 H2121 0.929 . S
C2131 C2129 1.433 . S
C2131 N2134 1.384 . S
C2132 H2123 0.929 . S
C2132 C2124 1.378 . S
C2132 C2127 1.350 . S
C2133 H2120 0.929 . S
C2133 C2125 1.433 . S
C2133 N2135 1.384 . S
N2134 C2130 1.427 . S
N2134 C2131 1.384 . S
N2135 C2127 1.427 . S
N2135 C2133 1.384 . S
H2136 C2142 0.930 . S
H2137 C2146 0.930 . S
H2138 C2151 0.929 . S
H2139 C2149 0.929 . S
H2140 C2144 0.929 . S
H2141 C2150 0.929 . S
C2142 H2136 0.930 . S
C2142 C2143 1.367 . S
C2142 C2150 1.378 . S
C2143 C2142 1.367 . S
C2143 C2151 1.433 . S
C2144 H2140 0.929 . S
C2144 C2146 1.378 . S
C2144 C2148 1.350 . S
C2145 C2148 1.463 . S
C2145 C2150 1.350 . S
C2145 N2153 1.427 . S
C2146 H2137 0.930 . S
C2146 C2144 1.378 . S
C2146 C2147 1.367 . S
C2147 C2146 1.367 . S
C2147 C2149 1.433 . S
C2148 C2144 1.350 . S
C2148 C2145 1.463 . S
C2148 N2152 1.427 . S
C2149 H2139 0.929 . S
C2149 C2147 1.433 . S
C2149 N2152 1.384 . S
C2150 H2141 0.929 . S
C2150 C2142 1.378 . S
C2150 C2145 1.350 . S
C2151 H2138 0.929 . S
C2151 C2143 1.433 . S
C2151 N2153 1.384 . S
N2152 C2148 1.427 . S
N2152 C2149 1.384 . S
N2153 C2145 1.427 . S
N2153 C2151 1.384 . S
H2154 C2160 0.930 . S
H2155 C2164 0.930 . S
H2156 C2169 0.929 . S
H2157 C2167 0.929 . S
H2158 C2162 0.929 . S
H2159 C2168 0.929 . S
C2160 H2154 0.930 . S
C2160 C2161 1.367 . S
C2160 C2168 1.378 . S
C2161 C2160 1.367 . S
C2161 C2169 1.433 . S
C2162 H2158 0.929 . S
C2162 C2164 1.378 . S
C2162 C2166 1.350 . S
C2163 C2166 1.463 . S
C2163 C2168 1.350 . S
C2163 N2171 1.427 . S
C2164 H2155 0.930 . S
C2164 C2162 1.378 . S
C2164 C2165 1.367 . S
C2165 C2164 1.367 . S
C2165 C2167 1.433 . S
C2166 C2162 1.350 . S
C2166 C2163 1.463 . S
C2166 N2170 1.427 . S
C2167 H2157 0.929 . S
C2167 C2165 1.433 . S
C2167 N2170 1.384 . S
C2168 H2159 0.929 . S
C2168 C2160 1.378 . S
C2168 C2163 1.350 . S
C2169 H2156 0.929 . S
C2169 C2161 1.433 . S
C2169 N2171 1.384 . S
N2170 C2166 1.427 . S
N2170 C2167 1.384 . S
N2171 C2163 1.427 . S
N2171 C2169 1.384 . S
H2172 C2178 0.930 . S
H2173 C2182 0.930 . S
H2174 C2187 0.929 . S
H2175 C2185 0.929 . S
H2176 C2180 0.929 . S
H2177 C2186 0.929 . S
C2178 H2172 0.930 . S
C2178 C2179 1.367 1_565 S
C2178 C2186 1.378 . S
C2179 C2178 1.367 1_545 S
C2179 C2187 1.433 . S
C2180 H2176 0.929 . S
C2180 C2182 1.378 . S
C2180 C2184 1.350 1_545 S
C2181 C2184 1.463 1_446 S
C2181 C2186 1.350 1_545 S
C2181 N2189 1.427 . S
C2182 H2173 0.930 . S
C2182 C2180 1.378 . S
C2182 C2183 1.367 1_545 S
C2183 C2182 1.367 1_565 S
C2183 C2185 1.433 . S
C2184 C2180 1.350 1_565 S
C2184 C2181 1.463 1_664 S
C2184 N2188 1.427 . S
C2185 H2175 0.929 . S
C2185 C2183 1.433 . S
C2185 N2188 1.384 . S
C2186 H2177 0.929 . S
C2186 C2178 1.378 . S
C2186 C2181 1.350 1_565 S
C2187 H2174 0.929 . S
C2187 C2179 1.433 . S
C2187 N2189 1.384 . S
N2188 C2184 1.427 . S
N2188 C2185 1.384 . S
N2189 C2181 1.427 . S
N2189 C2187 1.384 . S
H2190 C2196 0.930 . S
H2191 C2200 0.930 . S
H2192 C2205 0.929 . S
H2193 C2203 0.929 . S
H2194 C2198 0.929 . S
H2195 C2204 0.929 . S
C2196 H2190 0.930 . S
C2196 C2197 1.367 . S
C2196 C2204 1.378 . S
C2197 C2196 1.367 . S
C2197 C2205 1.433 1_545 S
C2198 H2194 0.929 . S
C2198 C2200 1.378 . S
C2198 C2202 1.350 . S
C2199 C2202 1.463 1_545 S
C2199 C2204 1.350 . S
C2199 N2207 1.427 1_545 S
C2200 H2191 0.930 . S
C2200 C2198 1.378 . S
C2200 C2201 1.367 . S
C2201 C2200 1.367 . S
C2201 C2203 1.433 1_565 S
C2202 C2198 1.350 . S
C2202 C2199 1.463 1_565 S
C2202 N2206 1.427 1_565 S
C2203 H2193 0.929 . S
C2203 C2201 1.433 1_545 S
C2203 N2206 1.384 . S
C2204 H2195 0.929 . S
C2204 C2196 1.378 . S
C2204 C2199 1.350 . S
C2205 H2192 0.929 . S
C2205 C2197 1.433 1_565 S
C2205 N2207 1.384 . S
N2206 C2202 1.427 1_545 S
N2206 C2203 1.384 . S
N2207 C2199 1.427 1_565 S
N2207 C2205 1.384 . S
C1351 C67 2.439 . S
C1355 C907 2.436 . S
C1369 C151 2.437 . S
C1373 C991 2.439 . S
C1387 C235 2.439 . S
C1391 C739 2.436 . S
C1405 C319 2.439 . S
C1409 C823 2.433 . S
C1423 C392 2.433 . S
C1427 C1232 2.439 . S
C1441 C476 2.433 . S
C1445 C1316 2.438 . S
C1459 C560 2.440 . S
C1463 C1064 2.433 . S
C1477 C644 2.440 . S
C1481 C1148 2.433 . S
C1495 C831 3.659 . S
C1499 C56 3.611 1_556 S
C1513 C915 3.661 . S
C1517 C140 3.609 . S
C1531 C999 3.661 . S
C1535 C224 3.608 . S
C1549 C747 3.660 . S
C1553 C308 3.610 . S
C1567 C403 3.614 1_554 S
C1571 C1158 3.657 . S
C1585 C1242 3.657 . S
C1589 C487 3.614 . S
C1603 C1326 3.659 . S
C1607 C571 3.611 . S
C1621 C1074 3.656 . S
C1625 C655 3.614 . S
C1639 C159 3.660 . S
C1643 C728 3.610 . S
C1657 C812 3.614 . S
C1661 C243 3.657 . S
C1675 C896 3.615 1_556 S
C1679 C327 3.655 . S
C1693 C980 3.609 . S
C1697 C75 3.660 . S
C1711 C1075 3.608 . S
C1715 C486 3.661 . S
C1729 C570 3.657 . S
C1733 C1159 3.613 . S
C1747 C654 3.655 . S
C1751 C1243 3.616 1_554 S
C1765 C1327 3.612 . S
C1769 C402 3.658 . S
C1783 C72 0.641 . S
C1787 C1335 0.540 . S
C1801 C156 0.632 . S
C1805 C411 0.537 . S
C1819 C1167 0.576 . S
C1823 C240 0.616 . S
C1837 C579 0.566 . S
C1841 C324 0.592 . S
C1855 C399 0.637 . S
C1859 C990 0.538 . S
C1873 C483 0.628 . S
C1877 C66 0.568 . S
C1891 C822 0.554 . S
C1895 C567 0.640 . S
C1909 C234 0.578 . S
C1913 C651 0.612 . S
C1927 C744 0.639 . S
C1931 C663 0.538 . S
C1945 C828 0.625 . S
C1949 C1083 0.539 . S
C1963 C495 0.580 . S
C1967 C912 0.596 . S
C1981 C1251 0.549 . S
C1985 C996 0.642 . S
C1999 C1071 0.591 . S
C2003 C318 0.575 . S
C2017 C1155 0.634 . S
C2021 C738 0.563 . S
C2035 C1239 0.598 . S
C2039 C150 0.580 . S
C2053 C906 0.580 . S
C2057 C1323 0.597 . S
C2071 C63 1.141 . S
C2075 C1080 1.141 . S
C2089 C147 1.122 . S
C2093 C492 1.122 . S
C2107 C231 1.122 . S
C2111 C1248 1.122 . S
C2125 C660 1.122 . S
C2129 C315 1.122 . S
C2143 C408 1.113 . S
C2147 C735 1.113 . S
C2161 C903 1.134 . S
C2165 C576 1.134 . S
C2179 C819 1.144 . S
C2183 C1164 1.144 . S
C2197 C1332 1.115 . S
C2201 C987 1.115 . S
