# Generated by pormake.
# Topology wmy, (6)-cn, num edge types: 1
# Building blocks:
#     Node 0, Type 0, BuildingBlock: IZENUY_clean_sbu_0, # of connection points: 6
#     Node 1, Type 0, BuildingBlock: IZENUY_clean_sbu_0, # of connection points: 6
#     Node 2, Type 0, BuildingBlock: IZENUY_clean_sbu_0, # of connection points: 6
#     Node 3, Type 0, BuildingBlock: IZENUY_clean_sbu_0, # of connection points: 6
#     Node 4, Type 0, BuildingBlock: IZENUY_clean_sbu_0, # of connection points: 6
#     Node 5, Type 0, BuildingBlock: IZENUY_clean_sbu_0, # of connection points: 6
#     Node 6, Type 0, BuildingBlock: IZENUY_clean_sbu_0, # of connection points: 6
#     Node 7, Type 0, BuildingBlock: IZENUY_clean_sbu_0, # of connection points: 6
#     Node 8, Type 0, BuildingBlock: IZENUY_clean_sbu_0, # of connection points: 6
#     Node 9, Type 0, BuildingBlock: IZENUY_clean_sbu_0, # of connection points: 6
#     Node 10, Type 0, BuildingBlock: IZENUY_clean_sbu_0, # of connection points: 6
#     Node 11, Type 0, BuildingBlock: IZENUY_clean_sbu_0, # of connection points: 6
#     Node 12, Type 0, BuildingBlock: IZENUY_clean_sbu_0, # of connection points: 6
#     Node 13, Type 0, BuildingBlock: IZENUY_clean_sbu_0, # of connection points: 6
#     Node 14, Type 0, BuildingBlock: IZENUY_clean_sbu_0, # of connection points: 6
#     Node 15, Type 0, BuildingBlock: IZENUY_clean_sbu_0, # of connection points: 6
#     Node 16, Type 0, BuildingBlock: IZENUY_clean_sbu_0, # of connection points: 6
#     Node 17, Type 0, BuildingBlock: IZENUY_clean_sbu_0, # of connection points: 6
#     Node 18, Type 0, BuildingBlock: IZENUY_clean_sbu_0, # of connection points: 6
#     Node 19, Type 0, BuildingBlock: IZENUY_clean_sbu_0, # of connection points: 6
#     Node 20, Type 0, BuildingBlock: IZENUY_clean_sbu_0, # of connection points: 6
#     Node 21, Type 0, BuildingBlock: IZENUY_clean_sbu_0, # of connection points: 6
#     Node 22, Type 0, BuildingBlock: IZENUY_clean_sbu_0, # of connection points: 6
#     Node 23, Type 0, BuildingBlock: IZENUY_clean_sbu_0, # of connection points: 6
#     Node 24, Type 0, BuildingBlock: IZENUY_clean_sbu_0, # of connection points: 6
#     Node 25, Type 0, BuildingBlock: IZENUY_clean_sbu_0, # of connection points: 6
#     Node 26, Type 0, BuildingBlock: IZENUY_clean_sbu_0, # of connection points: 6
#     Node 27, Type 0, BuildingBlock: IZENUY_clean_sbu_0, # of connection points: 6
#     Node 28, Type 0, BuildingBlock: IZENUY_clean_sbu_0, # of connection points: 6
#     Node 29, Type 0, BuildingBlock: IZENUY_clean_sbu_0, # of connection points: 6
#     Node 30, Type 0, BuildingBlock: IZENUY_clean_sbu_0, # of connection points: 6
#     Node 31, Type 0, BuildingBlock: IZENUY_clean_sbu_0, # of connection points: 6
#     Node 32, Type 0, BuildingBlock: IZENUY_clean_sbu_0, # of connection points: 6
#     Node 33, Type 0, BuildingBlock: IZENUY_clean_sbu_0, # of connection points: 6
#     Node 34, Type 0, BuildingBlock: IZENUY_clean_sbu_0, # of connection points: 6
#     Node 35, Type 0, BuildingBlock: IZENUY_clean_sbu_0, # of connection points: 6
#     Edge 36, Type (0, 0), BuildingBlock: AJUNOK_clean_linker_0, # of connection points: 2
#     Edge 37, Type (0, 0), BuildingBlock: AJUNOK_clean_linker_0, # of connection points: 2
#     Edge 38, Type (0, 0), BuildingBlock: AJUNOK_clean_linker_0, # of connection points: 2
#     Edge 39, Type (0, 0), BuildingBlock: AJUNOK_clean_linker_0, # of connection points: 2
#     Edge 40, Type (0, 0), BuildingBlock: AJUNOK_clean_linker_0, # of connection points: 2
#     Edge 41, Type (0, 0), BuildingBlock: AJUNOK_clean_linker_0, # of connection points: 2
#     Edge 42, Type (0, 0), BuildingBlock: AJUNOK_clean_linker_0, # of connection points: 2
#     Edge 43, Type (0, 0), BuildingBlock: AJUNOK_clean_linker_0, # of connection points: 2
#     Edge 44, Type (0, 0), BuildingBlock: AJUNOK_clean_linker_0, # of connection points: 2
#     Edge 45, Type (0, 0), BuildingBlock: AJUNOK_clean_linker_0, # of connection points: 2
#     Edge 46, Type (0, 0), BuildingBlock: AJUNOK_clean_linker_0, # of connection points: 2
#     Edge 47, Type (0, 0), BuildingBlock: AJUNOK_clean_linker_0, # of connection points: 2
#     Edge 48, Type (0, 0), BuildingBlock: AJUNOK_clean_linker_0, # of connection points: 2
#     Edge 49, Type (0, 0), BuildingBlock: AJUNOK_clean_linker_0, # of connection points: 2
#     Edge 50, Type (0, 0), BuildingBlock: AJUNOK_clean_linker_0, # of connection points: 2
#     Edge 51, Type (0, 0), BuildingBlock: AJUNOK_clean_linker_0, # of connection points: 2
#     Edge 52, Type (0, 0), BuildingBlock: AJUNOK_clean_linker_0, # of connection points: 2
#     Edge 53, Type (0, 0), BuildingBlock: AJUNOK_clean_linker_0, # of connection points: 2
#     Edge 54, Type (0, 0), BuildingBlock: AJUNOK_clean_linker_0, # of connection points: 2
#     Edge 55, Type (0, 0), BuildingBlock: AJUNOK_clean_linker_0, # of connection points: 2
#     Edge 56, Type (0, 0), BuildingBlock: AJUNOK_clean_linker_0, # of connection points: 2
#     Edge 57, Type (0, 0), BuildingBlock: AJUNOK_clean_linker_0, # of connection points: 2
#     Edge 58, Type (0, 0), BuildingBlock: AJUNOK_clean_linker_0, # of connection points: 2
#     Edge 59, Type (0, 0), BuildingBlock: AJUNOK_clean_linker_0, # of connection points: 2
#     Edge 60, Type (0, 0), BuildingBlock: AJUNOK_clean_linker_0, # of connection points: 2
#     Edge 61, Type (0, 0), BuildingBlock: AJUNOK_clean_linker_0, # of connection points: 2
#     Edge 62, Type (0, 0), BuildingBlock: AJUNOK_clean_linker_0, # of connection points: 2
#     Edge 63, Type (0, 0), BuildingBlock: AJUNOK_clean_linker_0, # of connection points: 2
#     Edge 64, Type (0, 0), BuildingBlock: AJUNOK_clean_linker_0, # of connection points: 2
#     Edge 65, Type (0, 0), BuildingBlock: AJUNOK_clean_linker_0, # of connection points: 2
#     Edge 66, Type (0, 0), BuildingBlock: AJUNOK_clean_linker_0, # of connection points: 2
#     Edge 67, Type (0, 0), BuildingBlock: AJUNOK_clean_linker_0, # of connection points: 2
#     Edge 68, Type (0, 0), BuildingBlock: AJUNOK_clean_linker_0, # of connection points: 2
#     Edge 69, Type (0, 0), BuildingBlock: AJUNOK_clean_linker_0, # of connection points: 2
#     Edge 70, Type (0, 0), BuildingBlock: AJUNOK_clean_linker_0, # of connection points: 2
#     Edge 71, Type (0, 0), BuildingBlock: AJUNOK_clean_linker_0, # of connection points: 2
#     Edge 72, Type (0, 0), BuildingBlock: AJUNOK_clean_linker_0, # of connection points: 2
#     Edge 73, Type (0, 0), BuildingBlock: AJUNOK_clean_linker_0, # of connection points: 2
#     Edge 74, Type (0, 0), BuildingBlock: AJUNOK_clean_linker_0, # of connection points: 2
#     Edge 75, Type (0, 0), BuildingBlock: AJUNOK_clean_linker_0, # of connection points: 2
#     Edge 76, Type (0, 0), BuildingBlock: AJUNOK_clean_linker_0, # of connection points: 2
#     Edge 77, Type (0, 0), BuildingBlock: AJUNOK_clean_linker_0, # of connection points: 2
#     Edge 78, Type (0, 0), BuildingBlock: AJUNOK_clean_linker_0, # of connection points: 2
#     Edge 79, Type (0, 0), BuildingBlock: AJUNOK_clean_linker_0, # of connection points: 2
#     Edge 80, Type (0, 0), BuildingBlock: AJUNOK_clean_linker_0, # of connection points: 2
#     Edge 81, Type (0, 0), BuildingBlock: AJUNOK_clean_linker_0, # of connection points: 2
#     Edge 82, Type (0, 0), BuildingBlock: AJUNOK_clean_linker_0, # of connection points: 2
#     Edge 83, Type (0, 0), BuildingBlock: AJUNOK_clean_linker_0, # of connection points: 2
#     Edge 84, Type (0, 0), BuildingBlock: AJUNOK_clean_linker_0, # of connection points: 2
#     Edge 85, Type (0, 0), BuildingBlock: AJUNOK_clean_linker_0, # of connection points: 2
#     Edge 86, Type (0, 0), BuildingBlock: AJUNOK_clean_linker_0, # of connection points: 2
#     Edge 87, Type (0, 0), BuildingBlock: AJUNOK_clean_linker_0, # of connection points: 2
#     Edge 88, Type (0, 0), BuildingBlock: AJUNOK_clean_linker_0, # of connection points: 2
#     Edge 89, Type (0, 0), BuildingBlock: AJUNOK_clean_linker_0, # of connection points: 2
#     Edge 90, Type (0, 0), BuildingBlock: AJUNOK_clean_linker_0, # of connection points: 2
#     Edge 91, Type (0, 0), BuildingBlock: AJUNOK_clean_linker_0, # of connection points: 2
#     Edge 92, Type (0, 0), BuildingBlock: AJUNOK_clean_linker_0, # of connection points: 2
#     Edge 93, Type (0, 0), BuildingBlock: AJUNOK_clean_linker_0, # of connection points: 2
#     Edge 94, Type (0, 0), BuildingBlock: AJUNOK_clean_linker_0, # of connection points: 2
#     Edge 95, Type (0, 0), BuildingBlock: AJUNOK_clean_linker_0, # of connection points: 2
#     Edge 96, Type (0, 0), BuildingBlock: AJUNOK_clean_linker_0, # of connection points: 2
#     Edge 97, Type (0, 0), BuildingBlock: AJUNOK_clean_linker_0, # of connection points: 2
#     Edge 98, Type (0, 0), BuildingBlock: AJUNOK_clean_linker_0, # of connection points: 2
#     Edge 99, Type (0, 0), BuildingBlock: AJUNOK_clean_linker_0, # of connection points: 2
#     Edge 100, Type (0, 0), BuildingBlock: AJUNOK_clean_linker_0, # of connection points: 2
#     Edge 101, Type (0, 0), BuildingBlock: AJUNOK_clean_linker_0, # of connection points: 2
#     Edge 102, Type (0, 0), BuildingBlock: AJUNOK_clean_linker_0, # of connection points: 2
#     Edge 103, Type (0, 0), BuildingBlock: AJUNOK_clean_linker_0, # of connection points: 2
#     Edge 104, Type (0, 0), BuildingBlock: AJUNOK_clean_linker_0, # of connection points: 2
#     Edge 105, Type (0, 0), BuildingBlock: AJUNOK_clean_linker_0, # of connection points: 2
#     Edge 106, Type (0, 0), BuildingBlock: AJUNOK_clean_linker_0, # of connection points: 2
#     Edge 107, Type (0, 0), BuildingBlock: AJUNOK_clean_linker_0, # of connection points: 2
#     Edge 108, Type (0, 0), BuildingBlock: AJUNOK_clean_linker_0, # of connection points: 2
#     Edge 109, Type (0, 0), BuildingBlock: AJUNOK_clean_linker_0, # of connection points: 2
#     Edge 110, Type (0, 0), BuildingBlock: AJUNOK_clean_linker_0, # of connection points: 2
#     Edge 111, Type (0, 0), BuildingBlock: AJUNOK_clean_linker_0, # of connection points: 2
#     Edge 112, Type (0, 0), BuildingBlock: AJUNOK_clean_linker_0, # of connection points: 2
#     Edge 113, Type (0, 0), BuildingBlock: AJUNOK_clean_linker_0, # of connection points: 2
#     Edge 114, Type (0, 0), BuildingBlock: AJUNOK_clean_linker_0, # of connection points: 2
#     Edge 115, Type (0, 0), BuildingBlock: AJUNOK_clean_linker_0, # of connection points: 2
#     Edge 116, Type (0, 0), BuildingBlock: AJUNOK_clean_linker_0, # of connection points: 2
#     Edge 117, Type (0, 0), BuildingBlock: AJUNOK_clean_linker_0, # of connection points: 2
#     Edge 118, Type (0, 0), BuildingBlock: AJUNOK_clean_linker_0, # of connection points: 2
#     Edge 119, Type (0, 0), BuildingBlock: AJUNOK_clean_linker_0, # of connection points: 2
#     Edge 120, Type (0, 0), BuildingBlock: AJUNOK_clean_linker_0, # of connection points: 2
#     Edge 121, Type (0, 0), BuildingBlock: AJUNOK_clean_linker_0, # of connection points: 2
#     Edge 122, Type (0, 0), BuildingBlock: AJUNOK_clean_linker_0, # of connection points: 2
#     Edge 123, Type (0, 0), BuildingBlock: AJUNOK_clean_linker_0, # of connection points: 2
#     Edge 124, Type (0, 0), BuildingBlock: AJUNOK_clean_linker_0, # of connection points: 2
#     Edge 125, Type (0, 0), BuildingBlock: AJUNOK_clean_linker_0, # of connection points: 2
#     Edge 126, Type (0, 0), BuildingBlock: AJUNOK_clean_linker_0, # of connection points: 2
#     Edge 127, Type (0, 0), BuildingBlock: AJUNOK_clean_linker_0, # of connection points: 2
#     Edge 128, Type (0, 0), BuildingBlock: AJUNOK_clean_linker_0, # of connection points: 2
#     Edge 129, Type (0, 0), BuildingBlock: AJUNOK_clean_linker_0, # of connection points: 2
#     Edge 130, Type (0, 0), BuildingBlock: AJUNOK_clean_linker_0, # of connection points: 2
#     Edge 131, Type (0, 0), BuildingBlock: AJUNOK_clean_linker_0, # of connection points: 2
#     Edge 132, Type (0, 0), BuildingBlock: AJUNOK_clean_linker_0, # of connection points: 2
#     Edge 133, Type (0, 0), BuildingBlock: AJUNOK_clean_linker_0, # of connection points: 2
#     Edge 134, Type (0, 0), BuildingBlock: AJUNOK_clean_linker_0, # of connection points: 2
#     Edge 135, Type (0, 0), BuildingBlock: AJUNOK_clean_linker_0, # of connection points: 2
#     Edge 136, Type (0, 0), BuildingBlock: AJUNOK_clean_linker_0, # of connection points: 2
#     Edge 137, Type (0, 0), BuildingBlock: AJUNOK_clean_linker_0, # of connection points: 2
#     Edge 138, Type (0, 0), BuildingBlock: AJUNOK_clean_linker_0, # of connection points: 2
#     Edge 139, Type (0, 0), BuildingBlock: AJUNOK_clean_linker_0, # of connection points: 2
#     Edge 140, Type (0, 0), BuildingBlock: AJUNOK_clean_linker_0, # of connection points: 2
#     Edge 141, Type (0, 0), BuildingBlock: AJUNOK_clean_linker_0, # of connection points: 2
#     Edge 142, Type (0, 0), BuildingBlock: AJUNOK_clean_linker_0, # of connection points: 2
#     Edge 143, Type (0, 0), BuildingBlock: AJUNOK_clean_linker_0, # of connection points: 2
# Relax obj value: 0.471
# Max RMSD: 0.183
# Mean RMSD: 0.183
data_MOF--net-wmy--node1-IZENUY_clean_sbu_0--edge1-AJUNOK_clean_linker_0
_symmetry_space_group_name_H-M    P1
_symmetry_Int_Tables_number       1
_symmetry_cell_setting            triclinic
loop_
_symmetry_equiv_pos_as_xyz
'x, y, z'
_cell_length_a     39.774231
_cell_length_b     39.829201
_cell_length_c     40.509764
_cell_angle_alpha  89.976275
_cell_angle_beta   89.980273
_cell_angle_gamma 119.99162
loop_
_atom_site_label
_atom_site_type_symbol
_atom_site_fract_x
_atom_site_fract_y
_atom_site_fract_z
_atom_type_partial_charge
Fe0 Fe 0.03015 0.14264 0.10426 0.0
Fe1 Fe 0.99745 0.19105 0.13486 0.0
O2 O 0.03711 0.18294 0.12758 0.0
Fe3 Fe 0.08366 0.21523 0.14406 0.0
O4 O 0.09917 0.17902 0.14893 0.0
O5 O 0.04676 0.12392 0.13779 0.0
O6 O 0.9805 0.11073 0.11864 0.0
C7 C 0.96316 0.11215 0.14432 0.0
C8 C 0.10356 0.20264 0.08245 0.0
O9 O 0.96964 0.14425 0.15607 0.0
C10 C 0.05708 0.26499 0.12211 0.0
O11 O 0.014 0.15879 0.069 0.0
O12 O 0.97268 0.17042 0.09541 0.0
O13 O 0.10594 0.22795 0.10279 0.0
O14 O 0.07831 0.16729 0.08582 0.0
C15 C 0.03446 0.20532 0.19586 0.0
O16 O 0.02324 0.23849 0.11422 0.0
O17 O 0.0775 0.25783 0.14173 0.0
C18 C 0.98642 0.16583 0.06874 0.0
O19 O 0.01485 0.2127 0.17558 0.0
O20 O 0.06367 0.20333 0.18594 0.0
C21 C 0.08067 0.14237 0.14963 0.0
Fe22 Fe 0.88481 0.90391 0.10979 0.0
Fe23 Fe 0.83809 0.8228 0.13879 0.0
O24 O 0.84454 0.86993 0.13274 0.0
Fe25 Fe 0.81108 0.88288 0.14877 0.0
O26 O 0.84801 0.9247 0.17149 0.0
O27 O 0.88936 0.94686 0.13037 0.0
O28 O 0.91757 0.90349 0.14039 0.0
C29 C 0.91912 0.87347 0.14735 0.0
C30 C 0.82797 0.91464 0.08392 0.0
O31 O 0.89101 0.84009 0.14 0.0
C32 C 0.76182 0.80815 0.12753 0.0
O33 O 0.88823 0.86788 0.08405 0.0
O34 O 0.83506 0.81338 0.09479 0.0
O35 O 0.81507 0.91364 0.11287 0.0
O36 O 0.85359 0.90557 0.07857 0.0
C37 C 0.82092 0.83887 0.19995 0.0
O38 O 0.78439 0.79721 0.13898 0.0
O39 O 0.77152 0.84341 0.12689 0.0
C40 C 0.86191 0.83457 0.07525 0.0
O41 O 0.8407 0.82901 0.18255 0.0
O42 O 0.80237 0.85409 0.18713 0.0
C43 C 0.87744 0.95201 0.15774 0.0
Fe44 Fe 0.15565 0.93984 0.1445 0.0
Fe45 Fe 0.13059 0.98611 0.10056 0.0
O46 O 0.16518 0.98456 0.12669 0.0
Fe47 Fe 0.20959 0.02776 0.13497 0.0
O48 O 0.21427 0.01311 0.177 0.0
O49 O 0.15922 0.9593 0.18604 0.0
O50 O 0.10261 0.91909 0.14716 0.0
C51 C 0.08212 0.93522 0.14694 0.0
C52 C 0.2338 0.97466 0.12512 0.0
O53 O 0.09404 0.96738 0.13276 0.0
C54 C 0.19705 0.03589 0.06741 0.0
O55 O 0.15105 0.91761 0.10384 0.0
O56 O 0.11295 0.93789 0.08343 0.0
O57 O 0.23698 1.00668 0.11647 0.0
O58 O 0.20688 0.95239 0.14463 0.0
C59 C 0.15716 0.05342 0.13918 0.0
O60 O 0.16486 1.00475 0.06653 0.0
O61 O 0.2128 0.05065 0.09477 0.0
C62 C 0.12787 0.91645 0.08186 0.0
O63 O 0.14172 0.03463 0.11311 0.0
O64 O 0.18421 0.05101 0.1534 0.0
C65 C 0.18779 0.9904 0.19665 0.0
Fe66 Fe 0.14974 0.03076 0.4366 0.0
Fe67 Fe 0.18469 0.98851 0.39993 0.0
O68 O 0.18443 0.03203 0.40884 0.0
Fe69 Fe 0.21895 0.07656 0.39024 0.0
O70 O 0.18625 0.09688 0.38872 0.0
O71 O 0.13011 0.04876 0.40537 0.0
O72 O 0.11207 0.982 0.42518 0.0
C73 C 0.10669 0.96384 0.39834 0.0
C74 C 0.21727 0.10089 0.45326 0.0
O75 O 0.13519 0.96558 0.38279 0.0
C76 C 0.26245 0.04144 0.40777 0.0
O77 O 0.16733 0.01277 0.46973 0.0
O78 O 0.16644 0.96603 0.44062 0.0
O79 O 0.23821 0.09956 0.43037 0.0
O80 O 0.18088 0.07926 0.45297 0.0
C81 C 0.20029 0.02617 0.33799 0.0
O82 O 0.23377 0.00958 0.41703 0.0
O83 O 0.25766 0.06412 0.38898 0.0
C84 C 0.16774 0.98134 0.46834 0.0
O85 O 0.20269 1.00256 0.35749 0.0
O86 O 0.20201 0.05675 0.34898 0.0
C87 C 0.14962 0.08064 0.39057 0.0
Fe88 Fe 0.98528 0.11808 0.43086 0.0
Fe89 Fe 0.0224 0.1978 0.39876 0.0
O90 O 0.98087 0.15125 0.40496 0.0
Fe91 Fe 0.93533 0.13741 0.38623 0.0
O92 O 0.9313 0.09399 0.36709 0.0
O93 O 0.94627 0.07405 0.41199 0.0
O94 O 0.01843 0.11536 0.40213 0.0
C95 C 0.05011 0.14448 0.39359 0.0
C96 C 0.9179 0.11112 0.45313 0.0
O97 O 0.05671 0.17878 0.39914 0.0
C98 C 0.96034 0.21354 0.40472 0.0
O99 O 0.02509 0.15453 0.45606 0.0
O100 O 0.02817 0.20888 0.44249 0.0
O101 O 0.90691 0.10977 0.42327 0.0
O102 O 0.95235 0.12015 0.45988 0.0
C103 C 0.99179 0.17901 0.33579 0.0
O104 O 0.99525 0.22424 0.3973 0.0
O105 O 0.93418 0.17848 0.40358 0.0
C106 C 0.03296 0.18845 0.46336 0.0
O107 O 0.02032 0.19095 0.35497 0.0
O108 O 0.95711 0.16304 0.34677 0.0
C109 C 0.93148 0.0673 0.38357 0.0
Fe110 Fe 0.80965 0.82615 0.40427 0.0
Fe111 Fe 0.87233 0.80238 0.39126 0.0
O112 O 0.85633 0.83164 0.41132 0.0
Fe113 Fe 0.88788 0.86721 0.43959 0.0
O114 O 0.89251 0.90462 0.41209 0.0
O115 O 0.8294 0.8799 0.40385 0.0
O116 O 0.81658 0.83096 0.36071 0.0
C117 C 0.83055 0.81687 0.34115 0.0
C118 C 0.81594 0.84525 0.46915 0.0
O119 O 0.84853 0.80006 0.35149 0.0
C120 C 0.89383 0.80528 0.45863 0.0
O121 O 0.78394 0.77238 0.40303 0.0
O122 O 0.83126 0.75867 0.40649 0.0
O123 O 0.85061 0.87043 0.46356 0.0
O124 O 0.79688 0.82031 0.44779 0.0
C125 C 0.94164 0.86967 0.39313 0.0
O126 O 0.8982 0.79979 0.4283 0.0
O127 O 0.88383 0.82964 0.46718 0.0
C128 C 0.79597 0.74883 0.40904 0.0
O129 O 0.91627 0.84415 0.3746 0.0
O130 O 0.933 0.87345 0.42224 0.0
C131 C 0.86462 0.9071 0.39981 0.0
Fe132 Fe 0.99724 0.87475 0.93691 0.0
Fe133 Fe 0.03209 0.83188 0.90102 0.0
O134 O 0.99126 0.83726 0.91022 0.0
Fe135 Fe 0.94443 0.80575 0.89339 0.0
O136 O 0.94078 0.84546 0.87436 0.0
O137 O 0.95789 0.88044 0.91942 0.0
O138 O 0.02885 0.91035 0.90776 0.0
C139 C 0.0594 0.91291 0.89604 0.0
C140 C 0.93023 0.81572 0.96063 0.0
O141 O 0.06674 0.88533 0.89964 0.0
C142 C 0.96973 0.75477 0.91105 0.0
O143 O 0.03827 0.87796 0.96018 0.0
O144 O 0.04202 0.82762 0.9442 0.0
O145 O 0.91824 0.8068 0.93102 0.0
O146 O 0.96533 0.83979 0.96669 0.0
C147 C 0.99638 0.81926 0.84019 0.0
O148 O 1.00385 0.77795 0.90058 0.0
O149 O 0.94385 0.76415 0.91148 0.0
C150 C 0.04829 0.85301 0.96543 0.0
O151 O 0.02639 0.83603 0.85762 0.0
O152 O 0.96294 0.79952 0.85313 0.0
C153 C 0.94305 0.8733 0.89095 0.0
Fe154 Fe 0.15088 0.12252 0.92527 0.0
Fe155 Fe 0.19524 0.20469 0.89658 0.0
O156 O 0.19042 0.15831 0.90288 0.0
Fe157 Fe 0.22552 0.14772 0.88641 0.0
O158 O 0.19229 0.09506 0.88141 0.0
O159 O 0.13549 0.0892 0.89065 0.0
O160 O 0.11643 0.13699 0.91112 0.0
C161 C 0.11705 0.15649 0.88631 0.0
C162 C 0.21433 0.11568 0.94787 0.0
O163 O 0.14848 0.18419 0.87549 0.0
C164 C 0.27068 0.22423 0.90882 0.0
O165 O 0.16382 0.15322 0.96142 0.0
O166 O 0.17364 0.20632 0.93653 0.0
O167 O 0.23909 0.13989 0.92781 0.0
O168 O 0.17834 0.10176 0.94342 0.0
C169 C 0.21217 0.18454 0.83485 0.0
O170 O 0.24225 0.22802 0.9175 0.0
O171 O 0.26584 0.19803 0.88854 0.0
C172 C 0.16842 0.1869 0.96273 0.0
O173 O 0.21706 0.21076 0.85532 0.0
O174 O 0.21268 0.15455 0.84469 0.0
C175 C 0.15569 0.07545 0.87943 0.0
Fe176 Fe 0.82925 1.00095 0.89857 0.0
Fe177 Fe 0.88362 0.08819 0.88516 0.0
O178 O 0.87469 0.04411 0.90364 0.0
Fe179 Fe 0.91151 0.04354 0.92721 0.0
O180 O 0.89786 0.99389 0.91717 0.0
O181 O 0.8521 0.97518 0.87973 0.0
O182 O 0.82189 0.01314 0.85662 0.0
C183 C 0.84696 0.03495 0.83562 0.0
C184 C 0.84804 0.9984 0.96552 0.0
O185 O 0.87644 0.06651 0.84432 0.0
C186 C 0.9163 0.11351 0.94591 0.0
O187 O 0.80358 0.02383 0.91728 0.0
O188 O 0.83307 0.07684 0.88745 0.0
O189 O 0.88111 0.02841 0.96366 0.0
O190 O 0.82934 0.98154 0.93964 0.0
C191 C 0.95578 0.09088 0.87755 0.0
O192 O 0.89131 0.11178 0.92562 0.0
O193 O 0.93208 0.09312 0.94193 0.0
C194 C 0.80707 0.05578 0.908 0.0
O195 O 0.93627 0.10802 0.87945 0.0
O196 O 0.94398 0.05877 0.8919 0.0
C197 C 0.88014 0.97329 0.89255 0.0
Fe198 Fe 0.79961 0.93052 0.64893 0.0
Fe199 Fe 0.86944 0.97413 0.60251 0.0
O200 O 0.8346 0.97416 0.62928 0.0
Fe201 Fe 0.83399 0.0178 0.63629 0.0
O202 O 0.81506 1.00466 0.6782 0.0
O203 O 0.81772 0.95217 0.68959 0.0
O204 O 0.83115 0.90885 0.65123 0.0
C205 C 0.86766 0.92385 0.64938 0.0
C206 C 0.75638 0.96462 0.62857 0.0
O207 O 0.88782 0.95563 0.63461 0.0
C208 C 0.85288 0.02392 0.56896 0.0
O209 O 0.77991 0.90679 0.6093 0.0
O210 O 0.83708 0.92561 0.58654 0.0
O211 O 0.78516 0.99579 0.61823 0.0
O212 O 0.76135 0.94377 0.64941 0.0
C213 C 0.91231 0.04305 0.63952 0.0
O214 O 0.85361 0.99261 0.56817 0.0
O215 O 0.85321 0.03937 0.59613 0.0
C216 C 0.80049 0.90489 0.5864 0.0
O217 O 0.90788 0.02265 0.61416 0.0
O218 O 0.88329 0.04179 0.65384 0.0
C219 C 0.82059 0.98396 0.69864 0.0
Fe220 Fe 0.07762 0.86892 0.64596 0.0
Fe221 Fe 0.0242 0.88072 0.59913 0.0
O222 O 0.03154 0.85169 0.62752 0.0
Fe223 Fe 0.99241 0.80506 0.6378 0.0
O224 O 1.0092 0.80536 0.68016 0.0
O225 O 0.05659 0.86508 0.68671 0.0
O226 O 0.09144 0.92053 0.64552 0.0
C227 C 0.07182 0.93729 0.64146 0.0
C228 C 0.05289 0.7911 0.63041 0.0
O229 O 0.03831 0.91919 0.62906 0.0
C230 C 0.98108 0.81102 0.5695 0.0
O231 O 0.1016 0.87448 0.60606 0.0
O232 O 0.07289 0.90307 0.58196 0.0
O233 O 0.019 0.78223 0.62116 0.0
O234 O 0.07205 0.82038 0.64884 0.0
C235 C 0.95702 0.849 0.63846 0.0
O236 O 1.01029 0.84439 0.56739 0.0
O237 O 0.96789 0.79633 0.59756 0.0
C238 C 0.09894 0.89386 0.58246 0.0
O239 O 0.97385 0.86343 0.61137 0.0
O240 O 0.96439 0.82626 0.65466 0.0
C241 C 0.02884 0.83434 0.69867 0.0
Fe242 Fe 0.14632 0.21414 0.64258 0.0
Fe243 Fe 0.12792 0.14968 0.59323 0.0
O244 O 0.15956 0.18248 0.62291 0.0
Fe245 Fe 0.20377 0.18354 0.63203 0.0
O246 O 0.19228 0.17579 0.6753 0.0
O247 O 0.17031 0.21606 0.68245 0.0
O248 O 0.10146 0.17365 0.65938 0.0
C249 C 0.07557 0.14845 0.64085 0.0
C250 C 0.22375 0.26281 0.62757 0.0
O251 O 0.0834 0.14486 0.61129 0.0
C252 C 0.20092 0.16905 0.56601 0.0
O253 O 0.12041 0.21818 0.60583 0.0
O254 O 0.13528 0.18928 0.56709 0.0
O255 O 0.23215 0.23714 0.63626 0.0
O256 O 0.18917 0.25585 0.62667 0.0
C257 C 0.14613 0.10311 0.62842 0.0
O258 O 0.16498 0.14632 0.56902 0.0
O259 O 0.22004 0.19122 0.58925 0.0
C260 C 0.12438 0.21278 0.57542 0.0
O261 O 0.11994 0.10954 0.61838 0.0
O262 O 0.18171 0.12983 0.62895 0.0
C263 C 0.18308 0.19494 0.69413 0.0
Fe264 Fe 0.65602 0.51647 0.47217 0.0
Fe265 Fe 0.7429 0.54267 0.48029 0.0
O266 O 0.69665 0.51082 0.46308 0.0
Fe267 Fe 0.69087 0.47315 0.43687 0.0
O268 O 0.64099 0.43952 0.44918 0.0
O269 O 0.62951 0.46793 0.49055 0.0
O270 O 0.67227 0.53467 0.5143 0.0
C271 C 0.69449 0.52926 0.5333 0.0
C272 C 0.64672 0.49732 0.40419 0.0
O273 O 0.72357 0.52827 0.52187 0.0
C274 C 0.76394 0.5352 0.41783 0.0
O275 O 0.68056 0.56528 0.45422 0.0
O276 O 0.73534 0.58454 0.48075 0.0
O277 O 0.67556 0.49225 0.40322 0.0
O278 O 0.63219 0.49873 0.43168 0.0
C279 C 0.73976 0.46962 0.48184 0.0
O280 O 0.76535 0.55874 0.43948 0.0
O281 O 0.7395 0.49953 0.41977 0.0
C282 C 0.71409 0.59203 0.46237 0.0
O283 O 0.75881 0.50635 0.48263 0.0
O284 O 0.70638 0.45221 0.46898 0.0
C285 C 0.62405 0.43754 0.47602 0.0
Fe286 Fe 0.53739 0.22406 0.44136 0.0
Fe287 Fe 0.49378 0.14408 0.47385 0.0
O288 O 0.49845 0.19006 0.46568 0.0
Fe289 Fe 0.46405 0.20166 0.48196 0.0
O290 O 0.49857 0.25387 0.48662 0.0
O291 O 0.55502 0.25969 0.47445 0.0
O292 O 0.57163 0.20928 0.45553 0.0
C293 C 0.57224 0.19193 0.48143 0.0
C294 C 0.47485 0.23334 0.41991 0.0
O295 O 0.54109 0.16606 0.49458 0.0
C296 C 0.41828 0.12409 0.46085 0.0
O297 O 0.52202 0.19078 0.40643 0.0
O298 O 0.51538 0.14106 0.43495 0.0
O299 O 0.45032 0.20985 0.44054 0.0
O300 O 0.5106 0.24522 0.42299 0.0
C301 C 0.47641 0.16498 0.53455 0.0
O302 O 0.44671 0.11978 0.45315 0.0
O303 O 0.42298 0.15148 0.47977 0.0
C304 C 0.51804 0.15731 0.40757 0.0
O305 O 0.47149 0.13868 0.51446 0.0
O306 O 0.47655 0.19508 0.52414 0.0
C307 C 0.53531 0.27344 0.48692 0.0
Fe308 Fe 0.78448 0.30594 0.43148 0.0
Fe309 Fe 0.86268 0.34772 0.46671 0.0
O310 O 0.81772 0.30467 0.45949 0.0
Fe311 Fe 0.80513 0.26007 0.47926 0.0
O312 O 0.76075 0.25549 0.49701 0.0
O313 O 0.7408 0.26525 0.44971 0.0
O314 O 0.77756 0.33746 0.45853 0.0
C315 C 0.80429 0.36967 0.46902 0.0
C316 C 0.78347 0.2407 0.41198 0.0
O317 O 0.84002 0.37912 0.46601 0.0
C318 C 0.88186 0.28803 0.46068 0.0
O319 O 0.82015 0.34698 0.40695 0.0
O320 O 0.87577 0.35512 0.42322 0.0
O321 O 0.77933 0.2304 0.44226 0.0
O322 O 0.79114 0.27441 0.40402 0.0
C323 C 0.84255 0.31671 0.52969 0.0
O324 O 0.89146 0.32262 0.46861 0.0
O325 O 0.84733 0.26077 0.46281 0.0
C326 C 0.8553 0.35818 0.40128 0.0
O327 O 0.85437 0.345 0.51038 0.0
O328 O 0.82926 0.28241 0.51892 0.0
C329 C 0.73389 0.2535 0.47919 0.0
Fe330 Fe 0.81174 0.35892 0.76883 0.0
Fe331 Fe 0.85199 0.32103 0.73218 0.0
O332 O 0.84755 0.36253 0.74103 0.0
Fe333 Fe 0.87932 0.40748 0.72173 0.0
O334 O 0.84504 0.42554 0.72093 0.0
O335 O 0.79057 0.37663 0.73855 0.0
O336 O 0.77566 0.3099 0.75604 0.0
C337 C 0.77267 0.29157 0.72968 0.0
C338 C 0.87739 0.43127 0.78511 0.0
O339 O 0.80248 0.29481 0.71527 0.0
C340 C 0.92819 0.37879 0.73951 0.0
O341 O 0.83032 0.34161 0.80161 0.0
O342 O 0.835 0.29773 0.77272 0.0
O343 O 0.89842 0.43169 0.76144 0.0
O344 O 0.84148 0.40716 0.78615 0.0
C345 C 0.86204 0.3565 0.67023 0.0
O346 O 0.90179 0.34557 0.74897 0.0
O347 O 0.91988 0.39803 0.71956 0.0
C348 C 0.83398 0.312 0.80029 0.0
O349 O 0.8692 0.33593 0.68967 0.0
O350 O 0.86138 0.38597 0.68114 0.0
C351 C 0.80867 0.40895 0.72415 0.0
Fe352 Fe 0.69498 0.53962 0.73581 0.0
Fe353 Fe 0.60919 0.47628 0.72657 0.0
O354 O 0.65467 0.49388 0.74663 0.0
Fe355 Fe 0.66082 0.46619 0.77741 0.0
O356 O 0.71133 0.48306 0.76731 0.0
O357 O 0.72215 0.51616 0.72145 0.0
O358 O 0.68007 0.5387 0.69293 0.0
C359 C 0.6596 0.51014 0.67443 0.0
C360 C 0.70414 0.53704 0.80521 0.0
O361 O 0.63098 0.47988 0.68602 0.0
C362 C 0.58472 0.4514 0.78984 0.0
O363 O 0.66896 0.56409 0.7496 0.0
O364 O 0.61473 0.52481 0.7231 0.0
O365 O 0.67394 0.50427 0.80776 0.0
O366 O 0.71833 0.54981 0.77688 0.0
C367 C 0.61536 0.4083 0.73457 0.0
O368 O 0.5831 0.47039 0.76546 0.0
O369 O 0.61177 0.44401 0.79295 0.0
C370 C 0.63499 0.55505 0.74032 0.0
O371 O 0.59617 0.42493 0.72765 0.0
O372 O 0.64765 0.42626 0.74921 0.0
C373 C 0.72822 0.494 0.73981 0.0
Fe374 Fe 0.55982 0.19439 0.77506 0.0
Fe375 Fe 0.48283 0.16175 0.73816 0.0
O376 O 0.52679 0.16177 0.746 0.0
Fe377 Fe 0.53833 0.12928 0.72557 0.0
O378 O 0.58298 0.16886 0.70793 0.0
O379 O 0.60331 0.19823 0.75559 0.0
O380 O 0.56782 0.23486 0.75022 0.0
C381 C 0.54163 0.24187 0.74138 0.0
C382 C 0.56237 0.13043 0.79202 0.0
O383 O 0.50589 0.21552 0.7417 0.0
C384 C 0.4612 0.08193 0.74197 0.0
O385 O 0.52389 0.19836 0.8005 0.0
O386 O 0.46789 0.15403 0.78116 0.0
O387 O 0.56499 0.1246 0.76144 0.0
O388 O 0.55264 0.15462 0.80093 0.0
C389 C 0.50166 0.1503 0.67537 0.0
O390 O 0.45337 0.10818 0.73386 0.0
O391 O 0.49548 0.08804 0.74202 0.0
C392 C 0.48795 0.17591 0.80418 0.0
O393 O 0.49325 0.16966 0.6947 0.0
O394 O 0.51349 0.12814 0.68647 0.0
C395 C 0.60984 0.19376 0.72585 0.0
Fe396 Fe 0.65286 0.20005 0.27099 0.0
Fe397 Fe 0.68972 0.16171 0.23178 0.0
O398 O 0.64811 0.16517 0.24201 0.0
Fe399 Fe 0.60189 0.13426 0.22423 0.0
O400 O 0.59718 0.17482 0.20828 0.0
O401 O 0.61261 0.20518 0.25552 0.0
O402 O 0.68399 0.23828 0.24333 0.0
C403 C 0.71508 0.24222 0.2315 0.0
C404 C 0.58668 0.13805 0.29265 0.0
O405 O 0.72331 0.21517 0.2341 0.0
C406 C 0.62895 0.08363 0.23727 0.0
O407 O 0.69407 0.20248 0.29296 0.0
O408 O 0.69806 0.15336 0.27432 0.0
O409 O 0.57477 0.13116 0.26282 0.0
O410 O 0.62163 0.16235 0.29905 0.0
C411 C 0.6555 0.15359 0.17113 0.0
O412 O 0.66282 0.10821 0.22741 0.0
O413 O 0.60244 0.092 0.2393 0.0
C414 C 0.7025 0.17626 0.2973 0.0
O415 O 0.68507 0.1698 0.18909 0.0
O416 O 0.62179 0.13224 0.18322 0.0
C417 C 0.59729 0.19989 0.22736 0.0
Fe418 Fe 0.81259 0.45376 0.26695 0.0
Fe419 Fe 0.85385 0.53342 0.23388 0.0
O420 O 0.85051 0.48788 0.24183 0.0
Fe421 Fe 0.88466 0.47635 0.22469 0.0
O422 O 0.84983 0.42404 0.22018 0.0
O423 O 0.79381 0.41869 0.23362 0.0
O424 O 0.77798 0.46864 0.25518 0.0
C425 C 0.77526 0.48348 0.22863 0.0
C426 C 0.87542 0.44512 0.28684 0.0
O427 O 0.80536 0.50992 0.21463 0.0
C428 C 0.93054 0.55451 0.24503 0.0
O429 O 0.82953 0.48695 0.30158 0.0
O430 O 0.8342 0.53673 0.27429 0.0
O431 O 0.89921 0.46828 0.26571 0.0
O432 O 0.83955 0.43206 0.28384 0.0
C433 C 0.87055 0.51235 0.17224 0.0
O434 O 0.90223 0.55911 0.25272 0.0
O435 O 0.92564 0.52649 0.22683 0.0
C436 C 0.83222 0.51993 0.30141 0.0
O437 O 0.87386 0.53831 0.19218 0.0
O438 O 0.87185 0.483 0.18264 0.0
C439 C 0.81303 0.40515 0.21993 0.0
Fe440 Fe 0.55956 0.36271 0.26796 0.0
Fe441 Fe 0.48056 0.32562 0.23386 0.0
O442 O 0.52658 0.36692 0.24185 0.0
Fe443 Fe 0.53958 0.41244 0.22361 0.0
O444 O 0.59212 0.42954 0.22081 0.0
O445 O 0.59555 0.37834 0.23532 0.0
O446 O 0.54433 0.31301 0.25629 0.0
C447 C 0.52762 0.2938 0.23072 0.0
C448 C 0.56797 0.43483 0.28608 0.0
O449 O 0.50246 0.29875 0.21593 0.0
C450 C 0.46156 0.3827 0.2421 0.0
O451 O 0.52564 0.34686 0.30232 0.0
O452 O 0.47555 0.30279 0.27468 0.0
O453 O 0.54581 0.43555 0.26403 0.0
O454 O 0.58079 0.41162 0.28435 0.0
C455 C 0.50472 0.36203 0.17192 0.0
O456 O 0.4563 0.35017 0.25163 0.0
O457 O 0.48963 0.40396 0.22318 0.0
C458 C 0.49238 0.31692 0.30193 0.0
O459 O 0.47745 0.34051 0.19149 0.0
O460 O 0.53455 0.39197 0.18252 0.0
C461 C 0.61045 0.4111 0.22145 0.0
Fe462 Fe 0.50364 0.35513 0.97008 0.0
Fe463 Fe 0.47069 0.26756 0.98139 0.0
O464 O 0.50469 0.31184 0.96203 0.0
Fe465 Fe 0.53959 0.31319 0.9344 0.0
O466 O 0.57678 0.36224 0.9453 0.0
O467 O 0.55301 0.37893 0.98714 0.0
O468 O 0.48546 0.3417 1.01227 0.0
C469 C 0.48941 0.31967 0.03237 0.0
C470 C 0.52019 0.36146 0.90196 0.0
O471 O 0.48744 0.28858 0.02247 0.0
C472 C 0.47275 0.2422 0.91876 0.0
O473 O 0.45476 0.33333 0.95295 0.0
O474 O 0.43121 0.27915 0.98162 0.0
O475 O 0.52154 0.33044 0.90073 0.0
O476 O 0.52169 0.37701 0.92949 0.0
C477 C 0.54091 0.26451 0.98167 0.0
O478 O 0.45171 0.24341 0.94161 0.0
O479 O 0.50901 0.26438 0.9187 0.0
C480 C 0.42627 0.30165 0.96262 0.0
O481 O 0.50422 0.24808 0.98398 0.0
O482 O 0.55982 0.29602 0.96605 0.0
C483 C 0.5817 0.38109 0.97164 0.0
Fe484 Fe 0.66507 0.14535 0.97173 0.0
Fe485 Fe 0.75103 0.20655 0.98147 0.0
O486 O 0.70552 0.1918 0.96262 0.0
Fe487 Fe 0.70013 0.22312 0.93526 0.0
O488 O 0.65044 0.2079 0.94803 0.0
O489 O 0.6381 0.16733 0.9894 0.0
O490 O 0.68113 0.14337 1.01363 0.0
C491 C 0.70017 0.17161 0.03287 0.0
C492 C 0.65485 0.15407 0.90396 0.0
O493 O 0.72936 0.20212 0.02215 0.0
C494 C 0.77378 0.23307 0.91838 0.0
O495 O 0.6905 0.12163 0.95429 0.0
O496 O 0.74358 0.15721 0.98302 0.0
O497 O 0.68411 0.18757 0.90231 0.0
O498 O 0.64112 0.13882 0.93168 0.0
C499 C 0.74883 0.27688 0.97998 0.0
O500 O 0.77524 0.21253 0.94158 0.0
O501 O 0.74875 0.24374 0.91806 0.0
C502 C 0.72403 0.12917 0.9635 0.0
O503 O 0.76707 0.25859 0.98255 0.0
O504 O 0.71618 0.26133 0.96597 0.0
C505 C 0.63288 0.19241 0.97465 0.0
Fe506 Fe 0.8764 0.52138 0.96828 0.0
Fe507 Fe 0.81785 0.54972 0.97944 0.0
O508 O 0.83154 0.51889 0.95908 0.0
Fe509 Fe 0.80069 0.48513 0.92953 0.0
O510 O 0.81491 0.44936 0.93898 0.0
O511 O 0.85116 0.47095 0.98336 0.0
O512 O 0.87858 0.53668 1.01145 0.0
C513 C 0.85149 0.53153 0.03089 0.0
C514 C 0.8695 0.50766 0.89902 0.0
O515 O 0.82185 0.53175 0.01994 0.0
C516 C 0.79103 0.54958 0.91702 0.0
O517 O 0.90295 0.57152 0.95333 0.0
O518 O 0.86793 0.59079 0.98112 0.0
O519 O 0.83751 0.50708 0.89737 0.0
O520 O 0.88306 0.50612 0.92693 0.0
C521 C 0.74709 0.47731 0.97598 0.0
O522 O 0.81219 0.57001 0.94056 0.0
O523 O 0.78023 0.5141 0.91485 0.0
C524 C 0.89704 0.5984 0.96306 0.0
O525 O 0.76542 0.51369 0.98066 0.0
O526 O 0.76225 0.46124 0.95965 0.0
C527 C 0.82722 0.44297 0.96559 0.0
Fe528 Fe 0.38274 0.81919 0.76346 0.0
Fe529 Fe 0.33463 0.84848 0.79857 0.0
O530 O 0.37995 0.85133 0.79149 0.0
Fe531 Fe 0.42304 0.88637 0.81147 0.0
O532 O 0.43043 0.84904 0.83064 0.0
O533 O 0.42409 0.81917 0.78365 0.0
O534 O 0.35204 0.77869 0.78903 0.0
C535 C 0.31791 0.76932 0.79721 0.0
C536 C 0.44659 0.88502 0.74517 0.0
O537 O 0.30647 0.79418 0.79592 0.0
C538 C 0.38905 0.92918 0.793 0.0
O539 O 0.34186 0.81193 0.7378 0.0
O540 O 0.32758 0.85494 0.75539 0.0
O541 O 0.45535 0.89191 0.7757 0.0
O542 O 0.41326 0.85888 0.73686 0.0
C543 C 0.3643 0.86361 0.86134 0.0
O544 O 0.35583 0.9019 0.80204 0.0
O545 O 0.41856 0.92526 0.79337 0.0
C546 C 0.32798 0.83379 0.73275 0.0
O547 O 0.33742 0.84197 0.84211 0.0
O548 O 0.3981 0.88701 0.85022 0.0
C549 C 0.43417 0.82459 0.81364 0.0
Fe550 Fe 0.16156 0.46881 0.80131 0.0
Fe551 Fe 0.14175 0.53412 0.80593 0.0
O552 O 0.17 0.5153 0.78883 0.0
Fe553 Fe 0.20683 0.54235 0.75989 0.0
O554 O 0.23918 0.52549 0.77497 0.0
O555 O 0.21048 0.4909 0.81927 0.0
O556 O 0.14391 0.4708 0.84248 0.0
C557 C 0.15426 0.50046 0.86013 0.0
C558 C 0.17968 0.47029 0.73377 0.0
O559 O 0.15782 0.53105 0.84748 0.0
C560 C 0.14677 0.55733 0.74157 0.0
O561 O 0.11223 0.44572 0.78387 0.0
O562 O 0.09784 0.48606 0.80888 0.0
O563 O 0.18452 0.50375 0.72949 0.0
O564 O 0.17826 0.45771 0.76265 0.0
C565 C 0.21664 0.60158 0.80074 0.0
O566 O 0.12469 0.53955 0.76555 0.0
O567 O 0.1813 0.56414 0.7405 0.0
C568 C 0.08771 0.45619 0.79113 0.0
O569 O 0.18036 0.58527 0.80521 0.0
O570 O 0.23156 0.58324 0.78774 0.0
C571 C 0.24107 0.51389 0.8036 0.0
Fe572 Fe 0.4537 0.65072 0.77502 0.0
Fe573 Fe 0.53625 0.6892 0.80421 0.0
O574 O 0.48951 0.64753 0.79825 0.0
Fe575 Fe 0.47888 0.6022 0.8155 0.0
O576 O 0.42638 0.58288 0.82034 0.0
O577 O 0.41891 0.63233 0.80893 0.0
O578 O 0.46762 0.69947 0.78906 0.0
C579 C 0.488 0.71958 0.81308 0.0
C580 C 0.44745 0.58021 0.75388 0.0
O581 O 0.51583 0.71615 0.82415 0.0
C582 C 0.55499 0.6325 0.79287 0.0
O583 O 0.48513 0.66866 0.73911 0.0
O584 O 0.53836 0.71171 0.764 0.0
O585 O 0.47112 0.57998 0.77462 0.0
O586 O 0.43369 0.60256 0.75703 0.0
C587 C 0.51644 0.65258 0.86643 0.0
O588 O 0.55988 0.66512 0.78422 0.0
O589 O 0.52892 0.61201 0.81352 0.0
C590 C 0.51903 0.6975 0.73786 0.0
O591 O 0.54214 0.67444 0.84579 0.0
O592 O 0.48594 0.62236 0.85699 0.0
C593 C 0.40562 0.59867 0.82066 0.0
Fe594 Fe 0.55585 0.74768 0.05586 0.0
Fe595 Fe 0.48565 0.69674 0.09928 0.0
O596 O 0.52422 0.70217 0.07442 0.0
Fe597 Fe 0.53094 0.6619 0.06761 0.0
O598 O 0.55039 0.67707 0.02574 0.0
O599 O 0.54168 0.72627 1.0148 0.0
O600 O 0.5194 0.76333 0.05195 0.0
C601 C 0.48266 0.74398 0.05238 0.0
C602 C 0.60586 0.72057 0.07632 0.0
O603 O 0.46553 0.71096 0.0657 0.0
C604 C 0.50826 0.65334 0.13495 0.0
O605 O 0.57129 0.7715 0.09613 0.0
O606 O 0.51167 0.74585 0.11554 0.0
O607 O 0.57922 0.68789 0.08642 0.0
O608 O 0.59809 0.74065 0.0568 0.0
C609 C 0.4521 0.62916 0.06121 0.0
O610 O 0.50354 0.68235 0.13445 0.0
O611 O 0.51186 0.63894 0.1082 0.0
C612 C 0.54747 0.77009 0.11759 0.0
O613 O 0.45257 0.64659 0.08734 0.0
O614 O 0.48319 0.63432 0.04828 0.0
C615 C 0.54314 0.69673 1.00532 0.0
Fe616 Fe 0.36579 0.87211 0.06533 0.0
Fe617 Fe 0.27713 0.81443 0.05663 0.0
O618 O 0.3227 0.82806 0.07512 0.0
Fe619 Fe 0.32479 0.79656 0.10458 0.0
O620 O 0.3542 0.78701 0.07742 0.0
O621 O 0.39626 0.84827 0.06539 0.0
O622 O 0.36061 0.86227 0.02181 0.0
C623 C 0.3314 0.85055 1.00357 0.0
C624 C 0.38053 0.86852 0.13062 0.0
O625 O 0.29747 0.83574 1.01574 0.0
C626 C 0.26046 0.79653 0.12511 0.0
O627 O 0.34112 0.90129 0.0637 0.0
O628 O 0.27891 0.8581 0.07095 0.0
O629 O 0.36757 0.83284 0.12693 0.0
O630 O 0.37631 0.88772 0.1082 0.0
C631 C 0.26948 0.74274 0.06034 0.0
O632 O 0.24914 0.7914 0.09509 0.0
O633 O 0.29502 0.80593 0.13209 0.0
C634 C 0.30653 0.89261 0.07104 0.0
O635 O 0.27128 0.76843 0.04099 0.0
O636 O 0.28275 0.75208 0.08921 0.0
C637 C 0.38574 0.81213 0.06452 0.0
Fe638 Fe 0.15992 0.49988 0.0612 0.0
Fe639 Fe 0.21717 0.47013 0.05022 0.0
O640 O 0.20598 0.5041 0.06814 0.0
Fe641 Fe 0.24091 0.54177 0.09302 0.0
O642 O 0.22704 0.57732 0.08132 0.0
O643 O 0.18169 0.54896 0.04354 0.0
O644 O 0.15588 0.4819 0.01899 0.0
C645 C 0.18246 0.48669 0.99903 0.0
C646 C 0.17482 0.52208 0.12851 0.0
O647 O 0.21196 0.48518 1.00882 0.0
C648 C 0.24628 0.47682 0.11258 0.0
O649 O 0.13479 0.45068 0.079 0.0
O650 O 0.16711 0.42995 0.04995 0.0
O651 O 0.2084 0.52612 0.12838 0.0
O652 O 0.15658 0.51779 0.10187 0.0
C653 C 0.28926 0.54026 0.04635 0.0
O654 O 0.22297 0.45373 0.09116 0.0
O655 O 0.26108 0.51304 0.10957 0.0
C656 C 0.13981 0.42319 0.06962 0.0
O657 O 0.26967 0.50366 0.04716 0.0
O658 O 0.27596 0.56004 0.05931 0.0
C659 C 0.20797 0.57934 0.0573 0.0
Fe660 Fe 0.36107 0.49466 0.56745 0.0
Fe661 Fe 0.27315 0.45953 0.55654 0.0
O662 O 0.31704 0.49432 0.57585 0.0
Fe663 Fe 0.31705 0.52822 0.60365 0.0
O664 O 0.36512 0.56734 0.59142 0.0
O665 O 0.38342 0.54376 0.55036 0.0
O666 O 0.34741 0.47673 0.52501 0.0
C667 C 0.32507 0.48101 0.50534 0.0
C668 C 0.36836 0.51285 0.63545 0.0
O669 O 0.29371 0.47819 0.51574 0.0
C670 C 0.24839 0.45855 0.6199 0.0
O671 O 0.3404 0.44565 0.58463 0.0
O672 O 0.28727 0.42212 0.55478 0.0
O673 O 0.33632 0.51199 0.63658 0.0
O674 O 0.38359 0.51343 0.60794 0.0
C675 C 0.266 0.52709 0.55805 0.0
O676 O 0.24997 0.43878 0.59619 0.0
O677 O 0.26897 0.4951 0.62031 0.0
C678 C 0.30909 0.41697 0.57444 0.0
O679 O 0.2509 0.49068 0.55549 0.0
O680 O 0.29761 0.54685 0.573 0.0
C681 C 0.3841 0.57215 0.56505 0.0
Fe682 Fe 0.52564 0.86822 0.56152 0.0
Fe683 Fe 0.54983 0.80621 0.55439 0.0
O684 O 0.51824 0.82142 0.5707 0.0
Fe685 Fe 0.47898 0.79002 0.59591 0.0
O686 O 0.44709 0.80799 0.58223 0.0
O687 O 0.47802 0.84755 0.54119 0.0
O688 O 0.54667 0.87106 0.52058 0.0
C689 C 0.53966 0.84347 0.50117 0.0
C690 C 0.50423 0.85845 0.62864 0.0
O691 O 0.53706 0.81252 0.51224 0.0
C692 C 0.53859 0.77598 0.61684 0.0
O693 O 0.57315 0.89072 0.58143 0.0
O694 O 0.59323 0.85532 0.55555 0.0
O695 O 0.49777 0.82409 0.62998 0.0
O696 O 0.50612 0.87413 0.60098 0.0
C697 C 0.47552 0.73741 0.55124 0.0
O698 O 0.5635 0.79804 0.5958 0.0
O699 O 0.50329 0.76618 0.61402 0.0
C700 C 0.60001 0.8838 0.57407 0.0
O701 O 0.51233 0.7545 0.551 0.0
O702 O 0.45834 0.75394 0.56349 0.0
C703 C 0.44662 0.82333 0.55508 0.0
Fe704 Fe 0.23384 0.69388 0.59606 0.0
Fe705 Fe 0.15278 0.65855 0.56634 0.0
O706 O 0.20017 0.69922 0.57156 0.0
Fe707 Fe 0.21455 0.74498 0.55324 0.0
O708 O 0.25694 0.74788 0.53259 0.0
O709 O 0.27761 0.73286 0.57679 0.0
O710 O 0.23488 0.66076 0.56635 0.0
C711 C 0.20501 0.62931 0.55853 0.0
C712 C 0.24157 0.7611 0.61972 0.0
O713 O 0.17104 0.62364 0.56475 0.0
C714 C 0.1397 0.72191 0.57525 0.0
O715 O 0.19797 0.65409 0.62161 0.0
O716 O 0.14342 0.65211 0.61036 0.0
O717 O 0.24342 0.77265 0.58999 0.0
O718 O 0.2332 0.72673 0.62601 0.0
C719 C 0.16909 0.68934 0.50345 0.0
O720 O 0.12733 0.6869 0.56698 0.0
O721 O 0.1749 0.74719 0.57233 0.0
C722 C 0.16417 0.64594 0.62985 0.0
O723 O 0.15746 0.66086 0.52248 0.0
O724 O 0.18733 0.72399 0.51435 0.0
C725 C 0.28411 0.74772 0.54841 0.0
Fe726 Fe 0.167 0.69172 0.29983 0.0
Fe727 Fe 0.13975 0.60449 0.31001 0.0
O728 O 0.17215 0.65046 0.29275 0.0
Fe729 Fe 0.21048 0.65542 0.26758 0.0
O730 O 0.2452 0.68714 0.29735 0.0
O731 O 0.22061 0.72585 0.30132 0.0
O732 O 0.17003 0.68785 0.3436 0.0
C733 C 0.15164 0.65851 0.36156 0.0
C734 C 0.18966 0.70531 0.23604 0.0
O735 O 0.13326 0.62462 0.34919 0.0
C736 C 0.15164 0.58865 0.2437 0.0
O737 O 0.11313 0.66436 0.29991 0.0
O738 O 0.09863 0.60396 0.29094 0.0
O739 O 0.21495 0.6963 0.24335 0.0
O740 O 0.16336 0.69929 0.25617 0.0
C741 C 0.20603 0.60107 0.31476 0.0
O742 O 0.1413 0.57727 0.27329 0.0
O743 O 0.17643 0.62342 0.23738 0.0
C744 C 0.08928 0.62983 0.29109 0.0
O745 O 0.17839 0.60038 0.33049 0.0
O746 O 0.21472 0.61587 0.28633 0.0
C747 C 0.24782 0.71839 0.30709 0.0
Fe748 Fe 0.41299 0.53966 0.31271 0.0
Fe749 Fe 0.36208 0.55926 0.26936 0.0
O750 O 0.36711 0.52642 0.29506 0.0
Fe751 Fe 0.326 0.48019 0.30308 0.0
O752 O 0.34155 0.47625 0.34493 0.0
O753 O 0.39296 0.53321 0.35421 0.0
O754 O 0.42909 0.59193 0.31653 0.0
C755 C 0.41038 0.61005 0.31574 0.0
C756 C 0.38336 0.46196 0.29285 0.0
O757 O 0.37746 0.59484 0.30211 0.0
C758 C 0.31725 0.49213 0.23548 0.0
O759 O 0.43616 0.54741 0.27211 0.0
O760 O 0.41102 0.58157 0.25252 0.0
O761 O 0.35037 0.45641 0.28434 0.0
O762 O 0.40522 0.48993 0.31165 0.0
C763 C 0.29451 0.52734 0.30805 0.0
O764 O 0.3467 0.52564 0.23498 0.0
O765 O 0.30254 0.47568 0.26272 0.0
C766 C 0.43529 0.57006 0.25068 0.0
O767 O 0.31212 0.54331 0.28164 0.0
O768 O 0.29967 0.50196 0.32212 0.0
C769 C 0.36358 0.5028 0.36476 0.0
Fe770 Fe 0.48368 0.88606 0.31139 0.0
Fe771 Fe 0.46028 0.81661 0.26592 0.0
O772 O 0.49402 0.85189 0.29287 0.0
Fe773 Fe 0.53845 0.8531 0.30148 0.0
O774 O 0.54292 0.87222 0.34352 0.0
O775 O 0.48663 0.86848 0.35252 0.0
O776 O 0.43066 0.85365 0.31324 0.0
C777 C 0.41056 0.81706 0.31221 0.0
C778 C 0.56174 0.93001 0.2925 0.0
O779 O 0.42307 0.79752 0.29762 0.0
C780 C 0.52766 0.83466 0.23368 0.0
O781 O 0.47971 0.90506 0.27113 0.0
O782 O 0.44259 0.84742 0.24915 0.0
O783 O 0.56563 0.90172 0.28342 0.0
O784 O 0.53482 0.92463 0.31234 0.0
C785 C 0.48556 0.77526 0.30485 0.0
O786 O 0.49542 0.83357 0.23246 0.0
O787 O 0.54221 0.83393 0.26123 0.0
C788 C 0.45747 0.88381 0.24834 0.0
O789 O 0.47189 0.77949 0.27803 0.0
O790 O 0.51268 0.80422 0.31956 0.0
C791 C 0.51596 0.86723 0.36303 0.0
C792 C 0.14821 0.18648 0.05388 0.0
C793 C 0.13262 0.21124 0.05626 0.0
C794 C 0.16267 0.18134 0.02402 0.0
C795 C 0.16203 0.20064 0.99511 0.0
H796 H 0.1461 0.1683 0.07461 0.0
H797 H 0.17203 0.16005 0.0232 0.0
S798 S 0.13311 0.27598 0.99047 0.0
N799 N 0.12361 0.2604 0.02903 0.0
N800 N 0.15125 0.25123 0.97248 0.0
C801 C 0.15087 0.22907 0.99812 0.0
C802 C 0.13602 0.23424 0.02883 0.0
C803 C 0.80468 0.91723 0.02806 0.0
C804 C 0.82238 0.93641 0.05751 0.0
C805 C 0.8104 0.93796 0.99868 0.0
C806 C 0.83505 0.97848 0.99771 0.0
H807 H 0.78872 0.88588 0.02721 0.0
H808 H 0.79794 0.92173 0.9762 0.0
S809 S 0.88618 0.04213 0.06899 0.0
N810 N 0.86341 0.99791 0.0846 0.0
N811 N 0.87448 0.03718 0.0295 0.0
C812 C 0.8508 0.99813 0.02756 0.0
C813 C 0.84447 0.97698 0.05747 0.0
C814 C 0.07476 0.85895 0.05493 0.0
C815 C 0.1141 0.88817 0.05468 0.0
C816 C 0.05407 0.84424 0.02539 0.0
C817 C 0.07228 0.8579 0.99471 0.0
H818 H 0.0589 0.85041 0.07801 0.0
H819 H 0.02299 0.82464 0.02659 0.0
S820 S 0.17607 0.9293 0.98071 0.0
N821 N 0.17144 0.9266 0.02132 0.0
N822 N 0.13276 0.89845 0.96571 0.0
C823 C 0.11245 0.88392 0.99413 0.0
C824 C 0.13342 0.89905 0.02421 0.0
C825 C 0.23453 0.11539 0.51178 0.0
C826 C 0.23304 0.12938 0.48027 0.0
C827 C 0.22837 0.13153 0.54036 0.0
C828 C 0.22083 0.16238 0.53827 0.0
H829 H 0.2361 0.08913 0.5141 0.0
H830 H 0.22583 0.11744 0.56387 0.0
S831 S 0.22095 0.21391 0.46222 0.0
N832 N 0.22945 0.17954 0.44912 0.0
N833 N 0.21712 0.20944 0.50281 0.0
C834 C 0.22344 0.17926 0.50733 0.0
C835 C 0.23001 0.16299 0.47828 0.0
C836 C 0.88665 0.08772 0.54046 0.0
C837 C 0.86112 0.04745 0.53874 0.0
C838 C 0.90102 0.1099 0.51174 0.0
C839 C 0.89008 0.09273 0.48038 0.0
H840 H 0.89803 0.10173 0.56401 0.0
H841 H 0.9234 0.14002 0.51404 0.0
S842 S 0.81594 0.99075 0.46306 0.0
N843 N 0.81988 0.99288 0.50366 0.0
N844 N 0.84633 0.03495 0.44956 0.0
C845 C 0.86083 0.05369 0.47851 0.0
C846 C 0.84667 0.03085 0.50777 0.0
C847 C 0.97383 0.80757 0.50852 0.0
C848 C 0.95641 0.79607 0.53985 0.0
C849 C 0.95205 0.80617 0.4809 0.0
C850 C 0.91237 0.79375 0.48398 0.0
H851 H 1.00502 0.82078 0.50586 0.0
H852 H 0.96711 0.81848 0.45787 0.0
S853 S 0.85144 0.75215 0.55839 0.0
N854 N 0.89577 0.76486 0.57076 0.0
N855 N 0.85519 0.7637 0.51887 0.0
C856 C 0.89383 0.77819 0.51413 0.0
C857 C 0.9158 0.77879 0.54212 0.0
C858 C 0.89586 0.80485 0.04789 0.0
C859 C 0.8689 0.81767 0.04587 0.0
C860 C 0.91279 0.80006 0.01936 0.0
C861 C 0.90288 0.8075 0.98797 0.0
H862 H 0.90627 0.8016 0.07173 0.0
H863 H 0.9361 0.79363 0.02202 0.0
S864 S 0.83102 0.83845 0.9699 0.0
N865 N 0.83086 0.83516 1.01057 0.0
N866 N 0.86207 0.82538 0.95652 0.0
C867 C 0.87339 0.81707 0.98558 0.0
C868 C 0.85656 0.82248 1.01475 0.0
C869 C 0.20886 0.05868 0.97631 0.0
C870 C 0.22509 0.09915 0.9756 0.0
C871 C 0.20264 0.03866 1.00611 0.0
C872 C 0.21236 0.05837 0.03644 0.0
H873 H 0.19735 0.04198 0.95397 0.0
H874 H 0.18765 0.0073 1.0055 0.0
S875 S 0.25888 0.16489 0.0477 0.0
N876 N 0.2534 0.15862 1.00734 0.0
N877 N 0.24235 0.12126 0.06371 0.0
C878 C 0.23177 0.09924 0.03591 0.0
C879 C 0.23797 0.1196 1.00537 0.0
C880 C 0.90824 0.13031 1.00312 0.0
C881 C 0.93051 0.14048 0.97402 0.0
C882 C 0.92627 0.14184 0.03424 0.0
C883 C 0.96703 0.16313 0.03692 0.0
H884 H 0.87733 0.10997 1.0021 0.0
H885 H 0.90851 0.1309 0.05622 0.0
S886 S 0.03715 0.20303 0.96778 0.0
N887 N 0.99438 0.1783 0.94977 0.0
N888 N 0.02836 0.19902 1.00785 0.0
C889 C 0.989 0.17688 1.0079 0.0
C890 C 0.97064 0.16587 0.9765 0.0
C891 C 0.79113 0.88317 0.49807 0.0
C892 C 0.79628 0.85077 0.49761 0.0
C893 C 0.78429 0.89669 0.52781 0.0
C894 C 0.78362 0.879 0.55795 0.0
H895 H 0.79566 0.9 0.4758 0.0
H896 H 0.78416 0.92376 0.52777 0.0
S897 S 0.78659 0.78835 0.5688 0.0
N898 N 0.79303 0.79714 0.52872 0.0
N899 N 0.78115 0.82346 0.58486 0.0
C900 C 0.78377 0.84388 0.5572 0.0
C901 C 0.79019 0.82968 0.52687 0.0
C902 C 0.12315 0.89498 0.52622 0.0
C903 C 0.12934 0.91267 0.55731 0.0
C904 C 0.1388 0.91731 0.49752 0.0
C905 C 0.16035 0.95814 0.49898 0.0
H906 H 0.103 0.86419 0.52368 0.0
H907 H 0.13094 0.90263 0.47389 0.0
S908 S 0.18976 0.01754 0.57527 0.0
N909 N 0.16264 0.97254 0.58847 0.0
N910 N 0.19154 0.01464 0.5347 0.0
C911 C 0.1697 0.9757 0.53029 0.0
C912 C 0.15433 0.9529 0.55943 0.0
C913 C 0.12042 0.23123 0.51796 0.0
C914 C 0.10367 0.22127 0.54962 0.0
C915 C 0.09737 0.22417 0.48984 0.0
C916 C 0.0569 0.20668 0.49259 0.0
H917 H 0.15099 0.24104 0.51467 0.0
H918 H 0.11087 0.22919 0.46572 0.0
S919 S 0.99928 0.17897 0.56968 0.0
N920 N 0.0446 0.19673 0.58215 0.0
N921 N 1.00127 0.18288 0.52903 0.0
C922 C 0.04015 0.19967 0.52408 0.0
C923 C 0.06364 0.20735 0.55278 0.0
C924 C 0.81261 0.52342 0.39202 0.0
C925 C 0.79442 0.54588 0.39283 0.0
C926 C 0.8273 0.51765 0.36265 0.0
C927 C 0.82522 0.53466 0.33291 0.0
H928 H 0.81157 0.50662 0.41343 0.0
H929 H 0.83737 0.49703 0.3628 0.0
S930 S 0.78753 0.60276 0.32361 0.0
N931 N 0.77973 0.58966 0.36284 0.0
N932 N 0.80901 0.58025 0.30738 0.0
C933 C 0.81127 0.56102 0.33422 0.0
C934 C 0.79557 0.56638 0.36431 0.0
C935 C 0.48476 0.29307 0.39303 0.0
C936 C 0.46469 0.25227 0.39348 0.0
C937 C 0.4908 0.31381 0.36359 0.0
C938 C 0.47708 0.29461 0.33323 0.0
H939 H 0.49916 0.30912 0.41512 0.0
H940 H 0.50867 0.34511 0.36436 0.0
S941 S 0.41792 0.18793 0.32185 0.0
N942 N 0.42753 0.1934 0.3618 0.0
N943 N 0.43818 0.23213 0.3062 0.0
C944 C 0.45363 0.2538 0.33382 0.0
C945 C 0.44763 0.23268 0.36401 0.0
C946 C 0.70815 0.16692 0.35694 0.0
C947 C 0.72623 0.17961 0.32605 0.0
C948 C 0.72903 0.1826 0.38623 0.0
C949 C 0.76816 0.21208 0.38514 0.0
H950 H 0.67703 0.14768 0.35838 0.0
H951 H 0.7133 0.17513 0.40938 0.0
S952 S 0.82952 0.25075 0.31037 0.0
N953 N 0.78618 0.21897 0.29611 0.0
N954 N 0.82523 0.24942 0.35098 0.0
C955 C 0.78733 0.22173 0.3545 0.0
C956 C 0.76628 0.20533 0.32487 0.0
C957 C 0.89333 0.46745 0.87141 0.0
C958 C 0.88364 0.49692 0.86915 0.0
C959 C 0.89703 0.44935 0.843 0.0
C960 C 0.89228 0.4608 0.81135 0.0
H961 H 0.89445 0.45573 0.89527 0.0
H962 H 0.89996 0.42388 0.84594 0.0
S963 S 0.87496 0.54176 0.79186 0.0
N964 N 0.87465 0.54015 0.83264 0.0
N965 N 0.88354 0.50729 0.77925 0.0
C966 C 0.88706 0.49307 0.80872 0.0
C967 C 0.88217 0.51082 0.83762 0.0
C968 C 0.54441 0.42523 0.87337 0.0
C969 C 0.52578 0.38442 0.87145 0.0
C970 C 0.55805 0.44834 0.84493 0.0
C971 C 0.5529 0.4315 0.81358 0.0
H972 H 0.55172 0.43963 0.89712 0.0
H973 H 0.57654 0.47939 0.84785 0.0
S974 S 0.49766 0.32649 0.79444 0.0
N975 N 0.49685 0.32838 0.83514 0.0
N976 N 0.522 0.37198 0.78171 0.0
C977 C 0.52991 0.39096 0.81106 0.0
C978 C 0.51663 0.36734 0.83999 0.0
C979 C 0.56719 0.10952 0.84835 0.0
C980 C 0.58389 0.12188 0.81694 0.0
C981 C 0.59045 0.11661 0.87636 0.0
C982 C 0.63123 0.13727 0.87391 0.0
H983 H 0.53621 0.09748 0.85166 0.0
H984 H 0.57643 0.10911 0.90031 0.0
S985 S 0.68862 0.17045 0.79666 0.0
N986 N 0.64305 0.15072 0.78444 0.0
N987 N 0.68699 0.16524 0.83717 0.0
C988 C 0.64801 0.14641 0.84231 0.0
C989 C 0.62423 0.13831 0.81374 0.0
C990 C 0.55801 0.13361 0.38064 0.0
C991 C 0.528 0.14234 0.37825 0.0
C992 C 0.57372 0.12674 0.35235 0.0
C993 C 0.55962 0.12788 0.32074 0.0
H994 H 0.57154 0.13517 0.40424 0.0
H995 H 0.59935 0.12397 0.35502 0.0
S996 S 0.47314 0.13698 0.30276 0.0
N997 N 0.47957 0.14408 0.34301 0.0
N998 N 0.50756 0.12847 0.28968 0.0
C999 C 0.5259 0.13082 0.31857 0.0
C1000 C 0.51066 0.13913 0.3474 0.0
C1001 C 0.87287 0.36868 0.34157 0.0
C1002 C 0.87389 0.38412 0.37296 0.0
C1003 C 0.87972 0.39126 0.31296 0.0
C1004 C 0.88702 0.42965 0.31491 0.0
H1005 H 0.86391 0.33827 0.33898 0.0
H1006 H 0.8754 0.37739 0.28913 0.0
S1007 S 0.89495 0.48351 0.39187 0.0
N1008 N 0.88633 0.44061 0.40474 0.0
N1009 N 0.89576 0.48194 0.35116 0.0
C1010 C 0.89017 0.44576 0.3464 0.0
C1011 C 0.88445 0.42323 0.37541 0.0
C1012 C 0.58457 0.47135 0.37233 0.0
C1013 C 0.62546 0.49278 0.37297 0.0
C1014 C 0.56445 0.45687 0.34241 0.0
C1015 C 0.58462 0.46404 0.31237 0.0
H1016 H 0.56827 0.46242 0.39519 0.0
H1017 H 0.53349 0.43664 0.34324 0.0
S1018 S 0.69079 0.52434 0.30023 0.0
N1019 N 0.68473 0.52507 0.3405 0.0
N1020 N 0.64684 0.49806 0.28461 0.0
C1021 C 0.62493 0.48911 0.31245 0.0
C1022 C 0.64542 0.50344 0.34271 0.0
C1023 C 0.45888 0.21099 0.8317 0.0
C1024 C 0.46907 0.18193 0.83297 0.0
C1025 C 0.45296 0.2265 0.8608 0.0
C1026 C 0.45724 0.2135 0.89196 0.0
H1027 H 0.45909 0.2243 0.8083 0.0
H1028 H 0.44943 0.2517 0.85897 0.0
S1029 S 0.47799 0.13408 0.90801 0.0
N1030 N 0.47881 0.13773 0.86736 0.0
N1031 N 0.46722 0.16655 0.92204 0.0
C1032 C 0.46327 0.18166 0.89324 0.0
C1033 C 0.46956 0.16606 0.86368 0.0
C1034 C 0.82638 0.29065 0.89165 0.0
C1035 C 0.80368 0.25002 0.89252 0.0
C1036 C 0.8389 0.31061 0.86164 0.0
C1037 C 0.83001 0.29054 0.83143 0.0
H1038 H 0.83096 0.30726 0.91402 0.0
H1039 H 0.85326 0.34199 0.86201 0.0
S1040 S 0.78151 0.18367 0.82165 0.0
N1041 N 0.7795 0.19022 0.86172 0.0
N1042 N 0.80458 0.22744 0.80507 0.0
C1043 C 0.81245 0.2498 0.83247 0.0
C1044 C 0.799 0.22955 0.86315 0.0
C1045 C 0.71051 0.54266 0.86663 0.0
C1046 C 0.72819 0.55394 0.83537 0.0
C1047 C 0.73257 0.54756 0.89508 0.0
C1048 C 0.77309 0.5639 0.89335 0.0
H1049 H 0.67915 0.52688 0.86878 0.0
H1050 H 0.7174 0.53449 0.91791 0.0
S1051 S 0.83432 0.60508 0.81904 0.0
N1052 N 0.78953 0.58809 0.80551 0.0
N1053 N 0.83057 0.59635 0.85913 0.0
C1054 C 0.79152 0.57944 0.86314 0.0
C1055 C 0.76915 0.57473 0.83407 0.0
C1056 C 0.46948 0.90726 0.68852 0.0
C1057 C 0.47613 0.89515 0.71927 0.0
C1058 C 0.48206 0.89854 0.65904 0.0
C1059 C 0.50099 0.8767 0.6594 0.0
H1060 H 0.45083 0.91979 0.68699 0.0
H1061 H 0.47351 0.90564 0.63586 0.0
S1062 S 0.53197 0.84499 0.73369 0.0
N1063 N 0.50843 0.8661 0.74843 0.0
N1064 N 0.53138 0.84885 0.69314 0.0
C1065 C 0.51161 0.86834 0.69008 0.0
C1066 C 0.49949 0.87797 0.72004 0.0
C1067 C 0.16702 0.64182 0.69023 0.0
C1068 C 0.14814 0.62441 0.66067 0.0
C1069 C 0.16109 0.61975 0.71866 0.0
C1070 C 0.13718 0.57922 0.71807 0.0
H1071 H 0.18906 0.67213 0.69064 0.0
H1072 H 0.1788 0.63392 0.74014 0.0
S1073 S 0.07844 0.5201 0.64753 0.0
N1074 N 0.10134 0.565 0.63318 0.0
N1075 N 0.09188 0.52284 0.68651 0.0
C1076 C 0.11571 0.56173 0.68947 0.0
C1077 C 0.12094 0.58452 0.66062 0.0
C1078 C 0.391 0.52707 0.7264 0.0
C1079 C 0.43136 0.55202 0.72687 0.0
C1080 C 0.37124 0.51181 0.69676 0.0
C1081 C 0.39103 0.52097 0.66642 0.0
H1082 H 0.37412 0.52237 0.74864 0.0
H1083 H 0.33989 0.49518 0.69738 0.0
S1084 S 0.49766 0.58195 0.65507 0.0
N1085 N 0.4911 0.58271 0.69528 0.0
N1086 N 0.45414 0.55365 0.63919 0.0
C1087 C 0.43194 0.54304 0.66693 0.0
C1088 C 0.45207 0.55871 0.6973 0.0
C1089 C 0.57013 0.79212 0.1744 0.0
C1090 C 0.55861 0.79929 0.14366 0.0
C1091 C 0.56317 0.80668 0.20363 0.0
C1092 C 0.54386 0.82826 0.20292 0.0
H1093 H 0.58091 0.77201 0.17618 0.0
H1094 H 0.56978 0.798 0.22698 0.0
S1095 S 0.51398 0.86006 0.12808 0.0
N1096 N 0.53194 0.83341 0.11386 0.0
N1097 N 0.51878 0.86069 0.16856 0.0
C1098 C 0.53589 0.83874 0.17207 0.0
C1099 C 0.54334 0.82428 0.14246 0.0
C1100 C 0.22974 0.77034 0.21232 0.0
C1101 C 0.19815 0.73269 0.20894 0.0
C1102 C 0.24641 0.79381 0.18466 0.0
C1103 C 0.23257 0.77998 0.15269 0.0
H1104 H 0.24358 0.78052 0.23613 0.0
H1105 H 0.2728 0.82134 0.18802 0.0
S1106 S 0.14442 0.68673 0.13222 0.0
N1107 N 0.14902 0.68504 0.17264 0.0
N1108 N 0.18046 0.72926 0.12014 0.0
C1109 C 0.19777 0.74436 0.14957 0.0
C1110 C 0.18069 0.72043 0.17792 0.0
C1111 C 0.31769 0.48358 0.17463 0.0
C1112 C 0.2963 0.47594 0.20404 0.0
C1113 C 0.29961 0.47748 0.1438 0.0
C1114 C 0.25957 0.46381 0.14119 0.0
H1115 H 0.34903 0.4969 0.17547 0.0
H1116 H 0.31775 0.48722 0.122 0.0
S1117 S 0.18978 0.43488 0.21048 0.0
N1118 N 0.23215 0.44969 0.22855 0.0
N1119 N 0.19847 0.43912 0.17036 0.0
C1120 C 0.2373 0.45253 0.17021 0.0
C1121 C 0.25563 0.45843 0.20175 0.0
C1122 C 0.18664 0.44447 0.64559 0.0
C1123 C 0.22 0.44089 0.64679 0.0
C1124 C 0.17107 0.45075 0.67449 0.0
C1125 C 0.18728 0.45158 0.7055 0.0
H1126 H 0.17519 0.44669 0.62199 0.0
H1127 H 0.14806 0.45769 0.6724 0.0
S1128 S 0.26681 0.43094 0.7222 0.0
N1129 N 0.26354 0.4304 0.68151 0.0
N1130 N 0.23272 0.43942 0.73613 0.0
C1131 C 0.21638 0.44141 0.70727 0.0
C1132 C 0.23302 0.43643 0.67776 0.0
C1133 C 0.52318 0.71584 0.64594 0.0
C1134 C 0.54739 0.75628 0.64346 0.0
C1135 C 0.51645 0.69673 0.67628 0.0
C1136 C 0.5338 0.71724 0.70547 0.0
H1137 H 0.50635 0.69935 0.62477 0.0
H1138 H 0.49553 0.66598 0.67712 0.0
S1139 S 0.60644 0.82227 0.71074 0.0
N1140 N 0.59344 0.81535 0.67148 0.0
N1141 N 0.58169 0.77946 0.72879 0.0
C1142 C 0.56169 0.75701 0.70264 0.0
C1143 C 0.5683 0.77654 0.67153 0.0
C1144 C 0.29424 0.82195 0.64489 0.0
C1145 C 0.25745 0.78851 0.64752 0.0
C1146 C 0.31657 0.83939 0.67322 0.0
C1147 C 0.30175 0.82482 0.70472 0.0
H1148 H 0.3073 0.83246 0.621 0.0
H1149 H 0.34637 0.86251 0.67038 0.0
S1150 S 0.20362 0.74444 0.72504 0.0
N1151 N 0.20505 0.74568 0.68429 0.0
N1152 N 0.24618 0.78 0.73736 0.0
C1153 C 0.26325 0.79491 0.70776 0.0
C1154 C 0.24113 0.77646 0.67911 0.0
C1155 C 0.17432 0.52657 0.19006 0.0
C1156 C 0.16007 0.53023 0.15928 0.0
C1157 C 0.16707 0.54148 0.21882 0.0
C1158 C 0.1457 0.56083 0.2176 0.0
H1159 H 0.1931 0.51419 0.19167 0.0
H1160 H 0.18136 0.54112 0.24145 0.0
S1161 S 0.09879 0.57495 0.14428 0.0
N1162 N 0.12016 0.55139 0.13019 0.0
N1163 N 0.108 0.58047 0.18426 0.0
C1164 C 0.12905 0.56232 0.18764 0.0
C1165 C 0.13579 0.54664 0.15843 0.0
C1166 C 0.47979 0.59064 0.16642 0.0
C1167 C 0.50033 0.63154 0.16642 0.0
C1168 C 0.46243 0.56963 0.19548 0.0
C1169 C 0.46568 0.58891 0.22538 0.0
H1170 H 0.47402 0.57486 0.1434 0.0
H1171 H 0.44341 0.53853 0.19385 0.0
S1172 S 0.5218 0.69496 0.23961 0.0
N1173 N 0.52726 0.68997 0.19983 0.0
N1174 N 0.49473 0.65054 0.25409 0.0
C1175 C 0.48942 0.6294 0.22626 0.0
C1176 C 0.50677 0.65073 0.19686 0.0
C1177 C 0.44386 0.89695 0.15997 0.0
C1178 C 0.40482 0.88773 0.15977 0.0
C1179 C 0.46409 0.90302 0.18986 0.0
C1180 C 0.44569 0.89933 0.22037 0.0
H1181 H 0.45773 0.8962 0.13718 0.0
H1182 H 0.49285 0.90649 0.18926 0.0
S1183 S 0.34612 0.88244 0.23252 0.0
N1184 N 0.3504 0.88077 0.19207 0.0
N1185 N 0.38831 0.89178 0.24815 0.0
C1186 C 0.4082 0.89445 0.22011 0.0
C1187 C 0.38766 0.88848 0.18977 0.0
C1188 C 0.14251 0.1396 0.14739 0.0
C1189 C 0.10261 0.12159 0.15547 0.0
C1190 C 0.16185 0.11815 0.14528 0.0
C1191 C 0.14216 0.07818 0.15186 0.0
H1192 H 0.1582 0.16983 0.14014 0.0
H1193 H 0.1914 0.13228 0.13612 0.0
S1194 S 0.03991 0.01865 0.1789 0.0
N1195 N 0.04597 0.06238 0.17366 0.0
N1196 N 0.0822 0.02242 0.17019 0.0
C1197 C 0.10347 0.0607 0.16261 0.0
C1198 C 0.08375 0.08231 0.16436 0.0
C1199 C 0.93456 0.01337 0.17523 0.0
C1200 C 0.89452 0.99258 0.16907 0.0
C1201 C 0.95573 0.05378 0.17185 0.0
C1202 C 0.93806 0.07483 0.16126 0.0
H1203 H 0.95021 0.99801 0.17967 0.0
H1204 H 0.98681 0.06846 0.17447 0.0
S1205 S 0.83274 0.03504 0.14842 0.0
N1206 N 0.8367 0.99669 0.15762 0.0
N1207 N 0.87722 0.0728 0.14982 0.0
C1208 C 0.89746 0.0551 0.15872 0.0
C1209 C 0.87552 0.01381 0.16295 0.0
C1210 C 0.97652 0.8713 0.12697 0.0
C1211 C 0.95815 0.87923 0.15294 0.0
C1212 C 0.0169 0.88739 0.12662 0.0
C1213 C 0.04005 0.91147 0.15238 0.0
H1214 H 0.96006 0.85543 0.10547 0.0
H1215 H 0.03033 0.88331 0.10493 0.0
S1216 S 1.00503 0.93478 0.22889 0.0
N1217 N 0.9653 0.90871 0.20684 0.0
N1218 N 0.04139 0.93797 0.20662 0.0
C1219 C 0.02175 0.91685 0.17978 0.0
C1220 C 0.98064 0.9009 0.17996 0.0
C1221 C 0.11244 0.14885 0.40898 0.0
C1222 C 0.08205 0.13714 0.38616 0.0
C1223 C 0.13626 0.1322 0.4086 0.0
C1224 C 0.13075 0.10384 0.3852 0.0
H1225 H 0.11565 0.16834 0.42895 0.0
H1226 H 0.15703 0.13924 0.42831 0.0
S1227 S 0.05986 0.06866 0.31673 0.0
N1228 N 0.05072 0.09916 0.33716 0.0
N1229 N 0.09601 0.0682 0.33641 0.0
C1230 C 0.1025 0.09415 0.36078 0.0
C1231 C 0.07807 0.11088 0.36122 0.0
C1232 C 0.87004 1.00369 0.38474 0.0
C1233 C 0.90858 0.02622 0.37353 0.0
C1234 C 0.85346 0.96353 0.3905 0.0
C1235 C 0.87486 0.94486 0.38427 0.0
H1236 H 0.85389 0.01778 0.39156 0.0
H1237 H 0.82532 0.94791 0.40232 0.0
S1238 S 0.97087 0.98851 0.34296 0.0
N1239 N 0.96371 0.02545 0.34916 0.0
N1240 N 0.93183 0.94988 0.3573 0.0
C1241 C 0.91067 0.96608 0.36774 0.0
C1242 C 0.92779 1.00686 0.36295 0.0
C1243 C 0.04154 0.95639 0.39263 0.0
C1244 C 0.06577 0.94062 0.38704 0.0
C1245 C 1.00118 0.93347 0.39139 0.0
C1246 C 0.98295 0.89391 0.38353 0.0
H1247 H 0.05378 0.98627 0.40044 0.0
H1248 H 0.98404 0.9463 0.39917 0.0
S1249 S 0.03288 0.83893 0.36351 0.0
N1250 N 0.06872 0.88339 0.37096 0.0
N1251 N 0.99217 0.84021 0.36773 0.0
C1252 C 1.00666 0.87822 0.37515 0.0
C1253 C 0.04827 0.90167 0.37695 0.0
C1254 C 0.94969 0.93706 0.87931 0.0
C1255 C 0.92576 0.89664 0.87957 0.0
C1256 C 0.93399 0.96157 0.87961 0.0
C1257 C 0.89361 0.94677 0.88069 0.0
H1258 H 0.98085 0.94991 0.88156 0.0
H1259 H 0.95379 0.99248 0.88182 0.0
S1260 S 0.81817 0.84292 0.87785 0.0
N1261 N 0.8596 0.8426 0.87746 0.0
N1262 N 0.82986 0.88901 0.87866 0.0
C1263 C 0.86917 0.90644 0.87809 0.0
C1264 C 0.88534 0.88126 0.87748 0.0
C1265 C 0.09653 0.01381 0.86453 0.0
C1266 C 0.13584 0.03298 0.87332 0.0
C1267 C 0.07311 0.97382 0.86844 0.0
C1268 C 0.08778 0.95124 0.88211 0.0
H1269 H 0.08308 0.0302 0.85685 0.0
H1270 H 0.04246 0.96095 0.86303 0.0
S1271 S 0.1911 0.98543 0.90067 0.0
N1272 N 0.19054 0.02501 0.88929 0.0
N1273 N 0.14574 0.94954 0.89813 0.0
C1274 C 0.12802 0.96898 0.88706 0.0
C1275 C 0.15227 0.01 0.88238 0.0
C1276 C 0.02061 0.15122 0.87991 0.0
C1277 C 0.99728 0.11304 0.86834 0.0
C1278 C 0.06111 0.1678 0.88242 0.0
C1279 C 0.07932 0.14716 0.87209 0.0
H1280 H 1.0073 0.16696 0.88983 0.0
H1281 H 0.07768 0.19532 0.89501 0.0
S1282 S 0.03217 0.05215 0.82949 0.0
N1283 N 0.99587 0.05901 0.83967 0.0
N1284 N 0.07208 0.09071 0.84286 0.0
C1285 C 0.0568 0.11152 0.856 0.0
C1286 C 0.01567 0.09434 0.8543 0.0
C1287 C 0.89394 0.84679 0.63209 0.0
C1288 C 0.92851 0.85973 0.64996 0.0
C1289 C 0.87238 0.86582 0.63461 0.0
C1290 C 0.8852 0.89907 0.65435 0.0
H1291 H 0.88497 0.82352 0.61432 0.0
H1292 H 0.84729 0.85642 0.61889 0.0
S1293 S 0.97187 0.94222 0.70843 0.0
N1294 N 0.97283 0.90557 0.69024 0.0
N1295 N 0.93281 0.94207 0.69424 0.0
C1296 C 0.91849 0.91094 0.67376 0.0
C1297 C 0.94001 0.89103 0.67175 0.0
C1298 C 0.11514 1.00412 0.6647 0.0
C1299 C 0.09303 0.97988 0.63851 0.0
C1300 C 0.13519 0.04482 0.66109 0.0
C1301 C 0.13452 0.0619 0.63088 0.0
H1302 H 0.1158 0.99164 0.68828 0.0
H1303 H 0.14977 0.06289 0.68226 0.0
S1304 S 0.08636 0.01092 0.55351 0.0
N1305 N 0.07486 0.97599 0.58072 0.0
N1306 N 0.11378 0.05167 0.57364 0.0
C1307 C 0.11469 0.03774 0.60411 0.0
C1308 C 0.0936 0.9969 0.60798 0.0
C1309 C 0.96785 0.11005 0.65316 0.0
C1310 C 0.95302 0.06982 0.65006 0.0
C1311 C 1.00838 0.13617 0.65385 0.0
C1312 C 0.03506 0.1227 0.65191 0.0
H1313 H 0.9483 0.12157 0.65224 0.0
H1314 H 0.01881 0.16703 0.65323 0.0
S1315 S 1.01101 0.0202 0.64746 0.0
N1316 N 0.96845 0.01801 0.64812 0.0
N1317 N 0.04366 0.06669 0.64988 0.0
C1318 C 0.02037 0.08256 0.65154 0.0
C1319 C 0.97959 0.05622 0.65054 0.0
C1320 C 0.75262 0.38252 0.48852 0.0
C1321 C 0.79201 0.39742 0.48038 0.0
C1322 C 0.73677 0.40663 0.49195 0.0
C1323 C 0.75955 0.44688 0.48771 0.0
H1324 H 0.73302 0.35156 0.49028 0.0
H1325 H 0.70586 0.39318 0.49598 0.0
S1326 S 0.86627 0.50158 0.47438 0.0
N1327 N 0.85498 0.45563 0.47404 0.0
N1328 N 0.82519 0.50141 0.48089 0.0
C1329 C 0.79995 0.46275 0.48349 0.0
C1330 C 0.81619 0.43791 0.47974 0.0
C1331 C 0.5952 0.33611 0.50011 0.0
C1332 C 0.55508 0.31581 0.49378 0.0
C1333 C 0.61663 0.37664 0.49828 0.0
C1334 C 0.59904 0.39847 0.48976 0.0
H1335 H 0.61061 0.32051 0.50446 0.0
H1336 H 0.64774 0.39091 0.50122 0.0
S1337 S 0.49435 0.36039 0.4753 0.0
N1338 N 0.49774 0.32142 0.48287 0.0
N1339 N 0.53892 0.39765 0.47822 0.0
C1340 C 0.55865 0.37911 0.48617 0.0
C1341 C 0.53645 0.33772 0.48855 0.0
C1342 C 0.66781 0.19631 0.47348 0.0
C1343 C 0.69289 0.23125 0.48975 0.0
C1344 C 0.62736 0.18029 0.47473 0.0
C1345 C 0.61063 0.19886 0.49207 0.0
H1346 H 0.67965 0.18285 0.45765 0.0
H1347 H 0.60932 0.15527 0.45951 0.0
S1348 S 0.66347 0.28924 0.54089 0.0
N1349 N 0.69808 0.28212 0.52592 0.0
N1350 N 0.62203 0.25256 0.52763 0.0
C1351 C 0.63525 0.23224 0.51037 0.0
C1352 C 0.67645 0.24833 0.50937 0.0
C1353 C 0.79376 0.45346 0.75424 0.0
C1354 C 0.79116 0.43392 0.72476 0.0
C1355 C 0.77671 0.47652 0.75738 0.0
C1356 C 0.75554 0.4804 0.73134 0.0
H1357 H 0.808 0.44984 0.77558 0.0
H1358 H 0.77817 0.48962 0.78119 0.0
S1359 S 0.74099 0.43582 0.64843 0.0
N1360 N 0.7676 0.42105 0.6683 0.0
N1361 N 0.73377 0.46351 0.67455 0.0
C1362 C 0.75382 0.46214 0.70114 0.0
C1363 C 0.77184 0.43885 0.69782 0.0
C1364 C 0.55446 0.30183 0.71048 0.0
C1365 C 0.55348 0.28321 0.74026 0.0
C1366 C 0.57428 0.34266 0.70847 0.0
C1367 C 0.5945 0.36558 0.73592 0.0
H1368 H 0.54128 0.28488 0.68846 0.0
H1369 H 0.57488 0.35631 0.68519 0.0
S1370 S 0.59618 0.33018 0.82033 0.0
N1371 N 0.57079 0.29046 0.79831 0.0
N1372 N 0.6088 0.36653 0.7944 0.0
C1373 C 0.59226 0.34701 0.766 0.0
C1374 C 0.57154 0.30595 0.76819 0.0
C1375 C 0.6753 0.20088 0.71596 0.0
C1376 C 0.6504 0.21647 0.71419 0.0
C1377 C 0.71601 0.22526 0.71753 0.0
C1378 C 0.73278 0.26585 0.7171 0.0
H1379 H 0.6632 0.16995 0.71905 0.0
H1380 H 0.73403 0.21243 0.72197 0.0
S1381 S 0.68024 0.32031 0.70659 0.0
N1382 N 0.64558 0.2744 0.70787 0.0
N1383 N 0.72145 0.31995 0.70976 0.0
C1384 C 0.70817 0.28128 0.71185 0.0
C1385 C 0.66709 0.25665 0.71061 0.0
C1386 C 0.54809 0.21457 0.24886 0.0
C1387 C 0.57111 0.21581 0.22204 0.0
C1388 C 0.52928 0.23615 0.24913 0.0
C1389 C 0.53376 0.26112 0.22299 0.0
H1390 H 0.54711 0.1992 0.27112 0.0
H1391 H 0.51422 0.23616 0.27145 0.0
S1392 S 0.58898 0.27373 0.14583 0.0
N1393 N 0.5949 0.24171 0.16729 0.0
N1394 N 0.56091 0.28436 0.16843 0.0
C1395 C 0.5546 0.26104 0.19493 0.0
C1396 C 0.57314 0.238 0.19433 0.0
C1397 C 0.80659 0.33994 0.22733 0.0
C1398 C 0.79261 0.36304 0.21329 0.0
C1399 C 0.78244 0.29959 0.23054 0.0
C1400 C 0.74371 0.28137 0.21973 0.0
H1401 H 0.83515 0.35343 0.23845 0.0
H1402 H 0.79307 0.28326 0.24399 0.0
S1403 S 0.69666 0.32763 0.17408 0.0
N1404 N 0.74039 0.36379 0.18304 0.0
N1405 N 0.69478 0.28828 0.18936 0.0
C1406 C 0.73098 0.30362 0.20247 0.0
C1407 C 0.75551 0.34444 0.19917 0.0
C1408 C 0.71191 0.42705 0.21513 0.0
C1409 C 0.73552 0.46762 0.21539 0.0
C1410 C 0.67152 0.40907 0.21368 0.0
C1411 C 0.65265 0.43093 0.21314 0.0
H1412 H 0.72462 0.4089 0.21889 0.0
H1413 H 0.65499 0.37775 0.21554 0.0
S1414 S 0.70156 0.53841 0.20734 0.0
N1415 N 0.7377 0.52932 0.21036 0.0
N1416 N 0.66122 0.49579 0.20765 0.0
C1417 C 0.67602 0.47165 0.20994 0.0
C1418 C 0.7176 0.48998 0.2112 0.0
C1419 C 0.5669 0.18512 0.97894 0.0
C1420 C 0.6064 0.20521 0.98754 0.0
C1421 C 0.5444 0.20336 0.98067 0.0
C1422 C 0.56105 0.24262 0.98985 0.0
H1423 H 0.55412 0.15627 0.96851 0.0
H1424 H 0.5147 0.18762 0.9722 0.0
S1425 S 0.66126 0.30515 0.02077 0.0
N1426 N 0.6595 0.26415 1.01057 0.0
N1427 N 0.61764 0.29861 1.01285 0.0
C1428 C 0.59948 0.26163 1.00138 0.0
C1429 C 0.62208 0.24288 1.00031 0.0
C1430 C 0.78633 0.3372 0.9486 0.0
C1431 C 0.77195 0.31953 0.97926 0.0
C1432 C 0.80769 0.37738 0.94545 0.0
C1433 C 0.81467 0.40191 0.9727 0.0
H1434 H 0.78005 0.31979 0.92653 0.0
H1435 H 0.8171 0.38938 0.92092 0.0
S1436 S 0.78334 0.3699 0.05882 0.0
N1437 N 0.76714 0.32901 0.03791 0.0
N1438 N 0.80597 0.40546 0.03179 0.0
C1439 C 0.80139 0.38471 1.0039 0.0
C1440 C 0.78008 0.34326 1.0072 0.0
C1441 C 0.6871 0.41311 0.98175 0.0
C1442 C 0.70496 0.45369 0.98385 0.0
C1443 C 0.64679 0.38987 0.98062 0.0
C1444 C 0.62232 0.40582 0.98245 0.0
H1445 H 0.70436 0.39919 0.97867 0.0
H1446 H 0.6347 0.35923 0.97595 0.0
S1447 S 0.65364 0.50967 0.99286 0.0
N1448 N 0.69466 0.50867 0.99116 0.0
N1449 N 0.61832 0.46414 0.9898 0.0
C1450 C 0.63932 0.44585 0.98764 0.0
C1451 C 0.6808 0.46997 0.98828 0.0
C1452 C 0.50477 0.78865 0.81737 0.0
C1453 C 0.47999 0.74957 0.82568 0.0
C1454 C 0.49128 0.81525 0.81815 0.0
C1455 C 0.45269 0.80338 0.82695 0.0
H1456 H 0.53332 0.79785 0.80728 0.0
H1457 H 0.51008 0.84439 0.80921 0.0
S1458 S 0.37953 0.70639 0.85761 0.0
N1459 N 0.41754 0.70193 0.84822 0.0
N1460 N 0.39228 0.75187 0.84937 0.0
C1461 C 0.42935 0.76562 0.8389 0.0
C1462 C 0.44298 0.73863 0.83822 0.0
C1463 C 0.28176 0.66142 0.8023 0.0
C1464 C 0.24133 0.64432 0.80529 0.0
C1465 C 0.30577 0.70159 0.80118 0.0
C1466 C 0.2908 0.72709 0.80295 0.0
H1467 H 0.29516 0.6437 0.79951 0.0
H1468 H 0.33649 0.71252 0.79751 0.0
S1469 S 0.18702 0.69751 0.8137 0.0
N1470 N 0.18722 0.65617 0.81219 0.0
N1471 N 0.23281 0.7321 0.81009 0.0
C1472 C 0.25056 0.71062 0.80756 0.0
C1473 C 0.2258 0.66926 0.80878 0.0
C1474 C 0.34001 0.5916 0.83009 0.0
C1475 C 0.36279 0.57402 0.82563 0.0
C1476 C 0.29948 0.57029 0.82684 0.0
C1477 C 0.28008 0.53072 0.81848 0.0
H1478 H 0.35372 0.62252 0.83426 0.0
H1479 H 0.28343 0.58552 0.82875 0.0
S1480 S 0.32485 0.46932 0.80849 0.0
N1481 N 0.36177 0.51289 0.81664 0.0
N1482 N 0.28574 0.47377 0.80901 0.0
C1483 C 0.30183 0.51198 0.81651 0.0
C1484 C 0.34316 0.53341 0.82051 0.0
C1485 C 0.39546 0.75695 0.05068 0.0
C1486 C 0.41154 0.79747 0.05291 0.0
C1487 C 0.41875 0.74024 0.04773 0.0
C1488 C 0.45931 0.76303 0.04582 0.0
H1489 H 0.36451 0.73744 0.05342 0.0
H1490 H 0.40473 0.709 0.04937 0.0
S1491 S 0.5151 0.87052 0.03942 0.0
N1492 N 0.46988 0.8602 0.04587 0.0
N1493 N 0.51405 0.8285 0.03865 0.0
C1494 C 0.47557 0.80363 0.04333 0.0
C1495 C 0.4516 0.82091 0.04718 0.0
C1496 C 0.21948 0.67615 0.07699 0.0
C1497 C 0.24577 0.70063 0.05284 0.0
C1498 C 0.20326 0.63583 0.07571 0.0
C1499 C 0.21304 0.61812 0.05044 0.0
H1500 H 0.21351 0.68848 0.09844 0.0
H1501 H 0.18553 0.61867 0.09627 0.0
S1502 S 0.27948 0.66862 0.98047 0.0
N1503 N 0.27934 0.70394 1.00181 0.0
N1504 N 0.2496 0.62787 0.99988 0.0
C1505 C 0.23759 0.64186 0.02503 0.0
C1506 C 0.25379 0.68319 0.02611 0.0
C1507 C 0.35217 0.54308 0.0572 0.0
C1508 C 0.33164 0.55887 0.0414 0.0
C1509 C 0.39265 0.56462 0.06062 0.0
C1510 C 0.41392 0.60198 0.04722 0.0
H1511 H 0.33663 0.51522 0.06936 0.0
H1512 H 0.40698 0.55319 0.0759 0.0
S1513 S 0.37486 0.65218 0.99645 0.0
N1514 N 0.33601 0.61141 1.00792 0.0
N1515 N 0.41248 0.65119 1.01276 0.0
C1516 C 0.39421 0.61621 0.02816 0.0
C1517 C 0.3529 0.59479 0.02557 0.0
C1518 C 0.25267 0.57386 0.52789 0.0
C1519 C 0.24235 0.54562 0.5526 0.0
C1520 C 0.23749 0.59906 0.52797 0.0
C1521 C 0.21115 0.59633 0.55251 0.0
H1522 H 0.27445 0.57812 0.50972 0.0
H1523 H 0.24821 0.62231 0.51 0.0
S1524 S 0.17622 0.52835 0.6231 0.0
N1525 N 0.20504 0.51714 0.6024 0.0
N1526 N 0.17552 0.56334 0.60188 0.0
C1527 C 0.19917 0.56696 0.57624 0.0
C1528 C 0.21508 0.54187 0.57647 0.0
C1529 C 0.47059 0.67185 0.54933 0.0
C1530 C 0.45273 0.69472 0.54598 0.0
C1531 C 0.44834 0.63124 0.55272 0.0
C1532 C 0.40762 0.61229 0.55268 0.0
H1533 H 0.50182 0.68551 0.55178 0.0
H1534 H 0.46299 0.61503 0.55773 0.0
S1535 S 0.34694 0.65767 0.53907 0.0
N1536 N 0.39192 0.69433 0.53863 0.0
N1537 N 0.35054 0.61857 0.54485 0.0
C1538 C 0.38967 0.63439 0.54656 0.0
C1539 C 0.41211 0.67546 0.54314 0.0
C1540 C 0.38671 0.82644 0.56277 0.0
C1541 C 0.40821 0.8151 0.54289 0.0
C1542 C 0.34609 0.80699 0.5612 0.0
C1543 C 0.32525 0.77518 0.54008 0.0
H1544 H 0.40114 0.8481 0.58182 0.0
H1545 H 0.33069 0.81471 0.57873 0.0
S1546 S 0.36813 0.73816 0.47903 0.0
N1547 N 0.40608 0.77341 0.49821 0.0
N1548 N 0.32933 0.73639 0.49576 0.0
C1549 C 0.34643 0.76587 0.51783 0.0
C1550 C 0.38806 0.78599 0.51916 0.0
C1551 C 0.28477 0.57848 0.33253 0.0
C1552 C 0.26821 0.53996 0.32151 0.0
C1553 C 0.26283 0.59712 0.33419 0.0
C1554 C 0.22349 0.57776 0.32532 0.0
H1555 H 0.31571 0.5954 0.3371 0.0
H1556 H 0.27753 0.62777 0.33969 0.0
S1557 S 0.16566 0.47571 0.29761 0.0
N1558 N 0.20964 0.48227 0.30367 0.0
N1559 N 0.168 0.51706 0.30766 0.0
C1560 C 0.20577 0.53826 0.31699 0.0
C1561 C 0.22827 0.51936 0.31489 0.0
C1562 C 0.42748 0.71209 0.31644 0.0
C1563 C 0.46813 0.73516 0.31759 0.0
C1564 C 0.40893 0.67181 0.31937 0.0
C1565 C 0.43025 0.65251 0.32285 0.0
H1566 H 0.40983 0.72508 0.31103 0.0
H1567 H 0.37769 0.65564 0.31638 0.0
S1568 S 0.53728 0.70043 0.33344 0.0
N1569 N 0.52905 0.73673 0.32731 0.0
N1570 N 0.49436 0.66047 0.33258 0.0
C1571 C 0.47082 0.67556 0.32742 0.0
C1572 C 0.48975 0.71703 0.32473 0.0
C1573 C 0.30447 0.78593 0.30453 0.0
C1574 C 0.28679 0.7485 0.31818 0.0
C1575 C 0.345 0.81016 0.30576 0.0
C1576 C 0.36884 0.79742 0.32027 0.0
H1577 H 0.28748 0.7952 0.2903 0.0
H1578 H 0.35793 0.83752 0.29285 0.0
S1579 S 0.33583 0.70635 0.36685 0.0
N1580 N 0.29547 0.70322 0.35247 0.0
N1581 N 0.37153 0.74851 0.3539 0.0
C1582 C 0.35114 0.76204 0.33716 0.0
C1583 C 0.31006 0.73766 0.33636 0.0
C1584 C 0.03788 0.1931 0.28876 0.0
C1585 C 1.0008 0.18495 0.29977 0.0
C1586 C 0.04856 0.19992 0.2554 0.0
C1587 C 0.02285 0.19929 0.23136 0.0
H1588 H 0.05908 0.19403 0.30607 0.0
H1589 H 0.07733 0.20582 0.24848 0.0
S1590 S 0.92172 0.178 0.2466 0.0
N1591 N 0.93796 0.17568 0.28355 0.0
N1592 N 0.95783 0.1886 0.22079 0.0
C1593 C 0.98548 0.19086 0.24186 0.0
C1594 C 0.97449 0.18359 0.27597 0.0
C1595 C 0.83642 0.80217 0.28191 0.0
C1596 C 0.82563 0.82106 0.30525 0.0
C1597 C 0.83349 0.80722 0.24803 0.0
C1598 C 0.81971 0.83143 0.23595 0.0
H1599 H 0.8476 0.78364 0.28977 0.0
H1600 H 0.84272 0.79228 0.23115 0.0
S1601 S 0.78743 0.88756 0.28662 0.0
N1602 N 0.8001 0.86498 0.31372 0.0
N1603 N 0.79481 0.87415 0.25007 0.0
C1604 C 0.80809 0.84993 0.25893 0.0
C1605 C 0.81107 0.84488 0.29351 0.0
C1606 C 0.1794 0.97945 0.29046 0.0
C1607 C 0.19732 0.0181 0.3018 0.0
C1608 C 0.17605 0.9706 0.25656 0.0
C1609 C 0.1914 1.00007 0.23254 0.0
H1610 H 0.16736 0.95569 0.30797 0.0
H1611 H 0.16177 0.94045 0.24915 0.0
S1612 S 0.24064 0.10597 0.24895 0.0
N1613 N 0.22983 0.08602 0.28601 0.0
N1614 N 0.22462 0.0696 0.22255 0.0
C1615 C 0.20945 0.03884 0.24352 0.0
C1616 C 0.21209 0.0478 0.27802 0.0
C1617 C 0.9903 0.79614 0.74834 0.0
C1618 C 0.01996 0.83128 0.73473 0.0
C1619 C 0.98138 0.79246 0.78227 0.0
C1620 C 1.002 0.82371 0.80391 0.0
H1621 H 0.974 0.77103 0.73273 0.0
H1622 H 0.95913 0.76472 0.79175 0.0
S1623 S 0.07917 0.92309 0.7809 0.0
N1624 N 0.06764 0.89878 0.74583 0.0
N1625 N 0.05112 0.89174 0.80918 0.0
C1626 C 0.0307 0.85929 0.79055 0.0
C1627 C 0.03964 0.86313 0.75614 0.0
C1628 C 0.19798 0.16497 0.74236 0.0
C1629 C 0.18982 0.19343 0.73032 0.0
C1630 C 0.20572 0.16281 0.77582 0.0
C1631 C 0.20598 0.18914 0.79907 0.0
H1632 H 0.19826 0.14378 0.72579 0.0
H1633 H 0.21145 0.14007 0.78347 0.0
S1634 S 0.18594 0.26909 0.7809 0.0
N1635 N 0.18217 0.24847 0.7447 0.0
N1636 N 0.1967 0.24457 0.80761 0.0
C1637 C 0.1978 0.21783 0.78751 0.0
C1638 C 0.18968 0.21988 0.75326 0.0
C1639 C 0.81998 0.98301 0.79251 0.0
C1640 C 0.84089 0.02282 0.80052 0.0
C1641 C 0.81422 0.97032 0.75957 0.0
C1642 C 0.8284 0.99705 0.73345 0.0
H1643 H 0.80829 0.96137 0.81189 0.0
H1644 H 0.7979 0.9395 0.75456 0.0
S1645 S 0.88599 0.10437 0.74104 0.0
N1646 N 0.87685 0.08869 0.77952 0.0
N1647 N 0.86523 0.06515 0.71775 0.0
C1648 C 0.84956 0.03691 0.74113 0.0
C1649 C 0.85605 0.04974 0.77461 0.0
C1650 C 0.63898 0.50131 0.61485 0.0
C1651 C 0.66861 0.51385 0.63858 0.0
C1652 C 0.64772 0.50709 0.58091 0.0
C1653 C 0.68635 0.52466 0.5694 0.0
H1654 H 0.60891 0.48776 0.62256 0.0
H1655 H 0.62396 0.49722 0.56352 0.0
S1656 S 0.7743 0.56067 0.62166 0.0
N1657 N 0.73802 0.54395 0.64827 0.0
N1658 N 0.75429 0.55338 0.58472 0.0
C1659 C 0.71612 0.53639 0.59294 0.0
C1660 C 0.70728 0.53139 0.62743 0.0
C1661 C 0.48887 0.18261 0.62752 0.0
C1662 C 0.49546 0.15296 0.63926 0.0
C1663 C 0.48231 0.18603 0.59393 0.0
C1664 C 0.48171 0.1598 0.57041 0.0
H1665 H 0.48901 0.20375 0.64439 0.0
H1666 H 0.47778 0.20959 0.5864 0.0
S1667 S 0.49761 0.07694 0.58792 0.0
N1668 N 0.50113 0.09694 0.62436 0.0
N1669 N 0.4888 0.10308 0.5614 0.0
C1670 C 0.48825 0.12992 0.58177 0.0
C1671 C 0.49516 0.12662 0.61604 0.0
C1672 C 0.8537 0.30425 0.58869 0.0
C1673 C 0.8452 0.32531 0.56567 0.0
C1674 C 0.85931 0.31472 0.62229 0.0
C1675 C 0.85633 0.3465 0.63431 0.0
H1676 H 0.85702 0.28014 0.5806 0.0
H1677 H 0.86626 0.29777 0.63893 0.0
S1678 S 0.83027 0.40838 0.5843 0.0
N1679 N 0.83122 0.37767 0.55751 0.0
N1680 N 0.84147 0.39708 0.62027 0.0
C1681 C 0.84656 0.36695 0.61155 0.0
C1682 C 0.84106 0.35642 0.57742 0.0
C1683 C 0.65889 0.13175 0.08052 0.0
C1684 C 0.68791 0.16795 0.06802 0.0
C1685 C 0.64641 0.12736 0.11352 0.0
C1686 C 0.66254 0.15901 0.1352 0.0
H1687 H 0.64611 0.10632 0.06486 0.0
H1688 H 0.62532 0.09879 0.12242 0.0
S1689 S 0.73548 0.26077 0.11439 0.0
N1690 N 0.72957 0.23665 0.07972 0.0
N1691 N 0.70641 0.22827 0.14155 0.0
C1692 C 0.69025 0.1956 0.12278 0.0
C1693 C 0.70289 0.20012 0.08929 0.0
C1694 C 0.88139 0.5041 0.11188 0.0
C1695 C 0.86552 0.51727 0.13628 0.0
C1696 C 0.87709 0.50928 0.078 0.0
C1697 C 0.8558 0.52683 0.06703 0.0
H1698 H 0.89778 0.49023 0.11901 0.0
H1699 H 0.89014 0.49892 0.0602 0.0
S1700 S 0.80656 0.56445 0.12088 0.0
N1701 N 0.82687 0.54795 0.1469 0.0
N1702 N 0.81781 0.55639 0.0836 0.0
C1703 C 0.83906 0.5393 0.09118 0.0
C1704 C 0.8442 0.53489 0.12562 0.0
C1705 C 0.47615 0.30222 0.09267 0.0
C1706 C 0.49441 0.33038 0.06791 0.0
C1707 C 0.47906 0.31285 0.12615 0.0
C1708 C 0.50108 0.35194 0.1362 0.0
H1709 H 0.45884 0.27188 0.08609 0.0
H1710 H 0.46434 0.29016 0.14435 0.0
S1711 S 0.55637 0.43649 0.08097 0.0
N1712 N 0.53614 0.39892 0.0558 0.0
N1713 N 0.54243 0.41863 0.11848 0.0
C1714 C 0.52021 0.3802 0.11168 0.0
C1715 C 0.51663 0.36949 0.07764 0.0
C1716 C 0.38476 0.87998 0.92081 0.0
C1717 C 0.35501 0.8616 0.89737 0.0
C1718 C 0.37661 0.87665 0.9548 0.0
C1719 C 0.33824 0.85494 0.96709 0.0
H1720 H 0.41477 0.89657 0.91293 0.0
H1721 H 0.40088 0.89109 0.9716 0.0
S1722 S 0.24929 0.80232 0.91618 0.0
N1723 N 0.28501 0.82168 0.88907 0.0
N1724 N 0.27011 0.81563 0.95273 0.0
C1725 C 0.30809 0.83709 0.94394 0.0
C1726 C 0.31634 0.84033 0.90926 0.0
C1727 C 0.18416 0.47119 0.93932 0.0
C1728 C 0.17705 0.49192 0.96366 0.0
C1729 C 0.17634 0.47403 0.90595 0.0
C1730 C 0.16212 0.49847 0.89563 0.0
H1731 H 0.1948 0.45188 0.94618 0.0
H1732 H 0.18176 0.45709 0.88803 0.0
S1733 S 0.1415 0.56106 0.94971 0.0
N1734 N 0.15625 0.5387 0.97521 0.0
N1735 N 0.14302 0.54509 0.91243 0.0
C1736 C 0.15619 0.52035 0.91965 0.0
C1737 C 0.16323 0.51674 0.95368 0.0
C1738 C 0.54902 0.71298 0.94491 0.0
C1739 C 0.53692 0.68498 0.97006 0.0
C1740 C 0.54283 0.70208 0.9115 0.0
C1741 C 0.52325 0.66277 0.90197 0.0
H1742 H 0.56375 0.74353 0.95105 0.0
H1743 H 0.55282 0.72469 0.89296 0.0
S1744 S 0.48441 0.57816 0.95831 0.0
N1745 N 0.5042 0.61612 0.9831 0.0
N1746 N 0.49129 0.59584 0.92046 0.0
C1747 C 0.51045 0.6345 0.92687 0.0
C1748 C 0.51766 0.64557 0.96084 0.0
C1749 C 0.31584 0.47534 0.4115 0.0
C1750 C 0.35469 0.49744 0.40074 0.0
C1751 C 0.30624 0.47064 0.44528 0.0
C1752 C 0.33521 0.48701 0.46964 0.0
H1753 H 0.29252 0.46203 0.39365 0.0
H1754 H 0.276 0.45354 0.45234 0.0
S1755 S 0.44123 0.5478 0.45472 0.0
N1756 N 0.42215 0.5365 0.41739 0.0
N1757 N 0.40435 0.52672 0.48064 0.0
C1758 C 0.37415 0.50905 0.45923 0.0
C1759 C 0.38382 0.51455 0.42488 0.0
C1760 C 0.54803 0.89149 0.4178 0.0
C1761 C 0.52012 0.86104 0.39846 0.0
C1762 C 0.55455 0.88536 0.45082 0.0
C1763 C 0.53434 0.84826 0.46541 0.0
H1764 H 0.56488 0.92027 0.40734 0.0
H1765 H 0.57583 0.90988 0.46499 0.0
S1766 S 0.45887 0.75869 0.42451 0.0
N1767 N 0.47229 0.79254 0.39584 0.0
N1768 N 0.4852 0.78061 0.45751 0.0
C1769 C 0.50676 0.81744 0.446 0.0
C1770 C 0.4995 0.82394 0.41263 0.0
C1771 C 0.17248 0.70343 0.41028 0.0
C1772 C 0.15255 0.66512 0.39784 0.0
C1773 C 0.17684 0.71113 0.44427 0.0
C1774 C 0.16145 0.68091 0.46746 0.0
H1775 H 0.18565 0.728 0.39364 0.0
H1776 H 0.19314 0.74103 0.45232 0.0
S1777 S 0.10467 0.57527 0.44804 0.0
N1778 N 0.11593 0.59669 0.41164 0.0
N1779 N 0.12359 0.61068 0.47537 0.0
C1780 C 0.14034 0.64236 0.45538 0.0
C1781 C 0.13602 0.63461 0.42071 0.0
C1782 C 0.13406 0.36004 0.08522 0.0
C1783 C 0.11612 0.38276 0.08255 0.0
C1784 C 0.1143 0.32224 0.09773 0.0
C1785 C 0.07522 0.30466 0.10757 0.0
H1786 H 0.16417 0.37181 0.07817 0.0
H1787 H 0.12996 0.30655 0.09962 0.0
S1788 S 0.014 0.35065 0.10511 0.0
N1789 N 0.05653 0.38463 0.09087 0.0
N1790 N 0.0188 0.31261 0.11343 0.0
C1791 C 0.05637 0.32648 0.10454 0.0
C1792 C 0.07697 0.36574 0.09241 0.0
C1793 C 0.69377 0.75137 0.13203 0.0
C1794 C 0.72396 0.78012 0.11287 0.0
C1795 C 0.6557 0.72993 0.11934 0.0
C1796 C 0.64683 0.7367 0.08716 0.0
H1797 H 0.69908 0.74702 0.15747 0.0
H1798 H 0.63274 0.70972 0.13547 0.0
S1799 S 0.71758 0.80426 0.02563 0.0
N1800 N 0.74365 0.81094 0.05924 0.0
N1801 N 0.67283 0.77076 0.03527 0.0
C1802 C 0.67763 0.76341 0.06718 0.0
C1803 C 0.716 0.78512 0.08009 0.0
C1804 C 0.26845 0.93714 0.13179 0.0
C1805 C 0.26057 0.96162 0.11222 0.0
C1806 C 0.28668 0.91773 0.11859 0.0
C1807 C 0.2978 0.92178 0.08519 0.0
H1808 H 0.25881 0.93148 0.15725 0.0
H1809 H 0.2901 0.89754 0.13423 0.0
S1810 S 0.28487 0.98297 0.02338 0.0
N1811 N 0.26678 0.98991 0.05776 0.0
N1812 N 0.30063 0.95285 0.03294 0.0
C1813 C 0.29183 0.94745 0.0656 0.0
C1814 C 0.27342 0.96758 0.07914 0.0
C1815 C 0.30819 0.06268 0.45544 0.0
C1816 C 0.30177 0.0552 0.42141 0.0
C1817 C 0.34606 0.08383 0.4683 0.0
C1818 C 0.37887 0.09725 0.44772 0.0
H1819 H 0.2838 0.05426 0.47195 0.0
H1820 H 0.3497 0.0906 0.4944 0.0
S1821 S 0.37751 0.08343 0.35711 0.0
N1822 N 0.33117 0.06211 0.36752 0.0
N1823 N 0.40223 0.10005 0.3918 0.0
C1824 C 0.37274 0.0882 0.4139 0.0
C1825 C 0.33422 0.0677 0.4007 0.0
C1826 C 0.91471 0.23859 0.40021 0.0
C1827 C 0.94827 0.24182 0.41464 0.0
C1828 C 0.89566 0.25661 0.41424 0.0
C1829 C 0.90904 0.27851 0.44347 0.0
H1830 H 0.90173 0.22006 0.37892 0.0
H1831 H 0.86873 0.2514 0.40313 0.0
S1832 S 0.99722 0.29814 0.4899 0.0
N1833 N 0.99574 0.27063 0.45873 0.0
N1834 N 0.95948 0.30455 0.48527 0.0
C1835 C 0.94401 0.28423 0.45707 0.0
C1836 C 0.96371 0.26582 0.4426 0.0
C1837 C 0.78423 0.69974 0.45178 0.0
C1838 C 0.77022 0.71017 0.42404 0.0
C1839 C 0.76459 0.66223 0.46487 0.0
C1840 C 0.72998 0.63288 0.45068 0.0
H1841 H 0.81146 0.72066 0.46306 0.0
H1842 H 0.77761 0.656 0.48575 0.0
S1843 S 0.67976 0.64565 0.37847 0.0
N1844 N 0.71853 0.6889 0.38364 0.0
N1845 N 0.68147 0.61768 0.40783 0.0
C1846 C 0.71456 0.64329 0.42366 0.0
C1847 C 0.73467 0.68204 0.41045 0.0
C1848 C 0.94076 0.64828 0.92097 0.0
C1849 C 0.92306 0.63946 0.95247 0.0
C1850 C 0.95864 0.68639 0.90806 0.0
C1851 C 0.95948 0.71687 0.92631 0.0
H1852 H 0.93867 0.62522 0.90538 0.0
H1853 H 0.96969 0.6915 0.88302 0.0
S1854 S 0.92281 0.71053 1.01159 0.0
N1855 N 0.91178 0.66572 1.00272 0.0
N1856 N 0.94493 0.73654 0.97856 0.0
C1857 C 0.9443 0.70885 0.95852 0.0
C1858 C 0.92624 0.67041 0.97159 0.0
C1859 C 0.38069 0.28083 0.91503 0.0
C1860 C 0.38704 0.28823 0.94905 0.0
C1861 C 0.34292 0.26154 0.90195 0.0
C1862 C 0.31017 0.24994 0.92227 0.0
H1863 H 0.40496 0.28806 0.89868 0.0
H1864 H 0.33926 0.25471 0.87585 0.0
S1865 S 0.31166 0.2654 1.01266 0.0
N1866 N 0.35788 0.28393 1.00263 0.0
N1867 N 0.28694 0.24933 0.9779 0.0
C1868 C 0.31636 0.25912 0.95607 0.0
C1869 C 0.35478 0.27776 0.96952 0.0
C1870 C 0.78336 0.12879 0.94485 0.0
C1871 C 0.74298 0.10788 0.95006 0.0
C1872 C 0.80314 0.11132 0.93126 0.0
C1873 C 0.78382 0.07174 0.92297 0.0
H1874 H 0.79999 0.15938 0.95071 0.0
H1875 H 0.83412 0.12917 0.92739 0.0
S1876 S 0.67829 1.00335 0.93227 0.0
N1877 N 0.68409 0.04513 0.94572 0.0
N1878 N 0.72189 0.0117 0.92136 0.0
C1879 C 0.74353 0.05001 0.92857 0.0
C1880 C 0.72297 0.06824 0.94168 0.0
C1881 C 0.71066 0.94118 0.58052 0.0
C1882 C 0.71695 0.94984 0.61444 0.0
C1883 C 0.67281 0.92051 0.56738 0.0
C1884 C 0.63986 0.9088 0.58748 0.0
H1885 H 0.73511 0.94863 0.56432 0.0
H1886 H 0.66928 0.91315 0.54139 0.0
S1887 S 0.64069 0.92541 0.67766 0.0
N1888 N 0.68708 0.9452 0.66776 0.0
N1889 N 0.61627 0.90831 0.64291 0.0
C1890 C 0.6459 0.91863 0.62119 0.0
C1891 C 0.68432 0.93857 0.63471 0.0
C1892 C 0.0564 0.74161 0.59303 0.0
C1893 C 0.07146 0.76821 0.61954 0.0
C1894 C 0.07729 0.7247 0.57947 0.0
C1895 C 0.11414 0.73426 0.59172 0.0
H1896 H 0.02908 0.73503 0.58178 0.0
H1897 H 0.06545 0.70565 0.55835 0.0
S1898 S 0.16449 0.79828 0.66316 0.0
N1899 N 0.12396 0.79966 0.65944 0.0
N1900 N 0.163 0.76909 0.63363 0.0
C1901 C 0.12839 0.7591 0.61919 0.0
C1902 C 0.10716 0.77574 0.63318 0.0
C1903 C 0.29902 0.36978 0.62008 0.0
C1904 C 0.29571 0.37691 0.58643 0.0
C1905 C 0.27801 0.33197 0.63338 0.0
C1906 C 0.25357 0.30019 0.6133 0.0
H1907 H 0.31555 0.39384 0.63668 0.0
H1908 H 0.27898 0.32799 0.65974 0.0
S1909 S 0.23862 0.30261 0.52324 0.0
N1910 N 0.26886 0.34826 0.53306 0.0
N1911 N 0.22987 0.27778 0.55792 0.0
C1912 C 0.25224 0.30667 0.57938 0.0
C1913 C 0.27324 0.34485 0.56596 0.0
C1914 C 0.02569 0.39476 0.77366 0.0
C1915 C 0.04702 0.43535 0.77811 0.0
C1916 C 0.98697 0.37601 0.7617 0.0
C1917 C 0.96892 0.3974 0.7524 0.0
H1918 H 0.03869 0.37736 0.78005 0.0
H1919 H 0.97137 0.34475 0.75922 0.0
S1920 S 0.01278 0.50448 0.75817 0.0
N1921 N 0.04637 0.4958 0.77265 0.0
N1922 N 0.97636 0.46169 0.74784 0.0
C1923 C 0.99053 0.438 0.75606 0.0
C1924 C 0.02878 0.45664 0.76947 0.0
C1925 C 0.55684 0.5763 0.76871 0.0
C1926 C 0.57718 0.61567 0.77759 0.0
C1927 C 0.57591 0.55787 0.75561 0.0
C1928 C 0.61648 0.57763 0.7515 0.0
H1929 H 0.52569 0.5593 0.77202 0.0
H1930 H 0.5586 0.52734 0.74969 0.0
S1931 S 0.68342 0.68148 0.7704 0.0
N1932 N 0.64006 0.67449 0.78037 0.0
N1933 N 0.6765 0.63933 0.75687 0.0
C1934 C 0.63737 0.61723 0.76001 0.0
C1935 C 0.61759 0.6364 0.77267 0.0
C1936 C 0.42199 0.03585 0.78659 0.0
C1937 C 0.43056 0.04293 0.75266 0.0
C1938 C 0.40425 0.99793 0.79959 0.0
C1939 C 0.39435 0.96588 0.77902 0.0
H1940 H 0.4321 0.06001 0.80357 0.0
H1941 H 0.40122 0.99403 0.82611 0.0
S1942 S 0.40816 0.96864 0.68835 0.0
N1943 N 0.42578 0.01455 0.69873 0.0
N1944 N 0.39216 0.94351 0.72293 0.0
C1945 C 0.40039 0.97244 0.74485 0.0
C1946 C 0.41858 0.01091 0.73171 0.0
C1947 C 0.60815 0.03885 0.28482 0.0
C1948 C 0.62062 0.04612 0.25179 0.0
C1949 C 0.59192 1.00164 0.29843 0.0
C1950 C 0.58727 0.96993 0.27957 0.0
H1951 H 0.60925 0.06188 0.29987 0.0
H1952 H 0.58119 0.99739 0.32356 0.0
S1953 S 0.61709 0.974 0.19213 0.0
N1954 N 0.62914 0.01921 0.20085 0.0
N1955 N 0.59839 0.94882 0.22634 0.0
C1956 C 0.60169 0.9772 0.24696 0.0
C1957 C 0.61837 0.01541 0.23306 0.0
C1958 C 0.03689 0.63243 0.25753 0.0
C1959 C 0.04796 0.61691 0.28389 0.0
C1960 C 0.99811 0.61349 0.24589 0.0
C1961 C 0.96934 0.57872 0.26048 0.0
H1962 H 0.0587 0.65782 0.24453 0.0
H1963 H 0.99104 0.62502 0.22447 0.0
S1964 S 0.9837 0.52812 0.33121 0.0
N1965 N 0.02688 0.56626 0.32501 0.0
N1966 N 0.95481 0.53116 0.30357 0.0
C1967 C 0.98002 0.56438 0.28775 0.0
C1968 C 0.01907 0.58335 0.2994 0.0
C1969 C 0.41189 0.4187 0.30078 0.0
C1970 C 0.39794 0.43694 0.27952 0.0
C1971 C 0.43007 0.39875 0.28828 0.0
C1972 C 0.43616 0.39756 0.25415 0.0
H1973 H 0.40941 0.42053 0.32727 0.0
H1974 H 0.44134 0.38601 0.30554 0.0
S1975 S 0.4051 0.44085 0.18823 0.0
N1976 N 0.39042 0.45159 0.22276 0.0
N1977 N 0.42624 0.41592 0.19938 0.0
C1978 C 0.42189 0.4153 0.23268 0.0
C1979 C 0.40234 0.4345 0.24534 0.0
loop_
_geom_bond_atom_site_label_1
_geom_bond_atom_site_label_2
_geom_bond_distance
_geom_bond_site_symmetry_2
_ccdc_geom_bond_type
Fe0 O2 1.918 . S
Fe0 O5 1.997 . S
Fe0 O6 2.002 1_455 S
Fe0 O11 1.976 1_455 S
Fe0 O14 1.996 . S
Fe1 O2 1.918 1_655 S
Fe1 O9 1.997 . S
Fe1 O12 1.996 . S
Fe1 O16 1.976 . S
Fe1 O19 2.002 . S
O2 Fe0 1.918 . S
O2 Fe1 1.918 1_455 S
O2 Fe3 1.918 . S
Fe3 O2 1.918 . S
Fe3 O4 2.002 . S
Fe3 O13 1.976 . S
Fe3 O17 1.996 . S
Fe3 O20 1.997 . S
O4 Fe3 2.002 . S
O4 C21 1.295 . S
O5 Fe0 1.997 . S
O5 C21 1.235 . S
O6 Fe0 2.002 1_655 S
O6 C7 1.295 . S
C7 O6 1.295 . S
C7 O9 1.235 . S
C8 O13 1.287 . S
C8 O14 1.255 . S
O9 Fe1 1.997 . S
O9 C7 1.235 . S
C10 O16 1.287 1_455 S
C10 O17 1.255 . S
O11 Fe0 1.976 1_655 S
O11 C18 1.287 . S
O12 Fe1 1.996 . S
O12 C18 1.255 . S
O13 Fe3 1.976 . S
O13 C8 1.287 . S
O14 Fe0 1.996 . S
O14 C8 1.255 . S
C15 O19 1.295 1_455 S
C15 O20 1.235 . S
O16 Fe1 1.976 . S
O16 C10 1.287 1_655 S
O17 Fe3 1.996 . S
O17 C10 1.255 . S
C18 O11 1.287 . S
C18 O12 1.255 . S
O19 Fe1 2.002 . S
O19 C15 1.295 1_655 S
O20 Fe3 1.997 . S
O20 C15 1.235 . S
C21 O4 1.295 . S
C21 O5 1.235 . S
Fe22 O24 1.918 . S
Fe22 O27 1.997 . S
Fe22 O28 2.002 . S
Fe22 O33 1.976 . S
Fe22 O36 1.996 . S
Fe23 O24 1.918 . S
Fe23 O31 1.997 . S
Fe23 O34 1.996 . S
Fe23 O38 1.976 . S
Fe23 O41 2.002 . S
O24 Fe22 1.918 . S
O24 Fe23 1.918 . S
O24 Fe25 1.918 . S
Fe25 O24 1.918 . S
Fe25 O26 2.002 . S
Fe25 O35 1.976 . S
Fe25 O39 1.996 . S
Fe25 O42 1.997 . S
O26 Fe25 2.002 . S
O26 C43 1.295 . S
O27 Fe22 1.997 . S
O27 C43 1.235 . S
O28 Fe22 2.002 . S
O28 C29 1.295 . S
C29 O28 1.295 . S
C29 O31 1.235 . S
C30 O35 1.287 . S
C30 O36 1.255 . S
O31 Fe23 1.997 . S
O31 C29 1.235 . S
C32 O38 1.287 . S
C32 O39 1.255 . S
O33 Fe22 1.976 . S
O33 C40 1.287 . S
O34 Fe23 1.996 . S
O34 C40 1.255 . S
O35 Fe25 1.976 . S
O35 C30 1.287 . S
O36 Fe22 1.996 . S
O36 C30 1.255 . S
C37 O41 1.295 . S
C37 O42 1.235 . S
O38 Fe23 1.976 . S
O38 C32 1.287 . S
O39 Fe25 1.996 . S
O39 C32 1.255 . S
C40 O33 1.287 . S
C40 O34 1.255 . S
O41 Fe23 2.002 . S
O41 C37 1.295 . S
O42 Fe25 1.997 . S
O42 C37 1.235 . S
C43 O26 1.295 . S
C43 O27 1.235 . S
Fe44 O46 1.918 . S
Fe44 O49 1.997 . S
Fe44 O50 2.002 . S
Fe44 O55 1.976 . S
Fe44 O58 1.996 . S
Fe45 O46 1.918 . S
Fe45 O53 1.997 . S
Fe45 O56 1.996 . S
Fe45 O60 1.976 1_565 S
Fe45 O63 2.002 1_565 S
O46 Fe44 1.918 . S
O46 Fe45 1.918 . S
O46 Fe47 1.918 1_565 S
Fe47 O46 1.918 1_545 S
Fe47 O48 2.002 . S
Fe47 O57 1.976 . S
Fe47 O61 1.996 . S
Fe47 O64 1.997 . S
O48 Fe47 2.002 . S
O48 C65 1.295 1_545 S
O49 Fe44 1.997 . S
O49 C65 1.235 . S
O50 Fe44 2.002 . S
O50 C51 1.295 . S
C51 O50 1.295 . S
C51 O53 1.235 . S
C52 O57 1.287 1_565 S
C52 O58 1.255 . S
O53 Fe45 1.997 . S
O53 C51 1.235 . S
C54 O60 1.287 . S
C54 O61 1.255 . S
O55 Fe44 1.976 . S
O55 C62 1.287 . S
O56 Fe45 1.996 . S
O56 C62 1.255 . S
O57 Fe47 1.976 . S
O57 C52 1.287 1_545 S
O58 Fe44 1.996 . S
O58 C52 1.255 . S
C59 O63 1.295 . S
C59 O64 1.235 . S
O60 Fe45 1.976 1_545 S
O60 C54 1.287 . S
O61 Fe47 1.996 . S
O61 C54 1.255 . S
C62 O55 1.287 . S
C62 O56 1.255 . S
O63 Fe45 2.002 1_545 S
O63 C59 1.295 . S
O64 Fe47 1.997 . S
O64 C59 1.235 . S
C65 O48 1.295 1_565 S
C65 O49 1.235 . S
Fe66 O68 1.918 . S
Fe66 O71 1.997 . S
Fe66 O72 2.002 1_545 S
Fe66 O77 1.976 1_545 S
Fe66 O80 1.996 . S
Fe67 O68 1.918 1_565 S
Fe67 O75 1.997 . S
Fe67 O78 1.996 . S
Fe67 O82 1.976 . S
Fe67 O85 2.002 . S
O68 Fe66 1.918 . S
O68 Fe67 1.918 1_545 S
O68 Fe69 1.918 . S
Fe69 O68 1.918 . S
Fe69 O70 2.002 . S
Fe69 O79 1.976 . S
Fe69 O83 1.996 . S
Fe69 O86 1.997 . S
O70 Fe69 2.002 . S
O70 C87 1.295 . S
O71 Fe66 1.997 . S
O71 C87 1.235 . S
O72 Fe66 2.002 1_565 S
O72 C73 1.295 . S
C73 O72 1.295 . S
C73 O75 1.235 . S
C74 O79 1.287 . S
C74 O80 1.255 . S
O75 Fe67 1.997 . S
O75 C73 1.235 . S
C76 O82 1.287 1_545 S
C76 O83 1.255 . S
O77 Fe66 1.976 1_565 S
O77 C84 1.287 . S
O78 Fe67 1.996 . S
O78 C84 1.255 . S
O79 Fe69 1.976 . S
O79 C74 1.287 . S
O80 Fe66 1.996 . S
O80 C74 1.255 . S
C81 O85 1.295 1_545 S
C81 O86 1.235 . S
O82 Fe67 1.976 . S
O82 C76 1.287 1_565 S
O83 Fe69 1.996 . S
O83 C76 1.255 . S
C84 O77 1.287 . S
C84 O78 1.255 . S
O85 Fe67 2.002 . S
O85 C81 1.295 1_565 S
O86 Fe69 1.997 . S
O86 C81 1.235 . S
C87 O70 1.295 . S
C87 O71 1.235 . S
Fe88 O90 1.918 . S
Fe88 O93 1.997 . S
Fe88 O94 2.002 1_655 S
Fe88 O99 1.976 1_655 S
Fe88 O102 1.996 . S
Fe89 O90 1.918 1_455 S
Fe89 O97 1.997 . S
Fe89 O100 1.996 . S
Fe89 O104 1.976 . S
Fe89 O107 2.002 . S
O90 Fe88 1.918 . S
O90 Fe89 1.918 1_655 S
O90 Fe91 1.918 . S
Fe91 O90 1.918 . S
Fe91 O92 2.002 . S
Fe91 O101 1.976 . S
Fe91 O105 1.996 . S
Fe91 O108 1.997 . S
O92 Fe91 2.002 . S
O92 C109 1.295 . S
O93 Fe88 1.997 . S
O93 C109 1.235 . S
O94 Fe88 2.002 1_455 S
O94 C95 1.295 . S
C95 O94 1.295 . S
C95 O97 1.235 . S
C96 O101 1.287 . S
C96 O102 1.255 . S
O97 Fe89 1.997 . S
O97 C95 1.235 . S
C98 O104 1.287 1_655 S
C98 O105 1.255 . S
O99 Fe88 1.976 1_455 S
O99 C106 1.287 . S
O100 Fe89 1.996 . S
O100 C106 1.255 . S
O101 Fe91 1.976 . S
O101 C96 1.287 . S
O102 Fe88 1.996 . S
O102 C96 1.255 . S
C103 O107 1.295 1_655 S
C103 O108 1.235 . S
O104 Fe89 1.976 . S
O104 C98 1.287 1_455 S
O105 Fe91 1.996 . S
O105 C98 1.255 . S
C106 O99 1.287 . S
C106 O100 1.255 . S
O107 Fe89 2.002 . S
O107 C103 1.295 1_455 S
O108 Fe91 1.997 . S
O108 C103 1.235 . S
C109 O92 1.295 . S
C109 O93 1.235 . S
Fe110 O112 1.918 . S
Fe110 O115 1.997 . S
Fe110 O116 2.002 . S
Fe110 O121 1.976 . S
Fe110 O124 1.996 . S
Fe111 O112 1.918 . S
Fe111 O119 1.997 . S
Fe111 O122 1.996 . S
Fe111 O126 1.976 . S
Fe111 O129 2.002 . S
O112 Fe110 1.918 . S
O112 Fe111 1.918 . S
O112 Fe113 1.918 . S
Fe113 O112 1.918 . S
Fe113 O114 2.002 . S
Fe113 O123 1.976 . S
Fe113 O127 1.996 . S
Fe113 O130 1.997 . S
O114 Fe113 2.002 . S
O114 C131 1.295 . S
O115 Fe110 1.997 . S
O115 C131 1.235 . S
O116 Fe110 2.002 . S
O116 C117 1.295 . S
C117 O116 1.295 . S
C117 O119 1.235 . S
C118 O123 1.287 . S
C118 O124 1.255 . S
O119 Fe111 1.997 . S
O119 C117 1.235 . S
C120 O126 1.287 . S
C120 O127 1.255 . S
O121 Fe110 1.976 . S
O121 C128 1.287 . S
O122 Fe111 1.996 . S
O122 C128 1.255 . S
O123 Fe113 1.976 . S
O123 C118 1.287 . S
O124 Fe110 1.996 . S
O124 C118 1.255 . S
C125 O129 1.295 . S
C125 O130 1.235 . S
O126 Fe111 1.976 . S
O126 C120 1.287 . S
O127 Fe113 1.996 . S
O127 C120 1.255 . S
C128 O121 1.287 . S
C128 O122 1.255 . S
O129 Fe111 2.002 . S
O129 C125 1.295 . S
O130 Fe113 1.997 . S
O130 C125 1.235 . S
C131 O114 1.295 . S
C131 O115 1.235 . S
Fe132 O134 1.918 . S
Fe132 O137 1.997 . S
Fe132 O138 2.002 1_655 S
Fe132 O143 1.976 1_655 S
Fe132 O146 1.996 . S
Fe133 O134 1.918 1_455 S
Fe133 O141 1.997 . S
Fe133 O144 1.996 . S
Fe133 O148 1.976 . S
Fe133 O151 2.002 . S
O134 Fe132 1.918 . S
O134 Fe133 1.918 1_655 S
O134 Fe135 1.918 . S
Fe135 O134 1.918 . S
Fe135 O136 2.002 . S
Fe135 O145 1.976 . S
Fe135 O149 1.996 . S
Fe135 O152 1.997 . S
O136 Fe135 2.002 . S
O136 C153 1.295 . S
O137 Fe132 1.997 . S
O137 C153 1.235 . S
O138 Fe132 2.002 1_455 S
O138 C139 1.295 . S
C139 O138 1.295 . S
C139 O141 1.235 . S
C140 O145 1.287 . S
C140 O146 1.255 . S
O141 Fe133 1.997 . S
O141 C139 1.235 . S
C142 O148 1.287 1_655 S
C142 O149 1.255 . S
O143 Fe132 1.976 1_455 S
O143 C150 1.287 . S
O144 Fe133 1.996 . S
O144 C150 1.255 . S
O145 Fe135 1.976 . S
O145 C140 1.287 . S
O146 Fe132 1.996 . S
O146 C140 1.255 . S
C147 O151 1.295 1_655 S
C147 O152 1.235 . S
O148 Fe133 1.976 . S
O148 C142 1.287 1_455 S
O149 Fe135 1.996 . S
O149 C142 1.255 . S
C150 O143 1.287 . S
C150 O144 1.255 . S
O151 Fe133 2.002 . S
O151 C147 1.295 1_455 S
O152 Fe135 1.997 . S
O152 C147 1.235 . S
C153 O136 1.295 . S
C153 O137 1.235 . S
Fe154 O156 1.918 . S
Fe154 O159 1.997 . S
Fe154 O160 2.002 . S
Fe154 O165 1.976 . S
Fe154 O168 1.996 . S
Fe155 O156 1.918 . S
Fe155 O163 1.997 . S
Fe155 O166 1.996 . S
Fe155 O170 1.976 . S
Fe155 O173 2.002 . S
O156 Fe154 1.918 . S
O156 Fe155 1.918 . S
O156 Fe157 1.918 . S
Fe157 O156 1.918 . S
Fe157 O158 2.002 . S
Fe157 O167 1.976 . S
Fe157 O171 1.996 . S
Fe157 O174 1.997 . S
O158 Fe157 2.002 . S
O158 C175 1.295 . S
O159 Fe154 1.997 . S
O159 C175 1.235 . S
O160 Fe154 2.002 . S
O160 C161 1.295 . S
C161 O160 1.295 . S
C161 O163 1.235 . S
C162 O167 1.287 . S
C162 O168 1.255 . S
O163 Fe155 1.997 . S
O163 C161 1.235 . S
C164 O170 1.287 . S
C164 O171 1.255 . S
O165 Fe154 1.976 . S
O165 C172 1.287 . S
O166 Fe155 1.996 . S
O166 C172 1.255 . S
O167 Fe157 1.976 . S
O167 C162 1.287 . S
O168 Fe154 1.996 . S
O168 C162 1.255 . S
C169 O173 1.295 . S
C169 O174 1.235 . S
O170 Fe155 1.976 . S
O170 C164 1.287 . S
O171 Fe157 1.996 . S
O171 C164 1.255 . S
C172 O165 1.287 . S
C172 O166 1.255 . S
O173 Fe155 2.002 . S
O173 C169 1.295 . S
O174 Fe157 1.997 . S
O174 C169 1.235 . S
C175 O158 1.295 . S
C175 O159 1.235 . S
Fe176 O178 1.918 1_565 S
Fe176 O181 1.997 . S
Fe176 O182 2.002 . S
Fe176 O187 1.976 . S
Fe176 O190 1.996 . S
Fe177 O178 1.918 . S
Fe177 O185 1.997 . S
Fe177 O188 1.996 . S
Fe177 O192 1.976 . S
Fe177 O195 2.002 . S
O178 Fe176 1.918 1_545 S
O178 Fe177 1.918 . S
O178 Fe179 1.918 . S
Fe179 O178 1.918 . S
Fe179 O180 2.002 1_545 S
Fe179 O189 1.976 1_545 S
Fe179 O193 1.996 . S
Fe179 O196 1.997 . S
O180 Fe179 2.002 1_565 S
O180 C197 1.295 . S
O181 Fe176 1.997 . S
O181 C197 1.235 . S
O182 Fe176 2.002 . S
O182 C183 1.295 1_565 S
C183 O182 1.295 1_545 S
C183 O185 1.235 . S
C184 O189 1.287 . S
C184 O190 1.255 . S
O185 Fe177 1.997 . S
O185 C183 1.235 . S
C186 O192 1.287 . S
C186 O193 1.255 . S
O187 Fe176 1.976 . S
O187 C194 1.287 1_565 S
O188 Fe177 1.996 . S
O188 C194 1.255 . S
O189 Fe179 1.976 1_565 S
O189 C184 1.287 . S
O190 Fe176 1.996 . S
O190 C184 1.255 . S
C191 O195 1.295 . S
C191 O196 1.235 . S
O192 Fe177 1.976 . S
O192 C186 1.287 . S
O193 Fe179 1.996 . S
O193 C186 1.255 . S
C194 O187 1.287 1_545 S
C194 O188 1.255 . S
O195 Fe177 2.002 . S
O195 C191 1.295 . S
O196 Fe179 1.997 . S
O196 C191 1.235 . S
C197 O180 1.295 . S
C197 O181 1.235 . S
Fe198 O200 1.918 . S
Fe198 O203 1.997 . S
Fe198 O204 2.002 . S
Fe198 O209 1.976 . S
Fe198 O212 1.996 . S
Fe199 O200 1.918 . S
Fe199 O207 1.997 . S
Fe199 O210 1.996 . S
Fe199 O214 1.976 1_565 S
Fe199 O217 2.002 1_565 S
O200 Fe198 1.918 . S
O200 Fe199 1.918 . S
O200 Fe201 1.918 1_565 S
Fe201 O200 1.918 1_545 S
Fe201 O202 2.002 . S
Fe201 O211 1.976 . S
Fe201 O215 1.996 . S
Fe201 O218 1.997 . S
O202 Fe201 2.002 . S
O202 C219 1.295 1_545 S
O203 Fe198 1.997 . S
O203 C219 1.235 . S
O204 Fe198 2.002 . S
O204 C205 1.295 . S
C205 O204 1.295 . S
C205 O207 1.235 . S
C206 O211 1.287 1_565 S
C206 O212 1.255 . S
O207 Fe199 1.997 . S
O207 C205 1.235 . S
C208 O214 1.287 . S
C208 O215 1.255 . S
O209 Fe198 1.976 . S
O209 C216 1.287 . S
O210 Fe199 1.996 . S
O210 C216 1.255 . S
O211 Fe201 1.976 . S
O211 C206 1.287 1_545 S
O212 Fe198 1.996 . S
O212 C206 1.255 . S
C213 O217 1.295 . S
C213 O218 1.235 . S
O214 Fe199 1.976 1_545 S
O214 C208 1.287 . S
O215 Fe201 1.996 . S
O215 C208 1.255 . S
C216 O209 1.287 . S
C216 O210 1.255 . S
O217 Fe199 2.002 1_545 S
O217 C213 1.295 . S
O218 Fe201 1.997 . S
O218 C213 1.235 . S
C219 O202 1.295 1_565 S
C219 O203 1.235 . S
Fe220 O222 1.918 . S
Fe220 O225 1.997 . S
Fe220 O226 2.002 . S
Fe220 O231 1.976 . S
Fe220 O234 1.996 . S
Fe221 O222 1.918 . S
Fe221 O229 1.997 . S
Fe221 O232 1.996 . S
Fe221 O236 1.976 1_455 S
Fe221 O239 2.002 1_455 S
O222 Fe220 1.918 . S
O222 Fe221 1.918 . S
O222 Fe223 1.918 1_455 S
Fe223 O222 1.918 1_655 S
Fe223 O224 2.002 . S
Fe223 O233 1.976 . S
Fe223 O237 1.996 . S
Fe223 O240 1.997 . S
O224 Fe223 2.002 . S
O224 C241 1.295 1_655 S
O225 Fe220 1.997 . S
O225 C241 1.235 . S
O226 Fe220 2.002 . S
O226 C227 1.295 . S
C227 O226 1.295 . S
C227 O229 1.235 . S
C228 O233 1.287 1_455 S
C228 O234 1.255 . S
O229 Fe221 1.997 . S
O229 C227 1.235 . S
C230 O236 1.287 . S
C230 O237 1.255 . S
O231 Fe220 1.976 . S
O231 C238 1.287 . S
O232 Fe221 1.996 . S
O232 C238 1.255 . S
O233 Fe223 1.976 . S
O233 C228 1.287 1_655 S
O234 Fe220 1.996 . S
O234 C228 1.255 . S
C235 O239 1.295 . S
C235 O240 1.235 . S
O236 Fe221 1.976 1_655 S
O236 C230 1.287 . S
O237 Fe223 1.996 . S
O237 C230 1.255 . S
C238 O231 1.287 . S
C238 O232 1.255 . S
O239 Fe221 2.002 1_655 S
O239 C235 1.295 . S
O240 Fe223 1.997 . S
O240 C235 1.235 . S
C241 O224 1.295 1_455 S
C241 O225 1.235 . S
Fe242 O244 1.918 . S
Fe242 O247 1.997 . S
Fe242 O248 2.002 . S
Fe242 O253 1.976 . S
Fe242 O256 1.996 . S
Fe243 O244 1.918 . S
Fe243 O251 1.997 . S
Fe243 O254 1.996 . S
Fe243 O258 1.976 . S
Fe243 O261 2.002 . S
O244 Fe242 1.918 . S
O244 Fe243 1.918 . S
O244 Fe245 1.918 . S
Fe245 O244 1.918 . S
Fe245 O246 2.002 . S
Fe245 O255 1.976 . S
Fe245 O259 1.996 . S
Fe245 O262 1.997 . S
O246 Fe245 2.002 . S
O246 C263 1.295 . S
O247 Fe242 1.997 . S
O247 C263 1.235 . S
O248 Fe242 2.002 . S
O248 C249 1.295 . S
C249 O248 1.295 . S
C249 O251 1.235 . S
C250 O255 1.287 . S
C250 O256 1.255 . S
O251 Fe243 1.997 . S
O251 C249 1.235 . S
C252 O258 1.287 . S
C252 O259 1.255 . S
O253 Fe242 1.976 . S
O253 C260 1.287 . S
O254 Fe243 1.996 . S
O254 C260 1.255 . S
O255 Fe245 1.976 . S
O255 C250 1.287 . S
O256 Fe242 1.996 . S
O256 C250 1.255 . S
C257 O261 1.295 . S
C257 O262 1.235 . S
O258 Fe243 1.976 . S
O258 C252 1.287 . S
O259 Fe245 1.996 . S
O259 C252 1.255 . S
C260 O253 1.287 . S
C260 O254 1.255 . S
O261 Fe243 2.002 . S
O261 C257 1.295 . S
O262 Fe245 1.997 . S
O262 C257 1.235 . S
C263 O246 1.295 . S
C263 O247 1.235 . S
Fe264 O266 1.918 . S
Fe264 O269 1.997 . S
Fe264 O270 2.002 . S
Fe264 O275 1.976 . S
Fe264 O278 1.996 . S
Fe265 O266 1.918 . S
Fe265 O273 1.997 . S
Fe265 O276 1.996 . S
Fe265 O280 1.976 . S
Fe265 O283 2.002 . S
O266 Fe264 1.918 . S
O266 Fe265 1.918 . S
O266 Fe267 1.918 . S
Fe267 O266 1.918 . S
Fe267 O268 2.002 . S
Fe267 O277 1.976 . S
Fe267 O281 1.996 . S
Fe267 O284 1.997 . S
O268 Fe267 2.002 . S
O268 C285 1.295 . S
O269 Fe264 1.997 . S
O269 C285 1.235 . S
O270 Fe264 2.002 . S
O270 C271 1.295 . S
C271 O270 1.295 . S
C271 O273 1.235 . S
C272 O277 1.287 . S
C272 O278 1.255 . S
O273 Fe265 1.997 . S
O273 C271 1.235 . S
C274 O280 1.287 . S
C274 O281 1.255 . S
O275 Fe264 1.976 . S
O275 C282 1.287 . S
O276 Fe265 1.996 . S
O276 C282 1.255 . S
O277 Fe267 1.976 . S
O277 C272 1.287 . S
O278 Fe264 1.996 . S
O278 C272 1.255 . S
C279 O283 1.295 . S
C279 O284 1.235 . S
O280 Fe265 1.976 . S
O280 C274 1.287 . S
O281 Fe267 1.996 . S
O281 C274 1.255 . S
C282 O275 1.287 . S
C282 O276 1.255 . S
O283 Fe265 2.002 . S
O283 C279 1.295 . S
O284 Fe267 1.997 . S
O284 C279 1.235 . S
C285 O268 1.295 . S
C285 O269 1.235 . S
Fe286 O288 1.918 . S
Fe286 O291 1.997 . S
Fe286 O292 2.002 . S
Fe286 O297 1.976 . S
Fe286 O300 1.996 . S
Fe287 O288 1.918 . S
Fe287 O295 1.997 . S
Fe287 O298 1.996 . S
Fe287 O302 1.976 . S
Fe287 O305 2.002 . S
O288 Fe286 1.918 . S
O288 Fe287 1.918 . S
O288 Fe289 1.918 . S
Fe289 O288 1.918 . S
Fe289 O290 2.002 . S
Fe289 O299 1.976 . S
Fe289 O303 1.996 . S
Fe289 O306 1.997 . S
O290 Fe289 2.002 . S
O290 C307 1.295 . S
O291 Fe286 1.997 . S
O291 C307 1.235 . S
O292 Fe286 2.002 . S
O292 C293 1.295 . S
C293 O292 1.295 . S
C293 O295 1.235 . S
C294 O299 1.287 . S
C294 O300 1.255 . S
O295 Fe287 1.997 . S
O295 C293 1.235 . S
C296 O302 1.287 . S
C296 O303 1.255 . S
O297 Fe286 1.976 . S
O297 C304 1.287 . S
O298 Fe287 1.996 . S
O298 C304 1.255 . S
O299 Fe289 1.976 . S
O299 C294 1.287 . S
O300 Fe286 1.996 . S
O300 C294 1.255 . S
C301 O305 1.295 . S
C301 O306 1.235 . S
O302 Fe287 1.976 . S
O302 C296 1.287 . S
O303 Fe289 1.996 . S
O303 C296 1.255 . S
C304 O297 1.287 . S
C304 O298 1.255 . S
O305 Fe287 2.002 . S
O305 C301 1.295 . S
O306 Fe289 1.997 . S
O306 C301 1.235 . S
C307 O290 1.295 . S
C307 O291 1.235 . S
Fe308 O310 1.918 . S
Fe308 O313 1.997 . S
Fe308 O314 2.002 . S
Fe308 O319 1.976 . S
Fe308 O322 1.996 . S
Fe309 O310 1.918 . S
Fe309 O317 1.997 . S
Fe309 O320 1.996 . S
Fe309 O324 1.976 . S
Fe309 O327 2.002 . S
O310 Fe308 1.918 . S
O310 Fe309 1.918 . S
O310 Fe311 1.918 . S
Fe311 O310 1.918 . S
Fe311 O312 2.002 . S
Fe311 O321 1.976 . S
Fe311 O325 1.996 . S
Fe311 O328 1.997 . S
O312 Fe311 2.002 . S
O312 C329 1.295 . S
O313 Fe308 1.997 . S
O313 C329 1.235 . S
O314 Fe308 2.002 . S
O314 C315 1.295 . S
C315 O314 1.295 . S
C315 O317 1.235 . S
C316 O321 1.287 . S
C316 O322 1.255 . S
O317 Fe309 1.997 . S
O317 C315 1.235 . S
C318 O324 1.287 . S
C318 O325 1.255 . S
O319 Fe308 1.976 . S
O319 C326 1.287 . S
O320 Fe309 1.996 . S
O320 C326 1.255 . S
O321 Fe311 1.976 . S
O321 C316 1.287 . S
O322 Fe308 1.996 . S
O322 C316 1.255 . S
C323 O327 1.295 . S
C323 O328 1.235 . S
O324 Fe309 1.976 . S
O324 C318 1.287 . S
O325 Fe311 1.996 . S
O325 C318 1.255 . S
C326 O319 1.287 . S
C326 O320 1.255 . S
O327 Fe309 2.002 . S
O327 C323 1.295 . S
O328 Fe311 1.997 . S
O328 C323 1.235 . S
C329 O312 1.295 . S
C329 O313 1.235 . S
Fe330 O332 1.918 . S
Fe330 O335 1.997 . S
Fe330 O336 2.002 . S
Fe330 O341 1.976 . S
Fe330 O344 1.996 . S
Fe331 O332 1.918 . S
Fe331 O339 1.997 . S
Fe331 O342 1.996 . S
Fe331 O346 1.976 . S
Fe331 O349 2.002 . S
O332 Fe330 1.918 . S
O332 Fe331 1.918 . S
O332 Fe333 1.918 . S
Fe333 O332 1.918 . S
Fe333 O334 2.002 . S
Fe333 O343 1.976 . S
Fe333 O347 1.996 . S
Fe333 O350 1.997 . S
O334 Fe333 2.002 . S
O334 C351 1.295 . S
O335 Fe330 1.997 . S
O335 C351 1.235 . S
O336 Fe330 2.002 . S
O336 C337 1.295 . S
C337 O336 1.295 . S
C337 O339 1.235 . S
C338 O343 1.287 . S
C338 O344 1.255 . S
O339 Fe331 1.997 . S
O339 C337 1.235 . S
C340 O346 1.287 . S
C340 O347 1.255 . S
O341 Fe330 1.976 . S
O341 C348 1.287 . S
O342 Fe331 1.996 . S
O342 C348 1.255 . S
O343 Fe333 1.976 . S
O343 C338 1.287 . S
O344 Fe330 1.996 . S
O344 C338 1.255 . S
C345 O349 1.295 . S
C345 O350 1.235 . S
O346 Fe331 1.976 . S
O346 C340 1.287 . S
O347 Fe333 1.996 . S
O347 C340 1.255 . S
C348 O341 1.287 . S
C348 O342 1.255 . S
O349 Fe331 2.002 . S
O349 C345 1.295 . S
O350 Fe333 1.997 . S
O350 C345 1.235 . S
C351 O334 1.295 . S
C351 O335 1.235 . S
Fe352 O354 1.918 . S
Fe352 O357 1.997 . S
Fe352 O358 2.002 . S
Fe352 O363 1.976 . S
Fe352 O366 1.996 . S
Fe353 O354 1.918 . S
Fe353 O361 1.997 . S
Fe353 O364 1.996 . S
Fe353 O368 1.976 . S
Fe353 O371 2.002 . S
O354 Fe352 1.918 . S
O354 Fe353 1.918 . S
O354 Fe355 1.918 . S
Fe355 O354 1.918 . S
Fe355 O356 2.002 . S
Fe355 O365 1.976 . S
Fe355 O369 1.996 . S
Fe355 O372 1.997 . S
O356 Fe355 2.002 . S
O356 C373 1.295 . S
O357 Fe352 1.997 . S
O357 C373 1.235 . S
O358 Fe352 2.002 . S
O358 C359 1.295 . S
C359 O358 1.295 . S
C359 O361 1.235 . S
C360 O365 1.287 . S
C360 O366 1.255 . S
O361 Fe353 1.997 . S
O361 C359 1.235 . S
C362 O368 1.287 . S
C362 O369 1.255 . S
O363 Fe352 1.976 . S
O363 C370 1.287 . S
O364 Fe353 1.996 . S
O364 C370 1.255 . S
O365 Fe355 1.976 . S
O365 C360 1.287 . S
O366 Fe352 1.996 . S
O366 C360 1.255 . S
C367 O371 1.295 . S
C367 O372 1.235 . S
O368 Fe353 1.976 . S
O368 C362 1.287 . S
O369 Fe355 1.996 . S
O369 C362 1.255 . S
C370 O363 1.287 . S
C370 O364 1.255 . S
O371 Fe353 2.002 . S
O371 C367 1.295 . S
O372 Fe355 1.997 . S
O372 C367 1.235 . S
C373 O356 1.295 . S
C373 O357 1.235 . S
Fe374 O376 1.918 . S
Fe374 O379 1.997 . S
Fe374 O380 2.002 . S
Fe374 O385 1.976 . S
Fe374 O388 1.996 . S
Fe375 O376 1.918 . S
Fe375 O383 1.997 . S
Fe375 O386 1.996 . S
Fe375 O390 1.976 . S
Fe375 O393 2.002 . S
O376 Fe374 1.918 . S
O376 Fe375 1.918 . S
O376 Fe377 1.918 . S
Fe377 O376 1.918 . S
Fe377 O378 2.002 . S
Fe377 O387 1.976 . S
Fe377 O391 1.996 . S
Fe377 O394 1.997 . S
O378 Fe377 2.002 . S
O378 C395 1.295 . S
O379 Fe374 1.997 . S
O379 C395 1.235 . S
O380 Fe374 2.002 . S
O380 C381 1.295 . S
C381 O380 1.295 . S
C381 O383 1.235 . S
C382 O387 1.287 . S
C382 O388 1.255 . S
O383 Fe375 1.997 . S
O383 C381 1.235 . S
C384 O390 1.287 . S
C384 O391 1.255 . S
O385 Fe374 1.976 . S
O385 C392 1.287 . S
O386 Fe375 1.996 . S
O386 C392 1.255 . S
O387 Fe377 1.976 . S
O387 C382 1.287 . S
O388 Fe374 1.996 . S
O388 C382 1.255 . S
C389 O393 1.295 . S
C389 O394 1.235 . S
O390 Fe375 1.976 . S
O390 C384 1.287 . S
O391 Fe377 1.996 . S
O391 C384 1.255 . S
C392 O385 1.287 . S
C392 O386 1.255 . S
O393 Fe375 2.002 . S
O393 C389 1.295 . S
O394 Fe377 1.997 . S
O394 C389 1.235 . S
C395 O378 1.295 . S
C395 O379 1.235 . S
Fe396 O398 1.918 . S
Fe396 O401 1.997 . S
Fe396 O402 2.002 . S
Fe396 O407 1.976 . S
Fe396 O410 1.996 . S
Fe397 O398 1.918 . S
Fe397 O405 1.997 . S
Fe397 O408 1.996 . S
Fe397 O412 1.976 . S
Fe397 O415 2.002 . S
O398 Fe396 1.918 . S
O398 Fe397 1.918 . S
O398 Fe399 1.918 . S
Fe399 O398 1.918 . S
Fe399 O400 2.002 . S
Fe399 O409 1.976 . S
Fe399 O413 1.996 . S
Fe399 O416 1.997 . S
O400 Fe399 2.002 . S
O400 C417 1.295 . S
O401 Fe396 1.997 . S
O401 C417 1.235 . S
O402 Fe396 2.002 . S
O402 C403 1.295 . S
C403 O402 1.295 . S
C403 O405 1.235 . S
C404 O409 1.287 . S
C404 O410 1.255 . S
O405 Fe397 1.997 . S
O405 C403 1.235 . S
C406 O412 1.287 . S
C406 O413 1.255 . S
O407 Fe396 1.976 . S
O407 C414 1.287 . S
O408 Fe397 1.996 . S
O408 C414 1.255 . S
O409 Fe399 1.976 . S
O409 C404 1.287 . S
O410 Fe396 1.996 . S
O410 C404 1.255 . S
C411 O415 1.295 . S
C411 O416 1.235 . S
O412 Fe397 1.976 . S
O412 C406 1.287 . S
O413 Fe399 1.996 . S
O413 C406 1.255 . S
C414 O407 1.287 . S
C414 O408 1.255 . S
O415 Fe397 2.002 . S
O415 C411 1.295 . S
O416 Fe399 1.997 . S
O416 C411 1.235 . S
C417 O400 1.295 . S
C417 O401 1.235 . S
Fe418 O420 1.918 . S
Fe418 O423 1.997 . S
Fe418 O424 2.002 . S
Fe418 O429 1.976 . S
Fe418 O432 1.996 . S
Fe419 O420 1.918 . S
Fe419 O427 1.997 . S
Fe419 O430 1.996 . S
Fe419 O434 1.976 . S
Fe419 O437 2.002 . S
O420 Fe418 1.918 . S
O420 Fe419 1.918 . S
O420 Fe421 1.918 . S
Fe421 O420 1.918 . S
Fe421 O422 2.002 . S
Fe421 O431 1.976 . S
Fe421 O435 1.996 . S
Fe421 O438 1.997 . S
O422 Fe421 2.002 . S
O422 C439 1.295 . S
O423 Fe418 1.997 . S
O423 C439 1.235 . S
O424 Fe418 2.002 . S
O424 C425 1.295 . S
C425 O424 1.295 . S
C425 O427 1.235 . S
C426 O431 1.287 . S
C426 O432 1.255 . S
O427 Fe419 1.997 . S
O427 C425 1.235 . S
C428 O434 1.287 . S
C428 O435 1.255 . S
O429 Fe418 1.976 . S
O429 C436 1.287 . S
O430 Fe419 1.996 . S
O430 C436 1.255 . S
O431 Fe421 1.976 . S
O431 C426 1.287 . S
O432 Fe418 1.996 . S
O432 C426 1.255 . S
C433 O437 1.295 . S
C433 O438 1.235 . S
O434 Fe419 1.976 . S
O434 C428 1.287 . S
O435 Fe421 1.996 . S
O435 C428 1.255 . S
C436 O429 1.287 . S
C436 O430 1.255 . S
O437 Fe419 2.002 . S
O437 C433 1.295 . S
O438 Fe421 1.997 . S
O438 C433 1.235 . S
C439 O422 1.295 . S
C439 O423 1.235 . S
Fe440 O442 1.918 . S
Fe440 O445 1.997 . S
Fe440 O446 2.002 . S
Fe440 O451 1.976 . S
Fe440 O454 1.996 . S
Fe441 O442 1.918 . S
Fe441 O449 1.997 . S
Fe441 O452 1.996 . S
Fe441 O456 1.976 . S
Fe441 O459 2.002 . S
O442 Fe440 1.918 . S
O442 Fe441 1.918 . S
O442 Fe443 1.918 . S
Fe443 O442 1.918 . S
Fe443 O444 2.002 . S
Fe443 O453 1.976 . S
Fe443 O457 1.996 . S
Fe443 O460 1.997 . S
O444 Fe443 2.002 . S
O444 C461 1.295 . S
O445 Fe440 1.997 . S
O445 C461 1.235 . S
O446 Fe440 2.002 . S
O446 C447 1.295 . S
C447 O446 1.295 . S
C447 O449 1.235 . S
C448 O453 1.287 . S
C448 O454 1.255 . S
O449 Fe441 1.997 . S
O449 C447 1.235 . S
C450 O456 1.287 . S
C450 O457 1.255 . S
O451 Fe440 1.976 . S
O451 C458 1.287 . S
O452 Fe441 1.996 . S
O452 C458 1.255 . S
O453 Fe443 1.976 . S
O453 C448 1.287 . S
O454 Fe440 1.996 . S
O454 C448 1.255 . S
C455 O459 1.295 . S
C455 O460 1.235 . S
O456 Fe441 1.976 . S
O456 C450 1.287 . S
O457 Fe443 1.996 . S
O457 C450 1.255 . S
C458 O451 1.287 . S
C458 O452 1.255 . S
O459 Fe441 2.002 . S
O459 C455 1.295 . S
O460 Fe443 1.997 . S
O460 C455 1.235 . S
C461 O444 1.295 . S
C461 O445 1.235 . S
Fe462 O464 1.918 . S
Fe462 O467 1.997 . S
Fe462 O468 2.002 . S
Fe462 O473 1.976 . S
Fe462 O476 1.996 . S
Fe463 O464 1.918 . S
Fe463 O471 1.997 . S
Fe463 O474 1.996 . S
Fe463 O478 1.976 . S
Fe463 O481 2.002 . S
O464 Fe462 1.918 . S
O464 Fe463 1.918 . S
O464 Fe465 1.918 . S
Fe465 O464 1.918 . S
Fe465 O466 2.002 . S
Fe465 O475 1.976 . S
Fe465 O479 1.996 . S
Fe465 O482 1.997 . S
O466 Fe465 2.002 . S
O466 C483 1.295 . S
O467 Fe462 1.997 . S
O467 C483 1.235 . S
O468 Fe462 2.002 . S
O468 C469 1.295 1_556 S
C469 O468 1.295 1_554 S
C469 O471 1.235 1_554 S
C470 O475 1.287 . S
C470 O476 1.255 . S
O471 Fe463 1.997 . S
O471 C469 1.235 1_556 S
C472 O478 1.287 . S
C472 O479 1.255 . S
O473 Fe462 1.976 . S
O473 C480 1.287 . S
O474 Fe463 1.996 . S
O474 C480 1.255 . S
O475 Fe465 1.976 . S
O475 C470 1.287 . S
O476 Fe462 1.996 . S
O476 C470 1.255 . S
C477 O481 1.295 . S
C477 O482 1.235 . S
O478 Fe463 1.976 . S
O478 C472 1.287 . S
O479 Fe465 1.996 . S
O479 C472 1.255 . S
C480 O473 1.287 . S
C480 O474 1.255 . S
O481 Fe463 2.002 . S
O481 C477 1.295 . S
O482 Fe465 1.997 . S
O482 C477 1.235 . S
C483 O466 1.295 . S
C483 O467 1.235 . S
Fe484 O486 1.918 . S
Fe484 O489 1.997 . S
Fe484 O490 2.002 . S
Fe484 O495 1.976 . S
Fe484 O498 1.996 . S
Fe485 O486 1.918 . S
Fe485 O493 1.997 . S
Fe485 O496 1.996 . S
Fe485 O500 1.976 . S
Fe485 O503 2.002 . S
O486 Fe484 1.918 . S
O486 Fe485 1.918 . S
O486 Fe487 1.918 . S
Fe487 O486 1.918 . S
Fe487 O488 2.002 . S
Fe487 O497 1.976 . S
Fe487 O501 1.996 . S
Fe487 O504 1.997 . S
O488 Fe487 2.002 . S
O488 C505 1.295 . S
O489 Fe484 1.997 . S
O489 C505 1.235 . S
O490 Fe484 2.002 . S
O490 C491 1.295 1_556 S
C491 O490 1.295 1_554 S
C491 O493 1.235 1_554 S
C492 O497 1.287 . S
C492 O498 1.255 . S
O493 Fe485 1.997 . S
O493 C491 1.235 1_556 S
C494 O500 1.287 . S
C494 O501 1.255 . S
O495 Fe484 1.976 . S
O495 C502 1.287 . S
O496 Fe485 1.996 . S
O496 C502 1.255 . S
O497 Fe487 1.976 . S
O497 C492 1.287 . S
O498 Fe484 1.996 . S
O498 C492 1.255 . S
C499 O503 1.295 . S
C499 O504 1.235 . S
O500 Fe485 1.976 . S
O500 C494 1.287 . S
O501 Fe487 1.996 . S
O501 C494 1.255 . S
C502 O495 1.287 . S
C502 O496 1.255 . S
O503 Fe485 2.002 . S
O503 C499 1.295 . S
O504 Fe487 1.997 . S
O504 C499 1.235 . S
C505 O488 1.295 . S
C505 O489 1.235 . S
Fe506 O508 1.918 . S
Fe506 O511 1.997 . S
Fe506 O512 2.002 . S
Fe506 O517 1.976 . S
Fe506 O520 1.996 . S
Fe507 O508 1.918 . S
Fe507 O515 1.997 . S
Fe507 O518 1.996 . S
Fe507 O522 1.976 . S
Fe507 O525 2.002 . S
O508 Fe506 1.918 . S
O508 Fe507 1.918 . S
O508 Fe509 1.918 . S
Fe509 O508 1.918 . S
Fe509 O510 2.002 . S
Fe509 O519 1.976 . S
Fe509 O523 1.996 . S
Fe509 O526 1.997 . S
O510 Fe509 2.002 . S
O510 C527 1.295 . S
O511 Fe506 1.997 . S
O511 C527 1.235 . S
O512 Fe506 2.002 . S
O512 C513 1.295 1_556 S
C513 O512 1.295 1_554 S
C513 O515 1.235 1_554 S
C514 O519 1.287 . S
C514 O520 1.255 . S
O515 Fe507 1.997 . S
O515 C513 1.235 1_556 S
C516 O522 1.287 . S
C516 O523 1.255 . S
O517 Fe506 1.976 . S
O517 C524 1.287 . S
O518 Fe507 1.996 . S
O518 C524 1.255 . S
O519 Fe509 1.976 . S
O519 C514 1.287 . S
O520 Fe506 1.996 . S
O520 C514 1.255 . S
C521 O525 1.295 . S
C521 O526 1.235 . S
O522 Fe507 1.976 . S
O522 C516 1.287 . S
O523 Fe509 1.996 . S
O523 C516 1.255 . S
C524 O517 1.287 . S
C524 O518 1.255 . S
O525 Fe507 2.002 . S
O525 C521 1.295 . S
O526 Fe509 1.997 . S
O526 C521 1.235 . S
C527 O510 1.295 . S
C527 O511 1.235 . S
Fe528 O530 1.918 . S
Fe528 O533 1.997 . S
Fe528 O534 2.002 . S
Fe528 O539 1.976 . S
Fe528 O542 1.996 . S
Fe529 O530 1.918 . S
Fe529 O537 1.997 . S
Fe529 O540 1.996 . S
Fe529 O544 1.976 . S
Fe529 O547 2.002 . S
O530 Fe528 1.918 . S
O530 Fe529 1.918 . S
O530 Fe531 1.918 . S
Fe531 O530 1.918 . S
Fe531 O532 2.002 . S
Fe531 O541 1.976 . S
Fe531 O545 1.996 . S
Fe531 O548 1.997 . S
O532 Fe531 2.002 . S
O532 C549 1.295 . S
O533 Fe528 1.997 . S
O533 C549 1.235 . S
O534 Fe528 2.002 . S
O534 C535 1.295 . S
C535 O534 1.295 . S
C535 O537 1.235 . S
C536 O541 1.287 . S
C536 O542 1.255 . S
O537 Fe529 1.997 . S
O537 C535 1.235 . S
C538 O544 1.287 . S
C538 O545 1.255 . S
O539 Fe528 1.976 . S
O539 C546 1.287 . S
O540 Fe529 1.996 . S
O540 C546 1.255 . S
O541 Fe531 1.976 . S
O541 C536 1.287 . S
O542 Fe528 1.996 . S
O542 C536 1.255 . S
C543 O547 1.295 . S
C543 O548 1.235 . S
O544 Fe529 1.976 . S
O544 C538 1.287 . S
O545 Fe531 1.996 . S
O545 C538 1.255 . S
C546 O539 1.287 . S
C546 O540 1.255 . S
O547 Fe529 2.002 . S
O547 C543 1.295 . S
O548 Fe531 1.997 . S
O548 C543 1.235 . S
C549 O532 1.295 . S
C549 O533 1.235 . S
Fe550 O552 1.918 . S
Fe550 O555 1.997 . S
Fe550 O556 2.002 . S
Fe550 O561 1.976 . S
Fe550 O564 1.996 . S
Fe551 O552 1.918 . S
Fe551 O559 1.997 . S
Fe551 O562 1.996 . S
Fe551 O566 1.976 . S
Fe551 O569 2.002 . S
O552 Fe550 1.918 . S
O552 Fe551 1.918 . S
O552 Fe553 1.918 . S
Fe553 O552 1.918 . S
Fe553 O554 2.002 . S
Fe553 O563 1.976 . S
Fe553 O567 1.996 . S
Fe553 O570 1.997 . S
O554 Fe553 2.002 . S
O554 C571 1.295 . S
O555 Fe550 1.997 . S
O555 C571 1.235 . S
O556 Fe550 2.002 . S
O556 C557 1.295 . S
C557 O556 1.295 . S
C557 O559 1.235 . S
C558 O563 1.287 . S
C558 O564 1.255 . S
O559 Fe551 1.997 . S
O559 C557 1.235 . S
C560 O566 1.287 . S
C560 O567 1.255 . S
O561 Fe550 1.976 . S
O561 C568 1.287 . S
O562 Fe551 1.996 . S
O562 C568 1.255 . S
O563 Fe553 1.976 . S
O563 C558 1.287 . S
O564 Fe550 1.996 . S
O564 C558 1.255 . S
C565 O569 1.295 . S
C565 O570 1.235 . S
O566 Fe551 1.976 . S
O566 C560 1.287 . S
O567 Fe553 1.996 . S
O567 C560 1.255 . S
C568 O561 1.287 . S
C568 O562 1.255 . S
O569 Fe551 2.002 . S
O569 C565 1.295 . S
O570 Fe553 1.997 . S
O570 C565 1.235 . S
C571 O554 1.295 . S
C571 O555 1.235 . S
Fe572 O574 1.918 . S
Fe572 O577 1.997 . S
Fe572 O578 2.002 . S
Fe572 O583 1.976 . S
Fe572 O586 1.996 . S
Fe573 O574 1.918 . S
Fe573 O581 1.997 . S
Fe573 O584 1.996 . S
Fe573 O588 1.976 . S
Fe573 O591 2.002 . S
O574 Fe572 1.918 . S
O574 Fe573 1.918 . S
O574 Fe575 1.918 . S
Fe575 O574 1.918 . S
Fe575 O576 2.002 . S
Fe575 O585 1.976 . S
Fe575 O589 1.996 . S
Fe575 O592 1.997 . S
O576 Fe575 2.002 . S
O576 C593 1.295 . S
O577 Fe572 1.997 . S
O577 C593 1.235 . S
O578 Fe572 2.002 . S
O578 C579 1.295 . S
C579 O578 1.295 . S
C579 O581 1.235 . S
C580 O585 1.287 . S
C580 O586 1.255 . S
O581 Fe573 1.997 . S
O581 C579 1.235 . S
C582 O588 1.287 . S
C582 O589 1.255 . S
O583 Fe572 1.976 . S
O583 C590 1.287 . S
O584 Fe573 1.996 . S
O584 C590 1.255 . S
O585 Fe575 1.976 . S
O585 C580 1.287 . S
O586 Fe572 1.996 . S
O586 C580 1.255 . S
C587 O591 1.295 . S
C587 O592 1.235 . S
O588 Fe573 1.976 . S
O588 C582 1.287 . S
O589 Fe575 1.996 . S
O589 C582 1.255 . S
C590 O583 1.287 . S
C590 O584 1.255 . S
O591 Fe573 2.002 . S
O591 C587 1.295 . S
O592 Fe575 1.997 . S
O592 C587 1.235 . S
C593 O576 1.295 . S
C593 O577 1.235 . S
Fe594 O596 1.918 . S
Fe594 O599 1.997 . S
Fe594 O600 2.002 . S
Fe594 O605 1.976 . S
Fe594 O608 1.996 . S
Fe595 O596 1.918 . S
Fe595 O603 1.997 . S
Fe595 O606 1.996 . S
Fe595 O610 1.976 . S
Fe595 O613 2.002 . S
O596 Fe594 1.918 . S
O596 Fe595 1.918 . S
O596 Fe597 1.918 . S
Fe597 O596 1.918 . S
Fe597 O598 2.002 . S
Fe597 O607 1.976 . S
Fe597 O611 1.996 . S
Fe597 O614 1.997 . S
O598 Fe597 2.002 . S
O598 C615 1.295 1_554 S
O599 Fe594 1.997 . S
O599 C615 1.235 1_554 S
O600 Fe594 2.002 . S
O600 C601 1.295 . S
C601 O600 1.295 . S
C601 O603 1.235 . S
C602 O607 1.287 . S
C602 O608 1.255 . S
O603 Fe595 1.997 . S
O603 C601 1.235 . S
C604 O610 1.287 . S
C604 O611 1.255 . S
O605 Fe594 1.976 . S
O605 C612 1.287 . S
O606 Fe595 1.996 . S
O606 C612 1.255 . S
O607 Fe597 1.976 . S
O607 C602 1.287 . S
O608 Fe594 1.996 . S
O608 C602 1.255 . S
C609 O613 1.295 . S
C609 O614 1.235 . S
O610 Fe595 1.976 . S
O610 C604 1.287 . S
O611 Fe597 1.996 . S
O611 C604 1.255 . S
C612 O605 1.287 . S
C612 O606 1.255 . S
O613 Fe595 2.002 . S
O613 C609 1.295 . S
O614 Fe597 1.997 . S
O614 C609 1.235 . S
C615 O598 1.295 1_556 S
C615 O599 1.235 1_556 S
Fe616 O618 1.918 . S
Fe616 O621 1.997 . S
Fe616 O622 2.002 . S
Fe616 O627 1.976 . S
Fe616 O630 1.996 . S
Fe617 O618 1.918 . S
Fe617 O625 1.997 . S
Fe617 O628 1.996 . S
Fe617 O632 1.976 . S
Fe617 O635 2.002 . S
O618 Fe616 1.918 . S
O618 Fe617 1.918 . S
O618 Fe619 1.918 . S
Fe619 O618 1.918 . S
Fe619 O620 2.002 . S
Fe619 O629 1.976 . S
Fe619 O633 1.996 . S
Fe619 O636 1.997 . S
O620 Fe619 2.002 . S
O620 C637 1.295 . S
O621 Fe616 1.997 . S
O621 C637 1.235 . S
O622 Fe616 2.002 . S
O622 C623 1.295 1_554 S
C623 O622 1.295 1_556 S
C623 O625 1.235 1_556 S
C624 O629 1.287 . S
C624 O630 1.255 . S
O625 Fe617 1.997 . S
O625 C623 1.235 1_554 S
C626 O632 1.287 . S
C626 O633 1.255 . S
O627 Fe616 1.976 . S
O627 C634 1.287 . S
O628 Fe617 1.996 . S
O628 C634 1.255 . S
O629 Fe619 1.976 . S
O629 C624 1.287 . S
O630 Fe616 1.996 . S
O630 C624 1.255 . S
C631 O635 1.295 . S
C631 O636 1.235 . S
O632 Fe617 1.976 . S
O632 C626 1.287 . S
O633 Fe619 1.996 . S
O633 C626 1.255 . S
C634 O627 1.287 . S
C634 O628 1.255 . S
O635 Fe617 2.002 . S
O635 C631 1.295 . S
O636 Fe619 1.997 . S
O636 C631 1.235 . S
C637 O620 1.295 . S
C637 O621 1.235 . S
Fe638 O640 1.918 . S
Fe638 O643 1.997 . S
Fe638 O644 2.002 . S
Fe638 O649 1.976 . S
Fe638 O652 1.996 . S
Fe639 O640 1.918 . S
Fe639 O647 1.997 . S
Fe639 O650 1.996 . S
Fe639 O654 1.976 . S
Fe639 O657 2.002 . S
O640 Fe638 1.918 . S
O640 Fe639 1.918 . S
O640 Fe641 1.918 . S
Fe641 O640 1.918 . S
Fe641 O642 2.002 . S
Fe641 O651 1.976 . S
Fe641 O655 1.996 . S
Fe641 O658 1.997 . S
O642 Fe641 2.002 . S
O642 C659 1.295 . S
O643 Fe638 1.997 . S
O643 C659 1.235 . S
O644 Fe638 2.002 . S
O644 C645 1.295 1_554 S
C645 O644 1.295 1_556 S
C645 O647 1.235 1_556 S
C646 O651 1.287 . S
C646 O652 1.255 . S
O647 Fe639 1.997 . S
O647 C645 1.235 1_554 S
C648 O654 1.287 . S
C648 O655 1.255 . S
O649 Fe638 1.976 . S
O649 C656 1.287 . S
O650 Fe639 1.996 . S
O650 C656 1.255 . S
O651 Fe641 1.976 . S
O651 C646 1.287 . S
O652 Fe638 1.996 . S
O652 C646 1.255 . S
C653 O657 1.295 . S
C653 O658 1.235 . S
O654 Fe639 1.976 . S
O654 C648 1.287 . S
O655 Fe641 1.996 . S
O655 C648 1.255 . S
C656 O649 1.287 . S
C656 O650 1.255 . S
O657 Fe639 2.002 . S
O657 C653 1.295 . S
O658 Fe641 1.997 . S
O658 C653 1.235 . S
C659 O642 1.295 . S
C659 O643 1.235 . S
Fe660 O662 1.918 . S
Fe660 O665 1.997 . S
Fe660 O666 2.002 . S
Fe660 O671 1.976 . S
Fe660 O674 1.996 . S
Fe661 O662 1.918 . S
Fe661 O669 1.997 . S
Fe661 O672 1.996 . S
Fe661 O676 1.976 . S
Fe661 O679 2.002 . S
O662 Fe660 1.918 . S
O662 Fe661 1.918 . S
O662 Fe663 1.918 . S
Fe663 O662 1.918 . S
Fe663 O664 2.002 . S
Fe663 O673 1.976 . S
Fe663 O677 1.996 . S
Fe663 O680 1.997 . S
O664 Fe663 2.002 . S
O664 C681 1.295 . S
O665 Fe660 1.997 . S
O665 C681 1.235 . S
O666 Fe660 2.002 . S
O666 C667 1.295 . S
C667 O666 1.295 . S
C667 O669 1.235 . S
C668 O673 1.287 . S
C668 O674 1.255 . S
O669 Fe661 1.997 . S
O669 C667 1.235 . S
C670 O676 1.287 . S
C670 O677 1.255 . S
O671 Fe660 1.976 . S
O671 C678 1.287 . S
O672 Fe661 1.996 . S
O672 C678 1.255 . S
O673 Fe663 1.976 . S
O673 C668 1.287 . S
O674 Fe660 1.996 . S
O674 C668 1.255 . S
C675 O679 1.295 . S
C675 O680 1.235 . S
O676 Fe661 1.976 . S
O676 C670 1.287 . S
O677 Fe663 1.996 . S
O677 C670 1.255 . S
C678 O671 1.287 . S
C678 O672 1.255 . S
O679 Fe661 2.002 . S
O679 C675 1.295 . S
O680 Fe663 1.997 . S
O680 C675 1.235 . S
C681 O664 1.295 . S
C681 O665 1.235 . S
Fe682 O684 1.918 . S
Fe682 O687 1.997 . S
Fe682 O688 2.002 . S
Fe682 O693 1.976 . S
Fe682 O696 1.996 . S
Fe683 O684 1.918 . S
Fe683 O691 1.997 . S
Fe683 O694 1.996 . S
Fe683 O698 1.976 . S
Fe683 O701 2.002 . S
O684 Fe682 1.918 . S
O684 Fe683 1.918 . S
O684 Fe685 1.918 . S
Fe685 O684 1.918 . S
Fe685 O686 2.002 . S
Fe685 O695 1.976 . S
Fe685 O699 1.996 . S
Fe685 O702 1.997 . S
O686 Fe685 2.002 . S
O686 C703 1.295 . S
O687 Fe682 1.997 . S
O687 C703 1.235 . S
O688 Fe682 2.002 . S
O688 C689 1.295 . S
C689 O688 1.295 . S
C689 O691 1.235 . S
C690 O695 1.287 . S
C690 O696 1.255 . S
O691 Fe683 1.997 . S
O691 C689 1.235 . S
C692 O698 1.287 . S
C692 O699 1.255 . S
O693 Fe682 1.976 . S
O693 C700 1.287 . S
O694 Fe683 1.996 . S
O694 C700 1.255 . S
O695 Fe685 1.976 . S
O695 C690 1.287 . S
O696 Fe682 1.996 . S
O696 C690 1.255 . S
C697 O701 1.295 . S
C697 O702 1.235 . S
O698 Fe683 1.976 . S
O698 C692 1.287 . S
O699 Fe685 1.996 . S
O699 C692 1.255 . S
C700 O693 1.287 . S
C700 O694 1.255 . S
O701 Fe683 2.002 . S
O701 C697 1.295 . S
O702 Fe685 1.997 . S
O702 C697 1.235 . S
C703 O686 1.295 . S
C703 O687 1.235 . S
Fe704 O706 1.918 . S
Fe704 O709 1.997 . S
Fe704 O710 2.002 . S
Fe704 O715 1.976 . S
Fe704 O718 1.996 . S
Fe705 O706 1.918 . S
Fe705 O713 1.997 . S
Fe705 O716 1.996 . S
Fe705 O720 1.976 . S
Fe705 O723 2.002 . S
O706 Fe704 1.918 . S
O706 Fe705 1.918 . S
O706 Fe707 1.918 . S
Fe707 O706 1.918 . S
Fe707 O708 2.002 . S
Fe707 O717 1.976 . S
Fe707 O721 1.996 . S
Fe707 O724 1.997 . S
O708 Fe707 2.002 . S
O708 C725 1.295 . S
O709 Fe704 1.997 . S
O709 C725 1.235 . S
O710 Fe704 2.002 . S
O710 C711 1.295 . S
C711 O710 1.295 . S
C711 O713 1.235 . S
C712 O717 1.287 . S
C712 O718 1.255 . S
O713 Fe705 1.997 . S
O713 C711 1.235 . S
C714 O720 1.287 . S
C714 O721 1.255 . S
O715 Fe704 1.976 . S
O715 C722 1.287 . S
O716 Fe705 1.996 . S
O716 C722 1.255 . S
O717 Fe707 1.976 . S
O717 C712 1.287 . S
O718 Fe704 1.996 . S
O718 C712 1.255 . S
C719 O723 1.295 . S
C719 O724 1.235 . S
O720 Fe705 1.976 . S
O720 C714 1.287 . S
O721 Fe707 1.996 . S
O721 C714 1.255 . S
C722 O715 1.287 . S
C722 O716 1.255 . S
O723 Fe705 2.002 . S
O723 C719 1.295 . S
O724 Fe707 1.997 . S
O724 C719 1.235 . S
C725 O708 1.295 . S
C725 O709 1.235 . S
Fe726 O728 1.918 . S
Fe726 O731 1.997 . S
Fe726 O732 2.002 . S
Fe726 O737 1.976 . S
Fe726 O740 1.996 . S
Fe727 O728 1.918 . S
Fe727 O735 1.997 . S
Fe727 O738 1.996 . S
Fe727 O742 1.976 . S
Fe727 O745 2.002 . S
O728 Fe726 1.918 . S
O728 Fe727 1.918 . S
O728 Fe729 1.918 . S
Fe729 O728 1.918 . S
Fe729 O730 2.002 . S
Fe729 O739 1.976 . S
Fe729 O743 1.996 . S
Fe729 O746 1.997 . S
O730 Fe729 2.002 . S
O730 C747 1.295 . S
O731 Fe726 1.997 . S
O731 C747 1.235 . S
O732 Fe726 2.002 . S
O732 C733 1.295 . S
C733 O732 1.295 . S
C733 O735 1.235 . S
C734 O739 1.287 . S
C734 O740 1.255 . S
O735 Fe727 1.997 . S
O735 C733 1.235 . S
C736 O742 1.287 . S
C736 O743 1.255 . S
O737 Fe726 1.976 . S
O737 C744 1.287 . S
O738 Fe727 1.996 . S
O738 C744 1.255 . S
O739 Fe729 1.976 . S
O739 C734 1.287 . S
O740 Fe726 1.996 . S
O740 C734 1.255 . S
C741 O745 1.295 . S
C741 O746 1.235 . S
O742 Fe727 1.976 . S
O742 C736 1.287 . S
O743 Fe729 1.996 . S
O743 C736 1.255 . S
C744 O737 1.287 . S
C744 O738 1.255 . S
O745 Fe727 2.002 . S
O745 C741 1.295 . S
O746 Fe729 1.997 . S
O746 C741 1.235 . S
C747 O730 1.295 . S
C747 O731 1.235 . S
Fe748 O750 1.918 . S
Fe748 O753 1.997 . S
Fe748 O754 2.002 . S
Fe748 O759 1.976 . S
Fe748 O762 1.996 . S
Fe749 O750 1.918 . S
Fe749 O757 1.997 . S
Fe749 O760 1.996 . S
Fe749 O764 1.976 . S
Fe749 O767 2.002 . S
O750 Fe748 1.918 . S
O750 Fe749 1.918 . S
O750 Fe751 1.918 . S
Fe751 O750 1.918 . S
Fe751 O752 2.002 . S
Fe751 O761 1.976 . S
Fe751 O765 1.996 . S
Fe751 O768 1.997 . S
O752 Fe751 2.002 . S
O752 C769 1.295 . S
O753 Fe748 1.997 . S
O753 C769 1.235 . S
O754 Fe748 2.002 . S
O754 C755 1.295 . S
C755 O754 1.295 . S
C755 O757 1.235 . S
C756 O761 1.287 . S
C756 O762 1.255 . S
O757 Fe749 1.997 . S
O757 C755 1.235 . S
C758 O764 1.287 . S
C758 O765 1.255 . S
O759 Fe748 1.976 . S
O759 C766 1.287 . S
O760 Fe749 1.996 . S
O760 C766 1.255 . S
O761 Fe751 1.976 . S
O761 C756 1.287 . S
O762 Fe748 1.996 . S
O762 C756 1.255 . S
C763 O767 1.295 . S
C763 O768 1.235 . S
O764 Fe749 1.976 . S
O764 C758 1.287 . S
O765 Fe751 1.996 . S
O765 C758 1.255 . S
C766 O759 1.287 . S
C766 O760 1.255 . S
O767 Fe749 2.002 . S
O767 C763 1.295 . S
O768 Fe751 1.997 . S
O768 C763 1.235 . S
C769 O752 1.295 . S
C769 O753 1.235 . S
Fe770 O772 1.918 . S
Fe770 O775 1.997 . S
Fe770 O776 2.002 . S
Fe770 O781 1.976 . S
Fe770 O784 1.996 . S
Fe771 O772 1.918 . S
Fe771 O779 1.997 . S
Fe771 O782 1.996 . S
Fe771 O786 1.976 . S
Fe771 O789 2.002 . S
O772 Fe770 1.918 . S
O772 Fe771 1.918 . S
O772 Fe773 1.918 . S
Fe773 O772 1.918 . S
Fe773 O774 2.002 . S
Fe773 O783 1.976 . S
Fe773 O787 1.996 . S
Fe773 O790 1.997 . S
O774 Fe773 2.002 . S
O774 C791 1.295 . S
O775 Fe770 1.997 . S
O775 C791 1.235 . S
O776 Fe770 2.002 . S
O776 C777 1.295 . S
C777 O776 1.295 . S
C777 O779 1.235 . S
C778 O783 1.287 . S
C778 O784 1.255 . S
O779 Fe771 1.997 . S
O779 C777 1.235 . S
C780 O786 1.287 . S
C780 O787 1.255 . S
O781 Fe770 1.976 . S
O781 C788 1.287 . S
O782 Fe771 1.996 . S
O782 C788 1.255 . S
O783 Fe773 1.976 . S
O783 C778 1.287 . S
O784 Fe770 1.996 . S
O784 C778 1.255 . S
C785 O789 1.295 . S
C785 O790 1.235 . S
O786 Fe771 1.976 . S
O786 C780 1.287 . S
O787 Fe773 1.996 . S
O787 C780 1.255 . S
C788 O781 1.287 . S
C788 O782 1.255 . S
O789 Fe771 2.002 . S
O789 C785 1.295 . S
O790 Fe773 1.997 . S
O790 C785 1.235 . S
C791 O774 1.295 . S
C791 O775 1.235 . S
C792 C793 1.369 . S
C792 C794 1.419 1_554 S
C792 H796 0.930 . S
C793 C792 1.369 . S
C793 C802 1.429 . S
C794 C792 1.419 1_556 S
C794 C795 1.363 . S
C794 H797 0.929 . S
C795 C794 1.363 . S
C795 C801 1.428 . S
H796 C792 0.930 . S
H797 C794 0.929 . S
S798 N799 1.613 1_556 S
S798 N800 1.610 . S
N799 S798 1.613 1_554 S
N799 C802 1.350 . S
N800 S798 1.610 . S
N800 C801 1.351 . S
C801 C795 1.428 . S
C801 N800 1.351 . S
C801 C802 1.434 1_556 S
C802 C793 1.429 . S
C802 N799 1.350 . S
C802 C801 1.434 1_554 S
C803 C804 1.390 . S
C803 C805 1.399 1_554 S
C803 H807 0.929 1_554 S
C804 C803 1.390 . S
C804 C813 1.429 . S
C805 C803 1.399 1_556 S
C805 C806 1.363 . S
C805 H808 0.929 . S
C806 C805 1.363 . S
C806 C812 1.401 1_556 S
H807 C803 0.929 1_556 S
H808 C805 0.929 . S
S809 N810 1.613 . S
S809 N811 1.610 . S
N810 S809 1.613 . S
N810 C813 1.350 . S
N811 S809 1.610 . S
N811 C812 1.356 . S
C812 C806 1.401 1_554 S
C812 N811 1.356 . S
C812 C813 1.460 . S
C813 C804 1.429 . S
C813 N810 1.350 . S
C813 C812 1.460 . S
C814 C815 1.369 . S
C814 C816 1.414 1_554 S
C814 H818 0.930 . S
C815 C814 1.369 . S
C815 C824 1.401 1_554 S
C816 C814 1.414 1_556 S
C816 C817 1.368 . S
C816 H819 0.928 1_556 S
C817 C816 1.368 . S
C817 C823 1.428 . S
H818 C814 0.930 . S
H819 C816 0.928 1_554 S
S820 N821 1.613 . S
S820 N822 1.610 . S
N821 S820 1.613 . S
N821 C824 1.355 . S
N822 S820 1.610 . S
N822 C823 1.351 . S
C823 C817 1.428 . S
C823 N822 1.351 . S
C823 C824 1.460 . S
C824 C815 1.401 1_556 S
C824 N821 1.355 . S
C824 C823 1.460 . S
C825 C826 1.369 . S
C825 C827 1.419 . S
C825 H829 0.930 . S
C826 C825 1.369 . S
C826 C835 1.429 . S
C827 C825 1.419 . S
C827 C828 1.363 . S
C827 H830 0.929 . S
C828 C827 1.363 . S
C828 C834 1.428 . S
H829 C825 0.930 . S
H830 C827 0.929 . S
S831 N832 1.613 . S
S831 N833 1.610 . S
N832 S831 1.613 . S
N832 C835 1.350 . S
N833 S831 1.610 . S
N833 C834 1.351 . S
C834 C828 1.428 . S
C834 N833 1.351 . S
C834 C835 1.434 . S
C835 C826 1.429 . S
C835 N832 1.350 . S
C835 C834 1.434 . S
C836 C837 1.369 . S
C836 C838 1.419 . S
C836 H840 0.930 . S
C837 C836 1.369 . S
C837 C846 1.429 . S
C838 C836 1.419 . S
C838 C839 1.363 . S
C838 H841 0.929 . S
C839 C838 1.363 . S
C839 C845 1.428 . S
H840 C836 0.930 . S
H841 C838 0.929 . S
S842 N843 1.613 . S
S842 N844 1.610 . S
N843 S842 1.613 . S
N843 C846 1.350 . S
N844 S842 1.610 . S
N844 C845 1.351 . S
C845 C839 1.428 . S
C845 N844 1.351 . S
C845 C846 1.434 . S
C846 C837 1.429 . S
C846 N843 1.350 . S
C846 C845 1.434 . S
C847 C848 1.369 . S
C847 C849 1.419 . S
C847 H851 0.930 . S
C848 C847 1.369 . S
C848 C857 1.429 . S
C849 C847 1.419 . S
C849 C850 1.363 . S
C849 H852 0.929 . S
C850 C849 1.363 . S
C850 C856 1.428 . S
H851 C847 0.930 . S
H852 C849 0.929 . S
S853 N854 1.613 . S
S853 N855 1.610 . S
N854 S853 1.613 . S
N854 C857 1.350 . S
N855 S853 1.610 . S
N855 C856 1.351 . S
C856 C850 1.428 . S
C856 N855 1.351 . S
C856 C857 1.434 . S
C857 C848 1.429 . S
C857 N854 1.350 . S
C857 C856 1.434 . S
C858 C859 1.369 . S
C858 C860 1.422 . S
C858 H862 0.930 . S
C859 C858 1.369 . S
C859 C868 1.429 1_554 S
C860 C858 1.422 . S
C860 C861 1.360 1_554 S
C860 H863 0.929 . S
C861 C860 1.360 1_556 S
C861 C867 1.428 . S
H862 C858 0.930 . S
H863 C860 0.929 . S
S864 N865 1.613 . S
S864 N866 1.610 . S
N865 S864 1.613 . S
N865 C868 1.350 . S
N866 S864 1.610 . S
N866 C867 1.351 . S
C867 C861 1.428 . S
C867 N866 1.351 . S
C867 C868 1.434 . S
C868 C859 1.429 1_556 S
C868 N865 1.350 . S
C868 C867 1.434 . S
C869 C870 1.369 . S
C869 C871 1.419 1_556 S
C869 H873 0.930 . S
C870 C869 1.369 . S
C870 C879 1.429 . S
C871 C869 1.419 1_554 S
C871 C872 1.363 . S
C871 H874 0.929 . S
C872 C871 1.363 . S
C872 C878 1.428 . S
H873 C869 0.930 . S
H874 C871 0.929 . S
S875 N876 1.613 1_554 S
S875 N877 1.610 . S
N876 S875 1.613 1_556 S
N876 C879 1.350 . S
N877 S875 1.610 . S
N877 C878 1.351 . S
C878 C872 1.428 . S
C878 N877 1.351 . S
C878 C879 1.434 1_554 S
C879 C870 1.429 . S
C879 N876 1.350 . S
C879 C878 1.434 1_556 S
C880 C881 1.363 1_554 S
C880 C882 1.424 . S
C880 H884 0.931 . S
C881 C880 1.363 1_556 S
C881 C890 1.429 . S
C882 C880 1.424 . S
C882 C883 1.363 . S
C882 H885 0.929 . S
C883 C882 1.363 . S
C883 C889 1.428 1_554 S
H884 C880 0.931 . S
H885 C882 0.929 . S
S886 N887 1.613 . S
S886 N888 1.610 . S
N887 S886 1.613 . S
N887 C890 1.350 . S
N888 S886 1.610 . S
N888 C889 1.351 . S
C889 C883 1.428 1_556 S
C889 N888 1.351 . S
C889 C890 1.434 . S
C890 C881 1.429 . S
C890 N887 1.350 . S
C890 C889 1.434 . S
C891 C892 1.369 . S
C891 C893 1.419 . S
C891 H895 0.930 . S
C892 C891 1.369 . S
C892 C901 1.429 . S
C893 C891 1.419 . S
C893 C894 1.363 . S
C893 H896 0.929 . S
C894 C893 1.363 . S
C894 C900 1.428 . S
H895 C891 0.930 . S
H896 C893 0.929 . S
S897 N898 1.613 . S
S897 N899 1.610 . S
N898 S897 1.613 . S
N898 C901 1.350 . S
N899 S897 1.610 . S
N899 C900 1.351 . S
C900 C894 1.428 . S
C900 N899 1.351 . S
C900 C901 1.434 . S
C901 C892 1.429 . S
C901 N898 1.350 . S
C901 C900 1.434 . S
C902 C903 1.369 . S
C902 C904 1.419 . S
C902 H906 0.930 . S
C903 C902 1.369 . S
C903 C912 1.429 . S
C904 C902 1.419 . S
C904 C905 1.363 . S
C904 H907 0.929 . S
C905 C904 1.363 . S
C905 C911 1.428 . S
H906 C902 0.930 . S
H907 C904 0.929 . S
S908 N909 1.613 . S
S908 N910 1.610 . S
N909 S908 1.613 . S
N909 C912 1.350 . S
N910 S908 1.610 . S
N910 C911 1.351 . S
C911 C905 1.428 . S
C911 N910 1.351 . S
C911 C912 1.434 . S
C912 C903 1.429 . S
C912 N909 1.350 . S
C912 C911 1.434 . S
C913 C914 1.369 . S
C913 C915 1.419 . S
C913 H917 0.930 . S
C914 C913 1.369 . S
C914 C923 1.429 . S
C915 C913 1.419 . S
C915 C916 1.363 . S
C915 H918 0.929 . S
C916 C915 1.363 . S
C916 C922 1.428 . S
H917 C913 0.930 . S
H918 C915 0.929 . S
S919 N920 1.613 . S
S919 N921 1.610 . S
N920 S919 1.613 . S
N920 C923 1.350 . S
N921 S919 1.610 . S
N921 C922 1.351 . S
C922 C916 1.428 . S
C922 N921 1.351 . S
C922 C923 1.434 . S
C923 C914 1.429 . S
C923 N920 1.350 . S
C923 C922 1.434 . S
C924 C925 1.369 . S
C924 C926 1.419 . S
C924 H928 0.930 . S
C925 C924 1.369 . S
C925 C934 1.429 . S
C926 C924 1.419 . S
C926 C927 1.363 . S
C926 H929 0.929 . S
C927 C926 1.363 . S
C927 C933 1.428 . S
H928 C924 0.930 . S
H929 C926 0.929 . S
S930 N931 1.613 . S
S930 N932 1.610 . S
N931 S930 1.613 . S
N931 C934 1.350 . S
N932 S930 1.610 . S
N932 C933 1.351 . S
C933 C927 1.428 . S
C933 N932 1.351 . S
C933 C934 1.434 . S
C934 C925 1.429 . S
C934 N931 1.350 . S
C934 C933 1.434 . S
C935 C936 1.369 . S
C935 C937 1.419 . S
C935 H939 0.930 . S
C936 C935 1.369 . S
C936 C945 1.429 . S
C937 C935 1.419 . S
C937 C938 1.363 . S
C937 H940 0.929 . S
C938 C937 1.363 . S
C938 C944 1.428 . S
H939 C935 0.930 . S
H940 C937 0.929 . S
S941 N942 1.613 . S
S941 N943 1.610 . S
N942 S941 1.613 . S
N942 C945 1.350 . S
N943 S941 1.610 . S
N943 C944 1.351 . S
C944 C938 1.428 . S
C944 N943 1.351 . S
C944 C945 1.434 . S
C945 C936 1.429 . S
C945 N942 1.350 . S
C945 C944 1.434 . S
C946 C947 1.369 . S
C946 C948 1.419 . S
C946 H950 0.930 . S
C947 C946 1.369 . S
C947 C956 1.429 . S
C948 C946 1.419 . S
C948 C949 1.363 . S
C948 H951 0.929 . S
C949 C948 1.363 . S
C949 C955 1.428 . S
H950 C946 0.930 . S
H951 C948 0.929 . S
S952 N953 1.613 . S
S952 N954 1.610 . S
N953 S952 1.613 . S
N953 C956 1.350 . S
N954 S952 1.610 . S
N954 C955 1.351 . S
C955 C949 1.428 . S
C955 N954 1.351 . S
C955 C956 1.434 . S
C956 C947 1.429 . S
C956 N953 1.350 . S
C956 C955 1.434 . S
C957 C958 1.369 . S
C957 C959 1.419 . S
C957 H961 0.930 . S
C958 C957 1.369 . S
C958 C967 1.429 . S
C959 C957 1.419 . S
C959 C960 1.363 . S
C959 H962 0.929 . S
C960 C959 1.363 . S
C960 C966 1.428 . S
H961 C957 0.930 . S
H962 C959 0.929 . S
S963 N964 1.613 . S
S963 N965 1.610 . S
N964 S963 1.613 . S
N964 C967 1.350 . S
N965 S963 1.610 . S
N965 C966 1.351 . S
C966 C960 1.428 . S
C966 N965 1.351 . S
C966 C967 1.434 . S
C967 C958 1.429 . S
C967 N964 1.350 . S
C967 C966 1.434 . S
C968 C969 1.369 . S
C968 C970 1.419 . S
C968 H972 0.930 . S
C969 C968 1.369 . S
C969 C978 1.429 . S
C970 C968 1.419 . S
C970 C971 1.363 . S
C970 H973 0.929 . S
C971 C970 1.363 . S
C971 C977 1.428 . S
H972 C968 0.930 . S
H973 C970 0.929 . S
S974 N975 1.613 . S
S974 N976 1.610 . S
N975 S974 1.613 . S
N975 C978 1.350 . S
N976 S974 1.610 . S
N976 C977 1.351 . S
C977 C971 1.428 . S
C977 N976 1.351 . S
C977 C978 1.434 . S
C978 C969 1.429 . S
C978 N975 1.350 . S
C978 C977 1.434 . S
C979 C980 1.369 . S
C979 C981 1.419 . S
C979 H983 0.930 . S
C980 C979 1.369 . S
C980 C989 1.429 . S
C981 C979 1.419 . S
C981 C982 1.363 . S
C981 H984 0.929 . S
C982 C981 1.363 . S
C982 C988 1.428 . S
H983 C979 0.930 . S
H984 C981 0.929 . S
S985 N986 1.613 . S
S985 N987 1.610 . S
N986 S985 1.613 . S
N986 C989 1.350 . S
N987 S985 1.610 . S
N987 C988 1.351 . S
C988 C982 1.428 . S
C988 N987 1.351 . S
C988 C989 1.434 . S
C989 C980 1.429 . S
C989 N986 1.350 . S
C989 C988 1.434 . S
C990 C991 1.369 . S
C990 C992 1.419 . S
C990 H994 0.930 . S
C991 C990 1.369 . S
C991 C1000 1.429 . S
C992 C990 1.419 . S
C992 C993 1.363 . S
C992 H995 0.929 . S
C993 C992 1.363 . S
C993 C999 1.428 . S
H994 C990 0.930 . S
H995 C992 0.929 . S
S996 N997 1.613 . S
S996 N998 1.610 . S
N997 S996 1.613 . S
N997 C1000 1.350 . S
N998 S996 1.610 . S
N998 C999 1.351 . S
C999 C993 1.428 . S
C999 N998 1.351 . S
C999 C1000 1.434 . S
C1000 C991 1.429 . S
C1000 N997 1.350 . S
C1000 C999 1.434 . S
C1001 C1002 1.369 . S
C1001 C1003 1.419 . S
C1001 H1005 0.930 . S
C1002 C1001 1.369 . S
C1002 C1011 1.429 . S
C1003 C1001 1.419 . S
C1003 C1004 1.363 . S
C1003 H1006 0.929 . S
C1004 C1003 1.363 . S
C1004 C1010 1.428 . S
H1005 C1001 0.930 . S
H1006 C1003 0.929 . S
S1007 N1008 1.613 . S
S1007 N1009 1.610 . S
N1008 S1007 1.613 . S
N1008 C1011 1.350 . S
N1009 S1007 1.610 . S
N1009 C1010 1.351 . S
C1010 C1004 1.428 . S
C1010 N1009 1.351 . S
C1010 C1011 1.434 . S
C1011 C1002 1.429 . S
C1011 N1008 1.350 . S
C1011 C1010 1.434 . S
C1012 C1013 1.369 . S
C1012 C1014 1.419 . S
C1012 H1016 0.930 . S
C1013 C1012 1.369 . S
C1013 C1022 1.429 . S
C1014 C1012 1.419 . S
C1014 C1015 1.363 . S
C1014 H1017 0.929 . S
C1015 C1014 1.363 . S
C1015 C1021 1.428 . S
H1016 C1012 0.930 . S
H1017 C1014 0.929 . S
S1018 N1019 1.613 . S
S1018 N1020 1.610 . S
N1019 S1018 1.613 . S
N1019 C1022 1.350 . S
N1020 S1018 1.610 . S
N1020 C1021 1.351 . S
C1021 C1015 1.428 . S
C1021 N1020 1.351 . S
C1021 C1022 1.434 . S
C1022 C1013 1.429 . S
C1022 N1019 1.350 . S
C1022 C1021 1.434 . S
C1023 C1024 1.369 . S
C1023 C1025 1.419 . S
C1023 H1027 0.930 . S
C1024 C1023 1.369 . S
C1024 C1033 1.429 . S
C1025 C1023 1.419 . S
C1025 C1026 1.363 . S
C1025 H1028 0.929 . S
C1026 C1025 1.363 . S
C1026 C1032 1.428 . S
H1027 C1023 0.930 . S
H1028 C1025 0.929 . S
S1029 N1030 1.613 . S
S1029 N1031 1.610 . S
N1030 S1029 1.613 . S
N1030 C1033 1.350 . S
N1031 S1029 1.610 . S
N1031 C1032 1.351 . S
C1032 C1026 1.428 . S
C1032 N1031 1.351 . S
C1032 C1033 1.434 . S
C1033 C1024 1.429 . S
C1033 N1030 1.350 . S
C1033 C1032 1.434 . S
C1034 C1035 1.369 . S
C1034 C1036 1.419 . S
C1034 H1038 0.930 . S
C1035 C1034 1.369 . S
C1035 C1044 1.429 . S
C1036 C1034 1.419 . S
C1036 C1037 1.363 . S
C1036 H1039 0.929 . S
C1037 C1036 1.363 . S
C1037 C1043 1.428 . S
H1038 C1034 0.930 . S
H1039 C1036 0.929 . S
S1040 N1041 1.613 . S
S1040 N1042 1.610 . S
N1041 S1040 1.613 . S
N1041 C1044 1.350 . S
N1042 S1040 1.610 . S
N1042 C1043 1.351 . S
C1043 C1037 1.428 . S
C1043 N1042 1.351 . S
C1043 C1044 1.434 . S
C1044 C1035 1.429 . S
C1044 N1041 1.350 . S
C1044 C1043 1.434 . S
C1045 C1046 1.369 . S
C1045 C1047 1.419 . S
C1045 H1049 0.930 . S
C1046 C1045 1.369 . S
C1046 C1055 1.429 . S
C1047 C1045 1.419 . S
C1047 C1048 1.363 . S
C1047 H1050 0.929 . S
C1048 C1047 1.363 . S
C1048 C1054 1.428 . S
H1049 C1045 0.930 . S
H1050 C1047 0.929 . S
S1051 N1052 1.613 . S
S1051 N1053 1.610 . S
N1052 S1051 1.613 . S
N1052 C1055 1.350 . S
N1053 S1051 1.610 . S
N1053 C1054 1.351 . S
C1054 C1048 1.428 . S
C1054 N1053 1.351 . S
C1054 C1055 1.434 . S
C1055 C1046 1.429 . S
C1055 N1052 1.350 . S
C1055 C1054 1.434 . S
C1056 C1057 1.369 . S
C1056 C1058 1.419 . S
C1056 H1060 0.930 . S
C1057 C1056 1.369 . S
C1057 C1066 1.429 . S
C1058 C1056 1.419 . S
C1058 C1059 1.363 . S
C1058 H1061 0.929 . S
C1059 C1058 1.363 . S
C1059 C1065 1.428 . S
H1060 C1056 0.930 . S
H1061 C1058 0.929 . S
S1062 N1063 1.613 . S
S1062 N1064 1.610 . S
N1063 S1062 1.613 . S
N1063 C1066 1.350 . S
N1064 S1062 1.610 . S
N1064 C1065 1.351 . S
C1065 C1059 1.428 . S
C1065 N1064 1.351 . S
C1065 C1066 1.434 . S
C1066 C1057 1.429 . S
C1066 N1063 1.350 . S
C1066 C1065 1.434 . S
C1067 C1068 1.369 . S
C1067 C1069 1.419 . S
C1067 H1071 0.930 . S
C1068 C1067 1.369 . S
C1068 C1077 1.429 . S
C1069 C1067 1.419 . S
C1069 C1070 1.363 . S
C1069 H1072 0.929 . S
C1070 C1069 1.363 . S
C1070 C1076 1.428 . S
H1071 C1067 0.930 . S
H1072 C1069 0.929 . S
S1073 N1074 1.613 . S
S1073 N1075 1.610 . S
N1074 S1073 1.613 . S
N1074 C1077 1.350 . S
N1075 S1073 1.610 . S
N1075 C1076 1.351 . S
C1076 C1070 1.428 . S
C1076 N1075 1.351 . S
C1076 C1077 1.434 . S
C1077 C1068 1.429 . S
C1077 N1074 1.350 . S
C1077 C1076 1.434 . S
C1078 C1079 1.369 . S
C1078 C1080 1.419 . S
C1078 H1082 0.930 . S
C1079 C1078 1.369 . S
C1079 C1088 1.429 . S
C1080 C1078 1.419 . S
C1080 C1081 1.363 . S
C1080 H1083 0.929 . S
C1081 C1080 1.363 . S
C1081 C1087 1.428 . S
H1082 C1078 0.930 . S
H1083 C1080 0.929 . S
S1084 N1085 1.613 . S
S1084 N1086 1.610 . S
N1085 S1084 1.613 . S
N1085 C1088 1.350 . S
N1086 S1084 1.610 . S
N1086 C1087 1.351 . S
C1087 C1081 1.428 . S
C1087 N1086 1.351 . S
C1087 C1088 1.434 . S
C1088 C1079 1.429 . S
C1088 N1085 1.350 . S
C1088 C1087 1.434 . S
C1089 C1090 1.369 . S
C1089 C1091 1.419 . S
C1089 H1093 0.930 . S
C1090 C1089 1.369 . S
C1090 C1099 1.429 . S
C1091 C1089 1.419 . S
C1091 C1092 1.363 . S
C1091 H1094 0.929 . S
C1092 C1091 1.363 . S
C1092 C1098 1.428 . S
H1093 C1089 0.930 . S
H1094 C1091 0.929 . S
S1095 N1096 1.613 . S
S1095 N1097 1.610 . S
N1096 S1095 1.613 . S
N1096 C1099 1.350 . S
N1097 S1095 1.610 . S
N1097 C1098 1.351 . S
C1098 C1092 1.428 . S
C1098 N1097 1.351 . S
C1098 C1099 1.434 . S
C1099 C1090 1.429 . S
C1099 N1096 1.350 . S
C1099 C1098 1.434 . S
C1100 C1101 1.369 . S
C1100 C1102 1.419 . S
C1100 H1104 0.930 . S
C1101 C1100 1.369 . S
C1101 C1110 1.429 . S
C1102 C1100 1.419 . S
C1102 C1103 1.363 . S
C1102 H1105 0.929 . S
C1103 C1102 1.363 . S
C1103 C1109 1.428 . S
H1104 C1100 0.930 . S
H1105 C1102 0.929 . S
S1106 N1107 1.613 . S
S1106 N1108 1.610 . S
N1107 S1106 1.613 . S
N1107 C1110 1.350 . S
N1108 S1106 1.610 . S
N1108 C1109 1.351 . S
C1109 C1103 1.428 . S
C1109 N1108 1.351 . S
C1109 C1110 1.434 . S
C1110 C1101 1.429 . S
C1110 N1107 1.350 . S
C1110 C1109 1.434 . S
C1111 C1112 1.369 . S
C1111 C1113 1.419 . S
C1111 H1115 0.930 . S
C1112 C1111 1.369 . S
C1112 C1121 1.429 . S
C1113 C1111 1.419 . S
C1113 C1114 1.363 . S
C1113 H1116 0.929 . S
C1114 C1113 1.363 . S
C1114 C1120 1.428 . S
H1115 C1111 0.930 . S
H1116 C1113 0.929 . S
S1117 N1118 1.613 . S
S1117 N1119 1.610 . S
N1118 S1117 1.613 . S
N1118 C1121 1.350 . S
N1119 S1117 1.610 . S
N1119 C1120 1.351 . S
C1120 C1114 1.428 . S
C1120 N1119 1.351 . S
C1120 C1121 1.434 . S
C1121 C1112 1.429 . S
C1121 N1118 1.350 . S
C1121 C1120 1.434 . S
C1122 C1123 1.369 . S
C1122 C1124 1.419 . S
C1122 H1126 0.930 . S
C1123 C1122 1.369 . S
C1123 C1132 1.429 . S
C1124 C1122 1.419 . S
C1124 C1125 1.363 . S
C1124 H1127 0.929 . S
C1125 C1124 1.363 . S
C1125 C1131 1.428 . S
H1126 C1122 0.930 . S
H1127 C1124 0.929 . S
S1128 N1129 1.613 . S
S1128 N1130 1.610 . S
N1129 S1128 1.613 . S
N1129 C1132 1.350 . S
N1130 S1128 1.610 . S
N1130 C1131 1.351 . S
C1131 C1125 1.428 . S
C1131 N1130 1.351 . S
C1131 C1132 1.434 . S
C1132 C1123 1.429 . S
C1132 N1129 1.350 . S
C1132 C1131 1.434 . S
C1133 C1134 1.369 . S
C1133 C1135 1.419 . S
C1133 H1137 0.930 . S
C1134 C1133 1.369 . S
C1134 C1143 1.429 . S
C1135 C1133 1.419 . S
C1135 C1136 1.363 . S
C1135 H1138 0.929 . S
C1136 C1135 1.363 . S
C1136 C1142 1.428 . S
H1137 C1133 0.930 . S
H1138 C1135 0.929 . S
S1139 N1140 1.613 . S
S1139 N1141 1.610 . S
N1140 S1139 1.613 . S
N1140 C1143 1.350 . S
N1141 S1139 1.610 . S
N1141 C1142 1.351 . S
C1142 C1136 1.428 . S
C1142 N1141 1.351 . S
C1142 C1143 1.434 . S
C1143 C1134 1.429 . S
C1143 N1140 1.350 . S
C1143 C1142 1.434 . S
C1144 C1145 1.369 . S
C1144 C1146 1.419 . S
C1144 H1148 0.930 . S
C1145 C1144 1.369 . S
C1145 C1154 1.429 . S
C1146 C1144 1.419 . S
C1146 C1147 1.363 . S
C1146 H1149 0.929 . S
C1147 C1146 1.363 . S
C1147 C1153 1.428 . S
H1148 C1144 0.930 . S
H1149 C1146 0.929 . S
S1150 N1151 1.613 . S
S1150 N1152 1.610 . S
N1151 S1150 1.613 . S
N1151 C1154 1.350 . S
N1152 S1150 1.610 . S
N1152 C1153 1.351 . S
C1153 C1147 1.428 . S
C1153 N1152 1.351 . S
C1153 C1154 1.434 . S
C1154 C1145 1.429 . S
C1154 N1151 1.350 . S
C1154 C1153 1.434 . S
C1155 C1156 1.369 . S
C1155 C1157 1.419 . S
C1155 H1159 0.930 . S
C1156 C1155 1.369 . S
C1156 C1165 1.429 . S
C1157 C1155 1.419 . S
C1157 C1158 1.363 . S
C1157 H1160 0.929 . S
C1158 C1157 1.363 . S
C1158 C1164 1.428 . S
H1159 C1155 0.930 . S
H1160 C1157 0.929 . S
S1161 N1162 1.613 . S
S1161 N1163 1.610 . S
N1162 S1161 1.613 . S
N1162 C1165 1.350 . S
N1163 S1161 1.610 . S
N1163 C1164 1.351 . S
C1164 C1158 1.428 . S
C1164 N1163 1.351 . S
C1164 C1165 1.434 . S
C1165 C1156 1.429 . S
C1165 N1162 1.350 . S
C1165 C1164 1.434 . S
C1166 C1167 1.369 . S
C1166 C1168 1.419 . S
C1166 H1170 0.930 . S
C1167 C1166 1.369 . S
C1167 C1176 1.429 . S
C1168 C1166 1.419 . S
C1168 C1169 1.363 . S
C1168 H1171 0.929 . S
C1169 C1168 1.363 . S
C1169 C1175 1.428 . S
H1170 C1166 0.930 . S
H1171 C1168 0.929 . S
S1172 N1173 1.613 . S
S1172 N1174 1.610 . S
N1173 S1172 1.613 . S
N1173 C1176 1.350 . S
N1174 S1172 1.610 . S
N1174 C1175 1.351 . S
C1175 C1169 1.428 . S
C1175 N1174 1.351 . S
C1175 C1176 1.434 . S
C1176 C1167 1.429 . S
C1176 N1173 1.350 . S
C1176 C1175 1.434 . S
C1177 C1178 1.369 . S
C1177 C1179 1.419 . S
C1177 H1181 0.930 . S
C1178 C1177 1.369 . S
C1178 C1187 1.429 . S
C1179 C1177 1.419 . S
C1179 C1180 1.363 . S
C1179 H1182 0.929 . S
C1180 C1179 1.363 . S
C1180 C1186 1.428 . S
H1181 C1177 0.930 . S
H1182 C1179 0.929 . S
S1183 N1184 1.613 . S
S1183 N1185 1.610 . S
N1184 S1183 1.613 . S
N1184 C1187 1.350 . S
N1185 S1183 1.610 . S
N1185 C1186 1.351 . S
C1186 C1180 1.428 . S
C1186 N1185 1.351 . S
C1186 C1187 1.434 . S
C1187 C1178 1.429 . S
C1187 N1184 1.350 . S
C1187 C1186 1.434 . S
C1188 C1189 1.369 . S
C1188 C1190 1.419 . S
C1188 H1192 0.930 . S
C1189 C1188 1.369 . S
C1189 C1198 1.429 . S
C1190 C1188 1.419 . S
C1190 C1191 1.363 . S
C1190 H1193 0.929 . S
C1191 C1190 1.363 . S
C1191 C1197 1.428 . S
H1192 C1188 0.930 . S
H1193 C1190 0.929 . S
S1194 N1195 1.613 . S
S1194 N1196 1.610 . S
N1195 S1194 1.613 . S
N1195 C1198 1.350 . S
N1196 S1194 1.610 . S
N1196 C1197 1.351 . S
C1197 C1191 1.428 . S
C1197 N1196 1.351 . S
C1197 C1198 1.434 . S
C1198 C1189 1.429 . S
C1198 N1195 1.350 . S
C1198 C1197 1.434 . S
C1199 C1200 1.369 . S
C1199 C1201 1.419 1_565 S
C1199 H1203 0.930 . S
C1200 C1199 1.369 . S
C1200 C1209 1.429 . S
C1201 C1199 1.419 1_545 S
C1201 C1202 1.363 . S
C1201 H1204 0.929 . S
C1202 C1201 1.363 . S
C1202 C1208 1.428 . S
H1203 C1199 0.930 . S
H1204 C1201 0.929 . S
S1205 N1206 1.613 1_545 S
S1205 N1207 1.610 . S
N1206 S1205 1.613 1_565 S
N1206 C1209 1.350 . S
N1207 S1205 1.610 . S
N1207 C1208 1.351 . S
C1208 C1202 1.428 . S
C1208 N1207 1.351 . S
C1208 C1209 1.434 1_545 S
C1209 C1200 1.429 . S
C1209 N1206 1.350 . S
C1209 C1208 1.434 1_565 S
C1210 C1211 1.369 . S
C1210 C1212 1.419 1_655 S
C1210 H1214 0.930 . S
C1211 C1210 1.369 . S
C1211 C1220 1.429 . S
C1212 C1210 1.419 1_455 S
C1212 C1213 1.363 . S
C1212 H1215 0.929 . S
C1213 C1212 1.363 . S
C1213 C1219 1.428 . S
H1214 C1210 0.930 . S
H1215 C1212 0.929 . S
S1216 N1217 1.613 . S
S1216 N1218 1.610 1_655 S
N1217 S1216 1.613 . S
N1217 C1220 1.350 . S
N1218 S1216 1.610 1_455 S
N1218 C1219 1.351 . S
C1219 C1213 1.428 . S
C1219 N1218 1.351 . S
C1219 C1220 1.434 1_455 S
C1220 C1211 1.429 . S
C1220 N1217 1.350 . S
C1220 C1219 1.434 1_655 S
C1221 C1222 1.369 . S
C1221 C1223 1.419 . S
C1221 H1225 0.930 . S
C1222 C1221 1.369 . S
C1222 C1231 1.429 . S
C1223 C1221 1.419 . S
C1223 C1224 1.363 . S
C1223 H1226 0.929 . S
C1224 C1223 1.363 . S
C1224 C1230 1.428 . S
H1225 C1221 0.930 . S
H1226 C1223 0.929 . S
S1227 N1228 1.613 . S
S1227 N1229 1.610 . S
N1228 S1227 1.613 . S
N1228 C1231 1.350 . S
N1229 S1227 1.610 . S
N1229 C1230 1.351 . S
C1230 C1224 1.428 . S
C1230 N1229 1.351 . S
C1230 C1231 1.434 . S
C1231 C1222 1.429 . S
C1231 N1228 1.350 . S
C1231 C1230 1.434 . S
C1232 C1233 1.369 . S
C1232 C1234 1.419 1_545 S
C1232 H1236 0.930 . S
C1233 C1232 1.369 . S
C1233 C1242 1.429 . S
C1234 C1232 1.419 1_565 S
C1234 C1235 1.363 . S
C1234 H1237 0.929 . S
C1235 C1234 1.363 . S
C1235 C1241 1.428 . S
H1236 C1232 0.930 . S
H1237 C1234 0.929 . S
S1238 N1239 1.613 1_565 S
S1238 N1240 1.610 . S
N1239 S1238 1.613 1_545 S
N1239 C1242 1.350 . S
N1240 S1238 1.610 . S
N1240 C1241 1.351 . S
C1241 C1235 1.428 . S
C1241 N1240 1.351 . S
C1241 C1242 1.434 1_565 S
C1242 C1233 1.429 . S
C1242 N1239 1.350 . S
C1242 C1241 1.434 1_545 S
C1243 C1244 1.369 . S
C1243 C1245 1.419 1_455 S
C1243 H1247 0.930 . S
C1244 C1243 1.369 . S
C1244 C1253 1.429 . S
C1245 C1243 1.419 1_655 S
C1245 C1246 1.363 . S
C1245 H1248 0.929 . S
C1246 C1245 1.363 . S
C1246 C1252 1.428 . S
H1247 C1243 0.930 . S
H1248 C1245 0.929 . S
S1249 N1250 1.613 . S
S1249 N1251 1.610 1_455 S
N1250 S1249 1.613 . S
N1250 C1253 1.350 . S
N1251 S1249 1.610 1_655 S
N1251 C1252 1.351 . S
C1252 C1246 1.428 . S
C1252 N1251 1.351 . S
C1252 C1253 1.434 1_655 S
C1253 C1244 1.429 . S
C1253 N1250 1.350 . S
C1253 C1252 1.434 1_455 S
C1254 C1255 1.369 . S
C1254 C1256 1.419 . S
C1254 H1258 0.930 . S
C1255 C1254 1.369 . S
C1255 C1264 1.429 . S
C1256 C1254 1.419 . S
C1256 C1257 1.363 . S
C1256 H1259 0.929 . S
C1257 C1256 1.363 . S
C1257 C1263 1.428 . S
H1258 C1254 0.930 . S
H1259 C1256 0.929 . S
S1260 N1261 1.613 . S
S1260 N1262 1.610 . S
N1261 S1260 1.613 . S
N1261 C1264 1.350 . S
N1262 S1260 1.610 . S
N1262 C1263 1.351 . S
C1263 C1257 1.428 . S
C1263 N1262 1.351 . S
C1263 C1264 1.434 . S
C1264 C1255 1.429 . S
C1264 N1261 1.350 . S
C1264 C1263 1.434 . S
C1265 C1266 1.369 . S
C1265 C1267 1.419 1_545 S
C1265 H1269 0.930 . S
C1266 C1265 1.369 . S
C1266 C1275 1.429 . S
C1267 C1265 1.419 1_565 S
C1267 C1268 1.363 . S
C1267 H1270 0.929 . S
C1268 C1267 1.363 . S
C1268 C1274 1.428 . S
H1269 C1265 0.930 . S
H1270 C1267 0.929 . S
S1271 N1272 1.613 1_565 S
S1271 N1273 1.610 . S
N1272 S1271 1.613 1_545 S
N1272 C1275 1.350 . S
N1273 S1271 1.610 . S
N1273 C1274 1.351 . S
C1274 C1268 1.428 . S
C1274 N1273 1.351 . S
C1274 C1275 1.434 1_565 S
C1275 C1266 1.429 . S
C1275 N1272 1.350 . S
C1275 C1274 1.434 1_545 S
C1276 C1277 1.369 . S
C1276 C1278 1.419 1_655 S
C1276 H1280 0.930 . S
C1277 C1276 1.369 . S
C1277 C1286 1.429 . S
C1278 C1276 1.419 1_455 S
C1278 C1279 1.363 . S
C1278 H1281 0.929 . S
C1279 C1278 1.363 . S
C1279 C1285 1.428 . S
H1280 C1276 0.930 . S
H1281 C1278 0.929 . S
S1282 N1283 1.613 1_455 S
S1282 N1284 1.610 . S
N1283 S1282 1.613 1_655 S
N1283 C1286 1.350 . S
N1284 S1282 1.610 . S
N1284 C1285 1.351 . S
C1285 C1279 1.428 . S
C1285 N1284 1.351 . S
C1285 C1286 1.434 1_455 S
C1286 C1277 1.429 . S
C1286 N1283 1.350 . S
C1286 C1285 1.434 1_655 S
C1287 C1288 1.369 . S
C1287 C1289 1.419 . S
C1287 H1291 0.930 . S
C1288 C1287 1.369 . S
C1288 C1297 1.429 . S
C1289 C1287 1.419 . S
C1289 C1290 1.363 . S
C1289 H1292 0.929 . S
C1290 C1289 1.363 . S
C1290 C1296 1.428 . S
H1291 C1287 0.930 . S
H1292 C1289 0.929 . S
S1293 N1294 1.613 . S
S1293 N1295 1.610 . S
N1294 S1293 1.613 . S
N1294 C1297 1.350 . S
N1295 S1293 1.610 . S
N1295 C1296 1.351 . S
C1296 C1290 1.428 . S
C1296 N1295 1.351 . S
C1296 C1297 1.434 . S
C1297 C1288 1.429 . S
C1297 N1294 1.350 . S
C1297 C1296 1.434 . S
C1298 C1299 1.369 . S
C1298 C1300 1.419 1_565 S
C1298 H1302 0.930 . S
C1299 C1298 1.369 . S
C1299 C1308 1.429 . S
C1300 C1298 1.419 1_545 S
C1300 C1301 1.363 . S
C1300 H1303 0.929 . S
C1301 C1300 1.363 . S
C1301 C1307 1.428 . S
H1302 C1298 0.930 . S
H1303 C1300 0.929 . S
S1304 N1305 1.613 1_545 S
S1304 N1306 1.610 . S
N1305 S1304 1.613 1_565 S
N1305 C1308 1.350 . S
N1306 S1304 1.610 . S
N1306 C1307 1.351 . S
C1307 C1301 1.428 . S
C1307 N1306 1.351 . S
C1307 C1308 1.434 1_545 S
C1308 C1299 1.429 . S
C1308 N1305 1.350 . S
C1308 C1307 1.434 1_565 S
C1309 C1310 1.369 . S
C1309 C1311 1.419 1_655 S
C1309 H1313 0.930 . S
C1310 C1309 1.369 . S
C1310 C1319 1.429 . S
C1311 C1309 1.419 1_455 S
C1311 C1312 1.363 . S
C1311 H1314 0.929 . S
C1312 C1311 1.363 . S
C1312 C1318 1.428 . S
H1313 C1309 0.930 . S
H1314 C1311 0.929 . S
S1315 N1316 1.613 . S
S1315 N1317 1.610 1_655 S
N1316 S1315 1.613 . S
N1316 C1319 1.350 . S
N1317 S1315 1.610 1_455 S
N1317 C1318 1.351 . S
C1318 C1312 1.428 . S
C1318 N1317 1.351 . S
C1318 C1319 1.434 1_455 S
C1319 C1310 1.429 . S
C1319 N1316 1.350 . S
C1319 C1318 1.434 1_655 S
C1320 C1321 1.369 . S
C1320 C1322 1.419 . S
C1320 H1324 0.930 . S
C1321 C1320 1.369 . S
C1321 C1330 1.429 . S
C1322 C1320 1.419 . S
C1322 C1323 1.363 . S
C1322 H1325 0.929 . S
C1323 C1322 1.363 . S
C1323 C1329 1.428 . S
H1324 C1320 0.930 . S
H1325 C1322 0.929 . S
S1326 N1327 1.613 . S
S1326 N1328 1.610 . S
N1327 S1326 1.613 . S
N1327 C1330 1.350 . S
N1328 S1326 1.610 . S
N1328 C1329 1.351 . S
C1329 C1323 1.428 . S
C1329 N1328 1.351 . S
C1329 C1330 1.434 . S
C1330 C1321 1.429 . S
C1330 N1327 1.350 . S
C1330 C1329 1.434 . S
C1331 C1332 1.369 . S
C1331 C1333 1.419 . S
C1331 H1335 0.930 . S
C1332 C1331 1.369 . S
C1332 C1341 1.429 . S
C1333 C1331 1.419 . S
C1333 C1334 1.363 . S
C1333 H1336 0.929 . S
C1334 C1333 1.363 . S
C1334 C1340 1.428 . S
H1335 C1331 0.930 . S
H1336 C1333 0.929 . S
S1337 N1338 1.613 . S
S1337 N1339 1.610 . S
N1338 S1337 1.613 . S
N1338 C1341 1.350 . S
N1339 S1337 1.610 . S
N1339 C1340 1.351 . S
C1340 C1334 1.428 . S
C1340 N1339 1.351 . S
C1340 C1341 1.434 . S
C1341 C1332 1.429 . S
C1341 N1338 1.350 . S
C1341 C1340 1.434 . S
C1342 C1343 1.369 . S
C1342 C1344 1.419 . S
C1342 H1346 0.930 . S
C1343 C1342 1.369 . S
C1343 C1352 1.429 . S
C1344 C1342 1.419 . S
C1344 C1345 1.363 . S
C1344 H1347 0.929 . S
C1345 C1344 1.363 . S
C1345 C1351 1.428 . S
H1346 C1342 0.930 . S
H1347 C1344 0.929 . S
S1348 N1349 1.613 . S
S1348 N1350 1.610 . S
N1349 S1348 1.613 . S
N1349 C1352 1.350 . S
N1350 S1348 1.610 . S
N1350 C1351 1.351 . S
C1351 C1345 1.428 . S
C1351 N1350 1.351 . S
C1351 C1352 1.434 . S
C1352 C1343 1.429 . S
C1352 N1349 1.350 . S
C1352 C1351 1.434 . S
C1353 C1354 1.369 . S
C1353 C1355 1.419 . S
C1353 H1357 0.930 . S
C1354 C1353 1.369 . S
C1354 C1363 1.429 . S
C1355 C1353 1.419 . S
C1355 C1356 1.363 . S
C1355 H1358 0.929 . S
C1356 C1355 1.363 . S
C1356 C1362 1.428 . S
H1357 C1353 0.930 . S
H1358 C1355 0.929 . S
S1359 N1360 1.613 . S
S1359 N1361 1.610 . S
N1360 S1359 1.613 . S
N1360 C1363 1.350 . S
N1361 S1359 1.610 . S
N1361 C1362 1.351 . S
C1362 C1356 1.428 . S
C1362 N1361 1.351 . S
C1362 C1363 1.434 . S
C1363 C1354 1.429 . S
C1363 N1360 1.350 . S
C1363 C1362 1.434 . S
C1364 C1365 1.369 . S
C1364 C1366 1.419 . S
C1364 H1368 0.930 . S
C1365 C1364 1.369 . S
C1365 C1374 1.429 . S
C1366 C1364 1.419 . S
C1366 C1367 1.363 . S
C1366 H1369 0.929 . S
C1367 C1366 1.363 . S
C1367 C1373 1.428 . S
H1368 C1364 0.930 . S
H1369 C1366 0.929 . S
S1370 N1371 1.613 . S
S1370 N1372 1.610 . S
N1371 S1370 1.613 . S
N1371 C1374 1.350 . S
N1372 S1370 1.610 . S
N1372 C1373 1.351 . S
C1373 C1367 1.428 . S
C1373 N1372 1.351 . S
C1373 C1374 1.434 . S
C1374 C1365 1.429 . S
C1374 N1371 1.350 . S
C1374 C1373 1.434 . S
C1375 C1376 1.369 . S
C1375 C1377 1.419 . S
C1375 H1379 0.930 . S
C1376 C1375 1.369 . S
C1376 C1385 1.429 . S
C1377 C1375 1.419 . S
C1377 C1378 1.363 . S
C1377 H1380 0.929 . S
C1378 C1377 1.363 . S
C1378 C1384 1.428 . S
H1379 C1375 0.930 . S
H1380 C1377 0.929 . S
S1381 N1382 1.613 . S
S1381 N1383 1.610 . S
N1382 S1381 1.613 . S
N1382 C1385 1.350 . S
N1383 S1381 1.610 . S
N1383 C1384 1.351 . S
C1384 C1378 1.428 . S
C1384 N1383 1.351 . S
C1384 C1385 1.434 . S
C1385 C1376 1.429 . S
C1385 N1382 1.350 . S
C1385 C1384 1.434 . S
C1386 C1387 1.369 . S
C1386 C1388 1.419 . S
C1386 H1390 0.930 . S
C1387 C1386 1.369 . S
C1387 C1396 1.429 . S
C1388 C1386 1.419 . S
C1388 C1389 1.363 . S
C1388 H1391 0.929 . S
C1389 C1388 1.363 . S
C1389 C1395 1.428 . S
H1390 C1386 0.930 . S
H1391 C1388 0.929 . S
S1392 N1393 1.613 . S
S1392 N1394 1.610 . S
N1393 S1392 1.613 . S
N1393 C1396 1.350 . S
N1394 S1392 1.610 . S
N1394 C1395 1.351 . S
C1395 C1389 1.428 . S
C1395 N1394 1.351 . S
C1395 C1396 1.434 . S
C1396 C1387 1.429 . S
C1396 N1393 1.350 . S
C1396 C1395 1.434 . S
C1397 C1398 1.369 . S
C1397 C1399 1.419 . S
C1397 H1401 0.930 . S
C1398 C1397 1.369 . S
C1398 C1407 1.429 . S
C1399 C1397 1.419 . S
C1399 C1400 1.363 . S
C1399 H1402 0.929 . S
C1400 C1399 1.363 . S
C1400 C1406 1.428 . S
H1401 C1397 0.930 . S
H1402 C1399 0.929 . S
S1403 N1404 1.613 . S
S1403 N1405 1.610 . S
N1404 S1403 1.613 . S
N1404 C1407 1.350 . S
N1405 S1403 1.610 . S
N1405 C1406 1.351 . S
C1406 C1400 1.428 . S
C1406 N1405 1.351 . S
C1406 C1407 1.434 . S
C1407 C1398 1.429 . S
C1407 N1404 1.350 . S
C1407 C1406 1.434 . S
C1408 C1409 1.369 . S
C1408 C1410 1.419 . S
C1408 H1412 0.930 . S
C1409 C1408 1.369 . S
C1409 C1418 1.429 . S
C1410 C1408 1.419 . S
C1410 C1411 1.363 . S
C1410 H1413 0.929 . S
C1411 C1410 1.363 . S
C1411 C1417 1.428 . S
H1412 C1408 0.930 . S
H1413 C1410 0.929 . S
S1414 N1415 1.613 . S
S1414 N1416 1.610 . S
N1415 S1414 1.613 . S
N1415 C1418 1.350 . S
N1416 S1414 1.610 . S
N1416 C1417 1.351 . S
C1417 C1411 1.428 . S
C1417 N1416 1.351 . S
C1417 C1418 1.434 . S
C1418 C1409 1.429 . S
C1418 N1415 1.350 . S
C1418 C1417 1.434 . S
C1419 C1420 1.369 . S
C1419 C1421 1.419 . S
C1419 H1423 0.930 . S
C1420 C1419 1.369 . S
C1420 C1429 1.429 . S
C1421 C1419 1.419 . S
C1421 C1422 1.363 . S
C1421 H1424 0.929 . S
C1422 C1421 1.363 . S
C1422 C1428 1.428 . S
H1423 C1419 0.930 . S
H1424 C1421 0.929 . S
S1425 N1426 1.613 . S
S1425 N1427 1.610 . S
N1426 S1425 1.613 . S
N1426 C1429 1.350 1_554 S
N1427 S1425 1.610 . S
N1427 C1428 1.351 1_554 S
C1428 C1422 1.428 . S
C1428 N1427 1.351 1_556 S
C1428 C1429 1.434 . S
C1429 C1420 1.429 . S
C1429 N1426 1.350 1_556 S
C1429 C1428 1.434 . S
C1430 C1431 1.369 . S
C1430 C1432 1.419 . S
C1430 H1434 0.930 . S
C1431 C1430 1.369 . S
C1431 C1440 1.429 . S
C1432 C1430 1.419 . S
C1432 C1433 1.363 . S
C1432 H1435 0.929 . S
C1433 C1432 1.363 . S
C1433 C1439 1.428 . S
H1434 C1430 0.930 . S
H1435 C1432 0.929 . S
S1436 N1437 1.613 . S
S1436 N1438 1.610 . S
N1437 S1436 1.613 . S
N1437 C1440 1.350 1_554 S
N1438 S1436 1.610 . S
N1438 C1439 1.351 1_554 S
C1439 C1433 1.428 . S
C1439 N1438 1.351 1_556 S
C1439 C1440 1.434 . S
C1440 C1431 1.429 . S
C1440 N1437 1.350 1_556 S
C1440 C1439 1.434 . S
C1441 C1442 1.369 . S
C1441 C1443 1.419 . S
C1441 H1445 0.930 . S
C1442 C1441 1.369 . S
C1442 C1451 1.429 . S
C1443 C1441 1.419 . S
C1443 C1444 1.363 . S
C1443 H1446 0.929 . S
C1444 C1443 1.363 . S
C1444 C1450 1.428 . S
H1445 C1441 0.930 . S
H1446 C1443 0.929 . S
S1447 N1448 1.613 . S
S1447 N1449 1.610 . S
N1448 S1447 1.613 . S
N1448 C1451 1.350 . S
N1449 S1447 1.610 . S
N1449 C1450 1.351 . S
C1450 C1444 1.428 . S
C1450 N1449 1.351 . S
C1450 C1451 1.434 . S
C1451 C1442 1.429 . S
C1451 N1448 1.350 . S
C1451 C1450 1.434 . S
C1452 C1453 1.369 . S
C1452 C1454 1.419 . S
C1452 H1456 0.930 . S
C1453 C1452 1.369 . S
C1453 C1462 1.429 . S
C1454 C1452 1.419 . S
C1454 C1455 1.363 . S
C1454 H1457 0.929 . S
C1455 C1454 1.363 . S
C1455 C1461 1.428 . S
H1456 C1452 0.930 . S
H1457 C1454 0.929 . S
S1458 N1459 1.613 . S
S1458 N1460 1.610 . S
N1459 S1458 1.613 . S
N1459 C1462 1.350 . S
N1460 S1458 1.610 . S
N1460 C1461 1.351 . S
C1461 C1455 1.428 . S
C1461 N1460 1.351 . S
C1461 C1462 1.434 . S
C1462 C1453 1.429 . S
C1462 N1459 1.350 . S
C1462 C1461 1.434 . S
C1463 C1464 1.369 . S
C1463 C1465 1.419 . S
C1463 H1467 0.930 . S
C1464 C1463 1.369 . S
C1464 C1473 1.429 . S
C1465 C1463 1.419 . S
C1465 C1466 1.363 . S
C1465 H1468 0.929 . S
C1466 C1465 1.363 . S
C1466 C1472 1.428 . S
H1467 C1463 0.930 . S
H1468 C1465 0.929 . S
S1469 N1470 1.613 . S
S1469 N1471 1.610 . S
N1470 S1469 1.613 . S
N1470 C1473 1.350 . S
N1471 S1469 1.610 . S
N1471 C1472 1.351 . S
C1472 C1466 1.428 . S
C1472 N1471 1.351 . S
C1472 C1473 1.434 . S
C1473 C1464 1.429 . S
C1473 N1470 1.350 . S
C1473 C1472 1.434 . S
C1474 C1475 1.369 . S
C1474 C1476 1.419 . S
C1474 H1478 0.930 . S
C1475 C1474 1.369 . S
C1475 C1484 1.429 . S
C1476 C1474 1.419 . S
C1476 C1477 1.363 . S
C1476 H1479 0.929 . S
C1477 C1476 1.363 . S
C1477 C1483 1.428 . S
H1478 C1474 0.930 . S
H1479 C1476 0.929 . S
S1480 N1481 1.613 . S
S1480 N1482 1.610 . S
N1481 S1480 1.613 . S
N1481 C1484 1.350 . S
N1482 S1480 1.610 . S
N1482 C1483 1.351 . S
C1483 C1477 1.428 . S
C1483 N1482 1.351 . S
C1483 C1484 1.434 . S
C1484 C1475 1.429 . S
C1484 N1481 1.350 . S
C1484 C1483 1.434 . S
C1485 C1486 1.369 . S
C1485 C1487 1.419 . S
C1485 H1489 0.930 . S
C1486 C1485 1.369 . S
C1486 C1495 1.429 . S
C1487 C1485 1.419 . S
C1487 C1488 1.363 . S
C1487 H1490 0.929 . S
C1488 C1487 1.363 . S
C1488 C1494 1.428 . S
H1489 C1485 0.930 . S
H1490 C1487 0.929 . S
S1491 N1492 1.613 . S
S1491 N1493 1.610 . S
N1492 S1491 1.613 . S
N1492 C1495 1.350 . S
N1493 S1491 1.610 . S
N1493 C1494 1.351 . S
C1494 C1488 1.428 . S
C1494 N1493 1.351 . S
C1494 C1495 1.434 . S
C1495 C1486 1.429 . S
C1495 N1492 1.350 . S
C1495 C1494 1.434 . S
C1496 C1497 1.369 . S
C1496 C1498 1.419 . S
C1496 H1500 0.930 . S
C1497 C1496 1.369 . S
C1497 C1506 1.429 . S
C1498 C1496 1.419 . S
C1498 C1499 1.363 . S
C1498 H1501 0.929 . S
C1499 C1498 1.363 . S
C1499 C1505 1.428 . S
H1500 C1496 0.930 . S
H1501 C1498 0.929 . S
S1502 N1503 1.613 1_556 S
S1502 N1504 1.610 1_556 S
N1503 S1502 1.613 1_554 S
N1503 C1506 1.350 . S
N1504 S1502 1.610 1_554 S
N1504 C1505 1.351 . S
C1505 C1499 1.428 . S
C1505 N1504 1.351 . S
C1505 C1506 1.434 . S
C1506 C1497 1.429 . S
C1506 N1503 1.350 . S
C1506 C1505 1.434 . S
C1507 C1508 1.369 . S
C1507 C1509 1.419 . S
C1507 H1511 0.930 . S
C1508 C1507 1.369 . S
C1508 C1517 1.429 . S
C1509 C1507 1.419 . S
C1509 C1510 1.363 . S
C1509 H1512 0.929 . S
C1510 C1509 1.363 . S
C1510 C1516 1.428 . S
H1511 C1507 0.930 . S
H1512 C1509 0.929 . S
S1513 N1514 1.613 . S
S1513 N1515 1.610 . S
N1514 S1513 1.613 . S
N1514 C1517 1.350 1_556 S
N1515 S1513 1.610 . S
N1515 C1516 1.351 1_556 S
C1516 C1510 1.428 . S
C1516 N1515 1.351 1_554 S
C1516 C1517 1.434 . S
C1517 C1508 1.429 . S
C1517 N1514 1.350 1_554 S
C1517 C1516 1.434 . S
C1518 C1519 1.369 . S
C1518 C1520 1.419 . S
C1518 H1522 0.930 . S
C1519 C1518 1.369 . S
C1519 C1528 1.429 . S
C1520 C1518 1.419 . S
C1520 C1521 1.363 . S
C1520 H1523 0.929 . S
C1521 C1520 1.363 . S
C1521 C1527 1.428 . S
H1522 C1518 0.930 . S
H1523 C1520 0.929 . S
S1524 N1525 1.613 . S
S1524 N1526 1.610 . S
N1525 S1524 1.613 . S
N1525 C1528 1.350 . S
N1526 S1524 1.610 . S
N1526 C1527 1.351 . S
C1527 C1521 1.428 . S
C1527 N1526 1.351 . S
C1527 C1528 1.434 . S
C1528 C1519 1.429 . S
C1528 N1525 1.350 . S
C1528 C1527 1.434 . S
C1529 C1530 1.369 . S
C1529 C1531 1.419 . S
C1529 H1533 0.930 . S
C1530 C1529 1.369 . S
C1530 C1539 1.429 . S
C1531 C1529 1.419 . S
C1531 C1532 1.363 . S
C1531 H1534 0.929 . S
C1532 C1531 1.363 . S
C1532 C1538 1.428 . S
H1533 C1529 0.930 . S
H1534 C1531 0.929 . S
S1535 N1536 1.613 . S
S1535 N1537 1.610 . S
N1536 S1535 1.613 . S
N1536 C1539 1.350 . S
N1537 S1535 1.610 . S
N1537 C1538 1.351 . S
C1538 C1532 1.428 . S
C1538 N1537 1.351 . S
C1538 C1539 1.434 . S
C1539 C1530 1.429 . S
C1539 N1536 1.350 . S
C1539 C1538 1.434 . S
C1540 C1541 1.369 . S
C1540 C1542 1.419 . S
C1540 H1544 0.930 . S
C1541 C1540 1.369 . S
C1541 C1550 1.429 . S
C1542 C1540 1.419 . S
C1542 C1543 1.363 . S
C1542 H1545 0.929 . S
C1543 C1542 1.363 . S
C1543 C1549 1.428 . S
H1544 C1540 0.930 . S
H1545 C1542 0.929 . S
S1546 N1547 1.613 . S
S1546 N1548 1.610 . S
N1547 S1546 1.613 . S
N1547 C1550 1.350 . S
N1548 S1546 1.610 . S
N1548 C1549 1.351 . S
C1549 C1543 1.428 . S
C1549 N1548 1.351 . S
C1549 C1550 1.434 . S
C1550 C1541 1.429 . S
C1550 N1547 1.350 . S
C1550 C1549 1.434 . S
C1551 C1552 1.369 . S
C1551 C1553 1.419 . S
C1551 H1555 0.930 . S
C1552 C1551 1.369 . S
C1552 C1561 1.429 . S
C1553 C1551 1.419 . S
C1553 C1554 1.363 . S
C1553 H1556 0.929 . S
C1554 C1553 1.363 . S
C1554 C1560 1.428 . S
H1555 C1551 0.930 . S
H1556 C1553 0.929 . S
S1557 N1558 1.613 . S
S1557 N1559 1.610 . S
N1558 S1557 1.613 . S
N1558 C1561 1.350 . S
N1559 S1557 1.610 . S
N1559 C1560 1.351 . S
C1560 C1554 1.428 . S
C1560 N1559 1.351 . S
C1560 C1561 1.434 . S
C1561 C1552 1.429 . S
C1561 N1558 1.350 . S
C1561 C1560 1.434 . S
C1562 C1563 1.369 . S
C1562 C1564 1.419 . S
C1562 H1566 0.930 . S
C1563 C1562 1.369 . S
C1563 C1572 1.429 . S
C1564 C1562 1.419 . S
C1564 C1565 1.363 . S
C1564 H1567 0.929 . S
C1565 C1564 1.363 . S
C1565 C1571 1.428 . S
H1566 C1562 0.930 . S
H1567 C1564 0.929 . S
S1568 N1569 1.613 . S
S1568 N1570 1.610 . S
N1569 S1568 1.613 . S
N1569 C1572 1.350 . S
N1570 S1568 1.610 . S
N1570 C1571 1.351 . S
C1571 C1565 1.428 . S
C1571 N1570 1.351 . S
C1571 C1572 1.434 . S
C1572 C1563 1.429 . S
C1572 N1569 1.350 . S
C1572 C1571 1.434 . S
C1573 C1574 1.369 . S
C1573 C1575 1.419 . S
C1573 H1577 0.930 . S
C1574 C1573 1.369 . S
C1574 C1583 1.429 . S
C1575 C1573 1.419 . S
C1575 C1576 1.363 . S
C1575 H1578 0.929 . S
C1576 C1575 1.363 . S
C1576 C1582 1.428 . S
H1577 C1573 0.930 . S
H1578 C1575 0.929 . S
S1579 N1580 1.613 . S
S1579 N1581 1.610 . S
N1580 S1579 1.613 . S
N1580 C1583 1.350 . S
N1581 S1579 1.610 . S
N1581 C1582 1.351 . S
C1582 C1576 1.428 . S
C1582 N1581 1.351 . S
C1582 C1583 1.434 . S
C1583 C1574 1.429 . S
C1583 N1580 1.350 . S
C1583 C1582 1.434 . S
C1584 C1585 1.369 1_455 S
C1584 C1586 1.419 . S
C1584 H1588 0.930 . S
C1585 C1584 1.369 1_655 S
C1585 C1594 1.429 . S
C1586 C1584 1.419 . S
C1586 C1587 1.363 . S
C1586 H1589 0.929 . S
C1587 C1586 1.363 . S
C1587 C1593 1.428 1_455 S
H1588 C1584 0.930 . S
H1589 C1586 0.929 . S
S1590 N1591 1.613 . S
S1590 N1592 1.610 . S
N1591 S1590 1.613 . S
N1591 C1594 1.350 . S
N1592 S1590 1.610 . S
N1592 C1593 1.351 . S
C1593 C1587 1.428 1_655 S
C1593 N1592 1.351 . S
C1593 C1594 1.434 . S
C1594 C1585 1.429 . S
C1594 N1591 1.350 . S
C1594 C1593 1.434 . S
C1595 C1596 1.369 . S
C1595 C1597 1.419 . S
C1595 H1599 0.930 . S
C1596 C1595 1.369 . S
C1596 C1605 1.429 . S
C1597 C1595 1.419 . S
C1597 C1598 1.363 . S
C1597 H1600 0.929 . S
C1598 C1597 1.363 . S
C1598 C1604 1.428 . S
H1599 C1595 0.930 . S
H1600 C1597 0.929 . S
S1601 N1602 1.613 . S
S1601 N1603 1.610 . S
N1602 S1601 1.613 . S
N1602 C1605 1.350 . S
N1603 S1601 1.610 . S
N1603 C1604 1.351 . S
C1604 C1598 1.428 . S
C1604 N1603 1.351 . S
C1604 C1605 1.434 . S
C1605 C1596 1.429 . S
C1605 N1602 1.350 . S
C1605 C1604 1.434 . S
C1606 C1607 1.369 1_565 S
C1606 C1608 1.419 . S
C1606 H1610 0.930 . S
C1607 C1606 1.369 1_545 S
C1607 C1616 1.429 . S
C1608 C1606 1.419 . S
C1608 C1609 1.363 . S
C1608 H1611 0.929 . S
C1609 C1608 1.363 . S
C1609 C1615 1.428 1_565 S
H1610 C1606 0.930 . S
H1611 C1608 0.929 . S
S1612 N1613 1.613 . S
S1612 N1614 1.610 . S
N1613 S1612 1.613 . S
N1613 C1616 1.350 . S
N1614 S1612 1.610 . S
N1614 C1615 1.351 . S
C1615 C1609 1.428 1_545 S
C1615 N1614 1.351 . S
C1615 C1616 1.434 . S
C1616 C1607 1.429 . S
C1616 N1613 1.350 . S
C1616 C1615 1.434 . S
C1617 C1618 1.369 . S
C1617 C1619 1.419 . S
C1617 H1621 0.930 . S
C1618 C1617 1.369 . S
C1618 C1627 1.429 1_455 S
C1619 C1617 1.419 . S
C1619 C1620 1.363 1_455 S
C1619 H1622 0.929 . S
C1620 C1619 1.363 1_655 S
C1620 C1626 1.428 . S
H1621 C1617 0.930 . S
H1622 C1619 0.929 . S
S1623 N1624 1.613 . S
S1623 N1625 1.610 . S
N1624 S1623 1.613 . S
N1624 C1627 1.350 . S
N1625 S1623 1.610 . S
N1625 C1626 1.351 . S
C1626 C1620 1.428 . S
C1626 N1625 1.351 . S
C1626 C1627 1.434 . S
C1627 C1618 1.429 1_655 S
C1627 N1624 1.350 . S
C1627 C1626 1.434 . S
C1628 C1629 1.369 . S
C1628 C1630 1.419 . S
C1628 H1632 0.930 . S
C1629 C1628 1.369 . S
C1629 C1638 1.429 . S
C1630 C1628 1.419 . S
C1630 C1631 1.363 . S
C1630 H1633 0.929 . S
C1631 C1630 1.363 . S
C1631 C1637 1.428 . S
H1632 C1628 0.930 . S
H1633 C1630 0.929 . S
S1634 N1635 1.613 . S
S1634 N1636 1.610 . S
N1635 S1634 1.613 . S
N1635 C1638 1.350 . S
N1636 S1634 1.610 . S
N1636 C1637 1.351 . S
C1637 C1631 1.428 . S
C1637 N1636 1.351 . S
C1637 C1638 1.434 . S
C1638 C1629 1.429 . S
C1638 N1635 1.350 . S
C1638 C1637 1.434 . S
C1639 C1640 1.369 1_565 S
C1639 C1641 1.419 . S
C1639 H1643 0.930 . S
C1640 C1639 1.369 1_545 S
C1640 C1649 1.429 . S
C1641 C1639 1.419 . S
C1641 C1642 1.363 . S
C1641 H1644 0.929 . S
C1642 C1641 1.363 . S
C1642 C1648 1.428 1_565 S
H1643 C1639 0.930 . S
H1644 C1641 0.929 . S
S1645 N1646 1.613 . S
S1645 N1647 1.610 . S
N1646 S1645 1.613 . S
N1646 C1649 1.350 . S
N1647 S1645 1.610 . S
N1647 C1648 1.351 . S
C1648 C1642 1.428 1_545 S
C1648 N1647 1.351 . S
C1648 C1649 1.434 . S
C1649 C1640 1.429 . S
C1649 N1646 1.350 . S
C1649 C1648 1.434 . S
C1650 C1651 1.369 . S
C1650 C1652 1.419 . S
C1650 H1654 0.930 . S
C1651 C1650 1.369 . S
C1651 C1660 1.429 . S
C1652 C1650 1.419 . S
C1652 C1653 1.363 . S
C1652 H1655 0.929 . S
C1653 C1652 1.363 . S
C1653 C1659 1.428 . S
H1654 C1650 0.930 . S
H1655 C1652 0.929 . S
S1656 N1657 1.613 . S
S1656 N1658 1.610 . S
N1657 S1656 1.613 . S
N1657 C1660 1.350 . S
N1658 S1656 1.610 . S
N1658 C1659 1.351 . S
C1659 C1653 1.428 . S
C1659 N1658 1.351 . S
C1659 C1660 1.434 . S
C1660 C1651 1.429 . S
C1660 N1657 1.350 . S
C1660 C1659 1.434 . S
C1661 C1662 1.369 . S
C1661 C1663 1.419 . S
C1661 H1665 0.930 . S
C1662 C1661 1.369 . S
C1662 C1671 1.429 . S
C1663 C1661 1.419 . S
C1663 C1664 1.363 . S
C1663 H1666 0.929 . S
C1664 C1663 1.363 . S
C1664 C1670 1.428 . S
H1665 C1661 0.930 . S
H1666 C1663 0.929 . S
S1667 N1668 1.613 . S
S1667 N1669 1.610 . S
N1668 S1667 1.613 . S
N1668 C1671 1.350 . S
N1669 S1667 1.610 . S
N1669 C1670 1.351 . S
C1670 C1664 1.428 . S
C1670 N1669 1.351 . S
C1670 C1671 1.434 . S
C1671 C1662 1.429 . S
C1671 N1668 1.350 . S
C1671 C1670 1.434 . S
C1672 C1673 1.369 . S
C1672 C1674 1.419 . S
C1672 H1676 0.930 . S
C1673 C1672 1.369 . S
C1673 C1682 1.429 . S
C1674 C1672 1.419 . S
C1674 C1675 1.363 . S
C1674 H1677 0.929 . S
C1675 C1674 1.363 . S
C1675 C1681 1.428 . S
H1676 C1672 0.930 . S
H1677 C1674 0.929 . S
S1678 N1679 1.613 . S
S1678 N1680 1.610 . S
N1679 S1678 1.613 . S
N1679 C1682 1.350 . S
N1680 S1678 1.610 . S
N1680 C1681 1.351 . S
C1681 C1675 1.428 . S
C1681 N1680 1.351 . S
C1681 C1682 1.434 . S
C1682 C1673 1.429 . S
C1682 N1679 1.350 . S
C1682 C1681 1.434 . S
C1683 C1684 1.369 . S
C1683 C1685 1.419 . S
C1683 H1687 0.930 . S
C1684 C1683 1.369 . S
C1684 C1693 1.429 . S
C1685 C1683 1.419 . S
C1685 C1686 1.363 . S
C1685 H1688 0.929 . S
C1686 C1685 1.363 . S
C1686 C1692 1.428 . S
H1687 C1683 0.930 . S
H1688 C1685 0.929 . S
S1689 N1690 1.613 . S
S1689 N1691 1.610 . S
N1690 S1689 1.613 . S
N1690 C1693 1.350 . S
N1691 S1689 1.610 . S
N1691 C1692 1.351 . S
C1692 C1686 1.428 . S
C1692 N1691 1.351 . S
C1692 C1693 1.434 . S
C1693 C1684 1.429 . S
C1693 N1690 1.350 . S
C1693 C1692 1.434 . S
C1694 C1695 1.369 . S
C1694 C1696 1.419 . S
C1694 H1698 0.930 . S
C1695 C1694 1.369 . S
C1695 C1704 1.429 . S
C1696 C1694 1.419 . S
C1696 C1697 1.363 . S
C1696 H1699 0.929 . S
C1697 C1696 1.363 . S
C1697 C1703 1.428 . S
H1698 C1694 0.930 . S
H1699 C1696 0.929 . S
S1700 N1701 1.613 . S
S1700 N1702 1.610 . S
N1701 S1700 1.613 . S
N1701 C1704 1.350 . S
N1702 S1700 1.610 . S
N1702 C1703 1.351 . S
C1703 C1697 1.428 . S
C1703 N1702 1.351 . S
C1703 C1704 1.434 . S
C1704 C1695 1.429 . S
C1704 N1701 1.350 . S
C1704 C1703 1.434 . S
C1705 C1706 1.369 . S
C1705 C1707 1.419 . S
C1705 H1709 0.930 . S
C1706 C1705 1.369 . S
C1706 C1715 1.429 . S
C1707 C1705 1.419 . S
C1707 C1708 1.363 . S
C1707 H1710 0.929 . S
C1708 C1707 1.363 . S
C1708 C1714 1.428 . S
H1709 C1705 0.930 . S
H1710 C1707 0.929 . S
S1711 N1712 1.613 . S
S1711 N1713 1.610 . S
N1712 S1711 1.613 . S
N1712 C1715 1.350 . S
N1713 S1711 1.610 . S
N1713 C1714 1.351 . S
C1714 C1708 1.428 . S
C1714 N1713 1.351 . S
C1714 C1715 1.434 . S
C1715 C1706 1.429 . S
C1715 N1712 1.350 . S
C1715 C1714 1.434 . S
C1716 C1717 1.369 . S
C1716 C1718 1.419 . S
C1716 H1720 0.930 . S
C1717 C1716 1.369 . S
C1717 C1726 1.429 . S
C1718 C1716 1.419 . S
C1718 C1719 1.363 . S
C1718 H1721 0.929 . S
C1719 C1718 1.363 . S
C1719 C1725 1.428 . S
H1720 C1716 0.930 . S
H1721 C1718 0.929 . S
S1722 N1723 1.613 . S
S1722 N1724 1.610 . S
N1723 S1722 1.613 . S
N1723 C1726 1.350 . S
N1724 S1722 1.610 . S
N1724 C1725 1.351 . S
C1725 C1719 1.428 . S
C1725 N1724 1.351 . S
C1725 C1726 1.434 . S
C1726 C1717 1.429 . S
C1726 N1723 1.350 . S
C1726 C1725 1.434 . S
C1727 C1728 1.369 . S
C1727 C1729 1.419 . S
C1727 H1731 0.930 . S
C1728 C1727 1.369 . S
C1728 C1737 1.429 . S
C1729 C1727 1.419 . S
C1729 C1730 1.363 . S
C1729 H1732 0.929 . S
C1730 C1729 1.363 . S
C1730 C1736 1.428 . S
H1731 C1727 0.930 . S
H1732 C1729 0.929 . S
S1733 N1734 1.613 . S
S1733 N1735 1.610 . S
N1734 S1733 1.613 . S
N1734 C1737 1.350 . S
N1735 S1733 1.610 . S
N1735 C1736 1.351 . S
C1736 C1730 1.428 . S
C1736 N1735 1.351 . S
C1736 C1737 1.434 . S
C1737 C1728 1.429 . S
C1737 N1734 1.350 . S
C1737 C1736 1.434 . S
C1738 C1739 1.369 . S
C1738 C1740 1.419 . S
C1738 H1742 0.930 . S
C1739 C1738 1.369 . S
C1739 C1748 1.429 . S
C1740 C1738 1.419 . S
C1740 C1741 1.363 . S
C1740 H1743 0.929 . S
C1741 C1740 1.363 . S
C1741 C1747 1.428 . S
H1742 C1738 0.930 . S
H1743 C1740 0.929 . S
S1744 N1745 1.613 . S
S1744 N1746 1.610 . S
N1745 S1744 1.613 . S
N1745 C1748 1.350 . S
N1746 S1744 1.610 . S
N1746 C1747 1.351 . S
C1747 C1741 1.428 . S
C1747 N1746 1.351 . S
C1747 C1748 1.434 . S
C1748 C1739 1.429 . S
C1748 N1745 1.350 . S
C1748 C1747 1.434 . S
C1749 C1750 1.369 . S
C1749 C1751 1.419 . S
C1749 H1753 0.930 . S
C1750 C1749 1.369 . S
C1750 C1759 1.429 . S
C1751 C1749 1.419 . S
C1751 C1752 1.363 . S
C1751 H1754 0.929 . S
C1752 C1751 1.363 . S
C1752 C1758 1.428 . S
H1753 C1749 0.930 . S
H1754 C1751 0.929 . S
S1755 N1756 1.613 . S
S1755 N1757 1.610 . S
N1756 S1755 1.613 . S
N1756 C1759 1.350 . S
N1757 S1755 1.610 . S
N1757 C1758 1.351 . S
C1758 C1752 1.428 . S
C1758 N1757 1.351 . S
C1758 C1759 1.434 . S
C1759 C1750 1.429 . S
C1759 N1756 1.350 . S
C1759 C1758 1.434 . S
C1760 C1761 1.369 . S
C1760 C1762 1.419 . S
C1760 H1764 0.930 . S
C1761 C1760 1.369 . S
C1761 C1770 1.429 . S
C1762 C1760 1.419 . S
C1762 C1763 1.363 . S
C1762 H1765 0.929 . S
C1763 C1762 1.363 . S
C1763 C1769 1.428 . S
H1764 C1760 0.930 . S
H1765 C1762 0.929 . S
S1766 N1767 1.613 . S
S1766 N1768 1.610 . S
N1767 S1766 1.613 . S
N1767 C1770 1.350 . S
N1768 S1766 1.610 . S
N1768 C1769 1.351 . S
C1769 C1763 1.428 . S
C1769 N1768 1.351 . S
C1769 C1770 1.434 . S
C1770 C1761 1.429 . S
C1770 N1767 1.350 . S
C1770 C1769 1.434 . S
C1771 C1772 1.369 . S
C1771 C1773 1.419 . S
C1771 H1775 0.930 . S
C1772 C1771 1.369 . S
C1772 C1781 1.429 . S
C1773 C1771 1.419 . S
C1773 C1774 1.363 . S
C1773 H1776 0.929 . S
C1774 C1773 1.363 . S
C1774 C1780 1.428 . S
H1775 C1771 0.930 . S
H1776 C1773 0.929 . S
S1777 N1778 1.613 . S
S1777 N1779 1.610 . S
N1778 S1777 1.613 . S
N1778 C1781 1.350 . S
N1779 S1777 1.610 . S
N1779 C1780 1.351 . S
C1780 C1774 1.428 . S
C1780 N1779 1.351 . S
C1780 C1781 1.434 . S
C1781 C1772 1.429 . S
C1781 N1778 1.350 . S
C1781 C1780 1.434 . S
C1782 C1783 1.369 . S
C1782 C1784 1.419 . S
C1782 H1786 0.930 . S
C1783 C1782 1.369 . S
C1783 C1792 1.429 . S
C1784 C1782 1.419 . S
C1784 C1785 1.363 . S
C1784 H1787 0.929 . S
C1785 C1784 1.363 . S
C1785 C1791 1.428 . S
H1786 C1782 0.930 . S
H1787 C1784 0.929 . S
S1788 N1789 1.613 1_655 S
S1788 N1790 1.610 . S
N1789 S1788 1.613 1_455 S
N1789 C1792 1.350 . S
N1790 S1788 1.610 . S
N1790 C1791 1.351 1_655 S
C1791 C1785 1.428 . S
C1791 N1790 1.351 1_455 S
C1791 C1792 1.434 . S
C1792 C1783 1.429 . S
C1792 N1789 1.350 . S
C1792 C1791 1.434 . S
C1793 C1794 1.369 . S
C1793 C1795 1.419 . S
C1793 H1797 0.930 . S
C1794 C1793 1.369 . S
C1794 C1803 1.429 . S
C1795 C1793 1.419 . S
C1795 C1796 1.363 . S
C1795 H1798 0.929 . S
C1796 C1795 1.363 . S
C1796 C1802 1.428 . S
H1797 C1793 0.930 . S
H1798 C1795 0.929 . S
S1799 N1800 1.613 . S
S1799 N1801 1.610 . S
N1800 S1799 1.613 . S
N1800 C1803 1.350 . S
N1801 S1799 1.610 . S
N1801 C1802 1.351 . S
C1802 C1796 1.428 . S
C1802 N1801 1.351 . S
C1802 C1803 1.434 . S
C1803 C1794 1.429 . S
C1803 N1800 1.350 . S
C1803 C1802 1.434 . S
C1804 C1805 1.369 . S
C1804 C1806 1.419 . S
C1804 H1808 0.930 . S
C1805 C1804 1.369 . S
C1805 C1814 1.429 . S
C1806 C1804 1.419 . S
C1806 C1807 1.363 . S
C1806 H1809 0.929 . S
C1807 C1806 1.363 . S
C1807 C1813 1.428 . S
H1808 C1804 0.930 . S
H1809 C1806 0.929 . S
S1810 N1811 1.613 . S
S1810 N1812 1.610 1_545 S
N1811 S1810 1.613 . S
N1811 C1814 1.350 1_545 S
N1812 S1810 1.610 1_565 S
N1812 C1813 1.351 . S
C1813 C1807 1.428 . S
C1813 N1812 1.351 . S
C1813 C1814 1.434 . S
C1814 C1805 1.429 . S
C1814 N1811 1.350 1_565 S
C1814 C1813 1.434 . S
C1815 C1816 1.369 . S
C1815 C1817 1.419 . S
C1815 H1819 0.930 . S
C1816 C1815 1.369 . S
C1816 C1825 1.429 . S
C1817 C1815 1.419 . S
C1817 C1818 1.363 . S
C1817 H1820 0.929 . S
C1818 C1817 1.363 . S
C1818 C1824 1.428 . S
H1819 C1815 0.930 . S
H1820 C1817 0.929 . S
S1821 N1822 1.613 1_565 S
S1821 N1823 1.610 1_565 S
N1822 S1821 1.613 1_545 S
N1822 C1825 1.350 . S
N1823 S1821 1.610 1_545 S
N1823 C1824 1.351 . S
C1824 C1818 1.428 . S
C1824 N1823 1.351 . S
C1824 C1825 1.434 . S
C1825 C1816 1.429 . S
C1825 N1822 1.350 . S
C1825 C1824 1.434 . S
C1826 C1827 1.369 . S
C1826 C1828 1.419 . S
C1826 H1830 0.930 . S
C1827 C1826 1.369 . S
C1827 C1836 1.429 . S
C1828 C1826 1.419 . S
C1828 C1829 1.363 . S
C1828 H1831 0.929 . S
C1829 C1828 1.363 . S
C1829 C1835 1.428 . S
H1830 C1826 0.930 . S
H1831 C1828 0.929 . S
S1832 N1833 1.613 . S
S1832 N1834 1.610 . S
N1833 S1832 1.613 . S
N1833 C1836 1.350 . S
N1834 S1832 1.610 . S
N1834 C1835 1.351 . S
C1835 C1829 1.428 . S
C1835 N1834 1.351 . S
C1835 C1836 1.434 . S
C1836 C1827 1.429 . S
C1836 N1833 1.350 . S
C1836 C1835 1.434 . S
C1837 C1838 1.369 . S
C1837 C1839 1.419 . S
C1837 H1841 0.930 . S
C1838 C1837 1.369 . S
C1838 C1847 1.429 . S
C1839 C1837 1.419 . S
C1839 C1840 1.363 . S
C1839 H1842 0.929 . S
C1840 C1839 1.363 . S
C1840 C1846 1.428 . S
H1841 C1837 0.930 . S
H1842 C1839 0.929 . S
S1843 N1844 1.613 . S
S1843 N1845 1.610 . S
N1844 S1843 1.613 . S
N1844 C1847 1.350 . S
N1845 S1843 1.610 . S
N1845 C1846 1.351 . S
C1846 C1840 1.428 . S
C1846 N1845 1.351 . S
C1846 C1847 1.434 . S
C1847 C1838 1.429 . S
C1847 N1844 1.350 . S
C1847 C1846 1.434 . S
C1848 C1849 1.369 . S
C1848 C1850 1.419 . S
C1848 H1852 0.930 . S
C1849 C1848 1.369 . S
C1849 C1858 1.429 . S
C1850 C1848 1.419 . S
C1850 C1851 1.363 . S
C1850 H1853 0.929 1_655 S
C1851 C1850 1.363 . S
C1851 C1857 1.428 . S
H1852 C1848 0.930 . S
H1853 C1850 0.929 1_455 S
S1854 N1855 1.613 . S
S1854 N1856 1.610 . S
N1855 S1854 1.613 . S
N1855 C1858 1.350 . S
N1856 S1854 1.610 . S
N1856 C1857 1.351 . S
C1857 C1851 1.428 . S
C1857 N1856 1.351 . S
C1857 C1858 1.434 . S
C1858 C1849 1.429 . S
C1858 N1855 1.350 . S
C1858 C1857 1.434 . S
C1859 C1860 1.369 . S
C1859 C1861 1.419 . S
C1859 H1863 0.930 . S
C1860 C1859 1.369 . S
C1860 C1869 1.429 . S
C1861 C1859 1.419 . S
C1861 C1862 1.363 . S
C1861 H1864 0.929 . S
C1862 C1861 1.363 . S
C1862 C1868 1.428 . S
H1863 C1859 0.930 . S
H1864 C1861 0.929 . S
S1865 N1866 1.613 . S
S1865 N1867 1.610 . S
N1866 S1865 1.613 . S
N1866 C1869 1.350 . S
N1867 S1865 1.610 . S
N1867 C1868 1.351 . S
C1868 C1862 1.428 . S
C1868 N1867 1.351 . S
C1868 C1869 1.434 . S
C1869 C1860 1.429 . S
C1869 N1866 1.350 . S
C1869 C1868 1.434 . S
C1870 C1871 1.369 . S
C1870 C1872 1.419 . S
C1870 H1874 0.930 . S
C1871 C1870 1.369 . S
C1871 C1880 1.429 . S
C1872 C1870 1.419 . S
C1872 C1873 1.363 . S
C1872 H1875 0.929 . S
C1873 C1872 1.363 . S
C1873 C1879 1.428 . S
H1874 C1870 0.930 . S
H1875 C1872 0.929 . S
S1876 N1877 1.613 1_565 S
S1876 N1878 1.610 . S
N1877 S1876 1.613 1_545 S
N1877 C1880 1.350 . S
N1878 S1876 1.610 . S
N1878 C1879 1.351 1_565 S
C1879 C1873 1.428 . S
C1879 N1878 1.351 1_545 S
C1879 C1880 1.434 . S
C1880 C1871 1.429 . S
C1880 N1877 1.350 . S
C1880 C1879 1.434 . S
C1881 C1882 1.369 . S
C1881 C1883 1.419 . S
C1881 H1885 0.930 . S
C1882 C1881 1.369 . S
C1882 C1891 1.429 . S
C1883 C1881 1.419 . S
C1883 C1884 1.363 . S
C1883 H1886 0.929 . S
C1884 C1883 1.363 . S
C1884 C1890 1.428 . S
H1885 C1881 0.930 . S
H1886 C1883 0.929 . S
S1887 N1888 1.613 . S
S1887 N1889 1.610 . S
N1888 S1887 1.613 . S
N1888 C1891 1.350 . S
N1889 S1887 1.610 . S
N1889 C1890 1.351 . S
C1890 C1884 1.428 . S
C1890 N1889 1.351 . S
C1890 C1891 1.434 . S
C1891 C1882 1.429 . S
C1891 N1888 1.350 . S
C1891 C1890 1.434 . S
C1892 C1893 1.369 . S
C1892 C1894 1.419 . S
C1892 H1896 0.951 . S
C1893 C1892 1.369 . S
C1893 C1902 1.429 . S
C1894 C1892 1.419 . S
C1894 C1895 1.363 . S
C1894 H1897 0.929 . S
C1895 C1894 1.363 . S
C1895 C1901 1.428 . S
H1896 C1892 0.951 . S
H1897 C1894 0.929 . S
S1898 N1899 1.613 . S
S1898 N1900 1.610 . S
N1899 S1898 1.613 . S
N1899 C1902 1.350 . S
N1900 S1898 1.610 . S
N1900 C1901 1.351 . S
C1901 C1895 1.428 . S
C1901 N1900 1.351 . S
C1901 C1902 1.434 . S
C1902 C1893 1.429 . S
C1902 N1899 1.350 . S
C1902 C1901 1.434 . S
C1903 C1904 1.369 . S
C1903 C1905 1.419 . S
C1903 H1907 0.930 . S
C1904 C1903 1.369 . S
C1904 C1913 1.429 . S
C1905 C1903 1.419 . S
C1905 C1906 1.363 . S
C1905 H1908 0.929 . S
C1906 C1905 1.363 . S
C1906 C1912 1.428 . S
H1907 C1903 0.930 . S
H1908 C1905 0.929 . S
S1909 N1910 1.613 . S
S1909 N1911 1.610 . S
N1910 S1909 1.613 . S
N1910 C1913 1.350 . S
N1911 S1909 1.610 . S
N1911 C1912 1.351 . S
C1912 C1906 1.428 . S
C1912 N1911 1.351 . S
C1912 C1913 1.434 . S
C1913 C1904 1.429 . S
C1913 N1910 1.350 . S
C1913 C1912 1.434 . S
C1914 C1915 1.369 . S
C1914 C1916 1.419 1_455 S
C1914 H1918 0.930 . S
C1915 C1914 1.369 . S
C1915 C1924 1.429 . S
C1916 C1914 1.419 1_655 S
C1916 C1917 1.363 . S
C1916 H1919 0.929 . S
C1917 C1916 1.363 . S
C1917 C1923 1.428 . S
H1918 C1914 0.930 . S
H1919 C1916 0.929 . S
S1920 N1921 1.613 1_655 S
S1920 N1922 1.610 . S
N1921 S1920 1.613 1_455 S
N1921 C1924 1.350 . S
N1922 S1920 1.610 . S
N1922 C1923 1.351 . S
C1923 C1917 1.428 . S
C1923 N1922 1.351 . S
C1923 C1924 1.434 1_655 S
C1924 C1915 1.429 . S
C1924 N1921 1.350 . S
C1924 C1923 1.434 1_455 S
C1925 C1926 1.369 . S
C1925 C1927 1.419 . S
C1925 H1929 0.930 . S
C1926 C1925 1.369 . S
C1926 C1935 1.429 . S
C1927 C1925 1.419 . S
C1927 C1928 1.363 . S
C1927 H1930 0.929 . S
C1928 C1927 1.363 . S
C1928 C1934 1.428 . S
H1929 C1925 0.930 . S
H1930 C1927 0.929 . S
S1931 N1932 1.613 . S
S1931 N1933 1.610 . S
N1932 S1931 1.613 . S
N1932 C1935 1.350 . S
N1933 S1931 1.610 . S
N1933 C1934 1.351 . S
C1934 C1928 1.428 . S
C1934 N1933 1.351 . S
C1934 C1935 1.434 . S
C1935 C1926 1.429 . S
C1935 N1932 1.350 . S
C1935 C1934 1.434 . S
C1936 C1937 1.369 . S
C1936 C1938 1.419 1_545 S
C1936 H1940 0.930 . S
C1937 C1936 1.369 . S
C1937 C1946 1.429 . S
C1938 C1936 1.419 1_565 S
C1938 C1939 1.363 . S
C1938 H1941 0.929 . S
C1939 C1938 1.363 . S
C1939 C1945 1.428 . S
H1940 C1936 0.930 . S
H1941 C1938 0.929 . S
S1942 N1943 1.613 1_565 S
S1942 N1944 1.610 . S
N1943 S1942 1.613 1_545 S
N1943 C1946 1.350 . S
N1944 S1942 1.610 . S
N1944 C1945 1.351 . S
C1945 C1939 1.428 . S
C1945 N1944 1.351 . S
C1945 C1946 1.434 1_565 S
C1946 C1937 1.429 . S
C1946 N1943 1.350 . S
C1946 C1945 1.434 1_545 S
C1947 C1948 1.369 . S
C1947 C1949 1.419 1_545 S
C1947 H1951 0.930 . S
C1948 C1947 1.369 . S
C1948 C1957 1.429 . S
C1949 C1947 1.419 1_565 S
C1949 C1950 1.363 . S
C1949 H1952 0.929 . S
C1950 C1949 1.363 . S
C1950 C1956 1.428 . S
H1951 C1947 0.930 . S
H1952 C1949 0.929 . S
S1953 N1954 1.613 . S
S1953 N1955 1.610 . S
N1954 S1953 1.613 . S
N1954 C1957 1.350 1_565 S
N1955 S1953 1.610 . S
N1955 C1956 1.351 . S
C1956 C1950 1.428 . S
C1956 N1955 1.351 . S
C1956 C1957 1.434 1_565 S
C1957 C1948 1.429 . S
C1957 N1954 1.350 1_545 S
C1957 C1956 1.434 1_545 S
C1958 C1959 1.369 . S
C1958 C1960 1.419 1_455 S
C1958 H1962 0.930 . S
C1959 C1958 1.369 . S
C1959 C1968 1.429 . S
C1960 C1958 1.419 1_655 S
C1960 C1961 1.363 . S
C1960 H1963 0.929 . S
C1961 C1960 1.363 . S
C1961 C1967 1.428 . S
H1962 C1958 0.930 . S
H1963 C1960 0.929 . S
S1964 N1965 1.613 1_655 S
S1964 N1966 1.610 . S
N1965 S1964 1.613 1_455 S
N1965 C1968 1.350 . S
N1966 S1964 1.610 . S
N1966 C1967 1.351 . S
C1967 C1961 1.428 . S
C1967 N1966 1.351 . S
C1967 C1968 1.434 1_655 S
C1968 C1959 1.429 . S
C1968 N1965 1.350 . S
C1968 C1967 1.434 1_455 S
C1969 C1970 1.369 . S
C1969 C1971 1.419 . S
C1969 H1973 0.930 . S
C1970 C1969 1.369 . S
C1970 C1979 1.429 . S
C1971 C1969 1.419 . S
C1971 C1972 1.363 . S
C1971 H1974 0.929 . S
C1972 C1971 1.363 . S
C1972 C1978 1.428 . S
H1973 C1969 0.930 . S
H1974 C1971 0.929 . S
S1975 N1976 1.613 . S
S1975 N1977 1.610 . S
N1976 S1975 1.613 . S
N1976 C1979 1.350 . S
N1977 S1975 1.610 . S
N1977 C1978 1.351 . S
C1978 C1972 1.428 . S
C1978 N1977 1.351 . S
C1978 C1979 1.434 . S
C1979 C1970 1.429 . S
C1979 N1976 1.350 . S
C1979 C1978 1.434 . S
C793 C8 1.165 . S
C795 C172 1.126 . S
C804 C30 1.170 . S
C806 C184 1.133 . S
C815 C62 1.167 . S
C817 C150 1.130 . S
C826 C74 1.171 . S
C828 C252 1.134 . S
C837 C208 1.134 . S
C839 C96 1.170 . S
C848 C230 1.137 . S
C850 C120 1.171 . S
C859 C40 1.136 . S
C861 C140 1.170 . S
C870 C162 1.165 . S
C872 C54 1.127 . S
C881 C186 1.168 . S
C883 C18 1.131 . S
C892 C118 1.128 . S
C894 C216 1.167 . S
C903 C238 1.170 . S
C905 C84 1.133 . S
C914 C260 1.165 . S
C916 C106 1.126 . S
C925 C274 1.165 . S
C927 C436 1.127 . S
C936 C294 1.165 . S
C938 C458 1.127 . S
C947 C414 1.131 . S
C949 C316 1.168 . S
C958 C514 1.135 . S
C960 C338 1.170 . S
C969 C470 1.138 . S
C971 C362 1.171 . S
C980 C382 1.172 . S
C982 C492 1.136 . S
C991 C304 1.135 . S
C993 C404 1.170 . S
C1002 C326 1.131 . S
C1004 C426 1.168 . S
C1013 C272 1.138 . S
C1015 C448 1.171 . S
C1024 C392 1.137 . S
C1026 C472 1.171 . S
C1035 C494 1.167 . S
C1037 C348 1.129 . S
C1046 C360 1.126 . S
C1048 C516 1.166 . S
C1057 C536 1.172 . S
C1059 C690 1.136 . S
C1068 C722 1.134 . S
C1070 C560 1.169 . S
C1079 C580 1.166 . S
C1081 C668 1.129 . S
C1090 C612 1.171 . S
C1092 C780 1.134 . S
C1101 C734 1.132 . S
C1103 C626 1.169 . S
C1112 C758 1.127 . S
C1114 C648 1.167 . S
C1123 C670 1.166 . S
C1125 C558 1.128 . S
C1134 C692 1.172 . S
C1136 C590 1.136 . S
C1145 C712 1.172 . S
C1147 C546 1.137 . S
C1156 C646 1.130 . S
C1158 C736 1.168 . S
C1167 C604 1.137 . S
C1169 C766 1.171 . S
C1178 C624 1.130 . S
C1180 C788 1.168 . S
C1189 C21 1.319 . S
C1191 C59 1.293 . S
C1200 C43 1.316 . S
C1202 C7 1.294 . S
C1211 C29 1.301 . S
C1213 C51 1.324 . S
C1222 C95 1.300 . S
C1224 C87 1.324 . S
C1233 C109 1.325 . S
C1235 C131 1.298 . S
C1244 C73 1.303 . S
C1246 C125 1.323 . S
C1255 C153 1.318 . S
C1257 C197 1.300 . S
C1266 C175 1.316 . S
C1268 C139 1.295 . S
C1277 C191 1.319 . S
C1279 C161 1.293 . S
C1288 C235 1.293 . S
C1290 C205 1.321 . S
C1299 C227 1.317 . S
C1301 C257 1.293 . S
C1310 C213 1.293 . S
C1312 C249 1.321 . S
C1321 C315 1.303 . S
C1323 C279 1.320 . S
C1332 C307 1.317 . S
C1334 C285 1.294 . S
C1343 C329 1.321 . S
C1345 C293 1.294 . S
C1354 C351 1.323 . S
C1356 C373 1.302 . S
C1365 C381 1.294 . S
C1367 C367 1.317 . S
C1376 C395 1.325 . S
C1378 C337 1.300 . S
C1387 C417 1.325 . S
C1389 C447 1.301 . S
C1398 C439 1.324 . S
C1400 C403 1.302 . S
C1409 C425 1.300 . S
C1411 C461 1.318 . S
C1420 C505 1.302 . S
C1422 C477 1.324 . S
C1431 C499 1.324 . S
C1433 C527 1.301 . S
C1442 C521 1.317 . S
C1444 C483 1.299 . S
C1453 C579 1.292 . S
C1455 C549 1.321 . S
C1464 C565 1.318 . S
C1466 C535 1.293 . S
C1475 C593 1.322 . S
C1477 C571 1.302 . S
C1486 C637 1.300 . S
C1488 C601 1.318 . S
C1497 C631 1.325 . S
C1499 C659 1.299 . S
C1508 C653 1.325 . S
C1510 C609 1.300 . S
C1519 C675 1.316 . S
C1521 C711 1.295 . S
C1530 C697 1.318 . S
C1532 C681 1.293 . S
C1541 C703 1.299 . S
C1543 C725 1.324 . S
C1552 C763 1.294 . S
C1554 C741 1.317 . S
C1563 C785 1.299 . S
C1565 C755 1.318 . S
C1574 C747 1.303 . S
C1576 C777 1.321 . S
C1585 C103 1.593 . S
C1587 C15 1.589 . S
C1596 C117 1.590 . S
C1598 C37 1.592 . S
C1607 C81 1.593 . S
C1609 C65 1.589 . S
C1618 C241 1.591 . S
C1620 C147 1.591 . S
C1629 C263 1.593 . S
C1631 C169 1.590 . S
C1640 C183 1.593 . S
C1642 C219 1.589 . S
C1651 C359 1.589 . S
C1653 C271 1.592 . S
C1662 C389 1.592 . S
C1664 C301 1.590 . S
C1673 C323 1.589 . S
C1675 C345 1.593 . S
C1684 C491 1.593 . S
C1686 C411 1.589 . S
C1695 C433 1.589 . S
C1697 C513 1.592 . S
C1706 C469 1.589 . S
C1708 C455 1.592 . S
C1717 C543 1.590 . S
C1719 C623 1.592 . S
C1728 C645 1.589 . S
C1730 C557 1.593 . S
C1739 C615 1.588 . S
C1741 C587 1.593 . S
C1750 C769 1.593 . S
C1752 C667 1.589 . S
C1761 C791 1.592 . S
C1763 C689 1.590 . S
C1772 C733 1.593 . S
C1774 C719 1.589 . S
C1783 C656 1.486 . S
C1785 C10 1.489 . S
C1794 C32 1.482 . S
C1796 C602 1.488 . S
C1805 C52 1.485 . S
C1807 C634 1.489 . S
C1816 C76 1.489 . S
C1818 C296 1.488 . S
C1827 C98 1.482 . S
C1829 C318 1.488 . S
C1838 C128 1.484 . S
C1840 C282 1.489 . S
C1849 C524 1.481 . S
C1851 C142 1.485 . S
C1860 C480 1.486 . S
C1862 C164 1.482 . S
C1871 C502 1.490 . S
C1873 C194 1.486 . S
C1882 C206 1.489 . S
C1884 C700 1.484 . S
C1893 C228 1.483 . S
C1895 C714 1.483 . S
C1904 C678 1.482 . S
C1906 C250 1.484 . S
C1915 C568 1.484 . S
C1917 C340 1.483 . S
C1926 C582 1.490 . S
C1928 C370 1.487 . S
C1937 C384 1.487 . S
C1939 C538 1.483 . S
C1948 C406 1.488 . S
C1950 C778 1.483 . S
C1959 C744 1.483 . S
C1961 C428 1.483 . S
C1970 C756 1.484 . S
C1972 C450 1.489 . S
