# Generated by pormake.
# Topology bcu-g, (3)-cn, num edge types: 1
# Building blocks:
#     Node 0, Type 0, BuildingBlock: WUSLED_clean_sbu_0, # of connection points: 3
#     Node 1, Type 0, BuildingBlock: WUSLED_clean_sbu_0, # of connection points: 3
#     Node 2, Type 0, BuildingBlock: WUSLED_clean_sbu_0, # of connection points: 3
#     Node 3, Type 0, BuildingBlock: WUSLED_clean_sbu_0, # of connection points: 3
#     Node 4, Type 0, BuildingBlock: WUSLED_clean_sbu_0, # of connection points: 3
#     Node 5, Type 0, BuildingBlock: WUSLED_clean_sbu_0, # of connection points: 3
#     Node 6, Type 0, BuildingBlock: WUSLED_clean_sbu_0, # of connection points: 3
#     Node 7, Type 0, BuildingBlock: WUSLED_clean_sbu_0, # of connection points: 3
#     Node 8, Type 0, BuildingBlock: WUSLED_clean_sbu_0, # of connection points: 3
#     Node 9, Type 0, BuildingBlock: WUSLED_clean_sbu_0, # of connection points: 3
#     Node 10, Type 0, BuildingBlock: WUSLED_clean_sbu_0, # of connection points: 3
#     Node 11, Type 0, BuildingBlock: WUSLED_clean_sbu_0, # of connection points: 3
#     Node 12, Type 0, BuildingBlock: WUSLED_clean_sbu_0, # of connection points: 3
#     Node 13, Type 0, BuildingBlock: WUSLED_clean_sbu_0, # of connection points: 3
#     Node 14, Type 0, BuildingBlock: WUSLED_clean_sbu_0, # of connection points: 3
#     Node 15, Type 0, BuildingBlock: WUSLED_clean_sbu_0, # of connection points: 3
#     Edge 16, Type (0, 0), BuildingBlock: ZUJKAS_clean_linker_0, # of connection points: 2
#     Edge 17, Type (0, 0), BuildingBlock: ZUJKAS_clean_linker_0, # of connection points: 2
#     Edge 18, Type (0, 0), BuildingBlock: ZUJKAS_clean_linker_0, # of connection points: 2
#     Edge 19, Type (0, 0), BuildingBlock: ZUJKAS_clean_linker_0, # of connection points: 2
#     Edge 20, Type (0, 0), BuildingBlock: ZUJKAS_clean_linker_0, # of connection points: 2
#     Edge 21, Type (0, 0), BuildingBlock: ZUJKAS_clean_linker_0, # of connection points: 2
#     Edge 22, Type (0, 0), BuildingBlock: ZUJKAS_clean_linker_0, # of connection points: 2
#     Edge 23, Type (0, 0), BuildingBlock: ZUJKAS_clean_linker_0, # of connection points: 2
#     Edge 24, Type (0, 0), BuildingBlock: ZUJKAS_clean_linker_0, # of connection points: 2
#     Edge 25, Type (0, 0), BuildingBlock: ZUJKAS_clean_linker_0, # of connection points: 2
#     Edge 26, Type (0, 0), BuildingBlock: ZUJKAS_clean_linker_0, # of connection points: 2
#     Edge 27, Type (0, 0), BuildingBlock: ZUJKAS_clean_linker_0, # of connection points: 2
#     Edge 28, Type (0, 0), BuildingBlock: ZUJKAS_clean_linker_0, # of connection points: 2
#     Edge 29, Type (0, 0), BuildingBlock: ZUJKAS_clean_linker_0, # of connection points: 2
#     Edge 30, Type (0, 0), BuildingBlock: ZUJKAS_clean_linker_0, # of connection points: 2
#     Edge 31, Type (0, 0), BuildingBlock: ZUJKAS_clean_linker_0, # of connection points: 2
#     Edge 32, Type (0, 0), BuildingBlock: ZUJKAS_clean_linker_0, # of connection points: 2
#     Edge 33, Type (0, 0), BuildingBlock: ZUJKAS_clean_linker_0, # of connection points: 2
#     Edge 34, Type (0, 0), BuildingBlock: ZUJKAS_clean_linker_0, # of connection points: 2
#     Edge 35, Type (0, 0), BuildingBlock: ZUJKAS_clean_linker_0, # of connection points: 2
#     Edge 36, Type (0, 0), BuildingBlock: ZUJKAS_clean_linker_0, # of connection points: 2
#     Edge 37, Type (0, 0), BuildingBlock: ZUJKAS_clean_linker_0, # of connection points: 2
#     Edge 38, Type (0, 0), BuildingBlock: ZUJKAS_clean_linker_0, # of connection points: 2
#     Edge 39, Type (0, 0), BuildingBlock: ZUJKAS_clean_linker_0, # of connection points: 2
# Relax obj value: 0.205
# Max RMSD: 0.162
# Mean RMSD: 0.115
data_MOF--net-bcu-g--node1-WUSLED_clean_sbu_0--edge1-ZUJKAS_clean_linker_0
_symmetry_space_group_name_H-M    P1
_symmetry_Int_Tables_number       1
_symmetry_cell_setting            triclinic
loop_
_symmetry_equiv_pos_as_xyz
'x, y, z'
_cell_length_a     64.383574
_cell_length_b     64.360126
_cell_length_c     75.34425
_cell_angle_alpha  89.876928
_cell_angle_beta   90.399042
_cell_angle_gamma 90.35942
loop_
_atom_site_label
_atom_site_type_symbol
_atom_site_fract_x
_atom_site_fract_y
_atom_site_fract_z
_atom_type_partial_charge
C0 C 0.58839 0.19671 0.13715 0.0
C1 C 0.5783 0.17778 0.14083 0.0
C2 C 0.56453 0.17686 0.11062 0.0
C3 C 0.56639 0.16792 0.12763 0.0
C4 C 0.57373 0.19638 0.10746 0.0
C5 C 0.58557 0.20615 0.12059 0.0
U6 U 0.61365 0.20651 0.18316 0.0
O7 O 0.64721 0.20633 0.18846 0.0
O8 O 0.62934 0.23512 0.19258 0.0
C9 C 0.64767 0.22619 0.19248 0.0
C10 C 0.60374 0.2059 0.14936 0.0
C11 C 0.66401 0.23357 0.20459 0.0
C12 C 0.69603 0.25334 0.20748 0.0
C13 C 0.67844 0.24774 0.19773 0.0
C14 C 0.68446 0.23145 0.23172 0.0
C15 C 0.6995 0.24513 0.22456 0.0
C16 C 0.6669 0.22556 0.22173 0.0
C17 C 0.58566 0.17809 0.22299 0.0
C18 C 0.59699 0.15756 0.24825 0.0
C19 C 0.56027 0.16062 0.24146 0.0
C20 C 0.56495 0.17384 0.22735 0.0
C21 C 0.5763 0.15151 0.25145 0.0
C22 C 0.60167 0.17074 0.23402 0.0
C23 C 0.58973 0.18595 0.20507 0.0
O24 O 0.59713 0.22028 0.16027 0.0
O25 O 0.61677 0.19282 0.15675 0.0
O26 O 0.60525 0.17749 0.1965 0.0
O27 O 0.5873 0.20588 0.20184 0.0
H28 H 0.58031 0.17025 0.1536 0.0
H29 H 0.55951 0.15289 0.13046 0.0
H30 H 0.57224 0.20388 0.09464 0.0
H31 H 0.59322 0.22077 0.11756 0.0
H32 H 0.7073 0.26346 0.20121 0.0
H33 H 0.67655 0.25387 0.1844 0.0
H34 H 0.68636 0.22502 0.24492 0.0
H35 H 0.65591 0.21449 0.22719 0.0
H36 H 0.60965 0.15073 0.25573 0.0
H37 H 0.5442 0.15642 0.24379 0.0
H38 H 0.5524 0.17934 0.21894 0.0
H39 H 0.61778 0.17384 0.23083 0.0
C40 C 0.65525 0.54486 0.09379 0.0
C41 C 0.66376 0.52477 0.09395 0.0
C42 C 0.67305 0.52808 0.06265 0.0
C43 C 0.6726 0.51649 0.07855 0.0
C44 C 0.66404 0.54796 0.06254 0.0
C45 C 0.65523 0.5562 0.0779 0.0
U46 U 0.62865 0.54082 0.1389 0.0
O47 O 0.63557 0.55626 0.16433 0.0
O48 O 0.60482 0.56006 0.1518 0.0
C49 C 0.61696 0.56445 0.1654 0.0
C50 C 0.6469 0.55456 0.11006 0.0
C51 C 0.61484 0.58491 0.17408 0.0
C52 C 0.62724 0.61958 0.18194 0.0
C53 C 0.62887 0.60145 0.17162 0.0
C54 C 0.59758 0.60478 0.19705 0.0
C55 C 0.61171 0.62137 0.19503 0.0
C56 C 0.59907 0.58693 0.18666 0.0
C57 C 0.61428 0.48371 0.15216 0.0
C58 C 0.59301 0.46993 0.17609 0.0
C59 C 0.61401 0.44679 0.15842 0.0
C60 C 0.62101 0.46359 0.14843 0.0
C61 C 0.60008 0.44975 0.17242 0.0
C62 C 0.60017 0.48692 0.16604 0.0
C63 C 0.62228 0.50056 0.14089 0.0
O64 O 0.62661 0.55394 0.11185 0.0
O65 O 0.65697 0.55051 0.1249 0.0
O66 O 0.63958 0.5096 0.14619 0.0
O67 O 0.6087 0.5135 0.13404 0.0
H68 H 0.66377 0.51557 0.10601 0.0
H69 H 0.67905 0.50099 0.07909 0.0
H70 H 0.66427 0.55748 0.05068 0.0
H71 H 0.64871 0.57166 0.07745 0.0
H72 H 0.63825 0.63209 0.17976 0.0
H73 H 0.64124 0.60023 0.16202 0.0
H74 H 0.58571 0.60514 0.20714 0.0
H75 H 0.58823 0.57426 0.18893 0.0
H76 H 0.5823 0.47257 0.18687 0.0
H77 H 0.61946 0.43139 0.15512 0.0
H78 H 0.63176 0.46083 0.13769 0.0
H79 H 0.59479 0.50241 0.16909 0.0
C80 C 0.93492 0.16388 0.18983 0.0
C81 C 0.93532 0.1659 0.20842 0.0
C82 C 0.89909 0.15485 0.20967 0.0
C83 C 0.91748 0.16121 0.21833 0.0
C84 C 0.89911 0.15223 0.1912 0.0
C85 C 0.91686 0.15665 0.1814 0.0
U86 U 0.98503 0.19517 0.18026 0.0
O87 O 0.01028 0.18863 0.16139 0.0
O88 O 0.98939 0.21565 0.15702 0.0
C89 C 1.00469 0.20422 0.15112 0.0
C90 C 0.95203 0.17109 0.17851 0.0
C91 C 0.01743 0.21099 0.13611 0.0
C92 C 0.02134 0.2138 0.10419 0.0
C93 C 0.01077 0.20603 0.11891 0.0
C94 C 0.04591 0.2311 0.12376 0.0
C95 C 0.03897 0.22662 0.10636 0.0
C96 C 0.03513 0.22344 0.13852 0.0
C97 C 0.00788 0.2256 0.22128 0.0
C98 C 0.03111 0.25533 0.22331 0.0
C99 C 0.01355 0.24256 0.24955 0.0
C100 C 1.00445 0.22679 0.23953 0.0
C101 C 0.02655 0.25745 0.24152 0.0
C102 C 0.02166 0.23959 0.21319 0.0
C103 C 0.99466 0.21125 0.21117 0.0
O104 O 0.95179 0.19102 0.17486 0.0
O105 O 0.97074 0.16396 0.18191 0.0
O106 O 1.00296 0.19398 0.20531 0.0
O107 O 0.98136 0.21973 0.20006 0.0
H108 H 0.94911 0.17171 0.21514 0.0
H109 H 0.91772 0.16346 0.23258 0.0
H110 H 0.88513 0.1473 0.18426 0.0
H111 H 0.91624 0.15515 0.16708 0.0
H112 H 0.01517 0.21028 0.09113 0.0
H113 H 0.99698 0.19655 0.11683 0.0
H114 H 0.05957 0.24064 0.12602 0.0
H115 H 0.04039 0.22749 0.15176 0.0
H116 H 0.04134 0.26627 0.21673 0.0
H117 H 0.00925 0.24374 0.26337 0.0
H118 H 0.99369 0.21617 0.2459 0.0
H119 H 0.02446 0.23885 0.19904 0.0
C120 C 0.95615 0.88206 0.09385 0.0
C121 C 0.94358 0.89979 0.0953 0.0
C122 C 0.93713 0.89953 0.06328 0.0
C123 C 0.93415 0.90844 0.08015 0.0
C124 C 0.95066 0.88254 0.06188 0.0
C125 C 0.95997 0.87391 0.07697 0.0
U126 U 0.98247 0.87706 0.14023 0.0
O127 O 0.97319 0.85683 0.16267 0.0
O128 O 1.00391 0.85275 0.1498 0.0
C129 C 0.99091 0.84681 0.16224 0.0
C130 C 0.96391 0.87047 0.10955 0.0
C131 C 0.99484 0.82828 0.17325 0.0
C132 C 0.9946 0.79086 0.17806 0.0
C133 C 0.99144 0.80806 0.16687 0.0
C134 C 0.0049 0.81395 0.20191 0.0
C135 C 1.00128 0.7936 0.19578 0.0
C136 C 1.00168 0.83105 0.19077 0.0
C137 C 0.99925 0.93259 0.15935 0.0
C138 C 0.01774 0.94647 0.18501 0.0
C139 C 1.00204 0.9698 0.16356 0.0
C140 C 0.99506 0.95286 0.15376 0.0
C141 C 0.01362 0.96694 0.17924 0.0
C142 C 0.01059 0.92933 0.17509 0.0
C143 C 0.99129 0.91581 0.14796 0.0
O144 O 0.98417 0.86962 0.11169 0.0
O145 O 0.95385 0.87292 0.12451 0.0
O146 O 0.9736 0.90687 0.15219 0.0
O147 O 1.00455 0.90339 0.1402 0.0
H148 H 0.94046 0.90654 0.10817 0.0
H149 H 0.92386 0.92153 0.08177 0.0
H150 H 0.95381 0.8756 0.04911 0.0
H151 H 0.96969 0.86036 0.07549 0.0
H152 H 0.99191 0.77542 0.1728 0.0
H153 H 0.98617 0.80558 0.15335 0.0
H154 H 0.00976 0.81676 0.21549 0.0
H155 H 1.00433 0.84655 0.19592 0.0
H156 H 0.02662 0.94373 0.19704 0.0
H157 H 0.99802 0.98521 0.15893 0.0
H158 H 0.98622 0.95564 0.1417 0.0
H159 H 0.01393 0.91372 0.17963 0.0
C160 C 0.58639 0.20365 0.37512 0.0
C161 C 0.57563 0.22221 0.37182 0.0
C162 C 0.56267 0.22188 0.40216 0.0
C163 C 0.56378 0.23125 0.38527 0.0
C164 C 0.57262 0.20276 0.40495 0.0
C165 C 0.58438 0.19379 0.39157 0.0
U166 U 0.61183 0.1978 0.32903 0.0
O167 O 0.64547 0.19798 0.32445 0.0
O168 O 0.62688 0.16998 0.31784 0.0
C169 C 0.64543 0.17855 0.31912 0.0
C170 C 0.60157 0.19533 0.36259 0.0
C171 C 0.66228 0.17162 0.30761 0.0
C172 C 0.69445 0.15239 0.30567 0.0
C173 C 0.67661 0.15772 0.31491 0.0
C174 C 0.68339 0.17411 0.28111 0.0
C175 C 0.69829 0.16064 0.2887 0.0
C176 C 0.66557 0.17971 0.29057 0.0
C177 C 0.58454 0.23078 0.29123 0.0
C178 C 0.59617 0.24463 0.26301 0.0
C179 C 0.56344 0.2558 0.27538 0.0
C180 C 0.56635 0.24241 0.28968 0.0
C181 C 0.57863 0.25768 0.26214 0.0
C182 C 0.59923 0.23139 0.27759 0.0
C183 C 0.58861 0.22097 0.30842 0.0
O184 O 0.59463 0.1822 0.35057 0.0
O185 O 0.61505 0.20883 0.35638 0.0
O186 O 0.60451 0.22822 0.31759 0.0
O187 O 0.58574 0.2008 0.31001 0.0
H188 H 0.57706 0.23007 0.35915 0.0
H189 H 0.55632 0.24601 0.38273 0.0
H190 H 0.57174 0.19494 0.41767 0.0
H191 H 0.59257 0.17946 0.39431 0.0
H192 H 0.70559 0.14243 0.31226 0.0
H193 H 0.6744 0.15153 0.32817 0.0
H194 H 0.68558 0.18056 0.26797 0.0
H195 H 0.65465 0.19057 0.28478 0.0
H196 H 0.60798 0.24532 0.25286 0.0
H197 H 0.54993 0.26572 0.27549 0.0
H198 H 0.55494 0.24219 0.30019 0.0
H199 H 0.61338 0.22245 0.27862 0.0
C200 C 0.95741 0.53328 0.41961 0.0
C201 C 0.9427 0.51711 0.4181 0.0
C202 C 0.93865 0.51631 0.45028 0.0
C203 C 0.93341 0.50872 0.4333 0.0
C204 C 0.95404 0.53182 0.45172 0.0
C205 C 0.96328 0.54019 0.43656 0.0
U206 U 0.98482 0.53724 0.37407 0.0
O207 O 0.97602 0.55633 0.35083 0.0
O208 O 0.006 0.56219 0.36492 0.0
C209 C 0.99304 0.56762 0.35217 0.0
C210 C 0.96539 0.5446 0.40392 0.0
C211 C 0.99769 0.58479 0.33977 0.0
C212 C 0.00817 0.62069 0.33444 0.0
C213 C 0.00537 0.60388 0.34607 0.0
C214 C 0.99642 0.59926 0.30995 0.0
C215 C 1.0036 0.61867 0.31619 0.0
C216 C 0.99328 0.58262 0.32163 0.0
C217 C 1.00264 0.48159 0.35689 0.0
C218 C 0.01564 0.46689 0.32946 0.0
C219 C 0.00976 0.44475 0.35501 0.0
C220 C 1.00328 0.46187 0.36467 0.0
C221 C 0.01609 0.44693 0.33729 0.0
C222 C 0.00887 0.48415 0.3392 0.0
C223 C 0.99414 0.49839 0.36773 0.0
O224 O 0.98568 0.54579 0.40238 0.0
O225 O 0.95575 0.54147 0.38871 0.0
O226 O 0.97658 0.50687 0.36261 0.0
O227 O 0.00707 0.51135 0.37563 0.0
H228 H 0.93795 0.51131 0.40521 0.0
H229 H 0.92189 0.49651 0.43174 0.0
H230 H 0.95835 0.53818 0.46453 0.0
H231 H 0.97453 0.55267 0.43807 0.0
H232 H 0.01339 0.63539 0.33987 0.0
H233 H 0.0086 0.60599 0.36009 0.0
H234 H 0.99317 0.59684 0.29599 0.0
H235 H 0.98737 0.56802 0.31648 0.0
H236 H 0.02048 0.46916 0.31585 0.0
H237 H 0.00925 0.42966 0.36139 0.0
H238 H 0.99827 0.45958 0.37824 0.0
H239 H 0.00833 0.49931 0.33295 0.0
C240 C 0.93412 0.24314 0.32929 0.0
C241 C 0.93495 0.24184 0.31067 0.0
C242 C 0.89863 0.25213 0.30871 0.0
C243 C 0.91727 0.2465 0.3004 0.0
C244 C 0.89824 0.25406 0.32725 0.0
C245 C 0.91582 0.24965 0.33741 0.0
U246 U 0.98462 0.21311 0.33962 0.0
O247 O 0.00916 0.22037 0.35959 0.0
O248 O 0.98907 0.1924 0.36247 0.0
C249 C 1.00366 0.20432 0.36937 0.0
C250 C 0.95109 0.23602 0.34088 0.0
C251 C 0.01712 0.19597 0.38345 0.0
C252 C 0.02671 0.19663 0.41466 0.0
C253 C 0.01674 0.20563 0.40009 0.0
C254 C 0.03853 0.16856 0.39595 0.0
C255 C 0.03738 0.17778 0.41287 0.0
C256 C 0.0283 0.17753 0.38135 0.0
C257 C 0.00893 0.18501 0.29835 0.0
C258 C 0.03286 0.15623 0.29601 0.0
C259 C 0.01471 0.16883 0.26986 0.0
C260 C 0.00536 0.18408 0.28006 0.0
C261 C 0.02809 0.15424 0.27777 0.0
C262 C 0.02316 0.17142 0.3063 0.0
C263 C 0.99535 0.1985 0.30862 0.0
O264 O 0.95115 0.21597 0.34402 0.0
O265 O 0.96972 0.24386 0.33821 0.0
O266 O 1.0032 0.21578 0.3152 0.0
O267 O 0.98204 0.18913 0.31913 0.0
H268 H 0.94894 0.23663 0.30419 0.0
H269 H 0.91786 0.24481 0.28611 0.0
H270 H 0.8841 0.25847 0.33394 0.0
H271 H 0.91488 0.25063 0.35174 0.0
H272 H 0.02575 0.20425 0.42743 0.0
H273 H 0.00801 0.2198 0.40198 0.0
H274 H 0.04655 0.15398 0.39418 0.0
H275 H 0.0286 0.16977 0.36861 0.0
H276 H 0.0434 0.14553 0.30248 0.0
H277 H 0.01025 0.16772 0.25601 0.0
H278 H 0.99426 0.1944 0.27379 0.0
H279 H 0.02607 0.17198 0.32047 0.0
C280 C 0.65776 0.86886 0.42259 0.0
C281 C 0.66506 0.88951 0.42265 0.0
C282 C 0.67542 0.8863 0.45384 0.0
C283 C 0.67387 0.89812 0.4381 0.0
C284 C 0.66736 0.8659 0.45377 0.0
C285 C 0.65874 0.8573 0.43833 0.0
U286 U 0.62993 0.87174 0.37763 0.0
O287 O 0.63629 0.85648 0.35213 0.0
O288 O 0.60617 0.85143 0.36519 0.0
C289 C 0.61789 0.84751 0.35139 0.0
C290 C 0.64951 0.85888 0.40627 0.0
C291 C 0.61597 0.82699 0.3427 0.0
C292 C 0.62962 0.79346 0.33354 0.0
C293 C 0.63116 0.81148 0.34403 0.0
C294 C 0.59771 0.80624 0.32049 0.0
C295 C 0.61301 0.79074 0.32136 0.0
C296 C 0.59914 0.82398 0.33108 0.0
C297 C 0.61185 0.92751 0.36447 0.0
C298 C 0.60417 0.94346 0.33588 0.0
C299 C 0.59645 0.96175 0.36311 0.0
C300 C 0.60381 0.94498 0.37297 0.0
C301 C 0.59702 0.96143 0.34449 0.0
C302 C 0.61161 0.92657 0.34583 0.0
C303 C 0.62171 0.91157 0.37565 0.0
O304 O 0.62917 0.85838 0.40461 0.0
O305 O 0.65902 0.86363 0.39139 0.0
O306 O 0.63904 0.90342 0.36983 0.0
O307 O 0.60927 0.89803 0.38326 0.0
H308 H 0.66429 0.89887 0.4107 0.0
H309 H 0.67995 0.91383 0.43753 0.0
H310 H 0.66769 0.85646 0.46568 0.0
H311 H 0.65298 0.84145 0.43866 0.0
H312 H 0.64154 0.78177 0.33487 0.0
H313 H 0.64437 0.81347 0.35286 0.0
H314 H 0.58492 0.80515 0.31114 0.0
H315 H 0.58737 0.83585 0.32967 0.0
H316 H 0.60479 0.94279 0.32153 0.0
H317 H 0.59065 0.97517 0.37012 0.0
H318 H 0.60379 0.94594 0.38733 0.0
H319 H 0.6177 0.91314 0.33902 0.0
C320 C 0.41191 0.01781 0.85756 0.0
C321 C 0.41777 0.01574 0.8397 0.0
C322 C 0.38159 0.00936 0.83098 0.0
C323 C 0.40274 0.01155 0.82653 0.0
C324 C 0.37608 0.01066 0.849 0.0
C325 C 0.39103 0.01488 0.86207 0.0
U326 U 0.46702 0.02108 0.87782 0.0
O327 O 0.48268 0.04667 0.8921 0.0
O328 O 0.47764 0.01652 0.90547 0.0
C329 C 0.48572 0.0353 0.90639 0.0
C330 C 0.42688 0.02381 0.8717 0.0
C331 C 0.48722 0.04571 0.92373 0.0
C332 C 0.47333 0.06477 0.94885 0.0
C333 C 0.47022 0.05433 0.93262 0.0
C334 C 0.51015 0.05751 0.94738 0.0
C335 C 0.49346 0.06673 0.95625 0.0
C336 C 0.50705 0.04724 0.93134 0.0
C337 C 0.51222 0.99779 0.85072 0.0
C338 C 0.54919 0.00593 0.85119 0.0
C339 C 0.53647 0.97585 0.83508 0.0
C340 C 0.51627 0.98031 0.84033 0.0
C341 C 0.55312 0.98889 0.84 0.0
C342 C 0.52886 0.01035 0.85653 0.0
C343 C 0.49037 1.0031 0.854 0.0
O344 O 0.43527 0.00851 0.88079 0.0
O345 O 0.44021 0.03865 0.86774 0.0
O346 O 0.48564 0.02294 0.85355 0.0
O347 O 0.48101 0.9928 0.86674 0.0
H348 H 0.43385 0.01778 0.8359 0.0
H349 H 0.40761 0.0107 0.81282 0.0
H350 H 0.36011 0.00855 0.85305 0.0
H351 H 0.38619 0.01621 0.87576 0.0
H352 H 0.46014 0.07173 0.95534 0.0
H353 H 0.45475 0.05325 0.92695 0.0
H354 H 0.52575 0.05821 0.95282 0.0
H355 H 0.52034 0.04058 0.92473 0.0
H356 H 0.56166 0.01631 0.85521 0.0
H357 H 0.53896 0.96233 0.82685 0.0
H358 H 0.50366 0.97037 0.83583 0.0
H359 H 0.52608 0.02388 0.86468 0.0
C360 C 0.83504 0.34647 0.81891 0.0
C361 C 0.82117 0.33947 0.80572 0.0
C362 C 0.84493 0.31159 0.79807 0.0
C363 C 0.82603 0.32212 0.79544 0.0
C364 C 0.85927 0.31956 0.81053 0.0
C365 C 0.85431 0.33677 0.8209 0.0
U366 U 0.80428 0.39441 0.83342 0.0
O367 O 0.78646 0.39652 0.85814 0.0
O368 O 0.81214 0.41879 0.853 0.0
C369 C 0.79813 0.41178 0.8642 0.0
C370 C 0.82881 0.36209 0.83203 0.0
C371 C 0.78991 0.4253 0.87807 0.0
C372 C 0.78469 0.43022 0.90959 0.0
C373 C 0.79288 0.41888 0.89563 0.0
C374 C 0.77076 0.45518 0.88861 0.0
C375 C 0.77349 0.44856 0.90637 0.0
C376 C 0.77887 0.44356 0.87452 0.0
C377 C 0.77164 0.41686 0.79252 0.0
C378 C 0.73769 0.43184 0.7871 0.0
C379 C 0.75972 0.42274 0.76236 0.0
C380 C 0.77515 0.41646 0.7742 0.0
C381 C 0.74059 0.42976 0.7687 0.0
C382 C 0.75312 0.42523 0.79901 0.0
C383 C 0.78598 0.40498 0.80371 0.0
O384 O 0.83554 0.3812 0.82959 0.0
O385 O 0.80931 0.36107 0.83691 0.0
O386 O 0.778 0.39152 0.81496 0.0
O387 O 0.80351 0.41358 0.80904 0.0
H388 H 0.80619 0.3468 0.80392 0.0
H389 H 0.81451 0.3164 0.7861 0.0
H390 H 0.87416 0.31218 0.81263 0.0
H391 H 0.86522 0.34202 0.83097 0.0
H392 H 0.78672 0.42417 0.9229 0.0
H393 H 0.80128 0.40472 0.89858 0.0
H394 H 0.76239 0.4693 0.88558 0.0
H395 H 0.7764 0.44869 0.86097 0.0
H396 H 0.72297 0.43713 0.79225 0.0
H397 H 0.76233 0.42108 0.74824 0.0
H398 H 0.78932 0.4099 0.76898 0.0
H399 H 0.75012 0.42551 0.81314 0.0
C400 C 0.13487 0.34681 0.91907 0.0
C401 C 0.11456 0.33868 0.91845 0.0
C402 C 0.117 0.3289 0.94974 0.0
C403 C 0.10571 0.32978 0.93366 0.0
C404 C 0.13707 0.33766 0.95032 0.0
C405 C 0.14585 0.34652 0.93516 0.0
U406 U 0.13689 0.37383 0.87326 0.0
O407 O 0.1619 0.39333 0.86236 0.0
O408 O 0.15353 0.36348 0.84912 0.0
C409 C 0.16563 0.38002 0.84956 0.0
C410 C 0.14562 0.35435 0.90303 0.0
C411 C 0.18274 0.3837 0.837 0.0
C412 C 0.21907 0.39181 0.83128 0.0
C413 C 0.20244 0.38997 0.8431 0.0
C414 C 0.19625 0.382 0.807 0.0
C415 C 0.21627 0.38772 0.81303 0.0
C416 C 0.17978 0.37977 0.81888 0.0
C417 C 0.08174 0.39334 0.85682 0.0
C418 C 0.06851 0.41528 0.83299 0.0
C419 C 0.04496 0.39351 0.8499 0.0
C420 C 0.06151 0.38637 0.86008 0.0
C421 C 0.04826 0.40782 0.83613 0.0
C422 C 0.08528 0.40798 0.84327 0.0
C423 C 0.09815 0.38481 0.86826 0.0
O424 O 0.14105 0.34476 0.88812 0.0
O425 O 0.14737 0.3746 0.90121 0.0
O426 O 0.1123 0.39746 0.87491 0.0
O427 O 0.10528 0.36641 0.86406 0.0
H428 H 0.1057 0.33884 0.90617 0.0
H429 H 0.09009 0.32349 0.9328 0.0
H430 H 0.14635 0.33706 0.96234 0.0
H431 H 0.16154 0.35266 0.93591 0.0
H432 H 0.23421 0.39589 0.83659 0.0
H433 H 0.20513 0.39283 0.85709 0.0
H434 H 0.19319 0.37921 0.79307 0.0
H435 H 0.16468 0.37494 0.8139 0.0
H436 H 0.07137 0.42635 0.82242 0.0
H437 H 0.02949 0.3878 0.85283 0.0
H438 H 0.05846 0.37525 0.87059 0.0
H439 H 0.10085 0.41359 0.84061 0.0
C440 C 0.8108 0.99713 0.87925 0.0
C441 C 0.82668 0.98274 0.87635 0.0
C442 C 0.8289 0.97607 0.90823 0.0
C443 C 0.83559 0.97211 0.89079 0.0
C444 C 0.81251 0.98999 0.91084 0.0
C445 C 0.80356 1.00037 0.8965 0.0
U446 U 0.79451 0.02823 0.83469 0.0
O447 O 0.79144 0.06188 0.83792 0.0
O448 O 0.7637 0.0429 0.83248 0.0
C449 C 0.77142 0.0617 0.83451 0.0
C450 C 0.80254 0.01061 0.86519 0.0
C451 C 0.76444 0.0777 0.82195 0.0
C452 C 0.74638 0.11026 0.81747 0.0
C453 C 0.75101 0.09306 0.82805 0.0
C454 C 0.76782 0.09637 0.79405 0.0
C455 C 0.75504 0.1124 0.80046 0.0
C456 C 0.77257 0.07919 0.80476 0.0
C457 C 0.82372 1.00141 0.79545 0.0
C458 C 0.83807 0.99079 0.76726 0.0
C459 C 0.85587 0.98204 0.7947 0.0
C460 C 0.84017 0.99167 0.80439 0.0
C461 C 0.85546 0.98233 0.77598 0.0
C462 C 0.82233 1.00015 0.77694 0.0
C463 C 0.80981 0.01587 0.80439 0.0
O464 O 0.81461 0.02494 0.85821 0.0
O465 O 0.78692 1.00456 0.85506 0.0
O466 O 0.81879 0.0299 0.81456 0.0
O467 O 0.79229 0.0085 0.81079 0.0
H468 H 0.83252 0.98017 0.86309 0.0
H469 H 0.84824 0.96148 0.88842 0.0
H470 H 0.80685 0.99316 0.92406 0.0
H471 H 0.79135 0.0115 0.89896 0.0
H472 H 0.73679 0.12232 0.82303 0.0
H473 H 0.74476 0.0922 0.84135 0.0
H474 H 0.7745 0.0973 0.78092 0.0
H475 H 0.78305 0.06745 0.79986 0.0
H476 H 0.83723 0.99154 0.75291 0.0
H477 H 0.86882 0.97524 0.80184 0.0
H478 H 0.84144 0.99247 0.81872 0.0
H479 H 0.80975 0.0077 0.76985 0.0
C480 C 0.41034 0.37062 0.65727 0.0
C481 C 0.41695 0.37468 0.67477 0.0
C482 C 0.38089 0.37864 0.68421 0.0
C483 C 0.40235 0.37866 0.68812 0.0
C484 C 0.37457 0.37527 0.66651 0.0
C485 C 0.38909 0.37126 0.65326 0.0
U486 U 0.46506 0.36919 0.63725 0.0
O487 O 0.48117 0.34438 0.62278 0.0
O488 O 0.47559 0.37461 0.60979 0.0
C489 C 0.48395 0.35608 0.60867 0.0
C490 C 0.42503 0.36512 0.64303 0.0
C491 C 0.48531 0.34602 0.59119 0.0
C492 C 0.47155 0.32598 0.56631 0.0
C493 C 0.46851 0.33611 0.58264 0.0
C494 C 0.50786 0.33604 0.56703 0.0
C495 C 0.49141 0.32557 0.55848 0.0
C496 C 0.50483 0.34604 0.58315 0.0
C497 C 0.50933 0.3939 0.66556 0.0
C498 C 0.54662 0.39226 0.66087 0.0
C499 C 0.53284 0.41329 0.68463 0.0
C500 C 0.51274 0.40746 0.67975 0.0
C501 C 0.55007 0.40578 0.67531 0.0
C502 C 0.52634 0.38635 0.656 0.0
C503 C 0.4878 0.38761 0.66168 0.0
O504 O 0.43307 0.38075 0.6341 0.0
O505 O 0.43864 0.35061 0.64689 0.0
O506 O 0.48386 0.36756 0.66167 0.0
O507 O 0.47832 0.39773 0.64885 0.0
H508 H 0.43333 0.37443 0.67815 0.0
H509 H 0.40785 0.38114 0.70158 0.0
H510 H 0.35829 0.37566 0.66283 0.0
H511 H 0.38366 0.36839 0.63984 0.0
H512 H 0.45855 0.31804 0.56007 0.0
H513 H 0.45328 0.33596 0.58864 0.0
H514 H 0.52322 0.33652 0.56126 0.0
H515 H 0.51795 0.35367 0.58951 0.0
H516 H 0.55956 0.38632 0.65333 0.0
H517 H 0.53485 0.42332 0.69604 0.0
H518 H 0.49979 0.41333 0.68731 0.0
H519 H 0.52397 0.37584 0.64495 0.0
C520 C 0.80555 0.42225 0.62975 0.0
C521 C 0.82264 0.43477 0.63446 0.0
C522 C 0.82624 0.4458 0.6036 0.0
C523 C 0.83287 0.44655 0.62148 0.0
C524 C 0.80868 0.43365 0.59924 0.0
C525 C 0.79844 0.42211 0.6122 0.0
U526 U 0.79812 0.39802 0.67607 0.0
O527 O 0.76986 0.38386 0.68766 0.0
O528 O 0.79701 0.36458 0.68128 0.0
C529 C 0.77791 0.36513 0.68732 0.0
C530 C 0.79619 0.40751 0.64225 0.0
C531 C 0.77235 0.35013 0.70127 0.0
C532 C 0.74807 0.32313 0.7103 0.0
C533 C 0.75264 0.34083 0.7003 0.0
C534 C 0.78248 0.32464 0.72347 0.0
C535 C 0.76315 0.31441 0.72163 0.0
C536 C 0.7871 0.34229 0.71329 0.0
C537 C 0.83136 0.42448 0.71385 0.0
C538 C 0.84539 0.41129 0.74155 0.0
C539 C 0.8555 0.44546 0.73097 0.0
C540 C 0.84228 0.44308 0.71643 0.0
C541 C 0.85787 0.42929 0.74338 0.0
C542 C 0.83236 0.4088 0.72674 0.0
C543 C 0.82203 0.42108 0.69634 0.0
O544 O 0.80901 0.39371 0.64888 0.0
O545 O 0.78329 0.41508 0.654 0.0
O546 O 0.80204 0.42453 0.69436 0.0
O547 O 0.82875 0.40493 0.68746 0.0
H548 H 0.8284 0.43497 0.64801 0.0
H549 H 0.84613 0.45594 0.6254 0.0
H550 H 0.80331 0.43225 0.58565 0.0
H551 H 0.78539 0.41235 0.60835 0.0
H552 H 0.73314 0.31564 0.70831 0.0
H553 H 0.74114 0.34649 0.69091 0.0
H554 H 0.79431 0.31864 0.73235 0.0
H555 H 0.80246 0.34919 0.7142 0.0
H556 H 0.84641 0.39873 0.7511 0.0
H557 H 0.86494 0.45941 0.73167 0.0
H558 H 0.84171 0.45529 0.7065 0.0
H559 H 0.82394 0.39432 0.72492 0.0
C560 C 0.11801 0.04637 0.6007 0.0
C561 C 0.09755 0.04597 0.59433 0.0
C562 C 0.10736 0.06705 0.56877 0.0
C563 C 0.09227 0.05612 0.57855 0.0
C564 C 0.12804 0.06717 0.57512 0.0
C565 C 0.13332 0.05691 0.59098 0.0
U566 U 0.13572 0.01901 0.64717 0.0
O567 O 0.16643 1.0039 0.64654 0.0
O568 O 0.16285 0.03409 0.65961 0.0
C569 C 0.17528 0.0185 0.6562 0.0
C570 C 0.12258 0.03599 0.61769 0.0
C571 C 0.18919 0.01168 0.67082 0.0
C572 C 0.2242 1.00244 0.68017 0.0
C573 C 0.2097 0.00651 0.66672 0.0
C574 C 0.19767 0.00765 0.70226 0.0
C575 C 0.21857 1.00327 0.69818 0.0
C576 C 0.18313 0.01186 0.68872 0.0
C577 C 0.08702 0.99777 0.67324 0.0
C578 C 0.06258 0.98628 0.69556 0.0
C579 C 0.04997 0.99654 0.66648 0.0
C580 C 0.07052 1.00068 0.66117 0.0
C581 C 0.04583 0.98962 0.68389 0.0
C582 C 0.08285 0.99039 0.69031 0.0
C583 C 0.10889 1.00229 0.66914 0.0
O584 O 0.12483 0.04663 0.63246 0.0
O585 O 0.12807 0.01637 0.61855 0.0
O586 O 0.11496 0.02178 0.67009 0.0
O587 O 0.11758 0.99187 0.65621 0.0
H588 H 0.08554 0.03787 0.60166 0.0
H589 H 0.0763 0.05526 0.574 0.0
H590 H 0.14007 0.07556 0.56809 0.0
H591 H 0.14924 0.05738 0.59572 0.0
H592 H 0.24008 0.99947 0.67636 0.0
H593 H 0.21474 0.00634 0.65303 0.0
H594 H 0.19256 0.00807 0.71591 0.0
H595 H 0.16734 0.0157 0.69226 0.0
H596 H 0.06004 0.98051 0.70889 0.0
H597 H 0.03736 0.99924 0.65719 0.0
H598 H 0.07348 0.00632 0.64786 0.0
H599 H 0.09538 0.98791 0.69974 0.0
C600 C 0.83621 0.07595 0.69479 0.0
C601 C 0.82827 0.0782 0.712 0.0
C602 C 0.84576 0.11179 0.71476 0.0
C603 C 0.83309 0.09601 0.72196 0.0
C604 C 0.85441 0.10883 0.69788 0.0
C605 C 0.84963 0.09112 0.688 0.0
U606 U 0.80451 0.02665 0.68418 0.0
O607 O 0.7845 0.02213 0.66058 0.0
O608 O 0.81118 1.00098 0.66569 0.0
C609 C 0.79588 0.00657 0.65507 0.0
C610 C 0.82908 0.0593 0.68288 0.0
C611 C 0.78941 0.99374 0.63996 0.0
C612 C 0.78767 0.98935 0.60802 0.0
C613 C 0.79519 0.99998 0.62287 0.0
C614 C 0.7689 0.96564 0.62724 0.0
C615 C 0.77411 0.9723 0.60999 0.0
C616 C 0.77645 0.97636 0.64214 0.0
C617 C 0.77372 0.00572 0.72595 0.0
C618 C 0.74733 0.97919 0.73059 0.0
C619 C 0.75589 1.00358 0.75405 0.0
C620 C 0.77072 0.01279 0.74325 0.0
C621 C 0.74376 0.98683 0.74785 0.0
C622 C 0.76222 0.98866 0.71964 0.0
C623 C 0.78796 0.01789 0.71496 0.0
O624 O 0.8359 0.04046 0.68615 0.0
O625 O 0.80923 0.05981 0.67886 0.0
O626 O 0.77959 0.03087 0.70353 0.0
O627 O 0.80508 0.00908 0.70935 0.0
H628 H 0.81776 0.06664 0.71742 0.0
H629 H 0.8261 0.09788 0.7349 0.0
H630 H 0.86448 0.12051 0.69208 0.0
H631 H 0.85584 0.08963 0.67474 0.0
H632 H 0.79226 0.99466 0.59497 0.0
H633 H 0.80519 0.0134 0.62098 0.0
H634 H 0.75838 0.95265 0.62919 0.0
H635 H 0.77178 0.97145 0.65529 0.0
H636 H 0.73837 0.9662 0.72546 0.0
H637 H 0.75332 0.01034 0.76699 0.0
H638 H 0.7794 0.02606 0.74825 0.0
H639 H 0.76439 0.98303 0.70624 0.0
H640 H 0.55156 0.11843 0.24355 0.0
H641 H 0.54835 0.08588 0.26003 0.0
H642 H 0.58848 0.11036 0.30111 0.0
H643 H 0.59163 0.14321 0.28473 0.0
H644 H 0.5848 0.06228 0.26763 0.0
H645 H 0.5402 0.08079 0.3283 0.0
H646 H 0.53882 0.0963 0.3083 0.0
H647 H 0.56065 0.09893 0.3231 0.0
C648 C 0.55916 0.11717 0.25638 0.0
C649 C 0.5718 0.13338 0.26293 0.0
C650 C 0.55739 0.09852 0.2657 0.0
C651 C 0.56804 0.09584 0.28179 0.0
C652 C 0.5799 0.1123 0.28881 0.0
H653 H 0.60786 1.00138 0.35202 0.0
H654 H 0.59818 0.03283 0.33601 0.0
C655 C 0.58181 0.13096 0.27942 0.0
C656 C 0.5689 0.0751 0.29009 0.0
H657 H 0.559 0.04892 0.3285 0.0
C658 C 0.5789 0.05919 0.28084 0.0
C659 C 0.56112 0.07127 0.30725 0.0
C660 C 0.54942 0.08764 0.31731 0.0
C661 C 0.58231 0.03974 0.28869 0.0
C662 C 0.57518 0.03609 0.30613 0.0
C663 C 0.56448 0.0518 0.31513 0.0
C664 C 0.58025 0.01677 0.31583 0.0
C665 C 0.59442 0.02366 0.27859 0.0
C666 C 0.57331 0.99728 0.30979 0.0
C667 C 0.57889 0.97916 0.31893 0.0
C668 C 0.59125 0.98035 0.33436 0.0
C669 C 0.59805 0.99995 0.34034 0.0
C670 C 0.59256 0.01795 0.3312 0.0
H671 H 0.60233 0.03043 0.26684 0.0
H672 H 0.60628 0.0163 0.28728 0.0
H673 H 0.58363 0.01133 0.27384 0.0
H674 H 0.56353 0.99609 0.29808 0.0
H675 H 0.57328 0.9643 0.31411 0.0
H676 H 0.62504 0.42054 0.18703 0.0
H677 H 0.61478 0.38834 0.20182 0.0
H678 H 0.55031 0.40525 0.1967 0.0
H679 H 0.56056 0.43774 0.18164 0.0
H680 H 0.58772 0.38447 0.23397 0.0
H681 H 0.55754 0.34522 0.17299 0.0
H682 H 0.57534 0.36697 0.17169 0.0
H683 H 0.54897 0.37111 0.17818 0.0
C684 C 0.60868 0.41747 0.18912 0.0
C685 C 0.59357 0.43154 0.18311 0.0
C686 C 0.60285 0.39911 0.19757 0.0
C687 C 0.58182 0.3944 0.20012 0.0
C688 C 0.56662 0.40862 0.19465 0.0
H689 H 0.54377 0.2744 0.24617 0.0
H690 H 0.54158 0.30782 0.23075 0.0
C691 C 0.57248 0.42718 0.18623 0.0
C692 C 0.57626 0.3744 0.20849 0.0
H693 H 0.56157 0.32464 0.19863 0.0
C694 C 0.58166 0.37146 0.22636 0.0
C695 C 0.56824 0.35758 0.19848 0.0
C696 C 0.56219 0.36018 0.17924 0.0
C697 C 0.58007 0.35186 0.23432 0.0
C698 C 0.57345 0.33471 0.22398 0.0
C699 C 0.56689 0.33784 0.2064 0.0
C700 C 0.57472 0.31335 0.23104 0.0
C701 C 0.58588 0.34952 0.25366 0.0
C702 C 0.59414 0.30509 0.23555 0.0
C703 C 0.59548 0.28627 0.24464 0.0
C704 C 0.57739 0.27516 0.2492 0.0
C705 C 0.55801 0.28273 0.24329 0.0
C706 C 0.55669 0.30175 0.23435 0.0
H707 H 0.58556 0.36466 0.26071 0.0
H708 H 0.57517 0.33851 0.26042 0.0
H709 H 0.60186 0.34326 0.25473 0.0
H710 H 0.60825 0.31374 0.23278 0.0
H711 H 0.61067 0.28118 0.24904 0.0
H712 H 0.03676 0.2605 0.27705 0.0
H713 H 0.03942 0.2924 0.29452 0.0
H714 H 0.03405 0.32893 0.24676 0.0
H715 H 0.03024 0.2974 0.22922 0.0
H716 H 0.06778 0.33378 0.28764 0.0
H717 H 0.9816 0.33952 0.28268 0.0
H718 H 0.99492 0.3149 0.28219 0.0
H719 H 0.99561 0.33171 0.26321 0.0
C720 C 0.0363 0.27529 0.27018 0.0
C721 C 0.03294 0.27628 0.25168 0.0
C722 C 0.03804 0.29347 0.28021 0.0
C723 C 0.03677 0.31286 0.27186 0.0
C724 C 0.03502 0.31398 0.25335 0.0
H725 H 0.00805 0.43779 0.30226 0.0
H726 H 0.01525 0.40536 0.28671 0.0
C727 C 0.03304 0.29588 0.24334 0.0
C728 C 0.03495 0.33196 0.28242 0.0
H729 H 0.99949 0.36785 0.29536 0.0
C730 C 0.0529 0.34127 0.28946 0.0
C731 C 0.01545 0.34142 0.28477 0.0
C732 C 0.9957 0.33142 0.27794 0.0
C733 C 0.05193 0.36042 0.29832 0.0
C734 C 0.03243 0.37021 0.30029 0.0
C735 C 0.01444 0.36049 0.29361 0.0
C736 C 0.03011 0.39053 0.30923 0.0
C737 C 0.07183 0.3702 0.30502 0.0
C738 C 0.03634 0.39306 0.32695 0.0
C739 C 0.03272 0.41174 0.33572 0.0
C740 C 0.02226 0.42814 0.32713 0.0
C741 C 0.01638 0.42568 0.30924 0.0
C742 C 0.0203 0.40705 0.30039 0.0
H743 H 0.08563 0.36381 0.29819 0.0
H744 H 0.07169 0.38732 0.30316 0.0
H745 H 0.07358 0.36687 0.31941 0.0
H746 H 0.04348 0.38039 0.33418 0.0
H747 H 0.03779 0.41314 0.3494 0.0
H748 H 0.03239 0.11431 0.28981 0.0
H749 H 0.03613 0.08305 0.27214 0.0
H750 H 0.03995 0.12007 0.22452 0.0
H751 H 0.03763 0.15171 0.24219 0.0
H752 H 0.00525 0.07479 0.24607 0.0
H753 H 0.0844 0.07519 0.2167 0.0
H754 H 0.07834 0.08966 0.23652 0.0
H755 H 0.06967 0.09878 0.21522 0.0
C756 C 0.03494 0.11602 0.2757 0.0
C757 C 0.03454 0.13567 0.26748 0.0
C758 C 0.03686 0.09804 0.26558 0.0
C759 C 0.03833 0.09928 0.24707 0.0
C760 C 0.03913 0.1188 0.23884 0.0
H761 H 0.02833 1.00393 0.16619 0.0
H762 H 0.03465 0.03605 0.1825 0.0
C763 C 0.0375 0.13687 0.24897 0.0
C764 C 0.03623 0.08014 0.23644 0.0
H765 H 0.06153 0.04822 0.20782 0.0
C766 C 0.01758 0.06889 0.23776 0.0
C767 C 0.05216 0.07289 0.22531 0.0
C768 C 0.07236 0.08463 0.22334 0.0
C769 C 0.01446 0.05038 0.2284 0.0
C770 C 0.03074 0.04253 0.21788 0.0
C771 C 0.04923 0.05408 0.21617 0.0
C772 C 0.02859 0.02257 0.20828 0.0
C773 C 0.99354 0.03974 0.22954 0.0
C774 C 0.02374 1.00414 0.21743 0.0
C775 C 0.01962 0.98579 0.2081 0.0
C776 C 0.02062 0.98549 0.18947 0.0
C777 C 0.02686 1.00371 0.1805 0.0
C778 C 0.03068 0.02207 0.1898 0.0
H779 H 0.9812 0.05073 0.23358 0.0
H780 H 0.98899 0.03269 0.21664 0.0
H781 H 0.99428 0.02724 0.23968 0.0
H782 H 0.02259 1.00409 0.23176 0.0
H783 H 0.01486 0.97212 0.21545 0.0
H784 H 0.70488 0.97444 0.73685 0.0
H785 H 0.67436 0.96918 0.75545 0.0
H786 H 0.71201 0.97772 0.80241 0.0
H787 H 0.74283 0.98207 0.78406 0.0
H788 H 0.665 0.94209 0.78747 0.0
H789 H 0.66879 0.02735 0.79985 0.0
H790 H 0.68267 0.01518 0.78197 0.0
H791 H 0.69201 0.0128 0.80437 0.0
C792 C 0.70689 0.97446 0.75113 0.0
C793 C 0.72629 0.97911 0.75892 0.0
C794 C 0.68937 0.97159 0.76173 0.0
C795 C 0.69098 0.97349 0.78022 0.0
C796 C 0.7105 0.97648 0.78812 0.0
H797 H 0.59119 0.99307 0.85661 0.0
H798 H 0.62559 0.98766 0.84362 0.0
C799 C 0.72804 0.9791 0.77758 0.0
C800 C 0.67201 0.97455 0.79102 0.0
H801 H 0.6414 0.00881 0.81315 0.0
C802 C 0.65986 0.9566 0.7932 0.0
C803 C 0.66547 0.99356 0.79844 0.0
C804 C 0.67778 0.0134 0.796 0.0
C805 C 0.64112 0.95722 0.8026 0.0
C806 C 0.63433 0.97635 0.80964 0.0
C807 C 0.64675 0.99418 0.80778 0.0
C808 C 0.61369 0.97859 0.81785 0.0
C809 C 0.62874 0.93745 0.80495 0.0
C810 C 0.59575 0.97563 0.80752 0.0
C811 C 0.5762 0.97894 0.81478 0.0
C812 C 0.57414 0.98525 0.83257 0.0
C813 C 0.59221 0.98831 0.84287 0.0
C814 C 0.61184 0.98508 0.83553 0.0
H815 H 0.63838 0.92345 0.80272 0.0
H816 H 0.62203 0.93661 0.81848 0.0
H817 H 0.61573 0.93719 0.79521 0.0
H818 H 0.59689 0.97122 0.7937 0.0
H819 H 0.56269 0.97698 0.80629 0.0
H820 H 0.56363 0.44375 0.68713 0.0
H821 H 0.59745 0.45251 0.69996 0.0
H822 H 0.61867 0.39027 0.68981 0.0
H823 H 0.58473 0.3812 0.67719 0.0
H824 H 0.61472 0.43412 0.72918 0.0
H825 H 0.66655 0.42575 0.67137 0.0
H826 H 0.63865 0.42716 0.66914 0.0
H827 H 0.65085 0.40307 0.67523 0.0
C828 C 0.5755 0.43191 0.68753 0.0
C829 C 0.5714 0.41172 0.68119 0.0
C830 C 0.59486 0.43701 0.69477 0.0
C831 C 0.61063 0.42214 0.69562 0.0
C832 C 0.60685 0.40212 0.6889 0.0
H833 H 0.72719 0.40141 0.74475 0.0
H834 H 0.69609 0.40279 0.72618 0.0
C835 C 0.58742 0.39697 0.68169 0.0
C836 C 0.63042 0.42704 0.70483 0.0
H837 H 0.68302 0.42649 0.69997 0.0
C838 C 0.62968 0.43273 0.72278 0.0
C839 C 0.64985 0.4253 0.69637 0.0
C840 C 0.65156 0.42018 0.67691 0.0
C841 C 0.64789 0.4356 0.73281 0.0
C842 C 0.66739 0.43318 0.72449 0.0
C843 C 0.66808 0.42831 0.70634 0.0
C844 C 0.68713 0.43357 0.73471 0.0
C845 C 0.64596 0.44012 0.75239 0.0
C846 C 0.69278 0.45064 0.74535 0.0
C847 C 0.71038 0.44968 0.75631 0.0
C848 C 0.7229 0.43192 0.75628 0.0
C849 C 0.71784 0.41535 0.74492 0.0
C850 C 0.70008 0.41613 0.7343 0.0
H851 H 0.63016 0.43646 0.7574 0.0
H852 H 0.6574 0.43108 0.76027 0.0
H853 H 0.64892 0.4569 0.75472 0.0
H854 H 0.68338 0.46452 0.74545 0.0
H855 H 0.71416 0.4627 0.76485 0.0
H856 H 0.02018 0.38251 0.8202 0.0
H857 H 0.98756 0.39218 0.80593 0.0
H858 H 1.0024 0.45704 0.81359 0.0
H859 H 0.03551 0.44732 0.82776 0.0
H860 H 0.95672 0.41319 0.8227 0.0
H861 H 0.98223 0.45603 0.76226 0.0
H862 H 0.99985 0.4404 0.77529 0.0
H863 H 0.99212 0.46552 0.7831 0.0
C864 C 0.01666 0.39885 0.81857 0.0
C865 C 0.03028 0.41419 0.82512 0.0
C866 C 0.99802 0.40435 0.81046 0.0
C867 C 0.99256 0.42531 0.80871 0.0
C868 C 0.00646 0.44078 0.8146 0.0
H869 H 0.87333 0.46354 0.7612 0.0
H870 H 0.90538 0.46558 0.77876 0.0
C871 C 0.02533 0.43524 0.82266 0.0
C872 C 0.97167 0.43043 0.80174 0.0
H873 H 0.9462 0.45162 0.76626 0.0
C874 C 0.95442 0.4218 0.81046 0.0
C875 C 0.96869 0.4419 0.78591 0.0
C876 C 0.98667 0.45141 0.77597 0.0
C877 C 0.93438 0.42344 0.8033 0.0
C878 C 0.93158 0.43382 0.78698 0.0
C879 C 0.94855 0.44358 0.77877 0.0
C880 C 0.91163 0.43268 0.77731 0.0
C881 C 0.91642 0.41353 0.81299 0.0
C882 C 0.90463 0.41348 0.77082 0.0
C883 C 0.8866 0.41226 0.76053 0.0
C884 C 0.87513 0.43025 0.75659 0.0
C885 C 0.88188 0.4494 0.76372 0.0
C886 C 0.90013 0.45063 0.77382 0.0
H887 H 0.92 0.41134 0.82731 0.0
H888 H 0.90218 0.42309 0.81166 0.0
H889 H 0.91311 0.39803 0.80716 0.0
H890 H 0.91353 0.3995 0.77319 0.0
H891 H 0.88231 0.39733 0.75499 0.0
H892 H 0.85688 0.96299 0.7434 0.0
H893 H 0.88747 0.95795 0.72481 0.0
H894 H 0.92641 0.98381 0.76609 0.0
H895 H 0.89617 0.98923 0.78454 0.0
H896 H 0.91358 0.98811 0.71247 0.0
H897 H 0.95821 0.93231 0.75305 0.0
H898 H 0.93101 0.93724 0.75676 0.0
H899 H 0.95058 0.95426 0.76601 0.0
C900 C 0.87199 0.96739 0.74861 0.0
C901 C 0.87403 0.97637 0.76557 0.0
C902 C 0.88944 0.96442 0.73798 0.0
C903 C 0.90924 0.97013 0.74421 0.0
C904 C 0.91136 0.9787 0.76123 0.0
H905 H 0.03034 1.00124 0.71582 0.0
H906 H 0.99626 0.99365 0.72808 0.0
C907 C 0.89399 0.98173 0.77181 0.0
C908 C 0.92762 0.96882 0.73258 0.0
H909 H 0.97822 0.95355 0.73267 0.0
C910 C 0.92761 0.98017 0.71664 0.0
C911 C 0.9458 0.9583 0.73798 0.0
C912 C 0.94634 0.94466 0.7543 0.0
C913 C 0.9458 0.98256 0.70664 0.0
C914 C 0.96434 0.97322 0.71275 0.0
C915 C 0.964 0.96085 0.72811 0.0
C916 C 0.98471 0.97793 0.70463 0.0
C917 C 0.94535 0.99598 0.69021 0.0
C918 C 0.98947 0.97173 0.68728 0.0
C919 C 0.00914 0.97599 0.68019 0.0
C920 C 0.0243 0.98638 0.69044 0.0
C921 C 0.01918 0.99289 0.70767 0.0
C922 C 0.99968 0.98861 0.7147 0.0
H923 H 0.93061 0.00475 0.6889 0.0
H924 H 0.95852 0.00719 0.69033 0.0
H925 H 0.94697 0.98597 0.67833 0.0
H926 H 0.97815 0.96326 0.67937 0.0
H927 H 0.01267 0.97063 0.66694 0.0
H928 H 0.47029 0.06787 0.98692 0.0
H929 H 0.47827 0.08707 0.01431 0.0
H930 H 0.53443 0.11085 0.99069 0.0
H931 H 0.52617 0.09274 0.96324 0.0
H932 H 0.51269 0.08422 0.0367 0.0
H933 H 0.50764 0.16342 0.00831 0.0
H934 H 0.49767 0.14083 0.99683 0.0
H935 H 0.52495 0.14713 0.99615 0.0
C936 C 0.48413 0.07749 0.98747 0.0
C937 C 0.49755 0.07875 0.97283 0.0
C938 C 0.48876 0.0883 1.00317 0.0
C939 C 0.50676 0.10067 1.00443 0.0
C940 C 0.52021 0.10179 0.98991 0.0
H941 H 0.57819 0.1735 0.07665 0.0
H942 H 0.56207 0.15482 0.05205 0.0
C943 C 0.51557 0.09116 0.97426 0.0
C944 C 0.51197 0.11215 0.02095 0.0
H945 H 0.52531 0.16033 0.03621 0.0
C946 C 0.51517 0.1009 0.03671 0.0
C947 C 0.51514 0.13392 0.02092 0.0
C948 C 0.51097 0.14706 1.00468 0.0
C949 C 0.52254 0.1107 0.05221 0.0
C950 C 0.52643 0.13238 0.05197 0.0
C951 C 0.52246 0.14369 0.03637 0.0
C952 C 0.53589 0.14355 0.06726 0.0
C953 C 0.52696 0.09758 0.06841 0.0
C954 C 0.52646 0.14364 0.08403 0.0
C955 C 0.53573 0.15433 0.09822 0.0
C956 C 0.55439 0.16541 0.09578 0.0
C957 C 0.56364 0.16541 0.07893 0.0
C958 C 0.55449 0.15464 0.06485 0.0
H959 H 0.5281 0.08082 0.06508 0.0
H960 H 0.54164 0.10254 0.07502 0.0
H961 H 0.51411 0.09939 0.07801 0.0
H962 H 0.51184 0.13563 0.0861 0.0
H963 H 0.52813 0.15422 0.111 0.0
H964 H 0.78917 0.45324 0.9402 0.0
H965 H 0.77166 0.46717 0.96601 0.0
H966 H 0.72008 0.48578 0.93292 0.0
H967 H 0.73655 0.47001 0.90725 0.0
H968 H 0.75942 0.50346 0.97575 0.0
H969 H 0.68914 0.45384 0.96913 0.0
H970 H 0.71185 0.44998 0.95573 0.0
H971 H 0.69336 0.46983 0.94999 0.0
C972 C 0.77391 0.45991 0.93837 0.0
C973 C 0.76409 0.45991 0.92159 0.0
C974 C 0.76401 0.46813 0.95318 0.0
C975 C 0.74421 0.47696 0.95158 0.0
C976 C 0.73499 0.47833 0.93466 0.0
H977 H 0.66056 0.53248 0.02788 0.0
H978 H 0.67833 0.52077 1.0012 0.0
C979 C 0.74467 0.46965 0.91987 0.0
C980 C 0.73332 0.48453 0.96767 0.0
H981 H 0.68812 0.48027 0.99098 0.0
C982 C 0.74386 0.49831 0.9791 0.0
C983 C 0.71303 0.47774 0.97214 0.0
C984 C 0.70127 0.46188 0.9612 0.0
C985 C 0.73461 0.50568 0.99468 0.0
C986 C 0.71427 0.49905 0.99902 0.0
C987 C 0.70368 0.48539 0.98758 0.0
C988 C 0.70365 0.50612 0.01536 0.0
C989 C 0.74657 0.52077 1.00621 0.0
C990 C 0.71178 0.50146 0.03223 0.0
C991 C 0.70175 0.5083 0.04756 0.0
C992 C 0.68326 0.51984 0.04636 0.0
C993 C 0.67494 0.52401 0.02938 0.0
C994 C 0.68501 0.51721 0.01408 0.0
H995 H 0.75966 0.52813 0.99894 0.0
H996 H 0.73626 0.53317 0.01125 0.0
H997 H 0.75314 0.51233 0.01779 0.0
H998 H 0.72591 0.49253 0.03354 0.0
H999 H 0.70874 0.50489 0.06034 0.0
H1000 H 0.04395 0.20945 0.07318 0.0
H1001 H 0.05784 0.22614 0.04664 0.0
H1002 H 0.07213 0.28122 0.07685 0.0
H1003 H 0.05738 0.26518 0.10333 0.0
H1004 H 0.04279 0.26615 0.03223 0.0
H1005 H 0.12692 0.26658 0.04946 0.0
H1006 H 0.10859 0.24888 0.0596 0.0
H1007 H 0.10953 0.27559 0.06634 0.0
C1008 C 0.0499 0.22517 0.07426 0.0
C1009 C 0.04935 0.23595 0.09052 0.0
C1010 C 0.058 0.2346 0.05905 0.0
C1011 C 0.06613 0.25482 0.05984 0.0
C1012 C 0.06617 0.26547 0.07605 0.0
H1013 H 0.12072 0.34069 0.98461 0.0
H1014 H 0.10802 0.32244 0.01086 0.0
C1015 C 0.05782 0.25618 0.09123 0.0
C1016 C 0.07356 0.26522 0.0435 0.0
H1017 H 0.11686 0.28506 0.02368 0.0
C1018 C 0.05899 0.27022 0.03027 0.0
C1019 C 0.09466 0.27057 0.04111 0.0
C1020 C 0.11093 0.26504 0.05479 0.0
C1021 C 0.06489 0.28093 0.01482 0.0
C1022 C 0.08607 0.28622 0.01232 0.0
C1023 C 0.10064 0.28104 0.02557 0.0
C1024 C 0.09345 0.29734 0.9962 0.0
C1025 C 0.04822 0.287 1.00165 0.0
C1026 C 0.08969 0.28925 0.97917 0.0
C1027 C 0.09691 0.29969 0.96409 0.0
C1028 C 0.10832 0.31833 0.96572 0.0
C1029 C 0.11214 0.32631 0.98282 0.0
C1030 C 0.10484 0.31591 0.99787 0.0
H1031 H 0.0327 0.28763 0.00796 0.0
H1032 H 0.05159 0.30236 0.99556 0.0
H1033 H 0.04741 0.2752 0.99094 0.0
H1034 H 0.08146 0.27465 0.97753 0.0
H1035 H 0.09404 0.29284 0.95119 0.0
H1036 H 0.84184 0.99599 0.93815 0.0
H1037 H 0.85954 0.98139 0.96398 0.0
H1038 H 0.85713 0.9206 0.93994 0.0
H1039 H 0.84001 0.93541 0.91367 0.0
H1040 H 0.84826 0.95417 0.98753 0.0
H1041 H 0.91684 0.92255 0.95278 0.0
H1042 H 0.89828 0.93908 0.94176 0.0
H1043 H 0.89269 0.91188 0.94496 0.0
C1044 C 0.84512 0.9795 0.93834 0.0
C1045 C 0.83964 0.96685 0.92384 0.0
C1046 C 0.85526 0.97116 0.95313 0.0
C1047 C 0.86009 0.94994 0.95384 0.0
C1048 C 0.85422 0.93713 0.93952 0.0
H1049 H 0.9202 0.8763 0.03633 0.0
H1050 H 0.9013 0.8883 0.01014 0.0
C1051 C 0.84433 0.94557 0.92454 0.0
C1052 C 0.87095 0.94143 0.96976 0.0
H1053 H 0.91398 0.91477 0.98339 0.0
C1054 C 0.86267 0.94561 0.98659 0.0
C1055 C 0.88972 0.93016 0.9686 0.0
C1056 C 0.90002 0.92581 0.95107 0.0
C1057 C 0.8726 0.93892 1.00223 0.0
C1058 C 0.89147 0.92789 1.00106 0.0
C1059 C 0.89956 0.92333 0.98426 0.0
C1060 C 0.90305 0.92084 0.01708 0.0
C1061 C 0.86263 0.94349 0.01984 0.0
C1062 C 0.91062 0.93518 0.02963 0.0
C1063 C 0.92166 0.92838 0.04463 0.0
C1064 C 0.92549 0.90709 0.04732 0.0
C1065 C 0.91793 0.89283 0.03461 0.0
C1066 C 0.90696 0.89964 0.01965 0.0
H1067 H 0.84583 0.94696 0.01832 0.0
H1068 H 0.86441 0.93021 0.02915 0.0
H1069 H 0.87029 0.95729 0.02586 0.0
H1070 H 0.90819 0.95167 0.02772 0.0
H1071 H 0.92746 0.93984 0.05396 0.0
H1072 H 0.46714 0.32296 0.52822 0.0
H1073 H 0.47517 0.30456 0.50057 0.0
H1074 H 0.53343 0.28454 0.52316 0.0
H1075 H 0.52523 0.30191 0.55084 0.0
H1076 H 0.50871 0.3101 0.47775 0.0
H1077 H 0.5089 0.23036 0.50541 0.0
H1078 H 0.49806 0.25209 0.5172 0.0
H1079 H 0.52565 0.24769 0.51751 0.0
C1080 C 0.48148 0.31432 0.52739 0.0
C1081 C 0.49551 0.31392 0.54179 0.0
C1082 C 0.48611 0.30397 0.51154 0.0
C1083 C 0.50474 0.29289 0.50991 0.0
C1084 C 0.51876 0.29259 0.52422 0.0
H1085 H 0.57714 0.22536 0.43606 0.0
H1086 H 0.56097 0.24267 0.46105 0.0
C1087 C 0.51414 0.30279 0.54 0.0
C1088 C 0.50998 0.28198 0.49321 0.0
H1089 H 0.52527 0.23495 0.47728 0.0
C1090 C 0.51205 0.29361 0.47753 0.0
C1091 C 0.5143 0.26046 0.49298 0.0
C1092 C 0.51142 0.24688 0.50914 0.0
C1093 C 0.5194 0.28451 0.46184 0.0
C1094 C 0.52441 0.26311 0.4618 0.0
C1095 C 0.52157 0.25137 0.47733 0.0
C1096 C 0.5339 0.25276 0.44625 0.0
C1097 C 0.5226 0.29813 0.44575 0.0
C1098 C 0.524 0.25246 0.42956 0.0
C1099 C 0.53332 0.24258 0.41513 0.0
C1100 C 0.5525 0.23251 0.41724 0.0
C1101 C 0.56221 0.23269 0.43402 0.0
C1102 C 0.55302 0.24268 0.44833 0.0
H1103 H 0.52309 0.31488 0.44928 0.0
H1104 H 0.53722 0.29416 0.43885 0.0
H1105 H 0.50948 0.29573 0.43633 0.0
H1106 H 0.50898 0.25966 0.42773 0.0
H1107 H 0.52536 0.24251 0.40242 0.0
H1108 H 0.81115 0.46428 0.57325 0.0
H1109 H 0.83094 0.47691 0.54792 0.0
H1110 H 0.88809 0.46552 0.57639 0.0
H1111 H 0.86854 0.45133 0.60127 0.0
H1112 H 0.85815 0.50801 0.54304 0.0
H1113 H 0.89774 0.43287 0.53196 0.0
H1114 H 0.87626 0.43545 0.54701 0.0
H1115 H 0.90204 0.44318 0.55377 0.0
C1116 C 0.82794 0.46421 0.57411 0.0
C1117 C 0.83819 0.45636 0.58926 0.0
C1118 C 0.83924 0.47165 0.55964 0.0
C1119 C 0.86102 0.47164 0.56006 0.0
C1120 C 0.8713 0.46508 0.57556 0.0
H1121 H 0.95473 0.50827 0.48342 0.0
H1122 H 0.93581 0.49823 0.51021 0.0
C1123 C 0.86004 0.4573 0.58993 0.0
C1124 C 0.87289 0.47807 0.54414 0.0
H1125 H 0.90916 0.46143 0.51457 0.0
C1126 C 0.86926 0.4978 0.53679 0.0
C1127 C 0.88729 0.46467 0.53592 0.0
C1128 C 0.89094 0.44279 0.54244 0.0
C1129 C 0.87987 0.50461 0.52161 0.0
C1130 C 0.89437 0.49128 0.51354 0.0
C1131 C 0.89808 0.47161 0.52089 0.0
C1132 C 0.90571 0.49737 0.49731 0.0
C1133 C 0.87574 0.5261 0.51444 0.0
C1134 C 0.89506 0.49986 0.48115 0.0
C1135 C 0.9058 0.50562 0.46583 0.0
C1136 C 0.92743 0.50895 0.46636 0.0
C1137 C 0.93806 0.50608 0.48257 0.0
C1138 C 0.92731 0.50027 0.49787 0.0
H1139 H 0.86716 0.53583 0.52405 0.0
H1140 H 0.89055 0.53405 0.51103 0.0
H1141 H 0.86626 0.52486 0.50212 0.0
H1142 H 0.87842 0.49739 0.48042 0.0
H1143 H 0.89706 0.50792 0.45366 0.0
H1144 H 0.07128 0.08833 0.56202 0.0
H1145 H 0.06113 0.10658 0.535 0.0
H1146 H 0.11999 0.09164 0.51141 0.0
H1147 H 0.12978 0.07213 0.53799 0.0
H1148 H 0.07838 0.14007 0.5198 0.0
H1149 H 0.08124 0.0744 0.47227 0.0
H1150 H 0.08259 0.07054 0.49598 0.0
H1151 H 0.10522 0.07889 0.48394 0.0
C1152 C 0.08195 0.08847 0.55099 0.0
C1153 C 0.10134 0.07852 0.55225 0.0
C1154 C 0.07617 0.09914 0.53556 0.0
C1155 C 0.08963 0.10025 0.52102 0.0
C1156 C 0.1091 0.09061 0.52227 0.0
H1157 H 0.07516 0.15857 0.41653 0.0
H1158 H 0.08905 0.14097 0.44293 0.0
C1159 C 0.11483 0.07972 0.53764 0.0
C1160 C 0.08344 0.11209 0.50486 0.0
H1161 H 0.0755 0.1078 0.46012 0.0
C1162 C 0.07773 0.13299 0.50676 0.0
C1163 C 0.08276 0.10294 0.48778 0.0
C1164 C 0.0881 0.08041 0.48484 0.0
C1165 C 0.07144 0.145 0.49211 0.0
C1166 C 0.07031 0.13572 0.4751 0.0
C1167 C 0.07634 0.11492 0.47315 0.0
C1168 C 0.06223 0.14703 0.45927 0.0
C1169 C 0.06648 0.16763 0.49504 0.0
C1170 C 0.04244 0.15606 0.45955 0.0
C1171 C 0.03459 0.16623 0.44458 0.0
C1172 C 0.04617 0.16729 0.42883 0.0
C1173 C 0.06585 0.15797 0.42844 0.0
C1174 C 0.07381 0.14796 0.44353 0.0
H1175 H 0.0747 0.17385 0.50692 0.0
H1176 H 0.07079 0.17726 0.48337 0.0
H1177 H 0.04956 0.16925 0.49733 0.0
H1178 H 0.03287 0.15495 0.47127 0.0
H1179 H 0.01918 0.17285 0.44521 0.0
H1180 H 0.69971 0.86565 0.47819 0.0
H1181 H 0.71573 0.87919 0.5052 0.0
H1182 H 0.69242 0.94025 0.49294 0.0
H1183 H 0.67506 0.92656 0.46649 0.0
H1184 H 0.74508 0.90691 0.51045 0.0
H1185 H 0.67385 0.93508 0.54306 0.0
H1186 H 0.67293 0.9191 0.52344 0.0
H1187 H 0.67736 0.9467 0.52165 0.0
C1188 C 0.69753 0.88188 0.48137 0.0
C1189 C 0.68573 0.89488 0.47015 0.0
C1190 C 0.70695 0.88966 0.49679 0.0
C1191 C 0.70497 0.91066 0.50137 0.0
C1192 C 0.69371 0.92385 0.49 0.0
H1193 H 0.75865 0.99142 0.58042 0.0
H1194 H 0.74279 0.97535 0.55426 0.0
C1195 C 0.68404 0.91603 0.47467 0.0
C1196 C 0.71511 0.91879 0.5178 0.0
H1197 H 0.7061 0.94645 0.55564 0.0
C1198 C 0.73648 0.91538 0.52039 0.0
C1199 C 0.70392 0.92973 0.53091 0.0
C1200 C 0.68072 0.93267 0.52973 0.0
C1201 C 0.74701 0.92309 0.53543 0.0
C1202 C 0.73589 0.93452 0.54816 0.0
C1203 C 0.71455 0.93775 0.54574 0.0
C1204 C 0.74624 0.94387 0.56385 0.0
C1205 C 0.77003 0.91944 0.53744 0.0
C1206 C 0.75336 0.93144 0.57793 0.0
C1207 C 0.76249 0.94058 0.59295 0.0
C1208 C 0.76469 0.9623 0.59406 0.0
C1209 C 0.75752 0.97464 0.57987 0.0
C1210 C 0.74833 0.96551 0.56495 0.0
H1211 H 0.77688 0.91254 0.52533 0.0
H1212 H 0.7782 0.93429 0.54045 0.0
H1213 H 0.77282 0.90871 0.54875 0.0
H1214 H 0.75166 0.91469 0.57736 0.0
H1215 H 0.76794 0.93066 0.60361 0.0
H1216 H 0.89009 0.27771 0.28031 0.0
H1217 H 0.85611 0.28266 0.26569 0.0
H1218 H 0.8296 0.23524 0.29938 0.0
H1219 H 0.86295 0.23104 0.31435 0.0
H1220 H 0.83125 0.25925 0.24698 0.0
H1221 H 0.78868 0.27965 0.30745 0.0
H1222 H 0.81664 0.27819 0.30715 0.0
H1223 H 0.80109 0.25515 0.31088 0.0
C1224 C 0.87691 0.26844 0.28452 0.0
C1225 C 0.87897 0.25423 0.2986 0.0
C1226 C 0.85754 0.27129 0.27624 0.0
C1227 C 0.84006 0.25985 0.28186 0.0
C1228 C 0.84253 0.24493 0.29532 0.0
H1229 H 0.72193 0.21972 0.24691 0.0
H1230 H 0.75568 0.22672 0.26061 0.0
C1231 C 0.86166 0.24236 0.30374 0.0
C1232 C 0.81931 0.2627 0.27345 0.0
H1233 H 0.76768 0.26511 0.28346 0.0
C1234 C 0.8174 0.26096 0.25493 0.0
C1235 C 0.80116 0.26545 0.28373 0.0
C1236 C 0.80205 0.26998 0.30337 0.0
C1237 C 0.79778 0.26032 0.24662 0.0
C1238 C 0.77973 0.26107 0.25716 0.0
C1239 C 0.78161 0.26403 0.2755 0.0
C1240 C 0.75879 0.25759 0.24953 0.0
C1241 C 0.7964 0.25815 0.22672 0.0
C1242 C 0.74914 0.27291 0.23923 0.0
C1243 C 0.72955 0.26921 0.23173 0.0
C1244 C 0.71934 0.24994 0.23416 0.0
C1245 C 0.729 0.23483 0.2449 0.0
C1246 C 0.74845 0.2387 0.2526 0.0
H1247 H 0.81184 0.25562 0.22063 0.0
H1248 H 0.78596 0.245 0.22311 0.0
H1249 H 0.78964 0.27251 0.22098 0.0
H1250 H 0.7568 0.2877 0.23694 0.0
H1251 H 0.7225 0.28147 0.22395 0.0
H1252 H 0.57817 0.77018 0.30862 0.0
H1253 H 0.57644 0.74166 0.28739 0.0
H1254 H 0.64327 0.74089 0.2848 0.0
H1255 H 0.64524 0.76971 0.3057 0.0
H1256 H 0.58925 0.73857 0.25356 0.0
H1257 H 0.63072 0.68055 0.29448 0.0
H1258 H 0.62174 0.70484 0.30342 0.0
H1259 H 0.64589 0.70375 0.29153 0.0
C1260 C 0.59258 0.76409 0.30354 0.0
C1261 C 0.6119 0.77239 0.3091 0.0
C1262 C 0.59152 0.74763 0.29142 0.0
C1263 C 0.60971 0.7388 0.28471 0.0
C1264 C 0.62899 0.74703 0.29014 0.0
H1265 H 0.64392 0.64506 0.2086 0.0
H1266 H 0.64205 0.67387 0.22955 0.0
C1267 C 0.63009 0.76355 0.30219 0.0
C1268 C 0.60859 0.72134 0.27172 0.0
H1269 H 0.62677 0.67249 0.26368 0.0
C1270 C 0.59732 0.72406 0.25583 0.0
C1271 C 0.61886 0.70225 0.27473 0.0
C1272 C 0.62978 0.69756 0.29205 0.0
C1273 C 0.59681 0.7086 0.24262 0.0
C1274 C 0.60781 0.68986 0.24537 0.0
C1275 C 0.61862 0.68696 0.26143 0.0
C1276 C 0.60858 0.6731 0.23177 0.0
C1277 C 0.58498 0.71274 0.22563 0.0
C1278 C 0.59039 0.66305 0.22592 0.0
C1279 C 0.59135 0.64679 0.21362 0.0
C1280 C 0.6106 0.63986 0.20709 0.0
C1281 C 0.62879 0.65007 0.21297 0.0
C1282 C 0.62777 0.66647 0.22515 0.0
H1283 H 0.58162 0.72953 0.22384 0.0
H1284 H 0.59375 0.70718 0.21395 0.0
H1285 H 0.56991 0.70428 0.226 0.0
H1286 H 0.57542 0.66753 0.23108 0.0
H1287 H 0.57693 0.63961 0.20934 0.0
H1288 H 0.88962 0.12899 0.23761 0.0
H1289 H 0.85527 0.12395 0.25127 0.0
H1290 H 0.8302 0.17193 0.21738 0.0
H1291 H 0.86392 0.17615 0.20329 0.0
H1292 H 0.83041 0.14696 0.26958 0.0
H1293 H 0.7887 0.12794 0.20773 0.0
H1294 H 0.81667 0.12934 0.20875 0.0
H1295 H 0.80151 0.15248 0.20498 0.0
C1296 C 0.87667 0.13836 0.23315 0.0
C1297 C 0.87923 0.15275 0.21928 0.0
C1298 C 0.85709 0.13546 0.24088 0.0
C1299 C 0.83991 0.14704 0.23492 0.0
C1300 C 0.84289 0.16214 0.22169 0.0
H1301 H 0.72123 0.1863 0.26698 0.0
H1302 H 0.75519 0.17963 0.2541 0.0
C1303 C 0.86223 0.16474 0.21379 0.0
C1304 C 0.81893 0.14412 0.24275 0.0
H1305 H 0.76747 0.14202 0.23139 0.0
C1306 C 0.81668 0.14547 0.26125 0.0
C1307 C 0.80094 0.14164 0.23196 0.0
C1308 C 0.80213 0.13751 0.21229 0.0
C1309 C 0.79692 0.14595 0.26906 0.0
C1310 C 0.77906 0.14546 0.25805 0.0
C1311 C 0.78125 0.14292 0.23972 0.0
C1312 C 0.758 0.14875 0.2652 0.0
C1313 C 0.79521 0.14769 0.28895 0.0
C1314 C 0.74811 0.13333 0.27525 0.0
C1315 C 0.72841 0.13686 0.28228 0.0
C1316 C 0.71831 0.15604 0.27963 0.0
C1317 C 0.72821 0.17125 0.26915 0.0
C1318 C 0.74778 0.16756 0.26192 0.0
H1319 H 0.81055 0.15027 0.29545 0.0
H1320 H 0.78471 0.16062 0.29253 0.0
H1321 H 0.78838 0.13311 0.29431 0.0
H1322 H 0.75566 0.11859 0.27768 0.0
H1323 H 0.72117 0.12453 0.28987 0.0
H1324 H 0.97688 0.75861 0.19848 0.0
H1325 H 0.98075 0.72947 0.21906 0.0
H1326 H 0.03566 0.75816 0.24141 0.0
H1327 H 0.03186 0.78742 0.22091 0.0
H1328 H 0.01188 0.70166 0.22348 0.0
H1329 H 1.00298 0.74685 0.28569 0.0
H1330 H 0.9974 0.75784 0.26414 0.0
H1331 H 0.02383 0.7554 0.27173 0.0
C1332 C 0.98989 0.75869 0.20767 0.0
C1333 C 1.00401 0.77547 0.20801 0.0
C1334 C 0.99202 0.74204 0.21952 0.0
C1335 C 0.00828 0.74173 0.23205 0.0
C1336 C 0.02265 0.75824 0.23223 0.0
H1337 H 0.03285 0.65033 0.3167 0.0
H1338 H 0.03582 0.67981 0.29628 0.0
C1339 C 0.02047 0.77497 0.22043 0.0
C1340 C 0.01017 0.72394 0.24468 0.0
H1341 H 0.00984 0.71107 0.28876 0.0
C1342 C 0.01145 0.70375 0.23776 0.0
C1343 C 0.00995 0.72661 0.26335 0.0
C1344 C 0.0083 0.74782 0.27172 0.0
C1345 C 0.01224 0.68621 0.24889 0.0
C1346 C 0.01113 0.68881 0.26752 0.0
C1347 C 0.01054 0.70903 0.27449 0.0
C1348 C 0.00953 0.67078 0.27993 0.0
C1349 C 0.0145 0.66507 0.24051 0.0
C1350 C 0.99349 0.65609 0.27785 0.0
C1351 C 0.99164 0.63931 0.28956 0.0
C1352 C 0.00573 0.63676 0.30377 0.0
C1353 C 0.02161 0.65173 0.30601 0.0
C1354 C 0.02342 0.66858 0.29427 0.0
H1355 H 0.02223 0.66617 0.2274 0.0
H1356 H 0.0236 0.65442 0.24914 0.0
H1357 H 0.99885 0.65818 0.23831 0.0
H1358 H 0.98213 0.65775 0.26728 0.0
H1359 H 0.97884 0.62855 0.28762 0.0
H1360 H 0.22147 0.02312 0.73053 0.0
H1361 H 0.2493 0.02076 0.75262 0.0
H1362 H 0.28058 0.97563 0.72039 0.0
H1363 H 0.25265 0.97745 0.69838 0.0
H1364 H 0.26482 0.98739 0.77218 0.0
H1365 H 0.32576 0.01939 0.72778 0.0
H1366 H 0.29849 0.02044 0.72219 0.0
H1367 H 0.31262 0.99664 0.71958 0.0
C1368 C 0.23405 0.01242 0.72818 0.0
C1369 C 0.23474 1.00065 0.71244 0.0
C1370 C 0.25009 0.01122 0.74082 0.0
C1371 C 0.26732 0.99839 0.738 0.0
C1372 C 0.26776 0.98608 0.72266 0.0
H1373 H 0.383 0.98613 0.80016 0.0
H1374 H 0.35553 0.98162 0.77776 0.0
C1375 C 0.2517 0.98718 0.71005 0.0
C1376 C 0.28474 0.99796 0.75115 0.0
H1377 H 0.33648 0.00891 0.7564 0.0
C1378 C 0.28049 0.99208 0.76872 0.0
C1379 C 0.30529 1.0038 0.74662 0.0
C1380 C 0.31087 0.01059 0.72806 0.0
C1381 C 0.29612 0.992 0.78186 0.0
C1382 C 0.31651 0.99858 0.77749 0.0
C1383 C 0.32088 1.00395 0.75982 0.0
C1384 C 0.33323 1.00099 0.79119 0.0
C1385 C 0.29062 0.98452 0.80024 0.0
C1386 C 0.33013 0.01375 0.806 0.0
C1387 C 0.34578 0.0164 0.81877 0.0
C1388 C 0.36511 0.0065 0.81704 0.0
C1389 C 0.36839 0.99405 0.80197 0.0
C1390 C 0.35263 0.99137 0.78917 0.0
H1391 H 0.27717 0.97362 0.79989 0.0
H1392 H 0.30393 0.9766 0.80674 0.0
H1393 H 0.28618 0.99803 0.80848 0.0
H1394 H 0.31564 0.02197 0.80761 0.0
H1395 H 0.34281 0.02657 0.82988 0.0
H1396 H 0.85368 0.11887 0.75022 0.0
H1397 H 0.85687 0.15272 0.76516 0.0
H1398 H 0.84747 0.18395 0.71512 0.0
H1399 H 0.84401 0.15049 0.70018 0.0
H1400 H 0.88608 0.19224 0.75163 0.0
H1401 H 0.80015 0.20093 0.75495 0.0
H1402 H 0.81265 0.17585 0.75417 0.0
H1403 H 0.81101 0.1915 0.73453 0.0
C1404 C 0.85235 0.13296 0.74243 0.0
C1405 C 0.84867 0.13199 0.72401 0.0
C1406 C 0.85433 0.15222 0.75094 0.0
C1407 C 0.85247 0.1707 0.74116 0.0
C1408 C 0.84908 0.16979 0.72282 0.0
H1409 H 0.83444 0.30047 0.76389 0.0
H1410 H 0.83805 0.26636 0.7501 0.0
C1411 C 0.84719 0.15065 0.71432 0.0
C1412 C 0.85271 0.19109 0.7501 0.0
H1413 H 0.82055 0.22993 0.76325 0.0
C1414 C 0.87181 0.20048 0.75435 0.0
C1415 C 0.83404 0.20174 0.75339 0.0
C1416 C 0.8132 0.19207 0.74914 0.0
C1417 C 0.87269 0.22058 0.76161 0.0
C1418 C 0.85395 0.23128 0.76484 0.0
C1419 C 0.83488 0.22173 0.76069 0.0
C1420 C 0.85357 0.25236 0.77266 0.0
C1421 C 0.8936 0.23041 0.76529 0.0
C1422 C 0.86111 0.25577 0.78991 0.0
C1423 C 0.85885 0.27516 0.79793 0.0
C1424 C 0.84897 0.29157 0.78885 0.0
C1425 C 0.84189 0.28818 0.77138 0.0
C1426 C 0.84407 0.26873 0.76342 0.0
H1427 H 0.90625 0.22239 0.7581 0.0
H1428 H 0.89366 0.24707 0.76141 0.0
H1429 H 0.89705 0.22945 0.77971 0.0
H1430 H 0.86805 0.24322 0.79744 0.0
H1431 H 0.86409 0.27698 0.81152 0.0
H1432 H 0.22304 0.36392 0.78332 0.0
H1433 H 0.25189 0.36584 0.7627 0.0
H1434 H 0.27963 0.41526 0.79342 0.0
H1435 H 0.25041 0.41405 0.81392 0.0
H1436 H 0.26523 0.39905 0.74208 0.0
H1437 H 0.32757 0.37438 0.78885 0.0
H1438 H 0.30036 0.37182 0.79411 0.0
H1439 H 0.31302 0.39672 0.79554 0.0
C1440 C 0.23505 0.37545 0.78568 0.0
C1441 C 0.23416 0.38886 0.80042 0.0
C1442 C 0.2517 0.37637 0.7739 0.0
C1443 C 0.26812 0.39046 0.77663 0.0
C1444 C 0.26738 0.40393 0.79124 0.0
H1445 H 0.38219 0.40468 0.71339 0.0
H1446 H 0.35531 0.40942 0.73594 0.0
C1447 C 0.2506 0.40316 0.80299 0.0
C1448 C 0.28561 0.39124 0.76382 0.0
H1449 H 0.33772 0.38269 0.75962 0.0
C1450 C 0.28109 0.39553 0.74594 0.0
C1451 C 0.30638 0.38695 0.76888 0.0
C1452 C 0.31219 0.38205 0.78786 0.0
C1453 C 0.29663 0.39533 0.73295 0.0
C1454 C 0.31725 0.39013 0.73784 0.0
C1455 C 0.32192 0.38654 0.75583 0.0
C1456 C 0.33382 0.38721 0.72436 0.0
C1457 C 0.29077 0.4009 0.71411 0.0
C1458 C 0.33099 0.37275 0.71064 0.0
C1459 C 0.3463 0.36994 0.69782 0.0
C1460 C 0.36498 0.38144 0.69839 0.0
C1461 C 0.36806 0.39552 0.71248 0.0
C1462 C 0.35265 0.39834 0.72535 0.0
H1463 H 0.27686 0.41102 0.71368 0.0
H1464 H 0.30371 0.40899 0.70724 0.0
H1465 H 0.28694 0.38648 0.7067 0.0
H1466 H 0.31694 0.36345 0.70988 0.0
H1467 H 0.34353 0.35852 0.68753 0.0
H1468 H 0.72001 0.13671 0.79836 0.0
H1469 H 0.71639 0.17053 0.78385 0.0
H1470 H 0.77916 0.16631 0.76482 0.0
H1471 H 0.78321 0.13292 0.77955 0.0
H1472 H 0.73833 0.20607 0.78995 0.0
H1473 H 0.74823 0.18236 0.72017 0.0
H1474 H 0.74324 0.16387 0.7377 0.0
H1475 H 0.76926 0.17321 0.73376 0.0
C1476 C 0.73307 0.14293 0.79106 0.0
C1477 C 0.75191 0.13194 0.79013 0.0
C1478 C 0.73091 0.16224 0.7827 0.0
C1479 C 0.74741 0.17082 0.77302 0.0
C1480 C 0.76607 0.15978 0.77185 0.0
H1481 H 0.79074 0.2827 0.72677 0.0
H1482 H 0.78414 0.24846 0.73949 0.0
C1483 C 0.76831 0.14058 0.78026 0.0
C1484 C 0.74577 0.19181 0.76497 0.0
H1485 H 0.75488 0.21854 0.7266 0.0
C1486 C 0.74159 0.2088 0.77604 0.0
C1487 C 0.74975 0.19533 0.74677 0.0
C1488 C 0.75264 0.17768 0.73389 0.0
C1489 C 0.74258 0.2293 0.76961 0.0
C1490 C 0.7479 0.23281 0.75167 0.0
C1491 C 0.7511 0.21579 0.74042 0.0
C1492 C 0.75162 0.25397 0.74455 0.0
C1493 C 0.73885 0.24706 0.7822 0.0
C1494 C 0.73551 0.26848 0.74328 0.0
C1495 C 0.73931 0.2883 0.73629 0.0
C1496 C 0.75926 0.2939 0.73028 0.0
C1497 C 0.77531 0.27921 0.73162 0.0
C1498 C 0.77152 0.2595 0.73869 0.0
H1499 H 0.73834 0.24183 0.79626 0.0
H1500 H 0.75117 0.2591 0.78084 0.0
H1501 H 0.72375 0.25439 0.77891 0.0
H1502 H 0.71996 0.26441 0.74749 0.0
H1503 H 0.72658 0.29919 0.73557 0.0
loop_
_geom_bond_atom_site_label_1
_geom_bond_atom_site_label_2
_geom_bond_distance
_geom_bond_site_symmetry_2
_ccdc_geom_bond_type
C0 C1 1.264 . S
C0 C5 1.479 . S
C0 C10 1.465 . S
C1 C0 1.264 . S
C1 C3 1.339 . S
C1 H28 0.931 . S
C2 C3 1.395 . S
C2 C4 1.320 . S
C3 C1 1.339 . S
C3 C2 1.395 . S
C3 H29 0.929 . S
C4 C2 1.320 . S
C4 C5 1.405 . S
C4 H30 0.930 . S
C5 C0 1.479 . S
C5 C4 1.405 . S
C5 H31 0.931 . S
U6 O7 2.454 . S
U6 O8 2.458 . S
U6 C9 2.984 . S
U6 C10 2.847 . S
U6 C23 2.882 . S
U6 O24 2.441 . S
U6 O25 2.420 . S
U6 O26 2.455 . S
U6 O27 2.449 . S
O7 U6 2.454 . S
O7 C9 1.353 . S
O8 U6 2.458 . S
O8 C9 1.286 . S
C9 U6 2.984 . S
C9 O7 1.353 . S
C9 O8 1.286 . S
C9 C11 1.363 . S
C10 C0 1.465 . S
C10 U6 2.847 . S
C10 O24 1.249 . S
C10 O25 1.202 . S
C11 C9 1.363 . S
C11 C13 1.408 . S
C11 C16 1.342 . S
C12 C13 1.310 . S
C12 C15 1.461 . S
C12 H32 0.932 . S
C13 C11 1.408 . S
C13 C12 1.310 . S
C13 H33 0.930 . S
C14 C15 1.474 . S
C14 C16 1.285 . S
C14 H34 0.929 . S
C15 C12 1.461 . S
C15 C14 1.474 . S
C16 C11 1.342 . S
C16 C14 1.285 . S
C16 H35 0.930 . S
C17 C20 1.424 . S
C17 C22 1.245 . S
C17 C23 1.428 . S
C18 C21 1.260 . S
C18 C22 1.477 . S
C18 H36 0.932 . S
C19 C20 1.384 . S
C19 C21 1.479 . S
C19 H37 0.929 . S
C20 C17 1.424 . S
C20 C19 1.384 . S
C20 H38 0.928 . S
C21 C18 1.260 . S
C21 C19 1.479 . S
C22 C17 1.245 . S
C22 C18 1.477 . S
C22 H39 0.932 . S
C23 U6 2.882 . S
C23 C17 1.428 . S
C23 O26 1.301 . S
C23 O27 1.282 . S
O24 U6 2.441 . S
O24 C10 1.249 . S
O25 U6 2.420 . S
O25 C10 1.202 . S
O26 U6 2.455 . S
O26 C23 1.301 . S
O27 U6 2.449 . S
O27 C23 1.282 . S
H28 C1 0.931 . S
H29 C3 0.929 . S
H30 C4 0.930 . S
H31 C5 0.931 . S
H32 C12 0.932 . S
H33 C13 0.930 . S
H34 C14 0.929 . S
H35 C16 0.930 . S
H36 C18 0.932 . S
H37 C19 0.929 . S
H38 C20 0.928 . S
H39 C22 0.932 . S
C40 C41 1.264 . S
C40 C45 1.479 . S
C40 C50 1.465 . S
C41 C40 1.264 . S
C41 C43 1.339 . S
C41 H68 0.931 . S
C42 C43 1.395 . S
C42 C44 1.320 . S
C43 C41 1.339 . S
C43 C42 1.395 . S
C43 H69 0.929 . S
C44 C42 1.320 . S
C44 C45 1.405 . S
C44 H70 0.930 . S
C45 C40 1.479 . S
C45 C44 1.405 . S
C45 H71 0.931 . S
U46 O47 2.454 . S
U46 O48 2.458 . S
U46 C49 2.984 . S
U46 C50 2.847 . S
U46 C63 2.882 . S
U46 O64 2.441 . S
U46 O65 2.420 . S
U46 O66 2.455 . S
U46 O67 2.449 . S
O47 U46 2.454 . S
O47 C49 1.353 . S
O48 U46 2.458 . S
O48 C49 1.286 . S
C49 U46 2.984 . S
C49 O47 1.353 . S
C49 O48 1.286 . S
C49 C51 1.363 . S
C50 C40 1.465 . S
C50 U46 2.847 . S
C50 O64 1.249 . S
C50 O65 1.202 . S
C51 C49 1.363 . S
C51 C53 1.408 . S
C51 C56 1.342 . S
C52 C53 1.310 . S
C52 C55 1.461 . S
C52 H72 0.932 . S
C53 C51 1.408 . S
C53 C52 1.310 . S
C53 H73 0.930 . S
C54 C55 1.474 . S
C54 C56 1.285 . S
C54 H74 0.929 . S
C55 C52 1.461 . S
C55 C54 1.474 . S
C56 C51 1.342 . S
C56 C54 1.285 . S
C56 H75 0.930 . S
C57 C60 1.424 . S
C57 C62 1.245 . S
C57 C63 1.428 . S
C58 C61 1.260 . S
C58 C62 1.477 . S
C58 H76 0.932 . S
C59 C60 1.384 . S
C59 C61 1.479 . S
C59 H77 0.929 . S
C60 C57 1.424 . S
C60 C59 1.384 . S
C60 H78 0.928 . S
C61 C58 1.260 . S
C61 C59 1.479 . S
C62 C57 1.245 . S
C62 C58 1.477 . S
C62 H79 0.932 . S
C63 U46 2.882 . S
C63 C57 1.428 . S
C63 O66 1.301 . S
C63 O67 1.282 . S
O64 U46 2.441 . S
O64 C50 1.249 . S
O65 U46 2.420 . S
O65 C50 1.202 . S
O66 U46 2.455 . S
O66 C63 1.301 . S
O67 U46 2.449 . S
O67 C63 1.282 . S
H68 C41 0.931 . S
H69 C43 0.929 . S
H70 C44 0.930 . S
H71 C45 0.931 . S
H72 C52 0.932 . S
H73 C53 0.930 . S
H74 C54 0.929 . S
H75 C56 0.930 . S
H76 C58 0.932 . S
H77 C59 0.929 . S
H78 C60 0.928 . S
H79 C62 0.932 . S
C80 C81 1.264 . S
C80 C85 1.479 . S
C80 C90 1.465 . S
C81 C80 1.264 . S
C81 C83 1.339 . S
C81 H108 0.931 . S
C82 C83 1.395 . S
C82 C84 1.320 . S
C83 C81 1.339 . S
C83 C82 1.395 . S
C83 H109 0.929 . S
C84 C82 1.320 . S
C84 C85 1.405 . S
C84 H110 0.930 . S
C85 C80 1.479 . S
C85 C84 1.405 . S
C85 H111 0.931 . S
U86 O87 2.454 . S
U86 O88 2.458 . S
U86 C89 2.984 . S
U86 C90 2.847 1_455 S
U86 C103 2.882 . S
U86 O104 2.441 1_455 S
U86 O105 2.420 1_455 S
U86 O106 2.455 . S
U86 O107 2.449 . S
O87 U86 2.454 . S
O87 C89 1.353 . S
O88 U86 2.458 . S
O88 C89 1.286 . S
C89 U86 2.984 . S
C89 O87 1.353 . S
C89 O88 1.286 . S
C89 C91 1.363 . S
C90 C80 1.465 . S
C90 U86 2.847 1_655 S
C90 O104 1.249 . S
C90 O105 1.202 . S
C91 C89 1.363 . S
C91 C93 1.408 . S
C91 C96 1.342 . S
C92 C93 1.310 . S
C92 C95 1.461 . S
C92 H112 0.932 . S
C93 C91 1.408 . S
C93 C92 1.310 . S
C93 H113 0.930 . S
C94 C95 1.474 . S
C94 C96 1.285 . S
C94 H114 0.929 . S
C95 C92 1.461 . S
C95 C94 1.474 . S
C96 C91 1.342 . S
C96 C94 1.285 . S
C96 H115 0.930 . S
C97 C100 1.424 . S
C97 C102 1.245 . S
C97 C103 1.428 . S
C98 C101 1.260 . S
C98 C102 1.477 . S
C98 H116 0.932 . S
C99 C100 1.384 . S
C99 C101 1.479 . S
C99 H117 0.929 . S
C100 C97 1.424 . S
C100 C99 1.384 . S
C100 H118 0.928 . S
C101 C98 1.260 . S
C101 C99 1.479 . S
C102 C97 1.245 . S
C102 C98 1.477 . S
C102 H119 0.932 . S
C103 U86 2.882 . S
C103 C97 1.428 . S
C103 O106 1.301 . S
C103 O107 1.282 . S
O104 U86 2.441 1_655 S
O104 C90 1.249 . S
O105 U86 2.420 1_655 S
O105 C90 1.202 . S
O106 U86 2.455 . S
O106 C103 1.301 . S
O107 U86 2.449 . S
O107 C103 1.282 . S
H108 C81 0.931 . S
H109 C83 0.929 . S
H110 C84 0.930 . S
H111 C85 0.931 . S
H112 C92 0.932 . S
H113 C93 0.930 . S
H114 C94 0.929 . S
H115 C96 0.930 . S
H116 C98 0.932 . S
H117 C99 0.929 . S
H118 C100 0.928 . S
H119 C102 0.932 . S
C120 C121 1.264 . S
C120 C125 1.479 . S
C120 C130 1.465 . S
C121 C120 1.264 . S
C121 C123 1.339 . S
C121 H148 0.931 . S
C122 C123 1.395 . S
C122 C124 1.320 . S
C123 C121 1.339 . S
C123 C122 1.395 . S
C123 H149 0.929 . S
C124 C122 1.320 . S
C124 C125 1.405 . S
C124 H150 0.930 . S
C125 C120 1.479 . S
C125 C124 1.405 . S
C125 H151 0.931 . S
U126 O127 2.454 . S
U126 O128 2.458 1_655 S
U126 C129 2.984 1_655 S
U126 C130 2.847 . S
U126 C143 2.882 . S
U126 O144 2.441 . S
U126 O145 2.420 . S
U126 O146 2.455 . S
U126 O147 2.449 . S
O127 U126 2.454 . S
O127 C129 1.354 1_655 S
O128 U126 2.458 1_455 S
O128 C129 1.286 . S
C129 U126 2.984 1_455 S
C129 O127 1.354 1_455 S
C129 O128 1.286 . S
C129 C131 1.363 . S
C130 C120 1.465 . S
C130 U126 2.847 . S
C130 O144 1.249 . S
C130 O145 1.202 . S
C131 C129 1.363 . S
C131 C133 1.418 . S
C131 C136 1.342 . S
C132 C133 1.323 . S
C132 C135 1.461 . S
C132 H152 0.932 . S
C133 C131 1.418 . S
C133 C132 1.323 . S
C133 H153 0.911 1_455 S
C134 C135 1.474 . S
C134 C136 1.285 . S
C134 H154 0.929 . S
C135 C132 1.461 . S
C135 C134 1.474 . S
C136 C131 1.342 . S
C136 C134 1.285 . S
C136 H155 0.930 . S
C137 C140 1.424 . S
C137 C142 1.245 . S
C137 C143 1.428 1_455 S
C138 C141 1.260 . S
C138 C142 1.477 . S
C138 H156 0.932 . S
C139 C140 1.384 . S
C139 C141 1.479 . S
C139 H157 0.929 . S
C140 C137 1.424 . S
C140 C139 1.384 . S
C140 H158 0.927 1_455 S
C141 C138 1.260 . S
C141 C139 1.479 . S
C142 C137 1.245 . S
C142 C138 1.477 . S
C142 H159 0.932 . S
C143 U126 2.882 . S
C143 C137 1.428 1_655 S
C143 O146 1.301 . S
C143 O147 1.282 . S
O144 U126 2.441 . S
O144 C130 1.249 . S
O145 U126 2.420 . S
O145 C130 1.202 . S
O146 U126 2.455 . S
O146 C143 1.301 . S
O147 U126 2.449 . S
O147 C143 1.282 . S
H148 C121 0.931 . S
H149 C123 0.929 . S
H150 C124 0.930 . S
H151 C125 0.931 . S
H152 C132 0.932 . S
H153 C133 0.911 1_655 S
H154 C134 0.929 . S
H155 C136 0.930 . S
H156 C138 0.932 . S
H157 C139 0.929 . S
H158 C140 0.927 1_655 S
H159 C142 0.932 . S
C160 C161 1.264 . S
C160 C165 1.479 . S
C160 C170 1.465 . S
C161 C160 1.264 . S
C161 C163 1.339 . S
C161 H188 0.931 . S
C162 C163 1.395 . S
C162 C164 1.320 . S
C163 C161 1.339 . S
C163 C162 1.395 . S
C163 H189 0.929 . S
C164 C162 1.320 . S
C164 C165 1.405 . S
C164 H190 0.930 . S
C165 C160 1.479 . S
C165 C164 1.405 . S
C165 H191 0.931 . S
U166 O167 2.454 . S
U166 O168 2.458 . S
U166 C169 2.984 . S
U166 C170 2.847 . S
U166 C183 2.882 . S
U166 O184 2.441 . S
U166 O185 2.420 . S
U166 O186 2.455 . S
U166 O187 2.449 . S
O167 U166 2.454 . S
O167 C169 1.353 . S
O168 U166 2.458 . S
O168 C169 1.286 . S
C169 U166 2.984 . S
C169 O167 1.353 . S
C169 O168 1.286 . S
C169 C171 1.363 . S
C170 C160 1.465 . S
C170 U166 2.847 . S
C170 O184 1.249 . S
C170 O185 1.202 . S
C171 C169 1.363 . S
C171 C173 1.408 . S
C171 C176 1.342 . S
C172 C173 1.310 . S
C172 C175 1.461 . S
C172 H192 0.932 . S
C173 C171 1.408 . S
C173 C172 1.310 . S
C173 H193 0.930 . S
C174 C175 1.474 . S
C174 C176 1.285 . S
C174 H194 0.929 . S
C175 C172 1.461 . S
C175 C174 1.474 . S
C176 C171 1.342 . S
C176 C174 1.285 . S
C176 H195 0.930 . S
C177 C180 1.424 . S
C177 C182 1.245 . S
C177 C183 1.428 . S
C178 C181 1.260 . S
C178 C182 1.477 . S
C178 H196 0.932 . S
C179 C180 1.384 . S
C179 C181 1.479 . S
C179 H197 0.929 . S
C180 C177 1.424 . S
C180 C179 1.384 . S
C180 H198 0.928 . S
C181 C178 1.260 . S
C181 C179 1.479 . S
C182 C177 1.245 . S
C182 C178 1.477 . S
C182 H199 0.932 . S
C183 U166 2.882 . S
C183 C177 1.428 . S
C183 O186 1.301 . S
C183 O187 1.282 . S
O184 U166 2.441 . S
O184 C170 1.249 . S
O185 U166 2.420 . S
O185 C170 1.202 . S
O186 U166 2.455 . S
O186 C183 1.301 . S
O187 U166 2.449 . S
O187 C183 1.282 . S
H188 C161 0.931 . S
H189 C163 0.929 . S
H190 C164 0.930 . S
H191 C165 0.931 . S
H192 C172 0.932 . S
H193 C173 0.930 . S
H194 C174 0.929 . S
H195 C176 0.930 . S
H196 C178 0.932 . S
H197 C179 0.929 . S
H198 C180 0.928 . S
H199 C182 0.932 . S
C200 C201 1.264 . S
C200 C205 1.479 . S
C200 C210 1.465 . S
C201 C200 1.264 . S
C201 C203 1.339 . S
C201 H228 0.931 . S
C202 C203 1.395 . S
C202 C204 1.320 . S
C203 C201 1.339 . S
C203 C202 1.395 . S
C203 H229 0.929 . S
C204 C202 1.320 . S
C204 C205 1.405 . S
C204 H230 0.930 . S
C205 C200 1.479 . S
C205 C204 1.405 . S
C205 H231 0.931 . S
U206 O207 2.454 . S
U206 O208 2.458 1_655 S
U206 C209 2.985 1_655 S
U206 C210 2.847 . S
U206 C223 2.882 . S
U206 O224 2.441 . S
U206 O225 2.420 . S
U206 O226 2.455 . S
U206 O227 2.449 . S
O207 U206 2.454 . S
O207 C209 1.355 1_655 S
O208 U206 2.458 1_455 S
O208 C209 1.285 . S
C209 U206 2.985 1_455 S
C209 O207 1.355 1_455 S
C209 O208 1.285 . S
C209 C211 1.362 . S
C210 C200 1.465 . S
C210 U206 2.847 . S
C210 O224 1.249 . S
C210 O225 1.202 . S
C211 C209 1.362 . S
C211 C213 1.419 . S
C211 C216 1.342 . S
C212 C213 1.324 . S
C212 C215 1.461 . S
C212 H232 0.932 . S
C213 C211 1.419 . S
C213 C212 1.324 . S
C213 H233 0.909 1_455 S
C214 C215 1.474 . S
C214 C216 1.285 . S
C214 H234 0.929 . S
C215 C212 1.461 . S
C215 C214 1.474 . S
C216 C211 1.342 . S
C216 C214 1.285 . S
C216 H235 0.930 . S
C217 C220 1.424 . S
C217 C222 1.245 . S
C217 C223 1.428 1_455 S
C218 C221 1.260 . S
C218 C222 1.477 . S
C218 H236 0.932 . S
C219 C220 1.384 . S
C219 C221 1.479 . S
C219 H237 0.929 . S
C220 C217 1.424 . S
C220 C219 1.384 . S
C220 H238 0.923 1_455 S
C221 C218 1.260 . S
C221 C219 1.479 . S
C222 C217 1.245 . S
C222 C218 1.477 . S
C222 H239 0.932 . S
C223 U206 2.882 . S
C223 C217 1.428 1_655 S
C223 O226 1.301 . S
C223 O227 1.282 . S
O224 U206 2.441 . S
O224 C210 1.249 . S
O225 U206 2.420 . S
O225 C210 1.202 . S
O226 U206 2.455 . S
O226 C223 1.301 . S
O227 U206 2.449 . S
O227 C223 1.282 . S
H228 C201 0.931 . S
H229 C203 0.929 . S
H230 C204 0.930 . S
H231 C205 0.931 . S
H232 C212 0.932 . S
H233 C213 0.909 1_655 S
H234 C214 0.929 . S
H235 C216 0.930 . S
H236 C218 0.932 . S
H237 C219 0.929 . S
H238 C220 0.923 1_655 S
H239 C222 0.932 . S
C240 C241 1.264 . S
C240 C245 1.479 . S
C240 C250 1.465 . S
C241 C240 1.264 . S
C241 C243 1.339 . S
C241 H268 0.931 . S
C242 C243 1.395 . S
C242 C244 1.320 . S
C243 C241 1.339 . S
C243 C242 1.395 . S
C243 H269 0.929 . S
C244 C242 1.320 . S
C244 C245 1.405 . S
C244 H270 0.930 . S
C245 C240 1.479 . S
C245 C244 1.405 . S
C245 H271 0.931 . S
U246 O247 2.454 . S
U246 O248 2.458 . S
U246 C249 2.984 . S
U246 C250 2.847 1_455 S
U246 C263 2.882 . S
U246 O264 2.441 1_455 S
U246 O265 2.420 1_455 S
U246 O266 2.455 . S
U246 O267 2.449 . S
O247 U246 2.454 . S
O247 C249 1.353 . S
O248 U246 2.458 . S
O248 C249 1.286 . S
C249 U246 2.984 . S
C249 O247 1.353 . S
C249 O248 1.286 . S
C249 C251 1.363 . S
C250 C240 1.465 . S
C250 U246 2.847 1_655 S
C250 O264 1.249 . S
C250 O265 1.202 . S
C251 C249 1.363 . S
C251 C253 1.408 . S
C251 C256 1.342 . S
C252 C253 1.310 . S
C252 C255 1.461 . S
C252 H272 0.932 . S
C253 C251 1.408 . S
C253 C252 1.310 . S
C253 H273 0.930 . S
C254 C255 1.474 . S
C254 C256 1.285 . S
C254 H274 0.929 . S
C255 C252 1.461 . S
C255 C254 1.474 . S
C256 C251 1.342 . S
C256 C254 1.285 . S
C256 H275 0.930 . S
C257 C260 1.424 . S
C257 C262 1.245 . S
C257 C263 1.428 . S
C258 C261 1.260 . S
C258 C262 1.477 . S
C258 H276 0.932 . S
C259 C260 1.384 . S
C259 C261 1.479 . S
C259 H277 0.929 . S
C260 C257 1.424 . S
C260 C259 1.384 . S
C260 H278 0.928 . S
C261 C258 1.260 . S
C261 C259 1.479 . S
C262 C257 1.245 . S
C262 C258 1.477 . S
C262 H279 0.932 . S
C263 U246 2.882 . S
C263 C257 1.428 . S
C263 O266 1.301 . S
C263 O267 1.282 . S
O264 U246 2.441 1_655 S
O264 C250 1.249 . S
O265 U246 2.420 1_655 S
O265 C250 1.202 . S
O266 U246 2.455 . S
O266 C263 1.301 . S
O267 U246 2.449 . S
O267 C263 1.282 . S
H268 C241 0.931 . S
H269 C243 0.929 . S
H270 C244 0.930 . S
H271 C245 0.931 . S
H272 C252 0.932 . S
H273 C253 0.930 . S
H274 C254 0.929 . S
H275 C256 0.930 . S
H276 C258 0.932 . S
H277 C259 0.929 . S
H278 C260 0.928 . S
H279 C262 0.932 . S
C280 C281 1.264 . S
C280 C285 1.479 . S
C280 C290 1.465 . S
C281 C280 1.264 . S
C281 C283 1.339 . S
C281 H308 0.931 . S
C282 C283 1.395 . S
C282 C284 1.320 . S
C283 C281 1.339 . S
C283 C282 1.395 . S
C283 H309 0.929 . S
C284 C282 1.320 . S
C284 C285 1.405 . S
C284 H310 0.930 . S
C285 C280 1.479 . S
C285 C284 1.405 . S
C285 H311 0.931 . S
U286 O287 2.454 . S
U286 O288 2.458 . S
U286 C289 2.984 . S
U286 C290 2.847 . S
U286 C303 2.882 . S
U286 O304 2.441 . S
U286 O305 2.420 . S
U286 O306 2.455 . S
U286 O307 2.449 . S
O287 U286 2.454 . S
O287 C289 1.353 . S
O288 U286 2.458 . S
O288 C289 1.286 . S
C289 U286 2.984 . S
C289 O287 1.353 . S
C289 O288 1.286 . S
C289 C291 1.363 . S
C290 C280 1.465 . S
C290 U286 2.847 . S
C290 O304 1.249 . S
C290 O305 1.202 . S
C291 C289 1.363 . S
C291 C293 1.408 . S
C291 C296 1.342 . S
C292 C293 1.310 . S
C292 C295 1.461 . S
C292 H312 0.932 . S
C293 C291 1.408 . S
C293 C292 1.310 . S
C293 H313 0.930 . S
C294 C295 1.474 . S
C294 C296 1.285 . S
C294 H314 0.929 . S
C295 C292 1.461 . S
C295 C294 1.474 . S
C296 C291 1.342 . S
C296 C294 1.285 . S
C296 H315 0.930 . S
C297 C300 1.424 . S
C297 C302 1.245 . S
C297 C303 1.428 . S
C298 C301 1.260 . S
C298 C302 1.477 . S
C298 H316 0.932 . S
C299 C300 1.384 . S
C299 C301 1.479 . S
C299 H317 0.929 . S
C300 C297 1.424 . S
C300 C299 1.384 . S
C300 H318 0.928 . S
C301 C298 1.260 . S
C301 C299 1.479 . S
C302 C297 1.245 . S
C302 C298 1.477 . S
C302 H319 0.932 . S
C303 U286 2.882 . S
C303 C297 1.428 . S
C303 O306 1.301 . S
C303 O307 1.282 . S
O304 U286 2.441 . S
O304 C290 1.249 . S
O305 U286 2.420 . S
O305 C290 1.202 . S
O306 U286 2.455 . S
O306 C303 1.301 . S
O307 U286 2.449 . S
O307 C303 1.282 . S
H308 C281 0.931 . S
H309 C283 0.929 . S
H310 C284 0.930 . S
H311 C285 0.931 . S
H312 C292 0.932 . S
H313 C293 0.930 . S
H314 C294 0.929 . S
H315 C296 0.930 . S
H316 C298 0.932 . S
H317 C299 0.929 . S
H318 C300 0.928 . S
H319 C302 0.932 . S
C320 C321 1.250 1_545 S
C320 C325 1.484 . S
C320 C330 1.480 . S
C321 C320 1.250 1_565 S
C321 C323 1.339 . S
C321 H348 0.931 . S
C322 C323 1.395 . S
C322 C324 1.320 . S
C323 C321 1.339 . S
C323 C322 1.395 . S
C323 H349 0.929 . S
C324 C322 1.320 . S
C324 C325 1.405 1_565 S
C324 H350 0.930 . S
C325 C320 1.484 . S
C325 C324 1.405 1_545 S
C325 H351 0.931 . S
U326 O327 2.454 . S
U326 O328 2.458 . S
U326 C329 2.984 . S
U326 C330 2.847 . S
U326 C343 2.882 . S
U326 O344 2.441 . S
U326 O345 2.420 . S
U326 O346 2.455 . S
U326 O347 2.449 . S
O327 U326 2.454 . S
O327 C329 1.353 . S
O328 U326 2.458 . S
O328 C329 1.286 . S
C329 U326 2.984 . S
C329 O327 1.353 . S
C329 O328 1.286 . S
C329 C331 1.363 . S
C330 C320 1.480 . S
C330 U326 2.847 . S
C330 O344 1.249 . S
C330 O345 1.202 . S
C331 C329 1.363 . S
C331 C333 1.408 . S
C331 C336 1.342 . S
C332 C333 1.310 . S
C332 C335 1.461 . S
C332 H352 0.932 . S
C333 C331 1.408 . S
C333 C332 1.310 . S
C333 H353 0.930 . S
C334 C335 1.474 . S
C334 C336 1.285 . S
C334 H354 0.929 . S
C335 C332 1.461 . S
C335 C334 1.474 . S
C336 C331 1.342 . S
C336 C334 1.285 . S
C336 H355 0.930 . S
C337 C340 1.424 . S
C337 C342 1.245 . S
C337 C343 1.428 1_565 S
C338 C341 1.260 . S
C338 C342 1.477 . S
C338 H356 0.932 . S
C339 C340 1.384 . S
C339 C341 1.479 . S
C339 H357 0.929 . S
C340 C337 1.424 . S
C340 C339 1.384 . S
C340 H358 0.928 . S
C341 C338 1.260 . S
C341 C339 1.479 . S
C342 C337 1.245 . S
C342 C338 1.477 . S
C342 H359 0.932 1_565 S
C343 U326 2.882 . S
C343 C337 1.428 1_545 S
C343 O346 1.301 . S
C343 O347 1.282 . S
O344 U326 2.441 . S
O344 C330 1.249 . S
O345 U326 2.420 . S
O345 C330 1.202 . S
O346 U326 2.455 . S
O346 C343 1.301 . S
O347 U326 2.449 . S
O347 C343 1.282 . S
H348 C321 0.931 . S
H349 C323 0.929 . S
H350 C324 0.930 . S
H351 C325 0.931 . S
H352 C332 0.932 . S
H353 C333 0.930 . S
H354 C334 0.929 . S
H355 C336 0.930 . S
H356 C338 0.932 . S
H357 C339 0.929 . S
H358 C340 0.928 . S
H359 C342 0.932 1_545 S
C360 C361 1.264 . S
C360 C365 1.479 . S
C360 C370 1.465 . S
C361 C360 1.264 . S
C361 C363 1.339 . S
C361 H388 0.931 . S
C362 C363 1.395 . S
C362 C364 1.320 . S
C363 C361 1.339 . S
C363 C362 1.395 . S
C363 H389 0.929 . S
C364 C362 1.320 . S
C364 C365 1.405 . S
C364 H390 0.930 . S
C365 C360 1.479 . S
C365 C364 1.405 . S
C365 H391 0.931 . S
U366 O367 2.454 . S
U366 O368 2.458 . S
U366 C369 2.984 . S
U366 C370 2.847 . S
U366 C383 2.882 . S
U366 O384 2.441 . S
U366 O385 2.420 . S
U366 O386 2.455 . S
U366 O387 2.449 . S
O367 U366 2.454 . S
O367 C369 1.353 . S
O368 U366 2.458 . S
O368 C369 1.286 . S
C369 U366 2.984 . S
C369 O367 1.353 . S
C369 O368 1.286 . S
C369 C371 1.363 . S
C370 C360 1.465 . S
C370 U366 2.847 . S
C370 O384 1.249 . S
C370 O385 1.202 . S
C371 C369 1.363 . S
C371 C373 1.408 . S
C371 C376 1.342 . S
C372 C373 1.310 . S
C372 C375 1.461 . S
C372 H392 0.932 . S
C373 C371 1.408 . S
C373 C372 1.310 . S
C373 H393 0.930 . S
C374 C375 1.474 . S
C374 C376 1.285 . S
C374 H394 0.929 . S
C375 C372 1.461 . S
C375 C374 1.474 . S
C376 C371 1.342 . S
C376 C374 1.285 . S
C376 H395 0.930 . S
C377 C380 1.424 . S
C377 C382 1.245 . S
C377 C383 1.428 . S
C378 C381 1.260 . S
C378 C382 1.477 . S
C378 H396 0.932 . S
C379 C380 1.384 . S
C379 C381 1.479 . S
C379 H397 0.929 . S
C380 C377 1.424 . S
C380 C379 1.384 . S
C380 H398 0.928 . S
C381 C378 1.260 . S
C381 C379 1.479 . S
C382 C377 1.245 . S
C382 C378 1.477 . S
C382 H399 0.932 . S
C383 U366 2.882 . S
C383 C377 1.428 . S
C383 O386 1.301 . S
C383 O387 1.282 . S
O384 U366 2.441 . S
O384 C370 1.249 . S
O385 U366 2.420 . S
O385 C370 1.202 . S
O386 U366 2.455 . S
O386 C383 1.301 . S
O387 U366 2.449 . S
O387 C383 1.282 . S
H388 C361 0.931 . S
H389 C363 0.929 . S
H390 C364 0.930 . S
H391 C365 0.931 . S
H392 C372 0.932 . S
H393 C373 0.930 . S
H394 C374 0.929 . S
H395 C376 0.930 . S
H396 C378 0.932 . S
H397 C379 0.929 . S
H398 C380 0.928 . S
H399 C382 0.932 . S
C400 C401 1.264 . S
C400 C405 1.479 . S
C400 C410 1.465 . S
C401 C400 1.264 . S
C401 C403 1.339 . S
C401 H428 0.931 . S
C402 C403 1.395 . S
C402 C404 1.320 . S
C403 C401 1.339 . S
C403 C402 1.395 . S
C403 H429 0.929 . S
C404 C402 1.320 . S
C404 C405 1.405 . S
C404 H430 0.930 . S
C405 C400 1.479 . S
C405 C404 1.405 . S
C405 H431 0.931 . S
U406 O407 2.454 . S
U406 O408 2.458 . S
U406 C409 2.984 . S
U406 C410 2.847 . S
U406 C423 2.882 . S
U406 O424 2.441 . S
U406 O425 2.420 . S
U406 O426 2.455 . S
U406 O427 2.449 . S
O407 U406 2.454 . S
O407 C409 1.353 . S
O408 U406 2.458 . S
O408 C409 1.286 . S
C409 U406 2.984 . S
C409 O407 1.353 . S
C409 O408 1.286 . S
C409 C411 1.363 . S
C410 C400 1.465 . S
C410 U406 2.847 . S
C410 O424 1.249 . S
C410 O425 1.202 . S
C411 C409 1.363 . S
C411 C413 1.408 . S
C411 C416 1.342 . S
C412 C413 1.310 . S
C412 C415 1.461 . S
C412 H432 0.932 . S
C413 C411 1.408 . S
C413 C412 1.310 . S
C413 H433 0.930 . S
C414 C415 1.474 . S
C414 C416 1.285 . S
C414 H434 0.929 . S
C415 C412 1.461 . S
C415 C414 1.474 . S
C416 C411 1.342 . S
C416 C414 1.285 . S
C416 H435 0.930 . S
C417 C420 1.424 . S
C417 C422 1.245 . S
C417 C423 1.428 . S
C418 C421 1.260 . S
C418 C422 1.477 . S
C418 H436 0.932 . S
C419 C420 1.384 . S
C419 C421 1.479 . S
C419 H437 0.929 . S
C420 C417 1.424 . S
C420 C419 1.384 . S
C420 H438 0.928 . S
C421 C418 1.260 . S
C421 C419 1.479 . S
C422 C417 1.245 . S
C422 C418 1.477 . S
C422 H439 0.932 . S
C423 U406 2.882 . S
C423 C417 1.428 . S
C423 O426 1.301 . S
C423 O427 1.282 . S
O424 U406 2.441 . S
O424 C410 1.249 . S
O425 U406 2.420 . S
O425 C410 1.202 . S
O426 U406 2.455 . S
O426 C423 1.301 . S
O427 U406 2.449 . S
O427 C423 1.282 . S
H428 C401 0.931 . S
H429 C403 0.929 . S
H430 C404 0.930 . S
H431 C405 0.931 . S
H432 C412 0.932 . S
H433 C413 0.930 . S
H434 C414 0.929 . S
H435 C416 0.930 . S
H436 C418 0.932 . S
H437 C419 0.929 . S
H438 C420 0.928 . S
H439 C422 0.932 . S
C440 C441 1.264 . S
C440 C445 1.479 . S
C440 C450 1.465 . S
C441 C440 1.264 . S
C441 C443 1.339 . S
C441 H468 0.931 . S
C442 C443 1.395 . S
C442 C444 1.320 . S
C443 C441 1.339 . S
C443 C442 1.395 . S
C443 H469 0.929 . S
C444 C442 1.320 . S
C444 C445 1.405 . S
C444 H470 0.930 . S
C445 C440 1.479 . S
C445 C444 1.405 . S
C445 H471 0.931 . S
U446 O447 2.454 1_565 S
U446 O448 2.458 1_565 S
U446 C449 2.984 1_565 S
U446 C450 2.847 . S
U446 C463 2.882 . S
U446 O464 2.441 . S
U446 O465 2.420 . S
U446 O466 2.455 . S
U446 O467 2.449 . S
O447 U446 2.454 1_545 S
O447 C449 1.353 . S
O448 U446 2.458 1_545 S
O448 C449 1.286 . S
C449 U446 2.984 1_545 S
C449 O447 1.353 . S
C449 O448 1.286 . S
C449 C451 1.363 . S
C450 C440 1.465 . S
C450 U446 2.847 . S
C450 O464 1.249 . S
C450 O465 1.202 . S
C451 C449 1.363 . S
C451 C453 1.408 . S
C451 C456 1.342 . S
C452 C453 1.310 . S
C452 C455 1.461 . S
C452 H472 0.932 . S
C453 C451 1.408 . S
C453 C452 1.310 . S
C453 H473 0.930 . S
C454 C455 1.474 . S
C454 C456 1.285 . S
C454 H474 0.929 . S
C455 C452 1.461 . S
C455 C454 1.474 . S
C456 C451 1.342 . S
C456 C454 1.285 . S
C456 H475 0.930 . S
C457 C460 1.424 . S
C457 C462 1.245 . S
C457 C463 1.428 . S
C458 C461 1.260 . S
C458 C462 1.477 . S
C458 H476 0.932 . S
C459 C460 1.384 . S
C459 C461 1.479 . S
C459 H477 0.929 . S
C460 C457 1.424 . S
C460 C459 1.384 . S
C460 H478 0.928 . S
C461 C458 1.260 . S
C461 C459 1.479 . S
C462 C457 1.245 . S
C462 C458 1.477 . S
C462 H479 0.932 . S
C463 U446 2.882 . S
C463 C457 1.428 . S
C463 O466 1.301 . S
C463 O467 1.282 . S
O464 U446 2.441 . S
O464 C450 1.249 . S
O465 U446 2.420 . S
O465 C450 1.202 . S
O466 U446 2.455 . S
O466 C463 1.301 . S
O467 U446 2.449 . S
O467 C463 1.282 . S
H468 C441 0.931 . S
H469 C443 0.929 . S
H470 C444 0.930 . S
H471 C445 0.931 . S
H472 C452 0.932 . S
H473 C453 0.930 . S
H474 C454 0.929 . S
H475 C456 0.930 . S
H476 C458 0.932 . S
H477 C459 0.929 . S
H478 C460 0.928 . S
H479 C462 0.932 . S
C480 C481 1.264 . S
C480 C485 1.479 . S
C480 C490 1.465 . S
C481 C480 1.264 . S
C481 C483 1.339 . S
C481 H508 0.931 . S
C482 C483 1.395 . S
C482 C484 1.320 . S
C483 C481 1.339 . S
C483 C482 1.395 . S
C483 H509 0.929 . S
C484 C482 1.320 . S
C484 C485 1.405 . S
C484 H510 0.930 . S
C485 C480 1.479 . S
C485 C484 1.405 . S
C485 H511 0.931 . S
U486 O487 2.454 . S
U486 O488 2.458 . S
U486 C489 2.984 . S
U486 C490 2.847 . S
U486 C503 2.882 . S
U486 O504 2.441 . S
U486 O505 2.420 . S
U486 O506 2.455 . S
U486 O507 2.449 . S
O487 U486 2.454 . S
O487 C489 1.353 . S
O488 U486 2.458 . S
O488 C489 1.286 . S
C489 U486 2.984 . S
C489 O487 1.353 . S
C489 O488 1.286 . S
C489 C491 1.363 . S
C490 C480 1.465 . S
C490 U486 2.847 . S
C490 O504 1.249 . S
C490 O505 1.202 . S
C491 C489 1.363 . S
C491 C493 1.408 . S
C491 C496 1.342 . S
C492 C493 1.310 . S
C492 C495 1.461 . S
C492 H512 0.932 . S
C493 C491 1.408 . S
C493 C492 1.310 . S
C493 H513 0.930 . S
C494 C495 1.474 . S
C494 C496 1.285 . S
C494 H514 0.929 . S
C495 C492 1.461 . S
C495 C494 1.474 . S
C496 C491 1.342 . S
C496 C494 1.285 . S
C496 H515 0.930 . S
C497 C500 1.424 . S
C497 C502 1.245 . S
C497 C503 1.428 . S
C498 C501 1.260 . S
C498 C502 1.477 . S
C498 H516 0.932 . S
C499 C500 1.384 . S
C499 C501 1.479 . S
C499 H517 0.929 . S
C500 C497 1.424 . S
C500 C499 1.384 . S
C500 H518 0.928 . S
C501 C498 1.260 . S
C501 C499 1.479 . S
C502 C497 1.245 . S
C502 C498 1.477 . S
C502 H519 0.932 . S
C503 U486 2.882 . S
C503 C497 1.428 . S
C503 O506 1.301 . S
C503 O507 1.282 . S
O504 U486 2.441 . S
O504 C490 1.249 . S
O505 U486 2.420 . S
O505 C490 1.202 . S
O506 U486 2.455 . S
O506 C503 1.301 . S
O507 U486 2.449 . S
O507 C503 1.282 . S
H508 C481 0.931 . S
H509 C483 0.929 . S
H510 C484 0.930 . S
H511 C485 0.931 . S
H512 C492 0.932 . S
H513 C493 0.930 . S
H514 C494 0.929 . S
H515 C496 0.930 . S
H516 C498 0.932 . S
H517 C499 0.929 . S
H518 C500 0.928 . S
H519 C502 0.932 . S
C520 C521 1.264 . S
C520 C525 1.479 . S
C520 C530 1.465 . S
C521 C520 1.264 . S
C521 C523 1.339 . S
C521 H548 0.931 . S
C522 C523 1.395 . S
C522 C524 1.320 . S
C523 C521 1.339 . S
C523 C522 1.395 . S
C523 H549 0.929 . S
C524 C522 1.320 . S
C524 C525 1.405 . S
C524 H550 0.930 . S
C525 C520 1.479 . S
C525 C524 1.405 . S
C525 H551 0.931 . S
U526 O527 2.454 . S
U526 O528 2.458 . S
U526 C529 2.984 . S
U526 C530 2.847 . S
U526 C543 2.882 . S
U526 O544 2.441 . S
U526 O545 2.420 . S
U526 O546 2.455 . S
U526 O547 2.449 . S
O527 U526 2.454 . S
O527 C529 1.353 . S
O528 U526 2.458 . S
O528 C529 1.286 . S
C529 U526 2.984 . S
C529 O527 1.353 . S
C529 O528 1.286 . S
C529 C531 1.363 . S
C530 C520 1.465 . S
C530 U526 2.847 . S
C530 O544 1.249 . S
C530 O545 1.202 . S
C531 C529 1.363 . S
C531 C533 1.408 . S
C531 C536 1.342 . S
C532 C533 1.310 . S
C532 C535 1.461 . S
C532 H552 0.932 . S
C533 C531 1.408 . S
C533 C532 1.310 . S
C533 H553 0.930 . S
C534 C535 1.474 . S
C534 C536 1.285 . S
C534 H554 0.929 . S
C535 C532 1.461 . S
C535 C534 1.474 . S
C536 C531 1.342 . S
C536 C534 1.285 . S
C536 H555 0.930 . S
C537 C540 1.424 . S
C537 C542 1.245 . S
C537 C543 1.428 . S
C538 C541 1.260 . S
C538 C542 1.477 . S
C538 H556 0.932 . S
C539 C540 1.384 . S
C539 C541 1.479 . S
C539 H557 0.929 . S
C540 C537 1.424 . S
C540 C539 1.384 . S
C540 H558 0.928 . S
C541 C538 1.260 . S
C541 C539 1.479 . S
C542 C537 1.245 . S
C542 C538 1.477 . S
C542 H559 0.932 . S
C543 U526 2.882 . S
C543 C537 1.428 . S
C543 O546 1.301 . S
C543 O547 1.282 . S
O544 U526 2.441 . S
O544 C530 1.249 . S
O545 U526 2.420 . S
O545 C530 1.202 . S
O546 U526 2.455 . S
O546 C543 1.301 . S
O547 U526 2.449 . S
O547 C543 1.282 . S
H548 C521 0.931 . S
H549 C523 0.929 . S
H550 C524 0.930 . S
H551 C525 0.931 . S
H552 C532 0.932 . S
H553 C533 0.930 . S
H554 C534 0.929 . S
H555 C536 0.930 . S
H556 C538 0.932 . S
H557 C539 0.929 . S
H558 C540 0.928 . S
H559 C542 0.932 . S
C560 C561 1.264 . S
C560 C565 1.479 . S
C560 C570 1.465 . S
C561 C560 1.264 . S
C561 C563 1.339 . S
C561 H588 0.931 . S
C562 C563 1.395 . S
C562 C564 1.320 . S
C563 C561 1.339 . S
C563 C562 1.395 . S
C563 H589 0.929 . S
C564 C562 1.320 . S
C564 C565 1.405 . S
C564 H590 0.930 . S
C565 C560 1.479 . S
C565 C564 1.405 . S
C565 H591 0.931 . S
U566 O567 2.454 . S
U566 O568 2.458 . S
U566 C569 2.984 . S
U566 C570 2.847 1_565 S
U566 C583 2.882 . S
U566 O584 2.441 1_565 S
U566 O585 2.420 . S
U566 O586 2.455 . S
U566 O587 2.449 . S
O567 U566 2.454 . S
O567 C569 1.353 . S
O568 U566 2.458 . S
O568 C569 1.286 . S
C569 U566 2.984 . S
C569 O567 1.353 . S
C569 O568 1.286 . S
C569 C571 1.363 . S
C570 C560 1.465 . S
C570 U566 2.847 1_545 S
C570 O584 1.249 . S
C570 O585 1.202 1_545 S
C571 C569 1.363 . S
C571 C573 1.408 . S
C571 C576 1.342 . S
C572 C573 1.310 . S
C572 C575 1.461 . S
C572 H592 0.932 . S
C573 C571 1.408 . S
C573 C572 1.310 . S
C573 H593 0.930 . S
C574 C575 1.474 . S
C574 C576 1.285 . S
C574 H594 0.929 . S
C575 C572 1.461 . S
C575 C574 1.474 . S
C576 C571 1.342 . S
C576 C574 1.285 . S
C576 H595 0.930 . S
C577 C580 1.424 . S
C577 C582 1.245 . S
C577 C583 1.428 . S
C578 C581 1.260 . S
C578 C582 1.477 . S
C578 H596 0.932 . S
C579 C580 1.384 . S
C579 C581 1.479 . S
C579 H597 0.929 . S
C580 C577 1.424 . S
C580 C579 1.384 . S
C580 H598 0.928 . S
C581 C578 1.260 . S
C581 C579 1.479 . S
C582 C577 1.245 . S
C582 C578 1.477 . S
C582 H599 0.932 . S
C583 U566 2.882 . S
C583 C577 1.428 . S
C583 O586 1.301 . S
C583 O587 1.282 . S
O584 U566 2.441 1_545 S
O584 C570 1.249 . S
O585 U566 2.420 . S
O585 C570 1.202 1_565 S
O586 U566 2.455 . S
O586 C583 1.301 . S
O587 U566 2.449 . S
O587 C583 1.282 . S
H588 C561 0.931 . S
H589 C563 0.929 . S
H590 C564 0.930 . S
H591 C565 0.931 . S
H592 C572 0.932 . S
H593 C573 0.930 . S
H594 C574 0.929 . S
H595 C576 0.930 . S
H596 C578 0.932 . S
H597 C579 0.929 . S
H598 C580 0.928 . S
H599 C582 0.932 . S
C600 C601 1.264 . S
C600 C605 1.479 . S
C600 C610 1.465 . S
C601 C600 1.264 . S
C601 C603 1.339 . S
C601 H628 0.931 . S
C602 C603 1.395 . S
C602 C604 1.320 . S
C603 C601 1.339 . S
C603 C602 1.395 . S
C603 H629 0.929 . S
C604 C602 1.320 . S
C604 C605 1.405 . S
C604 H630 0.930 . S
C605 C600 1.479 . S
C605 C604 1.405 . S
C605 H631 0.931 . S
U606 O607 2.454 . S
U606 O608 2.458 1_545 S
U606 C609 2.984 1_545 S
U606 C610 2.847 . S
U606 C623 2.882 1_545 S
U606 O624 2.441 . S
U606 O625 2.420 . S
U606 O626 2.455 1_545 S
U606 O627 2.449 . S
O607 U606 2.454 . S
O607 C609 1.353 1_545 S
O608 U606 2.458 1_565 S
O608 C609 1.286 . S
C609 U606 2.984 1_565 S
C609 O607 1.353 1_565 S
C609 O608 1.286 . S
C609 C611 1.363 . S
C610 C600 1.465 . S
C610 U606 2.847 . S
C610 O624 1.249 . S
C610 O625 1.202 . S
C611 C609 1.363 . S
C611 C613 1.408 . S
C611 C616 1.342 . S
C612 C613 1.310 . S
C612 C615 1.461 . S
C612 H632 0.932 . S
C613 C611 1.408 . S
C613 C612 1.310 . S
C613 H633 0.930 . S
C614 C615 1.474 . S
C614 C616 1.285 . S
C614 H634 0.929 . S
C615 C612 1.461 . S
C615 C614 1.474 . S
C616 C611 1.342 . S
C616 C614 1.285 . S
C616 H635 0.930 . S
C617 C620 1.424 . S
C617 C622 1.245 . S
C617 C623 1.428 . S
C618 C621 1.260 . S
C618 C622 1.477 . S
C618 H636 0.932 . S
C619 C620 1.384 . S
C619 C621 1.479 . S
C619 H637 0.929 . S
C620 C617 1.424 . S
C620 C619 1.384 . S
C620 H638 0.928 . S
C621 C618 1.260 . S
C621 C619 1.479 . S
C622 C617 1.245 . S
C622 C618 1.477 . S
C622 H639 0.932 . S
C623 U606 2.882 1_565 S
C623 C617 1.428 . S
C623 O626 1.301 . S
C623 O627 1.282 1_565 S
O624 U606 2.441 . S
O624 C610 1.249 . S
O625 U606 2.420 . S
O625 C610 1.202 . S
O626 U606 2.455 1_565 S
O626 C623 1.301 . S
O627 U606 2.449 . S
O627 C623 1.282 1_545 S
H628 C601 0.931 . S
H629 C603 0.929 . S
H630 C604 0.930 . S
H631 C605 0.931 . S
H632 C612 0.932 . S
H633 C613 0.930 . S
H634 C614 0.929 . S
H635 C616 0.930 . S
H636 C618 0.932 . S
H637 C619 0.929 . S
H638 C620 0.928 . S
H639 C622 0.932 . S
H640 C648 0.929 . S
H641 C650 0.930 . S
H642 C652 0.930 . S
H643 C655 0.929 . S
H644 C658 0.930 . S
H645 C660 0.960 . S
H646 C660 0.960 . S
H647 C660 0.960 . S
C648 H640 0.929 . S
C648 C649 1.377 . S
C648 C650 1.384 . S
C649 C648 1.377 . S
C649 C655 1.390 . S
C650 H641 0.930 . S
C650 C648 1.384 . S
C650 C651 1.372 . S
C651 C650 1.372 . S
C651 C652 1.400 . S
C651 C656 1.490 . S
C652 H642 0.930 . S
C652 C651 1.400 . S
C652 C655 1.386 . S
H653 C669 0.930 . S
H654 C670 0.931 . S
C655 H643 0.929 . S
C655 C649 1.390 . S
C655 C652 1.386 . S
C656 C651 1.490 . S
C656 C658 1.395 . S
C656 C659 1.403 . S
H657 C663 0.930 . S
C658 H644 0.930 . S
C658 C656 1.395 . S
C658 C661 1.403 . S
C659 C656 1.403 . S
C659 C660 1.524 . S
C659 C663 1.400 . S
C660 H645 0.960 . S
C660 H646 0.960 . S
C660 H647 0.960 . S
C660 C659 1.524 . S
C661 C658 1.403 . S
C661 C662 1.392 . S
C661 C665 1.495 . S
C662 C661 1.392 . S
C662 C663 1.385 . S
C662 C664 1.478 . S
C663 H657 0.930 . S
C663 C659 1.400 . S
C663 C662 1.385 . S
C664 C662 1.478 . S
C664 C666 1.384 . S
C664 C670 1.383 . S
C665 C661 1.495 . S
C665 H671 0.959 . S
C665 H672 0.961 . S
C665 H673 0.960 . S
C666 C664 1.384 . S
C666 C667 1.391 1_545 S
C666 H674 0.930 . S
C667 C666 1.391 1_565 S
C667 C668 1.383 . S
C667 H675 0.929 . S
C668 C667 1.383 . S
C668 C669 1.377 . S
C669 H653 0.930 . S
C669 C668 1.377 . S
C669 C670 1.379 1_565 S
C670 H654 0.931 . S
C670 C664 1.383 . S
C670 C669 1.379 1_545 S
H671 C665 0.959 . S
H672 C665 0.961 . S
H673 C665 0.960 . S
H674 C666 0.930 . S
H675 C667 0.929 . S
H676 C684 0.929 . S
H677 C686 0.930 . S
H678 C688 0.930 . S
H679 C691 0.929 . S
H680 C694 0.930 . S
H681 C696 0.960 . S
H682 C696 0.960 . S
H683 C696 0.960 . S
C684 H676 0.929 . S
C684 C685 1.377 . S
C684 C686 1.384 . S
C685 C684 1.377 . S
C685 C691 1.390 . S
C686 H677 0.930 . S
C686 C684 1.384 . S
C686 C687 1.372 . S
C687 C686 1.372 . S
C687 C688 1.400 . S
C687 C692 1.490 . S
C688 H678 0.930 . S
C688 C687 1.400 . S
C688 C691 1.386 . S
H689 C705 0.930 . S
H690 C706 0.931 . S
C691 H679 0.929 . S
C691 C685 1.390 . S
C691 C688 1.386 . S
C692 C687 1.490 . S
C692 C694 1.395 . S
C692 C695 1.403 . S
H693 C699 0.930 . S
C694 H680 0.930 . S
C694 C692 1.395 . S
C694 C697 1.403 . S
C695 C692 1.403 . S
C695 C696 1.524 . S
C695 C699 1.400 . S
C696 H681 0.960 . S
C696 H682 0.960 . S
C696 H683 0.960 . S
C696 C695 1.524 . S
C697 C694 1.403 . S
C697 C698 1.392 . S
C697 C701 1.495 . S
C698 C697 1.392 . S
C698 C699 1.385 . S
C698 C700 1.478 . S
C699 H693 0.930 . S
C699 C695 1.400 . S
C699 C698 1.385 . S
C700 C698 1.478 . S
C700 C702 1.381 . S
C700 C706 1.383 . S
C701 C697 1.495 . S
C701 H707 0.959 . S
C701 H708 0.961 . S
C701 H709 0.960 . S
C702 C700 1.381 . S
C702 C703 1.394 . S
C702 H710 0.930 . S
C703 C702 1.394 . S
C703 C704 1.383 . S
C703 H711 0.929 . S
C704 C703 1.383 . S
C704 C705 1.377 . S
C705 H689 0.930 . S
C705 C704 1.377 . S
C705 C706 1.379 . S
C706 H690 0.931 . S
C706 C700 1.383 . S
C706 C705 1.379 . S
H707 C701 0.959 . S
H708 C701 0.961 . S
H709 C701 0.960 . S
H710 C702 0.930 . S
H711 C703 0.929 . S
H712 C720 0.929 . S
H713 C722 0.930 . S
H714 C724 0.930 . S
H715 C727 0.929 . S
H716 C730 0.930 . S
H717 C732 0.988 . S
H718 C732 0.967 . S
H719 C732 0.956 1_455 S
C720 H712 0.929 . S
C720 C721 1.377 . S
C720 C722 1.384 . S
C721 C720 1.377 . S
C721 C727 1.390 . S
C722 H713 0.930 . S
C722 C720 1.384 . S
C722 C723 1.372 . S
C723 C722 1.372 . S
C723 C724 1.400 . S
C723 C728 1.490 . S
C724 H714 0.930 . S
C724 C723 1.400 . S
C724 C727 1.386 . S
H725 C741 0.930 . S
H726 C742 0.931 . S
C727 H715 0.929 . S
C727 C721 1.390 . S
C727 C724 1.386 . S
C728 C723 1.490 . S
C728 C730 1.395 . S
C728 C731 1.403 . S
H729 C735 0.930 . S
C730 H716 0.930 . S
C730 C728 1.395 . S
C730 C733 1.403 . S
C731 C728 1.403 . S
C731 C732 1.493 1_455 S
C731 C735 1.400 . S
C732 H717 0.988 . S
C732 H718 0.967 . S
C732 H719 0.956 1_655 S
C732 C731 1.493 1_655 S
C733 C730 1.403 . S
C733 C734 1.392 . S
C733 C737 1.495 . S
C734 C733 1.392 . S
C734 C735 1.385 . S
C734 C736 1.478 . S
C735 H729 0.930 . S
C735 C731 1.400 . S
C735 C734 1.385 . S
C736 C734 1.478 . S
C736 C738 1.381 . S
C736 C742 1.383 . S
C737 C733 1.495 . S
C737 H743 0.959 . S
C737 H744 0.961 . S
C737 H745 0.960 . S
C738 C736 1.381 . S
C738 C739 1.394 . S
C738 H746 0.930 . S
C739 C738 1.394 . S
C739 C740 1.383 . S
C739 H747 0.929 . S
C740 C739 1.383 . S
C740 C741 1.377 . S
C741 H725 0.930 . S
C741 C740 1.377 . S
C741 C742 1.379 . S
C742 H726 0.931 . S
C742 C736 1.383 . S
C742 C741 1.379 . S
H743 C737 0.959 . S
H744 C737 0.961 . S
H745 C737 0.960 . S
H746 C738 0.930 . S
H747 C739 0.929 . S
H748 C756 0.929 . S
H749 C758 0.930 . S
H750 C760 0.930 . S
H751 C763 0.929 . S
H752 C766 0.930 . S
H753 C768 0.960 . S
H754 C768 0.960 . S
H755 C768 0.960 . S
C756 H748 0.929 . S
C756 C757 1.377 . S
C756 C758 1.384 . S
C757 C756 1.377 . S
C757 C763 1.390 . S
C758 H749 0.930 . S
C758 C756 1.384 . S
C758 C759 1.372 . S
C759 C758 1.372 . S
C759 C760 1.400 . S
C759 C764 1.490 . S
C760 H750 0.930 . S
C760 C759 1.400 . S
C760 C763 1.386 . S
H761 C777 0.930 . S
H762 C778 0.931 . S
C763 H751 0.929 . S
C763 C757 1.390 . S
C763 C760 1.386 . S
C764 C759 1.490 . S
C764 C766 1.395 . S
C764 C767 1.403 . S
H765 C771 0.930 . S
C766 H752 0.930 . S
C766 C764 1.395 . S
C766 C769 1.403 . S
C767 C764 1.403 . S
C767 C768 1.524 . S
C767 C771 1.400 . S
C768 H753 0.960 . S
C768 H754 0.960 . S
C768 H755 0.960 . S
C768 C767 1.524 . S
C769 C766 1.403 . S
C769 C770 1.392 . S
C769 C773 1.495 1_455 S
C770 C769 1.392 . S
C770 C771 1.385 . S
C770 C772 1.478 . S
C771 H765 0.930 . S
C771 C767 1.400 . S
C771 C770 1.385 . S
C772 C770 1.478 . S
C772 C774 1.381 . S
C772 C778 1.383 . S
C773 C769 1.495 1_655 S
C773 H779 0.959 . S
C773 H780 0.961 . S
C773 H781 0.960 . S
C774 C772 1.381 . S
C774 C775 1.394 1_545 S
C774 H782 0.930 . S
C775 C774 1.394 1_565 S
C775 C776 1.383 . S
C775 H783 0.929 . S
C776 C775 1.383 . S
C776 C777 1.377 1_565 S
C777 H761 0.930 . S
C777 C776 1.377 1_545 S
C777 C778 1.379 . S
C778 H762 0.931 . S
C778 C772 1.383 . S
C778 C777 1.379 . S
H779 C773 0.959 . S
H780 C773 0.961 . S
H781 C773 0.960 . S
H782 C774 0.930 . S
H783 C775 0.929 . S
H784 C792 0.929 . S
H785 C794 0.930 . S
H786 C796 0.930 . S
H787 C799 0.929 . S
H788 C802 0.930 . S
H789 C804 0.985 . S
H790 C804 0.962 . S
H791 C804 0.962 . S
C792 H784 0.929 . S
C792 C793 1.377 . S
C792 C794 1.384 . S
C793 C792 1.377 . S
C793 C799 1.390 . S
C794 H785 0.930 . S
C794 C792 1.384 . S
C794 C795 1.372 . S
C795 C794 1.372 . S
C795 C796 1.400 . S
C795 C800 1.490 . S
C796 H786 0.930 . S
C796 C795 1.400 . S
C796 C799 1.386 . S
H797 C813 0.930 . S
H798 C814 0.931 . S
C799 H787 0.929 . S
C799 C793 1.390 . S
C799 C796 1.386 . S
C800 C795 1.490 . S
C800 C802 1.395 . S
C800 C803 1.403 . S
H801 C807 0.930 . S
C802 H788 0.930 . S
C802 C800 1.395 . S
C802 C805 1.403 . S
C803 C800 1.403 . S
C803 C804 1.497 1_565 S
C803 C807 1.400 . S
C804 H789 0.985 . S
C804 H790 0.962 . S
C804 H791 0.962 . S
C804 C803 1.497 1_545 S
C805 C802 1.403 . S
C805 C806 1.392 . S
C805 C809 1.495 . S
C806 C805 1.392 . S
C806 C807 1.385 . S
C806 C808 1.478 . S
C807 H801 0.930 . S
C807 C803 1.400 . S
C807 C806 1.385 . S
C808 C806 1.478 . S
C808 C810 1.381 . S
C808 C814 1.383 . S
C809 C805 1.495 . S
C809 H815 0.959 . S
C809 H816 0.961 . S
C809 H817 0.960 . S
C810 C808 1.381 . S
C810 C811 1.394 . S
C810 H818 0.930 . S
C811 C810 1.394 . S
C811 C812 1.383 . S
C811 H819 0.929 . S
C812 C811 1.383 . S
C812 C813 1.377 . S
C813 H797 0.930 . S
C813 C812 1.377 . S
C813 C814 1.379 . S
C814 H798 0.931 . S
C814 C808 1.383 . S
C814 C813 1.379 . S
H815 C809 0.959 . S
H816 C809 0.961 . S
H817 C809 0.960 . S
H818 C810 0.930 . S
H819 C811 0.929 . S
H820 C828 0.929 . S
H821 C830 0.930 . S
H822 C832 0.930 . S
H823 C835 0.929 . S
H824 C838 0.930 . S
H825 C840 0.960 . S
H826 C840 0.960 . S
H827 C840 0.960 . S
C828 H820 0.929 . S
C828 C829 1.377 . S
C828 C830 1.384 . S
C829 C828 1.377 . S
C829 C835 1.390 . S
C830 H821 0.930 . S
C830 C828 1.384 . S
C830 C831 1.372 . S
C831 C830 1.372 . S
C831 C832 1.400 . S
C831 C836 1.490 . S
C832 H822 0.930 . S
C832 C831 1.400 . S
C832 C835 1.386 . S
H833 C849 0.930 . S
H834 C850 0.931 . S
C835 H823 0.929 . S
C835 C829 1.390 . S
C835 C832 1.386 . S
C836 C831 1.490 . S
C836 C838 1.395 . S
C836 C839 1.403 . S
H837 C843 0.930 . S
C838 H824 0.930 . S
C838 C836 1.395 . S
C838 C841 1.403 . S
C839 C836 1.403 . S
C839 C840 1.524 . S
C839 C843 1.400 . S
C840 H825 0.960 . S
C840 H826 0.960 . S
C840 H827 0.960 . S
C840 C839 1.524 . S
C841 C838 1.403 . S
C841 C842 1.392 . S
C841 C845 1.495 . S
C842 C841 1.392 . S
C842 C843 1.385 . S
C842 C844 1.478 . S
C843 H837 0.930 . S
C843 C839 1.400 . S
C843 C842 1.385 . S
C844 C842 1.478 . S
C844 C846 1.381 . S
C844 C850 1.383 . S
C845 C841 1.495 . S
C845 H851 0.959 . S
C845 H852 0.961 . S
C845 H853 0.960 . S
C846 C844 1.381 . S
C846 C847 1.394 . S
C846 H854 0.930 . S
C847 C846 1.394 . S
C847 C848 1.383 . S
C847 H855 0.929 . S
C848 C847 1.383 . S
C848 C849 1.377 . S
C849 H833 0.930 . S
C849 C848 1.377 . S
C849 C850 1.379 . S
C850 H834 0.931 . S
C850 C844 1.383 . S
C850 C849 1.379 . S
H851 C845 0.959 . S
H852 C845 0.961 . S
H853 C845 0.960 . S
H854 C846 0.930 . S
H855 C847 0.929 . S
H856 C864 0.929 . S
H857 C866 0.930 . S
H858 C868 0.930 . S
H859 C871 0.929 . S
H860 C874 0.930 . S
H861 C876 0.960 . S
H862 C876 0.960 . S
H863 C876 0.960 . S
C864 H856 0.929 . S
C864 C865 1.377 . S
C864 C866 1.384 1_455 S
C865 C864 1.377 . S
C865 C871 1.390 . S
C866 H857 0.930 . S
C866 C864 1.384 1_655 S
C866 C867 1.372 . S
C867 C866 1.372 . S
C867 C868 1.400 . S
C867 C872 1.490 . S
C868 H858 0.930 . S
C868 C867 1.400 . S
C868 C871 1.386 1_655 S
H869 C885 0.930 . S
H870 C886 0.931 . S
C871 H859 0.929 . S
C871 C865 1.390 . S
C871 C868 1.386 1_455 S
C872 C867 1.490 . S
C872 C874 1.395 . S
C872 C875 1.403 . S
H873 C879 0.930 . S
C874 H860 0.930 . S
C874 C872 1.395 . S
C874 C877 1.403 . S
C875 C872 1.403 . S
C875 C876 1.524 . S
C875 C879 1.400 . S
C876 H861 0.960 . S
C876 H862 0.960 . S
C876 H863 0.960 . S
C876 C875 1.524 . S
C877 C874 1.403 . S
C877 C878 1.392 . S
C877 C881 1.495 . S
C878 C877 1.392 . S
C878 C879 1.385 . S
C878 C880 1.478 . S
C879 H873 0.930 . S
C879 C875 1.400 . S
C879 C878 1.385 . S
C880 C878 1.478 . S
C880 C882 1.381 . S
C880 C886 1.383 . S
C881 C877 1.495 . S
C881 H887 0.959 . S
C881 H888 0.961 . S
C881 H889 0.960 . S
C882 C880 1.381 . S
C882 C883 1.394 . S
C882 H890 0.930 . S
C883 C882 1.394 . S
C883 C884 1.383 . S
C883 H891 0.929 . S
C884 C883 1.383 . S
C884 C885 1.377 . S
C885 H869 0.930 . S
C885 C884 1.377 . S
C885 C886 1.379 . S
C886 H870 0.931 . S
C886 C880 1.383 . S
C886 C885 1.379 . S
H887 C881 0.959 . S
H888 C881 0.961 . S
H889 C881 0.960 . S
H890 C882 0.930 . S
H891 C883 0.929 . S
H892 C900 0.929 . S
H893 C902 0.930 . S
H894 C904 0.930 . S
H895 C907 0.929 . S
H896 C910 0.930 . S
H897 C912 0.960 . S
H898 C912 0.960 . S
H899 C912 0.960 . S
C900 H892 0.929 . S
C900 C901 1.377 . S
C900 C902 1.384 . S
C901 C900 1.377 . S
C901 C907 1.390 . S
C902 H893 0.930 . S
C902 C900 1.384 . S
C902 C903 1.372 . S
C903 C902 1.372 . S
C903 C904 1.400 . S
C903 C908 1.490 . S
C904 H894 0.930 . S
C904 C903 1.400 . S
C904 C907 1.386 . S
H905 C921 0.930 . S
H906 C922 0.931 . S
C907 H895 0.929 . S
C907 C901 1.390 . S
C907 C904 1.386 . S
C908 C903 1.490 . S
C908 C910 1.395 . S
C908 C911 1.403 . S
H909 C915 0.930 . S
C910 H896 0.930 . S
C910 C908 1.395 . S
C910 C913 1.403 . S
C911 C908 1.403 . S
C911 C912 1.524 . S
C911 C915 1.400 . S
C912 H897 0.960 . S
C912 H898 0.960 . S
C912 H899 0.960 . S
C912 C911 1.524 . S
C913 C910 1.403 . S
C913 C914 1.392 . S
C913 C917 1.495 . S
C914 C913 1.392 . S
C914 C915 1.385 . S
C914 C916 1.478 . S
C915 H909 0.930 . S
C915 C911 1.400 . S
C915 C914 1.385 . S
C916 C914 1.478 . S
C916 C918 1.381 . S
C916 C922 1.383 . S
C917 C913 1.495 . S
C917 H923 0.959 . S
C917 H924 0.961 . S
C917 H925 0.960 . S
C918 C916 1.381 . S
C918 C919 1.394 1_655 S
C918 H926 0.930 . S
C919 C918 1.394 1_455 S
C919 C920 1.383 . S
C919 H927 0.929 . S
C920 C919 1.383 . S
C920 C921 1.377 . S
C921 H905 0.930 . S
C921 C920 1.377 . S
C921 C922 1.379 1_455 S
C922 H906 0.931 . S
C922 C916 1.383 . S
C922 C921 1.379 1_655 S
H923 C917 0.959 . S
H924 C917 0.961 . S
H925 C917 0.960 . S
H926 C918 0.930 . S
H927 C919 0.929 . S
H928 C936 0.930 1_554 S
H929 C938 0.930 . S
H930 C940 0.930 . S
H931 C943 0.929 . S
H932 C946 0.930 . S
H933 C948 0.960 . S
H934 C948 0.960 1_556 S
H935 C948 0.960 1_556 S
C936 H928 0.930 1_556 S
C936 C937 1.373 . S
C936 C938 1.387 1_556 S
C937 C936 1.373 . S
C937 C943 1.390 . S
C938 H929 0.930 . S
C938 C936 1.387 1_554 S
C938 C939 1.372 . S
C939 C938 1.372 . S
C939 C940 1.400 1_554 S
C939 C944 1.490 . S
C940 H930 0.930 . S
C940 C939 1.400 1_556 S
C940 C943 1.386 . S
H941 C957 0.930 . S
H942 C958 0.931 . S
C943 H931 0.929 . S
C943 C937 1.390 . S
C943 C940 1.386 . S
C944 C939 1.490 . S
C944 C946 1.395 . S
C944 C947 1.403 . S
H945 C951 0.930 . S
C946 H932 0.930 . S
C946 C944 1.395 . S
C946 C949 1.403 . S
C947 C944 1.403 . S
C947 C948 1.524 . S
C947 C951 1.400 . S
C948 H933 0.960 . S
C948 H934 0.960 1_554 S
C948 H935 0.960 1_554 S
C948 C947 1.524 . S
C949 C946 1.403 . S
C949 C950 1.392 . S
C949 C953 1.495 . S
C950 C949 1.392 . S
C950 C951 1.385 . S
C950 C952 1.478 . S
C951 H945 0.930 . S
C951 C947 1.400 . S
C951 C950 1.385 . S
C952 C950 1.478 . S
C952 C954 1.381 . S
C952 C958 1.383 . S
C953 C949 1.495 . S
C953 H959 0.959 . S
C953 H960 0.961 . S
C953 H961 0.960 . S
C954 C952 1.381 . S
C954 C955 1.394 . S
C954 H962 0.930 . S
C955 C954 1.394 . S
C955 C956 1.383 . S
C955 H963 0.929 . S
C956 C955 1.383 . S
C956 C957 1.377 . S
C957 H941 0.930 . S
C957 C956 1.377 . S
C957 C958 1.379 . S
C958 H942 0.931 . S
C958 C952 1.383 . S
C958 C957 1.379 . S
H959 C953 0.959 . S
H960 C953 0.961 . S
H961 C953 0.960 . S
H962 C954 0.930 . S
H963 C955 0.929 . S
H964 C972 0.929 . S
H965 C974 0.930 . S
H966 C976 0.930 . S
H967 C979 0.929 . S
H968 C982 0.930 . S
H969 C984 0.960 . S
H970 C984 0.960 . S
H971 C984 0.960 . S
C972 H964 0.929 . S
C972 C973 1.377 . S
C972 C974 1.384 . S
C973 C972 1.377 . S
C973 C979 1.390 . S
C974 H965 0.930 . S
C974 C972 1.384 . S
C974 C975 1.372 . S
C975 C974 1.372 . S
C975 C976 1.400 . S
C975 C980 1.490 . S
C976 H966 0.930 . S
C976 C975 1.400 . S
C976 C979 1.386 . S
H977 C993 0.930 . S
H978 C994 0.931 . S
C979 H967 0.929 . S
C979 C973 1.390 . S
C979 C976 1.386 . S
C980 C975 1.490 . S
C980 C982 1.395 . S
C980 C983 1.403 . S
H981 C987 0.930 . S
C982 H968 0.930 . S
C982 C980 1.395 . S
C982 C985 1.403 . S
C983 C980 1.403 . S
C983 C984 1.524 . S
C983 C987 1.400 . S
C984 H969 0.960 . S
C984 H970 0.960 . S
C984 H971 0.960 . S
C984 C983 1.524 . S
C985 C982 1.403 . S
C985 C986 1.392 . S
C985 C989 1.495 . S
C986 C985 1.392 . S
C986 C987 1.385 . S
C986 C988 1.478 . S
C987 H981 0.930 . S
C987 C983 1.400 . S
C987 C986 1.385 . S
C988 C986 1.478 . S
C988 C990 1.381 1_556 S
C988 C994 1.383 . S
C989 C985 1.495 . S
C989 H995 0.959 . S
C989 H996 0.961 . S
C989 H997 0.960 1_556 S
C990 C988 1.381 1_554 S
C990 C991 1.394 . S
C990 H998 0.930 . S
C991 C990 1.394 . S
C991 C992 1.383 . S
C991 H999 0.929 . S
C992 C991 1.383 . S
C992 C993 1.377 . S
C993 H977 0.930 . S
C993 C992 1.377 . S
C993 C994 1.379 1_554 S
C994 H978 0.931 . S
C994 C988 1.383 . S
C994 C993 1.379 1_556 S
H995 C989 0.959 . S
H996 C989 0.961 . S
H997 C989 0.960 1_554 S
H998 C990 0.930 . S
H999 C991 0.929 . S
H1000 C1008 0.929 . S
H1001 C1010 0.930 . S
H1002 C1012 0.930 . S
H1003 C1015 0.929 . S
H1004 C1018 0.930 . S
H1005 C1020 0.960 . S
H1006 C1020 0.960 . S
H1007 C1020 0.960 . S
C1008 H1000 0.929 . S
C1008 C1009 1.377 . S
C1008 C1010 1.384 . S
C1009 C1008 1.377 . S
C1009 C1015 1.390 . S
C1010 H1001 0.930 . S
C1010 C1008 1.384 . S
C1010 C1011 1.372 . S
C1011 C1010 1.372 . S
C1011 C1012 1.400 . S
C1011 C1016 1.490 . S
C1012 H1002 0.930 . S
C1012 C1011 1.400 . S
C1012 C1015 1.386 . S
H1013 C1029 0.930 . S
H1014 C1030 0.933 1_554 S
C1015 H1003 0.929 . S
C1015 C1009 1.390 . S
C1015 C1012 1.386 . S
C1016 C1011 1.490 . S
C1016 C1018 1.395 . S
C1016 C1019 1.403 . S
H1017 C1023 0.930 . S
C1018 H1004 0.930 . S
C1018 C1016 1.395 . S
C1018 C1021 1.403 . S
C1019 C1016 1.403 . S
C1019 C1020 1.524 . S
C1019 C1023 1.400 . S
C1020 H1005 0.960 . S
C1020 H1006 0.960 . S
C1020 H1007 0.960 . S
C1020 C1019 1.524 . S
C1021 C1018 1.403 . S
C1021 C1022 1.392 . S
C1021 C1025 1.495 1_554 S
C1022 C1021 1.392 . S
C1022 C1023 1.385 . S
C1022 C1024 1.478 1_554 S
C1023 H1017 0.930 . S
C1023 C1019 1.400 . S
C1023 C1022 1.385 . S
C1024 C1022 1.478 1_556 S
C1024 C1026 1.381 . S
C1024 C1030 1.382 . S
C1025 C1021 1.495 1_556 S
C1025 H1031 0.960 1_556 S
C1025 H1032 0.961 . S
C1025 H1033 0.960 . S
C1026 C1024 1.381 . S
C1026 C1027 1.394 . S
C1026 H1034 0.930 . S
C1027 C1026 1.394 . S
C1027 C1028 1.383 . S
C1027 H1035 0.929 . S
C1028 C1027 1.383 . S
C1028 C1029 1.377 . S
C1029 H1013 0.930 . S
C1029 C1028 1.377 . S
C1029 C1030 1.378 . S
C1030 H1014 0.933 1_556 S
C1030 C1024 1.382 . S
C1030 C1029 1.378 . S
H1031 C1025 0.960 1_554 S
H1032 C1025 0.961 . S
H1033 C1025 0.960 . S
H1034 C1026 0.930 . S
H1035 C1027 0.929 . S
H1036 C1044 0.929 . S
H1037 C1046 0.930 . S
H1038 C1048 0.930 . S
H1039 C1051 0.929 . S
H1040 C1054 0.930 . S
H1041 C1056 0.960 . S
H1042 C1056 0.960 . S
H1043 C1056 0.960 . S
C1044 H1036 0.929 . S
C1044 C1045 1.377 . S
C1044 C1046 1.384 . S
C1045 C1044 1.377 . S
C1045 C1051 1.390 . S
C1046 H1037 0.930 . S
C1046 C1044 1.384 . S
C1046 C1047 1.372 . S
C1047 C1046 1.372 . S
C1047 C1048 1.400 . S
C1047 C1052 1.490 . S
C1048 H1038 0.930 . S
C1048 C1047 1.400 . S
C1048 C1051 1.386 . S
H1049 C1065 0.930 . S
H1050 C1066 0.931 1_556 S
C1051 H1039 0.929 . S
C1051 C1045 1.390 . S
C1051 C1048 1.386 . S
C1052 C1047 1.490 . S
C1052 C1054 1.395 . S
C1052 C1055 1.403 . S
H1053 C1059 0.930 . S
C1054 H1040 0.930 . S
C1054 C1052 1.395 . S
C1054 C1057 1.403 . S
C1055 C1052 1.403 . S
C1055 C1056 1.524 . S
C1055 C1059 1.400 . S
C1056 H1041 0.960 . S
C1056 H1042 0.960 . S
C1056 H1043 0.960 . S
C1056 C1055 1.524 . S
C1057 C1054 1.403 . S
C1057 C1058 1.392 . S
C1057 C1061 1.495 1_556 S
C1058 C1057 1.392 . S
C1058 C1059 1.385 . S
C1058 C1060 1.478 1_556 S
C1059 H1053 0.930 . S
C1059 C1055 1.400 . S
C1059 C1058 1.385 . S
C1060 C1058 1.478 1_554 S
C1060 C1062 1.381 . S
C1060 C1066 1.383 . S
C1061 C1057 1.495 1_554 S
C1061 H1067 0.959 . S
C1061 H1068 0.961 . S
C1061 H1069 0.960 . S
C1062 C1060 1.381 . S
C1062 C1063 1.394 . S
C1062 H1070 0.930 . S
C1063 C1062 1.394 . S
C1063 C1064 1.383 . S
C1063 H1071 0.929 . S
C1064 C1063 1.383 . S
C1064 C1065 1.377 . S
C1065 H1049 0.930 . S
C1065 C1064 1.377 . S
C1065 C1066 1.379 . S
C1066 H1050 0.931 1_554 S
C1066 C1060 1.383 . S
C1066 C1065 1.379 . S
H1067 C1061 0.959 . S
H1068 C1061 0.961 . S
H1069 C1061 0.960 . S
H1070 C1062 0.930 . S
H1071 C1063 0.929 . S
H1072 C1080 0.929 . S
H1073 C1082 0.930 . S
H1074 C1084 0.930 . S
H1075 C1087 0.929 . S
H1076 C1090 0.930 . S
H1077 C1092 0.960 . S
H1078 C1092 0.960 . S
H1079 C1092 0.960 . S
C1080 H1072 0.929 . S
C1080 C1081 1.377 . S
C1080 C1082 1.384 . S
C1081 C1080 1.377 . S
C1081 C1087 1.390 . S
C1082 H1073 0.930 . S
C1082 C1080 1.384 . S
C1082 C1083 1.372 . S
C1083 C1082 1.372 . S
C1083 C1084 1.400 . S
C1083 C1088 1.490 . S
C1084 H1074 0.930 . S
C1084 C1083 1.400 . S
C1084 C1087 1.386 . S
H1085 C1101 0.930 . S
H1086 C1102 0.931 . S
C1087 H1075 0.929 . S
C1087 C1081 1.390 . S
C1087 C1084 1.386 . S
C1088 C1083 1.490 . S
C1088 C1090 1.395 . S
C1088 C1091 1.403 . S
H1089 C1095 0.930 . S
C1090 H1076 0.930 . S
C1090 C1088 1.395 . S
C1090 C1093 1.403 . S
C1091 C1088 1.403 . S
C1091 C1092 1.524 . S
C1091 C1095 1.400 . S
C1092 H1077 0.960 . S
C1092 H1078 0.960 . S
C1092 H1079 0.960 . S
C1092 C1091 1.524 . S
C1093 C1090 1.403 . S
C1093 C1094 1.392 . S
C1093 C1097 1.495 . S
C1094 C1093 1.392 . S
C1094 C1095 1.385 . S
C1094 C1096 1.478 . S
C1095 H1089 0.930 . S
C1095 C1091 1.400 . S
C1095 C1094 1.385 . S
C1096 C1094 1.478 . S
C1096 C1098 1.381 . S
C1096 C1102 1.383 . S
C1097 C1093 1.495 . S
C1097 H1103 0.959 . S
C1097 H1104 0.961 . S
C1097 H1105 0.960 . S
C1098 C1096 1.381 . S
C1098 C1099 1.394 . S
C1098 H1106 0.930 . S
C1099 C1098 1.394 . S
C1099 C1100 1.383 . S
C1099 H1107 0.929 . S
C1100 C1099 1.383 . S
C1100 C1101 1.377 . S
C1101 H1085 0.930 . S
C1101 C1100 1.377 . S
C1101 C1102 1.379 . S
C1102 H1086 0.931 . S
C1102 C1096 1.383 . S
C1102 C1101 1.379 . S
H1103 C1097 0.959 . S
H1104 C1097 0.961 . S
H1105 C1097 0.960 . S
H1106 C1098 0.930 . S
H1107 C1099 0.929 . S
H1108 C1116 0.929 . S
H1109 C1118 0.930 . S
H1110 C1120 0.930 . S
H1111 C1123 0.929 . S
H1112 C1126 0.930 . S
H1113 C1128 0.960 . S
H1114 C1128 0.960 . S
H1115 C1128 0.960 . S
C1116 H1108 0.929 . S
C1116 C1117 1.377 . S
C1116 C1118 1.384 . S
C1117 C1116 1.377 . S
C1117 C1123 1.390 . S
C1118 H1109 0.930 . S
C1118 C1116 1.384 . S
C1118 C1119 1.372 . S
C1119 C1118 1.372 . S
C1119 C1120 1.400 . S
C1119 C1124 1.490 . S
C1120 H1110 0.930 . S
C1120 C1119 1.400 . S
C1120 C1123 1.386 . S
H1121 C1137 0.930 . S
H1122 C1138 0.931 . S
C1123 H1111 0.929 . S
C1123 C1117 1.390 . S
C1123 C1120 1.386 . S
C1124 C1119 1.490 . S
C1124 C1126 1.395 . S
C1124 C1127 1.403 . S
H1125 C1131 0.930 . S
C1126 H1112 0.930 . S
C1126 C1124 1.395 . S
C1126 C1129 1.403 . S
C1127 C1124 1.403 . S
C1127 C1128 1.524 . S
C1127 C1131 1.400 . S
C1128 H1113 0.960 . S
C1128 H1114 0.960 . S
C1128 H1115 0.960 . S
C1128 C1127 1.524 . S
C1129 C1126 1.403 . S
C1129 C1130 1.392 . S
C1129 C1133 1.495 . S
C1130 C1129 1.392 . S
C1130 C1131 1.385 . S
C1130 C1132 1.478 . S
C1131 H1125 0.930 . S
C1131 C1127 1.400 . S
C1131 C1130 1.385 . S
C1132 C1130 1.478 . S
C1132 C1134 1.381 . S
C1132 C1138 1.383 . S
C1133 C1129 1.495 . S
C1133 H1139 0.959 . S
C1133 H1140 0.961 . S
C1133 H1141 0.960 . S
C1134 C1132 1.381 . S
C1134 C1135 1.394 . S
C1134 H1142 0.930 . S
C1135 C1134 1.394 . S
C1135 C1136 1.383 . S
C1135 H1143 0.929 . S
C1136 C1135 1.383 . S
C1136 C1137 1.377 . S
C1137 H1121 0.930 . S
C1137 C1136 1.377 . S
C1137 C1138 1.379 . S
C1138 H1122 0.931 . S
C1138 C1132 1.383 . S
C1138 C1137 1.379 . S
H1139 C1133 0.959 . S
H1140 C1133 0.961 . S
H1141 C1133 0.960 . S
H1142 C1134 0.930 . S
H1143 C1135 0.929 . S
H1144 C1152 0.929 . S
H1145 C1154 0.930 . S
H1146 C1156 0.930 . S
H1147 C1159 0.929 . S
H1148 C1162 0.930 . S
H1149 C1164 0.960 . S
H1150 C1164 0.960 . S
H1151 C1164 0.960 . S
C1152 H1144 0.929 . S
C1152 C1153 1.377 . S
C1152 C1154 1.384 . S
C1153 C1152 1.377 . S
C1153 C1159 1.390 . S
C1154 H1145 0.930 . S
C1154 C1152 1.384 . S
C1154 C1155 1.372 . S
C1155 C1154 1.372 . S
C1155 C1156 1.400 . S
C1155 C1160 1.490 . S
C1156 H1146 0.930 . S
C1156 C1155 1.400 . S
C1156 C1159 1.386 . S
H1157 C1173 0.930 . S
H1158 C1174 0.931 . S
C1159 H1147 0.929 . S
C1159 C1153 1.390 . S
C1159 C1156 1.386 . S
C1160 C1155 1.490 . S
C1160 C1162 1.395 . S
C1160 C1163 1.403 . S
H1161 C1167 0.930 . S
C1162 H1148 0.930 . S
C1162 C1160 1.395 . S
C1162 C1165 1.403 . S
C1163 C1160 1.403 . S
C1163 C1164 1.524 . S
C1163 C1167 1.400 . S
C1164 H1149 0.960 . S
C1164 H1150 0.960 . S
C1164 H1151 0.960 . S
C1164 C1163 1.524 . S
C1165 C1162 1.403 . S
C1165 C1166 1.392 . S
C1165 C1169 1.495 . S
C1166 C1165 1.392 . S
C1166 C1167 1.385 . S
C1166 C1168 1.478 . S
C1167 H1161 0.930 . S
C1167 C1163 1.400 . S
C1167 C1166 1.385 . S
C1168 C1166 1.478 . S
C1168 C1170 1.381 . S
C1168 C1174 1.383 . S
C1169 C1165 1.495 . S
C1169 H1175 0.959 . S
C1169 H1176 0.961 . S
C1169 H1177 0.960 . S
C1170 C1168 1.381 . S
C1170 C1171 1.394 . S
C1170 H1178 0.930 . S
C1171 C1170 1.394 . S
C1171 C1172 1.383 . S
C1171 H1179 0.929 . S
C1172 C1171 1.383 . S
C1172 C1173 1.377 . S
C1173 H1157 0.930 . S
C1173 C1172 1.377 . S
C1173 C1174 1.379 . S
C1174 H1158 0.931 . S
C1174 C1168 1.383 . S
C1174 C1173 1.379 . S
H1175 C1169 0.959 . S
H1176 C1169 0.961 . S
H1177 C1169 0.960 . S
H1178 C1170 0.930 . S
H1179 C1171 0.929 . S
H1180 C1188 0.929 . S
H1181 C1190 0.930 . S
H1182 C1192 0.930 . S
H1183 C1195 0.929 . S
H1184 C1198 0.930 . S
H1185 C1200 0.960 . S
H1186 C1200 0.960 . S
H1187 C1200 0.960 . S
C1188 H1180 0.929 . S
C1188 C1189 1.377 . S
C1188 C1190 1.384 . S
C1189 C1188 1.377 . S
C1189 C1195 1.390 . S
C1190 H1181 0.930 . S
C1190 C1188 1.384 . S
C1190 C1191 1.372 . S
C1191 C1190 1.372 . S
C1191 C1192 1.400 . S
C1191 C1196 1.490 . S
C1192 H1182 0.930 . S
C1192 C1191 1.400 . S
C1192 C1195 1.386 . S
H1193 C1209 0.930 . S
H1194 C1210 0.931 . S
C1195 H1183 0.929 . S
C1195 C1189 1.390 . S
C1195 C1192 1.386 . S
C1196 C1191 1.490 . S
C1196 C1198 1.395 . S
C1196 C1199 1.403 . S
H1197 C1203 0.930 . S
C1198 H1184 0.930 . S
C1198 C1196 1.395 . S
C1198 C1201 1.403 . S
C1199 C1196 1.403 . S
C1199 C1200 1.524 . S
C1199 C1203 1.400 . S
C1200 H1185 0.960 . S
C1200 H1186 0.960 . S
C1200 H1187 0.960 . S
C1200 C1199 1.524 . S
C1201 C1198 1.403 . S
C1201 C1202 1.392 . S
C1201 C1205 1.495 . S
C1202 C1201 1.392 . S
C1202 C1203 1.385 . S
C1202 C1204 1.478 . S
C1203 H1197 0.930 . S
C1203 C1199 1.400 . S
C1203 C1202 1.385 . S
C1204 C1202 1.478 . S
C1204 C1206 1.381 . S
C1204 C1210 1.383 . S
C1205 C1201 1.495 . S
C1205 H1211 0.959 . S
C1205 H1212 0.961 . S
C1205 H1213 0.960 . S
C1206 C1204 1.381 . S
C1206 C1207 1.394 . S
C1206 H1214 0.930 . S
C1207 C1206 1.394 . S
C1207 C1208 1.383 . S
C1207 H1215 0.929 . S
C1208 C1207 1.383 . S
C1208 C1209 1.377 . S
C1209 H1193 0.930 . S
C1209 C1208 1.377 . S
C1209 C1210 1.379 . S
C1210 H1194 0.931 . S
C1210 C1204 1.383 . S
C1210 C1209 1.379 . S
H1211 C1205 0.959 . S
H1212 C1205 0.961 . S
H1213 C1205 0.960 . S
H1214 C1206 0.930 . S
H1215 C1207 0.929 . S
H1216 C1224 0.929 . S
H1217 C1226 0.930 . S
H1218 C1228 0.930 . S
H1219 C1231 0.929 . S
H1220 C1234 0.930 . S
H1221 C1236 0.960 . S
H1222 C1236 0.960 . S
H1223 C1236 0.960 . S
C1224 H1216 0.929 . S
C1224 C1225 1.377 . S
C1224 C1226 1.384 . S
C1225 C1224 1.377 . S
C1225 C1231 1.390 . S
C1226 H1217 0.930 . S
C1226 C1224 1.384 . S
C1226 C1227 1.372 . S
C1227 C1226 1.372 . S
C1227 C1228 1.400 . S
C1227 C1232 1.490 . S
C1228 H1218 0.930 . S
C1228 C1227 1.400 . S
C1228 C1231 1.386 . S
H1229 C1245 0.930 . S
H1230 C1246 0.931 . S
C1231 H1219 0.929 . S
C1231 C1225 1.390 . S
C1231 C1228 1.386 . S
C1232 C1227 1.490 . S
C1232 C1234 1.395 . S
C1232 C1235 1.403 . S
H1233 C1239 0.930 . S
C1234 H1220 0.930 . S
C1234 C1232 1.395 . S
C1234 C1237 1.403 . S
C1235 C1232 1.403 . S
C1235 C1236 1.524 . S
C1235 C1239 1.400 . S
C1236 H1221 0.960 . S
C1236 H1222 0.960 . S
C1236 H1223 0.960 . S
C1236 C1235 1.524 . S
C1237 C1234 1.403 . S
C1237 C1238 1.392 . S
C1237 C1241 1.495 . S
C1238 C1237 1.392 . S
C1238 C1239 1.385 . S
C1238 C1240 1.478 . S
C1239 H1233 0.930 . S
C1239 C1235 1.400 . S
C1239 C1238 1.385 . S
C1240 C1238 1.478 . S
C1240 C1242 1.381 . S
C1240 C1246 1.383 . S
C1241 C1237 1.495 . S
C1241 H1247 0.959 . S
C1241 H1248 0.961 . S
C1241 H1249 0.960 . S
C1242 C1240 1.381 . S
C1242 C1243 1.394 . S
C1242 H1250 0.930 . S
C1243 C1242 1.394 . S
C1243 C1244 1.383 . S
C1243 H1251 0.929 . S
C1244 C1243 1.383 . S
C1244 C1245 1.377 . S
C1245 H1229 0.930 . S
C1245 C1244 1.377 . S
C1245 C1246 1.379 . S
C1246 H1230 0.931 . S
C1246 C1240 1.383 . S
C1246 C1245 1.379 . S
H1247 C1241 0.959 . S
H1248 C1241 0.961 . S
H1249 C1241 0.960 . S
H1250 C1242 0.930 . S
H1251 C1243 0.929 . S
H1252 C1260 0.929 . S
H1253 C1262 0.930 . S
H1254 C1264 0.930 . S
H1255 C1267 0.929 . S
H1256 C1270 0.930 . S
H1257 C1272 0.960 . S
H1258 C1272 0.960 . S
H1259 C1272 0.960 . S
C1260 H1252 0.929 . S
C1260 C1261 1.377 . S
C1260 C1262 1.384 . S
C1261 C1260 1.377 . S
C1261 C1267 1.390 . S
C1262 H1253 0.930 . S
C1262 C1260 1.384 . S
C1262 C1263 1.372 . S
C1263 C1262 1.372 . S
C1263 C1264 1.400 . S
C1263 C1268 1.490 . S
C1264 H1254 0.930 . S
C1264 C1263 1.400 . S
C1264 C1267 1.386 . S
H1265 C1281 0.930 . S
H1266 C1282 0.931 . S
C1267 H1255 0.929 . S
C1267 C1261 1.390 . S
C1267 C1264 1.386 . S
C1268 C1263 1.490 . S
C1268 C1270 1.395 . S
C1268 C1271 1.403 . S
H1269 C1275 0.930 . S
C1270 H1256 0.930 . S
C1270 C1268 1.395 . S
C1270 C1273 1.403 . S
C1271 C1268 1.403 . S
C1271 C1272 1.524 . S
C1271 C1275 1.400 . S
C1272 H1257 0.960 . S
C1272 H1258 0.960 . S
C1272 H1259 0.960 . S
C1272 C1271 1.524 . S
C1273 C1270 1.403 . S
C1273 C1274 1.392 . S
C1273 C1277 1.495 . S
C1274 C1273 1.392 . S
C1274 C1275 1.385 . S
C1274 C1276 1.478 . S
C1275 H1269 0.930 . S
C1275 C1271 1.400 . S
C1275 C1274 1.385 . S
C1276 C1274 1.478 . S
C1276 C1278 1.381 . S
C1276 C1282 1.383 . S
C1277 C1273 1.495 . S
C1277 H1283 0.959 . S
C1277 H1284 0.961 . S
C1277 H1285 0.960 . S
C1278 C1276 1.381 . S
C1278 C1279 1.394 . S
C1278 H1286 0.930 . S
C1279 C1278 1.394 . S
C1279 C1280 1.383 . S
C1279 H1287 0.929 . S
C1280 C1279 1.383 . S
C1280 C1281 1.377 . S
C1281 H1265 0.930 . S
C1281 C1280 1.377 . S
C1281 C1282 1.379 . S
C1282 H1266 0.931 . S
C1282 C1276 1.383 . S
C1282 C1281 1.379 . S
H1283 C1277 0.959 . S
H1284 C1277 0.961 . S
H1285 C1277 0.960 . S
H1286 C1278 0.930 . S
H1287 C1279 0.929 . S
H1288 C1296 0.929 . S
H1289 C1298 0.930 . S
H1290 C1300 0.930 . S
H1291 C1303 0.929 . S
H1292 C1306 0.930 . S
H1293 C1308 0.960 . S
H1294 C1308 0.960 . S
H1295 C1308 0.960 . S
C1296 H1288 0.929 . S
C1296 C1297 1.377 . S
C1296 C1298 1.384 . S
C1297 C1296 1.377 . S
C1297 C1303 1.390 . S
C1298 H1289 0.930 . S
C1298 C1296 1.384 . S
C1298 C1299 1.372 . S
C1299 C1298 1.372 . S
C1299 C1300 1.400 . S
C1299 C1304 1.490 . S
C1300 H1290 0.930 . S
C1300 C1299 1.400 . S
C1300 C1303 1.386 . S
H1301 C1317 0.930 . S
H1302 C1318 0.931 . S
C1303 H1291 0.929 . S
C1303 C1297 1.390 . S
C1303 C1300 1.386 . S
C1304 C1299 1.490 . S
C1304 C1306 1.395 . S
C1304 C1307 1.403 . S
H1305 C1311 0.930 . S
C1306 H1292 0.930 . S
C1306 C1304 1.395 . S
C1306 C1309 1.403 . S
C1307 C1304 1.403 . S
C1307 C1308 1.524 . S
C1307 C1311 1.400 . S
C1308 H1293 0.960 . S
C1308 H1294 0.960 . S
C1308 H1295 0.960 . S
C1308 C1307 1.524 . S
C1309 C1306 1.403 . S
C1309 C1310 1.392 . S
C1309 C1313 1.495 . S
C1310 C1309 1.392 . S
C1310 C1311 1.385 . S
C1310 C1312 1.478 . S
C1311 H1305 0.930 . S
C1311 C1307 1.400 . S
C1311 C1310 1.385 . S
C1312 C1310 1.478 . S
C1312 C1314 1.381 . S
C1312 C1318 1.383 . S
C1313 C1309 1.495 . S
C1313 H1319 0.959 . S
C1313 H1320 0.961 . S
C1313 H1321 0.960 . S
C1314 C1312 1.381 . S
C1314 C1315 1.394 . S
C1314 H1322 0.930 . S
C1315 C1314 1.394 . S
C1315 C1316 1.383 . S
C1315 H1323 0.929 . S
C1316 C1315 1.383 . S
C1316 C1317 1.377 . S
C1317 H1301 0.930 . S
C1317 C1316 1.377 . S
C1317 C1318 1.379 . S
C1318 H1302 0.931 . S
C1318 C1312 1.383 . S
C1318 C1317 1.379 . S
H1319 C1313 0.959 . S
H1320 C1313 0.961 . S
H1321 C1313 0.960 . S
H1322 C1314 0.930 . S
H1323 C1315 0.929 . S
H1324 C1332 0.953 . S
H1325 C1334 0.969 . S
H1326 C1336 0.930 . S
H1327 C1339 0.929 . S
H1328 C1342 0.930 . S
H1329 C1344 0.960 . S
H1330 C1344 1.000 . S
H1331 C1344 0.960 . S
C1332 H1324 0.953 . S
C1332 C1333 1.355 1_655 S
C1332 C1334 1.384 . S
C1333 C1332 1.355 1_455 S
C1333 C1339 1.390 . S
C1334 H1325 0.969 . S
C1334 C1332 1.384 . S
C1334 C1335 1.335 1_655 S
C1335 C1334 1.335 1_455 S
C1335 C1336 1.400 . S
C1335 C1340 1.490 . S
C1336 H1326 0.930 . S
C1336 C1335 1.400 . S
C1336 C1339 1.386 . S
H1337 C1353 0.930 . S
H1338 C1354 0.931 . S
C1339 H1327 0.929 . S
C1339 C1333 1.390 . S
C1339 C1336 1.386 . S
C1340 C1335 1.490 . S
C1340 C1342 1.395 . S
C1340 C1343 1.403 . S
H1341 C1347 0.930 . S
C1342 H1328 0.930 . S
C1342 C1340 1.395 . S
C1342 C1345 1.403 . S
C1343 C1340 1.403 . S
C1343 C1344 1.524 . S
C1343 C1347 1.400 . S
C1344 H1329 0.960 . S
C1344 H1330 1.000 . S
C1344 H1331 0.960 . S
C1344 C1343 1.524 . S
C1345 C1342 1.403 . S
C1345 C1346 1.392 . S
C1345 C1349 1.495 . S
C1346 C1345 1.392 . S
C1346 C1347 1.385 . S
C1346 C1348 1.478 . S
C1347 H1341 0.930 . S
C1347 C1343 1.400 . S
C1347 C1346 1.385 . S
C1348 C1346 1.478 . S
C1348 C1350 1.381 1_455 S
C1348 C1354 1.383 . S
C1349 C1345 1.495 . S
C1349 H1355 0.959 . S
C1349 H1356 0.961 . S
C1349 H1357 0.960 . S
C1350 C1348 1.381 1_655 S
C1350 C1351 1.394 . S
C1350 H1358 0.930 . S
C1351 C1350 1.394 . S
C1351 C1352 1.383 1_655 S
C1351 H1359 0.929 . S
C1352 C1351 1.383 1_455 S
C1352 C1353 1.377 . S
C1353 H1337 0.930 . S
C1353 C1352 1.377 . S
C1353 C1354 1.379 . S
C1354 H1338 0.931 . S
C1354 C1348 1.383 . S
C1354 C1353 1.379 . S
H1355 C1349 0.959 . S
H1356 C1349 0.961 . S
H1357 C1349 0.960 . S
H1358 C1350 0.930 . S
H1359 C1351 0.929 . S
H1360 C1368 0.929 1_545 S
H1361 C1370 0.930 1_545 S
H1362 C1372 0.930 . S
H1363 C1375 0.929 . S
H1364 C1378 0.930 . S
H1365 C1380 0.953 1_545 S
H1366 C1380 0.927 1_545 S
H1367 C1380 0.989 . S
C1368 H1360 0.929 1_565 S
C1368 C1369 1.377 . S
C1368 C1370 1.384 . S
C1369 C1368 1.377 . S
C1369 C1375 1.390 . S
C1370 H1361 0.930 1_565 S
C1370 C1368 1.384 . S
C1370 C1371 1.372 . S
C1371 C1370 1.372 . S
C1371 C1372 1.400 . S
C1371 C1376 1.490 . S
C1372 H1362 0.930 . S
C1372 C1371 1.400 . S
C1372 C1375 1.386 . S
H1373 C1389 0.930 . S
H1374 C1390 0.931 . S
C1375 H1363 0.929 . S
C1375 C1369 1.390 . S
C1375 C1372 1.386 . S
C1376 C1371 1.490 . S
C1376 C1378 1.395 . S
C1376 C1379 1.403 . S
H1377 C1383 0.930 . S
C1378 H1364 0.930 . S
C1378 C1376 1.395 . S
C1378 C1381 1.403 . S
C1379 C1376 1.403 . S
C1379 C1380 1.538 . S
C1379 C1383 1.400 . S
C1380 H1365 0.953 1_565 S
C1380 H1366 0.927 1_565 S
C1380 H1367 0.989 . S
C1380 C1379 1.538 . S
C1381 C1378 1.403 . S
C1381 C1382 1.392 . S
C1381 C1385 1.495 . S
C1382 C1381 1.392 . S
C1382 C1383 1.385 . S
C1382 C1384 1.478 . S
C1383 H1377 0.930 . S
C1383 C1379 1.400 . S
C1383 C1382 1.385 . S
C1384 C1382 1.478 . S
C1384 C1386 1.381 . S
C1384 C1390 1.383 . S
C1385 C1381 1.495 . S
C1385 H1391 0.959 . S
C1385 H1392 0.961 . S
C1385 H1393 0.960 . S
C1386 C1384 1.381 . S
C1386 C1387 1.394 . S
C1386 H1394 0.930 1_565 S
C1387 C1386 1.394 . S
C1387 C1388 1.383 . S
C1387 H1395 0.929 1_565 S
C1388 C1387 1.383 . S
C1388 C1389 1.377 . S
C1389 H1373 0.930 . S
C1389 C1388 1.377 . S
C1389 C1390 1.379 . S
C1390 H1374 0.931 . S
C1390 C1384 1.383 . S
C1390 C1389 1.379 . S
H1391 C1385 0.959 . S
H1392 C1385 0.961 . S
H1393 C1385 0.960 . S
H1394 C1386 0.930 1_545 S
H1395 C1387 0.929 1_545 S
H1396 C1404 0.929 . S
H1397 C1406 0.930 . S
H1398 C1408 0.930 . S
H1399 C1411 0.929 . S
H1400 C1414 0.930 . S
H1401 C1416 0.960 . S
H1402 C1416 0.960 . S
H1403 C1416 0.960 . S
C1404 H1396 0.929 . S
C1404 C1405 1.377 . S
C1404 C1406 1.384 . S
C1405 C1404 1.377 . S
C1405 C1411 1.390 . S
C1406 H1397 0.930 . S
C1406 C1404 1.384 . S
C1406 C1407 1.372 . S
C1407 C1406 1.372 . S
C1407 C1408 1.400 . S
C1407 C1412 1.490 . S
C1408 H1398 0.930 . S
C1408 C1407 1.400 . S
C1408 C1411 1.386 . S
H1409 C1425 0.930 . S
H1410 C1426 0.931 . S
C1411 H1399 0.929 . S
C1411 C1405 1.390 . S
C1411 C1408 1.386 . S
C1412 C1407 1.490 . S
C1412 C1414 1.395 . S
C1412 C1415 1.403 . S
H1413 C1419 0.930 . S
C1414 H1400 0.930 . S
C1414 C1412 1.395 . S
C1414 C1417 1.403 . S
C1415 C1412 1.403 . S
C1415 C1416 1.524 . S
C1415 C1419 1.400 . S
C1416 H1401 0.960 . S
C1416 H1402 0.960 . S
C1416 H1403 0.960 . S
C1416 C1415 1.524 . S
C1417 C1414 1.403 . S
C1417 C1418 1.392 . S
C1417 C1421 1.495 . S
C1418 C1417 1.392 . S
C1418 C1419 1.385 . S
C1418 C1420 1.478 . S
C1419 H1413 0.930 . S
C1419 C1415 1.400 . S
C1419 C1418 1.385 . S
C1420 C1418 1.478 . S
C1420 C1422 1.381 . S
C1420 C1426 1.383 . S
C1421 C1417 1.495 . S
C1421 H1427 0.959 . S
C1421 H1428 0.961 . S
C1421 H1429 0.960 . S
C1422 C1420 1.381 . S
C1422 C1423 1.394 . S
C1422 H1430 0.930 . S
C1423 C1422 1.394 . S
C1423 C1424 1.383 . S
C1423 H1431 0.929 . S
C1424 C1423 1.383 . S
C1424 C1425 1.377 . S
C1425 H1409 0.930 . S
C1425 C1424 1.377 . S
C1425 C1426 1.379 . S
C1426 H1410 0.931 . S
C1426 C1420 1.383 . S
C1426 C1425 1.379 . S
H1427 C1421 0.959 . S
H1428 C1421 0.961 . S
H1429 C1421 0.960 . S
H1430 C1422 0.930 . S
H1431 C1423 0.929 . S
H1432 C1440 0.929 . S
H1433 C1442 0.930 . S
H1434 C1444 0.930 . S
H1435 C1447 0.929 . S
H1436 C1450 0.930 . S
H1437 C1452 0.960 . S
H1438 C1452 0.960 . S
H1439 C1452 0.960 . S
C1440 H1432 0.929 . S
C1440 C1441 1.377 . S
C1440 C1442 1.384 . S
C1441 C1440 1.377 . S
C1441 C1447 1.390 . S
C1442 H1433 0.930 . S
C1442 C1440 1.384 . S
C1442 C1443 1.372 . S
C1443 C1442 1.372 . S
C1443 C1444 1.400 . S
C1443 C1448 1.490 . S
C1444 H1434 0.930 . S
C1444 C1443 1.400 . S
C1444 C1447 1.386 . S
H1445 C1461 0.930 . S
H1446 C1462 0.931 . S
C1447 H1435 0.929 . S
C1447 C1441 1.390 . S
C1447 C1444 1.386 . S
C1448 C1443 1.490 . S
C1448 C1450 1.395 . S
C1448 C1451 1.403 . S
H1449 C1455 0.930 . S
C1450 H1436 0.930 . S
C1450 C1448 1.395 . S
C1450 C1453 1.403 . S
C1451 C1448 1.403 . S
C1451 C1452 1.524 . S
C1451 C1455 1.400 . S
C1452 H1437 0.960 . S
C1452 H1438 0.960 . S
C1452 H1439 0.960 . S
C1452 C1451 1.524 . S
C1453 C1450 1.403 . S
C1453 C1454 1.392 . S
C1453 C1457 1.495 . S
C1454 C1453 1.392 . S
C1454 C1455 1.385 . S
C1454 C1456 1.478 . S
C1455 H1449 0.930 . S
C1455 C1451 1.400 . S
C1455 C1454 1.385 . S
C1456 C1454 1.478 . S
C1456 C1458 1.381 . S
C1456 C1462 1.383 . S
C1457 C1453 1.495 . S
C1457 H1463 0.959 . S
C1457 H1464 0.961 . S
C1457 H1465 0.960 . S
C1458 C1456 1.381 . S
C1458 C1459 1.394 . S
C1458 H1466 0.930 . S
C1459 C1458 1.394 . S
C1459 C1460 1.383 . S
C1459 H1467 0.929 . S
C1460 C1459 1.383 . S
C1460 C1461 1.377 . S
C1461 H1445 0.930 . S
C1461 C1460 1.377 . S
C1461 C1462 1.379 . S
C1462 H1446 0.931 . S
C1462 C1456 1.383 . S
C1462 C1461 1.379 . S
H1463 C1457 0.959 . S
H1464 C1457 0.961 . S
H1465 C1457 0.960 . S
H1466 C1458 0.930 . S
H1467 C1459 0.929 . S
H1468 C1476 0.929 . S
H1469 C1478 0.930 . S
H1470 C1480 0.930 . S
H1471 C1483 0.929 . S
H1472 C1486 0.930 . S
H1473 C1488 0.960 . S
H1474 C1488 0.960 . S
H1475 C1488 0.960 . S
C1476 H1468 0.929 . S
C1476 C1477 1.377 . S
C1476 C1478 1.384 . S
C1477 C1476 1.377 . S
C1477 C1483 1.390 . S
C1478 H1469 0.930 . S
C1478 C1476 1.384 . S
C1478 C1479 1.372 . S
C1479 C1478 1.372 . S
C1479 C1480 1.400 . S
C1479 C1484 1.490 . S
C1480 H1470 0.930 . S
C1480 C1479 1.400 . S
C1480 C1483 1.386 . S
H1481 C1497 0.930 . S
H1482 C1498 0.931 . S
C1483 H1471 0.929 . S
C1483 C1477 1.390 . S
C1483 C1480 1.386 . S
C1484 C1479 1.490 . S
C1484 C1486 1.395 . S
C1484 C1487 1.403 . S
H1485 C1491 0.930 . S
C1486 H1472 0.930 . S
C1486 C1484 1.395 . S
C1486 C1489 1.403 . S
C1487 C1484 1.403 . S
C1487 C1488 1.524 . S
C1487 C1491 1.400 . S
C1488 H1473 0.960 . S
C1488 H1474 0.960 . S
C1488 H1475 0.960 . S
C1488 C1487 1.524 . S
C1489 C1486 1.403 . S
C1489 C1490 1.392 . S
C1489 C1493 1.495 . S
C1490 C1489 1.392 . S
C1490 C1491 1.385 . S
C1490 C1492 1.478 . S
C1491 H1485 0.930 . S
C1491 C1487 1.400 . S
C1491 C1490 1.385 . S
C1492 C1490 1.478 . S
C1492 C1494 1.381 . S
C1492 C1498 1.383 . S
C1493 C1489 1.495 . S
C1493 H1499 0.959 . S
C1493 H1500 0.961 . S
C1493 H1501 0.960 . S
C1494 C1492 1.381 . S
C1494 C1495 1.394 . S
C1494 H1502 0.930 . S
C1495 C1494 1.394 . S
C1495 C1496 1.383 . S
C1495 H1503 0.929 . S
C1496 C1495 1.383 . S
C1496 C1497 1.377 . S
C1497 H1481 0.930 . S
C1497 C1496 1.377 . S
C1497 C1498 1.379 . S
C1498 H1482 0.931 . S
C1498 C1492 1.383 . S
C1498 C1497 1.379 . S
H1499 C1493 0.959 . S
H1500 C1493 0.961 . S
H1501 C1493 0.960 . S
H1502 C1494 0.930 . S
H1503 C1495 0.929 . S
C649 C21 0.823 . S
C668 C301 0.856 . S
C685 C61 0.959 . S
C704 C181 0.818 . S
C721 C101 1.035 . S
C740 C221 1.064 . S
C757 C261 0.943 . S
C776 C141 0.929 . S
C793 C621 0.910 . S
C812 C341 1.026 . S
C829 C501 0.969 . S
C848 C381 0.845 . S
C865 C421 0.870 . S
C884 C541 0.858 . S
C901 C461 0.900 . S
C920 C581 0.892 . S
C937 C335 2.766 . S
C956 C2 2.575 . S
C973 C375 2.611 . S
C992 C42 2.645 . S
C1009 C95 2.641 . S
C1028 C402 2.778 . S
C1045 C442 2.804 . S
C1064 C122 2.733 . S
C1081 C495 2.668 . S
C1100 C162 2.475 . S
C1117 C522 2.811 . S
C1136 C202 2.752 . S
C1153 C562 2.863 . S
C1172 C255 2.731 . S
C1189 C282 2.653 . S
C1208 C615 2.622 . S
C1225 C242 2.730 . S
C1244 C15 2.639 . S
C1261 C295 1.973 . S
C1280 C55 1.983 . S
C1297 C82 2.701 . S
C1316 C175 2.612 . S
C1333 C135 2.091 . S
C1352 C215 2.080 . S
C1369 C575 2.075 . S
C1388 C322 2.064 . S
C1405 C602 2.595 . S
C1424 C362 2.594 . S
C1441 C415 1.944 . S
C1460 C482 1.939 . S
C1477 C455 2.674 . S
C1496 C535 2.646 . S
