# Generated by pormake.
# Topology snl, (6)-cn, num edge types: 1
# Building blocks:
#     Node 0, Type 0, BuildingBlock: CUWYAW_clean_sbu_0, # of connection points: 6
#     Node 1, Type 0, BuildingBlock: CUWYAW_clean_sbu_0, # of connection points: 6
#     Node 2, Type 0, BuildingBlock: CUWYAW_clean_sbu_0, # of connection points: 6
#     Node 3, Type 0, BuildingBlock: CUWYAW_clean_sbu_0, # of connection points: 6
#     Node 4, Type 0, BuildingBlock: CUWYAW_clean_sbu_0, # of connection points: 6
#     Node 5, Type 0, BuildingBlock: CUWYAW_clean_sbu_0, # of connection points: 6
#     Node 6, Type 0, BuildingBlock: CUWYAW_clean_sbu_0, # of connection points: 6
#     Node 7, Type 0, BuildingBlock: CUWYAW_clean_sbu_0, # of connection points: 6
#     Node 8, Type 0, BuildingBlock: CUWYAW_clean_sbu_0, # of connection points: 6
#     Node 9, Type 0, BuildingBlock: CUWYAW_clean_sbu_0, # of connection points: 6
#     Node 10, Type 0, BuildingBlock: CUWYAW_clean_sbu_0, # of connection points: 6
#     Node 11, Type 0, BuildingBlock: CUWYAW_clean_sbu_0, # of connection points: 6
#     Node 12, Type 0, BuildingBlock: CUWYAW_clean_sbu_0, # of connection points: 6
#     Node 13, Type 0, BuildingBlock: CUWYAW_clean_sbu_0, # of connection points: 6
#     Node 14, Type 0, BuildingBlock: CUWYAW_clean_sbu_0, # of connection points: 6
#     Node 15, Type 0, BuildingBlock: CUWYAW_clean_sbu_0, # of connection points: 6
#     Edge 16, Type (0, 0), BuildingBlock: XIVTED_clean_linker_0, # of connection points: 2
#     Edge 17, Type (0, 0), BuildingBlock: XIVTED_clean_linker_0, # of connection points: 2
#     Edge 18, Type (0, 0), BuildingBlock: XIVTED_clean_linker_0, # of connection points: 2
#     Edge 19, Type (0, 0), BuildingBlock: XIVTED_clean_linker_0, # of connection points: 2
#     Edge 20, Type (0, 0), BuildingBlock: XIVTED_clean_linker_0, # of connection points: 2
#     Edge 21, Type (0, 0), BuildingBlock: XIVTED_clean_linker_0, # of connection points: 2
#     Edge 22, Type (0, 0), BuildingBlock: XIVTED_clean_linker_0, # of connection points: 2
#     Edge 23, Type (0, 0), BuildingBlock: XIVTED_clean_linker_0, # of connection points: 2
#     Edge 24, Type (0, 0), BuildingBlock: XIVTED_clean_linker_0, # of connection points: 2
#     Edge 25, Type (0, 0), BuildingBlock: XIVTED_clean_linker_0, # of connection points: 2
#     Edge 26, Type (0, 0), BuildingBlock: XIVTED_clean_linker_0, # of connection points: 2
#     Edge 27, Type (0, 0), BuildingBlock: XIVTED_clean_linker_0, # of connection points: 2
#     Edge 28, Type (0, 0), BuildingBlock: XIVTED_clean_linker_0, # of connection points: 2
#     Edge 29, Type (0, 0), BuildingBlock: XIVTED_clean_linker_0, # of connection points: 2
#     Edge 30, Type (0, 0), BuildingBlock: XIVTED_clean_linker_0, # of connection points: 2
#     Edge 31, Type (0, 0), BuildingBlock: XIVTED_clean_linker_0, # of connection points: 2
#     Edge 32, Type (0, 0), BuildingBlock: XIVTED_clean_linker_0, # of connection points: 2
#     Edge 33, Type (0, 0), BuildingBlock: XIVTED_clean_linker_0, # of connection points: 2
#     Edge 34, Type (0, 0), BuildingBlock: XIVTED_clean_linker_0, # of connection points: 2
#     Edge 35, Type (0, 0), BuildingBlock: XIVTED_clean_linker_0, # of connection points: 2
#     Edge 36, Type (0, 0), BuildingBlock: XIVTED_clean_linker_0, # of connection points: 2
#     Edge 37, Type (0, 0), BuildingBlock: XIVTED_clean_linker_0, # of connection points: 2
#     Edge 38, Type (0, 0), BuildingBlock: XIVTED_clean_linker_0, # of connection points: 2
#     Edge 39, Type (0, 0), BuildingBlock: XIVTED_clean_linker_0, # of connection points: 2
#     Edge 40, Type (0, 0), BuildingBlock: XIVTED_clean_linker_0, # of connection points: 2
#     Edge 41, Type (0, 0), BuildingBlock: XIVTED_clean_linker_0, # of connection points: 2
#     Edge 42, Type (0, 0), BuildingBlock: XIVTED_clean_linker_0, # of connection points: 2
#     Edge 43, Type (0, 0), BuildingBlock: XIVTED_clean_linker_0, # of connection points: 2
#     Edge 44, Type (0, 0), BuildingBlock: XIVTED_clean_linker_0, # of connection points: 2
#     Edge 45, Type (0, 0), BuildingBlock: XIVTED_clean_linker_0, # of connection points: 2
#     Edge 46, Type (0, 0), BuildingBlock: XIVTED_clean_linker_0, # of connection points: 2
#     Edge 47, Type (0, 0), BuildingBlock: XIVTED_clean_linker_0, # of connection points: 2
#     Edge 48, Type (0, 0), BuildingBlock: XIVTED_clean_linker_0, # of connection points: 2
#     Edge 49, Type (0, 0), BuildingBlock: XIVTED_clean_linker_0, # of connection points: 2
#     Edge 50, Type (0, 0), BuildingBlock: XIVTED_clean_linker_0, # of connection points: 2
#     Edge 51, Type (0, 0), BuildingBlock: XIVTED_clean_linker_0, # of connection points: 2
#     Edge 52, Type (0, 0), BuildingBlock: XIVTED_clean_linker_0, # of connection points: 2
#     Edge 53, Type (0, 0), BuildingBlock: XIVTED_clean_linker_0, # of connection points: 2
#     Edge 54, Type (0, 0), BuildingBlock: XIVTED_clean_linker_0, # of connection points: 2
#     Edge 55, Type (0, 0), BuildingBlock: XIVTED_clean_linker_0, # of connection points: 2
#     Edge 56, Type (0, 0), BuildingBlock: XIVTED_clean_linker_0, # of connection points: 2
#     Edge 57, Type (0, 0), BuildingBlock: XIVTED_clean_linker_0, # of connection points: 2
#     Edge 58, Type (0, 0), BuildingBlock: XIVTED_clean_linker_0, # of connection points: 2
#     Edge 59, Type (0, 0), BuildingBlock: XIVTED_clean_linker_0, # of connection points: 2
#     Edge 60, Type (0, 0), BuildingBlock: XIVTED_clean_linker_0, # of connection points: 2
#     Edge 61, Type (0, 0), BuildingBlock: XIVTED_clean_linker_0, # of connection points: 2
#     Edge 62, Type (0, 0), BuildingBlock: XIVTED_clean_linker_0, # of connection points: 2
#     Edge 63, Type (0, 0), BuildingBlock: XIVTED_clean_linker_0, # of connection points: 2
# Relax obj value: 0.187
# Max RMSD: 0.246
# Mean RMSD: 0.224
data_MOF--net-snl--node1-CUWYAW_clean_sbu_0--edge1-XIVTED_clean_linker_0
_symmetry_space_group_name_H-M    P1
_symmetry_Int_Tables_number       1
_symmetry_cell_setting            triclinic
loop_
_symmetry_equiv_pos_as_xyz
'x, y, z'
_cell_length_a     57.421751
_cell_length_b     57.044956
_cell_length_c     26.065958
_cell_angle_alpha  87.381239
_cell_angle_beta   92.590633
_cell_angle_gamma 90.131136
loop_
_atom_site_label
_atom_site_type_symbol
_atom_site_fract_x
_atom_site_fract_y
_atom_site_fract_z
_atom_type_partial_charge
C0 C 0.13767 0.6469 1.00331 0.0
Eu1 Eu 0.14388 0.63274 0.10009 0.0
C2 C 0.14011 0.6397 0.94958 0.0
C3 C 0.16156 0.64154 0.9256 0.0
C4 C 0.16304 0.63709 0.87335 0.0
C5 C 0.14311 0.63078 0.84357 0.0
C6 C 0.12177 0.62855 0.86791 0.0
C7 C 0.12029 0.63302 0.92007 0.0
C8 C 0.18627 0.63143 0.15278 0.0
C9 C 0.14907 0.57586 0.10847 0.0
C10 C 0.15172 0.59539 0.30011 0.0
Eu11 Eu 0.14403 0.60899 0.20333 0.0
C12 C 0.15016 0.60285 0.35387 0.0
C13 C 0.12888 0.60202 0.37867 0.0
C14 C 0.12807 0.60644 0.43102 0.0
C15 C 0.1485 0.61174 0.46013 0.0
C16 C 0.16969 0.61311 0.43498 0.0
C17 C 0.17051 0.60863 0.38264 0.0
C18 C 0.10109 0.60972 0.15426 0.0
C19 C 0.13613 0.66608 0.19015 0.0
O20 O 0.12153 0.6366 0.03013 0.0
O21 O 0.15658 0.65106 0.0313 0.0
O22 O 0.17819 0.64965 0.12624 0.0
O23 O 0.17198 0.6147 0.14948 0.0
O24 O 0.14274 0.59461 0.07983 0.0
O25 O 0.15371 0.57728 0.15851 0.0
O26 O 0.16757 0.60522 0.27171 0.0
O27 O 0.13233 0.59146 0.27373 0.0
O28 O 0.10993 0.59192 0.18097 0.0
O29 O 0.11526 0.62679 0.15485 0.0
O30 O 0.14435 0.64841 0.22053 0.0
O31 O 0.13061 0.66306 0.14138 0.0
H32 H 0.17717 0.64686 0.94691 0.0
H33 H 0.17984 0.63871 0.85623 0.0
H34 H 0.10597 0.62409 0.84627 0.0
H35 H 0.10342 0.63183 0.937 0.0
H36 H 0.11286 0.59745 0.35796 0.0
H37 H 0.11138 0.60555 0.44879 0.0
H38 H 0.18584 0.61684 0.45612 0.0
H39 H 0.18724 0.60906 0.36499 0.0
C40 C 0.63848 0.8529 0.53361 0.0
Eu41 Eu 0.6428 0.86622 0.4371 0.0
C42 C 0.63768 0.86161 0.58638 0.0
C43 C 0.65768 0.87048 0.612 0.0
C44 C 0.65729 0.87595 0.66384 0.0
C45 C 0.63691 0.87264 0.69145 0.0
C46 C 0.61675 0.86442 0.66523 0.0
C47 C 0.61717 0.8589 0.61346 0.0
C48 C 0.68373 0.86511 0.38688 0.0
C49 C 0.6471 0.92303 0.42438 0.0
C50 C 0.65847 0.90199 0.23722 0.0
Eu51 Eu 0.6428 0.88907 0.32664 0.0
C52 C 0.65441 0.89952 0.18142 0.0
C53 C 0.63246 0.89371 0.15963 0.0
C54 C 0.62935 0.89159 0.10628 0.0
C55 C 0.64815 0.89527 0.07382 0.0
C56 C 0.6701 0.9009 0.09622 0.0
C57 C 0.67316 0.90299 0.14933 0.0
C58 C 0.59732 0.88551 0.35294 0.0
C59 C 0.63133 0.83289 0.34619 0.0
O60 O 0.62069 0.85744 0.50153 0.0
O61 O 0.65839 0.85392 0.51114 0.0
O62 O 0.67567 0.84746 0.41393 0.0
O63 O 0.66989 0.88222 0.38771 0.0
O64 O 0.64299 0.90443 0.45457 0.0
O65 O 0.6495 0.92149 0.37411 0.0
O66 O 0.66579 0.88327 0.26411 0.0
O67 O 0.64335 0.91423 0.2611 0.0
O68 O 0.60414 0.89445 0.30949 0.0
O69 O 0.61505 0.87891 0.38069 0.0
O70 O 0.64054 0.84919 0.31503 0.0
O71 O 0.62689 0.83701 0.39404 0.0
H72 H 0.67386 0.87261 0.59252 0.0
H73 H 0.67324 0.88197 0.68272 0.0
H74 H 0.60064 0.86201 0.68483 0.0
H75 H 0.60153 0.85196 0.59489 0.0
H76 H 0.61775 0.89087 0.18379 0.0
H77 H 0.61218 0.8874 0.09041 0.0
H78 H 0.68507 0.90341 0.07276 0.0
H79 H 0.69028 0.9073 0.16545 0.0
C80 C 0.36458 0.35149 0.53791 0.0
Eu81 Eu 0.36848 0.36516 0.63225 0.0
C82 C 0.36767 0.35782 0.48311 0.0
C83 C 0.35187 0.34865 0.44672 0.0
C84 C 0.35471 0.35291 0.39421 0.0
C85 C 0.3735 0.36645 0.37669 0.0
C86 C 0.38905 0.37621 0.41332 0.0
C87 C 0.3862 0.37187 0.46619 0.0
C88 C 0.33044 0.36457 0.69248 0.0
C89 C 0.37019 0.42176 0.63447 0.0
C90 C 0.36329 0.39994 0.82757 0.0
Eu91 Eu 0.37459 0.38751 0.73678 0.0
C92 C 0.36841 0.395 0.88341 0.0
C93 C 0.38676 0.40625 0.91019 0.0
C94 C 0.39014 0.40259 0.96364 0.0
C95 C 0.37523 0.38762 0.99145 0.0
C96 C 0.35696 0.37638 0.96446 0.0
C97 C 0.35356 0.38008 0.91131 0.0
C98 C 0.41824 0.38394 0.70062 0.0
C99 C 0.38516 0.33151 0.72558 0.0
O100 O 0.3832 0.34787 0.5681 0.0
O101 O 0.34791 0.36205 0.56038 0.0
O102 O 0.33731 0.3467 0.66817 0.0
O103 O 0.34415 0.38154 0.68459 0.0
O104 O 0.3737 0.403 0.60809 0.0
O105 O 0.36737 0.42023 0.6848 0.0
O106 O 0.35272 0.38334 0.80237 0.0
O107 O 0.37888 0.41113 0.80046 0.0
O108 O 0.41353 0.39272 0.74399 0.0
O109 O 0.39949 0.37736 0.67766 0.0
O110 O 0.3781 0.34781 0.75622 0.0
O111 O 0.38619 0.33541 0.67568 0.0
H112 H 0.33739 0.33787 0.45896 0.0
H113 H 0.34212 0.34553 0.36726 0.0
H114 H 0.40374 0.38667 0.40114 0.0
H115 H 0.39858 0.37919 0.49367 0.0
H116 H 0.39836 0.41809 0.89003 0.0
H117 H 0.40445 0.41143 0.98315 0.0
H118 H 0.34484 0.36513 0.98462 0.0
H119 H 0.33894 0.37153 0.89215 0.0
C120 C 0.88105 0.14869 0.02158 0.0
Eu121 Eu 0.87689 0.13387 0.92794 0.0
C122 C 0.87989 0.1414 0.0769 0.0
C123 C 0.85863 0.13587 0.09942 0.0
C124 C 0.85778 0.13149 0.15274 0.0
C125 C 0.87813 0.13265 0.18484 0.0
C126 C 0.89942 0.13761 0.16192 0.0
C127 C 0.90026 0.14199 0.10876 0.0
C128 C 0.83605 0.13253 0.86995 0.0
C129 C 0.87304 0.07692 0.9301 0.0
C130 C 0.87455 0.09565 0.73535 0.0
Eu131 Eu 0.87978 0.10991 0.82935 0.0
C132 C 0.87457 0.10338 0.68008 0.0
C133 C 0.89534 0.10951 0.65612 0.0
C134 C 0.89535 0.11416 0.60282 0.0
C135 C 0.87463 0.11271 0.57205 0.0
C136 C 0.8538 0.10712 0.59635 0.0
C137 C 0.85379 0.10246 0.6496 0.0
C138 C 0.92135 0.11166 0.88426 0.0
C139 C 0.88616 0.16701 0.83166 0.0
O140 O 0.89849 0.14084 0.99673 0.0
O141 O 0.86167 0.14989 0.99321 0.0
O142 O 0.84331 0.1507 0.89426 0.0
O143 O 0.85029 0.11581 0.87821 0.0
O144 O 0.87821 0.09578 0.95574 0.0
O145 O 0.86992 0.07811 0.87942 0.0
O146 O 0.85724 0.10237 0.7621 0.0
O147 O 0.89439 0.09524 0.762 0.0
O148 O 0.91378 0.09354 0.8602 0.0
O149 O 0.9067 0.1282 0.87781 0.0
O150 O 0.87891 0.14924 0.80395 0.0
O151 O 0.89043 0.16425 0.88152 0.0
H152 H 0.84255 0.13545 0.07612 0.0
H153 H 0.84103 0.12794 0.16895 0.0
H154 H 0.91552 0.13827 0.18512 0.0
H155 H 0.91687 0.14636 0.09264 0.0
H156 H 0.91172 0.11015 0.67826 0.0
H157 H 0.91178 0.11813 0.58556 0.0
H158 H 0.83744 0.10619 0.57419 0.0
H159 H 0.83755 0.0976 0.66683 0.0
C160 C 0.13366 0.35307 0.03387 0.0
Eu161 Eu 0.14006 0.36619 0.93807 0.0
C162 C 0.13633 0.3608 0.08749 0.0
C163 C 0.15807 0.35994 0.11466 0.0
C164 C 0.15983 0.36469 0.16694 0.0
C165 C 0.13991 0.37035 0.19344 0.0
C166 C 0.11829 0.3718 0.16585 0.0
C167 C 0.11653 0.367 0.11362 0.0
C168 C 0.18165 0.36528 0.8902 0.0
C169 C 0.14604 0.42297 0.92587 0.0
C170 C 0.15729 0.40121 0.73897 0.0
Eu171 Eu 0.14101 0.38893 0.82807 0.0
C172 C 0.1537 0.39766 0.68334 0.0
C173 C 0.13161 0.39934 0.65795 0.0
C174 C 0.12911 0.39626 0.60487 0.0
C175 C 0.14862 0.39132 0.57628 0.0
C176 C 0.17064 0.3896 0.6021 0.0
C177 C 0.17313 0.39276 0.65492 0.0
C178 C 0.09519 0.38518 0.85194 0.0
C179 C 0.12889 0.33306 0.84706 0.0
O180 O 0.11761 0.36332 1.0035 0.0
O181 O 0.15252 0.34838 1.00989 0.0
O182 O 0.1735 0.34768 0.91727 0.0
O183 O 0.16764 0.38228 0.89021 0.0
O184 O 0.14288 0.40426 0.95646 0.0
O185 O 0.14719 0.42156 0.87522 0.0
O186 O 0.16496 0.38308 0.76743 0.0
O187 O 0.14183 0.41357 0.76161 0.0
O188 O 0.1025 0.39413 0.80895 0.0
O189 O 0.11265 0.37863 0.88061 0.0
O190 O 0.13909 0.34904 0.81682 0.0
O191 O 0.1234 0.33764 0.89401 0.0
H192 H 0.17369 0.35508 0.09592 0.0
H193 H 0.17681 0.36372 0.18674 0.0
H194 H 0.10254 0.3758 0.18503 0.0
H195 H 0.09948 0.36747 0.09401 0.0
H196 H 0.1163 0.40301 0.67903 0.0
H197 H 0.11186 0.39746 0.58635 0.0
H198 H 0.1861 0.38619 0.58133 0.0
H199 H 0.19035 0.3915 0.67364 0.0
C200 C 0.86938 0.85097 0.04005 0.0
Eu201 Eu 0.87203 0.86541 0.13421 0.0
C202 C 0.86984 0.85869 0.98484 0.0
C203 C 0.84933 0.85767 0.95352 0.0
C204 C 0.84979 0.86217 0.90032 0.0
C205 C 0.87085 0.86767 0.87686 0.0
C206 C 0.89131 0.86928 0.90844 0.0
C207 C 0.89082 0.86479 0.96174 0.0
C208 C 0.83385 0.86498 0.19428 0.0
C209 C 0.87074 0.92204 0.1329 0.0
C210 C 0.87896 0.90188 0.32683 0.0
Eu211 Eu 0.8795 0.88796 0.23243 0.0
C212 C 0.87811 0.89412 0.38196 0.0
C213 C 0.89855 0.89437 0.41374 0.0
C214 C 0.8977 0.89 0.46691 0.0
C215 C 0.87635 0.88543 0.4899 0.0
C216 C 0.85596 0.88458 0.45792 0.0
C217 C 0.85681 0.88896 0.40464 0.0
C218 C 0.91862 0.88896 0.17672 0.0
C219 C 0.88575 0.8311 0.22714 0.0
O220 O 0.88877 0.85177 0.0682 0.0
O221 O 0.85124 0.85661 0.06533 0.0
O222 O 0.84082 0.84712 0.17003 0.0
O223 O 0.84724 0.88218 0.18588 0.0
O224 O 0.87509 0.90332 0.10725 0.0
O225 O 0.86876 0.92048 0.18333 0.0
O226 O 0.86022 0.89966 0.29701 0.0
O227 O 0.89803 0.8978 0.30323 0.0
O228 O 0.91107 0.90627 0.20186 0.0
O229 O 0.905 0.87148 0.18163 0.0
O230 O 0.87956 0.84839 0.25602 0.0
O231 O 0.88754 0.83446 0.17741 0.0
H232 H 0.83292 0.85281 0.97004 0.0
H233 H 0.83362 0.86114 0.8775 0.0
H234 H 0.9079 0.8732 0.89184 0.0
H235 H 0.90703 0.8655 0.98454 0.0
H236 H 0.91521 0.89854 0.39767 0.0
H237 H 0.91381 0.89045 0.49009 0.0
H238 H 0.83917 0.88137 0.47422 0.0
H239 H 0.84066 0.88895 0.3815 0.0
C240 C 0.38222 0.64853 0.52318 0.0
Eu241 Eu 0.37744 0.63374 0.4296 0.0
C242 C 0.38091 0.64136 0.57847 0.0
C243 C 0.36018 0.633 0.59957 0.0
C244 C 0.35906 0.62842 0.6528 0.0
C245 C 0.37862 0.63206 0.68614 0.0
C246 C 0.39943 0.63998 0.66461 0.0
C247 C 0.40052 0.6446 0.61156 0.0
C248 C 0.33634 0.63274 0.37252 0.0
C249 C 0.3732 0.5768 0.4317 0.0
C250 C 0.37393 0.59559 0.23672 0.0
Eu251 Eu 0.37966 0.60978 0.33072 0.0
C252 C 0.37409 0.60319 0.18143 0.0
C253 C 0.39438 0.61186 0.15889 0.0
C254 C 0.39477 0.61633 0.10556 0.0
C255 C 0.37492 0.61223 0.07341 0.0
C256 C 0.35448 0.60418 0.09635 0.0
C257 C 0.35411 0.59967 0.14961 0.0
C258 C 0.42153 0.61147 0.38456 0.0
C259 C 0.3863 0.66684 0.33302 0.0
O260 O 0.39938 0.6401 0.49835 0.0
O261 O 0.36283 0.65025 0.49494 0.0
O262 O 0.34384 0.6508 0.39692 0.0
O263 O 0.35047 0.61588 0.38033 0.0
O264 O 0.37854 0.59564 0.45729 0.0
O265 O 0.36988 0.57802 0.38104 0.0
O266 O 0.35682 0.60281 0.26345 0.0
O267 O 0.39379 0.59475 0.26327 0.0
O268 O 0.41381 0.59338 0.36062 0.0
O269 O 0.40688 0.62802 0.37852 0.0
O270 O 0.37877 0.64912 0.3055 0.0
O271 O 0.39097 0.664 0.38275 0.0
H272 H 0.34473 0.63033 0.57515 0.0
H273 H 0.34283 0.62206 0.66783 0.0
H274 H 0.41476 0.64333 0.6889 0.0
H275 H 0.41664 0.65126 0.59645 0.0
H276 H 0.41011 0.61476 0.18224 0.0
H277 H 0.41072 0.62286 0.08947 0.0
H278 H 0.33893 0.60055 0.07298 0.0
H279 H 0.33831 0.59276 0.16581 0.0
C280 C 0.63639 0.14668 0.50267 0.0
Eu281 Eu 0.64305 0.13249 0.59931 0.0
C282 C 0.6385 0.13964 0.44874 0.0
C283 C 0.66008 0.13993 0.42518 0.0
C284 C 0.66131 0.13578 0.37269 0.0
C285 C 0.64099 0.13139 0.3423 0.0
C286 C 0.6195 0.13058 0.36631 0.0
C287 C 0.61828 0.13472 0.41868 0.0
C288 C 0.68548 0.13196 0.65175 0.0
C289 C 0.649 0.07568 0.60763 0.0
C290 C 0.6517 0.09511 0.79932 0.0
Eu291 Eu 0.64368 0.10869 0.70263 0.0
C292 C 0.65038 0.10254 0.85315 0.0
C293 C 0.629 0.10316 0.87745 0.0
C294 C 0.62833 0.10756 0.92987 0.0
C295 C 0.649 0.11136 0.95953 0.0
C296 C 0.67031 0.11126 0.93481 0.0
C297 C 0.67098 0.10684 0.88242 0.0
C298 C 0.60063 0.10895 0.65391 0.0
C299 C 0.63495 0.16563 0.6896 0.0
O300 O 0.62039 0.13632 0.52979 0.0
O301 O 0.65544 0.1508 0.53023 0.0
O302 O 0.67704 0.15002 0.62517 0.0
O303 O 0.6715 0.11494 0.64862 0.0
O304 O 0.64244 0.09437 0.57903 0.0
O305 O 0.6536 0.07711 0.65768 0.0
O306 O 0.66745 0.10493 0.77066 0.0
O307 O 0.6322 0.09121 0.77329 0.0
O308 O 0.60971 0.09123 0.68049 0.0
O309 O 0.61464 0.12615 0.6544 0.0
O310 O 0.64347 0.14808 0.71994 0.0
O311 O 0.62942 0.16257 0.64086 0.0
H312 H 0.676 0.14393 0.44691 0.0
H313 H 0.67814 0.1368 0.3556 0.0
H314 H 0.60351 0.1269 0.34453 0.0
H315 H 0.60136 0.13458 0.43544 0.0
H316 H 0.61278 0.09964 0.85638 0.0
H317 H 0.61161 0.10719 0.94749 0.0
H318 H 0.68657 0.11445 0.95601 0.0
H319 H 0.68775 0.10627 0.86505 0.0
C320 C 0.85976 0.40797 0.71181 0.0
Eu321 Eu 0.87489 0.39411 0.80448 0.0
C322 C 0.86442 0.40517 0.65697 0.0
C323 C 0.88259 0.39094 0.64187 0.0
C324 C 0.88589 0.38785 0.58945 0.0
C325 C 0.87108 0.39892 0.55099 0.0
C326 C 0.853 0.41326 0.56669 0.0
C327 C 0.84975 0.41631 0.61894 0.0
C328 C 0.92049 0.38897 0.83851 0.0
C329 C 0.88528 0.33748 0.82109 0.0
C330 C 0.87905 0.35479 1.01057 0.0
Eu331 Eu 0.87509 0.36906 0.91346 0.0
C332 C 0.88072 0.36296 0.06404 0.0
C333 C 0.86502 0.37941 0.08152 0.0
C334 C 0.86533 0.38473 0.13367 0.0
C335 C 0.88132 0.37374 0.16975 0.0
C336 C 0.89748 0.35788 0.15159 0.0
C337 C 0.89713 0.35255 0.09955 0.0
C338 C 0.83383 0.3697 0.85576 0.0
C339 C 0.87224 0.42604 0.90457 0.0
O340 O 0.8518 0.38947 0.73701 0.0
O341 O 0.87501 0.41974 0.73941 0.0
O342 O 0.91354 0.39892 0.7948 0.0
O343 O 0.90277 0.38224 0.86269 0.0
O344 O 0.87633 0.35462 0.79006 0.0
O345 O 0.8899 0.34021 0.87041 0.0
O346 O 0.89695 0.35816 0.98173 0.0
O347 O 0.85915 0.35763 0.98463 0.0
O348 O 0.8417 0.35151 0.88294 0.0
O349 O 0.84801 0.3865 0.86056 0.0
O350 O 0.8767 0.40683 0.93329 0.0
O351 O 0.86892 0.42569 0.85374 0.0
H352 H 0.89411 0.38211 0.67059 0.0
H353 H 0.90015 0.37689 0.57909 0.0
H354 H 0.84096 0.42176 0.53862 0.0
H355 H 0.83549 0.4272 0.6297 0.0
H356 H 0.8521 0.38773 0.05517 0.0
H357 H 0.85247 0.39689 0.14592 0.0
H358 H 0.91038 0.34939 0.17768 0.0
H359 H 0.90941 0.3398 0.08721 0.0
C360 C 0.37966 0.09018 0.79918 0.0
Eu361 Eu 0.3847 0.10505 0.70345 0.0
C362 C 0.38063 0.09756 0.85352 0.0
C363 C 0.401 0.09394 0.88496 0.0
C364 C 0.40132 0.09832 0.93752 0.0
C365 C 0.38124 0.1063 0.96046 0.0
C366 C 0.36098 0.11038 0.92876 0.0
C367 C 0.36065 0.10598 0.87612 0.0
C368 C 0.42603 0.10648 0.65619 0.0
C369 C 0.39147 0.16237 0.69529 0.0
C370 C 0.38489 0.14626 0.50527 0.0
Eu371 Eu 0.38188 0.13086 0.60125 0.0
C372 C 0.38304 0.13888 0.45095 0.0
C373 C 0.36256 0.14328 0.42037 0.0
C374 C 0.36152 0.13877 0.36781 0.0
C375 C 0.381 0.12985 0.34408 0.0
C376 C 0.40135 0.12503 0.37498 0.0
C377 C 0.40238 0.12954 0.42755 0.0
C378 C 0.34131 0.12846 0.65247 0.0
C379 C 0.3774 0.07387 0.60511 0.0
O380 O 0.36241 0.09772 0.76829 0.0
O381 O 0.39923 0.08907 0.77569 0.0
O382 O 0.41804 0.08832 0.68154 0.0
O383 O 0.41196 0.12355 0.65726 0.0
O384 O 0.38431 0.14401 0.72343 0.0
O385 O 0.39555 0.16064 0.64633 0.0
O386 O 0.40271 0.13876 0.53449 0.0
O387 O 0.36581 0.14719 0.53066 0.0
O388 O 0.34863 0.14733 0.62853 0.0
O389 O 0.3554 0.11189 0.64771 0.0
O390 O 0.38309 0.09313 0.57869 0.0
O391 O 0.37411 0.07418 0.6551 0.0
H392 H 0.41665 0.08722 0.86919 0.0
H393 H 0.41737 0.09529 0.96025 0.0
H394 H 0.34507 0.11623 0.9449 0.0
H395 H 0.34452 0.10862 0.85343 0.0
H396 H 0.3474 0.15071 0.43682 0.0
H397 H 0.34541 0.1424 0.34573 0.0
H398 H 0.41684 0.11849 0.35827 0.0
H399 H 0.41859 0.12625 0.44952 0.0
C400 C 0.6659 0.60533 0.50944 0.0
Eu401 Eu 0.65172 0.61779 0.41609 0.0
C402 C 0.66217 0.60978 0.5635 0.0
C403 C 0.65746 0.6323 0.58006 0.0
C404 C 0.65344 0.63552 0.63192 0.0
C405 C 0.65385 0.61623 0.6676 0.0
C406 C 0.65879 0.59382 0.65063 0.0
C407 C 0.6629 0.59065 0.59914 0.0
C408 C 0.64209 0.66164 0.37474 0.0
C409 C 0.59506 0.62104 0.38951 0.0
C410 C 0.61876 0.61339 0.20599 0.0
Eu411 Eu 0.63118 0.61335 0.30334 0.0
C412 C 0.62711 0.617 0.15332 0.0
C413 C 0.63578 0.5979 0.12781 0.0
C414 C 0.6402 0.60009 0.07565 0.0
C415 C 0.63595 0.62138 0.04761 0.0
C416 C 0.62836 0.64084 0.0735 0.0
C417 C 0.62384 0.63863 0.12585 0.0
C418 C 0.63409 0.57347 0.36596 0.0
C419 C 0.68726 0.61916 0.32194 0.0
O420 O 0.64868 0.59506 0.48459 0.0
O421 O 0.67615 0.62172 0.48157 0.0
O422 O 0.64985 0.65746 0.4218 0.0
O423 O 0.63928 0.64242 0.3533 0.0
O424 O 0.61189 0.61461 0.4242 0.0
O425 O 0.59924 0.62533 0.34062 0.0
O426 O 0.61648 0.63172 0.23392 0.0
O427 O 0.62636 0.5948 0.23291 0.0
O428 O 0.61644 0.57858 0.33465 0.0
O429 O 0.6492 0.58941 0.36211 0.0
O430 O 0.66895 0.6216 0.28953 0.0
O431 O 0.68512 0.61476 0.37203 0.0
H432 H 0.65667 0.64728 0.55297 0.0
H433 H 0.64954 0.65296 0.64388 0.0
H434 H 0.65961 0.57868 0.67729 0.0
H435 H 0.66654 0.57315 0.58701 0.0
H436 H 0.63834 0.58093 0.14759 0.0
H437 H 0.64637 0.58488 0.05687 0.0
H438 H 0.62481 0.65743 0.05277 0.0
H439 H 0.61691 0.6536 0.14424 0.0
C440 C 0.14762 0.90702 0.29937 0.0
Eu441 Eu 0.13801 0.89449 0.20517 0.0
C442 C 0.14549 0.89999 0.3546 0.0
C443 C 0.12394 0.90055 0.37816 0.0
C444 C 0.12274 0.89647 0.43144 0.0
C445 C 0.14304 0.89177 0.46254 0.0
C446 C 0.16449 0.89067 0.43866 0.0
C447 C 0.16569 0.89481 0.38545 0.0
C448 C 0.09364 0.89265 0.16278 0.0
C449 C 0.13082 0.83739 0.19989 0.0
C450 C 0.13055 0.85921 1.01215 0.0
Eu451 Eu 0.13662 0.87263 0.10676 0.0
C452 C 0.13311 0.86658 0.95719 0.0
C453 C 0.15473 0.86535 0.9341 0.0
C454 C 0.15633 0.86974 0.881 0.0
C455 C 0.13635 0.87537 0.84954 0.0
C456 C 0.11484 0.87709 0.87294 0.0
C457 C 0.11324 0.87268 0.92596 0.0
C458 C 0.18021 0.87466 0.15513 0.0
C459 C 0.13865 0.92921 0.10595 0.0
O460 O 0.16198 0.89518 0.2729 0.0
O461 O 0.12876 0.91328 0.27239 0.0
O462 O 0.10261 0.91036 0.18598 0.0
O463 O 0.10848 0.87618 0.16301 0.0
O464 O 0.13956 0.8546 0.22748 0.0
O465 O 0.12395 0.84147 0.15165 0.0
O466 O 0.11445 0.86945 0.03702 0.0
O467 O 0.14938 0.85486 0.041 0.0
O468 O 0.17168 0.85635 0.13341 0.0
O469 O 0.16553 0.89113 0.15013 0.0
O470 O 0.1314 0.91065 0.08172 0.0
O471 O 0.14627 0.92709 0.15466 0.0
H472 H 0.10802 0.9046 0.35568 0.0
H473 H 0.10587 0.89714 0.44831 0.0
H474 H 0.18053 0.88742 0.46129 0.0
H475 H 0.18258 0.8946 0.36857 0.0
H476 H 0.17038 0.86051 0.95682 0.0
H477 H 0.17324 0.86855 0.86454 0.0
H478 H 0.09901 0.88104 0.85004 0.0
H479 H 0.09626 0.87339 0.94232 0.0
C480 C 0.88097 0.59008 0.29822 0.0
Eu481 Eu 0.8853 0.6051 0.2023 0.0
C482 C 0.88166 0.59769 0.35237 0.0
C483 C 0.90236 0.59578 0.38331 0.0
C484 C 0.90259 0.60056 0.43565 0.0
C485 C 0.88209 0.60725 0.45886 0.0
C486 C 0.86144 0.60947 0.42769 0.0
C487 C 0.86121 0.6047 0.37527 0.0
C488 C 0.92659 0.60697 0.15494 0.0
C489 C 0.8913 0.66243 0.19433 0.0
C490 C 0.88656 0.64627 1.0039 0.0
Eu491 Eu 0.8825 0.63103 0.09967 0.0
C492 C 0.88491 0.63882 0.94963 0.0
C493 C 0.86404 0.6416 0.91952 0.0
C494 C 0.86318 0.63698 0.867 0.0
C495 C 0.88321 0.62964 0.84289 0.0
C496 C 0.90397 0.62646 0.87331 0.0
C497 C 0.90482 0.63103 0.9258 0.0
C498 C 0.84159 0.62847 0.14971 0.0
C499 C 0.87807 0.57406 0.10341 0.0
O500 O 0.86344 0.59689 0.26741 0.0
O501 O 0.90053 0.58974 0.27454 0.0
O502 O 0.91871 0.58866 0.17989 0.0
O503 O 0.91239 0.62391 0.15625 0.0
O504 O 0.88417 0.644 0.22225 0.0
O505 O 0.89562 0.66083 0.14546 0.0
O506 O 0.90399 0.63831 0.03371 0.0
O507 O 0.86734 0.64777 0.02863 0.0
O508 O 0.84849 0.64695 0.12367 0.0
O509 O 0.85604 0.61203 0.1465 0.0
O510 O 0.88366 0.59339 0.07717 0.0
O511 O 0.87487 0.57421 0.15351 0.0
H512 H 0.91836 0.59001 0.36738 0.0
H513 H 0.91877 0.59827 0.45828 0.0
H514 H 0.84535 0.61484 0.44379 0.0
H515 H 0.84487 0.6061 0.35292 0.0
H516 H 0.84844 0.64793 0.93622 0.0
H517 H 0.84693 0.63995 0.84494 0.0
H518 H 0.91969 0.62052 0.8565 0.0
H519 H 0.92128 0.62891 0.94748 0.0
C520 C 0.16582 0.10558 1.012 0.0
Eu521 Eu 0.15143 0.11844 0.91899 0.0
C522 C 0.16316 0.10943 0.06693 0.0
C523 C 0.16722 0.13136 0.0881 0.0
C524 C 0.16617 0.13377 0.14118 0.0
C525 C 0.16111 0.11428 0.17389 0.0
C526 C 0.15654 0.09253 0.15222 0.0
C527 C 0.15764 0.09014 0.09939 0.0
C528 C 0.14099 0.16201 0.87748 0.0
C529 C 0.09494 0.12123 0.89181 0.0
C530 C 0.11883 0.11706 0.70789 0.0
Eu531 Eu 0.13122 0.11379 0.80529 0.0
C532 C 0.12836 0.11757 0.65611 0.0
C533 C 0.12513 0.09806 0.62562 0.0
C534 C 0.13208 0.09882 0.57496 0.0
C535 C 0.14225 0.11921 0.55343 0.0
C536 C 0.14582 0.13864 0.58413 0.0
C537 C 0.13896 0.13784 0.63501 0.0
C538 C 0.13424 0.07397 0.8675 0.0
C539 C 0.1877 0.11694 0.82516 0.0
O540 O 0.14823 0.0957 0.98751 0.0
O541 O 0.1762 0.12184 0.984 0.0
O542 O 0.14852 0.15804 0.92483 0.0
O543 O 0.13876 0.14269 0.85615 0.0
O544 O 0.11165 0.11484 0.92676 0.0
O545 O 0.09931 0.1257 0.84307 0.0
O546 O 0.12252 0.13531 0.73597 0.0
O547 O 0.12008 0.09712 0.73483 0.0
O548 O 0.11691 0.07855 0.83477 0.0
O549 O 0.14912 0.09019 0.86455 0.0
O550 O 0.16976 0.11598 0.79161 0.0
O551 O 0.18518 0.11725 0.8756 0.0
H552 H 0.17158 0.14653 0.06389 0.0
H553 H 0.1699 0.15072 0.15673 0.0
H554 H 0.15214 0.07727 0.17612 0.0
H555 H 0.15447 0.07304 0.0839 0.0
H556 H 0.11668 0.08234 0.64056 0.0
H557 H 0.12874 0.08369 0.55209 0.0
H558 H 0.15378 0.15453 0.5687 0.0
H559 H 0.14156 0.15325 0.65736 0.0
C560 C 0.6463 0.40642 0.79839 0.0
Eu561 Eu 0.63623 0.39405 0.70422 0.0
C562 C 0.64403 0.39956 0.85363 0.0
C563 C 0.62228 0.39905 0.87645 0.0
C564 C 0.62089 0.39507 0.92974 0.0
C565 C 0.64119 0.3916 0.96158 0.0
C566 C 0.66286 0.39156 0.93837 0.0
C567 C 0.66424 0.39555 0.88517 0.0
C568 C 0.59152 0.39234 0.66324 0.0
C569 C 0.62887 0.33702 0.69885 0.0
C570 C 0.62762 0.35903 0.51128 0.0
Eu571 Eu 0.63423 0.37238 0.60584 0.0
C572 C 0.63006 0.36627 0.45623 0.0
C573 C 0.65183 0.36625 0.43348 0.0
C574 C 0.65338 0.37049 0.38029 0.0
C575 C 0.6332 0.37471 0.34845 0.0
C576 C 0.61154 0.37529 0.37156 0.0
C577 C 0.61 0.37106 0.42464 0.0
C578 C 0.67807 0.37404 0.65326 0.0
C579 C 0.63689 0.42889 0.60518 0.0
O580 O 0.66025 0.39408 0.77198 0.0
O581 O 0.62761 0.4132 0.77142 0.0
O582 O 0.60076 0.40998 0.6862 0.0
O583 O 0.60633 0.37586 0.66279 0.0
O584 O 0.63794 0.35416 0.72619 0.0
O585 O 0.62158 0.34125 0.65091 0.0
O586 O 0.61178 0.36956 0.53635 0.0
O587 O 0.64648 0.35442 0.53986 0.0
O588 O 0.66929 0.35583 0.63163 0.0
O589 O 0.66349 0.39062 0.64865 0.0
O590 O 0.6292 0.41046 0.58109 0.0
O591 O 0.64474 0.42659 0.65369 0.0
H592 H 0.60635 0.40227 0.8534 0.0
H593 H 0.60391 0.39549 0.94612 0.0
H594 H 0.67885 0.38857 0.96136 0.0
H595 H 0.68125 0.396 0.86876 0.0
H596 H 0.66764 0.36236 0.45648 0.0
H597 H 0.67034 0.36965 0.36393 0.0
H598 H 0.59566 0.37884 0.34854 0.0
H599 H 0.59295 0.37099 0.44085 0.0
C600 C 0.37307 0.90823 0.21173 0.0
Eu601 Eu 0.37968 0.89418 0.30868 0.0
C602 C 0.37456 0.90088 0.15776 0.0
C603 C 0.39572 0.90228 0.13255 0.0
C604 C 0.39648 0.89803 0.08006 0.0
C605 C 0.37609 0.89236 0.05112 0.0
C606 C 0.35502 0.89046 0.07668 0.0
C607 C 0.35426 0.89475 0.12917 0.0
C608 C 0.4225 0.89304 0.3591 0.0
C609 C 0.38734 0.8372 0.32039 0.0
C610 C 0.38326 0.85528 0.50716 0.0
Eu611 Eu 0.37853 0.86994 0.41028 0.0
C612 C 0.38095 0.86252 0.561 0.0
C613 C 0.35965 0.86023 0.58545 0.0
C614 C 0.35827 0.86459 0.6378 0.0
C615 C 0.37816 0.87125 0.66732 0.0
C616 C 0.39935 0.87395 0.64251 0.0
C617 C 0.40073 0.86957 0.59023 0.0
C618 C 0.33652 0.87144 0.35523 0.0
C619 C 0.37395 0.92665 0.4041 0.0
O620 O 0.35671 0.89903 0.23959 0.0
O621 O 0.39247 0.91129 0.23872 0.0
O622 O 0.41367 0.911 0.33291 0.0
O623 O 0.40819 0.87603 0.35795 0.0
O624 O 0.37931 0.85497 0.29019 0.0
O625 O 0.39235 0.83988 0.36942 0.0
O626 O 0.40013 0.86458 0.481 0.0
O627 O 0.36432 0.85232 0.47843 0.0
O628 O 0.34467 0.85304 0.38108 0.0
O629 O 0.35066 0.88827 0.36011 0.0
O630 O 0.38003 0.90767 0.432 0.0
O631 O 0.36986 0.92577 0.35379 0.0
H632 H 0.4117 0.90717 0.15305 0.0
H633 H 0.41309 0.89934 0.06207 0.0
H634 H 0.33889 0.88645 0.05575 0.0
H635 H 0.33759 0.8939 0.14704 0.0
H636 H 0.34409 0.85459 0.56443 0.0
H637 H 0.34156 0.86262 0.6552 0.0
H638 H 0.41515 0.87868 0.66387 0.0
H639 H 0.41752 0.87112 0.57303 0.0
H640 H 0.12022 0.59796 0.78539 0.0
H641 H 0.17291 0.64352 0.51851 0.0
H642 H 0.1687 0.65563 0.77242 0.0
H643 H 0.12277 0.58733 0.53142 0.0
H644 H 0.17216 0.6478 0.61141 0.0
H645 H 0.12136 0.59353 0.69272 0.0
C646 C 0.13106 0.60977 0.76316 0.0
C647 C 0.14435 0.62725 0.78715 0.0
C648 C 0.16129 0.63455 0.59392 0.0
C649 C 0.14588 0.6221 0.68041 0.0
C650 C 0.16178 0.63201 0.54079 0.0
C651 C 0.14785 0.61504 0.51672 0.0
C652 C 0.14683 0.61997 0.62361 0.0
C653 C 0.13356 0.60089 0.54786 0.0
C654 C 0.13178 0.60714 0.71012 0.0
C655 C 0.15837 0.6417 0.75604 0.0
N656 N 0.13346 0.60365 0.59947 0.0
N657 N 0.15872 0.63884 0.70447 0.0
H658 H 0.66731 0.92277 0.99725 0.0
H659 H 0.61497 0.84707 0.76731 0.0
H660 H 0.62208 0.86304 0.02021 0.0
H661 H 0.65919 0.90761 0.74458 0.0
H662 H 0.61626 0.85341 0.85941 0.0
H663 H 0.66376 0.91799 0.90463 0.0
C664 C 0.65667 0.90858 0.98291 0.0
C665 C 0.64511 0.89318 0.01693 0.0
C666 C 0.62562 0.86536 0.83428 0.0
C667 C 0.64078 0.88775 0.91022 0.0
C668 C 0.62477 0.86186 0.78147 0.0
C669 C 0.63697 0.87683 0.74771 0.0
C670 C 0.63882 0.88396 0.85392 0.0
C671 C 0.64974 0.8954 0.76891 0.0
C672 C 0.65455 0.90595 0.92985 0.0
C673 C 0.63118 0.87546 0.99567 0.0
N674 N 0.65035 0.8984 0.82049 0.0
N675 N 0.6295 0.87318 0.94383 0.0
H676 H 0.38627 0.40659 0.32163 0.0
H677 H 0.37092 0.34668 0.04954 0.0
H678 H 0.36842 0.33385 0.30312 0.0
H679 H 0.38614 0.42028 0.06361 0.0
H680 H 0.37269 0.34146 0.14296 0.0
H681 H 0.38932 0.4117 0.22813 0.0
C682 C 0.38318 0.39165 0.29804 0.0
C683 C 0.37682 0.36981 0.32037 0.0
C684 C 0.37575 0.35876 0.12575 0.0
C685 C 0.38016 0.37557 0.2133 0.0
C686 C 0.37464 0.36178 0.07227 0.0
C687 C 0.37816 0.38401 0.04846 0.0
C688 C 0.38038 0.3781 0.15615 0.0
C689 C 0.38342 0.4028 0.08016 0.0
C690 C 0.38481 0.39461 0.24463 0.0
C691 C 0.3729 0.35114 0.2877 0.0
N692 N 0.38421 0.39946 0.13232 0.0
N693 N 0.37454 0.35447 0.23605 0.0
H694 H 0.90005 0.1447 0.51505 0.0
H695 H 0.85155 0.10144 0.24135 0.0
H696 H 0.84987 0.08882 0.49795 0.0
H697 H 0.90233 0.15671 0.25926 0.0
H698 H 0.85018 0.09693 0.335 0.0
H699 H 0.90088 0.14946 0.42149 0.0
C700 C 0.88925 0.13336 0.49175 0.0
C701 C 0.87487 0.11631 0.51481 0.0
C702 C 0.86165 0.11003 0.31843 0.0
C703 C 0.87559 0.12185 0.40703 0.0
C704 C 0.86235 0.11271 0.26484 0.0
C705 C 0.87714 0.12945 0.24202 0.0
C706 C 0.87577 0.12423 0.34975 0.0
C707 C 0.89094 0.1433 0.27482 0.0
C708 C 0.88965 0.13617 0.43818 0.0
C709 C 0.861 0.10243 0.48221 0.0
N710 N 0.8899 0.14039 0.32679 0.0
N711 N 0.86174 0.10547 0.43018 0.0
H712 H 0.16614 0.34538 0.26768 0.0
H713 H 0.12129 0.41618 0.50326 0.0
H714 H 0.11704 0.40263 0.24859 0.0
H715 H 0.17057 0.35904 0.52019 0.0
H716 H 0.11886 0.41123 0.41032 0.0
H717 H 0.1679 0.35034 0.36025 0.0
C718 C 0.15588 0.35916 0.28283 0.0
C719 C 0.14149 0.37367 0.24999 0.0
C720 C 0.13018 0.39977 0.4344 0.0
C721 C 0.14316 0.37923 0.35666 0.0
C722 C 0.13147 0.40248 0.48756 0.0
C723 C 0.14624 0.38807 0.51978 0.0
C724 C 0.14371 0.38247 0.41312 0.0
C725 C 0.15923 0.37082 0.49696 0.0
C726 C 0.15676 0.36187 0.33588 0.0
C727 C 0.12822 0.39088 0.2723 0.0
N728 N 0.15767 0.36853 0.44521 0.0
N729 N 0.12939 0.39319 0.32413 0.0
H730 H 0.89671 0.89931 0.81994 0.0
H731 H 0.84946 0.85467 0.54658 0.0
H732 H 0.8468 0.8432 0.80281 0.0
H733 H 0.90076 0.90948 0.564 0.0
H734 H 0.84775 0.85063 0.64019 0.0
H735 H 0.8982 0.90348 0.72636 0.0
C736 C 0.88611 0.8878 0.79663 0.0
C737 C 0.87158 0.87088 0.81967 0.0
C738 C 0.85942 0.86352 0.62354 0.0
C739 C 0.87307 0.87572 0.71195 0.0
C740 C 0.86032 0.86592 0.56998 0.0
C741 C 0.87532 0.8824 0.54705 0.0
C742 C 0.87356 0.87775 0.65472 0.0
C743 C 0.88919 0.89627 0.5797 0.0
C744 C 0.88689 0.89027 0.74307 0.0
C745 C 0.858 0.85674 0.78708 0.0
N746 N 0.88795 0.89365 0.63167 0.0
N747 N 0.8591 0.85946 0.73508 0.0
H748 H 0.34246 0.64256 0.74723 0.0
H749 H 0.41067 0.60149 1.01168 0.0
H750 H 0.41182 0.61324 0.7557 0.0
H751 H 0.341 0.63005 1.00405 0.0
H752 H 0.41141 0.60596 0.91813 0.0
H753 H 0.34132 0.6377 0.84082 0.0
C754 C 0.35739 0.6349 0.76859 0.0
C755 C 0.37729 0.62834 0.74317 0.0
C756 C 0.39595 0.61129 0.93686 0.0
C757 C 0.3762 0.62301 0.85096 0.0
C758 C 0.39558 0.60891 0.99048 0.0
C759 C 0.37576 0.61545 0.01619 0.0
C760 C 0.37638 0.62032 0.90827 0.0
C761 C 0.35658 0.62451 0.98613 0.0
C762 C 0.35678 0.63228 0.82221 0.0
C763 C 0.39621 0.61887 0.77339 0.0
N764 N 0.35739 0.62669 0.93396 0.0
N765 N 0.3952 0.61653 0.82547 0.0
H766 H 0.67976 0.09458 0.03673 0.0
H767 H 0.61029 0.14792 0.26493 0.0
H768 H 0.61676 0.13546 1.01226 0.0
H769 H 0.67412 0.10839 0.28973 0.0
H770 H 0.61223 0.14317 0.17261 0.0
H771 H 0.67814 0.09959 0.12909 0.0
C772 C 0.66567 0.10479 0.05057 0.0
C773 C 0.6484 0.11465 0.01618 0.0
C774 C 0.62583 0.13551 0.19819 0.0
C775 C 0.64626 0.12016 0.12272 0.0
C776 C 0.62465 0.13807 0.25114 0.0
C777 C 0.64202 0.12846 0.28562 0.0
C778 C 0.64451 0.12322 0.17907 0.0
C779 C 0.66043 0.11632 0.26487 0.0
C780 C 0.66468 0.1075 0.10354 0.0
C781 C 0.63033 0.12728 0.03701 0.0
N782 N 0.66116 0.11403 0.21313 0.0
N783 N 0.62976 0.12966 0.08872 0.0
H784 H 0.87204 0.41515 0.21632 0.0
H785 H 0.88372 0.35856 0.50459 0.0
H786 H 0.88902 0.34243 0.25265 0.0
H787 H 0.86512 0.4309 0.4686 0.0
H788 H 0.88717 0.35277 0.41286 0.0
H789 H 0.87025 0.42148 0.30828 0.0
C790 C 0.87533 0.40046 0.24343 0.0
C791 C 0.88071 0.37818 0.22611 0.0
C792 C 0.88236 0.36993 0.425 0.0
C793 C 0.87889 0.38545 0.3323 0.0
C794 C 0.88054 0.37332 0.47761 0.0
C795 C 0.87404 0.39527 0.4949 0.0
C796 C 0.87769 0.3886 0.3889 0.0
C797 C 0.86981 0.41355 0.45746 0.0
C798 C 0.87443 0.40414 0.29614 0.0
C799 C 0.88516 0.36001 0.2637 0.0
N800 N 0.87167 0.4098 0.40651 0.0
N801 N 0.88411 0.36403 0.31469 0.0
H802 H 0.35926 0.15698 0.26561 0.0
H803 H 0.40297 0.07939 0.03908 0.0
H804 H 0.40137 0.09465 0.29197 0.0
H805 H 0.35942 0.14068 1.01239 0.0
H806 H 0.40283 0.08497 0.13142 0.0
H807 H 0.35891 0.15121 0.17324 0.0
C808 C 0.36829 0.14194 0.25222 0.0
C809 C 0.38033 0.12627 0.28724 0.0
C810 C 0.3933 0.09722 0.10543 0.0
C811 C 0.38028 0.11976 0.1805 0.0
C812 C 0.39351 0.09416 0.05243 0.0
C813 C 0.38127 0.10964 0.01733 0.0
C814 C 0.38079 0.11595 0.12405 0.0
C815 C 0.36893 0.12812 0.03763 0.0
C816 C 0.36821 0.13877 0.1992 0.0
C817 C 0.39208 0.10741 0.26684 0.0
N818 N 0.36905 0.13077 0.08941 0.0
N819 N 0.39175 0.10471 0.21509 0.0
H820 H 0.65575 0.65595 0.98638 0.0
H821 H 0.62645 0.58862 0.72812 0.0
H822 H 0.61974 0.58961 0.97987 0.0
H823 H 0.66997 0.65034 0.73168 0.0
H824 H 0.62091 0.59129 0.81969 0.0
H825 H 0.65848 0.65666 0.89248 0.0
C826 C 0.64838 0.6416 0.96518 0.0
C827 C 0.63776 0.62256 0.99096 0.0
C828 C 0.63165 0.60432 0.80059 0.0
C829 C 0.64069 0.62329 0.88401 0.0
C830 C 0.63487 0.60275 0.74827 0.0
C831 C 0.64895 0.61909 0.72238 0.0
C832 C 0.6426 0.62236 0.82757 0.0
C833 C 0.65896 0.63739 0.7502 0.0
C834 C 0.64998 0.64198 0.91172 0.0
C835 C 0.6285 0.60441 0.96173 0.0
N836 N 0.65573 0.63844 0.80148 0.0
N837 N 0.6302 0.60523 0.90997 0.0
H838 H 0.16748 0.86075 0.52877 0.0
H839 H 0.11297 0.90731 0.78352 0.0
H840 H 0.11639 0.91618 0.52722 0.0
H841 H 0.1627 0.85064 0.7848 0.0
H842 H 0.11432 0.91109 0.68989 0.0
H843 H 0.16637 0.85716 0.62248 0.0
C844 C 0.15606 0.87223 0.54804 0.0
C845 C 0.142 0.8888 0.51972 0.0
C846 C 0.12497 0.89784 0.71064 0.0
C847 C 0.14056 0.88467 0.62753 0.0
C848 C 0.12414 0.8956 0.76421 0.0
C849 C 0.13772 0.87859 0.79245 0.0
C850 C 0.13946 0.88297 0.68471 0.0
C851 C 0.15214 0.86422 0.76501 0.0
C852 C 0.15537 0.87009 0.60166 0.0
C853 C 0.12732 0.90292 0.54711 0.0
N854 N 0.15258 0.8667 0.71285 0.0
N855 N 0.12703 0.90057 0.5993 0.0
H856 H 0.8482 0.61043 0.7818 0.0
H857 H 0.91623 0.62781 0.51987 0.0
H858 H 0.91692 0.64077 0.77371 0.0
H859 H 0.84824 0.59579 0.52777 0.0
H860 H 0.91654 0.63299 0.61246 0.0
H861 H 0.84756 0.60549 0.68894 0.0
C862 C 0.86314 0.61615 0.76062 0.0
C863 C 0.88266 0.62603 0.78613 0.0
C864 C 0.90152 0.62485 0.59398 0.0
C865 C 0.88208 0.62023 0.67913 0.0
C866 C 0.90137 0.62176 0.54094 0.0
C867 C 0.88219 0.61127 0.51545 0.0
C868 C 0.88237 0.61741 0.62229 0.0
C869 C 0.86331 0.60424 0.54522 0.0
C870 C 0.8628 0.61321 0.70748 0.0
C871 C 0.9016 0.63275 0.75626 0.0
N872 N 0.86391 0.60738 0.59682 0.0
N873 N 0.90081 0.62977 0.70462 0.0
H874 H 0.13431 0.15544 0.48202 0.0
H875 H 0.17851 0.08319 0.24896 0.0
H876 H 0.16311 0.08557 0.49946 0.0
H877 H 0.14346 0.15003 0.22795 0.0
H878 H 0.17622 0.08555 0.3417 0.0
H879 H 0.14118 0.15573 0.39004 0.0
C880 C 0.14235 0.14028 0.46663 0.0
C881 C 0.14804 0.12039 0.49844 0.0
C882 C 0.16908 0.09976 0.31689 0.0
C883 C 0.15568 0.1205 0.39314 0.0
C884 C 0.17025 0.09835 0.26384 0.0
C885 C 0.1609 0.11631 0.2305 0.0
C886 C 0.15849 0.11927 0.33703 0.0
C887 C 0.15097 0.13582 0.25216 0.0
C888 C 0.14611 0.14039 0.41405 0.0
C889 C 0.15815 0.10114 0.47625 0.0
N890 N 0.1499 0.13672 0.30407 0.0
N891 N 0.16156 0.10165 0.425 0.0
H892 H 0.66642 0.39825 0.2927 0.0
H893 H 0.60843 0.36755 0.01764 0.0
H894 H 0.60328 0.35778 0.27341 0.0
H895 H 0.67082 0.4092 0.03652 0.0
H896 H 0.60631 0.36377 0.11112 0.0
H897 H 0.66857 0.40213 0.19915 0.0
C898 C 0.65304 0.3901 0.26891 0.0
C899 C 0.63461 0.37769 0.29132 0.0
C900 C 0.62049 0.37372 0.09483 0.0
C901 C 0.6369 0.38223 0.18368 0.0
C902 C 0.62165 0.37599 0.0413 0.0
C903 C 0.63985 0.38871 0.01876 0.0
C904 C 0.63763 0.38424 0.12644 0.0
C905 C 0.65665 0.39892 0.05184 0.0
C906 C 0.65422 0.39243 0.21538 0.0
C907 C 0.61763 0.36782 0.25816 0.0
N908 N 0.65512 0.39649 0.1038 0.0
N909 N 0.61921 0.37027 0.20624 0.0
H910 H 0.40144 0.91726 0.97976 0.0
H911 H 0.35294 0.84599 0.73859 0.0
H912 H 0.35188 0.86053 0.99223 0.0
H913 H 0.40102 0.90403 0.72604 0.0
H914 H 0.35215 0.85114 0.83109 0.0
H915 H 0.40182 0.91232 0.8872 0.0
C916 C 0.39076 0.90362 0.96325 0.0
C917 C 0.37666 0.88925 0.99435 0.0
C918 C 0.36285 0.86278 0.80811 0.0
C919 C 0.37679 0.88369 0.88742 0.0
C920 C 0.36319 0.85997 0.75504 0.0
C921 C 0.37706 0.8746 0.72395 0.0
C922 C 0.37648 0.88036 0.83077 0.0
C923 C 0.39029 0.89209 0.74818 0.0
C924 C 0.39086 0.90092 0.91013 0.0
C925 C 0.36286 0.87221 0.97006 0.0
N926 N 0.38967 0.89445 0.7999 0.0
N927 N 0.3633 0.8699 0.91827 0.0
H928 H 0.16444 0.69022 0.25832 0.0
H929 H 0.09332 0.80921 0.18983 0.0
H930 H 0.10103 0.69642 0.16379 0.0
H931 H 0.16387 0.80961 0.25341 0.0
H932 H 0.09253 0.7666 0.20156 0.0
H933 H 0.16151 0.7323 0.27592 0.0
C934 C 0.14964 0.70028 0.24236 0.0
C935 C 0.13298 0.68989 0.20938 0.0
C936 C 0.10811 0.7759 0.21389 0.0
C937 C 0.12952 0.73775 0.22925 0.0
C938 C 0.10848 0.80029 0.20761 0.0
C939 C 0.12866 0.81294 0.22075 0.0
C940 C 0.12826 0.7638 0.23257 0.0
C941 C 0.14788 0.80048 0.24329 0.0
C942 C 0.14807 0.72429 0.25208 0.0
C943 C 0.11433 0.70375 0.18912 0.0
N944 N 0.14737 0.7765 0.24771 0.0
N945 N 0.11317 0.72685 0.19921 0.0
H946 H 0.57117 0.85227 0.40792 0.0
H947 H 0.45389 0.92855 0.35846 0.0
H948 H 0.56631 0.91971 0.32682 0.0
H949 H 0.45019 0.85348 0.3843 0.0
H950 H 0.49623 0.92634 0.36574 0.0
H951 H 0.5283 0.85302 0.41705 0.0
C952 C 0.56121 0.86739 0.39305 0.0
C953 C 0.57237 0.88604 0.36677 0.0
C954 C 0.48629 0.91027 0.37016 0.0
C955 C 0.52358 0.88703 0.37705 0.0
C956 C 0.46198 0.91153 0.36613 0.0
C957 C 0.44828 0.89116 0.3702 0.0
C958 C 0.49746 0.88845 0.37855 0.0
C959 C 0.45999 0.86965 0.3807 0.0
C960 C 0.53676 0.86772 0.3978 0.0
C961 C 0.55853 0.90497 0.3474 0.0
N962 N 0.48391 0.86882 0.38418 0.0
N963 N 0.53511 0.90499 0.35305 0.0
H964 H 0.42447 0.30765 0.71033 0.0
H965 H 0.36595 0.18236 0.76914 0.0
H966 H 0.35825 0.30035 0.7806 0.0
H967 H 0.42311 0.1958 0.67023 0.0
H968 H 0.36755 0.2237 0.79315 0.0
H969 H 0.42943 0.26516 0.71758 0.0
C970 C 0.4113 0.29705 0.72885 0.0
C971 C 0.391 0.30745 0.74511 0.0
C972 C 0.37997 0.21743 0.7669 0.0
C973 C 0.396 0.25857 0.75154 0.0
C974 C 0.37915 0.19385 0.75344 0.0
C975 C 0.39431 0.18574 0.71733 0.0
C976 C 0.3963 0.23277 0.74461 0.0
C977 C 0.41093 0.20138 0.69777 0.0
C978 C 0.41399 0.27276 0.7325 0.0
C979 C 0.37429 0.29295 0.76821 0.0
N980 N 0.4114 0.22406 0.71144 0.0
N981 N 0.37694 0.26912 0.7699 0.0
H982 H 0.94661 0.15271 0.88655 0.0
H983 H 0.07038 0.09001 0.95244 0.0
H984 H 0.95371 0.07782 0.91189 0.0
H985 H 0.06264 0.15411 0.85929 0.0
H986 H 0.02769 0.08863 0.9596 0.0
H987 H 0.98918 0.15664 0.89805 0.0
C988 C 0.95707 0.13714 0.89546 0.0
C989 C 0.94659 0.11488 0.89798 0.0
C990 C 0.03542 0.10319 0.93834 0.0
C991 C 0.99531 0.11928 0.91163 0.0
C992 C 0.05977 0.1041 0.93471 0.0
C993 C 0.07007 0.12223 0.90534 0.0
C994 C 0.02134 0.12078 0.91329 0.0
C995 C 0.05542 0.13981 0.88229 0.0
C996 C 0.98137 0.13939 0.90174 0.0
C997 C 0.96107 0.0953 0.90934 0.0
N998 N 0.03189 0.13867 0.88675 0.0
N999 N 0.98463 0.09794 0.9157 0.0
H1000 H 0.09404 0.30381 0.87487 0.0
H1001 H 0.15553 0.18635 0.79095 0.0
H1002 H 0.15593 0.30604 0.78713 0.0
H1003 H 0.1111 0.19133 0.91873 0.0
H1004 H 0.14916 0.22864 0.76965 0.0
H1005 H 0.09287 0.26131 0.86946 0.0
C1006 C 0.10715 0.29536 0.85345 0.0
C1007 C 0.12525 0.3085 0.83187 0.0
C1008 C 0.14045 0.2203 0.80163 0.0
C1009 C 0.12427 0.25948 0.82639 0.0
C1010 C 0.14389 0.1962 0.81345 0.0
C1011 C 0.13368 0.18546 0.85645 0.0
C1012 C 0.1264 0.23343 0.83263 0.0
C1013 C 0.11919 0.19898 0.88515 0.0
C1014 C 0.10653 0.27104 0.85062 0.0
C1015 C 0.14165 0.29658 0.80424 0.0
N1016 N 0.11601 0.22218 0.8728 0.0
N1017 N 0.14102 0.27264 0.80298 0.0
H1018 H 0.06656 0.85222 0.15454 0.0
H1019 H 0.94705 0.92579 0.15655 0.0
H1020 H 0.06164 0.9276 0.15392 0.0
H1021 H 0.94754 0.85019 0.16786 0.0
H1022 H 0.98897 0.9257 0.14615 0.0
H1023 H 0.02349 0.84998 0.15084 0.0
C1024 C 0.05648 0.86828 0.15292 0.0
C1025 C 0.06781 0.89016 0.15474 0.0
C1026 C 0.98006 0.90903 0.15052 0.0
C1027 C 0.01855 0.88773 0.15065 0.0
C1028 C 0.95598 0.90908 0.15631 0.0
C1029 C 0.94364 0.88799 0.16328 0.0
C1030 C 0.99235 0.88769 0.15204 0.0
C1031 C 0.95629 0.86689 0.16243 0.0
C1032 C 0.03189 0.86699 0.15106 0.0
C1033 C 0.05378 0.91035 0.15289 0.0
N1034 N 0.97997 0.86727 0.15744 0.0
N1035 N 0.03012 0.90863 0.15112 0.0
H1036 H 0.35652 0.69269 0.26671 0.0
H1037 H 0.42505 0.80945 0.3379 0.0
H1038 H 0.42314 0.69536 0.34913 0.0
H1039 H 0.35692 0.81101 0.26158 0.0
H1040 H 0.42769 0.76762 0.32419 0.0
H1041 H 0.35907 0.73536 0.24734 0.0
C1042 C 0.37199 0.70213 0.27922 0.0
C1043 C 0.38963 0.69062 0.30966 0.0
C1044 C 0.41224 0.77703 0.30955 0.0
C1045 C 0.39256 0.73914 0.28842 0.0
C1046 C 0.41082 0.80097 0.31717 0.0
C1047 C 0.39075 0.81361 0.3009 0.0
C1048 C 0.39316 0.76532 0.28665 0.0
C1049 C 0.37277 0.80183 0.27436 0.0
C1050 C 0.37336 0.72647 0.2686 0.0
C1051 C 0.40911 0.70364 0.32577 0.0
N1052 N 0.37418 0.77817 0.26891 0.0
N1053 N 0.40995 0.72713 0.31535 0.0
H1054 H 0.57249 0.14843 0.63802 0.0
H1055 H 0.45569 0.07058 0.6442 0.0
H1056 H 0.57025 0.07283 0.64538 0.0
H1057 H 0.4537 0.14614 0.6421 0.0
H1058 H 0.49767 0.07214 0.63524 0.0
H1059 H 0.52945 0.14911 0.63058 0.0
C1060 C 0.56299 0.13201 0.63728 0.0
C1061 C 0.575 0.11051 0.6426 0.0
C1062 C 0.48819 0.08849 0.63636 0.0
C1063 C 0.52587 0.11115 0.63437 0.0
C1064 C 0.46411 0.08758 0.64138 0.0
C1065 C 0.45111 0.10823 0.64422 0.0
C1066 C 0.49975 0.11024 0.63457 0.0
C1067 C 0.46304 0.12977 0.64005 0.0
C1068 C 0.53843 0.13241 0.63329 0.0
C1069 C 0.56179 0.0898 0.64171 0.0
N1070 N 0.48673 0.13023 0.63597 0.0
N1071 N 0.53811 0.09065 0.63798 0.0
H1072 H 0.92425 0.19411 0.84444 0.0
H1073 H 0.8571 0.31256 0.75466 0.0
H1074 H 0.8559 0.19414 0.76925 0.0
H1075 H 0.92114 0.30806 0.84735 0.0
H1076 H 0.85978 0.27014 0.74111 0.0
H1077 H 0.9271 0.23623 0.82576 0.0
C1078 C 0.91005 0.203 0.82278 0.0
C1079 C 0.88983 0.19072 0.80834 0.0
C1080 C 0.87348 0.27858 0.76347 0.0
C1081 C 0.8925 0.23929 0.78844 0.0
C1082 C 0.87205 0.30278 0.77084 0.0
C1083 C 0.88887 0.31372 0.80241 0.0
C1084 C 0.89198 0.26545 0.78749 0.0
C1085 C 0.9077 0.30025 0.82309 0.0
C1086 C 0.91158 0.2271 0.8124 0.0
C1087 C 0.87186 0.20304 0.78062 0.0
N1088 N 0.90864 0.2769 0.81559 0.0
N1089 N 0.87341 0.2268 0.77237 0.0
H1090 H 0.59641 0.80384 0.37425 0.0
H1091 H 0.65695 0.68614 0.28867 0.0
H1092 H 0.65792 0.80588 0.28531 0.0
H1093 H 0.61257 0.69116 0.41652 0.0
H1094 H 0.6509 0.72853 0.26786 0.0
H1095 H 0.59496 0.76135 0.36854 0.0
C1096 C 0.60936 0.79535 0.35247 0.0
C1097 C 0.62743 0.80842 0.3306 0.0
C1098 C 0.64213 0.72018 0.29975 0.0
C1099 C 0.62618 0.75942 0.32486 0.0
C1100 C 0.64539 0.69603 0.3113 0.0
C1101 C 0.63508 0.68526 0.35414 0.0
C1102 C 0.62817 0.73334 0.33089 0.0
C1103 C 0.62072 0.69883 0.38304 0.0
C1104 C 0.6086 0.77103 0.34948 0.0
C1105 C 0.64365 0.79646 0.30259 0.0
N1106 N 0.61772 0.72207 0.37096 0.0
N1107 N 0.6429 0.77252 0.30121 0.0
H1108 H 0.92501 0.69438 0.17494 0.0
H1109 H 0.85621 0.80114 0.27814 0.0
H1110 H 0.86399 0.68351 0.26339 0.0
H1111 H 0.92492 0.80608 0.21892 0.0
H1112 H 0.86017 0.75807 0.28471 0.0
H1113 H 0.92694 0.73485 0.20057 0.0
C1114 C 0.91216 0.70051 0.20041 0.0
C1115 C 0.89426 0.68566 0.21685 0.0
C1116 C 0.87466 0.76862 0.27183 0.0
C1117 C 0.89594 0.73241 0.24563 0.0
C1118 C 0.87249 0.79319 0.26869 0.0
C1119 C 0.89035 0.80706 0.24828 0.0
C1120 C 0.89473 0.75808 0.25391 0.0
C1121 C 0.91082 0.79595 0.23509 0.0
C1122 C 0.91326 0.72367 0.21517 0.0
C1123 C 0.87811 0.69445 0.25003 0.0
N1124 N 0.91232 0.77219 0.23747 0.0
N1125 N 0.87905 0.71744 0.26258 0.0
H1126 H 0.59775 0.1938 0.66813 0.0
H1127 H 0.6618 0.31039 0.75571 0.0
H1128 H 0.66396 0.19157 0.75279 0.0
H1129 H 0.59264 0.30745 0.68507 0.0
H1130 H 0.66161 0.26718 0.76725 0.0
H1131 H 0.59401 0.23512 0.68569 0.0
C1132 C 0.61137 0.20202 0.69122 0.0
C1133 C 0.63119 0.18928 0.70896 0.0
C1134 C 0.64627 0.27607 0.75038 0.0
C1135 C 0.62743 0.23713 0.72817 0.0
C1136 C 0.64631 0.30072 0.7443 0.0
C1137 C 0.62721 0.31245 0.71934 0.0
C1138 C 0.627 0.26324 0.73132 0.0
C1139 C 0.60776 0.29909 0.70429 0.0
C1140 C 0.60928 0.22569 0.70122 0.0
C1141 C 0.64832 0.20079 0.73873 0.0
N1142 N 0.60826 0.27533 0.71003 0.0
N1143 N 0.64627 0.22422 0.74666 0.0
H1144 H 0.94634 0.35503 0.89844 0.0
H1145 H 0.0656 0.42035 0.82538 0.0
H1146 H 0.95239 0.42173 0.81576 0.0
H1147 H 0.06733 0.3526 0.90542 0.0
H1148 H 0.02371 0.42171 0.83235 0.0
H1149 H 0.98949 0.35401 0.91155 0.0
C1150 C 0.95662 0.36964 0.88409 0.0
C1151 C 0.94568 0.38853 0.85592 0.0
C1152 C 0.033 0.40649 0.84894 0.0
C1153 C 0.99485 0.38742 0.87033 0.0
C1154 C 0.05712 0.40577 0.84508 0.0
C1155 C 0.07013 0.38639 0.86486 0.0
C1156 C 0.02117 0.38742 0.87194 0.0
C1157 C 0.05801 0.36801 0.89002 0.0
C1158 C 0.98125 0.36897 0.89121 0.0
C1159 C 0.95993 0.40676 0.83751 0.0
N1160 N 0.03414 0.36882 0.89228 0.0
N1161 N 0.98347 0.4057 0.84487 0.0
H1162 H 0.44679 0.65251 0.38664 0.0
H1163 H 0.57071 0.58984 0.45056 0.0
H1164 H 0.45396 0.5776 0.41136 0.0
H1165 H 0.5627 0.65392 0.35744 0.0
H1166 H 0.52805 0.58844 0.45831 0.0
H1167 H 0.48938 0.65644 0.3975 0.0
C1168 C 0.45727 0.63693 0.39527 0.0
C1169 C 0.44681 0.61466 0.39782 0.0
C1170 C 0.53572 0.603 0.43694 0.0
C1171 C 0.49555 0.61907 0.41075 0.0
C1172 C 0.56005 0.60393 0.43298 0.0
C1173 C 0.57025 0.62206 0.40344 0.0
C1174 C 0.52157 0.62059 0.41206 0.0
C1175 C 0.55554 0.63963 0.38057 0.0
C1176 C 0.48158 0.63918 0.40119 0.0
C1177 C 0.46132 0.59508 0.40881 0.0
N1178 N 0.53204 0.63847 0.38535 0.0
N1179 N 0.48489 0.59772 0.41483 0.0
H1180 H 0.44687 0.42122 0.7008 0.0
H1181 H 0.56442 0.35217 0.64941 0.0
H1182 H 0.44473 0.34909 0.65893 0.0
H1183 H 0.55925 0.42691 0.6639 0.0
H1184 H 0.52137 0.34955 0.64933 0.0
H1185 H 0.48817 0.42282 0.6838 0.0
C1186 C 0.45508 0.40576 0.68706 0.0
C1187 C 0.44219 0.38512 0.6807 0.0
C1188 C 0.52971 0.36652 0.65195 0.0
C1189 C 0.49031 0.38647 0.66257 0.0
C1190 C 0.55429 0.36803 0.65189 0.0
C1191 C 0.56558 0.3898 0.65703 0.0
C1192 C 0.51635 0.38692 0.65733 0.0
C1193 C 0.55148 0.40972 0.66029 0.0
C1194 C 0.47881 0.40663 0.67753 0.0
C1195 C 0.45392 0.36551 0.66346 0.0
N1196 N 0.52786 0.40776 0.66074 0.0
N1197 N 0.47739 0.36656 0.65561 0.0
H1198 H 0.07303 0.64933 0.13935 0.0
H1199 H 0.95627 0.57134 0.14104 0.0
H1200 H 0.07075 0.57374 0.14356 0.0
H1201 H 0.95417 0.64682 0.14257 0.0
H1202 H 0.99825 0.57309 0.13218 0.0
H1203 H 0.02999 0.65006 0.13129 0.0
C1204 C 0.06353 0.63293 0.13775 0.0
C1205 C 0.07551 0.61141 0.14241 0.0
C1206 C 0.98875 0.58938 0.13407 0.0
C1207 C 0.0264 0.6121 0.13347 0.0
C1208 C 0.96467 0.58837 0.13903 0.0
C1209 C 0.95165 0.60893 0.14287 0.0
C1210 C 1.00028 0.61116 0.1334 0.0
C1211 C 0.96354 0.63051 0.13972 0.0
C1212 C 0.03897 0.63335 0.13343 0.0
C1213 C 0.0623 0.59073 0.14045 0.0
N1214 N 0.98723 0.63107 0.13572 0.0
N1215 N 0.03863 0.5916 0.1364 0.0
H1216 H 0.15628 0.53107 0.15188 0.0
H1217 H 0.14685 0.46803 0.88088 0.0
H1218 H 0.14539 0.56859 1.00523 0.0
H1219 H 0.15068 0.43062 0.02877 0.0
H1220 H 0.14905 0.50519 0.92512 0.0
H1221 H 0.15703 0.49416 0.10699 0.0
C1222 C 0.15417 0.53161 0.11035 0.0
C1223 C 0.15068 0.55309 0.08257 0.0
C1224 C 0.14947 0.4888 0.94781 0.0
C1225 C 0.15151 0.51078 0.03064 0.0
C1226 C 0.14828 0.46756 0.92249 0.0
C1227 C 0.14847 0.44601 0.95086 0.0
C1228 C 0.151 0.48858 1.00198 0.0
C1229 C 0.15032 0.44666 1.00492 0.0
C1230 C 0.15454 0.5105 0.08465 0.0
C1231 C 0.14802 0.55256 0.02858 0.0
N1232 N 0.15148 0.46746 0.0285 0.0
N1233 N 0.14846 0.53186 1.00457 0.0
H1234 H 0.71133 0.82748 0.36799 0.0
H1235 H 0.81192 0.90312 0.2323 0.0
H1236 H 0.70663 0.90239 0.34039 0.0
H1237 H 0.80581 0.82811 0.22336 0.0
H1238 H 0.7755 0.90342 0.27856 0.0
H1239 H 0.74767 0.8275 0.3218 0.0
C1240 C 0.71794 0.84396 0.35228 0.0
C1241 C 0.70581 0.86496 0.35824 0.0
C1242 C 0.7821 0.88689 0.26646 0.0
C1243 C 0.74781 0.86517 0.30536 0.0
C1244 C 0.80297 0.8867 0.24014 0.0
C1245 C 0.81199 0.86556 0.22361 0.0
C1246 C 0.77018 0.86574 0.27716 0.0
C1247 C 0.79954 0.84484 0.23506 0.0
C1248 C 0.73872 0.84396 0.32576 0.0
C1249 C 0.71532 0.88577 0.3368 0.0
N1250 N 0.77944 0.84545 0.26113 0.0
N1251 N 0.73572 0.88536 0.31167 0.0
H1252 H 0.36986 0.4296 0.53024 0.0
H1253 H 0.37393 0.56959 0.53634 0.0
H1254 H 0.3686 0.46668 0.67085 0.0
H1255 H 0.36792 0.53206 0.39624 0.0
H1256 H 0.37213 0.53241 0.586 0.0
H1257 H 0.36937 0.4669 0.4813 0.0
C1258 C 0.36947 0.44559 0.55107 0.0
C1259 C 0.36935 0.44484 0.60514 0.0
C1260 C 0.37113 0.53226 0.54444 0.0
C1261 C 0.36881 0.48804 0.54842 0.0
C1262 C 0.37218 0.55354 0.51583 0.0
C1263 C 0.37116 0.55407 0.46171 0.0
C1264 C 0.36914 0.51115 0.51904 0.0
C1265 C 0.36878 0.5326 0.43773 0.0
C1266 C 0.36914 0.46697 0.52282 0.0
C1267 C 0.36872 0.46631 0.62939 0.0
N1268 N 0.36797 0.51205 0.46652 0.0
N1269 N 0.36857 0.48701 0.60089 0.0
H1270 H 0.81448 0.09417 0.82802 0.0
H1271 H 0.71305 0.16945 0.67561 0.0
H1272 H 0.8074 0.16903 0.83728 0.0
H1273 H 0.70887 0.09437 0.70021 0.0
H1274 H 0.74954 0.1694 0.72817 0.0
H1275 H 0.77794 0.09358 0.77492 0.0
C1276 C 0.80526 0.11048 0.81886 0.0
C1277 C 0.81402 0.13168 0.83735 0.0
C1278 C 0.74069 0.1529 0.72214 0.0
C1279 C 0.77221 0.13117 0.77613 0.0
C1280 C 0.71985 0.15291 0.69194 0.0
C1281 C 0.70784 0.13188 0.68335 0.0
C1282 C 0.74991 0.13165 0.74368 0.0
C1283 C 0.71752 0.111 0.70579 0.0
C1284 C 0.78437 0.11013 0.78864 0.0
C1285 C 0.8013 0.15227 0.82414 0.0
N1286 N 0.73798 0.1114 0.73465 0.0
N1287 N 0.78119 0.15151 0.79432 0.0
H1288 H 0.87854 0.57024 0.99933 0.0
H1289 H 0.86925 0.43035 1.00789 0.0
H1290 H 0.87145 0.52807 0.13956 0.0
H1291 H 0.87204 0.47243 0.86634 0.0
H1292 H 0.86922 0.46585 0.05575 0.0
H1293 H 0.87549 0.53499 0.9504 0.0
C1294 C 0.87631 0.55356 0.02009 0.0
C1295 C 0.87537 0.55226 0.07409 0.0
C1296 C 0.86976 0.46744 1.01426 0.0
C1297 C 0.87185 0.51145 0.01733 0.0
C1298 C 0.86983 0.44708 0.98657 0.0
C1299 C 0.87082 0.44823 0.93258 0.0
C1300 C 0.8708 0.48942 0.98823 0.0
C1301 C 0.87128 0.47059 0.90773 0.0
C1302 C 0.87453 0.53338 0.99181 0.0
C1303 C 0.8723 0.53002 0.09819 0.0
N1304 N 0.87141 0.49027 0.93577 0.0
N1305 N 0.87076 0.51053 0.06969 0.0
H1306 H 0.20296 0.09195 0.74662 0.0
H1307 H 0.31803 0.16342 0.69776 0.0
H1308 H 0.2263 0.14283 0.85487 0.0
H1309 H 0.31511 0.08925 0.67332 0.0
H1310 H 0.28172 0.15991 0.74453 0.0
H1311 H 0.24115 0.09404 0.70798 0.0
C1312 C 0.21617 0.1035 0.76242 0.0
C1313 C 0.21146 0.11713 0.8043 0.0
C1314 C 0.28911 0.14442 0.72904 0.0
C1315 C 0.25504 0.1201 0.75909 0.0
C1316 C 0.30972 0.14642 0.70212 0.0
C1317 C 0.31955 0.1266 0.68143 0.0
C1318 C 0.27786 0.12259 0.73398 0.0
C1319 C 0.30813 0.10497 0.6886 0.0
C1320 C 0.23796 0.10463 0.74039 0.0
C1321 C 0.22927 0.13184 0.82302 0.0
N1322 N 0.28774 0.1036 0.71353 0.0
N1323 N 0.25015 0.13323 0.7998 0.0
H1324 H 0.67023 0.55943 0.43402 0.0
H1325 H 0.6056 0.44204 0.52859 0.0
H1326 H 0.60013 0.54104 0.38497 0.0
H1327 H 0.66574 0.46814 0.61313 0.0
H1328 H 0.60494 0.47761 0.47349 0.0
H1329 H 0.67069 0.52586 0.49702 0.0
C1330 C 0.65492 0.54839 0.43657 0.0
C1331 C 0.63504 0.55317 0.40423 0.0
C1332 C 0.61825 0.47578 0.50419 0.0
C1333 C 0.63561 0.51449 0.47572 0.0
C1334 C 0.61867 0.45536 0.53581 0.0
C1335 C 0.63579 0.45197 0.57572 0.0
C1336 C 0.6353 0.49312 0.51147 0.0
C1337 C 0.65215 0.47004 0.5831 0.0
C1338 C 0.65519 0.52926 0.47262 0.0
C1339 C 0.61583 0.53811 0.40898 0.0
N1340 N 0.65167 0.48974 0.55091 0.0
N1341 N 0.61664 0.5195 0.44368 0.0
H1342 H 0.30784 0.83482 0.33109 0.0
H1343 H 0.20356 0.91266 0.19562 0.0
H1344 H 0.31271 0.91003 0.31092 0.0
H1345 H 0.20962 0.83796 0.18183 0.0
H1346 H 0.2416 0.91254 0.24356 0.0
H1347 H 0.27027 0.83602 0.28264 0.0
C1348 C 0.30099 0.85164 0.31655 0.0
C1349 C 0.31357 0.87235 0.32531 0.0
C1350 C 0.23463 0.89619 0.22993 0.0
C1351 C 0.27006 0.8739 0.26959 0.0
C1352 C 0.21287 0.89624 0.2026 0.0
C1353 C 0.20332 0.8753 0.18433 0.0
C1354 C 0.2469 0.87498 0.23985 0.0
C1355 C 0.21624 0.85457 0.19481 0.0
C1356 C 0.27949 0.85231 0.28869 0.0
C1357 C 0.3037 0.8936 0.30518 0.0
N1358 N 0.23715 0.85493 0.22188 0.0
N1359 N 0.28255 0.89385 0.27861 0.0
H1360 H 0.64896 0.96809 0.3796 0.0
H1361 H 0.65589 0.03086 0.65102 0.0
H1362 H 0.65018 0.93061 0.52737 0.0
H1363 H 0.6462 0.06858 0.5043 0.0
H1364 H 0.65689 0.994 0.60598 0.0
H1365 H 0.65094 0.00522 0.42405 0.0
C1366 C 0.64975 0.9676 0.42122 0.0
C1367 C 0.64926 0.94606 0.4495 0.0
C1368 C 0.65461 0.01038 0.58366 0.0
C1369 C 0.65159 0.98856 0.50083 0.0
C1370 C 0.6541 0.03145 0.60944 0.0
C1371 C 0.65086 0.05296 0.58168 0.0
C1372 C 0.65199 0.01073 0.52958 0.0
C1373 C 0.64861 0.05251 0.52763 0.0
C1374 C 0.65083 0.98882 0.44666 0.0
C1375 C 0.65033 0.94666 0.50359 0.0
N1376 N 0.64919 0.03184 0.50353 0.0
N1377 N 0.65141 0.96743 0.52727 0.0
H1378 H 0.20907 0.32752 0.87096 0.0
H1379 H 0.30909 0.40271 0.73183 0.0
H1380 H 0.20464 0.40245 0.8435 0.0
H1381 H 0.30253 0.32775 0.72284 0.0
H1382 H 0.2731 0.40314 0.77961 0.0
H1383 H 0.24515 0.32735 0.82377 0.0
C1384 C 0.2157 0.34397 0.85513 0.0
C1385 C 0.2037 0.36503 0.86138 0.0
C1386 C 0.27951 0.38659 0.76721 0.0
C1387 C 0.2454 0.36502 0.80731 0.0
C1388 C 0.30014 0.38632 0.74001 0.0
C1389 C 0.30892 0.36516 0.72302 0.0
C1390 C 0.26757 0.36549 0.77831 0.0
C1391 C 0.29646 0.34449 0.73492 0.0
C1392 C 0.23632 0.34386 0.82801 0.0
C1393 C 0.21322 0.38578 0.83972 0.0
N1394 N 0.27659 0.34517 0.76182 0.0
N1395 N 0.23346 0.38527 0.81401 0.0
H1396 H 0.86839 0.92966 0.02859 0.0
H1397 H 0.87398 0.06963 0.03472 0.0
H1398 H 0.86921 0.9669 0.16915 0.0
H1399 H 0.86729 0.03225 0.89449 0.0
H1400 H 0.87187 0.03247 0.08426 0.0
H1401 H 0.86753 0.96697 0.97942 0.0
C1402 C 0.86833 0.94569 0.04931 0.0
C1403 C 0.86897 0.94502 0.1034 0.0
C1404 C 0.87078 0.03234 0.04269 0.0
C1405 C 0.86804 0.98816 0.04659 0.0
C1406 C 0.87203 0.05362 1.01416 0.0
C1407 C 0.87091 0.05418 0.96005 0.0
C1408 C 0.8685 0.01127 0.01722 0.0
C1409 C 0.86825 0.03275 0.93599 0.0
C1410 C 0.8678 0.96706 0.02097 0.0
C1411 C 0.86872 0.96649 0.12765 0.0
N1412 N 0.86725 0.0122 0.96471 0.0
N1413 N 0.8684 0.98717 0.09909 0.0
H1414 H 0.2085 0.59335 0.20169 0.0
H1415 H 0.30868 0.66985 0.33961 0.0
H1416 H 0.21478 0.66826 0.17699 0.0
H1417 H 0.31385 0.59482 0.33045 0.0
H1418 H 0.27254 0.66934 0.28599 0.0
H1419 H 0.24512 0.59318 0.25451 0.0
C1420 C 0.21759 0.60976 0.20732 0.0
C1421 C 0.20855 0.63085 0.18465 0.0
C1422 C 0.28154 0.65296 0.29559 0.0
C1423 C 0.25045 0.63083 0.24561 0.0
C1424 C 0.30218 0.65323 0.3264 0.0
C1425 C 0.31436 0.63234 0.3397 0.0
C1426 C 0.27266 0.63159 0.27819 0.0
C1427 C 0.30508 0.61135 0.32116 0.0
C1428 C 0.23853 0.60964 0.23742 0.0
C1429 C 0.22109 0.65158 0.19344 0.0
N1430 N 0.28477 0.61148 0.29166 0.0
N1431 N 0.24124 0.65106 0.22329 0.0
H1432 H 0.37025 0.97251 0.36415 0.0
H1433 H 0.3715 0.0282 0.64312 0.0
H1434 H 0.3732 0.93152 0.50765 0.0
H1435 H 0.37731 0.06932 0.50108 0.0
H1436 H 0.36877 0.99262 0.59354 0.0
H1437 H 0.3694 0.00839 0.413 0.0
C1438 C 0.37056 0.97101 0.40574 0.0
C1439 C 0.37195 0.94889 0.4316 0.0
C1440 C 0.37058 0.00947 0.57327 0.0
C1441 C 0.37098 0.98986 0.48789 0.0
C1442 C 0.3721 0.0298 0.60164 0.0
C1443 C 0.37477 0.05187 0.57651 0.0
C1444 C 0.37161 0.01117 0.51928 0.0
C1445 C 0.37543 0.05276 0.52244 0.0
C1446 C 0.37015 0.99149 0.43368 0.0
C1447 C 0.37233 0.94811 0.48576 0.0
N1448 N 0.3739 0.0328 0.49582 0.0
N1449 N 0.37189 0.96818 0.5119 0.0
H1450 H 0.82507 0.59157 0.20993 0.0
H1451 H 0.6993 0.64605 0.23815 0.0
H1452 H 0.80715 0.66146 0.15179 0.0
H1453 H 0.72879 0.59741 0.35474 0.0
H1454 H 0.73708 0.64855 0.19849 0.0
H1455 H 0.78857 0.58992 0.25598 0.0
C1456 C 0.81358 0.60663 0.20711 0.0
C1457 C 0.81938 0.6268 0.17735 0.0
C1458 C 0.73536 0.63741 0.23288 0.0
C1459 C 0.7772 0.62472 0.22874 0.0
C1460 C 0.71375 0.6359 0.25554 0.0
C1461 C 0.7108 0.62152 0.30003 0.0
C1462 C 0.75424 0.624 0.25385 0.0
C1463 C 0.73028 0.60885 0.32075 0.0
C1464 C 0.79273 0.60564 0.23337 0.0
C1465 C 0.8035 0.64558 0.17434 0.0
N1466 N 0.75109 0.61015 0.29716 0.0
N1467 N 0.78313 0.644 0.19923 0.0
H1468 H 0.17009 0.06068 0.93677 0.0
H1469 H 0.10758 0.94169 0.02846 0.0
H1470 H 0.10084 0.0407 0.88488 0.0
H1471 H 0.16654 0.96909 0.11488 0.0
H1472 H 0.10642 0.9773 0.97353 0.0
H1473 H 0.17084 0.02706 0.99958 0.0
C1474 C 0.15502 0.04928 0.93868 0.0
C1475 C 0.1353 0.05363 0.90561 0.0
C1476 C 0.11957 0.97574 1.0046 0.0
C1477 C 0.13621 0.01488 0.97687 0.0
C1478 C 0.12029 0.9553 0.03611 0.0
C1479 C 0.13724 0.95226 0.07648 0.0
C1480 C 0.13616 0.99347 1.01248 0.0
C1481 C 0.15311 0.9707 0.08445 0.0
C1482 C 0.15546 0.03012 0.97461 0.0
C1483 C 0.1164 0.0381 0.90949 0.0
N1484 N 0.15235 0.99043 0.05237 0.0
N1485 N 0.11738 0.01947 0.94412 0.0
H1486 H 0.70186 0.41176 0.69373 0.0
H1487 H 0.80513 0.33309 0.83088 0.0
H1488 H 0.70708 0.337 0.68006 0.0
H1489 H 0.81069 0.4082 0.80967 0.0
H1490 H 0.76773 0.33447 0.78155 0.0
H1491 H 0.73987 0.41123 0.74177 0.0
C1492 C 0.71098 0.39525 0.70074 0.0
C1493 C 0.7012 0.37441 0.68247 0.0
C1494 C 0.77709 0.35069 0.78753 0.0
C1495 C 0.74476 0.37361 0.73814 0.0
C1496 C 0.7985 0.34991 0.81586 0.0
C1497 C 0.81119 0.37054 0.82461 0.0
C1498 C 0.76789 0.37233 0.76804 0.0
C1499 C 0.80158 0.39182 0.80392 0.0
C1500 C 0.73273 0.39496 0.72813 0.0
C1501 C 0.71388 0.35353 0.69303 0.0
N1502 N 0.78054 0.39218 0.77699 0.0
N1503 N 0.73479 0.35366 0.72018 0.0
loop_
_geom_bond_atom_site_label_1
_geom_bond_atom_site_label_2
_geom_bond_distance
_geom_bond_site_symmetry_2
_ccdc_geom_bond_type
C0 Eu1 2.835 . S
C0 C2 1.500 1_554 S
C0 O20 1.257 . S
C0 O21 1.260 . S
Eu1 C0 2.835 . S
Eu1 O20 2.473 . S
Eu1 O21 2.480 . S
Eu1 O22 2.430 . S
Eu1 O23 2.670 . S
Eu1 O24 2.394 . S
Eu1 O29 2.355 . S
Eu1 O31 2.374 . S
C2 C0 1.500 1_556 S
C2 C3 1.377 . S
C2 C7 1.377 . S
C3 C2 1.377 . S
C3 C4 1.395 . S
C3 H32 0.931 . S
C4 C3 1.395 . S
C4 C5 1.383 . S
C4 H33 0.931 . S
C5 C4 1.383 . S
C5 C6 1.394 . S
C6 C5 1.394 . S
C6 C7 1.378 . S
C6 H34 0.931 . S
C7 C2 1.377 . S
C7 C6 1.378 . S
C7 H35 0.931 . S
C8 O22 1.259 . S
C8 O23 1.270 . S
C9 O24 1.251 . S
C9 O25 1.251 . S
C10 Eu11 2.835 . S
C10 C12 1.500 . S
C10 O26 1.257 . S
C10 O27 1.260 . S
Eu11 C10 2.835 . S
Eu11 O23 2.355 . S
Eu11 O25 2.374 . S
Eu11 O26 2.473 . S
Eu11 O27 2.480 . S
Eu11 O28 2.430 . S
Eu11 O29 2.670 . S
Eu11 O30 2.394 . S
C12 C10 1.500 . S
C12 C13 1.377 . S
C12 C17 1.377 . S
C13 C12 1.377 . S
C13 C14 1.395 . S
C13 H36 0.931 . S
C14 C13 1.395 . S
C14 C15 1.383 . S
C14 H37 0.931 . S
C15 C14 1.383 . S
C15 C16 1.394 . S
C16 C15 1.394 . S
C16 C17 1.378 . S
C16 H38 0.931 . S
C17 C12 1.377 . S
C17 C16 1.378 . S
C17 H39 0.931 . S
C18 O28 1.259 . S
C18 O29 1.270 . S
C19 O30 1.251 . S
C19 O31 1.251 . S
O20 C0 1.257 . S
O20 Eu1 2.473 . S
O21 C0 1.260 . S
O21 Eu1 2.480 . S
O22 Eu1 2.430 . S
O22 C8 1.259 . S
O23 Eu1 2.670 . S
O23 C8 1.270 . S
O23 Eu11 2.355 . S
O24 Eu1 2.394 . S
O24 C9 1.251 . S
O25 C9 1.251 . S
O25 Eu11 2.374 . S
O26 C10 1.257 . S
O26 Eu11 2.473 . S
O27 C10 1.260 . S
O27 Eu11 2.480 . S
O28 Eu11 2.430 . S
O28 C18 1.259 . S
O29 Eu1 2.355 . S
O29 Eu11 2.670 . S
O29 C18 1.270 . S
O30 Eu11 2.394 . S
O30 C19 1.251 . S
O31 Eu1 2.374 . S
O31 C19 1.251 . S
H32 C3 0.931 . S
H33 C4 0.931 . S
H34 C6 0.931 . S
H35 C7 0.931 . S
H36 C13 0.931 . S
H37 C14 0.931 . S
H38 C16 0.931 . S
H39 C17 0.931 . S
C40 Eu41 2.835 . S
C40 C42 1.500 . S
C40 O60 1.257 . S
C40 O61 1.260 . S
Eu41 C40 2.835 . S
Eu41 O60 2.473 . S
Eu41 O61 2.480 . S
Eu41 O62 2.430 . S
Eu41 O63 2.670 . S
Eu41 O64 2.394 . S
Eu41 O69 2.355 . S
Eu41 O71 2.374 . S
C42 C40 1.500 . S
C42 C43 1.377 . S
C42 C47 1.377 . S
C43 C42 1.377 . S
C43 C44 1.395 . S
C43 H72 0.931 . S
C44 C43 1.395 . S
C44 C45 1.383 . S
C44 H73 0.931 . S
C45 C44 1.383 . S
C45 C46 1.394 . S
C46 C45 1.394 . S
C46 C47 1.378 . S
C46 H74 0.931 . S
C47 C42 1.377 . S
C47 C46 1.378 . S
C47 H75 0.931 . S
C48 O62 1.259 . S
C48 O63 1.270 . S
C49 O64 1.251 . S
C49 O65 1.251 . S
C50 Eu51 2.835 . S
C50 C52 1.500 . S
C50 O66 1.257 . S
C50 O67 1.260 . S
Eu51 C50 2.835 . S
Eu51 O63 2.355 . S
Eu51 O65 2.374 . S
Eu51 O66 2.473 . S
Eu51 O67 2.480 . S
Eu51 O68 2.430 . S
Eu51 O69 2.670 . S
Eu51 O70 2.394 . S
C52 C50 1.500 . S
C52 C53 1.377 . S
C52 C57 1.377 . S
C53 C52 1.377 . S
C53 C54 1.395 . S
C53 H76 0.931 . S
C54 C53 1.395 . S
C54 C55 1.383 . S
C54 H77 0.931 . S
C55 C54 1.383 . S
C55 C56 1.394 . S
C56 C55 1.394 . S
C56 C57 1.378 . S
C56 H78 0.931 . S
C57 C52 1.377 . S
C57 C56 1.378 . S
C57 H79 0.931 . S
C58 O68 1.259 . S
C58 O69 1.270 . S
C59 O70 1.251 . S
C59 O71 1.251 . S
O60 C40 1.257 . S
O60 Eu41 2.473 . S
O61 C40 1.260 . S
O61 Eu41 2.480 . S
O62 Eu41 2.430 . S
O62 C48 1.259 . S
O63 Eu41 2.670 . S
O63 C48 1.270 . S
O63 Eu51 2.355 . S
O64 Eu41 2.394 . S
O64 C49 1.251 . S
O65 C49 1.251 . S
O65 Eu51 2.374 . S
O66 C50 1.257 . S
O66 Eu51 2.473 . S
O67 C50 1.260 . S
O67 Eu51 2.480 . S
O68 Eu51 2.430 . S
O68 C58 1.259 . S
O69 Eu41 2.355 . S
O69 Eu51 2.670 . S
O69 C58 1.270 . S
O70 Eu51 2.394 . S
O70 C59 1.251 . S
O71 Eu41 2.374 . S
O71 C59 1.251 . S
H72 C43 0.931 . S
H73 C44 0.931 . S
H74 C46 0.931 . S
H75 C47 0.931 . S
H76 C53 0.931 . S
H77 C54 0.931 . S
H78 C56 0.931 . S
H79 C57 0.931 . S
C80 Eu81 2.835 . S
C80 C82 1.500 . S
C80 O100 1.257 . S
C80 O101 1.260 . S
Eu81 C80 2.835 . S
Eu81 O100 2.473 . S
Eu81 O101 2.480 . S
Eu81 O102 2.430 . S
Eu81 O103 2.670 . S
Eu81 O104 2.394 . S
Eu81 O109 2.355 . S
Eu81 O111 2.374 . S
C82 C80 1.500 . S
C82 C83 1.377 . S
C82 C87 1.377 . S
C83 C82 1.377 . S
C83 C84 1.395 . S
C83 H112 0.931 . S
C84 C83 1.395 . S
C84 C85 1.383 . S
C84 H113 0.931 . S
C85 C84 1.383 . S
C85 C86 1.394 . S
C86 C85 1.394 . S
C86 C87 1.378 . S
C86 H114 0.931 . S
C87 C82 1.377 . S
C87 C86 1.378 . S
C87 H115 0.931 . S
C88 O102 1.259 . S
C88 O103 1.270 . S
C89 O104 1.251 . S
C89 O105 1.251 . S
C90 Eu91 2.835 . S
C90 C92 1.500 . S
C90 O106 1.257 . S
C90 O107 1.260 . S
Eu91 C90 2.835 . S
Eu91 O103 2.355 . S
Eu91 O105 2.374 . S
Eu91 O106 2.473 . S
Eu91 O107 2.480 . S
Eu91 O108 2.430 . S
Eu91 O109 2.670 . S
Eu91 O110 2.394 . S
C92 C90 1.500 . S
C92 C93 1.377 . S
C92 C97 1.377 . S
C93 C92 1.377 . S
C93 C94 1.395 . S
C93 H116 0.931 . S
C94 C93 1.395 . S
C94 C95 1.383 1_556 S
C94 H117 0.931 1_556 S
C95 C94 1.383 1_554 S
C95 C96 1.394 1_554 S
C96 C95 1.394 1_556 S
C96 C97 1.378 . S
C96 H118 0.931 . S
C97 C92 1.377 . S
C97 C96 1.378 . S
C97 H119 0.931 . S
C98 O108 1.259 . S
C98 O109 1.270 . S
C99 O110 1.251 . S
C99 O111 1.251 . S
O100 C80 1.257 . S
O100 Eu81 2.473 . S
O101 C80 1.260 . S
O101 Eu81 2.480 . S
O102 Eu81 2.430 . S
O102 C88 1.259 . S
O103 Eu81 2.670 . S
O103 C88 1.270 . S
O103 Eu91 2.355 . S
O104 Eu81 2.394 . S
O104 C89 1.251 . S
O105 C89 1.251 . S
O105 Eu91 2.374 . S
O106 C90 1.257 . S
O106 Eu91 2.473 . S
O107 C90 1.260 . S
O107 Eu91 2.480 . S
O108 Eu91 2.430 . S
O108 C98 1.259 . S
O109 Eu81 2.355 . S
O109 Eu91 2.670 . S
O109 C98 1.270 . S
O110 Eu91 2.394 . S
O110 C99 1.251 . S
O111 Eu81 2.374 . S
O111 C99 1.251 . S
H112 C83 0.931 . S
H113 C84 0.931 . S
H114 C86 0.931 . S
H115 C87 0.931 . S
H116 C93 0.931 . S
H117 C94 0.931 1_554 S
H118 C96 0.931 . S
H119 C97 0.931 . S
C120 Eu121 2.835 1_554 S
C120 C122 1.500 . S
C120 O140 1.257 1_554 S
C120 O141 1.260 1_554 S
Eu121 C120 2.835 1_556 S
Eu121 O140 2.473 . S
Eu121 O141 2.480 . S
Eu121 O142 2.430 . S
Eu121 O143 2.670 . S
Eu121 O144 2.394 . S
Eu121 O149 2.355 . S
Eu121 O151 2.374 . S
C122 C120 1.500 . S
C122 C123 1.377 . S
C122 C127 1.377 . S
C123 C122 1.377 . S
C123 C124 1.395 . S
C123 H152 0.931 . S
C124 C123 1.395 . S
C124 C125 1.383 . S
C124 H153 0.931 . S
C125 C124 1.383 . S
C125 C126 1.394 . S
C126 C125 1.394 . S
C126 C127 1.378 . S
C126 H154 0.931 . S
C127 C122 1.377 . S
C127 C126 1.378 . S
C127 H155 0.931 . S
C128 O142 1.259 . S
C128 O143 1.270 . S
C129 O144 1.251 . S
C129 O145 1.251 . S
C130 Eu131 2.835 . S
C130 C132 1.500 . S
C130 O146 1.257 . S
C130 O147 1.260 . S
Eu131 C130 2.835 . S
Eu131 O143 2.355 . S
Eu131 O145 2.374 . S
Eu131 O146 2.473 . S
Eu131 O147 2.480 . S
Eu131 O148 2.430 . S
Eu131 O149 2.670 . S
Eu131 O150 2.394 . S
C132 C130 1.500 . S
C132 C133 1.377 . S
C132 C137 1.377 . S
C133 C132 1.377 . S
C133 C134 1.395 . S
C133 H156 0.931 . S
C134 C133 1.395 . S
C134 C135 1.383 . S
C134 H157 0.931 . S
C135 C134 1.383 . S
C135 C136 1.394 . S
C136 C135 1.394 . S
C136 C137 1.378 . S
C136 H158 0.931 . S
C137 C132 1.377 . S
C137 C136 1.378 . S
C137 H159 0.931 . S
C138 O148 1.259 . S
C138 O149 1.270 . S
C139 O150 1.251 . S
C139 O151 1.251 . S
O140 C120 1.257 1_556 S
O140 Eu121 2.473 . S
O141 C120 1.260 1_556 S
O141 Eu121 2.480 . S
O142 Eu121 2.430 . S
O142 C128 1.259 . S
O143 Eu121 2.670 . S
O143 C128 1.270 . S
O143 Eu131 2.355 . S
O144 Eu121 2.394 . S
O144 C129 1.251 . S
O145 C129 1.251 . S
O145 Eu131 2.374 . S
O146 C130 1.257 . S
O146 Eu131 2.473 . S
O147 C130 1.260 . S
O147 Eu131 2.480 . S
O148 Eu131 2.430 . S
O148 C138 1.259 . S
O149 Eu121 2.355 . S
O149 Eu131 2.670 . S
O149 C138 1.270 . S
O150 Eu131 2.394 . S
O150 C139 1.251 . S
O151 Eu121 2.374 . S
O151 C139 1.251 . S
H152 C123 0.931 . S
H153 C124 0.931 . S
H154 C126 0.931 . S
H155 C127 0.931 . S
H156 C133 0.931 . S
H157 C134 0.931 . S
H158 C136 0.931 . S
H159 C137 0.931 . S
C160 Eu161 2.835 1_554 S
C160 C162 1.500 . S
C160 O180 1.257 1_554 S
C160 O181 1.260 1_554 S
Eu161 C160 2.835 1_556 S
Eu161 O180 2.473 . S
Eu161 O181 2.480 . S
Eu161 O182 2.430 . S
Eu161 O183 2.670 . S
Eu161 O184 2.394 . S
Eu161 O189 2.355 . S
Eu161 O191 2.374 . S
C162 C160 1.500 . S
C162 C163 1.377 . S
C162 C167 1.377 . S
C163 C162 1.377 . S
C163 C164 1.395 . S
C163 H192 0.931 . S
C164 C163 1.395 . S
C164 C165 1.383 . S
C164 H193 0.931 . S
C165 C164 1.383 . S
C165 C166 1.394 . S
C166 C165 1.394 . S
C166 C167 1.378 . S
C166 H194 0.931 . S
C167 C162 1.377 . S
C167 C166 1.378 . S
C167 H195 0.931 . S
C168 O182 1.259 . S
C168 O183 1.270 . S
C169 O184 1.251 . S
C169 O185 1.251 . S
C170 Eu171 2.835 . S
C170 C172 1.500 . S
C170 O186 1.257 . S
C170 O187 1.260 . S
Eu171 C170 2.835 . S
Eu171 O183 2.355 . S
Eu171 O185 2.374 . S
Eu171 O186 2.473 . S
Eu171 O187 2.480 . S
Eu171 O188 2.430 . S
Eu171 O189 2.670 . S
Eu171 O190 2.394 . S
C172 C170 1.500 . S
C172 C173 1.377 . S
C172 C177 1.377 . S
C173 C172 1.377 . S
C173 C174 1.395 . S
C173 H196 0.931 . S
C174 C173 1.395 . S
C174 C175 1.383 . S
C174 H197 0.931 . S
C175 C174 1.383 . S
C175 C176 1.394 . S
C176 C175 1.394 . S
C176 C177 1.378 . S
C176 H198 0.931 . S
C177 C172 1.377 . S
C177 C176 1.378 . S
C177 H199 0.931 . S
C178 O188 1.259 . S
C178 O189 1.270 . S
C179 O190 1.251 . S
C179 O191 1.251 . S
O180 C160 1.257 1_556 S
O180 Eu161 2.473 . S
O181 C160 1.260 1_556 S
O181 Eu161 2.480 . S
O182 Eu161 2.430 . S
O182 C168 1.259 . S
O183 Eu161 2.670 . S
O183 C168 1.270 . S
O183 Eu171 2.355 . S
O184 Eu161 2.394 . S
O184 C169 1.251 . S
O185 C169 1.251 . S
O185 Eu171 2.374 . S
O186 C170 1.257 . S
O186 Eu171 2.473 . S
O187 C170 1.260 . S
O187 Eu171 2.480 . S
O188 Eu171 2.430 . S
O188 C178 1.259 . S
O189 Eu161 2.355 . S
O189 Eu171 2.670 . S
O189 C178 1.270 . S
O190 Eu171 2.394 . S
O190 C179 1.251 . S
O191 Eu161 2.374 . S
O191 C179 1.251 . S
H192 C163 0.931 . S
H193 C164 0.931 . S
H194 C166 0.931 . S
H195 C167 0.931 . S
H196 C173 0.931 . S
H197 C174 0.931 . S
H198 C176 0.931 . S
H199 C177 0.931 . S
C200 Eu201 2.835 . S
C200 C202 1.500 1_554 S
C200 O220 1.257 . S
C200 O221 1.260 . S
Eu201 C200 2.835 . S
Eu201 O220 2.473 . S
Eu201 O221 2.480 . S
Eu201 O222 2.430 . S
Eu201 O223 2.670 . S
Eu201 O224 2.394 . S
Eu201 O229 2.355 . S
Eu201 O231 2.374 . S
C202 C200 1.500 1_556 S
C202 C203 1.377 . S
C202 C207 1.377 . S
C203 C202 1.377 . S
C203 C204 1.395 . S
C203 H232 0.931 . S
C204 C203 1.395 . S
C204 C205 1.383 . S
C204 H233 0.931 . S
C205 C204 1.383 . S
C205 C206 1.394 . S
C206 C205 1.394 . S
C206 C207 1.378 . S
C206 H234 0.931 . S
C207 C202 1.377 . S
C207 C206 1.378 . S
C207 H235 0.931 . S
C208 O222 1.259 . S
C208 O223 1.270 . S
C209 O224 1.251 . S
C209 O225 1.251 . S
C210 Eu211 2.835 . S
C210 C212 1.500 . S
C210 O226 1.257 . S
C210 O227 1.260 . S
Eu211 C210 2.835 . S
Eu211 O223 2.355 . S
Eu211 O225 2.374 . S
Eu211 O226 2.473 . S
Eu211 O227 2.480 . S
Eu211 O228 2.430 . S
Eu211 O229 2.670 . S
Eu211 O230 2.394 . S
C212 C210 1.500 . S
C212 C213 1.377 . S
C212 C217 1.377 . S
C213 C212 1.377 . S
C213 C214 1.395 . S
C213 H236 0.931 . S
C214 C213 1.395 . S
C214 C215 1.383 . S
C214 H237 0.931 . S
C215 C214 1.383 . S
C215 C216 1.394 . S
C216 C215 1.394 . S
C216 C217 1.378 . S
C216 H238 0.931 . S
C217 C212 1.377 . S
C217 C216 1.378 . S
C217 H239 0.931 . S
C218 O228 1.259 . S
C218 O229 1.270 . S
C219 O230 1.251 . S
C219 O231 1.251 . S
O220 C200 1.257 . S
O220 Eu201 2.473 . S
O221 C200 1.260 . S
O221 Eu201 2.480 . S
O222 Eu201 2.430 . S
O222 C208 1.259 . S
O223 Eu201 2.670 . S
O223 C208 1.270 . S
O223 Eu211 2.355 . S
O224 Eu201 2.394 . S
O224 C209 1.251 . S
O225 C209 1.251 . S
O225 Eu211 2.374 . S
O226 C210 1.257 . S
O226 Eu211 2.473 . S
O227 C210 1.260 . S
O227 Eu211 2.480 . S
O228 Eu211 2.430 . S
O228 C218 1.259 . S
O229 Eu201 2.355 . S
O229 Eu211 2.670 . S
O229 C218 1.270 . S
O230 Eu211 2.394 . S
O230 C219 1.251 . S
O231 Eu201 2.374 . S
O231 C219 1.251 . S
H232 C203 0.931 . S
H233 C204 0.931 . S
H234 C206 0.931 . S
H235 C207 0.931 . S
H236 C213 0.931 . S
H237 C214 0.931 . S
H238 C216 0.931 . S
H239 C217 0.931 . S
C240 Eu241 2.835 . S
C240 C242 1.500 . S
C240 O260 1.257 . S
C240 O261 1.260 . S
Eu241 C240 2.835 . S
Eu241 O260 2.473 . S
Eu241 O261 2.480 . S
Eu241 O262 2.430 . S
Eu241 O263 2.670 . S
Eu241 O264 2.394 . S
Eu241 O269 2.355 . S
Eu241 O271 2.374 . S
C242 C240 1.500 . S
C242 C243 1.377 . S
C242 C247 1.377 . S
C243 C242 1.377 . S
C243 C244 1.395 . S
C243 H272 0.931 . S
C244 C243 1.395 . S
C244 C245 1.383 . S
C244 H273 0.931 . S
C245 C244 1.383 . S
C245 C246 1.394 . S
C246 C245 1.394 . S
C246 C247 1.378 . S
C246 H274 0.931 . S
C247 C242 1.377 . S
C247 C246 1.378 . S
C247 H275 0.931 . S
C248 O262 1.259 . S
C248 O263 1.270 . S
C249 O264 1.251 . S
C249 O265 1.251 . S
C250 Eu251 2.835 . S
C250 C252 1.500 . S
C250 O266 1.257 . S
C250 O267 1.260 . S
Eu251 C250 2.835 . S
Eu251 O263 2.355 . S
Eu251 O265 2.374 . S
Eu251 O266 2.473 . S
Eu251 O267 2.480 . S
Eu251 O268 2.430 . S
Eu251 O269 2.670 . S
Eu251 O270 2.394 . S
C252 C250 1.500 . S
C252 C253 1.377 . S
C252 C257 1.377 . S
C253 C252 1.377 . S
C253 C254 1.395 . S
C253 H276 0.931 . S
C254 C253 1.395 . S
C254 C255 1.383 . S
C254 H277 0.931 . S
C255 C254 1.383 . S
C255 C256 1.394 . S
C256 C255 1.394 . S
C256 C257 1.378 . S
C256 H278 0.931 . S
C257 C252 1.377 . S
C257 C256 1.378 . S
C257 H279 0.931 . S
C258 O268 1.259 . S
C258 O269 1.270 . S
C259 O270 1.251 . S
C259 O271 1.251 . S
O260 C240 1.257 . S
O260 Eu241 2.473 . S
O261 C240 1.260 . S
O261 Eu241 2.480 . S
O262 Eu241 2.430 . S
O262 C248 1.259 . S
O263 Eu241 2.670 . S
O263 C248 1.270 . S
O263 Eu251 2.355 . S
O264 Eu241 2.394 . S
O264 C249 1.251 . S
O265 C249 1.251 . S
O265 Eu251 2.374 . S
O266 C250 1.257 . S
O266 Eu251 2.473 . S
O267 C250 1.260 . S
O267 Eu251 2.480 . S
O268 Eu251 2.430 . S
O268 C258 1.259 . S
O269 Eu241 2.355 . S
O269 Eu251 2.670 . S
O269 C258 1.270 . S
O270 Eu251 2.394 . S
O270 C259 1.251 . S
O271 Eu241 2.374 . S
O271 C259 1.251 . S
H272 C243 0.931 . S
H273 C244 0.931 . S
H274 C246 0.931 . S
H275 C247 0.931 . S
H276 C253 0.931 . S
H277 C254 0.931 . S
H278 C256 0.931 . S
H279 C257 0.931 . S
C280 Eu281 2.835 . S
C280 C282 1.500 . S
C280 O300 1.257 . S
C280 O301 1.260 . S
Eu281 C280 2.835 . S
Eu281 O300 2.473 . S
Eu281 O301 2.480 . S
Eu281 O302 2.430 . S
Eu281 O303 2.670 . S
Eu281 O304 2.394 . S
Eu281 O309 2.355 . S
Eu281 O311 2.374 . S
C282 C280 1.500 . S
C282 C283 1.377 . S
C282 C287 1.377 . S
C283 C282 1.377 . S
C283 C284 1.395 . S
C283 H312 0.931 . S
C284 C283 1.395 . S
C284 C285 1.383 . S
C284 H313 0.931 . S
C285 C284 1.383 . S
C285 C286 1.394 . S
C286 C285 1.394 . S
C286 C287 1.378 . S
C286 H314 0.931 . S
C287 C282 1.377 . S
C287 C286 1.378 . S
C287 H315 0.931 . S
C288 O302 1.259 . S
C288 O303 1.270 . S
C289 O304 1.251 . S
C289 O305 1.251 . S
C290 Eu291 2.835 . S
C290 C292 1.500 . S
C290 O306 1.257 . S
C290 O307 1.260 . S
Eu291 C290 2.835 . S
Eu291 O303 2.355 . S
Eu291 O305 2.374 . S
Eu291 O306 2.473 . S
Eu291 O307 2.480 . S
Eu291 O308 2.430 . S
Eu291 O309 2.670 . S
Eu291 O310 2.394 . S
C292 C290 1.500 . S
C292 C293 1.377 . S
C292 C297 1.377 . S
C293 C292 1.377 . S
C293 C294 1.395 . S
C293 H316 0.931 . S
C294 C293 1.395 . S
C294 C295 1.383 1_556 S
C294 H317 0.931 1_556 S
C295 C294 1.383 1_554 S
C295 C296 1.394 1_554 S
C296 C295 1.394 1_556 S
C296 C297 1.378 . S
C296 H318 0.931 . S
C297 C292 1.377 . S
C297 C296 1.378 . S
C297 H319 0.931 . S
C298 O308 1.259 . S
C298 O309 1.270 . S
C299 O310 1.251 . S
C299 O311 1.251 . S
O300 C280 1.257 . S
O300 Eu281 2.473 . S
O301 C280 1.260 . S
O301 Eu281 2.480 . S
O302 Eu281 2.430 . S
O302 C288 1.259 . S
O303 Eu281 2.670 . S
O303 C288 1.270 . S
O303 Eu291 2.355 . S
O304 Eu281 2.394 . S
O304 C289 1.251 . S
O305 C289 1.251 . S
O305 Eu291 2.374 . S
O306 C290 1.257 . S
O306 Eu291 2.473 . S
O307 C290 1.260 . S
O307 Eu291 2.480 . S
O308 Eu291 2.430 . S
O308 C298 1.259 . S
O309 Eu281 2.355 . S
O309 Eu291 2.670 . S
O309 C298 1.270 . S
O310 Eu291 2.394 . S
O310 C299 1.251 . S
O311 Eu281 2.374 . S
O311 C299 1.251 . S
H312 C283 0.931 . S
H313 C284 0.931 . S
H314 C286 0.931 . S
H315 C287 0.931 . S
H316 C293 0.931 . S
H317 C294 0.931 1_554 S
H318 C296 0.931 . S
H319 C297 0.931 . S
C320 Eu321 2.835 . S
C320 C322 1.500 . S
C320 O340 1.257 . S
C320 O341 1.260 . S
Eu321 C320 2.835 . S
Eu321 O340 2.473 . S
Eu321 O341 2.480 . S
Eu321 O342 2.430 . S
Eu321 O343 2.670 . S
Eu321 O344 2.394 . S
Eu321 O349 2.355 . S
Eu321 O351 2.374 . S
C322 C320 1.500 . S
C322 C323 1.377 . S
C322 C327 1.377 . S
C323 C322 1.377 . S
C323 C324 1.395 . S
C323 H352 0.931 . S
C324 C323 1.395 . S
C324 C325 1.383 . S
C324 H353 0.931 . S
C325 C324 1.383 . S
C325 C326 1.394 . S
C326 C325 1.394 . S
C326 C327 1.378 . S
C326 H354 0.931 . S
C327 C322 1.377 . S
C327 C326 1.378 . S
C327 H355 0.931 . S
C328 O342 1.259 . S
C328 O343 1.270 . S
C329 O344 1.251 . S
C329 O345 1.251 . S
C330 Eu331 2.835 . S
C330 C332 1.500 1_556 S
C330 O346 1.257 . S
C330 O347 1.260 . S
Eu331 C330 2.835 . S
Eu331 O343 2.355 . S
Eu331 O345 2.374 . S
Eu331 O346 2.473 . S
Eu331 O347 2.480 . S
Eu331 O348 2.430 . S
Eu331 O349 2.670 . S
Eu331 O350 2.394 . S
C332 C330 1.500 1_554 S
C332 C333 1.377 . S
C332 C337 1.377 . S
C333 C332 1.377 . S
C333 C334 1.395 . S
C333 H356 0.931 . S
C334 C333 1.395 . S
C334 C335 1.383 . S
C334 H357 0.931 . S
C335 C334 1.383 . S
C335 C336 1.394 . S
C336 C335 1.394 . S
C336 C337 1.378 . S
C336 H358 0.931 . S
C337 C332 1.377 . S
C337 C336 1.378 . S
C337 H359 0.931 . S
C338 O348 1.259 . S
C338 O349 1.270 . S
C339 O350 1.251 . S
C339 O351 1.251 . S
O340 C320 1.257 . S
O340 Eu321 2.473 . S
O341 C320 1.260 . S
O341 Eu321 2.480 . S
O342 Eu321 2.430 . S
O342 C328 1.259 . S
O343 Eu321 2.670 . S
O343 C328 1.270 . S
O343 Eu331 2.355 . S
O344 Eu321 2.394 . S
O344 C329 1.251 . S
O345 C329 1.251 . S
O345 Eu331 2.374 . S
O346 C330 1.257 . S
O346 Eu331 2.473 . S
O347 C330 1.260 . S
O347 Eu331 2.480 . S
O348 Eu331 2.430 . S
O348 C338 1.259 . S
O349 Eu321 2.355 . S
O349 Eu331 2.670 . S
O349 C338 1.270 . S
O350 Eu331 2.394 . S
O350 C339 1.251 . S
O351 Eu321 2.374 . S
O351 C339 1.251 . S
H352 C323 0.931 . S
H353 C324 0.931 . S
H354 C326 0.931 . S
H355 C327 0.931 . S
H356 C333 0.931 . S
H357 C334 0.931 . S
H358 C336 0.931 . S
H359 C337 0.931 . S
C360 Eu361 2.835 . S
C360 C362 1.500 . S
C360 O380 1.257 . S
C360 O381 1.260 . S
Eu361 C360 2.835 . S
Eu361 O380 2.473 . S
Eu361 O381 2.480 . S
Eu361 O382 2.430 . S
Eu361 O383 2.670 . S
Eu361 O384 2.394 . S
Eu361 O389 2.355 . S
Eu361 O391 2.374 . S
C362 C360 1.500 . S
C362 C363 1.377 . S
C362 C367 1.377 . S
C363 C362 1.377 . S
C363 C364 1.395 . S
C363 H392 0.931 . S
C364 C363 1.395 . S
C364 C365 1.383 . S
C364 H393 0.931 . S
C365 C364 1.383 . S
C365 C366 1.394 . S
C366 C365 1.394 . S
C366 C367 1.378 . S
C366 H394 0.931 . S
C367 C362 1.377 . S
C367 C366 1.378 . S
C367 H395 0.931 . S
C368 O382 1.259 . S
C368 O383 1.270 . S
C369 O384 1.251 . S
C369 O385 1.251 . S
C370 Eu371 2.835 . S
C370 C372 1.500 . S
C370 O386 1.257 . S
C370 O387 1.260 . S
Eu371 C370 2.835 . S
Eu371 O383 2.355 . S
Eu371 O385 2.374 . S
Eu371 O386 2.473 . S
Eu371 O387 2.480 . S
Eu371 O388 2.430 . S
Eu371 O389 2.670 . S
Eu371 O390 2.394 . S
C372 C370 1.500 . S
C372 C373 1.377 . S
C372 C377 1.377 . S
C373 C372 1.377 . S
C373 C374 1.395 . S
C373 H396 0.931 . S
C374 C373 1.395 . S
C374 C375 1.383 . S
C374 H397 0.931 . S
C375 C374 1.383 . S
C375 C376 1.394 . S
C376 C375 1.394 . S
C376 C377 1.378 . S
C376 H398 0.931 . S
C377 C372 1.377 . S
C377 C376 1.378 . S
C377 H399 0.931 . S
C378 O388 1.259 . S
C378 O389 1.270 . S
C379 O390 1.251 . S
C379 O391 1.251 . S
O380 C360 1.257 . S
O380 Eu361 2.473 . S
O381 C360 1.260 . S
O381 Eu361 2.480 . S
O382 Eu361 2.430 . S
O382 C368 1.259 . S
O383 Eu361 2.670 . S
O383 C368 1.270 . S
O383 Eu371 2.355 . S
O384 Eu361 2.394 . S
O384 C369 1.251 . S
O385 C369 1.251 . S
O385 Eu371 2.374 . S
O386 C370 1.257 . S
O386 Eu371 2.473 . S
O387 C370 1.260 . S
O387 Eu371 2.480 . S
O388 Eu371 2.430 . S
O388 C378 1.259 . S
O389 Eu361 2.355 . S
O389 Eu371 2.670 . S
O389 C378 1.270 . S
O390 Eu371 2.394 . S
O390 C379 1.251 . S
O391 Eu361 2.374 . S
O391 C379 1.251 . S
H392 C363 0.931 . S
H393 C364 0.931 . S
H394 C366 0.931 . S
H395 C367 0.931 . S
H396 C373 0.931 . S
H397 C374 0.931 . S
H398 C376 0.931 . S
H399 C377 0.931 . S
C400 Eu401 2.835 . S
C400 C402 1.500 . S
C400 O420 1.257 . S
C400 O421 1.260 . S
Eu401 C400 2.835 . S
Eu401 O420 2.473 . S
Eu401 O421 2.480 . S
Eu401 O422 2.430 . S
Eu401 O423 2.670 . S
Eu401 O424 2.394 . S
Eu401 O429 2.355 . S
Eu401 O431 2.374 . S
C402 C400 1.500 . S
C402 C403 1.377 . S
C402 C407 1.377 . S
C403 C402 1.377 . S
C403 C404 1.395 . S
C403 H432 0.931 . S
C404 C403 1.395 . S
C404 C405 1.383 . S
C404 H433 0.931 . S
C405 C404 1.383 . S
C405 C406 1.394 . S
C406 C405 1.394 . S
C406 C407 1.378 . S
C406 H434 0.931 . S
C407 C402 1.377 . S
C407 C406 1.378 . S
C407 H435 0.931 . S
C408 O422 1.259 . S
C408 O423 1.270 . S
C409 O424 1.251 . S
C409 O425 1.251 . S
C410 Eu411 2.835 . S
C410 C412 1.500 . S
C410 O426 1.257 . S
C410 O427 1.260 . S
Eu411 C410 2.835 . S
Eu411 O423 2.355 . S
Eu411 O425 2.374 . S
Eu411 O426 2.473 . S
Eu411 O427 2.480 . S
Eu411 O428 2.430 . S
Eu411 O429 2.670 . S
Eu411 O430 2.394 . S
C412 C410 1.500 . S
C412 C413 1.377 . S
C412 C417 1.377 . S
C413 C412 1.377 . S
C413 C414 1.395 . S
C413 H436 0.931 . S
C414 C413 1.395 . S
C414 C415 1.383 . S
C414 H437 0.931 . S
C415 C414 1.383 . S
C415 C416 1.394 . S
C416 C415 1.394 . S
C416 C417 1.378 . S
C416 H438 0.931 . S
C417 C412 1.377 . S
C417 C416 1.378 . S
C417 H439 0.931 . S
C418 O428 1.259 . S
C418 O429 1.270 . S
C419 O430 1.251 . S
C419 O431 1.251 . S
O420 C400 1.257 . S
O420 Eu401 2.473 . S
O421 C400 1.260 . S
O421 Eu401 2.480 . S
O422 Eu401 2.430 . S
O422 C408 1.259 . S
O423 Eu401 2.670 . S
O423 C408 1.270 . S
O423 Eu411 2.355 . S
O424 Eu401 2.394 . S
O424 C409 1.251 . S
O425 C409 1.251 . S
O425 Eu411 2.374 . S
O426 C410 1.257 . S
O426 Eu411 2.473 . S
O427 C410 1.260 . S
O427 Eu411 2.480 . S
O428 Eu411 2.430 . S
O428 C418 1.259 . S
O429 Eu401 2.355 . S
O429 Eu411 2.670 . S
O429 C418 1.270 . S
O430 Eu411 2.394 . S
O430 C419 1.251 . S
O431 Eu401 2.374 . S
O431 C419 1.251 . S
H432 C403 0.931 . S
H433 C404 0.931 . S
H434 C406 0.931 . S
H435 C407 0.931 . S
H436 C413 0.931 . S
H437 C414 0.931 . S
H438 C416 0.931 . S
H439 C417 0.931 . S
C440 Eu441 2.835 . S
C440 C442 1.500 . S
C440 O460 1.257 . S
C440 O461 1.260 . S
Eu441 C440 2.835 . S
Eu441 O460 2.473 . S
Eu441 O461 2.480 . S
Eu441 O462 2.430 . S
Eu441 O463 2.670 . S
Eu441 O464 2.394 . S
Eu441 O469 2.355 . S
Eu441 O471 2.374 . S
C442 C440 1.500 . S
C442 C443 1.377 . S
C442 C447 1.377 . S
C443 C442 1.377 . S
C443 C444 1.395 . S
C443 H472 0.931 . S
C444 C443 1.395 . S
C444 C445 1.383 . S
C444 H473 0.931 . S
C445 C444 1.383 . S
C445 C446 1.394 . S
C446 C445 1.394 . S
C446 C447 1.378 . S
C446 H474 0.931 . S
C447 C442 1.377 . S
C447 C446 1.378 . S
C447 H475 0.931 . S
C448 O462 1.259 . S
C448 O463 1.270 . S
C449 O464 1.251 . S
C449 O465 1.251 . S
C450 Eu451 2.835 1_556 S
C450 C452 1.500 . S
C450 O466 1.257 1_556 S
C450 O467 1.260 1_556 S
Eu451 C450 2.835 1_554 S
Eu451 O463 2.355 . S
Eu451 O465 2.374 . S
Eu451 O466 2.473 . S
Eu451 O467 2.480 . S
Eu451 O468 2.430 . S
Eu451 O469 2.670 . S
Eu451 O470 2.394 . S
C452 C450 1.500 . S
C452 C453 1.377 . S
C452 C457 1.377 . S
C453 C452 1.377 . S
C453 C454 1.395 . S
C453 H476 0.931 . S
C454 C453 1.395 . S
C454 C455 1.383 . S
C454 H477 0.931 . S
C455 C454 1.383 . S
C455 C456 1.394 . S
C456 C455 1.394 . S
C456 C457 1.378 . S
C456 H478 0.931 . S
C457 C452 1.377 . S
C457 C456 1.378 . S
C457 H479 0.931 . S
C458 O468 1.259 . S
C458 O469 1.270 . S
C459 O470 1.251 . S
C459 O471 1.251 . S
O460 C440 1.257 . S
O460 Eu441 2.473 . S
O461 C440 1.260 . S
O461 Eu441 2.480 . S
O462 Eu441 2.430 . S
O462 C448 1.259 . S
O463 Eu441 2.670 . S
O463 C448 1.270 . S
O463 Eu451 2.355 . S
O464 Eu441 2.394 . S
O464 C449 1.251 . S
O465 C449 1.251 . S
O465 Eu451 2.374 . S
O466 C450 1.257 1_554 S
O466 Eu451 2.473 . S
O467 C450 1.260 1_554 S
O467 Eu451 2.480 . S
O468 Eu451 2.430 . S
O468 C458 1.259 . S
O469 Eu441 2.355 . S
O469 Eu451 2.670 . S
O469 C458 1.270 . S
O470 Eu451 2.394 . S
O470 C459 1.251 . S
O471 Eu441 2.374 . S
O471 C459 1.251 . S
H472 C443 0.931 . S
H473 C444 0.931 . S
H474 C446 0.931 . S
H475 C447 0.931 . S
H476 C453 0.931 . S
H477 C454 0.931 . S
H478 C456 0.931 . S
H479 C457 0.931 . S
C480 Eu481 2.835 . S
C480 C482 1.500 . S
C480 O500 1.257 . S
C480 O501 1.260 . S
Eu481 C480 2.835 . S
Eu481 O500 2.473 . S
Eu481 O501 2.480 . S
Eu481 O502 2.430 . S
Eu481 O503 2.670 . S
Eu481 O504 2.394 . S
Eu481 O509 2.355 . S
Eu481 O511 2.374 . S
C482 C480 1.500 . S
C482 C483 1.377 . S
C482 C487 1.377 . S
C483 C482 1.377 . S
C483 C484 1.395 . S
C483 H512 0.931 . S
C484 C483 1.395 . S
C484 C485 1.383 . S
C484 H513 0.931 . S
C485 C484 1.383 . S
C485 C486 1.394 . S
C486 C485 1.394 . S
C486 C487 1.378 . S
C486 H514 0.931 . S
C487 C482 1.377 . S
C487 C486 1.378 . S
C487 H515 0.931 . S
C488 O502 1.259 . S
C488 O503 1.270 . S
C489 O504 1.251 . S
C489 O505 1.251 . S
C490 Eu491 2.835 1_556 S
C490 C492 1.500 . S
C490 O506 1.257 1_556 S
C490 O507 1.260 1_556 S
Eu491 C490 2.835 1_554 S
Eu491 O503 2.355 . S
Eu491 O505 2.374 . S
Eu491 O506 2.473 . S
Eu491 O507 2.480 . S
Eu491 O508 2.430 . S
Eu491 O509 2.670 . S
Eu491 O510 2.394 . S
C492 C490 1.500 . S
C492 C493 1.377 . S
C492 C497 1.377 . S
C493 C492 1.377 . S
C493 C494 1.395 . S
C493 H516 0.931 . S
C494 C493 1.395 . S
C494 C495 1.383 . S
C494 H517 0.931 . S
C495 C494 1.383 . S
C495 C496 1.394 . S
C496 C495 1.394 . S
C496 C497 1.378 . S
C496 H518 0.931 . S
C497 C492 1.377 . S
C497 C496 1.378 . S
C497 H519 0.931 . S
C498 O508 1.259 . S
C498 O509 1.270 . S
C499 O510 1.251 . S
C499 O511 1.251 . S
O500 C480 1.257 . S
O500 Eu481 2.473 . S
O501 C480 1.260 . S
O501 Eu481 2.480 . S
O502 Eu481 2.430 . S
O502 C488 1.259 . S
O503 Eu481 2.670 . S
O503 C488 1.270 . S
O503 Eu491 2.355 . S
O504 Eu481 2.394 . S
O504 C489 1.251 . S
O505 C489 1.251 . S
O505 Eu491 2.374 . S
O506 C490 1.257 1_554 S
O506 Eu491 2.473 . S
O507 C490 1.260 1_554 S
O507 Eu491 2.480 . S
O508 Eu491 2.430 . S
O508 C498 1.259 . S
O509 Eu481 2.355 . S
O509 Eu491 2.670 . S
O509 C498 1.270 . S
O510 Eu491 2.394 . S
O510 C499 1.251 . S
O511 Eu481 2.374 . S
O511 C499 1.251 . S
H512 C483 0.931 . S
H513 C484 0.931 . S
H514 C486 0.931 . S
H515 C487 0.931 . S
H516 C493 0.931 . S
H517 C494 0.931 . S
H518 C496 0.931 . S
H519 C497 0.931 . S
C520 Eu521 2.835 . S
C520 C522 1.500 1_556 S
C520 O540 1.257 . S
C520 O541 1.260 . S
Eu521 C520 2.835 . S
Eu521 O540 2.473 . S
Eu521 O541 2.480 . S
Eu521 O542 2.430 . S
Eu521 O543 2.670 . S
Eu521 O544 2.394 . S
Eu521 O549 2.355 . S
Eu521 O551 2.374 . S
C522 C520 1.500 1_554 S
C522 C523 1.377 . S
C522 C527 1.377 . S
C523 C522 1.377 . S
C523 C524 1.395 . S
C523 H552 0.931 . S
C524 C523 1.395 . S
C524 C525 1.383 . S
C524 H553 0.931 . S
C525 C524 1.383 . S
C525 C526 1.394 . S
C526 C525 1.394 . S
C526 C527 1.378 . S
C526 H554 0.931 . S
C527 C522 1.377 . S
C527 C526 1.378 . S
C527 H555 0.931 . S
C528 O542 1.259 . S
C528 O543 1.270 . S
C529 O544 1.251 . S
C529 O545 1.251 . S
C530 Eu531 2.835 . S
C530 C532 1.500 . S
C530 O546 1.257 . S
C530 O547 1.260 . S
Eu531 C530 2.835 . S
Eu531 O543 2.355 . S
Eu531 O545 2.374 . S
Eu531 O546 2.473 . S
Eu531 O547 2.480 . S
Eu531 O548 2.430 . S
Eu531 O549 2.670 . S
Eu531 O550 2.394 . S
C532 C530 1.500 . S
C532 C533 1.377 . S
C532 C537 1.377 . S
C533 C532 1.377 . S
C533 C534 1.395 . S
C533 H556 0.931 . S
C534 C533 1.395 . S
C534 C535 1.383 . S
C534 H557 0.931 . S
C535 C534 1.383 . S
C535 C536 1.394 . S
C536 C535 1.394 . S
C536 C537 1.378 . S
C536 H558 0.931 . S
C537 C532 1.377 . S
C537 C536 1.378 . S
C537 H559 0.931 . S
C538 O548 1.259 . S
C538 O549 1.270 . S
C539 O550 1.251 . S
C539 O551 1.251 . S
O540 C520 1.257 . S
O540 Eu521 2.473 . S
O541 C520 1.260 . S
O541 Eu521 2.480 . S
O542 Eu521 2.430 . S
O542 C528 1.259 . S
O543 Eu521 2.670 . S
O543 C528 1.270 . S
O543 Eu531 2.355 . S
O544 Eu521 2.394 . S
O544 C529 1.251 . S
O545 C529 1.251 . S
O545 Eu531 2.374 . S
O546 C530 1.257 . S
O546 Eu531 2.473 . S
O547 C530 1.260 . S
O547 Eu531 2.480 . S
O548 Eu531 2.430 . S
O548 C538 1.259 . S
O549 Eu521 2.355 . S
O549 Eu531 2.670 . S
O549 C538 1.270 . S
O550 Eu531 2.394 . S
O550 C539 1.251 . S
O551 Eu521 2.374 . S
O551 C539 1.251 . S
H552 C523 0.931 . S
H553 C524 0.931 . S
H554 C526 0.931 . S
H555 C527 0.931 . S
H556 C533 0.931 . S
H557 C534 0.931 . S
H558 C536 0.931 . S
H559 C537 0.931 . S
C560 Eu561 2.835 . S
C560 C562 1.500 . S
C560 O580 1.257 . S
C560 O581 1.260 . S
Eu561 C560 2.835 . S
Eu561 O580 2.473 . S
Eu561 O581 2.480 . S
Eu561 O582 2.430 . S
Eu561 O583 2.670 . S
Eu561 O584 2.394 . S
Eu561 O589 2.355 . S
Eu561 O591 2.374 . S
C562 C560 1.500 . S
C562 C563 1.377 . S
C562 C567 1.377 . S
C563 C562 1.377 . S
C563 C564 1.395 . S
C563 H592 0.931 . S
C564 C563 1.395 . S
C564 C565 1.383 . S
C564 H593 0.931 . S
C565 C564 1.383 . S
C565 C566 1.394 . S
C566 C565 1.394 . S
C566 C567 1.378 . S
C566 H594 0.931 . S
C567 C562 1.377 . S
C567 C566 1.378 . S
C567 H595 0.931 . S
C568 O582 1.259 . S
C568 O583 1.270 . S
C569 O584 1.251 . S
C569 O585 1.251 . S
C570 Eu571 2.835 . S
C570 C572 1.500 . S
C570 O586 1.257 . S
C570 O587 1.260 . S
Eu571 C570 2.835 . S
Eu571 O583 2.355 . S
Eu571 O585 2.374 . S
Eu571 O586 2.473 . S
Eu571 O587 2.480 . S
Eu571 O588 2.430 . S
Eu571 O589 2.670 . S
Eu571 O590 2.394 . S
C572 C570 1.500 . S
C572 C573 1.377 . S
C572 C577 1.377 . S
C573 C572 1.377 . S
C573 C574 1.395 . S
C573 H596 0.931 . S
C574 C573 1.395 . S
C574 C575 1.383 . S
C574 H597 0.931 . S
C575 C574 1.383 . S
C575 C576 1.394 . S
C576 C575 1.394 . S
C576 C577 1.378 . S
C576 H598 0.931 . S
C577 C572 1.377 . S
C577 C576 1.378 . S
C577 H599 0.931 . S
C578 O588 1.259 . S
C578 O589 1.270 . S
C579 O590 1.251 . S
C579 O591 1.251 . S
O580 C560 1.257 . S
O580 Eu561 2.473 . S
O581 C560 1.260 . S
O581 Eu561 2.480 . S
O582 Eu561 2.430 . S
O582 C568 1.259 . S
O583 Eu561 2.670 . S
O583 C568 1.270 . S
O583 Eu571 2.355 . S
O584 Eu561 2.394 . S
O584 C569 1.251 . S
O585 C569 1.251 . S
O585 Eu571 2.374 . S
O586 C570 1.257 . S
O586 Eu571 2.473 . S
O587 C570 1.260 . S
O587 Eu571 2.480 . S
O588 Eu571 2.430 . S
O588 C578 1.259 . S
O589 Eu561 2.355 . S
O589 Eu571 2.670 . S
O589 C578 1.270 . S
O590 Eu571 2.394 . S
O590 C579 1.251 . S
O591 Eu561 2.374 . S
O591 C579 1.251 . S
H592 C563 0.931 . S
H593 C564 0.931 . S
H594 C566 0.931 . S
H595 C567 0.931 . S
H596 C573 0.931 . S
H597 C574 0.931 . S
H598 C576 0.931 . S
H599 C577 0.931 . S
C600 Eu601 2.835 . S
C600 C602 1.500 . S
C600 O620 1.257 . S
C600 O621 1.260 . S
Eu601 C600 2.835 . S
Eu601 O620 2.473 . S
Eu601 O621 2.480 . S
Eu601 O622 2.430 . S
Eu601 O623 2.670 . S
Eu601 O624 2.394 . S
Eu601 O629 2.355 . S
Eu601 O631 2.374 . S
C602 C600 1.500 . S
C602 C603 1.377 . S
C602 C607 1.377 . S
C603 C602 1.377 . S
C603 C604 1.395 . S
C603 H632 0.931 . S
C604 C603 1.395 . S
C604 C605 1.383 1_554 S
C604 H633 0.931 1_554 S
C605 C604 1.383 1_556 S
C605 C606 1.394 1_556 S
C606 C605 1.394 1_554 S
C606 C607 1.378 . S
C606 H634 0.931 . S
C607 C602 1.377 . S
C607 C606 1.378 . S
C607 H635 0.931 . S
C608 O622 1.259 . S
C608 O623 1.270 . S
C609 O624 1.251 . S
C609 O625 1.251 . S
C610 Eu611 2.835 . S
C610 C612 1.500 . S
C610 O626 1.257 . S
C610 O627 1.260 . S
Eu611 C610 2.835 . S
Eu611 O623 2.355 . S
Eu611 O625 2.374 . S
Eu611 O626 2.473 . S
Eu611 O627 2.480 . S
Eu611 O628 2.430 . S
Eu611 O629 2.670 . S
Eu611 O630 2.394 . S
C612 C610 1.500 . S
C612 C613 1.377 . S
C612 C617 1.377 . S
C613 C612 1.377 . S
C613 C614 1.395 . S
C613 H636 0.931 . S
C614 C613 1.395 . S
C614 C615 1.383 . S
C614 H637 0.931 . S
C615 C614 1.383 . S
C615 C616 1.394 . S
C616 C615 1.394 . S
C616 C617 1.378 . S
C616 H638 0.931 . S
C617 C612 1.377 . S
C617 C616 1.378 . S
C617 H639 0.931 . S
C618 O628 1.259 . S
C618 O629 1.270 . S
C619 O630 1.251 . S
C619 O631 1.251 . S
O620 C600 1.257 . S
O620 Eu601 2.473 . S
O621 C600 1.260 . S
O621 Eu601 2.480 . S
O622 Eu601 2.430 . S
O622 C608 1.259 . S
O623 Eu601 2.670 . S
O623 C608 1.270 . S
O623 Eu611 2.355 . S
O624 Eu601 2.394 . S
O624 C609 1.251 . S
O625 C609 1.251 . S
O625 Eu611 2.374 . S
O626 C610 1.257 . S
O626 Eu611 2.473 . S
O627 C610 1.260 . S
O627 Eu611 2.480 . S
O628 Eu611 2.430 . S
O628 C618 1.259 . S
O629 Eu601 2.355 . S
O629 Eu611 2.670 . S
O629 C618 1.270 . S
O630 Eu611 2.394 . S
O630 C619 1.251 . S
O631 Eu601 2.374 . S
O631 C619 1.251 . S
H632 C603 0.931 . S
H633 C604 0.931 1_556 S
H634 C606 0.931 . S
H635 C607 0.931 . S
H636 C613 0.931 . S
H637 C614 0.931 . S
H638 C616 0.931 . S
H639 C617 0.931 . S
H640 C646 0.930 . S
H641 C650 0.930 . S
H642 C655 0.929 . S
H643 C653 0.929 . S
H644 C648 0.929 . S
H645 C654 0.929 . S
C646 H640 0.930 . S
C646 C647 1.367 . S
C646 C654 1.378 . S
C647 C646 1.367 . S
C647 C655 1.433 . S
C648 H644 0.929 . S
C648 C650 1.378 . S
C648 C652 1.350 . S
C649 C652 1.463 . S
C649 C654 1.350 . S
C649 N657 1.427 . S
C650 H641 0.930 . S
C650 C648 1.378 . S
C650 C651 1.367 . S
C651 C650 1.367 . S
C651 C653 1.433 . S
C652 C648 1.350 . S
C652 C649 1.463 . S
C652 N656 1.427 . S
C653 H643 0.929 . S
C653 C651 1.433 . S
C653 N656 1.384 . S
C654 H645 0.929 . S
C654 C646 1.378 . S
C654 C649 1.350 . S
C655 H642 0.929 . S
C655 C647 1.433 . S
C655 N657 1.384 . S
N656 C652 1.427 . S
N656 C653 1.384 . S
N657 C649 1.427 . S
N657 C655 1.384 . S
H658 C664 0.930 . S
H659 C668 0.930 . S
H660 C673 0.929 . S
H661 C671 0.929 . S
H662 C666 0.929 . S
H663 C672 0.929 . S
C664 H658 0.930 . S
C664 C665 1.367 . S
C664 C672 1.378 . S
C665 C664 1.367 . S
C665 C673 1.433 . S
C666 H662 0.929 . S
C666 C668 1.378 . S
C666 C670 1.350 . S
C667 C670 1.463 . S
C667 C672 1.350 . S
C667 N675 1.427 . S
C668 H659 0.930 . S
C668 C666 1.378 . S
C668 C669 1.367 . S
C669 C668 1.367 . S
C669 C671 1.433 . S
C670 C666 1.350 . S
C670 C667 1.463 . S
C670 N674 1.427 . S
C671 H661 0.929 . S
C671 C669 1.433 . S
C671 N674 1.384 . S
C672 H663 0.929 . S
C672 C664 1.378 . S
C672 C667 1.350 . S
C673 H660 0.929 . S
C673 C665 1.433 . S
C673 N675 1.384 . S
N674 C670 1.427 . S
N674 C671 1.384 . S
N675 C667 1.427 . S
N675 C673 1.384 . S
H676 C682 0.930 . S
H677 C686 0.930 . S
H678 C691 0.929 . S
H679 C689 0.929 . S
H680 C684 0.929 . S
H681 C690 0.929 . S
C682 H676 0.930 . S
C682 C683 1.367 . S
C682 C690 1.378 . S
C683 C682 1.367 . S
C683 C691 1.433 . S
C684 H680 0.929 . S
C684 C686 1.378 . S
C684 C688 1.350 . S
C685 C688 1.463 . S
C685 C690 1.350 . S
C685 N693 1.427 . S
C686 H677 0.930 . S
C686 C684 1.378 . S
C686 C687 1.367 . S
C687 C686 1.367 . S
C687 C689 1.433 . S
C688 C684 1.350 . S
C688 C685 1.463 . S
C688 N692 1.427 . S
C689 H679 0.929 . S
C689 C687 1.433 . S
C689 N692 1.384 . S
C690 H681 0.929 . S
C690 C682 1.378 . S
C690 C685 1.350 . S
C691 H678 0.929 . S
C691 C683 1.433 . S
C691 N693 1.384 . S
N692 C688 1.427 . S
N692 C689 1.384 . S
N693 C685 1.427 . S
N693 C691 1.384 . S
H694 C700 0.930 . S
H695 C704 0.930 . S
H696 C709 0.929 . S
H697 C707 0.929 . S
H698 C702 0.929 . S
H699 C708 0.929 . S
C700 H694 0.930 . S
C700 C701 1.367 . S
C700 C708 1.378 . S
C701 C700 1.367 . S
C701 C709 1.433 . S
C702 H698 0.929 . S
C702 C704 1.378 . S
C702 C706 1.350 . S
C703 C706 1.463 . S
C703 C708 1.350 . S
C703 N711 1.427 . S
C704 H695 0.930 . S
C704 C702 1.378 . S
C704 C705 1.367 . S
C705 C704 1.367 . S
C705 C707 1.433 . S
C706 C702 1.350 . S
C706 C703 1.463 . S
C706 N710 1.427 . S
C707 H697 0.929 . S
C707 C705 1.433 . S
C707 N710 1.384 . S
C708 H699 0.929 . S
C708 C700 1.378 . S
C708 C703 1.350 . S
C709 H696 0.929 . S
C709 C701 1.433 . S
C709 N711 1.384 . S
N710 C706 1.427 . S
N710 C707 1.384 . S
N711 C703 1.427 . S
N711 C709 1.384 . S
H712 C718 0.930 . S
H713 C722 0.930 . S
H714 C727 0.929 . S
H715 C725 0.929 . S
H716 C720 0.929 . S
H717 C726 0.929 . S
C718 H712 0.930 . S
C718 C719 1.367 . S
C718 C726 1.378 . S
C719 C718 1.367 . S
C719 C727 1.433 . S
C720 H716 0.929 . S
C720 C722 1.378 . S
C720 C724 1.350 . S
C721 C724 1.463 . S
C721 C726 1.350 . S
C721 N729 1.427 . S
C722 H713 0.930 . S
C722 C720 1.378 . S
C722 C723 1.367 . S
C723 C722 1.367 . S
C723 C725 1.433 . S
C724 C720 1.350 . S
C724 C721 1.463 . S
C724 N728 1.427 . S
C725 H715 0.929 . S
C725 C723 1.433 . S
C725 N728 1.384 . S
C726 H717 0.929 . S
C726 C718 1.378 . S
C726 C721 1.350 . S
C727 H714 0.929 . S
C727 C719 1.433 . S
C727 N729 1.384 . S
N728 C724 1.427 . S
N728 C725 1.384 . S
N729 C721 1.427 . S
N729 C727 1.384 . S
H730 C736 0.930 . S
H731 C740 0.930 . S
H732 C745 0.929 . S
H733 C743 0.929 . S
H734 C738 0.929 . S
H735 C744 0.929 . S
C736 H730 0.930 . S
C736 C737 1.367 . S
C736 C744 1.378 . S
C737 C736 1.367 . S
C737 C745 1.433 . S
C738 H734 0.929 . S
C738 C740 1.378 . S
C738 C742 1.350 . S
C739 C742 1.463 . S
C739 C744 1.350 . S
C739 N747 1.427 . S
C740 H731 0.930 . S
C740 C738 1.378 . S
C740 C741 1.367 . S
C741 C740 1.367 . S
C741 C743 1.433 . S
C742 C738 1.350 . S
C742 C739 1.463 . S
C742 N746 1.427 . S
C743 H733 0.929 . S
C743 C741 1.433 . S
C743 N746 1.384 . S
C744 H735 0.929 . S
C744 C736 1.378 . S
C744 C739 1.350 . S
C745 H732 0.929 . S
C745 C737 1.433 . S
C745 N747 1.384 . S
N746 C742 1.427 . S
N746 C743 1.384 . S
N747 C739 1.427 . S
N747 C745 1.384 . S
H748 C754 0.930 . S
H749 C758 0.930 . S
H750 C763 0.929 . S
H751 C761 0.929 . S
H752 C756 0.929 . S
H753 C762 0.929 . S
C754 H748 0.930 . S
C754 C755 1.367 . S
C754 C762 1.378 . S
C755 C754 1.367 . S
C755 C763 1.433 . S
C756 H752 0.929 . S
C756 C758 1.378 . S
C756 C760 1.350 . S
C757 C760 1.463 . S
C757 C762 1.350 . S
C757 N765 1.427 . S
C758 H749 0.930 . S
C758 C756 1.378 . S
C758 C759 1.367 . S
C759 C758 1.367 . S
C759 C761 1.433 . S
C760 C756 1.350 . S
C760 C757 1.463 . S
C760 N764 1.427 . S
C761 H751 0.929 . S
C761 C759 1.433 . S
C761 N764 1.384 . S
C762 H753 0.929 . S
C762 C754 1.378 . S
C762 C757 1.350 . S
C763 H750 0.929 . S
C763 C755 1.433 . S
C763 N765 1.384 . S
N764 C760 1.427 . S
N764 C761 1.384 . S
N765 C757 1.427 . S
N765 C763 1.384 . S
H766 C772 0.930 . S
H767 C776 0.930 . S
H768 C781 0.929 . S
H769 C779 0.929 . S
H770 C774 0.929 . S
H771 C780 0.929 . S
C772 H766 0.930 . S
C772 C773 1.367 . S
C772 C780 1.378 . S
C773 C772 1.367 . S
C773 C781 1.433 . S
C774 H770 0.929 . S
C774 C776 1.378 . S
C774 C778 1.350 . S
C775 C778 1.463 . S
C775 C780 1.350 . S
C775 N783 1.427 . S
C776 H767 0.930 . S
C776 C774 1.378 . S
C776 C777 1.367 . S
C777 C776 1.367 . S
C777 C779 1.433 . S
C778 C774 1.350 . S
C778 C775 1.463 . S
C778 N782 1.427 . S
C779 H769 0.929 . S
C779 C777 1.433 . S
C779 N782 1.384 . S
C780 H771 0.929 . S
C780 C772 1.378 . S
C780 C775 1.350 . S
C781 H768 0.929 . S
C781 C773 1.433 . S
C781 N783 1.384 . S
N782 C778 1.427 . S
N782 C779 1.384 . S
N783 C775 1.427 . S
N783 C781 1.384 . S
H784 C790 0.930 . S
H785 C794 0.930 . S
H786 C799 0.929 . S
H787 C797 0.929 . S
H788 C792 0.929 . S
H789 C798 0.929 . S
C790 H784 0.930 . S
C790 C791 1.367 . S
C790 C798 1.378 . S
C791 C790 1.367 . S
C791 C799 1.433 . S
C792 H788 0.929 . S
C792 C794 1.378 . S
C792 C796 1.350 . S
C793 C796 1.463 . S
C793 C798 1.350 . S
C793 N801 1.427 . S
C794 H785 0.930 . S
C794 C792 1.378 . S
C794 C795 1.367 . S
C795 C794 1.367 . S
C795 C797 1.433 . S
C796 C792 1.350 . S
C796 C793 1.463 . S
C796 N800 1.427 . S
C797 H787 0.929 . S
C797 C795 1.433 . S
C797 N800 1.384 . S
C798 H789 0.929 . S
C798 C790 1.378 . S
C798 C793 1.350 . S
C799 H786 0.929 . S
C799 C791 1.433 . S
C799 N801 1.384 . S
N800 C796 1.427 . S
N800 C797 1.384 . S
N801 C793 1.427 . S
N801 C799 1.384 . S
H802 C808 0.930 . S
H803 C812 0.930 . S
H804 C817 0.929 . S
H805 C815 0.929 . S
H806 C810 0.929 . S
H807 C816 0.929 . S
C808 H802 0.930 . S
C808 C809 1.367 . S
C808 C816 1.378 . S
C809 C808 1.367 . S
C809 C817 1.433 . S
C810 H806 0.929 . S
C810 C812 1.378 . S
C810 C814 1.350 . S
C811 C814 1.463 . S
C811 C816 1.350 . S
C811 N819 1.427 . S
C812 H803 0.930 . S
C812 C810 1.378 . S
C812 C813 1.367 . S
C813 C812 1.367 . S
C813 C815 1.433 . S
C814 C810 1.350 . S
C814 C811 1.463 . S
C814 N818 1.427 . S
C815 H805 0.929 . S
C815 C813 1.433 . S
C815 N818 1.384 . S
C816 H807 0.929 . S
C816 C808 1.378 . S
C816 C811 1.350 . S
C817 H804 0.929 . S
C817 C809 1.433 . S
C817 N819 1.384 . S
N818 C814 1.427 . S
N818 C815 1.384 . S
N819 C811 1.427 . S
N819 C817 1.384 . S
H820 C826 0.930 . S
H821 C830 0.930 . S
H822 C835 0.929 . S
H823 C833 0.929 . S
H824 C828 0.929 . S
H825 C834 0.929 . S
C826 H820 0.930 . S
C826 C827 1.367 . S
C826 C834 1.378 . S
C827 C826 1.367 . S
C827 C835 1.433 . S
C828 H824 0.929 . S
C828 C830 1.378 . S
C828 C832 1.350 . S
C829 C832 1.463 . S
C829 C834 1.350 . S
C829 N837 1.427 . S
C830 H821 0.930 . S
C830 C828 1.378 . S
C830 C831 1.367 . S
C831 C830 1.367 . S
C831 C833 1.433 . S
C832 C828 1.350 . S
C832 C829 1.463 . S
C832 N836 1.427 . S
C833 H823 0.929 . S
C833 C831 1.433 . S
C833 N836 1.384 . S
C834 H825 0.929 . S
C834 C826 1.378 . S
C834 C829 1.350 . S
C835 H822 0.929 . S
C835 C827 1.433 . S
C835 N837 1.384 . S
N836 C832 1.427 . S
N836 C833 1.384 . S
N837 C829 1.427 . S
N837 C835 1.384 . S
H838 C844 0.930 . S
H839 C848 0.930 . S
H840 C853 0.929 . S
H841 C851 0.929 . S
H842 C846 0.929 . S
H843 C852 0.929 . S
C844 H838 0.930 . S
C844 C845 1.367 . S
C844 C852 1.378 . S
C845 C844 1.367 . S
C845 C853 1.433 . S
C846 H842 0.929 . S
C846 C848 1.378 . S
C846 C850 1.350 . S
C847 C850 1.463 . S
C847 C852 1.350 . S
C847 N855 1.427 . S
C848 H839 0.930 . S
C848 C846 1.378 . S
C848 C849 1.367 . S
C849 C848 1.367 . S
C849 C851 1.433 . S
C850 C846 1.350 . S
C850 C847 1.463 . S
C850 N854 1.427 . S
C851 H841 0.929 . S
C851 C849 1.433 . S
C851 N854 1.384 . S
C852 H843 0.929 . S
C852 C844 1.378 . S
C852 C847 1.350 . S
C853 H840 0.929 . S
C853 C845 1.433 . S
C853 N855 1.384 . S
N854 C850 1.427 . S
N854 C851 1.384 . S
N855 C847 1.427 . S
N855 C853 1.384 . S
H856 C862 0.930 . S
H857 C866 0.930 . S
H858 C871 0.929 . S
H859 C869 0.929 . S
H860 C864 0.929 . S
H861 C870 0.929 . S
C862 H856 0.930 . S
C862 C863 1.367 . S
C862 C870 1.378 . S
C863 C862 1.367 . S
C863 C871 1.433 . S
C864 H860 0.929 . S
C864 C866 1.378 . S
C864 C868 1.350 . S
C865 C868 1.463 . S
C865 C870 1.350 . S
C865 N873 1.427 . S
C866 H857 0.930 . S
C866 C864 1.378 . S
C866 C867 1.367 . S
C867 C866 1.367 . S
C867 C869 1.433 . S
C868 C864 1.350 . S
C868 C865 1.463 . S
C868 N872 1.427 . S
C869 H859 0.929 . S
C869 C867 1.433 . S
C869 N872 1.384 . S
C870 H861 0.929 . S
C870 C862 1.378 . S
C870 C865 1.350 . S
C871 H858 0.929 . S
C871 C863 1.433 . S
C871 N873 1.384 . S
N872 C868 1.427 . S
N872 C869 1.384 . S
N873 C865 1.427 . S
N873 C871 1.384 . S
H874 C880 0.930 . S
H875 C884 0.930 . S
H876 C889 0.929 . S
H877 C887 0.929 . S
H878 C882 0.929 . S
H879 C888 0.929 . S
C880 H874 0.930 . S
C880 C881 1.367 . S
C880 C888 1.378 . S
C881 C880 1.367 . S
C881 C889 1.433 . S
C882 H878 0.929 . S
C882 C884 1.378 . S
C882 C886 1.350 . S
C883 C886 1.463 . S
C883 C888 1.350 . S
C883 N891 1.427 . S
C884 H875 0.930 . S
C884 C882 1.378 . S
C884 C885 1.367 . S
C885 C884 1.367 . S
C885 C887 1.433 . S
C886 C882 1.350 . S
C886 C883 1.463 . S
C886 N890 1.427 . S
C887 H877 0.929 . S
C887 C885 1.433 . S
C887 N890 1.384 . S
C888 H879 0.929 . S
C888 C880 1.378 . S
C888 C883 1.350 . S
C889 H876 0.929 . S
C889 C881 1.433 . S
C889 N891 1.384 . S
N890 C886 1.427 . S
N890 C887 1.384 . S
N891 C883 1.427 . S
N891 C889 1.384 . S
H892 C898 0.930 . S
H893 C902 0.930 . S
H894 C907 0.929 . S
H895 C905 0.929 . S
H896 C900 0.929 . S
H897 C906 0.929 . S
C898 H892 0.930 . S
C898 C899 1.367 . S
C898 C906 1.378 . S
C899 C898 1.367 . S
C899 C907 1.433 . S
C900 H896 0.929 . S
C900 C902 1.378 . S
C900 C904 1.350 . S
C901 C904 1.463 . S
C901 C906 1.350 . S
C901 N909 1.427 . S
C902 H893 0.930 . S
C902 C900 1.378 . S
C902 C903 1.367 . S
C903 C902 1.367 . S
C903 C905 1.433 . S
C904 C900 1.350 . S
C904 C901 1.463 . S
C904 N908 1.427 . S
C905 H895 0.929 . S
C905 C903 1.433 . S
C905 N908 1.384 . S
C906 H897 0.929 . S
C906 C898 1.378 . S
C906 C901 1.350 . S
C907 H894 0.929 . S
C907 C899 1.433 . S
C907 N909 1.384 . S
N908 C904 1.427 . S
N908 C905 1.384 . S
N909 C901 1.427 . S
N909 C907 1.384 . S
H910 C916 0.930 . S
H911 C920 0.930 . S
H912 C925 0.929 . S
H913 C923 0.929 . S
H914 C918 0.929 . S
H915 C924 0.929 . S
C916 H910 0.930 . S
C916 C917 1.367 . S
C916 C924 1.378 . S
C917 C916 1.367 . S
C917 C925 1.433 . S
C918 H914 0.929 . S
C918 C920 1.378 . S
C918 C922 1.350 . S
C919 C922 1.463 . S
C919 C924 1.350 . S
C919 N927 1.427 . S
C920 H911 0.930 . S
C920 C918 1.378 . S
C920 C921 1.367 . S
C921 C920 1.367 . S
C921 C923 1.433 . S
C922 C918 1.350 . S
C922 C919 1.463 . S
C922 N926 1.427 . S
C923 H913 0.929 . S
C923 C921 1.433 . S
C923 N926 1.384 . S
C924 H915 0.929 . S
C924 C916 1.378 . S
C924 C919 1.350 . S
C925 H912 0.929 . S
C925 C917 1.433 . S
C925 N927 1.384 . S
N926 C922 1.427 . S
N926 C923 1.384 . S
N927 C919 1.427 . S
N927 C925 1.384 . S
H928 C934 0.930 . S
H929 C938 0.930 . S
H930 C943 0.929 . S
H931 C941 0.929 . S
H932 C936 0.929 . S
H933 C942 0.929 . S
C934 H928 0.930 . S
C934 C935 1.367 . S
C934 C942 1.378 . S
C935 C934 1.367 . S
C935 C943 1.433 . S
C936 H932 0.929 . S
C936 C938 1.378 . S
C936 C940 1.350 . S
C937 C940 1.463 . S
C937 C942 1.350 . S
C937 N945 1.427 . S
C938 H929 0.930 . S
C938 C936 1.378 . S
C938 C939 1.367 . S
C939 C938 1.367 . S
C939 C941 1.433 . S
C940 C936 1.350 . S
C940 C937 1.463 . S
C940 N944 1.427 . S
C941 H931 0.929 . S
C941 C939 1.433 . S
C941 N944 1.384 . S
C942 H933 0.929 . S
C942 C934 1.378 . S
C942 C937 1.350 . S
C943 H930 0.929 . S
C943 C935 1.433 . S
C943 N945 1.384 . S
N944 C940 1.427 . S
N944 C941 1.384 . S
N945 C937 1.427 . S
N945 C943 1.384 . S
H946 C952 0.930 . S
H947 C956 0.930 . S
H948 C961 0.929 . S
H949 C959 0.929 . S
H950 C954 0.929 . S
H951 C960 0.929 . S
C952 H946 0.930 . S
C952 C953 1.367 . S
C952 C960 1.378 . S
C953 C952 1.367 . S
C953 C961 1.433 . S
C954 H950 0.929 . S
C954 C956 1.378 . S
C954 C958 1.350 . S
C955 C958 1.463 . S
C955 C960 1.350 . S
C955 N963 1.427 . S
C956 H947 0.930 . S
C956 C954 1.378 . S
C956 C957 1.367 . S
C957 C956 1.367 . S
C957 C959 1.433 . S
C958 C954 1.350 . S
C958 C955 1.463 . S
C958 N962 1.427 . S
C959 H949 0.929 . S
C959 C957 1.433 . S
C959 N962 1.384 . S
C960 H951 0.929 . S
C960 C952 1.378 . S
C960 C955 1.350 . S
C961 H948 0.929 . S
C961 C953 1.433 . S
C961 N963 1.384 . S
N962 C958 1.427 . S
N962 C959 1.384 . S
N963 C955 1.427 . S
N963 C961 1.384 . S
H964 C970 0.930 . S
H965 C974 0.930 . S
H966 C979 0.929 . S
H967 C977 0.929 . S
H968 C972 0.929 . S
H969 C978 0.929 . S
C970 H964 0.930 . S
C970 C971 1.367 . S
C970 C978 1.378 . S
C971 C970 1.367 . S
C971 C979 1.433 . S
C972 H968 0.929 . S
C972 C974 1.378 . S
C972 C976 1.350 . S
C973 C976 1.463 . S
C973 C978 1.350 . S
C973 N981 1.427 . S
C974 H965 0.930 . S
C974 C972 1.378 . S
C974 C975 1.367 . S
C975 C974 1.367 . S
C975 C977 1.433 . S
C976 C972 1.350 . S
C976 C973 1.463 . S
C976 N980 1.427 . S
C977 H967 0.929 . S
C977 C975 1.433 . S
C977 N980 1.384 . S
C978 H969 0.929 . S
C978 C970 1.378 . S
C978 C973 1.350 . S
C979 H966 0.929 . S
C979 C971 1.433 . S
C979 N981 1.384 . S
N980 C976 1.427 . S
N980 C977 1.384 . S
N981 C973 1.427 . S
N981 C979 1.384 . S
H982 C988 0.930 . S
H983 C992 0.930 . S
H984 C997 0.929 . S
H985 C995 0.929 . S
H986 C990 0.929 . S
H987 C996 0.929 . S
C988 H982 0.930 . S
C988 C989 1.367 . S
C988 C996 1.378 . S
C989 C988 1.367 . S
C989 C997 1.433 . S
C990 H986 0.929 . S
C990 C992 1.378 . S
C990 C994 1.350 . S
C991 C994 1.463 1_655 S
C991 C996 1.350 . S
C991 N999 1.427 . S
C992 H983 0.930 . S
C992 C990 1.378 . S
C992 C993 1.367 . S
C993 C992 1.367 . S
C993 C995 1.433 . S
C994 C990 1.350 . S
C994 C991 1.463 1_455 S
C994 N998 1.427 . S
C995 H985 0.929 . S
C995 C993 1.433 . S
C995 N998 1.384 . S
C996 H987 0.929 . S
C996 C988 1.378 . S
C996 C991 1.350 . S
C997 H984 0.929 . S
C997 C989 1.433 . S
C997 N999 1.384 . S
N998 C994 1.427 . S
N998 C995 1.384 . S
N999 C991 1.427 . S
N999 C997 1.384 . S
H1000 C1006 0.930 . S
H1001 C1010 0.930 . S
H1002 C1015 0.929 . S
H1003 C1013 0.929 . S
H1004 C1008 0.929 . S
H1005 C1014 0.929 . S
C1006 H1000 0.930 . S
C1006 C1007 1.367 . S
C1006 C1014 1.378 . S
C1007 C1006 1.367 . S
C1007 C1015 1.433 . S
C1008 H1004 0.929 . S
C1008 C1010 1.378 . S
C1008 C1012 1.350 . S
C1009 C1012 1.463 . S
C1009 C1014 1.350 . S
C1009 N1017 1.427 . S
C1010 H1001 0.930 . S
C1010 C1008 1.378 . S
C1010 C1011 1.367 . S
C1011 C1010 1.367 . S
C1011 C1013 1.433 . S
C1012 C1008 1.350 . S
C1012 C1009 1.463 . S
C1012 N1016 1.427 . S
C1013 H1003 0.929 . S
C1013 C1011 1.433 . S
C1013 N1016 1.384 . S
C1014 H1005 0.929 . S
C1014 C1006 1.378 . S
C1014 C1009 1.350 . S
C1015 H1002 0.929 . S
C1015 C1007 1.433 . S
C1015 N1017 1.384 . S
N1016 C1012 1.427 . S
N1016 C1013 1.384 . S
N1017 C1009 1.427 . S
N1017 C1015 1.384 . S
H1018 C1024 0.930 . S
H1019 C1028 0.930 . S
H1020 C1033 0.929 . S
H1021 C1031 0.929 . S
H1022 C1026 0.929 . S
H1023 C1032 0.929 . S
C1024 H1018 0.930 . S
C1024 C1025 1.367 . S
C1024 C1032 1.378 . S
C1025 C1024 1.367 . S
C1025 C1033 1.433 . S
C1026 H1022 0.929 . S
C1026 C1028 1.378 . S
C1026 C1030 1.350 . S
C1027 C1030 1.463 1_455 S
C1027 C1032 1.350 . S
C1027 N1035 1.427 . S
C1028 H1019 0.930 . S
C1028 C1026 1.378 . S
C1028 C1029 1.367 . S
C1029 C1028 1.367 . S
C1029 C1031 1.433 . S
C1030 C1026 1.350 . S
C1030 C1027 1.463 1_655 S
C1030 N1034 1.427 . S
C1031 H1021 0.929 . S
C1031 C1029 1.433 . S
C1031 N1034 1.384 . S
C1032 H1023 0.929 . S
C1032 C1024 1.378 . S
C1032 C1027 1.350 . S
C1033 H1020 0.929 . S
C1033 C1025 1.433 . S
C1033 N1035 1.384 . S
N1034 C1030 1.427 . S
N1034 C1031 1.384 . S
N1035 C1027 1.427 . S
N1035 C1033 1.384 . S
H1036 C1042 0.930 . S
H1037 C1046 0.930 . S
H1038 C1051 0.929 . S
H1039 C1049 0.929 . S
H1040 C1044 0.929 . S
H1041 C1050 0.929 . S
C1042 H1036 0.930 . S
C1042 C1043 1.367 . S
C1042 C1050 1.378 . S
C1043 C1042 1.367 . S
C1043 C1051 1.433 . S
C1044 H1040 0.929 . S
C1044 C1046 1.378 . S
C1044 C1048 1.350 . S
C1045 C1048 1.463 . S
C1045 C1050 1.350 . S
C1045 N1053 1.427 . S
C1046 H1037 0.930 . S
C1046 C1044 1.378 . S
C1046 C1047 1.367 . S
C1047 C1046 1.367 . S
C1047 C1049 1.433 . S
C1048 C1044 1.350 . S
C1048 C1045 1.463 . S
C1048 N1052 1.427 . S
C1049 H1039 0.929 . S
C1049 C1047 1.433 . S
C1049 N1052 1.384 . S
C1050 H1041 0.929 . S
C1050 C1042 1.378 . S
C1050 C1045 1.350 . S
C1051 H1038 0.929 . S
C1051 C1043 1.433 . S
C1051 N1053 1.384 . S
N1052 C1048 1.427 . S
N1052 C1049 1.384 . S
N1053 C1045 1.427 . S
N1053 C1051 1.384 . S
H1054 C1060 0.930 . S
H1055 C1064 0.930 . S
H1056 C1069 0.929 . S
H1057 C1067 0.929 . S
H1058 C1062 0.929 . S
H1059 C1068 0.929 . S
C1060 H1054 0.930 . S
C1060 C1061 1.367 . S
C1060 C1068 1.378 . S
C1061 C1060 1.367 . S
C1061 C1069 1.433 . S
C1062 H1058 0.929 . S
C1062 C1064 1.378 . S
C1062 C1066 1.350 . S
C1063 C1066 1.463 . S
C1063 C1068 1.350 . S
C1063 N1071 1.427 . S
C1064 H1055 0.930 . S
C1064 C1062 1.378 . S
C1064 C1065 1.367 . S
C1065 C1064 1.367 . S
C1065 C1067 1.433 . S
C1066 C1062 1.350 . S
C1066 C1063 1.463 . S
C1066 N1070 1.427 . S
C1067 H1057 0.929 . S
C1067 C1065 1.433 . S
C1067 N1070 1.384 . S
C1068 H1059 0.929 . S
C1068 C1060 1.378 . S
C1068 C1063 1.350 . S
C1069 H1056 0.929 . S
C1069 C1061 1.433 . S
C1069 N1071 1.384 . S
N1070 C1066 1.427 . S
N1070 C1067 1.384 . S
N1071 C1063 1.427 . S
N1071 C1069 1.384 . S
H1072 C1078 0.930 . S
H1073 C1082 0.930 . S
H1074 C1087 0.929 . S
H1075 C1085 0.929 . S
H1076 C1080 0.929 . S
H1077 C1086 0.929 . S
C1078 H1072 0.930 . S
C1078 C1079 1.367 . S
C1078 C1086 1.378 . S
C1079 C1078 1.367 . S
C1079 C1087 1.433 . S
C1080 H1076 0.929 . S
C1080 C1082 1.378 . S
C1080 C1084 1.350 . S
C1081 C1084 1.463 . S
C1081 C1086 1.350 . S
C1081 N1089 1.427 . S
C1082 H1073 0.930 . S
C1082 C1080 1.378 . S
C1082 C1083 1.367 . S
C1083 C1082 1.367 . S
C1083 C1085 1.433 . S
C1084 C1080 1.350 . S
C1084 C1081 1.463 . S
C1084 N1088 1.427 . S
C1085 H1075 0.929 . S
C1085 C1083 1.433 . S
C1085 N1088 1.384 . S
C1086 H1077 0.929 . S
C1086 C1078 1.378 . S
C1086 C1081 1.350 . S
C1087 H1074 0.929 . S
C1087 C1079 1.433 . S
C1087 N1089 1.384 . S
N1088 C1084 1.427 . S
N1088 C1085 1.384 . S
N1089 C1081 1.427 . S
N1089 C1087 1.384 . S
H1090 C1096 0.930 . S
H1091 C1100 0.930 . S
H1092 C1105 0.929 . S
H1093 C1103 0.929 . S
H1094 C1098 0.929 . S
H1095 C1104 0.929 . S
C1096 H1090 0.930 . S
C1096 C1097 1.367 . S
C1096 C1104 1.378 . S
C1097 C1096 1.367 . S
C1097 C1105 1.433 . S
C1098 H1094 0.929 . S
C1098 C1100 1.378 . S
C1098 C1102 1.350 . S
C1099 C1102 1.463 . S
C1099 C1104 1.350 . S
C1099 N1107 1.427 . S
C1100 H1091 0.930 . S
C1100 C1098 1.378 . S
C1100 C1101 1.367 . S
C1101 C1100 1.367 . S
C1101 C1103 1.433 . S
C1102 C1098 1.350 . S
C1102 C1099 1.463 . S
C1102 N1106 1.427 . S
C1103 H1093 0.929 . S
C1103 C1101 1.433 . S
C1103 N1106 1.384 . S
C1104 H1095 0.929 . S
C1104 C1096 1.378 . S
C1104 C1099 1.350 . S
C1105 H1092 0.929 . S
C1105 C1097 1.433 . S
C1105 N1107 1.384 . S
N1106 C1102 1.427 . S
N1106 C1103 1.384 . S
N1107 C1099 1.427 . S
N1107 C1105 1.384 . S
H1108 C1114 0.930 . S
H1109 C1118 0.930 . S
H1110 C1123 0.929 . S
H1111 C1121 0.929 . S
H1112 C1116 0.929 . S
H1113 C1122 0.929 . S
C1114 H1108 0.930 . S
C1114 C1115 1.367 . S
C1114 C1122 1.378 . S
C1115 C1114 1.367 . S
C1115 C1123 1.433 . S
C1116 H1112 0.929 . S
C1116 C1118 1.378 . S
C1116 C1120 1.350 . S
C1117 C1120 1.463 . S
C1117 C1122 1.350 . S
C1117 N1125 1.427 . S
C1118 H1109 0.930 . S
C1118 C1116 1.378 . S
C1118 C1119 1.367 . S
C1119 C1118 1.367 . S
C1119 C1121 1.433 . S
C1120 C1116 1.350 . S
C1120 C1117 1.463 . S
C1120 N1124 1.427 . S
C1121 H1111 0.929 . S
C1121 C1119 1.433 . S
C1121 N1124 1.384 . S
C1122 H1113 0.929 . S
C1122 C1114 1.378 . S
C1122 C1117 1.350 . S
C1123 H1110 0.929 . S
C1123 C1115 1.433 . S
C1123 N1125 1.384 . S
N1124 C1120 1.427 . S
N1124 C1121 1.384 . S
N1125 C1117 1.427 . S
N1125 C1123 1.384 . S
H1126 C1132 0.930 . S
H1127 C1136 0.930 . S
H1128 C1141 0.929 . S
H1129 C1139 0.929 . S
H1130 C1134 0.929 . S
H1131 C1140 0.929 . S
C1132 H1126 0.930 . S
C1132 C1133 1.367 . S
C1132 C1140 1.378 . S
C1133 C1132 1.367 . S
C1133 C1141 1.433 . S
C1134 H1130 0.929 . S
C1134 C1136 1.378 . S
C1134 C1138 1.350 . S
C1135 C1138 1.463 . S
C1135 C1140 1.350 . S
C1135 N1143 1.427 . S
C1136 H1127 0.930 . S
C1136 C1134 1.378 . S
C1136 C1137 1.367 . S
C1137 C1136 1.367 . S
C1137 C1139 1.433 . S
C1138 C1134 1.350 . S
C1138 C1135 1.463 . S
C1138 N1142 1.427 . S
C1139 H1129 0.929 . S
C1139 C1137 1.433 . S
C1139 N1142 1.384 . S
C1140 H1131 0.929 . S
C1140 C1132 1.378 . S
C1140 C1135 1.350 . S
C1141 H1128 0.929 . S
C1141 C1133 1.433 . S
C1141 N1143 1.384 . S
N1142 C1138 1.427 . S
N1142 C1139 1.384 . S
N1143 C1135 1.427 . S
N1143 C1141 1.384 . S
H1144 C1150 0.930 . S
H1145 C1154 0.930 . S
H1146 C1159 0.929 . S
H1147 C1157 0.929 . S
H1148 C1152 0.929 . S
H1149 C1158 0.929 . S
C1150 H1144 0.930 . S
C1150 C1151 1.367 . S
C1150 C1158 1.378 . S
C1151 C1150 1.367 . S
C1151 C1159 1.433 . S
C1152 H1148 0.929 . S
C1152 C1154 1.378 . S
C1152 C1156 1.350 . S
C1153 C1156 1.463 1_655 S
C1153 C1158 1.350 . S
C1153 N1161 1.427 . S
C1154 H1145 0.930 . S
C1154 C1152 1.378 . S
C1154 C1155 1.367 . S
C1155 C1154 1.367 . S
C1155 C1157 1.433 . S
C1156 C1152 1.350 . S
C1156 C1153 1.463 1_455 S
C1156 N1160 1.427 . S
C1157 H1147 0.929 . S
C1157 C1155 1.433 . S
C1157 N1160 1.384 . S
C1158 H1149 0.929 . S
C1158 C1150 1.378 . S
C1158 C1153 1.350 . S
C1159 H1146 0.929 . S
C1159 C1151 1.433 . S
C1159 N1161 1.384 . S
N1160 C1156 1.427 . S
N1160 C1157 1.384 . S
N1161 C1153 1.427 . S
N1161 C1159 1.384 . S
H1162 C1168 0.930 . S
H1163 C1172 0.930 . S
H1164 C1177 0.929 . S
H1165 C1175 0.929 . S
H1166 C1170 0.929 . S
H1167 C1176 0.929 . S
C1168 H1162 0.930 . S
C1168 C1169 1.367 . S
C1168 C1176 1.378 . S
C1169 C1168 1.367 . S
C1169 C1177 1.433 . S
C1170 H1166 0.929 . S
C1170 C1172 1.378 . S
C1170 C1174 1.350 . S
C1171 C1174 1.463 . S
C1171 C1176 1.350 . S
C1171 N1179 1.427 . S
C1172 H1163 0.930 . S
C1172 C1170 1.378 . S
C1172 C1173 1.367 . S
C1173 C1172 1.367 . S
C1173 C1175 1.433 . S
C1174 C1170 1.350 . S
C1174 C1171 1.463 . S
C1174 N1178 1.427 . S
C1175 H1165 0.929 . S
C1175 C1173 1.433 . S
C1175 N1178 1.384 . S
C1176 H1167 0.929 . S
C1176 C1168 1.378 . S
C1176 C1171 1.350 . S
C1177 H1164 0.929 . S
C1177 C1169 1.433 . S
C1177 N1179 1.384 . S
N1178 C1174 1.427 . S
N1178 C1175 1.384 . S
N1179 C1171 1.427 . S
N1179 C1177 1.384 . S
H1180 C1186 0.930 . S
H1181 C1190 0.930 . S
H1182 C1195 0.929 . S
H1183 C1193 0.929 . S
H1184 C1188 0.929 . S
H1185 C1194 0.929 . S
C1186 H1180 0.930 . S
C1186 C1187 1.367 . S
C1186 C1194 1.378 . S
C1187 C1186 1.367 . S
C1187 C1195 1.433 . S
C1188 H1184 0.929 . S
C1188 C1190 1.378 . S
C1188 C1192 1.350 . S
C1189 C1192 1.463 . S
C1189 C1194 1.350 . S
C1189 N1197 1.427 . S
C1190 H1181 0.930 . S
C1190 C1188 1.378 . S
C1190 C1191 1.367 . S
C1191 C1190 1.367 . S
C1191 C1193 1.433 . S
C1192 C1188 1.350 . S
C1192 C1189 1.463 . S
C1192 N1196 1.427 . S
C1193 H1183 0.929 . S
C1193 C1191 1.433 . S
C1193 N1196 1.384 . S
C1194 H1185 0.929 . S
C1194 C1186 1.378 . S
C1194 C1189 1.350 . S
C1195 H1182 0.929 . S
C1195 C1187 1.433 . S
C1195 N1197 1.384 . S
N1196 C1192 1.427 . S
N1196 C1193 1.384 . S
N1197 C1189 1.427 . S
N1197 C1195 1.384 . S
H1198 C1204 0.930 . S
H1199 C1208 0.930 . S
H1200 C1213 0.929 . S
H1201 C1211 0.929 . S
H1202 C1206 0.929 . S
H1203 C1212 0.929 . S
C1204 H1198 0.930 . S
C1204 C1205 1.367 . S
C1204 C1212 1.378 . S
C1205 C1204 1.367 . S
C1205 C1213 1.433 . S
C1206 H1202 0.929 . S
C1206 C1208 1.378 . S
C1206 C1210 1.350 . S
C1207 C1210 1.463 1_455 S
C1207 C1212 1.350 . S
C1207 N1215 1.427 . S
C1208 H1199 0.930 . S
C1208 C1206 1.378 . S
C1208 C1209 1.367 . S
C1209 C1208 1.367 . S
C1209 C1211 1.433 . S
C1210 C1206 1.350 . S
C1210 C1207 1.463 1_655 S
C1210 N1214 1.427 . S
C1211 H1201 0.929 . S
C1211 C1209 1.433 . S
C1211 N1214 1.384 . S
C1212 H1203 0.929 . S
C1212 C1204 1.378 . S
C1212 C1207 1.350 . S
C1213 H1200 0.929 . S
C1213 C1205 1.433 . S
C1213 N1215 1.384 . S
N1214 C1210 1.427 . S
N1214 C1211 1.384 . S
N1215 C1207 1.427 . S
N1215 C1213 1.384 . S
H1216 C1222 0.930 . S
H1217 C1226 0.930 . S
H1218 C1231 0.929 . S
H1219 C1229 0.929 . S
H1220 C1224 0.929 . S
H1221 C1230 0.929 . S
C1222 H1216 0.930 . S
C1222 C1223 1.367 . S
C1222 C1230 1.378 . S
C1223 C1222 1.367 . S
C1223 C1231 1.433 . S
C1224 H1220 0.929 . S
C1224 C1226 1.378 . S
C1224 C1228 1.350 . S
C1225 C1228 1.463 1_554 S
C1225 C1230 1.350 . S
C1225 N1233 1.427 . S
C1226 H1217 0.930 . S
C1226 C1224 1.378 . S
C1226 C1227 1.367 . S
C1227 C1226 1.367 . S
C1227 C1229 1.433 . S
C1228 C1224 1.350 . S
C1228 C1225 1.463 1_556 S
C1228 N1232 1.427 1_556 S
C1229 H1219 0.929 . S
C1229 C1227 1.433 . S
C1229 N1232 1.384 1_556 S
C1230 H1221 0.929 . S
C1230 C1222 1.378 . S
C1230 C1225 1.350 . S
C1231 H1218 0.929 . S
C1231 C1223 1.433 . S
C1231 N1233 1.384 . S
N1232 C1228 1.427 1_554 S
N1232 C1229 1.384 1_554 S
N1233 C1225 1.427 . S
N1233 C1231 1.384 . S
H1234 C1240 0.930 . S
H1235 C1244 0.930 . S
H1236 C1249 0.929 . S
H1237 C1247 0.929 . S
H1238 C1242 0.929 . S
H1239 C1248 0.929 . S
C1240 H1234 0.930 . S
C1240 C1241 1.367 . S
C1240 C1248 1.378 . S
C1241 C1240 1.367 . S
C1241 C1249 1.433 . S
C1242 H1238 0.929 . S
C1242 C1244 1.378 . S
C1242 C1246 1.350 . S
C1243 C1246 1.463 . S
C1243 C1248 1.350 . S
C1243 N1251 1.427 . S
C1244 H1235 0.930 . S
C1244 C1242 1.378 . S
C1244 C1245 1.367 . S
C1245 C1244 1.367 . S
C1245 C1247 1.433 . S
C1246 C1242 1.350 . S
C1246 C1243 1.463 . S
C1246 N1250 1.427 . S
C1247 H1237 0.929 . S
C1247 C1245 1.433 . S
C1247 N1250 1.384 . S
C1248 H1239 0.929 . S
C1248 C1240 1.378 . S
C1248 C1243 1.350 . S
C1249 H1236 0.929 . S
C1249 C1241 1.433 . S
C1249 N1251 1.384 . S
N1250 C1246 1.427 . S
N1250 C1247 1.384 . S
N1251 C1243 1.427 . S
N1251 C1249 1.384 . S
H1252 C1258 0.930 . S
H1253 C1262 0.930 . S
H1254 C1267 0.929 . S
H1255 C1265 0.929 . S
H1256 C1260 0.929 . S
H1257 C1266 0.929 . S
C1258 H1252 0.930 . S
C1258 C1259 1.367 . S
C1258 C1266 1.378 . S
C1259 C1258 1.367 . S
C1259 C1267 1.433 . S
C1260 H1256 0.929 . S
C1260 C1262 1.378 . S
C1260 C1264 1.350 . S
C1261 C1264 1.463 . S
C1261 C1266 1.350 . S
C1261 N1269 1.427 . S
C1262 H1253 0.930 . S
C1262 C1260 1.378 . S
C1262 C1263 1.367 . S
C1263 C1262 1.367 . S
C1263 C1265 1.433 . S
C1264 C1260 1.350 . S
C1264 C1261 1.463 . S
C1264 N1268 1.427 . S
C1265 H1255 0.929 . S
C1265 C1263 1.433 . S
C1265 N1268 1.384 . S
C1266 H1257 0.929 . S
C1266 C1258 1.378 . S
C1266 C1261 1.350 . S
C1267 H1254 0.929 . S
C1267 C1259 1.433 . S
C1267 N1269 1.384 . S
N1268 C1264 1.427 . S
N1268 C1265 1.384 . S
N1269 C1261 1.427 . S
N1269 C1267 1.384 . S
H1270 C1276 0.930 . S
H1271 C1280 0.930 . S
H1272 C1285 0.929 . S
H1273 C1283 0.929 . S
H1274 C1278 0.929 . S
H1275 C1284 0.929 . S
C1276 H1270 0.930 . S
C1276 C1277 1.367 . S
C1276 C1284 1.378 . S
C1277 C1276 1.367 . S
C1277 C1285 1.433 . S
C1278 H1274 0.929 . S
C1278 C1280 1.378 . S
C1278 C1282 1.350 . S
C1279 C1282 1.463 . S
C1279 C1284 1.350 . S
C1279 N1287 1.427 . S
C1280 H1271 0.930 . S
C1280 C1278 1.378 . S
C1280 C1281 1.367 . S
C1281 C1280 1.367 . S
C1281 C1283 1.433 . S
C1282 C1278 1.350 . S
C1282 C1279 1.463 . S
C1282 N1286 1.427 . S
C1283 H1273 0.929 . S
C1283 C1281 1.433 . S
C1283 N1286 1.384 . S
C1284 H1275 0.929 . S
C1284 C1276 1.378 . S
C1284 C1279 1.350 . S
C1285 H1272 0.929 . S
C1285 C1277 1.433 . S
C1285 N1287 1.384 . S
N1286 C1282 1.427 . S
N1286 C1283 1.384 . S
N1287 C1279 1.427 . S
N1287 C1285 1.384 . S
H1288 C1294 0.930 . S
H1289 C1298 0.930 . S
H1290 C1303 0.929 . S
H1291 C1301 0.929 . S
H1292 C1296 0.929 1_554 S
H1293 C1302 0.929 . S
C1294 H1288 0.930 . S
C1294 C1295 1.367 . S
C1294 C1302 1.378 1_554 S
C1295 C1294 1.367 . S
C1295 C1303 1.433 . S
C1296 H1292 0.929 1_556 S
C1296 C1298 1.378 . S
C1296 C1300 1.350 . S
C1297 C1300 1.463 1_554 S
C1297 C1302 1.350 1_554 S
C1297 N1305 1.427 . S
C1298 H1289 0.930 . S
C1298 C1296 1.378 . S
C1298 C1299 1.367 . S
C1299 C1298 1.367 . S
C1299 C1301 1.433 . S
C1300 C1296 1.350 . S
C1300 C1297 1.463 1_556 S
C1300 N1304 1.427 . S
C1301 H1291 0.929 . S
C1301 C1299 1.433 . S
C1301 N1304 1.384 . S
C1302 H1293 0.929 . S
C1302 C1294 1.378 1_556 S
C1302 C1297 1.350 1_556 S
C1303 H1290 0.929 . S
C1303 C1295 1.433 . S
C1303 N1305 1.384 . S
N1304 C1300 1.427 . S
N1304 C1301 1.384 . S
N1305 C1297 1.427 . S
N1305 C1303 1.384 . S
H1306 C1312 0.930 . S
H1307 C1316 0.930 . S
H1308 C1321 0.929 . S
H1309 C1319 0.929 . S
H1310 C1314 0.929 . S
H1311 C1320 0.929 . S
C1312 H1306 0.930 . S
C1312 C1313 1.367 . S
C1312 C1320 1.378 . S
C1313 C1312 1.367 . S
C1313 C1321 1.433 . S
C1314 H1310 0.929 . S
C1314 C1316 1.378 . S
C1314 C1318 1.350 . S
C1315 C1318 1.463 . S
C1315 C1320 1.350 . S
C1315 N1323 1.427 . S
C1316 H1307 0.930 . S
C1316 C1314 1.378 . S
C1316 C1317 1.367 . S
C1317 C1316 1.367 . S
C1317 C1319 1.433 . S
C1318 C1314 1.350 . S
C1318 C1315 1.463 . S
C1318 N1322 1.427 . S
C1319 H1309 0.929 . S
C1319 C1317 1.433 . S
C1319 N1322 1.384 . S
C1320 H1311 0.929 . S
C1320 C1312 1.378 . S
C1320 C1315 1.350 . S
C1321 H1308 0.929 . S
C1321 C1313 1.433 . S
C1321 N1323 1.384 . S
N1322 C1318 1.427 . S
N1322 C1319 1.384 . S
N1323 C1315 1.427 . S
N1323 C1321 1.384 . S
H1324 C1330 0.930 . S
H1325 C1334 0.930 . S
H1326 C1339 0.929 . S
H1327 C1337 0.929 . S
H1328 C1332 0.929 . S
H1329 C1338 0.929 . S
C1330 H1324 0.930 . S
C1330 C1331 1.367 . S
C1330 C1338 1.378 . S
C1331 C1330 1.367 . S
C1331 C1339 1.433 . S
C1332 H1328 0.929 . S
C1332 C1334 1.378 . S
C1332 C1336 1.350 . S
C1333 C1336 1.463 . S
C1333 C1338 1.350 . S
C1333 N1341 1.427 . S
C1334 H1325 0.930 . S
C1334 C1332 1.378 . S
C1334 C1335 1.367 . S
C1335 C1334 1.367 . S
C1335 C1337 1.433 . S
C1336 C1332 1.350 . S
C1336 C1333 1.463 . S
C1336 N1340 1.427 . S
C1337 H1327 0.929 . S
C1337 C1335 1.433 . S
C1337 N1340 1.384 . S
C1338 H1329 0.929 . S
C1338 C1330 1.378 . S
C1338 C1333 1.350 . S
C1339 H1326 0.929 . S
C1339 C1331 1.433 . S
C1339 N1341 1.384 . S
N1340 C1336 1.427 . S
N1340 C1337 1.384 . S
N1341 C1333 1.427 . S
N1341 C1339 1.384 . S
H1342 C1348 0.930 . S
H1343 C1352 0.930 . S
H1344 C1357 0.929 . S
H1345 C1355 0.929 . S
H1346 C1350 0.929 . S
H1347 C1356 0.929 . S
C1348 H1342 0.930 . S
C1348 C1349 1.367 . S
C1348 C1356 1.378 . S
C1349 C1348 1.367 . S
C1349 C1357 1.433 . S
C1350 H1346 0.929 . S
C1350 C1352 1.378 . S
C1350 C1354 1.350 . S
C1351 C1354 1.463 . S
C1351 C1356 1.350 . S
C1351 N1359 1.427 . S
C1352 H1343 0.930 . S
C1352 C1350 1.378 . S
C1352 C1353 1.367 . S
C1353 C1352 1.367 . S
C1353 C1355 1.433 . S
C1354 C1350 1.350 . S
C1354 C1351 1.463 . S
C1354 N1358 1.427 . S
C1355 H1345 0.929 . S
C1355 C1353 1.433 . S
C1355 N1358 1.384 . S
C1356 H1347 0.929 . S
C1356 C1348 1.378 . S
C1356 C1351 1.350 . S
C1357 H1344 0.929 . S
C1357 C1349 1.433 . S
C1357 N1359 1.384 . S
N1358 C1354 1.427 . S
N1358 C1355 1.384 . S
N1359 C1351 1.427 . S
N1359 C1357 1.384 . S
H1360 C1366 0.930 . S
H1361 C1370 0.930 . S
H1362 C1375 0.929 . S
H1363 C1373 0.929 . S
H1364 C1368 0.886 1_565 S
H1365 C1374 0.929 1_545 S
C1366 H1360 0.930 . S
C1366 C1367 1.367 . S
C1366 C1374 1.378 . S
C1367 C1366 1.367 . S
C1367 C1375 1.433 . S
C1368 H1364 0.886 1_545 S
C1368 C1370 1.414 . S
C1368 C1372 1.359 . S
C1369 C1372 1.463 1_565 S
C1369 C1374 1.350 . S
C1369 N1377 1.427 . S
C1370 H1361 0.930 . S
C1370 C1368 1.414 . S
C1370 C1371 1.367 . S
C1371 C1370 1.367 . S
C1371 C1373 1.433 . S
C1372 C1368 1.359 . S
C1372 C1369 1.463 1_545 S
C1372 N1376 1.427 . S
C1373 H1363 0.929 . S
C1373 C1371 1.433 . S
C1373 N1376 1.384 . S
C1374 H1365 0.929 1_565 S
C1374 C1366 1.378 . S
C1374 C1369 1.350 . S
C1375 H1362 0.929 . S
C1375 C1367 1.433 . S
C1375 N1377 1.384 . S
N1376 C1372 1.427 . S
N1376 C1373 1.384 . S
N1377 C1369 1.427 . S
N1377 C1375 1.384 . S
H1378 C1384 0.930 . S
H1379 C1388 0.930 . S
H1380 C1393 0.929 . S
H1381 C1391 0.929 . S
H1382 C1386 0.929 . S
H1383 C1392 0.929 . S
C1384 H1378 0.930 . S
C1384 C1385 1.367 . S
C1384 C1392 1.378 . S
C1385 C1384 1.367 . S
C1385 C1393 1.433 . S
C1386 H1382 0.929 . S
C1386 C1388 1.378 . S
C1386 C1390 1.350 . S
C1387 C1390 1.463 . S
C1387 C1392 1.350 . S
C1387 N1395 1.427 . S
C1388 H1379 0.930 . S
C1388 C1386 1.378 . S
C1388 C1389 1.367 . S
C1389 C1388 1.367 . S
C1389 C1391 1.433 . S
C1390 C1386 1.350 . S
C1390 C1387 1.463 . S
C1390 N1394 1.427 . S
C1391 H1381 0.929 . S
C1391 C1389 1.433 . S
C1391 N1394 1.384 . S
C1392 H1383 0.929 . S
C1392 C1384 1.378 . S
C1392 C1387 1.350 . S
C1393 H1380 0.929 . S
C1393 C1385 1.433 . S
C1393 N1395 1.384 . S
N1394 C1390 1.427 . S
N1394 C1391 1.384 . S
N1395 C1387 1.427 . S
N1395 C1393 1.384 . S
H1396 C1402 0.930 . S
H1397 C1406 0.930 . S
H1398 C1411 0.929 . S
H1399 C1409 0.929 . S
H1400 C1404 0.929 . S
H1401 C1410 0.929 1_556 S
C1402 H1396 0.930 . S
C1402 C1403 1.367 . S
C1402 C1410 1.378 . S
C1403 C1402 1.367 . S
C1403 C1411 1.433 . S
C1404 H1400 0.929 . S
C1404 C1406 1.378 1_554 S
C1404 C1408 1.350 1_554 S
C1405 C1408 1.463 1_564 S
C1405 C1410 1.350 . S
C1405 N1413 1.427 . S
C1406 H1397 0.930 . S
C1406 C1404 1.378 1_556 S
C1406 C1407 1.367 . S
C1407 C1406 1.367 . S
C1407 C1409 1.433 . S
C1408 C1404 1.350 1_556 S
C1408 C1405 1.463 1_546 S
C1408 N1412 1.427 . S
C1409 H1399 0.929 . S
C1409 C1407 1.433 . S
C1409 N1412 1.384 . S
C1410 H1401 0.929 1_554 S
C1410 C1402 1.378 . S
C1410 C1405 1.350 . S
C1411 H1398 0.929 . S
C1411 C1403 1.433 . S
C1411 N1413 1.384 . S
N1412 C1408 1.427 . S
N1412 C1409 1.384 . S
N1413 C1405 1.427 . S
N1413 C1411 1.384 . S
H1414 C1420 0.930 . S
H1415 C1424 0.930 . S
H1416 C1429 0.929 . S
H1417 C1427 0.929 . S
H1418 C1422 0.929 . S
H1419 C1428 0.929 . S
C1420 H1414 0.930 . S
C1420 C1421 1.367 . S
C1420 C1428 1.378 . S
C1421 C1420 1.367 . S
C1421 C1429 1.433 . S
C1422 H1418 0.929 . S
C1422 C1424 1.378 . S
C1422 C1426 1.350 . S
C1423 C1426 1.463 . S
C1423 C1428 1.350 . S
C1423 N1431 1.427 . S
C1424 H1415 0.930 . S
C1424 C1422 1.378 . S
C1424 C1425 1.367 . S
C1425 C1424 1.367 . S
C1425 C1427 1.433 . S
C1426 C1422 1.350 . S
C1426 C1423 1.463 . S
C1426 N1430 1.427 . S
C1427 H1417 0.929 . S
C1427 C1425 1.433 . S
C1427 N1430 1.384 . S
C1428 H1419 0.929 . S
C1428 C1420 1.378 . S
C1428 C1423 1.350 . S
C1429 H1416 0.929 . S
C1429 C1421 1.433 . S
C1429 N1431 1.384 . S
N1430 C1426 1.427 . S
N1430 C1427 1.384 . S
N1431 C1423 1.427 . S
N1431 C1429 1.384 . S
H1432 C1438 0.930 . S
H1433 C1442 0.930 . S
H1434 C1447 0.929 . S
H1435 C1445 0.929 . S
H1436 C1440 0.929 1_565 S
H1437 C1446 0.929 1_545 S
C1438 H1432 0.930 . S
C1438 C1439 1.367 . S
C1438 C1446 1.378 . S
C1439 C1438 1.367 . S
C1439 C1447 1.433 . S
C1440 H1436 0.929 1_545 S
C1440 C1442 1.378 . S
C1440 C1444 1.350 . S
C1441 C1444 1.463 1_565 S
C1441 C1446 1.350 . S
C1441 N1449 1.427 . S
C1442 H1433 0.930 . S
C1442 C1440 1.378 . S
C1442 C1443 1.367 . S
C1443 C1442 1.367 . S
C1443 C1445 1.433 . S
C1444 C1440 1.350 . S
C1444 C1441 1.463 1_545 S
C1444 N1448 1.427 . S
C1445 H1435 0.929 . S
C1445 C1443 1.433 . S
C1445 N1448 1.384 . S
C1446 H1437 0.929 1_565 S
C1446 C1438 1.378 . S
C1446 C1441 1.350 . S
C1447 H1434 0.929 . S
C1447 C1439 1.433 . S
C1447 N1449 1.384 . S
N1448 C1444 1.427 . S
N1448 C1445 1.384 . S
N1449 C1441 1.427 . S
N1449 C1447 1.384 . S
H1450 C1456 0.930 . S
H1451 C1460 0.930 . S
H1452 C1465 0.929 . S
H1453 C1463 0.929 . S
H1454 C1458 0.929 . S
H1455 C1464 0.929 . S
C1456 H1450 0.930 . S
C1456 C1457 1.367 . S
C1456 C1464 1.378 . S
C1457 C1456 1.367 . S
C1457 C1465 1.433 . S
C1458 H1454 0.929 . S
C1458 C1460 1.378 . S
C1458 C1462 1.350 . S
C1459 C1462 1.463 . S
C1459 C1464 1.350 . S
C1459 N1467 1.427 . S
C1460 H1451 0.930 . S
C1460 C1458 1.378 . S
C1460 C1461 1.367 . S
C1461 C1460 1.367 . S
C1461 C1463 1.433 . S
C1462 C1458 1.350 . S
C1462 C1459 1.463 . S
C1462 N1466 1.427 . S
C1463 H1453 0.929 . S
C1463 C1461 1.433 . S
C1463 N1466 1.384 . S
C1464 H1455 0.929 . S
C1464 C1456 1.378 . S
C1464 C1459 1.350 . S
C1465 H1452 0.929 . S
C1465 C1457 1.433 . S
C1465 N1467 1.384 . S
N1466 C1462 1.427 . S
N1466 C1463 1.384 . S
N1467 C1459 1.427 . S
N1467 C1465 1.384 . S
H1468 C1474 0.930 . S
H1469 C1478 0.930 . S
H1470 C1483 0.929 . S
H1471 C1481 0.929 . S
H1472 C1476 0.929 . S
H1473 C1482 0.929 . S
C1474 H1468 0.930 . S
C1474 C1475 1.367 . S
C1474 C1482 1.378 . S
C1475 C1474 1.367 . S
C1475 C1483 1.433 . S
C1476 H1472 0.929 . S
C1476 C1478 1.378 1_556 S
C1476 C1480 1.350 . S
C1477 C1480 1.463 1_545 S
C1477 C1482 1.350 . S
C1477 N1485 1.427 . S
C1478 H1469 0.930 . S
C1478 C1476 1.378 1_554 S
C1478 C1479 1.367 . S
C1479 C1478 1.367 . S
C1479 C1481 1.433 . S
C1480 C1476 1.350 . S
C1480 C1477 1.463 1_565 S
C1480 N1484 1.427 1_556 S
C1481 H1471 0.929 . S
C1481 C1479 1.433 . S
C1481 N1484 1.384 . S
C1482 H1473 0.929 . S
C1482 C1474 1.378 . S
C1482 C1477 1.350 . S
C1483 H1470 0.929 . S
C1483 C1475 1.433 . S
C1483 N1485 1.384 . S
N1484 C1480 1.427 1_554 S
N1484 C1481 1.384 . S
N1485 C1477 1.427 . S
N1485 C1483 1.384 . S
H1486 C1492 0.930 . S
H1487 C1496 0.930 . S
H1488 C1501 0.929 . S
H1489 C1499 0.929 . S
H1490 C1494 0.929 . S
H1491 C1500 0.929 . S
C1492 H1486 0.930 . S
C1492 C1493 1.367 . S
C1492 C1500 1.378 . S
C1493 C1492 1.367 . S
C1493 C1501 1.433 . S
C1494 H1490 0.929 . S
C1494 C1496 1.378 . S
C1494 C1498 1.350 . S
C1495 C1498 1.463 . S
C1495 C1500 1.350 . S
C1495 N1503 1.427 . S
C1496 H1487 0.930 . S
C1496 C1494 1.378 . S
C1496 C1497 1.367 . S
C1497 C1496 1.367 . S
C1497 C1499 1.433 . S
C1498 C1494 1.350 . S
C1498 C1495 1.463 . S
C1498 N1502 1.427 . S
C1499 H1489 0.929 . S
C1499 C1497 1.433 . S
C1499 N1502 1.384 . S
C1500 H1491 0.929 . S
C1500 C1492 1.378 . S
C1500 C1495 1.350 . S
C1501 H1488 0.929 . S
C1501 C1493 1.433 . S
C1501 N1503 1.384 . S
N1502 C1498 1.427 . S
N1502 C1499 1.384 . S
N1503 C1495 1.427 . S
N1503 C1501 1.384 . S
C647 C5 1.599 . S
C651 C15 1.599 . S
C665 C55 1.518 1_556 S
C669 C45 1.518 . S
C683 C85 1.787 . S
C687 C95 1.787 . S
C701 C135 1.684 . S
C705 C125 1.684 . S
C719 C165 1.517 . S
C723 C175 1.517 . S
C737 C205 1.787 . S
C741 C215 1.787 . S
C755 C245 1.676 . S
C759 C255 1.676 1_556 S
C773 C295 1.590 . S
C777 C285 1.590 . S
C791 C335 1.592 . S
C795 C325 1.592 . S
C809 C375 1.514 . S
C813 C365 1.514 1_554 S
C827 C415 1.834 1_556 S
C831 C405 1.834 . S
C845 C445 1.690 . S
C849 C455 1.690 . S
C863 C495 1.521 . S
C867 C485 1.521 . S
C881 C535 1.830 . S
C885 C525 1.830 . S
C899 C575 1.688 . S
C903 C565 1.688 1_554 S
C917 C605 1.583 . S
C921 C615 1.583 . S
C935 C19 1.957 . S
C939 C449 1.952 . S
C953 C58 1.565 . S
C957 C608 1.574 . S
C971 C99 1.939 . S
C975 C369 2.003 . S
C989 C138 1.501 . S
C993 C529 1.546 . S
C1007 C179 1.891 . S
C1011 C528 1.850 . S
C1025 C448 1.481 . S
C1029 C218 1.542 . S
C1043 C259 1.919 . S
C1047 C609 1.902 . S
C1061 C298 1.522 . S
C1065 C368 1.518 . S
C1079 C139 1.916 . S
C1083 C329 1.904 . S
C1097 C59 1.891 . S
C1101 C408 1.849 . S
C1115 C489 1.994 . S
C1119 C219 1.952 . S
C1133 C299 1.946 . S
C1137 C569 1.963 . S
C1151 C328 1.584 . S
C1155 C178 1.553 . S
C1169 C258 1.504 . S
C1173 C409 1.545 . S
C1187 C98 1.544 . S
C1191 C568 1.478 . S
C1205 C18 1.521 . S
C1209 C488 1.519 . S
C1223 C9 1.995 . S
C1227 C169 2.004 . S
C1241 C48 1.740 . S
C1245 C208 1.748 . S
C1259 C89 1.730 . S
C1263 C249 1.734 . S
C1277 C128 1.481 . S
C1281 C288 1.459 . S
C1295 C499 1.962 . S
C1299 C339 1.956 . S
C1313 C539 1.633 . S
C1317 C378 1.611 . S
C1331 C418 1.933 . S
C1335 C579 1.939 . S
C1349 C618 1.512 . S
C1353 C458 1.533 . S
C1367 C49 2.004 . S
C1371 C289 1.996 . S
C1385 C168 1.742 . S
C1389 C88 1.747 . S
C1403 C209 1.730 . S
C1407 C129 1.735 . S
C1421 C8 1.470 . S
C1425 C248 1.475 . S
C1439 C619 1.959 . S
C1443 C379 1.968 . S
C1457 C498 1.619 . S
C1461 C419 1.637 . S
C1475 C538 1.931 . S
C1479 C459 1.935 . S
C1493 C578 1.529 . S
C1497 C338 1.511 . S
