# Generated by pormake.
# Topology yfj, (5)-cn, num edge types: 1
# Building blocks:
#     Node 0, Type 0, BuildingBlock: XOMCOT_clean_sbu_1, # of connection points: 5
#     Node 1, Type 0, BuildingBlock: XOMCOT_clean_sbu_1, # of connection points: 5
#     Node 2, Type 0, BuildingBlock: XOMCOT_clean_sbu_1, # of connection points: 5
#     Node 3, Type 0, BuildingBlock: XOMCOT_clean_sbu_1, # of connection points: 5
#     Node 4, Type 0, BuildingBlock: XOMCOT_clean_sbu_1, # of connection points: 5
#     Node 5, Type 0, BuildingBlock: XOMCOT_clean_sbu_1, # of connection points: 5
#     Node 6, Type 0, BuildingBlock: XOMCOT_clean_sbu_1, # of connection points: 5
#     Node 7, Type 0, BuildingBlock: XOMCOT_clean_sbu_1, # of connection points: 5
#     Node 8, Type 0, BuildingBlock: XOMCOT_clean_sbu_1, # of connection points: 5
#     Node 9, Type 0, BuildingBlock: XOMCOT_clean_sbu_1, # of connection points: 5
#     Node 10, Type 0, BuildingBlock: XOMCOT_clean_sbu_1, # of connection points: 5
#     Node 11, Type 0, BuildingBlock: XOMCOT_clean_sbu_1, # of connection points: 5
#     Node 12, Type 0, BuildingBlock: XOMCOT_clean_sbu_1, # of connection points: 5
#     Node 13, Type 0, BuildingBlock: XOMCOT_clean_sbu_1, # of connection points: 5
#     Node 14, Type 0, BuildingBlock: XOMCOT_clean_sbu_1, # of connection points: 5
#     Node 15, Type 0, BuildingBlock: XOMCOT_clean_sbu_1, # of connection points: 5
#     Edge 16, Type (0, 0), BuildingBlock: AJUNOK_clean_linker_0, # of connection points: 2
#     Edge 17, Type (0, 0), BuildingBlock: AJUNOK_clean_linker_0, # of connection points: 2
#     Edge 18, Type (0, 0), BuildingBlock: AJUNOK_clean_linker_0, # of connection points: 2
#     Edge 19, Type (0, 0), BuildingBlock: AJUNOK_clean_linker_0, # of connection points: 2
#     Edge 20, Type (0, 0), BuildingBlock: AJUNOK_clean_linker_0, # of connection points: 2
#     Edge 21, Type (0, 0), BuildingBlock: AJUNOK_clean_linker_0, # of connection points: 2
#     Edge 22, Type (0, 0), BuildingBlock: AJUNOK_clean_linker_0, # of connection points: 2
#     Edge 23, Type (0, 0), BuildingBlock: AJUNOK_clean_linker_0, # of connection points: 2
#     Edge 24, Type (0, 0), BuildingBlock: AJUNOK_clean_linker_0, # of connection points: 2
#     Edge 25, Type (0, 0), BuildingBlock: AJUNOK_clean_linker_0, # of connection points: 2
#     Edge 26, Type (0, 0), BuildingBlock: AJUNOK_clean_linker_0, # of connection points: 2
#     Edge 27, Type (0, 0), BuildingBlock: AJUNOK_clean_linker_0, # of connection points: 2
#     Edge 28, Type (0, 0), BuildingBlock: AJUNOK_clean_linker_0, # of connection points: 2
#     Edge 29, Type (0, 0), BuildingBlock: AJUNOK_clean_linker_0, # of connection points: 2
#     Edge 30, Type (0, 0), BuildingBlock: AJUNOK_clean_linker_0, # of connection points: 2
#     Edge 31, Type (0, 0), BuildingBlock: AJUNOK_clean_linker_0, # of connection points: 2
#     Edge 32, Type (0, 0), BuildingBlock: AJUNOK_clean_linker_0, # of connection points: 2
#     Edge 33, Type (0, 0), BuildingBlock: AJUNOK_clean_linker_0, # of connection points: 2
#     Edge 34, Type (0, 0), BuildingBlock: AJUNOK_clean_linker_0, # of connection points: 2
#     Edge 35, Type (0, 0), BuildingBlock: AJUNOK_clean_linker_0, # of connection points: 2
#     Edge 36, Type (0, 0), BuildingBlock: AJUNOK_clean_linker_0, # of connection points: 2
#     Edge 37, Type (0, 0), BuildingBlock: AJUNOK_clean_linker_0, # of connection points: 2
#     Edge 38, Type (0, 0), BuildingBlock: AJUNOK_clean_linker_0, # of connection points: 2
#     Edge 39, Type (0, 0), BuildingBlock: AJUNOK_clean_linker_0, # of connection points: 2
#     Edge 40, Type (0, 0), BuildingBlock: AJUNOK_clean_linker_0, # of connection points: 2
#     Edge 41, Type (0, 0), BuildingBlock: AJUNOK_clean_linker_0, # of connection points: 2
#     Edge 42, Type (0, 0), BuildingBlock: AJUNOK_clean_linker_0, # of connection points: 2
#     Edge 43, Type (0, 0), BuildingBlock: AJUNOK_clean_linker_0, # of connection points: 2
#     Edge 44, Type (0, 0), BuildingBlock: AJUNOK_clean_linker_0, # of connection points: 2
#     Edge 45, Type (0, 0), BuildingBlock: AJUNOK_clean_linker_0, # of connection points: 2
#     Edge 46, Type (0, 0), BuildingBlock: AJUNOK_clean_linker_0, # of connection points: 2
#     Edge 47, Type (0, 0), BuildingBlock: AJUNOK_clean_linker_0, # of connection points: 2
#     Edge 48, Type (0, 0), BuildingBlock: AJUNOK_clean_linker_0, # of connection points: 2
#     Edge 49, Type (0, 0), BuildingBlock: AJUNOK_clean_linker_0, # of connection points: 2
#     Edge 50, Type (0, 0), BuildingBlock: AJUNOK_clean_linker_0, # of connection points: 2
#     Edge 51, Type (0, 0), BuildingBlock: AJUNOK_clean_linker_0, # of connection points: 2
#     Edge 52, Type (0, 0), BuildingBlock: AJUNOK_clean_linker_0, # of connection points: 2
#     Edge 53, Type (0, 0), BuildingBlock: AJUNOK_clean_linker_0, # of connection points: 2
#     Edge 54, Type (0, 0), BuildingBlock: AJUNOK_clean_linker_0, # of connection points: 2
#     Edge 55, Type (0, 0), BuildingBlock: AJUNOK_clean_linker_0, # of connection points: 2
# Relax obj value: 0.475
# Max RMSD: 0.243
# Mean RMSD: 0.243
data_MOF--net-yfj--node1-XOMCOT_clean_sbu_1--edge1-AJUNOK_clean_linker_0
_symmetry_space_group_name_H-M    P1
_symmetry_Int_Tables_number       1
_symmetry_cell_setting            triclinic
loop_
_symmetry_equiv_pos_as_xyz
'x, y, z'
_cell_length_a     37.195726
_cell_length_b     37.248604
_cell_length_c     33.177559
_cell_angle_alpha  90.48516
_cell_angle_beta   89.86416
_cell_angle_gamma 90.333078
loop_
_atom_site_label
_atom_site_type_symbol
_atom_site_fract_x
_atom_site_fract_y
_atom_site_fract_z
_atom_type_partial_charge
C0 C 0.10161 0.10399 0.3819 0.0
C1 C 0.09464 0.0984 0.42213 0.0
N2 N 0.11177 0.12392 0.4441 0.0
N3 N 0.12251 0.13342 0.37793 0.0
C4 C 0.12871 0.1446 0.41636 0.0
H5 H 0.09245 0.08734 0.35706 0.0
Co6 Co 0.14321 0.15077 0.32943 0.0
C7 C 0.12694 0.23003 0.35218 0.0
O8 O 0.101 0.23453 0.32596 0.0
N9 N 0.16652 0.16676 0.28139 0.0
C10 C 0.19147 0.19808 0.23148 0.0
C11 C 0.16711 0.19895 0.26306 0.0
C12 C 0.19053 0.14675 0.25995 0.0
N13 N 0.2064 0.1652 0.22963 0.0
O14 O 0.1877 0.14478 0.35165 0.0
H15 H 0.1515 0.22194 0.27227 0.0
H16 H 0.1971 0.11931 0.26727 0.0
O17 O 0.14302 0.19979 0.3534 0.0
C18 C 0.19782 0.1125 0.35475 0.0
O19 O 0.17696 0.08606 0.34242 0.0
N20 N 0.09706 0.15305 0.30533 0.0
C21 C 0.03457 0.11383 0.28852 0.0
C22 C 0.03514 0.13941 0.31994 0.0
C23 C 0.06658 0.15958 0.32729 0.0
C24 C 0.09513 0.13191 0.27151 0.0
C25 C 0.06405 0.11238 0.26237 0.0
H26 H 0.06809 0.17552 0.35464 0.0
H27 H 0.11909 0.12547 0.25465 0.0
H28 H 0.14694 0.16632 0.42374 0.0
H29 H 0.07831 0.07687 0.43418 0.0
H30 H 0.19771 0.22005 0.21144 0.0
H31 H 1.01287 0.14125 0.34093 0.0
H32 H 0.06495 0.09277 0.23808 0.0
C33 C 0.91941 0.60232 0.62838 0.0
C34 C 0.92609 0.597 0.66876 0.0
N35 N 0.89941 0.61221 0.6903 0.0
N36 N 0.88803 0.61991 0.62424 0.0
C37 C 0.8768 0.62608 0.66269 0.0
H38 H 0.93644 0.59404 0.60355 0.0
Co39 Co 0.86737 0.63642 0.57536 0.0
C40 C 0.7907 0.61635 0.60565 0.0
O41 O 0.78521 0.58632 0.58549 0.0
N42 N 0.84736 0.65544 0.52727 0.0
C43 C 0.81549 0.66671 0.47195 0.0
C44 C 0.81861 0.64486 0.50534 0.0
C45 C 0.86094 0.68392 0.50675 0.0
N46 N 0.84215 0.69137 0.47301 0.0
O47 O 0.87097 0.68215 0.59528 0.0
H48 H 0.80133 0.62242 0.51276 0.0
H49 H 0.88482 0.69855 0.5158 0.0
O50 O 0.82009 0.63361 0.60085 0.0
C51 C 0.9029 0.69404 0.59684 0.0
O52 O 0.92949 0.67479 0.58225 0.0
N53 N 0.86742 0.58907 0.55381 0.0
C54 C 0.91248 0.53087 0.53841 0.0
C55 C 0.88843 0.5303 0.57127 0.0
C56 C 0.86517 0.55947 0.57783 0.0
C57 C 0.88642 0.58725 0.51857 0.0
C58 C 0.90845 0.55808 0.50995 0.0
H59 H 0.85055 0.56087 0.60601 0.0
H60 H 0.88923 0.61049 0.49962 0.0
H61 H 0.85261 0.64062 0.67039 0.0
H62 H 0.94913 0.58355 0.68141 0.0
H63 H 0.79509 0.66471 0.44882 0.0
H64 H 0.89041 0.50994 0.59422 0.0
H65 H 0.92558 0.55914 0.48352 0.0
C66 C 0.40441 0.42256 0.88373 0.0
C67 C 0.40965 0.43109 0.92364 0.0
N68 N 0.40648 0.40101 0.94586 0.0
N69 N 0.398 0.38711 0.87993 0.0
C70 C 0.39938 0.37461 0.9183 0.0
H71 H 0.40396 0.44128 0.85901 0.0
Co72 Co 0.38284 0.36528 0.83056 0.0
C73 C 0.4137 0.29151 0.85886 0.0
O74 O 0.44643 0.29183 0.84398 0.0
N75 N 0.36502 0.34471 0.78185 0.0
C76 C 0.3479 0.31017 0.72992 0.0
C77 C 0.36956 0.31239 0.76388 0.0
C78 C 0.3405 0.36135 0.75836 0.0
N79 N 0.32987 0.34127 0.72633 0.0
O80 O 0.33798 0.36073 0.85232 0.0
H81 H 0.38707 0.29159 0.77485 0.0
H82 H 0.33029 0.38786 0.76491 0.0
O83 O 0.39289 0.31803 0.8528 0.0
C84 C 0.32263 0.39085 0.85501 0.0
O85 O 0.33542 0.41787 0.83404 0.0
N86 N 0.42878 0.37381 0.8078 0.0
C87 C 0.47605 0.43149 0.79948 0.0
C88 C 0.48265 0.40494 0.82829 0.0
C89 C 0.45878 0.37565 0.83157 0.0
C90 C 0.42607 0.39601 0.77535 0.0
C91 C 0.44933 0.42511 0.77079 0.0
H92 H 0.46089 0.35872 0.85774 0.0
H93 H 0.40266 0.39538 0.75639 0.0
H94 H 0.39474 0.34679 0.92563 0.0
H95 H 0.41409 0.45793 0.9354 0.0
H96 H 0.34587 0.28759 0.70928 0.0
H97 H 0.50343 0.40878 0.85075 0.0
H98 H 0.44406 0.44455 0.74744 0.0
C99 C 0.59053 0.91547 0.13129 0.0
C100 C 0.58232 0.9229 0.171 0.0
N101 N 0.60729 0.90736 0.19425 0.0
N102 N 0.62156 0.89689 0.12947 0.0
C103 C 0.63017 0.89112 0.16843 0.0
H104 H 0.57497 0.92319 0.10537 0.0
Co105 Co 0.64533 0.87898 0.08334 0.0
C106 C 0.72267 0.89723 0.11277 0.0
O107 O 0.73101 0.91798 0.0823 0.0
N108 N 0.66671 0.85753 0.03704 0.0
C109 C 0.69952 0.82351 0.99548 0.0
C110 C 0.70058 0.84831 1.02686 0.0
C111 C 0.64585 0.83789 1.01143 0.0
N112 N 0.66488 0.81646 0.98612 0.0
O113 O 0.63876 0.83392 0.10263 0.0
H114 H 0.72447 0.85652 0.04292 0.0
H115 H 0.61684 0.83867 1.01258 0.0
O116 O 0.69178 0.88182 0.11375 0.0
C117 C 0.60738 0.82072 0.0997 0.0
O118 O 0.58076 0.83999 0.08578 0.0
N119 N 0.64884 0.92583 0.06176 0.0
C120 C 0.5985 0.97962 0.05271 0.0
C121 C 0.62429 0.98217 0.08359 0.0
C122 C 0.65031 0.95506 0.08697 0.0
C123 C 0.62977 0.92792 1.02676 0.0
C124 C 0.60402 0.95445 1.02187 0.0
H125 H 0.66587 0.95383 0.11443 0.0
H126 H 0.62923 0.90589 1.00561 0.0
H127 H 0.65239 0.87469 0.17766 0.0
H128 H 0.55963 0.93824 0.182 0.0
H129 H 0.7225 0.80996 0.98247 0.0
H130 H 0.62137 1.00163 0.10779 0.0
H131 H 0.58562 0.95253 0.99665 0.0
C132 C 0.14688 0.45567 0.93221 0.0
C133 C 0.14742 0.46209 0.89129 0.0
N134 N 0.15017 0.43037 0.87175 0.0
N135 N 0.14909 0.42004 0.93858 0.0
C136 C 0.15094 0.4054 0.90106 0.0
H137 H 0.14546 0.47574 0.95591 0.0
Co138 Co 0.15459 0.39809 0.98946 0.0
C139 C 0.12283 0.32487 0.95763 0.0
O140 O 0.09149 0.32369 0.97592 0.0
N141 N 0.16308 0.37724 0.04022 0.0
C142 C 0.17683 0.34027 0.09025 0.0
C143 C 0.15727 0.34409 0.05507 0.0
C144 C 0.18573 0.393 0.06712 0.0
N145 N 0.19488 0.37114 0.09758 0.0
O146 O 0.20143 0.39019 0.97737 0.0
H147 H 0.14173 0.32325 0.04028 0.0
H148 H 0.19721 0.41946 0.06304 0.0
O149 O 0.14387 0.35152 0.96404 0.0
C150 C 0.22286 0.41659 0.98003 0.0
O151 O 0.21103 0.448 0.99237 0.0
N152 N 0.10709 0.40919 1.0027 0.0
C153 C 0.05608 0.46308 1.00567 0.0
C154 C 0.05432 0.43657 0.97544 0.0
C155 C 0.08023 0.40932 0.97464 0.0
C156 C 0.10586 0.43203 0.03504 0.0
C157 C 0.08042 0.45907 0.03719 0.0
H158 H 0.08183 0.39201 0.94839 0.0
H159 H 0.12756 0.43311 0.05644 0.0
H160 H 0.15355 0.37702 0.89504 0.0
H161 H 0.14535 0.48803 0.87706 0.0
H162 H 0.17859 0.31622 0.10821 0.0
H163 H 0.03556 0.43894 0.95069 0.0
H164 H 0.08211 0.47889 0.06124 0.0
C165 C 0.58308 0.61712 0.18702 0.0
C166 C 0.57473 0.60818 0.14782 0.0
N167 N 0.60459 0.61162 0.12494 0.0
N168 N 0.61806 0.62643 0.18928 0.0
C169 C 0.63043 0.62296 0.15093 0.0
H170 H 0.56445 0.6183 0.21207 0.0
Co171 Co 0.64005 0.64678 0.23556 0.0
C172 C 0.71587 0.61874 0.20864 0.0
O173 O 0.72005 0.59053 0.2316 0.0
N174 N 0.66102 0.66927 0.2814 0.0
C175 C 0.6968 0.68887 0.33078 0.0
C176 C 0.69327 0.66471 0.29911 0.0
C177 C 0.64545 0.69612 0.30305 0.0
N178 N 0.66664 0.70869 0.33319 0.0
O179 O 0.64128 0.68975 0.20957 0.0
H180 H 0.71302 0.64516 0.28981 0.0
H181 H 0.61899 0.7065 0.29662 0.0
O182 O 0.68733 0.63743 0.21181 0.0
C183 C 0.61094 0.70456 0.20588 0.0
O184 O 0.58322 0.69253 0.22647 0.0
N185 N 0.63507 0.60301 0.26249 0.0
C186 C 0.58122 0.55217 0.27519 0.0
C187 C 0.60969 0.54493 0.2483 0.0
C188 C 0.63674 0.57085 0.24247 0.0
C189 C 0.61143 0.60738 0.29362 0.0
C190 C 0.58416 0.58242 0.3003 0.0
H191 H 0.65478 0.56758 0.21714 0.0
H192 H 0.60922 0.63292 0.30892 0.0
H193 H 0.65761 0.62967 0.14197 0.0
H194 H 0.5481 0.60162 0.13691 0.0
H195 H 0.71956 0.69118 0.35093 0.0
H196 H 0.60931 0.52114 0.22933 0.0
H197 H 0.56317 0.58916 0.3217 0.0
C198 C 0.40173 0.08244 0.43546 0.0
C199 C 0.40978 0.07396 0.39603 0.0
N200 N 0.40669 0.10385 0.37361 0.0
N201 N 0.39349 0.11754 0.43824 0.0
C202 C 0.39635 0.12979 0.39997 0.0
H203 H 0.40108 0.06402 0.46047 0.0
Co204 Co 0.37707 0.14041 0.48566 0.0
C205 C 0.40535 0.21552 0.45597 0.0
O206 O 0.43546 0.2198 0.4761 0.0
N207 N 0.35855 0.16243 0.53291 0.0
C208 C 0.3419 0.19993 0.58213 0.0
C209 C 0.36425 0.19532 0.54913 0.0
C210 C 0.33298 0.14754 0.55685 0.0
N211 N 0.3222 0.16978 0.58686 0.0
O212 O 0.33235 0.14233 0.46315 0.0
H213 H 0.38305 0.21494 0.53764 0.0
H214 H 0.32191 0.12095 0.55194 0.0
O215 O 0.38646 0.18718 0.4611 0.0
C216 C 0.31505 0.11294 0.46289 0.0
O217 O 0.3274 0.08527 0.48275 0.0
N218 N 0.42239 0.13463 0.50908 0.0
C219 C 0.47424 0.0819 0.51976 0.0
C220 C 0.47992 0.10983 0.49205 0.0
C221 C 0.45349 0.13621 0.48715 0.0
C222 C 0.41942 0.11124 0.54035 0.0
C223 C 0.44492 0.08462 0.5461 0.0
H224 H 0.45547 0.15383 0.46152 0.0
H225 H 0.39452 0.1089 0.55684 0.0
H226 H 0.39054 0.1571 0.39141 0.0
H227 H 0.41606 0.04741 0.38469 0.0
H228 H 0.34043 0.22355 0.60129 0.0
H229 H 0.50292 0.10958 0.472 0.0
H230 H 0.43931 0.06394 0.56804 0.0
C231 C 0.95355 0.88521 0.68622 0.0
C232 C 0.96563 0.88742 0.6472 0.0
N233 N 0.93704 0.88672 0.62221 0.0
N234 N 0.91745 0.88271 0.68632 0.0
C235 C 0.90807 0.88344 0.64686 0.0
H236 H 0.97012 0.88384 0.7129 0.0
Co237 Co 0.89143 0.87254 0.73339 0.0
C238 C 0.82046 0.90736 0.70234 0.0
O239 O 0.81786 0.93532 0.72653 0.0
N240 N 0.86706 0.85978 0.78091 0.0
C241 C 0.8286 0.84318 0.82899 0.0
C242 C 0.83301 0.86345 0.79446 0.0
C243 C 0.88255 0.83735 0.80754 0.0
N244 N 0.86003 0.82703 0.83722 0.0
O245 O 0.88347 0.8272 0.71404 0.0
H246 H 0.81223 0.87846 0.77956 0.0
H247 H 0.90967 0.82745 0.80416 0.0
O248 O 0.84684 0.88586 0.7061 0.0
C249 C 0.90988 0.80594 0.71407 0.0
O250 O 0.93939 0.81495 0.73342 0.0
N251 N 0.90254 0.9182 0.75345 0.0
C252 C 0.95543 0.9707 0.76398 0.0
C253 C 0.92784 0.97528 0.73551 0.0
C254 C 0.90171 0.94834 0.73034 0.0
C255 C 0.9262 0.91582 0.7846 0.0
C256 C 0.95283 0.94167 0.79036 0.0
H257 H 0.88429 0.94953 0.70439 0.0
H258 H 0.92826 0.89137 0.8015 0.0
H259 H 0.88066 0.88076 0.63634 0.0
H260 H 0.99357 0.88771 0.63816 0.0
H261 H 0.80406 0.84004 0.84624 0.0
H262 H 0.92804 0.99794 0.71531 0.0
H263 H 0.97341 0.93675 0.81264 0.0
C264 C 0.61714 0.57606 0.8892 0.0
C265 C 0.61092 0.5678 0.92895 0.0
N266 N 0.61449 0.598 0.95137 0.0
N267 N 0.62474 0.61133 0.88613 0.0
C268 C 0.6233 0.62393 0.92461 0.0
H269 H 0.61709 0.55734 0.86409 0.0
Co270 Co 0.63959 0.63345 0.83769 0.0
C271 C 0.61315 0.70688 0.87269 0.0
O272 O 0.57935 0.7057 0.86149 0.0
N273 N 0.65713 0.65438 0.78962 0.0
C274 C 0.6737 0.69025 0.73938 0.0
C275 C 0.65302 0.68743 0.77399 0.0
C276 C 0.68022 0.63773 0.76394 0.0
N277 N 0.69082 0.65886 0.73315 0.0
O278 O 0.68538 0.63372 0.85734 0.0
H279 H 0.6364 0.70826 0.78698 0.0
H280 H 0.68942 0.61051 0.76793 0.0
O281 O 0.63427 0.68119 0.86332 0.0
C282 C 0.70127 0.60374 0.85649 0.0
O283 O 0.68719 0.57651 0.83654 0.0
N284 N 0.59216 0.62908 0.81667 0.0
C285 C 0.54219 0.57396 0.80482 0.0
C286 C 0.53822 0.59817 0.83718 0.0
C287 C 0.56323 0.62631 0.84212 0.0
C288 C 0.59211 0.60977 0.78141 0.0
C289 C 0.56759 0.58191 0.77512 0.0
H290 H 0.56292 0.64097 0.87034 0.0
H291 H 0.61422 0.61135 0.76056 0.0
H292 H 0.62924 0.65144 0.93306 0.0
H293 H 0.60571 0.54119 0.94045 0.0
H294 H 0.67567 0.71349 0.72011 0.0
H295 H 0.51869 0.59314 0.86075 0.0
H296 H 0.57084 0.56446 0.74908 0.0
C297 C 0.44947 0.11939 0.1402 0.0
C298 C 0.4566 0.11371 0.18028 0.0
N299 N 0.42559 0.11627 0.20124 0.0
N300 N 0.41413 0.12579 0.13548 0.0
C301 C 0.40033 0.1241 0.17333 0.0
H302 H 0.46897 0.11969 0.11601 0.0
Co303 Co 0.39299 0.13868 0.08583 0.0
C304 C 0.31637 0.11372 0.11642 0.0
O305 O 0.31254 0.08195 0.09943 0.0
N306 N 0.37299 0.15405 0.03642 0.0
C307 C 0.34236 0.16226 0.97967 0.0
C308 C 0.344 0.1431 1.01525 0.0
C309 C 0.38833 0.17974 1.01317 0.0
N310 N 0.37037 0.1855 0.97844 0.0
O311 O 0.39108 0.18491 0.10401 0.0
H312 H 0.32578 0.12197 1.02447 0.0
H313 H 0.41277 0.19376 1.02135 0.0
O314 O 0.34507 0.13182 0.10989 0.0
C315 C 0.42102 0.20127 0.10336 0.0
O316 O 0.44968 0.18544 0.08856 0.0
N317 N 0.39911 0.09138 0.066 0.0
C318 C 0.45605 0.04379 0.05879 0.0
C319 C 0.42996 0.03888 0.08898 0.0
C320 C 0.4008 0.06277 0.09153 0.0
C321 C 0.42068 0.09206 1.03258 0.0
C322 C 0.44939 0.06861 1.02855 0.0
H323 H 0.3838 0.06204 0.11801 0.0
H324 H 0.42018 0.1143 1.01209 0.0
H325 H 0.37236 0.12876 0.18047 0.0
H326 H 0.48296 0.10936 0.19298 0.0
H327 H 0.32271 0.15826 0.95607 0.0
H328 H 0.434 0.01939 0.11256 0.0
H329 H 0.46848 0.07247 1.0042 0.0
C330 C 0.93259 0.92638 0.39143 0.0
C331 C 0.94204 0.92935 0.43103 0.0
N332 N 0.93584 0.89774 0.44893 0.0
N333 N 0.91987 0.89295 0.38317 0.0
C334 C 0.92241 0.87612 0.41937 0.0
H335 H 0.93286 0.94879 0.37112 0.0
Co336 Co 0.89538 0.87805 0.33433 0.0
C337 C 0.88242 0.80295 0.35882 0.0
O338 O 0.9048 0.79343 0.33007 0.0
N339 N 0.87031 0.86426 0.28649 0.0
C340 C 0.86142 0.84168 0.22492 0.0
C341 C 0.88392 0.84233 0.2579 0.0
C342 C 0.8393 0.87669 0.26993 0.0
N343 N 0.83325 0.86349 0.23215 0.0
O344 O 0.85488 0.90411 0.35301 0.0
H345 H 0.90948 0.82884 0.26015 0.0
H346 H 0.82267 0.89677 0.28433 0.0
O347 O 0.87513 0.83627 0.36361 0.0
C348 C 0.84575 0.93466 0.36696 0.0
O349 O 0.86768 0.96234 0.36655 0.0
N350 N 0.91581 0.91749 0.30571 0.0
C351 C 0.95175 0.98068 0.2853 0.0
C352 C 0.97104 0.94962 0.29476 0.0
C353 C 0.95247 0.91785 0.30371 0.0
C354 C 0.89689 0.94555 0.29024 0.0
C355 C 0.91441 0.97781 0.28048 0.0
H356 H 0.96733 0.89475 0.31388 0.0
H357 H 0.86794 0.94445 0.28866 0.0
H358 H 0.91368 0.84893 0.42448 0.0
H359 H 0.95037 0.95391 0.44604 0.0
H360 H 0.86601 0.82681 0.19724 0.0
H361 H 1.00003 0.95053 0.29772 0.0
H362 H 0.89865 1.00095 0.27219 0.0
C363 C 0.10304 0.40096 0.64532 0.0
C364 C 0.10052 0.40602 0.68611 0.0
N365 N 0.13366 0.41209 0.70071 0.0
N366 N 0.13775 0.40376 0.63331 0.0
C367 C 0.15585 0.41099 0.66814 0.0
H368 H 0.08083 0.39368 0.62587 0.0
Co369 Co 0.1523 0.39021 0.57977 0.0
C370 C 0.22273 0.38461 0.60788 0.0
O371 O 0.22338 0.41727 0.59324 0.0
N372 N 0.1654 0.37499 0.52684 0.0
C373 C 0.17295 0.37815 0.46032 0.0
C374 C 0.17342 0.39721 0.49622 0.0
C375 C 0.16133 0.34223 0.50875 0.0
N376 N 0.16485 0.34356 0.46813 0.0
O377 O 0.124 0.34832 0.58616 0.0
H378 H 0.17679 0.42595 0.49947 0.0
H379 H 0.15348 0.31818 0.52452 0.0
O380 O 0.19417 0.36594 0.60244 0.0
C381 C 0.10326 0.32124 0.58452 0.0
O382 O 0.08479 0.31432 0.55163 0.0
N383 N 0.11243 0.41549 0.55841 0.0
C384 C 0.04818 0.4519 0.54396 0.0
C385 C 0.07676 0.46881 0.5644 0.0
C386 C 0.10884 0.45032 0.57072 0.0
C387 C 0.08655 0.39998 0.53475 0.0
C388 C 0.05403 0.41757 0.52753 0.0
H389 H 0.13004 0.46301 0.58809 0.0
H390 H 0.09056 0.37366 0.52199 0.0
H391 H 0.18477 0.41296 0.67024 0.0
H392 H 0.07622 0.40405 0.70402 0.0
H393 H 0.17668 0.38927 0.43056 0.0
H394 H 0.07384 0.49556 0.57697 0.0
H395 H 0.03354 0.40425 0.50963 0.0
C396 C 0.61659 0.94663 0.42804 0.0
C397 C 0.60731 0.95113 0.38829 0.0
N398 N 0.62051 0.9234 0.36645 0.0
N399 N 0.63493 0.91577 0.43172 0.0
C400 C 0.63761 0.90269 0.39365 0.0
H401 H 0.61012 0.96456 0.45279 0.0
Co402 Co 0.6542 0.89631 0.47911 0.0
C403 C 0.63057 0.81899 0.4525 0.0
O404 O 0.60179 0.81477 0.47502 0.0
N405 N 0.67541 0.87737 0.52619 0.0
C406 C 0.69367 0.84339 0.57703 0.0
C407 C 0.67085 0.84538 0.54431 0.0
C408 C 0.70094 0.89434 0.54861 0.0
N409 N 0.71245 0.87436 0.57989 0.0
O410 O 0.69919 0.89838 0.45607 0.0
H411 H 0.65231 0.8247 0.53448 0.0
H412 H 0.71131 0.92077 0.54163 0.0
O413 O 0.64882 0.84808 0.45511 0.0
C414 C 0.71308 0.92946 0.4533 0.0
O415 O 0.69498 0.9578 0.46529 0.0
N416 N 0.60866 0.89825 0.50381 0.0
C417 C 0.55249 0.9459 0.51811 0.0
C418 C 0.54845 0.91756 0.49006 0.0
C419 C 0.57708 0.89374 0.4833 0.0
C420 C 0.61031 0.92161 0.53566 0.0
C421 C 0.58263 0.94566 0.54326 0.0
H422 H 0.57596 0.87629 0.45715 0.0
H423 H 0.63532 0.92632 0.55122 0.0
H424 H 0.65303 0.87908 0.38614 0.0
H425 H 0.59175 0.97315 0.37659 0.0
H426 H 0.69602 0.82098 0.59741 0.0
H427 H 0.52501 0.91588 0.47085 0.0
H428 H 0.58711 0.96671 0.56543 0.0
C429 C 0.08504 0.12327 0.67959 0.0
C430 C 0.07937 0.11607 0.63928 0.0
N431 N 0.10632 0.13109 0.618 0.0
N432 N 0.11601 0.14193 0.68399 0.0
C433 C 0.12808 0.14673 0.64573 0.0
H434 H 0.06763 0.11543 0.70419 0.0
Co435 Co 0.1356 0.15988 0.73296 0.0
C436 C 0.21293 0.13753 0.70766 0.0
O437 O 0.21705 0.10963 0.73113 0.0
N438 N 0.15448 0.17977 0.78141 0.0
C439 C 0.18867 0.19688 0.83325 0.0
C440 C 0.18623 0.17448 0.79996 0.0
C441 C 0.13798 0.20521 0.80438 0.0
N442 N 0.15829 0.21629 0.83596 0.0
O443 O 0.13357 0.20527 0.71228 0.0
H444 H 0.20651 0.15579 0.79004 0.0
H445 H 0.11174 0.21595 0.79759 0.0
O446 O 0.18375 0.15543 0.70915 0.0
C447 C 0.10213 0.21809 0.70989 0.0
O448 O 0.07442 0.19935 0.72275 0.0
N449 N 0.13375 0.11383 0.75506 0.0
C450 C 0.08835 0.05523 0.76691 0.0
C451 C 0.11693 0.05309 0.73908 0.0
C452 C 0.1394 0.08303 0.73333 0.0
C453 C 0.11008 0.11393 0.7865 0.0
C454 C 0.08713 0.08499 0.79291 0.0
H455 H 0.15689 0.08327 0.70729 0.0
H456 H 0.10442 0.13849 0.80269 0.0
H457 H 0.15237 0.16141 0.63831 0.0
H458 H 0.05683 0.10145 0.62649 0.0
H459 H 0.21103 0.19858 0.85402 0.0
H460 H 0.11972 0.03004 0.71926 0.0
H461 H 0.06575 0.08807 0.81486 0.0
C462 C 0.90859 0.59116 0.92652 0.0
C463 C 0.91338 0.58407 0.88613 0.0
N464 N 0.8978 0.61031 0.86454 0.0
N465 N 0.89078 0.6223 0.93109 0.0
C466 C 0.88403 0.63304 0.89281 0.0
H467 H 0.91723 0.57444 0.95113 0.0
Co468 Co 0.87444 0.64205 0.98096 0.0
C469 C 0.8936 0.71862 0.95639 0.0
O470 O 0.92129 0.7217 0.98068 0.0
N471 N 0.85546 0.66052 1.0302 0.0
C472 C 0.83566 0.69364 0.08186 0.0
C473 C 0.85699 0.69335 0.04767 0.0
C474 C 0.83322 0.64141 0.0546 0.0
N475 N 0.82081 0.66082 0.08632 0.0
O476 O 0.82838 0.63592 0.96323 0.0
H477 H 0.87192 0.71598 0.0362 0.0
H478 H 0.82542 0.6139 0.04847 0.0
O479 O 0.87491 0.68975 0.95632 0.0
C480 C 0.81785 0.60348 0.96359 0.0
O481 O 0.83925 0.57809 0.97638 0.0
N482 N 0.92208 0.64447 1.00045 0.0
C483 C 0.97943 0.59813 1.0086 0.0
C484 C 0.97961 0.62361 0.97767 0.0
C485 C 0.95068 0.64746 0.97462 0.0
C486 C 0.92548 0.62486 0.03481 0.0
C487 C 0.95405 0.60144 0.03945 0.0
H488 H 0.94816 0.66282 0.94726 0.0
H489 H 0.90342 0.62206 0.05564 0.0
H490 H 0.8678 0.65618 0.88608 0.0
H491 H 0.92727 0.56102 0.87379 0.0
H492 H 0.83127 0.71635 0.10181 0.0
H493 H 0.99907 0.62207 0.9534 0.0
H494 H 0.9537 0.58284 0.0644 0.0
C495 C 0.43815 0.40961 0.18211 0.0
C496 C 0.44504 0.41382 0.1416 0.0
N497 N 0.41616 0.40233 0.12052 0.0
N498 N 0.40472 0.39615 0.18701 0.0
C499 C 0.39204 0.39189 0.14889 0.0
H500 H 0.4568 0.41485 0.20645 0.0
Co501 Co 0.38489 0.37919 0.23613 0.0
C502 C 0.30815 0.40589 0.21311 0.0
O503 O 0.3057 0.43503 0.23551 0.0
N504 N 0.36602 0.35977 0.28454 0.0
C505 C 0.33251 0.34217 0.33662 0.0
C506 C 0.33436 0.36469 0.3037 0.0
C507 C 0.38291 0.3344 0.3066 0.0
N508 N 0.36314 0.32307 0.33833 0.0
O509 O 0.38291 0.33451 0.21363 0.0
H510 H 0.31378 0.38316 0.2944 0.0
H511 H 0.40922 0.324 0.29922 0.0
O512 O 0.33662 0.38697 0.21455 0.0
C513 C 0.41346 0.31984 0.21109 0.0
O514 O 0.44134 0.33516 0.22855 0.0
N515 N 0.39077 0.42479 0.25992 0.0
C516 C 0.44172 0.47874 0.27293 0.0
C517 C 0.41401 0.48339 0.24459 0.0
C518 C 0.38842 0.45593 0.23863 0.0
C519 C 0.41396 0.42265 0.29162 0.0
C520 C 0.43952 0.44927 0.29866 0.0
H521 H 0.37082 0.45737 0.21281 0.0
H522 H 0.4171 0.39791 0.30775 0.0
H523 H 0.36587 0.38061 0.14216 0.0
H524 H 0.47003 0.42333 0.12861 0.0
H525 H 0.31046 0.3403 0.35786 0.0
H526 H 0.41396 0.50639 0.22486 0.0
H527 H 0.46008 0.44438 0.32099 0.0
C528 C 0.10707 0.09556 0.51143 0.0
C529 C 0.11282 0.1265 0.48792 0.0
C530 C 0.10557 0.09728 0.5537 0.0
C531 C 0.11048 0.12986 0.57465 0.0
H532 H 0.10353 0.06958 0.49714 0.0
H533 H 0.10049 0.07284 0.57029 0.0
S534 S 0.12602 0.21902 0.52877 0.0
N535 N 0.12286 0.19126 0.4898 0.0
N536 N 0.12134 0.1939 0.56927 0.0
C537 C 0.11714 0.16094 0.55202 0.0
C538 C 0.11805 0.15941 0.50873 0.0
C539 C 0.89917 0.57994 0.79749 0.0
C540 C 0.89556 0.61175 0.82066 0.0
C541 C 0.89988 0.58037 0.75517 0.0
C542 C 0.89605 0.61244 0.73375 0.0
H543 H 0.90169 0.55422 0.81204 0.0
H544 H 0.90345 0.55531 0.73892 0.0
S545 S 0.88537 0.70335 0.77824 0.0
N546 N 0.88836 0.67674 0.81768 0.0
N547 N 0.88796 0.67687 0.73815 0.0
C548 C 0.89127 0.64437 0.75595 0.0
C549 C 0.89135 0.64418 0.79931 0.0
C550 C 0.43022 0.42718 0.05322 0.0
C551 C 0.41309 0.40094 0.07684 0.0
C552 C 0.42841 0.4264 1.01094 0.0
C553 C 0.40925 0.39939 0.98974 0.0
H554 H 0.44501 0.44887 0.06759 0.0
H555 H 0.44251 0.44731 0.9948 0.0
S556 S 0.36185 0.32238 0.03756 0.0
N557 N 0.37819 0.34567 0.07593 0.0
N558 N 0.37392 0.34447 0.99671 0.0
C559 C 0.39252 0.3724 1.01308 0.0
C560 C 0.39449 0.37323 0.05641 0.0
C561 C 0.61156 0.94807 0.29804 0.0
C562 C 0.61764 0.9183 0.32311 0.0
C563 C 0.6078 0.94414 0.2562 0.0
C564 C 0.61062 0.9104 0.23739 0.0
H565 H 0.61 0.97488 0.31065 0.0
H566 H 0.60329 0.96781 0.23822 0.0
S567 S 0.62478 0.82337 0.28799 0.0
N568 N 0.62454 0.85318 0.32513 0.0
N569 N 0.61909 0.84648 0.24625 0.0
C570 C 0.61689 0.88035 0.26156 0.0
C571 C 0.62004 0.88412 0.30441 0.0
C572 C 0.12507 0.39128 0.77059 0.0
C573 C 0.14236 0.41438 0.74313 0.0
C574 C 0.12887 0.39584 0.81242 0.0
C575 C 0.14965 0.42409 0.82863 0.0
H576 H 0.10781 0.36988 0.75954 0.0
H577 H 0.11423 0.37801 0.83226 0.0
S578 S 0.20351 0.48965 0.76992 0.0
N579 N 0.18336 0.4647 0.73517 0.0
N580 N 0.19037 0.47357 0.81388 0.0
C581 C 0.16839 0.44643 0.80156 0.0
C582 C 0.16488 0.44143 0.75883 0.0
C583 C 0.63336 0.6257 1.01653 0.0
C584 C 0.61149 0.60129 0.99489 0.0
C585 C 0.63142 0.6285 0.05885 0.0
C586 C 0.60733 0.60727 0.08146 0.0
H587 H 0.65252 0.64245 1.0007 0.0
H588 H 0.64866 0.6478 0.07389 0.0
S589 S 0.54427 0.53891 0.03947 0.0
N590 N 0.56448 0.55585 0.99954 0.0
N591 N 0.56199 0.56 0.07865 0.0
C592 C 0.58553 0.58255 0.06016 0.0
C593 C 0.58734 0.57984 1.01711 0.0
C594 C 0.39079 0.13052 0.30752 0.0
C595 C 0.41195 0.10696 0.33042 0.0
C596 C 0.39505 0.13318 0.26542 0.0
C597 C 0.42083 0.11258 0.24446 0.0
H598 H 0.37042 0.1467 0.32216 0.0
H599 H 0.37834 0.15188 0.24927 0.0
S600 S 0.48313 0.04686 0.29023 0.0
N601 N 0.46026 0.06328 0.32879 0.0
N602 N 0.46715 0.06707 0.25005 0.0
C603 C 0.44203 0.08883 0.26703 0.0
C604 C 0.43785 0.0863 0.30981 0.0
C605 C 0.91174 0.87194 0.51258 0.0
C606 C 0.93844 0.89149 0.49188 0.0
C607 C 0.91141 0.8703 0.55507 0.0
C608 C 0.93777 0.88815 0.57849 0.0
H609 H 0.8903 0.85885 0.49593 0.0
H610 H 0.89029 0.85505 0.56966 0.0
S611 S 0.01429 0.94187 0.53851 0.0
N612 N 0.99311 0.92707 0.49799 0.0
N613 N 0.99126 0.92608 0.57709 0.0
C614 C 0.9649 0.90724 0.5579 0.0
C615 C 0.96554 0.90835 0.51489 0.0
C616 C 0.25822 0.10635 0.15602 0.0
C617 C 0.28827 0.12772 0.14543 0.0
C618 C 0.23196 0.11848 0.18376 0.0
C619 C 0.23414 0.15277 0.20185 0.0
H620 H 0.25492 0.07981 0.14292 0.0
H621 H 0.20941 0.10106 0.19067 0.0
S622 S 0.30814 0.21874 0.18715 0.0
N623 N 0.31897 0.18477 0.15734 0.0
N624 N 0.26976 0.20726 0.20875 0.0
C625 C 0.26408 0.17434 0.19195 0.0
C626 C 0.29101 0.16192 0.16404 0.0
C627 C 0.85658 0.75493 0.45677 0.0
C628 C 0.84972 0.7194 0.44397 0.0
C629 C 0.86519 0.78223 0.42901 0.0
C630 C 0.8685 0.77497 0.38736 0.0
H631 H 0.85526 0.76164 0.48856 0.0
H632 H 0.87045 0.80889 0.44063 0.0
S633 S 0.85209 0.68643 0.33824 0.0
N634 N 0.84532 0.67879 0.38665 0.0
N635 N 0.86278 0.72941 0.33486 0.0
C636 C 0.86116 0.73957 0.37424 0.0
C637 C 0.85147 0.71204 0.40237 0.0
C638 C 0.27879 0.32701 0.67997 0.0
C639 C 0.30471 0.35146 0.695 0.0
C640 C 0.25292 0.33751 0.65123 0.0
C641 C 0.25209 0.37273 0.6359 0.0
H642 H 0.27789 0.29986 0.69133 0.0
H643 H 0.23312 0.31799 0.64131 0.0
S644 S 0.31652 0.44594 0.66284 0.0
N645 N 0.32944 0.41164 0.69027 0.0
N646 N 0.28148 0.43141 0.63689 0.0
C647 C 0.27883 0.39695 0.6498 0.0
C648 C 0.30485 0.38634 0.67915 0.0
C649 C 0.67135 0.77958 0.92328 0.0
C650 C 0.65135 0.78927 0.95793 0.0
C651 C 0.65897 0.75305 0.89585 0.0
C652 C 0.62572 0.73548 0.9014 0.0
H653 H 0.69676 0.79275 0.91713 0.0
H654 H 0.6754 0.74652 0.86981 0.0
S655 S 0.56513 0.74667 0.98948 0.0
N656 N 0.59813 0.77553 0.998 0.0
N657 N 0.57446 0.7274 0.94573 0.0
C658 C 0.60574 0.74433 0.93609 0.0
C659 C 0.6186 0.77074 0.96445 0.0
C660 C 0.22308 0.41157 0.1484 0.0
C661 C 0.22207 0.37834 0.12789 0.0
C662 C 0.2504 0.41989 0.17642 0.0
C663 C 0.27838 0.39559 0.18464 0.0
H664 H 0.20251 0.43132 0.14266 0.0
H665 H 0.24987 0.44592 0.19119 0.0
S666 S 0.28872 0.30531 0.13729 0.0
N667 N 0.25176 0.32132 0.1169 0.0
N668 N 0.30304 0.33659 0.16906 0.0
C669 C 0.27758 0.36218 0.1641 0.0
C670 C 0.24951 0.35366 0.13594 0.0
C671 C 0.61552 0.76432 0.40995 0.0
C672 C 0.64072 0.79076 0.422 0.0
C673 C 0.62397 0.73806 0.38061 0.0
C674 C 0.65821 0.73656 0.36253 0.0
H675 H 0.58879 0.76407 0.42295 0.0
H676 H 0.60369 0.71835 0.37246 0.0
S677 S 0.73384 0.79974 0.38211 0.0
N678 N 0.70145 0.81396 0.41228 0.0
N679 N 0.71722 0.76444 0.35793 0.0
C680 C 0.68368 0.76276 0.37412 0.0
C681 C 0.67496 0.78986 0.40354 0.0
C682 C 0.2684 0.12205 0.66721 0.0
C683 C 0.24132 0.14696 0.67732 0.0
C684 C 0.2945 0.12958 0.63756 0.0
C685 C 0.29515 0.16261 0.61729 0.0
H686 H 0.26919 0.09619 0.68184 0.0
H687 H 0.31461 0.10953 0.63067 0.0
S688 S 0.23019 0.23687 0.63133 0.0
N689 N 0.21673 0.20606 0.66359 0.0
N690 N 0.266 0.22013 0.60862 0.0
C691 C 0.26847 0.18785 0.62711 0.0
C692 C 0.24155 0.18004 0.65684 0.0
C693 C 0.85181 0.74732 0.90634 0.0
C694 C 0.88472 0.74793 0.9275 0.0
C695 C 0.84338 0.77378 0.87783 0.0
C696 C 0.86774 0.80161 0.86876 0.0
H697 H 0.83238 0.72608 0.91161 0.0
H698 H 0.81806 0.77187 0.86189 0.0
S699 S 0.95684 0.81662 0.91604 0.0
N700 N 0.94131 0.77991 0.93771 0.0
N701 N 0.92545 0.82903 0.88404 0.0
C702 C 0.90043 0.80287 0.8899 0.0
C703 C 0.90889 0.77626 0.91926 0.0
C704 C 0.713 0.61539 0.6818 0.0
C705 C 0.71523 0.64937 0.70061 0.0
C706 C 0.73678 0.60535 0.65058 0.0
C707 C 0.76431 0.62861 0.63718 0.0
H708 H 0.6925 0.59646 0.69119 0.0
H709 H 0.73387 0.57881 0.63737 0.0
S710 S 0.78243 0.72039 0.67771 0.0
N711 N 0.74752 0.70611 0.70407 0.0
N712 N 0.79227 0.68748 0.64598 0.0
C713 C 0.76682 0.66275 0.65593 0.0
C714 C 0.74231 0.67306 0.68739 0.0
C715 C 0.41697 0.21933 0.94007 0.0
C716 C 0.38047 0.21052 0.94676 0.0
C717 C 0.42751 0.24454 0.91083 0.0
C718 C 0.40205 0.26251 0.88713 0.0
H719 H 0.43775 0.20659 0.95755 0.0
H720 H 0.45586 0.25065 0.90755 0.0
S721 S 0.30328 0.24777 0.8902 0.0
N722 N 0.31893 0.22114 0.92551 0.0
N723 N 0.33873 0.26812 0.87068 0.0
C724 C 0.36554 0.25345 0.89275 0.0
C725 C 0.35478 0.22757 0.92237 0.0
C726 C 0.81243 0.87252 0.16146 0.0
C727 C 0.80521 0.87288 0.20334 0.0
C728 C 0.78584 0.88081 0.13276 0.0
C729 C 0.75048 0.88948 0.14433 0.0
H730 H 0.83907 0.86608 0.15056 0.0
H731 H 0.79295 0.8799 0.10109 0.0
S732 S 0.71749 0.89678 0.24988 0.0
N733 N 0.75967 0.88389 0.2546 0.0
N734 N 0.71049 0.90053 0.20096 0.0
C735 C 0.74299 0.89076 0.18602 0.0
C736 C 0.77008 0.88231 0.21536 0.0
C737 C 0.15982 0.2532 0.41449 0.0
C738 C 0.13694 0.25974 0.38137 0.0
C739 C 0.16856 0.2804 0.44289 0.0
C740 C 0.15557 0.31563 0.43897 0.0
H741 H 0.17096 0.22674 0.41883 0.0
H742 H 0.186 0.27396 0.46786 0.0
S743 S 0.09416 0.34732 0.35892 0.0
N744 N 0.10098 0.30469 0.34743 0.0
N745 N 0.1178 0.3553 0.4001 0.0
C746 C 0.13279 0.32262 0.40615 0.0
C747 C 0.12343 0.29491 0.37761 0.0
C748 C 0.76431 0.85763 0.62265 0.0
C749 C 0.73947 0.88351 0.60983 0.0
C750 C 0.79044 0.86572 0.65209 0.0
C751 C 0.79254 0.89991 0.67068 0.0
H752 H 0.76377 0.83094 0.60949 0.0
H753 H 0.80891 0.84474 0.66061 0.0
S754 S 0.73307 0.97705 0.64837 0.0
N755 N 0.71839 0.94466 0.61824 0.0
N756 N 0.76696 0.95986 0.67369 0.0
C757 C 0.76767 0.926 0.65818 0.0
C758 C 0.74137 0.91785 0.62776 0.0
C759 C 0.10756 0.27028 0.91464 0.0
C760 C 0.1328 0.29667 0.92687 0.0
C761 C 0.11579 0.24445 0.88466 0.0
C762 C 0.14976 0.24357 0.8659 0.0
H763 H 0.081 0.26965 0.92807 0.0
H764 H 0.09559 0.22469 0.87644 0.0
S765 S 0.22481 0.30749 0.88426 0.0
N766 N 0.19325 0.32041 0.91617 0.0
N767 N 0.20808 0.27238 0.85994 0.0
C768 C 0.17512 0.26981 0.87742 0.0
C769 C 0.16683 0.29615 0.90779 0.0
C770 C 0.76828 0.67339 0.13053 0.0
C771 C 0.79528 0.64975 0.11708 0.0
C772 C 0.74298 0.66312 0.15997 0.0
C773 C 0.74373 0.62887 0.17786 0.0
H774 H 0.76634 0.69993 0.11768 0.0
H775 H 0.7227 0.68239 0.1689 0.0
S776 S 0.80991 0.5573 0.1542 0.0
N777 N 0.82174 0.59078 0.12457 0.0
N778 N 0.77457 0.57148 0.17987 0.0
C779 C 0.77093 0.60511 0.16496 0.0
C780 C 0.79647 0.61549 0.13461 0.0
C781 C 0.40789 0.29561 0.38403 0.0
C782 C 0.37298 0.29622 0.36771 0.0
C783 C 0.41791 0.26989 0.41281 0.0
C784 C 0.39366 0.24316 0.42605 0.0
H785 H 0.4275 0.31551 0.3748 0.0
H786 H 0.44508 0.2708 0.42442 0.0
S787 S 0.29928 0.23206 0.39095 0.0
N788 N 0.31439 0.26728 0.36605 0.0
N789 N 0.33297 0.21887 0.41945 0.0
C790 C 0.3587 0.2433 0.40946 0.0
C791 C 0.34843 0.2698 0.38058 0.0
C792 C 1.00605 0.06117 0.3223 0.0
C793 C 1.00834 0.08338 0.28825 0.0
C794 C 0.98748 0.02825 0.32092 0.0
C795 C 0.97002 0.01637 0.28562 0.0
H796 H 0.02022 0.06844 0.34971 0.0
H797 H 0.98716 1.01169 0.34761 0.0
S798 S 0.96591 0.06533 0.18901 0.0
N799 N 0.99041 0.09165 0.21859 0.0
N800 N 0.95462 0.03016 0.21643 0.0
C801 C 0.97076 0.0389 0.25187 0.0
C802 C 0.99021 0.07223 0.25305 0.0
C803 C 1.01163 0.50678 0.53018 0.0
C804 C 1.01271 0.47024 0.54022 0.0
C805 C 0.97912 0.52551 0.52902 0.0
C806 C 0.94591 0.50863 0.53759 0.0
H807 H 0.03625 0.52125 0.52347 0.0
H808 H 0.98029 0.55391 0.52234 0.0
S809 S 0.93373 0.41307 0.56535 0.0
N810 N 0.97759 0.41768 0.55922 0.0
N811 N 0.91627 0.45279 0.55588 0.0
C812 C 0.94646 0.47193 0.54723 0.0
C813 C 0.97979 0.45277 0.54859 0.0
C814 C 0.53014 0.47234 0.79974 0.0
C815 C 0.49275 0.46779 0.80247 0.0
C816 C 0.54568 0.50682 0.80055 0.0
C817 C 0.52448 0.53799 0.80469 0.0
H818 H 0.54737 0.44918 0.7962 0.0
H819 H 0.57466 0.50912 0.79807 0.0
S820 S 0.42543 0.54024 0.81579 0.0
N821 N 0.43495 0.49713 0.81133 0.0
N822 N 0.46433 0.56174 0.8132 0.0
C823 C 0.48718 0.53367 0.80868 0.0
C824 C 0.4713 0.49864 0.8074 0.0
C825 C 0.49671 0.99031 0.05609 0.0
C826 C 0.49227 0.0274 0.061 0.0
C827 C 0.53123 0.97535 0.05364 0.0
C828 C 0.56259 0.99687 0.05646 0.0
H829 H 0.47342 0.97292 0.05293 0.0
H830 H 0.53337 0.94658 0.04934 0.0
S831 S 0.56509 0.09536 0.07225 0.0
N832 N 0.52182 0.08528 0.07044 0.0
N833 N 0.5866 0.05697 0.06641 0.0
C834 C 0.5584 0.03384 0.0629 0.0
C835 C 0.52327 0.04913 0.06493 0.0
C836 C 0.99913 0.49831 1.00526 0.0
C837 C 0.03666 0.49739 1.00221 0.0
C838 C 0.98102 0.53118 1.00673 0.0
C839 C 0.99983 0.56419 1.00496 0.0
H840 H 0.98384 0.47358 1.00779 0.0
H841 H 0.952 0.53079 1.00965 0.0
S842 S 0.09816 0.57573 0.99318 0.0
N843 N 0.09202 0.5318 0.99475 0.0
N844 N 0.05777 0.59364 0.99742 0.0
C845 C 0.03722 0.5635 1.00009 0.0
C846 C 0.05569 0.53005 0.99886 0.0
C847 C 0.49283 0.50958 0.3089 0.0
C848 C 0.47571 0.50034 0.27239 0.0
C849 C 0.52736 0.5249 0.30953 0.0
C850 C 0.54632 0.53209 0.27367 0.0
H851 H 0.47961 0.50447 0.33742 0.0
H852 H 0.5393 0.53119 0.33851 0.0
S853 S 0.51328 0.51409 0.16974 0.0
N854 N 0.4807 0.49932 0.19922 0.0
N855 N 0.54452 0.53013 0.20032 0.0
C856 C 0.5293 0.52359 0.23684 0.0
C857 C 0.49426 0.50748 0.23621 0.0
C858 C 0.52077 0.99645 0.55395 0.0
C859 C 0.52951 0.97874 0.51755 0.0
C860 C 0.5042 0.03019 0.55433 0.0
C861 C 0.49517 0.04774 0.51833 0.0
H862 H 0.52727 0.98435 0.58257 0.0
H863 H 0.49848 0.04267 0.58322 0.0
S864 S 0.51074 1.01254 0.41462 0.0
N865 N 0.52777 0.98164 0.44427 0.0
N866 N 0.49458 0.04382 0.44505 0.0
C867 C 0.50299 0.03004 0.48163 0.0
C868 C 0.5204 0.99585 0.48123 0.0
C869 C 0.03885 0.02066 0.80096 0.0
C870 C 0.05655 0.03059 0.76514 0.0
C871 C 1.00576 1.00251 0.80025 0.0
C872 C 0.98902 0.99285 0.76367 0.0
H873 H 0.05038 0.02753 0.82999 0.0
H874 H 0.99311 0.99611 0.82876 0.0
S875 S 0.02477 1.01089 0.66106 0.0
N876 N 0.05455 0.02937 0.69175 0.0
N877 N 0.99387 0.99282 0.69046 0.0
C878 C 1.00685 1.00172 0.72752 0.0
C879 C 0.04026 0.02092 0.72824 0.0
C880 C 0.2884 0.12755 0.39758 0.0
C881 C 0.28636 0.10827 0.43372 0.0
C882 C 0.26031 0.12641 0.37022 0.0
C883 C 0.22969 0.10566 0.37808 0.0
H884 H 0.31147 0.14438 0.39081 0.0
H885 H 0.26181 0.14307 0.34361 0.0
S886 S 0.21206 0.04901 0.46716 0.0
N887 N 0.25238 0.06652 0.47517 0.0
N888 N 0.19891 0.06438 0.42304 0.0
C889 C 0.22801 0.08462 0.41285 0.0
C890 C 0.25668 0.0859 0.44097 0.0
C891 C 0.88636 0.75351 0.62108 0.0
C892 C 0.90978 0.72441 0.62303 0.0
C893 C 0.88669 0.77969 0.65096 0.0
C894 C 0.91035 0.77737 0.68387 0.0
H895 H 0.86688 0.75541 0.59692 0.0
H896 H 0.86805 0.80178 0.64818 0.0
S897 S 0.97662 0.7056 0.70253 0.0
N898 N 0.95711 0.69401 0.65964 0.0
N899 N 0.958 0.74392 0.71647 0.0
C900 C 0.93459 0.74875 0.68562 0.0
C901 C 0.93428 0.72202 0.65491 0.0
C902 C 0.26202 0.43998 0.92706 0.0
C903 C 0.25532 0.41389 0.95633 0.0
C904 C 0.28384 0.43211 0.89407 0.0
C905 C 0.29953 0.39806 0.88972 0.0
H906 H 0.24804 0.46543 0.92783 0.0
H907 H 0.28742 0.45245 0.87124 0.0
S908 S 0.29317 0.32255 0.96204 0.0
N909 N 0.26823 0.3546 0.98193 0.0
N910 N 0.30965 0.33934 0.91997 0.0
C911 C 0.29489 0.37266 0.92056 0.0
C912 C 0.27285 0.38086 0.9541 0.0
C913 C 0.57582 0.78382 0.14948 0.0
C914 C 0.60102 0.78642 0.11818 0.0
C915 C 0.57818 0.75601 0.17724 0.0
C916 C 0.60592 0.73073 0.17414 0.0
H917 H 0.55635 0.80492 0.15456 0.0
H918 H 0.55971 0.75564 0.20254 0.0
S919 S 0.6738 0.72313 0.09222 0.0
N920 N 0.65068 0.75949 0.08163 0.0
N921 N 0.65549 0.707 0.13371 0.0
C922 C 0.62907 0.73141 0.14056 0.0
C923 C 0.6264 0.7594 0.11239 0.0
C924 C 0.72663 0.61538 0.92341 0.0
C925 C 0.72926 0.59774 0.88593 0.0
C926 C 0.7546 0.61396 0.95085 0.0
C927 C 0.78566 0.59467 0.94157 0.0
H928 H 0.70343 0.63159 0.93098 0.0
H929 H 0.75292 0.62984 0.97834 0.0
S930 S 0.80455 0.54196 0.84894 0.0
N931 N 0.76391 0.55849 0.84194 0.0
N932 N 0.81728 0.55597 0.89412 0.0
C933 C 0.78773 0.57482 0.90557 0.0
C934 C 0.75914 0.57631 0.87744 0.0
C935 C 0.39541 0.25853 0.12378 0.0
C936 C 0.42397 0.23443 0.12586 0.0
C937 C 0.39271 0.28643 0.1514 0.0
C938 C 0.41835 0.29084 0.18208 0.0
H939 H 0.37427 0.25493 0.10162 0.0
H940 H 0.37004 0.30433 0.14896 0.0
S941 S 0.49888 0.23498 0.19914 0.0
N942 N 0.47905 0.21668 0.15942 0.0
N943 N 0.47398 0.26983 0.21207 0.0
C944 C 0.44797 0.26777 0.18343 0.0
C945 C 0.45081 0.23929 0.15499 0.0
C946 C 0.78894 0.96371 0.3888 0.0
C947 C 0.81372 0.9357 0.39213 0.0
C948 C 0.75653 0.9625 0.41027 0.0
C949 C 0.74858 0.93329 0.43538 0.0
H950 H 0.79397 0.98574 0.36838 0.0
H951 H 0.73703 0.98359 0.40585 0.0
S952 S 0.80792 0.85717 0.45994 0.0
N953 N 0.8306 0.88078 0.42643 0.0
N954 N 0.76961 0.87852 0.46653 0.0
C955 C 0.77423 0.90649 0.44088 0.0
C956 C 0.80697 0.9077 0.41925 0.0
C957 C 0.07228 0.24628 0.65221 0.0
C958 C 0.09701 0.24867 0.68395 0.0
C959 C 0.07383 0.27063 0.62049 0.0
C960 C 0.10008 0.29793 0.61988 0.0
H961 H 0.05331 0.22413 0.65048 0.0
H962 H 0.05518 0.26718 0.59571 0.0
S963 S 0.1681 0.31693 0.69956 0.0
N964 N 0.14586 0.28142 0.71563 0.0
N965 N 0.14956 0.32713 0.65605 0.0
C966 C 0.12353 0.30157 0.65306 0.0
C967 C 0.12174 0.2769 0.6852 0.0
loop_
_geom_bond_atom_site_label_1
_geom_bond_atom_site_label_2
_geom_bond_distance
_geom_bond_site_symmetry_2
_ccdc_geom_bond_type
C0 C1 1.351 . S
C0 N3 1.368 . S
C0 H5 0.931 . S
C1 C0 1.351 . S
C1 N2 1.373 . S
C1 H29 0.930 . S
N2 C1 1.373 . S
N2 C4 1.340 . S
N3 C0 1.368 . S
N3 C4 1.321 . S
N3 Co6 2.135 . S
C4 N2 1.340 . S
C4 N3 1.321 . S
C4 H28 0.930 . S
H5 C0 0.931 . S
Co6 N3 2.135 . S
Co6 N9 2.121 . S
Co6 O14 2.055 . S
Co6 O17 2.039 . S
Co6 N20 2.140 . S
C7 O8 1.227 . S
C7 O17 1.265 . S
O8 C7 1.227 . S
N9 Co6 2.121 . S
N9 C11 1.375 . S
N9 C12 1.313 . S
C10 C11 1.338 . S
C10 N13 1.377 . S
C10 H30 0.930 . S
C11 N9 1.375 . S
C11 C10 1.338 . S
C11 H15 0.931 . S
C12 N9 1.313 . S
C12 N13 1.344 . S
C12 H16 0.930 . S
N13 C10 1.377 . S
N13 C12 1.344 . S
O14 Co6 2.055 . S
O14 C18 1.253 . S
H15 C11 0.931 . S
H16 C12 0.930 . S
O17 Co6 2.039 . S
O17 C7 1.265 . S
C18 O14 1.253 . S
C18 O19 1.227 . S
O19 C18 1.227 . S
N20 Co6 2.140 . S
N20 C23 1.346 . S
N20 C24 1.345 . S
C21 C22 1.387 . S
C21 C25 1.391 . S
C22 C21 1.387 . S
C22 C23 1.369 . S
C22 H31 0.929 . S
C23 N20 1.346 . S
C23 C22 1.369 . S
C23 H26 0.928 . S
C24 N20 1.345 . S
C24 C25 1.371 . S
C24 H27 0.931 . S
C25 C21 1.391 . S
C25 C24 1.371 . S
C25 H32 0.930 . S
H26 C23 0.928 . S
H27 C24 0.931 . S
H28 C4 0.930 . S
H29 C1 0.930 . S
H30 C10 0.930 . S
H31 C22 0.929 . S
H32 C25 0.930 . S
C33 C34 1.351 . S
C33 N36 1.368 . S
C33 H38 0.931 . S
C34 C33 1.351 . S
C34 N35 1.373 . S
C34 H62 0.930 . S
N35 C34 1.373 . S
N35 C37 1.340 . S
N36 C33 1.368 . S
N36 C37 1.321 . S
N36 Co39 2.135 . S
C37 N35 1.340 . S
C37 N36 1.321 . S
C37 H61 0.930 . S
H38 C33 0.931 . S
Co39 N36 2.135 . S
Co39 N42 2.121 . S
Co39 O47 2.055 . S
Co39 O50 2.039 . S
Co39 N53 2.140 . S
C40 O41 1.227 . S
C40 O50 1.265 . S
O41 C40 1.227 . S
N42 Co39 2.121 . S
N42 C44 1.375 . S
N42 C45 1.313 . S
C43 C44 1.338 . S
C43 N46 1.377 . S
C43 H63 0.930 . S
C44 N42 1.375 . S
C44 C43 1.338 . S
C44 H48 0.931 . S
C45 N42 1.313 . S
C45 N46 1.344 . S
C45 H49 0.930 . S
N46 C43 1.377 . S
N46 C45 1.344 . S
O47 Co39 2.055 . S
O47 C51 1.253 . S
H48 C44 0.931 . S
H49 C45 0.930 . S
O50 Co39 2.039 . S
O50 C40 1.265 . S
C51 O47 1.253 . S
C51 O52 1.227 . S
O52 C51 1.227 . S
N53 Co39 2.140 . S
N53 C56 1.346 . S
N53 C57 1.345 . S
C54 C55 1.387 . S
C54 C58 1.391 . S
C55 C54 1.387 . S
C55 C56 1.369 . S
C55 H64 0.929 . S
C56 N53 1.346 . S
C56 C55 1.369 . S
C56 H59 0.928 . S
C57 N53 1.345 . S
C57 C58 1.371 . S
C57 H60 0.931 . S
C58 C54 1.391 . S
C58 C57 1.371 . S
C58 H65 0.930 . S
H59 C56 0.928 . S
H60 C57 0.931 . S
H61 C37 0.930 . S
H62 C34 0.930 . S
H63 C43 0.930 . S
H64 C55 0.929 . S
H65 C58 0.930 . S
C66 C67 1.351 . S
C66 N69 1.368 . S
C66 H71 0.931 . S
C67 C66 1.351 . S
C67 N68 1.373 . S
C67 H95 0.930 . S
N68 C67 1.373 . S
N68 C70 1.340 . S
N69 C66 1.368 . S
N69 C70 1.321 . S
N69 Co72 2.135 . S
C70 N68 1.340 . S
C70 N69 1.321 . S
C70 H94 0.930 . S
H71 C66 0.931 . S
Co72 N69 2.135 . S
Co72 N75 2.121 . S
Co72 O80 2.055 . S
Co72 O83 2.039 . S
Co72 N86 2.140 . S
C73 O74 1.227 . S
C73 O83 1.265 . S
O74 C73 1.227 . S
N75 Co72 2.121 . S
N75 C77 1.375 . S
N75 C78 1.313 . S
C76 C77 1.338 . S
C76 N79 1.377 . S
C76 H96 0.930 . S
C77 N75 1.375 . S
C77 C76 1.338 . S
C77 H81 0.931 . S
C78 N75 1.313 . S
C78 N79 1.344 . S
C78 H82 0.930 . S
N79 C76 1.377 . S
N79 C78 1.344 . S
O80 Co72 2.055 . S
O80 C84 1.253 . S
H81 C77 0.931 . S
H82 C78 0.930 . S
O83 Co72 2.039 . S
O83 C73 1.265 . S
C84 O80 1.253 . S
C84 O85 1.227 . S
O85 C84 1.227 . S
N86 Co72 2.140 . S
N86 C89 1.346 . S
N86 C90 1.345 . S
C87 C88 1.387 . S
C87 C91 1.391 . S
C88 C87 1.387 . S
C88 C89 1.369 . S
C88 H97 0.929 . S
C89 N86 1.346 . S
C89 C88 1.369 . S
C89 H92 0.928 . S
C90 N86 1.345 . S
C90 C91 1.371 . S
C90 H93 0.931 . S
C91 C87 1.391 . S
C91 C90 1.371 . S
C91 H98 0.930 . S
H92 C89 0.928 . S
H93 C90 0.931 . S
H94 C70 0.930 . S
H95 C67 0.930 . S
H96 C76 0.930 . S
H97 C88 0.929 . S
H98 C91 0.930 . S
C99 C100 1.351 . S
C99 N102 1.368 . S
C99 H104 0.931 . S
C100 C99 1.351 . S
C100 N101 1.373 . S
C100 H128 0.930 . S
N101 C100 1.373 . S
N101 C103 1.340 . S
N102 C99 1.368 . S
N102 C103 1.321 . S
N102 Co105 2.135 . S
C103 N101 1.340 . S
C103 N102 1.321 . S
C103 H127 0.930 . S
H104 C99 0.931 . S
Co105 N102 2.135 . S
Co105 N108 2.121 . S
Co105 O113 2.055 . S
Co105 O116 2.039 . S
Co105 N119 2.140 . S
C106 O107 1.227 . S
C106 O116 1.265 . S
O107 C106 1.227 . S
N108 Co105 2.121 . S
N108 C110 1.375 . S
N108 C111 1.313 . S
C109 C110 1.338 1_556 S
C109 N112 1.377 . S
C109 H129 0.930 . S
C110 N108 1.375 . S
C110 C109 1.338 1_554 S
C110 H114 0.931 . S
C111 N108 1.313 . S
C111 N112 1.344 1_554 S
C111 H115 0.930 . S
N112 C109 1.377 . S
N112 C111 1.344 1_556 S
O113 Co105 2.055 . S
O113 C117 1.253 . S
H114 C110 0.931 . S
H115 C111 0.930 . S
O116 Co105 2.039 . S
O116 C106 1.265 . S
C117 O113 1.253 . S
C117 O118 1.227 . S
O118 C117 1.227 . S
N119 Co105 2.140 . S
N119 C122 1.346 . S
N119 C123 1.345 . S
C120 C121 1.387 . S
C120 C124 1.391 . S
C121 C120 1.387 . S
C121 C122 1.369 . S
C121 H130 0.929 . S
C122 N119 1.346 . S
C122 C121 1.369 . S
C122 H125 0.928 . S
C123 N119 1.345 . S
C123 C124 1.371 . S
C123 H126 0.931 . S
C124 C120 1.391 . S
C124 C123 1.371 . S
C124 H131 0.930 . S
H125 C122 0.928 . S
H126 C123 0.931 . S
H127 C103 0.930 . S
H128 C100 0.930 . S
H129 C109 0.930 . S
H130 C121 0.929 . S
H131 C124 0.930 . S
C132 C133 1.351 . S
C132 N135 1.368 . S
C132 H137 0.931 . S
C133 C132 1.351 . S
C133 N134 1.373 . S
C133 H161 0.930 . S
N134 C133 1.373 . S
N134 C136 1.340 . S
N135 C132 1.368 . S
N135 C136 1.321 . S
N135 Co138 2.135 . S
C136 N134 1.340 . S
C136 N135 1.321 . S
C136 H160 0.930 . S
H137 C132 0.931 . S
Co138 N135 2.135 . S
Co138 N141 2.121 . S
Co138 O146 2.055 . S
Co138 O149 2.039 . S
Co138 N152 2.140 . S
C139 O140 1.227 . S
C139 O149 1.265 . S
O140 C139 1.227 . S
N141 Co138 2.121 . S
N141 C143 1.375 . S
N141 C144 1.313 . S
C142 C143 1.338 1_554 S
C142 N145 1.377 . S
C142 H162 0.930 . S
C143 N141 1.375 . S
C143 C142 1.338 1_556 S
C143 H147 0.931 . S
C144 N141 1.313 . S
C144 N145 1.344 1_556 S
C144 H148 0.930 . S
N145 C142 1.377 . S
N145 C144 1.344 1_554 S
O146 Co138 2.055 . S
O146 C150 1.253 . S
H147 C143 0.931 . S
H148 C144 0.930 . S
O149 Co138 2.039 . S
O149 C139 1.265 . S
C150 O146 1.253 . S
C150 O151 1.227 . S
O151 C150 1.227 . S
N152 Co138 2.140 . S
N152 C155 1.346 . S
N152 C156 1.345 . S
C153 C154 1.387 . S
C153 C157 1.391 . S
C154 C153 1.387 . S
C154 C155 1.369 . S
C154 H163 0.929 . S
C155 N152 1.346 . S
C155 C154 1.369 . S
C155 H158 0.928 . S
C156 N152 1.345 . S
C156 C157 1.371 . S
C156 H159 0.931 . S
C157 C153 1.391 . S
C157 C156 1.371 . S
C157 H164 0.930 . S
H158 C155 0.928 . S
H159 C156 0.931 . S
H160 C136 0.930 . S
H161 C133 0.930 . S
H162 C142 0.930 . S
H163 C154 0.929 . S
H164 C157 0.930 . S
C165 C166 1.351 . S
C165 N168 1.368 . S
C165 H170 0.931 . S
C166 C165 1.351 . S
C166 N167 1.373 . S
C166 H194 0.930 . S
N167 C166 1.373 . S
N167 C169 1.340 . S
N168 C165 1.368 . S
N168 C169 1.321 . S
N168 Co171 2.135 . S
C169 N167 1.340 . S
C169 N168 1.321 . S
C169 H193 0.930 . S
H170 C165 0.931 . S
Co171 N168 2.135 . S
Co171 N174 2.121 . S
Co171 O179 2.055 . S
Co171 O182 2.039 . S
Co171 N185 2.140 . S
C172 O173 1.227 . S
C172 O182 1.265 . S
O173 C172 1.227 . S
N174 Co171 2.121 . S
N174 C176 1.375 . S
N174 C177 1.313 . S
C175 C176 1.338 . S
C175 N178 1.377 . S
C175 H195 0.930 . S
C176 N174 1.375 . S
C176 C175 1.338 . S
C176 H180 0.931 . S
C177 N174 1.313 . S
C177 N178 1.344 . S
C177 H181 0.930 . S
N178 C175 1.377 . S
N178 C177 1.344 . S
O179 Co171 2.055 . S
O179 C183 1.253 . S
H180 C176 0.931 . S
H181 C177 0.930 . S
O182 Co171 2.039 . S
O182 C172 1.265 . S
C183 O179 1.253 . S
C183 O184 1.227 . S
O184 C183 1.227 . S
N185 Co171 2.140 . S
N185 C188 1.346 . S
N185 C189 1.345 . S
C186 C187 1.387 . S
C186 C190 1.391 . S
C187 C186 1.387 . S
C187 C188 1.369 . S
C187 H196 0.929 . S
C188 N185 1.346 . S
C188 C187 1.369 . S
C188 H191 0.928 . S
C189 N185 1.345 . S
C189 C190 1.371 . S
C189 H192 0.931 . S
C190 C186 1.391 . S
C190 C189 1.371 . S
C190 H197 0.930 . S
H191 C188 0.928 . S
H192 C189 0.931 . S
H193 C169 0.930 . S
H194 C166 0.930 . S
H195 C175 0.930 . S
H196 C187 0.929 . S
H197 C190 0.930 . S
C198 C199 1.351 . S
C198 N201 1.368 . S
C198 H203 0.931 . S
C199 C198 1.351 . S
C199 N200 1.373 . S
C199 H227 0.930 . S
N200 C199 1.373 . S
N200 C202 1.340 . S
N201 C198 1.368 . S
N201 C202 1.321 . S
N201 Co204 2.135 . S
C202 N200 1.340 . S
C202 N201 1.321 . S
C202 H226 0.930 . S
H203 C198 0.931 . S
Co204 N201 2.135 . S
Co204 N207 2.121 . S
Co204 O212 2.055 . S
Co204 O215 2.039 . S
Co204 N218 2.140 . S
C205 O206 1.227 . S
C205 O215 1.265 . S
O206 C205 1.227 . S
N207 Co204 2.121 . S
N207 C209 1.375 . S
N207 C210 1.313 . S
C208 C209 1.338 . S
C208 N211 1.377 . S
C208 H228 0.930 . S
C209 N207 1.375 . S
C209 C208 1.338 . S
C209 H213 0.931 . S
C210 N207 1.313 . S
C210 N211 1.344 . S
C210 H214 0.930 . S
N211 C208 1.377 . S
N211 C210 1.344 . S
O212 Co204 2.055 . S
O212 C216 1.253 . S
H213 C209 0.931 . S
H214 C210 0.930 . S
O215 Co204 2.039 . S
O215 C205 1.265 . S
C216 O212 1.253 . S
C216 O217 1.227 . S
O217 C216 1.227 . S
N218 Co204 2.140 . S
N218 C221 1.346 . S
N218 C222 1.345 . S
C219 C220 1.387 . S
C219 C223 1.391 . S
C220 C219 1.387 . S
C220 C221 1.369 . S
C220 H229 0.929 . S
C221 N218 1.346 . S
C221 C220 1.369 . S
C221 H224 0.928 . S
C222 N218 1.345 . S
C222 C223 1.371 . S
C222 H225 0.931 . S
C223 C219 1.391 . S
C223 C222 1.371 . S
C223 H230 0.930 . S
H224 C221 0.928 . S
H225 C222 0.931 . S
H226 C202 0.930 . S
H227 C199 0.930 . S
H228 C208 0.930 . S
H229 C220 0.929 . S
H230 C223 0.930 . S
C231 C232 1.351 . S
C231 N234 1.368 . S
C231 H236 0.931 . S
C232 C231 1.351 . S
C232 N233 1.373 . S
C232 H260 0.930 . S
N233 C232 1.373 . S
N233 C235 1.340 . S
N234 C231 1.368 . S
N234 C235 1.321 . S
N234 Co237 2.135 . S
C235 N233 1.340 . S
C235 N234 1.321 . S
C235 H259 0.930 . S
H236 C231 0.931 . S
Co237 N234 2.135 . S
Co237 N240 2.121 . S
Co237 O245 2.055 . S
Co237 O248 2.039 . S
Co237 N251 2.140 . S
C238 O239 1.227 . S
C238 O248 1.265 . S
O239 C238 1.227 . S
N240 Co237 2.121 . S
N240 C242 1.375 . S
N240 C243 1.313 . S
C241 C242 1.338 . S
C241 N244 1.377 . S
C241 H261 0.930 . S
C242 N240 1.375 . S
C242 C241 1.338 . S
C242 H246 0.931 . S
C243 N240 1.313 . S
C243 N244 1.344 . S
C243 H247 0.930 . S
N244 C241 1.377 . S
N244 C243 1.344 . S
O245 Co237 2.055 . S
O245 C249 1.253 . S
H246 C242 0.931 . S
H247 C243 0.930 . S
O248 Co237 2.039 . S
O248 C238 1.265 . S
C249 O245 1.253 . S
C249 O250 1.227 . S
O250 C249 1.227 . S
N251 Co237 2.140 . S
N251 C254 1.346 . S
N251 C255 1.345 . S
C252 C253 1.387 . S
C252 C256 1.391 . S
C253 C252 1.387 . S
C253 C254 1.369 . S
C253 H262 0.929 . S
C254 N251 1.346 . S
C254 C253 1.369 . S
C254 H257 0.928 . S
C255 N251 1.345 . S
C255 C256 1.371 . S
C255 H258 0.931 . S
C256 C252 1.391 . S
C256 C255 1.371 . S
C256 H263 0.930 . S
H257 C254 0.928 . S
H258 C255 0.931 . S
H259 C235 0.930 . S
H260 C232 0.930 . S
H261 C241 0.930 . S
H262 C253 0.929 . S
H263 C256 0.930 . S
C264 C265 1.351 . S
C264 N267 1.368 . S
C264 H269 0.931 . S
C265 C264 1.351 . S
C265 N266 1.373 . S
C265 H293 0.930 . S
N266 C265 1.373 . S
N266 C268 1.340 . S
N267 C264 1.368 . S
N267 C268 1.321 . S
N267 Co270 2.135 . S
C268 N266 1.340 . S
C268 N267 1.321 . S
C268 H292 0.930 . S
H269 C264 0.931 . S
Co270 N267 2.135 . S
Co270 N273 2.121 . S
Co270 O278 2.055 . S
Co270 O281 2.039 . S
Co270 N284 2.140 . S
C271 O272 1.227 . S
C271 O281 1.265 . S
O272 C271 1.227 . S
N273 Co270 2.121 . S
N273 C275 1.375 . S
N273 C276 1.313 . S
C274 C275 1.338 . S
C274 N277 1.377 . S
C274 H294 0.930 . S
C275 N273 1.375 . S
C275 C274 1.338 . S
C275 H279 0.931 . S
C276 N273 1.313 . S
C276 N277 1.344 . S
C276 H280 0.930 . S
N277 C274 1.377 . S
N277 C276 1.344 . S
O278 Co270 2.055 . S
O278 C282 1.253 . S
H279 C275 0.931 . S
H280 C276 0.930 . S
O281 Co270 2.039 . S
O281 C271 1.265 . S
C282 O278 1.253 . S
C282 O283 1.227 . S
O283 C282 1.227 . S
N284 Co270 2.140 . S
N284 C287 1.346 . S
N284 C288 1.345 . S
C285 C286 1.387 . S
C285 C289 1.391 . S
C286 C285 1.387 . S
C286 C287 1.369 . S
C286 H295 0.929 . S
C287 N284 1.346 . S
C287 C286 1.369 . S
C287 H290 0.928 . S
C288 N284 1.345 . S
C288 C289 1.371 . S
C288 H291 0.931 . S
C289 C285 1.391 . S
C289 C288 1.371 . S
C289 H296 0.930 . S
H290 C287 0.928 . S
H291 C288 0.931 . S
H292 C268 0.930 . S
H293 C265 0.930 . S
H294 C274 0.930 . S
H295 C286 0.929 . S
H296 C289 0.930 . S
C297 C298 1.351 . S
C297 N300 1.368 . S
C297 H302 0.931 . S
C298 C297 1.351 . S
C298 N299 1.373 . S
C298 H326 0.930 . S
N299 C298 1.373 . S
N299 C301 1.340 . S
N300 C297 1.368 . S
N300 C301 1.321 . S
N300 Co303 2.135 . S
C301 N299 1.340 . S
C301 N300 1.321 . S
C301 H325 0.930 . S
H302 C297 0.931 . S
Co303 N300 2.135 . S
Co303 N306 2.121 . S
Co303 O311 2.055 . S
Co303 O314 2.039 . S
Co303 N317 2.140 . S
C304 O305 1.227 . S
C304 O314 1.265 . S
O305 C304 1.227 . S
N306 Co303 2.121 . S
N306 C308 1.375 . S
N306 C309 1.313 . S
C307 C308 1.338 1_556 S
C307 N310 1.377 . S
C307 H327 0.930 . S
C308 N306 1.375 . S
C308 C307 1.338 1_554 S
C308 H312 0.931 . S
C309 N306 1.313 . S
C309 N310 1.344 1_554 S
C309 H313 0.930 . S
N310 C307 1.377 . S
N310 C309 1.344 1_556 S
O311 Co303 2.055 . S
O311 C315 1.253 . S
H312 C308 0.931 . S
H313 C309 0.930 . S
O314 Co303 2.039 . S
O314 C304 1.265 . S
C315 O311 1.253 . S
C315 O316 1.227 . S
O316 C315 1.227 . S
N317 Co303 2.140 . S
N317 C320 1.346 . S
N317 C321 1.345 . S
C318 C319 1.387 . S
C318 C322 1.391 . S
C319 C318 1.387 . S
C319 C320 1.369 . S
C319 H328 0.929 . S
C320 N317 1.346 . S
C320 C319 1.369 . S
C320 H323 0.928 . S
C321 N317 1.345 . S
C321 C322 1.371 . S
C321 H324 0.931 . S
C322 C318 1.391 . S
C322 C321 1.371 . S
C322 H329 0.930 . S
H323 C320 0.928 . S
H324 C321 0.931 . S
H325 C301 0.930 . S
H326 C298 0.930 . S
H327 C307 0.930 . S
H328 C319 0.929 . S
H329 C322 0.930 . S
C330 C331 1.351 . S
C330 N333 1.368 . S
C330 H335 0.931 . S
C331 C330 1.351 . S
C331 N332 1.373 . S
C331 H359 0.930 . S
N332 C331 1.373 . S
N332 C334 1.340 . S
N333 C330 1.368 . S
N333 C334 1.321 . S
N333 Co336 2.135 . S
C334 N332 1.340 . S
C334 N333 1.321 . S
C334 H358 0.930 . S
H335 C330 0.931 . S
Co336 N333 2.135 . S
Co336 N339 2.121 . S
Co336 O344 2.055 . S
Co336 O347 2.039 . S
Co336 N350 2.140 . S
C337 O338 1.227 . S
C337 O347 1.265 . S
O338 C337 1.227 . S
N339 Co336 2.121 . S
N339 C341 1.375 . S
N339 C342 1.313 . S
C340 C341 1.338 . S
C340 N343 1.377 . S
C340 H360 0.930 . S
C341 N339 1.375 . S
C341 C340 1.338 . S
C341 H345 0.931 . S
C342 N339 1.313 . S
C342 N343 1.344 . S
C342 H346 0.930 . S
N343 C340 1.377 . S
N343 C342 1.344 . S
O344 Co336 2.055 . S
O344 C348 1.253 . S
H345 C341 0.931 . S
H346 C342 0.930 . S
O347 Co336 2.039 . S
O347 C337 1.265 . S
C348 O344 1.253 . S
C348 O349 1.227 . S
O349 C348 1.227 . S
N350 Co336 2.140 . S
N350 C353 1.346 . S
N350 C354 1.345 . S
C351 C352 1.387 . S
C351 C355 1.391 . S
C352 C351 1.387 . S
C352 C353 1.369 . S
C352 H361 0.929 . S
C353 N350 1.346 . S
C353 C352 1.369 . S
C353 H356 0.928 . S
C354 N350 1.345 . S
C354 C355 1.371 . S
C354 H357 0.931 . S
C355 C351 1.391 . S
C355 C354 1.371 . S
C355 H362 0.930 . S
H356 C353 0.928 . S
H357 C354 0.931 . S
H358 C334 0.930 . S
H359 C331 0.930 . S
H360 C340 0.930 . S
H361 C352 0.929 . S
H362 C355 0.930 . S
C363 C364 1.351 . S
C363 N366 1.368 . S
C363 H368 0.931 . S
C364 C363 1.351 . S
C364 N365 1.373 . S
C364 H392 0.930 . S
N365 C364 1.373 . S
N365 C367 1.340 . S
N366 C363 1.368 . S
N366 C367 1.321 . S
N366 Co369 2.135 . S
C367 N365 1.340 . S
C367 N366 1.321 . S
C367 H391 0.930 . S
H368 C363 0.931 . S
Co369 N366 2.135 . S
Co369 N372 2.121 . S
Co369 O377 2.055 . S
Co369 O380 2.039 . S
Co369 N383 2.140 . S
C370 O371 1.227 . S
C370 O380 1.265 . S
O371 C370 1.227 . S
N372 Co369 2.121 . S
N372 C374 1.375 . S
N372 C375 1.313 . S
C373 C374 1.338 . S
C373 N376 1.377 . S
C373 H393 0.930 . S
C374 N372 1.375 . S
C374 C373 1.338 . S
C374 H378 0.931 . S
C375 N372 1.313 . S
C375 N376 1.344 . S
C375 H379 0.930 . S
N376 C373 1.377 . S
N376 C375 1.344 . S
O377 Co369 2.055 . S
O377 C381 1.253 . S
H378 C374 0.931 . S
H379 C375 0.930 . S
O380 Co369 2.039 . S
O380 C370 1.265 . S
C381 O377 1.253 . S
C381 O382 1.227 . S
O382 C381 1.227 . S
N383 Co369 2.140 . S
N383 C386 1.346 . S
N383 C387 1.345 . S
C384 C385 1.387 . S
C384 C388 1.391 . S
C385 C384 1.387 . S
C385 C386 1.369 . S
C385 H394 0.929 . S
C386 N383 1.346 . S
C386 C385 1.369 . S
C386 H389 0.928 . S
C387 N383 1.345 . S
C387 C388 1.371 . S
C387 H390 0.931 . S
C388 C384 1.391 . S
C388 C387 1.371 . S
C388 H395 0.930 . S
H389 C386 0.928 . S
H390 C387 0.931 . S
H391 C367 0.930 . S
H392 C364 0.930 . S
H393 C373 0.930 . S
H394 C385 0.929 . S
H395 C388 0.930 . S
C396 C397 1.351 . S
C396 N399 1.368 . S
C396 H401 0.931 . S
C397 C396 1.351 . S
C397 N398 1.373 . S
C397 H425 0.930 . S
N398 C397 1.373 . S
N398 C400 1.340 . S
N399 C396 1.368 . S
N399 C400 1.321 . S
N399 Co402 2.135 . S
C400 N398 1.340 . S
C400 N399 1.321 . S
C400 H424 0.930 . S
H401 C396 0.931 . S
Co402 N399 2.135 . S
Co402 N405 2.121 . S
Co402 O410 2.055 . S
Co402 O413 2.039 . S
Co402 N416 2.140 . S
C403 O404 1.227 . S
C403 O413 1.265 . S
O404 C403 1.227 . S
N405 Co402 2.121 . S
N405 C407 1.375 . S
N405 C408 1.313 . S
C406 C407 1.338 . S
C406 N409 1.377 . S
C406 H426 0.930 . S
C407 N405 1.375 . S
C407 C406 1.338 . S
C407 H411 0.931 . S
C408 N405 1.313 . S
C408 N409 1.344 . S
C408 H412 0.930 . S
N409 C406 1.377 . S
N409 C408 1.344 . S
O410 Co402 2.055 . S
O410 C414 1.253 . S
H411 C407 0.931 . S
H412 C408 0.930 . S
O413 Co402 2.039 . S
O413 C403 1.265 . S
C414 O410 1.253 . S
C414 O415 1.227 . S
O415 C414 1.227 . S
N416 Co402 2.140 . S
N416 C419 1.346 . S
N416 C420 1.345 . S
C417 C418 1.387 . S
C417 C421 1.391 . S
C418 C417 1.387 . S
C418 C419 1.369 . S
C418 H427 0.929 . S
C419 N416 1.346 . S
C419 C418 1.369 . S
C419 H422 0.928 . S
C420 N416 1.345 . S
C420 C421 1.371 . S
C420 H423 0.931 . S
C421 C417 1.391 . S
C421 C420 1.371 . S
C421 H428 0.930 . S
H422 C419 0.928 . S
H423 C420 0.931 . S
H424 C400 0.930 . S
H425 C397 0.930 . S
H426 C406 0.930 . S
H427 C418 0.929 . S
H428 C421 0.930 . S
C429 C430 1.351 . S
C429 N432 1.368 . S
C429 H434 0.931 . S
C430 C429 1.351 . S
C430 N431 1.373 . S
C430 H458 0.930 . S
N431 C430 1.373 . S
N431 C433 1.340 . S
N432 C429 1.368 . S
N432 C433 1.321 . S
N432 Co435 2.135 . S
C433 N431 1.340 . S
C433 N432 1.321 . S
C433 H457 0.930 . S
H434 C429 0.931 . S
Co435 N432 2.135 . S
Co435 N438 2.121 . S
Co435 O443 2.055 . S
Co435 O446 2.039 . S
Co435 N449 2.140 . S
C436 O437 1.227 . S
C436 O446 1.265 . S
O437 C436 1.227 . S
N438 Co435 2.121 . S
N438 C440 1.375 . S
N438 C441 1.313 . S
C439 C440 1.338 . S
C439 N442 1.377 . S
C439 H459 0.930 . S
C440 N438 1.375 . S
C440 C439 1.338 . S
C440 H444 0.931 . S
C441 N438 1.313 . S
C441 N442 1.344 . S
C441 H445 0.930 . S
N442 C439 1.377 . S
N442 C441 1.344 . S
O443 Co435 2.055 . S
O443 C447 1.253 . S
H444 C440 0.931 . S
H445 C441 0.930 . S
O446 Co435 2.039 . S
O446 C436 1.265 . S
C447 O443 1.253 . S
C447 O448 1.227 . S
O448 C447 1.227 . S
N449 Co435 2.140 . S
N449 C452 1.346 . S
N449 C453 1.345 . S
C450 C451 1.387 . S
C450 C454 1.391 . S
C451 C450 1.387 . S
C451 C452 1.369 . S
C451 H460 0.929 . S
C452 N449 1.346 . S
C452 C451 1.369 . S
C452 H455 0.928 . S
C453 N449 1.345 . S
C453 C454 1.371 . S
C453 H456 0.931 . S
C454 C450 1.391 . S
C454 C453 1.371 . S
C454 H461 0.930 . S
H455 C452 0.928 . S
H456 C453 0.931 . S
H457 C433 0.930 . S
H458 C430 0.930 . S
H459 C439 0.930 . S
H460 C451 0.929 . S
H461 C454 0.930 . S
C462 C463 1.351 . S
C462 N465 1.368 . S
C462 H467 0.931 . S
C463 C462 1.351 . S
C463 N464 1.373 . S
C463 H491 0.930 . S
N464 C463 1.373 . S
N464 C466 1.340 . S
N465 C462 1.368 . S
N465 C466 1.321 . S
N465 Co468 2.135 . S
C466 N464 1.340 . S
C466 N465 1.321 . S
C466 H490 0.930 . S
H467 C462 0.931 . S
Co468 N465 2.135 . S
Co468 N471 2.121 . S
Co468 O476 2.055 . S
Co468 O479 2.039 . S
Co468 N482 2.140 . S
C469 O470 1.227 . S
C469 O479 1.265 . S
O470 C469 1.227 . S
N471 Co468 2.121 . S
N471 C473 1.375 . S
N471 C474 1.313 . S
C472 C473 1.338 1_554 S
C472 N475 1.377 . S
C472 H492 0.930 . S
C473 N471 1.375 . S
C473 C472 1.338 1_556 S
C473 H477 0.931 . S
C474 N471 1.313 . S
C474 N475 1.344 1_556 S
C474 H478 0.930 . S
N475 C472 1.377 . S
N475 C474 1.344 1_554 S
O476 Co468 2.055 . S
O476 C480 1.253 . S
H477 C473 0.931 . S
H478 C474 0.930 . S
O479 Co468 2.039 . S
O479 C469 1.265 . S
C480 O476 1.253 . S
C480 O481 1.227 . S
O481 C480 1.227 . S
N482 Co468 2.140 . S
N482 C485 1.346 . S
N482 C486 1.345 . S
C483 C484 1.387 . S
C483 C487 1.391 . S
C484 C483 1.387 . S
C484 C485 1.369 . S
C484 H493 0.929 . S
C485 N482 1.346 . S
C485 C484 1.369 . S
C485 H488 0.928 . S
C486 N482 1.345 . S
C486 C487 1.371 . S
C486 H489 0.931 . S
C487 C483 1.391 . S
C487 C486 1.371 . S
C487 H494 0.930 . S
H488 C485 0.928 . S
H489 C486 0.931 . S
H490 C466 0.930 . S
H491 C463 0.930 . S
H492 C472 0.930 . S
H493 C484 0.929 . S
H494 C487 0.930 . S
C495 C496 1.351 . S
C495 N498 1.368 . S
C495 H500 0.931 . S
C496 C495 1.351 . S
C496 N497 1.373 . S
C496 H524 0.930 . S
N497 C496 1.373 . S
N497 C499 1.340 . S
N498 C495 1.368 . S
N498 C499 1.321 . S
N498 Co501 2.135 . S
C499 N497 1.340 . S
C499 N498 1.321 . S
C499 H523 0.930 . S
H500 C495 0.931 . S
Co501 N498 2.135 . S
Co501 N504 2.121 . S
Co501 O509 2.055 . S
Co501 O512 2.039 . S
Co501 N515 2.140 . S
C502 O503 1.227 . S
C502 O512 1.265 . S
O503 C502 1.227 . S
N504 Co501 2.121 . S
N504 C506 1.375 . S
N504 C507 1.313 . S
C505 C506 1.338 . S
C505 N508 1.377 . S
C505 H525 0.930 . S
C506 N504 1.375 . S
C506 C505 1.338 . S
C506 H510 0.931 . S
C507 N504 1.313 . S
C507 N508 1.344 . S
C507 H511 0.930 . S
N508 C505 1.377 . S
N508 C507 1.344 . S
O509 Co501 2.055 . S
O509 C513 1.253 . S
H510 C506 0.931 . S
H511 C507 0.930 . S
O512 Co501 2.039 . S
O512 C502 1.265 . S
C513 O509 1.253 . S
C513 O514 1.227 . S
O514 C513 1.227 . S
N515 Co501 2.140 . S
N515 C518 1.346 . S
N515 C519 1.345 . S
C516 C517 1.387 . S
C516 C520 1.391 . S
C517 C516 1.387 . S
C517 C518 1.369 . S
C517 H526 0.929 . S
C518 N515 1.346 . S
C518 C517 1.369 . S
C518 H521 0.928 . S
C519 N515 1.345 . S
C519 C520 1.371 . S
C519 H522 0.931 . S
C520 C516 1.391 . S
C520 C519 1.371 . S
C520 H527 0.930 . S
H521 C518 0.928 . S
H522 C519 0.931 . S
H523 C499 0.930 . S
H524 C496 0.930 . S
H525 C505 0.930 . S
H526 C517 0.929 . S
H527 C520 0.930 . S
C528 C529 1.369 . S
C528 C530 1.419 . S
C528 H532 0.930 . S
C529 C528 1.369 . S
C529 C538 1.429 . S
C530 C528 1.419 . S
C530 C531 1.363 . S
C530 H533 0.929 . S
C531 C530 1.363 . S
C531 C537 1.428 . S
H532 C528 0.930 . S
H533 C530 0.929 . S
S534 N535 1.613 . S
S534 N536 1.610 . S
N535 S534 1.613 . S
N535 C538 1.350 . S
N536 S534 1.610 . S
N536 C537 1.351 . S
C537 C531 1.428 . S
C537 N536 1.351 . S
C537 C538 1.434 . S
C538 C529 1.429 . S
C538 N535 1.350 . S
C538 C537 1.434 . S
C539 C540 1.369 . S
C539 C541 1.419 . S
C539 H543 0.930 . S
C540 C539 1.369 . S
C540 C549 1.429 . S
C541 C539 1.419 . S
C541 C542 1.363 . S
C541 H544 0.929 . S
C542 C541 1.363 . S
C542 C548 1.428 . S
H543 C539 0.930 . S
H544 C541 0.929 . S
S545 N546 1.613 . S
S545 N547 1.610 . S
N546 S545 1.613 . S
N546 C549 1.350 . S
N547 S545 1.610 . S
N547 C548 1.351 . S
C548 C542 1.428 . S
C548 N547 1.351 . S
C548 C549 1.434 . S
C549 C540 1.429 . S
C549 N546 1.350 . S
C549 C548 1.434 . S
C550 C551 1.369 . S
C550 C552 1.419 1_554 S
C550 H554 0.930 . S
C551 C550 1.369 . S
C551 C560 1.429 . S
C552 C550 1.419 1_556 S
C552 C553 1.363 . S
C552 H555 0.929 . S
C553 C552 1.363 . S
C553 C559 1.428 . S
H554 C550 0.930 . S
H555 C552 0.929 . S
S556 N557 1.613 . S
S556 N558 1.610 1_554 S
N557 S556 1.613 . S
N557 C560 1.350 . S
N558 S556 1.610 1_556 S
N558 C559 1.351 . S
C559 C553 1.428 . S
C559 N558 1.351 . S
C559 C560 1.434 1_556 S
C560 C551 1.429 . S
C560 N557 1.350 . S
C560 C559 1.434 1_554 S
C561 C562 1.369 . S
C561 C563 1.419 . S
C561 H565 0.930 . S
C562 C561 1.369 . S
C562 C571 1.429 . S
C563 C561 1.419 . S
C563 C564 1.363 . S
C563 H566 0.929 . S
C564 C563 1.363 . S
C564 C570 1.428 . S
H565 C561 0.930 . S
H566 C563 0.929 . S
S567 N568 1.613 . S
S567 N569 1.610 . S
N568 S567 1.613 . S
N568 C571 1.350 . S
N569 S567 1.610 . S
N569 C570 1.351 . S
C570 C564 1.428 . S
C570 N569 1.351 . S
C570 C571 1.434 . S
C571 C562 1.429 . S
C571 N568 1.350 . S
C571 C570 1.434 . S
C572 C573 1.369 . S
C572 C574 1.419 . S
C572 H576 0.930 . S
C573 C572 1.369 . S
C573 C582 1.429 . S
C574 C572 1.419 . S
C574 C575 1.363 . S
C574 H577 0.929 . S
C575 C574 1.363 . S
C575 C581 1.428 . S
H576 C572 0.930 . S
H577 C574 0.929 . S
S578 N579 1.613 . S
S578 N580 1.610 . S
N579 S578 1.613 . S
N579 C582 1.350 . S
N580 S578 1.610 . S
N580 C581 1.351 . S
C581 C575 1.428 . S
C581 N580 1.351 . S
C581 C582 1.434 . S
C582 C573 1.429 . S
C582 N579 1.350 . S
C582 C581 1.434 . S
C583 C584 1.369 . S
C583 C585 1.419 1_556 S
C583 H587 0.930 . S
C584 C583 1.369 . S
C584 C593 1.429 . S
C585 C583 1.419 1_554 S
C585 C586 1.363 . S
C585 H588 0.929 . S
C586 C585 1.363 . S
C586 C592 1.428 . S
H587 C583 0.930 . S
H588 C585 0.929 . S
S589 N590 1.613 1_554 S
S589 N591 1.610 . S
N590 S589 1.613 1_556 S
N590 C593 1.350 . S
N591 S589 1.610 . S
N591 C592 1.351 . S
C592 C586 1.428 . S
C592 N591 1.351 . S
C592 C593 1.434 1_554 S
C593 C584 1.429 . S
C593 N590 1.350 . S
C593 C592 1.434 1_556 S
C594 C595 1.369 . S
C594 C596 1.419 . S
C594 H598 0.930 . S
C595 C594 1.369 . S
C595 C604 1.429 . S
C596 C594 1.419 . S
C596 C597 1.363 . S
C596 H599 0.929 . S
C597 C596 1.363 . S
C597 C603 1.428 . S
H598 C594 0.930 . S
H599 C596 0.929 . S
S600 N601 1.613 . S
S600 N602 1.610 . S
N601 S600 1.613 . S
N601 C604 1.350 . S
N602 S600 1.610 . S
N602 C603 1.351 . S
C603 C597 1.428 . S
C603 N602 1.351 . S
C603 C604 1.434 . S
C604 C595 1.429 . S
C604 N601 1.350 . S
C604 C603 1.434 . S
C605 C606 1.369 . S
C605 C607 1.419 . S
C605 H609 0.930 . S
C606 C605 1.369 . S
C606 C615 1.429 . S
C607 C605 1.419 . S
C607 C608 1.363 . S
C607 H610 0.929 . S
C608 C607 1.363 . S
C608 C614 1.428 . S
H609 C605 0.930 . S
H610 C607 0.929 . S
S611 N612 1.613 . S
S611 N613 1.610 . S
N612 S611 1.613 . S
N612 C615 1.350 . S
N613 S611 1.610 . S
N613 C614 1.351 . S
C614 C608 1.428 . S
C614 N613 1.351 . S
C614 C615 1.434 . S
C615 C606 1.429 . S
C615 N612 1.350 . S
C615 C614 1.434 . S
C616 C617 1.369 . S
C616 C618 1.419 . S
C616 H620 0.930 . S
C617 C616 1.369 . S
C617 C626 1.429 . S
C618 C616 1.419 . S
C618 C619 1.363 . S
C618 H621 0.929 . S
C619 C618 1.363 . S
C619 C625 1.428 . S
H620 C616 0.930 . S
H621 C618 0.929 . S
S622 N623 1.613 . S
S622 N624 1.610 . S
N623 S622 1.613 . S
N623 C626 1.350 . S
N624 S622 1.610 . S
N624 C625 1.351 . S
C625 C619 1.428 . S
C625 N624 1.351 . S
C625 C626 1.434 . S
C626 C617 1.429 . S
C626 N623 1.350 . S
C626 C625 1.434 . S
C627 C628 1.369 . S
C627 C629 1.419 . S
C627 H631 0.930 . S
C628 C627 1.369 . S
C628 C637 1.429 . S
C629 C627 1.419 . S
C629 C630 1.363 . S
C629 H632 0.929 . S
C630 C629 1.363 . S
C630 C636 1.428 . S
H631 C627 0.930 . S
H632 C629 0.929 . S
S633 N634 1.613 . S
S633 N635 1.610 . S
N634 S633 1.613 . S
N634 C637 1.350 . S
N635 S633 1.610 . S
N635 C636 1.351 . S
C636 C630 1.428 . S
C636 N635 1.351 . S
C636 C637 1.434 . S
C637 C628 1.429 . S
C637 N634 1.350 . S
C637 C636 1.434 . S
C638 C639 1.369 . S
C638 C640 1.419 . S
C638 H642 0.930 . S
C639 C638 1.369 . S
C639 C648 1.429 . S
C640 C638 1.419 . S
C640 C641 1.363 . S
C640 H643 0.929 . S
C641 C640 1.363 . S
C641 C647 1.428 . S
H642 C638 0.930 . S
H643 C640 0.929 . S
S644 N645 1.613 . S
S644 N646 1.610 . S
N645 S644 1.613 . S
N645 C648 1.350 . S
N646 S644 1.610 . S
N646 C647 1.351 . S
C647 C641 1.428 . S
C647 N646 1.351 . S
C647 C648 1.434 . S
C648 C639 1.429 . S
C648 N645 1.350 . S
C648 C647 1.434 . S
C649 C650 1.369 . S
C649 C651 1.419 . S
C649 H653 0.930 . S
C650 C649 1.369 . S
C650 C659 1.429 . S
C651 C649 1.419 . S
C651 C652 1.363 . S
C651 H654 0.929 . S
C652 C651 1.363 . S
C652 C658 1.428 . S
H653 C649 0.930 . S
H654 C651 0.929 . S
S655 N656 1.613 . S
S655 N657 1.610 . S
N656 S655 1.613 . S
N656 C659 1.350 . S
N657 S655 1.610 . S
N657 C658 1.351 . S
C658 C652 1.428 . S
C658 N657 1.351 . S
C658 C659 1.434 . S
C659 C650 1.429 . S
C659 N656 1.350 . S
C659 C658 1.434 . S
C660 C661 1.369 . S
C660 C662 1.419 . S
C660 H664 0.930 . S
C661 C660 1.369 . S
C661 C670 1.429 . S
C662 C660 1.419 . S
C662 C663 1.363 . S
C662 H665 0.929 . S
C663 C662 1.363 . S
C663 C669 1.428 . S
H664 C660 0.930 . S
H665 C662 0.929 . S
S666 N667 1.613 . S
S666 N668 1.610 . S
N667 S666 1.613 . S
N667 C670 1.350 . S
N668 S666 1.610 . S
N668 C669 1.351 . S
C669 C663 1.428 . S
C669 N668 1.351 . S
C669 C670 1.434 . S
C670 C661 1.429 . S
C670 N667 1.350 . S
C670 C669 1.434 . S
C671 C672 1.369 . S
C671 C673 1.419 . S
C671 H675 0.930 . S
C672 C671 1.369 . S
C672 C681 1.429 . S
C673 C671 1.419 . S
C673 C674 1.363 . S
C673 H676 0.929 . S
C674 C673 1.363 . S
C674 C680 1.428 . S
H675 C671 0.930 . S
H676 C673 0.929 . S
S677 N678 1.613 . S
S677 N679 1.610 . S
N678 S677 1.613 . S
N678 C681 1.350 . S
N679 S677 1.610 . S
N679 C680 1.351 . S
C680 C674 1.428 . S
C680 N679 1.351 . S
C680 C681 1.434 . S
C681 C672 1.429 . S
C681 N678 1.350 . S
C681 C680 1.434 . S
C682 C683 1.369 . S
C682 C684 1.419 . S
C682 H686 0.930 . S
C683 C682 1.369 . S
C683 C692 1.429 . S
C684 C682 1.419 . S
C684 C685 1.363 . S
C684 H687 0.929 . S
C685 C684 1.363 . S
C685 C691 1.428 . S
H686 C682 0.930 . S
H687 C684 0.929 . S
S688 N689 1.613 . S
S688 N690 1.610 . S
N689 S688 1.613 . S
N689 C692 1.350 . S
N690 S688 1.610 . S
N690 C691 1.351 . S
C691 C685 1.428 . S
C691 N690 1.351 . S
C691 C692 1.434 . S
C692 C683 1.429 . S
C692 N689 1.350 . S
C692 C691 1.434 . S
C693 C694 1.369 . S
C693 C695 1.419 . S
C693 H697 0.930 . S
C694 C693 1.369 . S
C694 C703 1.429 . S
C695 C693 1.419 . S
C695 C696 1.363 . S
C695 H698 0.929 . S
C696 C695 1.363 . S
C696 C702 1.428 . S
H697 C693 0.930 . S
H698 C695 0.929 . S
S699 N700 1.613 . S
S699 N701 1.610 . S
N700 S699 1.613 . S
N700 C703 1.350 . S
N701 S699 1.610 . S
N701 C702 1.351 . S
C702 C696 1.428 . S
C702 N701 1.351 . S
C702 C703 1.434 . S
C703 C694 1.429 . S
C703 N700 1.350 . S
C703 C702 1.434 . S
C704 C705 1.369 . S
C704 C706 1.419 . S
C704 H708 0.930 . S
C705 C704 1.369 . S
C705 C714 1.429 . S
C706 C704 1.419 . S
C706 C707 1.363 . S
C706 H709 0.929 . S
C707 C706 1.363 . S
C707 C713 1.428 . S
H708 C704 0.930 . S
H709 C706 0.929 . S
S710 N711 1.613 . S
S710 N712 1.610 . S
N711 S710 1.613 . S
N711 C714 1.350 . S
N712 S710 1.610 . S
N712 C713 1.351 . S
C713 C707 1.428 . S
C713 N712 1.351 . S
C713 C714 1.434 . S
C714 C705 1.429 . S
C714 N711 1.350 . S
C714 C713 1.434 . S
C715 C716 1.369 . S
C715 C717 1.419 . S
C715 H719 0.930 . S
C716 C715 1.369 . S
C716 C725 1.429 . S
C717 C715 1.419 . S
C717 C718 1.363 . S
C717 H720 0.929 . S
C718 C717 1.363 . S
C718 C724 1.428 . S
H719 C715 0.930 . S
H720 C717 0.929 . S
S721 N722 1.613 . S
S721 N723 1.610 . S
N722 S721 1.613 . S
N722 C725 1.350 . S
N723 S721 1.610 . S
N723 C724 1.351 . S
C724 C718 1.428 . S
C724 N723 1.351 . S
C724 C725 1.434 . S
C725 C716 1.429 . S
C725 N722 1.350 . S
C725 C724 1.434 . S
C726 C727 1.369 . S
C726 C728 1.419 . S
C726 H730 0.930 . S
C727 C726 1.369 . S
C727 C736 1.429 . S
C728 C726 1.419 . S
C728 C729 1.363 . S
C728 H731 0.929 . S
C729 C728 1.363 . S
C729 C735 1.428 . S
H730 C726 0.930 . S
H731 C728 0.929 . S
S732 N733 1.613 . S
S732 N734 1.610 . S
N733 S732 1.613 . S
N733 C736 1.350 . S
N734 S732 1.610 . S
N734 C735 1.351 . S
C735 C729 1.428 . S
C735 N734 1.351 . S
C735 C736 1.434 . S
C736 C727 1.429 . S
C736 N733 1.350 . S
C736 C735 1.434 . S
C737 C738 1.369 . S
C737 C739 1.419 . S
C737 H741 0.930 . S
C738 C737 1.369 . S
C738 C747 1.429 . S
C739 C737 1.419 . S
C739 C740 1.363 . S
C739 H742 0.929 . S
C740 C739 1.363 . S
C740 C746 1.428 . S
H741 C737 0.930 . S
H742 C739 0.929 . S
S743 N744 1.613 . S
S743 N745 1.610 . S
N744 S743 1.613 . S
N744 C747 1.350 . S
N745 S743 1.610 . S
N745 C746 1.351 . S
C746 C740 1.428 . S
C746 N745 1.351 . S
C746 C747 1.434 . S
C747 C738 1.429 . S
C747 N744 1.350 . S
C747 C746 1.434 . S
C748 C749 1.369 . S
C748 C750 1.419 . S
C748 H752 0.930 . S
C749 C748 1.369 . S
C749 C758 1.429 . S
C750 C748 1.419 . S
C750 C751 1.363 . S
C750 H753 0.929 . S
C751 C750 1.363 . S
C751 C757 1.428 . S
H752 C748 0.930 . S
H753 C750 0.929 . S
S754 N755 1.613 . S
S754 N756 1.610 . S
N755 S754 1.613 . S
N755 C758 1.350 . S
N756 S754 1.610 . S
N756 C757 1.351 . S
C757 C751 1.428 . S
C757 N756 1.351 . S
C757 C758 1.434 . S
C758 C749 1.429 . S
C758 N755 1.350 . S
C758 C757 1.434 . S
C759 C760 1.369 . S
C759 C761 1.419 . S
C759 H763 0.930 . S
C760 C759 1.369 . S
C760 C769 1.429 . S
C761 C759 1.419 . S
C761 C762 1.363 . S
C761 H764 0.929 . S
C762 C761 1.363 . S
C762 C768 1.428 . S
H763 C759 0.930 . S
H764 C761 0.929 . S
S765 N766 1.613 . S
S765 N767 1.610 . S
N766 S765 1.613 . S
N766 C769 1.350 . S
N767 S765 1.610 . S
N767 C768 1.351 . S
C768 C762 1.428 . S
C768 N767 1.351 . S
C768 C769 1.434 . S
C769 C760 1.429 . S
C769 N766 1.350 . S
C769 C768 1.434 . S
C770 C771 1.369 . S
C770 C772 1.419 . S
C770 H774 0.930 . S
C771 C770 1.369 . S
C771 C780 1.429 . S
C772 C770 1.419 . S
C772 C773 1.363 . S
C772 H775 0.929 . S
C773 C772 1.363 . S
C773 C779 1.428 . S
H774 C770 0.930 . S
H775 C772 0.929 . S
S776 N777 1.613 . S
S776 N778 1.610 . S
N777 S776 1.613 . S
N777 C780 1.350 . S
N778 S776 1.610 . S
N778 C779 1.351 . S
C779 C773 1.428 . S
C779 N778 1.351 . S
C779 C780 1.434 . S
C780 C771 1.429 . S
C780 N777 1.350 . S
C780 C779 1.434 . S
C781 C782 1.369 . S
C781 C783 1.419 . S
C781 H785 0.930 . S
C782 C781 1.369 . S
C782 C791 1.429 . S
C783 C781 1.419 . S
C783 C784 1.363 . S
C783 H786 0.929 . S
C784 C783 1.363 . S
C784 C790 1.428 . S
H785 C781 0.930 . S
H786 C783 0.929 . S
S787 N788 1.613 . S
S787 N789 1.610 . S
N788 S787 1.613 . S
N788 C791 1.350 . S
N789 S787 1.610 . S
N789 C790 1.351 . S
C790 C784 1.428 . S
C790 N789 1.351 . S
C790 C791 1.434 . S
C791 C782 1.429 . S
C791 N788 1.350 . S
C791 C790 1.434 . S
C792 C793 1.369 . S
C792 C794 1.419 1_445 S
C792 H796 0.930 . S
C793 C792 1.369 . S
C793 C802 1.416 1_455 S
C794 C792 1.419 1_665 S
C794 C795 1.363 . S
C794 H797 0.930 . S
C795 C794 1.363 . S
C795 C801 1.428 . S
H796 C792 0.930 . S
H797 C794 0.930 . S
S798 N799 1.613 . S
S798 N800 1.610 1_545 S
N799 S798 1.613 . S
N799 C802 1.353 . S
N800 S798 1.610 1_565 S
N800 C801 1.351 . S
C801 C795 1.428 . S
C801 N800 1.351 . S
C801 C802 1.446 1_565 S
C802 C793 1.416 1_655 S
C802 N799 1.353 . S
C802 C801 1.446 1_545 S
C803 C804 1.369 . S
C803 C805 1.419 1_455 S
C803 H807 0.930 . S
C804 C803 1.369 . S
C804 C813 1.429 . S
C805 C803 1.419 1_655 S
C805 C806 1.363 . S
C805 H808 0.929 . S
C806 C805 1.363 . S
C806 C812 1.428 . S
H807 C803 0.930 . S
H808 C805 0.929 . S
S809 N810 1.613 . S
S809 N811 1.610 . S
N810 S809 1.613 . S
N810 C813 1.350 1_655 S
N811 S809 1.610 . S
N811 C812 1.351 . S
C812 C806 1.428 . S
C812 N811 1.351 . S
C812 C813 1.433 1_655 S
C813 C804 1.429 . S
C813 N810 1.350 1_455 S
C813 C812 1.433 1_455 S
C814 C815 1.369 . S
C814 C816 1.419 . S
C814 H818 0.930 . S
C815 C814 1.369 . S
C815 C824 1.429 . S
C816 C814 1.419 . S
C816 C817 1.363 . S
C816 H819 0.929 . S
C817 C816 1.363 . S
C817 C823 1.428 . S
H818 C814 0.930 . S
H819 C816 0.929 . S
S820 N821 1.613 . S
S820 N822 1.610 . S
N821 S820 1.613 . S
N821 C824 1.350 . S
N822 S820 1.610 . S
N822 C823 1.351 . S
C823 C817 1.428 . S
C823 N822 1.351 . S
C823 C824 1.434 . S
C824 C815 1.429 . S
C824 N821 1.350 . S
C824 C823 1.434 . S
C825 C826 1.369 1_565 S
C825 C827 1.419 . S
C825 H829 0.930 . S
C826 C825 1.369 1_545 S
C826 C835 1.429 . S
C827 C825 1.419 . S
C827 C828 1.363 . S
C827 H830 0.929 . S
C828 C827 1.363 . S
C828 C834 1.428 1_565 S
H829 C825 0.930 . S
H830 C827 0.929 . S
S831 N832 1.613 1_556 S
S831 N833 1.610 1_556 S
N832 S831 1.613 1_554 S
N832 C835 1.350 . S
N833 S831 1.610 1_554 S
N833 C834 1.351 . S
C834 C828 1.428 1_545 S
C834 N833 1.351 . S
C834 C835 1.434 . S
C835 C826 1.429 . S
C835 N832 1.350 . S
C835 C834 1.434 . S
C836 C837 1.369 1_655 S
C836 C838 1.419 . S
C836 H840 0.930 . S
C837 C836 1.369 1_455 S
C837 C846 1.429 . S
C838 C836 1.419 . S
C838 C839 1.363 . S
C838 H841 0.929 . S
C839 C838 1.363 . S
C839 C845 1.428 1_655 S
H840 C836 0.930 . S
H841 C838 0.929 . S
S842 N843 1.613 . S
S842 N844 1.610 . S
N843 S842 1.613 . S
N843 C846 1.350 . S
N844 S842 1.610 . S
N844 C845 1.351 . S
C845 C839 1.428 1_455 S
C845 N844 1.351 . S
C845 C846 1.434 . S
C846 C837 1.429 . S
C846 N843 1.350 . S
C846 C845 1.434 . S
C847 C848 1.369 . S
C847 C849 1.419 . S
C847 H851 0.930 . S
C848 C847 1.369 . S
C848 C857 1.429 . S
C849 C847 1.419 . S
C849 C850 1.363 . S
C849 H852 0.929 . S
C850 C849 1.363 . S
C850 C856 1.428 . S
H851 C847 0.930 . S
H852 C849 0.929 . S
S853 N854 1.613 . S
S853 N855 1.610 . S
N854 S853 1.613 . S
N854 C857 1.350 . S
N855 S853 1.610 . S
N855 C856 1.351 . S
C856 C850 1.428 . S
C856 N855 1.351 . S
C856 C857 1.434 . S
C857 C848 1.429 . S
C857 N854 1.350 . S
C857 C856 1.434 . S
C858 C859 1.369 . S
C858 C860 1.419 1_565 S
C858 H862 0.930 . S
C859 C858 1.369 . S
C859 C868 1.429 . S
C860 C858 1.419 1_545 S
C860 C861 1.363 . S
C860 H863 0.929 . S
C861 C860 1.363 . S
C861 C867 1.428 . S
H862 C858 0.930 . S
H863 C860 0.929 . S
S864 N865 1.613 . S
S864 N866 1.610 1_565 S
N865 S864 1.613 . S
N865 C868 1.350 . S
N866 S864 1.610 1_545 S
N866 C867 1.351 . S
C867 C861 1.428 . S
C867 N866 1.351 . S
C867 C868 1.434 1_545 S
C868 C859 1.429 . S
C868 N865 1.350 . S
C868 C867 1.434 1_565 S
C869 C870 1.369 . S
C869 C871 1.419 1_445 S
C869 H873 0.930 . S
C870 C869 1.369 . S
C870 C879 1.429 . S
C871 C869 1.419 1_665 S
C871 C872 1.363 . S
C871 H874 0.929 . S
C872 C871 1.363 . S
C872 C878 1.428 . S
H873 C869 0.930 . S
H874 C871 0.929 . S
S875 N876 1.613 1_565 S
S875 N877 1.610 1_455 S
N876 S875 1.613 1_545 S
N876 C879 1.350 . S
N877 S875 1.610 1_655 S
N877 C878 1.351 . S
C878 C872 1.428 . S
C878 N877 1.351 . S
C878 C879 1.434 1_665 S
C879 C870 1.429 . S
C879 N876 1.350 . S
C879 C878 1.434 1_445 S
C880 C881 1.369 . S
C880 C882 1.419 . S
C880 H884 0.930 . S
C881 C880 1.369 . S
C881 C890 1.429 . S
C882 C880 1.419 . S
C882 C883 1.363 . S
C882 H885 0.929 . S
C883 C882 1.363 . S
C883 C889 1.428 . S
H884 C880 0.930 . S
H885 C882 0.929 . S
S886 N887 1.613 . S
S886 N888 1.610 . S
N887 S886 1.613 . S
N887 C890 1.350 . S
N888 S886 1.610 . S
N888 C889 1.351 . S
C889 C883 1.428 . S
C889 N888 1.351 . S
C889 C890 1.434 . S
C890 C881 1.429 . S
C890 N887 1.350 . S
C890 C889 1.434 . S
C891 C892 1.369 . S
C891 C893 1.419 . S
C891 H895 0.930 . S
C892 C891 1.369 . S
C892 C901 1.429 . S
C893 C891 1.419 . S
C893 C894 1.363 . S
C893 H896 0.929 . S
C894 C893 1.363 . S
C894 C900 1.428 . S
H895 C891 0.930 . S
H896 C893 0.929 . S
S897 N898 1.613 . S
S897 N899 1.610 . S
N898 S897 1.613 . S
N898 C901 1.350 . S
N899 S897 1.610 . S
N899 C900 1.351 . S
C900 C894 1.428 . S
C900 N899 1.351 . S
C900 C901 1.434 . S
C901 C892 1.429 . S
C901 N898 1.350 . S
C901 C900 1.434 . S
C902 C903 1.369 . S
C902 C904 1.419 . S
C902 H906 0.930 . S
C903 C902 1.369 . S
C903 C912 1.429 . S
C904 C902 1.419 . S
C904 C905 1.363 . S
C904 H907 0.929 . S
C905 C904 1.363 . S
C905 C911 1.428 . S
H906 C902 0.930 . S
H907 C904 0.929 . S
S908 N909 1.613 . S
S908 N910 1.610 . S
N909 S908 1.613 . S
N909 C912 1.350 . S
N910 S908 1.610 . S
N910 C911 1.351 . S
C911 C905 1.428 . S
C911 N910 1.351 . S
C911 C912 1.434 . S
C912 C903 1.429 . S
C912 N909 1.350 . S
C912 C911 1.434 . S
C913 C914 1.369 . S
C913 C915 1.419 . S
C913 H917 0.930 . S
C914 C913 1.369 . S
C914 C923 1.429 . S
C915 C913 1.419 . S
C915 C916 1.363 . S
C915 H918 0.929 . S
C916 C915 1.363 . S
C916 C922 1.428 . S
H917 C913 0.930 . S
H918 C915 0.929 . S
S919 N920 1.613 . S
S919 N921 1.610 . S
N920 S919 1.613 . S
N920 C923 1.350 . S
N921 S919 1.610 . S
N921 C922 1.351 . S
C922 C916 1.428 . S
C922 N921 1.351 . S
C922 C923 1.434 . S
C923 C914 1.429 . S
C923 N920 1.350 . S
C923 C922 1.434 . S
C924 C925 1.369 . S
C924 C926 1.419 . S
C924 H928 0.930 . S
C925 C924 1.369 . S
C925 C934 1.429 . S
C926 C924 1.419 . S
C926 C927 1.363 . S
C926 H929 0.929 . S
C927 C926 1.363 . S
C927 C933 1.428 . S
H928 C924 0.930 . S
H929 C926 0.929 . S
S930 N931 1.613 . S
S930 N932 1.610 . S
N931 S930 1.613 . S
N931 C934 1.350 . S
N932 S930 1.610 . S
N932 C933 1.351 . S
C933 C927 1.428 . S
C933 N932 1.351 . S
C933 C934 1.434 . S
C934 C925 1.429 . S
C934 N931 1.350 . S
C934 C933 1.434 . S
C935 C936 1.369 . S
C935 C937 1.419 . S
C935 H939 0.930 . S
C936 C935 1.369 . S
C936 C945 1.429 . S
C937 C935 1.419 . S
C937 C938 1.363 . S
C937 H940 0.929 . S
C938 C937 1.363 . S
C938 C944 1.428 . S
H939 C935 0.930 . S
H940 C937 0.929 . S
S941 N942 1.613 . S
S941 N943 1.610 . S
N942 S941 1.613 . S
N942 C945 1.350 . S
N943 S941 1.610 . S
N943 C944 1.351 . S
C944 C938 1.428 . S
C944 N943 1.351 . S
C944 C945 1.434 . S
C945 C936 1.429 . S
C945 N942 1.350 . S
C945 C944 1.434 . S
C946 C947 1.369 . S
C946 C948 1.419 . S
C946 H950 0.930 . S
C947 C946 1.369 . S
C947 C956 1.429 . S
C948 C946 1.419 . S
C948 C949 1.363 . S
C948 H951 0.929 . S
C949 C948 1.363 . S
C949 C955 1.428 . S
H950 C946 0.930 . S
H951 C948 0.929 . S
S952 N953 1.613 . S
S952 N954 1.610 . S
N953 S952 1.613 . S
N953 C956 1.350 . S
N954 S952 1.610 . S
N954 C955 1.351 . S
C955 C949 1.428 . S
C955 N954 1.351 . S
C955 C956 1.434 . S
C956 C947 1.429 . S
C956 N953 1.350 . S
C956 C955 1.434 . S
C957 C958 1.369 . S
C957 C959 1.419 . S
C957 H961 0.930 . S
C958 C957 1.369 . S
C958 C967 1.429 . S
C959 C957 1.419 . S
C959 C960 1.363 . S
C959 H962 0.929 . S
C960 C959 1.363 . S
C960 C966 1.428 . S
H961 C957 0.930 . S
H962 C959 0.929 . S
S963 N964 1.613 . S
S963 N965 1.610 . S
N964 S963 1.613 . S
N964 C967 1.350 . S
N965 S963 1.610 . S
N965 C966 1.351 . S
C966 C960 1.428 . S
C966 N965 1.351 . S
C966 C967 1.434 . S
C967 C958 1.429 . S
C967 N964 1.350 . S
C967 C966 1.434 . S
C529 N2 0.642 . S
C531 N431 0.621 . S
C540 N464 0.639 . S
C542 N35 0.622 . S
C551 N497 0.619 . S
C553 N68 0.637 . S
C562 N398 0.643 . S
C564 N101 0.621 . S
C573 N365 0.642 . S
C575 N134 0.621 . S
C584 N266 0.648 . S
C586 N167 0.623 . S
C595 N200 0.636 . S
C597 N299 0.642 . S
C606 N332 0.629 . S
C608 N233 0.645 . S
C617 C304 2.054 . S
C619 N13 2.210 . S
C628 N46 2.211 . S
C630 C337 2.062 . S
C639 N79 2.208 . S
C641 C370 2.057 . S
C650 N112 2.208 . S
C652 C271 2.056 . S
C661 N145 2.210 . S
C663 C502 2.055 . S
C672 C403 2.054 . S
C674 N178 2.210 . S
C683 C436 2.056 . S
C685 N211 2.211 . S
C694 C469 2.063 . S
C696 N244 2.210 . S
C705 N277 2.212 . S
C707 C40 2.057 . S
C716 N310 2.212 . S
C718 C73 2.058 . S
C727 N343 2.209 . S
C729 C106 2.056 . S
C738 C7 2.063 . S
C740 N376 2.211 . S
C749 N409 2.208 . S
C751 C238 2.057 . S
C760 C139 2.057 . S
C762 N442 2.211 . S
C771 N475 2.208 . S
C773 C172 2.057 . S
C782 N508 2.210 . S
C784 C205 2.055 . S
C793 C21 1.380 . S
C795 C351 1.378 . S
C804 C384 1.375 . S
C806 C54 1.377 . S
C815 C87 1.377 . S
C817 C285 1.379 . S
C826 C318 1.378 . S
C828 C120 1.379 . S
C837 C153 1.375 . S
C839 C483 1.378 . S
C848 C516 1.374 . S
C850 C186 1.375 . S
C859 C417 1.374 . S
C861 C219 1.376 . S
C870 C450 1.374 . S
C872 C252 1.375 . S
C881 C216 1.030 . S
C883 C18 1.018 . S
C892 C51 1.018 . S
C894 C249 1.028 . S
C903 C150 1.030 . S
C905 C84 1.014 . S
C914 C117 1.029 . S
C916 C183 1.014 . S
C925 C282 1.027 . S
C927 C480 1.022 . S
C936 C315 1.014 . S
C938 C513 1.029 . S
C947 C348 1.021 . S
C949 C414 1.017 . S
C958 C447 1.027 . S
C960 C381 1.014 . S
