# Generated by pormake.
# Topology uod, (4)-cn, num edge types: 1
# Building blocks:
#     Node 0, Type 0, BuildingBlock: QUQFOY_clean_sbu_3, # of connection points: 4
#     Node 1, Type 0, BuildingBlock: QUQFOY_clean_sbu_3, # of connection points: 4
#     Node 2, Type 0, BuildingBlock: QUQFOY_clean_sbu_3, # of connection points: 4
#     Node 3, Type 0, BuildingBlock: QUQFOY_clean_sbu_3, # of connection points: 4
#     Node 4, Type 0, BuildingBlock: QUQFOY_clean_sbu_3, # of connection points: 4
#     Node 5, Type 0, BuildingBlock: QUQFOY_clean_sbu_3, # of connection points: 4
#     Node 6, Type 0, BuildingBlock: QUQFOY_clean_sbu_3, # of connection points: 4
#     Node 7, Type 0, BuildingBlock: QUQFOY_clean_sbu_3, # of connection points: 4
#     Node 8, Type 0, BuildingBlock: QUQFOY_clean_sbu_3, # of connection points: 4
#     Node 9, Type 0, BuildingBlock: QUQFOY_clean_sbu_3, # of connection points: 4
#     Node 10, Type 0, BuildingBlock: QUQFOY_clean_sbu_3, # of connection points: 4
#     Node 11, Type 0, BuildingBlock: QUQFOY_clean_sbu_3, # of connection points: 4
#     Node 12, Type 0, BuildingBlock: QUQFOY_clean_sbu_3, # of connection points: 4
#     Node 13, Type 0, BuildingBlock: QUQFOY_clean_sbu_3, # of connection points: 4
#     Node 14, Type 0, BuildingBlock: QUQFOY_clean_sbu_3, # of connection points: 4
#     Node 15, Type 0, BuildingBlock: QUQFOY_clean_sbu_3, # of connection points: 4
#     Node 16, Type 0, BuildingBlock: QUQFOY_clean_sbu_3, # of connection points: 4
#     Node 17, Type 0, BuildingBlock: QUQFOY_clean_sbu_3, # of connection points: 4
#     Node 18, Type 0, BuildingBlock: QUQFOY_clean_sbu_3, # of connection points: 4
#     Node 19, Type 0, BuildingBlock: QUQFOY_clean_sbu_3, # of connection points: 4
#     Node 20, Type 0, BuildingBlock: QUQFOY_clean_sbu_3, # of connection points: 4
#     Node 21, Type 0, BuildingBlock: QUQFOY_clean_sbu_3, # of connection points: 4
#     Node 22, Type 0, BuildingBlock: QUQFOY_clean_sbu_3, # of connection points: 4
#     Node 23, Type 0, BuildingBlock: QUQFOY_clean_sbu_3, # of connection points: 4
#     Node 24, Type 0, BuildingBlock: QUQFOY_clean_sbu_3, # of connection points: 4
#     Node 25, Type 0, BuildingBlock: QUQFOY_clean_sbu_3, # of connection points: 4
#     Node 26, Type 0, BuildingBlock: QUQFOY_clean_sbu_3, # of connection points: 4
#     Node 27, Type 0, BuildingBlock: QUQFOY_clean_sbu_3, # of connection points: 4
#     Node 28, Type 0, BuildingBlock: QUQFOY_clean_sbu_3, # of connection points: 4
#     Node 29, Type 0, BuildingBlock: QUQFOY_clean_sbu_3, # of connection points: 4
#     Node 30, Type 0, BuildingBlock: QUQFOY_clean_sbu_3, # of connection points: 4
#     Node 31, Type 0, BuildingBlock: QUQFOY_clean_sbu_3, # of connection points: 4
#     Edge 32, Type (0, 0), BuildingBlock: ZUJKAS_clean_linker_0, # of connection points: 2
#     Edge 33, Type (0, 0), BuildingBlock: ZUJKAS_clean_linker_0, # of connection points: 2
#     Edge 34, Type (0, 0), BuildingBlock: ZUJKAS_clean_linker_0, # of connection points: 2
#     Edge 35, Type (0, 0), BuildingBlock: ZUJKAS_clean_linker_0, # of connection points: 2
#     Edge 36, Type (0, 0), BuildingBlock: ZUJKAS_clean_linker_0, # of connection points: 2
#     Edge 37, Type (0, 0), BuildingBlock: ZUJKAS_clean_linker_0, # of connection points: 2
#     Edge 38, Type (0, 0), BuildingBlock: ZUJKAS_clean_linker_0, # of connection points: 2
#     Edge 39, Type (0, 0), BuildingBlock: ZUJKAS_clean_linker_0, # of connection points: 2
#     Edge 40, Type (0, 0), BuildingBlock: ZUJKAS_clean_linker_0, # of connection points: 2
#     Edge 41, Type (0, 0), BuildingBlock: ZUJKAS_clean_linker_0, # of connection points: 2
#     Edge 42, Type (0, 0), BuildingBlock: ZUJKAS_clean_linker_0, # of connection points: 2
#     Edge 43, Type (0, 0), BuildingBlock: ZUJKAS_clean_linker_0, # of connection points: 2
#     Edge 44, Type (0, 0), BuildingBlock: ZUJKAS_clean_linker_0, # of connection points: 2
#     Edge 45, Type (0, 0), BuildingBlock: ZUJKAS_clean_linker_0, # of connection points: 2
#     Edge 46, Type (0, 0), BuildingBlock: ZUJKAS_clean_linker_0, # of connection points: 2
#     Edge 47, Type (0, 0), BuildingBlock: ZUJKAS_clean_linker_0, # of connection points: 2
#     Edge 48, Type (0, 0), BuildingBlock: ZUJKAS_clean_linker_0, # of connection points: 2
#     Edge 49, Type (0, 0), BuildingBlock: ZUJKAS_clean_linker_0, # of connection points: 2
#     Edge 50, Type (0, 0), BuildingBlock: ZUJKAS_clean_linker_0, # of connection points: 2
#     Edge 51, Type (0, 0), BuildingBlock: ZUJKAS_clean_linker_0, # of connection points: 2
#     Edge 52, Type (0, 0), BuildingBlock: ZUJKAS_clean_linker_0, # of connection points: 2
#     Edge 53, Type (0, 0), BuildingBlock: ZUJKAS_clean_linker_0, # of connection points: 2
#     Edge 54, Type (0, 0), BuildingBlock: ZUJKAS_clean_linker_0, # of connection points: 2
#     Edge 55, Type (0, 0), BuildingBlock: ZUJKAS_clean_linker_0, # of connection points: 2
#     Edge 56, Type (0, 0), BuildingBlock: ZUJKAS_clean_linker_0, # of connection points: 2
#     Edge 57, Type (0, 0), BuildingBlock: ZUJKAS_clean_linker_0, # of connection points: 2
#     Edge 58, Type (0, 0), BuildingBlock: ZUJKAS_clean_linker_0, # of connection points: 2
#     Edge 59, Type (0, 0), BuildingBlock: ZUJKAS_clean_linker_0, # of connection points: 2
#     Edge 60, Type (0, 0), BuildingBlock: ZUJKAS_clean_linker_0, # of connection points: 2
#     Edge 61, Type (0, 0), BuildingBlock: ZUJKAS_clean_linker_0, # of connection points: 2
#     Edge 62, Type (0, 0), BuildingBlock: ZUJKAS_clean_linker_0, # of connection points: 2
#     Edge 63, Type (0, 0), BuildingBlock: ZUJKAS_clean_linker_0, # of connection points: 2
#     Edge 64, Type (0, 0), BuildingBlock: ZUJKAS_clean_linker_0, # of connection points: 2
#     Edge 65, Type (0, 0), BuildingBlock: ZUJKAS_clean_linker_0, # of connection points: 2
#     Edge 66, Type (0, 0), BuildingBlock: ZUJKAS_clean_linker_0, # of connection points: 2
#     Edge 67, Type (0, 0), BuildingBlock: ZUJKAS_clean_linker_0, # of connection points: 2
#     Edge 68, Type (0, 0), BuildingBlock: ZUJKAS_clean_linker_0, # of connection points: 2
#     Edge 69, Type (0, 0), BuildingBlock: ZUJKAS_clean_linker_0, # of connection points: 2
#     Edge 70, Type (0, 0), BuildingBlock: ZUJKAS_clean_linker_0, # of connection points: 2
#     Edge 71, Type (0, 0), BuildingBlock: ZUJKAS_clean_linker_0, # of connection points: 2
#     Edge 72, Type (0, 0), BuildingBlock: ZUJKAS_clean_linker_0, # of connection points: 2
#     Edge 73, Type (0, 0), BuildingBlock: ZUJKAS_clean_linker_0, # of connection points: 2
#     Edge 74, Type (0, 0), BuildingBlock: ZUJKAS_clean_linker_0, # of connection points: 2
#     Edge 75, Type (0, 0), BuildingBlock: ZUJKAS_clean_linker_0, # of connection points: 2
#     Edge 76, Type (0, 0), BuildingBlock: ZUJKAS_clean_linker_0, # of connection points: 2
#     Edge 77, Type (0, 0), BuildingBlock: ZUJKAS_clean_linker_0, # of connection points: 2
#     Edge 78, Type (0, 0), BuildingBlock: ZUJKAS_clean_linker_0, # of connection points: 2
#     Edge 79, Type (0, 0), BuildingBlock: ZUJKAS_clean_linker_0, # of connection points: 2
#     Edge 80, Type (0, 0), BuildingBlock: ZUJKAS_clean_linker_0, # of connection points: 2
#     Edge 81, Type (0, 0), BuildingBlock: ZUJKAS_clean_linker_0, # of connection points: 2
#     Edge 82, Type (0, 0), BuildingBlock: ZUJKAS_clean_linker_0, # of connection points: 2
#     Edge 83, Type (0, 0), BuildingBlock: ZUJKAS_clean_linker_0, # of connection points: 2
#     Edge 84, Type (0, 0), BuildingBlock: ZUJKAS_clean_linker_0, # of connection points: 2
#     Edge 85, Type (0, 0), BuildingBlock: ZUJKAS_clean_linker_0, # of connection points: 2
#     Edge 86, Type (0, 0), BuildingBlock: ZUJKAS_clean_linker_0, # of connection points: 2
#     Edge 87, Type (0, 0), BuildingBlock: ZUJKAS_clean_linker_0, # of connection points: 2
#     Edge 88, Type (0, 0), BuildingBlock: ZUJKAS_clean_linker_0, # of connection points: 2
#     Edge 89, Type (0, 0), BuildingBlock: ZUJKAS_clean_linker_0, # of connection points: 2
#     Edge 90, Type (0, 0), BuildingBlock: ZUJKAS_clean_linker_0, # of connection points: 2
#     Edge 91, Type (0, 0), BuildingBlock: ZUJKAS_clean_linker_0, # of connection points: 2
#     Edge 92, Type (0, 0), BuildingBlock: ZUJKAS_clean_linker_0, # of connection points: 2
#     Edge 93, Type (0, 0), BuildingBlock: ZUJKAS_clean_linker_0, # of connection points: 2
#     Edge 94, Type (0, 0), BuildingBlock: ZUJKAS_clean_linker_0, # of connection points: 2
#     Edge 95, Type (0, 0), BuildingBlock: ZUJKAS_clean_linker_0, # of connection points: 2
# Relax obj value: 0.164
# Max RMSD: 0.156
# Mean RMSD: 0.156
data_MOF--net-uod--node1-QUQFOY_clean_sbu_3--edge1-ZUJKAS_clean_linker_0
_symmetry_space_group_name_H-M    P1
_symmetry_Int_Tables_number       1
_symmetry_cell_setting            triclinic
loop_
_symmetry_equiv_pos_as_xyz
'x, y, z'
_cell_length_a     117.87757
_cell_length_b     35.413252
_cell_length_c     82.867321
_cell_angle_alpha  89.946127
_cell_angle_beta   90.002143
_cell_angle_gamma 90.019308
loop_
_atom_site_label
_atom_site_type_symbol
_atom_site_fract_x
_atom_site_fract_y
_atom_site_fract_z
_atom_type_partial_charge
C0 C 0.037 0.29789 0.11929 0.0
O1 O 0.03684 0.30902 0.13383 0.0
Cd2 Cd 0.03838 0.37274 0.14198 0.0
O3 O 0.03793 0.32161 0.10776 0.0
Cd4 Cd 0.03951 0.39191 0.10619 0.0
C5 C 0.0645 0.39291 0.12617 0.0
O6 O 0.02478 0.40627 0.12608 0.0
O7 O 0.03631 0.45153 0.12036 0.0
O8 O 0.02665 0.39107 0.08307 0.0
C9 C 0.02696 0.44117 0.1265 0.0
O10 O 0.05833 0.38904 0.13866 0.0
C11 C 0.03199 0.41529 0.07473 0.0
O12 O 0.06003 0.39264 0.11216 0.0
O13 O 0.04141 0.42659 0.0804 0.0
C14 C 0.21552 0.90967 0.08692 0.0
O15 O 0.21659 0.88657 0.09854 0.0
Cd16 Cd 0.21208 0.82145 0.09785 0.0
O17 O 0.2127 0.89845 0.07282 0.0
Cd18 Cd 0.20969 0.83529 0.05943 0.0
C19 C 0.18518 0.82545 0.08056 0.0
O20 O 0.22276 0.79875 0.07589 0.0
O21 O 0.21099 0.76645 0.0617 0.0
O22 O 0.22343 0.8519 0.03857 0.0
C23 C 0.21954 0.76675 0.07095 0.0
O24 O 0.19174 0.8192 0.09249 0.0
C25 C 0.21786 0.83796 0.02689 0.0
O26 O 0.18924 0.83364 0.06669 0.0
O27 O 0.20786 0.82663 0.03003 0.0
C28 C 0.03568 0.89655 0.11259 0.0
O29 O 0.03482 0.87658 0.09995 0.0
Cd30 Cd 0.03777 0.81025 0.10027 0.0
O31 O 0.03793 0.88118 0.12614 0.0
Cd32 Cd 0.04126 0.81554 0.1358 0.0
C33 C 0.06518 0.80751 0.11374 0.0
O34 O 0.02576 0.78499 0.12113 0.0
O35 O 0.03884 0.74865 0.13061 0.0
O36 O 0.0294 0.82937 0.15925 0.0
C37 C 0.02866 0.75248 0.12597 0.0
O38 O 0.05829 0.802 0.10215 0.0
C39 C 0.03525 0.81048 0.16925 0.0
O40 O 0.06143 0.81519 0.12778 0.0
O41 O 0.04469 0.79789 0.16417 0.0
C42 C 0.21552 0.29028 0.14422 0.0
O43 O 0.21653 0.3136 0.13267 0.0
Cd44 Cd 0.21227 0.37895 0.13358 0.0
O45 O 0.21277 0.30126 0.15838 0.0
Cd46 Cd 0.20966 0.3644 0.17161 0.0
C47 C 0.18533 0.37614 0.15038 0.0
O48 O 0.22302 0.40113 0.15562 0.0
O49 O 0.21096 0.43316 0.16945 0.0
O50 O 0.2228 0.3491 0.19332 0.0
C51 C 0.21971 0.43304 0.16057 0.0
O52 O 0.19187 0.38295 0.13849 0.0
C53 C 0.21668 0.36252 0.20454 0.0
O54 O 0.18941 0.36669 0.16408 0.0
O55 O 0.2067 0.37262 0.20069 0.0
C56 C 0.96031 0.6567 0.88794 0.0
O57 O 0.95966 0.63134 0.87715 0.0
Cd58 Cd 0.95833 0.56489 0.88122 0.0
O59 O 0.9603 0.64783 0.9029 0.0
Cd60 Cd 0.95909 0.58693 0.91837 0.0
C61 C 0.93335 0.56346 0.90235 0.0
O62 O 0.97213 0.55139 0.90124 0.0
O63 O 0.96283 0.51914 0.91892 0.0
O64 O 0.97315 0.60879 0.93799 0.0
C65 C 0.97074 0.52043 0.90861 0.0
O66 O 0.93892 0.55373 0.88988 0.0
C67 C 0.96799 0.59579 0.95025 0.0
O68 O 0.93834 0.57898 0.91431 0.0
O69 O 0.95804 0.58309 0.94787 0.0
C70 C 0.7943 0.05386 0.87179 0.0
O71 O 0.79198 0.07031 0.8586 0.0
Cd72 Cd 0.79335 0.13666 0.85535 0.0
O73 O 0.79681 0.07284 0.88437 0.0
Cd74 Cd 0.79736 0.14157 0.89109 0.0
C75 C 0.82063 0.15339 0.86802 0.0
O76 O 0.78078 0.16164 0.87539 0.0
O77 O 0.79213 0.20556 0.88339 0.0
O78 O 0.78638 0.12821 0.91541 0.0
C79 C 0.78233 0.19623 0.87848 0.0
O80 O 0.81359 0.15228 0.85639 0.0
C81 C 0.79169 0.15113 0.92443 0.0
O82 O 0.81722 0.14878 0.88248 0.0
O83 O 0.80052 0.16632 0.91849 0.0
C84 C 0.96725 0.0479 0.84322 0.0
O85 O 0.96784 0.06944 0.85543 0.0
Cd86 Cd 0.96685 0.13611 0.85619 0.0
O87 O 0.96631 0.06164 0.829 0.0
Cd88 Cd 0.96549 0.12782 0.8176 0.0
C89 C 0.94078 0.14563 0.83777 0.0
O90 O 0.97954 0.15522 0.83566 0.0
O91 O 0.96965 0.19499 0.82211 0.0
O92 O 0.97819 0.11192 0.79516 0.0
C93 C 0.97791 0.18915 0.83157 0.0
O94 O 0.94702 0.14931 0.85021 0.0
C95 C 0.97254 0.12959 0.78451 0.0
O96 O 0.9451 0.13602 0.82425 0.0
O97 O 0.96302 0.14293 0.78891 0.0
C98 C 0.78662 0.64981 0.87244 0.0
O99 O 0.78412 0.63539 0.88599 0.0
Cd100 Cd 0.78581 0.56944 0.89083 0.0
O101 O 0.78902 0.6289 0.86041 0.0
Cd102 Cd 0.78899 0.55962 0.85533 0.0
C103 C 0.81288 0.55292 0.87715 0.0
O104 O 0.77326 0.53806 0.87255 0.0
O105 O 0.78575 0.4966 0.86553 0.0
O106 O 0.77656 0.56762 0.8321 0.0
C107 C 0.7758 0.50363 0.87053 0.0
O108 O 0.80608 0.55447 0.88906 0.0
C109 C 0.78179 0.54479 0.82295 0.0
O110 O 0.80914 0.55597 0.86277 0.0
O111 O 0.79121 0.53216 0.82815 0.0
C112 C 0.03112 0.82376 0.64159 0.0
O113 O 0.03061 0.83587 0.65597 0.0
Cd114 Cd 0.03297 0.90106 0.66198 0.0
O115 O 0.03244 0.84682 0.62991 0.0
Cd116 Cd 0.03408 0.91682 0.62716 0.0
C117 C 0.05929 0.91695 0.64604 0.0
O118 O 0.01949 0.93692 0.64629 0.0
O119 O 0.03226 0.97823 0.64039 0.0
O120 O 0.02059 0.91564 0.60483 0.0
C121 C 0.02235 0.97134 0.64558 0.0
O122 O 0.05325 0.91424 0.65873 0.0
C123 C 0.02621 0.93678 0.5954 0.0
O124 O 0.05461 0.91666 0.63219 0.0
O125 O 0.03601 0.94661 0.60018 0.0
C126 C 0.213 0.44288 0.60355 0.0
O127 O 0.21119 0.42652 0.61695 0.0
Cd128 Cd 0.20884 0.36122 0.62211 0.0
O129 O 0.21372 0.42384 0.59049 0.0
Cd130 Cd 0.21252 0.35458 0.584 0.0
C131 C 0.18549 0.34514 0.59823 0.0
O132 O 0.22381 0.33393 0.6071 0.0
O133 O 0.21539 0.29014 0.5937 0.0
O134 O 0.22805 0.36054 0.56461 0.0
C135 C 0.22249 0.29906 0.6045 0.0
O136 O 0.19001 0.3458 0.61218 0.0
C137 C 0.22355 0.33975 0.55389 0.0
O138 O 0.19153 0.35004 0.58562 0.0
O139 O 0.21341 0.32919 0.55645 0.0
C140 C 0.0357 0.42592 0.60912 0.0
O141 O 0.03566 0.41615 0.59441 0.0
Cd142 Cd 0.03766 0.35197 0.58644 0.0
O143 O 0.03661 0.40103 0.62018 0.0
Cd144 Cd 0.03825 0.33076 0.62072 0.0
C145 C 0.06363 0.33127 0.60215 0.0
O146 O 0.02364 0.31515 0.60071 0.0
O147 O 0.03588 0.27165 0.60585 0.0
O148 O 0.02513 0.33048 0.64364 0.0
C149 C 0.02616 0.28041 0.60047 0.0
O150 O 0.05774 0.33575 0.58943 0.0
C151 C 0.03046 0.30621 0.65196 0.0
O152 O 0.05882 0.33076 0.61592 0.0
O153 O 0.0399 0.29507 0.64631 0.0
C154 C 0.21186 0.83191 0.63997 0.0
O155 O 0.21086 0.85938 0.63022 0.0
Cd156 Cd 0.20664 0.92264 0.63788 0.0
O157 O 0.21082 0.83706 0.65516 0.0
Cd158 Cd 0.20726 0.89205 0.67344 0.0
C159 C 0.18122 0.90857 0.65728 0.0
O160 O 0.21943 0.93706 0.65931 0.0
O161 O 0.20853 0.95979 0.67786 0.0
O162 O 0.22192 0.86935 0.69174 0.0
C163 C 0.21684 0.96447 0.66839 0.0
O164 O 0.18669 0.92212 0.64537 0.0
C165 C 0.21648 0.87642 0.7046 0.0
O166 O 0.18648 0.89378 0.66917 0.0
O167 O 0.20616 0.88609 0.70294 0.0
C168 C 0.96457 0.14092 0.39538 0.0
O169 O 0.9643 0.11329 0.38564 0.0
Cd170 Cd 0.96 0.04963 0.39232 0.0
O171 O 0.9628 0.13584 0.41046 0.0
Cd172 Cd 0.95874 0.08036 0.42857 0.0
C173 C 0.93363 0.06479 0.40936 0.0
O174 O 0.9713 0.03574 0.41525 0.0
O175 O 0.95939 0.01192 0.43218 0.0
O176 O 0.97284 0.10288 0.44784 0.0
C177 C 0.96802 0.00737 0.4233 0.0
O178 O 0.9398 0.05125 0.39816 0.0
C179 C 0.96709 0.09512 0.46036 0.0
O180 O 0.93815 0.07936 0.42191 0.0
O181 O 0.95686 0.08496 0.45809 0.0
C182 C 0.79099 0.56187 0.37055 0.0
O183 O 0.78943 0.58137 0.3579 0.0
Cd184 Cd 0.79252 0.64747 0.35736 0.0
O185 O 0.7937 0.57759 0.38385 0.0
Cd186 Cd 0.79612 0.64391 0.39327 0.0
C187 C 0.81995 0.65253 0.37113 0.0
O188 O 0.78028 0.67077 0.37822 0.0
O189 O 0.79241 0.7104 0.38784 0.0
O190 O 0.78448 0.62871 0.41673 0.0
C191 C 0.78244 0.70409 0.38276 0.0
O192 O 0.81309 0.65612 0.35936 0.0
C193 C 0.79004 0.64886 0.42661 0.0
O194 O 0.81619 0.64631 0.38529 0.0
O195 O 0.79931 0.66275 0.42148 0.0
C196 C 0.96948 0.5277 0.35012 0.0
O197 O 0.9691 0.54685 0.36306 0.0
Cd198 Cd 0.96603 0.61229 0.36649 0.0
O199 O 0.96839 0.54371 0.33636 0.0
Cd200 Cd 0.96594 0.6113 0.32707 0.0
C201 C 0.94042 0.6199 0.34625 0.0
O202 O 0.97828 0.63937 0.34728 0.0
O203 O 0.96794 0.6783 0.33401 0.0
O204 O 0.98009 0.60359 0.30567 0.0
C205 C 0.9757 0.67329 0.34435 0.0
O206 O 0.94628 0.62178 0.35914 0.0
C207 C 0.97444 0.62071 0.29486 0.0
O208 O 0.9452 0.61407 0.33263 0.0
O209 O 0.96437 0.63014 0.29854 0.0
C210 C 0.78521 0.15935 0.36633 0.0
O211 O 0.783 0.14658 0.38028 0.0
Cd212 Cd 0.78622 0.08285 0.38762 0.0
O213 O 0.78838 0.13748 0.35498 0.0
Cd214 Cd 0.79014 0.06777 0.35158 0.0
C215 C 0.81376 0.06917 0.3745 0.0
O216 O 0.77459 0.04804 0.36944 0.0
O217 O 0.78672 0.00534 0.3626 0.0
O218 O 0.77807 0.0739 0.3279 0.0
C219 C 0.77706 0.01338 0.36836 0.0
O220 O 0.80673 0.07288 0.38606 0.0
C221 C 0.78338 0.05041 0.31917 0.0
O222 O 0.81025 0.06765 0.35996 0.0
O223 O 0.79264 0.03769 0.32485 0.0
C224 C 0.53317 0.30054 0.6189 0.0
O225 O 0.53151 0.32135 0.63114 0.0
Cd226 Cd 0.53244 0.38833 0.63101 0.0
O227 O 0.53502 0.31513 0.60505 0.0
Cd228 Cd 0.53617 0.38042 0.59391 0.0
C229 C 0.55966 0.39694 0.61668 0.0
O230 O 0.52039 0.40746 0.60936 0.0
O231 O 0.53137 0.44655 0.59674 0.0
O232 O 0.52485 0.36181 0.57058 0.0
C233 C 0.52208 0.44035 0.60392 0.0
O234 O 0.55268 0.40085 0.62828 0.0
C235 C 0.53058 0.38061 0.56039 0.0
O236 O 0.55612 0.38807 0.60263 0.0
O237 O 0.53978 0.39513 0.56544 0.0
C238 C 0.72271 0.93804 0.60366 0.0
O239 O 0.72282 0.92138 0.61725 0.0
Cd240 Cd 0.72129 0.85604 0.62319 0.0
O241 O 0.72185 0.91931 0.59053 0.0
Cd242 Cd 0.72061 0.85043 0.58332 0.0
C243 C 0.69566 0.83898 0.60411 0.0
O244 O 0.73372 0.82952 0.60412 0.0
O245 O 0.72534 0.78543 0.59096 0.0
O246 O 0.73395 0.85964 0.56112 0.0
C247 C 0.73254 0.79459 0.60158 0.0
O248 O 0.7017 0.84097 0.61682 0.0
C249 C 0.72849 0.83989 0.55096 0.0
O250 O 0.70013 0.84316 0.59016 0.0
O251 O 0.71877 0.82814 0.55534 0.0
C252 C 0.54971 0.90261 0.6355 0.0
O253 O 0.5493 0.88561 0.62204 0.0
Cd254 Cd 0.54946 0.81947 0.61806 0.0
O255 O 0.55049 0.8841 0.64869 0.0
Cd256 Cd 0.55187 0.81545 0.65551 0.0
C257 C 0.5759 0.80295 0.63319 0.0
O258 O 0.53629 0.79757 0.63776 0.0
O259 O 0.54596 0.75169 0.64784 0.0
O260 O 0.54048 0.82705 0.67964 0.0
C261 C 0.53705 0.76266 0.64068 0.0
O262 O 0.56928 0.80209 0.62109 0.0
C263 C 0.54594 0.80454 0.6887 0.0
O264 O 0.57201 0.80947 0.64728 0.0
O265 O 0.55493 0.79033 0.68285 0.0
C266 C 0.71136 0.32785 0.63721 0.0
O267 O 0.71099 0.35508 0.62725 0.0
Cd268 Cd 0.7058 0.41793 0.63409 0.0
O269 O 0.70932 0.3333 0.65217 0.0
Cd270 Cd 0.70467 0.38785 0.67027 0.0
C271 C 0.67952 0.39963 0.651 0.0
O272 O 0.71696 0.43365 0.65701 0.0
O273 O 0.7051 0.45587 0.67448 0.0
O274 O 0.7191 0.36322 0.68848 0.0
C275 C 0.71366 0.46121 0.66554 0.0
O276 O 0.68566 0.41302 0.63973 0.0
C277 C 0.714 0.37215 0.7014 0.0
O278 O 0.68404 0.38662 0.66386 0.0
O279 O 0.70385 0.38382 0.69993 0.0
C280 C 0.45917 0.65937 0.38393 0.0
O281 O 0.45888 0.63978 0.37113 0.0
Cd282 Cd 0.4577 0.5732 0.37046 0.0
O283 O 0.45873 0.64345 0.39775 0.0
Cd284 Cd 0.4575 0.57593 0.40673 0.0
C285 C 0.43211 0.56087 0.38879 0.0
O286 O 0.4723 0.55311 0.38869 0.0
O287 O 0.46178 0.51032 0.39954 0.0
O288 O 0.47047 0.58928 0.4291 0.0
C289 C 0.47103 0.51893 0.39265 0.0
O290 O 0.43791 0.5575 0.37594 0.0
C291 C 0.46547 0.56808 0.43921 0.0
O292 O 0.43695 0.56982 0.40199 0.0
O293 O 0.45603 0.55425 0.43481 0.0
C294 C 0.29778 0.07535 0.38343 0.0
O295 O 0.29731 0.09873 0.37184 0.0
Cd296 Cd 0.30001 0.16496 0.37564 0.0
O297 O 0.29948 0.08686 0.39781 0.0
Cd298 Cd 0.30217 0.14887 0.41123 0.0
C299 C 0.32675 0.16589 0.39142 0.0
O300 O 0.28732 0.18414 0.39681 0.0
O301 O 0.29884 0.21601 0.41194 0.0
O302 O 0.28949 0.12659 0.43236 0.0
C303 C 0.28943 0.21408 0.40463 0.0
O304 O 0.32029 0.17386 0.37961 0.0
C305 C 0.29487 0.14198 0.44388 0.0
O306 O 0.32255 0.15407 0.40467 0.0
O307 O 0.30455 0.15567 0.4405 0.0
C308 C 0.47422 0.05778 0.36402 0.0
O309 O 0.47595 0.07677 0.37676 0.0
Cd310 Cd 0.47411 0.14334 0.37819 0.0
O311 O 0.47217 0.07437 0.35066 0.0
Cd312 Cd 0.47127 0.14149 0.34144 0.0
C313 C 0.44717 0.15342 0.36268 0.0
O314 O 0.48634 0.16931 0.35807 0.0
O315 O 0.47392 0.20741 0.34807 0.0
O316 O 0.48382 0.12865 0.31872 0.0
C317 C 0.48354 0.20286 0.35462 0.0
O318 O 0.45383 0.15547 0.37474 0.0
C319 C 0.47819 0.14755 0.30845 0.0
O320 O 0.45106 0.14666 0.34862 0.0
O321 O 0.46863 0.16012 0.31306 0.0
C322 C 0.28484 0.67605 0.37264 0.0
O323 O 0.28456 0.66175 0.38669 0.0
Cd324 Cd 0.28519 0.59631 0.39314 0.0
O325 O 0.2852 0.6549 0.36019 0.0
Cd326 Cd 0.28536 0.58527 0.35575 0.0
C327 C 0.31057 0.57466 0.37525 0.0
O328 O 0.27135 0.56677 0.37642 0.0
O329 O 0.28135 0.52252 0.36558 0.0
O330 O 0.27195 0.59047 0.33342 0.0
C331 C 0.27291 0.53181 0.37417 0.0
O332 O 0.30475 0.57747 0.38814 0.0
C333 C 0.27739 0.56894 0.32394 0.0
O334 O 0.30584 0.57849 0.3615 0.0
O335 O 0.28713 0.55821 0.32862 0.0
C336 C 0.5335 0.77683 0.11526 0.0
O337 O 0.53297 0.78874 0.1297 0.0
Cd338 Cd 0.53413 0.85287 0.1382 0.0
O339 O 0.53453 0.79991 0.10352 0.0
Cd340 Cd 0.53553 0.86986 0.10059 0.0
C341 C 0.56013 0.87618 0.12224 0.0
O342 O 0.52113 0.88535 0.12118 0.0
O343 O 0.53056 0.93157 0.11072 0.0
O344 O 0.52288 0.86447 0.07744 0.0
C345 C 0.52241 0.92061 0.1195 0.0
O346 O 0.55388 0.8707 0.13455 0.0
C347 C 0.52825 0.88745 0.0685 0.0
O348 O 0.55588 0.87562 0.10807 0.0
O349 O 0.53766 0.8996 0.0739 0.0
C350 C 0.72064 0.42197 0.10357 0.0
O351 O 0.72156 0.40255 0.1164 0.0
Cd352 Cd 0.7216 0.33581 0.1191 0.0
O353 O 0.71989 0.4059 0.08981 0.0
Cd354 Cd 0.71986 0.33871 0.08026 0.0
C355 C 0.69557 0.32038 0.10133 0.0
O356 O 0.7343 0.31526 0.09887 0.0
O357 O 0.72473 0.27324 0.08601 0.0
O358 O 0.73243 0.35388 0.05773 0.0
C359 C 0.73299 0.28087 0.09522 0.0
O360 O 0.70198 0.31851 0.11367 0.0
C361 C 0.72714 0.33406 0.04741 0.0
O362 O 0.6996 0.3295 0.08755 0.0
O363 O 0.71775 0.31993 0.05192 0.0
C364 C 0.54458 0.38106 0.12313 0.0
O365 O 0.54476 0.35602 0.11219 0.0
Cd366 Cd 0.54893 0.29125 0.11808 0.0
O367 O 0.54653 0.37215 0.13777 0.0
Cd368 Cd 0.55095 0.31381 0.15302 0.0
C369 C 0.5757 0.29915 0.13328 0.0
O370 O 0.53705 0.27168 0.14011 0.0
O371 O 0.54946 0.24637 0.15611 0.0
O372 O 0.53772 0.33713 0.1732 0.0
C373 C 0.54005 0.24396 0.14882 0.0
O374 O 0.56932 0.28692 0.12207 0.0
C375 C 0.54327 0.32512 0.18527 0.0
O376 O 0.57138 0.31328 0.14603 0.0
O377 O 0.55321 0.31285 0.18247 0.0
C378 C 0.70901 0.81703 0.13689 0.0
O379 O 0.70888 0.84176 0.12579 0.0
Cd380 Cd 0.70653 0.9078 0.13001 0.0
O381 O 0.70808 0.82668 0.15168 0.0
Cd382 Cd 0.70599 0.88724 0.16688 0.0
C383 C 0.68059 0.90534 0.14883 0.0
O384 O 0.71963 0.92336 0.15086 0.0
O385 O 0.70948 0.95488 0.16788 0.0
O386 O 0.71966 0.86295 0.18642 0.0
C387 C 0.71795 0.95377 0.15851 0.0
O388 O 0.68659 0.91469 0.13669 0.0
C389 C 0.71481 0.87697 0.19871 0.0
O390 O 0.68528 0.89241 0.16157 0.0
O391 O 0.70507 0.89145 0.19644 0.0
C392 C 0.45543 0.20319 0.9051 0.0
O393 O 0.4538 0.19041 0.89098 0.0
Cd394 Cd 0.452 0.12587 0.88357 0.0
O395 O 0.45586 0.18091 0.9172 0.0
Cd396 Cd 0.454 0.11109 0.92089 0.0
C397 C 0.42775 0.10228 0.90386 0.0
O398 O 0.46661 0.09482 0.89834 0.0
O399 O 0.45782 0.04878 0.90988 0.0
O400 O 0.46838 0.11518 0.94208 0.0
C401 C 0.46541 0.05957 0.9001 0.0
O402 O 0.43289 0.10638 0.89047 0.0
C403 C 0.46341 0.09307 0.95185 0.0
O404 O 0.43315 0.10524 0.91715 0.0
O405 O 0.45357 0.08188 0.94783 0.0
C406 C 0.2924 0.52404 0.87001 0.0
O407 O 0.294 0.53004 0.85509 0.0
Cd408 Cd 0.29755 0.59066 0.84409 0.0
O409 O 0.2926 0.55137 0.88001 0.0
Cd410 Cd 0.29515 0.62131 0.8778 0.0
C411 C 0.32195 0.61572 0.86372 0.0
O412 O 0.28296 0.63146 0.85414 0.0
O413 O 0.29436 0.67682 0.86024 0.0
O414 O 0.27967 0.62741 0.89726 0.0
C415 C 0.28563 0.66588 0.85262 0.0
O416 O 0.31709 0.60708 0.85051 0.0
C417 C 0.28431 0.65223 0.90608 0.0
O418 O 0.3161 0.62052 0.87649 0.0
O419 O 0.29441 0.66145 0.90239 0.0
C420 C 0.4743 0.58675 0.87687 0.0
O421 O 0.47319 0.61437 0.88649 0.0
Cd422 Cd 0.46832 0.67679 0.87797 0.0
O423 O 0.47345 0.59169 0.86166 0.0
Cd424 Cd 0.4702 0.64561 0.84291 0.0
C425 C 0.44358 0.65615 0.85782 0.0
O426 O 0.48113 0.69454 0.85694 0.0
O427 O 0.46983 0.71279 0.83788 0.0
O428 O 0.48585 0.62372 0.82619 0.0
C429 C 0.47793 0.72041 0.84737 0.0
O430 O 0.44854 0.67164 0.86976 0.0
C431 C 0.48096 0.63018 0.81282 0.0
O432 O 0.44936 0.64215 0.84625 0.0
O433 O 0.47051 0.639 0.81346 0.0
C434 C 0.27703 0.1318 0.89136 0.0
O435 O 0.27634 0.11334 0.90444 0.0
Cd436 Cd 0.28017 0.04739 0.9047 0.0
O437 O 0.27925 0.11479 0.87818 0.0
Cd438 Cd 0.28265 0.04813 0.86998 0.0
C439 C 0.30725 0.04692 0.88994 0.0
O440 O 0.26791 0.01616 0.88542 0.0
O441 O 0.28228 0.98208 0.87862 0.0
O442 O 0.27039 0.05784 0.84652 0.0
C443 C 0.27191 -0.01632 0.88259 0.0
O444 O 0.30088 0.0414 0.90214 0.0
C445 C 0.27636 0.0386 0.83682 0.0
O446 O 0.30287 0.05268 0.87612 0.0
O447 O 0.28584 0.02681 0.8421 0.0
H448 H 0.00597 0.75219 0.11828 0.0
H449 H 0.99191 0.70355 0.12544 0.0
H450 H 0.0183 0.63841 0.14843 0.0
H451 H 0.03219 0.68601 0.14136 0.0
H452 H 0.99259 0.62938 0.11548 0.0
H453 H 0.99288 0.628 0.18137 0.0
H454 H 0.99601 0.67028 0.16987 0.0
H455 H 0.00712 0.63718 0.17493 0.0
C456 C 0.00871 0.72744 0.1249 0.0
C457 C 0.02019 0.72274 0.12917 0.0
C458 C 1.00066 0.70005 0.12916 0.0
C459 C 0.00398 0.66813 0.13801 0.0
C460 C 0.01544 0.66356 0.14218 0.0
H461 H 0.03153 0.51257 0.13608 0.0
H462 H 0.01794 0.5615 0.14309 0.0
C463 C 0.02345 0.69048 0.13783 0.0
C464 C 0.99624 0.63597 0.1408 0.0
H465 H 0.99755 0.56441 0.16796 0.0
C466 C 0.99292 0.61544 0.12713 0.0
C467 C 0.99602 0.6181 0.15605 0.0
C468 C 0.99807 0.63987 0.17139 0.0
C469 C 0.9924 0.57593 0.12778 0.0
C470 C 0.99542 0.55761 0.14231 0.0
C471 C 0.99569 0.57858 0.15665 0.0
C472 C 0.00319 0.52516 0.14129 0.0
C473 C 0.99094 0.55411 0.11232 0.0
C474 C 0.9994 0.48834 0.13831 0.0
C475 C 0.00724 0.46008 0.13437 0.0
C476 C 0.01888 0.46873 0.13312 0.0
C477 C 0.02263 0.50519 0.13687 0.0
C478 C 0.01487 0.53305 0.141 0.0
H479 H 0.98648 0.57113 0.103 0.0
H480 H 0.99941 0.54618 0.10753 0.0
H481 H 0.98607 0.52776 0.11454 0.0
H482 H 0.99041 0.48192 0.13836 0.0
H483 H 0.00415 0.43209 0.13147 0.0
H484 H 0.23221 0.75941 0.0983 0.0
H485 H 0.23655 0.70092 0.11263 0.0
H486 H 0.22122 0.63656 0.07417 0.0
H487 H 0.2165 0.69508 0.06003 0.0
H488 H 0.21168 0.62234 0.1025 0.0
H489 H 0.25835 0.61328 0.10937 0.0
H490 H 0.25274 0.6579 0.1158 0.0
H491 H 0.25164 0.64434 0.09493 0.0
C492 C 0.23 0.73274 0.09272 0.0
C493 C 0.22388 0.73167 0.07818 0.0
C494 C 0.23259 0.69932 0.10086 0.0
C495 C 0.2293 0.66441 0.0944 0.0
C496 C 0.22386 0.66327 0.07933 0.0
H497 H 0.23426 0.44044 0.13515 0.0
H498 H 0.23838 0.49819 0.12004 0.0
C499 C 0.22113 0.69665 0.07131 0.0
C500 C 0.22978 0.62997 0.10444 0.0
H501 H 0.24722 0.57427 0.12716 0.0
C502 C 0.21949 0.61163 0.10773 0.0
C503 C 0.23996 0.61611 0.11126 0.0
C504 C 0.25131 0.63372 0.10754 0.0
C505 C 0.21905 0.58012 0.11783 0.0
C506 C 0.22913 0.56719 0.1252 0.0
C507 C 0.2395 0.58486 0.12169 0.0
C508 C 0.22891 0.53445 0.13615 0.0
C509 C 0.20777 0.56075 0.12045 0.0
C510 C 0.22268 0.5363 0.15055 0.0
C511 C 0.2202 0.50332 0.15906 0.0
C512 C 0.22401 0.46825 0.15335 0.0
C513 C 0.23113 0.46699 0.13973 0.0
C514 C 0.23353 0.49999 0.13115 0.0
H515 H 0.20146 0.56874 0.11109 0.0
H516 H 0.20876 0.52957 0.12036 0.0
H517 H 0.20431 0.56912 0.13238 0.0
H518 H 0.21919 0.56277 0.15464 0.0
H519 H 0.21486 0.50515 0.16965 0.0
H520 H 0.9913 0.18503 0.85843 0.0
H521 H 0.99735 0.23787 0.87547 0.0
H522 H 0.983 0.31645 0.84136 0.0
H523 H 0.97684 0.264 0.82433 0.0
H524 H 0.00647 0.33511 0.86032 0.0
H525 H 0.96775 0.29588 0.89537 0.0
H526 H 0.97789 0.2603 0.88959 0.0
H527 H 0.96917 0.28209 0.87452 0.0
C528 C 0.98969 0.21361 0.85436 0.0
C529 C 0.98341 0.2205 0.84022 0.0
C530 C 0.99321 0.24365 0.86406 0.0
C531 C 0.99058 0.28079 0.85961 0.0
C532 C 0.98514 0.28784 0.84488 0.0
H533 H 0.98042 0.50486 0.87964 0.0
H534 H 0.98867 0.44514 0.87108 0.0
C535 C 0.98155 0.25789 0.83525 0.0
C536 C 0.99149 0.31176 0.87134 0.0
H537 H 0.97532 0.35583 0.89956 0.0
C538 C 0.99986 0.33943 0.86923 0.0
C539 C 0.98296 0.31676 0.88309 0.0
C540 C 0.97389 0.28733 0.88589 0.0
C541 C 0.99946 0.37337 0.87795 0.0
C542 C 0.9902 0.3801 0.88846 0.0
C543 C 0.98239 0.35094 0.89146 0.0
C544 C 0.98733 0.41827 0.89454 0.0
C545 C 0.0088 0.40189 0.87548 0.0
C546 C 0.98367 0.42318 0.91054 0.0
C547 C 0.9785 0.45686 0.91526 0.0
C548 C 0.97714 0.48642 0.90414 0.0
C549 C 0.98143 0.48248 0.88845 0.0
C550 C 0.98632 0.44848 0.88362 0.0
H551 H 0.01706 0.38746 0.87357 0.0
H552 H 0.007 0.41869 0.86447 0.0
H553 H 0.00961 0.42133 0.88593 0.0
H554 H 0.98431 0.40028 0.91917 0.0
H555 H 0.97535 0.45949 0.92749 0.0
H556 H 0.77803 0.43167 0.86029 0.0
H557 H 0.76419 0.38135 0.86151 0.0
H558 H 0.74029 0.45569 0.88488 0.0
H559 H 0.75432 0.50727 0.88351 0.0
H560 H 0.74392 0.3863 0.90106 0.0
H561 H 0.73471 0.35416 0.83801 0.0
H562 H 0.74906 0.37072 0.8389 0.0
H563 H 0.73766 0.40174 0.8449 0.0
C564 C 0.76982 0.43762 0.8656 0.0
C565 C 0.76729 0.47334 0.8719 0.0
C566 C 0.76181 0.40896 0.86602 0.0
C567 C 0.75104 0.41515 0.87277 0.0
C568 C 0.74844 0.45071 0.87923 0.0
H569 H 0.76041 0.18535 0.86818 0.0
H570 H 0.74468 0.23093 0.86948 0.0
C571 C 0.75649 0.47987 0.8786 0.0
C572 C 0.74365 0.38193 0.87512 0.0
H573 H 0.74392 0.29995 0.85406 0.0
C574 C 0.74315 0.36737 0.89084 0.0
C575 C 0.74182 0.35725 0.86198 0.0
C576 C 0.74069 0.37203 0.84501 0.0
C577 C 0.74424 0.32841 0.89336 0.0
C578 C 0.746 0.30478 0.87985 0.0
C579 C 0.74319 0.31838 0.86446 0.0
C580 C 0.75472 0.27487 0.88064 0.0
C581 C 0.74552 0.31377 0.91033 0.0
C582 C 0.76562 0.28498 0.88596 0.0
C583 C 0.77458 0.25962 0.88493 0.0
C584 C 0.77287 0.22346 0.87852 0.0
C585 C 0.76196 0.21315 0.87314 0.0
C586 C 0.75295 0.23889 0.87405 0.0
H587 H 0.73934 0.32788 0.91845 0.0
H588 H 0.74423 0.28272 0.9109 0.0
H589 H 0.75415 0.32051 0.91485 0.0
H590 H 0.76732 0.31313 0.89048 0.0
H591 H 0.78285 0.26844 0.8892 0.0
H592 H 0.02605 0.04462 0.65324 0.0
H593 H 0.01387 0.09757 0.64624 0.0
H594 H 0.98762 0.02042 0.63102 0.0
H595 H 0.99982 0.96701 0.63831 0.0
H596 H 0.99489 0.06472 0.6066 0.0
H597 H 0.98549 0.15649 0.65756 0.0
H598 H 1.00004 0.14279 0.65988 0.0
H599 H 0.98902 0.10729 0.66047 0.0
C600 C 0.01749 0.03896 0.6491 0.0
C601 C 0.0139 0.00187 0.64621 0.0
C602 C 0.01047 0.06925 0.64521 0.0
C603 C 0.99978 0.063 0.63818 0.0
C604 C 0.99578 0.02587 0.63659 0.0
H605 H 0.00315 0.28722 0.60337 0.0
H606 H 0.98981 0.23509 0.60779 0.0
C607 C 0.00276 -0.00458 0.64077 0.0
C608 C 0.99441 0.09457 0.6293 0.0
H609 H 0.99398 0.19004 0.6331 0.0
C610 C 0.99411 0.09206 0.61239 0.0
C611 C 0.9929 0.13011 0.63668 0.0
C612 C 0.99176 0.13409 0.65469 0.0
C613 C 0.9946 0.12473 0.60285 0.0
C614 C 0.99564 0.16018 0.6105 0.0
C615 C 0.99362 0.16277 0.62717 0.0
C616 C 0.00211 0.19127 0.60286 0.0
C617 C 0.99538 0.12087 0.58479 0.0
C618 C 0.01332 0.18397 0.59801 0.0
C619 C 0.02094 0.21351 0.59565 0.0
C620 C 0.0175 0.25093 0.5981 0.0
C621 C 0.00601 0.25855 0.60134 0.0
C622 C 0.99837 0.22883 0.60387 0.0
H623 H 0.99031 0.09639 0.58052 0.0
H624 H 0.99242 0.1469 0.5786 0.0
H625 H 0.00434 0.11577 0.5814 0.0
H626 H 0.01654 0.15535 0.59759 0.0
H627 H 0.02974 0.20688 0.59315 0.0
H628 H 0.22856 -0.00715 0.64295 0.0
H629 H 0.2368 0.05555 0.64053 0.0
H630 H 0.2278 0.0794 0.69003 0.0
H631 H 0.21889 0.01714 0.69211 0.0
H632 H 0.22021 0.13114 0.67283 0.0
H633 H 0.26388 0.1139 0.652 0.0
H634 H 0.25536 0.08464 0.63927 0.0
H635 H 0.2561 0.0749 0.66068 0.0
C636 C 0.22852 0.01125 0.65338 0.0
C637 C 0.22295 0.00057 0.66761 0.0
C638 C 0.23343 0.04692 0.65211 0.0
C639 C 0.23317 0.07212 0.66522 0.0
C640 C 0.22818 0.06045 0.67978 0.0
H641 H 0.23303 0.30974 0.63356 0.0
H642 H 0.23949 0.26051 0.65232 0.0
C643 C 0.22301 0.02506 0.68092 0.0
C644 C 0.23605 0.11237 0.66251 0.0
H645 H 0.25295 0.16659 0.63844 0.0
C646 C 0.22765 0.13929 0.66595 0.0
C647 C 0.24583 0.12354 0.6538 0.0
C648 C 0.25583 0.09762 0.65144 0.0
C649 C 0.22799 0.17527 0.659 0.0
C650 C 0.2369 0.1842 0.64828 0.0
C651 C 0.24602 0.15922 0.64646 0.0
C652 C 0.23535 0.21439 0.6363 0.0
C653 C 0.21819 0.20196 0.66169 0.0
C654 C 0.23115 0.20445 0.62107 0.0
C655 C 0.22731 0.23219 0.6105 0.0
C656 C 0.2277 0.27035 0.61498 0.0
C657 C 0.23258 0.28046 0.62986 0.0
C658 C 0.23633 0.25252 0.64054 0.0
H659 H 0.21213 0.19124 0.67089 0.0
H660 H 0.22142 0.22986 0.6657 0.0
H661 H 0.21354 0.20629 0.65018 0.0
H662 H 0.23026 0.17502 0.6177 0.0
H663 H 0.22371 0.22368 0.59903 0.0
H664 H 0.96552 0.94479 0.44218 0.0
H665 H 0.97224 0.88085 0.43636 0.0
H666 H 0.98815 0.92155 0.39275 0.0
H667 H 0.98191 -0.01462 0.39887 0.0
H668 H 0.96491 0.84344 0.41226 0.0
H669 H 0.01125 0.84633 0.40574 0.0
H670 H 0.00363 0.88393 0.4157 0.0
H671 H 0.0055 0.88431 0.39407 0.0
C672 C 0.97068 0.94012 0.43156 0.0
C673 C 0.97309 0.96984 0.42086 0.0
C674 C 0.97458 0.90368 0.42831 0.0
C675 C 0.98085 0.89639 0.41424 0.0
C676 C 0.98367 0.92651 0.40395 0.0
H677 H 0.97142 0.74821 0.34078 0.0
H678 H 0.97478 0.79802 0.36057 0.0
C679 C 0.97994 0.96298 0.40733 0.0
C680 C 0.98258 0.85714 0.40863 0.0
H681 H 0.00109 0.80278 0.38711 0.0
C682 C 0.97294 0.83406 0.40729 0.0
C683 C 0.99306 0.84442 0.40229 0.0
C684 C 0.00395 0.86601 0.40472 0.0
C685 C 0.97324 0.80063 0.39837 0.0
C686 C 0.98335 0.79047 0.3904 0.0
C687 C 0.99328 0.81131 0.393 0.0
C688 C 0.98317 0.76145 0.37774 0.0
C689 C 0.96252 0.7777 0.39657 0.0
C690 C 0.98717 0.7249 0.38075 0.0
C691 C 0.98526 0.69631 0.36945 0.0
C692 C 0.9793 0.70411 0.3551 0.0
C693 C 0.97594 0.74132 0.35179 0.0
C694 C 0.97787 0.76977 0.36303 0.0
H695 H 0.9563 0.78411 0.40627 0.0
H696 H 0.95851 0.78439 0.38479 0.0
H697 H 0.96443 0.747 0.39678 0.0
H698 H 0.99126 0.71818 0.3921 0.0
H699 H 0.98799 0.66786 0.37228 0.0
H700 H 0.78458 0.77554 0.39414 0.0
H701 H 0.76979 0.8223 0.39763 0.0
H702 H 0.74488 0.74403 0.37921 0.0
H703 H 0.75986 0.6967 0.37543 0.0
H704 H 0.74329 0.8093 0.36423 0.0
H705 H 0.74431 0.8458 0.4279 0.0
H706 H 0.75882 0.83823 0.42248 0.0
H707 H 0.74878 0.79978 0.42083 0.0
C708 C 0.77596 0.76805 0.39093 0.0
C709 C 0.77341 0.73259 0.38438 0.0
C710 C 0.76743 0.79456 0.39327 0.0
C711 C 0.7561 0.78621 0.38928 0.0
C712 C 0.75349 0.75072 0.38276 0.0
H713 H 0.75682 0.02022 0.3846 0.0
H714 H 0.74308 0.96949 0.39038 0.0
C715 C 0.76208 0.72399 0.38041 0.0
C716 C 0.74778 0.81747 0.38925 0.0
H717 H 0.74831 0.90205 0.40837 0.0
C718 C 0.7437 0.8292 0.37416 0.0
C719 C 0.74746 0.84314 0.40229 0.0
C720 C 0.74995 0.83072 0.41932 0.0
C721 C 0.7424 0.86775 0.37089 0.0
C722 C 0.74561 0.89402 0.38287 0.0
C723 C 0.74649 0.88179 0.39891 0.0
C724 C 0.7528 0.9263 0.3782 0.0
C725 C 0.73983 0.8802 0.3539 0.0
C726 C 0.76292 0.91841 0.36992 0.0
C727 C 0.7708 0.94669 0.36696 0.0
C728 C 0.76875 -0.01635 0.3722 0.0
C729 C 0.75859 -0.00816 0.38044 0.0
C730 C 0.75071 0.96313 0.38362 0.0
H731 H 0.73324 0.86171 0.34848 0.0
H732 H 0.73689 0.91 0.35356 0.0
H733 H 0.7476 0.87763 0.34642 0.0
H734 H 0.76491 0.88989 0.36611 0.0
H735 H 0.77851 0.9395 0.36054 0.0
H736 H 0.53523 0.68859 0.64876 0.0
H737 H 0.52101 0.64357 0.63949 0.0
H738 H 0.50431 0.73139 0.61234 0.0
H739 H 0.51857 0.77702 0.62165 0.0
H740 H 0.49457 0.64556 0.63917 0.0
H741 H 0.51626 0.64848 0.57936 0.0
H742 H 0.52366 0.66703 0.59668 0.0
H743 H 0.51141 0.69114 0.589 0.0
C744 C 0.52849 0.69847 0.64094 0.0
C745 C 0.52811 0.7361 0.63569 0.0
C746 C 0.52029 0.67287 0.63583 0.0
C747 C 0.51162 0.68435 0.62533 0.0
C748 C 0.51092 0.7222 0.62053 0.0
H749 H 0.50902 0.47325 0.58114 0.0
H750 H 0.49836 0.53229 0.58393 0.0
C751 C 0.51911 0.74802 0.62575 0.0
C752 C 0.50462 0.65483 0.6178 0.0
H753 H 0.5088 0.59074 0.58806 0.0
C754 C 0.49724 0.634 0.62766 0.0
C755 C 0.50772 0.64056 0.60254 0.0
C756 C 0.51516 0.66286 0.59117 0.0
C757 C 0.49437 0.59672 0.6237 0.0
C758 C 0.49946 0.57986 0.61003 0.0
C759 C 0.50512 0.60303 0.59883 0.0
C760 C 0.50196 0.53879 0.60943 0.0
C761 C 0.48668 0.57497 0.63487 0.0
C762 C 0.50699 0.52153 0.62299 0.0
C763 C 0.5128 0.48745 0.62145 0.0
C764 C 0.51389 0.47068 0.60628 0.0
C765 C 0.50823 0.48612 0.59295 0.0
C766 C 0.50213 0.51967 0.59457 0.0
H767 H 0.4793 0.59272 0.63833 0.0
H768 H 0.48352 0.5485 0.62926 0.0
H769 H 0.49131 0.56803 0.64615 0.0
H770 H 0.50741 0.53595 0.63448 0.0
H771 H 0.51722 0.47591 0.6318 0.0
H772 H 0.73821 0.8042 0.63324 0.0
H773 H 0.74166 0.75386 0.65301 0.0
H774 H 0.74047 0.67117 0.61486 0.0
H775 H 0.73673 0.721 0.59521 0.0
H776 H 0.72375 0.69756 0.65416 0.0
H777 H 0.76593 0.63221 0.64614 0.0
H778 H 0.76303 0.6811 0.64125 0.0
H779 H 0.75925 0.64421 0.62734 0.0
C780 C 0.73906 0.77538 0.62904 0.0
C781 C 0.73708 0.76621 0.61278 0.0
C782 C 0.74107 0.74678 0.64032 0.0
C783 C 0.74146 0.70899 0.63533 0.0
C784 C 0.74043 0.70028 0.61888 0.0
H785 H 0.72581 0.48976 0.64058 0.0
H786 H 0.73443 0.55222 0.63867 0.0
C787 C 0.73818 0.72866 0.6077 0.0
C788 C 0.74029 0.67807 0.6471 0.0
H789 H 0.75065 0.58999 0.65426 0.0
C790 C 0.72975 0.67436 0.65475 0.0
C791 C 0.74818 0.64825 0.6478 0.0
C792 C 0.75979 0.65173 0.64032 0.0
C793 C 0.72627 0.6397 0.66123 0.0
C794 C 0.73378 0.60851 0.66052 0.0
C795 C 0.74486 0.61377 0.65462 0.0
C796 C 0.72968 0.5694 0.66285 0.0
C797 C 0.71419 0.636 0.66713 0.0
C798 C 0.72431 0.55801 0.67717 0.0
C799 C 0.71904 0.52272 0.67806 0.0
C800 C 0.71941 0.49796 0.66483 0.0
C801 C 0.72536 0.50848 0.6509 0.0
C802 C 0.73036 0.54403 0.64986 0.0
H803 H 0.70901 0.66132 0.66426 0.0
H804 H 0.71002 0.61099 0.66166 0.0
H805 H 0.71419 0.63238 0.68043 0.0
H806 H 0.72397 0.57667 0.68749 0.0
H807 H 0.7147 0.51478 0.68907 0.0
H808 H 0.49329 0.53201 0.38514 0.0
H809 H 0.50836 0.48486 0.38175 0.0
H810 H 0.48406 0.39608 0.39078 0.0
H811 H 0.46919 0.44274 0.39472 0.0
H812 H 0.50509 0.38505 0.40663 0.0
H813 H 0.51149 0.41964 0.34162 0.0
H814 H 0.51363 0.45463 0.35707 0.0
H815 H 0.4995 0.43971 0.35204 0.0
C816 C 0.49121 0.50235 0.38638 0.0
C817 C 0.48005 0.49089 0.39002 0.0
C818 C 0.49983 0.47556 0.3845 0.0
C819 C 0.49734 0.43702 0.38602 0.0
C820 C 0.48621 0.42575 0.38977 0.0
H821 H 0.47846 0.27662 0.3504 0.0
H822 H 0.48974 0.33103 0.35783 0.0
C823 C 0.47768 0.45238 0.39186 0.0
C824 C 0.50575 0.40723 0.38247 0.0
H825 H 0.51209 0.35581 0.34909 0.0
C826 C 0.50718 0.37891 0.39416 0.0
C827 C 0.50901 0.39993 0.36636 0.0
C828 C 0.5084 0.42998 0.35348 0.0
C829 C 0.50908 0.34141 0.38952 0.0
C830 C 0.5097 0.33292 0.37289 0.0
C831 C 0.51119 0.36252 0.3618 0.0
C832 C 0.50402 0.29861 0.3668 0.0
C833 C 0.50843 0.31073 0.40211 0.0
C834 C 0.50829 0.26213 0.36937 0.0
C835 C 0.50168 0.23061 0.36533 0.0
C836 C 0.49079 0.23539 0.35863 0.0
C837 C 0.48677 0.27195 0.35563 0.0
C838 C 0.49328 0.30313 0.35972 0.0
H839 H 0.50893 0.32226 0.41456 0.0
H840 H 0.5003 0.29515 0.40084 0.0
H841 H 0.51547 0.29034 0.4004 0.0
H842 H 0.51656 0.25806 0.37477 0.0
H843 H 0.50502 0.20262 0.36761 0.0
H844 H 0.25949 0.53906 0.4011 0.0
H845 H 0.25061 0.4872 0.41635 0.0
H846 H 0.26173 0.40827 0.38 0.0
H847 H 0.27051 0.45931 0.36492 0.0
H848 H 0.23967 0.38992 0.39565 0.0
H849 H 0.27475 0.42011 0.43888 0.0
H850 H 0.26409 0.45484 0.43416 0.0
H851 H 0.27495 0.44403 0.41968 0.0
C852 C 0.25976 0.5107 0.39624 0.0
C853 C 0.26591 0.50284 0.38209 0.0
C854 C 0.25465 0.48124 0.4049 0.0
C855 C 0.25559 0.44395 0.39934 0.0
C856 C 0.26084 0.43689 0.38446 0.0
H857 H 0.27556 0.24767 0.38279 0.0
H858 H 0.26222 0.29892 0.38785 0.0
C859 C 0.266 0.466 0.37596 0.0
C860 C 0.25357 0.41111 0.40991 0.0
H861 H 0.27157 0.35702 0.43192 0.0
C862 C 0.24627 0.38273 0.40424 0.0
C863 C 0.26181 0.40197 0.42165 0.0
C864 C 0.26934 0.43174 0.42908 0.0
C865 C 0.24848 0.34463 0.40763 0.0
C866 C 0.25839 0.33519 0.41637 0.0
C867 C 0.2642 0.36391 0.42465 0.0
C868 C 0.26445 0.29885 0.41389 0.0
C869 C 0.24071 0.31498 0.40071 0.0
C870 C 0.27038 0.28188 0.42669 0.0
C871 C 0.27848 0.25407 0.42362 0.0
C872 C 0.28055 0.24202 0.40776 0.0
C873 C 0.27409 0.25681 0.39509 0.0
C874 C 0.26627 0.28555 0.39808 0.0
H875 H 0.23172 0.32358 0.40237 0.0
H876 H 0.24219 0.31254 0.38752 0.0
H877 H 0.24201 0.28698 0.40647 0.0
H878 H 0.26918 0.29158 0.43895 0.0
H879 H 0.28324 0.24229 0.43362 0.0
H880 H 0.53448 0.21791 0.17849 0.0
H881 H 0.52179 0.16518 0.18501 0.0
H882 H 0.51558 0.14817 0.13415 0.0
H883 H 0.52752 0.20273 0.1278 0.0
H884 H 0.4969 0.13192 0.15138 0.0
H885 H 0.53408 0.06209 0.18083 0.0
H886 H 0.52864 0.10459 0.18964 0.0
H887 H 0.53573 0.10633 0.17042 0.0
C888 C 0.5303 0.20289 0.16877 0.0
C889 C 0.53214 0.21334 0.15263 0.0
C890 C 0.52307 0.17287 0.1725 0.0
C891 C 0.51799 0.15195 0.16007 0.0
C892 C 0.51941 0.16382 0.14398 0.0
H893 H 0.51592 -0.01108 0.10869 0.0
H894 H 0.508 0.04013 0.12454 0.0
C895 C 0.52631 0.19464 0.1403 0.0
C896 C 0.51242 0.11514 0.16318 0.0
H897 H 0.52019 0.02399 0.17007 0.0
C898 C 0.50182 0.10835 0.15596 0.0
C899 C 0.51859 0.08438 0.16975 0.0
C900 C 0.52989 0.08945 0.17807 0.0
C901 C 0.49823 0.07143 0.15265 0.0
C902 C 0.50543 0.04103 0.15667 0.0
C903 C 0.51483 0.04756 0.16666 0.0
C904 C 0.506 0.00702 0.14639 0.0
C905 C 0.48745 0.06546 0.14325 0.0
C906 C 0.5072 0.97089 0.1532 0.0
C907 C 0.51173 0.94134 0.14402 0.0
C908 C 0.51535 0.94809 0.12813 0.0
C909 C 0.51328 -0.01674 0.12099 0.0
C910 C 0.50856 0.01237 0.12999 0.0
H911 H 0.48083 0.08576 0.14722 0.0
H912 H 0.48909 0.07078 0.13025 0.0
H913 H 0.48419 0.03621 0.14469 0.0
H914 H 0.50546 0.96636 0.16589 0.0
H915 H 0.51326 0.91428 0.14972 0.0
H916 H 0.72943 0.97488 0.13163 0.0
H917 H 0.74045 0.03237 0.12775 0.0
H918 H 0.73536 0.06181 0.17783 0.0
H919 H 0.72359 0.00545 0.18134 0.0
H920 H 0.72975 0.1166 0.16147 0.0
H921 H 0.77049 0.0753 0.13551 0.0
H922 H 0.75988 0.05175 0.12384 0.0
H923 H 0.76134 0.04104 0.14509 0.0
C924 C 0.73082 -0.00658 0.14183 0.0
C925 C 0.72555 -0.01369 0.15667 0.0
C926 C 0.73731 0.02597 0.13972 0.0
C927 C 0.73899 0.05124 0.15259 0.0
C928 C 0.73425 0.04277 0.16773 0.0
H929 H 0.74605 0.28718 0.12241 0.0
H930 H 0.75268 0.23509 0.13951 0.0
C931 C 0.72745 0.0108 0.16969 0.0
C932 C 0.7437 0.08934 0.1493 0.0
H933 H 0.76173 0.13393 0.12334 0.0
C934 C 0.73706 0.12058 0.15373 0.0
C935 C 0.75337 0.09502 0.13945 0.0
C936 C 0.76171 0.06387 0.13591 0.0
C937 C 0.73887 0.15608 0.1468 0.0
C938 C 0.74749 0.16024 0.13509 0.0
C939 C 0.755 0.13036 0.13214 0.0
C940 C 0.74683 0.19135 0.12333 0.0
C941 C 0.73073 0.18775 0.15067 0.0
C942 C 0.74187 0.18374 0.10831 0.0
C943 C 0.73797 0.21319 0.09866 0.0
C944 C 0.73905 0.25069 0.10387 0.0
C945 C 0.74502 0.25844 0.11819 0.0
C946 C 0.74886 0.22883 0.12793 0.0
H947 H 0.72436 0.17951 0.15991 0.0
H948 H 0.73552 0.21249 0.15527 0.0
H949 H 0.72617 0.19666 0.13958 0.0
H950 H 0.7402 0.15491 0.10462 0.0
H951 H 0.73356 0.20647 0.08756 0.0
H952 H 0.4805 0.76816 0.82201 0.0
H953 H 0.48708 0.83365 0.82279 0.0
H954 H 0.49269 0.82326 0.87414 0.0
H955 H 0.48689 0.75732 0.87308 0.0
H956 H 0.47617 0.88415 0.8361 0.0
H957 H 0.5177 0.89249 0.86502 0.0
H958 H 0.51249 0.84848 0.85687 0.0
H959 H 0.50941 0.86188 0.87748 0.0
C960 C 0.48344 0.77977 0.83335 0.0
C961 C 0.48308 0.75813 0.84754 0.0
C962 C 0.48727 0.81705 0.83377 0.0
C963 C 0.49054 0.83353 0.84847 0.0
C964 C 0.49064 0.81112 0.86251 0.0
H965 H 0.46772 -0.0152 0.90609 0.0
H966 H 0.47768 0.93818 0.88974 0.0
C967 C 0.48713 0.77353 0.86199 0.0
C968 C 0.49147 0.87516 0.84994 0.0
H969 H 0.50336 0.94102 0.8747 0.0
C970 C 0.48246 0.897 0.84391 0.0
C971 C 0.49975 0.89258 0.85983 0.0
C972 C 0.51044 0.87251 0.86496 0.0
C973 C 0.48061 0.93379 0.84942 0.0
C974 C 0.48785 0.94869 0.86136 0.0
C975 C 0.49769 0.92903 0.86575 0.0
C976 C 0.48367 0.9786 0.8721 0.0
C977 C 0.47016 0.9548 0.84394 0.0
C978 C 0.48393 0.01673 0.8676 0.0
C979 C 0.47824 0.04356 0.87698 0.0
C980 C 0.47213 0.03228 0.89076 0.0
C981 C 0.47225 -0.00579 0.89544 0.0
C982 C 0.47802 0.96765 0.88622 0.0
H983 H 0.46601 0.94095 0.83346 0.0
H984 H 0.46396 0.95623 0.85401 0.0
H985 H 0.47241 -0.01581 0.84054 0.0
H986 H 0.48818 0.02543 0.85662 0.0
H987 H 0.47829 0.07282 0.87315 0.0
H988 H 0.26301 0.65731 0.8464 0.0
H989 H 0.24942 0.70858 0.84199 0.0
H990 H 0.27716 0.78774 0.83842 0.0
H991 H 0.29064 0.73701 0.84282 0.0
H992 H 0.24832 0.75939 0.86511 0.0
H993 H 0.25432 0.83639 0.80916 0.0
H994 H 0.2598 0.78919 0.81144 0.0
H995 H 0.26842 0.82976 0.81656 0.0
C996 C 0.26619 0.68544 0.84398 0.0
C997 C 0.27785 0.69347 0.84526 0.0
C998 C 0.25841 0.71466 0.84141 0.0
C999 C 0.26223 0.75203 0.83982 0.0
C1000 C 0.27396 0.75914 0.83929 0.0
H1001 H 0.27629 0.91116 0.89051 0.0
H1002 H 0.26675 0.85542 0.87982 0.0
C1003 C 0.2817 0.73014 0.84202 0.0
C1004 C 0.25456 0.78424 0.843 0.0
H1005 H 0.25517 0.87848 0.83523 0.0
C1006 C 0.24927 0.78522 0.85819 0.0
C1007 C 0.25533 0.81785 0.83387 0.0
C1008 C 0.2597 0.81793 0.81679 0.0
C1009 C 0.24696 0.81974 0.86574 0.0
C1010 C 0.25006 0.85353 0.85786 0.0
C1011 C 0.25312 0.85243 0.84149 0.0
C1012 C 0.25364 0.8868 0.86729 0.0
C1013 C 0.24261 0.81975 0.88283 0.0
C1014 C 0.24927 0.92287 0.86412 0.0
C1015 C 0.25461 0.9548 0.87057 0.0
C1016 C 0.26456 0.95087 0.8798 0.0
C1017 C 0.26856 0.91474 0.8836 0.0
C1018 C 0.26307 0.88296 0.87753 0.0
H1019 H 0.23675 0.79564 0.88487 0.0
H1020 H 0.24986 0.8165 0.89127 0.0
H1021 H 0.23815 0.84654 0.8857 0.0
H1022 H 0.24214 0.92639 0.85601 0.0
H1023 H 0.25153 0.98254 0.86722 0.0
H1024 H 0.98969 0.61621 0.9582 0.0
H1025 H 0.00124 0.58961 0.98 0.0
H1026 H 0.97203 0.53012 0.99823 0.0
H1027 H 0.96039 0.55662 0.97657 0.0
H1028 H 0.99772 0.58451 0.01699 0.0
H1029 H 0.99693 0.44876 0.98323 0.0
H1030 H 0.99388 0.49357 0.97374 0.0
H1031 H 0.98349 0.47162 0.9865 0.0
C1032 C 0.98563 0.59838 0.96712 0.0
C1033 C 0.97412 0.58832 0.96555 0.0
C1034 C 0.99226 0.5831 0.97953 0.0
C1035 C 0.98752 0.55744 0.99052 0.0
C1036 C 0.97586 0.54962 0.98975 0.0
H1037 H 0.0114 0.39906 0.06138 0.0
H1038 H 0.00143 0.43425 0.0404 0.0
C1039 C 0.96921 0.56501 0.97741 0.0
C1040 C 0.99489 0.53621 0.00182 0.0
H1041 H 0.00577 0.44831 0.00877 0.0
C1042 C 0.99955 0.55479 0.0152 0.0
C1043 C 0.99727 0.4975 0.99937 0.0
C1044 C 0.99272 0.47655 0.98489 0.0
C1045 C 0.00625 0.53528 0.02653 0.0
C1046 C 0.00856 0.49639 0.02415 0.0
C1047 C 0.00403 0.47808 0.01058 0.0
C1048 C 0.01512 0.47364 0.03603 0.0
C1049 C 0.01042 0.55618 0.04124 0.0
C1050 C 0.02633 0.48314 0.04016 0.0
C1051 C 0.03208 0.46302 0.05222 0.0
C1052 C 0.02675 0.43282 0.06026 0.0
C1053 C 0.01576 0.42217 0.05546 0.0
C1054 C 0.01002 0.44235 0.04348 0.0
H1055 H 0.00563 0.58278 0.04326 0.0
H1056 H 0.00969 0.53835 0.05223 0.0
H1057 H 0.01949 0.5636 0.03956 0.0
H1058 H 0.03056 0.50653 0.03427 0.0
H1059 H 0.04055 0.47188 0.05558 0.0
H1060 H 0.29143 0.70941 0.92608 0.0
H1061 H 0.28008 0.74398 0.94601 0.0
H1062 H 0.25115 0.67423 0.93481 0.0
H1063 H 0.26243 0.63924 0.91521 0.0
H1064 H 0.26055 0.78572 0.94111 0.0
H1065 H 0.25189 0.66825 0.98357 0.0
H1066 H 0.26264 0.66531 0.96812 0.0
H1067 H 0.24797 0.65734 0.96318 0.0
C1068 C 0.2827 0.70107 0.92805 0.0
C1069 C 0.27788 0.67134 0.91913 0.0
C1070 C 0.27621 0.72098 0.93939 0.0
C1071 C 0.26479 0.71142 0.94208 0.0
C1072 C 0.25999 0.68163 0.93324 0.0
H1073 H 0.20988 0.7939 0.00224 0.0
H1074 H 0.221 0.76677 0.98017 0.0
C1075 C 0.26647 0.6617 0.92197 0.0
C1076 C 0.25773 0.73327 0.95368 0.0
H1077 H 0.24081 0.72386 0.98691 0.0
C1078 C 0.2563 0.77226 0.95119 0.0
C1079 C 0.25216 0.71572 0.96683 0.0
C1080 C 0.25382 0.67444 0.97071 0.0
C1081 C 0.24925 0.79393 0.9613 0.0
C1082 C 0.24357 0.77622 0.97429 0.0
C1083 C 0.24506 0.73733 0.97682 0.0
C1084 C 0.23635 0.79748 0.98586 0.0
C1085 C 0.24776 0.83544 0.95782 0.0
C1086 C 0.24118 0.82462 0.99609 0.0
C1087 C 0.23485 0.84022 0.00872 0.0
C1088 C 0.22355 0.82887 0.0114 0.0
C1089 C 0.21852 0.80346 0.00049 0.0
C1090 C 0.22489 0.78773 0.98791 0.0
H1091 H 0.25036 0.84271 0.9453 0.0
H1092 H 0.2388 0.84415 0.95961 0.0
H1093 H 0.25311 0.85199 0.96626 0.0
H1094 H 0.25005 0.8322 0.9949 0.0
H1095 H 0.23901 0.85955 0.01694 0.0
H1096 H 0.0148 0.83032 0.18225 0.0
H1097 H 0.00475 0.79842 0.20411 0.0
H1098 H 0.03401 0.72835 0.2129 0.0
H1099 H 0.04411 0.75984 0.19085 0.0
H1100 H 0.01422 0.68723 0.20832 0.0
H1101 H 0.00703 0.80108 0.25307 0.0
H1102 H 0.0026 0.81323 0.233 0.0
H1103 H 0.01738 0.80509 0.2371 0.0
C1104 C 0.01924 0.80887 0.18912 0.0
C1105 C 0.03028 0.79769 0.18478 0.0
C1106 C 0.01346 0.79064 0.20165 0.0
C1107 C 0.01863 0.76105 0.21021 0.0
C1108 C 0.02986 0.75112 0.20647 0.0
H1109 H 0.99569 0.60382 0.28373 0.0
H1110 H 0.00605 0.63559 0.26205 0.0
C1111 C 0.03566 0.76938 0.19393 0.0
C1112 C 0.01198 0.73838 0.22201 0.0
H1113 H 0.99639 0.74452 0.25666 0.0
C1114 C 0.0104 0.69969 0.21897 0.0
C1115 C 0.00691 0.75471 0.23581 0.0
C1116 C 0.00863 0.79573 0.24005 0.0
C1117 C 0.00376 0.67703 0.22923 0.0
C1118 C 0.99867 0.69339 0.243 0.0
C1119 C 1.00024 0.73207 0.24604 0.0
C1120 C 0.99196 0.6708 0.25473 0.0
C1121 C 0.00205 0.63596 0.22508 0.0
C1122 C 0.98054 0.67958 0.25767 0.0
C1123 C 0.97456 0.6613 0.27002 0.0
C1124 C 0.97995 0.63422 0.27981 0.0
C1125 C 0.99126 0.62436 0.27637 0.0
C1126 C 0.9972 0.64249 0.26396 0.0
H1127 H 0.00412 0.63004 0.21224 0.0
H1128 H 0.00769 0.61843 0.23275 0.0
H1129 H 0.99315 0.62719 0.22743 0.0
H1130 H 0.97634 0.7014 0.25072 0.0
H1131 H 0.96589 0.66978 0.27241 0.0
H1132 H 0.23793 0.34608 0.21569 0.0
H1133 H 0.24799 0.37846 0.2374 0.0
H1134 H 0.21733 0.43767 0.25016 0.0
H1135 H 0.20719 0.40554 0.22838 0.0
H1136 H 0.23593 0.48484 0.24238 0.0
H1137 H 0.24829 0.3754 0.28705 0.0
H1138 H 0.25144 0.3637 0.26643 0.0
H1139 H 0.23692 0.36853 0.27272 0.0
C1140 C 0.23322 0.36502 0.22345 0.0
C1141 C 0.22177 0.37339 0.22022 0.0
C1142 C 0.23899 0.38351 0.23588 0.0
C1143 C 0.23342 0.41053 0.24538 0.0
C1144 C 0.22179 0.41692 0.24296 0.0
H1145 H 0.2559 0.58169 0.31292 0.0
H1146 H 0.24552 0.54473 0.29295 0.0
C1147 C 0.21599 0.39832 0.23056 0.0
C1148 C 0.24001 0.43535 0.25634 0.0
H1149 H 0.25728 0.43523 0.2894 0.0
C1150 C 0.24053 0.47407 0.25275 0.0
C1151 C 0.24612 0.42113 0.2697 0.0
C1152 C 0.24562 0.37997 0.27433 0.0
C1153 C 0.24714 0.49893 0.26202 0.0
C1154 C 0.2532 0.4848 0.27546 0.0
C1155 C 0.25268 0.44603 0.27905 0.0
C1156 C 0.25984 0.50985 0.28629 0.0
C1157 C 0.24777 0.53991 0.25708 0.0
C1158 C 0.27139 0.50279 0.28914 0.0
C1159 C 0.27736 0.52384 0.30063 0.0
C1160 C 0.27186 0.5522 0.30956 0.0
C1161 C 0.26043 0.56031 0.30616 0.0
C1162 C 0.25447 0.53919 0.29471 0.0
H1163 H 0.24557 0.54378 0.24415 0.0
H1164 H 0.2416 0.55642 0.26433 0.0
H1165 H 0.25637 0.55167 0.25922 0.0
H1166 H 0.27571 0.48026 0.28278 0.0
H1167 H 0.28614 0.51671 0.30302 0.0
H1168 H 0.79937 0.20758 0.94421 0.0
H1169 H 0.78877 0.2388 0.96583 0.0
H1170 H 0.76155 0.15854 0.9601 0.0
H1171 H 0.77214 0.12685 0.93875 0.0
H1172 H 0.76809 0.27298 0.96126 0.0
H1173 H 0.76441 0.16331 0.00871 0.0
H1174 H 0.77453 0.15999 0.99242 0.0
H1175 H 0.75993 0.14709 0.98922 0.0
C1176 C 0.79128 0.19585 0.9479 0.0
C1177 C 0.78661 0.16465 0.93976 0.0
C1178 C 0.78519 0.21392 0.96017 0.0
C1179 C 0.77438 0.20097 0.96464 0.0
C1180 C 0.76996 0.16869 0.95709 0.0
H1181 H 0.71974 0.28131 0.02573 0.0
H1182 H 0.73089 0.25164 0.0043 0.0
C1183 C 0.77603 0.1506 0.94484 0.0
C1184 C 0.76728 0.22303 0.97609 0.0
H1185 H 0.75202 0.2163 0.01101 0.0
C1186 C 0.76466 0.26069 0.97222 0.0
C1187 C 0.76274 0.20692 0.99032 0.0
C1188 C 0.76562 0.16723 0.99552 0.0
C1189 C 0.75745 0.28242 0.98203 0.0
C1190 C 0.75284 0.26618 0.99617 0.0
C1191 C 0.75549 0.2286 1.00008 0.0
C1192 C 0.74551 0.28785 0.00741 0.0
C1193 C 0.75463 0.32228 0.97702 0.0
C1194 C 0.7499 0.31879 0.01594 0.0
C1195 C 0.74354 0.33588 0.02818 0.0
C1196 C 0.73268 0.32225 0.03215 0.0
C1197 C 0.72804 0.29268 0.02293 0.0
C1198 C 0.73443 0.2755 0.01074 0.0
H1199 H 0.75649 0.32728 0.96404 0.0
H1200 H 0.74555 0.32866 0.9793 0.0
H1201 H 0.75981 0.34229 0.98421 0.0
H1202 H 0.75847 0.32849 0.01372 0.0
H1203 H 0.74739 0.35843 0.0351 0.0
H1204 H 0.99251 0.10423 0.77154 0.0
H1205 H 0.00258 0.1303 0.74823 0.0
H1206 H 0.97457 0.20559 0.739 0.0
H1207 H 0.96432 0.17893 0.76197 0.0
H1208 H 0.98346 0.17897 0.71126 0.0
H1209 H 0.01813 0.23169 0.75055 0.0
H1210 H 0.01612 0.18153 0.75161 0.0
H1211 H 0.0051 0.21265 0.75857 0.0
C1212 C 0.98839 0.1258 0.76436 0.0
C1213 C 0.97764 0.13969 0.76871 0.0
C1214 C 0.99422 0.14102 0.75114 0.0
C1215 C 0.98949 0.17078 0.74217 0.0
C1216 C 0.97846 0.18295 0.74585 0.0
H1217 H 0.01054 0.32557 0.66662 0.0
H1218 H 1.00093 0.2927 0.68867 0.0
C1219 C 0.97258 0.16754 0.75897 0.0
C1220 C 0.99613 0.19021 0.72932 0.0
H1221 H 0.0205 0.24024 0.72242 0.0
C1222 C 0.99155 0.19237 0.71371 0.0
C1223 C 0.00668 0.20795 0.73253 0.0
C1224 C 0.01176 0.20873 0.74925 0.0
C1225 C 0.99725 0.21142 0.70122 0.0
C1226 C 0.00779 0.22904 0.70442 0.0
C1227 C 0.01244 0.2266 0.71997 0.0
C1228 C 0.01403 0.25056 0.69182 0.0
C1229 C 0.99197 0.21218 0.68464 0.0
C1230 C 0.02484 0.23891 0.68677 0.0
C1231 C 0.03044 0.25794 0.67425 0.0
C1232 C 0.02532 0.28908 0.6666 0.0
C1233 C 0.0147 0.30161 0.67218 0.0
C1234 C 0.00914 0.28264 0.6847 0.0
H1235 H 0.98533 0.19015 0.6833 0.0
H1236 H 0.98791 0.24005 0.68263 0.0
H1237 H 0.99851 0.20808 0.67515 0.0
H1238 H 0.02882 0.21443 0.6922 0.0
H1239 H 0.0386 0.24753 0.67023 0.0
H1240 H 0.70739 0.40966 0.72869 0.0
H1241 H 0.71986 0.43321 0.75 0.0
H1242 H 0.74778 0.37034 0.72985 0.0
H1243 H 0.73543 0.34732 0.70827 0.0
H1244 H 0.73413 0.40369 0.77354 0.0
H1245 H 0.75885 0.47909 0.72634 0.0
H1246 H 0.74543 0.45663 0.72217 0.0
H1247 H 0.75814 0.42882 0.72373 0.0
C1248 C 0.7161 0.39995 0.72903 0.0
C1249 C 0.72045 0.37699 0.71664 0.0
C1250 C 0.72325 0.41363 0.74119 0.0
C1251 C 0.73484 0.4045 0.74122 0.0
C1252 C 0.73894 0.37865 0.72979 0.0
H1253 H 0.78987 0.49036 0.80235 0.0
H1254 H 0.77896 0.45547 0.78199 0.0
C1255 C 0.73183 0.36517 0.71756 0.0
C1256 C 0.74273 0.4243 0.75238 0.0
H1257 H 0.76527 0.48524 0.75318 0.0
C1258 C 0.74096 0.42139 0.76908 0.0
C1259 C 0.75162 0.44766 0.74655 0.0
C1260 C 0.7536 0.45362 0.72873 0.0
C1261 C 0.74783 0.4411 0.7801 0.0
C1262 C 0.75663 0.46461 0.77424 0.0
C1263 C 0.75854 0.46709 0.75759 0.0
C1264 C 0.7636 0.48796 0.78528 0.0
C1265 C 0.74565 0.43677 0.79795 0.0
C1266 C 0.75872 0.51875 0.79331 0.0
C1267 C 0.76495 0.53901 0.80476 0.0
C1268 C 0.77618 0.52873 0.80846 0.0
C1269 C 0.78125 0.4991 0.79974 0.0
C1270 C 0.77502 0.47898 0.78819 0.0
H1271 H 0.74008 0.41224 0.80062 0.0
H1272 H 0.75376 0.43327 0.8046 0.0
H1273 H 0.74145 0.46265 0.80255 0.0
H1274 H 0.74997 0.52643 0.79105 0.0
H1275 H 0.76076 0.5616 0.81124 0.0
H1276 H 0.98915 0.11072 0.46816 0.0
H1277 H 0.99954 0.08758 0.49171 0.0
H1278 H 0.96843 0.04445 0.51192 0.0
H1279 H 0.95796 0.06715 0.48833 0.0
H1280 H 0.99772 0.0962 0.52599 0.0
H1281 H 0.98861 0.94981 0.50581 0.0
H1282 H 0.98631 -0.00958 0.49305 0.0
H1283 H 0.97628 0.97887 0.50862 0.0
C1284 C 0.98445 0.09717 0.47779 0.0
C1285 C 0.97272 0.09042 0.47626 0.0
C1286 C 0.99043 0.08384 0.49123 0.0
C1287 C 0.98481 0.06345 0.50335 0.0
C1288 C 0.97297 0.05943 0.50252 0.0
H1289 H 0.00436 0.92859 0.58525 0.0
H1290 H 0.99505 0.95994 0.56265 0.0
C1291 C 0.96697 0.07277 0.48909 0.0
C1292 C 0.99142 0.04405 0.51618 0.0
H1293 H 0.99798 0.95655 0.53084 0.0
C1294 C 0.99781 0.06568 0.52707 0.0
C1295 C 0.99164 0.00419 0.51741 0.0
C1296 C 0.98543 0.97935 0.50553 0.0
C1297 C 0.00409 0.04856 0.53953 0.0
C1298 C 0.00416 0.00865 0.54093 0.0
C1299 C 0.99791 -0.01291 0.52983 0.0
C1300 C 0.01016 -0.01137 0.55426 0.0
C1301 C 0.01031 0.07351 0.55132 0.0
C1302 C 0.02186 -0.0066 0.55688 0.0
C1303 C 0.02722 0.97565 0.56996 0.0
C1304 C 0.02101 0.95227 0.58048 0.0
C1305 C 0.00942 0.9463 0.57738 0.0
C1306 C 0.00406 0.96432 0.56446 0.0
H1307 H 0.00694 0.10279 0.55124 0.0
H1308 H 0.00974 0.06209 0.56377 0.0
H1309 H 0.0194 0.07488 0.54787 0.0
H1310 H 0.02684 0.01112 0.54892 0.0
H1311 H 0.03617 0.98072 0.57198 0.0
H1312 H 0.27349 0.12154 0.4532 0.0
H1313 H 0.26181 0.15352 0.47333 0.0
H1314 H 0.2908 0.21839 0.48871 0.0
H1315 H 0.30255 0.18689 0.46845 0.0
H1316 H 0.26255 0.16691 0.50713 0.0
H1317 H 0.26836 0.29814 0.47128 0.0
H1318 H 0.27264 0.25229 0.464 0.0
H1319 H 0.2813 0.27706 0.47835 0.0
C1320 C 0.27748 0.14178 0.46118 0.0
C1321 C 0.28893 0.152 0.45905 0.0
C1322 C 0.27077 0.16017 0.47264 0.0
C1323 C 0.27537 0.18906 0.48218 0.0
C1324 C 0.28703 0.19674 0.4812 0.0
H1325 H 0.24573 0.35457 0.54661 0.0
H1326 H 0.25807 0.3184 0.52863 0.0
C1327 C 0.29377 0.17838 0.46972 0.0
C1328 C 0.26777 0.21323 0.49204 0.0
H1329 H 0.25773 0.30345 0.49538 0.0
C1330 C 0.26149 0.19675 0.50458 0.0
C1331 C 0.26633 0.25212 0.48858 0.0
C1332 C 0.27242 0.271 0.47474 0.0
C1333 C 0.25397 0.2183 0.51399 0.0
C1334 C 0.25254 0.25719 0.51053 0.0
C1335 C 0.25882 0.27364 0.49799 0.0
C1336 C 0.24476 0.28144 0.52006 0.0
C1337 C 0.24782 0.19942 0.52777 0.0
C1338 C 0.23307 0.27383 0.52063 0.0
C1339 C 0.22597 0.2946 0.53085 0.0
C1340 C 0.23044 0.32344 0.54064 0.0
C1341 C 0.24201 0.33254 0.53924 0.0
C1342 C 0.2491 0.31178 0.52902 0.0
H1343 H 0.25187 0.17228 0.53125 0.0
H1344 H 0.24754 0.2181 0.53852 0.0
H1345 H 0.23896 0.19332 0.52406 0.0
H1346 H 0.2295 0.25112 0.51351 0.0
H1347 H 0.2171 0.28688 0.53161 0.0
H1348 H 0.20773 0.9001 0.73352 0.0
H1349 H 0.21854 0.92462 0.75649 0.0
H1350 H 0.24973 0.891 0.73353 0.0
H1351 H 0.23905 0.86617 0.71059 0.0
H1352 H 0.23825 0.88944 0.77727 0.0
H1353 H 0.2488 0.0132 0.73851 0.0
H1354 H 0.23664 -0.01657 0.73472 0.0
H1355 H 0.25061 0.96688 0.72991 0.0
C1356 C 0.21686 0.89679 0.73357 0.0
C1357 C 0.22252 0.88143 0.72014 0.0
C1358 C 0.22302 0.91099 0.74668 0.0
C1359 C 0.23492 0.91012 0.74653 0.0
C1360 C 0.24055 0.89218 0.73377 0.0
H1361 H 0.28472 -0.0166 0.81708 0.0
H1362 H 0.27493 0.95327 0.79441 0.0
C1363 C 0.23441 0.87782 0.72071 0.0
C1364 C 0.24147 0.93099 0.75889 0.0
H1365 H 0.25695 0.01157 0.76452 0.0
C1366 C 0.24236 0.91607 0.77451 0.0
C1367 C 0.24669 0.96597 0.75523 0.0
C1368 C 0.24563 -0.01635 0.73873 0.0
C1369 C 0.2485 0.9351 0.78655 0.0
C1370 C 0.25392 0.96965 0.7828 0.0
C1371 C 0.25289 -0.01515 0.76725 0.0
C1372 C 0.26045 -0.00932 0.79511 0.0
C1373 C 0.24908 0.9185 0.8033 0.0
C1374 C 0.2557 0.02245 0.80258 0.0
C1375 C 0.26124 0.03966 0.81557 0.0
C1376 C 0.27168 0.02555 0.82119 0.0
C1377 C 0.27673 -0.0049 0.813 0.0
C1378 C 0.27113 0.97769 0.80012 0.0
H1379 H 0.243 0.89484 0.80493 0.0
H1380 H 0.2578 0.90785 0.80554 0.0
H1381 H 0.24726 0.94047 0.8125 0.0
H1382 H 0.24748 0.0329 0.79883 0.0
H1383 H 0.25712 0.06301 0.82163 0.0
H1384 H 0.76939 0.62903 0.43896 0.0
H1385 H 0.75892 0.66149 0.4603 0.0
H1386 H 0.78801 0.73177 0.46983 0.0
H1387 H 0.7986 0.69942 0.44849 0.0
H1388 H 0.77578 0.70556 0.49817 0.0
H1389 H 0.74767 0.77162 0.45227 0.0
H1390 H 0.74876 0.72104 0.45124 0.0
H1391 H 0.76101 0.74966 0.44711 0.0
C1392 C 0.77368 0.65078 0.44583 0.0
C1393 C 0.78482 0.66179 0.44192 0.0
C1394 C 0.76763 0.66955 0.45792 0.0
C1395 C 0.7726 0.69964 0.46634 0.0
C1396 C 0.78399 0.70886 0.46333 0.0
H1397 H 0.74952 0.85807 0.53944 0.0
H1398 H 0.76005 0.82585 0.51808 0.0
C1399 C 0.79005 0.69017 0.4512 0.0
C1400 C 0.76577 0.7226 0.47773 0.0
H1401 H 0.7431 0.7827 0.47967 0.0
C1402 C 0.76867 0.72253 0.49414 0.0
C1403 C 0.7565 0.74478 0.4724 0.0
C1404 C 0.75332 0.74718 0.45478 0.0
C1405 C 0.7624 0.74347 0.50544 0.0
C1406 C 0.75312 0.76565 0.50012 0.0
C1407 C 0.75022 0.76573 0.4837 0.0
C1408 C 0.74627 0.78852 0.51154 0.0
C1409 C 0.7656 0.74103 0.52304 0.0
C1410 C 0.73483 0.7797 0.51431 0.0
C1411 C 0.72874 0.79831 0.52644 0.0
C1412 C 0.73399 0.82615 0.53597 0.0
C1413 C 0.74523 0.83666 0.53239 0.0
C1414 C 0.7513 0.81805 0.52027 0.0
H1415 H 0.77111 0.71627 0.52557 0.0
H1416 H 0.77032 0.76689 0.52651 0.0
H1417 H 0.75792 0.73912 0.53076 0.0
H1418 H 0.73076 0.75722 0.5076 0.0
H1419 H 0.7201 0.78951 0.52888 0.0
H1420 H 0.73582 0.85005 0.20673 0.0
H1421 H 0.74818 0.87335 0.22824 0.0
H1422 H 0.72109 0.94428 0.24566 0.0
H1423 H 0.70863 0.92049 0.22448 0.0
H1424 H 0.75485 0.94561 0.23058 0.0
H1425 H 0.73359 0.90496 0.28749 0.0
H1426 H 0.72985 0.88424 0.26832 0.0
H1427 H 0.72416 0.92944 0.27412 0.0
C1428 C 0.73237 0.86964 0.21547 0.0
C1429 C 0.72122 0.88336 0.21388 0.0
C1430 C 0.73948 0.88315 0.2277 0.0
C1431 C 0.73559 0.91053 0.23863 0.0
C1432 C 0.72426 0.92264 0.23762 0.0
H1433 H 0.7632 0.07056 0.30559 0.0
H1434 H 0.7525 0.03606 0.28511 0.0
C1435 C 0.71712 0.90898 0.22545 0.0
C1436 C 0.74363 0.92931 0.24992 0.0
H1437 H 0.74729 0.95507 0.2893 0.0
C1438 C 0.75328 0.94719 0.24346 0.0
C1439 C 0.7416 0.93147 0.26672 0.0
C1440 C 0.7318 0.91116 0.27459 0.0
C1441 C 0.7607 0.96822 0.25325 0.0
C1442 C 0.75843 0.97136 0.26992 0.0
C1443 C 0.74895 0.95285 0.27646 0.0
C1444 C 0.76559 -0.00546 0.28082 0.0
C1445 C 0.77069 -0.01199 0.24565 0.0
C1446 C 0.77665 -0.01679 0.28487 0.0
C1447 C 0.78283 0.00294 0.29662 0.0
C1448 C 0.77802 0.03429 0.3045 0.0
C1449 C 0.76718 0.04662 0.29975 0.0
C1450 C 0.76101 0.02682 0.2881 0.0
H1451 H 0.77028 -0.01235 0.23225 0.0
H1452 H 0.77114 0.01779 0.2498 0.0
H1453 H 0.77864 0.97375 0.24944 0.0
H1454 H 0.78031 0.95817 0.27947 0.0
H1455 H 0.79112 -0.00748 0.30007 0.0
H1456 H 0.48643 0.58872 0.45032 0.0
H1457 H 0.49783 0.55575 0.47058 0.0
H1458 H 0.46958 0.48254 0.48122 0.0
H1459 H 0.45812 0.5151 0.46089 0.0
H1460 H 0.49491 0.53994 0.50395 0.0
H1461 H 0.49494 0.40935 0.46686 0.0
H1462 H 0.49047 0.45452 0.459 0.0
H1463 H 0.4811 0.42749 0.47163 0.0
C1464 C 0.48254 0.56615 0.45721 0.0
C1465 C 0.47138 0.55437 0.45389 0.0
C1466 C 0.4891 0.54722 0.46873 0.0
C1467 C 0.48465 0.51608 0.47709 0.0
C1468 C 0.47327 0.50595 0.47463 0.0
H1469 H 0.51026 0.35848 0.54758 0.0
H1470 H 0.49978 0.39016 0.52603 0.0
C1471 C 0.46669 0.52489 0.46312 0.0
C1472 C 0.49205 0.49332 0.48784 0.0
H1473 H 0.50343 0.40522 0.49274 0.0
C1474 C 0.49682 0.51055 0.50148 0.0
C1475 C 0.49457 0.455 0.48452 0.0
C1476 C 0.4901 0.43548 0.46964 0.0
C1477 C 0.50381 0.49022 0.51214 0.0
C1478 C 0.50628 0.45184 0.50886 0.0
C1479 C 0.50156 0.43466 0.49517 0.0
C1480 C 0.51334 0.42878 0.51996 0.0
C1481 C 0.50822 0.50972 0.52707 0.0
C1482 C 0.52469 0.43849 0.52305 0.0
C1483 C 0.53074 0.42029 0.53533 0.0
C1484 C 0.52555 0.39203 0.54472 0.0
C1485 C 0.51452 0.38018 0.54063 0.0
C1486 C 0.50848 0.39839 0.52835 0.0
H1487 H 0.50351 0.53622 0.52966 0.0
H1488 H 0.50759 0.49089 0.53776 0.0
H1489 H 0.51728 0.51705 0.52529 0.0
H1490 H 0.52869 0.46131 0.51645 0.0
H1491 H 0.53922 0.43007 0.53813 0.0
H1492 H 0.5547 0.75171 0.70944 0.0
H1493 H 0.54452 0.71862 0.73105 0.0
H1494 H 0.51549 0.79043 0.72357 0.0
H1495 H 0.52558 0.82387 0.70208 0.0
H1496 H 0.52991 0.75511 0.7609 0.0
H1497 H 0.50745 0.66982 0.71431 0.0
H1498 H 0.52132 0.68999 0.71075 0.0
H1499 H 0.50905 0.71987 0.71103 0.0
C1500 C 0.54627 0.76115 0.71267 0.0
C1501 C 0.54094 0.79035 0.70397 0.0
C1502 C 0.54045 0.74209 0.72497 0.0
C1503 C 0.52923 0.75184 0.7287 0.0
C1504 C 0.52414 0.78241 0.72075 0.0
H1505 H 0.47401 0.66166 0.78435 0.0
H1506 H 0.48626 0.68744 0.76326 0.0
C1507 C 0.52995 0.80159 0.70853 0.0
C1508 C 0.52253 0.7286 0.74009 0.0
H1509 H 0.50195 0.6607 0.74139 0.0
C1510 C 0.52386 0.73423 0.7567 0.0
C1511 C 0.5146 0.70168 0.73447 0.0
C1512 C 0.51298 0.69463 0.71667 0.0
C1513 C 0.51725 0.71414 0.76792 0.0
C1514 C 0.50932 0.68698 0.76233 0.0
C1515 C 0.50808 0.68123 0.74567 0.0
C1516 C 0.50183 0.6659 0.7736 0.0
C1517 C 0.51851 0.72327 0.78562 0.0
C1518 C 0.50642 0.64323 0.78587 0.0
C1519 C 0.49944 0.62846 0.79797 0.0
C1520 C 0.48771 0.63581 0.79792 0.0
C1521 C 0.483 0.65545 0.78477 0.0
C1522 C 0.49001 0.67042 0.77273 0.0
H1523 H 0.52281 0.75083 0.78754 0.0
H1524 H 0.51012 0.72408 0.79169 0.0
H1525 H 0.52371 0.70108 0.79151 0.0
H1526 H 0.51549 0.63842 0.78651 0.0
H1527 H 0.50332 0.61324 0.80788 0.0
H1528 H 0.46964 0.19703 0.2861 0.0
H1529 H 0.48012 0.22795 0.26426 0.0
H1530 H 0.50942 0.15948 0.275 0.0
H1531 H 0.49898 0.12806 0.29658 0.0
H1532 H 0.4992 0.27035 0.26913 0.0
H1533 H 0.50882 0.15483 0.2263 0.0
H1534 H 0.49813 0.15045 0.24179 0.0
H1535 H 0.51287 0.14354 0.24661 0.0
C1536 C 0.4782 0.18772 0.28348 0.0
C1537 C 0.48346 0.16003 0.29309 0.0
C1538 C 0.48421 0.20562 0.27107 0.0
C1539 C 0.49555 0.19597 0.26793 0.0
C1540 C 0.50062 0.16698 0.27696 0.0
H1541 H 0.551 0.28289 0.21062 0.0
H1542 H 0.53942 0.25498 0.23203 0.0
C1543 C 0.49463 0.14905 0.28935 0.0
C1544 C 0.50243 0.21848 0.25637 0.0
H1545 H 0.51988 0.21112 0.22361 0.0
C1546 C 0.50363 0.25747 0.25908 0.0
C1547 C 0.50825 0.20166 0.24329 0.0
C1548 C 0.50688 0.16039 0.2392 0.0
C1549 C 0.51071 0.27986 0.24933 0.0
C1550 C 0.51669 0.26286 0.23647 0.0
C1551 C 0.51539 0.224 0.23363 0.0
C1552 C 0.5241 0.28484 0.22545 0.0
C1553 C 0.51195 0.32133 0.25307 0.0
C1554 C 0.51943 0.31198 0.21506 0.0
C1555 C 0.52604 0.32811 0.20284 0.0
C1556 C 0.53743 0.31723 0.20074 0.0
C1557 C 0.54229 0.29213 0.21194 0.0
C1558 C 0.53566 0.27588 0.22411 0.0
H1559 H 0.50895 0.32819 0.26543 0.0
H1560 H 0.52093 0.33039 0.25187 0.0
H1561 H 0.50682 0.33792 0.24436 0.0
H1562 H 0.5105 0.31901 0.21576 0.0
H1563 H 0.522 0.34717 0.19437 0.0
H1564 H 0.4562 0.03704 0.97216 0.0
H1565 H 0.46754 0.00293 0.9921 0.0
H1566 H 0.49576 0.07754 0.98309 0.0
H1567 H 0.48454 0.11143 0.96292 0.0
H1568 H 0.5017 0.00274 0.98104 0.0
H1569 H 0.47775 0.02852 0.03753 0.0
H1570 H 0.46911 0.01026 0.02151 0.0
H1571 H 0.47553 0.05612 0.01948 0.0
C1572 C 0.46473 0.04679 0.97469 0.0
C1573 C 0.46946 0.07701 0.96595 0.0
C1574 C 0.4712 0.02725 0.98612 0.0
C1575 C 0.48249 0.03781 0.98917 0.0
C1576 C 0.48708 0.06891 0.98093 0.0
H1577 H 0.53625 0.94457 0.04929 0.0
H1578 H 0.52561 0.9796 0.02881 0.0
C1579 C 0.48062 0.08838 0.96947 0.0
C1580 C 0.48975 0.01477 1.00003 0.0
H1581 H 0.49175 0.98009 0.03838 0.0
C1582 C 0.49957 -0.00199 0.99361 0.0
C1583 C 0.48696 0.00852 0.01641 0.0
C1584 C 0.47682 0.02708 0.02421 0.0
C1585 C 0.50654 0.97455 0.00305 0.0
C1586 C 0.50367 0.96801 0.01937 0.0
C1587 C 0.49389 -0.01506 0.02581 0.0
C1588 C 0.51071 0.94403 0.03013 0.0
C1589 C 0.51676 0.95626 0.99539 0.0
C1590 C 0.50594 0.91204 0.03748 0.0
C1591 C 0.512 0.89196 0.04918 0.0
C1592 C 0.52292 0.90367 0.05386 0.0
C1593 C 0.5279 0.93462 0.04589 0.0
C1594 C 0.52183 0.95469 0.03416 0.0
H1595 H 0.51624 0.95657 0.982 0.0
H1596 H 0.5245 0.97197 0.99899 0.0
H1597 H 0.5177 0.92659 0.99952 0.0
H1598 H 0.49738 0.90333 0.03454 0.0
H1599 H 0.5079 0.86833 0.05509 0.0
H1600 H 0.16835 0.36913 0.173 0.0
H1601 H 0.14782 0.37402 0.16849 0.0
H1602 H 0.15366 0.39508 0.11794 0.0
H1603 H 0.17407 0.39021 0.12222 0.0
H1604 H 0.13542 0.43778 0.15428 0.0
H1605 H 0.13089 0.30528 0.11894 0.0
H1606 H 0.14301 0.31459 0.13167 0.0
H1607 H 0.14188 0.33684 0.11226 0.0
C1608 C 0.16526 0.37469 0.16092 0.0
C1609 C 0.17288 0.37909 0.14797 0.0
C1610 C 0.15354 0.37754 0.15838 0.0
C1611 C 0.14924 0.38444 0.14285 0.0
C1612 C 0.1568 0.38916 0.12997 0.0
H1613 H 0.08087 0.39875 0.10259 0.0
H1614 H 0.10151 0.39976 0.10631 0.0
C1615 C 0.16849 0.38651 0.13248 0.0
C1616 C 0.13685 0.38722 0.14005 0.0
H1617 H 0.11478 0.34489 0.12042 0.0
C1618 C 0.13088 0.41742 0.14694 0.0
C1619 C 0.131 0.36083 0.13032 0.0
C1620 C 0.13697 0.32735 0.12294 0.0
C1621 C 0.11919 0.42216 0.14423 0.0
C1622 C 0.1133 0.39545 0.13467 0.0
C1623 C 0.11931 0.3654 0.12769 0.0
C1624 C 0.10081 0.39711 0.13238 0.0
C1625 C 0.11333 0.45612 0.15138 0.0
C1626 C 0.09356 0.39516 0.14578 0.0
C1627 C 0.08181 0.39471 0.14371 0.0
C1628 C 0.077 0.3958 0.12816 0.0
C1629 C 0.08427 0.398 0.11473 0.0
C1630 C 0.09607 0.39851 0.11683 0.0
H1631 H 0.11943 0.47929 0.15392 0.0
H1632 H 0.10662 0.46699 0.1432 0.0
H1633 H 0.10931 0.44794 0.16297 0.0
H1634 H 0.09701 0.39312 0.15787 0.0
H1635 H 0.07651 0.39278 0.15435 0.0
H1636 H 0.08281 0.81479 0.13532 0.0
H1637 H 0.10318 0.81698 0.12922 0.0
H1638 H 0.09595 0.80156 0.07868 0.0
H1639 H 0.07568 0.79918 0.08456 0.0
H1640 H 0.11688 0.75929 0.1113 0.0
H1641 H 0.11577 0.90033 0.08175 0.0
H1642 H 0.1048 0.88443 0.09538 0.0
H1643 H 0.10533 0.86668 0.07512 0.0
C1644 C 0.08555 0.81172 0.12291 0.0
C1645 C 0.07757 0.80695 0.11044 0.0
C1646 C 0.09719 0.81299 0.11946 0.0
C1647 C 0.10104 0.80995 0.10348 0.0
C1648 C 0.09314 0.8045 0.09106 0.0
H1649 H 0.16792 0.82709 0.05805 0.0
H1650 H 0.14744 0.82189 0.06315 0.0
C1651 C 0.08154 0.80297 0.09449 0.0
C1652 C 0.11332 0.81231 0.09969 0.0
H1653 H 0.13312 0.86706 0.08071 0.0
C1654 C 0.12046 0.78288 0.10467 0.0
C1655 C 0.11791 0.84293 0.09087 0.0
C1656 C 0.11061 0.87561 0.08553 0.0
C1657 C 0.13209 0.78306 0.10093 0.0
C1658 C 0.13675 0.81402 0.09234 0.0
C1659 C 0.12956 0.84332 0.08726 0.0
C1660 C 0.14913 0.81724 0.0891 0.0
C1661 C 0.13921 0.74964 0.10595 0.0
C1662 C 0.15685 0.81714 0.10196 0.0
C1663 C 0.16848 0.81986 0.09909 0.0
C1664 C 0.17272 0.8233 0.08326 0.0
C1665 C 0.16496 0.82435 0.07037 0.0
C1666 C 0.15326 0.82137 0.07327 0.0
H1667 H 0.13394 0.72391 0.10764 0.0
H1668 H 0.14589 0.74345 0.09689 0.0
H1669 H 0.14339 0.75597 0.11764 0.0
H1670 H 0.15387 0.81515 0.1143 0.0
H1671 H 0.17416 0.81943 0.10936 0.0
H1672 H 0.82341 0.53777 0.90584 0.0
H1673 H 0.84376 0.53738 0.91151 0.0
H1674 H 0.8508 0.56079 0.86145 0.0
H1675 H 0.83042 0.56127 0.8556 0.0
H1676 H 0.86164 0.49224 0.89719 0.0
H1677 H 0.86718 0.64645 0.8873 0.0
H1678 H 0.85345 0.62505 0.89054 0.0
H1679 H 0.86026 0.62126 0.87123 0.0
C1680 C 0.82927 0.54266 0.89598 0.0
C1681 C 0.82526 0.54978 0.88026 0.0
C1682 C 0.8409 0.54238 0.89927 0.0
C1683 C 0.84876 0.54958 0.88696 0.0
C1684 C 0.84484 0.55571 0.87117 0.0
H1685 H 0.92092 0.51961 0.88193 0.0
H1686 H 0.90033 0.51505 0.87989 0.0
C1687 C 0.8332 0.55575 0.86783 0.0
C1688 C 0.86106 0.5511 0.89072 0.0
H1689 H 0.88388 0.61054 0.89154 0.0
C1690 C 0.86651 0.5181 0.89601 0.0
C1691 C 0.86733 0.58503 0.88942 0.0
C1692 C 0.86178 0.62161 0.88445 0.0
C1693 C 0.87817 0.51791 0.89958 0.0
C1694 C 0.88451 0.55155 0.89776 0.0
C1695 C 0.87899 0.58477 0.8929 0.0
C1696 C 0.897 0.55242 0.89996 0.0
C1697 C 0.88361 0.48175 0.90529 0.0
C1698 C 0.90199 0.57506 0.91193 0.0
C1699 C 0.91382 0.57768 0.91319 0.0
C1700 C 0.92085 0.55817 0.9023 0.0
C1701 C 0.91578 0.53507 0.89051 0.0
C1702 C 0.904 0.53224 0.88936 0.0
H1703 H 0.87722 0.46144 0.90998 0.0
H1704 H 0.88807 0.46821 0.89502 0.0
H1705 H 0.88995 0.48744 0.9149 0.0
H1706 H 0.89671 0.59103 0.92017 0.0
H1707 H 0.91745 0.59586 0.92234 0.0
H1708 H 0.92903 0.16045 0.86542 0.0
H1709 H 0.90859 0.16526 0.86899 0.0
H1710 H 0.90369 0.14858 0.81792 0.0
H1711 H 0.92426 0.14271 0.81424 0.0
H1712 H 0.89299 0.21371 0.85701 0.0
H1713 H 0.88336 0.06768 0.83679 0.0
H1714 H 0.89763 0.08352 0.84083 0.0
H1715 H 0.89078 0.09571 0.82214 0.0
C1716 C 0.92365 0.15781 0.85488 0.0
C1717 C 0.92833 0.15084 0.83953 0.0
C1718 C 0.91193 0.16065 0.85697 0.0
C1719 C 0.90457 0.15664 0.8438 0.0
C1720 C 0.90919 0.15087 0.82835 0.0
H1721 H 0.83083 0.15745 0.83843 0.0
H1722 H 0.85108 0.16085 0.83242 0.0
C1723 C 0.92096 0.14777 0.82624 0.0
C1724 C 0.8921 0.15821 0.84645 0.0
H1725 H 0.86769 0.10671 0.84297 0.0
C1726 C 0.88746 0.19032 0.85392 0.0
C1727 C 0.88488 0.1276 0.84251 0.0
C1728 C 0.8894 0.09152 0.83526 0.0
C1729 C 0.87582 0.19268 0.85748 0.0
C1730 C 0.86865 0.16205 0.85357 0.0
C1731 C 0.87323 0.13017 0.84593 0.0
C1732 C 0.85635 0.16227 0.8574 0.0
C1733 C 0.87126 0.22804 0.86527 0.0
C1734 C 0.85258 0.162 0.87348 0.0
C1735 C 0.84097 0.1599 0.877 0.0
C1736 C 0.83291 0.15802 0.86448 0.0
C1737 C 0.83676 0.15893 0.84839 0.0
C1738 C 0.84835 0.16082 0.84491 0.0
H1739 H 0.8773 0.25201 0.86424 0.0
H1740 H 0.86306 0.23639 0.85973 0.0
H1741 H 0.86974 0.22255 0.87828 0.0
H1742 H 0.85863 0.16255 0.88331 0.0
H1743 H 0.83832 0.15915 0.88951 0.0
H1744 H 0.16617 0.89017 0.68148 0.0
H1745 H 0.14535 0.89172 0.6802 0.0
H1746 H 0.14704 0.93045 0.63094 0.0
H1747 H 0.1677 0.9292 0.63205 0.0
H1748 H 0.13098 0.95876 0.67079 0.0
H1749 H 0.12598 0.83413 0.63065 0.0
H1750 H 0.13858 0.84204 0.64259 0.0
H1751 H 0.13629 0.86865 0.62443 0.0
C1752 C 0.16211 0.89897 0.67038 0.0
C1753 C 0.16863 0.90948 0.65687 0.0
C1754 C 0.15023 0.89988 0.66967 0.0
C1755 C 0.14469 0.91082 0.65541 0.0
C1756 C 0.15116 0.9215 0.64199 0.0
H1757 H 0.07504 0.92626 0.62194 0.0
H1758 H 0.09574 0.92663 0.62454 0.0
C1759 C 0.16299 0.92089 0.6427 0.0
C1760 C 0.13214 0.9117 0.65448 0.0
H1761 H 0.10954 0.87062 0.63564 0.0
C1762 C 0.12626 0.93936 0.66322 0.0
C1763 C 0.12606 0.8866 0.64444 0.0
C1764 C 0.132 0.85594 0.63505 0.0
C1765 C 0.11442 0.94307 0.66192 0.0
C1766 C 0.1083 0.9178 0.65193 0.0
C1767 C 0.11422 0.89003 0.64326 0.0
C1768 C 0.09574 0.91923 0.65047 0.0
C1769 C 0.10864 0.97474 0.67089 0.0
C1770 C 0.08886 0.91479 0.66416 0.0
C1771 C 0.07704 0.91483 0.66272 0.0
C1772 C 0.07183 0.91881 0.64753 0.0
C1773 C 0.07875 0.92322 0.63382 0.0
C1774 C 0.09059 0.92337 0.63529 0.0
H1775 H 0.11467 -0.00222 0.67392 0.0
H1776 H 0.10155 -0.01319 0.66372 0.0
H1777 H 0.10512 0.96364 0.68238 0.0
H1778 H 0.09262 0.91059 0.67594 0.0
H1779 H 0.072 0.91103 0.67353 0.0
H1780 H 0.07656 0.33274 0.57472 0.0
H1781 H 0.09721 0.33029 0.57258 0.0
H1782 H 0.09985 0.32096 0.62432 0.0
H1783 H 0.07916 0.32301 0.62661 0.0
H1784 H 0.11267 0.38072 0.58609 0.0
H1785 H 0.12029 0.23518 0.60836 0.0
H1786 H 0.10645 0.25143 0.6021 0.0
H1787 H 0.11187 0.26365 0.6217 0.0
C1788 C 0.0815 0.32982 0.58567 0.0
C1789 C 0.07617 0.32801 0.60085 0.0
C1790 C 0.09332 0.32846 0.5844 0.0
C1791 C 0.10007 0.32498 0.59826 0.0
C1792 C 0.0948 0.3229 0.61343 0.0
H1793 H 0.17055 0.33342 0.62288 0.0
H1794 H 0.15 0.32745 0.62144 0.0
C1795 C 0.08296 0.32429 0.61473 0.0
C1796 C 0.11263 0.32541 0.59688 0.0
H1797 H 0.13651 0.27488 0.60577 0.0
C1798 C 0.11789 0.35745 0.59024 0.0
C1799 C 0.11942 0.29499 0.60228 0.0
C1800 C 0.11424 0.25919 0.60888 0.0
C1801 C 0.12976 0.36047 0.58939 0.0
C1802 C 0.13656 0.3303 0.59505 0.0
C1803 C 0.13129 0.29796 0.60141 0.0
C1804 C 0.14913 0.33273 0.59547 0.0
C1805 C 0.13493 0.39653 0.58303 0.0
C1806 C 0.15554 0.33712 0.58128 0.0
C1807 C 0.16738 0.3407 0.58205 0.0
C1808 C 0.17301 0.33977 0.59702 0.0
C1809 C 0.16654 0.33446 0.61113 0.0
C1810 C 0.15476 0.33094 0.61035 0.0
H1811 H 0.12865 0.41989 0.58252 0.0
H1812 H 0.14218 0.40557 0.59067 0.0
H1813 H 0.13815 0.39167 0.57062 0.0
H1814 H 0.15139 0.33786 0.56963 0.0
H1815 H 0.17209 0.34452 0.57095 0.0
H1816 H 0.82392 0.08031 0.40372 0.0
H1817 H 0.84412 0.08051 0.41 0.0
H1818 H 0.85185 0.05463 0.36036 0.0
H1819 H 0.83157 0.05533 0.35384 0.0
H1820 H 0.85984 0.02581 0.40796 0.0
H1821 H 0.87204 0.14491 0.36809 0.0
H1822 H 0.85743 0.1337 0.37252 0.0
H1823 H 0.8651 0.10719 0.35755 0.0
C1824 C 0.82989 0.07471 0.39408 0.0
C1825 C 0.82609 0.06801 0.37822 0.0
C1826 C 0.84146 0.07483 0.39772 0.0
C1827 C 0.84954 0.06824 0.38562 0.0
C1828 C 0.8458 0.06074 0.36983 0.0
H1829 H 0.92191 0.04139 0.38282 0.0
H1830 H 0.90153 0.04283 0.37822 0.0
C1831 C 0.83419 0.06088 0.36613 0.0
C1832 C 0.86184 0.06868 0.38971 0.0
H1833 H 0.88713 0.11014 0.38005 0.0
C1834 C 0.86579 0.04445 0.40193 0.0
C1835 C 0.8696 0.0932 0.38193 0.0
C1836 C 0.86583 0.12149 0.36941 0.0
C1837 C 0.87732 0.04339 0.40627 0.0
C1838 C 0.88508 0.06734 0.39826 0.0
C1839 C 0.88114 0.09181 0.38617 0.0
C1840 C 0.89744 0.06601 0.40161 0.0
C1841 C 0.88119 0.01598 0.41908 0.0
C1842 C 0.90193 0.07864 0.41636 0.0
C1843 C 0.91368 0.07803 0.41908 0.0
C1844 C 0.92111 0.06467 0.40708 0.0
C1845 C 0.9165 0.05181 0.39239 0.0
C1846 C 0.90482 0.05266 0.38968 0.0
H1847 H 0.87445 -0.0046 0.42235 0.0
H1848 H 0.88879 0.00023 0.41491 0.0
H1849 H 0.88359 0.03186 0.4301 0.0
H1850 H 0.89636 0.08942 0.42568 0.0
H1851 H 0.91694 0.08823 0.43049 0.0
H1852 H 0.9246 0.62458 0.32174 0.0
H1853 H 0.90403 0.63388 0.3245 0.0
H1854 H 0.90746 0.63415 0.3763 0.0
H1855 H 0.92783 0.62558 0.37372 0.0
H1856 H 0.88791 0.58946 0.33998 0.0
H1857 H 0.88977 0.73062 0.36852 0.0
H1858 H 0.90185 0.70955 0.35864 0.0
H1859 H 0.89822 0.69631 0.37897 0.0
C1860 C 0.92097 0.62675 0.3337 0.0
C1861 C 0.92792 0.62464 0.34749 0.0
C1862 C 0.90922 0.63209 0.33526 0.0
C1863 C 0.90424 0.63557 0.35061 0.0
C1864 C 0.91113 0.63264 0.36433 0.0
H1865 H 0.83737 0.64617 0.39302 0.0
H1866 H 0.85775 0.64318 0.38732 0.0
C1867 C 0.92281 0.62747 0.36281 0.0
C1868 C 0.89181 0.6411 0.35249 0.0
H1869 H 0.87206 0.69783 0.37048 0.0
C1870 C 0.88443 0.61339 0.34646 0.0
C1871 C 0.88727 0.67233 0.36099 0.0
C1872 C 0.89468 0.70408 0.36701 0.0
C1873 C 0.87267 0.61539 0.3492 0.0
C1874 C 0.86818 0.64613 0.35803 0.0
C1875 C 0.87553 0.67417 0.36381 0.0
C1876 C 0.85588 0.64947 0.36149 0.0
C1877 C 0.86517 0.584 0.34306 0.0
C1878 C 0.8481 0.65489 0.3489 0.0
C1879 C 0.83647 0.65678 0.3521 0.0
C1880 C 0.83236 0.6533 0.36799 0.0
C1881 C 0.84022 0.64886 0.38064 0.0
C1882 C 0.85187 0.64712 0.37742 0.0
H1883 H 0.87015 0.55871 0.33949 0.0
H1884 H 0.85888 0.57559 0.35238 0.0
H1885 H 0.86043 0.59407 0.33232 0.0
H1886 H 0.85104 0.65741 0.33655 0.0
H1887 H 0.8307 0.66037 0.34205 0.0
H1888 H 0.56988 0.40612 0.64599 0.0
H1889 H 0.59013 0.40709 0.65206 0.0
H1890 H 0.59782 0.3956 0.60147 0.0
H1891 H 0.57746 0.39424 0.59518 0.0
H1892 H 0.60666 0.34558 0.64178 0.0
H1893 H 0.61655 0.49039 0.61963 0.0
H1894 H 0.60241 0.47647 0.62559 0.0
H1895 H 0.60815 0.46034 0.60679 0.0
C1896 C 0.57583 0.40408 0.63608 0.0
C1897 C 0.57201 0.40014 0.62006 0.0
C1898 C 0.58742 0.40452 0.63962 0.0
C1899 C 0.59544 0.4015 0.62723 0.0
C1900 C 0.59172 0.39818 0.61119 0.0
H1901 H 0.66823 0.40936 0.6227 0.0
H1902 H 0.6479 0.40828 0.61791 0.0
C1903 C 0.5801 0.39741 0.60763 0.0
C1904 C 0.60769 0.40099 0.63122 0.0
H1905 H 0.63186 0.45375 0.62903 0.0
C1906 C 0.61221 0.36918 0.63903 0.0
C1907 C 0.61483 0.43186 0.62762 0.0
C1908 C 0.6103 0.46691 0.61953 0.0
C1909 C 0.62379 0.36703 0.643 0.0
C1910 C 0.63097 0.39805 0.63947 0.0
C1911 C 0.62637 0.43001 0.63179 0.0
C1912 C 0.64338 0.39738 0.64278 0.0
C1913 C 0.62827 0.3311 0.65043 0.0
C1914 C 0.64769 0.39157 0.65843 0.0
C1915 C 0.65944 0.39175 0.66123 0.0
C1916 C 0.66705 0.39841 0.64846 0.0
C1917 C 0.66265 0.40437 0.63287 0.0
C1918 C 0.65099 0.40377 0.63008 0.0
H1919 H 0.62245 0.30691 0.64836 0.0
H1920 H 0.63674 0.32382 0.64546 0.0
H1921 H 0.62914 0.33502 0.66365 0.0
H1922 H 0.64198 0.38742 0.66851 0.0
H1923 H 0.66255 0.38731 0.67338 0.0
H1924 H 0.5867 0.78859 0.60469 0.0
H1925 H 0.60703 0.78966 0.59925 0.0
H1926 H 0.61368 0.81152 0.64954 0.0
H1927 H 0.59327 0.81039 0.65517 0.0
H1928 H 0.62126 0.85251 0.60498 0.0
H1929 H 0.63592 0.72522 0.63815 0.0
H1930 H 0.62124 0.73267 0.63279 0.0
H1931 H 0.6273 0.75716 0.64969 0.0
C1932 C 0.59246 0.79314 0.61468 0.0
C1933 C 0.58831 0.79949 0.6304 0.0
C1934 C 0.60409 0.79379 0.61152 0.0
C1935 C 0.61187 0.80045 0.62398 0.0
C1936 C 0.60783 0.80578 0.63977 0.0
H1937 H 0.68358 0.83664 0.63214 0.0
H1938 H 0.66334 0.82662 0.63571 0.0
C1939 C 0.59615 0.80522 0.64297 0.0
C1940 C 0.62413 0.80418 0.62021 0.0
H1941 H 0.65017 0.76629 0.62806 0.0
C1942 C 0.6276 0.83352 0.60992 0.0
C1943 C 0.63234 0.77937 0.62668 0.0
C1944 C 0.62905 0.7466 0.63734 0.0
C1945 C 0.63911 0.83946 0.60631 0.0
C1946 C 0.64736 0.81481 0.61287 0.0
C1947 C 0.64385 0.78511 0.62298 0.0
C1948 C 0.65971 0.82065 0.61026 0.0
C1949 C 0.64235 0.87291 0.59599 0.0
C1950 C 0.66449 0.82039 0.5947 0.0
C1951 C 0.67616 0.82644 0.59256 0.0
C1952 C 0.68327 0.83243 0.60596 0.0
C1953 C 0.67842 0.83213 0.6215 0.0
C1954 C 0.66681 0.82633 0.6236 0.0
H1955 H 0.63538 0.89397 0.59521 0.0
H1956 H 0.65003 0.88711 0.60081 0.0
H1957 H 0.64425 0.86305 0.58358 0.0
H1958 H 0.65922 0.81531 0.58423 0.0
H1959 H 0.67962 0.82622 0.58045 0.0
H1960 H 0.41666 0.56652 0.41351 0.0
H1961 H 0.39594 0.56335 0.41158 0.0
H1962 H 0.39851 0.54355 0.36038 0.0
H1963 H 0.41913 0.54589 0.36221 0.0
H1964 H 0.38224 0.61006 0.39407 0.0
H1965 H 0.37616 0.46254 0.37358 0.0
H1966 H 0.38943 0.47926 0.38178 0.0
H1967 H 0.3858 0.48869 0.36107 0.0
C1968 C 0.41282 0.56095 0.40188 0.0
C1969 C 0.41959 0.55639 0.38803 0.0
C1970 C 0.40098 0.5592 0.40079 0.0
C1971 C 0.39566 0.55267 0.38587 0.0
C1972 C 0.4024 0.54769 0.37208 0.0
H1973 H 0.32615 0.56689 0.35073 0.0
H1974 H 0.34681 0.56057 0.3533 0.0
C1975 C 0.41422 0.54931 0.37315 0.0
C1976 C 0.3831 0.55363 0.38449 0.0
H1977 H 0.3601 0.50338 0.37137 0.0
C1978 C 0.37739 0.5866 0.38925 0.0
C1979 C 0.37678 0.52307 0.3781 0.0
C1980 C 0.38234 0.48626 0.37348 0.0
C1981 C 0.3656 0.59012 0.38751 0.0
C1982 C 0.35931 0.55971 0.38101 0.0
C1983 C 0.36497 0.5267 0.37627 0.0
C1984 C 0.3468 0.56156 0.37939 0.0
C1985 C 0.35995 0.62663 0.39237 0.0
C1986 C 0.33997 0.56337 0.39321 0.0
C1987 C 0.32821 0.56687 0.3918 0.0
C1988 C 0.32301 0.56861 0.37652 0.0
C1989 C 0.32986 0.56579 0.36267 0.0
C1990 C 0.34166 0.56214 0.36411 0.0
H1991 H 0.36618 0.64997 0.39374 0.0
H1992 H 0.35348 0.63512 0.38334 0.0
H1993 H 0.3556 0.62261 0.40412 0.0
H1994 H 0.34376 0.56242 0.40512 0.0
H1995 H 0.32323 0.56875 0.40275 0.0
H1996 H 0.43602 0.15783 0.39151 0.0
H1997 H 0.41564 0.16162 0.39618 0.0
H1998 H 0.40975 0.16318 0.34482 0.0
H1999 H 0.4302 0.15829 0.33999 0.0
H2000 H 0.40018 0.21418 0.38822 0.0
H2001 H 0.38913 0.07836 0.35882 0.0
H2002 H 0.40358 0.0916 0.36322 0.0
H2003 H 0.39651 0.11044 0.34573 0.0
C2004 C 0.43042 0.15895 0.38116 0.0
C2005 C 0.43477 0.15746 0.36535 0.0
C2006 C 0.41875 0.16116 0.38388 0.0
C2007 C 0.41113 0.162 0.37088 0.0
C2008 C 0.41544 0.16157 0.35506 0.0
H2009 H 0.33824 0.18239 0.36369 0.0
H2010 H 0.35871 0.18285 0.35937 0.0
C2011 C 0.42714 0.15904 0.35231 0.0
C2012 C 0.39872 0.16348 0.37401 0.0
H2013 H 0.37375 0.11738 0.36681 0.0
C2014 C 0.39441 0.19291 0.38359 0.0
C2015 C 0.39119 0.13557 0.36806 0.0
C2016 C 0.39533 0.102 0.35852 0.0
C2017 C 0.38278 0.19552 0.38715 0.0
C2018 C 0.37529 0.16793 0.38101 0.0
C2019 C 0.37955 0.13852 0.37146 0.0
C2020 C 0.36292 0.16942 0.3841 0.0
C2021 C 0.37853 0.22804 0.39721 0.0
C2022 C 0.3585 0.16179 0.3995 0.0
C2023 C 0.34675 0.16127 0.40204 0.0
C2024 C 0.33923 0.16849 0.38921 0.0
C2025 C 0.34375 0.17677 0.37388 0.0
C2026 C 0.35546 0.177 0.37134 0.0
H2027 H 0.38512 0.25011 0.39893 0.0
H2028 H 0.37097 0.24108 0.39148 0.0
H2029 H 0.37593 0.21739 0.40926 0.0
H2030 H 0.36415 0.15551 0.40946 0.0
H2031 H 0.34357 0.15473 0.41398 0.0
H2032 H 0.66832 0.92962 0.12289 0.0
H2033 H 0.64784 0.92777 0.11913 0.0
H2034 H 0.64369 0.88321 0.16718 0.0
H2035 H 0.66434 0.8848 0.17114 0.0
H2036 H 0.63435 0.85928 0.12183 0.0
H2037 H 0.62049 0.97307 0.16366 0.0
H2038 H 0.63482 0.97002 0.15601 0.0
H2039 H 0.63019 0.93854 0.17166 0.0
C2040 C 0.6631 0.91975 0.13279 0.0
C2041 C 0.66803 0.90726 0.14734 0.0
C2042 C 0.65137 0.91869 0.13057 0.0
C2043 C 0.64425 0.90552 0.14288 0.0
C2044 C 0.64905 0.89387 0.15759 0.0
H2045 H 0.57194 0.87043 0.15046 0.0
H2046 H 0.59224 0.87796 0.15478 0.0
C2047 C 0.66085 0.89473 0.15981 0.0
C2048 C 0.63188 0.90219 0.13986 0.0
H2049 H 0.6061 0.93774 0.15082 0.0
C2050 C 0.62815 0.87646 0.12813 0.0
C2051 C 0.62386 0.92463 0.14811 0.0
C2052 C 0.62748 0.95337 0.1605 0.0
C2053 C 0.61656 0.872 0.12463 0.0
C2054 C 0.6085 0.89466 0.13279 0.0
C2055 C 0.61227 0.9205 0.14451 0.0
C2056 C 0.5961 0.8909 0.12986 0.0
C2057 C 0.61307 0.84224 0.11259 0.0
C2058 C 0.59142 0.89615 0.11441 0.0
C2059 C 0.57974 0.89151 0.11182 0.0
C2060 C 0.5725 0.88204 0.12471 0.0
C2061 C 0.57722 0.87769 0.14022 0.0
C2062 C 0.58886 0.88204 0.14275 0.0
H2063 H 0.61984 0.82085 0.11076 0.0
H2064 H 0.60522 0.82753 0.11653 0.0
H2065 H 0.61137 0.85589 0.10077 0.0
H2066 H 0.59679 0.90389 0.10434 0.0
H2067 H 0.57639 0.8954 0.09977 0.0
H2068 H 0.67818 0.33474 0.07997 0.0
H2069 H 0.65773 0.32894 0.08505 0.0
H2070 H 0.6646 0.28644 0.13282 0.0
H2071 H 0.68492 0.29178 0.12788 0.0
H2072 H 0.64766 0.24589 0.11627 0.0
H2073 H 0.63985 0.4007 0.11523 0.0
H2074 H 0.64677 0.3818 0.09767 0.0
H2075 H 0.65391 0.38083 0.11681 0.0
C2076 C 0.67533 0.32385 0.09149 0.0
C2077 C 0.68321 0.31401 0.10355 0.0
C2078 C 0.66365 0.32082 0.09442 0.0
C2079 C 0.65966 0.30785 0.10942 0.0
C2080 C 0.66749 0.29674 0.12121 0.0
H2081 H 0.59233 0.33187 0.15195 0.0
H2082 H 0.61282 0.3328 0.14669 0.0
C2083 C 0.67913 0.29988 0.11834 0.0
C2084 C 0.64733 0.30621 0.11306 0.0
H2085 H 0.62381 0.36121 0.11836 0.0
C2086 C 0.64243 0.27108 0.11669 0.0
C2087 C 0.64059 0.3392 0.1139 0.0
C2088 C 0.64552 0.37787 0.11084 0.0
C2089 C 0.63093 0.26797 0.12091 0.0
C2090 C 0.62412 0.30085 0.12137 0.0
C2091 C 0.62905 0.33605 0.11795 0.0
C2092 C 0.6118 0.29916 0.12496 0.0
C2093 C 0.62619 0.22961 0.12508 0.0
C2094 C 0.60445 0.28003 0.11448 0.0
C2095 C 0.59279 0.27948 0.11742 0.0
C2096 C 0.58819 0.29816 0.13091 0.0
C2097 C 0.59559 0.31705 0.14151 0.0
C2098 C 0.60729 0.31771 0.13849 0.0
H2099 H 0.633 0.20919 0.12819 0.0
H2100 H 0.62019 0.23147 0.13538 0.0
H2101 H 0.62149 0.21833 0.11452 0.0
H2102 H 0.60772 0.26604 0.10383 0.0
H2103 H 0.58737 0.26471 0.10896 0.0
H2104 H 0.41351 0.08841 0.92959 0.0
H2105 H 0.39311 0.07441 0.92862 0.0
H2106 H 0.39368 0.08434 0.87677 0.0
H2107 H 0.41392 0.09769 0.87755 0.0
H2108 H 0.37555 0.11846 0.91636 0.0
H2109 H 0.37807 -0.01688 0.8831 0.0
H2110 H 0.39029 0.00466 0.89248 0.0
H2111 H 0.3854 0.02088 0.8731 0.0
C2112 C 0.4093 0.08742 0.91798 0.0
C2113 C 0.4154 0.09399 0.90365 0.0
C2114 C 0.39765 0.0794 0.91745 0.0
C2115 C 0.39192 0.07757 0.90259 0.0
C2116 C 0.39797 0.0846 0.88834 0.0
H2117 H 0.3235 0.05861 0.86678 0.0
H2118 H 0.344 0.06478 0.87068 0.0
C2119 C 0.40956 0.09252 0.88884 0.0
C2120 C 0.37955 0.06985 0.90187 0.0
H2121 H 0.3598 0.01227 0.88438 0.0
C2122 C 0.3721 0.09497 0.90955 0.0
C2123 C 0.37506 0.03924 0.89293 0.0
C2124 C 0.38262 0.01021 0.88506 0.0
C2125 C 0.36028 0.09109 0.90806 0.0
C2126 C 0.35581 0.06096 0.89882 0.0
C2127 C 0.36325 0.03544 0.89139 0.0
C2128 C 0.34342 0.05588 0.8965 0.0
C2129 C 0.35267 0.12002 0.91589 0.0
C2130 C 0.33633 0.04803 0.90967 0.0
C2131 C 0.32461 0.04442 0.90749 0.0
C2132 C 0.31975 0.04848 0.89207 0.0
C2133 C 0.32694 0.05541 0.87883 0.0
C2134 C 0.33866 0.05895 0.88103 0.0
H2135 H 0.35742 0.14579 0.91948 0.0
H2136 H 0.34569 0.12833 0.90763 0.0
H2137 H 0.34882 0.10763 0.92691 0.0
H2138 H 0.33985 0.04486 0.92167 0.0
H2139 H 0.31936 0.03889 0.91795 0.0
H2140 H 0.42914 0.67947 0.88156 0.0
H2141 H 0.40862 0.6719 0.88285 0.0
H2142 H 0.40881 0.61918 0.83597 0.0
H2143 H 0.42949 0.6259 0.83469 0.0
H2144 H 0.39191 0.69932 0.86362 0.0
H2145 H 0.39139 0.54268 0.86278 0.0
H2146 H 0.40422 0.56949 0.86595 0.0
H2147 H 0.39867 0.56331 0.84591 0.0
C2148 C 0.42486 0.66623 0.87148 0.0
C2149 C 0.43101 0.65307 0.85804 0.0
C2150 C 0.4131 0.66195 0.87226 0.0
C2151 C 0.40718 0.64439 0.85965 0.0
C2152 C 0.41323 0.63201 0.84602 0.0
H2153 H 0.33678 0.60049 0.8393 0.0
H2154 H 0.35733 0.60794 0.83921 0.0
C2155 C 0.42504 0.63614 0.84525 0.0
C2156 C 0.39468 0.63957 0.8608 0.0
H2157 H 0.37356 0.57348 0.86048 0.0
C2158 C 0.3879 0.67179 0.86302 0.0
C2159 C 0.38946 0.6036 0.86015 0.0
C2160 C 0.3963 0.56774 0.85873 0.0
C2161 C 0.37604 0.66909 0.86419 0.0
C2162 C 0.37083 0.6332 0.86327 0.0
C2163 C 0.37759 0.60097 0.86118 0.0
C2164 C 0.35832 0.62863 0.8637 0.0
C2165 C 0.36914 0.70471 0.86599 0.0
C2166 C 0.35204 0.63743 0.87761 0.0
C2167 C 0.34022 0.63311 0.87775 0.0
C2168 C 0.33449 0.61994 0.86396 0.0
C2169 C 0.34087 0.61086 0.85013 0.0
C2170 C 0.35264 0.61502 0.85004 0.0
H2171 H 0.37423 0.73043 0.86339 0.0
H2172 H 0.36169 0.70422 0.85779 0.0
H2173 H 0.36595 0.7067 0.87856 0.0
H2174 H 0.35629 0.6475 0.88837 0.0
H2175 H 0.33558 0.64024 0.8886 0.0
H2176 H 0.03537 0.94801 0.1372 0.0
H2177 H 0.03377 0.01665 0.13497 0.0
H2178 H 0.03137 0.00747 0.0832 0.0
H2179 H 0.03298 0.93882 0.08524 0.0
H2180 H 0.04779 0.06068 0.09488 0.0
H2181 H 0.00543 0.08034 0.12279 0.0
H2182 H 0.01492 0.0514 0.13441 0.0
H2183 H 0.01019 0.03546 0.11495 0.0
C2184 C 0.03442 0.96052 0.12534 0.0
C2185 C 0.03429 0.93794 0.11141 0.0
C2186 C 0.03344 -0.0003 0.12411 0.0
C2187 C 0.03231 0.01691 0.10894 0.0
C2188 C 0.03216 -0.00544 0.09501 0.0
H2189 H 0.03541 0.26221 0.08989 0.0
H2190 H 0.03354 0.1941 0.08504 0.0
C2191 C 0.03308 0.95537 0.09623 0.0
C2192 C 0.0319 0.05844 0.10764 0.0
H2193 H 0.01703 0.13539 0.12032 0.0
C2194 C 0.04099 0.07715 0.1002 0.0
C2195 C 0.02297 0.07956 0.11452 0.0
C2196 C 0.01276 0.06072 0.12199 0.0
C2197 C 0.04174 0.11668 0.10031 0.0
C2198 C 0.03304 0.13778 0.10782 0.0
C2199 C 0.02369 0.11904 0.1146 0.0
C2200 C 0.03403 0.17892 0.11033 0.0
C2201 C 0.05209 0.13545 0.09319 0.0
C2202 C 0.03475 0.19275 0.12612 0.0
C2203 C 0.03574 0.23133 0.12893 0.0
C2204 C 0.03603 0.25701 0.11598 0.0
C2205 C 0.03527 0.24313 0.10011 0.0
C2206 C 0.03424 0.20429 0.09731 0.0
H2207 H 0.05888 0.11479 0.09032 0.0
H2208 H 0.04968 0.15014 0.08186 0.0
H2209 H 0.05555 0.15688 0.10164 0.0
H2210 H 0.03461 0.17357 0.13632 0.0
H2211 H 0.03631 0.24094 0.14131 0.0
H2212 H 0.20287 0.96916 0.07618 0.0
H2213 H 0.20379 0.03445 0.08591 0.0
H2214 H 0.23297 0.00609 0.11499 0.0
H2215 H 0.23159 0.94057 0.10605 0.0
H2216 H 0.21886 0.04235 0.13245 0.0
H2217 H 0.22332 0.12169 0.07529 0.0
H2218 H 0.21081 0.09295 0.07525 0.0
H2219 H 0.22459 0.07101 0.07615 0.0
C2220 C 0.2096 0.97722 0.08437 0.0
C2221 C 0.21718 0.95006 0.09035 0.0
C2222 C 0.21016 0.01453 0.0899 0.0
C2223 C 0.21854 0.02543 0.10107 0.0
C2224 C 0.22641 -0.00155 0.10644 0.0
H2225 H 0.2313 0.2599 0.12443 0.0
H2226 H 0.23269 0.19442 0.11546 0.0
C2227 C 0.22566 0.96109 0.10126 0.0
C2228 C 0.21868 0.06402 0.10811 0.0
H2229 H 0.21832 0.1577 0.09858 0.0
C2230 C 0.21886 0.06758 0.12501 0.0
C2231 C 0.2188 0.09701 0.09848 0.0
C2232 C 0.21949 0.0955 0.0803 0.0
C2233 C 0.21914 0.10305 0.13253 0.0
C2234 C 0.21871 0.13603 0.12291 0.0
C2235 C 0.21856 0.13247 0.10601 0.0
C2236 C 0.21859 0.17461 0.12995 0.0
C2237 C 0.2202 0.10461 0.15067 0.0
C2238 C 0.2104 0.18523 0.14143 0.0
C2239 C 0.20983 0.22253 0.14696 0.0
C2240 C 0.21721 0.24996 0.14068 0.0
C2241 C 0.22551 0.2392 0.12945 0.0
C2242 C 0.22627 0.20185 0.12426 0.0
H2243 H 0.2242 0.07856 0.15553 0.0
H2244 H 0.22531 0.12929 0.1546 0.0
H2245 H 0.21161 0.10688 0.15608 0.0
H2246 H 0.20418 0.16508 0.14569 0.0
H2247 H 0.20324 0.23035 0.15542 0.0
H2248 H 0.96263 0.71983 0.90696 0.0
H2249 H 0.96379 0.7857 0.89803 0.0
H2250 H 0.96064 0.74998 0.84849 0.0
H2251 H 0.95966 0.68434 0.8572 0.0
H2252 H 0.97772 0.80222 0.85291 0.0
H2253 H 0.93765 0.85052 0.88129 0.0
H2254 H 0.94729 0.8283 0.89512 0.0
H2255 H 0.94114 0.80119 0.879 0.0
C2256 C 0.96216 0.726 0.89418 0.0
C2257 C 0.96101 0.69676 0.88282 0.0
C2258 C 0.96276 0.76366 0.88909 0.0
C2259 C 0.96213 0.77272 0.87261 0.0
C2260 C 0.9611 0.74361 0.86127 0.0
H2261 H 0.96398 -0.00955 0.8212 0.0
H2262 H 0.96282 0.92243 0.82697 0.0
C2263 C 0.96052 0.70606 0.86631 0.0
C2264 C 0.96272 0.81248 0.86708 0.0
H2265 H 0.94973 0.89817 0.8706 0.0
C2266 C 0.97156 0.82318 0.85666 0.0
C2267 C 0.9546 0.83961 0.87188 0.0
C2268 C 0.94456 0.82934 0.88231 0.0
C2269 C 0.97273 0.86069 0.85138 0.0
C2270 C 0.96478 0.88795 0.85654 0.0
C2271 C 0.95581 0.8771 0.86668 0.0
C2272 C 0.96602 0.92846 0.85255 0.0
C2273 C 0.98264 0.87122 0.84079 0.0
C2274 C 0.9682 0.95412 0.86501 0.0
C2275 C 0.96885 -0.00736 0.86179 0.0
C2276 C 0.96728 0.00653 0.84602 0.0
C2277 C 0.96527 0.98069 0.83345 0.0
C2278 C 0.96463 0.94187 0.83671 0.0
H2279 H 0.98897 0.84808 0.83991 0.0
H2280 H 0.97953 0.8777 0.82845 0.0
H2281 H 0.98692 0.8969 0.8455 0.0
H2282 H 0.9693 0.94429 0.8773 0.0
H2283 H 0.97045 0.01157 0.87179 0.0
H2284 H 0.80771 0.00673 0.88959 0.0
H2285 H 0.80787 0.93748 0.88891 0.0
H2286 H 0.77977 0.93884 0.85547 0.0
H2287 H 0.78011 0.0077 0.85533 0.0
H2288 H 0.79376 0.88668 0.89727 0.0
H2289 H 0.8 0.87008 0.83173 0.0
H2290 H 0.80121 0.91529 0.84155 0.0
H2291 H 0.78752 0.89749 0.83544 0.0
C2292 C 0.80162 -0.00792 0.88206 0.0
C2293 C 0.794 0.01236 0.87237 0.0
C2294 C 0.80172 0.9526 0.88165 0.0
C2295 C 0.79405 0.93288 0.87175 0.0
C2296 C 0.78609 0.9533 0.86265 0.0
H2297 H 0.77351 0.70193 0.88757 0.0
H2298 H 0.77567 0.77054 0.88695 0.0
C2299 C 0.78621 -0.00735 0.86272 0.0
C2300 C 0.79406 0.89099 0.87133 0.0
H2301 H 0.79256 0.81577 0.84572 0.0
C2302 C 0.79366 0.87117 0.88599 0.0
C2303 C 0.79422 0.87055 0.85664 0.0
C2304 C 0.7959 0.88951 0.84049 0.0
C2305 C 0.793 0.83165 0.88637 0.0
C2306 C 0.79214 0.81148 0.87166 0.0
C2307 C 0.79296 0.83119 0.85701 0.0
C2308 C 0.79035 0.77001 0.87119 0.0
C2309 C 0.79345 0.81213 0.90256 0.0
C2310 C 0.79736 0.74696 0.86164 0.0
C2311 C 0.79582 0.70784 0.86147 0.0
C2312 C 0.78738 0.69114 0.87106 0.0
C2313 C 0.78017 0.7142 0.88023 0.0
C2314 C 0.7815 0.75334 0.88004 0.0
H2315 H 0.79814 0.82939 0.91155 0.0
H2316 H 0.7847 0.80824 0.90718 0.0
H2317 H 0.79761 0.78408 0.90171 0.0
H2318 H 0.80418 0.75915 0.85459 0.0
H2319 H 0.80152 0.69057 0.85435 0.0
H2320 H 0.03165 0.78711 0.61247 0.0
H2321 H 0.03149 0.71889 0.60778 0.0
H2322 H 0.0292 0.69915 0.65903 0.0
H2323 H 0.02941 0.76714 0.66389 0.0
H2324 H 0.04635 0.65712 0.64311 0.0
H2325 H 0.00463 0.64451 0.61241 0.0
H2326 H 0.01393 0.67974 0.6041 0.0
H2327 H 0.00855 0.6853 0.62424 0.0
C2328 C 0.03102 0.76829 0.62274 0.0
C2329 C 0.03053 0.78262 0.63855 0.0
C2330 C 0.03088 0.72934 0.62003 0.0
C2331 C 0.0302 0.70409 0.63306 0.0
C2332 C 0.02967 0.71824 0.64882 0.0
H2333 H 0.03431 0.45777 0.63924 0.0
H2334 H 0.03273 0.52497 0.64583 0.0
C2335 C 0.02978 0.75713 0.65155 0.0
C2336 C 0.03055 0.66286 0.63031 0.0
H2337 H 0.01649 0.59032 0.61206 0.0
C2338 C 0.03979 0.64238 0.63643 0.0
C2339 C 0.02197 0.64389 0.62159 0.0
C2340 C 0.01165 0.66434 0.61531 0.0
C2341 C 0.04086 0.60347 0.63365 0.0
C2342 C 0.03233 0.58453 0.62479 0.0
C2343 C 0.02301 0.60496 0.61885 0.0
C2344 C 0.03312 0.54379 0.62098 0.0
C2345 C 0.05127 0.58324 0.63977 0.0
C2346 C 0.03359 0.53213 0.60484 0.0
C2347 C 0.0344 0.49387 0.60103 0.0
C2348 C 0.03474 0.46643 0.61331 0.0
C2349 C 0.03415 0.47818 0.6295 0.0
C2350 C 0.0333 0.51656 0.6333 0.0
H2351 H 0.05818 0.60325 0.64293 0.0
H2352 H 0.04904 0.56705 0.6508 0.0
H2353 H 0.05451 0.56303 0.63063 0.0
H2354 H 0.03342 0.55272 0.59516 0.0
H2355 H 0.03482 0.48587 0.58843 0.0
H2356 H 0.2133 0.48914 0.62967 0.0
H2357 H 0.21548 0.55722 0.63033 0.0
H2358 H 0.21825 0.55995 0.57847 0.0
H2359 H 0.216 0.49087 0.57759 0.0
H2360 H 0.23422 0.60152 0.61742 0.0
H2361 H 0.19213 0.63594 0.59033 0.0
H2362 H 0.19508 0.58991 0.59872 0.0
H2363 H 0.20137 0.6036 0.57991 0.0
C2364 C 0.21436 0.50395 0.61833 0.0
C2365 C 0.21442 0.48444 0.60354 0.0
C2366 C 0.21565 0.54295 0.61877 0.0
C2367 C 0.21698 0.56353 0.60447 0.0
C2368 C 0.21714 0.54444 0.58963 0.0
H2369 H 0.21362 0.81096 0.6083 0.0
H2370 H 0.21647 0.74751 0.59749 0.0
C2371 C 0.21588 0.50506 0.58915 0.0
C2372 C 0.218 0.60503 0.60556 0.0
H2373 H 0.20232 0.68559 0.60215 0.0
C2374 C 0.22736 0.6201 0.61381 0.0
C2375 C 0.20905 0.62908 0.60076 0.0
C2376 C 0.19878 0.61406 0.59198 0.0
C2377 C 0.22774 0.65834 0.61812 0.0
C2378 C 0.21842 0.68183 0.61433 0.0
C2379 C 0.2094 0.66734 0.60516 0.0
C2380 C 0.21742 0.72056 0.62087 0.0
C2381 C 0.23798 0.67304 0.62703 0.0
C2382 C 0.21695 0.72634 0.63762 0.0
C2383 C 0.21529 0.76255 0.64388 0.0
C2384 C 0.21402 0.79363 0.63347 0.0
C2385 C 0.21459 0.78769 0.61668 0.0
C2386 C 0.21622 0.75146 0.61045 0.0
H2387 H 0.24561 0.65556 0.62454 0.0
H2388 H 0.23984 0.70278 0.62367 0.0
H2389 H 0.23632 0.67193 0.6402 0.0
H2390 H 0.21762 0.70269 0.64587 0.0
H2391 H 0.21486 0.76607 0.65684 0.0
H2392 H 0.97509 0.48848 0.37713 0.0
H2393 H 0.97628 0.42067 0.38065 0.0
H2394 H 0.96864 0.40423 0.33025 0.0
H2395 H 0.96724 0.47305 0.32656 0.0
H2396 H 0.95538 0.36065 0.35068 0.0
H2397 H 1.00046 0.34562 0.36763 0.0
H2398 H 0.99362 0.3813 0.37948 0.0
H2399 H 0.99499 0.38758 0.35799 0.0
C2400 C 0.97376 0.47068 0.36667 0.0
C2401 C 0.97104 0.4863 0.35154 0.0
C2402 C 0.97456 0.43178 0.36871 0.0
C2403 C 0.97277 0.4074 0.35566 0.0
C2404 C 0.97018 0.42267 0.34044 0.0
H2405 H 0.9668 0.1614 0.36376 0.0
H2406 H 0.96931 0.22476 0.35272 0.0
C2407 C 0.96939 0.46192 0.33835 0.0
C2408 C 0.97271 0.36612 0.35857 0.0
H2409 H 0.98788 0.29597 0.37688 0.0
C2410 C 0.96256 0.34623 0.35607 0.0
C2411 C 0.98209 0.34739 0.36562 0.0
C2412 C 0.99343 0.36652 0.36767 0.0
C2413 C 0.96134 0.30874 0.36132 0.0
C2414 C 0.97052 0.29083 0.36919 0.0
C2415 C 0.98082 0.31008 0.37104 0.0
C2416 C 0.96944 0.25239 0.37595 0.0
C2417 C 0.9501 0.289 0.35909 0.0
C2418 C 0.96889 0.24703 0.39271 0.0
C2419 C 0.96741 0.21079 0.39914 0.0
C2420 C 0.96657 0.17934 0.38886 0.0
C2421 C 0.96739 0.18493 0.37206 0.0
C2422 C 0.9688 0.22112 0.36568 0.0
H2423 H 0.94339 0.30845 0.35466 0.0
H2424 H 0.9511 0.26582 0.3502 0.0
H2425 H 0.94727 0.27623 0.37065 0.0
H2426 H 0.9694 0.27098 0.40081 0.0
H2427 H 0.96685 0.20749 0.41211 0.0
H2428 H 0.76872 0.20585 0.37719 0.0
H2429 H 0.76812 0.27466 0.37525 0.0
H2430 H 0.79969 0.27354 0.34879 0.0
H2431 H 0.79984 0.20444 0.34976 0.0
H2432 H 0.78155 0.32052 0.38844 0.0
H2433 H 0.78342 0.3497 0.32301 0.0
H2434 H 0.78086 0.30294 0.33083 0.0
H2435 H 0.79513 0.32082 0.32909 0.0
C2436 C 0.77537 0.22039 0.37063 0.0
C2437 C 0.7843 0.20015 0.36357 0.0
C2438 C 0.77505 0.25963 0.36955 0.0
C2439 C 0.7838 0.27941 0.36174 0.0
C2440 C 0.79265 0.25902 0.35444 0.0
H2441 H 0.80178 0.50838 0.38856 0.0
H2442 H 0.79993 0.43979 0.38624 0.0
C2443 C 0.79279 0.21958 0.35509 0.0
C2444 C 0.78417 0.32121 0.36267 0.0
H2445 H 0.78848 0.40114 0.34052 0.0
C2446 C 0.78291 0.33813 0.37789 0.0
C2447 C 0.78581 0.34435 0.34893 0.0
C2448 C 0.78625 0.32849 0.33205 0.0
C2449 C 0.78337 0.37737 0.37981 0.0
C2450 C 0.78576 0.40032 0.36625 0.0
C2451 C 0.78683 0.38351 0.35097 0.0
C2452 C 0.78705 0.44181 0.36759 0.0
C2453 C 0.78103 0.39366 0.39632 0.0
C2454 C 0.78078 0.46573 0.35744 0.0
C2455 C 0.78211 0.50479 0.3584 0.0
C2456 C 0.78958 0.52065 0.36972 0.0
C2457 C 0.79583 0.49681 0.37991 0.0
C2458 C 0.79472 0.45767 0.37866 0.0
H2459 H 0.77565 0.37438 0.40364 0.0
H2460 H 0.78916 0.39744 0.40285 0.0
H2461 H 0.7767 0.42143 0.39549 0.0
H2462 H 0.77484 0.45418 0.34878 0.0
H2463 H 0.77717 0.52261 0.35041 0.0
H2464 H 0.55141 0.9497 0.6097 0.0
H2465 H 0.5489 0.01785 0.60913 0.0
H2466 H 0.54361 0.01856 0.66062 0.0
H2467 H 0.54608 0.94968 0.66136 0.0
H2468 H 0.52671 0.05792 0.64129 0.0
H2469 H 0.57071 0.10057 0.62596 0.0
H2470 H 0.56512 0.0637 0.61339 0.0
H2471 H 0.56731 0.05503 0.63454 0.0
C2472 C 0.5498 0.96422 0.62097 0.0
C2473 C 0.54893 0.94424 0.6356 0.0
C2474 C 0.54844 0.00323 0.62061 0.0
C2475 C 0.54621 0.02312 0.63484 0.0
C2476 C 0.54541 0.00353 0.64953 0.0
H2477 H 0.52982 0.26089 0.64676 0.0
H2478 H 0.53243 0.19337 0.6511 0.0
C2479 C 0.54685 0.96431 0.64993 0.0
C2480 C 0.54414 0.06415 0.63402 0.0
H2481 H 0.55628 0.1469 0.62198 0.0
C2482 C 0.53319 0.07756 0.63729 0.0
C2483 C 0.55263 0.08943 0.62869 0.0
C2484 C 0.56463 0.07659 0.62557 0.0
C2485 C 0.53037 0.1156 0.63477 0.0
C2486 C 0.5388 0.14072 0.62909 0.0
C2487 C 0.54982 0.12741 0.62619 0.0
C2488 C 0.53645 0.1811 0.62619 0.0
C2489 C 0.51832 0.1283 0.63766 0.0
C2490 C 0.53792 0.19656 0.61073 0.0
C2491 C 0.5365 0.23527 0.60819 0.0
C2492 C 0.53366 0.25915 0.62111 0.0
C2493 C 0.53197 0.24332 0.63651 0.0
C2494 C 0.5334 0.20468 0.63903 0.0
H2495 H 0.51234 0.10407 0.63806 0.0
H2496 H 0.51785 0.14316 0.64942 0.0
H2497 H 0.51551 0.14821 0.62811 0.0
H2498 H 0.54032 0.1787 0.60069 0.0
H2499 H 0.53789 0.24655 0.59619 0.0
H2500 H 0.71401 0.30553 0.60586 0.0
H2501 H 0.71768 0.24183 0.59579 0.0
H2502 H 0.71826 0.19955 0.64457 0.0
H2503 H 0.71456 0.26319 0.65485 0.0
H2504 H 0.73736 0.17675 0.62135 0.0
H2505 H 0.69333 0.15289 0.5989 0.0
H2506 H 0.70037 0.19653 0.5939 0.0
H2507 H 0.69642 0.18722 0.6144 0.0
C2508 C 0.71495 0.28276 0.61449 0.0
C2509 C 0.71394 0.28945 0.63119 0.0
C2510 C 0.71702 0.24641 0.60868 0.0
C2511 C 0.71815 0.21617 0.61945 0.0
C2512 C 0.71738 0.2227 0.63611 0.0
H2513 H 0.72721 -0.01606 0.62912 0.0
H2514 H 0.72738 0.05237 0.6298 0.0
C2515 C 0.71524 0.25902 0.64194 0.0
C2516 C 0.71998 0.17745 0.61341 0.0
H2517 H 0.70604 0.10201 0.59725 0.0
C2518 C 0.73057 0.16047 0.61591 0.0
C2519 C 0.71115 0.15668 0.60607 0.0
C2520 C 0.69963 0.17399 0.60315 0.0
C2521 C 0.73243 0.12258 0.6118 0.0
C2522 C 0.72337 0.10101 0.60545 0.0
C2523 C 0.71296 0.11862 0.60214 0.0
C2524 C 0.72401 0.05936 0.60431 0.0
C2525 C 0.74403 0.10579 0.61461 0.0
C2526 C 0.72182 0.0404 0.58975 0.0
C2527 C 0.72163 0.00082 0.58931 0.0
C2528 C 0.72348 0.97978 0.60348 0.0
C2529 C 0.72575 -0.0009 0.61795 0.0
C2530 C 0.72597 0.03835 0.61836 0.0
H2531 H 0.75075 0.12774 0.61381 0.0
H2532 H 0.74437 0.09348 0.62692 0.0
H2533 H 0.74593 0.08315 0.60575 0.0
H2534 H 0.72015 0.05621 0.57881 0.0
H2535 H 0.71981 -0.01322 0.57799 0.0
H2536 H 0.45874 0.71263 0.40808 0.0
H2537 H 0.46144 0.78112 0.40515 0.0
H2538 H 0.46528 0.76779 0.35375 0.0
H2539 H 0.46254 0.69992 0.35642 0.0
H2540 H 0.48339 0.81217 0.37345 0.0
H2541 H 0.43824 0.85689 0.37964 0.0
H2542 H 0.44385 0.82215 0.39343 0.0
H2543 H 0.44207 0.81035 0.37257 0.0
C2544 C 0.4601 0.72433 0.39616 0.0
C2545 C 0.46042 0.7008 0.3825 0.0
C2546 C 0.46163 0.76335 0.39452 0.0
C2547 C 0.46353 0.77919 0.37923 0.0
C2548 C 0.46381 0.75591 0.36562 0.0
H2549 H 0.46556 0.00755 0.34211 0.0
H2550 H 0.46348 0.93907 0.34552 0.0
C2551 C 0.46222 0.71712 0.36721 0.0
C2552 C 0.46548 0.82001 0.37728 0.0
H2553 H 0.4518 0.90469 0.37513 0.0
C2554 C 0.47652 0.83252 0.37391 0.0
C2555 C 0.45644 0.84609 0.3777 0.0
C2556 C 0.44444 0.83347 0.38096 0.0
C2557 C 0.47877 0.8708 0.371 0.0
C2558 C 0.46973 0.89692 0.37146 0.0
C2559 C 0.45868 0.88438 0.37477 0.0
C2560 C 0.47162 0.93762 0.36891 0.0
C2561 C 0.49073 0.88314 0.36724 0.0
C2562 C 0.47695 0.95905 0.38089 0.0
C2563 C 0.47809 -0.002 0.37904 0.0
C2564 C 0.47395 0.01615 0.36513 0.0
C2565 C 0.46888 -0.00564 0.35292 0.0
C2566 C 0.46765 0.95536 0.35487 0.0
H2567 H 0.49641 0.85877 0.36481 0.0
H2568 H 0.49081 0.90226 0.35661 0.0
H2569 H 0.49419 0.89909 0.37766 0.0
H2570 H 0.47999 0.94574 0.39185 0.0
H2571 H 0.48206 0.01396 0.38866 0.0
H2572 H 0.28437 0.72807 0.3968 0.0
H2573 H 0.28646 0.79626 0.39458 0.0
H2574 H 0.28852 0.78715 0.3428 0.0
H2575 H 0.28644 0.71828 0.34483 0.0
H2576 H 0.30658 0.8316 0.37706 0.0
H2577 H 0.26375 0.87261 0.35442 0.0
H2578 H 0.26591 0.82965 0.36579 0.0
H2579 H 0.27101 0.83298 0.34547 0.0
C2580 C 0.28517 0.74039 0.38489 0.0
C2581 C 0.28528 0.71763 0.37098 0.0
C2582 C 0.28636 0.7794 0.38367 0.0
C2583 C 0.28761 0.79652 0.36855 0.0
C2584 C 0.28748 0.77426 0.35456 0.0
H2585 H 0.29428 0.04087 0.35428 0.0
H2586 H 0.29239 0.9732 0.34897 0.0
C2587 C 0.28631 0.735 0.35576 0.0
C2588 C 0.28963 0.83756 0.36775 0.0
H2589 H 0.27633 0.92172 0.36124 0.0
C2590 C 0.30003 0.85138 0.37342 0.0
C2591 C 0.28107 0.86302 0.36288 0.0
C2592 C 0.26976 0.84911 0.35681 0.0
C2593 C 0.302 0.89023 0.37482 0.0
C2594 C 0.29323 0.91576 0.37079 0.0
C2595 C 0.28299 0.90198 0.36443 0.0
C2596 C 0.29432 0.95666 0.37395 0.0
C2597 C 0.31342 0.9036 0.38076 0.0
C2598 C 0.29583 0.96968 0.38979 0.0
C2599 C 0.29693 0.00823 0.39288 0.0
C2600 C 0.29644 0.03452 0.38018 0.0
C2601 C 0.29474 0.02137 0.36434 0.0
C2602 C 0.29364 0.98275 0.36126 0.0
H2603 H 0.3201 0.88201 0.37872 0.0
H2604 H 0.31599 0.93022 0.37468 0.0
H2605 H 0.31293 0.909 0.39393 0.0
H2606 H 0.29613 0.94997 0.39979 0.0
H2607 H 0.29815 0.01737 0.40523 0.0
H2608 H 0.54221 0.41184 0.09294 0.0
H2609 H 0.53854 0.4781 0.08612 0.0
H2610 H 0.53774 0.50616 0.13671 0.0
H2611 H 0.5414 0.44028 0.14369 0.0
H2612 H 0.51876 0.53504 0.11546 0.0
H2613 H 0.56255 0.5662 0.09361 0.0
H2614 H 0.55535 0.52473 0.08627 0.0
H2615 H 0.55969 0.52703 0.10698 0.0
C2616 C 0.54123 0.43209 0.10262 0.0
C2617 C 0.54215 0.42081 0.11887 0.0
C2618 C 0.53916 0.46988 0.09868 0.0
C2619 C 0.53794 0.49682 0.11093 0.0
C2620 C 0.53867 0.48562 0.12712 0.0
H2621 H 0.52988 0.72126 0.13739 0.0
H2622 H 0.52967 0.65342 0.13302 0.0
C2623 C 0.5408 0.448 0.13107 0.0
C2624 C 0.53604 0.537 0.10709 0.0
H2625 H 0.5501 0.61745 0.09647 0.0
C2626 C 0.52554 0.55304 0.11104 0.0
C2627 C 0.54487 0.56014 0.10114 0.0
C2628 C 0.55629 0.54393 0.09677 0.0
C2629 C 0.5238 0.5921 0.10995 0.0
C2630 C 0.5329 0.61561 0.10515 0.0
C2631 C 0.54317 0.5993 0.1002 0.0
C2632 C 0.53242 0.65703 0.10725 0.0
C2633 C 0.51233 0.60794 0.11437 0.0
C2634 C 0.5343 0.68161 0.09422 0.0
C2635 C 0.5345 0.72072 0.0967 0.0
C2636 C 0.53296 0.73569 0.11227 0.0
C2637 C 0.53107 0.7108 0.12523 0.0
C2638 C 0.53084 0.67194 0.12274 0.0
H2639 H 0.5055 0.58689 0.11227 0.0
H2640 H 0.51227 0.61522 0.12739 0.0
H2641 H 0.5104 0.63386 0.10734 0.0
H2642 H 0.53567 0.67053 0.0822 0.0
H2643 H 0.53601 0.73912 0.08647 0.0
H2644 H 0.71757 0.47468 0.07948 0.0
H2645 H 0.71543 0.54326 0.08275 0.0
H2646 H 0.71997 0.53151 0.13413 0.0
H2647 H 0.7221 0.46359 0.1311 0.0
H2648 H 0.70006 0.57396 0.12356 0.0
H2649 H 0.74058 0.62234 0.09573 0.0
H2650 H 0.73205 0.58913 0.08461 0.0
H2651 H 0.73869 0.57472 0.10309 0.0
C2652 C 0.71822 0.48677 0.09144 0.0
C2653 C 0.71999 0.4636 0.10502 0.0
C2654 C 0.71702 0.5259 0.09328 0.0
C2655 C 0.7176 0.54227 0.10867 0.0
C2656 C 0.7195 0.51931 0.12215 0.0
H2657 H 0.71048 0.75576 0.15705 0.0
H2658 H 0.71219 0.6893 0.14939 0.0
C2659 C 0.72073 0.48045 0.12036 0.0
C2660 C 0.71583 0.58316 0.11107 0.0
H2661 H 0.72852 0.66906 0.10637 0.0
C2662 C 0.70623 0.59485 0.11972 0.0
C2663 C 0.7239 0.61015 0.10598 0.0
C2664 C 0.73444 0.5987 0.0969 0.0
C2665 C 0.70452 0.63294 0.12359 0.0
C2666 C 0.71279 0.65983 0.119 0.0
C2667 C 0.72224 0.64827 0.10996 0.0
C2668 C 0.71185 0.70003 0.12367 0.0
C2669 C 0.69386 0.64405 0.13248 0.0
C2670 C 0.71141 0.72808 0.11176 0.0
C2671 C 0.71053 0.76604 0.11608 0.0
C2672 C 0.71011 0.77671 0.13244 0.0
C2673 C 0.7107 0.74852 0.14436 0.0
C2674 C 0.71161 0.71051 0.14001 0.0
H2675 H 0.68707 0.62255 0.13103 0.0
H2676 H 0.69577 0.64654 0.14555 0.0
H2677 H 0.69061 0.6717 0.12817 0.0
H2678 H 0.71165 0.72056 0.09909 0.0
H2679 H 0.71012 0.78699 0.10657 0.0
H2680 H 0.46399 0.24042 0.93159 0.0
H2681 H 0.46939 0.30744 0.93319 0.0
H2682 H 0.45732 0.32475 0.88466 0.0
H2683 H 0.45193 0.25847 0.88287 0.0
H2684 H 0.48394 0.34558 0.8992 0.0
H2685 H 0.44454 0.40783 0.92507 0.0
H2686 H 0.4497 0.3618 0.93104 0.0
H2687 H 0.44329 0.368 0.91161 0.0
C2688 C 0.46235 0.25865 0.92135 0.0
C2689 C 0.45759 0.24408 0.90707 0.0
C2690 C 0.46548 0.29678 0.92228 0.0
C2691 C 0.46378 0.32066 0.909 0.0
C2692 C 0.4587 0.30653 0.89499 0.0
H2693 H 0.4767 0.52068 0.86012 0.0
H2694 H 0.47632 0.45664 0.87098 0.0
C2695 C 0.45563 0.26865 0.89402 0.0
C2696 C 0.46765 0.3602 0.90911 0.0
H2697 H 0.45742 0.44978 0.9124 0.0
C2698 C 0.47829 0.36851 0.90244 0.0
C2699 C 0.46025 0.38976 0.91343 0.0
C2700 C 0.4488 0.38172 0.92077 0.0
C2701 C 0.48146 0.40588 0.89908 0.0
C2702 C 0.47367 0.43534 0.9022 0.0
C2703 C 0.46335 0.42712 0.90993 0.0
C2704 C 0.47545 0.47408 0.89598 0.0
C2705 C 0.49295 0.41336 0.89173 0.0
C2706 C 0.47508 0.50514 0.90644 0.0
C2707 C 0.47524 0.54187 0.90026 0.0
C2708 C 0.47564 0.54814 0.88348 0.0
C2709 C 0.47641 0.5169 0.87309 0.0
C2710 C 0.47627 0.48023 0.87929 0.0
H2711 H 0.49912 0.39099 0.89511 0.0
H2712 H 0.49217 0.41339 0.87839 0.0
H2713 H 0.49635 0.44117 0.89558 0.0
H2714 H 0.47436 0.50095 0.91935 0.0
H2715 H 0.47464 0.56527 0.90862 0.0
H2716 H 0.27437 0.17755 0.91769 0.0
H2717 H 0.27417 0.24661 0.91824 0.0
H2718 H 0.27728 0.2492 0.8664 0.0
H2719 H 0.27741 0.1803 0.86568 0.0
H2720 H 0.29175 0.29258 0.90707 0.0
H2721 H 0.25167 0.32469 0.87515 0.0
H2722 H 0.25465 0.27883 0.88373 0.0
H2723 H 0.26033 0.29164 0.86432 0.0
C2724 C 0.27484 0.19279 0.90637 0.0
C2725 C 0.27591 0.1734 0.89162 0.0
C2726 C 0.27473 0.23223 0.90674 0.0
C2727 C 0.27556 0.25292 0.89236 0.0
C2728 C 0.27639 0.2337 0.87761 0.0
H2729 H 0.2918 0.46041 0.85165 0.0
H2730 H 0.28688 0.39664 0.86003 0.0
C2731 C 0.27654 0.19431 0.87723 0.0
C2732 C 0.27652 0.29453 0.89273 0.0
H2733 H 0.26572 0.37427 0.87554 0.0
C2734 C 0.28593 0.31066 0.90049 0.0
C2735 C 0.26886 0.31793 0.88425 0.0
C2736 C 0.25824 0.30244 0.87653 0.0
C2737 C 0.28834 0.34932 0.89897 0.0
C2738 C 0.28108 0.3722 0.88957 0.0
C2739 C 0.2713 0.35649 0.88265 0.0
C2740 C 0.28419 0.4112 0.88507 0.0
C2741 C 0.29899 0.36499 0.90654 0.0
C2742 C 0.28436 0.44049 0.89646 0.0
C2743 C 0.2872 0.47727 0.89171 0.0
C2744 C 0.28988 0.48514 0.87549 0.0
C2745 C 0.28978 0.45547 0.86422 0.0
C2746 C 0.28694 0.41896 0.86897 0.0
H2747 H 0.30434 0.34256 0.91202 0.0
H2748 H 0.30409 0.38032 0.89736 0.0
H2749 H 0.29666 0.38546 0.91611 0.0
H2750 H 0.28217 0.435 0.90893 0.0
H2751 H 0.28717 0.49953 0.90066 0.0
loop_
_geom_bond_atom_site_label_1
_geom_bond_atom_site_label_2
_geom_bond_distance
_geom_bond_site_symmetry_2
_ccdc_geom_bond_type
C0 O1 1.306 . S
C0 O3 1.160 . S
O1 C0 1.306 . S
O1 Cd2 2.228 . S
Cd2 O1 2.228 . S
Cd2 O6 2.273 . S
Cd2 O10 2.277 . S
O3 C0 1.160 . S
O3 Cd4 2.203 . S
Cd4 O3 2.203 . S
Cd4 O6 2.411 . S
Cd4 O7 2.333 . S
Cd4 O8 2.352 . S
Cd4 O12 2.277 . S
Cd4 O13 2.356 . S
C5 O10 1.209 . S
C5 O12 1.226 . S
O6 Cd2 2.273 . S
O6 Cd4 2.411 . S
O6 C9 1.320 . S
O7 Cd4 2.333 . S
O7 C9 1.214 . S
O8 Cd4 2.352 . S
O8 C11 1.258 . S
C9 O6 1.320 . S
C9 O7 1.214 . S
O10 Cd2 2.277 . S
O10 C5 1.209 . S
C11 O8 1.258 . S
C11 O13 1.282 . S
O12 Cd4 2.277 . S
O12 C5 1.226 . S
O13 Cd4 2.356 . S
O13 C11 1.282 . S
C14 O15 1.306 . S
C14 O17 1.160 . S
O15 C14 1.306 . S
O15 Cd16 2.228 . S
Cd16 O15 2.228 . S
Cd16 O20 2.273 . S
Cd16 O24 2.277 . S
O17 C14 1.160 . S
O17 Cd18 2.203 . S
Cd18 O17 2.203 . S
Cd18 O20 2.411 . S
Cd18 O21 2.333 . S
Cd18 O22 2.352 . S
Cd18 O26 2.277 . S
Cd18 O27 2.356 . S
C19 O24 1.209 . S
C19 O26 1.226 . S
O20 Cd16 2.273 . S
O20 Cd18 2.411 . S
O20 C23 1.320 . S
O21 Cd18 2.333 . S
O21 C23 1.214 . S
O22 Cd18 2.352 . S
O22 C25 1.258 . S
C23 O20 1.320 . S
C23 O21 1.214 . S
O24 Cd16 2.277 . S
O24 C19 1.209 . S
C25 O22 1.258 . S
C25 O27 1.282 . S
O26 Cd18 2.277 . S
O26 C19 1.226 . S
O27 Cd18 2.356 . S
O27 C25 1.282 . S
C28 O29 1.306 . S
C28 O31 1.160 . S
O29 C28 1.306 . S
O29 Cd30 2.228 . S
Cd30 O29 2.228 . S
Cd30 O34 2.273 . S
Cd30 O38 2.277 . S
O31 C28 1.160 . S
O31 Cd32 2.203 . S
Cd32 O31 2.203 . S
Cd32 O34 2.411 . S
Cd32 O35 2.333 . S
Cd32 O36 2.352 . S
Cd32 O40 2.277 . S
Cd32 O41 2.356 . S
C33 O38 1.209 . S
C33 O40 1.226 . S
O34 Cd30 2.273 . S
O34 Cd32 2.411 . S
O34 C37 1.320 . S
O35 Cd32 2.333 . S
O35 C37 1.214 . S
O36 Cd32 2.352 . S
O36 C39 1.258 . S
C37 O34 1.320 . S
C37 O35 1.214 . S
O38 Cd30 2.277 . S
O38 C33 1.209 . S
C39 O36 1.258 . S
C39 O41 1.282 . S
O40 Cd32 2.277 . S
O40 C33 1.226 . S
O41 Cd32 2.356 . S
O41 C39 1.282 . S
C42 O43 1.306 . S
C42 O45 1.160 . S
O43 C42 1.306 . S
O43 Cd44 2.228 . S
Cd44 O43 2.228 . S
Cd44 O48 2.273 . S
Cd44 O52 2.277 . S
O45 C42 1.160 . S
O45 Cd46 2.203 . S
Cd46 O45 2.203 . S
Cd46 O48 2.411 . S
Cd46 O49 2.333 . S
Cd46 O50 2.352 . S
Cd46 O54 2.277 . S
Cd46 O55 2.356 . S
C47 O52 1.209 . S
C47 O54 1.226 . S
O48 Cd44 2.273 . S
O48 Cd46 2.411 . S
O48 C51 1.320 . S
O49 Cd46 2.333 . S
O49 C51 1.214 . S
O50 Cd46 2.352 . S
O50 C53 1.258 . S
C51 O48 1.320 . S
C51 O49 1.214 . S
O52 Cd44 2.277 . S
O52 C47 1.209 . S
C53 O50 1.258 . S
C53 O55 1.282 . S
O54 Cd46 2.277 . S
O54 C47 1.226 . S
O55 Cd46 2.356 . S
O55 C53 1.282 . S
C56 O57 1.306 . S
C56 O59 1.160 . S
O57 C56 1.306 . S
O57 Cd58 2.228 . S
Cd58 O57 2.228 . S
Cd58 O62 2.273 . S
Cd58 O66 2.277 . S
O59 C56 1.160 . S
O59 Cd60 2.203 . S
Cd60 O59 2.203 . S
Cd60 O62 2.411 . S
Cd60 O63 2.333 . S
Cd60 O64 2.352 . S
Cd60 O68 2.277 . S
Cd60 O69 2.356 . S
C61 O66 1.209 . S
C61 O68 1.226 . S
O62 Cd58 2.273 . S
O62 Cd60 2.411 . S
O62 C65 1.320 . S
O63 Cd60 2.333 . S
O63 C65 1.214 . S
O64 Cd60 2.352 . S
O64 C67 1.258 . S
C65 O62 1.320 . S
C65 O63 1.214 . S
O66 Cd58 2.277 . S
O66 C61 1.209 . S
C67 O64 1.258 . S
C67 O69 1.282 . S
O68 Cd60 2.277 . S
O68 C61 1.226 . S
O69 Cd60 2.356 . S
O69 C67 1.282 . S
C70 O71 1.306 . S
C70 O73 1.160 . S
O71 C70 1.306 . S
O71 Cd72 2.228 . S
Cd72 O71 2.228 . S
Cd72 O76 2.273 . S
Cd72 O80 2.277 . S
O73 C70 1.160 . S
O73 Cd74 2.203 . S
Cd74 O73 2.203 . S
Cd74 O76 2.411 . S
Cd74 O77 2.333 . S
Cd74 O78 2.352 . S
Cd74 O82 2.277 . S
Cd74 O83 2.356 . S
C75 O80 1.209 . S
C75 O82 1.226 . S
O76 Cd72 2.273 . S
O76 Cd74 2.411 . S
O76 C79 1.320 . S
O77 Cd74 2.333 . S
O77 C79 1.214 . S
O78 Cd74 2.352 . S
O78 C81 1.258 . S
C79 O76 1.320 . S
C79 O77 1.214 . S
O80 Cd72 2.277 . S
O80 C75 1.209 . S
C81 O78 1.258 . S
C81 O83 1.282 . S
O82 Cd74 2.277 . S
O82 C75 1.226 . S
O83 Cd74 2.356 . S
O83 C81 1.282 . S
C84 O85 1.306 . S
C84 O87 1.160 . S
O85 C84 1.306 . S
O85 Cd86 2.228 . S
Cd86 O85 2.228 . S
Cd86 O90 2.273 . S
Cd86 O94 2.277 . S
O87 C84 1.160 . S
O87 Cd88 2.203 . S
Cd88 O87 2.203 . S
Cd88 O90 2.411 . S
Cd88 O91 2.333 . S
Cd88 O92 2.352 . S
Cd88 O96 2.277 . S
Cd88 O97 2.356 . S
C89 O94 1.209 . S
C89 O96 1.226 . S
O90 Cd86 2.273 . S
O90 Cd88 2.411 . S
O90 C93 1.320 . S
O91 Cd88 2.333 . S
O91 C93 1.214 . S
O92 Cd88 2.352 . S
O92 C95 1.258 . S
C93 O90 1.320 . S
C93 O91 1.214 . S
O94 Cd86 2.277 . S
O94 C89 1.209 . S
C95 O92 1.258 . S
C95 O97 1.282 . S
O96 Cd88 2.277 . S
O96 C89 1.226 . S
O97 Cd88 2.356 . S
O97 C95 1.282 . S
C98 O99 1.306 . S
C98 O101 1.160 . S
O99 C98 1.306 . S
O99 Cd100 2.228 . S
Cd100 O99 2.228 . S
Cd100 O104 2.273 . S
Cd100 O108 2.277 . S
O101 C98 1.160 . S
O101 Cd102 2.203 . S
Cd102 O101 2.203 . S
Cd102 O104 2.411 . S
Cd102 O105 2.333 . S
Cd102 O106 2.352 . S
Cd102 O110 2.277 . S
Cd102 O111 2.356 . S
C103 O108 1.209 . S
C103 O110 1.226 . S
O104 Cd100 2.273 . S
O104 Cd102 2.411 . S
O104 C107 1.320 . S
O105 Cd102 2.333 . S
O105 C107 1.214 . S
O106 Cd102 2.352 . S
O106 C109 1.258 . S
C107 O104 1.320 . S
C107 O105 1.214 . S
O108 Cd100 2.277 . S
O108 C103 1.209 . S
C109 O106 1.258 . S
C109 O111 1.282 . S
O110 Cd102 2.277 . S
O110 C103 1.226 . S
O111 Cd102 2.356 . S
O111 C109 1.282 . S
C112 O113 1.306 . S
C112 O115 1.160 . S
O113 C112 1.306 . S
O113 Cd114 2.228 . S
Cd114 O113 2.228 . S
Cd114 O118 2.273 . S
Cd114 O122 2.277 . S
O115 C112 1.160 . S
O115 Cd116 2.203 . S
Cd116 O115 2.203 . S
Cd116 O118 2.411 . S
Cd116 O119 2.333 . S
Cd116 O120 2.352 . S
Cd116 O124 2.277 . S
Cd116 O125 2.356 . S
C117 O122 1.209 . S
C117 O124 1.226 . S
O118 Cd114 2.273 . S
O118 Cd116 2.411 . S
O118 C121 1.320 . S
O119 Cd116 2.333 . S
O119 C121 1.214 . S
O120 Cd116 2.352 . S
O120 C123 1.258 . S
C121 O118 1.320 . S
C121 O119 1.214 . S
O122 Cd114 2.277 . S
O122 C117 1.209 . S
C123 O120 1.258 . S
C123 O125 1.282 . S
O124 Cd116 2.277 . S
O124 C117 1.226 . S
O125 Cd116 2.356 . S
O125 C123 1.282 . S
C126 O127 1.306 . S
C126 O129 1.160 . S
O127 C126 1.306 . S
O127 Cd128 2.228 . S
Cd128 O127 2.228 . S
Cd128 O132 2.273 . S
Cd128 O136 2.277 . S
O129 C126 1.160 . S
O129 Cd130 2.203 . S
Cd130 O129 2.203 . S
Cd130 O132 2.411 . S
Cd130 O133 2.333 . S
Cd130 O134 2.352 . S
Cd130 O138 2.277 . S
Cd130 O139 2.356 . S
C131 O136 1.209 . S
C131 O138 1.226 . S
O132 Cd128 2.273 . S
O132 Cd130 2.411 . S
O132 C135 1.320 . S
O133 Cd130 2.333 . S
O133 C135 1.214 . S
O134 Cd130 2.352 . S
O134 C137 1.258 . S
C135 O132 1.320 . S
C135 O133 1.214 . S
O136 Cd128 2.277 . S
O136 C131 1.209 . S
C137 O134 1.258 . S
C137 O139 1.282 . S
O138 Cd130 2.277 . S
O138 C131 1.226 . S
O139 Cd130 2.356 . S
O139 C137 1.282 . S
C140 O141 1.306 . S
C140 O143 1.160 . S
O141 C140 1.306 . S
O141 Cd142 2.228 . S
Cd142 O141 2.228 . S
Cd142 O146 2.273 . S
Cd142 O150 2.277 . S
O143 C140 1.160 . S
O143 Cd144 2.203 . S
Cd144 O143 2.203 . S
Cd144 O146 2.411 . S
Cd144 O147 2.333 . S
Cd144 O148 2.352 . S
Cd144 O152 2.277 . S
Cd144 O153 2.356 . S
C145 O150 1.209 . S
C145 O152 1.226 . S
O146 Cd142 2.273 . S
O146 Cd144 2.411 . S
O146 C149 1.320 . S
O147 Cd144 2.333 . S
O147 C149 1.214 . S
O148 Cd144 2.352 . S
O148 C151 1.258 . S
C149 O146 1.320 . S
C149 O147 1.214 . S
O150 Cd142 2.277 . S
O150 C145 1.209 . S
C151 O148 1.258 . S
C151 O153 1.282 . S
O152 Cd144 2.277 . S
O152 C145 1.226 . S
O153 Cd144 2.356 . S
O153 C151 1.282 . S
C154 O155 1.306 . S
C154 O157 1.160 . S
O155 C154 1.306 . S
O155 Cd156 2.228 . S
Cd156 O155 2.228 . S
Cd156 O160 2.273 . S
Cd156 O164 2.277 . S
O157 C154 1.160 . S
O157 Cd158 2.203 . S
Cd158 O157 2.203 . S
Cd158 O160 2.411 . S
Cd158 O161 2.333 . S
Cd158 O162 2.352 . S
Cd158 O166 2.277 . S
Cd158 O167 2.356 . S
C159 O164 1.209 . S
C159 O166 1.226 . S
O160 Cd156 2.273 . S
O160 Cd158 2.411 . S
O160 C163 1.320 . S
O161 Cd158 2.333 . S
O161 C163 1.214 . S
O162 Cd158 2.352 . S
O162 C165 1.258 . S
C163 O160 1.320 . S
C163 O161 1.214 . S
O164 Cd156 2.277 . S
O164 C159 1.209 . S
C165 O162 1.258 . S
C165 O167 1.282 . S
O166 Cd158 2.277 . S
O166 C159 1.226 . S
O167 Cd158 2.356 . S
O167 C165 1.282 . S
C168 O169 1.306 . S
C168 O171 1.160 . S
O169 C168 1.306 . S
O169 Cd170 2.228 . S
Cd170 O169 2.228 . S
Cd170 O174 2.273 . S
Cd170 O178 2.277 . S
O171 C168 1.160 . S
O171 Cd172 2.203 . S
Cd172 O171 2.203 . S
Cd172 O174 2.411 . S
Cd172 O175 2.333 . S
Cd172 O176 2.352 . S
Cd172 O180 2.277 . S
Cd172 O181 2.356 . S
C173 O178 1.209 . S
C173 O180 1.226 . S
O174 Cd170 2.273 . S
O174 Cd172 2.411 . S
O174 C177 1.320 . S
O175 Cd172 2.333 . S
O175 C177 1.214 . S
O176 Cd172 2.352 . S
O176 C179 1.258 . S
C177 O174 1.320 . S
C177 O175 1.214 . S
O178 Cd170 2.277 . S
O178 C173 1.209 . S
C179 O176 1.258 . S
C179 O181 1.282 . S
O180 Cd172 2.277 . S
O180 C173 1.226 . S
O181 Cd172 2.356 . S
O181 C179 1.282 . S
C182 O183 1.306 . S
C182 O185 1.160 . S
O183 C182 1.306 . S
O183 Cd184 2.228 . S
Cd184 O183 2.228 . S
Cd184 O188 2.273 . S
Cd184 O192 2.277 . S
O185 C182 1.160 . S
O185 Cd186 2.203 . S
Cd186 O185 2.203 . S
Cd186 O188 2.411 . S
Cd186 O189 2.333 . S
Cd186 O190 2.352 . S
Cd186 O194 2.277 . S
Cd186 O195 2.356 . S
C187 O192 1.209 . S
C187 O194 1.226 . S
O188 Cd184 2.273 . S
O188 Cd186 2.411 . S
O188 C191 1.320 . S
O189 Cd186 2.333 . S
O189 C191 1.214 . S
O190 Cd186 2.352 . S
O190 C193 1.258 . S
C191 O188 1.320 . S
C191 O189 1.214 . S
O192 Cd184 2.277 . S
O192 C187 1.209 . S
C193 O190 1.258 . S
C193 O195 1.282 . S
O194 Cd186 2.277 . S
O194 C187 1.226 . S
O195 Cd186 2.356 . S
O195 C193 1.282 . S
C196 O197 1.306 . S
C196 O199 1.160 . S
O197 C196 1.306 . S
O197 Cd198 2.228 . S
Cd198 O197 2.228 . S
Cd198 O202 2.273 . S
Cd198 O206 2.277 . S
O199 C196 1.160 . S
O199 Cd200 2.203 . S
Cd200 O199 2.203 . S
Cd200 O202 2.411 . S
Cd200 O203 2.333 . S
Cd200 O204 2.352 . S
Cd200 O208 2.277 . S
Cd200 O209 2.356 . S
C201 O206 1.209 . S
C201 O208 1.226 . S
O202 Cd198 2.273 . S
O202 Cd200 2.411 . S
O202 C205 1.320 . S
O203 Cd200 2.333 . S
O203 C205 1.214 . S
O204 Cd200 2.352 . S
O204 C207 1.258 . S
C205 O202 1.320 . S
C205 O203 1.214 . S
O206 Cd198 2.277 . S
O206 C201 1.209 . S
C207 O204 1.258 . S
C207 O209 1.282 . S
O208 Cd200 2.277 . S
O208 C201 1.226 . S
O209 Cd200 2.356 . S
O209 C207 1.282 . S
C210 O211 1.306 . S
C210 O213 1.160 . S
O211 C210 1.306 . S
O211 Cd212 2.228 . S
Cd212 O211 2.228 . S
Cd212 O216 2.273 . S
Cd212 O220 2.277 . S
O213 C210 1.160 . S
O213 Cd214 2.203 . S
Cd214 O213 2.203 . S
Cd214 O216 2.411 . S
Cd214 O217 2.333 . S
Cd214 O218 2.352 . S
Cd214 O222 2.277 . S
Cd214 O223 2.356 . S
C215 O220 1.209 . S
C215 O222 1.226 . S
O216 Cd212 2.273 . S
O216 Cd214 2.411 . S
O216 C219 1.320 . S
O217 Cd214 2.333 . S
O217 C219 1.214 . S
O218 Cd214 2.352 . S
O218 C221 1.258 . S
C219 O216 1.320 . S
C219 O217 1.214 . S
O220 Cd212 2.277 . S
O220 C215 1.209 . S
C221 O218 1.258 . S
C221 O223 1.282 . S
O222 Cd214 2.277 . S
O222 C215 1.226 . S
O223 Cd214 2.356 . S
O223 C221 1.282 . S
C224 O225 1.306 . S
C224 O227 1.160 . S
O225 C224 1.306 . S
O225 Cd226 2.228 . S
Cd226 O225 2.228 . S
Cd226 O230 2.273 . S
Cd226 O234 2.277 . S
O227 C224 1.160 . S
O227 Cd228 2.203 . S
Cd228 O227 2.203 . S
Cd228 O230 2.411 . S
Cd228 O231 2.333 . S
Cd228 O232 2.352 . S
Cd228 O236 2.277 . S
Cd228 O237 2.356 . S
C229 O234 1.209 . S
C229 O236 1.226 . S
O230 Cd226 2.273 . S
O230 Cd228 2.411 . S
O230 C233 1.320 . S
O231 Cd228 2.333 . S
O231 C233 1.214 . S
O232 Cd228 2.352 . S
O232 C235 1.258 . S
C233 O230 1.320 . S
C233 O231 1.214 . S
O234 Cd226 2.277 . S
O234 C229 1.209 . S
C235 O232 1.258 . S
C235 O237 1.282 . S
O236 Cd228 2.277 . S
O236 C229 1.226 . S
O237 Cd228 2.356 . S
O237 C235 1.282 . S
C238 O239 1.306 . S
C238 O241 1.160 . S
O239 C238 1.306 . S
O239 Cd240 2.228 . S
Cd240 O239 2.228 . S
Cd240 O244 2.273 . S
Cd240 O248 2.277 . S
O241 C238 1.160 . S
O241 Cd242 2.203 . S
Cd242 O241 2.203 . S
Cd242 O244 2.411 . S
Cd242 O245 2.333 . S
Cd242 O246 2.352 . S
Cd242 O250 2.277 . S
Cd242 O251 2.356 . S
C243 O248 1.209 . S
C243 O250 1.226 . S
O244 Cd240 2.273 . S
O244 Cd242 2.411 . S
O244 C247 1.320 . S
O245 Cd242 2.333 . S
O245 C247 1.214 . S
O246 Cd242 2.352 . S
O246 C249 1.258 . S
C247 O244 1.320 . S
C247 O245 1.214 . S
O248 Cd240 2.277 . S
O248 C243 1.209 . S
C249 O246 1.258 . S
C249 O251 1.282 . S
O250 Cd242 2.277 . S
O250 C243 1.226 . S
O251 Cd242 2.356 . S
O251 C249 1.282 . S
C252 O253 1.306 . S
C252 O255 1.160 . S
O253 C252 1.306 . S
O253 Cd254 2.228 . S
Cd254 O253 2.228 . S
Cd254 O258 2.273 . S
Cd254 O262 2.277 . S
O255 C252 1.160 . S
O255 Cd256 2.203 . S
Cd256 O255 2.203 . S
Cd256 O258 2.411 . S
Cd256 O259 2.333 . S
Cd256 O260 2.352 . S
Cd256 O264 2.277 . S
Cd256 O265 2.356 . S
C257 O262 1.209 . S
C257 O264 1.226 . S
O258 Cd254 2.273 . S
O258 Cd256 2.411 . S
O258 C261 1.320 . S
O259 Cd256 2.333 . S
O259 C261 1.214 . S
O260 Cd256 2.352 . S
O260 C263 1.258 . S
C261 O258 1.320 . S
C261 O259 1.214 . S
O262 Cd254 2.277 . S
O262 C257 1.209 . S
C263 O260 1.258 . S
C263 O265 1.282 . S
O264 Cd256 2.277 . S
O264 C257 1.226 . S
O265 Cd256 2.356 . S
O265 C263 1.282 . S
C266 O267 1.306 . S
C266 O269 1.160 . S
O267 C266 1.306 . S
O267 Cd268 2.228 . S
Cd268 O267 2.228 . S
Cd268 O272 2.273 . S
Cd268 O276 2.277 . S
O269 C266 1.160 . S
O269 Cd270 2.203 . S
Cd270 O269 2.203 . S
Cd270 O272 2.411 . S
Cd270 O273 2.333 . S
Cd270 O274 2.352 . S
Cd270 O278 2.277 . S
Cd270 O279 2.356 . S
C271 O276 1.209 . S
C271 O278 1.226 . S
O272 Cd268 2.273 . S
O272 Cd270 2.411 . S
O272 C275 1.320 . S
O273 Cd270 2.333 . S
O273 C275 1.214 . S
O274 Cd270 2.352 . S
O274 C277 1.258 . S
C275 O272 1.320 . S
C275 O273 1.214 . S
O276 Cd268 2.277 . S
O276 C271 1.209 . S
C277 O274 1.258 . S
C277 O279 1.282 . S
O278 Cd270 2.277 . S
O278 C271 1.226 . S
O279 Cd270 2.356 . S
O279 C277 1.282 . S
C280 O281 1.306 . S
C280 O283 1.160 . S
O281 C280 1.306 . S
O281 Cd282 2.228 . S
Cd282 O281 2.228 . S
Cd282 O286 2.273 . S
Cd282 O290 2.277 . S
O283 C280 1.160 . S
O283 Cd284 2.203 . S
Cd284 O283 2.203 . S
Cd284 O286 2.411 . S
Cd284 O287 2.333 . S
Cd284 O288 2.352 . S
Cd284 O292 2.277 . S
Cd284 O293 2.356 . S
C285 O290 1.209 . S
C285 O292 1.226 . S
O286 Cd282 2.273 . S
O286 Cd284 2.411 . S
O286 C289 1.320 . S
O287 Cd284 2.333 . S
O287 C289 1.214 . S
O288 Cd284 2.352 . S
O288 C291 1.258 . S
C289 O286 1.320 . S
C289 O287 1.214 . S
O290 Cd282 2.277 . S
O290 C285 1.209 . S
C291 O288 1.258 . S
C291 O293 1.282 . S
O292 Cd284 2.277 . S
O292 C285 1.226 . S
O293 Cd284 2.356 . S
O293 C291 1.282 . S
C294 O295 1.306 . S
C294 O297 1.160 . S
O295 C294 1.306 . S
O295 Cd296 2.228 . S
Cd296 O295 2.228 . S
Cd296 O300 2.273 . S
Cd296 O304 2.277 . S
O297 C294 1.160 . S
O297 Cd298 2.203 . S
Cd298 O297 2.203 . S
Cd298 O300 2.411 . S
Cd298 O301 2.333 . S
Cd298 O302 2.352 . S
Cd298 O306 2.277 . S
Cd298 O307 2.356 . S
C299 O304 1.209 . S
C299 O306 1.226 . S
O300 Cd296 2.273 . S
O300 Cd298 2.411 . S
O300 C303 1.320 . S
O301 Cd298 2.333 . S
O301 C303 1.214 . S
O302 Cd298 2.352 . S
O302 C305 1.258 . S
C303 O300 1.320 . S
C303 O301 1.214 . S
O304 Cd296 2.277 . S
O304 C299 1.209 . S
C305 O302 1.258 . S
C305 O307 1.282 . S
O306 Cd298 2.277 . S
O306 C299 1.226 . S
O307 Cd298 2.356 . S
O307 C305 1.282 . S
C308 O309 1.306 . S
C308 O311 1.160 . S
O309 C308 1.306 . S
O309 Cd310 2.228 . S
Cd310 O309 2.228 . S
Cd310 O314 2.273 . S
Cd310 O318 2.277 . S
O311 C308 1.160 . S
O311 Cd312 2.203 . S
Cd312 O311 2.203 . S
Cd312 O314 2.411 . S
Cd312 O315 2.333 . S
Cd312 O316 2.352 . S
Cd312 O320 2.277 . S
Cd312 O321 2.356 . S
C313 O318 1.209 . S
C313 O320 1.226 . S
O314 Cd310 2.273 . S
O314 Cd312 2.411 . S
O314 C317 1.320 . S
O315 Cd312 2.333 . S
O315 C317 1.214 . S
O316 Cd312 2.352 . S
O316 C319 1.258 . S
C317 O314 1.320 . S
C317 O315 1.214 . S
O318 Cd310 2.277 . S
O318 C313 1.209 . S
C319 O316 1.258 . S
C319 O321 1.282 . S
O320 Cd312 2.277 . S
O320 C313 1.226 . S
O321 Cd312 2.356 . S
O321 C319 1.282 . S
C322 O323 1.306 . S
C322 O325 1.160 . S
O323 C322 1.306 . S
O323 Cd324 2.228 . S
Cd324 O323 2.228 . S
Cd324 O328 2.273 . S
Cd324 O332 2.277 . S
O325 C322 1.160 . S
O325 Cd326 2.203 . S
Cd326 O325 2.203 . S
Cd326 O328 2.411 . S
Cd326 O329 2.333 . S
Cd326 O330 2.352 . S
Cd326 O334 2.277 . S
Cd326 O335 2.356 . S
C327 O332 1.209 . S
C327 O334 1.226 . S
O328 Cd324 2.273 . S
O328 Cd326 2.411 . S
O328 C331 1.320 . S
O329 Cd326 2.333 . S
O329 C331 1.214 . S
O330 Cd326 2.352 . S
O330 C333 1.258 . S
C331 O328 1.320 . S
C331 O329 1.214 . S
O332 Cd324 2.277 . S
O332 C327 1.209 . S
C333 O330 1.258 . S
C333 O335 1.282 . S
O334 Cd326 2.277 . S
O334 C327 1.226 . S
O335 Cd326 2.356 . S
O335 C333 1.282 . S
C336 O337 1.306 . S
C336 O339 1.160 . S
O337 C336 1.306 . S
O337 Cd338 2.228 . S
Cd338 O337 2.228 . S
Cd338 O342 2.273 . S
Cd338 O346 2.277 . S
O339 C336 1.160 . S
O339 Cd340 2.203 . S
Cd340 O339 2.203 . S
Cd340 O342 2.411 . S
Cd340 O343 2.333 . S
Cd340 O344 2.352 . S
Cd340 O348 2.277 . S
Cd340 O349 2.356 . S
C341 O346 1.209 . S
C341 O348 1.226 . S
O342 Cd338 2.273 . S
O342 Cd340 2.411 . S
O342 C345 1.320 . S
O343 Cd340 2.333 . S
O343 C345 1.214 . S
O344 Cd340 2.352 . S
O344 C347 1.258 . S
C345 O342 1.320 . S
C345 O343 1.214 . S
O346 Cd338 2.277 . S
O346 C341 1.209 . S
C347 O344 1.258 . S
C347 O349 1.282 . S
O348 Cd340 2.277 . S
O348 C341 1.226 . S
O349 Cd340 2.356 . S
O349 C347 1.282 . S
C350 O351 1.306 . S
C350 O353 1.160 . S
O351 C350 1.306 . S
O351 Cd352 2.228 . S
Cd352 O351 2.228 . S
Cd352 O356 2.273 . S
Cd352 O360 2.277 . S
O353 C350 1.160 . S
O353 Cd354 2.203 . S
Cd354 O353 2.203 . S
Cd354 O356 2.411 . S
Cd354 O357 2.333 . S
Cd354 O358 2.352 . S
Cd354 O362 2.277 . S
Cd354 O363 2.356 . S
C355 O360 1.209 . S
C355 O362 1.226 . S
O356 Cd352 2.273 . S
O356 Cd354 2.411 . S
O356 C359 1.320 . S
O357 Cd354 2.333 . S
O357 C359 1.214 . S
O358 Cd354 2.352 . S
O358 C361 1.258 . S
C359 O356 1.320 . S
C359 O357 1.214 . S
O360 Cd352 2.277 . S
O360 C355 1.209 . S
C361 O358 1.258 . S
C361 O363 1.282 . S
O362 Cd354 2.277 . S
O362 C355 1.226 . S
O363 Cd354 2.356 . S
O363 C361 1.282 . S
C364 O365 1.306 . S
C364 O367 1.160 . S
O365 C364 1.306 . S
O365 Cd366 2.228 . S
Cd366 O365 2.228 . S
Cd366 O370 2.273 . S
Cd366 O374 2.277 . S
O367 C364 1.160 . S
O367 Cd368 2.203 . S
Cd368 O367 2.203 . S
Cd368 O370 2.411 . S
Cd368 O371 2.333 . S
Cd368 O372 2.352 . S
Cd368 O376 2.277 . S
Cd368 O377 2.356 . S
C369 O374 1.209 . S
C369 O376 1.226 . S
O370 Cd366 2.273 . S
O370 Cd368 2.411 . S
O370 C373 1.320 . S
O371 Cd368 2.333 . S
O371 C373 1.214 . S
O372 Cd368 2.352 . S
O372 C375 1.258 . S
C373 O370 1.320 . S
C373 O371 1.214 . S
O374 Cd366 2.277 . S
O374 C369 1.209 . S
C375 O372 1.258 . S
C375 O377 1.282 . S
O376 Cd368 2.277 . S
O376 C369 1.226 . S
O377 Cd368 2.356 . S
O377 C375 1.282 . S
C378 O379 1.306 . S
C378 O381 1.160 . S
O379 C378 1.306 . S
O379 Cd380 2.228 . S
Cd380 O379 2.228 . S
Cd380 O384 2.273 . S
Cd380 O388 2.277 . S
O381 C378 1.160 . S
O381 Cd382 2.203 . S
Cd382 O381 2.203 . S
Cd382 O384 2.411 . S
Cd382 O385 2.333 . S
Cd382 O386 2.352 . S
Cd382 O390 2.277 . S
Cd382 O391 2.356 . S
C383 O388 1.209 . S
C383 O390 1.226 . S
O384 Cd380 2.273 . S
O384 Cd382 2.411 . S
O384 C387 1.320 . S
O385 Cd382 2.333 . S
O385 C387 1.214 . S
O386 Cd382 2.352 . S
O386 C389 1.258 . S
C387 O384 1.320 . S
C387 O385 1.214 . S
O388 Cd380 2.277 . S
O388 C383 1.209 . S
C389 O386 1.258 . S
C389 O391 1.282 . S
O390 Cd382 2.277 . S
O390 C383 1.226 . S
O391 Cd382 2.356 . S
O391 C389 1.282 . S
C392 O393 1.306 . S
C392 O395 1.160 . S
O393 C392 1.306 . S
O393 Cd394 2.228 . S
Cd394 O393 2.228 . S
Cd394 O398 2.273 . S
Cd394 O402 2.277 . S
O395 C392 1.160 . S
O395 Cd396 2.203 . S
Cd396 O395 2.203 . S
Cd396 O398 2.411 . S
Cd396 O399 2.333 . S
Cd396 O400 2.352 . S
Cd396 O404 2.277 . S
Cd396 O405 2.356 . S
C397 O402 1.209 . S
C397 O404 1.226 . S
O398 Cd394 2.273 . S
O398 Cd396 2.411 . S
O398 C401 1.320 . S
O399 Cd396 2.333 . S
O399 C401 1.214 . S
O400 Cd396 2.352 . S
O400 C403 1.258 . S
C401 O398 1.320 . S
C401 O399 1.214 . S
O402 Cd394 2.277 . S
O402 C397 1.209 . S
C403 O400 1.258 . S
C403 O405 1.282 . S
O404 Cd396 2.277 . S
O404 C397 1.226 . S
O405 Cd396 2.356 . S
O405 C403 1.282 . S
C406 O407 1.306 . S
C406 O409 1.160 . S
O407 C406 1.306 . S
O407 Cd408 2.228 . S
Cd408 O407 2.228 . S
Cd408 O412 2.273 . S
Cd408 O416 2.277 . S
O409 C406 1.160 . S
O409 Cd410 2.203 . S
Cd410 O409 2.203 . S
Cd410 O412 2.411 . S
Cd410 O413 2.333 . S
Cd410 O414 2.352 . S
Cd410 O418 2.277 . S
Cd410 O419 2.356 . S
C411 O416 1.209 . S
C411 O418 1.226 . S
O412 Cd408 2.273 . S
O412 Cd410 2.411 . S
O412 C415 1.320 . S
O413 Cd410 2.333 . S
O413 C415 1.214 . S
O414 Cd410 2.352 . S
O414 C417 1.258 . S
C415 O412 1.320 . S
C415 O413 1.214 . S
O416 Cd408 2.277 . S
O416 C411 1.209 . S
C417 O414 1.258 . S
C417 O419 1.282 . S
O418 Cd410 2.277 . S
O418 C411 1.226 . S
O419 Cd410 2.356 . S
O419 C417 1.282 . S
C420 O421 1.306 . S
C420 O423 1.160 . S
O421 C420 1.306 . S
O421 Cd422 2.228 . S
Cd422 O421 2.228 . S
Cd422 O426 2.273 . S
Cd422 O430 2.277 . S
O423 C420 1.160 . S
O423 Cd424 2.203 . S
Cd424 O423 2.203 . S
Cd424 O426 2.411 . S
Cd424 O427 2.333 . S
Cd424 O428 2.352 . S
Cd424 O432 2.277 . S
Cd424 O433 2.356 . S
C425 O430 1.209 . S
C425 O432 1.226 . S
O426 Cd422 2.273 . S
O426 Cd424 2.411 . S
O426 C429 1.320 . S
O427 Cd424 2.333 . S
O427 C429 1.214 . S
O428 Cd424 2.352 . S
O428 C431 1.258 . S
C429 O426 1.320 . S
C429 O427 1.214 . S
O430 Cd422 2.277 . S
O430 C425 1.209 . S
C431 O428 1.258 . S
C431 O433 1.282 . S
O432 Cd424 2.277 . S
O432 C425 1.226 . S
O433 Cd424 2.356 . S
O433 C431 1.282 . S
C434 O435 1.306 . S
C434 O437 1.160 . S
O435 C434 1.306 . S
O435 Cd436 2.228 . S
Cd436 O435 2.228 . S
Cd436 O440 2.273 . S
Cd436 O444 2.277 . S
O437 C434 1.160 . S
O437 Cd438 2.203 . S
Cd438 O437 2.203 . S
Cd438 O440 2.411 . S
Cd438 O441 2.333 . S
Cd438 O442 2.352 . S
Cd438 O446 2.277 . S
Cd438 O447 2.356 . S
C439 O444 1.209 . S
C439 O446 1.226 . S
O440 Cd436 2.273 . S
O440 Cd438 2.411 . S
O440 C443 1.320 . S
O441 Cd438 2.333 . S
O441 C443 1.214 . S
O442 Cd438 2.352 . S
O442 C445 1.258 . S
C443 O440 1.320 . S
C443 O441 1.214 . S
O444 Cd436 2.277 . S
O444 C439 1.209 . S
C445 O442 1.258 . S
C445 O447 1.282 . S
O446 Cd438 2.277 . S
O446 C439 1.226 . S
O447 Cd438 2.356 . S
O447 C445 1.282 . S
H448 C456 0.929 . S
H449 C458 0.930 . S
H450 C460 0.930 . S
H451 C463 0.929 . S
H452 C466 0.930 . S
H453 C468 0.960 . S
H454 C468 0.960 . S
H455 C468 0.960 . S
C456 H448 0.929 . S
C456 C457 1.377 . S
C456 C458 1.384 . S
C457 C456 1.377 . S
C457 C463 1.390 . S
C458 H449 0.930 . S
C458 C456 1.384 . S
C458 C459 1.372 . S
C459 C458 1.372 . S
C459 C460 1.400 . S
C459 C464 1.490 . S
C460 H450 0.930 . S
C460 C459 1.400 . S
C460 C463 1.386 . S
H461 C477 0.930 . S
H462 C478 0.931 . S
C463 H451 0.929 . S
C463 C457 1.390 . S
C463 C460 1.386 . S
C464 C459 1.490 . S
C464 C466 1.395 . S
C464 C467 1.403 . S
H465 C471 0.930 . S
C466 H452 0.930 . S
C466 C464 1.395 . S
C466 C469 1.403 . S
C467 C464 1.403 . S
C467 C468 1.524 . S
C467 C471 1.400 . S
C468 H453 0.960 . S
C468 H454 0.960 . S
C468 H455 0.960 . S
C468 C467 1.524 . S
C469 C466 1.403 . S
C469 C470 1.392 . S
C469 C473 1.495 . S
C470 C469 1.392 . S
C470 C471 1.385 . S
C470 C472 1.478 . S
C471 H465 0.930 . S
C471 C467 1.400 . S
C471 C470 1.385 . S
C472 C470 1.478 . S
C472 C474 1.381 . S
C472 C478 1.383 . S
C473 C469 1.495 . S
C473 H479 0.959 . S
C473 H480 0.961 . S
C473 H481 0.960 . S
C474 C472 1.381 . S
C474 C475 1.394 . S
C474 H482 0.930 . S
C475 C474 1.394 . S
C475 C476 1.383 . S
C475 H483 0.929 . S
C476 C475 1.383 . S
C476 C477 1.377 . S
C477 H461 0.930 . S
C477 C476 1.377 . S
C477 C478 1.379 . S
C478 H462 0.931 . S
C478 C472 1.383 . S
C478 C477 1.379 . S
H479 C473 0.959 . S
H480 C473 0.961 . S
H481 C473 0.960 . S
H482 C474 0.930 . S
H483 C475 0.929 . S
H484 C492 0.929 . S
H485 C494 0.930 . S
H486 C496 0.930 . S
H487 C499 0.929 . S
H488 C502 0.930 . S
H489 C504 0.960 . S
H490 C504 0.960 . S
H491 C504 0.960 . S
C492 H484 0.929 . S
C492 C493 1.377 . S
C492 C494 1.384 . S
C493 C492 1.377 . S
C493 C499 1.390 . S
C494 H485 0.930 . S
C494 C492 1.384 . S
C494 C495 1.372 . S
C495 C494 1.372 . S
C495 C496 1.400 . S
C495 C500 1.490 . S
C496 H486 0.930 . S
C496 C495 1.400 . S
C496 C499 1.386 . S
H497 C513 0.930 . S
H498 C514 0.931 . S
C499 H487 0.929 . S
C499 C493 1.390 . S
C499 C496 1.386 . S
C500 C495 1.490 . S
C500 C502 1.395 . S
C500 C503 1.403 . S
H501 C507 0.930 . S
C502 H488 0.930 . S
C502 C500 1.395 . S
C502 C505 1.403 . S
C503 C500 1.403 . S
C503 C504 1.524 . S
C503 C507 1.400 . S
C504 H489 0.960 . S
C504 H490 0.960 . S
C504 H491 0.960 . S
C504 C503 1.524 . S
C505 C502 1.403 . S
C505 C506 1.392 . S
C505 C509 1.495 . S
C506 C505 1.392 . S
C506 C507 1.385 . S
C506 C508 1.478 . S
C507 H501 0.930 . S
C507 C503 1.400 . S
C507 C506 1.385 . S
C508 C506 1.478 . S
C508 C510 1.381 . S
C508 C514 1.383 . S
C509 C505 1.495 . S
C509 H515 0.959 . S
C509 H516 0.961 . S
C509 H517 0.960 . S
C510 C508 1.381 . S
C510 C511 1.394 . S
C510 H518 0.930 . S
C511 C510 1.394 . S
C511 C512 1.383 . S
C511 H519 0.929 . S
C512 C511 1.383 . S
C512 C513 1.377 . S
C513 H497 0.930 . S
C513 C512 1.377 . S
C513 C514 1.379 . S
C514 H498 0.931 . S
C514 C508 1.383 . S
C514 C513 1.379 . S
H515 C509 0.959 . S
H516 C509 0.961 . S
H517 C509 0.960 . S
H518 C510 0.930 . S
H519 C511 0.929 . S
H520 C528 0.929 . S
H521 C530 0.930 . S
H522 C532 0.930 . S
H523 C535 0.929 . S
H524 C538 0.930 . S
H525 C540 0.960 . S
H526 C540 0.960 . S
H527 C540 0.960 . S
C528 H520 0.929 . S
C528 C529 1.377 . S
C528 C530 1.384 . S
C529 C528 1.377 . S
C529 C535 1.390 . S
C530 H521 0.930 . S
C530 C528 1.384 . S
C530 C531 1.372 . S
C531 C530 1.372 . S
C531 C532 1.400 . S
C531 C536 1.490 . S
C532 H522 0.930 . S
C532 C531 1.400 . S
C532 C535 1.386 . S
H533 C549 0.930 . S
H534 C550 0.931 . S
C535 H523 0.929 . S
C535 C529 1.390 . S
C535 C532 1.386 . S
C536 C531 1.490 . S
C536 C538 1.395 . S
C536 C539 1.403 . S
H537 C543 0.930 . S
C538 H524 0.930 . S
C538 C536 1.395 . S
C538 C541 1.403 . S
C539 C536 1.403 . S
C539 C540 1.524 . S
C539 C543 1.400 . S
C540 H525 0.960 . S
C540 H526 0.960 . S
C540 H527 0.960 . S
C540 C539 1.524 . S
C541 C538 1.403 . S
C541 C542 1.392 . S
C541 C545 1.495 . S
C542 C541 1.392 . S
C542 C543 1.385 . S
C542 C544 1.478 . S
C543 H537 0.930 . S
C543 C539 1.400 . S
C543 C542 1.385 . S
C544 C542 1.478 . S
C544 C546 1.381 . S
C544 C550 1.383 . S
C545 C541 1.495 . S
C545 H551 0.959 . S
C545 H552 0.961 . S
C545 H553 0.960 . S
C546 C544 1.381 . S
C546 C547 1.394 . S
C546 H554 0.930 . S
C547 C546 1.394 . S
C547 C548 1.383 . S
C547 H555 0.929 . S
C548 C547 1.383 . S
C548 C549 1.377 . S
C549 H533 0.930 . S
C549 C548 1.377 . S
C549 C550 1.379 . S
C550 H534 0.931 . S
C550 C544 1.383 . S
C550 C549 1.379 . S
H551 C545 0.959 . S
H552 C545 0.961 . S
H553 C545 0.960 . S
H554 C546 0.930 . S
H555 C547 0.929 . S
H556 C564 0.929 . S
H557 C566 0.930 . S
H558 C568 0.930 . S
H559 C571 0.929 . S
H560 C574 0.930 . S
H561 C576 0.960 . S
H562 C576 0.960 . S
H563 C576 0.960 . S
C564 H556 0.929 . S
C564 C565 1.377 . S
C564 C566 1.384 . S
C565 C564 1.377 . S
C565 C571 1.390 . S
C566 H557 0.930 . S
C566 C564 1.384 . S
C566 C567 1.372 . S
C567 C566 1.372 . S
C567 C568 1.400 . S
C567 C572 1.490 . S
C568 H558 0.930 . S
C568 C567 1.400 . S
C568 C571 1.386 . S
H569 C585 0.930 . S
H570 C586 0.931 . S
C571 H559 0.929 . S
C571 C565 1.390 . S
C571 C568 1.386 . S
C572 C567 1.490 . S
C572 C574 1.395 . S
C572 C575 1.403 . S
H573 C579 0.930 . S
C574 H560 0.930 . S
C574 C572 1.395 . S
C574 C577 1.403 . S
C575 C572 1.403 . S
C575 C576 1.524 . S
C575 C579 1.400 . S
C576 H561 0.960 . S
C576 H562 0.960 . S
C576 H563 0.960 . S
C576 C575 1.524 . S
C577 C574 1.403 . S
C577 C578 1.392 . S
C577 C581 1.495 . S
C578 C577 1.392 . S
C578 C579 1.385 . S
C578 C580 1.478 . S
C579 H573 0.930 . S
C579 C575 1.400 . S
C579 C578 1.385 . S
C580 C578 1.478 . S
C580 C582 1.381 . S
C580 C586 1.383 . S
C581 C577 1.495 . S
C581 H587 0.959 . S
C581 H588 0.961 . S
C581 H589 0.960 . S
C582 C580 1.381 . S
C582 C583 1.394 . S
C582 H590 0.930 . S
C583 C582 1.394 . S
C583 C584 1.383 . S
C583 H591 0.929 . S
C584 C583 1.383 . S
C584 C585 1.377 . S
C585 H569 0.930 . S
C585 C584 1.377 . S
C585 C586 1.379 . S
C586 H570 0.931 . S
C586 C580 1.383 . S
C586 C585 1.379 . S
H587 C581 0.959 . S
H588 C581 0.961 . S
H589 C581 0.960 . S
H590 C582 0.930 . S
H591 C583 0.929 . S
H592 C600 0.929 . S
H593 C602 0.930 . S
H594 C604 0.930 . S
H595 C607 0.929 . S
H596 C610 0.930 . S
H597 C612 0.960 . S
H598 C612 0.960 . S
H599 C612 0.960 . S
C600 H592 0.929 . S
C600 C601 1.377 . S
C600 C602 1.384 1_565 S
C601 C600 1.377 . S
C601 C607 1.390 . S
C602 H593 0.930 . S
C602 C600 1.384 1_545 S
C602 C603 1.372 . S
C603 C602 1.372 . S
C603 C604 1.400 . S
C603 C608 1.490 . S
C604 H594 0.930 . S
C604 C603 1.400 . S
C604 C607 1.386 1_545 S
H605 C621 0.930 . S
H606 C622 0.931 . S
C607 H595 0.929 . S
C607 C601 1.390 . S
C607 C604 1.386 1_565 S
C608 C603 1.490 . S
C608 C610 1.395 . S
C608 C611 1.403 . S
H609 C615 0.930 . S
C610 H596 0.930 . S
C610 C608 1.395 . S
C610 C613 1.403 . S
C611 C608 1.403 . S
C611 C612 1.524 . S
C611 C615 1.400 . S
C612 H597 0.960 . S
C612 H598 0.960 . S
C612 H599 0.960 . S
C612 C611 1.524 . S
C613 C610 1.403 . S
C613 C614 1.392 . S
C613 C617 1.495 . S
C614 C613 1.392 . S
C614 C615 1.385 . S
C614 C616 1.478 . S
C615 H609 0.930 . S
C615 C611 1.400 . S
C615 C614 1.385 . S
C616 C614 1.478 . S
C616 C618 1.381 . S
C616 C622 1.383 . S
C617 C613 1.495 . S
C617 H623 0.959 . S
C617 H624 0.961 . S
C617 H625 0.960 . S
C618 C616 1.381 . S
C618 C619 1.394 . S
C618 H626 0.930 . S
C619 C618 1.394 . S
C619 C620 1.383 . S
C619 H627 0.929 . S
C620 C619 1.383 . S
C620 C621 1.377 . S
C621 H605 0.930 . S
C621 C620 1.377 . S
C621 C622 1.379 . S
C622 H606 0.931 . S
C622 C616 1.383 . S
C622 C621 1.379 . S
H623 C617 0.959 . S
H624 C617 0.961 . S
H625 C617 0.960 . S
H626 C618 0.930 . S
H627 C619 0.929 . S
H628 C636 0.929 . S
H629 C638 0.930 . S
H630 C640 0.930 . S
H631 C643 0.929 . S
H632 C646 0.930 . S
H633 C648 0.960 . S
H634 C648 0.960 . S
H635 C648 0.960 . S
C636 H628 0.929 . S
C636 C637 1.377 . S
C636 C638 1.384 1_565 S
C637 C636 1.377 . S
C637 C643 1.390 . S
C638 H629 0.930 . S
C638 C636 1.384 1_545 S
C638 C639 1.372 . S
C639 C638 1.372 . S
C639 C640 1.400 . S
C639 C644 1.490 . S
C640 H630 0.930 . S
C640 C639 1.400 . S
C640 C643 1.386 1_545 S
H641 C657 0.930 . S
H642 C658 0.931 . S
C643 H631 0.929 . S
C643 C637 1.390 . S
C643 C640 1.386 1_565 S
C644 C639 1.490 . S
C644 C646 1.395 . S
C644 C647 1.403 . S
H645 C651 0.930 . S
C646 H632 0.930 . S
C646 C644 1.395 . S
C646 C649 1.403 . S
C647 C644 1.403 . S
C647 C648 1.524 . S
C647 C651 1.400 . S
C648 H633 0.960 . S
C648 H634 0.960 . S
C648 H635 0.960 . S
C648 C647 1.524 . S
C649 C646 1.403 . S
C649 C650 1.392 . S
C649 C653 1.495 . S
C650 C649 1.392 . S
C650 C651 1.385 . S
C650 C652 1.478 . S
C651 H645 0.930 . S
C651 C647 1.400 . S
C651 C650 1.385 . S
C652 C650 1.478 . S
C652 C654 1.381 . S
C652 C658 1.383 . S
C653 C649 1.495 . S
C653 H659 0.959 . S
C653 H660 0.961 . S
C653 H661 0.960 . S
C654 C652 1.381 . S
C654 C655 1.394 . S
C654 H662 0.930 . S
C655 C654 1.394 . S
C655 C656 1.383 . S
C655 H663 0.929 . S
C656 C655 1.383 . S
C656 C657 1.377 . S
C657 H641 0.930 . S
C657 C656 1.377 . S
C657 C658 1.379 . S
C658 H642 0.931 . S
C658 C652 1.383 . S
C658 C657 1.379 . S
H659 C653 0.959 . S
H660 C653 0.961 . S
H661 C653 0.960 . S
H662 C654 0.930 . S
H663 C655 0.929 . S
H664 C672 0.929 . S
H665 C674 0.930 . S
H666 C676 0.930 . S
H667 C679 0.929 . S
H668 C682 0.930 . S
H669 C684 0.960 . S
H670 C684 0.960 . S
H671 C684 0.960 . S
C672 H664 0.929 . S
C672 C673 1.377 . S
C672 C674 1.384 1_545 S
C673 C672 1.377 . S
C673 C679 1.390 . S
C674 H665 0.930 . S
C674 C672 1.384 1_565 S
C674 C675 1.372 . S
C675 C674 1.372 . S
C675 C676 1.400 . S
C675 C680 1.490 . S
C676 H666 0.930 . S
C676 C675 1.400 . S
C676 C679 1.386 1_565 S
H677 C693 0.930 . S
H678 C694 0.931 . S
C679 H667 0.929 . S
C679 C673 1.390 . S
C679 C676 1.386 1_545 S
C680 C675 1.490 . S
C680 C682 1.395 . S
C680 C683 1.403 . S
H681 C687 0.930 . S
C682 H668 0.930 . S
C682 C680 1.395 . S
C682 C685 1.403 . S
C683 C680 1.403 . S
C683 C684 1.524 . S
C683 C687 1.400 . S
C684 H669 0.960 . S
C684 H670 0.960 . S
C684 H671 0.960 . S
C684 C683 1.524 . S
C685 C682 1.403 . S
C685 C686 1.392 . S
C685 C689 1.495 . S
C686 C685 1.392 . S
C686 C687 1.385 . S
C686 C688 1.478 . S
C687 H681 0.930 . S
C687 C683 1.400 . S
C687 C686 1.385 . S
C688 C686 1.478 . S
C688 C690 1.381 . S
C688 C694 1.383 . S
C689 C685 1.495 . S
C689 H695 0.959 . S
C689 H696 0.961 . S
C689 H697 0.960 . S
C690 C688 1.381 . S
C690 C691 1.394 . S
C690 H698 0.930 . S
C691 C690 1.394 . S
C691 C692 1.383 . S
C691 H699 0.929 . S
C692 C691 1.383 . S
C692 C693 1.377 . S
C693 H677 0.930 . S
C693 C692 1.377 . S
C693 C694 1.379 . S
C694 H678 0.931 . S
C694 C688 1.383 . S
C694 C693 1.379 . S
H695 C689 0.959 . S
H696 C689 0.961 . S
H697 C689 0.960 . S
H698 C690 0.930 . S
H699 C691 0.929 . S
H700 C708 0.929 . S
H701 C710 0.930 . S
H702 C712 0.930 . S
H703 C715 0.929 . S
H704 C718 0.930 . S
H705 C720 0.960 . S
H706 C720 0.960 . S
H707 C720 0.960 . S
C708 H700 0.929 . S
C708 C709 1.377 . S
C708 C710 1.384 . S
C709 C708 1.377 . S
C709 C715 1.390 . S
C710 H701 0.930 . S
C710 C708 1.384 . S
C710 C711 1.372 . S
C711 C710 1.372 . S
C711 C712 1.400 . S
C711 C716 1.490 . S
C712 H702 0.930 . S
C712 C711 1.400 . S
C712 C715 1.386 . S
H713 C729 0.930 . S
H714 C730 0.931 . S
C715 H703 0.929 . S
C715 C709 1.390 . S
C715 C712 1.386 . S
C716 C711 1.490 . S
C716 C718 1.395 . S
C716 C719 1.403 . S
H717 C723 0.930 . S
C718 H704 0.930 . S
C718 C716 1.395 . S
C718 C721 1.403 . S
C719 C716 1.403 . S
C719 C720 1.524 . S
C719 C723 1.400 . S
C720 H705 0.960 . S
C720 H706 0.960 . S
C720 H707 0.960 . S
C720 C719 1.524 . S
C721 C718 1.403 . S
C721 C722 1.392 . S
C721 C725 1.495 . S
C722 C721 1.392 . S
C722 C723 1.385 . S
C722 C724 1.478 . S
C723 H717 0.930 . S
C723 C719 1.400 . S
C723 C722 1.385 . S
C724 C722 1.478 . S
C724 C726 1.381 . S
C724 C730 1.383 . S
C725 C721 1.495 . S
C725 H731 0.959 . S
C725 H732 0.961 . S
C725 H733 0.960 . S
C726 C724 1.381 . S
C726 C727 1.394 1_565 S
C726 H734 0.930 . S
C727 C726 1.394 1_545 S
C727 C728 1.383 . S
C727 H735 0.929 . S
C728 C727 1.383 . S
C728 C729 1.377 . S
C729 H713 0.930 . S
C729 C728 1.377 . S
C729 C730 1.379 1_545 S
C730 H714 0.931 . S
C730 C724 1.383 . S
C730 C729 1.379 1_565 S
H731 C725 0.959 . S
H732 C725 0.961 . S
H733 C725 0.960 . S
H734 C726 0.930 . S
H735 C727 0.929 . S
H736 C744 0.929 . S
H737 C746 0.930 . S
H738 C748 0.930 . S
H739 C751 0.929 . S
H740 C754 0.930 . S
H741 C756 0.960 . S
H742 C756 0.960 . S
H743 C756 0.960 . S
C744 H736 0.929 . S
C744 C745 1.377 . S
C744 C746 1.384 . S
C745 C744 1.377 . S
C745 C751 1.390 . S
C746 H737 0.930 . S
C746 C744 1.384 . S
C746 C747 1.372 . S
C747 C746 1.372 . S
C747 C748 1.400 . S
C747 C752 1.490 . S
C748 H738 0.930 . S
C748 C747 1.400 . S
C748 C751 1.386 . S
H749 C765 0.930 . S
H750 C766 0.931 . S
C751 H739 0.929 . S
C751 C745 1.390 . S
C751 C748 1.386 . S
C752 C747 1.490 . S
C752 C754 1.395 . S
C752 C755 1.403 . S
H753 C759 0.930 . S
C754 H740 0.930 . S
C754 C752 1.395 . S
C754 C757 1.403 . S
C755 C752 1.403 . S
C755 C756 1.524 . S
C755 C759 1.400 . S
C756 H741 0.960 . S
C756 H742 0.960 . S
C756 H743 0.960 . S
C756 C755 1.524 . S
C757 C754 1.403 . S
C757 C758 1.392 . S
C757 C761 1.495 . S
C758 C757 1.392 . S
C758 C759 1.385 . S
C758 C760 1.478 . S
C759 H753 0.930 . S
C759 C755 1.400 . S
C759 C758 1.385 . S
C760 C758 1.478 . S
C760 C762 1.381 . S
C760 C766 1.383 . S
C761 C757 1.495 . S
C761 H767 0.959 . S
C761 H768 0.961 . S
C761 H769 0.960 . S
C762 C760 1.381 . S
C762 C763 1.394 . S
C762 H770 0.930 . S
C763 C762 1.394 . S
C763 C764 1.383 . S
C763 H771 0.929 . S
C764 C763 1.383 . S
C764 C765 1.377 . S
C765 H749 0.930 . S
C765 C764 1.377 . S
C765 C766 1.379 . S
C766 H750 0.931 . S
C766 C760 1.383 . S
C766 C765 1.379 . S
H767 C761 0.959 . S
H768 C761 0.961 . S
H769 C761 0.960 . S
H770 C762 0.930 . S
H771 C763 0.929 . S
H772 C780 0.929 . S
H773 C782 0.930 . S
H774 C784 0.930 . S
H775 C787 0.929 . S
H776 C790 0.930 . S
H777 C792 0.960 . S
H778 C792 0.960 . S
H779 C792 0.960 . S
C780 H772 0.929 . S
C780 C781 1.377 . S
C780 C782 1.384 . S
C781 C780 1.377 . S
C781 C787 1.390 . S
C782 H773 0.930 . S
C782 C780 1.384 . S
C782 C783 1.372 . S
C783 C782 1.372 . S
C783 C784 1.400 . S
C783 C788 1.490 . S
C784 H774 0.930 . S
C784 C783 1.400 . S
C784 C787 1.386 . S
H785 C801 0.930 . S
H786 C802 0.931 . S
C787 H775 0.929 . S
C787 C781 1.390 . S
C787 C784 1.386 . S
C788 C783 1.490 . S
C788 C790 1.395 . S
C788 C791 1.403 . S
H789 C795 0.930 . S
C790 H776 0.930 . S
C790 C788 1.395 . S
C790 C793 1.403 . S
C791 C788 1.403 . S
C791 C792 1.524 . S
C791 C795 1.400 . S
C792 H777 0.960 . S
C792 H778 0.960 . S
C792 H779 0.960 . S
C792 C791 1.524 . S
C793 C790 1.403 . S
C793 C794 1.392 . S
C793 C797 1.495 . S
C794 C793 1.392 . S
C794 C795 1.385 . S
C794 C796 1.478 . S
C795 H789 0.930 . S
C795 C791 1.400 . S
C795 C794 1.385 . S
C796 C794 1.478 . S
C796 C798 1.381 . S
C796 C802 1.383 . S
C797 C793 1.495 . S
C797 H803 0.959 . S
C797 H804 0.961 . S
C797 H805 0.960 . S
C798 C796 1.381 . S
C798 C799 1.394 . S
C798 H806 0.930 . S
C799 C798 1.394 . S
C799 C800 1.383 . S
C799 H807 0.929 . S
C800 C799 1.383 . S
C800 C801 1.377 . S
C801 H785 0.930 . S
C801 C800 1.377 . S
C801 C802 1.379 . S
C802 H786 0.931 . S
C802 C796 1.383 . S
C802 C801 1.379 . S
H803 C797 0.959 . S
H804 C797 0.961 . S
H805 C797 0.960 . S
H806 C798 0.930 . S
H807 C799 0.929 . S
H808 C816 0.929 . S
H809 C818 0.930 . S
H810 C820 0.930 . S
H811 C823 0.929 . S
H812 C826 0.930 . S
H813 C828 0.960 . S
H814 C828 0.960 . S
H815 C828 0.960 . S
C816 H808 0.929 . S
C816 C817 1.377 . S
C816 C818 1.384 . S
C817 C816 1.377 . S
C817 C823 1.390 . S
C818 H809 0.930 . S
C818 C816 1.384 . S
C818 C819 1.372 . S
C819 C818 1.372 . S
C819 C820 1.400 . S
C819 C824 1.490 . S
C820 H810 0.930 . S
C820 C819 1.400 . S
C820 C823 1.386 . S
H821 C837 0.930 . S
H822 C838 0.931 . S
C823 H811 0.929 . S
C823 C817 1.390 . S
C823 C820 1.386 . S
C824 C819 1.490 . S
C824 C826 1.395 . S
C824 C827 1.403 . S
H825 C831 0.930 . S
C826 H812 0.930 . S
C826 C824 1.395 . S
C826 C829 1.403 . S
C827 C824 1.403 . S
C827 C828 1.524 . S
C827 C831 1.400 . S
C828 H813 0.960 . S
C828 H814 0.960 . S
C828 H815 0.960 . S
C828 C827 1.524 . S
C829 C826 1.403 . S
C829 C830 1.392 . S
C829 C833 1.495 . S
C830 C829 1.392 . S
C830 C831 1.385 . S
C830 C832 1.478 . S
C831 H825 0.930 . S
C831 C827 1.400 . S
C831 C830 1.385 . S
C832 C830 1.478 . S
C832 C834 1.381 . S
C832 C838 1.383 . S
C833 C829 1.495 . S
C833 H839 0.959 . S
C833 H840 0.961 . S
C833 H841 0.960 . S
C834 C832 1.381 . S
C834 C835 1.394 . S
C834 H842 0.930 . S
C835 C834 1.394 . S
C835 C836 1.383 . S
C835 H843 0.929 . S
C836 C835 1.383 . S
C836 C837 1.377 . S
C837 H821 0.930 . S
C837 C836 1.377 . S
C837 C838 1.379 . S
C838 H822 0.931 . S
C838 C832 1.383 . S
C838 C837 1.379 . S
H839 C833 0.959 . S
H840 C833 0.961 . S
H841 C833 0.960 . S
H842 C834 0.930 . S
H843 C835 0.929 . S
H844 C852 0.929 . S
H845 C854 0.930 . S
H846 C856 0.930 . S
H847 C859 0.929 . S
H848 C862 0.930 . S
H849 C864 0.960 . S
H850 C864 0.960 . S
H851 C864 0.960 . S
C852 H844 0.929 . S
C852 C853 1.377 . S
C852 C854 1.384 . S
C853 C852 1.377 . S
C853 C859 1.390 . S
C854 H845 0.930 . S
C854 C852 1.384 . S
C854 C855 1.372 . S
C855 C854 1.372 . S
C855 C856 1.400 . S
C855 C860 1.490 . S
C856 H846 0.930 . S
C856 C855 1.400 . S
C856 C859 1.386 . S
H857 C873 0.930 . S
H858 C874 0.931 . S
C859 H847 0.929 . S
C859 C853 1.390 . S
C859 C856 1.386 . S
C860 C855 1.490 . S
C860 C862 1.395 . S
C860 C863 1.403 . S
H861 C867 0.930 . S
C862 H848 0.930 . S
C862 C860 1.395 . S
C862 C865 1.403 . S
C863 C860 1.403 . S
C863 C864 1.524 . S
C863 C867 1.400 . S
C864 H849 0.960 . S
C864 H850 0.960 . S
C864 H851 0.960 . S
C864 C863 1.524 . S
C865 C862 1.403 . S
C865 C866 1.392 . S
C865 C869 1.495 . S
C866 C865 1.392 . S
C866 C867 1.385 . S
C866 C868 1.478 . S
C867 H861 0.930 . S
C867 C863 1.400 . S
C867 C866 1.385 . S
C868 C866 1.478 . S
C868 C870 1.381 . S
C868 C874 1.383 . S
C869 C865 1.495 . S
C869 H875 0.959 . S
C869 H876 0.961 . S
C869 H877 0.960 . S
C870 C868 1.381 . S
C870 C871 1.394 . S
C870 H878 0.930 . S
C871 C870 1.394 . S
C871 C872 1.383 . S
C871 H879 0.929 . S
C872 C871 1.383 . S
C872 C873 1.377 . S
C873 H857 0.930 . S
C873 C872 1.377 . S
C873 C874 1.379 . S
C874 H858 0.931 . S
C874 C868 1.383 . S
C874 C873 1.379 . S
H875 C869 0.959 . S
H876 C869 0.961 . S
H877 C869 0.960 . S
H878 C870 0.930 . S
H879 C871 0.929 . S
H880 C888 0.929 . S
H881 C890 0.930 . S
H882 C892 0.930 . S
H883 C895 0.929 . S
H884 C898 0.930 . S
H885 C900 0.960 . S
H886 C900 0.960 . S
H887 C900 0.960 . S
C888 H880 0.929 . S
C888 C889 1.377 . S
C888 C890 1.384 . S
C889 C888 1.377 . S
C889 C895 1.390 . S
C890 H881 0.930 . S
C890 C888 1.384 . S
C890 C891 1.372 . S
C891 C890 1.372 . S
C891 C892 1.400 . S
C891 C896 1.490 . S
C892 H882 0.930 . S
C892 C891 1.400 . S
C892 C895 1.386 . S
H893 C909 0.930 . S
H894 C910 0.931 . S
C895 H883 0.929 . S
C895 C889 1.390 . S
C895 C892 1.386 . S
C896 C891 1.490 . S
C896 C898 1.395 . S
C896 C899 1.403 . S
H897 C903 0.930 . S
C898 H884 0.930 . S
C898 C896 1.395 . S
C898 C901 1.403 . S
C899 C896 1.403 . S
C899 C900 1.524 . S
C899 C903 1.400 . S
C900 H885 0.960 . S
C900 H886 0.960 . S
C900 H887 0.960 . S
C900 C899 1.524 . S
C901 C898 1.403 . S
C901 C902 1.392 . S
C901 C905 1.495 . S
C902 C901 1.392 . S
C902 C903 1.385 . S
C902 C904 1.478 . S
C903 H897 0.930 . S
C903 C899 1.400 . S
C903 C902 1.385 . S
C904 C902 1.478 . S
C904 C906 1.381 . S
C904 C910 1.383 . S
C905 C901 1.495 . S
C905 H911 0.959 . S
C905 H912 0.961 . S
C905 H913 0.960 . S
C906 C904 1.381 . S
C906 C907 1.394 1_545 S
C906 H914 0.930 . S
C907 C906 1.394 1_565 S
C907 C908 1.383 . S
C907 H915 0.929 . S
C908 C907 1.383 . S
C908 C909 1.377 . S
C909 H893 0.930 . S
C909 C908 1.377 . S
C909 C910 1.379 1_565 S
C910 H894 0.931 . S
C910 C904 1.383 . S
C910 C909 1.379 1_545 S
H911 C905 0.959 . S
H912 C905 0.961 . S
H913 C905 0.960 . S
H914 C906 0.930 . S
H915 C907 0.929 . S
H916 C924 0.929 . S
H917 C926 0.930 . S
H918 C928 0.930 . S
H919 C931 0.929 . S
H920 C934 0.930 . S
H921 C936 0.960 . S
H922 C936 0.960 . S
H923 C936 0.960 . S
C924 H916 0.929 . S
C924 C925 1.377 . S
C924 C926 1.384 1_565 S
C925 C924 1.377 . S
C925 C931 1.390 . S
C926 H917 0.930 . S
C926 C924 1.384 1_545 S
C926 C927 1.372 . S
C927 C926 1.372 . S
C927 C928 1.400 . S
C927 C932 1.490 . S
C928 H918 0.930 . S
C928 C927 1.400 . S
C928 C931 1.386 1_545 S
H929 C945 0.930 . S
H930 C946 0.931 . S
C931 H919 0.929 . S
C931 C925 1.390 . S
C931 C928 1.386 1_565 S
C932 C927 1.490 . S
C932 C934 1.395 . S
C932 C935 1.403 . S
H933 C939 0.930 . S
C934 H920 0.930 . S
C934 C932 1.395 . S
C934 C937 1.403 . S
C935 C932 1.403 . S
C935 C936 1.524 . S
C935 C939 1.400 . S
C936 H921 0.960 . S
C936 H922 0.960 . S
C936 H923 0.960 . S
C936 C935 1.524 . S
C937 C934 1.403 . S
C937 C938 1.392 . S
C937 C941 1.495 . S
C938 C937 1.392 . S
C938 C939 1.385 . S
C938 C940 1.478 . S
C939 H933 0.930 . S
C939 C935 1.400 . S
C939 C938 1.385 . S
C940 C938 1.478 . S
C940 C942 1.381 . S
C940 C946 1.383 . S
C941 C937 1.495 . S
C941 H947 0.959 . S
C941 H948 0.961 . S
C941 H949 0.960 . S
C942 C940 1.381 . S
C942 C943 1.394 . S
C942 H950 0.930 . S
C943 C942 1.394 . S
C943 C944 1.383 . S
C943 H951 0.929 . S
C944 C943 1.383 . S
C944 C945 1.377 . S
C945 H929 0.930 . S
C945 C944 1.377 . S
C945 C946 1.379 . S
C946 H930 0.931 . S
C946 C940 1.383 . S
C946 C945 1.379 . S
H947 C941 0.959 . S
H948 C941 0.961 . S
H949 C941 0.960 . S
H950 C942 0.930 . S
H951 C943 0.929 . S
H952 C960 0.929 . S
H953 C962 0.930 . S
H954 C964 0.930 . S
H955 C967 0.929 . S
H956 C970 0.930 . S
H957 C972 0.960 . S
H958 C972 0.960 . S
H959 C972 0.960 . S
C960 H952 0.929 . S
C960 C961 1.377 . S
C960 C962 1.384 . S
C961 C960 1.377 . S
C961 C967 1.390 . S
C962 H953 0.930 . S
C962 C960 1.384 . S
C962 C963 1.372 . S
C963 C962 1.372 . S
C963 C964 1.400 . S
C963 C968 1.490 . S
C964 H954 0.930 . S
C964 C963 1.400 . S
C964 C967 1.386 . S
H965 C981 0.930 . S
H966 C982 0.931 . S
C967 H955 0.929 . S
C967 C961 1.390 . S
C967 C964 1.386 . S
C968 C963 1.490 . S
C968 C970 1.395 . S
C968 C971 1.403 . S
H969 C975 0.930 . S
C970 H956 0.930 . S
C970 C968 1.395 . S
C970 C973 1.403 . S
C971 C968 1.403 . S
C971 C972 1.524 . S
C971 C975 1.400 . S
C972 H957 0.960 . S
C972 H958 0.960 . S
C972 H959 0.960 . S
C972 C971 1.524 . S
C973 C970 1.403 . S
C973 C974 1.392 . S
C973 C977 1.495 . S
C974 C973 1.392 . S
C974 C975 1.385 . S
C974 C976 1.478 . S
C975 H969 0.930 . S
C975 C971 1.400 . S
C975 C974 1.385 . S
C976 C974 1.478 . S
C976 C978 1.381 . S
C976 C982 1.383 . S
C977 C973 1.495 . S
C977 H983 0.959 . S
C977 H984 0.961 . S
C977 H985 0.960 . S
C978 C976 1.381 . S
C978 C979 1.394 1_565 S
C978 H986 0.930 . S
C979 C978 1.394 1_545 S
C979 C980 1.383 . S
C979 H987 0.929 . S
C980 C979 1.383 . S
C980 C981 1.377 . S
C981 H965 0.930 . S
C981 C980 1.377 . S
C981 C982 1.379 1_545 S
C982 H966 0.931 . S
C982 C976 1.383 . S
C982 C981 1.379 1_565 S
H983 C977 0.959 . S
H984 C977 0.961 . S
H985 C977 0.960 . S
H986 C978 0.930 . S
H987 C979 0.929 . S
H988 C996 0.929 . S
H989 C998 0.930 . S
H990 C1000 0.930 . S
H991 C1003 0.929 . S
H992 C1006 0.930 . S
H993 C1008 0.960 . S
H994 C1008 0.960 . S
H995 C1008 0.960 . S
C996 H988 0.929 . S
C996 C997 1.377 . S
C996 C998 1.384 . S
C997 C996 1.377 . S
C997 C1003 1.390 . S
C998 H989 0.930 . S
C998 C996 1.384 . S
C998 C999 1.372 . S
C999 C998 1.372 . S
C999 C1000 1.400 . S
C999 C1004 1.490 . S
C1000 H990 0.930 . S
C1000 C999 1.400 . S
C1000 C1003 1.386 . S
H1001 C1017 0.930 . S
H1002 C1018 0.931 . S
C1003 H991 0.929 . S
C1003 C997 1.390 . S
C1003 C1000 1.386 . S
C1004 C999 1.490 . S
C1004 C1006 1.395 . S
C1004 C1007 1.403 . S
H1005 C1011 0.930 . S
C1006 H992 0.930 . S
C1006 C1004 1.395 . S
C1006 C1009 1.403 . S
C1007 C1004 1.403 . S
C1007 C1008 1.524 . S
C1007 C1011 1.400 . S
C1008 H993 0.960 . S
C1008 H994 0.960 . S
C1008 H995 0.960 . S
C1008 C1007 1.524 . S
C1009 C1006 1.403 . S
C1009 C1010 1.392 . S
C1009 C1013 1.495 . S
C1010 C1009 1.392 . S
C1010 C1011 1.385 . S
C1010 C1012 1.478 . S
C1011 H1005 0.930 . S
C1011 C1007 1.400 . S
C1011 C1010 1.385 . S
C1012 C1010 1.478 . S
C1012 C1014 1.381 . S
C1012 C1018 1.383 . S
C1013 C1009 1.495 . S
C1013 H1019 0.959 . S
C1013 H1020 0.961 . S
C1013 H1021 0.960 . S
C1014 C1012 1.381 . S
C1014 C1015 1.394 1_565 S
C1014 H1022 0.930 . S
C1015 C1014 1.394 1_545 S
C1015 C1016 1.383 . S
C1015 H1023 0.929 . S
C1016 C1015 1.383 . S
C1016 C1017 1.377 . S
C1017 H1001 0.930 . S
C1017 C1016 1.377 . S
C1017 C1018 1.379 1_545 S
C1018 H1002 0.931 . S
C1018 C1012 1.383 . S
C1018 C1017 1.379 1_565 S
H1019 C1013 0.959 . S
H1020 C1013 0.961 . S
H1021 C1013 0.960 . S
H1022 C1014 0.930 . S
H1023 C1015 0.929 . S
H1024 C1032 0.929 . S
H1025 C1034 0.929 1_455 S
H1026 C1036 0.930 . S
H1027 C1039 0.929 . S
H1028 C1042 0.930 . S
H1029 C1044 0.964 1_455 S
H1030 C1044 0.960 1_455 S
H1031 C1044 0.960 . S
C1032 H1024 0.929 . S
C1032 C1033 1.377 . S
C1032 C1034 1.384 . S
C1033 C1032 1.377 . S
C1033 C1039 1.390 . S
C1034 H1025 0.929 1_655 S
C1034 C1032 1.384 . S
C1034 C1035 1.372 . S
C1035 C1034 1.372 . S
C1035 C1036 1.400 . S
C1035 C1040 1.490 . S
C1036 H1026 0.930 . S
C1036 C1035 1.400 . S
C1036 C1039 1.386 . S
H1037 C1053 0.930 . S
H1038 C1054 0.841 1_655 S
C1039 H1027 0.929 . S
C1039 C1033 1.390 . S
C1039 C1036 1.386 . S
C1040 C1035 1.490 . S
C1040 C1042 1.336 1_556 S
C1040 C1043 1.403 . S
H1041 C1047 0.933 . S
C1042 H1028 0.930 . S
C1042 C1040 1.336 1_554 S
C1042 C1045 1.463 1_655 S
C1043 C1040 1.403 . S
C1043 C1044 1.524 . S
C1043 C1047 1.343 1_656 S
C1044 H1029 0.964 1_655 S
C1044 H1030 0.960 1_655 S
C1044 H1031 0.960 . S
C1044 C1043 1.524 . S
C1045 C1042 1.463 1_455 S
C1045 C1046 1.392 . S
C1045 C1049 1.495 . S
C1046 C1045 1.392 . S
C1046 C1047 1.442 . S
C1046 C1048 1.478 . S
C1047 H1041 0.933 . S
C1047 C1043 1.343 1_454 S
C1047 C1046 1.442 . S
C1048 C1046 1.478 . S
C1048 C1050 1.381 . S
C1048 C1054 1.383 . S
C1049 C1045 1.495 . S
C1049 H1055 0.959 . S
C1049 H1056 0.988 . S
C1049 H1057 0.960 . S
C1050 C1048 1.381 . S
C1050 C1051 1.394 . S
C1050 H1058 0.930 . S
C1051 C1050 1.394 . S
C1051 C1052 1.383 . S
C1051 H1059 0.929 . S
C1052 C1051 1.383 . S
C1052 C1053 1.377 . S
C1053 H1037 0.930 . S
C1053 C1052 1.377 . S
C1053 C1054 1.379 . S
C1054 H1038 0.841 1_455 S
C1054 C1048 1.383 . S
C1054 C1053 1.379 . S
H1055 C1049 0.959 . S
H1056 C1049 0.988 . S
H1057 C1049 0.960 . S
H1058 C1050 0.930 . S
H1059 C1051 0.929 . S
H1060 C1068 0.929 . S
H1061 C1070 0.930 . S
H1062 C1072 0.930 . S
H1063 C1075 0.929 . S
H1064 C1078 0.930 . S
H1065 C1080 0.960 . S
H1066 C1080 0.960 . S
H1067 C1080 0.960 . S
C1068 H1060 0.929 . S
C1068 C1069 1.377 . S
C1068 C1070 1.384 . S
C1069 C1068 1.377 . S
C1069 C1075 1.390 . S
C1070 H1061 0.930 . S
C1070 C1068 1.384 . S
C1070 C1071 1.372 . S
C1071 C1070 1.372 . S
C1071 C1072 1.400 . S
C1071 C1076 1.490 . S
C1072 H1062 0.930 . S
C1072 C1071 1.400 . S
C1072 C1075 1.386 . S
H1073 C1089 0.930 . S
H1074 C1090 0.931 . S
C1075 H1063 0.929 . S
C1075 C1069 1.390 . S
C1075 C1072 1.386 . S
C1076 C1071 1.490 . S
C1076 C1078 1.395 . S
C1076 C1079 1.403 . S
H1077 C1083 0.930 . S
C1078 H1064 0.930 . S
C1078 C1076 1.395 . S
C1078 C1081 1.403 1_556 S
C1079 C1076 1.403 . S
C1079 C1080 1.524 . S
C1079 C1083 1.400 1_556 S
C1080 H1065 0.960 . S
C1080 H1066 0.960 . S
C1080 H1067 0.960 . S
C1080 C1079 1.524 . S
C1081 C1078 1.403 1_554 S
C1081 C1082 1.392 . S
C1081 C1085 1.495 . S
C1082 C1081 1.392 . S
C1082 C1083 1.385 . S
C1082 C1084 1.478 . S
C1083 H1077 0.930 . S
C1083 C1079 1.400 1_554 S
C1083 C1082 1.385 . S
C1084 C1082 1.478 . S
C1084 C1086 1.381 . S
C1084 C1090 1.383 . S
C1085 C1081 1.495 . S
C1085 H1091 0.959 . S
C1085 H1092 0.961 . S
C1085 H1093 0.960 . S
C1086 C1084 1.381 . S
C1086 C1087 1.394 . S
C1086 H1094 0.930 . S
C1087 C1086 1.394 . S
C1087 C1088 1.383 . S
C1087 H1095 0.929 . S
C1088 C1087 1.383 . S
C1088 C1089 1.377 . S
C1089 H1073 0.930 . S
C1089 C1088 1.377 . S
C1089 C1090 1.379 . S
C1090 H1074 0.931 . S
C1090 C1084 1.383 . S
C1090 C1089 1.379 . S
H1091 C1085 0.959 . S
H1092 C1085 0.961 . S
H1093 C1085 0.960 . S
H1094 C1086 0.930 . S
H1095 C1087 0.929 . S
H1096 C1104 0.929 . S
H1097 C1106 0.930 . S
H1098 C1108 0.930 . S
H1099 C1111 0.929 . S
H1100 C1114 0.930 . S
H1101 C1116 0.960 . S
H1102 C1116 0.960 . S
H1103 C1116 0.960 . S
C1104 H1096 0.929 . S
C1104 C1105 1.377 . S
C1104 C1106 1.384 . S
C1105 C1104 1.377 . S
C1105 C1111 1.390 . S
C1106 H1097 0.930 . S
C1106 C1104 1.384 . S
C1106 C1107 1.372 . S
C1107 C1106 1.372 . S
C1107 C1108 1.400 . S
C1107 C1112 1.490 . S
C1108 H1098 0.930 . S
C1108 C1107 1.400 . S
C1108 C1111 1.386 . S
H1109 C1125 0.930 . S
H1110 C1126 0.931 . S
C1111 H1099 0.929 . S
C1111 C1105 1.390 . S
C1111 C1108 1.386 . S
C1112 C1107 1.490 . S
C1112 C1114 1.395 . S
C1112 C1115 1.403 1_455 S
H1113 C1119 0.930 . S
C1114 H1100 0.930 . S
C1114 C1112 1.395 . S
C1114 C1117 1.403 . S
C1115 C1112 1.403 1_655 S
C1115 C1116 1.524 . S
C1115 C1119 1.400 . S
C1116 H1101 0.960 . S
C1116 H1102 0.960 . S
C1116 H1103 0.960 . S
C1116 C1115 1.524 . S
C1117 C1114 1.403 . S
C1117 C1118 1.392 1_455 S
C1117 C1121 1.495 . S
C1118 C1117 1.392 1_655 S
C1118 C1119 1.385 . S
C1118 C1120 1.478 . S
C1119 H1113 0.930 . S
C1119 C1115 1.400 . S
C1119 C1118 1.385 . S
C1120 C1118 1.478 . S
C1120 C1122 1.381 . S
C1120 C1126 1.383 . S
C1121 C1117 1.495 . S
C1121 H1127 0.959 . S
C1121 H1128 0.961 . S
C1121 H1129 0.960 . S
C1122 C1120 1.381 . S
C1122 C1123 1.394 . S
C1122 H1130 0.930 . S
C1123 C1122 1.394 . S
C1123 C1124 1.383 . S
C1123 H1131 0.929 . S
C1124 C1123 1.383 . S
C1124 C1125 1.377 . S
C1125 H1109 0.930 . S
C1125 C1124 1.377 . S
C1125 C1126 1.379 . S
C1126 H1110 0.931 . S
C1126 C1120 1.383 . S
C1126 C1125 1.379 . S
H1127 C1121 0.959 . S
H1128 C1121 0.961 . S
H1129 C1121 0.960 . S
H1130 C1122 0.930 . S
H1131 C1123 0.929 . S
H1132 C1140 0.929 . S
H1133 C1142 0.930 . S
H1134 C1144 0.930 . S
H1135 C1147 0.929 . S
H1136 C1150 0.930 . S
H1137 C1152 0.960 . S
H1138 C1152 0.960 . S
H1139 C1152 0.960 . S
C1140 H1132 0.929 . S
C1140 C1141 1.377 . S
C1140 C1142 1.384 . S
C1141 C1140 1.377 . S
C1141 C1147 1.390 . S
C1142 H1133 0.930 . S
C1142 C1140 1.384 . S
C1142 C1143 1.372 . S
C1143 C1142 1.372 . S
C1143 C1144 1.400 . S
C1143 C1148 1.490 . S
C1144 H1134 0.930 . S
C1144 C1143 1.400 . S
C1144 C1147 1.386 . S
H1145 C1161 0.930 . S
H1146 C1162 0.931 . S
C1147 H1135 0.929 . S
C1147 C1141 1.390 . S
C1147 C1144 1.386 . S
C1148 C1143 1.490 . S
C1148 C1150 1.395 . S
C1148 C1151 1.403 . S
H1149 C1155 0.930 . S
C1150 H1136 0.930 . S
C1150 C1148 1.395 . S
C1150 C1153 1.403 . S
C1151 C1148 1.403 . S
C1151 C1152 1.524 . S
C1151 C1155 1.400 . S
C1152 H1137 0.960 . S
C1152 H1138 0.960 . S
C1152 H1139 0.960 . S
C1152 C1151 1.524 . S
C1153 C1150 1.403 . S
C1153 C1154 1.392 . S
C1153 C1157 1.495 . S
C1154 C1153 1.392 . S
C1154 C1155 1.385 . S
C1154 C1156 1.478 . S
C1155 H1149 0.930 . S
C1155 C1151 1.400 . S
C1155 C1154 1.385 . S
C1156 C1154 1.478 . S
C1156 C1158 1.381 . S
C1156 C1162 1.383 . S
C1157 C1153 1.495 . S
C1157 H1163 0.959 . S
C1157 H1164 0.961 . S
C1157 H1165 0.960 . S
C1158 C1156 1.381 . S
C1158 C1159 1.394 . S
C1158 H1166 0.930 . S
C1159 C1158 1.394 . S
C1159 C1160 1.383 . S
C1159 H1167 0.929 . S
C1160 C1159 1.383 . S
C1160 C1161 1.377 . S
C1161 H1145 0.930 . S
C1161 C1160 1.377 . S
C1161 C1162 1.379 . S
C1162 H1146 0.931 . S
C1162 C1156 1.383 . S
C1162 C1161 1.379 . S
H1163 C1157 0.959 . S
H1164 C1157 0.961 . S
H1165 C1157 0.960 . S
H1166 C1158 0.930 . S
H1167 C1159 0.929 . S
H1168 C1176 0.929 . S
H1169 C1178 0.930 . S
H1170 C1180 0.930 . S
H1171 C1183 0.929 . S
H1172 C1186 0.930 . S
H1173 C1188 0.960 . S
H1174 C1188 0.960 . S
H1175 C1188 0.960 . S
C1176 H1168 0.929 . S
C1176 C1177 1.377 . S
C1176 C1178 1.384 . S
C1177 C1176 1.377 . S
C1177 C1183 1.390 . S
C1178 H1169 0.930 . S
C1178 C1176 1.384 . S
C1178 C1179 1.372 . S
C1179 C1178 1.372 . S
C1179 C1180 1.400 . S
C1179 C1184 1.490 . S
C1180 H1170 0.930 . S
C1180 C1179 1.400 . S
C1180 C1183 1.386 . S
H1181 C1197 0.930 . S
H1182 C1198 0.931 . S
C1183 H1171 0.929 . S
C1183 C1177 1.390 . S
C1183 C1180 1.386 . S
C1184 C1179 1.490 . S
C1184 C1186 1.395 . S
C1184 C1187 1.403 1_556 S
H1185 C1191 0.930 . S
C1186 H1172 0.930 . S
C1186 C1184 1.395 . S
C1186 C1189 1.403 . S
C1187 C1184 1.403 1_554 S
C1187 C1188 1.524 . S
C1187 C1191 1.400 . S
C1188 H1173 0.960 . S
C1188 H1174 0.960 . S
C1188 H1175 0.960 . S
C1188 C1187 1.524 . S
C1189 C1186 1.403 . S
C1189 C1190 1.392 1_556 S
C1189 C1193 1.495 . S
C1190 C1189 1.392 1_554 S
C1190 C1191 1.385 . S
C1190 C1192 1.478 . S
C1191 H1185 0.930 . S
C1191 C1187 1.400 . S
C1191 C1190 1.385 . S
C1192 C1190 1.478 . S
C1192 C1194 1.381 . S
C1192 C1198 1.383 . S
C1193 C1189 1.495 . S
C1193 H1199 0.959 . S
C1193 H1200 0.961 . S
C1193 H1201 0.960 . S
C1194 C1192 1.381 . S
C1194 C1195 1.394 . S
C1194 H1202 0.930 . S
C1195 C1194 1.394 . S
C1195 C1196 1.383 . S
C1195 H1203 0.929 . S
C1196 C1195 1.383 . S
C1196 C1197 1.377 . S
C1197 H1181 0.930 . S
C1197 C1196 1.377 . S
C1197 C1198 1.379 . S
C1198 H1182 0.931 . S
C1198 C1192 1.383 . S
C1198 C1197 1.379 . S
H1199 C1193 0.959 . S
H1200 C1193 0.961 . S
H1201 C1193 0.960 . S
H1202 C1194 0.930 . S
H1203 C1195 0.929 . S
H1204 C1212 0.929 . S
H1205 C1214 0.930 . S
H1206 C1216 0.930 . S
H1207 C1219 0.929 . S
H1208 C1222 0.930 . S
H1209 C1224 0.960 . S
H1210 C1224 0.960 . S
H1211 C1224 0.960 . S
C1212 H1204 0.929 . S
C1212 C1213 1.377 . S
C1212 C1214 1.384 . S
C1213 C1212 1.377 . S
C1213 C1219 1.390 . S
C1214 H1205 0.930 . S
C1214 C1212 1.384 . S
C1214 C1215 1.372 . S
C1215 C1214 1.372 . S
C1215 C1216 1.400 . S
C1215 C1220 1.490 . S
C1216 H1206 0.930 . S
C1216 C1215 1.400 . S
C1216 C1219 1.386 . S
H1217 C1233 0.930 . S
H1218 C1234 0.931 . S
C1219 H1207 0.929 . S
C1219 C1213 1.390 . S
C1219 C1216 1.386 . S
C1220 C1215 1.490 . S
C1220 C1222 1.395 . S
C1220 C1223 1.403 1_655 S
H1221 C1227 0.930 . S
C1222 H1208 0.930 . S
C1222 C1220 1.395 . S
C1222 C1225 1.403 . S
C1223 C1220 1.403 1_455 S
C1223 C1224 1.524 . S
C1223 C1227 1.400 . S
C1224 H1209 0.960 . S
C1224 H1210 0.960 . S
C1224 H1211 0.960 . S
C1224 C1223 1.524 . S
C1225 C1222 1.403 . S
C1225 C1226 1.392 1_655 S
C1225 C1229 1.495 . S
C1226 C1225 1.392 1_455 S
C1226 C1227 1.385 . S
C1226 C1228 1.478 . S
C1227 H1221 0.930 . S
C1227 C1223 1.400 . S
C1227 C1226 1.385 . S
C1228 C1226 1.478 . S
C1228 C1230 1.381 . S
C1228 C1234 1.383 . S
C1229 C1225 1.495 . S
C1229 H1235 0.959 . S
C1229 H1236 0.961 . S
C1229 H1237 0.960 . S
C1230 C1228 1.381 . S
C1230 C1231 1.394 . S
C1230 H1238 0.930 . S
C1231 C1230 1.394 . S
C1231 C1232 1.383 . S
C1231 H1239 0.929 . S
C1232 C1231 1.383 . S
C1232 C1233 1.377 . S
C1233 H1217 0.930 . S
C1233 C1232 1.377 . S
C1233 C1234 1.379 . S
C1234 H1218 0.931 . S
C1234 C1228 1.383 . S
C1234 C1233 1.379 . S
H1235 C1229 0.959 . S
H1236 C1229 0.961 . S
H1237 C1229 0.960 . S
H1238 C1230 0.930 . S
H1239 C1231 0.929 . S
H1240 C1248 0.929 . S
H1241 C1250 0.930 . S
H1242 C1252 0.930 . S
H1243 C1255 0.929 . S
H1244 C1258 0.930 . S
H1245 C1260 0.960 . S
H1246 C1260 0.960 . S
H1247 C1260 0.960 . S
C1248 H1240 0.929 . S
C1248 C1249 1.377 . S
C1248 C1250 1.384 . S
C1249 C1248 1.377 . S
C1249 C1255 1.390 . S
C1250 H1241 0.930 . S
C1250 C1248 1.384 . S
C1250 C1251 1.372 . S
C1251 C1250 1.372 . S
C1251 C1252 1.400 . S
C1251 C1256 1.490 . S
C1252 H1242 0.930 . S
C1252 C1251 1.400 . S
C1252 C1255 1.386 . S
H1253 C1269 0.930 . S
H1254 C1270 0.931 . S
C1255 H1243 0.929 . S
C1255 C1249 1.390 . S
C1255 C1252 1.386 . S
C1256 C1251 1.490 . S
C1256 C1258 1.395 . S
C1256 C1259 1.403 . S
H1257 C1263 0.930 . S
C1258 H1244 0.930 . S
C1258 C1256 1.395 . S
C1258 C1261 1.403 . S
C1259 C1256 1.403 . S
C1259 C1260 1.524 . S
C1259 C1263 1.400 . S
C1260 H1245 0.960 . S
C1260 H1246 0.960 . S
C1260 H1247 0.960 . S
C1260 C1259 1.524 . S
C1261 C1258 1.403 . S
C1261 C1262 1.392 . S
C1261 C1265 1.495 . S
C1262 C1261 1.392 . S
C1262 C1263 1.385 . S
C1262 C1264 1.478 . S
C1263 H1257 0.930 . S
C1263 C1259 1.400 . S
C1263 C1262 1.385 . S
C1264 C1262 1.478 . S
C1264 C1266 1.381 . S
C1264 C1270 1.383 . S
C1265 C1261 1.495 . S
C1265 H1271 0.959 . S
C1265 H1272 0.961 . S
C1265 H1273 0.960 . S
C1266 C1264 1.381 . S
C1266 C1267 1.394 . S
C1266 H1274 0.930 . S
C1267 C1266 1.394 . S
C1267 C1268 1.383 . S
C1267 H1275 0.929 . S
C1268 C1267 1.383 . S
C1268 C1269 1.377 . S
C1269 H1253 0.930 . S
C1269 C1268 1.377 . S
C1269 C1270 1.379 . S
C1270 H1254 0.931 . S
C1270 C1264 1.383 . S
C1270 C1269 1.379 . S
H1271 C1265 0.959 . S
H1272 C1265 0.961 . S
H1273 C1265 0.960 . S
H1274 C1266 0.930 . S
H1275 C1267 0.929 . S
H1276 C1284 0.929 . S
H1277 C1286 0.909 1_455 S
H1278 C1288 0.930 . S
H1279 C1291 0.929 . S
H1280 C1294 0.930 . S
H1281 C1296 0.960 . S
H1282 C1296 0.960 . S
H1283 C1296 0.960 . S
C1284 H1276 0.929 . S
C1284 C1285 1.377 . S
C1284 C1286 1.384 . S
C1285 C1284 1.377 . S
C1285 C1291 1.390 . S
C1286 H1277 0.909 1_655 S
C1286 C1284 1.384 . S
C1286 C1287 1.372 . S
C1287 C1286 1.372 . S
C1287 C1288 1.400 . S
C1287 C1292 1.490 . S
C1288 H1278 0.930 . S
C1288 C1287 1.400 . S
C1288 C1291 1.386 . S
H1289 C1305 0.930 . S
H1290 C1306 0.931 . S
C1291 H1279 0.929 . S
C1291 C1285 1.390 . S
C1291 C1288 1.386 . S
C1292 C1287 1.490 . S
C1292 C1294 1.395 1_655 S
C1292 C1295 1.403 1_545 S
H1293 C1299 0.930 . S
C1294 H1280 0.930 . S
C1294 C1292 1.395 1_455 S
C1294 C1297 1.403 . S
C1295 C1292 1.403 1_565 S
C1295 C1296 1.524 . S
C1295 C1299 1.400 . S
C1296 H1281 0.960 . S
C1296 H1282 0.960 . S
C1296 H1283 0.960 . S
C1296 C1295 1.524 . S
C1297 C1294 1.403 . S
C1297 C1298 1.392 1_545 S
C1297 C1301 1.495 . S
C1298 C1297 1.392 1_565 S
C1298 C1299 1.385 1_455 S
C1298 C1300 1.478 . S
C1299 H1293 0.930 . S
C1299 C1295 1.400 . S
C1299 C1298 1.385 1_655 S
C1300 C1298 1.478 . S
C1300 C1302 1.381 . S
C1300 C1306 1.383 . S
C1301 C1297 1.495 . S
C1301 H1307 0.959 . S
C1301 H1308 0.961 . S
C1301 H1309 0.960 . S
C1302 C1300 1.381 . S
C1302 C1303 1.394 . S
C1302 H1310 0.930 . S
C1303 C1302 1.394 . S
C1303 C1304 1.383 . S
C1303 H1311 0.929 . S
C1304 C1303 1.383 . S
C1304 C1305 1.377 . S
C1305 H1289 0.930 . S
C1305 C1304 1.377 . S
C1305 C1306 1.379 . S
C1306 H1290 0.931 . S
C1306 C1300 1.383 . S
C1306 C1305 1.379 . S
H1307 C1301 0.959 . S
H1308 C1301 0.961 . S
H1309 C1301 0.960 . S
H1310 C1302 0.930 . S
H1311 C1303 0.929 . S
H1312 C1320 0.929 . S
H1313 C1322 0.930 . S
H1314 C1324 0.930 . S
H1315 C1327 0.929 . S
H1316 C1330 0.930 . S
H1317 C1332 0.960 . S
H1318 C1332 0.960 . S
H1319 C1332 0.960 . S
C1320 H1312 0.929 . S
C1320 C1321 1.377 . S
C1320 C1322 1.384 . S
C1321 C1320 1.377 . S
C1321 C1327 1.390 . S
C1322 H1313 0.930 . S
C1322 C1320 1.384 . S
C1322 C1323 1.372 . S
C1323 C1322 1.372 . S
C1323 C1324 1.400 . S
C1323 C1328 1.490 . S
C1324 H1314 0.930 . S
C1324 C1323 1.400 . S
C1324 C1327 1.386 . S
H1325 C1341 0.930 . S
H1326 C1342 0.931 . S
C1327 H1315 0.929 . S
C1327 C1321 1.390 . S
C1327 C1324 1.386 . S
C1328 C1323 1.490 . S
C1328 C1330 1.395 . S
C1328 C1331 1.403 . S
H1329 C1335 0.930 . S
C1330 H1316 0.930 . S
C1330 C1328 1.395 . S
C1330 C1333 1.403 . S
C1331 C1328 1.403 . S
C1331 C1332 1.524 . S
C1331 C1335 1.400 . S
C1332 H1317 0.960 . S
C1332 H1318 0.960 . S
C1332 H1319 0.960 . S
C1332 C1331 1.524 . S
C1333 C1330 1.403 . S
C1333 C1334 1.392 . S
C1333 C1337 1.495 . S
C1334 C1333 1.392 . S
C1334 C1335 1.385 . S
C1334 C1336 1.478 . S
C1335 H1329 0.930 . S
C1335 C1331 1.400 . S
C1335 C1334 1.385 . S
C1336 C1334 1.478 . S
C1336 C1338 1.381 . S
C1336 C1342 1.383 . S
C1337 C1333 1.495 . S
C1337 H1343 0.959 . S
C1337 H1344 0.961 . S
C1337 H1345 0.960 . S
C1338 C1336 1.381 . S
C1338 C1339 1.394 . S
C1338 H1346 0.930 . S
C1339 C1338 1.394 . S
C1339 C1340 1.383 . S
C1339 H1347 0.929 . S
C1340 C1339 1.383 . S
C1340 C1341 1.377 . S
C1341 H1325 0.930 . S
C1341 C1340 1.377 . S
C1341 C1342 1.379 . S
C1342 H1326 0.931 . S
C1342 C1336 1.383 . S
C1342 C1341 1.379 . S
H1343 C1337 0.959 . S
H1344 C1337 0.961 . S
H1345 C1337 0.960 . S
H1346 C1338 0.930 . S
H1347 C1339 0.929 . S
H1348 C1356 0.929 . S
H1349 C1358 0.930 . S
H1350 C1360 0.930 . S
H1351 C1363 0.929 . S
H1352 C1366 0.930 . S
H1353 C1368 0.960 . S
H1354 C1368 0.960 . S
H1355 C1368 0.960 . S
C1356 H1348 0.929 . S
C1356 C1357 1.377 . S
C1356 C1358 1.384 . S
C1357 C1356 1.377 . S
C1357 C1363 1.390 . S
C1358 H1349 0.930 . S
C1358 C1356 1.384 . S
C1358 C1359 1.372 . S
C1359 C1358 1.372 . S
C1359 C1360 1.400 . S
C1359 C1364 1.490 . S
C1360 H1350 0.930 . S
C1360 C1359 1.400 . S
C1360 C1363 1.386 . S
H1361 C1377 0.930 . S
H1362 C1378 0.931 . S
C1363 H1351 0.929 . S
C1363 C1357 1.390 . S
C1363 C1360 1.386 . S
C1364 C1359 1.490 . S
C1364 C1366 1.395 . S
C1364 C1367 1.403 1_565 S
H1365 C1371 0.930 . S
C1366 H1352 0.930 . S
C1366 C1364 1.395 . S
C1366 C1369 1.403 . S
C1367 C1364 1.403 1_545 S
C1367 C1368 1.524 . S
C1367 C1371 1.400 . S
C1368 H1353 0.960 . S
C1368 H1354 0.960 . S
C1368 H1355 0.960 . S
C1368 C1367 1.524 . S
C1369 C1366 1.403 . S
C1369 C1370 1.392 1_565 S
C1369 C1373 1.495 . S
C1370 C1369 1.392 1_545 S
C1370 C1371 1.385 . S
C1370 C1372 1.478 . S
C1371 H1365 0.930 . S
C1371 C1367 1.400 . S
C1371 C1370 1.385 . S
C1372 C1370 1.478 . S
C1372 C1374 1.381 . S
C1372 C1378 1.383 . S
C1373 C1369 1.495 . S
C1373 H1379 0.959 . S
C1373 H1380 0.961 . S
C1373 H1381 0.960 . S
C1374 C1372 1.381 . S
C1374 C1375 1.394 . S
C1374 H1382 0.930 . S
C1375 C1374 1.394 . S
C1375 C1376 1.383 . S
C1375 H1383 0.929 . S
C1376 C1375 1.383 . S
C1376 C1377 1.377 . S
C1377 H1361 0.930 . S
C1377 C1376 1.377 . S
C1377 C1378 1.379 . S
C1378 H1362 0.931 . S
C1378 C1372 1.383 . S
C1378 C1377 1.379 . S
H1379 C1373 0.959 . S
H1380 C1373 0.961 . S
H1381 C1373 0.960 . S
H1382 C1374 0.930 . S
H1383 C1375 0.929 . S
H1384 C1392 0.929 . S
H1385 C1394 0.930 . S
H1386 C1396 0.930 . S
H1387 C1399 0.929 . S
H1388 C1402 0.930 . S
H1389 C1404 0.960 . S
H1390 C1404 0.960 . S
H1391 C1404 0.960 . S
C1392 H1384 0.929 . S
C1392 C1393 1.377 . S
C1392 C1394 1.384 . S
C1393 C1392 1.377 . S
C1393 C1399 1.390 . S
C1394 H1385 0.930 . S
C1394 C1392 1.384 . S
C1394 C1395 1.372 . S
C1395 C1394 1.372 . S
C1395 C1396 1.400 . S
C1395 C1400 1.490 . S
C1396 H1386 0.930 . S
C1396 C1395 1.400 . S
C1396 C1399 1.386 . S
H1397 C1413 0.930 . S
H1398 C1414 0.931 . S
C1399 H1387 0.929 . S
C1399 C1393 1.390 . S
C1399 C1396 1.386 . S
C1400 C1395 1.490 . S
C1400 C1402 1.395 . S
C1400 C1403 1.403 . S
H1401 C1407 0.930 . S
C1402 H1388 0.930 . S
C1402 C1400 1.395 . S
C1402 C1405 1.403 . S
C1403 C1400 1.403 . S
C1403 C1404 1.524 . S
C1403 C1407 1.400 . S
C1404 H1389 0.960 . S
C1404 H1390 0.960 . S
C1404 H1391 0.960 . S
C1404 C1403 1.524 . S
C1405 C1402 1.403 . S
C1405 C1406 1.392 . S
C1405 C1409 1.495 . S
C1406 C1405 1.392 . S
C1406 C1407 1.385 . S
C1406 C1408 1.478 . S
C1407 H1401 0.930 . S
C1407 C1403 1.400 . S
C1407 C1406 1.385 . S
C1408 C1406 1.478 . S
C1408 C1410 1.381 . S
C1408 C1414 1.383 . S
C1409 C1405 1.495 . S
C1409 H1415 0.959 . S
C1409 H1416 0.961 . S
C1409 H1417 0.960 . S
C1410 C1408 1.381 . S
C1410 C1411 1.394 . S
C1410 H1418 0.930 . S
C1411 C1410 1.394 . S
C1411 C1412 1.383 . S
C1411 H1419 0.929 . S
C1412 C1411 1.383 . S
C1412 C1413 1.377 . S
C1413 H1397 0.930 . S
C1413 C1412 1.377 . S
C1413 C1414 1.379 . S
C1414 H1398 0.931 . S
C1414 C1408 1.383 . S
C1414 C1413 1.379 . S
H1415 C1409 0.959 . S
H1416 C1409 0.961 . S
H1417 C1409 0.960 . S
H1418 C1410 0.930 . S
H1419 C1411 0.929 . S
H1420 C1428 0.929 . S
H1421 C1430 0.930 . S
H1422 C1432 0.930 . S
H1423 C1435 0.929 . S
H1424 C1438 0.930 . S
H1425 C1440 0.960 . S
H1426 C1440 0.960 . S
H1427 C1440 0.960 . S
C1428 H1420 0.929 . S
C1428 C1429 1.377 . S
C1428 C1430 1.384 . S
C1429 C1428 1.377 . S
C1429 C1435 1.390 . S
C1430 H1421 0.930 . S
C1430 C1428 1.384 . S
C1430 C1431 1.372 . S
C1431 C1430 1.372 . S
C1431 C1432 1.400 . S
C1431 C1436 1.490 . S
C1432 H1422 0.930 . S
C1432 C1431 1.400 . S
C1432 C1435 1.386 . S
H1433 C1449 0.930 . S
H1434 C1450 0.931 . S
C1435 H1423 0.929 . S
C1435 C1429 1.390 . S
C1435 C1432 1.386 . S
C1436 C1431 1.490 . S
C1436 C1438 1.395 1_565 S
C1436 C1439 1.403 . S
H1437 C1443 0.930 . S
C1438 H1424 0.930 . S
C1438 C1436 1.395 1_545 S
C1438 C1441 1.403 . S
C1439 C1436 1.403 . S
C1439 C1440 1.524 . S
C1439 C1443 1.400 . S
C1440 H1425 0.960 . S
C1440 H1426 0.960 . S
C1440 H1427 0.960 . S
C1440 C1439 1.524 . S
C1441 C1438 1.403 . S
C1441 C1442 1.392 . S
C1441 C1445 1.495 . S
C1442 C1441 1.392 . S
C1442 C1443 1.385 1_545 S
C1442 C1444 1.478 . S
C1443 H1437 0.930 . S
C1443 C1439 1.400 . S
C1443 C1442 1.385 1_565 S
C1444 C1442 1.478 . S
C1444 C1446 1.381 . S
C1444 C1450 1.383 . S
C1445 C1441 1.495 . S
C1445 H1451 0.959 . S
C1445 H1452 0.961 . S
C1445 H1453 0.960 . S
C1446 C1444 1.381 . S
C1446 C1447 1.394 . S
C1446 H1454 0.930 . S
C1447 C1446 1.394 . S
C1447 C1448 1.383 . S
C1447 H1455 0.929 . S
C1448 C1447 1.383 . S
C1448 C1449 1.377 . S
C1449 H1433 0.930 . S
C1449 C1448 1.377 . S
C1449 C1450 1.379 . S
C1450 H1434 0.931 . S
C1450 C1444 1.383 . S
C1450 C1449 1.379 . S
H1451 C1445 0.959 . S
H1452 C1445 0.961 . S
H1453 C1445 0.960 . S
H1454 C1446 0.930 . S
H1455 C1447 0.929 . S
H1456 C1464 0.929 . S
H1457 C1466 0.930 . S
H1458 C1468 0.930 . S
H1459 C1471 0.929 . S
H1460 C1474 0.930 . S
H1461 C1476 0.960 . S
H1462 C1476 0.960 . S
H1463 C1476 0.960 . S
C1464 H1456 0.929 . S
C1464 C1465 1.377 . S
C1464 C1466 1.384 . S
C1465 C1464 1.377 . S
C1465 C1471 1.390 . S
C1466 H1457 0.930 . S
C1466 C1464 1.384 . S
C1466 C1467 1.372 . S
C1467 C1466 1.372 . S
C1467 C1468 1.400 . S
C1467 C1472 1.490 . S
C1468 H1458 0.930 . S
C1468 C1467 1.400 . S
C1468 C1471 1.386 . S
H1469 C1485 0.930 . S
H1470 C1486 0.931 . S
C1471 H1459 0.929 . S
C1471 C1465 1.390 . S
C1471 C1468 1.386 . S
C1472 C1467 1.490 . S
C1472 C1474 1.395 . S
C1472 C1475 1.403 . S
H1473 C1479 0.930 . S
C1474 H1460 0.930 . S
C1474 C1472 1.395 . S
C1474 C1477 1.403 . S
C1475 C1472 1.403 . S
C1475 C1476 1.524 . S
C1475 C1479 1.400 . S
C1476 H1461 0.960 . S
C1476 H1462 0.960 . S
C1476 H1463 0.960 . S
C1476 C1475 1.524 . S
C1477 C1474 1.403 . S
C1477 C1478 1.392 . S
C1477 C1481 1.495 . S
C1478 C1477 1.392 . S
C1478 C1479 1.385 . S
C1478 C1480 1.478 . S
C1479 H1473 0.930 . S
C1479 C1475 1.400 . S
C1479 C1478 1.385 . S
C1480 C1478 1.478 . S
C1480 C1482 1.381 . S
C1480 C1486 1.383 . S
C1481 C1477 1.495 . S
C1481 H1487 0.959 . S
C1481 H1488 0.961 . S
C1481 H1489 0.960 . S
C1482 C1480 1.381 . S
C1482 C1483 1.394 . S
C1482 H1490 0.930 . S
C1483 C1482 1.394 . S
C1483 C1484 1.383 . S
C1483 H1491 0.929 . S
C1484 C1483 1.383 . S
C1484 C1485 1.377 . S
C1485 H1469 0.930 . S
C1485 C1484 1.377 . S
C1485 C1486 1.379 . S
C1486 H1470 0.931 . S
C1486 C1480 1.383 . S
C1486 C1485 1.379 . S
H1487 C1481 0.959 . S
H1488 C1481 0.961 . S
H1489 C1481 0.960 . S
H1490 C1482 0.930 . S
H1491 C1483 0.929 . S
H1492 C1500 0.929 . S
H1493 C1502 0.930 . S
H1494 C1504 0.930 . S
H1495 C1507 0.929 . S
H1496 C1510 0.930 . S
H1497 C1512 0.960 . S
H1498 C1512 0.960 . S
H1499 C1512 0.960 . S
C1500 H1492 0.929 . S
C1500 C1501 1.377 . S
C1500 C1502 1.384 . S
C1501 C1500 1.377 . S
C1501 C1507 1.390 . S
C1502 H1493 0.930 . S
C1502 C1500 1.384 . S
C1502 C1503 1.372 . S
C1503 C1502 1.372 . S
C1503 C1504 1.400 . S
C1503 C1508 1.490 . S
C1504 H1494 0.930 . S
C1504 C1503 1.400 . S
C1504 C1507 1.386 . S
H1505 C1521 0.930 . S
H1506 C1522 0.931 . S
C1507 H1495 0.929 . S
C1507 C1501 1.390 . S
C1507 C1504 1.386 . S
C1508 C1503 1.490 . S
C1508 C1510 1.395 . S
C1508 C1511 1.403 . S
H1509 C1515 0.930 . S
C1510 H1496 0.930 . S
C1510 C1508 1.395 . S
C1510 C1513 1.403 . S
C1511 C1508 1.403 . S
C1511 C1512 1.524 . S
C1511 C1515 1.400 . S
C1512 H1497 0.960 . S
C1512 H1498 0.960 . S
C1512 H1499 0.960 . S
C1512 C1511 1.524 . S
C1513 C1510 1.403 . S
C1513 C1514 1.392 . S
C1513 C1517 1.495 . S
C1514 C1513 1.392 . S
C1514 C1515 1.385 . S
C1514 C1516 1.478 . S
C1515 H1509 0.930 . S
C1515 C1511 1.400 . S
C1515 C1514 1.385 . S
C1516 C1514 1.478 . S
C1516 C1518 1.381 . S
C1516 C1522 1.383 . S
C1517 C1513 1.495 . S
C1517 H1523 0.959 . S
C1517 H1524 0.961 . S
C1517 H1525 0.960 . S
C1518 C1516 1.381 . S
C1518 C1519 1.394 . S
C1518 H1526 0.930 . S
C1519 C1518 1.394 . S
C1519 C1520 1.383 . S
C1519 H1527 0.929 . S
C1520 C1519 1.383 . S
C1520 C1521 1.377 . S
C1521 H1505 0.930 . S
C1521 C1520 1.377 . S
C1521 C1522 1.379 . S
C1522 H1506 0.931 . S
C1522 C1516 1.383 . S
C1522 C1521 1.379 . S
H1523 C1517 0.959 . S
H1524 C1517 0.961 . S
H1525 C1517 0.960 . S
H1526 C1518 0.930 . S
H1527 C1519 0.929 . S
H1528 C1536 0.929 . S
H1529 C1538 0.930 . S
H1530 C1540 0.930 . S
H1531 C1543 0.929 . S
H1532 C1546 0.930 . S
H1533 C1548 0.960 . S
H1534 C1548 0.960 . S
H1535 C1548 0.960 . S
C1536 H1528 0.929 . S
C1536 C1537 1.377 . S
C1536 C1538 1.384 . S
C1537 C1536 1.377 . S
C1537 C1543 1.390 . S
C1538 H1529 0.930 . S
C1538 C1536 1.384 . S
C1538 C1539 1.372 . S
C1539 C1538 1.372 . S
C1539 C1540 1.400 . S
C1539 C1544 1.490 . S
C1540 H1530 0.930 . S
C1540 C1539 1.400 . S
C1540 C1543 1.386 . S
H1541 C1557 0.930 . S
H1542 C1558 0.931 . S
C1543 H1531 0.929 . S
C1543 C1537 1.390 . S
C1543 C1540 1.386 . S
C1544 C1539 1.490 . S
C1544 C1546 1.395 . S
C1544 C1547 1.403 . S
H1545 C1551 0.930 . S
C1546 H1532 0.930 . S
C1546 C1544 1.395 . S
C1546 C1549 1.403 . S
C1547 C1544 1.403 . S
C1547 C1548 1.524 . S
C1547 C1551 1.400 . S
C1548 H1533 0.960 . S
C1548 H1534 0.960 . S
C1548 H1535 0.960 . S
C1548 C1547 1.524 . S
C1549 C1546 1.403 . S
C1549 C1550 1.392 . S
C1549 C1553 1.495 . S
C1550 C1549 1.392 . S
C1550 C1551 1.385 . S
C1550 C1552 1.478 . S
C1551 H1545 0.930 . S
C1551 C1547 1.400 . S
C1551 C1550 1.385 . S
C1552 C1550 1.478 . S
C1552 C1554 1.381 . S
C1552 C1558 1.383 . S
C1553 C1549 1.495 . S
C1553 H1559 0.959 . S
C1553 H1560 0.961 . S
C1553 H1561 0.960 . S
C1554 C1552 1.381 . S
C1554 C1555 1.394 . S
C1554 H1562 0.930 . S
C1555 C1554 1.394 . S
C1555 C1556 1.383 . S
C1555 H1563 0.929 . S
C1556 C1555 1.383 . S
C1556 C1557 1.377 . S
C1557 H1541 0.930 . S
C1557 C1556 1.377 . S
C1557 C1558 1.379 . S
C1558 H1542 0.931 . S
C1558 C1552 1.383 . S
C1558 C1557 1.379 . S
H1559 C1553 0.959 . S
H1560 C1553 0.961 . S
H1561 C1553 0.960 . S
H1562 C1554 0.930 . S
H1563 C1555 0.929 . S
H1564 C1572 0.929 . S
H1565 C1574 0.930 1_565 S
H1566 C1576 0.930 . S
H1567 C1579 0.929 . S
H1568 C1582 0.930 . S
H1569 C1584 0.960 . S
H1570 C1584 0.960 1_566 S
H1571 C1584 0.960 . S
C1572 H1564 0.929 . S
C1572 C1573 1.377 . S
C1572 C1574 1.384 . S
C1573 C1572 1.377 . S
C1573 C1579 1.390 . S
C1574 H1565 0.930 1_545 S
C1574 C1572 1.384 . S
C1574 C1575 1.372 . S
C1575 C1574 1.372 . S
C1575 C1576 1.400 . S
C1575 C1580 1.490 . S
C1576 H1566 0.930 . S
C1576 C1575 1.400 . S
C1576 C1579 1.386 . S
H1577 C1593 0.930 . S
H1578 C1594 0.931 1_545 S
C1579 H1567 0.929 . S
C1579 C1573 1.390 . S
C1579 C1576 1.386 . S
C1580 C1575 1.490 . S
C1580 C1582 1.395 . S
C1580 C1583 1.403 1_556 S
H1581 C1587 0.930 . S
C1582 H1568 0.930 . S
C1582 C1580 1.395 . S
C1582 C1585 1.403 1_545 S
C1583 C1580 1.403 1_554 S
C1583 C1584 1.524 . S
C1583 C1587 1.400 1_545 S
C1584 H1569 0.960 . S
C1584 H1570 0.960 1_544 S
C1584 H1571 0.960 . S
C1584 C1583 1.524 . S
C1585 C1582 1.403 1_565 S
C1585 C1586 1.392 1_556 S
C1585 C1589 1.495 . S
C1586 C1585 1.392 1_554 S
C1586 C1587 1.385 . S
C1586 C1588 1.478 . S
C1587 H1581 0.930 . S
C1587 C1583 1.400 1_565 S
C1587 C1586 1.385 . S
C1588 C1586 1.478 . S
C1588 C1590 1.381 . S
C1588 C1594 1.383 . S
C1589 C1585 1.495 . S
C1589 H1595 0.959 . S
C1589 H1596 0.961 1_556 S
C1589 H1597 0.960 . S
C1590 C1588 1.381 . S
C1590 C1591 1.394 . S
C1590 H1598 0.930 . S
C1591 C1590 1.394 . S
C1591 C1592 1.383 . S
C1591 H1599 0.929 . S
C1592 C1591 1.383 . S
C1592 C1593 1.377 . S
C1593 H1577 0.930 . S
C1593 C1592 1.377 . S
C1593 C1594 1.379 . S
C1594 H1578 0.931 1_565 S
C1594 C1588 1.383 . S
C1594 C1593 1.379 . S
H1595 C1589 0.959 . S
H1596 C1589 0.961 1_554 S
H1597 C1589 0.960 . S
H1598 C1590 0.930 . S
H1599 C1591 0.929 . S
H1600 C1608 0.929 . S
H1601 C1610 0.930 . S
H1602 C1612 0.930 . S
H1603 C1615 0.929 . S
H1604 C1618 0.930 . S
H1605 C1620 0.960 . S
H1606 C1620 0.960 . S
H1607 C1620 0.960 . S
C1608 H1600 0.929 . S
C1608 C1609 1.377 . S
C1608 C1610 1.384 . S
C1609 C1608 1.377 . S
C1609 C1615 1.390 . S
C1610 H1601 0.930 . S
C1610 C1608 1.384 . S
C1610 C1611 1.372 . S
C1611 C1610 1.372 . S
C1611 C1612 1.400 . S
C1611 C1616 1.490 . S
C1612 H1602 0.930 . S
C1612 C1611 1.400 . S
C1612 C1615 1.386 . S
H1613 C1629 0.930 . S
H1614 C1630 0.931 . S
C1615 H1603 0.929 . S
C1615 C1609 1.390 . S
C1615 C1612 1.386 . S
C1616 C1611 1.490 . S
C1616 C1618 1.395 . S
C1616 C1619 1.403 . S
H1617 C1623 0.930 . S
C1618 H1604 0.930 . S
C1618 C1616 1.395 . S
C1618 C1621 1.403 . S
C1619 C1616 1.403 . S
C1619 C1620 1.524 . S
C1619 C1623 1.400 . S
C1620 H1605 0.960 . S
C1620 H1606 0.960 . S
C1620 H1607 0.960 . S
C1620 C1619 1.524 . S
C1621 C1618 1.403 . S
C1621 C1622 1.392 . S
C1621 C1625 1.495 . S
C1622 C1621 1.392 . S
C1622 C1623 1.385 . S
C1622 C1624 1.478 . S
C1623 H1617 0.930 . S
C1623 C1619 1.400 . S
C1623 C1622 1.385 . S
C1624 C1622 1.478 . S
C1624 C1626 1.381 . S
C1624 C1630 1.383 . S
C1625 C1621 1.495 . S
C1625 H1631 0.959 . S
C1625 H1632 0.961 . S
C1625 H1633 0.960 . S
C1626 C1624 1.381 . S
C1626 C1627 1.394 . S
C1626 H1634 0.930 . S
C1627 C1626 1.394 . S
C1627 C1628 1.383 . S
C1627 H1635 0.929 . S
C1628 C1627 1.383 . S
C1628 C1629 1.377 . S
C1629 H1613 0.930 . S
C1629 C1628 1.377 . S
C1629 C1630 1.379 . S
C1630 H1614 0.931 . S
C1630 C1624 1.383 . S
C1630 C1629 1.379 . S
H1631 C1625 0.959 . S
H1632 C1625 0.961 . S
H1633 C1625 0.960 . S
H1634 C1626 0.930 . S
H1635 C1627 0.929 . S
H1636 C1644 0.929 . S
H1637 C1646 0.930 . S
H1638 C1648 0.930 . S
H1639 C1651 0.929 . S
H1640 C1654 0.930 . S
H1641 C1656 0.960 . S
H1642 C1656 0.960 . S
H1643 C1656 0.960 . S
C1644 H1636 0.929 . S
C1644 C1645 1.377 . S
C1644 C1646 1.384 . S
C1645 C1644 1.377 . S
C1645 C1651 1.390 . S
C1646 H1637 0.930 . S
C1646 C1644 1.384 . S
C1646 C1647 1.372 . S
C1647 C1646 1.372 . S
C1647 C1648 1.400 . S
C1647 C1652 1.490 . S
C1648 H1638 0.930 . S
C1648 C1647 1.400 . S
C1648 C1651 1.386 . S
H1649 C1665 0.930 . S
H1650 C1666 0.931 . S
C1651 H1639 0.929 . S
C1651 C1645 1.390 . S
C1651 C1648 1.386 . S
C1652 C1647 1.490 . S
C1652 C1654 1.395 . S
C1652 C1655 1.403 . S
H1653 C1659 0.930 . S
C1654 H1640 0.930 . S
C1654 C1652 1.395 . S
C1654 C1657 1.403 . S
C1655 C1652 1.403 . S
C1655 C1656 1.524 . S
C1655 C1659 1.400 . S
C1656 H1641 0.960 . S
C1656 H1642 0.960 . S
C1656 H1643 0.960 . S
C1656 C1655 1.524 . S
C1657 C1654 1.403 . S
C1657 C1658 1.392 . S
C1657 C1661 1.495 . S
C1658 C1657 1.392 . S
C1658 C1659 1.385 . S
C1658 C1660 1.478 . S
C1659 H1653 0.930 . S
C1659 C1655 1.400 . S
C1659 C1658 1.385 . S
C1660 C1658 1.478 . S
C1660 C1662 1.381 . S
C1660 C1666 1.383 . S
C1661 C1657 1.495 . S
C1661 H1667 0.959 . S
C1661 H1668 0.961 . S
C1661 H1669 0.960 . S
C1662 C1660 1.381 . S
C1662 C1663 1.394 . S
C1662 H1670 0.930 . S
C1663 C1662 1.394 . S
C1663 C1664 1.383 . S
C1663 H1671 0.929 . S
C1664 C1663 1.383 . S
C1664 C1665 1.377 . S
C1665 H1649 0.930 . S
C1665 C1664 1.377 . S
C1665 C1666 1.379 . S
C1666 H1650 0.931 . S
C1666 C1660 1.383 . S
C1666 C1665 1.379 . S
H1667 C1661 0.959 . S
H1668 C1661 0.961 . S
H1669 C1661 0.960 . S
H1670 C1662 0.930 . S
H1671 C1663 0.929 . S
H1672 C1680 0.929 . S
H1673 C1682 0.930 . S
H1674 C1684 0.930 . S
H1675 C1687 0.929 . S
H1676 C1690 0.930 . S
H1677 C1692 0.960 . S
H1678 C1692 0.960 . S
H1679 C1692 0.960 . S
C1680 H1672 0.929 . S
C1680 C1681 1.377 . S
C1680 C1682 1.384 . S
C1681 C1680 1.377 . S
C1681 C1687 1.390 . S
C1682 H1673 0.930 . S
C1682 C1680 1.384 . S
C1682 C1683 1.372 . S
C1683 C1682 1.372 . S
C1683 C1684 1.400 . S
C1683 C1688 1.490 . S
C1684 H1674 0.930 . S
C1684 C1683 1.400 . S
C1684 C1687 1.386 . S
H1685 C1701 0.930 . S
H1686 C1702 0.931 . S
C1687 H1675 0.929 . S
C1687 C1681 1.390 . S
C1687 C1684 1.386 . S
C1688 C1683 1.490 . S
C1688 C1690 1.395 . S
C1688 C1691 1.403 . S
H1689 C1695 0.930 . S
C1690 H1676 0.930 . S
C1690 C1688 1.395 . S
C1690 C1693 1.403 . S
C1691 C1688 1.403 . S
C1691 C1692 1.524 . S
C1691 C1695 1.400 . S
C1692 H1677 0.960 . S
C1692 H1678 0.960 . S
C1692 H1679 0.960 . S
C1692 C1691 1.524 . S
C1693 C1690 1.403 . S
C1693 C1694 1.392 . S
C1693 C1697 1.495 . S
C1694 C1693 1.392 . S
C1694 C1695 1.385 . S
C1694 C1696 1.478 . S
C1695 H1689 0.930 . S
C1695 C1691 1.400 . S
C1695 C1694 1.385 . S
C1696 C1694 1.478 . S
C1696 C1698 1.381 . S
C1696 C1702 1.383 . S
C1697 C1693 1.495 . S
C1697 H1703 0.959 . S
C1697 H1704 0.961 . S
C1697 H1705 0.960 . S
C1698 C1696 1.381 . S
C1698 C1699 1.394 . S
C1698 H1706 0.930 . S
C1699 C1698 1.394 . S
C1699 C1700 1.383 . S
C1699 H1707 0.929 . S
C1700 C1699 1.383 . S
C1700 C1701 1.377 . S
C1701 H1685 0.930 . S
C1701 C1700 1.377 . S
C1701 C1702 1.379 . S
C1702 H1686 0.931 . S
C1702 C1696 1.383 . S
C1702 C1701 1.379 . S
H1703 C1697 0.959 . S
H1704 C1697 0.961 . S
H1705 C1697 0.960 . S
H1706 C1698 0.930 . S
H1707 C1699 0.929 . S
H1708 C1716 0.929 . S
H1709 C1718 0.930 . S
H1710 C1720 0.930 . S
H1711 C1723 0.929 . S
H1712 C1726 0.930 . S
H1713 C1728 0.960 . S
H1714 C1728 0.960 . S
H1715 C1728 0.960 . S
C1716 H1708 0.929 . S
C1716 C1717 1.377 . S
C1716 C1718 1.384 . S
C1717 C1716 1.377 . S
C1717 C1723 1.390 . S
C1718 H1709 0.930 . S
C1718 C1716 1.384 . S
C1718 C1719 1.372 . S
C1719 C1718 1.372 . S
C1719 C1720 1.400 . S
C1719 C1724 1.490 . S
C1720 H1710 0.930 . S
C1720 C1719 1.400 . S
C1720 C1723 1.386 . S
H1721 C1737 0.930 . S
H1722 C1738 0.931 . S
C1723 H1711 0.929 . S
C1723 C1717 1.390 . S
C1723 C1720 1.386 . S
C1724 C1719 1.490 . S
C1724 C1726 1.395 . S
C1724 C1727 1.403 . S
H1725 C1731 0.930 . S
C1726 H1712 0.930 . S
C1726 C1724 1.395 . S
C1726 C1729 1.403 . S
C1727 C1724 1.403 . S
C1727 C1728 1.524 . S
C1727 C1731 1.400 . S
C1728 H1713 0.960 . S
C1728 H1714 0.960 . S
C1728 H1715 0.960 . S
C1728 C1727 1.524 . S
C1729 C1726 1.403 . S
C1729 C1730 1.392 . S
C1729 C1733 1.495 . S
C1730 C1729 1.392 . S
C1730 C1731 1.385 . S
C1730 C1732 1.478 . S
C1731 H1725 0.930 . S
C1731 C1727 1.400 . S
C1731 C1730 1.385 . S
C1732 C1730 1.478 . S
C1732 C1734 1.381 . S
C1732 C1738 1.383 . S
C1733 C1729 1.495 . S
C1733 H1739 0.959 . S
C1733 H1740 0.961 . S
C1733 H1741 0.960 . S
C1734 C1732 1.381 . S
C1734 C1735 1.394 . S
C1734 H1742 0.930 . S
C1735 C1734 1.394 . S
C1735 C1736 1.383 . S
C1735 H1743 0.929 . S
C1736 C1735 1.383 . S
C1736 C1737 1.377 . S
C1737 H1721 0.930 . S
C1737 C1736 1.377 . S
C1737 C1738 1.379 . S
C1738 H1722 0.931 . S
C1738 C1732 1.383 . S
C1738 C1737 1.379 . S
H1739 C1733 0.959 . S
H1740 C1733 0.961 . S
H1741 C1733 0.960 . S
H1742 C1734 0.930 . S
H1743 C1735 0.929 . S
H1744 C1752 0.929 . S
H1745 C1754 0.930 . S
H1746 C1756 0.930 . S
H1747 C1759 0.929 . S
H1748 C1762 0.930 . S
H1749 C1764 0.960 . S
H1750 C1764 0.960 . S
H1751 C1764 0.960 . S
C1752 H1744 0.929 . S
C1752 C1753 1.377 . S
C1752 C1754 1.384 . S
C1753 C1752 1.377 . S
C1753 C1759 1.390 . S
C1754 H1745 0.930 . S
C1754 C1752 1.384 . S
C1754 C1755 1.372 . S
C1755 C1754 1.372 . S
C1755 C1756 1.400 . S
C1755 C1760 1.490 . S
C1756 H1746 0.930 . S
C1756 C1755 1.400 . S
C1756 C1759 1.386 . S
H1757 C1773 0.930 . S
H1758 C1774 0.931 . S
C1759 H1747 0.929 . S
C1759 C1753 1.390 . S
C1759 C1756 1.386 . S
C1760 C1755 1.490 . S
C1760 C1762 1.395 . S
C1760 C1763 1.403 . S
H1761 C1767 0.930 . S
C1762 H1748 0.930 . S
C1762 C1760 1.395 . S
C1762 C1765 1.403 . S
C1763 C1760 1.403 . S
C1763 C1764 1.524 . S
C1763 C1767 1.400 . S
C1764 H1749 0.960 . S
C1764 H1750 0.960 . S
C1764 H1751 0.960 . S
C1764 C1763 1.524 . S
C1765 C1762 1.403 . S
C1765 C1766 1.392 . S
C1765 C1769 1.495 . S
C1766 C1765 1.392 . S
C1766 C1767 1.385 . S
C1766 C1768 1.478 . S
C1767 H1761 0.930 . S
C1767 C1763 1.400 . S
C1767 C1766 1.385 . S
C1768 C1766 1.478 . S
C1768 C1770 1.381 . S
C1768 C1774 1.383 . S
C1769 C1765 1.495 . S
C1769 H1775 0.959 . S
C1769 H1776 0.961 . S
C1769 H1777 0.960 . S
C1770 C1768 1.381 . S
C1770 C1771 1.394 . S
C1770 H1778 0.930 . S
C1771 C1770 1.394 . S
C1771 C1772 1.383 . S
C1771 H1779 0.929 . S
C1772 C1771 1.383 . S
C1772 C1773 1.377 . S
C1773 H1757 0.930 . S
C1773 C1772 1.377 . S
C1773 C1774 1.379 . S
C1774 H1758 0.931 . S
C1774 C1768 1.383 . S
C1774 C1773 1.379 . S
H1775 C1769 0.959 . S
H1776 C1769 0.961 . S
H1777 C1769 0.960 . S
H1778 C1770 0.930 . S
H1779 C1771 0.929 . S
H1780 C1788 0.929 . S
H1781 C1790 0.930 . S
H1782 C1792 0.930 . S
H1783 C1795 0.929 . S
H1784 C1798 0.930 . S
H1785 C1800 0.960 . S
H1786 C1800 0.960 . S
H1787 C1800 0.960 . S
C1788 H1780 0.929 . S
C1788 C1789 1.377 . S
C1788 C1790 1.384 . S
C1789 C1788 1.377 . S
C1789 C1795 1.390 . S
C1790 H1781 0.930 . S
C1790 C1788 1.384 . S
C1790 C1791 1.372 . S
C1791 C1790 1.372 . S
C1791 C1792 1.400 . S
C1791 C1796 1.490 . S
C1792 H1782 0.930 . S
C1792 C1791 1.400 . S
C1792 C1795 1.386 . S
H1793 C1809 0.930 . S
H1794 C1810 0.931 . S
C1795 H1783 0.929 . S
C1795 C1789 1.390 . S
C1795 C1792 1.386 . S
C1796 C1791 1.490 . S
C1796 C1798 1.395 . S
C1796 C1799 1.403 . S
H1797 C1803 0.930 . S
C1798 H1784 0.930 . S
C1798 C1796 1.395 . S
C1798 C1801 1.403 . S
C1799 C1796 1.403 . S
C1799 C1800 1.524 . S
C1799 C1803 1.400 . S
C1800 H1785 0.960 . S
C1800 H1786 0.960 . S
C1800 H1787 0.960 . S
C1800 C1799 1.524 . S
C1801 C1798 1.403 . S
C1801 C1802 1.392 . S
C1801 C1805 1.495 . S
C1802 C1801 1.392 . S
C1802 C1803 1.385 . S
C1802 C1804 1.478 . S
C1803 H1797 0.930 . S
C1803 C1799 1.400 . S
C1803 C1802 1.385 . S
C1804 C1802 1.478 . S
C1804 C1806 1.381 . S
C1804 C1810 1.383 . S
C1805 C1801 1.495 . S
C1805 H1811 0.959 . S
C1805 H1812 0.961 . S
C1805 H1813 0.960 . S
C1806 C1804 1.381 . S
C1806 C1807 1.394 . S
C1806 H1814 0.930 . S
C1807 C1806 1.394 . S
C1807 C1808 1.383 . S
C1807 H1815 0.929 . S
C1808 C1807 1.383 . S
C1808 C1809 1.377 . S
C1809 H1793 0.930 . S
C1809 C1808 1.377 . S
C1809 C1810 1.379 . S
C1810 H1794 0.931 . S
C1810 C1804 1.383 . S
C1810 C1809 1.379 . S
H1811 C1805 0.959 . S
H1812 C1805 0.961 . S
H1813 C1805 0.960 . S
H1814 C1806 0.930 . S
H1815 C1807 0.929 . S
H1816 C1824 0.929 . S
H1817 C1826 0.930 . S
H1818 C1828 0.930 . S
H1819 C1831 0.929 . S
H1820 C1834 0.930 . S
H1821 C1836 0.960 . S
H1822 C1836 0.960 . S
H1823 C1836 0.960 . S
C1824 H1816 0.929 . S
C1824 C1825 1.377 . S
C1824 C1826 1.384 . S
C1825 C1824 1.377 . S
C1825 C1831 1.390 . S
C1826 H1817 0.930 . S
C1826 C1824 1.384 . S
C1826 C1827 1.372 . S
C1827 C1826 1.372 . S
C1827 C1828 1.400 . S
C1827 C1832 1.490 . S
C1828 H1818 0.930 . S
C1828 C1827 1.400 . S
C1828 C1831 1.386 . S
H1829 C1845 0.930 . S
H1830 C1846 0.931 . S
C1831 H1819 0.929 . S
C1831 C1825 1.390 . S
C1831 C1828 1.386 . S
C1832 C1827 1.490 . S
C1832 C1834 1.395 . S
C1832 C1835 1.403 . S
H1833 C1839 0.930 . S
C1834 H1820 0.930 . S
C1834 C1832 1.395 . S
C1834 C1837 1.403 . S
C1835 C1832 1.403 . S
C1835 C1836 1.524 . S
C1835 C1839 1.400 . S
C1836 H1821 0.960 . S
C1836 H1822 0.960 . S
C1836 H1823 0.960 . S
C1836 C1835 1.524 . S
C1837 C1834 1.403 . S
C1837 C1838 1.392 . S
C1837 C1841 1.495 . S
C1838 C1837 1.392 . S
C1838 C1839 1.385 . S
C1838 C1840 1.478 . S
C1839 H1833 0.930 . S
C1839 C1835 1.400 . S
C1839 C1838 1.385 . S
C1840 C1838 1.478 . S
C1840 C1842 1.381 . S
C1840 C1846 1.383 . S
C1841 C1837 1.495 . S
C1841 H1847 0.959 . S
C1841 H1848 0.961 . S
C1841 H1849 0.960 . S
C1842 C1840 1.381 . S
C1842 C1843 1.394 . S
C1842 H1850 0.930 . S
C1843 C1842 1.394 . S
C1843 C1844 1.383 . S
C1843 H1851 0.929 . S
C1844 C1843 1.383 . S
C1844 C1845 1.377 . S
C1845 H1829 0.930 . S
C1845 C1844 1.377 . S
C1845 C1846 1.379 . S
C1846 H1830 0.931 . S
C1846 C1840 1.383 . S
C1846 C1845 1.379 . S
H1847 C1841 0.959 . S
H1848 C1841 0.961 . S
H1849 C1841 0.960 . S
H1850 C1842 0.930 . S
H1851 C1843 0.929 . S
H1852 C1860 0.929 . S
H1853 C1862 0.930 . S
H1854 C1864 0.930 . S
H1855 C1867 0.929 . S
H1856 C1870 0.930 . S
H1857 C1872 0.960 . S
H1858 C1872 0.960 . S
H1859 C1872 0.960 . S
C1860 H1852 0.929 . S
C1860 C1861 1.377 . S
C1860 C1862 1.384 . S
C1861 C1860 1.377 . S
C1861 C1867 1.390 . S
C1862 H1853 0.930 . S
C1862 C1860 1.384 . S
C1862 C1863 1.372 . S
C1863 C1862 1.372 . S
C1863 C1864 1.400 . S
C1863 C1868 1.490 . S
C1864 H1854 0.930 . S
C1864 C1863 1.400 . S
C1864 C1867 1.386 . S
H1865 C1881 0.930 . S
H1866 C1882 0.931 . S
C1867 H1855 0.929 . S
C1867 C1861 1.390 . S
C1867 C1864 1.386 . S
C1868 C1863 1.490 . S
C1868 C1870 1.395 . S
C1868 C1871 1.403 . S
H1869 C1875 0.930 . S
C1870 H1856 0.930 . S
C1870 C1868 1.395 . S
C1870 C1873 1.403 . S
C1871 C1868 1.403 . S
C1871 C1872 1.524 . S
C1871 C1875 1.400 . S
C1872 H1857 0.960 . S
C1872 H1858 0.960 . S
C1872 H1859 0.960 . S
C1872 C1871 1.524 . S
C1873 C1870 1.403 . S
C1873 C1874 1.392 . S
C1873 C1877 1.495 . S
C1874 C1873 1.392 . S
C1874 C1875 1.385 . S
C1874 C1876 1.478 . S
C1875 H1869 0.930 . S
C1875 C1871 1.400 . S
C1875 C1874 1.385 . S
C1876 C1874 1.478 . S
C1876 C1878 1.381 . S
C1876 C1882 1.383 . S
C1877 C1873 1.495 . S
C1877 H1883 0.959 . S
C1877 H1884 0.961 . S
C1877 H1885 0.960 . S
C1878 C1876 1.381 . S
C1878 C1879 1.394 . S
C1878 H1886 0.930 . S
C1879 C1878 1.394 . S
C1879 C1880 1.383 . S
C1879 H1887 0.929 . S
C1880 C1879 1.383 . S
C1880 C1881 1.377 . S
C1881 H1865 0.930 . S
C1881 C1880 1.377 . S
C1881 C1882 1.379 . S
C1882 H1866 0.931 . S
C1882 C1876 1.383 . S
C1882 C1881 1.379 . S
H1883 C1877 0.959 . S
H1884 C1877 0.961 . S
H1885 C1877 0.960 . S
H1886 C1878 0.930 . S
H1887 C1879 0.929 . S
H1888 C1896 0.929 . S
H1889 C1898 0.930 . S
H1890 C1900 0.930 . S
H1891 C1903 0.929 . S
H1892 C1906 0.930 . S
H1893 C1908 0.960 . S
H1894 C1908 0.960 . S
H1895 C1908 0.960 . S
C1896 H1888 0.929 . S
C1896 C1897 1.377 . S
C1896 C1898 1.384 . S
C1897 C1896 1.377 . S
C1897 C1903 1.390 . S
C1898 H1889 0.930 . S
C1898 C1896 1.384 . S
C1898 C1899 1.372 . S
C1899 C1898 1.372 . S
C1899 C1900 1.400 . S
C1899 C1904 1.490 . S
C1900 H1890 0.930 . S
C1900 C1899 1.400 . S
C1900 C1903 1.386 . S
H1901 C1917 0.930 . S
H1902 C1918 0.931 . S
C1903 H1891 0.929 . S
C1903 C1897 1.390 . S
C1903 C1900 1.386 . S
C1904 C1899 1.490 . S
C1904 C1906 1.395 . S
C1904 C1907 1.403 . S
H1905 C1911 0.930 . S
C1906 H1892 0.930 . S
C1906 C1904 1.395 . S
C1906 C1909 1.403 . S
C1907 C1904 1.403 . S
C1907 C1908 1.524 . S
C1907 C1911 1.400 . S
C1908 H1893 0.960 . S
C1908 H1894 0.960 . S
C1908 H1895 0.960 . S
C1908 C1907 1.524 . S
C1909 C1906 1.403 . S
C1909 C1910 1.392 . S
C1909 C1913 1.495 . S
C1910 C1909 1.392 . S
C1910 C1911 1.385 . S
C1910 C1912 1.478 . S
C1911 H1905 0.930 . S
C1911 C1907 1.400 . S
C1911 C1910 1.385 . S
C1912 C1910 1.478 . S
C1912 C1914 1.381 . S
C1912 C1918 1.383 . S
C1913 C1909 1.495 . S
C1913 H1919 0.959 . S
C1913 H1920 0.961 . S
C1913 H1921 0.960 . S
C1914 C1912 1.381 . S
C1914 C1915 1.394 . S
C1914 H1922 0.930 . S
C1915 C1914 1.394 . S
C1915 C1916 1.383 . S
C1915 H1923 0.929 . S
C1916 C1915 1.383 . S
C1916 C1917 1.377 . S
C1917 H1901 0.930 . S
C1917 C1916 1.377 . S
C1917 C1918 1.379 . S
C1918 H1902 0.931 . S
C1918 C1912 1.383 . S
C1918 C1917 1.379 . S
H1919 C1913 0.959 . S
H1920 C1913 0.961 . S
H1921 C1913 0.960 . S
H1922 C1914 0.930 . S
H1923 C1915 0.929 . S
H1924 C1932 0.929 . S
H1925 C1934 0.930 . S
H1926 C1936 0.930 . S
H1927 C1939 0.929 . S
H1928 C1942 0.930 . S
H1929 C1944 0.960 . S
H1930 C1944 0.960 . S
H1931 C1944 0.960 . S
C1932 H1924 0.929 . S
C1932 C1933 1.377 . S
C1932 C1934 1.384 . S
C1933 C1932 1.377 . S
C1933 C1939 1.390 . S
C1934 H1925 0.930 . S
C1934 C1932 1.384 . S
C1934 C1935 1.372 . S
C1935 C1934 1.372 . S
C1935 C1936 1.400 . S
C1935 C1940 1.490 . S
C1936 H1926 0.930 . S
C1936 C1935 1.400 . S
C1936 C1939 1.386 . S
H1937 C1953 0.930 . S
H1938 C1954 0.931 . S
C1939 H1927 0.929 . S
C1939 C1933 1.390 . S
C1939 C1936 1.386 . S
C1940 C1935 1.490 . S
C1940 C1942 1.395 . S
C1940 C1943 1.403 . S
H1941 C1947 0.930 . S
C1942 H1928 0.930 . S
C1942 C1940 1.395 . S
C1942 C1945 1.403 . S
C1943 C1940 1.403 . S
C1943 C1944 1.524 . S
C1943 C1947 1.400 . S
C1944 H1929 0.960 . S
C1944 H1930 0.960 . S
C1944 H1931 0.960 . S
C1944 C1943 1.524 . S
C1945 C1942 1.403 . S
C1945 C1946 1.392 . S
C1945 C1949 1.495 . S
C1946 C1945 1.392 . S
C1946 C1947 1.385 . S
C1946 C1948 1.478 . S
C1947 H1941 0.930 . S
C1947 C1943 1.400 . S
C1947 C1946 1.385 . S
C1948 C1946 1.478 . S
C1948 C1950 1.381 . S
C1948 C1954 1.383 . S
C1949 C1945 1.495 . S
C1949 H1955 0.959 . S
C1949 H1956 0.961 . S
C1949 H1957 0.960 . S
C1950 C1948 1.381 . S
C1950 C1951 1.394 . S
C1950 H1958 0.930 . S
C1951 C1950 1.394 . S
C1951 C1952 1.383 . S
C1951 H1959 0.929 . S
C1952 C1951 1.383 . S
C1952 C1953 1.377 . S
C1953 H1937 0.930 . S
C1953 C1952 1.377 . S
C1953 C1954 1.379 . S
C1954 H1938 0.931 . S
C1954 C1948 1.383 . S
C1954 C1953 1.379 . S
H1955 C1949 0.959 . S
H1956 C1949 0.961 . S
H1957 C1949 0.960 . S
H1958 C1950 0.930 . S
H1959 C1951 0.929 . S
H1960 C1968 0.929 . S
H1961 C1970 0.930 . S
H1962 C1972 0.930 . S
H1963 C1975 0.929 . S
H1964 C1978 0.930 . S
H1965 C1980 0.960 . S
H1966 C1980 0.960 . S
H1967 C1980 0.960 . S
C1968 H1960 0.929 . S
C1968 C1969 1.377 . S
C1968 C1970 1.384 . S
C1969 C1968 1.377 . S
C1969 C1975 1.390 . S
C1970 H1961 0.930 . S
C1970 C1968 1.384 . S
C1970 C1971 1.372 . S
C1971 C1970 1.372 . S
C1971 C1972 1.400 . S
C1971 C1976 1.490 . S
C1972 H1962 0.930 . S
C1972 C1971 1.400 . S
C1972 C1975 1.386 . S
H1973 C1989 0.930 . S
H1974 C1990 0.931 . S
C1975 H1963 0.929 . S
C1975 C1969 1.390 . S
C1975 C1972 1.386 . S
C1976 C1971 1.490 . S
C1976 C1978 1.395 . S
C1976 C1979 1.403 . S
H1977 C1983 0.930 . S
C1978 H1964 0.930 . S
C1978 C1976 1.395 . S
C1978 C1981 1.403 . S
C1979 C1976 1.403 . S
C1979 C1980 1.524 . S
C1979 C1983 1.400 . S
C1980 H1965 0.960 . S
C1980 H1966 0.960 . S
C1980 H1967 0.960 . S
C1980 C1979 1.524 . S
C1981 C1978 1.403 . S
C1981 C1982 1.392 . S
C1981 C1985 1.495 . S
C1982 C1981 1.392 . S
C1982 C1983 1.385 . S
C1982 C1984 1.478 . S
C1983 H1977 0.930 . S
C1983 C1979 1.400 . S
C1983 C1982 1.385 . S
C1984 C1982 1.478 . S
C1984 C1986 1.381 . S
C1984 C1990 1.383 . S
C1985 C1981 1.495 . S
C1985 H1991 0.959 . S
C1985 H1992 0.961 . S
C1985 H1993 0.960 . S
C1986 C1984 1.381 . S
C1986 C1987 1.394 . S
C1986 H1994 0.930 . S
C1987 C1986 1.394 . S
C1987 C1988 1.383 . S
C1987 H1995 0.929 . S
C1988 C1987 1.383 . S
C1988 C1989 1.377 . S
C1989 H1973 0.930 . S
C1989 C1988 1.377 . S
C1989 C1990 1.379 . S
C1990 H1974 0.931 . S
C1990 C1984 1.383 . S
C1990 C1989 1.379 . S
H1991 C1985 0.959 . S
H1992 C1985 0.961 . S
H1993 C1985 0.960 . S
H1994 C1986 0.930 . S
H1995 C1987 0.929 . S
H1996 C2004 0.929 . S
H1997 C2006 0.930 . S
H1998 C2008 0.930 . S
H1999 C2011 0.929 . S
H2000 C2014 0.930 . S
H2001 C2016 0.960 . S
H2002 C2016 0.960 . S
H2003 C2016 0.960 . S
C2004 H1996 0.929 . S
C2004 C2005 1.377 . S
C2004 C2006 1.384 . S
C2005 C2004 1.377 . S
C2005 C2011 1.390 . S
C2006 H1997 0.930 . S
C2006 C2004 1.384 . S
C2006 C2007 1.372 . S
C2007 C2006 1.372 . S
C2007 C2008 1.400 . S
C2007 C2012 1.490 . S
C2008 H1998 0.930 . S
C2008 C2007 1.400 . S
C2008 C2011 1.386 . S
H2009 C2025 0.930 . S
H2010 C2026 0.931 . S
C2011 H1999 0.929 . S
C2011 C2005 1.390 . S
C2011 C2008 1.386 . S
C2012 C2007 1.490 . S
C2012 C2014 1.395 . S
C2012 C2015 1.403 . S
H2013 C2019 0.930 . S
C2014 H2000 0.930 . S
C2014 C2012 1.395 . S
C2014 C2017 1.403 . S
C2015 C2012 1.403 . S
C2015 C2016 1.524 . S
C2015 C2019 1.400 . S
C2016 H2001 0.960 . S
C2016 H2002 0.960 . S
C2016 H2003 0.960 . S
C2016 C2015 1.524 . S
C2017 C2014 1.403 . S
C2017 C2018 1.392 . S
C2017 C2021 1.495 . S
C2018 C2017 1.392 . S
C2018 C2019 1.385 . S
C2018 C2020 1.478 . S
C2019 H2013 0.930 . S
C2019 C2015 1.400 . S
C2019 C2018 1.385 . S
C2020 C2018 1.478 . S
C2020 C2022 1.381 . S
C2020 C2026 1.383 . S
C2021 C2017 1.495 . S
C2021 H2027 0.959 . S
C2021 H2028 0.961 . S
C2021 H2029 0.960 . S
C2022 C2020 1.381 . S
C2022 C2023 1.394 . S
C2022 H2030 0.930 . S
C2023 C2022 1.394 . S
C2023 C2024 1.383 . S
C2023 H2031 0.929 . S
C2024 C2023 1.383 . S
C2024 C2025 1.377 . S
C2025 H2009 0.930 . S
C2025 C2024 1.377 . S
C2025 C2026 1.379 . S
C2026 H2010 0.931 . S
C2026 C2020 1.383 . S
C2026 C2025 1.379 . S
H2027 C2021 0.959 . S
H2028 C2021 0.961 . S
H2029 C2021 0.960 . S
H2030 C2022 0.930 . S
H2031 C2023 0.929 . S
H2032 C2040 0.929 . S
H2033 C2042 0.930 . S
H2034 C2044 0.930 . S
H2035 C2047 0.929 . S
H2036 C2050 0.930 . S
H2037 C2052 0.960 . S
H2038 C2052 0.960 . S
H2039 C2052 0.960 . S
C2040 H2032 0.929 . S
C2040 C2041 1.377 . S
C2040 C2042 1.384 . S
C2041 C2040 1.377 . S
C2041 C2047 1.390 . S
C2042 H2033 0.930 . S
C2042 C2040 1.384 . S
C2042 C2043 1.372 . S
C2043 C2042 1.372 . S
C2043 C2044 1.400 . S
C2043 C2048 1.490 . S
C2044 H2034 0.930 . S
C2044 C2043 1.400 . S
C2044 C2047 1.386 . S
H2045 C2061 0.930 . S
H2046 C2062 0.931 . S
C2047 H2035 0.929 . S
C2047 C2041 1.390 . S
C2047 C2044 1.386 . S
C2048 C2043 1.490 . S
C2048 C2050 1.395 . S
C2048 C2051 1.403 . S
H2049 C2055 0.930 . S
C2050 H2036 0.930 . S
C2050 C2048 1.395 . S
C2050 C2053 1.403 . S
C2051 C2048 1.403 . S
C2051 C2052 1.524 . S
C2051 C2055 1.400 . S
C2052 H2037 0.960 . S
C2052 H2038 0.960 . S
C2052 H2039 0.960 . S
C2052 C2051 1.524 . S
C2053 C2050 1.403 . S
C2053 C2054 1.392 . S
C2053 C2057 1.495 . S
C2054 C2053 1.392 . S
C2054 C2055 1.385 . S
C2054 C2056 1.478 . S
C2055 H2049 0.930 . S
C2055 C2051 1.400 . S
C2055 C2054 1.385 . S
C2056 C2054 1.478 . S
C2056 C2058 1.381 . S
C2056 C2062 1.383 . S
C2057 C2053 1.495 . S
C2057 H2063 0.959 . S
C2057 H2064 0.961 . S
C2057 H2065 0.960 . S
C2058 C2056 1.381 . S
C2058 C2059 1.394 . S
C2058 H2066 0.930 . S
C2059 C2058 1.394 . S
C2059 C2060 1.383 . S
C2059 H2067 0.929 . S
C2060 C2059 1.383 . S
C2060 C2061 1.377 . S
C2061 H2045 0.930 . S
C2061 C2060 1.377 . S
C2061 C2062 1.379 . S
C2062 H2046 0.931 . S
C2062 C2056 1.383 . S
C2062 C2061 1.379 . S
H2063 C2057 0.959 . S
H2064 C2057 0.961 . S
H2065 C2057 0.960 . S
H2066 C2058 0.930 . S
H2067 C2059 0.929 . S
H2068 C2076 0.929 . S
H2069 C2078 0.930 . S
H2070 C2080 0.930 . S
H2071 C2083 0.929 . S
H2072 C2086 0.930 . S
H2073 C2088 0.960 . S
H2074 C2088 0.960 . S
H2075 C2088 0.960 . S
C2076 H2068 0.929 . S
C2076 C2077 1.377 . S
C2076 C2078 1.384 . S
C2077 C2076 1.377 . S
C2077 C2083 1.390 . S
C2078 H2069 0.930 . S
C2078 C2076 1.384 . S
C2078 C2079 1.372 . S
C2079 C2078 1.372 . S
C2079 C2080 1.400 . S
C2079 C2084 1.490 . S
C2080 H2070 0.930 . S
C2080 C2079 1.400 . S
C2080 C2083 1.386 . S
H2081 C2097 0.930 . S
H2082 C2098 0.931 . S
C2083 H2071 0.929 . S
C2083 C2077 1.390 . S
C2083 C2080 1.386 . S
C2084 C2079 1.490 . S
C2084 C2086 1.395 . S
C2084 C2087 1.403 . S
H2085 C2091 0.930 . S
C2086 H2072 0.930 . S
C2086 C2084 1.395 . S
C2086 C2089 1.403 . S
C2087 C2084 1.403 . S
C2087 C2088 1.524 . S
C2087 C2091 1.400 . S
C2088 H2073 0.960 . S
C2088 H2074 0.960 . S
C2088 H2075 0.960 . S
C2088 C2087 1.524 . S
C2089 C2086 1.403 . S
C2089 C2090 1.392 . S
C2089 C2093 1.495 . S
C2090 C2089 1.392 . S
C2090 C2091 1.385 . S
C2090 C2092 1.478 . S
C2091 H2085 0.930 . S
C2091 C2087 1.400 . S
C2091 C2090 1.385 . S
C2092 C2090 1.478 . S
C2092 C2094 1.381 . S
C2092 C2098 1.383 . S
C2093 C2089 1.495 . S
C2093 H2099 0.959 . S
C2093 H2100 0.961 . S
C2093 H2101 0.960 . S
C2094 C2092 1.381 . S
C2094 C2095 1.394 . S
C2094 H2102 0.930 . S
C2095 C2094 1.394 . S
C2095 C2096 1.383 . S
C2095 H2103 0.929 . S
C2096 C2095 1.383 . S
C2096 C2097 1.377 . S
C2097 H2081 0.930 . S
C2097 C2096 1.377 . S
C2097 C2098 1.379 . S
C2098 H2082 0.931 . S
C2098 C2092 1.383 . S
C2098 C2097 1.379 . S
H2099 C2093 0.959 . S
H2100 C2093 0.961 . S
H2101 C2093 0.960 . S
H2102 C2094 0.930 . S
H2103 C2095 0.929 . S
H2104 C2112 0.929 . S
H2105 C2114 0.930 . S
H2106 C2116 0.930 . S
H2107 C2119 0.929 . S
H2108 C2122 0.930 . S
H2109 C2124 0.960 . S
H2110 C2124 0.960 . S
H2111 C2124 0.960 . S
C2112 H2104 0.929 . S
C2112 C2113 1.377 . S
C2112 C2114 1.384 . S
C2113 C2112 1.377 . S
C2113 C2119 1.390 . S
C2114 H2105 0.930 . S
C2114 C2112 1.384 . S
C2114 C2115 1.372 . S
C2115 C2114 1.372 . S
C2115 C2116 1.400 . S
C2115 C2120 1.490 . S
C2116 H2106 0.930 . S
C2116 C2115 1.400 . S
C2116 C2119 1.386 . S
H2117 C2133 0.930 . S
H2118 C2134 0.931 . S
C2119 H2107 0.929 . S
C2119 C2113 1.390 . S
C2119 C2116 1.386 . S
C2120 C2115 1.490 . S
C2120 C2122 1.395 . S
C2120 C2123 1.403 . S
H2121 C2127 0.930 . S
C2122 H2108 0.930 . S
C2122 C2120 1.395 . S
C2122 C2125 1.403 . S
C2123 C2120 1.403 . S
C2123 C2124 1.524 . S
C2123 C2127 1.400 . S
C2124 H2109 0.960 . S
C2124 H2110 0.960 . S
C2124 H2111 0.960 . S
C2124 C2123 1.524 . S
C2125 C2122 1.403 . S
C2125 C2126 1.392 . S
C2125 C2129 1.495 . S
C2126 C2125 1.392 . S
C2126 C2127 1.385 . S
C2126 C2128 1.478 . S
C2127 H2121 0.930 . S
C2127 C2123 1.400 . S
C2127 C2126 1.385 . S
C2128 C2126 1.478 . S
C2128 C2130 1.381 . S
C2128 C2134 1.383 . S
C2129 C2125 1.495 . S
C2129 H2135 0.959 . S
C2129 H2136 0.961 . S
C2129 H2137 0.960 . S
C2130 C2128 1.381 . S
C2130 C2131 1.394 . S
C2130 H2138 0.930 . S
C2131 C2130 1.394 . S
C2131 C2132 1.383 . S
C2131 H2139 0.929 . S
C2132 C2131 1.383 . S
C2132 C2133 1.377 . S
C2133 H2117 0.930 . S
C2133 C2132 1.377 . S
C2133 C2134 1.379 . S
C2134 H2118 0.931 . S
C2134 C2128 1.383 . S
C2134 C2133 1.379 . S
H2135 C2129 0.959 . S
H2136 C2129 0.961 . S
H2137 C2129 0.960 . S
H2138 C2130 0.930 . S
H2139 C2131 0.929 . S
H2140 C2148 0.929 . S
H2141 C2150 0.930 . S
H2142 C2152 0.930 . S
H2143 C2155 0.929 . S
H2144 C2158 0.930 . S
H2145 C2160 0.960 . S
H2146 C2160 0.960 . S
H2147 C2160 0.960 . S
C2148 H2140 0.929 . S
C2148 C2149 1.377 . S
C2148 C2150 1.384 . S
C2149 C2148 1.377 . S
C2149 C2155 1.390 . S
C2150 H2141 0.930 . S
C2150 C2148 1.384 . S
C2150 C2151 1.372 . S
C2151 C2150 1.372 . S
C2151 C2152 1.400 . S
C2151 C2156 1.490 . S
C2152 H2142 0.930 . S
C2152 C2151 1.400 . S
C2152 C2155 1.386 . S
H2153 C2169 0.930 . S
H2154 C2170 0.931 . S
C2155 H2143 0.929 . S
C2155 C2149 1.390 . S
C2155 C2152 1.386 . S
C2156 C2151 1.490 . S
C2156 C2158 1.395 . S
C2156 C2159 1.403 . S
H2157 C2163 0.930 . S
C2158 H2144 0.930 . S
C2158 C2156 1.395 . S
C2158 C2161 1.403 . S
C2159 C2156 1.403 . S
C2159 C2160 1.524 . S
C2159 C2163 1.400 . S
C2160 H2145 0.960 . S
C2160 H2146 0.960 . S
C2160 H2147 0.960 . S
C2160 C2159 1.524 . S
C2161 C2158 1.403 . S
C2161 C2162 1.392 . S
C2161 C2165 1.495 . S
C2162 C2161 1.392 . S
C2162 C2163 1.385 . S
C2162 C2164 1.478 . S
C2163 H2157 0.930 . S
C2163 C2159 1.400 . S
C2163 C2162 1.385 . S
C2164 C2162 1.478 . S
C2164 C2166 1.381 . S
C2164 C2170 1.383 . S
C2165 C2161 1.495 . S
C2165 H2171 0.959 . S
C2165 H2172 0.961 . S
C2165 H2173 0.960 . S
C2166 C2164 1.381 . S
C2166 C2167 1.394 . S
C2166 H2174 0.930 . S
C2167 C2166 1.394 . S
C2167 C2168 1.383 . S
C2167 H2175 0.929 . S
C2168 C2167 1.383 . S
C2168 C2169 1.377 . S
C2169 H2153 0.930 . S
C2169 C2168 1.377 . S
C2169 C2170 1.379 . S
C2170 H2154 0.931 . S
C2170 C2164 1.383 . S
C2170 C2169 1.379 . S
H2171 C2165 0.959 . S
H2172 C2165 0.961 . S
H2173 C2165 0.960 . S
H2174 C2166 0.930 . S
H2175 C2167 0.929 . S
H2176 C2184 0.929 . S
H2177 C2186 0.930 . S
H2178 C2188 0.930 . S
H2179 C2191 0.929 . S
H2180 C2194 0.930 . S
H2181 C2196 0.960 . S
H2182 C2196 0.960 . S
H2183 C2196 0.960 . S
C2184 H2176 0.929 . S
C2184 C2185 1.377 . S
C2184 C2186 1.384 1_565 S
C2185 C2184 1.377 . S
C2185 C2191 1.390 . S
C2186 H2177 0.930 . S
C2186 C2184 1.384 1_545 S
C2186 C2187 1.372 . S
C2187 C2186 1.372 . S
C2187 C2188 1.400 . S
C2187 C2192 1.490 . S
C2188 H2178 0.930 . S
C2188 C2187 1.400 . S
C2188 C2191 1.386 1_545 S
H2189 C2205 0.930 . S
H2190 C2206 0.931 . S
C2191 H2179 0.929 . S
C2191 C2185 1.390 . S
C2191 C2188 1.386 1_565 S
C2192 C2187 1.490 . S
C2192 C2194 1.395 . S
C2192 C2195 1.403 . S
H2193 C2199 0.930 . S
C2194 H2180 0.930 . S
C2194 C2192 1.395 . S
C2194 C2197 1.403 . S
C2195 C2192 1.403 . S
C2195 C2196 1.524 . S
C2195 C2199 1.400 . S
C2196 H2181 0.960 . S
C2196 H2182 0.960 . S
C2196 H2183 0.960 . S
C2196 C2195 1.524 . S
C2197 C2194 1.403 . S
C2197 C2198 1.392 . S
C2197 C2201 1.495 . S
C2198 C2197 1.392 . S
C2198 C2199 1.385 . S
C2198 C2200 1.478 . S
C2199 H2193 0.930 . S
C2199 C2195 1.400 . S
C2199 C2198 1.385 . S
C2200 C2198 1.478 . S
C2200 C2202 1.381 . S
C2200 C2206 1.383 . S
C2201 C2197 1.495 . S
C2201 H2207 0.959 . S
C2201 H2208 0.961 . S
C2201 H2209 0.960 . S
C2202 C2200 1.381 . S
C2202 C2203 1.394 . S
C2202 H2210 0.930 . S
C2203 C2202 1.394 . S
C2203 C2204 1.383 . S
C2203 H2211 0.929 . S
C2204 C2203 1.383 . S
C2204 C2205 1.377 . S
C2205 H2189 0.930 . S
C2205 C2204 1.377 . S
C2205 C2206 1.379 . S
C2206 H2190 0.931 . S
C2206 C2200 1.383 . S
C2206 C2205 1.379 . S
H2207 C2201 0.959 . S
H2208 C2201 0.961 . S
H2209 C2201 0.960 . S
H2210 C2202 0.930 . S
H2211 C2203 0.929 . S
H2212 C2220 0.929 . S
H2213 C2222 0.930 . S
H2214 C2224 0.930 . S
H2215 C2227 0.929 . S
H2216 C2230 0.930 . S
H2217 C2232 0.960 . S
H2218 C2232 0.960 . S
H2219 C2232 0.960 . S
C2220 H2212 0.929 . S
C2220 C2221 1.377 . S
C2220 C2222 1.384 1_565 S
C2221 C2220 1.377 . S
C2221 C2227 1.390 . S
C2222 H2213 0.930 . S
C2222 C2220 1.384 1_545 S
C2222 C2223 1.372 . S
C2223 C2222 1.372 . S
C2223 C2224 1.400 . S
C2223 C2228 1.490 . S
C2224 H2214 0.930 . S
C2224 C2223 1.400 . S
C2224 C2227 1.386 1_545 S
H2225 C2241 0.930 . S
H2226 C2242 0.931 . S
C2227 H2215 0.929 . S
C2227 C2221 1.390 . S
C2227 C2224 1.386 1_565 S
C2228 C2223 1.490 . S
C2228 C2230 1.395 . S
C2228 C2231 1.403 . S
H2229 C2235 0.930 . S
C2230 H2216 0.930 . S
C2230 C2228 1.395 . S
C2230 C2233 1.403 . S
C2231 C2228 1.403 . S
C2231 C2232 1.524 . S
C2231 C2235 1.400 . S
C2232 H2217 0.960 . S
C2232 H2218 0.960 . S
C2232 H2219 0.960 . S
C2232 C2231 1.524 . S
C2233 C2230 1.403 . S
C2233 C2234 1.392 . S
C2233 C2237 1.495 . S
C2234 C2233 1.392 . S
C2234 C2235 1.385 . S
C2234 C2236 1.478 . S
C2235 H2229 0.930 . S
C2235 C2231 1.400 . S
C2235 C2234 1.385 . S
C2236 C2234 1.478 . S
C2236 C2238 1.381 . S
C2236 C2242 1.383 . S
C2237 C2233 1.495 . S
C2237 H2243 0.959 . S
C2237 H2244 0.961 . S
C2237 H2245 0.960 . S
C2238 C2236 1.381 . S
C2238 C2239 1.394 . S
C2238 H2246 0.930 . S
C2239 C2238 1.394 . S
C2239 C2240 1.383 . S
C2239 H2247 0.929 . S
C2240 C2239 1.383 . S
C2240 C2241 1.377 . S
C2241 H2225 0.930 . S
C2241 C2240 1.377 . S
C2241 C2242 1.379 . S
C2242 H2226 0.931 . S
C2242 C2236 1.383 . S
C2242 C2241 1.379 . S
H2243 C2237 0.959 . S
H2244 C2237 0.961 . S
H2245 C2237 0.960 . S
H2246 C2238 0.930 . S
H2247 C2239 0.929 . S
H2248 C2256 0.929 . S
H2249 C2258 0.930 . S
H2250 C2260 0.930 . S
H2251 C2263 0.929 . S
H2252 C2266 0.930 . S
H2253 C2268 0.960 . S
H2254 C2268 0.960 . S
H2255 C2268 0.960 . S
C2256 H2248 0.929 . S
C2256 C2257 1.377 . S
C2256 C2258 1.384 . S
C2257 C2256 1.377 . S
C2257 C2263 1.390 . S
C2258 H2249 0.930 . S
C2258 C2256 1.384 . S
C2258 C2259 1.372 . S
C2259 C2258 1.372 . S
C2259 C2260 1.400 . S
C2259 C2264 1.490 . S
C2260 H2250 0.930 . S
C2260 C2259 1.400 . S
C2260 C2263 1.386 . S
H2261 C2277 0.930 . S
H2262 C2278 0.931 . S
C2263 H2251 0.929 . S
C2263 C2257 1.390 . S
C2263 C2260 1.386 . S
C2264 C2259 1.490 . S
C2264 C2266 1.395 . S
C2264 C2267 1.403 . S
H2265 C2271 0.930 . S
C2266 H2252 0.930 . S
C2266 C2264 1.395 . S
C2266 C2269 1.403 . S
C2267 C2264 1.403 . S
C2267 C2268 1.524 . S
C2267 C2271 1.400 . S
C2268 H2253 0.960 . S
C2268 H2254 0.960 . S
C2268 H2255 0.960 . S
C2268 C2267 1.524 . S
C2269 C2266 1.403 . S
C2269 C2270 1.392 . S
C2269 C2273 1.495 . S
C2270 C2269 1.392 . S
C2270 C2271 1.385 . S
C2270 C2272 1.478 . S
C2271 H2265 0.930 . S
C2271 C2267 1.400 . S
C2271 C2270 1.385 . S
C2272 C2270 1.478 . S
C2272 C2274 1.381 . S
C2272 C2278 1.383 . S
C2273 C2269 1.495 . S
C2273 H2279 0.959 . S
C2273 H2280 0.961 . S
C2273 H2281 0.960 . S
C2274 C2272 1.381 . S
C2274 C2275 1.394 1_565 S
C2274 H2282 0.930 . S
C2275 C2274 1.394 1_545 S
C2275 C2276 1.383 . S
C2275 H2283 0.929 . S
C2276 C2275 1.383 . S
C2276 C2277 1.377 . S
C2277 H2261 0.930 . S
C2277 C2276 1.377 . S
C2277 C2278 1.379 1_545 S
C2278 H2262 0.931 . S
C2278 C2272 1.383 . S
C2278 C2277 1.379 1_565 S
H2279 C2273 0.959 . S
H2280 C2273 0.961 . S
H2281 C2273 0.960 . S
H2282 C2274 0.930 . S
H2283 C2275 0.929 . S
H2284 C2292 0.929 . S
H2285 C2294 0.930 . S
H2286 C2296 0.930 . S
H2287 C2299 0.929 . S
H2288 C2302 0.930 . S
H2289 C2304 0.960 . S
H2290 C2304 0.960 . S
H2291 C2304 0.960 . S
C2292 H2284 0.929 . S
C2292 C2293 1.377 . S
C2292 C2294 1.384 1_545 S
C2293 C2292 1.377 . S
C2293 C2299 1.390 . S
C2294 H2285 0.930 . S
C2294 C2292 1.384 1_565 S
C2294 C2295 1.372 . S
C2295 C2294 1.372 . S
C2295 C2296 1.400 . S
C2295 C2300 1.490 . S
C2296 H2286 0.930 . S
C2296 C2295 1.400 . S
C2296 C2299 1.386 1_565 S
H2297 C2313 0.930 . S
H2298 C2314 0.931 . S
C2299 H2287 0.929 . S
C2299 C2293 1.390 . S
C2299 C2296 1.386 1_545 S
C2300 C2295 1.490 . S
C2300 C2302 1.395 . S
C2300 C2303 1.403 . S
H2301 C2307 0.930 . S
C2302 H2288 0.930 . S
C2302 C2300 1.395 . S
C2302 C2305 1.403 . S
C2303 C2300 1.403 . S
C2303 C2304 1.524 . S
C2303 C2307 1.400 . S
C2304 H2289 0.960 . S
C2304 H2290 0.960 . S
C2304 H2291 0.960 . S
C2304 C2303 1.524 . S
C2305 C2302 1.403 . S
C2305 C2306 1.392 . S
C2305 C2309 1.495 . S
C2306 C2305 1.392 . S
C2306 C2307 1.385 . S
C2306 C2308 1.478 . S
C2307 H2301 0.930 . S
C2307 C2303 1.400 . S
C2307 C2306 1.385 . S
C2308 C2306 1.478 . S
C2308 C2310 1.381 . S
C2308 C2314 1.383 . S
C2309 C2305 1.495 . S
C2309 H2315 0.959 . S
C2309 H2316 0.961 . S
C2309 H2317 0.960 . S
C2310 C2308 1.381 . S
C2310 C2311 1.394 . S
C2310 H2318 0.930 . S
C2311 C2310 1.394 . S
C2311 C2312 1.383 . S
C2311 H2319 0.929 . S
C2312 C2311 1.383 . S
C2312 C2313 1.377 . S
C2313 H2297 0.930 . S
C2313 C2312 1.377 . S
C2313 C2314 1.379 . S
C2314 H2298 0.931 . S
C2314 C2308 1.383 . S
C2314 C2313 1.379 . S
H2315 C2309 0.959 . S
H2316 C2309 0.961 . S
H2317 C2309 0.960 . S
H2318 C2310 0.930 . S
H2319 C2311 0.929 . S
H2320 C2328 0.929 . S
H2321 C2330 0.930 . S
H2322 C2332 0.930 . S
H2323 C2335 0.929 . S
H2324 C2338 0.930 . S
H2325 C2340 0.960 . S
H2326 C2340 0.960 . S
H2327 C2340 0.960 . S
C2328 H2320 0.929 . S
C2328 C2329 1.377 . S
C2328 C2330 1.384 . S
C2329 C2328 1.377 . S
C2329 C2335 1.390 . S
C2330 H2321 0.930 . S
C2330 C2328 1.384 . S
C2330 C2331 1.372 . S
C2331 C2330 1.372 . S
C2331 C2332 1.400 . S
C2331 C2336 1.490 . S
C2332 H2322 0.930 . S
C2332 C2331 1.400 . S
C2332 C2335 1.386 . S
H2333 C2349 0.930 . S
H2334 C2350 0.931 . S
C2335 H2323 0.929 . S
C2335 C2329 1.390 . S
C2335 C2332 1.386 . S
C2336 C2331 1.490 . S
C2336 C2338 1.395 . S
C2336 C2339 1.403 . S
H2337 C2343 0.930 . S
C2338 H2324 0.930 . S
C2338 C2336 1.395 . S
C2338 C2341 1.403 . S
C2339 C2336 1.403 . S
C2339 C2340 1.524 . S
C2339 C2343 1.400 . S
C2340 H2325 0.960 . S
C2340 H2326 0.960 . S
C2340 H2327 0.960 . S
C2340 C2339 1.524 . S
C2341 C2338 1.403 . S
C2341 C2342 1.392 . S
C2341 C2345 1.495 . S
C2342 C2341 1.392 . S
C2342 C2343 1.385 . S
C2342 C2344 1.478 . S
C2343 H2337 0.930 . S
C2343 C2339 1.400 . S
C2343 C2342 1.385 . S
C2344 C2342 1.478 . S
C2344 C2346 1.381 . S
C2344 C2350 1.383 . S
C2345 C2341 1.495 . S
C2345 H2351 0.959 . S
C2345 H2352 0.961 . S
C2345 H2353 0.960 . S
C2346 C2344 1.381 . S
C2346 C2347 1.394 . S
C2346 H2354 0.930 . S
C2347 C2346 1.394 . S
C2347 C2348 1.383 . S
C2347 H2355 0.929 . S
C2348 C2347 1.383 . S
C2348 C2349 1.377 . S
C2349 H2333 0.930 . S
C2349 C2348 1.377 . S
C2349 C2350 1.379 . S
C2350 H2334 0.931 . S
C2350 C2344 1.383 . S
C2350 C2349 1.379 . S
H2351 C2345 0.959 . S
H2352 C2345 0.961 . S
H2353 C2345 0.960 . S
H2354 C2346 0.930 . S
H2355 C2347 0.929 . S
H2356 C2364 0.929 . S
H2357 C2366 0.930 . S
H2358 C2368 0.930 . S
H2359 C2371 0.929 . S
H2360 C2374 0.930 . S
H2361 C2376 0.960 . S
H2362 C2376 0.960 . S
H2363 C2376 0.960 . S
C2364 H2356 0.929 . S
C2364 C2365 1.377 . S
C2364 C2366 1.384 . S
C2365 C2364 1.377 . S
C2365 C2371 1.390 . S
C2366 H2357 0.930 . S
C2366 C2364 1.384 . S
C2366 C2367 1.372 . S
C2367 C2366 1.372 . S
C2367 C2368 1.400 . S
C2367 C2372 1.490 . S
C2368 H2358 0.930 . S
C2368 C2367 1.400 . S
C2368 C2371 1.386 . S
H2369 C2385 0.930 . S
H2370 C2386 0.931 . S
C2371 H2359 0.929 . S
C2371 C2365 1.390 . S
C2371 C2368 1.386 . S
C2372 C2367 1.490 . S
C2372 C2374 1.395 . S
C2372 C2375 1.403 . S
H2373 C2379 0.930 . S
C2374 H2360 0.930 . S
C2374 C2372 1.395 . S
C2374 C2377 1.403 . S
C2375 C2372 1.403 . S
C2375 C2376 1.524 . S
C2375 C2379 1.400 . S
C2376 H2361 0.960 . S
C2376 H2362 0.960 . S
C2376 H2363 0.960 . S
C2376 C2375 1.524 . S
C2377 C2374 1.403 . S
C2377 C2378 1.392 . S
C2377 C2381 1.495 . S
C2378 C2377 1.392 . S
C2378 C2379 1.385 . S
C2378 C2380 1.478 . S
C2379 H2373 0.930 . S
C2379 C2375 1.400 . S
C2379 C2378 1.385 . S
C2380 C2378 1.478 . S
C2380 C2382 1.381 . S
C2380 C2386 1.383 . S
C2381 C2377 1.495 . S
C2381 H2387 0.959 . S
C2381 H2388 0.961 . S
C2381 H2389 0.960 . S
C2382 C2380 1.381 . S
C2382 C2383 1.394 . S
C2382 H2390 0.930 . S
C2383 C2382 1.394 . S
C2383 C2384 1.383 . S
C2383 H2391 0.929 . S
C2384 C2383 1.383 . S
C2384 C2385 1.377 . S
C2385 H2369 0.930 . S
C2385 C2384 1.377 . S
C2385 C2386 1.379 . S
C2386 H2370 0.931 . S
C2386 C2380 1.383 . S
C2386 C2385 1.379 . S
H2387 C2381 0.959 . S
H2388 C2381 0.961 . S
H2389 C2381 0.960 . S
H2390 C2382 0.930 . S
H2391 C2383 0.929 . S
H2392 C2400 0.929 . S
H2393 C2402 0.930 . S
H2394 C2404 0.930 . S
H2395 C2407 0.929 . S
H2396 C2410 0.930 . S
H2397 C2412 0.960 . S
H2398 C2412 0.960 . S
H2399 C2412 0.960 . S
C2400 H2392 0.929 . S
C2400 C2401 1.377 . S
C2400 C2402 1.384 . S
C2401 C2400 1.377 . S
C2401 C2407 1.390 . S
C2402 H2393 0.930 . S
C2402 C2400 1.384 . S
C2402 C2403 1.372 . S
C2403 C2402 1.372 . S
C2403 C2404 1.400 . S
C2403 C2408 1.490 . S
C2404 H2394 0.930 . S
C2404 C2403 1.400 . S
C2404 C2407 1.386 . S
H2405 C2421 0.930 . S
H2406 C2422 0.931 . S
C2407 H2395 0.929 . S
C2407 C2401 1.390 . S
C2407 C2404 1.386 . S
C2408 C2403 1.490 . S
C2408 C2410 1.395 . S
C2408 C2411 1.403 . S
H2409 C2415 0.930 . S
C2410 H2396 0.930 . S
C2410 C2408 1.395 . S
C2410 C2413 1.403 . S
C2411 C2408 1.403 . S
C2411 C2412 1.524 . S
C2411 C2415 1.400 . S
C2412 H2397 0.960 . S
C2412 H2398 0.960 . S
C2412 H2399 0.960 . S
C2412 C2411 1.524 . S
C2413 C2410 1.403 . S
C2413 C2414 1.392 . S
C2413 C2417 1.495 . S
C2414 C2413 1.392 . S
C2414 C2415 1.385 . S
C2414 C2416 1.478 . S
C2415 H2409 0.930 . S
C2415 C2411 1.400 . S
C2415 C2414 1.385 . S
C2416 C2414 1.478 . S
C2416 C2418 1.381 . S
C2416 C2422 1.383 . S
C2417 C2413 1.495 . S
C2417 H2423 0.959 . S
C2417 H2424 0.961 . S
C2417 H2425 0.960 . S
C2418 C2416 1.381 . S
C2418 C2419 1.394 . S
C2418 H2426 0.930 . S
C2419 C2418 1.394 . S
C2419 C2420 1.383 . S
C2419 H2427 0.929 . S
C2420 C2419 1.383 . S
C2420 C2421 1.377 . S
C2421 H2405 0.930 . S
C2421 C2420 1.377 . S
C2421 C2422 1.379 . S
C2422 H2406 0.931 . S
C2422 C2416 1.383 . S
C2422 C2421 1.379 . S
H2423 C2417 0.959 . S
H2424 C2417 0.961 . S
H2425 C2417 0.960 . S
H2426 C2418 0.930 . S
H2427 C2419 0.929 . S
H2428 C2436 0.929 . S
H2429 C2438 0.930 . S
H2430 C2440 0.930 . S
H2431 C2443 0.929 . S
H2432 C2446 0.930 . S
H2433 C2448 0.960 . S
H2434 C2448 0.960 . S
H2435 C2448 0.960 . S
C2436 H2428 0.929 . S
C2436 C2437 1.377 . S
C2436 C2438 1.384 . S
C2437 C2436 1.377 . S
C2437 C2443 1.390 . S
C2438 H2429 0.930 . S
C2438 C2436 1.384 . S
C2438 C2439 1.372 . S
C2439 C2438 1.372 . S
C2439 C2440 1.400 . S
C2439 C2444 1.490 . S
C2440 H2430 0.930 . S
C2440 C2439 1.400 . S
C2440 C2443 1.386 . S
H2441 C2457 0.930 . S
H2442 C2458 0.931 . S
C2443 H2431 0.929 . S
C2443 C2437 1.390 . S
C2443 C2440 1.386 . S
C2444 C2439 1.490 . S
C2444 C2446 1.395 . S
C2444 C2447 1.403 . S
H2445 C2451 0.930 . S
C2446 H2432 0.930 . S
C2446 C2444 1.395 . S
C2446 C2449 1.403 . S
C2447 C2444 1.403 . S
C2447 C2448 1.524 . S
C2447 C2451 1.400 . S
C2448 H2433 0.960 . S
C2448 H2434 0.960 . S
C2448 H2435 0.960 . S
C2448 C2447 1.524 . S
C2449 C2446 1.403 . S
C2449 C2450 1.392 . S
C2449 C2453 1.495 . S
C2450 C2449 1.392 . S
C2450 C2451 1.385 . S
C2450 C2452 1.478 . S
C2451 H2445 0.930 . S
C2451 C2447 1.400 . S
C2451 C2450 1.385 . S
C2452 C2450 1.478 . S
C2452 C2454 1.381 . S
C2452 C2458 1.383 . S
C2453 C2449 1.495 . S
C2453 H2459 0.959 . S
C2453 H2460 0.961 . S
C2453 H2461 0.960 . S
C2454 C2452 1.381 . S
C2454 C2455 1.394 . S
C2454 H2462 0.930 . S
C2455 C2454 1.394 . S
C2455 C2456 1.383 . S
C2455 H2463 0.929 . S
C2456 C2455 1.383 . S
C2456 C2457 1.377 . S
C2457 H2441 0.930 . S
C2457 C2456 1.377 . S
C2457 C2458 1.379 . S
C2458 H2442 0.931 . S
C2458 C2452 1.383 . S
C2458 C2457 1.379 . S
H2459 C2453 0.959 . S
H2460 C2453 0.961 . S
H2461 C2453 0.960 . S
H2462 C2454 0.930 . S
H2463 C2455 0.929 . S
H2464 C2472 0.929 . S
H2465 C2474 0.930 . S
H2466 C2476 0.930 . S
H2467 C2479 0.929 . S
H2468 C2482 0.930 . S
H2469 C2484 0.960 . S
H2470 C2484 0.960 . S
H2471 C2484 0.960 . S
C2472 H2464 0.929 . S
C2472 C2473 1.377 . S
C2472 C2474 1.384 1_565 S
C2473 C2472 1.377 . S
C2473 C2479 1.390 . S
C2474 H2465 0.930 . S
C2474 C2472 1.384 1_545 S
C2474 C2475 1.372 . S
C2475 C2474 1.372 . S
C2475 C2476 1.400 . S
C2475 C2480 1.490 . S
C2476 H2466 0.930 . S
C2476 C2475 1.400 . S
C2476 C2479 1.386 1_545 S
H2477 C2493 0.930 . S
H2478 C2494 0.931 . S
C2479 H2467 0.929 . S
C2479 C2473 1.390 . S
C2479 C2476 1.386 1_565 S
C2480 C2475 1.490 . S
C2480 C2482 1.395 . S
C2480 C2483 1.403 . S
H2481 C2487 0.930 . S
C2482 H2468 0.930 . S
C2482 C2480 1.395 . S
C2482 C2485 1.403 . S
C2483 C2480 1.403 . S
C2483 C2484 1.524 . S
C2483 C2487 1.400 . S
C2484 H2469 0.960 . S
C2484 H2470 0.960 . S
C2484 H2471 0.960 . S
C2484 C2483 1.524 . S
C2485 C2482 1.403 . S
C2485 C2486 1.392 . S
C2485 C2489 1.495 . S
C2486 C2485 1.392 . S
C2486 C2487 1.385 . S
C2486 C2488 1.478 . S
C2487 H2481 0.930 . S
C2487 C2483 1.400 . S
C2487 C2486 1.385 . S
C2488 C2486 1.478 . S
C2488 C2490 1.381 . S
C2488 C2494 1.383 . S
C2489 C2485 1.495 . S
C2489 H2495 0.959 . S
C2489 H2496 0.961 . S
C2489 H2497 0.960 . S
C2490 C2488 1.381 . S
C2490 C2491 1.394 . S
C2490 H2498 0.930 . S
C2491 C2490 1.394 . S
C2491 C2492 1.383 . S
C2491 H2499 0.929 . S
C2492 C2491 1.383 . S
C2492 C2493 1.377 . S
C2493 H2477 0.930 . S
C2493 C2492 1.377 . S
C2493 C2494 1.379 . S
C2494 H2478 0.931 . S
C2494 C2488 1.383 . S
C2494 C2493 1.379 . S
H2495 C2489 0.959 . S
H2496 C2489 0.961 . S
H2497 C2489 0.960 . S
H2498 C2490 0.930 . S
H2499 C2491 0.929 . S
H2500 C2508 0.929 . S
H2501 C2510 0.930 . S
H2502 C2512 0.930 . S
H2503 C2515 0.929 . S
H2504 C2518 0.930 . S
H2505 C2520 0.960 . S
H2506 C2520 0.960 . S
H2507 C2520 0.960 . S
C2508 H2500 0.929 . S
C2508 C2509 1.377 . S
C2508 C2510 1.384 . S
C2509 C2508 1.377 . S
C2509 C2515 1.390 . S
C2510 H2501 0.930 . S
C2510 C2508 1.384 . S
C2510 C2511 1.372 . S
C2511 C2510 1.372 . S
C2511 C2512 1.400 . S
C2511 C2516 1.490 . S
C2512 H2502 0.930 . S
C2512 C2511 1.400 . S
C2512 C2515 1.386 . S
H2513 C2529 0.930 . S
H2514 C2530 0.931 . S
C2515 H2503 0.929 . S
C2515 C2509 1.390 . S
C2515 C2512 1.386 . S
C2516 C2511 1.490 . S
C2516 C2518 1.395 . S
C2516 C2519 1.403 . S
H2517 C2523 0.930 . S
C2518 H2504 0.930 . S
C2518 C2516 1.395 . S
C2518 C2521 1.403 . S
C2519 C2516 1.403 . S
C2519 C2520 1.524 . S
C2519 C2523 1.400 . S
C2520 H2505 0.960 . S
C2520 H2506 0.960 . S
C2520 H2507 0.960 . S
C2520 C2519 1.524 . S
C2521 C2518 1.403 . S
C2521 C2522 1.392 . S
C2521 C2525 1.495 . S
C2522 C2521 1.392 . S
C2522 C2523 1.385 . S
C2522 C2524 1.478 . S
C2523 H2517 0.930 . S
C2523 C2519 1.400 . S
C2523 C2522 1.385 . S
C2524 C2522 1.478 . S
C2524 C2526 1.381 . S
C2524 C2530 1.383 . S
C2525 C2521 1.495 . S
C2525 H2531 0.959 . S
C2525 H2532 0.961 . S
C2525 H2533 0.960 . S
C2526 C2524 1.381 . S
C2526 C2527 1.394 1_545 S
C2526 H2534 0.930 . S
C2527 C2526 1.394 1_565 S
C2527 C2528 1.383 . S
C2527 H2535 0.929 . S
C2528 C2527 1.383 . S
C2528 C2529 1.377 . S
C2529 H2513 0.930 . S
C2529 C2528 1.377 . S
C2529 C2530 1.379 1_565 S
C2530 H2514 0.931 . S
C2530 C2524 1.383 . S
C2530 C2529 1.379 1_545 S
H2531 C2525 0.959 . S
H2532 C2525 0.961 . S
H2533 C2525 0.960 . S
H2534 C2526 0.930 . S
H2535 C2527 0.929 . S
H2536 C2544 0.929 . S
H2537 C2546 0.930 . S
H2538 C2548 0.930 . S
H2539 C2551 0.929 . S
H2540 C2554 0.930 . S
H2541 C2556 0.960 . S
H2542 C2556 0.960 . S
H2543 C2556 0.960 . S
C2544 H2536 0.929 . S
C2544 C2545 1.377 . S
C2544 C2546 1.384 . S
C2545 C2544 1.377 . S
C2545 C2551 1.390 . S
C2546 H2537 0.930 . S
C2546 C2544 1.384 . S
C2546 C2547 1.372 . S
C2547 C2546 1.372 . S
C2547 C2548 1.400 . S
C2547 C2552 1.490 . S
C2548 H2538 0.930 . S
C2548 C2547 1.400 . S
C2548 C2551 1.386 . S
H2549 C2565 0.930 . S
H2550 C2566 0.931 . S
C2551 H2539 0.929 . S
C2551 C2545 1.390 . S
C2551 C2548 1.386 . S
C2552 C2547 1.490 . S
C2552 C2554 1.395 . S
C2552 C2555 1.403 . S
H2553 C2559 0.930 . S
C2554 H2540 0.930 . S
C2554 C2552 1.395 . S
C2554 C2557 1.403 . S
C2555 C2552 1.403 . S
C2555 C2556 1.524 . S
C2555 C2559 1.400 . S
C2556 H2541 0.960 . S
C2556 H2542 0.960 . S
C2556 H2543 0.960 . S
C2556 C2555 1.524 . S
C2557 C2554 1.403 . S
C2557 C2558 1.392 . S
C2557 C2561 1.495 . S
C2558 C2557 1.392 . S
C2558 C2559 1.385 . S
C2558 C2560 1.478 . S
C2559 H2553 0.930 . S
C2559 C2555 1.400 . S
C2559 C2558 1.385 . S
C2560 C2558 1.478 . S
C2560 C2562 1.381 . S
C2560 C2566 1.383 . S
C2561 C2557 1.495 . S
C2561 H2567 0.959 . S
C2561 H2568 0.961 . S
C2561 H2569 0.960 . S
C2562 C2560 1.381 . S
C2562 C2563 1.394 1_565 S
C2562 H2570 0.930 . S
C2563 C2562 1.394 1_545 S
C2563 C2564 1.383 . S
C2563 H2571 0.929 . S
C2564 C2563 1.383 . S
C2564 C2565 1.377 . S
C2565 H2549 0.930 . S
C2565 C2564 1.377 . S
C2565 C2566 1.379 1_545 S
C2566 H2550 0.931 . S
C2566 C2560 1.383 . S
C2566 C2565 1.379 1_565 S
H2567 C2561 0.959 . S
H2568 C2561 0.961 . S
H2569 C2561 0.960 . S
H2570 C2562 0.930 . S
H2571 C2563 0.929 . S
H2572 C2580 0.929 . S
H2573 C2582 0.930 . S
H2574 C2584 0.930 . S
H2575 C2587 0.929 . S
H2576 C2590 0.930 . S
H2577 C2592 0.960 . S
H2578 C2592 0.960 . S
H2579 C2592 0.960 . S
C2580 H2572 0.929 . S
C2580 C2581 1.377 . S
C2580 C2582 1.384 . S
C2581 C2580 1.377 . S
C2581 C2587 1.390 . S
C2582 H2573 0.930 . S
C2582 C2580 1.384 . S
C2582 C2583 1.372 . S
C2583 C2582 1.372 . S
C2583 C2584 1.400 . S
C2583 C2588 1.490 . S
C2584 H2574 0.930 . S
C2584 C2583 1.400 . S
C2584 C2587 1.386 . S
H2585 C2601 0.930 . S
H2586 C2602 0.931 . S
C2587 H2575 0.929 . S
C2587 C2581 1.390 . S
C2587 C2584 1.386 . S
C2588 C2583 1.490 . S
C2588 C2590 1.395 . S
C2588 C2591 1.403 . S
H2589 C2595 0.930 . S
C2590 H2576 0.930 . S
C2590 C2588 1.395 . S
C2590 C2593 1.403 . S
C2591 C2588 1.403 . S
C2591 C2592 1.524 . S
C2591 C2595 1.400 . S
C2592 H2577 0.960 . S
C2592 H2578 0.960 . S
C2592 H2579 0.960 . S
C2592 C2591 1.524 . S
C2593 C2590 1.403 . S
C2593 C2594 1.392 . S
C2593 C2597 1.495 . S
C2594 C2593 1.392 . S
C2594 C2595 1.385 . S
C2594 C2596 1.478 . S
C2595 H2589 0.930 . S
C2595 C2591 1.400 . S
C2595 C2594 1.385 . S
C2596 C2594 1.478 . S
C2596 C2598 1.381 . S
C2596 C2602 1.383 . S
C2597 C2593 1.495 . S
C2597 H2603 0.959 . S
C2597 H2604 0.961 . S
C2597 H2605 0.960 . S
C2598 C2596 1.381 . S
C2598 C2599 1.394 1_565 S
C2598 H2606 0.930 . S
C2599 C2598 1.394 1_545 S
C2599 C2600 1.383 . S
C2599 H2607 0.929 . S
C2600 C2599 1.383 . S
C2600 C2601 1.377 . S
C2601 H2585 0.930 . S
C2601 C2600 1.377 . S
C2601 C2602 1.379 1_545 S
C2602 H2586 0.931 . S
C2602 C2596 1.383 . S
C2602 C2601 1.379 1_565 S
H2603 C2597 0.959 . S
H2604 C2597 0.961 . S
H2605 C2597 0.960 . S
H2606 C2598 0.930 . S
H2607 C2599 0.929 . S
H2608 C2616 0.929 . S
H2609 C2618 0.930 . S
H2610 C2620 0.930 . S
H2611 C2623 0.929 . S
H2612 C2626 0.930 . S
H2613 C2628 0.960 . S
H2614 C2628 0.960 . S
H2615 C2628 0.960 . S
C2616 H2608 0.929 . S
C2616 C2617 1.377 . S
C2616 C2618 1.384 . S
C2617 C2616 1.377 . S
C2617 C2623 1.390 . S
C2618 H2609 0.930 . S
C2618 C2616 1.384 . S
C2618 C2619 1.372 . S
C2619 C2618 1.372 . S
C2619 C2620 1.400 . S
C2619 C2624 1.490 . S
C2620 H2610 0.930 . S
C2620 C2619 1.400 . S
C2620 C2623 1.386 . S
H2621 C2637 0.930 . S
H2622 C2638 0.931 . S
C2623 H2611 0.929 . S
C2623 C2617 1.390 . S
C2623 C2620 1.386 . S
C2624 C2619 1.490 . S
C2624 C2626 1.395 . S
C2624 C2627 1.403 . S
H2625 C2631 0.930 . S
C2626 H2612 0.930 . S
C2626 C2624 1.395 . S
C2626 C2629 1.403 . S
C2627 C2624 1.403 . S
C2627 C2628 1.524 . S
C2627 C2631 1.400 . S
C2628 H2613 0.960 . S
C2628 H2614 0.960 . S
C2628 H2615 0.960 . S
C2628 C2627 1.524 . S
C2629 C2626 1.403 . S
C2629 C2630 1.392 . S
C2629 C2633 1.495 . S
C2630 C2629 1.392 . S
C2630 C2631 1.385 . S
C2630 C2632 1.478 . S
C2631 H2625 0.930 . S
C2631 C2627 1.400 . S
C2631 C2630 1.385 . S
C2632 C2630 1.478 . S
C2632 C2634 1.381 . S
C2632 C2638 1.383 . S
C2633 C2629 1.495 . S
C2633 H2639 0.959 . S
C2633 H2640 0.961 . S
C2633 H2641 0.960 . S
C2634 C2632 1.381 . S
C2634 C2635 1.394 . S
C2634 H2642 0.930 . S
C2635 C2634 1.394 . S
C2635 C2636 1.383 . S
C2635 H2643 0.929 . S
C2636 C2635 1.383 . S
C2636 C2637 1.377 . S
C2637 H2621 0.930 . S
C2637 C2636 1.377 . S
C2637 C2638 1.379 . S
C2638 H2622 0.931 . S
C2638 C2632 1.383 . S
C2638 C2637 1.379 . S
H2639 C2633 0.959 . S
H2640 C2633 0.961 . S
H2641 C2633 0.960 . S
H2642 C2634 0.930 . S
H2643 C2635 0.929 . S
H2644 C2652 0.929 . S
H2645 C2654 0.930 . S
H2646 C2656 0.930 . S
H2647 C2659 0.929 . S
H2648 C2662 0.930 . S
H2649 C2664 0.960 . S
H2650 C2664 0.960 . S
H2651 C2664 0.960 . S
C2652 H2644 0.929 . S
C2652 C2653 1.377 . S
C2652 C2654 1.384 . S
C2653 C2652 1.377 . S
C2653 C2659 1.390 . S
C2654 H2645 0.930 . S
C2654 C2652 1.384 . S
C2654 C2655 1.372 . S
C2655 C2654 1.372 . S
C2655 C2656 1.400 . S
C2655 C2660 1.490 . S
C2656 H2646 0.930 . S
C2656 C2655 1.400 . S
C2656 C2659 1.386 . S
H2657 C2673 0.930 . S
H2658 C2674 0.931 . S
C2659 H2647 0.929 . S
C2659 C2653 1.390 . S
C2659 C2656 1.386 . S
C2660 C2655 1.490 . S
C2660 C2662 1.395 . S
C2660 C2663 1.403 . S
H2661 C2667 0.930 . S
C2662 H2648 0.930 . S
C2662 C2660 1.395 . S
C2662 C2665 1.403 . S
C2663 C2660 1.403 . S
C2663 C2664 1.524 . S
C2663 C2667 1.400 . S
C2664 H2649 0.960 . S
C2664 H2650 0.960 . S
C2664 H2651 0.960 . S
C2664 C2663 1.524 . S
C2665 C2662 1.403 . S
C2665 C2666 1.392 . S
C2665 C2669 1.495 . S
C2666 C2665 1.392 . S
C2666 C2667 1.385 . S
C2666 C2668 1.478 . S
C2667 H2661 0.930 . S
C2667 C2663 1.400 . S
C2667 C2666 1.385 . S
C2668 C2666 1.478 . S
C2668 C2670 1.381 . S
C2668 C2674 1.383 . S
C2669 C2665 1.495 . S
C2669 H2675 0.959 . S
C2669 H2676 0.961 . S
C2669 H2677 0.960 . S
C2670 C2668 1.381 . S
C2670 C2671 1.394 . S
C2670 H2678 0.930 . S
C2671 C2670 1.394 . S
C2671 C2672 1.383 . S
C2671 H2679 0.929 . S
C2672 C2671 1.383 . S
C2672 C2673 1.377 . S
C2673 H2657 0.930 . S
C2673 C2672 1.377 . S
C2673 C2674 1.379 . S
C2674 H2658 0.931 . S
C2674 C2668 1.383 . S
C2674 C2673 1.379 . S
H2675 C2669 0.959 . S
H2676 C2669 0.961 . S
H2677 C2669 0.960 . S
H2678 C2670 0.930 . S
H2679 C2671 0.929 . S
H2680 C2688 0.929 . S
H2681 C2690 0.930 . S
H2682 C2692 0.930 . S
H2683 C2695 0.929 . S
H2684 C2698 0.930 . S
H2685 C2700 0.960 . S
H2686 C2700 0.960 . S
H2687 C2700 0.960 . S
C2688 H2680 0.929 . S
C2688 C2689 1.377 . S
C2688 C2690 1.384 . S
C2689 C2688 1.377 . S
C2689 C2695 1.390 . S
C2690 H2681 0.930 . S
C2690 C2688 1.384 . S
C2690 C2691 1.372 . S
C2691 C2690 1.372 . S
C2691 C2692 1.400 . S
C2691 C2696 1.490 . S
C2692 H2682 0.930 . S
C2692 C2691 1.400 . S
C2692 C2695 1.386 . S
H2693 C2709 0.930 . S
H2694 C2710 0.931 . S
C2695 H2683 0.929 . S
C2695 C2689 1.390 . S
C2695 C2692 1.386 . S
C2696 C2691 1.490 . S
C2696 C2698 1.395 . S
C2696 C2699 1.403 . S
H2697 C2703 0.930 . S
C2698 H2684 0.930 . S
C2698 C2696 1.395 . S
C2698 C2701 1.403 . S
C2699 C2696 1.403 . S
C2699 C2700 1.524 . S
C2699 C2703 1.400 . S
C2700 H2685 0.960 . S
C2700 H2686 0.960 . S
C2700 H2687 0.960 . S
C2700 C2699 1.524 . S
C2701 C2698 1.403 . S
C2701 C2702 1.392 . S
C2701 C2705 1.495 . S
C2702 C2701 1.392 . S
C2702 C2703 1.385 . S
C2702 C2704 1.478 . S
C2703 H2697 0.930 . S
C2703 C2699 1.400 . S
C2703 C2702 1.385 . S
C2704 C2702 1.478 . S
C2704 C2706 1.381 . S
C2704 C2710 1.383 . S
C2705 C2701 1.495 . S
C2705 H2711 0.959 . S
C2705 H2712 0.961 . S
C2705 H2713 0.960 . S
C2706 C2704 1.381 . S
C2706 C2707 1.394 . S
C2706 H2714 0.930 . S
C2707 C2706 1.394 . S
C2707 C2708 1.383 . S
C2707 H2715 0.929 . S
C2708 C2707 1.383 . S
C2708 C2709 1.377 . S
C2709 H2693 0.930 . S
C2709 C2708 1.377 . S
C2709 C2710 1.379 . S
C2710 H2694 0.931 . S
C2710 C2704 1.383 . S
C2710 C2709 1.379 . S
H2711 C2705 0.959 . S
H2712 C2705 0.961 . S
H2713 C2705 0.960 . S
H2714 C2706 0.930 . S
H2715 C2707 0.929 . S
H2716 C2724 0.929 . S
H2717 C2726 0.930 . S
H2718 C2728 0.930 . S
H2719 C2731 0.929 . S
H2720 C2734 0.930 . S
H2721 C2736 0.960 . S
H2722 C2736 0.960 . S
H2723 C2736 0.960 . S
C2724 H2716 0.929 . S
C2724 C2725 1.377 . S
C2724 C2726 1.384 . S
C2725 C2724 1.377 . S
C2725 C2731 1.390 . S
C2726 H2717 0.930 . S
C2726 C2724 1.384 . S
C2726 C2727 1.372 . S
C2727 C2726 1.372 . S
C2727 C2728 1.400 . S
C2727 C2732 1.490 . S
C2728 H2718 0.930 . S
C2728 C2727 1.400 . S
C2728 C2731 1.386 . S
H2729 C2745 0.930 . S
H2730 C2746 0.931 . S
C2731 H2719 0.929 . S
C2731 C2725 1.390 . S
C2731 C2728 1.386 . S
C2732 C2727 1.490 . S
C2732 C2734 1.395 . S
C2732 C2735 1.403 . S
H2733 C2739 0.930 . S
C2734 H2720 0.930 . S
C2734 C2732 1.395 . S
C2734 C2737 1.403 . S
C2735 C2732 1.403 . S
C2735 C2736 1.524 . S
C2735 C2739 1.400 . S
C2736 H2721 0.960 . S
C2736 H2722 0.960 . S
C2736 H2723 0.960 . S
C2736 C2735 1.524 . S
C2737 C2734 1.403 . S
C2737 C2738 1.392 . S
C2737 C2741 1.495 . S
C2738 C2737 1.392 . S
C2738 C2739 1.385 . S
C2738 C2740 1.478 . S
C2739 H2733 0.930 . S
C2739 C2735 1.400 . S
C2739 C2738 1.385 . S
C2740 C2738 1.478 . S
C2740 C2742 1.381 . S
C2740 C2746 1.383 . S
C2741 C2737 1.495 . S
C2741 H2747 0.959 . S
C2741 H2748 0.961 . S
C2741 H2749 0.960 . S
C2742 C2740 1.381 . S
C2742 C2743 1.394 . S
C2742 H2750 0.930 . S
C2743 C2742 1.394 . S
C2743 C2744 1.383 . S
C2743 H2751 0.929 . S
C2744 C2743 1.383 . S
C2744 C2745 1.377 . S
C2745 H2729 0.930 . S
C2745 C2744 1.377 . S
C2745 C2746 1.379 . S
C2746 H2730 0.931 . S
C2746 C2740 1.383 . S
C2746 C2745 1.379 . S
H2747 C2741 0.959 . S
H2748 C2741 0.961 . S
H2749 C2741 0.960 . S
H2750 C2742 0.930 . S
H2751 C2743 0.929 . S
C457 C37 0.445 . S
C476 C9 0.416 . S
C493 C23 0.457 . S
C512 C51 0.380 . S
C529 C93 0.475 . S
C548 C65 0.537 . S
C565 C107 0.458 . S
C584 C79 0.443 . S
C601 C121 0.465 . S
C620 C149 0.536 . S
C637 C163 0.473 . S
C656 C135 0.497 . S
C673 C177 0.443 . S
C692 C205 0.425 . S
C709 C191 0.439 . S
C728 C219 0.377 . S
C745 C261 0.452 . S
C764 C233 0.549 . S
C781 C247 0.475 . S
C800 C275 0.451 . S
C817 C289 0.475 . S
C836 C317 0.540 . S
C853 C331 0.465 . S
C872 C303 0.475 . S
C889 C373 0.439 . S
C908 C345 0.504 . S
C925 C387 0.475 . S
C944 C359 0.477 . S
C961 C429 0.442 . S
C980 C401 0.423 . S
C997 C415 0.461 . S
C1016 C443 0.456 . S
C1033 C67 1.576 . S
C1052 C11 1.557 . S
C1069 C417 1.579 . S
C1088 C25 1.585 . S
C1105 C39 1.576 . S
C1124 C207 1.589 . S
C1141 C53 1.578 . S
C1160 C333 1.589 . S
C1177 C81 1.574 . S
C1196 C361 1.583 . S
C1213 C95 1.579 . S
C1232 C151 1.569 . S
C1249 C277 1.573 . S
C1268 C109 1.580 . S
C1285 C179 1.572 . S
C1304 C123 1.555 . S
C1321 C305 1.577 . S
C1340 C137 1.559 . S
C1357 C165 1.572 . S
C1376 C445 1.559 . S
C1393 C193 1.579 . S
C1412 C249 1.579 . S
C1429 C389 1.579 . S
C1448 C221 1.579 . S
C1465 C291 1.572 . S
C1484 C235 1.557 . S
C1501 C263 1.572 . S
C1520 C431 1.574 . S
C1537 C319 1.579 . S
C1556 C375 1.590 . S
C1573 C403 1.571 . S
C1592 C347 1.566 . S
C1609 C47 1.507 . S
C1628 C5 1.496 . S
C1645 C33 1.507 . S
C1664 C19 1.497 . S
C1681 C103 1.506 . S
C1700 C61 1.500 . S
C1717 C89 1.509 . S
C1736 C75 1.512 . S
C1753 C159 1.507 . S
C1772 C117 1.496 . S
C1789 C145 1.507 . S
C1808 C131 1.512 . S
C1825 C215 1.508 . S
C1844 C173 1.510 . S
C1861 C201 1.507 . S
C1880 C187 1.498 . S
C1897 C229 1.507 . S
C1916 C271 1.511 . S
C1933 C257 1.507 . S
C1952 C243 1.512 . S
C1969 C285 1.506 . S
C1988 C327 1.498 . S
C2005 C313 1.508 . S
C2024 C299 1.509 . S
C2041 C383 1.507 . S
C2060 C341 1.511 . S
C2077 C355 1.508 . S
C2096 C369 1.497 . S
C2113 C397 1.506 . S
C2132 C439 1.497 . S
C2149 C425 1.508 . S
C2168 C411 1.511 . S
C2185 C28 1.483 . S
C2204 C0 1.473 . S
C2221 C14 1.481 . S
C2240 C42 1.483 . S
C2257 C56 1.485 . S
C2276 C84 1.497 . S
C2293 C70 1.481 . S
C2312 C98 1.473 . S
C2329 C112 1.484 . S
C2348 C140 1.472 . S
C2365 C126 1.481 . S
C2384 C154 1.497 . S
C2401 C196 1.483 . S
C2420 C168 1.464 . S
C2437 C210 1.486 . S
C2456 C182 1.491 . S
C2473 C252 1.483 . S
C2492 C224 1.492 . S
C2509 C266 1.483 . S
C2528 C238 1.494 . S
C2545 C280 1.484 . S
C2564 C308 1.497 . S
C2581 C322 1.487 . S
C2600 C294 1.482 . S
C2617 C364 1.481 . S
C2636 C336 1.497 . S
C2653 C350 1.484 . S
C2672 C378 1.470 . S
C2689 C392 1.483 . S
C2708 C420 1.497 . S
C2725 C434 1.487 . S
C2744 C406 1.482 . S
