# Generated by pormake.
# Topology wlb, (5)-cn, num edge types: 1
# Building blocks:
#     Node 0, Type 0, BuildingBlock: BEQFEK_clean_sbu_0, # of connection points: 5
#     Node 1, Type 0, BuildingBlock: BEQFEK_clean_sbu_0, # of connection points: 5
#     Node 2, Type 0, BuildingBlock: BEQFEK_clean_sbu_0, # of connection points: 5
#     Node 3, Type 0, BuildingBlock: BEQFEK_clean_sbu_0, # of connection points: 5
#     Node 4, Type 0, BuildingBlock: BEQFEK_clean_sbu_0, # of connection points: 5
#     Node 5, Type 0, BuildingBlock: BEQFEK_clean_sbu_0, # of connection points: 5
#     Node 6, Type 0, BuildingBlock: BEQFEK_clean_sbu_0, # of connection points: 5
#     Node 7, Type 0, BuildingBlock: BEQFEK_clean_sbu_0, # of connection points: 5
#     Node 8, Type 0, BuildingBlock: BEQFEK_clean_sbu_0, # of connection points: 5
#     Node 9, Type 0, BuildingBlock: BEQFEK_clean_sbu_0, # of connection points: 5
#     Node 10, Type 0, BuildingBlock: BEQFEK_clean_sbu_0, # of connection points: 5
#     Node 11, Type 0, BuildingBlock: BEQFEK_clean_sbu_0, # of connection points: 5
#     Node 12, Type 0, BuildingBlock: BEQFEK_clean_sbu_0, # of connection points: 5
#     Node 13, Type 0, BuildingBlock: BEQFEK_clean_sbu_0, # of connection points: 5
#     Node 14, Type 0, BuildingBlock: BEQFEK_clean_sbu_0, # of connection points: 5
#     Node 15, Type 0, BuildingBlock: BEQFEK_clean_sbu_0, # of connection points: 5
#     Node 16, Type 0, BuildingBlock: BEQFEK_clean_sbu_0, # of connection points: 5
#     Node 17, Type 0, BuildingBlock: BEQFEK_clean_sbu_0, # of connection points: 5
#     Edge 18, Type (0, 0), BuildingBlock: XIVTED_clean_linker_0, # of connection points: 2
#     Edge 19, Type (0, 0), BuildingBlock: XIVTED_clean_linker_0, # of connection points: 2
#     Edge 20, Type (0, 0), BuildingBlock: XIVTED_clean_linker_0, # of connection points: 2
#     Edge 21, Type (0, 0), BuildingBlock: XIVTED_clean_linker_0, # of connection points: 2
#     Edge 22, Type (0, 0), BuildingBlock: XIVTED_clean_linker_0, # of connection points: 2
#     Edge 23, Type (0, 0), BuildingBlock: XIVTED_clean_linker_0, # of connection points: 2
#     Edge 24, Type (0, 0), BuildingBlock: XIVTED_clean_linker_0, # of connection points: 2
#     Edge 25, Type (0, 0), BuildingBlock: XIVTED_clean_linker_0, # of connection points: 2
#     Edge 26, Type (0, 0), BuildingBlock: XIVTED_clean_linker_0, # of connection points: 2
#     Edge 27, Type (0, 0), BuildingBlock: XIVTED_clean_linker_0, # of connection points: 2
#     Edge 28, Type (0, 0), BuildingBlock: XIVTED_clean_linker_0, # of connection points: 2
#     Edge 29, Type (0, 0), BuildingBlock: XIVTED_clean_linker_0, # of connection points: 2
#     Edge 30, Type (0, 0), BuildingBlock: XIVTED_clean_linker_0, # of connection points: 2
#     Edge 31, Type (0, 0), BuildingBlock: XIVTED_clean_linker_0, # of connection points: 2
#     Edge 32, Type (0, 0), BuildingBlock: XIVTED_clean_linker_0, # of connection points: 2
#     Edge 33, Type (0, 0), BuildingBlock: XIVTED_clean_linker_0, # of connection points: 2
#     Edge 34, Type (0, 0), BuildingBlock: XIVTED_clean_linker_0, # of connection points: 2
#     Edge 35, Type (0, 0), BuildingBlock: XIVTED_clean_linker_0, # of connection points: 2
#     Edge 36, Type (0, 0), BuildingBlock: XIVTED_clean_linker_0, # of connection points: 2
#     Edge 37, Type (0, 0), BuildingBlock: XIVTED_clean_linker_0, # of connection points: 2
#     Edge 38, Type (0, 0), BuildingBlock: XIVTED_clean_linker_0, # of connection points: 2
#     Edge 39, Type (0, 0), BuildingBlock: XIVTED_clean_linker_0, # of connection points: 2
#     Edge 40, Type (0, 0), BuildingBlock: XIVTED_clean_linker_0, # of connection points: 2
#     Edge 41, Type (0, 0), BuildingBlock: XIVTED_clean_linker_0, # of connection points: 2
#     Edge 42, Type (0, 0), BuildingBlock: XIVTED_clean_linker_0, # of connection points: 2
#     Edge 43, Type (0, 0), BuildingBlock: XIVTED_clean_linker_0, # of connection points: 2
#     Edge 44, Type (0, 0), BuildingBlock: XIVTED_clean_linker_0, # of connection points: 2
#     Edge 45, Type (0, 0), BuildingBlock: XIVTED_clean_linker_0, # of connection points: 2
#     Edge 46, Type (0, 0), BuildingBlock: XIVTED_clean_linker_0, # of connection points: 2
#     Edge 47, Type (0, 0), BuildingBlock: XIVTED_clean_linker_0, # of connection points: 2
#     Edge 48, Type (0, 0), BuildingBlock: XIVTED_clean_linker_0, # of connection points: 2
#     Edge 49, Type (0, 0), BuildingBlock: XIVTED_clean_linker_0, # of connection points: 2
#     Edge 50, Type (0, 0), BuildingBlock: XIVTED_clean_linker_0, # of connection points: 2
#     Edge 51, Type (0, 0), BuildingBlock: XIVTED_clean_linker_0, # of connection points: 2
#     Edge 52, Type (0, 0), BuildingBlock: XIVTED_clean_linker_0, # of connection points: 2
#     Edge 53, Type (0, 0), BuildingBlock: XIVTED_clean_linker_0, # of connection points: 2
#     Edge 54, Type (0, 0), BuildingBlock: XIVTED_clean_linker_0, # of connection points: 2
#     Edge 55, Type (0, 0), BuildingBlock: XIVTED_clean_linker_0, # of connection points: 2
#     Edge 56, Type (0, 0), BuildingBlock: XIVTED_clean_linker_0, # of connection points: 2
#     Edge 57, Type (0, 0), BuildingBlock: XIVTED_clean_linker_0, # of connection points: 2
#     Edge 58, Type (0, 0), BuildingBlock: XIVTED_clean_linker_0, # of connection points: 2
#     Edge 59, Type (0, 0), BuildingBlock: XIVTED_clean_linker_0, # of connection points: 2
#     Edge 60, Type (0, 0), BuildingBlock: XIVTED_clean_linker_0, # of connection points: 2
#     Edge 61, Type (0, 0), BuildingBlock: XIVTED_clean_linker_0, # of connection points: 2
#     Edge 62, Type (0, 0), BuildingBlock: XIVTED_clean_linker_0, # of connection points: 2
# Relax obj value: 0.389
# Max RMSD: 0.217
# Mean RMSD: 0.217
data_MOF--net-wlb--node1-BEQFEK_clean_sbu_0--edge1-XIVTED_clean_linker_0
_symmetry_space_group_name_H-M    P1
_symmetry_Int_Tables_number       1
_symmetry_cell_setting            triclinic
loop_
_symmetry_equiv_pos_as_xyz
'x, y, z'
_cell_length_a     53.81845
_cell_length_b     53.953827
_cell_length_c     36.650086
_cell_angle_alpha  90.034517
_cell_angle_beta   90.057165
_cell_angle_gamma 120.01352
loop_
_atom_site_label
_atom_site_type_symbol
_atom_site_fract_x
_atom_site_fract_y
_atom_site_fract_z
_atom_type_partial_charge
Co0 Co 0.07135 0.16815 0.2126 0.0
Co1 Co 0.02614 0.18195 0.24275 0.0
C2 C 0.03553 0.1771 0.16017 0.0
O3 O 0.05811 0.17515 0.1643 0.0
O4 O 0.02221 0.17925 0.18776 0.0
C5 C 0.12248 0.15583 0.20019 0.0
O6 O 0.13982 0.17579 0.17741 0.0
C7 C 0.00757 0.22291 0.25367 0.0
C8 C 0.97995 0.20598 0.30253 0.0
C9 C -0.00713 0.22942 0.27947 0.0
N10 N 0.0046 0.19747 0.2622 0.0
N11 N 0.98777 0.18717 0.29105 0.0
C12 C 0.02429 0.24021 0.22135 0.0
H13 H 0.02596 0.22636 0.2004 0.0
H14 H 0.04638 0.25616 0.23002 0.0
H15 H 0.01397 0.25162 0.20909 0.0
C16 C 0.11005 0.21861 0.26057 0.0
N17 N 0.08431 0.19979 0.24576 0.0
N18 N 0.06454 0.20435 0.25998 0.0
C19 C 0.07687 0.22542 0.28517 0.0
C20 C 0.10612 0.23548 0.28609 0.0
C21 C 0.13758 0.2196 0.25146 0.0
H22 H 0.13969 0.21913 0.22139 0.0
H23 H 0.15628 0.23903 0.26295 0.0
H24 H 0.13712 0.20031 0.26278 0.0
O25 O 0.03741 0.13229 0.23139 0.0
O26 O 0.00814 0.14299 0.26048 0.0
H27 H 0.04053 0.21672 0.31826 0.0
H28 H 0.07369 0.24658 0.33383 0.0
C29 C 0.06103 0.23526 0.30929 0.0
H30 H 0.05674 0.25045 0.29408 0.0
H31 H 0.98261 0.16789 0.3038 0.0
O32 O 0.09951 0.15484 0.2106 0.0
C33 C 0.01475 0.12468 0.24996 0.0
Co34 Co 0.80336 0.87734 0.21238 0.0
Co35 Co 0.76839 0.81168 0.22017 0.0
C36 C 0.78744 0.84016 0.14605 0.0
O37 O 0.79922 0.86535 0.15956 0.0
O38 O 0.7744 0.81826 0.16647 0.0
C39 C 0.85158 0.92885 0.20348 0.0
O40 O 0.85697 0.91118 0.185 0.0
C41 C 0.71375 0.76215 0.21041 0.0
C42 C 0.71367 0.73159 0.25062 0.0
C43 C 0.69634 0.73582 0.22631 0.0
N44 N 0.73989 0.77333 0.22544 0.0
N45 N 0.74 0.7549 0.24904 0.0
C46 C 0.70511 0.77827 0.18501 0.0
H47 H 0.71936 0.80167 0.18842 0.0
H48 H 0.6825 0.77256 0.18978 0.0
H49 H 0.70724 0.77273 0.15646 0.0
C50 C 0.75421 0.87308 0.25765 0.0
N51 N 0.76813 0.86192 0.23908 0.0
N52 N 0.75464 0.83409 0.24424 0.0
C53 C 0.73213 0.8268 0.26676 0.0
C54 C 0.73062 0.85098 0.27543 0.0
C55 C 0.7639 0.90427 0.25931 0.0
H56 H 0.77167 0.91411 0.23208 0.0
H57 H 0.74631 0.90782 0.26869 0.0
H58 H 0.78212 0.91482 0.27872 0.0
O59 O 0.82901 0.86484 0.23454 0.0
O60 O 0.80514 0.81769 0.24058 0.0
H61 H 0.7267 0.78736 0.28822 0.0
H62 H 0.70455 0.79931 0.30963 0.0
C63 C 0.71382 0.79781 0.28324 0.0
H64 H 0.69573 0.78454 0.26462 0.0
H65 H 0.75751 0.75886 0.26532 0.0
O66 O 0.82665 0.91938 0.21683 0.0
C67 C 0.82817 0.84169 0.24366 0.0
Co68 Co 0.09019 0.92034 0.22121 0.0
Co69 Co 0.15626 0.94621 0.22101 0.0
C70 C 0.12299 0.93869 0.15094 0.0
O71 O 0.09848 0.92718 0.1666 0.0
O72 O 0.14558 0.94545 0.16924 0.0
C73 C 0.02754 0.8807 0.21726 0.0
O74 O 0.03258 0.86616 0.1925 0.0
C75 C 0.20313 0.93927 0.19911 0.0
C76 C 0.23932 0.97038 0.23296 0.0
C77 C 0.23169 0.94922 0.20669 0.0
N78 N 0.19416 0.95356 0.22011 0.0
N79 N 0.21578 0.97216 0.24041 0.0
C80 C 0.18393 0.91523 0.17418 0.0
H81 H 0.16166 0.90399 0.18485 0.0
H82 H 0.1918 0.89986 0.17097 0.0
H83 H 0.18357 0.92405 0.14701 0.0
C84 C 0.09476 0.87532 0.26699 0.0
N85 N 0.10571 0.89924 0.24597 0.0
N86 N 0.13382 0.91148 0.24654 0.0
C87 C 0.14164 0.89611 0.26781 0.0
C88 C 0.1173 0.87234 0.28106 0.0
C89 C 0.06347 0.85611 0.27407 0.0
H90 H 0.05417 0.86892 0.28484 0.0
H91 H 0.05248 0.84628 0.24798 0.0
H92 H 0.05962 0.83889 0.29369 0.0
O93 O 0.10724 0.95992 0.24152 0.0
O94 O 0.15457 0.97874 0.24267 0.0
H95 H 0.18355 0.929 0.28439 0.0
H96 H 0.17274 0.89472 0.30424 0.0
C97 C 0.1719 0.90568 0.27906 0.0
H98 H 0.18282 0.90078 0.25696 0.0
H99 H 0.21441 0.98587 0.25934 0.0
O100 O 0.04842 0.90288 0.23138 0.0
C101 C 0.13234 0.98087 0.24787 0.0
Co102 Co 0.1644 0.06488 0.84243 0.0
Co103 Co 0.19478 0.02965 0.83365 0.0
C104 C 0.17586 0.04061 0.90819 0.0
O105 O 0.16723 0.05723 0.89598 0.0
O106 O 0.1868 0.0301 0.88671 0.0
C107 C 0.14504 0.10817 0.84674 0.0
O108 O 0.16464 0.12323 0.87134 0.0
C109 C 0.24699 0.03077 0.84785 0.0
C110 C 0.2469 -0.00038 0.80858 0.0
C111 C 0.26375 0.02029 0.8341 0.0
N112 N 0.22164 0.01748 0.83066 0.0
N113 N 0.22138 -0.00144 0.80756 0.0
C114 C 0.25584 0.05544 0.87349 0.0
H115 H 0.24336 0.06632 0.86817 0.0
H116 H 0.27912 0.07102 0.87093 0.0
H117 H 0.25137 0.04726 0.9019 0.0
C118 C 0.21487 0.1066 0.79569 0.0
N119 N 0.19967 0.08209 0.81508 0.0
N120 N 0.21118 0.06589 0.80987 0.0
C121 C 0.23369 0.07932 0.78687 0.0
C122 C 0.23719 0.10572 0.77754 0.0
C123 C 0.20741 0.12975 0.79325 0.0
H124 H 0.20791 0.13824 0.82097 0.0
H125 H 0.22257 0.14743 0.77529 0.0
H126 H 0.18526 0.12067 0.78248 0.0
O127 O 0.13689 0.02623 0.8231 0.0
O128 O 0.15804 0.00084 0.81206 0.0
H129 H 0.23583 0.04337 0.76566 0.0
H130 H 0.26113 0.07707 0.74541 0.0
C131 C 0.25033 0.0664 0.77122 0.0
H132 H 0.26716 0.06909 0.79087 0.0
H133 H 0.2044 0.98601 0.78996 0.0
O134 O 0.14329 0.0855 0.83388 0.0
C135 C 0.13568 0.00318 0.8124 0.0
Co136 Co 0.91911 0.10177 0.84831 0.0
Co137 Co 0.95032 0.16698 0.8342 0.0
C138 C 0.94319 0.1414 0.91094 0.0
O139 O 0.92716 0.11557 0.90042 0.0
O140 O 0.95261 0.16196 0.88811 0.0
C141 C 0.91578 0.04961 0.85651 0.0
O142 O 0.94013 0.06708 0.87285 0.0
C143 C 0.94439 0.21649 0.83922 0.0
C144 C 0.97524 0.24563 0.79819 0.0
C145 C 0.95325 0.24212 0.82123 0.0
N146 N 0.95981 0.20507 0.82652 0.0
N147 N 0.97855 0.22269 0.80244 0.0
C148 C 0.91936 0.20102 0.86443 0.0
H149 H 0.91136 0.17768 0.864 0.0
H150 H 0.90177 0.20515 0.85687 0.0
H151 H 0.92635 0.20869 0.89272 0.0
C152 C 0.87342 0.10397 0.80262 0.0
N153 N 0.89894 0.11602 0.82038 0.0
N154 N 0.91364 0.14333 0.81198 0.0
C155 C 0.89844 0.14924 0.78763 0.0
C156 C 0.87233 0.12479 0.78133 0.0
C157 C 0.85142 0.0729 0.80435 0.0
H158 H 0.8502 0.06481 0.83251 0.0
H159 H 0.83009 0.06918 0.7955 0.0
H160 H 0.85802 0.06086 0.78598 0.0
O161 O 0.95747 0.11423 0.82588 0.0
O162 O 0.97983 0.16051 0.81271 0.0
H163 H 0.93263 0.18755 0.76386 0.0
H164 H 0.89861 0.17425 0.74142 0.0
C165 C 0.90921 0.17722 0.7683 0.0
H166 H 0.90419 0.19137 0.78478 0.0
H167 H -0.00756 0.21833 0.78756 0.0
O168 O 0.90009 0.0595 0.84527 0.0
C169 C 0.97912 0.13662 0.81329 0.0
Co170 Co 0.88747 0.80828 0.84786 0.0
Co171 Co 0.82721 0.79184 0.81765 0.0
C172 C 0.84051 0.79737 0.89965 0.0
O173 O 0.86622 0.80263 0.89479 0.0
O174 O 0.82361 0.79235 0.8726 0.0
C175 C 0.94128 0.84437 0.87229 0.0
O176 O 0.92548 0.85256 0.89025 0.0
C177 C 0.76769 0.751 0.80238 0.0
C178 C 0.76 0.76846 0.75169 0.0
C179 C 0.74792 0.74492 0.7746 0.0
N180 N 0.79093 0.77631 0.79517 0.0
N181 N 0.78612 0.78691 0.76521 0.0
C182 C 0.7648 0.73346 0.8355 0.0
H183 H 0.77878 0.74719 0.85779 0.0
H184 H 0.77148 0.7176 0.82878 0.0
H185 H 0.74226 0.72189 0.84521 0.0
C186 C 0.87716 0.75773 0.80188 0.0
N187 N 0.86945 0.77623 0.81552 0.0
N188 N 0.84487 0.77065 0.80088 0.0
C189 C 0.83676 0.74914 0.77646 0.0
C190 C 0.85666 0.73998 0.77653 0.0
C191 C 0.90399 0.7577 0.81222 0.0
H192 H 0.90747 0.76086 0.84212 0.0
H193 H 0.90302 0.73745 0.80384 0.0
H194 H 0.9225 0.7759 0.79852 0.0
O195 O 0.89023 0.84351 0.8265 0.0
O196 O 0.84817 0.832 0.80259 0.0
H197 H 0.81233 0.72556 0.72893 0.0
H198 H 0.79155 0.72281 0.7683 0.0
C199 C 0.8108 0.73766 0.75244 0.0
H200 H 0.80828 0.75547 0.74183 0.0
H201 H 0.80113 0.80617 0.75315 0.0
O202 O 0.92859 0.82092 0.85476 0.0
C203 C 0.8739 0.85057 0.81004 0.0
Co204 Co 0.72515 0.50189 0.54938 0.0
Co205 Co 0.68979 0.53134 0.56526 0.0
C206 C 0.69812 0.5148 0.48785 0.0
O207 O 0.71512 0.50607 0.49799 0.0
O208 O 0.68802 0.52511 0.51097 0.0
C209 C 0.73108 0.45556 0.53828 0.0
O210 O 0.70752 0.44932 0.52027 0.0
C211 C 0.69251 0.58493 0.55929 0.0
C212 C 0.6615 0.5828 0.60043 0.0
C213 C 0.68271 0.60123 0.57649 0.0
N214 N 0.67832 0.55843 0.5731 0.0
N215 N 0.6595 0.557 0.59732 0.0
C216 C 0.71736 0.59483 0.53363 0.0
H217 H 0.72654 0.5805 0.5348 0.0
H218 H 0.73427 0.61708 0.54011 0.0
H219 H 0.70975 0.59415 0.50531 0.0
C220 C 0.76933 0.55145 0.59403 0.0
N221 N 0.74357 0.53627 0.57723 0.0
N222 N 0.72709 0.54667 0.58695 0.0
C223 C 0.74145 0.56805 0.61124 0.0
C224 C 0.76877 0.57216 0.61615 0.0
C225 C 0.79323 0.54509 0.59065 0.0
H226 H 0.79355 0.53729 0.56272 0.0
H227 H 0.81417 0.56434 0.59709 0.0
H228 H 0.78954 0.5279 0.61023 0.0
O229 O 0.68807 0.47446 0.5724 0.0
O230 O 0.66179 0.49413 0.58647 0.0
H231 H 0.70587 0.56915 0.63606 0.0
H232 H 0.73983 0.59175 0.6579 0.0
C233 C 0.72906 0.58358 0.63121 0.0
H234 H 0.73241 0.60229 0.61491 0.0
H235 H 0.64642 0.53894 0.61294 0.0
O236 O 0.74598 0.48055 0.55156 0.0
C237 C 0.66526 0.4725 0.58545 0.0
Co238 Co 0.47102 0.21954 0.53742 0.0
Co239 Co 0.44462 0.15484 0.5509 0.0
C240 C 0.45796 0.1808 0.47412 0.0
O241 O 0.46616 0.20629 0.48494 0.0
O242 O 0.44917 0.16032 0.49691 0.0
C243 C 0.51478 0.27498 0.53016 0.0
O244 O 0.52468 0.26056 0.5124 0.0
C245 C 0.3941 0.10155 0.54216 0.0
C246 C 0.39805 0.07375 0.58329 0.0
C247 C 0.37938 0.07495 0.55816 0.0
N248 N 0.42006 0.11576 0.55766 0.0
N249 N 0.42264 0.09907 0.58188 0.0
C250 C 0.3827 0.11483 0.51604 0.0
H251 H 0.39399 0.13838 0.51955 0.0
H252 H 0.3593 0.1059 0.51993 0.0
H253 H 0.38649 0.11023 0.48772 0.0
C254 C 0.42058 0.20983 0.58466 0.0
N255 N 0.43689 0.20109 0.56669 0.0
N256 N 0.4272 0.17398 0.57415 0.0
C257 C 0.40485 0.16477 0.59746 0.0
C258 C 0.39948 0.18687 0.6045 0.0
C259 C 0.42549 0.23962 0.58334 0.0
H260 H 0.43092 0.24801 0.55508 0.0
H261 H 0.40635 0.24036 0.59309 0.0
H262 H 0.44406 0.25354 0.60106 0.0
O263 O 0.50138 0.21191 0.5567 0.0
O264 O 0.48294 0.16607 0.57019 0.0
H265 H 0.40539 0.12862 0.62099 0.0
H266 H 0.37985 0.13665 0.64142 0.0
C267 C 0.38992 0.13597 0.61531 0.0
H268 H 0.37266 0.12048 0.59711 0.0
H269 H 0.44057 0.10542 0.59856 0.0
O270 O 0.48905 0.26168 0.54152 0.0
C271 C 0.50438 0.19125 0.56813 0.0
Co272 Co 0.75478 0.2416 0.5479 0.0
Co273 Co 0.81321 0.28495 0.5826 0.0
C274 C 0.80166 0.28059 0.49942 0.0
O275 O 0.77708 0.25794 0.50181 0.0
O276 O 0.81665 0.29242 0.52798 0.0
C277 C 0.70199 0.22642 0.52181 0.0
O278 O 0.71907 0.25057 0.50496 0.0
C279 C 0.87228 0.30188 0.59674 0.0
C280 C 0.88162 0.32748 0.64732 0.0
C281 C 0.89273 0.3153 0.6239 0.0
N282 N 0.84968 0.30488 0.60473 0.0
N283 N 0.85541 0.32049 0.63468 0.0
C284 C 0.87383 0.28651 0.56351 0.0
H285 H 0.85882 0.28567 0.54223 0.0
H286 H 0.86755 0.26417 0.57073 0.0
H287 H 0.89594 0.29728 0.55233 0.0
C288 C 0.76469 0.20014 0.59221 0.0
N289 N 0.77212 0.22663 0.57997 0.0
N290 N 0.796 0.24545 0.59624 0.0
C291 C 0.80377 0.23162 0.62041 0.0
C292 C 0.78455 0.2025 0.61838 0.0
C293 C 0.73859 0.17333 0.58003 0.0
H294 H 0.73405 0.17514 0.5509 0.0
H295 H 0.74132 0.15444 0.58414 0.0
H296 H 0.71994 0.17035 0.59638 0.0
O297 O 0.75236 0.27402 0.57044 0.0
O298 O 0.79176 0.3024 0.60125 0.0
H299 H 0.8305 0.26606 0.65668 0.0
H300 H 0.82565 0.23192 0.6702 0.0
C301 C 0.82845 0.24582 0.64649 0.0
H302 H 0.84848 0.25026 0.63246 0.0
H303 H 0.84105 0.32543 0.64724 0.0
O304 O 0.71335 0.21437 0.53959 0.0
C305 C 0.76684 0.29587 0.59049 0.0
Co306 Co 0.84262 0.40891 0.19345 0.0
Co307 Co 0.86472 0.36783 0.17417 0.0
C308 C 0.85074 0.37767 0.25279 0.0
O309 O 0.84714 0.39882 0.24553 0.0
O310 O 0.8566 0.36536 0.22738 0.0
C311 C 0.80007 0.42127 0.20432 0.0
O312 O 0.79135 0.39722 0.22225 0.0
C313 C 0.91003 0.35832 0.19201 0.0
C314 C 0.90593 0.32458 0.15431 0.0
C315 C 0.9218 0.3416 0.18344 0.0
N316 N 0.88813 0.35164 0.16928 0.0
N317 N 0.88583 0.33169 0.14635 0.0
C318 C 0.91948 0.38056 0.22138 0.0
H319 H 0.91503 0.39776 0.21323 0.0
H320 H 0.94272 0.38986 0.2272 0.0
H321 H 0.90735 0.37058 0.24674 0.0
C322 C 0.89466 0.44931 0.1479 0.0
N323 N 0.87685 0.424 0.16433 0.0
N324 N 0.88516 0.40564 0.15567 0.0
C325 C 0.90833 0.41849 0.13376 0.0
C326 C 0.91544 0.44667 0.12823 0.0
C327 C 0.89147 0.47521 0.1504 0.0
H328 H 0.88355 0.47652 0.17788 0.0
H329 H 0.91214 0.49495 0.14457 0.0
H330 H 0.87535 0.47331 0.13001 0.0
O331 O 0.81139 0.37213 0.17187 0.0
O332 O 0.82725 0.34409 0.15093 0.0
H333 H 0.90596 0.3819 0.1073 0.0
H334 H 0.93574 0.41568 0.09265 0.0
C335 C 0.92247 0.40357 0.11643 0.0
H336 H 0.93656 0.40144 0.13676 0.0
H337 H 0.87015 0.32246 0.1261 0.0
O338 O 0.82532 0.43386 0.19127 0.0
C339 C 0.80682 0.3491 0.1562 0.0
Co340 Co 0.58208 0.42686 0.17562 0.0
Co341 Co 0.61515 0.49257 0.16655 0.0
C342 C 0.6019 0.46299 0.2414 0.0
O343 O 0.58733 0.43748 0.229 0.0
O344 O 0.61242 0.48436 0.21989 0.0
C345 C 0.54171 0.36282 0.17622 0.0
O346 O 0.52345 0.36447 0.19844 0.0
C347 C 0.60789 0.54049 0.17717 0.0
C348 C 0.64069 0.57379 0.14157 0.0
C349 C 0.61727 0.5676 0.16355 0.0
N350 N 0.62447 0.53085 0.16316 0.0
N351 N 0.64434 0.55088 0.1423 0.0
C352 C 0.58154 0.52241 0.1994 0.0
H353 H 0.57369 0.49934 0.195 0.0
H354 H 0.56429 0.5272 0.19253 0.0
H355 H 0.58692 0.52703 0.22876 0.0
C356 C 0.53977 0.43292 0.12679 0.0
N357 N 0.56426 0.44325 0.14663 0.0
N358 N 0.58024 0.47078 0.14013 0.0
C359 C 0.56695 0.47862 0.11526 0.0
C360 C 0.5407 0.45518 0.10645 0.0
C361 C 0.51665 0.40223 0.12598 0.0
H362 H 0.52566 0.38898 0.11587 0.0
H363 H 0.50866 0.39515 0.15409 0.0
H364 H 0.49857 0.39898 0.10812 0.0
O365 O 0.62165 0.44027 0.15791 0.0
O366 O 0.64641 0.48699 0.14801 0.0
H367 H 0.60314 0.51763 0.09617 0.0
H368 H 0.57065 0.50654 0.07071 0.0
C369 C 0.57956 0.5077 0.09836 0.0
H370 H 0.57411 0.52132 0.11531 0.0
H371 H 0.65939 0.54837 0.12726 0.0
O372 O 0.56428 0.38539 0.16641 0.0
C373 C 0.64465 0.46258 0.14809 0.0
Co374 Co 0.55082 0.14546 0.16899 0.0
Co375 Co 0.48509 0.11195 0.1527 0.0
C376 C 0.50657 0.12981 0.22944 0.0
O377 O 0.53273 0.14152 0.21892 0.0
O378 O 0.48594 0.11627 0.20697 0.0
C379 C 0.60394 0.1914 0.18421 0.0
O380 O 0.58623 0.19907 0.19795 0.0
C381 C 0.42691 0.06332 0.14669 0.0
C382 C 0.41456 0.07124 0.09217 0.0
C383 C 0.40613 0.05094 0.11956 0.0
N384 N 0.44741 0.08893 0.13469 0.0
N385 N 0.4396 0.09389 0.10257 0.0
C386 C 0.42764 0.05151 0.18341 0.0
H387 H 0.44031 0.06909 0.20287 0.0
H388 H 0.43798 0.03822 0.18117 0.0
H389 H 0.40563 0.0382 0.19437 0.0
C390 C 0.54774 0.09602 0.12599 0.0
N391 N 0.53576 0.11014 0.14218 0.0
N392 N 0.50805 0.09638 0.13519 0.0
C393 C 0.50164 0.07313 0.11453 0.0
C394 C 0.52633 0.07189 0.1082 0.0
C395 C 0.57913 0.10608 0.12651 0.0
H396 H 0.58709 0.11061 0.15505 0.0
H397 H 0.58368 0.08996 0.11423 0.0
H398 H 0.5907 0.12643 0.11105 0.0
O399 O 0.54373 0.17351 0.14289 0.0
O400 O 0.49693 0.15028 0.13348 0.0
H401 H 0.46485 0.06549 0.08342 0.0
H402 H 0.47341 0.03757 0.0793 0.0
C403 C 0.47277 0.05311 0.09854 0.0
H404 H 0.45769 0.04081 0.1207 0.0
H405 H 0.45215 0.11204 0.08681 0.0
O406 O 0.59353 0.16607 0.17184 0.0
C407 C 0.52114 0.17303 0.13178 0.0
Co408 Co 0.39635 0.8355 0.88036 0.0
Co409 Co 0.36175 0.86537 0.8986 0.0
C410 C 0.36614 0.84636 0.82081 0.0
O411 O 0.38479 0.83917 0.82885 0.0
O412 O 0.35664 0.85628 0.84524 0.0
C413 C 0.40299 0.78882 0.87199 0.0
O414 O 0.37772 0.78045 0.85727 0.0
C415 C 0.36254 0.91787 0.88982 0.0
C416 C 0.33356 0.9171 0.93307 0.0
C417 C 0.35287 0.93443 0.90657 0.0
N418 N 0.35007 0.89229 0.90621 0.0
N419 N 0.3325 0.89165 0.93177 0.0
C420 C 0.38572 0.92688 0.86178 0.0
H421 H 0.39613 0.91366 0.86366 0.0
H422 H 0.40209 0.94983 0.86509 0.0
H423 H 0.37607 0.92358 0.83418 0.0
C424 C 0.44224 0.88636 0.92253 0.0
N425 N 0.41588 0.8707 0.90721 0.0
N426 N 0.40007 0.8819 0.91674 0.0
C427 C 0.41558 0.90455 0.93889 0.0
C428 C 0.44291 0.90856 0.94286 0.0
C429 C 0.46577 0.87948 0.91893 0.0
H430 H 0.46604 0.872 0.89079 0.0
H431 H 0.48689 0.89837 0.92573 0.0
H432 H 0.46158 0.86183 0.93797 0.0
O433 O 0.35949 0.808 0.90529 0.0
O434 O 0.3355 0.82938 0.92289 0.0
H435 H 0.38133 0.90648 0.96635 0.0
H436 H 0.41649 0.93075 0.98413 0.0
C437 C 0.40405 0.92088 0.95885 0.0
H438 H 0.40585 0.93839 0.94124 0.0
H439 H 0.32083 0.87441 0.94927 0.0
O440 O 0.41814 0.81481 0.88183 0.0
C441 C 0.33779 0.80711 0.92054 0.0
Co442 Co 0.14866 0.54836 0.892 0.0
Co443 Co 0.10922 0.48263 0.89374 0.0
C444 C 0.1366 0.51501 0.82334 0.0
O445 O 0.14694 0.53987 0.83764 0.0
O446 O 0.122 0.49263 0.84243 0.0
C447 C 0.17286 0.61118 0.88932 0.0
O448 O 0.15255 0.60723 0.86614 0.0
C449 C 0.05426 0.4363 0.87397 0.0
C450 C 0.04795 0.40222 0.91265 0.0
C451 C 0.03421 0.40947 0.88625 0.0
N452 N 0.07848 0.44495 0.89307 0.0
N453 N 0.07488 0.42439 0.91572 0.0
C454 C 0.04966 0.45499 0.84791 0.0
H455 H 0.06439 0.47791 0.85428 0.0
H456 H 0.02707 0.45022 0.84882 0.0
H457 H 0.05441 0.45087 0.81983 0.0
C458 C 0.09963 0.54507 0.93724 0.0
N459 N 0.1122 0.53365 0.91627 0.0
N460 N 0.09616 0.50561 0.91726 0.0
C461 C 0.0731 0.49839 0.93869 0.0
C462 C 0.07412 0.52298 0.95154 0.0
C463 C 0.11259 0.57627 0.94531 0.0
H464 H 0.11273 0.58759 0.92001 0.0
H465 H 0.10027 0.58015 0.96661 0.0
H466 H 0.13512 0.58507 0.95442 0.0
O467 O 0.17074 0.53119 0.91345 0.0
O468 O 0.14223 0.48422 0.9188 0.0
H469 H 0.06376 0.45689 0.95706 0.0
H470 H 0.04052 0.46851 0.97589 0.0
C471 C 0.05224 0.46858 0.95097 0.0
H472 H 0.03618 0.45734 0.92918 0.0
H473 H 0.09025 0.42609 0.9345 0.0
O474 O 0.17379 0.58974 0.9019 0.0
C475 C 0.16664 0.50663 0.92265 0.0
Co476 Co 0.41918 0.57488 0.88189 0.0
Co477 Co 0.48444 0.61462 0.8898 0.0
C478 C 0.45183 0.60382 0.81694 0.0
O479 O 0.42783 0.58314 0.82794 0.0
O480 O 0.47292 0.61647 0.83876 0.0
C481 C 0.35632 0.52986 0.88014 0.0
O482 O 0.35952 0.51704 0.85155 0.0
C483 C 0.53706 0.62308 0.86183 0.0
C484 C 0.57004 0.65397 0.89958 0.0
C485 C 0.56612 0.63784 0.86838 0.0
N486 N 0.52418 0.62996 0.88788 0.0
N487 N 0.54385 0.64837 0.91059 0.0
C488 C 0.52145 0.60172 0.8322 0.0
H489 H 0.50008 0.58494 0.84204 0.0
H490 H 0.534 0.59169 0.8228 0.0
H491 H 0.51817 0.61273 0.80871 0.0
C492 C 0.43334 0.5346 0.92262 0.0
N493 N 0.44025 0.55955 0.90569 0.0
N494 N 0.46795 0.57711 0.90933 0.0
C495 C 0.47957 0.56403 0.92838 0.0
C496 C 0.45819 0.53655 0.93729 0.0
C497 C 0.40354 0.50964 0.92494 0.0
H498 H 0.39421 0.50383 0.89713 0.0
H499 H 0.40323 0.49089 0.93787 0.0
H500 H 0.39006 0.51585 0.94106 0.0
O501 O 0.42867 0.61262 0.90354 0.0
O502 O 0.47467 0.63964 0.91742 0.0
H503 H 0.51362 0.56617 0.96238 0.0
H504 H 0.52396 0.58015 0.91684 0.0
C505 C 0.51027 0.57835 0.94043 0.0
H506 H 0.51698 0.60014 0.95063 0.0
H507 H 0.53942 0.65711 0.93335 0.0
O508 O 0.37786 0.5518 0.89353 0.0
C509 C 0.44929 0.63557 0.91681 0.0
Co510 Co 0.49457 0.72435 0.50438 0.0
Co511 Co 0.53073 0.69461 0.49781 0.0
C512 C 0.50503 0.69896 0.5702 0.0
O513 O 0.49609 0.71522 0.55774 0.0
O514 O 0.51832 0.69048 0.5496 0.0
C515 C 0.44507 0.72684 0.50765 0.0
O516 O 0.43782 0.702 0.52259 0.0
C517 C 0.58441 0.70009 0.51648 0.0
C518 C 0.58973 0.67256 0.47627 0.0
C519 C 0.60377 0.69246 0.50378 0.0
N520 N 0.56033 0.686 0.49675 0.0
N521 N 0.56332 0.66922 0.47305 0.0
C522 C 0.58959 0.7228 0.54386 0.0
H523 H 0.57594 0.73233 0.53787 0.0
H524 H 0.61252 0.7398 0.54414 0.0
H525 H 0.58375 0.71297 0.57137 0.0
C526 C 0.54545 0.77076 0.46275 0.0
N527 N 0.53121 0.74547 0.48077 0.0
N528 N 0.54554 0.7318 0.47705 0.0
C529 C 0.56903 0.7477 0.45638 0.0
C530 C 0.5702 0.77312 0.44714 0.0
C531 C 0.53476 0.79139 0.45896 0.0
H532 H 0.52555 0.79318 0.48525 0.0
H533 H 0.55223 0.81275 0.45017 0.0
H534 H 0.51739 0.7831 0.43823 0.0
O535 O 0.47099 0.68623 0.48018 0.0
O536 O 0.49704 0.66534 0.47153 0.0
H537 H 0.59988 0.74961 0.41685 0.0
H538 H 0.60462 0.74078 0.46247 0.0
C539 C 0.58834 0.73754 0.44162 0.0
H540 H 0.57563 0.71459 0.43437 0.0
H541 H 0.54791 0.65659 0.4537 0.0
O542 O 0.47108 0.74309 0.49836 0.0
C543 C 0.47341 0.66519 0.46885 0.0
Co544 Co 0.23231 0.75317 0.51867 0.0
Co545 Co 0.27293 0.81525 0.49563 0.0
C546 C 0.26572 0.79396 0.57556 0.0
O547 O 0.24406 0.76921 0.56965 0.0
O548 O 0.27741 0.81152 0.54935 0.0
C549 C 0.22145 0.69918 0.53096 0.0
O550 O 0.24569 0.71531 0.54837 0.0
C551 C 0.27588 0.86822 0.50534 0.0
C552 C 0.30684 0.89669 0.46398 0.0
C553 C 0.28757 0.8952 0.49031 0.0
N554 N 0.28728 0.85429 0.48837 0.0
N555 N 0.30599 0.87131 0.46385 0.0
C556 C 0.25201 0.85442 0.5326 0.0
H557 H 0.24036 0.83084 0.52974 0.0
H558 H 0.23672 0.86241 0.52944 0.0
H559 H 0.2612 0.85948 0.56053 0.0
C560 C 0.19001 0.76301 0.4746 0.0
N561 N 0.21602 0.77091 0.48948 0.0
N562 N 0.23467 0.79637 0.47709 0.0
C563 C 0.2215 0.80506 0.45316 0.0
C564 C 0.19271 0.78455 0.45104 0.0
C565 C 0.16355 0.7349 0.48129 0.0
H566 H 0.16199 0.71942 0.46021 0.0
H567 H 0.16462 0.72648 0.50851 0.0
H568 H 0.14416 0.73711 0.47924 0.0
O569 O 0.26855 0.75856 0.49522 0.0
O570 O 0.29647 0.80175 0.4722 0.0
H571 H 0.25853 0.8377 0.42527 0.0
H572 H 0.22478 0.83038 0.40575 0.0
C573 C 0.23626 0.83225 0.43165 0.0
H574 H 0.23656 0.84979 0.44776 0.0
H575 H 0.31726 0.86529 0.44624 0.0
O576 O 0.20792 0.71093 0.51815 0.0
C577 C 0.2912 0.77637 0.4782 0.0
Co578 Co 0.21936 0.47837 0.50853 0.0
Co579 Co 0.15341 0.44858 0.50329 0.0
C580 C 0.18703 0.47285 0.57488 0.0
O581 O 0.21135 0.47779 0.56274 0.0
O582 O 0.16519 0.46274 0.55406 0.0
C583 C 0.28241 0.49828 0.50918 0.0
O584 O 0.27911 0.48044 0.5356 0.0
C585 C 0.10219 0.40269 0.5324 0.0
C586 C 0.06809 0.39831 0.4949 0.0
C587 C 0.07307 0.38706 0.52627 0.0
N588 N 0.11405 0.42226 0.50597 0.0
N589 N 0.0937 0.4196 0.48339 0.0
C590 C 0.11887 0.3985 0.56208 0.0
H591 H 0.14041 0.40385 0.55193 0.0
H592 H 0.10733 0.37613 0.57223 0.0
H593 H 0.12183 0.4131 0.5851 0.0
C594 C 0.20824 0.42541 0.46631 0.0
N595 N 0.19993 0.44178 0.48484 0.0
N596 N 0.17187 0.42965 0.48277 0.0
C597 C 0.16141 0.4052 0.46334 0.0
C598 C 0.18398 0.40146 0.45237 0.0
C599 C 0.23878 0.43291 0.46141 0.0
H600 H 0.24869 0.43485 0.48858 0.0
H601 H 0.24047 0.4165 0.44506 0.0
H602 H 0.2508 0.45401 0.4477 0.0
O603 O 0.20695 0.5045 0.48744 0.0
O604 O 0.16035 0.4826 0.47575 0.0
H605 H 0.12763 0.37123 0.43116 0.0
H606 H 0.11783 0.37532 0.47686 0.0
C607 C 0.13057 0.38701 0.45258 0.0
H608 H 0.12235 0.40083 0.44215 0.0
H609 H 0.09727 0.43237 0.46045 0.0
O610 O 0.26077 0.499 0.49668 0.0
C611 C 0.18501 0.50498 0.47524 0.0
H612 H 0.96907 0.33921 0.16268 0.0
H613 H 0.94676 0.23249 0.30325 0.0
H614 H 0.91721 0.33186 0.25618 0.0
H615 H 0.03292 0.28524 0.26284 0.0
H616 H 0.93749 0.27164 0.29189 0.0
H617 H -0.00439 0.32269 0.20043 0.0
C618 C 0.96388 0.33483 0.19136 0.0
C619 C 0.94112 0.33677 0.20652 0.0
C620 C 0.95864 0.27484 0.28618 0.0
C621 C 0.9706 0.31765 0.24926 0.0
C622 C 0.96387 0.25247 0.2925 0.0
C623 C -0.01009 0.25501 0.28141 0.0
C624 C 0.97944 0.29941 0.26805 0.0
C625 C 0.01172 0.28163 0.26884 0.0
C626 C 0.97911 0.32576 0.21294 0.0
C627 C 0.93492 0.33089 0.24371 0.0
N628 N 0.00567 0.30259 0.26109 0.0
N629 N 0.94914 0.32086 0.26371 0.0
H630 H 0.59314 0.57381 0.22667 0.0
H631 H 0.65561 0.70125 0.27496 0.0
H632 H 0.61504 0.60531 0.11648 0.0
H633 H 0.66766 0.72392 0.161 0.0
H634 H 0.61138 0.65798 0.26007 0.0
H635 H 0.58741 0.61407 0.24199 0.0
C636 C 0.59604 0.5888 0.20531 0.0
C637 C 0.60593 0.58693 0.17063 0.0
C638 C 0.62309 0.67244 0.23809 0.0
C639 C 0.60215 0.63485 0.18903 0.0
C640 C 0.64852 0.69731 0.24679 0.0
C641 C 0.66596 0.71534 0.21898 0.0
C642 C 0.61612 0.66507 0.2011 0.0
C643 C 0.6553 0.71018 0.18327 0.0
C644 C 0.59323 0.61236 0.2143 0.0
C645 C 0.60887 0.60685 0.14413 0.0
N646 N 0.63139 0.68506 0.17521 0.0
N647 N 0.60776 0.63044 0.15413 0.0
H648 H 0.35688 0.03509 0.08207 0.0
H649 H 0.27638 0.94501 0.23391 0.0
H650 H 0.39687 0.00038 0.15128 0.0
H651 H 0.23373 0.94244 0.13312 0.0
H652 H 0.31847 0.95334 0.19918 0.0
H653 H 0.3111 0.99169 0.09071 0.0
C654 C 0.3561 0.01824 0.09894 0.0
C655 C 0.38019 0.02238 0.11864 0.0
C656 C 0.29946 0.94968 0.18446 0.0
C657 C 0.32788 0.97278 0.12898 0.0
C658 C 0.27553 0.9451 0.20437 0.0
C659 C 0.25199 0.94382 0.18637 0.0
C660 C 0.30005 0.95424 0.14664 0.0
C661 C 0.25157 0.9436 0.14813 0.0
C662 C 0.32995 -0.00675 0.10362 0.0
C663 C 0.37825 -0.00074 0.13852 0.0
N664 N 0.2757 0.94975 0.12949 0.0
N665 N 0.35224 0.97577 0.14439 0.0
H666 H 0.30676 0.02658 0.78942 0.0
H667 H 0.35594 0.97501 0.95344 0.0
H668 H 0.2874 0.03196 0.9023 0.0
H669 H 0.36527 0.96069 0.83967 0.0
H670 H 0.35386 0.01769 0.93646 0.0
H671 H 0.35007 0.02629 0.80856 0.0
C672 C 0.31208 0.02844 0.81819 0.0
C673 C 0.29313 0.02824 0.84444 0.0
C674 C 0.35748 0.00579 0.91535 0.0
C675 C 0.34175 0.02697 0.86653 0.0
C676 C 0.3584 0.98131 0.92502 0.0
C677 C 0.35987 0.96381 0.89784 0.0
C678 C 0.35701 0.01202 0.87823 0.0
C679 C 0.36388 0.97328 0.86161 0.0
C680 C 0.33687 0.02852 0.82913 0.0
C681 C 0.30124 0.03159 0.88121 0.0
N682 N 0.36161 -0.0036 0.85276 0.0
N683 N 0.3246 0.02998 0.89131 0.0
H684 H 0.98719 0.37695 0.92785 0.0
H685 H 0.9504 0.27643 0.76895 0.0
H686 H 0.01392 0.40019 0.81628 0.0
H687 H 0.93265 0.25473 0.88288 0.0
H688 H 0.94832 0.31993 0.78019 0.0
H689 H 0.9434 0.3351 0.9063 0.0
C690 C 0.98337 0.37363 0.89875 0.0
C691 C 0.00459 0.39108 0.87376 0.0
C692 C 0.94375 0.30506 0.80246 0.0
C693 C 0.95559 0.34288 0.84909 0.0
C694 C 0.94521 0.28037 0.79611 0.0
C695 C 0.94292 0.26259 0.82533 0.0
C696 C 0.94117 0.31239 0.83849 0.0
C697 C 0.93514 0.26801 0.8596 0.0
C698 C 0.95831 0.34987 0.88639 0.0
C699 C -0.00163 0.38668 0.83645 0.0
N700 N 0.9353 0.29287 0.86545 0.0
N701 N 0.97476 0.36237 0.82515 0.0
H702 H 0.61378 0.63546 0.88652 0.0
H703 H 0.69974 0.74262 0.74782 0.0
H704 H 0.57002 0.64721 0.79534 0.0
H705 H 0.73124 0.68884 0.78993 0.0
H706 H 0.65075 0.70357 0.7568 0.0
H707 H 0.65575 0.64976 0.8477 0.0
C708 C 0.61285 0.64034 0.85804 0.0
C709 C 0.5888 0.64049 0.844 0.0
C710 C 0.66838 0.70005 0.76328 0.0
C711 C 0.6364 0.6573 0.79995 0.0
C712 C 0.69632 0.72239 0.75833 0.0
C713 C 0.71934 0.71949 0.77068 0.0
C714 C 0.6638 0.67515 0.78131 0.0
C715 C 0.7139 0.6926 0.78284 0.0
C716 C 0.63658 0.64819 0.83581 0.0
C717 C 0.58829 0.64681 0.80701 0.0
N718 N 0.68655 0.67165 0.78921 0.0
N719 N 0.61216 0.65579 0.78639 0.0
H720 H 0.68431 0.63916 0.62681 0.0
H721 H 0.6509 0.70414 0.46386 0.0
H722 H 0.70144 0.63254 0.51328 0.0
H723 H 0.62248 0.70138 0.5745 0.0
H724 H 0.693 0.70335 0.48704 0.0
H725 H 0.6861 0.68437 0.61351 0.0
C726 C 0.68927 0.64761 0.59931 0.0
C727 C 0.69175 0.63159 0.57089 0.0
C728 C 0.67811 0.70397 0.50636 0.0
C729 C 0.69337 0.68278 0.55543 0.0
C730 C 0.65401 0.70422 0.49309 0.0
C731 C 0.63275 0.70159 0.51732 0.0
C732 C 0.67987 0.69947 0.54383 0.0
C733 C 0.63808 0.70275 0.55485 0.0
C734 C 0.69059 0.67355 0.5918 0.0
C735 C 0.69908 0.64385 0.53608 0.0
N736 N 0.66075 0.70069 0.56702 0.0
N737 N 0.69895 0.66841 0.52915 0.0
H738 H 0.27443 0.90755 0.55791 0.0
H739 H 0.33889 0.03939 0.60637 0.0
H740 H 0.28873 0.9362 0.44603 0.0
H741 H 0.35353 0.05855 0.49161 0.0
H742 H 0.29565 -0.00515 0.59168 0.0
H743 H 0.27575 0.95075 0.57592 0.0
C744 C 0.27692 0.92253 0.53676 0.0
C745 C 0.28217 0.91846 0.50043 0.0
C746 C 0.30794 0.00865 0.56945 0.0
C747 C 0.28631 0.96988 0.52154 0.0
C748 C 0.33267 0.03423 0.57803 0.0
C749 C 0.35021 0.05194 0.5501 0.0
C750 C 0.30183 0.00029 0.5326 0.0
C751 C 0.34083 0.04517 0.51397 0.0
C752 C 0.27816 0.94785 0.54727 0.0
C753 C 0.28567 0.93902 0.4746 0.0
N754 N 0.31762 0.01948 0.5062 0.0
N755 N 0.28839 0.9642 0.4858 0.0
H756 H 0.02565 0.33649 0.50944 0.0
H757 H 0.94173 0.36041 0.65019 0.0
H758 H 0.07003 0.39313 0.59945 0.0
H759 H 0.90837 0.27531 0.60658 0.0
H760 H -0.00971 0.36937 0.6401 0.0
H761 H 0.98395 0.30946 0.54884 0.0
C762 C 0.02682 0.34263 0.53782 0.0
C763 C 0.05097 0.36702 0.5513 0.0
C764 C 0.97235 0.34847 0.63345 0.0
C765 C 0.00359 0.337 0.59599 0.0
C766 C 0.94464 0.34343 0.63905 0.0
C767 C 0.92118 0.31787 0.62668 0.0
C768 C 0.9763 0.32796 0.61478 0.0
C769 C 0.92601 0.29619 0.61367 0.0
C770 C 0.00321 0.32716 0.56037 0.0
C771 C 0.05174 0.3743 0.58817 0.0
N772 N 0.95315 0.30206 0.60676 0.0
N773 N 0.02799 0.35979 0.60908 0.0
H774 H 0.20346 0.40414 0.38246 0.0
H775 H 0.11521 0.23311 0.35871 0.0
H776 H 0.15749 0.34482 0.46898 0.0
H777 H 0.14289 0.29131 0.26784 0.0
H778 H 0.14055 0.27388 0.40035 0.0
H779 H 0.191 0.36341 0.34127 0.0
C780 C 0.19138 0.38253 0.39297 0.0
C781 C 0.1816 0.37774 0.42914 0.0
C782 C 0.14162 0.2778 0.37127 0.0
C783 C 0.167 0.33113 0.38232 0.0
C784 C 0.12743 0.25449 0.34751 0.0
C785 C 0.12722 0.25891 0.30986 0.0
C786 C 0.15567 0.30584 0.35731 0.0
C787 C 0.14285 0.28705 0.29671 0.0
C788 C 0.18407 0.35931 0.36944 0.0
C789 C 0.16557 0.34936 0.44131 0.0
N790 N 0.15623 0.30949 0.3204 0.0
N791 N 0.15868 0.32719 0.41798 0.0
H792 H 0.56491 0.78573 0.37611 0.0
H793 H 0.73586 0.87069 0.34566 0.0
H794 H 0.62649 0.80889 0.463 0.0
H795 H 0.67415 0.82918 0.25964 0.0
H796 H 0.69623 0.85896 0.38845 0.0
H797 H 0.60458 0.8123 0.33295 0.0
C798 C 0.58673 0.79735 0.38629 0.0
C799 C 0.59245 0.79552 0.42322 0.0
C800 C 0.69136 0.85302 0.36002 0.0
C801 C 0.63803 0.82529 0.37398 0.0
C802 C 0.71401 0.86003 0.33556 0.0
C803 C 0.70825 0.85127 0.299 0.0
C804 C 0.66272 0.83712 0.34782 0.0
C805 C 0.67948 0.83669 0.28752 0.0
C806 C 0.60941 0.8122 0.36162 0.0
C807 C 0.62119 0.81019 0.43481 0.0
N808 N 0.65784 0.82992 0.31179 0.0
N809 N 0.64287 0.82424 0.41033 0.0
H810 H 0.09545 0.85743 0.35072 0.0
H811 H 0.156 0.80267 0.47291 0.0
H812 H 0.14087 0.83884 0.26852 0.0
H813 H 0.18231 0.7748 0.37806 0.0
H814 H 0.12993 0.81856 0.43368 0.0
H815 H 0.10553 0.82941 0.39475 0.0
C816 C 0.107 0.84686 0.3418 0.0
C817 C 0.11729 0.85042 0.30592 0.0
C818 C 0.14051 0.80821 0.42113 0.0
C819 C 0.13028 0.81921 0.35662 0.0
C820 C 0.15531 0.79894 0.44379 0.0
C821 C 0.17086 0.78693 0.42875 0.0
C822 C 0.14151 0.80574 0.38289 0.0
C823 C 0.17013 0.78347 0.39077 0.0
C824 C 0.11328 0.83119 0.36716 0.0
C825 C 0.13251 0.8366 0.29593 0.0
N826 N 0.15605 0.79308 0.36923 0.0
N827 N 0.13873 0.82193 0.32109 0.0
H828 H 0.40243 0.20841 0.67328 0.0
H829 H 0.23188 0.11215 0.70449 0.0
H830 H 0.34242 0.15771 0.58932 0.0
H831 H 0.29326 0.14417 0.79226 0.0
H832 H 0.2712 0.13789 0.66069 0.0
H833 H 0.36202 0.19433 0.71569 0.0
C834 C 0.38067 0.19508 0.66349 0.0
C835 C 0.37567 0.18456 0.62763 0.0
C836 C 0.27606 0.13984 0.68958 0.0
C837 C 0.32936 0.16783 0.67604 0.0
C838 C 0.25356 0.12541 0.71456 0.0
C839 C 0.25932 0.12652 0.75203 0.0
C840 C 0.3046 0.15548 0.70212 0.0
C841 C 0.28791 0.14324 0.76362 0.0
C842 C 0.35763 0.18677 0.68776 0.0
C843 C 0.34712 0.16663 0.6166 0.0
N844 N 0.30947 0.15694 0.73883 0.0
N845 N 0.32512 0.15876 0.64065 0.0
H846 H 0.8074 0.17005 0.59566 0.0
H847 H 0.82808 0.13278 0.80056 0.0
H848 H 0.76908 0.18611 0.68901 0.0
H849 H 0.86654 0.1165 0.70756 0.0
H850 H 0.79926 0.14419 0.75931 0.0
H851 H 0.82214 0.14256 0.63457 0.0
C852 C 0.80129 0.16694 0.62417 0.0
C853 C 0.78671 0.17999 0.63913 0.0
C854 C 0.81344 0.13743 0.74778 0.0
C855 C 0.80426 0.1494 0.6842 0.0
C856 C 0.82962 0.13059 0.77139 0.0
C857 C 0.84928 0.1232 0.75739 0.0
C858 C 0.81727 0.13736 0.7098 0.0
C859 C 0.85119 0.12158 0.71937 0.0
C860 C 0.80993 0.1515 0.64649 0.0
C861 C 0.77994 0.176 0.6764 0.0
N862 N 0.8357 0.12894 0.69691 0.0
N863 N 0.78903 0.16136 0.69771 0.0
H864 H 0.83695 0.68529 0.79968 0.0
H865 H 0.81119 0.62486 0.5952 0.0
H866 H 0.86881 0.73878 0.7045 0.0
H867 H 0.77582 0.57142 0.68986 0.0
H868 H 0.83997 0.66599 0.63523 0.0
H869 H 0.82207 0.64292 0.76099 0.0
C870 C 0.84162 0.68811 0.77074 0.0
C871 C 0.8544 0.71549 0.75524 0.0
C872 C 0.82645 0.64518 0.64736 0.0
C873 C 0.8367 0.66717 0.71052 0.0
C874 C 0.81027 0.62166 0.62446 0.0
C875 C 0.7915 0.59471 0.63932 0.0
C876 C 0.82355 0.6418 0.68549 0.0
C877 C 0.79043 0.5918 0.67741 0.0
C878 C 0.83288 0.66393 0.74857 0.0
C879 C 0.85934 0.71801 0.71749 0.0
N880 N 0.80596 0.61508 0.69918 0.0
N881 N 0.85024 0.69418 0.69639 0.0
H882 H 0.91321 0.46933 0.06214 0.0
H883 H 0.08195 0.53458 1.0247 0.0
H884 H 0.97255 0.4701 0.14156 0.0
H885 H 0.01896 0.50981 0.93931 0.0
H886 H 0.044 0.52266 0.07019 0.0
H887 H 0.95342 0.49544 1.01945 0.0
C888 C 0.93484 0.4758 0.07094 0.0
C889 C 0.93968 0.46786 0.10548 0.0
C890 C 0.03857 0.52047 0.04147 0.0
C891 C 0.98569 0.4973 0.0568 0.0
C892 C 0.0603 0.52763 1.01554 0.0
C893 C 0.05361 0.52362 0.97824 0.0
C894 C 0.00992 0.50924 1.03 0.0
C895 C 0.02503 0.51365 0.96781 0.0
C896 C 0.95773 0.49043 0.0465 0.0
C897 C 0.96802 0.47613 0.11527 0.0
N898 N 0.00424 0.50666 0.99348 0.0
N899 N -0.01011 0.49024 0.09108 0.0
H900 H 0.49077 0.51293 0.91934 0.0
H901 H 0.49575 0.46316 0.12244 0.0
H902 H 0.4361 0.51357 1.00452 0.0
H903 H 0.53964 0.45086 0.03233 0.0
H904 H 0.46944 0.47649 0.07925 0.0
H905 H 0.50483 0.48547 0.95893 0.0
C906 C 0.48125 0.50667 0.9462 0.0
C907 C 0.46216 0.51535 0.95866 0.0
C908 C 0.48428 0.4702 0.06877 0.0
C909 C 0.47873 0.48453 1.00475 0.0
C910 C 0.49907 0.46232 0.09341 0.0
C911 C 0.51949 0.45547 0.08079 0.0
C912 C 0.49038 0.47174 0.03123 0.0
C913 C 0.52369 0.45554 0.04304 0.0
C914 C 0.48936 0.4911 0.96891 0.0
C915 C 0.4507 0.50704 0.99383 0.0
N916 N 0.50956 0.46389 1.01966 0.0
N917 N 0.45945 0.49244 1.01585 0.0
H918 H 0.54043 0.07647 0.03608 0.0
H919 H 0.46116 0.90575 1.01176 0.0
H920 H 0.51213 0.01734 0.12594 0.0
H921 H 0.47527 0.96464 0.92448 0.0
H922 H 0.49 0.94659 0.0525 0.0
H923 H 0.5275 0.03644 0.99383 0.0
C924 C 0.53262 0.05518 0.047 0.0
C925 C 0.52789 0.05026 0.08458 0.0
C926 C 0.48742 0.95061 1.0242 0.0
C927 C 0.51194 0.00406 0.03636 0.0
C928 C 0.47125 0.92728 1.00087 0.0
C929 C 0.46632 0.93187 0.96457 0.0
C930 C 0.49865 0.97877 1.01114 0.0
C931 C 0.47904 0.96022 0.95212 0.0
C932 C 0.52482 0.03224 1.02286 0.0
C933 C 0.51668 0.02209 0.09721 0.0
N934 N 0.49441 0.98253 0.97533 0.0
N935 N 0.50884 6e-05 0.0732 0.0
H936 H 0.06207 0.19062 0.09268 0.0
H937 H 0.91981 0.1101 0.97408 0.0
H938 H 0.97889 0.15532 0.1433 0.0
H939 H -0.00611 0.18657 0.93431 0.0
H940 H 0.94217 0.11985 0.03508 0.0
H941 H 0.03885 0.18289 0.03247 0.0
C942 C 0.039 0.18133 0.09118 0.0
C943 C 0.0225 0.17387 0.1232 0.0
C944 C 0.95336 0.13453 1.01294 0.0
C945 C -0.00426 0.16419 0.05441 0.0
C946 C 0.94061 0.129 0.97817 0.0
C947 C 0.95478 0.14767 0.94899 0.0
C948 C 0.9809 0.15836 1.01833 0.0
C949 C 0.98192 0.17173 0.95598 0.0
C950 C 0.02578 0.17696 0.05686 0.0
C951 C -0.00743 0.16173 0.11946 0.0
N952 N -0.0058 0.17616 0.98965 0.0
N953 N 0.98016 0.15697 0.08581 0.0
H954 H 0.78563 0.77433 0.92692 0.0
H955 H 0.83254 0.8759 0.10211 0.0
H956 H 0.87429 0.83002 0.95635 0.0
H957 H 0.75503 0.79355 0.10208 0.0
H958 H 0.84495 0.86459 0.04235 0.0
H959 H 0.77118 0.78527 0.98571 0.0
C960 C 0.80207 0.78862 0.94583 0.0
C961 C 0.83127 0.80102 0.93671 0.0
C962 C 0.82508 0.84913 0.05529 0.0
C963 C 0.81478 0.81441 1.00348 0.0
C964 C 0.81779 0.85571 0.08922 0.0
C965 C 0.79262 0.83571 0.10722 0.0
C966 C 0.80685 0.82256 0.03873 0.0
C967 C 0.77462 0.80965 0.08926 0.0
C968 C 0.79379 0.79491 0.97931 0.0
C969 C 0.85157 0.81963 0.96229 0.0
N970 N 0.78202 0.80387 0.05604 0.0
N971 N 0.84296 0.82599 0.99419 0.0
H972 H 0.13458 0.03758 0.95613 0.0
H973 H 0.16531 0.94598 0.10389 0.0
H974 H 0.20139 0.01599 0.94666 0.0
H975 H 0.09141 0.95691 0.11081 0.0
H976 H 0.17844 0.97202 0.04638 0.0
H977 H 0.11936 0.01062 1.01383 0.0
C978 C 0.14645 0.02774 0.96648 0.0
C979 C 0.16945 0.02927 0.94637 0.0
C980 C 0.15914 0.96854 0.0601 0.0
C981 C 0.15169 -0.00221 1.01213 0.0
C982 C 0.15146 0.95338 0.09295 0.0
C983 C 0.12703 0.94891 0.11231 0.0
C984 C 0.14259 0.97992 0.04622 0.0
C985 C 0.11018 0.9594 0.09667 0.0
C986 C 0.13748 0.01201 0.99922 0.0
C987 C 0.18359 0.01553 0.96101 0.0
N988 N 0.11841 0.97464 0.06479 0.0
N989 N 0.17448 0.00045 0.99269 0.0
H990 H 0.61478 0.51045 0.28202 0.0
H991 H 0.69647 0.4757 0.43824 0.0
H992 H 0.61189 0.42929 0.28873 0.0
H993 H 0.67122 0.53949 0.45163 0.0
H994 H 0.6705 0.46159 0.37997 0.0
H995 H 0.63866 0.52367 0.34158 0.0
C996 C 0.61868 0.49516 0.29635 0.0
C997 C 0.61101 0.46857 0.2804 0.0
C998 C 0.67078 0.47877 0.39558 0.0
C999 C 0.63943 0.48407 0.34827 0.0
C1000 C 0.68594 0.48712 0.42868 0.0
C1001 C 0.68624 0.50898 0.44996 0.0
C1002 C 0.65609 0.4926 0.38323 0.0
C1003 C 0.67169 0.52259 0.43623 0.0
C1004 C 0.6325 0.50281 0.33028 0.0
C1005 C 0.61699 0.44981 0.30015 0.0
N1006 N 0.65735 0.51427 0.40382 0.0
N1007 N 0.63116 0.45806 0.33276 0.0
H1008 H 0.49763 0.21746 0.42424 0.0
H1009 H 0.45624 0.09926 0.2677 0.0
H1010 H 0.42959 0.13004 0.43677 0.0
H1011 H 0.54051 0.17387 0.27633 0.0
H1012 H 0.44316 0.11225 0.32577 0.0
H1013 H 0.50991 0.20459 0.36528 0.0
C1014 C 0.48484 0.19573 0.41428 0.0
C1015 C 0.46241 0.17487 0.43556 0.0
C1016 C 0.46458 0.12567 0.3151 0.0
C1017 C 0.47661 0.15989 0.36814 0.0
C1018 C 0.47214 0.1182 0.28197 0.0
C1019 C 0.49966 0.13531 0.26707 0.0
C1020 C 0.4844 0.15084 0.33334 0.0
C1021 C 0.51919 0.15978 0.28686 0.0
C1022 C 0.49213 0.18831 0.38082 0.0
C1023 C 0.447 0.14689 0.42138 0.0
N1024 N 0.51111 0.16694 0.31867 0.0
N1025 N 0.45433 0.14027 0.38869 0.0
H1026 H 0.83981 0.32413 0.27048 0.0
H1027 H 0.83869 0.33764 0.48638 0.0
H1028 H 0.84934 0.40091 0.32036 0.0
H1029 H 0.78651 0.25763 0.43026 0.0
H1030 H 0.85136 0.36244 0.42728 0.0
H1031 H 0.82904 0.30111 0.33005 0.0
C1032 C 0.8399 0.33636 0.29398 0.0
C1033 C 0.84555 0.36469 0.29009 0.0
C1034 C 0.83725 0.33945 0.42797 0.0
C1035 C 0.83336 0.33807 0.35909 0.0
C1036 C 0.83019 0.32518 0.46165 0.0
C1037 C 0.81157 0.29536 0.46343 0.0
C1038 C 0.8262 0.3238 0.3956 0.0
C1039 C 0.80096 0.28055 0.43035 0.0
C1040 C 0.83355 0.32301 0.32805 0.0
C1041 C 0.84509 0.37909 0.32188 0.0
N1042 N 0.8086 0.29485 0.39791 0.0
N1043 N 0.83931 0.36571 0.35508 0.0
H1044 H 0.31215 0.83545 0.80431 0.0
H1045 H 0.32246 0.82991 0.58954 0.0
H1046 H 0.38714 0.84114 0.75368 0.0
H1047 H 0.24247 0.77584 0.64475 0.0
H1048 H 0.34725 0.84222 0.64847 0.0
H1049 H 0.2873 0.82178 0.74547 0.0
C1050 C 0.32359 0.83416 0.78075 0.0
C1051 C 0.352 0.8397 0.78411 0.0
C1052 C 0.32429 0.82769 0.6477 0.0
C1053 C 0.32339 0.82415 0.71625 0.0
C1054 C 0.30999 0.82077 0.61409 0.0
C1055 C 0.28017 0.80185 0.61203 0.0
C1056 C 0.30871 0.8163 0.67993 0.0
C1057 C 0.26539 0.79049 0.64492 0.0
C1058 C 0.30919 0.82607 0.74722 0.0
C1059 C 0.36536 0.83719 0.75249 0.0
N1060 N 0.27974 0.79816 0.67752 0.0
N1061 N 0.35108 0.82994 0.71984 0.0
H1062 H 0.20501 0.46308 0.64157 0.0
H1063 H 0.14974 0.5499 0.76213 0.0
H1064 H 0.16111 0.50314 0.59267 0.0
H1065 H 0.14414 0.47151 0.79967 0.0
H1066 H 0.16479 0.54182 0.70165 0.0
H1067 H 0.19428 0.47518 0.70245 0.0
C1068 C 0.19355 0.47477 0.64364 0.0
C1069 C 0.18382 0.48199 0.61209 0.0
C1070 C 0.16027 0.52649 0.7233 0.0
C1071 C 0.17194 0.4963 0.68125 0.0
C1072 C 0.15166 0.53107 0.75772 0.0
C1073 C 0.14521 0.51116 0.78594 0.0
C1074 C 0.16342 0.50238 0.71747 0.0
C1075 C 0.14837 0.48722 0.77865 0.0
C1076 C 0.18729 0.48152 0.67827 0.0
C1077 C 0.16883 0.497 0.61634 0.0
N1078 N 0.15742 0.48364 0.74542 0.0
N1079 N 0.16349 0.50377 0.65013 0.0
H1080 H 0.43739 0.57651 0.74966 0.0
H1081 H 0.49077 0.71938 0.6316 0.0
H1082 H 0.47527 0.65985 0.79987 0.0
H1083 H 0.49896 0.64819 0.59325 0.0
H1084 H 0.47514 0.69545 0.69136 0.0
H1085 H 0.44925 0.59986 0.68915 0.0
C1086 C 0.44773 0.59961 0.74793 0.0
C1087 C 0.45542 0.61627 0.77978 0.0
C1088 C 0.48039 0.68517 0.66973 0.0
C1089 C 0.4687 0.64303 0.71101 0.0
C1090 C 0.48936 0.69884 0.6357 0.0
C1091 C 0.49661 0.68605 0.6074 0.0
C1092 C 0.47778 0.65812 0.67517 0.0
C1093 C 0.49407 0.65917 0.61431 0.0
C1094 C 0.45468 0.61294 0.71351 0.0
C1095 C 0.4691 0.64621 0.77597 0.0
N1096 N 0.48469 0.64606 0.64722 0.0
N1097 N 0.47515 0.65859 0.74237 0.0
H1098 H 0.09286 -0.00642 0.27553 0.0
H1099 H 0.16741 0.14696 0.18254 0.0
H1100 H 0.17861 0.03318 0.23151 0.0
H1101 H 0.09113 0.11347 0.249 0.0
H1102 H 0.1739 0.10715 0.20281 0.0
H1103 H 0.09398 0.03918 0.27023 0.0
C1104 C 0.11219 0.01206 0.26554 0.0
C1105 C 0.13558 0.00949 0.25375 0.0
C1106 C 0.15595 0.10879 0.21321 0.0
C1107 C 0.13674 0.06169 0.24648 0.0
C1108 C 0.1522 0.13145 0.20155 0.0
C1109 C 0.12851 0.13342 0.21365 0.0
C1110 C 0.13577 0.08795 0.23694 0.0
C1111 C 0.10956 0.11276 0.2385 0.0
C1112 C 0.1128 0.03811 0.26232 0.0
C1113 C 0.16009 0.03419 0.24099 0.0
N1114 N 0.11346 0.09084 0.24897 0.0
N1115 N 0.15983 0.05913 0.237 0.0
H1116 H 0.01864 0.07875 0.22542 0.0
H1117 H 0.84998 0.9702 0.24568 0.0
H1118 H 0.96103 0.10051 0.28014 0.0
H1119 H 0.90766 0.95275 0.18351 0.0
H1120 H 0.89088 0.01637 0.26392 0.0
H1121 H 0.979 0.02996 0.21756 0.0
C1122 C -0.00219 0.07317 0.23643 0.0
C1123 C -0.0069 0.09393 0.25296 0.0
C1124 C 0.89452 0.00238 0.2463 0.0
C1125 C 0.94744 0.03819 0.24338 0.0
C1126 C 0.87117 0.97614 0.23569 0.0
C1127 C 0.87537 0.95767 0.21284 0.0
C1128 C 0.92222 0.01011 0.23406 0.0
C1129 C 0.90334 0.96634 0.20099 0.0
C1130 C 0.97509 0.04533 0.23166 0.0
C1131 C 0.96563 0.08532 0.26688 0.0
N1132 N 0.92565 0.99189 0.21173 0.0
N1133 N 0.94374 0.0582 0.26132 0.0
H1134 H 0.84222 0.79977 0.23365 0.0
H1135 H 0.00991 0.90919 0.26255 0.0
H1136 H 0.87732 0.88705 0.2701 0.0
H1137 H 0.97722 0.83255 0.19716 0.0
H1138 H 0.96079 0.89649 0.27747 0.0
H1139 H 0.89083 0.80655 0.23313 0.0
C1140 C 0.86002 0.82008 0.24254 0.0
C1141 C 0.85574 0.84295 0.25173 0.0
C1142 C 0.96435 0.88234 0.26005 0.0
C1143 C 0.91129 0.8509 0.25077 0.0
C1144 C -0.00758 0.88957 0.25148 0.0
C1145 C -0.00225 0.87208 0.22816 0.0
C1146 C 0.94129 0.85734 0.24542 0.0
C1147 C 0.97414 0.84682 0.21491 0.0
C1148 C 0.88777 0.82402 0.24184 0.0
C1149 C 0.87965 0.8689 0.26261 0.0
N1150 N 0.94691 0.84026 0.22358 0.0
N1151 N 0.90637 0.87222 0.26156 0.0
H1152 H 0.98315 0.09024 0.79245 0.0
H1153 H 0.14176 0.15606 0.86495 0.0
H1154 H 0.03481 0.17997 0.81872 0.0
H1155 H 0.09954 0.07836 0.80113 0.0
H1156 H 0.10355 0.16611 0.84786 0.0
H1157 H 0.02625 0.08609 0.79376 0.0
C1158 C 0.00369 0.10921 0.79767 0.0
C1159 C 0.00542 0.13545 0.80559 0.0
C1160 C 0.10295 0.14707 0.83728 0.0
C1161 C 0.05473 0.13071 0.80827 0.0
C1162 C 0.12465 0.14126 0.84717 0.0
C1163 C 0.1237 0.11617 0.83486 0.0
C1164 C 0.08005 0.12745 0.81535 0.0
C1165 C 0.1011 0.09784 0.81163 0.0
C1166 C 0.0283 0.10684 0.79855 0.0
C1167 C 0.03257 0.15936 0.81232 0.0
N1168 N 0.08005 0.10367 0.80302 0.0
N1169 N 0.05614 0.1563 0.81425 0.0
H1170 H 0.86873 0.0078 0.81986 0.0
H1171 H 0.92628 0.89673 0.82696 0.0
H1172 H 0.9482 0.02485 0.87063 0.0
H1173 H 0.84229 0.87463 0.78633 0.0
H1174 H 0.93721 0.94602 0.83474 0.0
H1175 H 0.86037 0.96052 0.80142 0.0
C1176 C 0.88432 0.00156 0.8273 0.0
C1177 C 0.9091 0.02025 0.84705 0.0
C1178 C 0.91649 0.93048 0.82372 0.0
C1179 C 0.89993 0.9665 0.82553 0.0
C1180 C 0.91031 0.90231 0.81896 0.0
C1181 C 0.88316 0.88134 0.80641 0.0
C1182 C 0.89539 0.93779 0.81599 0.0
C1183 C 0.86343 0.89 0.79637 0.0
C1184 C 0.87962 0.97466 0.81659 0.0
C1185 C 0.92869 0.01114 0.85567 0.0
N1186 N 0.86979 0.91749 0.80183 0.0
N1187 N 0.92368 0.98497 0.84486 0.0
H1188 H 0.12143 0.94643 0.80978 0.0
H1189 H 0.96958 0.90085 0.89005 0.0
H1190 H 0.08409 0.00107 0.80839 0.0
H1191 H 0.98154 0.83694 0.83453 0.0
H1192 H 0.01616 0.93765 0.86817 0.0
H1193 H 0.07366 0.90526 0.82232 0.0
C1194 C 0.10317 0.9497 0.81104 0.0
C1195 C 0.10691 0.9774 0.80866 0.0
C1196 C 0.00864 0.91556 0.86083 0.0
C1197 C 0.05278 0.93074 0.82405 0.0
C1198 C 0.98216 0.89442 0.8737 0.0
C1199 C 0.97151 0.86569 0.86401 0.0
C1200 C 0.02501 0.90805 0.83854 0.0
C1201 C 0.98894 0.85885 0.84259 0.0
C1202 C 0.07601 0.92623 0.81848 0.0
C1203 C 0.08242 0.98028 0.81062 0.0
N1204 N 0.01499 0.87994 0.83056 0.0
N1205 N 0.05657 0.95739 0.81897 0.0
H1206 H 0.7157 0.29049 0.56872 0.0
H1207 H 0.77516 0.45902 0.58011 0.0
H1208 H 0.79655 0.35005 0.61918 0.0
H1209 H 0.69923 0.39905 0.52072 0.0
H1210 H 0.7811 0.41908 0.60069 0.0
H1211 H 0.70584 0.32947 0.55972 0.0
C1212 C 0.73112 0.31163 0.57866 0.0
C1213 C 0.75724 0.31707 0.59417 0.0
C1214 C 0.76316 0.41473 0.58315 0.0
C1215 C 0.74632 0.36196 0.58318 0.0
C1216 C 0.75989 0.43752 0.57117 0.0
C1217 C 0.73679 0.43239 0.54844 0.0
C1218 C 0.74311 0.38667 0.57242 0.0
C1219 C 0.71748 0.40408 0.538 0.0
C1220 C 0.72558 0.33397 0.57319 0.0
C1221 C 0.77626 0.3449 0.60675 0.0
N1222 N 0.72108 0.38233 0.55009 0.0
N1223 N 0.77063 0.36642 0.60045 0.0
H1224 H 0.66788 0.42445 0.59977 0.0
H1225 H 0.50246 0.31497 0.55868 0.0
H1226 H 0.60741 0.45404 0.58475 0.0
H1227 H 0.57293 0.30177 0.53076 0.0
H1228 H 0.53732 0.36292 0.58201 0.0
H1229 H 0.62902 0.37538 0.59202 0.0
C1230 C 0.64626 0.42058 0.59579 0.0
C1231 C 0.64096 0.44341 0.59227 0.0
C1232 C 0.54495 0.34937 0.57077 0.0
C1233 C 0.59646 0.38723 0.58261 0.0
C1234 C 0.52518 0.32217 0.55734 0.0
C1235 C 0.53485 0.3045 0.54241 0.0
C1236 C 0.57438 0.35848 0.56995 0.0
C1237 C 0.56446 0.31473 0.54158 0.0
C1238 C 0.62414 0.39256 0.59102 0.0
C1239 C 0.61245 0.43705 0.58745 0.0
N1240 N 0.58309 0.34092 0.5553 0.0
N1241 N 0.59122 0.40947 0.58209 0.0
H1242 H 0.67518 0.2549 0.49848 0.0
H1243 H 0.52122 0.15129 0.58026 0.0
H1244 H 0.65978 0.18018 0.55975 0.0
H1245 H 0.55504 0.24166 0.56198 0.0
H1246 H 0.56948 0.15834 0.5704 0.0
H1247 H 0.62793 0.24625 0.51555 0.0
C1248 C 0.66173 0.2364 0.51517 0.0
C1249 C 0.6716 0.21828 0.52776 0.0
C1250 C 0.56628 0.17661 0.56916 0.0
C1251 C 0.6172 0.20842 0.54777 0.0
C1252 C 0.53881 0.17269 0.57501 0.0
C1253 C 0.53389 0.19585 0.57148 0.0
C1254 C 0.58876 0.20376 0.55924 0.0
C1255 C 0.55758 0.22305 0.56456 0.0
C1256 C 0.6348 0.23167 0.52525 0.0
C1257 C 0.65304 0.19469 0.54942 0.0
N1258 N 0.58379 0.22613 0.55809 0.0
N1259 N 0.62663 0.19038 0.55875 0.0
H1260 H 0.74216 0.38848 0.207 0.0
H1261 H 0.70157 0.50459 0.15369 0.0
H1262 H 0.80954 0.47272 0.17572 0.0
H1263 H 0.64662 0.41422 0.13341 0.0
H1264 H 0.74206 0.49622 0.16311 0.0
H1265 H 0.70674 0.40019 0.185 0.0
C1266 C 0.74955 0.40962 0.19582 0.0
C1267 C 0.7789 0.42972 0.1934 0.0
C1268 C 0.72124 0.47843 0.15577 0.0
C1269 C 0.73816 0.44321 0.16775 0.0
C1270 C 0.69818 0.48318 0.15013 0.0
C1271 C 0.67055 0.45996 0.14338 0.0
C1272 C 0.71635 0.45031 0.155 0.0
C1273 C 0.66739 0.43268 0.13922 0.0
C1274 C 0.72926 0.41616 0.18283 0.0
C1275 C 0.78709 0.45665 0.17817 0.0
N1276 N 0.68984 0.42855 0.14578 0.0
N1277 N 0.76675 0.46277 0.16615 0.0
H1278 H 0.47624 0.18335 0.12946 0.0
H1279 H 0.57901 0.3528 0.13748 0.0
H1280 H 0.56849 0.22564 0.11974 0.0
H1281 H 0.49375 0.30937 0.18353 0.0
H1282 H 0.57237 0.30694 0.11711 0.0
H1283 H 0.47955 0.23011 0.13408 0.0
C1284 C 0.49714 0.20243 0.12727 0.0
C1285 C 0.5222 0.20054 0.12464 0.0
C1286 C 0.55505 0.30745 0.13147 0.0
C1287 C 0.52601 0.254 0.13025 0.0
C1288 C 0.55877 0.33363 0.14317 0.0
C1289 C 0.53697 0.33494 0.16266 0.0
C1290 C 0.52927 0.28226 0.13899 0.0
C1291 C 0.51121 0.30933 0.16896 0.0
C1292 C 0.49898 0.22909 0.13031 0.0
C1293 C 0.54865 0.22604 0.12206 0.0
N1294 N 0.50809 0.28397 0.15725 0.0
N1295 N 0.54988 0.25172 0.12529 0.0
H1296 H 0.75859 0.35367 0.15982 0.0
H1297 H 0.64776 0.18486 0.15528 0.0
H1298 H 0.78605 0.292 0.14096 0.0
H1299 H 0.62948 0.24837 0.19896 0.0
H1300 H 0.69707 0.22313 0.14219 0.0
H1301 H 0.70921 0.31469 0.16379 0.0
C1302 C 0.75423 0.33194 0.15588 0.0
C1303 C 0.77665 0.32616 0.15043 0.0
C1304 C 0.68218 0.22855 0.15468 0.0
C1305 C 0.71987 0.28116 0.15561 0.0
C1306 C 0.65411 0.20674 0.16232 0.0
C1307 C 0.63444 0.21336 0.1784 0.0
C1308 C 0.69041 0.25712 0.1628 0.0
C1309 C 0.64382 0.24213 0.18671 0.0
C1310 C 0.72597 0.30962 0.15845 0.0
C1311 C 0.76949 0.29749 0.14529 0.0
N1312 N 0.67098 0.26284 0.1787 0.0
N1313 N 0.74172 0.276 0.1484 0.0
H1314 H 0.36885 0.73102 0.87063 0.0
H1315 H 0.48882 0.6931 0.92143 0.0
H1316 H 0.45493 0.79729 0.8977 0.0
H1317 H 0.39787 0.63297 0.92688 0.0
H1318 H 0.47829 0.73218 0.9154 0.0
H1319 H 0.3805 0.69517 0.89065 0.0
C1320 C 0.39035 0.73807 0.88056 0.0
C1321 C 0.41102 0.76724 0.8822 0.0
C1322 C 0.46072 0.71048 0.91869 0.0
C1323 C 0.4245 0.72601 0.90562 0.0
C1324 C 0.46669 0.68816 0.92246 0.0
C1325 C 0.44415 0.65963 0.92406 0.0
C1326 C 0.43206 0.70408 0.91628 0.0
C1327 C 0.41593 0.65456 0.92512 0.0
C1328 C 0.3969 0.71753 0.89239 0.0
C1329 C 0.4384 0.775 0.89579 0.0
N1330 N 0.4107 0.67647 0.92059 0.0
N1331 N 0.44446 0.75445 0.90674 0.0
H1332 H 0.33725 0.75698 0.93367 0.0
H1333 H 0.1744 0.66225 0.87728 0.0
H1334 H 0.28126 0.79242 0.92383 0.0
H1335 H 0.22236 0.62651 0.92673 0.0
H1336 H 0.21316 0.71026 0.89374 0.0
H1337 H 0.2953 0.70892 0.93237 0.0
C1338 C 0.31608 0.75465 0.9321 0.0
C1339 C 0.31276 0.77875 0.92874 0.0
C1340 C 0.215 0.69184 0.9013 0.0
C1341 C 0.26471 0.72379 0.92611 0.0
C1342 C 0.19298 0.66447 0.89171 0.0
C1343 C 0.19523 0.64033 0.90035 0.0
C1344 C 0.23958 0.69507 0.91915 0.0
C1345 C 0.21972 0.64448 0.91934 0.0
C1346 C 0.29213 0.72721 0.93121 0.0
C1347 C 0.28481 0.77445 0.92662 0.0
N1348 N 0.24105 0.6713 0.92771 0.0
N1349 N 0.26187 0.74748 0.92461 0.0
H1350 H 0.17386 0.46085 0.90872 0.0
H1351 H 0.3434 0.55403 0.93707 0.0
H1352 H 0.21777 0.54673 0.95216 0.0
H1353 H 0.3036 0.48557 0.85814 0.0
H1354 H 0.29606 0.54342 0.95746 0.0
H1355 H 0.21984 0.46181 0.90571 0.0
C1356 C 0.193 0.47954 0.91878 0.0
C1357 C 0.19208 0.50387 0.93045 0.0
C1358 C 0.29768 0.53051 0.93596 0.0
C1359 C 0.24454 0.5051 0.92676 0.0
C1360 C 0.32472 0.53653 0.92421 0.0
C1361 C 0.32754 0.52098 0.8953 0.0
C1362 C 0.27314 0.50868 0.91892 0.0
C1363 C 0.30245 0.49833 0.88016 0.0
C1364 C 0.21923 0.48015 0.91664 0.0
C1365 C 0.21758 0.52761 0.94274 0.0
N1366 N 0.27624 0.49301 0.89193 0.0
N1367 N 0.24281 0.52772 0.94027 0.0
H1368 H 0.34788 0.81165 0.45985 0.0
H1369 H 0.3874 0.69273 0.51551 0.0
H1370 H 0.28567 0.72332 0.4824 0.0
H1371 H 0.45134 0.77726 0.48008 0.0
H1372 H 0.35006 0.70383 0.5008 0.0
H1373 H 0.38601 0.79946 0.46242 0.0
C1374 C 0.34213 0.78959 0.46451 0.0
C1375 C 0.31352 0.76854 0.47135 0.0
C1376 C 0.37221 0.72001 0.49607 0.0
C1377 C 0.35708 0.75463 0.47497 0.0
C1378 C 0.39364 0.71373 0.50471 0.0
C1379 C 0.42261 0.73418 0.49929 0.0
C1380 C 0.37964 0.74707 0.48211 0.0
C1381 C 0.42927 0.76092 0.48488 0.0
C1382 C 0.36396 0.78271 0.46624 0.0
C1383 C 0.30741 0.74035 0.47737 0.0
N1384 N 0.40792 0.76668 0.47698 0.0
N1385 N 0.32901 0.73434 0.47947 0.0
H1386 H 0.14259 0.51935 0.47463 0.0
H1387 H 0.25563 0.67563 0.53459 0.0
H1388 H 0.23407 0.55548 0.46256 0.0
H1389 H 0.17106 0.65661 0.50046 0.0
H1390 H 0.24582 0.62948 0.5114 0.0
H1391 H 0.15021 0.56778 0.48339 0.0
C1392 C 0.16416 0.53746 0.47262 0.0
C1393 C 0.18781 0.53331 0.46855 0.0
C1394 C 0.22937 0.63535 0.50883 0.0
C1395 C 0.19658 0.58837 0.47951 0.0
C1396 C 0.23481 0.66161 0.52253 0.0
C1397 C 0.21405 0.66996 0.51968 0.0
C1398 C 0.20277 0.61687 0.4926 0.0
C1399 C 0.1876 0.65091 0.50332 0.0
C1400 C 0.16847 0.56505 0.47793 0.0
C1401 C 0.21525 0.55758 0.46628 0.0
N1402 N 0.18257 0.62504 0.49061 0.0
N1403 N 0.21891 0.58397 0.47254 0.0
H1404 H 0.42256 0.65849 0.44394 0.0
H1405 H 0.33464 0.50351 0.52676 0.0
H1406 H 0.46333 0.61049 0.4764 0.0
H1407 H 0.29596 0.54085 0.45957 0.0
H1408 H 0.38212 0.54136 0.50683 0.0
H1409 H 0.37605 0.61454 0.4461 0.0
C1410 C 0.42178 0.63855 0.45057 0.0
C1411 C 0.44683 0.63818 0.46017 0.0
C1412 C 0.36317 0.54097 0.4961 0.0
C1413 C 0.39357 0.58793 0.46393 0.0
C1414 C 0.33609 0.51945 0.50761 0.0
C1415 C 0.31127 0.51918 0.49524 0.0
C1416 C 0.36539 0.5625 0.47245 0.0
C1417 C 0.31445 0.5403 0.47019 0.0
C1418 C 0.3952 0.61345 0.45199 0.0
C1419 C 0.44456 0.61174 0.46871 0.0
N1420 N 0.34097 0.56126 0.46004 0.0
N1421 N 0.41831 0.58775 0.47118 0.0
loop_
_geom_bond_atom_site_label_1
_geom_bond_atom_site_label_2
_geom_bond_distance
_geom_bond_site_symmetry_2
_ccdc_geom_bond_type
Co0 O3 1.970 . S
Co0 N17 1.989 . S
Co0 O25 1.967 . S
Co0 O32 1.920 . S
Co1 O4 1.966 . S
Co1 N10 2.022 . S
Co1 N18 1.993 . S
Co1 O26 1.941 . S
C2 O3 1.258 . S
C2 O4 1.263 . S
O3 Co0 1.970 . S
O3 C2 1.258 . S
O4 Co1 1.966 . S
O4 C2 1.263 . S
C5 O6 1.235 . S
C5 O32 1.289 . S
O6 C5 1.235 . S
C7 C9 1.400 . S
C7 N10 1.351 . S
C7 C12 1.501 . S
C8 C9 1.387 1_655 S
C8 N11 1.341 . S
C9 C7 1.400 . S
C9 C8 1.387 1_455 S
N10 Co1 2.022 . S
N10 C7 1.351 . S
N10 N11 1.365 1_455 S
N11 C8 1.341 . S
N11 N10 1.365 1_655 S
N11 H31 0.862 . S
C12 C7 1.501 . S
C12 H13 0.961 . S
C12 H14 0.961 . S
C12 H15 0.960 . S
H13 C12 0.961 . S
H14 C12 0.961 . S
H15 C12 0.960 . S
C16 N17 1.342 . S
C16 C20 1.401 . S
C16 C21 1.499 . S
N17 Co0 1.989 . S
N17 C16 1.342 . S
N17 N18 1.388 . S
N18 Co1 1.993 . S
N18 N17 1.388 . S
N18 C19 1.346 . S
C19 N18 1.346 . S
C19 C20 1.396 . S
C19 C29 1.510 . S
C20 C16 1.401 . S
C20 C19 1.396 . S
C21 C16 1.499 . S
C21 H22 0.959 . S
C21 H23 0.960 . S
C21 H24 0.961 . S
H22 C21 0.959 . S
H23 C21 0.960 . S
H24 C21 0.961 . S
O25 Co0 1.967 . S
O25 C33 1.258 . S
O26 Co1 1.941 . S
O26 C33 1.266 . S
H27 C29 0.959 . S
H28 C29 0.961 . S
C29 C19 1.510 . S
C29 H27 0.959 . S
C29 H28 0.961 . S
C29 H30 0.960 . S
H30 C29 0.960 . S
H31 N11 0.862 . S
O32 Co0 1.920 . S
O32 C5 1.289 . S
C33 O25 1.258 . S
C33 O26 1.266 . S
Co34 O37 1.970 . S
Co34 N51 1.989 . S
Co34 O59 1.967 . S
Co34 O66 1.920 . S
Co35 O38 1.966 . S
Co35 N44 2.022 . S
Co35 N52 1.993 . S
Co35 O60 1.941 . S
C36 O37 1.258 . S
C36 O38 1.263 . S
O37 Co34 1.970 . S
O37 C36 1.258 . S
O38 Co35 1.966 . S
O38 C36 1.263 . S
C39 O40 1.235 . S
C39 O66 1.289 . S
O40 C39 1.235 . S
C41 C43 1.400 . S
C41 N44 1.351 . S
C41 C46 1.501 . S
C42 C43 1.387 . S
C42 N45 1.341 . S
C43 C41 1.400 . S
C43 C42 1.387 . S
N44 Co35 2.022 . S
N44 C41 1.351 . S
N44 N45 1.365 . S
N45 C42 1.341 . S
N45 N44 1.365 . S
N45 H65 0.862 . S
C46 C41 1.501 . S
C46 H47 0.961 . S
C46 H48 0.961 . S
C46 H49 0.960 . S
H47 C46 0.961 . S
H48 C46 0.961 . S
H49 C46 0.960 . S
C50 N51 1.342 . S
C50 C54 1.401 . S
C50 C55 1.499 . S
N51 Co34 1.989 . S
N51 C50 1.342 . S
N51 N52 1.388 . S
N52 Co35 1.993 . S
N52 N51 1.388 . S
N52 C53 1.346 . S
C53 N52 1.346 . S
C53 C54 1.396 . S
C53 C63 1.510 . S
C54 C50 1.401 . S
C54 C53 1.396 . S
C55 C50 1.499 . S
C55 H56 0.959 . S
C55 H57 0.960 . S
C55 H58 0.961 . S
H56 C55 0.959 . S
H57 C55 0.960 . S
H58 C55 0.961 . S
O59 Co34 1.967 . S
O59 C67 1.258 . S
O60 Co35 1.941 . S
O60 C67 1.266 . S
H61 C63 0.959 . S
H62 C63 0.961 . S
C63 C53 1.510 . S
C63 H61 0.959 . S
C63 H62 0.961 . S
C63 H64 0.960 . S
H64 C63 0.960 . S
H65 N45 0.862 . S
O66 Co34 1.920 . S
O66 C39 1.289 . S
C67 O59 1.258 . S
C67 O60 1.266 . S
Co68 O71 1.970 . S
Co68 N85 1.989 . S
Co68 O93 1.967 . S
Co68 O100 1.920 . S
Co69 O72 1.966 . S
Co69 N78 2.022 . S
Co69 N86 1.993 . S
Co69 O94 1.941 . S
C70 O71 1.258 . S
C70 O72 1.263 . S
O71 Co68 1.970 . S
O71 C70 1.258 . S
O72 Co69 1.966 . S
O72 C70 1.263 . S
C73 O74 1.235 . S
C73 O100 1.289 . S
O74 C73 1.235 . S
C75 C77 1.400 . S
C75 N78 1.351 . S
C75 C80 1.501 . S
C76 C77 1.380 1_545 S
C76 N79 1.347 1_545 S
C77 C75 1.400 . S
C77 C76 1.380 1_565 S
N78 Co69 2.022 . S
N78 C75 1.351 . S
N78 N79 1.365 . S
N79 C76 1.347 1_565 S
N79 N78 1.365 . S
N79 H99 0.853 1_565 S
C80 C75 1.501 . S
C80 H81 0.961 . S
C80 H82 0.961 . S
C80 H83 0.960 . S
H81 C80 0.961 . S
H82 C80 0.961 . S
H83 C80 0.960 . S
C84 N85 1.342 . S
C84 C88 1.401 . S
C84 C89 1.499 . S
N85 Co68 1.989 . S
N85 C84 1.342 . S
N85 N86 1.388 . S
N86 Co69 1.993 . S
N86 N85 1.388 . S
N86 C87 1.346 . S
C87 N86 1.346 . S
C87 C88 1.396 . S
C87 C97 1.510 . S
C88 C84 1.401 . S
C88 C87 1.396 . S
C89 C84 1.499 . S
C89 H90 0.959 . S
C89 H91 0.960 . S
C89 H92 0.961 . S
H90 C89 0.959 . S
H91 C89 0.960 . S
H92 C89 0.961 . S
O93 Co68 1.967 . S
O93 C101 1.258 . S
O94 Co69 1.941 . S
O94 C101 1.266 . S
H95 C97 0.959 . S
H96 C97 0.961 . S
C97 C87 1.510 . S
C97 H95 0.959 . S
C97 H96 0.961 . S
C97 H98 0.960 . S
H98 C97 0.960 . S
H99 N79 0.853 1_545 S
O100 Co68 1.920 . S
O100 C73 1.289 . S
C101 O93 1.258 . S
C101 O94 1.266 . S
Co102 O105 1.970 . S
Co102 N119 1.989 . S
Co102 O127 1.967 . S
Co102 O134 1.920 . S
Co103 O106 1.966 . S
Co103 N112 2.022 . S
Co103 N120 1.993 . S
Co103 O128 1.941 . S
C104 O105 1.258 . S
C104 O106 1.263 . S
O105 Co102 1.970 . S
O105 C104 1.258 . S
O106 Co103 1.966 . S
O106 C104 1.263 . S
C107 O108 1.235 . S
C107 O134 1.289 . S
O108 C107 1.235 . S
C109 C111 1.400 . S
C109 N112 1.351 . S
C109 C114 1.501 . S
C110 C111 1.387 1_565 S
C110 N113 1.341 . S
C111 C109 1.400 . S
C111 C110 1.387 1_545 S
N112 Co103 2.022 . S
N112 C109 1.351 . S
N112 N113 1.365 1_545 S
N113 C110 1.341 . S
N113 N112 1.365 1_565 S
N113 H133 0.862 . S
C114 C109 1.501 . S
C114 H115 0.961 . S
C114 H116 0.961 . S
C114 H117 0.960 . S
H115 C114 0.961 . S
H116 C114 0.961 . S
H117 C114 0.960 . S
C118 N119 1.342 . S
C118 C122 1.401 . S
C118 C123 1.499 . S
N119 Co102 1.989 . S
N119 C118 1.342 . S
N119 N120 1.388 . S
N120 Co103 1.993 . S
N120 N119 1.388 . S
N120 C121 1.346 . S
C121 N120 1.346 . S
C121 C122 1.396 . S
C121 C131 1.510 . S
C122 C118 1.401 . S
C122 C121 1.396 . S
C123 C118 1.499 . S
C123 H124 0.959 . S
C123 H125 0.960 . S
C123 H126 0.961 . S
H124 C123 0.959 . S
H125 C123 0.960 . S
H126 C123 0.961 . S
O127 Co102 1.967 . S
O127 C135 1.258 . S
O128 Co103 1.941 . S
O128 C135 1.266 . S
H129 C131 0.959 . S
H130 C131 0.961 . S
C131 C121 1.510 . S
C131 H129 0.959 . S
C131 H130 0.961 . S
C131 H132 0.960 . S
H132 C131 0.960 . S
H133 N113 0.862 . S
O134 Co102 1.920 . S
O134 C107 1.289 . S
C135 O127 1.258 . S
C135 O128 1.266 . S
Co136 O139 1.970 . S
Co136 N153 1.989 . S
Co136 O161 1.967 . S
Co136 O168 1.920 . S
Co137 O140 1.966 . S
Co137 N146 2.022 . S
Co137 N154 1.993 . S
Co137 O162 1.941 . S
C138 O139 1.258 . S
C138 O140 1.263 . S
O139 Co136 1.970 . S
O139 C138 1.258 . S
O140 Co137 1.966 . S
O140 C138 1.263 . S
C141 O142 1.235 . S
C141 O168 1.289 . S
O142 C141 1.235 . S
C143 C145 1.400 . S
C143 N146 1.351 . S
C143 C148 1.501 . S
C144 C145 1.380 1_455 S
C144 N147 1.347 1_455 S
C145 C143 1.400 . S
C145 C144 1.380 1_655 S
N146 Co137 2.022 . S
N146 C143 1.351 . S
N146 N147 1.365 . S
N147 C144 1.347 1_655 S
N147 N146 1.365 . S
N147 H167 0.853 1_655 S
C148 C143 1.501 . S
C148 H149 0.961 . S
C148 H150 0.961 . S
C148 H151 0.960 . S
H149 C148 0.961 . S
H150 C148 0.961 . S
H151 C148 0.960 . S
C152 N153 1.342 . S
C152 C156 1.401 . S
C152 C157 1.499 . S
N153 Co136 1.989 . S
N153 C152 1.342 . S
N153 N154 1.388 . S
N154 Co137 1.993 . S
N154 N153 1.388 . S
N154 C155 1.346 . S
C155 N154 1.346 . S
C155 C156 1.396 . S
C155 C165 1.510 . S
C156 C152 1.401 . S
C156 C155 1.396 . S
C157 C152 1.499 . S
C157 H158 0.959 . S
C157 H159 0.960 . S
C157 H160 0.961 . S
H158 C157 0.959 . S
H159 C157 0.960 . S
H160 C157 0.961 . S
O161 Co136 1.967 . S
O161 C169 1.258 . S
O162 Co137 1.941 . S
O162 C169 1.266 . S
H163 C165 0.959 . S
H164 C165 0.961 . S
C165 C155 1.510 . S
C165 H163 0.959 . S
C165 H164 0.961 . S
C165 H166 0.960 . S
H166 C165 0.960 . S
H167 N147 0.853 1_455 S
O168 Co136 1.920 . S
O168 C141 1.289 . S
C169 O161 1.258 . S
C169 O162 1.266 . S
Co170 O173 1.970 . S
Co170 N187 1.989 . S
Co170 O195 1.967 . S
Co170 O202 1.920 . S
Co171 O174 1.966 . S
Co171 N180 2.022 . S
Co171 N188 1.993 . S
Co171 O196 1.941 . S
C172 O173 1.258 . S
C172 O174 1.263 . S
O173 Co170 1.970 . S
O173 C172 1.258 . S
O174 Co171 1.966 . S
O174 C172 1.263 . S
C175 O176 1.235 . S
C175 O202 1.289 . S
O176 C175 1.235 . S
C177 C179 1.400 . S
C177 N180 1.351 . S
C177 C182 1.501 . S
C178 C179 1.387 . S
C178 N181 1.341 . S
C179 C177 1.400 . S
C179 C178 1.387 . S
N180 Co171 2.022 . S
N180 C177 1.351 . S
N180 N181 1.365 . S
N181 C178 1.341 . S
N181 N180 1.365 . S
N181 H201 0.862 . S
C182 C177 1.501 . S
C182 H183 0.961 . S
C182 H184 0.961 . S
C182 H185 0.960 . S
H183 C182 0.961 . S
H184 C182 0.961 . S
H185 C182 0.960 . S
C186 N187 1.342 . S
C186 C190 1.401 . S
C186 C191 1.499 . S
N187 Co170 1.989 . S
N187 C186 1.342 . S
N187 N188 1.388 . S
N188 Co171 1.993 . S
N188 N187 1.388 . S
N188 C189 1.346 . S
C189 N188 1.346 . S
C189 C190 1.396 . S
C189 C199 1.510 . S
C190 C186 1.401 . S
C190 C189 1.396 . S
C191 C186 1.499 . S
C191 H192 0.959 . S
C191 H193 0.960 . S
C191 H194 0.961 . S
H192 C191 0.959 . S
H193 C191 0.960 . S
H194 C191 0.961 . S
O195 Co170 1.967 . S
O195 C203 1.258 . S
O196 Co171 1.941 . S
O196 C203 1.266 . S
H197 C199 0.959 . S
H198 C199 0.961 . S
C199 C189 1.510 . S
C199 H197 0.959 . S
C199 H198 0.961 . S
C199 H200 0.960 . S
H200 C199 0.960 . S
H201 N181 0.862 . S
O202 Co170 1.920 . S
O202 C175 1.289 . S
C203 O195 1.258 . S
C203 O196 1.266 . S
Co204 O207 1.970 . S
Co204 N221 1.989 . S
Co204 O229 1.967 . S
Co204 O236 1.920 . S
Co205 O208 1.966 . S
Co205 N214 2.022 . S
Co205 N222 1.993 . S
Co205 O230 1.941 . S
C206 O207 1.258 . S
C206 O208 1.263 . S
O207 Co204 1.970 . S
O207 C206 1.258 . S
O208 Co205 1.966 . S
O208 C206 1.263 . S
C209 O210 1.235 . S
C209 O236 1.289 . S
O210 C209 1.235 . S
C211 C213 1.400 . S
C211 N214 1.351 . S
C211 C216 1.501 . S
C212 C213 1.387 . S
C212 N215 1.341 . S
C213 C211 1.400 . S
C213 C212 1.387 . S
N214 Co205 2.022 . S
N214 C211 1.351 . S
N214 N215 1.365 . S
N215 C212 1.341 . S
N215 N214 1.365 . S
N215 H235 0.862 . S
C216 C211 1.501 . S
C216 H217 0.961 . S
C216 H218 0.961 . S
C216 H219 0.960 . S
H217 C216 0.961 . S
H218 C216 0.961 . S
H219 C216 0.960 . S
C220 N221 1.342 . S
C220 C224 1.401 . S
C220 C225 1.499 . S
N221 Co204 1.989 . S
N221 C220 1.342 . S
N221 N222 1.388 . S
N222 Co205 1.993 . S
N222 N221 1.388 . S
N222 C223 1.346 . S
C223 N222 1.346 . S
C223 C224 1.396 . S
C223 C233 1.510 . S
C224 C220 1.401 . S
C224 C223 1.396 . S
C225 C220 1.499 . S
C225 H226 0.959 . S
C225 H227 0.960 . S
C225 H228 0.961 . S
H226 C225 0.959 . S
H227 C225 0.960 . S
H228 C225 0.961 . S
O229 Co204 1.967 . S
O229 C237 1.258 . S
O230 Co205 1.941 . S
O230 C237 1.266 . S
H231 C233 0.959 . S
H232 C233 0.961 . S
C233 C223 1.510 . S
C233 H231 0.959 . S
C233 H232 0.961 . S
C233 H234 0.960 . S
H234 C233 0.960 . S
H235 N215 0.862 . S
O236 Co204 1.920 . S
O236 C209 1.289 . S
C237 O229 1.258 . S
C237 O230 1.266 . S
Co238 O241 1.970 . S
Co238 N255 1.989 . S
Co238 O263 1.967 . S
Co238 O270 1.920 . S
Co239 O242 1.966 . S
Co239 N248 2.022 . S
Co239 N256 1.993 . S
Co239 O264 1.941 . S
C240 O241 1.258 . S
C240 O242 1.263 . S
O241 Co238 1.970 . S
O241 C240 1.258 . S
O242 Co239 1.966 . S
O242 C240 1.263 . S
C243 O244 1.235 . S
C243 O270 1.289 . S
O244 C243 1.235 . S
C245 C247 1.400 . S
C245 N248 1.351 . S
C245 C250 1.501 . S
C246 C247 1.387 . S
C246 N249 1.341 . S
C247 C245 1.400 . S
C247 C246 1.387 . S
N248 Co239 2.022 . S
N248 C245 1.351 . S
N248 N249 1.365 . S
N249 C246 1.341 . S
N249 N248 1.365 . S
N249 H269 0.862 . S
C250 C245 1.501 . S
C250 H251 0.961 . S
C250 H252 0.961 . S
C250 H253 0.960 . S
H251 C250 0.961 . S
H252 C250 0.961 . S
H253 C250 0.960 . S
C254 N255 1.342 . S
C254 C258 1.401 . S
C254 C259 1.499 . S
N255 Co238 1.989 . S
N255 C254 1.342 . S
N255 N256 1.388 . S
N256 Co239 1.993 . S
N256 N255 1.388 . S
N256 C257 1.346 . S
C257 N256 1.346 . S
C257 C258 1.396 . S
C257 C267 1.510 . S
C258 C254 1.401 . S
C258 C257 1.396 . S
C259 C254 1.499 . S
C259 H260 0.959 . S
C259 H261 0.960 . S
C259 H262 0.961 . S
H260 C259 0.959 . S
H261 C259 0.960 . S
H262 C259 0.961 . S
O263 Co238 1.967 . S
O263 C271 1.258 . S
O264 Co239 1.941 . S
O264 C271 1.266 . S
H265 C267 0.959 . S
H266 C267 0.961 . S
C267 C257 1.510 . S
C267 H265 0.959 . S
C267 H266 0.961 . S
C267 H268 0.960 . S
H268 C267 0.960 . S
H269 N249 0.862 . S
O270 Co238 1.920 . S
O270 C243 1.289 . S
C271 O263 1.258 . S
C271 O264 1.266 . S
Co272 O275 1.970 . S
Co272 N289 1.989 . S
Co272 O297 1.967 . S
Co272 O304 1.920 . S
Co273 O276 1.966 . S
Co273 N282 2.022 . S
Co273 N290 1.993 . S
Co273 O298 1.941 . S
C274 O275 1.258 . S
C274 O276 1.263 . S
O275 Co272 1.970 . S
O275 C274 1.258 . S
O276 Co273 1.966 . S
O276 C274 1.263 . S
C277 O278 1.235 . S
C277 O304 1.289 . S
O278 C277 1.235 . S
C279 C281 1.400 . S
C279 N282 1.351 . S
C279 C284 1.501 . S
C280 C281 1.387 . S
C280 N283 1.341 . S
C281 C279 1.400 . S
C281 C280 1.387 . S
N282 Co273 2.022 . S
N282 C279 1.351 . S
N282 N283 1.365 . S
N283 C280 1.341 . S
N283 N282 1.365 . S
N283 H303 0.862 . S
C284 C279 1.501 . S
C284 H285 0.961 . S
C284 H286 0.961 . S
C284 H287 0.960 . S
H285 C284 0.961 . S
H286 C284 0.961 . S
H287 C284 0.960 . S
C288 N289 1.342 . S
C288 C292 1.401 . S
C288 C293 1.499 . S
N289 Co272 1.989 . S
N289 C288 1.342 . S
N289 N290 1.388 . S
N290 Co273 1.993 . S
N290 N289 1.388 . S
N290 C291 1.346 . S
C291 N290 1.346 . S
C291 C292 1.396 . S
C291 C301 1.510 . S
C292 C288 1.401 . S
C292 C291 1.396 . S
C293 C288 1.499 . S
C293 H294 0.959 . S
C293 H295 0.960 . S
C293 H296 0.961 . S
H294 C293 0.959 . S
H295 C293 0.960 . S
H296 C293 0.961 . S
O297 Co272 1.967 . S
O297 C305 1.258 . S
O298 Co273 1.941 . S
O298 C305 1.266 . S
H299 C301 0.959 . S
H300 C301 0.961 . S
C301 C291 1.510 . S
C301 H299 0.959 . S
C301 H300 0.961 . S
C301 H302 0.960 . S
H302 C301 0.960 . S
H303 N283 0.862 . S
O304 Co272 1.920 . S
O304 C277 1.289 . S
C305 O297 1.258 . S
C305 O298 1.266 . S
Co306 O309 1.970 . S
Co306 N323 1.989 . S
Co306 O331 1.967 . S
Co306 O338 1.920 . S
Co307 O310 1.966 . S
Co307 N316 2.022 . S
Co307 N324 1.993 . S
Co307 O332 1.941 . S
C308 O309 1.258 . S
C308 O310 1.263 . S
O309 Co306 1.970 . S
O309 C308 1.258 . S
O310 Co307 1.966 . S
O310 C308 1.263 . S
C311 O312 1.235 . S
C311 O338 1.289 . S
O312 C311 1.235 . S
C313 C315 1.400 . S
C313 N316 1.351 . S
C313 C318 1.501 . S
C314 C315 1.387 . S
C314 N317 1.341 . S
C315 C313 1.400 . S
C315 C314 1.387 . S
N316 Co307 2.022 . S
N316 C313 1.351 . S
N316 N317 1.365 . S
N317 C314 1.341 . S
N317 N316 1.365 . S
N317 H337 0.862 . S
C318 C313 1.501 . S
C318 H319 0.961 . S
C318 H320 0.961 . S
C318 H321 0.960 . S
H319 C318 0.961 . S
H320 C318 0.961 . S
H321 C318 0.960 . S
C322 N323 1.342 . S
C322 C326 1.401 . S
C322 C327 1.499 . S
N323 Co306 1.989 . S
N323 C322 1.342 . S
N323 N324 1.388 . S
N324 Co307 1.993 . S
N324 N323 1.388 . S
N324 C325 1.346 . S
C325 N324 1.346 . S
C325 C326 1.396 . S
C325 C335 1.510 . S
C326 C322 1.401 . S
C326 C325 1.396 . S
C327 C322 1.499 . S
C327 H328 0.959 . S
C327 H329 0.960 . S
C327 H330 0.961 . S
H328 C327 0.959 . S
H329 C327 0.960 . S
H330 C327 0.961 . S
O331 Co306 1.967 . S
O331 C339 1.258 . S
O332 Co307 1.941 . S
O332 C339 1.266 . S
H333 C335 0.959 . S
H334 C335 0.961 . S
C335 C325 1.510 . S
C335 H333 0.959 . S
C335 H334 0.961 . S
C335 H336 0.960 . S
H336 C335 0.960 . S
H337 N317 0.862 . S
O338 Co306 1.920 . S
O338 C311 1.289 . S
C339 O331 1.258 . S
C339 O332 1.266 . S
Co340 O343 1.970 . S
Co340 N357 1.989 . S
Co340 O365 1.967 . S
Co340 O372 1.920 . S
Co341 O344 1.966 . S
Co341 N350 2.022 . S
Co341 N358 1.993 . S
Co341 O366 1.941 . S
C342 O343 1.258 . S
C342 O344 1.263 . S
O343 Co340 1.970 . S
O343 C342 1.258 . S
O344 Co341 1.966 . S
O344 C342 1.263 . S
C345 O346 1.235 . S
C345 O372 1.289 . S
O346 C345 1.235 . S
C347 C349 1.400 . S
C347 N350 1.351 . S
C347 C352 1.501 . S
C348 C349 1.387 . S
C348 N351 1.341 . S
C349 C347 1.400 . S
C349 C348 1.387 . S
N350 Co341 2.022 . S
N350 C347 1.351 . S
N350 N351 1.365 . S
N351 C348 1.341 . S
N351 N350 1.365 . S
N351 H371 0.862 . S
C352 C347 1.501 . S
C352 H353 0.961 . S
C352 H354 0.961 . S
C352 H355 0.960 . S
H353 C352 0.961 . S
H354 C352 0.961 . S
H355 C352 0.960 . S
C356 N357 1.342 . S
C356 C360 1.401 . S
C356 C361 1.499 . S
N357 Co340 1.989 . S
N357 C356 1.342 . S
N357 N358 1.388 . S
N358 Co341 1.993 . S
N358 N357 1.388 . S
N358 C359 1.346 . S
C359 N358 1.346 . S
C359 C360 1.396 . S
C359 C369 1.510 . S
C360 C356 1.401 . S
C360 C359 1.396 . S
C361 C356 1.499 . S
C361 H362 0.959 . S
C361 H363 0.960 . S
C361 H364 0.961 . S
H362 C361 0.959 . S
H363 C361 0.960 . S
H364 C361 0.961 . S
O365 Co340 1.967 . S
O365 C373 1.258 . S
O366 Co341 1.941 . S
O366 C373 1.266 . S
H367 C369 0.959 . S
H368 C369 0.961 . S
C369 C359 1.510 . S
C369 H367 0.959 . S
C369 H368 0.961 . S
C369 H370 0.960 . S
H370 C369 0.960 . S
H371 N351 0.862 . S
O372 Co340 1.920 . S
O372 C345 1.289 . S
C373 O365 1.258 . S
C373 O366 1.266 . S
Co374 O377 1.970 . S
Co374 N391 1.989 . S
Co374 O399 1.967 . S
Co374 O406 1.920 . S
Co375 O378 1.966 . S
Co375 N384 2.022 . S
Co375 N392 1.993 . S
Co375 O400 1.941 . S
C376 O377 1.258 . S
C376 O378 1.263 . S
O377 Co374 1.970 . S
O377 C376 1.258 . S
O378 Co375 1.966 . S
O378 C376 1.263 . S
C379 O380 1.235 . S
C379 O406 1.289 . S
O380 C379 1.235 . S
C381 C383 1.400 . S
C381 N384 1.351 . S
C381 C386 1.501 . S
C382 C383 1.387 . S
C382 N385 1.341 . S
C383 C381 1.400 . S
C383 C382 1.387 . S
N384 Co375 2.022 . S
N384 C381 1.351 . S
N384 N385 1.365 . S
N385 C382 1.341 . S
N385 N384 1.365 . S
N385 H405 0.862 . S
C386 C381 1.501 . S
C386 H387 0.961 . S
C386 H388 0.961 . S
C386 H389 0.960 . S
H387 C386 0.961 . S
H388 C386 0.961 . S
H389 C386 0.960 . S
C390 N391 1.342 . S
C390 C394 1.401 . S
C390 C395 1.499 . S
N391 Co374 1.989 . S
N391 C390 1.342 . S
N391 N392 1.388 . S
N392 Co375 1.993 . S
N392 N391 1.388 . S
N392 C393 1.346 . S
C393 N392 1.346 . S
C393 C394 1.396 . S
C393 C403 1.510 . S
C394 C390 1.401 . S
C394 C393 1.396 . S
C395 C390 1.499 . S
C395 H396 0.959 . S
C395 H397 0.960 . S
C395 H398 0.961 . S
H396 C395 0.959 . S
H397 C395 0.960 . S
H398 C395 0.961 . S
O399 Co374 1.967 . S
O399 C407 1.258 . S
O400 Co375 1.941 . S
O400 C407 1.266 . S
H401 C403 0.959 . S
H402 C403 0.961 . S
C403 C393 1.510 . S
C403 H401 0.959 . S
C403 H402 0.961 . S
C403 H404 0.960 . S
H404 C403 0.960 . S
H405 N385 0.862 . S
O406 Co374 1.920 . S
O406 C379 1.289 . S
C407 O399 1.258 . S
C407 O400 1.266 . S
Co408 O411 1.970 . S
Co408 N425 1.989 . S
Co408 O433 1.967 . S
Co408 O440 1.920 . S
Co409 O412 1.966 . S
Co409 N418 2.022 . S
Co409 N426 1.993 . S
Co409 O434 1.941 . S
C410 O411 1.258 . S
C410 O412 1.263 . S
O411 Co408 1.970 . S
O411 C410 1.258 . S
O412 Co409 1.966 . S
O412 C410 1.263 . S
C413 O414 1.235 . S
C413 O440 1.289 . S
O414 C413 1.235 . S
C415 C417 1.400 . S
C415 N418 1.351 . S
C415 C420 1.501 . S
C416 C417 1.387 . S
C416 N419 1.341 . S
C417 C415 1.400 . S
C417 C416 1.387 . S
N418 Co409 2.022 . S
N418 C415 1.351 . S
N418 N419 1.365 . S
N419 C416 1.341 . S
N419 N418 1.365 . S
N419 H439 0.862 . S
C420 C415 1.501 . S
C420 H421 0.961 . S
C420 H422 0.961 . S
C420 H423 0.960 . S
H421 C420 0.961 . S
H422 C420 0.961 . S
H423 C420 0.960 . S
C424 N425 1.342 . S
C424 C428 1.401 . S
C424 C429 1.499 . S
N425 Co408 1.989 . S
N425 C424 1.342 . S
N425 N426 1.388 . S
N426 Co409 1.993 . S
N426 N425 1.388 . S
N426 C427 1.346 . S
C427 N426 1.346 . S
C427 C428 1.396 . S
C427 C437 1.510 . S
C428 C424 1.401 . S
C428 C427 1.396 . S
C429 C424 1.499 . S
C429 H430 0.959 . S
C429 H431 0.960 . S
C429 H432 0.961 . S
H430 C429 0.959 . S
H431 C429 0.960 . S
H432 C429 0.961 . S
O433 Co408 1.967 . S
O433 C441 1.258 . S
O434 Co409 1.941 . S
O434 C441 1.266 . S
H435 C437 0.959 . S
H436 C437 0.961 . S
C437 C427 1.510 . S
C437 H435 0.959 . S
C437 H436 0.961 . S
C437 H438 0.960 . S
H438 C437 0.960 . S
H439 N419 0.862 . S
O440 Co408 1.920 . S
O440 C413 1.289 . S
C441 O433 1.258 . S
C441 O434 1.266 . S
Co442 O445 1.970 . S
Co442 N459 1.989 . S
Co442 O467 1.967 . S
Co442 O474 1.920 . S
Co443 O446 1.966 . S
Co443 N452 2.022 . S
Co443 N460 1.993 . S
Co443 O468 1.941 . S
C444 O445 1.258 . S
C444 O446 1.263 . S
O445 Co442 1.970 . S
O445 C444 1.258 . S
O446 Co443 1.966 . S
O446 C444 1.263 . S
C447 O448 1.235 . S
C447 O474 1.289 . S
O448 C447 1.235 . S
C449 C451 1.400 . S
C449 N452 1.351 . S
C449 C454 1.501 . S
C450 C451 1.387 . S
C450 N453 1.341 . S
C451 C449 1.400 . S
C451 C450 1.387 . S
N452 Co443 2.022 . S
N452 C449 1.351 . S
N452 N453 1.365 . S
N453 C450 1.341 . S
N453 N452 1.365 . S
N453 H473 0.862 . S
C454 C449 1.501 . S
C454 H455 0.961 . S
C454 H456 0.961 . S
C454 H457 0.960 . S
H455 C454 0.961 . S
H456 C454 0.961 . S
H457 C454 0.960 . S
C458 N459 1.342 . S
C458 C462 1.401 . S
C458 C463 1.499 . S
N459 Co442 1.989 . S
N459 C458 1.342 . S
N459 N460 1.388 . S
N460 Co443 1.993 . S
N460 N459 1.388 . S
N460 C461 1.346 . S
C461 N460 1.346 . S
C461 C462 1.396 . S
C461 C471 1.510 . S
C462 C458 1.401 . S
C462 C461 1.396 . S
C463 C458 1.499 . S
C463 H464 0.959 . S
C463 H465 0.960 . S
C463 H466 0.961 . S
H464 C463 0.959 . S
H465 C463 0.960 . S
H466 C463 0.961 . S
O467 Co442 1.967 . S
O467 C475 1.258 . S
O468 Co443 1.941 . S
O468 C475 1.266 . S
H469 C471 0.959 . S
H470 C471 0.961 . S
C471 C461 1.510 . S
C471 H469 0.959 . S
C471 H470 0.961 . S
C471 H472 0.960 . S
H472 C471 0.960 . S
H473 N453 0.862 . S
O474 Co442 1.920 . S
O474 C447 1.289 . S
C475 O467 1.258 . S
C475 O468 1.266 . S
Co476 O479 1.970 . S
Co476 N493 1.989 . S
Co476 O501 1.967 . S
Co476 O508 1.920 . S
Co477 O480 1.966 . S
Co477 N486 2.022 . S
Co477 N494 1.993 . S
Co477 O502 1.941 . S
C478 O479 1.258 . S
C478 O480 1.263 . S
O479 Co476 1.970 . S
O479 C478 1.258 . S
O480 Co477 1.966 . S
O480 C478 1.263 . S
C481 O482 1.235 . S
C481 O508 1.289 . S
O482 C481 1.235 . S
C483 C485 1.400 . S
C483 N486 1.351 . S
C483 C488 1.501 . S
C484 C485 1.387 . S
C484 N487 1.341 . S
C485 C483 1.400 . S
C485 C484 1.387 . S
N486 Co477 2.022 . S
N486 C483 1.351 . S
N486 N487 1.365 . S
N487 C484 1.341 . S
N487 N486 1.365 . S
N487 H507 0.862 . S
C488 C483 1.501 . S
C488 H489 0.961 . S
C488 H490 0.961 . S
C488 H491 0.960 . S
H489 C488 0.961 . S
H490 C488 0.961 . S
H491 C488 0.960 . S
C492 N493 1.342 . S
C492 C496 1.401 . S
C492 C497 1.499 . S
N493 Co476 1.989 . S
N493 C492 1.342 . S
N493 N494 1.388 . S
N494 Co477 1.993 . S
N494 N493 1.388 . S
N494 C495 1.346 . S
C495 N494 1.346 . S
C495 C496 1.396 . S
C495 C505 1.510 . S
C496 C492 1.401 . S
C496 C495 1.396 . S
C497 C492 1.499 . S
C497 H498 0.959 . S
C497 H499 0.960 . S
C497 H500 0.961 . S
H498 C497 0.959 . S
H499 C497 0.960 . S
H500 C497 0.961 . S
O501 Co476 1.967 . S
O501 C509 1.258 . S
O502 Co477 1.941 . S
O502 C509 1.266 . S
H503 C505 0.959 . S
H504 C505 0.961 . S
C505 C495 1.510 . S
C505 H503 0.959 . S
C505 H504 0.961 . S
C505 H506 0.960 . S
H506 C505 0.960 . S
H507 N487 0.862 . S
O508 Co476 1.920 . S
O508 C481 1.289 . S
C509 O501 1.258 . S
C509 O502 1.266 . S
Co510 O513 1.970 . S
Co510 N527 1.989 . S
Co510 O535 1.967 . S
Co510 O542 1.920 . S
Co511 O514 1.966 . S
Co511 N520 2.022 . S
Co511 N528 1.993 . S
Co511 O536 1.941 . S
C512 O513 1.258 . S
C512 O514 1.263 . S
O513 Co510 1.970 . S
O513 C512 1.258 . S
O514 Co511 1.966 . S
O514 C512 1.263 . S
C515 O516 1.235 . S
C515 O542 1.289 . S
O516 C515 1.235 . S
C517 C519 1.400 . S
C517 N520 1.351 . S
C517 C522 1.501 . S
C518 C519 1.387 . S
C518 N521 1.341 . S
C519 C517 1.400 . S
C519 C518 1.387 . S
N520 Co511 2.022 . S
N520 C517 1.351 . S
N520 N521 1.365 . S
N521 C518 1.341 . S
N521 N520 1.365 . S
N521 H541 0.862 . S
C522 C517 1.501 . S
C522 H523 0.961 . S
C522 H524 0.961 . S
C522 H525 0.960 . S
H523 C522 0.961 . S
H524 C522 0.961 . S
H525 C522 0.960 . S
C526 N527 1.342 . S
C526 C530 1.401 . S
C526 C531 1.499 . S
N527 Co510 1.989 . S
N527 C526 1.342 . S
N527 N528 1.388 . S
N528 Co511 1.993 . S
N528 N527 1.388 . S
N528 C529 1.346 . S
C529 N528 1.346 . S
C529 C530 1.396 . S
C529 C539 1.510 . S
C530 C526 1.401 . S
C530 C529 1.396 . S
C531 C526 1.499 . S
C531 H532 0.959 . S
C531 H533 0.960 . S
C531 H534 0.961 . S
H532 C531 0.959 . S
H533 C531 0.960 . S
H534 C531 0.961 . S
O535 Co510 1.967 . S
O535 C543 1.258 . S
O536 Co511 1.941 . S
O536 C543 1.266 . S
H537 C539 0.959 . S
H538 C539 0.961 . S
C539 C529 1.510 . S
C539 H537 0.959 . S
C539 H538 0.961 . S
C539 H540 0.960 . S
H540 C539 0.960 . S
H541 N521 0.862 . S
O542 Co510 1.920 . S
O542 C515 1.289 . S
C543 O535 1.258 . S
C543 O536 1.266 . S
Co544 O547 1.970 . S
Co544 N561 1.989 . S
Co544 O569 1.967 . S
Co544 O576 1.920 . S
Co545 O548 1.966 . S
Co545 N554 2.022 . S
Co545 N562 1.993 . S
Co545 O570 1.941 . S
C546 O547 1.258 . S
C546 O548 1.263 . S
O547 Co544 1.970 . S
O547 C546 1.258 . S
O548 Co545 1.966 . S
O548 C546 1.263 . S
C549 O550 1.235 . S
C549 O576 1.289 . S
O550 C549 1.235 . S
C551 C553 1.400 . S
C551 N554 1.351 . S
C551 C556 1.501 . S
C552 C553 1.387 . S
C552 N555 1.341 . S
C553 C551 1.400 . S
C553 C552 1.387 . S
N554 Co545 2.022 . S
N554 C551 1.351 . S
N554 N555 1.365 . S
N555 C552 1.341 . S
N555 N554 1.365 . S
N555 H575 0.862 . S
C556 C551 1.501 . S
C556 H557 0.961 . S
C556 H558 0.961 . S
C556 H559 0.960 . S
H557 C556 0.961 . S
H558 C556 0.961 . S
H559 C556 0.960 . S
C560 N561 1.342 . S
C560 C564 1.401 . S
C560 C565 1.499 . S
N561 Co544 1.989 . S
N561 C560 1.342 . S
N561 N562 1.388 . S
N562 Co545 1.993 . S
N562 N561 1.388 . S
N562 C563 1.346 . S
C563 N562 1.346 . S
C563 C564 1.396 . S
C563 C573 1.510 . S
C564 C560 1.401 . S
C564 C563 1.396 . S
C565 C560 1.499 . S
C565 H566 0.959 . S
C565 H567 0.960 . S
C565 H568 0.961 . S
H566 C565 0.959 . S
H567 C565 0.960 . S
H568 C565 0.961 . S
O569 Co544 1.967 . S
O569 C577 1.258 . S
O570 Co545 1.941 . S
O570 C577 1.266 . S
H571 C573 0.959 . S
H572 C573 0.961 . S
C573 C563 1.510 . S
C573 H571 0.959 . S
C573 H572 0.961 . S
C573 H574 0.960 . S
H574 C573 0.960 . S
H575 N555 0.862 . S
O576 Co544 1.920 . S
O576 C549 1.289 . S
C577 O569 1.258 . S
C577 O570 1.266 . S
Co578 O581 1.970 . S
Co578 N595 1.989 . S
Co578 O603 1.967 . S
Co578 O610 1.920 . S
Co579 O582 1.966 . S
Co579 N588 2.022 . S
Co579 N596 1.993 . S
Co579 O604 1.941 . S
C580 O581 1.258 . S
C580 O582 1.263 . S
O581 Co578 1.970 . S
O581 C580 1.258 . S
O582 Co579 1.966 . S
O582 C580 1.263 . S
C583 O584 1.235 . S
C583 O610 1.289 . S
O584 C583 1.235 . S
C585 C587 1.400 . S
C585 N588 1.351 . S
C585 C590 1.501 . S
C586 C587 1.387 . S
C586 N589 1.341 . S
C587 C585 1.400 . S
C587 C586 1.387 . S
N588 Co579 2.022 . S
N588 C585 1.351 . S
N588 N589 1.365 . S
N589 C586 1.341 . S
N589 N588 1.365 . S
N589 H609 0.862 . S
C590 C585 1.501 . S
C590 H591 0.961 . S
C590 H592 0.961 . S
C590 H593 0.960 . S
H591 C590 0.961 . S
H592 C590 0.961 . S
H593 C590 0.960 . S
C594 N595 1.342 . S
C594 C598 1.401 . S
C594 C599 1.499 . S
N595 Co578 1.989 . S
N595 C594 1.342 . S
N595 N596 1.388 . S
N596 Co579 1.993 . S
N596 N595 1.388 . S
N596 C597 1.346 . S
C597 N596 1.346 . S
C597 C598 1.396 . S
C597 C607 1.510 . S
C598 C594 1.401 . S
C598 C597 1.396 . S
C599 C594 1.499 . S
C599 H600 0.959 . S
C599 H601 0.960 . S
C599 H602 0.961 . S
H600 C599 0.959 . S
H601 C599 0.960 . S
H602 C599 0.961 . S
O603 Co578 1.967 . S
O603 C611 1.258 . S
O604 Co579 1.941 . S
O604 C611 1.266 . S
H605 C607 0.959 . S
H606 C607 0.961 . S
C607 C597 1.510 . S
C607 H605 0.959 . S
C607 H606 0.961 . S
C607 H608 0.960 . S
H608 C607 0.960 . S
H609 N589 0.862 . S
O610 Co578 1.920 . S
O610 C583 1.289 . S
C611 O603 1.258 . S
C611 O604 1.266 . S
H612 C618 0.930 . S
H613 C622 0.930 . S
H614 C627 0.929 . S
H615 C625 0.929 . S
H616 C620 0.929 . S
H617 C626 0.929 . S
C618 H612 0.930 . S
C618 C619 1.367 . S
C618 C626 1.378 . S
C619 C618 1.367 . S
C619 C627 1.433 . S
C620 H616 0.929 . S
C620 C622 1.378 . S
C620 C624 1.350 . S
C621 C624 1.463 . S
C621 C626 1.350 . S
C621 N629 1.427 . S
C622 H613 0.930 . S
C622 C620 1.378 . S
C622 C623 1.367 1_655 S
C623 C622 1.367 1_455 S
C623 C625 1.433 . S
C624 C620 1.350 . S
C624 C621 1.463 . S
C624 N628 1.427 1_655 S
C625 H615 0.929 . S
C625 C623 1.433 . S
C625 N628 1.384 . S
C626 H617 0.929 . S
C626 C618 1.378 . S
C626 C621 1.350 . S
C627 H614 0.929 . S
C627 C619 1.433 . S
C627 N629 1.384 . S
N628 C624 1.427 1_455 S
N628 C625 1.384 . S
N629 C621 1.427 . S
N629 C627 1.384 . S
H630 C636 0.930 . S
H631 C640 0.930 . S
H632 C645 0.929 . S
H633 C643 0.929 . S
H634 C638 0.929 . S
H635 C644 0.929 . S
C636 H630 0.930 . S
C636 C637 1.367 . S
C636 C644 1.378 . S
C637 C636 1.367 . S
C637 C645 1.433 . S
C638 H634 0.929 . S
C638 C640 1.378 . S
C638 C642 1.350 . S
C639 C642 1.463 . S
C639 C644 1.350 . S
C639 N647 1.427 . S
C640 H631 0.930 . S
C640 C638 1.378 . S
C640 C641 1.367 . S
C641 C640 1.367 . S
C641 C643 1.433 . S
C642 C638 1.350 . S
C642 C639 1.463 . S
C642 N646 1.427 . S
C643 H633 0.929 . S
C643 C641 1.433 . S
C643 N646 1.384 . S
C644 H635 0.929 . S
C644 C636 1.378 . S
C644 C639 1.350 . S
C645 H632 0.929 . S
C645 C637 1.433 . S
C645 N647 1.384 . S
N646 C642 1.427 . S
N646 C643 1.384 . S
N647 C639 1.427 . S
N647 C645 1.384 . S
H648 C654 0.930 . S
H649 C658 0.930 . S
H650 C663 0.929 . S
H651 C661 0.929 . S
H652 C656 0.929 . S
H653 C662 0.929 . S
C654 H648 0.930 . S
C654 C655 1.367 . S
C654 C662 1.378 . S
C655 C654 1.367 . S
C655 C663 1.433 . S
C656 H652 0.929 . S
C656 C658 1.378 . S
C656 C660 1.350 1_565 S
C657 C660 1.463 . S
C657 C662 1.350 . S
C657 N665 1.427 . S
C658 H649 0.930 . S
C658 C656 1.378 . S
C658 C659 1.367 . S
C659 C658 1.367 . S
C659 C661 1.433 1_565 S
C660 C656 1.350 1_545 S
C660 C657 1.463 . S
C660 N664 1.427 . S
C661 H651 0.929 . S
C661 C659 1.433 1_545 S
C661 N664 1.384 . S
C662 H653 0.929 . S
C662 C654 1.378 . S
C662 C657 1.350 . S
C663 H650 0.929 . S
C663 C655 1.433 . S
C663 N665 1.384 . S
N664 C660 1.427 . S
N664 C661 1.384 . S
N665 C657 1.427 . S
N665 C663 1.384 . S
H666 C672 0.933 . S
H667 C676 0.930 . S
H668 C681 0.952 . S
H669 C679 0.929 . S
H670 C674 0.929 . S
H671 C680 0.929 . S
C672 H666 0.933 . S
C672 C673 1.369 . S
C672 C680 1.373 1_545 S
C673 C672 1.369 . S
C673 C681 1.450 . S
C674 H670 0.929 . S
C674 C676 1.378 . S
C674 C678 1.350 . S
C675 C678 1.463 . S
C675 C680 1.350 . S
C675 N683 1.427 . S
C676 H667 0.930 . S
C676 C674 1.378 . S
C676 C677 1.367 . S
C677 C676 1.367 . S
C677 C679 1.433 . S
C678 C674 1.350 . S
C678 C675 1.463 . S
C678 N682 1.427 . S
C679 H669 0.929 . S
C679 C677 1.433 . S
C679 N682 1.384 . S
C680 H671 0.929 . S
C680 C672 1.373 1_565 S
C680 C675 1.350 . S
C681 H668 0.952 . S
C681 C673 1.450 . S
C681 N683 1.345 1_545 S
N682 C678 1.427 . S
N682 C679 1.384 . S
N683 C675 1.427 . S
N683 C681 1.345 1_565 S
H684 C690 0.930 . S
H685 C694 0.930 . S
H686 C699 0.929 . S
H687 C697 0.929 . S
H688 C692 0.929 . S
H689 C698 0.929 . S
C690 H684 0.930 . S
C690 C691 1.367 . S
C690 C698 1.378 . S
C691 C690 1.367 . S
C691 C699 1.433 . S
C692 H688 0.929 . S
C692 C694 1.378 . S
C692 C696 1.350 . S
C693 C696 1.463 . S
C693 C698 1.350 . S
C693 N701 1.427 . S
C694 H685 0.930 . S
C694 C692 1.378 . S
C694 C695 1.367 1_455 S
C695 C694 1.367 1_655 S
C695 C697 1.433 . S
C696 C692 1.350 . S
C696 C693 1.463 . S
C696 N700 1.427 1_455 S
C697 H687 0.929 . S
C697 C695 1.433 . S
C697 N700 1.384 . S
C698 H689 0.929 . S
C698 C690 1.378 . S
C698 C693 1.350 . S
C699 H686 0.929 . S
C699 C691 1.433 . S
C699 N701 1.384 . S
N700 C696 1.427 1_655 S
N700 C697 1.384 . S
N701 C693 1.427 . S
N701 C699 1.384 . S
H702 C708 0.930 . S
H703 C712 0.930 . S
H704 C717 0.929 . S
H705 C715 0.929 . S
H706 C710 0.929 . S
H707 C716 0.929 . S
C708 H702 0.930 . S
C708 C709 1.367 . S
C708 C716 1.378 . S
C709 C708 1.367 . S
C709 C717 1.433 . S
C710 H706 0.929 . S
C710 C712 1.378 . S
C710 C714 1.350 . S
C711 C714 1.463 . S
C711 C716 1.350 . S
C711 N719 1.427 . S
C712 H703 0.930 . S
C712 C710 1.378 . S
C712 C713 1.367 . S
C713 C712 1.367 . S
C713 C715 1.433 . S
C714 C710 1.350 . S
C714 C711 1.463 . S
C714 N718 1.427 . S
C715 H705 0.929 . S
C715 C713 1.433 . S
C715 N718 1.384 . S
C716 H707 0.929 . S
C716 C708 1.378 . S
C716 C711 1.350 . S
C717 H704 0.929 . S
C717 C709 1.433 . S
C717 N719 1.384 . S
N718 C714 1.427 . S
N718 C715 1.384 . S
N719 C711 1.427 . S
N719 C717 1.384 . S
H720 C726 0.930 . S
H721 C730 0.930 . S
H722 C735 0.929 . S
H723 C733 0.929 . S
H724 C728 0.929 . S
H725 C734 0.929 . S
C726 H720 0.930 . S
C726 C727 1.367 . S
C726 C734 1.378 . S
C727 C726 1.367 . S
C727 C735 1.433 . S
C728 H724 0.929 . S
C728 C730 1.378 . S
C728 C732 1.350 . S
C729 C732 1.463 . S
C729 C734 1.350 . S
C729 N737 1.427 . S
C730 H721 0.930 . S
C730 C728 1.378 . S
C730 C731 1.367 . S
C731 C730 1.367 . S
C731 C733 1.433 . S
C732 C728 1.350 . S
C732 C729 1.463 . S
C732 N736 1.427 . S
C733 H723 0.929 . S
C733 C731 1.433 . S
C733 N736 1.384 . S
C734 H725 0.929 . S
C734 C726 1.378 . S
C734 C729 1.350 . S
C735 H722 0.929 . S
C735 C727 1.433 . S
C735 N737 1.384 . S
N736 C732 1.427 . S
N736 C733 1.384 . S
N737 C729 1.427 . S
N737 C735 1.384 . S
H738 C744 0.930 . S
H739 C748 0.930 . S
H740 C753 0.929 . S
H741 C751 0.929 . S
H742 C746 0.929 . S
H743 C752 0.929 . S
C744 H738 0.930 . S
C744 C745 1.367 . S
C744 C752 1.378 . S
C745 C744 1.367 . S
C745 C753 1.433 . S
C746 H742 0.929 . S
C746 C748 1.378 . S
C746 C750 1.350 . S
C747 C750 1.463 1_565 S
C747 C752 1.350 . S
C747 N755 1.427 . S
C748 H739 0.930 . S
C748 C746 1.378 . S
C748 C749 1.367 . S
C749 C748 1.367 . S
C749 C751 1.433 . S
C750 C746 1.350 . S
C750 C747 1.463 1_545 S
C750 N754 1.427 . S
C751 H741 0.929 . S
C751 C749 1.433 . S
C751 N754 1.384 . S
C752 H743 0.929 . S
C752 C744 1.378 . S
C752 C747 1.350 . S
C753 H740 0.929 . S
C753 C745 1.433 . S
C753 N755 1.384 . S
N754 C750 1.427 . S
N754 C751 1.384 . S
N755 C747 1.427 . S
N755 C753 1.384 . S
H756 C762 0.930 . S
H757 C766 0.930 . S
H758 C771 0.929 . S
H759 C769 0.929 . S
H760 C764 0.929 . S
H761 C770 0.929 . S
C762 H756 0.930 . S
C762 C763 1.367 . S
C762 C770 1.378 . S
C763 C762 1.367 . S
C763 C771 1.433 . S
C764 H760 0.929 . S
C764 C766 1.378 . S
C764 C768 1.350 . S
C765 C768 1.463 1_455 S
C765 C770 1.350 . S
C765 N773 1.427 . S
C766 H757 0.930 . S
C766 C764 1.378 . S
C766 C767 1.367 . S
C767 C766 1.367 . S
C767 C769 1.433 . S
C768 C764 1.350 . S
C768 C765 1.463 1_655 S
C768 N772 1.427 . S
C769 H759 0.929 . S
C769 C767 1.433 . S
C769 N772 1.384 . S
C770 H761 0.929 . S
C770 C762 1.378 . S
C770 C765 1.350 . S
C771 H758 0.929 . S
C771 C763 1.433 . S
C771 N773 1.384 . S
N772 C768 1.427 . S
N772 C769 1.384 . S
N773 C765 1.427 . S
N773 C771 1.384 . S
H774 C780 0.930 . S
H775 C784 0.930 . S
H776 C789 0.929 . S
H777 C787 0.929 . S
H778 C782 0.929 . S
H779 C788 0.929 . S
C780 H774 0.930 . S
C780 C781 1.367 . S
C780 C788 1.378 . S
C781 C780 1.367 . S
C781 C789 1.433 . S
C782 H778 0.929 . S
C782 C784 1.378 . S
C782 C786 1.350 . S
C783 C786 1.463 . S
C783 C788 1.350 . S
C783 N791 1.427 . S
C784 H775 0.930 . S
C784 C782 1.378 . S
C784 C785 1.367 . S
C785 C784 1.367 . S
C785 C787 1.433 . S
C786 C782 1.350 . S
C786 C783 1.463 . S
C786 N790 1.427 . S
C787 H777 0.929 . S
C787 C785 1.433 . S
C787 N790 1.384 . S
C788 H779 0.929 . S
C788 C780 1.378 . S
C788 C783 1.350 . S
C789 H776 0.929 . S
C789 C781 1.433 . S
C789 N791 1.384 . S
N790 C786 1.427 . S
N790 C787 1.384 . S
N791 C783 1.427 . S
N791 C789 1.384 . S
H792 C798 0.930 . S
H793 C802 0.930 . S
H794 C807 0.929 . S
H795 C805 0.929 . S
H796 C800 0.929 . S
H797 C806 0.929 . S
C798 H792 0.930 . S
C798 C799 1.367 . S
C798 C806 1.378 . S
C799 C798 1.367 . S
C799 C807 1.433 . S
C800 H796 0.929 . S
C800 C802 1.378 . S
C800 C804 1.350 . S
C801 C804 1.463 . S
C801 C806 1.350 . S
C801 N809 1.427 . S
C802 H793 0.930 . S
C802 C800 1.378 . S
C802 C803 1.367 . S
C803 C802 1.367 . S
C803 C805 1.433 . S
C804 C800 1.350 . S
C804 C801 1.463 . S
C804 N808 1.427 . S
C805 H795 0.929 . S
C805 C803 1.433 . S
C805 N808 1.384 . S
C806 H797 0.929 . S
C806 C798 1.378 . S
C806 C801 1.350 . S
C807 H794 0.929 . S
C807 C799 1.433 . S
C807 N809 1.384 . S
N808 C804 1.427 . S
N808 C805 1.384 . S
N809 C801 1.427 . S
N809 C807 1.384 . S
H810 C816 0.930 . S
H811 C820 0.930 . S
H812 C825 0.929 . S
H813 C823 0.929 . S
H814 C818 0.929 . S
H815 C824 0.929 . S
C816 H810 0.930 . S
C816 C817 1.367 . S
C816 C824 1.378 . S
C817 C816 1.367 . S
C817 C825 1.433 . S
C818 H814 0.929 . S
C818 C820 1.378 . S
C818 C822 1.350 . S
C819 C822 1.463 . S
C819 C824 1.350 . S
C819 N827 1.427 . S
C820 H811 0.930 . S
C820 C818 1.378 . S
C820 C821 1.367 . S
C821 C820 1.367 . S
C821 C823 1.433 . S
C822 C818 1.350 . S
C822 C819 1.463 . S
C822 N826 1.427 . S
C823 H813 0.929 . S
C823 C821 1.433 . S
C823 N826 1.384 . S
C824 H815 0.929 . S
C824 C816 1.378 . S
C824 C819 1.350 . S
C825 H812 0.929 . S
C825 C817 1.433 . S
C825 N827 1.384 . S
N826 C822 1.427 . S
N826 C823 1.384 . S
N827 C819 1.427 . S
N827 C825 1.384 . S
H828 C834 0.930 . S
H829 C838 0.930 . S
H830 C843 0.929 . S
H831 C841 0.929 . S
H832 C836 0.929 . S
H833 C842 0.929 . S
C834 H828 0.930 . S
C834 C835 1.367 . S
C834 C842 1.378 . S
C835 C834 1.367 . S
C835 C843 1.433 . S
C836 H832 0.929 . S
C836 C838 1.378 . S
C836 C840 1.350 . S
C837 C840 1.463 . S
C837 C842 1.350 . S
C837 N845 1.427 . S
C838 H829 0.930 . S
C838 C836 1.378 . S
C838 C839 1.367 . S
C839 C838 1.367 . S
C839 C841 1.433 . S
C840 C836 1.350 . S
C840 C837 1.463 . S
C840 N844 1.427 . S
C841 H831 0.929 . S
C841 C839 1.433 . S
C841 N844 1.384 . S
C842 H833 0.929 . S
C842 C834 1.378 . S
C842 C837 1.350 . S
C843 H830 0.929 . S
C843 C835 1.433 . S
C843 N845 1.384 . S
N844 C840 1.427 . S
N844 C841 1.384 . S
N845 C837 1.427 . S
N845 C843 1.384 . S
H846 C852 0.930 . S
H847 C856 0.930 . S
H848 C861 0.929 . S
H849 C859 0.929 . S
H850 C854 0.929 . S
H851 C860 0.929 . S
C852 H846 0.930 . S
C852 C853 1.367 . S
C852 C860 1.378 . S
C853 C852 1.367 . S
C853 C861 1.433 . S
C854 H850 0.929 . S
C854 C856 1.378 . S
C854 C858 1.350 . S
C855 C858 1.463 . S
C855 C860 1.350 . S
C855 N863 1.427 . S
C856 H847 0.930 . S
C856 C854 1.378 . S
C856 C857 1.367 . S
C857 C856 1.367 . S
C857 C859 1.433 . S
C858 C854 1.350 . S
C858 C855 1.463 . S
C858 N862 1.427 . S
C859 H849 0.929 . S
C859 C857 1.433 . S
C859 N862 1.384 . S
C860 H851 0.929 . S
C860 C852 1.378 . S
C860 C855 1.350 . S
C861 H848 0.929 . S
C861 C853 1.433 . S
C861 N863 1.384 . S
N862 C858 1.427 . S
N862 C859 1.384 . S
N863 C855 1.427 . S
N863 C861 1.384 . S
H864 C870 0.930 . S
H865 C874 0.930 . S
H866 C879 0.929 . S
H867 C877 0.929 . S
H868 C872 0.929 . S
H869 C878 0.929 . S
C870 H864 0.930 . S
C870 C871 1.367 . S
C870 C878 1.378 . S
C871 C870 1.367 . S
C871 C879 1.433 . S
C872 H868 0.929 . S
C872 C874 1.378 . S
C872 C876 1.350 . S
C873 C876 1.463 . S
C873 C878 1.350 . S
C873 N881 1.427 . S
C874 H865 0.930 . S
C874 C872 1.378 . S
C874 C875 1.367 . S
C875 C874 1.367 . S
C875 C877 1.433 . S
C876 C872 1.350 . S
C876 C873 1.463 . S
C876 N880 1.427 . S
C877 H867 0.929 . S
C877 C875 1.433 . S
C877 N880 1.384 . S
C878 H869 0.929 . S
C878 C870 1.378 . S
C878 C873 1.350 . S
C879 H866 0.929 . S
C879 C871 1.433 . S
C879 N881 1.384 . S
N880 C876 1.427 . S
N880 C877 1.384 . S
N881 C873 1.427 . S
N881 C879 1.384 . S
H882 C888 0.930 . S
H883 C892 0.930 . S
H884 C897 0.929 . S
H885 C895 0.929 . S
H886 C890 0.929 . S
H887 C896 0.929 . S
C888 H882 0.930 . S
C888 C889 1.367 . S
C888 C896 1.378 1_554 S
C889 C888 1.367 . S
C889 C897 1.433 . S
C890 H886 0.929 . S
C890 C892 1.378 1_554 S
C890 C894 1.350 1_554 S
C891 C894 1.463 1_654 S
C891 C896 1.350 1_554 S
C891 N899 1.427 . S
C892 H883 0.930 . S
C892 C890 1.378 1_556 S
C892 C893 1.367 . S
C893 C892 1.367 . S
C893 C895 1.433 . S
C894 C890 1.350 1_556 S
C894 C891 1.463 1_456 S
C894 N898 1.427 . S
C895 H885 0.929 . S
C895 C893 1.433 . S
C895 N898 1.384 . S
C896 H887 0.929 . S
C896 C888 1.378 1_556 S
C896 C891 1.350 1_556 S
C897 H884 0.929 . S
C897 C889 1.433 . S
C897 N899 1.384 . S
N898 C894 1.427 . S
N898 C895 1.384 . S
N899 C891 1.427 . S
N899 C897 1.384 . S
H900 C906 0.930 . S
H901 C910 0.930 . S
H902 C915 0.929 . S
H903 C913 0.929 . S
H904 C908 0.929 . S
H905 C914 0.929 . S
C906 H900 0.930 . S
C906 C907 1.367 . S
C906 C914 1.378 . S
C907 C906 1.367 . S
C907 C915 1.433 . S
C908 H904 0.929 . S
C908 C910 1.378 . S
C908 C912 1.350 . S
C909 C912 1.463 1_556 S
C909 C914 1.350 . S
C909 N917 1.427 . S
C910 H901 0.930 . S
C910 C908 1.378 . S
C910 C911 1.367 . S
C911 C910 1.367 . S
C911 C913 1.433 . S
C912 C908 1.350 . S
C912 C909 1.463 1_554 S
C912 N916 1.427 . S
C913 H903 0.929 . S
C913 C911 1.433 . S
C913 N916 1.384 . S
C914 H905 0.929 . S
C914 C906 1.378 . S
C914 C909 1.350 . S
C915 H902 0.929 . S
C915 C907 1.433 . S
C915 N917 1.384 . S
N916 C912 1.427 . S
N916 C913 1.384 . S
N917 C909 1.427 . S
N917 C915 1.384 . S
H918 C924 0.930 . S
H919 C928 0.930 . S
H920 C933 0.929 . S
H921 C931 0.929 . S
H922 C926 0.929 . S
H923 C932 0.929 . S
C924 H918 0.930 . S
C924 C925 1.367 . S
C924 C932 1.378 1_554 S
C925 C924 1.367 . S
C925 C933 1.433 . S
C926 H922 0.929 . S
C926 C928 1.378 1_554 S
C926 C930 1.350 1_554 S
C927 C930 1.463 1_544 S
C927 C932 1.350 1_554 S
C927 N935 1.427 . S
C928 H919 0.930 . S
C928 C926 1.378 1_556 S
C928 C929 1.367 . S
C929 C928 1.367 . S
C929 C931 1.433 . S
C930 C926 1.350 1_556 S
C930 C927 1.463 1_566 S
C930 N934 1.427 . S
C931 H921 0.929 . S
C931 C929 1.433 . S
C931 N934 1.384 . S
C932 H923 0.929 . S
C932 C924 1.378 1_556 S
C932 C927 1.350 1_556 S
C933 H920 0.929 . S
C933 C925 1.433 . S
C933 N935 1.384 . S
N934 C930 1.427 . S
N934 C931 1.384 . S
N935 C927 1.427 . S
N935 C933 1.384 . S
H936 C942 0.930 . S
H937 C946 0.930 . S
H938 C951 0.929 . S
H939 C949 0.929 . S
H940 C944 0.929 1_554 S
H941 C950 0.929 1_556 S
C942 H936 0.930 . S
C942 C943 1.367 . S
C942 C950 1.378 . S
C943 C942 1.367 . S
C943 C951 1.433 . S
C944 H940 0.929 1_556 S
C944 C946 1.378 . S
C944 C948 1.350 . S
C945 C948 1.463 1_454 S
C945 C950 1.350 . S
C945 N953 1.427 1_455 S
C946 H937 0.930 . S
C946 C944 1.378 . S
C946 C947 1.367 . S
C947 C946 1.367 . S
C947 C949 1.433 . S
C948 C944 1.350 . S
C948 C945 1.463 1_656 S
C948 N952 1.427 . S
C949 H939 0.929 . S
C949 C947 1.433 . S
C949 N952 1.384 . S
C950 H941 0.929 1_554 S
C950 C942 1.378 . S
C950 C945 1.350 . S
C951 H938 0.929 . S
C951 C943 1.433 . S
C951 N953 1.384 1_455 S
N952 C948 1.427 . S
N952 C949 1.384 . S
N953 C945 1.427 1_655 S
N953 C951 1.384 1_655 S
H954 C960 0.930 . S
H955 C964 0.930 . S
H956 C969 0.929 . S
H957 C967 0.929 . S
H958 C962 0.929 . S
H959 C968 0.929 . S
C960 H954 0.930 . S
C960 C961 1.367 . S
C960 C968 1.378 . S
C961 C960 1.367 . S
C961 C969 1.433 . S
C962 H958 0.929 . S
C962 C964 1.378 . S
C962 C966 1.350 . S
C963 C966 1.463 1_556 S
C963 C968 1.350 . S
C963 N971 1.427 . S
C964 H955 0.930 . S
C964 C962 1.378 . S
C964 C965 1.367 . S
C965 C964 1.367 . S
C965 C967 1.433 . S
C966 C962 1.350 . S
C966 C963 1.463 1_554 S
C966 N970 1.427 . S
C967 H957 0.929 . S
C967 C965 1.433 . S
C967 N970 1.384 . S
C968 H959 0.929 . S
C968 C960 1.378 . S
C968 C963 1.350 . S
C969 H956 0.929 . S
C969 C961 1.433 . S
C969 N971 1.384 . S
N970 C966 1.427 . S
N970 C967 1.384 . S
N971 C963 1.427 . S
N971 C969 1.384 . S
H972 C978 0.930 . S
H973 C982 0.930 . S
H974 C987 0.929 . S
H975 C985 0.929 . S
H976 C980 0.929 . S
H977 C986 0.929 . S
C978 H972 0.930 . S
C978 C979 1.367 . S
C978 C986 1.378 . S
C979 C978 1.367 . S
C979 C987 1.433 . S
C980 H976 0.929 . S
C980 C982 1.378 . S
C980 C984 1.350 . S
C981 C984 1.463 1_546 S
C981 C986 1.350 . S
C981 N989 1.414 1_545 S
C982 H973 0.930 . S
C982 C980 1.378 . S
C982 C983 1.367 . S
C983 C982 1.367 . S
C983 C985 1.433 . S
C984 C980 1.350 . S
C984 C981 1.463 1_564 S
C984 N988 1.427 . S
C985 H975 0.929 . S
C985 C983 1.433 . S
C985 N988 1.384 . S
C986 H977 0.929 . S
C986 C978 1.378 . S
C986 C981 1.350 . S
C987 H974 0.929 . S
C987 C979 1.433 . S
C987 N989 1.371 1_545 S
N988 C984 1.427 . S
N988 C985 1.384 . S
N989 C981 1.414 1_565 S
N989 C987 1.371 1_565 S
H990 C996 0.930 . S
H991 C1000 0.930 . S
H992 C1005 0.929 . S
H993 C1003 0.929 . S
H994 C998 0.929 . S
H995 C1004 0.929 . S
C996 H990 0.930 . S
C996 C997 1.367 . S
C996 C1004 1.378 . S
C997 C996 1.367 . S
C997 C1005 1.433 . S
C998 H994 0.929 . S
C998 C1000 1.378 . S
C998 C1002 1.350 . S
C999 C1002 1.463 . S
C999 C1004 1.350 . S
C999 N1007 1.427 . S
C1000 H991 0.930 . S
C1000 C998 1.378 . S
C1000 C1001 1.367 . S
C1001 C1000 1.367 . S
C1001 C1003 1.433 . S
C1002 C998 1.350 . S
C1002 C999 1.463 . S
C1002 N1006 1.427 . S
C1003 H993 0.929 . S
C1003 C1001 1.433 . S
C1003 N1006 1.384 . S
C1004 H995 0.929 . S
C1004 C996 1.378 . S
C1004 C999 1.350 . S
C1005 H992 0.929 . S
C1005 C997 1.433 . S
C1005 N1007 1.384 . S
N1006 C1002 1.427 . S
N1006 C1003 1.384 . S
N1007 C999 1.427 . S
N1007 C1005 1.384 . S
H1008 C1014 0.930 . S
H1009 C1018 0.930 . S
H1010 C1023 0.929 . S
H1011 C1021 0.929 . S
H1012 C1016 0.929 . S
H1013 C1022 0.929 . S
C1014 H1008 0.930 . S
C1014 C1015 1.367 . S
C1014 C1022 1.378 . S
C1015 C1014 1.367 . S
C1015 C1023 1.433 . S
C1016 H1012 0.929 . S
C1016 C1018 1.378 . S
C1016 C1020 1.350 . S
C1017 C1020 1.463 . S
C1017 C1022 1.350 . S
C1017 N1025 1.427 . S
C1018 H1009 0.930 . S
C1018 C1016 1.378 . S
C1018 C1019 1.367 . S
C1019 C1018 1.367 . S
C1019 C1021 1.433 . S
C1020 C1016 1.350 . S
C1020 C1017 1.463 . S
C1020 N1024 1.427 . S
C1021 H1011 0.929 . S
C1021 C1019 1.433 . S
C1021 N1024 1.384 . S
C1022 H1013 0.929 . S
C1022 C1014 1.378 . S
C1022 C1017 1.350 . S
C1023 H1010 0.929 . S
C1023 C1015 1.433 . S
C1023 N1025 1.384 . S
N1024 C1020 1.427 . S
N1024 C1021 1.384 . S
N1025 C1017 1.427 . S
N1025 C1023 1.384 . S
H1026 C1032 0.930 . S
H1027 C1036 0.930 . S
H1028 C1041 0.929 . S
H1029 C1039 0.929 . S
H1030 C1034 0.929 . S
H1031 C1040 0.929 . S
C1032 H1026 0.930 . S
C1032 C1033 1.367 . S
C1032 C1040 1.378 . S
C1033 C1032 1.367 . S
C1033 C1041 1.433 . S
C1034 H1030 0.929 . S
C1034 C1036 1.378 . S
C1034 C1038 1.350 . S
C1035 C1038 1.463 . S
C1035 C1040 1.350 . S
C1035 N1043 1.427 . S
C1036 H1027 0.930 . S
C1036 C1034 1.378 . S
C1036 C1037 1.367 . S
C1037 C1036 1.367 . S
C1037 C1039 1.433 . S
C1038 C1034 1.350 . S
C1038 C1035 1.463 . S
C1038 N1042 1.427 . S
C1039 H1029 0.929 . S
C1039 C1037 1.433 . S
C1039 N1042 1.384 . S
C1040 H1031 0.929 . S
C1040 C1032 1.378 . S
C1040 C1035 1.350 . S
C1041 H1028 0.929 . S
C1041 C1033 1.433 . S
C1041 N1043 1.384 . S
N1042 C1038 1.427 . S
N1042 C1039 1.384 . S
N1043 C1035 1.427 . S
N1043 C1041 1.384 . S
H1044 C1050 0.930 . S
H1045 C1054 0.930 . S
H1046 C1059 0.929 . S
H1047 C1057 0.929 . S
H1048 C1052 0.929 . S
H1049 C1058 0.929 . S
C1050 H1044 0.930 . S
C1050 C1051 1.367 . S
C1050 C1058 1.378 . S
C1051 C1050 1.367 . S
C1051 C1059 1.433 . S
C1052 H1048 0.929 . S
C1052 C1054 1.378 . S
C1052 C1056 1.350 . S
C1053 C1056 1.463 . S
C1053 C1058 1.350 . S
C1053 N1061 1.427 . S
C1054 H1045 0.930 . S
C1054 C1052 1.378 . S
C1054 C1055 1.367 . S
C1055 C1054 1.367 . S
C1055 C1057 1.433 . S
C1056 C1052 1.350 . S
C1056 C1053 1.463 . S
C1056 N1060 1.427 . S
C1057 H1047 0.929 . S
C1057 C1055 1.433 . S
C1057 N1060 1.384 . S
C1058 H1049 0.929 . S
C1058 C1050 1.378 . S
C1058 C1053 1.350 . S
C1059 H1046 0.929 . S
C1059 C1051 1.433 . S
C1059 N1061 1.384 . S
N1060 C1056 1.427 . S
N1060 C1057 1.384 . S
N1061 C1053 1.427 . S
N1061 C1059 1.384 . S
H1062 C1068 0.930 . S
H1063 C1072 0.930 . S
H1064 C1077 0.929 . S
H1065 C1075 0.929 . S
H1066 C1070 0.929 . S
H1067 C1076 0.929 . S
C1068 H1062 0.930 . S
C1068 C1069 1.367 . S
C1068 C1076 1.378 . S
C1069 C1068 1.367 . S
C1069 C1077 1.433 . S
C1070 H1066 0.929 . S
C1070 C1072 1.378 . S
C1070 C1074 1.350 . S
C1071 C1074 1.463 . S
C1071 C1076 1.350 . S
C1071 N1079 1.427 . S
C1072 H1063 0.930 . S
C1072 C1070 1.378 . S
C1072 C1073 1.367 . S
C1073 C1072 1.367 . S
C1073 C1075 1.433 . S
C1074 C1070 1.350 . S
C1074 C1071 1.463 . S
C1074 N1078 1.427 . S
C1075 H1065 0.929 . S
C1075 C1073 1.433 . S
C1075 N1078 1.384 . S
C1076 H1067 0.929 . S
C1076 C1068 1.378 . S
C1076 C1071 1.350 . S
C1077 H1064 0.929 . S
C1077 C1069 1.433 . S
C1077 N1079 1.384 . S
N1078 C1074 1.427 . S
N1078 C1075 1.384 . S
N1079 C1071 1.427 . S
N1079 C1077 1.384 . S
H1080 C1086 0.930 . S
H1081 C1090 0.930 . S
H1082 C1095 0.929 . S
H1083 C1093 0.929 . S
H1084 C1088 0.929 . S
H1085 C1094 0.929 . S
C1086 H1080 0.930 . S
C1086 C1087 1.367 . S
C1086 C1094 1.378 . S
C1087 C1086 1.367 . S
C1087 C1095 1.433 . S
C1088 H1084 0.929 . S
C1088 C1090 1.378 . S
C1088 C1092 1.350 . S
C1089 C1092 1.463 . S
C1089 C1094 1.350 . S
C1089 N1097 1.427 . S
C1090 H1081 0.930 . S
C1090 C1088 1.378 . S
C1090 C1091 1.367 . S
C1091 C1090 1.367 . S
C1091 C1093 1.433 . S
C1092 C1088 1.350 . S
C1092 C1089 1.463 . S
C1092 N1096 1.427 . S
C1093 H1083 0.929 . S
C1093 C1091 1.433 . S
C1093 N1096 1.384 . S
C1094 H1085 0.929 . S
C1094 C1086 1.378 . S
C1094 C1089 1.350 . S
C1095 H1082 0.929 . S
C1095 C1087 1.433 . S
C1095 N1097 1.384 . S
N1096 C1092 1.427 . S
N1096 C1093 1.384 . S
N1097 C1089 1.427 . S
N1097 C1095 1.384 . S
H1098 C1104 0.930 1_565 S
H1099 C1108 0.930 . S
H1100 C1113 0.929 . S
H1101 C1111 0.929 . S
H1102 C1106 0.929 . S
H1103 C1112 0.929 . S
C1104 H1098 0.930 1_545 S
C1104 C1105 1.367 . S
C1104 C1112 1.378 . S
C1105 C1104 1.367 . S
C1105 C1113 1.433 . S
C1106 H1102 0.929 . S
C1106 C1108 1.378 . S
C1106 C1110 1.350 . S
C1107 C1110 1.463 . S
C1107 C1112 1.350 . S
C1107 N1115 1.427 . S
C1108 H1099 0.930 . S
C1108 C1106 1.378 . S
C1108 C1109 1.367 . S
C1109 C1108 1.367 . S
C1109 C1111 1.433 . S
C1110 C1106 1.350 . S
C1110 C1107 1.463 . S
C1110 N1114 1.427 . S
C1111 H1101 0.929 . S
C1111 C1109 1.433 . S
C1111 N1114 1.384 . S
C1112 H1103 0.929 . S
C1112 C1104 1.378 . S
C1112 C1107 1.350 . S
C1113 H1100 0.929 . S
C1113 C1105 1.433 . S
C1113 N1115 1.384 . S
N1114 C1110 1.427 . S
N1114 C1111 1.384 . S
N1115 C1107 1.427 . S
N1115 C1113 1.384 . S
H1116 C1122 0.930 . S
H1117 C1126 0.930 1_565 S
H1118 C1131 0.929 . S
H1119 C1129 0.929 . S
H1120 C1124 0.929 . S
H1121 C1130 0.929 . S
C1122 H1116 0.930 . S
C1122 C1123 1.367 . S
C1122 C1130 1.378 . S
C1123 C1122 1.367 . S
C1123 C1131 1.433 . S
C1124 H1120 0.929 . S
C1124 C1126 1.378 . S
C1124 C1128 1.350 . S
C1125 C1128 1.463 . S
C1125 C1130 1.350 . S
C1125 N1133 1.427 . S
C1126 H1117 0.930 1_545 S
C1126 C1124 1.378 . S
C1126 C1127 1.367 1_545 S
C1127 C1126 1.367 1_565 S
C1127 C1129 1.433 . S
C1128 C1124 1.350 . S
C1128 C1125 1.463 . S
C1128 N1132 1.427 . S
C1129 H1119 0.929 . S
C1129 C1127 1.433 . S
C1129 N1132 1.384 1_565 S
C1130 H1121 0.929 . S
C1130 C1122 1.378 . S
C1130 C1125 1.350 . S
C1131 H1118 0.929 . S
C1131 C1123 1.433 . S
C1131 N1133 1.384 . S
N1132 C1128 1.427 . S
N1132 C1129 1.384 1_545 S
N1133 C1125 1.427 . S
N1133 C1131 1.384 . S
H1134 C1140 0.930 . S
H1135 C1144 0.930 . S
H1136 C1149 0.929 . S
H1137 C1147 0.929 . S
H1138 C1142 0.929 . S
H1139 C1148 0.929 . S
C1140 H1134 0.930 . S
C1140 C1141 1.367 . S
C1140 C1148 1.378 . S
C1141 C1140 1.367 . S
C1141 C1149 1.433 . S
C1142 H1138 0.929 . S
C1142 C1144 1.378 1_655 S
C1142 C1146 1.350 . S
C1143 C1146 1.463 . S
C1143 C1148 1.350 . S
C1143 N1151 1.427 . S
C1144 H1135 0.930 . S
C1144 C1142 1.378 1_455 S
C1144 C1145 1.367 . S
C1145 C1144 1.367 . S
C1145 C1147 1.433 1_455 S
C1146 C1142 1.350 . S
C1146 C1143 1.463 . S
C1146 N1150 1.427 . S
C1147 H1137 0.929 . S
C1147 C1145 1.433 1_655 S
C1147 N1150 1.384 . S
C1148 H1139 0.929 . S
C1148 C1140 1.378 . S
C1148 C1143 1.350 . S
C1149 H1136 0.929 . S
C1149 C1141 1.433 . S
C1149 N1151 1.384 . S
N1150 C1146 1.427 . S
N1150 C1147 1.384 . S
N1151 C1143 1.427 . S
N1151 C1149 1.384 . S
H1152 C1158 0.930 1_655 S
H1153 C1162 0.930 . S
H1154 C1167 0.929 . S
H1155 C1165 0.929 . S
H1156 C1160 0.929 . S
H1157 C1166 0.929 . S
C1158 H1152 0.930 1_455 S
C1158 C1159 1.367 . S
C1158 C1166 1.378 . S
C1159 C1158 1.367 . S
C1159 C1167 1.433 . S
C1160 H1156 0.929 . S
C1160 C1162 1.378 . S
C1160 C1164 1.350 . S
C1161 C1164 1.463 . S
C1161 C1166 1.350 . S
C1161 N1169 1.427 . S
C1162 H1153 0.930 . S
C1162 C1160 1.378 . S
C1162 C1163 1.367 . S
C1163 C1162 1.367 . S
C1163 C1165 1.433 . S
C1164 C1160 1.350 . S
C1164 C1161 1.463 . S
C1164 N1168 1.427 . S
C1165 H1155 0.929 . S
C1165 C1163 1.433 . S
C1165 N1168 1.384 . S
C1166 H1157 0.929 . S
C1166 C1158 1.378 . S
C1166 C1161 1.350 . S
C1167 H1154 0.929 . S
C1167 C1159 1.433 . S
C1167 N1169 1.384 . S
N1168 C1164 1.427 . S
N1168 C1165 1.384 . S
N1169 C1161 1.427 . S
N1169 C1167 1.384 . S
H1170 C1176 0.930 . S
H1171 C1180 0.930 . S
H1172 C1185 0.929 . S
H1173 C1183 0.929 . S
H1174 C1178 0.929 . S
H1175 C1184 0.929 . S
C1176 H1170 0.930 . S
C1176 C1177 1.367 1_565 S
C1176 C1184 1.378 . S
C1177 C1176 1.367 1_545 S
C1177 C1185 1.433 . S
C1178 H1174 0.929 . S
C1178 C1180 1.378 . S
C1178 C1182 1.350 . S
C1179 C1182 1.463 . S
C1179 C1184 1.350 . S
C1179 N1187 1.427 . S
C1180 H1171 0.930 . S
C1180 C1178 1.378 . S
C1180 C1181 1.367 . S
C1181 C1180 1.367 . S
C1181 C1183 1.433 . S
C1182 C1178 1.350 . S
C1182 C1179 1.463 . S
C1182 N1186 1.427 . S
C1183 H1173 0.929 . S
C1183 C1181 1.433 . S
C1183 N1186 1.384 . S
C1184 H1175 0.929 . S
C1184 C1176 1.378 . S
C1184 C1179 1.350 . S
C1185 H1172 0.929 . S
C1185 C1177 1.433 . S
C1185 N1187 1.384 1_545 S
N1186 C1182 1.427 . S
N1186 C1183 1.384 . S
N1187 C1179 1.427 . S
N1187 C1185 1.384 1_565 S
H1188 C1194 0.930 . S
H1189 C1198 0.930 . S
H1190 C1203 0.929 . S
H1191 C1201 0.929 . S
H1192 C1196 0.929 . S
H1193 C1202 0.929 . S
C1194 H1188 0.930 . S
C1194 C1195 1.367 . S
C1194 C1202 1.378 . S
C1195 C1194 1.367 . S
C1195 C1203 1.433 . S
C1196 H1192 0.929 . S
C1196 C1198 1.378 1_455 S
C1196 C1200 1.350 . S
C1197 C1200 1.463 . S
C1197 C1202 1.350 . S
C1197 N1205 1.427 . S
C1198 H1189 0.930 . S
C1198 C1196 1.378 1_655 S
C1198 C1199 1.367 . S
C1199 C1198 1.367 . S
C1199 C1201 1.433 . S
C1200 C1196 1.350 . S
C1200 C1197 1.463 . S
C1200 N1204 1.427 . S
C1201 H1191 0.929 . S
C1201 C1199 1.433 . S
C1201 N1204 1.384 1_655 S
C1202 H1193 0.929 . S
C1202 C1194 1.378 . S
C1202 C1197 1.350 . S
C1203 H1190 0.929 . S
C1203 C1195 1.433 . S
C1203 N1205 1.384 . S
N1204 C1200 1.427 . S
N1204 C1201 1.384 1_455 S
N1205 C1197 1.427 . S
N1205 C1203 1.384 . S
H1206 C1212 0.930 . S
H1207 C1216 0.930 . S
H1208 C1221 0.929 . S
H1209 C1219 0.929 . S
H1210 C1214 0.929 . S
H1211 C1220 0.929 . S
C1212 H1206 0.930 . S
C1212 C1213 1.367 . S
C1212 C1220 1.378 . S
C1213 C1212 1.367 . S
C1213 C1221 1.433 . S
C1214 H1210 0.929 . S
C1214 C1216 1.378 . S
C1214 C1218 1.350 . S
C1215 C1218 1.463 . S
C1215 C1220 1.350 . S
C1215 N1223 1.427 . S
C1216 H1207 0.930 . S
C1216 C1214 1.378 . S
C1216 C1217 1.367 . S
C1217 C1216 1.367 . S
C1217 C1219 1.433 . S
C1218 C1214 1.350 . S
C1218 C1215 1.463 . S
C1218 N1222 1.427 . S
C1219 H1209 0.929 . S
C1219 C1217 1.433 . S
C1219 N1222 1.384 . S
C1220 H1211 0.929 . S
C1220 C1212 1.378 . S
C1220 C1215 1.350 . S
C1221 H1208 0.929 . S
C1221 C1213 1.433 . S
C1221 N1223 1.384 . S
N1222 C1218 1.427 . S
N1222 C1219 1.384 . S
N1223 C1215 1.427 . S
N1223 C1221 1.384 . S
H1224 C1230 0.930 . S
H1225 C1234 0.930 . S
H1226 C1239 0.929 . S
H1227 C1237 0.929 . S
H1228 C1232 0.929 . S
H1229 C1238 0.929 . S
C1230 H1224 0.930 . S
C1230 C1231 1.367 . S
C1230 C1238 1.378 . S
C1231 C1230 1.367 . S
C1231 C1239 1.433 . S
C1232 H1228 0.929 . S
C1232 C1234 1.378 . S
C1232 C1236 1.350 . S
C1233 C1236 1.463 . S
C1233 C1238 1.350 . S
C1233 N1241 1.427 . S
C1234 H1225 0.930 . S
C1234 C1232 1.378 . S
C1234 C1235 1.367 . S
C1235 C1234 1.367 . S
C1235 C1237 1.433 . S
C1236 C1232 1.350 . S
C1236 C1233 1.463 . S
C1236 N1240 1.427 . S
C1237 H1227 0.929 . S
C1237 C1235 1.433 . S
C1237 N1240 1.384 . S
C1238 H1229 0.929 . S
C1238 C1230 1.378 . S
C1238 C1233 1.350 . S
C1239 H1226 0.929 . S
C1239 C1231 1.433 . S
C1239 N1241 1.384 . S
N1240 C1236 1.427 . S
N1240 C1237 1.384 . S
N1241 C1233 1.427 . S
N1241 C1239 1.384 . S
H1242 C1248 0.930 . S
H1243 C1252 0.930 . S
H1244 C1257 0.929 . S
H1245 C1255 0.929 . S
H1246 C1250 0.929 . S
H1247 C1256 0.929 . S
C1248 H1242 0.930 . S
C1248 C1249 1.367 . S
C1248 C1256 1.378 . S
C1249 C1248 1.367 . S
C1249 C1257 1.433 . S
C1250 H1246 0.929 . S
C1250 C1252 1.378 . S
C1250 C1254 1.350 . S
C1251 C1254 1.463 . S
C1251 C1256 1.350 . S
C1251 N1259 1.427 . S
C1252 H1243 0.930 . S
C1252 C1250 1.378 . S
C1252 C1253 1.367 . S
C1253 C1252 1.367 . S
C1253 C1255 1.433 . S
C1254 C1250 1.350 . S
C1254 C1251 1.463 . S
C1254 N1258 1.427 . S
C1255 H1245 0.929 . S
C1255 C1253 1.433 . S
C1255 N1258 1.384 . S
C1256 H1247 0.929 . S
C1256 C1248 1.378 . S
C1256 C1251 1.350 . S
C1257 H1244 0.929 . S
C1257 C1249 1.433 . S
C1257 N1259 1.384 . S
N1258 C1254 1.427 . S
N1258 C1255 1.384 . S
N1259 C1251 1.427 . S
N1259 C1257 1.384 . S
H1260 C1266 0.930 . S
H1261 C1270 0.930 . S
H1262 C1275 0.929 . S
H1263 C1273 0.929 . S
H1264 C1268 0.929 . S
H1265 C1274 0.929 . S
C1266 H1260 0.930 . S
C1266 C1267 1.367 . S
C1266 C1274 1.378 . S
C1267 C1266 1.367 . S
C1267 C1275 1.433 . S
C1268 H1264 0.929 . S
C1268 C1270 1.378 . S
C1268 C1272 1.350 . S
C1269 C1272 1.463 . S
C1269 C1274 1.350 . S
C1269 N1277 1.427 . S
C1270 H1261 0.930 . S
C1270 C1268 1.378 . S
C1270 C1271 1.367 . S
C1271 C1270 1.367 . S
C1271 C1273 1.433 . S
C1272 C1268 1.350 . S
C1272 C1269 1.463 . S
C1272 N1276 1.427 . S
C1273 H1263 0.929 . S
C1273 C1271 1.433 . S
C1273 N1276 1.384 . S
C1274 H1265 0.929 . S
C1274 C1266 1.378 . S
C1274 C1269 1.350 . S
C1275 H1262 0.929 . S
C1275 C1267 1.433 . S
C1275 N1277 1.384 . S
N1276 C1272 1.427 . S
N1276 C1273 1.384 . S
N1277 C1269 1.427 . S
N1277 C1275 1.384 . S
H1278 C1284 0.930 . S
H1279 C1288 0.930 . S
H1280 C1293 0.929 . S
H1281 C1291 0.929 . S
H1282 C1286 0.929 . S
H1283 C1292 0.929 . S
C1284 H1278 0.930 . S
C1284 C1285 1.367 . S
C1284 C1292 1.378 . S
C1285 C1284 1.367 . S
C1285 C1293 1.433 . S
C1286 H1282 0.929 . S
C1286 C1288 1.378 . S
C1286 C1290 1.350 . S
C1287 C1290 1.463 . S
C1287 C1292 1.350 . S
C1287 N1295 1.427 . S
C1288 H1279 0.930 . S
C1288 C1286 1.378 . S
C1288 C1289 1.367 . S
C1289 C1288 1.367 . S
C1289 C1291 1.433 . S
C1290 C1286 1.350 . S
C1290 C1287 1.463 . S
C1290 N1294 1.427 . S
C1291 H1281 0.929 . S
C1291 C1289 1.433 . S
C1291 N1294 1.384 . S
C1292 H1283 0.929 . S
C1292 C1284 1.378 . S
C1292 C1287 1.350 . S
C1293 H1280 0.929 . S
C1293 C1285 1.433 . S
C1293 N1295 1.384 . S
N1294 C1290 1.427 . S
N1294 C1291 1.384 . S
N1295 C1287 1.427 . S
N1295 C1293 1.384 . S
H1296 C1302 0.930 . S
H1297 C1306 0.930 . S
H1298 C1311 0.929 . S
H1299 C1309 0.929 . S
H1300 C1304 0.929 . S
H1301 C1310 0.929 . S
C1302 H1296 0.930 . S
C1302 C1303 1.367 . S
C1302 C1310 1.378 . S
C1303 C1302 1.367 . S
C1303 C1311 1.433 . S
C1304 H1300 0.929 . S
C1304 C1306 1.378 . S
C1304 C1308 1.350 . S
C1305 C1308 1.463 . S
C1305 C1310 1.350 . S
C1305 N1313 1.427 . S
C1306 H1297 0.930 . S
C1306 C1304 1.378 . S
C1306 C1307 1.367 . S
C1307 C1306 1.367 . S
C1307 C1309 1.433 . S
C1308 C1304 1.350 . S
C1308 C1305 1.463 . S
C1308 N1312 1.427 . S
C1309 H1299 0.929 . S
C1309 C1307 1.433 . S
C1309 N1312 1.384 . S
C1310 H1301 0.929 . S
C1310 C1302 1.378 . S
C1310 C1305 1.350 . S
C1311 H1298 0.929 . S
C1311 C1303 1.433 . S
C1311 N1313 1.384 . S
N1312 C1308 1.427 . S
N1312 C1309 1.384 . S
N1313 C1305 1.427 . S
N1313 C1311 1.384 . S
H1314 C1320 0.930 . S
H1315 C1324 0.930 . S
H1316 C1329 0.929 . S
H1317 C1327 0.929 . S
H1318 C1322 0.929 . S
H1319 C1328 0.929 . S
C1320 H1314 0.930 . S
C1320 C1321 1.367 . S
C1320 C1328 1.378 . S
C1321 C1320 1.367 . S
C1321 C1329 1.433 . S
C1322 H1318 0.929 . S
C1322 C1324 1.378 . S
C1322 C1326 1.350 . S
C1323 C1326 1.463 . S
C1323 C1328 1.350 . S
C1323 N1331 1.427 . S
C1324 H1315 0.930 . S
C1324 C1322 1.378 . S
C1324 C1325 1.367 . S
C1325 C1324 1.367 . S
C1325 C1327 1.433 . S
C1326 C1322 1.350 . S
C1326 C1323 1.463 . S
C1326 N1330 1.427 . S
C1327 H1317 0.929 . S
C1327 C1325 1.433 . S
C1327 N1330 1.384 . S
C1328 H1319 0.929 . S
C1328 C1320 1.378 . S
C1328 C1323 1.350 . S
C1329 H1316 0.929 . S
C1329 C1321 1.433 . S
C1329 N1331 1.384 . S
N1330 C1326 1.427 . S
N1330 C1327 1.384 . S
N1331 C1323 1.427 . S
N1331 C1329 1.384 . S
H1332 C1338 0.930 . S
H1333 C1342 0.930 . S
H1334 C1347 0.929 . S
H1335 C1345 0.929 . S
H1336 C1340 0.929 . S
H1337 C1346 0.929 . S
C1338 H1332 0.930 . S
C1338 C1339 1.367 . S
C1338 C1346 1.378 . S
C1339 C1338 1.367 . S
C1339 C1347 1.433 . S
C1340 H1336 0.929 . S
C1340 C1342 1.378 . S
C1340 C1344 1.350 . S
C1341 C1344 1.463 . S
C1341 C1346 1.350 . S
C1341 N1349 1.427 . S
C1342 H1333 0.930 . S
C1342 C1340 1.378 . S
C1342 C1343 1.367 . S
C1343 C1342 1.367 . S
C1343 C1345 1.433 . S
C1344 C1340 1.350 . S
C1344 C1341 1.463 . S
C1344 N1348 1.427 . S
C1345 H1335 0.929 . S
C1345 C1343 1.433 . S
C1345 N1348 1.384 . S
C1346 H1337 0.929 . S
C1346 C1338 1.378 . S
C1346 C1341 1.350 . S
C1347 H1334 0.929 . S
C1347 C1339 1.433 . S
C1347 N1349 1.384 . S
N1348 C1344 1.427 . S
N1348 C1345 1.384 . S
N1349 C1341 1.427 . S
N1349 C1347 1.384 . S
H1350 C1356 0.930 . S
H1351 C1360 0.930 . S
H1352 C1365 0.929 . S
H1353 C1363 0.929 . S
H1354 C1358 0.929 . S
H1355 C1364 0.929 . S
C1356 H1350 0.930 . S
C1356 C1357 1.367 . S
C1356 C1364 1.378 . S
C1357 C1356 1.367 . S
C1357 C1365 1.433 . S
C1358 H1354 0.929 . S
C1358 C1360 1.378 . S
C1358 C1362 1.350 . S
C1359 C1362 1.463 . S
C1359 C1364 1.350 . S
C1359 N1367 1.427 . S
C1360 H1351 0.930 . S
C1360 C1358 1.378 . S
C1360 C1361 1.367 . S
C1361 C1360 1.367 . S
C1361 C1363 1.433 . S
C1362 C1358 1.350 . S
C1362 C1359 1.463 . S
C1362 N1366 1.427 . S
C1363 H1353 0.929 . S
C1363 C1361 1.433 . S
C1363 N1366 1.384 . S
C1364 H1355 0.929 . S
C1364 C1356 1.378 . S
C1364 C1359 1.350 . S
C1365 H1352 0.929 . S
C1365 C1357 1.433 . S
C1365 N1367 1.384 . S
N1366 C1362 1.427 . S
N1366 C1363 1.384 . S
N1367 C1359 1.427 . S
N1367 C1365 1.384 . S
H1368 C1374 0.930 . S
H1369 C1378 0.930 . S
H1370 C1383 0.929 . S
H1371 C1381 0.929 . S
H1372 C1376 0.929 . S
H1373 C1382 0.929 . S
C1374 H1368 0.930 . S
C1374 C1375 1.367 . S
C1374 C1382 1.378 . S
C1375 C1374 1.367 . S
C1375 C1383 1.433 . S
C1376 H1372 0.929 . S
C1376 C1378 1.378 . S
C1376 C1380 1.350 . S
C1377 C1380 1.463 . S
C1377 C1382 1.350 . S
C1377 N1385 1.427 . S
C1378 H1369 0.930 . S
C1378 C1376 1.378 . S
C1378 C1379 1.367 . S
C1379 C1378 1.367 . S
C1379 C1381 1.433 . S
C1380 C1376 1.350 . S
C1380 C1377 1.463 . S
C1380 N1384 1.427 . S
C1381 H1371 0.929 . S
C1381 C1379 1.433 . S
C1381 N1384 1.384 . S
C1382 H1373 0.929 . S
C1382 C1374 1.378 . S
C1382 C1377 1.350 . S
C1383 H1370 0.929 . S
C1383 C1375 1.433 . S
C1383 N1385 1.384 . S
N1384 C1380 1.427 . S
N1384 C1381 1.384 . S
N1385 C1377 1.427 . S
N1385 C1383 1.384 . S
H1386 C1392 0.930 . S
H1387 C1396 0.930 . S
H1388 C1401 0.929 . S
H1389 C1399 0.929 . S
H1390 C1394 0.929 . S
H1391 C1400 0.929 . S
C1392 H1386 0.930 . S
C1392 C1393 1.367 . S
C1392 C1400 1.378 . S
C1393 C1392 1.367 . S
C1393 C1401 1.433 . S
C1394 H1390 0.929 . S
C1394 C1396 1.378 . S
C1394 C1398 1.350 . S
C1395 C1398 1.463 . S
C1395 C1400 1.350 . S
C1395 N1403 1.427 . S
C1396 H1387 0.930 . S
C1396 C1394 1.378 . S
C1396 C1397 1.367 . S
C1397 C1396 1.367 . S
C1397 C1399 1.433 . S
C1398 C1394 1.350 . S
C1398 C1395 1.463 . S
C1398 N1402 1.427 . S
C1399 H1389 0.929 . S
C1399 C1397 1.433 . S
C1399 N1402 1.384 . S
C1400 H1391 0.929 . S
C1400 C1392 1.378 . S
C1400 C1395 1.350 . S
C1401 H1388 0.929 . S
C1401 C1393 1.433 . S
C1401 N1403 1.384 . S
N1402 C1398 1.427 . S
N1402 C1399 1.384 . S
N1403 C1395 1.427 . S
N1403 C1401 1.384 . S
H1404 C1410 0.930 . S
H1405 C1414 0.930 . S
H1406 C1419 0.929 . S
H1407 C1417 0.929 . S
H1408 C1412 0.929 . S
H1409 C1418 0.929 . S
C1410 H1404 0.930 . S
C1410 C1411 1.367 . S
C1410 C1418 1.378 . S
C1411 C1410 1.367 . S
C1411 C1419 1.433 . S
C1412 H1408 0.929 . S
C1412 C1414 1.378 . S
C1412 C1416 1.350 . S
C1413 C1416 1.463 . S
C1413 C1418 1.350 . S
C1413 N1421 1.427 . S
C1414 H1405 0.930 . S
C1414 C1412 1.378 . S
C1414 C1415 1.367 . S
C1415 C1414 1.367 . S
C1415 C1417 1.433 . S
C1416 C1412 1.350 . S
C1416 C1413 1.463 . S
C1416 N1420 1.427 . S
C1417 H1407 0.929 . S
C1417 C1415 1.433 . S
C1417 N1420 1.384 . S
C1418 H1409 0.929 . S
C1418 C1410 1.378 . S
C1418 C1413 1.350 . S
C1419 H1406 0.929 . S
C1419 C1411 1.433 . S
C1419 N1421 1.384 . S
N1420 C1416 1.427 . S
N1420 C1417 1.384 . S
N1421 C1413 1.427 . S
N1421 C1419 1.384 . S
C619 C315 0.482 . S
C623 C9 0.456 . S
C637 C349 0.479 . S
C641 C43 0.506 . S
C655 C383 0.457 . S
C659 C77 0.480 . S
C673 C111 0.466 . S
C677 C417 0.465 . S
C691 C451 0.476 . S
C695 C145 0.458 . S
C709 C485 0.489 . S
C713 C179 0.455 . S
C727 C213 0.467 . S
C731 C519 0.465 . S
C745 C553 0.463 . S
C749 C247 0.504 . S
C763 C587 0.481 . S
C767 C281 0.456 . S
C781 C598 1.905 . S
C785 C20 1.901 . S
C799 C530 1.905 . S
C803 C54 1.901 . S
C817 C88 1.900 . S
C821 C564 1.904 . S
C835 C258 1.905 . S
C839 C122 1.903 . S
C853 C292 1.896 . S
C857 C156 1.899 . S
C871 C190 1.896 . S
C875 C224 1.900 . S
C889 C326 1.905 . S
C893 C462 1.903 . S
C907 C496 1.896 . S
C911 C360 1.899 . S
C925 C394 1.905 . S
C929 C428 1.903 . S
C943 C2 1.825 . S
C947 C138 1.826 . S
C961 C172 1.823 . S
C965 C36 1.823 . S
C979 C104 1.824 . S
C983 C70 1.824 . S
C997 C342 1.820 . S
C1001 C206 1.820 . S
C1015 C240 1.822 . S
C1019 C376 1.821 . S
C1033 C308 1.817 . S
C1037 C274 1.817 . S
C1051 C410 1.816 . S
C1055 C546 1.815 . S
C1069 C580 1.825 . S
C1073 C444 1.825 . S
C1087 C478 1.825 . S
C1091 C512 1.825 . S
C1105 C101 1.336 1_545 S
C1109 C5 1.330 . S
C1123 C33 1.327 1_655 S
C1127 C39 1.328 . S
C1141 C67 1.327 . S
C1145 C73 1.316 . S
C1159 C169 1.335 1_455 S
C1163 C107 1.331 . S
C1177 C141 1.330 . S
C1181 C203 1.331 . S
C1195 C135 1.335 1_565 S
C1199 C175 1.322 . S
C1213 C305 1.329 . S
C1217 C209 1.329 . S
C1231 C237 1.331 . S
C1235 C243 1.330 . S
C1249 C277 1.317 . S
C1253 C271 1.330 . S
C1267 C311 1.321 . S
C1271 C373 1.334 . S
C1285 C407 1.326 . S
C1289 C345 1.316 . S
C1303 C339 1.333 . S
C1307 C379 1.331 . S
C1321 C413 1.321 . S
C1325 C509 1.335 . S
C1339 C441 1.337 . S
C1343 C447 1.327 . S
C1357 C475 1.328 . S
C1361 C481 1.316 . S
C1375 C577 1.336 . S
C1379 C515 1.325 . S
C1393 C611 1.332 . S
C1397 C549 1.319 . S
C1411 C543 1.332 . S
C1415 C583 1.330 . S
