# Generated by pormake.
# Topology pcb, (4)-cn, num edge types: 1
# Building blocks:
#     Node 0, Type 0, BuildingBlock: TATPOV_clean_sbu_0, # of connection points: 4
#     Node 1, Type 0, BuildingBlock: TATPOV_clean_sbu_0, # of connection points: 4
#     Node 2, Type 0, BuildingBlock: TATPOV_clean_sbu_0, # of connection points: 4
#     Node 3, Type 0, BuildingBlock: TATPOV_clean_sbu_0, # of connection points: 4
#     Node 4, Type 0, BuildingBlock: TATPOV_clean_sbu_0, # of connection points: 4
#     Node 5, Type 0, BuildingBlock: TATPOV_clean_sbu_0, # of connection points: 4
#     Node 6, Type 0, BuildingBlock: TATPOV_clean_sbu_0, # of connection points: 4
#     Node 7, Type 0, BuildingBlock: TATPOV_clean_sbu_0, # of connection points: 4
#     Node 8, Type 0, BuildingBlock: TATPOV_clean_sbu_0, # of connection points: 4
#     Node 9, Type 0, BuildingBlock: TATPOV_clean_sbu_0, # of connection points: 4
#     Node 10, Type 0, BuildingBlock: TATPOV_clean_sbu_0, # of connection points: 4
#     Node 11, Type 0, BuildingBlock: TATPOV_clean_sbu_0, # of connection points: 4
#     Node 12, Type 0, BuildingBlock: TATPOV_clean_sbu_0, # of connection points: 4
#     Node 13, Type 0, BuildingBlock: TATPOV_clean_sbu_0, # of connection points: 4
#     Node 14, Type 0, BuildingBlock: TATPOV_clean_sbu_0, # of connection points: 4
#     Node 15, Type 0, BuildingBlock: TATPOV_clean_sbu_0, # of connection points: 4
#     Edge 16, Type (0, 0), BuildingBlock: ZUJKAS_clean_linker_0, # of connection points: 2
#     Edge 17, Type (0, 0), BuildingBlock: ZUJKAS_clean_linker_0, # of connection points: 2
#     Edge 18, Type (0, 0), BuildingBlock: ZUJKAS_clean_linker_0, # of connection points: 2
#     Edge 19, Type (0, 0), BuildingBlock: ZUJKAS_clean_linker_0, # of connection points: 2
#     Edge 20, Type (0, 0), BuildingBlock: ZUJKAS_clean_linker_0, # of connection points: 2
#     Edge 21, Type (0, 0), BuildingBlock: ZUJKAS_clean_linker_0, # of connection points: 2
#     Edge 22, Type (0, 0), BuildingBlock: ZUJKAS_clean_linker_0, # of connection points: 2
#     Edge 23, Type (0, 0), BuildingBlock: ZUJKAS_clean_linker_0, # of connection points: 2
#     Edge 24, Type (0, 0), BuildingBlock: ZUJKAS_clean_linker_0, # of connection points: 2
#     Edge 25, Type (0, 0), BuildingBlock: ZUJKAS_clean_linker_0, # of connection points: 2
#     Edge 26, Type (0, 0), BuildingBlock: ZUJKAS_clean_linker_0, # of connection points: 2
#     Edge 27, Type (0, 0), BuildingBlock: ZUJKAS_clean_linker_0, # of connection points: 2
#     Edge 28, Type (0, 0), BuildingBlock: ZUJKAS_clean_linker_0, # of connection points: 2
#     Edge 29, Type (0, 0), BuildingBlock: ZUJKAS_clean_linker_0, # of connection points: 2
#     Edge 30, Type (0, 0), BuildingBlock: ZUJKAS_clean_linker_0, # of connection points: 2
#     Edge 31, Type (0, 0), BuildingBlock: ZUJKAS_clean_linker_0, # of connection points: 2
#     Edge 32, Type (0, 0), BuildingBlock: ZUJKAS_clean_linker_0, # of connection points: 2
#     Edge 33, Type (0, 0), BuildingBlock: ZUJKAS_clean_linker_0, # of connection points: 2
#     Edge 34, Type (0, 0), BuildingBlock: ZUJKAS_clean_linker_0, # of connection points: 2
#     Edge 35, Type (0, 0), BuildingBlock: ZUJKAS_clean_linker_0, # of connection points: 2
#     Edge 36, Type (0, 0), BuildingBlock: ZUJKAS_clean_linker_0, # of connection points: 2
#     Edge 37, Type (0, 0), BuildingBlock: ZUJKAS_clean_linker_0, # of connection points: 2
#     Edge 38, Type (0, 0), BuildingBlock: ZUJKAS_clean_linker_0, # of connection points: 2
#     Edge 39, Type (0, 0), BuildingBlock: ZUJKAS_clean_linker_0, # of connection points: 2
#     Edge 40, Type (0, 0), BuildingBlock: ZUJKAS_clean_linker_0, # of connection points: 2
#     Edge 41, Type (0, 0), BuildingBlock: ZUJKAS_clean_linker_0, # of connection points: 2
#     Edge 42, Type (0, 0), BuildingBlock: ZUJKAS_clean_linker_0, # of connection points: 2
#     Edge 43, Type (0, 0), BuildingBlock: ZUJKAS_clean_linker_0, # of connection points: 2
#     Edge 44, Type (0, 0), BuildingBlock: ZUJKAS_clean_linker_0, # of connection points: 2
#     Edge 45, Type (0, 0), BuildingBlock: ZUJKAS_clean_linker_0, # of connection points: 2
#     Edge 46, Type (0, 0), BuildingBlock: ZUJKAS_clean_linker_0, # of connection points: 2
#     Edge 47, Type (0, 0), BuildingBlock: ZUJKAS_clean_linker_0, # of connection points: 2
# Relax obj value: 0.184
# Max RMSD: 0.077
# Mean RMSD: 0.077
data_MOF--net-pcb--node1-TATPOV_clean_sbu_0--edge1-ZUJKAS_clean_linker_0
_symmetry_space_group_name_H-M    P1
_symmetry_Int_Tables_number       1
_symmetry_cell_setting            triclinic
loop_
_symmetry_equiv_pos_as_xyz
'x, y, z'
_cell_length_a     60.768689
_cell_length_b     59.664271
_cell_length_c     59.657104
_cell_angle_alpha  90.128564
_cell_angle_beta   90.01886
_cell_angle_gamma 90.034994
loop_
_atom_site_label
_atom_site_type_symbol
_atom_site_fract_x
_atom_site_fract_y
_atom_site_fract_z
_atom_type_partial_charge
Zn0 Zn 0.14274 0.11567 0.10946 0.0
Zn1 Zn 0.16198 0.13488 0.14403 0.0
O2 O 0.12976 0.14493 0.1484 0.0
O3 O 0.11416 0.13022 0.11849 0.0
O4 O 0.17822 0.15003 0.16921 0.0
O5 O 0.15098 0.08532 0.12069 0.0
O6 O 0.16723 0.10093 0.14979 0.0
C7 C 0.11278 0.14187 0.13621 0.0
C8 C 0.17611 0.14521 0.09521 0.0
O9 O 0.17737 0.1489 0.11623 0.0
O10 O 0.16261 0.13088 0.08775 0.0
C11 C 0.17817 0.17132 0.16986 0.0
O12 O 0.16683 0.18237 0.15472 0.0
C13 C 0.16177 0.08346 0.13873 0.0
Zn14 Zn 0.86371 0.10909 0.10991 0.0
Zn15 Zn 0.84328 0.1424 0.13006 0.0
O16 O 0.87551 0.14809 0.13961 0.0
O17 O 0.89218 0.11941 0.12378 0.0
O18 O 0.82609 0.16668 0.14543 0.0
O19 O 0.85409 0.12014 0.07987 0.0
O20 O 0.83708 0.14825 0.09637 0.0
C21 C 0.89298 0.13688 0.13585 0.0
C22 C 0.83157 0.09301 0.14017 0.0
O23 O 0.82923 0.1139 0.144 0.0
O24 O 0.8453 0.08642 0.12565 0.0
C25 C 0.82943 0.17115 0.16598 0.0
O26 O 0.84496 0.16034 0.17682 0.0
C27 C 0.84249 0.1377 0.07859 0.0
Zn28 Zn 0.87964 0.8651 0.1716 0.0
Zn29 Zn 0.84928 0.84146 0.19251 0.0
O30 O 0.87828 0.82891 0.20587 0.0
O31 O 0.90321 0.85003 0.1895 0.0
O32 O 0.82572 0.82415 0.20827 0.0
O33 O 0.86645 0.8937 0.1829 0.0
O34 O 0.8412 0.8742 0.20064 0.0
C35 C 0.89833 0.83451 0.20304 0.0
C36 C 0.85368 0.8385 0.14137 0.0
O37 O 0.84393 0.83298 0.15945 0.0
O38 O 0.86978 0.85198 0.14203 0.0
C39 C 0.82725 0.80319 0.21151 0.0
O40 O 0.84492 0.79251 0.20465 0.0
C41 C 0.84965 0.89304 0.1954 0.0
Zn42 Zn 0.10327 0.82669 0.12073 0.0
Zn43 Zn 0.13495 0.80749 0.14466 0.0
O44 O 0.10659 0.79329 0.15765 0.0
O45 O 0.08061 0.80849 0.137 0.0
O46 O 0.15896 0.79327 0.16267 0.0
O47 O 0.11674 0.81448 0.09247 0.0
O48 O 0.14321 0.79887 0.11218 0.0
C49 C 0.08632 0.79536 0.15258 0.0
C50 C 0.12871 0.8585 0.14614 0.0
O51 O 0.13901 0.84089 0.15205 0.0
O52 O 0.11252 0.85701 0.13284 0.0
C53 C 0.15719 0.79174 0.18383 0.0
O54 O 0.13934 0.79932 0.19367 0.0
C55 C 0.13419 0.80293 0.09333 0.0
Zn56 Zn 0.13006 0.89363 0.87148 0.0
Zn57 Zn 0.1524 0.87133 0.84086 0.0
O58 O 0.1204 0.86247 0.83321 0.0
O59 O 0.1018 0.88264 0.85763 0.0
O60 O 0.17031 0.85422 0.81834 0.0
O61 O 0.14357 0.92247 0.86181 0.0
O62 O 0.16073 0.90461 0.8346 0.0
C63 C 0.1021 0.86885 0.84146 0.0
C64 C 0.15886 0.86183 0.89123 0.0
O65 O 0.16366 0.85801 0.87078 0.0
O66 O 0.14455 0.87643 0.89613 0.0
C67 C 0.16961 0.83294 0.81851 0.0
O68 O 0.15665 0.82283 0.83295 0.0
C69 C 0.1562 0.92277 0.84497 0.0
Zn70 Zn 0.11699 0.17835 0.87359 0.0
Zn71 Zn 0.14725 0.19802 0.84842 0.0
O72 O 0.11807 0.21118 0.83628 0.0
O73 O 0.09325 0.19595 0.85834 0.0
O74 O 0.17024 0.21326 0.82986 0.0
O75 O 0.13118 0.19056 0.90145 0.0
O76 O 0.15639 0.20686 0.88066 0.0
C77 C 0.09805 0.20881 0.84221 0.0
C78 C 0.14189 0.14702 0.84689 0.0
O79 O 0.15185 0.16474 0.84065 0.0
O80 O 0.12623 0.14833 0.86085 0.0
C81 C 0.16782 0.21578 0.80887 0.0
O82 O 0.14987 0.20824 0.79916 0.0
C83 C 0.14829 0.20256 0.89988 0.0
Zn84 Zn 0.89597 0.12204 0.8236 0.0
Zn85 Zn 0.86425 0.14521 0.80389 0.0
O86 O 0.89257 0.1586 0.78996 0.0
O87 O 0.9186 0.13799 0.80512 0.0
O88 O 0.84008 0.16264 0.78927 0.0
O89 O 0.88266 0.09334 0.81236 0.0
O90 O 0.85639 0.11245 0.79575 0.0
C91 C 0.91286 0.15362 0.79206 0.0
C92 C 0.87028 0.14777 0.85484 0.0
O93 O 0.85979 0.15302 0.83713 0.0
O94 O 0.88676 0.13484 0.85361 0.0
C95 C 0.84119 0.18386 0.78799 0.0
O96 O 0.8586 0.19423 0.79597 0.0
C97 C 0.86535 0.09376 0.80055 0.0
Zn98 Zn 0.86119 0.86653 0.89024 0.0
Zn99 Zn 0.83847 0.83753 0.86699 0.0
O100 O 0.87049 0.82887 0.85873 0.0
O101 O 0.88927 0.85183 0.88042 0.0
O102 O 0.81978 0.81573 0.84962 0.0
O103 O 0.84688 0.85763 0.91875 0.0
O104 O 0.82942 0.83114 0.90017 0.0
C105 C 0.88886 0.83613 0.86612 0.0
C106 C 0.83455 0.8882 0.85783 0.0
O107 O 0.82873 0.86809 0.85361 0.0
O108 O 0.84868 0.89207 0.87292 0.0
C109 C 0.82442 0.81008 0.82962 0.0
O110 O 0.84218 0.8183 0.82014 0.0
C111 C 0.83384 0.84112 0.91858 0.0
Zn112 Zn 0.60361 0.63221 0.66545 0.0
Zn113 Zn 0.6365 0.65185 0.68644 0.0
O114 O 0.60858 0.66539 0.70165 0.0
O115 O 0.58159 0.64711 0.68517 0.0
O116 O 0.66137 0.66696 0.70282 0.0
O117 O 0.61503 0.60196 0.67384 0.0
O118 O 0.64267 0.618 0.69153 0.0
C119 C 0.58808 0.66135 0.69944 0.0
C120 C 0.6304 0.65847 0.6359 0.0
O121 O 0.64151 0.66173 0.65374 0.0
O122 O 0.61304 0.64673 0.63653 0.0
C123 C 0.66084 0.688 0.7061 0.0
O124 O 0.6439 0.69952 0.69874 0.0
C125 C 0.63247 0.60035 0.6853 0.0
Zn126 Zn 0.38425 0.6733 0.63005 0.0
Zn127 Zn 0.35268 0.69239 0.65357 0.0
O128 O 0.38123 0.70709 0.66607 0.0
O129 O 0.40697 0.69275 0.64447 0.0
O130 O 0.32893 0.70811 0.67082 0.0
O131 O 0.37029 0.68295 0.60121 0.0
O132 O 0.34396 0.69909 0.62069 0.0
C133 C 0.4014 0.70571 0.66028 0.0
C134 C 0.35994 0.6419 0.65713 0.0
O135 O 0.34872 0.65922 0.66221 0.0
O136 O 0.37627 0.64358 0.64404 0.0
C137 C 0.32767 0.70642 0.692 0.0
O138 O 0.3421 0.69398 0.70266 0.0
C139 C 0.35259 0.69409 0.60186 0.0
Zn140 Zn 0.38614 0.38433 0.63363 0.0
Zn141 Zn 0.35691 0.36423 0.6592 0.0
O142 O 0.38631 0.35419 0.67339 0.0
O143 O 0.4103 0.37406 0.65425 0.0
O144 O 0.33416 0.34888 0.67802 0.0
O145 O 0.37134 0.41397 0.63881 0.0
O146 O 0.34927 0.39781 0.66315 0.0
C147 C 0.40609 0.36031 0.6698 0.0
C148 C 0.36071 0.3524 0.60917 0.0
O149 O 0.35068 0.3509 0.62786 0.0
O150 O 0.37727 0.36515 0.60736 0.0
C151 C 0.33631 0.32834 0.68313 0.0
O152 O 0.35383 0.31739 0.67631 0.0
C153 C 0.35608 0.41537 0.65318 0.0
Zn154 Zn 0.62502 0.34962 0.60948 0.0
Zn155 Zn 0.65331 0.32841 0.63581 0.0
O156 O 0.62328 0.31725 0.64771 0.0
O157 O 0.59999 0.33447 0.62536 0.0
O158 O 0.67529 0.31215 0.65477 0.0
O159 O 0.6378 0.33497 0.58227 0.0
O160 O 0.66187 0.31788 0.60383 0.0
C161 C 0.60361 0.32125 0.64151 0.0
C162 C 0.6517 0.37976 0.63559 0.0
O163 O 0.65965 0.36152 0.64314 0.0
O164 O 0.63681 0.37924 0.62074 0.0
C165 C 0.67221 0.30816 0.67544 0.0
O166 O 0.65395 0.31494 0.68508 0.0
C167 C 0.65395 0.32178 0.58444 0.0
Zn168 Zn 0.63666 0.35941 0.35103 0.0
Zn169 Zn 0.66139 0.33813 0.32262 0.0
O170 O 0.62974 0.33063 0.31166 0.0
O171 O 0.60973 0.35292 0.33281 0.0
O172 O 0.68098 0.32183 0.30095 0.0
O173 O 0.65364 0.3878 0.34632 0.0
O174 O 0.67116 0.37118 0.31866 0.0
C175 C 0.61106 0.33874 0.31707 0.0
C176 C 0.66098 0.32484 0.37219 0.0
O177 O 0.66997 0.32365 0.35293 0.0
O178 O 0.64518 0.33823 0.37553 0.0
C179 C 0.67625 0.30229 0.29393 0.0
O180 O 0.65794 0.29273 0.30068 0.0
C181 C 0.66719 0.38868 0.33025 0.0
Zn182 Zn 0.61766 0.62278 0.3825 0.0
Zn183 Zn 0.64264 0.65201 0.36158 0.0
O184 O 0.6114 0.66299 0.3534 0.0
O185 O 0.59093 0.64064 0.37401 0.0
O186 O 0.66256 0.67355 0.3458 0.0
O187 O 0.63313 0.62919 0.41157 0.0
O188 O 0.65124 0.65637 0.39486 0.0
C189 C 0.59256 0.65693 0.36055 0.0
C190 C 0.64385 0.60209 0.34877 0.0
O191 O 0.65168 0.62184 0.34724 0.0
O192 O 0.62829 0.5981 0.36229 0.0
C193 C 0.65909 0.67908 0.32556 0.0
O194 O 0.64183 0.67094 0.31506 0.0
C195 C 0.64652 0.64543 0.41255 0.0
Zn196 Zn 0.35462 0.61419 0.37137 0.0
Zn197 Zn 0.33114 0.63828 0.3434 0.0
O198 O 0.36253 0.65024 0.3376 0.0
O199 O 0.3812 0.63288 0.36397 0.0
O200 O 0.3123 0.65631 0.32258 0.0
O201 O 0.34796 0.58628 0.35381 0.0
O202 O 0.32545 0.6058 0.33259 0.0
C203 C 0.38047 0.64695 0.34813 0.0
C204 C 0.32158 0.63899 0.39409 0.0
O205 O 0.31867 0.64692 0.37449 0.0
O206 O 0.3354 0.62343 0.39714 0.0
C207 C 0.31609 0.67688 0.31867 0.0
O208 O 0.33294 0.68672 0.32837 0.0
C209 C 0.33407 0.58712 0.33802 0.0
Zn210 Zn 0.37395 0.3521 0.35933 0.0
Zn211 Zn 0.34857 0.32372 0.33937 0.0
O212 O 0.37991 0.31283 0.33048 0.0
O213 O 0.40063 0.33388 0.35222 0.0
O214 O 0.3286 0.30189 0.3237 0.0
O215 O 0.35808 0.34787 0.38839 0.0
O216 O 0.34005 0.31989 0.37287 0.0
C217 C 0.39884 0.3182 0.33804 0.0
C218 C 0.34839 0.37333 0.32594 0.0
O219 O 0.33929 0.35408 0.32531 0.0
O220 O 0.36487 0.37664 0.33848 0.0
C221 C 0.32857 0.30116 0.30241 0.0
O222 O 0.34195 0.31439 0.29129 0.0
C223 C 0.34463 0.33178 0.39004 0.0
H224 H 0.32337 0.29688 0.25713 0.0
H225 H 0.29697 0.27326 0.23713 0.0
H226 H 0.27269 0.24783 0.30006 0.0
H227 H 0.29885 0.27164 0.32027 0.0
H228 H 0.29198 0.22675 0.23776 0.0
H229 H 0.21676 0.26996 0.26847 0.0
H230 H 0.24391 0.28192 0.27132 0.0
H231 H 0.23503 0.26015 0.29001 0.0
C232 C 0.31243 0.28628 0.26675 0.0
C233 C 0.31312 0.28625 0.29031 0.0
C234 C 0.29737 0.27277 0.25529 0.0
C235 C 0.28268 0.25906 0.26713 0.0
C236 C 0.2836 0.25863 0.29062 0.0
H237 H 0.20457 0.15373 0.20264 0.0
H238 H 0.22937 0.1741 0.22782 0.0
C239 C 0.29865 0.27216 0.30213 0.0
C240 C 0.26651 0.24518 0.25476 0.0
H241 H 0.21146 0.23775 0.24596 0.0
C242 C 0.27437 0.22906 0.2396 0.0
C243 C 0.24356 0.24845 0.25708 0.0
C244 C 0.23423 0.26617 0.27244 0.0
C245 C 0.25989 0.21616 0.22655 0.0
C246 C 0.23694 0.21925 0.22903 0.0
C247 C 0.22907 0.2353 0.24428 0.0
C248 C 0.22089 0.20688 0.21501 0.0
C249 C 0.26929 0.19986 0.20972 0.0
C250 C 0.20735 0.21863 0.20006 0.0
C251 C 0.19307 0.20709 0.18577 0.0
C252 C 0.19203 0.18355 0.18622 0.0
C253 C 0.20509 0.17185 0.20177 0.0
C254 C 0.21935 0.18344 0.21608 0.0
H255 H 0.287 0.2031 0.20639 0.0
H256 H 0.26771 0.18256 0.21633 0.0
H257 H 0.26017 0.20072 0.19361 0.0
H258 H 0.20823 0.23674 0.19906 0.0
H259 H 0.18319 0.21662 0.17407 0.0
H260 H 0.71781 0.31479 0.28164 0.0
H261 H 0.74379 0.29384 0.25846 0.0
H262 H 0.69551 0.24162 0.2491 0.0
H263 H 0.66957 0.26221 0.27273 0.0
H264 H 0.73517 0.22498 0.26074 0.0
H265 H 0.74523 0.28554 0.19117 0.0
H266 H 0.7508 0.29754 0.2182 0.0
H267 H 0.72348 0.28789 0.21164 0.0
C268 C 0.71263 0.29894 0.2745 0.0
C269 C 0.69161 0.29016 0.27901 0.0
C270 C 0.72747 0.28705 0.26113 0.0
C271 C 0.72146 0.26635 0.25175 0.0
C272 C 0.70044 0.25763 0.25609 0.0
H273 H 0.79219 0.19138 0.15016 0.0
H274 H 0.76638 0.21485 0.17106 0.0
C275 C 0.68563 0.26942 0.26959 0.0
C276 C 0.73748 0.2532 0.23842 0.0
H277 H 0.77082 0.25527 0.19241 0.0
C278 C 0.74289 0.23156 0.24574 0.0
C279 C 0.74735 0.26173 0.21873 0.0
C280 C 0.74128 0.28436 0.20932 0.0
C281 C 0.7581 0.21829 0.23406 0.0
C282 C 0.76859 0.22714 0.21485 0.0
C283 C 0.76296 0.24866 0.20733 0.0
C284 C 0.78498 0.21402 0.20198 0.0
C285 C 0.76242 0.19474 0.24217 0.0
C286 C 0.80428 0.20626 0.21229 0.0
C287 C 0.819 0.1927 0.20045 0.0
C288 C 0.81479 0.18689 0.178 0.0
C289 C 0.79589 0.19548 0.16746 0.0
C290 C 0.78112 0.20891 0.17936 0.0
H291 H 0.74892 0.18855 0.25309 0.0
H292 H 0.76436 0.18296 0.22787 0.0
H293 H 0.77785 0.19456 0.25212 0.0
H294 H 0.80784 0.21048 0.22958 0.0
H295 H 0.83352 0.18655 0.20898 0.0
H296 H 0.827 0.75968 0.22584 0.0
H297 H 0.79694 0.73976 0.2444 0.0
H298 H 0.75644 0.79898 0.24043 0.0
H299 H 0.78655 0.81919 0.2224 0.0
H300 H 0.75469 0.78014 0.2814 0.0
H301 H 0.74131 0.71525 0.2162 0.0
H302 H 0.76919 0.71613 0.22608 0.0
H303 H 0.75795 0.73983 0.2114 0.0
C304 C 0.81166 0.76844 0.22884 0.0
C305 C 0.80912 0.79098 0.22259 0.0
C306 C 0.79446 0.75698 0.23931 0.0
C307 C 0.77433 0.76777 0.2434 0.0
C308 C 0.77181 0.79031 0.23731 0.0
H309 H 0.65523 0.69688 0.28352 0.0
H310 H 0.68212 0.71999 0.2636 0.0
C311 C 0.78904 0.80183 0.22701 0.0
C312 C 0.75611 0.75581 0.2547 0.0
H313 H 0.72372 0.70919 0.25144 0.0
C314 C 0.7478 0.76471 0.27478 0.0
C315 C 0.7469 0.73591 0.24582 0.0
C316 C 0.75413 0.72633 0.22357 0.0
C317 C 0.73089 0.75391 0.28655 0.0
C318 C 0.72247 0.73339 0.27827 0.0
C319 C 0.73037 0.72481 0.25788 0.0
C320 C 0.70581 0.72028 0.29071 0.0
C321 C 0.72208 0.76472 0.30761 0.0
C322 C 0.71027 0.71273 0.31248 0.0
C323 C 0.69491 0.69969 0.32395 0.0
C324 C 0.6749 0.69368 0.31371 0.0
C325 C 0.67048 0.70123 0.29187 0.0
C326 C 0.68582 0.71442 0.28046 0.0
H327 H 0.72519 0.78307 0.30777 0.0
H328 H 0.70411 0.76181 0.3094 0.0
H329 H 0.7305 0.75739 0.32238 0.0
H330 H 0.72582 0.71658 0.32049 0.0
H331 H 0.69891 0.69398 0.34069 0.0
H332 H 0.2768 0.66334 0.3011 0.0
H333 H 0.25219 0.68457 0.27682 0.0
H334 H 0.29756 0.74021 0.2775 0.0
H335 H 0.32209 0.71926 0.30236 0.0
H336 H 0.2558 0.75375 0.28428 0.0
H337 H 0.25871 0.69712 0.21078 0.0
H338 H 0.2508 0.68262 0.23581 0.0
H339 H 0.27783 0.69486 0.23382 0.0
C340 C 0.28164 0.68004 0.29599 0.0
C341 C 0.30144 0.6896 0.30358 0.0
C342 C 0.26761 0.6921 0.28198 0.0
C343 C 0.27326 0.71378 0.27498 0.0
C344 C 0.29297 0.72342 0.2826 0.0
H345 H 0.19862 0.78084 0.16984 0.0
H346 H 0.22807 0.76379 0.19189 0.0
C347 C 0.30696 0.71144 0.29678 0.0
C348 C 0.25812 0.72666 0.26046 0.0
H349 H 0.22921 0.72375 0.21153 0.0
C350 C 0.25015 0.74733 0.26825 0.0
C351 C 0.25108 0.71844 0.23939 0.0
C352 C 0.26024 0.69716 0.22934 0.0
C353 C 0.2347 0.75963 0.25589 0.0
C354 C 0.22662 0.7507 0.23549 0.0
C355 C 0.23519 0.73043 0.22733 0.0
C356 C 0.20903 0.76188 0.22248 0.0
C357 C 0.22735 0.78213 0.26474 0.0
C358 C 0.18851 0.7663 0.23233 0.0
C359 C 0.17171 0.77623 0.21983 0.0
C360 C 0.17504 0.78155 0.19715 0.0
C361 C 0.19554 0.77691 0.18727 0.0
C362 C 0.21239 0.76719 0.19984 0.0
H363 H 0.23985 0.78957 0.27614 0.0
H364 H 0.22413 0.79408 0.25088 0.0
H365 H 0.21193 0.77996 0.27446 0.0
H366 H 0.18535 0.76177 0.2496 0.0
H367 H 0.15604 0.77941 0.22786 0.0
H368 H 0.29591 0.73396 0.67493 0.0
H369 H 0.26824 0.7553 0.69566 0.0
H370 H 0.29251 0.72802 0.75781 0.0
H371 H 0.32045 0.70679 0.73726 0.0
H372 H 0.23491 0.74025 0.72455 0.0
H373 H 0.29421 0.79614 0.76825 0.0
H374 H 0.30185 0.77911 0.74445 0.0
H375 H 0.2995 0.76675 0.77179 0.0
C376 C 0.29539 0.73248 0.69301 0.0
C377 C 0.31049 0.71879 0.70447 0.0
C378 C 0.27955 0.74467 0.70481 0.0
C379 C 0.27856 0.74347 0.72826 0.0
C380 C 0.29329 0.72948 0.73973 0.0
H381 H 0.17357 0.78735 0.81624 0.0
H382 H 0.19922 0.76567 0.79329 0.0
C383 C 0.30917 0.71729 0.72795 0.0
C384 C 0.26211 0.7569 0.74068 0.0
H385 H 0.25693 0.79837 0.77979 0.0
C386 C 0.23968 0.753 0.7366 0.0
C387 C 0.26845 0.77372 0.75612 0.0
C388 C 0.2923 0.77939 0.76032 0.0
C389 C 0.22336 0.76525 0.74789 0.0
C390 C 0.22971 0.78158 0.76385 0.0
C391 C 0.25214 0.78572 0.76764 0.0
C392 C 0.21339 0.79459 0.77689 0.0
C393 C 0.19951 0.76085 0.7424 0.0
C394 C 0.21305 0.81806 0.77547 0.0
C395 C 0.19851 0.83052 0.78866 0.0
C396 C 0.18413 0.81972 0.80362 0.0
C397 C 0.18435 0.79618 0.80482 0.0
C398 C 0.19892 0.78374 0.79162 0.0
H399 H 0.19761 0.75233 0.72592 0.0
H400 H 0.19234 0.7498 0.75543 0.0
H401 H 0.18994 0.7767 0.74214 0.0
H402 H 0.22416 0.82674 0.76425 0.0
H403 H 0.19877 0.84862 0.78734 0.0
H404 H 0.20882 0.22842 0.82275 0.0
H405 H 0.23713 0.24757 0.80096 0.0
H406 H 0.19403 0.24858 0.74351 0.0
H407 H 0.16574 0.2289 0.76504 0.0
H408 H 0.23569 0.2359 0.73257 0.0
H409 H 0.23772 0.31329 0.78412 0.0
H410 H 0.24241 0.28834 0.80016 0.0
H411 H 0.21622 0.29258 0.78673 0.0
C412 C 0.20532 0.23276 0.80549 0.0
C413 C 0.18499 0.22726 0.79564 0.0
C414 C 0.22148 0.24382 0.79311 0.0
C415 C 0.2175 0.24989 0.77078 0.0
C416 C 0.19735 0.24416 0.76079 0.0
H417 H 0.29573 0.34436 0.69454 0.0
H418 H 0.26672 0.32489 0.71511 0.0
C419 C 0.18122 0.23293 0.77311 0.0
C420 C 0.23453 0.26183 0.7577 0.0
H421 H 0.2665 0.30886 0.7574 0.0
C422 C 0.24237 0.25191 0.73791 0.0
C423 C 0.24297 0.28286 0.76458 0.0
C424 C 0.23425 0.29502 0.78493 0.0
C425 C 0.25872 0.26227 0.72497 0.0
C426 C 0.2678 0.28285 0.73235 0.0
C427 C 0.25969 0.29295 0.75194 0.0
C428 C 0.28546 0.29443 0.7198 0.0
C429 C 0.2658 0.25128 0.70334 0.0
C430 C 0.30572 0.28385 0.71588 0.0
C431 C 0.32229 0.29486 0.70397 0.0
C432 C 0.31897 0.31678 0.69606 0.0
C433 C 0.2988 0.32748 0.7004 0.0
C434 C 0.28221 0.31639 0.71215 0.0
H435 H 0.25315 0.23938 0.69702 0.0
H436 H 0.26907 0.26396 0.69016 0.0
H437 H 0.28116 0.24168 0.70627 0.0
H438 H 0.30878 0.26711 0.72214 0.0
H439 H 0.33771 0.28624 0.70107 0.0
H440 H 0.8407 0.22822 0.77669 0.0
H441 H 0.81064 0.24913 0.75931 0.0
H442 H 0.77033 0.18958 0.75946 0.0
H443 H 0.80049 0.1684 0.77624 0.0
H444 H 0.76895 0.21021 0.71981 0.0
H445 H 0.75468 0.27238 0.78733 0.0
H446 H 0.78268 0.27214 0.77782 0.0
H447 H 0.77142 0.24774 0.79133 0.0
C448 C 0.8254 0.21961 0.77313 0.0
C449 C 0.82296 0.19668 0.77785 0.0
C450 C 0.80817 0.23162 0.76336 0.0
C451 C 0.78811 0.22101 0.75849 0.0
C452 C 0.78564 0.19812 0.7632 0.0
H453 H 0.66867 0.29129 0.71792 0.0
H454 H 0.69613 0.26939 0.73844 0.0
C455 C 0.80291 0.18605 0.77277 0.0
C456 C 0.77004 0.23346 0.74748 0.0
H457 H 0.73777 0.28006 0.75197 0.0
C458 C 0.76202 0.22539 0.72693 0.0
C459 C 0.76077 0.25305 0.75697 0.0
C460 C 0.76766 0.26172 0.77969 0.0
C461 C 0.74535 0.23669 0.71531 0.0
C462 C 0.73691 0.25693 0.72421 0.0
C463 C 0.74449 0.26468 0.74505 0.0
C464 C 0.72044 0.27043 0.71196 0.0
C465 C 0.7368 0.22668 0.69373 0.0
C466 C 0.7252 0.2786 0.69048 0.0
C467 C 0.70954 0.29093 0.67867 0.0
C468 C 0.68892 0.2956 0.68827 0.0
C469 C 0.68439 0.28792 0.71005 0.0
C470 C 0.70004 0.27542 0.7218 0.0
H471 H 0.73995 0.20836 0.69287 0.0
H472 H 0.71885 0.22959 0.69184 0.0
H473 H 0.74536 0.23462 0.67936 0.0
H474 H 0.74106 0.27545 0.68282 0.0
H475 H 0.71364 0.29682 0.66202 0.0
H476 H 0.78378 0.79502 0.84217 0.0
H477 H 0.75831 0.77207 0.82034 0.0
H478 H 0.80557 0.76832 0.76654 0.0
H479 H 0.831 0.79179 0.78806 0.0
H480 H 0.76528 0.77872 0.75129 0.0
H481 H 0.75906 0.70564 0.80788 0.0
H482 H 0.75279 0.73144 0.82197 0.0
H483 H 0.78005 0.72682 0.81108 0.0
C484 C 0.78887 0.78915 0.82578 0.0
C485 C 0.80945 0.79521 0.81687 0.0
C486 C 0.77433 0.77589 0.81338 0.0
C487 C 0.78018 0.76813 0.79197 0.0
C488 C 0.80077 0.77402 0.78308 0.0
H489 H 0.70028 0.67018 0.71924 0.0
H490 H 0.73036 0.68927 0.73877 0.0
C491 C 0.81528 0.78743 0.79541 0.0
C492 C 0.76432 0.75495 0.77841 0.0
H493 H 0.73114 0.70878 0.77966 0.0
C494 C 0.75798 0.7633 0.7574 0.0
C495 C 0.75505 0.73465 0.78621 0.0
C496 C 0.76226 0.72398 0.80791 0.0
C497 C 0.7421 0.75231 0.7443 0.0
C498 C 0.73188 0.73274 0.75271 0.0
C499 C 0.73876 0.72396 0.77337 0.0
C500 C 0.71379 0.72132 0.74053 0.0
C501 C 0.73655 0.76171 0.72152 0.0
C502 C 0.69438 0.73293 0.73528 0.0
C503 C 0.67724 0.72213 0.72399 0.0
C504 C 0.67905 0.69941 0.71801 0.0
C505 C 0.69838 0.68771 0.72358 0.0
C506 C 0.71558 0.69858 0.73474 0.0
H507 H 0.75023 0.77208 0.71481 0.0
H508 H 0.73288 0.74813 0.70932 0.0
H509 H 0.72182 0.77259 0.72297 0.0
H510 H 0.6924 0.75032 0.74011 0.0
H511 H 0.6625 0.73156 0.72014 0.0
H512 H 0.13176 0.20145 0.94209 0.0
H513 H 0.15105 0.20822 0.9769 0.0
H514 H 0.20913 0.22802 0.9403 0.0
H515 H 0.18978 0.22062 0.90486 0.0
H516 H 0.21968 0.19798 0.96982 0.0
H517 H 0.16983 0.25876 0.01547 0.0
H518 H 0.15082 0.23878 0.00427 0.0
H519 H 0.16736 0.25549 0.98544 0.0
C520 C 0.14849 0.20769 0.94131 0.0
C521 C 0.15929 0.21028 0.92067 0.0
C522 C 0.15946 0.21192 0.96134 0.0
C523 C 0.18146 0.21915 0.96135 0.0
C524 C 0.19207 0.22275 0.94073 0.0
H525 H 0.19339 0.18755 0.10048 0.0
H526 H 0.20661 0.21209 0.07029 0.0
C527 C 0.18101 0.21849 0.92051 0.0
C528 C 0.19375 0.21901 0.98288 0.0
H529 H 0.18162 0.22493 0.03822 0.0
C530 C 0.21194 0.20463 0.9848 0.0
C531 C 0.18466 0.22849 0.00256 0.0
C532 C 0.16726 0.24647 0.0017 0.0
C533 C 0.21852 0.19646 0.00579 0.0
C534 C 0.20607 0.20221 0.02501 0.0
C535 C 0.19068 0.21969 0.02346 0.0
C536 C 0.20426 0.1867 0.04439 0.0
C537 C 0.23752 0.18028 0.00689 0.0
C538 C 0.19919 0.16413 0.04008 0.0
C539 C 0.19169 0.15025 0.05714 0.0
C540 C 0.18883 0.15861 0.07894 0.0
C541 C 0.19548 0.18067 0.0838 0.0
C542 C 0.20302 0.1947 0.06656 0.0
H543 H 0.25107 0.18602 0.99579 0.0
H544 H 0.24396 0.17848 0.02421 0.0
H545 H 0.23213 0.16362 0.00064 0.0
H546 H 0.19927 0.15757 0.02314 0.0
H547 H 0.18682 0.13328 0.0529 0.0
H548 H 0.83244 0.17081 0.8652 0.0
H549 H 0.81956 0.18188 0.90262 0.0
H550 H 0.87853 0.15423 0.93176 0.0
H551 H 0.89153 0.14336 0.89477 0.0
H552 H 0.81086 0.15311 0.93707 0.0
H553 H 0.87383 0.21357 0.96458 0.0
H554 H 0.86993 0.20626 0.93542 0.0
H555 H 0.88681 0.18905 0.95332 0.0
C556 C 0.84281 0.16744 0.87957 0.0
C557 C 0.86299 0.15614 0.87701 0.0
C558 C 0.83544 0.17381 0.90091 0.0
C559 C 0.84828 0.16929 0.91993 0.0
C560 C 0.86861 0.15847 0.91729 0.0
H561 H 0.83932 0.11316 0.04054 0.0
H562 H 0.83379 0.12659 0.00257 0.0
C563 C 0.87592 0.15203 0.8961 0.0
C564 C 0.83975 0.1733 0.94285 0.0
H565 H 0.85754 0.19037 0.99432 0.0
C566 C 0.82066 0.16188 0.94951 0.0
C567 C 0.85214 0.18523 0.95903 0.0
C568 C 0.87167 0.19943 0.95263 0.0
C569 C 0.81517 0.15986 0.97225 0.0
C570 C 0.82934 0.16917 0.98862 0.0
C571 C 0.84687 0.18287 0.9818 0.0
C572 C 0.82905 0.16128 0.01213 0.0
C573 C 0.79501 0.14657 0.97861 0.0
C574 C 0.8283 0.17634 0.03026 0.0
C575 C 0.83151 0.16863 0.05222 0.0
C576 C 0.836 0.14586 0.05618 0.0
C577 C 0.836 0.13082 0.03803 0.0
C578 C 0.83257 0.13844 0.01629 0.0
H579 H 0.78195 0.1483 0.96568 0.0
H580 H 0.79939 0.12854 0.97965 0.0
H581 H 0.78833 0.15201 0.99507 0.0
H582 H 0.82589 0.19409 0.02735 0.0
H583 H 0.83152 0.18059 0.0659 0.0
H584 H 0.82822 0.86597 0.956 0.0
H585 H 0.82054 0.85279 0.99363 0.0
H586 H 0.81147 0.78556 0.96846 0.0
H587 H 0.81959 0.79879 0.93024 0.0
H588 H 0.78653 0.82975 0.01524 0.0
H589 H 0.86406 0.77978 0.01137 0.0
H590 H 0.85739 0.79986 0.98988 0.0
H591 H 0.84249 0.77393 0.99154 0.0
C592 C 0.82426 0.84842 0.95832 0.0
C593 C 0.8249 0.83333 0.94024 0.0
C594 C 0.81971 0.84092 0.97987 0.0
C595 C 0.81576 0.81814 0.98393 0.0
C596 C 0.81478 0.80318 0.96571 0.0
H597 H 0.81804 0.81132 0.13238 0.0
H598 H 0.80498 0.79887 0.09538 0.0
C599 C 0.81928 0.81076 0.94391 0.0
C600 C 0.8155 0.81052 0.00756 0.0
H601 H 0.85113 0.79005 0.04669 0.0
C602 C 0.8002 0.82038 0.02221 0.0
C603 C 0.83337 0.79826 0.01653 0.0
C604 C 0.85037 0.78735 0.00164 0.0
C605 C 0.80364 0.82047 0.04549 0.0
C606 C 0.82269 0.81008 0.05425 0.0
C607 C 0.83661 0.79807 0.03982 0.0
C608 C 0.83092 0.81554 0.077 0.0
C609 C 0.78811 0.83356 0.06028 0.0
C610 C 0.85007 0.82854 0.0789 0.0
C611 C 0.85756 0.83557 0.09983 0.0
C612 C 0.84608 0.82976 0.11942 0.0
C613 C 0.82719 0.81618 0.11759 0.0
C614 C 0.81966 0.8091 0.09649 0.0
H615 H 0.77496 0.84204 0.05053 0.0
H616 H 0.78021 0.82208 0.07246 0.0
H617 H 0.79734 0.84643 0.06993 0.0
H618 H 0.85897 0.83375 0.06406 0.0
H619 H 0.87221 0.8459 0.10055 0.0
H620 H 0.11536 0.80178 0.05212 0.0
H621 H 0.13342 0.79656 0.01635 0.0
H622 H 0.1947 0.78236 0.05002 0.0
H623 H 0.17656 0.78812 0.08638 0.0
H624 H 0.20043 0.81425 0.02076 0.0
H625 H 0.15554 0.7484 0.9763 0.0
H626 H 0.13524 0.76636 0.9885 0.0
H627 H 0.15401 0.75122 0.00644 0.0
C628 C 0.13257 0.79704 0.05204 0.0
C629 C 0.14458 0.79563 0.0721 0.0
C630 C 0.14286 0.79369 0.03148 0.0
C631 C 0.16539 0.78862 0.03038 0.0
C632 C 0.17725 0.78599 0.05045 0.0
H633 H 0.17905 0.82055 0.88912 0.0
H634 H 0.191 0.79753 0.92108 0.0
C635 C 0.16687 0.78931 0.07119 0.0
C636 C 0.17667 0.79031 0.00838 0.0
H637 H 0.16398 0.78286 0.95326 0.0
C638 C 0.19311 0.80668 0.00598 0.0
C639 C 0.16798 0.77993 0.98895 0.0
C640 C 0.15241 0.7603 0.99029 0.0
C641 C 0.19828 0.81545 0.98484 0.0
C642 C 0.1863 0.80804 0.96589 0.0
C643 C 0.17267 0.78914 0.96787 0.0
C644 C 0.18331 0.82269 0.94608 0.0
C645 C 0.21517 0.8339 0.98328 0.0
C646 C 0.17517 0.84443 0.9495 0.0
C647 C 0.16824 0.85739 0.9315 0.0
C648 C 0.16915 0.84891 0.90955 0.0
C649 C 0.17824 0.82753 0.90587 0.0
C650 C 0.18508 0.81439 0.92408 0.0
H651 H 0.22895 0.83075 0.9951 0.0
H652 H 0.22188 0.83546 0.96604 0.0
H653 H 0.20749 0.85006 0.98818 0.0
H654 H 0.17296 0.85101 0.96629 0.0
H655 H 0.16141 0.87381 0.9349 0.0
H656 H 0.07657 0.14567 0.10987 0.0
H657 H 0.03984 0.1573 0.12072 0.0
H658 H 0.06264 0.17101 0.18785 0.0
H659 H 0.0999 0.15908 0.17705 0.0
H660 H 0.02661 0.14395 0.18732 0.0
H661 H 0.00978 0.2163 0.13315 0.0
H662 H 0.02144 0.19426 0.11655 0.0
H663 H 0.03745 0.20673 0.1388 0.0
C664 C 0.07396 0.15147 0.12688 0.0
C665 C 0.09115 0.15131 0.14264 0.0
C666 C 0.05294 0.15842 0.133 0.0
C667 C 0.04854 0.16549 0.15498 0.0
C668 C 0.06576 0.16592 0.17071 0.0
H669 H 0.90432 0.17766 0.15439 0.0
H670 H 0.94115 0.18952 0.16689 0.0
C671 C 0.08699 0.15907 0.16453 0.0
C672 C 0.02535 0.16932 0.16167 0.0
H673 H 0.97805 0.19113 0.14009 0.0
C674 C 0.01603 0.15486 0.17757 0.0
C675 C 0.01151 0.18396 0.14949 0.0
C676 C 0.02066 0.20136 0.13374 0.0
C677 C 0.99313 0.1526 0.17944 0.0
C678 C 0.97936 0.1648 0.16475 0.0
C679 C 0.98861 0.18138 0.15102 0.0
C680 C 0.9565 0.1575 0.16007 0.0
C681 C 0.98394 0.13606 0.19605 0.0
C682 C 0.953 0.1357 0.152 0.0
C683 C 0.93226 0.12901 0.14471 0.0
C684 C 0.91443 0.144 0.14522 0.0
C685 C 0.91773 0.16572 0.15384 0.0
C686 C 0.93871 0.1725 0.16101 0.0
H687 H 0.99453 0.13513 0.21121 0.0
H688 H 0.96696 0.14058 0.20122 0.0
H689 H 0.98362 0.11913 0.18832 0.0
H690 H 0.96657 0.12401 0.15051 0.0
H691 H 0.93033 0.11214 0.13825 0.0
H692 H 0.80981 0.89976 0.21669 0.0
H693 H 0.79175 0.93596 0.22391 0.0
H694 H 0.84834 0.97031 0.19694 0.0
H695 H 0.86648 0.93481 0.19039 0.0
H696 H 0.83075 0.99221 0.23359 0.0
H697 H 0.76511 0.97038 0.17186 0.0
H698 H 0.76865 0.95366 0.19665 0.0
H699 H 0.78896 0.95268 0.17481 0.0
C700 C 0.81849 0.9151 0.2127 0.0
C701 C 0.83944 0.9144 0.20262 0.0
C702 C 0.80811 0.93574 0.21674 0.0
C703 C 0.81855 0.95585 0.21066 0.0
C704 C 0.83993 0.95506 0.20183 0.0
H705 H 0.82648 0.04919 0.1297 0.0
H706 H 0.81322 0.01944 0.15365 0.0
C707 C 0.85025 0.93465 0.19791 0.0
C708 C 0.80717 0.97784 0.21085 0.0
H709 H 0.77492 0.00798 0.17522 0.0
C710 C 0.8179 0.9958 0.22148 0.0
C711 C 0.79003 0.98241 0.19547 0.0
C712 C 0.77743 0.96386 0.18396 0.0
C713 C 0.81479 0.01794 0.21423 0.0
C714 C 0.80007 0.02209 0.19631 0.0
C715 C 0.78647 0.00463 0.18867 0.0
C716 C 0.80371 0.04132 0.18102 0.0
C717 C 0.8294 0.0361 0.2237 0.0
C718 C 0.80206 0.06377 0.18802 0.0
C719 C 0.80999 0.08104 0.17425 0.0
C720 C 0.81957 0.07597 0.15336 0.0
C721 C 0.81954 0.05367 0.14583 0.0
C722 C 0.81175 0.0366 0.15948 0.0
H723 H 0.84038 0.02981 0.23718 0.0
H724 H 0.83978 0.04334 0.21022 0.0
H725 H 0.81911 0.04974 0.23077 0.0
H726 H 0.79554 0.06784 0.20442 0.0
H727 H 0.80964 0.09813 0.18041 0.0
H728 H 0.89778 0.79178 0.22047 0.0
H729 H 0.93012 0.76919 0.23048 0.0
H730 H 0.97186 0.82654 0.21855 0.0
H731 H 0.94006 0.84892 0.20939 0.0
H732 H 0.95961 0.75785 0.20239 0.0
H733 H 0.00583 0.80036 0.26787 0.0
H734 H 0.97692 0.80613 0.26367 0.0
H735 H 0.99777 0.82228 0.24925 0.0
C736 C 0.91383 0.79969 0.22086 0.0
C737 C 0.91645 0.82203 0.21388 0.0
C738 C 0.93229 0.78677 0.22657 0.0
C739 C 0.95354 0.79614 0.22562 0.0
C740 C 0.95577 0.81892 0.2202 0.0
H741 H 0.04376 0.78937 0.14054 0.0
H742 H 0.01348 0.77811 0.16417 0.0
C743 C 0.93749 0.83172 0.21455 0.0
C744 C 0.97361 0.78189 0.22548 0.0
H745 H 0.0285 0.79026 0.23297 0.0
C746 C 0.97462 0.76428 0.20985 0.0
C747 C 0.9933 0.78908 0.23595 0.0
C748 C 0.99324 0.80533 0.25533 0.0
C749 C 0.99491 0.75689 0.20143 0.0
C750 C 0.01439 0.768 0.20822 0.0
C751 C 0.01356 0.78237 0.22688 0.0
C752 C 0.03366 0.76979 0.19298 0.0
C753 C 0.99508 0.73866 0.18389 0.0
C754 C 0.05539 0.76901 0.20109 0.0
C755 C 0.07296 0.77593 0.18749 0.0
C756 C 0.06897 0.78398 0.16571 0.0
C757 C 0.04742 0.78339 0.15726 0.0
C758 C 0.03002 0.77654 0.17074 0.0
H759 H 0.98332 0.72519 0.18854 0.0
H760 H 0.9895 0.74563 0.16762 0.0
H761 H 0.0117 0.73123 0.18177 0.0
H762 H 0.05863 0.76411 0.21825 0.0
H763 H 0.08942 0.77622 0.19447 0.0
H764 H 0.16953 0.06951 0.18198 0.0
H765 H 0.1731 0.03048 0.19487 0.0
H766 H 0.16918 0.00753 0.12636 0.0
H767 H 0.1657 0.04596 0.11354 0.0
H768 H 0.14081 -0.00151 0.18799 0.0
H769 H 0.21838 0.96869 0.1508 0.0
H770 H 0.2125 -0.00185 0.15468 0.0
H771 H 0.2026 0.98348 0.13021 0.0
C772 C 0.17 0.05611 0.16971 0.0
C773 C 0.16721 0.06073 0.14678 0.0
C774 C 0.17202 0.03388 0.17707 0.0
C775 C 0.17176 0.01613 0.16154 0.0
C776 C 0.16997 0.02093 0.13862 0.0
H777 H 0.10832 0.89858 0.13939 0.0
H778 H 0.12108 0.93569 0.15023 0.0
C779 C 0.16773 0.04294 0.13133 0.0
C780 C 0.17027 0.99245 0.1688 0.0
H781 H 0.18876 0.94069 0.15347 0.0
C782 C 0.15169 0.98583 0.18109 0.0
C783 C 0.18466 0.97589 0.16023 0.0
C784 C 0.20578 0.98197 0.14846 0.0
C785 C 0.14584 0.96315 0.18283 0.0
C786 C 0.15872 0.94682 0.17169 0.0
C787 C 0.17861 0.95324 0.16162 0.0
C788 C 0.15028 0.9239 0.16734 0.0
C789 C 0.12529 0.95701 0.19559 0.0
C790 C 0.16265 0.90487 0.173 0.0
C791 C 0.15542 0.88348 0.16664 0.0
C792 C 0.13586 0.88084 0.15426 0.0
C793 C 0.12342 0.89996 0.14893 0.0
C794 C 0.1306 0.92122 0.15533 0.0
H795 H 0.12228 0.96902 0.20951 0.0
H796 H 0.11093 0.95779 0.18412 0.0
H797 H 0.12637 0.93981 0.20259 0.0
H798 H 0.17803 0.90661 0.18201 0.0
H799 H 0.16541 0.86908 0.17098 0.0
H800 H 0.92863 0.83839 0.88639 0.0
H801 H 0.96444 0.83103 0.86987 0.0
H802 H 0.93329 0.80747 0.80924 0.0
H803 H 0.89693 0.81507 0.82581 0.0
H804 H 0.98547 0.79312 0.8499 0.0
H805 H 0.97 0.86254 0.78936 0.0
H806 H 0.95223 0.85839 0.8132 0.0
H807 H 0.9515 0.83899 0.79019 0.0
C808 C 0.9293 0.83129 0.86967 0.0
C809 C 0.90999 0.82763 0.85726 0.0
C810 C 0.94981 0.82696 0.86028 0.0
C811 C 0.95154 0.81897 0.83824 0.0
C812 C 0.93229 0.81385 0.82621 0.0
H813 H 0.09507 0.83079 0.81617 0.0
H814 H 0.0593 0.81363 0.80705 0.0
C815 C 0.91157 0.81809 0.83572 0.0
C816 C 0.97363 0.8188 0.82773 0.0
H817 H 0.00657 0.85395 0.79766 0.0
C818 C 0.99013 0.8058 0.83779 0.0
C819 C 0.97957 0.83534 0.81187 0.0
C820 C 0.9625 0.84972 0.80047 0.0
C821 C 0.0125 0.81066 0.83443 0.0
C822 C 0.01837 0.82885 0.82049 0.0
C823 C 0.00194 0.84006 0.80838 0.0
C824 C 0.0401 0.83986 0.82274 0.0
C825 C 0.02956 0.79796 0.84768 0.0
C826 C 0.04105 0.86055 0.83389 0.0
C827 C 0.06123 0.87027 0.83911 0.0
C828 C 0.081 0.85958 0.83322 0.0
C829 C 0.08009 0.83939 0.82097 0.0
C830 C 0.05972 0.82953 0.81583 0.0
H831 H 0.02213 0.78473 0.85836 0.0
H832 H 0.04141 0.78991 0.83603 0.0
H833 H 0.03892 0.80969 0.85857 0.0
H834 H 0.0261 0.86878 0.8394 0.0
H835 H 0.06131 0.88592 0.84836 0.0
H836 H 0.16687 0.93635 0.80225 0.0
H837 H 0.17541 0.97492 0.79038 0.0
H838 H 0.17325 0.99658 0.8594 0.0
H839 H 0.16482 0.95861 0.87116 0.0
H840 H 0.14663 0.00969 0.79754 0.0
H841 H 0.22584 0.03132 0.83661 0.0
H842 H 0.21744 0.0026 0.83192 0.0
H843 H 0.20871 0.01748 0.85673 0.0
C844 C 0.16887 0.94929 0.81485 0.0
C845 C 0.16504 0.94459 0.83759 0.0
C846 C 0.17373 0.97127 0.80807 0.0
C847 C 0.17533 0.98857 0.82403 0.0
C848 C 0.17268 0.98347 0.84681 0.0
H849 H 0.12046 0.10737 0.85247 0.0
H850 H 0.13159 0.07041 0.83957 0.0
C851 C 0.16759 0.96177 0.8535 0.0
C852 C 0.17618 0.01247 0.81737 0.0
H853 H 0.19831 0.06185 0.83544 0.0
C854 C 0.15839 0.02111 0.80513 0.0
C855 C 0.19171 0.02743 0.82682 0.0
C856 C 0.21212 0.01915 0.83853 0.0
C857 C 0.15427 0.04423 0.8045 0.0
C858 C 0.16813 0.05892 0.81667 0.0
C859 C 0.1874 0.05053 0.82651 0.0
C860 C 0.16098 0.08191 0.82261 0.0
C861 C 0.13434 0.05258 0.792 0.0
C862 C 0.17407 0.10069 0.81778 0.0
C863 C 0.16774 0.12203 0.82526 0.0
C864 C 0.14843 0.12479 0.83802 0.0
C865 C 0.13541 0.1059 0.8427 0.0
C866 C 0.14164 0.08474 0.83512 0.0
H867 H 0.13053 0.04156 0.77746 0.0
H868 H 0.11989 0.05233 0.80336 0.0
H869 H 0.13677 0.06998 0.78591 0.0
H870 H 0.18922 0.09879 0.8084 0.0
H871 H 0.17816 0.13624 0.82143 0.0
H872 H 0.0995 0.22711 0.79988 0.0
H873 H 0.06775 0.23624 0.77613 0.0
H874 H 0.02422 0.22109 0.83125 0.0
H875 H 0.05543 0.21288 0.85488 0.0
H876 H 0.03993 0.20756 0.76259 0.0
H877 H 0.98958 0.26979 0.80505 0.0
H878 H 0.01829 0.26635 0.81216 0.0
H879 H 0.99719 0.25059 0.82664 0.0
C880 C 0.08315 0.22658 0.80709 0.0
C881 C 0.07994 0.21901 0.82917 0.0
C882 C 0.06502 0.23179 0.7935 0.0
C883 C 0.04347 0.22969 0.80187 0.0
C884 C 0.04054 0.22362 0.82442 0.0
H885 H 0.9556 0.14221 0.78632 0.0
H886 H 0.98586 0.16682 0.77734 0.0
C887 C 0.0585 0.21853 0.83792 0.0
C888 C 0.02403 0.22922 0.78673 0.0
H889 H 0.9686 0.23477 0.79226 0.0
C890 C 0.02439 0.21429 0.76848 0.0
C891 C 0.0037 0.23877 0.79323 0.0
C892 C 0.00233 0.25749 0.81018 0.0
C893 C 0.00477 0.20565 0.75957 0.0
C894 C 0.98453 0.21142 0.7698 0.0
C895 C 0.98409 0.22943 0.78501 0.0
C896 C 0.96553 0.1957 0.76969 0.0
C897 C 0.00608 0.18901 0.74057 0.0
C898 C 0.9437 0.20345 0.76837 0.0
C899 C 0.92613 0.18927 0.77401 0.0
C900 C 0.93021 0.16723 0.78126 0.0
C901 C 0.95189 0.15912 0.78094 0.0
C902 C 0.96929 0.1732 0.7754 0.0
H903 H 0.01833 0.19469 0.72798 0.0
H904 H 0.01186 0.17262 0.74707 0.0
H905 H 0.98993 0.18669 0.73215 0.0
H906 H 0.94034 0.22077 0.7642 0.0
H907 H 0.90958 0.19599 0.77412 0.0
H908 H 0.81255 0.88769 0.81729 0.0
H909 H 0.80287 0.92048 0.79428 0.0
H910 H 0.82782 0.96422 0.84609 0.0
H911 H 0.83696 0.9321 0.86901 0.0
H912 H 0.78943 0.98027 0.82617 0.0
H913 H 0.8519 0.95521 0.76236 0.0
H914 H 0.82934 0.93671 0.76862 0.0
H915 H 0.85059 0.94117 0.78905 0.0
C916 C 0.81555 0.90436 0.82386 0.0
C917 C 0.82583 0.90731 0.84481 0.0
C918 C 0.81013 0.92303 0.81066 0.0
C919 C 0.81489 0.94478 0.81835 0.0
C920 C 0.82395 0.94762 0.83979 0.0
H921 H 0.8826 0.05206 0.80509 0.0
H922 H 0.86401 0.01643 0.80041 0.0
C923 C 0.82934 0.92917 0.85285 0.0
C924 C 0.81287 0.96491 0.80398 0.0
H925 H 0.84413 0.99332 0.76603 0.0
C926 C 0.80075 0.98309 0.8124 0.0
C927 C 0.82744 0.96839 0.78583 0.0
C928 C 0.84064 0.94943 0.77583 0.0
C929 C 0.80524 0.00512 0.80556 0.0
C930 C 0.82191 0.00885 0.78941 0.0
C931 C 0.83156 0.99037 0.77859 0.0
C932 C 0.83353 0.03069 0.78817 0.0
C933 C 0.79404 0.02424 0.8176 0.0
C934 C 0.82287 0.05068 0.78213 0.0
C935 C 0.8335 0.07137 0.78509 0.0
C936 C 0.85495 0.07225 0.794 0.0
C937 C 0.866 0.05207 0.79847 0.0
C938 C 0.8554 0.0316 0.79564 0.0
H939 H 0.78256 0.01832 0.83082 0.0
H940 H 0.80648 0.03537 0.82551 0.0
H941 H 0.7845 0.03433 0.80541 0.0
H942 H 0.80612 0.05035 0.77594 0.0
H943 H 0.82462 0.08663 0.78129 0.0
H944 H 0.66545 0.68558 0.42459 0.0
H945 H 0.67524 0.69784 0.46268 0.0
H946 H 0.65679 0.6329 0.4882 0.0
H947 H 0.64725 0.62061 0.45061 0.0
H948 H 0.64576 0.7007 0.49687 0.0
H949 H 0.71272 0.64453 0.52286 0.0
H950 H 0.70572 0.64879 0.49372 0.0
H951 H 0.69116 0.62832 0.51027 0.0
C952 C 0.66403 0.67379 0.43829 0.0
C953 C 0.65546 0.65217 0.43463 0.0
C954 C 0.66962 0.68081 0.46 0.0
C955 C 0.66711 0.66617 0.47824 0.0
C956 C 0.65945 0.64432 0.47437 0.0
H957 H 0.60701 0.66117 0.59719 0.0
H958 H 0.62051 0.67055 0.56007 0.0
C959 C 0.65374 0.63738 0.45284 0.0
C960 C 0.66932 0.67413 0.50168 0.0
H961 H 0.68647 0.65521 0.55264 0.0
C962 C 0.65524 0.69127 0.50903 0.0
C963 C 0.68208 0.66232 0.51758 0.0
C964 C 0.69895 0.64515 0.51062 0.0
C965 C 0.65159 0.69497 0.53196 0.0
C966 C 0.66199 0.6809 0.5478 0.0
C967 C 0.67811 0.66571 0.5405 0.0
C968 C 0.65356 0.67868 0.571 0.0
C969 C 0.63564 0.71303 0.53895 0.0
C970 C 0.66768 0.67996 0.58961 0.0
C971 C 0.65996 0.67444 0.61105 0.0
C972 C 0.63813 0.66717 0.61406 0.0
C973 C 0.62393 0.66664 0.59547 0.0
C974 C 0.63157 0.67227 0.57422 0.0
H975 H 0.63616 0.72733 0.52707 0.0
H976 H 0.61867 0.70614 0.53866 0.0
H977 H 0.63923 0.71931 0.5561 0.0
H978 H 0.68478 0.6846 0.58745 0.0
H979 H 0.67132 0.67494 0.62504 0.0
H980 H 0.37048 0.69359 0.56022 0.0
H981 H 0.35149 0.69645 0.5246 0.0
H982 H 0.29043 0.70987 0.55898 0.0
H983 H 0.30951 0.70663 0.59516 0.0
H984 H 0.28581 0.67627 0.5299 0.0
H985 H 0.32712 0.74453 0.48525 0.0
H986 H 0.34795 0.72704 0.4972 0.0
H987 H 0.32896 0.74166 0.51535 0.0
C988 C 0.3531 0.69763 0.5603 0.0
C989 C 0.34147 0.69972 0.58053 0.0
C990 C 0.34228 0.69956 0.53983 0.0
C991 C 0.31958 0.7038 0.53903 0.0
C992 C 0.30801 0.70686 0.5592 0.0
H993 H 0.30019 0.67951 0.39688 0.0
H994 H 0.28937 0.69912 0.43135 0.0
C995 C 0.31892 0.70502 0.57983 0.0
C996 C 0.30801 0.70149 0.51724 0.0
H997 H 0.31773 0.71113 0.4619 0.0
C998 C 0.29218 0.68447 0.51504 0.0
C999 C 0.31556 0.71263 0.49781 0.0
C1000 C 0.33064 0.73267 0.49912 0.0
C1001 C 0.28618 0.67623 0.49385 0.0
C1002 C 0.29673 0.68486 0.47457 0.0
C1003 C 0.31005 0.70399 0.47666 0.0
C1004 C 0.29811 0.67177 0.45341 0.0
C1005 C 0.26967 0.65741 0.49248 0.0
C1006 C 0.3061 0.64972 0.45427 0.0
C1007 C 0.31225 0.63855 0.43473 0.0
C1008 C 0.3108 0.64925 0.41384 0.0
C1009 C 0.30148 0.6708 0.41274 0.0
C1010 C 0.2953 0.68204 0.43242 0.0
H1011 H 0.25653 0.65973 0.50523 0.0
H1012 H 0.26196 0.65631 0.47564 0.0
H1013 H 0.278 0.64129 0.49622 0.0
H1014 H 0.30908 0.64158 0.47019 0.0
H1015 H 0.31928 0.62194 0.43618 0.0
H1016 H 0.3283 0.2917 0.4057 0.0
H1017 H 0.31789 0.28307 0.44462 0.0
H1018 H 0.3298 0.35198 0.4631 0.0
H1019 H 0.33999 0.36059 0.42476 0.0
H1020 H 0.34633 0.28693 0.47966 0.0
H1021 H 0.27433 0.33942 0.49791 0.0
H1022 H 0.2822 0.33221 0.46957 0.0
H1023 H 0.29436 0.35607 0.48352 0.0
C1024 C 0.3281 0.30506 0.41801 0.0
C1025 C 0.3351 0.32677 0.41226 0.0
C1026 C 0.32215 0.30012 0.44019 0.0
C1027 C 0.32268 0.31696 0.45671 0.0
C1028 C 0.32866 0.33882 0.4506 0.0
H1029 H 0.38274 0.34583 0.57012 0.0
H1030 H 0.36906 0.32906 0.53573 0.0
C1031 C 0.33477 0.34368 0.42868 0.0
C1032 C 0.3205 0.31168 0.48087 0.0
H1033 H 0.30175 0.33642 0.52872 0.0
C1034 C 0.33599 0.29711 0.49044 0.0
C1035 C 0.30664 0.3244 0.49507 0.0
C1036 C 0.28828 0.33869 0.4859 0.0
C1037 C 0.34001 0.29733 0.5136 0.0
C1038 C 0.32854 0.31276 0.5273 0.0
C1039 C 0.31096 0.32496 0.51816 0.0
C1040 C 0.3373 0.31985 0.5494 0.0
C1041 C 0.35759 0.28215 0.52292 0.0
C1042 C 0.32392 0.32054 0.56859 0.0
C1043 C 0.33175 0.33034 0.58845 0.0
C1044 C 0.3529 0.33994 0.58922 0.0
C1045 C 0.36636 0.33866 0.57012 0.0
C1046 C 0.35864 0.32879 0.55047 0.0
H1047 H 0.35812 0.26607 0.51351 0.0
H1048 H 0.37389 0.29033 0.52099 0.0
H1049 H 0.35483 0.27855 0.54095 0.0
H1050 H 0.30729 0.31402 0.56802 0.0
H1051 H 0.32097 0.33112 0.60288 0.0
H1052 H 0.70333 0.31163 0.38139 0.0
H1053 H 0.71662 0.29547 0.41687 0.0
H1054 H 0.64975 0.2922 0.44099 0.0
H1055 H 0.63664 0.3083 0.40611 0.0
H1056 H 0.71013 0.31808 0.45665 0.0
H1057 H 0.67441 0.234 0.4651 0.0
H1058 H 0.67855 0.24708 0.43809 0.0
H1059 H 0.65393 0.25255 0.4541 0.0
C1060 C 0.69151 0.30677 0.39406 0.0
C1061 C 0.669 0.31133 0.39116 0.0
C1062 C 0.6991 0.29754 0.41426 0.0
C1063 C 0.68415 0.29226 0.43144 0.0
C1064 C 0.66157 0.29555 0.42781 0.0
H1065 H 0.63362 0.31605 0.54451 0.0
H1066 H 0.64924 0.30201 0.50973 0.0
C1067 C 0.65409 0.30502 0.40795 0.0
C1068 C 0.69161 0.28736 0.45456 0.0
H1069 H 0.673 0.25791 0.49959 0.0
C1070 C 0.703 0.30433 0.46605 0.0
C1071 C 0.68265 0.26926 0.4668 0.0
C1072 C 0.67192 0.24959 0.45526 0.0
C1073 C 0.70255 0.3055 0.48955 0.0
C1074 C 0.6905 0.28925 0.50161 0.0
C1075 C 0.68199 0.27053 0.49026 0.0
C1076 C 0.68125 0.29477 0.52384 0.0
C1077 C 0.71248 0.3256 0.50115 0.0
C1078 C 0.69403 0.29498 0.54345 0.0
C1079 C 0.68503 0.30301 0.5636 0.0
C1080 C 0.6633 0.31117 0.56416 0.0
C1081 C 0.65047 0.31014 0.5446 0.0
C1082 C 0.65933 0.30196 0.52472 0.0
H1083 H 0.72237 0.33607 0.48952 0.0
H1084 H 0.69918 0.33611 0.5084 0.0
H1085 H 0.72321 0.32003 0.51512 0.0
H1086 H 0.71102 0.28951 0.54302 0.0
H1087 H 0.69527 0.3036 0.57845 0.0
H1088 H 0.59142 0.70348 0.71826 0.0
H1089 H 0.56061 0.72696 0.73105 0.0
H1090 H 0.51613 0.67153 0.72003 0.0
H1091 H 0.54645 0.64829 0.70821 0.0
H1092 H 0.52997 0.74054 0.70573 0.0
H1093 H 0.48587 0.69732 0.77184 0.0
H1094 H 0.51424 0.69053 0.76577 0.0
H1095 H 0.49198 0.67567 0.75207 0.0
C1096 C 0.57515 0.69616 0.71948 0.0
C1097 C 0.57126 0.67414 0.71199 0.0
C1098 C 0.55755 0.70959 0.72675 0.0
C1099 C 0.53594 0.70105 0.72687 0.0
C1100 C 0.53255 0.67852 0.72091 0.0
H1101 H 0.44301 0.71372 0.64637 0.0
H1102 H 0.47418 0.72421 0.66911 0.0
C1103 C 0.54997 0.66523 0.71373 0.0
C1104 C 0.51639 0.716 0.72844 0.0
H1105 H 0.46172 0.70892 0.73832 0.0
C1106 C 0.51515 0.73425 0.71365 0.0
C1107 C 0.49702 0.70907 0.73963 0.0
C1108 C 0.49753 0.69223 0.75842 0.0
C1109 C 0.4947 0.74256 0.70659 0.0
C1110 C 0.47524 0.73167 0.71377 0.0
C1111 C 0.47656 0.71663 0.73181 0.0
C1112 C 0.4553 0.7308 0.69929 0.0
C1113 C 0.49425 0.7616 0.69004 0.0
C1114 C 0.43393 0.73096 0.70839 0.0
C1115 C 0.41583 0.7244 0.69527 0.0
C1116 C 0.41894 0.7174 0.67296 0.0
C1117 C 0.44004 0.71888 0.66353 0.0
C1118 C 0.45797 0.7253 0.67654 0.0
H1119 H 0.50628 0.7747 0.69508 0.0
H1120 H 0.49935 0.75538 0.67328 0.0
H1121 H 0.47767 0.76931 0.68877 0.0
H1122 H 0.43141 0.73493 0.72592 0.0
H1123 H 0.39974 0.7234 0.703 0.0
H1124 H 0.3203 0.62844 0.6748 0.0
H1125 H 0.30948 0.59005 0.68497 0.0
H1126 H 0.37471 0.56677 0.66861 0.0
H1127 H 0.38554 0.60466 0.65846 0.0
H1128 H 0.31038 0.554 0.65463 0.0
H1129 H 0.36224 0.53505 0.72805 0.0
H1130 H 0.35616 0.56341 0.71941 0.0
H1131 H 0.37814 0.54795 0.70628 0.0
C1132 C 0.33242 0.61517 0.67381 0.0
C1133 C 0.35374 0.61953 0.66572 0.0
C1134 C 0.32622 0.5933 0.67962 0.0
C1135 C 0.3414 0.57565 0.67789 0.0
C1136 C 0.36287 0.5802 0.67057 0.0
H1137 H 0.35733 0.4525 0.62713 0.0
H1138 H 0.34633 0.49042 0.63706 0.0
C1139 C 0.36898 0.60186 0.66455 0.0
C1140 C 0.33462 0.55201 0.68093 0.0
H1141 H 0.35372 0.50327 0.70343 0.0
C1142 C 0.3193 0.54294 0.66582 0.0
C1143 C 0.34591 0.53762 0.69581 0.0
C1144 C 0.36135 0.54657 0.71347 0.0
C1145 C 0.31687 0.51967 0.66348 0.0
C1146 C 0.33026 0.50526 0.6764 0.0
C1147 C 0.34367 0.51434 0.69328 0.0
C1148 C 0.33381 0.48159 0.66984 0.0
C1149 C 0.30101 0.51071 0.64621 0.0
C1150 C 0.33049 0.46396 0.68503 0.0
C1151 C 0.33676 0.44206 0.67932 0.0
C1152 C 0.3469 0.43768 0.65857 0.0
C1153 C 0.34965 0.45533 0.64327 0.0
C1154 C 0.34315 0.47701 0.64884 0.0
H1155 H 0.28694 0.52235 0.64382 0.0
H1156 H 0.30962 0.50908 0.62988 0.0
H1157 H 0.29458 0.49397 0.65105 0.0
H1158 H 0.32356 0.46724 0.70144 0.0
H1159 H 0.33455 0.42879 0.69148 0.0
H1160 H 0.60172 0.30626 0.68506 0.0
H1161 H 0.5682 0.2973 0.70636 0.0
H1162 H 0.52942 0.30682 0.64651 0.0
H1163 H 0.5624 0.31538 0.62544 0.0
H1164 H 0.53663 0.32675 0.71366 0.0
H1165 H 0.49693 0.25532 0.67294 0.0
H1166 H 0.52602 0.26079 0.6696 0.0
H1167 H 0.50613 0.27337 0.65095 0.0
C1168 C 0.58607 0.30569 0.67639 0.0
C1169 C 0.58461 0.31172 0.65365 0.0
C1170 C 0.56696 0.30057 0.68856 0.0
C1171 C 0.54627 0.30098 0.678 0.0
C1172 C 0.54515 0.30567 0.65498 0.0
H1173 H 0.44724 0.37718 0.67412 0.0
H1174 H 0.47968 0.35802 0.68773 0.0
C1175 C 0.56406 0.31091 0.64295 0.0
C1176 C 0.52547 0.30083 0.69104 0.0
H1177 H 0.47175 0.28811 0.68119 0.0
C1178 C 0.5225 0.31762 0.70729 0.0
C1179 C 0.50701 0.28837 0.6837 0.0
C1180 C 0.50933 0.26828 0.66853 0.0
C1181 C 0.50131 0.32481 0.71324 0.0
C1182 C 0.4829 0.31538 0.70218 0.0
C1183 C 0.48584 0.296 0.68912 0.0
C1184 C 0.4623 0.32837 0.69901 0.0
C1185 C 0.49898 0.34374 0.72984 0.0
C1186 C 0.44147 0.31824 0.70081 0.0
C1187 C 0.42269 0.32924 0.69271 0.0
C1188 C 0.4246 0.35033 0.68238 0.0
C1189 C 0.44523 0.3609 0.68187 0.0
C1190 C 0.46383 0.35004 0.69001 0.0
H1191 H 0.511 0.34175 0.74373 0.0
H1192 H 0.50275 0.35986 0.72141 0.0
H1193 H 0.48212 0.34457 0.73697 0.0
H1194 H 0.43991 0.30143 0.70743 0.0
H1195 H 0.40699 0.32067 0.69327 0.0
H1196 H 0.67482 0.58839 0.69667 0.0
H1197 H 0.68984 0.55011 0.69794 0.0
H1198 H 0.62508 0.5234 0.685 0.0
H1199 H 0.61007 0.5611 0.68402 0.0
H1200 H 0.64959 0.49811 0.71622 0.0
H1201 H 0.69649 0.51618 0.6379 0.0
H1202 H 0.70152 0.53323 0.66229 0.0
H1203 H 0.67556 0.53505 0.64808 0.0
C1204 C 0.66377 0.57429 0.6946 0.0
C1205 C 0.64133 0.57774 0.6899 0.0
C1206 C 0.67238 0.55247 0.6952 0.0
C1207 C 0.65861 0.53396 0.69122 0.0
C1208 C 0.63601 0.53743 0.68808 0.0
H1209 H 0.64077 0.42118 0.62023 0.0
H1210 H 0.64941 0.45731 0.63698 0.0
C1211 C 0.62747 0.55905 0.68739 0.0
C1212 C 0.66736 0.51102 0.68787 0.0
H1213 H 0.69023 0.47867 0.64681 0.0
C1214 C 0.6591 0.49377 0.70145 0.0
C1215 C 0.67974 0.50551 0.66855 0.0
C1216 C 0.68884 0.52336 0.65323 0.0
C1217 C 0.66109 0.47119 0.6951 0.0
C1218 C 0.67188 0.46582 0.67479 0.0
C1219 C 0.68196 0.48292 0.66235 0.0
C1220 C 0.669 0.44364 0.66398 0.0
C1221 C 0.64988 0.45346 0.70903 0.0
C1222 C 0.67754 0.42393 0.67337 0.0
C1223 C 0.67254 0.40305 0.6638 0.0
C1224 C 0.65892 0.40166 0.64474 0.0
C1225 C 0.65117 0.42157 0.63498 0.0
C1226 C 0.65618 0.44229 0.64448 0.0
H1227 H 0.64056 0.46072 0.72332 0.0
H1228 H 0.63835 0.44356 0.69848 0.0
H1229 H 0.6624 0.44177 0.71582 0.0
H1230 H 0.68767 0.42466 0.68828 0.0
H1231 H 0.67884 0.38802 0.67166 0.0
H1232 H 0.43859 0.31715 0.35841 0.0
H1233 H 0.47374 0.30717 0.34188 0.0
H1234 H 0.44092 0.28559 0.28142 0.0
H1235 H 0.40523 0.29606 0.29795 0.0
H1236 H 0.49265 0.26895 0.3229 0.0
H1237 H 0.48064 0.33679 0.25984 0.0
H1238 H 0.46239 0.33403 0.2835 0.0
H1239 H 0.46122 0.31406 0.26099 0.0
C1240 C 0.43872 0.30994 0.34172 0.0
C1241 C 0.41918 0.30775 0.32933 0.0
C1242 C 0.45886 0.3041 0.33232 0.0
C1243 C 0.46001 0.29597 0.31028 0.0
C1244 C 0.44041 0.29216 0.29834 0.0
H1245 H 0.60407 0.29966 0.29335 0.0
H1246 H 0.56819 0.28383 0.28251 0.0
C1247 C 0.42006 0.29799 0.30785 0.0
C1248 C 0.48205 0.29427 0.29972 0.0
H1249 H 0.51666 0.32642 0.26826 0.0
C1250 C 0.49793 0.2809 0.31033 0.0
C1251 C 0.4888 0.30981 0.2832 0.0
C1252 C 0.47248 0.32459 0.27117 0.0
C1253 C 0.52051 0.28466 0.30701 0.0
C1254 C 0.52727 0.30194 0.29233 0.0
C1255 C 0.51137 0.31327 0.27957 0.0
C1256 C 0.54938 0.31227 0.29443 0.0
C1257 C 0.53683 0.27184 0.32111 0.0
C1258 C 0.55076 0.3339 0.30358 0.0
C1259 C 0.57103 0.34293 0.30962 0.0
C1260 C 0.59047 0.33056 0.30664 0.0
C1261 C 0.58933 0.30953 0.29594 0.0
C1262 C 0.56886 0.30042 0.28988 0.0
H1263 H 0.52867 0.25998 0.3328 0.0
H1264 H 0.54797 0.26211 0.31004 0.0
H1265 H 0.54705 0.28364 0.33109 0.0
H1266 H 0.53598 0.34338 0.30722 0.0
H1267 H 0.57133 0.35927 0.31756 0.0
H1268 H 0.68431 0.4026 0.28991 0.0
H1269 H 0.69522 0.44104 0.27999 0.0
H1270 H 0.68301 0.46209 0.3481 0.0
H1271 H 0.6724 0.42422 0.358 0.0
H1272 H 0.66712 0.47559 0.28168 0.0
H1273 H 0.7374 0.49772 0.33486 0.0
H1274 H 0.73024 0.46888 0.32895 0.0
H1275 H 0.7176 0.48366 0.35204 0.0
C1276 C 0.68461 0.41536 0.30285 0.0
C1277 C 0.67733 0.41049 0.32468 0.0
C1278 C 0.69086 0.43727 0.29717 0.0
C1279 C 0.69032 0.4544 0.31338 0.0
C1280 C 0.68421 0.44913 0.33542 0.0
H1281 H 0.62462 0.56199 0.3402 0.0
H1282 H 0.64091 0.52932 0.32256 0.0
C1283 C 0.67782 0.42746 0.34102 0.0
C1284 C 0.69222 0.47836 0.30712 0.0
H1285 H 0.70844 0.52741 0.33135 0.0
C1286 C 0.67682 0.48698 0.29187 0.0
C1287 C 0.70531 0.4934 0.31976 0.0
C1288 C 0.72374 0.48533 0.3346 0.0
C1289 C 0.67184 0.50993 0.29155 0.0
C1290 C 0.68222 0.52435 0.30716 0.0
C1291 C 0.69999 0.51628 0.31981 0.0
C1292 C 0.67175 0.5456 0.31435 0.0
C1293 C 0.65423 0.51819 0.27581 0.0
C1294 C 0.68369 0.56571 0.31583 0.0
C1295 C 0.67434 0.5846 0.32612 0.0
C1296 C 0.6531 0.58341 0.33546 0.0
C1297 C 0.64103 0.56345 0.33328 0.0
C1298 C 0.65025 0.54479 0.32289 0.0
H1299 H 0.65482 0.50884 0.25969 0.0
H1300 H 0.63782 0.51517 0.28339 0.0
H1301 H 0.656 0.53639 0.27235 0.0
H1302 H 0.70043 0.56658 0.30964 0.0
H1303 H 0.68404 0.59976 0.32763 0.0
H1304 H 0.55347 0.65804 0.38213 0.0
H1305 H 0.51848 0.67195 0.36815 0.0
H1306 H 0.55009 0.69488 0.30767 0.0
H1307 H 0.58568 0.6809 0.32176 0.0
H1308 H 0.50492 0.7171 0.35065 0.0
H1309 H 0.50161 0.64702 0.28864 0.0
H1310 H 0.52041 0.64547 0.312 0.0
H1311 H 0.52512 0.66543 0.29009 0.0
C1312 C 0.55312 0.66629 0.36597 0.0
C1313 C 0.57225 0.66815 0.35292 0.0
C1314 C 0.53313 0.67437 0.35807 0.0
C1315 C 0.53172 0.68432 0.33687 0.0
C1316 C 0.5509 0.68718 0.32408 0.0
H1317 H 0.39159 0.66655 0.30793 0.0
H1318 H 0.42707 0.68416 0.29835 0.0
C1319 C 0.57115 0.67926 0.33215 0.0
C1320 C 0.50955 0.68933 0.32802 0.0
H1321 H 0.46796 0.66076 0.30237 0.0
C1322 C 0.49689 0.70544 0.33932 0.0
C1323 C 0.49914 0.67432 0.31301 0.0
C1324 C 0.51215 0.65704 0.30012 0.0
C1325 C 0.47385 0.70498 0.33822 0.0
C1326 C 0.46339 0.68779 0.32584 0.0
C1327 C 0.47606 0.67378 0.31205 0.0
C1328 C 0.44085 0.68036 0.33157 0.0
C1329 C 0.46088 0.72155 0.352 0.0
C1330 C 0.437 0.67232 0.35329 0.0
C1331 C 0.41717 0.662 0.35862 0.0
C1332 C 0.40062 0.65954 0.34238 0.0
C1333 C 0.40408 0.66829 0.32078 0.0
C1334 C 0.42424 0.67838 0.31531 0.0
H1335 H 0.46971 0.73781 0.35324 0.0
H1336 H 0.4443 0.72445 0.34472 0.0
H1337 H 0.45886 0.71493 0.36925 0.0
H1338 H 0.44977 0.67317 0.36595 0.0
H1339 H 0.41497 0.65556 0.37544 0.0
H1340 H 0.30573 0.38051 0.31237 0.0
H1341 H 0.29047 0.41592 0.29813 0.0
H1342 H 0.35571 0.44454 0.29759 0.0
H1343 H 0.3708 0.40964 0.3115 0.0
H1344 H 0.29278 0.45348 0.32276 0.0
H1345 H 0.33125 0.47232 0.24189 0.0
H1346 H 0.32973 0.44405 0.25267 0.0
H1347 H 0.35225 0.46228 0.26036 0.0
C1348 C 0.31681 0.39418 0.30846 0.0
C1349 C 0.33941 0.39246 0.31323 0.0
C1350 C 0.3081 0.41436 0.30032 0.0
C1351 C 0.32196 0.43282 0.29642 0.0
C1352 C 0.3447 0.43044 0.29981 0.0
H1353 H 0.35687 0.54812 0.33795 0.0
H1354 H 0.34638 0.5125 0.32118 0.0
C1355 C 0.35331 0.41051 0.30809 0.0
C1356 C 0.31303 0.45572 0.29318 0.0
H1357 H 0.32904 0.50474 0.26887 0.0
C1358 C 0.29977 0.46461 0.31029 0.0
C1359 C 0.3218 0.47029 0.27677 0.0
C1360 C 0.33434 0.4616 0.25677 0.0
C1361 C 0.29793 0.48786 0.31335 0.0
C1362 C 0.30966 0.50234 0.29897 0.0
C1363 C 0.32029 0.49354 0.28006 0.0
C1364 C 0.31607 0.52488 0.30681 0.0
C1365 C 0.28576 0.49677 0.3335 0.0
C1366 C 0.30255 0.5437 0.30396 0.0
C1367 C 0.30859 0.56433 0.31353 0.0
C1368 C 0.32806 0.56615 0.32624 0.0
C1369 C 0.34169 0.54728 0.32847 0.0
C1370 C 0.33579 0.52692 0.31879 0.0
H1371 H 0.27494 0.48385 0.34113 0.0
H1372 H 0.29783 0.50241 0.34631 0.0
H1373 H 0.27561 0.51147 0.32872 0.0
H1374 H 0.28721 0.54231 0.29481 0.0
H1375 H 0.29777 0.5786 0.31156 0.0
loop_
_geom_bond_atom_site_label_1
_geom_bond_atom_site_label_2
_geom_bond_distance
_geom_bond_site_symmetry_2
_ccdc_geom_bond_type
Zn0 O3 2.031 . S
Zn0 O5 2.049 . S
Zn0 O10 2.067 . S
Zn1 O2 1.962 . S
Zn1 O4 1.986 . S
Zn1 O6 1.996 . S
Zn1 O9 1.943 . S
O2 Zn1 1.962 . S
O2 C7 1.254 . S
O3 Zn0 2.031 . S
O3 C7 1.269 . S
O4 Zn1 1.986 . S
O4 C11 1.262 . S
O5 Zn0 2.049 . S
O5 C13 1.260 . S
O6 Zn1 1.996 . S
O6 C13 1.257 . S
C7 O2 1.254 . S
C7 O3 1.269 . S
C8 O9 1.249 . S
C8 O10 1.270 . S
O9 Zn1 1.943 . S
O9 C8 1.249 . S
O10 Zn0 2.067 . S
O10 C8 1.270 . S
C11 O4 1.262 . S
C11 O12 1.232 . S
O12 C11 1.232 . S
C13 O5 1.260 . S
C13 O6 1.257 . S
Zn14 O17 2.031 . S
Zn14 O19 2.049 . S
Zn14 O24 2.067 . S
Zn15 O16 1.962 . S
Zn15 O18 1.986 . S
Zn15 O20 1.996 . S
Zn15 O23 1.943 . S
O16 Zn15 1.962 . S
O16 C21 1.254 . S
O17 Zn14 2.031 . S
O17 C21 1.269 . S
O18 Zn15 1.986 . S
O18 C25 1.262 . S
O19 Zn14 2.049 . S
O19 C27 1.260 . S
O20 Zn15 1.996 . S
O20 C27 1.257 . S
C21 O16 1.254 . S
C21 O17 1.269 . S
C22 O23 1.249 . S
C22 O24 1.270 . S
O23 Zn15 1.943 . S
O23 C22 1.249 . S
O24 Zn14 2.067 . S
O24 C22 1.270 . S
C25 O18 1.262 . S
C25 O26 1.232 . S
O26 C25 1.232 . S
C27 O19 1.260 . S
C27 O20 1.257 . S
Zn28 O31 2.031 . S
Zn28 O33 2.049 . S
Zn28 O38 2.067 . S
Zn29 O30 1.962 . S
Zn29 O32 1.986 . S
Zn29 O34 1.996 . S
Zn29 O37 1.943 . S
O30 Zn29 1.962 . S
O30 C35 1.254 . S
O31 Zn28 2.031 . S
O31 C35 1.269 . S
O32 Zn29 1.986 . S
O32 C39 1.262 . S
O33 Zn28 2.049 . S
O33 C41 1.260 . S
O34 Zn29 1.996 . S
O34 C41 1.257 . S
C35 O30 1.254 . S
C35 O31 1.269 . S
C36 O37 1.249 . S
C36 O38 1.270 . S
O37 Zn29 1.943 . S
O37 C36 1.249 . S
O38 Zn28 2.067 . S
O38 C36 1.270 . S
C39 O32 1.262 . S
C39 O40 1.232 . S
O40 C39 1.232 . S
C41 O33 1.260 . S
C41 O34 1.257 . S
Zn42 O45 2.031 . S
Zn42 O47 2.049 . S
Zn42 O52 2.067 . S
Zn43 O44 1.962 . S
Zn43 O46 1.986 . S
Zn43 O48 1.996 . S
Zn43 O51 1.943 . S
O44 Zn43 1.962 . S
O44 C49 1.254 . S
O45 Zn42 2.031 . S
O45 C49 1.269 . S
O46 Zn43 1.986 . S
O46 C53 1.262 . S
O47 Zn42 2.049 . S
O47 C55 1.260 . S
O48 Zn43 1.996 . S
O48 C55 1.257 . S
C49 O44 1.254 . S
C49 O45 1.269 . S
C50 O51 1.249 . S
C50 O52 1.270 . S
O51 Zn43 1.943 . S
O51 C50 1.249 . S
O52 Zn42 2.067 . S
O52 C50 1.270 . S
C53 O46 1.262 . S
C53 O54 1.232 . S
O54 C53 1.232 . S
C55 O47 1.260 . S
C55 O48 1.257 . S
Zn56 O59 2.031 . S
Zn56 O61 2.049 . S
Zn56 O66 2.067 . S
Zn57 O58 1.962 . S
Zn57 O60 1.986 . S
Zn57 O62 1.996 . S
Zn57 O65 1.943 . S
O58 Zn57 1.962 . S
O58 C63 1.254 . S
O59 Zn56 2.031 . S
O59 C63 1.269 . S
O60 Zn57 1.986 . S
O60 C67 1.262 . S
O61 Zn56 2.049 . S
O61 C69 1.260 . S
O62 Zn57 1.996 . S
O62 C69 1.257 . S
C63 O58 1.254 . S
C63 O59 1.269 . S
C64 O65 1.249 . S
C64 O66 1.270 . S
O65 Zn57 1.943 . S
O65 C64 1.249 . S
O66 Zn56 2.067 . S
O66 C64 1.270 . S
C67 O60 1.262 . S
C67 O68 1.232 . S
O68 C67 1.232 . S
C69 O61 1.260 . S
C69 O62 1.257 . S
Zn70 O73 2.031 . S
Zn70 O75 2.049 . S
Zn70 O80 2.067 . S
Zn71 O72 1.962 . S
Zn71 O74 1.986 . S
Zn71 O76 1.996 . S
Zn71 O79 1.943 . S
O72 Zn71 1.962 . S
O72 C77 1.254 . S
O73 Zn70 2.031 . S
O73 C77 1.269 . S
O74 Zn71 1.986 . S
O74 C81 1.262 . S
O75 Zn70 2.049 . S
O75 C83 1.260 . S
O76 Zn71 1.996 . S
O76 C83 1.257 . S
C77 O72 1.254 . S
C77 O73 1.269 . S
C78 O79 1.249 . S
C78 O80 1.270 . S
O79 Zn71 1.943 . S
O79 C78 1.249 . S
O80 Zn70 2.067 . S
O80 C78 1.270 . S
C81 O74 1.262 . S
C81 O82 1.232 . S
O82 C81 1.232 . S
C83 O75 1.260 . S
C83 O76 1.257 . S
Zn84 O87 2.031 . S
Zn84 O89 2.049 . S
Zn84 O94 2.067 . S
Zn85 O86 1.962 . S
Zn85 O88 1.986 . S
Zn85 O90 1.996 . S
Zn85 O93 1.943 . S
O86 Zn85 1.962 . S
O86 C91 1.254 . S
O87 Zn84 2.031 . S
O87 C91 1.269 . S
O88 Zn85 1.986 . S
O88 C95 1.262 . S
O89 Zn84 2.049 . S
O89 C97 1.260 . S
O90 Zn85 1.996 . S
O90 C97 1.257 . S
C91 O86 1.254 . S
C91 O87 1.269 . S
C92 O93 1.249 . S
C92 O94 1.270 . S
O93 Zn85 1.943 . S
O93 C92 1.249 . S
O94 Zn84 2.067 . S
O94 C92 1.270 . S
C95 O88 1.262 . S
C95 O96 1.232 . S
O96 C95 1.232 . S
C97 O89 1.260 . S
C97 O90 1.257 . S
Zn98 O101 2.031 . S
Zn98 O103 2.049 . S
Zn98 O108 2.067 . S
Zn99 O100 1.962 . S
Zn99 O102 1.986 . S
Zn99 O104 1.996 . S
Zn99 O107 1.943 . S
O100 Zn99 1.962 . S
O100 C105 1.254 . S
O101 Zn98 2.031 . S
O101 C105 1.269 . S
O102 Zn99 1.986 . S
O102 C109 1.262 . S
O103 Zn98 2.049 . S
O103 C111 1.260 . S
O104 Zn99 1.996 . S
O104 C111 1.257 . S
C105 O100 1.254 . S
C105 O101 1.269 . S
C106 O107 1.249 . S
C106 O108 1.270 . S
O107 Zn99 1.943 . S
O107 C106 1.249 . S
O108 Zn98 2.067 . S
O108 C106 1.270 . S
C109 O102 1.262 . S
C109 O110 1.232 . S
O110 C109 1.232 . S
C111 O103 1.260 . S
C111 O104 1.257 . S
Zn112 O115 2.031 . S
Zn112 O117 2.049 . S
Zn112 O122 2.067 . S
Zn113 O114 1.962 . S
Zn113 O116 1.986 . S
Zn113 O118 1.996 . S
Zn113 O121 1.943 . S
O114 Zn113 1.962 . S
O114 C119 1.254 . S
O115 Zn112 2.031 . S
O115 C119 1.269 . S
O116 Zn113 1.986 . S
O116 C123 1.262 . S
O117 Zn112 2.049 . S
O117 C125 1.260 . S
O118 Zn113 1.996 . S
O118 C125 1.257 . S
C119 O114 1.254 . S
C119 O115 1.269 . S
C120 O121 1.249 . S
C120 O122 1.270 . S
O121 Zn113 1.943 . S
O121 C120 1.249 . S
O122 Zn112 2.067 . S
O122 C120 1.270 . S
C123 O116 1.262 . S
C123 O124 1.232 . S
O124 C123 1.232 . S
C125 O117 1.260 . S
C125 O118 1.257 . S
Zn126 O129 2.031 . S
Zn126 O131 2.049 . S
Zn126 O136 2.067 . S
Zn127 O128 1.962 . S
Zn127 O130 1.986 . S
Zn127 O132 1.996 . S
Zn127 O135 1.943 . S
O128 Zn127 1.962 . S
O128 C133 1.254 . S
O129 Zn126 2.031 . S
O129 C133 1.269 . S
O130 Zn127 1.986 . S
O130 C137 1.262 . S
O131 Zn126 2.049 . S
O131 C139 1.260 . S
O132 Zn127 1.996 . S
O132 C139 1.257 . S
C133 O128 1.254 . S
C133 O129 1.269 . S
C134 O135 1.249 . S
C134 O136 1.270 . S
O135 Zn127 1.943 . S
O135 C134 1.249 . S
O136 Zn126 2.067 . S
O136 C134 1.270 . S
C137 O130 1.262 . S
C137 O138 1.232 . S
O138 C137 1.232 . S
C139 O131 1.260 . S
C139 O132 1.257 . S
Zn140 O143 2.031 . S
Zn140 O145 2.049 . S
Zn140 O150 2.067 . S
Zn141 O142 1.962 . S
Zn141 O144 1.986 . S
Zn141 O146 1.996 . S
Zn141 O149 1.943 . S
O142 Zn141 1.962 . S
O142 C147 1.254 . S
O143 Zn140 2.031 . S
O143 C147 1.269 . S
O144 Zn141 1.986 . S
O144 C151 1.262 . S
O145 Zn140 2.049 . S
O145 C153 1.260 . S
O146 Zn141 1.996 . S
O146 C153 1.257 . S
C147 O142 1.254 . S
C147 O143 1.269 . S
C148 O149 1.249 . S
C148 O150 1.270 . S
O149 Zn141 1.943 . S
O149 C148 1.249 . S
O150 Zn140 2.067 . S
O150 C148 1.270 . S
C151 O144 1.262 . S
C151 O152 1.232 . S
O152 C151 1.232 . S
C153 O145 1.260 . S
C153 O146 1.257 . S
Zn154 O157 2.031 . S
Zn154 O159 2.049 . S
Zn154 O164 2.067 . S
Zn155 O156 1.962 . S
Zn155 O158 1.986 . S
Zn155 O160 1.996 . S
Zn155 O163 1.943 . S
O156 Zn155 1.962 . S
O156 C161 1.254 . S
O157 Zn154 2.031 . S
O157 C161 1.269 . S
O158 Zn155 1.986 . S
O158 C165 1.262 . S
O159 Zn154 2.049 . S
O159 C167 1.260 . S
O160 Zn155 1.996 . S
O160 C167 1.257 . S
C161 O156 1.254 . S
C161 O157 1.269 . S
C162 O163 1.249 . S
C162 O164 1.270 . S
O163 Zn155 1.943 . S
O163 C162 1.249 . S
O164 Zn154 2.067 . S
O164 C162 1.270 . S
C165 O158 1.262 . S
C165 O166 1.232 . S
O166 C165 1.232 . S
C167 O159 1.260 . S
C167 O160 1.257 . S
Zn168 O171 2.031 . S
Zn168 O173 2.049 . S
Zn168 O178 2.067 . S
Zn169 O170 1.962 . S
Zn169 O172 1.986 . S
Zn169 O174 1.996 . S
Zn169 O177 1.943 . S
O170 Zn169 1.962 . S
O170 C175 1.254 . S
O171 Zn168 2.031 . S
O171 C175 1.269 . S
O172 Zn169 1.986 . S
O172 C179 1.262 . S
O173 Zn168 2.049 . S
O173 C181 1.260 . S
O174 Zn169 1.996 . S
O174 C181 1.257 . S
C175 O170 1.254 . S
C175 O171 1.269 . S
C176 O177 1.249 . S
C176 O178 1.270 . S
O177 Zn169 1.943 . S
O177 C176 1.249 . S
O178 Zn168 2.067 . S
O178 C176 1.270 . S
C179 O172 1.262 . S
C179 O180 1.232 . S
O180 C179 1.232 . S
C181 O173 1.260 . S
C181 O174 1.257 . S
Zn182 O185 2.031 . S
Zn182 O187 2.049 . S
Zn182 O192 2.067 . S
Zn183 O184 1.962 . S
Zn183 O186 1.986 . S
Zn183 O188 1.996 . S
Zn183 O191 1.943 . S
O184 Zn183 1.962 . S
O184 C189 1.254 . S
O185 Zn182 2.031 . S
O185 C189 1.269 . S
O186 Zn183 1.986 . S
O186 C193 1.262 . S
O187 Zn182 2.049 . S
O187 C195 1.260 . S
O188 Zn183 1.996 . S
O188 C195 1.257 . S
C189 O184 1.254 . S
C189 O185 1.269 . S
C190 O191 1.249 . S
C190 O192 1.270 . S
O191 Zn183 1.943 . S
O191 C190 1.249 . S
O192 Zn182 2.067 . S
O192 C190 1.270 . S
C193 O186 1.262 . S
C193 O194 1.232 . S
O194 C193 1.232 . S
C195 O187 1.260 . S
C195 O188 1.257 . S
Zn196 O199 2.031 . S
Zn196 O201 2.049 . S
Zn196 O206 2.067 . S
Zn197 O198 1.962 . S
Zn197 O200 1.986 . S
Zn197 O202 1.996 . S
Zn197 O205 1.943 . S
O198 Zn197 1.962 . S
O198 C203 1.254 . S
O199 Zn196 2.031 . S
O199 C203 1.269 . S
O200 Zn197 1.986 . S
O200 C207 1.262 . S
O201 Zn196 2.049 . S
O201 C209 1.260 . S
O202 Zn197 1.996 . S
O202 C209 1.257 . S
C203 O198 1.254 . S
C203 O199 1.269 . S
C204 O205 1.249 . S
C204 O206 1.270 . S
O205 Zn197 1.943 . S
O205 C204 1.249 . S
O206 Zn196 2.067 . S
O206 C204 1.270 . S
C207 O200 1.262 . S
C207 O208 1.232 . S
O208 C207 1.232 . S
C209 O201 1.260 . S
C209 O202 1.257 . S
Zn210 O213 2.031 . S
Zn210 O215 2.049 . S
Zn210 O220 2.067 . S
Zn211 O212 1.962 . S
Zn211 O214 1.986 . S
Zn211 O216 1.996 . S
Zn211 O219 1.943 . S
O212 Zn211 1.962 . S
O212 C217 1.254 . S
O213 Zn210 2.031 . S
O213 C217 1.269 . S
O214 Zn211 1.986 . S
O214 C221 1.262 . S
O215 Zn210 2.049 . S
O215 C223 1.260 . S
O216 Zn211 1.996 . S
O216 C223 1.257 . S
C217 O212 1.254 . S
C217 O213 1.269 . S
C218 O219 1.249 . S
C218 O220 1.270 . S
O219 Zn211 1.943 . S
O219 C218 1.249 . S
O220 Zn210 2.067 . S
O220 C218 1.270 . S
C221 O214 1.262 . S
C221 O222 1.232 . S
O222 C221 1.232 . S
C223 O215 1.260 . S
C223 O216 1.257 . S
H224 C232 0.929 . S
H225 C234 0.930 . S
H226 C236 0.930 . S
H227 C239 0.929 . S
H228 C242 0.930 . S
H229 C244 0.960 . S
H230 C244 0.960 . S
H231 C244 0.960 . S
C232 H224 0.929 . S
C232 C233 1.377 . S
C232 C234 1.384 . S
C233 C232 1.377 . S
C233 C239 1.390 . S
C234 H225 0.930 . S
C234 C232 1.384 . S
C234 C235 1.372 . S
C235 C234 1.372 . S
C235 C236 1.400 . S
C235 C240 1.490 . S
C236 H226 0.930 . S
C236 C235 1.400 . S
C236 C239 1.386 . S
H237 C253 0.930 . S
H238 C254 0.931 . S
C239 H227 0.929 . S
C239 C233 1.390 . S
C239 C236 1.386 . S
C240 C235 1.490 . S
C240 C242 1.395 . S
C240 C243 1.403 . S
H241 C247 0.930 . S
C242 H228 0.930 . S
C242 C240 1.395 . S
C242 C245 1.403 . S
C243 C240 1.403 . S
C243 C244 1.524 . S
C243 C247 1.400 . S
C244 H229 0.960 . S
C244 H230 0.960 . S
C244 H231 0.960 . S
C244 C243 1.524 . S
C245 C242 1.403 . S
C245 C246 1.392 . S
C245 C249 1.495 . S
C246 C245 1.392 . S
C246 C247 1.385 . S
C246 C248 1.478 . S
C247 H241 0.930 . S
C247 C243 1.400 . S
C247 C246 1.385 . S
C248 C246 1.478 . S
C248 C250 1.381 . S
C248 C254 1.383 . S
C249 C245 1.495 . S
C249 H255 0.959 . S
C249 H256 0.961 . S
C249 H257 0.960 . S
C250 C248 1.381 . S
C250 C251 1.394 . S
C250 H258 0.930 . S
C251 C250 1.394 . S
C251 C252 1.383 . S
C251 H259 0.929 . S
C252 C251 1.383 . S
C252 C253 1.377 . S
C253 H237 0.930 . S
C253 C252 1.377 . S
C253 C254 1.379 . S
C254 H238 0.931 . S
C254 C248 1.383 . S
C254 C253 1.379 . S
H255 C249 0.959 . S
H256 C249 0.961 . S
H257 C249 0.960 . S
H258 C250 0.930 . S
H259 C251 0.929 . S
H260 C268 0.929 . S
H261 C270 0.930 . S
H262 C272 0.930 . S
H263 C275 0.929 . S
H264 C278 0.930 . S
H265 C280 0.960 . S
H266 C280 0.960 . S
H267 C280 0.960 . S
C268 H260 0.929 . S
C268 C269 1.377 . S
C268 C270 1.384 . S
C269 C268 1.377 . S
C269 C275 1.390 . S
C270 H261 0.930 . S
C270 C268 1.384 . S
C270 C271 1.372 . S
C271 C270 1.372 . S
C271 C272 1.400 . S
C271 C276 1.490 . S
C272 H262 0.930 . S
C272 C271 1.400 . S
C272 C275 1.386 . S
H273 C289 0.930 . S
H274 C290 0.931 . S
C275 H263 0.929 . S
C275 C269 1.390 . S
C275 C272 1.386 . S
C276 C271 1.490 . S
C276 C278 1.395 . S
C276 C279 1.403 . S
H277 C283 0.930 . S
C278 H264 0.930 . S
C278 C276 1.395 . S
C278 C281 1.403 . S
C279 C276 1.403 . S
C279 C280 1.524 . S
C279 C283 1.400 . S
C280 H265 0.960 . S
C280 H266 0.960 . S
C280 H267 0.960 . S
C280 C279 1.524 . S
C281 C278 1.403 . S
C281 C282 1.392 . S
C281 C285 1.495 . S
C282 C281 1.392 . S
C282 C283 1.385 . S
C282 C284 1.478 . S
C283 H277 0.930 . S
C283 C279 1.400 . S
C283 C282 1.385 . S
C284 C282 1.478 . S
C284 C286 1.381 . S
C284 C290 1.383 . S
C285 C281 1.495 . S
C285 H291 0.959 . S
C285 H292 0.961 . S
C285 H293 0.960 . S
C286 C284 1.381 . S
C286 C287 1.394 . S
C286 H294 0.930 . S
C287 C286 1.394 . S
C287 C288 1.383 . S
C287 H295 0.929 . S
C288 C287 1.383 . S
C288 C289 1.377 . S
C289 H273 0.930 . S
C289 C288 1.377 . S
C289 C290 1.379 . S
C290 H274 0.931 . S
C290 C284 1.383 . S
C290 C289 1.379 . S
H291 C285 0.959 . S
H292 C285 0.961 . S
H293 C285 0.960 . S
H294 C286 0.930 . S
H295 C287 0.929 . S
H296 C304 0.929 . S
H297 C306 0.930 . S
H298 C308 0.930 . S
H299 C311 0.929 . S
H300 C314 0.930 . S
H301 C316 0.960 . S
H302 C316 0.960 . S
H303 C316 0.960 . S
C304 H296 0.929 . S
C304 C305 1.377 . S
C304 C306 1.384 . S
C305 C304 1.377 . S
C305 C311 1.390 . S
C306 H297 0.930 . S
C306 C304 1.384 . S
C306 C307 1.372 . S
C307 C306 1.372 . S
C307 C308 1.400 . S
C307 C312 1.490 . S
C308 H298 0.930 . S
C308 C307 1.400 . S
C308 C311 1.386 . S
H309 C325 0.930 . S
H310 C326 0.931 . S
C311 H299 0.929 . S
C311 C305 1.390 . S
C311 C308 1.386 . S
C312 C307 1.490 . S
C312 C314 1.395 . S
C312 C315 1.403 . S
H313 C319 0.930 . S
C314 H300 0.930 . S
C314 C312 1.395 . S
C314 C317 1.403 . S
C315 C312 1.403 . S
C315 C316 1.524 . S
C315 C319 1.400 . S
C316 H301 0.960 . S
C316 H302 0.960 . S
C316 H303 0.960 . S
C316 C315 1.524 . S
C317 C314 1.403 . S
C317 C318 1.392 . S
C317 C321 1.495 . S
C318 C317 1.392 . S
C318 C319 1.385 . S
C318 C320 1.478 . S
C319 H313 0.930 . S
C319 C315 1.400 . S
C319 C318 1.385 . S
C320 C318 1.478 . S
C320 C322 1.381 . S
C320 C326 1.383 . S
C321 C317 1.495 . S
C321 H327 0.959 . S
C321 H328 0.961 . S
C321 H329 0.960 . S
C322 C320 1.381 . S
C322 C323 1.394 . S
C322 H330 0.930 . S
C323 C322 1.394 . S
C323 C324 1.383 . S
C323 H331 0.929 . S
C324 C323 1.383 . S
C324 C325 1.377 . S
C325 H309 0.930 . S
C325 C324 1.377 . S
C325 C326 1.379 . S
C326 H310 0.931 . S
C326 C320 1.383 . S
C326 C325 1.379 . S
H327 C321 0.959 . S
H328 C321 0.961 . S
H329 C321 0.960 . S
H330 C322 0.930 . S
H331 C323 0.929 . S
H332 C340 0.929 . S
H333 C342 0.930 . S
H334 C344 0.930 . S
H335 C347 0.929 . S
H336 C350 0.930 . S
H337 C352 0.960 . S
H338 C352 0.960 . S
H339 C352 0.960 . S
C340 H332 0.929 . S
C340 C341 1.377 . S
C340 C342 1.384 . S
C341 C340 1.377 . S
C341 C347 1.390 . S
C342 H333 0.930 . S
C342 C340 1.384 . S
C342 C343 1.372 . S
C343 C342 1.372 . S
C343 C344 1.400 . S
C343 C348 1.490 . S
C344 H334 0.930 . S
C344 C343 1.400 . S
C344 C347 1.386 . S
H345 C361 0.930 . S
H346 C362 0.931 . S
C347 H335 0.929 . S
C347 C341 1.390 . S
C347 C344 1.386 . S
C348 C343 1.490 . S
C348 C350 1.395 . S
C348 C351 1.403 . S
H349 C355 0.930 . S
C350 H336 0.930 . S
C350 C348 1.395 . S
C350 C353 1.403 . S
C351 C348 1.403 . S
C351 C352 1.524 . S
C351 C355 1.400 . S
C352 H337 0.960 . S
C352 H338 0.960 . S
C352 H339 0.960 . S
C352 C351 1.524 . S
C353 C350 1.403 . S
C353 C354 1.392 . S
C353 C357 1.495 . S
C354 C353 1.392 . S
C354 C355 1.385 . S
C354 C356 1.478 . S
C355 H349 0.930 . S
C355 C351 1.400 . S
C355 C354 1.385 . S
C356 C354 1.478 . S
C356 C358 1.381 . S
C356 C362 1.383 . S
C357 C353 1.495 . S
C357 H363 0.959 . S
C357 H364 0.961 . S
C357 H365 0.960 . S
C358 C356 1.381 . S
C358 C359 1.394 . S
C358 H366 0.930 . S
C359 C358 1.394 . S
C359 C360 1.383 . S
C359 H367 0.929 . S
C360 C359 1.383 . S
C360 C361 1.377 . S
C361 H345 0.930 . S
C361 C360 1.377 . S
C361 C362 1.379 . S
C362 H346 0.931 . S
C362 C356 1.383 . S
C362 C361 1.379 . S
H363 C357 0.959 . S
H364 C357 0.961 . S
H365 C357 0.960 . S
H366 C358 0.930 . S
H367 C359 0.929 . S
H368 C376 0.929 . S
H369 C378 0.930 . S
H370 C380 0.930 . S
H371 C383 0.929 . S
H372 C386 0.930 . S
H373 C388 0.960 . S
H374 C388 0.960 . S
H375 C388 0.960 . S
C376 H368 0.929 . S
C376 C377 1.377 . S
C376 C378 1.384 . S
C377 C376 1.377 . S
C377 C383 1.390 . S
C378 H369 0.930 . S
C378 C376 1.384 . S
C378 C379 1.372 . S
C379 C378 1.372 . S
C379 C380 1.400 . S
C379 C384 1.490 . S
C380 H370 0.930 . S
C380 C379 1.400 . S
C380 C383 1.386 . S
H381 C397 0.930 . S
H382 C398 0.931 . S
C383 H371 0.929 . S
C383 C377 1.390 . S
C383 C380 1.386 . S
C384 C379 1.490 . S
C384 C386 1.395 . S
C384 C387 1.403 . S
H385 C391 0.930 . S
C386 H372 0.930 . S
C386 C384 1.395 . S
C386 C389 1.403 . S
C387 C384 1.403 . S
C387 C388 1.524 . S
C387 C391 1.400 . S
C388 H373 0.960 . S
C388 H374 0.960 . S
C388 H375 0.960 . S
C388 C387 1.524 . S
C389 C386 1.403 . S
C389 C390 1.392 . S
C389 C393 1.495 . S
C390 C389 1.392 . S
C390 C391 1.385 . S
C390 C392 1.478 . S
C391 H385 0.930 . S
C391 C387 1.400 . S
C391 C390 1.385 . S
C392 C390 1.478 . S
C392 C394 1.381 . S
C392 C398 1.383 . S
C393 C389 1.495 . S
C393 H399 0.959 . S
C393 H400 0.961 . S
C393 H401 0.960 . S
C394 C392 1.381 . S
C394 C395 1.394 . S
C394 H402 0.930 . S
C395 C394 1.394 . S
C395 C396 1.383 . S
C395 H403 0.929 . S
C396 C395 1.383 . S
C396 C397 1.377 . S
C397 H381 0.930 . S
C397 C396 1.377 . S
C397 C398 1.379 . S
C398 H382 0.931 . S
C398 C392 1.383 . S
C398 C397 1.379 . S
H399 C393 0.959 . S
H400 C393 0.961 . S
H401 C393 0.960 . S
H402 C394 0.930 . S
H403 C395 0.929 . S
H404 C412 0.929 . S
H405 C414 0.930 . S
H406 C416 0.930 . S
H407 C419 0.929 . S
H408 C422 0.930 . S
H409 C424 0.960 . S
H410 C424 0.960 . S
H411 C424 0.960 . S
C412 H404 0.929 . S
C412 C413 1.377 . S
C412 C414 1.384 . S
C413 C412 1.377 . S
C413 C419 1.390 . S
C414 H405 0.930 . S
C414 C412 1.384 . S
C414 C415 1.372 . S
C415 C414 1.372 . S
C415 C416 1.400 . S
C415 C420 1.490 . S
C416 H406 0.930 . S
C416 C415 1.400 . S
C416 C419 1.386 . S
H417 C433 0.930 . S
H418 C434 0.931 . S
C419 H407 0.929 . S
C419 C413 1.390 . S
C419 C416 1.386 . S
C420 C415 1.490 . S
C420 C422 1.395 . S
C420 C423 1.403 . S
H421 C427 0.930 . S
C422 H408 0.930 . S
C422 C420 1.395 . S
C422 C425 1.403 . S
C423 C420 1.403 . S
C423 C424 1.524 . S
C423 C427 1.400 . S
C424 H409 0.960 . S
C424 H410 0.960 . S
C424 H411 0.960 . S
C424 C423 1.524 . S
C425 C422 1.403 . S
C425 C426 1.392 . S
C425 C429 1.495 . S
C426 C425 1.392 . S
C426 C427 1.385 . S
C426 C428 1.478 . S
C427 H421 0.930 . S
C427 C423 1.400 . S
C427 C426 1.385 . S
C428 C426 1.478 . S
C428 C430 1.381 . S
C428 C434 1.383 . S
C429 C425 1.495 . S
C429 H435 0.959 . S
C429 H436 0.961 . S
C429 H437 0.960 . S
C430 C428 1.381 . S
C430 C431 1.394 . S
C430 H438 0.930 . S
C431 C430 1.394 . S
C431 C432 1.383 . S
C431 H439 0.929 . S
C432 C431 1.383 . S
C432 C433 1.377 . S
C433 H417 0.930 . S
C433 C432 1.377 . S
C433 C434 1.379 . S
C434 H418 0.931 . S
C434 C428 1.383 . S
C434 C433 1.379 . S
H435 C429 0.959 . S
H436 C429 0.961 . S
H437 C429 0.960 . S
H438 C430 0.930 . S
H439 C431 0.929 . S
H440 C448 0.929 . S
H441 C450 0.930 . S
H442 C452 0.930 . S
H443 C455 0.929 . S
H444 C458 0.930 . S
H445 C460 0.960 . S
H446 C460 0.960 . S
H447 C460 0.960 . S
C448 H440 0.929 . S
C448 C449 1.377 . S
C448 C450 1.384 . S
C449 C448 1.377 . S
C449 C455 1.390 . S
C450 H441 0.930 . S
C450 C448 1.384 . S
C450 C451 1.372 . S
C451 C450 1.372 . S
C451 C452 1.400 . S
C451 C456 1.490 . S
C452 H442 0.930 . S
C452 C451 1.400 . S
C452 C455 1.386 . S
H453 C469 0.930 . S
H454 C470 0.931 . S
C455 H443 0.929 . S
C455 C449 1.390 . S
C455 C452 1.386 . S
C456 C451 1.490 . S
C456 C458 1.395 . S
C456 C459 1.403 . S
H457 C463 0.930 . S
C458 H444 0.930 . S
C458 C456 1.395 . S
C458 C461 1.403 . S
C459 C456 1.403 . S
C459 C460 1.524 . S
C459 C463 1.400 . S
C460 H445 0.960 . S
C460 H446 0.960 . S
C460 H447 0.960 . S
C460 C459 1.524 . S
C461 C458 1.403 . S
C461 C462 1.392 . S
C461 C465 1.495 . S
C462 C461 1.392 . S
C462 C463 1.385 . S
C462 C464 1.478 . S
C463 H457 0.930 . S
C463 C459 1.400 . S
C463 C462 1.385 . S
C464 C462 1.478 . S
C464 C466 1.381 . S
C464 C470 1.383 . S
C465 C461 1.495 . S
C465 H471 0.959 . S
C465 H472 0.961 . S
C465 H473 0.960 . S
C466 C464 1.381 . S
C466 C467 1.394 . S
C466 H474 0.930 . S
C467 C466 1.394 . S
C467 C468 1.383 . S
C467 H475 0.929 . S
C468 C467 1.383 . S
C468 C469 1.377 . S
C469 H453 0.930 . S
C469 C468 1.377 . S
C469 C470 1.379 . S
C470 H454 0.931 . S
C470 C464 1.383 . S
C470 C469 1.379 . S
H471 C465 0.959 . S
H472 C465 0.961 . S
H473 C465 0.960 . S
H474 C466 0.930 . S
H475 C467 0.929 . S
H476 C484 0.929 . S
H477 C486 0.930 . S
H478 C488 0.930 . S
H479 C491 0.929 . S
H480 C494 0.930 . S
H481 C496 0.960 . S
H482 C496 0.960 . S
H483 C496 0.960 . S
C484 H476 0.929 . S
C484 C485 1.377 . S
C484 C486 1.384 . S
C485 C484 1.377 . S
C485 C491 1.390 . S
C486 H477 0.930 . S
C486 C484 1.384 . S
C486 C487 1.372 . S
C487 C486 1.372 . S
C487 C488 1.400 . S
C487 C492 1.490 . S
C488 H478 0.930 . S
C488 C487 1.400 . S
C488 C491 1.386 . S
H489 C505 0.930 . S
H490 C506 0.931 . S
C491 H479 0.929 . S
C491 C485 1.390 . S
C491 C488 1.386 . S
C492 C487 1.490 . S
C492 C494 1.395 . S
C492 C495 1.403 . S
H493 C499 0.930 . S
C494 H480 0.930 . S
C494 C492 1.395 . S
C494 C497 1.403 . S
C495 C492 1.403 . S
C495 C496 1.524 . S
C495 C499 1.400 . S
C496 H481 0.960 . S
C496 H482 0.960 . S
C496 H483 0.960 . S
C496 C495 1.524 . S
C497 C494 1.403 . S
C497 C498 1.392 . S
C497 C501 1.495 . S
C498 C497 1.392 . S
C498 C499 1.385 . S
C498 C500 1.478 . S
C499 H493 0.930 . S
C499 C495 1.400 . S
C499 C498 1.385 . S
C500 C498 1.478 . S
C500 C502 1.381 . S
C500 C506 1.383 . S
C501 C497 1.495 . S
C501 H507 0.959 . S
C501 H508 0.961 . S
C501 H509 0.960 . S
C502 C500 1.381 . S
C502 C503 1.394 . S
C502 H510 0.930 . S
C503 C502 1.394 . S
C503 C504 1.383 . S
C503 H511 0.929 . S
C504 C503 1.383 . S
C504 C505 1.377 . S
C505 H489 0.930 . S
C505 C504 1.377 . S
C505 C506 1.379 . S
C506 H490 0.931 . S
C506 C500 1.383 . S
C506 C505 1.379 . S
H507 C501 0.959 . S
H508 C501 0.961 . S
H509 C501 0.960 . S
H510 C502 0.930 . S
H511 C503 0.929 . S
H512 C520 0.929 . S
H513 C522 0.930 . S
H514 C524 0.930 . S
H515 C527 0.929 . S
H516 C530 0.926 1_556 S
H517 C532 0.960 1_554 S
H518 C532 0.960 . S
H519 C532 0.960 . S
C520 H512 0.929 . S
C520 C521 1.377 . S
C520 C522 1.384 . S
C521 C520 1.377 . S
C521 C527 1.390 . S
C522 H513 0.930 . S
C522 C520 1.384 . S
C522 C523 1.372 . S
C523 C522 1.372 . S
C523 C524 1.400 . S
C523 C528 1.490 . S
C524 H514 0.930 . S
C524 C523 1.400 . S
C524 C527 1.386 . S
H525 C541 0.930 . S
H526 C542 0.931 . S
C527 H515 0.929 . S
C527 C521 1.390 . S
C527 C524 1.386 . S
C528 C523 1.490 . S
C528 C530 1.392 1_556 S
C528 C531 1.403 1_556 S
H529 C535 0.930 . S
C530 H516 0.926 1_554 S
C530 C528 1.392 1_554 S
C530 C533 1.409 . S
C531 C528 1.403 1_554 S
C531 C532 1.524 1_554 S
C531 C535 1.400 . S
C532 H517 0.960 1_556 S
C532 H518 0.960 . S
C532 H519 0.960 . S
C532 C531 1.524 1_556 S
C533 C530 1.409 . S
C533 C534 1.392 . S
C533 C537 1.495 . S
C534 C533 1.392 . S
C534 C535 1.385 . S
C534 C536 1.478 . S
C535 H529 0.930 . S
C535 C531 1.400 . S
C535 C534 1.385 . S
C536 C534 1.478 . S
C536 C538 1.381 . S
C536 C542 1.383 . S
C537 C533 1.495 . S
C537 H543 0.959 . S
C537 H544 0.961 . S
C537 H545 0.960 . S
C538 C536 1.381 . S
C538 C539 1.394 . S
C538 H546 0.930 . S
C539 C538 1.394 . S
C539 C540 1.383 . S
C539 H547 0.929 . S
C540 C539 1.383 . S
C540 C541 1.377 . S
C541 H525 0.930 . S
C541 C540 1.377 . S
C541 C542 1.379 . S
C542 H526 0.931 . S
C542 C536 1.383 . S
C542 C541 1.379 . S
H543 C537 0.959 . S
H544 C537 0.961 . S
H545 C537 0.960 . S
H546 C538 0.930 . S
H547 C539 0.929 . S
H548 C556 0.929 . S
H549 C558 0.930 . S
H550 C560 0.930 . S
H551 C563 0.929 . S
H552 C566 0.930 . S
H553 C568 0.960 . S
H554 C568 0.960 . S
H555 C568 0.960 . S
C556 H548 0.929 . S
C556 C557 1.377 . S
C556 C558 1.384 . S
C557 C556 1.377 . S
C557 C563 1.390 . S
C558 H549 0.930 . S
C558 C556 1.384 . S
C558 C559 1.372 . S
C559 C558 1.372 . S
C559 C560 1.400 . S
C559 C564 1.490 . S
C560 H550 0.930 . S
C560 C559 1.400 . S
C560 C563 1.386 . S
H561 C577 0.930 . S
H562 C578 0.931 . S
C563 H551 0.929 . S
C563 C557 1.390 . S
C563 C560 1.386 . S
C564 C559 1.490 . S
C564 C566 1.395 . S
C564 C567 1.403 . S
H565 C571 0.933 1_554 S
C566 H552 0.930 . S
C566 C564 1.395 . S
C566 C569 1.403 . S
C567 C564 1.403 . S
C567 C568 1.524 . S
C567 C571 1.396 . S
C568 H553 0.960 . S
C568 H554 0.960 . S
C568 H555 0.960 . S
C568 C567 1.524 . S
C569 C566 1.403 . S
C569 C570 1.392 1_556 S
C569 C573 1.495 1_556 S
C570 C569 1.392 1_554 S
C570 C571 1.387 1_554 S
C570 C572 1.478 . S
C571 H565 0.933 1_556 S
C571 C567 1.396 . S
C571 C570 1.387 1_556 S
C572 C570 1.478 . S
C572 C574 1.381 . S
C572 C578 1.383 . S
C573 C569 1.495 1_554 S
C573 H579 0.959 1_554 S
C573 H580 0.961 . S
C573 H581 0.960 . S
C574 C572 1.381 . S
C574 C575 1.394 . S
C574 H582 0.930 . S
C575 C574 1.394 . S
C575 C576 1.383 . S
C575 H583 0.929 . S
C576 C575 1.383 . S
C576 C577 1.377 . S
C577 H561 0.930 . S
C577 C576 1.377 . S
C577 C578 1.379 . S
C578 H562 0.931 . S
C578 C572 1.383 . S
C578 C577 1.379 . S
H579 C573 0.959 1_556 S
H580 C573 0.961 . S
H581 C573 0.960 . S
H582 C574 0.930 . S
H583 C575 0.929 . S
H584 C592 0.929 . S
H585 C594 0.930 . S
H586 C596 0.930 . S
H587 C599 0.929 . S
H588 C602 0.930 1_556 S
H589 C604 0.960 1_554 S
H590 C604 0.960 . S
H591 C604 0.960 . S
C592 H584 0.929 . S
C592 C593 1.377 . S
C592 C594 1.384 . S
C593 C592 1.377 . S
C593 C599 1.390 . S
C594 H585 0.930 . S
C594 C592 1.384 . S
C594 C595 1.372 . S
C595 C594 1.372 . S
C595 C596 1.400 . S
C595 C600 1.490 . S
C596 H586 0.930 . S
C596 C595 1.400 . S
C596 C599 1.386 . S
H597 C613 0.930 . S
H598 C614 0.931 . S
C599 H587 0.929 . S
C599 C593 1.390 . S
C599 C596 1.386 . S
C600 C595 1.490 . S
C600 C602 1.395 1_556 S
C600 C603 1.403 1_556 S
H601 C607 0.930 . S
C602 H588 0.930 1_554 S
C602 C600 1.395 1_554 S
C602 C605 1.403 . S
C603 C600 1.403 1_554 S
C603 C604 1.524 1_554 S
C603 C607 1.400 . S
C604 H589 0.960 1_556 S
C604 H590 0.960 . S
C604 H591 0.960 . S
C604 C603 1.524 1_556 S
C605 C602 1.403 . S
C605 C606 1.392 . S
C605 C609 1.495 . S
C606 C605 1.392 . S
C606 C607 1.385 . S
C606 C608 1.478 . S
C607 H601 0.930 . S
C607 C603 1.400 . S
C607 C606 1.385 . S
C608 C606 1.478 . S
C608 C610 1.381 . S
C608 C614 1.383 . S
C609 C605 1.495 . S
C609 H615 0.959 . S
C609 H616 0.961 . S
C609 H617 0.960 . S
C610 C608 1.381 . S
C610 C611 1.394 . S
C610 H618 0.930 . S
C611 C610 1.394 . S
C611 C612 1.383 . S
C611 H619 0.929 . S
C612 C611 1.383 . S
C612 C613 1.377 . S
C613 H597 0.930 . S
C613 C612 1.377 . S
C613 C614 1.379 . S
C614 H598 0.931 . S
C614 C608 1.383 . S
C614 C613 1.379 . S
H615 C609 0.959 . S
H616 C609 0.961 . S
H617 C609 0.960 . S
H618 C610 0.930 . S
H619 C611 0.929 . S
H620 C628 0.929 . S
H621 C630 0.930 . S
H622 C632 0.930 . S
H623 C635 0.929 . S
H624 C638 0.939 . S
H625 C640 0.960 1_556 S
H626 C640 0.960 . S
H627 C640 0.960 . S
C628 H620 0.929 . S
C628 C629 1.377 . S
C628 C630 1.384 . S
C629 C628 1.377 . S
C629 C635 1.390 . S
C630 H621 0.930 . S
C630 C628 1.384 . S
C630 C631 1.372 . S
C631 C630 1.372 . S
C631 C632 1.400 . S
C631 C636 1.490 . S
C632 H622 0.930 . S
C632 C631 1.400 . S
C632 C635 1.386 . S
H633 C649 0.930 . S
H634 C650 0.931 . S
C635 H623 0.929 . S
C635 C629 1.390 . S
C635 C632 1.386 . S
C636 C631 1.490 . S
C636 C638 1.400 . S
C636 C639 1.403 1_554 S
H637 C643 0.930 . S
C638 H624 0.939 . S
C638 C636 1.400 . S
C638 C641 1.390 1_554 S
C639 C636 1.403 1_556 S
C639 C640 1.524 1_556 S
C639 C643 1.400 . S
C640 H625 0.960 1_554 S
C640 H626 0.960 . S
C640 H627 0.960 . S
C640 C639 1.524 1_554 S
C641 C638 1.390 1_556 S
C641 C642 1.392 . S
C641 C645 1.495 . S
C642 C641 1.392 . S
C642 C643 1.385 . S
C642 C644 1.478 . S
C643 H637 0.930 . S
C643 C639 1.400 . S
C643 C642 1.385 . S
C644 C642 1.478 . S
C644 C646 1.381 . S
C644 C650 1.383 . S
C645 C641 1.495 . S
C645 H651 0.959 . S
C645 H652 0.961 . S
C645 H653 0.960 . S
C646 C644 1.381 . S
C646 C647 1.394 . S
C646 H654 0.930 . S
C647 C646 1.394 . S
C647 C648 1.383 . S
C647 H655 0.929 . S
C648 C647 1.383 . S
C648 C649 1.377 . S
C649 H633 0.930 . S
C649 C648 1.377 . S
C649 C650 1.379 . S
C650 H634 0.931 . S
C650 C644 1.383 . S
C650 C649 1.379 . S
H651 C645 0.959 . S
H652 C645 0.961 . S
H653 C645 0.960 . S
H654 C646 0.930 . S
H655 C647 0.929 . S
H656 C664 0.929 . S
H657 C666 0.930 . S
H658 C668 0.930 . S
H659 C671 0.929 . S
H660 C674 0.930 . S
H661 C676 0.960 . S
H662 C676 0.960 . S
H663 C676 0.960 . S
C664 H656 0.929 . S
C664 C665 1.377 . S
C664 C666 1.384 . S
C665 C664 1.377 . S
C665 C671 1.390 . S
C666 H657 0.930 . S
C666 C664 1.384 . S
C666 C667 1.372 . S
C667 C666 1.372 . S
C667 C668 1.400 . S
C667 C672 1.490 . S
C668 H658 0.930 . S
C668 C667 1.400 . S
C668 C671 1.386 . S
H669 C685 0.930 . S
H670 C686 0.931 . S
C671 H659 0.929 . S
C671 C665 1.390 . S
C671 C668 1.386 . S
C672 C667 1.490 . S
C672 C674 1.395 . S
C672 C675 1.403 . S
H673 C679 0.930 . S
C674 H660 0.930 . S
C674 C672 1.395 . S
C674 C677 1.403 1_455 S
C675 C672 1.403 . S
C675 C676 1.524 . S
C675 C679 1.400 1_455 S
C676 H661 0.960 . S
C676 H662 0.960 . S
C676 H663 0.960 . S
C676 C675 1.524 . S
C677 C674 1.403 1_655 S
C677 C678 1.392 . S
C677 C681 1.495 . S
C678 C677 1.392 . S
C678 C679 1.385 . S
C678 C680 1.478 . S
C679 H673 0.930 . S
C679 C675 1.400 1_655 S
C679 C678 1.385 . S
C680 C678 1.478 . S
C680 C682 1.381 . S
C680 C686 1.383 . S
C681 C677 1.495 . S
C681 H687 0.959 . S
C681 H688 0.961 . S
C681 H689 0.960 . S
C682 C680 1.381 . S
C682 C683 1.394 . S
C682 H690 0.930 . S
C683 C682 1.394 . S
C683 C684 1.383 . S
C683 H691 0.929 . S
C684 C683 1.383 . S
C684 C685 1.377 . S
C685 H669 0.930 . S
C685 C684 1.377 . S
C685 C686 1.379 . S
C686 H670 0.931 . S
C686 C680 1.383 . S
C686 C685 1.379 . S
H687 C681 0.959 . S
H688 C681 0.961 . S
H689 C681 0.960 . S
H690 C682 0.930 . S
H691 C683 0.929 . S
H692 C700 0.929 . S
H693 C702 0.930 . S
H694 C704 0.930 . S
H695 C707 0.929 . S
H696 C710 0.930 1_565 S
H697 C712 0.960 1_545 S
H698 C712 0.960 . S
H699 C712 0.960 . S
C700 H692 0.929 . S
C700 C701 1.377 . S
C700 C702 1.384 . S
C701 C700 1.377 . S
C701 C707 1.390 . S
C702 H693 0.930 . S
C702 C700 1.384 . S
C702 C703 1.372 . S
C703 C702 1.372 . S
C703 C704 1.400 . S
C703 C708 1.490 . S
C704 H694 0.930 . S
C704 C703 1.400 . S
C704 C707 1.386 . S
H705 C721 0.930 . S
H706 C722 0.931 . S
C707 H695 0.929 . S
C707 C701 1.390 . S
C707 C704 1.386 . S
C708 C703 1.490 . S
C708 C710 1.395 1_565 S
C708 C711 1.403 1_565 S
H709 C715 0.930 . S
C710 H696 0.930 1_545 S
C710 C708 1.395 1_545 S
C710 C713 1.403 . S
C711 C708 1.403 1_545 S
C711 C712 1.524 1_545 S
C711 C715 1.400 . S
C712 H697 0.960 1_565 S
C712 H698 0.960 . S
C712 H699 0.960 . S
C712 C711 1.524 1_565 S
C713 C710 1.403 . S
C713 C714 1.392 . S
C713 C717 1.495 . S
C714 C713 1.392 . S
C714 C715 1.385 . S
C714 C716 1.478 . S
C715 H709 0.930 . S
C715 C711 1.400 . S
C715 C714 1.385 . S
C716 C714 1.478 . S
C716 C718 1.381 . S
C716 C722 1.383 . S
C717 C713 1.495 . S
C717 H723 0.959 . S
C717 H724 0.961 . S
C717 H725 0.960 . S
C718 C716 1.381 . S
C718 C719 1.394 . S
C718 H726 0.930 . S
C719 C718 1.394 . S
C719 C720 1.383 . S
C719 H727 0.929 . S
C720 C719 1.383 . S
C720 C721 1.377 . S
C721 H705 0.930 . S
C721 C720 1.377 . S
C721 C722 1.379 . S
C722 H706 0.931 . S
C722 C716 1.383 . S
C722 C721 1.379 . S
H723 C717 0.959 . S
H724 C717 0.961 . S
H725 C717 0.960 . S
H726 C718 0.930 . S
H727 C719 0.929 . S
H728 C736 0.929 . S
H729 C738 0.930 . S
H730 C740 0.930 . S
H731 C743 0.929 . S
H732 C746 0.930 . S
H733 C748 0.960 . S
H734 C748 0.960 . S
H735 C748 0.960 . S
C736 H728 0.929 . S
C736 C737 1.377 . S
C736 C738 1.384 . S
C737 C736 1.377 . S
C737 C743 1.390 . S
C738 H729 0.930 . S
C738 C736 1.384 . S
C738 C739 1.372 . S
C739 C738 1.372 . S
C739 C740 1.400 . S
C739 C744 1.490 . S
C740 H730 0.930 . S
C740 C739 1.400 . S
C740 C743 1.386 . S
H741 C757 0.930 . S
H742 C758 0.931 . S
C743 H731 0.929 . S
C743 C737 1.390 . S
C743 C740 1.386 . S
C744 C739 1.490 . S
C744 C746 1.395 . S
C744 C747 1.403 . S
H745 C751 0.930 . S
C746 H732 0.930 . S
C746 C744 1.395 . S
C746 C749 1.403 1_655 S
C747 C744 1.403 . S
C747 C748 1.524 . S
C747 C751 1.400 1_655 S
C748 H733 0.960 . S
C748 H734 0.960 . S
C748 H735 0.960 . S
C748 C747 1.524 . S
C749 C746 1.403 1_455 S
C749 C750 1.392 . S
C749 C753 1.495 . S
C750 C749 1.392 . S
C750 C751 1.385 . S
C750 C752 1.478 . S
C751 H745 0.930 . S
C751 C747 1.400 1_455 S
C751 C750 1.385 . S
C752 C750 1.478 . S
C752 C754 1.381 . S
C752 C758 1.383 . S
C753 C749 1.495 . S
C753 H759 0.959 . S
C753 H760 0.961 . S
C753 H761 0.960 . S
C754 C752 1.381 . S
C754 C755 1.394 . S
C754 H762 0.930 . S
C755 C754 1.394 . S
C755 C756 1.383 . S
C755 H763 0.929 . S
C756 C755 1.383 . S
C756 C757 1.377 . S
C757 H741 0.930 . S
C757 C756 1.377 . S
C757 C758 1.379 . S
C758 H742 0.931 . S
C758 C752 1.383 . S
C758 C757 1.379 . S
H759 C753 0.959 . S
H760 C753 0.961 . S
H761 C753 0.960 . S
H762 C754 0.930 . S
H763 C755 0.929 . S
H764 C772 0.929 . S
H765 C774 0.930 . S
H766 C776 0.930 . S
H767 C779 0.929 . S
H768 C782 0.928 1_545 S
H769 C784 0.960 1_565 S
H770 C784 0.960 . S
H771 C784 0.960 . S
C772 H764 0.929 . S
C772 C773 1.377 . S
C772 C774 1.384 . S
C773 C772 1.377 . S
C773 C779 1.390 . S
C774 H765 0.930 . S
C774 C772 1.384 . S
C774 C775 1.372 . S
C775 C774 1.372 . S
C775 C776 1.400 . S
C775 C780 1.490 . S
C776 H766 0.930 . S
C776 C775 1.400 . S
C776 C779 1.386 . S
H777 C793 0.930 . S
H778 C794 0.931 . S
C779 H767 0.929 . S
C779 C773 1.390 . S
C779 C776 1.386 . S
C780 C775 1.490 . S
C780 C782 1.393 1_545 S
C780 C783 1.403 1_545 S
H781 C787 0.930 . S
C782 H768 0.928 1_565 S
C782 C780 1.393 1_565 S
C782 C785 1.406 . S
C783 C780 1.403 1_565 S
C783 C784 1.524 1_565 S
C783 C787 1.400 . S
C784 H769 0.960 1_545 S
C784 H770 0.960 . S
C784 H771 0.960 . S
C784 C783 1.524 1_545 S
C785 C782 1.406 . S
C785 C786 1.392 . S
C785 C789 1.495 . S
C786 C785 1.392 . S
C786 C787 1.385 . S
C786 C788 1.478 . S
C787 H781 0.930 . S
C787 C783 1.400 . S
C787 C786 1.385 . S
C788 C786 1.478 . S
C788 C790 1.381 . S
C788 C794 1.383 . S
C789 C785 1.495 . S
C789 H795 0.959 . S
C789 H796 0.961 . S
C789 H797 0.960 . S
C790 C788 1.381 . S
C790 C791 1.394 . S
C790 H798 0.930 . S
C791 C790 1.394 . S
C791 C792 1.383 . S
C791 H799 0.929 . S
C792 C791 1.383 . S
C792 C793 1.377 . S
C793 H777 0.930 . S
C793 C792 1.377 . S
C793 C794 1.379 . S
C794 H778 0.931 . S
C794 C788 1.383 . S
C794 C793 1.379 . S
H795 C789 0.959 . S
H796 C789 0.961 . S
H797 C789 0.960 . S
H798 C790 0.930 . S
H799 C791 0.929 . S
H800 C808 0.929 . S
H801 C810 0.930 . S
H802 C812 0.930 . S
H803 C815 0.929 . S
H804 C818 0.930 . S
H805 C820 0.960 . S
H806 C820 0.960 . S
H807 C820 0.960 . S
C808 H800 0.929 . S
C808 C809 1.377 . S
C808 C810 1.384 . S
C809 C808 1.377 . S
C809 C815 1.390 . S
C810 H801 0.930 . S
C810 C808 1.384 . S
C810 C811 1.372 . S
C811 C810 1.372 . S
C811 C812 1.400 . S
C811 C816 1.490 . S
C812 H802 0.930 . S
C812 C811 1.400 . S
C812 C815 1.386 . S
H813 C829 0.930 . S
H814 C830 0.931 . S
C815 H803 0.929 . S
C815 C809 1.390 . S
C815 C812 1.386 . S
C816 C811 1.490 . S
C816 C818 1.395 . S
C816 C819 1.403 . S
H817 C823 0.930 . S
C818 H804 0.930 . S
C818 C816 1.395 . S
C818 C821 1.403 1_655 S
C819 C816 1.403 . S
C819 C820 1.524 . S
C819 C823 1.400 1_655 S
C820 H805 0.960 . S
C820 H806 0.960 . S
C820 H807 0.960 . S
C820 C819 1.524 . S
C821 C818 1.403 1_455 S
C821 C822 1.392 . S
C821 C825 1.495 . S
C822 C821 1.392 . S
C822 C823 1.385 . S
C822 C824 1.478 . S
C823 H817 0.930 . S
C823 C819 1.400 1_455 S
C823 C822 1.385 . S
C824 C822 1.478 . S
C824 C826 1.381 . S
C824 C830 1.383 . S
C825 C821 1.495 . S
C825 H831 0.959 . S
C825 H832 0.961 . S
C825 H833 0.960 . S
C826 C824 1.381 . S
C826 C827 1.394 . S
C826 H834 0.930 . S
C827 C826 1.394 . S
C827 C828 1.383 . S
C827 H835 0.929 . S
C828 C827 1.383 . S
C828 C829 1.377 . S
C829 H813 0.930 . S
C829 C828 1.377 . S
C829 C830 1.379 . S
C830 H814 0.931 . S
C830 C824 1.383 . S
C830 C829 1.379 . S
H831 C825 0.959 . S
H832 C825 0.961 . S
H833 C825 0.960 . S
H834 C826 0.930 . S
H835 C827 0.929 . S
H836 C844 0.929 . S
H837 C846 0.930 . S
H838 C848 0.930 . S
H839 C851 0.929 . S
H840 C854 0.934 . S
H841 C856 0.960 1_545 S
H842 C856 0.960 . S
H843 C856 0.960 . S
C844 H836 0.929 . S
C844 C845 1.377 . S
C844 C846 1.384 . S
C845 C844 1.377 . S
C845 C851 1.390 . S
C846 H837 0.930 . S
C846 C844 1.384 . S
C846 C847 1.372 . S
C847 C846 1.372 . S
C847 C848 1.400 . S
C847 C852 1.490 . S
C848 H838 0.930 . S
C848 C847 1.400 . S
C848 C851 1.386 . S
H849 C865 0.930 . S
H850 C866 0.931 . S
C851 H839 0.929 . S
C851 C845 1.390 . S
C851 C848 1.386 . S
C852 C847 1.490 . S
C852 C854 1.397 . S
C852 C855 1.403 1_565 S
H853 C859 0.930 . S
C854 H840 0.934 . S
C854 C852 1.397 . S
C854 C857 1.397 1_565 S
C855 C852 1.403 1_545 S
C855 C856 1.524 1_545 S
C855 C859 1.400 . S
C856 H841 0.960 1_565 S
C856 H842 0.960 . S
C856 H843 0.960 . S
C856 C855 1.524 1_565 S
C857 C854 1.397 1_545 S
C857 C858 1.392 . S
C857 C861 1.495 . S
C858 C857 1.392 . S
C858 C859 1.385 . S
C858 C860 1.478 . S
C859 H853 0.930 . S
C859 C855 1.400 . S
C859 C858 1.385 . S
C860 C858 1.478 . S
C860 C862 1.381 . S
C860 C866 1.383 . S
C861 C857 1.495 . S
C861 H867 0.959 . S
C861 H868 0.961 . S
C861 H869 0.960 . S
C862 C860 1.381 . S
C862 C863 1.394 . S
C862 H870 0.930 . S
C863 C862 1.394 . S
C863 C864 1.383 . S
C863 H871 0.929 . S
C864 C863 1.383 . S
C864 C865 1.377 . S
C865 H849 0.930 . S
C865 C864 1.377 . S
C865 C866 1.379 . S
C866 H850 0.931 . S
C866 C860 1.383 . S
C866 C865 1.379 . S
H867 C861 0.959 . S
H868 C861 0.961 . S
H869 C861 0.960 . S
H870 C862 0.930 . S
H871 C863 0.929 . S
H872 C880 0.929 . S
H873 C882 0.930 . S
H874 C884 0.930 . S
H875 C887 0.929 . S
H876 C890 0.930 . S
H877 C892 0.960 . S
H878 C892 0.960 . S
H879 C892 0.960 . S
C880 H872 0.929 . S
C880 C881 1.377 . S
C880 C882 1.384 . S
C881 C880 1.377 . S
C881 C887 1.390 . S
C882 H873 0.930 . S
C882 C880 1.384 . S
C882 C883 1.372 . S
C883 C882 1.372 . S
C883 C884 1.400 . S
C883 C888 1.490 . S
C884 H874 0.930 . S
C884 C883 1.400 . S
C884 C887 1.386 . S
H885 C901 0.930 . S
H886 C902 0.931 . S
C887 H875 0.929 . S
C887 C881 1.390 . S
C887 C884 1.386 . S
C888 C883 1.490 . S
C888 C890 1.395 . S
C888 C891 1.403 . S
H889 C895 0.930 . S
C890 H876 0.930 . S
C890 C888 1.395 . S
C890 C893 1.403 1_455 S
C891 C888 1.403 . S
C891 C892 1.524 . S
C891 C895 1.400 1_455 S
C892 H877 0.960 . S
C892 H878 0.960 . S
C892 H879 0.960 . S
C892 C891 1.524 . S
C893 C890 1.403 1_655 S
C893 C894 1.392 . S
C893 C897 1.495 . S
C894 C893 1.392 . S
C894 C895 1.385 . S
C894 C896 1.478 . S
C895 H889 0.930 . S
C895 C891 1.400 1_655 S
C895 C894 1.385 . S
C896 C894 1.478 . S
C896 C898 1.381 . S
C896 C902 1.383 . S
C897 C893 1.495 . S
C897 H903 0.959 . S
C897 H904 0.961 . S
C897 H905 0.960 . S
C898 C896 1.381 . S
C898 C899 1.394 . S
C898 H906 0.930 . S
C899 C898 1.394 . S
C899 C900 1.383 . S
C899 H907 0.929 . S
C900 C899 1.383 . S
C900 C901 1.377 . S
C901 H885 0.930 . S
C901 C900 1.377 . S
C901 C902 1.379 . S
C902 H886 0.931 . S
C902 C896 1.383 . S
C902 C901 1.379 . S
H903 C897 0.959 . S
H904 C897 0.961 . S
H905 C897 0.960 . S
H906 C898 0.930 . S
H907 C899 0.929 . S
H908 C916 0.929 . S
H909 C918 0.930 . S
H910 C920 0.930 . S
H911 C923 0.929 . S
H912 C926 0.930 . S
H913 C928 0.960 . S
H914 C928 0.960 . S
H915 C928 0.960 . S
C916 H908 0.929 . S
C916 C917 1.377 . S
C916 C918 1.384 . S
C917 C916 1.377 . S
C917 C923 1.390 . S
C918 H909 0.930 . S
C918 C916 1.384 . S
C918 C919 1.372 . S
C919 C918 1.372 . S
C919 C920 1.400 . S
C919 C924 1.490 . S
C920 H910 0.930 . S
C920 C919 1.400 . S
C920 C923 1.386 . S
H921 C937 0.930 . S
H922 C938 0.931 . S
C923 H911 0.929 . S
C923 C917 1.390 . S
C923 C920 1.386 . S
C924 C919 1.490 . S
C924 C926 1.395 . S
C924 C927 1.403 . S
H925 C931 0.938 . S
C926 H912 0.930 . S
C926 C924 1.395 . S
C926 C929 1.403 . S
C927 C924 1.403 . S
C927 C928 1.524 . S
C927 C931 1.388 1_565 S
C928 H913 0.960 . S
C928 H914 0.960 . S
C928 H915 0.960 . S
C928 C927 1.524 . S
C929 C926 1.403 . S
C929 C930 1.392 1_565 S
C929 C933 1.495 1_565 S
C930 C929 1.392 1_545 S
C930 C931 1.390 . S
C930 C932 1.478 . S
C931 H925 0.938 . S
C931 C927 1.388 1_545 S
C931 C930 1.390 . S
C932 C930 1.478 . S
C932 C934 1.381 . S
C932 C938 1.383 . S
C933 C929 1.495 1_545 S
C933 H939 0.959 1_545 S
C933 H940 0.961 . S
C933 H941 0.960 . S
C934 C932 1.381 . S
C934 C935 1.394 . S
C934 H942 0.930 . S
C935 C934 1.394 . S
C935 C936 1.383 . S
C935 H943 0.929 . S
C936 C935 1.383 . S
C936 C937 1.377 . S
C937 H921 0.930 . S
C937 C936 1.377 . S
C937 C938 1.379 . S
C938 H922 0.931 . S
C938 C932 1.383 . S
C938 C937 1.379 . S
H939 C933 0.959 1_565 S
H940 C933 0.961 . S
H941 C933 0.960 . S
H942 C934 0.930 . S
H943 C935 0.929 . S
H944 C952 0.929 . S
H945 C954 0.930 . S
H946 C956 0.930 . S
H947 C959 0.929 . S
H948 C962 0.930 . S
H949 C964 0.960 . S
H950 C964 0.960 . S
H951 C964 0.960 . S
C952 H944 0.929 . S
C952 C953 1.377 . S
C952 C954 1.384 . S
C953 C952 1.377 . S
C953 C959 1.390 . S
C954 H945 0.930 . S
C954 C952 1.384 . S
C954 C955 1.372 . S
C955 C954 1.372 . S
C955 C956 1.400 . S
C955 C960 1.490 . S
C956 H946 0.930 . S
C956 C955 1.400 . S
C956 C959 1.386 . S
H957 C973 0.930 . S
H958 C974 0.931 . S
C959 H947 0.929 . S
C959 C953 1.390 . S
C959 C956 1.386 . S
C960 C955 1.490 . S
C960 C962 1.395 . S
C960 C963 1.403 . S
H961 C967 0.930 . S
C962 H948 0.930 . S
C962 C960 1.395 . S
C962 C965 1.403 . S
C963 C960 1.403 . S
C963 C964 1.524 . S
C963 C967 1.400 . S
C964 H949 0.960 . S
C964 H950 0.960 . S
C964 H951 0.960 . S
C964 C963 1.524 . S
C965 C962 1.403 . S
C965 C966 1.392 . S
C965 C969 1.495 . S
C966 C965 1.392 . S
C966 C967 1.385 . S
C966 C968 1.478 . S
C967 H961 0.930 . S
C967 C963 1.400 . S
C967 C966 1.385 . S
C968 C966 1.478 . S
C968 C970 1.381 . S
C968 C974 1.383 . S
C969 C965 1.495 . S
C969 H975 0.959 . S
C969 H976 0.961 . S
C969 H977 0.960 . S
C970 C968 1.381 . S
C970 C971 1.394 . S
C970 H978 0.930 . S
C971 C970 1.394 . S
C971 C972 1.383 . S
C971 H979 0.929 . S
C972 C971 1.383 . S
C972 C973 1.377 . S
C973 H957 0.930 . S
C973 C972 1.377 . S
C973 C974 1.379 . S
C974 H958 0.931 . S
C974 C968 1.383 . S
C974 C973 1.379 . S
H975 C969 0.959 . S
H976 C969 0.961 . S
H977 C969 0.960 . S
H978 C970 0.930 . S
H979 C971 0.929 . S
H980 C988 0.929 . S
H981 C990 0.930 . S
H982 C992 0.930 . S
H983 C995 0.929 . S
H984 C998 0.930 . S
H985 C1000 0.960 . S
H986 C1000 0.960 . S
H987 C1000 0.960 . S
C988 H980 0.929 . S
C988 C989 1.377 . S
C988 C990 1.384 . S
C989 C988 1.377 . S
C989 C995 1.390 . S
C990 H981 0.930 . S
C990 C988 1.384 . S
C990 C991 1.372 . S
C991 C990 1.372 . S
C991 C992 1.400 . S
C991 C996 1.490 . S
C992 H982 0.930 . S
C992 C991 1.400 . S
C992 C995 1.386 . S
H993 C1009 0.930 . S
H994 C1010 0.931 . S
C995 H983 0.929 . S
C995 C989 1.390 . S
C995 C992 1.386 . S
C996 C991 1.490 . S
C996 C998 1.395 . S
C996 C999 1.403 . S
H997 C1003 0.930 . S
C998 H984 0.930 . S
C998 C996 1.395 . S
C998 C1001 1.403 . S
C999 C996 1.403 . S
C999 C1000 1.524 . S
C999 C1003 1.400 . S
C1000 H985 0.960 . S
C1000 H986 0.960 . S
C1000 H987 0.960 . S
C1000 C999 1.524 . S
C1001 C998 1.403 . S
C1001 C1002 1.392 . S
C1001 C1005 1.495 . S
C1002 C1001 1.392 . S
C1002 C1003 1.385 . S
C1002 C1004 1.478 . S
C1003 H997 0.930 . S
C1003 C999 1.400 . S
C1003 C1002 1.385 . S
C1004 C1002 1.478 . S
C1004 C1006 1.381 . S
C1004 C1010 1.383 . S
C1005 C1001 1.495 . S
C1005 H1011 0.959 . S
C1005 H1012 0.961 . S
C1005 H1013 0.960 . S
C1006 C1004 1.381 . S
C1006 C1007 1.394 . S
C1006 H1014 0.930 . S
C1007 C1006 1.394 . S
C1007 C1008 1.383 . S
C1007 H1015 0.929 . S
C1008 C1007 1.383 . S
C1008 C1009 1.377 . S
C1009 H993 0.930 . S
C1009 C1008 1.377 . S
C1009 C1010 1.379 . S
C1010 H994 0.931 . S
C1010 C1004 1.383 . S
C1010 C1009 1.379 . S
H1011 C1005 0.959 . S
H1012 C1005 0.961 . S
H1013 C1005 0.960 . S
H1014 C1006 0.930 . S
H1015 C1007 0.929 . S
H1016 C1024 0.929 . S
H1017 C1026 0.930 . S
H1018 C1028 0.930 . S
H1019 C1031 0.929 . S
H1020 C1034 0.930 . S
H1021 C1036 0.960 . S
H1022 C1036 0.960 . S
H1023 C1036 0.960 . S
C1024 H1016 0.929 . S
C1024 C1025 1.377 . S
C1024 C1026 1.384 . S
C1025 C1024 1.377 . S
C1025 C1031 1.390 . S
C1026 H1017 0.930 . S
C1026 C1024 1.384 . S
C1026 C1027 1.372 . S
C1027 C1026 1.372 . S
C1027 C1028 1.400 . S
C1027 C1032 1.490 . S
C1028 H1018 0.930 . S
C1028 C1027 1.400 . S
C1028 C1031 1.386 . S
H1029 C1045 0.930 . S
H1030 C1046 0.931 . S
C1031 H1019 0.929 . S
C1031 C1025 1.390 . S
C1031 C1028 1.386 . S
C1032 C1027 1.490 . S
C1032 C1034 1.395 . S
C1032 C1035 1.403 . S
H1033 C1039 0.930 . S
C1034 H1020 0.930 . S
C1034 C1032 1.395 . S
C1034 C1037 1.403 . S
C1035 C1032 1.403 . S
C1035 C1036 1.524 . S
C1035 C1039 1.400 . S
C1036 H1021 0.960 . S
C1036 H1022 0.960 . S
C1036 H1023 0.960 . S
C1036 C1035 1.524 . S
C1037 C1034 1.403 . S
C1037 C1038 1.392 . S
C1037 C1041 1.495 . S
C1038 C1037 1.392 . S
C1038 C1039 1.385 . S
C1038 C1040 1.478 . S
C1039 H1033 0.930 . S
C1039 C1035 1.400 . S
C1039 C1038 1.385 . S
C1040 C1038 1.478 . S
C1040 C1042 1.381 . S
C1040 C1046 1.383 . S
C1041 C1037 1.495 . S
C1041 H1047 0.959 . S
C1041 H1048 0.961 . S
C1041 H1049 0.960 . S
C1042 C1040 1.381 . S
C1042 C1043 1.394 . S
C1042 H1050 0.930 . S
C1043 C1042 1.394 . S
C1043 C1044 1.383 . S
C1043 H1051 0.929 . S
C1044 C1043 1.383 . S
C1044 C1045 1.377 . S
C1045 H1029 0.930 . S
C1045 C1044 1.377 . S
C1045 C1046 1.379 . S
C1046 H1030 0.931 . S
C1046 C1040 1.383 . S
C1046 C1045 1.379 . S
H1047 C1041 0.959 . S
H1048 C1041 0.961 . S
H1049 C1041 0.960 . S
H1050 C1042 0.930 . S
H1051 C1043 0.929 . S
H1052 C1060 0.929 . S
H1053 C1062 0.930 . S
H1054 C1064 0.930 . S
H1055 C1067 0.929 . S
H1056 C1070 0.930 . S
H1057 C1072 0.960 . S
H1058 C1072 0.960 . S
H1059 C1072 0.960 . S
C1060 H1052 0.929 . S
C1060 C1061 1.377 . S
C1060 C1062 1.384 . S
C1061 C1060 1.377 . S
C1061 C1067 1.390 . S
C1062 H1053 0.930 . S
C1062 C1060 1.384 . S
C1062 C1063 1.372 . S
C1063 C1062 1.372 . S
C1063 C1064 1.400 . S
C1063 C1068 1.490 . S
C1064 H1054 0.930 . S
C1064 C1063 1.400 . S
C1064 C1067 1.386 . S
H1065 C1081 0.930 . S
H1066 C1082 0.931 . S
C1067 H1055 0.929 . S
C1067 C1061 1.390 . S
C1067 C1064 1.386 . S
C1068 C1063 1.490 . S
C1068 C1070 1.395 . S
C1068 C1071 1.403 . S
H1069 C1075 0.930 . S
C1070 H1056 0.930 . S
C1070 C1068 1.395 . S
C1070 C1073 1.403 . S
C1071 C1068 1.403 . S
C1071 C1072 1.524 . S
C1071 C1075 1.400 . S
C1072 H1057 0.960 . S
C1072 H1058 0.960 . S
C1072 H1059 0.960 . S
C1072 C1071 1.524 . S
C1073 C1070 1.403 . S
C1073 C1074 1.392 . S
C1073 C1077 1.495 . S
C1074 C1073 1.392 . S
C1074 C1075 1.385 . S
C1074 C1076 1.478 . S
C1075 H1069 0.930 . S
C1075 C1071 1.400 . S
C1075 C1074 1.385 . S
C1076 C1074 1.478 . S
C1076 C1078 1.381 . S
C1076 C1082 1.383 . S
C1077 C1073 1.495 . S
C1077 H1083 0.959 . S
C1077 H1084 0.961 . S
C1077 H1085 0.960 . S
C1078 C1076 1.381 . S
C1078 C1079 1.394 . S
C1078 H1086 0.930 . S
C1079 C1078 1.394 . S
C1079 C1080 1.383 . S
C1079 H1087 0.929 . S
C1080 C1079 1.383 . S
C1080 C1081 1.377 . S
C1081 H1065 0.930 . S
C1081 C1080 1.377 . S
C1081 C1082 1.379 . S
C1082 H1066 0.931 . S
C1082 C1076 1.383 . S
C1082 C1081 1.379 . S
H1083 C1077 0.959 . S
H1084 C1077 0.961 . S
H1085 C1077 0.960 . S
H1086 C1078 0.930 . S
H1087 C1079 0.929 . S
H1088 C1096 0.929 . S
H1089 C1098 0.930 . S
H1090 C1100 0.930 . S
H1091 C1103 0.929 . S
H1092 C1106 0.930 . S
H1093 C1108 0.960 . S
H1094 C1108 0.960 . S
H1095 C1108 0.960 . S
C1096 H1088 0.929 . S
C1096 C1097 1.377 . S
C1096 C1098 1.384 . S
C1097 C1096 1.377 . S
C1097 C1103 1.390 . S
C1098 H1089 0.930 . S
C1098 C1096 1.384 . S
C1098 C1099 1.372 . S
C1099 C1098 1.372 . S
C1099 C1100 1.400 . S
C1099 C1104 1.490 . S
C1100 H1090 0.930 . S
C1100 C1099 1.400 . S
C1100 C1103 1.386 . S
H1101 C1117 0.930 . S
H1102 C1118 0.931 . S
C1103 H1091 0.929 . S
C1103 C1097 1.390 . S
C1103 C1100 1.386 . S
C1104 C1099 1.490 . S
C1104 C1106 1.395 . S
C1104 C1107 1.403 . S
H1105 C1111 0.930 . S
C1106 H1092 0.930 . S
C1106 C1104 1.395 . S
C1106 C1109 1.403 . S
C1107 C1104 1.403 . S
C1107 C1108 1.524 . S
C1107 C1111 1.400 . S
C1108 H1093 0.960 . S
C1108 H1094 0.960 . S
C1108 H1095 0.960 . S
C1108 C1107 1.524 . S
C1109 C1106 1.403 . S
C1109 C1110 1.392 . S
C1109 C1113 1.495 . S
C1110 C1109 1.392 . S
C1110 C1111 1.385 . S
C1110 C1112 1.478 . S
C1111 H1105 0.930 . S
C1111 C1107 1.400 . S
C1111 C1110 1.385 . S
C1112 C1110 1.478 . S
C1112 C1114 1.381 . S
C1112 C1118 1.383 . S
C1113 C1109 1.495 . S
C1113 H1119 0.959 . S
C1113 H1120 0.961 . S
C1113 H1121 0.960 . S
C1114 C1112 1.381 . S
C1114 C1115 1.394 . S
C1114 H1122 0.930 . S
C1115 C1114 1.394 . S
C1115 C1116 1.383 . S
C1115 H1123 0.929 . S
C1116 C1115 1.383 . S
C1116 C1117 1.377 . S
C1117 H1101 0.930 . S
C1117 C1116 1.377 . S
C1117 C1118 1.379 . S
C1118 H1102 0.931 . S
C1118 C1112 1.383 . S
C1118 C1117 1.379 . S
H1119 C1113 0.959 . S
H1120 C1113 0.961 . S
H1121 C1113 0.960 . S
H1122 C1114 0.930 . S
H1123 C1115 0.929 . S
H1124 C1132 0.929 . S
H1125 C1134 0.930 . S
H1126 C1136 0.930 . S
H1127 C1139 0.929 . S
H1128 C1142 0.930 . S
H1129 C1144 0.960 . S
H1130 C1144 0.960 . S
H1131 C1144 0.960 . S
C1132 H1124 0.929 . S
C1132 C1133 1.377 . S
C1132 C1134 1.384 . S
C1133 C1132 1.377 . S
C1133 C1139 1.390 . S
C1134 H1125 0.930 . S
C1134 C1132 1.384 . S
C1134 C1135 1.372 . S
C1135 C1134 1.372 . S
C1135 C1136 1.400 . S
C1135 C1140 1.490 . S
C1136 H1126 0.930 . S
C1136 C1135 1.400 . S
C1136 C1139 1.386 . S
H1137 C1153 0.930 . S
H1138 C1154 0.931 . S
C1139 H1127 0.929 . S
C1139 C1133 1.390 . S
C1139 C1136 1.386 . S
C1140 C1135 1.490 . S
C1140 C1142 1.395 . S
C1140 C1143 1.403 . S
H1141 C1147 0.930 . S
C1142 H1128 0.930 . S
C1142 C1140 1.395 . S
C1142 C1145 1.403 . S
C1143 C1140 1.403 . S
C1143 C1144 1.524 . S
C1143 C1147 1.400 . S
C1144 H1129 0.960 . S
C1144 H1130 0.960 . S
C1144 H1131 0.960 . S
C1144 C1143 1.524 . S
C1145 C1142 1.403 . S
C1145 C1146 1.392 . S
C1145 C1149 1.495 . S
C1146 C1145 1.392 . S
C1146 C1147 1.385 . S
C1146 C1148 1.478 . S
C1147 H1141 0.930 . S
C1147 C1143 1.400 . S
C1147 C1146 1.385 . S
C1148 C1146 1.478 . S
C1148 C1150 1.381 . S
C1148 C1154 1.383 . S
C1149 C1145 1.495 . S
C1149 H1155 0.959 . S
C1149 H1156 0.961 . S
C1149 H1157 0.960 . S
C1150 C1148 1.381 . S
C1150 C1151 1.394 . S
C1150 H1158 0.930 . S
C1151 C1150 1.394 . S
C1151 C1152 1.383 . S
C1151 H1159 0.929 . S
C1152 C1151 1.383 . S
C1152 C1153 1.377 . S
C1153 H1137 0.930 . S
C1153 C1152 1.377 . S
C1153 C1154 1.379 . S
C1154 H1138 0.931 . S
C1154 C1148 1.383 . S
C1154 C1153 1.379 . S
H1155 C1149 0.959 . S
H1156 C1149 0.961 . S
H1157 C1149 0.960 . S
H1158 C1150 0.930 . S
H1159 C1151 0.929 . S
H1160 C1168 0.929 . S
H1161 C1170 0.930 . S
H1162 C1172 0.930 . S
H1163 C1175 0.929 . S
H1164 C1178 0.930 . S
H1165 C1180 0.960 . S
H1166 C1180 0.960 . S
H1167 C1180 0.960 . S
C1168 H1160 0.929 . S
C1168 C1169 1.377 . S
C1168 C1170 1.384 . S
C1169 C1168 1.377 . S
C1169 C1175 1.390 . S
C1170 H1161 0.930 . S
C1170 C1168 1.384 . S
C1170 C1171 1.372 . S
C1171 C1170 1.372 . S
C1171 C1172 1.400 . S
C1171 C1176 1.490 . S
C1172 H1162 0.930 . S
C1172 C1171 1.400 . S
C1172 C1175 1.386 . S
H1173 C1189 0.930 . S
H1174 C1190 0.931 . S
C1175 H1163 0.929 . S
C1175 C1169 1.390 . S
C1175 C1172 1.386 . S
C1176 C1171 1.490 . S
C1176 C1178 1.395 . S
C1176 C1179 1.403 . S
H1177 C1183 0.930 . S
C1178 H1164 0.930 . S
C1178 C1176 1.395 . S
C1178 C1181 1.403 . S
C1179 C1176 1.403 . S
C1179 C1180 1.524 . S
C1179 C1183 1.400 . S
C1180 H1165 0.960 . S
C1180 H1166 0.960 . S
C1180 H1167 0.960 . S
C1180 C1179 1.524 . S
C1181 C1178 1.403 . S
C1181 C1182 1.392 . S
C1181 C1185 1.495 . S
C1182 C1181 1.392 . S
C1182 C1183 1.385 . S
C1182 C1184 1.478 . S
C1183 H1177 0.930 . S
C1183 C1179 1.400 . S
C1183 C1182 1.385 . S
C1184 C1182 1.478 . S
C1184 C1186 1.381 . S
C1184 C1190 1.383 . S
C1185 C1181 1.495 . S
C1185 H1191 0.959 . S
C1185 H1192 0.961 . S
C1185 H1193 0.960 . S
C1186 C1184 1.381 . S
C1186 C1187 1.394 . S
C1186 H1194 0.930 . S
C1187 C1186 1.394 . S
C1187 C1188 1.383 . S
C1187 H1195 0.929 . S
C1188 C1187 1.383 . S
C1188 C1189 1.377 . S
C1189 H1173 0.930 . S
C1189 C1188 1.377 . S
C1189 C1190 1.379 . S
C1190 H1174 0.931 . S
C1190 C1184 1.383 . S
C1190 C1189 1.379 . S
H1191 C1185 0.959 . S
H1192 C1185 0.961 . S
H1193 C1185 0.960 . S
H1194 C1186 0.930 . S
H1195 C1187 0.929 . S
H1196 C1204 0.929 . S
H1197 C1206 0.930 . S
H1198 C1208 0.930 . S
H1199 C1211 0.929 . S
H1200 C1214 0.930 . S
H1201 C1216 0.960 . S
H1202 C1216 0.960 . S
H1203 C1216 0.960 . S
C1204 H1196 0.929 . S
C1204 C1205 1.377 . S
C1204 C1206 1.384 . S
C1205 C1204 1.377 . S
C1205 C1211 1.390 . S
C1206 H1197 0.930 . S
C1206 C1204 1.384 . S
C1206 C1207 1.372 . S
C1207 C1206 1.372 . S
C1207 C1208 1.400 . S
C1207 C1212 1.490 . S
C1208 H1198 0.930 . S
C1208 C1207 1.400 . S
C1208 C1211 1.386 . S
H1209 C1225 0.930 . S
H1210 C1226 0.931 . S
C1211 H1199 0.929 . S
C1211 C1205 1.390 . S
C1211 C1208 1.386 . S
C1212 C1207 1.490 . S
C1212 C1214 1.395 . S
C1212 C1215 1.403 . S
H1213 C1219 0.930 . S
C1214 H1200 0.930 . S
C1214 C1212 1.395 . S
C1214 C1217 1.403 . S
C1215 C1212 1.403 . S
C1215 C1216 1.524 . S
C1215 C1219 1.400 . S
C1216 H1201 0.960 . S
C1216 H1202 0.960 . S
C1216 H1203 0.960 . S
C1216 C1215 1.524 . S
C1217 C1214 1.403 . S
C1217 C1218 1.392 . S
C1217 C1221 1.495 . S
C1218 C1217 1.392 . S
C1218 C1219 1.385 . S
C1218 C1220 1.478 . S
C1219 H1213 0.930 . S
C1219 C1215 1.400 . S
C1219 C1218 1.385 . S
C1220 C1218 1.478 . S
C1220 C1222 1.381 . S
C1220 C1226 1.383 . S
C1221 C1217 1.495 . S
C1221 H1227 0.959 . S
C1221 H1228 0.961 . S
C1221 H1229 0.960 . S
C1222 C1220 1.381 . S
C1222 C1223 1.394 . S
C1222 H1230 0.930 . S
C1223 C1222 1.394 . S
C1223 C1224 1.383 . S
C1223 H1231 0.929 . S
C1224 C1223 1.383 . S
C1224 C1225 1.377 . S
C1225 H1209 0.930 . S
C1225 C1224 1.377 . S
C1225 C1226 1.379 . S
C1226 H1210 0.931 . S
C1226 C1220 1.383 . S
C1226 C1225 1.379 . S
H1227 C1221 0.959 . S
H1228 C1221 0.961 . S
H1229 C1221 0.960 . S
H1230 C1222 0.930 . S
H1231 C1223 0.929 . S
H1232 C1240 0.929 . S
H1233 C1242 0.930 . S
H1234 C1244 0.930 . S
H1235 C1247 0.929 . S
H1236 C1250 0.930 . S
H1237 C1252 0.960 . S
H1238 C1252 0.960 . S
H1239 C1252 0.960 . S
C1240 H1232 0.929 . S
C1240 C1241 1.377 . S
C1240 C1242 1.384 . S
C1241 C1240 1.377 . S
C1241 C1247 1.390 . S
C1242 H1233 0.930 . S
C1242 C1240 1.384 . S
C1242 C1243 1.372 . S
C1243 C1242 1.372 . S
C1243 C1244 1.400 . S
C1243 C1248 1.490 . S
C1244 H1234 0.930 . S
C1244 C1243 1.400 . S
C1244 C1247 1.386 . S
H1245 C1261 0.930 . S
H1246 C1262 0.931 . S
C1247 H1235 0.929 . S
C1247 C1241 1.390 . S
C1247 C1244 1.386 . S
C1248 C1243 1.490 . S
C1248 C1250 1.395 . S
C1248 C1251 1.403 . S
H1249 C1255 0.930 . S
C1250 H1236 0.930 . S
C1250 C1248 1.395 . S
C1250 C1253 1.403 . S
C1251 C1248 1.403 . S
C1251 C1252 1.524 . S
C1251 C1255 1.400 . S
C1252 H1237 0.960 . S
C1252 H1238 0.960 . S
C1252 H1239 0.960 . S
C1252 C1251 1.524 . S
C1253 C1250 1.403 . S
C1253 C1254 1.392 . S
C1253 C1257 1.495 . S
C1254 C1253 1.392 . S
C1254 C1255 1.385 . S
C1254 C1256 1.478 . S
C1255 H1249 0.930 . S
C1255 C1251 1.400 . S
C1255 C1254 1.385 . S
C1256 C1254 1.478 . S
C1256 C1258 1.381 . S
C1256 C1262 1.383 . S
C1257 C1253 1.495 . S
C1257 H1263 0.959 . S
C1257 H1264 0.961 . S
C1257 H1265 0.960 . S
C1258 C1256 1.381 . S
C1258 C1259 1.394 . S
C1258 H1266 0.930 . S
C1259 C1258 1.394 . S
C1259 C1260 1.383 . S
C1259 H1267 0.929 . S
C1260 C1259 1.383 . S
C1260 C1261 1.377 . S
C1261 H1245 0.930 . S
C1261 C1260 1.377 . S
C1261 C1262 1.379 . S
C1262 H1246 0.931 . S
C1262 C1256 1.383 . S
C1262 C1261 1.379 . S
H1263 C1257 0.959 . S
H1264 C1257 0.961 . S
H1265 C1257 0.960 . S
H1266 C1258 0.930 . S
H1267 C1259 0.929 . S
H1268 C1276 0.929 . S
H1269 C1278 0.930 . S
H1270 C1280 0.930 . S
H1271 C1283 0.929 . S
H1272 C1286 0.930 . S
H1273 C1288 0.960 . S
H1274 C1288 0.960 . S
H1275 C1288 0.960 . S
C1276 H1268 0.929 . S
C1276 C1277 1.377 . S
C1276 C1278 1.384 . S
C1277 C1276 1.377 . S
C1277 C1283 1.390 . S
C1278 H1269 0.930 . S
C1278 C1276 1.384 . S
C1278 C1279 1.372 . S
C1279 C1278 1.372 . S
C1279 C1280 1.400 . S
C1279 C1284 1.490 . S
C1280 H1270 0.930 . S
C1280 C1279 1.400 . S
C1280 C1283 1.386 . S
H1281 C1297 0.930 . S
H1282 C1298 0.931 . S
C1283 H1271 0.929 . S
C1283 C1277 1.390 . S
C1283 C1280 1.386 . S
C1284 C1279 1.490 . S
C1284 C1286 1.395 . S
C1284 C1287 1.403 . S
H1285 C1291 0.930 . S
C1286 H1272 0.930 . S
C1286 C1284 1.395 . S
C1286 C1289 1.403 . S
C1287 C1284 1.403 . S
C1287 C1288 1.524 . S
C1287 C1291 1.400 . S
C1288 H1273 0.960 . S
C1288 H1274 0.960 . S
C1288 H1275 0.960 . S
C1288 C1287 1.524 . S
C1289 C1286 1.403 . S
C1289 C1290 1.392 . S
C1289 C1293 1.495 . S
C1290 C1289 1.392 . S
C1290 C1291 1.385 . S
C1290 C1292 1.478 . S
C1291 H1285 0.930 . S
C1291 C1287 1.400 . S
C1291 C1290 1.385 . S
C1292 C1290 1.478 . S
C1292 C1294 1.381 . S
C1292 C1298 1.383 . S
C1293 C1289 1.495 . S
C1293 H1299 0.959 . S
C1293 H1300 0.961 . S
C1293 H1301 0.960 . S
C1294 C1292 1.381 . S
C1294 C1295 1.394 . S
C1294 H1302 0.930 . S
C1295 C1294 1.394 . S
C1295 C1296 1.383 . S
C1295 H1303 0.929 . S
C1296 C1295 1.383 . S
C1296 C1297 1.377 . S
C1297 H1281 0.930 . S
C1297 C1296 1.377 . S
C1297 C1298 1.379 . S
C1298 H1282 0.931 . S
C1298 C1292 1.383 . S
C1298 C1297 1.379 . S
H1299 C1293 0.959 . S
H1300 C1293 0.961 . S
H1301 C1293 0.960 . S
H1302 C1294 0.930 . S
H1303 C1295 0.929 . S
H1304 C1312 0.929 . S
H1305 C1314 0.930 . S
H1306 C1316 0.930 . S
H1307 C1319 0.929 . S
H1308 C1322 0.930 . S
H1309 C1324 0.960 . S
H1310 C1324 0.960 . S
H1311 C1324 0.960 . S
C1312 H1304 0.929 . S
C1312 C1313 1.377 . S
C1312 C1314 1.384 . S
C1313 C1312 1.377 . S
C1313 C1319 1.390 . S
C1314 H1305 0.930 . S
C1314 C1312 1.384 . S
C1314 C1315 1.372 . S
C1315 C1314 1.372 . S
C1315 C1316 1.400 . S
C1315 C1320 1.490 . S
C1316 H1306 0.930 . S
C1316 C1315 1.400 . S
C1316 C1319 1.386 . S
H1317 C1333 0.930 . S
H1318 C1334 0.931 . S
C1319 H1307 0.929 . S
C1319 C1313 1.390 . S
C1319 C1316 1.386 . S
C1320 C1315 1.490 . S
C1320 C1322 1.395 . S
C1320 C1323 1.403 . S
H1321 C1327 0.930 . S
C1322 H1308 0.930 . S
C1322 C1320 1.395 . S
C1322 C1325 1.403 . S
C1323 C1320 1.403 . S
C1323 C1324 1.524 . S
C1323 C1327 1.400 . S
C1324 H1309 0.960 . S
C1324 H1310 0.960 . S
C1324 H1311 0.960 . S
C1324 C1323 1.524 . S
C1325 C1322 1.403 . S
C1325 C1326 1.392 . S
C1325 C1329 1.495 . S
C1326 C1325 1.392 . S
C1326 C1327 1.385 . S
C1326 C1328 1.478 . S
C1327 H1321 0.930 . S
C1327 C1323 1.400 . S
C1327 C1326 1.385 . S
C1328 C1326 1.478 . S
C1328 C1330 1.381 . S
C1328 C1334 1.383 . S
C1329 C1325 1.495 . S
C1329 H1335 0.959 . S
C1329 H1336 0.961 . S
C1329 H1337 0.960 . S
C1330 C1328 1.381 . S
C1330 C1331 1.394 . S
C1330 H1338 0.930 . S
C1331 C1330 1.394 . S
C1331 C1332 1.383 . S
C1331 H1339 0.929 . S
C1332 C1331 1.383 . S
C1332 C1333 1.377 . S
C1333 H1317 0.930 . S
C1333 C1332 1.377 . S
C1333 C1334 1.379 . S
C1334 H1318 0.931 . S
C1334 C1328 1.383 . S
C1334 C1333 1.379 . S
H1335 C1329 0.959 . S
H1336 C1329 0.961 . S
H1337 C1329 0.960 . S
H1338 C1330 0.930 . S
H1339 C1331 0.929 . S
H1340 C1348 0.929 . S
H1341 C1350 0.930 . S
H1342 C1352 0.930 . S
H1343 C1355 0.929 . S
H1344 C1358 0.930 . S
H1345 C1360 0.960 . S
H1346 C1360 0.960 . S
H1347 C1360 0.960 . S
C1348 H1340 0.929 . S
C1348 C1349 1.377 . S
C1348 C1350 1.384 . S
C1349 C1348 1.377 . S
C1349 C1355 1.390 . S
C1350 H1341 0.930 . S
C1350 C1348 1.384 . S
C1350 C1351 1.372 . S
C1351 C1350 1.372 . S
C1351 C1352 1.400 . S
C1351 C1356 1.490 . S
C1352 H1342 0.930 . S
C1352 C1351 1.400 . S
C1352 C1355 1.386 . S
H1353 C1369 0.930 . S
H1354 C1370 0.931 . S
C1355 H1343 0.929 . S
C1355 C1349 1.390 . S
C1355 C1352 1.386 . S
C1356 C1351 1.490 . S
C1356 C1358 1.395 . S
C1356 C1359 1.403 . S
H1357 C1363 0.930 . S
C1358 H1344 0.930 . S
C1358 C1356 1.395 . S
C1358 C1361 1.403 . S
C1359 C1356 1.403 . S
C1359 C1360 1.524 . S
C1359 C1363 1.400 . S
C1360 H1345 0.960 . S
C1360 H1346 0.960 . S
C1360 H1347 0.960 . S
C1360 C1359 1.524 . S
C1361 C1358 1.403 . S
C1361 C1362 1.392 . S
C1361 C1365 1.495 . S
C1362 C1361 1.392 . S
C1362 C1363 1.385 . S
C1362 C1364 1.478 . S
C1363 H1357 0.930 . S
C1363 C1359 1.400 . S
C1363 C1362 1.385 . S
C1364 C1362 1.478 . S
C1364 C1366 1.381 . S
C1364 C1370 1.383 . S
C1365 C1361 1.495 . S
C1365 H1371 0.959 . S
C1365 H1372 0.961 . S
C1365 H1373 0.960 . S
C1366 C1364 1.381 . S
C1366 C1367 1.394 . S
C1366 H1374 0.930 . S
C1367 C1366 1.394 . S
C1367 C1368 1.383 . S
C1367 H1375 0.929 . S
C1368 C1367 1.383 . S
C1368 C1369 1.377 . S
C1369 H1353 0.930 . S
C1369 C1368 1.377 . S
C1369 C1370 1.379 . S
C1370 H1354 0.931 . S
C1370 C1364 1.383 . S
C1370 C1369 1.379 . S
H1371 C1365 0.959 . S
H1372 C1365 0.961 . S
H1373 C1365 0.960 . S
H1374 C1366 0.930 . S
H1375 C1367 0.929 . S
C233 C221 0.833 . S
C252 C11 0.850 . S
C269 C179 0.838 . S
C288 C25 0.826 . S
C305 C39 0.831 . S
C324 C193 0.846 . S
C341 C207 0.838 . S
C360 C53 0.823 . S
C377 C137 0.835 . S
C396 C67 0.818 . S
C413 C81 0.837 . S
C432 C151 0.818 . S
C449 C95 0.831 . S
C468 C165 0.847 . S
C485 C109 0.838 . S
C504 C123 0.822 . S
C521 C83 1.204 . S
C540 C8 1.322 . S
C557 C92 1.348 . S
C576 C27 1.265 . S
C593 C111 1.204 . S
C612 C36 1.354 . S
C629 C55 1.211 . S
C648 C64 1.314 . S
C665 C7 1.323 . S
C684 C21 1.318 . S
C701 C41 1.223 . S
C720 C22 1.365 . S
C737 C35 1.330 . S
C756 C49 1.304 . S
C773 C13 1.218 . S
C792 C50 1.320 . S
C809 C105 1.321 . S
C828 C63 1.329 . S
C845 C69 1.214 . S
C864 C78 1.315 . S
C881 C77 1.329 . S
C900 C91 1.308 . S
C917 C106 1.345 . S
C936 C97 1.259 . S
C953 C195 1.223 . S
C972 C120 1.333 . S
C989 C139 1.202 . S
C1008 C204 1.338 . S
C1025 C223 1.225 . S
C1044 C148 1.354 . S
C1061 C176 1.348 . S
C1080 C167 1.167 . S
C1097 C119 1.328 . S
C1116 C133 1.316 . S
C1133 C134 1.350 . S
C1152 C153 1.258 . S
C1169 C161 1.329 . S
C1188 C147 1.313 . S
C1205 C125 1.220 . S
C1224 C162 1.371 . S
C1241 C217 1.328 . S
C1260 C175 1.299 . S
C1277 C181 1.224 . S
C1296 C190 1.338 . S
C1313 C189 1.320 . S
C1332 C203 1.347 . S
C1349 C218 1.350 . S
C1368 C209 1.183 . S
