# Generated by pormake.
# Topology whz, (6)-cn, num edge types: 1
# Building blocks:
#     Node 0, Type 0, BuildingBlock: VOLQOD_clean_sbu_1, # of connection points: 6
#     Node 1, Type 0, BuildingBlock: VOLQOD_clean_sbu_1, # of connection points: 6
#     Node 2, Type 0, BuildingBlock: VOLQOD_clean_sbu_1, # of connection points: 6
#     Node 3, Type 0, BuildingBlock: VOLQOD_clean_sbu_1, # of connection points: 6
#     Node 4, Type 0, BuildingBlock: VOLQOD_clean_sbu_1, # of connection points: 6
#     Node 5, Type 0, BuildingBlock: VOLQOD_clean_sbu_1, # of connection points: 6
#     Node 6, Type 0, BuildingBlock: VOLQOD_clean_sbu_1, # of connection points: 6
#     Node 7, Type 0, BuildingBlock: VOLQOD_clean_sbu_1, # of connection points: 6
#     Node 8, Type 0, BuildingBlock: VOLQOD_clean_sbu_1, # of connection points: 6
#     Node 9, Type 0, BuildingBlock: VOLQOD_clean_sbu_1, # of connection points: 6
#     Node 10, Type 0, BuildingBlock: VOLQOD_clean_sbu_1, # of connection points: 6
#     Node 11, Type 0, BuildingBlock: VOLQOD_clean_sbu_1, # of connection points: 6
#     Node 12, Type 0, BuildingBlock: VOLQOD_clean_sbu_1, # of connection points: 6
#     Node 13, Type 0, BuildingBlock: VOLQOD_clean_sbu_1, # of connection points: 6
#     Node 14, Type 0, BuildingBlock: VOLQOD_clean_sbu_1, # of connection points: 6
#     Node 15, Type 0, BuildingBlock: VOLQOD_clean_sbu_1, # of connection points: 6
#     Edge 16, Type (0, 0), BuildingBlock: ZUJKAS_clean_linker_0, # of connection points: 2
#     Edge 17, Type (0, 0), BuildingBlock: ZUJKAS_clean_linker_0, # of connection points: 2
#     Edge 18, Type (0, 0), BuildingBlock: ZUJKAS_clean_linker_0, # of connection points: 2
#     Edge 19, Type (0, 0), BuildingBlock: ZUJKAS_clean_linker_0, # of connection points: 2
#     Edge 20, Type (0, 0), BuildingBlock: ZUJKAS_clean_linker_0, # of connection points: 2
#     Edge 21, Type (0, 0), BuildingBlock: ZUJKAS_clean_linker_0, # of connection points: 2
#     Edge 22, Type (0, 0), BuildingBlock: ZUJKAS_clean_linker_0, # of connection points: 2
#     Edge 23, Type (0, 0), BuildingBlock: ZUJKAS_clean_linker_0, # of connection points: 2
#     Edge 24, Type (0, 0), BuildingBlock: ZUJKAS_clean_linker_0, # of connection points: 2
#     Edge 25, Type (0, 0), BuildingBlock: ZUJKAS_clean_linker_0, # of connection points: 2
#     Edge 26, Type (0, 0), BuildingBlock: ZUJKAS_clean_linker_0, # of connection points: 2
#     Edge 27, Type (0, 0), BuildingBlock: ZUJKAS_clean_linker_0, # of connection points: 2
#     Edge 28, Type (0, 0), BuildingBlock: ZUJKAS_clean_linker_0, # of connection points: 2
#     Edge 29, Type (0, 0), BuildingBlock: ZUJKAS_clean_linker_0, # of connection points: 2
#     Edge 30, Type (0, 0), BuildingBlock: ZUJKAS_clean_linker_0, # of connection points: 2
#     Edge 31, Type (0, 0), BuildingBlock: ZUJKAS_clean_linker_0, # of connection points: 2
#     Edge 32, Type (0, 0), BuildingBlock: ZUJKAS_clean_linker_0, # of connection points: 2
#     Edge 33, Type (0, 0), BuildingBlock: ZUJKAS_clean_linker_0, # of connection points: 2
#     Edge 34, Type (0, 0), BuildingBlock: ZUJKAS_clean_linker_0, # of connection points: 2
#     Edge 35, Type (0, 0), BuildingBlock: ZUJKAS_clean_linker_0, # of connection points: 2
#     Edge 36, Type (0, 0), BuildingBlock: ZUJKAS_clean_linker_0, # of connection points: 2
#     Edge 37, Type (0, 0), BuildingBlock: ZUJKAS_clean_linker_0, # of connection points: 2
#     Edge 38, Type (0, 0), BuildingBlock: ZUJKAS_clean_linker_0, # of connection points: 2
#     Edge 39, Type (0, 0), BuildingBlock: ZUJKAS_clean_linker_0, # of connection points: 2
#     Edge 40, Type (0, 0), BuildingBlock: ZUJKAS_clean_linker_0, # of connection points: 2
#     Edge 41, Type (0, 0), BuildingBlock: ZUJKAS_clean_linker_0, # of connection points: 2
#     Edge 42, Type (0, 0), BuildingBlock: ZUJKAS_clean_linker_0, # of connection points: 2
#     Edge 43, Type (0, 0), BuildingBlock: ZUJKAS_clean_linker_0, # of connection points: 2
#     Edge 44, Type (0, 0), BuildingBlock: ZUJKAS_clean_linker_0, # of connection points: 2
#     Edge 45, Type (0, 0), BuildingBlock: ZUJKAS_clean_linker_0, # of connection points: 2
#     Edge 46, Type (0, 0), BuildingBlock: ZUJKAS_clean_linker_0, # of connection points: 2
#     Edge 47, Type (0, 0), BuildingBlock: ZUJKAS_clean_linker_0, # of connection points: 2
#     Edge 48, Type (0, 0), BuildingBlock: ZUJKAS_clean_linker_0, # of connection points: 2
#     Edge 49, Type (0, 0), BuildingBlock: ZUJKAS_clean_linker_0, # of connection points: 2
#     Edge 50, Type (0, 0), BuildingBlock: ZUJKAS_clean_linker_0, # of connection points: 2
#     Edge 51, Type (0, 0), BuildingBlock: ZUJKAS_clean_linker_0, # of connection points: 2
#     Edge 52, Type (0, 0), BuildingBlock: ZUJKAS_clean_linker_0, # of connection points: 2
#     Edge 53, Type (0, 0), BuildingBlock: ZUJKAS_clean_linker_0, # of connection points: 2
#     Edge 54, Type (0, 0), BuildingBlock: ZUJKAS_clean_linker_0, # of connection points: 2
#     Edge 55, Type (0, 0), BuildingBlock: ZUJKAS_clean_linker_0, # of connection points: 2
#     Edge 56, Type (0, 0), BuildingBlock: ZUJKAS_clean_linker_0, # of connection points: 2
#     Edge 57, Type (0, 0), BuildingBlock: ZUJKAS_clean_linker_0, # of connection points: 2
#     Edge 58, Type (0, 0), BuildingBlock: ZUJKAS_clean_linker_0, # of connection points: 2
#     Edge 59, Type (0, 0), BuildingBlock: ZUJKAS_clean_linker_0, # of connection points: 2
#     Edge 60, Type (0, 0), BuildingBlock: ZUJKAS_clean_linker_0, # of connection points: 2
#     Edge 61, Type (0, 0), BuildingBlock: ZUJKAS_clean_linker_0, # of connection points: 2
#     Edge 62, Type (0, 0), BuildingBlock: ZUJKAS_clean_linker_0, # of connection points: 2
#     Edge 63, Type (0, 0), BuildingBlock: ZUJKAS_clean_linker_0, # of connection points: 2
# Relax obj value: 0.426
# Max RMSD: 0.199
# Mean RMSD: 0.199
data_MOF--net-whz--node1-VOLQOD_clean_sbu_1--edge1-ZUJKAS_clean_linker_0
_symmetry_space_group_name_H-M    P1
_symmetry_Int_Tables_number       1
_symmetry_cell_setting            triclinic
loop_
_symmetry_equiv_pos_as_xyz
'x, y, z'
_cell_length_a     46.389943
_cell_length_b     46.431815
_cell_length_c     69.517568
_cell_angle_alpha  90.075201
_cell_angle_beta   89.991023
_cell_angle_gamma 90.054607
loop_
_atom_site_label
_atom_site_type_symbol
_atom_site_fract_x
_atom_site_fract_y
_atom_site_fract_z
_atom_type_partial_charge
O0 O 0.26469 0.15732 0.15019 0.0
Zn1 Zn 0.26245 0.1432 0.12317 0.0
O2 O 0.29887 0.12614 0.11548 0.0
Zn3 Zn 0.29205 0.08633 0.10722 0.0
Zn4 Zn 0.32601 0.12727 0.13693 0.0
Zn5 Zn 0.31434 0.14887 0.09448 0.0
O6 O 0.30095 0.08163 0.07873 0.0
O7 O 0.3127 0.12623 0.07003 0.0
O8 O 0.22984 0.11533 0.12197 0.0
O9 O 0.25038 0.07515 0.11149 0.0
O10 O 0.31378 0.05827 0.12406 0.0
O11 O 0.33336 0.08709 0.14607 0.0
O12 O 0.36387 0.14534 0.12927 0.0
O13 O 0.253 0.17853 0.10812 0.0
O14 O 0.35521 0.16014 0.09947 0.0
O15 O 0.29275 0.18618 0.09121 0.0
C16 C 0.28463 0.15978 0.16262 0.0
C17 C 0.30792 0.09993 0.06583 0.0
C18 C 0.32793 0.06198 0.13959 0.0
C19 C 0.22833 0.08885 0.11743 0.0
C20 C 0.37198 0.15772 0.11385 0.0
C21 C 0.26806 0.19429 0.09705 0.0
O22 O 0.30985 0.15005 0.15939 0.0
O23 O 0.57969 0.50846 0.4023 0.0
Zn24 Zn 0.59518 0.50781 0.37552 0.0
O25 O 0.61379 0.54418 0.36932 0.0
Zn26 Zn 0.6538 0.53638 0.36156 0.0
Zn27 Zn 0.6126 0.56966 0.39166 0.0
Zn28 Zn 0.59235 0.56237 0.34859 0.0
O29 O 0.65943 0.54624 0.33321 0.0
O30 O 0.6165 0.56369 0.32483 0.0
O31 O 0.62225 0.4746 0.37421 0.0
O32 O 0.66367 0.49426 0.36521 0.0
O33 O 0.68196 0.55717 0.37918 0.0
O34 O 0.65273 0.57753 0.40063 0.0
O35 O 0.59317 0.60741 0.38585 0.0
O36 O 0.56098 0.50013 0.3589 0.0
O37 O 0.58071 0.60264 0.35523 0.0
O38 O 0.55532 0.54098 0.34285 0.0
C39 C 0.57911 0.52704 0.41574 0.0
C40 C 0.64233 0.55686 0.32067 0.0
C41 C 0.67796 0.57179 0.39451 0.0
C42 C 0.64892 0.47241 0.3703 0.0
C43 C 0.58174 0.61743 0.37063 0.0
C44 C 0.54656 0.51595 0.34751 0.0
O45 O 0.5908 0.55167 0.4137 0.0
O46 O 0.23057 0.83907 0.65383 0.0
Zn47 Zn 0.23278 0.85194 0.62667 0.0
O48 O 0.19583 0.86643 0.61803 0.0
Zn49 Zn 0.20083 0.9063 0.60912 0.0
Zn50 Zn 0.16818 0.86469 0.63916 0.0
Zn51 Zn 0.18232 0.84175 0.59731 0.0
O52 O 0.19184 0.90923 0.58058 0.0
O53 O 0.18224 0.86378 0.57261 0.0
O54 O 0.26356 0.88157 0.62547 0.0
O55 O 0.24206 0.91988 0.61307 0.0
O56 O 0.17719 0.93385 0.62533 0.0
O57 O 0.15852 0.90475 0.64746 0.0
O58 O 0.1316 0.84416 0.63144 0.0
O59 O 0.24515 0.81686 0.61229 0.0
O60 O 0.1424 0.82721 0.60244 0.0
O61 O 0.20723 0.80648 0.5942 0.0
C62 C 0.21045 0.83605 0.66606 0.0
C63 C 0.1857 0.89011 0.56799 0.0
C64 C 0.16279 0.92992 0.64074 0.0
C65 C 0.26434 0.90763 0.61997 0.0
C66 C 0.12496 0.8298 0.61646 0.0
C67 C 0.23208 0.80018 0.60069 0.0
O68 O 0.18478 0.84398 0.66231 0.0
O69 O 0.89689 0.47006 0.91947 0.0
Zn70 Zn 0.88761 0.47837 0.89235 0.0
O71 O 0.87245 0.44488 0.87928 0.0
Zn72 Zn 0.83454 0.45483 0.86861 0.0
Zn73 Zn 0.86982 0.41325 0.89783 0.0
Zn74 Zn 0.89872 0.43399 0.85878 0.0
O75 O 0.83314 0.44699 0.8398 0.0
O76 O 0.87887 0.43639 0.83333 0.0
O77 O 0.86003 0.51083 0.89256 0.0
O78 O 0.82478 0.4971 0.87301 0.0
O79 O 0.8036 0.43336 0.88326 0.0
O80 O 0.82809 0.40569 0.90367 0.0
O81 O 0.88941 0.37736 0.88812 0.0
O82 O 0.92491 0.49128 0.88095 0.0
O83 O 0.91221 0.39338 0.86218 0.0
O84 O 0.93428 0.45904 0.85826 0.0
C85 C 0.89803 0.44745 0.92964 0.0
C86 C 0.85308 0.44083 0.82781 0.0
C87 C 0.80432 0.41521 0.89701 0.0
C88 C 0.83645 0.51582 0.88393 0.0
C89 C 0.90657 0.37332 0.87406 0.0
C90 C 0.9414 0.48118 0.86798 0.0
O91 O 0.88967 0.42322 0.92308 0.0
O92 O 0.73749 0.84062 0.84337 0.0
Zn93 Zn 0.73847 0.85492 0.87028 0.0
O94 O 0.70143 0.87054 0.87786 0.0
Zn95 Zn 0.70718 0.91083 0.88564 0.0
Zn96 Zn 0.67483 0.86778 0.85618 0.0
Zn97 Zn 0.68623 0.84759 0.89904 0.0
O98 O 0.69878 0.91554 0.91422 0.0
O99 O 0.68519 0.87144 0.92308 0.0
O100 O 0.7701 0.88373 0.87136 0.0
O101 O 0.74834 0.92369 0.88094 0.0
O102 O 0.68389 0.93761 0.86865 0.0
O103 O 0.66527 0.90744 0.84705 0.0
O104 O 0.63814 0.84742 0.86341 0.0
O105 O 0.74887 0.82034 0.88552 0.0
O106 O 0.64618 0.83341 0.89343 0.0
O107 O 0.71048 0.81196 0.90365 0.0
C108 C 0.71793 0.83727 0.83079 0.0
C109 C 0.69049 0.89771 0.92708 0.0
C110 C 0.66958 0.9329 0.85329 0.0
C111 C 0.77083 0.91043 0.87531 0.0
C112 C 0.62999 0.83465 0.87867 0.0
C113 C 0.73524 0.80465 0.89741 0.0
O114 O 0.69224 0.84578 0.83381 0.0
O115 O 0.41187 0.48124 0.59738 0.0
Zn116 Zn 0.3969 0.4822 0.62425 0.0
O117 O 0.37732 0.44645 0.63058 0.0
Zn118 Zn 0.33749 0.4554 0.63813 0.0
Zn119 Zn 0.37803 0.42082 0.60835 0.0
Zn120 Zn 0.39812 0.42796 0.65153 0.0
O121 O 0.33164 0.44656 0.66657 0.0
O122 O 0.37414 0.42861 0.67544 0.0
O123 O 0.37101 0.51624 0.62575 0.0
O124 O 0.32884 0.49774 0.63426 0.0
O125 O 0.30887 0.43491 0.62064 0.0
O126 O 0.33776 0.4132 0.59957 0.0
O127 O 0.39717 0.38308 0.61436 0.0
O128 O 0.43166 0.48868 0.64049 0.0
O129 O 0.40833 0.38711 0.64526 0.0
O130 O 0.43619 0.44785 0.65671 0.0
C131 C 0.41194 0.46265 0.58395 0.0
C132 C 0.34846 0.4363 0.6794 0.0
C133 C 0.31264 0.41966 0.60556 0.0
C134 C 0.34434 0.5192 0.62941 0.0
C135 C 0.40775 0.37262 0.62972 0.0
C136 C 0.4458 0.47245 0.65177 0.0
O137 O 0.39986 0.43824 0.58609 0.0
O138 O 0.75148 0.1569 0.34667 0.0
Zn139 Zn 0.75544 0.1426 0.37352 0.0
O140 O 0.79396 0.12764 0.3778 0.0
Zn141 Zn 0.79103 0.08697 0.38523 0.0
Zn142 Zn 0.81706 0.132 0.35455 0.0
Zn143 Zn 0.81153 0.15026 0.39814 0.0
O144 O 0.80325 0.08188 0.41318 0.0
O145 O 0.81405 0.12667 0.42209 0.0
O146 O 0.72508 0.11284 0.37708 0.0
O147 O 0.74971 0.07292 0.38302 0.0
O148 O 0.8133 0.06161 0.36667 0.0
O149 O 0.82684 0.09293 0.34421 0.0
O150 O 0.85422 0.15337 0.35976 0.0
O151 O 0.74683 0.17717 0.38965 0.0
O152 O 0.85102 0.16373 0.39084 0.0
O153 O 0.78877 0.18635 0.40361 0.0
C154 C 0.76884 0.16113 0.33281 0.0
C155 C 0.81085 0.10006 0.42604 0.0
C156 C 0.82491 0.0672 0.35046 0.0
C157 C 0.72592 0.08586 0.38007 0.0
C158 C 0.86477 0.16437 0.37501 0.0
C159 C 0.76288 0.19337 0.3998 0.0
O160 O 0.7952 0.15365 0.33394 0.0
O161 O 0.09832 0.50415 0.09018 0.0
Zn162 Zn 0.108 0.50646 0.11796 0.0
O163 O 0.12208 0.54435 0.12478 0.0
Zn164 Zn 0.16209 0.54089 0.13364 0.0
Zn165 Zn 0.11923 0.56939 0.10241 0.0
Zn166 Zn 0.09763 0.55961 0.145 0.0
O167 O 0.165 0.55159 0.16204 0.0
O168 O 0.11927 0.56026 0.16978 0.0
O169 O 0.13648 0.47566 0.12316 0.0
O170 O 0.1761 0.4996 0.13119 0.0
O171 O 0.18886 0.56405 0.11652 0.0
O172 O 0.15905 0.57982 0.09378 0.0
O173 O 0.09754 0.60592 0.1085 0.0
O174 O 0.07074 0.49739 0.13079 0.0
O175 O 0.08447 0.59956 0.1389 0.0
O176 O 0.06124 0.53622 0.14819 0.0
C177 C 0.09352 0.52294 0.07733 0.0
C178 C 0.14566 0.55755 0.17451 0.0
C179 C 0.18437 0.5771 0.10065 0.0
C180 C 0.16308 0.47607 0.12747 0.0
C181 C 0.08517 0.61485 0.12373 0.0
C182 C 0.05398 0.51163 0.14168 0.0
O183 O 0.09878 0.54952 0.08029 0.0
O184 O 0.76486 0.64504 0.66343 0.0
Zn185 Zn 0.76048 0.63502 0.63586 0.0
O186 O 0.7963 0.62161 0.62482 0.0
Zn187 Zn 0.79074 0.58188 0.61573 0.0
Zn188 Zn 0.82621 0.62349 0.64453 0.0
Zn189 Zn 0.80691 0.64707 0.60376 0.0
O190 O 0.79923 0.57914 0.58701 0.0
O191 O 0.80626 0.62504 0.57901 0.0
O192 O 0.72897 0.60635 0.6337 0.0
O193 O 0.74936 0.56864 0.61966 0.0
O194 O 0.81417 0.55423 0.63198 0.0
O195 O 0.83653 0.58346 0.65254 0.0
O196 O 0.86165 0.64439 0.6352 0.0
O197 O 0.74764 0.67161 0.62388 0.0
O198 O 0.84669 0.66306 0.60755 0.0
O199 O 0.78049 0.6816 0.60176 0.0
C200 C 0.78652 0.64987 0.67413 0.0
C201 C 0.80386 0.59857 0.57437 0.0
C202 C 0.83049 0.55823 0.64651 0.0
C203 C 0.72748 0.58086 0.62713 0.0
C204 C 0.86596 0.65997 0.62041 0.0
C205 C 0.7577 0.68813 0.61098 0.0
O206 O 0.81203 0.64441 0.66841 0.0
O207 O 0.07965 0.01127 0.89567 0.0
Zn208 Zn 0.09468 0.01145 0.86882 0.0
O209 O 0.11416 0.0476 0.86331 0.0
Zn210 Zn 0.15393 0.03909 0.85554 0.0
Zn211 Zn 0.11349 0.07233 0.88605 0.0
Zn212 Zn 0.09347 0.06692 0.84271 0.0
O213 O 0.15987 0.04913 0.82736 0.0
O214 O 0.11763 0.06807 0.81893 0.0
O215 O 0.12078 0.97755 0.86675 0.0
O216 O 0.16289 0.99674 0.85882 0.0
O217 O 0.18247 0.05895 0.87321 0.0
O218 O 0.15386 0.07911 0.8951 0.0
O219 O 0.0946 0.11062 0.88074 0.0
O220 O 0.06004 0.00553 0.85233 0.0
O221 O 0.08268 0.10711 0.84995 0.0
O222 O 0.05583 0.04691 0.83672 0.0
C223 C 0.0795 0.02922 0.90948 0.0
C224 C 0.14326 0.06043 0.81482 0.0
C225 C 0.17892 0.07308 0.88877 0.0
C226 C 0.14752 0.97498 0.8632 0.0
C227 C 0.08358 0.12133 0.86558 0.0
C228 C 0.04615 0.02213 0.84115 0.0
O229 O 0.0915 0.05378 0.90788 0.0
O230 O 0.71927 0.35153 0.16964 0.0
Zn231 Zn 0.72871 0.35991 0.14243 0.0
O232 O 0.6952 0.37116 0.12778 0.0
Zn233 Zn 0.70184 0.40953 0.11684 0.0
Zn234 Zn 0.66213 0.37111 0.14506 0.0
Zn235 Zn 0.68862 0.34334 0.1075 0.0
O236 O 0.69374 0.40968 0.08801 0.0
O237 O 0.69059 0.3627 0.08192 0.0
O238 O 0.75901 0.38993 0.14202 0.0
O239 O 0.7435 0.42221 0.12086 0.0
O240 O 0.67805 0.4389 0.13153 0.0
O241 O 0.65183 0.41189 0.15134 0.0
O242 O 0.62835 0.34961 0.13384 0.0
O243 O 0.74534 0.32301 0.13261 0.0
O244 O 0.64941 0.32563 0.11002 0.0
O245 O 0.71711 0.31074 0.10822 0.0
C246 C 0.69575 0.34674 0.17839 0.0
C247 C 0.69137 0.38873 0.07618 0.0
C248 C 0.65979 0.43649 0.14517 0.0
C249 C 0.7627 0.41285 0.13238 0.0
C250 C 0.62752 0.3308 0.1205 0.0
C251 C 0.73838 0.30563 0.11925 0.0
O252 O 0.67155 0.35135 0.17033 0.0
O253 O 0.41327 0.98795 0.39563 0.0
Zn254 Zn 0.39787 0.98527 0.36894 0.0
O255 O 0.38068 0.94772 0.36459 0.0
Zn256 Zn 0.34044 0.953 0.35678 0.0
Zn257 Zn 0.38323 0.92456 0.38783 0.0
Zn258 Zn 0.40265 0.92876 0.34453 0.0
O259 O 0.33544 0.94177 0.32866 0.0
O260 O 0.37975 0.92841 0.32021 0.0
O261 O 0.36962 0.01723 0.3663 0.0
O262 O 0.3286 0.99479 0.35965 0.0
O263 O 0.31339 0.93178 0.37476 0.0
O264 O 0.34347 0.91624 0.39743 0.0
O265 O 0.40295 0.8867 0.38291 0.0
O266 O 0.43241 0.99223 0.35247 0.0
O267 O 0.41278 0.88822 0.3517 0.0
O268 O 0.4406 0.94905 0.34002 0.0
C269 C 0.41557 0.97063 0.40968 0.0
C270 C 0.3535 0.93334 0.31596 0.0
C271 C 0.31805 0.91945 0.39085 0.0
C272 C 0.34261 0.01778 0.36327 0.0
C273 C 0.41286 0.87499 0.36773 0.0
C274 C 0.44852 0.97486 0.34327 0.0
O275 O 0.40545 0.94515 0.40874 0.0
O276 O 0.23528 0.33157 0.3423 0.0
Zn277 Zn 0.23553 0.3458 0.36938 0.0
O278 O 0.19854 0.36279 0.37597 0.0
Zn279 Zn 0.20484 0.40274 0.38423 0.0
Zn280 Zn 0.17292 0.36135 0.35375 0.0
Zn281 Zn 0.18152 0.34021 0.3966 0.0
O282 O 0.19555 0.40723 0.4127 0.0
O283 O 0.18208 0.36298 0.42111 0.0
O284 O 0.26795 0.37386 0.37131 0.0
O285 O 0.24654 0.4143 0.38044 0.0
O286 O 0.18302 0.43061 0.36722 0.0
O287 O 0.16459 0.40149 0.34494 0.0
O288 O 0.13534 0.3417 0.36001 0.0
O289 O 0.24415 0.31082 0.38498 0.0
O290 O 0.14088 0.32855 0.39045 0.0
O291 O 0.20331 0.30311 0.40072 0.0
C292 C 0.21641 0.32979 0.3291 0.0
C293 C 0.18758 0.3891 0.42545 0.0
C294 C 0.16922 0.42667 0.35157 0.0
C295 C 0.26903 0.40053 0.37537 0.0
C296 C 0.12571 0.32985 0.37522 0.0
C297 C 0.22849 0.29517 0.39576 0.0
O298 O 0.19109 0.33978 0.3315 0.0
O299 O 0.9204 0.97971 0.09378 0.0
Zn300 Zn 0.90474 0.98154 0.12039 0.0
O301 O 0.88522 0.94608 0.12734 0.0
Zn302 Zn 0.84553 0.95524 0.13526 0.0
Zn303 Zn 0.88543 0.92016 0.10521 0.0
Zn304 Zn 0.90637 0.928 0.14831 0.0
O305 O 0.83951 0.94493 0.16339 0.0
O306 O 0.88222 0.92753 0.17219 0.0
O307 O 0.87867 0.01532 0.12132 0.0
O308 O 0.83755 -0.00193 0.13284 0.0
O309 O 0.81657 0.93581 0.11742 0.0
O310 O 0.84504 0.91402 0.09617 0.0
O311 O 0.90336 0.88185 0.11156 0.0
O312 O 0.93879 0.98919 0.13709 0.0
O313 O 0.9177 0.88758 0.14175 0.0
O314 O 0.94355 0.94906 0.15404 0.0
C315 C 0.92057 0.96076 0.0806 0.0
C316 C 0.85637 0.9346 0.17616 0.0
C317 C 0.82001 0.92095 0.10212 0.0
C318 C 0.85275 0.01895 0.12665 0.0
C319 C 0.91553 0.87223 0.12665 0.0
C320 C 0.9527 0.97377 0.14898 0.0
O321 O 0.90812 0.93656 0.08291 0.0
O322 O 0.26275 0.6645 0.84416 0.0
Zn323 Zn 0.26115 0.64868 0.87059 0.0
O324 O 0.29785 0.63256 0.87811 0.0
Zn325 Zn 0.29129 0.59268 0.88663 0.0
Zn326 Zn 0.32424 0.63417 0.8562 0.0
Zn327 Zn 0.31358 0.65607 0.89878 0.0
O328 O 0.30196 0.58849 0.91486 0.0
O329 O 0.3157 0.63287 0.92298 0.0
O330 O 0.22995 0.61966 0.8704 0.0
O331 O 0.24922 0.58084 0.88374 0.0
O332 O 0.31295 0.56491 0.86922 0.0
O333 O 0.33231 0.594 0.84731 0.0
O334 O 0.36169 0.65386 0.86301 0.0
O335 O 0.24967 0.68187 0.88703 0.0
O336 O 0.35339 0.66981 0.89258 0.0
O337 O 0.28947 0.69173 0.90345 0.0
C338 C 0.28197 0.66653 0.83124 0.0
C339 C 0.31092 0.60665 0.92732 0.0
C340 C 0.32713 0.5688 0.8537 0.0
C341 C 0.22787 0.59386 0.87622 0.0
C342 C 0.36978 0.66746 0.87799 0.0
C343 C 0.26386 0.69802 0.89838 0.0
O344 O 0.3071 0.6562 0.83376 0.0
O345 O 0.58632 0.01948 0.58634 0.0
Zn346 Zn 0.5978 0.01487 0.61359 0.0
O347 O 0.61653 0.04918 0.62331 0.0
Zn348 Zn 0.65505 0.03872 0.63278 0.0
Zn349 Zn 0.61886 0.07757 0.60257 0.0
Zn350 Zn 0.59328 0.06478 0.64413 0.0
O351 O 0.65902 0.04814 0.66125 0.0
O352 O 0.61464 0.06204 0.66903 0.0
O353 O 0.6232 0.98064 0.61457 0.0
O354 O 0.66256 0.99586 0.6296 0.0
O355 O 0.68578 0.05785 0.61644 0.0
O356 O 0.66027 0.08339 0.5954 0.0
O357 O 0.6009 0.11535 0.61026 0.0
O358 O 0.56102 0.00657 0.6273 0.0
O359 O 0.58381 0.10619 0.63944 0.0
O360 O 0.55509 0.04408 0.64663 0.0
C361 C 0.58679 0.03996 0.57427 0.0
C362 C 0.64049 0.0561 0.67376 0.0
C363 C 0.68436 0.0744 0.60183 0.0
C364 C 0.64812 0.97596 0.62143 0.0
C365 C 0.58766 0.12332 0.6254 0.0
C366 C 0.54588 0.02068 0.63928 0.0
O367 O 0.59797 0.0642 0.57851 0.0
H368 H 0.322 0.17416 0.19179 0.0
H369 H 0.31146 0.20333 0.22034 0.0
H370 H 0.22268 0.21048 0.20263 0.0
H371 H 0.2329 0.18173 0.17412 0.0
H372 H 0.24869 0.26335 0.21223 0.0
H373 H 0.26563 0.18063 0.26886 0.0
H374 H 0.29484 0.18492 0.25212 0.0
H375 H 0.26073 0.17144 0.24383 0.0
C376 C 0.30018 0.18169 0.19407 0.0
C377 C 0.27832 0.17559 0.18065 0.0
C378 C 0.29419 0.19827 0.21041 0.0
C379 C 0.26625 0.20884 0.21362 0.0
C380 C 0.24437 0.20249 0.2004 0.0
H381 H 0.18103 0.31614 0.29874 0.0
H382 H 0.19346 0.28789 0.27016 0.0
C383 C 0.25029 0.18598 0.18412 0.0
C384 C 0.25982 0.22746 0.23035 0.0
H385 H 0.25685 0.22829 0.27937 0.0
C386 C 0.25042 0.25572 0.22693 0.0
C387 C 0.26214 0.21736 0.24945 0.0
C388 C 0.27115 0.18687 0.25388 0.0
C389 C 0.24354 0.27433 0.24215 0.0
C390 C 0.24568 0.26418 0.26125 0.0
C391 C 0.25523 0.23596 0.26468 0.0
C392 C 0.23829 0.28248 0.27797 0.0
C393 C 0.23454 0.30482 0.23769 0.0
C394 C 0.25931 0.28854 0.29187 0.0
C395 C 0.25228 0.30448 0.30822 0.0
C396 C 0.224 0.31459 0.31106 0.0
C397 C 0.20304 0.30883 0.29695 0.0
C398 C 0.21012 0.29279 0.28058 0.0
H399 H 0.24096 0.31131 0.22292 0.0
H400 H 0.21073 0.3065 0.23874 0.0
H401 H 0.24414 0.32022 0.24812 0.0
H402 H 0.28116 0.28071 0.29013 0.0
H403 H 0.269 0.30851 0.31876 0.0
H404 H 0.43871 0.51303 0.57442 0.0
H405 H 0.46649 0.52352 0.5455 0.0
H406 H 0.44887 0.43822 0.52386 0.0
H407 H 0.42065 0.42749 0.55273 0.0
H408 H 0.51558 0.49373 0.53284 0.0
H409 H 0.42776 0.49098 0.4785 0.0
H410 H 0.42083 0.49391 0.50399 0.0
H411 H 0.43 0.45968 0.49359 0.0
C412 C 0.44047 0.49651 0.56347 0.0
C413 C 0.42741 0.46939 0.5659 0.0
C414 C 0.45641 0.50258 0.54696 0.0
C415 C 0.45949 0.48175 0.53251 0.0
C416 C 0.44631 0.45474 0.53474 0.0
H417 H 0.55256 0.47641 0.425 0.0
H418 H 0.52481 0.46545 0.45388 0.0
C419 C 0.4303 0.44862 0.55127 0.0
C420 C 0.47751 0.48804 0.51551 0.0
H421 H 0.47552 0.49489 0.46669 0.0
C422 C 0.50685 0.49409 0.51837 0.0
C423 C 0.46597 0.48844 0.49671 0.0
C424 C 0.43437 0.48316 0.49293 0.0
C425 C 0.52513 0.50016 0.50283 0.0
C426 C 0.51357 0.5006 0.48403 0.0
C427 C 0.48425 0.4945 0.48116 0.0
C428 C 0.53155 0.50713 0.46704 0.0
C429 C 0.55672 0.50548 0.5066 0.0
C430 C 0.54455 0.53425 0.46494 0.0
C431 C 0.56053 0.54063 0.44844 0.0
C432 C 0.56358 0.52003 0.43373 0.0
C433 C 0.55068 0.4928 0.43603 0.0
C434 C 0.53476 0.48647 0.4525 0.0
H435 H 0.56336 0.49754 0.52101 0.0
H436 H 0.57028 0.49487 0.4955 0.0
H437 H 0.56103 0.52898 0.50605 0.0
H438 H 0.54188 0.55064 0.47589 0.0
H439 H 0.57004 0.56184 0.44708 0.0
H440 H 0.17295 0.81824 0.69426 0.0
H441 H 0.18478 0.79078 0.72333 0.0
H442 H 0.27486 0.79312 0.70807 0.0
H443 H 0.26348 0.82069 0.67934 0.0
H444 H 0.21224 0.73669 0.7236 0.0
H445 H 0.27554 0.81751 0.76458 0.0
H446 H 0.25225 0.82719 0.74481 0.0
H447 H 0.28757 0.8128 0.74023 0.0
C448 C 0.19531 0.81329 0.69727 0.0
C449 C 0.21724 0.82165 0.68447 0.0
C450 C 0.20201 0.79756 0.71383 0.0
C451 C 0.23072 0.79026 0.71791 0.0
C452 C 0.25264 0.79903 0.70537 0.0
H453 H 0.31854 0.6841 0.80243 0.0
H454 H 0.30609 0.71294 0.77406 0.0
C455 C 0.24602 0.81465 0.68887 0.0
C456 C 0.2378 0.77182 0.73454 0.0
H457 H 0.27872 0.76885 0.77528 0.0
C458 C 0.22656 0.74377 0.73501 0.0
C459 C 0.2567 0.78111 0.74926 0.0
C460 C 0.26853 0.81138 0.74985 0.0
C461 C 0.23415 0.72451 0.74967 0.0
C462 C 0.25317 0.73376 0.76431 0.0
C463 C 0.26435 0.76182 0.76389 0.0
C464 C 0.26059 0.7151 0.78074 0.0
C465 C 0.22219 0.69429 0.7492 0.0
C466 C 0.2391 0.7069 0.79377 0.0
C467 C 0.24608 0.69058 0.8099 0.0
C468 C 0.27476 0.68219 0.81337 0.0
C469 C 0.29625 0.6901 0.80012 0.0
C470 C 0.28921 0.70661 0.78397 0.0
H471 H 0.21409 0.6884 0.73468 0.0
H472 H 0.23881 0.6784 0.75359 0.0
H473 H 0.20392 0.69271 0.75945 0.0
H474 H 0.21698 0.71366 0.79168 0.0
H475 H 0.22896 0.68489 0.81979 0.0
H476 H 0.92708 0.40536 0.94935 0.0
H477 H 0.9594 0.41279 0.97692 0.0
H478 H 0.93468 0.50228 0.97914 0.0
H479 H 0.90237 0.495 0.95203 0.0
H480 H 0.00565 0.45076 0.97486 0.0
H481 H 0.93458 0.48052 0.03558 0.0
H482 H 0.9213 0.4624 0.01434 0.0
H483 H 0.92653 0.50083 0.01433 0.0
C484 C 0.92785 0.42633 0.95618 0.0
C485 C 0.91234 0.44964 0.94853 0.0
C486 C 0.94642 0.43059 0.97181 0.0
C487 C 0.94926 0.45804 0.98012 0.0
C488 C 0.93244 0.48082 0.97319 0.0
H489 H 0.0622 0.55617 0.05245 0.0
H490 H 0.02913 0.53891 0.02748 0.0
C491 C 0.9141 0.47665 0.9576 0.0
C492 C 0.97212 0.46414 0.99437 0.0
H493 H 0.98395 0.49642 0.03776 0.0
C494 C 0.00095 0.46025 0.98877 0.0
C495 C 0.96587 0.47671 0.01242 0.0
C496 C 0.93537 0.4801 0.0196 0.0
C497 C 0.02373 0.46977 0.00044 0.0
C498 C 0.01739 0.48331 0.01813 0.0
C499 C 0.98863 0.48641 0.024 0.0
C500 C 0.04024 0.49399 0.03105 0.0
C501 C 0.05435 0.46622 0.99354 0.0
C502 C 0.05784 0.47445 0.04087 0.0
C503 C 0.07665 0.48419 0.05512 0.0
C504 C 0.07813 0.51366 0.05979 0.0
C505 C 0.06167 0.53338 0.04912 0.0
C506 C 0.04267 0.52356 0.03494 0.0
H507 H 0.05539 0.46015 0.97809 0.0
H508 H 0.06672 0.48646 0.99572 0.0
H509 H 0.06502 0.44905 0.00203 0.0
H510 H 0.05605 0.45153 0.03816 0.0
H511 H 0.08912 0.46846 0.06305 0.0
H512 H 0.77152 0.82529 0.81697 0.0
H513 H 0.78409 0.79412 0.79001 0.0
H514 H 0.69386 0.78063 0.778 0.0
H515 H 0.681 0.81233 0.80483 0.0
H516 H 0.77018 0.73708 0.78705 0.0
H517 H 0.7264 0.79795 0.72496 0.0
H518 H 0.73137 0.81407 0.74837 0.0
H519 H 0.7005 0.79167 0.74368 0.0
C520 C 0.75429 0.81606 0.80843 0.0
C521 C 0.72522 0.82124 0.81306 0.0
C522 C 0.76155 0.79822 0.79305 0.0
C523 C 0.73994 0.78521 0.78196 0.0
C524 C 0.71088 0.7909 0.78617 0.0
H525 H 0.73514 0.6584 0.69217 0.0
H526 H 0.72542 0.68976 0.71952 0.0
C527 C 0.70356 0.80895 0.80153 0.0
C528 C 0.74794 0.76428 0.76681 0.0
H529 H 0.74114 0.7497 0.71894 0.0
C530 C 0.76402 0.73991 0.77212 0.0
C531 C 0.73989 0.7681 0.74738 0.0
C532 C 0.72382 0.79449 0.74068 0.0
C533 C 0.77174 0.71891 0.75855 0.0
C534 C 0.76332 0.72256 0.73921 0.0
C535 C 0.74746 0.747 0.73385 0.0
C536 C 0.77009 0.70102 0.72424 0.0
C537 C 0.7882 0.69266 0.76503 0.0
C538 C 0.79858 0.69646 0.71817 0.0
C539 C 0.80431 0.67844 0.70247 0.0
C540 C 0.78155 0.66495 0.69258 0.0
C541 C 0.75319 0.6686 0.69936 0.0
C542 C 0.74753 0.68653 0.71498 0.0
H543 H 0.78827 0.69044 0.78095 0.0
H544 H 0.77883 0.67283 0.75862 0.0
H545 H 0.81088 0.69438 0.76008 0.0
H546 H 0.81624 0.70774 0.72506 0.0
H547 H 0.82635 0.67618 0.69756 0.0
H548 H 0.65325 0.3163 0.19692 0.0
H549 H 0.65973 0.2842 0.22465 0.0
H550 H 0.74826 0.31142 0.22961 0.0
H551 H 0.74213 0.34346 0.20216 0.0
H552 H 0.72872 0.24477 0.22223 0.0
H553 H 0.68546 0.30422 0.28573 0.0
H554 H 0.66781 0.30638 0.2626 0.0
H555 H 0.70209 0.32339 0.26602 0.0
C556 C 0.67384 0.31604 0.20426 0.0
C557 C 0.69726 0.33218 0.19724 0.0
C558 C 0.67751 0.29765 0.22001 0.0
C559 C 0.7045 0.29548 0.22896 0.0
C560 C 0.72731 0.31288 0.22278 0.0
H561 H 0.8006 0.18512 0.3037 0.0
H562 H 0.78292 0.21557 0.27757 0.0
C563 C 0.72373 0.33115 0.2071 0.0
C564 C 0.71015 0.27306 0.24342 0.0
H565 H 0.70856 0.25991 0.29159 0.0
C566 C 0.72408 0.24783 0.2374 0.0
C567 C 0.70389 0.2773 0.26304 0.0
C568 C 0.68897 0.30424 0.26992 0.0
C569 C 0.7325 0.22677 0.25067 0.0
C570 C 0.72736 0.2315 0.27047 0.0
C571 C 0.71259 0.25641 0.27639 0.0
C572 C 0.73791 0.2114 0.28537 0.0
C573 C 0.74678 0.1997 0.24336 0.0
C574 C 0.7185 0.19916 0.29847 0.0
C575 C 0.72854 0.18201 0.31349 0.0
C576 C 0.75824 0.17682 0.31573 0.0
C577 C 0.7776 0.1885 0.30228 0.0
C578 C 0.76752 0.20582 0.2873 0.0
H579 H 0.74121 0.19546 0.22807 0.0
H580 H 0.77053 0.20226 0.24428 0.0
H581 H 0.74047 0.1807 0.25208 0.0
H582 H 0.69558 0.20325 0.29723 0.0
H583 H 0.71302 0.17328 0.32356 0.0
H584 H 0.92788 0.92555 0.04918 0.0
H585 H 0.95577 0.93589 0.02004 0.0
H586 H 0.97648 0.02024 0.04209 0.0
H587 H 0.94905 0.0102 0.07119 0.0
H588 H 0.94836 0.98211 0.99337 0.0
H589 H 0.05566 0.98538 0.02868 0.0
H590 H 0.02436 0.96958 0.03997 0.0
H591 H 0.02902 0.00801 0.03977 0.0
C592 C 0.93837 0.94629 0.04783 0.0
C593 C 0.93637 0.96696 0.06258 0.0
C594 C 0.95428 0.95214 0.03119 0.0
C595 C 0.96856 0.97861 0.02914 0.0
C596 C 0.96611 -0.00054 0.04362 0.0
H597 H 0.07196 0.06222 0.94189 0.0
H598 H 0.04481 0.04947 0.97089 0.0
C599 C 0.95025 0.99369 0.0602 0.0
C600 C 0.98564 0.98485 0.01171 0.0
H601 H 0.05337 0.00222 0.99642 0.0
C602 C 0.97135 0.98629 0.99396 0.0
C603 C 0.01559 0.99039 0.01264 0.0
C604 C 0.03217 0.98803 0.03125 0.0
C605 C 0.98616 0.99382 0.97712 0.0
C606 C 0.01608 -0.00044 0.97808 0.0
C607 C 0.0304 -0.00208 0.9958 0.0
C608 C 0.03296 0.007 0.96077 0.0
C609 C 0.96955 0.99628 0.95852 0.0
C610 C 0.0357 0.98707 0.94574 0.0
C611 C 0.05112 0.99423 0.92921 0.0
C612 C 0.06426 0.02144 0.92744 0.0
C613 C 0.06204 0.04114 0.94276 0.0
C614 C 0.04655 0.03391 0.95932 0.0
H615 H 0.94599 -0.00173 0.96108 0.0
H616 H 0.97692 0.01517 0.95006 0.0
H617 H 0.97324 0.97665 0.94975 0.0
H618 H 0.02585 0.96597 0.94679 0.0
H619 H 0.05255 0.97844 0.91777 0.0
H620 H 0.43606 0.02452 0.41756 0.0
H621 H 0.46681 0.03919 0.44433 0.0
H622 H 0.46315 0.9531 0.46737 0.0
H623 H 0.43243 0.93802 0.44054 0.0
H624 H 0.45663 0.03544 0.48517 0.0
H625 H 0.55072 0.97099 0.46089 0.0
H626 H 0.52076 0.97941 0.44529 0.0
H627 H 0.51751 0.95124 0.46286 0.0
C628 C 0.44162 0.00867 0.42835 0.0
C629 C 0.43196 0.98 0.42683 0.0
C630 C 0.45919 0.01714 0.44363 0.0
C631 C 0.46757 -0.0029 0.45757 0.0
C632 C 0.45724 0.96873 0.45651 0.0
H633 H 0.56588 0.98956 0.55994 0.0
H634 H 0.53863 0.98216 0.53048 0.0
C635 C 0.43956 0.96021 0.44125 0.0
C636 C 0.48739 0.00581 0.47313 0.0
H637 H 0.55388 0.9922 0.49193 0.0
C638 C 0.47801 0.02625 0.48661 0.0
C639 C 0.5153 0.99389 0.47474 0.0
C640 C 0.52687 0.97285 0.4601 0.0
C641 C 0.49541 0.03414 0.50226 0.0
C642 C 0.52303 0.0216 0.50417 0.0
C643 C 0.5327 0.0018 0.49035 0.0
C644 C 0.54109 0.0266 0.52135 0.0
C645 C 0.48365 0.05484 0.51706 0.0
C646 C 0.55207 0.05402 0.52575 0.0
C647 C 0.56774 0.05843 0.54272 0.0
C648 C 0.57261 0.03543 0.55545 0.0
C649 C 0.56237 0.00784 0.55056 0.0
C650 C 0.54682 0.0035 0.53369 0.0
H651 H 0.46013 0.05848 0.51527 0.0
H652 H 0.48766 0.0467 0.53183 0.0
H653 H 0.49477 0.07589 0.5156 0.0
H654 H 0.54824 0.07201 0.51619 0.0
H655 H 0.57543 0.07989 0.54605 0.0
H656 H 0.23033 0.04417 0.88993 0.0
H657 H 0.26445 0.044 0.91689 0.0
H658 H 0.21726 0.11308 0.94381 0.0
H659 H 0.18298 0.11322 0.91718 0.0
H660 H 0.29897 0.08946 0.93914 0.0
H661 H 0.20851 0.03807 0.97848 0.0
H662 H 0.2098 0.04013 0.95256 0.0
H663 H 0.19887 0.07091 0.96646 0.0
C664 C 0.22782 0.06001 0.90126 0.0
C665 C 0.20374 0.07844 0.90161 0.0
C666 C 0.24728 0.0598 0.91666 0.0
C667 C 0.24295 0.07816 0.93242 0.0
C668 C 0.22068 0.09852 0.93183 0.0
H669 H 0.31689 0.13455 0.03472 0.0
H670 H 0.30775 0.12323 0.00121 0.0
C671 C 0.20115 0.0986 0.9166 0.0
C672 C 0.25882 0.07375 0.95059 0.0
H673 H 0.24696 0.0566 0.99753 0.0
C674 C 0.28786 0.08186 0.9519 0.0
C675 C 0.24447 0.06297 0.96701 0.0
C676 C 0.21377 0.05223 0.96609 0.0
C677 C 0.30236 0.08139 0.96966 0.0
C678 C 0.28711 0.07316 0.98645 0.0
C679 C 0.25869 0.0631 0.98475 0.0
C680 C 0.29847 0.07812 0.00614 0.0
C681 C 0.33365 0.09014 0.97027 0.0
C682 C 0.29643 0.05654 0.02024 0.0
C683 C 0.30104 0.06312 0.03965 0.0
C684 C 0.30779 0.09144 0.04527 0.0
C685 C 0.31167 0.1125 0.03097 0.0
C686 C 0.3068 0.10597 0.01166 0.0
H687 H 0.34474 0.08428 0.95665 0.0
H688 H 0.33511 0.11388 0.97188 0.0
H689 H 0.34517 0.07988 0.98247 0.0
H690 H 0.28987 0.0349 0.01634 0.0
H691 H 0.29803 0.04635 0.05027 0.0
H692 H 0.67898 0.52116 0.30145 0.0
H693 H 0.684 0.51688 0.26665 0.0
H694 H 0.63054 0.59205 0.25898 0.0
H695 H 0.62421 0.59539 0.29382 0.0
H696 H 0.61002 0.5521 0.23861 0.0
H697 H 0.72618 0.5522 0.22356 0.0
H698 H 0.71938 0.52604 0.24188 0.0
H699 H 0.71209 0.56361 0.24655 0.0
C700 C 0.66907 0.5373 0.29236 0.0
C701 C 0.65111 0.5585 0.3003 0.0
C702 C 0.67209 0.53497 0.27241 0.0
C703 C 0.65792 0.55434 0.26006 0.0
C704 C 0.64168 0.57683 0.26813 0.0
H705 H 0.68167 0.49139 0.14252 0.0
H706 H 0.6778 0.5292 0.16693 0.0
C707 C 0.63813 0.57876 0.28805 0.0
C708 C 0.65644 0.54837 0.23906 0.0
H709 H 0.69655 0.52244 0.2018 0.0
C710 C 0.62909 0.5464 0.23042 0.0
C711 C 0.68115 0.54169 0.22799 0.0
C712 C 0.71131 0.54637 0.23548 0.0
C713 C 0.62567 0.5354 0.21176 0.0
C714 C 0.6501 0.52513 0.20173 0.0
C715 C 0.67764 0.5297 0.2096 0.0
C716 C 0.64746 0.50588 0.18473 0.0
C717 C 0.59575 0.5341 0.20331 0.0
C718 C 0.6308 0.48072 0.18618 0.0
C719 C 0.63268 0.45929 0.17218 0.0
C720 C 0.65175 0.46224 0.15659 0.0
C721 C 0.66677 0.48838 0.15434 0.0
C722 C 0.66471 0.50999 0.16835 0.0
H723 H 0.58274 0.55286 0.2081 0.0
H724 H 0.59622 0.53374 0.18734 0.0
H725 H 0.58469 0.51439 0.20851 0.0
H726 H 0.61785 0.4766 0.19884 0.0
H727 H 0.62072 0.43952 0.17438 0.0
H728 H 0.1783 0.85391 0.53741 0.0
H729 H 0.18955 0.86378 0.50389 0.0
H730 H 0.20438 0.95316 0.51765 0.0
H731 H 0.19404 0.94332 0.55155 0.0
H732 H 0.1731 0.9002 0.47417 0.0
H733 H 0.28355 0.92504 0.50092 0.0
H734 H 0.25605 0.91013 0.51627 0.0
H735 H 0.25543 0.94773 0.51012 0.0
C736 C 0.18342 0.87584 0.53334 0.0
C737 C 0.18604 0.89768 0.54729 0.0
C738 C 0.18968 0.88145 0.51409 0.0
C739 C 0.19848 0.90902 0.50838 0.0
C740 C 0.19825 0.93156 0.52188 0.0
H741 H 0.26538 0.94572 0.39275 0.0
H742 H 0.23138 0.9429 0.41968 0.0
C743 C 0.19227 0.92591 0.54124 0.0
C744 C 0.21175 0.91278 0.48917 0.0
H745 H 0.27678 0.92442 0.46766 0.0
C746 C 0.19568 0.90583 0.47265 0.0
C747 C 0.24135 0.91967 0.48733 0.0
C748 C 0.26024 0.92585 0.50457 0.0
C749 C 0.20867 0.90496 0.45437 0.0
C750 C 0.23831 0.91144 0.45268 0.0
C751 C 0.25405 0.91932 0.46908 0.0
C752 C 0.25436 0.90886 0.43436 0.0
C753 C 0.19102 0.89602 0.43716 0.0
C754 C 0.27795 0.89003 0.4334 0.0
C755 C 0.2975 0.89184 0.41824 0.0
C756 C 0.29371 0.9124 0.40368 0.0
C757 C 0.26869 0.9295 0.40371 0.0
C758 C 0.24923 0.92791 0.41908 0.0
H759 H 0.16984 0.88681 0.4414 0.0
H760 H 0.18705 0.91511 0.42795 0.0
H761 H 0.20287 0.87988 0.42841 0.0
H762 H 0.28222 0.87513 0.44504 0.0
H763 H 0.31651 0.8783 0.41852 0.0
H764 H 0.80287 0.50628 0.64932 0.0
H765 H 0.80484 0.47386 0.67705 0.0
H766 H 0.87564 0.52281 0.70042 0.0
H767 H 0.87373 0.55543 0.67294 0.0
H768 H 0.85345 0.44181 0.70047 0.0
H769 H 0.79915 0.53514 0.73503 0.0
H770 H 0.80051 0.53035 0.70926 0.0
H771 H 0.8315 0.54366 0.72196 0.0
C772 C 0.81965 0.50945 0.65994 0.0
C773 C 0.83785 0.5337 0.65913 0.0
C774 C 0.82067 0.49092 0.6758 0.0
C775 C 0.84006 0.49633 0.69084 0.0
C776 C 0.86039 0.5185 0.68896 0.0
H777 H 0.89144 0.43277 0.79854 0.0
H778 H 0.88355 0.44021 0.7644 0.0
C779 C 0.85927 0.5371 0.67325 0.0
C780 C 0.83609 0.48247 0.70976 0.0
H781 H 0.81644 0.49857 0.75574 0.0
C782 C 0.84504 0.45397 0.71256 0.0
C783 C 0.82437 0.49821 0.72531 0.0
C784 C 0.81306 0.52846 0.7228 0.0
C785 C 0.84409 0.44133 0.73093 0.0
C786 C 0.83443 0.45791 0.74681 0.0
C787 C 0.82393 0.48583 0.74365 0.0
C788 C 0.83777 0.44832 0.76704 0.0
C789 C 0.85369 0.41049 0.73315 0.0
C790 C 0.81467 0.45047 0.78006 0.0
C791 C 0.81924 0.44678 0.79981 0.0
C792 C 0.84701 0.44091 0.80687 0.0
C793 C 0.86974 0.43729 0.79367 0.0
C794 C 0.86521 0.44119 0.77401 0.0
H795 H 0.84957 0.39801 0.71978 0.0
H796 H 0.87725 0.41002 0.73587 0.0
H797 H 0.84253 0.39973 0.74531 0.0
H798 H 0.79333 0.45615 0.77501 0.0
H799 H 0.80124 0.4496 0.80955 0.0
H800 H 0.76466 0.94211 0.1044 0.0
H801 H 0.7269 0.93791 0.07984 0.0
H802 H 0.78225 0.88272 0.04624 0.0
H803 H 0.81929 0.88597 0.0707 0.0
H804 H 0.73051 0.95708 0.04427 0.0
H805 H 0.70806 0.84118 0.0398 0.0
H806 H 0.72698 0.85671 0.06 0.0
H807 H 0.74626 0.84625 0.03854 0.0
C808 C 0.76838 0.92835 0.09206 0.0
C809 C 0.79507 0.91446 0.0895 0.0
C810 C 0.74683 0.92609 0.07799 0.0
C811 C 0.75154 0.90971 0.06127 0.0
C812 C 0.77767 0.89485 0.0592 0.0
H813 H 0.72477 0.93736 0.94475 0.0
H814 H 0.73157 0.9435 0.97927 0.0
C815 C 0.79905 0.89697 0.07319 0.0
C816 C 0.73113 0.91064 0.04482 0.0
H817 H 0.70442 0.86769 0.0093 0.0
C818 C 0.72408 0.93753 0.03687 0.0
C819 C 0.7219 0.88527 0.03537 0.0
C820 C 0.72595 0.85579 0.04406 0.0
C821 C 0.71049 0.93963 0.01887 0.0
C822 C 0.70473 0.91419 0.00827 0.0
C823 C 0.70933 0.88735 0.01709 0.0
C824 C 0.69696 0.91458 0.98749 0.0
C825 C 0.70306 0.96913 0.0113 0.0
C826 C 0.67528 0.89628 0.9804 0.0
C827 C 0.67201 0.89206 0.96062 0.0
C828 C 0.69002 0.90645 0.94751 0.0
C829 C 0.71032 0.9263 0.95451 0.0
C830 C 0.71406 0.92998 0.97432 0.0
H831 H 0.69702 0.9838 0.02328 0.0
H832 H 0.72227 0.97853 0.00415 0.0
H833 H 0.685 0.96833 0.00084 0.0
H834 H 0.66179 0.88414 0.99021 0.0
H835 H 0.65612 0.87668 0.95559 0.0
H836 H 0.30798 0.51291 0.85665 0.0
H837 H 0.31223 0.47511 0.83217 0.0
H838 H 0.36511 0.5314 0.79764 0.0
H839 H 0.36166 0.56866 0.82202 0.0
H840 H 0.29133 0.47933 0.7967 0.0
H841 H 0.4074 0.45736 0.79073 0.0
H842 H 0.39228 0.47594 0.81121 0.0
H843 H 0.40176 0.49546 0.78969 0.0
C844 C 0.3213 0.51686 0.84413 0.0
C845 C 0.33437 0.54389 0.84126 0.0
C846 C 0.32358 0.49527 0.83011 0.0
C847 C 0.33921 0.50027 0.81313 0.0
C848 C 0.35351 0.52668 0.81079 0.0
H849 H 0.30982 0.47204 0.69687 0.0
H850 H 0.30416 0.47971 0.73135 0.0
C851 C 0.3513 0.54814 0.82473 0.0
C852 C 0.33783 0.47986 0.79671 0.0
H853 H 0.37971 0.45251 0.76086 0.0
C854 C 0.31067 0.47276 0.7891 0.0
C855 C 0.36293 0.47057 0.78699 0.0
C856 C 0.39268 0.47498 0.79526 0.0
C857 C 0.30802 0.45894 0.77121 0.0
C858 C 0.33316 0.45286 0.76041 0.0
C859 C 0.3603 0.45762 0.76885 0.0
C860 C 0.33216 0.44454 0.73976 0.0
C861 C 0.27826 0.45166 0.76393 0.0
C862 C 0.34964 0.42213 0.73283 0.0
C863 C 0.35347 0.41821 0.71307 0.0
C864 C 0.33963 0.43642 0.69983 0.0
C865 C 0.3205 0.45746 0.70671 0.0
C866 C 0.31711 0.46173 0.72649 0.0
H867 H 0.26362 0.44631 0.77606 0.0
H868 H 0.2691 0.47069 0.75648 0.0
H869 H 0.27865 0.43322 0.75375 0.0
H870 H 0.36149 0.40857 0.74273 0.0
H871 H 0.36827 0.40172 0.70816 0.0
H872 H 0.8228 0.13397 0.45712 0.0
H873 H 0.81527 0.12235 0.49072 0.0
H874 H 0.79587 0.03435 0.47542 0.0
H875 H 0.80234 0.04614 0.4414 0.0
H876 H 0.7537 0.05642 0.4947 0.0
H877 H 0.85241 0.08303 0.53489 0.0
H878 H 0.84282 0.11285 0.5199 0.0
H879 H 0.85237 0.07884 0.50905 0.0
C880 C 0.81765 0.11191 0.46084 0.0
C881 C 0.81269 0.0911 0.44647 0.0
C882 C 0.81371 0.10519 0.48021 0.0
C883 C 0.80527 0.07739 0.48572 0.0
C884 C 0.80249 0.05596 0.47152 0.0
H885 H 0.73365 0.04199 0.60063 0.0
H886 H 0.76881 0.04126 0.5743 0.0
C887 C 0.80616 0.06274 0.45206 0.0
C888 C 0.79424 0.07249 0.5055 0.0
H889 H 0.80691 0.08889 0.55275 0.0
C890 C 0.76571 0.06277 0.5074 0.0
C891 C 0.80979 0.08065 0.5222 0.0
C892 C 0.84115 0.08911 0.52138 0.0
C893 C 0.75174 0.06292 0.52523 0.0
C894 C 0.76646 0.07352 0.54156 0.0
C895 C 0.79555 0.08135 0.54006 0.0
C896 C 0.75079 0.07822 0.55978 0.0
C897 C 0.72081 0.05288 0.52635 0.0
C898 C 0.73015 0.1002 0.56076 0.0
C899 C 0.71 0.10062 0.57564 0.0
C900 C 0.71028 0.0791 0.58985 0.0
C901 C 0.7329 0.05889 0.58992 0.0
C902 C 0.75298 0.05838 0.57488 0.0
H903 H 0.7147 0.03962 0.51367 0.0
H904 H 0.7171 0.04006 0.5396 0.0
H905 H 0.70638 0.07192 0.52685 0.0
H906 H 0.7283 0.11577 0.54923 0.0
H907 H 0.69301 0.1166 0.57527 0.0
H908 H 0.19613 0.47914 0.35058 0.0
H909 H 0.19469 0.51348 0.32386 0.0
H910 H 0.12688 0.46403 0.29715 0.0
H911 H 0.12849 0.42947 0.32352 0.0
H912 H 0.17931 0.46893 0.27589 0.0
H913 H 0.13875 0.57549 0.30079 0.0
H914 H 0.16507 0.55733 0.31547 0.0
H915 H 0.12966 0.54232 0.31295 0.0
C916 C 0.18014 0.47621 0.33938 0.0
C917 C 0.16263 0.45144 0.33901 0.0
C918 C 0.17937 0.49587 0.32413 0.0
C919 C 0.16077 0.49118 0.30853 0.0
C920 C 0.14143 0.46795 0.30907 0.0
H921 H 0.10892 0.565 0.20476 0.0
H922 H 0.11832 0.55443 0.23838 0.0
C923 C 0.14236 0.44823 0.32415 0.0
C924 C 0.16447 0.50715 0.2903 0.0
H925 H 0.15289 0.57174 0.26826 0.0
C926 C 0.17381 0.4915 0.27421 0.0
C927 C 0.15744 0.53657 0.28832 0.0
C928 C 0.14701 0.55405 0.30522 0.0
C929 C 0.17497 0.504 0.25592 0.0
C930 C 0.16733 0.53334 0.25375 0.0
C931 C 0.15906 0.54938 0.27002 0.0
C932 C 0.16382 0.54617 0.23437 0.0
C933 C 0.18265 0.48509 0.23897 0.0
C934 C 0.18662 0.54659 0.22107 0.0
C935 C 0.18122 0.55213 0.20161 0.0
C936 C 0.153 0.55778 0.19527 0.0
C937 C 0.13086 0.56029 0.20903 0.0
C938 C 0.13621 0.55443 0.22836 0.0
H939 H 0.1824 0.46185 0.24275 0.0
H940 H 0.16741 0.48854 0.22688 0.0
H941 H 0.20466 0.49056 0.23392 0.0
H942 H 0.20826 0.54098 0.22553 0.0
H943 H 0.19885 0.55047 0.19145 0.0
H944 H 0.81367 0.63439 0.54394 0.0
H945 H 0.80302 0.62508 0.51022 0.0
H946 H 0.78277 0.53671 0.52361 0.0
H947 H 0.79269 0.54597 0.55768 0.0
H948 H 0.81947 0.58655 0.48089 0.0
H949 H 0.70609 0.57009 0.50489 0.0
H950 H 0.73359 0.58376 0.52077 0.0
H951 H 0.73216 0.546 0.51513 0.0
C952 C 0.80743 0.61278 0.53976 0.0
C953 C 0.80334 0.59109 0.55363 0.0
C954 C 0.80153 0.60748 0.5204 0.0
C955 C 0.79153 0.5804 0.5145 0.0
C956 C 0.78996 0.55794 0.52797 0.0
H957 H 0.72854 0.54205 0.3983 0.0
H958 H 0.76133 0.54448 0.4259 0.0
C959 C 0.79571 0.56325 0.54743 0.0
C960 C 0.77916 0.57718 0.49496 0.0
H961 H 0.71485 0.56919 0.47179 0.0
C962 C 0.79666 0.58242 0.47882 0.0
C963 C 0.7493 0.57227 0.49238 0.0
C964 C 0.72907 0.56793 0.50917 0.0
C965 C 0.78491 0.58334 0.46017 0.0
C966 C 0.75503 0.57878 0.45771 0.0
C967 C 0.73777 0.57278 0.47378 0.0
C968 C 0.74042 0.58134 0.43886 0.0
C969 C 0.80418 0.59022 0.44332 0.0
C970 C 0.71853 0.60191 0.43667 0.0
C971 C 0.69969 0.60041 0.42109 0.0
C972 C 0.70245 0.57837 0.40736 0.0
C973 C 0.72604 0.55942 0.40858 0.0
C974 C 0.7448 0.56077 0.42435 0.0
H975 H 0.82579 0.59784 0.44799 0.0
H976 H 0.80705 0.57057 0.43442 0.0
H977 H 0.79415 0.60696 0.4341 0.0
H978 H 0.71486 0.61799 0.44771 0.0
H979 H 0.6818 0.61537 0.42047 0.0
H980 H 0.12582 0.09822 0.78716 0.0
H981 H 0.13135 0.09248 0.75234 0.0
H982 H 0.18388 0.01712 0.76166 0.0
H983 H 0.17971 0.0237 0.79638 0.0
H984 H 0.20096 0.04507 0.73021 0.0
H985 H 0.08164 0.03209 0.72835 0.0
H986 H 0.09433 0.06677 0.73597 0.0
H987 H 0.10122 0.03556 0.75058 0.0
C988 C 0.13921 0.08092 0.78173 0.0
C989 C 0.152 0.06114 0.79442 0.0
C990 C 0.14214 0.07752 0.76185 0.0
C991 C 0.15713 0.05377 0.75438 0.0
C992 C 0.17198 0.03549 0.76707 0.0
H993 H 0.13027 0.92942 0.67335 0.0
H994 H 0.12722 0.96711 0.69746 0.0
C995 C 0.16963 0.03927 0.78694 0.0
C996 C 0.15492 0.04573 0.73376 0.0
H997 H 0.10689 0.02085 0.70041 0.0
C998 C 0.1804 0.04021 0.72352 0.0
C999 C 0.12798 0.03938 0.7251 0.0
C1000 C 0.09972 0.0435 0.73556 0.0
C1001 C 0.17984 0.02656 0.70549 0.0
C1002 C 0.15293 0.01909 0.69722 0.0
C1003 C 0.12742 0.02672 0.70677 0.0
C1004 C 0.15083 -0.00129 0.68083 0.0
C1005 C 0.20808 0.01821 0.69624 0.0
C1006 C 0.16381 0.00438 0.66298 0.0
C1007 C 0.16588 0.98256 0.6491 0.0
C1008 C 0.15476 0.95491 0.65287 0.0
C1009 C 0.13942 0.95031 0.67003 0.0
C1010 C 0.13759 0.97193 0.68387 0.0
H1011 H 0.22672 0.02159 0.70603 0.0
H1012 H 0.20772 0.99522 0.69182 0.0
H1013 H 0.21158 0.03149 0.6832 0.0
H1014 H 0.17346 0.02517 0.66012 0.0
H1015 H 0.17763 0.98691 0.63595 0.0
H1016 H 0.7037 0.35034 0.04788 0.0
H1017 H 0.70818 0.35926 0.01362 0.0
H1018 H 0.68209 0.44755 0.02219 0.0
H1019 H 0.67897 0.43906 0.05699 0.0
H1020 H 0.67377 0.37513 0.98549 0.0
H1021 H 0.75757 0.45968 0.99626 0.0
H1022 H 0.74432 0.43803 0.01583 0.0
H1023 H 0.7231 0.46744 0.00673 0.0
C1024 C 0.69875 0.37168 0.04254 0.0
C1025 C 0.69137 0.39413 0.05521 0.0
C1026 C 0.7012 0.37672 0.02287 0.0
C1027 C 0.69599 0.40421 0.0153 0.0
C1028 C 0.68702 0.42636 0.02775 0.0
H1029 H 0.75675 0.4494 0.90004 0.0
H1030 H 0.72098 0.44764 0.92588 0.0
C1031 C 0.68512 0.42147 0.04761 0.0
C1032 C 0.70202 0.40946 0.99462 0.0
H1033 H 0.7484 0.44501 0.96478 0.0
C1034 C 0.68975 0.39076 0.98092 0.0
C1035 C 0.72287 0.42988 0.9886 0.0
C1036 C 0.73794 0.44976 0.00259 0.0
C1037 C 0.69905 0.39075 0.9617 0.0
C1038 C 0.72081 0.41016 0.95602 0.0
C1039 C 0.73154 0.43026 0.96928 0.0
C1040 C 0.73618 0.40728 0.93751 0.0
C1041 C 0.68656 0.36922 0.94776 0.0
C1042 C 0.75578 0.38457 0.93513 0.0
C1043 C 0.77652 0.3857 0.92059 0.0
C1044 C 0.77778 0.40946 0.90812 0.0
C1045 C 0.75623 0.43071 0.90934 0.0
C1046 C 0.73579 0.42981 0.92412 0.0
H1047 H 0.66561 0.36053 0.9529 0.0
H1048 H 0.68346 0.37915 0.93338 0.0
H1049 H 0.70179 0.35097 0.9461 0.0
H1050 H 0.75662 0.36718 0.9455 0.0
H1051 H 0.79282 0.36902 0.91999 0.0
H1052 H 0.30031 0.00985 0.14015 0.0
H1053 H 0.30028 0.97552 0.16691 0.0
H1054 H 0.36781 0.02397 0.19469 0.0
H1055 H 0.36776 0.05852 0.16825 0.0
H1056 H 0.3446 0.94156 0.1893 0.0
H1057 H 0.2927 0.03141 0.22886 0.0
H1058 H 0.29559 0.03067 0.20296 0.0
H1059 H 0.32597 0.0413 0.21739 0.0
C1060 C 0.31587 0.01263 0.15162 0.0
C1061 C 0.33374 0.03714 0.15227 0.0
C1062 C 0.31574 0.99303 0.16691 0.0
C1063 C 0.33363 -0.00235 0.18287 0.0
C1064 C 0.35358 0.02035 0.18256 0.0
H1065 H 0.38801 0.92258 0.28502 0.0
H1066 H 0.37703 0.93126 0.25145 0.0
C1067 C 0.35356 0.04002 0.16744 0.0
C1068 C 0.32899 0.9816 0.20093 0.0
H1069 H 0.31094 0.99283 0.24781 0.0
C1070 C 0.33686 0.95251 0.20208 0.0
C1071 C 0.31793 0.99572 0.21737 0.0
C1072 C 0.30726 0.02642 0.21661 0.0
C1073 C 0.3359 0.93775 0.21973 0.0
C1074 C 0.32743 0.95276 0.23657 0.0
C1075 C 0.31762 0.98125 0.235 0.0
C1076 C 0.33197 0.94115 0.25622 0.0
C1077 C 0.34437 0.90642 0.22015 0.0
C1078 C 0.31027 0.94353 0.27026 0.0
C1079 C 0.3167 0.93924 0.28971 0.0
C1080 C 0.34495 0.93242 0.29543 0.0
C1081 C 0.36602 0.92789 0.28119 0.0
C1082 C 0.35968 0.9325 0.26183 0.0
H1083 H 0.33848 0.89557 0.20645 0.0
H1084 H 0.36811 0.90476 0.22177 0.0
H1085 H 0.33392 0.89481 0.23225 0.0
H1086 H 0.28874 0.95028 0.26627 0.0
H1087 H 0.29991 0.94271 0.30028 0.0
H1088 H 0.26316 0.45077 0.60056 0.0
H1089 H 0.23071 0.44765 0.57281 0.0
H1090 H 0.27491 0.3712 0.55354 0.0
H1091 H 0.30767 0.37454 0.5809 0.0
H1092 H 0.27706 0.41732 0.52794 0.0
H1093 H 0.16457 0.39616 0.55185 0.0
H1094 H 0.18393 0.42399 0.56445 0.0
H1095 H 0.19553 0.38727 0.56645 0.0
C1096 C 0.26518 0.43265 0.59082 0.0
C1097 C 0.28809 0.41303 0.59277 0.0
C1098 C 0.24662 0.43091 0.57496 0.0
C1099 C 0.25049 0.40925 0.56109 0.0
C1100 C 0.27162 0.38812 0.56406 0.0
H1101 H 0.17469 0.3552 0.45641 0.0
H1102 H 0.18555 0.36503 0.49005 0.0
C1103 C 0.2903 0.39003 0.57972 0.0
C1104 C 0.23624 0.41108 0.54206 0.0
H1105 H 0.17167 0.40575 0.51872 0.0
C1106 C 0.25399 0.41493 0.52592 0.0
C1107 C 0.20617 0.40809 0.53954 0.0
C1108 C 0.18633 0.40345 0.55643 0.0
C1109 C 0.24269 0.41495 0.50726 0.0
C1110 C 0.2126 0.41179 0.50464 0.0
C1111 C 0.19467 0.40856 0.52081 0.0
C1112 C 0.20018 0.40863 0.48511 0.0
C1113 C 0.26331 0.41701 0.49049 0.0
C1114 C 0.20343 0.43042 0.47128 0.0
C1115 C 0.19757 0.42478 0.45189 0.0
C1116 C 0.1881 0.39731 0.44608 0.0
C1117 C 0.18231 0.37649 0.46028 0.0
C1118 C 0.18836 0.38209 0.4796 0.0
H1119 H 0.28603 0.41339 0.49494 0.0
H1120 H 0.25774 0.40102 0.47919 0.0
H1121 H 0.2619 0.43883 0.48407 0.0
H1122 H 0.21202 0.45126 0.47533 0.0
H1123 H 0.20191 0.44143 0.44139 0.0
H1124 H 0.87872 0.90218 0.20528 0.0
H1125 H 0.87122 0.90918 0.23977 0.0
H1126 H 0.80807 0.9749 0.22765 0.0
H1127 H 0.81462 0.96716 0.19327 0.0
H1128 H 0.88562 0.95573 0.25712 0.0
H1129 H 0.77069 0.9388 0.27288 0.0
H1130 H 0.78688 0.92638 0.25076 0.0
H1131 H 0.77388 0.96287 0.2529 0.0
C1132 C 0.86255 0.91746 0.21 0.0
C1133 C 0.84736 0.93425 0.19657 0.0
C1134 C 0.85829 0.92145 0.22972 0.0
C1135 C 0.83896 0.94245 0.2364 0.0
C1136 C 0.82254 0.95801 0.22297 0.0
H1137 H 0.85623 0.07103 0.31743 0.0
H1138 H 0.8623 0.03424 0.29289 0.0
C1139 C 0.82645 0.9537 0.20324 0.0
C1140 C 0.83928 0.95141 0.25694 0.0
H1141 H 0.79533 0.97464 0.29311 0.0
C1142 C 0.86588 0.95912 0.26516 0.0
C1143 C 0.81373 0.95533 0.26775 0.0
C1144 C 0.78477 0.94505 0.26064 0.0
C1145 C 0.86735 0.97286 0.28309 0.0
C1146 C 0.84153 0.97979 0.29284 0.0
C1147 C 0.81515 0.96983 0.28547 0.0
C1148 C 0.84109 0.00052 0.30908 0.0
C1149 C 0.89656 0.98067 0.2911 0.0
C1150 C 0.82713 0.99387 0.32645 0.0
C1151 C 0.82343 0.01509 0.34058 0.0
C1152 C 0.83331 0.04337 0.33742 0.0
C1153 C 0.84836 0.04951 0.32036 0.0
C1154 C 0.85206 0.02837 0.30633 0.0
H1155 H 0.91317 0.9649 0.28643 0.0
H1156 H 0.90305 0.0021 0.28553 0.0
H1157 H 0.89633 0.98154 0.30706 0.0
H1158 H 0.81832 0.97255 0.3288 0.0
H1159 H 0.81159 0.00969 0.35351 0.0
H1160 H 0.24149 0.56257 0.10462 0.0
H1161 H 0.27977 0.56973 0.08077 0.0
H1162 H 0.22063 0.61743 0.04508 0.0
H1163 H 0.18284 0.61108 0.06882 0.0
H1164 H 0.27846 0.54819 0.04539 0.0
H1165 H 0.29142 0.66535 0.03897 0.0
H1166 H 0.27363 0.64911 0.05937 0.0
H1167 H 0.2538 0.65696 0.03766 0.0
C1168 C 0.23695 0.57539 0.09197 0.0
C1169 C 0.20905 0.58612 0.08857 0.0
C1170 C 0.25882 0.57935 0.07833 0.0
C1171 C 0.2532 0.59438 0.06122 0.0
C1172 C 0.22579 0.60639 0.05836 0.0
H1173 H 0.28002 0.56525 0.94594 0.0
H1174 H 0.27517 0.55948 0.98062 0.0
C1175 C 0.20404 0.60249 0.07191 0.0
C1176 C 0.27415 0.59445 0.0451 0.0
H1177 H 0.29772 0.63786 0.00895 0.0
C1178 C 0.28344 0.56787 0.03768 0.0
C1179 C 0.28146 0.62006 0.03528 0.0
C1180 C 0.2748 0.64945 0.04342 0.0
C1181 C 0.29722 0.56609 0.01974 0.0
C1182 C 0.30097 0.59144 0.00873 0.0
C1183 C 0.29434 0.61822 0.01709 0.0
C1184 C 0.3082 0.59074 0.9879 0.0
C1185 C 0.30682 0.53695 0.0126 0.0
C1186 C 0.32844 0.61012 0.98027 0.0
C1187 C 0.33062 0.61402 0.9604 0.0
C1188 C 0.31288 0.59833 0.94777 0.0
C1189 C 0.29419 0.57741 0.95531 0.0
C1190 C 0.29159 0.57394 0.9752 0.0
H1191 H 0.31407 0.52327 0.02477 0.0
H1192 H 0.28832 0.52584 0.0057 0.0
H1193 H 0.32467 0.53871 0.00202 0.0
H1194 H 0.34151 0.62334 0.98972 0.0
H1195 H 0.34533 0.63021 0.95496 0.0
H1196 H 0.60461 0.0655 0.70423 0.0
H1197 H 0.61449 0.05676 0.738 0.0
H1198 H 0.70325 0.03783 0.72446 0.0
H1199 H 0.69326 0.04558 0.6903 0.0
H1200 H 0.68028 0.9956 0.74342 0.0
H1201 H 0.65244 0.09498 0.7826 0.0
H1202 H 0.62328 0.08479 0.76713 0.0
H1203 H 0.65765 0.09445 0.75686 0.0
C1204 C 0.62645 0.06011 0.7084 0.0
C1205 C 0.64807 0.05588 0.69447 0.0
C1206 C 0.63215 0.05545 0.72784 0.0
C1207 C 0.65971 0.04699 0.73388 0.0
C1208 C 0.68183 0.04448 0.72015 0.0
H1209 H 0.69602 0.98548 0.85087 0.0
H1210 H 0.69384 0.01823 0.82327 0.0
C1211 C 0.67607 0.04886 0.70061 0.0
C1212 C 0.66392 0.03622 0.75378 0.0
H1213 H 0.64779 0.05018 0.80089 0.0
C1214 C 0.67377 0.00785 0.75599 0.0
C1215 C 0.65565 0.05216 0.77028 0.0
C1216 C 0.64697 0.08339 0.76909 0.0
C1217 C 0.67396 0.99445 0.774 0.0
C1218 C 0.66338 0.00955 0.79019 0.0
C1219 C 0.65522 0.03848 0.78832 0.0
C1220 C 0.65986 0.99475 0.80885 0.0
C1221 C 0.68481 0.96388 0.77546 0.0
C1222 C 0.64025 0.97186 0.81032 0.0
C1223 C 0.64154 0.95308 0.82592 0.0
C1224 C 0.66228 0.95709 0.84041 0.0
C1225 C 0.67976 0.98188 0.83995 0.0
C1226 C 0.67863 0.00057 0.82417 0.0
H1227 H 0.6988 0.95808 0.76307 0.0
H1228 H 0.69717 0.96062 0.78896 0.0
H1229 H 0.66616 0.9489 0.77556 0.0
H1230 H 0.62536 0.96731 0.79869 0.0
H1231 H 0.62764 0.93432 0.82597 0.0
H1232 H 0.38913 0.20038 0.08965 0.0
H1233 H 0.43446 0.22675 0.09009 0.0
H1234 H 0.46516 0.17298 0.13634 0.0
H1235 H 0.41904 0.14723 0.13659 0.0
H1236 H 0.47551 0.22668 0.14417 0.0
H1237 H 0.51177 0.20725 0.06967 0.0
H1238 H 0.47648 0.22284 0.06978 0.0
H1239 H 0.48209 0.18773 0.08019 0.0
C1240 C 0.40567 0.19383 0.09974 0.0
C1241 C 0.40058 0.17162 0.11304 0.0
C1242 C 0.43169 0.20884 0.09988 0.0
C1243 C 0.4535 0.20146 0.11295 0.0
C1244 C 0.44869 0.17893 0.12604 0.0
H1245 H 0.62425 0.27756 0.10428 0.0
H1246 H 0.58258 0.2456 0.10309 0.0
C1247 C 0.42239 0.16421 0.12616 0.0
C1248 C 0.48039 0.21867 0.1138 0.0
H1249 H 0.53341 0.24772 0.08588 0.0
C1250 C 0.4884 0.23097 0.13147 0.0
C1251 C 0.49748 0.22394 0.0973 0.0
C1252 C 0.49167 0.20945 0.07824 0.0
C1253 C 0.51255 0.249 0.133 0.0
C1254 C 0.52843 0.25587 0.11623 0.0
C1255 C 0.5209 0.24293 0.09867 0.0
C1256 C 0.55339 0.27583 0.11663 0.0
C1257 C 0.52099 0.26 0.15266 0.0
C1258 C 0.55074 0.30375 0.12424 0.0
C1259 C 0.57472 0.32193 0.12528 0.0
C1260 C 0.60154 0.31277 0.11819 0.0
C1261 C 0.60382 0.2853 0.10979 0.0
C1262 C 0.58003 0.26696 0.10913 0.0
H1263 H 0.5128 0.24568 0.16424 0.0
H1264 H 0.54475 0.26178 0.15412 0.0
H1265 H 0.51139 0.28162 0.15493 0.0
H1266 H 0.53017 0.31145 0.12951 0.0
H1267 H 0.57228 0.34309 0.13164 0.0
H1268 H 0.5606 0.64807 0.34026 0.0
H1269 H 0.53213 0.69221 0.34139 0.0
H1270 H 0.54038 0.69445 0.40317 0.0
H1271 H 0.5694 0.65056 0.40219 0.0
H1272 H 0.48013 0.69811 0.3599 0.0
H1273 H 0.5597 0.77693 0.38828 0.0
H1274 H 0.57017 0.74227 0.37879 0.0
H1275 H 0.55561 0.74511 0.40268 0.0
C1276 C 0.55676 0.65816 0.35409 0.0
C1277 C 0.56727 0.64577 0.37115 0.0
C1278 C 0.54044 0.68335 0.35469 0.0
C1279 C 0.53433 0.69667 0.37234 0.0
C1280 C 0.54531 0.68479 0.38937 0.0
H1281 H 0.4263 0.84446 0.40017 0.0
H1282 H 0.45381 0.79961 0.4021 0.0
C1283 C 0.56182 0.65965 0.38878 0.0
C1284 C 0.51496 0.72193 0.3729 0.0
H1285 H 0.5113 0.79282 0.38567 0.0
C1286 C 0.48695 0.71884 0.36551 0.0
C1287 C 0.5239 0.74885 0.38034 0.0
C1288 C 0.55406 0.75367 0.38783 0.0
C1289 C 0.46764 0.74202 0.36528 0.0
C1290 C 0.47671 0.76897 0.3725 0.0
C1291 C 0.50449 0.772 0.38021 0.0
C1292 C 0.45819 0.79472 0.37131 0.0
C1293 C 0.43767 0.73754 0.3574 0.0
C1294 C 0.45145 0.80656 0.35333 0.0
C1295 C 0.43585 0.83217 0.35214 0.0
C1296 C 0.42674 0.8464 0.36895 0.0
C1297 C 0.43289 0.834 0.38695 0.0
C1298 C 0.44867 0.80846 0.3881 0.0
H1299 H 0.43186 0.71434 0.35671 0.0
H1300 H 0.42146 0.74896 0.36635 0.0
H1301 H 0.43654 0.74645 0.34262 0.0
H1302 H 0.45896 0.79639 0.34022 0.0
H1303 H 0.43151 0.84113 0.33806 0.0
H1304 H 0.91826 0.64817 0.63681 0.0
H1305 H 0.96205 0.67755 0.6353 0.0
H1306 H 0.91763 0.73964 0.59994 0.0
H1307 H 0.87445 0.70967 0.60053 0.0
H1308 H 0.96877 0.73253 0.58675 0.0
H1309 H 0.97793 0.74845 0.6654 0.0
H1310 H 0.97911 0.71106 0.65906 0.0
H1311 H 0.94691 0.73166 0.65452 0.0
C1312 C 0.91795 0.66803 0.62865 0.0
C1313 C 0.89295 0.67667 0.61883 0.0
C1314 C 0.94288 0.68495 0.62795 0.0
C1315 C 0.94293 0.71123 0.61794 0.0
C1316 C 0.91811 0.71955 0.60784 0.0
H1317 H 0.07538 0.84199 0.63618 0.0
H1318 H 0.03007 0.81484 0.63557 0.0
C1319 C 0.89344 0.70235 0.60817 0.0
C1320 C 0.96885 0.72999 0.6177 0.0
H1321 H 0.01842 0.76296 0.64659 0.0
C1322 C 0.97949 0.73935 0.59986 0.0
C1323 C 0.98251 0.73946 0.6348 0.0
C1324 C 0.97084 0.7324 0.65452 0.0
C1325 C 0.00359 0.75749 0.5986 0.0
C1326 C 0.01828 0.76551 0.61564 0.0
C1327 C 0.00738 0.75656 0.6335 0.0
C1328 C 0.04522 0.78277 0.61529 0.0
C1329 C 0.01253 0.76835 0.57902 0.0
C1330 C 0.06881 0.77377 0.60417 0.0
C1331 C 0.09438 0.78959 0.60416 0.0
C1332 C 0.0972 0.81427 0.61573 0.0
C1333 C 0.07376 0.82308 0.6271 0.0
C1334 C 0.04792 0.80756 0.62678 0.0
H1335 H 0.99394 0.76889 0.56895 0.0
H1336 H 0.02194 0.79031 0.57987 0.0
H1337 H 0.02886 0.75356 0.57283 0.0
H1338 H 0.06767 0.75419 0.59573 0.0
H1339 H 0.11225 0.78197 0.59552 0.0
H1340 H 0.9462 0.35822 0.84682 0.0
H1341 H 0.97601 0.31499 0.84597 0.0
H1342 H 0.93327 0.28295 0.8967 0.0
H1343 H 0.90313 0.32619 0.89772 0.0
H1344 H 0.01336 0.29729 0.87723 0.0
H1345 H 0.93141 0.21481 0.85732 0.0
H1346 H 0.92593 0.25284 0.85327 0.0
H1347 H 0.92241 0.23826 0.87705 0.0
C1348 C 0.9428 0.34187 0.85769 0.0
C1349 C 0.92227 0.34571 0.87237 0.0
C1350 C 0.95994 0.31723 0.85719 0.0
C1351 C 0.95674 0.29588 0.87124 0.0
C1352 C 0.93581 0.29915 0.88563 0.0
H1353 H 0.07671 0.15666 0.89693 0.0
H1354 H 0.0472 0.20027 0.89891 0.0
C1355 C 0.91865 0.32387 0.88618 0.0
C1356 C 0.97629 0.27082 0.87122 0.0
H1357 H 0.9784 0.19818 0.86415 0.0
C1358 C 0.00578 0.27558 0.87443 0.0
C1359 C 0.96619 0.24268 0.86746 0.0
C1360 C 0.9348 0.23668 0.86344 0.0
C1361 C 0.02558 0.25279 0.87391 0.0
C1362 C 0.01547 0.22464 0.8702 0.0
C1363 C 0.98597 0.21987 0.86706 0.0
C1364 C 0.03524 0.19984 0.86883 0.0
C1365 C 0.0572 0.25899 0.87689 0.0
C1366 C 0.03841 0.18548 0.85123 0.0
C1367 C 0.05522 0.16067 0.85002 0.0
C1368 C 0.06899 0.14962 0.86647 0.0
C1369 C 0.06648 0.16463 0.88399 0.0
C1370 C 0.04967 0.18955 0.88515 0.0
H1371 H 0.06202 0.2824 0.87614 0.0
H1372 H 0.06382 0.25104 0.89127 0.0
H1373 H 0.07038 0.24759 0.86594 0.0
H1374 H 0.02742 0.19319 0.83849 0.0
H1375 H 0.05668 0.14972 0.83629 0.0
H1376 H 0.60809 0.80031 0.9071 0.0
H1377 H 0.56396 0.77159 0.90614 0.0
H1378 H 0.54467 0.80471 0.84969 0.0
H1379 H 0.58876 0.83366 0.85046 0.0
H1380 H 0.497 0.8039 0.87665 0.0
H1381 H 0.55401 0.69897 0.8712 0.0
H1382 H 0.56572 0.72195 0.89052 0.0
H1383 H 0.57137 0.73294 0.86604 0.0
C1384 C 0.59441 0.8017 0.89451 0.0
C1385 C 0.60207 0.81918 0.8788 0.0
C1386 C 0.56931 0.78512 0.89396 0.0
C1387 C 0.55143 0.78572 0.87771 0.0
C1388 C 0.55839 0.80385 0.86229 0.0
H1389 H 0.41088 0.66837 0.84958 0.0
H1390 H 0.45536 0.69685 0.84898 0.0
C1391 C 0.58357 0.82037 0.86277 0.0
C1392 C 0.52548 0.76733 0.87683 0.0
H1393 H 0.50341 0.69717 0.87626 0.0
C1394 C 0.49834 0.78057 0.87649 0.0
C1395 C 0.52745 0.73695 0.87636 0.0
C1396 C 0.55618 0.72176 0.87588 0.0
C1397 C 0.47298 0.76413 0.87622 0.0
C1398 C 0.47494 0.73374 0.87645 0.0
C1399 C 0.50208 0.72049 0.87626 0.0
C1400 C 0.44894 0.71542 0.8772 0.0
C1401 C 0.44426 0.77934 0.87563 0.0
C1402 C 0.43117 0.71594 0.89348 0.0
C1403 C 0.40589 0.69968 0.89394 0.0
C1404 C 0.39791 0.68256 0.87808 0.0
C1405 C 0.41632 0.68138 0.86201 0.0
C1406 C 0.44171 0.69763 0.86161 0.0
H1407 H 0.44652 0.80217 0.87109 0.0
H1408 H 0.42922 0.76825 0.86563 0.0
H1409 H 0.4345 0.77903 0.8902 0.0
H1410 H 0.43671 0.72921 0.90577 0.0
H1411 H 0.39233 0.70102 0.90659 0.0
H1412 H 0.42207 0.34097 0.59791 0.0
H1413 H 0.4523 0.29785 0.59679 0.0
H1414 H 0.45751 0.29769 0.6587 0.0
H1415 H 0.4274 0.34082 0.66006 0.0
H1416 H 0.51079 0.29702 0.61458 0.0
H1417 H 0.43636 0.21273 0.64235 0.0
H1418 H 0.42363 0.2458 0.63163 0.0
H1419 H 0.43766 0.24595 0.65568 0.0
C1420 C 0.42917 0.33148 0.61132 0.0
C1421 C 0.4224 0.34438 0.62909 0.0
C1422 C 0.44652 0.30694 0.61063 0.0
C1423 C 0.45698 0.2947 0.62766 0.0
C1424 C 0.44937 0.30678 0.64543 0.0
H1425 H 0.56587 0.15111 0.6568 0.0
H1426 H 0.53646 0.19468 0.65711 0.0
C1427 C 0.43223 0.33143 0.64615 0.0
C1428 C 0.47748 0.27049 0.62687 0.0
H1429 H 0.48533 0.19975 0.63866 0.0
C1430 C 0.50528 0.27566 0.61972 0.0
C1431 C 0.4701 0.24288 0.63375 0.0
C1432 C 0.44027 0.23628 0.64118 0.0
C1433 C 0.52625 0.25392 0.61963 0.0
C1434 C 0.51889 0.22621 0.62649 0.0
C1435 C 0.49095 0.22106 0.63349 0.0
C1436 C 0.53962 0.20203 0.62645 0.0
C1437 C 0.55625 0.26106 0.61272 0.0
C1438 C 0.55168 0.19211 0.60915 0.0
C1439 C 0.5688 0.16738 0.60895 0.0
C1440 C 0.5737 0.15189 0.62601 0.0
C1441 C 0.56242 0.16249 0.6434 0.0
C1442 C 0.54555 0.18734 0.64361 0.0
H1443 H 0.56055 0.28459 0.61333 0.0
H1444 H 0.57283 0.24977 0.62141 0.0
H1445 H 0.55856 0.25408 0.59752 0.0
H1446 H 0.5469 0.20278 0.59569 0.0
H1447 H 0.57696 0.15963 0.59529 0.0
H1448 H 0.10146 0.29639 0.40322 0.0
H1449 H 0.05686 0.26856 0.40127 0.0
H1450 H 0.04107 0.30191 0.34441 0.0
H1451 H 0.08579 0.3299 0.34612 0.0
H1452 H 0.99169 0.30154 0.37196 0.0
H1453 H 0.04809 0.1965 0.36439 0.0
H1454 H 0.06031 0.21919 0.38374 0.0
H1455 H 0.06538 0.23054 0.3593 0.0
C1456 C 0.08845 0.29806 0.39034 0.0
C1457 C 0.09732 0.31526 0.37477 0.0
C1458 C 0.06305 0.28201 0.38923 0.0
C1459 C 0.04604 0.28292 0.3726 0.0
C1460 C 0.05413 0.30084 0.35731 0.0
H1461 H 0.90243 0.16816 0.34464 0.0
H1462 H 0.94666 0.19699 0.34288 0.0
C1463 C 0.07966 0.3168 0.35834 0.0
C1464 C 0.01994 0.26483 0.37116 0.0
H1465 H -0.0025 0.19482 0.36956 0.0
C1466 C 0.99289 0.27823 0.3713 0.0
C1467 C 0.02175 0.23448 0.37009 0.0
C1468 C 0.05041 0.21921 0.36921 0.0
C1469 C 0.96743 0.26191 0.37106 0.0
C1470 C 0.96925 0.23152 0.37074 0.0
C1471 C 0.9963 0.21815 0.36994 0.0
C1472 C 0.94323 0.2133 0.37194 0.0
C1473 C 0.93875 0.27718 0.37127 0.0
C1474 C 0.92723 0.2125 0.38902 0.0
C1475 C 0.90218 0.19596 0.39014 0.0
C1476 C 0.89261 0.17996 0.37416 0.0
C1477 C 0.90914 0.18029 0.35719 0.0
C1478 C 0.93437 0.19674 0.35613 0.0
H1479 H 0.94093 0.30031 0.36744 0.0
H1480 H 0.92348 0.2668 0.36109 0.0
H1481 H 0.92931 0.2758 0.38591 0.0
H1482 H 0.93403 0.22488 0.40144 0.0
H1483 H 0.89003 0.19621 0.40345 0.0
H1484 H 0.0518 0.63766 0.1523 0.0
H1485 H 0.02231 0.68107 0.15096 0.0
H1486 H 0.05269 0.69814 0.09349 0.0
H1487 H 0.08239 0.65455 0.09458 0.0
H1488 H 0.05219 0.74715 0.12094 0.0
H1489 H 0.94824 0.68789 0.1161 0.0
H1490 H 0.97216 0.67631 0.13492 0.0
H1491 H 0.98246 0.67153 0.11023 0.0
C1492 C 0.05244 0.65067 0.13939 0.0
C1493 C 0.06936 0.64251 0.12348 0.0
C1494 C 0.03543 0.67538 0.13864 0.0
C1495 C 0.03505 0.69241 0.12203 0.0
C1496 C 0.0526 0.68502 0.10637 0.0
H1497 H 0.91609 0.83297 0.09713 0.0
H1498 H 0.9446 0.78868 0.09516 0.0
C1499 C 0.06956 0.66016 0.10704 0.0
C1500 C 0.01617 0.7179 0.12112 0.0
H1501 H 0.94551 0.73833 0.12178 0.0
C1502 C 0.02888 0.74529 0.12098 0.0
C1503 C 0.98581 0.71523 0.12098 0.0
C1504 C 0.97124 0.68618 0.1204 0.0
C1505 C 0.01189 0.77024 0.12136 0.0
C1506 C 0.98154 0.76755 0.12199 0.0
C1507 C 0.96882 0.74018 0.12147 0.0
C1508 C 0.96277 0.79304 0.12366 0.0
C1509 C 0.02645 0.79931 0.12117 0.0
C1510 C 0.96297 0.80947 0.14057 0.0
C1511 C 0.94664 0.8346 0.14182 0.0
C1512 C 0.92986 0.84379 0.12612 0.0
C1513 C 0.92885 0.82657 0.10945 0.0
C1514 C 0.94512 0.80131 0.10827 0.0
H1515 H 0.04933 0.79779 0.11655 0.0
H1516 H 0.01495 0.81436 0.11144 0.0
H1517 H 0.02594 0.80859 0.13589 0.0
H1518 H 0.97619 0.8031 0.15268 0.0
H1519 H 0.94788 0.84724 0.1549 0.0
H1520 H 0.30095 0.24002 0.08524 0.0
H1521 H 0.28874 0.29106 0.08887 0.0
H1522 H 0.20259 0.26781 0.10621 0.0
H1523 H 0.21453 0.21689 0.10281 0.0
H1524 H 0.24164 0.32864 0.07491 0.0
H1525 H 0.24017 0.30922 0.15365 0.0
H1526 H 0.2562 0.2843 0.1368 0.0
H1527 H 0.21777 0.28495 0.14015 0.0
C1528 C 0.27915 0.24577 0.08928 0.0
C1529 C 0.25883 0.22441 0.09406 0.0
C1530 C 0.27229 0.27493 0.09142 0.0
C1531 C 0.24505 0.28299 0.09828 0.0
C1532 C 0.22393 0.26186 0.10128 0.0
H1533 H 0.14117 0.42191 0.12944 0.0
H1534 H 0.16626 0.37674 0.12316 0.0
C1535 C 0.23076 0.23279 0.09923 0.0
C1536 C 0.23921 0.31304 0.10399 0.0
H1537 H 0.2199 0.35363 0.14285 0.0
C1538 C 0.23735 0.33433 0.08977 0.0
C1539 C 0.23406 0.3203 0.12346 0.0
C1540 C 0.23741 0.29858 0.13945 0.0
C1541 C 0.22861 0.36244 0.09443 0.0
C1542 C 0.22186 0.36918 0.11375 0.0
C1543 C 0.22511 0.34826 0.12806 0.0
C1544 C 0.20795 0.39662 0.11899 0.0
C1545 C 0.22512 0.38437 0.07861 0.0
C1546 C 0.22343 0.42258 0.11928 0.0
C1547 C 0.20917 0.44854 0.12306 0.0
C1548 C 0.17925 0.44875 0.1264 0.0
C1549 C 0.16419 0.42248 0.12681 0.0
C1550 C 0.17845 0.39666 0.12322 0.0
H1551 H 0.22954 0.37514 0.06416 0.0
H1552 H 0.20287 0.39317 0.07878 0.0
H1553 H 0.24017 0.40259 0.08111 0.0
H1554 H 0.24631 0.42279 0.11619 0.0
H1555 H 0.22129 0.46848 0.12257 0.0
H1556 H 0.32264 0.37739 0.37119 0.0
H1557 H 0.3671 0.40236 0.36265 0.0
H1558 H 0.32197 0.48354 0.36304 0.0
H1559 H 0.27737 0.45876 0.37205 0.0
H1560 H 0.37681 0.43404 0.32995 0.0
H1561 H 0.39265 0.50148 0.39533 0.0
H1562 H 0.36752 0.47181 0.39465 0.0
H1563 H 0.35839 0.50558 0.38362 0.0
C1564 C 0.32221 0.40061 0.36974 0.0
C1565 C 0.29648 0.4161 0.37236 0.0
C1566 C 0.34762 0.41483 0.36478 0.0
C1567 C 0.34786 0.44479 0.36228 0.0
C1568 C 0.32237 0.46046 0.36521 0.0
H1569 H 0.50062 0.54964 0.33758 0.0
H1570 H 0.44992 0.53477 0.3368 0.0
C1571 C 0.29691 0.44625 0.37036 0.0
C1572 C 0.37474 0.4592 0.356 0.0
H1573 H 0.42654 0.50677 0.37038 0.0
C1574 C 0.38758 0.45012 0.33871 0.0
C1575 C 0.3886 0.48033 0.36738 0.0
C1576 C 0.37628 0.49028 0.38635 0.0
C1577 C 0.4144 0.46092 0.33283 0.0
C1578 C 0.42872 0.4812 0.34457 0.0
C1579 C 0.41532 0.4913 0.36138 0.0
C1580 C 0.459 0.48956 0.34109 0.0
C1581 C 0.42751 0.45016 0.31432 0.0
C1582 C 0.48079 0.4689 0.34322 0.0
C1583 C 0.50964 0.4773 0.34381 0.0
C1584 C 0.5172 0.50652 0.34224 0.0
C1585 C 0.49547 0.52694 0.33869 0.0
C1586 C 0.46651 0.51853 0.33833 0.0
H1587 H 0.41083 0.44137 0.30445 0.0
H1588 H 0.43943 0.46762 0.30684 0.0
H1589 H 0.44298 0.43262 0.31761 0.0
H1590 H 0.47539 0.44649 0.34564 0.0
H1591 H 0.52591 0.46109 0.34654 0.0
H1592 H 0.20516 0.75325 0.58482 0.0
H1593 H 0.22193 0.70324 0.58594 0.0
H1594 H 0.30257 0.73133 0.61037 0.0
H1595 H 0.28621 0.78126 0.60936 0.0
H1596 H 0.29089 0.6782 0.57444 0.0
H1597 H 0.24477 0.67359 0.6485 0.0
H1598 H 0.22827 0.69486 0.62976 0.0
H1599 H 0.26159 0.70639 0.64027 0.0
C1600 C 0.22677 0.7489 0.58993 0.0
C1601 C 0.24423 0.77121 0.59721 0.0
C1602 C 0.23624 0.72034 0.59059 0.0
C1603 C 0.2633 0.71383 0.59839 0.0
C1604 C 0.28157 0.73612 0.60435 0.0
H1605 H 0.37144 0.5698 0.62097 0.0
H1606 H 0.34936 0.61572 0.61268 0.0
C1607 C 0.27215 0.76461 0.60376 0.0
C1608 C 0.27148 0.68379 0.60229 0.0
H1609 H 0.27266 0.63405 0.63834 0.0
C1610 C 0.2867 0.66833 0.5883 0.0
C1611 C 0.26568 0.67115 0.62035 0.0
C1612 C 0.24911 0.68716 0.63567 0.0
C1613 C 0.29706 0.64055 0.59215 0.0
C1614 C 0.29245 0.62839 0.61057 0.0
C1615 C 0.27626 0.64352 0.62428 0.0
C1616 C 0.30554 0.60066 0.61622 0.0
C1617 C 0.31298 0.62454 0.57653 0.0
C1618 C 0.28819 0.57736 0.62181 0.0
C1619 C 0.30076 0.55102 0.62676 0.0
C1620 C 0.3309 0.54769 0.62628 0.0
C1621 C 0.34816 0.5715 0.62135 0.0
C1622 C 0.33559 0.59773 0.61644 0.0
H1623 H 0.30738 0.63286 0.56203 0.0
H1624 H 0.33652 0.62743 0.57862 0.0
H1625 H 0.30812 0.60112 0.57702 0.0
H1626 H 0.26493 0.57939 0.62196 0.0
H1627 H 0.28685 0.53313 0.6305 0.0
H1628 H 0.96699 0.52165 0.89069 0.0
H1629 H 0.01635 0.53906 0.88907 0.0
H1630 H 0.03139 0.48716 0.83855 0.0
H1631 H 0.98193 0.46874 0.8404 0.0
H1632 H 0.07452 0.48169 0.8643 0.0
H1633 H 0.05125 0.59725 0.85347 0.0
H1634 H 0.03325 0.58364 0.87438 0.0
H1635 H 0.02392 0.56985 0.85095 0.0
C1636 C 0.98057 0.51418 0.87903 0.0
C1637 C 0.97042 0.49389 0.86559 0.0
C1638 C 0.00882 0.52428 0.8781 0.0
C1639 C 0.0274 0.5148 0.8635 0.0
C1640 C 0.01731 0.49485 0.84988 0.0
H1641 H 0.19 0.60278 0.84734 0.0
H1642 H 0.14296 0.58053 0.8427 0.0
C1643 C 0.98904 0.48446 0.85091 0.0
C1644 C 0.05767 0.52489 0.86312 0.0
H1645 H 0.09869 0.58573 0.86474 0.0
C1646 C 0.0799 0.50443 0.86414 0.0
C1647 C 0.06464 0.55452 0.86265 0.0
C1648 C 0.04199 0.57753 0.86009 0.0
C1649 C 0.10893 0.51287 0.86526 0.0
C1650 C 0.11574 0.54257 0.86596 0.0
C1651 C 0.0935 0.56295 0.86444 0.0
C1652 C 0.1457 0.55336 0.86792 0.0
C1653 C 0.13191 0.4899 0.86544 0.0
C1654 C 0.16321 0.54515 0.8835 0.0
C1655 C 0.19053 0.5575 0.88597 0.0
C1656 C 0.20026 0.5788 0.87321 0.0
C1657 C 0.18287 0.58663 0.85754 0.0
C1658 C 0.156 0.5739 0.85484 0.0
H1659 H 0.12408 0.4696 0.85877 0.0
H1660 H 0.15156 0.49707 0.85768 0.0
H1661 H 0.13787 0.48506 0.88055 0.0
H1662 H 0.15546 0.52989 0.89406 0.0
H1663 H 0.2035 0.55124 0.89823 0.0
H1664 H 0.78401 0.78044 0.88284 0.0
H1665 H 0.79835 0.73031 0.88438 0.0
H1666 H 0.72788 0.71237 0.92308 0.0
H1667 H 0.71239 0.76274 0.92093 0.0
H1668 H 0.81525 0.69534 0.91134 0.0
H1669 H 0.71194 0.65504 0.88111 0.0
H1670 H 0.72067 0.69284 0.88217 0.0
H1671 H 0.70821 0.67438 0.90334 0.0
C1672 C 0.77161 0.76603 0.89188 0.0
C1673 C 0.74675 0.77559 0.90156 0.0
C1674 C 0.77989 0.73727 0.89272 0.0
C1675 C 0.76376 0.71739 0.90342 0.0
C1676 C 0.74011 0.72716 0.91423 0.0
H1677 H 0.8363 0.54571 0.91727 0.0
H1678 H 0.81599 0.59328 0.92334 0.0
C1679 C 0.7315 0.75602 0.91319 0.0
C1680 C 0.77163 0.68648 0.90256 0.0
H1681 H 0.74699 0.62017 0.88893 0.0
C1682 C 0.80028 0.67888 0.90653 0.0
C1683 C 0.7522 0.66513 0.89591 0.0
C1684 C 0.72162 0.67221 0.8902 0.0
C1685 C 0.81025 0.65074 0.90367 0.0
C1686 C 0.79066 0.62921 0.8975 0.0
C1687 C 0.76188 0.63666 0.8938 0.0
C1688 C 0.79993 0.59903 0.89437 0.0
C1689 C 0.84199 0.64479 0.90647 0.0
C1690 C 0.79596 0.58562 0.8764 0.0
C1691 C 0.80687 0.55795 0.87305 0.0
C1692 C 0.82224 0.54363 0.88755 0.0
C1693 C 0.82506 0.5566 0.90572 0.0
C1694 C 0.81361 0.58383 0.90918 0.0
H1695 H 0.85505 0.66479 0.90528 0.0
H1696 H 0.84548 0.63585 0.92108 0.0
H1697 H 0.85009 0.62903 0.89574 0.0
H1698 H 0.78521 0.59688 0.86481 0.0
H1699 H 0.80431 0.54828 0.85896 0.0
H1700 H 0.71786 0.52255 0.62418 0.0
H1701 H 0.67226 0.49695 0.63016 0.0
H1702 H 0.62984 0.57791 0.64094 0.0
H1703 H 0.67485 0.60357 0.63515 0.0
H1704 H 0.63223 0.51053 0.66899 0.0
H1705 H 0.5855 0.52595 0.59596 0.0
H1706 H 0.62389 0.52315 0.60006 0.0
H1707 H 0.60522 0.55567 0.60624 0.0
C1708 C 0.69874 0.53487 0.62766 0.0
C1709 C 0.69996 0.56508 0.6292 0.0
C1710 C 0.67286 0.52022 0.63118 0.0
C1711 C 0.64795 0.53567 0.63606 0.0
C1712 C 0.64898 0.56573 0.63726 0.0
H1713 H 0.46886 0.5263 0.65157 0.0
H1714 H 0.51999 0.5385 0.65041 0.0
C1715 C 0.67472 0.58031 0.63391 0.0
C1716 C 0.62042 0.52092 0.63988 0.0
H1717 H 0.55346 0.51187 0.62074 0.0
C1718 C 0.61506 0.51021 0.6584 0.0
C1719 C 0.59827 0.52083 0.62599 0.0
C1720 C 0.60336 0.53184 0.60587 0.0
C1721 C 0.58742 0.50062 0.66368 0.0
C1722 C 0.56494 0.50175 0.65 0.0
C1723 C 0.57076 0.51127 0.63124 0.0
C1724 C 0.53471 0.49483 0.65487 0.0
C1725 C 0.58203 0.49073 0.68402 0.0
C1726 C 0.52617 0.46641 0.65866 0.0
C1727 C 0.49684 0.45938 0.65951 0.0
C1728 C 0.47581 0.48065 0.65629 0.0
C1729 C 0.48456 0.50942 0.65397 0.0
C1730 C 0.51375 0.51642 0.65327 0.0
H1731 H 0.60068 0.4952 0.6936 0.0
H1732 H 0.56262 0.50149 0.69 0.0
H1733 H 0.57794 0.46718 0.68404 0.0
H1734 H 0.54206 0.44942 0.65974 0.0
H1735 H 0.49076 0.43699 0.66118 0.0
H1736 H 0.70758 0.21326 0.39863 0.0
H1737 H 0.69235 0.26358 0.39823 0.0
H1738 H 0.77953 0.29061 0.40988 0.0
H1739 H 0.79511 0.24024 0.41035 0.0
H1740 H 0.70117 0.31364 0.42568 0.0
H1741 H 0.7562 0.32254 0.35459 0.0
H1742 H 0.74698 0.28814 0.36502 0.0
H1743 H 0.77653 0.30857 0.37456 0.0
C1744 C 0.72342 0.22983 0.4016 0.0
C1745 C 0.75262 0.22276 0.40428 0.0
C1746 C 0.71466 0.25856 0.40137 0.0
C1747 C 0.73494 0.28066 0.40371 0.0
C1748 C 0.76368 0.27373 0.40787 0.0
H1749 H 0.70693 0.4613 0.37217 0.0
H1750 H 0.73002 0.41596 0.38146 0.0
C1751 C 0.77247 0.24494 0.40825 0.0
C1752 C 0.72636 0.31067 0.39977 0.0
H1753 H 0.72909 0.36226 0.36489 0.0
C1754 C 0.7075 0.32448 0.41252 0.0
C1755 C 0.73476 0.32461 0.38258 0.0
C1756 C 0.75462 0.3103 0.36827 0.0
C1757 C 0.69635 0.35184 0.40835 0.0
C1758 C 0.7037 0.36526 0.39073 0.0
C1759 C 0.7234 0.35185 0.37833 0.0
C1760 C 0.68998 0.39243 0.38446 0.0
C1761 C 0.67673 0.36606 0.42284 0.0
C1762 C 0.65995 0.39385 0.38237 0.0
C1763 C 0.64673 0.41962 0.3771 0.0
C1764 C 0.66332 0.44442 0.37357 0.0
C1765 C 0.69354 0.44259 0.37478 0.0
C1766 C 0.70676 0.41676 0.38018 0.0
H1767 H 0.6806 0.35771 0.43758 0.0
H1768 H 0.67973 0.3898 0.42295 0.0
H1769 H 0.65398 0.36135 0.41903 0.0
H1770 H 0.64668 0.37506 0.385 0.0
H1771 H 0.62344 0.42018 0.37611 0.0
H1772 H 0.79256 0.44444 0.10565 0.0
H1773 H 0.84152 0.46406 0.10925 0.0
H1774 H 0.84271 0.43673 0.16854 0.0
H1775 H 0.79462 0.41621 0.16482 0.0
H1776 H 0.86778 0.50359 0.13265 0.0
H1777 H 0.91129 0.39457 0.14684 0.0
H1778 H 0.87498 0.4004 0.1385 0.0
H1779 H 0.88368 0.40463 0.16359 0.0
C1780 C 0.80325 0.44294 0.11947 0.0
C1781 C 0.79015 0.42837 0.13485 0.0
C1782 C 0.83113 0.45411 0.12152 0.0
C1783 C 0.846 0.45109 0.13902 0.0
C1784 C 0.83199 0.43845 0.15475 0.0
H1785 H 0.01145 0.53432 0.16469 0.0
H1786 H 0.96062 0.51997 0.16556 0.0
C1787 C 0.80449 0.42685 0.15262 0.0
C1788 C 0.87661 0.45972 0.14068 0.0
H1789 H 0.94321 0.43372 0.15204 0.0
C1790 C 0.88434 0.48836 0.13684 0.0
C1791 C 0.89819 0.43963 0.14585 0.0
C1792 C 0.8917 0.40804 0.14873 0.0
C1793 C 0.91313 0.49752 0.13817 0.0
C1794 C 0.93453 0.47765 0.14406 0.0
C1795 C 0.92672 0.44902 0.14784 0.0
C1796 C 0.9655 0.48534 0.14493 0.0
C1797 C 0.92043 0.5281 0.13266 0.0
C1798 C 0.98533 0.46961 0.13392 0.0
C1799 C 0.01436 0.47725 0.13375 0.0
C1800 C 0.0242 0.50101 0.14448 0.0
C1801 C 0.00453 0.51603 0.15617 0.0
C1802 C 0.97542 0.50809 0.15651 0.0
H1803 H 0.90315 0.53805 0.12384 0.0
H1804 H 0.92299 0.54123 0.1459 0.0
H1805 H 0.94094 0.52904 0.12445 0.0
H1806 H 0.9782 0.45184 0.12498 0.0
H1807 H 0.02883 0.46517 0.12456 0.0
H1808 H 0.76889 0.72876 0.58315 0.0
H1809 H 0.75022 0.77812 0.58184 0.0
H1810 H 0.69942 0.762 0.63272 0.0
H1811 H 0.71678 0.71276 0.63364 0.0
H1812 H 0.66946 0.79149 0.60804 0.0
H1813 H 0.7771 0.84252 0.61592 0.0
H1814 H 0.77378 0.82014 0.59498 0.0
H1815 H 0.77162 0.80428 0.61854 0.0
C1816 C 0.75347 0.73569 0.59389 0.0
C1817 C 0.74445 0.71686 0.60854 0.0
C1818 C 0.74306 0.76397 0.59326 0.0
C1819 C 0.72399 0.77396 0.60747 0.0
C1820 C 0.71423 0.75484 0.62165 0.0
H1821 H 0.68909 0.94932 0.64359 0.0
H1822 H 0.70781 0.90022 0.63958 0.0
C1823 C 0.7242 0.7266 0.62212 0.0
C1824 C 0.71409 0.80429 0.60798 0.0
H1825 H 0.73738 0.87386 0.61183 0.0
C1826 C 0.68433 0.8095 0.60883 0.0
C1827 C 0.73354 0.82773 0.60939 0.0
C1828 C 0.76578 0.82346 0.60986 0.0
C1829 C 0.67342 0.83737 0.61129 0.0
C1830 C 0.6928 0.86092 0.61207 0.0
C1831 C 0.72258 0.85579 0.61108 0.0
C1832 C 0.68252 0.89096 0.61411 0.0
C1833 C 0.64128 0.84106 0.61375 0.0
C1834 C 0.66268 0.9022 0.6009 0.0
C1835 C 0.65156 0.92979 0.60342 0.0
C1836 C 0.66068 0.94706 0.61889 0.0
C1837 C 0.68158 0.93637 0.63162 0.0
C1838 C 0.6923 0.90841 0.62931 0.0
H1839 H 0.63092 0.82091 0.61892 0.0
H1840 H 0.63623 0.85858 0.6241 0.0
H1841 H 0.63151 0.84651 0.59965 0.0
H1842 H 0.65559 0.88953 0.58869 0.0
H1843 H 0.63593 0.9377 0.59313 0.0
H1844 H 0.77826 0.96903 0.87305 0.0
H1845 H 0.82138 0.99471 0.86192 0.0
H1846 H 0.86678 0.91402 0.85711 0.0
H1847 H 0.82403 0.88825 0.86794 0.0
H1848 H 0.87732 0.99639 0.87651 0.0
H1849 H 0.87665 0.94879 0.80356 0.0
H1850 H 0.84591 0.94697 0.81946 0.0
H1851 H 0.87516 0.92178 0.82196 0.0
C1852 C 0.79753 0.9568 0.86981 0.0
C1853 C 0.79763 0.92657 0.87122 0.0
C1854 C 0.82205 0.97148 0.86334 0.0
C1855 C 0.8469 0.95613 0.85815 0.0
C1856 C 0.84748 0.92616 0.86046 0.0
H1857 H 0.02266 0.96839 0.84095 0.0
H1858 H 0.97139 0.95658 0.84091 0.0
C1859 C 0.82309 0.9115 0.86684 0.0
C1860 C 0.87271 0.97115 0.85071 0.0
H1861 H 0.92206 0.9687 0.8143 0.0
C1862 C 0.88681 0.99093 0.86272 0.0
C1863 C 0.88484 0.96411 0.83262 0.0
C1864 C 0.86968 0.94448 0.81857 0.0
C1865 C 0.91387 0.00219 0.85774 0.0
C1866 C 0.92685 0.9936 0.84023 0.0
C1867 C 0.91199 0.97516 0.82772 0.0
C1868 C 0.95731 0.00037 0.83612 0.0
C1869 C 0.92925 0.02169 0.87178 0.0
C1870 C 0.96625 0.02869 0.83242 0.0
C1871 C 0.99562 0.03551 0.83229 0.0
C1872 C 0.0163 0.0141 0.83607 0.0
C1873 C 0.00723 0.98538 0.83816 0.0
C1874 C 0.97796 0.97859 0.83813 0.0
H1875 H 0.91738 0.02393 0.88559 0.0
H1876 H 0.95117 0.01327 0.87486 0.0
H1877 H 0.93172 0.04341 0.86535 0.0
H1878 H 0.9505 0.0457 0.83067 0.0
H1879 H 0.00195 0.05784 0.83066 0.0
H1880 H 0.87024 0.06212 0.10309 0.0
H1881 H 0.85079 0.1107 0.10076 0.0
H1882 H 0.78813 0.09068 0.14464 0.0
H1883 H 0.80684 0.04134 0.14649 0.0
H1884 H 0.76434 0.12092 0.11625 0.0
H1885 H 0.86586 0.17431 0.13822 0.0
H1886 H 0.8708 0.15198 0.11744 0.0
H1887 H 0.86072 0.13592 0.14005 0.0
C1888 C 0.85235 0.06805 0.11229 0.0
C1889 C 0.84026 0.04806 0.12515 0.0
C1890 C 0.84137 0.09589 0.11101 0.0
C1891 C 0.81857 0.10456 0.12291 0.0
C1892 C 0.80594 0.08447 0.13545 0.0
H1893 H 0.77316 0.28113 0.14619 0.0
H1894 H 0.79235 0.23235 0.1463 0.0
C1895 C 0.81662 0.05635 0.13651 0.0
C1896 C 0.80785 0.13456 0.12208 0.0
H1897 H 0.82958 0.20465 0.12491 0.0
C1898 C 0.77854 0.13926 0.11826 0.0
C1899 C 0.82636 0.15844 0.12498 0.0
C1900 C 0.8576 0.15493 0.13061 0.0
C1901 C 0.76725 0.16721 0.11704 0.0
C1902 C 0.78604 0.19108 0.11905 0.0
C1903 C 0.81529 0.18634 0.12306 0.0
C1904 C 0.77557 0.22118 0.1182 0.0
C1905 C 0.7352 0.1708 0.11416 0.0
C1906 C 0.7605 0.23145 0.10209 0.0
C1907 C 0.74911 0.25932 0.10208 0.0
C1908 C 0.75319 0.27755 0.11802 0.0
C1909 C 0.76966 0.26768 0.13366 0.0
C1910 C 0.7806 0.23975 0.13377 0.0
H1911 H 0.72314 0.1511 0.11837 0.0
H1912 H 0.72678 0.18924 0.12265 0.0
H1913 H 0.73079 0.17491 0.09872 0.0
H1914 H 0.75715 0.21779 0.08965 0.0
H1915 H 0.73675 0.2664 0.08975 0.0
H1916 H 0.4708 0.02918 0.34361 0.0
H1917 H 0.52147 0.04207 0.34737 0.0
H1918 H 0.54567 0.95311 0.34012 0.0
H1919 H 0.4949 0.93989 0.33623 0.0
H1920 H 0.55136 0.01355 0.37965 0.0
H1921 H 0.60777 0.00146 0.30928 0.0
H1922 H 0.56957 0.00879 0.31075 0.0
H1923 H 0.58295 0.97373 0.31671 0.0
C1924 C 0.48691 0.01243 0.34219 0.0
C1925 C 0.47879 0.98346 0.33986 0.0
C1926 C 0.51585 0.01985 0.34437 0.0
C1927 C 0.53717 -0.0015 0.34414 0.0
C1928 C 0.52948 0.96989 0.34019 0.0
H1929 H 0.71939 0.02775 0.37417 0.0
H1930 H 0.67435 0.00202 0.36705 0.0
C1931 C 0.50044 0.96242 0.33794 0.0
C1932 C 0.5665 0.00578 0.35081 0.0
H1933 H 0.63563 0.01675 0.33578 0.0
C1934 C 0.56986 0.01404 0.3701 0.0
C1935 C 0.59056 0.00585 0.33839 0.0
C1936 C 0.58777 -0.00289 0.31758 0.0
C1937 C 0.59651 0.02346 0.37716 0.0
C1938 C 0.62026 0.02507 0.36449 0.0
C1939 C 0.61729 0.01548 0.34542 0.0
C1940 C 0.64727 0.03962 0.37022 0.0
C1941 C 0.59891 0.03212 0.39803 0.0
C1942 C 0.64677 0.06911 0.3745 0.0
C1943 C 0.67226 0.0838 0.37852 0.0
C1944 C 0.69883 0.06927 0.37832 0.0
C1945 C 0.69923 0.03947 0.3746 0.0
C1946 C 0.6736 0.02479 0.37041 0.0
H1947 H 0.58197 0.02167 0.40692 0.0
H1948 H 0.62038 0.02643 0.40397 0.0
H1949 H 0.59612 0.05579 0.39926 0.0
H1950 H 0.62668 0.081 0.37416 0.0
H1951 H 0.67119 0.10673 0.38132 0.0
H1952 H 0.28313 0.274 0.39315 0.0
H1953 H 0.29719 0.22338 0.39232 0.0
H1954 H 0.21008 0.19827 0.40598 0.0
H1955 H 0.19567 0.24902 0.40685 0.0
H1956 H 0.28988 0.17444 0.41958 0.0
H1957 H 0.22868 0.16453 0.35082 0.0
H1958 H 0.23857 0.19909 0.36078 0.0
H1959 H 0.21007 0.17855 0.37154 0.0
C1960 C 0.26707 0.25779 0.39643 0.0
C1961 C 0.23821 0.2655 0.39982 0.0
C1962 C 0.27516 0.22889 0.39596 0.0
C1963 C 0.25453 0.20723 0.39875 0.0
C1964 C 0.22618 0.21479 0.40358 0.0
H1965 H 0.28435 0.02619 0.36726 0.0
H1966 H 0.26007 0.07076 0.37702 0.0
C1967 C 0.21807 0.24378 0.40419 0.0
C1968 C 0.26241 0.17704 0.39471 0.0
H1969 H 0.25729 0.12526 0.35997 0.0
C1970 C 0.28247 0.16346 0.40672 0.0
C1971 C 0.2526 0.16288 0.37791 0.0
C1972 C 0.2314 0.17692 0.36439 0.0
C1973 C 0.29364 0.13629 0.40206 0.0
C1974 C 0.28501 0.1228 0.38472 0.0
C1975 C 0.26394 0.13579 0.37318 0.0
C1976 C 0.29912 0.09625 0.3777 0.0
C1977 C 0.31486 0.12244 0.41564 0.0
C1978 C 0.32884 0.09625 0.37406 0.0
C1979 C 0.34272 0.07099 0.36848 0.0
C1980 C 0.32709 0.04523 0.36624 0.0
C1981 C 0.29701 0.04566 0.36885 0.0
C1982 C 0.28313 0.07103 0.37453 0.0
H1983 H 0.3123 0.13074 0.43054 0.0
H1984 H 0.31229 0.09866 0.41583 0.0
H1985 H 0.33711 0.12753 0.41085 0.0
H1986 H 0.34142 0.11574 0.37586 0.0
H1987 H 0.36586 0.07151 0.36639 0.0
H1988 H -0.00159 0.94009 0.15933 0.0
H1989 H 0.04914 0.95488 0.16005 0.0
H1990 H 0.0238 0.04313 0.15085 0.0
H1991 H 0.97328 0.02859 0.14999 0.0
H1992 H 0.07161 0.98224 0.12604 0.0
H1993 H 0.08948 0.04881 0.19119 0.0
H1994 H 0.06076 0.02259 0.1894 0.0
H1995 H 0.05695 0.05741 0.17842 0.0
C1996 C 0.0036 0.96277 0.15816 0.0
C1997 C 0.98194 0.9832 0.15445 0.0
C1998 C 0.03257 0.97114 0.1585 0.0
C1999 C 0.04012 7e-05 0.15558 0.0
C2000 C 0.01837 0.02075 0.15341 0.0
H2001 H 0.17495 0.11201 0.1226 0.0
H2002 H 0.13093 0.08705 0.13217 0.0
C2003 C 0.98952 0.0124 0.15283 0.0
C2004 C 0.07031 0.00825 0.15168 0.0
H2005 H 0.12256 0.05585 0.16506 0.0
C2006 C 0.08312 -0.00212 0.13474 0.0
C2007 C 0.08498 0.02879 0.16302 0.0
C2008 C 0.07248 0.03989 0.18162 0.0
C2009 C 0.10953 0.00885 0.12819 0.0
C2010 C 0.12372 0.03025 0.13917 0.0
C2011 C 0.11153 0.03957 0.1566 0.0
C2012 C 0.15026 0.04465 0.1323 0.0
C2013 C 0.1211 -0.00134 0.10906 0.0
C2014 C 0.17562 0.029 0.12888 0.0
C2015 C 0.20078 0.04318 0.12311 0.0
C2016 C 0.20105 0.07331 0.12099 0.0
C2017 C 0.17546 0.0888 0.12412 0.0
C2018 C 0.15032 0.0746 0.12968 0.0
H2019 H 0.10437 0.98737 0.10044 0.0
H2020 H 0.12955 0.017 0.10051 0.0
H2021 H 0.13906 0.98336 0.11157 0.0
H2022 H 0.17618 0.00594 0.13116 0.0
H2023 H 0.22025 0.0307 0.12106 0.0
H2024 H 0.20516 0.9627 0.8661 0.0
H2025 H 0.22699 0.91622 0.8743 0.0
H2026 H 0.14277 0.87695 0.87545 0.0
H2027 H 0.12075 0.92304 0.86727 0.0
H2028 H 0.21212 0.88176 0.90891 0.0
H2029 H 0.19311 0.82461 0.83978 0.0
H2030 H 0.19314 0.86341 0.84171 0.0
H2031 H 0.1623 0.84309 0.84944 0.0
C2032 C 0.19133 0.94407 0.8678 0.0
C2033 C 0.16122 0.94655 0.86599 0.0
C2034 C 0.20382 0.91764 0.87261 0.0
C2035 C 0.18644 0.89328 0.87541 0.0
C2036 C 0.15651 0.89552 0.87318 0.0
H2037 H 0.20741 0.71382 0.89855 0.0
H2038 H 0.18881 0.76286 0.89647 0.0
C2039 C 0.144 0.92189 0.86852 0.0
C2040 C 0.19927 0.86553 0.88117 0.0
H2041 H 0.20752 0.79611 0.86631 0.0
C2042 C 0.21139 0.86301 0.8996 0.0
C2043 C 0.19813 0.84127 0.86895 0.0
C2044 C 0.1862 0.84314 0.84879 0.0
C2045 C 0.22163 0.83642 0.90637 0.0
C2046 C 0.22001 0.81202 0.89424 0.0
C2047 C 0.20841 0.8148 0.87567 0.0
C2048 C 0.2304 0.78325 0.90015 0.0
C2049 C 0.23329 0.83446 0.92658 0.0
C2050 C 0.25976 0.77854 0.90388 0.0
C2051 C 0.27043 0.75045 0.90531 0.0
C2052 C 0.25192 0.72677 0.90268 0.0
C2053 C 0.22221 0.73165 0.90051 0.0
C2054 C 0.21156 0.75965 0.89928 0.0
H2055 H 0.22621 0.85294 0.93557 0.0
H2056 H 0.22633 0.81414 0.9336 0.0
H2057 H 0.2572 0.83463 0.92606 0.0
H2058 H 0.27474 0.79642 0.90431 0.0
H2059 H 0.29346 0.74736 0.90684 0.0
H2060 H 0.3145 0.88827 0.63566 0.0
H2061 H 0.35827 0.91541 0.64208 0.0
H2062 H 0.31969 0.99154 0.61774 0.0
H2063 H 0.27533 0.96438 0.61113 0.0
H2064 H 0.37579 0.97927 0.60425 0.0
H2065 H 0.37184 0.97692 0.68379 0.0
H2066 H 0.36675 0.94193 0.67331 0.0
H2067 H 0.34063 0.96981 0.66896 0.0
C2068 C 0.31513 0.91079 0.63165 0.0
C2069 C 0.2913 0.92416 0.6229 0.0
C2070 C 0.34014 0.92634 0.63553 0.0
C2071 C 0.34191 0.95561 0.63082 0.0
C2072 C 0.3185 0.96902 0.62173 0.0
H2073 H 0.50217 0.05083 0.6568 0.0
H2074 H 0.45064 0.03873 0.65636 0.0
C2075 C 0.29328 0.95345 0.61788 0.0
C2076 C 0.3691 0.97132 0.63443 0.0
H2077 H 0.41878 0.98484 0.66956 0.0
C2078 C 0.38495 0.98108 0.61856 0.0
C2079 C 0.38083 0.97395 0.65315 0.0
C2080 C 0.36399 0.96537 0.6708 0.0
C2081 C 0.4131 0.99152 0.62079 0.0
C2082 C 0.42565 0.99191 0.63932 0.0
C2083 C 0.40914 0.9841 0.65536 0.0
C2084 C 0.45663 -0.00207 0.64188 0.0
C2085 C 0.42964 0.00108 0.60323 0.0
C2086 C 0.47688 0.97834 0.63468 0.0
C2087 C 0.50615 0.98502 0.63498 0.0
C2088 C 0.51573 0.01148 0.6425 0.0
C2089 C 0.49549 0.03029 0.65088 0.0
C2090 C 0.46608 0.02351 0.65058 0.0
H2091 H 0.41502 0.00625 0.59106 0.0
H2092 H 0.44308 0.02028 0.60649 0.0
H2093 H 0.44422 0.98345 0.59857 0.0
H2094 H 0.46991 0.95827 0.6282 0.0
H2095 H 0.52113 0.96992 0.62857 0.0
loop_
_geom_bond_atom_site_label_1
_geom_bond_atom_site_label_2
_geom_bond_distance
_geom_bond_site_symmetry_2
_ccdc_geom_bond_type
O0 Zn1 1.953 . S
O0 C16 1.225 . S
Zn1 O0 1.953 . S
Zn1 O2 1.949 . S
Zn1 O8 1.919 . S
Zn1 O13 1.924 . S
O2 Zn1 1.949 . S
O2 Zn3 1.923 . S
O2 Zn4 1.950 . S
O2 Zn5 1.945 . S
Zn3 O2 1.923 . S
Zn3 O6 1.933 . S
Zn3 O9 1.941 . S
Zn3 O10 1.965 . S
Zn4 O2 1.950 . S
Zn4 O11 1.938 . S
Zn4 O12 1.906 . S
Zn4 O22 1.953 . S
Zn5 O2 1.945 . S
Zn5 O7 1.932 . S
Zn5 O14 1.977 . S
Zn5 O15 1.910 . S
O6 Zn3 1.933 . S
O6 C17 1.226 . S
O7 Zn5 1.932 . S
O7 C17 1.307 . S
O8 Zn1 1.919 . S
O8 C19 1.253 . S
O9 Zn3 1.941 . S
O9 C19 1.283 . S
O10 Zn3 1.965 . S
O10 C18 1.303 . S
O11 Zn4 1.938 . S
O11 C18 1.247 . S
O12 Zn4 1.906 . S
O12 C20 1.304 . S
O13 Zn1 1.924 . S
O13 C21 1.311 . S
O14 Zn5 1.977 . S
O14 C20 1.272 . S
O15 Zn5 1.910 . S
O15 C21 1.231 . S
C16 O0 1.225 . S
C16 O22 1.298 . S
C17 O6 1.226 . S
C17 O7 1.307 . S
C18 O10 1.303 . S
C18 O11 1.247 . S
C19 O8 1.253 . S
C19 O9 1.283 . S
C20 O12 1.304 . S
C20 O14 1.272 . S
C21 O13 1.311 . S
C21 O15 1.231 . S
O22 Zn4 1.953 . S
O22 C16 1.298 . S
O23 Zn24 1.953 . S
O23 C39 1.225 . S
Zn24 O23 1.953 . S
Zn24 O25 1.949 . S
Zn24 O31 1.919 . S
Zn24 O36 1.924 . S
O25 Zn24 1.949 . S
O25 Zn26 1.923 . S
O25 Zn27 1.950 . S
O25 Zn28 1.945 . S
Zn26 O25 1.923 . S
Zn26 O29 1.933 . S
Zn26 O32 1.941 . S
Zn26 O33 1.965 . S
Zn27 O25 1.950 . S
Zn27 O34 1.938 . S
Zn27 O35 1.906 . S
Zn27 O45 1.953 . S
Zn28 O25 1.945 . S
Zn28 O30 1.932 . S
Zn28 O37 1.977 . S
Zn28 O38 1.910 . S
O29 Zn26 1.933 . S
O29 C40 1.226 . S
O30 Zn28 1.932 . S
O30 C40 1.307 . S
O31 Zn24 1.919 . S
O31 C42 1.253 . S
O32 Zn26 1.941 . S
O32 C42 1.283 . S
O33 Zn26 1.965 . S
O33 C41 1.303 . S
O34 Zn27 1.938 . S
O34 C41 1.247 . S
O35 Zn27 1.906 . S
O35 C43 1.304 . S
O36 Zn24 1.924 . S
O36 C44 1.311 . S
O37 Zn28 1.977 . S
O37 C43 1.272 . S
O38 Zn28 1.910 . S
O38 C44 1.231 . S
C39 O23 1.225 . S
C39 O45 1.298 . S
C40 O29 1.226 . S
C40 O30 1.307 . S
C41 O33 1.303 . S
C41 O34 1.247 . S
C42 O31 1.253 . S
C42 O32 1.283 . S
C43 O35 1.304 . S
C43 O37 1.272 . S
C44 O36 1.311 . S
C44 O38 1.231 . S
O45 Zn27 1.953 . S
O45 C39 1.298 . S
O46 Zn47 1.953 . S
O46 C62 1.225 . S
Zn47 O46 1.953 . S
Zn47 O48 1.949 . S
Zn47 O54 1.919 . S
Zn47 O59 1.924 . S
O48 Zn47 1.949 . S
O48 Zn49 1.923 . S
O48 Zn50 1.950 . S
O48 Zn51 1.945 . S
Zn49 O48 1.923 . S
Zn49 O52 1.933 . S
Zn49 O55 1.941 . S
Zn49 O56 1.965 . S
Zn50 O48 1.950 . S
Zn50 O57 1.938 . S
Zn50 O58 1.906 . S
Zn50 O68 1.953 . S
Zn51 O48 1.945 . S
Zn51 O53 1.932 . S
Zn51 O60 1.977 . S
Zn51 O61 1.910 . S
O52 Zn49 1.933 . S
O52 C63 1.226 . S
O53 Zn51 1.932 . S
O53 C63 1.307 . S
O54 Zn47 1.919 . S
O54 C65 1.253 . S
O55 Zn49 1.941 . S
O55 C65 1.283 . S
O56 Zn49 1.965 . S
O56 C64 1.303 . S
O57 Zn50 1.938 . S
O57 C64 1.247 . S
O58 Zn50 1.906 . S
O58 C66 1.304 . S
O59 Zn47 1.924 . S
O59 C67 1.311 . S
O60 Zn51 1.977 . S
O60 C66 1.272 . S
O61 Zn51 1.910 . S
O61 C67 1.231 . S
C62 O46 1.225 . S
C62 O68 1.298 . S
C63 O52 1.226 . S
C63 O53 1.307 . S
C64 O56 1.303 . S
C64 O57 1.247 . S
C65 O54 1.253 . S
C65 O55 1.283 . S
C66 O58 1.304 . S
C66 O60 1.272 . S
C67 O59 1.311 . S
C67 O61 1.231 . S
O68 Zn50 1.953 . S
O68 C62 1.298 . S
O69 Zn70 1.953 . S
O69 C85 1.225 . S
Zn70 O69 1.953 . S
Zn70 O71 1.949 . S
Zn70 O77 1.919 . S
Zn70 O82 1.924 . S
O71 Zn70 1.949 . S
O71 Zn72 1.923 . S
O71 Zn73 1.950 . S
O71 Zn74 1.945 . S
Zn72 O71 1.923 . S
Zn72 O75 1.933 . S
Zn72 O78 1.941 . S
Zn72 O79 1.965 . S
Zn73 O71 1.950 . S
Zn73 O80 1.938 . S
Zn73 O81 1.906 . S
Zn73 O91 1.953 . S
Zn74 O71 1.945 . S
Zn74 O76 1.932 . S
Zn74 O83 1.977 . S
Zn74 O84 1.910 . S
O75 Zn72 1.933 . S
O75 C86 1.226 . S
O76 Zn74 1.932 . S
O76 C86 1.307 . S
O77 Zn70 1.919 . S
O77 C88 1.253 . S
O78 Zn72 1.941 . S
O78 C88 1.283 . S
O79 Zn72 1.965 . S
O79 C87 1.303 . S
O80 Zn73 1.938 . S
O80 C87 1.247 . S
O81 Zn73 1.906 . S
O81 C89 1.304 . S
O82 Zn70 1.924 . S
O82 C90 1.311 . S
O83 Zn74 1.977 . S
O83 C89 1.272 . S
O84 Zn74 1.910 . S
O84 C90 1.231 . S
C85 O69 1.225 . S
C85 O91 1.298 . S
C86 O75 1.226 . S
C86 O76 1.307 . S
C87 O79 1.303 . S
C87 O80 1.247 . S
C88 O77 1.253 . S
C88 O78 1.283 . S
C89 O81 1.304 . S
C89 O83 1.272 . S
C90 O82 1.311 . S
C90 O84 1.231 . S
O91 Zn73 1.953 . S
O91 C85 1.298 . S
O92 Zn93 1.953 . S
O92 C108 1.225 . S
Zn93 O92 1.953 . S
Zn93 O94 1.949 . S
Zn93 O100 1.919 . S
Zn93 O105 1.924 . S
O94 Zn93 1.949 . S
O94 Zn95 1.923 . S
O94 Zn96 1.950 . S
O94 Zn97 1.945 . S
Zn95 O94 1.923 . S
Zn95 O98 1.933 . S
Zn95 O101 1.941 . S
Zn95 O102 1.965 . S
Zn96 O94 1.950 . S
Zn96 O103 1.938 . S
Zn96 O104 1.906 . S
Zn96 O114 1.953 . S
Zn97 O94 1.945 . S
Zn97 O99 1.932 . S
Zn97 O106 1.977 . S
Zn97 O107 1.910 . S
O98 Zn95 1.933 . S
O98 C109 1.226 . S
O99 Zn97 1.932 . S
O99 C109 1.307 . S
O100 Zn93 1.919 . S
O100 C111 1.253 . S
O101 Zn95 1.941 . S
O101 C111 1.283 . S
O102 Zn95 1.965 . S
O102 C110 1.303 . S
O103 Zn96 1.938 . S
O103 C110 1.247 . S
O104 Zn96 1.906 . S
O104 C112 1.304 . S
O105 Zn93 1.924 . S
O105 C113 1.311 . S
O106 Zn97 1.977 . S
O106 C112 1.272 . S
O107 Zn97 1.910 . S
O107 C113 1.231 . S
C108 O92 1.225 . S
C108 O114 1.298 . S
C109 O98 1.226 . S
C109 O99 1.307 . S
C110 O102 1.303 . S
C110 O103 1.247 . S
C111 O100 1.253 . S
C111 O101 1.283 . S
C112 O104 1.304 . S
C112 O106 1.272 . S
C113 O105 1.311 . S
C113 O107 1.231 . S
O114 Zn96 1.953 . S
O114 C108 1.298 . S
O115 Zn116 1.953 . S
O115 C131 1.225 . S
Zn116 O115 1.953 . S
Zn116 O117 1.949 . S
Zn116 O123 1.919 . S
Zn116 O128 1.924 . S
O117 Zn116 1.949 . S
O117 Zn118 1.923 . S
O117 Zn119 1.950 . S
O117 Zn120 1.945 . S
Zn118 O117 1.923 . S
Zn118 O121 1.933 . S
Zn118 O124 1.941 . S
Zn118 O125 1.965 . S
Zn119 O117 1.950 . S
Zn119 O126 1.938 . S
Zn119 O127 1.906 . S
Zn119 O137 1.953 . S
Zn120 O117 1.945 . S
Zn120 O122 1.932 . S
Zn120 O129 1.977 . S
Zn120 O130 1.910 . S
O121 Zn118 1.933 . S
O121 C132 1.226 . S
O122 Zn120 1.932 . S
O122 C132 1.307 . S
O123 Zn116 1.919 . S
O123 C134 1.253 . S
O124 Zn118 1.941 . S
O124 C134 1.283 . S
O125 Zn118 1.965 . S
O125 C133 1.303 . S
O126 Zn119 1.938 . S
O126 C133 1.247 . S
O127 Zn119 1.906 . S
O127 C135 1.304 . S
O128 Zn116 1.924 . S
O128 C136 1.311 . S
O129 Zn120 1.977 . S
O129 C135 1.272 . S
O130 Zn120 1.910 . S
O130 C136 1.231 . S
C131 O115 1.225 . S
C131 O137 1.298 . S
C132 O121 1.226 . S
C132 O122 1.307 . S
C133 O125 1.303 . S
C133 O126 1.247 . S
C134 O123 1.253 . S
C134 O124 1.283 . S
C135 O127 1.304 . S
C135 O129 1.272 . S
C136 O128 1.311 . S
C136 O130 1.231 . S
O137 Zn119 1.953 . S
O137 C131 1.298 . S
O138 Zn139 1.953 . S
O138 C154 1.225 . S
Zn139 O138 1.953 . S
Zn139 O140 1.949 . S
Zn139 O146 1.919 . S
Zn139 O151 1.924 . S
O140 Zn139 1.949 . S
O140 Zn141 1.923 . S
O140 Zn142 1.950 . S
O140 Zn143 1.945 . S
Zn141 O140 1.923 . S
Zn141 O144 1.933 . S
Zn141 O147 1.941 . S
Zn141 O148 1.965 . S
Zn142 O140 1.950 . S
Zn142 O149 1.938 . S
Zn142 O150 1.906 . S
Zn142 O160 1.953 . S
Zn143 O140 1.945 . S
Zn143 O145 1.932 . S
Zn143 O152 1.977 . S
Zn143 O153 1.910 . S
O144 Zn141 1.933 . S
O144 C155 1.226 . S
O145 Zn143 1.932 . S
O145 C155 1.307 . S
O146 Zn139 1.919 . S
O146 C157 1.253 . S
O147 Zn141 1.941 . S
O147 C157 1.283 . S
O148 Zn141 1.965 . S
O148 C156 1.303 . S
O149 Zn142 1.938 . S
O149 C156 1.247 . S
O150 Zn142 1.906 . S
O150 C158 1.304 . S
O151 Zn139 1.924 . S
O151 C159 1.311 . S
O152 Zn143 1.977 . S
O152 C158 1.272 . S
O153 Zn143 1.910 . S
O153 C159 1.231 . S
C154 O138 1.225 . S
C154 O160 1.298 . S
C155 O144 1.226 . S
C155 O145 1.307 . S
C156 O148 1.303 . S
C156 O149 1.247 . S
C157 O146 1.253 . S
C157 O147 1.283 . S
C158 O150 1.304 . S
C158 O152 1.272 . S
C159 O151 1.311 . S
C159 O153 1.231 . S
O160 Zn142 1.953 . S
O160 C154 1.298 . S
O161 Zn162 1.953 . S
O161 C177 1.225 . S
Zn162 O161 1.953 . S
Zn162 O163 1.949 . S
Zn162 O169 1.919 . S
Zn162 O174 1.924 . S
O163 Zn162 1.949 . S
O163 Zn164 1.923 . S
O163 Zn165 1.950 . S
O163 Zn166 1.945 . S
Zn164 O163 1.923 . S
Zn164 O167 1.933 . S
Zn164 O170 1.941 . S
Zn164 O171 1.965 . S
Zn165 O163 1.950 . S
Zn165 O172 1.938 . S
Zn165 O173 1.906 . S
Zn165 O183 1.953 . S
Zn166 O163 1.945 . S
Zn166 O168 1.932 . S
Zn166 O175 1.977 . S
Zn166 O176 1.910 . S
O167 Zn164 1.933 . S
O167 C178 1.226 . S
O168 Zn166 1.932 . S
O168 C178 1.307 . S
O169 Zn162 1.919 . S
O169 C180 1.253 . S
O170 Zn164 1.941 . S
O170 C180 1.283 . S
O171 Zn164 1.965 . S
O171 C179 1.303 . S
O172 Zn165 1.938 . S
O172 C179 1.247 . S
O173 Zn165 1.906 . S
O173 C181 1.304 . S
O174 Zn162 1.924 . S
O174 C182 1.311 . S
O175 Zn166 1.977 . S
O175 C181 1.272 . S
O176 Zn166 1.910 . S
O176 C182 1.231 . S
C177 O161 1.225 . S
C177 O183 1.298 . S
C178 O167 1.226 . S
C178 O168 1.307 . S
C179 O171 1.303 . S
C179 O172 1.247 . S
C180 O169 1.253 . S
C180 O170 1.283 . S
C181 O173 1.304 . S
C181 O175 1.272 . S
C182 O174 1.311 . S
C182 O176 1.231 . S
O183 Zn165 1.953 . S
O183 C177 1.298 . S
O184 Zn185 1.953 . S
O184 C200 1.225 . S
Zn185 O184 1.953 . S
Zn185 O186 1.949 . S
Zn185 O192 1.919 . S
Zn185 O197 1.924 . S
O186 Zn185 1.949 . S
O186 Zn187 1.923 . S
O186 Zn188 1.950 . S
O186 Zn189 1.945 . S
Zn187 O186 1.923 . S
Zn187 O190 1.933 . S
Zn187 O193 1.941 . S
Zn187 O194 1.965 . S
Zn188 O186 1.950 . S
Zn188 O195 1.938 . S
Zn188 O196 1.906 . S
Zn188 O206 1.953 . S
Zn189 O186 1.945 . S
Zn189 O191 1.932 . S
Zn189 O198 1.977 . S
Zn189 O199 1.910 . S
O190 Zn187 1.933 . S
O190 C201 1.226 . S
O191 Zn189 1.932 . S
O191 C201 1.307 . S
O192 Zn185 1.919 . S
O192 C203 1.253 . S
O193 Zn187 1.941 . S
O193 C203 1.283 . S
O194 Zn187 1.965 . S
O194 C202 1.303 . S
O195 Zn188 1.938 . S
O195 C202 1.247 . S
O196 Zn188 1.906 . S
O196 C204 1.304 . S
O197 Zn185 1.924 . S
O197 C205 1.311 . S
O198 Zn189 1.977 . S
O198 C204 1.272 . S
O199 Zn189 1.910 . S
O199 C205 1.231 . S
C200 O184 1.225 . S
C200 O206 1.298 . S
C201 O190 1.226 . S
C201 O191 1.307 . S
C202 O194 1.303 . S
C202 O195 1.247 . S
C203 O192 1.253 . S
C203 O193 1.283 . S
C204 O196 1.304 . S
C204 O198 1.272 . S
C205 O197 1.311 . S
C205 O199 1.231 . S
O206 Zn188 1.953 . S
O206 C200 1.298 . S
O207 Zn208 1.953 . S
O207 C223 1.225 . S
Zn208 O207 1.953 . S
Zn208 O209 1.949 . S
Zn208 O215 1.919 1_545 S
Zn208 O220 1.924 . S
O209 Zn208 1.949 . S
O209 Zn210 1.923 . S
O209 Zn211 1.950 . S
O209 Zn212 1.945 . S
Zn210 O209 1.923 . S
Zn210 O213 1.933 . S
Zn210 O216 1.941 . S
Zn210 O217 1.965 . S
Zn211 O209 1.950 . S
Zn211 O218 1.938 . S
Zn211 O219 1.906 . S
Zn211 O229 1.953 . S
Zn212 O209 1.945 . S
Zn212 O214 1.932 . S
Zn212 O221 1.977 . S
Zn212 O222 1.910 . S
O213 Zn210 1.933 . S
O213 C224 1.226 . S
O214 Zn212 1.932 . S
O214 C224 1.307 . S
O215 Zn208 1.919 1_565 S
O215 C226 1.253 . S
O216 Zn210 1.941 . S
O216 C226 1.283 1_545 S
O217 Zn210 1.965 . S
O217 C225 1.303 . S
O218 Zn211 1.938 . S
O218 C225 1.247 . S
O219 Zn211 1.906 . S
O219 C227 1.304 . S
O220 Zn208 1.924 . S
O220 C228 1.311 . S
O221 Zn212 1.977 . S
O221 C227 1.272 . S
O222 Zn212 1.910 . S
O222 C228 1.231 . S
C223 O207 1.225 . S
C223 O229 1.298 . S
C224 O213 1.226 . S
C224 O214 1.307 . S
C225 O217 1.303 . S
C225 O218 1.247 . S
C226 O215 1.253 . S
C226 O216 1.283 1_565 S
C227 O219 1.304 . S
C227 O221 1.272 . S
C228 O220 1.311 . S
C228 O222 1.231 . S
O229 Zn211 1.953 . S
O229 C223 1.298 . S
O230 Zn231 1.953 . S
O230 C246 1.225 . S
Zn231 O230 1.953 . S
Zn231 O232 1.949 . S
Zn231 O238 1.919 . S
Zn231 O243 1.924 . S
O232 Zn231 1.949 . S
O232 Zn233 1.923 . S
O232 Zn234 1.950 . S
O232 Zn235 1.945 . S
Zn233 O232 1.923 . S
Zn233 O236 1.933 . S
Zn233 O239 1.941 . S
Zn233 O240 1.965 . S
Zn234 O232 1.950 . S
Zn234 O241 1.938 . S
Zn234 O242 1.906 . S
Zn234 O252 1.953 . S
Zn235 O232 1.945 . S
Zn235 O237 1.932 . S
Zn235 O244 1.977 . S
Zn235 O245 1.910 . S
O236 Zn233 1.933 . S
O236 C247 1.226 . S
O237 Zn235 1.932 . S
O237 C247 1.307 . S
O238 Zn231 1.919 . S
O238 C249 1.253 . S
O239 Zn233 1.941 . S
O239 C249 1.283 . S
O240 Zn233 1.965 . S
O240 C248 1.303 . S
O241 Zn234 1.938 . S
O241 C248 1.247 . S
O242 Zn234 1.906 . S
O242 C250 1.304 . S
O243 Zn231 1.924 . S
O243 C251 1.311 . S
O244 Zn235 1.977 . S
O244 C250 1.272 . S
O245 Zn235 1.910 . S
O245 C251 1.231 . S
C246 O230 1.225 . S
C246 O252 1.298 . S
C247 O236 1.226 . S
C247 O237 1.307 . S
C248 O240 1.303 . S
C248 O241 1.247 . S
C249 O238 1.253 . S
C249 O239 1.283 . S
C250 O242 1.304 . S
C250 O244 1.272 . S
C251 O243 1.311 . S
C251 O245 1.231 . S
O252 Zn234 1.953 . S
O252 C246 1.298 . S
O253 Zn254 1.953 . S
O253 C269 1.225 . S
Zn254 O253 1.953 . S
Zn254 O255 1.949 . S
Zn254 O261 1.919 1_565 S
Zn254 O266 1.924 . S
O255 Zn254 1.949 . S
O255 Zn256 1.923 . S
O255 Zn257 1.950 . S
O255 Zn258 1.945 . S
Zn256 O255 1.923 . S
Zn256 O259 1.933 . S
Zn256 O262 1.941 . S
Zn256 O263 1.965 . S
Zn257 O255 1.950 . S
Zn257 O264 1.938 . S
Zn257 O265 1.906 . S
Zn257 O275 1.953 . S
Zn258 O255 1.945 . S
Zn258 O260 1.932 . S
Zn258 O267 1.977 . S
Zn258 O268 1.910 . S
O259 Zn256 1.933 . S
O259 C270 1.226 . S
O260 Zn258 1.932 . S
O260 C270 1.307 . S
O261 Zn254 1.919 1_545 S
O261 C272 1.253 . S
O262 Zn256 1.941 . S
O262 C272 1.283 1_565 S
O263 Zn256 1.965 . S
O263 C271 1.303 . S
O264 Zn257 1.938 . S
O264 C271 1.247 . S
O265 Zn257 1.906 . S
O265 C273 1.304 . S
O266 Zn254 1.924 . S
O266 C274 1.311 . S
O267 Zn258 1.977 . S
O267 C273 1.272 . S
O268 Zn258 1.910 . S
O268 C274 1.231 . S
C269 O253 1.225 . S
C269 O275 1.298 . S
C270 O259 1.226 . S
C270 O260 1.307 . S
C271 O263 1.303 . S
C271 O264 1.247 . S
C272 O261 1.253 . S
C272 O262 1.283 1_545 S
C273 O265 1.304 . S
C273 O267 1.272 . S
C274 O266 1.311 . S
C274 O268 1.231 . S
O275 Zn257 1.953 . S
O275 C269 1.298 . S
O276 Zn277 1.953 . S
O276 C292 1.225 . S
Zn277 O276 1.953 . S
Zn277 O278 1.949 . S
Zn277 O284 1.919 . S
Zn277 O289 1.924 . S
O278 Zn277 1.949 . S
O278 Zn279 1.923 . S
O278 Zn280 1.950 . S
O278 Zn281 1.945 . S
Zn279 O278 1.923 . S
Zn279 O282 1.933 . S
Zn279 O285 1.941 . S
Zn279 O286 1.965 . S
Zn280 O278 1.950 . S
Zn280 O287 1.938 . S
Zn280 O288 1.906 . S
Zn280 O298 1.953 . S
Zn281 O278 1.945 . S
Zn281 O283 1.932 . S
Zn281 O290 1.977 . S
Zn281 O291 1.910 . S
O282 Zn279 1.933 . S
O282 C293 1.226 . S
O283 Zn281 1.932 . S
O283 C293 1.307 . S
O284 Zn277 1.919 . S
O284 C295 1.253 . S
O285 Zn279 1.941 . S
O285 C295 1.283 . S
O286 Zn279 1.965 . S
O286 C294 1.303 . S
O287 Zn280 1.938 . S
O287 C294 1.247 . S
O288 Zn280 1.906 . S
O288 C296 1.304 . S
O289 Zn277 1.924 . S
O289 C297 1.311 . S
O290 Zn281 1.977 . S
O290 C296 1.272 . S
O291 Zn281 1.910 . S
O291 C297 1.231 . S
C292 O276 1.225 . S
C292 O298 1.298 . S
C293 O282 1.226 . S
C293 O283 1.307 . S
C294 O286 1.303 . S
C294 O287 1.247 . S
C295 O284 1.253 . S
C295 O285 1.283 . S
C296 O288 1.304 . S
C296 O290 1.272 . S
C297 O289 1.311 . S
C297 O291 1.231 . S
O298 Zn280 1.953 . S
O298 C292 1.298 . S
O299 Zn300 1.953 . S
O299 C315 1.225 . S
Zn300 O299 1.953 . S
Zn300 O301 1.949 . S
Zn300 O307 1.919 1_565 S
Zn300 O312 1.924 . S
O301 Zn300 1.949 . S
O301 Zn302 1.923 . S
O301 Zn303 1.950 . S
O301 Zn304 1.945 . S
Zn302 O301 1.923 . S
Zn302 O305 1.933 . S
Zn302 O308 1.941 . S
Zn302 O309 1.965 . S
Zn303 O301 1.950 . S
Zn303 O310 1.938 . S
Zn303 O311 1.906 . S
Zn303 O321 1.953 . S
Zn304 O301 1.945 . S
Zn304 O306 1.932 . S
Zn304 O313 1.977 . S
Zn304 O314 1.910 . S
O305 Zn302 1.933 . S
O305 C316 1.226 . S
O306 Zn304 1.932 . S
O306 C316 1.307 . S
O307 Zn300 1.919 1_545 S
O307 C318 1.253 . S
O308 Zn302 1.941 . S
O308 C318 1.283 1_565 S
O309 Zn302 1.965 . S
O309 C317 1.303 . S
O310 Zn303 1.938 . S
O310 C317 1.247 . S
O311 Zn303 1.906 . S
O311 C319 1.304 . S
O312 Zn300 1.924 . S
O312 C320 1.311 . S
O313 Zn304 1.977 . S
O313 C319 1.272 . S
O314 Zn304 1.910 . S
O314 C320 1.231 . S
C315 O299 1.225 . S
C315 O321 1.298 . S
C316 O305 1.226 . S
C316 O306 1.307 . S
C317 O309 1.303 . S
C317 O310 1.247 . S
C318 O307 1.253 . S
C318 O308 1.283 1_545 S
C319 O311 1.304 . S
C319 O313 1.272 . S
C320 O312 1.311 . S
C320 O314 1.231 . S
O321 Zn303 1.953 . S
O321 C315 1.298 . S
O322 Zn323 1.953 . S
O322 C338 1.225 . S
Zn323 O322 1.953 . S
Zn323 O324 1.949 . S
Zn323 O330 1.919 . S
Zn323 O335 1.924 . S
O324 Zn323 1.949 . S
O324 Zn325 1.923 . S
O324 Zn326 1.950 . S
O324 Zn327 1.945 . S
Zn325 O324 1.923 . S
Zn325 O328 1.933 . S
Zn325 O331 1.941 . S
Zn325 O332 1.965 . S
Zn326 O324 1.950 . S
Zn326 O333 1.938 . S
Zn326 O334 1.906 . S
Zn326 O344 1.953 . S
Zn327 O324 1.945 . S
Zn327 O329 1.932 . S
Zn327 O336 1.977 . S
Zn327 O337 1.910 . S
O328 Zn325 1.933 . S
O328 C339 1.226 . S
O329 Zn327 1.932 . S
O329 C339 1.307 . S
O330 Zn323 1.919 . S
O330 C341 1.253 . S
O331 Zn325 1.941 . S
O331 C341 1.283 . S
O332 Zn325 1.965 . S
O332 C340 1.303 . S
O333 Zn326 1.938 . S
O333 C340 1.247 . S
O334 Zn326 1.906 . S
O334 C342 1.304 . S
O335 Zn323 1.924 . S
O335 C343 1.311 . S
O336 Zn327 1.977 . S
O336 C342 1.272 . S
O337 Zn327 1.910 . S
O337 C343 1.231 . S
C338 O322 1.225 . S
C338 O344 1.298 . S
C339 O328 1.226 . S
C339 O329 1.307 . S
C340 O332 1.303 . S
C340 O333 1.247 . S
C341 O330 1.253 . S
C341 O331 1.283 . S
C342 O334 1.304 . S
C342 O336 1.272 . S
C343 O335 1.311 . S
C343 O337 1.231 . S
O344 Zn326 1.953 . S
O344 C338 1.298 . S
O345 Zn346 1.953 . S
O345 C361 1.225 . S
Zn346 O345 1.953 . S
Zn346 O347 1.949 . S
Zn346 O353 1.919 1_545 S
Zn346 O358 1.924 . S
O347 Zn346 1.949 . S
O347 Zn348 1.923 . S
O347 Zn349 1.950 . S
O347 Zn350 1.945 . S
Zn348 O347 1.923 . S
Zn348 O351 1.933 . S
Zn348 O354 1.941 . S
Zn348 O355 1.965 . S
Zn349 O347 1.950 . S
Zn349 O356 1.938 . S
Zn349 O357 1.906 . S
Zn349 O367 1.953 . S
Zn350 O347 1.945 . S
Zn350 O352 1.932 . S
Zn350 O359 1.977 . S
Zn350 O360 1.910 . S
O351 Zn348 1.933 . S
O351 C362 1.226 . S
O352 Zn350 1.932 . S
O352 C362 1.307 . S
O353 Zn346 1.919 1_565 S
O353 C364 1.253 . S
O354 Zn348 1.941 . S
O354 C364 1.283 1_545 S
O355 Zn348 1.965 . S
O355 C363 1.303 . S
O356 Zn349 1.938 . S
O356 C363 1.247 . S
O357 Zn349 1.906 . S
O357 C365 1.304 . S
O358 Zn346 1.924 . S
O358 C366 1.311 . S
O359 Zn350 1.977 . S
O359 C365 1.272 . S
O360 Zn350 1.910 . S
O360 C366 1.231 . S
C361 O345 1.225 . S
C361 O367 1.298 . S
C362 O351 1.226 . S
C362 O352 1.307 . S
C363 O355 1.303 . S
C363 O356 1.247 . S
C364 O353 1.253 . S
C364 O354 1.283 1_565 S
C365 O357 1.304 . S
C365 O359 1.272 . S
C366 O358 1.311 . S
C366 O360 1.231 . S
O367 Zn349 1.953 . S
O367 C361 1.298 . S
H368 C376 0.929 . S
H369 C378 0.930 . S
H370 C380 0.930 . S
H371 C383 0.929 . S
H372 C386 0.930 . S
H373 C388 0.960 . S
H374 C388 0.960 . S
H375 C388 0.960 . S
C376 H368 0.929 . S
C376 C377 1.377 . S
C376 C378 1.384 . S
C377 C376 1.377 . S
C377 C383 1.390 . S
C378 H369 0.930 . S
C378 C376 1.384 . S
C378 C379 1.372 . S
C379 C378 1.372 . S
C379 C380 1.400 . S
C379 C384 1.490 . S
C380 H370 0.930 . S
C380 C379 1.400 . S
C380 C383 1.386 . S
H381 C397 0.930 . S
H382 C398 0.931 . S
C383 H371 0.929 . S
C383 C377 1.390 . S
C383 C380 1.386 . S
C384 C379 1.490 . S
C384 C386 1.395 . S
C384 C387 1.403 . S
H385 C391 0.930 . S
C386 H372 0.930 . S
C386 C384 1.395 . S
C386 C389 1.403 . S
C387 C384 1.403 . S
C387 C388 1.524 . S
C387 C391 1.400 . S
C388 H373 0.960 . S
C388 H374 0.960 . S
C388 H375 0.960 . S
C388 C387 1.524 . S
C389 C386 1.403 . S
C389 C390 1.392 . S
C389 C393 1.495 . S
C390 C389 1.392 . S
C390 C391 1.385 . S
C390 C392 1.478 . S
C391 H385 0.930 . S
C391 C387 1.400 . S
C391 C390 1.385 . S
C392 C390 1.478 . S
C392 C394 1.381 . S
C392 C398 1.383 . S
C393 C389 1.495 . S
C393 H399 0.959 . S
C393 H400 0.961 . S
C393 H401 0.960 . S
C394 C392 1.381 . S
C394 C395 1.394 . S
C394 H402 0.930 . S
C395 C394 1.394 . S
C395 C396 1.383 . S
C395 H403 0.929 . S
C396 C395 1.383 . S
C396 C397 1.377 . S
C397 H381 0.930 . S
C397 C396 1.377 . S
C397 C398 1.379 . S
C398 H382 0.931 . S
C398 C392 1.383 . S
C398 C397 1.379 . S
H399 C393 0.959 . S
H400 C393 0.961 . S
H401 C393 0.960 . S
H402 C394 0.930 . S
H403 C395 0.929 . S
H404 C412 0.929 . S
H405 C414 0.930 . S
H406 C416 0.930 . S
H407 C419 0.929 . S
H408 C422 0.930 . S
H409 C424 0.960 . S
H410 C424 0.960 . S
H411 C424 0.960 . S
C412 H404 0.929 . S
C412 C413 1.377 . S
C412 C414 1.384 . S
C413 C412 1.377 . S
C413 C419 1.390 . S
C414 H405 0.930 . S
C414 C412 1.384 . S
C414 C415 1.372 . S
C415 C414 1.372 . S
C415 C416 1.400 . S
C415 C420 1.490 . S
C416 H406 0.930 . S
C416 C415 1.400 . S
C416 C419 1.386 . S
H417 C433 0.930 . S
H418 C434 0.931 . S
C419 H407 0.929 . S
C419 C413 1.390 . S
C419 C416 1.386 . S
C420 C415 1.490 . S
C420 C422 1.395 . S
C420 C423 1.403 . S
H421 C427 0.930 . S
C422 H408 0.930 . S
C422 C420 1.395 . S
C422 C425 1.403 . S
C423 C420 1.403 . S
C423 C424 1.524 . S
C423 C427 1.400 . S
C424 H409 0.960 . S
C424 H410 0.960 . S
C424 H411 0.960 . S
C424 C423 1.524 . S
C425 C422 1.403 . S
C425 C426 1.392 . S
C425 C429 1.495 . S
C426 C425 1.392 . S
C426 C427 1.385 . S
C426 C428 1.478 . S
C427 H421 0.930 . S
C427 C423 1.400 . S
C427 C426 1.385 . S
C428 C426 1.478 . S
C428 C430 1.381 . S
C428 C434 1.383 . S
C429 C425 1.495 . S
C429 H435 0.959 . S
C429 H436 0.961 . S
C429 H437 0.960 . S
C430 C428 1.381 . S
C430 C431 1.394 . S
C430 H438 0.930 . S
C431 C430 1.394 . S
C431 C432 1.383 . S
C431 H439 0.929 . S
C432 C431 1.383 . S
C432 C433 1.377 . S
C433 H417 0.930 . S
C433 C432 1.377 . S
C433 C434 1.379 . S
C434 H418 0.931 . S
C434 C428 1.383 . S
C434 C433 1.379 . S
H435 C429 0.959 . S
H436 C429 0.961 . S
H437 C429 0.960 . S
H438 C430 0.930 . S
H439 C431 0.929 . S
H440 C448 0.929 . S
H441 C450 0.930 . S
H442 C452 0.930 . S
H443 C455 0.929 . S
H444 C458 0.930 . S
H445 C460 0.960 . S
H446 C460 0.960 . S
H447 C460 0.960 . S
C448 H440 0.929 . S
C448 C449 1.377 . S
C448 C450 1.384 . S
C449 C448 1.377 . S
C449 C455 1.390 . S
C450 H441 0.930 . S
C450 C448 1.384 . S
C450 C451 1.372 . S
C451 C450 1.372 . S
C451 C452 1.400 . S
C451 C456 1.490 . S
C452 H442 0.930 . S
C452 C451 1.400 . S
C452 C455 1.386 . S
H453 C469 0.930 . S
H454 C470 0.931 . S
C455 H443 0.929 . S
C455 C449 1.390 . S
C455 C452 1.386 . S
C456 C451 1.490 . S
C456 C458 1.395 . S
C456 C459 1.403 . S
H457 C463 0.930 . S
C458 H444 0.930 . S
C458 C456 1.395 . S
C458 C461 1.403 . S
C459 C456 1.403 . S
C459 C460 1.524 . S
C459 C463 1.400 . S
C460 H445 0.960 . S
C460 H446 0.960 . S
C460 H447 0.960 . S
C460 C459 1.524 . S
C461 C458 1.403 . S
C461 C462 1.392 . S
C461 C465 1.495 . S
C462 C461 1.392 . S
C462 C463 1.385 . S
C462 C464 1.478 . S
C463 H457 0.930 . S
C463 C459 1.400 . S
C463 C462 1.385 . S
C464 C462 1.478 . S
C464 C466 1.381 . S
C464 C470 1.383 . S
C465 C461 1.495 . S
C465 H471 0.959 . S
C465 H472 0.961 . S
C465 H473 0.960 . S
C466 C464 1.381 . S
C466 C467 1.394 . S
C466 H474 0.930 . S
C467 C466 1.394 . S
C467 C468 1.383 . S
C467 H475 0.929 . S
C468 C467 1.383 . S
C468 C469 1.377 . S
C469 H453 0.930 . S
C469 C468 1.377 . S
C469 C470 1.379 . S
C470 H454 0.931 . S
C470 C464 1.383 . S
C470 C469 1.379 . S
H471 C465 0.959 . S
H472 C465 0.961 . S
H473 C465 0.960 . S
H474 C466 0.930 . S
H475 C467 0.929 . S
H476 C484 0.929 . S
H477 C486 0.905 1_455 S
H478 C488 0.930 . S
H479 C491 0.929 . S
H480 C494 0.930 . S
H481 C496 0.960 . S
H482 C496 0.960 . S
H483 C496 0.962 1_556 S
C484 H476 0.929 . S
C484 C485 1.377 . S
C484 C486 1.384 . S
C485 C484 1.377 . S
C485 C491 1.390 . S
C486 H477 0.905 1_655 S
C486 C484 1.384 . S
C486 C487 1.372 . S
C487 C486 1.372 . S
C487 C488 1.400 . S
C487 C492 1.490 . S
C488 H478 0.930 . S
C488 C487 1.400 . S
C488 C491 1.386 . S
H489 C505 0.930 . S
H490 C506 0.931 . S
C491 H479 0.929 . S
C491 C485 1.390 . S
C491 C488 1.386 . S
C492 C487 1.490 . S
C492 C494 1.395 1_655 S
C492 C495 1.403 1_556 S
H493 C499 0.930 . S
C494 H480 0.930 . S
C494 C492 1.395 1_455 S
C494 C497 1.403 . S
C495 C492 1.403 1_554 S
C495 C496 1.524 . S
C495 C499 1.400 . S
C496 H481 0.960 . S
C496 H482 0.960 . S
C496 H483 0.962 1_554 S
C496 C495 1.524 . S
C497 C494 1.403 . S
C497 C498 1.392 1_556 S
C497 C501 1.495 . S
C498 C497 1.392 1_554 S
C498 C499 1.385 1_455 S
C498 C500 1.478 . S
C499 H493 0.930 . S
C499 C495 1.400 . S
C499 C498 1.385 1_655 S
C500 C498 1.478 . S
C500 C502 1.381 . S
C500 C506 1.383 . S
C501 C497 1.495 . S
C501 H507 0.959 . S
C501 H508 0.961 . S
C501 H509 0.960 . S
C502 C500 1.381 . S
C502 C503 1.394 . S
C502 H510 0.930 . S
C503 C502 1.394 . S
C503 C504 1.383 . S
C503 H511 0.929 . S
C504 C503 1.383 . S
C504 C505 1.377 . S
C505 H489 0.930 . S
C505 C504 1.377 . S
C505 C506 1.379 . S
C506 H490 0.931 . S
C506 C500 1.383 . S
C506 C505 1.379 . S
H507 C501 0.959 . S
H508 C501 0.961 . S
H509 C501 0.960 . S
H510 C502 0.930 . S
H511 C503 0.929 . S
H512 C520 0.929 . S
H513 C522 0.930 . S
H514 C524 0.930 . S
H515 C527 0.929 . S
H516 C530 0.930 . S
H517 C532 0.960 . S
H518 C532 0.960 . S
H519 C532 0.960 . S
C520 H512 0.929 . S
C520 C521 1.377 . S
C520 C522 1.384 . S
C521 C520 1.377 . S
C521 C527 1.390 . S
C522 H513 0.930 . S
C522 C520 1.384 . S
C522 C523 1.372 . S
C523 C522 1.372 . S
C523 C524 1.400 . S
C523 C528 1.490 . S
C524 H514 0.930 . S
C524 C523 1.400 . S
C524 C527 1.386 . S
H525 C541 0.930 . S
H526 C542 0.931 . S
C527 H515 0.929 . S
C527 C521 1.390 . S
C527 C524 1.386 . S
C528 C523 1.490 . S
C528 C530 1.395 . S
C528 C531 1.403 . S
H529 C535 0.930 . S
C530 H516 0.930 . S
C530 C528 1.395 . S
C530 C533 1.403 . S
C531 C528 1.403 . S
C531 C532 1.524 . S
C531 C535 1.400 . S
C532 H517 0.960 . S
C532 H518 0.960 . S
C532 H519 0.960 . S
C532 C531 1.524 . S
C533 C530 1.403 . S
C533 C534 1.392 . S
C533 C537 1.495 . S
C534 C533 1.392 . S
C534 C535 1.385 . S
C534 C536 1.478 . S
C535 H529 0.930 . S
C535 C531 1.400 . S
C535 C534 1.385 . S
C536 C534 1.478 . S
C536 C538 1.381 . S
C536 C542 1.383 . S
C537 C533 1.495 . S
C537 H543 0.959 . S
C537 H544 0.961 . S
C537 H545 0.960 . S
C538 C536 1.381 . S
C538 C539 1.394 . S
C538 H546 0.930 . S
C539 C538 1.394 . S
C539 C540 1.383 . S
C539 H547 0.929 . S
C540 C539 1.383 . S
C540 C541 1.377 . S
C541 H525 0.930 . S
C541 C540 1.377 . S
C541 C542 1.379 . S
C542 H526 0.931 . S
C542 C536 1.383 . S
C542 C541 1.379 . S
H543 C537 0.959 . S
H544 C537 0.961 . S
H545 C537 0.960 . S
H546 C538 0.930 . S
H547 C539 0.929 . S
H548 C556 0.929 . S
H549 C558 0.930 . S
H550 C560 0.930 . S
H551 C563 0.929 . S
H552 C566 0.930 . S
H553 C568 0.960 . S
H554 C568 0.960 . S
H555 C568 0.960 . S
C556 H548 0.929 . S
C556 C557 1.377 . S
C556 C558 1.384 . S
C557 C556 1.377 . S
C557 C563 1.390 . S
C558 H549 0.930 . S
C558 C556 1.384 . S
C558 C559 1.372 . S
C559 C558 1.372 . S
C559 C560 1.400 . S
C559 C564 1.490 . S
C560 H550 0.930 . S
C560 C559 1.400 . S
C560 C563 1.386 . S
H561 C577 0.930 . S
H562 C578 0.931 . S
C563 H551 0.929 . S
C563 C557 1.390 . S
C563 C560 1.386 . S
C564 C559 1.490 . S
C564 C566 1.395 . S
C564 C567 1.403 . S
H565 C571 0.930 . S
C566 H552 0.930 . S
C566 C564 1.395 . S
C566 C569 1.403 . S
C567 C564 1.403 . S
C567 C568 1.524 . S
C567 C571 1.400 . S
C568 H553 0.960 . S
C568 H554 0.960 . S
C568 H555 0.960 . S
C568 C567 1.524 . S
C569 C566 1.403 . S
C569 C570 1.392 . S
C569 C573 1.495 . S
C570 C569 1.392 . S
C570 C571 1.385 . S
C570 C572 1.478 . S
C571 H565 0.930 . S
C571 C567 1.400 . S
C571 C570 1.385 . S
C572 C570 1.478 . S
C572 C574 1.381 . S
C572 C578 1.383 . S
C573 C569 1.495 . S
C573 H579 0.959 . S
C573 H580 0.961 . S
C573 H581 0.960 . S
C574 C572 1.381 . S
C574 C575 1.394 . S
C574 H582 0.930 . S
C575 C574 1.394 . S
C575 C576 1.383 . S
C575 H583 0.929 . S
C576 C575 1.383 . S
C576 C577 1.377 . S
C577 H561 0.930 . S
C577 C576 1.377 . S
C577 C578 1.379 . S
C578 H562 0.931 . S
C578 C572 1.383 . S
C578 C577 1.379 . S
H579 C573 0.959 . S
H580 C573 0.961 . S
H581 C573 0.960 . S
H582 C574 0.930 . S
H583 C575 0.929 . S
H584 C592 0.929 . S
H585 C594 0.930 . S
H586 C596 0.930 1_545 S
H587 C599 0.929 . S
H588 C602 0.929 . S
H589 C604 0.960 . S
H590 C604 0.960 . S
H591 C604 0.960 . S
C592 H584 0.929 . S
C592 C593 1.377 . S
C592 C594 1.384 . S
C593 C592 1.377 . S
C593 C599 1.390 . S
C594 H585 0.930 . S
C594 C592 1.384 . S
C594 C595 1.372 . S
C595 C594 1.372 . S
C595 C596 1.400 . S
C595 C600 1.490 . S
C596 H586 0.930 1_565 S
C596 C595 1.400 . S
C596 C599 1.386 . S
H597 C613 0.930 . S
H598 C614 0.931 . S
C599 H587 0.929 . S
C599 C593 1.390 . S
C599 C596 1.386 . S
C600 C595 1.490 . S
C600 C602 1.351 1_554 S
C600 C603 1.403 1_655 S
H601 C607 0.930 . S
C602 H588 0.929 . S
C602 C600 1.351 1_556 S
C602 C605 1.450 1_565 S
C603 C600 1.403 1_455 S
C603 C604 1.524 . S
C603 C607 1.400 1_564 S
C604 H589 0.960 . S
C604 H590 0.960 . S
C604 H591 0.960 . S
C604 C603 1.524 . S
C605 C602 1.450 1_545 S
C605 C606 1.392 1_655 S
C605 C609 1.495 . S
C606 C605 1.392 1_455 S
C606 C607 1.385 . S
C606 C608 1.478 . S
C607 H601 0.930 . S
C607 C603 1.400 1_546 S
C607 C606 1.385 . S
C608 C606 1.478 . S
C608 C610 1.381 . S
C608 C614 1.383 . S
C609 C605 1.495 . S
C609 H615 0.959 . S
C609 H616 0.961 . S
C609 H617 0.960 . S
C610 C608 1.381 . S
C610 C611 1.394 . S
C610 H618 0.930 1_545 S
C611 C610 1.394 . S
C611 C612 1.383 . S
C611 H619 0.929 . S
C612 C611 1.383 . S
C612 C613 1.377 . S
C613 H597 0.930 . S
C613 C612 1.377 . S
C613 C614 1.379 . S
C614 H598 0.931 . S
C614 C608 1.383 . S
C614 C613 1.379 . S
H615 C609 0.959 . S
H616 C609 0.961 . S
H617 C609 0.960 . S
H618 C610 0.930 1_565 S
H619 C611 0.929 . S
H620 C628 0.910 1_545 S
H621 C630 0.930 1_545 S
H622 C632 0.930 . S
H623 C635 0.929 . S
H624 C638 0.930 . S
H625 C640 0.960 . S
H626 C640 0.960 . S
H627 C640 0.960 . S
C628 H620 0.910 1_565 S
C628 C629 1.377 . S
C628 C630 1.384 . S
C629 C628 1.377 . S
C629 C635 1.390 . S
C630 H621 0.930 1_565 S
C630 C628 1.384 . S
C630 C631 1.372 . S
C631 C630 1.372 . S
C631 C632 1.400 . S
C631 C636 1.490 . S
C632 H622 0.930 . S
C632 C631 1.400 . S
C632 C635 1.386 . S
H633 C649 0.930 . S
H634 C650 0.931 1_565 S
C635 H623 0.929 . S
C635 C629 1.390 . S
C635 C632 1.386 . S
C636 C631 1.490 . S
C636 C638 1.395 1_565 S
C636 C639 1.403 . S
H637 C643 0.930 . S
C638 H624 0.930 . S
C638 C636 1.395 1_545 S
C638 C641 1.403 . S
C639 C636 1.403 . S
C639 C640 1.524 . S
C639 C643 1.400 . S
C640 H625 0.960 . S
C640 H626 0.960 . S
C640 H627 0.960 . S
C640 C639 1.524 . S
C641 C638 1.403 . S
C641 C642 1.392 . S
C641 C645 1.495 . S
C642 C641 1.392 . S
C642 C643 1.385 1_545 S
C642 C644 1.478 . S
C643 H637 0.930 . S
C643 C639 1.400 . S
C643 C642 1.385 1_565 S
C644 C642 1.478 . S
C644 C646 1.381 . S
C644 C650 1.383 . S
C645 C641 1.495 . S
C645 H651 0.959 . S
C645 H652 0.961 . S
C645 H653 0.960 . S
C646 C644 1.381 . S
C646 C647 1.394 . S
C646 H654 0.930 . S
C647 C646 1.394 . S
C647 C648 1.383 . S
C647 H655 0.929 . S
C648 C647 1.383 . S
C648 C649 1.377 . S
C649 H633 0.930 . S
C649 C648 1.377 . S
C649 C650 1.379 . S
C650 H634 0.931 1_545 S
C650 C644 1.383 . S
C650 C649 1.379 . S
H651 C645 0.959 . S
H652 C645 0.961 . S
H653 C645 0.960 . S
H654 C646 0.930 . S
H655 C647 0.929 . S
H656 C664 0.929 . S
H657 C666 0.930 . S
H658 C668 0.930 . S
H659 C671 0.929 . S
H660 C674 0.930 . S
H661 C676 0.960 1_554 S
H662 C676 0.960 . S
H663 C676 0.960 . S
C664 H656 0.929 . S
C664 C665 1.377 . S
C664 C666 1.384 . S
C665 C664 1.377 . S
C665 C671 1.390 . S
C666 H657 0.930 . S
C666 C664 1.384 . S
C666 C667 1.372 . S
C667 C666 1.372 . S
C667 C668 1.400 . S
C667 C672 1.490 . S
C668 H658 0.930 . S
C668 C667 1.400 . S
C668 C671 1.386 . S
H669 C685 0.930 . S
H670 C686 0.931 . S
C671 H659 0.929 . S
C671 C665 1.390 . S
C671 C668 1.386 . S
C672 C667 1.490 . S
C672 C674 1.395 . S
C672 C675 1.403 . S
H673 C679 0.930 . S
C674 H660 0.930 . S
C674 C672 1.395 . S
C674 C677 1.403 . S
C675 C672 1.403 . S
C675 C676 1.524 . S
C675 C679 1.400 1_556 S
C676 H661 0.960 1_556 S
C676 H662 0.960 . S
C676 H663 0.960 . S
C676 C675 1.524 . S
C677 C674 1.403 . S
C677 C678 1.392 1_556 S
C677 C681 1.495 . S
C678 C677 1.392 1_554 S
C678 C679 1.385 . S
C678 C680 1.478 . S
C679 H673 0.930 . S
C679 C675 1.400 1_554 S
C679 C678 1.385 . S
C680 C678 1.478 . S
C680 C682 1.381 . S
C680 C686 1.383 . S
C681 C677 1.495 . S
C681 H687 0.959 . S
C681 H688 0.961 . S
C681 H689 0.960 . S
C682 C680 1.381 . S
C682 C683 1.394 . S
C682 H690 0.930 . S
C683 C682 1.394 . S
C683 C684 1.383 . S
C683 H691 0.929 . S
C684 C683 1.383 . S
C684 C685 1.377 . S
C685 H669 0.930 . S
C685 C684 1.377 . S
C685 C686 1.379 . S
C686 H670 0.931 . S
C686 C680 1.383 . S
C686 C685 1.379 . S
H687 C681 0.959 . S
H688 C681 0.961 . S
H689 C681 0.960 . S
H690 C682 0.930 . S
H691 C683 0.929 . S
H692 C700 0.929 . S
H693 C702 0.930 . S
H694 C704 0.930 . S
H695 C707 0.929 . S
H696 C710 0.930 . S
H697 C712 0.960 . S
H698 C712 0.960 . S
H699 C712 0.960 . S
C700 H692 0.929 . S
C700 C701 1.377 . S
C700 C702 1.384 . S
C701 C700 1.377 . S
C701 C707 1.390 . S
C702 H693 0.930 . S
C702 C700 1.384 . S
C702 C703 1.372 . S
C703 C702 1.372 . S
C703 C704 1.400 . S
C703 C708 1.490 . S
C704 H694 0.930 . S
C704 C703 1.400 . S
C704 C707 1.386 . S
H705 C721 0.930 . S
H706 C722 0.931 . S
C707 H695 0.929 . S
C707 C701 1.390 . S
C707 C704 1.386 . S
C708 C703 1.490 . S
C708 C710 1.395 . S
C708 C711 1.403 . S
H709 C715 0.930 . S
C710 H696 0.930 . S
C710 C708 1.395 . S
C710 C713 1.403 . S
C711 C708 1.403 . S
C711 C712 1.524 . S
C711 C715 1.400 . S
C712 H697 0.960 . S
C712 H698 0.960 . S
C712 H699 0.960 . S
C712 C711 1.524 . S
C713 C710 1.403 . S
C713 C714 1.392 . S
C713 C717 1.495 . S
C714 C713 1.392 . S
C714 C715 1.385 . S
C714 C716 1.478 . S
C715 H709 0.930 . S
C715 C711 1.400 . S
C715 C714 1.385 . S
C716 C714 1.478 . S
C716 C718 1.381 . S
C716 C722 1.383 . S
C717 C713 1.495 . S
C717 H723 0.959 . S
C717 H724 0.961 . S
C717 H725 0.960 . S
C718 C716 1.381 . S
C718 C719 1.394 . S
C718 H726 0.930 . S
C719 C718 1.394 . S
C719 C720 1.383 . S
C719 H727 0.929 . S
C720 C719 1.383 . S
C720 C721 1.377 . S
C721 H705 0.930 . S
C721 C720 1.377 . S
C721 C722 1.379 . S
C722 H706 0.931 . S
C722 C716 1.383 . S
C722 C721 1.379 . S
H723 C717 0.959 . S
H724 C717 0.961 . S
H725 C717 0.960 . S
H726 C718 0.930 . S
H727 C719 0.929 . S
H728 C736 0.929 . S
H729 C738 0.930 . S
H730 C740 0.930 . S
H731 C743 0.929 . S
H732 C746 0.930 . S
H733 C748 0.960 . S
H734 C748 0.960 . S
H735 C748 0.960 . S
C736 H728 0.929 . S
C736 C737 1.377 . S
C736 C738 1.384 . S
C737 C736 1.377 . S
C737 C743 1.390 . S
C738 H729 0.930 . S
C738 C736 1.384 . S
C738 C739 1.372 . S
C739 C738 1.372 . S
C739 C740 1.400 . S
C739 C744 1.490 . S
C740 H730 0.930 . S
C740 C739 1.400 . S
C740 C743 1.386 . S
H741 C757 0.930 . S
H742 C758 0.931 . S
C743 H731 0.929 . S
C743 C737 1.390 . S
C743 C740 1.386 . S
C744 C739 1.490 . S
C744 C746 1.395 . S
C744 C747 1.403 . S
H745 C751 0.930 . S
C746 H732 0.930 . S
C746 C744 1.395 . S
C746 C749 1.403 . S
C747 C744 1.403 . S
C747 C748 1.524 . S
C747 C751 1.400 . S
C748 H733 0.960 . S
C748 H734 0.960 . S
C748 H735 0.960 . S
C748 C747 1.524 . S
C749 C746 1.403 . S
C749 C750 1.392 . S
C749 C753 1.495 . S
C750 C749 1.392 . S
C750 C751 1.385 . S
C750 C752 1.478 . S
C751 H745 0.930 . S
C751 C747 1.400 . S
C751 C750 1.385 . S
C752 C750 1.478 . S
C752 C754 1.381 . S
C752 C758 1.383 . S
C753 C749 1.495 . S
C753 H759 0.959 . S
C753 H760 0.961 . S
C753 H761 0.960 . S
C754 C752 1.381 . S
C754 C755 1.394 . S
C754 H762 0.930 . S
C755 C754 1.394 . S
C755 C756 1.383 . S
C755 H763 0.929 . S
C756 C755 1.383 . S
C756 C757 1.377 . S
C757 H741 0.930 . S
C757 C756 1.377 . S
C757 C758 1.379 . S
C758 H742 0.931 . S
C758 C752 1.383 . S
C758 C757 1.379 . S
H759 C753 0.959 . S
H760 C753 0.961 . S
H761 C753 0.960 . S
H762 C754 0.930 . S
H763 C755 0.929 . S
H764 C772 0.929 . S
H765 C774 0.930 . S
H766 C776 0.930 . S
H767 C779 0.929 . S
H768 C782 0.930 . S
H769 C784 0.960 . S
H770 C784 0.960 . S
H771 C784 0.960 . S
C772 H764 0.929 . S
C772 C773 1.377 . S
C772 C774 1.384 . S
C773 C772 1.377 . S
C773 C779 1.390 . S
C774 H765 0.930 . S
C774 C772 1.384 . S
C774 C775 1.372 . S
C775 C774 1.372 . S
C775 C776 1.400 . S
C775 C780 1.490 . S
C776 H766 0.930 . S
C776 C775 1.400 . S
C776 C779 1.386 . S
H777 C793 0.930 . S
H778 C794 0.931 . S
C779 H767 0.929 . S
C779 C773 1.390 . S
C779 C776 1.386 . S
C780 C775 1.490 . S
C780 C782 1.395 . S
C780 C783 1.403 . S
H781 C787 0.930 . S
C782 H768 0.930 . S
C782 C780 1.395 . S
C782 C785 1.403 . S
C783 C780 1.403 . S
C783 C784 1.524 . S
C783 C787 1.400 . S
C784 H769 0.960 . S
C784 H770 0.960 . S
C784 H771 0.960 . S
C784 C783 1.524 . S
C785 C782 1.403 . S
C785 C786 1.392 . S
C785 C789 1.495 . S
C786 C785 1.392 . S
C786 C787 1.385 . S
C786 C788 1.478 . S
C787 H781 0.930 . S
C787 C783 1.400 . S
C787 C786 1.385 . S
C788 C786 1.478 . S
C788 C790 1.381 . S
C788 C794 1.383 . S
C789 C785 1.495 . S
C789 H795 0.959 . S
C789 H796 0.961 . S
C789 H797 0.960 . S
C790 C788 1.381 . S
C790 C791 1.394 . S
C790 H798 0.930 . S
C791 C790 1.394 . S
C791 C792 1.383 . S
C791 H799 0.929 . S
C792 C791 1.383 . S
C792 C793 1.377 . S
C793 H777 0.930 . S
C793 C792 1.377 . S
C793 C794 1.379 . S
C794 H778 0.931 . S
C794 C788 1.383 . S
C794 C793 1.379 . S
H795 C789 0.959 . S
H796 C789 0.961 . S
H797 C789 0.960 . S
H798 C790 0.930 . S
H799 C791 0.929 . S
H800 C808 0.929 . S
H801 C810 0.930 . S
H802 C812 0.930 . S
H803 C815 0.929 . S
H804 C818 0.930 . S
H805 C820 0.960 . S
H806 C820 0.960 . S
H807 C820 0.960 . S
C808 H800 0.929 . S
C808 C809 1.377 . S
C808 C810 1.384 . S
C809 C808 1.377 . S
C809 C815 1.390 . S
C810 H801 0.930 . S
C810 C808 1.384 . S
C810 C811 1.372 . S
C811 C810 1.372 . S
C811 C812 1.400 . S
C811 C816 1.490 . S
C812 H802 0.930 . S
C812 C811 1.400 . S
C812 C815 1.386 . S
H813 C829 0.930 . S
H814 C830 0.931 . S
C815 H803 0.929 . S
C815 C809 1.390 . S
C815 C812 1.386 . S
C816 C811 1.490 . S
C816 C818 1.395 . S
C816 C819 1.403 . S
H817 C823 0.916 1_556 S
C818 H804 0.930 . S
C818 C816 1.395 . S
C818 C821 1.403 . S
C819 C816 1.403 . S
C819 C820 1.524 . S
C819 C823 1.424 . S
C820 H805 0.960 . S
C820 H806 0.960 . S
C820 H807 0.960 . S
C820 C819 1.524 . S
C821 C818 1.403 . S
C821 C822 1.392 1_554 S
C821 C825 1.495 1_554 S
C822 C821 1.392 1_556 S
C822 C823 1.375 1_556 S
C822 C824 1.478 . S
C823 H817 0.916 1_554 S
C823 C819 1.424 . S
C823 C822 1.375 1_554 S
C824 C822 1.478 . S
C824 C826 1.381 . S
C824 C830 1.383 . S
C825 C821 1.495 1_556 S
C825 H831 0.959 1_556 S
C825 H832 0.961 . S
C825 H833 0.960 . S
C826 C824 1.381 . S
C826 C827 1.394 . S
C826 H834 0.930 . S
C827 C826 1.394 . S
C827 C828 1.383 . S
C827 H835 0.929 . S
C828 C827 1.383 . S
C828 C829 1.377 . S
C829 H813 0.930 . S
C829 C828 1.377 . S
C829 C830 1.379 . S
C830 H814 0.931 . S
C830 C824 1.383 . S
C830 C829 1.379 . S
H831 C825 0.959 1_554 S
H832 C825 0.961 . S
H833 C825 0.960 . S
H834 C826 0.930 . S
H835 C827 0.929 . S
H836 C844 0.929 . S
H837 C846 0.930 . S
H838 C848 0.930 . S
H839 C851 0.929 . S
H840 C854 0.930 . S
H841 C856 0.960 . S
H842 C856 0.960 . S
H843 C856 0.960 . S
C844 H836 0.929 . S
C844 C845 1.377 . S
C844 C846 1.384 . S
C845 C844 1.377 . S
C845 C851 1.390 . S
C846 H837 0.930 . S
C846 C844 1.384 . S
C846 C847 1.372 . S
C847 C846 1.372 . S
C847 C848 1.400 . S
C847 C852 1.490 . S
C848 H838 0.930 . S
C848 C847 1.400 . S
C848 C851 1.386 . S
H849 C865 0.930 . S
H850 C866 0.931 . S
C851 H839 0.929 . S
C851 C845 1.390 . S
C851 C848 1.386 . S
C852 C847 1.490 . S
C852 C854 1.395 . S
C852 C855 1.403 . S
H853 C859 0.930 . S
C854 H840 0.930 . S
C854 C852 1.395 . S
C854 C857 1.403 . S
C855 C852 1.403 . S
C855 C856 1.524 . S
C855 C859 1.400 . S
C856 H841 0.960 . S
C856 H842 0.960 . S
C856 H843 0.960 . S
C856 C855 1.524 . S
C857 C854 1.403 . S
C857 C858 1.392 . S
C857 C861 1.495 . S
C858 C857 1.392 . S
C858 C859 1.385 . S
C858 C860 1.478 . S
C859 H853 0.930 . S
C859 C855 1.400 . S
C859 C858 1.385 . S
C860 C858 1.478 . S
C860 C862 1.381 . S
C860 C866 1.383 . S
C861 C857 1.495 . S
C861 H867 0.959 . S
C861 H868 0.961 . S
C861 H869 0.960 . S
C862 C860 1.381 . S
C862 C863 1.394 . S
C862 H870 0.930 . S
C863 C862 1.394 . S
C863 C864 1.383 . S
C863 H871 0.929 . S
C864 C863 1.383 . S
C864 C865 1.377 . S
C865 H849 0.930 . S
C865 C864 1.377 . S
C865 C866 1.379 . S
C866 H850 0.931 . S
C866 C860 1.383 . S
C866 C865 1.379 . S
H867 C861 0.959 . S
H868 C861 0.961 . S
H869 C861 0.960 . S
H870 C862 0.930 . S
H871 C863 0.929 . S
H872 C880 0.929 . S
H873 C882 0.930 . S
H874 C884 0.930 . S
H875 C887 0.929 . S
H876 C890 0.930 . S
H877 C892 0.960 . S
H878 C892 0.960 . S
H879 C892 0.960 . S
C880 H872 0.929 . S
C880 C881 1.377 . S
C880 C882 1.384 . S
C881 C880 1.377 . S
C881 C887 1.390 . S
C882 H873 0.930 . S
C882 C880 1.384 . S
C882 C883 1.372 . S
C883 C882 1.372 . S
C883 C884 1.400 . S
C883 C888 1.490 . S
C884 H874 0.930 . S
C884 C883 1.400 . S
C884 C887 1.386 . S
H885 C901 0.930 . S
H886 C902 0.931 . S
C887 H875 0.929 . S
C887 C881 1.390 . S
C887 C884 1.386 . S
C888 C883 1.490 . S
C888 C890 1.395 . S
C888 C891 1.403 . S
H889 C895 0.930 . S
C890 H876 0.930 . S
C890 C888 1.395 . S
C890 C893 1.403 . S
C891 C888 1.403 . S
C891 C892 1.524 . S
C891 C895 1.400 . S
C892 H877 0.960 . S
C892 H878 0.960 . S
C892 H879 0.960 . S
C892 C891 1.524 . S
C893 C890 1.403 . S
C893 C894 1.392 . S
C893 C897 1.495 . S
C894 C893 1.392 . S
C894 C895 1.385 . S
C894 C896 1.478 . S
C895 H889 0.930 . S
C895 C891 1.400 . S
C895 C894 1.385 . S
C896 C894 1.478 . S
C896 C898 1.381 . S
C896 C902 1.383 . S
C897 C893 1.495 . S
C897 H903 0.959 . S
C897 H904 0.961 . S
C897 H905 0.960 . S
C898 C896 1.381 . S
C898 C899 1.394 . S
C898 H906 0.930 . S
C899 C898 1.394 . S
C899 C900 1.383 . S
C899 H907 0.929 . S
C900 C899 1.383 . S
C900 C901 1.377 . S
C901 H885 0.930 . S
C901 C900 1.377 . S
C901 C902 1.379 . S
C902 H886 0.931 . S
C902 C896 1.383 . S
C902 C901 1.379 . S
H903 C897 0.959 . S
H904 C897 0.961 . S
H905 C897 0.960 . S
H906 C898 0.930 . S
H907 C899 0.929 . S
H908 C916 0.929 . S
H909 C918 0.930 . S
H910 C920 0.930 . S
H911 C923 0.929 . S
H912 C926 0.930 . S
H913 C928 0.960 . S
H914 C928 0.960 . S
H915 C928 0.960 . S
C916 H908 0.929 . S
C916 C917 1.377 . S
C916 C918 1.384 . S
C917 C916 1.377 . S
C917 C923 1.390 . S
C918 H909 0.930 . S
C918 C916 1.384 . S
C918 C919 1.372 . S
C919 C918 1.372 . S
C919 C920 1.400 . S
C919 C924 1.490 . S
C920 H910 0.930 . S
C920 C919 1.400 . S
C920 C923 1.386 . S
H921 C937 0.930 . S
H922 C938 0.931 . S
C923 H911 0.929 . S
C923 C917 1.390 . S
C923 C920 1.386 . S
C924 C919 1.490 . S
C924 C926 1.395 . S
C924 C927 1.403 . S
H925 C931 0.930 . S
C926 H912 0.930 . S
C926 C924 1.395 . S
C926 C929 1.403 . S
C927 C924 1.403 . S
C927 C928 1.524 . S
C927 C931 1.400 . S
C928 H913 0.960 . S
C928 H914 0.960 . S
C928 H915 0.960 . S
C928 C927 1.524 . S
C929 C926 1.403 . S
C929 C930 1.392 . S
C929 C933 1.495 . S
C930 C929 1.392 . S
C930 C931 1.385 . S
C930 C932 1.478 . S
C931 H925 0.930 . S
C931 C927 1.400 . S
C931 C930 1.385 . S
C932 C930 1.478 . S
C932 C934 1.381 . S
C932 C938 1.383 . S
C933 C929 1.495 . S
C933 H939 0.959 . S
C933 H940 0.961 . S
C933 H941 0.960 . S
C934 C932 1.381 . S
C934 C935 1.394 . S
C934 H942 0.930 . S
C935 C934 1.394 . S
C935 C936 1.383 . S
C935 H943 0.929 . S
C936 C935 1.383 . S
C936 C937 1.377 . S
C937 H921 0.930 . S
C937 C936 1.377 . S
C937 C938 1.379 . S
C938 H922 0.931 . S
C938 C932 1.383 . S
C938 C937 1.379 . S
H939 C933 0.959 . S
H940 C933 0.961 . S
H941 C933 0.960 . S
H942 C934 0.930 . S
H943 C935 0.929 . S
H944 C952 0.929 . S
H945 C954 0.930 . S
H946 C956 0.930 . S
H947 C959 0.929 . S
H948 C962 0.930 . S
H949 C964 0.960 . S
H950 C964 0.960 . S
H951 C964 0.960 . S
C952 H944 0.929 . S
C952 C953 1.377 . S
C952 C954 1.384 . S
C953 C952 1.377 . S
C953 C959 1.390 . S
C954 H945 0.930 . S
C954 C952 1.384 . S
C954 C955 1.372 . S
C955 C954 1.372 . S
C955 C956 1.400 . S
C955 C960 1.490 . S
C956 H946 0.930 . S
C956 C955 1.400 . S
C956 C959 1.386 . S
H957 C973 0.930 . S
H958 C974 0.931 . S
C959 H947 0.929 . S
C959 C953 1.390 . S
C959 C956 1.386 . S
C960 C955 1.490 . S
C960 C962 1.395 . S
C960 C963 1.403 . S
H961 C967 0.930 . S
C962 H948 0.930 . S
C962 C960 1.395 . S
C962 C965 1.403 . S
C963 C960 1.403 . S
C963 C964 1.524 . S
C963 C967 1.400 . S
C964 H949 0.960 . S
C964 H950 0.960 . S
C964 H951 0.960 . S
C964 C963 1.524 . S
C965 C962 1.403 . S
C965 C966 1.392 . S
C965 C969 1.495 . S
C966 C965 1.392 . S
C966 C967 1.385 . S
C966 C968 1.478 . S
C967 H961 0.930 . S
C967 C963 1.400 . S
C967 C966 1.385 . S
C968 C966 1.478 . S
C968 C970 1.381 . S
C968 C974 1.383 . S
C969 C965 1.495 . S
C969 H975 0.959 . S
C969 H976 0.961 . S
C969 H977 0.960 . S
C970 C968 1.381 . S
C970 C971 1.394 . S
C970 H978 0.930 . S
C971 C970 1.394 . S
C971 C972 1.383 . S
C971 H979 0.929 . S
C972 C971 1.383 . S
C972 C973 1.377 . S
C973 H957 0.930 . S
C973 C972 1.377 . S
C973 C974 1.379 . S
C974 H958 0.931 . S
C974 C968 1.383 . S
C974 C973 1.379 . S
H975 C969 0.959 . S
H976 C969 0.961 . S
H977 C969 0.960 . S
H978 C970 0.930 . S
H979 C971 0.929 . S
H980 C988 0.929 . S
H981 C990 0.930 . S
H982 C992 0.930 1_565 S
H983 C995 0.929 . S
H984 C998 0.930 . S
H985 C1000 0.960 . S
H986 C1000 0.960 . S
H987 C1000 0.960 . S
C988 H980 0.929 . S
C988 C989 1.377 . S
C988 C990 1.384 . S
C989 C988 1.377 . S
C989 C995 1.390 . S
C990 H981 0.930 . S
C990 C988 1.384 . S
C990 C991 1.372 . S
C991 C990 1.372 . S
C991 C992 1.400 . S
C991 C996 1.498 . S
C992 H982 0.930 1_545 S
C992 C991 1.400 . S
C992 C995 1.386 . S
H993 C1009 0.930 . S
H994 C1010 0.931 . S
C995 H983 0.929 . S
C995 C989 1.390 . S
C995 C992 1.386 . S
C996 C991 1.498 . S
C996 C998 1.400 . S
C996 C999 1.390 1_545 S
H997 C1003 0.930 . S
C998 H984 0.930 . S
C998 C996 1.400 . S
C998 C1001 1.403 1_545 S
C999 C996 1.390 1_565 S
C999 C1000 1.524 . S
C999 C1003 1.400 . S
C1000 H985 0.960 . S
C1000 H986 0.960 . S
C1000 H987 0.960 . S
C1000 C999 1.524 . S
C1001 C998 1.403 1_565 S
C1001 C1002 1.392 . S
C1001 C1005 1.495 1_565 S
C1002 C1001 1.392 . S
C1002 C1003 1.385 . S
C1002 C1004 1.478 . S
C1003 H997 0.930 . S
C1003 C999 1.400 . S
C1003 C1002 1.385 . S
C1004 C1002 1.478 . S
C1004 C1006 1.381 . S
C1004 C1010 1.383 . S
C1005 C1001 1.495 1_545 S
C1005 H1011 0.959 . S
C1005 H1012 0.961 1_545 S
C1005 H1013 0.960 . S
C1006 C1004 1.381 . S
C1006 C1007 1.394 . S
C1006 H1014 0.930 . S
C1007 C1006 1.394 . S
C1007 C1008 1.383 . S
C1007 H1015 0.929 . S
C1008 C1007 1.383 . S
C1008 C1009 1.377 . S
C1009 H993 0.930 . S
C1009 C1008 1.377 . S
C1009 C1010 1.379 . S
C1010 H994 0.931 . S
C1010 C1004 1.383 . S
C1010 C1009 1.379 . S
H1011 C1005 0.959 . S
H1012 C1005 0.961 1_565 S
H1013 C1005 0.960 . S
H1014 C1006 0.930 . S
H1015 C1007 0.929 . S
H1016 C1024 0.929 . S
H1017 C1026 0.930 . S
H1018 C1028 0.930 . S
H1019 C1031 0.929 . S
H1020 C1034 0.930 . S
H1021 C1036 0.960 . S
H1022 C1036 0.960 . S
H1023 C1036 0.960 . S
C1024 H1016 0.929 . S
C1024 C1025 1.377 . S
C1024 C1026 1.384 . S
C1025 C1024 1.377 . S
C1025 C1031 1.390 . S
C1026 H1017 0.930 . S
C1026 C1024 1.384 . S
C1026 C1027 1.372 . S
C1027 C1026 1.372 . S
C1027 C1028 1.400 . S
C1027 C1032 1.490 . S
C1028 H1018 0.930 . S
C1028 C1027 1.400 . S
C1028 C1031 1.386 . S
H1029 C1045 0.930 . S
H1030 C1046 0.931 . S
C1031 H1019 0.929 . S
C1031 C1025 1.390 . S
C1031 C1028 1.386 . S
C1032 C1027 1.490 . S
C1032 C1034 1.395 1_554 S
C1032 C1035 1.403 . S
H1033 C1039 0.930 . S
C1034 H1020 0.930 . S
C1034 C1032 1.395 1_556 S
C1034 C1037 1.403 . S
C1035 C1032 1.403 . S
C1035 C1036 1.524 . S
C1035 C1039 1.400 1_554 S
C1036 H1021 0.960 . S
C1036 H1022 0.960 . S
C1036 H1023 0.960 . S
C1036 C1035 1.524 . S
C1037 C1034 1.403 . S
C1037 C1038 1.392 . S
C1037 C1041 1.495 . S
C1038 C1037 1.392 . S
C1038 C1039 1.385 . S
C1038 C1040 1.478 . S
C1039 H1033 0.930 . S
C1039 C1035 1.400 1_556 S
C1039 C1038 1.385 . S
C1040 C1038 1.478 . S
C1040 C1042 1.381 . S
C1040 C1046 1.383 . S
C1041 C1037 1.495 . S
C1041 H1047 0.959 . S
C1041 H1048 0.961 . S
C1041 H1049 0.960 . S
C1042 C1040 1.381 . S
C1042 C1043 1.394 . S
C1042 H1050 0.930 . S
C1043 C1042 1.394 . S
C1043 C1044 1.383 . S
C1043 H1051 0.929 . S
C1044 C1043 1.383 . S
C1044 C1045 1.377 . S
C1045 H1029 0.930 . S
C1045 C1044 1.377 . S
C1045 C1046 1.379 . S
C1046 H1030 0.931 . S
C1046 C1040 1.383 . S
C1046 C1045 1.379 . S
H1047 C1041 0.959 . S
H1048 C1041 0.961 . S
H1049 C1041 0.960 . S
H1050 C1042 0.930 . S
H1051 C1043 0.929 . S
H1052 C1060 0.929 . S
H1053 C1062 0.930 . S
H1054 C1064 0.930 . S
H1055 C1067 0.929 . S
H1056 C1070 0.930 1_565 S
H1057 C1072 0.960 . S
H1058 C1072 0.960 . S
H1059 C1072 0.960 . S
C1060 H1052 0.929 . S
C1060 C1061 1.377 . S
C1060 C1062 1.384 . S
C1061 C1060 1.377 . S
C1061 C1067 1.390 . S
C1062 H1053 0.930 . S
C1062 C1060 1.384 . S
C1062 C1063 1.372 . S
C1063 C1062 1.372 . S
C1063 C1064 1.400 . S
C1063 C1068 1.490 . S
C1064 H1054 0.930 . S
C1064 C1063 1.400 . S
C1064 C1067 1.386 . S
H1065 C1081 0.930 . S
H1066 C1082 0.931 . S
C1067 H1055 0.929 . S
C1067 C1061 1.390 . S
C1067 C1064 1.386 . S
C1068 C1063 1.490 . S
C1068 C1070 1.395 . S
C1068 C1071 1.403 . S
H1069 C1075 0.930 . S
C1070 H1056 0.930 1_545 S
C1070 C1068 1.395 . S
C1070 C1073 1.403 1_545 S
C1071 C1068 1.403 . S
C1071 C1072 1.524 . S
C1071 C1075 1.400 . S
C1072 H1057 0.960 . S
C1072 H1058 0.960 . S
C1072 H1059 0.960 . S
C1072 C1071 1.524 . S
C1073 C1070 1.403 1_565 S
C1073 C1074 1.392 . S
C1073 C1077 1.495 . S
C1074 C1073 1.392 . S
C1074 C1075 1.385 1_565 S
C1074 C1076 1.478 . S
C1075 H1069 0.930 . S
C1075 C1071 1.400 . S
C1075 C1074 1.385 1_545 S
C1076 C1074 1.478 . S
C1076 C1078 1.381 . S
C1076 C1082 1.383 . S
C1077 C1073 1.495 . S
C1077 H1083 0.959 . S
C1077 H1084 0.961 . S
C1077 H1085 0.960 . S
C1078 C1076 1.381 . S
C1078 C1079 1.394 . S
C1078 H1086 0.930 . S
C1079 C1078 1.394 . S
C1079 C1080 1.383 . S
C1079 H1087 0.929 . S
C1080 C1079 1.383 . S
C1080 C1081 1.377 . S
C1081 H1065 0.930 . S
C1081 C1080 1.377 . S
C1081 C1082 1.379 . S
C1082 H1066 0.931 . S
C1082 C1076 1.383 . S
C1082 C1081 1.379 . S
H1083 C1077 0.959 . S
H1084 C1077 0.961 . S
H1085 C1077 0.960 . S
H1086 C1078 0.930 . S
H1087 C1079 0.929 . S
H1088 C1096 0.929 . S
H1089 C1098 0.930 . S
H1090 C1100 0.930 . S
H1091 C1103 0.929 . S
H1092 C1106 0.930 . S
H1093 C1108 0.960 . S
H1094 C1108 0.960 . S
H1095 C1108 0.960 . S
C1096 H1088 0.929 . S
C1096 C1097 1.377 . S
C1096 C1098 1.384 . S
C1097 C1096 1.377 . S
C1097 C1103 1.390 . S
C1098 H1089 0.930 . S
C1098 C1096 1.384 . S
C1098 C1099 1.372 . S
C1099 C1098 1.372 . S
C1099 C1100 1.400 . S
C1099 C1104 1.490 . S
C1100 H1090 0.930 . S
C1100 C1099 1.400 . S
C1100 C1103 1.386 . S
H1101 C1117 0.930 . S
H1102 C1118 0.931 . S
C1103 H1091 0.929 . S
C1103 C1097 1.390 . S
C1103 C1100 1.386 . S
C1104 C1099 1.490 . S
C1104 C1106 1.395 . S
C1104 C1107 1.403 . S
H1105 C1111 0.930 . S
C1106 H1092 0.930 . S
C1106 C1104 1.395 . S
C1106 C1109 1.403 . S
C1107 C1104 1.403 . S
C1107 C1108 1.524 . S
C1107 C1111 1.400 . S
C1108 H1093 0.960 . S
C1108 H1094 0.960 . S
C1108 H1095 0.960 . S
C1108 C1107 1.524 . S
C1109 C1106 1.403 . S
C1109 C1110 1.392 . S
C1109 C1113 1.495 . S
C1110 C1109 1.392 . S
C1110 C1111 1.385 . S
C1110 C1112 1.478 . S
C1111 H1105 0.930 . S
C1111 C1107 1.400 . S
C1111 C1110 1.385 . S
C1112 C1110 1.478 . S
C1112 C1114 1.381 . S
C1112 C1118 1.383 . S
C1113 C1109 1.495 . S
C1113 H1119 0.959 . S
C1113 H1120 0.961 . S
C1113 H1121 0.960 . S
C1114 C1112 1.381 . S
C1114 C1115 1.394 . S
C1114 H1122 0.930 . S
C1115 C1114 1.394 . S
C1115 C1116 1.383 . S
C1115 H1123 0.929 . S
C1116 C1115 1.383 . S
C1116 C1117 1.377 . S
C1117 H1101 0.930 . S
C1117 C1116 1.377 . S
C1117 C1118 1.379 . S
C1118 H1102 0.931 . S
C1118 C1112 1.383 . S
C1118 C1117 1.379 . S
H1119 C1113 0.959 . S
H1120 C1113 0.961 . S
H1121 C1113 0.960 . S
H1122 C1114 0.930 . S
H1123 C1115 0.929 . S
H1124 C1132 0.929 . S
H1125 C1134 0.930 . S
H1126 C1136 0.916 1_545 S
H1127 C1139 0.929 . S
H1128 C1142 0.930 . S
H1129 C1144 0.960 . S
H1130 C1144 0.960 . S
H1131 C1144 0.960 . S
C1132 H1124 0.929 . S
C1132 C1133 1.377 . S
C1132 C1134 1.384 . S
C1133 C1132 1.377 . S
C1133 C1139 1.390 . S
C1134 H1125 0.930 . S
C1134 C1132 1.384 . S
C1134 C1135 1.372 . S
C1135 C1134 1.372 . S
C1135 C1136 1.407 . S
C1135 C1140 1.497 . S
C1136 H1126 0.916 1_565 S
C1136 C1135 1.407 . S
C1136 C1139 1.392 . S
H1137 C1153 0.930 . S
H1138 C1154 0.931 . S
C1139 H1127 0.929 . S
C1139 C1133 1.390 . S
C1139 C1136 1.392 . S
C1140 C1135 1.497 . S
C1140 C1142 1.397 . S
C1140 C1143 1.393 1_565 S
H1141 C1147 0.930 . S
C1142 H1128 0.930 . S
C1142 C1140 1.397 . S
C1142 C1145 1.403 1_565 S
C1143 C1140 1.393 1_545 S
C1143 C1144 1.524 . S
C1143 C1147 1.400 . S
C1144 H1129 0.960 . S
C1144 H1130 0.960 . S
C1144 H1131 0.960 . S
C1144 C1143 1.524 . S
C1145 C1142 1.403 1_545 S
C1145 C1146 1.392 . S
C1145 C1149 1.499 . S
C1146 C1145 1.392 . S
C1146 C1147 1.385 . S
C1146 C1148 1.478 . S
C1147 H1141 0.930 . S
C1147 C1143 1.400 . S
C1147 C1146 1.385 . S
C1148 C1146 1.478 . S
C1148 C1150 1.381 . S
C1148 C1154 1.383 . S
C1149 C1145 1.499 . S
C1149 H1155 0.948 1_545 S
C1149 H1156 0.975 . S
C1149 H1157 0.954 1_545 S
C1150 C1148 1.381 . S
C1150 C1151 1.394 . S
C1150 H1158 0.930 . S
C1151 C1150 1.394 . S
C1151 C1152 1.383 . S
C1151 H1159 0.929 . S
C1152 C1151 1.383 . S
C1152 C1153 1.377 . S
C1153 H1137 0.930 . S
C1153 C1152 1.377 . S
C1153 C1154 1.379 . S
C1154 H1138 0.931 . S
C1154 C1148 1.383 . S
C1154 C1153 1.379 . S
H1155 C1149 0.948 1_565 S
H1156 C1149 0.975 . S
H1157 C1149 0.954 1_565 S
H1158 C1150 0.930 . S
H1159 C1151 0.929 . S
H1160 C1168 0.929 . S
H1161 C1170 0.930 . S
H1162 C1172 0.930 . S
H1163 C1175 0.929 . S
H1164 C1178 0.930 . S
H1165 C1180 0.960 . S
H1166 C1180 0.960 . S
H1167 C1180 0.960 . S
C1168 H1160 0.929 . S
C1168 C1169 1.377 . S
C1168 C1170 1.384 . S
C1169 C1168 1.377 . S
C1169 C1175 1.390 . S
C1170 H1161 0.930 . S
C1170 C1168 1.384 . S
C1170 C1171 1.372 . S
C1171 C1170 1.372 . S
C1171 C1172 1.400 . S
C1171 C1176 1.490 . S
C1172 H1162 0.930 . S
C1172 C1171 1.400 . S
C1172 C1175 1.386 . S
H1173 C1189 0.930 . S
H1174 C1190 0.931 . S
C1175 H1163 0.929 . S
C1175 C1169 1.390 . S
C1175 C1172 1.386 . S
C1176 C1171 1.490 . S
C1176 C1178 1.395 . S
C1176 C1179 1.403 . S
H1177 C1183 0.930 . S
C1178 H1164 0.930 . S
C1178 C1176 1.395 . S
C1178 C1181 1.403 . S
C1179 C1176 1.403 . S
C1179 C1180 1.524 . S
C1179 C1183 1.400 1_554 S
C1180 H1165 0.960 . S
C1180 H1166 0.960 . S
C1180 H1167 0.960 . S
C1180 C1179 1.524 . S
C1181 C1178 1.403 . S
C1181 C1182 1.392 1_554 S
C1181 C1185 1.495 . S
C1182 C1181 1.392 1_556 S
C1182 C1183 1.385 . S
C1182 C1184 1.478 . S
C1183 H1177 0.930 . S
C1183 C1179 1.400 1_556 S
C1183 C1182 1.385 . S
C1184 C1182 1.478 . S
C1184 C1186 1.381 . S
C1184 C1190 1.383 . S
C1185 C1181 1.495 . S
C1185 H1191 0.959 . S
C1185 H1192 0.961 1_554 S
C1185 H1193 0.960 . S
C1186 C1184 1.381 . S
C1186 C1187 1.394 . S
C1186 H1194 0.930 . S
C1187 C1186 1.394 . S
C1187 C1188 1.383 . S
C1187 H1195 0.929 . S
C1188 C1187 1.383 . S
C1188 C1189 1.377 . S
C1189 H1173 0.930 . S
C1189 C1188 1.377 . S
C1189 C1190 1.379 . S
C1190 H1174 0.931 . S
C1190 C1184 1.383 . S
C1190 C1189 1.379 . S
H1191 C1185 0.959 . S
H1192 C1185 0.961 1_556 S
H1193 C1185 0.960 . S
H1194 C1186 0.930 . S
H1195 C1187 0.929 . S
H1196 C1204 0.929 . S
H1197 C1206 0.930 1_565 S
H1198 C1208 0.930 . S
H1199 C1211 0.929 . S
H1200 C1214 0.930 . S
H1201 C1216 0.960 . S
H1202 C1216 0.960 . S
H1203 C1216 0.960 . S
C1204 H1196 0.929 . S
C1204 C1205 1.377 . S
C1204 C1206 1.384 . S
C1205 C1204 1.377 . S
C1205 C1211 1.390 . S
C1206 H1197 0.930 1_545 S
C1206 C1204 1.384 . S
C1206 C1207 1.372 . S
C1207 C1206 1.372 . S
C1207 C1208 1.400 . S
C1207 C1212 1.490 1_545 S
C1208 H1198 0.930 . S
C1208 C1207 1.400 . S
C1208 C1211 1.386 . S
H1209 C1225 0.930 . S
H1210 C1226 0.931 . S
C1211 H1199 0.929 . S
C1211 C1205 1.390 . S
C1211 C1208 1.386 . S
C1212 C1207 1.490 1_565 S
C1212 C1214 1.395 . S
C1212 C1215 1.403 1_565 S
H1213 C1219 0.930 . S
C1214 H1200 0.930 . S
C1214 C1212 1.395 . S
C1214 C1217 1.403 . S
C1215 C1212 1.403 1_545 S
C1215 C1216 1.524 . S
C1215 C1219 1.400 1_545 S
C1216 H1201 0.960 . S
C1216 H1202 0.960 . S
C1216 H1203 0.960 . S
C1216 C1215 1.524 . S
C1217 C1214 1.403 . S
C1217 C1218 1.392 . S
C1217 C1221 1.495 . S
C1218 C1217 1.392 . S
C1218 C1219 1.385 . S
C1218 C1220 1.478 . S
C1219 H1213 0.930 . S
C1219 C1215 1.400 1_565 S
C1219 C1218 1.385 . S
C1220 C1218 1.478 . S
C1220 C1222 1.381 . S
C1220 C1226 1.383 . S
C1221 C1217 1.495 . S
C1221 H1227 0.959 . S
C1221 H1228 0.961 . S
C1221 H1229 0.960 . S
C1222 C1220 1.381 . S
C1222 C1223 1.394 . S
C1222 H1230 0.930 . S
C1223 C1222 1.394 . S
C1223 C1224 1.383 . S
C1223 H1231 0.929 . S
C1224 C1223 1.383 . S
C1224 C1225 1.377 . S
C1225 H1209 0.930 . S
C1225 C1224 1.377 . S
C1225 C1226 1.379 . S
C1226 H1210 0.931 . S
C1226 C1220 1.383 . S
C1226 C1225 1.379 . S
H1227 C1221 0.959 . S
H1228 C1221 0.961 . S
H1229 C1221 0.960 . S
H1230 C1222 0.930 . S
H1231 C1223 0.929 . S
H1232 C1240 0.929 . S
H1233 C1242 0.930 . S
H1234 C1244 0.930 . S
H1235 C1247 0.929 . S
H1236 C1250 0.930 . S
H1237 C1252 0.960 . S
H1238 C1252 0.960 . S
H1239 C1252 0.960 . S
C1240 H1232 0.929 . S
C1240 C1241 1.377 . S
C1240 C1242 1.384 . S
C1241 C1240 1.377 . S
C1241 C1247 1.390 . S
C1242 H1233 0.930 . S
C1242 C1240 1.384 . S
C1242 C1243 1.372 . S
C1243 C1242 1.372 . S
C1243 C1244 1.400 . S
C1243 C1248 1.490 . S
C1244 H1234 0.930 . S
C1244 C1243 1.400 . S
C1244 C1247 1.386 . S
H1245 C1261 0.930 . S
H1246 C1262 0.931 . S
C1247 H1235 0.929 . S
C1247 C1241 1.390 . S
C1247 C1244 1.386 . S
C1248 C1243 1.490 . S
C1248 C1250 1.395 . S
C1248 C1251 1.403 . S
H1249 C1255 0.930 . S
C1250 H1236 0.930 . S
C1250 C1248 1.395 . S
C1250 C1253 1.403 . S
C1251 C1248 1.403 . S
C1251 C1252 1.524 . S
C1251 C1255 1.400 . S
C1252 H1237 0.960 . S
C1252 H1238 0.960 . S
C1252 H1239 0.960 . S
C1252 C1251 1.524 . S
C1253 C1250 1.403 . S
C1253 C1254 1.392 . S
C1253 C1257 1.495 . S
C1254 C1253 1.392 . S
C1254 C1255 1.385 . S
C1254 C1256 1.478 . S
C1255 H1249 0.930 . S
C1255 C1251 1.400 . S
C1255 C1254 1.385 . S
C1256 C1254 1.478 . S
C1256 C1258 1.381 . S
C1256 C1262 1.383 . S
C1257 C1253 1.495 . S
C1257 H1263 0.959 . S
C1257 H1264 0.961 . S
C1257 H1265 0.960 . S
C1258 C1256 1.381 . S
C1258 C1259 1.394 . S
C1258 H1266 0.930 . S
C1259 C1258 1.394 . S
C1259 C1260 1.383 . S
C1259 H1267 0.929 . S
C1260 C1259 1.383 . S
C1260 C1261 1.377 . S
C1261 H1245 0.930 . S
C1261 C1260 1.377 . S
C1261 C1262 1.379 . S
C1262 H1246 0.931 . S
C1262 C1256 1.383 . S
C1262 C1261 1.379 . S
H1263 C1257 0.959 . S
H1264 C1257 0.961 . S
H1265 C1257 0.960 . S
H1266 C1258 0.930 . S
H1267 C1259 0.929 . S
H1268 C1276 0.929 . S
H1269 C1278 0.930 . S
H1270 C1280 0.930 . S
H1271 C1283 0.929 . S
H1272 C1286 0.930 . S
H1273 C1288 0.960 . S
H1274 C1288 0.960 . S
H1275 C1288 0.960 . S
C1276 H1268 0.929 . S
C1276 C1277 1.377 . S
C1276 C1278 1.384 . S
C1277 C1276 1.377 . S
C1277 C1283 1.390 . S
C1278 H1269 0.930 . S
C1278 C1276 1.384 . S
C1278 C1279 1.372 . S
C1279 C1278 1.372 . S
C1279 C1280 1.400 . S
C1279 C1284 1.490 . S
C1280 H1270 0.930 . S
C1280 C1279 1.400 . S
C1280 C1283 1.386 . S
H1281 C1297 0.930 . S
H1282 C1298 0.931 . S
C1283 H1271 0.929 . S
C1283 C1277 1.390 . S
C1283 C1280 1.386 . S
C1284 C1279 1.490 . S
C1284 C1286 1.395 . S
C1284 C1287 1.403 . S
H1285 C1291 0.930 . S
C1286 H1272 0.930 . S
C1286 C1284 1.395 . S
C1286 C1289 1.403 . S
C1287 C1284 1.403 . S
C1287 C1288 1.524 . S
C1287 C1291 1.400 . S
C1288 H1273 0.960 . S
C1288 H1274 0.960 . S
C1288 H1275 0.960 . S
C1288 C1287 1.524 . S
C1289 C1286 1.403 . S
C1289 C1290 1.392 . S
C1289 C1293 1.495 . S
C1290 C1289 1.392 . S
C1290 C1291 1.385 . S
C1290 C1292 1.478 . S
C1291 H1285 0.930 . S
C1291 C1287 1.400 . S
C1291 C1290 1.385 . S
C1292 C1290 1.478 . S
C1292 C1294 1.381 . S
C1292 C1298 1.383 . S
C1293 C1289 1.495 . S
C1293 H1299 0.959 . S
C1293 H1300 0.961 . S
C1293 H1301 0.960 . S
C1294 C1292 1.381 . S
C1294 C1295 1.394 . S
C1294 H1302 0.930 . S
C1295 C1294 1.394 . S
C1295 C1296 1.383 . S
C1295 H1303 0.929 . S
C1296 C1295 1.383 . S
C1296 C1297 1.377 . S
C1297 H1281 0.930 . S
C1297 C1296 1.377 . S
C1297 C1298 1.379 . S
C1298 H1282 0.931 . S
C1298 C1292 1.383 . S
C1298 C1297 1.379 . S
H1299 C1293 0.959 . S
H1300 C1293 0.961 . S
H1301 C1293 0.960 . S
H1302 C1294 0.930 . S
H1303 C1295 0.929 . S
H1304 C1312 0.929 . S
H1305 C1314 0.930 . S
H1306 C1316 0.930 . S
H1307 C1319 0.929 . S
H1308 C1322 0.930 . S
H1309 C1324 0.960 . S
H1310 C1324 0.960 . S
H1311 C1324 0.960 . S
C1312 H1304 0.929 . S
C1312 C1313 1.377 . S
C1312 C1314 1.384 . S
C1313 C1312 1.377 . S
C1313 C1319 1.390 . S
C1314 H1305 0.930 . S
C1314 C1312 1.384 . S
C1314 C1315 1.372 . S
C1315 C1314 1.372 . S
C1315 C1316 1.400 . S
C1315 C1320 1.490 . S
C1316 H1306 0.930 . S
C1316 C1315 1.400 . S
C1316 C1319 1.386 . S
H1317 C1333 0.930 . S
H1318 C1334 0.931 . S
C1319 H1307 0.929 . S
C1319 C1313 1.390 . S
C1319 C1316 1.386 . S
C1320 C1315 1.490 . S
C1320 C1322 1.395 . S
C1320 C1323 1.403 . S
H1321 C1327 0.930 . S
C1322 H1308 0.930 . S
C1322 C1320 1.395 . S
C1322 C1325 1.403 1_655 S
C1323 C1320 1.403 . S
C1323 C1324 1.524 . S
C1323 C1327 1.400 1_655 S
C1324 H1309 0.960 . S
C1324 H1310 0.960 . S
C1324 H1311 0.960 . S
C1324 C1323 1.524 . S
C1325 C1322 1.403 1_455 S
C1325 C1326 1.392 . S
C1325 C1329 1.495 . S
C1326 C1325 1.392 . S
C1326 C1327 1.385 . S
C1326 C1328 1.478 . S
C1327 H1321 0.930 . S
C1327 C1323 1.400 1_455 S
C1327 C1326 1.385 . S
C1328 C1326 1.478 . S
C1328 C1330 1.381 . S
C1328 C1334 1.383 . S
C1329 C1325 1.495 . S
C1329 H1335 0.959 . S
C1329 H1336 0.961 . S
C1329 H1337 0.960 . S
C1330 C1328 1.381 . S
C1330 C1331 1.394 . S
C1330 H1338 0.930 . S
C1331 C1330 1.394 . S
C1331 C1332 1.383 . S
C1331 H1339 0.929 . S
C1332 C1331 1.383 . S
C1332 C1333 1.377 . S
C1333 H1317 0.930 . S
C1333 C1332 1.377 . S
C1333 C1334 1.379 . S
C1334 H1318 0.931 . S
C1334 C1328 1.383 . S
C1334 C1333 1.379 . S
H1335 C1329 0.959 . S
H1336 C1329 0.961 . S
H1337 C1329 0.960 . S
H1338 C1330 0.930 . S
H1339 C1331 0.929 . S
H1340 C1348 0.929 . S
H1341 C1350 0.930 . S
H1342 C1352 0.930 . S
H1343 C1355 0.929 . S
H1344 C1358 0.930 . S
H1345 C1360 0.960 . S
H1346 C1360 0.960 . S
H1347 C1360 0.960 . S
C1348 H1340 0.929 . S
C1348 C1349 1.377 . S
C1348 C1350 1.384 . S
C1349 C1348 1.377 . S
C1349 C1355 1.390 . S
C1350 H1341 0.930 . S
C1350 C1348 1.384 . S
C1350 C1351 1.372 . S
C1351 C1350 1.372 . S
C1351 C1352 1.400 . S
C1351 C1356 1.490 . S
C1352 H1342 0.930 . S
C1352 C1351 1.400 . S
C1352 C1355 1.386 . S
H1353 C1369 0.930 . S
H1354 C1370 0.931 . S
C1355 H1343 0.929 . S
C1355 C1349 1.390 . S
C1355 C1352 1.386 . S
C1356 C1351 1.490 . S
C1356 C1358 1.395 1_655 S
C1356 C1359 1.403 . S
H1357 C1363 0.930 . S
C1358 H1344 0.930 . S
C1358 C1356 1.395 1_455 S
C1358 C1361 1.403 . S
C1359 C1356 1.403 . S
C1359 C1360 1.524 . S
C1359 C1363 1.400 . S
C1360 H1345 0.960 . S
C1360 H1346 0.960 . S
C1360 H1347 0.960 . S
C1360 C1359 1.524 . S
C1361 C1358 1.403 . S
C1361 C1362 1.392 . S
C1361 C1365 1.495 . S
C1362 C1361 1.392 . S
C1362 C1363 1.385 1_455 S
C1362 C1364 1.478 . S
C1363 H1357 0.930 . S
C1363 C1359 1.400 . S
C1363 C1362 1.385 1_655 S
C1364 C1362 1.478 . S
C1364 C1366 1.381 . S
C1364 C1370 1.383 . S
C1365 C1361 1.495 . S
C1365 H1371 0.959 . S
C1365 H1372 0.961 . S
C1365 H1373 0.960 . S
C1366 C1364 1.381 . S
C1366 C1367 1.394 . S
C1366 H1374 0.930 . S
C1367 C1366 1.394 . S
C1367 C1368 1.383 . S
C1367 H1375 0.929 . S
C1368 C1367 1.383 . S
C1368 C1369 1.377 . S
C1369 H1353 0.930 . S
C1369 C1368 1.377 . S
C1369 C1370 1.379 . S
C1370 H1354 0.931 . S
C1370 C1364 1.383 . S
C1370 C1369 1.379 . S
H1371 C1365 0.959 . S
H1372 C1365 0.961 . S
H1373 C1365 0.960 . S
H1374 C1366 0.930 . S
H1375 C1367 0.929 . S
H1376 C1384 0.929 . S
H1377 C1386 0.930 . S
H1378 C1388 0.930 . S
H1379 C1391 0.929 . S
H1380 C1394 0.930 . S
H1381 C1396 0.960 . S
H1382 C1396 0.960 . S
H1383 C1396 0.960 . S
C1384 H1376 0.929 . S
C1384 C1385 1.377 . S
C1384 C1386 1.384 . S
C1385 C1384 1.377 . S
C1385 C1391 1.390 . S
C1386 H1377 0.930 . S
C1386 C1384 1.384 . S
C1386 C1387 1.372 . S
C1387 C1386 1.372 . S
C1387 C1388 1.400 . S
C1387 C1392 1.490 . S
C1388 H1378 0.930 . S
C1388 C1387 1.400 . S
C1388 C1391 1.386 . S
H1389 C1405 0.930 . S
H1390 C1406 0.931 . S
C1391 H1379 0.929 . S
C1391 C1385 1.390 . S
C1391 C1388 1.386 . S
C1392 C1387 1.490 . S
C1392 C1394 1.395 . S
C1392 C1395 1.403 . S
H1393 C1399 0.930 . S
C1394 H1380 0.930 . S
C1394 C1392 1.395 . S
C1394 C1397 1.403 . S
C1395 C1392 1.403 . S
C1395 C1396 1.524 . S
C1395 C1399 1.400 . S
C1396 H1381 0.960 . S
C1396 H1382 0.960 . S
C1396 H1383 0.960 . S
C1396 C1395 1.524 . S
C1397 C1394 1.403 . S
C1397 C1398 1.392 . S
C1397 C1401 1.495 . S
C1398 C1397 1.392 . S
C1398 C1399 1.385 . S
C1398 C1400 1.478 . S
C1399 H1393 0.930 . S
C1399 C1395 1.400 . S
C1399 C1398 1.385 . S
C1400 C1398 1.478 . S
C1400 C1402 1.381 . S
C1400 C1406 1.383 . S
C1401 C1397 1.495 . S
C1401 H1407 0.959 . S
C1401 H1408 0.961 . S
C1401 H1409 0.960 . S
C1402 C1400 1.381 . S
C1402 C1403 1.394 . S
C1402 H1410 0.930 . S
C1403 C1402 1.394 . S
C1403 C1404 1.383 . S
C1403 H1411 0.929 . S
C1404 C1403 1.383 . S
C1404 C1405 1.377 . S
C1405 H1389 0.930 . S
C1405 C1404 1.377 . S
C1405 C1406 1.379 . S
C1406 H1390 0.931 . S
C1406 C1400 1.383 . S
C1406 C1405 1.379 . S
H1407 C1401 0.959 . S
H1408 C1401 0.961 . S
H1409 C1401 0.960 . S
H1410 C1402 0.930 . S
H1411 C1403 0.929 . S
H1412 C1420 0.929 . S
H1413 C1422 0.930 . S
H1414 C1424 0.930 . S
H1415 C1427 0.929 . S
H1416 C1430 0.930 . S
H1417 C1432 0.960 . S
H1418 C1432 0.960 . S
H1419 C1432 0.960 . S
C1420 H1412 0.929 . S
C1420 C1421 1.377 . S
C1420 C1422 1.384 . S
C1421 C1420 1.377 . S
C1421 C1427 1.390 . S
C1422 H1413 0.930 . S
C1422 C1420 1.384 . S
C1422 C1423 1.372 . S
C1423 C1422 1.372 . S
C1423 C1424 1.400 . S
C1423 C1428 1.490 . S
C1424 H1414 0.930 . S
C1424 C1423 1.400 . S
C1424 C1427 1.386 . S
H1425 C1441 0.930 . S
H1426 C1442 0.931 . S
C1427 H1415 0.929 . S
C1427 C1421 1.390 . S
C1427 C1424 1.386 . S
C1428 C1423 1.490 . S
C1428 C1430 1.395 . S
C1428 C1431 1.403 . S
H1429 C1435 0.930 . S
C1430 H1416 0.930 . S
C1430 C1428 1.395 . S
C1430 C1433 1.403 . S
C1431 C1428 1.403 . S
C1431 C1432 1.524 . S
C1431 C1435 1.400 . S
C1432 H1417 0.960 . S
C1432 H1418 0.960 . S
C1432 H1419 0.960 . S
C1432 C1431 1.524 . S
C1433 C1430 1.403 . S
C1433 C1434 1.392 . S
C1433 C1437 1.495 . S
C1434 C1433 1.392 . S
C1434 C1435 1.385 . S
C1434 C1436 1.478 . S
C1435 H1429 0.930 . S
C1435 C1431 1.400 . S
C1435 C1434 1.385 . S
C1436 C1434 1.478 . S
C1436 C1438 1.381 . S
C1436 C1442 1.383 . S
C1437 C1433 1.495 . S
C1437 H1443 0.959 . S
C1437 H1444 0.961 . S
C1437 H1445 0.960 . S
C1438 C1436 1.381 . S
C1438 C1439 1.394 . S
C1438 H1446 0.930 . S
C1439 C1438 1.394 . S
C1439 C1440 1.383 . S
C1439 H1447 0.929 . S
C1440 C1439 1.383 . S
C1440 C1441 1.377 . S
C1441 H1425 0.930 . S
C1441 C1440 1.377 . S
C1441 C1442 1.379 . S
C1442 H1426 0.931 . S
C1442 C1436 1.383 . S
C1442 C1441 1.379 . S
H1443 C1437 0.959 . S
H1444 C1437 0.961 . S
H1445 C1437 0.960 . S
H1446 C1438 0.930 . S
H1447 C1439 0.929 . S
H1448 C1456 0.929 . S
H1449 C1458 0.930 . S
H1450 C1460 0.930 . S
H1451 C1463 0.929 . S
H1452 C1466 0.931 . S
H1453 C1468 0.960 . S
H1454 C1468 0.960 . S
H1455 C1468 0.960 . S
C1456 H1448 0.929 . S
C1456 C1457 1.377 . S
C1456 C1458 1.384 . S
C1457 C1456 1.377 . S
C1457 C1463 1.390 . S
C1458 H1449 0.930 . S
C1458 C1456 1.384 . S
C1458 C1459 1.372 . S
C1459 C1458 1.372 . S
C1459 C1460 1.400 . S
C1459 C1464 1.490 . S
C1460 H1450 0.930 . S
C1460 C1459 1.400 . S
C1460 C1463 1.386 . S
H1461 C1477 0.930 . S
H1462 C1478 0.931 . S
C1463 H1451 0.929 . S
C1463 C1457 1.390 . S
C1463 C1460 1.386 . S
C1464 C1459 1.490 . S
C1464 C1466 1.403 . S
C1464 C1467 1.403 . S
H1465 C1471 0.930 . S
C1466 H1452 0.931 . S
C1466 C1464 1.403 . S
C1466 C1469 1.394 1_455 S
C1467 C1464 1.403 . S
C1467 C1468 1.524 . S
C1467 C1471 1.400 1_455 S
C1468 H1453 0.960 . S
C1468 H1454 0.960 . S
C1468 H1455 0.960 . S
C1468 C1467 1.524 . S
C1469 C1466 1.394 1_655 S
C1469 C1470 1.392 . S
C1469 C1473 1.495 . S
C1470 C1469 1.392 . S
C1470 C1471 1.385 . S
C1470 C1472 1.478 . S
C1471 H1465 0.930 . S
C1471 C1467 1.400 1_655 S
C1471 C1470 1.385 . S
C1472 C1470 1.478 . S
C1472 C1474 1.381 . S
C1472 C1478 1.383 . S
C1473 C1469 1.495 . S
C1473 H1479 0.959 . S
C1473 H1480 0.961 . S
C1473 H1481 0.960 . S
C1474 C1472 1.381 . S
C1474 C1475 1.394 . S
C1474 H1482 0.930 . S
C1475 C1474 1.394 . S
C1475 C1476 1.383 . S
C1475 H1483 0.929 . S
C1476 C1475 1.383 . S
C1476 C1477 1.377 . S
C1477 H1461 0.930 . S
C1477 C1476 1.377 . S
C1477 C1478 1.379 . S
C1478 H1462 0.931 . S
C1478 C1472 1.383 . S
C1478 C1477 1.379 . S
H1479 C1473 0.959 . S
H1480 C1473 0.961 . S
H1481 C1473 0.960 . S
H1482 C1474 0.930 . S
H1483 C1475 0.929 . S
H1484 C1492 0.929 . S
H1485 C1494 0.930 . S
H1486 C1496 0.930 . S
H1487 C1499 0.929 . S
H1488 C1502 0.930 . S
H1489 C1504 0.960 . S
H1490 C1504 0.960 . S
H1491 C1504 0.960 . S
C1492 H1484 0.929 . S
C1492 C1493 1.377 . S
C1492 C1494 1.384 . S
C1493 C1492 1.377 . S
C1493 C1499 1.390 . S
C1494 H1485 0.930 . S
C1494 C1492 1.384 . S
C1494 C1495 1.372 . S
C1495 C1494 1.372 . S
C1495 C1496 1.400 . S
C1495 C1500 1.490 . S
C1496 H1486 0.930 . S
C1496 C1495 1.400 . S
C1496 C1499 1.386 . S
H1497 C1513 0.930 . S
H1498 C1514 0.931 . S
C1499 H1487 0.929 . S
C1499 C1493 1.390 . S
C1499 C1496 1.386 . S
C1500 C1495 1.490 . S
C1500 C1502 1.395 . S
C1500 C1503 1.403 1_455 S
H1501 C1507 0.930 . S
C1502 H1488 0.930 . S
C1502 C1500 1.395 . S
C1502 C1505 1.403 . S
C1503 C1500 1.403 1_655 S
C1503 C1504 1.524 . S
C1503 C1507 1.400 . S
C1504 H1489 0.960 . S
C1504 H1490 0.960 . S
C1504 H1491 0.960 . S
C1504 C1503 1.524 . S
C1505 C1502 1.403 . S
C1505 C1506 1.392 1_455 S
C1505 C1509 1.495 . S
C1506 C1505 1.392 1_655 S
C1506 C1507 1.385 . S
C1506 C1508 1.478 . S
C1507 H1501 0.930 . S
C1507 C1503 1.400 . S
C1507 C1506 1.385 . S
C1508 C1506 1.478 . S
C1508 C1510 1.381 . S
C1508 C1514 1.383 . S
C1509 C1505 1.495 . S
C1509 H1515 0.959 . S
C1509 H1516 0.961 . S
C1509 H1517 0.960 . S
C1510 C1508 1.381 . S
C1510 C1511 1.394 . S
C1510 H1518 0.930 . S
C1511 C1510 1.394 . S
C1511 C1512 1.383 . S
C1511 H1519 0.929 . S
C1512 C1511 1.383 . S
C1512 C1513 1.377 . S
C1513 H1497 0.930 . S
C1513 C1512 1.377 . S
C1513 C1514 1.379 . S
C1514 H1498 0.931 . S
C1514 C1508 1.383 . S
C1514 C1513 1.379 . S
H1515 C1509 0.959 . S
H1516 C1509 0.961 . S
H1517 C1509 0.960 . S
H1518 C1510 0.930 . S
H1519 C1511 0.929 . S
H1520 C1528 0.929 . S
H1521 C1530 0.930 . S
H1522 C1532 0.930 . S
H1523 C1535 0.929 . S
H1524 C1538 0.930 . S
H1525 C1540 0.960 . S
H1526 C1540 0.960 . S
H1527 C1540 0.960 . S
C1528 H1520 0.929 . S
C1528 C1529 1.377 . S
C1528 C1530 1.384 . S
C1529 C1528 1.377 . S
C1529 C1535 1.390 . S
C1530 H1521 0.930 . S
C1530 C1528 1.384 . S
C1530 C1531 1.372 . S
C1531 C1530 1.372 . S
C1531 C1532 1.400 . S
C1531 C1536 1.490 . S
C1532 H1522 0.930 . S
C1532 C1531 1.400 . S
C1532 C1535 1.386 . S
H1533 C1549 0.930 . S
H1534 C1550 0.931 . S
C1535 H1523 0.929 . S
C1535 C1529 1.390 . S
C1535 C1532 1.386 . S
C1536 C1531 1.490 . S
C1536 C1538 1.395 . S
C1536 C1539 1.403 . S
H1537 C1543 0.930 . S
C1538 H1524 0.930 . S
C1538 C1536 1.395 . S
C1538 C1541 1.403 . S
C1539 C1536 1.403 . S
C1539 C1540 1.524 . S
C1539 C1543 1.400 . S
C1540 H1525 0.960 . S
C1540 H1526 0.960 . S
C1540 H1527 0.960 . S
C1540 C1539 1.524 . S
C1541 C1538 1.403 . S
C1541 C1542 1.392 . S
C1541 C1545 1.495 . S
C1542 C1541 1.392 . S
C1542 C1543 1.385 . S
C1542 C1544 1.478 . S
C1543 H1537 0.930 . S
C1543 C1539 1.400 . S
C1543 C1542 1.385 . S
C1544 C1542 1.478 . S
C1544 C1546 1.381 . S
C1544 C1550 1.383 . S
C1545 C1541 1.495 . S
C1545 H1551 0.959 . S
C1545 H1552 0.961 . S
C1545 H1553 0.960 . S
C1546 C1544 1.381 . S
C1546 C1547 1.394 . S
C1546 H1554 0.930 . S
C1547 C1546 1.394 . S
C1547 C1548 1.383 . S
C1547 H1555 0.929 . S
C1548 C1547 1.383 . S
C1548 C1549 1.377 . S
C1549 H1533 0.930 . S
C1549 C1548 1.377 . S
C1549 C1550 1.379 . S
C1550 H1534 0.931 . S
C1550 C1544 1.383 . S
C1550 C1549 1.379 . S
H1551 C1545 0.959 . S
H1552 C1545 0.961 . S
H1553 C1545 0.960 . S
H1554 C1546 0.930 . S
H1555 C1547 0.929 . S
H1556 C1564 0.929 . S
H1557 C1566 0.930 . S
H1558 C1568 0.930 . S
H1559 C1571 0.929 . S
H1560 C1574 0.930 . S
H1561 C1576 0.960 . S
H1562 C1576 0.960 . S
H1563 C1576 0.960 . S
C1564 H1556 0.929 . S
C1564 C1565 1.377 . S
C1564 C1566 1.384 . S
C1565 C1564 1.377 . S
C1565 C1571 1.390 . S
C1566 H1557 0.930 . S
C1566 C1564 1.384 . S
C1566 C1567 1.372 . S
C1567 C1566 1.372 . S
C1567 C1568 1.400 . S
C1567 C1572 1.490 . S
C1568 H1558 0.930 . S
C1568 C1567 1.400 . S
C1568 C1571 1.386 . S
H1569 C1585 0.930 . S
H1570 C1586 0.931 . S
C1571 H1559 0.929 . S
C1571 C1565 1.390 . S
C1571 C1568 1.386 . S
C1572 C1567 1.490 . S
C1572 C1574 1.395 . S
C1572 C1575 1.403 . S
H1573 C1579 0.930 . S
C1574 H1560 0.930 . S
C1574 C1572 1.395 . S
C1574 C1577 1.403 . S
C1575 C1572 1.403 . S
C1575 C1576 1.524 . S
C1575 C1579 1.400 . S
C1576 H1561 0.960 . S
C1576 H1562 0.960 . S
C1576 H1563 0.960 . S
C1576 C1575 1.524 . S
C1577 C1574 1.403 . S
C1577 C1578 1.392 . S
C1577 C1581 1.495 . S
C1578 C1577 1.392 . S
C1578 C1579 1.385 . S
C1578 C1580 1.478 . S
C1579 H1573 0.930 . S
C1579 C1575 1.400 . S
C1579 C1578 1.385 . S
C1580 C1578 1.478 . S
C1580 C1582 1.381 . S
C1580 C1586 1.383 . S
C1581 C1577 1.495 . S
C1581 H1587 0.959 . S
C1581 H1588 0.961 . S
C1581 H1589 0.960 . S
C1582 C1580 1.381 . S
C1582 C1583 1.394 . S
C1582 H1590 0.930 . S
C1583 C1582 1.394 . S
C1583 C1584 1.383 . S
C1583 H1591 0.929 . S
C1584 C1583 1.383 . S
C1584 C1585 1.377 . S
C1585 H1569 0.930 . S
C1585 C1584 1.377 . S
C1585 C1586 1.379 . S
C1586 H1570 0.931 . S
C1586 C1580 1.383 . S
C1586 C1585 1.379 . S
H1587 C1581 0.959 . S
H1588 C1581 0.961 . S
H1589 C1581 0.960 . S
H1590 C1582 0.930 . S
H1591 C1583 0.929 . S
H1592 C1600 0.929 . S
H1593 C1602 0.930 . S
H1594 C1604 0.930 . S
H1595 C1607 0.929 . S
H1596 C1610 0.930 . S
H1597 C1612 0.960 . S
H1598 C1612 0.960 . S
H1599 C1612 0.960 . S
C1600 H1592 0.929 . S
C1600 C1601 1.377 . S
C1600 C1602 1.384 . S
C1601 C1600 1.377 . S
C1601 C1607 1.390 . S
C1602 H1593 0.930 . S
C1602 C1600 1.384 . S
C1602 C1603 1.372 . S
C1603 C1602 1.372 . S
C1603 C1604 1.400 . S
C1603 C1608 1.490 . S
C1604 H1594 0.930 . S
C1604 C1603 1.400 . S
C1604 C1607 1.386 . S
H1605 C1621 0.930 . S
H1606 C1622 0.931 . S
C1607 H1595 0.929 . S
C1607 C1601 1.390 . S
C1607 C1604 1.386 . S
C1608 C1603 1.490 . S
C1608 C1610 1.395 . S
C1608 C1611 1.403 . S
H1609 C1615 0.930 . S
C1610 H1596 0.930 . S
C1610 C1608 1.395 . S
C1610 C1613 1.403 . S
C1611 C1608 1.403 . S
C1611 C1612 1.524 . S
C1611 C1615 1.400 . S
C1612 H1597 0.960 . S
C1612 H1598 0.960 . S
C1612 H1599 0.960 . S
C1612 C1611 1.524 . S
C1613 C1610 1.403 . S
C1613 C1614 1.392 . S
C1613 C1617 1.495 . S
C1614 C1613 1.392 . S
C1614 C1615 1.385 . S
C1614 C1616 1.478 . S
C1615 H1609 0.930 . S
C1615 C1611 1.400 . S
C1615 C1614 1.385 . S
C1616 C1614 1.478 . S
C1616 C1618 1.381 . S
C1616 C1622 1.383 . S
C1617 C1613 1.495 . S
C1617 H1623 0.959 . S
C1617 H1624 0.961 . S
C1617 H1625 0.960 . S
C1618 C1616 1.381 . S
C1618 C1619 1.394 . S
C1618 H1626 0.930 . S
C1619 C1618 1.394 . S
C1619 C1620 1.383 . S
C1619 H1627 0.929 . S
C1620 C1619 1.383 . S
C1620 C1621 1.377 . S
C1621 H1605 0.930 . S
C1621 C1620 1.377 . S
C1621 C1622 1.379 . S
C1622 H1606 0.931 . S
C1622 C1616 1.383 . S
C1622 C1621 1.379 . S
H1623 C1617 0.959 . S
H1624 C1617 0.961 . S
H1625 C1617 0.960 . S
H1626 C1618 0.930 . S
H1627 C1619 0.929 . S
H1628 C1636 0.929 1_655 S
H1629 C1638 0.930 . S
H1630 C1640 0.930 . S
H1631 C1643 0.915 1_655 S
H1632 C1646 0.930 . S
H1633 C1648 0.960 . S
H1634 C1648 0.960 . S
H1635 C1648 0.960 . S
C1636 H1628 0.929 1_455 S
C1636 C1637 1.377 1_455 S
C1636 C1638 1.384 . S
C1637 C1636 1.377 1_655 S
C1637 C1643 1.390 1_655 S
C1638 H1629 0.930 . S
C1638 C1636 1.384 . S
C1638 C1639 1.372 . S
C1639 C1638 1.372 . S
C1639 C1640 1.400 . S
C1639 C1644 1.490 . S
C1640 H1630 0.930 . S
C1640 C1639 1.400 . S
C1640 C1643 1.386 . S
H1641 C1657 0.930 . S
H1642 C1658 0.931 . S
C1643 H1631 0.915 1_455 S
C1643 C1637 1.390 1_455 S
C1643 C1640 1.386 . S
C1644 C1639 1.490 . S
C1644 C1646 1.395 . S
C1644 C1647 1.403 . S
H1645 C1651 0.930 . S
C1646 H1632 0.930 . S
C1646 C1644 1.395 . S
C1646 C1649 1.403 . S
C1647 C1644 1.403 . S
C1647 C1648 1.524 . S
C1647 C1651 1.400 . S
C1648 H1633 0.960 . S
C1648 H1634 0.960 . S
C1648 H1635 0.960 . S
C1648 C1647 1.524 . S
C1649 C1646 1.403 . S
C1649 C1650 1.392 . S
C1649 C1653 1.495 . S
C1650 C1649 1.392 . S
C1650 C1651 1.385 . S
C1650 C1652 1.478 . S
C1651 H1645 0.930 . S
C1651 C1647 1.400 . S
C1651 C1650 1.385 . S
C1652 C1650 1.478 . S
C1652 C1654 1.381 . S
C1652 C1658 1.383 . S
C1653 C1649 1.495 . S
C1653 H1659 0.959 . S
C1653 H1660 0.961 . S
C1653 H1661 0.960 . S
C1654 C1652 1.381 . S
C1654 C1655 1.394 . S
C1654 H1662 0.930 . S
C1655 C1654 1.394 . S
C1655 C1656 1.383 . S
C1655 H1663 0.929 . S
C1656 C1655 1.383 . S
C1656 C1657 1.377 . S
C1657 H1641 0.930 . S
C1657 C1656 1.377 . S
C1657 C1658 1.379 . S
C1658 H1642 0.931 . S
C1658 C1652 1.383 . S
C1658 C1657 1.379 . S
H1659 C1653 0.959 . S
H1660 C1653 0.961 . S
H1661 C1653 0.960 . S
H1662 C1654 0.930 . S
H1663 C1655 0.929 . S
H1664 C1672 0.929 . S
H1665 C1674 0.930 . S
H1666 C1676 0.930 . S
H1667 C1679 0.929 . S
H1668 C1682 0.930 . S
H1669 C1684 0.960 . S
H1670 C1684 0.960 . S
H1671 C1684 0.960 . S
C1672 H1664 0.929 . S
C1672 C1673 1.377 . S
C1672 C1674 1.384 . S
C1673 C1672 1.377 . S
C1673 C1679 1.390 . S
C1674 H1665 0.930 . S
C1674 C1672 1.384 . S
C1674 C1675 1.372 . S
C1675 C1674 1.372 . S
C1675 C1676 1.400 . S
C1675 C1680 1.490 . S
C1676 H1666 0.930 . S
C1676 C1675 1.400 . S
C1676 C1679 1.386 . S
H1677 C1693 0.930 . S
H1678 C1694 0.931 . S
C1679 H1667 0.929 . S
C1679 C1673 1.390 . S
C1679 C1676 1.386 . S
C1680 C1675 1.490 . S
C1680 C1682 1.395 . S
C1680 C1683 1.403 . S
H1681 C1687 0.930 . S
C1682 H1668 0.930 . S
C1682 C1680 1.395 . S
C1682 C1685 1.403 . S
C1683 C1680 1.403 . S
C1683 C1684 1.524 . S
C1683 C1687 1.400 . S
C1684 H1669 0.960 . S
C1684 H1670 0.960 . S
C1684 H1671 0.960 . S
C1684 C1683 1.524 . S
C1685 C1682 1.403 . S
C1685 C1686 1.392 . S
C1685 C1689 1.495 . S
C1686 C1685 1.392 . S
C1686 C1687 1.385 . S
C1686 C1688 1.478 . S
C1687 H1681 0.930 . S
C1687 C1683 1.400 . S
C1687 C1686 1.385 . S
C1688 C1686 1.478 . S
C1688 C1690 1.381 . S
C1688 C1694 1.383 . S
C1689 C1685 1.495 . S
C1689 H1695 0.959 . S
C1689 H1696 0.961 . S
C1689 H1697 0.960 . S
C1690 C1688 1.381 . S
C1690 C1691 1.394 . S
C1690 H1698 0.930 . S
C1691 C1690 1.394 . S
C1691 C1692 1.383 . S
C1691 H1699 0.929 . S
C1692 C1691 1.383 . S
C1692 C1693 1.377 . S
C1693 H1677 0.930 . S
C1693 C1692 1.377 . S
C1693 C1694 1.379 . S
C1694 H1678 0.931 . S
C1694 C1688 1.383 . S
C1694 C1693 1.379 . S
H1695 C1689 0.959 . S
H1696 C1689 0.961 . S
H1697 C1689 0.960 . S
H1698 C1690 0.930 . S
H1699 C1691 0.929 . S
H1700 C1708 0.929 . S
H1701 C1710 0.930 . S
H1702 C1712 0.930 . S
H1703 C1715 0.929 . S
H1704 C1718 0.930 . S
H1705 C1720 0.960 . S
H1706 C1720 0.960 . S
H1707 C1720 0.960 . S
C1708 H1700 0.929 . S
C1708 C1709 1.377 . S
C1708 C1710 1.384 . S
C1709 C1708 1.377 . S
C1709 C1715 1.390 . S
C1710 H1701 0.930 . S
C1710 C1708 1.384 . S
C1710 C1711 1.372 . S
C1711 C1710 1.372 . S
C1711 C1712 1.400 . S
C1711 C1716 1.490 . S
C1712 H1702 0.930 . S
C1712 C1711 1.400 . S
C1712 C1715 1.386 . S
H1713 C1729 0.930 . S
H1714 C1730 0.931 . S
C1715 H1703 0.929 . S
C1715 C1709 1.390 . S
C1715 C1712 1.386 . S
C1716 C1711 1.490 . S
C1716 C1718 1.395 . S
C1716 C1719 1.403 . S
H1717 C1723 0.930 . S
C1718 H1704 0.930 . S
C1718 C1716 1.395 . S
C1718 C1721 1.403 . S
C1719 C1716 1.403 . S
C1719 C1720 1.524 . S
C1719 C1723 1.400 . S
C1720 H1705 0.960 . S
C1720 H1706 0.960 . S
C1720 H1707 0.960 . S
C1720 C1719 1.524 . S
C1721 C1718 1.403 . S
C1721 C1722 1.392 . S
C1721 C1725 1.495 . S
C1722 C1721 1.392 . S
C1722 C1723 1.385 . S
C1722 C1724 1.478 . S
C1723 H1717 0.930 . S
C1723 C1719 1.400 . S
C1723 C1722 1.385 . S
C1724 C1722 1.478 . S
C1724 C1726 1.381 . S
C1724 C1730 1.383 . S
C1725 C1721 1.495 . S
C1725 H1731 0.959 . S
C1725 H1732 0.961 . S
C1725 H1733 0.960 . S
C1726 C1724 1.381 . S
C1726 C1727 1.394 . S
C1726 H1734 0.930 . S
C1727 C1726 1.394 . S
C1727 C1728 1.383 . S
C1727 H1735 0.929 . S
C1728 C1727 1.383 . S
C1728 C1729 1.377 . S
C1729 H1713 0.930 . S
C1729 C1728 1.377 . S
C1729 C1730 1.379 . S
C1730 H1714 0.931 . S
C1730 C1724 1.383 . S
C1730 C1729 1.379 . S
H1731 C1725 0.959 . S
H1732 C1725 0.961 . S
H1733 C1725 0.960 . S
H1734 C1726 0.930 . S
H1735 C1727 0.929 . S
H1736 C1744 0.929 . S
H1737 C1746 0.930 . S
H1738 C1748 0.930 . S
H1739 C1751 0.929 . S
H1740 C1754 0.930 . S
H1741 C1756 0.960 . S
H1742 C1756 0.960 . S
H1743 C1756 0.960 . S
C1744 H1736 0.929 . S
C1744 C1745 1.377 . S
C1744 C1746 1.384 . S
C1745 C1744 1.377 . S
C1745 C1751 1.390 . S
C1746 H1737 0.930 . S
C1746 C1744 1.384 . S
C1746 C1747 1.372 . S
C1747 C1746 1.372 . S
C1747 C1748 1.400 . S
C1747 C1752 1.490 . S
C1748 H1738 0.930 . S
C1748 C1747 1.400 . S
C1748 C1751 1.386 . S
H1749 C1765 0.930 . S
H1750 C1766 0.931 . S
C1751 H1739 0.929 . S
C1751 C1745 1.390 . S
C1751 C1748 1.386 . S
C1752 C1747 1.490 . S
C1752 C1754 1.395 . S
C1752 C1755 1.403 . S
H1753 C1759 0.930 . S
C1754 H1740 0.930 . S
C1754 C1752 1.395 . S
C1754 C1757 1.403 . S
C1755 C1752 1.403 . S
C1755 C1756 1.524 . S
C1755 C1759 1.400 . S
C1756 H1741 0.960 . S
C1756 H1742 0.960 . S
C1756 H1743 0.960 . S
C1756 C1755 1.524 . S
C1757 C1754 1.403 . S
C1757 C1758 1.392 . S
C1757 C1761 1.495 . S
C1758 C1757 1.392 . S
C1758 C1759 1.385 . S
C1758 C1760 1.478 . S
C1759 H1753 0.930 . S
C1759 C1755 1.400 . S
C1759 C1758 1.385 . S
C1760 C1758 1.478 . S
C1760 C1762 1.381 . S
C1760 C1766 1.383 . S
C1761 C1757 1.495 . S
C1761 H1767 0.959 . S
C1761 H1768 0.961 . S
C1761 H1769 0.960 . S
C1762 C1760 1.381 . S
C1762 C1763 1.394 . S
C1762 H1770 0.930 . S
C1763 C1762 1.394 . S
C1763 C1764 1.383 . S
C1763 H1771 0.929 . S
C1764 C1763 1.383 . S
C1764 C1765 1.377 . S
C1765 H1749 0.930 . S
C1765 C1764 1.377 . S
C1765 C1766 1.379 . S
C1766 H1750 0.931 . S
C1766 C1760 1.383 . S
C1766 C1765 1.379 . S
H1767 C1761 0.959 . S
H1768 C1761 0.961 . S
H1769 C1761 0.960 . S
H1770 C1762 0.930 . S
H1771 C1763 0.929 . S
H1772 C1780 0.929 . S
H1773 C1782 0.930 . S
H1774 C1784 0.930 . S
H1775 C1787 0.929 . S
H1776 C1790 0.930 . S
H1777 C1792 0.960 . S
H1778 C1792 0.960 . S
H1779 C1792 0.960 . S
C1780 H1772 0.929 . S
C1780 C1781 1.377 . S
C1780 C1782 1.384 . S
C1781 C1780 1.377 . S
C1781 C1787 1.390 . S
C1782 H1773 0.930 . S
C1782 C1780 1.384 . S
C1782 C1783 1.372 . S
C1783 C1782 1.372 . S
C1783 C1784 1.400 . S
C1783 C1788 1.490 . S
C1784 H1774 0.930 . S
C1784 C1783 1.400 . S
C1784 C1787 1.386 . S
H1785 C1801 0.930 . S
H1786 C1802 0.931 . S
C1787 H1775 0.929 . S
C1787 C1781 1.390 . S
C1787 C1784 1.386 . S
C1788 C1783 1.490 . S
C1788 C1790 1.395 . S
C1788 C1791 1.403 . S
H1789 C1795 0.930 . S
C1790 H1776 0.930 . S
C1790 C1788 1.395 . S
C1790 C1793 1.403 . S
C1791 C1788 1.403 . S
C1791 C1792 1.524 . S
C1791 C1795 1.400 . S
C1792 H1777 0.960 . S
C1792 H1778 0.960 . S
C1792 H1779 0.960 . S
C1792 C1791 1.524 . S
C1793 C1790 1.403 . S
C1793 C1794 1.392 . S
C1793 C1797 1.495 . S
C1794 C1793 1.392 . S
C1794 C1795 1.385 . S
C1794 C1796 1.478 . S
C1795 H1789 0.930 . S
C1795 C1791 1.400 . S
C1795 C1794 1.385 . S
C1796 C1794 1.478 . S
C1796 C1798 1.381 . S
C1796 C1802 1.383 . S
C1797 C1793 1.495 . S
C1797 H1803 0.959 . S
C1797 H1804 0.961 . S
C1797 H1805 0.960 . S
C1798 C1796 1.381 . S
C1798 C1799 1.398 . S
C1798 H1806 0.930 . S
C1799 C1798 1.398 . S
C1799 C1800 1.382 1_655 S
C1799 H1807 0.926 1_655 S
C1800 C1799 1.382 1_455 S
C1800 C1801 1.377 1_455 S
C1801 H1785 0.930 . S
C1801 C1800 1.377 1_655 S
C1801 C1802 1.379 . S
C1802 H1786 0.931 . S
C1802 C1796 1.383 . S
C1802 C1801 1.379 . S
H1803 C1797 0.959 . S
H1804 C1797 0.961 . S
H1805 C1797 0.960 . S
H1806 C1798 0.930 . S
H1807 C1799 0.926 1_455 S
H1808 C1816 0.929 . S
H1809 C1818 0.930 . S
H1810 C1820 0.930 . S
H1811 C1823 0.929 . S
H1812 C1826 0.930 . S
H1813 C1828 0.960 . S
H1814 C1828 0.960 . S
H1815 C1828 0.960 . S
C1816 H1808 0.929 . S
C1816 C1817 1.377 . S
C1816 C1818 1.384 . S
C1817 C1816 1.377 . S
C1817 C1823 1.390 . S
C1818 H1809 0.930 . S
C1818 C1816 1.384 . S
C1818 C1819 1.372 . S
C1819 C1818 1.372 . S
C1819 C1820 1.400 . S
C1819 C1824 1.490 . S
C1820 H1810 0.930 . S
C1820 C1819 1.400 . S
C1820 C1823 1.386 . S
H1821 C1837 0.930 . S
H1822 C1838 0.931 . S
C1823 H1811 0.929 . S
C1823 C1817 1.390 . S
C1823 C1820 1.386 . S
C1824 C1819 1.490 . S
C1824 C1826 1.395 . S
C1824 C1827 1.403 . S
H1825 C1831 0.930 . S
C1826 H1812 0.930 . S
C1826 C1824 1.395 . S
C1826 C1829 1.403 . S
C1827 C1824 1.403 . S
C1827 C1828 1.524 . S
C1827 C1831 1.400 . S
C1828 H1813 0.960 . S
C1828 H1814 0.960 . S
C1828 H1815 0.960 . S
C1828 C1827 1.524 . S
C1829 C1826 1.403 . S
C1829 C1830 1.392 . S
C1829 C1833 1.495 . S
C1830 C1829 1.392 . S
C1830 C1831 1.385 . S
C1830 C1832 1.478 . S
C1831 H1825 0.930 . S
C1831 C1827 1.400 . S
C1831 C1830 1.385 . S
C1832 C1830 1.478 . S
C1832 C1834 1.381 . S
C1832 C1838 1.383 . S
C1833 C1829 1.495 . S
C1833 H1839 0.959 . S
C1833 H1840 0.961 . S
C1833 H1841 0.960 . S
C1834 C1832 1.381 . S
C1834 C1835 1.394 . S
C1834 H1842 0.930 . S
C1835 C1834 1.394 . S
C1835 C1836 1.383 . S
C1835 H1843 0.929 . S
C1836 C1835 1.383 . S
C1836 C1837 1.377 . S
C1837 H1821 0.930 . S
C1837 C1836 1.377 . S
C1837 C1838 1.379 . S
C1838 H1822 0.931 . S
C1838 C1832 1.383 . S
C1838 C1837 1.379 . S
H1839 C1833 0.959 . S
H1840 C1833 0.961 . S
H1841 C1833 0.960 . S
H1842 C1834 0.930 . S
H1843 C1835 0.929 . S
H1844 C1852 0.929 . S
H1845 C1854 0.930 . S
H1846 C1856 0.930 . S
H1847 C1859 0.929 . S
H1848 C1862 0.930 . S
H1849 C1864 0.960 . S
H1850 C1864 0.960 . S
H1851 C1864 0.960 . S
C1852 H1844 0.929 . S
C1852 C1853 1.377 . S
C1852 C1854 1.384 . S
C1853 C1852 1.377 . S
C1853 C1859 1.390 . S
C1854 H1845 0.930 . S
C1854 C1852 1.384 . S
C1854 C1855 1.372 . S
C1855 C1854 1.372 . S
C1855 C1856 1.400 . S
C1855 C1860 1.490 . S
C1856 H1846 0.930 . S
C1856 C1855 1.400 . S
C1856 C1859 1.386 . S
H1857 C1873 0.936 . S
H1858 C1874 0.931 . S
C1859 H1847 0.929 . S
C1859 C1853 1.390 . S
C1859 C1856 1.386 . S
C1860 C1855 1.490 . S
C1860 C1862 1.395 . S
C1860 C1863 1.403 . S
H1861 C1867 0.930 . S
C1862 H1848 0.930 . S
C1862 C1860 1.395 . S
C1862 C1865 1.403 . S
C1863 C1860 1.403 . S
C1863 C1864 1.524 . S
C1863 C1867 1.400 . S
C1864 H1849 0.960 . S
C1864 H1850 0.960 . S
C1864 H1851 0.960 . S
C1864 C1863 1.524 . S
C1865 C1862 1.403 . S
C1865 C1866 1.392 . S
C1865 C1869 1.495 1_565 S
C1866 C1865 1.392 . S
C1866 C1867 1.385 . S
C1866 C1868 1.478 . S
C1867 H1861 0.930 . S
C1867 C1863 1.400 . S
C1867 C1866 1.385 . S
C1868 C1866 1.478 . S
C1868 C1870 1.381 1_565 S
C1868 C1874 1.383 . S
C1869 C1865 1.495 1_545 S
C1869 H1875 0.959 . S
C1869 H1876 0.961 . S
C1869 H1877 0.960 . S
C1870 C1868 1.381 1_545 S
C1870 C1871 1.394 . S
C1870 H1878 0.930 . S
C1871 C1870 1.394 . S
C1871 C1872 1.383 1_655 S
C1871 H1879 0.929 . S
C1872 C1871 1.383 1_455 S
C1872 C1873 1.379 1_545 S
C1873 H1857 0.936 . S
C1873 C1872 1.379 1_565 S
C1873 C1874 1.371 1_455 S
C1874 H1858 0.931 . S
C1874 C1868 1.383 . S
C1874 C1873 1.371 1_655 S
H1875 C1869 0.959 . S
H1876 C1869 0.961 . S
H1877 C1869 0.960 . S
H1878 C1870 0.930 . S
H1879 C1871 0.929 . S
H1880 C1888 0.929 . S
H1881 C1890 0.930 . S
H1882 C1892 0.930 . S
H1883 C1895 0.929 . S
H1884 C1898 0.930 . S
H1885 C1900 0.960 . S
H1886 C1900 0.960 . S
H1887 C1900 0.960 . S
C1888 H1880 0.929 . S
C1888 C1889 1.377 . S
C1888 C1890 1.384 . S
C1889 C1888 1.377 . S
C1889 C1895 1.390 . S
C1890 H1881 0.930 . S
C1890 C1888 1.384 . S
C1890 C1891 1.372 . S
C1891 C1890 1.372 . S
C1891 C1892 1.400 . S
C1891 C1896 1.490 . S
C1892 H1882 0.930 . S
C1892 C1891 1.400 . S
C1892 C1895 1.386 . S
H1893 C1909 0.930 . S
H1894 C1910 0.931 . S
C1895 H1883 0.929 . S
C1895 C1889 1.390 . S
C1895 C1892 1.386 . S
C1896 C1891 1.490 . S
C1896 C1898 1.395 . S
C1896 C1899 1.403 . S
H1897 C1903 0.930 . S
C1898 H1884 0.930 . S
C1898 C1896 1.395 . S
C1898 C1901 1.403 . S
C1899 C1896 1.403 . S
C1899 C1900 1.524 . S
C1899 C1903 1.400 . S
C1900 H1885 0.960 . S
C1900 H1886 0.960 . S
C1900 H1887 0.960 . S
C1900 C1899 1.524 . S
C1901 C1898 1.403 . S
C1901 C1902 1.392 . S
C1901 C1905 1.495 . S
C1902 C1901 1.392 . S
C1902 C1903 1.385 . S
C1902 C1904 1.478 . S
C1903 H1897 0.930 . S
C1903 C1899 1.400 . S
C1903 C1902 1.385 . S
C1904 C1902 1.478 . S
C1904 C1906 1.381 . S
C1904 C1910 1.383 . S
C1905 C1901 1.495 . S
C1905 H1911 0.959 . S
C1905 H1912 0.961 . S
C1905 H1913 0.960 . S
C1906 C1904 1.381 . S
C1906 C1907 1.394 . S
C1906 H1914 0.930 . S
C1907 C1906 1.394 . S
C1907 C1908 1.383 . S
C1907 H1915 0.929 . S
C1908 C1907 1.383 . S
C1908 C1909 1.377 . S
C1909 H1893 0.930 . S
C1909 C1908 1.377 . S
C1909 C1910 1.379 . S
C1910 H1894 0.931 . S
C1910 C1904 1.383 . S
C1910 C1909 1.379 . S
H1911 C1905 0.959 . S
H1912 C1905 0.961 . S
H1913 C1905 0.960 . S
H1914 C1906 0.930 . S
H1915 C1907 0.929 . S
H1916 C1924 0.929 . S
H1917 C1926 0.930 . S
H1918 C1928 0.930 . S
H1919 C1931 0.929 . S
H1920 C1934 0.930 . S
H1921 C1936 0.960 . S
H1922 C1936 0.960 . S
H1923 C1936 0.960 . S
C1924 H1916 0.929 . S
C1924 C1925 1.377 1_545 S
C1924 C1926 1.384 . S
C1925 C1924 1.377 1_565 S
C1925 C1931 1.390 . S
C1926 H1917 0.930 . S
C1926 C1924 1.384 . S
C1926 C1927 1.372 . S
C1927 C1926 1.372 . S
C1927 C1928 1.400 1_545 S
C1927 C1932 1.490 . S
C1928 H1918 0.930 . S
C1928 C1927 1.400 1_565 S
C1928 C1931 1.386 . S
H1929 C1945 0.930 . S
H1930 C1946 0.931 . S
C1931 H1919 0.929 . S
C1931 C1925 1.390 . S
C1931 C1928 1.386 . S
C1932 C1927 1.490 . S
C1932 C1934 1.395 . S
C1932 C1935 1.403 . S
H1933 C1939 0.930 . S
C1934 H1920 0.930 . S
C1934 C1932 1.395 . S
C1934 C1937 1.403 . S
C1935 C1932 1.403 . S
C1935 C1936 1.524 1_545 S
C1935 C1939 1.400 . S
C1936 H1921 0.960 . S
C1936 H1922 0.960 . S
C1936 H1923 0.960 . S
C1936 C1935 1.524 1_565 S
C1937 C1934 1.403 . S
C1937 C1938 1.392 . S
C1937 C1941 1.495 . S
C1938 C1937 1.392 . S
C1938 C1939 1.385 . S
C1938 C1940 1.478 . S
C1939 H1933 0.930 . S
C1939 C1935 1.400 . S
C1939 C1938 1.385 . S
C1940 C1938 1.478 . S
C1940 C1942 1.381 . S
C1940 C1946 1.383 . S
C1941 C1937 1.495 . S
C1941 H1947 0.959 . S
C1941 H1948 0.961 . S
C1941 H1949 0.960 . S
C1942 C1940 1.381 . S
C1942 C1943 1.394 . S
C1942 H1950 0.930 . S
C1943 C1942 1.394 . S
C1943 C1944 1.383 . S
C1943 H1951 0.929 . S
C1944 C1943 1.383 . S
C1944 C1945 1.377 . S
C1945 H1929 0.930 . S
C1945 C1944 1.377 . S
C1945 C1946 1.379 . S
C1946 H1930 0.931 . S
C1946 C1940 1.383 . S
C1946 C1945 1.379 . S
H1947 C1941 0.959 . S
H1948 C1941 0.961 . S
H1949 C1941 0.960 . S
H1950 C1942 0.930 . S
H1951 C1943 0.929 . S
H1952 C1960 0.929 . S
H1953 C1962 0.930 . S
H1954 C1964 0.930 . S
H1955 C1967 0.929 . S
H1956 C1970 0.930 . S
H1957 C1972 0.960 . S
H1958 C1972 0.960 . S
H1959 C1972 0.960 . S
C1960 H1952 0.929 . S
C1960 C1961 1.377 . S
C1960 C1962 1.384 . S
C1961 C1960 1.377 . S
C1961 C1967 1.390 . S
C1962 H1953 0.930 . S
C1962 C1960 1.384 . S
C1962 C1963 1.372 . S
C1963 C1962 1.372 . S
C1963 C1964 1.400 . S
C1963 C1968 1.490 . S
C1964 H1954 0.930 . S
C1964 C1963 1.400 . S
C1964 C1967 1.386 . S
H1965 C1981 0.930 . S
H1966 C1982 0.931 . S
C1967 H1955 0.929 . S
C1967 C1961 1.390 . S
C1967 C1964 1.386 . S
C1968 C1963 1.490 . S
C1968 C1970 1.395 . S
C1968 C1971 1.403 . S
H1969 C1975 0.930 . S
C1970 H1956 0.930 . S
C1970 C1968 1.395 . S
C1970 C1973 1.403 . S
C1971 C1968 1.403 . S
C1971 C1972 1.524 . S
C1971 C1975 1.400 . S
C1972 H1957 0.960 . S
C1972 H1958 0.960 . S
C1972 H1959 0.960 . S
C1972 C1971 1.524 . S
C1973 C1970 1.403 . S
C1973 C1974 1.392 . S
C1973 C1977 1.495 . S
C1974 C1973 1.392 . S
C1974 C1975 1.385 . S
C1974 C1976 1.478 . S
C1975 H1969 0.930 . S
C1975 C1971 1.400 . S
C1975 C1974 1.385 . S
C1976 C1974 1.478 . S
C1976 C1978 1.381 . S
C1976 C1982 1.383 . S
C1977 C1973 1.495 . S
C1977 H1983 0.959 . S
C1977 H1984 0.961 . S
C1977 H1985 0.960 . S
C1978 C1976 1.381 . S
C1978 C1979 1.394 . S
C1978 H1986 0.930 . S
C1979 C1978 1.394 . S
C1979 C1980 1.383 . S
C1979 H1987 0.929 . S
C1980 C1979 1.383 . S
C1980 C1981 1.377 . S
C1981 H1965 0.930 . S
C1981 C1980 1.377 . S
C1981 C1982 1.379 . S
C1982 H1966 0.931 . S
C1982 C1976 1.383 . S
C1982 C1981 1.379 . S
H1983 C1977 0.959 . S
H1984 C1977 0.961 . S
H1985 C1977 0.960 . S
H1986 C1978 0.930 . S
H1987 C1979 0.929 . S
H1988 C1996 0.929 . S
H1989 C1998 0.926 1_565 S
H1990 C2000 0.930 . S
H1991 C2003 0.929 . S
H1992 C2006 0.930 1_565 S
H1993 C2008 0.960 . S
H1994 C2008 0.960 . S
H1995 C2008 0.960 . S
C1996 H1988 0.929 . S
C1996 C1997 1.377 1_455 S
C1996 C1998 1.377 1_565 S
C1997 C1996 1.377 1_655 S
C1997 C2003 1.390 1_565 S
C1998 H1989 0.926 1_545 S
C1998 C1996 1.377 1_545 S
C1998 C1999 1.383 . S
C1999 C1998 1.383 . S
C1999 C2000 1.400 . S
C1999 C2004 1.490 . S
C2000 H1990 0.930 . S
C2000 C1999 1.400 . S
C2000 C2003 1.386 1_455 S
H2001 C2017 0.930 . S
H2002 C2018 0.931 . S
C2003 H1991 0.929 . S
C2003 C1997 1.390 1_545 S
C2003 C2000 1.386 1_655 S
C2004 C1999 1.490 . S
C2004 C2006 1.395 . S
C2004 C2007 1.403 . S
H2005 C2011 0.930 . S
C2006 H1992 0.930 1_545 S
C2006 C2004 1.395 . S
C2006 C2009 1.403 . S
C2007 C2004 1.403 . S
C2007 C2008 1.524 . S
C2007 C2011 1.400 . S
C2008 H1993 0.960 . S
C2008 H1994 0.960 . S
C2008 H1995 0.960 . S
C2008 C2007 1.524 . S
C2009 C2006 1.403 . S
C2009 C2010 1.392 . S
C2009 C2013 1.495 . S
C2010 C2009 1.392 . S
C2010 C2011 1.385 . S
C2010 C2012 1.478 . S
C2011 H2005 0.930 . S
C2011 C2007 1.400 . S
C2011 C2010 1.385 . S
C2012 C2010 1.478 . S
C2012 C2014 1.381 . S
C2012 C2018 1.383 . S
C2013 C2009 1.495 . S
C2013 H2019 0.959 1_545 S
C2013 H2020 0.961 . S
C2013 H2021 0.960 . S
C2014 C2012 1.381 . S
C2014 C2015 1.394 . S
C2014 H2022 0.930 . S
C2015 C2014 1.394 . S
C2015 C2016 1.383 . S
C2015 H2023 0.929 . S
C2016 C2015 1.383 . S
C2016 C2017 1.377 . S
C2017 H2001 0.930 . S
C2017 C2016 1.377 . S
C2017 C2018 1.379 . S
C2018 H2002 0.931 . S
C2018 C2012 1.383 . S
C2018 C2017 1.379 . S
H2019 C2013 0.959 1_565 S
H2020 C2013 0.961 . S
H2021 C2013 0.960 . S
H2022 C2014 0.930 . S
H2023 C2015 0.929 . S
H2024 C2032 0.929 . S
H2025 C2034 0.930 . S
H2026 C2036 0.930 . S
H2027 C2039 0.929 . S
H2028 C2042 0.930 . S
H2029 C2044 0.960 . S
H2030 C2044 0.960 . S
H2031 C2044 0.960 . S
C2032 H2024 0.929 . S
C2032 C2033 1.377 . S
C2032 C2034 1.384 . S
C2033 C2032 1.377 . S
C2033 C2039 1.390 . S
C2034 H2025 0.930 . S
C2034 C2032 1.384 . S
C2034 C2035 1.372 . S
C2035 C2034 1.372 . S
C2035 C2036 1.400 . S
C2035 C2040 1.490 . S
C2036 H2026 0.930 . S
C2036 C2035 1.400 . S
C2036 C2039 1.386 . S
H2037 C2053 0.930 . S
H2038 C2054 0.931 . S
C2039 H2027 0.929 . S
C2039 C2033 1.390 . S
C2039 C2036 1.386 . S
C2040 C2035 1.490 . S
C2040 C2042 1.395 . S
C2040 C2043 1.403 . S
H2041 C2047 0.930 . S
C2042 H2028 0.930 . S
C2042 C2040 1.395 . S
C2042 C2045 1.403 . S
C2043 C2040 1.403 . S
C2043 C2044 1.524 . S
C2043 C2047 1.400 . S
C2044 H2029 0.960 . S
C2044 H2030 0.960 . S
C2044 H2031 0.960 . S
C2044 C2043 1.524 . S
C2045 C2042 1.403 . S
C2045 C2046 1.392 . S
C2045 C2049 1.495 . S
C2046 C2045 1.392 . S
C2046 C2047 1.385 . S
C2046 C2048 1.478 . S
C2047 H2041 0.930 . S
C2047 C2043 1.400 . S
C2047 C2046 1.385 . S
C2048 C2046 1.478 . S
C2048 C2050 1.381 . S
C2048 C2054 1.383 . S
C2049 C2045 1.495 . S
C2049 H2055 0.959 . S
C2049 H2056 0.961 . S
C2049 H2057 0.960 . S
C2050 C2048 1.381 . S
C2050 C2051 1.394 . S
C2050 H2058 0.930 . S
C2051 C2050 1.394 . S
C2051 C2052 1.383 . S
C2051 H2059 0.929 . S
C2052 C2051 1.383 . S
C2052 C2053 1.377 . S
C2053 H2037 0.930 . S
C2053 C2052 1.377 . S
C2053 C2054 1.379 . S
C2054 H2038 0.931 . S
C2054 C2048 1.383 . S
C2054 C2053 1.379 . S
H2055 C2049 0.959 . S
H2056 C2049 0.961 . S
H2057 C2049 0.960 . S
H2058 C2050 0.930 . S
H2059 C2051 0.929 . S
H2060 C2068 0.929 . S
H2061 C2070 0.930 . S
H2062 C2072 0.930 . S
H2063 C2075 0.929 . S
H2064 C2078 0.930 . S
H2065 C2080 0.960 . S
H2066 C2080 0.960 . S
H2067 C2080 0.960 . S
C2068 H2060 0.929 . S
C2068 C2069 1.377 . S
C2068 C2070 1.384 . S
C2069 C2068 1.377 . S
C2069 C2075 1.390 . S
C2070 H2061 0.930 . S
C2070 C2068 1.384 . S
C2070 C2071 1.372 . S
C2071 C2070 1.372 . S
C2071 C2072 1.400 . S
C2071 C2076 1.490 . S
C2072 H2062 0.930 . S
C2072 C2071 1.400 . S
C2072 C2075 1.386 . S
H2073 C2089 0.930 . S
H2074 C2090 0.931 . S
C2075 H2063 0.929 . S
C2075 C2069 1.390 . S
C2075 C2072 1.386 . S
C2076 C2071 1.490 . S
C2076 C2078 1.395 . S
C2076 C2079 1.403 . S
H2077 C2083 0.930 . S
C2078 H2064 0.930 . S
C2078 C2076 1.395 . S
C2078 C2081 1.403 . S
C2079 C2076 1.403 . S
C2079 C2080 1.524 . S
C2079 C2083 1.400 . S
C2080 H2065 0.960 . S
C2080 H2066 0.960 . S
C2080 H2067 0.960 . S
C2080 C2079 1.524 . S
C2081 C2078 1.403 . S
C2081 C2082 1.392 . S
C2081 C2085 1.495 . S
C2082 C2081 1.392 . S
C2082 C2083 1.385 . S
C2082 C2084 1.478 . S
C2083 H2077 0.930 . S
C2083 C2079 1.400 . S
C2083 C2082 1.385 . S
C2084 C2082 1.478 . S
C2084 C2086 1.381 . S
C2084 C2090 1.383 1_565 S
C2085 C2081 1.495 . S
C2085 H2091 0.959 . S
C2085 H2092 0.961 . S
C2085 H2093 0.960 . S
C2086 C2084 1.381 . S
C2086 C2087 1.394 . S
C2086 H2094 0.930 . S
C2087 C2086 1.394 . S
C2087 C2088 1.383 1_565 S
C2087 H2095 0.929 . S
C2088 C2087 1.383 1_545 S
C2088 C2089 1.377 . S
C2089 H2073 0.930 . S
C2089 C2088 1.377 . S
C2089 C2090 1.379 . S
C2090 H2074 0.931 . S
C2090 C2084 1.383 1_545 S
C2090 C2089 1.379 . S
H2091 C2085 0.959 . S
H2092 C2085 0.961 . S
H2093 C2085 0.960 . S
H2094 C2086 0.930 . S
H2095 C2087 0.929 . S
C377 C16 0.822 . S
C396 C292 0.841 . S
C413 C131 0.813 . S
C432 C39 0.831 . S
C449 C62 0.823 . S
C468 C338 0.827 . S
C485 C85 0.823 . S
C504 C177 0.838 . S
C521 C108 0.818 . S
C540 C200 0.845 . S
C557 C246 0.819 . S
C576 C154 0.846 . S
C593 C315 0.821 . S
C612 C223 0.810 . S
C629 C269 0.812 . S
C648 C361 0.826 . S
C665 C225 1.457 . S
C684 C17 1.436 . S
C701 C40 1.409 . S
C720 C248 1.453 . S
C737 C63 1.406 . S
C756 C271 1.464 . S
C773 C202 1.460 . S
C792 C86 1.415 . S
C809 C317 1.460 . S
C828 C109 1.428 . S
C845 C340 1.458 . S
C864 C132 1.437 . S
C881 C155 1.413 . S
C900 C363 1.442 . S
C917 C294 1.461 . S
C936 C178 1.417 . S
C953 C201 1.407 . S
C972 C41 1.468 . S
C989 C224 1.411 . S
C1008 C64 1.466 . S
C1025 C247 1.407 . S
C1044 C87 1.457 . S
C1061 C18 1.457 . S
C1080 C270 1.438 . S
C1097 C133 1.461 . S
C1116 C293 1.392 . S
C1133 C316 1.417 . S
C1152 C156 1.459 . S
C1169 C179 1.459 . S
C1188 C339 1.437 . S
C1205 C362 1.408 . S
C1224 C110 1.447 . S
C1241 C20 1.311 . S
C1260 C250 1.309 . S
C1277 C43 1.314 . S
C1296 C273 1.330 . S
C1313 C204 1.305 . S
C1332 C66 1.305 . S
C1349 C89 1.314 . S
C1368 C227 1.327 . S
C1385 C112 1.308 . S
C1404 C342 1.287 . S
C1421 C135 1.312 . S
C1440 C365 1.303 . S
C1457 C296 1.312 . S
C1476 C158 1.275 . S
C1493 C181 1.312 . S
C1512 C319 1.274 . S
C1529 C21 1.172 . S
C1548 C180 1.127 . S
C1565 C295 1.158 . S
C1584 C44 1.158 . S
C1601 C67 1.174 . S
C1620 C134 1.125 . S
C1637 C90 1.169 . S
C1656 C341 1.161 . S
C1673 C113 1.173 . S
C1692 C88 1.162 . S
C1709 C203 1.157 . S
C1728 C136 1.181 . S
C1745 C159 1.171 . S
C1764 C42 1.144 . S
C1781 C249 1.155 . S
C1800 C182 1.177 . S
C1817 C205 1.173 . S
C1836 C364 1.158 . S
C1853 C111 1.147 . S
C1872 C228 1.181 . S
C1889 C318 1.149 . S
C1908 C251 1.183 . S
C1925 C274 1.173 . S
C1944 C157 1.165 . S
C1961 C297 1.170 . S
C1980 C272 1.128 . S
C1997 C320 1.172 . S
C2016 C19 1.156 . S
C2033 C226 1.154 . S
C2052 C343 1.173 . S
C2069 C65 1.149 . S
C2088 C366 1.163 . S
