# Generated by pormake.
# Topology wjf, (4)-cn, num edge types: 1
# Building blocks:
#     Node 0, Type 0, BuildingBlock: UXUYUI_clean_sbu_0, # of connection points: 4
#     Node 1, Type 0, BuildingBlock: UXUYUI_clean_sbu_0, # of connection points: 4
#     Node 2, Type 0, BuildingBlock: UXUYUI_clean_sbu_0, # of connection points: 4
#     Node 3, Type 0, BuildingBlock: UXUYUI_clean_sbu_0, # of connection points: 4
#     Node 4, Type 0, BuildingBlock: UXUYUI_clean_sbu_0, # of connection points: 4
#     Node 5, Type 0, BuildingBlock: UXUYUI_clean_sbu_0, # of connection points: 4
#     Node 6, Type 0, BuildingBlock: UXUYUI_clean_sbu_0, # of connection points: 4
#     Node 7, Type 0, BuildingBlock: UXUYUI_clean_sbu_0, # of connection points: 4
#     Node 8, Type 0, BuildingBlock: UXUYUI_clean_sbu_0, # of connection points: 4
#     Node 9, Type 0, BuildingBlock: UXUYUI_clean_sbu_0, # of connection points: 4
#     Node 10, Type 0, BuildingBlock: UXUYUI_clean_sbu_0, # of connection points: 4
#     Node 11, Type 0, BuildingBlock: UXUYUI_clean_sbu_0, # of connection points: 4
#     Edge 12, Type (0, 0), BuildingBlock: CIFDUS_clean_linker_0, # of connection points: 2
#     Edge 13, Type (0, 0), BuildingBlock: CIFDUS_clean_linker_0, # of connection points: 2
#     Edge 14, Type (0, 0), BuildingBlock: CIFDUS_clean_linker_0, # of connection points: 2
#     Edge 15, Type (0, 0), BuildingBlock: CIFDUS_clean_linker_0, # of connection points: 2
#     Edge 16, Type (0, 0), BuildingBlock: CIFDUS_clean_linker_0, # of connection points: 2
#     Edge 17, Type (0, 0), BuildingBlock: CIFDUS_clean_linker_0, # of connection points: 2
#     Edge 18, Type (0, 0), BuildingBlock: CIFDUS_clean_linker_0, # of connection points: 2
#     Edge 19, Type (0, 0), BuildingBlock: CIFDUS_clean_linker_0, # of connection points: 2
#     Edge 20, Type (0, 0), BuildingBlock: CIFDUS_clean_linker_0, # of connection points: 2
#     Edge 21, Type (0, 0), BuildingBlock: CIFDUS_clean_linker_0, # of connection points: 2
#     Edge 22, Type (0, 0), BuildingBlock: CIFDUS_clean_linker_0, # of connection points: 2
#     Edge 23, Type (0, 0), BuildingBlock: CIFDUS_clean_linker_0, # of connection points: 2
#     Edge 24, Type (0, 0), BuildingBlock: CIFDUS_clean_linker_0, # of connection points: 2
#     Edge 25, Type (0, 0), BuildingBlock: CIFDUS_clean_linker_0, # of connection points: 2
#     Edge 26, Type (0, 0), BuildingBlock: CIFDUS_clean_linker_0, # of connection points: 2
#     Edge 27, Type (0, 0), BuildingBlock: CIFDUS_clean_linker_0, # of connection points: 2
#     Edge 28, Type (0, 0), BuildingBlock: CIFDUS_clean_linker_0, # of connection points: 2
#     Edge 29, Type (0, 0), BuildingBlock: CIFDUS_clean_linker_0, # of connection points: 2
#     Edge 30, Type (0, 0), BuildingBlock: CIFDUS_clean_linker_0, # of connection points: 2
#     Edge 31, Type (0, 0), BuildingBlock: CIFDUS_clean_linker_0, # of connection points: 2
#     Edge 32, Type (0, 0), BuildingBlock: CIFDUS_clean_linker_0, # of connection points: 2
#     Edge 33, Type (0, 0), BuildingBlock: CIFDUS_clean_linker_0, # of connection points: 2
#     Edge 34, Type (0, 0), BuildingBlock: CIFDUS_clean_linker_0, # of connection points: 2
#     Edge 35, Type (0, 0), BuildingBlock: CIFDUS_clean_linker_0, # of connection points: 2
# Relax obj value: 0.355
# Max RMSD: 0.304
# Mean RMSD: 0.304
data_MOF--net-wjf--node1-UXUYUI_clean_sbu_0--edge1-CIFDUS_clean_linker_0
_symmetry_space_group_name_H-M    P1
_symmetry_Int_Tables_number       1
_symmetry_cell_setting            triclinic
loop_
_symmetry_equiv_pos_as_xyz
'x, y, z'
_cell_length_a     67.144216
_cell_length_b     67.184474
_cell_length_c     35.823485
_cell_angle_alpha  89.991212
_cell_angle_beta   90.012712
_cell_angle_gamma 119.97046
loop_
_atom_site_label
_atom_site_type_symbol
_atom_site_fract_x
_atom_site_fract_y
_atom_site_fract_z
_atom_type_partial_charge
Li0 Li 0.3154 0.39405 0.0638 0.0
Li1 Li 0.32408 0.37198 0.10489 0.0
Li2 Li 0.35394 0.40121 0.06581 0.0
Li3 Li 0.32222 0.36532 0.03848 0.0
C4 C 0.32736 0.41111 0.13619 0.0
N5 N 0.30835 0.42149 0.19626 0.0
C6 C 0.3037 0.39825 0.14289 0.0
C7 C 0.34133 0.42922 0.16006 0.0
C8 C 0.29443 0.40377 0.1734 0.0
C9 C 0.3314 0.43421 0.19027 0.0
C10 C 0.2828 0.33749 0.07735 0.0
C11 C 0.27741 0.29959 0.08725 0.0
N12 N 0.25427 0.29089 0.08834 0.0
C13 C 0.25898 0.32816 0.0785 0.0
C14 C 0.29213 0.3231 0.08169 0.0
C15 C 0.24484 0.30456 0.08411 0.0
C16 C 0.27921 0.39477 0.03021 0.0
N17 N 0.29666 0.40726 0.05434 0.0
C18 C 0.28536 0.43575 0.05907 0.0
C19 C 0.30016 0.42753 0.06868 0.0
C20 C 0.26736 0.4232 0.03384 0.0
C21 C 0.26442 0.40254 0.01925 0.0
H22 H 0.27694 0.37877 0.01926 0.0
H23 H 0.3144 0.43729 0.08745 0.0
C24 C 0.33904 0.36135 0.16956 0.0
N25 N 0.31967 0.35838 0.15257 0.0
C26 C 0.33795 0.35278 0.20537 0.0
C27 C 0.2969 0.33804 0.20544 0.0
C28 C 0.29881 0.34701 0.1696 0.0
C29 C 0.31668 0.34098 0.22387 0.0
H30 H 0.35541 0.37074 0.15541 0.0
H31 H 0.2837 0.34511 0.15559 0.0
C32 C 0.334 0.41326 -0.00033 0.0
N33 N 0.3294 0.44546 0.95839 0.0
C34 C 0.32084 0.40672 0.96704 0.0
C35 C 0.34499 0.43621 0.01117 0.0
C36 C 0.31868 0.42325 0.94659 0.0
C37 C 0.34241 0.45222 0.98994 0.0
C38 C 0.36327 0.36523 0.05847 0.0
C39 C 0.37248 0.37457 0.02353 0.0
C40 C 0.37153 0.35279 0.07786 0.0
C41 C 0.38977 0.37121 0.0085 0.0
C42 C 0.38881 0.34977 0.06186 0.0
N43 N 0.39751 0.35897 0.02781 0.0
C44 C 0.39813 0.42665 0.09528 0.0
C45 C 0.39602 0.43259 0.03048 0.0
C46 C 0.42196 0.44088 0.0948 0.0
N47 N 0.38578 0.42271 0.06339 0.0
C48 C 0.41984 0.44691 0.02869 0.0
C49 C 0.43316 0.45104 0.06109 0.0
H50 H 0.38944 0.41841 0.12096 0.0
H51 H 0.38577 0.42886 0.00543 0.0
C52 C 0.2936 0.34143 0.98068 0.0
N53 N 0.31225 0.34352 -0.00098 0.0
C54 C 0.28633 0.32911 0.94744 0.0
C55 C 0.31666 0.31991 0.95382 0.0
C56 C 0.32307 0.3321 0.9874 0.0
C57 C 0.29867 0.31915 0.93255 0.0
H58 H 0.285 0.35028 0.99106 0.0
H59 H 0.3373 0.33321 0.00309 0.0
O60 O 0.337 0.40604 0.10668 0.0
O61 O 0.29672 0.3606 0.07186 0.0
O62 O 0.3358 0.39724 0.02069 0.0
O63 O 0.34684 0.36886 0.07441 0.0
H64 H 0.29256 0.3842 0.12477 0.0
H65 H 0.35968 0.43931 0.15528 0.0
H66 H 0.27616 0.39397 0.17889 0.0
H67 H 0.34202 0.44819 0.20897 0.0
H68 H 0.28439 0.28826 0.09069 0.0
H69 H 0.25151 0.33909 0.07512 0.0
H70 H 0.31049 0.3299 0.08085 0.0
H71 H 0.22637 0.29712 0.0851 0.0
H72 H 0.28801 0.45173 0.0709 0.0
H73 H 0.25049 0.39225 0.00017 0.0
H74 H 0.35373 0.35594 0.21876 0.0
H75 H 0.28015 0.32896 0.21857 0.0
H76 H 0.31226 0.38904 0.95772 0.0
H77 H 0.3551 0.4415 0.03653 0.0
H78 H 0.30844 0.41841 0.92138 0.0
H79 H 0.35067 0.47 -0.00136 0.0
H80 H 0.36623 0.38414 0.008 0.0
H81 H 0.36468 0.34558 0.10506 0.0
H82 H 0.39701 0.3783 0.98147 0.0
H83 H 0.39536 0.34016 0.07655 0.0
H84 H 0.43151 0.44384 0.12053 0.0
H85 H 0.42777 0.45413 0.00204 0.0
H86 H 0.27194 0.32842 0.93262 0.0
H87 H 0.3267 0.3125 0.9436 0.0
Li88 Li 0.95199 0.33193 0.44665 0.0
Li89 Li 0.92152 0.32338 0.40331 0.0
Li90 Li 0.95928 0.33388 0.38107 0.0
Li91 Li 0.95229 0.36201 0.41016 0.0
C92 C 0.94759 0.2924 0.41393 0.0
N93 N 0.96621 0.26406 0.42109 0.0
C94 C 0.93398 0.26881 0.40767 0.0
C95 C 0.97069 0.3016 0.42382 0.0
C96 C 0.9437 0.25475 0.41144 0.0
C97 C 0.97978 0.28699 0.4273 0.0
C98 C 0.91384 0.33161 0.47663 0.0
C99 C 0.8923 0.33208 0.53017 0.0
N100 N 0.88294 0.30894 0.53364 0.0
C101 C 0.90399 0.30783 0.48072 0.0
C102 C 0.90796 0.34384 0.50154 0.0
C103 C 0.88841 0.29669 0.50971 0.0
C104 C 0.97693 0.34397 0.51225 0.0
N105 N 0.95999 0.32557 0.49406 0.0
C106 C 0.95518 0.30098 0.54561 0.0
C107 C 0.94924 0.30426 0.50968 0.0
C108 C 0.97254 0.31977 0.56514 0.0
C109 C 0.98362 0.34143 0.54792 0.0
H110 H 0.98499 0.36072 0.49919 0.0
H111 H 0.93587 0.28988 0.49449 0.0
C112 C 0.8896 0.29178 0.35799 0.0
N113 N 0.89058 0.30356 0.38931 0.0
C114 C 0.86858 0.27469 0.34439 0.0
C115 C 0.84964 0.28254 0.39495 0.0
C116 C 0.87118 0.29993 0.40724 0.0
C117 C 0.84828 0.26922 0.36371 0.0
H118 H 0.90535 0.29536 0.34409 0.0
H119 H 0.87237 0.30995 0.43161 0.0
C120 C 0.99808 0.37419 0.40389 0.0
N121 N 0.03768 0.40951 0.37274 0.0
C122 C 0.9981 0.38084 0.36689 0.0
C123 C 0.01824 0.38549 0.42499 0.0
C124 C 0.01828 0.39872 0.35166 0.0
C125 C 0.03807 0.40331 0.40876 0.0
C126 C 0.92574 0.35311 0.3468 0.0
C127 C 0.92644 0.35619 0.30816 0.0
C128 C 0.91143 0.35799 0.36861 0.0
C129 C 0.91281 0.36417 0.29191 0.0
C130 C 0.89807 0.36592 0.3513 0.0
N131 N 0.89903 0.36883 0.31364 0.0
C132 C 0.96148 0.31988 0.30992 0.0
C133 C 0.99618 0.33208 0.34334 0.0
C134 C 0.97117 0.3168 0.27766 0.0
N135 N 0.97417 0.32783 0.34156 0.0
C136 C 0.00663 0.32929 0.3116 0.0
C137 C 0.99419 0.32197 0.278 0.0
H138 H 0.94402 0.31669 0.30945 0.0
H139 H 0.00584 0.33832 0.369 0.0
C140 C 0.96156 0.40324 0.44437 0.0
N141 N 0.96079 0.3935 0.41079 0.0
C142 C 0.969 0.42667 0.44674 0.0
C143 C 0.97461 0.42952 0.37986 0.0
C144 C 0.96688 0.40603 0.37877 0.0
C145 C 0.97589 0.44021 0.41422 0.0
H146 H 0.95664 0.39282 0.46937 0.0
H147 H 0.9662 0.39789 0.35241 0.0
O148 O 0.93819 0.30627 0.41023 0.0
O149 O 0.92941 0.34308 0.44885 0.0
O150 O 0.97858 0.35671 0.41961 0.0
O151 O 0.93904 0.34531 0.3629 0.0
H152 H 0.91606 0.26144 0.39997 0.0
H153 H 0.98152 0.3198 0.42884 0.0
H154 H 0.93336 0.23645 0.40668 0.0
H155 H 0.99762 0.29387 0.43494 0.0
H156 H 0.88761 0.34134 0.54965 0.0
H157 H 0.90814 0.298 0.46161 0.0
H158 H 0.91547 0.36226 0.4988 0.0
H159 H 0.88065 0.2783 0.51315 0.0
H160 H 0.94631 0.28402 0.55802 0.0
H161 H 0.99683 0.35639 0.56234 0.0
H162 H 0.86834 0.26541 0.31952 0.0
H163 H 0.83442 0.27896 0.41062 0.0
H164 H 0.98275 0.37229 0.34998 0.0
H165 H 0.01856 0.38052 0.45363 0.0
H166 H 0.0185 0.40403 0.32308 0.0
H167 H 0.05379 0.4122 0.4248 0.0
H168 H 0.93744 0.3525 0.29091 0.0
H169 H 0.91062 0.35572 0.39853 0.0
H170 H 0.9132 0.36665 0.26203 0.0
H171 H 0.88693 0.36978 0.36782 0.0
H172 H 0.96107 0.31153 0.25227 0.0
H173 H 0.02438 0.33334 0.31306 0.0
H174 H 0.96936 0.43407 0.47375 0.0
H175 H 0.98005 0.43928 0.35415 0.0
Li176 Li 0.62374 0.95344 0.77341 0.0
Li177 Li 0.60446 0.92425 0.72704 0.0
Li178 Li 0.62957 0.96336 0.70755 0.0
Li179 Li 0.59062 0.95102 0.73541 0.0
C180 C 0.65704 0.9445 0.74869 0.0
N181 N 0.69653 0.94682 0.77644 0.0
C182 C 0.65686 0.92448 0.7599 0.0
C183 C 0.67735 0.96566 0.75118 0.0
C184 C 0.67699 0.92602 0.77396 0.0
C185 C 0.69712 0.96649 0.76541 0.0
C186 C 0.57554 0.90819 0.78725 0.0
C187 C 0.53672 0.87728 0.79658 0.0
N188 N 0.54488 0.86588 0.81721 0.0
C189 C 0.58355 0.89626 0.80869 0.0
C190 C 0.55195 0.89872 0.78121 0.0
C191 C 0.56777 0.87485 0.82352 0.0
C192 C 0.64049 0.98084 0.83666 0.0
N193 N 0.63786 0.96131 0.82089 0.0
C194 C 0.65478 0.95405 0.87404 0.0
C195 C 0.64461 0.94783 0.83883 0.0
C196 C 0.65759 0.97409 0.89121 0.0
C197 C 0.65029 0.98756 0.87196 0.0
H198 H 0.63455 0.99099 0.82209 0.0
H199 H 0.64187 0.93211 0.8261 0.0
C200 C 0.61488 0.89609 0.68889 0.0
N201 N 0.59787 0.89441 0.71147 0.0
C202 C 0.6148 0.8765 0.67642 0.0
C203 C 0.57901 0.85338 0.70923 0.0
C204 C 0.57966 0.87361 0.72078 0.0
C205 C 0.59713 0.85477 0.68757 0.0
H206 H 0.62884 0.91283 0.68105 0.0
H207 H 0.56587 0.87256 0.73761 0.0
C208 C 0.63275 0.0015 0.74109 0.0
N209 N 0.65602 0.04814 0.72683 0.0
C210 C 0.62108 0.01201 0.72608 0.0
C211 C 0.65617 0.01474 0.7493 0.0
C212 C 0.63317 0.03561 0.71896 0.0
C213 C 0.66765 0.03828 0.74174 0.0
C214 C 0.58683 0.92517 0.66219 0.0
C215 C 0.59822 0.9238 0.63051 0.0
C216 C 0.56369 0.90893 0.66783 0.0
C217 C 0.58625 0.90595 0.60506 0.0
C218 C 0.55234 0.89134 0.64174 0.0
N219 N 0.56376 0.89021 0.61118 0.0
C220 C 0.66373 0.97179 0.65651 0.0
C221 C 0.6497 0.99782 0.65134 0.0
C222 C 0.67613 0.98003 0.62349 0.0
N223 N 0.65052 0.98043 0.66929 0.0
C224 C 0.66207 0.00679 0.61839 0.0
C225 C 0.67482 0.99728 0.60352 0.0
H226 H 0.66346 0.95745 0.67063 0.0
H227 H 0.63833 0.00371 0.66111 0.0
C228 C 0.55697 0.95872 0.76818 0.0
N229 N 0.56577 0.95663 0.73525 0.0
C230 C 0.53977 0.96463 0.76851 0.0
C231 C 0.54094 0.96583 0.70102 0.0
C232 C 0.55807 0.95986 0.70201 0.0
C233 C 0.5317 0.96851 0.7346 0.0
H234 H 0.56358 0.95613 0.79416 0.0
H235 H 0.56566 0.95834 0.6763 0.0
O236 O 0.6375 0.94331 0.73478 0.0
O237 O 0.59064 0.92933 0.77307 0.0
O238 O 0.6212 0.97843 0.74829 0.0
O239 O 0.59839 0.94212 0.68792 0.0
H240 H 0.64126 0.90795 0.7582 0.0
H241 H 0.67786 0.98124 0.74208 0.0
H242 H 0.67707 0.9107 0.78297 0.0
H243 H 0.71295 0.98276 0.76761 0.0
H244 H 0.51841 0.86969 0.79209 0.0
H245 H 0.60176 0.90338 0.81358 0.0
H246 H 0.54549 0.90783 0.76483 0.0
H247 H 0.57371 0.86535 0.84003 0.0
H248 H 0.66021 0.94317 0.88772 0.0
H249 H 0.65146 0.00279 0.88442 0.0
H250 H 0.62874 0.87839 0.65876 0.0
H251 H 0.56496 0.83695 0.71824 0.0
H252 H 0.60292 0.00204 0.71979 0.0
H253 H 0.66535 0.00693 0.7615 0.0
H254 H 0.6244 0.04396 0.70716 0.0
H255 H 0.6858 0.04873 0.74782 0.0
H256 H 0.61615 0.93625 0.62582 0.0
H257 H 0.5547 0.90977 0.69231 0.0
H258 H 0.59486 0.90457 0.58051 0.0
H259 H 0.53446 0.87854 0.64584 0.0
H260 H 0.68564 0.97218 0.61262 0.0
H261 H 0.66024 0.01974 0.60325 0.0
H262 H 0.53293 0.96623 0.79501 0.0
H263 H 0.53549 0.96897 0.67429 0.0
Li264 Li 0.67131 0.62161 0.09807 0.0
Li265 Li 0.6834 0.59916 0.06282 0.0
Li266 Li 0.67958 0.62924 0.03164 0.0
Li267 Li 0.64601 0.59356 0.05116 0.0
C268 C 0.71495 0.65595 0.07996 0.0
N269 N 0.74265 0.70239 0.09381 0.0
C270 C 0.73864 0.66534 0.08458 0.0
C271 C 0.70536 0.67022 0.08227 0.0
C272 C 0.75235 0.68885 0.0916 0.0
C273 C 0.71965 0.69363 0.08932 0.0
C274 C 0.6616 0.57268 0.11729 0.0
C275 C 0.65518 0.53434 0.12613 0.0
N276 N 0.67117 0.54223 0.15385 0.0
C277 C 0.67786 0.5804 0.14598 0.0
C278 C 0.65007 0.54947 0.10734 0.0
C279 C 0.6825 0.56474 0.16409 0.0
C280 C 0.64958 0.63085 0.15426 0.0
N281 N 0.67037 0.63354 0.14505 0.0
C282 C 0.68528 0.64856 0.20548 0.0
C283 C 0.68827 0.64248 0.16946 0.0
C284 C 0.66369 0.64529 0.21615 0.0
C285 C 0.64589 0.63685 0.18966 0.0
H286 H 0.63561 0.62328 0.13439 0.0
H287 H 0.70454 0.6441 0.16141 0.0
C288 C 0.69728 0.56675 0.04322 0.0
N289 N 0.70245 0.5857 0.06385 0.0
C290 C 0.7134 0.55957 0.039 0.0
C291 C 0.73934 0.59083 0.07901 0.0
C292 C 0.7227 0.59735 0.0825 0.0
C293 C 0.73507 0.57215 0.05601 0.0
H294 H 0.68108 0.55775 0.02873 0.0
H295 H 0.72633 0.61236 0.09871 0.0
C296 C 0.63752 0.6299 0.03908 0.0
N297 N 0.60737 0.63821 -0.00141 0.0
C298 C 0.63453 0.62516 0.00088 0.0
C299 C 0.62525 0.639 0.05667 0.0
C300 C 0.61921 0.62945 0.98089 0.0
C301 C 0.61006 0.64305 0.03573 0.0
C302 C 0.65826 0.58309 0.98504 0.0
C303 C 0.6593 0.59161 0.94905 0.0
C304 C 0.64553 0.55941 0.99139 0.0
C305 C 0.64745 0.57631 0.92006 0.0
C306 C 0.63392 0.54466 0.96167 0.0
N307 N 0.63511 0.55334 0.92692 0.0
C308 C 0.70901 0.65019 0.9728 0.0
C309 C 0.68648 0.66744 0.98625 0.0
C310 C 0.71724 0.66306 0.9402 0.0
N311 N 0.69315 0.65183 0.99401 0.0
C312 C 0.69391 0.68036 0.95349 0.0
C313 C 0.70869 0.67744 0.92908 0.0
H314 H 0.71428 0.63789 0.9802 0.0
H315 H 0.67439 0.66893 0.00427 0.0
C316 C 0.60232 0.56125 0.0742 0.0
N317 N 0.61417 0.57209 0.04285 0.0
C318 C 0.57866 0.54624 0.07272 0.0
C319 C 0.57966 0.55372 0.00657 0.0
C320 C 0.60336 0.56862 0.00934 0.0
C321 C 0.56698 0.54238 0.03862 0.0
H322 H 0.61121 0.56464 0.10064 0.0
H323 H 0.61299 0.57752 0.98475 0.0
O324 O 0.70141 0.63294 0.07296 0.0
O325 O 0.65731 0.58787 0.09856 0.0
O326 O 0.65237 0.62573 0.05928 0.0
O327 O 0.66981 0.59787 0.01373 0.0
H328 H 0.74638 0.65459 0.0827 0.0
H329 H 0.68712 0.66339 0.07873 0.0
H330 H 0.77071 0.69633 0.09526 0.0
H331 H 0.71245 0.70485 0.09122 0.0
H332 H 0.64647 0.51634 0.11865 0.0
H333 H 0.68703 0.59835 0.15383 0.0
H334 H 0.63737 0.54321 0.08528 0.0
H335 H 0.69516 0.57049 0.18619 0.0
H336 H 0.69937 0.65475 0.22519 0.0
H337 H 0.62908 0.63435 0.19652 0.0
H338 H 0.70928 0.54488 0.02147 0.0
H339 H 0.75587 0.6012 0.09234 0.0
H340 H 0.64407 0.6184 0.98677 0.0
H341 H 0.62747 0.643 0.08615 0.0
H342 H 0.61675 0.62583 0.9513 0.0
H343 H 0.60044 0.65007 0.04901 0.0
H344 H 0.66909 0.60987 0.94353 0.0
H345 H 0.64424 0.55253 0.01912 0.0
H346 H 0.64806 0.58268 0.89211 0.0
H347 H 0.62388 0.52632 0.96628 0.0
H348 H 0.72912 0.66075 0.92283 0.0
H349 H 0.68682 0.6912 0.94619 0.0
H350 H 0.56954 0.53822 0.09826 0.0
H351 H 0.57135 0.55111 0.97967 0.0
Li352 Li 0.07735 0.69142 0.39957 0.0
Li353 Li 0.04567 0.68168 0.44263 0.0
Li354 Li 0.04396 0.65258 0.39983 0.0
Li355 Li 0.04 0.68483 0.37692 0.0
C356 C 0.08102 0.66012 0.4468 0.0
N357 N 0.11057 0.64328 0.45834 0.0
C358 C 0.08945 0.66035 0.48256 0.0
C359 C 0.08754 0.65125 0.41696 0.0
C360 C 0.1044 0.65178 0.48782 0.0
C361 C 0.10251 0.64283 0.42333 0.0
C362 C 0.05374 0.72418 0.41859 0.0
C363 C 0.02218 0.73065 0.43161 0.0
N364 N 0.03725 0.75359 0.43431 0.0
C365 C 0.06891 0.7478 0.42145 0.0
C366 C 0.03017 0.7155 0.42368 0.0
C367 C 0.06024 0.7624 0.42943 0.0
C368 C 0.11341 0.72128 0.3562 0.0
N369 N 0.10905 0.70965 0.38893 0.0
C370 C 0.14926 0.72613 0.40082 0.0
C371 C 0.12635 0.71177 0.41136 0.0
C372 C 0.15424 0.73835 0.36701 0.0
C373 C 0.13592 0.7357 0.34458 0.0
H374 H 0.09926 0.71941 0.3392 0.0
H375 H 0.12243 0.70256 0.43752 0.0
C376 C 0.018 0.66766 0.50537 0.0
N377 N 0.03754 0.68551 0.49129 0.0
C378 C 0.0114 0.66837 0.54197 0.0
C379 C 0.04512 0.70597 0.54886 0.0
C380 C 0.05104 0.70456 0.51193 0.0
C381 C 0.02515 0.68759 0.56437 0.0
H382 H 0.00786 0.6526 0.4884 0.0
H383 H 0.06658 0.71842 0.49994 0.0
C384 C 0.06335 0.66786 0.32217 0.0
N385 N 0.07201 0.65842 0.25078 0.0
C386 C 0.04702 0.66228 0.29388 0.0
C387 C 0.08414 0.66872 0.31399 0.0
C388 C 0.05172 0.65756 0.25802 0.0
C389 C 0.08816 0.66384 0.27779 0.0
C390 C 0.99822 0.64501 0.39653 0.0
C391 C 0.99669 0.63344 0.36332 0.0
C392 C 0.97814 0.64141 0.41423 0.0
C393 C 0.97508 0.61843 0.34829 0.0
C394 C 0.95683 0.62627 0.39832 0.0
N395 N 0.95575 0.61519 0.36596 0.0
C396 C 0.02465 0.60801 0.42687 0.0
C397 C 0.03499 0.61095 0.36297 0.0
C398 C 0.01608 0.58435 0.4263 0.0
N399 N 0.03377 0.62072 0.39549 0.0
C400 C 0.02645 0.5873 0.36106 0.0
C401 C 0.01679 0.5737 0.393 0.0
H402 H 0.02388 0.61632 0.45227 0.0
H403 H 0.04235 0.62142 0.33843 0.0
C404 C 0.04469 0.71103 0.31565 0.0
N405 N 0.02811 0.69508 0.33812 0.0
C406 C 0.03895 0.71605 0.28093 0.0
C407 C 0.99893 0.68962 0.29456 0.0
C408 C 0.00546 0.68528 0.32926 0.0
C409 C 0.01592 0.70433 0.26918 0.0
H410 H 0.06255 0.71863 0.32364 0.0
H411 H 0.99253 0.67298 0.34783 0.0
O412 O 0.06644 0.66855 0.44132 0.0
O413 O 0.06209 0.70975 0.41091 0.0
O414 O 0.05926 0.67297 0.3574 0.0
O415 O 0.01917 0.65977 0.4119 0.0
H416 H 0.08452 0.66714 0.50598 0.0
H417 H 0.08104 0.65077 0.38924 0.0
H418 H 0.1111 0.6519 0.51533 0.0
H419 H 0.10769 0.63591 0.40046 0.0
H420 H 0.004 0.72417 0.43564 0.0
H421 H 0.0872 0.75477 0.41757 0.0
H422 H 0.01814 0.69729 0.42157 0.0
H423 H 0.07178 0.78072 0.43175 0.0
H424 H 0.1629 0.72772 0.41893 0.0
H425 H 0.13892 0.74518 0.31877 0.0
H426 H 0.99615 0.65363 0.55301 0.0
H427 H 0.05615 0.72111 0.5652 0.0
H428 H 0.0309 0.66165 0.29935 0.0
H429 H 0.09713 0.67323 0.33525 0.0
H430 H 0.03924 0.65327 0.23591 0.0
H431 H 0.10417 0.66445 0.27113 0.0
H432 H 0.012 0.63609 0.34919 0.0
H433 H 0.97901 0.65031 0.4399 0.0
H434 H 0.97367 0.6094 0.32256 0.0
H435 H 0.94114 0.62335 0.41169 0.0
H436 H 0.00857 0.57443 0.45143 0.0
H437 H 0.02753 0.57975 0.33496 0.0
H438 H 0.05255 0.72788 0.26257 0.0
H439 H 0.98097 0.68017 0.2867 0.0
Li440 Li 0.38544 0.07652 0.74253 0.0
Li441 Li 0.36081 0.04403 0.77982 0.0
Li442 Li 0.39565 0.04647 0.74814 0.0
Li443 Li 0.36057 0.04027 0.7139 0.0
C444 C 0.40974 0.08547 0.80674 0.0
N445 N 0.44116 0.12461 0.84431 0.0
C446 C 0.40249 0.09911 0.82508 0.0
C447 C 0.43296 0.09171 0.80755 0.0
C448 C 0.41865 0.11885 0.84387 0.0
C449 C 0.44858 0.11156 0.82671 0.0
C450 C 0.33506 0.06137 0.76153 0.0
C451 C 0.29665 0.04442 0.7866 0.0
N452 N 0.30184 0.0651 0.80141 0.0
C453 C 0.34001 0.08246 0.77703 0.0
C454 C 0.3132 0.04219 0.7663 0.0
C455 C 0.32297 0.08399 0.79706 0.0
C456 C 0.38362 0.11206 0.7088 0.0
N457 N 0.39762 0.10846 0.73178 0.0
C458 C 0.42608 0.14838 0.72943 0.0
C459 C 0.41873 0.126 0.74177 0.0
C460 C 0.41179 0.15233 0.70584 0.0
C461 C 0.3904 0.13396 0.6954 0.0
H462 H 0.36727 0.09773 0.70027 0.0
H463 H 0.43015 0.1227 0.75839 0.0
C464 C 0.33458 0.01016 0.83241 0.0
N465 N 0.34341 0.03282 0.82458 0.0
C466 C 0.32402 0.00128 0.86667 0.0
C467 C 0.33109 0.03907 0.88378 0.0
C468 C 0.34161 0.04723 0.84921 0.0
C469 C 0.32268 0.01593 0.89326 0.0
H470 H 0.33665 0.99915 0.81275 0.0
H471 H 0.34892 0.0652 0.84261 0.0
C472 C 0.40915 0.07914 0.68199 0.0
N473 N 0.44065 0.11707 0.64208 0.0
C474 C 0.40213 0.08635 0.65055 0.0
C475 C 0.43219 0.09109 0.69302 0.0
C476 C 0.41832 0.10561 0.63079 0.0
C477 C 0.44786 0.11025 0.67247 0.0
C478 C 0.35138 -0.00024 0.73232 0.0
C479 C 0.36308 0.99163 0.71055 0.0
C480 C 0.32735 0.98765 0.73313 0.0
C481 C 0.35051 0.97153 0.68975 0.0
C482 C 0.31541 0.96763 0.71192 0.0
N483 N 0.32714 0.96006 0.69083 0.0
C484 C 0.42441 0.03327 0.78453 0.0
C485 C 0.42877 0.0368 0.71875 0.0
C486 C 0.44067 0.02615 0.78694 0.0
N487 N 0.41884 0.0384 0.75081 0.0
C488 C 0.44498 0.0296 0.71982 0.0
C489 C 0.45103 0.02405 0.75424 0.0
H490 H 0.41601 0.0345 0.80949 0.0
H491 H 0.4238 0.0408 0.6923 0.0
C492 C 0.32096 0.02049 0.66632 0.0
N493 N 0.3435 0.02671 0.67007 0.0
C494 C 0.30981 0.0122 0.63212 0.0
C495 C 0.34535 0.01701 0.60674 0.0
C496 C 0.35566 0.02484 0.64138 0.0
C497 C 0.32226 0.01088 0.60174 0.0
H498 H 0.31178 0.02233 0.68956 0.0
H499 H 0.37354 0.02988 0.6453 0.0
O500 O 0.39417 0.0659 0.78866 0.0
O501 O 0.3515 0.0595 0.74179 0.0
O502 O 0.39343 0.0608 0.70241 0.0
O503 O 0.36336 0.0198 0.75192 0.0
H504 H 0.38467 0.09472 0.82434 0.0
H505 H 0.43889 0.08142 0.79341 0.0
H506 H 0.4133 0.12963 0.85802 0.0
H507 H 0.4666 0.11662 0.82752 0.0
H508 H 0.27971 0.02969 0.79068 0.0
H509 H 0.35688 0.09744 0.77407 0.0
H510 H 0.30914 0.02568 0.75497 0.0
H511 H 0.3266 0.10018 0.80931 0.0
H512 H 0.44281 0.16231 0.73762 0.0
H513 H 0.37905 0.13657 0.6771 0.0
H514 H 0.3182 0.98345 0.87304 0.0
H515 H 0.33027 0.05091 0.90338 0.0
H516 H 0.38431 0.07735 0.64183 0.0
H517 H 0.43784 0.08584 0.71751 0.0
H518 H 0.41312 0.11151 0.60657 0.0
H519 H 0.46572 0.11977 0.68081 0.0
H520 H 0.38165 0.00084 0.70945 0.0
H521 H 0.31802 0.99381 0.74958 0.0
H522 H 0.35934 0.9651 0.67265 0.0
H523 H 0.29681 0.95817 0.71209 0.0
H524 H 0.44468 0.02181 0.81396 0.0
H525 H 0.45272 0.02841 0.69402 0.0
H526 H 0.29196 0.00759 0.6291 0.0
H527 H 0.35536 0.01589 0.58396 0.0
Li528 Li 0.63754 0.6731 0.61584 0.0
Li529 Li 0.60201 0.64401 0.58938 0.0
Li530 Li 0.63115 0.67281 0.55048 0.0
Li531 Li 0.61004 0.68282 0.59286 0.0
C532 C 0.63562 0.63213 0.59715 0.0
N533 N 0.64046 0.59802 0.63179 0.0
C534 C 0.62845 0.62599 0.63411 0.0
C535 C 0.64527 0.62092 0.57786 0.0
C536 C 0.63105 0.60872 0.65111 0.0
C537 C 0.64757 0.60372 0.59585 0.0
C538 C 0.58522 0.65486 0.65166 0.0
C539 C 0.54465 0.64173 0.64763 0.0
N540 N 0.54315 0.64014 0.68549 0.0
C541 C 0.58328 0.65311 0.69051 0.0
C542 C 0.56576 0.64913 0.62999 0.0
C543 C 0.56187 0.64563 0.70709 0.0
C544 C 0.65515 0.68821 0.68622 0.0
N545 N 0.65923 0.67999 0.65427 0.0
C546 C 0.69072 0.67859 0.68243 0.0
C547 C 0.67693 0.67571 0.65142 0.0
C548 C 0.68615 0.68593 0.71647 0.0
C549 C 0.66846 0.69134 0.71783 0.0
H550 H 0.64091 0.69143 0.68751 0.0
H551 H 0.6798 0.66923 0.62555 0.0
C552 C 0.57274 0.60235 0.55574 0.0
N553 N 0.57935 0.61249 0.58976 0.0
C554 C 0.55736 0.57882 0.55297 0.0
C555 C 0.5557 0.57666 0.62039 0.0
C556 C 0.57114 0.60026 0.62185 0.0
C557 C 0.54878 0.56562 0.58558 0.0
H558 H 0.57974 0.61256 0.53075 0.0
H559 H 0.57696 0.60869 0.64857 0.0
C560 C 0.66696 0.71329 0.57908 0.0
N561 N 0.71381 0.74082 0.569 0.0
C562 C 0.6774 0.73705 0.58384 0.0
C563 C 0.68034 0.70351 0.56918 0.0
C564 C 0.70111 0.75069 0.57862 0.0
C565 C 0.704 0.71772 0.56422 0.0
C566 C 0.59286 0.6721 0.52047 0.0
C567 C 0.60701 0.69557 0.51347 0.0
C568 C 0.57391 0.65906 0.49745 0.0
C569 C 0.60193 0.70561 0.48353 0.0
C570 C 0.5694 0.66974 0.46779 0.0
N571 N 0.58339 0.6926 0.4615 0.0
C572 C 0.63991 0.65619 0.48728 0.0
C573 C 0.65484 0.69643 0.48306 0.0
C574 C 0.64653 0.65548 0.4508 0.0
N575 N 0.64388 0.67634 0.50241 0.0
C576 C 0.66165 0.69649 0.44614 0.0
C577 C 0.65704 0.67569 0.42941 0.0
H578 H 0.63107 0.64052 0.50341 0.0
H579 H 0.65771 0.71222 0.49588 0.0
C580 C 0.60959 0.71572 0.63508 0.0
N581 N 0.59868 0.70272 0.60478 0.0
C582 C 0.60472 0.73244 0.64739 0.0
C583 C 0.57694 0.7218 0.59752 0.0
C584 C 0.58208 0.70487 0.58654 0.0
C585 C 0.58876 0.73621 0.62784 0.0
H586 H 0.62239 0.71325 0.64936 0.0
H587 H 0.57318 0.69389 0.56308 0.0
O588 O 0.63332 0.64899 0.57966 0.0
O589 O 0.60616 0.66219 0.63526 0.0
O590 O 0.64375 0.69985 0.58424 0.0
O591 O 0.59754 0.66168 0.54926 0.0
H592 H 0.62104 0.63448 0.64964 0.0
H593 H 0.65096 0.62549 0.54927 0.0
H594 H 0.62558 0.60382 0.67969 0.0
H595 H 0.655 0.5949 0.58123 0.0
H596 H 0.52945 0.63724 0.63122 0.0
H597 H 0.59819 0.65747 0.70765 0.0
H598 H 0.56684 0.65035 0.59992 0.0
H599 H 0.56012 0.64418 0.73713 0.0
H600 H 0.70428 0.67437 0.68017 0.0
H601 H 0.66404 0.69664 0.74359 0.0
H602 H 0.55227 0.57105 0.52559 0.0
H603 H 0.54973 0.56707 0.6462 0.0
H604 H 0.66726 0.74487 0.59153 0.0
H605 H 0.67263 0.68518 0.56529 0.0
H606 H 0.70942 0.76911 0.58222 0.0
H607 H 0.71456 0.71039 0.55656 0.0
H608 H 0.62169 0.706 0.53101 0.0
H609 H 0.56283 0.64086 0.50245 0.0
H610 H 0.61273 0.72375 0.47783 0.0
H611 H 0.55479 0.65985 0.44975 0.0
H612 H 0.64305 0.63916 0.43921 0.0
H613 H 0.66961 0.71241 0.4305 0.0
H614 H 0.61373 0.7426 0.67161 0.0
H615 H 0.56448 0.72406 0.58168 0.0
Li616 Li 0.95002 0.59277 0.9219 0.0
Li617 Li 0.95601 0.62745 0.9514 0.0
Li618 Li 0.91879 0.60009 0.928 0.0
Li619 Li 0.94951 0.62249 0.88565 0.0
C620 C 0.92269 0.57433 0.98443 0.0
N621 N 0.89579 0.53164 0.01652 0.0
C622 C 0.92191 0.57189 0.02322 0.0
C623 C 0.90978 0.55506 0.96194 0.0
C624 C 0.90821 0.55016 0.03892 0.0
C625 C 0.89629 0.53363 0.97871 0.0
C626 C 0.99544 0.62677 0.9297 0.0
C627 C 0.0357 0.63845 0.92607 0.0
N628 N 0.03494 0.63135 0.96186 0.0
C629 C 0.99508 0.61962 0.96647 0.0
C630 C 0.01591 0.63629 0.90933 0.0
C631 C 0.01522 0.62207 0.98222 0.0
C632 C 0.96141 0.56274 0.88662 0.0
N633 N 0.9593 0.57034 0.92071 0.0
C634 C 0.9734 0.54805 0.95066 0.0
C635 C 0.96487 0.56318 0.95251 0.0
C636 C 0.97614 0.54015 0.91575 0.0
C637 C 0.96975 0.5475 0.88347 0.0
H638 H 0.95693 0.56884 0.86182 0.0
H639 H 0.96319 0.56961 0.97928 0.0
C640 C 0.95694 0.64319 0.02243 0.0
N641 N 0.97018 0.64812 0.99141 0.0
C642 C 0.966 0.65586 0.05498 0.0
C643 C 0.00197 0.67914 0.02256 0.0
C644 C 0.99215 0.66597 0.99051 0.0
C645 C 0.98895 0.67384 0.05556 0.0
H646 H 0.9395 0.62889 0.02214 0.0
H647 H 0.00225 0.66958 0.96531 0.0
C648 C 0.91201 0.58469 0.85465 0.0
N649 N 0.88121 0.57626 0.79736 0.0
C650 C 0.90147 0.59803 0.85108 0.0
C651 C 0.90687 0.56706 0.82909 0.0
C652 C 0.88595 0.59351 0.82193 0.0
C653 C 0.89125 0.56306 0.80032 0.0
C654 C 0.94435 0.65715 0.91806 0.0
C655 C 0.93055 0.66703 0.92355 0.0
C656 C 0.96757 0.67115 0.90904 0.0
C657 C 0.94021 0.69079 0.91991 0.0
C658 C 0.97659 0.69484 0.90566 0.0
N659 N 0.96284 0.70409 0.91112 0.0
C660 C 0.88426 0.60022 0.96733 0.0
C661 C 0.86954 0.56865 0.92549 0.0
C662 C 0.86225 0.59356 0.98012 0.0
N663 N 0.88747 0.5879 0.9404 0.0
C664 C 0.84708 0.56144 0.93729 0.0
C665 C 0.84329 0.574 0.96498 0.0
H666 H 0.89893 0.61536 0.97875 0.0
H667 H 0.87265 0.55895 0.90451 0.0
C668 C 0.9749 0.63512 0.82079 0.0
N669 N 0.95799 0.63693 0.83841 0.0
C670 C 0.98214 0.64445 0.78533 0.0
C671 C 0.95436 0.65737 0.78671 0.0
C672 C 0.94773 0.64786 0.82237 0.0
C673 C 0.97176 0.65564 0.76775 0.0
H674 H 0.98251 0.62607 0.83415 0.0
H675 H 0.93427 0.64901 0.83706 0.0
O676 O 0.93601 0.59558 0.96886 0.0
O677 O 0.97598 0.62454 0.91342 0.0
O678 O 0.9274 0.58876 0.88275 0.0
O679 O 0.93498 0.63389 0.92164 0.0
H680 H 0.93182 0.58664 0.041 0.0
H681 H 0.91014 0.55655 0.93189 0.0
H682 H 0.90745 0.54802 0.06891 0.0
H683 H 0.88622 0.51858 0.96165 0.0
H684 H 0.05165 0.64578 0.91061 0.0
H685 H 0.97948 0.61228 0.9828 0.0
H686 H 0.01651 0.64196 0.88086 0.0
H687 H 0.01517 0.6166 0.01064 0.0
H688 H 0.9784 0.54314 0.97625 0.0
H689 H 0.97124 0.54161 0.85603 0.0
H690 H 0.95545 0.65089 0.07988 0.0
H691 H 0.01966 0.69297 0.02177 0.0
H692 H 0.90512 0.6117 0.87058 0.0
H693 H 0.91489 0.55657 0.83147 0.0
H694 H 0.87768 0.6037 0.81885 0.0
H695 H 0.88712 0.54947 0.78034 0.0
H696 H 0.91254 0.65641 0.93056 0.0
H697 H 0.97855 0.66388 0.90459 0.0
H698 H 0.92973 0.69866 0.92408 0.0
H699 H 0.99453 0.70587 0.89868 0.0
H700 H 0.86005 0.60394 0.00106 0.0
H701 H 0.83288 0.5462 0.92509 0.0
H702 H 0.99529 0.64234 0.77141 0.0
H703 H 0.94598 0.66591 0.77411 0.0
Li704 Li 0.32099 0.94927 0.28537 0.0
Li705 Li 0.35302 0.94883 0.25798 0.0
Li706 Li 0.32419 0.94921 0.21673 0.0
Li707 Li 0.31649 0.91509 0.2548 0.0
C708 C 0.36299 0.99304 0.26424 0.0
N709 N 0.40145 0.03329 0.28653 0.0
C710 C 0.36754 0.99815 0.3022 0.0
C711 C 0.37799 0.00846 0.23764 0.0
C712 C 0.38706 0.01858 0.3129 0.0
C713 C 0.39736 0.02869 0.24946 0.0
C714 C 0.34972 0.92913 0.32339 0.0
C715 C 0.37754 0.91721 0.33575 0.0
N716 N 0.38222 0.92804 0.36937 0.0
C717 C 0.35478 0.94011 0.35811 0.0
C718 C 0.36114 0.91753 0.31216 0.0
C719 C 0.37127 0.93936 0.38093 0.0
C720 C 0.30367 0.94697 0.35686 0.0
N721 N 0.31032 0.95981 0.32527 0.0
C722 C 0.30766 0.99005 0.35535 0.0
C723 C 0.31144 0.98054 0.32338 0.0
C724 C 0.30282 0.97807 0.38938 0.0
C725 C 0.29987 0.95583 0.38949 0.0
H726 H 0.30273 0.93042 0.35725 0.0
H727 H 0.31656 0.99022 0.2976 0.0
C728 C 0.39612 0.96025 0.22834 0.0
N729 N 0.38566 0.96142 0.26007 0.0
C730 C 0.42002 0.97045 0.2268 0.0
C731 C 0.42197 0.98275 0.29072 0.0
C732 C 0.39809 0.97242 0.29095 0.0
C733 C 0.43329 0.98201 0.25825 0.0
H734 H 0.3859 0.95175 0.20394 0.0
H735 H 0.38956 0.97349 0.31573 0.0
C736 C 0.27805 0.92765 0.26457 0.0
N737 N 0.24076 0.92519 0.3014 0.0
C738 C 0.26546 0.90981 0.28975 0.0
C739 C 0.27172 0.94426 0.25812 0.0
C740 C 0.24664 0.90886 0.30808 0.0
C741 C 0.2528 0.94271 0.27703 0.0
C742 C 0.33329 0.91129 0.19126 0.0
C743 C 0.31672 0.90514 0.16328 0.0
C744 C 0.34356 0.8979 0.1973 0.0
C745 C 0.31056 0.88551 0.14193 0.0
C746 C 0.33692 0.87839 0.17536 0.0
N747 N 0.32069 0.87264 0.14837 0.0
C748 C 0.34032 0.97344 0.15196 0.0
C749 C 0.30001 0.95756 0.15833 0.0
C750 C 0.34027 0.98406 0.11867 0.0
N751 N 0.32049 0.96085 0.17122 0.0
C752 C 0.29911 0.96771 0.12474 0.0
C753 C 0.31953 0.98142 0.10486 0.0
H754 H 0.35619 0.97524 0.16264 0.0
H755 H 0.28446 0.94716 0.17411 0.0
C756 C 0.30293 0.87099 0.28384 0.0
N757 N 0.29867 0.88259 0.25687 0.0
C758 C 0.287 0.84802 0.29114 0.0
C759 C 0.26312 0.84909 0.24156 0.0
C760 C 0.27956 0.87203 0.23514 0.0
C761 C 0.26636 0.83705 0.27082 0.0
H762 H 0.31796 0.87986 0.30126 0.0
H763 H 0.27636 0.88186 0.21451 0.0
O764 O 0.34401 0.97305 0.25316 0.0
O765 O 0.3336 0.92965 0.30065 0.0
O766 O 0.2969 0.92924 0.24713 0.0
O767 O 0.33919 0.93016 0.213 0.0
H768 H 0.35646 0.98625 0.32326 0.0
H769 H 0.37477 0.00487 0.20817 0.0
H770 H 0.39085 0.02265 0.34218 0.0
H771 H 0.40914 0.04074 0.22916 0.0
H772 H 0.38658 0.9084 0.3273 0.0
H773 H 0.34631 0.94934 0.36721 0.0
H774 H 0.35754 0.90908 0.28531 0.0
H775 H 0.37543 0.94786 0.40778 0.0
H776 H 0.30974 0.00709 0.35391 0.0
H777 H 0.2964 0.94603 0.41504 0.0
H778 H 0.42802 0.96974 0.20098 0.0
H779 H 0.43145 0.99121 0.31579 0.0
H780 H 0.27032 0.89699 0.29544 0.0
H781 H 0.28152 0.95838 0.23916 0.0
H782 H 0.23677 0.89519 0.32774 0.0
H783 H 0.24775 0.95549 0.27246 0.0
H784 H 0.30851 0.91525 0.1584 0.0
H785 H 0.3565 0.90251 0.21872 0.0
H786 H 0.29767 0.88046 0.12031 0.0
H787 H 0.34467 0.86781 0.17978 0.0
H788 H 0.35627 0.99404 0.10365 0.0
H789 H 0.28279 0.96519 0.11472 0.0
H790 H 0.29025 0.83931 0.31374 0.0
H791 H 0.24731 0.84144 0.22558 0.0
Li792 Li 0.36053 0.32587 0.61582 0.0
Li793 Li 0.39928 0.35471 0.59046 0.0
Li794 Li 0.36825 0.32268 0.55139 0.0
Li795 Li 0.38804 0.31446 0.59856 0.0
C796 C 0.3548 0.35862 0.58434 0.0
N797 N 0.32765 0.37729 0.60304 0.0
C798 C 0.36484 0.38096 0.59849 0.0
C799 C 0.33099 0.34587 0.57928 0.0
C800 C 0.3508 0.39007 0.60788 0.0
C801 C 0.31755 0.35558 0.58903 0.0
C802 C 0.40222 0.33303 0.6654 0.0
C803 C 0.43666 0.33696 0.69335 0.0
N804 N 0.42379 0.32254 0.72129 0.0
C805 C 0.38933 0.31839 0.6945 0.0
C806 C 0.42608 0.34252 0.66484 0.0
C807 C 0.40057 0.31325 0.72246 0.0
C808 C 0.32129 0.30159 0.66213 0.0
N809 N 0.33928 0.32255 0.65303 0.0
C810 C 0.33178 0.33995 0.70499 0.0
C811 C 0.34466 0.34155 0.67359 0.0
C812 C 0.31359 0.31844 0.71593 0.0
C813 C 0.30814 0.2991 0.69389 0.0
H814 H 0.31786 0.28668 0.64579 0.0
H815 H 0.35967 0.35776 0.66659 0.0
C816 C 0.43093 0.39809 0.56081 0.0
N817 N 0.42235 0.38583 0.59273 0.0
C818 C 0.44665 0.42162 0.56253 0.0
C819 C 0.44445 0.41927 0.62993 0.0
C820 C 0.4288 0.39582 0.62689 0.0
C821 C 0.45343 0.43254 0.59746 0.0
H822 H 0.42519 0.38965 0.53405 0.0
H823 H 0.42142 0.38563 0.65177 0.0
C824 C 0.33918 0.27939 0.56937 0.0
N825 N 0.30791 0.24195 0.52824 0.0
C826 C 0.3449 0.2632 0.55676 0.0
C827 C 0.31749 0.27645 0.5614 0.0
C828 C 0.32886 0.2444 0.53595 0.0
C829 C 0.30195 0.25744 0.54044 0.0
C830 C 0.41876 0.33003 0.54108 0.0
C831 C 0.41295 0.30932 0.52327 0.0
C832 C 0.44188 0.34672 0.54554 0.0
C833 C 0.43045 0.30557 0.51042 0.0
C834 C 0.45887 0.34232 0.53223 0.0
N835 N 0.45285 0.32201 0.51512 0.0
C836 C 0.34969 0.33197 0.48885 0.0
C837 C 0.35468 0.29976 0.48048 0.0
C838 C 0.34242 0.33046 0.45203 0.0
N839 N 0.35581 0.31687 0.50226 0.0
C840 C 0.34729 0.29747 0.44347 0.0
C841 C 0.34138 0.3132 0.4286 0.0
H842 H 0.35124 0.34575 0.50634 0.0
H843 H 0.36003 0.28821 0.49143 0.0
C844 C 0.38218 0.27652 0.63644 0.0
N845 N 0.39848 0.29437 0.61627 0.0
C846 C 0.38731 0.26121 0.65415 0.0
C847 C 0.42597 0.28257 0.62967 0.0
C848 C 0.42021 0.29785 0.61304 0.0
C849 C 0.4094 0.26414 0.65076 0.0
H850 H 0.36524 0.27449 0.63945 0.0
H851 H 0.43325 0.3127 0.59848 0.0
O852 O 0.36821 0.3493 0.57537 0.0
O853 O 0.39148 0.33769 0.63716 0.0
O854 O 0.35462 0.2979 0.58981 0.0
O855 O 0.40194 0.33419 0.55342 0.0
H856 H 0.38324 0.3911 0.60243 0.0
H857 H 0.323 0.32863 0.5681 0.0
H858 H 0.35832 0.40729 0.61906 0.0
H859 H 0.29909 0.34587 0.58547 0.0
H860 H 0.45509 0.34402 0.69315 0.0
H861 H 0.37083 0.31087 0.6952 0.0
H862 H 0.43624 0.35376 0.64232 0.0
H863 H 0.39081 0.30181 0.74503 0.0
H864 H 0.33691 0.35514 0.72183 0.0
H865 H 0.29439 0.28222 0.70181 0.0
H866 H 0.45292 0.43126 0.53682 0.0
H867 H 0.44939 0.42694 0.6574 0.0
H868 H 0.36163 0.26524 0.5626 0.0
H869 H 0.31274 0.28872 0.57125 0.0
H870 H 0.33309 0.2318 0.52581 0.0
H871 H 0.28514 0.255 0.5339 0.0
H872 H 0.39516 0.29619 0.51982 0.0
H873 H 0.44665 0.36284 0.55924 0.0
H874 H 0.42622 0.28957 0.49677 0.0
H875 H 0.47684 0.35505 0.53555 0.0
H876 H 0.33862 0.34334 0.44167 0.0
H877 H 0.34663 0.2838 0.42654 0.0
H878 H 0.37409 0.24708 0.67011 0.0
H879 H 0.44325 0.28538 0.62686 0.0
Li880 Li 0.04991 0.40008 0.9254 0.0
Li881 Li 0.04669 0.36516 0.95412 0.0
Li882 Li 0.08152 0.39295 0.9252 0.0
Li883 Li 0.04906 0.36979 0.88761 0.0
C884 C 0.08386 0.41596 0.9866 0.0
N885 N 0.12068 0.45291 0.02066 0.0
C886 C 0.09205 0.41312 0.0209 0.0
C887 C 0.09432 0.43761 0.96969 0.0
C888 C 0.11071 0.43201 0.03765 0.0
C889 C 0.11293 0.45607 0.98735 0.0
C890 C 0.00532 0.36499 0.93899 0.0
C891 C 0.96457 0.35116 0.94137 0.0
N892 N 0.96709 0.36012 0.97624 0.0
C893 C 0.00751 0.37405 0.97488 0.0
C894 C 0.98369 0.35346 0.92208 0.0
C895 C 0.98798 0.37141 0.99324 0.0
C896 C 0.03228 0.42679 0.8963 0.0
N897 N 0.03989 0.42183 0.92816 0.0
C898 C 0.0299 0.44556 0.96391 0.0
C899 C 0.03906 0.43098 0.96157 0.0
C900 C 0.02161 0.45079 0.93154 0.0
C901 C 0.0231 0.4414 0.89731 0.0
H902 H 0.03296 0.41902 0.87023 0.0
H903 H 0.04511 0.4266 0.98652 0.0
C904 C 0.05262 0.34676 0.01878 0.0
N905 N 0.03578 0.34492 -0.0044 0.0
C906 C 0.04708 0.336 0.05351 0.0
C907 C 0.00683 0.32015 0.03865 0.0
C908 C 0.01319 0.33098 0.00391 0.0
C909 C 0.02394 0.32341 0.0646 0.0
H910 H 0.07042 0.35747 0.0109 0.0
H911 H 7e-05 0.32914 0.98449 0.0
C912 C 0.08354 0.40802 0.85173 0.0
N913 N 0.10982 0.4165 0.78808 0.0
C914 C 0.09513 0.39591 0.84516 0.0
C915 C 0.08529 0.42441 0.82592 0.0
C916 C 0.10834 0.40046 0.81283 0.0
C917 C 0.09868 0.42846 0.79391 0.0
C918 C 0.05665 0.33594 0.91571 0.0
C919 C 0.07092 0.32635 0.91438 0.0
C920 C 0.03282 0.32166 0.91305 0.0
C921 C 0.06111 0.3026 0.91035 0.0
C922 C 0.02368 0.29799 0.90905 0.0
N923 N 0.03789 0.28903 0.90779 0.0
C924 C 0.11895 0.39497 0.9584 0.0
C925 C 0.13024 0.42561 0.91533 0.0
C926 C 0.14172 0.40286 0.96818 0.0
N927 N 0.11366 0.40633 0.93247 0.0
C928 C 0.15343 0.43385 0.9237 0.0
C929 C 0.15926 0.42242 0.9506 0.0
H930 H 0.10534 0.37978 0.97161 0.0
H931 H 0.12551 0.43455 0.89528 0.0
C932 C 0.02038 0.35602 0.82605 0.0
N933 N 0.0385 0.35512 0.84096 0.0
C934 C 0.01286 0.34786 0.79007 0.0
C935 C 0.04261 0.33766 0.78565 0.0
C936 C 0.04941 0.34581 0.82197 0.0
C937 C 0.02432 0.33895 0.76915 0.0
H938 H 0.01229 0.36382 0.84172 0.0
H939 H 0.06384 0.34539 0.83451 0.0
O940 O 0.06611 0.39755 0.96909 0.0
O941 O 0.02419 0.36763 0.92004 0.0
O942 O 0.0702 0.40371 0.88288 0.0
O943 O 0.0662 0.35921 0.91957 0.0
H944 H 0.08415 0.39651 0.0344 0.0
H945 H 0.08835 0.44004 0.94293 0.0
H946 H 0.11728 0.43005 0.06413 0.0
H947 H 0.12128 0.47288 0.97448 0.0
H948 H 0.94773 0.34227 0.9286 0.0
H949 H 0.02403 0.38287 0.98861 0.0
H950 H 0.98171 0.34636 0.8943 0.0
H951 H 0.98943 0.37831 0.02102 0.0
H952 H 0.02928 0.45264 0.99076 0.0
H953 H 0.01667 0.4448 0.87179 0.0
H954 H 0.06082 0.33843 0.07214 0.0
H955 H 0.98877 0.3106 0.04587 0.0
H956 H 0.09397 0.38313 0.86474 0.0
H957 H 0.07635 0.43385 0.83055 0.0
H958 H 0.11738 0.39121 0.80739 0.0
H959 H 0.10018 0.4411 0.77368 0.0
H960 H 0.0894 0.33719 0.91641 0.0
H961 H 0.02145 0.32868 0.91398 0.0
H962 H 0.07196 0.29495 0.90925 0.0
H963 H 0.00528 0.28675 0.90694 0.0
H964 H 0.14563 0.39344 0.98867 0.0
H965 H 0.16662 0.44898 0.90961 0.0
H966 H 0.99894 0.34952 0.77812 0.0
H967 H 0.05182 0.33085 0.77038 0.0
Li968 Li 0.6452 0.04868 0.24779 0.0
Li969 Li 0.67221 0.03785 0.27853 0.0
Li970 Li 0.68533 0.07652 0.25804 0.0
Li971 Li 0.67734 0.04739 0.21268 0.0
C972 C 0.66573 0.07511 0.32199 0.0
N973 N 0.67686 0.10982 0.3732 0.0
C974 C 0.67816 0.07642 0.35409 0.0
C975 C 0.65879 0.0913 0.31602 0.0
C976 C 0.68365 0.09413 0.37963 0.0
C977 C 0.66464 0.10876 0.34223 0.0
C978 C 0.63921 0.99907 0.24502 0.0
C979 C 0.63976 0.96352 0.24872 0.0
N980 N 0.61768 0.95271 0.26121 0.0
C981 C 0.61647 0.9876 0.25763 0.0
C982 C 0.65092 0.98694 0.24025 0.0
C983 C 0.6059 0.96416 0.26575 0.0
C984 C 0.60338 0.03336 0.21146 0.0
N985 N 0.61429 0.04125 0.24466 0.0
C986 C 0.57933 0.0337 0.27411 0.0
C987 C 0.60292 0.04178 0.27566 0.0
C988 C 0.56741 0.02483 0.24041 0.0
C989 C 0.57979 0.02501 0.20868 0.0
H990 H 0.61294 0.03296 0.18744 0.0
H991 H 0.61204 0.04778 0.30183 0.0
C992 C 0.69715 0.02911 0.33125 0.0
N993 N 0.67552 0.02111 0.31785 0.0
C994 C 0.70052 0.02098 0.3651 0.0
C995 C 0.6594 0.99554 0.36945 0.0
C996 C 0.65679 0.00447 0.33588 0.0
C997 C 0.68142 0.0044 0.38496 0.0
H998 H 0.71166 0.04288 0.31692 0.0
H999 H 0.63976 0.99918 0.32556 0.0
C1000 C 0.67237 0.09148 0.19668 0.0
N1001 N 0.68223 0.13327 0.16664 0.0
C1002 C 0.69265 0.10448 0.17651 0.0
C1003 C 0.657 0.0996 0.20139 0.0
C1004 C 0.69736 0.12561 0.16161 0.0
C1005 C 0.66232 0.1208 0.18601 0.0
C1006 C 0.71979 0.05941 0.23733 0.0
C1007 C 0.73787 0.08037 0.22468 0.0
C1008 C 0.72152 0.03957 0.23485 0.0
C1009 C 0.75732 0.08106 0.2093 0.0
C1010 C 0.74124 0.04098 0.21924 0.0
N1011 N 0.75858 0.06151 0.20688 0.0
C1012 C 0.72306 0.10626 0.29693 0.0
C1013 C 0.7085 0.12707 0.26466 0.0
C1014 C 0.74163 0.12648 0.31 0.0
N1015 N 0.70732 0.10684 0.27386 0.0
C1016 C 0.72706 0.14789 0.27686 0.0
C1017 C 0.74424 0.1477 0.29906 0.0
H1018 H 0.72135 0.08994 0.3048 0.0
H1019 H 0.69536 0.1272 0.24756 0.0
C1020 C 0.66737 0.01926 0.15109 0.0
N1021 N 0.68403 0.03943 0.16555 0.0
C1022 C 0.6696 0.01261 0.1153 0.0
C1023 C 0.70645 0.0474 0.10999 0.0
C1024 C 0.70335 0.05351 0.14588 0.0
C1025 C 0.68926 0.02683 0.09403 0.0
H1026 H 0.65189 0.00868 0.16686 0.0
H1027 H 0.71608 0.06976 0.15749 0.0
O1028 O 0.66071 0.05827 0.2962 0.0
O1029 O 0.64985 0.022 0.23694 0.0
O1030 O 0.66723 0.07059 0.21091 0.0
O1031 O 0.70065 0.05839 0.25265 0.0
H1032 H 0.68367 0.06401 0.35904 0.0
H1033 H 0.64926 0.09054 0.29118 0.0
H1034 H 0.69337 0.09546 0.40452 0.0
H1035 H 0.65954 0.12152 0.33788 0.0
H1036 H 0.64864 0.95392 0.24532 0.0
H1037 H 0.60713 0.99672 0.26135 0.0
H1038 H 0.66843 0.99553 0.23012 0.0
H1039 H 0.58835 0.95507 0.27571 0.0
H1040 H 0.57037 0.03357 0.29933 0.0
H1041 H 0.57127 0.0185 0.18212 0.0
H1042 H 0.7177 0.02836 0.37656 0.0
H1043 H 0.64424 0.98316 0.38453 0.0
H1044 H 0.70469 0.09839 0.17265 0.0
H1045 H 0.64116 0.08963 0.21676 0.0
H1046 H 0.71305 0.13594 0.14609 0.0
H1047 H 0.65064 0.12736 0.18949 0.0
H1048 H 0.73678 0.09588 0.22627 0.0
H1049 H 0.70779 0.02329 0.24494 0.0
H1050 H 0.77139 0.09713 0.19919 0.0
H1051 H 0.74279 0.02575 0.21701 0.0
H1052 H 0.75405 0.12549 0.32804 0.0
H1053 H 0.72834 0.1639 0.26803 0.0
H1054 H 0.65555 0.99695 0.10391 0.0
H1055 H 0.7219 0.05888 0.09468 0.0
H1056 H 0.33991 0.32121 0.25366 0.0
H1057 H 0.29091 0.34264 0.28169 0.0
H1058 H 0.29209 0.33309 0.34704 0.0
H1059 H 0.3097 0.32211 0.39696 0.0
H1060 H 0.36134 0.3041 0.36938 0.0
H1061 H 0.35619 0.30854 0.3032 0.0
C1062 C 0.32949 0.32382 0.27406 0.0
C1063 C 0.31553 0.33286 0.26279 0.0
C1064 C 0.33073 0.31891 0.31175 0.0
C1065 C 0.30169 0.33556 0.28946 0.0
C1066 C 0.30249 0.33027 0.32693 0.0
C1067 C 0.31984 0.31914 0.37649 0.0
C1068 C 0.33603 0.31298 0.38829 0.0
C1069 C 0.31737 0.32248 0.3385 0.0
C1070 C 0.34858 0.30864 0.36125 0.0
C1071 C 0.34583 0.3114 0.32333 0.0
H1072 H 0.01503 0.33565 0.59445 0.0
H1073 H 0.94301 0.29862 0.62292 0.0
H1074 H 0.95271 0.29922 0.68889 0.0
H1075 H 0.98173 0.31376 0.73886 0.0
H1076 H 0.05374 0.35143 0.71024 0.0
H1077 H 0.04403 0.34684 0.64391 0.0
C1078 C 0.0015 0.32754 0.61514 0.0
C1079 C 0.97838 0.31733 0.60404 0.0
C1080 C 0.0072 0.32814 0.65293 0.0
C1081 C 0.96094 0.30653 0.63088 0.0
C1082 C 0.96647 0.307 0.66857 0.0
C1083 C 0.99526 0.32074 0.71802 0.0
C1084 C 0.01838 0.33306 0.72935 0.0
C1085 C 0.98954 0.31828 0.67999 0.0
C1086 C 0.0358 0.34174 0.70218 0.0
C1087 C 0.03027 0.33929 0.66428 0.0
H1088 H 0.68547 0.01686 0.91961 0.0
H1089 H 0.64976 0.94505 0.95006 0.0
H1090 H 0.66011 0.95529 0.0152 0.0
H1091 H 0.67494 0.9845 0.06426 0.0
H1092 H 0.70619 0.05621 0.03442 0.0
H1093 H 0.7023 0.04614 0.96848 0.0
C1094 C 0.67993 0.00343 0.94047 0.0
C1095 C 0.66657 0.98024 0.92989 0.0
C1096 C 0.6851 0.00943 0.97812 0.0
C1097 C 0.66017 0.96305 0.9572 0.0
C1098 C 0.66591 0.96889 0.9946 0.0
C1099 C 0.68095 0.99796 0.04336 0.0
C1100 C 0.69051 0.02104 0.05441 0.0
C1101 C 0.67768 0.99201 0.00548 0.0
C1102 C 0.69887 0.0383 0.0269 0.0
C1103 C 0.69642 0.03254 0.98909 0.0
H1104 H 0.69139 0.68027 0.26354 0.0
H1105 H 0.62553 0.61785 0.25699 0.0
H1106 H 0.61742 0.62266 0.3214 0.0
H1107 H 0.62908 0.64377 0.37981 0.0
H1108 H 0.69542 0.70515 0.38902 0.0
H1109 H 0.70322 0.70169 0.32317 0.0
C1110 C 0.67533 0.6677 0.27631 0.0
C1111 C 0.65903 0.64884 0.25532 0.0
C1112 C 0.67084 0.67036 0.31375 0.0
C1113 C 0.63819 0.63279 0.27218 0.0
C1114 C 0.63358 0.6354 0.30913 0.0
C1115 C 0.64537 0.65629 0.36756 0.0
C1116 C 0.66178 0.6745 0.38933 0.0
C1117 C 0.6498 0.65401 0.33017 0.0
C1118 C 0.6825 0.69097 0.37276 0.0
C1119 C 0.687 0.68893 0.33522 0.0
H1120 H 0.01486 0.67967 0.73905 0.0
H1121 H 0.94336 0.65073 0.70962 0.0
H1122 H 0.95389 0.66048 0.64413 0.0
H1123 H 0.98307 0.67368 0.59464 0.0
H1124 H 0.05439 0.70092 0.62392 0.0
H1125 H 0.04432 0.69567 0.69006 0.0
C1126 C 0.00161 0.67562 0.71828 0.0
C1127 C 0.97837 0.66428 0.72906 0.0
C1128 C 0.00775 0.6809 0.68066 0.0
C1129 C 0.96139 0.65956 0.70205 0.0
C1130 C 0.96738 0.66497 0.66457 0.0
C1131 C 0.99641 0.67859 0.61554 0.0
C1132 C 0.0194 0.68746 0.60437 0.0
C1133 C 0.99045 0.67509 0.65347 0.0
C1134 C 0.03658 0.69419 0.63176 0.0
C1135 C 0.03081 0.69101 0.66958 0.0
H1136 H 0.29118 0.9621 0.04531 0.0
H1137 H 0.34817 0.02579 0.0849 0.0
H1138 H 0.35232 0.04304 0.02337 0.0
H1139 H 0.34285 0.03848 0.9571 0.0
H1140 H 0.28652 0.97468 0.91628 0.0
H1141 H 0.27889 0.959 0.97964 0.0
C1142 C 0.30415 0.97989 0.04057 0.0
C1143 C 0.31953 0.99261 0.06932 0.0
C1144 C 0.30671 0.98957 0.00491 0.0
C1145 C 0.33638 0.0156 0.06291 0.0
C1146 C 0.33874 0.02547 0.02781 0.0
C1147 C 0.32847 0.02138 0.96213 0.0
C1148 C 0.31536 0.00773 0.93199 0.0
C1149 C 0.32445 0.01239 -0.00163 0.0
C1150 C 0.29706 0.98543 0.93898 0.0
C1151 C 0.29268 0.97647 0.97518 0.0
H1152 H 0.17945 0.43204 0.01854 0.0
H1153 H 0.19269 0.42816 0.90184 0.0
H1154 H 0.22971 0.43135 0.91727 0.0
H1155 H 0.25514 0.42919 0.96465 0.0
H1156 H 0.24171 0.43271 0.08139 0.0
H1157 H 0.20808 0.43612 0.06543 0.0
C1158 C 0.19075 0.43243 -0.00345 0.0
C1159 C 0.18342 0.42962 0.95922 0.0
C1160 C 0.21179 0.43399 0.0057 0.0
C1161 C 0.19812 0.43035 0.93075 0.0
C1162 C 0.21915 0.43198 0.9396 0.0
C1163 C 0.24508 0.43123 0.98646 0.0
C1164 C 0.25057 0.43044 0.02407 0.0
C1165 C 0.2257 0.4329 0.97705 0.0
C1166 C 0.23771 0.43331 0.05225 0.0
C1167 C 0.21843 0.43507 0.04313 0.0
H1168 H 0.84248 0.22835 0.3412 0.0
H1169 H 0.80464 0.26353 0.36238 0.0
H1170 H 0.76884 0.22896 0.34429 0.0
H1171 H 0.74847 0.18856 0.32224 0.0
H1172 H 0.78786 0.15524 0.29818 0.0
H1173 H 0.82298 0.18952 0.31707 0.0
C1174 C 0.82651 0.22872 0.34123 0.0
C1175 C 0.82632 0.24862 0.35269 0.0
C1176 C 0.80625 0.20908 0.33031 0.0
C1177 C 0.80527 0.2484 0.3538 0.0
C1178 C 0.78483 0.22869 0.34326 0.0
C1179 C 0.76478 0.18893 0.32084 0.0
C1180 C 0.76546 0.16923 0.30932 0.0
C1181 C 0.78513 0.20891 0.33139 0.0
C1182 C 0.78673 0.16994 0.30779 0.0
C1183 C 0.80688 0.18958 0.31835 0.0
H1184 H 0.56244 0.8124 0.66555 0.0
H1185 H 0.63525 0.85052 0.68921 0.0
H1186 H 0.63891 0.81759 0.67168 0.0
H1187 H 0.62198 0.77855 0.64889 0.0
H1188 H 0.54894 0.73863 0.62866 0.0
H1189 H 0.5449 0.77183 0.64515 0.0
C1190 C 0.57904 0.81338 0.66718 0.0
C1191 C 0.59859 0.83404 0.67814 0.0
C1192 C 0.58104 0.79416 0.6575 0.0
C1193 C 0.62001 0.83507 0.67997 0.0
C1194 C 0.62213 0.81619 0.6702 0.0
C1195 C 0.60505 0.77686 0.64872 0.0
C1196 C 0.58577 0.75602 0.63791 0.0
C1197 C 0.60281 0.79574 0.6588 0.0
C1198 C 0.56412 0.75451 0.63666 0.0
C1199 C 0.56177 0.77344 0.6463 0.0
H1200 H 0.74524 0.56191 0.98785 0.0
H1201 H 0.76778 0.57288 0.10267 0.0
H1202 H 0.80248 0.57206 0.08486 0.0
H1203 H 0.8281 0.57219 0.0358 0.0
H1204 H 0.80583 0.56208 0.92096 0.0
H1205 H 0.7689 0.55776 0.93986 0.0
C1206 C 0.7574 0.56349 0.0092 0.0
C1207 C 0.754 0.56767 0.04651 0.0
C1208 C 0.77739 0.56323 -0.00129 0.0
C1209 C 0.77016 0.57001 0.07367 0.0
C1210 C 0.78998 0.5695 0.06352 0.0
C1211 C 0.81505 0.56883 0.01499 0.0
C1212 C 0.81976 0.56774 0.97702 0.0
C1213 C 0.79408 0.56682 0.02597 0.0
C1214 C 0.80258 0.56292 0.95037 0.0
C1215 C 0.78154 0.56064 0.96113 0.0
H1216 H 0.17324 0.74518 0.29776 0.0
H1217 H 0.18902 0.76917 0.41155 0.0
H1218 H 0.22658 0.8003 0.39206 0.0
H1219 H 0.25259 0.8234 0.34192 0.0
H1220 H 0.2364 0.80058 0.22765 0.0
H1221 H 0.20111 0.76642 0.24807 0.0
C1222 C 0.18497 0.75716 0.31831 0.0
C1223 C 0.17823 0.75501 0.35599 0.0
C1224 C 0.2063 0.77536 0.30677 0.0
C1225 C 0.19381 0.77033 0.38243 0.0
C1226 C 0.21522 0.78827 0.37125 0.0
C1227 C 0.2417 0.81066 0.32152 0.0
C1228 C 0.24708 0.81458 0.28328 0.0
C1229 C 0.22135 0.7913 0.33339 0.0
C1230 C 0.2325 0.79808 0.2572 0.0
C1231 C 0.21236 0.77856 0.26886 0.0
H1232 H 0.41044 0.18585 0.7445 0.0
H1233 H 0.42668 0.16952 0.63663 0.0
H1234 H 0.43072 0.20515 0.61072 0.0
H1235 H 0.42464 0.23823 0.61727 0.0
H1236 H 0.40494 0.2525 0.72403 0.0
H1237 H 0.40747 0.22065 0.75226 0.0
C1238 C 0.41545 0.19053 0.71561 0.0
C1239 C 0.4185 0.17549 0.6924 0.0
C1240 C 0.41684 0.2105 0.70076 0.0
C1241 C 0.42451 0.18117 0.65483 0.0
C1242 C 0.42666 0.2014 0.64006 0.0
C1243 C 0.42144 0.23461 0.64687 0.0
C1244 C 0.41458 0.24749 0.66866 0.0
C1245 C 0.42217 0.21583 0.6625 0.0
C1246 C 0.41015 0.24261 0.70686 0.0
C1247 C 0.41155 0.22443 0.72292 0.0
H1248 H 0.30741 0.28827 0.77103 0.0
H1249 H 0.29618 0.34437 0.74328 0.0
H1250 H 0.28711 0.3472 0.80841 0.0
H1251 H 0.289 0.33817 0.87357 0.0
H1252 H 0.30106 0.28266 0.90249 0.0
H1253 H 0.3032 0.27513 0.83627 0.0
C1254 C 0.30223 0.30059 0.77911 0.0
C1255 C 0.30264 0.31625 0.75263 0.0
C1256 C 0.29769 0.30253 0.81677 0.0
C1257 C 0.29617 0.33232 0.76339 0.0
C1258 C 0.29109 0.33398 0.80058 0.0
C1259 C 0.29129 0.32386 0.86562 0.0
C1260 C 0.29515 0.31119 0.89312 0.0
C1261 C 0.29276 0.31983 0.82767 0.0
C1262 C 0.2985 0.293 0.88195 0.0
C1263 C 0.29966 0.28864 0.84409 0.0
H1264 H 0.97716 0.29036 0.22184 0.0
H1265 H 0.03669 0.35441 0.25401 0.0
H1266 H 0.05261 0.35876 0.1915 0.0
H1267 H 0.04687 0.34751 0.12605 0.0
H1268 H 0.98702 0.2841 0.09242 0.0
H1269 H 0.97377 0.27659 0.15717 0.0
C1270 C 0.99375 0.30513 0.21523 0.0
C1271 C 0.00559 0.32215 0.24244 0.0
C1272 C 0.00253 0.30786 0.17888 0.0
C1273 C 0.02727 0.34097 0.23373 0.0
C1274 C 0.03629 0.3436 0.19784 0.0
C1275 C 0.03128 0.33166 0.13285 0.0
C1276 C 0.01786 0.31651 0.10425 0.0
C1277 C 0.02369 0.32757 0.16994 0.0
C1278 C 0.99748 0.29627 0.11376 0.0
C1279 C 0.98993 0.29194 0.15079 0.0
H1280 H 0.66674 0.96699 0.54837 0.0
H1281 H 0.70111 0.03959 0.57197 0.0
H1282 H 0.70942 0.04816 0.50544 0.0
H1283 H 0.70229 0.0348 0.44047 0.0
H1284 H 0.6648 0.96219 0.41686 0.0
H1285 H 0.66259 0.95364 0.48371 0.0
C1286 C 0.67661 0.98468 0.539 0.0
C1287 C 0.6834 0.00268 0.56481 0.0
C1288 C 0.68055 0.98938 0.50079 0.0
C1289 C 0.69572 0.02553 0.55241 0.0
C1290 C 0.70041 0.03038 0.51447 0.0
C1291 C 0.69422 0.01712 0.45002 0.0
C1292 C 0.68379 0.99909 0.42407 0.0
C1293 C 0.69226 0.01243 0.48836 0.0
C1294 C 0.67293 0.97626 0.43655 0.0
C1295 C 0.6716 0.97141 0.47466 0.0
H1296 H 0.70135 0.71666 0.77403 0.0
H1297 H 0.69555 0.65264 0.73801 0.0
H1298 H 0.70597 0.64642 0.80017 0.0
H1299 H 0.70974 0.65554 0.86628 0.0
H1300 H 0.71435 0.71874 0.90408 0.0
H1301 H 0.711 0.72871 0.83963 0.0
C1302 C 0.70272 0.70153 0.77971 0.0
C1303 C 0.69738 0.68501 0.75154 0.0
C1304 C 0.70803 0.69767 0.81592 0.0
C1305 C 0.69968 0.66571 0.75904 0.0
C1306 C 0.7054 0.662 0.79474 0.0
C1307 C 0.71086 0.67191 0.86056 0.0
C1308 C 0.71199 0.68621 0.89017 0.0
C1309 C 0.70866 0.67737 0.82366 0.0
C1310 C 0.71302 0.70718 0.88192 0.0
C1311 C 0.71115 0.71291 0.84507 0.0
H1312 H 0.03984 0.70327 0.20921 0.0
H1313 H 0.97848 0.70496 0.23949 0.0
H1314 H 0.96587 0.69827 0.17433 0.0
H1315 H 0.97046 0.68783 0.11033 0.0
H1316 H 0.03136 0.68483 0.08165 0.0
H1317 H 0.04644 0.69718 0.14442 0.0
C1318 C 0.02405 0.70293 0.20152 0.0
C1319 C 0.01008 0.70454 0.22926 0.0
C1320 C 0.01681 0.6988 0.16426 0.0
C1321 C 0.98942 0.70351 0.21874 0.0
C1322 C 0.98222 0.69971 0.18151 0.0
C1323 C 0.98713 0.6901 0.11776 0.0
C1324 C -0.00035 0.68519 0.09143 0.0
C1325 C 0.99545 0.69661 0.15427 0.0
C1326 C 0.02143 0.68865 0.10121 0.0
C1327 C 0.02998 0.6955 0.13725 0.0
H1328 H 0.27652 0.9603 0.45209 0.0
H1329 H 0.33389 0.02227 0.40779 0.0
H1330 H 0.34288 0.03911 0.4698 0.0
H1331 H 0.33839 0.034 0.53742 0.0
H1332 H 0.28272 0.97163 0.58307 0.0
H1333 H 0.26914 0.95711 0.51986 0.0
C1334 C 0.29079 0.97761 0.45598 0.0
C1335 C 0.30464 0.98985 0.42532 0.0
C1336 C 0.29642 0.98696 0.49205 0.0
C1337 C 0.32278 0.01246 0.43069 0.0
C1338 C 0.32816 0.02205 0.46629 0.0
C1339 C 0.3231 0.01736 0.53339 0.0
C1340 C 0.31174 0.00366 0.56448 0.0
C1341 C 0.3157 0.0091 0.49725 0.0
C1342 C 0.29172 0.98235 0.55931 0.0
C1343 C 0.28407 0.97404 0.52327 0.0
H1344 H 0.45882 0.49104 0.02288 0.0
H1345 H 0.46474 0.44313 0.09588 0.0
H1346 H 0.50653 0.46684 0.09464 0.0
H1347 H 0.54138 0.50123 0.07322 0.0
H1348 H 0.53567 0.54932 0.00042 0.0
H1349 H 0.49384 0.52509 0.00022 0.0
C1350 C 0.46926 0.48567 0.03821 0.0
C1351 C 0.45862 0.46541 0.05964 0.0
C1352 C 0.49332 0.49931 0.0372 0.0
C1353 C 0.47243 0.45885 0.0797 0.0
C1354 C 0.49635 0.47231 0.0788 0.0
C1355 C 0.53098 0.50647 0.05745 0.0
C1356 C 0.54165 0.52709 0.03697 0.0
C1357 C 0.50697 0.49263 0.05782 0.0
C1358 C 0.52793 0.53341 0.01611 0.0
C1359 C 0.504 0.51965 0.01621 0.0
H1360 H 0.02314 0.54712 0.44327 0.0
H1361 H 0.98912 0.54383 0.33939 0.0
H1362 H 0.97314 0.50223 0.3371 0.0
H1363 H 0.96852 0.46683 0.36496 0.0
H1364 H 0.00372 0.47036 0.4678 0.0
H1365 H 0.01897 0.51174 0.47068 0.0
C1366 C 0.0121 0.53725 0.42028 0.0
C1367 C 0.0073 0.5485 0.39156 0.0
C1368 C 0.00302 0.51338 0.41911 0.0
C1369 C 0.99325 0.53557 0.36163 0.0
C1370 C 0.98401 0.51179 0.36042 0.0
C1371 C 0.97971 0.47665 0.38784 0.0
C1372 C 0.98487 0.4654 0.41615 0.0
C1373 C 0.98881 0.50052 0.38898 0.0
C1374 C 0.9991 0.47843 0.44592 0.0
C1375 C 0.00801 0.50215 0.44746 0.0
H1376 H 0.5292 -0.0006 0.78073 0.0
H1377 H 0.49512 0.95457 0.68725 0.0
H1378 H 0.46743 0.96802 0.68484 0.0
H1379 H 0.45287 0.99249 0.70925 0.0
H1380 H 0.48656 0.03689 0.80324 0.0
H1381 H 0.51414 0.02323 0.80601 0.0
C1382 C 0.51553 0.99232 0.76015 0.0
C1383 C 0.51429 0.97601 0.73419 0.0
C1384 C 0.49958 3e-05 0.75904 0.0
C1385 C 0.49668 0.96736 0.70727 0.0
C1386 C 0.48076 0.97495 0.70597 0.0
C1387 C 0.46636 -0.00071 0.73015 0.0
C1388 C 0.46773 0.01573 0.7559 0.0
C1389 C 0.48212 0.99137 0.73158 0.0
C1390 C 0.48505 0.0241 0.78327 0.0
C1391 C 0.50087 0.01637 0.78477 0.0
H1392 H 0.51042 0.53947 0.62698 0.0
H1393 H 0.55197 0.5352 0.5389 0.0
H1394 H 0.52613 0.49376 0.53465 0.0
H1395 H 0.492 0.45866 0.55643 0.0
H1396 H 0.45037 0.46296 0.64436 0.0
H1397 H 0.4763 0.50436 0.6488 0.0
C1398 C 0.51392 0.52943 0.60708 0.0
C1399 C 0.53305 0.54042 0.58325 0.0
C1400 C 0.49907 0.5056 0.6049 0.0
C1401 C 0.53718 0.52722 0.55723 0.0
C1402 C 0.52249 0.5035 0.55492 0.0
C1403 C 0.4885 0.46869 0.57635 0.0
C1404 C 0.46931 0.45771 0.60007 0.0
C1405 C 0.50337 0.49252 0.57858 0.0
C1406 C 0.46521 0.47092 0.62613 0.0
C1407 C 0.47994 0.49462 0.62853 0.0
H1408 H 0.96845 0.50459 0.9616 0.0
H1409 H 0.00663 0.54146 0.86378 0.0
H1410 H 0.0236 0.51682 0.85958 0.0
H1411 H 0.0284 0.48541 0.88453 0.0
H1412 H 0.991 0.44922 0.98321 0.0
H1413 H 0.97344 0.47341 0.98679 0.0
C1414 C 0.98064 0.5074 0.93954 0.0
C1415 C 0.98617 0.52485 0.91301 0.0
C1416 C 0.99064 0.4934 0.9376 0.0
C1417 C 0.00173 0.52793 0.88425 0.0
C1418 C 0.01161 0.51396 0.88197 0.0
C1419 C 0.01627 0.48273 0.90665 0.0
C1420 C 0.01105 0.46559 0.93359 0.0
C1421 C 0.00623 0.49669 0.90854 0.0
C1422 C 0.99554 0.4625 0.96239 0.0
C1423 C 0.98539 0.47623 0.96434 0.0
H1424 H 0.54152 0.04152 0.27058 0.0
H1425 H 0.53646 0.98463 0.20702 0.0
H1426 H 0.49462 0.96659 0.2063 0.0
H1427 H 0.45945 0.96629 0.22564 0.0
H1428 H 0.46447 0.02347 0.28842 0.0
H1429 H 0.5063 0.04179 0.28828 0.0
C1430 C 0.53123 0.02514 0.25668 0.0
C1431 C 0.54207 0.01445 0.23888 0.0
C1432 C 0.50718 0.01481 0.25653 0.0
C1433 C 0.52855 0.99337 0.22054 0.0
C1434 C 0.50461 0.98296 0.22033 0.0
C1435 C 0.46968 0.98289 0.2389 0.0
C1436 C 0.45878 0.99339 0.2572 0.0
C1437 C 0.49375 0.99347 0.23839 0.0
C1438 C 0.47236 0.01478 0.2747 0.0
C1439 C 0.4963 0.02536 0.27443 0.0
loop_
_geom_bond_atom_site_label_1
_geom_bond_atom_site_label_2
_geom_bond_distance
_geom_bond_site_symmetry_2
_ccdc_geom_bond_type
Li0 N17 1.990 . S
Li0 O60 1.956 . S
Li0 O61 1.970 . S
Li0 O62 1.961 . S
Li1 N25 1.990 . S
Li1 O60 1.970 . S
Li1 O61 1.956 . S
Li1 O63 1.961 . S
Li2 N47 1.990 . S
Li2 O60 1.961 . S
Li2 O62 1.956 . S
Li2 O63 1.970 . S
Li3 N53 1.990 1_554 S
Li3 O61 1.961 . S
Li3 O62 1.970 . S
Li3 O63 1.956 . S
C4 C6 1.348 . S
C4 C7 1.356 . S
C4 O60 1.325 . S
N5 C8 1.314 . S
N5 C9 1.279 . S
C6 C4 1.348 . S
C6 C8 1.353 . S
C6 H64 0.929 . S
C7 C4 1.356 . S
C7 C9 1.358 . S
C7 H65 0.930 . S
C8 N5 1.314 . S
C8 C6 1.353 . S
C8 H66 0.930 . S
C9 N5 1.279 . S
C9 C7 1.358 . S
C9 H67 0.930 . S
C10 C13 1.348 . S
C10 C14 1.356 . S
C10 O61 1.325 . S
C11 N12 1.279 . S
C11 C14 1.358 . S
C11 H68 0.930 . S
N12 C11 1.279 . S
N12 C15 1.314 . S
C13 C10 1.348 . S
C13 C15 1.353 . S
C13 H69 0.929 . S
C14 C10 1.356 . S
C14 C11 1.358 . S
C14 H70 0.930 . S
C15 N12 1.314 . S
C15 C13 1.353 . S
C15 H71 0.930 . S
C16 N17 1.314 . S
C16 C21 1.353 . S
C16 H22 0.930 . S
N17 Li0 1.990 . S
N17 C16 1.314 . S
N17 C19 1.279 . S
C18 C19 1.358 . S
C18 C20 1.356 . S
C18 H72 0.930 . S
C19 N17 1.279 . S
C19 C18 1.358 . S
C19 H23 0.930 . S
C20 C18 1.356 . S
C20 C21 1.348 . S
C21 C16 1.353 . S
C21 C20 1.348 . S
C21 H73 0.929 1_554 S
H22 C16 0.930 . S
H23 C19 0.930 . S
C24 N25 1.314 . S
C24 C26 1.353 . S
C24 H30 0.930 . S
N25 Li1 1.990 . S
N25 C24 1.314 . S
N25 C28 1.279 . S
C26 C24 1.353 . S
C26 C29 1.348 . S
C26 H74 0.929 . S
C27 C28 1.358 . S
C27 C29 1.356 . S
C27 H75 0.930 . S
C28 N25 1.279 . S
C28 C27 1.358 . S
C28 H31 0.930 . S
C29 C26 1.348 . S
C29 C27 1.356 . S
H30 C24 0.930 . S
H31 C28 0.930 . S
C32 C34 1.348 . S
C32 C35 1.356 . S
C32 O62 1.325 1_556 S
N33 C36 1.314 . S
N33 C37 1.279 . S
C34 C32 1.348 . S
C34 C36 1.353 . S
C34 H76 0.929 . S
C35 C32 1.356 . S
C35 C37 1.358 . S
C35 H77 0.930 1_556 S
C36 N33 1.314 . S
C36 C34 1.353 . S
C36 H78 0.930 . S
C37 N33 1.279 . S
C37 C35 1.358 . S
C37 H79 0.930 . S
C38 C39 1.348 . S
C38 C40 1.356 . S
C38 O63 1.325 . S
C39 C38 1.348 . S
C39 C41 1.353 . S
C39 H80 0.929 . S
C40 C38 1.356 . S
C40 C42 1.358 . S
C40 H81 0.930 . S
C41 C39 1.353 . S
C41 N43 1.314 . S
C41 H82 0.930 . S
C42 C40 1.358 . S
C42 N43 1.279 . S
C42 H83 0.930 . S
N43 C41 1.314 . S
N43 C42 1.279 . S
C44 C46 1.353 . S
C44 N47 1.314 . S
C44 H50 0.930 . S
C45 N47 1.279 . S
C45 C48 1.358 . S
C45 H51 0.930 . S
C46 C44 1.353 . S
C46 C49 1.348 . S
C46 H84 0.929 . S
N47 Li2 1.990 . S
N47 C44 1.314 . S
N47 C45 1.279 . S
C48 C45 1.358 . S
C48 C49 1.356 . S
C48 H85 0.930 . S
C49 C46 1.348 . S
C49 C48 1.356 . S
H50 C44 0.930 . S
H51 C45 0.930 . S
C52 N53 1.314 . S
C52 C54 1.353 . S
C52 H58 0.930 . S
N53 Li3 1.990 1_556 S
N53 C52 1.314 . S
N53 C56 1.279 . S
C54 C52 1.353 . S
C54 C57 1.348 . S
C54 H86 0.929 . S
C55 C56 1.358 . S
C55 C57 1.356 . S
C55 H87 0.930 . S
C56 N53 1.279 . S
C56 C55 1.358 . S
C56 H59 0.930 . S
C57 C54 1.348 . S
C57 C55 1.356 . S
H58 C52 0.930 . S
H59 C56 0.930 . S
O60 Li0 1.956 . S
O60 Li1 1.970 . S
O60 Li2 1.961 . S
O60 C4 1.325 . S
O61 Li0 1.970 . S
O61 Li1 1.956 . S
O61 Li3 1.961 . S
O61 C10 1.325 . S
O62 Li0 1.961 . S
O62 Li2 1.956 . S
O62 Li3 1.970 . S
O62 C32 1.325 1_554 S
O63 Li1 1.961 . S
O63 Li2 1.970 . S
O63 Li3 1.956 . S
O63 C38 1.325 . S
H64 C6 0.929 . S
H65 C7 0.930 . S
H66 C8 0.930 . S
H67 C9 0.930 . S
H68 C11 0.930 . S
H69 C13 0.929 . S
H70 C14 0.930 . S
H71 C15 0.930 . S
H72 C18 0.930 . S
H73 C21 0.929 1_556 S
H74 C26 0.929 . S
H75 C27 0.930 . S
H76 C34 0.929 . S
H77 C35 0.930 1_554 S
H78 C36 0.930 . S
H79 C37 0.930 . S
H80 C39 0.929 . S
H81 C40 0.930 . S
H82 C41 0.930 . S
H83 C42 0.930 . S
H84 C46 0.929 . S
H85 C48 0.930 . S
H86 C54 0.929 . S
H87 C55 0.930 . S
Li88 N105 1.990 . S
Li88 O148 1.956 . S
Li88 O149 1.970 . S
Li88 O150 1.961 . S
Li89 N113 1.990 . S
Li89 O148 1.970 . S
Li89 O149 1.956 . S
Li89 O151 1.961 . S
Li90 N135 1.990 . S
Li90 O148 1.961 . S
Li90 O150 1.956 . S
Li90 O151 1.970 . S
Li91 N141 1.990 . S
Li91 O149 1.961 . S
Li91 O150 1.970 . S
Li91 O151 1.956 . S
C92 C94 1.348 . S
C92 C95 1.356 . S
C92 O148 1.325 . S
N93 C96 1.314 . S
N93 C97 1.279 . S
C94 C92 1.348 . S
C94 C96 1.353 . S
C94 H152 0.929 . S
C95 C92 1.356 . S
C95 C97 1.358 . S
C95 H153 0.930 . S
C96 N93 1.314 . S
C96 C94 1.353 . S
C96 H154 0.930 . S
C97 N93 1.279 . S
C97 C95 1.358 . S
C97 H155 0.930 . S
C98 C101 1.348 . S
C98 C102 1.356 . S
C98 O149 1.325 . S
C99 N100 1.279 . S
C99 C102 1.358 . S
C99 H156 0.930 . S
N100 C99 1.279 . S
N100 C103 1.314 . S
C101 C98 1.348 . S
C101 C103 1.353 . S
C101 H157 0.929 . S
C102 C98 1.356 . S
C102 C99 1.358 . S
C102 H158 0.930 . S
C103 N100 1.314 . S
C103 C101 1.353 . S
C103 H159 0.930 . S
C104 N105 1.314 . S
C104 C109 1.353 1_655 S
C104 H110 0.930 . S
N105 Li88 1.990 . S
N105 C104 1.314 . S
N105 C107 1.279 . S
C106 C107 1.358 . S
C106 C108 1.356 1_655 S
C106 H160 0.930 . S
C107 N105 1.279 . S
C107 C106 1.358 . S
C107 H111 0.930 . S
C108 C106 1.356 1_455 S
C108 C109 1.348 . S
C109 C104 1.353 1_455 S
C109 C108 1.348 . S
C109 H161 0.929 . S
H110 C104 0.930 . S
H111 C107 0.930 . S
C112 N113 1.314 . S
C112 C114 1.353 . S
C112 H118 0.930 . S
N113 Li89 1.990 . S
N113 C112 1.314 . S
N113 C116 1.279 . S
C114 C112 1.353 . S
C114 C117 1.348 . S
C114 H162 0.929 . S
C115 C116 1.358 . S
C115 C117 1.356 . S
C115 H163 0.930 . S
C116 N113 1.279 . S
C116 C115 1.358 . S
C116 H119 0.930 . S
C117 C114 1.348 . S
C117 C115 1.356 . S
H118 C112 0.930 . S
H119 C116 0.930 . S
C120 C122 1.348 . S
C120 C123 1.356 . S
C120 O150 1.325 1_455 S
N121 C124 1.314 . S
N121 C125 1.279 . S
C122 C120 1.348 . S
C122 C124 1.353 . S
C122 H164 0.929 . S
C123 C120 1.356 . S
C123 C125 1.358 . S
C123 H165 0.930 . S
C124 N121 1.314 . S
C124 C122 1.353 . S
C124 H166 0.930 . S
C125 N121 1.279 . S
C125 C123 1.358 . S
C125 H167 0.930 . S
C126 C127 1.348 . S
C126 C128 1.356 . S
C126 O151 1.325 . S
C127 C126 1.348 . S
C127 C129 1.353 . S
C127 H168 0.929 . S
C128 C126 1.356 . S
C128 C130 1.358 . S
C128 H169 0.930 . S
C129 C127 1.353 . S
C129 N131 1.314 . S
C129 H170 0.930 . S
C130 C128 1.358 . S
C130 N131 1.279 . S
C130 H171 0.930 . S
N131 C129 1.314 . S
N131 C130 1.279 . S
C132 C134 1.364 . S
C132 N135 1.314 . S
C132 H138 0.930 . S
C133 N135 1.279 1_455 S
C133 C136 1.358 . S
C133 H139 0.930 . S
C134 C132 1.364 . S
C134 C137 1.338 1_655 S
C134 H172 0.928 . S
N135 Li90 1.990 . S
N135 C132 1.314 . S
N135 C133 1.279 1_655 S
C136 C133 1.358 . S
C136 C137 1.356 . S
C136 H173 0.930 . S
C137 C134 1.338 1_455 S
C137 C136 1.356 . S
H138 C132 0.930 . S
H139 C133 0.930 . S
C140 N141 1.314 . S
C140 C142 1.353 . S
C140 H146 0.930 . S
N141 Li91 1.990 . S
N141 C140 1.314 . S
N141 C144 1.279 . S
C142 C140 1.353 . S
C142 C145 1.348 . S
C142 H174 0.929 . S
C143 C144 1.358 . S
C143 C145 1.356 . S
C143 H175 0.930 . S
C144 N141 1.279 . S
C144 C143 1.358 . S
C144 H147 0.930 . S
C145 C142 1.348 . S
C145 C143 1.356 . S
H146 C140 0.930 . S
H147 C144 0.930 . S
O148 Li88 1.956 . S
O148 Li89 1.970 . S
O148 Li90 1.961 . S
O148 C92 1.325 . S
O149 Li88 1.970 . S
O149 Li89 1.956 . S
O149 Li91 1.961 . S
O149 C98 1.325 . S
O150 Li88 1.961 . S
O150 Li90 1.956 . S
O150 Li91 1.970 . S
O150 C120 1.325 1_655 S
O151 Li89 1.961 . S
O151 Li90 1.970 . S
O151 Li91 1.956 . S
O151 C126 1.325 . S
H152 C94 0.929 . S
H153 C95 0.930 . S
H154 C96 0.930 . S
H155 C97 0.930 . S
H156 C99 0.930 . S
H157 C101 0.929 . S
H158 C102 0.930 . S
H159 C103 0.930 . S
H160 C106 0.930 . S
H161 C109 0.929 . S
H162 C114 0.929 . S
H163 C115 0.930 . S
H164 C122 0.929 . S
H165 C123 0.930 . S
H166 C124 0.930 . S
H167 C125 0.930 . S
H168 C127 0.929 . S
H169 C128 0.930 . S
H170 C129 0.930 . S
H171 C130 0.930 . S
H172 C134 0.928 . S
H173 C136 0.930 . S
H174 C142 0.929 . S
H175 C143 0.930 . S
Li176 N193 1.990 . S
Li176 O236 1.956 . S
Li176 O237 1.970 . S
Li176 O238 1.961 . S
Li177 N201 1.990 . S
Li177 O236 1.970 . S
Li177 O237 1.956 . S
Li177 O239 1.961 . S
Li178 N223 1.990 . S
Li178 O236 1.961 . S
Li178 O238 1.956 . S
Li178 O239 1.970 . S
Li179 N229 1.990 . S
Li179 O237 1.961 . S
Li179 O238 1.970 . S
Li179 O239 1.956 . S
C180 C182 1.348 . S
C180 C183 1.356 . S
C180 O236 1.325 . S
N181 C184 1.314 . S
N181 C185 1.279 . S
C182 C180 1.348 . S
C182 C184 1.353 . S
C182 H240 0.929 . S
C183 C180 1.356 . S
C183 C185 1.358 . S
C183 H241 0.930 . S
C184 N181 1.314 . S
C184 C182 1.353 . S
C184 H242 0.930 . S
C185 N181 1.279 . S
C185 C183 1.358 . S
C185 H243 0.930 . S
C186 C189 1.348 . S
C186 C190 1.356 . S
C186 O237 1.325 . S
C187 N188 1.279 . S
C187 C190 1.358 . S
C187 H244 0.930 . S
N188 C187 1.279 . S
N188 C191 1.314 . S
C189 C186 1.348 . S
C189 C191 1.353 . S
C189 H245 0.929 . S
C190 C186 1.356 . S
C190 C187 1.358 . S
C190 H246 0.930 . S
C191 N188 1.314 . S
C191 C189 1.353 . S
C191 H247 0.930 . S
C192 N193 1.314 . S
C192 C197 1.353 1_565 S
C192 H198 0.930 . S
N193 Li176 1.990 . S
N193 C192 1.314 . S
N193 C195 1.279 . S
C194 C195 1.358 . S
C194 C196 1.356 1_565 S
C194 H248 0.930 . S
C195 N193 1.279 . S
C195 C194 1.358 . S
C195 H199 0.930 . S
C196 C194 1.356 1_545 S
C196 C197 1.348 . S
C197 C192 1.353 1_545 S
C197 C196 1.348 . S
C197 H249 0.929 . S
H198 C192 0.930 . S
H199 C195 0.930 . S
C200 N201 1.314 . S
C200 C202 1.353 . S
C200 H206 0.930 . S
N201 Li177 1.990 . S
N201 C200 1.314 . S
N201 C204 1.279 . S
C202 C200 1.353 . S
C202 C205 1.348 . S
C202 H250 0.929 . S
C203 C204 1.358 . S
C203 C205 1.356 . S
C203 H251 0.930 . S
C204 N201 1.279 . S
C204 C203 1.358 . S
C204 H207 0.930 . S
C205 C202 1.348 . S
C205 C203 1.356 . S
H206 C200 0.930 . S
H207 C204 0.930 . S
C208 C210 1.348 . S
C208 C211 1.356 . S
C208 O238 1.325 1_545 S
N209 C212 1.314 . S
N209 C213 1.279 . S
C210 C208 1.348 . S
C210 C212 1.353 . S
C210 H252 0.929 . S
C211 C208 1.356 . S
C211 C213 1.358 . S
C211 H253 0.930 . S
C212 N209 1.314 . S
C212 C210 1.353 . S
C212 H254 0.930 . S
C213 N209 1.279 . S
C213 C211 1.358 . S
C213 H255 0.930 . S
C214 C215 1.348 . S
C214 C216 1.356 . S
C214 O239 1.325 . S
C215 C214 1.348 . S
C215 C217 1.353 . S
C215 H256 0.929 . S
C216 C214 1.356 . S
C216 C218 1.358 . S
C216 H257 0.930 . S
C217 C215 1.353 . S
C217 N219 1.314 . S
C217 H258 0.930 . S
C218 C216 1.358 . S
C218 N219 1.279 . S
C218 H259 0.930 . S
N219 C217 1.314 . S
N219 C218 1.279 . S
C220 C222 1.358 . S
C220 N223 1.314 . S
C220 H226 0.930 . S
C221 N223 1.279 1_545 S
C221 C224 1.358 . S
C221 H227 0.930 . S
C222 C220 1.358 . S
C222 C225 1.329 1_565 S
C222 H260 0.943 . S
N223 Li178 1.990 . S
N223 C220 1.314 . S
N223 C221 1.279 1_565 S
C224 C221 1.358 . S
C224 C225 1.356 . S
C224 H261 0.930 . S
C225 C222 1.329 1_545 S
C225 C224 1.356 . S
H226 C220 0.930 . S
H227 C221 0.930 . S
C228 N229 1.314 . S
C228 C230 1.353 . S
C228 H234 0.930 . S
N229 Li179 1.990 . S
N229 C228 1.314 . S
N229 C232 1.279 . S
C230 C228 1.353 . S
C230 C233 1.348 . S
C230 H262 0.929 . S
C231 C232 1.358 . S
C231 C233 1.356 . S
C231 H263 0.930 . S
C232 N229 1.279 . S
C232 C231 1.358 . S
C232 H235 0.930 . S
C233 C230 1.348 . S
C233 C231 1.356 . S
H234 C228 0.930 . S
H235 C232 0.930 . S
O236 Li176 1.956 . S
O236 Li177 1.970 . S
O236 Li178 1.961 . S
O236 C180 1.325 . S
O237 Li176 1.970 . S
O237 Li177 1.956 . S
O237 Li179 1.961 . S
O237 C186 1.325 . S
O238 Li176 1.961 . S
O238 Li178 1.956 . S
O238 Li179 1.970 . S
O238 C208 1.325 1_565 S
O239 Li177 1.961 . S
O239 Li178 1.970 . S
O239 Li179 1.956 . S
O239 C214 1.325 . S
H240 C182 0.929 . S
H241 C183 0.930 . S
H242 C184 0.930 . S
H243 C185 0.930 . S
H244 C187 0.930 . S
H245 C189 0.929 . S
H246 C190 0.930 . S
H247 C191 0.930 . S
H248 C194 0.930 . S
H249 C197 0.929 . S
H250 C202 0.929 . S
H251 C203 0.930 . S
H252 C210 0.929 . S
H253 C211 0.930 . S
H254 C212 0.930 . S
H255 C213 0.930 . S
H256 C215 0.929 . S
H257 C216 0.930 . S
H258 C217 0.930 . S
H259 C218 0.930 . S
H260 C222 0.943 . S
H261 C224 0.930 . S
H262 C230 0.929 . S
H263 C231 0.930 . S
Li264 N281 1.990 . S
Li264 O324 1.956 . S
Li264 O325 1.970 . S
Li264 O326 1.961 . S
Li265 N289 1.990 . S
Li265 O324 1.970 . S
Li265 O325 1.956 . S
Li265 O327 1.961 . S
Li266 N311 1.990 1_554 S
Li266 O324 1.961 . S
Li266 O326 1.956 . S
Li266 O327 1.970 . S
Li267 N317 1.990 . S
Li267 O325 1.961 . S
Li267 O326 1.970 . S
Li267 O327 1.956 . S
C268 C270 1.348 . S
C268 C271 1.356 . S
C268 O324 1.325 . S
N269 C272 1.314 . S
N269 C273 1.279 . S
C270 C268 1.348 . S
C270 C272 1.353 . S
C270 H328 0.929 . S
C271 C268 1.356 . S
C271 C273 1.358 . S
C271 H329 0.930 . S
C272 N269 1.314 . S
C272 C270 1.353 . S
C272 H330 0.930 . S
C273 N269 1.279 . S
C273 C271 1.358 . S
C273 H331 0.930 . S
C274 C277 1.348 . S
C274 C278 1.356 . S
C274 O325 1.325 . S
C275 N276 1.279 . S
C275 C278 1.358 . S
C275 H332 0.930 . S
N276 C275 1.279 . S
N276 C279 1.314 . S
C277 C274 1.348 . S
C277 C279 1.353 . S
C277 H333 0.929 . S
C278 C274 1.356 . S
C278 C275 1.358 . S
C278 H334 0.930 . S
C279 N276 1.314 . S
C279 C277 1.353 . S
C279 H335 0.930 . S
C280 N281 1.314 . S
C280 C285 1.353 . S
C280 H286 0.930 . S
N281 Li264 1.990 . S
N281 C280 1.314 . S
N281 C283 1.279 . S
C282 C283 1.358 . S
C282 C284 1.356 . S
C282 H336 0.930 . S
C283 N281 1.279 . S
C283 C282 1.358 . S
C283 H287 0.930 . S
C284 C282 1.356 . S
C284 C285 1.348 . S
C285 C280 1.353 . S
C285 C284 1.348 . S
C285 H337 0.929 . S
H286 C280 0.930 . S
H287 C283 0.930 . S
C288 N289 1.314 . S
C288 C290 1.353 . S
C288 H294 0.930 . S
N289 Li265 1.990 . S
N289 C288 1.314 . S
N289 C292 1.279 . S
C290 C288 1.353 . S
C290 C293 1.348 . S
C290 H338 0.929 1_554 S
C291 C292 1.358 . S
C291 C293 1.356 . S
C291 H339 0.930 . S
C292 N289 1.279 . S
C292 C291 1.358 . S
C292 H295 0.930 . S
C293 C290 1.348 . S
C293 C291 1.356 . S
H294 C288 0.930 . S
H295 C292 0.930 . S
C296 C298 1.348 . S
C296 C299 1.356 . S
C296 O326 1.325 . S
N297 C300 1.314 . S
N297 C301 1.279 . S
C298 C296 1.348 . S
C298 C300 1.353 . S
C298 H340 0.929 . S
C299 C296 1.356 . S
C299 C301 1.358 . S
C299 H341 0.930 . S
C300 N297 1.314 . S
C300 C298 1.353 . S
C300 H342 0.930 . S
C301 N297 1.279 . S
C301 C299 1.358 . S
C301 H343 0.930 . S
C302 C303 1.348 . S
C302 C304 1.356 . S
C302 O327 1.325 1_556 S
C303 C302 1.348 . S
C303 C305 1.353 . S
C303 H344 0.929 . S
C304 C302 1.356 . S
C304 C306 1.358 . S
C304 H345 0.930 1_556 S
C305 C303 1.353 . S
C305 N307 1.314 . S
C305 H346 0.930 . S
C306 C304 1.358 . S
C306 N307 1.279 . S
C306 H347 0.930 . S
N307 C305 1.314 . S
N307 C306 1.279 . S
C308 C310 1.353 . S
C308 N311 1.314 . S
C308 H314 0.930 . S
C309 N311 1.279 . S
C309 C312 1.358 . S
C309 H315 0.930 . S
C310 C308 1.353 . S
C310 C313 1.348 . S
C310 H348 0.929 . S
N311 Li266 1.990 1_556 S
N311 C308 1.314 . S
N311 C309 1.279 . S
C312 C309 1.358 . S
C312 C313 1.356 . S
C312 H349 0.930 . S
C313 C310 1.348 . S
C313 C312 1.356 . S
H314 C308 0.930 . S
H315 C309 0.930 . S
C316 N317 1.314 . S
C316 C318 1.353 . S
C316 H322 0.930 . S
N317 Li267 1.990 . S
N317 C316 1.314 . S
N317 C320 1.279 . S
C318 C316 1.353 . S
C318 C321 1.348 . S
C318 H350 0.929 . S
C319 C320 1.358 . S
C319 C321 1.356 . S
C319 H351 0.930 . S
C320 N317 1.279 . S
C320 C319 1.358 . S
C320 H323 0.930 . S
C321 C318 1.348 . S
C321 C319 1.356 . S
H322 C316 0.930 . S
H323 C320 0.930 . S
O324 Li264 1.956 . S
O324 Li265 1.970 . S
O324 Li266 1.961 . S
O324 C268 1.325 . S
O325 Li264 1.970 . S
O325 Li265 1.956 . S
O325 Li267 1.961 . S
O325 C274 1.325 . S
O326 Li264 1.961 . S
O326 Li266 1.956 . S
O326 Li267 1.970 . S
O326 C296 1.325 . S
O327 Li265 1.961 . S
O327 Li266 1.970 . S
O327 Li267 1.956 . S
O327 C302 1.325 1_554 S
H328 C270 0.929 . S
H329 C271 0.930 . S
H330 C272 0.930 . S
H331 C273 0.930 . S
H332 C275 0.930 . S
H333 C277 0.929 . S
H334 C278 0.930 . S
H335 C279 0.930 . S
H336 C282 0.930 . S
H337 C285 0.929 . S
H338 C290 0.929 1_556 S
H339 C291 0.930 . S
H340 C298 0.929 . S
H341 C299 0.930 . S
H342 C300 0.930 . S
H343 C301 0.930 . S
H344 C303 0.929 . S
H345 C304 0.930 1_554 S
H346 C305 0.930 . S
H347 C306 0.930 . S
H348 C310 0.929 . S
H349 C312 0.930 . S
H350 C318 0.929 . S
H351 C319 0.930 . S
Li352 N369 1.990 . S
Li352 O412 1.956 . S
Li352 O413 1.970 . S
Li352 O414 1.961 . S
Li353 N377 1.990 . S
Li353 O412 1.970 . S
Li353 O413 1.956 . S
Li353 O415 1.961 . S
Li354 N399 1.990 . S
Li354 O412 1.961 . S
Li354 O414 1.956 . S
Li354 O415 1.970 . S
Li355 N405 1.990 . S
Li355 O413 1.961 . S
Li355 O414 1.970 . S
Li355 O415 1.956 . S
C356 C358 1.348 . S
C356 C359 1.356 . S
C356 O412 1.325 . S
N357 C360 1.314 . S
N357 C361 1.279 . S
C358 C356 1.348 . S
C358 C360 1.353 . S
C358 H416 0.929 . S
C359 C356 1.356 . S
C359 C361 1.358 . S
C359 H417 0.930 . S
C360 N357 1.314 . S
C360 C358 1.353 . S
C360 H418 0.930 . S
C361 N357 1.279 . S
C361 C359 1.358 . S
C361 H419 0.930 . S
C362 C365 1.348 . S
C362 C366 1.356 . S
C362 O413 1.325 . S
C363 N364 1.279 . S
C363 C366 1.358 . S
C363 H420 0.930 . S
N364 C363 1.279 . S
N364 C367 1.314 . S
C365 C362 1.348 . S
C365 C367 1.353 . S
C365 H421 0.929 . S
C366 C362 1.356 . S
C366 C363 1.358 . S
C366 H422 0.930 . S
C367 N364 1.314 . S
C367 C365 1.353 . S
C367 H423 0.930 . S
C368 N369 1.314 . S
C368 C373 1.353 . S
C368 H374 0.930 . S
N369 Li352 1.990 . S
N369 C368 1.314 . S
N369 C371 1.279 . S
C370 C371 1.358 . S
C370 C372 1.356 . S
C370 H424 0.930 . S
C371 N369 1.279 . S
C371 C370 1.358 . S
C371 H375 0.930 . S
C372 C370 1.356 . S
C372 C373 1.348 . S
C373 C368 1.353 . S
C373 C372 1.348 . S
C373 H425 0.929 . S
H374 C368 0.930 . S
H375 C371 0.930 . S
C376 N377 1.314 . S
C376 C378 1.353 1_455 S
C376 H382 0.930 . S
N377 Li353 1.990 . S
N377 C376 1.314 . S
N377 C380 1.279 . S
C378 C376 1.353 1_655 S
C378 C381 1.348 . S
C378 H426 0.929 . S
C379 C380 1.358 . S
C379 C381 1.356 1_455 S
C379 H427 0.930 . S
C380 N377 1.279 . S
C380 C379 1.358 . S
C380 H383 0.930 . S
C381 C378 1.348 . S
C381 C379 1.356 1_655 S
H382 C376 0.930 . S
H383 C380 0.930 . S
C384 C386 1.348 . S
C384 C387 1.356 . S
C384 O414 1.325 . S
N385 C388 1.314 . S
N385 C389 1.279 . S
C386 C384 1.348 . S
C386 C388 1.353 . S
C386 H428 0.929 . S
C387 C384 1.356 . S
C387 C389 1.358 . S
C387 H429 0.930 . S
C388 N385 1.314 . S
C388 C386 1.353 . S
C388 H430 0.930 . S
C389 N385 1.279 . S
C389 C387 1.358 . S
C389 H431 0.930 . S
C390 C391 1.348 . S
C390 C392 1.356 . S
C390 O415 1.325 1_655 S
C391 C390 1.348 . S
C391 C393 1.353 . S
C391 H432 0.929 . S
C392 C390 1.356 . S
C392 C394 1.358 . S
C392 H433 0.930 . S
C393 C391 1.353 . S
C393 N395 1.314 . S
C393 H434 0.930 . S
C394 C392 1.358 . S
C394 N395 1.279 . S
C394 H435 0.930 . S
N395 C393 1.314 . S
N395 C394 1.279 . S
C396 C398 1.353 . S
C396 N399 1.314 . S
C396 H402 0.930 . S
C397 N399 1.279 . S
C397 C400 1.358 . S
C397 H403 0.930 . S
C398 C396 1.353 . S
C398 C401 1.348 . S
C398 H436 0.929 . S
N399 Li354 1.990 . S
N399 C396 1.314 . S
N399 C397 1.279 . S
C400 C397 1.358 . S
C400 C401 1.356 . S
C400 H437 0.930 . S
C401 C398 1.348 . S
C401 C400 1.356 . S
H402 C396 0.930 . S
H403 C397 0.930 . S
C404 N405 1.314 . S
C404 C406 1.364 . S
C404 H410 0.930 . S
N405 Li355 1.990 . S
N405 C404 1.314 . S
N405 C408 1.279 1_455 S
C406 C404 1.364 . S
C406 C409 1.338 1_455 S
C406 H438 0.928 . S
C407 C408 1.358 . S
C407 C409 1.356 . S
C407 H439 0.930 . S
C408 N405 1.279 1_655 S
C408 C407 1.358 . S
C408 H411 0.930 . S
C409 C406 1.338 1_655 S
C409 C407 1.356 . S
H410 C404 0.930 . S
H411 C408 0.930 . S
O412 Li352 1.956 . S
O412 Li353 1.970 . S
O412 Li354 1.961 . S
O412 C356 1.325 . S
O413 Li352 1.970 . S
O413 Li353 1.956 . S
O413 Li355 1.961 . S
O413 C362 1.325 . S
O414 Li352 1.961 . S
O414 Li354 1.956 . S
O414 Li355 1.970 . S
O414 C384 1.325 . S
O415 Li353 1.961 . S
O415 Li354 1.970 . S
O415 Li355 1.956 . S
O415 C390 1.325 1_455 S
H416 C358 0.929 . S
H417 C359 0.930 . S
H418 C360 0.930 . S
H419 C361 0.930 . S
H420 C363 0.930 . S
H421 C365 0.929 . S
H422 C366 0.930 . S
H423 C367 0.930 . S
H424 C370 0.930 . S
H425 C373 0.929 . S
H426 C378 0.929 . S
H427 C379 0.930 . S
H428 C386 0.929 . S
H429 C387 0.930 . S
H430 C388 0.930 . S
H431 C389 0.930 . S
H432 C391 0.929 . S
H433 C392 0.930 . S
H434 C393 0.930 . S
H435 C394 0.930 . S
H436 C398 0.929 . S
H437 C400 0.930 . S
H438 C406 0.928 . S
H439 C407 0.930 . S
Li440 N457 1.990 . S
Li440 O500 1.956 . S
Li440 O501 1.970 . S
Li440 O502 1.961 . S
Li441 N465 1.990 . S
Li441 O500 1.970 . S
Li441 O501 1.956 . S
Li441 O503 1.961 . S
Li442 N487 1.990 . S
Li442 O500 1.961 . S
Li442 O502 1.956 . S
Li442 O503 1.970 . S
Li443 N493 1.990 . S
Li443 O501 1.961 . S
Li443 O502 1.970 . S
Li443 O503 1.956 . S
C444 C446 1.348 . S
C444 C447 1.356 . S
C444 O500 1.325 . S
N445 C448 1.314 . S
N445 C449 1.279 . S
C446 C444 1.348 . S
C446 C448 1.353 . S
C446 H504 0.929 . S
C447 C444 1.356 . S
C447 C449 1.358 . S
C447 H505 0.930 . S
C448 N445 1.314 . S
C448 C446 1.353 . S
C448 H506 0.930 . S
C449 N445 1.279 . S
C449 C447 1.358 . S
C449 H507 0.930 . S
C450 C453 1.348 . S
C450 C454 1.356 . S
C450 O501 1.325 . S
C451 N452 1.279 . S
C451 C454 1.358 . S
C451 H508 0.930 . S
N452 C451 1.279 . S
N452 C455 1.314 . S
C453 C450 1.348 . S
C453 C455 1.353 . S
C453 H509 0.929 . S
C454 C450 1.356 . S
C454 C451 1.358 . S
C454 H510 0.930 . S
C455 N452 1.314 . S
C455 C453 1.353 . S
C455 H511 0.930 . S
C456 N457 1.314 . S
C456 C461 1.353 . S
C456 H462 0.930 . S
N457 Li440 1.990 . S
N457 C456 1.314 . S
N457 C459 1.279 . S
C458 C459 1.358 . S
C458 C460 1.356 . S
C458 H512 0.930 . S
C459 N457 1.279 . S
C459 C458 1.358 . S
C459 H463 0.930 . S
C460 C458 1.356 . S
C460 C461 1.348 . S
C461 C456 1.353 . S
C461 C460 1.348 . S
C461 H513 0.929 . S
H462 C456 0.930 . S
H463 C459 0.930 . S
C464 N465 1.314 . S
C464 C466 1.353 1_545 S
C464 H470 0.930 . S
N465 Li441 1.990 . S
N465 C464 1.314 . S
N465 C468 1.279 . S
C466 C464 1.353 1_565 S
C466 C469 1.348 . S
C466 H514 0.929 . S
C467 C468 1.358 . S
C467 C469 1.356 1_545 S
C467 H515 0.930 . S
C468 N465 1.279 . S
C468 C467 1.358 . S
C468 H471 0.930 . S
C469 C466 1.348 . S
C469 C467 1.356 1_565 S
H470 C464 0.930 . S
H471 C468 0.930 . S
C472 C474 1.348 . S
C472 C475 1.356 . S
C472 O502 1.325 . S
N473 C476 1.314 . S
N473 C477 1.279 . S
C474 C472 1.348 . S
C474 C476 1.353 . S
C474 H516 0.929 . S
C475 C472 1.356 . S
C475 C477 1.358 . S
C475 H517 0.930 . S
C476 N473 1.314 . S
C476 C474 1.353 . S
C476 H518 0.930 . S
C477 N473 1.279 . S
C477 C475 1.358 . S
C477 H519 0.930 . S
C478 C479 1.348 . S
C478 C480 1.356 . S
C478 O503 1.325 1_565 S
C479 C478 1.348 . S
C479 C481 1.353 . S
C479 H520 0.929 . S
C480 C478 1.356 . S
C480 C482 1.358 . S
C480 H521 0.930 . S
C481 C479 1.353 . S
C481 N483 1.314 . S
C481 H522 0.930 . S
C482 C480 1.358 . S
C482 N483 1.279 . S
C482 H523 0.930 . S
N483 C481 1.314 . S
N483 C482 1.279 . S
C484 C486 1.353 . S
C484 N487 1.314 . S
C484 H490 0.930 . S
C485 N487 1.279 . S
C485 C488 1.358 . S
C485 H491 0.930 . S
C486 C484 1.353 . S
C486 C489 1.348 . S
C486 H524 0.929 . S
N487 Li442 1.990 . S
N487 C484 1.314 . S
N487 C485 1.279 . S
C488 C485 1.358 . S
C488 C489 1.356 . S
C488 H525 0.930 . S
C489 C486 1.348 . S
C489 C488 1.356 . S
H490 C484 0.930 . S
H491 C485 0.930 . S
C492 N493 1.314 . S
C492 C494 1.358 . S
C492 H498 0.930 . S
N493 Li443 1.990 . S
N493 C492 1.314 . S
N493 C496 1.279 1_545 S
C494 C492 1.358 . S
C494 C497 1.329 1_545 S
C494 H526 0.943 . S
C495 C496 1.358 . S
C495 C497 1.356 . S
C495 H527 0.930 . S
C496 N493 1.279 1_565 S
C496 C495 1.358 . S
C496 H499 0.930 . S
C497 C494 1.329 1_565 S
C497 C495 1.356 . S
H498 C492 0.930 . S
H499 C496 0.930 . S
O500 Li440 1.956 . S
O500 Li441 1.970 . S
O500 Li442 1.961 . S
O500 C444 1.325 . S
O501 Li440 1.970 . S
O501 Li441 1.956 . S
O501 Li443 1.961 . S
O501 C450 1.325 . S
O502 Li440 1.961 . S
O502 Li442 1.956 . S
O502 Li443 1.970 . S
O502 C472 1.325 . S
O503 Li441 1.961 . S
O503 Li442 1.970 . S
O503 Li443 1.956 . S
O503 C478 1.325 1_545 S
H504 C446 0.929 . S
H505 C447 0.930 . S
H506 C448 0.930 . S
H507 C449 0.930 . S
H508 C451 0.930 . S
H509 C453 0.929 . S
H510 C454 0.930 . S
H511 C455 0.930 . S
H512 C458 0.930 . S
H513 C461 0.929 . S
H514 C466 0.929 . S
H515 C467 0.930 . S
H516 C474 0.929 . S
H517 C475 0.930 . S
H518 C476 0.930 . S
H519 C477 0.930 . S
H520 C479 0.929 . S
H521 C480 0.930 . S
H522 C481 0.930 . S
H523 C482 0.930 . S
H524 C486 0.929 . S
H525 C488 0.930 . S
H526 C494 0.943 . S
H527 C495 0.930 . S
Li528 N545 1.990 . S
Li528 O588 1.956 . S
Li528 O589 1.970 . S
Li528 O590 1.961 . S
Li529 N553 1.990 . S
Li529 O588 1.970 . S
Li529 O589 1.956 . S
Li529 O591 1.961 . S
Li530 N575 1.990 . S
Li530 O588 1.961 . S
Li530 O590 1.956 . S
Li530 O591 1.970 . S
Li531 N581 1.990 . S
Li531 O589 1.961 . S
Li531 O590 1.970 . S
Li531 O591 1.956 . S
C532 C534 1.348 . S
C532 C535 1.356 . S
C532 O588 1.325 . S
N533 C536 1.314 . S
N533 C537 1.279 . S
C534 C532 1.348 . S
C534 C536 1.353 . S
C534 H592 0.929 . S
C535 C532 1.356 . S
C535 C537 1.358 . S
C535 H593 0.930 . S
C536 N533 1.314 . S
C536 C534 1.353 . S
C536 H594 0.930 . S
C537 N533 1.279 . S
C537 C535 1.358 . S
C537 H595 0.930 . S
C538 C541 1.348 . S
C538 C542 1.356 . S
C538 O589 1.325 . S
C539 N540 1.279 . S
C539 C542 1.358 . S
C539 H596 0.930 . S
N540 C539 1.279 . S
N540 C543 1.314 . S
C541 C538 1.348 . S
C541 C543 1.353 . S
C541 H597 0.929 . S
C542 C538 1.356 . S
C542 C539 1.358 . S
C542 H598 0.930 . S
C543 N540 1.314 . S
C543 C541 1.353 . S
C543 H599 0.930 . S
C544 N545 1.314 . S
C544 C549 1.353 . S
C544 H550 0.930 . S
N545 Li528 1.990 . S
N545 C544 1.314 . S
N545 C547 1.279 . S
C546 C547 1.358 . S
C546 C548 1.356 . S
C546 H600 0.930 . S
C547 N545 1.279 . S
C547 C546 1.358 . S
C547 H551 0.930 . S
C548 C546 1.356 . S
C548 C549 1.348 . S
C549 C544 1.353 . S
C549 C548 1.348 . S
C549 H601 0.929 . S
H550 C544 0.930 . S
H551 C547 0.930 . S
C552 N553 1.314 . S
C552 C554 1.353 . S
C552 H558 0.930 . S
N553 Li529 1.990 . S
N553 C552 1.314 . S
N553 C556 1.279 . S
C554 C552 1.353 . S
C554 C557 1.348 . S
C554 H602 0.929 . S
C555 C556 1.358 . S
C555 C557 1.356 . S
C555 H603 0.930 . S
C556 N553 1.279 . S
C556 C555 1.358 . S
C556 H559 0.930 . S
C557 C554 1.348 . S
C557 C555 1.356 . S
H558 C552 0.930 . S
H559 C556 0.930 . S
C560 C562 1.348 . S
C560 C563 1.356 . S
C560 O590 1.325 . S
N561 C564 1.314 . S
N561 C565 1.279 . S
C562 C560 1.348 . S
C562 C564 1.353 . S
C562 H604 0.929 . S
C563 C560 1.356 . S
C563 C565 1.358 . S
C563 H605 0.930 . S
C564 N561 1.314 . S
C564 C562 1.353 . S
C564 H606 0.930 . S
C565 N561 1.279 . S
C565 C563 1.358 . S
C565 H607 0.930 . S
C566 C567 1.348 . S
C566 C568 1.356 . S
C566 O591 1.325 . S
C567 C566 1.348 . S
C567 C569 1.353 . S
C567 H608 0.929 . S
C568 C566 1.356 . S
C568 C570 1.358 . S
C568 H609 0.930 . S
C569 C567 1.353 . S
C569 N571 1.314 . S
C569 H610 0.930 . S
C570 C568 1.358 . S
C570 N571 1.279 . S
C570 H611 0.930 . S
N571 C569 1.314 . S
N571 C570 1.279 . S
C572 C574 1.353 . S
C572 N575 1.314 . S
C572 H578 0.930 . S
C573 N575 1.279 . S
C573 C576 1.358 . S
C573 H579 0.930 . S
C574 C572 1.353 . S
C574 C577 1.348 . S
C574 H612 0.929 . S
N575 Li530 1.990 . S
N575 C572 1.314 . S
N575 C573 1.279 . S
C576 C573 1.358 . S
C576 C577 1.356 . S
C576 H613 0.930 . S
C577 C574 1.348 . S
C577 C576 1.356 . S
H578 C572 0.930 . S
H579 C573 0.930 . S
C580 N581 1.314 . S
C580 C582 1.353 . S
C580 H586 0.930 . S
N581 Li531 1.990 . S
N581 C580 1.314 . S
N581 C584 1.279 . S
C582 C580 1.353 . S
C582 C585 1.348 . S
C582 H614 0.929 . S
C583 C584 1.358 . S
C583 C585 1.356 . S
C583 H615 0.930 . S
C584 N581 1.279 . S
C584 C583 1.358 . S
C584 H587 0.930 . S
C585 C582 1.348 . S
C585 C583 1.356 . S
H586 C580 0.930 . S
H587 C584 0.930 . S
O588 Li528 1.956 . S
O588 Li529 1.970 . S
O588 Li530 1.961 . S
O588 C532 1.325 . S
O589 Li528 1.970 . S
O589 Li529 1.956 . S
O589 Li531 1.961 . S
O589 C538 1.325 . S
O590 Li528 1.961 . S
O590 Li530 1.956 . S
O590 Li531 1.970 . S
O590 C560 1.325 . S
O591 Li529 1.961 . S
O591 Li530 1.970 . S
O591 Li531 1.956 . S
O591 C566 1.325 . S
H592 C534 0.929 . S
H593 C535 0.930 . S
H594 C536 0.930 . S
H595 C537 0.930 . S
H596 C539 0.930 . S
H597 C541 0.929 . S
H598 C542 0.930 . S
H599 C543 0.930 . S
H600 C546 0.930 . S
H601 C549 0.929 . S
H602 C554 0.929 . S
H603 C555 0.930 . S
H604 C562 0.929 . S
H605 C563 0.930 . S
H606 C564 0.930 . S
H607 C565 0.930 . S
H608 C567 0.929 . S
H609 C568 0.930 . S
H610 C569 0.930 . S
H611 C570 0.930 . S
H612 C574 0.929 . S
H613 C576 0.930 . S
H614 C582 0.929 . S
H615 C583 0.930 . S
Li616 N633 1.990 . S
Li616 O676 1.956 . S
Li616 O677 1.970 . S
Li616 O678 1.961 . S
Li617 N641 1.990 1_556 S
Li617 O676 1.970 . S
Li617 O677 1.956 . S
Li617 O679 1.961 . S
Li618 N663 1.990 . S
Li618 O676 1.961 . S
Li618 O678 1.956 . S
Li618 O679 1.970 . S
Li619 N669 1.990 . S
Li619 O677 1.961 . S
Li619 O678 1.970 . S
Li619 O679 1.956 . S
C620 C622 1.348 . S
C620 C623 1.356 . S
C620 O676 1.325 1_554 S
N621 C624 1.314 . S
N621 C625 1.279 . S
C622 C620 1.348 . S
C622 C624 1.353 . S
C622 H680 0.929 . S
C623 C620 1.356 . S
C623 C625 1.358 . S
C623 H681 0.930 1_554 S
C624 N621 1.314 . S
C624 C622 1.353 . S
C624 H682 0.930 . S
C625 N621 1.279 . S
C625 C623 1.358 . S
C625 H683 0.930 . S
C626 C629 1.348 . S
C626 C630 1.356 . S
C626 O677 1.325 1_455 S
C627 N628 1.279 . S
C627 C630 1.358 . S
C627 H684 0.930 . S
N628 C627 1.279 . S
N628 C631 1.314 . S
C629 C626 1.348 . S
C629 C631 1.353 . S
C629 H685 0.929 . S
C630 C626 1.356 . S
C630 C627 1.358 . S
C630 H686 0.930 . S
C631 N628 1.314 . S
C631 C629 1.353 . S
C631 H687 0.930 . S
C632 N633 1.314 . S
C632 C637 1.353 . S
C632 H638 0.930 . S
N633 Li616 1.990 . S
N633 C632 1.314 . S
N633 C635 1.279 . S
C634 C635 1.358 . S
C634 C636 1.356 . S
C634 H688 0.930 . S
C635 N633 1.279 . S
C635 C634 1.358 . S
C635 H639 0.930 . S
C636 C634 1.356 . S
C636 C637 1.348 . S
C637 C632 1.353 . S
C637 C636 1.348 . S
C637 H689 0.929 . S
H638 C632 0.930 . S
H639 C635 0.930 . S
C640 N641 1.314 . S
C640 C642 1.358 . S
C640 H646 0.930 . S
N641 Li617 1.990 1_554 S
N641 C640 1.314 . S
N641 C644 1.279 1_655 S
C642 C640 1.358 . S
C642 C645 1.329 1_655 S
C642 H690 0.943 . S
C643 C644 1.358 . S
C643 C645 1.356 . S
C643 H691 0.930 . S
C644 N641 1.279 1_455 S
C644 C643 1.358 . S
C644 H647 0.930 . S
C645 C642 1.329 1_455 S
C645 C643 1.356 . S
H646 C640 0.930 . S
H647 C644 0.930 . S
C648 C650 1.348 . S
C648 C651 1.356 . S
C648 O678 1.325 . S
N649 C652 1.314 . S
N649 C653 1.279 . S
C650 C648 1.348 . S
C650 C652 1.353 . S
C650 H692 0.929 . S
C651 C648 1.356 . S
C651 C653 1.358 . S
C651 H693 0.930 . S
C652 N649 1.314 . S
C652 C650 1.353 . S
C652 H694 0.930 . S
C653 N649 1.279 . S
C653 C651 1.358 . S
C653 H695 0.930 . S
C654 C655 1.348 . S
C654 C656 1.356 . S
C654 O679 1.325 . S
C655 C654 1.348 . S
C655 C657 1.353 . S
C655 H696 0.929 . S
C656 C654 1.356 . S
C656 C658 1.358 . S
C656 H697 0.930 . S
C657 C655 1.353 . S
C657 N659 1.314 . S
C657 H698 0.930 . S
C658 C656 1.358 . S
C658 N659 1.279 . S
C658 H699 0.930 . S
N659 C657 1.314 . S
N659 C658 1.279 . S
C660 C662 1.353 . S
C660 N663 1.314 . S
C660 H666 0.930 . S
C661 N663 1.279 . S
C661 C664 1.358 . S
C661 H667 0.930 . S
C662 C660 1.353 . S
C662 C665 1.348 . S
C662 H700 0.929 1_556 S
N663 Li618 1.990 . S
N663 C660 1.314 . S
N663 C661 1.279 . S
C664 C661 1.358 . S
C664 C665 1.356 . S
C664 H701 0.930 . S
C665 C662 1.348 . S
C665 C664 1.356 . S
H666 C660 0.930 . S
H667 C661 0.930 . S
C668 N669 1.314 . S
C668 C670 1.353 1_655 S
C668 H674 0.930 . S
N669 Li619 1.990 . S
N669 C668 1.314 . S
N669 C672 1.279 . S
C670 C668 1.353 1_455 S
C670 C673 1.348 . S
C670 H702 0.929 . S
C671 C672 1.358 . S
C671 C673 1.356 1_655 S
C671 H703 0.930 . S
C672 N669 1.279 . S
C672 C671 1.358 . S
C672 H675 0.930 . S
C673 C670 1.348 . S
C673 C671 1.356 1_455 S
H674 C668 0.930 . S
H675 C672 0.930 . S
O676 Li616 1.956 . S
O676 Li617 1.970 . S
O676 Li618 1.961 . S
O676 C620 1.325 1_556 S
O677 Li616 1.970 . S
O677 Li617 1.956 . S
O677 Li619 1.961 . S
O677 C626 1.325 1_655 S
O678 Li616 1.961 . S
O678 Li618 1.956 . S
O678 Li619 1.970 . S
O678 C648 1.325 . S
O679 Li617 1.961 . S
O679 Li618 1.970 . S
O679 Li619 1.956 . S
O679 C654 1.325 . S
H680 C622 0.929 . S
H681 C623 0.930 1_556 S
H682 C624 0.930 . S
H683 C625 0.930 . S
H684 C627 0.930 . S
H685 C629 0.929 . S
H686 C630 0.930 . S
H687 C631 0.930 . S
H688 C634 0.930 . S
H689 C637 0.929 . S
H690 C642 0.943 . S
H691 C643 0.930 . S
H692 C650 0.929 . S
H693 C651 0.930 . S
H694 C652 0.930 . S
H695 C653 0.930 . S
H696 C655 0.929 . S
H697 C656 0.930 . S
H698 C657 0.930 . S
H699 C658 0.930 . S
H700 C662 0.929 1_554 S
H701 C664 0.930 . S
H702 C670 0.929 . S
H703 C671 0.930 . S
Li704 N721 1.990 . S
Li704 O764 1.956 . S
Li704 O765 1.970 . S
Li704 O766 1.961 . S
Li705 N729 1.990 . S
Li705 O764 1.970 . S
Li705 O765 1.956 . S
Li705 O767 1.961 . S
Li706 N751 1.990 . S
Li706 O764 1.961 . S
Li706 O766 1.956 . S
Li706 O767 1.970 . S
Li707 N757 1.990 . S
Li707 O765 1.961 . S
Li707 O766 1.970 . S
Li707 O767 1.956 . S
C708 C710 1.348 . S
C708 C711 1.356 . S
C708 O764 1.325 1_545 S
N709 C712 1.314 . S
N709 C713 1.279 . S
C710 C708 1.348 . S
C710 C712 1.353 . S
C710 H768 0.929 . S
C711 C708 1.356 . S
C711 C713 1.358 . S
C711 H769 0.930 . S
C712 N709 1.314 . S
C712 C710 1.353 . S
C712 H770 0.930 . S
C713 N709 1.279 . S
C713 C711 1.358 . S
C713 H771 0.930 . S
C714 C717 1.348 . S
C714 C718 1.356 . S
C714 O765 1.325 . S
C715 N716 1.279 . S
C715 C718 1.358 . S
C715 H772 0.930 . S
N716 C715 1.279 . S
N716 C719 1.314 . S
C717 C714 1.348 . S
C717 C719 1.353 . S
C717 H773 0.929 . S
C718 C714 1.356 . S
C718 C715 1.358 . S
C718 H774 0.930 . S
C719 N716 1.314 . S
C719 C717 1.353 . S
C719 H775 0.930 . S
C720 N721 1.314 . S
C720 C725 1.364 . S
C720 H726 0.930 . S
N721 Li704 1.990 . S
N721 C720 1.314 . S
N721 C723 1.279 1_565 S
C722 C723 1.358 . S
C722 C724 1.356 . S
C722 H776 0.930 . S
C723 N721 1.279 1_545 S
C723 C722 1.358 . S
C723 H727 0.930 . S
C724 C722 1.356 . S
C724 C725 1.338 1_545 S
C725 C720 1.364 . S
C725 C724 1.338 1_565 S
C725 H777 0.928 . S
H726 C720 0.930 . S
H727 C723 0.930 . S
C728 N729 1.314 . S
C728 C730 1.353 . S
C728 H734 0.930 . S
N729 Li705 1.990 . S
N729 C728 1.314 . S
N729 C732 1.279 . S
C730 C728 1.353 . S
C730 C733 1.348 . S
C730 H778 0.929 . S
C731 C732 1.358 . S
C731 C733 1.356 . S
C731 H779 0.930 . S
C732 N729 1.279 . S
C732 C731 1.358 . S
C732 H735 0.930 . S
C733 C730 1.348 . S
C733 C731 1.356 . S
H734 C728 0.930 . S
H735 C732 0.930 . S
C736 C738 1.348 . S
C736 C739 1.356 . S
C736 O766 1.325 . S
N737 C740 1.314 . S
N737 C741 1.279 . S
C738 C736 1.348 . S
C738 C740 1.353 . S
C738 H780 0.929 . S
C739 C736 1.356 . S
C739 C741 1.358 . S
C739 H781 0.930 . S
C740 N737 1.314 . S
C740 C738 1.353 . S
C740 H782 0.930 . S
C741 N737 1.279 . S
C741 C739 1.358 . S
C741 H783 0.930 . S
C742 C743 1.348 . S
C742 C744 1.356 . S
C742 O767 1.325 . S
C743 C742 1.348 . S
C743 C745 1.353 . S
C743 H784 0.929 . S
C744 C742 1.356 . S
C744 C746 1.358 . S
C744 H785 0.930 . S
C745 C743 1.353 . S
C745 N747 1.314 . S
C745 H786 0.930 . S
C746 C744 1.358 . S
C746 N747 1.279 . S
C746 H787 0.930 . S
N747 C745 1.314 . S
N747 C746 1.279 . S
C748 C750 1.353 1_565 S
C748 N751 1.314 . S
C748 H754 0.930 . S
C749 N751 1.279 . S
C749 C752 1.358 . S
C749 H755 0.930 . S
C750 C748 1.353 1_545 S
C750 C753 1.348 . S
C750 H788 0.929 . S
N751 Li706 1.990 . S
N751 C748 1.314 . S
N751 C749 1.279 . S
C752 C749 1.358 . S
C752 C753 1.356 1_565 S
C752 H789 0.930 . S
C753 C750 1.348 . S
C753 C752 1.356 1_545 S
H754 C748 0.930 . S
H755 C749 0.930 . S
C756 N757 1.314 . S
C756 C758 1.353 . S
C756 H762 0.930 . S
N757 Li707 1.990 . S
N757 C756 1.314 . S
N757 C760 1.279 . S
C758 C756 1.353 . S
C758 C761 1.348 . S
C758 H790 0.929 . S
C759 C760 1.358 . S
C759 C761 1.356 . S
C759 H791 0.930 . S
C760 N757 1.279 . S
C760 C759 1.358 . S
C760 H763 0.930 . S
C761 C758 1.348 . S
C761 C759 1.356 . S
H762 C756 0.930 . S
H763 C760 0.930 . S
O764 Li704 1.956 . S
O764 Li705 1.970 . S
O764 Li706 1.961 . S
O764 C708 1.325 1_565 S
O765 Li704 1.970 . S
O765 Li705 1.956 . S
O765 Li707 1.961 . S
O765 C714 1.325 . S
O766 Li704 1.961 . S
O766 Li706 1.956 . S
O766 Li707 1.970 . S
O766 C736 1.325 . S
O767 Li705 1.961 . S
O767 Li706 1.970 . S
O767 Li707 1.956 . S
O767 C742 1.325 . S
H768 C710 0.929 . S
H769 C711 0.930 . S
H770 C712 0.930 . S
H771 C713 0.930 . S
H772 C715 0.930 . S
H773 C717 0.929 . S
H774 C718 0.930 . S
H775 C719 0.930 . S
H776 C722 0.930 . S
H777 C725 0.928 . S
H778 C730 0.929 . S
H779 C731 0.930 . S
H780 C738 0.929 . S
H781 C739 0.930 . S
H782 C740 0.930 . S
H783 C741 0.930 . S
H784 C743 0.929 . S
H785 C744 0.930 . S
H786 C745 0.930 . S
H787 C746 0.930 . S
H788 C750 0.929 . S
H789 C752 0.930 . S
H790 C758 0.929 . S
H791 C759 0.930 . S
Li792 N809 1.990 . S
Li792 O852 1.956 . S
Li792 O853 1.970 . S
Li792 O854 1.961 . S
Li793 N817 1.990 . S
Li793 O852 1.970 . S
Li793 O853 1.956 . S
Li793 O855 1.961 . S
Li794 N839 1.990 . S
Li794 O852 1.961 . S
Li794 O854 1.956 . S
Li794 O855 1.970 . S
Li795 N845 1.990 . S
Li795 O853 1.961 . S
Li795 O854 1.970 . S
Li795 O855 1.956 . S
C796 C798 1.348 . S
C796 C799 1.356 . S
C796 O852 1.325 . S
N797 C800 1.314 . S
N797 C801 1.279 . S
C798 C796 1.348 . S
C798 C800 1.353 . S
C798 H856 0.929 . S
C799 C796 1.356 . S
C799 C801 1.358 . S
C799 H857 0.930 . S
C800 N797 1.314 . S
C800 C798 1.353 . S
C800 H858 0.930 . S
C801 N797 1.279 . S
C801 C799 1.358 . S
C801 H859 0.930 . S
C802 C805 1.348 . S
C802 C806 1.356 . S
C802 O853 1.325 . S
C803 N804 1.279 . S
C803 C806 1.358 . S
C803 H860 0.930 . S
N804 C803 1.279 . S
N804 C807 1.314 . S
C805 C802 1.348 . S
C805 C807 1.353 . S
C805 H861 0.929 . S
C806 C802 1.356 . S
C806 C803 1.358 . S
C806 H862 0.930 . S
C807 N804 1.314 . S
C807 C805 1.353 . S
C807 H863 0.930 . S
C808 N809 1.314 . S
C808 C813 1.353 . S
C808 H814 0.930 . S
N809 Li792 1.990 . S
N809 C808 1.314 . S
N809 C811 1.279 . S
C810 C811 1.358 . S
C810 C812 1.356 . S
C810 H864 0.930 . S
C811 N809 1.279 . S
C811 C810 1.358 . S
C811 H815 0.930 . S
C812 C810 1.356 . S
C812 C813 1.348 . S
C813 C808 1.353 . S
C813 C812 1.348 . S
C813 H865 0.929 . S
H814 C808 0.930 . S
H815 C811 0.930 . S
C816 N817 1.314 . S
C816 C818 1.353 . S
C816 H822 0.930 . S
N817 Li793 1.990 . S
N817 C816 1.314 . S
N817 C820 1.279 . S
C818 C816 1.353 . S
C818 C821 1.348 . S
C818 H866 0.929 . S
C819 C820 1.358 . S
C819 C821 1.356 . S
C819 H867 0.930 . S
C820 N817 1.279 . S
C820 C819 1.358 . S
C820 H823 0.930 . S
C821 C818 1.348 . S
C821 C819 1.356 . S
H822 C816 0.930 . S
H823 C820 0.930 . S
C824 C826 1.348 . S
C824 C827 1.356 . S
C824 O854 1.325 . S
N825 C828 1.314 . S
N825 C829 1.279 . S
C826 C824 1.348 . S
C826 C828 1.353 . S
C826 H868 0.929 . S
C827 C824 1.356 . S
C827 C829 1.358 . S
C827 H869 0.930 . S
C828 N825 1.314 . S
C828 C826 1.353 . S
C828 H870 0.930 . S
C829 N825 1.279 . S
C829 C827 1.358 . S
C829 H871 0.930 . S
C830 C831 1.348 . S
C830 C832 1.356 . S
C830 O855 1.325 . S
C831 C830 1.348 . S
C831 C833 1.353 . S
C831 H872 0.929 . S
C832 C830 1.356 . S
C832 C834 1.358 . S
C832 H873 0.930 . S
C833 C831 1.353 . S
C833 N835 1.314 . S
C833 H874 0.930 . S
C834 C832 1.358 . S
C834 N835 1.279 . S
C834 H875 0.930 . S
N835 C833 1.314 . S
N835 C834 1.279 . S
C836 C838 1.353 . S
C836 N839 1.314 . S
C836 H842 0.930 . S
C837 N839 1.279 . S
C837 C840 1.358 . S
C837 H843 0.930 . S
C838 C836 1.353 . S
C838 C841 1.348 . S
C838 H876 0.929 . S
N839 Li794 1.990 . S
N839 C836 1.314 . S
N839 C837 1.279 . S
C840 C837 1.358 . S
C840 C841 1.356 . S
C840 H877 0.930 . S
C841 C838 1.348 . S
C841 C840 1.356 . S
H842 C836 0.930 . S
H843 C837 0.930 . S
C844 N845 1.314 . S
C844 C846 1.353 . S
C844 H850 0.930 . S
N845 Li795 1.990 . S
N845 C844 1.314 . S
N845 C848 1.279 . S
C846 C844 1.353 . S
C846 C849 1.348 . S
C846 H878 0.929 . S
C847 C848 1.358 . S
C847 C849 1.356 . S
C847 H879 0.930 . S
C848 N845 1.279 . S
C848 C847 1.358 . S
C848 H851 0.930 . S
C849 C846 1.348 . S
C849 C847 1.356 . S
H850 C844 0.930 . S
H851 C848 0.930 . S
O852 Li792 1.956 . S
O852 Li793 1.970 . S
O852 Li794 1.961 . S
O852 C796 1.325 . S
O853 Li792 1.970 . S
O853 Li793 1.956 . S
O853 Li795 1.961 . S
O853 C802 1.325 . S
O854 Li792 1.961 . S
O854 Li794 1.956 . S
O854 Li795 1.970 . S
O854 C824 1.325 . S
O855 Li793 1.961 . S
O855 Li794 1.970 . S
O855 Li795 1.956 . S
O855 C830 1.325 . S
H856 C798 0.929 . S
H857 C799 0.930 . S
H858 C800 0.930 . S
H859 C801 0.930 . S
H860 C803 0.930 . S
H861 C805 0.929 . S
H862 C806 0.930 . S
H863 C807 0.930 . S
H864 C810 0.930 . S
H865 C813 0.929 . S
H866 C818 0.929 . S
H867 C819 0.930 . S
H868 C826 0.929 . S
H869 C827 0.930 . S
H870 C828 0.930 . S
H871 C829 0.930 . S
H872 C831 0.929 . S
H873 C832 0.930 . S
H874 C833 0.930 . S
H875 C834 0.930 . S
H876 C838 0.929 . S
H877 C840 0.930 . S
H878 C846 0.929 . S
H879 C847 0.930 . S
Li880 N897 1.990 . S
Li880 O940 1.956 . S
Li880 O941 1.970 . S
Li880 O942 1.961 . S
Li881 N905 1.990 1_556 S
Li881 O940 1.970 . S
Li881 O941 1.956 . S
Li881 O943 1.961 . S
Li882 N927 1.990 . S
Li882 O940 1.961 . S
Li882 O942 1.956 . S
Li882 O943 1.970 . S
Li883 N933 1.990 . S
Li883 O941 1.961 . S
Li883 O942 1.970 . S
Li883 O943 1.956 . S
C884 C886 1.348 . S
C884 C887 1.356 . S
C884 O940 1.325 1_554 S
N885 C888 1.314 . S
N885 C889 1.279 . S
C886 C884 1.348 . S
C886 C888 1.353 . S
C886 H944 0.929 . S
C887 C884 1.356 . S
C887 C889 1.358 . S
C887 H945 0.930 1_554 S
C888 N885 1.314 . S
C888 C886 1.353 . S
C888 H946 0.930 . S
C889 N885 1.279 . S
C889 C887 1.358 . S
C889 H947 0.930 . S
C890 C893 1.348 . S
C890 C894 1.356 . S
C890 O941 1.325 1_655 S
C891 N892 1.279 . S
C891 C894 1.358 . S
C891 H948 0.930 . S
N892 C891 1.279 . S
N892 C895 1.314 . S
C893 C890 1.348 . S
C893 C895 1.353 . S
C893 H949 0.929 . S
C894 C890 1.356 . S
C894 C891 1.358 . S
C894 H950 0.930 . S
C895 N892 1.314 . S
C895 C893 1.353 . S
C895 H951 0.930 . S
C896 N897 1.314 . S
C896 C901 1.353 . S
C896 H902 0.930 . S
N897 Li880 1.990 . S
N897 C896 1.314 . S
N897 C899 1.279 . S
C898 C899 1.358 . S
C898 C900 1.356 . S
C898 H952 0.930 . S
C899 N897 1.279 . S
C899 C898 1.358 . S
C899 H903 0.930 . S
C900 C898 1.356 . S
C900 C901 1.348 . S
C901 C896 1.353 . S
C901 C900 1.348 . S
C901 H953 0.929 . S
H902 C896 0.930 . S
H903 C899 0.930 . S
C904 N905 1.314 . S
C904 C906 1.358 . S
C904 H910 0.930 . S
N905 Li881 1.990 1_554 S
N905 C904 1.314 . S
N905 C908 1.279 1_455 S
C906 C904 1.358 . S
C906 C909 1.329 1_455 S
C906 H954 0.943 . S
C907 C908 1.358 . S
C907 C909 1.356 . S
C907 H955 0.930 . S
C908 N905 1.279 1_655 S
C908 C907 1.358 . S
C908 H911 0.930 . S
C909 C906 1.329 1_655 S
C909 C907 1.356 . S
H910 C904 0.930 . S
H911 C908 0.930 . S
C912 C914 1.348 . S
C912 C915 1.356 . S
C912 O942 1.325 . S
N913 C916 1.314 . S
N913 C917 1.279 . S
C914 C912 1.348 . S
C914 C916 1.353 . S
C914 H956 0.929 . S
C915 C912 1.356 . S
C915 C917 1.358 . S
C915 H957 0.930 . S
C916 N913 1.314 . S
C916 C914 1.353 . S
C916 H958 0.930 . S
C917 N913 1.279 . S
C917 C915 1.358 . S
C917 H959 0.930 . S
C918 C919 1.348 . S
C918 C920 1.356 . S
C918 O943 1.325 . S
C919 C918 1.348 . S
C919 C921 1.353 . S
C919 H960 0.929 . S
C920 C918 1.356 . S
C920 C922 1.358 . S
C920 H961 0.930 . S
C921 C919 1.353 . S
C921 N923 1.314 . S
C921 H962 0.930 . S
C922 C920 1.358 . S
C922 N923 1.279 . S
C922 H963 0.930 . S
N923 C921 1.314 . S
N923 C922 1.279 . S
C924 C926 1.353 . S
C924 N927 1.314 . S
C924 H930 0.930 . S
C925 N927 1.279 . S
C925 C928 1.358 . S
C925 H931 0.930 . S
C926 C924 1.353 . S
C926 C929 1.348 . S
C926 H964 0.929 1_556 S
N927 Li882 1.990 . S
N927 C924 1.314 . S
N927 C925 1.279 . S
C928 C925 1.358 . S
C928 C929 1.356 . S
C928 H965 0.930 . S
C929 C926 1.348 . S
C929 C928 1.356 . S
H930 C924 0.930 . S
H931 C925 0.930 . S
C932 N933 1.314 . S
C932 C934 1.353 1_455 S
C932 H938 0.930 . S
N933 Li883 1.990 . S
N933 C932 1.314 . S
N933 C936 1.279 . S
C934 C932 1.353 1_655 S
C934 C937 1.348 . S
C934 H966 0.929 . S
C935 C936 1.358 . S
C935 C937 1.356 1_455 S
C935 H967 0.930 . S
C936 N933 1.279 . S
C936 C935 1.358 . S
C936 H939 0.930 . S
C937 C934 1.348 . S
C937 C935 1.356 1_655 S
H938 C932 0.930 . S
H939 C936 0.930 . S
O940 Li880 1.956 . S
O940 Li881 1.970 . S
O940 Li882 1.961 . S
O940 C884 1.325 1_556 S
O941 Li880 1.970 . S
O941 Li881 1.956 . S
O941 Li883 1.961 . S
O941 C890 1.325 1_455 S
O942 Li880 1.961 . S
O942 Li882 1.956 . S
O942 Li883 1.970 . S
O942 C912 1.325 . S
O943 Li881 1.961 . S
O943 Li882 1.970 . S
O943 Li883 1.956 . S
O943 C918 1.325 . S
H944 C886 0.929 . S
H945 C887 0.930 1_556 S
H946 C888 0.930 . S
H947 C889 0.930 . S
H948 C891 0.930 . S
H949 C893 0.929 . S
H950 C894 0.930 . S
H951 C895 0.930 . S
H952 C898 0.930 . S
H953 C901 0.929 . S
H954 C906 0.943 . S
H955 C907 0.930 . S
H956 C914 0.929 . S
H957 C915 0.930 . S
H958 C916 0.930 . S
H959 C917 0.930 . S
H960 C919 0.929 . S
H961 C920 0.930 . S
H962 C921 0.930 . S
H963 C922 0.930 . S
H964 C926 0.929 1_554 S
H965 C928 0.930 . S
H966 C934 0.929 . S
H967 C935 0.930 . S
Li968 N985 1.990 . S
Li968 O1028 1.956 . S
Li968 O1029 1.970 . S
Li968 O1030 1.961 . S
Li969 N993 1.990 . S
Li969 O1028 1.970 . S
Li969 O1029 1.956 . S
Li969 O1031 1.961 . S
Li970 N1015 1.990 . S
Li970 O1028 1.961 . S
Li970 O1030 1.956 . S
Li970 O1031 1.970 . S
Li971 N1021 1.990 . S
Li971 O1029 1.961 . S
Li971 O1030 1.970 . S
Li971 O1031 1.956 . S
C972 C974 1.348 . S
C972 C975 1.356 . S
C972 O1028 1.325 . S
N973 C976 1.314 . S
N973 C977 1.279 . S
C974 C972 1.348 . S
C974 C976 1.353 . S
C974 H1032 0.929 . S
C975 C972 1.356 . S
C975 C977 1.358 . S
C975 H1033 0.930 . S
C976 N973 1.314 . S
C976 C974 1.353 . S
C976 H1034 0.930 . S
C977 N973 1.279 . S
C977 C975 1.358 . S
C977 H1035 0.930 . S
C978 C981 1.348 . S
C978 C982 1.356 . S
C978 O1029 1.325 1_565 S
C979 N980 1.279 . S
C979 C982 1.358 . S
C979 H1036 0.930 . S
N980 C979 1.279 . S
N980 C983 1.314 . S
C981 C978 1.348 . S
C981 C983 1.353 . S
C981 H1037 0.929 . S
C982 C978 1.356 . S
C982 C979 1.358 . S
C982 H1038 0.930 . S
C983 N980 1.314 . S
C983 C981 1.353 . S
C983 H1039 0.930 . S
C984 N985 1.314 . S
C984 C989 1.353 . S
C984 H990 0.930 . S
N985 Li968 1.990 . S
N985 C984 1.314 . S
N985 C987 1.279 . S
C986 C987 1.358 . S
C986 C988 1.356 . S
C986 H1040 0.930 . S
C987 N985 1.279 . S
C987 C986 1.358 . S
C987 H991 0.930 . S
C988 C986 1.356 . S
C988 C989 1.348 . S
C989 C984 1.353 . S
C989 C988 1.348 . S
C989 H1041 0.929 . S
H990 C984 0.930 . S
H991 C987 0.930 . S
C992 N993 1.314 . S
C992 C994 1.364 . S
C992 H998 0.930 . S
N993 Li969 1.990 . S
N993 C992 1.314 . S
N993 C996 1.279 1_545 S
C994 C992 1.364 . S
C994 C997 1.338 1_545 S
C994 H1042 0.928 . S
C995 C996 1.358 . S
C995 C997 1.356 . S
C995 H1043 0.930 . S
C996 N993 1.279 1_565 S
C996 C995 1.358 . S
C996 H999 0.930 . S
C997 C994 1.338 1_565 S
C997 C995 1.356 . S
H998 C992 0.930 . S
H999 C996 0.930 . S
C1000 C1002 1.348 . S
C1000 C1003 1.356 . S
C1000 O1030 1.325 . S
N1001 C1004 1.314 . S
N1001 C1005 1.279 . S
C1002 C1000 1.348 . S
C1002 C1004 1.353 . S
C1002 H1044 0.929 . S
C1003 C1000 1.356 . S
C1003 C1005 1.358 . S
C1003 H1045 0.930 . S
C1004 N1001 1.314 . S
C1004 C1002 1.353 . S
C1004 H1046 0.930 . S
C1005 N1001 1.279 . S
C1005 C1003 1.358 . S
C1005 H1047 0.930 . S
C1006 C1007 1.348 . S
C1006 C1008 1.356 . S
C1006 O1031 1.325 . S
C1007 C1006 1.348 . S
C1007 C1009 1.353 . S
C1007 H1048 0.929 . S
C1008 C1006 1.356 . S
C1008 C1010 1.358 . S
C1008 H1049 0.930 . S
C1009 C1007 1.353 . S
C1009 N1011 1.314 . S
C1009 H1050 0.930 . S
C1010 C1008 1.358 . S
C1010 N1011 1.279 . S
C1010 H1051 0.930 . S
N1011 C1009 1.314 . S
N1011 C1010 1.279 . S
C1012 C1014 1.353 . S
C1012 N1015 1.314 . S
C1012 H1018 0.930 . S
C1013 N1015 1.279 . S
C1013 C1016 1.358 . S
C1013 H1019 0.930 . S
C1014 C1012 1.353 . S
C1014 C1017 1.348 . S
C1014 H1052 0.929 . S
N1015 Li970 1.990 . S
N1015 C1012 1.314 . S
N1015 C1013 1.279 . S
C1016 C1013 1.358 . S
C1016 C1017 1.356 . S
C1016 H1053 0.930 . S
C1017 C1014 1.348 . S
C1017 C1016 1.356 . S
H1018 C1012 0.930 . S
H1019 C1013 0.930 . S
C1020 N1021 1.314 . S
C1020 C1022 1.353 1_545 S
C1020 H1026 0.930 . S
N1021 Li971 1.990 . S
N1021 C1020 1.314 . S
N1021 C1024 1.279 . S
C1022 C1020 1.353 1_565 S
C1022 C1025 1.348 . S
C1022 H1054 0.929 . S
C1023 C1024 1.358 . S
C1023 C1025 1.356 1_545 S
C1023 H1055 0.930 . S
C1024 N1021 1.279 . S
C1024 C1023 1.358 . S
C1024 H1027 0.930 . S
C1025 C1022 1.348 . S
C1025 C1023 1.356 1_565 S
H1026 C1020 0.930 . S
H1027 C1024 0.930 . S
O1028 Li968 1.956 . S
O1028 Li969 1.970 . S
O1028 Li970 1.961 . S
O1028 C972 1.325 . S
O1029 Li968 1.970 . S
O1029 Li969 1.956 . S
O1029 Li971 1.961 . S
O1029 C978 1.325 1_545 S
O1030 Li968 1.961 . S
O1030 Li970 1.956 . S
O1030 Li971 1.970 . S
O1030 C1000 1.325 . S
O1031 Li969 1.961 . S
O1031 Li970 1.970 . S
O1031 Li971 1.956 . S
O1031 C1006 1.325 . S
H1032 C974 0.929 . S
H1033 C975 0.930 . S
H1034 C976 0.930 . S
H1035 C977 0.930 . S
H1036 C979 0.930 . S
H1037 C981 0.929 . S
H1038 C982 0.930 . S
H1039 C983 0.930 . S
H1040 C986 0.930 . S
H1041 C989 0.929 . S
H1042 C994 0.928 . S
H1043 C995 0.930 . S
H1044 C1002 0.929 . S
H1045 C1003 0.930 . S
H1046 C1004 0.930 . S
H1047 C1005 0.930 . S
H1048 C1007 0.929 . S
H1049 C1008 0.930 . S
H1050 C1009 0.930 . S
H1051 C1010 0.930 . S
H1052 C1014 0.929 . S
H1053 C1016 0.930 . S
H1054 C1022 0.929 . S
H1055 C1023 0.930 . S
H1056 C1062 0.930 . S
H1057 C1065 0.930 . S
H1058 C1066 0.930 . S
H1059 C1067 0.930 . S
H1060 C1070 0.930 . S
H1061 C1071 0.930 . S
C1062 H1056 0.930 . S
C1062 C1063 1.355 . S
C1062 C1064 1.415 . S
C1063 C1062 1.355 . S
C1063 C1065 1.419 . S
C1064 C1062 1.415 . S
C1064 C1069 1.425 . S
C1064 C1071 1.409 . S
C1065 H1057 0.930 . S
C1065 C1063 1.419 . S
C1065 C1066 1.362 . S
C1066 H1058 0.930 . S
C1066 C1065 1.362 . S
C1066 C1069 1.409 . S
C1067 H1059 0.930 . S
C1067 C1068 1.355 . S
C1067 C1069 1.415 . S
C1068 C1067 1.355 . S
C1068 C1070 1.419 . S
C1069 C1064 1.425 . S
C1069 C1066 1.409 . S
C1069 C1067 1.415 . S
C1070 H1060 0.930 . S
C1070 C1068 1.419 . S
C1070 C1071 1.362 . S
C1071 H1061 0.930 . S
C1071 C1064 1.409 . S
C1071 C1070 1.362 . S
H1072 C1078 0.930 . S
H1073 C1081 0.930 . S
H1074 C1082 0.930 . S
H1075 C1083 0.930 . S
H1076 C1086 0.930 . S
H1077 C1087 0.930 . S
C1078 H1072 0.930 . S
C1078 C1079 1.355 . S
C1078 C1080 1.415 . S
C1079 C1078 1.355 . S
C1079 C1081 1.419 1_455 S
C1080 C1078 1.415 . S
C1080 C1085 1.425 1_455 S
C1080 C1087 1.409 . S
C1081 H1073 0.930 . S
C1081 C1079 1.419 1_655 S
C1081 C1082 1.362 . S
C1082 H1074 0.930 . S
C1082 C1081 1.362 . S
C1082 C1085 1.409 . S
C1083 H1075 0.930 . S
C1083 C1084 1.355 . S
C1083 C1085 1.415 . S
C1084 C1083 1.355 . S
C1084 C1086 1.419 1_655 S
C1085 C1080 1.425 1_655 S
C1085 C1082 1.409 . S
C1085 C1083 1.415 . S
C1086 H1076 0.930 . S
C1086 C1084 1.419 1_455 S
C1086 C1087 1.362 . S
C1087 H1077 0.930 . S
C1087 C1080 1.409 . S
C1087 C1086 1.362 . S
H1088 C1094 0.930 . S
H1089 C1097 0.930 . S
H1090 C1098 0.930 . S
H1091 C1099 0.930 . S
H1092 C1102 0.930 . S
H1093 C1103 0.930 . S
C1094 H1088 0.930 . S
C1094 C1095 1.355 . S
C1094 C1096 1.415 . S
C1095 C1094 1.355 . S
C1095 C1097 1.419 1_545 S
C1096 C1094 1.415 . S
C1096 C1101 1.425 1_546 S
C1096 C1103 1.409 1_556 S
C1097 H1089 0.930 . S
C1097 C1095 1.419 1_565 S
C1097 C1098 1.362 . S
C1098 H1090 0.930 . S
C1098 C1097 1.362 . S
C1098 C1101 1.409 1_556 S
C1099 H1091 0.930 . S
C1099 C1100 1.355 . S
C1099 C1101 1.415 . S
C1100 C1099 1.355 . S
C1100 C1102 1.419 1_565 S
C1101 C1096 1.425 1_564 S
C1101 C1098 1.409 1_554 S
C1101 C1099 1.415 . S
C1102 H1092 0.930 . S
C1102 C1100 1.419 1_545 S
C1102 C1103 1.362 . S
C1103 H1093 0.930 . S
C1103 C1096 1.409 1_554 S
C1103 C1102 1.362 . S
H1104 C1110 0.930 . S
H1105 C1113 0.930 . S
H1106 C1114 0.930 . S
H1107 C1115 0.930 . S
H1108 C1118 0.930 . S
H1109 C1119 0.930 . S
C1110 H1104 0.930 . S
C1110 C1111 1.355 . S
C1110 C1112 1.415 . S
C1111 C1110 1.355 . S
C1111 C1113 1.419 . S
C1112 C1110 1.415 . S
C1112 C1117 1.425 . S
C1112 C1119 1.409 . S
C1113 H1105 0.930 . S
C1113 C1111 1.419 . S
C1113 C1114 1.362 . S
C1114 H1106 0.930 . S
C1114 C1113 1.362 . S
C1114 C1117 1.409 . S
C1115 H1107 0.930 . S
C1115 C1116 1.355 . S
C1115 C1117 1.415 . S
C1116 C1115 1.355 . S
C1116 C1118 1.419 . S
C1117 C1112 1.425 . S
C1117 C1114 1.409 . S
C1117 C1115 1.415 . S
C1118 H1108 0.930 . S
C1118 C1116 1.419 . S
C1118 C1119 1.362 . S
C1119 H1109 0.930 . S
C1119 C1112 1.409 . S
C1119 C1118 1.362 . S
H1120 C1126 0.930 . S
H1121 C1129 0.930 . S
H1122 C1130 0.930 . S
H1123 C1131 0.930 . S
H1124 C1134 0.930 . S
H1125 C1135 0.930 . S
C1126 H1120 0.930 . S
C1126 C1127 1.355 . S
C1126 C1128 1.415 . S
C1127 C1126 1.355 . S
C1127 C1129 1.419 1_455 S
C1128 C1126 1.415 . S
C1128 C1133 1.425 1_455 S
C1128 C1135 1.409 . S
C1129 H1121 0.930 . S
C1129 C1127 1.419 1_655 S
C1129 C1130 1.362 . S
C1130 H1122 0.930 . S
C1130 C1129 1.362 . S
C1130 C1133 1.409 . S
C1131 H1123 0.930 . S
C1131 C1132 1.355 . S
C1131 C1133 1.415 . S
C1132 C1131 1.355 . S
C1132 C1134 1.419 1_655 S
C1133 C1128 1.425 1_655 S
C1133 C1130 1.409 . S
C1133 C1131 1.415 . S
C1134 H1124 0.930 . S
C1134 C1132 1.419 1_455 S
C1134 C1135 1.362 . S
C1135 H1125 0.930 . S
C1135 C1128 1.409 . S
C1135 C1134 1.362 . S
H1136 C1142 0.930 . S
H1137 C1145 0.930 . S
H1138 C1146 0.930 . S
H1139 C1147 0.930 . S
H1140 C1150 0.930 . S
H1141 C1151 0.930 . S
C1142 H1136 0.930 . S
C1142 C1143 1.355 1_565 S
C1142 C1144 1.415 . S
C1143 C1142 1.355 1_545 S
C1143 C1145 1.419 . S
C1144 C1142 1.415 . S
C1144 C1149 1.425 1_564 S
C1144 C1151 1.409 1_554 S
C1145 H1137 0.930 . S
C1145 C1143 1.419 . S
C1145 C1146 1.362 . S
C1146 H1138 0.930 . S
C1146 C1145 1.362 . S
C1146 C1149 1.409 1_554 S
C1147 H1139 0.930 . S
C1147 C1148 1.355 1_545 S
C1147 C1149 1.415 . S
C1148 C1147 1.355 1_565 S
C1148 C1150 1.419 . S
C1149 C1144 1.425 1_546 S
C1149 C1146 1.409 1_556 S
C1149 C1147 1.415 . S
C1150 H1140 0.930 . S
C1150 C1148 1.419 . S
C1150 C1151 1.362 . S
C1151 H1141 0.930 . S
C1151 C1144 1.409 1_556 S
C1151 C1150 1.362 . S
H1152 C1158 0.930 1_554 S
H1153 C1161 0.930 . S
H1154 C1162 0.930 . S
H1155 C1163 0.930 1_556 S
H1156 C1166 0.930 . S
H1157 C1167 0.930 . S
C1158 H1152 0.930 1_556 S
C1158 C1159 1.355 . S
C1158 C1160 1.415 1_556 S
C1159 C1158 1.355 . S
C1159 C1161 1.419 . S
C1160 C1158 1.415 1_554 S
C1160 C1165 1.425 1_554 S
C1160 C1167 1.409 . S
C1161 H1153 0.930 . S
C1161 C1159 1.419 . S
C1161 C1162 1.362 . S
C1162 H1154 0.930 . S
C1162 C1161 1.362 . S
C1162 C1165 1.409 . S
C1163 H1155 0.930 1_554 S
C1163 C1164 1.355 . S
C1163 C1165 1.415 1_554 S
C1164 C1163 1.355 . S
C1164 C1166 1.419 . S
C1165 C1160 1.425 1_556 S
C1165 C1162 1.409 . S
C1165 C1163 1.415 1_556 S
C1166 H1156 0.930 . S
C1166 C1164 1.419 . S
C1166 C1167 1.362 . S
C1167 H1157 0.930 . S
C1167 C1160 1.409 . S
C1167 C1166 1.362 . S
H1168 C1174 0.930 . S
H1169 C1177 0.930 . S
H1170 C1178 0.930 . S
H1171 C1179 0.930 . S
H1172 C1182 0.930 . S
H1173 C1183 0.930 . S
C1174 H1168 0.930 . S
C1174 C1175 1.355 . S
C1174 C1176 1.415 . S
C1175 C1174 1.355 . S
C1175 C1177 1.419 . S
C1176 C1174 1.415 . S
C1176 C1181 1.425 . S
C1176 C1183 1.409 . S
C1177 H1169 0.930 . S
C1177 C1175 1.419 . S
C1177 C1178 1.362 . S
C1178 H1170 0.930 . S
C1178 C1177 1.362 . S
C1178 C1181 1.409 . S
C1179 H1171 0.930 . S
C1179 C1180 1.355 . S
C1179 C1181 1.415 . S
C1180 C1179 1.355 . S
C1180 C1182 1.419 . S
C1181 C1176 1.425 . S
C1181 C1178 1.409 . S
C1181 C1179 1.415 . S
C1182 H1172 0.930 . S
C1182 C1180 1.419 . S
C1182 C1183 1.362 . S
C1183 H1173 0.930 . S
C1183 C1176 1.409 . S
C1183 C1182 1.362 . S
H1184 C1190 0.930 . S
H1185 C1193 0.930 . S
H1186 C1194 0.930 . S
H1187 C1195 0.930 . S
H1188 C1198 0.930 . S
H1189 C1199 0.930 . S
C1190 H1184 0.930 . S
C1190 C1191 1.355 . S
C1190 C1192 1.415 . S
C1191 C1190 1.355 . S
C1191 C1193 1.419 . S
C1192 C1190 1.415 . S
C1192 C1197 1.425 . S
C1192 C1199 1.409 . S
C1193 H1185 0.930 . S
C1193 C1191 1.419 . S
C1193 C1194 1.362 . S
C1194 H1186 0.930 . S
C1194 C1193 1.362 . S
C1194 C1197 1.409 . S
C1195 H1187 0.930 . S
C1195 C1196 1.355 . S
C1195 C1197 1.415 . S
C1196 C1195 1.355 . S
C1196 C1198 1.419 . S
C1197 C1192 1.425 . S
C1197 C1194 1.409 . S
C1197 C1195 1.415 . S
C1198 H1188 0.930 . S
C1198 C1196 1.419 . S
C1198 C1199 1.362 . S
C1199 H1189 0.930 . S
C1199 C1192 1.409 . S
C1199 C1198 1.362 . S
H1200 C1206 0.930 1_556 S
H1201 C1209 0.930 . S
H1202 C1210 0.930 . S
H1203 C1211 0.930 1_554 S
H1204 C1214 0.930 . S
H1205 C1215 0.930 . S
C1206 H1200 0.930 1_554 S
C1206 C1207 1.355 . S
C1206 C1208 1.415 1_554 S
C1207 C1206 1.355 . S
C1207 C1209 1.419 . S
C1208 C1206 1.415 1_556 S
C1208 C1213 1.425 1_556 S
C1208 C1215 1.409 . S
C1209 H1201 0.930 . S
C1209 C1207 1.419 . S
C1209 C1210 1.362 . S
C1210 H1202 0.930 . S
C1210 C1209 1.362 . S
C1210 C1213 1.409 . S
C1211 H1203 0.930 1_556 S
C1211 C1212 1.355 . S
C1211 C1213 1.415 1_556 S
C1212 C1211 1.355 . S
C1212 C1214 1.419 . S
C1213 C1208 1.425 1_554 S
C1213 C1210 1.409 . S
C1213 C1211 1.415 1_554 S
C1214 H1204 0.930 . S
C1214 C1212 1.419 . S
C1214 C1215 1.362 . S
C1215 H1205 0.930 . S
C1215 C1208 1.409 . S
C1215 C1214 1.362 . S
H1216 C1222 0.930 . S
H1217 C1225 0.930 . S
H1218 C1226 0.930 . S
H1219 C1227 0.930 . S
H1220 C1230 0.930 . S
H1221 C1231 0.930 . S
C1222 H1216 0.930 . S
C1222 C1223 1.355 . S
C1222 C1224 1.415 . S
C1223 C1222 1.355 . S
C1223 C1225 1.419 . S
C1224 C1222 1.415 . S
C1224 C1229 1.425 . S
C1224 C1231 1.409 . S
C1225 H1217 0.930 . S
C1225 C1223 1.419 . S
C1225 C1226 1.362 . S
C1226 H1218 0.930 . S
C1226 C1225 1.362 . S
C1226 C1229 1.409 . S
C1227 H1219 0.930 . S
C1227 C1228 1.355 . S
C1227 C1229 1.415 . S
C1228 C1227 1.355 . S
C1228 C1230 1.419 . S
C1229 C1224 1.425 . S
C1229 C1226 1.409 . S
C1229 C1227 1.415 . S
C1230 H1220 0.930 . S
C1230 C1228 1.419 . S
C1230 C1231 1.362 . S
C1231 H1221 0.930 . S
C1231 C1224 1.409 . S
C1231 C1230 1.362 . S
H1232 C1238 0.930 . S
H1233 C1241 0.930 . S
H1234 C1242 0.930 . S
H1235 C1243 0.930 . S
H1236 C1246 0.930 . S
H1237 C1247 0.930 . S
C1238 H1232 0.930 . S
C1238 C1239 1.355 . S
C1238 C1240 1.415 . S
C1239 C1238 1.355 . S
C1239 C1241 1.419 . S
C1240 C1238 1.415 . S
C1240 C1245 1.425 . S
C1240 C1247 1.409 . S
C1241 H1233 0.930 . S
C1241 C1239 1.419 . S
C1241 C1242 1.362 . S
C1242 H1234 0.930 . S
C1242 C1241 1.362 . S
C1242 C1245 1.409 . S
C1243 H1235 0.930 . S
C1243 C1244 1.355 . S
C1243 C1245 1.415 . S
C1244 C1243 1.355 . S
C1244 C1246 1.419 . S
C1245 C1240 1.425 . S
C1245 C1242 1.409 . S
C1245 C1243 1.415 . S
C1246 H1236 0.930 . S
C1246 C1244 1.419 . S
C1246 C1247 1.362 . S
C1247 H1237 0.930 . S
C1247 C1240 1.409 . S
C1247 C1246 1.362 . S
H1248 C1254 0.930 . S
H1249 C1257 0.930 . S
H1250 C1258 0.930 . S
H1251 C1259 0.930 . S
H1252 C1262 0.930 . S
H1253 C1263 0.930 . S
C1254 H1248 0.930 . S
C1254 C1255 1.355 . S
C1254 C1256 1.415 . S
C1255 C1254 1.355 . S
C1255 C1257 1.419 . S
C1256 C1254 1.415 . S
C1256 C1261 1.425 . S
C1256 C1263 1.409 . S
C1257 H1249 0.930 . S
C1257 C1255 1.419 . S
C1257 C1258 1.362 . S
C1258 H1250 0.930 . S
C1258 C1257 1.362 . S
C1258 C1261 1.409 . S
C1259 H1251 0.930 . S
C1259 C1260 1.355 . S
C1259 C1261 1.415 . S
C1260 C1259 1.355 . S
C1260 C1262 1.419 . S
C1261 C1256 1.425 . S
C1261 C1258 1.409 . S
C1261 C1259 1.415 . S
C1262 H1252 0.930 . S
C1262 C1260 1.419 . S
C1262 C1263 1.362 . S
C1263 H1253 0.930 . S
C1263 C1256 1.409 . S
C1263 C1262 1.362 . S
H1264 C1270 0.930 . S
H1265 C1273 0.930 . S
H1266 C1274 0.930 . S
H1267 C1275 0.930 . S
H1268 C1278 0.930 . S
H1269 C1279 0.930 . S
C1270 H1264 0.930 . S
C1270 C1271 1.355 . S
C1270 C1272 1.415 . S
C1271 C1270 1.355 . S
C1271 C1273 1.419 . S
C1272 C1270 1.415 . S
C1272 C1277 1.425 1_455 S
C1272 C1279 1.409 . S
C1273 H1265 0.930 . S
C1273 C1271 1.419 . S
C1273 C1274 1.362 1_455 S
C1274 H1266 0.930 . S
C1274 C1273 1.362 1_655 S
C1274 C1277 1.409 . S
C1275 H1267 0.930 . S
C1275 C1276 1.355 . S
C1275 C1277 1.415 . S
C1276 C1275 1.355 . S
C1276 C1278 1.419 . S
C1277 C1272 1.425 1_655 S
C1277 C1274 1.409 . S
C1277 C1275 1.415 . S
C1278 H1268 0.930 . S
C1278 C1276 1.419 . S
C1278 C1279 1.362 1_655 S
C1279 H1269 0.930 . S
C1279 C1272 1.409 . S
C1279 C1278 1.362 1_455 S
H1280 C1286 0.930 1_565 S
H1281 C1289 0.930 . S
H1282 C1290 0.930 . S
H1283 C1291 0.930 1_545 S
H1284 C1294 0.930 . S
H1285 C1295 0.930 . S
C1286 H1280 0.930 1_545 S
C1286 C1287 1.355 . S
C1286 C1288 1.415 1_545 S
C1287 C1286 1.355 . S
C1287 C1289 1.419 . S
C1288 C1286 1.415 1_565 S
C1288 C1293 1.425 1_565 S
C1288 C1295 1.409 . S
C1289 H1281 0.930 . S
C1289 C1287 1.419 . S
C1289 C1290 1.362 . S
C1290 H1282 0.930 . S
C1290 C1289 1.362 . S
C1290 C1293 1.409 . S
C1291 H1283 0.930 1_565 S
C1291 C1292 1.355 . S
C1291 C1293 1.415 1_565 S
C1292 C1291 1.355 . S
C1292 C1294 1.419 . S
C1293 C1288 1.425 1_545 S
C1293 C1290 1.409 . S
C1293 C1291 1.415 1_545 S
C1294 H1284 0.930 . S
C1294 C1292 1.419 . S
C1294 C1295 1.362 . S
C1295 H1285 0.930 . S
C1295 C1288 1.409 . S
C1295 C1294 1.362 . S
H1296 C1302 0.930 . S
H1297 C1305 0.930 . S
H1298 C1306 0.930 . S
H1299 C1307 0.930 . S
H1300 C1310 0.930 . S
H1301 C1311 0.930 . S
C1302 H1296 0.930 . S
C1302 C1303 1.355 . S
C1302 C1304 1.415 . S
C1303 C1302 1.355 . S
C1303 C1305 1.419 . S
C1304 C1302 1.415 . S
C1304 C1309 1.425 . S
C1304 C1311 1.409 . S
C1305 H1297 0.930 . S
C1305 C1303 1.419 . S
C1305 C1306 1.362 . S
C1306 H1298 0.930 . S
C1306 C1305 1.362 . S
C1306 C1309 1.409 . S
C1307 H1299 0.930 . S
C1307 C1308 1.355 . S
C1307 C1309 1.415 . S
C1308 C1307 1.355 . S
C1308 C1310 1.419 . S
C1309 C1304 1.425 . S
C1309 C1306 1.409 . S
C1309 C1307 1.415 . S
C1310 H1300 0.930 . S
C1310 C1308 1.419 . S
C1310 C1311 1.362 . S
C1311 H1301 0.930 . S
C1311 C1304 1.409 . S
C1311 C1310 1.362 . S
H1312 C1318 0.930 . S
H1313 C1321 0.930 . S
H1314 C1322 0.930 . S
H1315 C1323 0.930 . S
H1316 C1326 0.930 . S
H1317 C1327 0.930 . S
C1318 H1312 0.930 . S
C1318 C1319 1.355 . S
C1318 C1320 1.415 1_655 S
C1319 C1318 1.355 . S
C1319 C1321 1.419 . S
C1320 C1318 1.415 1_455 S
C1320 C1325 1.425 1_455 S
C1320 C1327 1.409 . S
C1321 H1313 0.930 . S
C1321 C1319 1.419 . S
C1321 C1322 1.362 . S
C1322 H1314 0.930 . S
C1322 C1321 1.362 . S
C1322 C1325 1.409 . S
C1323 H1315 0.930 . S
C1323 C1324 1.355 . S
C1323 C1325 1.415 1_455 S
C1324 C1323 1.355 . S
C1324 C1326 1.419 . S
C1325 C1320 1.425 1_655 S
C1325 C1322 1.409 . S
C1325 C1323 1.415 1_655 S
C1326 H1316 0.930 . S
C1326 C1324 1.419 . S
C1326 C1327 1.362 . S
C1327 H1317 0.930 . S
C1327 C1320 1.409 . S
C1327 C1326 1.362 . S
H1328 C1334 0.930 . S
H1329 C1337 0.930 . S
H1330 C1338 0.930 . S
H1331 C1339 0.930 . S
H1332 C1342 0.930 . S
H1333 C1343 0.930 . S
C1334 H1328 0.930 . S
C1334 C1335 1.355 . S
C1334 C1336 1.415 . S
C1335 C1334 1.355 . S
C1335 C1337 1.419 . S
C1336 C1334 1.415 . S
C1336 C1341 1.425 1_545 S
C1336 C1343 1.409 1_545 S
C1337 H1329 0.930 . S
C1337 C1335 1.419 . S
C1337 C1338 1.362 . S
C1338 H1330 0.930 . S
C1338 C1337 1.362 . S
C1338 C1341 1.409 1_545 S
C1339 H1331 0.930 . S
C1339 C1340 1.355 . S
C1339 C1341 1.415 . S
C1340 C1339 1.355 . S
C1340 C1342 1.419 . S
C1341 C1336 1.425 1_565 S
C1341 C1338 1.409 1_565 S
C1341 C1339 1.415 . S
C1342 H1332 0.930 . S
C1342 C1340 1.419 . S
C1342 C1343 1.362 . S
C1343 H1333 0.930 . S
C1343 C1336 1.409 1_565 S
C1343 C1342 1.362 . S
H1344 C1350 0.930 . S
H1345 C1353 0.930 . S
H1346 C1354 0.930 . S
H1347 C1355 0.930 . S
H1348 C1358 0.930 . S
H1349 C1359 0.930 . S
C1350 H1344 0.930 . S
C1350 C1351 1.355 . S
C1350 C1352 1.415 . S
C1351 C1350 1.355 . S
C1351 C1353 1.419 . S
C1352 C1350 1.415 . S
C1352 C1357 1.425 . S
C1352 C1359 1.409 . S
C1353 H1345 0.930 . S
C1353 C1351 1.419 . S
C1353 C1354 1.362 . S
C1354 H1346 0.930 . S
C1354 C1353 1.362 . S
C1354 C1357 1.409 . S
C1355 H1347 0.930 . S
C1355 C1356 1.355 . S
C1355 C1357 1.415 . S
C1356 C1355 1.355 . S
C1356 C1358 1.419 . S
C1357 C1352 1.425 . S
C1357 C1354 1.409 . S
C1357 C1355 1.415 . S
C1358 H1348 0.930 . S
C1358 C1356 1.419 . S
C1358 C1359 1.362 . S
C1359 H1349 0.930 . S
C1359 C1352 1.409 . S
C1359 C1358 1.362 . S
H1360 C1366 0.930 . S
H1361 C1369 0.930 . S
H1362 C1370 0.930 1_655 S
H1363 C1371 0.930 . S
H1364 C1374 0.930 . S
H1365 C1375 0.930 1_455 S
C1366 H1360 0.930 . S
C1366 C1367 1.355 . S
C1366 C1368 1.415 . S
C1367 C1366 1.355 . S
C1367 C1369 1.419 . S
C1368 C1366 1.415 . S
C1368 C1373 1.425 1_455 S
C1368 C1375 1.409 1_455 S
C1369 H1361 0.930 . S
C1369 C1367 1.419 . S
C1369 C1370 1.362 . S
C1370 H1362 0.930 1_455 S
C1370 C1369 1.362 . S
C1370 C1373 1.409 1_455 S
C1371 H1363 0.930 . S
C1371 C1372 1.355 . S
C1371 C1373 1.415 . S
C1372 C1371 1.355 . S
C1372 C1374 1.419 . S
C1373 C1368 1.425 1_655 S
C1373 C1370 1.409 1_655 S
C1373 C1371 1.415 . S
C1374 H1364 0.930 . S
C1374 C1372 1.419 . S
C1374 C1375 1.362 . S
C1375 H1365 0.930 1_655 S
C1375 C1368 1.409 1_655 S
C1375 C1374 1.362 . S
H1376 C1382 0.930 . S
H1377 C1385 0.930 . S
H1378 C1386 0.930 . S
H1379 C1387 0.930 . S
H1380 C1390 0.930 . S
H1381 C1391 0.930 . S
C1382 H1376 0.930 . S
C1382 C1383 1.355 . S
C1382 C1384 1.415 . S
C1383 C1382 1.355 . S
C1383 C1385 1.419 . S
C1384 C1382 1.415 . S
C1384 C1389 1.425 1_565 S
C1384 C1391 1.409 1_565 S
C1385 H1377 0.930 . S
C1385 C1383 1.419 . S
C1385 C1386 1.362 . S
C1386 H1378 0.930 . S
C1386 C1385 1.362 . S
C1386 C1389 1.409 1_565 S
C1387 H1379 0.930 . S
C1387 C1388 1.355 . S
C1387 C1389 1.415 . S
C1388 C1387 1.355 . S
C1388 C1390 1.419 . S
C1389 C1384 1.425 1_545 S
C1389 C1386 1.409 1_545 S
C1389 C1387 1.415 . S
C1390 H1380 0.930 . S
C1390 C1388 1.419 . S
C1390 C1391 1.362 . S
C1391 H1381 0.930 . S
C1391 C1384 1.409 1_545 S
C1391 C1390 1.362 . S
H1392 C1398 0.930 . S
H1393 C1401 0.930 . S
H1394 C1402 0.930 . S
H1395 C1403 0.930 . S
H1396 C1406 0.930 . S
H1397 C1407 0.930 . S
C1398 H1392 0.930 . S
C1398 C1399 1.355 . S
C1398 C1400 1.415 . S
C1399 C1398 1.355 . S
C1399 C1401 1.419 . S
C1400 C1398 1.415 . S
C1400 C1405 1.425 . S
C1400 C1407 1.409 . S
C1401 H1393 0.930 . S
C1401 C1399 1.419 . S
C1401 C1402 1.362 . S
C1402 H1394 0.930 . S
C1402 C1401 1.362 . S
C1402 C1405 1.409 . S
C1403 H1395 0.930 . S
C1403 C1404 1.355 . S
C1403 C1405 1.415 . S
C1404 C1403 1.355 . S
C1404 C1406 1.419 . S
C1405 C1400 1.425 . S
C1405 C1402 1.409 . S
C1405 C1403 1.415 . S
C1406 H1396 0.930 . S
C1406 C1404 1.419 . S
C1406 C1407 1.362 . S
C1407 H1397 0.930 . S
C1407 C1400 1.409 . S
C1407 C1406 1.362 . S
H1408 C1414 0.930 . S
H1409 C1417 0.930 . S
H1410 C1418 0.930 . S
H1411 C1419 0.930 . S
H1412 C1422 0.930 . S
H1413 C1423 0.930 . S
C1414 H1408 0.930 . S
C1414 C1415 1.355 . S
C1414 C1416 1.415 . S
C1415 C1414 1.355 . S
C1415 C1417 1.419 . S
C1416 C1414 1.415 . S
C1416 C1421 1.425 1_655 S
C1416 C1423 1.409 . S
C1417 H1409 0.930 . S
C1417 C1415 1.419 . S
C1417 C1418 1.362 1_655 S
C1418 H1410 0.930 . S
C1418 C1417 1.362 1_455 S
C1418 C1421 1.409 . S
C1419 H1411 0.930 . S
C1419 C1420 1.355 . S
C1419 C1421 1.415 . S
C1420 C1419 1.355 . S
C1420 C1422 1.419 . S
C1421 C1416 1.425 1_455 S
C1421 C1418 1.409 . S
C1421 C1419 1.415 . S
C1422 H1412 0.930 . S
C1422 C1420 1.419 . S
C1422 C1423 1.362 1_455 S
C1423 H1413 0.930 . S
C1423 C1416 1.409 . S
C1423 C1422 1.362 1_655 S
H1424 C1430 0.930 . S
H1425 C1433 0.930 . S
H1426 C1434 0.930 . S
H1427 C1435 0.930 . S
H1428 C1438 0.930 . S
H1429 C1439 0.930 . S
C1430 H1424 0.930 . S
C1430 C1431 1.355 . S
C1430 C1432 1.415 . S
C1431 C1430 1.355 . S
C1431 C1433 1.419 . S
C1432 C1430 1.415 . S
C1432 C1437 1.425 1_545 S
C1432 C1439 1.409 . S
C1433 H1425 0.930 . S
C1433 C1431 1.419 . S
C1433 C1434 1.362 1_545 S
C1434 H1426 0.930 . S
C1434 C1433 1.362 1_565 S
C1434 C1437 1.409 . S
C1435 H1427 0.930 . S
C1435 C1436 1.355 . S
C1435 C1437 1.415 . S
C1436 C1435 1.355 . S
C1436 C1438 1.419 . S
C1437 C1432 1.425 1_565 S
C1437 C1434 1.409 . S
C1437 C1435 1.415 . S
C1438 H1428 0.930 . S
C1438 C1436 1.419 . S
C1438 C1439 1.362 1_565 S
C1439 H1429 0.930 . S
C1439 C1432 1.409 . S
C1439 C1438 1.362 1_545 S
C1063 C29 1.657 . S
C1068 C841 1.629 . S
C1079 C108 1.628 . S
C1084 C937 1.641 . S
C1095 C196 1.644 . S
C1100 C1025 1.627 . S
C1111 C284 1.636 . S
C1116 C577 1.671 . S
C1127 C673 1.657 . S
C1132 C381 1.629 . S
C1143 C753 1.672 . S
C1148 C469 1.697 . S
C1159 C929 1.379 . S
C1164 C20 1.369 . S
C1175 C117 1.335 . S
C1180 C1017 1.322 . S
C1191 C205 1.341 . S
C1196 C585 1.359 . S
C1207 C293 1.375 . S
C1212 C665 1.361 . S
C1223 C372 1.375 . S
C1228 C761 1.381 . S
C1239 C460 1.317 . S
C1244 C849 1.324 . S
C1255 C812 1.119 . S
C1260 C57 1.098 . S
C1271 C137 0.998 . S
C1276 C909 1.059 . S
C1287 C225 1.115 . S
C1292 C997 1.082 . S
C1303 C548 1.021 . S
C1308 C313 1.079 . S
C1319 C409 1.076 . S
C1324 C645 1.017 . S
C1335 C724 1.034 . S
C1340 C497 1.090 . S
C1351 C49 1.711 . S
C1356 C321 1.711 . S
C1367 C401 1.751 . S
C1372 C145 1.754 . S
C1383 C233 1.767 . S
C1388 C489 1.770 . S
C1399 C557 1.709 . S
C1404 C821 1.709 . S
C1415 C636 1.709 . S
C1420 C900 1.709 . S
C1431 C988 1.710 . S
C1436 C733 1.710 . S
