# Generated by pormake.
# Topology rkf, (6)-cn, num edge types: 1
# Building blocks:
#     Node 0, Type 0, BuildingBlock: VOLQOD_clean_sbu_1, # of connection points: 6
#     Node 1, Type 0, BuildingBlock: VOLQOD_clean_sbu_1, # of connection points: 6
#     Node 2, Type 0, BuildingBlock: VOLQOD_clean_sbu_1, # of connection points: 6
#     Node 3, Type 0, BuildingBlock: VOLQOD_clean_sbu_1, # of connection points: 6
#     Node 4, Type 0, BuildingBlock: VOLQOD_clean_sbu_1, # of connection points: 6
#     Node 5, Type 0, BuildingBlock: VOLQOD_clean_sbu_1, # of connection points: 6
#     Edge 6, Type (0, 0), BuildingBlock: MIFKUJ_clean_linker_0, # of connection points: 2
#     Edge 7, Type (0, 0), BuildingBlock: MIFKUJ_clean_linker_0, # of connection points: 2
#     Edge 8, Type (0, 0), BuildingBlock: MIFKUJ_clean_linker_0, # of connection points: 2
#     Edge 9, Type (0, 0), BuildingBlock: MIFKUJ_clean_linker_0, # of connection points: 2
#     Edge 10, Type (0, 0), BuildingBlock: MIFKUJ_clean_linker_0, # of connection points: 2
#     Edge 11, Type (0, 0), BuildingBlock: MIFKUJ_clean_linker_0, # of connection points: 2
#     Edge 12, Type (0, 0), BuildingBlock: MIFKUJ_clean_linker_0, # of connection points: 2
#     Edge 13, Type (0, 0), BuildingBlock: MIFKUJ_clean_linker_0, # of connection points: 2
#     Edge 14, Type (0, 0), BuildingBlock: MIFKUJ_clean_linker_0, # of connection points: 2
#     Edge 15, Type (0, 0), BuildingBlock: MIFKUJ_clean_linker_0, # of connection points: 2
#     Edge 16, Type (0, 0), BuildingBlock: MIFKUJ_clean_linker_0, # of connection points: 2
#     Edge 17, Type (0, 0), BuildingBlock: MIFKUJ_clean_linker_0, # of connection points: 2
#     Edge 18, Type (0, 0), BuildingBlock: MIFKUJ_clean_linker_0, # of connection points: 2
#     Edge 19, Type (0, 0), BuildingBlock: MIFKUJ_clean_linker_0, # of connection points: 2
#     Edge 20, Type (0, 0), BuildingBlock: MIFKUJ_clean_linker_0, # of connection points: 2
#     Edge 21, Type (0, 0), BuildingBlock: MIFKUJ_clean_linker_0, # of connection points: 2
#     Edge 22, Type (0, 0), BuildingBlock: MIFKUJ_clean_linker_0, # of connection points: 2
#     Edge 23, Type (0, 0), BuildingBlock: MIFKUJ_clean_linker_0, # of connection points: 2
# Relax obj value: 0.814
# Max RMSD: 0.323
# Mean RMSD: 0.323
data_MOF--net-rkf--node1-VOLQOD_clean_sbu_1--edge1-MIFKUJ_clean_linker_0
_symmetry_space_group_name_H-M    P1
_symmetry_Int_Tables_number       1
_symmetry_cell_setting            triclinic
loop_
_symmetry_equiv_pos_as_xyz
'x, y, z'
_cell_length_a     35.621352
_cell_length_b     35.846966
_cell_length_c     47.458845
_cell_angle_alpha  90.063232
_cell_angle_beta   89.978582
_cell_angle_gamma 120.07043
loop_
_atom_site_label
_atom_site_type_symbol
_atom_site_fract_x
_atom_site_fract_y
_atom_site_fract_z
_atom_type_partial_charge
O0 O 0.24242 0.10531 0.02289 0.0
Zn1 Zn 0.23604 0.04656 0.01675 0.0
O2 O 0.29255 0.05443 0.01123 0.0
Zn3 Zn 0.29217 0.02892 0.97578 0.0
Zn4 Zn 0.33392 0.11483 0.00788 0.0
Zn5 Zn 0.30857 0.02827 0.04024 0.0
O6 O 0.33625 0.00837 0.97699 0.0
O7 O 0.33307 0.99303 0.02271 0.0
O8 O 0.20264 0.02164 0.98089 0.0
O9 O 0.23109 0.9814 0.96947 0.0
O10 O 0.30217 0.07208 0.9446 0.0
O11 O 0.33547 0.13426 0.9676 0.0
O12 O 0.39038 0.12688 0.02529 0.0
O13 O 0.2069 0.00717 0.05012 0.0
O14 O 0.36235 0.07586 0.05842 0.0
O15 O 0.25756 0.99531 0.0686 0.0
C16 C 0.27449 0.1426 0.02851 0.0
C17 C 0.34722 0.99331 -0.00213 0.0
C18 C 0.31865 0.11295 0.94508 0.0
C19 C 0.20339 0.99335 0.96499 0.0
C20 C 0.39425 0.10993 0.04798 0.0
C21 C 0.21909 0.98993 0.06889 0.0
O22 O 0.31336 0.15016 0.02828 0.0
O23 O 0.23095 0.13617 0.27586 0.0
Zn24 Zn 0.29001 0.16934 0.29444 0.0
O25 O 0.29415 0.22204 0.3068 0.0
Zn26 Zn 0.31872 0.26557 0.279 0.0
Zn27 Zn 0.23689 0.20968 0.31516 0.0
Zn28 Zn 0.33109 0.2411 0.33856 0.0
O29 O 0.36079 0.322 0.29799 0.0
O30 O 0.38739 0.29482 0.32921 0.0
O31 O 0.34098 0.1856 0.26823 0.0
O32 O 0.35718 0.25212 0.25603 0.0
O33 O 0.27072 0.2664 0.25537 0.0
O34 O 0.21455 0.23246 0.28446 0.0
O35 O 0.23601 0.23631 0.35245 0.0
O36 O 0.29243 0.13704 0.32908 0.0
O37 O 0.30362 0.25965 0.36703 0.0
O38 O 0.3339 0.1919 0.35739 0.0
C39 C 0.19682 0.12637 0.29007 0.0
C40 C 0.39036 0.32677 0.31537 0.0
C41 C 0.2309 0.25258 0.26152 0.0
C42 C 0.36442 0.22075 0.25484 0.0
C43 C 0.26648 0.25581 0.37034 0.0
C44 C 0.3128 0.15147 0.35231 0.0
O45 O 0.19996 0.14481 0.31369 0.0
O46 O 0.99882 0.14453 0.68094 0.0
Zn47 Zn 0.05015 0.20399 0.68464 0.0
O48 O 0.02765 0.24199 0.68868 0.0
Zn49 Zn 0.03582 0.27388 0.65507 0.0
Zn50 Zn 0.9661 0.20919 0.69432 0.0
Zn51 Zn 0.05711 0.28251 0.71813 0.0
O52 O 0.0528 0.33507 0.66439 0.0
O53 O 0.09452 0.34132 0.70115 0.0
O54 O 0.08994 0.22084 0.6505 0.0
O55 O 0.08649 0.27796 0.63574 0.0
O56 O 0.98544 0.24103 0.62787 0.0
O57 O 0.93433 0.19715 0.65745 0.0
O58 O 0.94799 0.23919 0.7222 0.0
O59 O 0.08386 0.20653 0.71959 0.0
O60 O 0.01189 0.28767 0.74031 0.0
O61 O 0.09143 0.26339 0.74334 0.0
C62 C 0.96177 0.12699 0.69298 0.0
C63 C 0.08321 0.35821 0.68167 0.0
C64 C 0.94699 0.21022 0.63246 0.0
C65 C 0.10301 0.25379 0.63465 0.0
C66 C 0.97069 0.27018 0.73908 0.0
C67 C 0.0982 0.23169 0.74086 0.0
O68 O 0.94882 0.14934 0.7063 0.0
O69 O 0.95104 0.01995 0.99185 0.0
Zn70 Zn 0.91013 0.04189 0.99665 0.0
O71 O 0.85327 0.99476 0.00074 0.0
Zn72 Zn 0.82391 0.9836 0.96535 0.0
Zn73 Zn 0.86452 0.95008 0.01229 0.0
Zn74 Zn 0.82446 0.0079 0.02932 0.0
O75 O 0.76114 0.96954 0.97313 0.0
O76 O 0.77382 0.0102 0.01172 0.0
O77 O 0.91208 0.0811 0.96698 0.0
O78 O 0.84953 0.04064 0.94484 0.0
O79 O 0.83582 0.93997 0.9434 0.0
O80 O 0.86608 0.91986 0.97691 0.0
O81 O 0.81799 0.91064 0.04015 0.0
O82 O 0.92792 0.07598 0.03195 0.0
O83 O 0.79569 0.956 0.05317 0.0
O84 O 0.86703 0.05878 0.05471 0.0
C85 C 0.95759 0.00756 0.0155 0.0
C86 C 0.74912 0.98813 0.99126 0.0
C87 C 0.85449 0.91891 0.95131 0.0
C88 C 0.88428 0.07663 0.94855 0.0
C89 C 0.79385 0.91973 0.05515 0.0
C90 C 0.90843 0.08082 0.05283 0.0
O91 O 0.92491 0.9808 0.02999 0.0
O92 O 0.88056 0.95908 0.35567 0.0
Zn93 Zn 0.82826 0.90022 0.35738 0.0
O94 O 0.84768 0.85892 0.35979 0.0
Zn95 Zn 0.83081 0.82055 0.32834 0.0
Zn96 Zn 0.90938 0.88641 0.36302 0.0
Zn97 Zn 0.82012 0.8249 0.39222 0.0
O98 O 0.79491 0.75861 0.34131 0.0
O99 O 0.76661 0.77036 0.37986 0.0
O100 O 0.78516 0.88524 0.32529 0.0
O101 O 0.78743 0.82876 0.30755 0.0
O102 O 0.88213 0.83408 0.30169 0.0
O103 O 0.93637 0.88758 0.32507 0.0
O104 O 0.92436 0.85133 0.38955 0.0
O105 O 0.80236 0.90526 0.39377 0.0
O106 O 0.85945 0.80589 0.40747 0.0
O107 O 0.80989 0.86022 0.42193 0.0
C108 C 0.91708 0.97304 0.36798 0.0
C109 C 0.76528 0.74537 0.36015 0.0
C110 C 0.922 0.86378 0.30319 0.0
C111 C 0.77163 0.85365 0.30813 0.0
C112 C 0.89963 0.81871 0.40474 0.0
C113 C 0.80194 0.89089 0.41834 0.0
O114 O 0.93127 0.94793 0.37507 0.0
O115 O 0.01921 0.82031 0.6576 0.0
Zn116 Zn 0.05275 0.79283 0.67012 0.0
O117 O 0.114 0.83438 0.66703 0.0
Zn118 Zn 0.14236 0.818 0.63925 0.0
Zn119 Zn 0.12419 0.89152 0.65885 0.0
Zn120 Zn 0.138 0.83416 0.70275 0.0
O121 O 0.17935 0.79675 0.65745 0.0
O122 O 0.15986 0.79252 0.70236 0.0
O123 O 0.0355 0.74189 0.64415 0.0
O124 O 0.09583 0.76671 0.61868 0.0
O125 O 0.1751 0.86575 0.6104 0.0
O126 O 0.15066 0.91053 0.62008 0.0
O127 O 0.16908 0.93466 0.68578 0.0
O128 O 0.0325 0.77929 0.71105 0.0
O129 O 0.18714 0.89273 0.70973 0.0
O130 O 0.094 0.82043 0.73391 0.0
C131 C 0.02776 0.85922 0.65851 0.0
C132 C 0.17853 0.78385 0.6826 0.0
C133 C 0.17215 0.89895 0.60442 0.0
C134 C 0.05625 0.73856 0.62325 0.0
C135 C 0.19386 0.92996 0.70303 0.0
C136 C 0.0528 0.79691 0.73383 0.0
O137 O 0.06662 0.89052 0.66134 0.0
H138 H 0.03476 0.06005 0.99036 0.0
H139 H 0.09746 0.12158 0.01163 0.0
H140 H 0.03753 0.08461 0.09328 0.0
H141 H 0.97416 0.02236 0.07231 0.0
H142 H 0.09036 0.18735 0.04028 0.0
H143 H 0.15674 0.1376 0.13878 0.0
H144 H 0.1645 0.07772 0.15714 0.0
H145 H 0.13238 0.01732 0.07575 0.0
H146 H 0.1253 0.0767 0.05684 0.0
H147 H 0.30704 0.20399 0.07023 0.0
H148 H 0.27383 0.24598 0.08585 0.0
H149 H 0.1915 0.20362 0.01206 0.0
H150 H 0.22406 0.16216 0.99714 0.0
H151 H 0.20222 0.18914 0.10218 0.0
H152 H 0.1266 0.22673 0.00089 0.0
H153 H 0.146 0.29081 0.97222 0.0
H154 H 0.23319 0.37204 0.03672 0.0
H155 H 0.21384 0.30848 0.06625 0.0
C156 C 0.0353 0.06421 0.01301 0.0
C157 C 0.99938 0.03638 0.02958 0.0
C158 C 0.07094 0.09966 0.0251 0.0
C159 C 0.07173 0.1079 0.05407 0.0
C160 C 0.03757 0.07843 0.07108 0.0
C161 C 0.00153 0.04281 0.05897 0.0
C162 C 0.10799 0.14849 0.06545 0.0
C163 C 0.11556 0.18737 0.05308 0.0
C164 C 0.13887 0.14966 0.08485 0.0
C165 C 0.13752 0.11065 0.09676 0.0
C166 C 0.15005 0.1109 0.12495 0.0
C167 C 0.15493 0.07722 0.13544 0.0
C168 C 0.14854 0.04348 0.11774 0.0
C169 C 0.1366 0.043 0.08967 0.0
C170 C 0.13158 0.07655 0.07911 0.0
C171 C 0.28306 0.20535 0.05693 0.0
C172 C 0.26591 0.17803 0.03351 0.0
C173 C 0.26462 0.23006 0.06554 0.0
C174 C 0.22796 0.22597 0.05129 0.0
C175 C 0.21832 0.20646 0.02443 0.0
C176 C 0.23625 0.18159 0.01606 0.0
C177 C 0.19029 0.22095 0.0681 0.0
C178 C 0.17744 0.18897 0.08882 0.0
C179 C 0.15717 0.22423 0.05399 0.0
C180 C 0.16814 0.26255 0.03618 0.0
C181 C 0.14928 0.25817 0.00938 0.0
C182 C 0.16052 0.29449 0.99281 0.0
C183 C 0.19066 0.33549 0.00268 0.0
C184 C 0.20976 0.34025 0.02912 0.0
C185 C 0.19871 0.30404 0.04578 0.0
H186 H 0.19932 0.36356 0.9898 0.0
H187 H 0.15377 0.01829 0.12572 0.0
H188 H 0.00492 0.01745 0.37294 0.0
H189 H 0.05109 0.09186 0.36072 0.0
H190 H 0.94046 0.11086 0.35956 0.0
H191 H 0.89335 0.03465 0.3705 0.0
H192 H 0.96328 0.11304 0.30999 0.0
H193 H 0.05076 0.2027 0.38076 0.0
H194 H 0.0882 0.22086 0.4267 0.0
H195 H 0.17473 0.17881 0.39698 0.0
H196 H 0.13812 0.1603 0.35105 0.0
H197 H 0.18174 0.15815 0.24246 0.0
H198 H 0.11841 0.16742 0.24018 0.0
H199 H 0.05435 0.06908 0.30268 0.0
H200 H 0.11789 0.06084 0.30621 0.0
H201 H 0.12314 0.18503 0.30935 0.0
H202 H 0.95803 0.04437 0.28095 0.0
H203 H 0.90607 0.00985 0.2419 0.0
H204 H 0.96578 0.12966 0.19672 0.0
H205 H 0.01935 0.16434 0.23491 0.0
C206 C 0.99055 0.03779 0.37127 0.0
C207 C 0.94546 0.01994 0.37109 0.0
C208 C 0.01732 0.08115 0.36483 0.0
C209 C 0.99931 0.1073 0.3583 0.0
C210 C 0.95509 0.09128 0.3639 0.0
C211 C 0.92809 0.04751 0.36967 0.0
C212 C 0.02096 0.14013 0.33584 0.0
C213 C 0.99845 0.12955 0.3101 0.0
C214 C 0.0667 0.16592 0.3353 0.0
C215 C 0.09181 0.18065 0.3621 0.0
C216 C 0.07808 0.19774 0.38388 0.0
C217 C 0.09911 0.20796 0.41 0.0
C218 C 0.13377 0.20093 0.41472 0.0
C219 C 0.14797 0.18438 0.39323 0.0
C220 C 0.12734 0.17444 0.36701 0.0
C221 C 0.15309 0.13663 0.25447 0.0
C222 C 0.15519 0.11019 0.27549 0.0
C223 C 0.11718 0.14249 0.25329 0.0
C224 C 0.08318 0.12113 0.27242 0.0
C225 C 0.08074 0.08657 0.28795 0.0
C226 C 0.11719 0.08177 0.29002 0.0
C227 C 0.06443 0.14508 0.28614 0.0
C228 C 0.08807 0.1699 0.30958 0.0
C229 C 0.0195 0.12903 0.28538 0.0
C230 C 0.99284 0.10671 0.26052 0.0
C231 C 0.96065 0.063 0.26233 0.0
C232 C 0.93096 0.04344 0.24038 0.0
C233 C 0.93288 0.06746 0.21672 0.0
C234 C 0.96495 0.1109 0.21477 0.0
C235 C 0.99529 0.13041 0.23641 0.0
H236 H 0.90927 0.05247 0.20002 0.0
H237 H 0.14963 0.20817 0.43505 0.0
H238 H 0.02834 0.93083 0.67833 0.0
H239 H 0.96585 0.93969 0.68708 0.0
H240 H 0.88056 0.81361 0.65234 0.0
H241 H 0.9432 0.80411 0.64372 0.0
H242 H 0.86658 0.88057 0.63157 0.0
H243 H 0.85206 0.8162 0.71934 0.0
H244 H 0.86968 0.79425 0.76427 0.0
H245 H 0.94684 0.9269 0.78908 0.0
H246 H 0.92922 0.94968 0.74438 0.0
H247 H 0.88267 0.07494 0.71831 0.0
H248 H 0.83503 0.99699 0.71116 0.0
H249 H 0.92567 0.99824 0.65015 0.0
H250 H 0.97302 0.07414 0.65777 0.0
H251 H 0.86127 0.94126 0.7244 0.0
H252 H 0.88683 0.93963 0.60084 0.0
H253 H 0.86371 0.96328 0.55906 0.0
H254 H 0.76167 0.96403 0.60673 0.0
H255 H 0.78381 0.93988 0.64892 0.0
C256 C 0.99644 0.90509 0.67231 0.0
C257 C 0.99079 0.86688 0.66028 0.0
C258 C 0.96064 0.90984 0.67776 0.0
C259 C 0.91852 0.87667 0.67114 0.0
C260 C 0.91272 0.83908 0.65815 0.0
C261 C 0.94858 0.83401 0.65302 0.0
C262 C 0.88205 0.88445 0.67569 0.0
C263 C 0.86421 0.89297 0.65193 0.0
C264 C 0.87574 0.89746 0.70252 0.0
C265 C 0.889 0.88453 0.72861 0.0
C266 C 0.87305 0.84069 0.73428 0.0
C267 C 0.88292 0.82813 0.75977 0.0
C268 C 0.90931 0.85921 0.77952 0.0
C269 C 0.92622 0.90292 0.77378 0.0
C270 C 0.91606 0.91564 0.74846 0.0
C271 C 0.89196 0.05841 0.70316 0.0
C272 C 0.93185 0.08054 0.68879 0.0
C273 C 0.8644 0.01416 0.69878 0.0
C274 C 0.87599 0.99195 0.6795 0.0
C275 C 0.91496 0.01471 0.66438 0.0
C276 C 0.94262 0.05824 0.66914 0.0
C277 C 0.85483 0.94449 0.67957 0.0
C278 C 0.86081 0.9268 0.70422 0.0
C279 C 0.84986 0.92295 0.6537 0.0
C280 C 0.83652 0.93707 0.62804 0.0
C281 C 0.859 0.94407 0.60241 0.0
C282 C 0.8462 0.95786 0.57864 0.0
C283 C 0.81097 0.96473 0.58019 0.0
C284 C 0.78881 0.95844 0.60557 0.0
C285 C 0.80152 0.94478 0.62943 0.0
H286 H 0.8007 0.97484 0.56179 0.0
H287 H 0.91653 0.84957 0.79933 0.0
H288 H 0.29424 0.08368 0.8911 0.0
H289 H 0.26376 0.11095 0.85581 0.0
H290 H 0.28982 0.21732 0.91049 0.0
H291 H 0.32012 0.19015 0.94568 0.0
H292 H 0.21079 0.18316 0.8938 0.0
H293 H 0.34358 0.22599 0.84621 0.0
H294 H 0.40332 0.22183 0.8231 0.0
H295 H 0.31416 0.13247 0.7624 0.0
H296 H 0.25357 0.13427 0.78598 0.0
H297 H 0.14044 0.28049 0.78781 0.0
H298 H 0.18284 0.26662 0.82271 0.0
H299 H 0.15401 0.14979 0.77887 0.0
H300 H 0.11258 0.1637 0.74387 0.0
H301 H 0.23776 0.19546 0.79092 0.0
H302 H 0.10433 0.15454 0.84065 0.0
H303 H 0.04814 0.1658 0.86247 0.0
H304 H 0.14307 0.26086 0.918 0.0
H305 H 0.20013 0.25063 0.89623 0.0
C306 C 0.29437 0.11337 0.89526 0.0
C307 C 0.30959 0.13447 0.92124 0.0
C308 C 0.27687 0.129 0.87508 0.0
C309 C 0.2739 0.16605 0.88043 0.0
C310 C 0.2912 0.18845 0.9058 0.0
C311 C 0.30906 0.17306 0.92585 0.0
C312 C 0.2502 0.17965 0.86058 0.0
C313 C 0.2173 0.18657 0.87134 0.0
C314 C 0.25782 0.18341 0.83112 0.0
C315 C 0.29388 0.18001 0.81807 0.0
C316 C 0.33653 0.20474 0.8283 0.0
C317 C 0.37059 0.20279 0.8151 0.0
C318 C 0.36255 0.17681 0.79135 0.0
C319 C 0.32037 0.15243 0.78089 0.0
C320 C 0.2861 0.15367 0.79428 0.0
C321 C 0.14304 0.2518 0.78565 0.0
C322 C 0.12312 0.22338 0.76285 0.0
C323 C 0.16718 0.24379 0.80572 0.0
C324 C 0.17158 0.20699 0.80358 0.0
C325 C 0.15137 0.17849 0.781 0.0
C326 C 0.12752 0.18653 0.76095 0.0
C327 C 0.1982 0.19833 0.82408 0.0
C328 C 0.23153 0.19224 0.81341 0.0
C329 C 0.19129 0.19591 0.8536 0.0
C330 C 0.15673 0.20199 0.86661 0.0
C331 C 0.11342 0.178 0.8574 0.0
C332 C 0.08133 0.18421 0.86977 0.0
C333 C 0.09202 0.21409 0.89156 0.0
C334 C 0.13482 0.23776 0.90107 0.0
C335 C 0.16705 0.23175 0.88872 0.0
H336 H 0.06713 0.21885 0.90111 0.0
H337 H 0.38902 0.1756 0.78102 0.0
H338 H 0.23037 0.23843 0.20519 0.0
H339 H 0.1698 0.21847 0.17273 0.0
H340 H 0.10152 0.246 0.23701 0.0
H341 H 0.1615 0.26441 0.27001 0.0
H342 H 0.08567 0.14773 0.18848 0.0
H343 H 0.03074 0.27154 0.19671 0.0
H344 H 0.06076 0.34899 0.20664 0.0
H345 H 0.18393 0.37651 0.17293 0.0
H346 H 0.15447 0.29936 0.1625 0.0
H347 H 0.88335 0.09752 0.10459 0.0
H348 H 0.93132 0.1361 0.1447 0.0
H349 H 0.04298 0.16528 0.09403 0.0
H350 H 0.99646 0.12982 0.05379 0.0
H351 H 0.02398 0.23086 0.14487 0.0
H352 H 0.08305 0.10394 0.15142 0.0
H353 H 0.05616 0.02793 0.13916 0.0
H354 H 0.9253 0.00291 0.14333 0.0
H355 H 0.95157 0.0782 0.156 0.0
C356 C 0.20319 0.24172 0.21212 0.0
C357 C 0.2007 0.25297 0.24014 0.0
C358 C 0.1684 0.22997 0.19361 0.0
C359 C 0.13096 0.2304 0.20249 0.0
C360 C 0.13012 0.24563 0.22964 0.0
C361 C 0.16445 0.25621 0.24846 0.0
C362 C 0.09132 0.20996 0.18453 0.0
C363 C 0.07234 0.16578 0.17854 0.0
C364 C 0.07247 0.23321 0.17322 0.0
C365 C 0.09053 0.27966 0.17918 0.0
C366 C 0.0642 0.29417 0.19139 0.0
C367 C 0.08112 0.33799 0.1971 0.0
C368 C 0.12428 0.36762 0.19053 0.0
C369 C 0.15057 0.3535 0.17814 0.0
C370 C 0.1338 0.30972 0.17239 0.0
C371 C 0.91815 0.11303 0.10182 0.0
C372 C 0.93583 0.1095 0.07609 0.0
C373 C 0.94548 0.13501 0.12474 0.0
C374 C 0.99057 0.15215 0.12246 0.0
C375 C 0.00824 0.15127 0.09636 0.0
C376 C 0.98135 0.13075 0.07338 0.0
C377 C 0.01992 0.16897 0.1472 0.0
C378 C 0.03687 0.21238 0.15478 0.0
C379 C 0.03696 0.14471 0.15989 0.0
C380 C 0.01986 0.09803 0.15329 0.0
C381 C 0.04871 0.08248 0.14932 0.0
C382 C 0.0335 0.03929 0.14243 0.0
C383 C 0.98906 0.01074 0.13989 0.0
C384 C 0.95983 0.02524 0.1447 0.0
C385 C 0.97505 0.06843 0.15154 0.0
H386 H 0.97725 0.97729 0.13466 0.0
H387 H 0.13731 0.40153 0.19496 0.0
H388 H 0.86564 0.13875 0.63477 0.0
H389 H 0.83089 0.08319 0.59861 0.0
H390 H 0.93217 0.16187 0.54011 0.0
H391 H 0.96801 0.21766 0.57617 0.0
H392 H 0.79996 0.07488 0.54369 0.0
H393 H 0.9644 0.09343 0.50807 0.0
H394 H 0.0383 0.12072 0.52673 0.0
H395 H 0.98923 0.09985 0.6112 0.0
H396 H 0.91472 0.07033 0.59319 0.0
H397 H 0.78374 0.95659 0.41802 0.0
H398 H 0.79786 0.00859 0.45543 0.0
H399 H 0.8321 0.93595 0.51167 0.0
H400 H 0.81887 0.88405 0.47407 0.0
H401 H 0.89375 0.01742 0.51153 0.0
H402 H 0.73999 0.94348 0.52192 0.0
H403 H 0.6638 0.91121 0.50672 0.0
H404 H 0.68767 0.03497 0.47844 0.0
H405 H 0.76421 0.06792 0.49315 0.0
C406 C 0.88011 0.14498 0.61398 0.0
C407 C 0.92006 0.18273 0.6086 0.0
C408 C 0.86008 0.11302 0.5933 0.0
C409 C 0.87954 0.11806 0.56682 0.0
C410 C 0.91722 0.15719 0.56057 0.0
C411 C 0.9374 0.18918 0.58121 0.0
C412 C 0.8631 0.08106 0.54681 0.0
C413 C 0.82051 0.06245 0.53651 0.0
C414 C 0.88952 0.064 0.538 0.0
C415 C 0.93402 0.08045 0.54922 0.0
C416 C 0.9693 0.09438 0.53064 0.0
C417 C 0.01127 0.11009 0.54111 0.0
C418 C 0.01843 0.11229 0.57014 0.0
C419 C 0.98356 0.09819 0.58876 0.0
C420 C 0.94144 0.08185 0.57842 0.0
C421 C 0.7933 0.95097 0.43852 0.0
C422 C 0.80039 0.91607 0.44288 0.0
C423 C 0.80133 0.98087 0.45998 0.0
C424 C 0.81631 0.9765 0.48643 0.0
C425 C 0.8209 0.9403 0.4914 0.0
C426 C 0.8129 0.91033 0.46991 0.0
C427 C 0.83072 0.01148 0.50793 0.0
C428 C 0.87317 0.02994 0.51848 0.0
C429 C 0.8039 0.02778 0.5173 0.0
C430 C 0.75795 0.00809 0.50838 0.0
C431 C 0.7291 0.96376 0.51224 0.0
C432 C 0.68583 0.94536 0.50376 0.0
C433 C 0.67093 0.971 0.49155 0.0
C434 C 0.69927 0.01513 0.48787 0.0
C435 C 0.74259 0.0337 0.4963 0.0
H436 H 0.63742 0.95669 0.485 0.0
H437 H 0.05097 0.12468 0.5782 0.0
H438 H 0.9074 0.88522 0.9601 0.0
H439 H 0.93677 0.85634 0.92561 0.0
H440 H 0.86256 0.87254 0.86007 0.0
H441 H 0.8333 0.90271 0.8946 0.0
H442 H 0.86551 0.78768 0.8618 0.0
H443 H 0.95748 0.94423 0.86469 0.0
H444 H 0.00408 0.01334 0.88877 0.0
H445 H 0.08994 0.96845 0.91498 0.0
H446 H 0.04321 0.89863 0.89179 0.0
H447 H 0.96745 0.77509 0.73726 0.0
H448 H 0.93059 0.78584 0.77677 0.0
H449 H 0.04437 0.82734 0.82844 0.0
H450 H 0.08222 0.81835 0.78833 0.0
H451 H 0.02107 0.87942 0.8376 0.0
H452 H 0.93786 0.72728 0.83744 0.0
H453 H 0.89349 0.65374 0.81847 0.0
H454 H 0.79491 0.68264 0.79373 0.0
H455 H 0.83887 0.75651 0.81226 0.0
C456 C 0.89665 0.88229 0.93846 0.0
C457 C 0.86782 0.89655 0.93027 0.0
C458 C 0.91369 0.86573 0.91872 0.0
C459 C 0.90208 0.8624 0.89023 0.0
C460 C 0.87192 0.87476 0.88199 0.0
C461 C 0.85526 0.89207 0.90176 0.0
C462 C 0.9235 0.84834 0.86904 0.0
C463 C 0.89939 0.80783 0.85616 0.0
C464 C 0.96832 0.87365 0.8629 0.0
C465 C 0.99634 0.91581 0.87689 0.0
C466 C 0.98584 0.94876 0.87602 0.0
C467 C 0.01236 0.98814 0.88949 0.0
C468 C 0.0499 0.99527 0.90349 0.0
C469 C 0.06089 0.96295 0.90414 0.0
C470 C 0.03431 0.9234 0.89092 0.0
C471 C 0.98444 0.7856 0.75718 0.0
C472 C 0.02792 0.79573 0.75949 0.0
C473 C 0.96312 0.79177 0.78 0.0
C474 C 0.98419 0.80737 0.80605 0.0
C475 C 0.02708 0.81559 0.80872 0.0
C476 C 0.04872 0.81011 0.78573 0.0
C477 C 0.96303 0.81866 0.82947 0.0
C478 C 0.98723 0.85875 0.84308 0.0
C479 C 0.91866 0.79217 0.83703 0.0
C480 C 0.89192 0.74764 0.826 0.0
C481 C 0.90686 0.71807 0.82778 0.0
C482 C 0.88174 0.67629 0.81714 0.0
C483 C 0.84146 0.66357 0.80484 0.0
C484 C 0.82614 0.69255 0.80324 0.0
C485 C 0.85112 0.73437 0.81385 0.0
H486 H 0.82208 0.63121 0.7966 0.0
H487 H 0.07057 0.02589 0.91371 0.0
H488 H 0.00544 0.9306 0.29671 0.0
H489 H 0.05479 0.9453 0.25715 0.0
H490 H 0.95779 0.83058 0.21515 0.0
H491 H 0.90797 0.81548 0.25481 0.0
H492 H 0.04142 0.8406 0.21149 0.0
H493 H 0.97462 0.92938 0.20004 0.0
H494 H 0.95781 0.98613 0.21259 0.0
H495 H 0.09349 0.0803 0.21221 0.0
H496 H 0.11138 0.02401 0.20154 0.0
H497 H 0.13067 0.948 0.06679 0.0
H498 H 0.07944 0.91874 0.10602 0.0
H499 H 0.1843 0.94511 0.16271 0.0
H500 H 0.23631 0.97576 0.12346 0.0
H501 H 0.09468 0.97634 0.15775 0.0
H502 H 0.12192 0.84887 0.21121 0.0
H503 H 0.14495 0.79636 0.19912 0.0
H504 H 0.0959 0.78595 0.11511 0.0
H505 H 0.07201 0.83786 0.12683 0.0
C506 C 0.99444 0.90824 0.27917 0.0
C507 C 0.95236 0.87181 0.27908 0.0
C508 C 0.02286 0.91682 0.25645 0.0
C509 C 0.01012 0.88927 0.23294 0.0
C510 C 0.96851 0.85238 0.23299 0.0
C511 C 0.93989 0.84389 0.25568 0.0
C512 C 0.03965 0.89965 0.20804 0.0
C513 C 0.05313 0.87041 0.19983 0.0
C514 C 0.05551 0.93869 0.19275 0.0
C515 C 0.04438 0.97216 0.20044 0.0
C516 C 0.00096 0.96197 0.20343 0.0
C517 C 0.99126 0.99412 0.21043 0.0
C518 C 0.02466 0.03671 0.21389 0.0
C519 C 0.06775 0.0472 0.21046 0.0
C520 C 0.07768 0.01516 0.20398 0.0
C521 C 0.14296 0.94724 0.08753 0.0
C522 C 0.18785 0.96512 0.092 0.0
C523 C 0.11347 0.93025 0.10994 0.0
C524 C 0.12792 0.92986 0.13738 0.0
C525 C 0.17235 0.94498 0.14171 0.0
C526 C 0.20206 0.96243 0.11922 0.0
C527 C 0.09716 0.91794 0.16162 0.0
C528 C 0.08335 0.94682 0.16961 0.0
C529 C 0.08198 0.87927 0.17705 0.0
C530 C 0.09569 0.84766 0.16982 0.0
C531 C 0.11596 0.83528 0.19018 0.0
C532 C 0.12916 0.80562 0.1834 0.0
C533 C 0.12205 0.78796 0.15633 0.0
C534 C 0.10159 0.79981 0.13602 0.0
C535 C 0.08831 0.82944 0.14271 0.0
H536 H 0.1323 0.76501 0.15112 0.0
H537 H 0.01728 0.06184 0.21849 0.0
H538 H 0.15732 0.95899 0.57921 0.0
H539 H 0.18436 0.99458 0.53387 0.0
H540 H 0.25547 0.92747 0.52277 0.0
H541 H 0.22835 0.89139 0.56824 0.0
H542 H 0.3044 0.01283 0.50868 0.0
H543 H 0.16622 0.89481 0.48587 0.0
H544 H 0.08732 0.84529 0.48957 0.0
H545 H 0.06438 0.94998 0.4733 0.0
H546 H 0.14318 0.00027 0.46976 0.0
H547 H 0.26787 0.06273 0.35112 0.0
H548 H 0.24902 0.01355 0.39118 0.0
H549 H 0.32233 0.12189 0.44647 0.0
H550 H 0.34228 0.17089 0.40664 0.0
H551 H 0.20211 0.00494 0.43482 0.0
H552 H 0.358 0.09535 0.50366 0.0
H553 H 0.43726 0.13848 0.4971 0.0
H554 H 0.42578 0.07747 0.41715 0.0
H555 H 0.34654 0.03356 0.42338 0.0
C556 C 0.17895 0.95191 0.56729 0.0
C557 C 0.19074 0.92235 0.57751 0.0
C558 C 0.19414 0.97211 0.54122 0.0
C559 C 0.22162 0.96342 0.52475 0.0
C560 C 0.23422 0.93461 0.53508 0.0
C561 C 0.21867 0.91401 0.56109 0.0
C562 C 0.23729 0.98484 0.4969 0.0
C563 C 0.28208 0.01104 0.49247 0.0
C564 C 0.20821 0.98147 0.47538 0.0
C565 C 0.16071 0.95143 0.47778 0.0
C566 C 0.14439 0.90739 0.48335 0.0
C567 C 0.09967 0.87914 0.48537 0.0
C568 C 0.07087 0.89451 0.48178 0.0
C569 C 0.08674 0.93813 0.47611 0.0
C570 C 0.13143 0.96652 0.47404 0.0
C571 C 0.28084 0.07604 0.37169 0.0
C572 C 0.30678 0.12091 0.3755 0.0
C573 C 0.26974 0.04784 0.39467 0.0
C574 C 0.28434 0.06379 0.42198 0.0
C575 C 0.31125 0.10847 0.42565 0.0
C576 C 0.32259 0.1366 0.40272 0.0
C577 C 0.26936 0.03434 0.44691 0.0
C578 C 0.22459 0.00659 0.45086 0.0
C579 C 0.29852 0.03547 0.46769 0.0
C580 C 0.34626 0.06139 0.46391 0.0
C581 C 0.3724 0.09097 0.48474 0.0
C582 C 0.41733 0.11559 0.48107 0.0
C583 C 0.43652 0.11079 0.45669 0.0
C584 C 0.41085 0.08126 0.43598 0.0
C585 C 0.36592 0.05654 0.43955 0.0
H586 H 0.4713 0.12991 0.45388 0.0
H587 H 0.03626 0.87261 0.4833 0.0
H588 H 0.38315 0.98392 0.94865 0.0
H589 H 0.44832 0.97737 0.94395 0.0
H590 H 0.4575 0.97408 0.03434 0.0
H591 H 0.39238 0.97972 0.03929 0.0
H592 H 0.53465 0.03875 0.0063 0.0
H593 H 0.42941 0.88626 0.00081 0.0
H594 H 0.36613 0.82224 0.98061 0.0
H595 H 0.43051 0.84736 0.90055 0.0
H596 H 0.49398 0.91193 0.92019 0.0
H597 H 0.70315 -0.0017 0.03346 0.0
H598 H 0.63286 0.994 0.03087 0.0
H599 H 0.62526 0.96509 0.9421 0.0
H600 H 0.69546 0.96766 0.94487 0.0
H601 H 0.5478 0.91919 0.96399 0.0
H602 H 0.65357 0.06791 0.96759 0.0
H603 H 0.71756 0.13376 0.98523 0.0
H604 H 0.65346 0.12084 0.06424 0.0
H605 H 0.5894 0.05429 0.04735 0.0
C606 C 0.39848 0.98087 0.96753 0.0
C607 C 0.38227 0.98234 0.99436 0.0
C608 C 0.43581 0.9772 0.96479 0.0
C609 C 0.45797 0.97547 0.98881 0.0
C610 C 0.44106 0.97549 0.01551 0.0
C611 C 0.40352 0.97846 0.01827 0.0
C612 C 0.50025 0.9765 0.98647 0.0
C613 C 0.53748 0.01242 0.99731 0.0
C614 C 0.50431 0.94301 0.97367 0.0
C615 C 0.46622 0.90421 0.96188 0.0
C616 C 0.4299 0.87839 0.97882 0.0
C617 C 0.39404 0.84194 0.96749 0.0
C618 C 0.39424 0.83082 0.93929 0.0
C619 C 0.43036 0.85606 0.92238 0.0
C620 C 0.4663 0.89256 0.9336 0.0
C621 C 0.68665 0.99101 0.01332 0.0
C622 C 0.70534 0.98385 0.98928 0.0
C623 C 0.64635 0.98872 0.01184 0.0
C624 C 0.62394 0.98035 0.98613 0.0
C625 C 0.64187 0.97192 0.96218 0.0
C626 C 0.68209 0.97348 0.96376 0.0
C627 C 0.58229 0.9811 0.98453 0.0
C628 C 0.54521 0.94573 0.97284 0.0
C629 C 0.57842 0.01557 0.99608 0.0
C630 C 0.61676 0.05587 0.00626 0.0
C631 C 0.6532 0.07892 0.9888 0.0
C632 C 0.68949 0.11641 -0.00135 0.0
C633 C 0.68958 0.13149 0.02582 0.0
C634 C 0.65335 0.10911 0.0432 0.0
C635 C 0.61703 0.07149 0.0335 0.0
H636 H 0.71771 0.16053 0.0334 0.0
H637 H 0.36645 0.80258 0.93056 0.0
H638 H 0.46702 0.34694 0.34083 0.0
H639 H 0.52905 0.41847 0.34962 0.0
H640 H 0.46122 0.47639 0.31053 0.0
H641 H 0.39957 0.40478 0.30078 0.0
H642 H 0.53994 0.51751 0.29431 0.0
H643 H 0.47223 0.47444 0.38336 0.0
H644 H 0.43905 0.42729 0.42453 0.0
H645 H 0.56007 0.4338 0.44343 0.0
H646 H 0.59383 0.48046 0.40205 0.0
H647 H 0.6922 0.70841 0.39301 0.0
H648 H 0.62707 0.63807 0.38667 0.0
H649 H 0.68716 0.61183 0.31634 0.0
H650 H 0.75198 0.68243 0.32209 0.0
H651 H 0.60788 0.55786 0.38901 0.0
H652 H 0.61589 0.55906 0.26619 0.0
H653 H 0.63804 0.61162 0.22727 0.0
H654 H 0.6189 0.69769 0.2805 0.0
H655 H 0.59692 0.6459 0.31955 0.0
C656 C 0.46529 0.37489 0.33407 0.0
C657 C 0.42829 0.37017 0.32017 0.0
C658 C 0.50072 0.41582 0.33926 0.0
C659 C 0.4996 0.45292 0.33119 0.0
C660 C 0.46288 0.44828 0.317 0.0
C661 C 0.42763 0.40731 0.31145 0.0
C662 C 0.53697 0.4965 0.33721 0.0
C663 C 0.55476 0.5262 0.31503 0.0
C664 C 0.55553 0.50862 0.36446 0.0
C665 C 0.53546 0.48063 0.38943 0.0
C666 C 0.49169 0.46556 0.39616 0.0
C667 C 0.47279 0.43896 0.41956 0.0
C668 C 0.49741 0.42749 0.43656 0.0
C669 C 0.54102 0.44268 0.43022 0.0
C670 C 0.56007 0.46923 0.4068 0.0
C671 C 0.69172 0.6876 0.37629 0.0
C672 C 0.72729 0.70125 0.35794 0.0
C673 C 0.65444 0.64732 0.37274 0.0
C674 C 0.65194 0.61989 0.35079 0.0
C675 C 0.68799 0.63278 0.33309 0.0
C676 C 0.72517 0.67311 0.33652 0.0
C677 C 0.6114 0.57822 0.34593 0.0
C678 C 0.59305 0.54896 0.36831 0.0
C679 C 0.59102 0.5672 0.31921 0.0
C680 C 0.60518 0.59879 0.29584 0.0
C681 C 0.61655 0.58928 0.26954 0.0
C682 C 0.62917 0.61899 0.24747 0.0
C683 C 0.63012 0.6581 0.2514 0.0
C684 C 0.61861 0.66764 0.27744 0.0
C685 C 0.60619 0.63818 0.29959 0.0
H686 H 0.63947 0.68083 0.23421 0.0
H687 H 0.48271 0.40688 0.45467 0.0
H688 H 0.16589 0.41666 0.69725 0.0
H689 H 0.2004 0.4953 0.69647 0.0
H690 H 0.08259 0.48446 0.66296 0.0
H691 H 0.04906 0.40614 0.66219 0.0
H692 H 0.14523 0.54729 0.63913 0.0
H693 H 0.11268 0.50179 0.73588 0.0
H694 H 0.11575 0.46589 0.77943 0.0
H695 H 0.2542 0.54763 0.78213 0.0
H696 H 0.25196 0.58363 0.73836 0.0
H697 H 0.15479 0.72691 0.72603 0.0
H698 H 0.1589 0.66129 0.72669 0.0
H699 H 0.23838 0.70264 0.65183 0.0
H700 H 0.2325 0.76771 0.65023 0.0
H701 H 0.20827 0.62829 0.72779 0.0
H702 H 0.20276 0.62007 0.60646 0.0
H703 H 0.18394 0.65118 0.56618 0.0
H704 H 0.09597 0.66933 0.61853 0.0
H705 H 0.11388 0.6379 0.65891 0.0
C706 C 0.1476 0.43123 0.68951 0.0
C707 C 0.10477 0.40548 0.67992 0.0
C708 C 0.16726 0.4761 0.68918 0.0
C709 C 0.14388 0.49587 0.68014 0.0
C710 C 0.1014 0.47005 0.66996 0.0
C711 C 0.08217 0.42528 0.6696 0.0
C712 C 0.16267 0.54324 0.68204 0.0
C713 C 0.15942 0.56501 0.65846 0.0
C714 C 0.18081 0.56645 0.70733 0.0
C715 C 0.18222 0.545 0.73368 0.0
C716 C 0.1438 0.51188 0.74566 0.0
C717 C 0.14538 0.49155 0.77039 0.0
C718 C 0.18516 0.50437 0.78348 0.0
C719 C 0.22342 0.53766 0.77192 0.0
C720 C 0.22202 0.55804 0.74716 0.0
C721 C 0.17421 0.72274 0.71013 0.0
C722 C 0.19232 0.75187 0.68762 0.0
C723 C 0.17667 0.68515 0.7106 0.0
C724 C 0.19782 0.67642 0.68881 0.0
C725 C 0.22085 0.70821 0.66842 0.0
C726 C 0.21758 0.74543 0.66757 0.0
C727 C 0.18957 0.63185 0.68516 0.0
C728 C 0.19507 0.61069 0.70829 0.0
C729 C 0.17127 0.60852 0.65995 0.0
C730 C 0.16013 0.62723 0.63573 0.0
C731 C 0.17938 0.63068 0.6093 0.0
C732 C 0.16886 0.64835 0.58647 0.0
C733 C 0.13891 0.66239 0.5898 0.0
C734 C 0.11928 0.65862 0.61595 0.0
C735 C 0.12961 0.6409 0.63882 0.0
H736 H 0.13084 0.67603 0.57208 0.0
H737 H 0.18632 0.4886 0.80262 0.0
H738 H 0.41174 0.08575 0.09834 0.0
H739 H 0.46522 0.1329 0.132 0.0
H740 H 0.52497 0.23214 0.06871 0.0
H741 H 0.46932 0.18534 0.03489 0.0
H742 H 0.54429 0.18956 0.149 0.0
H743 H 0.53653 0.31764 0.09382 0.0
H744 H 0.50379 0.33346 0.05293 0.0
H745 H 0.38286 0.21727 0.06814 0.0
H746 H 0.41483 0.20122 0.10929 0.0
H747 H 0.43293 0.29685 0.23743 0.0
H748 H 0.49271 0.30758 0.20708 0.0
H749 H 0.44253 0.17018 0.20572 0.0
H750 H 0.38313 0.1593 0.23662 0.0
H751 H 0.475 0.27939 0.15651 0.0
H752 H 0.51221 0.14219 0.18892 0.0
H753 H 0.53394 0.11941 0.23187 0.0
H754 H 0.58334 0.24563 0.26746 0.0
H755 H 0.56261 0.26954 0.22453 0.0
C756 C 0.4368 0.11718 0.09121 0.0
C757 C 0.43472 0.13283 0.06451 0.0
C758 C 0.46813 0.14407 0.11047 0.0
C759 C 0.49794 0.18697 0.10329 0.0
C760 C 0.50122 0.19968 0.07498 0.0
C761 C 0.46917 0.17297 0.05572 0.0
C762 C 0.51343 0.219 0.1265 0.0
C763 C 0.53025 0.2102 0.15078 0.0
C764 C 0.49761 0.24817 0.12854 0.0
C765 C 0.47807 0.25819 0.10434 0.0
C766 C 0.50292 0.29568 0.08844 0.0
C767 C 0.4845 0.30466 0.06527 0.0
C768 C 0.44126 0.27639 0.05795 0.0
C769 C 0.41626 0.23921 0.07388 0.0
C770 C 0.43444 0.23023 0.09716 0.0
C771 C 0.43497 0.2689 0.23102 0.0
C772 C 0.40261 0.22701 0.23873 0.0
C773 C 0.4696 0.27525 0.21403 0.0
C774 C 0.47245 0.23985 0.20426 0.0
C775 C 0.44173 0.1982 0.21349 0.0
C776 C 0.40725 0.19185 0.23075 0.0
C777 C 0.49984 0.24455 0.17954 0.0
C778 C 0.49199 0.26139 0.15507 0.0
C779 C 0.5229 0.22205 0.17759 0.0
C780 C 0.53603 0.20779 0.20331 0.0
C781 C 0.52821 0.16534 0.2057 0.0
C782 C 0.54021 0.15214 0.23013 0.0
C783 C 0.56006 0.18106 0.25236 0.0
C784 C 0.56794 0.22325 0.25022 0.0
C785 C 0.55602 0.23662 0.22585 0.0
H786 H 0.56928 0.17075 0.27126 0.0
H787 H 0.42712 0.2833 0.03993 0.0
H788 H 0.21547 0.29191 0.37852 0.0
H789 H 0.20081 0.31579 0.4236 0.0
H790 H 0.28351 0.27734 0.4659 0.0
H791 H 0.30002 0.25631 0.42115 0.0
H792 H 0.15955 0.26936 0.46295 0.0
H793 H 0.3207 0.32119 0.52696 0.0
H794 H 0.39937 0.36742 0.51945 0.0
H795 H 0.37569 0.4356 0.45397 0.0
H796 H 0.29687 0.39031 0.46135 0.0
H797 H 0.10844 0.19584 0.60032 0.0
H798 H 0.14621 0.21261 0.55483 0.0
H799 H 0.20429 0.34862 0.57237 0.0
H800 H 0.16634 0.33201 0.61753 0.0
H801 H 0.25981 0.33095 0.54418 0.0
H802 H 0.11653 0.30356 0.53755 0.0
H803 H 0.0369 0.26892 0.5395 0.0
H804 H 0.02483 0.16748 0.48536 0.0
H805 H 0.10423 0.20012 0.48426 0.0
C806 C 0.23108 0.28959 0.39749 0.0
C807 C 0.25861 0.27221 0.3966 0.0
C808 C 0.22298 0.30339 0.42313 0.0
C809 C 0.24162 0.29906 0.44816 0.0
C810 C 0.26991 0.28255 0.44692 0.0
C811 C 0.27882 0.26987 0.42134 0.0
C812 C 0.2264 0.30458 0.47599 0.0
C813 C 0.18157 0.2829 0.48065 0.0
C814 C 0.25512 0.3243 0.49892 0.0
C815 C 0.30269 0.35216 0.49469 0.0
C816 C 0.3322 0.34627 0.51112 0.0
C817 C 0.37686 0.37226 0.50683 0.0
C818 C 0.39251 0.4044 0.48624 0.0
C819 C 0.36352 0.41064 0.46989 0.0
C820 C 0.31883 0.38476 0.47408 0.0
C821 C 0.13049 0.22918 0.59482 0.0
C822 C 0.13447 0.26268 0.61213 0.0
C823 C 0.15163 0.23875 0.56882 0.0
C824 C 0.17722 0.28184 0.56018 0.0
C825 C 0.18445 0.31523 0.57867 0.0
C826 C 0.16289 0.3057 0.6044 0.0
C827 C 0.19331 0.29202 0.53102 0.0
C828 C 0.23809 0.31729 0.52632 0.0
C829 C 0.1645 0.2765 0.50785 0.0
C830 C 0.11656 0.2542 0.51106 0.0
C831 C 0.09697 0.27324 0.52671 0.0
C832 C 0.0518 0.25396 0.52762 0.0
C833 C 0.02589 0.21605 0.51256 0.0
C834 C 0.04497 0.19679 0.49708 0.0
C835 C 0.09004 0.21549 0.49648 0.0
H836 H 0.99109 0.20192 0.51253 0.0
H837 H 0.42709 0.4245 0.48298 0.0
H838 H 0.00304 0.34612 0.76811 0.0
H839 H 0.97899 0.35276 0.8151 0.0
H840 H 0.86631 0.22622 0.8063 0.0
H841 H 0.88877 0.22042 0.75913 0.0
H842 H 0.85651 0.26721 0.85115 0.0
H843 H 0.9734 0.23219 0.81766 0.0
H844 H 0.04258 0.25569 0.79273 0.0
H845 H 0.10123 0.37562 0.83803 0.0
H846 H 0.03233 0.35251 0.86334 0.0
H847 H 0.94336 0.16013 0.96097 0.0
H848 H 0.95065 0.22496 0.93932 0.0
H849 H 0.8452 0.14663 0.88271 0.0
H850 H 0.83671 0.08147 0.90488 0.0
H851 H 0.97452 0.24601 0.88848 0.0
H852 H 0.85731 0.23381 0.94008 0.0
H853 H 0.78564 0.19866 0.96302 0.0
H854 H 0.72339 0.15987 0.8823 0.0
H855 H 0.79464 0.19426 0.85883 0.0
C856 C 0.97197 0.32073 0.7757 0.0
C857 C 0.94879 0.28178 0.76075 0.0
C858 C 0.95811 0.32471 0.80248 0.0
C859 C 0.9223 0.28899 0.81472 0.0
C860 C 0.8947 0.25389 0.79754 0.0
C861 C 0.90787 0.25032 0.77054 0.0
C862 C 0.92193 0.28041 0.84521 0.0
C863 C 0.88251 0.2634 0.8599 0.0
C864 C 0.95651 0.27681 0.8571 0.0
C865 C 0.99788 0.29089 0.84211 0.0
C866 C 0.00115 0.26353 0.82227 0.0
C867 C 0.04024 0.27676 0.80809 0.0
C868 C 0.07624 0.3172 0.81371 0.0
C869 C 0.07328 0.34437 0.83365 0.0
C870 C 0.03428 0.33121 0.84795 0.0
C871 C 0.92153 0.15659 0.94396 0.0
C872 C 0.88987 0.11558 0.93426 0.0
C873 C 0.92538 0.19377 0.93194 0.0
C874 C 0.89791 0.19073 0.90985 0.0
C875 C 0.86587 0.14983 0.90037 0.0
C876 C 0.86164 0.11256 0.91262 0.0
C877 C 0.90771 0.22933 0.89316 0.0
C878 C 0.94916 0.2521 0.88127 0.0
C879 C 0.87475 0.23742 0.8838 0.0
C880 C 0.83151 0.21685 0.89766 0.0
C881 C 0.82837 0.21766 0.92719 0.0
C882 C 0.78777 0.19784 0.9403 0.0
C883 C 0.74997 0.17706 0.92413 0.0
C884 C 0.7527 0.1761 0.8948 0.0
C885 C 0.79322 0.1959 0.88157 0.0
H886 H 0.71855 0.1617 0.93431 0.0
H887 H 0.10643 0.32748 0.80264 0.0
H888 H 0.77461 0.83624 0.06618 0.0
H889 H 0.72939 0.79006 0.10482 0.0
H890 H 0.70155 0.8896 0.13004 0.0
H891 H 0.7435 0.93364 0.09142 0.0
H892 H 0.74783 0.80364 0.15466 0.0
H893 H 0.6234 0.86747 0.16972 0.0
H894 H 0.56789 0.87139 0.14109 0.0
H895 H 0.563 0.77509 0.08494 0.0
H896 H 0.61796 0.76991 0.11347 0.0
H897 H 0.76314 0.91064 0.2744 0.0
H898 H 0.72371 0.89123 0.22956 0.0
H899 H 0.66477 0.75673 0.25062 0.0
H900 H 0.70395 0.77561 0.29529 0.0
H901 H 0.63126 0.81899 0.20098 0.0
H902 H 0.70998 0.72724 0.20935 0.0
H903 H 0.7598 0.71625 0.23985 0.0
H904 H 0.8446 0.85327 0.24559 0.0
H905 H 0.79491 0.86487 0.21526 0.0
C906 C 0.75778 0.84753 0.07963 0.0
C907 C 0.76333 0.8889 0.07602 0.0
C908 C 0.73174 0.82107 0.10158 0.0
C909 C 0.71132 0.83585 0.12031 0.0
C910 C 0.71527 0.87627 0.11557 0.0
C911 C 0.74039 0.90213 0.09359 0.0
C912 C 0.6941 0.81471 0.14793 0.0
C913 C 0.72098 0.80511 0.16429 0.0
C914 C 0.6585 0.81539 0.16092 0.0
C915 C 0.62489 0.81818 0.14389 0.0
C916 C 0.61019 0.84668 0.15149 0.0
C917 C 0.57889 0.84927 0.13519 0.0
C918 C 0.56192 0.8235 0.11122 0.0
C919 C 0.57621 0.79508 0.1035 0.0
C920 C 0.60751 0.79236 0.11971 0.0
C921 C 0.73983 0.87712 0.27016 0.0
C922 C 0.73715 0.84454 0.28776 0.0
C923 C 0.71708 0.86602 0.24467 0.0
C924 C 0.69167 0.82244 0.23692 0.0
C925 C 0.68388 0.7903 0.25651 0.0
C926 C 0.70674 0.80125 0.28178 0.0
C927 C 0.6869 0.81158 0.20676 0.0
C928 C 0.65613 0.81511 0.1905 0.0
C929 C 0.71751 0.8033 0.19355 0.0
C930 C 0.74892 0.79682 0.21014 0.0
C931 C 0.73942 0.75491 0.21701 0.0
C932 C 0.7675 0.74861 0.23431 0.0
C933 C 0.80533 0.78405 0.24464 0.0
C934 C 0.8153 0.82587 0.23754 0.0
C935 C 0.78721 0.83233 0.2203 0.0
H936 H 0.82684 0.77904 0.25817 0.0
H937 H 0.53771 0.82558 0.09862 0.0
H938 H 0.98469 0.84043 0.41195 0.0
H939 H 0.01167 0.8009 0.43939 0.0
H940 H 0.88015 0.70097 0.45641 0.0
H941 H 0.85303 0.73966 0.42896 0.0
H942 H 0.99311 0.79135 0.49375 0.0
H943 H 0.87807 0.60723 0.47626 0.0
H944 H 0.84091 0.55711 0.43691 0.0
H945 H 0.93671 0.64606 0.37916 0.0
H946 H 0.97485 0.69645 0.41818 0.0
H947 H 0.9683 0.69222 0.61518 0.0
H948 H 0.93459 0.67249 0.56887 0.0
H949 H 0.05541 0.69612 0.53264 0.0
H950 H 0.08963 0.71637 0.57871 0.0
H951 H 0.95316 0.63746 0.50006 0.0
H952 H 0.08043 0.78824 0.52972 0.0
H953 H 0.11638 0.83819 0.56883 0.0
H954 H 0.99323 0.81658 0.599 0.0
H955 H 0.9565 0.76578 0.55973 0.0
C956 C 0.9616 0.80964 0.42107 0.0
C957 C 0.9168 0.79371 0.41888 0.0
C958 C 0.97701 0.78688 0.43647 0.0
C959 C 0.94786 0.74779 0.44968 0.0
C960 C 0.90321 0.73058 0.44597 0.0
C961 C 0.88781 0.75328 0.43069 0.0
C962 C 0.96325 0.73021 0.47211 0.0
C963 C 0.98502 0.75787 0.49459 0.0
C964 C 0.95158 0.68616 0.47378 0.0
C965 C 0.92917 0.65579 0.45019 0.0
C966 C 0.89138 0.61602 0.4552 0.0
C967 C 0.8701 0.58757 0.43293 0.0
C968 C 0.88638 0.59844 0.40554 0.0
C969 C 0.92404 0.63775 0.40037 0.0
C970 C 0.94546 0.66631 0.42256 0.0
C971 C 0.98713 0.6907 0.59775 0.0
C972 C 0.03211 0.70762 0.60036 0.0
C973 C 0.96755 0.67887 0.57122 0.0
C974 C 0.99283 0.68383 0.54731 0.0
C975 C 0.03538 0.69214 0.55086 0.0
C976 C 0.05507 0.70423 0.57729 0.0
C977 C 0.98256 0.6989 0.52108 0.0
C978 C 0.96164 0.67095 0.49844 0.0
C979 C 0.99438 0.74268 0.5189 0.0
C980 C 0.01598 0.77335 0.54212 0.0
C981 C 0.06116 0.79428 0.54472 0.0
C982 C 0.08163 0.82275 0.56696 0.0
C983 C 0.05721 0.83073 0.58662 0.0
C984 C 0.01215 0.81032 0.58388 0.0
C985 C 0.99147 0.7817 0.56162 0.0
H986 H 0.07303 0.85259 0.60397 0.0
H987 H 0.86984 0.57638 0.38834 0.0
H988 H 0.21041 0.01387 0.70327 0.0
H989 H 0.24005 0.06238 0.7436 0.0
H990 H 0.27473 0.97424 0.78187 0.0
H991 H 0.25074 0.92989 0.74094 0.0
H992 H 0.19528 0.03785 0.78332 0.0
H993 H 0.31157 0.98934 0.84558 0.0
H994 H 0.3848 -1e-05 0.84015 0.0
H995 H 0.41477 0.09818 0.77826 0.0
H996 H 0.34189 0.08854 0.78344 0.0
H997 H 0.18194 0.04724 0.93758 0.0
H998 H 0.18942 0.05988 0.88708 0.0
H999 H 0.19798 0.94503 0.87541 0.0
H1000 H 0.19097 0.93231 0.92607 0.0
H1001 H 0.2744 0.02127 0.86338 0.0
H1002 H 0.18204 0.09512 0.8358 0.0
H1003 H 0.11173 0.09292 0.83652 0.0
H1004 H 0.04514 0.95579 0.82468 0.0
H1005 H 0.1152 0.95709 0.82494 0.0
C1006 C 0.22677 0.00643 0.71967 0.0
C1007 C 0.22594 0.96684 0.71984 0.0
C1008 C 0.24363 0.03412 0.74284 0.0
C1009 C 0.25787 0.02137 0.76674 0.0
C1010 C 0.26413 0.98575 0.76427 0.0
C1011 C 0.2492 0.95933 0.74074 0.0
C1012 C 0.2524 0.03473 0.79547 0.0
C1013 C 0.21395 0.03577 0.80065 0.0
C1014 C 0.27667 0.03336 0.81874 0.0
C1015 C 0.321 0.039 0.81543 0.0
C1016 C 0.3338 0.0139 0.83118 0.0
C1017 C 0.37534 0.01948 0.82799 0.0
C1018 C 0.40455 0.04995 0.80902 0.0
C1019 C 0.3922 0.07473 0.79309 0.0
C1020 C 0.35072 0.06925 0.79618 0.0
C1021 C 0.18325 0.02341 0.92421 0.0
C1022 C 0.18734 0.98946 0.93586 0.0
C1023 C 0.18764 0.03085 0.89521 0.0
C1024 C 0.19566 0.00415 0.87767 0.0
C1025 C 0.19266 0.96647 0.88879 0.0
C1026 C 0.18843 0.95909 0.91772 0.0
C1027 C 0.21597 0.01932 0.84977 0.0
C1028 C 0.25741 0.02467 0.84552 0.0
C1029 C 0.19562 0.02817 0.82755 0.0
C1030 C 0.15354 0.02618 0.83085 0.0
C1031 C 0.15228 0.06447 0.83394 0.0
C1032 C 0.11253 0.06336 0.83418 0.0
C1033 C 0.07394 0.0242 0.83081 0.0
C1034 C 0.07502 0.98597 0.82764 0.0
C1035 C 0.11469 0.98682 0.82786 0.0
H1036 H 0.04321 0.02349 0.83054 0.0
H1037 H 0.43667 0.05419 0.80657 0.0
loop_
_geom_bond_atom_site_label_1
_geom_bond_atom_site_label_2
_geom_bond_distance
_geom_bond_site_symmetry_2
_ccdc_geom_bond_type
O0 Zn1 1.954 . S
O0 C16 1.228 . S
Zn1 O0 1.954 . S
Zn1 O2 1.949 . S
Zn1 O8 1.919 1_544 S
Zn1 O13 1.924 1_545 S
O2 Zn1 1.949 . S
O2 Zn3 1.923 1_554 S
O2 Zn4 1.950 . S
O2 Zn5 1.945 . S
Zn3 O2 1.923 1_556 S
Zn3 O6 1.933 . S
Zn3 O9 1.941 . S
Zn3 O10 1.965 . S
Zn4 O2 1.950 . S
Zn4 O11 1.938 1_554 S
Zn4 O12 1.906 . S
Zn4 O22 1.953 . S
Zn5 O2 1.945 . S
Zn5 O7 1.932 . S
Zn5 O14 1.977 . S
Zn5 O15 1.910 . S
O6 Zn3 1.933 . S
O6 C17 1.226 1_556 S
O7 Zn5 1.932 . S
O7 C17 1.307 . S
O8 Zn1 1.919 1_566 S
O8 C19 1.253 . S
O9 Zn3 1.941 . S
O9 C19 1.283 1_545 S
O10 Zn3 1.965 . S
O10 C18 1.303 . S
O11 Zn4 1.938 1_556 S
O11 C18 1.247 . S
O12 Zn4 1.906 . S
O12 C20 1.304 . S
O13 Zn1 1.924 1_565 S
O13 C21 1.311 . S
O14 Zn5 1.977 . S
O14 C20 1.272 . S
O15 Zn5 1.910 . S
O15 C21 1.231 1_545 S
C16 O0 1.228 . S
C16 O22 1.298 . S
C17 O6 1.226 1_554 S
C17 O7 1.307 . S
C18 O10 1.303 . S
C18 O11 1.247 . S
C19 O8 1.253 . S
C19 O9 1.283 1_565 S
C20 O12 1.304 . S
C20 O14 1.272 . S
C21 O13 1.311 . S
C21 O15 1.231 1_565 S
O22 Zn4 1.953 . S
O22 C16 1.298 . S
O23 Zn24 1.953 . S
O23 C39 1.225 . S
Zn24 O23 1.953 . S
Zn24 O25 1.949 . S
Zn24 O31 1.919 . S
Zn24 O36 1.924 . S
O25 Zn24 1.949 . S
O25 Zn26 1.923 . S
O25 Zn27 1.950 . S
O25 Zn28 1.945 . S
Zn26 O25 1.923 . S
Zn26 O29 1.933 . S
Zn26 O32 1.941 . S
Zn26 O33 1.965 . S
Zn27 O25 1.950 . S
Zn27 O34 1.938 . S
Zn27 O35 1.906 . S
Zn27 O45 1.953 . S
Zn28 O25 1.945 . S
Zn28 O30 1.932 . S
Zn28 O37 1.977 . S
Zn28 O38 1.910 . S
O29 Zn26 1.933 . S
O29 C40 1.226 . S
O30 Zn28 1.932 . S
O30 C40 1.307 . S
O31 Zn24 1.919 . S
O31 C42 1.253 . S
O32 Zn26 1.941 . S
O32 C42 1.283 . S
O33 Zn26 1.965 . S
O33 C41 1.303 . S
O34 Zn27 1.938 . S
O34 C41 1.247 . S
O35 Zn27 1.906 . S
O35 C43 1.304 . S
O36 Zn24 1.924 . S
O36 C44 1.311 . S
O37 Zn28 1.977 . S
O37 C43 1.272 . S
O38 Zn28 1.910 . S
O38 C44 1.231 . S
C39 O23 1.225 . S
C39 O45 1.298 . S
C40 O29 1.226 . S
C40 O30 1.307 . S
C41 O33 1.303 . S
C41 O34 1.247 . S
C42 O31 1.253 . S
C42 O32 1.283 . S
C43 O35 1.304 . S
C43 O37 1.272 . S
C44 O36 1.311 . S
C44 O38 1.231 . S
O45 Zn27 1.953 . S
O45 C39 1.298 . S
O46 Zn47 1.953 . S
O46 C62 1.225 . S
Zn47 O46 1.953 . S
Zn47 O48 1.949 . S
Zn47 O54 1.919 . S
Zn47 O59 1.924 . S
O48 Zn47 1.949 . S
O48 Zn49 1.923 . S
O48 Zn50 1.942 1_455 S
O48 Zn51 1.945 . S
Zn49 O48 1.923 . S
Zn49 O52 1.933 . S
Zn49 O55 1.941 . S
Zn49 O56 1.965 1_455 S
Zn50 O48 1.942 1_655 S
Zn50 O57 1.950 . S
Zn50 O58 1.922 . S
Zn50 O68 1.936 1_655 S
Zn51 O48 1.945 . S
Zn51 O53 1.932 . S
Zn51 O60 1.977 . S
Zn51 O61 1.910 . S
O52 Zn49 1.933 . S
O52 C63 1.226 . S
O53 Zn51 1.932 . S
O53 C63 1.307 . S
O54 Zn47 1.919 . S
O54 C65 1.253 . S
O55 Zn49 1.941 . S
O55 C65 1.283 . S
O56 Zn49 1.965 1_655 S
O56 C64 1.303 . S
O57 Zn50 1.950 . S
O57 C64 1.247 . S
O58 Zn50 1.922 . S
O58 C66 1.304 . S
O59 Zn47 1.924 . S
O59 C67 1.311 . S
O60 Zn51 1.977 . S
O60 C66 1.272 1_455 S
O61 Zn51 1.910 . S
O61 C67 1.231 . S
C62 O46 1.225 . S
C62 O68 1.298 . S
C63 O52 1.226 . S
C63 O53 1.307 . S
C64 O56 1.303 . S
C64 O57 1.247 . S
C65 O54 1.253 . S
C65 O55 1.283 . S
C66 O58 1.304 . S
C66 O60 1.272 1_655 S
C67 O59 1.311 . S
C67 O61 1.231 . S
O68 Zn50 1.936 1_455 S
O68 C62 1.298 . S
O69 Zn70 1.954 . S
O69 C85 1.228 . S
Zn70 O69 1.954 . S
Zn70 O71 1.949 . S
Zn70 O77 1.919 1_554 S
Zn70 O82 1.924 . S
O71 Zn70 1.949 . S
O71 Zn72 1.923 1_554 S
O71 Zn73 1.950 1_545 S
O71 Zn74 1.945 . S
Zn72 O71 1.923 1_556 S
Zn72 O75 1.933 . S
Zn72 O78 1.941 . S
Zn72 O79 1.965 1_545 S
Zn73 O71 1.950 1_565 S
Zn73 O80 1.938 1_554 S
Zn73 O81 1.906 . S
Zn73 O91 1.953 . S
Zn74 O71 1.945 . S
Zn74 O76 1.932 . S
Zn74 O83 1.977 1_545 S
Zn74 O84 1.910 . S
O75 Zn72 1.933 . S
O75 C86 1.226 1_556 S
O76 Zn74 1.932 . S
O76 C86 1.307 . S
O77 Zn70 1.919 1_556 S
O77 C88 1.253 . S
O78 Zn72 1.941 . S
O78 C88 1.283 . S
O79 Zn72 1.965 1_565 S
O79 C87 1.303 . S
O80 Zn73 1.938 1_556 S
O80 C87 1.247 . S
O81 Zn73 1.906 . S
O81 C89 1.304 . S
O82 Zn70 1.924 . S
O82 C90 1.311 . S
O83 Zn74 1.977 1_565 S
O83 C89 1.272 . S
O84 Zn74 1.910 . S
O84 C90 1.231 . S
C85 O69 1.228 . S
C85 O91 1.298 1_545 S
C86 O75 1.226 1_554 S
C86 O76 1.307 . S
C87 O79 1.303 . S
C87 O80 1.247 . S
C88 O77 1.253 . S
C88 O78 1.283 . S
C89 O81 1.304 . S
C89 O83 1.272 . S
C90 O82 1.311 . S
C90 O84 1.231 . S
O91 Zn73 1.953 . S
O91 C85 1.298 1_565 S
O92 Zn93 1.953 . S
O92 C108 1.225 . S
Zn93 O92 1.953 . S
Zn93 O94 1.949 . S
Zn93 O100 1.919 . S
Zn93 O105 1.924 . S
O94 Zn93 1.949 . S
O94 Zn95 1.923 . S
O94 Zn96 1.950 . S
O94 Zn97 1.945 . S
Zn95 O94 1.923 . S
Zn95 O98 1.933 . S
Zn95 O101 1.941 . S
Zn95 O102 1.965 . S
Zn96 O94 1.950 . S
Zn96 O103 1.938 . S
Zn96 O104 1.906 . S
Zn96 O114 1.953 . S
Zn97 O94 1.945 . S
Zn97 O99 1.932 . S
Zn97 O106 1.977 . S
Zn97 O107 1.910 . S
O98 Zn95 1.933 . S
O98 C109 1.226 . S
O99 Zn97 1.932 . S
O99 C109 1.307 . S
O100 Zn93 1.919 . S
O100 C111 1.253 . S
O101 Zn95 1.941 . S
O101 C111 1.283 . S
O102 Zn95 1.965 . S
O102 C110 1.303 . S
O103 Zn96 1.938 . S
O103 C110 1.247 . S
O104 Zn96 1.906 . S
O104 C112 1.304 . S
O105 Zn93 1.924 . S
O105 C113 1.311 . S
O106 Zn97 1.977 . S
O106 C112 1.272 . S
O107 Zn97 1.910 . S
O107 C113 1.231 . S
C108 O92 1.225 . S
C108 O114 1.298 . S
C109 O98 1.226 . S
C109 O99 1.307 . S
C110 O102 1.303 . S
C110 O103 1.247 . S
C111 O100 1.253 . S
C111 O101 1.283 . S
C112 O104 1.304 . S
C112 O106 1.272 . S
C113 O105 1.311 . S
C113 O107 1.231 . S
O114 Zn96 1.953 . S
O114 C108 1.298 . S
O115 Zn116 1.953 . S
O115 C131 1.225 . S
Zn116 O115 1.953 . S
Zn116 O117 1.949 . S
Zn116 O123 1.919 . S
Zn116 O128 1.924 . S
O117 Zn116 1.949 . S
O117 Zn118 1.923 . S
O117 Zn119 1.950 . S
O117 Zn120 1.945 . S
Zn118 O117 1.923 . S
Zn118 O121 1.933 . S
Zn118 O124 1.941 . S
Zn118 O125 1.965 . S
Zn119 O117 1.950 . S
Zn119 O126 1.938 . S
Zn119 O127 1.906 . S
Zn119 O137 1.953 . S
Zn120 O117 1.945 . S
Zn120 O122 1.932 . S
Zn120 O129 1.977 . S
Zn120 O130 1.910 . S
O121 Zn118 1.933 . S
O121 C132 1.226 . S
O122 Zn120 1.932 . S
O122 C132 1.307 . S
O123 Zn116 1.919 . S
O123 C134 1.253 . S
O124 Zn118 1.941 . S
O124 C134 1.283 . S
O125 Zn118 1.965 . S
O125 C133 1.303 . S
O126 Zn119 1.938 . S
O126 C133 1.247 . S
O127 Zn119 1.906 . S
O127 C135 1.304 . S
O128 Zn116 1.924 . S
O128 C136 1.311 . S
O129 Zn120 1.977 . S
O129 C135 1.272 . S
O130 Zn120 1.910 . S
O130 C136 1.231 . S
C131 O115 1.225 . S
C131 O137 1.298 . S
C132 O121 1.226 . S
C132 O122 1.307 . S
C133 O125 1.303 . S
C133 O126 1.247 . S
C134 O123 1.253 . S
C134 O124 1.283 . S
C135 O127 1.304 . S
C135 O129 1.272 . S
C136 O128 1.311 . S
C136 O130 1.231 . S
O137 Zn119 1.953 . S
O137 C131 1.298 . S
H138 C156 0.951 1_556 S
H139 C158 0.951 1_556 S
H140 C160 0.957 . S
H141 C161 0.950 . S
H142 C163 0.950 . S
H143 C166 0.950 1_545 S
H144 C167 0.950 . S
H145 C169 0.950 . S
H146 C170 0.950 . S
H147 C171 0.951 . S
H148 C173 0.951 . S
H149 C175 0.950 1_566 S
H150 C176 0.950 1_556 S
H151 C178 0.950 1_565 S
H152 C181 0.950 . S
H153 C182 0.950 . S
H154 C184 0.950 . S
H155 C185 0.950 . S
C156 H138 0.951 1_554 S
C156 C157 1.366 1_565 S
C156 C158 1.388 . S
C157 C156 1.366 1_545 S
C157 C161 1.385 . S
C158 H139 0.951 1_554 S
C158 C156 1.388 . S
C158 C159 1.366 1_565 S
C159 C158 1.366 1_545 S
C159 C160 1.414 . S
C159 C162 1.499 1_655 S
C160 H140 0.957 . S
C160 C159 1.414 . S
C160 C161 1.374 . S
C161 H141 0.950 . S
C161 C157 1.385 . S
C161 C160 1.374 . S
C162 C159 1.499 1_455 S
C162 C163 1.373 1_554 S
C162 C164 1.389 . S
C163 H142 0.950 . S
C163 C162 1.373 1_556 S
C163 C179 1.377 . S
C164 C162 1.389 . S
C164 C165 1.524 1_545 S
C164 C178 1.377 . S
C165 C164 1.524 1_565 S
C165 C166 1.397 1_455 S
C165 C170 1.363 . S
C166 H143 0.950 1_565 S
C166 C165 1.397 1_655 S
C166 C167 1.334 . S
C167 H144 0.950 . S
C167 C166 1.334 . S
C167 C168 1.287 . S
C168 C167 1.287 . S
C168 C169 1.524 . S
C168 H187 0.913 . S
C169 H145 0.950 . S
C169 C168 1.524 . S
C169 C170 1.415 1_655 S
C170 H146 0.950 . S
C170 C165 1.363 . S
C170 C169 1.415 1_455 S
C171 H147 0.951 . S
C171 C172 1.366 . S
C171 C173 1.388 . S
C172 C171 1.366 . S
C172 C176 1.385 . S
C173 H148 0.951 . S
C173 C171 1.388 . S
C173 C174 1.366 . S
C174 C173 1.366 . S
C174 C175 1.414 . S
C174 C177 1.499 . S
C175 H149 0.950 1_544 S
C175 C174 1.414 . S
C175 C176 1.374 . S
C176 H150 0.950 1_554 S
C176 C172 1.385 . S
C176 C175 1.374 . S
C177 C174 1.499 . S
C177 C178 1.373 . S
C177 C179 1.389 1_554 S
C178 H151 0.950 1_545 S
C178 C164 1.377 . S
C178 C177 1.373 . S
C179 C163 1.377 . S
C179 C177 1.389 1_556 S
C179 C180 1.524 . S
C180 C179 1.524 . S
C180 C181 1.397 . S
C180 C185 1.363 . S
C181 H152 0.950 . S
C181 C180 1.397 . S
C181 C182 1.334 . S
C182 H153 0.950 . S
C182 C181 1.334 . S
C182 C183 1.287 . S
C183 C182 1.287 . S
C183 C184 1.524 . S
C183 H186 0.999 . S
C184 H154 0.950 . S
C184 C183 1.524 . S
C184 C185 1.415 . S
C185 H155 0.950 . S
C185 C180 1.363 . S
C185 C184 1.415 . S
H186 C183 0.999 . S
H187 C168 0.913 . S
H188 C206 0.951 . S
H189 C208 0.951 . S
H190 C210 0.950 . S
H191 C211 0.950 . S
H192 C213 0.950 . S
H193 C216 0.937 1_655 S
H194 C217 0.950 1_655 S
H195 C219 0.950 . S
H196 C220 0.952 1_545 S
H197 C221 0.951 . S
H198 C223 0.951 . S
H199 C225 0.950 . S
H200 C226 0.950 . S
H201 C228 0.950 . S
H202 C231 0.950 . S
H203 C232 0.950 . S
H204 C234 0.950 . S
H205 C235 0.950 . S
C206 H188 0.951 . S
C206 C207 1.366 . S
C206 C208 1.388 1_655 S
C207 C206 1.366 . S
C207 C211 1.385 . S
C208 H189 0.951 . S
C208 C206 1.388 1_455 S
C208 C209 1.366 1_455 S
C209 C208 1.366 1_655 S
C209 C210 1.414 . S
C209 C212 1.499 1_665 S
C210 H190 0.950 . S
C210 C209 1.414 . S
C210 C211 1.374 . S
C211 H191 0.950 . S
C211 C207 1.385 . S
C211 C210 1.374 . S
C212 C209 1.499 1_445 S
C212 C213 1.373 . S
C212 C214 1.389 . S
C213 H192 0.950 . S
C213 C212 1.373 . S
C213 C229 1.377 . S
C214 C212 1.389 . S
C214 C215 1.524 1_545 S
C214 C228 1.377 . S
C215 C214 1.524 1_565 S
C215 C216 1.397 . S
C215 C220 1.363 . S
C216 H193 0.937 1_455 S
C216 C215 1.397 . S
C216 C217 1.334 . S
C217 H194 0.950 1_455 S
C217 C216 1.334 . S
C217 C218 1.287 . S
C218 C217 1.287 . S
C218 C219 1.524 . S
C218 H237 0.913 . S
C219 H195 0.950 . S
C219 C218 1.524 . S
C219 C220 1.415 . S
C220 H196 0.952 1_565 S
C220 C215 1.363 . S
C220 C219 1.415 . S
C221 H197 0.951 . S
C221 C222 1.366 . S
C221 C223 1.388 . S
C222 C221 1.366 . S
C222 C226 1.385 . S
C223 H198 0.951 . S
C223 C221 1.388 . S
C223 C224 1.366 . S
C224 C223 1.366 . S
C224 C225 1.414 . S
C224 C227 1.499 . S
C225 H199 0.950 . S
C225 C224 1.414 . S
C225 C226 1.374 . S
C226 H200 0.950 . S
C226 C222 1.385 . S
C226 C225 1.374 . S
C227 C224 1.499 . S
C227 C228 1.373 . S
C227 C229 1.389 . S
C228 H201 0.950 . S
C228 C214 1.377 . S
C228 C227 1.373 . S
C229 C213 1.377 . S
C229 C227 1.389 . S
C229 C230 1.524 . S
C230 C229 1.524 . S
C230 C231 1.397 . S
C230 C235 1.363 . S
C231 H202 0.950 . S
C231 C230 1.397 . S
C231 C232 1.334 . S
C232 H203 0.950 . S
C232 C231 1.334 . S
C232 C233 1.287 . S
C233 C232 1.287 . S
C233 C234 1.524 . S
C233 H236 0.999 . S
C234 H204 0.950 . S
C234 C233 1.524 . S
C234 C235 1.415 . S
C235 H205 0.950 . S
C235 C230 1.363 . S
C235 C234 1.415 . S
H236 C233 0.999 . S
H237 C218 0.913 . S
H238 C256 0.951 . S
H239 C258 0.951 1_545 S
H240 C260 0.950 . S
H241 C261 0.950 . S
H242 C263 0.950 1_565 S
H243 C266 0.950 1_565 S
H244 C267 0.950 . S
H245 C269 0.950 . S
H246 C270 0.950 . S
H247 C271 0.951 1_655 S
H248 C273 0.951 1_655 S
H249 C275 0.950 . S
H250 C276 0.950 . S
H251 C278 0.950 . S
H252 C281 0.950 . S
H253 C282 0.950 . S
H254 C284 0.942 1_565 S
H255 C285 0.950 1_565 S
C256 H238 0.951 . S
C256 C257 1.366 . S
C256 C258 1.388 . S
C257 C256 1.366 . S
C257 C261 1.385 . S
C258 H239 0.951 1_565 S
C258 C256 1.388 . S
C258 C259 1.366 . S
C259 C258 1.366 . S
C259 C260 1.414 . S
C259 C262 1.499 1_565 S
C260 H240 0.950 . S
C260 C259 1.414 . S
C260 C261 1.374 . S
C261 H241 0.950 . S
C261 C257 1.385 . S
C261 C260 1.374 . S
C262 C259 1.499 1_545 S
C262 C263 1.373 . S
C262 C264 1.389 . S
C263 H242 0.950 1_545 S
C263 C262 1.373 . S
C263 C279 1.377 . S
C264 C262 1.389 . S
C264 C265 1.524 . S
C264 C278 1.377 . S
C265 C264 1.524 . S
C265 C266 1.397 . S
C265 C270 1.363 . S
C266 H243 0.950 1_545 S
C266 C265 1.397 . S
C266 C267 1.334 1_545 S
C267 H244 0.950 . S
C267 C266 1.334 1_565 S
C267 C268 1.287 1_565 S
C268 C267 1.287 1_545 S
C268 C269 1.524 . S
C268 H287 0.913 . S
C269 H245 0.950 . S
C269 C268 1.524 . S
C269 C270 1.415 . S
C270 H246 0.950 . S
C270 C265 1.363 . S
C270 C269 1.415 . S
C271 H247 0.951 1_455 S
C271 C272 1.366 . S
C271 C273 1.388 . S
C272 C271 1.366 . S
C272 C276 1.385 . S
C273 H248 0.951 1_455 S
C273 C271 1.388 . S
C273 C274 1.366 . S
C274 C273 1.366 . S
C274 C275 1.414 . S
C274 C277 1.499 . S
C275 H249 0.950 . S
C275 C274 1.414 . S
C275 C276 1.374 . S
C276 H250 0.950 . S
C276 C272 1.385 . S
C276 C275 1.374 . S
C277 C274 1.499 . S
C277 C278 1.373 . S
C277 C279 1.389 . S
C278 H251 0.950 . S
C278 C264 1.377 . S
C278 C277 1.373 . S
C279 C263 1.377 . S
C279 C277 1.389 . S
C279 C280 1.524 . S
C280 C279 1.524 . S
C280 C281 1.397 . S
C280 C285 1.363 1_455 S
C281 H252 0.950 . S
C281 C280 1.397 . S
C281 C282 1.334 . S
C282 H253 0.950 . S
C282 C281 1.334 . S
C282 C283 1.287 1_455 S
C283 C282 1.287 1_655 S
C283 C284 1.524 . S
C283 H286 0.999 . S
C284 H254 0.942 1_545 S
C284 C283 1.524 . S
C284 C285 1.415 . S
C285 H255 0.950 1_545 S
C285 C280 1.363 1_655 S
C285 C284 1.415 . S
H286 C283 0.999 . S
H287 C268 0.913 . S
H288 C306 0.951 . S
H289 C308 0.951 . S
H290 C310 0.950 . S
H291 C311 0.950 . S
H292 C313 0.950 . S
H293 C316 0.950 . S
H294 C317 0.950 . S
H295 C319 0.950 . S
H296 C320 0.950 . S
H297 C321 0.951 . S
H298 C323 0.951 . S
H299 C325 0.950 . S
H300 C326 0.950 . S
H301 C328 0.950 . S
H302 C331 0.950 . S
H303 C332 0.950 . S
H304 C334 0.950 . S
H305 C335 0.950 . S
C306 H288 0.951 . S
C306 C307 1.366 . S
C306 C308 1.388 . S
C307 C306 1.366 . S
C307 C311 1.385 . S
C308 H289 0.951 . S
C308 C306 1.388 . S
C308 C309 1.366 . S
C309 C308 1.366 . S
C309 C310 1.414 . S
C309 C312 1.499 . S
C310 H290 0.950 . S
C310 C309 1.414 . S
C310 C311 1.374 . S
C311 H291 0.950 . S
C311 C307 1.385 . S
C311 C310 1.374 . S
C312 C309 1.499 . S
C312 C313 1.373 . S
C312 C314 1.389 . S
C313 H292 0.950 . S
C313 C312 1.373 . S
C313 C329 1.377 . S
C314 C312 1.389 . S
C314 C315 1.524 . S
C314 C328 1.377 . S
C315 C314 1.524 . S
C315 C316 1.397 . S
C315 C320 1.363 . S
C316 H293 0.950 . S
C316 C315 1.397 . S
C316 C317 1.334 . S
C317 H294 0.950 . S
C317 C316 1.334 . S
C317 C318 1.287 . S
C318 C317 1.287 . S
C318 C319 1.524 . S
C318 H337 0.913 . S
C319 H295 0.950 . S
C319 C318 1.524 . S
C319 C320 1.415 . S
C320 H296 0.950 . S
C320 C315 1.363 . S
C320 C319 1.415 . S
C321 H297 0.951 . S
C321 C322 1.366 . S
C321 C323 1.388 . S
C322 C321 1.366 . S
C322 C326 1.385 . S
C323 H298 0.951 . S
C323 C321 1.388 . S
C323 C324 1.366 . S
C324 C323 1.366 . S
C324 C325 1.414 . S
C324 C327 1.499 . S
C325 H299 0.950 . S
C325 C324 1.414 . S
C325 C326 1.374 . S
C326 H300 0.950 . S
C326 C322 1.385 . S
C326 C325 1.374 . S
C327 C324 1.499 . S
C327 C328 1.373 . S
C327 C329 1.389 . S
C328 H301 0.950 . S
C328 C314 1.377 . S
C328 C327 1.373 . S
C329 C313 1.377 . S
C329 C327 1.389 . S
C329 C330 1.524 . S
C330 C329 1.524 . S
C330 C331 1.397 . S
C330 C335 1.363 . S
C331 H302 0.950 . S
C331 C330 1.397 . S
C331 C332 1.334 . S
C332 H303 0.950 . S
C332 C331 1.334 . S
C332 C333 1.287 . S
C333 C332 1.287 . S
C333 C334 1.524 . S
C333 H336 0.999 . S
C334 H304 0.950 . S
C334 C333 1.524 . S
C334 C335 1.415 . S
C335 H305 0.950 . S
C335 C330 1.363 . S
C335 C334 1.415 . S
H336 C333 0.999 . S
H337 C318 0.913 . S
H338 C356 0.951 . S
H339 C358 0.951 . S
H340 C360 0.950 . S
H341 C361 0.950 . S
H342 C363 0.950 . S
H343 C366 0.950 . S
H344 C367 0.950 . S
H345 C369 0.950 . S
H346 C370 0.950 . S
H347 C371 0.951 . S
H348 C373 0.951 . S
H349 C375 0.950 . S
H350 C376 0.950 . S
H351 C378 0.950 . S
H352 C381 0.950 . S
H353 C382 0.954 . S
H354 C384 0.950 . S
H355 C385 0.950 . S
C356 H338 0.951 . S
C356 C357 1.366 . S
C356 C358 1.388 . S
C357 C356 1.366 . S
C357 C361 1.385 . S
C358 H339 0.951 . S
C358 C356 1.388 . S
C358 C359 1.366 . S
C359 C358 1.366 . S
C359 C360 1.414 . S
C359 C362 1.499 . S
C360 H340 0.950 . S
C360 C359 1.414 . S
C360 C361 1.374 . S
C361 H341 0.950 . S
C361 C357 1.385 . S
C361 C360 1.374 . S
C362 C359 1.499 . S
C362 C363 1.373 . S
C362 C364 1.389 . S
C363 H342 0.950 . S
C363 C362 1.373 . S
C363 C379 1.377 . S
C364 C362 1.389 . S
C364 C365 1.524 . S
C364 C378 1.377 . S
C365 C364 1.524 . S
C365 C366 1.397 . S
C365 C370 1.363 . S
C366 H343 0.950 . S
C366 C365 1.397 . S
C366 C367 1.334 . S
C367 H344 0.950 . S
C367 C366 1.334 . S
C367 C368 1.287 . S
C368 C367 1.287 . S
C368 C369 1.524 . S
C368 H387 0.913 . S
C369 H345 0.950 . S
C369 C368 1.524 . S
C369 C370 1.415 . S
C370 H346 0.950 . S
C370 C365 1.363 . S
C370 C369 1.415 . S
C371 H347 0.951 . S
C371 C372 1.366 . S
C371 C373 1.388 . S
C372 C371 1.366 . S
C372 C376 1.385 . S
C373 H348 0.951 . S
C373 C371 1.388 . S
C373 C374 1.366 . S
C374 C373 1.366 . S
C374 C375 1.414 1_655 S
C374 C377 1.499 1_655 S
C375 H349 0.950 . S
C375 C374 1.414 1_455 S
C375 C376 1.374 1_455 S
C376 H350 0.950 . S
C376 C372 1.385 . S
C376 C375 1.374 1_655 S
C377 C374 1.499 1_455 S
C377 C378 1.373 . S
C377 C379 1.389 . S
C378 H351 0.950 . S
C378 C364 1.377 . S
C378 C377 1.373 . S
C379 C363 1.377 . S
C379 C377 1.389 . S
C379 C380 1.524 . S
C380 C379 1.524 . S
C380 C381 1.397 . S
C380 C385 1.363 1_455 S
C381 H352 0.950 . S
C381 C380 1.397 . S
C381 C382 1.334 1_455 S
C382 H353 0.954 . S
C382 C381 1.334 1_655 S
C382 C383 1.287 . S
C383 C382 1.287 . S
C383 C384 1.524 . S
C383 H386 0.971 1_545 S
C384 H354 0.950 . S
C384 C383 1.524 . S
C384 C385 1.415 . S
C385 H355 0.950 . S
C385 C380 1.363 1_655 S
C385 C384 1.415 . S
H386 C383 0.971 1_565 S
H387 C368 0.913 . S
H388 C406 0.951 . S
H389 C408 0.951 . S
H390 C410 0.950 . S
H391 C411 0.950 . S
H392 C413 0.950 . S
H393 C416 0.950 1_655 S
H394 C417 0.950 . S
H395 C419 0.950 . S
H396 C420 0.950 . S
H397 C421 0.951 . S
H398 C423 0.951 . S
H399 C425 0.950 . S
H400 C426 0.950 . S
H401 C428 0.950 . S
H402 C431 0.950 . S
H403 C432 0.950 . S
H404 C434 0.950 . S
H405 C435 0.950 . S
C406 H388 0.951 . S
C406 C407 1.366 . S
C406 C408 1.388 . S
C407 C406 1.366 . S
C407 C411 1.385 . S
C408 H389 0.951 . S
C408 C406 1.388 . S
C408 C409 1.366 . S
C409 C408 1.366 . S
C409 C410 1.414 . S
C409 C412 1.499 . S
C410 H390 0.950 . S
C410 C409 1.414 . S
C410 C411 1.374 . S
C411 H391 0.950 . S
C411 C407 1.385 . S
C411 C410 1.374 . S
C412 C409 1.499 . S
C412 C413 1.373 . S
C412 C414 1.389 . S
C413 H392 0.950 . S
C413 C412 1.373 . S
C413 C429 1.377 . S
C414 C412 1.389 . S
C414 C415 1.524 . S
C414 C428 1.377 . S
C415 C414 1.524 . S
C415 C416 1.397 1_655 S
C415 C420 1.363 . S
C416 H393 0.950 1_455 S
C416 C415 1.397 1_455 S
C416 C417 1.334 . S
C417 H394 0.950 . S
C417 C416 1.334 . S
C417 C418 1.287 . S
C418 C417 1.287 . S
C418 C419 1.524 . S
C418 H437 0.913 . S
C419 H395 0.950 . S
C419 C418 1.524 . S
C419 C420 1.415 1_455 S
C420 H396 0.950 . S
C420 C415 1.363 . S
C420 C419 1.415 1_655 S
C421 H397 0.951 . S
C421 C422 1.366 . S
C421 C423 1.388 . S
C422 C421 1.366 . S
C422 C426 1.385 . S
C423 H398 0.951 . S
C423 C421 1.388 . S
C423 C424 1.366 . S
C424 C423 1.366 . S
C424 C425 1.414 . S
C424 C427 1.499 . S
C425 H399 0.950 . S
C425 C424 1.414 . S
C425 C426 1.374 . S
C426 H400 0.950 . S
C426 C422 1.385 . S
C426 C425 1.374 . S
C427 C424 1.499 . S
C427 C428 1.373 1_565 S
C427 C429 1.389 1_565 S
C428 H401 0.950 . S
C428 C414 1.377 . S
C428 C427 1.373 1_545 S
C429 C413 1.377 . S
C429 C427 1.389 1_545 S
C429 C430 1.524 1_545 S
C430 C429 1.524 1_565 S
C430 C431 1.397 . S
C430 C435 1.363 1_565 S
C431 H402 0.950 . S
C431 C430 1.397 . S
C431 C432 1.334 . S
C432 H403 0.950 . S
C432 C431 1.334 . S
C432 C433 1.287 . S
C433 C432 1.287 . S
C433 C434 1.524 1_565 S
C433 H436 0.999 . S
C434 H404 0.950 . S
C434 C433 1.524 1_545 S
C434 C435 1.415 . S
C435 H405 0.950 . S
C435 C430 1.363 1_545 S
C435 C434 1.415 . S
H436 C433 0.999 . S
H437 C418 0.913 . S
H438 C456 0.951 . S
H439 C458 0.951 . S
H440 C460 0.950 . S
H441 C461 0.950 . S
H442 C463 0.950 . S
H443 C466 0.950 . S
H444 C467 0.950 . S
H445 C469 0.950 . S
H446 C470 0.950 1_455 S
H447 C471 0.951 . S
H448 C473 0.951 . S
H449 C475 0.950 1_455 S
H450 C476 0.950 . S
H451 C478 0.950 . S
H452 C481 0.950 . S
H453 C482 0.950 . S
H454 C484 0.950 . S
H455 C485 0.950 . S
C456 H438 0.951 . S
C456 C457 1.366 . S
C456 C458 1.388 . S
C457 C456 1.366 . S
C457 C461 1.385 . S
C458 H439 0.951 . S
C458 C456 1.388 . S
C458 C459 1.366 . S
C459 C458 1.366 . S
C459 C460 1.414 . S
C459 C462 1.499 . S
C460 H440 0.950 . S
C460 C459 1.414 . S
C460 C461 1.374 . S
C461 H441 0.950 . S
C461 C457 1.385 . S
C461 C460 1.374 . S
C462 C459 1.499 . S
C462 C463 1.373 . S
C462 C464 1.389 . S
C463 H442 0.950 . S
C463 C462 1.373 . S
C463 C479 1.377 . S
C464 C462 1.389 . S
C464 C465 1.524 . S
C464 C478 1.377 . S
C465 C464 1.524 . S
C465 C466 1.397 . S
C465 C470 1.363 . S
C466 H443 0.950 . S
C466 C465 1.397 . S
C466 C467 1.334 1_565 S
C467 H444 0.950 . S
C467 C466 1.334 1_545 S
C467 C468 1.287 . S
C468 C467 1.287 . S
C468 C469 1.524 1_655 S
C468 H487 0.913 . S
C469 H445 0.950 . S
C469 C468 1.524 1_455 S
C469 C470 1.415 1_445 S
C470 H446 0.950 1_655 S
C470 C465 1.363 . S
C470 C469 1.415 1_665 S
C471 H447 0.951 . S
C471 C472 1.366 . S
C471 C473 1.388 . S
C472 C471 1.366 . S
C472 C476 1.385 1_655 S
C473 H448 0.951 . S
C473 C471 1.388 . S
C473 C474 1.366 . S
C474 C473 1.366 . S
C474 C475 1.414 . S
C474 C477 1.499 . S
C475 H449 0.950 1_655 S
C475 C474 1.414 . S
C475 C476 1.374 1_655 S
C476 H450 0.950 . S
C476 C472 1.385 1_455 S
C476 C475 1.374 1_455 S
C477 C474 1.499 . S
C477 C478 1.373 . S
C477 C479 1.389 . S
C478 H451 0.950 . S
C478 C464 1.377 . S
C478 C477 1.373 . S
C479 C463 1.377 . S
C479 C477 1.389 . S
C479 C480 1.524 . S
C480 C479 1.524 . S
C480 C481 1.397 . S
C480 C485 1.363 . S
C481 H452 0.950 . S
C481 C480 1.397 . S
C481 C482 1.334 . S
C482 H453 0.950 . S
C482 C481 1.334 . S
C482 C483 1.287 . S
C483 C482 1.287 . S
C483 C484 1.524 . S
C483 H486 0.999 . S
C484 H454 0.950 . S
C484 C483 1.524 . S
C484 C485 1.415 . S
C485 H455 0.950 . S
C485 C480 1.363 . S
C485 C484 1.415 . S
H486 C483 0.999 . S
H487 C468 0.913 . S
H488 C506 0.952 1_455 S
H489 C508 0.951 . S
H490 C510 0.950 . S
H491 C511 0.950 . S
H492 C513 0.950 . S
H493 C516 0.950 1_655 S
H494 C517 0.950 . S
H495 C519 0.950 . S
H496 C520 0.950 . S
H497 C521 0.951 . S
H498 C523 0.951 . S
H499 C525 0.950 . S
H500 C526 0.950 1_545 S
H501 C528 0.950 . S
H502 C531 0.950 . S
H503 C532 0.950 . S
H504 C534 0.950 . S
H505 C535 0.950 . S
C506 H488 0.952 1_655 S
C506 C507 1.366 . S
C506 C508 1.388 1_655 S
C507 C506 1.366 . S
C507 C511 1.385 . S
C508 H489 0.951 . S
C508 C506 1.388 1_455 S
C508 C509 1.366 . S
C509 C508 1.366 . S
C509 C510 1.414 1_455 S
C509 C512 1.499 . S
C510 H490 0.950 . S
C510 C509 1.414 1_655 S
C510 C511 1.374 . S
C511 H491 0.950 . S
C511 C507 1.385 . S
C511 C510 1.374 . S
C512 C509 1.499 . S
C512 C513 1.373 . S
C512 C514 1.389 . S
C513 H492 0.950 . S
C513 C512 1.373 . S
C513 C529 1.377 . S
C514 C512 1.389 . S
C514 C515 1.524 . S
C514 C528 1.377 . S
C515 C514 1.524 . S
C515 C516 1.397 . S
C515 C520 1.363 . S
C516 H493 0.950 1_455 S
C516 C515 1.397 . S
C516 C517 1.334 1_455 S
C517 H494 0.950 . S
C517 C516 1.334 1_655 S
C517 C518 1.287 1_655 S
C518 C517 1.287 1_455 S
C518 C519 1.524 1_565 S
C518 H537 0.891 1_565 S
C519 H495 0.950 . S
C519 C518 1.524 1_545 S
C519 C520 1.415 1_545 S
C520 H496 0.950 . S
C520 C515 1.363 . S
C520 C519 1.415 1_565 S
C521 H497 0.951 . S
C521 C522 1.366 . S
C521 C523 1.388 . S
C522 C521 1.366 . S
C522 C526 1.385 . S
C523 H498 0.951 . S
C523 C521 1.388 . S
C523 C524 1.366 . S
C524 C523 1.366 . S
C524 C525 1.414 . S
C524 C527 1.499 . S
C525 H499 0.950 . S
C525 C524 1.414 . S
C525 C526 1.374 . S
C526 H500 0.950 1_565 S
C526 C522 1.385 . S
C526 C525 1.374 . S
C527 C524 1.499 . S
C527 C528 1.373 . S
C527 C529 1.389 . S
C528 H501 0.950 . S
C528 C514 1.377 . S
C528 C527 1.373 . S
C529 C513 1.377 . S
C529 C527 1.389 . S
C529 C530 1.524 . S
C530 C529 1.524 . S
C530 C531 1.397 . S
C530 C535 1.363 . S
C531 H502 0.950 . S
C531 C530 1.397 . S
C531 C532 1.334 . S
C532 H503 0.950 . S
C532 C531 1.334 . S
C532 C533 1.287 . S
C533 C532 1.287 . S
C533 C534 1.524 . S
C533 H536 0.999 . S
C534 H504 0.950 . S
C534 C533 1.524 . S
C534 C535 1.415 . S
C535 H505 0.950 . S
C535 C530 1.363 . S
C535 C534 1.415 . S
H536 C533 0.999 . S
H537 C518 0.891 1_545 S
H538 C556 0.951 . S
H539 C558 0.951 . S
H540 C560 0.950 1_545 S
H541 C561 0.950 . S
H542 C563 0.950 . S
H543 C566 0.950 . S
H544 C567 0.950 . S
H545 C569 0.950 . S
H546 C570 0.950 . S
H547 C571 0.951 . S
H548 C573 0.951 . S
H549 C575 0.950 . S
H550 C576 0.950 . S
H551 C578 0.950 . S
H552 C581 0.950 . S
H553 C582 0.950 . S
H554 C584 0.950 . S
H555 C585 0.950 . S
C556 H538 0.951 . S
C556 C557 1.366 . S
C556 C558 1.388 . S
C557 C556 1.366 . S
C557 C561 1.385 . S
C558 H539 0.951 . S
C558 C556 1.388 . S
C558 C559 1.366 . S
C559 C558 1.366 . S
C559 C560 1.414 . S
C559 C562 1.499 1_565 S
C560 H540 0.950 1_565 S
C560 C559 1.414 . S
C560 C561 1.374 . S
C561 H541 0.950 . S
C561 C557 1.385 . S
C561 C560 1.374 . S
C562 C559 1.499 1_545 S
C562 C563 1.373 . S
C562 C564 1.389 . S
C563 H542 0.950 . S
C563 C562 1.373 . S
C563 C579 1.377 . S
C564 C562 1.389 . S
C564 C565 1.524 1_545 S
C564 C578 1.377 . S
C565 C564 1.524 1_565 S
C565 C566 1.397 . S
C565 C570 1.363 . S
C566 H543 0.950 . S
C566 C565 1.397 . S
C566 C567 1.334 . S
C567 H544 0.950 . S
C567 C566 1.334 . S
C567 C568 1.287 . S
C568 C567 1.287 . S
C568 C569 1.524 . S
C568 H587 0.913 . S
C569 H545 0.950 . S
C569 C568 1.524 . S
C569 C570 1.415 . S
C570 H546 0.950 . S
C570 C565 1.363 . S
C570 C569 1.415 . S
C571 H547 0.951 . S
C571 C572 1.366 . S
C571 C573 1.388 . S
C572 C571 1.366 . S
C572 C576 1.385 . S
C573 H548 0.951 . S
C573 C571 1.388 . S
C573 C574 1.366 . S
C574 C573 1.366 . S
C574 C575 1.414 . S
C574 C577 1.499 . S
C575 H549 0.950 . S
C575 C574 1.414 . S
C575 C576 1.374 . S
C576 H550 0.950 . S
C576 C572 1.385 . S
C576 C575 1.374 . S
C577 C574 1.499 . S
C577 C578 1.373 . S
C577 C579 1.389 . S
C578 H551 0.950 . S
C578 C564 1.377 . S
C578 C577 1.373 . S
C579 C563 1.377 . S
C579 C577 1.389 . S
C579 C580 1.524 . S
C580 C579 1.524 . S
C580 C581 1.397 . S
C580 C585 1.363 . S
C581 H552 0.950 . S
C581 C580 1.397 . S
C581 C582 1.334 . S
C582 H553 0.950 . S
C582 C581 1.334 . S
C582 C583 1.287 . S
C583 C582 1.287 . S
C583 C584 1.524 . S
C583 H586 0.999 . S
C584 H554 0.950 . S
C584 C583 1.524 . S
C584 C585 1.415 . S
C585 H555 0.950 . S
C585 C580 1.363 . S
C585 C584 1.415 . S
H586 C583 0.999 . S
H587 C568 0.913 . S
H588 C606 0.951 . S
H589 C608 0.951 . S
H590 C610 0.950 . S
H591 C611 0.950 . S
H592 C613 0.950 . S
H593 C616 0.950 1_565 S
H594 C617 0.950 . S
H595 C619 0.950 . S
H596 C620 0.950 . S
H597 C621 0.951 . S
H598 C623 0.951 1_565 S
H599 C625 0.950 . S
H600 C626 0.950 . S
H601 C628 0.950 . S
H602 C631 0.950 . S
H603 C632 0.950 . S
H604 C634 0.950 . S
H605 C635 0.950 . S
C606 H588 0.951 . S
C606 C607 1.366 1_556 S
C606 C608 1.388 . S
C607 C606 1.366 1_554 S
C607 C611 1.385 . S
C608 H589 0.951 . S
C608 C606 1.388 . S
C608 C609 1.366 1_556 S
C609 C608 1.366 1_554 S
C609 C610 1.414 . S
C609 C612 1.499 . S
C610 H590 0.950 . S
C610 C609 1.414 . S
C610 C611 1.374 . S
C611 H591 0.950 . S
C611 C607 1.385 . S
C611 C610 1.374 . S
C612 C609 1.499 . S
C612 C613 1.373 . S
C612 C614 1.389 1_554 S
C613 H592 0.950 . S
C613 C612 1.373 . S
C613 C629 1.377 . S
C614 C612 1.389 1_556 S
C614 C615 1.524 . S
C614 C628 1.377 . S
C615 C614 1.524 . S
C615 C616 1.397 . S
C615 C620 1.363 . S
C616 H593 0.950 1_545 S
C616 C615 1.397 . S
C616 C617 1.334 1_545 S
C617 H594 0.950 . S
C617 C616 1.334 1_565 S
C617 C618 1.287 1_565 S
C618 C617 1.287 1_545 S
C618 C619 1.524 . S
C618 H637 0.913 . S
C619 H595 0.950 . S
C619 C618 1.524 . S
C619 C620 1.415 . S
C620 H596 0.950 . S
C620 C615 1.363 . S
C620 C619 1.415 . S
C621 H597 0.951 . S
C621 C622 1.366 1_565 S
C621 C623 1.388 1_565 S
C622 C621 1.366 1_545 S
C622 C626 1.385 1_554 S
C623 H598 0.951 1_545 S
C623 C621 1.388 1_545 S
C623 C624 1.366 . S
C624 C623 1.366 . S
C624 C625 1.414 1_554 S
C624 C627 1.499 . S
C625 H599 0.950 . S
C625 C624 1.414 1_556 S
C625 C626 1.374 . S
C626 H600 0.950 . S
C626 C622 1.385 1_556 S
C626 C625 1.374 . S
C627 C624 1.499 . S
C627 C628 1.373 1_554 S
C627 C629 1.389 . S
C628 H601 0.950 . S
C628 C614 1.377 . S
C628 C627 1.373 1_556 S
C629 C613 1.377 . S
C629 C627 1.389 . S
C629 C630 1.524 . S
C630 C629 1.524 . S
C630 C631 1.397 . S
C630 C635 1.363 . S
C631 H602 0.950 . S
C631 C630 1.397 . S
C631 C632 1.334 . S
C632 H603 0.950 . S
C632 C631 1.334 . S
C632 C633 1.287 . S
C633 C632 1.287 . S
C633 C634 1.524 . S
C633 H636 0.999 . S
C634 H604 0.950 . S
C634 C633 1.524 . S
C634 C635 1.415 . S
C635 H605 0.950 . S
C635 C630 1.363 . S
C635 C634 1.415 . S
H636 C633 0.999 . S
H637 C618 0.913 . S
H638 C656 0.951 . S
H639 C658 0.951 . S
H640 C660 0.950 . S
H641 C661 0.950 . S
H642 C663 0.950 . S
H643 C666 0.950 . S
H644 C667 0.950 . S
H645 C669 0.950 . S
H646 C670 0.950 . S
H647 C671 0.951 . S
H648 C673 0.951 . S
H649 C675 0.950 . S
H650 C676 0.950 . S
H651 C678 0.950 . S
H652 C681 0.950 . S
H653 C682 0.950 . S
H654 C684 0.950 . S
H655 C685 0.950 . S
C656 H638 0.951 . S
C656 C657 1.366 . S
C656 C658 1.388 . S
C657 C656 1.366 . S
C657 C661 1.385 . S
C658 H639 0.951 . S
C658 C656 1.388 . S
C658 C659 1.366 . S
C659 C658 1.366 . S
C659 C660 1.414 . S
C659 C662 1.499 . S
C660 H640 0.950 . S
C660 C659 1.414 . S
C660 C661 1.374 . S
C661 H641 0.950 . S
C661 C657 1.385 . S
C661 C660 1.374 . S
C662 C659 1.499 . S
C662 C663 1.373 . S
C662 C664 1.389 . S
C663 H642 0.950 . S
C663 C662 1.373 . S
C663 C679 1.377 . S
C664 C662 1.389 . S
C664 C665 1.524 . S
C664 C678 1.377 . S
C665 C664 1.524 . S
C665 C666 1.397 . S
C665 C670 1.363 . S
C666 H643 0.950 . S
C666 C665 1.397 . S
C666 C667 1.334 . S
C667 H644 0.950 . S
C667 C666 1.334 . S
C667 C668 1.287 . S
C668 C667 1.287 . S
C668 C669 1.524 . S
C668 H687 0.913 . S
C669 H645 0.950 . S
C669 C668 1.524 . S
C669 C670 1.415 . S
C670 H646 0.950 . S
C670 C665 1.363 . S
C670 C669 1.415 . S
C671 H647 0.951 . S
C671 C672 1.366 . S
C671 C673 1.388 . S
C672 C671 1.366 . S
C672 C676 1.385 . S
C673 H648 0.951 . S
C673 C671 1.388 . S
C673 C674 1.366 . S
C674 C673 1.366 . S
C674 C675 1.414 . S
C674 C677 1.499 . S
C675 H649 0.950 . S
C675 C674 1.414 . S
C675 C676 1.374 . S
C676 H650 0.950 . S
C676 C672 1.385 . S
C676 C675 1.374 . S
C677 C674 1.499 . S
C677 C678 1.373 . S
C677 C679 1.389 . S
C678 H651 0.950 . S
C678 C664 1.377 . S
C678 C677 1.373 . S
C679 C663 1.377 . S
C679 C677 1.389 . S
C679 C680 1.524 . S
C680 C679 1.524 . S
C680 C681 1.397 . S
C680 C685 1.363 . S
C681 H652 0.950 . S
C681 C680 1.397 . S
C681 C682 1.334 . S
C682 H653 0.950 . S
C682 C681 1.334 . S
C682 C683 1.287 . S
C683 C682 1.287 . S
C683 C684 1.524 . S
C683 H686 0.999 . S
C684 H654 0.950 . S
C684 C683 1.524 . S
C684 C685 1.415 . S
C685 H655 0.950 . S
C685 C680 1.363 . S
C685 C684 1.415 . S
H686 C683 0.999 . S
H687 C668 0.913 . S
H688 C706 0.951 . S
H689 C708 0.951 . S
H690 C710 0.950 1_655 S
H691 C711 0.950 1_655 S
H692 C713 0.950 . S
H693 C716 0.950 . S
H694 C717 0.950 . S
H695 C719 0.950 . S
H696 C720 0.950 . S
H697 C721 0.951 . S
H698 C723 0.951 . S
H699 C725 0.950 . S
H700 C726 0.950 . S
H701 C728 0.950 . S
H702 C731 0.950 . S
H703 C732 0.950 . S
H704 C734 0.950 . S
H705 C735 0.945 1_655 S
C706 H688 0.951 . S
C706 C707 1.366 . S
C706 C708 1.388 . S
C707 C706 1.366 . S
C707 C711 1.385 . S
C708 H689 0.951 . S
C708 C706 1.388 . S
C708 C709 1.366 . S
C709 C708 1.366 . S
C709 C710 1.414 . S
C709 C712 1.499 . S
C710 H690 0.950 1_455 S
C710 C709 1.414 . S
C710 C711 1.374 . S
C711 H691 0.950 1_455 S
C711 C707 1.385 . S
C711 C710 1.374 . S
C712 C709 1.499 . S
C712 C713 1.373 . S
C712 C714 1.389 . S
C713 H692 0.950 . S
C713 C712 1.373 . S
C713 C729 1.377 . S
C714 C712 1.389 . S
C714 C715 1.524 . S
C714 C728 1.377 . S
C715 C714 1.524 . S
C715 C716 1.397 . S
C715 C720 1.363 . S
C716 H693 0.950 . S
C716 C715 1.397 . S
C716 C717 1.334 . S
C717 H694 0.950 . S
C717 C716 1.334 . S
C717 C718 1.287 . S
C718 C717 1.287 . S
C718 C719 1.524 . S
C718 H737 0.913 . S
C719 H695 0.950 . S
C719 C718 1.524 . S
C719 C720 1.415 . S
C720 H696 0.950 . S
C720 C715 1.363 . S
C720 C719 1.415 . S
C721 H697 0.951 . S
C721 C722 1.366 . S
C721 C723 1.388 . S
C722 C721 1.366 . S
C722 C726 1.385 . S
C723 H698 0.951 . S
C723 C721 1.388 . S
C723 C724 1.366 . S
C724 C723 1.366 . S
C724 C725 1.414 . S
C724 C727 1.499 . S
C725 H699 0.950 . S
C725 C724 1.414 . S
C725 C726 1.374 . S
C726 H700 0.950 . S
C726 C722 1.385 . S
C726 C725 1.374 . S
C727 C724 1.499 . S
C727 C728 1.373 . S
C727 C729 1.389 . S
C728 H701 0.950 . S
C728 C714 1.377 . S
C728 C727 1.373 . S
C729 C713 1.377 . S
C729 C727 1.389 . S
C729 C730 1.524 . S
C730 C729 1.524 . S
C730 C731 1.397 . S
C730 C735 1.378 . S
C731 H702 0.950 . S
C731 C730 1.397 . S
C731 C732 1.334 . S
C732 H703 0.950 . S
C732 C731 1.334 . S
C732 C733 1.287 . S
C733 C732 1.287 . S
C733 C734 1.524 1_455 S
C733 H736 0.999 . S
C734 H704 0.950 . S
C734 C733 1.524 1_655 S
C734 C735 1.406 1_655 S
C735 H705 0.945 1_455 S
C735 C730 1.378 . S
C735 C734 1.406 1_455 S
H736 C733 0.999 . S
H737 C718 0.913 . S
H738 C756 0.951 . S
H739 C758 0.951 . S
H740 C760 0.950 . S
H741 C761 0.950 . S
H742 C763 0.950 . S
H743 C766 0.950 . S
H744 C767 0.950 . S
H745 C769 0.950 . S
H746 C770 0.950 . S
H747 C771 0.951 . S
H748 C773 0.951 . S
H749 C775 0.950 . S
H750 C776 0.950 . S
H751 C778 0.950 . S
H752 C781 0.950 . S
H753 C782 0.950 . S
H754 C784 0.950 . S
H755 C785 0.950 . S
C756 H738 0.951 . S
C756 C757 1.366 . S
C756 C758 1.388 . S
C757 C756 1.366 . S
C757 C761 1.385 . S
C758 H739 0.951 . S
C758 C756 1.388 . S
C758 C759 1.366 . S
C759 C758 1.366 . S
C759 C760 1.414 . S
C759 C762 1.499 . S
C760 H740 0.950 . S
C760 C759 1.414 . S
C760 C761 1.374 . S
C761 H741 0.950 . S
C761 C757 1.385 . S
C761 C760 1.374 . S
C762 C759 1.499 . S
C762 C763 1.373 . S
C762 C764 1.389 . S
C763 H742 0.950 . S
C763 C762 1.373 . S
C763 C779 1.377 . S
C764 C762 1.389 . S
C764 C765 1.524 . S
C764 C778 1.377 . S
C765 C764 1.524 . S
C765 C766 1.397 . S
C765 C770 1.363 . S
C766 H743 0.950 . S
C766 C765 1.397 . S
C766 C767 1.334 . S
C767 H744 0.950 . S
C767 C766 1.334 . S
C767 C768 1.287 . S
C768 C767 1.287 . S
C768 C769 1.524 . S
C768 H787 0.913 . S
C769 H745 0.950 . S
C769 C768 1.524 . S
C769 C770 1.415 . S
C770 H746 0.950 . S
C770 C765 1.363 . S
C770 C769 1.415 . S
C771 H747 0.951 . S
C771 C772 1.366 . S
C771 C773 1.388 . S
C772 C771 1.366 . S
C772 C776 1.385 . S
C773 H748 0.951 . S
C773 C771 1.388 . S
C773 C774 1.366 . S
C774 C773 1.366 . S
C774 C775 1.414 . S
C774 C777 1.499 . S
C775 H749 0.950 . S
C775 C774 1.414 . S
C775 C776 1.374 . S
C776 H750 0.950 . S
C776 C772 1.385 . S
C776 C775 1.374 . S
C777 C774 1.499 . S
C777 C778 1.373 . S
C777 C779 1.389 . S
C778 H751 0.950 . S
C778 C764 1.377 . S
C778 C777 1.373 . S
C779 C763 1.377 . S
C779 C777 1.389 . S
C779 C780 1.524 . S
C780 C779 1.524 . S
C780 C781 1.397 . S
C780 C785 1.363 . S
C781 H752 0.950 . S
C781 C780 1.397 . S
C781 C782 1.334 . S
C782 H753 0.950 . S
C782 C781 1.334 . S
C782 C783 1.287 . S
C783 C782 1.287 . S
C783 C784 1.524 . S
C783 H786 0.999 . S
C784 H754 0.950 . S
C784 C783 1.524 . S
C784 C785 1.415 . S
C785 H755 0.950 . S
C785 C780 1.363 . S
C785 C784 1.415 . S
H786 C783 0.999 . S
H787 C768 0.913 . S
H788 C806 0.951 . S
H789 C808 0.951 . S
H790 C810 0.950 . S
H791 C811 0.950 . S
H792 C813 0.950 . S
H793 C816 0.950 . S
H794 C817 0.950 . S
H795 C819 0.950 . S
H796 C820 0.950 . S
H797 C821 0.951 . S
H798 C823 0.951 . S
H799 C825 0.950 . S
H800 C826 0.950 . S
H801 C828 0.950 . S
H802 C831 0.950 . S
H803 C832 0.950 . S
H804 C834 0.950 . S
H805 C835 0.950 . S
C806 H788 0.951 . S
C806 C807 1.366 . S
C806 C808 1.388 . S
C807 C806 1.366 . S
C807 C811 1.385 . S
C808 H789 0.951 . S
C808 C806 1.388 . S
C808 C809 1.366 . S
C809 C808 1.366 . S
C809 C810 1.414 . S
C809 C812 1.499 . S
C810 H790 0.950 . S
C810 C809 1.414 . S
C810 C811 1.374 . S
C811 H791 0.950 . S
C811 C807 1.385 . S
C811 C810 1.374 . S
C812 C809 1.499 . S
C812 C813 1.373 . S
C812 C814 1.389 . S
C813 H792 0.950 . S
C813 C812 1.373 . S
C813 C829 1.377 . S
C814 C812 1.389 . S
C814 C815 1.524 . S
C814 C828 1.377 . S
C815 C814 1.524 . S
C815 C816 1.397 . S
C815 C820 1.363 . S
C816 H793 0.950 . S
C816 C815 1.397 . S
C816 C817 1.334 . S
C817 H794 0.950 . S
C817 C816 1.334 . S
C817 C818 1.287 . S
C818 C817 1.287 . S
C818 C819 1.524 . S
C818 H837 0.913 . S
C819 H795 0.950 . S
C819 C818 1.524 . S
C819 C820 1.415 . S
C820 H796 0.950 . S
C820 C815 1.363 . S
C820 C819 1.415 . S
C821 H797 0.951 . S
C821 C822 1.366 . S
C821 C823 1.388 . S
C822 C821 1.366 . S
C822 C826 1.385 . S
C823 H798 0.951 . S
C823 C821 1.388 . S
C823 C824 1.366 . S
C824 C823 1.366 . S
C824 C825 1.414 . S
C824 C827 1.499 . S
C825 H799 0.950 . S
C825 C824 1.414 . S
C825 C826 1.374 . S
C826 H800 0.950 . S
C826 C822 1.385 . S
C826 C825 1.374 . S
C827 C824 1.499 . S
C827 C828 1.373 . S
C827 C829 1.389 . S
C828 H801 0.950 . S
C828 C814 1.377 . S
C828 C827 1.373 . S
C829 C813 1.377 . S
C829 C827 1.389 . S
C829 C830 1.524 . S
C830 C829 1.524 . S
C830 C831 1.397 . S
C830 C835 1.363 . S
C831 H802 0.950 . S
C831 C830 1.397 . S
C831 C832 1.334 . S
C832 H803 0.950 . S
C832 C831 1.334 . S
C832 C833 1.287 . S
C833 C832 1.287 . S
C833 C834 1.524 . S
C833 H836 0.999 . S
C834 H804 0.950 . S
C834 C833 1.524 . S
C834 C835 1.415 . S
C835 H805 0.950 . S
C835 C830 1.363 . S
C835 C834 1.415 . S
H836 C833 0.999 . S
H837 C818 0.913 . S
H838 C856 0.951 . S
H839 C858 0.951 . S
H840 C860 0.950 . S
H841 C861 0.950 . S
H842 C863 0.950 . S
H843 C866 0.950 1_655 S
H844 C867 0.950 . S
H845 C869 0.950 . S
H846 C870 0.950 . S
H847 C871 0.951 . S
H848 C873 0.951 . S
H849 C875 0.950 . S
H850 C876 0.950 . S
H851 C878 0.950 . S
H852 C881 0.950 . S
H853 C882 0.950 . S
H854 C884 0.950 . S
H855 C885 0.950 . S
C856 H838 0.951 . S
C856 C857 1.366 . S
C856 C858 1.388 . S
C857 C856 1.366 . S
C857 C861 1.385 . S
C858 H839 0.951 . S
C858 C856 1.388 . S
C858 C859 1.366 . S
C859 C858 1.366 . S
C859 C860 1.414 . S
C859 C862 1.499 . S
C860 H840 0.950 . S
C860 C859 1.414 . S
C860 C861 1.374 . S
C861 H841 0.950 . S
C861 C857 1.385 . S
C861 C860 1.374 . S
C862 C859 1.499 . S
C862 C863 1.373 . S
C862 C864 1.389 . S
C863 H842 0.950 . S
C863 C862 1.373 . S
C863 C879 1.377 . S
C864 C862 1.389 . S
C864 C865 1.524 . S
C864 C878 1.377 . S
C865 C864 1.524 . S
C865 C866 1.397 1_655 S
C865 C870 1.363 1_655 S
C866 H843 0.950 1_455 S
C866 C865 1.397 1_455 S
C866 C867 1.334 . S
C867 H844 0.950 . S
C867 C866 1.334 . S
C867 C868 1.287 . S
C868 C867 1.287 . S
C868 C869 1.524 . S
C868 H887 0.913 . S
C869 H845 0.950 . S
C869 C868 1.524 . S
C869 C870 1.415 . S
C870 H846 0.950 . S
C870 C865 1.363 1_455 S
C870 C869 1.415 . S
C871 H847 0.951 . S
C871 C872 1.366 . S
C871 C873 1.388 . S
C872 C871 1.366 . S
C872 C876 1.385 . S
C873 H848 0.951 . S
C873 C871 1.388 . S
C873 C874 1.366 . S
C874 C873 1.366 . S
C874 C875 1.414 . S
C874 C877 1.499 . S
C875 H849 0.950 . S
C875 C874 1.414 . S
C875 C876 1.374 . S
C876 H850 0.950 . S
C876 C872 1.385 . S
C876 C875 1.374 . S
C877 C874 1.499 . S
C877 C878 1.373 . S
C877 C879 1.389 . S
C878 H851 0.950 . S
C878 C864 1.377 . S
C878 C877 1.373 . S
C879 C863 1.377 . S
C879 C877 1.389 . S
C879 C880 1.524 . S
C880 C879 1.524 . S
C880 C881 1.397 . S
C880 C885 1.363 . S
C881 H852 0.950 . S
C881 C880 1.397 . S
C881 C882 1.334 . S
C882 H853 0.950 . S
C882 C881 1.334 . S
C882 C883 1.287 . S
C883 C882 1.287 . S
C883 C884 1.524 . S
C883 H886 0.999 . S
C884 H854 0.950 . S
C884 C883 1.524 . S
C884 C885 1.415 . S
C885 H855 0.950 . S
C885 C880 1.363 . S
C885 C884 1.415 . S
H886 C883 0.999 . S
H887 C868 0.913 . S
H888 C906 0.951 . S
H889 C908 0.951 . S
H890 C910 0.950 . S
H891 C911 0.950 . S
H892 C913 0.950 . S
H893 C916 0.950 . S
H894 C917 0.950 . S
H895 C919 0.950 . S
H896 C920 0.950 . S
H897 C921 0.951 . S
H898 C923 0.951 . S
H899 C925 0.950 . S
H900 C926 0.950 . S
H901 C928 0.950 . S
H902 C931 0.950 . S
H903 C932 0.950 . S
H904 C934 0.950 . S
H905 C935 0.950 . S
C906 H888 0.951 . S
C906 C907 1.366 . S
C906 C908 1.388 . S
C907 C906 1.366 . S
C907 C911 1.385 . S
C908 H889 0.951 . S
C908 C906 1.388 . S
C908 C909 1.366 . S
C909 C908 1.366 . S
C909 C910 1.414 . S
C909 C912 1.499 . S
C910 H890 0.950 . S
C910 C909 1.414 . S
C910 C911 1.374 . S
C911 H891 0.950 . S
C911 C907 1.385 . S
C911 C910 1.374 . S
C912 C909 1.499 . S
C912 C913 1.373 . S
C912 C914 1.389 . S
C913 H892 0.950 . S
C913 C912 1.373 . S
C913 C929 1.377 . S
C914 C912 1.389 . S
C914 C915 1.524 . S
C914 C928 1.377 . S
C915 C914 1.524 . S
C915 C916 1.397 . S
C915 C920 1.363 . S
C916 H893 0.950 . S
C916 C915 1.397 . S
C916 C917 1.334 . S
C917 H894 0.950 . S
C917 C916 1.334 . S
C917 C918 1.287 . S
C918 C917 1.287 . S
C918 C919 1.524 . S
C918 H937 0.913 . S
C919 H895 0.950 . S
C919 C918 1.524 . S
C919 C920 1.415 . S
C920 H896 0.950 . S
C920 C915 1.363 . S
C920 C919 1.415 . S
C921 H897 0.951 . S
C921 C922 1.366 . S
C921 C923 1.388 . S
C922 C921 1.366 . S
C922 C926 1.385 . S
C923 H898 0.951 . S
C923 C921 1.388 . S
C923 C924 1.366 . S
C924 C923 1.366 . S
C924 C925 1.414 . S
C924 C927 1.499 . S
C925 H899 0.950 . S
C925 C924 1.414 . S
C925 C926 1.374 . S
C926 H900 0.950 . S
C926 C922 1.385 . S
C926 C925 1.374 . S
C927 C924 1.499 . S
C927 C928 1.373 . S
C927 C929 1.389 . S
C928 H901 0.950 . S
C928 C914 1.377 . S
C928 C927 1.373 . S
C929 C913 1.377 . S
C929 C927 1.389 . S
C929 C930 1.524 . S
C930 C929 1.524 . S
C930 C931 1.397 . S
C930 C935 1.363 . S
C931 H902 0.950 . S
C931 C930 1.397 . S
C931 C932 1.334 . S
C932 H903 0.950 . S
C932 C931 1.334 . S
C932 C933 1.287 . S
C933 C932 1.287 . S
C933 C934 1.524 . S
C933 H936 0.999 . S
C934 H904 0.950 . S
C934 C933 1.524 . S
C934 C935 1.415 . S
C935 H905 0.950 . S
C935 C930 1.363 . S
C935 C934 1.415 . S
H936 C933 0.999 . S
H937 C918 0.913 . S
H938 C956 0.951 . S
H939 C958 0.951 . S
H940 C960 0.950 . S
H941 C961 0.950 . S
H942 C963 0.950 . S
H943 C966 0.950 . S
H944 C967 0.950 . S
H945 C969 0.950 . S
H946 C970 0.950 . S
H947 C971 0.951 . S
H948 C973 0.951 . S
H949 C975 0.950 . S
H950 C976 0.950 . S
H951 C978 0.950 . S
H952 C981 0.950 . S
H953 C982 0.950 . S
H954 C984 0.950 . S
H955 C985 0.950 . S
C956 H938 0.951 . S
C956 C957 1.366 . S
C956 C958 1.388 . S
C957 C956 1.366 . S
C957 C961 1.385 . S
C958 H939 0.951 . S
C958 C956 1.388 . S
C958 C959 1.366 . S
C959 C958 1.366 . S
C959 C960 1.414 . S
C959 C962 1.499 . S
C960 H940 0.950 . S
C960 C959 1.414 . S
C960 C961 1.374 . S
C961 H941 0.950 . S
C961 C957 1.385 . S
C961 C960 1.374 . S
C962 C959 1.499 . S
C962 C963 1.373 . S
C962 C964 1.389 . S
C963 H942 0.950 . S
C963 C962 1.373 . S
C963 C979 1.377 . S
C964 C962 1.389 . S
C964 C965 1.524 . S
C964 C978 1.377 . S
C965 C964 1.524 . S
C965 C966 1.397 . S
C965 C970 1.363 . S
C966 H943 0.950 . S
C966 C965 1.397 . S
C966 C967 1.334 . S
C967 H944 0.950 . S
C967 C966 1.334 . S
C967 C968 1.287 . S
C968 C967 1.287 . S
C968 C969 1.524 . S
C968 H987 0.913 . S
C969 H945 0.950 . S
C969 C968 1.524 . S
C969 C970 1.415 . S
C970 H946 0.950 . S
C970 C965 1.363 . S
C970 C969 1.415 . S
C971 H947 0.951 . S
C971 C972 1.366 1_655 S
C971 C973 1.388 . S
C972 C971 1.366 1_455 S
C972 C976 1.385 . S
C973 H948 0.951 . S
C973 C971 1.388 . S
C973 C974 1.366 . S
C974 C973 1.366 . S
C974 C975 1.414 1_655 S
C974 C977 1.499 . S
C975 H949 0.950 . S
C975 C974 1.414 1_455 S
C975 C976 1.374 . S
C976 H950 0.950 . S
C976 C972 1.385 . S
C976 C975 1.374 . S
C977 C974 1.499 . S
C977 C978 1.373 . S
C977 C979 1.389 . S
C978 H951 0.950 . S
C978 C964 1.377 . S
C978 C977 1.373 . S
C979 C963 1.377 . S
C979 C977 1.389 . S
C979 C980 1.524 . S
C980 C979 1.524 . S
C980 C981 1.397 1_655 S
C980 C985 1.363 . S
C981 H952 0.950 . S
C981 C980 1.397 1_455 S
C981 C982 1.334 . S
C982 H953 0.950 . S
C982 C981 1.334 . S
C982 C983 1.287 1_455 S
C983 C982 1.287 1_655 S
C983 C984 1.524 . S
C983 H986 0.999 . S
C984 H954 0.950 . S
C984 C983 1.524 . S
C984 C985 1.415 . S
C985 H955 0.950 . S
C985 C980 1.363 . S
C985 C984 1.415 . S
H986 C983 0.999 . S
H987 C968 0.913 . S
H988 C1006 0.951 . S
H989 C1008 0.951 . S
H990 C1010 0.950 . S
H991 C1011 0.950 . S
H992 C1013 0.950 . S
H993 C1016 0.950 . S
H994 C1017 0.950 . S
H995 C1019 0.950 . S
H996 C1020 0.950 . S
H997 C1021 0.951 . S
H998 C1023 0.951 . S
H999 C1025 0.950 1_545 S
H1000 C1026 0.950 . S
H1001 C1028 0.950 . S
H1002 C1031 0.950 1_545 S
H1003 C1032 0.950 1_545 S
H1004 C1034 0.950 . S
H1005 C1035 0.950 . S
C1006 H988 0.951 . S
C1006 C1007 1.366 . S
C1006 C1008 1.388 . S
C1007 C1006 1.366 . S
C1007 C1011 1.385 . S
C1008 H989 0.951 . S
C1008 C1006 1.388 . S
C1008 C1009 1.366 . S
C1009 C1008 1.366 . S
C1009 C1010 1.414 . S
C1009 C1012 1.499 . S
C1010 H990 0.950 . S
C1010 C1009 1.414 . S
C1010 C1011 1.374 . S
C1011 H991 0.950 . S
C1011 C1007 1.385 . S
C1011 C1010 1.374 . S
C1012 C1009 1.499 . S
C1012 C1013 1.373 . S
C1012 C1014 1.389 . S
C1013 H992 0.950 . S
C1013 C1012 1.373 . S
C1013 C1029 1.377 . S
C1014 C1012 1.389 . S
C1014 C1015 1.524 . S
C1014 C1028 1.377 . S
C1015 C1014 1.524 . S
C1015 C1016 1.397 . S
C1015 C1020 1.363 . S
C1016 H993 0.950 . S
C1016 C1015 1.397 . S
C1016 C1017 1.334 . S
C1017 H994 0.950 . S
C1017 C1016 1.334 . S
C1017 C1018 1.287 . S
C1018 C1017 1.287 . S
C1018 C1019 1.524 . S
C1018 H1037 0.913 . S
C1019 H995 0.950 . S
C1019 C1018 1.524 . S
C1019 C1020 1.415 . S
C1020 H996 0.950 . S
C1020 C1015 1.363 . S
C1020 C1019 1.415 . S
C1021 H997 0.951 . S
C1021 C1022 1.366 . S
C1021 C1023 1.388 . S
C1022 C1021 1.366 . S
C1022 C1026 1.385 1_565 S
C1023 H998 0.951 . S
C1023 C1021 1.388 . S
C1023 C1024 1.366 . S
C1024 C1023 1.366 . S
C1024 C1025 1.414 . S
C1024 C1027 1.499 . S
C1025 H999 0.950 1_565 S
C1025 C1024 1.414 . S
C1025 C1026 1.374 1_565 S
C1026 H1000 0.950 . S
C1026 C1022 1.385 1_545 S
C1026 C1025 1.374 1_545 S
C1027 C1024 1.499 . S
C1027 C1028 1.373 . S
C1027 C1029 1.389 . S
C1028 H1001 0.950 . S
C1028 C1014 1.377 . S
C1028 C1027 1.373 . S
C1029 C1013 1.377 . S
C1029 C1027 1.389 . S
C1029 C1030 1.524 . S
C1030 C1029 1.524 . S
C1030 C1031 1.397 . S
C1030 C1035 1.363 . S
C1031 H1002 0.950 1_565 S
C1031 C1030 1.397 . S
C1031 C1032 1.334 . S
C1032 H1003 0.950 1_565 S
C1032 C1031 1.334 . S
C1032 C1033 1.287 . S
C1033 C1032 1.287 . S
C1033 C1034 1.524 . S
C1033 H1036 0.999 . S
C1034 H1004 0.950 . S
C1034 C1033 1.524 . S
C1034 C1035 1.415 . S
C1035 H1005 0.950 . S
C1035 C1030 1.363 . S
C1035 C1034 1.415 . S
H1036 C1033 0.999 . S
H1037 C1018 0.913 . S
C157 C85 1.364 . S
C172 C16 1.364 . S
C207 C108 1.364 . S
C222 C39 1.364 . S
C257 C131 1.364 . S
C272 C62 1.364 . S
C307 C18 1.870 . S
C322 C67 1.877 . S
C357 C41 1.870 . S
C372 C90 1.877 . S
C407 C64 1.870 . S
C422 C113 1.877 . S
C457 C87 1.870 . S
C472 C136 1.877 1_655 S
C507 C110 1.870 . S
C522 C21 1.877 . S
C557 C133 1.870 . S
C572 C44 1.877 . S
C607 C17 0.789 . S
C622 C86 0.789 . S
C657 C40 0.788 . S
C672 C109 0.788 . S
C707 C63 0.789 . S
C722 C132 0.789 . S
C757 C20 0.582 . S
C772 C42 0.544 . S
C807 C43 0.578 . S
C822 C65 0.548 . S
C857 C66 0.582 . S
C872 C88 0.545 . S
C907 C89 0.579 . S
C922 C111 0.548 . S
C957 C112 0.578 . S
C972 C134 0.548 . S
C1007 C135 0.578 . S
C1022 C19 0.548 . S
