# Generated by pormake.
# Topology snp, (6)-cn, num edge types: 1
# Building blocks:
#     Node 0, Type 0, BuildingBlock: JUFBIX_clean_sbu_0, # of connection points: 6
#     Node 1, Type 0, BuildingBlock: JUFBIX_clean_sbu_0, # of connection points: 6
#     Node 2, Type 0, BuildingBlock: JUFBIX_clean_sbu_0, # of connection points: 6
#     Node 3, Type 0, BuildingBlock: JUFBIX_clean_sbu_0, # of connection points: 6
#     Edge 4, Type (0, 0), BuildingBlock: EZIPEK_clean_linker_0, # of connection points: 2
#     Edge 5, Type (0, 0), BuildingBlock: EZIPEK_clean_linker_0, # of connection points: 2
#     Edge 6, Type (0, 0), BuildingBlock: EZIPEK_clean_linker_0, # of connection points: 2
#     Edge 7, Type (0, 0), BuildingBlock: EZIPEK_clean_linker_0, # of connection points: 2
#     Edge 8, Type (0, 0), BuildingBlock: EZIPEK_clean_linker_0, # of connection points: 2
#     Edge 9, Type (0, 0), BuildingBlock: EZIPEK_clean_linker_0, # of connection points: 2
#     Edge 10, Type (0, 0), BuildingBlock: EZIPEK_clean_linker_0, # of connection points: 2
#     Edge 11, Type (0, 0), BuildingBlock: EZIPEK_clean_linker_0, # of connection points: 2
#     Edge 12, Type (0, 0), BuildingBlock: EZIPEK_clean_linker_0, # of connection points: 2
#     Edge 13, Type (0, 0), BuildingBlock: EZIPEK_clean_linker_0, # of connection points: 2
#     Edge 14, Type (0, 0), BuildingBlock: EZIPEK_clean_linker_0, # of connection points: 2
#     Edge 15, Type (0, 0), BuildingBlock: EZIPEK_clean_linker_0, # of connection points: 2
# Relax obj value: 0.751
# Max RMSD: 0.277
# Mean RMSD: 0.273
data_MOF--net-snp--node1-JUFBIX_clean_sbu_0--edge1-EZIPEK_clean_linker_0
_symmetry_space_group_name_H-M    P1
_symmetry_Int_Tables_number       1
_symmetry_cell_setting            triclinic
loop_
_symmetry_equiv_pos_as_xyz
'x, y, z'
_cell_length_a     20.09701
_cell_length_b     19.811485
_cell_length_c     20.883272
_cell_angle_alpha  86.603051
_cell_angle_beta   98.723974
_cell_angle_gamma 101.22525
loop_
_atom_site_label
_atom_site_type_symbol
_atom_site_fract_x
_atom_site_fract_y
_atom_site_fract_z
_atom_type_partial_charge
Co0 Co 0.26048 0.08893 0.11759 0.0
C1 C 0.37878 0.04248 0.12826 0.0
Co2 Co 0.25032 -0.00052 0.05616 0.0
C3 C 0.26928 0.16865 0.23156 0.0
C4 C 0.23786 0.22196 0.14341 0.0
N5 N 0.25996 0.16374 0.16656 0.0
N6 N 0.2533 0.22715 0.2494 0.0
C7 C 0.23365 0.26099 0.19432 0.0
H8 H 0.28263 0.12811 0.26526 0.0
H9 H 0.22108 0.2331 0.09288 0.0
C10 C 0.13191 0.04552 0.0455 0.0
N11 N 0.24697 0.92571 1.00381 0.0
C12 C 0.20892 0.91454 0.94497 0.0
C13 C 0.27948 0.87169 1.01527 0.0
N14 N 0.21585 0.85579 0.91955 0.0
C15 C 0.26074 0.82874 0.96319 0.0
C16 C 0.2176 0.96258 0.17993 0.0
O17 O 0.16826 0.08831 0.08561 0.0
O18 O 0.1588 -0.00016 0.02548 0.0
O19 O 0.22197 0.9373 0.12624 0.0
O20 O 0.23397 0.02738 0.18601 0.0
O21 O 0.34317 -0.00063 0.08797 0.0
H22 H 0.31416 0.86381 0.05881 0.0
H23 H 0.17653 0.94887 0.92087 0.0
O24 O 0.35278 0.08893 0.14906 0.0
O25 O 0.28591 0.14931 0.05006 0.0
O26 O 0.2763 0.06322 0.98694 0.0
C27 C 0.28896 0.12807 0.99497 0.0
H28 H 0.21345 0.30808 0.19143 0.0
H29 H 0.27793 0.78111 0.95799 0.0
Co30 Co 0.03517 0.25793 0.72085 0.0
C31 C 0.08097 0.39626 0.68349 0.0
Co32 Co 0.11222 0.27661 0.65342 0.0
C33 C 0.95692 0.20797 0.82833 0.0
C34 C 0.91975 0.28858 0.76908 0.0
N35 N 0.96917 0.25012 0.77622 0.0
N36 N 0.90191 0.21922 0.85336 0.0
C37 C 0.87852 0.26976 0.81633 0.0
H38 H -0.013 0.16949 0.84706 0.0
H39 H 0.91353 0.32751 0.73124 0.0
C40 C 0.0636 0.13916 0.68602 0.0
N41 N 0.17798 0.28455 0.59733 0.0
C42 C 0.16821 0.28908 0.53182 0.0
C43 C 0.24358 0.27536 0.61298 0.0
N44 N 0.2239 0.28066 0.50671 0.0
C45 C 0.27161 0.27254 0.55745 0.0
C46 C 0.16849 0.26596 0.7825 0.0
O47 O 0.02649 0.16264 0.72006 0.0
O48 O 0.10354 0.18122 0.65446 0.0
O49 O 0.18229 0.28143 0.72565 0.0
O50 O 0.10673 0.25915 0.79313 0.0
O51 O 0.1185 0.3717 0.65084 0.0
H52 H 0.26901 0.26723 0.66139 0.0
H53 H 0.11995 0.29343 0.50246 0.0
O54 O 0.04435 0.35516 0.71911 0.0
O55 O 0.96364 0.25248 0.64784 0.0
O56 O 0.0411 0.2692 0.58236 0.0
C57 C -0.02131 0.25621 0.59067 0.0
H58 H 0.83423 0.29085 0.82274 0.0
H59 H 0.32177 0.26171 0.55434 0.0
Co60 Co 0.79465 0.03031 0.19534 0.0
C61 C 0.89584 0.98019 0.15053 0.0
Co62 Co 0.75595 0.94668 0.12604 0.0
C63 C 0.819 0.10921 0.31403 0.0
C64 C 0.87935 0.15562 0.24141 0.0
N65 N 0.8295 0.10177 0.25254 0.0
N66 N 0.86258 0.1639 0.3422 0.0
C67 C 0.90023 0.19315 0.29633 0.0
H68 H 0.78291 0.07318 0.33883 0.0
H69 H 0.9012 0.16558 0.19687 0.0
C70 C 0.65511 0.00246 0.16699 0.0
N71 N 0.7256 0.87789 0.06586 0.0
C72 C 0.75398 0.87285 1.01202 0.0
C73 C 0.67384 0.823 0.06503 0.0
N74 N 0.72224 0.81728 0.97785 0.0
C75 C 0.67169 0.78546 1.01074 0.0
C76 C 0.77467 0.89943 0.25403 0.0
O77 O 0.70498 0.03909 0.20152 0.0
O78 O 0.66538 0.95717 0.13074 0.0
O79 O 0.75262 0.88038 0.19624 0.0
O80 O 0.79349 0.96347 0.26497 0.0
O81 O 0.84611 0.93895 0.12095 0.0
H82 H 0.64026 0.81089 0.10166 0.0
H83 H 0.79755 0.90908 0.99817 0.0
O84 O 0.88329 0.02208 0.18825 0.0
O85 O 0.79765 0.09567 0.12383 0.0
O86 O 0.76097 0.01245 0.05672 0.0
C87 C 0.78183 0.07625 0.0657 0.0
H88 H 0.94155 0.23739 0.30292 0.0
H89 H 0.63629 0.73842 0.99669 0.0
Co90 Co 0.91973 0.74198 0.60933 0.0
C91 C 0.96063 0.87897 0.58181 0.0
Co92 Co 0.00288 0.76402 0.54824 0.0
C93 C 0.8515 0.75729 0.71801 0.0
C94 C 0.79274 0.67831 0.65577 0.0
N95 N 0.85195 0.72478 0.66295 0.0
N96 N 0.79448 0.73301 0.74516 0.0
C97 C 0.75717 0.68334 0.70636 0.0
H98 H 0.89204 0.79821 0.7378 0.0
H99 H 0.77652 0.64311 0.61632 0.0
C100 C 0.96517 0.62617 0.58019 0.0
N101 N 0.07197 0.7828 0.49459 0.0
C102 C 0.0688 0.81023 0.43341 0.0
C103 C 0.13753 0.77398 0.51015 0.0
N104 N 0.12981 0.81983 0.41092 0.0
C105 C 0.17318 0.79728 0.4593 0.0
C106 C 0.05127 0.76729 0.67955 0.0
O107 O 0.9225 0.64772 0.60919 0.0
O108 O 0.00352 0.66939 0.54773 0.0
O109 O 0.07028 0.77226 0.62388 0.0
O110 O -0.01224 0.75175 0.68401 0.0
O111 O 0.00212 0.85768 0.55108 0.0
H112 H 0.15867 0.75283 0.55593 0.0
H113 H 0.02323 0.825 0.40632 0.0
O114 O 0.91928 0.83537 0.61029 0.0
O115 O 0.85182 0.73517 0.53383 0.0
O116 O 0.93491 0.7586 0.47441 0.0
C117 C 0.87147 0.75049 0.47881 0.0
H118 H 0.70804 0.65292 0.71429 0.0
H119 H 0.22706 0.7984 0.45812 0.0
C120 C -0.00308 0.06413 0.12228 0.0
C121 C 0.96161 -0.00542 0.12426 0.0
C122 C 0.01933 0.96951 0.03587 0.0
C123 C 0.05686 0.0374 0.03895 0.0
N124 N 0.05435 0.15482 0.05618 0.0
N125 N 0.95061 0.87744 0.09196 0.0
C126 C 0.03378 0.08671 0.07068 0.0
C127 C 0.9754 0.94602 0.08286 0.0
N128 N 0.00275 0.10602 0.17317 0.0
N129 N 0.02586 0.92872 0.98771 0.0
H130 H 0.92438 0.85866 0.1307 0.0
H131 H 0.96244 0.83909 0.06609 0.0
H132 H 0.0557 0.94806 0.95152 0.0
H133 H -0.00329 0.87964 0.97977 0.0
H134 H 0.03097 0.15612 0.17424 0.0
H135 H -0.01034 0.08721 0.21816 0.0
H136 H 0.03647 0.1935 0.07648 0.0
H137 H 0.08428 0.17069 1.01927 0.0
C138 C 0.95075 0.97004 0.65543 0.0
C139 C 0.97391 0.95215 0.59903 0.0
C140 C 0.07125 0.04653 0.6138 0.0
C141 C 0.04789 0.06552 0.66958 0.0
N142 N -0.01679 0.02774 0.75737 0.0
N143 N 0.03736 -0.00845 0.511 0.0
C144 C -0.00717 0.02185 0.69479 0.0
C145 C 0.02833 -0.00368 0.57388 0.0
N146 N 0.88651 0.94154 0.66843 0.0
N147 N 0.13623 0.07263 0.6015 0.0
H148 H 0.00246 0.95858 0.4792 0.0
H149 H 0.0738 0.02601 0.48905 0.0
H150 H 0.17213 0.10302 0.63442 0.0
H151 H 0.15704 0.05594 0.56385 0.0
H152 H 0.8654 0.95643 0.70672 0.0
H153 H 0.85106 0.91069 0.63538 0.0
H154 H 0.94672 -0.00628 0.77982 0.0
H155 H 0.01802 0.06095 0.78898 0.0
C156 C 0.53538 0.96877 0.19163 0.0
C157 C 0.586 0.01707 0.16437 0.0
C158 C 0.50147 0.08747 0.12016 0.0
C159 C 0.45116 0.03949 0.14795 0.0
N160 N 0.42088 0.94437 0.22165 0.0
N161 N 0.62161 0.12851 0.11325 0.0
C162 C 0.46839 -0.01695 0.18736 0.0
C163 C 0.57053 0.0787 0.13244 0.0
N164 N 0.55118 0.909 0.22054 0.0
N165 N 0.48259 0.13899 0.07894 0.0
H166 H 0.67247 0.12281 0.1175 0.0
H167 H 0.61461 0.1777 0.09707 0.0
H168 H 0.4327 0.14841 0.07006 0.0
H169 H 0.51519 0.16989 0.05023 0.0
H170 H 0.51482 0.86828 0.2349 0.0
H171 H 0.60063 0.89833 0.22706 0.0
H172 H 0.43148 0.90584 0.25555 0.0
H173 H 0.37198 0.95533 0.22054 0.0
C174 C 0.08223 0.49948 0.6075 0.0
C175 C 0.06375 0.46563 0.66575 0.0
C176 C 0.96585 0.52365 0.65694 0.0
C177 C -0.01579 0.55767 0.59868 0.0
N178 N 0.04261 0.55522 0.50666 0.0
N179 N 0.00705 0.47046 0.75846 0.0
C180 C 0.03745 0.5388 0.57036 0.0
C181 C 0.01127 0.4854 0.69439 0.0
N182 N 0.14482 0.49836 0.59018 0.0
N183 N 0.90285 0.52322 0.67404 0.0
H184 H 0.04393 0.44806 0.78833 0.0
H185 H 0.97299 0.48848 0.78318 0.0
H186 H 0.86434 0.54163 0.64274 0.0
H187 H 0.88552 0.49514 0.71405 0.0
H188 H 0.16286 0.52637 0.55046 0.0
H189 H 0.18235 0.47789 0.621 0.0
H190 H 0.077 0.5379 0.48185 0.0
H191 H 0.00619 0.57831 0.47688 0.0
C192 C 0.27739 0.31475 0.40818 0.0
C193 C 0.22823 0.26973 0.44017 0.0
C194 C 0.18917 0.20333 0.34207 0.0
C195 C 0.24398 0.2428 0.31322 0.0
N196 N 0.34407 0.33214 0.31884 0.0
N197 N 0.14529 0.16395 0.44186 0.0
C198 C 0.28912 0.29774 0.34623 0.0
C199 C 0.18585 0.21219 0.4082 0.0
N200 N 0.31128 0.37448 0.43662 0.0
N201 N 0.13945 0.15868 0.30562 0.0
H202 H 0.14407 0.16649 0.4913 0.0
H203 H 0.11793 0.11802 0.42205 0.0
H204 H 0.14031 0.15165 0.2567 0.0
H205 H 0.09421 0.13395 0.32205 0.0
H206 H 0.34355 0.41264 0.41357 0.0
H207 H 0.30233 0.38844 0.48149 0.0
H208 H 0.38282 0.36853 0.34289 0.0
H209 H 0.35334 0.32044 0.27333 0.0
C210 C 0.81722 0.12641 0.89485 0.0
C211 C 0.87077 0.18404 0.90682 0.0
C212 C 0.84686 0.18672 1.01834 0.0
C213 C 0.79931 0.12354 1.00901 0.0
N214 N 0.71759 0.05377 0.93152 0.0
N215 N 0.94077 0.26727 0.97937 0.0
C216 C 0.77819 0.09903 0.94506 0.0
C217 C 0.88664 0.21374 0.9685 0.0
N218 N 0.80488 0.09715 0.83558 0.0
N219 N 0.84931 0.22414 0.07178 0.0
H220 H 0.96995 0.28827 0.94321 0.0
H221 H 0.9602 0.28691 0.02501 0.0
H222 H 0.81258 0.21233 0.10299 0.0
H223 H 0.88029 0.27233 0.07978 0.0
H224 H 0.77181 0.05045 0.8254 0.0
H225 H 0.83205 0.11721 0.79776 0.0
H226 H 0.6965 0.03717 0.88519 0.0
H227 H 0.68386 0.0399 0.96551 0.0
C228 C 0.78797 0.8256 0.42578 0.0
C229 C 0.82498 0.7717 0.42163 0.0
C230 C 0.81949 0.79403 0.30434 0.0
C231 C 0.78284 0.84802 0.30845 0.0
N232 N 0.71285 0.89845 0.36872 0.0
N233 N 0.85414 0.69039 0.35488 0.0
C234 C 0.7606 0.85805 0.3678 0.0
C235 C 0.83269 0.75093 0.35991 0.0
N236 N 0.7829 0.84996 0.48438 0.0
N237 N 0.84693 0.78702 0.24963 0.0
H238 H 0.86357 0.65792 0.39512 0.0
H239 H 0.85526 0.66928 0.31061 0.0
H240 H 0.84155 0.81844 0.20824 0.0
H241 H 0.88069 0.75372 0.24737 0.0
H242 H 0.76615 0.8958 0.48896 0.0
H243 H 0.79846 0.82739 0.52883 0.0
H244 H 0.68975 0.90243 0.40942 0.0
H245 H 0.69094 0.92197 0.32689 0.0
C246 C 0.1462 0.85103 0.74254 0.0
C247 C 0.1014 0.78567 0.73883 0.0
C248 C 0.13335 0.76586 0.8556 0.0
C249 C 0.18136 0.82874 0.85809 0.0
N250 N 0.24555 0.92247 0.80178 0.0
N251 N 0.06499 0.67427 0.78867 0.0
C252 C 0.19167 0.86839 0.80066 0.0
C253 C 0.09904 0.74091 0.79446 0.0
N254 N 0.14238 0.89869 0.69267 0.0
N255 N 0.11751 0.73202 0.91176 0.0
H256 H 0.04086 0.65387 0.74428 0.0
H257 H 0.06669 0.63759 0.82645 0.0
H258 H 0.13992 0.75001 0.95741 0.0
H259 H 0.07769 0.68977 0.91313 0.0
H260 H 0.16825 0.94958 0.69636 0.0
H261 H 0.10861 0.88999 0.64976 0.0
H262 H 0.2596 0.94974 0.76018 0.0
H263 H 0.28037 0.93537 0.8436 0.0
C264 C 0.77932 0.74312 0.92197 0.0
C265 C 0.74042 0.79593 0.91905 0.0
C266 C 0.74278 0.81127 0.80183 0.0
C267 C 0.77726 0.75508 0.80408 0.0
N268 N 0.82524 0.66421 0.86344 0.0
N269 N 0.68054 0.87768 0.85777 0.0
C270 C 0.79468 0.72004 0.86352 0.0
C271 C 0.72113 0.82957 0.85929 0.0
N272 N 0.80341 0.71705 0.9811 0.0
N273 N 0.73177 0.84732 0.74464 0.0
H274 H 0.66431 0.89176 0.89936 0.0
H275 H 0.65955 0.90074 0.81544 0.0
H276 H 0.74555 0.83343 0.70175 0.0
H277 H 0.71282 0.89289 0.74009 0.0
H278 H 0.83742 0.68297 0.98784 0.0
H279 H 0.79277 0.73336 0.02442 0.0
H280 H 0.83363 0.63178 0.90367 0.0
H281 H 0.83916 0.64808 0.82152 0.0
C282 C 0.20818 0.85555 0.25568 0.0
C283 C 0.18872 0.91946 0.23433 0.0
C284 C 0.13309 0.91825 0.33134 0.0
C285 C 0.14714 0.85208 0.34994 0.0
N286 N 0.18221 0.75023 0.32014 0.0
N287 N 0.11068 -0.00333 0.24166 0.0
C288 C 0.17992 0.81837 0.30908 0.0
C289 C 0.14431 0.94616 0.26899 0.0
N290 N 0.25576 0.83151 0.22762 0.0
N291 N 0.11279 0.95654 0.37435 0.0
H292 H 0.11354 0.01545 0.19429 0.0
H293 H 0.07331 0.01311 0.26314 0.0
H294 H 0.1096 0.94034 0.42233 0.0
H295 H 0.10742 0.00755 0.3645 0.0
H296 H 0.27683 0.78913 0.24628 0.0
H297 H 0.27885 0.85697 0.18934 0.0
H298 H 0.19994 0.72126 0.2886 0.0
H299 H 0.15939 0.72112 0.35703 0.0
C300 C 0.23906 0.27596 0.89309 0.0
C301 C 0.22118 0.24313 0.83275 0.0
C302 C 0.28671 0.15333 0.87594 0.0
C303 C 0.29054 0.17792 0.93835 0.0
N304 N 0.30986 0.2815 0.99845 0.0
N305 N 0.23361 0.15201 0.76477 0.0
C306 C 0.27904 0.24546 0.94477 0.0
C307 C 0.24838 0.18338 0.82297 0.0
N308 N 0.21613 0.33491 0.9015 0.0
N309 N 0.3223 0.10317 0.86747 0.0
H310 H 0.21106 0.17392 0.723 0.0
H311 H 0.24177 0.10271 0.75824 0.0
H312 H 0.3544 0.08469 0.90578 0.0
H313 H 0.32687 0.08622 0.82238 0.0
H314 H 0.22023 0.35659 0.94649 0.0
H315 H 0.19024 0.36057 0.86347 0.0
H316 H 0.30716 0.33263 1.00452 0.0
H317 H 0.34566 0.26273 0.03293 0.0
C318 C 0.87873 0.25518 0.4219 0.0
C319 C 0.8741 0.18471 0.40883 0.0
C320 C 0.9057 0.16177 0.52477 0.0
C321 C 0.92644 0.23339 0.53437 0.0
N322 N 0.93154 0.34974 0.4928 0.0
N323 N 0.89357 0.07185 0.44864 0.0
C324 C 0.9119 0.2807 0.4832 0.0
C325 C 0.88891 0.13768 0.46061 0.0
N326 N 0.85091 0.29716 0.3756 0.0
N327 N 0.90379 0.11665 0.57667 0.0
H328 H 0.88916 0.05341 0.4023 0.0
H329 H 0.90943 0.03753 0.48477 0.0
H330 H 0.91525 0.13269 0.62434 0.0
H331 H 0.88255 0.06452 0.57217 0.0
H332 H 0.84825 0.34791 0.38358 0.0
H333 H 0.82421 0.27864 0.33135 0.0
H334 H 0.92943 0.38685 0.45544 0.0
H335 H 0.95275 0.36944 0.53825 0.0
loop_
_geom_bond_atom_site_label_1
_geom_bond_atom_site_label_2
_geom_bond_distance
_geom_bond_site_symmetry_2
_ccdc_geom_bond_type
Co0 N5 2.057 . S
Co0 O17 2.021 . S
Co0 O20 2.062 . S
Co0 O24 2.117 . S
Co0 O25 2.020 . S
C1 O21 1.259 . S
C1 O24 1.258 . S
Co2 N11 2.057 1_544 S
Co2 O18 2.117 . S
Co2 O19 2.020 1_545 S
Co2 O21 2.021 . S
Co2 O26 2.062 1_554 S
C3 N5 1.316 . S
C3 N6 1.347 . S
C3 H8 0.931 . S
C4 N5 1.375 . S
C4 C7 1.350 . S
C4 H9 0.930 . S
N5 Co0 2.057 . S
N5 C3 1.316 . S
N5 C4 1.375 . S
N6 C3 1.347 . S
N6 C7 1.373 . S
C7 C4 1.350 . S
C7 N6 1.373 . S
C7 H28 0.931 . S
H8 C3 0.931 . S
H9 C4 0.930 . S
C10 O17 1.259 . S
C10 O18 1.258 . S
N11 Co2 2.057 1_566 S
N11 C12 1.316 . S
N11 C13 1.375 . S
C12 N11 1.316 . S
C12 N14 1.347 . S
C12 H23 0.931 . S
C13 N11 1.375 . S
C13 C15 1.350 . S
C13 H22 0.930 . S
N14 C12 1.347 . S
N14 C15 1.373 . S
C15 C13 1.350 . S
C15 N14 1.373 . S
C15 H29 0.931 . S
C16 O19 1.256 . S
C16 O20 1.255 1_565 S
O17 Co0 2.021 . S
O17 C10 1.259 . S
O18 Co2 2.117 . S
O18 C10 1.258 . S
O19 Co2 2.020 1_565 S
O19 C16 1.256 . S
O20 Co0 2.062 . S
O20 C16 1.255 1_545 S
O21 C1 1.259 . S
O21 Co2 2.021 . S
H22 C13 0.930 . S
H23 C12 0.931 . S
O24 Co0 2.117 . S
O24 C1 1.258 . S
O25 Co0 2.020 . S
O25 C27 1.256 1_554 S
O26 Co2 2.062 1_556 S
O26 C27 1.255 . S
C27 O25 1.256 1_556 S
C27 O26 1.255 . S
H28 C7 0.931 . S
H29 C15 0.931 . S
Co30 N35 2.057 1_455 S
Co30 O47 2.021 . S
Co30 O50 2.062 . S
Co30 O54 2.117 . S
Co30 O55 2.020 1_455 S
C31 O51 1.259 . S
C31 O54 1.258 . S
Co32 N41 2.057 . S
Co32 O48 2.117 . S
Co32 O49 2.020 . S
Co32 O51 2.021 . S
Co32 O56 2.062 . S
C33 N35 1.316 . S
C33 N36 1.347 . S
C33 H38 0.931 . S
C34 N35 1.375 . S
C34 C37 1.350 . S
C34 H39 0.930 . S
N35 Co30 2.057 1_655 S
N35 C33 1.316 . S
N35 C34 1.375 . S
N36 C33 1.347 . S
N36 C37 1.373 . S
C37 C34 1.350 . S
C37 N36 1.373 . S
C37 H58 0.931 . S
H38 C33 0.931 . S
H39 C34 0.930 . S
C40 O47 1.259 . S
C40 O48 1.258 . S
N41 Co32 2.057 . S
N41 C42 1.316 . S
N41 C43 1.375 . S
C42 N41 1.316 . S
C42 N44 1.347 . S
C42 H53 0.931 . S
C43 N41 1.375 . S
C43 C45 1.350 . S
C43 H52 0.930 . S
N44 C42 1.347 . S
N44 C45 1.373 . S
C45 C43 1.350 . S
C45 N44 1.373 . S
C45 H59 0.931 . S
C46 O49 1.256 . S
C46 O50 1.255 . S
O47 Co30 2.021 . S
O47 C40 1.259 . S
O48 Co32 2.117 . S
O48 C40 1.258 . S
O49 Co32 2.020 . S
O49 C46 1.256 . S
O50 Co30 2.062 . S
O50 C46 1.255 . S
O51 C31 1.259 . S
O51 Co32 2.021 . S
H52 C43 0.930 . S
H53 C42 0.931 . S
O54 Co30 2.117 . S
O54 C31 1.258 . S
O55 Co30 2.020 1_655 S
O55 C57 1.256 . S
O56 Co32 2.062 . S
O56 C57 1.255 1_455 S
C57 O55 1.256 . S
C57 O56 1.255 1_655 S
H58 C37 0.931 . S
H59 C45 0.931 . S
Co60 N65 2.057 . S
Co60 O77 2.021 . S
Co60 O80 2.062 1_545 S
Co60 O84 2.117 . S
Co60 O85 2.020 . S
C61 O81 1.259 . S
C61 O84 1.258 1_565 S
Co62 N71 2.057 . S
Co62 O78 2.117 . S
Co62 O79 2.020 . S
Co62 O81 2.021 . S
Co62 O86 2.062 1_565 S
C63 N65 1.316 . S
C63 N66 1.347 . S
C63 H68 0.931 . S
C64 N65 1.375 . S
C64 C67 1.350 . S
C64 H69 0.930 . S
N65 Co60 2.057 . S
N65 C63 1.316 . S
N65 C64 1.375 . S
N66 C63 1.347 . S
N66 C67 1.373 . S
C67 C64 1.350 . S
C67 N66 1.373 . S
C67 H88 0.931 . S
H68 C63 0.931 . S
H69 C64 0.930 . S
C70 O77 1.259 . S
C70 O78 1.258 1_545 S
N71 Co62 2.057 . S
N71 C72 1.316 1_554 S
N71 C73 1.375 1_554 S
C72 N71 1.316 1_556 S
C72 N74 1.347 . S
C72 H83 0.931 . S
C73 N71 1.375 1_556 S
C73 C75 1.350 . S
C73 H82 0.930 1_556 S
N74 C72 1.347 . S
N74 C75 1.373 . S
C75 C73 1.350 . S
C75 N74 1.373 . S
C75 H89 0.931 . S
C76 O79 1.256 . S
C76 O80 1.255 . S
O77 Co60 2.021 . S
O77 C70 1.259 . S
O78 Co62 2.117 . S
O78 C70 1.258 1_565 S
O79 Co62 2.020 . S
O79 C76 1.256 . S
O80 Co60 2.062 1_565 S
O80 C76 1.255 . S
O81 C61 1.259 . S
O81 Co62 2.021 . S
H82 C73 0.930 1_554 S
H83 C72 0.931 . S
O84 Co60 2.117 . S
O84 C61 1.258 1_545 S
O85 Co60 2.020 . S
O85 C87 1.256 . S
O86 Co62 2.062 1_545 S
O86 C87 1.255 . S
C87 O85 1.256 . S
C87 O86 1.255 . S
H88 C67 0.931 . S
H89 C75 0.931 . S
Co90 N95 2.057 . S
Co90 O107 2.021 . S
Co90 O110 2.062 1_655 S
Co90 O114 2.117 . S
Co90 O115 2.020 . S
C91 O111 1.259 . S
C91 O114 1.258 1_455 S
Co92 N101 2.057 . S
Co92 O108 2.117 . S
Co92 O109 2.020 . S
Co92 O111 2.021 . S
Co92 O116 2.062 1_455 S
C93 N95 1.316 . S
C93 N96 1.347 . S
C93 H98 0.931 . S
C94 N95 1.375 . S
C94 C97 1.350 . S
C94 H99 0.930 . S
N95 Co90 2.057 . S
N95 C93 1.316 . S
N95 C94 1.375 . S
N96 C93 1.347 . S
N96 C97 1.373 . S
C97 C94 1.350 . S
C97 N96 1.373 . S
C97 H118 0.931 . S
H98 C93 0.931 . S
H99 C94 0.930 . S
C100 O107 1.259 . S
C100 O108 1.258 1_655 S
N101 Co92 2.057 . S
N101 C102 1.316 . S
N101 C103 1.375 . S
C102 N101 1.316 . S
C102 N104 1.347 . S
C102 H113 0.931 . S
C103 N101 1.375 . S
C103 C105 1.350 . S
C103 H112 0.930 . S
N104 C102 1.347 . S
N104 C105 1.373 . S
C105 C103 1.350 . S
C105 N104 1.373 . S
C105 H119 0.931 . S
C106 O109 1.256 . S
C106 O110 1.255 . S
O107 Co90 2.021 . S
O107 C100 1.259 . S
O108 Co92 2.117 . S
O108 C100 1.258 1_455 S
O109 Co92 2.020 . S
O109 C106 1.256 . S
O110 Co90 2.062 1_455 S
O110 C106 1.255 . S
O111 C91 1.259 . S
O111 Co92 2.021 . S
H112 C103 0.930 . S
H113 C102 0.931 . S
O114 Co90 2.117 . S
O114 C91 1.258 1_655 S
O115 Co90 2.020 . S
O115 C117 1.256 . S
O116 Co92 2.062 1_655 S
O116 C117 1.255 . S
C117 O115 1.256 . S
C117 O116 1.255 . S
H118 C97 0.931 . S
H119 C105 0.931 . S
C120 C121 1.363 . S
C120 C126 1.379 1_655 S
C120 N128 1.356 . S
C121 C120 1.363 . S
C121 C127 1.363 1_645 S
C122 C123 1.363 1_565 S
C122 C127 1.379 . S
C122 N129 1.356 . S
C123 C122 1.363 1_545 S
C123 C126 1.363 . S
N124 C126 1.356 . S
N124 H136 0.984 . S
N124 H137 0.985 . S
N125 C127 1.356 1_655 S
N125 H130 0.984 . S
N125 H131 0.985 . S
C126 C120 1.379 1_455 S
C126 C123 1.363 . S
C126 N124 1.356 . S
C127 C121 1.363 1_465 S
C127 C122 1.379 . S
C127 N125 1.356 1_455 S
N128 C120 1.356 . S
N128 H134 0.984 . S
N128 H135 0.984 . S
N129 C122 1.356 . S
N129 H132 0.984 . S
N129 H133 0.985 . S
H130 N125 0.984 . S
H131 N125 0.985 . S
H132 N129 0.984 . S
H133 N129 0.985 . S
H134 N128 0.984 . S
H135 N128 0.984 . S
H136 N124 0.984 . S
H137 N124 0.985 . S
C138 C139 1.363 1_655 S
C138 C144 1.379 1_665 S
C138 N146 1.356 . S
C139 C138 1.363 1_455 S
C139 C145 1.363 1_565 S
C140 C141 1.363 . S
C140 C145 1.379 . S
C140 N147 1.356 . S
C141 C140 1.363 . S
C141 C144 1.363 . S
N142 C144 1.356 . S
N142 H154 0.984 1_455 S
N142 H155 0.985 . S
N143 C145 1.356 . S
N143 H148 0.984 1_545 S
N143 H149 0.985 . S
C144 C138 1.379 1_445 S
C144 C141 1.363 . S
C144 N142 1.356 . S
C145 C139 1.363 1_545 S
C145 C140 1.379 . S
C145 N143 1.356 . S
N146 C138 1.356 . S
N146 H152 0.984 . S
N146 H153 0.984 . S
N147 C140 1.356 . S
N147 H150 0.984 . S
N147 H151 0.985 . S
H148 N143 0.984 1_565 S
H149 N143 0.985 . S
H150 N147 0.984 . S
H151 N147 0.985 . S
H152 N146 0.984 . S
H153 N146 0.984 . S
H154 N142 0.984 1_655 S
H155 N142 0.985 . S
C156 C157 1.363 1_565 S
C156 C162 1.387 . S
C156 N164 1.356 . S
C157 C156 1.363 1_545 S
C157 C163 1.363 . S
C158 C159 1.363 . S
C158 C163 1.379 . S
C158 N165 1.356 . S
C159 C158 1.363 . S
C159 C162 1.350 1_545 S
N160 C162 1.357 . S
N160 H172 0.984 . S
N160 H173 0.985 1_565 S
N161 C163 1.356 . S
N161 H166 0.984 . S
N161 H167 0.985 . S
C162 C156 1.387 . S
C162 C159 1.350 1_565 S
C162 N160 1.357 . S
C163 C157 1.363 . S
C163 C158 1.379 . S
C163 N161 1.356 . S
N164 C156 1.356 . S
N164 H170 0.984 . S
N164 H171 0.984 . S
N165 C158 1.356 . S
N165 H168 0.984 . S
N165 H169 0.985 . S
H166 N161 0.984 . S
H167 N161 0.985 . S
H168 N165 0.984 . S
H169 N165 0.985 . S
H170 N164 0.984 . S
H171 N164 0.984 . S
H172 N160 0.984 . S
H173 N160 0.985 1_545 S
C174 C175 1.363 . S
C174 C180 1.379 . S
C174 N182 1.356 . S
C175 C174 1.363 . S
C175 C181 1.363 . S
C176 C177 1.363 . S
C176 C181 1.379 . S
C176 N183 1.356 . S
C177 C176 1.363 . S
C177 C180 1.363 . S
N178 C180 1.356 1_655 S
N178 H190 0.984 . S
N178 H191 0.985 . S
N179 C181 1.356 . S
N179 H184 0.984 . S
N179 H185 0.985 . S
C180 C174 1.379 . S
C180 C177 1.363 . S
C180 N178 1.356 1_455 S
C181 C175 1.363 . S
C181 C176 1.379 . S
C181 N179 1.356 . S
N182 C174 1.356 . S
N182 H188 0.984 . S
N182 H189 0.984 . S
N183 C176 1.356 . S
N183 H186 0.984 1_455 S
N183 H187 0.985 . S
H184 N179 0.984 . S
H185 N179 0.985 . S
H186 N183 0.984 1_655 S
H187 N183 0.985 . S
H188 N182 0.984 . S
H189 N182 0.984 . S
H190 N178 0.984 . S
H191 N178 0.985 . S
C192 C193 1.363 . S
C192 C198 1.379 . S
C192 N200 1.356 . S
C193 C192 1.363 . S
C193 C199 1.363 . S
C194 C195 1.363 . S
C194 C199 1.379 . S
C194 N201 1.356 . S
C195 C194 1.363 . S
C195 C198 1.363 . S
N196 C198 1.356 . S
N196 H208 0.984 . S
N196 H209 0.985 . S
N197 C199 1.356 . S
N197 H202 0.984 . S
N197 H203 0.985 . S
C198 C192 1.379 . S
C198 C195 1.363 . S
C198 N196 1.356 . S
C199 C193 1.363 . S
C199 C194 1.379 . S
C199 N197 1.356 . S
N200 C192 1.356 . S
N200 H206 0.984 . S
N200 H207 0.984 . S
N201 C194 1.356 . S
N201 H204 0.984 . S
N201 H205 0.985 . S
H202 N197 0.984 . S
H203 N197 0.985 . S
H204 N201 0.984 . S
H205 N201 0.985 . S
H206 N200 0.984 . S
H207 N200 0.984 . S
H208 N196 0.984 . S
H209 N196 0.985 . S
C210 C211 1.363 . S
C210 C216 1.379 . S
C210 N218 1.356 . S
C211 C210 1.363 . S
C211 C217 1.363 . S
C212 C213 1.363 . S
C212 C217 1.379 . S
C212 N219 1.356 1_556 S
C213 C212 1.363 . S
C213 C216 1.363 . S
N214 C216 1.356 . S
N214 H226 0.984 . S
N214 H227 0.985 . S
N215 C217 1.356 . S
N215 H220 0.984 . S
N215 H221 0.985 . S
C216 C210 1.379 . S
C216 C213 1.363 . S
C216 N214 1.356 . S
C217 C211 1.363 . S
C217 C212 1.379 . S
C217 N215 1.356 . S
N218 C210 1.356 . S
N218 H224 0.984 . S
N218 H225 0.984 . S
N219 C212 1.356 1_554 S
N219 H222 0.984 . S
N219 H223 0.985 . S
H220 N215 0.984 . S
H221 N215 0.985 . S
H222 N219 0.984 . S
H223 N219 0.985 . S
H224 N218 0.984 . S
H225 N218 0.984 . S
H226 N214 0.984 . S
H227 N214 0.985 . S
C228 C229 1.363 . S
C228 C234 1.379 . S
C228 N236 1.356 . S
C229 C228 1.363 . S
C229 C235 1.363 . S
C230 C231 1.363 . S
C230 C235 1.379 . S
C230 N237 1.356 . S
C231 C230 1.363 . S
C231 C234 1.363 . S
N232 C234 1.356 . S
N232 H244 0.984 . S
N232 H245 0.985 . S
N233 C235 1.356 . S
N233 H238 0.984 . S
N233 H239 0.985 . S
C234 C228 1.379 . S
C234 C231 1.363 . S
C234 N232 1.356 . S
C235 C229 1.363 . S
C235 C230 1.379 . S
C235 N233 1.356 . S
N236 C228 1.356 . S
N236 H242 0.984 . S
N236 H243 0.984 . S
N237 C230 1.356 . S
N237 H240 0.984 . S
N237 H241 0.985 . S
H238 N233 0.984 . S
H239 N233 0.985 . S
H240 N237 0.984 . S
H241 N237 0.985 . S
H242 N236 0.984 . S
H243 N236 0.984 . S
H244 N232 0.984 . S
H245 N232 0.985 . S
C246 C247 1.363 . S
C246 C252 1.379 . S
C246 N254 1.356 . S
C247 C246 1.363 . S
C247 C253 1.363 . S
C248 C249 1.363 . S
C248 C253 1.379 . S
C248 N255 1.356 . S
C249 C248 1.363 . S
C249 C252 1.363 . S
N250 C252 1.356 . S
N250 H262 0.984 . S
N250 H263 0.985 . S
N251 C253 1.356 . S
N251 H256 0.984 . S
N251 H257 0.985 . S
C252 C246 1.379 . S
C252 C249 1.363 . S
C252 N250 1.356 . S
C253 C247 1.363 . S
C253 C248 1.379 . S
C253 N251 1.356 . S
N254 C246 1.356 . S
N254 H260 0.984 . S
N254 H261 0.984 . S
N255 C248 1.356 . S
N255 H258 0.984 . S
N255 H259 0.985 . S
H256 N251 0.984 . S
H257 N251 0.985 . S
H258 N255 0.984 . S
H259 N255 0.985 . S
H260 N254 0.984 . S
H261 N254 0.984 . S
H262 N250 0.984 . S
H263 N250 0.985 . S
C264 C265 1.363 . S
C264 C270 1.379 . S
C264 N272 1.356 . S
C265 C264 1.363 . S
C265 C271 1.363 . S
C266 C267 1.363 . S
C266 C271 1.379 . S
C266 N273 1.356 . S
C267 C266 1.363 . S
C267 C270 1.363 . S
N268 C270 1.356 . S
N268 H280 0.984 . S
N268 H281 0.985 . S
N269 C271 1.356 . S
N269 H274 0.984 . S
N269 H275 0.985 . S
C270 C264 1.379 . S
C270 C267 1.363 . S
C270 N268 1.356 . S
C271 C265 1.363 . S
C271 C266 1.379 . S
C271 N269 1.356 . S
N272 C264 1.356 . S
N272 H278 0.984 . S
N272 H279 0.984 . S
N273 C266 1.356 . S
N273 H276 0.984 . S
N273 H277 0.985 . S
H274 N269 0.984 . S
H275 N269 0.985 . S
H276 N273 0.984 . S
H277 N273 0.985 . S
H278 N272 0.984 . S
H279 N272 0.984 . S
H280 N268 0.984 . S
H281 N268 0.985 . S
C282 C283 1.363 . S
C282 C288 1.379 . S
C282 N290 1.356 . S
C283 C282 1.363 . S
C283 C289 1.363 . S
C284 C285 1.363 . S
C284 C289 1.379 . S
C284 N291 1.356 . S
C285 C284 1.363 . S
C285 C288 1.363 . S
N286 C288 1.356 . S
N286 H298 0.984 . S
N286 H299 0.985 . S
N287 C289 1.356 1_545 S
N287 H292 0.984 . S
N287 H293 0.985 . S
C288 C282 1.379 . S
C288 C285 1.363 . S
C288 N286 1.356 . S
C289 C283 1.363 . S
C289 C284 1.379 . S
C289 N287 1.356 1_565 S
N290 C282 1.356 . S
N290 H296 0.984 . S
N290 H297 0.984 . S
N291 C284 1.356 . S
N291 H294 0.984 . S
N291 H295 0.985 . S
H292 N287 0.984 . S
H293 N287 0.985 . S
H294 N291 0.984 . S
H295 N291 0.985 . S
H296 N290 0.984 . S
H297 N290 0.984 . S
H298 N286 0.984 . S
H299 N286 0.985 . S
C300 C301 1.363 . S
C300 C306 1.379 . S
C300 N308 1.356 . S
C301 C300 1.363 . S
C301 C307 1.363 . S
C302 C303 1.363 . S
C302 C307 1.379 . S
C302 N309 1.356 . S
C303 C302 1.363 . S
C303 C306 1.363 . S
N304 C306 1.356 . S
N304 H316 0.984 . S
N304 H317 0.985 . S
N305 C307 1.356 . S
N305 H310 0.984 . S
N305 H311 0.985 . S
C306 C300 1.379 . S
C306 C303 1.363 . S
C306 N304 1.356 . S
C307 C301 1.363 . S
C307 C302 1.379 . S
C307 N305 1.356 . S
N308 C300 1.356 . S
N308 H314 0.984 . S
N308 H315 0.984 . S
N309 C302 1.356 . S
N309 H312 0.984 . S
N309 H313 0.985 . S
H310 N305 0.984 . S
H311 N305 0.985 . S
H312 N309 0.984 . S
H313 N309 0.985 . S
H314 N308 0.984 . S
H315 N308 0.984 . S
H316 N304 0.984 . S
H317 N304 0.985 . S
C318 C319 1.363 . S
C318 C324 1.379 . S
C318 N326 1.356 . S
C319 C318 1.363 . S
C319 C325 1.363 . S
C320 C321 1.363 . S
C320 C325 1.379 . S
C320 N327 1.356 . S
C321 C320 1.363 . S
C321 C324 1.363 . S
N322 C324 1.356 . S
N322 H334 0.984 . S
N322 H335 0.984 1_655 S
N323 C325 1.356 . S
N323 H328 0.984 . S
N323 H329 0.985 . S
C324 C318 1.379 . S
C324 C321 1.363 . S
C324 N322 1.356 . S
C325 C319 1.363 . S
C325 C320 1.379 . S
C325 N323 1.356 . S
N326 C318 1.356 . S
N326 H332 0.984 . S
N326 H333 0.984 . S
N327 C320 1.356 . S
N327 H330 0.984 . S
N327 H331 0.985 . S
H328 N323 0.984 . S
H329 N323 0.985 . S
H330 N327 0.984 . S
H331 N327 0.985 . S
H332 N326 0.984 . S
H333 N326 0.984 . S
H334 N322 0.984 . S
H335 N322 0.984 1_455 S
C121 C61 1.078 1_545 S
C123 C10 1.078 . S
C139 C91 1.179 . S
C141 C40 1.179 . S
C157 C70 0.935 . S
C159 C1 0.935 . S
C175 C31 1.030 . S
C177 C100 1.030 1_455 S
C193 N44 1.248 . S
C195 N6 1.342 . S
C211 N36 1.564 . S
C213 C87 1.543 1_556 S
C229 C117 1.665 . S
C231 C76 1.676 . S
C247 C106 1.441 . S
C249 N14 1.329 . S
C265 N74 1.342 . S
C267 N96 1.248 . S
C283 C16 1.544 . S
C285 N104 1.564 . S
C301 C46 1.665 . S
C303 C27 1.675 . S
C319 N66 1.329 . S
C321 C57 1.441 . S
