# Generated by pormake.
# Topology fna, (5)-cn, num edge types: 1
# Building blocks:
#     Node 0, Type 0, BuildingBlock: BEQFEK_clean_sbu_0, # of connection points: 5
#     Node 1, Type 0, BuildingBlock: BEQFEK_clean_sbu_0, # of connection points: 5
#     Node 2, Type 0, BuildingBlock: BEQFEK_clean_sbu_0, # of connection points: 5
#     Node 3, Type 0, BuildingBlock: BEQFEK_clean_sbu_0, # of connection points: 5
#     Node 4, Type 0, BuildingBlock: BEQFEK_clean_sbu_0, # of connection points: 5
#     Node 5, Type 0, BuildingBlock: BEQFEK_clean_sbu_0, # of connection points: 5
#     Node 6, Type 0, BuildingBlock: BEQFEK_clean_sbu_0, # of connection points: 5
#     Node 7, Type 0, BuildingBlock: BEQFEK_clean_sbu_0, # of connection points: 5
#     Node 8, Type 0, BuildingBlock: BEQFEK_clean_sbu_0, # of connection points: 5
#     Node 9, Type 0, BuildingBlock: BEQFEK_clean_sbu_0, # of connection points: 5
#     Node 10, Type 0, BuildingBlock: BEQFEK_clean_sbu_0, # of connection points: 5
#     Node 11, Type 0, BuildingBlock: BEQFEK_clean_sbu_0, # of connection points: 5
#     Edge 12, Type (0, 0), BuildingBlock: TEMPAE_clean_linker_10, # of connection points: 2
#     Edge 13, Type (0, 0), BuildingBlock: TEMPAE_clean_linker_10, # of connection points: 2
#     Edge 14, Type (0, 0), BuildingBlock: TEMPAE_clean_linker_10, # of connection points: 2
#     Edge 15, Type (0, 0), BuildingBlock: TEMPAE_clean_linker_10, # of connection points: 2
#     Edge 16, Type (0, 0), BuildingBlock: TEMPAE_clean_linker_10, # of connection points: 2
#     Edge 17, Type (0, 0), BuildingBlock: TEMPAE_clean_linker_10, # of connection points: 2
#     Edge 18, Type (0, 0), BuildingBlock: TEMPAE_clean_linker_10, # of connection points: 2
#     Edge 19, Type (0, 0), BuildingBlock: TEMPAE_clean_linker_10, # of connection points: 2
#     Edge 20, Type (0, 0), BuildingBlock: TEMPAE_clean_linker_10, # of connection points: 2
#     Edge 21, Type (0, 0), BuildingBlock: TEMPAE_clean_linker_10, # of connection points: 2
#     Edge 22, Type (0, 0), BuildingBlock: TEMPAE_clean_linker_10, # of connection points: 2
#     Edge 23, Type (0, 0), BuildingBlock: TEMPAE_clean_linker_10, # of connection points: 2
#     Edge 24, Type (0, 0), BuildingBlock: TEMPAE_clean_linker_10, # of connection points: 2
#     Edge 25, Type (0, 0), BuildingBlock: TEMPAE_clean_linker_10, # of connection points: 2
#     Edge 26, Type (0, 0), BuildingBlock: TEMPAE_clean_linker_10, # of connection points: 2
#     Edge 27, Type (0, 0), BuildingBlock: TEMPAE_clean_linker_10, # of connection points: 2
#     Edge 28, Type (0, 0), BuildingBlock: TEMPAE_clean_linker_10, # of connection points: 2
#     Edge 29, Type (0, 0), BuildingBlock: TEMPAE_clean_linker_10, # of connection points: 2
#     Edge 30, Type (0, 0), BuildingBlock: TEMPAE_clean_linker_10, # of connection points: 2
#     Edge 31, Type (0, 0), BuildingBlock: TEMPAE_clean_linker_10, # of connection points: 2
#     Edge 32, Type (0, 0), BuildingBlock: TEMPAE_clean_linker_10, # of connection points: 2
#     Edge 33, Type (0, 0), BuildingBlock: TEMPAE_clean_linker_10, # of connection points: 2
#     Edge 34, Type (0, 0), BuildingBlock: TEMPAE_clean_linker_10, # of connection points: 2
#     Edge 35, Type (0, 0), BuildingBlock: TEMPAE_clean_linker_10, # of connection points: 2
#     Edge 36, Type (0, 0), BuildingBlock: TEMPAE_clean_linker_10, # of connection points: 2
#     Edge 37, Type (0, 0), BuildingBlock: TEMPAE_clean_linker_10, # of connection points: 2
#     Edge 38, Type (0, 0), BuildingBlock: TEMPAE_clean_linker_10, # of connection points: 2
#     Edge 39, Type (0, 0), BuildingBlock: TEMPAE_clean_linker_10, # of connection points: 2
#     Edge 40, Type (0, 0), BuildingBlock: TEMPAE_clean_linker_10, # of connection points: 2
#     Edge 41, Type (0, 0), BuildingBlock: TEMPAE_clean_linker_10, # of connection points: 2
# Relax obj value: 0.680
# Max RMSD: 0.271
# Mean RMSD: 0.271
data_MOF--net-fna--node1-BEQFEK_clean_sbu_0--edge1-TEMPAE_clean_linker_10
_symmetry_space_group_name_H-M    P1
_symmetry_Int_Tables_number       1
_symmetry_cell_setting            triclinic
loop_
_symmetry_equiv_pos_as_xyz
'x, y, z'
_cell_length_a     45.096809
_cell_length_b     45.085138
_cell_length_c     40.813999
_cell_angle_alpha  90.009322
_cell_angle_beta   89.947687
_cell_angle_gamma 119.98255
loop_
_atom_site_label
_atom_site_type_symbol
_atom_site_fract_x
_atom_site_fract_y
_atom_site_fract_z
_atom_type_partial_charge
Co0 Co 0.35576 0.3593 0.49441 0.0
Co1 Co 0.34966 0.32289 0.4279 0.0
C2 C 0.4093 0.39134 0.44171 0.0
O3 O 0.39536 0.39003 0.469 0.0
O4 O 0.39499 0.3667 0.42127 0.0
C5 C 0.39455 0.3958 0.54938 0.0
O6 O 0.4201 0.39799 0.53199 0.0
C7 C 0.35897 0.28625 0.37111 0.0
C8 C 0.30478 0.24822 0.36151 0.0
C9 C 0.33782 0.25815 0.35158 0.0
N10 N 0.33913 0.29198 0.39191 0.0
N11 N 0.3068 0.26945 0.38557 0.0
C12 C 0.39715 0.30795 0.36946 0.0
H13 H 0.40495 0.33517 0.37363 0.0
H14 H 0.4089 0.30007 0.38896 0.0
H15 H 0.40693 0.30538 0.34529 0.0
C16 C 0.35013 0.29598 0.52086 0.0
N17 N 0.35106 0.3155 0.49554 0.0
N18 N 0.35058 0.30045 0.46778 0.0
C19 C 0.35012 0.27089 0.47472 0.0
C20 C 0.34991 0.26707 0.50871 0.0
C21 C 0.34773 0.30431 0.55595 0.0
H22 H 0.33211 0.31696 0.55795 0.0
H23 H 0.37379 0.32223 0.5653 0.0
H24 H 0.33601 0.2809 0.57138 0.0
O25 O 0.31527 0.35797 0.4771 0.0
O26 O 0.30949 0.33137 0.42974 0.0
H27 H 0.32691 0.23325 0.43706 0.0
H28 H 0.35963 0.23016 0.45994 0.0
C29 C 0.35215 0.24808 0.44927 0.0
H30 H 0.37127 0.26386 0.43052 0.0
H31 H 0.28606 0.2679 0.39844 0.0
O32 O 0.36432 0.37947 0.53804 0.0
C33 C 0.29939 0.34562 0.45049 0.0
Co34 Co 0.99159 0.35471 0.65237 0.0
Co35 Co 0.02288 0.33739 0.59207 0.0
C36 C 0.02 0.40231 0.59592 0.0
O37 O 0.00447 0.39294 0.62305 0.0
O38 O 0.0297 0.38403 0.58052 0.0
C39 C 0.98686 0.39714 0.70168 0.0
O40 O 0.00461 0.4221 0.68092 0.0
C41 C 0.07712 0.34222 0.54822 0.0
C42 C 0.04925 0.29467 0.51925 0.0
C43 C 0.08102 0.32358 0.52326 0.0
N44 N 0.04447 0.32506 0.55862 0.0
N45 N 0.02791 0.29675 0.54104 0.0
C46 C 0.1034 0.37668 0.56067 0.0
H47 H 0.09375 0.38388 0.58254 0.0
H48 H 0.12744 0.37686 0.56679 0.0
H49 H 0.1095 0.39597 0.54108 0.0
C50 C 0.04393 0.34591 0.6874 0.0
N51 N 0.02852 0.34667 0.65943 0.0
N52 N 0.04163 0.33838 0.63459 0.0
C53 C 0.06552 0.33139 0.64634 0.0
C54 C 0.06785 0.33613 0.68013 0.0
C55 C 0.03657 0.35569 0.72022 0.0
H56 H 0.03917 0.38142 0.71855 0.0
H57 H 0.05425 0.35635 0.73943 0.0
H58 H 0.00979 0.3372 0.72738 0.0
O59 O 0.95181 0.31363 0.63526 0.0
O60 O 0.97332 0.30054 0.59229 0.0
H61 H 0.09118 0.30205 0.64175 0.0
H62 H 0.10742 0.33922 0.61603 0.0
C63 C 0.08374 0.31758 0.62636 0.0
H64 H 0.06724 0.30155 0.60605 0.0
H65 H 0.00204 0.27872 0.54401 0.0
O66 O 0.9783 0.36656 0.69398 0.0
C67 C 0.94823 0.29441 0.61104 0.0
Co68 Co 0.65773 0.99188 0.82084 0.0
Co69 Co 0.69108 0.01634 0.75204 0.0
C70 C 0.62768 0.01798 0.77179 0.0
O71 O 0.62883 0.00594 0.79944 0.0
O72 O 0.6498 0.02311 0.7497 0.0
C73 C 0.61083 0.97197 0.87325 0.0
O74 O 0.58834 0.96335 0.84953 0.0
C75 C 0.72976 0.06756 0.70163 0.0
C76 C 0.74917 0.04092 0.67051 0.0
C77 C 0.75013 0.07187 0.67459 0.0
N78 N 0.7173 0.03557 0.71308 0.0
N79 N 0.72851 0.01955 0.694 0.0
C80 C 0.7225 0.09357 0.71662 0.0
H81 H 0.70296 0.09533 0.70155 0.0
H82 H 0.71239 0.08594 0.74188 0.0
H83 H 0.74584 0.11925 0.71678 0.0
C84 C 0.72468 0.04628 0.84306 0.0
N85 N 0.7033 0.02756 0.81886 0.0
N86 N 0.71847 0.03851 0.79028 0.0
C87 C 0.75077 0.06435 0.79575 0.0
C88 C 0.75557 0.07017 0.82929 0.0
C89 C 0.71428 0.04317 0.87834 0.0
H90 H 0.69034 0.04432 0.88033 0.0
H91 H 0.73416 0.06378 0.8937 0.0
H92 H 0.70899 0.01793 0.88785 0.0
O93 O 0.65246 0.9498 0.80192 0.0
O94 O 0.67779 0.96648 0.75329 0.0
H95 H 0.77373 0.06479 0.74943 0.0
H96 H 0.80344 0.09253 0.78023 0.0
C97 C 0.77737 0.0824 0.76992 0.0
H98 H 0.7754 0.10443 0.7606 0.0
H99 H 0.72315 0.99445 0.69775 0.0
O100 O 0.6421 0.9831 0.8663 0.0
C101 C 0.66203 0.94336 0.7749 0.0
Co102 Co 0.63932 0.63561 -0.00266 0.0
Co103 Co 0.65033 0.67355 0.93078 0.0
C104 C 0.58911 0.60471 0.94266 0.0
O105 O 0.60129 0.60488 0.97057 0.0
O106 O 0.60451 0.63024 0.92335 0.0
C107 C 0.59785 0.59815 0.0508 0.0
O108 O 0.57303 0.59363 0.03095 0.0
C109 C 0.64145 0.71557 0.88059 0.0
C110 C 0.68941 0.73523 0.85226 0.0
C111 C 0.65953 0.73666 0.8545 0.0
N112 N 0.65994 0.70245 0.89332 0.0
N113 N 0.68839 0.714 0.87598 0.0
C114 C 0.6065 0.70662 0.89231 0.0
H115 H 0.60414 0.72986 0.89451 0.0
H116 H 0.58733 0.6896 0.87401 0.0
H117 H 0.60077 0.69309 0.9162 0.0
C118 C 0.64671 0.69967 0.02346 0.0
N119 N 0.64481 0.67985 -0.00202 0.0
N120 N 0.65002 0.69694 0.97039 0.0
C121 C 0.65587 0.72872 0.97781 0.0
C122 C 0.65377 0.7313 0.01162 0.0
C123 C 0.64109 0.68801 0.05843 0.0
H124 H 0.65918 0.67905 0.06505 0.0
H125 H 0.61469 0.66617 0.0612 0.0
H126 H 0.64435 0.70847 0.0756 0.0
O127 O 0.68076 0.63709 0.98179 0.0
O128 O 0.6893 0.66361 0.93391 0.0
H129 H 0.68241 0.75552 0.93416 0.0
H130 H 0.68069 0.78253 0.96598 0.0
C131 C 0.66629 0.75724 0.95372 0.0
H132 H 0.64306 0.75542 0.94256 0.0
H133 H 0.70751 0.70801 0.8808 0.0
O134 O 0.62875 0.61561 0.04125 0.0
C135 C 0.69805 0.64911 0.95568 0.0
Co136 Co 0.99524 0.65203 0.16068 0.0
Co137 Co 0.9746 0.66703 0.09255 0.0
C138 C 0.97397 0.60152 0.1061 0.0
O139 O 0.98489 0.61261 0.13458 0.0
O140 O 0.96799 0.61942 0.0858 0.0
C141 C 0.98834 0.61024 0.21528 0.0
O142 O 0.96876 0.58521 0.19529 0.0
C143 C 0.92694 0.66049 0.04054 0.0
C144 C 0.95472 0.71091 0.0163 0.0
C145 C 0.92412 0.68015 0.01602 0.0
N146 N 0.95792 0.6786 0.05451 0.0
N147 N 0.97468 0.70851 0.03946 0.0
C148 C 0.89971 0.626 0.05205 0.0
H149 H 0.90592 0.62035 0.07676 0.0
H150 H 0.87441 0.62458 0.05242 0.0
H151 H 0.898 0.60631 0.03463 0.0
C152 C 0.94146 0.66515 0.18366 0.0
N153 N 0.95954 0.66181 0.15921 0.0
N154 N 0.95035 0.66886 0.13097 0.0
C155 C 0.92596 0.67737 0.13692 0.0
C156 C 0.91964 0.67521 0.17046 0.0
C157 C 0.9446 0.65788 0.21891 0.0
H158 H 0.93913 0.63112 0.22126 0.0
H159 H 0.92657 0.66114 0.23492 0.0
H160 H 0.97121 0.67511 0.22733 0.0
O161 O 0.03759 0.69128 0.14596 0.0
O162 O 0.02469 0.70285 0.09694 0.0
H163 H 0.89985 0.70464 0.12318 0.0
H164 H 0.88976 0.66756 0.09889 0.0
C165 C 0.91073 0.68984 0.11168 0.0
H166 H 0.9304 0.70618 0.09349 0.0
H167 H 0.99912 0.72791 0.04605 0.0
O168 O 0.00208 0.64105 0.20543 0.0
C169 C 0.04617 0.70926 0.12003 0.0
Co170 Co 0.3449 0.99945 0.32998 0.0
Co171 Co 0.30829 0.97721 0.26229 0.0
C172 C 0.37213 0.97552 0.27472 0.0
O173 O 0.37225 0.98632 0.30341 0.0
O174 O 0.34905 0.97102 0.25403 0.0
C175 C 0.39532 0.01634 0.37922 0.0
O176 O 0.41544 0.02014 0.35436 0.0
C177 C 0.26736 0.93403 0.20621 0.0
C178 C 0.23655 0.95844 0.19504 0.0
C179 C 0.24084 0.93108 0.18654 0.0
N180 N 0.27781 0.96162 0.22565 0.0
N181 N 0.25979 0.97648 0.21822 0.0
C182 C 0.28013 0.90921 0.2089 0.0
H183 H 0.29489 0.91347 0.23185 0.0
H184 H 0.25841 0.88249 0.20812 0.0
H185 H 0.29709 0.91287 0.18773 0.0
C186 C 0.27888 0.94537 0.3543 0.0
N187 N 0.29942 0.96404 0.32962 0.0
N188 N 0.28365 0.95263 0.30142 0.0
C189 C 0.25229 0.92532 0.30748 0.0
C190 C 0.24832 0.91969 0.34132 0.0
C191 C 0.28816 0.95331 0.38973 0.0
H192 H 0.30188 0.98143 0.39352 0.0
H193 H 0.30557 0.94368 0.39689 0.0
H194 H 0.26517 0.94147 0.40569 0.0
O195 O 0.34723 0.04144 0.31561 0.0
O196 O 0.32262 0.02733 0.26666 0.0
H197 H 0.22027 0.91943 0.26648 0.0
H198 H 0.20474 0.88119 0.29128 0.0
C199 C 0.22787 0.90367 0.28126 0.0
H200 H 0.24086 0.89419 0.26489 0.0
H201 H 0.26217 0.99801 0.2302 0.0
O202 O 0.36418 0.0075 0.37418 0.0
C203 C 0.3373 0.04909 0.28955 0.0
Co204 Co 0.65012 0.66078 0.33942 0.0
Co205 Co 0.69204 0.67759 0.40421 0.0
C206 C 0.62319 0.61484 0.39717 0.0
O207 O 0.62099 0.6247 0.36879 0.0
O208 O 0.64991 0.6319 0.41461 0.0
C209 C 0.60698 0.61673 0.28948 0.0
O210 O 0.60019 0.59279 0.31133 0.0
C211 C 0.73582 0.66919 0.45189 0.0
C212 C 0.7559 0.71629 0.48157 0.0
C213 C 0.75708 0.68637 0.47802 0.0
N214 N 0.72257 0.68803 0.44039 0.0
N215 N 0.73443 0.71603 0.45845 0.0
C216 C 0.72725 0.63483 0.43878 0.0
H217 H 0.71276 0.62936 0.41549 0.0
H218 H 0.75092 0.6335 0.43493 0.0
H219 H 0.71142 0.61493 0.45709 0.0
C220 C 0.71275 0.66702 0.31139 0.0
N221 N 0.69427 0.66649 0.33746 0.0
N222 N 0.71335 0.67514 0.36403 0.0
C223 C 0.74518 0.68213 0.35527 0.0
C224 C 0.74567 0.67707 0.32168 0.0
C225 C 0.69877 0.65779 0.27731 0.0
H226 H 0.67532 0.63223 0.27761 0.0
H227 H 0.71735 0.65696 0.26006 0.0
H228 H 0.69166 0.67668 0.26849 0.0
O229 O 0.65277 0.70318 0.35296 0.0
O230 O 0.68117 0.71601 0.40004 0.0
H231 H 0.77306 0.71276 0.39678 0.0
H232 H 0.79956 0.71242 0.36364 0.0
C233 C 0.77552 0.69674 0.3776 0.0
H234 H 0.77722 0.67552 0.38943 0.0
H235 H 0.72826 0.73521 0.45472 0.0
O236 O 0.62788 0.64785 0.29645 0.0
C237 C 0.66556 0.72269 0.37763 0.0
Co238 Co 0.98933 0.6403 0.50935 0.0
Co239 Co 0.0214 0.68534 0.57129 0.0
C240 C 0.02239 0.62054 0.56266 0.0
O241 O 0.00705 0.61665 0.53563 0.0
O242 O 0.02936 0.64585 0.58142 0.0
C243 C 0.99507 0.60527 0.45518 0.0
O244 O 0.02212 0.60972 0.47137 0.0
C245 C 0.07057 0.73179 0.62153 0.0
C246 C 0.049 0.76557 0.6306 0.0
C247 C 0.07619 0.76086 0.63864 0.0
N248 N 0.04159 0.72027 0.60397 0.0
N249 N 0.02854 0.74021 0.61011 0.0
C250 C 0.09404 0.71736 0.61916 0.0
H251 H 0.08773 0.70048 0.59744 0.0
H252 H 0.12109 0.7383 0.61771 0.0
H253 H 0.0911 0.70207 0.64148 0.0
C254 C 0.03849 0.70417 0.47572 0.0
N255 N 0.02404 0.68613 0.50316 0.0
N256 N 0.04007 0.70469 0.52897 0.0
C257 C 0.0662 0.73505 0.51859 0.0
C258 C 0.06611 0.73578 0.48434 0.0
C259 C 0.02466 0.69194 0.442 0.0
H260 H 0.99637 0.6759 0.44284 0.0
H261 H 0.03527 0.67618 0.43227 0.0
H262 H 0.03173 0.71378 0.42512 0.0
O263 O 0.94874 0.63804 0.52843 0.0
O264 O 0.97147 0.67205 0.57146 0.0
H265 H 0.08044 0.77475 0.55412 0.0
H266 H 0.11532 0.78062 0.52777 0.0
C267 C 0.09213 0.76154 0.54104 0.0
H268 H 0.10008 0.74891 0.55941 0.0
H269 H 0.0064 0.73741 0.59911 0.0
O270 O 0.97664 0.61653 0.46723 0.0
C271 C 0.9458 0.65325 0.55331 0.0
Co272 Co 0.36872 0.00119 0.66402 0.0
Co273 Co 0.34884 0.02532 0.72765 0.0
C274 C 0.41081 0.01892 0.72546 0.0
O275 O 0.40287 0.0076 0.6965 0.0
O276 O 0.39294 0.02844 0.7418 0.0
C277 C 0.4178 0.01621 0.61527 0.0
O278 O 0.4367 0.04134 0.63549 0.0
C279 C 0.34685 0.06629 0.78415 0.0
C280 C 0.29158 0.04899 0.785 0.0
C281 C 0.32242 0.07172 0.79967 0.0
N282 N 0.33107 0.04209 0.76097 0.0
N283 N 0.29799 0.03151 0.7621 0.0
C284 C 0.38432 0.08304 0.79152 0.0
H285 H 0.39291 0.06397 0.78994 0.0
H286 H 0.39891 0.10331 0.77312 0.0
H287 H 0.39006 0.09447 0.81641 0.0
C288 C 0.36283 0.05825 0.63544 0.0
N289 N 0.3623 0.03938 0.66123 0.0
N290 N 0.35573 0.05112 0.68812 0.0
C291 C 0.35311 0.07887 0.68037 0.0
C292 C 0.35743 0.08431 0.64659 0.0
C293 C 0.36504 0.04929 0.60051 0.0
H294 H 0.35327 0.02117 0.59774 0.0
H295 H 0.39234 0.06154 0.59313 0.0
H296 H 0.35181 0.05841 0.58389 0.0
O297 O 0.32572 0.96035 0.67384 0.0
O298 O 0.31164 0.97606 0.72014 0.0
H299 H 0.32101 0.08749 0.71288 0.0
H300 H 0.35544 0.12619 0.69506 0.0
C301 C 0.34822 0.10059 0.70507 0.0
H302 H 0.36421 0.10406 0.72685 0.0
H303 H 0.27988 0.01309 0.74642 0.0
O304 O 0.3869 0.99515 0.62275 0.0
C305 C 0.30541 0.95379 0.69783 0.0
Co306 Co 0.33396 0.34196 0.83825 0.0
Co307 Co 0.30003 0.32555 0.9069 0.0
C308 C 0.36874 0.38652 0.89608 0.0
O309 O 0.36729 0.3765 0.86688 0.0
O310 O 0.3437 0.37032 0.91574 0.0
C311 C 0.37217 0.38709 0.78686 0.0
O312 O 0.37903 0.41094 0.80884 0.0
C313 C 0.26096 0.33066 0.96202 0.0
C314 C 0.23498 0.27767 0.98094 0.0
C315 C 0.23681 0.3091 0.98474 0.0
N316 N 0.27245 0.31265 0.94544 0.0
N317 N 0.25746 0.28123 0.95744 0.0
C318 C 0.27012 0.36655 0.95351 0.0
H319 H 0.28302 0.37398 0.92928 0.0
H320 H 0.24695 0.36921 0.95338 0.0
H321 H 0.28786 0.3842 0.97238 0.0
C322 C 0.27036 0.33921 0.81875 0.0
N323 N 0.29106 0.33857 0.84204 0.0
N324 N 0.27496 0.32995 0.87039 0.0
C325 C 0.24281 0.32439 0.86563 0.0
C326 C 0.23909 0.33025 0.8328 0.0
C327 C 0.28036 0.34753 0.78351 0.0
H328 H 0.28665 0.32855 0.7732 0.0
H329 H 0.30361 0.37317 0.78185 0.0
H330 H 0.25983 0.34766 0.76869 0.0
O331 O 0.32939 0.29763 0.84683 0.0
O332 O 0.30955 0.28687 0.89784 0.0
H333 H 0.2174 0.29191 0.9069 0.0
H334 H 0.18935 0.29747 0.87906 0.0
C335 C 0.21497 0.31037 0.89081 0.0
H336 H 0.21699 0.33169 0.90595 0.0
H337 H 0.26111 0.26167 0.94832 0.0
O338 O 0.35251 0.35581 0.7942 0.0
C339 C 0.31991 0.27869 0.8721 0.0
Co340 Co 0.99622 0.3602 0.99153 0.0
Co341 Co 0.96963 0.31746 0.05584 0.0
C342 C 0.97481 0.38568 0.04914 0.0
O343 O 0.98789 0.38856 0.02108 0.0
O344 O 0.96477 0.35867 0.06629 0.0
C345 C 0.99257 0.40089 0.94067 0.0
O346 O 0.97245 0.40463 0.96148 0.0
C347 C 0.91737 0.27117 0.10258 0.0
C348 C 0.94233 0.24427 0.12413 0.0
C349 C 0.91183 0.24476 0.12381 0.0
N350 N 0.94942 0.28517 0.09071 0.0
N351 N 0.96443 0.26946 0.10423 0.0
C352 C 0.89172 0.28058 0.09083 0.0
H353 H 0.90048 0.29545 0.06769 0.0
H354 H 0.86639 0.25729 0.08709 0.0
H355 H 0.88874 0.29666 0.10966 0.0
C356 C 0.94181 0.29681 0.96224 0.0
N357 N 0.95838 0.31566 0.98866 0.0
N358 N 0.94752 0.2965 0.01517 0.0
C359 C 0.92386 0.26434 0.00612 0.0
C360 C 0.91943 0.26364 0.97237 0.0
C361 C 0.94767 0.31051 0.92798 0.0
H362 H 0.94354 0.33274 0.92711 0.0
H363 H 0.93009 0.29113 0.91017 0.0
H364 H 0.97457 0.31946 0.92076 0.0
O365 O 0.03618 0.35792 0.00576 0.0
O366 O 0.01918 0.32974 0.05291 0.0
H367 H 0.92819 0.23596 0.04628 0.0
H368 H 0.89931 0.20972 0.01437 0.0
C369 C 0.90879 0.23388 0.0284 0.0
H370 H 0.88687 0.23269 0.04185 0.0
H371 H 0.98919 0.27477 0.09861 0.0
O372 O 0.00583 0.38281 0.94871 0.0
C373 C 0.04212 0.34523 0.03102 0.0
Co374 Co 0.62408 0.98332 0.16392 0.0
Co375 Co 0.65505 0.97572 0.22926 0.0
C376 C 0.58638 0.97089 0.22664 0.0
O377 O 0.58938 0.9759 0.196 0.0
O378 O 0.60972 0.97025 0.24372 0.0
C379 C 0.59648 0.00146 0.10865 0.0
O380 O 0.60506 0.03027 0.12398 0.0
C381 C 0.66261 0.93999 0.28602 0.0
C382 C 0.71805 0.97107 0.29592 0.0
C383 C 0.68853 0.94173 0.30567 0.0
N384 N 0.6762 0.96703 0.26564 0.0
N385 N 0.70922 0.98589 0.27217 0.0
C386 C 0.62646 0.91113 0.2839 0.0
H387 H 0.61441 0.91249 0.26067 0.0
H388 H 0.62561 0.88614 0.28563 0.0
H389 H 0.61165 0.91288 0.30479 0.0
C390 C 0.63599 0.92792 0.14335 0.0
N391 N 0.63613 0.94912 0.16659 0.0
N392 N 0.64962 0.94528 0.1937 0.0
C393 C 0.65883 0.92132 0.18824 0.0
C394 C 0.65047 0.90967 0.15613 0.0
C395 C 0.62219 0.92533 0.10944 0.0
H396 H 0.59535 0.91982 0.11103 0.0
H397 H 0.62267 0.90479 0.09493 0.0
H398 H 0.63746 0.9502 0.09665 0.0
O399 O 0.66524 0.02882 0.16803 0.0
O400 O 0.6872 0.02391 0.21498 0.0
H401 H 0.68901 0.89763 0.19994 0.0
H402 H 0.65991 0.89523 0.23144 0.0
C403 C 0.67781 0.91179 0.21212 0.0
H404 H 0.69849 0.93515 0.22389 0.0
H405 H 0.72608 0.00797 0.25926 0.0
O406 O 0.60302 0.97977 0.12147 0.0
C407 C 0.68839 0.04141 0.18993 0.0
C408 C 0.37983 0.12734 0.60108 0.0
C409 C 0.35618 0.11122 0.62652 0.0
C410 C 0.37823 0.15166 0.58082 0.0
C411 C 0.35318 0.16115 0.58691 0.0
C412 C 0.32961 0.14546 0.61297 0.0
C413 C 0.33101 0.12024 0.63207 0.0
C414 C 0.40335 0.16714 0.55285 0.0
C415 C 0.30308 0.15549 0.62083 0.0
C416 C 0.37282 0.2484 0.55528 0.0
C417 C 0.35108 0.23971 0.52806 0.0
C418 C 0.3732 0.2231 0.57498 0.0
C419 C 0.3523 0.18817 0.56656 0.0
C420 C 0.33091 0.17921 0.53859 0.0
C421 C 0.33014 0.20508 0.51999 0.0
C422 C 0.39582 0.23378 0.60497 0.0
C423 C 0.30895 0.14233 0.52826 0.0
H424 H 0.3997 0.12093 0.59696 0.0
H425 H 0.31222 0.10741 0.65124 0.0
H426 H 0.38941 0.16402 0.52955 0.0
H427 H 0.4202 0.195 0.55694 0.0
H428 H 0.41965 0.15525 0.55002 0.0
H429 H 0.28738 0.14168 0.64256 0.0
H430 H 0.3158 0.18344 0.62557 0.0
H431 H 0.28579 0.15002 0.59958 0.0
H432 H 0.38958 0.27513 0.56128 0.0
H433 H 0.31293 0.19818 0.49926 0.0
H434 H 0.41538 0.22588 0.60244 0.0
H435 H 0.3803 0.22076 0.62701 0.0
H436 H 0.40911 0.26189 0.60908 0.0
H437 H 0.32509 0.13037 0.52491 0.0
H438 H 0.29497 0.13975 0.50508 0.0
H439 H 0.29002 0.12772 0.54771 0.0
C440 C 0.07704 0.31076 0.73093 0.0
C441 C 0.09064 0.3318 0.70332 0.0
C442 C 0.09853 0.30784 0.75403 0.0
C443 C 0.13445 0.32657 0.74941 0.0
C444 C 0.14822 0.34748 0.72123 0.0
C445 C 0.12609 0.34967 0.6984 0.0
C446 C 0.08284 0.28487 0.78342 0.0
C447 C 0.18637 0.36798 0.71544 0.0
C448 C 0.19596 0.348 0.82095 0.0
C449 C 0.20836 0.32555 0.81535 0.0
C450 C 0.17088 0.34782 0.80034 0.0
C451 C 0.15783 0.32436 0.77385 0.0
C452 C 0.16895 0.30029 0.76944 0.0
C453 C 0.19425 0.30132 0.79018 0.0
C454 C 0.15977 0.37394 0.80582 0.0
C455 C 0.15537 0.27455 0.74187 0.0
H456 H 0.04953 0.29667 0.73447 0.0
H457 H 0.13653 0.36602 0.67707 0.0
H458 H 0.09099 0.26538 0.78427 0.0
H459 H 0.09203 0.30013 0.80626 0.0
H460 H 0.05442 0.27152 0.78308 0.0
H461 H 0.19294 0.38303 0.69236 0.0
H462 H 0.19897 0.38585 0.73617 0.0
H463 H 0.19717 0.35064 0.71432 0.0
H464 H 0.20715 0.36684 0.84036 0.0
H465 H 0.20401 0.284 0.78598 0.0
H466 H 0.13144 0.36127 0.80664 0.0
H467 H 0.16859 0.39228 0.78505 0.0
H468 H 0.17029 0.38855 0.8289 0.0
H469 H 0.12698 0.26075 0.74167 0.0
H470 H 0.16407 0.25549 0.74378 0.0
H471 H 0.16421 0.28803 0.71805 0.0
C472 C 0.79997 0.09091 0.87304 0.0
C473 C 0.78493 0.09822 0.8466 0.0
C474 C 0.82426 0.11724 0.89291 0.0
C475 C 0.83345 0.1516 0.88615 0.0
C476 C 0.81948 0.15916 0.85844 0.0
C477 C 0.79542 0.13229 0.83886 0.0
C478 C 0.83892 0.10818 0.92193 0.0
C479 C 0.82861 0.19545 0.85044 0.0
C480 C 0.86247 0.21469 0.95691 0.0
C481 C 0.89777 0.23379 0.95146 0.0
C482 C 0.84126 0.18763 0.93596 0.0
C483 C 0.85589 0.17937 0.90921 0.0
C484 C 0.89175 0.19804 0.90425 0.0
C485 C 0.91228 0.22512 0.92547 0.0
C486 C 0.80311 0.16837 0.94201 0.0
C487 C 0.90833 0.18973 0.8763 0.0
H488 H 0.79183 0.06444 0.8788 0.0
H489 H 0.78353 0.1378 0.81847 0.0
H490 H 0.86726 0.12397 0.92195 0.0
H491 H 0.82962 0.11384 0.94496 0.0
H492 H 0.83157 0.0807 0.92202 0.0
H493 H 0.8174 0.19722 0.82679 0.0
H494 H 0.8191 0.20551 0.87017 0.0
H495 H 0.8568 0.21225 0.84924 0.0
H496 H 0.8514 0.22153 0.9771 0.0
H497 H 0.93974 0.23974 0.92164 0.0
H498 H 0.79389 0.14064 0.94492 0.0
H499 H 0.78963 0.17124 0.92057 0.0
H500 H 0.7959 0.17759 0.96421 0.0
H501 H 0.90135 0.1624 0.87745 0.0
H502 H 0.93668 0.20584 0.87661 0.0
H503 H 0.89876 0.19364 0.85259 0.0
C504 C 0.63568 0.77346 0.02691 0.0
C505 C 0.65816 0.76087 0.03113 0.0
C506 C 0.6369 0.79873 0.04795 0.0
C507 C 0.66152 0.81195 0.07345 0.0
C508 C 0.68521 0.80021 0.07685 0.0
C509 C 0.68314 0.77468 0.05569 0.0
C510 C 0.61112 0.81048 0.04355 0.0
C511 C 0.71221 0.81406 0.10328 0.0
C512 C 0.67808 0.89638 0.11003 0.0
C513 C 0.65734 0.88534 0.13803 0.0
C514 C 0.68077 0.8729 0.08944 0.0
C515 C 0.66192 0.83751 0.0969 0.0
C516 C 0.64203 0.82645 0.12598 0.0
C517 C 0.64013 0.85062 0.14635 0.0
C518 C 0.70268 0.88584 0.05902 0.0
C519 C 0.62146 0.78895 0.13475 0.0
H520 H 0.61633 0.7626 0.00792 0.0
H521 H 0.70063 0.76495 0.0587 0.0
H522 H 0.59498 0.80429 0.06584 0.0
H523 H 0.62446 0.83867 0.04032 0.0
H524 H 0.59418 0.79826 0.02209 0.0
H525 H 0.72989 0.80367 0.10145 0.0
H526 H 0.72742 0.84241 0.1018 0.0
H527 H 0.69981 0.80745 0.12774 0.0
H528 H 0.69134 0.92335 0.10372 0.0
H529 H 0.62393 0.84222 0.16794 0.0
H530 H 0.68615 0.87687 0.03695 0.0
H531 H 0.7203 0.87539 0.05762 0.0
H532 H 0.71805 0.91424 0.0583 0.0
H533 H 0.60143 0.7752 0.11594 0.0
H534 H 0.60887 0.78473 0.15907 0.0
H535 H 0.63815 0.77739 0.13496 0.0
C536 C 0.90728 0.70639 0.21377 0.0
C537 C 0.8953 0.68182 0.1888 0.0
C538 C 0.88443 0.70917 0.23518 0.0
C539 C 0.84881 0.68663 0.23156 0.0
C540 C 0.83659 0.66287 0.20528 0.0
C541 C 0.86008 0.66088 0.18404 0.0
C542 C 0.89848 0.73519 0.2625 0.0
C543 C 0.7988 0.63839 0.2006 0.0
C544 C 0.79131 0.66374 0.30652 0.0
C545 C 0.77475 0.68246 0.30082 0.0
C546 C 0.81597 0.66534 0.28441 0.0
C547 C 0.82443 0.68651 0.25626 0.0
C548 C 0.8088 0.70666 0.25131 0.0
C549 C 0.78403 0.70429 0.27365 0.0
C550 C 0.83204 0.64343 0.29054 0.0
C551 C 0.81752 0.72996 0.22197 0.0
H552 H 0.93465 0.72259 0.21726 0.0
H553 H 0.85099 0.6418 0.16475 0.0
H554 H 0.88541 0.75051 0.26293 0.0
H555 H 0.89348 0.72182 0.28641 0.0
H556 H 0.92649 0.75288 0.26007 0.0
H557 H 0.7934 0.62296 0.17787 0.0
H558 H 0.78868 0.62069 0.22183 0.0
H559 H 0.78466 0.65263 0.19957 0.0
H560 H 0.78395 0.64682 0.32755 0.0
H561 H 0.77129 0.71897 0.26952 0.0
H562 H 0.86034 0.65953 0.2908 0.0
H563 H 0.82521 0.62461 0.27037 0.0
H564 H 0.82356 0.62928 0.31411 0.0
H565 H 0.84561 0.7474 0.22043 0.0
H566 H 0.80479 0.74561 0.22287 0.0
H567 H 0.80951 0.71447 0.19919 0.0
C568 C 0.22724 0.87469 0.38474 0.0
C569 C 0.21981 0.89145 0.35989 0.0
C570 C 0.20133 0.84995 0.40464 0.0
C571 C 0.1668 0.84043 0.39858 0.0
C572 C 0.15893 0.8563 0.37269 0.0
C573 C 0.18562 0.8822 0.35411 0.0
C574 C 0.21104 0.83444 0.43252 0.0
C575 C 0.12235 0.84594 0.36464 0.0
C576 C 0.10276 0.75369 0.43391 0.0
C577 C 0.09092 0.7628 0.46181 0.0
C578 C 0.126 0.77863 0.41219 0.0
C579 C 0.13916 0.81371 0.41938 0.0
C580 C 0.12745 0.82315 0.44759 0.0
C581 C 0.10285 0.79754 0.46802 0.0
C582 C 0.13687 0.76736 0.38184 0.0
C583 C 0.14166 0.86027 0.45674 0.0
H584 H 0.25357 0.88131 0.38897 0.0
H585 H 0.17976 0.89547 0.33532 0.0
H586 H 0.20042 0.83772 0.4559 0.0
H587 H 0.19992 0.80655 0.42851 0.0
H588 H 0.23922 0.84619 0.43517 0.0
H589 H 0.12042 0.85895 0.3423 0.0
H590 H 0.10709 0.81783 0.36087 0.0
H591 H 0.11064 0.85227 0.38542 0.0
H592 H 0.09419 0.72697 0.42917 0.0
H593 H 0.09322 0.80476 0.48908 0.0
H594 H 0.16399 0.77396 0.38417 0.0
H595 H 0.13501 0.78096 0.35996 0.0
H596 H 0.12101 0.73933 0.37763 0.0
H597 H 0.16978 0.87271 0.46023 0.0
H598 H 0.13005 0.86331 0.4796 0.0
H599 H 0.13712 0.8741 0.43668 0.0
C600 C 0.32329 0.21745 0.30512 0.0
C601 C 0.34634 0.23706 0.32991 0.0
C602 C 0.32477 0.19008 0.29046 0.0
C603 C 0.35 0.18223 0.30082 0.0
C604 C 0.37571 0.20438 0.32303 0.0
C605 C 0.37334 0.23131 0.33765 0.0
C606 C 0.29692 0.16727 0.26681 0.0
C607 C 0.40345 0.19731 0.33429 0.0
C608 C 0.32284 0.08939 0.31545 0.0
C609 C 0.33796 0.082 0.28915 0.0
C610 C 0.32559 0.1215 0.31862 0.0
C611 C 0.34466 0.14729 0.29518 0.0
C612 C 0.35928 0.13971 0.26792 0.0
C613 C 0.35549 0.10682 0.26505 0.0
C614 C 0.30888 0.12805 0.34773 0.0
C615 C 0.38014 0.16666 0.24273 0.0
H616 H 0.30247 0.22192 0.29888 0.0
H617 H 0.39088 0.24565 0.3572 0.0
H618 H 0.30733 0.15865 0.24665 0.0
H619 H 0.27749 0.14411 0.27999 0.0
H620 H 0.28391 0.18042 0.25612 0.0
H621 H 0.42507 0.22019 0.3459 0.0
H622 H 0.39266 0.17626 0.35256 0.0
H623 H 0.41343 0.18905 0.31347 0.0
H624 H 0.30916 0.06996 0.33396 0.0
H625 H 0.36742 0.10102 0.24487 0.0
H626 H 0.29212 0.13805 0.33943 0.0
H627 H 0.3288 0.14771 0.36386 0.0
H628 H 0.29324 0.10458 0.3625 0.0
H629 H 0.36695 0.18072 0.23509 0.0
H630 H 0.38528 0.15547 0.22068 0.0
H631 H 0.40501 0.18562 0.25367 0.0
C632 C 0.26466 0.37414 0.45244 0.0
C633 C 0.26645 0.3445 0.44648 0.0
C634 C 0.23319 0.37225 0.45882 0.0
C635 C 0.20309 0.33978 0.46045 0.0
C636 C 0.20448 0.31001 0.45189 0.0
C637 C 0.23625 0.31281 0.44458 0.0
C638 C 0.23271 0.40472 0.4667 0.0
C639 C 0.17314 0.27485 0.45384 0.0
C640 C 0.13932 0.33108 0.5258 0.0
C641 C 0.11281 0.32984 0.50704 0.0
C642 C 0.16867 0.33407 0.51081 0.0
C643 C 0.17181 0.33656 0.4762 0.0
C644 C 0.14525 0.33593 0.45716 0.0
C645 C 0.1157 0.33196 0.47285 0.0
C646 C 0.19604 0.33395 0.53203 0.0
C647 C 0.14808 0.33943 0.42036 0.0
H648 H 0.28815 0.39863 0.45405 0.0
H649 H 0.2378 0.28985 0.4405 0.0
H650 H 0.21039 0.40454 0.45508 0.0
H651 H 0.23033 0.40657 0.49358 0.0
H652 H 0.2565 0.42787 0.45842 0.0
H653 H 0.17732 0.2551 0.44186 0.0
H654 H 0.16661 0.26768 0.47996 0.0
H655 H 0.1508 0.27463 0.44227 0.0
H656 H 0.13656 0.32857 0.55221 0.0
H657 H 0.09491 0.33071 0.45845 0.0
H658 H 0.22051 0.35835 0.52894 0.0
H659 H 0.20057 0.31292 0.52437 0.0
H660 H 0.18909 0.33066 0.55843 0.0
H661 H 0.1718 0.36335 0.41354 0.0
H662 H 0.12581 0.33985 0.40926 0.0
H663 H 0.14995 0.31783 0.4096 0.0
C664 C 0.77412 0.11187 0.62696 0.0
C665 C 0.77595 0.10448 0.65995 0.0
C666 C 0.79974 0.14258 0.61291 0.0
C667 C 0.82804 0.16569 0.63223 0.0
C668 C 0.82996 0.15787 0.66553 0.0
C669 C 0.80375 0.12745 0.67899 0.0
C670 C 0.79651 0.15039 0.57758 0.0
C671 C 0.85988 0.18149 0.68694 0.0
C672 C 0.91488 0.23176 0.59946 0.0
C673 C 0.91532 0.26211 0.60787 0.0
C674 C 0.88549 0.19977 0.60489 0.0
C675 C 0.85581 0.19834 0.61833 0.0
C676 C 0.85513 0.22904 0.62351 0.0
C677 C 0.88506 0.26058 0.61862 0.0
C678 C 0.88743 0.16769 0.59935 0.0
C679 C 0.82374 0.22867 0.63694 0.0
H680 H 0.75259 0.09375 0.61232 0.0
H681 H 0.80529 0.12123 0.70436 0.0
H682 H 0.79673 0.17506 0.57589 0.0
H683 H 0.81874 0.15328 0.5633 0.0
H684 H 0.77265 0.13003 0.56607 0.0
H685 H 0.85794 0.17103 0.712 0.0
H686 H 0.88419 0.18595 0.67569 0.0
H687 H 0.86132 0.2067 0.68903 0.0
H688 H 0.9383 0.23287 0.59129 0.0
H689 H 0.88528 0.28408 0.62483 0.0
H690 H 0.86387 0.14764 0.58729 0.0
H691 H 0.8896 0.15737 0.62336 0.0
H692 H 0.90991 0.17267 0.58413 0.0
H693 H 0.80027 0.20874 0.62462 0.0
H694 H 0.8252 0.25386 0.63395 0.0
H695 H 0.82123 0.22241 0.66346 0.0
C696 C 0.68874 0.90714 0.77443 0.0
C697 C 0.65911 0.90957 0.77175 0.0
C698 C 0.68668 0.87597 0.78288 0.0
C699 C 0.65413 0.8465 0.78781 0.0
C700 C 0.62412 0.84821 0.78165 0.0
C701 C 0.62697 0.87999 0.77443 0.0
C702 C 0.71934 0.87556 0.78991 0.0
C703 C 0.58898 0.81716 0.78538 0.0
C704 C 0.65459 0.7634 0.80279 0.0
C705 C 0.65334 0.76168 0.83707 0.0
C706 C 0.65314 0.78995 0.78613 0.0
C707 C 0.65166 0.81592 0.80436 0.0
C708 C 0.64989 0.81387 0.83904 0.0
C709 C 0.65056 0.78665 0.85494 0.0
C710 C 0.6542 0.79076 0.74918 0.0
C711 C 0.64892 0.8413 0.85952 0.0
H712 H 0.71356 0.93026 0.77303 0.0
H713 H 0.60409 0.88208 0.77267 0.0
H714 H 0.72161 0.87302 0.81671 0.0
H715 H 0.71897 0.85329 0.77799 0.0
H716 H 0.74237 0.89933 0.78142 0.0
H717 H 0.56897 0.82098 0.77352 0.0
H718 H 0.58824 0.79419 0.77462 0.0
H719 H 0.58266 0.81197 0.81179 0.0
H720 H 0.65717 0.74421 0.78907 0.0
H721 H 0.65075 0.78591 0.88148 0.0
H722 H 0.67919 0.8121 0.74074 0.0
H723 H 0.63397 0.79545 0.73934 0.0
H724 H 0.65075 0.76651 0.73866 0.0
H725 H 0.67237 0.86632 0.855 0.0
H726 H 0.64716 0.83563 0.88617 0.0
H727 H 0.62668 0.84405 0.85245 0.0
C728 C 0.7595 0.67655 0.93869 0.0
C729 C 0.73061 0.6489 0.95291 0.0
C730 C 0.79223 0.68059 0.94329 0.0
C731 C 0.79584 0.65619 0.96216 0.0
C732 C 0.76632 0.62657 0.97375 0.0
C733 C 0.73409 0.62341 0.96916 0.0
C734 C 0.82308 0.71246 0.93044 0.0
C735 C 0.76891 0.59965 0.99353 0.0
C736 C 0.88092 0.65819 0.97095 0.0
C737 C 0.89223 0.67487 0.00109 0.0
C738 C 0.84995 0.6527 0.95726 0.0
C739 C 0.83008 0.66404 0.97439 0.0
C740 C 0.84192 0.68132 0.00472 0.0
C741 C 0.8729 0.68653 0.01766 0.0
C742 C 0.83816 0.63423 0.92492 0.0
C743 C 0.82148 0.69365 0.02393 0.0
H744 H 0.7569 0.69633 0.92616 0.0
H745 H 0.7117 0.60177 0.97984 0.0
H746 H 0.83604 0.73039 0.95106 0.0
H747 H 0.84181 0.70622 0.91945 0.0
H748 H 0.81593 0.72576 0.91183 0.0
H749 H 0.74366 0.57599 0.99647 0.0
H750 H 0.78691 0.59283 0.98183 0.0
H751 H 0.77907 0.60995 0.01826 0.0
H752 H 0.89616 0.64928 0.9583 0.0
H753 H 0.88192 0.6994 0.04103 0.0
H754 H 0.83213 0.64942 0.90757 0.0
H755 H 0.81429 0.60938 0.92858 0.0
H756 H 0.85769 0.62928 0.91361 0.0
H757 H 0.81606 0.71061 0.00847 0.0
H758 H 0.83501 0.70786 0.04641 0.0
H759 H 0.79651 0.67146 0.03123 0.0
C760 C 0.18078 0.88834 0.17306 0.0
C761 C 0.21574 0.90087 0.16776 0.0
C762 C 0.15603 0.85773 0.15866 0.0
C763 C 0.16644 0.83953 0.13776 0.0
C764 C 0.20165 0.85327 0.13052 0.0
C765 C 0.22602 0.88366 0.14601 0.0
C766 C 0.11885 0.84381 0.16758 0.0
C767 C 0.21368 0.83522 0.10756 0.0
C768 C 0.10422 0.74494 0.14399 0.0
C769 C 0.08075 0.74014 0.11911 0.0
C770 C 0.13384 0.77664 0.1487 0.0
C771 C 0.14063 0.8042 0.12757 0.0
C772 C 0.11905 0.79857 0.10026 0.0
C773 C 0.08909 0.76658 0.09645 0.0
C774 C 0.15599 0.78142 0.17824 0.0
C775 C 0.12619 0.82701 0.07651 0.0
H776 H 0.17277 0.9016 0.1899 0.0
H777 H 0.25305 0.89374 0.14138 0.0
H778 H 0.10306 0.83801 0.14514 0.0
H779 H 0.10927 0.81952 0.18142 0.0
H780 H 0.11492 0.86198 0.18284 0.0
H781 H 0.24029 0.85251 0.09898 0.0
H782 H 0.21304 0.81322 0.12038 0.0
H783 H 0.19657 0.825 0.08594 0.0
H784 H 0.09845 0.72447 0.16125 0.0
H785 H 0.07136 0.763 0.07689 0.0
H786 H 0.15299 0.79811 0.19636 0.0
H787 H 0.18337 0.79423 0.17119 0.0
H788 H 0.1491 0.75673 0.19036 0.0
H789 H 0.11818 0.84438 0.08758 0.0
H790 H 0.11196 0.81692 0.05318 0.0
H791 H 0.15397 0.84242 0.07104 0.0
C792 C 0.88259 0.62548 0.5473 0.0
C793 C 0.91362 0.65404 0.55671 0.0
C794 C 0.85368 0.6285 0.5407 0.0
C795 C 0.85631 0.66109 0.54253 0.0
C796 C 0.88671 0.68935 0.55482 0.0
C797 C 0.91494 0.68535 0.56221 0.0
C798 C 0.82139 0.59746 0.52882 0.0
C799 C 0.89084 0.72466 0.55673 0.0
C800 C 0.80796 0.67908 0.47681 0.0
C801 C 0.7812 0.67842 0.49469 0.0
C802 C 0.83261 0.6737 0.49225 0.0
C803 C 0.82996 0.66676 0.52635 0.0
C804 C 0.80252 0.6655 0.54444 0.0
C805 C 0.77868 0.67194 0.52842 0.0
C806 C 0.86177 0.67593 0.47208 0.0
C807 C 0.79835 0.65729 0.58057 0.0
H808 H 0.88152 0.6012 0.54317 0.0
H809 H 0.93902 0.70755 0.56917 0.0
H810 H 0.79842 0.5966 0.53972 0.0
H811 H 0.81952 0.59888 0.50182 0.0
H812 H 0.82111 0.57329 0.53487 0.0
H813 H 0.91358 0.74249 0.57142 0.0
H814 H 0.89397 0.73525 0.5316 0.0
H815 H 0.8678 0.72365 0.56755 0.0
H816 H 0.81003 0.68467 0.45078 0.0
H817 H 0.75791 0.67161 0.54212 0.0
H818 H 0.86117 0.65104 0.47262 0.0
H819 H 0.88663 0.69546 0.48265 0.0
H820 H 0.8607 0.68273 0.44612 0.0
H821 H 0.79705 0.63237 0.58488 0.0
H822 H 0.77492 0.65605 0.59082 0.0
H823 H 0.82089 0.677 0.59419 0.0
C824 C 0.24679 0.91363 0.72068 0.0
C825 C 0.27263 0.92074 0.69764 0.0
C826 C 0.214 0.88468 0.71722 0.0
C827 C 0.20692 0.86278 0.68987 0.0
C828 C 0.23353 0.86863 0.66784 0.0
C829 C 0.26603 0.89732 0.67214 0.0
C830 C 0.18647 0.87873 0.74169 0.0
C831 C 0.2271 0.8461 0.6382 0.0
C832 C 0.12605 0.77712 0.6764 0.0
C833 C 0.10782 0.78665 0.65521 0.0
C834 C 0.15752 0.80191 0.68982 0.0
C835 C 0.17112 0.83681 0.68131 0.0
C836 C 0.15195 0.84657 0.66107 0.0
C837 C 0.12044 0.82141 0.64855 0.0
C838 C 0.17679 0.79065 0.71201 0.0
C839 C 0.16563 0.88341 0.65099 0.0
H840 H 0.25169 0.93135 0.74065 0.0
H841 H 0.28587 0.90221 0.65441 0.0
H842 H 0.16882 0.88641 0.73073 0.0
H843 H 0.17111 0.85119 0.74814 0.0
H844 H 0.19736 0.8938 0.76447 0.0
H845 H 0.25111 0.85242 0.62501 0.0
H846 H 0.21417 0.81876 0.64547 0.0
H847 H 0.20986 0.84925 0.62095 0.0
H848 H 0.1159 0.75032 0.68227 0.0
H849 H 0.10638 0.82888 0.63219 0.0
H850 H 0.18674 0.80763 0.73375 0.0
H851 H 0.19914 0.79254 0.69871 0.0
H852 H 0.16051 0.76379 0.72043 0.0
H853 H 0.17314 0.90018 0.67289 0.0
H854 H 0.14665 0.88697 0.63676 0.0
H855 H 0.1889 0.89209 0.6357 0.0
C856 C 0.33057 0.23308 0.89499 0.0
C857 C 0.31877 0.24553 0.86971 0.0
C858 C 0.33291 0.20332 0.89038 0.0
C859 C 0.32245 0.18554 0.86013 0.0
C860 C 0.30891 0.19727 0.8353 0.0
C861 C 0.30763 0.22727 0.84029 0.0
C862 C 0.34794 0.19185 0.91717 0.0
C863 C 0.29667 0.17875 0.80294 0.0
C864 C 0.35522 0.13267 0.81906 0.0
C865 C 0.32687 0.09961 0.82204 0.0
C866 C 0.35583 0.16066 0.83478 0.0
C867 C 0.32694 0.15564 0.85299 0.0
C868 C 0.29941 0.12203 0.85815 0.0
C869 C 0.29978 0.09441 0.84269 0.0
C870 C 0.38597 0.19604 0.82906 0.0
C871 C 0.26799 0.1155 0.87717 0.0
H872 H 0.33935 0.24738 0.91768 0.0
H873 H 0.29813 0.23674 0.82088 0.0
H874 H 0.33167 0.16397 0.9217 0.0
H875 H 0.37348 0.19645 0.90937 0.0
H876 H 0.35094 0.2058 0.94048 0.0
H877 H 0.28464 0.18993 0.78723 0.0
H878 H 0.31857 0.17995 0.78936 0.0
H879 H 0.27777 0.15133 0.80714 0.0
H880 H 0.37582 0.13741 0.80244 0.0
H881 H 0.27778 0.06891 0.84514 0.0
H882 H 0.39287 0.21144 0.85188 0.0
H883 H 0.37906 0.20943 0.81038 0.0
H884 H 0.40877 0.19509 0.82015 0.0
H885 H 0.2751 0.13147 0.89961 0.0
H886 H 0.25209 0.08814 0.88424 0.0
H887 H 0.25216 0.12253 0.86177 0.0
C888 C 0.08315 0.33088 0.05908 0.0
C889 C 0.07525 0.34576 0.03276 0.0
C890 C 0.11234 0.32719 0.05812 0.0
C891 C 0.13353 0.33796 0.02994 0.0
C892 C 0.12675 0.35476 0.00424 0.0
C893 C 0.09799 0.35877 0.00614 0.0
C894 C 0.11943 0.31016 0.08646 0.0
C895 C 0.14844 0.36634 0.97353 0.0
C896 C 0.22017 0.34476 0.01887 0.0
C897 C 0.21093 0.3145 0.00162 0.0
C898 C 0.19501 0.35159 0.03098 0.0
C899 C 0.16002 0.32797 0.02486 0.0
C900 C 0.15066 0.29651 0.00911 0.0
C901 C 0.17626 0.29003 -0.00198 0.0
C902 C 0.20593 0.38488 0.04864 0.0
C903 C 0.11373 0.27083 0.00154 0.0
H904 H 0.06598 0.32109 0.07992 0.0
H905 H 0.09244 0.37064 0.98577 0.0
H906 H 0.11178 0.28343 0.07975 0.0
H907 H 0.14718 0.32363 0.09226 0.0
H908 H 0.105 0.30951 0.10878 0.0
H909 H 0.14087 0.38075 0.95666 0.0
H910 H 0.17583 0.38287 0.97986 0.0
H911 H 0.14594 0.34371 0.96027 0.0
H912 H 0.24704 0.3634 0.02218 0.0
H913 H 0.16909 0.26662 0.98463 0.0
H914 H 0.18902 0.3808 0.06997 0.0
H915 H 0.20382 0.40306 0.03183 0.0
H916 H 0.23285 0.39689 0.05727 0.0
H917 H 0.09776 0.26491 0.02389 0.0
H918 H 0.11061 0.24652 0.99151 0.0
H919 H 0.10374 0.28189 0.98328 0.0
C920 C 0.72363 0.09208 0.15401 0.0
C921 C 0.71883 0.07573 0.18443 0.0
C922 C 0.75434 0.12207 0.14651 0.0
C923 C 0.78081 0.1364 0.17014 0.0
C924 C 0.77537 0.12129 0.2016 0.0
C925 C 0.74452 0.09099 0.20832 0.0
C926 C 0.75919 0.1372 0.11258 0.0
C927 C 0.80277 0.13614 0.22762 0.0
C928 C 0.87114 0.18352 0.13614 0.0
C929 C 0.879 0.21774 0.13766 0.0
C930 C 0.83951 0.15695 0.14715 0.0
C931 C 0.81528 0.1648 0.16057 0.0
C932 C 0.82352 0.19942 0.16325 0.0
C933 C 0.85529 0.22554 0.15157 0.0
C934 C 0.83165 0.12037 0.14347 0.0
C935 C 0.79859 0.2088 0.17799 0.0
H936 H 0.70397 0.08063 0.13537 0.0
H937 H 0.74099 0.07875 0.23198 0.0
H938 H 0.76841 0.16503 0.11402 0.0
H939 H 0.77898 0.1341 0.09932 0.0
H940 H 0.73519 0.12475 0.09799 0.0
H941 H 0.79296 0.12422 0.25198 0.0
H942 H 0.82418 0.13194 0.22066 0.0
H943 H 0.81334 0.16418 0.22971 0.0
H944 H 0.88938 0.17738 0.12531 0.0
H945 H 0.86161 0.25203 0.15345 0.0
H946 H 0.80927 0.10621 0.12707 0.0
H947 H 0.82479 0.10726 0.16758 0.0
H948 H 0.85357 0.11868 0.13319 0.0
H949 H 0.7753 0.1985 0.16253 0.0
H950 H 0.80973 0.23694 0.18026 0.0
H951 H 0.79039 0.19704 0.20262 0.0
C952 C 0.71012 0.90228 0.31907 0.0
C953 C 0.68733 0.91403 0.32588 0.0
C954 C 0.70652 0.87281 0.33429 0.0
C955 C 0.68004 0.85526 0.35756 0.0
C956 C 0.65874 0.86874 0.36649 0.0
C957 C 0.66224 0.89772 0.35004 0.0
C958 C 0.72932 0.85898 0.32343 0.0
C959 C 0.63108 0.85153 0.39203 0.0
C960 C 0.64489 0.75991 0.35395 0.0
C961 C 0.66457 0.7551 0.37776 0.0
C962 C 0.64827 0.79206 0.34852 0.0
C963 C 0.67136 0.82019 0.36791 0.0
C964 C 0.68896 0.81497 0.39403 0.0
C965 C 0.68559 0.78243 0.39852 0.0
C966 C 0.6291 0.79637 0.32024 0.0
C967 C 0.71283 0.84411 0.41598 0.0
H968 H 0.72946 0.91492 0.30028 0.0
H969 H 0.64496 0.90721 0.3556 0.0
H970 H 0.74087 0.85358 0.34494 0.0
H971 H 0.7138 0.83446 0.31016 0.0
H972 H 0.75024 0.877 0.30697 0.0
H973 H 0.62219 0.86895 0.40131 0.0
H974 H 0.60882 0.82872 0.3812 0.0
H975 H 0.64032 0.84268 0.413 0.0
H976 H 0.62801 0.73883 0.33817 0.0
H977 H 0.70063 0.77891 0.4172 0.0
H978 H 0.64759 0.81302 0.30126 0.0
H979 H 0.61477 0.80904 0.32858 0.0
H980 H 0.61074 0.77155 0.3087 0.0
H981 H 0.73725 0.86049 0.40287 0.0
H982 H 0.71868 0.83471 0.43887 0.0
H983 H 0.70165 0.86038 0.42246 0.0
C984 C 0.46303 0.42529 0.40793 0.0
C985 C 0.44305 0.42225 0.43541 0.0
C986 C 0.495 0.45511 0.40298 0.0
C987 C 0.50694 0.48232 0.42596 0.0
C988 C 0.48726 0.47889 0.45409 0.0
C989 C 0.45572 0.44911 0.45839 0.0
C990 C 0.51551 0.45796 0.37273 0.0
C991 C 0.4987 0.50737 0.47901 0.0
C992 C 0.59815 0.55811 0.42603 0.0
C993 C 0.59381 0.58221 0.40823 0.0
C994 C 0.57025 0.52494 0.43137 0.0
C995 C 0.5375 0.51615 0.41888 0.0
C996 C 0.53305 0.54081 0.40161 0.0
C997 C 0.56119 0.5734 0.3965 0.0
C998 C 0.5758 0.49917 0.4499 0.0
C999 C 0.49849 0.53286 0.3885 0.0
H1000 H 0.45367 0.4046 0.39027 0.0
H1001 H 0.4407 0.44728 0.47983 0.0
H1002 H 0.51599 0.47766 0.35609 0.0
H1003 H 0.54241 0.46635 0.37942 0.0
H1004 H 0.50467 0.43334 0.35919 0.0
H1005 H 0.48195 0.49939 0.50102 0.0
H1006 H 0.52533 0.51616 0.48698 0.0
H1007 H 0.49842 0.52961 0.46772 0.0
H1008 H 0.62347 0.56472 0.4346 0.0
H1009 H 0.55777 0.59205 0.38273 0.0
H1010 H 0.56815 0.47622 0.43444 0.0
H1011 H 0.55942 0.49054 0.47211 0.0
H1012 H 0.60291 0.50977 0.45745 0.0
H1013 H 0.48824 0.51041 0.37189 0.0
H1014 H 0.49965 0.55474 0.37487 0.0
H1015 H 0.48006 0.52615 0.40902 0.0
C1016 C 0.99994 0.44046 0.57517 0.0
C1017 C 0.02739 0.43593 0.58383 0.0
C1018 C 0.00412 0.47331 0.57243 0.0
C1019 C 0.03645 0.50232 0.57926 0.0
C1020 C 0.06461 0.49787 0.58703 0.0
C1021 C 0.05972 0.46457 0.58919 0.0
C1022 C 0.97357 0.47689 0.56342 0.0
C1023 C 0.09936 0.5281 0.5947 0.0
C1024 C 0.04498 0.58354 0.54407 0.0
C1025 C 0.03345 0.59548 0.57011 0.0
C1026 C 0.04834 0.5545 0.54736 0.0
C1027 C 0.04037 0.53709 0.57766 0.0
C1028 C 0.03175 0.55082 0.60501 0.0
C1029 C 0.02831 0.58002 0.6009 0.0
C1030 C 0.05764 0.54092 0.51758 0.0
C1031 C 0.02378 0.53329 0.63793 0.0
H1032 H 0.97476 0.41814 0.57197 0.0
H1033 H 0.0806 0.46085 0.59704 0.0
H1034 H 0.9672 0.48884 0.58398 0.0
H1035 H 0.97969 0.49394 0.54183 0.0
H1036 H 0.9506 0.45185 0.55768 0.0
H1037 H 0.1192 0.52054 0.59751 0.0
H1038 H 0.10752 0.5477 0.57511 0.0
H1039 H 0.0979 0.54027 0.61781 0.0
H1040 H 0.04983 0.59605 0.52044 0.0
H1041 H 0.01953 0.5893 0.62107 0.0
H1042 H 0.03477 0.51705 0.50913 0.0
H1043 H 0.07768 0.53443 0.52368 0.0
H1044 H 0.06693 0.55956 0.497 0.0
H1045 H 0.99869 0.50926 0.63676 0.0
H1046 H 0.02259 0.54969 0.65762 0.0
H1047 H 0.04334 0.52626 0.64451 0.0
C1048 C 0.59292 0.03458 0.73557 0.0
C1049 C 0.59929 0.02509 0.7663 0.0
C1050 C 0.5639 0.03806 0.73056 0.0
C1051 C 0.54075 0.03153 0.75681 0.0
C1052 C 0.54805 0.02367 0.78818 0.0
C1053 C 0.57727 0.02086 0.79257 0.0
C1054 C 0.55715 0.04715 0.69688 0.0
C1055 C 0.52391 0.01605 0.81674 0.0
C1056 C 0.46899 0.05259 0.7501 0.0
C1057 C 0.44213 0.02133 0.73886 0.0
C1058 C 0.50155 0.05658 0.75587 0.0
C1059 C 0.50682 0.02843 0.75078 0.0
C1060 C 0.47918 0.99645 0.74082 0.0
C1061 C 0.44731 0.99345 0.73463 0.0
C1062 C 0.53056 0.09112 0.76611 0.0
C1063 C 0.48339 0.96551 0.73603 0.0
H1064 H 0.60997 0.03833 0.71527 0.0
H1065 H 0.58216 0.01421 0.81668 0.0
H1066 H 0.53509 0.0244 0.68569 0.0
H1067 H 0.55031 0.06757 0.69851 0.0
H1068 H 0.57963 0.05591 0.6804 0.0
H1069 H 0.53482 0.0133 0.84018 0.0
H1070 H 0.51744 0.03663 0.81961 0.0
H1071 H 0.49964 0.99187 0.81201 0.0
H1072 H 0.46504 0.07432 0.75258 0.0
H1073 H 0.42646 0.96938 0.72562 0.0
H1074 H 0.55056 0.10122 0.74678 0.0
H1075 H 0.54269 0.08876 0.78884 0.0
H1076 H 0.52193 0.10997 0.77035 0.0
H1077 H 0.50249 0.97072 0.71648 0.0
H1078 H 0.45899 0.94228 0.7292 0.0
H1079 H 0.49314 0.96005 0.75886 0.0
C1080 C 0.53398 0.57429 0.91047 0.0
C1081 C 0.55619 0.57383 0.93418 0.0
C1082 C 0.5017 0.54505 0.905 0.0
C1083 C 0.4918 0.51482 0.92347 0.0
C1084 C 0.51427 0.51433 0.94723 0.0
C1085 C 0.54602 0.54368 0.95224 0.0
C1086 C 0.47824 0.54637 0.87944 0.0
C1087 C 0.50512 0.48254 0.96704 0.0
C1088 C 0.39978 0.44094 0.92893 0.0
C1089 C 0.40014 0.41845 0.90547 0.0
C1090 C 0.42916 0.47309 0.9344 0.0
C1091 C 0.45946 0.48253 0.91622 0.0
C1092 C 0.45992 0.45963 0.89289 0.0
C1093 C 0.43036 0.42802 0.88781 0.0
C1094 C 0.42783 0.49699 0.95948 0.0
C1095 C 0.49182 0.46826 0.87349 0.0
H1096 H 0.54152 0.59755 0.8967 0.0
H1097 H 0.56306 0.54289 0.9705 0.0
H1098 H 0.47394 0.52785 0.85957 0.0
H1099 H 0.45291 0.53873 0.89045 0.0
H1100 H 0.48882 0.57228 0.8685 0.0
H1101 H 0.52488 0.48693 0.98564 0.0
H1102 H 0.48032 0.47349 0.97977 0.0
H1103 H 0.50207 0.46166 0.95049 0.0
H1104 H 0.37637 0.43385 0.94228 0.0
H1105 H 0.43089 0.4107 0.86969 0.0
H1106 H 0.43542 0.52211 0.94802 0.0
H1107 H 0.44638 0.50169 0.97942 0.0
H1108 H 0.40194 0.48658 0.97041 0.0
H1109 H 0.50105 0.49283 0.86028 0.0
H1110 H 0.48747 0.44811 0.85535 0.0
H1111 H 0.51253 0.47155 0.89037 0.0
C1112 C 0.99651 0.4479 0.05066 0.0
C1113 C 0.97166 0.41495 0.06068 0.0
C1114 C 0.99304 0.47638 0.05743 0.0
C1115 C 0.96372 0.47186 0.07439 0.0
C1116 C 0.93845 0.43864 0.08474 0.0
C1117 C 0.94287 0.41044 0.07799 0.0
C1118 C 0.02109 0.5114 0.04674 0.0
C1119 C 0.90676 0.43296 0.10267 0.0
C1120 C 0.98055 0.55142 0.11989 0.0
C1121 C 0.96885 0.56724 0.09776 0.0
C1122 C 0.97719 0.51951 0.11333 0.0
C1123 C 0.96172 0.50264 0.08378 0.0
C1124 C 0.9487 0.51767 0.06169 0.0
C1125 C 0.95255 0.55 0.06888 0.0
C1126 C 0.99197 0.50479 0.13733 0.0
C1127 C 0.93175 0.50011 0.03005 0.0
H1128 H 0.01884 0.45143 0.03728 0.0
H1129 H 0.92339 0.38487 0.08522 0.0
H1130 H 0.01035 0.52375 0.03094 0.0
H1131 H 0.03252 0.52804 0.0685 0.0
H1132 H 0.04181 0.5103 0.03302 0.0
H1133 H 0.88883 0.40543 0.10775 0.0
H1134 H 0.91399 0.44705 0.12626 0.0
H1135 H 0.89322 0.44326 0.08799 0.0
H1136 H 0.99329 0.56436 0.14232 0.0
H1137 H 0.94313 0.56182 0.05185 0.0
H1138 H 0.0144 0.5048 0.1261 0.0
H1139 H 0.97289 0.47786 0.14329 0.0
H1140 H 1.00036 0.51963 0.16053 0.0
H1141 H 0.95118 0.5003 0.01322 0.0
H1142 H 0.91921 0.51287 0.0176 0.0
H1143 H 0.91233 0.47294 0.03469 0.0
C1144 C 0.41226 0.95604 0.29195 0.0
C1145 C 0.39956 0.96786 0.2668 0.0
C1146 C 0.44138 0.95302 0.28731 0.0
C1147 C 0.45864 0.96256 0.2569 0.0
C1148 C 0.44517 0.97319 0.2309 0.0
C1149 C 0.41546 0.97542 0.23608 0.0
C1150 C 0.4544 0.94086 0.3154 0.0
C1151 C 0.46305 0.98376 0.19816 0.0
C1152 C 0.55408 0.99398 0.25557 0.0
C1153 C 0.55469 0.96601 0.24154 0.0
C1154 C 0.52286 0.99294 0.26133 0.0
C1155 C 0.49171 0.96311 0.25296 0.0
C1156 C 0.49229 0.93416 0.24036 0.0
C1157 C 0.52389 0.93614 0.23441 0.0
C1158 C 0.5233 0.02437 0.27473 0.0
C1159 C 0.45967 0.90168 0.23177 0.0
H1160 H 0.39976 0.94983 0.31569 0.0
H1161 H 0.40577 0.98474 0.21674 0.0
H1162 H 0.45873 0.91985 0.30721 0.0
H1163 H 0.47936 0.96213 0.32397 0.0
H1164 H 0.43636 0.93161 0.33646 0.0
H1165 H 0.44844 0.98976 0.18002 0.0
H1166 H 0.48872 0.00674 0.20132 0.0
H1167 H 0.46698 0.96311 0.18812 0.0
H1168 H 0.57805 0.01738 0.26012 0.0
H1169 H 0.5246 0.91487 0.22277 0.0
H1170 H 0.5071 0.01775 0.297 0.0
H1171 H 0.51238 0.03437 0.25633 0.0
H1172 H 0.54957 0.04504 0.28099 0.0
H1173 H 0.44155 0.89322 0.25271 0.0
H1174 H 0.46443 0.88054 0.225 0.0
H1175 H 0.44701 0.90654 0.21083 0.0
C1176 C 0.37999 0.3704 0.7311 0.0
C1177 C 0.38502 0.39629 0.75315 0.0
C1178 C 0.38844 0.37774 0.69808 0.0
C1179 C 0.40226 0.41185 0.68691 0.0
C1180 C 0.40957 0.43851 0.70937 0.0
C1181 C 0.40076 0.43037 0.74242 0.0
C1182 C 0.38053 0.34856 0.67484 0.0
C1183 C 0.42473 0.4752 0.6983 0.0
C1184 C 0.43067 0.41721 0.59958 0.0
C1185 C 0.39991 0.40812 0.58337 0.0
C1186 C 0.43333 0.42231 0.63355 0.0
C1187 C 0.40451 0.41807 0.65128 0.0
C1188 C 0.37479 0.41263 0.63449 0.0
C1189 C 0.37285 0.4077 0.60063 0.0
C1190 C 0.4657 0.4289 0.65069 0.0
C1191 C 0.34364 0.40839 0.65256 0.0
H1192 H 0.36839 0.34409 0.73941 0.0
H1193 H 0.40502 0.45053 0.75952 0.0
H1194 H 0.35975 0.34491 0.65786 0.0
H1195 H 0.40332 0.35455 0.65976 0.0
H1196 H 0.37228 0.32404 0.68792 0.0
H1197 H 0.43588 0.49337 0.71911 0.0
H1198 H 0.44487 0.48172 0.67951 0.0
H1199 H 0.40438 0.47882 0.68704 0.0
H1200 H 0.45191 0.41819 0.58619 0.0
H1201 H 0.34931 0.40153 0.588 0.0
H1202 H 0.46202 0.4045 0.66097 0.0
H1203 H 0.47187 0.44709 0.67132 0.0
H1204 H 0.48783 0.43927 0.63358 0.0
H1205 H 0.33098 0.38331 0.66539 0.0
H1206 H 0.32472 0.40926 0.63575 0.0
H1207 H 0.35106 0.42864 0.67136 0.0
C1208 C 0.96181 0.37791 0.75708 0.0
C1209 C 0.98224 0.40481 0.73574 0.0
C1210 C 0.96239 0.38348 0.7908 0.0
C1211 C 0.98399 0.41678 0.80333 0.0
C1212 C 0.00228 0.4446 0.78169 0.0
C1213 C 0.00116 0.43827 0.74796 0.0
C1214 C 0.94211 0.35318 0.81314 0.0
C1215 C 0.02519 0.48048 0.79423 0.0
C1216 C 0.9719 0.42171 0.89421 0.0
C1217 C 0.99501 0.41221 0.90647 0.0
C1218 C 0.9697 0.42608 0.86048 0.0
C1219 C 0.99119 0.42088 0.83886 0.0
C1220 C 0.01661 0.41433 0.85141 0.0
C1221 C 0.01817 0.41002 0.88513 0.0
C1222 C 0.94259 0.43347 0.84792 0.0
C1223 C 0.04034 0.40906 0.82907 0.0
H1224 H 0.94667 0.35208 0.74765 0.0
H1225 H 0.01677 0.45924 0.7315 0.0
H1226 H 0.9599 0.34728 0.82665 0.0
H1227 H 0.92776 0.35916 0.83155 0.0
H1228 H 0.92368 0.32992 0.7994 0.0
H1229 H 0.03172 0.4999 0.77464 0.0
H1230 H 0.01295 0.4864 0.81486 0.0
H1231 H 0.04935 0.48274 0.80354 0.0
H1232 H 0.95413 0.42375 0.91068 0.0
H1233 H 0.03648 0.40326 0.8946 0.0
H1234 H 0.92057 0.40943 0.83858 0.0
H1235 H 0.95248 0.452 0.82732 0.0
H1236 H 0.93312 0.44377 0.86751 0.0
H1237 H 0.02549 0.38462 0.81551 0.0
H1238 H 0.06107 0.40806 0.84283 0.0
H1239 H 0.05215 0.42994 0.81071 0.0
C1240 C 0.56931 0.97012 0.91494 0.0
C1241 C 0.60099 0.97292 0.90746 0.0
C1242 C 0.56121 0.97417 0.94722 0.0
C1243 C 0.58535 0.98096 0.97234 0.0
C1244 C 0.61705 0.9831 0.96497 0.0
C1245 C 0.62447 0.97909 0.9326 0.0
C1246 C 0.52724 0.97179 0.95436 0.0
C1247 C 0.64336 0.98994 0.99122 0.0
C1248 C 0.59362 0.02367 0.05353 0.0
C1249 C 0.58443 0.99589 0.07456 0.0
C1250 C 0.59054 0.01876 0.0195 0.0
C1251 C 0.57792 0.98536 0.00671 0.0
C1252 C 0.56474 0.95691 0.02807 0.0
C1253 C 0.56818 0.96256 0.06185 0.0
C1254 C 0.60437 0.04966 -0.00263 0.0
C1255 C 0.55076 0.92087 0.01543 0.0
H1256 H 0.55118 0.96562 0.89548 0.0
H1257 H 0.64895 0.9812 0.92695 0.0
H1258 H 0.51333 0.95237 0.97365 0.0
H1259 H 0.53155 0.99669 0.96388 0.0
H1260 H 0.51074 0.96496 0.93226 0.0
H1261 H 0.6667 0.99076 0.98127 0.0
H1262 H 0.65106 0.01476 0.00338 0.0
H1263 H 0.6322 0.96971 0.01029 0.0
H1264 H 0.60588 0.04945 0.06337 0.0
H1265 H 0.56029 0.94095 0.07824 0.0
H1266 H 0.5878 0.04435 0.97557 0.0
H1267 H 0.63019 0.05606 0.98857 0.0
H1268 H 0.60662 0.07236 0.01037 0.0
H1269 H 0.53445 0.91622 0.99355 0.0
H1270 H 0.53557 0.90146 0.0344 0.0
H1271 H 0.57238 0.91716 0.00805 0.0
C1272 C 0.61688 0.59128 0.10583 0.0
C1273 C 0.59069 0.58872 0.08555 0.0
C1274 C 0.61297 0.58916 0.13984 0.0
C1275 C 0.58216 0.5845 0.1537 0.0
C1276 C 0.55449 0.57879 0.13329 0.0
C1277 C 0.55908 0.58091 0.09925 0.0
C1278 C 0.64293 0.5949 0.16091 0.0
C1279 C 0.52116 0.57337 0.14732 0.0
C1280 C 0.57891 0.57314 0.24539 0.0
C1281 C 0.59456 0.60737 0.25566 0.0
C1282 C 0.57223 0.56471 0.21215 0.0
C1283 C 0.58142 0.59121 0.18899 0.0
C1284 C 0.59461 0.62543 0.19954 0.0
C1285 C 0.60106 0.6331 0.23283 0.0
C1286 C 0.55775 0.52792 0.2017 0.0
C1287 C 0.60435 0.65437 0.17549 0.0
H1288 H 0.64114 0.59669 0.09524 0.0
H1289 H 0.53862 0.57859 0.0836 0.0
H1290 H 0.65411 0.62036 0.17287 0.0
H1291 H 0.63442 0.57535 0.18057 0.0
H1292 H 0.66334 0.59401 0.14643 0.0
H1293 H 0.50025 0.56239 0.12889 0.0
H1294 H 0.5133 0.55617 0.16894 0.0
H1295 H 0.52454 0.59833 0.15555 0.0
H1296 H 0.5735 0.55308 0.26304 0.0
H1297 H 0.61263 0.65954 0.24075 0.0
H1298 H 0.57866 0.52438 0.19167 0.0
H1299 H 0.5384 0.52109 0.18207 0.0
H1300 H 0.54582 0.50993 0.22255 0.0
H1301 H 0.62691 0.6584 0.16099 0.0
H1302 H 0.61084 0.6788 0.18791 0.0
H1303 H 0.58314 0.6479 0.15804 0.0
C1304 C 0.00968 0.63026 0.27162 0.0
C1305 C 0.99145 0.60306 0.24988 0.0
C1306 C 0.00989 0.62436 0.30517 0.0
C1307 C 0.99154 0.59038 0.31716 0.0
C1308 C 0.97471 0.56262 0.29521 0.0
C1309 C 0.97475 0.56931 0.26167 0.0
C1310 C 0.0283 0.65468 0.32794 0.0
C1311 C 0.95531 0.52609 0.30723 0.0
C1312 C 0.01398 0.58735 0.4053 0.0
C1313 C 0.98978 0.59331 0.42101 0.0
C1314 C 0.0131 0.58304 0.37128 0.0
C1315 C 0.9875 0.58484 0.3529 0.0
C1316 C 0.9611 0.58742 0.36901 0.0
C1317 C 0.96253 0.59157 0.403 0.0
C1318 C 0.0413 0.57969 0.35486 0.0
C1319 C 0.93318 0.58914 0.35017 0.0
H1320 H 0.02289 0.65638 0.26262 0.0
H1321 H 0.96089 0.54815 0.24488 0.0
H1322 H 0.00944 0.65658 0.344 0.0
H1323 H 0.04618 0.65126 0.34402 0.0
H1324 H 0.04304 0.67923 0.31444 0.0
H1325 H 0.94869 0.50743 0.2869 0.0
H1326 H 0.97045 0.52137 0.32578 0.0
H1327 H 0.93122 0.5213 0.3192 0.0
H1328 H 0.03481 0.58811 0.41921 0.0
H1329 H 0.9434 0.59554 0.41513 0.0
H1330 H 0.06032 0.6048 0.34432 0.0
H1331 H 0.03105 0.56095 0.33446 0.0
H1332 H 0.05474 0.57165 0.37243 0.0
H1333 H 0.94417 0.61418 0.3374 0.0
H1334 H 0.91219 0.58643 0.36644 0.0
H1335 H 0.92217 0.56882 0.33123 0.0
C1336 C 0.45192 0.04778 0.56643 0.0
C1337 C 0.42911 0.01663 0.58147 0.0
C1338 C 0.45517 0.05001 0.53225 0.0
C1339 C 0.43539 0.02031 0.51318 0.0
C1340 C 0.41595 0.9881 0.52862 0.0
C1341 C 0.41282 0.98669 0.56272 0.0
C1342 C 0.47646 0.08474 0.51663 0.0
C1343 C 0.39514 0.9557 0.5091 0.0
C1344 C 0.39004 0.02594 0.43817 0.0
C1345 C 0.40815 0.02092 0.41299 0.0
C1346 C 0.39996 0.02762 0.47081 0.0
C1347 C 0.42845 0.02369 0.47842 0.0
C1348 C 0.44776 0.02006 0.45305 0.0
C1349 C 0.43741 0.01885 0.42043 0.0
C1350 C 0.379 0.03215 0.49723 0.0
C1351 C 0.47818 0.01572 0.46034 0.0
H1352 H 0.46478 0.07095 0.58098 0.0
H1353 H 0.3957 0.96247 0.57451 0.0
H1354 H 0.48949 0.08306 0.49424 0.0
H1355 H 0.45949 0.09485 0.50934 0.0
H1356 H 0.49601 0.10328 0.53386 0.0
H1357 H 0.3867 0.93242 0.52435 0.0
H1358 H 0.37202 0.95535 0.49928 0.0
H1359 H 0.41004 0.95461 0.48796 0.0
H1360 H 0.36768 0.02803 0.4324 0.0
H1361 H 0.45146 0.01497 0.40092 0.0
H1362 H 0.39583 0.05363 0.51368 0.0
H1363 H 0.36595 0.00862 0.51242 0.0
H1364 H 0.35923 0.03734 0.48695 0.0
H1365 H 0.49449 0.03381 0.47968 0.0
H1366 H 0.49406 0.01969 0.43817 0.0
H1367 H 0.46905 0.98941 0.46958 0.0
loop_
_geom_bond_atom_site_label_1
_geom_bond_atom_site_label_2
_geom_bond_distance
_geom_bond_site_symmetry_2
_ccdc_geom_bond_type
Co0 O3 1.970 . S
Co0 N17 1.989 . S
Co0 O25 1.967 . S
Co0 O32 1.920 . S
Co1 O4 1.966 . S
Co1 N10 2.022 . S
Co1 N18 1.993 . S
Co1 O26 1.941 . S
C2 O3 1.258 . S
C2 O4 1.263 . S
O3 Co0 1.970 . S
O3 C2 1.258 . S
O4 Co1 1.966 . S
O4 C2 1.263 . S
C5 O6 1.235 . S
C5 O32 1.289 . S
O6 C5 1.235 . S
C7 C9 1.400 . S
C7 N10 1.351 . S
C7 C12 1.501 . S
C8 C9 1.387 . S
C8 N11 1.341 . S
C9 C7 1.400 . S
C9 C8 1.387 . S
N10 Co1 2.022 . S
N10 C7 1.351 . S
N10 N11 1.365 . S
N11 C8 1.341 . S
N11 N10 1.365 . S
N11 H31 0.862 . S
C12 C7 1.501 . S
C12 H13 0.961 . S
C12 H14 0.961 . S
C12 H15 0.960 . S
H13 C12 0.961 . S
H14 C12 0.961 . S
H15 C12 0.960 . S
C16 N17 1.342 . S
C16 C20 1.401 . S
C16 C21 1.499 . S
N17 Co0 1.989 . S
N17 C16 1.342 . S
N17 N18 1.388 . S
N18 Co1 1.993 . S
N18 N17 1.388 . S
N18 C19 1.346 . S
C19 N18 1.346 . S
C19 C20 1.396 . S
C19 C29 1.510 . S
C20 C16 1.401 . S
C20 C19 1.396 . S
C21 C16 1.499 . S
C21 H22 0.959 . S
C21 H23 0.960 . S
C21 H24 0.961 . S
H22 C21 0.959 . S
H23 C21 0.960 . S
H24 C21 0.961 . S
O25 Co0 1.967 . S
O25 C33 1.258 . S
O26 Co1 1.941 . S
O26 C33 1.266 . S
H27 C29 0.959 . S
H28 C29 0.961 . S
C29 C19 1.510 . S
C29 H27 0.959 . S
C29 H28 0.961 . S
C29 H30 0.960 . S
H30 C29 0.960 . S
H31 N11 0.862 . S
O32 Co0 1.920 . S
O32 C5 1.289 . S
C33 O25 1.258 . S
C33 O26 1.266 . S
Co34 O37 1.970 . S
Co34 N51 1.989 . S
Co34 O59 1.967 1_455 S
Co34 O66 1.920 . S
Co35 O38 1.966 . S
Co35 N44 2.022 . S
Co35 N52 1.993 . S
Co35 O60 1.941 . S
C36 O37 1.258 . S
C36 O38 1.263 . S
O37 Co34 1.970 . S
O37 C36 1.258 . S
O38 Co35 1.966 . S
O38 C36 1.263 . S
C39 O40 1.235 . S
C39 O66 1.289 . S
O40 C39 1.235 . S
C41 C43 1.400 . S
C41 N44 1.351 . S
C41 C46 1.501 . S
C42 C43 1.387 . S
C42 N45 1.341 . S
C43 C41 1.400 . S
C43 C42 1.387 . S
N44 Co35 2.022 . S
N44 C41 1.351 . S
N44 N45 1.365 . S
N45 C42 1.341 . S
N45 N44 1.365 . S
N45 H65 0.862 . S
C46 C41 1.501 . S
C46 H47 0.961 . S
C46 H48 0.961 . S
C46 H49 0.960 . S
H47 C46 0.961 . S
H48 C46 0.961 . S
H49 C46 0.960 . S
C50 N51 1.342 . S
C50 C54 1.401 . S
C50 C55 1.499 . S
N51 Co34 1.989 . S
N51 C50 1.342 . S
N51 N52 1.388 . S
N52 Co35 1.993 . S
N52 N51 1.388 . S
N52 C53 1.346 . S
C53 N52 1.346 . S
C53 C54 1.396 . S
C53 C63 1.510 . S
C54 C50 1.401 . S
C54 C53 1.396 . S
C55 C50 1.499 . S
C55 H56 0.959 . S
C55 H57 0.960 . S
C55 H58 0.961 . S
H56 C55 0.959 . S
H57 C55 0.960 . S
H58 C55 0.961 . S
O59 Co34 1.967 1_655 S
O59 C67 1.258 . S
O60 Co35 1.941 . S
O60 C67 1.266 1_455 S
H61 C63 0.959 . S
H62 C63 0.961 . S
C63 C53 1.510 . S
C63 H61 0.959 . S
C63 H62 0.961 . S
C63 H64 0.960 . S
H64 C63 0.960 . S
H65 N45 0.862 . S
O66 Co34 1.920 . S
O66 C39 1.289 . S
C67 O59 1.258 . S
C67 O60 1.266 1_655 S
Co68 O71 1.970 . S
Co68 N85 1.989 . S
Co68 O93 1.967 1_545 S
Co68 O100 1.920 . S
Co69 O72 1.966 . S
Co69 N78 2.022 . S
Co69 N86 1.993 . S
Co69 O94 1.941 . S
C70 O71 1.258 . S
C70 O72 1.263 . S
O71 Co68 1.970 . S
O71 C70 1.258 . S
O72 Co69 1.966 . S
O72 C70 1.263 . S
C73 O74 1.235 . S
C73 O100 1.289 . S
O74 C73 1.235 . S
C75 C77 1.400 . S
C75 N78 1.351 . S
C75 C80 1.501 . S
C76 C77 1.387 . S
C76 N79 1.341 . S
C77 C75 1.400 . S
C77 C76 1.387 . S
N78 Co69 2.022 . S
N78 C75 1.351 . S
N78 N79 1.365 . S
N79 C76 1.341 . S
N79 N78 1.365 . S
N79 H99 0.862 . S
C80 C75 1.501 . S
C80 H81 0.961 . S
C80 H82 0.961 . S
C80 H83 0.960 . S
H81 C80 0.961 . S
H82 C80 0.961 . S
H83 C80 0.960 . S
C84 N85 1.342 . S
C84 C88 1.401 . S
C84 C89 1.499 . S
N85 Co68 1.989 . S
N85 C84 1.342 . S
N85 N86 1.388 . S
N86 Co69 1.993 . S
N86 N85 1.388 . S
N86 C87 1.346 . S
C87 N86 1.346 . S
C87 C88 1.396 . S
C87 C97 1.510 . S
C88 C84 1.401 . S
C88 C87 1.396 . S
C89 C84 1.499 . S
C89 H90 0.959 . S
C89 H91 0.960 . S
C89 H92 0.961 . S
H90 C89 0.959 . S
H91 C89 0.960 . S
H92 C89 0.961 . S
O93 Co68 1.967 1_565 S
O93 C101 1.258 . S
O94 Co69 1.941 . S
O94 C101 1.266 1_545 S
H95 C97 0.959 . S
H96 C97 0.961 . S
C97 C87 1.510 . S
C97 H95 0.959 . S
C97 H96 0.961 . S
C97 H98 0.960 . S
H98 C97 0.960 . S
H99 N79 0.862 . S
O100 Co68 1.920 . S
O100 C73 1.289 . S
C101 O93 1.258 . S
C101 O94 1.266 1_565 S
Co102 O105 1.970 . S
Co102 N119 1.989 . S
Co102 O127 1.967 . S
Co102 O134 1.920 1_556 S
Co103 O106 1.966 . S
Co103 N112 2.022 . S
Co103 N120 1.993 . S
Co103 O128 1.941 . S
C104 O105 1.258 . S
C104 O106 1.263 . S
O105 Co102 1.970 . S
O105 C104 1.258 . S
O106 Co103 1.966 . S
O106 C104 1.263 . S
C107 O108 1.235 . S
C107 O134 1.289 . S
O108 C107 1.235 . S
C109 C111 1.400 . S
C109 N112 1.351 . S
C109 C114 1.501 . S
C110 C111 1.387 . S
C110 N113 1.341 . S
C111 C109 1.400 . S
C111 C110 1.387 . S
N112 Co103 2.022 . S
N112 C109 1.351 . S
N112 N113 1.365 . S
N113 C110 1.341 . S
N113 N112 1.365 . S
N113 H133 0.862 . S
C114 C109 1.501 . S
C114 H115 0.961 . S
C114 H116 0.961 . S
C114 H117 0.960 . S
H115 C114 0.961 . S
H116 C114 0.961 . S
H117 C114 0.960 . S
C118 N119 1.342 1_554 S
C118 C122 1.401 . S
C118 C123 1.499 . S
N119 Co102 1.989 . S
N119 C118 1.342 1_556 S
N119 N120 1.388 . S
N120 Co103 1.993 . S
N120 N119 1.388 . S
N120 C121 1.346 . S
C121 N120 1.346 . S
C121 C122 1.396 1_556 S
C121 C131 1.510 . S
C122 C118 1.401 . S
C122 C121 1.396 1_554 S
C123 C118 1.499 . S
C123 H124 0.959 . S
C123 H125 0.960 . S
C123 H126 0.961 . S
H124 C123 0.959 . S
H125 C123 0.960 . S
H126 C123 0.961 . S
O127 Co102 1.967 . S
O127 C135 1.258 . S
O128 Co103 1.941 . S
O128 C135 1.266 . S
H129 C131 0.959 . S
H130 C131 0.961 . S
C131 C121 1.510 . S
C131 H129 0.959 . S
C131 H130 0.961 . S
C131 H132 0.960 . S
H132 C131 0.960 . S
H133 N113 0.862 . S
O134 Co102 1.920 1_554 S
O134 C107 1.289 . S
C135 O127 1.258 . S
C135 O128 1.266 . S
Co136 O139 1.970 . S
Co136 N153 1.989 . S
Co136 O161 1.967 1_655 S
Co136 O168 1.920 . S
Co137 O140 1.966 . S
Co137 N146 2.022 . S
Co137 N154 1.993 . S
Co137 O162 1.941 . S
C138 O139 1.258 . S
C138 O140 1.263 . S
O139 Co136 1.970 . S
O139 C138 1.258 . S
O140 Co137 1.966 . S
O140 C138 1.263 . S
C141 O142 1.235 . S
C141 O168 1.289 . S
O142 C141 1.235 . S
C143 C145 1.400 . S
C143 N146 1.351 . S
C143 C148 1.501 . S
C144 C145 1.387 . S
C144 N147 1.341 . S
C145 C143 1.400 . S
C145 C144 1.387 . S
N146 Co137 2.022 . S
N146 C143 1.351 . S
N146 N147 1.365 . S
N147 C144 1.341 . S
N147 N146 1.365 . S
N147 H167 0.862 . S
C148 C143 1.501 . S
C148 H149 0.961 . S
C148 H150 0.961 . S
C148 H151 0.960 . S
H149 C148 0.961 . S
H150 C148 0.961 . S
H151 C148 0.960 . S
C152 N153 1.342 . S
C152 C156 1.401 . S
C152 C157 1.499 . S
N153 Co136 1.989 . S
N153 C152 1.342 . S
N153 N154 1.388 . S
N154 Co137 1.993 . S
N154 N153 1.388 . S
N154 C155 1.346 . S
C155 N154 1.346 . S
C155 C156 1.396 . S
C155 C165 1.510 . S
C156 C152 1.401 . S
C156 C155 1.396 . S
C157 C152 1.499 . S
C157 H158 0.959 . S
C157 H159 0.960 . S
C157 H160 0.961 . S
H158 C157 0.959 . S
H159 C157 0.960 . S
H160 C157 0.961 . S
O161 Co136 1.967 1_455 S
O161 C169 1.258 . S
O162 Co137 1.941 . S
O162 C169 1.266 1_655 S
H163 C165 0.959 . S
H164 C165 0.961 . S
C165 C155 1.510 . S
C165 H163 0.959 . S
C165 H164 0.961 . S
C165 H166 0.960 . S
H166 C165 0.960 . S
H167 N147 0.862 . S
O168 Co136 1.920 . S
O168 C141 1.289 . S
C169 O161 1.258 . S
C169 O162 1.266 1_455 S
Co170 O173 1.970 . S
Co170 N187 1.989 . S
Co170 O195 1.967 1_565 S
Co170 O202 1.920 . S
Co171 O174 1.966 . S
Co171 N180 2.022 . S
Co171 N188 1.993 . S
Co171 O196 1.941 . S
C172 O173 1.258 . S
C172 O174 1.263 . S
O173 Co170 1.970 . S
O173 C172 1.258 . S
O174 Co171 1.966 . S
O174 C172 1.263 . S
C175 O176 1.235 . S
C175 O202 1.289 . S
O176 C175 1.235 . S
C177 C179 1.400 . S
C177 N180 1.351 . S
C177 C182 1.501 . S
C178 C179 1.387 . S
C178 N181 1.341 . S
C179 C177 1.400 . S
C179 C178 1.387 . S
N180 Co171 2.022 . S
N180 C177 1.351 . S
N180 N181 1.365 . S
N181 C178 1.341 . S
N181 N180 1.365 . S
N181 H201 0.862 . S
C182 C177 1.501 . S
C182 H183 0.961 . S
C182 H184 0.961 . S
C182 H185 0.960 . S
H183 C182 0.961 . S
H184 C182 0.961 . S
H185 C182 0.960 . S
C186 N187 1.342 . S
C186 C190 1.401 . S
C186 C191 1.499 . S
N187 Co170 1.989 . S
N187 C186 1.342 . S
N187 N188 1.388 . S
N188 Co171 1.993 . S
N188 N187 1.388 . S
N188 C189 1.346 . S
C189 N188 1.346 . S
C189 C190 1.396 . S
C189 C199 1.510 . S
C190 C186 1.401 . S
C190 C189 1.396 . S
C191 C186 1.499 . S
C191 H192 0.959 . S
C191 H193 0.960 . S
C191 H194 0.961 . S
H192 C191 0.959 . S
H193 C191 0.960 . S
H194 C191 0.961 . S
O195 Co170 1.967 1_545 S
O195 C203 1.258 . S
O196 Co171 1.941 . S
O196 C203 1.266 1_565 S
H197 C199 0.959 . S
H198 C199 0.961 . S
C199 C189 1.510 . S
C199 H197 0.959 . S
C199 H198 0.961 . S
C199 H200 0.960 . S
H200 C199 0.960 . S
H201 N181 0.862 . S
O202 Co170 1.920 . S
O202 C175 1.289 . S
C203 O195 1.258 . S
C203 O196 1.266 1_545 S
Co204 O207 1.970 . S
Co204 N221 1.989 . S
Co204 O229 1.967 . S
Co204 O236 1.920 . S
Co205 O208 1.966 . S
Co205 N214 2.022 . S
Co205 N222 1.993 . S
Co205 O230 1.941 . S
C206 O207 1.258 . S
C206 O208 1.263 . S
O207 Co204 1.970 . S
O207 C206 1.258 . S
O208 Co205 1.966 . S
O208 C206 1.263 . S
C209 O210 1.235 . S
C209 O236 1.289 . S
O210 C209 1.235 . S
C211 C213 1.400 . S
C211 N214 1.351 . S
C211 C216 1.501 . S
C212 C213 1.387 . S
C212 N215 1.341 . S
C213 C211 1.400 . S
C213 C212 1.387 . S
N214 Co205 2.022 . S
N214 C211 1.351 . S
N214 N215 1.365 . S
N215 C212 1.341 . S
N215 N214 1.365 . S
N215 H235 0.862 . S
C216 C211 1.501 . S
C216 H217 0.961 . S
C216 H218 0.961 . S
C216 H219 0.960 . S
H217 C216 0.961 . S
H218 C216 0.961 . S
H219 C216 0.960 . S
C220 N221 1.342 . S
C220 C224 1.401 . S
C220 C225 1.499 . S
N221 Co204 1.989 . S
N221 C220 1.342 . S
N221 N222 1.388 . S
N222 Co205 1.993 . S
N222 N221 1.388 . S
N222 C223 1.346 . S
C223 N222 1.346 . S
C223 C224 1.396 . S
C223 C233 1.510 . S
C224 C220 1.401 . S
C224 C223 1.396 . S
C225 C220 1.499 . S
C225 H226 0.959 . S
C225 H227 0.960 . S
C225 H228 0.961 . S
H226 C225 0.959 . S
H227 C225 0.960 . S
H228 C225 0.961 . S
O229 Co204 1.967 . S
O229 C237 1.258 . S
O230 Co205 1.941 . S
O230 C237 1.266 . S
H231 C233 0.959 . S
H232 C233 0.961 . S
C233 C223 1.510 . S
C233 H231 0.959 . S
C233 H232 0.961 . S
C233 H234 0.960 . S
H234 C233 0.960 . S
H235 N215 0.862 . S
O236 Co204 1.920 . S
O236 C209 1.289 . S
C237 O229 1.258 . S
C237 O230 1.266 . S
Co238 O241 1.970 . S
Co238 N255 1.989 . S
Co238 O263 1.967 1_455 S
Co238 O270 1.920 . S
Co239 O242 1.966 . S
Co239 N248 2.022 . S
Co239 N256 1.993 . S
Co239 O264 1.941 . S
C240 O241 1.258 . S
C240 O242 1.263 . S
O241 Co238 1.970 . S
O241 C240 1.258 . S
O242 Co239 1.966 . S
O242 C240 1.263 . S
C243 O244 1.235 . S
C243 O270 1.289 . S
O244 C243 1.235 . S
C245 C247 1.400 . S
C245 N248 1.351 . S
C245 C250 1.501 . S
C246 C247 1.387 . S
C246 N249 1.341 . S
C247 C245 1.400 . S
C247 C246 1.387 . S
N248 Co239 2.022 . S
N248 C245 1.351 . S
N248 N249 1.365 . S
N249 C246 1.341 . S
N249 N248 1.365 . S
N249 H269 0.862 . S
C250 C245 1.501 . S
C250 H251 0.961 . S
C250 H252 0.961 . S
C250 H253 0.960 . S
H251 C250 0.961 . S
H252 C250 0.961 . S
H253 C250 0.960 . S
C254 N255 1.342 . S
C254 C258 1.401 . S
C254 C259 1.499 . S
N255 Co238 1.989 . S
N255 C254 1.342 . S
N255 N256 1.388 . S
N256 Co239 1.993 . S
N256 N255 1.388 . S
N256 C257 1.346 . S
C257 N256 1.346 . S
C257 C258 1.396 . S
C257 C267 1.510 . S
C258 C254 1.401 . S
C258 C257 1.396 . S
C259 C254 1.499 . S
C259 H260 0.959 . S
C259 H261 0.960 . S
C259 H262 0.961 . S
H260 C259 0.959 . S
H261 C259 0.960 . S
H262 C259 0.961 . S
O263 Co238 1.967 1_655 S
O263 C271 1.258 . S
O264 Co239 1.941 . S
O264 C271 1.266 1_455 S
H265 C267 0.959 . S
H266 C267 0.961 . S
C267 C257 1.510 . S
C267 H265 0.959 . S
C267 H266 0.961 . S
C267 H268 0.960 . S
H268 C267 0.960 . S
H269 N249 0.862 . S
O270 Co238 1.920 . S
O270 C243 1.289 . S
C271 O263 1.258 . S
C271 O264 1.266 1_655 S
Co272 O275 1.970 . S
Co272 N289 1.989 . S
Co272 O297 1.967 1_545 S
Co272 O304 1.920 . S
Co273 O276 1.966 . S
Co273 N282 2.022 . S
Co273 N290 1.993 . S
Co273 O298 1.941 . S
C274 O275 1.258 . S
C274 O276 1.263 . S
O275 Co272 1.970 . S
O275 C274 1.258 . S
O276 Co273 1.966 . S
O276 C274 1.263 . S
C277 O278 1.235 . S
C277 O304 1.289 . S
O278 C277 1.235 . S
C279 C281 1.400 . S
C279 N282 1.351 . S
C279 C284 1.501 . S
C280 C281 1.387 . S
C280 N283 1.341 . S
C281 C279 1.400 . S
C281 C280 1.387 . S
N282 Co273 2.022 . S
N282 C279 1.351 . S
N282 N283 1.365 . S
N283 C280 1.341 . S
N283 N282 1.365 . S
N283 H303 0.862 . S
C284 C279 1.501 . S
C284 H285 0.961 . S
C284 H286 0.961 . S
C284 H287 0.960 . S
H285 C284 0.961 . S
H286 C284 0.961 . S
H287 C284 0.960 . S
C288 N289 1.342 . S
C288 C292 1.401 . S
C288 C293 1.499 . S
N289 Co272 1.989 . S
N289 C288 1.342 . S
N289 N290 1.388 . S
N290 Co273 1.993 . S
N290 N289 1.388 . S
N290 C291 1.346 . S
C291 N290 1.346 . S
C291 C292 1.396 . S
C291 C301 1.510 . S
C292 C288 1.401 . S
C292 C291 1.396 . S
C293 C288 1.499 . S
C293 H294 0.959 . S
C293 H295 0.960 . S
C293 H296 0.961 . S
H294 C293 0.959 . S
H295 C293 0.960 . S
H296 C293 0.961 . S
O297 Co272 1.967 1_565 S
O297 C305 1.258 . S
O298 Co273 1.941 . S
O298 C305 1.266 1_545 S
H299 C301 0.959 . S
H300 C301 0.961 . S
C301 C291 1.510 . S
C301 H299 0.959 . S
C301 H300 0.961 . S
C301 H302 0.960 . S
H302 C301 0.960 . S
H303 N283 0.862 . S
O304 Co272 1.920 . S
O304 C277 1.289 . S
C305 O297 1.258 . S
C305 O298 1.266 1_565 S
Co306 O309 1.970 . S
Co306 N323 1.989 . S
Co306 O331 1.967 . S
Co306 O338 1.920 . S
Co307 O310 1.966 . S
Co307 N316 2.022 . S
Co307 N324 1.993 . S
Co307 O332 1.941 . S
C308 O309 1.258 . S
C308 O310 1.263 . S
O309 Co306 1.970 . S
O309 C308 1.258 . S
O310 Co307 1.966 . S
O310 C308 1.263 . S
C311 O312 1.235 . S
C311 O338 1.289 . S
O312 C311 1.235 . S
C313 C315 1.400 . S
C313 N316 1.351 . S
C313 C318 1.501 . S
C314 C315 1.387 . S
C314 N317 1.341 . S
C315 C313 1.400 . S
C315 C314 1.387 . S
N316 Co307 2.022 . S
N316 C313 1.351 . S
N316 N317 1.365 . S
N317 C314 1.341 . S
N317 N316 1.365 . S
N317 H337 0.862 . S
C318 C313 1.501 . S
C318 H319 0.961 . S
C318 H320 0.961 . S
C318 H321 0.960 . S
H319 C318 0.961 . S
H320 C318 0.961 . S
H321 C318 0.960 . S
C322 N323 1.342 . S
C322 C326 1.401 . S
C322 C327 1.499 . S
N323 Co306 1.989 . S
N323 C322 1.342 . S
N323 N324 1.388 . S
N324 Co307 1.993 . S
N324 N323 1.388 . S
N324 C325 1.346 . S
C325 N324 1.346 . S
C325 C326 1.396 . S
C325 C335 1.510 . S
C326 C322 1.401 . S
C326 C325 1.396 . S
C327 C322 1.499 . S
C327 H328 0.959 . S
C327 H329 0.960 . S
C327 H330 0.961 . S
H328 C327 0.959 . S
H329 C327 0.960 . S
H330 C327 0.961 . S
O331 Co306 1.967 . S
O331 C339 1.258 . S
O332 Co307 1.941 . S
O332 C339 1.266 . S
H333 C335 0.959 . S
H334 C335 0.961 . S
C335 C325 1.510 . S
C335 H333 0.959 . S
C335 H334 0.961 . S
C335 H336 0.960 . S
H336 C335 0.960 . S
H337 N317 0.862 . S
O338 Co306 1.920 . S
O338 C311 1.289 . S
C339 O331 1.258 . S
C339 O332 1.266 . S
Co340 O343 1.970 . S
Co340 N357 1.989 . S
Co340 O365 1.967 1_655 S
Co340 O372 1.920 1_554 S
Co341 O344 1.966 . S
Co341 N350 2.022 . S
Co341 N358 1.993 . S
Co341 O366 1.941 . S
C342 O343 1.258 . S
C342 O344 1.263 . S
O343 Co340 1.970 . S
O343 C342 1.258 . S
O344 Co341 1.966 . S
O344 C342 1.263 . S
C345 O346 1.235 . S
C345 O372 1.289 . S
O346 C345 1.235 . S
C347 C349 1.400 . S
C347 N350 1.351 . S
C347 C352 1.501 . S
C348 C349 1.387 . S
C348 N351 1.341 . S
C349 C347 1.400 . S
C349 C348 1.387 . S
N350 Co341 2.022 . S
N350 C347 1.351 . S
N350 N351 1.365 . S
N351 C348 1.341 . S
N351 N350 1.365 . S
N351 H371 0.862 . S
C352 C347 1.501 . S
C352 H353 0.961 . S
C352 H354 0.961 . S
C352 H355 0.960 . S
H353 C352 0.961 . S
H354 C352 0.961 . S
H355 C352 0.960 . S
C356 N357 1.342 1_556 S
C356 C360 1.401 . S
C356 C361 1.499 . S
N357 Co340 1.989 . S
N357 C356 1.342 1_554 S
N357 N358 1.388 . S
N358 Co341 1.993 . S
N358 N357 1.388 . S
N358 C359 1.346 . S
C359 N358 1.346 . S
C359 C360 1.396 1_554 S
C359 C369 1.510 . S
C360 C356 1.401 . S
C360 C359 1.396 1_556 S
C361 C356 1.499 . S
C361 H362 0.959 . S
C361 H363 0.960 . S
C361 H364 0.961 . S
H362 C361 0.959 . S
H363 C361 0.960 . S
H364 C361 0.961 . S
O365 Co340 1.967 1_455 S
O365 C373 1.258 . S
O366 Co341 1.941 . S
O366 C373 1.266 1_655 S
H367 C369 0.959 . S
H368 C369 0.961 . S
C369 C359 1.510 . S
C369 H367 0.959 . S
C369 H368 0.961 . S
C369 H370 0.960 . S
H370 C369 0.960 . S
H371 N351 0.862 . S
O372 Co340 1.920 1_556 S
O372 C345 1.289 . S
C373 O365 1.258 . S
C373 O366 1.266 1_455 S
Co374 O377 1.970 . S
Co374 N391 1.989 . S
Co374 O399 1.967 1_565 S
Co374 O406 1.920 . S
Co375 O378 1.966 . S
Co375 N384 2.022 . S
Co375 N392 1.993 . S
Co375 O400 1.941 . S
C376 O377 1.258 . S
C376 O378 1.263 . S
O377 Co374 1.970 . S
O377 C376 1.258 . S
O378 Co375 1.966 . S
O378 C376 1.263 . S
C379 O380 1.235 . S
C379 O406 1.289 . S
O380 C379 1.235 . S
C381 C383 1.400 . S
C381 N384 1.351 . S
C381 C386 1.501 . S
C382 C383 1.387 . S
C382 N385 1.341 . S
C383 C381 1.400 . S
C383 C382 1.387 . S
N384 Co375 2.022 . S
N384 C381 1.351 . S
N384 N385 1.365 . S
N385 C382 1.341 . S
N385 N384 1.365 . S
N385 H405 0.862 . S
C386 C381 1.501 . S
C386 H387 0.961 . S
C386 H388 0.961 . S
C386 H389 0.960 . S
H387 C386 0.961 . S
H388 C386 0.961 . S
H389 C386 0.960 . S
C390 N391 1.342 . S
C390 C394 1.401 . S
C390 C395 1.499 . S
N391 Co374 1.989 . S
N391 C390 1.342 . S
N391 N392 1.388 . S
N392 Co375 1.993 . S
N392 N391 1.388 . S
N392 C393 1.346 . S
C393 N392 1.346 . S
C393 C394 1.396 . S
C393 C403 1.510 . S
C394 C390 1.401 . S
C394 C393 1.396 . S
C395 C390 1.499 . S
C395 H396 0.959 . S
C395 H397 0.960 . S
C395 H398 0.961 . S
H396 C395 0.959 . S
H397 C395 0.960 . S
H398 C395 0.961 . S
O399 Co374 1.967 1_545 S
O399 C407 1.258 . S
O400 Co375 1.941 . S
O400 C407 1.266 1_565 S
H401 C403 0.959 . S
H402 C403 0.961 . S
C403 C393 1.510 . S
C403 H401 0.959 . S
C403 H402 0.961 . S
C403 H404 0.960 . S
H404 C403 0.960 . S
H405 N385 0.862 . S
O406 Co374 1.920 . S
O406 C379 1.289 . S
C407 O399 1.258 . S
C407 O400 1.266 1_545 S
C408 C409 1.391 . S
C408 C410 1.394 . S
C408 H424 0.931 . S
C409 C408 1.391 . S
C409 C413 1.376 . S
C410 C408 1.394 . S
C410 C411 1.369 . S
C410 C414 1.531 . S
C411 C410 1.369 . S
C411 C412 1.410 . S
C411 C419 1.503 . S
C412 C411 1.410 . S
C412 C413 1.392 . S
C412 C415 1.511 . S
C413 C409 1.376 . S
C413 C412 1.392 . S
C413 H425 0.929 . S
C414 C410 1.531 . S
C414 H426 0.960 . S
C414 H427 0.962 . S
C414 H428 0.960 . S
C415 C412 1.511 . S
C415 H429 0.961 . S
C415 H430 0.961 . S
C415 H431 0.961 . S
C416 C417 1.370 . S
C416 C418 1.363 . S
C416 H432 0.931 . S
C417 C416 1.370 . S
C417 C421 1.408 . S
C418 C416 1.363 . S
C418 C419 1.370 . S
C418 C422 1.524 . S
C419 C411 1.503 . S
C419 C418 1.370 . S
C419 C420 1.403 . S
C420 C419 1.403 . S
C420 C421 1.404 . S
C420 C423 1.539 . S
C421 C417 1.408 . S
C421 C420 1.404 . S
C421 H433 0.930 . S
C422 C418 1.524 . S
C422 H434 0.956 . S
C422 H435 0.961 . S
C422 H436 0.961 . S
C423 C420 1.539 . S
C423 H437 0.958 . S
C423 H438 0.961 . S
C423 H439 0.960 . S
H424 C408 0.931 . S
H425 C413 0.929 . S
H426 C414 0.960 . S
H427 C414 0.962 . S
H428 C414 0.960 . S
H429 C415 0.961 . S
H430 C415 0.961 . S
H431 C415 0.961 . S
H432 C416 0.931 . S
H433 C421 0.930 . S
H434 C422 0.956 . S
H435 C422 0.961 . S
H436 C422 0.961 . S
H437 C423 0.958 . S
H438 C423 0.961 . S
H439 C423 0.960 . S
C440 C441 1.391 . S
C440 C442 1.394 . S
C440 H456 0.931 . S
C441 C440 1.391 . S
C441 C445 1.376 . S
C442 C440 1.394 . S
C442 C443 1.369 . S
C442 C446 1.531 . S
C443 C442 1.369 . S
C443 C444 1.410 . S
C443 C451 1.503 . S
C444 C443 1.410 . S
C444 C445 1.392 . S
C444 C447 1.511 . S
C445 C441 1.376 . S
C445 C444 1.392 . S
C445 H457 0.929 . S
C446 C442 1.531 . S
C446 H458 0.960 . S
C446 H459 0.962 . S
C446 H460 0.960 . S
C447 C444 1.511 . S
C447 H461 0.961 . S
C447 H462 0.961 . S
C447 H463 0.961 . S
C448 C449 1.370 . S
C448 C450 1.363 . S
C448 H464 0.931 . S
C449 C448 1.370 . S
C449 C453 1.408 . S
C450 C448 1.363 . S
C450 C451 1.370 . S
C450 C454 1.524 . S
C451 C443 1.503 . S
C451 C450 1.370 . S
C451 C452 1.403 . S
C452 C451 1.403 . S
C452 C453 1.404 . S
C452 C455 1.539 . S
C453 C449 1.408 . S
C453 C452 1.404 . S
C453 H465 0.930 . S
C454 C450 1.524 . S
C454 H466 0.956 . S
C454 H467 0.961 . S
C454 H468 0.961 . S
C455 C452 1.539 . S
C455 H469 0.958 . S
C455 H470 0.961 . S
C455 H471 0.960 . S
H456 C440 0.931 . S
H457 C445 0.929 . S
H458 C446 0.960 . S
H459 C446 0.962 . S
H460 C446 0.960 . S
H461 C447 0.961 . S
H462 C447 0.961 . S
H463 C447 0.961 . S
H464 C448 0.931 . S
H465 C453 0.930 . S
H466 C454 0.956 . S
H467 C454 0.961 . S
H468 C454 0.961 . S
H469 C455 0.958 . S
H470 C455 0.961 . S
H471 C455 0.960 . S
C472 C473 1.391 . S
C472 C474 1.394 . S
C472 H488 0.931 . S
C473 C472 1.391 . S
C473 C477 1.376 . S
C474 C472 1.394 . S
C474 C475 1.369 . S
C474 C478 1.531 . S
C475 C474 1.369 . S
C475 C476 1.410 . S
C475 C483 1.503 . S
C476 C475 1.410 . S
C476 C477 1.392 . S
C476 C479 1.511 . S
C477 C473 1.376 . S
C477 C476 1.392 . S
C477 H489 0.929 . S
C478 C474 1.531 . S
C478 H490 0.960 . S
C478 H491 0.962 . S
C478 H492 0.960 . S
C479 C476 1.511 . S
C479 H493 0.961 . S
C479 H494 0.961 . S
C479 H495 0.961 . S
C480 C481 1.370 . S
C480 C482 1.363 . S
C480 H496 0.931 . S
C481 C480 1.370 . S
C481 C485 1.408 . S
C482 C480 1.363 . S
C482 C483 1.370 . S
C482 C486 1.524 . S
C483 C475 1.503 . S
C483 C482 1.370 . S
C483 C484 1.403 . S
C484 C483 1.403 . S
C484 C485 1.404 . S
C484 C487 1.539 . S
C485 C481 1.408 . S
C485 C484 1.404 . S
C485 H497 0.930 . S
C486 C482 1.524 . S
C486 H498 0.956 . S
C486 H499 0.961 . S
C486 H500 0.961 . S
C487 C484 1.539 . S
C487 H501 0.958 . S
C487 H502 0.961 . S
C487 H503 0.960 . S
H488 C472 0.931 . S
H489 C477 0.929 . S
H490 C478 0.960 . S
H491 C478 0.962 . S
H492 C478 0.960 . S
H493 C479 0.961 . S
H494 C479 0.961 . S
H495 C479 0.961 . S
H496 C480 0.931 . S
H497 C485 0.930 . S
H498 C486 0.956 . S
H499 C486 0.961 . S
H500 C486 0.961 . S
H501 C487 0.958 . S
H502 C487 0.961 . S
H503 C487 0.960 . S
C504 C505 1.391 . S
C504 C506 1.394 . S
C504 H520 0.931 . S
C505 C504 1.391 . S
C505 C509 1.376 . S
C506 C504 1.394 . S
C506 C507 1.369 . S
C506 C510 1.531 . S
C507 C506 1.369 . S
C507 C508 1.410 . S
C507 C515 1.503 . S
C508 C507 1.410 . S
C508 C509 1.392 . S
C508 C511 1.511 . S
C509 C505 1.376 . S
C509 C508 1.392 . S
C509 H521 0.929 . S
C510 C506 1.531 . S
C510 H522 0.960 . S
C510 H523 0.962 . S
C510 H524 0.960 . S
C511 C508 1.511 . S
C511 H525 0.961 . S
C511 H526 0.961 . S
C511 H527 0.961 . S
C512 C513 1.370 . S
C512 C514 1.363 . S
C512 H528 0.931 . S
C513 C512 1.370 . S
C513 C517 1.408 . S
C514 C512 1.363 . S
C514 C515 1.370 . S
C514 C518 1.524 . S
C515 C507 1.503 . S
C515 C514 1.370 . S
C515 C516 1.403 . S
C516 C515 1.403 . S
C516 C517 1.404 . S
C516 C519 1.539 . S
C517 C513 1.408 . S
C517 C516 1.404 . S
C517 H529 0.930 . S
C518 C514 1.524 . S
C518 H530 0.956 . S
C518 H531 0.961 . S
C518 H532 0.961 . S
C519 C516 1.539 . S
C519 H533 0.958 . S
C519 H534 0.961 . S
C519 H535 0.960 . S
H520 C504 0.931 . S
H521 C509 0.929 . S
H522 C510 0.960 . S
H523 C510 0.962 . S
H524 C510 0.960 . S
H525 C511 0.961 . S
H526 C511 0.961 . S
H527 C511 0.961 . S
H528 C512 0.931 . S
H529 C517 0.930 . S
H530 C518 0.956 . S
H531 C518 0.961 . S
H532 C518 0.961 . S
H533 C519 0.958 . S
H534 C519 0.961 . S
H535 C519 0.960 . S
C536 C537 1.391 . S
C536 C538 1.394 . S
C536 H552 0.931 . S
C537 C536 1.391 . S
C537 C541 1.376 . S
C538 C536 1.394 . S
C538 C539 1.369 . S
C538 C542 1.531 . S
C539 C538 1.369 . S
C539 C540 1.410 . S
C539 C547 1.503 . S
C540 C539 1.410 . S
C540 C541 1.392 . S
C540 C543 1.511 . S
C541 C537 1.376 . S
C541 C540 1.392 . S
C541 H553 0.929 . S
C542 C538 1.531 . S
C542 H554 0.960 . S
C542 H555 0.962 . S
C542 H556 0.960 . S
C543 C540 1.511 . S
C543 H557 0.961 . S
C543 H558 0.961 . S
C543 H559 0.961 . S
C544 C545 1.370 . S
C544 C546 1.363 . S
C544 H560 0.931 . S
C545 C544 1.370 . S
C545 C549 1.408 . S
C546 C544 1.363 . S
C546 C547 1.370 . S
C546 C550 1.524 . S
C547 C539 1.503 . S
C547 C546 1.370 . S
C547 C548 1.403 . S
C548 C547 1.403 . S
C548 C549 1.404 . S
C548 C551 1.539 . S
C549 C545 1.408 . S
C549 C548 1.404 . S
C549 H561 0.930 . S
C550 C546 1.524 . S
C550 H562 0.956 . S
C550 H563 0.961 . S
C550 H564 0.961 . S
C551 C548 1.539 . S
C551 H565 0.958 . S
C551 H566 0.961 . S
C551 H567 0.960 . S
H552 C536 0.931 . S
H553 C541 0.929 . S
H554 C542 0.960 . S
H555 C542 0.962 . S
H556 C542 0.960 . S
H557 C543 0.961 . S
H558 C543 0.961 . S
H559 C543 0.961 . S
H560 C544 0.931 . S
H561 C549 0.930 . S
H562 C550 0.956 . S
H563 C550 0.961 . S
H564 C550 0.961 . S
H565 C551 0.958 . S
H566 C551 0.961 . S
H567 C551 0.960 . S
C568 C569 1.391 . S
C568 C570 1.394 . S
C568 H584 0.931 . S
C569 C568 1.391 . S
C569 C573 1.376 . S
C570 C568 1.394 . S
C570 C571 1.369 . S
C570 C574 1.531 . S
C571 C570 1.369 . S
C571 C572 1.410 . S
C571 C579 1.503 . S
C572 C571 1.410 . S
C572 C573 1.392 . S
C572 C575 1.511 . S
C573 C569 1.376 . S
C573 C572 1.392 . S
C573 H585 0.929 . S
C574 C570 1.531 . S
C574 H586 0.960 . S
C574 H587 0.962 . S
C574 H588 0.960 . S
C575 C572 1.511 . S
C575 H589 0.961 . S
C575 H590 0.961 . S
C575 H591 0.961 . S
C576 C577 1.370 . S
C576 C578 1.363 . S
C576 H592 0.931 . S
C577 C576 1.370 . S
C577 C581 1.408 . S
C578 C576 1.363 . S
C578 C579 1.370 . S
C578 C582 1.524 . S
C579 C571 1.503 . S
C579 C578 1.370 . S
C579 C580 1.403 . S
C580 C579 1.403 . S
C580 C581 1.404 . S
C580 C583 1.539 . S
C581 C577 1.408 . S
C581 C580 1.404 . S
C581 H593 0.930 . S
C582 C578 1.524 . S
C582 H594 0.956 . S
C582 H595 0.961 . S
C582 H596 0.961 . S
C583 C580 1.539 . S
C583 H597 0.958 . S
C583 H598 0.961 . S
C583 H599 0.960 . S
H584 C568 0.931 . S
H585 C573 0.929 . S
H586 C574 0.960 . S
H587 C574 0.962 . S
H588 C574 0.960 . S
H589 C575 0.961 . S
H590 C575 0.961 . S
H591 C575 0.961 . S
H592 C576 0.931 . S
H593 C581 0.930 . S
H594 C582 0.956 . S
H595 C582 0.961 . S
H596 C582 0.961 . S
H597 C583 0.958 . S
H598 C583 0.961 . S
H599 C583 0.960 . S
C600 C601 1.391 . S
C600 C602 1.394 . S
C600 H616 0.931 . S
C601 C600 1.391 . S
C601 C605 1.376 . S
C602 C600 1.394 . S
C602 C603 1.369 . S
C602 C606 1.531 . S
C603 C602 1.369 . S
C603 C604 1.410 . S
C603 C611 1.503 . S
C604 C603 1.410 . S
C604 C605 1.392 . S
C604 C607 1.511 . S
C605 C601 1.376 . S
C605 C604 1.392 . S
C605 H617 0.929 . S
C606 C602 1.531 . S
C606 H618 0.960 . S
C606 H619 0.962 . S
C606 H620 0.960 . S
C607 C604 1.511 . S
C607 H621 0.961 . S
C607 H622 0.961 . S
C607 H623 0.961 . S
C608 C609 1.370 . S
C608 C610 1.363 . S
C608 H624 0.931 . S
C609 C608 1.370 . S
C609 C613 1.408 . S
C610 C608 1.363 . S
C610 C611 1.370 . S
C610 C614 1.524 . S
C611 C603 1.503 . S
C611 C610 1.370 . S
C611 C612 1.403 . S
C612 C611 1.403 . S
C612 C613 1.404 . S
C612 C615 1.539 . S
C613 C609 1.408 . S
C613 C612 1.404 . S
C613 H625 0.930 . S
C614 C610 1.524 . S
C614 H626 0.956 . S
C614 H627 0.961 . S
C614 H628 0.961 . S
C615 C612 1.539 . S
C615 H629 0.958 . S
C615 H630 0.961 . S
C615 H631 0.960 . S
H616 C600 0.931 . S
H617 C605 0.929 . S
H618 C606 0.960 . S
H619 C606 0.962 . S
H620 C606 0.960 . S
H621 C607 0.961 . S
H622 C607 0.961 . S
H623 C607 0.961 . S
H624 C608 0.931 . S
H625 C613 0.930 . S
H626 C614 0.956 . S
H627 C614 0.961 . S
H628 C614 0.961 . S
H629 C615 0.958 . S
H630 C615 0.961 . S
H631 C615 0.960 . S
C632 C633 1.391 . S
C632 C634 1.394 . S
C632 H648 0.931 . S
C633 C632 1.391 . S
C633 C637 1.376 . S
C634 C632 1.394 . S
C634 C635 1.369 . S
C634 C638 1.531 . S
C635 C634 1.369 . S
C635 C636 1.410 . S
C635 C643 1.503 . S
C636 C635 1.410 . S
C636 C637 1.392 . S
C636 C639 1.511 . S
C637 C633 1.376 . S
C637 C636 1.392 . S
C637 H649 0.929 . S
C638 C634 1.531 . S
C638 H650 0.960 . S
C638 H651 0.962 . S
C638 H652 0.960 . S
C639 C636 1.511 . S
C639 H653 0.961 . S
C639 H654 0.961 . S
C639 H655 0.961 . S
C640 C641 1.370 . S
C640 C642 1.363 . S
C640 H656 0.931 . S
C641 C640 1.370 . S
C641 C645 1.408 . S
C642 C640 1.363 . S
C642 C643 1.370 . S
C642 C646 1.524 . S
C643 C635 1.503 . S
C643 C642 1.370 . S
C643 C644 1.403 . S
C644 C643 1.403 . S
C644 C645 1.404 . S
C644 C647 1.539 . S
C645 C641 1.408 . S
C645 C644 1.404 . S
C645 H657 0.930 . S
C646 C642 1.524 . S
C646 H658 0.956 . S
C646 H659 0.961 . S
C646 H660 0.961 . S
C647 C644 1.539 . S
C647 H661 0.958 . S
C647 H662 0.961 . S
C647 H663 0.960 . S
H648 C632 0.931 . S
H649 C637 0.929 . S
H650 C638 0.960 . S
H651 C638 0.962 . S
H652 C638 0.960 . S
H653 C639 0.961 . S
H654 C639 0.961 . S
H655 C639 0.961 . S
H656 C640 0.931 . S
H657 C645 0.930 . S
H658 C646 0.956 . S
H659 C646 0.961 . S
H660 C646 0.961 . S
H661 C647 0.958 . S
H662 C647 0.961 . S
H663 C647 0.960 . S
C664 C665 1.391 . S
C664 C666 1.394 . S
C664 H680 0.931 . S
C665 C664 1.391 . S
C665 C669 1.376 . S
C666 C664 1.394 . S
C666 C667 1.369 . S
C666 C670 1.531 . S
C667 C666 1.369 . S
C667 C668 1.410 . S
C667 C675 1.503 . S
C668 C667 1.410 . S
C668 C669 1.392 . S
C668 C671 1.511 . S
C669 C665 1.376 . S
C669 C668 1.392 . S
C669 H681 0.929 . S
C670 C666 1.531 . S
C670 H682 0.960 . S
C670 H683 0.962 . S
C670 H684 0.960 . S
C671 C668 1.511 . S
C671 H685 0.961 . S
C671 H686 0.961 . S
C671 H687 0.961 . S
C672 C673 1.370 . S
C672 C674 1.363 . S
C672 H688 0.931 . S
C673 C672 1.370 . S
C673 C677 1.408 . S
C674 C672 1.363 . S
C674 C675 1.370 . S
C674 C678 1.524 . S
C675 C667 1.503 . S
C675 C674 1.370 . S
C675 C676 1.403 . S
C676 C675 1.403 . S
C676 C677 1.404 . S
C676 C679 1.539 . S
C677 C673 1.408 . S
C677 C676 1.404 . S
C677 H689 0.930 . S
C678 C674 1.524 . S
C678 H690 0.956 . S
C678 H691 0.961 . S
C678 H692 0.961 . S
C679 C676 1.539 . S
C679 H693 0.958 . S
C679 H694 0.961 . S
C679 H695 0.960 . S
H680 C664 0.931 . S
H681 C669 0.929 . S
H682 C670 0.960 . S
H683 C670 0.962 . S
H684 C670 0.960 . S
H685 C671 0.961 . S
H686 C671 0.961 . S
H687 C671 0.961 . S
H688 C672 0.931 . S
H689 C677 0.930 . S
H690 C678 0.956 . S
H691 C678 0.961 . S
H692 C678 0.961 . S
H693 C679 0.958 . S
H694 C679 0.961 . S
H695 C679 0.960 . S
C696 C697 1.391 . S
C696 C698 1.394 . S
C696 H712 0.931 . S
C697 C696 1.391 . S
C697 C701 1.376 . S
C698 C696 1.394 . S
C698 C699 1.369 . S
C698 C702 1.531 . S
C699 C698 1.369 . S
C699 C700 1.410 . S
C699 C707 1.503 . S
C700 C699 1.410 . S
C700 C701 1.392 . S
C700 C703 1.511 . S
C701 C697 1.376 . S
C701 C700 1.392 . S
C701 H713 0.929 . S
C702 C698 1.531 . S
C702 H714 0.960 . S
C702 H715 0.962 . S
C702 H716 0.960 . S
C703 C700 1.511 . S
C703 H717 0.961 . S
C703 H718 0.961 . S
C703 H719 0.961 . S
C704 C705 1.370 . S
C704 C706 1.363 . S
C704 H720 0.931 . S
C705 C704 1.370 . S
C705 C709 1.408 . S
C706 C704 1.363 . S
C706 C707 1.370 . S
C706 C710 1.524 . S
C707 C699 1.503 . S
C707 C706 1.370 . S
C707 C708 1.403 . S
C708 C707 1.403 . S
C708 C709 1.404 . S
C708 C711 1.539 . S
C709 C705 1.408 . S
C709 C708 1.404 . S
C709 H721 0.930 . S
C710 C706 1.524 . S
C710 H722 0.956 . S
C710 H723 0.961 . S
C710 H724 0.961 . S
C711 C708 1.539 . S
C711 H725 0.958 . S
C711 H726 0.961 . S
C711 H727 0.960 . S
H712 C696 0.931 . S
H713 C701 0.929 . S
H714 C702 0.960 . S
H715 C702 0.962 . S
H716 C702 0.960 . S
H717 C703 0.961 . S
H718 C703 0.961 . S
H719 C703 0.961 . S
H720 C704 0.931 . S
H721 C709 0.930 . S
H722 C710 0.956 . S
H723 C710 0.961 . S
H724 C710 0.961 . S
H725 C711 0.958 . S
H726 C711 0.961 . S
H727 C711 0.960 . S
C728 C729 1.391 . S
C728 C730 1.394 . S
C728 H744 0.931 . S
C729 C728 1.391 . S
C729 C733 1.376 . S
C730 C728 1.394 . S
C730 C731 1.369 . S
C730 C734 1.531 . S
C731 C730 1.369 . S
C731 C732 1.410 . S
C731 C739 1.503 . S
C732 C731 1.410 . S
C732 C733 1.392 . S
C732 C735 1.511 . S
C733 C729 1.376 . S
C733 C732 1.392 . S
C733 H745 0.929 . S
C734 C730 1.531 . S
C734 H746 0.960 . S
C734 H747 0.962 . S
C734 H748 0.960 . S
C735 C732 1.511 . S
C735 H749 0.961 . S
C735 H750 0.961 . S
C735 H751 0.961 1_556 S
C736 C737 1.370 . S
C736 C738 1.363 . S
C736 H752 0.931 . S
C737 C736 1.370 . S
C737 C741 1.408 1_556 S
C738 C736 1.363 . S
C738 C739 1.370 . S
C738 C742 1.524 . S
C739 C731 1.503 . S
C739 C738 1.370 . S
C739 C740 1.403 1_556 S
C740 C739 1.403 1_554 S
C740 C741 1.404 . S
C740 C743 1.539 . S
C741 C737 1.408 1_554 S
C741 C740 1.404 . S
C741 H753 0.930 . S
C742 C738 1.524 . S
C742 H754 0.956 . S
C742 H755 0.961 . S
C742 H756 0.961 . S
C743 C740 1.539 . S
C743 H757 0.958 . S
C743 H758 0.961 . S
C743 H759 0.960 . S
H744 C728 0.931 . S
H745 C733 0.929 . S
H746 C734 0.960 . S
H747 C734 0.962 . S
H748 C734 0.960 . S
H749 C735 0.961 . S
H750 C735 0.961 . S
H751 C735 0.961 1_554 S
H752 C736 0.931 . S
H753 C741 0.930 . S
H754 C742 0.956 . S
H755 C742 0.961 . S
H756 C742 0.961 . S
H757 C743 0.958 . S
H758 C743 0.961 . S
H759 C743 0.960 . S
C760 C761 1.391 . S
C760 C762 1.394 . S
C760 H776 0.931 . S
C761 C760 1.391 . S
C761 C765 1.376 . S
C762 C760 1.394 . S
C762 C763 1.369 . S
C762 C766 1.531 . S
C763 C762 1.369 . S
C763 C764 1.410 . S
C763 C771 1.503 . S
C764 C763 1.410 . S
C764 C765 1.392 . S
C764 C767 1.511 . S
C765 C761 1.376 . S
C765 C764 1.392 . S
C765 H777 0.929 . S
C766 C762 1.531 . S
C766 H778 0.960 . S
C766 H779 0.962 . S
C766 H780 0.960 . S
C767 C764 1.511 . S
C767 H781 0.961 . S
C767 H782 0.961 . S
C767 H783 0.961 . S
C768 C769 1.370 . S
C768 C770 1.363 . S
C768 H784 0.931 . S
C769 C768 1.370 . S
C769 C773 1.408 . S
C770 C768 1.363 . S
C770 C771 1.370 . S
C770 C774 1.524 . S
C771 C763 1.503 . S
C771 C770 1.370 . S
C771 C772 1.403 . S
C772 C771 1.403 . S
C772 C773 1.404 . S
C772 C775 1.539 . S
C773 C769 1.408 . S
C773 C772 1.404 . S
C773 H785 0.930 . S
C774 C770 1.524 . S
C774 H786 0.956 . S
C774 H787 0.961 . S
C774 H788 0.961 . S
C775 C772 1.539 . S
C775 H789 0.958 . S
C775 H790 0.961 . S
C775 H791 0.960 . S
H776 C760 0.931 . S
H777 C765 0.929 . S
H778 C766 0.960 . S
H779 C766 0.962 . S
H780 C766 0.960 . S
H781 C767 0.961 . S
H782 C767 0.961 . S
H783 C767 0.961 . S
H784 C768 0.931 . S
H785 C773 0.930 . S
H786 C774 0.956 . S
H787 C774 0.961 . S
H788 C774 0.961 . S
H789 C775 0.958 . S
H790 C775 0.961 . S
H791 C775 0.960 . S
C792 C793 1.391 . S
C792 C794 1.394 . S
C792 H808 0.931 . S
C793 C792 1.391 . S
C793 C797 1.376 . S
C794 C792 1.394 . S
C794 C795 1.369 . S
C794 C798 1.531 . S
C795 C794 1.369 . S
C795 C796 1.410 . S
C795 C803 1.503 . S
C796 C795 1.410 . S
C796 C797 1.392 . S
C796 C799 1.511 . S
C797 C793 1.376 . S
C797 C796 1.392 . S
C797 H809 0.929 . S
C798 C794 1.531 . S
C798 H810 0.960 . S
C798 H811 0.962 . S
C798 H812 0.960 . S
C799 C796 1.511 . S
C799 H813 0.961 . S
C799 H814 0.961 . S
C799 H815 0.961 . S
C800 C801 1.370 . S
C800 C802 1.363 . S
C800 H816 0.931 . S
C801 C800 1.370 . S
C801 C805 1.408 . S
C802 C800 1.363 . S
C802 C803 1.370 . S
C802 C806 1.524 . S
C803 C795 1.503 . S
C803 C802 1.370 . S
C803 C804 1.403 . S
C804 C803 1.403 . S
C804 C805 1.404 . S
C804 C807 1.539 . S
C805 C801 1.408 . S
C805 C804 1.404 . S
C805 H817 0.930 . S
C806 C802 1.524 . S
C806 H818 0.956 . S
C806 H819 0.961 . S
C806 H820 0.961 . S
C807 C804 1.539 . S
C807 H821 0.958 . S
C807 H822 0.961 . S
C807 H823 0.960 . S
H808 C792 0.931 . S
H809 C797 0.929 . S
H810 C798 0.960 . S
H811 C798 0.962 . S
H812 C798 0.960 . S
H813 C799 0.961 . S
H814 C799 0.961 . S
H815 C799 0.961 . S
H816 C800 0.931 . S
H817 C805 0.930 . S
H818 C806 0.956 . S
H819 C806 0.961 . S
H820 C806 0.961 . S
H821 C807 0.958 . S
H822 C807 0.961 . S
H823 C807 0.960 . S
C824 C825 1.391 . S
C824 C826 1.394 . S
C824 H840 0.931 . S
C825 C824 1.391 . S
C825 C829 1.376 . S
C826 C824 1.394 . S
C826 C827 1.369 . S
C826 C830 1.531 . S
C827 C826 1.369 . S
C827 C828 1.410 . S
C827 C835 1.503 . S
C828 C827 1.410 . S
C828 C829 1.392 . S
C828 C831 1.511 . S
C829 C825 1.376 . S
C829 C828 1.392 . S
C829 H841 0.929 . S
C830 C826 1.531 . S
C830 H842 0.960 . S
C830 H843 0.962 . S
C830 H844 0.960 . S
C831 C828 1.511 . S
C831 H845 0.961 . S
C831 H846 0.961 . S
C831 H847 0.961 . S
C832 C833 1.370 . S
C832 C834 1.363 . S
C832 H848 0.931 . S
C833 C832 1.370 . S
C833 C837 1.408 . S
C834 C832 1.363 . S
C834 C835 1.370 . S
C834 C838 1.524 . S
C835 C827 1.503 . S
C835 C834 1.370 . S
C835 C836 1.403 . S
C836 C835 1.403 . S
C836 C837 1.404 . S
C836 C839 1.539 . S
C837 C833 1.408 . S
C837 C836 1.404 . S
C837 H849 0.930 . S
C838 C834 1.524 . S
C838 H850 0.956 . S
C838 H851 0.961 . S
C838 H852 0.961 . S
C839 C836 1.539 . S
C839 H853 0.958 . S
C839 H854 0.961 . S
C839 H855 0.960 . S
H840 C824 0.931 . S
H841 C829 0.929 . S
H842 C830 0.960 . S
H843 C830 0.962 . S
H844 C830 0.960 . S
H845 C831 0.961 . S
H846 C831 0.961 . S
H847 C831 0.961 . S
H848 C832 0.931 . S
H849 C837 0.930 . S
H850 C838 0.956 . S
H851 C838 0.961 . S
H852 C838 0.961 . S
H853 C839 0.958 . S
H854 C839 0.961 . S
H855 C839 0.960 . S
C856 C857 1.391 . S
C856 C858 1.394 . S
C856 H872 0.931 . S
C857 C856 1.391 . S
C857 C861 1.376 . S
C858 C856 1.394 . S
C858 C859 1.369 . S
C858 C862 1.531 . S
C859 C858 1.369 . S
C859 C860 1.410 . S
C859 C867 1.503 . S
C860 C859 1.410 . S
C860 C861 1.392 . S
C860 C863 1.511 . S
C861 C857 1.376 . S
C861 C860 1.392 . S
C861 H873 0.929 . S
C862 C858 1.531 . S
C862 H874 0.960 . S
C862 H875 0.962 . S
C862 H876 0.960 . S
C863 C860 1.511 . S
C863 H877 0.961 . S
C863 H878 0.961 . S
C863 H879 0.961 . S
C864 C865 1.370 . S
C864 C866 1.363 . S
C864 H880 0.931 . S
C865 C864 1.370 . S
C865 C869 1.408 . S
C866 C864 1.363 . S
C866 C867 1.370 . S
C866 C870 1.524 . S
C867 C859 1.503 . S
C867 C866 1.370 . S
C867 C868 1.403 . S
C868 C867 1.403 . S
C868 C869 1.404 . S
C868 C871 1.539 . S
C869 C865 1.408 . S
C869 C868 1.404 . S
C869 H881 0.930 . S
C870 C866 1.524 . S
C870 H882 0.956 . S
C870 H883 0.961 . S
C870 H884 0.961 . S
C871 C868 1.539 . S
C871 H885 0.958 . S
C871 H886 0.961 . S
C871 H887 0.960 . S
H872 C856 0.931 . S
H873 C861 0.929 . S
H874 C862 0.960 . S
H875 C862 0.962 . S
H876 C862 0.960 . S
H877 C863 0.961 . S
H878 C863 0.961 . S
H879 C863 0.961 . S
H880 C864 0.931 . S
H881 C869 0.930 . S
H882 C870 0.956 . S
H883 C870 0.961 . S
H884 C870 0.961 . S
H885 C871 0.958 . S
H886 C871 0.961 . S
H887 C871 0.960 . S
C888 C889 1.391 . S
C888 C890 1.394 . S
C888 H904 0.931 . S
C889 C888 1.391 . S
C889 C893 1.376 . S
C890 C888 1.394 . S
C890 C891 1.369 . S
C890 C894 1.531 . S
C891 C890 1.369 . S
C891 C892 1.410 . S
C891 C899 1.503 . S
C892 C891 1.410 . S
C892 C893 1.392 . S
C892 C895 1.511 1_554 S
C893 C889 1.376 . S
C893 C892 1.392 . S
C893 H905 0.929 . S
C894 C890 1.531 . S
C894 H906 0.960 . S
C894 H907 0.962 . S
C894 H908 0.960 . S
C895 C892 1.511 1_556 S
C895 H909 0.953 1_556 S
C895 H910 0.963 . S
C895 H911 0.961 . S
C896 C897 1.370 . S
C896 C898 1.363 . S
C896 H912 0.931 . S
C897 C896 1.370 . S
C897 C901 1.408 1_554 S
C898 C896 1.363 . S
C898 C899 1.370 . S
C898 C902 1.524 . S
C899 C891 1.503 . S
C899 C898 1.370 . S
C899 C900 1.403 1_554 S
C900 C899 1.403 1_556 S
C900 C901 1.404 . S
C900 C903 1.539 . S
C901 C897 1.408 1_556 S
C901 C900 1.404 . S
C901 H913 0.930 . S
C902 C898 1.524 . S
C902 H914 0.956 . S
C902 H915 0.961 . S
C902 H916 0.961 . S
C903 C900 1.539 . S
C903 H917 0.958 . S
C903 H918 0.961 . S
C903 H919 0.960 . S
H904 C888 0.931 . S
H905 C893 0.929 . S
H906 C894 0.960 . S
H907 C894 0.962 . S
H908 C894 0.960 . S
H909 C895 0.953 1_554 S
H910 C895 0.963 . S
H911 C895 0.961 . S
H912 C896 0.931 . S
H913 C901 0.930 . S
H914 C902 0.956 . S
H915 C902 0.961 . S
H916 C902 0.961 . S
H917 C903 0.958 . S
H918 C903 0.961 . S
H919 C903 0.960 . S
C920 C921 1.391 . S
C920 C922 1.394 . S
C920 H936 0.931 . S
C921 C920 1.391 . S
C921 C925 1.376 . S
C922 C920 1.394 . S
C922 C923 1.369 . S
C922 C926 1.531 . S
C923 C922 1.369 . S
C923 C924 1.410 . S
C923 C931 1.503 . S
C924 C923 1.410 . S
C924 C925 1.392 . S
C924 C927 1.511 . S
C925 C921 1.376 . S
C925 C924 1.392 . S
C925 H937 0.929 . S
C926 C922 1.531 . S
C926 H938 0.960 . S
C926 H939 0.962 . S
C926 H940 0.960 . S
C927 C924 1.511 . S
C927 H941 0.961 . S
C927 H942 0.961 . S
C927 H943 0.961 . S
C928 C929 1.370 . S
C928 C930 1.363 . S
C928 H944 0.931 . S
C929 C928 1.370 . S
C929 C933 1.408 . S
C930 C928 1.363 . S
C930 C931 1.370 . S
C930 C934 1.524 . S
C931 C923 1.503 . S
C931 C930 1.370 . S
C931 C932 1.403 . S
C932 C931 1.403 . S
C932 C933 1.404 . S
C932 C935 1.539 . S
C933 C929 1.408 . S
C933 C932 1.404 . S
C933 H945 0.930 . S
C934 C930 1.524 . S
C934 H946 0.956 . S
C934 H947 0.961 . S
C934 H948 0.961 . S
C935 C932 1.539 . S
C935 H949 0.958 . S
C935 H950 0.961 . S
C935 H951 0.960 . S
H936 C920 0.931 . S
H937 C925 0.929 . S
H938 C926 0.960 . S
H939 C926 0.962 . S
H940 C926 0.960 . S
H941 C927 0.961 . S
H942 C927 0.961 . S
H943 C927 0.961 . S
H944 C928 0.931 . S
H945 C933 0.930 . S
H946 C934 0.956 . S
H947 C934 0.961 . S
H948 C934 0.961 . S
H949 C935 0.958 . S
H950 C935 0.961 . S
H951 C935 0.960 . S
C952 C953 1.391 . S
C952 C954 1.394 . S
C952 H968 0.931 . S
C953 C952 1.391 . S
C953 C957 1.376 . S
C954 C952 1.394 . S
C954 C955 1.369 . S
C954 C958 1.531 . S
C955 C954 1.369 . S
C955 C956 1.410 . S
C955 C963 1.503 . S
C956 C955 1.410 . S
C956 C957 1.392 . S
C956 C959 1.511 . S
C957 C953 1.376 . S
C957 C956 1.392 . S
C957 H969 0.929 . S
C958 C954 1.531 . S
C958 H970 0.960 . S
C958 H971 0.962 . S
C958 H972 0.960 . S
C959 C956 1.511 . S
C959 H973 0.961 . S
C959 H974 0.961 . S
C959 H975 0.961 . S
C960 C961 1.370 . S
C960 C962 1.363 . S
C960 H976 0.931 . S
C961 C960 1.370 . S
C961 C965 1.408 . S
C962 C960 1.363 . S
C962 C963 1.370 . S
C962 C966 1.524 . S
C963 C955 1.503 . S
C963 C962 1.370 . S
C963 C964 1.403 . S
C964 C963 1.403 . S
C964 C965 1.404 . S
C964 C967 1.539 . S
C965 C961 1.408 . S
C965 C964 1.404 . S
C965 H977 0.930 . S
C966 C962 1.524 . S
C966 H978 0.956 . S
C966 H979 0.961 . S
C966 H980 0.961 . S
C967 C964 1.539 . S
C967 H981 0.958 . S
C967 H982 0.961 . S
C967 H983 0.960 . S
H968 C952 0.931 . S
H969 C957 0.929 . S
H970 C958 0.960 . S
H971 C958 0.962 . S
H972 C958 0.960 . S
H973 C959 0.961 . S
H974 C959 0.961 . S
H975 C959 0.961 . S
H976 C960 0.931 . S
H977 C965 0.930 . S
H978 C966 0.956 . S
H979 C966 0.961 . S
H980 C966 0.961 . S
H981 C967 0.958 . S
H982 C967 0.961 . S
H983 C967 0.960 . S
C984 C985 1.391 . S
C984 C986 1.394 . S
C984 H1000 0.931 . S
C985 C984 1.391 . S
C985 C989 1.376 . S
C986 C984 1.394 . S
C986 C987 1.369 . S
C986 C990 1.531 . S
C987 C986 1.369 . S
C987 C988 1.410 . S
C987 C995 1.503 . S
C988 C987 1.410 . S
C988 C989 1.392 . S
C988 C991 1.511 . S
C989 C985 1.376 . S
C989 C988 1.392 . S
C989 H1001 0.929 . S
C990 C986 1.531 . S
C990 H1002 0.960 . S
C990 H1003 0.962 . S
C990 H1004 0.960 . S
C991 C988 1.511 . S
C991 H1005 0.961 . S
C991 H1006 0.961 . S
C991 H1007 0.961 . S
C992 C993 1.370 . S
C992 C994 1.363 . S
C992 H1008 0.931 . S
C993 C992 1.370 . S
C993 C997 1.408 . S
C994 C992 1.363 . S
C994 C995 1.370 . S
C994 C998 1.524 . S
C995 C987 1.503 . S
C995 C994 1.370 . S
C995 C996 1.403 . S
C996 C995 1.403 . S
C996 C997 1.404 . S
C996 C999 1.539 . S
C997 C993 1.408 . S
C997 C996 1.404 . S
C997 H1009 0.930 . S
C998 C994 1.524 . S
C998 H1010 0.956 . S
C998 H1011 0.961 . S
C998 H1012 0.961 . S
C999 C996 1.539 . S
C999 H1013 0.958 . S
C999 H1014 0.961 . S
C999 H1015 0.960 . S
H1000 C984 0.931 . S
H1001 C989 0.929 . S
H1002 C990 0.960 . S
H1003 C990 0.962 . S
H1004 C990 0.960 . S
H1005 C991 0.961 . S
H1006 C991 0.961 . S
H1007 C991 0.961 . S
H1008 C992 0.931 . S
H1009 C997 0.930 . S
H1010 C998 0.956 . S
H1011 C998 0.961 . S
H1012 C998 0.961 . S
H1013 C999 0.958 . S
H1014 C999 0.961 . S
H1015 C999 0.960 . S
C1016 C1017 1.391 . S
C1016 C1018 1.394 . S
C1016 H1032 0.931 1_455 S
C1017 C1016 1.391 . S
C1017 C1021 1.376 . S
C1018 C1016 1.394 . S
C1018 C1019 1.369 . S
C1018 C1022 1.531 1_455 S
C1019 C1018 1.369 . S
C1019 C1020 1.410 . S
C1019 C1027 1.503 . S
C1020 C1019 1.410 . S
C1020 C1021 1.392 . S
C1020 C1023 1.511 . S
C1021 C1017 1.376 . S
C1021 C1020 1.392 . S
C1021 H1033 0.929 . S
C1022 C1018 1.531 1_655 S
C1022 H1034 0.960 . S
C1022 H1035 0.962 . S
C1022 H1036 0.960 . S
C1023 C1020 1.511 . S
C1023 H1037 0.961 . S
C1023 H1038 0.961 . S
C1023 H1039 0.961 . S
C1024 C1025 1.370 . S
C1024 C1026 1.363 . S
C1024 H1040 0.931 . S
C1025 C1024 1.370 . S
C1025 C1029 1.408 . S
C1026 C1024 1.363 . S
C1026 C1027 1.370 . S
C1026 C1030 1.524 . S
C1027 C1019 1.503 . S
C1027 C1026 1.370 . S
C1027 C1028 1.403 . S
C1028 C1027 1.403 . S
C1028 C1029 1.404 . S
C1028 C1031 1.539 . S
C1029 C1025 1.408 . S
C1029 C1028 1.404 . S
C1029 H1041 0.930 . S
C1030 C1026 1.524 . S
C1030 H1042 0.956 . S
C1030 H1043 0.961 . S
C1030 H1044 0.961 . S
C1031 C1028 1.539 . S
C1031 H1045 0.958 . S
C1031 H1046 0.961 . S
C1031 H1047 0.960 . S
H1032 C1016 0.931 1_655 S
H1033 C1021 0.929 . S
H1034 C1022 0.960 . S
H1035 C1022 0.962 . S
H1036 C1022 0.960 . S
H1037 C1023 0.961 . S
H1038 C1023 0.961 . S
H1039 C1023 0.961 . S
H1040 C1024 0.931 . S
H1041 C1029 0.930 . S
H1042 C1030 0.956 . S
H1043 C1030 0.961 . S
H1044 C1030 0.961 . S
H1045 C1031 0.958 . S
H1046 C1031 0.961 . S
H1047 C1031 0.960 . S
C1048 C1049 1.391 . S
C1048 C1050 1.394 . S
C1048 H1064 0.931 . S
C1049 C1048 1.391 . S
C1049 C1053 1.376 . S
C1050 C1048 1.394 . S
C1050 C1051 1.369 . S
C1050 C1054 1.531 . S
C1051 C1050 1.369 . S
C1051 C1052 1.410 . S
C1051 C1059 1.503 . S
C1052 C1051 1.410 . S
C1052 C1053 1.392 . S
C1052 C1055 1.511 1_545 S
C1053 C1049 1.376 . S
C1053 C1052 1.392 . S
C1053 H1065 0.929 . S
C1054 C1050 1.531 . S
C1054 H1066 0.960 . S
C1054 H1067 0.962 . S
C1054 H1068 0.960 . S
C1055 C1052 1.511 1_565 S
C1055 H1069 0.961 1_565 S
C1055 H1070 0.959 1_565 S
C1055 H1071 0.962 . S
C1056 C1057 1.370 . S
C1056 C1058 1.363 . S
C1056 H1072 0.931 . S
C1057 C1056 1.370 . S
C1057 C1061 1.408 . S
C1058 C1056 1.363 . S
C1058 C1059 1.370 . S
C1058 C1062 1.524 . S
C1059 C1051 1.503 . S
C1059 C1058 1.370 . S
C1059 C1060 1.403 . S
C1060 C1059 1.403 . S
C1060 C1061 1.404 . S
C1060 C1063 1.539 1_545 S
C1061 C1057 1.408 . S
C1061 C1060 1.404 . S
C1061 H1073 0.930 1_545 S
C1062 C1058 1.524 . S
C1062 H1074 0.956 . S
C1062 H1075 0.961 . S
C1062 H1076 0.961 . S
C1063 C1060 1.539 1_565 S
C1063 H1077 0.958 . S
C1063 H1078 0.961 . S
C1063 H1079 0.960 . S
H1064 C1048 0.931 . S
H1065 C1053 0.929 . S
H1066 C1054 0.960 . S
H1067 C1054 0.962 . S
H1068 C1054 0.960 . S
H1069 C1055 0.961 1_545 S
H1070 C1055 0.959 1_545 S
H1071 C1055 0.962 . S
H1072 C1056 0.931 . S
H1073 C1061 0.930 1_565 S
H1074 C1062 0.956 . S
H1075 C1062 0.961 . S
H1076 C1062 0.961 . S
H1077 C1063 0.958 . S
H1078 C1063 0.961 . S
H1079 C1063 0.960 . S
C1080 C1081 1.391 . S
C1080 C1082 1.394 . S
C1080 H1096 0.931 . S
C1081 C1080 1.391 . S
C1081 C1085 1.376 . S
C1082 C1080 1.394 . S
C1082 C1083 1.369 . S
C1082 C1086 1.531 . S
C1083 C1082 1.369 . S
C1083 C1084 1.410 . S
C1083 C1091 1.503 . S
C1084 C1083 1.410 . S
C1084 C1085 1.392 . S
C1084 C1087 1.511 . S
C1085 C1081 1.376 . S
C1085 C1084 1.392 . S
C1085 H1097 0.929 . S
C1086 C1082 1.531 . S
C1086 H1098 0.960 . S
C1086 H1099 0.962 . S
C1086 H1100 0.960 . S
C1087 C1084 1.511 . S
C1087 H1101 0.961 . S
C1087 H1102 0.961 . S
C1087 H1103 0.961 . S
C1088 C1089 1.370 . S
C1088 C1090 1.363 . S
C1088 H1104 0.931 . S
C1089 C1088 1.370 . S
C1089 C1093 1.408 . S
C1090 C1088 1.363 . S
C1090 C1091 1.370 . S
C1090 C1094 1.524 . S
C1091 C1083 1.503 . S
C1091 C1090 1.370 . S
C1091 C1092 1.403 . S
C1092 C1091 1.403 . S
C1092 C1093 1.404 . S
C1092 C1095 1.539 . S
C1093 C1089 1.408 . S
C1093 C1092 1.404 . S
C1093 H1105 0.930 . S
C1094 C1090 1.524 . S
C1094 H1106 0.956 . S
C1094 H1107 0.961 . S
C1094 H1108 0.961 . S
C1095 C1092 1.539 . S
C1095 H1109 0.958 . S
C1095 H1110 0.961 . S
C1095 H1111 0.960 . S
H1096 C1080 0.931 . S
H1097 C1085 0.929 . S
H1098 C1086 0.960 . S
H1099 C1086 0.962 . S
H1100 C1086 0.960 . S
H1101 C1087 0.961 . S
H1102 C1087 0.961 . S
H1103 C1087 0.961 . S
H1104 C1088 0.931 . S
H1105 C1093 0.930 . S
H1106 C1094 0.956 . S
H1107 C1094 0.961 . S
H1108 C1094 0.961 . S
H1109 C1095 0.958 . S
H1110 C1095 0.961 . S
H1111 C1095 0.960 . S
C1112 C1113 1.391 . S
C1112 C1114 1.394 . S
C1112 H1128 0.931 1_655 S
C1113 C1112 1.391 . S
C1113 C1117 1.376 . S
C1114 C1112 1.394 . S
C1114 C1115 1.369 . S
C1114 C1118 1.531 1_655 S
C1115 C1114 1.369 . S
C1115 C1116 1.410 . S
C1115 C1123 1.503 . S
C1116 C1115 1.410 . S
C1116 C1117 1.392 . S
C1116 C1119 1.511 . S
C1117 C1113 1.376 . S
C1117 C1116 1.392 . S
C1117 H1129 0.929 . S
C1118 C1114 1.531 1_455 S
C1118 H1130 0.960 . S
C1118 H1131 0.962 . S
C1118 H1132 0.960 . S
C1119 C1116 1.511 . S
C1119 H1133 0.961 . S
C1119 H1134 0.961 . S
C1119 H1135 0.961 . S
C1120 C1121 1.370 . S
C1120 C1122 1.363 . S
C1120 H1136 0.931 . S
C1121 C1120 1.370 . S
C1121 C1125 1.408 . S
C1122 C1120 1.363 . S
C1122 C1123 1.370 . S
C1122 C1126 1.524 . S
C1123 C1115 1.503 . S
C1123 C1122 1.370 . S
C1123 C1124 1.403 . S
C1124 C1123 1.403 . S
C1124 C1125 1.404 . S
C1124 C1127 1.539 . S
C1125 C1121 1.408 . S
C1125 C1124 1.404 . S
C1125 H1137 0.930 . S
C1126 C1122 1.524 . S
C1126 H1138 0.956 1_655 S
C1126 H1139 0.961 . S
C1126 H1140 0.961 . S
C1127 C1124 1.539 . S
C1127 H1141 0.958 . S
C1127 H1142 0.961 . S
C1127 H1143 0.960 . S
H1128 C1112 0.931 1_455 S
H1129 C1117 0.929 . S
H1130 C1118 0.960 . S
H1131 C1118 0.962 . S
H1132 C1118 0.960 . S
H1133 C1119 0.961 . S
H1134 C1119 0.961 . S
H1135 C1119 0.961 . S
H1136 C1120 0.931 . S
H1137 C1125 0.930 . S
H1138 C1126 0.956 1_455 S
H1139 C1126 0.961 . S
H1140 C1126 0.961 . S
H1141 C1127 0.958 . S
H1142 C1127 0.961 . S
H1143 C1127 0.960 . S
C1144 C1145 1.391 . S
C1144 C1146 1.394 . S
C1144 H1160 0.931 . S
C1145 C1144 1.391 . S
C1145 C1149 1.376 . S
C1146 C1144 1.394 . S
C1146 C1147 1.369 . S
C1146 C1150 1.531 . S
C1147 C1146 1.369 . S
C1147 C1148 1.410 . S
C1147 C1155 1.503 . S
C1148 C1147 1.410 . S
C1148 C1149 1.392 . S
C1148 C1151 1.511 . S
C1149 C1145 1.376 . S
C1149 C1148 1.392 . S
C1149 H1161 0.929 . S
C1150 C1146 1.531 . S
C1150 H1162 0.960 . S
C1150 H1163 0.962 . S
C1150 H1164 0.960 . S
C1151 C1148 1.511 . S
C1151 H1165 0.961 1_565 S
C1151 H1166 0.961 . S
C1151 H1167 0.961 . S
C1152 C1153 1.370 . S
C1152 C1154 1.363 . S
C1152 H1168 0.931 1_565 S
C1153 C1152 1.370 . S
C1153 C1157 1.408 . S
C1154 C1152 1.363 . S
C1154 C1155 1.370 . S
C1154 C1158 1.524 1_565 S
C1155 C1147 1.503 . S
C1155 C1154 1.370 . S
C1155 C1156 1.403 . S
C1156 C1155 1.403 . S
C1156 C1157 1.404 . S
C1156 C1159 1.539 . S
C1157 C1153 1.408 . S
C1157 C1156 1.404 . S
C1157 H1169 0.930 . S
C1158 C1154 1.524 1_545 S
C1158 H1170 0.956 . S
C1158 H1171 0.961 . S
C1158 H1172 0.961 . S
C1159 C1156 1.539 . S
C1159 H1173 0.958 . S
C1159 H1174 0.961 . S
C1159 H1175 0.960 . S
H1160 C1144 0.931 . S
H1161 C1149 0.929 . S
H1162 C1150 0.960 . S
H1163 C1150 0.962 . S
H1164 C1150 0.960 . S
H1165 C1151 0.961 1_545 S
H1166 C1151 0.961 . S
H1167 C1151 0.961 . S
H1168 C1152 0.931 1_545 S
H1169 C1157 0.930 . S
H1170 C1158 0.956 . S
H1171 C1158 0.961 . S
H1172 C1158 0.961 . S
H1173 C1159 0.958 . S
H1174 C1159 0.961 . S
H1175 C1159 0.960 . S
C1176 C1177 1.391 . S
C1176 C1178 1.394 . S
C1176 H1192 0.931 . S
C1177 C1176 1.391 . S
C1177 C1181 1.376 . S
C1178 C1176 1.394 . S
C1178 C1179 1.369 . S
C1178 C1182 1.531 . S
C1179 C1178 1.369 . S
C1179 C1180 1.410 . S
C1179 C1187 1.503 . S
C1180 C1179 1.410 . S
C1180 C1181 1.392 . S
C1180 C1183 1.511 . S
C1181 C1177 1.376 . S
C1181 C1180 1.392 . S
C1181 H1193 0.929 . S
C1182 C1178 1.531 . S
C1182 H1194 0.960 . S
C1182 H1195 0.962 . S
C1182 H1196 0.960 . S
C1183 C1180 1.511 . S
C1183 H1197 0.961 . S
C1183 H1198 0.961 . S
C1183 H1199 0.961 . S
C1184 C1185 1.370 . S
C1184 C1186 1.363 . S
C1184 H1200 0.931 . S
C1185 C1184 1.370 . S
C1185 C1189 1.408 . S
C1186 C1184 1.363 . S
C1186 C1187 1.370 . S
C1186 C1190 1.524 . S
C1187 C1179 1.503 . S
C1187 C1186 1.370 . S
C1187 C1188 1.403 . S
C1188 C1187 1.403 . S
C1188 C1189 1.404 . S
C1188 C1191 1.539 . S
C1189 C1185 1.408 . S
C1189 C1188 1.404 . S
C1189 H1201 0.930 . S
C1190 C1186 1.524 . S
C1190 H1202 0.956 . S
C1190 H1203 0.961 . S
C1190 H1204 0.961 . S
C1191 C1188 1.539 . S
C1191 H1205 0.958 . S
C1191 H1206 0.961 . S
C1191 H1207 0.960 . S
H1192 C1176 0.931 . S
H1193 C1181 0.929 . S
H1194 C1182 0.960 . S
H1195 C1182 0.962 . S
H1196 C1182 0.960 . S
H1197 C1183 0.961 . S
H1198 C1183 0.961 . S
H1199 C1183 0.961 . S
H1200 C1184 0.931 . S
H1201 C1189 0.930 . S
H1202 C1190 0.956 . S
H1203 C1190 0.961 . S
H1204 C1190 0.961 . S
H1205 C1191 0.958 . S
H1206 C1191 0.961 . S
H1207 C1191 0.960 . S
C1208 C1209 1.391 . S
C1208 C1210 1.394 . S
C1208 H1224 0.931 . S
C1209 C1208 1.391 . S
C1209 C1213 1.376 . S
C1210 C1208 1.394 . S
C1210 C1211 1.369 . S
C1210 C1214 1.531 . S
C1211 C1210 1.369 . S
C1211 C1212 1.410 . S
C1211 C1219 1.504 1_455 S
C1212 C1211 1.410 . S
C1212 C1213 1.392 . S
C1212 C1215 1.511 1_455 S
C1213 C1209 1.376 . S
C1213 C1212 1.392 . S
C1213 H1225 0.929 . S
C1214 C1210 1.531 . S
C1214 H1226 0.960 . S
C1214 H1227 0.962 . S
C1214 H1228 0.960 . S
C1215 C1212 1.511 1_655 S
C1215 H1229 0.961 . S
C1215 H1230 0.961 . S
C1215 H1231 0.961 1_655 S
C1216 C1217 1.370 . S
C1216 C1218 1.363 . S
C1216 H1232 0.931 . S
C1217 C1216 1.370 . S
C1217 C1221 1.408 1_655 S
C1218 C1216 1.363 . S
C1218 C1219 1.370 . S
C1218 C1222 1.524 . S
C1219 C1211 1.504 1_655 S
C1219 C1218 1.370 . S
C1219 C1220 1.403 1_655 S
C1220 C1219 1.403 1_455 S
C1220 C1221 1.404 . S
C1220 C1223 1.539 . S
C1221 C1217 1.408 1_455 S
C1221 C1220 1.404 . S
C1221 H1233 0.930 . S
C1222 C1218 1.524 . S
C1222 H1234 0.956 . S
C1222 H1235 0.961 . S
C1222 H1236 0.961 . S
C1223 C1220 1.539 . S
C1223 H1237 0.958 . S
C1223 H1238 0.961 . S
C1223 H1239 0.960 . S
H1224 C1208 0.931 . S
H1225 C1213 0.929 . S
H1226 C1214 0.960 . S
H1227 C1214 0.962 . S
H1228 C1214 0.960 . S
H1229 C1215 0.961 . S
H1230 C1215 0.961 . S
H1231 C1215 0.961 1_455 S
H1232 C1216 0.931 . S
H1233 C1221 0.930 . S
H1234 C1222 0.956 . S
H1235 C1222 0.961 . S
H1236 C1222 0.961 . S
H1237 C1223 0.958 . S
H1238 C1223 0.961 . S
H1239 C1223 0.960 . S
C1240 C1241 1.391 1_565 S
C1240 C1242 1.394 . S
C1240 H1256 0.931 . S
C1241 C1240 1.391 1_545 S
C1241 C1245 1.376 . S
C1242 C1240 1.394 . S
C1242 C1243 1.369 . S
C1242 C1246 1.531 . S
C1243 C1242 1.369 . S
C1243 C1244 1.410 1_565 S
C1243 C1251 1.503 1_556 S
C1244 C1243 1.410 1_545 S
C1244 C1245 1.392 . S
C1244 C1247 1.511 . S
C1245 C1241 1.376 . S
C1245 C1244 1.392 . S
C1245 H1257 0.929 . S
C1246 C1242 1.531 . S
C1246 H1258 0.960 . S
C1246 H1259 0.962 . S
C1246 H1260 0.960 . S
C1247 C1244 1.511 . S
C1247 H1261 0.961 . S
C1247 H1262 0.961 1_556 S
C1247 H1263 0.961 . S
C1248 C1249 1.370 1_545 S
C1248 C1250 1.363 . S
C1248 H1264 0.931 . S
C1249 C1248 1.370 1_565 S
C1249 C1253 1.408 . S
C1250 C1248 1.363 . S
C1250 C1251 1.370 1_545 S
C1250 C1254 1.524 . S
C1251 C1243 1.503 1_554 S
C1251 C1250 1.370 1_565 S
C1251 C1252 1.403 . S
C1252 C1251 1.403 . S
C1252 C1253 1.404 . S
C1252 C1255 1.539 . S
C1253 C1249 1.408 . S
C1253 C1252 1.404 . S
C1253 H1265 0.930 . S
C1254 C1250 1.524 . S
C1254 H1266 0.956 . S
C1254 H1267 0.961 . S
C1254 H1268 0.961 . S
C1255 C1252 1.539 . S
C1255 H1269 0.958 . S
C1255 H1270 0.961 . S
C1255 H1271 0.960 1_554 S
H1256 C1240 0.931 . S
H1257 C1245 0.929 . S
H1258 C1246 0.960 . S
H1259 C1246 0.962 . S
H1260 C1246 0.960 . S
H1261 C1247 0.961 . S
H1262 C1247 0.961 1_554 S
H1263 C1247 0.961 . S
H1264 C1248 0.931 . S
H1265 C1253 0.930 . S
H1266 C1254 0.956 . S
H1267 C1254 0.961 . S
H1268 C1254 0.961 . S
H1269 C1255 0.958 . S
H1270 C1255 0.961 . S
H1271 C1255 0.960 1_556 S
C1272 C1273 1.391 . S
C1272 C1274 1.394 . S
C1272 H1288 0.931 . S
C1273 C1272 1.391 . S
C1273 C1277 1.376 . S
C1274 C1272 1.394 . S
C1274 C1275 1.369 . S
C1274 C1278 1.531 . S
C1275 C1274 1.369 . S
C1275 C1276 1.410 . S
C1275 C1283 1.503 . S
C1276 C1275 1.410 . S
C1276 C1277 1.392 . S
C1276 C1279 1.511 . S
C1277 C1273 1.376 . S
C1277 C1276 1.392 . S
C1277 H1289 0.929 . S
C1278 C1274 1.531 . S
C1278 H1290 0.960 . S
C1278 H1291 0.962 . S
C1278 H1292 0.960 . S
C1279 C1276 1.511 . S
C1279 H1293 0.961 . S
C1279 H1294 0.961 . S
C1279 H1295 0.961 . S
C1280 C1281 1.370 . S
C1280 C1282 1.363 . S
C1280 H1296 0.931 . S
C1281 C1280 1.370 . S
C1281 C1285 1.408 . S
C1282 C1280 1.363 . S
C1282 C1283 1.370 . S
C1282 C1286 1.524 . S
C1283 C1275 1.503 . S
C1283 C1282 1.370 . S
C1283 C1284 1.403 . S
C1284 C1283 1.403 . S
C1284 C1285 1.404 . S
C1284 C1287 1.539 . S
C1285 C1281 1.408 . S
C1285 C1284 1.404 . S
C1285 H1297 0.930 . S
C1286 C1282 1.524 . S
C1286 H1298 0.956 . S
C1286 H1299 0.961 . S
C1286 H1300 0.961 . S
C1287 C1284 1.539 . S
C1287 H1301 0.958 . S
C1287 H1302 0.961 . S
C1287 H1303 0.960 . S
H1288 C1272 0.931 . S
H1289 C1277 0.929 . S
H1290 C1278 0.960 . S
H1291 C1278 0.962 . S
H1292 C1278 0.960 . S
H1293 C1279 0.961 . S
H1294 C1279 0.961 . S
H1295 C1279 0.961 . S
H1296 C1280 0.931 . S
H1297 C1285 0.930 . S
H1298 C1286 0.956 . S
H1299 C1286 0.961 . S
H1300 C1286 0.961 . S
H1301 C1287 0.958 . S
H1302 C1287 0.961 . S
H1303 C1287 0.960 . S
C1304 C1305 1.391 1_455 S
C1304 C1306 1.394 . S
C1304 H1320 0.931 . S
C1305 C1304 1.391 1_655 S
C1305 C1309 1.376 . S
C1306 C1304 1.394 . S
C1306 C1307 1.369 1_455 S
C1306 C1310 1.531 . S
C1307 C1306 1.369 1_655 S
C1307 C1308 1.410 . S
C1307 C1315 1.509 . S
C1308 C1307 1.410 . S
C1308 C1309 1.392 . S
C1308 C1311 1.511 . S
C1309 C1305 1.376 . S
C1309 C1308 1.392 . S
C1309 H1321 0.929 . S
C1310 C1306 1.531 . S
C1310 H1322 0.960 . S
C1310 H1323 0.962 . S
C1310 H1324 0.960 . S
C1311 C1308 1.511 . S
C1311 H1325 0.961 . S
C1311 H1326 0.961 . S
C1311 H1327 0.961 . S
C1312 C1313 1.370 . S
C1312 C1314 1.363 . S
C1312 H1328 0.931 . S
C1313 C1312 1.370 . S
C1313 C1317 1.401 1_455 S
C1314 C1312 1.363 . S
C1314 C1315 1.349 1_455 S
C1314 C1318 1.524 . S
C1315 C1307 1.509 . S
C1315 C1314 1.349 1_655 S
C1315 C1316 1.418 . S
C1316 C1315 1.418 . S
C1316 C1317 1.406 . S
C1316 C1319 1.539 . S
C1317 C1313 1.401 1_655 S
C1317 C1316 1.406 . S
C1317 H1329 0.935 . S
C1318 C1314 1.524 . S
C1318 H1330 0.956 . S
C1318 H1331 0.961 1_455 S
C1318 H1332 0.961 . S
C1319 C1316 1.539 . S
C1319 H1333 0.958 . S
C1319 H1334 0.961 . S
C1319 H1335 0.960 . S
H1320 C1304 0.931 . S
H1321 C1309 0.929 . S
H1322 C1310 0.960 . S
H1323 C1310 0.962 . S
H1324 C1310 0.960 . S
H1325 C1311 0.961 . S
H1326 C1311 0.961 . S
H1327 C1311 0.961 . S
H1328 C1312 0.931 . S
H1329 C1317 0.935 . S
H1330 C1318 0.956 . S
H1331 C1318 0.961 1_655 S
H1332 C1318 0.961 . S
H1333 C1319 0.958 . S
H1334 C1319 0.961 . S
H1335 C1319 0.960 . S
C1336 C1337 1.391 . S
C1336 C1338 1.394 . S
C1336 H1352 0.931 . S
C1337 C1336 1.391 . S
C1337 C1341 1.376 1_545 S
C1338 C1336 1.394 . S
C1338 C1339 1.369 . S
C1338 C1342 1.531 . S
C1339 C1338 1.369 . S
C1339 C1340 1.410 1_545 S
C1339 C1347 1.501 1_545 S
C1340 C1339 1.410 1_565 S
C1340 C1341 1.392 . S
C1340 C1343 1.511 . S
C1341 C1337 1.376 1_565 S
C1341 C1340 1.392 . S
C1341 H1353 0.929 . S
C1342 C1338 1.531 . S
C1342 H1354 0.960 . S
C1342 H1355 0.962 . S
C1342 H1356 0.960 . S
C1343 C1340 1.511 . S
C1343 H1357 0.961 . S
C1343 H1358 0.961 . S
C1343 H1359 0.961 . S
C1344 C1345 1.370 . S
C1344 C1346 1.363 . S
C1344 H1360 0.931 . S
C1345 C1344 1.370 . S
C1345 C1349 1.408 1_565 S
C1346 C1344 1.363 . S
C1346 C1347 1.371 . S
C1346 C1350 1.524 . S
C1347 C1339 1.501 1_565 S
C1347 C1346 1.371 . S
C1347 C1348 1.404 1_565 S
C1348 C1347 1.404 1_545 S
C1348 C1349 1.404 . S
C1348 C1351 1.539 . S
C1349 C1345 1.408 1_545 S
C1349 C1348 1.404 . S
C1349 H1361 0.930 . S
C1350 C1346 1.524 . S
C1350 H1362 0.956 . S
C1350 H1363 0.961 . S
C1350 H1364 0.961 . S
C1351 C1348 1.539 . S
C1351 H1365 0.958 . S
C1351 H1366 0.961 . S
C1351 H1367 0.960 . S
H1352 C1336 0.931 . S
H1353 C1341 0.929 . S
H1354 C1342 0.960 . S
H1355 C1342 0.962 . S
H1356 C1342 0.960 . S
H1357 C1343 0.961 . S
H1358 C1343 0.961 . S
H1359 C1343 0.961 . S
H1360 C1344 0.931 . S
H1361 C1349 0.930 . S
H1362 C1350 0.956 . S
H1363 C1350 0.961 . S
H1364 C1350 0.961 . S
H1365 C1351 0.958 . S
H1366 C1351 0.961 . S
H1367 C1351 0.960 . S
C409 C292 0.853 . S
C417 C20 0.895 . S
C441 C54 0.899 . S
C449 C326 0.885 . S
C473 C88 0.913 . S
C481 C360 0.876 . S
C505 C122 0.850 . S
C513 C394 0.895 . S
C537 C156 0.911 . S
C545 C224 0.878 . S
C569 C190 0.867 . S
C577 C258 0.895 . S
C601 C9 1.651 . S
C609 C203 1.790 . S
C633 C33 1.795 . S
C641 C43 1.626 . S
C665 C77 1.654 . S
C673 C67 1.787 . S
C697 C101 1.768 . S
C705 C111 1.618 . S
C729 C135 1.767 . S
C737 C145 1.603 1_556 S
C761 C179 1.590 . S
C769 C169 1.791 . S
C793 C271 1.793 . S
C801 C213 1.630 . S
C825 C305 1.770 . S
C833 C247 1.598 . S
C857 C339 1.792 . S
C865 C281 1.604 . S
C889 C373 1.770 . S
C897 C315 1.598 1_554 S
C921 C407 1.776 . S
C929 C349 1.628 . S
C953 C383 1.572 . S
C961 C237 1.788 . S
C985 C2 1.128 . S
C993 C206 1.091 . S
C1017 C36 1.053 . S
C1025 C240 1.108 . S
C1049 C70 1.121 . S
C1057 C274 1.096 . S
C1081 C104 1.120 . S
C1089 C308 1.096 . S
C1113 C342 1.053 . S
C1121 C138 1.104 . S
C1145 C172 1.103 . S
C1153 C376 1.081 . S
C1177 C311 1.271 . S
C1185 C5 1.282 . S
C1209 C39 1.268 . S
C1217 C345 1.300 . S
C1241 C73 1.296 . S
C1249 C379 1.277 . S
C1273 C107 1.259 . S
C1281 C209 1.290 . S
C1305 C141 1.262 . S
C1313 C243 1.287 . S
C1337 C277 1.291 . S
C1345 C175 1.299 . S
