# Generated by pormake.
# Topology wlq, (5)-cn, num edge types: 1
# Building blocks:
#     Node 0, Type 0, BuildingBlock: BEQFEK_clean_sbu_0, # of connection points: 5
#     Node 1, Type 0, BuildingBlock: BEQFEK_clean_sbu_0, # of connection points: 5
#     Node 2, Type 0, BuildingBlock: BEQFEK_clean_sbu_0, # of connection points: 5
#     Node 3, Type 0, BuildingBlock: BEQFEK_clean_sbu_0, # of connection points: 5
#     Node 4, Type 0, BuildingBlock: BEQFEK_clean_sbu_0, # of connection points: 5
#     Node 5, Type 0, BuildingBlock: BEQFEK_clean_sbu_0, # of connection points: 5
#     Node 6, Type 0, BuildingBlock: BEQFEK_clean_sbu_0, # of connection points: 5
#     Node 7, Type 0, BuildingBlock: BEQFEK_clean_sbu_0, # of connection points: 5
#     Node 8, Type 0, BuildingBlock: BEQFEK_clean_sbu_0, # of connection points: 5
#     Node 9, Type 0, BuildingBlock: BEQFEK_clean_sbu_0, # of connection points: 5
#     Node 10, Type 0, BuildingBlock: BEQFEK_clean_sbu_0, # of connection points: 5
#     Node 11, Type 0, BuildingBlock: BEQFEK_clean_sbu_0, # of connection points: 5
#     Node 12, Type 0, BuildingBlock: BEQFEK_clean_sbu_0, # of connection points: 5
#     Node 13, Type 0, BuildingBlock: BEQFEK_clean_sbu_0, # of connection points: 5
#     Node 14, Type 0, BuildingBlock: BEQFEK_clean_sbu_0, # of connection points: 5
#     Node 15, Type 0, BuildingBlock: BEQFEK_clean_sbu_0, # of connection points: 5
#     Node 16, Type 0, BuildingBlock: BEQFEK_clean_sbu_0, # of connection points: 5
#     Node 17, Type 0, BuildingBlock: BEQFEK_clean_sbu_0, # of connection points: 5
#     Node 18, Type 0, BuildingBlock: BEQFEK_clean_sbu_0, # of connection points: 5
#     Node 19, Type 0, BuildingBlock: BEQFEK_clean_sbu_0, # of connection points: 5
#     Node 20, Type 0, BuildingBlock: BEQFEK_clean_sbu_0, # of connection points: 5
#     Node 21, Type 0, BuildingBlock: BEQFEK_clean_sbu_0, # of connection points: 5
#     Node 22, Type 0, BuildingBlock: BEQFEK_clean_sbu_0, # of connection points: 5
#     Node 23, Type 0, BuildingBlock: BEQFEK_clean_sbu_0, # of connection points: 5
#     Node 24, Type 0, BuildingBlock: BEQFEK_clean_sbu_0, # of connection points: 5
#     Node 25, Type 0, BuildingBlock: BEQFEK_clean_sbu_0, # of connection points: 5
#     Node 26, Type 0, BuildingBlock: BEQFEK_clean_sbu_0, # of connection points: 5
#     Node 27, Type 0, BuildingBlock: BEQFEK_clean_sbu_0, # of connection points: 5
#     Node 28, Type 0, BuildingBlock: BEQFEK_clean_sbu_0, # of connection points: 5
#     Node 29, Type 0, BuildingBlock: BEQFEK_clean_sbu_0, # of connection points: 5
#     Node 30, Type 0, BuildingBlock: BEQFEK_clean_sbu_0, # of connection points: 5
#     Node 31, Type 0, BuildingBlock: BEQFEK_clean_sbu_0, # of connection points: 5
#     Node 32, Type 0, BuildingBlock: BEQFEK_clean_sbu_0, # of connection points: 5
#     Node 33, Type 0, BuildingBlock: BEQFEK_clean_sbu_0, # of connection points: 5
#     Node 34, Type 0, BuildingBlock: BEQFEK_clean_sbu_0, # of connection points: 5
#     Node 35, Type 0, BuildingBlock: BEQFEK_clean_sbu_0, # of connection points: 5
#     Edge 36, Type (0, 0), BuildingBlock: AJUNOK_clean_linker_0, # of connection points: 2
#     Edge 37, Type (0, 0), BuildingBlock: AJUNOK_clean_linker_0, # of connection points: 2
#     Edge 38, Type (0, 0), BuildingBlock: AJUNOK_clean_linker_0, # of connection points: 2
#     Edge 39, Type (0, 0), BuildingBlock: AJUNOK_clean_linker_0, # of connection points: 2
#     Edge 40, Type (0, 0), BuildingBlock: AJUNOK_clean_linker_0, # of connection points: 2
#     Edge 41, Type (0, 0), BuildingBlock: AJUNOK_clean_linker_0, # of connection points: 2
#     Edge 42, Type (0, 0), BuildingBlock: AJUNOK_clean_linker_0, # of connection points: 2
#     Edge 43, Type (0, 0), BuildingBlock: AJUNOK_clean_linker_0, # of connection points: 2
#     Edge 44, Type (0, 0), BuildingBlock: AJUNOK_clean_linker_0, # of connection points: 2
#     Edge 45, Type (0, 0), BuildingBlock: AJUNOK_clean_linker_0, # of connection points: 2
#     Edge 46, Type (0, 0), BuildingBlock: AJUNOK_clean_linker_0, # of connection points: 2
#     Edge 47, Type (0, 0), BuildingBlock: AJUNOK_clean_linker_0, # of connection points: 2
#     Edge 48, Type (0, 0), BuildingBlock: AJUNOK_clean_linker_0, # of connection points: 2
#     Edge 49, Type (0, 0), BuildingBlock: AJUNOK_clean_linker_0, # of connection points: 2
#     Edge 50, Type (0, 0), BuildingBlock: AJUNOK_clean_linker_0, # of connection points: 2
#     Edge 51, Type (0, 0), BuildingBlock: AJUNOK_clean_linker_0, # of connection points: 2
#     Edge 52, Type (0, 0), BuildingBlock: AJUNOK_clean_linker_0, # of connection points: 2
#     Edge 53, Type (0, 0), BuildingBlock: AJUNOK_clean_linker_0, # of connection points: 2
#     Edge 54, Type (0, 0), BuildingBlock: AJUNOK_clean_linker_0, # of connection points: 2
#     Edge 55, Type (0, 0), BuildingBlock: AJUNOK_clean_linker_0, # of connection points: 2
#     Edge 56, Type (0, 0), BuildingBlock: AJUNOK_clean_linker_0, # of connection points: 2
#     Edge 57, Type (0, 0), BuildingBlock: AJUNOK_clean_linker_0, # of connection points: 2
#     Edge 58, Type (0, 0), BuildingBlock: AJUNOK_clean_linker_0, # of connection points: 2
#     Edge 59, Type (0, 0), BuildingBlock: AJUNOK_clean_linker_0, # of connection points: 2
#     Edge 60, Type (0, 0), BuildingBlock: AJUNOK_clean_linker_0, # of connection points: 2
#     Edge 61, Type (0, 0), BuildingBlock: AJUNOK_clean_linker_0, # of connection points: 2
#     Edge 62, Type (0, 0), BuildingBlock: AJUNOK_clean_linker_0, # of connection points: 2
#     Edge 63, Type (0, 0), BuildingBlock: AJUNOK_clean_linker_0, # of connection points: 2
#     Edge 64, Type (0, 0), BuildingBlock: AJUNOK_clean_linker_0, # of connection points: 2
#     Edge 65, Type (0, 0), BuildingBlock: AJUNOK_clean_linker_0, # of connection points: 2
#     Edge 66, Type (0, 0), BuildingBlock: AJUNOK_clean_linker_0, # of connection points: 2
#     Edge 67, Type (0, 0), BuildingBlock: AJUNOK_clean_linker_0, # of connection points: 2
#     Edge 68, Type (0, 0), BuildingBlock: AJUNOK_clean_linker_0, # of connection points: 2
#     Edge 69, Type (0, 0), BuildingBlock: AJUNOK_clean_linker_0, # of connection points: 2
#     Edge 70, Type (0, 0), BuildingBlock: AJUNOK_clean_linker_0, # of connection points: 2
#     Edge 71, Type (0, 0), BuildingBlock: AJUNOK_clean_linker_0, # of connection points: 2
#     Edge 72, Type (0, 0), BuildingBlock: AJUNOK_clean_linker_0, # of connection points: 2
#     Edge 73, Type (0, 0), BuildingBlock: AJUNOK_clean_linker_0, # of connection points: 2
#     Edge 74, Type (0, 0), BuildingBlock: AJUNOK_clean_linker_0, # of connection points: 2
#     Edge 75, Type (0, 0), BuildingBlock: AJUNOK_clean_linker_0, # of connection points: 2
#     Edge 76, Type (0, 0), BuildingBlock: AJUNOK_clean_linker_0, # of connection points: 2
#     Edge 77, Type (0, 0), BuildingBlock: AJUNOK_clean_linker_0, # of connection points: 2
#     Edge 78, Type (0, 0), BuildingBlock: AJUNOK_clean_linker_0, # of connection points: 2
#     Edge 79, Type (0, 0), BuildingBlock: AJUNOK_clean_linker_0, # of connection points: 2
#     Edge 80, Type (0, 0), BuildingBlock: AJUNOK_clean_linker_0, # of connection points: 2
#     Edge 81, Type (0, 0), BuildingBlock: AJUNOK_clean_linker_0, # of connection points: 2
#     Edge 82, Type (0, 0), BuildingBlock: AJUNOK_clean_linker_0, # of connection points: 2
#     Edge 83, Type (0, 0), BuildingBlock: AJUNOK_clean_linker_0, # of connection points: 2
#     Edge 84, Type (0, 0), BuildingBlock: AJUNOK_clean_linker_0, # of connection points: 2
#     Edge 85, Type (0, 0), BuildingBlock: AJUNOK_clean_linker_0, # of connection points: 2
#     Edge 86, Type (0, 0), BuildingBlock: AJUNOK_clean_linker_0, # of connection points: 2
#     Edge 87, Type (0, 0), BuildingBlock: AJUNOK_clean_linker_0, # of connection points: 2
#     Edge 88, Type (0, 0), BuildingBlock: AJUNOK_clean_linker_0, # of connection points: 2
#     Edge 89, Type (0, 0), BuildingBlock: AJUNOK_clean_linker_0, # of connection points: 2
#     Edge 90, Type (0, 0), BuildingBlock: AJUNOK_clean_linker_0, # of connection points: 2
#     Edge 91, Type (0, 0), BuildingBlock: AJUNOK_clean_linker_0, # of connection points: 2
#     Edge 92, Type (0, 0), BuildingBlock: AJUNOK_clean_linker_0, # of connection points: 2
#     Edge 93, Type (0, 0), BuildingBlock: AJUNOK_clean_linker_0, # of connection points: 2
#     Edge 94, Type (0, 0), BuildingBlock: AJUNOK_clean_linker_0, # of connection points: 2
#     Edge 95, Type (0, 0), BuildingBlock: AJUNOK_clean_linker_0, # of connection points: 2
#     Edge 96, Type (0, 0), BuildingBlock: AJUNOK_clean_linker_0, # of connection points: 2
#     Edge 97, Type (0, 0), BuildingBlock: AJUNOK_clean_linker_0, # of connection points: 2
#     Edge 98, Type (0, 0), BuildingBlock: AJUNOK_clean_linker_0, # of connection points: 2
#     Edge 99, Type (0, 0), BuildingBlock: AJUNOK_clean_linker_0, # of connection points: 2
#     Edge 100, Type (0, 0), BuildingBlock: AJUNOK_clean_linker_0, # of connection points: 2
#     Edge 101, Type (0, 0), BuildingBlock: AJUNOK_clean_linker_0, # of connection points: 2
#     Edge 102, Type (0, 0), BuildingBlock: AJUNOK_clean_linker_0, # of connection points: 2
#     Edge 103, Type (0, 0), BuildingBlock: AJUNOK_clean_linker_0, # of connection points: 2
#     Edge 104, Type (0, 0), BuildingBlock: AJUNOK_clean_linker_0, # of connection points: 2
#     Edge 105, Type (0, 0), BuildingBlock: AJUNOK_clean_linker_0, # of connection points: 2
#     Edge 106, Type (0, 0), BuildingBlock: AJUNOK_clean_linker_0, # of connection points: 2
#     Edge 107, Type (0, 0), BuildingBlock: AJUNOK_clean_linker_0, # of connection points: 2
#     Edge 108, Type (0, 0), BuildingBlock: AJUNOK_clean_linker_0, # of connection points: 2
#     Edge 109, Type (0, 0), BuildingBlock: AJUNOK_clean_linker_0, # of connection points: 2
#     Edge 110, Type (0, 0), BuildingBlock: AJUNOK_clean_linker_0, # of connection points: 2
#     Edge 111, Type (0, 0), BuildingBlock: AJUNOK_clean_linker_0, # of connection points: 2
#     Edge 112, Type (0, 0), BuildingBlock: AJUNOK_clean_linker_0, # of connection points: 2
#     Edge 113, Type (0, 0), BuildingBlock: AJUNOK_clean_linker_0, # of connection points: 2
#     Edge 114, Type (0, 0), BuildingBlock: AJUNOK_clean_linker_0, # of connection points: 2
#     Edge 115, Type (0, 0), BuildingBlock: AJUNOK_clean_linker_0, # of connection points: 2
#     Edge 116, Type (0, 0), BuildingBlock: AJUNOK_clean_linker_0, # of connection points: 2
#     Edge 117, Type (0, 0), BuildingBlock: AJUNOK_clean_linker_0, # of connection points: 2
#     Edge 118, Type (0, 0), BuildingBlock: AJUNOK_clean_linker_0, # of connection points: 2
#     Edge 119, Type (0, 0), BuildingBlock: AJUNOK_clean_linker_0, # of connection points: 2
#     Edge 120, Type (0, 0), BuildingBlock: AJUNOK_clean_linker_0, # of connection points: 2
#     Edge 121, Type (0, 0), BuildingBlock: AJUNOK_clean_linker_0, # of connection points: 2
#     Edge 122, Type (0, 0), BuildingBlock: AJUNOK_clean_linker_0, # of connection points: 2
#     Edge 123, Type (0, 0), BuildingBlock: AJUNOK_clean_linker_0, # of connection points: 2
#     Edge 124, Type (0, 0), BuildingBlock: AJUNOK_clean_linker_0, # of connection points: 2
#     Edge 125, Type (0, 0), BuildingBlock: AJUNOK_clean_linker_0, # of connection points: 2
# Relax obj value: 0.145
# Max RMSD: 0.151
# Mean RMSD: 0.151
data_MOF--net-wlq--node1-BEQFEK_clean_sbu_0--edge1-AJUNOK_clean_linker_0
_symmetry_space_group_name_H-M    P1
_symmetry_Int_Tables_number       1
_symmetry_cell_setting            triclinic
loop_
_symmetry_equiv_pos_as_xyz
'x, y, z'
_cell_length_a     55.849062
_cell_length_b     55.867004
_cell_length_c     30.08859
_cell_angle_alpha  89.983765
_cell_angle_beta   89.988062
_cell_angle_gamma 120.00101
loop_
_atom_site_label
_atom_site_type_symbol
_atom_site_fract_x
_atom_site_fract_y
_atom_site_fract_z
_atom_type_partial_charge
Co0 Co 0.21839 0.19129 0.95697 0.0
Co1 Co 0.23832 0.20684 0.05579 0.0
C2 C 0.27658 0.23645 0.98169 0.0
O3 O 0.25741 0.22038 0.95556 0.0
O4 O 0.27274 0.23487 0.02375 0.0
C5 C 0.21328 0.21122 0.87598 0.0
O6 O 0.22563 0.23409 0.89946 0.0
C7 C 0.25025 0.23202 0.1475 0.0
C8 C 0.23388 0.19387 0.18751 0.0
C9 C 0.24523 0.22217 0.19112 0.0
N10 N 0.24181 0.21031 0.11967 0.0
N11 N 0.23248 0.18771 0.1441 0.0
C12 C 0.26447 0.26151 0.1325 0.0
H13 H 0.25903 0.26291 0.09749 0.0
H14 H 0.2595 0.27436 0.15441 0.0
H15 H 0.28714 0.26993 0.13421 0.0
C16 C 0.1745 0.20155 0.98776 0.0
N17 N 0.19789 0.20084 0.99502 0.0
N18 N 0.20607 0.20809 0.03634 0.0
C19 C 0.18791 0.21384 0.05664 0.0
C20 C 0.16756 0.21018 0.02627 0.0
C21 C 0.15795 0.192 0.94577 0.0
H22 H 0.15895 0.17419 0.93167 0.0
H23 H 0.16671 0.20906 0.92114 0.0
H24 H 0.13601 0.18591 0.95177 0.0
O25 O 0.21593 0.15664 0.97533 0.0
O26 O 0.23316 0.16917 0.04323 0.0
H27 H 0.19145 0.20798 0.12609 0.0
H28 H 0.17254 0.22569 0.11392 0.0
C29 C 0.19023 0.22315 0.10381 0.0
H30 H 0.20941 0.24333 0.1076 0.0
H31 H 0.22421 0.16782 0.13106 0.0
O32 O 0.20614 0.18834 0.89501 0.0
C33 C 0.22398 0.15151 0.01176 0.0
Co34 Co 0.80569 0.02736 0.95226 0.0
Co35 Co 0.7894 0.03099 0.05123 0.0
C36 C 0.76078 0.04057 0.97671 0.0
O37 O 0.77673 0.03719 0.95073 0.0
O38 O 0.7622 0.03837 0.01883 0.0
C39 C 0.78891 0.00201 0.869 0.0
O40 O 0.76568 0.98652 0.89044 0.0
C41 C 0.7642 0.01799 0.14378 0.0
C42 C 0.8028 0.03753 0.18296 0.0
C43 C 0.77439 0.02208 0.1872 0.0
N44 N 0.78584 0.03027 0.11544 0.0
N45 N 0.80871 0.04219 0.13946 0.0
C46 C 0.73457 0.00426 0.12967 0.0
H47 H 0.73281 0.00173 0.09301 0.0
H48 H 0.72229 0.98392 0.14609 0.0
H49 H 0.72574 0.01729 0.14015 0.0
C50 C 0.79493 0.97275 0.98246 0.0
N51 N 0.79556 0.99683 0.98949 0.0
N52 N 0.78755 0.99747 0.03046 0.0
C53 C 0.78101 0.97331 0.05048 0.0
C54 C 0.78549 0.95695 0.02064 0.0
C55 C 0.80549 0.96597 0.94139 0.0
H56 H 0.82178 0.98513 0.92546 0.0
H57 H 0.78817 0.9549 0.91765 0.0
H58 H 0.81401 0.95228 0.94934 0.0
O59 O 0.84015 0.05891 0.97201 0.0
O60 O 0.82755 0.06317 0.04006 0.0
H61 H 0.78545 0.97988 0.12072 0.0
H62 H 0.76377 0.94403 0.1049 0.0
C63 C 0.76976 0.96565 0.09661 0.0
H64 H 0.75121 0.96785 0.09952 0.0
H65 H 0.82859 0.05282 0.12605 0.0
O66 O 0.80989 0.02017 0.88985 0.0
C67 C 0.84538 0.07162 0.00883 0.0
Co68 Co 0.97234 0.78266 0.95783 0.0
Co69 Co 0.96821 0.76488 0.05804 0.0
C70 C 0.95726 0.7245 0.98654 0.0
O71 O 0.96068 0.74321 0.95909 0.0
O72 O 0.96044 0.72949 0.02825 0.0
C73 C 0.99342 0.78278 0.87473 0.0
O74 O 0.00086 0.76724 0.89672 0.0
C75 C 0.97905 0.75182 0.15098 0.0
C76 C 0.96466 0.77607 0.18899 0.0
C77 C 0.97673 0.75983 0.19403 0.0
N78 N 0.96921 0.76336 0.12212 0.0
N79 N 0.96035 0.77746 0.14539 0.0
C80 C 0.98885 0.73234 0.13766 0.0
H81 H 0.00997 0.74407 0.12352 0.0
H82 H 0.98913 0.72014 0.16659 0.0
H83 H 0.97516 0.7182 0.11137 0.0
C84 C 0.02755 0.82548 0.98615 0.0
N85 N 0.00298 0.80295 0.99468 0.0
N86 N 0.002 0.79567 0.03655 0.0
C87 C 0.02628 0.81353 0.05601 0.0
C88 C 0.04332 0.83282 0.02453 0.0
C89 C 0.03475 0.84088 0.94297 0.0
H90 H 0.01644 0.84126 0.9296 0.0
H91 H 0.04095 0.83008 0.9186 0.0
H92 H 0.05203 0.86241 0.94696 0.0
O93 O 0.94122 0.78702 0.97595 0.0
O94 O 0.93637 0.77096 0.04478 0.0
H95 H 0.01911 0.8154 0.12539 0.0
H96 H 0.05489 0.82739 0.11156 0.0
C97 C 0.03314 0.81197 0.10359 0.0
H98 H 0.02984 0.79111 0.11052 0.0
H99 H 0.95199 0.78875 0.13132 0.0
O100 O 0.98134 0.79362 0.89523 0.0
C101 C 0.92821 0.78001 0.01262 0.0
Co102 Co 0.19116 0.21866 0.6 0.0
Co103 Co 0.20368 0.23634 0.49953 0.0
C104 C 0.23301 0.27707 0.57095 0.0
O105 O 0.21842 0.25826 0.59875 0.0
O106 O 0.23076 0.27201 0.52926 0.0
C107 C 0.21149 0.21894 0.68447 0.0
O108 O 0.2347 0.23598 0.66417 0.0
C109 C 0.22728 0.24891 0.40625 0.0
C110 C 0.18812 0.22903 0.36857 0.0
C111 C 0.21653 0.2431 0.36322 0.0
N112 N 0.20602 0.23854 0.43542 0.0
N113 N 0.18278 0.22696 0.41234 0.0
C114 C 0.25709 0.26516 0.41926 0.0
H115 H 0.25918 0.26962 0.45543 0.0
H116 H 0.26768 0.25344 0.41102 0.0
H117 H 0.26744 0.28477 0.40011 0.0
C118 C 0.20337 0.17594 0.57067 0.0
N119 N 0.20165 0.19869 0.56264 0.0
N120 N 0.2074 0.20586 0.52062 0.0
C121 C 0.2132 0.18771 0.50056 0.0
C122 C 0.21083 0.1682 0.5317 0.0
C123 C 0.19574 0.16072 0.61402 0.0
H124 H 0.17707 0.16019 0.62786 0.0
H125 H 0.21296 0.17181 0.63793 0.0
H126 H 0.19163 0.13924 0.6102 0.0
O127 O 0.1553 0.21343 0.5823 0.0
O128 O 0.16534 0.22909 0.51311 0.0
H129 H 0.20427 0.18709 0.43132 0.0
H130 H 0.22685 0.17342 0.44418 0.0
C131 C 0.22142 0.1894 0.45287 0.0
H132 H 0.23963 0.20997 0.44655 0.0
H133 H 0.16309 0.21703 0.42655 0.0
O134 O 0.18911 0.20737 0.66249 0.0
C135 C 0.14845 0.21959 0.54566 0.0
Co136 Co 0.77885 0.96841 0.59562 0.0
Co137 Co 0.75966 0.96539 0.4963 0.0
C138 C 0.72063 0.95472 0.56999 0.0
O139 O 0.73982 0.95793 0.59616 0.0
O140 O 0.72459 0.95744 0.52796 0.0
C141 C 0.78563 0.99362 0.67794 0.0
O142 O 0.77668 0.00765 0.65514 0.0
C143 C 0.74744 0.97806 0.40321 0.0
C144 C 0.76606 0.95783 0.36474 0.0
C145 C 0.75282 0.97299 0.3599 0.0
N146 N 0.75722 0.96638 0.43202 0.0
N147 N 0.76808 0.95422 0.4084 0.0
C148 C 0.73205 0.9924 0.41675 0.0
H149 H 0.72878 0.99106 0.45326 0.0
H150 H 0.74373 0.01442 0.40671 0.0
H151 H 0.71183 0.98285 0.39935 0.0
C152 C 0.82229 0.02349 0.56731 0.0
N153 N 0.79922 -0.00071 0.55914 0.0
N154 N 0.79105 0.99898 0.51795 0.0
C155 C 0.80869 0.02351 0.49888 0.0
C156 C 0.82882 0.03989 0.52978 0.0
C157 C 0.83931 0.02968 0.60867 0.0
H158 H 0.83732 0.01039 0.62263 0.0
H159 H 0.83194 0.03905 0.63376 0.0
H160 H 0.86143 0.04454 0.60174 0.0
O161 O 0.78291 0.93757 0.57566 0.0
O162 O 0.76579 0.93319 0.50748 0.0
H163 H 0.80694 0.01664 0.42875 0.0
H164 H 0.82218 0.05269 0.44413 0.0
C165 C 0.80591 0.03131 0.45244 0.0
H166 H 0.78549 0.02981 0.44887 0.0
H167 H 0.7775 0.94384 0.42215 0.0
O168 O 0.78966 0.97585 0.6583 0.0
C169 C 0.77551 0.92509 0.53869 0.0
Co170 Co 0.02694 0.80578 0.60076 0.0
Co171 Co 0.03412 0.7935 0.50117 0.0
C172 C 0.04199 0.76264 0.57554 0.0
O173 O 0.03769 0.77751 0.60251 0.0
O174 O 0.04073 0.7655 0.53357 0.0
C175 C 0.00314 0.78611 0.68323 0.0
O176 O 0.99394 0.76275 0.66148 0.0
C177 C 0.01946 0.76869 0.4095 0.0
C178 C 0.04889 0.80469 0.36972 0.0
C179 C 0.02737 0.77774 0.36588 0.0
N180 N 0.03544 0.78956 0.43746 0.0
N181 N 0.05322 0.8108 0.41322 0.0
C182 C 0.99833 0.74032 0.42459 0.0
H183 H 0.99392 0.74038 0.46056 0.0
H184 H 0.97899 0.7323 0.40515 0.0
H185 H 0.00652 0.72612 0.41894 0.0
C186 C 0.97286 0.79464 0.56824 0.0
N187 N 0.99733 0.79604 0.56149 0.0
N188 N -5e-05 0.79164 0.51918 0.0
C189 C 0.97708 0.78787 0.4975 0.0
C190 C 0.95914 0.7893 0.52802 0.0
C191 C 0.9628 0.79791 0.61277 0.0
H192 H 0.95906 0.78022 0.63412 0.0
H193 H 0.94319 0.79825 0.61076 0.0
H194 H 0.97884 0.81719 0.62877 0.0
O195 O 0.05892 0.84114 0.58357 0.0
O196 O 0.06573 0.83142 0.51485 0.0
H197 H 0.95869 0.79275 0.43758 0.0
H198 H 0.96527 0.76446 0.43741 0.0
C199 C 0.97356 0.78615 0.44811 0.0
H200 H 0.99367 0.79942 0.43153 0.0
H201 H 0.06782 0.82989 0.42632 0.0
O202 O 0.01717 0.80875 0.66251 0.0
C203 C 0.07277 0.84805 0.54768 0.0
Co204 Co 0.778 0.80757 0.09765 0.0
Co205 Co 0.75928 0.79334 0.99806 0.0
C206 C 0.72038 0.76295 0.0716 0.0
O207 O 0.73946 0.77845 0.09822 0.0
O208 O 0.72434 0.76535 0.02956 0.0
C209 C 0.78591 0.78877 0.17878 0.0
O210 O 0.77796 0.7662 0.15533 0.0
C211 C 0.74823 0.76896 0.90519 0.0
C212 C 0.76239 0.80731 0.86651 0.0
C213 C 0.75219 0.77923 0.86185 0.0
N214 N 0.75598 0.79021 0.93387 0.0
N215 N 0.76406 0.81291 0.91018 0.0
C216 C 0.73574 0.73938 0.91898 0.0
H217 H 0.73586 0.73764 0.95573 0.0
H218 H 0.74711 0.72991 0.90379 0.0
H219 H 0.71413 0.72769 0.90671 0.0
C220 C 0.82259 0.79829 0.06753 0.0
N221 N 0.79904 0.79861 0.05993 0.0
N222 N 0.79121 0.79155 0.01838 0.0
C223 C 0.80965 0.78605 0.99845 0.0
C224 C 0.82982 0.78977 0.02925 0.0
C225 C 0.83945 0.80877 0.10911 0.0
H226 H 0.83666 0.8253 0.12428 0.0
H227 H 0.83266 0.79158 0.13324 0.0
H228 H 0.86172 0.81697 0.10204 0.0
O229 O 0.78081 0.84216 0.07978 0.0
O230 O 0.76533 0.83149 0.01069 0.0
H231 H 0.80587 0.79182 0.92901 0.0
H232 H 0.82604 0.77541 0.94112 0.0
C233 C 0.80781 0.77703 0.9512 0.0
H234 H 0.78917 0.75645 0.94731 0.0
H235 H 0.77151 0.83254 0.92382 0.0
O236 O 0.78893 0.81043 0.16 0.0
C237 C 0.77433 0.84854 0.04306 0.0
Co238 Co 0.19319 0.97323 0.1016 0.0
Co239 Co 0.2088 0.96866 1.00278 0.0
C240 C 0.23666 0.95778 0.07714 0.0
O241 O 0.22099 0.9616 0.10314 0.0
O242 O 0.23554 0.96048 0.03509 0.0
C243 C 0.21319 0.99731 0.18318 0.0
O244 O 0.23619 0.00723 0.16012 0.0
C245 C 0.23428 0.98158 0.91104 0.0
C246 C 0.19606 0.961 0.87098 0.0
C247 C 0.22447 0.97716 0.8674 0.0
N248 N 0.21245 0.96883 0.93885 0.0
N249 N 0.1898 0.95628 0.91437 0.0
C250 C 0.26377 0.99592 0.92603 0.0
H251 H 0.26534 0.00221 0.96139 0.0
H252 H 0.27695 0.01402 0.90482 0.0
H253 H 0.27167 0.98129 0.92312 0.0
C254 C 0.20568 0.02815 0.07145 0.0
N255 N 0.20425 0.00375 0.06402 0.0
N256 N 0.21152 0.00273 0.02273 0.0
C257 C 0.21804 0.0269 1.00263 0.0
C258 C 0.21484 0.04384 0.03309 0.0
C259 C 0.19598 0.03521 0.11323 0.0
H260 H 0.21275 0.04299 0.13832 0.0
H261 H 0.19042 0.05143 0.1072 0.0
H262 H 0.17775 0.01652 0.12679 0.0
O263 O 0.15797 0.94219 0.08245 0.0
O264 O 0.17041 0.93719 0.01463 0.0
H265 H 0.23101 0.05446 0.94569 0.0
H266 H 0.24705 0.03369 0.95137 0.0
C267 C 0.22741 0.03379 0.95545 0.0
H268 H 0.21173 0.01791 0.93311 0.0
H269 H 0.16984 0.9452 0.92736 0.0
O270 O 0.19028 0.98242 0.16365 0.0
C271 C 0.15255 0.92921 0.04581 0.0
Co272 Co 0.02471 0.2162 0.10164 0.0
Co273 Co 0.03004 0.2368 1.00254 0.0
C274 C 0.03981 0.27501 0.07699 0.0
O275 O 0.03611 0.2555 0.10281 0.0
O276 O 0.03731 0.27135 0.03492 0.0
C277 C -0.00085 0.21249 0.18149 0.0
O278 O 0.98898 0.22441 0.15613 0.0
C279 C 0.01777 0.24929 0.90997 0.0
C280 C 0.04204 0.23539 0.87094 0.0
C281 C 0.02428 0.24577 0.86655 0.0
N282 N 0.03096 0.24106 0.93846 0.0
N283 N 0.04569 0.23319 0.91457 0.0
C284 C 0.00068 0.26173 0.924 0.0
H285 H 0.9978 0.26038 0.96061 0.0
H286 H 0.98031 0.25129 0.90714 0.0
H287 H 0.01132 0.28377 0.91376 0.0
C288 C 0.97009 0.17389 0.07027 0.0
N289 N 0.99464 0.19675 0.0631 0.0
N290 N 0.99596 0.20511 0.02175 0.0
C291 C 0.97187 0.18755 1.00134 0.0
C292 C 0.95464 0.16752 0.03171 0.0
C293 C 0.9625 0.15719 0.11216 0.0
H294 H 0.95424 0.16609 0.13657 0.0
H295 H 0.94642 0.13538 0.10587 0.0
H296 H 0.98103 0.15776 0.12665 0.0
O297 O 0.05629 0.2125 0.08357 0.0
O298 O 0.06167 0.23034 0.01594 0.0
H299 H 0.9455 0.17213 0.94311 0.0
H300 H 0.96327 0.20879 0.95081 0.0
C301 C 0.96524 0.19014 0.95406 0.0
H302 H 0.98219 0.19239 0.93213 0.0
H303 H 0.05767 0.22545 0.92804 0.0
O304 O 0.01468 0.20453 0.16395 0.0
C305 C 0.06965 0.22055 0.04726 0.0
Co306 Co 0.80774 0.77729 0.45324 0.0
Co307 Co 0.79634 0.76228 0.55479 0.0
C308 C 0.76523 0.72046 0.48426 0.0
O309 O 0.77887 0.73852 0.45492 0.0
O310 O 0.76916 0.72633 0.52565 0.0
C311 C 0.78894 0.78186 0.36942 0.0
O312 O 0.76547 0.77233 0.39103 0.0
C313 C 0.77124 0.75079 0.64679 0.0
C314 C 0.80961 0.77009 0.68659 0.0
C315 C 0.78113 0.75694 0.69036 0.0
N316 N 0.79307 0.76035 0.61886 0.0
N317 N 0.81582 0.7715 0.64318 0.0
C318 C 0.74173 0.73463 0.63208 0.0
H319 H 0.73957 0.71947 0.6063 0.0
H320 H 0.73542 0.74864 0.61673 0.0
H321 H 0.72783 0.72368 0.6605 0.0
C322 C 0.79742 0.82209 0.48068 0.0
N323 N 0.7988 0.7992 0.48966 0.0
N324 N 0.79318 0.79278 0.53205 0.0
C325 C 0.78776 0.81148 0.55113 0.0
C326 C 0.79002 0.83033 0.51906 0.0
C327 C 0.8035 0.83609 0.43634 0.0
H328 H 0.78476 0.82561 0.41523 0.0
H329 H 0.8092 0.85809 0.43953 0.0
H330 H 0.82054 0.83481 0.41976 0.0
O331 O 0.84279 0.78042 0.47096 0.0
O332 O 0.83462 0.76921 0.54252 0.0
H333 H 0.79773 0.81009 0.61954 0.0
H334 H 0.78394 0.83265 0.60854 0.0
C335 C 0.78252 0.81271 0.5996 0.0
H336 H 0.76151 0.7958 0.60792 0.0
H337 H 0.83577 0.78081 0.63004 0.0
O338 O 0.81076 0.7872 0.39032 0.0
C339 C 0.8503 0.77619 0.50851 0.0
Co340 Co 0.22021 0.02644 0.45895 0.0
Co341 Co 0.23885 0.03236 0.55899 0.0
C342 C 0.27893 0.04326 0.48656 0.0
O343 O 0.25982 0.03881 0.45928 0.0
O344 O 0.27431 0.04076 0.5284 0.0
C345 C 0.21982 0.00567 0.3749 0.0
O346 O 0.23658 -0.00079 0.3954 0.0
C347 C 0.25188 0.02156 0.65213 0.0
C348 C 0.23275 0.04147 0.69011 0.0
C349 C 0.24645 0.02676 0.69527 0.0
N350 N 0.24164 0.03265 0.6231 0.0
N351 N 0.23053 0.0447 0.64636 0.0
C352 C 0.26774 0.00764 0.63887 0.0
H353 H 0.27111 0.00897 0.60239 0.0
H354 H 0.25639 0.98561 0.64893 0.0
H355 H 0.28794 0.01752 0.65638 0.0
C356 C 0.17782 0.97167 0.48958 0.0
N357 N 0.20057 0.99624 0.49699 0.0
N358 N 0.20813 0.99794 0.53885 0.0
C359 C 0.19021 0.97407 0.55941 0.0
C360 C 0.17047 0.95668 0.52877 0.0
C361 C 0.16226 0.96374 0.44656 0.0
H362 H 0.16172 0.98179 0.43236 0.0
H363 H 0.17309 0.9573 0.42264 0.0
H364 H 0.14077 0.94648 0.45098 0.0
O365 O 0.21518 0.0572 0.47641 0.0
O366 O 0.23151 0.06341 0.54521 0.0
H367 H 0.1906 0.9829 0.62866 0.0
H368 H 0.17634 0.9465 0.61631 0.0
C369 C 0.1924 0.96779 0.60705 0.0
H370 H 0.21292 0.96988 0.61264 0.0
H371 H 0.22076 0.05465 0.63231 0.0
O372 O 0.20853 0.01685 0.3967 0.0
C373 C 0.22172 0.07054 0.51275 0.0
Co374 Co 0.97018 0.19051 0.45769 0.0
Co375 Co 0.96586 0.20431 0.55815 0.0
C376 C 0.9554 0.23388 0.4862 0.0
O377 O 0.95889 0.21848 0.45913 0.0
O378 O 0.95834 0.23214 0.52801 0.0
C379 C 0.99016 0.21097 0.37338 0.0
O380 O 0.99777 0.23417 0.39476 0.0
C381 C 0.97743 0.22838 0.65129 0.0
C382 C 0.96073 0.18948 0.6894 0.0
C383 C 0.97421 0.21788 0.69438 0.0
N384 N 0.96667 0.20698 0.62239 0.0
N385 N 0.95645 0.18389 0.64576 0.0
C386 C 0.98896 0.25798 0.6381 0.0
H387 H 0.97721 0.25937 0.60946 0.0
H388 H 0.01079 0.26695 0.62757 0.0
H389 H 0.98812 0.2703 0.66638 0.0
C390 C 0.02473 0.20149 0.48689 0.0
N391 N 0.00056 0.20045 0.49493 0.0
N392 N -0.00053 0.20663 0.53685 0.0
C393 C 0.02328 0.21188 0.55684 0.0
C394 C 0.04001 0.20881 0.52576 0.0
C395 C 0.03199 0.19355 0.44355 0.0
H396 H 0.01353 0.1753 0.42951 0.0
H397 H 0.03874 0.21094 0.41977 0.0
H398 H 0.04886 0.1887 0.44747 0.0
O399 O 0.93884 0.15523 0.47608 0.0
O400 O 0.9339 0.16636 0.54493 0.0
H401 H 0.01548 0.20284 0.62616 0.0
H402 H 0.05158 0.22571 0.61278 0.0
C403 C 0.03005 0.22008 0.6045 0.0
H404 H 0.02752 0.23812 0.6112 0.0
H405 H 0.94717 0.16417 0.63175 0.0
O406 O 0.97894 0.18832 0.39472 0.0
C407 C 0.92579 0.14917 0.51275 0.0
Co408 Co 0.88572 0.52448 0.29474 0.0
Co409 Co 0.90368 0.5369 0.39493 0.0
C410 C 0.94421 0.56644 0.32315 0.0
O411 O 0.92516 0.55172 0.29587 0.0
O412 O 0.93949 0.56429 0.36499 0.0
C413 C 0.88551 0.54596 0.21214 0.0
O414 O 0.90116 0.56884 0.2343 0.0
C415 C 0.91688 0.56076 0.48784 0.0
C416 C 0.89312 0.52209 0.52603 0.0
C417 C 0.90907 0.55044 0.53096 0.0
N418 N 0.90552 0.53933 0.45906 0.0
N419 N 0.89171 0.51636 0.48243 0.0
C420 C 0.93593 0.5901 0.47431 0.0
H421 H 0.95032 0.59079 0.44823 0.0
H422 H 0.92387 0.59901 0.45976 0.0
H423 H 0.94789 0.60283 0.50319 0.0
C424 C 0.84274 0.5361 0.32445 0.0
N425 N 0.86573 0.53477 0.33221 0.0
N426 N 0.87296 0.54049 0.3742 0.0
C427 C 0.85455 0.54584 0.39453 0.0
C428 C 0.83487 0.54326 0.36355 0.0
C429 C 0.8273 0.52816 0.28132 0.0
H430 H 0.82745 0.50993 0.26705 0.0
H431 H 0.83773 0.54557 0.25753 0.0
H432 H 0.80557 0.52322 0.28562 0.0
O433 O 0.88065 0.48872 0.31207 0.0
O434 O 0.89638 0.49844 0.38126 0.0
H435 H 0.85248 0.53557 0.46342 0.0
H436 H 0.8401 0.55924 0.45099 0.0
C437 C 0.85578 0.55333 0.44253 0.0
H438 H 0.8765 0.57096 0.4501 0.0
H439 H 0.88056 0.49668 0.46845 0.0
O440 O 0.8747 0.52297 0.23239 0.0
C441 C 0.88682 0.48168 0.34852 0.0
Co442 Co 0.47271 0.35957 0.28938 0.0
Co443 Co 0.45816 0.36493 0.38847 0.0
C444 C 0.42794 0.37265 0.31365 0.0
O445 O 0.44342 0.36887 0.28724 0.0
O446 O 0.43037 0.37144 0.35574 0.0
C447 C 0.45529 0.3331 0.20731 0.0
O448 O 0.43206 0.31865 0.22931 0.0
C449 C 0.43275 0.35213 0.4805 0.0
C450 C 0.47041 0.37752 0.52008 0.0
C451 C 0.44238 0.35912 0.52404 0.0
N452 N 0.4543 0.36572 0.45237 0.0
N453 N 0.47659 0.38108 0.47656 0.0
C454 C 0.40343 0.33427 0.46589 0.0
H455 H 0.40228 0.33157 0.42925 0.0
H456 H 0.39402 0.31383 0.48243 0.0
H457 H 0.39127 0.34413 0.47599 0.0
C458 C 0.46298 0.30575 0.3213 0.0
N459 N 0.46352 0.3298 0.32802 0.0
N460 N 0.45664 0.33112 0.3695 0.0
C461 C 0.4512 0.30744 0.39032 0.0
C462 C 0.45466 0.29053 0.36016 0.0
C463 C 0.47284 0.29858 0.27979 0.0
H464 H 0.45546 0.28844 0.25593 0.0
H465 H 0.48044 0.28404 0.28704 0.0
H466 H 0.48967 0.31753 0.26422 0.0
O467 O 0.50718 0.39166 0.30744 0.0
O468 O 0.49624 0.39707 0.37606 0.0
H469 H 0.44183 0.28172 0.44906 0.0
H470 H 0.42145 0.29801 0.44142 0.0
C471 C 0.44246 0.30092 0.43782 0.0
H472 H 0.45682 0.31835 0.45928 0.0
H473 H 0.49632 0.39352 0.46341 0.0
O474 O 0.47658 0.35137 0.2274 0.0
C475 C 0.51338 0.40488 0.34384 0.0
Co476 Co 0.63807 0.11157 0.28565 0.0
Co477 Co 0.63249 0.09161 0.38495 0.0
C478 C 0.62334 0.05293 0.31171 0.0
O479 O 0.6271 0.07225 0.28536 0.0
O480 O 0.6255 0.05682 0.35376 0.0
C481 C 0.66449 0.11602 0.20639 0.0
O482 O 0.67478 0.10424 0.2318 0.0
C483 C 0.64336 0.07968 0.47891 0.0
C484 C 0.62146 0.09724 0.51557 0.0
C485 C 0.63747 0.085 0.52168 0.0
N486 N 0.63148 0.08866 0.44916 0.0
N487 N 0.61818 0.09877 0.47164 0.0
C488 C 0.65857 0.06491 0.46672 0.0
H489 H 0.65963 0.06338 0.43006 0.0
H490 H 0.67976 0.07578 0.48065 0.0
H491 H 0.64776 0.04386 0.4814 0.0
C492 C 0.69223 0.15484 0.31765 0.0
N493 N 0.6679 0.1316 0.32432 0.0
N494 N 0.6665 0.12317 0.36562 0.0
C495 C 0.69033 0.1409 0.38641 0.0
C496 C 0.70736 0.16144 0.35656 0.0
C497 C 0.69994 0.17158 0.27581 0.0
H498 H 0.7095 0.16347 0.25233 0.0
H499 H 0.71508 0.19363 0.28255 0.0
H500 H 0.68129 0.17005 0.26004 0.0
O501 O 0.60628 0.11516 0.30265 0.0
O502 O 0.60082 0.09774 0.37056 0.0
H503 H 0.71819 0.15398 0.44292 0.0
H504 H 0.69577 0.11741 0.4369 0.0
C505 C 0.69706 0.13771 0.43336 0.0
H506 H 0.68175 0.13835 0.45609 0.0
H507 H 0.60746 0.10756 0.45697 0.0
O508 O 0.64835 0.12329 0.2236 0.0
C509 C 0.59284 0.10727 0.33889 0.0
Co510 Co 0.86216 0.55518 0.93797 0.0
Co511 Co 0.8747 0.57423 0.83817 0.0
C512 C 0.9043 0.61363 0.9123 0.0
O513 O 0.88961 0.59441 0.93931 0.0
O514 O 0.9019 0.60932 0.87036 0.0
C515 C 0.88207 0.55211 0.02064 0.0
O516 O 0.9054 0.56659 0.99887 0.0
C517 C 0.89958 0.58421 0.74635 0.0
C518 C 0.86336 0.57701 0.70657 0.0
C519 C 0.89043 0.58278 0.70272 0.0
N520 N 0.87865 0.57917 0.77434 0.0
N521 N 0.85728 0.57532 0.75008 0.0
C522 C 0.92807 0.59188 0.76138 0.0
H523 H 0.92822 0.58808 0.79758 0.0
H524 H 0.93604 0.58027 0.74266 0.0
H525 H 0.94218 0.61417 0.75463 0.0
C526 C 0.8739 0.51253 0.90678 0.0
N527 N 0.87263 0.53561 0.89946 0.0
N528 N 0.87731 0.54248 0.8571 0.0
C529 C 0.88126 0.52331 0.83602 0.0
C530 C 0.87944 0.504 0.86695 0.0
C531 C 0.8697 0.49889 0.95123 0.0
H532 H 0.88696 0.51264 0.97345 0.0
H533 H 0.86932 0.47891 0.94916 0.0
H534 H 0.85011 0.49557 0.96617 0.0
O535 O 0.82656 0.55083 0.92027 0.0
O536 O 0.83638 0.56706 0.85138 0.0
H537 H 0.87724 0.49993 0.77661 0.0
H538 H 0.90546 0.53484 0.77679 0.0
C539 C 0.88363 0.5214 0.7868 0.0
H540 H 0.87052 0.52813 0.7694 0.0
H541 H 0.83813 0.57066 0.76317 0.0
O542 O 0.85938 0.5429 0.99987 0.0
C543 C 0.81961 0.55738 0.88405 0.0
Co544 Co 0.44362 0.3018 0.93199 0.0
Co545 Co 0.42615 0.30013 0.83223 0.0
C546 C 0.38657 0.29065 0.90492 0.0
O547 O 0.40511 0.29324 0.93209 0.0
O548 O 0.39131 0.29341 0.8631 0.0
C549 C 0.45152 0.32575 0.01619 0.0
O550 O 0.4444 0.34181 0.99503 0.0
C551 C 0.41386 0.31303 0.73971 0.0
C552 C 0.43566 0.29616 0.70088 0.0
C553 C 0.42086 0.3098 0.69642 0.0
N554 N 0.42449 0.30204 0.76819 0.0
N555 N 0.43717 0.29178 0.74441 0.0
C556 C 0.39613 0.32482 0.7535 0.0
H557 H 0.38309 0.31311 0.78229 0.0
H558 H 0.4093 0.34659 0.76406 0.0
H559 H 0.38287 0.3242 0.72553 0.0
C560 C 0.48959 0.35613 0.90438 0.0
N561 N 0.46567 0.33269 0.89616 0.0
N562 N 0.45823 0.3327 0.85461 0.0
C563 C 0.47721 0.35657 0.8353 0.0
C564 C 0.49762 0.37215 0.8663 0.0
C565 C 0.50577 0.36199 0.94659 0.0
H566 H 0.50212 0.34245 0.96211 0.0
H567 H 0.49911 0.37286 0.97003 0.0
H568 H 0.52823 0.37548 0.94027 0.0
O569 O 0.44563 0.26983 0.91153 0.0
O570 O 0.43054 0.26695 0.84252 0.0
H571 H 0.47823 0.35053 0.76532 0.0
H572 H 0.49142 0.38623 0.78124 0.0
C573 C 0.47554 0.36449 0.7884 0.0
H574 H 0.45488 0.36201 0.78256 0.0
H575 H 0.44749 0.28228 0.75803 0.0
O576 O 0.45421 0.30768 0.99482 0.0
C577 C 0.43876 0.25767 0.87418 0.0
Co578 Co 0.6932 0.14053 0.92987 0.0
Co579 Co 0.69762 0.12818 0.82892 0.0
C580 C 0.70814 0.09786 0.89997 0.0
O581 O 0.70486 0.11305 0.92765 0.0
O582 O 0.70496 0.09995 0.85838 0.0
C583 C 0.67518 0.1198 0.01481 0.0
O584 O 0.66807 0.09675 0.9933 0.0
C585 C 0.6829 0.1029 0.73774 0.0
C586 C 0.70643 0.14041 0.69681 0.0
C587 C 0.68817 0.11228 0.69384 0.0
N588 N 0.69711 0.12471 0.76503 0.0
N589 N 0.71137 0.14692 0.74012 0.0
C590 C 0.66617 0.07369 0.75359 0.0
H591 H 0.67777 0.06978 0.77982 0.0
H592 H 0.64669 0.07039 0.76881 0.0
H593 H 0.66129 0.05883 0.72588 0.0
C594 C 0.63807 0.12859 0.90201 0.0
N595 N 0.66246 0.13032 0.893 0.0
N596 N 0.66408 0.12624 0.85022 0.0
C597 C 0.64075 0.12263 0.83043 0.0
C598 C 0.62356 0.12393 0.86265 0.0
C599 C 0.62869 0.13036 0.94791 0.0
H600 H 0.62987 0.1149 0.96944 0.0
H601 H 0.60709 0.12617 0.94846 0.0
H602 H 0.6427 0.15116 0.96192 0.0
O603 O 0.72444 0.17628 0.91144 0.0
O604 O 0.72952 0.16587 0.84216 0.0
H605 H 0.62082 0.1273 0.7722 0.0
H606 H 0.62754 0.09908 0.7705 0.0
C607 C 0.63597 0.12078 0.7813 0.0
H608 H 0.65561 0.13403 0.76351 0.0
H609 H 0.72397 0.16677 0.75271 0.0
O610 O 0.68488 0.14235 0.99333 0.0
C611 C 0.73751 0.18274 0.87473 0.0
Co612 Co 0.44806 0.14105 0.43273 0.0
Co613 Co 0.42713 0.12636 0.334 0.0
C614 C 0.38892 0.09777 0.40829 0.0
O615 O 0.40862 0.11339 0.43392 0.0
O616 O 0.39241 0.09898 0.36616 0.0
C617 C 0.45166 0.11823 0.5113 0.0
O618 O 0.43984 0.09651 0.48517 0.0
C619 C 0.41436 0.10263 0.24084 0.0
C620 C 0.43021 0.14151 0.20299 0.0
C621 C 0.4187 0.11327 0.19773 0.0
N622 N 0.42321 0.12381 0.26995 0.0
N623 N 0.43228 0.14686 0.24678 0.0
C624 C 0.40061 0.07286 0.25406 0.0
H625 H 0.40059 0.0708 0.29077 0.0
H626 H 0.41116 0.06263 0.2386 0.0
H627 H 0.37899 0.06211 0.24171 0.0
C628 C 0.49031 0.12897 0.40012 0.0
N629 N 0.46736 0.1306 0.39361 0.0
N630 N 0.45875 0.12364 0.35238 0.0
C631 C 0.47618 0.11716 0.33139 0.0
C632 C 0.49647 0.12001 0.36122 0.0
C633 C 0.50726 0.13803 0.44174 0.0
H634 H 0.50664 0.15586 0.45665 0.0
H635 H 0.49857 0.12078 0.46604 0.0
H636 H 0.52906 0.1439 0.43498 0.0
O637 O 0.45208 0.17659 0.41578 0.0
O638 O 0.43383 0.16442 0.34837 0.0
H639 H 0.47197 0.12324 0.26223 0.0
H640 H 0.4906 0.1051 0.27319 0.0
C641 C 0.4732 0.10792 0.28408 0.0
H642 H 0.45384 0.08788 0.28069 0.0
H643 H 0.44074 0.16649 0.26086 0.0
O644 O 0.45968 0.14196 0.4947 0.0
C645 C 0.44386 0.18207 0.37982 0.0
Co646 Co 0.85676 0.30288 0.43531 0.0
Co647 Co 0.87132 0.29868 0.33579 0.0
C648 C 0.90134 0.2897 0.40911 0.0
O649 O 0.88589 0.29333 0.43584 0.0
O650 O 0.89901 0.29138 0.36709 0.0
C651 C 0.87485 0.32912 0.51713 0.0
O652 O 0.89766 0.34391 0.49427 0.0
C653 C 0.89648 0.31196 0.24366 0.0
C654 C 0.85808 0.29234 0.204 0.0
C655 C 0.88651 0.30799 0.20015 0.0
N656 N 0.87473 0.29943 0.27169 0.0
N657 N 0.85196 0.28747 0.24743 0.0
C658 C 0.92604 0.32582 0.25824 0.0
H659 H 0.92779 0.33103 0.29413 0.0
H660 H 0.93907 0.34459 0.23827 0.0
H661 H 0.93397 0.31137 0.25295 0.0
C662 C 0.8665 0.35712 0.40521 0.0
N663 N 0.86607 0.33316 0.39793 0.0
N664 N 0.87341 0.33238 0.35657 0.0
C665 C 0.87932 0.35638 0.33652 0.0
C666 C 0.87516 0.37277 0.36681 0.0
C667 C 0.85641 0.36391 0.44681 0.0
H668 H 0.8404 0.34476 0.46313 0.0
H669 H 0.87402 0.37514 0.46997 0.0
H670 H 0.84764 0.37746 0.43942 0.0
O671 O 0.82214 0.27125 0.41674 0.0
O672 O 0.83303 0.26659 0.34767 0.0
H673 H 0.87376 0.34913 0.2665 0.0
H674 H 0.89483 0.38524 0.28132 0.0
C675 C 0.88965 0.36387 0.28987 0.0
H676 H 0.90853 0.36235 0.28604 0.0
H677 H 0.83204 0.27666 0.26063 0.0
O678 O 0.85343 0.31055 0.49775 0.0
C679 C 0.81586 0.25851 0.3799 0.0
Co680 Co 0.69172 0.54968 0.43678 0.0
Co681 Co 0.69807 0.57011 0.33728 0.0
C682 C 0.70997 0.60923 0.41101 0.0
O683 O 0.70503 0.58928 0.43667 0.0
O684 O 0.70709 0.60562 0.36892 0.0
C685 C 0.66971 0.54924 0.51942 0.0
O686 O 0.66172 0.56408 0.49666 0.0
C687 C 0.68704 0.58249 0.2433 0.0
C688 C 0.70736 0.56346 0.20618 0.0
C689 C 0.69216 0.5766 0.20035 0.0
N690 N 0.69857 0.57296 0.27285 0.0
N691 N 0.7109 0.56195 0.25003 0.0
C692 C 0.67282 0.59818 0.25582 0.0
H693 H 0.67216 0.59993 0.2925 0.0
H694 H 0.65151 0.58785 0.24235 0.0
H695 H 0.6841 0.61914 0.24088 0.0
C696 C 0.63675 0.50861 0.40562 0.0
N697 N 0.66154 0.53116 0.39861 0.0
N698 N 0.66333 0.53947 0.35714 0.0
C699 C 0.63927 0.5222 0.33647 0.0
C700 C 0.62171 0.50218 0.36661 0.0
C701 C 0.62864 0.49232 0.44794 0.0
H702 H 0.64676 0.49203 0.46241 0.0
H703 H 0.62143 0.50236 0.47209 0.0
H704 H 0.61177 0.47076 0.44242 0.0
O705 O 0.72203 0.54412 0.41889 0.0
O706 O 0.72887 0.56222 0.35122 0.0
H707 H 0.6481 0.52381 0.26698 0.0
H708 H 0.6117 0.50915 0.27962 0.0
C709 C 0.63295 0.52513 0.28917 0.0
H710 H 0.63481 0.54564 0.2848 0.0
H711 H 0.72114 0.55258 0.26446 0.0
O712 O 0.68194 0.53842 0.49929 0.0
C713 C 0.73571 0.55158 0.38287 0.0
Co714 Co 0.47191 0.11047 0.78782 0.0
Co715 Co 0.45929 0.09424 0.88925 0.0
C716 C 0.43052 0.05244 0.81874 0.0
O717 O 0.44482 0.07102 0.79047 0.0
O718 O 0.43287 0.05788 0.86032 0.0
C719 C 0.45151 0.10843 0.70283 0.0
O720 O 0.42831 0.09203 0.72367 0.0
C721 C 0.43496 0.08286 0.98208 0.0
C722 C 0.47369 0.10535 0.02052 0.0
C723 C 0.44527 0.09047 0.02516 0.0
N724 N 0.4565 0.09318 0.95345 0.0
N725 N 0.4795 0.10627 0.977 0.0
C726 C 0.40539 0.0649 0.9687 0.0
H727 H 0.40385 0.05964 0.93287 0.0
H728 H 0.39352 0.07554 0.97518 0.0
H729 H 0.39591 0.04571 0.98894 0.0
C730 C 0.45827 0.1527 0.81448 0.0
N731 N 0.4609 0.13061 0.8239 0.0
N732 N 0.45476 0.12376 0.86597 0.0
C733 C 0.44778 0.14142 0.88459 0.0
C734 C 0.4496 0.16019 0.85247 0.0
C735 C 0.46631 0.16765 0.7709 0.0
H736 H 0.48528 0.16838 0.75806 0.0
H737 H 0.44946 0.15624 0.74652 0.0
H738 H 0.47004 0.18904 0.77406 0.0
O739 O 0.50764 0.1156 0.80624 0.0
O740 O 0.49809 0.10246 0.87696 0.0
H741 H 0.45623 0.1432 0.95422 0.0
H742 H 0.43285 0.15557 0.93958 0.0
C743 C 0.43906 0.14002 0.93196 0.0
H744 H 0.42121 0.11925 0.93848 0.0
H745 H 0.49929 0.11658 0.96321 0.0
O746 O 0.47391 0.12074 0.7247 0.0
C747 C 0.51458 0.11077 0.84388 0.0
Co748 Co 0.88669 0.36293 0.79137 0.0
Co749 Co 0.90388 0.36601 0.89173 0.0
C750 C 0.94397 0.37552 0.8196 0.0
O751 O 0.92538 0.37217 0.79195 0.0
O752 O 0.93911 0.37328 0.8614 0.0
C753 C 0.87982 0.33826 0.70802 0.0
O754 O 0.88794 0.32319 0.72981 0.0
C755 C 0.91524 0.35322 0.98504 0.0
C756 C 0.89634 0.37338 0.02297 0.0
C757 C 0.90951 0.35817 0.02817 0.0
N758 N 0.90573 0.365 0.95597 0.0
N759 N 0.8947 0.37714 0.97924 0.0
C760 C 0.93067 0.33883 0.9719 0.0
H761 H 0.93481 0.34082 0.93562 0.0
H762 H 0.91851 0.31662 0.98071 0.0
H763 H 0.95044 0.34779 0.99055 0.0
C764 C 0.84175 0.30833 0.81969 0.0
N765 N 0.865 0.33235 0.82807 0.0
N766 N 0.87243 0.33276 0.86975 0.0
C767 C 0.85413 0.30854 0.88899 0.0
C768 C 0.8343 0.29221 0.8577 0.0
C769 C 0.82558 0.30197 0.77737 0.0
H770 H 0.82786 0.3212 0.76267 0.0
H771 H 0.83351 0.29257 0.7533 0.0
H772 H 0.80334 0.28711 0.78329 0.0
O773 O 0.88409 0.39488 0.80975 0.0
O774 O 0.89837 0.39842 0.87967 0.0
H775 H 0.85498 0.3159 0.95886 0.0
H776 H 0.83948 0.27972 0.94428 0.0
C777 C 0.85609 0.30094 0.93594 0.0
H778 H 0.8763 0.30214 0.94071 0.0
H779 H 0.88543 0.38757 0.9652 0.0
O780 O 0.87615 0.35593 0.72869 0.0
C781 C 0.89033 0.40713 0.84696 0.0
Co782 Co 0.6404 0.5219 0.79291 0.0
Co783 Co 0.63399 0.53663 0.89184 0.0
C784 C 0.62207 0.56335 0.81718 0.0
O785 O 0.62711 0.54817 0.79218 0.0
O786 O 0.62478 0.56286 0.85936 0.0
C787 C 0.66376 0.54408 0.71182 0.0
O788 O 0.67263 0.56645 0.73616 0.0
C789 C 0.64596 0.56171 0.98421 0.0
C790 C 0.62702 0.52329 0.02383 0.0
C791 C 0.64215 0.55174 0.02777 0.0
N792 N 0.63391 0.53995 0.95611 0.0
N793 N 0.62232 0.51716 0.98038 0.0
C794 C 0.65922 0.59123 0.96964 0.0
H795 H 0.66438 0.59311 0.93371 0.0
H796 H 0.67794 0.60456 0.9895 0.0
H797 H 0.64439 0.59869 0.9751 0.0
C798 C 0.69526 0.53569 0.82445 0.0
N799 N 0.67055 0.53371 0.83117 0.0
N800 N 0.66885 0.54068 0.87238 0.0
C801 C 0.69295 0.5476 0.89312 0.0
C802 C 0.71038 0.54467 0.86332 0.0
C803 C 0.70324 0.52696 0.78258 0.0
H804 H 0.68491 0.5089 0.76785 0.0
H805 H 0.71128 0.54423 0.75835 0.0
H806 H 0.71952 0.52152 0.78885 0.0
O807 O 0.61016 0.48617 0.81131 0.0
O808 O 0.60339 0.49756 0.87893 0.0
H809 H 0.68446 0.54125 0.96278 0.0
H810 H 0.72078 0.56292 0.9496 0.0
C811 C 0.69947 0.55747 0.94009 0.0
H812 H 0.69757 0.57615 0.94382 0.0
H813 H 0.61198 0.49724 0.96716 0.0
O814 O 0.65034 0.5206 0.73046 0.0
C815 C 0.59662 0.47995 0.84748 0.0
Co816 Co 0.55235 0.85573 0.62216 0.0
Co817 Co 0.57154 0.86933 0.72176 0.0
C818 C 0.61103 0.89849 0.64875 0.0
O819 O 0.59182 0.88334 0.62195 0.0
O820 O 0.6067 0.89667 0.69066 0.0
C821 C 0.55059 0.87669 0.53968 0.0
O822 O 0.56584 0.89967 0.56186 0.0
C823 C 0.58412 0.89434 0.81348 0.0
C824 C 0.56558 0.85605 0.85347 0.0
C825 C 0.57839 0.8845 0.85709 0.0
N826 N 0.5747 0.87251 0.78567 0.0
N827 N 0.56406 0.8498 0.81008 0.0
C828 C 0.59983 0.92381 0.79845 0.0
H829 H 0.59297 0.92593 0.7648 0.0
H830 H 0.59786 0.9378 0.82237 0.0
H831 H 0.62206 0.93015 0.79618 0.0
C832 C 0.50988 0.86803 0.65274 0.0
N833 N 0.53267 0.86627 0.66018 0.0
N834 N 0.54041 0.87247 0.70191 0.0
C835 C 0.52253 0.87854 0.72236 0.0
C836 C 0.50281 0.87618 0.69168 0.0
C837 C 0.49389 0.8597 0.61012 0.0
H838 H 0.49359 0.84116 0.59627 0.0
H839 H 0.50418 0.87676 0.5857 0.0
H840 H 0.47233 0.85515 0.61508 0.0
O841 O 0.54783 0.82017 0.64016 0.0
O842 O 0.56454 0.83099 0.70868 0.0
H843 H 0.52451 0.87066 0.79148 0.0
H844 H 0.50724 0.89009 0.78012 0.0
C845 C 0.52446 0.88679 0.77008 0.0
H846 H 0.54409 0.90636 0.77527 0.0
H847 H 0.55483 0.82985 0.79701 0.0
O848 O 0.5406 0.85372 0.5599 0.0
C849 C 0.5547 0.81378 0.6766 0.0
Co850 Co 0.14072 0.69302 0.62643 0.0
Co851 Co 0.1255 0.69695 0.72579 0.0
C852 C 0.09642 0.70675 0.65158 0.0
O853 O 0.11186 0.7031 0.62476 0.0
O854 O 0.0983 0.70433 0.69351 0.0
C855 C 0.1239 0.66847 0.54272 0.0
O856 O 0.10029 0.65375 0.56362 0.0
C857 C 0.10006 0.68411 0.81806 0.0
C858 C 0.1382 0.70748 0.85755 0.0
C859 C 0.10993 0.69038 0.86161 0.0
N860 N 0.1217 0.69692 0.78984 0.0
N861 N 0.14429 0.71103 0.81401 0.0
C862 C 0.07053 0.66772 0.80363 0.0
H863 H 0.06907 0.66644 0.76682 0.0
H864 H 0.06066 0.64662 0.81792 0.0
H865 H 0.05905 0.67775 0.81638 0.0
C866 C 0.12971 0.63825 0.65631 0.0
N867 N 0.13076 0.66248 0.66387 0.0
N868 N 0.12364 0.66334 0.70536 0.0
C869 C 0.11752 0.63926 0.72534 0.0
C870 C 0.12084 0.62252 0.69467 0.0
C871 C 0.13947 0.63133 0.61446 0.0
H872 H 0.15673 0.65029 0.59965 0.0
H873 H 0.12222 0.62203 0.59022 0.0
H874 H 0.14641 0.61619 0.62101 0.0
O875 O 0.17531 0.72467 0.64562 0.0
O876 O 0.16353 0.72908 0.71415 0.0
H877 H 0.12316 0.64854 0.79485 0.0
H878 H 0.10547 0.61194 0.7825 0.0
C879 C 0.10807 0.63219 0.77245 0.0
H880 H 0.08789 0.63122 0.77605 0.0
H881 H 0.16413 0.72266 0.80079 0.0
O882 O 0.14509 0.68577 0.56415 0.0
C883 C 0.18098 0.73748 0.68237 0.0
Co884 Co 0.30606 0.44692 0.62053 0.0
Co885 Co 0.29915 0.42659 0.71985 0.0
C886 C 0.28934 0.3879 0.64572 0.0
O887 O 0.29391 0.40746 0.61942 0.0
O888 O 0.29135 0.39172 0.68776 0.0
C889 C 0.33183 0.45024 0.5409 0.0
O890 O 0.34142 0.43774 0.56614 0.0
C891 C 0.31087 0.41372 0.8122 0.0
C892 C 0.28621 0.42711 0.85131 0.0
C893 C 0.30411 0.41689 0.85562 0.0
N894 N 0.29769 0.42199 0.7838 0.0
N895 N 0.28272 0.42956 0.80769 0.0
C896 C 0.32819 0.40156 0.79797 0.0
H897 H 0.33158 0.4036 0.76147 0.0
H898 H 0.34831 0.41164 0.81555 0.0
H899 H 0.31739 0.37933 0.80709 0.0
C900 C 0.3604 0.4889 0.65314 0.0
N901 N 0.33576 0.46608 0.6598 0.0
N902 N 0.33377 0.45797 0.70144 0.0
C903 C 0.35751 0.47571 0.7226 0.0
C904 C 0.37521 0.49557 0.6924 0.0
C905 C 0.3686 0.50539 0.611 0.0
H906 H 0.35036 0.50514 0.59591 0.0
H907 H 0.37669 0.49603 0.58714 0.0
H908 H 0.38493 0.52711 0.61711 0.0
O909 O 0.27487 0.45144 0.63747 0.0
O910 O 0.26823 0.43406 0.70566 0.0
H911 H 0.34569 0.47097 0.79118 0.0
H912 H 0.3825 0.49209 0.78205 0.0
C913 C 0.3633 0.47364 0.77054 0.0
H914 H 0.36589 0.45542 0.77506 0.0
H915 H 0.27068 0.43723 0.79424 0.0
O916 O 0.31668 0.45865 0.55846 0.0
C917 C 0.26121 0.4442 0.67354 0.0
Co918 Co 0.52448 0.88428 0.26504 0.0
Co919 Co 0.53842 0.90221 0.16481 0.0
C920 C 0.56799 0.94238 0.23654 0.0
O921 O 0.55269 0.92367 0.26402 0.0
O922 O 0.56608 0.93743 0.19483 0.0
C923 C 0.54508 0.88293 0.34819 0.0
O924 O 0.56821 0.89802 0.32625 0.0
C925 C 0.56229 0.9139 0.07169 0.0
C926 C 0.52328 0.89561 0.03368 0.0
C927 C 0.55166 0.90848 0.02857 0.0
N928 N 0.54098 0.90445 0.10068 0.0
N929 N 0.51784 0.89384 0.07741 0.0
C930 C 0.5921 0.92909 0.08493 0.0
H931 H 0.5942 0.93232 0.12144 0.0
H932 H 0.60231 0.91732 0.07466 0.0
H933 H 0.60282 0.94933 0.06758 0.0
C934 C 0.53518 0.8404 0.23589 0.0
N935 N 0.53428 0.86361 0.22785 0.0
N936 N 0.54074 0.87098 0.18603 0.0
C937 C 0.54617 0.85252 0.16617 0.0
C938 C 0.54282 0.83258 0.19718 0.0
C939 C 0.52679 0.82492 0.27898 0.0
H940 H 0.54418 0.83499 0.30286 0.0
H941 H 0.52141 0.80307 0.27461 0.0
H942 H 0.50876 0.82553 0.29312 0.0
O943 O 0.48914 0.8804 0.24683 0.0
O944 O 0.50062 0.89638 0.17801 0.0
H945 H 0.53867 0.85298 0.09655 0.0
H946 H 0.55998 0.83798 0.11027 0.0
C947 C 0.55514 0.85441 0.11886 0.0
H948 H 0.57394 0.87469 0.11351 0.0
H949 H 0.49813 0.88473 0.09143 0.0
O950 O 0.52222 0.87302 0.32765 0.0
C951 C 0.48332 0.88746 0.21002 0.0
Co952 Co 0.11233 0.63596 0.26904 0.0
Co953 Co 0.09275 0.63246 0.17005 0.0
C954 C 0.05404 0.62207 0.24467 0.0
O955 O 0.07344 0.62567 0.27065 0.0
O956 O 0.05775 0.62435 0.20254 0.0
C957 C 0.12063 0.66131 0.35168 0.0
O958 O 0.11213 0.67602 0.32976 0.0
C959 C 0.0796 0.64495 0.07759 0.0
C960 C 0.10067 0.62747 0.03838 0.0
C961 C 0.08624 0.64148 0.03418 0.0
N962 N 0.09008 0.63372 0.10592 0.0
N963 N 0.10229 0.62307 0.08187 0.0
C964 C 0.06221 0.6571 0.09155 0.0
H965 H 0.05352 0.64968 0.1252 0.0
H966 H 0.07482 0.67993 0.09249 0.0
H967 H 0.04528 0.65151 0.06722 0.0
C968 C 0.15593 0.69079 0.23984 0.0
N969 N 0.13261 0.6667 0.23228 0.0
N970 N 0.12424 0.66616 0.19117 0.0
C971 C 0.14201 0.69045 0.17152 0.0
C972 C 0.16242 0.7069 0.20196 0.0
C973 C 0.17334 0.69702 0.28075 0.0
H974 H 0.17112 0.67769 0.29494 0.0
H975 H 0.16651 0.70684 0.3059 0.0
H976 H 0.19545 0.71152 0.27319 0.0
O977 O 0.11594 0.60502 0.2488 0.0
O978 O 0.09944 0.60053 0.1804 0.0
H979 H 0.14083 0.68335 0.10152 0.0
H980 H 0.15523 0.71937 0.1164 0.0
C981 C 0.13926 0.69789 0.12482 0.0
H982 H 0.11867 0.69586 0.12072 0.0
H983 H 0.11253 0.61342 0.09525 0.0
O984 O 0.12374 0.64316 0.33139 0.0
C985 C 0.10922 0.59255 0.21174 0.0
Co986 Co 0.35972 0.47203 0.26441 0.0
Co987 Co 0.36293 0.45742 0.1641 0.0
C988 C 0.37374 0.42807 0.23571 0.0
O989 O 0.37074 0.44385 0.26265 0.0
O990 O 0.37034 0.42945 0.19396 0.0
C991 C 0.34032 0.45184 0.34898 0.0
O992 O 0.3323 0.42857 0.32755 0.0
C993 C 0.35073 0.4334 0.07095 0.0
C994 C 0.36766 0.47241 0.03306 0.0
C995 C 0.35396 0.44402 0.02795 0.0
N996 N 0.36172 0.45475 0.09994 0.0
N997 N 0.37206 0.4779 0.0767 0.0
C998 C 0.33904 0.40375 0.08394 0.0
H999 H 0.35027 0.40223 0.11324 0.0
H1000 H 0.31701 0.39465 0.09329 0.0
H1001 H 0.34046 0.39163 0.05586 0.0
C1002 C 0.30476 0.46059 0.23684 0.0
N1003 N 0.32898 0.46196 0.22798 0.0
N1004 N 0.32959 0.45544 0.1861 0.0
C1005 C 0.30539 0.44966 0.16694 0.0
C1006 C 0.2888 0.45246 0.19865 0.0
C1007 C 0.29808 0.46904 0.28024 0.0
H1008 H 0.31663 0.48767 0.29318 0.0
H1009 H 0.29205 0.45211 0.30471 0.0
H1010 H 0.2809 0.47347 0.27677 0.0
O1011 O 0.39104 0.50713 0.24536 0.0
O1012 O 0.39536 0.49517 0.17677 0.0
H1013 H 0.31304 0.4582 0.09748 0.0
H1014 H 0.27685 0.43637 0.11128 0.0
C1015 C 0.2982 0.44131 0.11942 0.0
H1016 H 0.29997 0.42281 0.11291 0.0
H1017 H 0.38154 0.49759 0.0908 0.0
O1018 O 0.35154 0.47447 0.32758 0.0
C1019 C 0.40389 0.51263 0.20855 0.0
Co1020 Co 0.11298 0.47247 0.76763 0.0
Co1021 Co 0.09235 0.45787 0.6686 0.0
C1022 C 0.05415 0.42874 0.74295 0.0
O1023 O 0.07369 0.44436 0.76884 0.0
O1024 O 0.05777 0.43027 0.70085 0.0
C1025 C 0.11727 0.45028 0.84667 0.0
O1026 O 0.10557 0.42837 0.82095 0.0
C1027 C 0.07976 0.43367 0.57578 0.0
C1028 C 0.09435 0.47213 0.53726 0.0
C1029 C 0.08356 0.44396 0.53251 0.0
N1030 N 0.08821 0.45497 0.60454 0.0
N1031 N 0.09651 0.47776 0.58097 0.0
C1032 C 0.06687 0.40403 0.58944 0.0
H1033 H 0.06777 0.40226 0.62608 0.0
H1034 H 0.07736 0.39404 0.57295 0.0
H1035 H 0.04496 0.39286 0.57851 0.0
C1036 C 0.15629 0.46206 0.73462 0.0
N1037 N 0.13275 0.46263 0.72841 0.0
N1038 N 0.12431 0.45578 0.68707 0.0
C1039 C 0.14244 0.45042 0.66574 0.0
C1040 C 0.16316 0.45415 0.69534 0.0
C1041 C 0.17307 0.4711 0.77641 0.0
H1042 H 0.16498 0.45344 0.7999 0.0
H1043 H 0.19513 0.47808 0.76964 0.0
H1044 H 0.17148 0.48818 0.79221 0.0
O1045 O 0.11649 0.50779 0.75043 0.0
O1046 O 0.09878 0.49588 0.68263 0.0
H1047 H 0.15697 0.43827 0.60779 0.0
H1048 H 0.12024 0.42129 0.61478 0.0
C1049 C 0.13964 0.44126 0.61841 0.0
H1050 H 0.13859 0.45668 0.59651 0.0
H1051 H 0.10451 0.49744 0.59471 0.0
O1052 O 0.12483 0.47381 0.82967 0.0
C1053 C 0.10855 0.5134 0.71429 0.0
Co1054 Co 0.52635 0.63608 0.76702 0.0
Co1055 Co 0.53942 0.6312 0.66658 0.0
C1056 C 0.56858 0.61987 0.73829 0.0
O1057 O 0.55389 0.62399 0.76603 0.0
O1058 O 0.56654 0.62283 0.69656 0.0
C1059 C 0.5484 0.6589 0.84856 0.0
O1060 O 0.57098 0.66763 0.82476 0.0
C1061 C 0.56233 0.64265 0.57266 0.0
C1062 C 0.5229 0.62178 0.5358 0.0
C1063 C 0.55121 0.63724 0.52983 0.0
N1064 N 0.54136 0.63098 0.6023 0.0
N1065 N 0.51796 0.61834 0.57969 0.0
C1066 C 0.59229 0.65725 0.58502 0.0
H1067 H 0.59478 0.6568 0.62156 0.0
H1068 H 0.60261 0.67899 0.57352 0.0
H1069 H 0.60258 0.64714 0.56815 0.0
C1070 C 0.53767 0.69074 0.73702 0.0
N1071 N 0.53648 0.66646 0.72935 0.0
N1072 N 0.54259 0.66518 0.68746 0.0
C1073 C 0.54808 0.68898 0.6672 0.0
C1074 C 0.54514 0.70591 0.69801 0.0
C1075 C 0.52958 0.69822 0.78001 0.0
H1076 H 0.51178 0.67969 0.79485 0.0
H1077 H 0.54722 0.70598 0.80349 0.0
H1078 H 0.52397 0.71451 0.77527 0.0
O1079 O 0.49052 0.60492 0.74971 0.0
O1080 O 0.5015 0.59988 0.68081 0.0
H1081 H 0.5399 0.68045 0.59782 0.0
H1082 H 0.56147 0.71684 0.61067 0.0
C1083 C 0.55662 0.69563 0.61964 0.0
H1084 H 0.57531 0.69401 0.61402 0.0
H1085 H 0.49841 0.60786 0.59428 0.0
O1086 O 0.52505 0.64558 0.82956 0.0
C1087 C 0.48439 0.59186 0.71306 0.0
Co1088 Co 0.36085 0.88289 0.77026 0.0
Co1089 Co 0.36527 0.90281 0.67096 0.0
C1090 C 0.37569 0.94156 0.74459 0.0
O1091 O 0.37227 0.92224 0.77062 0.0
O1092 O 0.3728 0.93763 0.7026 0.0
C1093 C 0.33535 0.87962 0.84978 0.0
O1094 O 0.32521 0.89138 0.82399 0.0
C1095 C 0.3532 0.91492 0.57784 0.0
C1096 C 0.3758 0.89875 0.5396 0.0
C1097 C 0.35918 0.91041 0.53463 0.0
N1098 N 0.36564 0.90608 0.60676 0.0
N1099 N 0.37932 0.89678 0.58333 0.0
C1100 C 0.33738 0.92886 0.59122 0.0
H1101 H 0.33587 0.92935 0.62797 0.0
H1102 H 0.31638 0.91807 0.57655 0.0
H1103 H 0.34805 0.9503 0.5781 0.0
C1104 C 0.30604 0.84032 0.74016 0.0
N1105 N 0.33051 0.86315 0.73243 0.0
N1106 N 0.33138 0.87142 0.69114 0.0
C1107 C 0.30704 0.85393 0.6714 0.0
C1108 C 0.29015 0.83393 0.70209 0.0
C1109 C 0.29896 0.82363 0.78202 0.0
H1110 H 0.31773 0.82447 0.79605 0.0
H1111 H 0.29068 0.83233 0.80677 0.0
H1112 H 0.28304 0.80176 0.77584 0.0
O1113 O 0.39223 0.87894 0.75189 0.0
O1114 O 0.39699 0.89647 0.68412 0.0
H1115 H 0.31577 0.85733 0.60169 0.0
H1116 H 0.27924 0.8395 0.61479 0.0
C1117 C 0.29987 0.85667 0.62453 0.0
H1118 H 0.29964 0.87628 0.62127 0.0
H1119 H 0.39057 0.88833 0.59721 0.0
O1120 O 0.35101 0.87166 0.83274 0.0
C1121 C 0.40526 0.88684 0.71527 0.0
Co1122 Co 0.13853 0.44323 0.12329 0.0
Co1123 Co 0.12479 0.42611 0.22413 0.0
C1124 C 0.09556 0.3853 0.15304 0.0
O1125 O 0.1108 0.40386 0.12535 0.0
O1126 O 0.09732 0.39051 0.19466 0.0
C1127 C 0.11839 0.44192 0.0384 0.0
O1128 O 0.09511 0.42616 0.05953 0.0
C1129 C 0.10053 0.41432 0.31712 0.0
C1130 C 0.13942 0.436 0.35536 0.0
C1131 C 0.111 0.4215 0.36021 0.0
N1132 N 0.12199 0.42461 0.28831 0.0
N1133 N 0.14507 0.43718 0.31176 0.0
C1134 C 0.07088 0.39665 0.30387 0.0
H1135 H 0.06932 0.38402 0.27439 0.0
H1136 H 0.062 0.40981 0.29471 0.0
H1137 H 0.05858 0.38303 0.33177 0.0
C1138 C 0.12644 0.48642 0.15057 0.0
N1139 N 0.12799 0.46365 0.15948 0.0
N1140 N 0.12216 0.45695 0.20167 0.0
C1141 C 0.11684 0.47561 0.22102 0.0
C1142 C 0.11929 0.49477 0.18917 0.0
C1143 C 0.13387 0.50102 0.10669 0.0
H1144 H 0.11668 0.48939 0.08295 0.0
H1145 H 0.13763 0.52243 0.10957 0.0
H1146 H 0.15264 0.50161 0.09322 0.0
O1147 O 0.17405 0.4478 0.14249 0.0
O1148 O 0.16274 0.4322 0.21157 0.0
H1149 H 0.10494 0.49175 0.27721 0.0
H1150 H 0.09119 0.45505 0.27672 0.0
C1151 C 0.10961 0.47516 0.26899 0.0
H1152 H 0.12696 0.47742 0.28996 0.0
H1153 H 0.16483 0.44729 0.29784 0.0
O1154 O 0.14091 0.45372 0.06007 0.0
C1155 C 0.18002 0.44112 0.17953 0.0
Co1156 Co 0.55204 0.69125 0.12179 0.0
Co1157 Co 0.57035 0.69609 0.22179 0.0
C1158 C 0.61065 0.70772 0.14972 0.0
O1159 O 0.59155 0.70373 0.12279 0.0
O1160 O 0.60604 0.70469 0.19155 0.0
C1161 C 0.55233 0.66919 0.04028 0.0
O1162 O 0.56611 0.66059 0.06449 0.0
C1163 C 0.58219 0.68316 0.31384 0.0
C1164 C 0.56318 0.70255 0.35355 0.0
C1165 C 0.57616 0.68708 0.35736 0.0
N1166 N 0.5728 0.69554 0.28586 0.0
N1167 N 0.56184 0.70736 0.31012 0.0
C1168 C 0.59815 0.66961 0.2991 0.0
H1169 H 0.59268 0.66209 0.2644 0.0
H1170 H 0.59477 0.65251 0.32163 0.0
H1171 H 0.62052 0.6852 0.2999 0.0
C1172 C 0.50981 0.63607 0.15057 0.0
N1173 N 0.53238 0.66062 0.15889 0.0
N1174 N 0.53975 0.66178 0.20076 0.0
C1175 C 0.52185 0.63753 0.22041 0.0
C1176 C 0.50251 0.62041 0.18905 0.0
C1177 C 0.49414 0.62891 0.10767 0.0
H1178 H 0.49422 0.64739 0.09399 0.0
H1179 H 0.50441 0.62208 0.08332 0.0
H1180 H 0.47245 0.61207 0.11216 0.0
O1181 O 0.54665 0.72166 0.13993 0.0
O1182 O 0.56289 0.72723 0.20877 0.0
H1183 H 0.52268 0.64651 0.28972 0.0
H1184 H 0.50628 0.60997 0.2773 0.0
C1185 C 0.52333 0.63078 0.26808 0.0
H1186 H 0.54314 0.6313 0.27385 0.0
H1187 H 0.5526 0.71804 0.29691 0.0
O1188 O 0.54167 0.68203 0.059 0.0
C1189 C 0.55308 0.73463 0.17663 0.0
Co1190 Co 0.30366 0.85654 0.12533 0.0
Co1191 Co 0.30043 0.87097 0.22582 0.0
C1192 C 0.28912 0.90005 0.15405 0.0
O1193 O 0.29231 0.88454 0.12679 0.0
O1194 O 0.29249 0.89848 0.19576 0.0
C1195 C 0.3237 0.87698 0.04124 0.0
O1196 O 0.33152 0.90014 0.06288 0.0
C1197 C 0.31329 0.89531 0.31879 0.0
C1198 C 0.29539 0.85644 0.35719 0.0
C1199 C 0.30983 0.88485 0.36193 0.0
N1200 N 0.30168 0.87385 0.29006 0.0
N1201 N 0.29077 0.85079 0.31361 0.0
C1202 C 0.32579 0.92501 0.30549 0.0
H1203 H 0.31908 0.92669 0.27149 0.0
H1204 H 0.34863 0.93522 0.30583 0.0
H1205 H 0.31971 0.93608 0.32956 0.0
C1206 C 0.3588 0.8684 0.1529 0.0
N1207 N 0.33449 0.86686 0.1618 0.0
N1208 N 0.33392 0.87345 0.20365 0.0
C1209 C 0.35822 0.87954 0.2227 0.0
C1210 C 0.37484 0.87677 0.191 0.0
C1211 C 0.36545 0.85978 0.10965 0.0
H1212 H 0.3469 0.84112 0.09681 0.0
H1213 H 0.37156 0.87664 0.08502 0.0
H1214 H 0.38261 0.85531 0.11331 0.0
O1215 O 0.27251 0.82127 0.14442 0.0
O1216 O 0.26845 0.83296 0.21332 0.0
H1217 H 0.35071 0.87173 0.29235 0.0
H1218 H 0.3869 0.89322 0.2782 0.0
C1219 C 0.36557 0.88833 0.27001 0.0
H1220 H 0.36396 0.907 0.27581 0.0
H1221 H 0.28076 0.83101 0.29978 0.0
O1222 O 0.31215 0.85423 0.0623 0.0
C1223 C 0.25991 0.81553 0.18149 0.0
C1224 C 0.35457 0.27907 0.96999 0.0
C1225 C 0.35856 0.2816 0.92343 0.0
C1226 C 0.32807 0.26607 0.98887 0.0
C1227 C 0.30435 0.25503 0.96206 0.0
H1228 H 0.37204 0.28608 0.99229 0.0
H1229 H 0.32621 0.2634 0.02461 0.0
S1230 S 0.30338 0.26059 0.83878 0.0
N1231 N 0.33649 0.27509 0.85141 0.0
N1232 N 0.2867 0.25093 0.88658 0.0
C1233 C 0.30807 0.25945 0.91563 0.0
C1234 C 0.33513 0.27268 0.89642 0.0
C1235 C 0.71973 0.07733 0.96461 0.0
C1236 C 0.71743 0.07902 0.91804 0.0
C1237 C 0.73206 0.06326 0.98356 0.0
C1238 C 0.74276 0.05028 0.95681 0.0
H1239 H 0.713 0.08797 0.98696 0.0
H1240 H 0.73449 0.06389 0.01934 0.0
S1241 S 0.73802 0.04447 0.8334 0.0
N1242 N 0.72404 0.06359 0.84594 0.0
N1243 N 0.74705 0.03687 0.88128 0.0
C1244 C 0.73874 0.04994 0.91029 0.0
C1245 C 0.72615 0.06436 0.89098 0.0
C1246 C 0.93157 0.66522 0.90373 0.0
C1247 C 0.92212 0.64183 0.93101 0.0
C1248 C 0.94406 0.69186 0.922 0.0
C1249 C 0.94766 0.69633 0.9684 0.0
H1250 H 0.92814 0.66294 0.86817 0.0
H1251 H 0.94998 0.70902 0.89939 0.0
S1252 S 0.9305 0.64234 0.05393 0.0
N1253 N 0.92031 0.62517 0.00665 0.0
N1254 N 0.94354 0.67518 0.0406 0.0
C1255 C 0.94008 0.6733 0.99577 0.0
C1256 C 0.92739 0.64612 0.9772 0.0
C1257 C 0.25332 0.30977 0.63516 0.0
C1258 C 0.25121 0.30544 0.58868 0.0
C1259 C 0.26697 0.3364 0.65348 0.0
C1260 C 0.27914 0.35993 0.6262 0.0
H1261 H 0.24348 0.29247 0.6579 0.0
H1262 H 0.26689 0.33848 0.68927 0.0
S1263 S 0.28294 0.36003 0.50254 0.0
N1264 N 0.26498 0.32702 0.51599 0.0
N1265 N 0.29083 0.37705 0.55004 0.0
C1266 C 0.27882 0.35589 0.57968 0.0
C1267 C 0.26485 0.32871 0.56105 0.0
C1268 C 0.64268 0.91708 0.58292 0.0
C1269 C 0.63898 0.91683 0.62948 0.0
C1270 C 0.66902 0.93086 0.56348 0.0
C1271 C 0.69284 0.94505 0.5897 0.0
H1272 H 0.62516 0.90559 0.56109 0.0
H1273 H 0.67072 0.92914 0.52789 0.0
S1274 S 0.69451 0.95509 0.71223 0.0
N1275 N 0.6614 0.93505 0.70058 0.0
N1276 N 0.71087 0.96124 0.66423 0.0
C1277 C 0.68937 0.94682 0.63594 0.0
C1278 C 0.6625 0.93268 0.65576 0.0
C1279 C 0.07828 0.72079 0.58624 0.0
C1280 C 0.07822 0.71659 0.63262 0.0
C1281 C 0.06507 0.73415 0.56755 0.0
C1282 C 0.0512 0.74389 0.59439 0.0
H1283 H 0.08965 0.71479 0.56407 0.0
H1284 H 0.067 0.73808 0.53211 0.0
S1285 S 0.0408 0.73394 0.71677 0.0
N1286 N 0.06013 0.72026 0.70411 0.0
N1287 N 0.03517 0.74514 0.66936 0.0
C1288 C 0.04916 0.73792 0.64042 0.0
C1289 C 0.06266 0.72433 0.65942 0.0
C1290 C 0.66883 0.73433 0.06472 0.0
C1291 C 0.69264 0.74422 0.09104 0.0
C1292 C 0.64246 0.72135 0.08405 0.0
C1293 C 0.63871 0.71773 0.1306 0.0
H1294 H 0.67054 0.73787 0.02916 0.0
H1295 H 0.62494 0.71513 0.06214 0.0
S1296 S 0.69421 0.73545 0.21354 0.0
N1297 N 0.71063 0.746 0.16564 0.0
N1298 N 0.66108 0.722 0.20174 0.0
C1299 C 0.66222 0.7256 0.15695 0.0
C1300 C 0.68913 0.73873 0.13724 0.0
C1301 C 0.27694 0.92 0.08904 0.0
C1302 C 0.27963 0.91866 0.13559 0.0
C1303 C 0.26458 0.9341 0.07013 0.0
C1304 C 0.25425 0.94745 0.0969 0.0
H1305 H 0.28351 0.90917 0.06674 0.0
H1306 H 0.26193 0.93333 0.03439 0.0
S1307 S 0.25985 0.95387 0.2202 0.0
N1308 N 0.27362 0.9346 0.20758 0.0
N1309 N 0.25051 0.96123 0.1724 0.0
C1310 C 0.25852 0.94794 0.14336 0.0
C1311 C 0.27116 0.93355 0.16259 0.0
C1312 C 0.06116 0.32641 0.07002 0.0
C1313 C 0.04959 0.30276 0.09701 0.0
C1314 C 0.07466 0.35293 0.08869 0.0
C1315 C 0.07718 0.35703 0.13521 0.0
H1316 H 0.06097 0.32453 0.03416 0.0
H1317 H 0.08415 0.37035 0.06617 0.0
S1318 S 0.04697 0.30198 0.2208 0.0
N1319 N 0.03881 0.2852 0.17306 0.0
N1320 N 0.06438 0.33508 0.20773 0.0
C1321 C 0.06404 0.33362 0.16262 0.0
C1322 C 0.05024 0.30653 0.14364 0.0
C1323 C 0.72614 0.66004 0.40535 0.0
C1324 C 0.72078 0.63707 0.43155 0.0
C1325 C 0.73898 0.68676 0.4235 0.0
C1326 C 0.74698 0.69167 0.46863 0.0
H1327 H 0.72118 0.65755 0.37025 0.0
H1328 H 0.74352 0.70386 0.40146 0.0
S1329 S 0.73646 0.63864 0.5524 0.0
N1330 N 0.72341 0.62107 0.50611 0.0
N1331 N 0.74742 0.67119 0.5395 0.0
C1332 C 0.74053 0.66882 0.49574 0.0
C1333 C 0.72753 0.64159 0.47738 0.0
C1334 C 0.31092 0.05521 0.42135 0.0
C1335 C 0.30713 0.05339 0.46797 0.0
C1336 C 0.33734 0.06819 0.40216 0.0
C1337 C 0.3612 0.07995 0.42869 0.0
H1338 H 0.29333 0.04743 0.39916 0.0
H1339 H 0.339 0.07006 0.36631 0.0
S1340 S 0.3628 0.07733 0.55236 0.0
N1341 N 0.3296 0.06197 0.53997 0.0
N1342 N 0.37924 0.08614 0.50431 0.0
C1343 C 0.35772 0.07661 0.47535 0.0
C1344 C 0.33074 0.0634 0.49486 0.0
C1345 C 0.92931 0.26616 0.40176 0.0
C1346 C 0.91989 0.28041 0.42827 0.0
C1347 C 0.942 0.25244 0.42085 0.0
C1348 C 0.94585 0.25234 0.46731 0.0
H1349 H 0.92556 0.26428 0.36626 0.0
H1350 H 0.94772 0.24079 0.39884 0.0
S1351 S 0.92933 0.29087 0.55064 0.0
N1352 N 0.91873 0.29689 0.50292 0.0
N1353 N 0.94229 0.27078 0.53858 0.0
C1354 C 0.93847 0.2683 0.49384 0.0
C1355 C 0.92559 0.2824 0.47438 0.0
C1356 C 0.97609 0.58582 0.25772 0.0
C1357 C 0.97235 0.58465 0.30436 0.0
C1358 C 0.00245 0.59938 0.23838 0.0
C1359 C 0.02631 0.61246 0.26476 0.0
H1360 H 0.95853 0.57524 0.23564 0.0
H1361 H 0.0041 0.59841 0.20262 0.0
S1362 S 0.02805 0.61969 0.38799 0.0
N1363 N 0.99486 0.6007 0.37597 0.0
N1364 N 0.04442 0.62656 0.33991 0.0
C1365 C 0.02287 0.61331 0.31126 0.0
C1366 C 0.99594 0.59935 0.33097 0.0
C1367 C 0.3868 0.40935 0.3012 0.0
C1368 C 0.38322 0.40958 0.25469 0.0
C1369 C 0.39954 0.39575 0.32047 0.0
C1370 C 0.40932 0.38175 0.29411 0.0
H1371 H 0.38082 0.42082 0.32313 0.0
H1372 H 0.40305 0.39754 0.35604 0.0
S1373 S 0.40071 0.37169 0.17159 0.0
N1374 N 0.38742 0.3915 0.18346 0.0
N1375 N 0.41111 0.36562 0.21947 0.0
C1376 C 0.40389 0.37986 0.24791 0.0
C1377 C 0.39093 0.39383 0.22827 0.0
C1378 C 0.58808 0.97488 0.30104 0.0
C1379 C 0.58637 0.97064 0.25455 0.0
C1380 C 0.60148 0.00148 0.31949 0.0
C1381 C 0.6138 0.02506 0.2923 0.0
H1382 H 0.57802 0.95752 0.32364 0.0
H1383 H 0.60098 0.0035 0.35523 0.0
S1384 S 0.6191 0.02541 0.16886 0.0
N1385 N 0.601 0.99237 0.18208 0.0
N1386 N 0.62642 0.04234 0.21641 0.0
C1387 C 0.61407 0.02111 0.24587 0.0
C1388 C 0.60035 0.99396 0.2271 0.0
C1389 C 0.39642 0.99284 0.73686 0.0
C1390 C 0.38543 0.96939 0.76426 0.0
C1391 C 0.40968 0.01949 0.75506 0.0
C1392 C 0.41254 0.02392 0.8015 0.0
H1393 H 0.39592 0.99074 0.70103 0.0
H1394 H 0.41867 0.03676 0.73219 0.0
S1395 S 0.38384 0.96941 0.88809 0.0
N1396 N 0.37556 0.95232 0.84063 0.0
N1397 N 0.40067 0.00243 0.87443 0.0
C1398 C 0.40001 0.00068 0.82934 0.0
C1399 C 0.38645 0.97345 0.81084 0.0
C1400 C 0.97611 0.38629 0.75495 0.0
C1401 C 0.97209 0.38465 0.80151 0.0
C1402 C 0.00263 0.39906 0.73612 0.0
C1403 C 0.02634 0.41075 0.76297 0.0
H1404 H 0.95864 0.37867 0.73251 0.0
H1405 H 0.00447 0.40094 0.70028 0.0
S1406 S 0.02727 0.40804 0.88667 0.0
N1407 N 0.99415 0.39298 0.87383 0.0
N1408 N 0.04397 0.41669 0.83883 0.0
C1409 C 0.02261 0.40734 0.80958 0.0
C1410 C 0.99554 0.39437 0.82872 0.0
C1411 C 0.59241 0.61124 0.80181 0.0
C1412 C 0.58609 0.60892 0.75597 0.0
C1413 C 0.6049 0.59734 0.82123 0.0
C1414 C 0.61155 0.58042 0.79567 0.0
H1415 H 0.58689 0.62328 0.82331 0.0
H1416 H 0.60859 0.59925 0.85673 0.0
S1417 S 0.60036 0.56836 0.67352 0.0
N1418 N 0.58852 0.58937 0.68529 0.0
N1419 N 0.61185 0.56322 0.72101 0.0
C1420 C 0.60638 0.57889 0.74927 0.0
C1421 C 0.59377 0.59316 0.72963 0.0
C1422 C 0.24896 0.2361 0.31443 0.0
C1423 C 0.23032 0.24591 0.31972 0.0
C1424 C 0.25593 0.23101 0.27194 0.0
C1425 C 0.24478 0.23578 0.2332 0.0
H1426 H 0.25623 0.22989 0.34309 0.0
H1427 H 0.26863 0.22143 0.26947 0.0
S1428 S 0.19645 0.26311 0.22907 0.0
N1429 N 0.20237 0.262 0.28259 0.0
N1430 N 0.21507 0.25198 0.20309 0.0
C1431 C 0.22756 0.24726 0.23801 0.0
C1432 C 0.22043 0.25241 0.28119 0.0
C1433 C 0.76113 0.01282 0.31088 0.0
C1434 C 0.75018 0.98421 0.31645 0.0
C1435 C 0.76639 0.02476 0.26822 0.0
C1436 C 0.76063 0.00854 0.22958 0.0
H1437 H 0.7681 0.02644 0.33939 0.0
H1438 H 0.77685 0.04708 0.26551 0.0
S1439 S 0.73028 0.93245 0.22618 0.0
N1440 N 0.73207 0.93979 0.27966 0.0
N1441 N 0.74239 0.96224 0.19991 0.0
C1442 C 0.74806 0.97976 0.2347 0.0
C1443 C 0.74275 0.96762 0.27804 0.0
C1444 C 0.97268 0.7526 0.27613 0.0
C1445 C 0.98818 0.75689 0.237 0.0
C1446 C 0.98488 0.75683 0.31836 0.0
C1447 C 0.01313 0.76556 0.32313 0.0
H1448 H 0.95131 0.74763 0.27403 0.0
H1449 H 0.97262 0.75561 0.34703 0.0
S1450 S 0.06266 0.77858 0.23157 0.0
N1451 N 0.03315 0.76944 0.20606 0.0
N1452 N 0.05593 0.77693 0.2853 0.0
C1453 C 0.02849 0.76842 0.28441 0.0
C1454 C 0.01606 0.76411 0.24138 0.0
C1455 C 0.77518 0.74781 0.77199 0.0
C1456 C 0.76675 0.75533 0.7328 0.0
C1457 C 0.768 0.75303 0.81421 0.0
C1458 C 0.75224 0.76616 0.81885 0.0
H1459 H 0.78896 0.73945 0.77003 0.0
H1460 H 0.77699 0.74902 0.84311 0.0
S1461 S 0.72368 0.78863 0.72701 0.0
N1462 N 0.74061 0.77537 0.70161 0.0
N1463 N 0.72699 0.785 0.78077 0.0
C1464 C 0.7423 0.77226 0.77998 0.0
C1465 C 0.74951 0.76683 0.737 0.0
C1466 C 0.23305 0.97492 0.78658 0.0
C1467 C 0.23838 0.99097 0.8253 0.0
C1468 C 0.23838 0.98698 0.74405 0.0
C1469 C 0.24904 0.01557 0.73871 0.0
H1470 H 0.22282 0.9526 0.78909 0.0
H1471 H 0.23168 0.97345 0.71545 0.0
S1472 S 0.26791 0.06695 0.82928 0.0
N1473 N 0.25599 0.03712 0.85533 0.0
N1474 N 0.26647 0.05981 0.77576 0.0
C1475 C 0.25609 0.03202 0.77721 0.0
C1476 C 0.25069 0.01975 0.82043 0.0
C1477 C 0.97021 0.22248 0.7762 0.0
C1478 C 0.98632 0.23197 0.73727 0.0
C1479 C 0.98236 0.22944 0.81862 0.0
C1480 C 0.01116 0.24594 0.82369 0.0
H1481 H 0.9482 0.20807 0.77382 0.0
H1482 H 0.96934 0.21975 0.8473 0.0
S1483 S 0.06247 0.27734 0.73271 0.0
N1484 N 0.03249 0.25997 0.70683 0.0
N1485 N 0.05528 0.27298 0.78637 0.0
C1486 C 0.0273 0.25689 0.78514 0.0
C1487 C 0.01491 0.25 0.74197 0.0
C1488 C 0.91631 0.55383 0.61308 0.0
C1489 C 0.91177 0.5648 0.57388 0.0
C1490 C 0.91191 0.56171 0.65528 0.0
C1491 C 0.90274 0.58088 0.65997 0.0
H1492 H 0.92163 0.53767 0.61105 0.0
H1493 H 0.91335 0.55083 0.684 0.0
S1494 S 0.88891 0.61667 0.56824 0.0
N1495 N 0.89849 0.59662 0.54281 0.0
N1496 N 0.89068 0.61174 0.62198 0.0
C1497 C 0.89962 0.59315 0.62118 0.0
C1498 C 0.9041 0.58513 0.57819 0.0
C1499 C 0.41691 0.31735 0.5723 0.0
C1500 C 0.42899 0.34609 0.5669 0.0
C1501 C 0.41182 0.30539 0.61484 0.0
C1502 C 0.41844 0.32165 0.65358 0.0
H1503 H 0.41375 0.30425 0.54383 0.0
H1504 H 0.40442 0.28344 0.61746 0.0
S1505 S 0.44849 0.39769 0.65726 0.0
N1506 N 0.44564 0.39029 0.6037 0.0
N1507 N 0.43623 0.36786 0.6835 0.0
C1508 C 0.42871 0.35015 0.64856 0.0
C1509 C 0.43401 0.36235 0.60525 0.0
C1510 C 0.69076 0.10458 0.61266 0.0
C1511 C 0.67466 0.09819 0.65158 0.0
C1512 C 0.6785 0.09777 0.57033 0.0
C1513 C 0.64962 0.08439 0.5653 0.0
H1514 H 0.71311 0.11651 0.61481 0.0
H1515 H 0.69186 0.10526 0.54152 0.0
S1516 S 0.59806 0.06181 0.65636 0.0
N1517 N 0.62819 0.07662 0.68213 0.0
N1518 N 0.6052 0.06353 0.6028 0.0
C1519 C 0.63326 0.07645 0.60398 0.0
C1520 C 0.64574 0.08334 0.64708 0.0
C1521 C 0.43856 0.08004 0.10629 0.0
C1522 C 0.431 0.08886 0.06762 0.0
C1523 C 0.43201 0.08549 0.14886 0.0
C1524 C 0.4178 0.10016 0.15431 0.0
H1525 H 0.4513 0.07052 0.10369 0.0
H1526 H 0.4404 0.08041 0.17741 0.0
S1527 S 0.39245 0.12692 0.06392 0.0
N1528 N 0.40775 0.11223 0.03773 0.0
N1529 N 0.39508 0.12207 0.11744 0.0
C1530 C 0.40875 0.10767 0.11588 0.0
C1531 C 0.41538 0.10209 0.07259 0.0
C1532 C 0.90073 0.31804 0.07678 0.0
C1533 C 0.91167 0.34668 0.07163 0.0
C1534 C 0.8951 0.30583 0.11923 0.0
C1535 C 0.90047 0.3218 0.15807 0.0
H1536 H 0.89408 0.30461 0.04804 0.0
H1537 H 0.88468 0.2835 0.12159 0.0
S1538 S 0.93064 0.39784 0.16261 0.0
N1539 N 0.92934 0.39085 0.10904 0.0
N1540 N 0.91836 0.3679 0.18844 0.0
C1541 C 0.91302 0.35061 0.15341 0.0
C1542 C 0.91869 0.36302 0.11027 0.0
C1543 C 0.63952 0.55999 0.1088 0.0
C1544 C 0.65566 0.56586 0.07001 0.0
C1545 C 0.65167 0.5661 0.15133 0.0
C1546 C 0.68044 0.5781 0.15668 0.0
H1547 H 0.61717 0.54888 0.10637 0.0
H1548 H 0.63818 0.55905 0.18002 0.0
S1549 S 0.73202 0.59835 0.06597 0.0
N1550 N 0.70203 0.58511 0.03998 0.0
N1551 N 0.72483 0.59694 0.11948 0.0
C1552 C 0.69688 0.58545 0.11809 0.0
C1553 C 0.68453 0.57929 0.07487 0.0
C1554 C 0.58879 0.89268 0.93809 0.0
C1555 C 0.57874 0.89858 0.89911 0.0
C1556 C 0.58232 0.89854 0.98041 0.0
C1557 C 0.56532 0.91031 0.98529 0.0
H1558 H 0.60015 0.88168 0.93592 0.0
H1559 H 0.58857 0.89144 0.00924 0.0
S1560 S 0.53481 0.93095 0.89393 0.0
N1561 N 0.55186 0.91791 0.86834 0.0
N1562 N 0.54006 0.92927 0.94757 0.0
C1563 C 0.55657 0.91784 0.94655 0.0
C1564 C 0.56321 0.91194 0.90353 0.0
C1565 C 0.07621 0.63734 0.95288 0.0
C1566 C 0.0843 0.6538 0.99151 0.0
C1567 C 0.08191 0.64923 0.91022 0.0
C1568 C 0.09613 0.67809 0.90461 0.0
H1569 H 0.06718 0.61514 0.95567 0.0
H1570 H 0.07747 0.63577 0.88182 0.0
S1571 S 0.12026 0.73036 0.99465 0.0
N1572 N 0.10594 0.70045 0.02107 0.0
N1573 N 0.1164 0.72275 0.94115 0.0
C1574 C 0.10266 0.69468 0.94289 0.0
C1575 C 0.09677 0.68257 0.98628 0.0
C1576 C 0.34593 0.43294 0.90369 0.0
C1577 C 0.31712 0.41655 0.8985 0.0
C1578 C 0.35802 0.43965 0.94615 0.0
C1579 C 0.34184 0.43007 0.985 0.0
H1580 H 0.35901 0.44274 0.87512 0.0
H1581 H 0.38004 0.45397 0.94864 0.0
S1582 S 0.26565 0.38501 0.98923 0.0
N1583 N 0.27292 0.38954 0.93561 0.0
N1584 N 0.29561 0.40217 0.01523 0.0
C1585 C 0.31324 0.41219 0.98017 0.0
C1586 C 0.30091 0.40551 0.93695 0.0
C1587 C 0.09909 0.4178 0.48432 0.0
C1588 C 0.0832 0.43076 0.48947 0.0
C1589 C 0.10591 0.4125 0.44187 0.0
C1590 C 0.09691 0.4197 0.403 0.0
H1591 H 0.10844 0.414 0.51297 0.0
H1592 H 0.11986 0.40435 0.43944 0.0
S1593 S 0.05332 0.45246 0.39861 0.0
N1594 N 0.05731 0.44918 0.45225 0.0
N1595 N 0.07009 0.43922 0.37266 0.0
C1596 C 0.07951 0.43099 0.40776 0.0
C1597 C 0.07275 0.43658 0.45096 0.0
C1598 C 0.58118 0.67763 0.48074 0.0
C1599 C 0.56434 0.64888 0.48612 0.0
C1600 C 0.58717 0.68974 0.43822 0.0
C1601 C 0.5768 0.67359 0.39953 0.0
H1602 H 0.58769 0.69113 0.5094 0.0
H1603 H 0.59846 0.71209 0.43573 0.0
S1604 S 0.53291 0.59728 0.39558 0.0
N1605 N 0.53873 0.60448 0.44907 0.0
N1606 N 0.54963 0.62724 0.36951 0.0
C1607 C 0.56134 0.64473 0.40439 0.0
C1608 C 0.55519 0.63241 0.44761 0.0
C1609 C 0.30608 0.89095 0.44333 0.0
C1610 C 0.32247 0.89882 0.40462 0.0
C1611 C 0.31807 0.89729 0.48591 0.0
C1612 C 0.34695 0.91154 0.49135 0.0
H1613 H 0.28382 0.87817 0.44071 0.0
H1614 H 0.30462 0.88875 0.51448 0.0
S1615 S 0.39909 0.93788 0.40096 0.0
N1616 N 0.36911 0.92264 0.37475 0.0
N1617 N 0.39159 0.93474 0.4545 0.0
C1618 C 0.36351 0.92093 0.45294 0.0
C1619 C 0.35131 0.91459 0.40963 0.0
C1620 C 0.20602 0.1024 0.98848 0.0
C1621 C 0.2226 0.12445 0.01734 0.0
C1622 C 0.20404 0.0765 0.99313 0.0
C1623 C 0.21877 0.0718 0.02645 0.0
H1624 H 0.19406 0.10495 0.96251 0.0
H1625 H 0.19044 0.05989 0.97108 0.0
S1626 S 0.26641 0.12268 0.10872 0.0
N1627 N 0.25483 0.13984 0.07954 0.0
N1628 N 0.25136 0.09124 0.08746 0.0
C1629 C 0.23582 0.09365 0.05492 0.0
C1630 C 0.23769 0.11996 0.05056 0.0
C1631 C 0.92131 0.12427 0.99216 0.0
C1632 C 0.9264 0.14403 0.02506 0.0
C1633 C 0.89499 0.10104 0.98708 0.0
C1634 C 0.87289 0.09655 0.01514 0.0
H1635 H 0.9379 0.12655 0.97069 0.0
H1636 H 0.89211 0.08627 0.96136 0.0
S1637 S 0.87573 0.14308 0.10561 0.0
N1638 N 0.90741 0.15842 0.08513 0.0
N1639 N 0.85797 0.11444 0.07645 0.0
C1640 C 0.87782 0.11633 0.04815 0.0
C1641 C 0.90457 0.14013 0.05292 0.0
C1642 C 0.87397 0.80076 0.99129 0.0
C1643 C 0.85393 0.78586 0.02374 0.0
C1644 C 0.89791 0.7987 0.98795 0.0
C1645 C 0.9028 0.78193 0.01734 0.0
H1646 H 0.87139 0.81449 0.96891 0.0
H1647 H 0.91289 0.81069 0.96251 0.0
S1648 S 0.85561 0.73781 0.10699 0.0
N1649 N 0.83963 0.75297 0.08456 0.0
N1650 N 0.88486 0.7495 0.07921 0.0
C1651 C 0.88267 0.76679 0.04982 0.0
C1652 C 0.85819 0.76868 0.05279 0.0
C1653 C 0.11558 0.23141 0.50862 0.0
C1654 C 0.12052 0.21627 0.54113 0.0
C1655 C 0.08954 0.22915 0.50436 0.0
C1656 C 0.0675 0.21156 0.53221 0.0
H1657 H 0.13201 0.24538 0.48659 0.0
H1658 H 0.08662 0.24129 0.4791 0.0
S1659 S 0.06872 0.16575 0.62008 0.0
N1660 N 0.10061 0.18213 0.60048 0.0
N1661 N 0.05156 0.17752 0.59141 0.0
C1662 C 0.0719 0.19594 0.56425 0.0
C1663 C 0.09844 0.19838 0.56896 0.0
C1664 C 0.8087 0.88117 0.52278 0.0
C1665 C 0.78592 0.85423 0.52442 0.0
C1666 C 0.80511 0.90417 0.52696 0.0
C1667 C 0.7786 0.90079 0.53205 0.0
H1668 H 0.82938 0.88442 0.51848 0.0
H1669 H 0.82312 0.9247 0.52615 0.0
S1670 S 0.71251 0.83456 0.53905 0.0
N1671 N 0.73619 0.82537 0.53235 0.0
N1672 N 0.72936 0.86873 0.5393 0.0
C1673 C 0.7557 0.874 0.53365 0.0
C1674 C 0.75939 0.85061 0.5301 0.0
C1675 C 0.14191 0.90692 0.50821 0.0
C1676 C 0.14611 0.92896 0.53583 0.0
C1677 C 0.11813 0.88086 0.51219 0.0
C1678 C 0.09773 0.87586 0.54417 0.0
H1679 H 0.15709 0.90993 0.48312 0.0
H1680 H 0.11581 0.86451 0.49015 0.0
S1681 S 0.09847 0.9275 0.62285 0.0
N1682 N 0.12759 0.94472 0.59463 0.0
N1683 N 0.08314 0.89564 0.60319 0.0
C1684 C 0.10178 0.89786 0.57205 0.0
C1685 C 0.12591 0.92444 0.56762 0.0
C1686 C 0.76393 0.88168 1.00318 0.0
C1687 C 0.77738 0.87634 0.03811 0.0
C1688 C 0.76636 0.90775 0.99815 0.0
C1689 C 0.78234 0.92938 0.02778 0.0
H1690 H 0.75127 0.86559 0.97967 0.0
H1691 H 0.75563 0.91102 0.97092 0.0
S1692 S 0.82343 0.92715 0.12258 0.0
N1693 N 0.80828 0.89558 0.1018 0.0
N1694 N 0.81307 0.94457 0.09144 0.0
C1695 C 0.79622 0.92459 0.06234 0.0
C1696 C 0.79368 0.89807 0.06774 0.0
C1697 C 0.07669 0.87642 0.06332 0.0
C1698 C 0.0715 0.85662 0.03041 0.0
C1699 C 0.10297 0.89977 0.06804 0.0
C1700 C 0.12497 0.9043 0.03972 0.0
H1701 H 0.0602 0.87404 0.08514 0.0
H1702 H 0.10593 0.91455 0.09378 0.0
S1703 S 0.12197 0.85751 0.9495 0.0
N1704 N 0.09038 0.84214 0.97031 0.0
N1705 N 0.13973 0.88627 0.97834 0.0
C1706 C 0.11997 0.88442 0.00679 0.0
C1707 C 0.09324 0.86053 1.00234 0.0
C1708 C 0.12384 0.19932 0.06562 0.0
C1709 C 0.14355 0.21418 0.03268 0.0
C1710 C 0.10009 0.20162 0.0702 0.0
C1711 C 0.09507 0.21867 0.04167 0.0
H1712 H 0.12656 0.18544 0.08746 0.0
H1713 H 0.08536 0.18958 0.09589 0.0
S1714 S 0.14153 0.26299 0.95143 0.0
N1715 N 0.15744 0.24737 0.97242 0.0
N1716 N 0.11266 0.25147 0.98023 0.0
C1717 C 0.11493 0.23387 0.00883 0.0
C1718 C 0.13918 0.23166 1.00452 0.0
C1719 C 0.92629 0.80726 0.53347 0.0
C1720 C 0.93167 0.78629 0.51995 0.0
C1721 C 0.8997 0.80373 0.53012 0.0
C1722 C 0.87787 0.77935 0.51239 0.0
H1723 H 0.94269 0.82633 0.54739 0.0
H1724 H 0.89618 0.82015 0.54132 0.0
S1725 S 0.88135 0.7189 0.47033 0.0
N1726 N 0.91311 0.74061 0.4874 0.0
N1727 N 0.86324 0.73444 0.4796 0.0
C1728 C 0.88309 0.75864 0.49742 0.0
C1729 C 0.91005 0.76205 0.50139 0.0
C1730 C 0.23174 0.13944 0.55273 0.0
C1731 C 0.21386 0.14363 0.52515 0.0
C1732 C 0.23396 0.11563 0.5488 0.0
C1733 C 0.21849 0.09523 0.51692 0.0
H1734 H 0.24406 0.1547 0.57761 0.0
H1735 H 0.24813 0.11337 0.57063 0.0
S1736 S 0.16723 0.09579 0.43883 0.0
N1737 N 0.17929 0.12499 0.46682 0.0
N1738 N 0.18381 0.08048 0.45838 0.0
C1739 C 0.20037 0.09919 0.4893 0.0
C1740 C 0.19798 0.12333 0.49367 0.0
C1741 C 0.89544 0.10043 0.48699 0.0
C1742 C 0.90061 0.12162 0.51758 0.0
C1743 C 0.87189 0.07418 0.49055 0.0
C1744 C 0.85252 0.0682 0.52454 0.0
H1745 H 0.9099 0.10397 0.46035 0.0
H1746 H 0.86909 0.05828 0.46705 0.0
S1747 S 0.85503 0.11641 0.61147 0.0
N1748 N 0.88357 0.13477 0.58229 0.0
N1749 N 0.83906 0.08554 0.58812 0.0
C1750 C 0.85702 0.08916 0.55483 0.0
C1751 C 0.88111 0.11584 0.55157 0.0
C1752 C 0.89731 0.448 0.38625 0.0
C1753 C 0.88339 0.45366 0.35248 0.0
C1754 C 0.89488 0.42188 0.39008 0.0
C1755 C 0.87842 0.40046 0.36042 0.0
H1756 H 0.91039 0.46391 0.40971 0.0
H1757 H 0.906 0.4184 0.41645 0.0
S1758 S 0.83604 0.40358 0.26842 0.0
N1759 N 0.85157 0.43499 0.28982 0.0
N1760 N 0.84675 0.38584 0.29798 0.0
C1761 C 0.86407 0.40556 0.327 0.0
C1762 C 0.86662 0.43218 0.32281 0.0
C1763 C 0.54579 0.4496 0.38142 0.0
C1764 C 0.5411 0.42976 0.34862 0.0
C1765 C 0.57182 0.47332 0.38636 0.0
C1766 C 0.59407 0.47796 0.35885 0.0
H1767 H 0.52921 0.4469 0.40332 0.0
H1768 H 0.57463 0.4881 0.41204 0.0
S1769 S 0.59351 0.43168 0.27027 0.0
N1770 N 0.56148 0.41606 0.28924 0.0
N1771 N 0.61043 0.46037 0.29955 0.0
C1772 C 0.58988 0.45826 0.32638 0.0
C1773 C 0.56338 0.43422 0.32102 0.0
C1774 C 0.56293 0.1268 0.31598 0.0
C1775 C 0.56757 0.10941 0.3443 0.0
C1776 C 0.53956 0.12971 0.32094 0.0
C1777 C 0.51985 0.11511 0.35402 0.0
H1778 H 0.57774 0.13873 0.2903 0.0
H1779 H 0.53719 0.14393 0.29939 0.0
S1780 S 0.52088 0.06547 0.4346 0.0
N1781 N 0.54959 0.07649 0.40554 0.0
N1782 N 0.50547 0.08169 0.41401 0.0
C1783 C 0.52378 0.0972 0.38183 0.0
C1784 C 0.54767 0.09439 0.37717 0.0
C1785 C 0.76005 0.5658 0.84235 0.0
C1786 C 0.73826 0.54859 0.87091 0.0
C1787 C 0.78625 0.56847 0.84676 0.0
C1788 C 0.79164 0.55407 0.88006 0.0
H1789 H 0.75674 0.57717 0.8162 0.0
H1790 H 0.80241 0.58202 0.82398 0.0
S1791 S 0.74071 0.50505 0.96165 0.0
N1792 N 0.72311 0.51593 0.93207 0.0
N1793 N 0.77244 0.52127 0.94139 0.0
C1794 C 0.76986 0.53672 0.90886 0.0
C1795 C 0.74315 0.5339 0.90404 0.0
C1796 C 0.45796 0.22748 0.89609 0.0
C1797 C 0.44083 0.23247 0.86777 0.0
C1798 C 0.46049 0.20393 0.89114 0.0
C1799 C 0.44573 0.18432 0.85808 0.0
H1800 H 0.46989 0.24208 0.92199 0.0
H1801 H 0.47439 0.20124 0.91298 0.0
S1802 S 0.397 0.18655 0.77686 0.0
N1803 N 0.40833 0.21526 0.80601 0.0
N1804 N 0.41266 0.1706 0.79761 0.0
C1805 C 0.42826 0.18872 0.8299 0.0
C1806 C 0.4259 0.21288 0.83453 0.0
C1807 C 0.76715 0.23182 0.8997 0.0
C1808 C 0.76259 0.21038 0.87009 0.0
C1809 C 0.79059 0.25817 0.89597 0.0
C1810 C 0.81045 0.26395 0.86283 0.0
H1811 H 0.75229 0.22838 0.92559 0.0
H1812 H 0.79298 0.27426 0.91871 0.0
S1813 S 0.80965 0.21493 0.77907 0.0
N1814 N 0.78076 0.19672 0.80748 0.0
N1815 N 0.82502 0.2461 0.80137 0.0
C1816 C 0.80654 0.24271 0.83361 0.0
C1817 C 0.78258 0.21596 0.83703 0.0
C1818 C 0.46317 0.23142 0.40313 0.0
C1819 C 0.44579 0.20941 0.37477 0.0
C1820 C 0.46556 0.25753 0.39895 0.0
C1821 C 0.45042 0.26245 0.36666 0.0
H1822 H 0.47544 0.22865 0.42831 0.0
H1823 H 0.47977 0.27411 0.42049 0.0
S1824 S 0.40079 0.21182 0.28605 0.0
N1825 N 0.41246 0.19436 0.31414 0.0
N1826 N 0.41666 0.2433 0.30717 0.0
C1827 C 0.4326 0.24065 0.33871 0.0
C1828 C 0.43034 0.21416 0.34256 0.0
C1829 C 0.75705 0.19077 0.3359 0.0
C1830 C 0.73497 0.18577 0.36414 0.0
C1831 C 0.78312 0.21441 0.34101 0.0
C1832 C 0.78803 0.23382 0.37469 0.0
H1833 H 0.7541 0.17628 0.30964 0.0
H1834 H 0.79957 0.21735 0.31862 0.0
S1835 S 0.73606 0.23096 0.45503 0.0
N1836 N 0.71896 0.20263 0.42497 0.0
N1837 N 0.76797 0.24682 0.43554 0.0
C1838 C 0.76589 0.22905 0.40291 0.0
C1839 C 0.73935 0.20508 0.39739 0.0
C1840 C 0.78109 0.56483 0.3468 0.0
C1841 C 0.76068 0.54883 0.37841 0.0
C1842 C 0.80529 0.56329 0.34291 0.0
C1843 C 0.80992 0.54564 0.3703 0.0
H1844 H 0.77853 0.57889 0.32516 0.0
H1845 H 0.8205 0.57597 0.3182 0.0
S1846 S 0.76238 0.49788 0.45593 0.0
N1847 N 0.74647 0.51389 0.4365 0.0
N1848 N 0.79176 0.51073 0.42818 0.0
C1849 C 0.78966 0.52924 0.40152 0.0
C1850 C 0.76508 0.5309 0.40581 0.0
C1851 C 0.54831 0.0948 0.83135 0.0
C1852 C 0.54234 0.11453 0.8489 0.0
C1853 C 0.57486 0.0982 0.83529 0.0
C1854 C 0.59619 0.12156 0.85649 0.0
H1855 H 0.53228 0.07653 0.81493 0.0
H1856 H 0.57862 0.08229 0.82232 0.0
S1857 S 0.59146 0.1804 0.90357 0.0
N1858 N 0.55984 0.15873 0.88586 0.0
N1859 N 0.61011 0.16576 0.89185 0.0
C1860 C 0.59061 0.14187 0.87271 0.0
C1861 C 0.56352 0.13817 0.8693 0.0
C1862 C 0.9095 0.45793 0.84212 0.0
C1863 C 0.88735 0.43155 0.85235 0.0
C1864 C 0.90655 0.48138 0.84556 0.0
C1865 C 0.88141 0.47897 0.85934 0.0
H1866 H 0.92916 0.4604 0.83153 0.0
H1867 H 0.92414 0.50153 0.83831 0.0
S1868 S 0.81684 0.41417 0.88668 0.0
N1869 N 0.83931 0.40408 0.87458 0.0
N1870 N 0.83364 0.44812 0.88077 0.0
C1871 C 0.85896 0.45259 0.86843 0.0
C1872 C 0.86199 0.42883 0.86504 0.0
C1873 C 0.55242 0.44687 0.88602 0.0
C1874 C 0.5719 0.452 0.85229 0.0
C1875 C 0.52834 0.42102 0.89005 0.0
C1876 C 0.52287 0.39938 0.86056 0.0
H1877 H 0.55554 0.46301 0.9092 0.0
H1878 H 0.51377 0.418 0.91624 0.0
S1879 S 0.56799 0.40093 0.7691 0.0
N1880 N 0.58449 0.43241 0.79021 0.0
N1881 N 0.53939 0.38386 0.79861 0.0
C1882 C 0.5423 0.40388 0.82739 0.0
C1883 C 0.56678 0.43018 0.82307 0.0
C1884 C 0.56718 0.78143 0.71394 0.0
C1885 C 0.55176 0.78601 0.68144 0.0
C1886 C 0.56521 0.75554 0.71857 0.0
C1887 C 0.5477 0.73329 0.69106 0.0
H1888 H 0.5811 0.79803 0.73573 0.0
H1889 H 0.57751 0.7529 0.74387 0.0
S1890 S 0.50125 0.73348 0.6034 0.0
N1891 N 0.51742 0.76547 0.62251 0.0
N1892 N 0.51343 0.71674 0.63222 0.0
C1893 C 0.53182 0.73732 0.65903 0.0
C1894 C 0.53393 0.7637 0.65397 0.0
C1895 C 0.25641 0.79077 0.66281 0.0
C1896 C 0.26186 0.8104 0.6961 0.0
C1897 C 0.23014 0.76735 0.65858 0.0
C1898 C 0.20846 0.76258 0.68784 0.0
H1899 H 0.2727 0.79327 0.64042 0.0
H1900 H 0.22698 0.75267 0.63255 0.0
S1901 S 0.21225 0.80886 0.77946 0.0
N1902 N 0.24357 0.82448 0.75763 0.0
N1903 N 0.19425 0.78019 0.75048 0.0
C1904 C 0.21371 0.7823 0.72112 0.0
C1905 C 0.24041 0.80627 0.72506 0.0
C1906 C 0.21637 0.43178 0.71068 0.0
C1907 C 0.23628 0.44704 0.67798 0.0
C1908 C 0.19248 0.4338 0.71534 0.0
C1909 C 0.18767 0.45118 0.68762 0.0
H1910 H 0.21911 0.41801 0.73275 0.0
H1911 H 0.17768 0.42173 0.74096 0.0
S1912 S 0.23391 0.49698 0.599 0.0
N1913 N 0.24981 0.48093 0.61834 0.0
N1914 N 0.20511 0.48501 0.62811 0.0
C1915 C 0.2074 0.46679 0.65521 0.0
C1916 C 0.23166 0.46464 0.65013 0.0
C1917 C 0.43407 0.86834 0.23349 0.0
C1918 C 0.45594 0.88536 0.20464 0.0
C1919 C 0.40796 0.86592 0.22927 0.0
C1920 C 0.40286 0.88065 0.19642 0.0
H1921 H 0.43697 0.85645 0.25919 0.0
H1922 H 0.39152 0.8521 0.25144 0.0
S1923 S 0.45318 0.92926 0.11435 0.0
N1924 N 0.47074 0.91787 0.14286 0.0
N1925 N 0.42177 0.91368 0.13585 0.0
C1926 C 0.42452 0.89807 0.16788 0.0
C1927 C 0.45104 0.90034 0.17177 0.0
C1928 C 0.09627 0.54762 0.17431 0.0
C1929 C 0.11262 0.56813 0.20548 0.0
C1930 C 0.09843 0.5238 0.16938 0.0
C1931 C 0.11707 0.5198 0.19528 0.0
H1932 H 0.08137 0.54972 0.15412 0.0
H1933 H 0.0853 0.5083 0.1454 0.0
S1934 S 0.16666 0.56841 0.27788 0.0
N1935 N 0.14942 0.58352 0.26052 0.0
N1936 N 0.15364 0.53896 0.25038 0.0
C1937 C 0.13408 0.5404 0.22552 0.0
C1938 C 0.1318 0.56452 0.23084 0.0
C1939 C 0.43438 0.56189 0.2315 0.0
C1940 C 0.42941 0.5398 0.2031 0.0
C1941 C 0.45833 0.5878 0.22735 0.0
C1942 C 0.47834 0.59246 0.19507 0.0
H1943 H 0.41945 0.55932 0.25676 0.0
H1944 H 0.46097 0.60444 0.24901 0.0
S1945 S 0.47643 0.54146 0.11433 0.0
N1946 N 0.44721 0.52434 0.14238 0.0
N1947 N 0.49248 0.57294 0.13549 0.0
C1948 C 0.474 0.57058 0.16702 0.0
C1949 C 0.44948 0.54427 0.17081 0.0
C1950 C 0.13087 0.58897 0.7336 0.0
C1951 C 0.11636 0.59431 0.70069 0.0
C1952 C 0.12805 0.5627 0.73791 0.0
C1953 C 0.11083 0.54088 0.70913 0.0
H1954 H 0.14488 0.60536 0.75563 0.0
H1955 H 0.13985 0.55964 0.76359 0.0
S1956 S 0.06735 0.54434 0.61873 0.0
N1957 N 0.08334 0.57575 0.64011 0.0
N1958 N 0.0783 0.52646 0.6474 0.0
C1959 C 0.096 0.54604 0.67627 0.0
C1960 C 0.09873 0.57273 0.67224 0.0
C1961 C 0.40846 0.53938 0.7311 0.0
C1962 C 0.40347 0.51898 0.69941 0.0
C1963 C 0.43478 0.56278 0.7356 0.0
C1964 C 0.45689 0.56675 0.70805 0.0
H1965 H 0.39177 0.53754 0.75187 0.0
H1966 H 0.43764 0.57813 0.76023 0.0
S1967 S 0.45445 0.51825 0.6214 0.0
N1968 N 0.42272 0.50332 0.64157 0.0
N1969 N 0.47206 0.54751 0.64906 0.0
C1970 C 0.45211 0.54621 0.67652 0.0
C1971 C 0.42542 0.52229 0.67242 0.0
C1972 C 0.45906 0.8649 0.73125 0.0
C1973 C 0.47884 0.88018 0.69861 0.0
C1974 C 0.43543 0.86733 0.73655 0.0
C1975 C 0.43057 0.88487 0.709 0.0
H1976 H 0.46164 0.85063 0.75233 0.0
H1977 H 0.42065 0.85499 0.762 0.0
S1978 S 0.47712 0.93024 0.61973 0.0
N1979 N 0.4929 0.91421 0.6396 0.0
N1980 N 0.44827 0.91847 0.64867 0.0
C1981 C 0.45043 0.90042 0.67637 0.0
C1982 C 0.4746 0.89812 0.67139 0.0
C1983 C 0.25559 0.46334 0.16063 0.0
C1984 C 0.26074 0.44855 0.1933 0.0
C1985 C 0.22941 0.46076 0.1564 0.0
C1986 C 0.20752 0.44352 0.18506 0.0
H1987 H 0.27203 0.47729 0.13859 0.0
H1988 H 0.22645 0.47267 0.13081 0.0
S1989 S 0.21042 0.3994 0.27484 0.0
N1990 N 0.24188 0.41524 0.2535 0.0
N1991 N 0.19279 0.41077 0.24649 0.0
C1992 C 0.2125 0.42851 0.21779 0.0
C1993 C 0.23908 0.43094 0.22168 0.0
C1994 C 0.56487 0.77917 0.21432 0.0
C1995 C 0.54978 0.75924 0.18157 0.0
C1996 C 0.56275 0.80303 0.21872 0.0
C1997 C 0.54541 0.80775 0.19072 0.0
H1998 H 0.57869 0.77654 0.23641 0.0
H1999 H 0.57483 0.81795 0.24416 0.0
S2000 S 0.49972 0.76119 0.10237 0.0
N2001 N 0.51584 0.74543 0.12199 0.0
N2002 N 0.51159 0.79004 0.13124 0.0
C2003 C 0.52981 0.78788 0.15851 0.0
C2004 C 0.53207 0.76368 0.1537 0.0
C2005 C 0.22899 0.76659 0.15705 0.0
C2006 C 0.23467 0.78811 0.18724 0.0
C2007 C 0.20532 0.74048 0.16148 0.0
C2008 C 0.18635 0.735 0.19596 0.0
H2009 H 0.24312 0.76976 0.13006 0.0
H2010 H 0.2021 0.72432 0.13824 0.0
S2011 S 0.19029 0.78425 0.28212 0.0
N2012 N 0.21856 0.80212 0.2521 0.0
N2013 N 0.17384 0.75318 0.25955 0.0
C2014 C 0.19139 0.7563 0.22587 0.0
C2015 C 0.21559 0.78282 0.22172 0.0
C2016 C 0.22996 0.23867 0.75875 0.0
C2017 C 0.21112 0.21606 0.73306 0.0
C2018 C 0.22975 0.23711 0.80507 0.0
C2019 C 0.21118 0.21264 0.82736 0.0
H2020 H 0.24477 0.25791 0.743 0.0
H2021 H 0.24471 0.25509 0.82342 0.0
S2022 S 0.15744 0.14765 0.77519 0.0
N2023 N 0.17294 0.16869 0.73293 0.0
N2024 N 0.1731 0.16539 0.82036 0.0
C2025 C 0.19214 0.18985 0.80208 0.0
C2026 C 0.19197 0.19166 0.75481 0.0
C2027 C 0.7794 0.9747 0.79953 0.0
C2028 C 0.78975 0.00043 0.82048 0.0
C2029 C 0.77912 0.97281 0.7531 0.0
C2030 C 0.78833 0.99651 0.72643 0.0
H2031 H 0.77154 0.95599 0.81914 0.0
H2032 H 0.7708 0.95259 0.738 0.0
S2033 S 0.81675 0.06854 0.76562 0.0
N2034 N 0.80958 0.05003 0.81161 0.0
N2035 N 0.80799 0.04633 0.72416 0.0
C2036 C 0.79859 0.0223 0.74707 0.0
C2037 C 0.7996 0.02431 0.79425 0.0
C2038 C 0.99466 0.76222 0.75592 0.0
C2039 C -0.0004 0.7858 0.73179 0.0
C2040 C 0.99323 0.76174 0.80225 0.0
C2041 C 0.99596 0.78457 0.8261 0.0
H2042 H 0.99237 0.74408 0.73904 0.0
H2043 H 0.98954 0.74315 0.81945 0.0
S2044 S 0.00793 0.85093 0.77883 0.0
N2045 N 0.00675 0.83247 0.73514 0.0
N2046 N 0.00314 0.83117 0.8226 0.0
C2047 C 0.00024 0.80808 0.80253 0.0
C2048 C 0.0023 0.80881 0.75525 0.0
C2049 C 0.7754 0.79649 0.30048 0.0
C2050 C 0.7896 0.78468 0.32097 0.0
C2051 C 0.77513 0.7986 0.25416 0.0
C2052 C 0.7883 0.78812 0.22713 0.0
H2053 H 0.76455 0.80423 0.32037 0.0
H2054 H 0.76385 0.8077 0.23935 0.0
S2055 S 0.82784 0.7549 0.26472 0.0
N2056 N 0.8174 0.76268 0.3111 0.0
N2057 N 0.81578 0.76555 0.22373 0.0
C2058 C 0.80241 0.77614 0.24717 0.0
C2059 C 0.80338 0.77473 0.2943 0.0
C2060 C 0.23967 0.0065 0.30087 0.0
C2061 C 0.21715 0.0033 0.32626 0.0
C2062 C 0.23842 0.00546 0.25452 0.0
C2063 C 0.21434 0.00047 0.23188 0.0
H2064 H 0.25864 0.01029 0.31687 0.0
H2065 H 0.25632 0.00805 0.23641 0.0
S2066 S 0.14971 0.9909 0.28319 0.0
N2067 N 0.17027 0.99554 0.32575 0.0
N2068 N 0.16753 0.99269 0.23825 0.0
C2069 C 0.19163 0.99725 0.25686 0.0
C2070 C 0.19313 0.99889 0.30418 0.0
C2071 C 0.00081 0.19356 0.25609 0.0
C2072 C 0.99505 0.21107 0.23016 0.0
C2073 C -0.00118 0.19327 0.30257 0.0
C2074 C 0.99175 0.21102 0.32461 0.0
H2075 H 0.00699 0.18004 0.2404 0.0
H2076 H 0.00345 0.17955 0.32142 0.0
S2077 S 0.97318 0.2597 0.2725 0.0
N2078 N 0.98041 0.24551 0.2303 0.0
N2079 N 0.97774 0.2456 0.31754 0.0
C2080 C 0.9856 0.22834 0.29923 0.0
C2081 C 0.98693 0.22817 0.25199 0.0
C2082 C 0.90566 0.56837 0.09337 0.0
C2083 C 0.8824 0.54912 0.06923 0.0
C2084 C 0.90612 0.56746 0.13971 0.0
C2085 C 0.88362 0.54685 0.16354 0.0
H2086 H 0.92355 0.58461 0.07648 0.0
H2087 H 0.92449 0.58277 0.1569 0.0
S2088 S 0.81814 0.49096 0.11618 0.0
N2089 N 0.83636 0.5086 0.07251 0.0
N2090 N 0.83762 0.50643 0.15997 0.0
C2091 C 0.86041 0.52712 0.13994 0.0
C2092 C 0.85969 0.52837 0.09266 0.0
C2093 C 0.46862 0.35456 0.13257 0.0
C2094 C 0.45581 0.33055 0.15888 0.0
C2095 C 0.46734 0.35286 0.08615 0.0
C2096 C 0.45399 0.3271 0.06477 0.0
H2097 H 0.47884 0.3748 0.14798 0.0
H2098 H 0.47678 0.37178 0.06686 0.0
S2099 S 0.41819 0.25822 0.11886 0.0
N2100 N 0.42966 0.2804 0.16058 0.0
N2101 N 0.42821 0.27709 0.07308 0.0
C2102 C 0.44183 0.30293 0.09071 0.0
C2103 C 0.44246 0.3047 0.13794 0.0
C2104 C 0.66607 0.13682 0.08595 0.0
C2105 C 0.67362 0.11953 0.06359 0.0
C2106 C 0.6636 0.13592 0.13237 0.0
C2107 C 0.66929 0.11821 0.15791 0.0
H2108 H 0.66135 0.15057 0.06739 0.0
H2109 H 0.65703 0.14906 0.1483 0.0
S2110 S 0.69229 0.07066 0.11478 0.0
N2111 N 0.68808 0.08524 0.07004 0.0
N2112 N 0.68439 0.08415 0.1572 0.0
C2113 C 0.67793 0.10162 0.13583 0.0
C2114 C 0.6798 0.1021 0.08864 0.0
C2115 C 0.46958 0.13564 0.63295 0.0
C2116 C 0.45186 0.11046 0.65412 0.0
C2117 C 0.46976 0.13789 0.58655 0.0
C2118 C 0.45273 0.11487 0.55983 0.0
H2119 H 0.48291 0.15383 0.65241 0.0
H2120 H 0.48323 0.15786 0.57157 0.0
S2121 S 0.40441 0.04364 0.59973 0.0
N2122 N 0.41788 0.0618 0.64542 0.0
N2123 N 0.41879 0.06565 0.55826 0.0
C2124 C 0.43567 0.08931 0.58078 0.0
C2125 C 0.43505 0.08721 0.62796 0.0
C2126 C 0.8645 0.31038 0.63877 0.0
C2127 C 0.8773 0.33635 0.6595 0.0
C2128 C 0.86292 0.30823 0.59239 0.0
C2129 C 0.8749 0.33201 0.56553 0.0
H2130 H 0.85563 0.29165 0.65853 0.0
H2131 H 0.85305 0.28786 0.57745 0.0
S2132 S 0.91105 0.40473 0.60379 0.0
N2133 N 0.90181 0.38627 0.65001 0.0
N2134 N 0.89984 0.38216 0.56261 0.0
C2135 C 0.88781 0.35806 0.58583 0.0
C2136 C 0.88873 0.36025 0.63299 0.0
C2137 C 0.66636 0.52549 0.59143 0.0
C2138 C 0.66752 0.54792 0.56831 0.0
C2139 C 0.66531 0.52442 0.63799 0.0
C2140 C 0.66624 0.54614 0.66296 0.0
H2141 H 0.66598 0.50851 0.57342 0.0
H2142 H 0.66397 0.50656 0.65453 0.0
S2143 S 0.67002 0.6099 0.6182 0.0
N2144 N 0.66931 0.59224 0.57379 0.0
N2145 N 0.66889 0.59097 0.66112 0.0
C2146 C 0.66791 0.56892 0.6402 0.0
C2147 C 0.66808 0.56959 0.59289 0.0
C2148 C 0.56792 0.90108 0.42093 0.0
C2149 C 0.54575 0.88024 0.39681 0.0
C2150 C 0.56888 0.89994 0.46722 0.0
C2151 C 0.54797 0.87765 0.49108 0.0
H2152 H 0.58452 0.91869 0.40402 0.0
H2153 H 0.58645 0.91646 0.48431 0.0
S2154 S 0.48554 0.81764 0.4436 0.0
N2155 N 0.50228 0.83668 0.40003 0.0
N2156 N 0.50442 0.83421 0.48737 0.0
C2157 C 0.52573 0.85653 0.46745 0.0
C2158 C 0.52452 0.85793 0.4202 0.0
C2159 C 0.11169 0.64126 0.47275 0.0
C2160 C 0.12506 0.66701 0.49418 0.0
C2161 C 0.11132 0.6396 0.42631 0.0
C2162 C 0.12352 0.66366 0.4001 0.0
H2163 H 0.10144 0.62235 0.492 0.0
H2164 H 0.10059 0.6194 0.41081 0.0
S2165 S 0.16085 0.73594 0.44028 0.0
N2166 N 0.1512 0.71702 0.48601 0.0
N2167 N 0.1494 0.71381 0.3985 0.0
C2168 C 0.13694 0.68948 0.4211 0.0
C2169 C 0.13803 0.69118 0.46831 0.0
C2170 C 0.33252 0.46995 0.42003 0.0
C2171 C 0.33899 0.45182 0.39777 0.0
C2172 C 0.33068 0.46966 0.46652 0.0
C2173 C 0.33596 0.45173 0.49224 0.0
H2174 H 0.32822 0.48397 0.40135 0.0
H2175 H 0.32494 0.48347 0.48237 0.0
S2176 S 0.35625 0.40203 0.4493 0.0
N2177 N 0.35199 0.41647 0.40442 0.0
N2178 N 0.34956 0.41652 0.49169 0.0
C2179 C 0.34351 0.43426 0.4702 0.0
C2180 C 0.3447 0.43411 0.42295 0.0
C2181 C 0.13614 0.47047 0.92143 0.0
C2182 C 0.11871 0.44731 0.89525 0.0
C2183 C 0.13633 0.46856 0.96788 0.0
C2184 C 0.11857 0.44361 0.98963 0.0
H2185 H 0.14964 0.49027 0.90597 0.0
H2186 H 0.14995 0.48684 0.98693 0.0
S2187 S 0.07009 0.37658 0.93675 0.0
N2188 N 0.08434 0.39822 0.8948 0.0
N2189 N 0.08409 0.39502 0.982 0.0
C2190 C 0.10136 0.42024 0.96399 0.0
C2191 C 0.10162 0.42198 0.91677 0.0
C2192 C 0.52846 0.6625 0.92083 0.0
C2193 C 0.55008 0.66226 0.89723 0.0
C2194 C 0.52931 0.66481 0.96724 0.0
C2195 C 0.55149 0.66628 0.99158 0.0
H2196 H 0.51086 0.6611 0.90329 0.0
H2197 H 0.51236 0.66513 0.9842 0.0
S2198 S 0.61317 0.66631 0.94554 0.0
N2199 N 0.59434 0.66377 0.90162 0.0
N2200 N 0.59571 0.66766 0.98879 0.0
C2201 C 0.57316 0.66592 0.9684 0.0
C2202 C 0.57254 0.66407 0.92119 0.0
C2203 C 0.33569 0.86006 0.92443 0.0
C2204 C 0.33072 0.87805 0.8983 0.0
C2205 C 0.33297 0.85944 0.97081 0.0
C2206 C 0.32593 0.87731 0.99255 0.0
H2207 H 0.34176 0.84639 0.90898 0.0
H2208 H 0.337 0.84536 0.98984 0.0
S2209 S 0.30948 0.92734 0.93973 0.0
N2210 N 0.31702 0.91318 0.89784 0.0
N2211 N 0.31294 0.91261 0.98494 0.0
C2212 C 0.32063 0.89515 0.96694 0.0
C2213 C 0.32272 0.89533 0.91978 0.0
loop_
_geom_bond_atom_site_label_1
_geom_bond_atom_site_label_2
_geom_bond_distance
_geom_bond_site_symmetry_2
_ccdc_geom_bond_type
Co0 O3 1.970 . S
Co0 N17 1.989 . S
Co0 O25 1.967 . S
Co0 O32 1.920 . S
Co1 O4 1.966 . S
Co1 N10 2.022 . S
Co1 N18 1.993 . S
Co1 O26 1.941 . S
C2 O3 1.258 . S
C2 O4 1.263 1_556 S
O3 Co0 1.970 . S
O3 C2 1.258 . S
O4 Co1 1.966 . S
O4 C2 1.263 1_554 S
C5 O6 1.235 . S
C5 O32 1.289 . S
O6 C5 1.235 . S
C7 C9 1.400 . S
C7 N10 1.351 . S
C7 C12 1.501 . S
C8 C9 1.387 . S
C8 N11 1.341 . S
C9 C7 1.400 . S
C9 C8 1.387 . S
N10 Co1 2.022 . S
N10 C7 1.351 . S
N10 N11 1.365 . S
N11 C8 1.341 . S
N11 N10 1.365 . S
N11 H31 0.862 . S
C12 C7 1.501 . S
C12 H13 0.961 . S
C12 H14 0.961 . S
C12 H15 0.960 . S
H13 C12 0.961 . S
H14 C12 0.961 . S
H15 C12 0.960 . S
C16 N17 1.342 . S
C16 C20 1.401 1_556 S
C16 C21 1.499 . S
N17 Co0 1.989 . S
N17 C16 1.342 . S
N17 N18 1.388 1_556 S
N18 Co1 1.993 . S
N18 N17 1.388 1_554 S
N18 C19 1.346 . S
C19 N18 1.346 . S
C19 C20 1.396 . S
C19 C29 1.510 . S
C20 C16 1.401 1_554 S
C20 C19 1.396 . S
C21 C16 1.499 . S
C21 H22 0.959 . S
C21 H23 0.960 . S
C21 H24 0.961 . S
H22 C21 0.959 . S
H23 C21 0.960 . S
H24 C21 0.961 . S
O25 Co0 1.967 . S
O25 C33 1.258 1_556 S
O26 Co1 1.941 . S
O26 C33 1.266 . S
H27 C29 0.959 . S
H28 C29 0.961 . S
C29 C19 1.510 . S
C29 H27 0.959 . S
C29 H28 0.961 . S
C29 H30 0.960 . S
H30 C29 0.960 . S
H31 N11 0.862 . S
O32 Co0 1.920 . S
O32 C5 1.289 . S
C33 O25 1.258 1_554 S
C33 O26 1.266 . S
Co34 O37 1.970 . S
Co34 N51 1.989 1_545 S
Co34 O59 1.967 . S
Co34 O66 1.920 . S
Co35 O38 1.966 . S
Co35 N44 2.022 . S
Co35 N52 1.993 1_545 S
Co35 O60 1.941 . S
C36 O37 1.258 . S
C36 O38 1.263 1_556 S
O37 Co34 1.970 . S
O37 C36 1.258 . S
O38 Co35 1.966 . S
O38 C36 1.263 1_554 S
C39 O40 1.230 1_545 S
C39 O66 1.297 . S
O40 C39 1.230 1_565 S
C41 C43 1.400 . S
C41 N44 1.351 . S
C41 C46 1.501 . S
C42 C43 1.387 . S
C42 N45 1.341 . S
C43 C41 1.400 . S
C43 C42 1.387 . S
N44 Co35 2.022 . S
N44 C41 1.351 . S
N44 N45 1.365 . S
N45 C42 1.341 . S
N45 N44 1.365 . S
N45 H65 0.862 . S
C46 C41 1.501 . S
C46 H47 0.961 . S
C46 H48 0.942 1_545 S
C46 H49 0.960 . S
H47 C46 0.961 . S
H48 C46 0.942 1_565 S
H49 C46 0.960 . S
C50 N51 1.342 . S
C50 C54 1.401 1_556 S
C50 C55 1.499 . S
N51 Co34 1.989 1_565 S
N51 C50 1.342 . S
N51 N52 1.388 1_556 S
N52 Co35 1.993 1_565 S
N52 N51 1.388 1_554 S
N52 C53 1.346 . S
C53 N52 1.346 . S
C53 C54 1.396 . S
C53 C63 1.510 . S
C54 C50 1.401 1_554 S
C54 C53 1.396 . S
C55 C50 1.499 . S
C55 H56 0.959 . S
C55 H57 0.960 . S
C55 H58 0.961 . S
H56 C55 0.959 . S
H57 C55 0.960 . S
H58 C55 0.961 . S
O59 Co34 1.967 . S
O59 C67 1.258 1_556 S
O60 Co35 1.941 . S
O60 C67 1.266 . S
H61 C63 0.959 . S
H62 C63 0.961 . S
C63 C53 1.510 . S
C63 H61 0.959 . S
C63 H62 0.961 . S
C63 H64 0.960 . S
H64 C63 0.960 . S
H65 N45 0.862 . S
O66 Co34 1.920 . S
O66 C39 1.297 . S
C67 O59 1.258 1_554 S
C67 O60 1.266 . S
Co68 O71 1.970 . S
Co68 N85 1.989 1_655 S
Co68 O93 1.967 . S
Co68 O100 1.920 . S
Co69 O72 1.966 . S
Co69 N78 2.022 . S
Co69 N86 1.993 1_655 S
Co69 O94 1.941 . S
C70 O71 1.258 . S
C70 O72 1.263 1_556 S
O71 Co68 1.970 . S
O71 C70 1.258 . S
O72 Co69 1.966 . S
O72 C70 1.263 1_554 S
C73 O74 1.220 1_655 S
C73 O100 1.301 . S
O74 C73 1.220 1_455 S
C75 C77 1.400 . S
C75 N78 1.351 . S
C75 C80 1.501 . S
C76 C77 1.387 . S
C76 N79 1.341 . S
C77 C75 1.400 . S
C77 C76 1.387 . S
N78 Co69 2.022 . S
N78 C75 1.351 . S
N78 N79 1.365 . S
N79 C76 1.341 . S
N79 N78 1.365 . S
N79 H99 0.862 . S
C80 C75 1.501 . S
C80 H81 0.961 . S
C80 H82 0.913 1_655 S
C80 H83 0.960 . S
H81 C80 0.961 . S
H82 C80 0.913 1_455 S
H83 C80 0.960 . S
C84 N85 1.342 . S
C84 C88 1.401 1_556 S
C84 C89 1.499 . S
N85 Co68 1.989 1_455 S
N85 C84 1.342 . S
N85 N86 1.388 1_556 S
N86 Co69 1.993 1_455 S
N86 N85 1.388 1_554 S
N86 C87 1.346 . S
C87 N86 1.346 . S
C87 C88 1.396 . S
C87 C97 1.510 . S
C88 C84 1.401 1_554 S
C88 C87 1.396 . S
C89 C84 1.499 . S
C89 H90 0.959 . S
C89 H91 0.960 . S
C89 H92 0.961 . S
H90 C89 0.959 . S
H91 C89 0.960 . S
H92 C89 0.961 . S
O93 Co68 1.967 . S
O93 C101 1.258 1_556 S
O94 Co69 1.941 . S
O94 C101 1.266 . S
H95 C97 0.959 . S
H96 C97 0.961 . S
C97 C87 1.510 . S
C97 H95 0.959 . S
C97 H96 0.961 . S
C97 H98 0.960 . S
H98 C97 0.960 . S
H99 N79 0.862 . S
O100 Co68 1.920 . S
O100 C73 1.301 . S
C101 O93 1.258 1_554 S
C101 O94 1.266 . S
Co102 O105 1.970 . S
Co102 N119 1.989 . S
Co102 O127 1.967 . S
Co102 O134 1.920 . S
Co103 O106 1.966 . S
Co103 N112 2.022 . S
Co103 N120 1.993 . S
Co103 O128 1.941 . S
C104 O105 1.258 . S
C104 O106 1.263 . S
O105 Co102 1.970 . S
O105 C104 1.258 . S
O106 Co103 1.966 . S
O106 C104 1.263 . S
C107 O108 1.235 . S
C107 O134 1.289 . S
O108 C107 1.235 . S
C109 C111 1.400 . S
C109 N112 1.351 . S
C109 C114 1.501 . S
C110 C111 1.387 . S
C110 N113 1.341 . S
C111 C109 1.400 . S
C111 C110 1.387 . S
N112 Co103 2.022 . S
N112 C109 1.351 . S
N112 N113 1.365 . S
N113 C110 1.341 . S
N113 N112 1.365 . S
N113 H133 0.862 . S
C114 C109 1.501 . S
C114 H115 0.961 . S
C114 H116 0.961 . S
C114 H117 0.960 . S
H115 C114 0.961 . S
H116 C114 0.961 . S
H117 C114 0.960 . S
C118 N119 1.342 . S
C118 C122 1.401 . S
C118 C123 1.499 . S
N119 Co102 1.989 . S
N119 C118 1.342 . S
N119 N120 1.388 . S
N120 Co103 1.993 . S
N120 N119 1.388 . S
N120 C121 1.346 . S
C121 N120 1.346 . S
C121 C122 1.396 . S
C121 C131 1.510 . S
C122 C118 1.401 . S
C122 C121 1.396 . S
C123 C118 1.499 . S
C123 H124 0.959 . S
C123 H125 0.960 . S
C123 H126 0.961 . S
H124 C123 0.959 . S
H125 C123 0.960 . S
H126 C123 0.961 . S
O127 Co102 1.967 . S
O127 C135 1.258 . S
O128 Co103 1.941 . S
O128 C135 1.266 . S
H129 C131 0.959 . S
H130 C131 0.961 . S
C131 C121 1.510 . S
C131 H129 0.959 . S
C131 H130 0.961 . S
C131 H132 0.960 . S
H132 C131 0.960 . S
H133 N113 0.862 . S
O134 Co102 1.920 . S
O134 C107 1.289 . S
C135 O127 1.258 . S
C135 O128 1.266 . S
Co136 O139 1.970 . S
Co136 N153 1.989 1_565 S
Co136 O161 1.967 . S
Co136 O168 1.920 . S
Co137 O140 1.966 . S
Co137 N146 2.022 . S
Co137 N154 1.993 1_565 S
Co137 O162 1.941 . S
C138 O139 1.258 . S
C138 O140 1.263 . S
O139 Co136 1.970 . S
O139 C138 1.258 . S
O140 Co137 1.966 . S
O140 C138 1.263 . S
C141 O142 1.235 1_565 S
C141 O168 1.289 . S
O142 C141 1.235 1_545 S
C143 C145 1.400 . S
C143 N146 1.351 . S
C143 C148 1.501 . S
C144 C145 1.387 . S
C144 N147 1.341 . S
C145 C143 1.400 . S
C145 C144 1.387 . S
N146 Co137 2.022 . S
N146 C143 1.351 . S
N146 N147 1.365 . S
N147 C144 1.341 . S
N147 N146 1.365 . S
N147 H167 0.862 . S
C148 C143 1.501 . S
C148 H149 0.961 . S
C148 H150 0.951 1_565 S
C148 H151 0.960 . S
H149 C148 0.961 . S
H150 C148 0.951 1_545 S
H151 C148 0.960 . S
C152 N153 1.342 . S
C152 C156 1.401 . S
C152 C157 1.499 . S
N153 Co136 1.989 1_545 S
N153 C152 1.342 . S
N153 N154 1.388 . S
N154 Co137 1.993 1_545 S
N154 N153 1.388 . S
N154 C155 1.346 . S
C155 N154 1.346 . S
C155 C156 1.396 . S
C155 C165 1.510 . S
C156 C152 1.401 . S
C156 C155 1.396 . S
C157 C152 1.499 . S
C157 H158 0.959 . S
C157 H159 0.960 . S
C157 H160 0.961 . S
H158 C157 0.959 . S
H159 C157 0.960 . S
H160 C157 0.961 . S
O161 Co136 1.967 . S
O161 C169 1.258 . S
O162 Co137 1.941 . S
O162 C169 1.266 . S
H163 C165 0.959 . S
H164 C165 0.961 . S
C165 C155 1.510 . S
C165 H163 0.959 . S
C165 H164 0.961 . S
C165 H166 0.960 . S
H166 C165 0.960 . S
H167 N147 0.862 . S
O168 Co136 1.920 . S
O168 C141 1.289 . S
C169 O161 1.258 . S
C169 O162 1.266 . S
Co170 O173 1.970 . S
Co170 N187 1.989 1_455 S
Co170 O195 1.967 . S
Co170 O202 1.920 . S
Co171 O174 1.966 . S
Co171 N180 2.022 . S
Co171 N188 1.993 1_455 S
Co171 O196 1.941 . S
C172 O173 1.258 . S
C172 O174 1.263 . S
O173 Co170 1.970 . S
O173 C172 1.258 . S
O174 Co171 1.966 . S
O174 C172 1.263 . S
C175 O176 1.235 1_455 S
C175 O202 1.289 . S
O176 C175 1.235 1_655 S
C177 C179 1.400 . S
C177 N180 1.351 . S
C177 C182 1.501 . S
C178 C179 1.387 . S
C178 N181 1.341 . S
C179 C177 1.400 . S
C179 C178 1.387 . S
N180 Co171 2.022 . S
N180 C177 1.351 . S
N180 N181 1.365 . S
N181 C178 1.341 . S
N181 N180 1.365 . S
N181 H201 0.862 . S
C182 C177 1.501 . S
C182 H183 0.961 . S
C182 H184 0.962 1_455 S
C182 H185 0.960 . S
H183 C182 0.961 . S
H184 C182 0.962 1_655 S
H185 C182 0.960 . S
C186 N187 1.342 . S
C186 C190 1.401 . S
C186 C191 1.499 . S
N187 Co170 1.989 1_655 S
N187 C186 1.342 . S
N187 N188 1.388 . S
N188 Co171 1.993 1_655 S
N188 N187 1.388 . S
N188 C189 1.346 . S
C189 N188 1.346 . S
C189 C190 1.396 . S
C189 C199 1.510 . S
C190 C186 1.401 . S
C190 C189 1.396 . S
C191 C186 1.499 . S
C191 H192 0.959 . S
C191 H193 0.960 . S
C191 H194 0.961 . S
H192 C191 0.959 . S
H193 C191 0.960 . S
H194 C191 0.961 . S
O195 Co170 1.967 . S
O195 C203 1.258 . S
O196 Co171 1.941 . S
O196 C203 1.266 . S
H197 C199 0.959 . S
H198 C199 0.961 . S
C199 C189 1.510 . S
C199 H197 0.959 . S
C199 H198 0.961 . S
C199 H200 0.960 . S
H200 C199 0.960 . S
H201 N181 0.862 . S
O202 Co170 1.920 . S
O202 C175 1.289 . S
C203 O195 1.258 . S
C203 O196 1.266 . S
Co204 O207 1.970 . S
Co204 N221 1.989 . S
Co204 O229 1.967 . S
Co204 O236 1.920 . S
Co205 O208 1.966 1_556 S
Co205 N214 2.022 . S
Co205 N222 1.993 1_556 S
Co205 O230 1.941 1_556 S
C206 O207 1.258 . S
C206 O208 1.263 . S
O207 Co204 1.970 . S
O207 C206 1.258 . S
O208 Co205 1.966 1_554 S
O208 C206 1.263 . S
C209 O210 1.235 . S
C209 O236 1.289 . S
O210 C209 1.235 . S
C211 C213 1.400 . S
C211 N214 1.351 . S
C211 C216 1.501 . S
C212 C213 1.387 . S
C212 N215 1.341 . S
C213 C211 1.400 . S
C213 C212 1.387 . S
N214 Co205 2.022 . S
N214 C211 1.351 . S
N214 N215 1.365 . S
N215 C212 1.341 . S
N215 N214 1.365 . S
N215 H235 0.862 . S
C216 C211 1.501 . S
C216 H217 0.961 . S
C216 H218 0.961 . S
C216 H219 0.960 . S
H217 C216 0.961 . S
H218 C216 0.961 . S
H219 C216 0.960 . S
C220 N221 1.342 . S
C220 C224 1.401 . S
C220 C225 1.499 . S
N221 Co204 1.989 . S
N221 C220 1.342 . S
N221 N222 1.388 . S
N222 Co205 1.993 1_554 S
N222 N221 1.388 . S
N222 C223 1.346 1_554 S
C223 N222 1.346 1_556 S
C223 C224 1.396 1_556 S
C223 C233 1.510 . S
C224 C220 1.401 . S
C224 C223 1.396 1_554 S
C225 C220 1.499 . S
C225 H226 0.959 . S
C225 H227 0.960 . S
C225 H228 0.961 . S
H226 C225 0.959 . S
H227 C225 0.960 . S
H228 C225 0.961 . S
O229 Co204 1.967 . S
O229 C237 1.258 . S
O230 Co205 1.941 1_554 S
O230 C237 1.266 . S
H231 C233 0.959 . S
H232 C233 0.961 . S
C233 C223 1.510 . S
C233 H231 0.959 . S
C233 H232 0.961 . S
C233 H234 0.960 . S
H234 C233 0.960 . S
H235 N215 0.862 . S
O236 Co204 1.920 . S
O236 C209 1.289 . S
C237 O229 1.258 . S
C237 O230 1.266 . S
Co238 O241 1.970 . S
Co238 N255 1.989 1_565 S
Co238 O263 1.967 . S
Co238 O270 1.920 . S
Co239 O242 1.966 1_556 S
Co239 N248 2.022 . S
Co239 N256 1.993 1_566 S
Co239 O264 1.941 1_556 S
C240 O241 1.258 . S
C240 O242 1.263 . S
O241 Co238 1.970 . S
O241 C240 1.258 . S
O242 Co239 1.966 1_554 S
O242 C240 1.263 . S
C243 O244 1.235 1_565 S
C243 O270 1.289 . S
O244 C243 1.235 1_545 S
C245 C247 1.400 . S
C245 N248 1.351 . S
C245 C250 1.501 . S
C246 C247 1.387 . S
C246 N249 1.341 . S
C247 C245 1.400 . S
C247 C246 1.387 . S
N248 Co239 2.022 . S
N248 C245 1.351 . S
N248 N249 1.365 . S
N249 C246 1.341 . S
N249 N248 1.365 . S
N249 H269 0.862 . S
C250 C245 1.501 . S
C250 H251 0.961 . S
C250 H252 0.955 1_565 S
C250 H253 0.960 . S
H251 C250 0.961 . S
H252 C250 0.955 1_545 S
H253 C250 0.960 . S
C254 N255 1.342 . S
C254 C258 1.401 . S
C254 C259 1.499 . S
N255 Co238 1.989 1_545 S
N255 C254 1.342 . S
N255 N256 1.388 . S
N256 Co239 1.993 1_544 S
N256 N255 1.388 . S
N256 C257 1.346 1_554 S
C257 N256 1.346 1_556 S
C257 C258 1.396 1_556 S
C257 C267 1.510 . S
C258 C254 1.401 . S
C258 C257 1.396 1_554 S
C259 C254 1.499 . S
C259 H260 0.959 . S
C259 H261 0.960 . S
C259 H262 0.961 . S
H260 C259 0.959 . S
H261 C259 0.960 . S
H262 C259 0.961 . S
O263 Co238 1.967 . S
O263 C271 1.258 . S
O264 Co239 1.941 1_554 S
O264 C271 1.266 . S
H265 C267 0.959 . S
H266 C267 0.961 . S
C267 C257 1.510 . S
C267 H265 0.959 . S
C267 H266 0.961 . S
C267 H268 0.960 . S
H268 C267 0.960 . S
H269 N249 0.862 . S
O270 Co238 1.920 . S
O270 C243 1.289 . S
C271 O263 1.258 . S
C271 O264 1.266 . S
Co272 O275 1.970 . S
Co272 N289 1.989 1_455 S
Co272 O297 1.967 . S
Co272 O304 1.920 . S
Co273 O276 1.966 1_556 S
Co273 N282 2.022 . S
Co273 N290 1.993 1_456 S
Co273 O298 1.941 1_556 S
C274 O275 1.258 . S
C274 O276 1.263 . S
O275 Co272 1.970 . S
O275 C274 1.258 . S
O276 Co273 1.966 1_554 S
O276 C274 1.263 . S
C277 O278 1.235 1_455 S
C277 O304 1.289 . S
O278 C277 1.235 1_655 S
C279 C281 1.400 . S
C279 N282 1.351 . S
C279 C284 1.501 . S
C280 C281 1.387 . S
C280 N283 1.341 . S
C281 C279 1.400 . S
C281 C280 1.387 . S
N282 Co273 2.022 . S
N282 C279 1.351 . S
N282 N283 1.365 . S
N283 C280 1.341 . S
N283 N282 1.365 . S
N283 H303 0.862 . S
C284 C279 1.501 . S
C284 H285 0.961 . S
C284 H286 0.963 1_455 S
C284 H287 0.960 . S
H285 C284 0.961 . S
H286 C284 0.963 1_655 S
H287 C284 0.960 . S
C288 N289 1.342 . S
C288 C292 1.401 . S
C288 C293 1.499 . S
N289 Co272 1.989 1_655 S
N289 C288 1.342 . S
N289 N290 1.388 . S
N290 Co273 1.993 1_654 S
N290 N289 1.388 . S
N290 C291 1.346 1_554 S
C291 N290 1.346 1_556 S
C291 C292 1.396 1_556 S
C291 C301 1.510 . S
C292 C288 1.401 . S
C292 C291 1.396 1_554 S
C293 C288 1.499 . S
C293 H294 0.959 . S
C293 H295 0.960 . S
C293 H296 0.961 . S
H294 C293 0.959 . S
H295 C293 0.960 . S
H296 C293 0.961 . S
O297 Co272 1.967 . S
O297 C305 1.258 . S
O298 Co273 1.941 1_554 S
O298 C305 1.266 . S
H299 C301 0.959 . S
H300 C301 0.961 . S
C301 C291 1.510 . S
C301 H299 0.959 . S
C301 H300 0.961 . S
C301 H302 0.960 . S
H302 C301 0.960 . S
H303 N283 0.862 . S
O304 Co272 1.920 . S
O304 C277 1.289 . S
C305 O297 1.258 . S
C305 O298 1.266 . S
Co306 O309 1.970 . S
Co306 N323 1.989 . S
Co306 O331 1.967 . S
Co306 O338 1.920 . S
Co307 O310 1.966 . S
Co307 N316 2.022 . S
Co307 N324 1.993 . S
Co307 O332 1.941 . S
C308 O309 1.258 . S
C308 O310 1.263 . S
O309 Co306 1.970 . S
O309 C308 1.258 . S
O310 Co307 1.966 . S
O310 C308 1.263 . S
C311 O312 1.235 . S
C311 O338 1.289 . S
O312 C311 1.235 . S
C313 C315 1.400 . S
C313 N316 1.351 . S
C313 C318 1.501 . S
C314 C315 1.387 . S
C314 N317 1.341 . S
C315 C313 1.400 . S
C315 C314 1.387 . S
N316 Co307 2.022 . S
N316 C313 1.351 . S
N316 N317 1.365 . S
N317 C314 1.341 . S
N317 N316 1.365 . S
N317 H337 0.862 . S
C318 C313 1.501 . S
C318 H319 0.961 . S
C318 H320 0.961 . S
C318 H321 0.960 . S
H319 C318 0.961 . S
H320 C318 0.961 . S
H321 C318 0.960 . S
C322 N323 1.342 . S
C322 C326 1.401 . S
C322 C327 1.499 . S
N323 Co306 1.989 . S
N323 C322 1.342 . S
N323 N324 1.388 . S
N324 Co307 1.993 . S
N324 N323 1.388 . S
N324 C325 1.346 . S
C325 N324 1.346 . S
C325 C326 1.396 . S
C325 C335 1.510 . S
C326 C322 1.401 . S
C326 C325 1.396 . S
C327 C322 1.499 . S
C327 H328 0.959 . S
C327 H329 0.960 . S
C327 H330 0.961 . S
H328 C327 0.959 . S
H329 C327 0.960 . S
H330 C327 0.961 . S
O331 Co306 1.967 . S
O331 C339 1.258 . S
O332 Co307 1.941 . S
O332 C339 1.266 . S
H333 C335 0.959 . S
H334 C335 0.961 . S
C335 C325 1.510 . S
C335 H333 0.959 . S
C335 H334 0.961 . S
C335 H336 0.960 . S
H336 C335 0.960 . S
H337 N317 0.862 . S
O338 Co306 1.920 . S
O338 C311 1.289 . S
C339 O331 1.258 . S
C339 O332 1.266 . S
Co340 O343 1.970 . S
Co340 N357 1.989 1_545 S
Co340 O365 1.967 . S
Co340 O372 1.920 . S
Co341 O344 1.966 . S
Co341 N350 2.022 . S
Co341 N358 1.993 1_545 S
Co341 O366 1.941 . S
C342 O343 1.258 . S
C342 O344 1.263 . S
O343 Co340 1.970 . S
O343 C342 1.258 . S
O344 Co341 1.966 . S
O344 C342 1.263 . S
C345 O346 1.208 1_545 S
C345 O372 1.312 . S
O346 C345 1.208 1_565 S
C347 C349 1.400 . S
C347 N350 1.351 . S
C347 C352 1.501 . S
C348 C349 1.387 . S
C348 N351 1.341 . S
C349 C347 1.400 . S
C349 C348 1.387 . S
N350 Co341 2.022 . S
N350 C347 1.351 . S
N350 N351 1.365 . S
N351 C348 1.341 . S
N351 N350 1.365 . S
N351 H371 0.862 . S
C352 C347 1.501 . S
C352 H353 0.961 . S
C352 H354 0.926 1_545 S
C352 H355 0.960 . S
H353 C352 0.961 . S
H354 C352 0.926 1_565 S
H355 C352 0.960 . S
C356 N357 1.342 . S
C356 C360 1.401 . S
C356 C361 1.499 . S
N357 Co340 1.989 1_565 S
N357 C356 1.342 . S
N357 N358 1.388 . S
N358 Co341 1.993 1_565 S
N358 N357 1.388 . S
N358 C359 1.346 . S
C359 N358 1.346 . S
C359 C360 1.396 . S
C359 C369 1.510 . S
C360 C356 1.401 . S
C360 C359 1.396 . S
C361 C356 1.499 . S
C361 H362 0.959 . S
C361 H363 0.960 . S
C361 H364 0.961 . S
H362 C361 0.959 . S
H363 C361 0.960 . S
H364 C361 0.961 . S
O365 Co340 1.967 . S
O365 C373 1.258 . S
O366 Co341 1.941 . S
O366 C373 1.266 . S
H367 C369 0.959 . S
H368 C369 0.961 . S
C369 C359 1.510 . S
C369 H367 0.959 . S
C369 H368 0.961 . S
C369 H370 0.960 . S
H370 C369 0.960 . S
H371 N351 0.862 . S
O372 Co340 1.920 . S
O372 C345 1.312 . S
C373 O365 1.258 . S
C373 O366 1.266 . S
Co374 O377 1.970 . S
Co374 N391 1.989 1_655 S
Co374 O399 1.967 . S
Co374 O406 1.920 . S
Co375 O378 1.966 . S
Co375 N384 2.022 . S
Co375 N392 1.993 1_655 S
Co375 O400 1.941 . S
C376 O377 1.258 . S
C376 O378 1.263 . S
O377 Co374 1.970 . S
O377 C376 1.258 . S
O378 Co375 1.966 . S
O378 C376 1.263 . S
C379 O380 1.232 1_655 S
C379 O406 1.293 . S
O380 C379 1.232 1_455 S
C381 C383 1.400 . S
C381 N384 1.351 . S
C381 C386 1.501 . S
C382 C383 1.387 . S
C382 N385 1.341 . S
C383 C381 1.400 . S
C383 C382 1.387 . S
N384 Co375 2.022 . S
N384 C381 1.351 . S
N384 N385 1.365 . S
N385 C382 1.341 . S
N385 N384 1.365 . S
N385 H405 0.862 . S
C386 C381 1.501 . S
C386 H387 0.961 . S
C386 H388 0.936 1_655 S
C386 H389 0.960 . S
H387 C386 0.961 . S
H388 C386 0.936 1_455 S
H389 C386 0.960 . S
C390 N391 1.342 . S
C390 C394 1.401 . S
C390 C395 1.499 . S
N391 Co374 1.989 1_455 S
N391 C390 1.342 . S
N391 N392 1.388 . S
N392 Co375 1.993 1_455 S
N392 N391 1.388 . S
N392 C393 1.346 . S
C393 N392 1.346 . S
C393 C394 1.396 . S
C393 C403 1.510 . S
C394 C390 1.401 . S
C394 C393 1.396 . S
C395 C390 1.499 . S
C395 H396 0.959 . S
C395 H397 0.960 . S
C395 H398 0.961 . S
H396 C395 0.959 . S
H397 C395 0.960 . S
H398 C395 0.961 . S
O399 Co374 1.967 . S
O399 C407 1.258 . S
O400 Co375 1.941 . S
O400 C407 1.266 . S
H401 C403 0.959 . S
H402 C403 0.961 . S
C403 C393 1.510 . S
C403 H401 0.959 . S
C403 H402 0.961 . S
C403 H404 0.960 . S
H404 C403 0.960 . S
H405 N385 0.862 . S
O406 Co374 1.920 . S
O406 C379 1.293 . S
C407 O399 1.258 . S
C407 O400 1.266 . S
Co408 O411 1.970 . S
Co408 N425 1.989 . S
Co408 O433 1.967 . S
Co408 O440 1.920 . S
Co409 O412 1.966 . S
Co409 N418 2.022 . S
Co409 N426 1.993 . S
Co409 O434 1.941 . S
C410 O411 1.258 . S
C410 O412 1.263 . S
O411 Co408 1.970 . S
O411 C410 1.258 . S
O412 Co409 1.966 . S
O412 C410 1.263 . S
C413 O414 1.235 . S
C413 O440 1.289 . S
O414 C413 1.235 . S
C415 C417 1.400 . S
C415 N418 1.351 . S
C415 C420 1.501 . S
C416 C417 1.387 . S
C416 N419 1.341 . S
C417 C415 1.400 . S
C417 C416 1.387 . S
N418 Co409 2.022 . S
N418 C415 1.351 . S
N418 N419 1.365 . S
N419 C416 1.341 . S
N419 N418 1.365 . S
N419 H439 0.862 . S
C420 C415 1.501 . S
C420 H421 0.961 . S
C420 H422 0.961 . S
C420 H423 0.960 . S
H421 C420 0.961 . S
H422 C420 0.961 . S
H423 C420 0.960 . S
C424 N425 1.342 . S
C424 C428 1.401 . S
C424 C429 1.499 . S
N425 Co408 1.989 . S
N425 C424 1.342 . S
N425 N426 1.388 . S
N426 Co409 1.993 . S
N426 N425 1.388 . S
N426 C427 1.346 . S
C427 N426 1.346 . S
C427 C428 1.396 . S
C427 C437 1.510 . S
C428 C424 1.401 . S
C428 C427 1.396 . S
C429 C424 1.499 . S
C429 H430 0.959 . S
C429 H431 0.960 . S
C429 H432 0.961 . S
H430 C429 0.959 . S
H431 C429 0.960 . S
H432 C429 0.961 . S
O433 Co408 1.967 . S
O433 C441 1.258 . S
O434 Co409 1.941 . S
O434 C441 1.266 . S
H435 C437 0.959 . S
H436 C437 0.961 . S
C437 C427 1.510 . S
C437 H435 0.959 . S
C437 H436 0.961 . S
C437 H438 0.960 . S
H438 C437 0.960 . S
H439 N419 0.862 . S
O440 Co408 1.920 . S
O440 C413 1.289 . S
C441 O433 1.258 . S
C441 O434 1.266 . S
Co442 O445 1.970 . S
Co442 N459 1.989 . S
Co442 O467 1.967 . S
Co442 O474 1.920 . S
Co443 O446 1.966 . S
Co443 N452 2.022 . S
Co443 N460 1.993 . S
Co443 O468 1.941 . S
C444 O445 1.258 . S
C444 O446 1.263 . S
O445 Co442 1.970 . S
O445 C444 1.258 . S
O446 Co443 1.966 . S
O446 C444 1.263 . S
C447 O448 1.235 . S
C447 O474 1.289 . S
O448 C447 1.235 . S
C449 C451 1.400 . S
C449 N452 1.351 . S
C449 C454 1.501 . S
C450 C451 1.387 . S
C450 N453 1.341 . S
C451 C449 1.400 . S
C451 C450 1.387 . S
N452 Co443 2.022 . S
N452 C449 1.351 . S
N452 N453 1.365 . S
N453 C450 1.341 . S
N453 N452 1.365 . S
N453 H473 0.862 . S
C454 C449 1.501 . S
C454 H455 0.961 . S
C454 H456 0.961 . S
C454 H457 0.960 . S
H455 C454 0.961 . S
H456 C454 0.961 . S
H457 C454 0.960 . S
C458 N459 1.342 . S
C458 C462 1.401 . S
C458 C463 1.499 . S
N459 Co442 1.989 . S
N459 C458 1.342 . S
N459 N460 1.388 . S
N460 Co443 1.993 . S
N460 N459 1.388 . S
N460 C461 1.346 . S
C461 N460 1.346 . S
C461 C462 1.396 . S
C461 C471 1.510 . S
C462 C458 1.401 . S
C462 C461 1.396 . S
C463 C458 1.499 . S
C463 H464 0.959 . S
C463 H465 0.960 . S
C463 H466 0.961 . S
H464 C463 0.959 . S
H465 C463 0.960 . S
H466 C463 0.961 . S
O467 Co442 1.967 . S
O467 C475 1.258 . S
O468 Co443 1.941 . S
O468 C475 1.266 . S
H469 C471 0.959 . S
H470 C471 0.961 . S
C471 C461 1.510 . S
C471 H469 0.959 . S
C471 H470 0.961 . S
C471 H472 0.960 . S
H472 C471 0.960 . S
H473 N453 0.862 . S
O474 Co442 1.920 . S
O474 C447 1.289 . S
C475 O467 1.258 . S
C475 O468 1.266 . S
Co476 O479 1.970 . S
Co476 N493 1.989 . S
Co476 O501 1.967 . S
Co476 O508 1.920 . S
Co477 O480 1.966 . S
Co477 N486 2.022 . S
Co477 N494 1.993 . S
Co477 O502 1.941 . S
C478 O479 1.258 . S
C478 O480 1.263 . S
O479 Co476 1.970 . S
O479 C478 1.258 . S
O480 Co477 1.966 . S
O480 C478 1.263 . S
C481 O482 1.235 . S
C481 O508 1.289 . S
O482 C481 1.235 . S
C483 C485 1.400 . S
C483 N486 1.351 . S
C483 C488 1.501 . S
C484 C485 1.387 . S
C484 N487 1.341 . S
C485 C483 1.400 . S
C485 C484 1.387 . S
N486 Co477 2.022 . S
N486 C483 1.351 . S
N486 N487 1.365 . S
N487 C484 1.341 . S
N487 N486 1.365 . S
N487 H507 0.862 . S
C488 C483 1.501 . S
C488 H489 0.961 . S
C488 H490 0.961 . S
C488 H491 0.960 . S
H489 C488 0.961 . S
H490 C488 0.961 . S
H491 C488 0.960 . S
C492 N493 1.342 . S
C492 C496 1.401 . S
C492 C497 1.499 . S
N493 Co476 1.989 . S
N493 C492 1.342 . S
N493 N494 1.388 . S
N494 Co477 1.993 . S
N494 N493 1.388 . S
N494 C495 1.346 . S
C495 N494 1.346 . S
C495 C496 1.396 . S
C495 C505 1.510 . S
C496 C492 1.401 . S
C496 C495 1.396 . S
C497 C492 1.499 . S
C497 H498 0.959 . S
C497 H499 0.960 . S
C497 H500 0.961 . S
H498 C497 0.959 . S
H499 C497 0.960 . S
H500 C497 0.961 . S
O501 Co476 1.967 . S
O501 C509 1.258 . S
O502 Co477 1.941 . S
O502 C509 1.266 . S
H503 C505 0.959 . S
H504 C505 0.961 . S
C505 C495 1.510 . S
C505 H503 0.959 . S
C505 H504 0.961 . S
C505 H506 0.960 . S
H506 C505 0.960 . S
H507 N487 0.862 . S
O508 Co476 1.920 . S
O508 C481 1.289 . S
C509 O501 1.258 . S
C509 O502 1.266 . S
Co510 O513 1.970 . S
Co510 N527 1.989 . S
Co510 O535 1.967 . S
Co510 O542 1.920 . S
Co511 O514 1.966 . S
Co511 N520 2.022 . S
Co511 N528 1.993 . S
Co511 O536 1.941 . S
C512 O513 1.258 . S
C512 O514 1.263 . S
O513 Co510 1.970 . S
O513 C512 1.258 . S
O514 Co511 1.966 . S
O514 C512 1.263 . S
C515 O516 1.235 . S
C515 O542 1.289 1_554 S
O516 C515 1.235 . S
C517 C519 1.400 . S
C517 N520 1.351 . S
C517 C522 1.501 . S
C518 C519 1.387 . S
C518 N521 1.341 . S
C519 C517 1.400 . S
C519 C518 1.387 . S
N520 Co511 2.022 . S
N520 C517 1.351 . S
N520 N521 1.365 . S
N521 C518 1.341 . S
N521 N520 1.365 . S
N521 H541 0.862 . S
C522 C517 1.501 . S
C522 H523 0.961 . S
C522 H524 0.961 . S
C522 H525 0.960 . S
H523 C522 0.961 . S
H524 C522 0.961 . S
H525 C522 0.960 . S
C526 N527 1.342 . S
C526 C530 1.401 . S
C526 C531 1.499 . S
N527 Co510 1.989 . S
N527 C526 1.342 . S
N527 N528 1.388 . S
N528 Co511 1.993 . S
N528 N527 1.388 . S
N528 C529 1.346 . S
C529 N528 1.346 . S
C529 C530 1.396 . S
C529 C539 1.510 . S
C530 C526 1.401 . S
C530 C529 1.396 . S
C531 C526 1.499 . S
C531 H532 0.959 . S
C531 H533 0.960 . S
C531 H534 0.961 . S
H532 C531 0.959 . S
H533 C531 0.960 . S
H534 C531 0.961 . S
O535 Co510 1.967 . S
O535 C543 1.258 . S
O536 Co511 1.941 . S
O536 C543 1.266 . S
H537 C539 0.959 . S
H538 C539 0.961 . S
C539 C529 1.510 . S
C539 H537 0.959 . S
C539 H538 0.961 . S
C539 H540 0.960 . S
H540 C539 0.960 . S
H541 N521 0.862 . S
O542 Co510 1.920 . S
O542 C515 1.289 1_556 S
C543 O535 1.258 . S
C543 O536 1.266 . S
Co544 O547 1.970 . S
Co544 N561 1.989 . S
Co544 O569 1.967 . S
Co544 O576 1.920 . S
Co545 O548 1.966 . S
Co545 N554 2.022 . S
Co545 N562 1.993 . S
Co545 O570 1.941 . S
C546 O547 1.258 . S
C546 O548 1.263 . S
O547 Co544 1.970 . S
O547 C546 1.258 . S
O548 Co545 1.966 . S
O548 C546 1.263 . S
C549 O550 1.235 . S
C549 O576 1.289 1_554 S
O550 C549 1.235 . S
C551 C553 1.400 . S
C551 N554 1.351 . S
C551 C556 1.501 . S
C552 C553 1.387 . S
C552 N555 1.341 . S
C553 C551 1.400 . S
C553 C552 1.387 . S
N554 Co545 2.022 . S
N554 C551 1.351 . S
N554 N555 1.365 . S
N555 C552 1.341 . S
N555 N554 1.365 . S
N555 H575 0.862 . S
C556 C551 1.501 . S
C556 H557 0.961 . S
C556 H558 0.961 . S
C556 H559 0.960 . S
H557 C556 0.961 . S
H558 C556 0.961 . S
H559 C556 0.960 . S
C560 N561 1.342 . S
C560 C564 1.401 . S
C560 C565 1.499 . S
N561 Co544 1.989 . S
N561 C560 1.342 . S
N561 N562 1.388 . S
N562 Co545 1.993 . S
N562 N561 1.388 . S
N562 C563 1.346 . S
C563 N562 1.346 . S
C563 C564 1.396 . S
C563 C573 1.510 . S
C564 C560 1.401 . S
C564 C563 1.396 . S
C565 C560 1.499 . S
C565 H566 0.959 . S
C565 H567 0.960 . S
C565 H568 0.961 . S
H566 C565 0.959 . S
H567 C565 0.960 . S
H568 C565 0.961 . S
O569 Co544 1.967 . S
O569 C577 1.258 . S
O570 Co545 1.941 . S
O570 C577 1.266 . S
H571 C573 0.959 . S
H572 C573 0.961 . S
C573 C563 1.510 . S
C573 H571 0.959 . S
C573 H572 0.961 . S
C573 H574 0.960 . S
H574 C573 0.960 . S
H575 N555 0.862 . S
O576 Co544 1.920 . S
O576 C549 1.289 1_556 S
C577 O569 1.258 . S
C577 O570 1.266 . S
Co578 O581 1.970 . S
Co578 N595 1.989 . S
Co578 O603 1.967 . S
Co578 O610 1.920 . S
Co579 O582 1.966 . S
Co579 N588 2.022 . S
Co579 N596 1.993 . S
Co579 O604 1.941 . S
C580 O581 1.258 . S
C580 O582 1.263 . S
O581 Co578 1.970 . S
O581 C580 1.258 . S
O582 Co579 1.966 . S
O582 C580 1.263 . S
C583 O584 1.235 . S
C583 O610 1.289 1_554 S
O584 C583 1.235 . S
C585 C587 1.400 . S
C585 N588 1.351 . S
C585 C590 1.501 . S
C586 C587 1.387 . S
C586 N589 1.341 . S
C587 C585 1.400 . S
C587 C586 1.387 . S
N588 Co579 2.022 . S
N588 C585 1.351 . S
N588 N589 1.365 . S
N589 C586 1.341 . S
N589 N588 1.365 . S
N589 H609 0.862 . S
C590 C585 1.501 . S
C590 H591 0.961 . S
C590 H592 0.961 . S
C590 H593 0.960 . S
H591 C590 0.961 . S
H592 C590 0.961 . S
H593 C590 0.960 . S
C594 N595 1.342 . S
C594 C598 1.401 . S
C594 C599 1.499 . S
N595 Co578 1.989 . S
N595 C594 1.342 . S
N595 N596 1.388 . S
N596 Co579 1.993 . S
N596 N595 1.388 . S
N596 C597 1.346 . S
C597 N596 1.346 . S
C597 C598 1.396 . S
C597 C607 1.510 . S
C598 C594 1.401 . S
C598 C597 1.396 . S
C599 C594 1.499 . S
C599 H600 0.959 . S
C599 H601 0.960 . S
C599 H602 0.961 . S
H600 C599 0.959 . S
H601 C599 0.960 . S
H602 C599 0.961 . S
O603 Co578 1.967 . S
O603 C611 1.258 . S
O604 Co579 1.941 . S
O604 C611 1.266 . S
H605 C607 0.959 . S
H606 C607 0.961 . S
C607 C597 1.510 . S
C607 H605 0.959 . S
C607 H606 0.961 . S
C607 H608 0.960 . S
H608 C607 0.960 . S
H609 N589 0.862 . S
O610 Co578 1.920 . S
O610 C583 1.289 1_556 S
C611 O603 1.258 . S
C611 O604 1.266 . S
Co612 O615 1.970 . S
Co612 N629 1.989 . S
Co612 O637 1.967 . S
Co612 O644 1.920 . S
Co613 O616 1.966 . S
Co613 N622 2.022 . S
Co613 N630 1.993 . S
Co613 O638 1.941 . S
C614 O615 1.258 . S
C614 O616 1.263 . S
O615 Co612 1.970 . S
O615 C614 1.258 . S
O616 Co613 1.966 . S
O616 C614 1.263 . S
C617 O618 1.235 . S
C617 O644 1.289 . S
O618 C617 1.235 . S
C619 C621 1.400 . S
C619 N622 1.351 . S
C619 C624 1.501 . S
C620 C621 1.387 . S
C620 N623 1.341 . S
C621 C619 1.400 . S
C621 C620 1.387 . S
N622 Co613 2.022 . S
N622 C619 1.351 . S
N622 N623 1.365 . S
N623 C620 1.341 . S
N623 N622 1.365 . S
N623 H643 0.862 . S
C624 C619 1.501 . S
C624 H625 0.961 . S
C624 H626 0.961 . S
C624 H627 0.960 . S
H625 C624 0.961 . S
H626 C624 0.961 . S
H627 C624 0.960 . S
C628 N629 1.342 . S
C628 C632 1.401 . S
C628 C633 1.499 . S
N629 Co612 1.989 . S
N629 C628 1.342 . S
N629 N630 1.388 . S
N630 Co613 1.993 . S
N630 N629 1.388 . S
N630 C631 1.346 . S
C631 N630 1.346 . S
C631 C632 1.396 . S
C631 C641 1.510 . S
C632 C628 1.401 . S
C632 C631 1.396 . S
C633 C628 1.499 . S
C633 H634 0.959 . S
C633 H635 0.960 . S
C633 H636 0.961 . S
H634 C633 0.959 . S
H635 C633 0.960 . S
H636 C633 0.961 . S
O637 Co612 1.967 . S
O637 C645 1.258 . S
O638 Co613 1.941 . S
O638 C645 1.266 . S
H639 C641 0.959 . S
H640 C641 0.961 . S
C641 C631 1.510 . S
C641 H639 0.959 . S
C641 H640 0.961 . S
C641 H642 0.960 . S
H642 C641 0.960 . S
H643 N623 0.862 . S
O644 Co612 1.920 . S
O644 C617 1.289 . S
C645 O637 1.258 . S
C645 O638 1.266 . S
Co646 O649 1.970 . S
Co646 N663 1.989 . S
Co646 O671 1.967 . S
Co646 O678 1.920 . S
Co647 O650 1.966 . S
Co647 N656 2.022 . S
Co647 N664 1.993 . S
Co647 O672 1.941 . S
C648 O649 1.258 . S
C648 O650 1.263 . S
O649 Co646 1.970 . S
O649 C648 1.258 . S
O650 Co647 1.966 . S
O650 C648 1.263 . S
C651 O652 1.235 . S
C651 O678 1.289 . S
O652 C651 1.235 . S
C653 C655 1.400 . S
C653 N656 1.351 . S
C653 C658 1.501 . S
C654 C655 1.387 . S
C654 N657 1.341 . S
C655 C653 1.400 . S
C655 C654 1.387 . S
N656 Co647 2.022 . S
N656 C653 1.351 . S
N656 N657 1.365 . S
N657 C654 1.341 . S
N657 N656 1.365 . S
N657 H677 0.862 . S
C658 C653 1.501 . S
C658 H659 0.961 . S
C658 H660 0.961 . S
C658 H661 0.960 . S
H659 C658 0.961 . S
H660 C658 0.961 . S
H661 C658 0.960 . S
C662 N663 1.342 . S
C662 C666 1.401 . S
C662 C667 1.499 . S
N663 Co646 1.989 . S
N663 C662 1.342 . S
N663 N664 1.388 . S
N664 Co647 1.993 . S
N664 N663 1.388 . S
N664 C665 1.346 . S
C665 N664 1.346 . S
C665 C666 1.396 . S
C665 C675 1.510 . S
C666 C662 1.401 . S
C666 C665 1.396 . S
C667 C662 1.499 . S
C667 H668 0.959 . S
C667 H669 0.960 . S
C667 H670 0.961 . S
H668 C667 0.959 . S
H669 C667 0.960 . S
H670 C667 0.961 . S
O671 Co646 1.967 . S
O671 C679 1.258 . S
O672 Co647 1.941 . S
O672 C679 1.266 . S
H673 C675 0.959 . S
H674 C675 0.961 . S
C675 C665 1.510 . S
C675 H673 0.959 . S
C675 H674 0.961 . S
C675 H676 0.960 . S
H676 C675 0.960 . S
H677 N657 0.862 . S
O678 Co646 1.920 . S
O678 C651 1.289 . S
C679 O671 1.258 . S
C679 O672 1.266 . S
Co680 O683 1.970 . S
Co680 N697 1.989 . S
Co680 O705 1.967 . S
Co680 O712 1.920 . S
Co681 O684 1.966 . S
Co681 N690 2.022 . S
Co681 N698 1.993 . S
Co681 O706 1.941 . S
C682 O683 1.258 . S
C682 O684 1.263 . S
O683 Co680 1.970 . S
O683 C682 1.258 . S
O684 Co681 1.966 . S
O684 C682 1.263 . S
C685 O686 1.235 . S
C685 O712 1.289 . S
O686 C685 1.235 . S
C687 C689 1.400 . S
C687 N690 1.351 . S
C687 C692 1.501 . S
C688 C689 1.387 . S
C688 N691 1.341 . S
C689 C687 1.400 . S
C689 C688 1.387 . S
N690 Co681 2.022 . S
N690 C687 1.351 . S
N690 N691 1.365 . S
N691 C688 1.341 . S
N691 N690 1.365 . S
N691 H711 0.862 . S
C692 C687 1.501 . S
C692 H693 0.961 . S
C692 H694 0.961 . S
C692 H695 0.960 . S
H693 C692 0.961 . S
H694 C692 0.961 . S
H695 C692 0.960 . S
C696 N697 1.342 . S
C696 C700 1.401 . S
C696 C701 1.499 . S
N697 Co680 1.989 . S
N697 C696 1.342 . S
N697 N698 1.388 . S
N698 Co681 1.993 . S
N698 N697 1.388 . S
N698 C699 1.346 . S
C699 N698 1.346 . S
C699 C700 1.396 . S
C699 C709 1.510 . S
C700 C696 1.401 . S
C700 C699 1.396 . S
C701 C696 1.499 . S
C701 H702 0.959 . S
C701 H703 0.960 . S
C701 H704 0.961 . S
H702 C701 0.959 . S
H703 C701 0.960 . S
H704 C701 0.961 . S
O705 Co680 1.967 . S
O705 C713 1.258 . S
O706 Co681 1.941 . S
O706 C713 1.266 . S
H707 C709 0.959 . S
H708 C709 0.961 . S
C709 C699 1.510 . S
C709 H707 0.959 . S
C709 H708 0.961 . S
C709 H710 0.960 . S
H710 C709 0.960 . S
H711 N691 0.862 . S
O712 Co680 1.920 . S
O712 C685 1.289 . S
C713 O705 1.258 . S
C713 O706 1.266 . S
Co714 O717 1.970 . S
Co714 N731 1.989 . S
Co714 O739 1.967 . S
Co714 O746 1.920 . S
Co715 O718 1.966 . S
Co715 N724 2.022 . S
Co715 N732 1.993 . S
Co715 O740 1.941 . S
C716 O717 1.258 . S
C716 O718 1.263 . S
O717 Co714 1.970 . S
O717 C716 1.258 . S
O718 Co715 1.966 . S
O718 C716 1.263 . S
C719 O720 1.235 . S
C719 O746 1.289 . S
O720 C719 1.235 . S
C721 C723 1.400 1_556 S
C721 N724 1.351 . S
C721 C726 1.501 . S
C722 C723 1.387 . S
C722 N725 1.341 1_554 S
C723 C721 1.400 1_554 S
C723 C722 1.387 . S
N724 Co715 2.022 . S
N724 C721 1.351 . S
N724 N725 1.365 . S
N725 C722 1.341 1_556 S
N725 N724 1.365 . S
N725 H745 0.862 . S
C726 C721 1.501 . S
C726 H727 0.961 . S
C726 H728 0.961 . S
C726 H729 0.960 . S
H727 C726 0.961 . S
H728 C726 0.961 . S
H729 C726 0.960 . S
C730 N731 1.342 . S
C730 C734 1.401 . S
C730 C735 1.499 . S
N731 Co714 1.989 . S
N731 C730 1.342 . S
N731 N732 1.388 . S
N732 Co715 1.993 . S
N732 N731 1.388 . S
N732 C733 1.346 . S
C733 N732 1.346 . S
C733 C734 1.396 . S
C733 C743 1.510 . S
C734 C730 1.401 . S
C734 C733 1.396 . S
C735 C730 1.499 . S
C735 H736 0.959 . S
C735 H737 0.960 . S
C735 H738 0.961 . S
H736 C735 0.959 . S
H737 C735 0.960 . S
H738 C735 0.961 . S
O739 Co714 1.967 . S
O739 C747 1.258 . S
O740 Co715 1.941 . S
O740 C747 1.266 . S
H741 C743 0.959 . S
H742 C743 0.961 . S
C743 C733 1.510 . S
C743 H741 0.959 . S
C743 H742 0.961 . S
C743 H744 0.960 . S
H744 C743 0.960 . S
H745 N725 0.862 . S
O746 Co714 1.920 . S
O746 C719 1.289 . S
C747 O739 1.258 . S
C747 O740 1.266 . S
Co748 O751 1.970 . S
Co748 N765 1.989 . S
Co748 O773 1.967 . S
Co748 O780 1.920 . S
Co749 O752 1.966 . S
Co749 N758 2.022 . S
Co749 N766 1.993 . S
Co749 O774 1.941 . S
C750 O751 1.258 . S
C750 O752 1.263 . S
O751 Co748 1.970 . S
O751 C750 1.258 . S
O752 Co749 1.966 . S
O752 C750 1.263 . S
C753 O754 1.235 . S
C753 O780 1.289 . S
O754 C753 1.235 . S
C755 C757 1.400 1_556 S
C755 N758 1.351 . S
C755 C760 1.501 . S
C756 C757 1.387 . S
C756 N759 1.341 1_554 S
C757 C755 1.400 1_554 S
C757 C756 1.387 . S
N758 Co749 2.022 . S
N758 C755 1.351 . S
N758 N759 1.365 . S
N759 C756 1.341 1_556 S
N759 N758 1.365 . S
N759 H779 0.862 . S
C760 C755 1.501 . S
C760 H761 0.961 . S
C760 H762 0.961 . S
C760 H763 0.960 . S
H761 C760 0.961 . S
H762 C760 0.961 . S
H763 C760 0.960 . S
C764 N765 1.342 . S
C764 C768 1.401 . S
C764 C769 1.499 . S
N765 Co748 1.989 . S
N765 C764 1.342 . S
N765 N766 1.388 . S
N766 Co749 1.993 . S
N766 N765 1.388 . S
N766 C767 1.346 . S
C767 N766 1.346 . S
C767 C768 1.396 . S
C767 C777 1.510 . S
C768 C764 1.401 . S
C768 C767 1.396 . S
C769 C764 1.499 . S
C769 H770 0.959 . S
C769 H771 0.960 . S
C769 H772 0.961 . S
H770 C769 0.959 . S
H771 C769 0.960 . S
H772 C769 0.961 . S
O773 Co748 1.967 . S
O773 C781 1.258 . S
O774 Co749 1.941 . S
O774 C781 1.266 . S
H775 C777 0.959 . S
H776 C777 0.961 . S
C777 C767 1.510 . S
C777 H775 0.959 . S
C777 H776 0.961 . S
C777 H778 0.960 . S
H778 C777 0.960 . S
H779 N759 0.862 . S
O780 Co748 1.920 . S
O780 C753 1.289 . S
C781 O773 1.258 . S
C781 O774 1.266 . S
Co782 O785 1.970 . S
Co782 N799 1.989 . S
Co782 O807 1.967 . S
Co782 O814 1.920 . S
Co783 O786 1.966 . S
Co783 N792 2.022 . S
Co783 N800 1.993 . S
Co783 O808 1.941 . S
C784 O785 1.258 . S
C784 O786 1.263 . S
O785 Co782 1.970 . S
O785 C784 1.258 . S
O786 Co783 1.966 . S
O786 C784 1.263 . S
C787 O788 1.235 . S
C787 O814 1.289 . S
O788 C787 1.235 . S
C789 C791 1.400 1_556 S
C789 N792 1.351 . S
C789 C794 1.501 . S
C790 C791 1.387 . S
C790 N793 1.341 1_554 S
C791 C789 1.400 1_554 S
C791 C790 1.387 . S
N792 Co783 2.022 . S
N792 C789 1.351 . S
N792 N793 1.365 . S
N793 C790 1.341 1_556 S
N793 N792 1.365 . S
N793 H813 0.862 . S
C794 C789 1.501 . S
C794 H795 0.961 . S
C794 H796 0.961 . S
C794 H797 0.960 . S
H795 C794 0.961 . S
H796 C794 0.961 . S
H797 C794 0.960 . S
C798 N799 1.342 . S
C798 C802 1.401 . S
C798 C803 1.499 . S
N799 Co782 1.989 . S
N799 C798 1.342 . S
N799 N800 1.388 . S
N800 Co783 1.993 . S
N800 N799 1.388 . S
N800 C801 1.346 . S
C801 N800 1.346 . S
C801 C802 1.396 . S
C801 C811 1.510 . S
C802 C798 1.401 . S
C802 C801 1.396 . S
C803 C798 1.499 . S
C803 H804 0.959 . S
C803 H805 0.960 . S
C803 H806 0.961 . S
H804 C803 0.959 . S
H805 C803 0.960 . S
H806 C803 0.961 . S
O807 Co782 1.967 . S
O807 C815 1.258 . S
O808 Co783 1.941 . S
O808 C815 1.266 . S
H809 C811 0.959 . S
H810 C811 0.961 . S
C811 C801 1.510 . S
C811 H809 0.959 . S
C811 H810 0.961 . S
C811 H812 0.960 . S
H812 C811 0.960 . S
H813 N793 0.862 . S
O814 Co782 1.920 . S
O814 C787 1.289 . S
C815 O807 1.258 . S
C815 O808 1.266 . S
Co816 O819 1.970 . S
Co816 N833 1.989 . S
Co816 O841 1.967 . S
Co816 O848 1.920 . S
Co817 O820 1.966 . S
Co817 N826 2.022 . S
Co817 N834 1.993 . S
Co817 O842 1.941 . S
C818 O819 1.258 . S
C818 O820 1.263 . S
O819 Co816 1.970 . S
O819 C818 1.258 . S
O820 Co817 1.966 . S
O820 C818 1.263 . S
C821 O822 1.235 . S
C821 O848 1.289 . S
O822 C821 1.235 . S
C823 C825 1.400 . S
C823 N826 1.351 . S
C823 C828 1.501 . S
C824 C825 1.387 . S
C824 N827 1.341 . S
C825 C823 1.400 . S
C825 C824 1.387 . S
N826 Co817 2.022 . S
N826 C823 1.351 . S
N826 N827 1.365 . S
N827 C824 1.341 . S
N827 N826 1.365 . S
N827 H847 0.862 . S
C828 C823 1.501 . S
C828 H829 0.961 . S
C828 H830 0.961 . S
C828 H831 0.960 . S
H829 C828 0.961 . S
H830 C828 0.961 . S
H831 C828 0.960 . S
C832 N833 1.342 . S
C832 C836 1.401 . S
C832 C837 1.499 . S
N833 Co816 1.989 . S
N833 C832 1.342 . S
N833 N834 1.388 . S
N834 Co817 1.993 . S
N834 N833 1.388 . S
N834 C835 1.346 . S
C835 N834 1.346 . S
C835 C836 1.396 . S
C835 C845 1.510 . S
C836 C832 1.401 . S
C836 C835 1.396 . S
C837 C832 1.499 . S
C837 H838 0.959 . S
C837 H839 0.960 . S
C837 H840 0.961 . S
H838 C837 0.959 . S
H839 C837 0.960 . S
H840 C837 0.961 . S
O841 Co816 1.967 . S
O841 C849 1.258 . S
O842 Co817 1.941 . S
O842 C849 1.266 . S
H843 C845 0.959 . S
H844 C845 0.961 . S
C845 C835 1.510 . S
C845 H843 0.959 . S
C845 H844 0.961 . S
C845 H846 0.960 . S
H846 C845 0.960 . S
H847 N827 0.862 . S
O848 Co816 1.920 . S
O848 C821 1.289 . S
C849 O841 1.258 . S
C849 O842 1.266 . S
Co850 O853 1.970 . S
Co850 N867 1.989 . S
Co850 O875 1.967 . S
Co850 O882 1.920 . S
Co851 O854 1.966 . S
Co851 N860 2.022 . S
Co851 N868 1.993 . S
Co851 O876 1.941 . S
C852 O853 1.258 . S
C852 O854 1.263 . S
O853 Co850 1.970 . S
O853 C852 1.258 . S
O854 Co851 1.966 . S
O854 C852 1.263 . S
C855 O856 1.235 . S
C855 O882 1.289 . S
O856 C855 1.235 . S
C857 C859 1.400 . S
C857 N860 1.351 . S
C857 C862 1.501 . S
C858 C859 1.387 . S
C858 N861 1.341 . S
C859 C857 1.400 . S
C859 C858 1.387 . S
N860 Co851 2.022 . S
N860 C857 1.351 . S
N860 N861 1.365 . S
N861 C858 1.341 . S
N861 N860 1.365 . S
N861 H881 0.862 . S
C862 C857 1.501 . S
C862 H863 0.961 . S
C862 H864 0.961 . S
C862 H865 0.960 . S
H863 C862 0.961 . S
H864 C862 0.961 . S
H865 C862 0.960 . S
C866 N867 1.342 . S
C866 C870 1.401 . S
C866 C871 1.499 . S
N867 Co850 1.989 . S
N867 C866 1.342 . S
N867 N868 1.388 . S
N868 Co851 1.993 . S
N868 N867 1.388 . S
N868 C869 1.346 . S
C869 N868 1.346 . S
C869 C870 1.396 . S
C869 C879 1.510 . S
C870 C866 1.401 . S
C870 C869 1.396 . S
C871 C866 1.499 . S
C871 H872 0.959 . S
C871 H873 0.960 . S
C871 H874 0.961 . S
H872 C871 0.959 . S
H873 C871 0.960 . S
H874 C871 0.961 . S
O875 Co850 1.967 . S
O875 C883 1.258 . S
O876 Co851 1.941 . S
O876 C883 1.266 . S
H877 C879 0.959 . S
H878 C879 0.961 . S
C879 C869 1.510 . S
C879 H877 0.959 . S
C879 H878 0.961 . S
C879 H880 0.960 . S
H880 C879 0.960 . S
H881 N861 0.862 . S
O882 Co850 1.920 . S
O882 C855 1.289 . S
C883 O875 1.258 . S
C883 O876 1.266 . S
Co884 O887 1.970 . S
Co884 N901 1.989 . S
Co884 O909 1.967 . S
Co884 O916 1.920 . S
Co885 O888 1.966 . S
Co885 N894 2.022 . S
Co885 N902 1.993 . S
Co885 O910 1.941 . S
C886 O887 1.258 . S
C886 O888 1.263 . S
O887 Co884 1.970 . S
O887 C886 1.258 . S
O888 Co885 1.966 . S
O888 C886 1.263 . S
C889 O890 1.235 . S
C889 O916 1.289 . S
O890 C889 1.235 . S
C891 C893 1.400 . S
C891 N894 1.351 . S
C891 C896 1.501 . S
C892 C893 1.387 . S
C892 N895 1.341 . S
C893 C891 1.400 . S
C893 C892 1.387 . S
N894 Co885 2.022 . S
N894 C891 1.351 . S
N894 N895 1.365 . S
N895 C892 1.341 . S
N895 N894 1.365 . S
N895 H915 0.862 . S
C896 C891 1.501 . S
C896 H897 0.961 . S
C896 H898 0.961 . S
C896 H899 0.960 . S
H897 C896 0.961 . S
H898 C896 0.961 . S
H899 C896 0.960 . S
C900 N901 1.342 . S
C900 C904 1.401 . S
C900 C905 1.499 . S
N901 Co884 1.989 . S
N901 C900 1.342 . S
N901 N902 1.388 . S
N902 Co885 1.993 . S
N902 N901 1.388 . S
N902 C903 1.346 . S
C903 N902 1.346 . S
C903 C904 1.396 . S
C903 C913 1.510 . S
C904 C900 1.401 . S
C904 C903 1.396 . S
C905 C900 1.499 . S
C905 H906 0.959 . S
C905 H907 0.960 . S
C905 H908 0.961 . S
H906 C905 0.959 . S
H907 C905 0.960 . S
H908 C905 0.961 . S
O909 Co884 1.967 . S
O909 C917 1.258 . S
O910 Co885 1.941 . S
O910 C917 1.266 . S
H911 C913 0.959 . S
H912 C913 0.961 . S
C913 C903 1.510 . S
C913 H911 0.959 . S
C913 H912 0.961 . S
C913 H914 0.960 . S
H914 C913 0.960 . S
H915 N895 0.862 . S
O916 Co884 1.920 . S
O916 C889 1.289 . S
C917 O909 1.258 . S
C917 O910 1.266 . S
Co918 O921 1.970 . S
Co918 N935 1.989 . S
Co918 O943 1.967 . S
Co918 O950 1.920 . S
Co919 O922 1.966 . S
Co919 N928 2.022 . S
Co919 N936 1.993 . S
Co919 O944 1.941 . S
C920 O921 1.258 . S
C920 O922 1.263 . S
O921 Co918 1.970 . S
O921 C920 1.258 . S
O922 Co919 1.966 . S
O922 C920 1.263 . S
C923 O924 1.235 . S
C923 O950 1.289 . S
O924 C923 1.235 . S
C925 C927 1.400 . S
C925 N928 1.351 . S
C925 C930 1.501 . S
C926 C927 1.387 . S
C926 N929 1.341 . S
C927 C925 1.400 . S
C927 C926 1.387 . S
N928 Co919 2.022 . S
N928 C925 1.351 . S
N928 N929 1.365 . S
N929 C926 1.341 . S
N929 N928 1.365 . S
N929 H949 0.862 . S
C930 C925 1.501 . S
C930 H931 0.961 . S
C930 H932 0.961 . S
C930 H933 0.960 . S
H931 C930 0.961 . S
H932 C930 0.961 . S
H933 C930 0.960 . S
C934 N935 1.342 . S
C934 C938 1.401 . S
C934 C939 1.499 . S
N935 Co918 1.989 . S
N935 C934 1.342 . S
N935 N936 1.388 . S
N936 Co919 1.993 . S
N936 N935 1.388 . S
N936 C937 1.346 . S
C937 N936 1.346 . S
C937 C938 1.396 . S
C937 C947 1.510 . S
C938 C934 1.401 . S
C938 C937 1.396 . S
C939 C934 1.499 . S
C939 H940 0.959 . S
C939 H941 0.960 . S
C939 H942 0.961 . S
H940 C939 0.959 . S
H941 C939 0.960 . S
H942 C939 0.961 . S
O943 Co918 1.967 . S
O943 C951 1.258 . S
O944 Co919 1.941 . S
O944 C951 1.266 . S
H945 C947 0.959 . S
H946 C947 0.961 . S
C947 C937 1.510 . S
C947 H945 0.959 . S
C947 H946 0.961 . S
C947 H948 0.960 . S
H948 C947 0.960 . S
H949 N929 0.862 . S
O950 Co918 1.920 . S
O950 C923 1.289 . S
C951 O943 1.258 . S
C951 O944 1.266 . S
Co952 O955 1.970 . S
Co952 N969 1.989 . S
Co952 O977 1.967 . S
Co952 O984 1.920 . S
Co953 O956 1.966 . S
Co953 N962 2.022 . S
Co953 N970 1.993 . S
Co953 O978 1.941 . S
C954 O955 1.258 . S
C954 O956 1.263 . S
O955 Co952 1.970 . S
O955 C954 1.258 . S
O956 Co953 1.966 . S
O956 C954 1.263 . S
C957 O958 1.235 . S
C957 O984 1.289 . S
O958 C957 1.235 . S
C959 C961 1.400 . S
C959 N962 1.351 . S
C959 C964 1.501 . S
C960 C961 1.387 . S
C960 N963 1.341 . S
C961 C959 1.400 . S
C961 C960 1.387 . S
N962 Co953 2.022 . S
N962 C959 1.351 . S
N962 N963 1.365 . S
N963 C960 1.341 . S
N963 N962 1.365 . S
N963 H983 0.862 . S
C964 C959 1.501 . S
C964 H965 0.961 . S
C964 H966 0.961 . S
C964 H967 0.960 . S
H965 C964 0.961 . S
H966 C964 0.961 . S
H967 C964 0.960 . S
C968 N969 1.342 . S
C968 C972 1.401 . S
C968 C973 1.499 . S
N969 Co952 1.989 . S
N969 C968 1.342 . S
N969 N970 1.388 . S
N970 Co953 1.993 . S
N970 N969 1.388 . S
N970 C971 1.346 . S
C971 N970 1.346 . S
C971 C972 1.396 . S
C971 C981 1.510 . S
C972 C968 1.401 . S
C972 C971 1.396 . S
C973 C968 1.499 . S
C973 H974 0.959 . S
C973 H975 0.960 . S
C973 H976 0.961 . S
H974 C973 0.959 . S
H975 C973 0.960 . S
H976 C973 0.961 . S
O977 Co952 1.967 . S
O977 C985 1.258 . S
O978 Co953 1.941 . S
O978 C985 1.266 . S
H979 C981 0.959 . S
H980 C981 0.961 . S
C981 C971 1.510 . S
C981 H979 0.959 . S
C981 H980 0.961 . S
C981 H982 0.960 . S
H982 C981 0.960 . S
H983 N963 0.862 . S
O984 Co952 1.920 . S
O984 C957 1.289 . S
C985 O977 1.258 . S
C985 O978 1.266 . S
Co986 O989 1.970 . S
Co986 N1003 1.989 . S
Co986 O1011 1.967 . S
Co986 O1018 1.920 . S
Co987 O990 1.966 . S
Co987 N996 2.022 . S
Co987 N1004 1.993 . S
Co987 O1012 1.941 . S
C988 O989 1.258 . S
C988 O990 1.263 . S
O989 Co986 1.970 . S
O989 C988 1.258 . S
O990 Co987 1.966 . S
O990 C988 1.263 . S
C991 O992 1.235 . S
C991 O1018 1.289 . S
O992 C991 1.235 . S
C993 C995 1.400 . S
C993 N996 1.351 . S
C993 C998 1.501 . S
C994 C995 1.387 . S
C994 N997 1.341 . S
C995 C993 1.400 . S
C995 C994 1.387 . S
N996 Co987 2.022 . S
N996 C993 1.351 . S
N996 N997 1.365 . S
N997 C994 1.341 . S
N997 N996 1.365 . S
N997 H1017 0.862 . S
C998 C993 1.501 . S
C998 H999 0.961 . S
C998 H1000 0.961 . S
C998 H1001 0.960 . S
H999 C998 0.961 . S
H1000 C998 0.961 . S
H1001 C998 0.960 . S
C1002 N1003 1.342 . S
C1002 C1006 1.401 . S
C1002 C1007 1.499 . S
N1003 Co986 1.989 . S
N1003 C1002 1.342 . S
N1003 N1004 1.388 . S
N1004 Co987 1.993 . S
N1004 N1003 1.388 . S
N1004 C1005 1.346 . S
C1005 N1004 1.346 . S
C1005 C1006 1.396 . S
C1005 C1015 1.510 . S
C1006 C1002 1.401 . S
C1006 C1005 1.396 . S
C1007 C1002 1.499 . S
C1007 H1008 0.959 . S
C1007 H1009 0.960 . S
C1007 H1010 0.961 . S
H1008 C1007 0.959 . S
H1009 C1007 0.960 . S
H1010 C1007 0.961 . S
O1011 Co986 1.967 . S
O1011 C1019 1.258 . S
O1012 Co987 1.941 . S
O1012 C1019 1.266 . S
H1013 C1015 0.959 . S
H1014 C1015 0.961 . S
C1015 C1005 1.510 . S
C1015 H1013 0.959 . S
C1015 H1014 0.961 . S
C1015 H1016 0.960 . S
H1016 C1015 0.960 . S
H1017 N997 0.862 . S
O1018 Co986 1.920 . S
O1018 C991 1.289 . S
C1019 O1011 1.258 . S
C1019 O1012 1.266 . S
Co1020 O1023 1.970 . S
Co1020 N1037 1.989 . S
Co1020 O1045 1.967 . S
Co1020 O1052 1.920 . S
Co1021 O1024 1.966 . S
Co1021 N1030 2.022 . S
Co1021 N1038 1.993 . S
Co1021 O1046 1.941 . S
C1022 O1023 1.258 . S
C1022 O1024 1.263 . S
O1023 Co1020 1.970 . S
O1023 C1022 1.258 . S
O1024 Co1021 1.966 . S
O1024 C1022 1.263 . S
C1025 O1026 1.235 . S
C1025 O1052 1.289 . S
O1026 C1025 1.235 . S
C1027 C1029 1.400 . S
C1027 N1030 1.351 . S
C1027 C1032 1.501 . S
C1028 C1029 1.387 . S
C1028 N1031 1.341 . S
C1029 C1027 1.400 . S
C1029 C1028 1.387 . S
N1030 Co1021 2.022 . S
N1030 C1027 1.351 . S
N1030 N1031 1.365 . S
N1031 C1028 1.341 . S
N1031 N1030 1.365 . S
N1031 H1051 0.862 . S
C1032 C1027 1.501 . S
C1032 H1033 0.961 . S
C1032 H1034 0.961 . S
C1032 H1035 0.960 . S
H1033 C1032 0.961 . S
H1034 C1032 0.961 . S
H1035 C1032 0.960 . S
C1036 N1037 1.342 . S
C1036 C1040 1.401 . S
C1036 C1041 1.499 . S
N1037 Co1020 1.989 . S
N1037 C1036 1.342 . S
N1037 N1038 1.388 . S
N1038 Co1021 1.993 . S
N1038 N1037 1.388 . S
N1038 C1039 1.346 . S
C1039 N1038 1.346 . S
C1039 C1040 1.396 . S
C1039 C1049 1.510 . S
C1040 C1036 1.401 . S
C1040 C1039 1.396 . S
C1041 C1036 1.499 . S
C1041 H1042 0.959 . S
C1041 H1043 0.960 . S
C1041 H1044 0.961 . S
H1042 C1041 0.959 . S
H1043 C1041 0.960 . S
H1044 C1041 0.961 . S
O1045 Co1020 1.967 . S
O1045 C1053 1.258 . S
O1046 Co1021 1.941 . S
O1046 C1053 1.266 . S
H1047 C1049 0.959 . S
H1048 C1049 0.961 . S
C1049 C1039 1.510 . S
C1049 H1047 0.959 . S
C1049 H1048 0.961 . S
C1049 H1050 0.960 . S
H1050 C1049 0.960 . S
H1051 N1031 0.862 . S
O1052 Co1020 1.920 . S
O1052 C1025 1.289 . S
C1053 O1045 1.258 . S
C1053 O1046 1.266 . S
Co1054 O1057 1.970 . S
Co1054 N1071 1.989 . S
Co1054 O1079 1.967 . S
Co1054 O1086 1.920 . S
Co1055 O1058 1.966 . S
Co1055 N1064 2.022 . S
Co1055 N1072 1.993 . S
Co1055 O1080 1.941 . S
C1056 O1057 1.258 . S
C1056 O1058 1.263 . S
O1057 Co1054 1.970 . S
O1057 C1056 1.258 . S
O1058 Co1055 1.966 . S
O1058 C1056 1.263 . S
C1059 O1060 1.235 . S
C1059 O1086 1.289 . S
O1060 C1059 1.235 . S
C1061 C1063 1.400 . S
C1061 N1064 1.351 . S
C1061 C1066 1.501 . S
C1062 C1063 1.387 . S
C1062 N1065 1.341 . S
C1063 C1061 1.400 . S
C1063 C1062 1.387 . S
N1064 Co1055 2.022 . S
N1064 C1061 1.351 . S
N1064 N1065 1.365 . S
N1065 C1062 1.341 . S
N1065 N1064 1.365 . S
N1065 H1085 0.862 . S
C1066 C1061 1.501 . S
C1066 H1067 0.961 . S
C1066 H1068 0.961 . S
C1066 H1069 0.960 . S
H1067 C1066 0.961 . S
H1068 C1066 0.961 . S
H1069 C1066 0.960 . S
C1070 N1071 1.342 . S
C1070 C1074 1.401 . S
C1070 C1075 1.499 . S
N1071 Co1054 1.989 . S
N1071 C1070 1.342 . S
N1071 N1072 1.388 . S
N1072 Co1055 1.993 . S
N1072 N1071 1.388 . S
N1072 C1073 1.346 . S
C1073 N1072 1.346 . S
C1073 C1074 1.396 . S
C1073 C1083 1.510 . S
C1074 C1070 1.401 . S
C1074 C1073 1.396 . S
C1075 C1070 1.499 . S
C1075 H1076 0.959 . S
C1075 H1077 0.960 . S
C1075 H1078 0.961 . S
H1076 C1075 0.959 . S
H1077 C1075 0.960 . S
H1078 C1075 0.961 . S
O1079 Co1054 1.967 . S
O1079 C1087 1.258 . S
O1080 Co1055 1.941 . S
O1080 C1087 1.266 . S
H1081 C1083 0.959 . S
H1082 C1083 0.961 . S
C1083 C1073 1.510 . S
C1083 H1081 0.959 . S
C1083 H1082 0.961 . S
C1083 H1084 0.960 . S
H1084 C1083 0.960 . S
H1085 N1065 0.862 . S
O1086 Co1054 1.920 . S
O1086 C1059 1.289 . S
C1087 O1079 1.258 . S
C1087 O1080 1.266 . S
Co1088 O1091 1.970 . S
Co1088 N1105 1.989 . S
Co1088 O1113 1.967 . S
Co1088 O1120 1.920 . S
Co1089 O1092 1.966 . S
Co1089 N1098 2.022 . S
Co1089 N1106 1.993 . S
Co1089 O1114 1.941 . S
C1090 O1091 1.258 . S
C1090 O1092 1.263 . S
O1091 Co1088 1.970 . S
O1091 C1090 1.258 . S
O1092 Co1089 1.966 . S
O1092 C1090 1.263 . S
C1093 O1094 1.235 . S
C1093 O1120 1.289 . S
O1094 C1093 1.235 . S
C1095 C1097 1.400 . S
C1095 N1098 1.351 . S
C1095 C1100 1.501 . S
C1096 C1097 1.387 . S
C1096 N1099 1.341 . S
C1097 C1095 1.400 . S
C1097 C1096 1.387 . S
N1098 Co1089 2.022 . S
N1098 C1095 1.351 . S
N1098 N1099 1.365 . S
N1099 C1096 1.341 . S
N1099 N1098 1.365 . S
N1099 H1119 0.862 . S
C1100 C1095 1.501 . S
C1100 H1101 0.961 . S
C1100 H1102 0.961 . S
C1100 H1103 0.960 . S
H1101 C1100 0.961 . S
H1102 C1100 0.961 . S
H1103 C1100 0.960 . S
C1104 N1105 1.342 . S
C1104 C1108 1.401 . S
C1104 C1109 1.499 . S
N1105 Co1088 1.989 . S
N1105 C1104 1.342 . S
N1105 N1106 1.388 . S
N1106 Co1089 1.993 . S
N1106 N1105 1.388 . S
N1106 C1107 1.346 . S
C1107 N1106 1.346 . S
C1107 C1108 1.396 . S
C1107 C1117 1.510 . S
C1108 C1104 1.401 . S
C1108 C1107 1.396 . S
C1109 C1104 1.499 . S
C1109 H1110 0.959 . S
C1109 H1111 0.960 . S
C1109 H1112 0.961 . S
H1110 C1109 0.959 . S
H1111 C1109 0.960 . S
H1112 C1109 0.961 . S
O1113 Co1088 1.967 . S
O1113 C1121 1.258 . S
O1114 Co1089 1.941 . S
O1114 C1121 1.266 . S
H1115 C1117 0.959 . S
H1116 C1117 0.961 . S
C1117 C1107 1.510 . S
C1117 H1115 0.959 . S
C1117 H1116 0.961 . S
C1117 H1118 0.960 . S
H1118 C1117 0.960 . S
H1119 N1099 0.862 . S
O1120 Co1088 1.920 . S
O1120 C1093 1.289 . S
C1121 O1113 1.258 . S
C1121 O1114 1.266 . S
Co1122 O1125 1.970 . S
Co1122 N1139 1.989 . S
Co1122 O1147 1.967 . S
Co1122 O1154 1.920 . S
Co1123 O1126 1.966 . S
Co1123 N1132 2.022 . S
Co1123 N1140 1.993 . S
Co1123 O1148 1.941 . S
C1124 O1125 1.258 . S
C1124 O1126 1.263 . S
O1125 Co1122 1.970 . S
O1125 C1124 1.258 . S
O1126 Co1123 1.966 . S
O1126 C1124 1.263 . S
C1127 O1128 1.235 . S
C1127 O1154 1.289 . S
O1128 C1127 1.235 . S
C1129 C1131 1.400 . S
C1129 N1132 1.351 . S
C1129 C1134 1.501 . S
C1130 C1131 1.387 . S
C1130 N1133 1.341 . S
C1131 C1129 1.400 . S
C1131 C1130 1.387 . S
N1132 Co1123 2.022 . S
N1132 C1129 1.351 . S
N1132 N1133 1.365 . S
N1133 C1130 1.341 . S
N1133 N1132 1.365 . S
N1133 H1153 0.862 . S
C1134 C1129 1.501 . S
C1134 H1135 0.961 . S
C1134 H1136 0.961 . S
C1134 H1137 0.960 . S
H1135 C1134 0.961 . S
H1136 C1134 0.961 . S
H1137 C1134 0.960 . S
C1138 N1139 1.342 . S
C1138 C1142 1.401 . S
C1138 C1143 1.499 . S
N1139 Co1122 1.989 . S
N1139 C1138 1.342 . S
N1139 N1140 1.388 . S
N1140 Co1123 1.993 . S
N1140 N1139 1.388 . S
N1140 C1141 1.346 . S
C1141 N1140 1.346 . S
C1141 C1142 1.396 . S
C1141 C1151 1.510 . S
C1142 C1138 1.401 . S
C1142 C1141 1.396 . S
C1143 C1138 1.499 . S
C1143 H1144 0.959 . S
C1143 H1145 0.960 . S
C1143 H1146 0.961 . S
H1144 C1143 0.959 . S
H1145 C1143 0.960 . S
H1146 C1143 0.961 . S
O1147 Co1122 1.967 . S
O1147 C1155 1.258 . S
O1148 Co1123 1.941 . S
O1148 C1155 1.266 . S
H1149 C1151 0.959 . S
H1150 C1151 0.961 . S
C1151 C1141 1.510 . S
C1151 H1149 0.959 . S
C1151 H1150 0.961 . S
C1151 H1152 0.960 . S
H1152 C1151 0.960 . S
H1153 N1133 0.862 . S
O1154 Co1122 1.920 . S
O1154 C1127 1.289 . S
C1155 O1147 1.258 . S
C1155 O1148 1.266 . S
Co1156 O1159 1.970 . S
Co1156 N1173 1.989 . S
Co1156 O1181 1.967 . S
Co1156 O1188 1.920 . S
Co1157 O1160 1.966 . S
Co1157 N1166 2.022 . S
Co1157 N1174 1.993 . S
Co1157 O1182 1.941 . S
C1158 O1159 1.258 . S
C1158 O1160 1.263 . S
O1159 Co1156 1.970 . S
O1159 C1158 1.258 . S
O1160 Co1157 1.966 . S
O1160 C1158 1.263 . S
C1161 O1162 1.235 . S
C1161 O1188 1.289 . S
O1162 C1161 1.235 . S
C1163 C1165 1.400 . S
C1163 N1166 1.351 . S
C1163 C1168 1.501 . S
C1164 C1165 1.387 . S
C1164 N1167 1.341 . S
C1165 C1163 1.400 . S
C1165 C1164 1.387 . S
N1166 Co1157 2.022 . S
N1166 C1163 1.351 . S
N1166 N1167 1.365 . S
N1167 C1164 1.341 . S
N1167 N1166 1.365 . S
N1167 H1187 0.862 . S
C1168 C1163 1.501 . S
C1168 H1169 0.961 . S
C1168 H1170 0.961 . S
C1168 H1171 0.960 . S
H1169 C1168 0.961 . S
H1170 C1168 0.961 . S
H1171 C1168 0.960 . S
C1172 N1173 1.342 . S
C1172 C1176 1.401 . S
C1172 C1177 1.499 . S
N1173 Co1156 1.989 . S
N1173 C1172 1.342 . S
N1173 N1174 1.388 . S
N1174 Co1157 1.993 . S
N1174 N1173 1.388 . S
N1174 C1175 1.346 . S
C1175 N1174 1.346 . S
C1175 C1176 1.396 . S
C1175 C1185 1.510 . S
C1176 C1172 1.401 . S
C1176 C1175 1.396 . S
C1177 C1172 1.499 . S
C1177 H1178 0.959 . S
C1177 H1179 0.960 . S
C1177 H1180 0.961 . S
H1178 C1177 0.959 . S
H1179 C1177 0.960 . S
H1180 C1177 0.961 . S
O1181 Co1156 1.967 . S
O1181 C1189 1.258 . S
O1182 Co1157 1.941 . S
O1182 C1189 1.266 . S
H1183 C1185 0.959 . S
H1184 C1185 0.961 . S
C1185 C1175 1.510 . S
C1185 H1183 0.959 . S
C1185 H1184 0.961 . S
C1185 H1186 0.960 . S
H1186 C1185 0.960 . S
H1187 N1167 0.862 . S
O1188 Co1156 1.920 . S
O1188 C1161 1.289 . S
C1189 O1181 1.258 . S
C1189 O1182 1.266 . S
Co1190 O1193 1.970 . S
Co1190 N1207 1.989 . S
Co1190 O1215 1.967 . S
Co1190 O1222 1.920 . S
Co1191 O1194 1.966 . S
Co1191 N1200 2.022 . S
Co1191 N1208 1.993 . S
Co1191 O1216 1.941 . S
C1192 O1193 1.258 . S
C1192 O1194 1.263 . S
O1193 Co1190 1.970 . S
O1193 C1192 1.258 . S
O1194 Co1191 1.966 . S
O1194 C1192 1.263 . S
C1195 O1196 1.235 . S
C1195 O1222 1.289 . S
O1196 C1195 1.235 . S
C1197 C1199 1.400 . S
C1197 N1200 1.351 . S
C1197 C1202 1.501 . S
C1198 C1199 1.387 . S
C1198 N1201 1.341 . S
C1199 C1197 1.400 . S
C1199 C1198 1.387 . S
N1200 Co1191 2.022 . S
N1200 C1197 1.351 . S
N1200 N1201 1.365 . S
N1201 C1198 1.341 . S
N1201 N1200 1.365 . S
N1201 H1221 0.862 . S
C1202 C1197 1.501 . S
C1202 H1203 0.961 . S
C1202 H1204 0.961 . S
C1202 H1205 0.960 . S
H1203 C1202 0.961 . S
H1204 C1202 0.961 . S
H1205 C1202 0.960 . S
C1206 N1207 1.342 . S
C1206 C1210 1.401 . S
C1206 C1211 1.499 . S
N1207 Co1190 1.989 . S
N1207 C1206 1.342 . S
N1207 N1208 1.388 . S
N1208 Co1191 1.993 . S
N1208 N1207 1.388 . S
N1208 C1209 1.346 . S
C1209 N1208 1.346 . S
C1209 C1210 1.396 . S
C1209 C1219 1.510 . S
C1210 C1206 1.401 . S
C1210 C1209 1.396 . S
C1211 C1206 1.499 . S
C1211 H1212 0.959 . S
C1211 H1213 0.960 . S
C1211 H1214 0.961 . S
H1212 C1211 0.959 . S
H1213 C1211 0.960 . S
H1214 C1211 0.961 . S
O1215 Co1190 1.967 . S
O1215 C1223 1.258 . S
O1216 Co1191 1.941 . S
O1216 C1223 1.266 . S
H1217 C1219 0.959 . S
H1218 C1219 0.961 . S
C1219 C1209 1.510 . S
C1219 H1217 0.959 . S
C1219 H1218 0.961 . S
C1219 H1220 0.960 . S
H1220 C1219 0.960 . S
H1221 N1201 0.862 . S
O1222 Co1190 1.920 . S
O1222 C1195 1.289 . S
C1223 O1215 1.258 . S
C1223 O1216 1.266 . S
C1224 C1225 1.369 . S
C1224 C1226 1.419 . S
C1224 H1228 0.930 . S
C1225 C1224 1.369 . S
C1225 C1234 1.429 . S
C1226 C1224 1.419 . S
C1226 C1227 1.363 . S
C1226 H1229 0.929 1_556 S
C1227 C1226 1.363 . S
C1227 C1233 1.428 . S
H1228 C1224 0.930 . S
H1229 C1226 0.929 1_554 S
S1230 N1231 1.613 . S
S1230 N1232 1.610 . S
N1231 S1230 1.613 . S
N1231 C1234 1.350 . S
N1232 S1230 1.610 . S
N1232 C1233 1.351 . S
C1233 C1227 1.428 . S
C1233 N1232 1.351 . S
C1233 C1234 1.434 . S
C1234 C1225 1.429 . S
C1234 N1231 1.350 . S
C1234 C1233 1.434 . S
C1235 C1236 1.369 . S
C1235 C1237 1.419 . S
C1235 H1239 0.930 . S
C1236 C1235 1.369 . S
C1236 C1245 1.429 . S
C1237 C1235 1.419 . S
C1237 C1238 1.363 . S
C1237 H1240 0.929 1_556 S
C1238 C1237 1.363 . S
C1238 C1244 1.428 . S
H1239 C1235 0.930 . S
H1240 C1237 0.929 1_554 S
S1241 N1242 1.613 . S
S1241 N1243 1.610 . S
N1242 S1241 1.613 . S
N1242 C1245 1.350 . S
N1243 S1241 1.610 . S
N1243 C1244 1.351 . S
C1244 C1238 1.428 . S
C1244 N1243 1.351 . S
C1244 C1245 1.434 . S
C1245 C1236 1.429 . S
C1245 N1242 1.350 . S
C1245 C1244 1.434 . S
C1246 C1247 1.369 . S
C1246 C1248 1.419 . S
C1246 H1250 0.930 . S
C1247 C1246 1.369 . S
C1247 C1256 1.429 . S
C1248 C1246 1.419 . S
C1248 C1249 1.363 . S
C1248 H1251 0.929 . S
C1249 C1248 1.363 . S
C1249 C1255 1.428 . S
H1250 C1246 0.930 . S
H1251 C1248 0.929 . S
S1252 N1253 1.613 1_554 S
S1252 N1254 1.610 . S
N1253 S1252 1.613 1_556 S
N1253 C1256 1.350 . S
N1254 S1252 1.610 . S
N1254 C1255 1.351 1_554 S
C1255 C1249 1.428 . S
C1255 N1254 1.351 1_556 S
C1255 C1256 1.434 . S
C1256 C1247 1.429 . S
C1256 N1253 1.350 . S
C1256 C1255 1.434 . S
C1257 C1258 1.369 . S
C1257 C1259 1.419 . S
C1257 H1261 0.930 . S
C1258 C1257 1.369 . S
C1258 C1267 1.429 . S
C1259 C1257 1.419 . S
C1259 C1260 1.363 . S
C1259 H1262 0.929 . S
C1260 C1259 1.363 . S
C1260 C1266 1.428 . S
H1261 C1257 0.930 . S
H1262 C1259 0.929 . S
S1263 N1264 1.613 . S
S1263 N1265 1.610 . S
N1264 S1263 1.613 . S
N1264 C1267 1.350 . S
N1265 S1263 1.610 . S
N1265 C1266 1.351 . S
C1266 C1260 1.428 . S
C1266 N1265 1.351 . S
C1266 C1267 1.434 . S
C1267 C1258 1.429 . S
C1267 N1264 1.350 . S
C1267 C1266 1.434 . S
C1268 C1269 1.369 . S
C1268 C1270 1.419 . S
C1268 H1272 0.930 . S
C1269 C1268 1.369 . S
C1269 C1278 1.429 . S
C1270 C1268 1.419 . S
C1270 C1271 1.363 . S
C1270 H1273 0.929 . S
C1271 C1270 1.363 . S
C1271 C1277 1.428 . S
H1272 C1268 0.930 . S
H1273 C1270 0.929 . S
S1274 N1275 1.613 . S
S1274 N1276 1.610 . S
N1275 S1274 1.613 . S
N1275 C1278 1.350 . S
N1276 S1274 1.610 . S
N1276 C1277 1.351 . S
C1277 C1271 1.428 . S
C1277 N1276 1.351 . S
C1277 C1278 1.434 . S
C1278 C1269 1.429 . S
C1278 N1275 1.350 . S
C1278 C1277 1.434 . S
C1279 C1280 1.369 . S
C1279 C1281 1.419 . S
C1279 H1283 0.930 . S
C1280 C1279 1.369 . S
C1280 C1289 1.429 . S
C1281 C1279 1.419 . S
C1281 C1282 1.363 . S
C1281 H1284 0.929 . S
C1282 C1281 1.363 . S
C1282 C1288 1.428 . S
H1283 C1279 0.930 . S
H1284 C1281 0.929 . S
S1285 N1286 1.591 1_655 S
S1285 N1287 1.615 1_655 S
N1286 S1285 1.591 1_455 S
N1286 C1289 1.350 . S
N1287 S1285 1.615 1_455 S
N1287 C1288 1.351 . S
C1288 C1282 1.428 . S
C1288 N1287 1.351 . S
C1288 C1289 1.434 . S
C1289 C1280 1.429 . S
C1289 N1286 1.350 . S
C1289 C1288 1.434 . S
C1290 C1291 1.369 . S
C1290 C1292 1.419 . S
C1290 H1294 0.930 . S
C1291 C1290 1.369 . S
C1291 C1300 1.429 . S
C1292 C1290 1.419 . S
C1292 C1293 1.363 . S
C1292 H1295 0.929 . S
C1293 C1292 1.363 . S
C1293 C1299 1.428 . S
H1294 C1290 0.930 . S
H1295 C1292 0.929 . S
S1296 N1297 1.613 . S
S1296 N1298 1.610 . S
N1297 S1296 1.613 . S
N1297 C1300 1.350 . S
N1298 S1296 1.610 . S
N1298 C1299 1.351 . S
C1299 C1293 1.428 . S
C1299 N1298 1.351 . S
C1299 C1300 1.434 . S
C1300 C1291 1.429 . S
C1300 N1297 1.350 . S
C1300 C1299 1.434 . S
C1301 C1302 1.369 . S
C1301 C1303 1.419 . S
C1301 H1305 0.930 . S
C1302 C1301 1.369 . S
C1302 C1311 1.429 . S
C1303 C1301 1.419 . S
C1303 C1304 1.363 . S
C1303 H1306 0.929 . S
C1304 C1303 1.363 . S
C1304 C1310 1.428 . S
H1305 C1301 0.930 . S
H1306 C1303 0.929 . S
S1307 N1308 1.613 . S
S1307 N1309 1.610 . S
N1308 S1307 1.613 . S
N1308 C1311 1.350 . S
N1309 S1307 1.610 . S
N1309 C1310 1.351 . S
C1310 C1304 1.428 . S
C1310 N1309 1.351 . S
C1310 C1311 1.434 . S
C1311 C1302 1.429 . S
C1311 N1308 1.350 . S
C1311 C1310 1.434 . S
C1312 C1313 1.369 . S
C1312 C1314 1.419 . S
C1312 H1316 0.930 . S
C1313 C1312 1.369 . S
C1313 C1322 1.429 . S
C1314 C1312 1.419 . S
C1314 C1315 1.363 . S
C1314 H1317 0.929 . S
C1315 C1314 1.363 . S
C1315 C1321 1.428 . S
H1316 C1312 0.930 . S
H1317 C1314 0.929 . S
S1318 N1319 1.613 . S
S1318 N1320 1.610 . S
N1319 S1318 1.613 . S
N1319 C1322 1.350 . S
N1320 S1318 1.610 . S
N1320 C1321 1.351 . S
C1321 C1315 1.428 . S
C1321 N1320 1.351 . S
C1321 C1322 1.434 . S
C1322 C1313 1.429 . S
C1322 N1319 1.350 . S
C1322 C1321 1.434 . S
C1323 C1324 1.369 . S
C1323 C1325 1.419 . S
C1323 H1327 0.930 . S
C1324 C1323 1.369 . S
C1324 C1333 1.429 . S
C1325 C1323 1.419 . S
C1325 C1326 1.363 . S
C1325 H1328 0.929 . S
C1326 C1325 1.363 . S
C1326 C1332 1.428 . S
H1327 C1323 0.930 . S
H1328 C1325 0.929 . S
S1329 N1330 1.613 . S
S1329 N1331 1.610 . S
N1330 S1329 1.613 . S
N1330 C1333 1.350 . S
N1331 S1329 1.610 . S
N1331 C1332 1.351 . S
C1332 C1326 1.428 . S
C1332 N1331 1.351 . S
C1332 C1333 1.434 . S
C1333 C1324 1.429 . S
C1333 N1330 1.350 . S
C1333 C1332 1.434 . S
C1334 C1335 1.369 . S
C1334 C1336 1.419 . S
C1334 H1338 0.930 . S
C1335 C1334 1.369 . S
C1335 C1344 1.429 . S
C1336 C1334 1.419 . S
C1336 C1337 1.363 . S
C1336 H1339 0.929 . S
C1337 C1336 1.363 . S
C1337 C1343 1.428 . S
H1338 C1334 0.930 . S
H1339 C1336 0.929 . S
S1340 N1341 1.613 . S
S1340 N1342 1.610 . S
N1341 S1340 1.613 . S
N1341 C1344 1.350 . S
N1342 S1340 1.610 . S
N1342 C1343 1.351 . S
C1343 C1337 1.428 . S
C1343 N1342 1.351 . S
C1343 C1344 1.434 . S
C1344 C1335 1.429 . S
C1344 N1341 1.350 . S
C1344 C1343 1.434 . S
C1345 C1346 1.369 . S
C1345 C1347 1.419 . S
C1345 H1349 0.930 . S
C1346 C1345 1.369 . S
C1346 C1355 1.429 . S
C1347 C1345 1.419 . S
C1347 C1348 1.363 . S
C1347 H1350 0.929 . S
C1348 C1347 1.363 . S
C1348 C1354 1.428 . S
H1349 C1345 0.930 . S
H1350 C1347 0.929 . S
S1351 N1352 1.613 . S
S1351 N1353 1.610 . S
N1352 S1351 1.613 . S
N1352 C1355 1.350 . S
N1353 S1351 1.610 . S
N1353 C1354 1.351 . S
C1354 C1348 1.428 . S
C1354 N1353 1.351 . S
C1354 C1355 1.434 . S
C1355 C1346 1.429 . S
C1355 N1352 1.350 . S
C1355 C1354 1.434 . S
C1356 C1357 1.369 . S
C1356 C1358 1.419 . S
C1356 H1360 0.930 . S
C1357 C1356 1.369 . S
C1357 C1366 1.429 1_655 S
C1358 C1356 1.419 . S
C1358 C1359 1.363 1_655 S
C1358 H1361 0.929 . S
C1359 C1358 1.363 1_455 S
C1359 C1365 1.428 . S
H1360 C1356 0.930 . S
H1361 C1358 0.929 . S
S1362 N1363 1.613 . S
S1362 N1364 1.610 . S
N1363 S1362 1.613 . S
N1363 C1366 1.350 . S
N1364 S1362 1.610 . S
N1364 C1365 1.351 . S
C1365 C1359 1.428 . S
C1365 N1364 1.351 . S
C1365 C1366 1.434 . S
C1366 C1357 1.429 1_455 S
C1366 N1363 1.350 . S
C1366 C1365 1.434 . S
C1367 C1368 1.369 . S
C1367 C1369 1.419 . S
C1367 H1371 0.930 . S
C1368 C1367 1.369 . S
C1368 C1377 1.429 . S
C1369 C1367 1.419 . S
C1369 C1370 1.363 . S
C1369 H1372 0.929 . S
C1370 C1369 1.363 . S
C1370 C1376 1.428 . S
H1371 C1367 0.930 . S
H1372 C1369 0.929 . S
S1373 N1374 1.613 . S
S1373 N1375 1.610 . S
N1374 S1373 1.613 . S
N1374 C1377 1.350 . S
N1375 S1373 1.610 . S
N1375 C1376 1.351 . S
C1376 C1370 1.428 . S
C1376 N1375 1.351 . S
C1376 C1377 1.434 . S
C1377 C1368 1.429 . S
C1377 N1374 1.350 . S
C1377 C1376 1.434 . S
C1378 C1379 1.369 . S
C1378 C1380 1.419 1_565 S
C1378 H1382 0.930 . S
C1379 C1378 1.369 . S
C1379 C1388 1.429 . S
C1380 C1378 1.419 1_545 S
C1380 C1381 1.363 . S
C1380 H1383 0.929 . S
C1381 C1380 1.363 . S
C1381 C1387 1.428 . S
H1382 C1378 0.930 . S
H1383 C1380 0.929 . S
S1384 N1385 1.613 1_545 S
S1384 N1386 1.610 . S
N1385 S1384 1.613 1_565 S
N1385 C1388 1.350 . S
N1386 S1384 1.610 . S
N1386 C1387 1.351 . S
C1387 C1381 1.428 . S
C1387 N1386 1.351 . S
C1387 C1388 1.434 1_545 S
C1388 C1379 1.429 . S
C1388 N1385 1.350 . S
C1388 C1387 1.434 1_565 S
C1389 C1390 1.369 1_545 S
C1389 C1391 1.419 . S
C1389 H1393 0.930 . S
C1390 C1389 1.369 1_565 S
C1390 C1399 1.429 . S
C1391 C1389 1.419 . S
C1391 C1392 1.363 . S
C1391 H1394 0.929 . S
C1392 C1391 1.363 . S
C1392 C1398 1.428 1_545 S
H1393 C1389 0.930 . S
H1394 C1391 0.929 . S
S1395 N1396 1.613 . S
S1395 N1397 1.610 . S
N1396 S1395 1.613 . S
N1396 C1399 1.350 . S
N1397 S1395 1.610 . S
N1397 C1398 1.351 . S
C1398 C1392 1.428 1_565 S
C1398 N1397 1.351 . S
C1398 C1399 1.434 . S
C1399 C1390 1.429 . S
C1399 N1396 1.350 . S
C1399 C1398 1.434 . S
C1400 C1401 1.369 . S
C1400 C1402 1.444 . S
C1400 H1404 0.930 . S
C1401 C1400 1.369 . S
C1401 C1410 1.429 1_655 S
C1402 C1400 1.444 . S
C1402 C1403 1.344 1_655 S
C1402 H1405 0.924 . S
C1403 C1402 1.344 1_455 S
C1403 C1409 1.428 . S
H1404 C1400 0.930 . S
H1405 C1402 0.924 . S
S1406 N1407 1.613 . S
S1406 N1408 1.610 . S
N1407 S1406 1.613 . S
N1407 C1410 1.350 . S
N1408 S1406 1.610 . S
N1408 C1409 1.351 . S
C1409 C1403 1.428 . S
C1409 N1408 1.351 . S
C1409 C1410 1.434 . S
C1410 C1401 1.429 1_455 S
C1410 N1407 1.350 . S
C1410 C1409 1.434 . S
C1411 C1412 1.369 . S
C1411 C1413 1.419 . S
C1411 H1415 0.930 . S
C1412 C1411 1.369 . S
C1412 C1421 1.429 . S
C1413 C1411 1.419 . S
C1413 C1414 1.363 . S
C1413 H1416 0.929 . S
C1414 C1413 1.363 . S
C1414 C1420 1.428 . S
H1415 C1411 0.930 . S
H1416 C1413 0.929 . S
S1417 N1418 1.613 . S
S1417 N1419 1.610 . S
N1418 S1417 1.613 . S
N1418 C1421 1.350 . S
N1419 S1417 1.610 . S
N1419 C1420 1.351 . S
C1420 C1414 1.428 . S
C1420 N1419 1.351 . S
C1420 C1421 1.434 . S
C1421 C1412 1.429 . S
C1421 N1418 1.350 . S
C1421 C1420 1.434 . S
C1422 C1423 1.369 . S
C1422 C1424 1.419 . S
C1422 H1426 0.930 . S
C1423 C1422 1.369 . S
C1423 C1432 1.429 . S
C1424 C1422 1.419 . S
C1424 C1425 1.363 . S
C1424 H1427 0.929 . S
C1425 C1424 1.363 . S
C1425 C1431 1.428 . S
H1426 C1422 0.930 . S
H1427 C1424 0.929 . S
S1428 N1429 1.613 . S
S1428 N1430 1.610 . S
N1429 S1428 1.613 . S
N1429 C1432 1.350 . S
N1430 S1428 1.610 . S
N1430 C1431 1.351 . S
C1431 C1425 1.428 . S
C1431 N1430 1.351 . S
C1431 C1432 1.434 . S
C1432 C1423 1.429 . S
C1432 N1429 1.350 . S
C1432 C1431 1.434 . S
C1433 C1434 1.339 1_545 S
C1433 C1435 1.419 . S
C1433 H1437 0.930 . S
C1434 C1433 1.339 1_565 S
C1434 C1443 1.460 . S
C1435 C1433 1.419 . S
C1435 C1436 1.360 1_545 S
C1435 H1438 0.929 . S
C1436 C1435 1.360 1_565 S
C1436 C1442 1.431 . S
H1437 C1433 0.930 . S
H1438 C1435 0.929 . S
S1439 N1440 1.613 . S
S1439 N1441 1.610 . S
N1440 S1439 1.613 . S
N1440 C1443 1.350 . S
N1441 S1439 1.610 . S
N1441 C1442 1.351 . S
C1442 C1436 1.431 . S
C1442 N1441 1.351 . S
C1442 C1443 1.434 . S
C1443 C1434 1.460 . S
C1443 N1440 1.350 . S
C1443 C1442 1.434 . S
C1444 C1445 1.372 1_655 S
C1444 C1446 1.419 . S
C1444 H1448 0.930 . S
C1445 C1444 1.372 1_455 S
C1445 C1454 1.426 . S
C1446 C1444 1.419 . S
C1446 C1447 1.374 1_655 S
C1446 H1449 0.929 . S
C1447 C1446 1.374 1_455 S
C1447 C1453 1.419 . S
H1448 C1444 0.930 . S
H1449 C1446 0.929 . S
S1450 N1451 1.613 . S
S1450 N1452 1.610 . S
N1451 S1450 1.613 . S
N1451 C1454 1.350 . S
N1452 S1450 1.610 . S
N1452 C1453 1.351 . S
C1453 C1447 1.419 . S
C1453 N1452 1.351 . S
C1453 C1454 1.434 . S
C1454 C1445 1.426 . S
C1454 N1451 1.350 . S
C1454 C1453 1.434 . S
C1455 C1456 1.369 . S
C1455 C1457 1.419 . S
C1455 H1459 0.930 . S
C1456 C1455 1.369 . S
C1456 C1465 1.429 . S
C1457 C1455 1.419 . S
C1457 C1458 1.363 . S
C1457 H1460 0.929 . S
C1458 C1457 1.363 . S
C1458 C1464 1.428 . S
H1459 C1455 0.930 . S
H1460 C1457 0.929 . S
S1461 N1462 1.613 . S
S1461 N1463 1.610 . S
N1462 S1461 1.613 . S
N1462 C1465 1.350 . S
N1463 S1461 1.610 . S
N1463 C1464 1.351 . S
C1464 C1458 1.428 . S
C1464 N1463 1.351 . S
C1464 C1465 1.434 . S
C1465 C1456 1.429 . S
C1465 N1462 1.350 . S
C1465 C1464 1.434 . S
C1466 C1467 1.375 . S
C1466 C1468 1.419 . S
C1466 H1470 0.930 . S
C1467 C1466 1.375 . S
C1467 C1476 1.423 1_565 S
C1468 C1466 1.419 . S
C1468 C1469 1.352 1_565 S
C1468 H1471 0.929 . S
C1469 C1468 1.352 1_545 S
C1469 C1475 1.439 . S
H1470 C1466 0.930 . S
H1471 C1468 0.929 . S
S1472 N1473 1.613 . S
S1472 N1474 1.610 . S
N1473 S1472 1.613 . S
N1473 C1476 1.350 . S
N1474 S1472 1.610 . S
N1474 C1475 1.351 . S
C1475 C1469 1.439 . S
C1475 N1474 1.351 . S
C1475 C1476 1.434 . S
C1476 C1467 1.423 1_545 S
C1476 N1473 1.350 . S
C1476 C1475 1.434 . S
C1477 C1478 1.373 1_655 S
C1477 C1479 1.419 . S
C1477 H1481 0.930 . S
C1478 C1477 1.373 1_455 S
C1478 C1487 1.425 . S
C1479 C1477 1.419 . S
C1479 C1480 1.377 1_655 S
C1479 H1482 0.929 . S
C1480 C1479 1.377 1_455 S
C1480 C1486 1.416 . S
H1481 C1477 0.930 . S
H1482 C1479 0.929 . S
S1483 N1484 1.613 . S
S1483 N1485 1.610 . S
N1484 S1483 1.613 . S
N1484 C1487 1.350 . S
N1485 S1483 1.610 . S
N1485 C1486 1.351 . S
C1486 C1480 1.416 . S
C1486 N1485 1.351 . S
C1486 C1487 1.434 . S
C1487 C1478 1.425 . S
C1487 N1484 1.350 . S
C1487 C1486 1.434 . S
C1488 C1489 1.369 . S
C1488 C1490 1.419 . S
C1488 H1492 0.930 . S
C1489 C1488 1.369 . S
C1489 C1498 1.429 . S
C1490 C1488 1.419 . S
C1490 C1491 1.363 . S
C1490 H1493 0.929 . S
C1491 C1490 1.363 . S
C1491 C1497 1.428 . S
H1492 C1488 0.930 . S
H1493 C1490 0.929 . S
S1494 N1495 1.613 . S
S1494 N1496 1.610 . S
N1495 S1494 1.613 . S
N1495 C1498 1.350 . S
N1496 S1494 1.610 . S
N1496 C1497 1.351 . S
C1497 C1491 1.428 . S
C1497 N1496 1.351 . S
C1497 C1498 1.434 . S
C1498 C1489 1.429 . S
C1498 N1495 1.350 . S
C1498 C1497 1.434 . S
C1499 C1500 1.369 . S
C1499 C1501 1.419 . S
C1499 H1503 0.930 . S
C1500 C1499 1.369 . S
C1500 C1509 1.429 . S
C1501 C1499 1.419 . S
C1501 C1502 1.363 . S
C1501 H1504 0.929 . S
C1502 C1501 1.363 . S
C1502 C1508 1.428 . S
H1503 C1499 0.930 . S
H1504 C1501 0.929 . S
S1505 N1506 1.613 . S
S1505 N1507 1.610 . S
N1506 S1505 1.613 . S
N1506 C1509 1.350 . S
N1507 S1505 1.610 . S
N1507 C1508 1.351 . S
C1508 C1502 1.428 . S
C1508 N1507 1.351 . S
C1508 C1509 1.434 . S
C1509 C1500 1.429 . S
C1509 N1506 1.350 . S
C1509 C1508 1.434 . S
C1510 C1511 1.369 . S
C1510 C1512 1.419 . S
C1510 H1514 0.930 . S
C1511 C1510 1.369 . S
C1511 C1520 1.429 . S
C1512 C1510 1.419 . S
C1512 C1513 1.363 . S
C1512 H1515 0.929 . S
C1513 C1512 1.363 . S
C1513 C1519 1.428 . S
H1514 C1510 0.930 . S
H1515 C1512 0.929 . S
S1516 N1517 1.613 . S
S1516 N1518 1.610 . S
N1517 S1516 1.613 . S
N1517 C1520 1.350 . S
N1518 S1516 1.610 . S
N1518 C1519 1.351 . S
C1519 C1513 1.428 . S
C1519 N1518 1.351 . S
C1519 C1520 1.434 . S
C1520 C1511 1.429 . S
C1520 N1517 1.350 . S
C1520 C1519 1.434 . S
C1521 C1522 1.369 . S
C1521 C1523 1.419 . S
C1521 H1525 0.930 . S
C1522 C1521 1.369 . S
C1522 C1531 1.429 . S
C1523 C1521 1.419 . S
C1523 C1524 1.363 . S
C1523 H1526 0.929 . S
C1524 C1523 1.363 . S
C1524 C1530 1.428 . S
H1525 C1521 0.930 . S
H1526 C1523 0.929 . S
S1527 N1528 1.613 . S
S1527 N1529 1.610 . S
N1528 S1527 1.613 . S
N1528 C1531 1.350 . S
N1529 S1527 1.610 . S
N1529 C1530 1.351 . S
C1530 C1524 1.428 . S
C1530 N1529 1.351 . S
C1530 C1531 1.434 . S
C1531 C1522 1.429 . S
C1531 N1528 1.350 . S
C1531 C1530 1.434 . S
C1532 C1533 1.369 . S
C1532 C1534 1.419 . S
C1532 H1536 0.930 . S
C1533 C1532 1.369 . S
C1533 C1542 1.429 . S
C1534 C1532 1.419 . S
C1534 C1535 1.363 . S
C1534 H1537 0.929 . S
C1535 C1534 1.363 . S
C1535 C1541 1.428 . S
H1536 C1532 0.930 . S
H1537 C1534 0.929 . S
S1538 N1539 1.613 . S
S1538 N1540 1.610 . S
N1539 S1538 1.613 . S
N1539 C1542 1.350 . S
N1540 S1538 1.610 . S
N1540 C1541 1.351 . S
C1541 C1535 1.428 . S
C1541 N1540 1.351 . S
C1541 C1542 1.434 . S
C1542 C1533 1.429 . S
C1542 N1539 1.350 . S
C1542 C1541 1.434 . S
C1543 C1544 1.369 . S
C1543 C1545 1.419 . S
C1543 H1547 0.930 . S
C1544 C1543 1.369 . S
C1544 C1553 1.429 . S
C1545 C1543 1.419 . S
C1545 C1546 1.363 . S
C1545 H1548 0.929 . S
C1546 C1545 1.363 . S
C1546 C1552 1.428 . S
H1547 C1543 0.930 . S
H1548 C1545 0.929 . S
S1549 N1550 1.613 . S
S1549 N1551 1.610 . S
N1550 S1549 1.613 . S
N1550 C1553 1.350 . S
N1551 S1549 1.610 . S
N1551 C1552 1.351 . S
C1552 C1546 1.428 . S
C1552 N1551 1.351 . S
C1552 C1553 1.434 . S
C1553 C1544 1.429 . S
C1553 N1550 1.350 . S
C1553 C1552 1.434 . S
C1554 C1555 1.369 . S
C1554 C1556 1.419 . S
C1554 H1558 0.930 . S
C1555 C1554 1.369 . S
C1555 C1564 1.429 . S
C1556 C1554 1.419 . S
C1556 C1557 1.363 . S
C1556 H1559 0.929 . S
C1557 C1556 1.363 . S
C1557 C1563 1.428 . S
H1558 C1554 0.930 . S
H1559 C1556 0.929 . S
S1560 N1561 1.613 . S
S1560 N1562 1.610 . S
N1561 S1560 1.613 . S
N1561 C1564 1.350 . S
N1562 S1560 1.610 . S
N1562 C1563 1.351 . S
C1563 C1557 1.428 . S
C1563 N1562 1.351 . S
C1563 C1564 1.434 . S
C1564 C1555 1.429 . S
C1564 N1561 1.350 . S
C1564 C1563 1.434 . S
C1565 C1566 1.369 . S
C1565 C1567 1.419 . S
C1565 H1569 0.930 . S
C1566 C1565 1.369 . S
C1566 C1575 1.429 . S
C1567 C1565 1.419 . S
C1567 C1568 1.363 . S
C1567 H1570 0.929 . S
C1568 C1567 1.363 . S
C1568 C1574 1.428 . S
H1569 C1565 0.930 . S
H1570 C1567 0.929 . S
S1571 N1572 1.613 . S
S1571 N1573 1.610 . S
N1572 S1571 1.613 . S
N1572 C1575 1.350 . S
N1573 S1571 1.610 . S
N1573 C1574 1.351 . S
C1574 C1568 1.428 . S
C1574 N1573 1.351 . S
C1574 C1575 1.434 . S
C1575 C1566 1.429 . S
C1575 N1572 1.350 . S
C1575 C1574 1.434 . S
C1576 C1577 1.369 . S
C1576 C1578 1.419 . S
C1576 H1580 0.930 . S
C1577 C1576 1.369 . S
C1577 C1586 1.429 . S
C1578 C1576 1.419 . S
C1578 C1579 1.363 . S
C1578 H1581 0.929 . S
C1579 C1578 1.363 . S
C1579 C1585 1.428 . S
H1580 C1576 0.930 . S
H1581 C1578 0.929 . S
S1582 N1583 1.613 . S
S1582 N1584 1.610 . S
N1583 S1582 1.613 . S
N1583 C1586 1.350 . S
N1584 S1582 1.610 . S
N1584 C1585 1.351 . S
C1585 C1579 1.428 . S
C1585 N1584 1.351 . S
C1585 C1586 1.434 . S
C1586 C1577 1.429 . S
C1586 N1583 1.350 . S
C1586 C1585 1.434 . S
C1587 C1588 1.369 . S
C1587 C1589 1.419 . S
C1587 H1591 0.930 . S
C1588 C1587 1.369 . S
C1588 C1597 1.429 . S
C1589 C1587 1.419 . S
C1589 C1590 1.363 . S
C1589 H1592 0.929 . S
C1590 C1589 1.363 . S
C1590 C1596 1.428 . S
H1591 C1587 0.930 . S
H1592 C1589 0.929 . S
S1593 N1594 1.613 . S
S1593 N1595 1.610 . S
N1594 S1593 1.613 . S
N1594 C1597 1.350 . S
N1595 S1593 1.610 . S
N1595 C1596 1.351 . S
C1596 C1590 1.428 . S
C1596 N1595 1.351 . S
C1596 C1597 1.434 . S
C1597 C1588 1.429 . S
C1597 N1594 1.350 . S
C1597 C1596 1.434 . S
C1598 C1599 1.369 . S
C1598 C1600 1.419 . S
C1598 H1602 0.930 . S
C1599 C1598 1.369 . S
C1599 C1608 1.429 . S
C1600 C1598 1.419 . S
C1600 C1601 1.363 . S
C1600 H1603 0.929 . S
C1601 C1600 1.363 . S
C1601 C1607 1.428 . S
H1602 C1598 0.930 . S
H1603 C1600 0.929 . S
S1604 N1605 1.613 . S
S1604 N1606 1.610 . S
N1605 S1604 1.613 . S
N1605 C1608 1.350 . S
N1606 S1604 1.610 . S
N1606 C1607 1.351 . S
C1607 C1601 1.428 . S
C1607 N1606 1.351 . S
C1607 C1608 1.434 . S
C1608 C1599 1.429 . S
C1608 N1605 1.350 . S
C1608 C1607 1.434 . S
C1609 C1610 1.369 . S
C1609 C1611 1.419 . S
C1609 H1613 0.930 . S
C1610 C1609 1.369 . S
C1610 C1619 1.429 . S
C1611 C1609 1.419 . S
C1611 C1612 1.363 . S
C1611 H1614 0.929 . S
C1612 C1611 1.363 . S
C1612 C1618 1.428 . S
H1613 C1609 0.930 . S
H1614 C1611 0.929 . S
S1615 N1616 1.613 . S
S1615 N1617 1.610 . S
N1616 S1615 1.613 . S
N1616 C1619 1.350 . S
N1617 S1615 1.610 . S
N1617 C1618 1.351 . S
C1618 C1612 1.428 . S
C1618 N1617 1.351 . S
C1618 C1619 1.434 . S
C1619 C1610 1.429 . S
C1619 N1616 1.350 . S
C1619 C1618 1.434 . S
C1620 C1621 1.369 . S
C1620 C1622 1.419 . S
C1620 H1624 0.930 . S
C1621 C1620 1.369 . S
C1621 C1630 1.429 1_554 S
C1622 C1620 1.419 . S
C1622 C1623 1.363 . S
C1622 H1625 0.929 . S
C1623 C1622 1.363 . S
C1623 C1629 1.428 1_554 S
H1624 C1620 0.930 . S
H1625 C1622 0.929 . S
S1626 N1627 1.613 . S
S1626 N1628 1.610 . S
N1627 S1626 1.613 . S
N1627 C1630 1.350 . S
N1628 S1626 1.610 . S
N1628 C1629 1.351 . S
C1629 C1623 1.428 1_556 S
C1629 N1628 1.351 . S
C1629 C1630 1.434 . S
C1630 C1621 1.429 1_556 S
C1630 N1627 1.350 . S
C1630 C1629 1.434 . S
C1631 C1632 1.369 . S
C1631 C1633 1.419 . S
C1631 H1635 0.930 . S
C1632 C1631 1.369 . S
C1632 C1641 1.429 1_554 S
C1633 C1631 1.419 . S
C1633 C1634 1.363 . S
C1633 H1636 0.929 . S
C1634 C1633 1.363 . S
C1634 C1640 1.428 1_554 S
H1635 C1631 0.930 . S
H1636 C1633 0.929 . S
S1637 N1638 1.613 . S
S1637 N1639 1.610 . S
N1638 S1637 1.613 . S
N1638 C1641 1.350 . S
N1639 S1637 1.610 . S
N1639 C1640 1.351 . S
C1640 C1634 1.428 1_556 S
C1640 N1639 1.351 . S
C1640 C1641 1.434 . S
C1641 C1632 1.429 1_556 S
C1641 N1638 1.350 . S
C1641 C1640 1.434 . S
C1642 C1643 1.369 1_556 S
C1642 C1644 1.419 . S
C1642 H1646 0.930 . S
C1643 C1642 1.369 1_554 S
C1643 C1652 1.429 . S
C1644 C1642 1.419 . S
C1644 C1645 1.363 1_556 S
C1644 H1647 0.929 . S
C1645 C1644 1.363 1_554 S
C1645 C1651 1.428 . S
H1646 C1642 0.930 . S
H1647 C1644 0.929 . S
S1648 N1649 1.613 . S
S1648 N1650 1.610 . S
N1649 S1648 1.613 . S
N1649 C1652 1.350 . S
N1650 S1648 1.610 . S
N1650 C1651 1.351 . S
C1651 C1645 1.428 . S
C1651 N1650 1.351 . S
C1651 C1652 1.434 . S
C1652 C1643 1.429 . S
C1652 N1649 1.350 . S
C1652 C1651 1.434 . S
C1653 C1654 1.369 . S
C1653 C1655 1.419 . S
C1653 H1657 0.930 . S
C1654 C1653 1.369 . S
C1654 C1663 1.429 . S
C1655 C1653 1.419 . S
C1655 C1656 1.363 . S
C1655 H1658 0.929 . S
C1656 C1655 1.363 . S
C1656 C1662 1.428 . S
H1657 C1653 0.930 . S
H1658 C1655 0.929 . S
S1659 N1660 1.613 . S
S1659 N1661 1.610 . S
N1660 S1659 1.613 . S
N1660 C1663 1.350 . S
N1661 S1659 1.610 . S
N1661 C1662 1.351 . S
C1662 C1656 1.428 . S
C1662 N1661 1.351 . S
C1662 C1663 1.434 . S
C1663 C1654 1.429 . S
C1663 N1660 1.350 . S
C1663 C1662 1.434 . S
C1664 C1665 1.369 . S
C1664 C1666 1.419 . S
C1664 H1668 0.930 . S
C1665 C1664 1.369 . S
C1665 C1674 1.429 . S
C1666 C1664 1.419 . S
C1666 C1667 1.363 . S
C1666 H1669 0.929 . S
C1667 C1666 1.363 . S
C1667 C1673 1.428 . S
H1668 C1664 0.930 . S
H1669 C1666 0.929 . S
S1670 N1671 1.613 . S
S1670 N1672 1.610 . S
N1671 S1670 1.613 . S
N1671 C1674 1.350 . S
N1672 S1670 1.610 . S
N1672 C1673 1.351 . S
C1673 C1667 1.428 . S
C1673 N1672 1.351 . S
C1673 C1674 1.434 . S
C1674 C1665 1.429 . S
C1674 N1671 1.350 . S
C1674 C1673 1.434 . S
C1675 C1676 1.369 . S
C1675 C1677 1.419 . S
C1675 H1679 0.930 . S
C1676 C1675 1.369 . S
C1676 C1685 1.429 . S
C1677 C1675 1.419 . S
C1677 C1678 1.363 . S
C1677 H1680 0.929 . S
C1678 C1677 1.363 . S
C1678 C1684 1.428 . S
H1679 C1675 0.930 . S
H1680 C1677 0.929 . S
S1681 N1682 1.613 . S
S1681 N1683 1.610 . S
N1682 S1681 1.613 . S
N1682 C1685 1.350 . S
N1683 S1681 1.610 . S
N1683 C1684 1.351 . S
C1684 C1678 1.428 . S
C1684 N1683 1.351 . S
C1684 C1685 1.434 . S
C1685 C1676 1.429 . S
C1685 N1682 1.350 . S
C1685 C1684 1.434 . S
C1686 C1687 1.362 1_556 S
C1686 C1688 1.420 . S
C1686 H1690 0.936 . S
C1687 C1686 1.362 1_554 S
C1687 C1696 1.429 . S
C1688 C1686 1.420 . S
C1688 C1689 1.363 1_556 S
C1688 H1691 0.929 . S
C1689 C1688 1.363 1_554 S
C1689 C1695 1.428 . S
H1690 C1686 0.936 . S
H1691 C1688 0.929 . S
S1692 N1693 1.613 . S
S1692 N1694 1.610 . S
N1693 S1692 1.613 . S
N1693 C1696 1.350 . S
N1694 S1692 1.610 . S
N1694 C1695 1.351 . S
C1695 C1689 1.428 . S
C1695 N1694 1.351 . S
C1695 C1696 1.434 . S
C1696 C1687 1.429 . S
C1696 N1693 1.350 . S
C1696 C1695 1.434 . S
C1697 C1698 1.369 . S
C1697 C1699 1.419 . S
C1697 H1701 0.930 . S
C1698 C1697 1.369 . S
C1698 C1707 1.429 . S
C1699 C1697 1.419 . S
C1699 C1700 1.363 . S
C1699 H1702 0.929 . S
C1700 C1699 1.363 . S
C1700 C1706 1.428 . S
H1701 C1697 0.930 . S
H1702 C1699 0.929 . S
S1703 N1704 1.613 . S
S1703 N1705 1.610 . S
N1704 S1703 1.613 . S
N1704 C1707 1.350 . S
N1705 S1703 1.610 . S
N1705 C1706 1.351 . S
C1706 C1700 1.428 . S
C1706 N1705 1.351 . S
C1706 C1707 1.434 . S
C1707 C1698 1.429 . S
C1707 N1704 1.350 . S
C1707 C1706 1.434 . S
C1708 C1709 1.369 . S
C1708 C1710 1.419 . S
C1708 H1712 0.930 . S
C1709 C1708 1.369 . S
C1709 C1718 1.429 . S
C1710 C1708 1.419 . S
C1710 C1711 1.363 . S
C1710 H1713 0.929 . S
C1711 C1710 1.363 . S
C1711 C1717 1.428 . S
H1712 C1708 0.930 . S
H1713 C1710 0.929 . S
S1714 N1715 1.613 . S
S1714 N1716 1.610 . S
N1715 S1714 1.613 . S
N1715 C1718 1.350 1_556 S
N1716 S1714 1.610 . S
N1716 C1717 1.351 1_556 S
C1717 C1711 1.428 . S
C1717 N1716 1.351 1_554 S
C1717 C1718 1.434 . S
C1718 C1709 1.429 . S
C1718 N1715 1.350 1_554 S
C1718 C1717 1.434 . S
C1719 C1720 1.369 . S
C1719 C1721 1.419 . S
C1719 H1723 0.930 . S
C1720 C1719 1.369 . S
C1720 C1729 1.429 . S
C1721 C1719 1.419 . S
C1721 C1722 1.363 . S
C1721 H1724 0.929 . S
C1722 C1721 1.363 . S
C1722 C1728 1.428 . S
H1723 C1719 0.930 . S
H1724 C1721 0.929 . S
S1725 N1726 1.613 . S
S1725 N1727 1.610 . S
N1726 S1725 1.613 . S
N1726 C1729 1.350 . S
N1727 S1725 1.610 . S
N1727 C1728 1.351 . S
C1728 C1722 1.428 . S
C1728 N1727 1.351 . S
C1728 C1729 1.434 . S
C1729 C1720 1.429 . S
C1729 N1726 1.350 . S
C1729 C1728 1.434 . S
C1730 C1731 1.369 . S
C1730 C1732 1.419 . S
C1730 H1734 0.930 . S
C1731 C1730 1.369 . S
C1731 C1740 1.429 . S
C1732 C1730 1.419 . S
C1732 C1733 1.363 . S
C1732 H1735 0.929 . S
C1733 C1732 1.363 . S
C1733 C1739 1.428 . S
H1734 C1730 0.930 . S
H1735 C1732 0.929 . S
S1736 N1737 1.613 . S
S1736 N1738 1.610 . S
N1737 S1736 1.613 . S
N1737 C1740 1.350 . S
N1738 S1736 1.610 . S
N1738 C1739 1.351 . S
C1739 C1733 1.428 . S
C1739 N1738 1.351 . S
C1739 C1740 1.434 . S
C1740 C1731 1.429 . S
C1740 N1737 1.350 . S
C1740 C1739 1.434 . S
C1741 C1742 1.369 . S
C1741 C1743 1.419 . S
C1741 H1745 0.930 . S
C1742 C1741 1.369 . S
C1742 C1751 1.429 . S
C1743 C1741 1.419 . S
C1743 C1744 1.363 . S
C1743 H1746 0.929 . S
C1744 C1743 1.363 . S
C1744 C1750 1.428 . S
H1745 C1741 0.930 . S
H1746 C1743 0.929 . S
S1747 N1748 1.613 . S
S1747 N1749 1.610 . S
N1748 S1747 1.613 . S
N1748 C1751 1.350 . S
N1749 S1747 1.610 . S
N1749 C1750 1.351 . S
C1750 C1744 1.428 . S
C1750 N1749 1.351 . S
C1750 C1751 1.434 . S
C1751 C1742 1.429 . S
C1751 N1748 1.350 . S
C1751 C1750 1.434 . S
C1752 C1753 1.369 . S
C1752 C1754 1.419 . S
C1752 H1756 0.930 . S
C1753 C1752 1.369 . S
C1753 C1762 1.429 . S
C1754 C1752 1.419 . S
C1754 C1755 1.363 . S
C1754 H1757 0.929 . S
C1755 C1754 1.363 . S
C1755 C1761 1.428 . S
H1756 C1752 0.930 . S
H1757 C1754 0.929 . S
S1758 N1759 1.613 . S
S1758 N1760 1.610 . S
N1759 S1758 1.613 . S
N1759 C1762 1.350 . S
N1760 S1758 1.610 . S
N1760 C1761 1.351 . S
C1761 C1755 1.428 . S
C1761 N1760 1.351 . S
C1761 C1762 1.434 . S
C1762 C1753 1.429 . S
C1762 N1759 1.350 . S
C1762 C1761 1.434 . S
C1763 C1764 1.369 . S
C1763 C1765 1.419 . S
C1763 H1767 0.930 . S
C1764 C1763 1.369 . S
C1764 C1773 1.429 . S
C1765 C1763 1.419 . S
C1765 C1766 1.363 . S
C1765 H1768 0.929 . S
C1766 C1765 1.363 . S
C1766 C1772 1.428 . S
H1767 C1763 0.930 . S
H1768 C1765 0.929 . S
S1769 N1770 1.613 . S
S1769 N1771 1.610 . S
N1770 S1769 1.613 . S
N1770 C1773 1.350 . S
N1771 S1769 1.610 . S
N1771 C1772 1.351 . S
C1772 C1766 1.428 . S
C1772 N1771 1.351 . S
C1772 C1773 1.434 . S
C1773 C1764 1.429 . S
C1773 N1770 1.350 . S
C1773 C1772 1.434 . S
C1774 C1775 1.369 . S
C1774 C1776 1.419 . S
C1774 H1778 0.930 . S
C1775 C1774 1.369 . S
C1775 C1784 1.429 . S
C1776 C1774 1.419 . S
C1776 C1777 1.363 . S
C1776 H1779 0.929 . S
C1777 C1776 1.363 . S
C1777 C1783 1.428 . S
H1778 C1774 0.930 . S
H1779 C1776 0.929 . S
S1780 N1781 1.613 . S
S1780 N1782 1.610 . S
N1781 S1780 1.613 . S
N1781 C1784 1.350 . S
N1782 S1780 1.610 . S
N1782 C1783 1.351 . S
C1783 C1777 1.428 . S
C1783 N1782 1.351 . S
C1783 C1784 1.434 . S
C1784 C1775 1.429 . S
C1784 N1781 1.350 . S
C1784 C1783 1.434 . S
C1785 C1786 1.369 . S
C1785 C1787 1.419 . S
C1785 H1789 0.930 . S
C1786 C1785 1.369 . S
C1786 C1795 1.429 . S
C1787 C1785 1.419 . S
C1787 C1788 1.363 . S
C1787 H1790 0.929 . S
C1788 C1787 1.363 . S
C1788 C1794 1.428 . S
H1789 C1785 0.930 . S
H1790 C1787 0.929 . S
S1791 N1792 1.613 . S
S1791 N1793 1.610 . S
N1792 S1791 1.613 . S
N1792 C1795 1.350 . S
N1793 S1791 1.610 . S
N1793 C1794 1.351 . S
C1794 C1788 1.428 . S
C1794 N1793 1.351 . S
C1794 C1795 1.434 . S
C1795 C1786 1.429 . S
C1795 N1792 1.350 . S
C1795 C1794 1.434 . S
C1796 C1797 1.369 . S
C1796 C1798 1.419 . S
C1796 H1800 0.930 . S
C1797 C1796 1.369 . S
C1797 C1806 1.429 . S
C1798 C1796 1.419 . S
C1798 C1799 1.363 . S
C1798 H1801 0.929 . S
C1799 C1798 1.363 . S
C1799 C1805 1.428 . S
H1800 C1796 0.930 . S
H1801 C1798 0.929 . S
S1802 N1803 1.613 . S
S1802 N1804 1.610 . S
N1803 S1802 1.613 . S
N1803 C1806 1.350 . S
N1804 S1802 1.610 . S
N1804 C1805 1.351 . S
C1805 C1799 1.428 . S
C1805 N1804 1.351 . S
C1805 C1806 1.434 . S
C1806 C1797 1.429 . S
C1806 N1803 1.350 . S
C1806 C1805 1.434 . S
C1807 C1808 1.369 . S
C1807 C1809 1.419 . S
C1807 H1811 0.930 . S
C1808 C1807 1.369 . S
C1808 C1817 1.429 . S
C1809 C1807 1.419 . S
C1809 C1810 1.363 . S
C1809 H1812 0.929 . S
C1810 C1809 1.363 . S
C1810 C1816 1.428 . S
H1811 C1807 0.930 . S
H1812 C1809 0.929 . S
S1813 N1814 1.613 . S
S1813 N1815 1.610 . S
N1814 S1813 1.613 . S
N1814 C1817 1.350 . S
N1815 S1813 1.610 . S
N1815 C1816 1.351 . S
C1816 C1810 1.428 . S
C1816 N1815 1.351 . S
C1816 C1817 1.434 . S
C1817 C1808 1.429 . S
C1817 N1814 1.350 . S
C1817 C1816 1.434 . S
C1818 C1819 1.369 . S
C1818 C1820 1.419 . S
C1818 H1822 0.930 . S
C1819 C1818 1.369 . S
C1819 C1828 1.429 . S
C1820 C1818 1.419 . S
C1820 C1821 1.363 . S
C1820 H1823 0.929 . S
C1821 C1820 1.363 . S
C1821 C1827 1.428 . S
H1822 C1818 0.930 . S
H1823 C1820 0.929 . S
S1824 N1825 1.613 . S
S1824 N1826 1.610 . S
N1825 S1824 1.613 . S
N1825 C1828 1.350 . S
N1826 S1824 1.610 . S
N1826 C1827 1.351 . S
C1827 C1821 1.428 . S
C1827 N1826 1.351 . S
C1827 C1828 1.434 . S
C1828 C1819 1.429 . S
C1828 N1825 1.350 . S
C1828 C1827 1.434 . S
C1829 C1830 1.369 . S
C1829 C1831 1.419 . S
C1829 H1833 0.930 . S
C1830 C1829 1.369 . S
C1830 C1839 1.429 . S
C1831 C1829 1.419 . S
C1831 C1832 1.363 . S
C1831 H1834 0.929 . S
C1832 C1831 1.363 . S
C1832 C1838 1.428 . S
H1833 C1829 0.930 . S
H1834 C1831 0.929 . S
S1835 N1836 1.613 . S
S1835 N1837 1.610 . S
N1836 S1835 1.613 . S
N1836 C1839 1.350 . S
N1837 S1835 1.610 . S
N1837 C1838 1.351 . S
C1838 C1832 1.428 . S
C1838 N1837 1.351 . S
C1838 C1839 1.434 . S
C1839 C1830 1.429 . S
C1839 N1836 1.350 . S
C1839 C1838 1.434 . S
C1840 C1841 1.369 . S
C1840 C1842 1.419 . S
C1840 H1844 0.930 . S
C1841 C1840 1.369 . S
C1841 C1850 1.429 . S
C1842 C1840 1.419 . S
C1842 C1843 1.363 . S
C1842 H1845 0.929 . S
C1843 C1842 1.363 . S
C1843 C1849 1.428 . S
H1844 C1840 0.930 . S
H1845 C1842 0.929 . S
S1846 N1847 1.613 . S
S1846 N1848 1.610 . S
N1847 S1846 1.613 . S
N1847 C1850 1.350 . S
N1848 S1846 1.610 . S
N1848 C1849 1.351 . S
C1849 C1843 1.428 . S
C1849 N1848 1.351 . S
C1849 C1850 1.434 . S
C1850 C1841 1.429 . S
C1850 N1847 1.350 . S
C1850 C1849 1.434 . S
C1851 C1852 1.369 . S
C1851 C1853 1.419 . S
C1851 H1855 0.930 . S
C1852 C1851 1.369 . S
C1852 C1861 1.429 . S
C1853 C1851 1.419 . S
C1853 C1854 1.363 . S
C1853 H1856 0.929 . S
C1854 C1853 1.363 . S
C1854 C1860 1.428 . S
H1855 C1851 0.930 . S
H1856 C1853 0.929 . S
S1857 N1858 1.613 . S
S1857 N1859 1.610 . S
N1858 S1857 1.613 . S
N1858 C1861 1.350 . S
N1859 S1857 1.610 . S
N1859 C1860 1.351 . S
C1860 C1854 1.428 . S
C1860 N1859 1.351 . S
C1860 C1861 1.434 . S
C1861 C1852 1.429 . S
C1861 N1858 1.350 . S
C1861 C1860 1.434 . S
C1862 C1863 1.369 . S
C1862 C1864 1.419 . S
C1862 H1866 0.930 . S
C1863 C1862 1.369 . S
C1863 C1872 1.429 . S
C1864 C1862 1.419 . S
C1864 C1865 1.363 . S
C1864 H1867 0.929 . S
C1865 C1864 1.363 . S
C1865 C1871 1.428 . S
H1866 C1862 0.930 . S
H1867 C1864 0.929 . S
S1868 N1869 1.613 . S
S1868 N1870 1.610 . S
N1869 S1868 1.613 . S
N1869 C1872 1.350 . S
N1870 S1868 1.610 . S
N1870 C1871 1.351 . S
C1871 C1865 1.428 . S
C1871 N1870 1.351 . S
C1871 C1872 1.434 . S
C1872 C1863 1.429 . S
C1872 N1869 1.350 . S
C1872 C1871 1.434 . S
C1873 C1874 1.369 . S
C1873 C1875 1.419 . S
C1873 H1877 0.930 . S
C1874 C1873 1.369 . S
C1874 C1883 1.429 . S
C1875 C1873 1.419 . S
C1875 C1876 1.363 . S
C1875 H1878 0.929 . S
C1876 C1875 1.363 . S
C1876 C1882 1.428 . S
H1877 C1873 0.930 . S
H1878 C1875 0.929 . S
S1879 N1880 1.613 . S
S1879 N1881 1.610 . S
N1880 S1879 1.613 . S
N1880 C1883 1.350 . S
N1881 S1879 1.610 . S
N1881 C1882 1.351 . S
C1882 C1876 1.428 . S
C1882 N1881 1.351 . S
C1882 C1883 1.434 . S
C1883 C1874 1.429 . S
C1883 N1880 1.350 . S
C1883 C1882 1.434 . S
C1884 C1885 1.369 . S
C1884 C1886 1.419 . S
C1884 H1888 0.930 . S
C1885 C1884 1.369 . S
C1885 C1894 1.429 . S
C1886 C1884 1.419 . S
C1886 C1887 1.363 . S
C1886 H1889 0.929 . S
C1887 C1886 1.363 . S
C1887 C1893 1.428 . S
H1888 C1884 0.930 . S
H1889 C1886 0.929 . S
S1890 N1891 1.613 . S
S1890 N1892 1.610 . S
N1891 S1890 1.613 . S
N1891 C1894 1.350 . S
N1892 S1890 1.610 . S
N1892 C1893 1.351 . S
C1893 C1887 1.428 . S
C1893 N1892 1.351 . S
C1893 C1894 1.434 . S
C1894 C1885 1.429 . S
C1894 N1891 1.350 . S
C1894 C1893 1.434 . S
C1895 C1896 1.369 . S
C1895 C1897 1.419 . S
C1895 H1899 0.930 . S
C1896 C1895 1.369 . S
C1896 C1905 1.429 . S
C1897 C1895 1.419 . S
C1897 C1898 1.363 . S
C1897 H1900 0.929 . S
C1898 C1897 1.363 . S
C1898 C1904 1.428 . S
H1899 C1895 0.930 . S
H1900 C1897 0.929 . S
S1901 N1902 1.613 . S
S1901 N1903 1.610 . S
N1902 S1901 1.613 . S
N1902 C1905 1.350 . S
N1903 S1901 1.610 . S
N1903 C1904 1.351 . S
C1904 C1898 1.428 . S
C1904 N1903 1.351 . S
C1904 C1905 1.434 . S
C1905 C1896 1.429 . S
C1905 N1902 1.350 . S
C1905 C1904 1.434 . S
C1906 C1907 1.369 . S
C1906 C1908 1.419 . S
C1906 H1910 0.930 . S
C1907 C1906 1.369 . S
C1907 C1916 1.429 . S
C1908 C1906 1.419 . S
C1908 C1909 1.363 . S
C1908 H1911 0.929 . S
C1909 C1908 1.363 . S
C1909 C1915 1.428 . S
H1910 C1906 0.930 . S
H1911 C1908 0.929 . S
S1912 N1913 1.613 . S
S1912 N1914 1.610 . S
N1913 S1912 1.613 . S
N1913 C1916 1.350 . S
N1914 S1912 1.610 . S
N1914 C1915 1.351 . S
C1915 C1909 1.428 . S
C1915 N1914 1.351 . S
C1915 C1916 1.434 . S
C1916 C1907 1.429 . S
C1916 N1913 1.350 . S
C1916 C1915 1.434 . S
C1917 C1918 1.369 . S
C1917 C1919 1.419 . S
C1917 H1921 0.930 . S
C1918 C1917 1.369 . S
C1918 C1927 1.429 . S
C1919 C1917 1.419 . S
C1919 C1920 1.363 . S
C1919 H1922 0.929 . S
C1920 C1919 1.363 . S
C1920 C1926 1.428 . S
H1921 C1917 0.930 . S
H1922 C1919 0.929 . S
S1923 N1924 1.613 . S
S1923 N1925 1.610 . S
N1924 S1923 1.613 . S
N1924 C1927 1.350 . S
N1925 S1923 1.610 . S
N1925 C1926 1.351 . S
C1926 C1920 1.428 . S
C1926 N1925 1.351 . S
C1926 C1927 1.434 . S
C1927 C1918 1.429 . S
C1927 N1924 1.350 . S
C1927 C1926 1.434 . S
C1928 C1929 1.369 . S
C1928 C1930 1.419 . S
C1928 H1932 0.930 . S
C1929 C1928 1.369 . S
C1929 C1938 1.429 . S
C1930 C1928 1.419 . S
C1930 C1931 1.363 . S
C1930 H1933 0.929 . S
C1931 C1930 1.363 . S
C1931 C1937 1.428 . S
H1932 C1928 0.930 . S
H1933 C1930 0.929 . S
S1934 N1935 1.613 . S
S1934 N1936 1.610 . S
N1935 S1934 1.613 . S
N1935 C1938 1.350 . S
N1936 S1934 1.610 . S
N1936 C1937 1.351 . S
C1937 C1931 1.428 . S
C1937 N1936 1.351 . S
C1937 C1938 1.434 . S
C1938 C1929 1.429 . S
C1938 N1935 1.350 . S
C1938 C1937 1.434 . S
C1939 C1940 1.369 . S
C1939 C1941 1.419 . S
C1939 H1943 0.930 . S
C1940 C1939 1.369 . S
C1940 C1949 1.429 . S
C1941 C1939 1.419 . S
C1941 C1942 1.363 . S
C1941 H1944 0.929 . S
C1942 C1941 1.363 . S
C1942 C1948 1.428 . S
H1943 C1939 0.930 . S
H1944 C1941 0.929 . S
S1945 N1946 1.613 . S
S1945 N1947 1.610 . S
N1946 S1945 1.613 . S
N1946 C1949 1.350 . S
N1947 S1945 1.610 . S
N1947 C1948 1.351 . S
C1948 C1942 1.428 . S
C1948 N1947 1.351 . S
C1948 C1949 1.434 . S
C1949 C1940 1.429 . S
C1949 N1946 1.350 . S
C1949 C1948 1.434 . S
C1950 C1951 1.369 . S
C1950 C1952 1.419 . S
C1950 H1954 0.930 . S
C1951 C1950 1.369 . S
C1951 C1960 1.429 . S
C1952 C1950 1.419 . S
C1952 C1953 1.363 . S
C1952 H1955 0.929 . S
C1953 C1952 1.363 . S
C1953 C1959 1.428 . S
H1954 C1950 0.930 . S
H1955 C1952 0.929 . S
S1956 N1957 1.613 . S
S1956 N1958 1.610 . S
N1957 S1956 1.613 . S
N1957 C1960 1.350 . S
N1958 S1956 1.610 . S
N1958 C1959 1.351 . S
C1959 C1953 1.428 . S
C1959 N1958 1.351 . S
C1959 C1960 1.434 . S
C1960 C1951 1.429 . S
C1960 N1957 1.350 . S
C1960 C1959 1.434 . S
C1961 C1962 1.369 . S
C1961 C1963 1.419 . S
C1961 H1965 0.930 . S
C1962 C1961 1.369 . S
C1962 C1971 1.429 . S
C1963 C1961 1.419 . S
C1963 C1964 1.363 . S
C1963 H1966 0.929 . S
C1964 C1963 1.363 . S
C1964 C1970 1.428 . S
H1965 C1961 0.930 . S
H1966 C1963 0.929 . S
S1967 N1968 1.613 . S
S1967 N1969 1.610 . S
N1968 S1967 1.613 . S
N1968 C1971 1.350 . S
N1969 S1967 1.610 . S
N1969 C1970 1.351 . S
C1970 C1964 1.428 . S
C1970 N1969 1.351 . S
C1970 C1971 1.434 . S
C1971 C1962 1.429 . S
C1971 N1968 1.350 . S
C1971 C1970 1.434 . S
C1972 C1973 1.369 . S
C1972 C1974 1.419 . S
C1972 H1976 0.930 . S
C1973 C1972 1.369 . S
C1973 C1982 1.429 . S
C1974 C1972 1.419 . S
C1974 C1975 1.363 . S
C1974 H1977 0.929 . S
C1975 C1974 1.363 . S
C1975 C1981 1.428 . S
H1976 C1972 0.930 . S
H1977 C1974 0.929 . S
S1978 N1979 1.613 . S
S1978 N1980 1.610 . S
N1979 S1978 1.613 . S
N1979 C1982 1.350 . S
N1980 S1978 1.610 . S
N1980 C1981 1.351 . S
C1981 C1975 1.428 . S
C1981 N1980 1.351 . S
C1981 C1982 1.434 . S
C1982 C1973 1.429 . S
C1982 N1979 1.350 . S
C1982 C1981 1.434 . S
C1983 C1984 1.369 . S
C1983 C1985 1.419 . S
C1983 H1987 0.930 . S
C1984 C1983 1.369 . S
C1984 C1993 1.429 . S
C1985 C1983 1.419 . S
C1985 C1986 1.363 . S
C1985 H1988 0.929 . S
C1986 C1985 1.363 . S
C1986 C1992 1.428 . S
H1987 C1983 0.930 . S
H1988 C1985 0.929 . S
S1989 N1990 1.613 . S
S1989 N1991 1.610 . S
N1990 S1989 1.613 . S
N1990 C1993 1.350 . S
N1991 S1989 1.610 . S
N1991 C1992 1.351 . S
C1992 C1986 1.428 . S
C1992 N1991 1.351 . S
C1992 C1993 1.434 . S
C1993 C1984 1.429 . S
C1993 N1990 1.350 . S
C1993 C1992 1.434 . S
C1994 C1995 1.369 . S
C1994 C1996 1.419 . S
C1994 H1998 0.930 . S
C1995 C1994 1.369 . S
C1995 C2004 1.429 . S
C1996 C1994 1.419 . S
C1996 C1997 1.363 . S
C1996 H1999 0.929 . S
C1997 C1996 1.363 . S
C1997 C2003 1.428 . S
H1998 C1994 0.930 . S
H1999 C1996 0.929 . S
S2000 N2001 1.613 . S
S2000 N2002 1.610 . S
N2001 S2000 1.613 . S
N2001 C2004 1.350 . S
N2002 S2000 1.610 . S
N2002 C2003 1.351 . S
C2003 C1997 1.428 . S
C2003 N2002 1.351 . S
C2003 C2004 1.434 . S
C2004 C1995 1.429 . S
C2004 N2001 1.350 . S
C2004 C2003 1.434 . S
C2005 C2006 1.369 . S
C2005 C2007 1.419 . S
C2005 H2009 0.930 . S
C2006 C2005 1.369 . S
C2006 C2015 1.429 . S
C2007 C2005 1.419 . S
C2007 C2008 1.363 . S
C2007 H2010 0.929 . S
C2008 C2007 1.363 . S
C2008 C2014 1.428 . S
H2009 C2005 0.930 . S
H2010 C2007 0.929 . S
S2011 N2012 1.613 . S
S2011 N2013 1.610 . S
N2012 S2011 1.613 . S
N2012 C2015 1.350 . S
N2013 S2011 1.610 . S
N2013 C2014 1.351 . S
C2014 C2008 1.428 . S
C2014 N2013 1.351 . S
C2014 C2015 1.434 . S
C2015 C2006 1.429 . S
C2015 N2012 1.350 . S
C2015 C2014 1.434 . S
C2016 C2017 1.369 . S
C2016 C2018 1.419 . S
C2016 H2020 0.930 . S
C2017 C2016 1.369 . S
C2017 C2026 1.429 . S
C2018 C2016 1.419 . S
C2018 C2019 1.363 . S
C2018 H2021 0.929 . S
C2019 C2018 1.363 . S
C2019 C2025 1.428 . S
H2020 C2016 0.930 . S
H2021 C2018 0.929 . S
S2022 N2023 1.613 . S
S2022 N2024 1.610 . S
N2023 S2022 1.613 . S
N2023 C2026 1.350 . S
N2024 S2022 1.610 . S
N2024 C2025 1.351 . S
C2025 C2019 1.428 . S
C2025 N2024 1.351 . S
C2025 C2026 1.434 . S
C2026 C2017 1.429 . S
C2026 N2023 1.350 . S
C2026 C2025 1.434 . S
C2027 C2028 1.369 1_565 S
C2027 C2029 1.419 . S
C2027 H2031 0.930 . S
C2028 C2027 1.369 1_545 S
C2028 C2037 1.429 . S
C2029 C2027 1.419 . S
C2029 C2030 1.363 . S
C2029 H2032 0.929 . S
C2030 C2029 1.363 . S
C2030 C2036 1.428 1_565 S
H2031 C2027 0.930 . S
H2032 C2029 0.929 . S
S2033 N2034 1.613 . S
S2033 N2035 1.610 . S
N2034 S2033 1.613 . S
N2034 C2037 1.350 . S
N2035 S2033 1.610 . S
N2035 C2036 1.351 . S
C2036 C2030 1.428 1_545 S
C2036 N2035 1.351 . S
C2036 C2037 1.434 . S
C2037 C2028 1.429 . S
C2037 N2034 1.350 . S
C2037 C2036 1.434 . S
C2038 C2039 1.369 1_655 S
C2038 C2040 1.419 . S
C2038 H2042 0.930 . S
C2039 C2038 1.369 1_455 S
C2039 C2048 1.429 . S
C2040 C2038 1.419 . S
C2040 C2041 1.361 . S
C2040 H2043 0.929 . S
C2041 C2040 1.361 . S
C2041 C2047 1.429 1_655 S
H2042 C2038 0.930 . S
H2043 C2040 0.929 . S
S2044 N2045 1.613 . S
S2044 N2046 1.610 . S
N2045 S2044 1.613 . S
N2045 C2048 1.350 . S
N2046 S2044 1.610 . S
N2046 C2047 1.351 . S
C2047 C2041 1.429 1_455 S
C2047 N2046 1.351 . S
C2047 C2048 1.434 . S
C2048 C2039 1.429 . S
C2048 N2045 1.350 . S
C2048 C2047 1.434 . S
C2049 C2050 1.369 . S
C2049 C2051 1.419 . S
C2049 H2053 0.930 . S
C2050 C2049 1.369 . S
C2050 C2059 1.429 . S
C2051 C2049 1.419 . S
C2051 C2052 1.363 . S
C2051 H2054 0.929 . S
C2052 C2051 1.363 . S
C2052 C2058 1.428 . S
H2053 C2049 0.930 . S
H2054 C2051 0.929 . S
S2055 N2056 1.613 . S
S2055 N2057 1.610 . S
N2056 S2055 1.613 . S
N2056 C2059 1.350 . S
N2057 S2055 1.610 . S
N2057 C2058 1.351 . S
C2058 C2052 1.428 . S
C2058 N2057 1.351 . S
C2058 C2059 1.434 . S
C2059 C2050 1.429 . S
C2059 N2056 1.350 . S
C2059 C2058 1.434 . S
C2060 C2061 1.371 . S
C2060 C2062 1.419 . S
C2060 H2064 0.930 . S
C2061 C2060 1.371 . S
C2061 C2070 1.426 1_545 S
C2062 C2060 1.419 . S
C2062 C2063 1.363 1_545 S
C2062 H2065 0.929 . S
C2063 C2062 1.363 1_565 S
C2063 C2069 1.428 . S
H2064 C2060 0.930 . S
H2065 C2062 0.929 . S
S2066 N2067 1.613 . S
S2066 N2068 1.610 . S
N2067 S2066 1.613 . S
N2067 C2070 1.350 . S
N2068 S2066 1.610 . S
N2068 C2069 1.351 . S
C2069 C2063 1.428 . S
C2069 N2068 1.351 . S
C2069 C2070 1.434 . S
C2070 C2061 1.426 1_565 S
C2070 N2067 1.350 . S
C2070 C2069 1.434 . S
C2071 C2072 1.369 1_655 S
C2071 C2073 1.419 . S
C2071 H2075 0.930 . S
C2072 C2071 1.369 1_455 S
C2072 C2081 1.429 . S
C2073 C2071 1.419 . S
C2073 C2074 1.352 . S
C2073 H2076 0.929 . S
C2074 C2073 1.352 . S
C2074 C2080 1.439 1_655 S
H2075 C2071 0.930 . S
H2076 C2073 0.929 . S
S2077 N2078 1.613 . S
S2077 N2079 1.610 . S
N2078 S2077 1.613 . S
N2078 C2081 1.350 . S
N2079 S2077 1.610 . S
N2079 C2080 1.351 . S
C2080 C2074 1.439 1_455 S
C2080 N2079 1.351 . S
C2080 C2081 1.434 . S
C2081 C2072 1.429 . S
C2081 N2078 1.350 . S
C2081 C2080 1.434 . S
C2082 C2083 1.369 . S
C2082 C2084 1.419 . S
C2082 H2086 0.930 . S
C2083 C2082 1.369 . S
C2083 C2092 1.429 . S
C2084 C2082 1.419 . S
C2084 C2085 1.363 . S
C2084 H2087 0.929 . S
C2085 C2084 1.363 . S
C2085 C2091 1.428 . S
H2086 C2082 0.930 . S
H2087 C2084 0.929 . S
S2088 N2089 1.613 . S
S2088 N2090 1.610 . S
N2089 S2088 1.613 . S
N2089 C2092 1.350 . S
N2090 S2088 1.610 . S
N2090 C2091 1.351 . S
C2091 C2085 1.428 . S
C2091 N2090 1.351 . S
C2091 C2092 1.434 . S
C2092 C2083 1.429 . S
C2092 N2089 1.350 . S
C2092 C2091 1.434 . S
C2093 C2094 1.369 . S
C2093 C2095 1.419 . S
C2093 H2097 0.930 . S
C2094 C2093 1.369 . S
C2094 C2103 1.429 . S
C2095 C2093 1.419 . S
C2095 C2096 1.363 . S
C2095 H2098 0.929 . S
C2096 C2095 1.363 . S
C2096 C2102 1.428 . S
H2097 C2093 0.930 . S
H2098 C2095 0.929 . S
S2099 N2100 1.613 . S
S2099 N2101 1.610 . S
N2100 S2099 1.613 . S
N2100 C2103 1.350 . S
N2101 S2099 1.610 . S
N2101 C2102 1.351 . S
C2102 C2096 1.428 . S
C2102 N2101 1.351 . S
C2102 C2103 1.434 . S
C2103 C2094 1.429 . S
C2103 N2100 1.350 . S
C2103 C2102 1.434 . S
C2104 C2105 1.369 . S
C2104 C2106 1.419 . S
C2104 H2108 0.930 . S
C2105 C2104 1.369 . S
C2105 C2114 1.429 . S
C2106 C2104 1.419 . S
C2106 C2107 1.363 . S
C2106 H2109 0.929 . S
C2107 C2106 1.363 . S
C2107 C2113 1.428 . S
H2108 C2104 0.930 . S
H2109 C2106 0.929 . S
S2110 N2111 1.613 . S
S2110 N2112 1.610 . S
N2111 S2110 1.613 . S
N2111 C2114 1.350 . S
N2112 S2110 1.610 . S
N2112 C2113 1.351 . S
C2113 C2107 1.428 . S
C2113 N2112 1.351 . S
C2113 C2114 1.434 . S
C2114 C2105 1.429 . S
C2114 N2111 1.350 . S
C2114 C2113 1.434 . S
C2115 C2116 1.369 . S
C2115 C2117 1.419 . S
C2115 H2119 0.930 . S
C2116 C2115 1.369 . S
C2116 C2125 1.429 . S
C2117 C2115 1.419 . S
C2117 C2118 1.363 . S
C2117 H2120 0.929 . S
C2118 C2117 1.363 . S
C2118 C2124 1.428 . S
H2119 C2115 0.930 . S
H2120 C2117 0.929 . S
S2121 N2122 1.613 . S
S2121 N2123 1.610 . S
N2122 S2121 1.613 . S
N2122 C2125 1.350 . S
N2123 S2121 1.610 . S
N2123 C2124 1.351 . S
C2124 C2118 1.428 . S
C2124 N2123 1.351 . S
C2124 C2125 1.434 . S
C2125 C2116 1.429 . S
C2125 N2122 1.350 . S
C2125 C2124 1.434 . S
C2126 C2127 1.369 . S
C2126 C2128 1.419 . S
C2126 H2130 0.930 . S
C2127 C2126 1.369 . S
C2127 C2136 1.429 . S
C2128 C2126 1.419 . S
C2128 C2129 1.363 . S
C2128 H2131 0.929 . S
C2129 C2128 1.363 . S
C2129 C2135 1.428 . S
H2130 C2126 0.930 . S
H2131 C2128 0.929 . S
S2132 N2133 1.613 . S
S2132 N2134 1.610 . S
N2133 S2132 1.613 . S
N2133 C2136 1.350 . S
N2134 S2132 1.610 . S
N2134 C2135 1.351 . S
C2135 C2129 1.428 . S
C2135 N2134 1.351 . S
C2135 C2136 1.434 . S
C2136 C2127 1.429 . S
C2136 N2133 1.350 . S
C2136 C2135 1.434 . S
C2137 C2138 1.369 . S
C2137 C2139 1.419 . S
C2137 H2141 0.930 . S
C2138 C2137 1.369 . S
C2138 C2147 1.429 . S
C2139 C2137 1.419 . S
C2139 C2140 1.363 . S
C2139 H2142 0.929 . S
C2140 C2139 1.363 . S
C2140 C2146 1.428 . S
H2141 C2137 0.930 . S
H2142 C2139 0.929 . S
S2143 N2144 1.613 . S
S2143 N2145 1.610 . S
N2144 S2143 1.613 . S
N2144 C2147 1.350 . S
N2145 S2143 1.610 . S
N2145 C2146 1.351 . S
C2146 C2140 1.428 . S
C2146 N2145 1.351 . S
C2146 C2147 1.434 . S
C2147 C2138 1.429 . S
C2147 N2144 1.350 . S
C2147 C2146 1.434 . S
C2148 C2149 1.369 . S
C2148 C2150 1.419 . S
C2148 H2152 0.930 . S
C2149 C2148 1.369 . S
C2149 C2158 1.429 . S
C2150 C2148 1.419 . S
C2150 C2151 1.363 . S
C2150 H2153 0.929 . S
C2151 C2150 1.363 . S
C2151 C2157 1.428 . S
H2152 C2148 0.930 . S
H2153 C2150 0.929 . S
S2154 N2155 1.613 . S
S2154 N2156 1.610 . S
N2155 S2154 1.613 . S
N2155 C2158 1.350 . S
N2156 S2154 1.610 . S
N2156 C2157 1.351 . S
C2157 C2151 1.428 . S
C2157 N2156 1.351 . S
C2157 C2158 1.434 . S
C2158 C2149 1.429 . S
C2158 N2155 1.350 . S
C2158 C2157 1.434 . S
C2159 C2160 1.369 . S
C2159 C2161 1.419 . S
C2159 H2163 0.930 . S
C2160 C2159 1.369 . S
C2160 C2169 1.429 . S
C2161 C2159 1.419 . S
C2161 C2162 1.363 . S
C2161 H2164 0.929 . S
C2162 C2161 1.363 . S
C2162 C2168 1.428 . S
H2163 C2159 0.930 . S
H2164 C2161 0.929 . S
S2165 N2166 1.613 . S
S2165 N2167 1.610 . S
N2166 S2165 1.613 . S
N2166 C2169 1.350 . S
N2167 S2165 1.610 . S
N2167 C2168 1.351 . S
C2168 C2162 1.428 . S
C2168 N2167 1.351 . S
C2168 C2169 1.434 . S
C2169 C2160 1.429 . S
C2169 N2166 1.350 . S
C2169 C2168 1.434 . S
C2170 C2171 1.369 . S
C2170 C2172 1.419 . S
C2170 H2174 0.930 . S
C2171 C2170 1.369 . S
C2171 C2180 1.429 . S
C2172 C2170 1.419 . S
C2172 C2173 1.363 . S
C2172 H2175 0.929 . S
C2173 C2172 1.363 . S
C2173 C2179 1.428 . S
H2174 C2170 0.930 . S
H2175 C2172 0.929 . S
S2176 N2177 1.613 . S
S2176 N2178 1.610 . S
N2177 S2176 1.613 . S
N2177 C2180 1.350 . S
N2178 S2176 1.610 . S
N2178 C2179 1.351 . S
C2179 C2173 1.428 . S
C2179 N2178 1.351 . S
C2179 C2180 1.434 . S
C2180 C2171 1.429 . S
C2180 N2177 1.350 . S
C2180 C2179 1.434 . S
C2181 C2182 1.369 . S
C2181 C2183 1.419 . S
C2181 H2185 0.930 . S
C2182 C2181 1.369 . S
C2182 C2191 1.429 . S
C2183 C2181 1.419 . S
C2183 C2184 1.363 . S
C2183 H2186 0.929 . S
C2184 C2183 1.363 . S
C2184 C2190 1.428 . S
H2185 C2181 0.930 . S
H2186 C2183 0.929 . S
S2187 N2188 1.613 . S
S2187 N2189 1.610 . S
N2188 S2187 1.613 . S
N2188 C2191 1.350 . S
N2189 S2187 1.610 . S
N2189 C2190 1.351 . S
C2190 C2184 1.428 . S
C2190 N2189 1.351 . S
C2190 C2191 1.434 . S
C2191 C2182 1.429 . S
C2191 N2188 1.350 . S
C2191 C2190 1.434 . S
C2192 C2193 1.369 . S
C2192 C2194 1.419 . S
C2192 H2196 0.930 . S
C2193 C2192 1.369 . S
C2193 C2202 1.429 . S
C2194 C2192 1.419 . S
C2194 C2195 1.363 . S
C2194 H2197 0.929 . S
C2195 C2194 1.363 . S
C2195 C2201 1.428 . S
H2196 C2192 0.930 . S
H2197 C2194 0.929 . S
S2198 N2199 1.613 . S
S2198 N2200 1.610 . S
N2199 S2198 1.613 . S
N2199 C2202 1.350 . S
N2200 S2198 1.610 . S
N2200 C2201 1.351 . S
C2201 C2195 1.428 . S
C2201 N2200 1.351 . S
C2201 C2202 1.434 . S
C2202 C2193 1.429 . S
C2202 N2199 1.350 . S
C2202 C2201 1.434 . S
C2203 C2204 1.369 . S
C2203 C2205 1.419 . S
C2203 H2207 0.930 . S
C2204 C2203 1.369 . S
C2204 C2213 1.429 . S
C2205 C2203 1.419 . S
C2205 C2206 1.363 . S
C2205 H2208 0.929 . S
C2206 C2205 1.363 . S
C2206 C2212 1.428 . S
H2207 C2203 0.930 . S
H2208 C2205 0.929 . S
S2209 N2210 1.613 . S
S2209 N2211 1.610 . S
N2210 S2209 1.613 . S
N2210 C2213 1.350 . S
N2211 S2209 1.610 . S
N2211 C2212 1.351 . S
C2212 C2206 1.428 . S
C2212 N2211 1.351 . S
C2212 C2213 1.434 . S
C2213 C2204 1.429 . S
C2213 N2210 1.350 . S
C2213 C2212 1.434 . S
C1225 C546 1.649 . S
C1227 C2 1.641 . S
C1236 C580 1.647 . S
C1238 C36 1.643 . S
C1247 C512 1.640 . S
C1249 C70 1.648 . S
C1258 C104 1.648 . S
C1260 C886 1.641 . S
C1269 C818 1.648 . S
C1271 C138 1.641 . S
C1280 C852 1.644 . S
C1282 C172 1.645 . S
C1291 C206 1.642 . S
C1293 C1158 1.647 . S
C1302 C1192 1.643 . S
C1304 C240 1.644 . S
C1313 C274 1.640 . S
C1315 C1124 1.647 . S
C1324 C682 1.639 . S
C1326 C308 1.648 . S
C1335 C342 1.644 . S
C1337 C614 1.643 . S
C1346 C648 1.640 . S
C1348 C376 1.647 . S
C1357 C410 1.649 . S
C1359 C954 1.641 . S
C1368 C988 1.647 . S
C1370 C444 1.642 . S
C1379 C920 1.644 . S
C1381 C478 1.645 . S
C1390 C1090 1.639 . S
C1392 C716 1.648 . S
C1401 C750 1.646 . S
C1403 C1022 1.642 . S
C1412 C1056 1.649 . S
C1414 C784 1.640 . S
C1423 C111 1.307 . S
C1425 C9 1.306 . S
C1434 C145 1.322 . S
C1436 C43 1.313 1_565 S
C1445 C77 1.303 1_455 S
C1447 C179 1.306 . S
C1456 C315 1.309 . S
C1458 C213 1.306 . S
C1467 C247 1.311 . S
C1469 C349 1.312 . S
C1478 C383 1.319 1_455 S
C1480 C281 1.330 . S
C1489 C417 1.317 . S
C1491 C519 1.316 . S
C1500 C451 1.309 . S
C1502 C553 1.315 . S
C1511 C587 1.318 . S
C1513 C485 1.314 . S
C1522 C723 1.306 . S
C1524 C621 1.306 . S
C1533 C757 1.312 . S
C1535 C655 1.316 . S
C1544 C791 1.318 . S
C1546 C689 1.315 . S
C1555 C825 1.316 . S
C1557 C927 1.310 1_556 S
C1566 C961 1.317 1_556 S
C1568 C859 1.311 . S
C1577 C893 1.314 . S
C1579 C995 1.317 1_556 S
C1588 C1029 1.317 . S
C1590 C1131 1.317 . S
C1599 C1063 1.309 . S
C1601 C1165 1.314 . S
C1610 C1199 1.310 . S
C1612 C1097 1.307 . S
C1621 C33 1.536 . S
C1623 C258 1.547 . S
C1632 C292 1.546 . S
C1634 C67 1.535 . S
C1643 C224 1.548 . S
C1645 C101 1.532 . S
C1654 C135 1.535 . S
C1656 C394 1.548 . S
C1665 C326 1.546 . S
C1667 C169 1.534 . S
C1676 C360 1.547 . S
C1678 C203 1.536 . S
C1687 C237 1.536 . S
C1689 C54 1.547 . S
C1698 C88 1.546 . S
C1700 C271 1.535 . S
C1709 C20 1.547 . S
C1711 C305 1.533 . S
C1720 C190 1.547 . S
C1722 C339 1.536 . S
C1731 C122 1.547 . S
C1733 C373 1.536 . S
C1742 C407 1.532 . S
C1744 C156 1.547 . S
C1753 C441 1.536 . S
C1755 C666 1.547 . S
C1764 C475 1.534 . S
C1766 C700 1.548 . S
C1775 C509 1.533 . S
C1777 C632 1.547 . S
C1786 C802 1.547 . S
C1788 C543 1.536 . S
C1797 C577 1.534 . S
C1799 C734 1.547 . S
C1808 C611 1.533 . S
C1810 C768 1.547 . S
C1819 C645 1.535 . S
C1821 C462 1.547 . S
C1830 C496 1.548 . S
C1832 C679 1.533 . S
C1841 C713 1.537 . S
C1843 C428 1.547 . S
C1852 C747 1.533 . S
C1854 C598 1.548 . S
C1863 C781 1.534 . S
C1865 C530 1.548 . S
C1874 C815 1.536 . S
C1876 C564 1.548 . S
C1885 C849 1.534 . S
C1887 C1074 1.548 . S
C1896 C1108 1.547 . S
C1898 C883 1.533 . S
C1907 C917 1.532 . S
C1909 C1040 1.548 . S
C1918 C951 1.533 . S
C1920 C1210 1.547 . S
C1929 C985 1.532 . S
C1931 C1142 1.548 . S
C1940 C1019 1.534 . S
C1942 C1176 1.547 . S
C1951 C870 1.547 . S
C1953 C1053 1.534 . S
C1962 C904 1.547 . S
C1964 C1087 1.533 . S
C1973 C836 1.547 . S
C1975 C1121 1.532 . S
C1984 C1006 1.547 . S
C1986 C1155 1.533 . S
C1995 C1189 1.535 . S
C1997 C938 1.548 . S
C2006 C1223 1.532 . S
C2008 C972 1.548 . S
C2017 C107 1.269 . S
C2019 C5 1.269 . S
C2028 C39 1.266 . S
C2030 C141 1.266 . S
C2039 C175 1.270 . S
C2041 C73 1.267 . S
C2050 C311 1.269 . S
C2052 C209 1.267 . S
C2061 C345 1.267 . S
C2063 C243 1.269 . S
C2072 C277 1.265 . S
C2074 C379 1.266 . S
C2083 C515 1.269 . S
C2085 C413 1.269 . S
C2094 C447 1.267 . S
C2096 C549 1.268 . S
C2105 C583 1.264 . S
C2107 C481 1.265 . S
C2116 C719 1.265 . S
C2118 C617 1.265 . S
C2127 C753 1.269 . S
C2129 C651 1.267 . S
C2138 C685 1.264 . S
C2140 C787 1.265 . S
C2149 C923 1.270 . S
C2151 C821 1.269 . S
C2160 C855 1.267 . S
C2162 C957 1.266 . S
C2171 C991 1.266 . S
C2173 C889 1.267 . S
C2182 C1025 1.267 . S
C2184 C1127 1.265 1_556 S
C2193 C1059 1.268 . S
C2195 C1161 1.266 1_556 S
C2204 C1093 1.265 . S
C2206 C1195 1.265 1_556 S
