# Generated by pormake.
# Topology why, (6)-cn, num edge types: 1
# Building blocks:
#     Node 0, Type 0, BuildingBlock: MIDCAF_clean_sbu_0, # of connection points: 6
#     Node 1, Type 0, BuildingBlock: MIDCAF_clean_sbu_0, # of connection points: 6
#     Node 2, Type 0, BuildingBlock: MIDCAF_clean_sbu_0, # of connection points: 6
#     Node 3, Type 0, BuildingBlock: MIDCAF_clean_sbu_0, # of connection points: 6
#     Node 4, Type 0, BuildingBlock: MIDCAF_clean_sbu_0, # of connection points: 6
#     Node 5, Type 0, BuildingBlock: MIDCAF_clean_sbu_0, # of connection points: 6
#     Node 6, Type 0, BuildingBlock: MIDCAF_clean_sbu_0, # of connection points: 6
#     Node 7, Type 0, BuildingBlock: MIDCAF_clean_sbu_0, # of connection points: 6
#     Node 8, Type 0, BuildingBlock: MIDCAF_clean_sbu_0, # of connection points: 6
#     Node 9, Type 0, BuildingBlock: MIDCAF_clean_sbu_0, # of connection points: 6
#     Node 10, Type 0, BuildingBlock: MIDCAF_clean_sbu_0, # of connection points: 6
#     Node 11, Type 0, BuildingBlock: MIDCAF_clean_sbu_0, # of connection points: 6
#     Node 12, Type 0, BuildingBlock: MIDCAF_clean_sbu_0, # of connection points: 6
#     Node 13, Type 0, BuildingBlock: MIDCAF_clean_sbu_0, # of connection points: 6
#     Node 14, Type 0, BuildingBlock: MIDCAF_clean_sbu_0, # of connection points: 6
#     Node 15, Type 0, BuildingBlock: MIDCAF_clean_sbu_0, # of connection points: 6
#     Edge 16, Type (0, 0), BuildingBlock: KIFKEQ_clean_linker_1, # of connection points: 2
#     Edge 17, Type (0, 0), BuildingBlock: KIFKEQ_clean_linker_1, # of connection points: 2
#     Edge 18, Type (0, 0), BuildingBlock: KIFKEQ_clean_linker_1, # of connection points: 2
#     Edge 19, Type (0, 0), BuildingBlock: KIFKEQ_clean_linker_1, # of connection points: 2
#     Edge 20, Type (0, 0), BuildingBlock: KIFKEQ_clean_linker_1, # of connection points: 2
#     Edge 21, Type (0, 0), BuildingBlock: KIFKEQ_clean_linker_1, # of connection points: 2
#     Edge 22, Type (0, 0), BuildingBlock: KIFKEQ_clean_linker_1, # of connection points: 2
#     Edge 23, Type (0, 0), BuildingBlock: KIFKEQ_clean_linker_1, # of connection points: 2
#     Edge 24, Type (0, 0), BuildingBlock: KIFKEQ_clean_linker_1, # of connection points: 2
#     Edge 25, Type (0, 0), BuildingBlock: KIFKEQ_clean_linker_1, # of connection points: 2
#     Edge 26, Type (0, 0), BuildingBlock: KIFKEQ_clean_linker_1, # of connection points: 2
#     Edge 27, Type (0, 0), BuildingBlock: KIFKEQ_clean_linker_1, # of connection points: 2
#     Edge 28, Type (0, 0), BuildingBlock: KIFKEQ_clean_linker_1, # of connection points: 2
#     Edge 29, Type (0, 0), BuildingBlock: KIFKEQ_clean_linker_1, # of connection points: 2
#     Edge 30, Type (0, 0), BuildingBlock: KIFKEQ_clean_linker_1, # of connection points: 2
#     Edge 31, Type (0, 0), BuildingBlock: KIFKEQ_clean_linker_1, # of connection points: 2
#     Edge 32, Type (0, 0), BuildingBlock: KIFKEQ_clean_linker_1, # of connection points: 2
#     Edge 33, Type (0, 0), BuildingBlock: KIFKEQ_clean_linker_1, # of connection points: 2
#     Edge 34, Type (0, 0), BuildingBlock: KIFKEQ_clean_linker_1, # of connection points: 2
#     Edge 35, Type (0, 0), BuildingBlock: KIFKEQ_clean_linker_1, # of connection points: 2
#     Edge 36, Type (0, 0), BuildingBlock: KIFKEQ_clean_linker_1, # of connection points: 2
#     Edge 37, Type (0, 0), BuildingBlock: KIFKEQ_clean_linker_1, # of connection points: 2
#     Edge 38, Type (0, 0), BuildingBlock: KIFKEQ_clean_linker_1, # of connection points: 2
#     Edge 39, Type (0, 0), BuildingBlock: KIFKEQ_clean_linker_1, # of connection points: 2
#     Edge 40, Type (0, 0), BuildingBlock: KIFKEQ_clean_linker_1, # of connection points: 2
#     Edge 41, Type (0, 0), BuildingBlock: KIFKEQ_clean_linker_1, # of connection points: 2
#     Edge 42, Type (0, 0), BuildingBlock: KIFKEQ_clean_linker_1, # of connection points: 2
#     Edge 43, Type (0, 0), BuildingBlock: KIFKEQ_clean_linker_1, # of connection points: 2
#     Edge 44, Type (0, 0), BuildingBlock: KIFKEQ_clean_linker_1, # of connection points: 2
#     Edge 45, Type (0, 0), BuildingBlock: KIFKEQ_clean_linker_1, # of connection points: 2
#     Edge 46, Type (0, 0), BuildingBlock: KIFKEQ_clean_linker_1, # of connection points: 2
#     Edge 47, Type (0, 0), BuildingBlock: KIFKEQ_clean_linker_1, # of connection points: 2
#     Edge 48, Type (0, 0), BuildingBlock: KIFKEQ_clean_linker_1, # of connection points: 2
#     Edge 49, Type (0, 0), BuildingBlock: KIFKEQ_clean_linker_1, # of connection points: 2
#     Edge 50, Type (0, 0), BuildingBlock: KIFKEQ_clean_linker_1, # of connection points: 2
#     Edge 51, Type (0, 0), BuildingBlock: KIFKEQ_clean_linker_1, # of connection points: 2
#     Edge 52, Type (0, 0), BuildingBlock: KIFKEQ_clean_linker_1, # of connection points: 2
#     Edge 53, Type (0, 0), BuildingBlock: KIFKEQ_clean_linker_1, # of connection points: 2
#     Edge 54, Type (0, 0), BuildingBlock: KIFKEQ_clean_linker_1, # of connection points: 2
#     Edge 55, Type (0, 0), BuildingBlock: KIFKEQ_clean_linker_1, # of connection points: 2
#     Edge 56, Type (0, 0), BuildingBlock: KIFKEQ_clean_linker_1, # of connection points: 2
#     Edge 57, Type (0, 0), BuildingBlock: KIFKEQ_clean_linker_1, # of connection points: 2
#     Edge 58, Type (0, 0), BuildingBlock: KIFKEQ_clean_linker_1, # of connection points: 2
#     Edge 59, Type (0, 0), BuildingBlock: KIFKEQ_clean_linker_1, # of connection points: 2
#     Edge 60, Type (0, 0), BuildingBlock: KIFKEQ_clean_linker_1, # of connection points: 2
#     Edge 61, Type (0, 0), BuildingBlock: KIFKEQ_clean_linker_1, # of connection points: 2
#     Edge 62, Type (0, 0), BuildingBlock: KIFKEQ_clean_linker_1, # of connection points: 2
#     Edge 63, Type (0, 0), BuildingBlock: KIFKEQ_clean_linker_1, # of connection points: 2
# Relax obj value: 0.310
# Max RMSD: 0.222
# Mean RMSD: 0.222
data_MOF--net-why--node1-MIDCAF_clean_sbu_0--edge1-KIFKEQ_clean_linker_1
_symmetry_space_group_name_H-M    P1
_symmetry_Int_Tables_number       1
_symmetry_cell_setting            triclinic
loop_
_symmetry_equiv_pos_as_xyz
'x, y, z'
_cell_length_a     46.620769
_cell_length_b     46.701758
_cell_length_c     27.551213
_cell_angle_alpha  90.175872
_cell_angle_beta   90.227593
_cell_angle_gamma 90.089145
loop_
_atom_site_label
_atom_site_type_symbol
_atom_site_fract_x
_atom_site_fract_y
_atom_site_fract_z
_atom_type_partial_charge
Zn0 Zn 0.37773 0.17566 0.15254 0.0
Zn1 Zn 0.29237 0.21378 0.96564 0.0
Zn2 Zn 0.34478 0.1758 0.07852 0.0
C3 C 0.33064 0.16762 0.9611 0.0
C4 C 0.3462 0.23053 0.01552 0.0
O5 O 0.31908 0.19211 0.13908 0.0
O6 O 0.35274 0.1994 0.19429 0.0
C7 C 0.36465 0.11871 0.12739 0.0
O8 O 0.32913 0.17445 0.00575 0.0
O9 O 0.31323 0.17973 0.93186 0.0
O10 O 0.31915 0.22915 0.02249 0.0
O11 O 0.3623 0.2108 0.03388 0.0
O12 O 0.37602 0.13383 0.16028 0.0
O13 O 0.35335 0.13054 0.09016 0.0
O14 O 0.38503 0.20116 0.06573 0.0
O15 O 0.41332 0.19259 0.12857 0.0
C16 C 0.40949 0.20359 0.0874 0.0
O17 O 0.29998 0.18226 0.09886 0.0
O18 O 0.29351 0.21287 0.04117 0.0
C19 C 0.32695 0.20179 0.18077 0.0
C20 C 0.28388 0.1914 0.06443 0.0
Zn21 Zn 0.53873 0.61277 0.38844 0.0
Zn22 Zn 0.59856 0.59125 0.26098 0.0
Zn23 Zn 0.56515 0.60001 0.31721 0.0
C24 C 0.58224 0.64293 0.23863 0.0
C25 C 0.54498 0.58558 0.21379 0.0
O26 O 0.55301 0.55804 0.34287 0.0
O27 O 0.52895 0.5726 0.40715 0.0
C28 C 0.59681 0.63213 0.39962 0.0
O29 O 0.56033 0.63051 0.25762 0.0
O30 O 0.6069 0.63322 0.24865 0.0
O31 O 0.5685 0.57201 0.21386 0.0
O32 O 0.54123 0.6047 0.24737 0.0
O33 O 0.57311 0.63077 0.42182 0.0
O34 O 0.59855 0.62227 0.35641 0.0
O35 O 0.53084 0.62672 0.28368 0.0
O36 O 0.50979 0.63697 0.3533 0.0
C37 C 0.51096 0.63976 0.30765 0.0
O38 O 0.57767 0.5543 0.30872 0.0
O39 O 0.62337 0.56419 0.29853 0.0
C40 C 0.53832 0.5525 0.38087 0.0
C41 C 0.6038 0.54567 0.30413 0.0
Zn42 Zn 0.18195 0.8228 0.48104 0.0
Zn43 Zn 0.13908 0.81445 0.65131 0.0
Zn44 Zn 0.16313 0.81848 0.56707 0.0
C45 C 0.09285 0.81553 0.59125 0.0
C46 C 0.1736 0.8646 0.65292 0.0
O47 O 0.19526 0.85531 0.56412 0.0
O48 O 0.20634 0.85617 0.48611 0.0
C49 C 0.19369 0.76741 0.50545 0.0
O50 O 0.11425 0.81836 0.56184 0.0
O51 O 0.09755 0.81383 0.63625 0.0
O52 O 0.1563 0.85015 0.67822 0.0
O53 O 0.18006 0.85605 0.60964 0.0
O54 O 0.20033 0.78542 0.47341 0.0
O55 O 0.18094 0.77585 0.54453 0.0
O56 O 0.12722 0.8262 0.51804 0.0
O57 O 0.14606 0.82806 0.44449 0.0
C58 C 0.12454 0.82952 0.47186 0.0
O59 O 0.17936 0.77769 0.59847 0.0
O60 O 0.15706 0.77769 0.66918 0.0
C61 C 0.20926 0.86633 0.52819 0.0
C62 C 0.1744 0.76612 0.64008 0.0
Zn63 Zn 0.93591 0.38301 0.88531 0.0
Zn64 Zn 0.92619 0.42404 0.71899 0.0
Zn65 Zn 0.93242 0.40707 0.80211 0.0
C66 C 0.87537 0.40278 0.73234 0.0
C67 C 0.96665 0.38315 0.71005 0.0
O68 O 0.94597 0.44248 0.84999 0.0
O69 O 0.95414 0.41703 0.9162 0.0
C70 C 0.87808 0.38383 0.86319 0.0
O71 O 0.88982 0.39528 0.77039 0.0
O72 O 0.88477 0.4228 0.70629 0.0
O73 O 0.94894 0.39555 0.68267 0.0
O74 O 0.96465 0.38582 0.75646 0.0
O75 O 0.89478 0.37747 0.89757 0.0
O76 O 0.88821 0.3937 0.82314 0.0
O77 O 0.96497 0.37072 0.80082 0.0
O78 O 0.95853 0.34833 0.87033 0.0
C79 C 0.97027 0.3494 0.82924 0.0
O80 O 0.94082 0.45474 0.80266 0.0
O81 O 0.94341 0.46202 0.72374 0.0
C82 C 0.95471 0.44078 0.89431 0.0
C83 C 0.94534 0.47161 0.76638 0.0
Zn84 Zn 0.66834 0.79087 0.02144 0.0
Zn85 Zn 0.64911 0.83262 0.86844 0.0
Zn86 Zn 0.6476 0.81376 0.95326 0.0
C87 C 0.59763 0.80157 0.88734 0.0
C88 C 0.63784 0.87224 0.9235 0.0
O89 O 0.69233 0.82163 0.94458 0.0
O90 O 0.70901 0.79262 1.00027 0.0
C91 C 0.63074 0.75064 0.98435 0.0
O92 O 0.61575 0.78883 0.91528 0.0
O93 O 0.60524 0.82389 0.86463 0.0
O94 O 0.66297 0.8658 0.9106 0.0
O95 O 0.62437 0.85328 0.94769 0.0
O96 O 0.64806 0.75375 0.01928 0.0
O97 O 0.62795 0.77055 0.9524 0.0
O98 O 0.62621 0.83902 0.00779 0.0
O99 O 0.65232 0.82111 0.06698 0.0
C100 C 0.63328 0.83856 0.05274 0.0
O101 O 0.64689 0.77583 0.90411 0.0
O102 O 0.67416 0.79912 0.85198 0.0
C103 C 0.71348 0.81021 0.96642 0.0
C104 C 0.66476 0.77566 0.86848 0.0
Zn105 Zn 0.45368 0.41535 0.72386 0.0
Zn106 Zn 0.44538 0.34613 0.60309 0.0
Zn107 Zn 0.43832 0.37894 0.66936 0.0
C108 C 0.44807 0.31222 0.68577 0.0
C109 C 0.38776 0.3672 0.60086 0.0
O110 O 0.40306 0.40753 0.68347 0.0
O111 O 0.4345 0.44184 0.67574 0.0
C112 C 0.49406 0.37394 0.72725 0.0
O113 O 0.44655 0.33736 0.70503 0.0
O114 O 0.44858 0.30935 0.6402 0.0
O115 O 0.40663 0.35492 0.57538 0.0
O116 O 0.39449 0.37742 0.64258 0.0
O117 O 0.49459 0.40059 0.71882 0.0
O118 O 0.4704 0.36017 0.71983 0.0
O119 O 0.43916 0.35888 0.7399 0.0
O120 O 0.42898 0.39827 0.78037 0.0
C121 C 0.42842 0.37117 0.7776 0.0
O122 O 0.46928 0.4002 0.62483 0.0
O123 O 0.47892 0.3658 0.57291 0.0
C124 C 0.40852 0.43423 0.67879 0.0
C125 C 0.48317 0.39103 0.58811 0.0
Zn126 Zn 0.83266 0.18245 0.58965 0.0
Zn127 Zn 0.8339 0.15509 0.43179 0.0
Zn128 Zn 0.8387 0.17246 0.50807 0.0
C129 C 0.88093 0.19474 0.43791 0.0
C130 C 0.85555 0.11326 0.46828 0.0
O131 O 0.7938 0.16154 0.51615 0.0
O132 O 0.79201 0.17186 0.59389 0.0
C133 C 0.84704 0.23471 0.54649 0.0
O134 O 0.86232 0.20502 0.4678 0.0
O135 O 0.87536 0.17089 0.41776 0.0
O136 O 0.82965 0.11456 0.45466 0.0
O137 O 0.866 0.13505 0.49093 0.0
O138 O 0.84192 0.22355 0.5872 0.0
O139 O 0.84753 0.21913 0.5078 0.0
O140 O 0.87174 0.14496 0.54392 0.0
O141 O 0.85982 0.15561 0.61902 0.0
C142 C 0.8748 0.14115 0.5899 0.0
O143 O 0.82926 0.20962 0.45839 0.0
O144 O 0.80055 0.18052 0.41811 0.0
C145 C 0.7797 0.16322 0.55569 0.0
C146 C 0.80831 0.20578 0.4282 0.0
Zn147 Zn 0.05737 0.65215 0.13249 0.0
Zn148 Zn 0.0978 0.5689 0.31074 0.0
Zn149 Zn 0.06589 0.6205 0.20533 0.0
C150 C 0.12972 0.61842 0.27744 0.0
C151 C 0.04161 0.61478 0.30414 0.0
O152 O 0.05118 0.59235 0.14334 0.0
O153 O 0.04222 0.62346 0.08508 0.0
C154 C 0.11683 0.6519 0.15827 0.0
O155 O 0.10804 0.62442 0.24914 0.0
O156 O 0.13185 0.59439 0.29936 0.0
O157 O 0.06277 0.59756 0.30647 0.0
O158 O 0.03785 0.6293 0.26518 0.0
O159 O 0.09899 0.66257 0.12878 0.0
O160 O 0.10828 0.63559 0.19258 0.0
O161 O 0.03443 0.65243 0.23044 0.0
O162 O 0.03006 0.67851 0.16406 0.0
C163 C 0.02367 0.67395 0.20785 0.0
O164 O 0.05698 0.57653 0.1837 0.0
O165 O 0.07317 0.57817 0.25615 0.0
C166 C 0.04245 0.59787 0.09979 0.0
C167 C 0.06624 0.56306 0.2204 0.0
Zn168 Zn 0.8674 0.71813 0.64403 0.0
Zn169 Zn 0.83462 0.66816 0.4922 0.0
Zn170 Zn 0.85099 0.69364 0.56742 0.0
C171 C 0.88226 0.63919 0.51966 0.0
C172 C 0.84807 0.72496 0.46632 0.0
O173 O 0.81203 0.70042 0.61303 0.0
O174 O 0.82956 0.73098 0.66662 0.0
C175 C 0.88634 0.66132 0.65187 0.0
O176 O 0.87822 0.65531 0.55711 0.0
O177 O 0.86561 0.64085 0.48367 0.0
O178 O 0.83484 0.70325 0.4504 0.0
O179 O 0.85876 0.72496 0.5095 0.0
O180 O 0.88316 0.68355 0.67751 0.0
O181 O 0.87776 0.66145 0.60721 0.0
O182 O 0.87858 0.73136 0.54663 0.0
O183 O 0.89495 0.74632 0.61769 0.0
C184 C 0.89534 0.7477 0.57198 0.0
O185 O 0.80275 0.68849 0.56565 0.0
O186 O 0.79707 0.65362 0.51208 0.0
C187 C 0.80842 0.71719 0.64975 0.0
C188 C 0.78645 0.67044 0.54294 0.0
Zn189 Zn 0.08802 0.0762 0.72123 0.0
Zn190 Zn 0.07869 0.11957 0.89044 0.0
Zn191 Zn 0.08349 0.09506 0.8064 0.0
C192 C 0.07312 0.16465 0.82971 0.0
C193 C 0.13312 0.09258 0.88632 0.0
O194 O 0.1237 0.06703 0.7992 0.0
O195 O 0.12551 0.05826 0.72041 0.0
C196 C 0.03648 0.05514 0.75454 0.0
O197 O 0.07642 0.14317 0.80044 0.0
O198 O 0.07447 0.16075 0.87491 0.0
O199 O 0.11637 0.10616 0.91394 0.0
O200 O 0.12507 0.08568 0.84296 0.0
O201 O 0.05408 0.05094 0.72058 0.0
O202 O 0.0444 0.06974 0.79209 0.0
O203 O 0.08022 0.13084 0.75466 0.0
O204 O 0.08249 0.11073 0.68199 0.0
C205 C 0.07954 0.13272 0.70801 0.0
O206 O 0.04682 0.0743 0.84447 0.0
O207 O 0.04435 0.09899 0.91303 0.0
C208 C 0.13591 0.05492 0.76224 0.0
C209 C 0.03503 0.07924 0.88593 0.0
Zn210 Zn 0.69549 0.29974 0.01732 0.0
Zn211 Zn 0.63503 0.29885 0.14575 0.0
Zn212 Zn 0.6619 0.30989 0.07601 0.0
C213 C 0.59685 0.28736 0.07121 0.0
C214 C 0.64856 0.35901 0.14366 0.0
O215 O 0.68478 0.3487 0.05549 0.0
O216 O 0.72301 0.32205 0.05994 0.0
C217 C 0.66116 0.25495 0.01286 0.0
O218 O 0.61994 0.29307 0.04723 0.0
O219 O 0.59705 0.28849 0.11698 0.0
O220 O 0.63989 0.33895 0.17066 0.0
O221 O 0.65704 0.35354 0.1005 0.0
O222 O 0.68799 0.25664 0.01983 0.0
O223 O 0.64541 0.27623 0.02632 0.0
O224 O 0.6372 0.30633 0.00833 0.0
O225 O 0.67259 0.32188 0.9632 0.0
C226 C 0.64581 0.3184 0.9688 0.0
O227 O 0.69114 0.28447 0.12035 0.0
O228 O 0.66071 0.26943 0.17521 0.0
C229 C 0.71219 0.34675 0.05559 0.0
C230 C 0.68597 0.27003 0.15871 0.0
Zn231 Zn 0.43684 0.86286 0.38544 0.0
Zn232 Zn 0.44176 0.92679 0.23357 0.0
Zn233 Zn 0.43644 0.89641 0.31027 0.0
C234 C 0.42917 0.87276 0.20124 0.0
C235 C 0.49516 0.92761 0.26963 0.0
O236 O 0.4757 0.90606 0.35225 0.0
O237 O 0.47392 0.87562 0.41339 0.0
C238 C 0.39031 0.90138 0.39649 0.0
O239 O 0.4296 0.86895 0.24751 0.0
O240 O 0.4344 0.89705 0.18349 0.0
O241 O 0.4811 0.94076 0.23755 0.0
O242 O 0.48171 0.91216 0.30109 0.0
O243 O 0.40263 0.88023 0.41595 0.0
O244 O 0.39941 0.91126 0.35559 0.0
O245 O 0.43342 0.8505 0.28743 0.0
O246 O 0.43389 0.82462 0.35446 0.0
C247 C 0.43314 0.82597 0.30877 0.0
O248 O 0.40039 0.92811 0.31212 0.0
O249 O 0.41069 0.95295 0.24605 0.0
C250 C 0.48604 0.89636 0.39245 0.0
C251 C 0.39479 0.94851 0.2821 0.0
Zn252 Zn 0.1447 0.3492 0.5376 0.0
Zn253 Zn 0.11955 0.31044 0.34327 0.0
Zn254 Zn 0.12879 0.32881 0.42706 0.0
C255 C 0.07543 0.28832 0.39771 0.0
C256 C 0.11595 0.36826 0.33375 0.0
O257 O 0.17528 0.3238 0.45155 0.0
O258 O 0.17887 0.325 0.53262 0.0
C259 C 0.09668 0.30784 0.52477 0.0
O260 O 0.09199 0.29823 0.43147 0.0
O261 O 0.08172 0.29249 0.35379 0.0
O262 O 0.12109 0.34711 0.30651 0.0
O263 O 0.11576 0.3651 0.38018 0.0
O264 O 0.10927 0.32581 0.5521 0.0
O265 O 0.10226 0.30613 0.47903 0.0
O266 O 0.11596 0.37295 0.42851 0.0
O267 O 0.14712 0.3787 0.48432 0.0
C268 C 0.12242 0.3846 0.46891 0.0
O269 O 0.16953 0.31002 0.40433 0.0
O270 O 0.15278 0.28463 0.3427 0.0
C271 C 0.19012 0.3213 0.49134 0.0
C272 C 0.17293 0.29069 0.37162 0.0
Zn273 Zn 0.89971 0.93402 0.29383 0.0
Zn274 Zn 0.94121 0.89759 0.13248 0.0
Zn275 Zn 0.91801 0.91781 0.21106 0.0
C276 C 0.96809 0.86756 0.20038 0.0
C277 C 0.88121 0.88555 0.13405 0.0
O278 O 0.92297 0.96531 0.2122 0.0
O279 O 0.90418 0.97472 0.28415 0.0
C280 C 0.9484 0.90316 0.31223 0.0
O281 O 0.95147 0.88474 0.22379 0.0
O282 O 0.96974 0.86922 0.1548 0.0
O283 O 0.90363 0.88321 0.10885 0.0
O284 O 0.88186 0.89721 0.17628 0.0
O285 O 0.9291 0.91564 0.33622 0.0
O286 O 0.94698 0.90197 0.26567 0.0
O287 O 0.87574 0.89745 0.22789 0.0
O288 O 0.86133 0.91751 0.29601 0.0
C289 C 0.8582 0.89838 0.26404 0.0
O290 O 0.92889 0.95507 0.1636 0.0
O291 O 0.95284 0.93408 0.10387 0.0
C292 C 0.91603 0.9832 0.24578 0.0
C293 C 0.94276 0.9564 0.1232 0.0
Zn294 Zn 0.35898 0.64211 0.01105 0.0
Zn295 Zn 0.36617 0.67458 0.84805 0.0
Zn296 Zn 0.36139 0.6582 0.92771 0.0
C297 C 0.40707 0.70491 0.88593 0.0
C298 C 0.36943 0.61488 0.84585 0.0
O299 O 0.31465 0.65675 0.94816 0.0
O300 O 0.31901 0.63332 0.01713 0.0
C301 C 0.38345 0.69599 0.01511 0.0
O302 O 0.39183 0.69578 0.92181 0.0
O303 O 0.40258 0.69511 0.84391 0.0
O304 O 0.36219 0.63574 0.81951 0.0
O305 O 0.37599 0.61943 0.8906 0.0
O306 O 0.37314 0.67736 0.04316 0.0
O307 O 0.38235 0.69224 0.96889 0.0
O308 O 0.38934 0.61878 0.93746 0.0
O309 O 0.38454 0.60991 0.01566 0.0
C310 C 0.39674 0.60472 0.97599 0.0
O311 O 0.31732 0.66645 0.89719 0.0
O312 O 0.33182 0.69869 0.84451 0.0
C313 C 0.30324 0.64415 0.98494 0.0
C314 C 0.31155 0.686 0.8656 0.0
Zn315 Zn 0.56579 0.07207 0.7982 0.0
Zn316 Zn 0.51979 0.10147 0.62858 0.0
Zn317 Zn 0.54499 0.08592 0.71275 0.0
C318 C 0.4856 0.12197 0.7026 0.0
C319 C 0.57562 0.1265 0.63682 0.0
O320 O 0.55142 0.03939 0.7105 0.0
O321 O 0.56709 0.03112 0.78517 0.0
C322 C 0.51163 0.09156 0.8156 0.0
O323 O 0.5047 0.1081 0.72663 0.0
O324 O 0.48633 0.12224 0.65676 0.0
O325 O 0.55475 0.12316 0.60791 0.0
O326 O 0.57501 0.11562 0.67967 0.0
O327 O 0.53357 0.08505 0.84013 0.0
O328 O 0.51281 0.09278 0.76896 0.0
O329 O 0.58232 0.11349 0.73078 0.0
O330 O 0.60128 0.09486 0.79718 0.0
C331 C 0.60125 0.11402 0.76505 0.0
O332 O 0.54386 0.04845 0.66322 0.0
O333 O 0.51727 0.06248 0.60068 0.0
C334 C 0.55939 0.02205 0.74401 0.0
C335 C 0.5319 0.04346 0.62179 0.0
H336 H 0.43917 0.19443 1.00307 0.0
H337 H 0.43317 0.25027 0.12749 0.0
H338 H 0.48407 0.21841 0.97899 0.0
H339 H 0.47716 0.27426 0.10381 0.0
H340 H 0.55051 0.32071 0.0587 0.0
H341 H 0.50156 0.30415 0.04371 0.0
H342 H 0.53327 0.21848 0.01907 0.0
H343 H 0.58244 0.23556 0.03254 0.0
C344 C 0.4471 0.21234 0.02435 0.0
C345 C 0.43299 0.22067 0.06705 0.0
C346 C 0.47272 0.22595 0.01077 0.0
C347 C 0.48414 0.24832 0.03936 0.0
C348 C 0.46881 0.2575 0.08042 0.0
C349 C 0.44371 0.24367 0.0943 0.0
C350 C 0.54702 0.29864 0.04793 0.0
C351 C 0.56996 0.27932 0.04684 0.0
C352 C 0.51905 0.2891 0.03962 0.0
C353 C 0.51348 0.25988 0.03133 0.0
C354 C 0.53684 0.24112 0.02524 0.0
C355 C 0.56496 0.25082 0.03303 0.0
H356 H 0.45922 0.65691 0.34069 0.0
H357 H 0.51892 0.67139 0.22428 0.0
H358 H 0.43442 0.70042 0.32077 0.0
H359 H 0.49311 0.715 0.20199 0.0
H360 H 0.47862 0.80988 0.25464 0.0
H361 H 0.49164 0.76082 0.23465 0.0
H362 H 0.40735 0.73245 0.27914 0.0
H363 H 0.39572 0.78138 0.30321 0.0
C364 C 0.46648 0.66898 0.30951 0.0
C365 C 0.49151 0.661 0.2848 0.0
C366 C 0.45197 0.69407 0.29756 0.0
C367 C 0.46189 0.71199 0.26014 0.0
C368 C 0.48518 0.70231 0.2319 0.0
C369 C 0.49986 0.67706 0.24421 0.0
C370 C 0.46267 0.79316 0.2587 0.0
C371 C 0.43643 0.79912 0.28121 0.0
C372 C 0.47003 0.76489 0.24704 0.0
C373 C 0.451 0.74215 0.25697 0.0
C374 C 0.42315 0.74905 0.27306 0.0
C375 C 0.41622 0.77713 0.28629 0.0
H376 H 0.04465 0.83296 0.63716 0.0
H377 H 0.07281 0.78966 0.50749 0.0
H378 H 0.99533 0.82153 0.61761 0.0
H379 H 0.02282 0.77963 0.48554 0.0
H380 H 0.93816 0.72754 0.51504 0.0
H381 H 0.98573 0.74885 0.50819 0.0
H382 H 0.95389 0.8268 0.57365 0.0
H383 H 0.90705 0.80436 0.58358 0.0
C384 C 0.04017 0.82167 0.60355 0.0
C385 C 0.06272 0.81251 0.57371 0.0
C386 C 0.01165 0.81533 0.59185 0.0
C387 C 0.00458 0.79962 0.54966 0.0
C388 C 0.02718 0.79147 0.5186 0.0
C389 C 0.05591 0.7976 0.53074 0.0
C390 C 0.94112 0.74965 0.52608 0.0
C391 C 0.91892 0.76431 0.54982 0.0
C392 C 0.96856 0.76194 0.52243 0.0
C393 C 0.97425 0.78939 0.54183 0.0
C394 C 0.95087 0.80523 0.56003 0.0
C395 C 0.92374 0.79264 0.56486 0.0
H396 H 0.025 0.34666 0.79064 0.0
H397 H 0.95289 0.29463 0.83299 0.0
H398 H 0.05361 0.30282 0.77754 0.0
H399 H 0.98075 0.25138 0.81879 0.0
H400 H 0.09328 0.21714 0.85711 0.0
H401 H 0.07056 0.26367 0.84262 0.0
H402 H 0.00708 0.22269 0.75157 0.0
H403 H 0.03002 0.17624 0.76572 0.0
C404 C 0.0151 0.32592 0.7959 0.0
C405 C 0.98679 0.32399 0.813 0.0
C406 C 0.03144 0.30088 0.78864 0.0
C407 C 0.0194 0.2736 0.79702 0.0
C408 C 0.9906 0.27194 0.81144 0.0
C409 C 0.97466 0.29675 0.81981 0.0
C410 C 0.07504 0.21828 0.83269 0.0
C411 C 0.06358 0.19312 0.81217 0.0
C412 C 0.0621 0.24493 0.82423 0.0
C413 C 0.03697 0.24688 0.79606 0.0
C414 C 0.02641 0.22188 0.77346 0.0
C415 C 0.03961 0.19531 0.78135 0.0
H416 H 0.56255 0.80047 0.9642 0.0
H417 H 0.56537 0.78255 0.81084 0.0
H418 H 0.51354 0.78197 0.96808 0.0
H419 H 0.51648 0.76342 0.81423 0.0
H420 H 0.42317 0.74648 0.8237 0.0
H421 H 0.46716 0.77461 0.82578 0.0
H422 H 0.48934 0.73672 0.9639 0.0
H423 H 0.44463 0.70928 0.9623 0.0
C424 C 0.55251 0.79239 0.93135 0.0
C425 C 0.56759 0.79226 0.88745 0.0
C426 C 0.52453 0.7818 0.93352 0.0
C427 C 0.51106 0.77096 0.89161 0.0
C428 C 0.52601 0.77189 0.84717 0.0
C429 C 0.55402 0.78265 0.84508 0.0
C430 C 0.43722 0.74465 0.85497 0.0
C431 C 0.43067 0.7256 0.8927 0.0
C432 C 0.46254 0.76056 0.85596 0.0
C433 C 0.48216 0.75747 0.89439 0.0
C434 C 0.47469 0.73974 0.93376 0.0
C435 C 0.44907 0.72402 0.93299 0.0
H436 H 0.49436 0.28406 0.72046 0.0
H437 H 0.40198 0.28233 0.71548 0.0
H438 H 0.49476 0.23525 0.75139 0.0
H439 H 0.40207 0.23339 0.74699 0.0
H440 H 0.43469 0.14507 0.67328 0.0
H441 H 0.4184 0.19282 0.69505 0.0
H442 H 0.48173 0.19668 0.8097 0.0
H443 H 0.49859 0.14953 0.787 0.0
C444 C 0.47415 0.27358 0.72826 0.0
C445 C 0.44818 0.28666 0.71609 0.0
C446 C 0.47426 0.2457 0.74624 0.0
C447 C 0.44836 0.23041 0.75139 0.0
C448 C 0.42227 0.24463 0.74326 0.0
C449 C 0.42222 0.27257 0.72541 0.0
C450 C 0.44416 0.15554 0.70463 0.0
C451 C 0.46815 0.14367 0.72786 0.0
C452 C 0.43474 0.18289 0.71739 0.0
C453 C 0.44938 0.19875 0.75329 0.0
C454 C 0.47036 0.18506 0.78145 0.0
C455 C 0.47979 0.15776 0.76867 0.0
H456 H 0.9291 0.17161 0.39872 0.0
H457 H 0.89667 0.24965 0.4623 0.0
H458 H 0.97664 0.19254 0.39424 0.0
H459 H 0.94418 0.27139 0.45556 0.0
H460 H 0.03819 0.2958 0.47423 0.0
H461 H 0.9917 0.27242 0.48588 0.0
H462 H 0.00383 0.22536 0.35208 0.0
H463 H 0.05069 0.24702 0.34284 0.0
C464 C 0.932 0.19353 0.4108 0.0
C465 C 0.90899 0.20904 0.43044 0.0
C466 C 0.95938 0.20562 0.4082 0.0
C467 C 0.96451 0.23383 0.42435 0.0
C468 C 0.94131 0.24949 0.44349 0.0
C469 C 0.91393 0.23717 0.44679 0.0
C470 C 0.03127 0.27968 0.44842 0.0
C471 C 0.04843 0.27274 0.4083 0.0
C472 C 0.00431 0.2667 0.45442 0.0
C473 C 0.99374 0.24688 0.41991 0.0
C474 C 0.01121 0.23996 0.38006 0.0
C475 C 0.03813 0.2526 0.37448 0.0
H476 H 0.97419 0.69916 0.18021 0.0
H477 H 0.04093 0.7022 0.28897 0.0
H478 H 0.96137 0.74864 0.19901 0.0
H479 H 0.02869 0.75232 0.30654 0.0
H480 H 0.01641 0.83795 0.17666 0.0
H481 H 0.02747 0.78877 0.20063 0.0
H482 H 0.95615 0.78928 0.29968 0.0
H483 H 0.94539 0.83875 0.27687 0.0
C484 C 0.98502 0.70993 0.21001 0.0
C485 C 0.00839 0.69693 0.23339 0.0
C486 C 0.97784 0.73825 0.2205 0.0
C487 C 0.99421 0.75407 0.25397 0.0
C488 C 0.0157 0.74031 0.28092 0.0
C489 C 0.02248 0.71163 0.27117 0.0
C490 C 0.0039 0.82803 0.20511 0.0
C491 C 0.98006 0.84213 0.22481 0.0
C492 C 0.01025 0.79999 0.21887 0.0
C493 C 0.99263 0.78553 0.25198 0.0
C494 C 0.97018 0.80026 0.27458 0.0
C495 C 0.96414 0.82855 0.26152 0.0
H496 H 0.18032 0.11251 0.83994 0.0
H497 H 0.15268 0.07231 0.97237 0.0
H498 H 0.22205 0.13232 0.88256 0.0
H499 H 0.19443 0.09176 0.01492 0.0
H500 H 0.27878 0.13264 0.07479 0.0
H501 H 0.24882 0.09997 0.02615 0.0
H502 H 0.21573 0.17196 0.94581 0.0
H503 H 0.24463 0.20443 0.99495 0.0
C504 C 0.18409 0.10642 0.87735 0.0
C505 C 0.16324 0.09092 0.90285 0.0
C506 C 0.20771 0.1182 0.90205 0.0
C507 C 0.21109 0.11423 0.95244 0.0
C508 C 0.19242 0.09533 0.97623 0.0
C509 C 0.16861 0.08393 0.9517 0.0
C510 C 0.26493 0.14147 0.04698 0.0
C511 C 0.26438 0.1712 0.03837 0.0
C512 C 0.248 0.12273 0.01885 0.0
C513 C 0.23049 0.13329 0.98121 0.0
C514 C 0.22966 0.163 0.97339 0.0
C515 C 0.24611 0.18165 1.00184 0.0
H516 H 0.62532 0.40726 0.10342 0.0
H517 H 0.66835 0.37544 0.23117 0.0
H518 H 0.61421 0.45199 0.14688 0.0
H519 H 0.65772 0.41992 0.27417 0.0
H520 H 0.655 0.51796 0.31173 0.0
H521 H 0.66856 0.47353 0.27072 0.0
H522 H 0.58125 0.46235 0.2215 0.0
H523 H 0.56753 0.50658 0.26308 0.0
C524 C 0.63316 0.41025 0.14016 0.0
C525 C 0.64786 0.38817 0.16394 0.0
C526 C 0.62645 0.43554 0.16525 0.0
C527 C 0.63482 0.43919 0.21409 0.0
C528 C 0.65102 0.41771 0.23665 0.0
C529 C 0.65722 0.39236 0.21197 0.0
C530 C 0.63855 0.50559 0.2933 0.0
C531 C 0.61019 0.51568 0.29083 0.0
C532 C 0.64636 0.48032 0.2695 0.0
C533 C 0.62608 0.4649 0.24208 0.0
C534 C 0.59742 0.47417 0.24162 0.0
C535 C 0.58948 0.49919 0.26617 0.0
H536 H 0.33782 0.91521 0.35754 0.0
H537 H 0.38458 0.9112 0.4926 0.0
H538 H 0.29279 0.91799 0.4025 0.0
H539 H 0.33996 0.91509 0.53779 0.0
H540 H 0.21326 0.91762 0.48349 0.0
H541 H 0.25861 0.93823 0.45677 0.0
H542 H 0.304 0.88061 0.55239 0.0
H543 H 0.25857 0.86088 0.57973 0.0
C544 C 0.33853 0.91625 0.39682 0.0
C545 C 0.36462 0.91269 0.42154 0.0
C546 C 0.31269 0.9178 0.42285 0.0
C547 C 0.31253 0.91612 0.47411 0.0
C548 C 0.33905 0.91566 0.49852 0.0
C549 C 0.36469 0.91374 0.47258 0.0
C550 C 0.23291 0.91068 0.50096 0.0
C551 C 0.23238 0.8877 0.53384 0.0
C552 C 0.259 0.92203 0.48479 0.0
C553 C 0.28518 0.91054 0.50104 0.0
C554 C 0.28442 0.89016 0.53882 0.0
C555 C 0.25825 0.87897 0.5552 0.0
H556 H 0.89712 0.65221 0.74826 0.0
H557 H 0.90441 0.61135 0.60809 0.0
H558 H 0.9171 0.60965 0.78691 0.0
H559 H 0.92506 0.56923 0.64662 0.0
H560 H 0.98133 0.50638 0.71769 0.0
H561 H 0.97022 0.55546 0.69441 0.0
H562 H 0.90083 0.55687 0.79756 0.0
H563 H 0.912 0.50744 0.82078 0.0
C564 C 0.90327 0.63434 0.72546 0.0
C565 C 0.89934 0.63545 0.67467 0.0
C566 C 0.91467 0.60993 0.7478 0.0
C567 C 0.92297 0.58622 0.71987 0.0
C568 C 0.91934 0.58739 0.66913 0.0
C569 C 0.90742 0.61156 0.6469 0.0
C570 C 0.96459 0.51765 0.73712 0.0
C571 C 0.94745 0.50306 0.7709 0.0
C572 C 0.95794 0.5456 0.72319 0.0
C573 C 0.93413 0.55968 0.74308 0.0
C574 C 0.91922 0.54646 0.78137 0.0
C575 C 0.92584 0.51828 0.79521 0.0
H576 H 0.76529 0.7838 0.96758 0.0
H577 H 0.72464 0.86671 0.96748 0.0
H578 H 0.80799 0.80469 1.00487 0.0
H579 H 0.7661 0.8873 0.00787 0.0
H580 H 0.85065 0.9178 0.07306 0.0
H581 H 0.8136 0.90114 0.01704 0.0
H582 H 0.8153 0.81799 0.08618 0.0
H583 H 0.85366 0.83456 0.13989 0.0
C584 C 0.76605 0.80672 0.97375 0.0
C585 C 0.74178 0.82365 0.96519 0.0
C586 C 0.79013 0.81859 0.99625 0.0
C587 C 0.7899 0.84737 0.01152 0.0
C588 C 0.76702 0.86502 0.99703 0.0
C589 C 0.74328 0.85328 0.97332 0.0
C590 C 0.84244 0.89619 0.07674 0.0
C591 C 0.85424 0.87753 0.11108 0.0
C592 C 0.82142 0.88655 0.04452 0.0
C593 C 0.81181 0.85804 0.04634 0.0
C594 C 0.82281 0.83983 0.08267 0.0
C595 C 0.84416 0.84943 0.1144 0.0
H596 H 0.34267 0.59942 0.76263 0.0
H597 H 0.3932 0.56454 0.88028 0.0
H598 H 0.34249 0.55327 0.7224 0.0
H599 H 0.39333 0.51783 0.83889 0.0
H600 H 0.37768 0.43332 0.76207 0.0
H601 H 0.36254 0.47611 0.80684 0.0
H602 H 0.38241 0.52808 0.68197 0.0
H603 H 0.39786 0.48557 0.638 0.0
C604 C 0.35382 0.58186 0.78001 0.0
C605 C 0.36857 0.58584 0.82421 0.0
C606 C 0.35354 0.55535 0.7569 0.0
C607 C 0.36808 0.53202 0.77717 0.0
C608 C 0.38173 0.53545 0.82259 0.0
C609 C 0.38191 0.56219 0.84606 0.0
C610 C 0.37739 0.45374 0.7435 0.0
C611 C 0.38858 0.45621 0.69637 0.0
C612 C 0.36929 0.47826 0.76945 0.0
C613 C 0.37169 0.50545 0.74816 0.0
C614 C 0.38017 0.50743 0.69934 0.0
C615 C 0.38873 0.48307 0.67385 0.0
H616 H 0.61456 0.15983 0.68499 0.0
H617 H 0.59715 0.12053 0.54609 0.0
H618 H 0.66332 0.17081 0.65895 0.0
H619 H 0.64604 0.13104 0.52002 0.0
H620 H 0.737 0.17016 0.48709 0.0
H621 H 0.68502 0.16632 0.50186 0.0
H622 H 0.70241 0.13686 0.64758 0.0
H623 H 0.75336 0.14095 0.63317 0.0
C624 C 0.62118 0.15372 0.64888 0.0
C625 C 0.6025 0.1387 0.61814 0.0
C626 C 0.64898 0.16002 0.6338 0.0
C627 C 0.6587 0.15104 0.58786 0.0
C628 C 0.6392 0.13817 0.55558 0.0
C629 C 0.61124 0.13215 0.57057 0.0
C630 C 0.72949 0.16237 0.52179 0.0
C631 C 0.74905 0.15606 0.55913 0.0
C632 C 0.69988 0.16041 0.53042 0.0
C633 C 0.6897 0.15216 0.57642 0.0
C634 C 0.7095 0.1443 0.6124 0.0
C635 C 0.73873 0.14629 0.60391 0.0
H636 H 0.13828 0.39107 0.25148 0.0
H637 H 0.07761 0.40766 0.36618 0.0
H638 H 0.12558 0.43675 0.21338 0.0
H639 H 0.06428 0.45286 0.32717 0.0
H640 H 0.02954 0.51781 0.2163 0.0
H641 H 0.04129 0.46821 0.23887 0.0
H642 H 0.13087 0.49106 0.24875 0.0
H643 H 0.11901 0.5405 0.22759 0.0
C644 C 0.12214 0.40445 0.2683 0.0
C645 C 0.10901 0.39608 0.31181 0.0
C646 C 0.11484 0.43041 0.24646 0.0
C647 C 0.0937 0.44793 0.26707 0.0
C648 C 0.08036 0.43942 0.31032 0.0
C649 C 0.08821 0.41383 0.33286 0.0
C650 C 0.05177 0.51184 0.22171 0.0
C651 C 0.07347 0.53258 0.21985 0.0
C652 C 0.05844 0.48371 0.23502 0.0
C653 C 0.08693 0.47607 0.24569 0.0
C654 C 0.10881 0.49644 0.24033 0.0
C655 C 0.10207 0.52458 0.22806 0.0
H656 H 0.64748 0.65273 0.36216 0.0
H657 H 0.60425 0.63557 0.49743 0.0
H658 H 0.69036 0.6678 0.40773 0.0
H659 H 0.6472 0.6498 0.5424 0.0
H660 H 0.74881 0.6297 0.57174 0.0
H661 H 0.69966 0.62468 0.54121 0.0
H662 H 0.70528 0.70839 0.47623 0.0
H663 H 0.75414 0.7138 0.50849 0.0
C664 C 0.64704 0.65238 0.40146 0.0
C665 C 0.62245 0.64298 0.42609 0.0
C666 C 0.67147 0.66117 0.42752 0.0
C667 C 0.67196 0.66008 0.47859 0.0
C668 C 0.64732 0.65097 0.50313 0.0
C669 C 0.62276 0.64286 0.47724 0.0
C670 C 0.73891 0.64765 0.55337 0.0
C671 C 0.75496 0.67237 0.54335 0.0
C672 C 0.71095 0.64465 0.53535 0.0
C673 C 0.6989 0.66599 0.50578 0.0
C674 C 0.71418 0.69159 0.4987 0.0
C675 C 0.74189 0.69488 0.51788 0.0
H676 H 0.18424 0.04773 0.70894 0.0
H677 H 0.13339 0.0079 0.82014 0.0
H678 H 0.20402 0.00127 0.68642 0.0
H679 H 0.15221 0.96128 0.79692 0.0
H680 H 0.18278 0.91532 0.60473 0.0
H681 H 0.18391 0.96302 0.64128 0.0
H682 H 0.1863 0.92512 0.78416 0.0
H683 H 0.18412 0.87769 0.74742 0.0
C684 C 0.17837 0.02917 0.73023 0.0
C685 C 0.15731 0.03158 0.76652 0.0
C686 C 0.18921 0.00234 0.71654 0.0
C687 C 0.17913 0.97713 0.73856 0.0
C688 C 0.16066 0.98001 0.77885 0.0
C689 C 0.15002 0.00694 0.79281 0.0
C690 C 0.18452 0.91721 0.64383 0.0
C691 C 0.18307 0.8927 0.67309 0.0
C692 C 0.18512 0.94466 0.66506 0.0
C693 C 0.18459 0.94823 0.71607 0.0
C694 C 0.1859 0.92348 0.74495 0.0
C695 C 0.18497 0.89618 0.7238 0.0
H696 H 0.76595 0.36236 0.08092 0.0
H697 H 0.70059 0.3762 0.9723 0.0
H698 H 0.80269 0.37634 0.02287 0.0
H699 H 0.73768 0.38996 0.91374 0.0
H700 H 0.83764 0.42611 0.85745 0.0
H701 H 0.79242 0.42666 0.90369 0.0
H702 H 0.80508 0.3379 0.94062 0.0
H703 H 0.84986 0.33741 0.8952 0.0
C704 C 0.75931 0.36999 0.04551 0.0
C705 C 0.73045 0.36811 0.03117 0.0
C706 C 0.78035 0.37763 0.01208 0.0
C707 C 0.77296 0.38361 0.9637 0.0
C708 C 0.74385 0.3854 0.95086 0.0
C709 C 0.72263 0.37783 0.9846 0.0
C710 C 0.82992 0.40642 0.87351 0.0
C711 C 0.84708 0.38165 0.87275 0.0
C712 C 0.80429 0.40684 0.90033 0.0
C713 C 0.79575 0.38248 0.92639 0.0
C714 C 0.81147 0.35704 0.92131 0.0
C715 C 0.8369 0.35666 0.8949 0.0
H716 H 0.34423 0.94488 0.23448 0.0
H717 H 0.3925 -0.00234 0.33381 0.0
H718 H 0.32927 0.9874 0.18976 0.0
H719 H 0.37737 0.0402 0.2897 0.0
H720 H 0.40705 0.08221 0.14961 0.0
H721 H 0.40183 0.03979 0.20002 0.0
H722 H 0.30978 0.04473 0.18577 0.0
H723 H 0.31511 0.08775 0.13485 0.0
C724 C 0.34972 0.96573 0.24921 0.0
C725 C 0.37033 0.96798 0.28655 0.0
C726 C 0.34156 0.99007 0.22293 0.0
C727 C 0.35324 0.01682 0.23514 0.0
C728 C 0.36868 0.0196 0.27889 0.0
C729 C 0.37681 0.99526 0.30494 0.0
C730 C 0.38576 0.07355 0.15548 0.0
C731 C 0.36154 0.08804 0.13805 0.0
C732 C 0.38271 0.04968 0.18519 0.0
C733 C 0.35536 0.03977 0.19824 0.0
C734 C 0.33107 0.05235 0.17684 0.0
C735 C 0.33415 0.07653 0.14698 0.0
H736 H 0.22505 0.28971 0.54864 0.0
H737 H 0.22571 0.35498 0.43833 0.0
H738 H 0.27325 0.30374 0.57399 0.0
H739 H 0.27382 0.36956 0.46418 0.0
H740 H 0.37054 0.37147 0.5074 0.0
H741 H 0.32421 0.35766 0.47352 0.0
H742 H 0.29139 0.34562 0.61848 0.0
H743 H 0.3382 0.35918 0.65237 0.0
C744 C 0.23604 0.30632 0.52853 0.0
C745 C 0.22174 0.32113 0.49131 0.0
C746 C 0.26335 0.31485 0.54381 0.0
C747 C 0.27698 0.33845 0.52229 0.0
C748 C 0.26385 0.35142 0.4818 0.0
C749 C 0.23647 0.34277 0.46637 0.0
C750 C 0.35319 0.36651 0.53206 0.0
C751 C 0.35795 0.36633 0.58252 0.0
C752 C 0.32665 0.35852 0.5126 0.0
C753 C 0.30426 0.34988 0.54315 0.0
C754 C 0.30846 0.35148 0.59387 0.0
C755 C 0.33505 0.35976 0.6134 0.0
H756 H 0.91161 0.12214 0.4411 0.0
H757 H 0.8414 0.06203 0.42882 0.0
H758 H 0.93476 0.09967 0.37063 0.0
H759 H 0.8643 0.04 0.35898 0.0
H760 H 0.88178 0.02567 0.21321 0.0
H761 H 0.87247 0.06356 0.27189 0.0
H762 H 0.954 0.04709 0.34066 0.0
H763 H 0.96336 0.00946 0.28123 0.0
C764 C 0.9016 0.10357 0.42451 0.0
C765 C 0.87445 0.09405 0.44011 0.0
C766 C 0.91464 0.09108 0.38374 0.0
C767 C 0.90059 0.06907 0.35816 0.0
C768 C 0.87501 0.05775 0.37691 0.0
C769 C 0.86218 0.06998 0.41751 0.0
C770 C 0.89876 0.0317 0.23823 0.0
C771 C 0.92263 0.01384 0.24424 0.0
C772 C 0.89312 0.05296 0.27268 0.0
C773 C 0.91191 0.05708 0.31219 0.0
C774 C 0.9389 0.04389 0.31116 0.0
C775 C 0.94448 0.02268 0.27639 0.0
H776 H 0.14612 0.60474 0.13683 0.0
H777 H 0.15256 0.69671 0.1378 0.0
H778 H 0.18664 0.60162 0.08348 0.0
H779 H 0.19612 0.694 0.08907 0.0
H780 H 0.26239 0.68634 0.97279 0.0
H781 H 0.21652 0.68801 0.01573 0.0
H782 H 0.23212 0.60209 0.0689 0.0
H783 H 0.27503 0.59976 0.02214 0.0
C784 C 0.15747 0.62428 0.1278 0.0
C785 C 0.14671 0.65089 0.14222 0.0
C786 C 0.18091 0.62263 0.09675 0.0
C787 C 0.19526 0.64758 0.08109 0.0
C788 C 0.18545 0.67425 0.09864 0.0
C789 C 0.16098 0.6759 0.1279 0.0
C790 C 0.25493 0.66745 0.99169 0.0
C791 C 0.2722 0.64296 0.99432 0.0
C792 C 0.22905 0.66859 0.01768 0.0
C793 C 0.22046 0.6455 0.04754 0.0
C794 C 0.23705 0.62036 0.04647 0.0
C795 C 0.26206 0.61895 0.01946 0.0
H796 H 0.60291 0.99205 0.70631 0.0
H797 H 0.51969 0.98363 0.77185 0.0
H798 H 0.6181 0.94806 0.74406 0.0
H799 H 0.53413 0.93843 0.80863 0.0
H800 H 0.58945 0.90478 0.93867 0.0
H801 H 0.56345 0.93299 0.8779 0.0
H802 H 0.62045 0.90136 0.76642 0.0
H803 H 0.64776 0.87641 0.82688 0.0
C804 C 0.58716 0.97952 0.72586 0.0
C805 C 0.5604 0.99119 0.73686 0.0
C806 C 0.59591 0.95429 0.74829 0.0
C807 C 0.57767 0.94019 0.78131 0.0
C808 C 0.54906 0.94934 0.785 0.0
C809 C 0.54049 0.9748 0.76286 0.0
C810 C 0.59641 0.90426 0.9012 0.0
C811 C 0.62108 0.88909 0.88805 0.0
C812 C 0.58125 0.91989 0.86608 0.0
C813 C 0.59002 0.91973 0.81699 0.0
C814 C 0.61351 0.90281 0.80381 0.0
C815 C 0.62921 0.88838 0.83886 0.0
H816 H 0.37638 0.14642 0.01172 0.0
H817 H 0.34125 0.15347 0.86698 0.0
H818 H 0.41912 0.12391 0.97921 0.0
H819 H 0.38481 0.13317 0.83393 0.0
H820 H 0.45781 0.0789 0.7855 0.0
H821 H 0.41287 0.09282 0.82344 0.0
H822 H 0.46041 0.1365 0.93699 0.0
H823 H 0.50522 0.12077 0.90035 0.0
C824 C 0.37755 0.1427 0.97307 0.0
C825 C 0.35522 0.15129 0.9421 0.0
C826 C 0.40234 0.1303 0.95423 0.0
C827 C 0.40559 0.12679 0.90383 0.0
C828 C 0.38294 0.13493 0.87298 0.0
C829 C 0.35796 0.1468 0.89193 0.0
C830 C 0.45848 0.09119 0.81892 0.0
C831 C 0.48476 0.09881 0.84018 0.0
C832 C 0.43279 0.09938 0.84049 0.0
C833 C 0.4329 0.11599 0.88319 0.0
C834 C 0.45939 0.12325 0.90472 0.0
C835 C 0.4851 0.11442 0.88368 0.0
H836 H 0.56935 0.6982 0.21335 0.0
H837 H 0.58649 0.61408 0.15548 0.0
H838 H 0.56773 0.71725 0.13061 0.0
H839 H 0.58306 0.63235 0.07321 0.0
H840 H 0.64447 0.69461 0.98438 0.0
H841 H 0.61978 0.66138 0.03691 0.0
H842 H 0.54826 0.71989 0.0471 0.0
H843 H 0.57363 0.75324 0.9951 0.0
C844 C 0.57202 0.6838 0.18281 0.0
C845 C 0.5784 0.65495 0.19023 0.0
C846 C 0.57053 0.69443 0.13548 0.0
C847 C 0.57528 0.67619 0.09531 0.0
C848 C 0.57948 0.64689 0.10328 0.0
C849 C 0.58151 0.6365 0.15032 0.0
C850 C 0.62262 0.69937 0.99499 0.0
C851 C 0.61099 0.72648 0.98639 0.0
C852 C 0.6084 0.68041 0.02545 0.0
C853 C 0.58253 0.68865 0.04767 0.0
C854 C 0.56849 0.71338 0.03131 0.0
C855 C 0.58275 0.73226 1.00059 0.0
H856 H 0.94913 0.87998 0.40296 0.0
H857 H 0.00198 0.89608 0.27741 0.0
H858 H 0.98997 0.85703 0.4434 0.0
H859 H 0.04234 0.87312 0.31724 0.0
H860 H 0.10374 0.81179 0.38486 0.0
H861 H 0.05812 0.82537 0.34744 0.0
H862 H 0.03733 0.87584 0.47428 0.0
H863 H 0.08287 0.86229 0.51146 0.0
C864 C 0.96944 0.87854 0.38412 0.0
C865 C 0.97252 0.88952 0.3371 0.0
C866 C 0.99262 0.86537 0.40703 0.0
C867 C 0.01906 0.86313 0.3831 0.0
C868 C 0.02198 0.874 0.336 0.0
C869 C -0.00106 0.88723 0.31331 0.0
C870 C 0.08922 0.82558 0.40471 0.0
C871 C 0.09651 0.83599 0.45089 0.0
C872 C 0.06322 0.83324 0.3835 0.0
C873 C 0.04438 0.85161 0.40812 0.0
C874 C 0.05135 0.86131 0.45494 0.0
C875 C 0.07737 0.85369 0.47606 0.0
H876 H 0.89517 0.26368 0.56839 0.0
H877 H 0.80602 0.27431 0.53079 0.0
H878 H 0.89399 0.3085 0.61419 0.0
H879 H 0.80479 0.31945 0.57657 0.0
H880 H 0.86764 0.3466 0.75607 0.0
H881 H 0.85918 0.30935 0.69583 0.0
H882 H 0.83298 0.37284 0.59151 0.0
H883 H 0.84167 0.41055 0.65165 0.0
C884 C 0.87586 0.27657 0.56735 0.0
C885 C 0.85074 0.26575 0.54609 0.0
C886 C 0.87498 0.30185 0.59437 0.0
C887 C 0.84901 0.3167 0.60004 0.0
C888 C 0.82493 0.3081 0.57304 0.0
C889 C 0.8258 0.28262 0.54616 0.0
C890 C 0.85882 0.35271 0.72118 0.0
C891 C 0.85631 0.38168 0.7082 0.0
C892 C 0.85444 0.33136 0.68641 0.0
C893 C 0.84669 0.33855 0.63867 0.0
C894 C 0.83959 0.36695 0.62786 0.0
C895 C 0.84425 0.38843 0.66258 0.0
H896 H 0.64483 0.84193 0.14981 0.0
H897 H 0.58874 0.87644 0.03929 0.0
H898 H 0.6186 0.86813 0.21199 0.0
H899 H 0.56262 0.90288 0.10195 0.0
H900 H 0.5278 0.88102 0.29385 0.0
H901 H 0.56692 0.86284 0.24393 0.0
H902 H 0.56983 0.9429 0.16644 0.0
H903 H 0.53111 0.96134 0.2168 0.0
C904 C 0.62708 0.85533 0.1386 0.0
C905 C 0.61877 0.85689 0.08939 0.0
C906 C 0.61208 0.87032 0.17441 0.0
C907 C 0.58862 0.88757 0.16194 0.0
C908 C 0.5809 0.89002 0.1126 0.0
C909 C 0.59575 0.87478 0.0767 0.0
C910 C 0.53778 0.89536 0.26807 0.0
C911 C 0.52588 0.92246 0.25873 0.0
C912 C 0.56002 0.88478 0.23896 0.0
C913 C 0.57073 0.90115 0.20021 0.0
C914 C 0.56147 0.92956 0.19522 0.0
C915 C 0.53955 0.94024 0.22463 0.0
H916 H 0.39366 0.32658 0.76127 0.0
H917 H 0.43266 0.37542 0.87711 0.0
H918 H 0.37345 0.29335 0.81996 0.0
H919 H 0.41214 0.34198 0.93675 0.0
H920 H 0.40029 0.25262 0.01258 0.0
H921 H 0.41944 0.28849 0.95719 0.0
H922 H 0.33667 0.2941 0.88709 0.0
H923 H 0.31781 0.25793 0.94219 0.0
C924 C 0.39788 0.33009 0.79951 0.0
C925 C 0.41491 0.35322 0.81484 0.0
C926 C 0.38609 0.31128 0.83308 0.0
C927 C 0.39125 0.31507 0.88287 0.0
C928 C 0.408 0.33852 0.89847 0.0
C929 C 0.41953 0.3577 0.8646 0.0
C930 C 0.38644 0.26104 0.98483 0.0
C931 C 0.35787 0.2518 0.98108 0.0
C932 C 0.3972 0.28202 0.95369 0.0
C933 C 0.37953 0.29407 0.91784 0.0
C934 C 0.35084 0.285 0.91419 0.0
C935 C 0.34007 0.26426 0.94573 0.0
H936 H 0.99081 0.08138 0.79822 0.0
H937 H 0.01259 0.02521 0.67905 0.0
H938 H 0.94753 0.09565 0.75557 0.0
H939 H 0.96922 0.03981 0.63612 0.0
H940 H 0.92491 0.11807 0.55268 0.0
H941 H 0.95913 0.08749 0.59666 0.0
H942 H 0.90127 0.08391 0.71852 0.0
H943 H 0.86777 0.11439 0.67555 0.0
C944 C 0.98577 0.07099 0.76403 0.0
C945 C 0.00565 0.0527 0.74163 0.0
C946 C 0.96098 0.07943 0.73918 0.0
C947 C 0.95546 0.06956 0.69166 0.0
C948 C 0.97334 0.04839 0.67205 0.0
C949 C 0.99797 0.03973 0.6971 0.0
C950 C 0.91942 0.11029 0.58847 0.0
C951 C 0.89404 0.11922 0.61108 0.0
C952 C 0.93887 0.09269 0.61362 0.0
C953 C 0.93303 0.08363 0.66147 0.0
C954 C 0.90668 0.09096 0.68227 0.0
C955 C 0.88751 0.1085 0.65749 0.0
H956 H 0.1476 0.73229 0.5115 0.0
H957 H 0.23343 0.73714 0.4543 0.0
H958 H 0.13537 0.69616 0.45046 0.0
H959 H 0.22138 0.70045 0.39389 0.0
H960 H 0.18372 0.61598 0.31636 0.0
H961 H 0.20281 0.64814 0.37902 0.0
H962 H 0.13125 0.70508 0.35671 0.0
H963 H 0.11238 0.6733 0.29368 0.0
C964 C 0.16435 0.72446 0.48779 0.0
C965 C 0.19155 0.73749 0.48798 0.0
C966 C 0.15714 0.70427 0.452 0.0
C967 C 0.17719 0.69615 0.41648 0.0
C968 C 0.2054 0.70651 0.42043 0.0
C969 C 0.21245 0.72716 0.45559 0.0
C970 C 0.1727 0.63596 0.32341 0.0
C971 C 0.14656 0.64207 0.29978 0.0
C972 C 0.18345 0.65417 0.35977 0.0
C973 C 0.16805 0.67863 0.3738 0.0
C974 C 0.14321 0.68597 0.34747 0.0
C975 C 0.13274 0.66806 0.31053 0.0
H976 H 0.93518 0.6564 0.54985 0.0
H977 H 0.89113 0.59056 0.46805 0.0
H978 H 0.97902 0.64678 0.50403 0.0
H979 H 0.93487 0.58123 0.42231 0.0
H980 H 0.98843 0.63918 0.30527 0.0
H981 H 0.95365 0.63785 0.37154 0.0
H982 H 0.01453 0.59319 0.46184 0.0
H983 H 0.04939 0.59397 0.39552 0.0
C984 C 0.93532 0.63873 0.52426 0.0
C985 C 0.90973 0.62451 0.51178 0.0
C986 C 0.96032 0.63344 0.49783 0.0
C987 C 0.95982 0.61372 0.45937 0.0
C988 C 0.93548 0.59666 0.45176 0.0
C989 C 0.91059 0.60188 0.47812 0.0
C990 C 0.99452 0.62931 0.33931 0.0
C991 C 0.02154 0.61661 0.34518 0.0
C992 C 0.97465 0.62844 0.37699 0.0
C993 C 0.98163 0.61522 0.42119 0.0
C994 C 0.00886 0.60336 0.42786 0.0
C995 C 0.02865 0.60388 0.38995 0.0
H996 H 0.10206 0.18484 0.73053 0.0
H997 H 0.04399 0.14179 0.63206 0.0
H998 H 0.09387 0.2299 0.68776 0.0
H999 H 0.03603 0.18673 0.58871 0.0
H1000 H 0.08652 0.25399 0.49065 0.0
H1001 H 0.07224 0.21301 0.53809 0.0
H1002 H 0.05726 0.26783 0.66192 0.0
H1003 H 0.07078 0.30953 0.61354 0.0
C1004 C 0.0871 0.18527 0.70035 0.0
C1005 C 0.07361 0.16013 0.68443 0.0
C1006 C 0.08223 0.21099 0.67612 0.0
C1007 C 0.06414 0.21175 0.63516 0.0
C1008 C 0.04999 0.18667 0.62024 0.0
C1009 C 0.05475 0.16103 0.64466 0.0
C1010 C 0.07875 0.2577 0.52708 0.0
C1011 C 0.07991 0.28504 0.54835 0.0
C1012 C 0.07065 0.23408 0.55444 0.0
C1013 C 0.0641 0.23728 0.60382 0.0
C1014 C 0.06258 0.26487 0.62398 0.0
C1015 C 0.07027 0.28865 0.59629 0.0
H1016 H 0.49455 0.32498 0.78184 0.0
H1017 H 0.54846 0.39469 0.73452 0.0
H1018 H 0.53294 0.30838 0.8354 0.0
H1019 H 0.58628 0.37889 0.7892 0.0
H1020 H 0.65675 0.33367 0.87418 0.0
H1021 H 0.62163 0.34297 0.80982 0.0
H1022 H 0.55283 0.32645 0.9106 0.0
H1023 H 0.58765 0.31723 0.97406 0.0
C1024 C 0.51481 0.33633 0.78198 0.0
C1025 C 0.51849 0.36104 0.75378 0.0
C1026 C 0.53669 0.3271 0.8132 0.0
C1027 C 0.56265 0.34247 0.817 0.0
C1028 C 0.56676 0.36636 0.78694 0.0
C1029 C 0.54496 0.37552 0.75575 0.0
C1030 C 0.63412 0.33196 0.88242 0.0
C1031 C 0.62502 0.32443 0.92924 0.0
C1032 C 0.61399 0.33728 0.84558 0.0
C1033 C 0.58435 0.33516 0.85483 0.0
C1034 C 0.57541 0.3276 0.9017 0.0
C1035 C 0.59545 0.32243 0.93833 0.0
H1036 H 0.38723 0.74917 0.97411 0.0
H1037 H 0.40776 0.70141 0.10379 0.0
H1038 H 0.4008 0.79369 0.0157 0.0
H1039 H 0.42157 0.74554 0.14477 0.0
H1040 H 0.39459 0.82773 0.21981 0.0
H1041 H 0.38788 0.78499 0.17049 0.0
H1042 H 0.44206 0.82091 0.05922 0.0
H1043 H 0.44935 0.86379 0.1096 0.0
C1044 C 0.39527 0.74815 0.011 0.0
C1045 C 0.39598 0.72206 0.03619 0.0
C1046 C 0.40304 0.77353 0.03467 0.0
C1047 C 0.41159 0.77291 0.08358 0.0
C1048 C 0.41436 0.74655 0.10735 0.0
C1049 C 0.4065 0.72136 0.08393 0.0
C1050 C 0.40537 0.82633 0.18515 0.0
C1051 C 0.42318 0.84847 0.16904 0.0
C1052 C 0.40147 0.80199 0.15688 0.0
C1053 C 0.41501 0.79953 0.11165 0.0
C1054 C 0.43162 0.82233 0.0942 0.0
C1055 C 0.43572 0.84674 0.12285 0.0
H1056 H 0.06468 0.37354 0.45815 0.0
H1057 H 0.12855 0.39886 0.56398 0.0
H1058 H 0.02983 0.36794 0.5224 0.0
H1059 H 0.09522 0.38978 0.62862 0.0
H1060 H 0.01948 0.40197 0.72978 0.0
H1061 H 0.05828 0.40268 0.67243 0.0
H1062 H 0.01294 0.34073 0.58291 0.0
H1063 H 0.97243 0.34327 0.63843 0.0
C1064 C 0.0713 0.37785 0.49519 0.0
C1065 C 0.09961 0.386 0.50602 0.0
C1066 C 0.05148 0.37391 0.53245 0.0
C1067 C 0.05962 0.37743 0.58152 0.0
C1068 C 0.08764 0.38699 0.59177 0.0
C1069 C 0.10701 0.39208 0.55447 0.0
C1070 C 0.01835 0.38778 0.69861 0.0
C1071 C 0.99309 0.37279 0.68801 0.0
C1072 C 0.04067 0.38818 0.66522 0.0
C1073 C 0.03859 0.37261 0.62141 0.0
C1074 C 0.0148 0.35431 0.61466 0.0
C1075 C 0.99187 0.35501 0.64708 0.0
H1076 H 0.86243 0.84393 0.22644 0.0
H1077 H 0.82138 0.89259 0.33998 0.0
H1078 H 0.85595 0.80041 0.27324 0.0
H1079 H 0.81757 0.85014 0.38872 0.0
H1080 H 0.81004 0.76803 0.47166 0.0
H1081 H 0.80345 0.80712 0.4146 0.0
H1082 H 0.87908 0.77933 0.33668 0.0
H1083 H 0.88384 0.73898 0.39222 0.0
C1084 C 0.85113 0.84528 0.26059 0.0
C1085 C 0.84303 0.87199 0.27972 0.0
C1086 C 0.8482 0.82034 0.28836 0.0
C1087 C 0.83757 0.82162 0.33622 0.0
C1088 C 0.82611 0.84782 0.35249 0.0
C1089 C 0.82825 0.87247 0.32419 0.0
C1090 C 0.82537 0.77068 0.44253 0.0
C1091 C 0.84778 0.75106 0.43671 0.0
C1092 C 0.82165 0.7931 0.40958 0.0
C1093 C 0.84061 0.79675 0.37028 0.0
C1094 C 0.86347 0.77712 0.36537 0.0
C1095 C 0.86673 0.7543 0.39783 0.0
H1096 H 0.44849 0.62694 0.95476 0.0
H1097 H 0.40743 0.55237 0.01477 0.0
H1098 H 0.48969 0.61941 0.00817 0.0
H1099 H 0.44893 0.54435 0.06731 0.0
H1100 H 0.53568 0.53996 0.15321 0.0
H1101 H 0.5053 0.53835 0.08009 0.0
H1102 H 0.48258 0.62692 0.1026 0.0
H1103 H 0.51207 0.62825 0.17597 0.0
C1104 C 0.44914 0.60771 0.97665 0.0
C1105 C 0.42467 0.59028 0.98063 0.0
C1106 C 0.4725 0.60377 0.0081 0.0
C1107 C 0.47214 0.58173 0.04275 0.0
C1108 C 0.44976 0.56158 0.04112 0.0
C1109 C 0.42615 0.56588 0.01037 0.0
C1110 C 0.52408 0.55902 0.14248 0.0
C1111 C 0.52598 0.58417 0.17058 0.0
C1112 C 0.50687 0.55811 0.1006 0.0
C1113 C 0.49196 0.58262 0.08522 0.0
C1114 C 0.49421 0.60783 0.11306 0.0
C1115 C 0.51076 0.6085 0.1555 0.0
H1116 H 0.61788 0.26296 0.94768 0.0
H1117 H 0.68119 0.20133 0.99318 0.0
H1118 H 0.6083 0.23533 0.87543 0.0
H1119 H 0.6692 0.17132 0.92396 0.0
H1120 H 0.65728 0.12395 0.7895 0.0
H1121 H 0.67298 0.16143 0.84523 0.0
H1122 H 0.58821 0.19925 0.83731 0.0
H1123 H 0.57439 0.16398 0.77782 0.0
C1124 C 0.62917 0.24295 0.94293 0.0
C1125 C 0.65045 0.23444 0.97605 0.0
C1126 C 0.62358 0.22681 0.90119 0.0
C1127 C 0.63815 0.20086 0.89242 0.0
C1128 C 0.65822 0.19159 0.92754 0.0
C1129 C 0.66467 0.20843 0.96822 0.0
C1130 C 0.64276 0.14137 0.7978 0.0
C1131 C 0.61473 0.14119 0.77937 0.0
C1132 C 0.65134 0.16244 0.83108 0.0
C1133 C 0.63154 0.18289 0.84844 0.0
C1134 C 0.6044 0.18421 0.82572 0.0
C1135 C 0.59636 0.16393 0.79091 0.0
H1136 H 0.26833 0.20198 0.17402 0.0
H1137 H 0.33882 0.23153 0.26373 0.0
H1138 H 0.23454 0.22225 0.23184 0.0
H1139 H 0.30484 0.25161 0.32166 0.0
H1140 H 0.22645 0.31415 0.36481 0.0
H1141 H 0.26706 0.29146 0.32336 0.0
H1142 H 0.22037 0.21154 0.31817 0.0
H1143 H 0.18002 0.23422 0.35877 0.0
C1144 C 0.27663 0.21282 0.2059 0.0
C1145 C 0.30623 0.21503 0.21432 0.0
C1146 C 0.2573 0.22419 0.23927 0.0
C1147 C 0.26718 0.23811 0.28153 0.0
C1148 C 0.29673 0.24091 0.28947 0.0
C1149 C 0.31609 0.22934 0.2563 0.0
C1150 C 0.22553 0.29146 0.35666 0.0
C1151 C 0.20023 0.27589 0.3643 0.0
C1152 C 0.24858 0.27854 0.33265 0.0
C1153 C 0.24634 0.25002 0.31637 0.0
C1154 C 0.22226 0.23375 0.32922 0.0
C1155 C 0.19937 0.24662 0.35288 0.0
H1156 H 0.57413 0.53169 0.44781 0.0
H1157 H 0.49977 0.50992 0.36172 0.0
H1158 H 0.56672 0.48907 0.49779 0.0
H1159 H 0.49251 0.46681 0.41127 0.0
H1160 H 0.50106 0.38256 0.49525 0.0
H1161 H 0.51955 0.41849 0.4395 0.0
H1162 H 0.5214 0.48064 0.55566 0.0
H1163 H 0.50215 0.44491 0.61166 0.0
C1164 C 0.55679 0.51712 0.4387 0.0
C1165 C 0.53763 0.52361 0.40096 0.0
C1166 C 0.55247 0.49299 0.46738 0.0
C1167 C 0.52903 0.4749 0.45839 0.0
C1168 C 0.5109 0.4804 0.41851 0.0
C1169 C 0.51505 0.50484 0.39013 0.0
C1170 C 0.50599 0.40369 0.50935 0.0
C1171 C 0.5 0.41097 0.55791 0.0
C1172 C 0.5164 0.42423 0.47724 0.0
C1173 C 0.52167 0.4522 0.49334 0.0
C1174 C 0.51757 0.45906 0.54255 0.0
C1175 C 0.50659 0.43866 0.57454 0.0
H1176 H 0.15663 0.72082 0.69397 0.0
H1177 H 0.23229 0.76068 0.6348 0.0
H1178 H 0.18632 0.69534 0.7534 0.0
H1179 H 0.26182 0.73573 0.69492 0.0
H1180 H 0.28593 0.73721 0.85707 0.0
H1181 H 0.25098 0.74943 0.79436 0.0
H1182 H 0.23877 0.65983 0.76213 0.0
H1183 H 0.27432 0.6475 0.82509 0.0
C1184 C 0.17974 0.72306 0.69222 0.0
C1185 C 0.1922 0.74271 0.65977 0.0
C1186 C 0.19664 0.70865 0.72645 0.0
C1187 C 0.22617 0.71406 0.72918 0.0
C1188 C 0.23898 0.7314 0.6936 0.0
C1189 C 0.22216 0.74538 0.65878 0.0
C1190 C 0.2748 0.72005 0.83823 0.0
C1191 C 0.2826 0.69143 0.84623 0.0
C1192 C 0.25524 0.72706 0.80174 0.0
C1193 C 0.24292 0.70558 0.77265 0.0
C1194 C 0.24827 0.67674 0.78389 0.0
C1195 C 0.26814 0.66968 0.82048 0.0
H1196 H 0.01908 0.60384 0.00932 0.0
H1197 H 0.04084 0.53971 0.11607 0.0
H1198 H 0.99773 0.56712 0.95793 0.0
H1199 H 0.02025 0.50287 0.06393 0.0
H1200 H 0.95208 0.44957 0.99106 0.0
H1201 H 0.97409 0.48753 0.03852 0.0
H1202 H 0.00586 0.52628 0.9069 0.0
H1203 H 0.98282 0.48829 0.859 0.0
C1204 C 0.01959 0.58186 0.02172 0.0
C1205 C 0.03143 0.57487 0.06728 0.0
C1206 C 0.00747 0.56074 0.99195 0.0
C1207 C 0.00694 0.53202 0.00685 0.0
C1208 C 0.01966 0.52487 0.05171 0.0
C1209 C 0.03167 0.54603 0.08161 0.0
C1210 C 0.96359 0.46631 0.97213 0.0
C1211 C 0.96578 0.46593 0.92127 0.0
C1212 C 0.97649 0.48795 0.99945 0.0
C1213 C 0.99228 0.50973 0.97677 0.0
C1214 C 0.99376 0.5099 0.92562 0.0
C1215 C 0.98051 0.48823 0.89808 0.0
H1216 H 0.64606 0.75582 0.78193 0.0
H1217 H 0.707 0.73985 0.89656 0.0
H1218 H 0.67759 0.73186 0.72386 0.0
H1219 H 0.73859 0.716 0.83855 0.0
H1220 H 0.7929 0.75939 0.71131 0.0
H1221 H 0.75265 0.76036 0.76652 0.0
H1222 H 0.72035 0.6816 0.70504 0.0
H1223 H 0.76191 0.67987 0.64964 0.0
C1224 C 0.66523 0.74533 0.79532 0.0
C1225 C 0.67408 0.74944 0.84368 0.0
C1226 C 0.68332 0.73173 0.76201 0.0
C1227 C 0.71052 0.72231 0.77677 0.0
C1228 C 0.71757 0.7229 0.82646 0.0
C1229 C 0.69941 0.73636 0.85978 0.0
C1230 C 0.77729 0.74222 0.70903 0.0
C1231 C 0.78081 0.71943 0.67612 0.0
C1232 C 0.75433 0.74274 0.74098 0.0
C1233 C 0.73393 0.7207 0.74077 0.0
C1234 C 0.73616 0.69861 0.7062 0.0
C1235 C 0.75966 0.69785 0.6742 0.0
H1236 H 0.68248 0.22743 0.22512 0.0
H1237 H 0.74153 0.2895 0.16649 0.0
H1238 H 0.7151 0.21864 0.29241 0.0
H1239 H 0.77436 0.28091 0.23482 0.0
H1240 H 0.83291 0.22893 0.34861 0.0
H1241 H 0.80572 0.24549 0.27779 0.0
H1242 H 0.72857 0.24651 0.36399 0.0
H1243 H 0.7557 0.22926 0.43386 0.0
C1244 C 0.70277 0.23878 0.22608 0.0
C1245 C 0.70932 0.25923 0.1905 0.0
C1246 C 0.72129 0.23411 0.26516 0.0
C1247 C 0.7469 0.24984 0.27005 0.0
C1248 C 0.75465 0.26869 0.23247 0.0
C1249 C 0.73599 0.27336 0.19302 0.0
C1250 C 0.81046 0.2343 0.35296 0.0
C1251 C 0.79647 0.22833 0.39691 0.0
C1252 C 0.79477 0.24335 0.31218 0.0
C1253 C 0.76481 0.24647 0.31479 0.0
C1254 C 0.7515 0.24354 0.36033 0.0
C1255 C 0.76713 0.23436 0.4008 0.0
H1256 H 0.04405 0.02509 0.91488 0.0
H1257 H 0.97978 0.09128 0.90967 0.0
H1258 H 0.01623 -0.00015 0.97668 0.0
H1259 H 0.95126 0.06539 0.97046 0.0
H1260 H 0.91069 0.97602 0.04877 0.0
H1261 H 0.92853 0.00722 0.98394 0.0
H1262 H 0.00439 0.02491 0.069 0.0
H1263 H 0.98635 0.99407 0.13395 0.0
C1264 C 0.02326 0.03343 0.92517 0.0
C1265 C 0.01374 0.05978 0.90705 0.0
C1266 C 0.00762 0.01931 0.96105 0.0
C1267 C 0.98195 0.03104 0.97871 0.0
C1268 C 0.97109 0.05609 0.95752 0.0
C1269 C 0.98716 0.07063 0.92242 0.0
C1270 C 0.93039 0.98793 0.05463 0.0
C1271 C 0.94696 0.98322 0.09661 0.0
C1272 C 0.94072 0.00541 0.01734 0.0
C1273 C 0.96797 0.01795 0.02138 0.0
C1274 C 0.98339 0.01519 0.06506 0.0
C1275 C 0.97292 -0.00202 0.10248 0.0
H1276 H 0.5651 0.03835 0.54317 0.0
H1277 H 0.51067 0.98997 0.63888 0.0
H1278 H 0.56618 -0.00171 0.48601 0.0
H1279 H 0.51081 0.94997 0.58115 0.0
H1280 H 0.50659 0.9501 0.37349 0.0
H1281 H 0.52788 0.9823 0.43284 0.0
H1282 H 0.53558 0.91255 0.53467 0.0
H1283 H 0.51402 0.88025 0.47528 0.0
C1284 C 0.554 0.01871 0.55239 0.0
C1285 C 0.53775 0.017 0.59499 0.0
C1286 C 0.55446 0.99589 0.51963 0.0
C1287 C 0.53827 0.97111 0.52861 0.0
C1288 C 0.52377 0.96864 0.57328 0.0
C1289 C 0.52354 0.99149 0.60633 0.0
C1290 C 0.51385 0.94131 0.40771 0.0
C1291 C 0.50795 0.91275 0.41999 0.0
C1292 C 0.52608 0.95983 0.44196 0.0
C1293 C 0.53277 0.9501 0.48901 0.0
C1294 C 0.53002 0.9208 0.49917 0.0
C1295 C 0.51785 0.90227 0.4649 0.0
loop_
_geom_bond_atom_site_label_1
_geom_bond_atom_site_label_2
_geom_bond_distance
_geom_bond_site_symmetry_2
_ccdc_geom_bond_type
Zn0 O6 1.920 . S
Zn0 O12 1.898 . S
Zn0 O15 1.905 . S
Zn1 O9 1.905 . S
Zn1 O10 1.898 . S
Zn1 O18 1.920 . S
Zn2 O5 2.080 . S
Zn2 O8 2.114 1_554 S
Zn2 O11 2.120 . S
Zn2 O13 2.120 . S
Zn2 O14 2.114 . S
Zn2 O17 2.080 . S
C3 O8 1.166 . S
C3 O9 1.182 . S
C4 O10 1.167 . S
C4 O11 1.299 1_556 S
O5 Zn2 2.080 . S
O5 C19 1.305 . S
O6 Zn0 1.920 . S
O6 C19 1.234 . S
C7 O12 1.167 . S
C7 O13 1.299 . S
O8 Zn2 2.114 1_556 S
O8 C3 1.166 . S
O9 Zn1 1.905 . S
O9 C3 1.182 . S
O10 Zn1 1.898 . S
O10 C4 1.167 . S
O11 Zn2 2.120 . S
O11 C4 1.299 1_554 S
O12 Zn0 1.898 . S
O12 C7 1.167 . S
O13 Zn2 2.120 . S
O13 C7 1.299 . S
O14 Zn2 2.114 . S
O14 C16 1.166 . S
O15 Zn0 1.905 . S
O15 C16 1.182 . S
C16 O14 1.166 . S
C16 O15 1.182 . S
O17 Zn2 2.080 . S
O17 C20 1.305 1_554 S
O18 Zn1 1.920 . S
O18 C20 1.234 . S
C19 O5 1.305 . S
C19 O6 1.234 . S
C20 O17 1.305 1_556 S
C20 O18 1.234 . S
Zn21 O27 1.920 . S
Zn21 O33 1.898 . S
Zn21 O36 1.905 . S
Zn22 O30 1.905 . S
Zn22 O31 1.898 . S
Zn22 O39 1.920 . S
Zn23 O26 2.080 . S
Zn23 O29 2.114 . S
Zn23 O32 2.120 . S
Zn23 O34 2.120 . S
Zn23 O35 2.114 . S
Zn23 O38 2.080 . S
C24 O29 1.166 . S
C24 O30 1.182 . S
C25 O31 1.167 . S
C25 O32 1.299 . S
O26 Zn23 2.080 . S
O26 C40 1.305 . S
O27 Zn21 1.920 . S
O27 C40 1.234 . S
C28 O33 1.167 . S
C28 O34 1.299 . S
O29 Zn23 2.114 . S
O29 C24 1.166 . S
O30 Zn22 1.905 . S
O30 C24 1.182 . S
O31 Zn22 1.898 . S
O31 C25 1.167 . S
O32 Zn23 2.120 . S
O32 C25 1.299 . S
O33 Zn21 1.898 . S
O33 C28 1.167 . S
O34 Zn23 2.120 . S
O34 C28 1.299 . S
O35 Zn23 2.114 . S
O35 C37 1.166 . S
O36 Zn21 1.905 . S
O36 C37 1.182 . S
C37 O35 1.166 . S
C37 O36 1.182 . S
O38 Zn23 2.080 . S
O38 C41 1.305 . S
O39 Zn22 1.920 . S
O39 C41 1.234 . S
C40 O26 1.305 . S
C40 O27 1.234 . S
C41 O38 1.305 . S
C41 O39 1.234 . S
Zn42 O48 1.920 . S
Zn42 O54 1.898 . S
Zn42 O57 1.905 . S
Zn43 O51 1.905 . S
Zn43 O52 1.898 . S
Zn43 O60 1.920 . S
Zn44 O47 2.080 . S
Zn44 O50 2.114 . S
Zn44 O53 2.120 . S
Zn44 O55 2.120 . S
Zn44 O56 2.114 . S
Zn44 O59 2.080 . S
C45 O50 1.166 . S
C45 O51 1.182 . S
C46 O52 1.167 . S
C46 O53 1.299 . S
O47 Zn44 2.080 . S
O47 C61 1.305 . S
O48 Zn42 1.920 . S
O48 C61 1.234 . S
C49 O54 1.167 . S
C49 O55 1.299 . S
O50 Zn44 2.114 . S
O50 C45 1.166 . S
O51 Zn43 1.905 . S
O51 C45 1.182 . S
O52 Zn43 1.898 . S
O52 C46 1.167 . S
O53 Zn44 2.120 . S
O53 C46 1.299 . S
O54 Zn42 1.898 . S
O54 C49 1.167 . S
O55 Zn44 2.120 . S
O55 C49 1.299 . S
O56 Zn44 2.114 . S
O56 C58 1.166 . S
O57 Zn42 1.905 . S
O57 C58 1.182 . S
C58 O56 1.166 . S
C58 O57 1.182 . S
O59 Zn44 2.080 . S
O59 C62 1.305 . S
O60 Zn43 1.920 . S
O60 C62 1.234 . S
C61 O47 1.305 . S
C61 O48 1.234 . S
C62 O59 1.305 . S
C62 O60 1.234 . S
Zn63 O69 1.920 . S
Zn63 O75 1.898 . S
Zn63 O78 1.905 . S
Zn64 O72 1.905 . S
Zn64 O73 1.898 . S
Zn64 O81 1.920 . S
Zn65 O68 2.080 . S
Zn65 O71 2.114 . S
Zn65 O74 2.120 . S
Zn65 O76 2.120 . S
Zn65 O77 2.114 . S
Zn65 O80 2.080 . S
C66 O71 1.166 . S
C66 O72 1.182 . S
C67 O73 1.167 . S
C67 O74 1.299 . S
O68 Zn65 2.080 . S
O68 C82 1.305 . S
O69 Zn63 1.920 . S
O69 C82 1.234 . S
C70 O75 1.167 . S
C70 O76 1.299 . S
O71 Zn65 2.114 . S
O71 C66 1.166 . S
O72 Zn64 1.905 . S
O72 C66 1.182 . S
O73 Zn64 1.898 . S
O73 C67 1.167 . S
O74 Zn65 2.120 . S
O74 C67 1.299 . S
O75 Zn63 1.898 . S
O75 C70 1.167 . S
O76 Zn65 2.120 . S
O76 C70 1.299 . S
O77 Zn65 2.114 . S
O77 C79 1.166 . S
O78 Zn63 1.905 . S
O78 C79 1.182 . S
C79 O77 1.166 . S
C79 O78 1.182 . S
O80 Zn65 2.080 . S
O80 C83 1.305 . S
O81 Zn64 1.920 . S
O81 C83 1.234 . S
C82 O68 1.305 . S
C82 O69 1.234 . S
C83 O80 1.305 . S
C83 O81 1.234 . S
Zn84 O90 1.920 . S
Zn84 O96 1.898 . S
Zn84 O99 1.905 . S
Zn85 O93 1.905 . S
Zn85 O94 1.898 . S
Zn85 O102 1.920 . S
Zn86 O89 2.080 . S
Zn86 O92 2.114 . S
Zn86 O95 2.120 . S
Zn86 O97 2.120 . S
Zn86 O98 2.114 1_556 S
Zn86 O101 2.080 . S
C87 O92 1.166 . S
C87 O93 1.182 . S
C88 O94 1.167 . S
C88 O95 1.299 . S
O89 Zn86 2.080 . S
O89 C103 1.305 1_556 S
O90 Zn84 1.920 . S
O90 C103 1.234 . S
C91 O96 1.167 . S
C91 O97 1.299 1_554 S
O92 Zn86 2.114 . S
O92 C87 1.166 . S
O93 Zn85 1.905 . S
O93 C87 1.182 . S
O94 Zn85 1.898 . S
O94 C88 1.167 . S
O95 Zn86 2.120 . S
O95 C88 1.299 . S
O96 Zn84 1.898 . S
O96 C91 1.167 . S
O97 Zn86 2.120 . S
O97 C91 1.299 1_556 S
O98 Zn86 2.114 1_554 S
O98 C100 1.166 . S
O99 Zn84 1.905 . S
O99 C100 1.182 . S
C100 O98 1.166 . S
C100 O99 1.182 . S
O101 Zn86 2.080 . S
O101 C104 1.305 . S
O102 Zn85 1.920 . S
O102 C104 1.234 . S
C103 O89 1.305 1_554 S
C103 O90 1.234 . S
C104 O101 1.305 . S
C104 O102 1.234 . S
Zn105 O111 1.920 . S
Zn105 O117 1.898 . S
Zn105 O120 1.905 . S
Zn106 O114 1.905 . S
Zn106 O115 1.898 . S
Zn106 O123 1.920 . S
Zn107 O110 2.080 . S
Zn107 O113 2.114 . S
Zn107 O116 2.120 . S
Zn107 O118 2.120 . S
Zn107 O119 2.114 . S
Zn107 O122 2.080 . S
C108 O113 1.166 . S
C108 O114 1.182 . S
C109 O115 1.167 . S
C109 O116 1.299 . S
O110 Zn107 2.080 . S
O110 C124 1.305 . S
O111 Zn105 1.920 . S
O111 C124 1.234 . S
C112 O117 1.167 . S
C112 O118 1.299 . S
O113 Zn107 2.114 . S
O113 C108 1.166 . S
O114 Zn106 1.905 . S
O114 C108 1.182 . S
O115 Zn106 1.898 . S
O115 C109 1.167 . S
O116 Zn107 2.120 . S
O116 C109 1.299 . S
O117 Zn105 1.898 . S
O117 C112 1.167 . S
O118 Zn107 2.120 . S
O118 C112 1.299 . S
O119 Zn107 2.114 . S
O119 C121 1.166 . S
O120 Zn105 1.905 . S
O120 C121 1.182 . S
C121 O119 1.166 . S
C121 O120 1.182 . S
O122 Zn107 2.080 . S
O122 C125 1.305 . S
O123 Zn106 1.920 . S
O123 C125 1.234 . S
C124 O110 1.305 . S
C124 O111 1.234 . S
C125 O122 1.305 . S
C125 O123 1.234 . S
Zn126 O132 1.920 . S
Zn126 O138 1.898 . S
Zn126 O141 1.905 . S
Zn127 O135 1.905 . S
Zn127 O136 1.898 . S
Zn127 O144 1.920 . S
Zn128 O131 2.080 . S
Zn128 O134 2.114 . S
Zn128 O137 2.120 . S
Zn128 O139 2.120 . S
Zn128 O140 2.114 . S
Zn128 O143 2.080 . S
C129 O134 1.166 . S
C129 O135 1.182 . S
C130 O136 1.167 . S
C130 O137 1.299 . S
O131 Zn128 2.080 . S
O131 C145 1.305 . S
O132 Zn126 1.920 . S
O132 C145 1.234 . S
C133 O138 1.167 . S
C133 O139 1.299 . S
O134 Zn128 2.114 . S
O134 C129 1.166 . S
O135 Zn127 1.905 . S
O135 C129 1.182 . S
O136 Zn127 1.898 . S
O136 C130 1.167 . S
O137 Zn128 2.120 . S
O137 C130 1.299 . S
O138 Zn126 1.898 . S
O138 C133 1.167 . S
O139 Zn128 2.120 . S
O139 C133 1.299 . S
O140 Zn128 2.114 . S
O140 C142 1.166 . S
O141 Zn126 1.905 . S
O141 C142 1.182 . S
C142 O140 1.166 . S
C142 O141 1.182 . S
O143 Zn128 2.080 . S
O143 C146 1.305 . S
O144 Zn127 1.920 . S
O144 C146 1.234 . S
C145 O131 1.305 . S
C145 O132 1.234 . S
C146 O143 1.305 . S
C146 O144 1.234 . S
Zn147 O153 1.920 . S
Zn147 O159 1.898 . S
Zn147 O162 1.905 . S
Zn148 O156 1.905 . S
Zn148 O157 1.898 . S
Zn148 O165 1.920 . S
Zn149 O152 2.080 . S
Zn149 O155 2.114 . S
Zn149 O158 2.120 . S
Zn149 O160 2.120 . S
Zn149 O161 2.114 . S
Zn149 O164 2.080 . S
C150 O155 1.166 . S
C150 O156 1.182 . S
C151 O157 1.167 . S
C151 O158 1.299 . S
O152 Zn149 2.080 . S
O152 C166 1.305 . S
O153 Zn147 1.920 . S
O153 C166 1.234 . S
C154 O159 1.167 . S
C154 O160 1.299 . S
O155 Zn149 2.114 . S
O155 C150 1.166 . S
O156 Zn148 1.905 . S
O156 C150 1.182 . S
O157 Zn148 1.898 . S
O157 C151 1.167 . S
O158 Zn149 2.120 . S
O158 C151 1.299 . S
O159 Zn147 1.898 . S
O159 C154 1.167 . S
O160 Zn149 2.120 . S
O160 C154 1.299 . S
O161 Zn149 2.114 . S
O161 C163 1.166 . S
O162 Zn147 1.905 . S
O162 C163 1.182 . S
C163 O161 1.166 . S
C163 O162 1.182 . S
O164 Zn149 2.080 . S
O164 C167 1.305 . S
O165 Zn148 1.920 . S
O165 C167 1.234 . S
C166 O152 1.305 . S
C166 O153 1.234 . S
C167 O164 1.305 . S
C167 O165 1.234 . S
Zn168 O174 1.920 . S
Zn168 O180 1.898 . S
Zn168 O183 1.905 . S
Zn169 O177 1.905 . S
Zn169 O178 1.898 . S
Zn169 O186 1.920 . S
Zn170 O173 2.080 . S
Zn170 O176 2.114 . S
Zn170 O179 2.120 . S
Zn170 O181 2.120 . S
Zn170 O182 2.114 . S
Zn170 O185 2.080 . S
C171 O176 1.166 . S
C171 O177 1.182 . S
C172 O178 1.167 . S
C172 O179 1.299 . S
O173 Zn170 2.080 . S
O173 C187 1.305 . S
O174 Zn168 1.920 . S
O174 C187 1.234 . S
C175 O180 1.167 . S
C175 O181 1.299 . S
O176 Zn170 2.114 . S
O176 C171 1.166 . S
O177 Zn169 1.905 . S
O177 C171 1.182 . S
O178 Zn169 1.898 . S
O178 C172 1.167 . S
O179 Zn170 2.120 . S
O179 C172 1.299 . S
O180 Zn168 1.898 . S
O180 C175 1.167 . S
O181 Zn170 2.120 . S
O181 C175 1.299 . S
O182 Zn170 2.114 . S
O182 C184 1.166 . S
O183 Zn168 1.905 . S
O183 C184 1.182 . S
C184 O182 1.166 . S
C184 O183 1.182 . S
O185 Zn170 2.080 . S
O185 C188 1.305 . S
O186 Zn169 1.920 . S
O186 C188 1.234 . S
C187 O173 1.305 . S
C187 O174 1.234 . S
C188 O185 1.305 . S
C188 O186 1.234 . S
Zn189 O195 1.920 . S
Zn189 O201 1.898 . S
Zn189 O204 1.905 . S
Zn190 O198 1.905 . S
Zn190 O199 1.898 . S
Zn190 O207 1.920 . S
Zn191 O194 2.080 . S
Zn191 O197 2.114 . S
Zn191 O200 2.120 . S
Zn191 O202 2.120 . S
Zn191 O203 2.114 . S
Zn191 O206 2.080 . S
C192 O197 1.166 . S
C192 O198 1.182 . S
C193 O199 1.167 . S
C193 O200 1.299 . S
O194 Zn191 2.080 . S
O194 C208 1.305 . S
O195 Zn189 1.920 . S
O195 C208 1.234 . S
C196 O201 1.167 . S
C196 O202 1.299 . S
O197 Zn191 2.114 . S
O197 C192 1.166 . S
O198 Zn190 1.905 . S
O198 C192 1.182 . S
O199 Zn190 1.898 . S
O199 C193 1.167 . S
O200 Zn191 2.120 . S
O200 C193 1.299 . S
O201 Zn189 1.898 . S
O201 C196 1.167 . S
O202 Zn191 2.120 . S
O202 C196 1.299 . S
O203 Zn191 2.114 . S
O203 C205 1.166 . S
O204 Zn189 1.905 . S
O204 C205 1.182 . S
C205 O203 1.166 . S
C205 O204 1.182 . S
O206 Zn191 2.080 . S
O206 C209 1.305 . S
O207 Zn190 1.920 . S
O207 C209 1.234 . S
C208 O194 1.305 . S
C208 O195 1.234 . S
C209 O206 1.305 . S
C209 O207 1.234 . S
Zn210 O216 1.920 . S
Zn210 O222 1.898 . S
Zn210 O225 1.905 . S
Zn211 O219 1.905 . S
Zn211 O220 1.898 . S
Zn211 O228 1.920 . S
Zn212 O215 2.080 . S
Zn212 O218 2.114 . S
Zn212 O221 2.120 . S
Zn212 O223 2.120 . S
Zn212 O224 2.114 1_554 S
Zn212 O227 2.080 . S
C213 O218 1.166 . S
C213 O219 1.182 . S
C214 O220 1.167 . S
C214 O221 1.299 . S
O215 Zn212 2.080 . S
O215 C229 1.305 1_554 S
O216 Zn210 1.920 . S
O216 C229 1.234 . S
C217 O222 1.167 . S
C217 O223 1.299 1_556 S
O218 Zn212 2.114 . S
O218 C213 1.166 . S
O219 Zn211 1.905 . S
O219 C213 1.182 . S
O220 Zn211 1.898 . S
O220 C214 1.167 . S
O221 Zn212 2.120 . S
O221 C214 1.299 . S
O222 Zn210 1.898 . S
O222 C217 1.167 . S
O223 Zn212 2.120 . S
O223 C217 1.299 1_554 S
O224 Zn212 2.114 1_556 S
O224 C226 1.166 . S
O225 Zn210 1.905 . S
O225 C226 1.182 . S
C226 O224 1.166 . S
C226 O225 1.182 . S
O227 Zn212 2.080 . S
O227 C230 1.305 . S
O228 Zn211 1.920 . S
O228 C230 1.234 . S
C229 O215 1.305 1_556 S
C229 O216 1.234 . S
C230 O227 1.305 . S
C230 O228 1.234 . S
Zn231 O237 1.920 . S
Zn231 O243 1.898 . S
Zn231 O246 1.905 . S
Zn232 O240 1.905 . S
Zn232 O241 1.898 . S
Zn232 O249 1.920 . S
Zn233 O236 2.080 . S
Zn233 O239 2.114 . S
Zn233 O242 2.120 . S
Zn233 O244 2.120 . S
Zn233 O245 2.114 . S
Zn233 O248 2.080 . S
C234 O239 1.166 . S
C234 O240 1.182 . S
C235 O241 1.167 . S
C235 O242 1.299 . S
O236 Zn233 2.080 . S
O236 C250 1.305 . S
O237 Zn231 1.920 . S
O237 C250 1.234 . S
C238 O243 1.167 . S
C238 O244 1.299 . S
O239 Zn233 2.114 . S
O239 C234 1.166 . S
O240 Zn232 1.905 . S
O240 C234 1.182 . S
O241 Zn232 1.898 . S
O241 C235 1.167 . S
O242 Zn233 2.120 . S
O242 C235 1.299 . S
O243 Zn231 1.898 . S
O243 C238 1.167 . S
O244 Zn233 2.120 . S
O244 C238 1.299 . S
O245 Zn233 2.114 . S
O245 C247 1.166 . S
O246 Zn231 1.905 . S
O246 C247 1.182 . S
C247 O245 1.166 . S
C247 O246 1.182 . S
O248 Zn233 2.080 . S
O248 C251 1.305 . S
O249 Zn232 1.920 . S
O249 C251 1.234 . S
C250 O236 1.305 . S
C250 O237 1.234 . S
C251 O248 1.305 . S
C251 O249 1.234 . S
Zn252 O258 1.920 . S
Zn252 O264 1.898 . S
Zn252 O267 1.905 . S
Zn253 O261 1.905 . S
Zn253 O262 1.898 . S
Zn253 O270 1.920 . S
Zn254 O257 2.080 . S
Zn254 O260 2.114 . S
Zn254 O263 2.120 . S
Zn254 O265 2.120 . S
Zn254 O266 2.114 . S
Zn254 O269 2.080 . S
C255 O260 1.166 . S
C255 O261 1.182 . S
C256 O262 1.167 . S
C256 O263 1.299 . S
O257 Zn254 2.080 . S
O257 C271 1.305 . S
O258 Zn252 1.920 . S
O258 C271 1.234 . S
C259 O264 1.167 . S
C259 O265 1.299 . S
O260 Zn254 2.114 . S
O260 C255 1.166 . S
O261 Zn253 1.905 . S
O261 C255 1.182 . S
O262 Zn253 1.898 . S
O262 C256 1.167 . S
O263 Zn254 2.120 . S
O263 C256 1.299 . S
O264 Zn252 1.898 . S
O264 C259 1.167 . S
O265 Zn254 2.120 . S
O265 C259 1.299 . S
O266 Zn254 2.114 . S
O266 C268 1.166 . S
O267 Zn252 1.905 . S
O267 C268 1.182 . S
C268 O266 1.166 . S
C268 O267 1.182 . S
O269 Zn254 2.080 . S
O269 C272 1.305 . S
O270 Zn253 1.920 . S
O270 C272 1.234 . S
C271 O257 1.305 . S
C271 O258 1.234 . S
C272 O269 1.305 . S
C272 O270 1.234 . S
Zn273 O279 1.920 . S
Zn273 O285 1.898 . S
Zn273 O288 1.905 . S
Zn274 O282 1.905 . S
Zn274 O283 1.898 . S
Zn274 O291 1.920 . S
Zn275 O278 2.080 . S
Zn275 O281 2.114 . S
Zn275 O284 2.120 . S
Zn275 O286 2.120 . S
Zn275 O287 2.114 . S
Zn275 O290 2.080 . S
C276 O281 1.166 . S
C276 O282 1.182 . S
C277 O283 1.167 . S
C277 O284 1.299 . S
O278 Zn275 2.080 . S
O278 C292 1.305 . S
O279 Zn273 1.920 . S
O279 C292 1.234 . S
C280 O285 1.167 . S
C280 O286 1.299 . S
O281 Zn275 2.114 . S
O281 C276 1.166 . S
O282 Zn274 1.905 . S
O282 C276 1.182 . S
O283 Zn274 1.898 . S
O283 C277 1.167 . S
O284 Zn275 2.120 . S
O284 C277 1.299 . S
O285 Zn273 1.898 . S
O285 C280 1.167 . S
O286 Zn275 2.120 . S
O286 C280 1.299 . S
O287 Zn275 2.114 . S
O287 C289 1.166 . S
O288 Zn273 1.905 . S
O288 C289 1.182 . S
C289 O287 1.166 . S
C289 O288 1.182 . S
O290 Zn275 2.080 . S
O290 C293 1.305 . S
O291 Zn274 1.920 . S
O291 C293 1.234 . S
C292 O278 1.305 . S
C292 O279 1.234 . S
C293 O290 1.305 . S
C293 O291 1.234 . S
Zn294 O300 1.920 . S
Zn294 O306 1.898 . S
Zn294 O309 1.905 . S
Zn295 O303 1.905 . S
Zn295 O304 1.898 . S
Zn295 O312 1.920 . S
Zn296 O299 2.080 . S
Zn296 O302 2.114 . S
Zn296 O305 2.120 . S
Zn296 O307 2.120 . S
Zn296 O308 2.114 1_556 S
Zn296 O311 2.080 . S
C297 O302 1.166 . S
C297 O303 1.182 . S
C298 O304 1.167 . S
C298 O305 1.299 . S
O299 Zn296 2.080 . S
O299 C313 1.305 1_556 S
O300 Zn294 1.920 . S
O300 C313 1.234 . S
C301 O306 1.167 . S
C301 O307 1.299 1_554 S
O302 Zn296 2.114 . S
O302 C297 1.166 . S
O303 Zn295 1.905 . S
O303 C297 1.182 . S
O304 Zn295 1.898 . S
O304 C298 1.167 . S
O305 Zn296 2.120 . S
O305 C298 1.299 . S
O306 Zn294 1.898 . S
O306 C301 1.167 . S
O307 Zn296 2.120 . S
O307 C301 1.299 1_556 S
O308 Zn296 2.114 1_554 S
O308 C310 1.166 . S
O309 Zn294 1.905 . S
O309 C310 1.182 . S
C310 O308 1.166 . S
C310 O309 1.182 . S
O311 Zn296 2.080 . S
O311 C314 1.305 . S
O312 Zn295 1.920 . S
O312 C314 1.234 . S
C313 O299 1.305 1_554 S
C313 O300 1.234 . S
C314 O311 1.305 . S
C314 O312 1.234 . S
Zn315 O321 1.920 . S
Zn315 O327 1.898 . S
Zn315 O330 1.905 . S
Zn316 O324 1.905 . S
Zn316 O325 1.898 . S
Zn316 O333 1.920 . S
Zn317 O320 2.080 . S
Zn317 O323 2.114 . S
Zn317 O326 2.120 . S
Zn317 O328 2.120 . S
Zn317 O329 2.114 . S
Zn317 O332 2.080 . S
C318 O323 1.166 . S
C318 O324 1.182 . S
C319 O325 1.167 . S
C319 O326 1.299 . S
O320 Zn317 2.080 . S
O320 C334 1.305 . S
O321 Zn315 1.920 . S
O321 C334 1.234 . S
C322 O327 1.167 . S
C322 O328 1.299 . S
O323 Zn317 2.114 . S
O323 C318 1.166 . S
O324 Zn316 1.905 . S
O324 C318 1.182 . S
O325 Zn316 1.898 . S
O325 C319 1.167 . S
O326 Zn317 2.120 . S
O326 C319 1.299 . S
O327 Zn315 1.898 . S
O327 C322 1.167 . S
O328 Zn317 2.120 . S
O328 C322 1.299 . S
O329 Zn317 2.114 . S
O329 C331 1.166 . S
O330 Zn315 1.905 . S
O330 C331 1.182 . S
C331 O329 1.166 . S
C331 O330 1.182 . S
O332 Zn317 2.080 . S
O332 C335 1.305 . S
O333 Zn316 1.920 . S
O333 C335 1.234 . S
C334 O320 1.305 . S
C334 O321 1.234 . S
C335 O332 1.305 . S
C335 O333 1.234 . S
H336 C344 0.950 . S
H337 C349 0.950 . S
H338 C346 0.950 . S
H339 C348 0.950 . S
H340 C350 0.950 . S
H341 C352 0.950 . S
H342 C354 0.950 . S
H343 C355 0.950 . S
C344 H336 0.950 . S
C344 C345 1.386 . S
C344 C346 1.391 . S
C345 C344 1.386 . S
C345 C349 1.393 . S
C346 H338 0.950 . S
C346 C344 1.391 . S
C346 C347 1.400 . S
C347 C346 1.400 . S
C347 C348 1.398 . S
C347 C353 1.491 . S
C348 H339 0.950 . S
C348 C347 1.398 . S
C348 C349 1.391 . S
C349 H337 0.950 . S
C349 C345 1.393 . S
C349 C348 1.391 . S
C350 H340 0.950 . S
C350 C351 1.386 . S
C350 C352 1.391 . S
C351 C350 1.386 . S
C351 C355 1.393 . S
C352 H341 0.950 . S
C352 C350 1.391 . S
C352 C353 1.400 . S
C353 C347 1.491 . S
C353 C352 1.400 . S
C353 C354 1.398 . S
C354 H342 0.950 . S
C354 C353 1.398 . S
C354 C355 1.391 . S
C355 H343 0.950 . S
C355 C351 1.393 . S
C355 C354 1.391 . S
H356 C364 0.950 . S
H357 C369 0.950 . S
H358 C366 0.950 . S
H359 C368 0.950 . S
H360 C370 0.950 . S
H361 C372 0.950 . S
H362 C374 0.950 . S
H363 C375 0.950 . S
C364 H356 0.950 . S
C364 C365 1.386 . S
C364 C366 1.391 . S
C365 C364 1.386 . S
C365 C369 1.393 . S
C366 H358 0.950 . S
C366 C364 1.391 . S
C366 C367 1.400 . S
C367 C366 1.400 . S
C367 C368 1.398 . S
C367 C373 1.491 . S
C368 H359 0.950 . S
C368 C367 1.398 . S
C368 C369 1.391 . S
C369 H357 0.950 . S
C369 C365 1.393 . S
C369 C368 1.391 . S
C370 H360 0.950 . S
C370 C371 1.386 . S
C370 C372 1.391 . S
C371 C370 1.386 . S
C371 C375 1.393 . S
C372 H361 0.950 . S
C372 C370 1.391 . S
C372 C373 1.400 . S
C373 C367 1.491 . S
C373 C372 1.400 . S
C373 C374 1.398 . S
C374 H362 0.950 . S
C374 C373 1.398 . S
C374 C375 1.391 . S
C375 H363 0.950 . S
C375 C371 1.393 . S
C375 C374 1.391 . S
H376 C384 0.950 . S
H377 C389 0.950 . S
H378 C386 0.950 . S
H379 C388 0.950 . S
H380 C390 0.950 . S
H381 C392 0.950 . S
H382 C394 0.950 . S
H383 C395 0.950 . S
C384 H376 0.950 . S
C384 C385 1.386 . S
C384 C386 1.391 . S
C385 C384 1.386 . S
C385 C389 1.393 . S
C386 H378 0.950 . S
C386 C384 1.391 . S
C386 C387 1.400 . S
C387 C386 1.400 . S
C387 C388 1.398 . S
C387 C393 1.491 1_455 S
C388 H379 0.950 . S
C388 C387 1.398 . S
C388 C389 1.391 . S
C389 H377 0.950 . S
C389 C385 1.393 . S
C389 C388 1.391 . S
C390 H380 0.950 . S
C390 C391 1.386 . S
C390 C392 1.391 . S
C391 C390 1.386 . S
C391 C395 1.393 . S
C392 H381 0.950 . S
C392 C390 1.391 . S
C392 C393 1.400 . S
C393 C387 1.491 1_655 S
C393 C392 1.400 . S
C393 C394 1.398 . S
C394 H382 0.950 . S
C394 C393 1.398 . S
C394 C395 1.391 . S
C395 H383 0.950 . S
C395 C391 1.393 . S
C395 C394 1.391 . S
H396 C404 0.950 . S
H397 C409 0.950 . S
H398 C406 0.950 . S
H399 C408 0.950 . S
H400 C410 0.950 . S
H401 C412 0.950 . S
H402 C414 0.950 . S
H403 C415 0.950 . S
C404 H396 0.950 . S
C404 C405 1.385 1_455 S
C404 C406 1.392 . S
C405 C404 1.385 1_655 S
C405 C409 1.393 . S
C406 H398 0.950 . S
C406 C404 1.392 . S
C406 C407 1.400 1_455 S
C407 C406 1.400 1_655 S
C407 C408 1.398 . S
C407 C413 1.491 1_655 S
C408 H399 0.950 . S
C408 C407 1.398 . S
C408 C409 1.391 . S
C409 H397 0.950 . S
C409 C405 1.393 . S
C409 C408 1.391 . S
C410 H400 0.950 . S
C410 C411 1.385 1_655 S
C410 C412 1.392 . S
C411 C410 1.385 1_455 S
C411 C415 1.393 . S
C412 H401 0.950 . S
C412 C410 1.392 . S
C412 C413 1.400 1_655 S
C413 C407 1.491 1_455 S
C413 C412 1.400 1_455 S
C413 C414 1.398 . S
C414 H402 0.950 . S
C414 C413 1.398 . S
C414 C415 1.391 . S
C415 H403 0.950 . S
C415 C411 1.393 . S
C415 C414 1.391 . S
H416 C424 0.950 . S
H417 C429 0.950 . S
H418 C426 0.950 . S
H419 C428 0.950 . S
H420 C430 0.950 . S
H421 C432 0.950 . S
H422 C434 0.950 . S
H423 C435 0.950 . S
C424 H416 0.950 . S
C424 C425 1.386 . S
C424 C426 1.391 . S
C425 C424 1.386 . S
C425 C429 1.393 . S
C426 H418 0.950 . S
C426 C424 1.391 . S
C426 C427 1.400 . S
C427 C426 1.400 . S
C427 C428 1.398 . S
C427 C433 1.491 . S
C428 H419 0.950 . S
C428 C427 1.398 . S
C428 C429 1.391 . S
C429 H417 0.950 . S
C429 C425 1.393 . S
C429 C428 1.391 . S
C430 H420 0.950 . S
C430 C431 1.386 . S
C430 C432 1.391 . S
C431 C430 1.386 . S
C431 C435 1.393 . S
C432 H421 0.950 . S
C432 C430 1.391 . S
C432 C433 1.400 . S
C433 C427 1.491 . S
C433 C432 1.400 . S
C433 C434 1.398 . S
C434 H422 0.950 . S
C434 C433 1.398 . S
C434 C435 1.391 . S
C435 H423 0.950 . S
C435 C431 1.393 . S
C435 C434 1.391 . S
H436 C444 0.950 . S
H437 C449 0.950 . S
H438 C446 0.950 . S
H439 C448 0.950 . S
H440 C450 0.950 . S
H441 C452 0.950 . S
H442 C454 0.950 . S
H443 C455 0.950 . S
C444 H436 0.950 . S
C444 C445 1.386 . S
C444 C446 1.391 . S
C445 C444 1.386 . S
C445 C449 1.393 . S
C446 H438 0.950 . S
C446 C444 1.391 . S
C446 C447 1.400 . S
C447 C446 1.400 . S
C447 C448 1.398 . S
C447 C453 1.491 . S
C448 H439 0.950 . S
C448 C447 1.398 . S
C448 C449 1.391 . S
C449 H437 0.950 . S
C449 C445 1.393 . S
C449 C448 1.391 . S
C450 H440 0.950 . S
C450 C451 1.386 . S
C450 C452 1.391 . S
C451 C450 1.386 . S
C451 C455 1.393 . S
C452 H441 0.950 . S
C452 C450 1.391 . S
C452 C453 1.400 . S
C453 C447 1.491 . S
C453 C452 1.400 . S
C453 C454 1.398 . S
C454 H442 0.950 . S
C454 C453 1.398 . S
C454 C455 1.391 . S
C455 H443 0.950 . S
C455 C451 1.393 . S
C455 C454 1.391 . S
H456 C464 0.950 . S
H457 C469 0.950 . S
H458 C466 0.950 . S
H459 C468 0.950 . S
H460 C470 0.950 . S
H461 C472 0.950 . S
H462 C474 0.950 . S
H463 C475 0.950 . S
C464 H456 0.950 . S
C464 C465 1.386 . S
C464 C466 1.391 . S
C465 C464 1.386 . S
C465 C469 1.393 . S
C466 H458 0.950 . S
C466 C464 1.391 . S
C466 C467 1.400 . S
C467 C466 1.400 . S
C467 C468 1.398 . S
C467 C473 1.491 1_655 S
C468 H459 0.950 . S
C468 C467 1.398 . S
C468 C469 1.391 . S
C469 H457 0.950 . S
C469 C465 1.393 . S
C469 C468 1.391 . S
C470 H460 0.950 . S
C470 C471 1.386 . S
C470 C472 1.391 . S
C471 C470 1.386 . S
C471 C475 1.393 . S
C472 H461 0.950 . S
C472 C470 1.391 . S
C472 C473 1.400 . S
C473 C467 1.491 1_455 S
C473 C472 1.400 . S
C473 C474 1.398 . S
C474 H462 0.950 . S
C474 C473 1.398 . S
C474 C475 1.391 . S
C475 H463 0.950 . S
C475 C471 1.393 . S
C475 C474 1.391 . S
H476 C484 0.950 . S
H477 C489 0.950 . S
H478 C486 0.950 . S
H479 C488 0.950 . S
H480 C490 0.950 . S
H481 C492 0.950 . S
H482 C494 0.950 . S
H483 C495 0.950 . S
C484 H476 0.950 . S
C484 C485 1.386 1_655 S
C484 C486 1.391 . S
C485 C484 1.386 1_455 S
C485 C489 1.393 . S
C486 H478 0.950 . S
C486 C484 1.391 . S
C486 C487 1.400 1_655 S
C487 C486 1.400 1_455 S
C487 C488 1.398 . S
C487 C493 1.491 1_455 S
C488 H479 0.950 . S
C488 C487 1.398 . S
C488 C489 1.391 . S
C489 H477 0.950 . S
C489 C485 1.393 . S
C489 C488 1.391 . S
C490 H480 0.950 . S
C490 C491 1.386 1_455 S
C490 C492 1.391 . S
C491 C490 1.386 1_655 S
C491 C495 1.393 . S
C492 H481 0.950 . S
C492 C490 1.391 . S
C492 C493 1.400 1_455 S
C493 C487 1.491 1_655 S
C493 C492 1.400 1_655 S
C493 C494 1.398 . S
C494 H482 0.950 . S
C494 C493 1.398 . S
C494 C495 1.391 . S
C495 H483 0.950 . S
C495 C491 1.393 . S
C495 C494 1.391 . S
H496 C504 0.950 . S
H497 C509 0.950 . S
H498 C506 0.950 . S
H499 C508 0.950 . S
H500 C510 0.950 . S
H501 C512 0.950 1_554 S
H502 C514 0.950 . S
H503 C515 0.950 . S
C504 H496 0.950 . S
C504 C505 1.386 . S
C504 C506 1.391 . S
C505 C504 1.386 . S
C505 C509 1.393 . S
C506 H498 0.950 . S
C506 C504 1.391 . S
C506 C507 1.400 . S
C507 C506 1.400 . S
C507 C508 1.398 . S
C507 C513 1.491 . S
C508 H499 0.950 . S
C508 C507 1.398 . S
C508 C509 1.391 . S
C509 H497 0.950 . S
C509 C505 1.393 . S
C509 C508 1.391 . S
C510 H500 0.950 . S
C510 C511 1.386 1_554 S
C510 C512 1.391 1_554 S
C511 C510 1.386 1_556 S
C511 C515 1.393 . S
C512 H501 0.950 1_556 S
C512 C510 1.391 1_556 S
C512 C513 1.400 . S
C513 C507 1.491 . S
C513 C512 1.400 . S
C513 C514 1.398 . S
C514 H502 0.950 . S
C514 C513 1.398 . S
C514 C515 1.391 . S
C515 H503 0.950 . S
C515 C511 1.393 . S
C515 C514 1.391 . S
H516 C524 0.950 . S
H517 C529 0.950 . S
H518 C526 0.950 . S
H519 C528 0.950 . S
H520 C530 0.950 . S
H521 C532 0.950 . S
H522 C534 0.950 . S
H523 C535 0.950 . S
C524 H516 0.950 . S
C524 C525 1.386 . S
C524 C526 1.391 . S
C525 C524 1.386 . S
C525 C529 1.393 . S
C526 H518 0.950 . S
C526 C524 1.391 . S
C526 C527 1.400 . S
C527 C526 1.400 . S
C527 C528 1.398 . S
C527 C533 1.491 . S
C528 H519 0.950 . S
C528 C527 1.398 . S
C528 C529 1.391 . S
C529 H517 0.950 . S
C529 C525 1.393 . S
C529 C528 1.391 . S
C530 H520 0.950 . S
C530 C531 1.386 . S
C530 C532 1.391 . S
C531 C530 1.386 . S
C531 C535 1.393 . S
C532 H521 0.950 . S
C532 C530 1.391 . S
C532 C533 1.400 . S
C533 C527 1.491 . S
C533 C532 1.400 . S
C533 C534 1.398 . S
C534 H522 0.950 . S
C534 C533 1.398 . S
C534 C535 1.391 . S
C535 H523 0.950 . S
C535 C531 1.393 . S
C535 C534 1.391 . S
H536 C544 0.950 . S
H537 C549 0.950 . S
H538 C546 0.950 . S
H539 C548 0.950 . S
H540 C550 0.950 . S
H541 C552 0.950 . S
H542 C554 0.950 . S
H543 C555 0.950 . S
C544 H536 0.950 . S
C544 C545 1.386 . S
C544 C546 1.391 . S
C545 C544 1.386 . S
C545 C549 1.393 . S
C546 H538 0.950 . S
C546 C544 1.391 . S
C546 C547 1.400 . S
C547 C546 1.400 . S
C547 C548 1.398 . S
C547 C553 1.491 . S
C548 H539 0.950 . S
C548 C547 1.398 . S
C548 C549 1.391 . S
C549 H537 0.950 . S
C549 C545 1.393 . S
C549 C548 1.391 . S
C550 H540 0.950 . S
C550 C551 1.386 . S
C550 C552 1.391 . S
C551 C550 1.386 . S
C551 C555 1.393 . S
C552 H541 0.950 . S
C552 C550 1.391 . S
C552 C553 1.400 . S
C553 C547 1.491 . S
C553 C552 1.400 . S
C553 C554 1.398 . S
C554 H542 0.950 . S
C554 C553 1.398 . S
C554 C555 1.391 . S
C555 H543 0.950 . S
C555 C551 1.393 . S
C555 C554 1.391 . S
H556 C564 0.950 . S
H557 C569 0.950 . S
H558 C566 0.950 . S
H559 C568 0.950 . S
H560 C570 0.950 . S
H561 C572 0.950 . S
H562 C574 0.950 . S
H563 C575 0.950 . S
C564 H556 0.950 . S
C564 C565 1.386 . S
C564 C566 1.391 . S
C565 C564 1.386 . S
C565 C569 1.393 . S
C566 H558 0.950 . S
C566 C564 1.391 . S
C566 C567 1.400 . S
C567 C566 1.400 . S
C567 C568 1.398 . S
C567 C573 1.491 . S
C568 H559 0.950 . S
C568 C567 1.398 . S
C568 C569 1.391 . S
C569 H557 0.950 . S
C569 C565 1.393 . S
C569 C568 1.391 . S
C570 H560 0.950 . S
C570 C571 1.386 . S
C570 C572 1.391 . S
C571 C570 1.386 . S
C571 C575 1.393 . S
C572 H561 0.950 . S
C572 C570 1.391 . S
C572 C573 1.400 . S
C573 C567 1.491 . S
C573 C572 1.400 . S
C573 C574 1.398 . S
C574 H562 0.950 . S
C574 C573 1.398 . S
C574 C575 1.391 . S
C575 H563 0.950 . S
C575 C571 1.393 . S
C575 C574 1.391 . S
H576 C584 0.950 . S
H577 C589 0.950 1_556 S
H578 C586 0.950 . S
H579 C588 0.950 . S
H580 C590 0.950 . S
H581 C592 0.950 . S
H582 C594 0.950 . S
H583 C595 0.950 . S
C584 H576 0.950 . S
C584 C585 1.386 . S
C584 C586 1.391 . S
C585 C584 1.386 . S
C585 C589 1.393 . S
C586 H578 0.950 . S
C586 C584 1.391 . S
C586 C587 1.400 . S
C587 C586 1.400 . S
C587 C588 1.398 . S
C587 C593 1.491 . S
C588 H579 0.950 . S
C588 C587 1.398 . S
C588 C589 1.391 . S
C589 H577 0.950 1_554 S
C589 C585 1.393 . S
C589 C588 1.391 . S
C590 H580 0.950 . S
C590 C591 1.386 . S
C590 C592 1.391 . S
C591 C590 1.386 . S
C591 C595 1.393 . S
C592 H581 0.950 . S
C592 C590 1.391 . S
C592 C593 1.400 . S
C593 C587 1.491 . S
C593 C592 1.400 . S
C593 C594 1.398 . S
C594 H582 0.950 . S
C594 C593 1.398 . S
C594 C595 1.391 . S
C595 H583 0.950 . S
C595 C591 1.393 . S
C595 C594 1.391 . S
H596 C604 0.950 . S
H597 C609 0.950 . S
H598 C606 0.950 . S
H599 C608 0.950 . S
H600 C610 0.950 . S
H601 C612 0.950 . S
H602 C614 0.950 . S
H603 C615 0.950 . S
C604 H596 0.950 . S
C604 C605 1.386 . S
C604 C606 1.391 . S
C605 C604 1.386 . S
C605 C609 1.393 . S
C606 H598 0.950 . S
C606 C604 1.391 . S
C606 C607 1.400 . S
C607 C606 1.400 . S
C607 C608 1.398 . S
C607 C613 1.491 . S
C608 H599 0.950 . S
C608 C607 1.398 . S
C608 C609 1.391 . S
C609 H597 0.950 . S
C609 C605 1.393 . S
C609 C608 1.391 . S
C610 H600 0.950 . S
C610 C611 1.386 . S
C610 C612 1.391 . S
C611 C610 1.386 . S
C611 C615 1.393 . S
C612 H601 0.950 . S
C612 C610 1.391 . S
C612 C613 1.400 . S
C613 C607 1.491 . S
C613 C612 1.400 . S
C613 C614 1.398 . S
C614 H602 0.950 . S
C614 C613 1.398 . S
C614 C615 1.391 . S
C615 H603 0.950 . S
C615 C611 1.393 . S
C615 C614 1.391 . S
H616 C624 0.950 . S
H617 C629 0.950 . S
H618 C626 0.950 . S
H619 C628 0.950 . S
H620 C630 0.950 . S
H621 C632 0.950 . S
H622 C634 0.950 . S
H623 C635 0.950 . S
C624 H616 0.950 . S
C624 C625 1.386 . S
C624 C626 1.391 . S
C625 C624 1.386 . S
C625 C629 1.393 . S
C626 H618 0.950 . S
C626 C624 1.391 . S
C626 C627 1.400 . S
C627 C626 1.400 . S
C627 C628 1.398 . S
C627 C633 1.491 . S
C628 H619 0.950 . S
C628 C627 1.398 . S
C628 C629 1.391 . S
C629 H617 0.950 . S
C629 C625 1.393 . S
C629 C628 1.391 . S
C630 H620 0.950 . S
C630 C631 1.386 . S
C630 C632 1.391 . S
C631 C630 1.386 . S
C631 C635 1.393 . S
C632 H621 0.950 . S
C632 C630 1.391 . S
C632 C633 1.400 . S
C633 C627 1.491 . S
C633 C632 1.400 . S
C633 C634 1.398 . S
C634 H622 0.950 . S
C634 C633 1.398 . S
C634 C635 1.391 . S
C635 H623 0.950 . S
C635 C631 1.393 . S
C635 C634 1.391 . S
H636 C644 0.950 . S
H637 C649 0.950 . S
H638 C646 0.950 . S
H639 C648 0.950 . S
H640 C650 0.950 . S
H641 C652 0.950 . S
H642 C654 0.950 . S
H643 C655 0.950 . S
C644 H636 0.950 . S
C644 C645 1.386 . S
C644 C646 1.391 . S
C645 C644 1.386 . S
C645 C649 1.393 . S
C646 H638 0.950 . S
C646 C644 1.391 . S
C646 C647 1.400 . S
C647 C646 1.400 . S
C647 C648 1.398 . S
C647 C653 1.491 . S
C648 H639 0.950 . S
C648 C647 1.398 . S
C648 C649 1.391 . S
C649 H637 0.950 . S
C649 C645 1.393 . S
C649 C648 1.391 . S
C650 H640 0.950 . S
C650 C651 1.386 . S
C650 C652 1.391 . S
C651 C650 1.386 . S
C651 C655 1.393 . S
C652 H641 0.950 . S
C652 C650 1.391 . S
C652 C653 1.400 . S
C653 C647 1.491 . S
C653 C652 1.400 . S
C653 C654 1.398 . S
C654 H642 0.950 . S
C654 C653 1.398 . S
C654 C655 1.391 . S
C655 H643 0.950 . S
C655 C651 1.393 . S
C655 C654 1.391 . S
H656 C664 0.950 . S
H657 C669 0.950 . S
H658 C666 0.950 . S
H659 C668 0.950 . S
H660 C670 0.950 . S
H661 C672 0.950 . S
H662 C674 0.950 . S
H663 C675 0.950 . S
C664 H656 0.950 . S
C664 C665 1.386 . S
C664 C666 1.391 . S
C665 C664 1.386 . S
C665 C669 1.393 . S
C666 H658 0.950 . S
C666 C664 1.391 . S
C666 C667 1.400 . S
C667 C666 1.400 . S
C667 C668 1.398 . S
C667 C673 1.491 . S
C668 H659 0.950 . S
C668 C667 1.398 . S
C668 C669 1.391 . S
C669 H657 0.950 . S
C669 C665 1.393 . S
C669 C668 1.391 . S
C670 H660 0.950 . S
C670 C671 1.386 . S
C670 C672 1.391 . S
C671 C670 1.386 . S
C671 C675 1.393 . S
C672 H661 0.950 . S
C672 C670 1.391 . S
C672 C673 1.400 . S
C673 C667 1.491 . S
C673 C672 1.400 . S
C673 C674 1.398 . S
C674 H662 0.950 . S
C674 C673 1.398 . S
C674 C675 1.391 . S
C675 H663 0.950 . S
C675 C671 1.393 . S
C675 C674 1.391 . S
H676 C684 0.950 . S
H677 C689 0.950 . S
H678 C686 0.950 . S
H679 C688 0.950 . S
H680 C690 0.950 . S
H681 C692 0.950 . S
H682 C694 0.950 . S
H683 C695 0.950 . S
C684 H676 0.950 . S
C684 C685 1.386 . S
C684 C686 1.391 1_545 S
C685 C684 1.386 . S
C685 C689 1.393 . S
C686 H678 0.950 . S
C686 C684 1.391 1_565 S
C686 C687 1.400 . S
C687 C686 1.400 . S
C687 C688 1.398 . S
C687 C693 1.491 . S
C688 H679 0.950 . S
C688 C687 1.398 . S
C688 C689 1.391 1_565 S
C689 H677 0.950 . S
C689 C685 1.393 . S
C689 C688 1.391 1_545 S
C690 H680 0.950 . S
C690 C691 1.386 . S
C690 C692 1.391 . S
C691 C690 1.386 . S
C691 C695 1.393 . S
C692 H681 0.950 . S
C692 C690 1.391 . S
C692 C693 1.400 . S
C693 C687 1.491 . S
C693 C692 1.400 . S
C693 C694 1.398 . S
C694 H682 0.950 . S
C694 C693 1.398 . S
C694 C695 1.391 . S
C695 H683 0.950 . S
C695 C691 1.393 . S
C695 C694 1.391 . S
H696 C704 0.950 . S
H697 C709 0.950 . S
H698 C706 0.947 1_554 S
H699 C708 0.950 . S
H700 C710 0.950 . S
H701 C712 0.950 . S
H702 C714 0.950 . S
H703 C715 0.950 . S
C704 H696 0.950 . S
C704 C705 1.386 1_554 S
C704 C706 1.391 1_554 S
C705 C704 1.386 1_556 S
C705 C709 1.393 . S
C706 H698 0.947 1_556 S
C706 C704 1.391 1_556 S
C706 C707 1.400 . S
C707 C706 1.400 . S
C707 C708 1.398 . S
C707 C713 1.491 . S
C708 H699 0.950 . S
C708 C707 1.398 . S
C708 C709 1.391 . S
C709 H697 0.950 . S
C709 C705 1.393 . S
C709 C708 1.391 . S
C710 H700 0.950 . S
C710 C711 1.386 . S
C710 C712 1.391 . S
C711 C710 1.386 . S
C711 C715 1.393 . S
C712 H701 0.950 . S
C712 C710 1.391 . S
C712 C713 1.400 . S
C713 C707 1.491 . S
C713 C712 1.400 . S
C713 C714 1.398 . S
C714 H702 0.950 . S
C714 C713 1.398 . S
C714 C715 1.391 . S
C715 H703 0.950 . S
C715 C711 1.393 . S
C715 C714 1.391 . S
H716 C724 0.950 . S
H717 C729 0.950 . S
H718 C726 0.950 . S
H719 C728 0.950 . S
H720 C730 0.950 . S
H721 C732 0.950 . S
H722 C734 0.950 . S
H723 C735 0.950 . S
C724 H716 0.950 . S
C724 C725 1.386 . S
C724 C726 1.391 1_565 S
C725 C724 1.386 . S
C725 C729 1.393 1_565 S
C726 H718 0.950 . S
C726 C724 1.391 1_545 S
C726 C727 1.400 . S
C727 C726 1.400 . S
C727 C728 1.398 . S
C727 C733 1.491 . S
C728 H719 0.950 . S
C728 C727 1.398 . S
C728 C729 1.391 . S
C729 H717 0.950 . S
C729 C725 1.393 1_545 S
C729 C728 1.391 . S
C730 H720 0.950 . S
C730 C731 1.386 . S
C730 C732 1.391 . S
C731 C730 1.386 . S
C731 C735 1.393 . S
C732 H721 0.950 . S
C732 C730 1.391 . S
C732 C733 1.400 . S
C733 C727 1.491 . S
C733 C732 1.400 . S
C733 C734 1.398 . S
C734 H722 0.950 . S
C734 C733 1.398 . S
C734 C735 1.391 . S
C735 H723 0.950 . S
C735 C731 1.393 . S
C735 C734 1.391 . S
H736 C744 0.950 . S
H737 C749 0.950 . S
H738 C746 0.950 . S
H739 C748 0.950 . S
H740 C750 0.950 . S
H741 C752 0.950 . S
H742 C754 0.950 . S
H743 C755 0.950 . S
C744 H736 0.950 . S
C744 C745 1.386 . S
C744 C746 1.391 . S
C745 C744 1.386 . S
C745 C749 1.393 . S
C746 H738 0.950 . S
C746 C744 1.391 . S
C746 C747 1.400 . S
C747 C746 1.400 . S
C747 C748 1.398 . S
C747 C753 1.491 . S
C748 H739 0.950 . S
C748 C747 1.398 . S
C748 C749 1.391 . S
C749 H737 0.950 . S
C749 C745 1.393 . S
C749 C748 1.391 . S
C750 H740 0.950 . S
C750 C751 1.386 . S
C750 C752 1.391 . S
C751 C750 1.386 . S
C751 C755 1.393 . S
C752 H741 0.950 . S
C752 C750 1.391 . S
C752 C753 1.400 . S
C753 C747 1.491 . S
C753 C752 1.400 . S
C753 C754 1.398 . S
C754 H742 0.950 . S
C754 C753 1.398 . S
C754 C755 1.391 . S
C755 H743 0.950 . S
C755 C751 1.393 . S
C755 C754 1.391 . S
H756 C764 0.950 . S
H757 C769 0.950 . S
H758 C766 0.950 . S
H759 C768 0.950 . S
H760 C770 0.950 . S
H761 C772 0.950 . S
H762 C774 0.950 . S
H763 C775 0.950 . S
C764 H756 0.950 . S
C764 C765 1.386 . S
C764 C766 1.391 . S
C765 C764 1.386 . S
C765 C769 1.393 . S
C766 H758 0.950 . S
C766 C764 1.391 . S
C766 C767 1.400 . S
C767 C766 1.400 . S
C767 C768 1.398 . S
C767 C773 1.491 . S
C768 H759 0.950 . S
C768 C767 1.398 . S
C768 C769 1.391 . S
C769 H757 0.950 . S
C769 C765 1.393 . S
C769 C768 1.391 . S
C770 H760 0.950 . S
C770 C771 1.386 . S
C770 C772 1.391 1_565 S
C771 C770 1.386 . S
C771 C775 1.393 . S
C772 H761 0.950 . S
C772 C770 1.391 1_545 S
C772 C773 1.400 . S
C773 C767 1.491 . S
C773 C772 1.400 . S
C773 C774 1.398 . S
C774 H762 0.950 . S
C774 C773 1.398 . S
C774 C775 1.391 1_545 S
C775 H763 0.950 . S
C775 C771 1.393 . S
C775 C774 1.391 1_565 S
H776 C784 0.950 . S
H777 C789 0.950 . S
H778 C786 0.950 . S
H779 C788 0.950 . S
H780 C790 0.950 . S
H781 C792 0.950 . S
H782 C794 0.950 . S
H783 C795 0.950 . S
C784 H776 0.950 . S
C784 C785 1.386 . S
C784 C786 1.391 . S
C785 C784 1.386 . S
C785 C789 1.393 . S
C786 H778 0.950 . S
C786 C784 1.391 . S
C786 C787 1.400 . S
C787 C786 1.400 . S
C787 C788 1.398 . S
C787 C793 1.491 . S
C788 H779 0.950 . S
C788 C787 1.398 . S
C788 C789 1.391 . S
C789 H777 0.950 . S
C789 C785 1.393 . S
C789 C788 1.391 . S
C790 H780 0.950 . S
C790 C791 1.386 . S
C790 C792 1.391 . S
C791 C790 1.386 . S
C791 C795 1.393 . S
C792 H781 0.950 . S
C792 C790 1.391 . S
C792 C793 1.400 . S
C793 C787 1.491 . S
C793 C792 1.400 . S
C793 C794 1.398 . S
C794 H782 0.950 . S
C794 C793 1.398 . S
C794 C795 1.391 . S
C795 H783 0.950 . S
C795 C791 1.393 . S
C795 C794 1.391 . S
H796 C804 0.950 . S
H797 C809 0.950 . S
H798 C806 0.950 . S
H799 C808 0.950 . S
H800 C810 0.950 . S
H801 C812 0.950 . S
H802 C814 0.950 . S
H803 C815 0.950 . S
C804 H796 0.950 . S
C804 C805 1.386 . S
C804 C806 1.391 1_545 S
C805 C804 1.386 . S
C805 C809 1.393 . S
C806 H798 0.950 . S
C806 C804 1.391 1_565 S
C806 C807 1.400 . S
C807 C806 1.400 . S
C807 C808 1.398 . S
C807 C813 1.491 . S
C808 H799 0.950 . S
C808 C807 1.398 . S
C808 C809 1.391 1_565 S
C809 H797 0.950 . S
C809 C805 1.393 . S
C809 C808 1.391 1_545 S
C810 H800 0.950 . S
C810 C811 1.386 . S
C810 C812 1.391 . S
C811 C810 1.386 . S
C811 C815 1.393 . S
C812 H801 0.950 . S
C812 C810 1.391 . S
C812 C813 1.400 . S
C813 C807 1.491 . S
C813 C812 1.400 . S
C813 C814 1.398 . S
C814 H802 0.950 . S
C814 C813 1.398 . S
C814 C815 1.391 . S
C815 H803 0.950 . S
C815 C811 1.393 . S
C815 C814 1.391 . S
H816 C824 0.950 . S
H817 C829 0.950 . S
H818 C826 0.950 . S
H819 C828 0.950 . S
H820 C830 0.950 . S
H821 C832 0.950 . S
H822 C834 0.950 . S
H823 C835 0.950 . S
C824 H816 0.950 . S
C824 C825 1.386 . S
C824 C826 1.391 . S
C825 C824 1.386 . S
C825 C829 1.393 . S
C826 H818 0.950 . S
C826 C824 1.391 . S
C826 C827 1.400 . S
C827 C826 1.400 . S
C827 C828 1.398 . S
C827 C833 1.491 . S
C828 H819 0.950 . S
C828 C827 1.398 . S
C828 C829 1.391 . S
C829 H817 0.950 . S
C829 C825 1.393 . S
C829 C828 1.391 . S
C830 H820 0.950 . S
C830 C831 1.386 . S
C830 C832 1.391 . S
C831 C830 1.386 . S
C831 C835 1.393 . S
C832 H821 0.950 . S
C832 C830 1.391 . S
C832 C833 1.400 . S
C833 C827 1.491 . S
C833 C832 1.400 . S
C833 C834 1.398 . S
C834 H822 0.950 . S
C834 C833 1.398 . S
C834 C835 1.391 . S
C835 H823 0.950 . S
C835 C831 1.393 . S
C835 C834 1.391 . S
H836 C844 0.950 . S
H837 C849 0.950 . S
H838 C846 0.950 . S
H839 C848 0.950 . S
H840 C850 0.950 . S
H841 C852 0.950 . S
H842 C854 0.950 . S
H843 C855 0.950 . S
C844 H836 0.950 . S
C844 C845 1.386 . S
C844 C846 1.391 . S
C845 C844 1.386 . S
C845 C849 1.393 . S
C846 H838 0.950 . S
C846 C844 1.391 . S
C846 C847 1.400 . S
C847 C846 1.400 . S
C847 C848 1.398 . S
C847 C853 1.491 . S
C848 H839 0.950 . S
C848 C847 1.398 . S
C848 C849 1.391 . S
C849 H837 0.950 . S
C849 C845 1.393 . S
C849 C848 1.391 . S
C850 H840 0.950 . S
C850 C851 1.386 . S
C850 C852 1.391 . S
C851 C850 1.386 . S
C851 C855 1.393 . S
C852 H841 0.950 . S
C852 C850 1.391 . S
C852 C853 1.400 . S
C853 C847 1.491 . S
C853 C852 1.400 . S
C853 C854 1.398 . S
C854 H842 0.950 . S
C854 C853 1.398 . S
C854 C855 1.391 . S
C855 H843 0.950 . S
C855 C851 1.393 . S
C855 C854 1.391 . S
H856 C864 0.950 . S
H857 C869 0.950 . S
H858 C866 0.950 . S
H859 C868 0.950 . S
H860 C870 0.950 . S
H861 C872 0.950 . S
H862 C874 0.950 . S
H863 C875 0.950 . S
C864 H856 0.950 . S
C864 C865 1.386 1_655 S
C864 C866 1.391 1_655 S
C865 C864 1.386 1_455 S
C865 C869 1.393 . S
C866 H858 0.950 . S
C866 C864 1.391 1_455 S
C866 C867 1.400 . S
C867 C866 1.400 . S
C867 C868 1.398 . S
C867 C873 1.491 . S
C868 H859 0.950 . S
C868 C867 1.398 . S
C868 C869 1.391 . S
C869 H857 0.950 . S
C869 C865 1.393 . S
C869 C868 1.391 . S
C870 H860 0.950 . S
C870 C871 1.386 . S
C870 C872 1.391 . S
C871 C870 1.386 . S
C871 C875 1.393 . S
C872 H861 0.950 . S
C872 C870 1.391 . S
C872 C873 1.400 . S
C873 C867 1.491 . S
C873 C872 1.400 . S
C873 C874 1.398 . S
C874 H862 0.950 . S
C874 C873 1.398 . S
C874 C875 1.391 . S
C875 H863 0.950 . S
C875 C871 1.393 . S
C875 C874 1.391 . S
H876 C884 0.950 . S
H877 C889 0.950 . S
H878 C886 0.950 . S
H879 C888 0.950 . S
H880 C890 0.950 . S
H881 C892 0.950 . S
H882 C894 0.950 . S
H883 C895 0.950 . S
C884 H876 0.950 . S
C884 C885 1.386 . S
C884 C886 1.391 . S
C885 C884 1.386 . S
C885 C889 1.393 . S
C886 H878 0.950 . S
C886 C884 1.391 . S
C886 C887 1.400 . S
C887 C886 1.400 . S
C887 C888 1.398 . S
C887 C893 1.491 . S
C888 H879 0.950 . S
C888 C887 1.398 . S
C888 C889 1.391 . S
C889 H877 0.950 . S
C889 C885 1.393 . S
C889 C888 1.391 . S
C890 H880 0.950 . S
C890 C891 1.386 . S
C890 C892 1.391 . S
C891 C890 1.386 . S
C891 C895 1.393 . S
C892 H881 0.950 . S
C892 C890 1.391 . S
C892 C893 1.400 . S
C893 C887 1.491 . S
C893 C892 1.400 . S
C893 C894 1.398 . S
C894 H882 0.950 . S
C894 C893 1.398 . S
C894 C895 1.391 . S
C895 H883 0.950 . S
C895 C891 1.393 . S
C895 C894 1.391 . S
H896 C904 0.950 . S
H897 C909 0.950 . S
H898 C906 0.950 . S
H899 C908 0.950 . S
H900 C910 0.950 . S
H901 C912 0.950 . S
H902 C914 0.950 . S
H903 C915 0.950 . S
C904 H896 0.950 . S
C904 C905 1.386 . S
C904 C906 1.391 . S
C905 C904 1.386 . S
C905 C909 1.393 . S
C906 H898 0.950 . S
C906 C904 1.391 . S
C906 C907 1.400 . S
C907 C906 1.400 . S
C907 C908 1.398 . S
C907 C913 1.491 . S
C908 H899 0.950 . S
C908 C907 1.398 . S
C908 C909 1.391 . S
C909 H897 0.950 . S
C909 C905 1.393 . S
C909 C908 1.391 . S
C910 H900 0.950 . S
C910 C911 1.386 . S
C910 C912 1.391 . S
C911 C910 1.386 . S
C911 C915 1.393 . S
C912 H901 0.950 . S
C912 C910 1.391 . S
C912 C913 1.400 . S
C913 C907 1.491 . S
C913 C912 1.400 . S
C913 C914 1.398 . S
C914 H902 0.950 . S
C914 C913 1.398 . S
C914 C915 1.391 . S
C915 H903 0.950 . S
C915 C911 1.393 . S
C915 C914 1.391 . S
H916 C924 0.950 . S
H917 C929 0.950 . S
H918 C926 0.950 . S
H919 C928 0.950 . S
H920 C930 0.950 1_554 S
H921 C932 0.950 . S
H922 C934 0.950 . S
H923 C935 0.950 . S
C924 H916 0.950 . S
C924 C925 1.386 . S
C924 C926 1.391 . S
C925 C924 1.386 . S
C925 C929 1.393 . S
C926 H918 0.950 . S
C926 C924 1.391 . S
C926 C927 1.400 . S
C927 C926 1.400 . S
C927 C928 1.398 . S
C927 C933 1.491 . S
C928 H919 0.950 . S
C928 C927 1.398 . S
C928 C929 1.391 . S
C929 H917 0.950 . S
C929 C925 1.393 . S
C929 C928 1.391 . S
C930 H920 0.950 1_556 S
C930 C931 1.386 . S
C930 C932 1.391 . S
C931 C930 1.386 . S
C931 C935 1.393 . S
C932 H921 0.950 . S
C932 C930 1.391 . S
C932 C933 1.400 . S
C933 C927 1.491 . S
C933 C932 1.400 . S
C933 C934 1.398 . S
C934 H922 0.950 . S
C934 C933 1.398 . S
C934 C935 1.391 . S
C935 H923 0.950 . S
C935 C931 1.393 . S
C935 C934 1.391 . S
H936 C944 0.950 . S
H937 C949 0.948 1_455 S
H938 C946 0.950 . S
H939 C948 0.950 . S
H940 C950 0.950 . S
H941 C952 0.950 . S
H942 C954 0.950 . S
H943 C955 0.950 . S
C944 H936 0.950 . S
C944 C945 1.386 . S
C944 C946 1.391 . S
C945 C944 1.386 . S
C945 C949 1.393 . S
C946 H938 0.950 . S
C946 C944 1.391 . S
C946 C947 1.400 . S
C947 C946 1.400 . S
C947 C948 1.398 . S
C947 C953 1.491 . S
C948 H939 0.950 . S
C948 C947 1.398 . S
C948 C949 1.391 . S
C949 H937 0.948 1_655 S
C949 C945 1.393 . S
C949 C948 1.391 . S
C950 H940 0.950 . S
C950 C951 1.386 . S
C950 C952 1.391 . S
C951 C950 1.386 . S
C951 C955 1.393 . S
C952 H941 0.950 . S
C952 C950 1.391 . S
C952 C953 1.400 . S
C953 C947 1.491 . S
C953 C952 1.400 . S
C953 C954 1.398 . S
C954 H942 0.950 . S
C954 C953 1.398 . S
C954 C955 1.391 . S
C955 H943 0.950 . S
C955 C951 1.393 . S
C955 C954 1.391 . S
H956 C964 0.950 . S
H957 C969 0.950 . S
H958 C966 0.950 . S
H959 C968 0.950 . S
H960 C970 0.950 . S
H961 C972 0.950 . S
H962 C974 0.950 . S
H963 C975 0.950 . S
C964 H956 0.950 . S
C964 C965 1.386 . S
C964 C966 1.391 . S
C965 C964 1.386 . S
C965 C969 1.393 . S
C966 H958 0.950 . S
C966 C964 1.391 . S
C966 C967 1.400 . S
C967 C966 1.400 . S
C967 C968 1.398 . S
C967 C973 1.491 . S
C968 H959 0.950 . S
C968 C967 1.398 . S
C968 C969 1.391 . S
C969 H957 0.950 . S
C969 C965 1.393 . S
C969 C968 1.391 . S
C970 H960 0.950 . S
C970 C971 1.386 . S
C970 C972 1.391 . S
C971 C970 1.386 . S
C971 C975 1.393 . S
C972 H961 0.950 . S
C972 C970 1.391 . S
C972 C973 1.400 . S
C973 C967 1.491 . S
C973 C972 1.400 . S
C973 C974 1.398 . S
C974 H962 0.950 . S
C974 C973 1.398 . S
C974 C975 1.391 . S
C975 H963 0.950 . S
C975 C971 1.393 . S
C975 C974 1.391 . S
H976 C984 0.950 . S
H977 C989 0.950 . S
H978 C986 0.950 . S
H979 C988 0.950 . S
H980 C990 0.950 . S
H981 C992 0.950 . S
H982 C994 0.950 . S
H983 C995 0.950 . S
C984 H976 0.950 . S
C984 C985 1.386 . S
C984 C986 1.391 . S
C985 C984 1.386 . S
C985 C989 1.393 . S
C986 H978 0.950 . S
C986 C984 1.391 . S
C986 C987 1.400 . S
C987 C986 1.400 . S
C987 C988 1.398 . S
C987 C993 1.491 . S
C988 H979 0.950 . S
C988 C987 1.398 . S
C988 C989 1.391 . S
C989 H977 0.950 . S
C989 C985 1.393 . S
C989 C988 1.391 . S
C990 H980 0.950 . S
C990 C991 1.386 . S
C990 C992 1.391 . S
C991 C990 1.386 . S
C991 C995 1.393 1_655 S
C992 H981 0.950 . S
C992 C990 1.391 . S
C992 C993 1.400 . S
C993 C987 1.491 . S
C993 C992 1.400 . S
C993 C994 1.398 . S
C994 H982 0.950 . S
C994 C993 1.398 . S
C994 C995 1.391 1_655 S
C995 H983 0.950 . S
C995 C991 1.393 1_455 S
C995 C994 1.391 1_455 S
H996 C1004 0.950 . S
H997 C1009 0.950 . S
H998 C1006 0.950 . S
H999 C1008 0.950 . S
H1000 C1010 0.950 . S
H1001 C1012 0.950 . S
H1002 C1014 0.950 . S
H1003 C1015 0.950 . S
C1004 H996 0.950 . S
C1004 C1005 1.386 . S
C1004 C1006 1.391 . S
C1005 C1004 1.386 . S
C1005 C1009 1.393 . S
C1006 H998 0.950 . S
C1006 C1004 1.391 . S
C1006 C1007 1.400 . S
C1007 C1006 1.400 . S
C1007 C1008 1.398 . S
C1007 C1013 1.491 . S
C1008 H999 0.950 . S
C1008 C1007 1.398 . S
C1008 C1009 1.391 . S
C1009 H997 0.950 . S
C1009 C1005 1.393 . S
C1009 C1008 1.391 . S
C1010 H1000 0.950 . S
C1010 C1011 1.386 . S
C1010 C1012 1.391 . S
C1011 C1010 1.386 . S
C1011 C1015 1.393 . S
C1012 H1001 0.950 . S
C1012 C1010 1.391 . S
C1012 C1013 1.400 . S
C1013 C1007 1.491 . S
C1013 C1012 1.400 . S
C1013 C1014 1.398 . S
C1014 H1002 0.950 . S
C1014 C1013 1.398 . S
C1014 C1015 1.391 . S
C1015 H1003 0.950 . S
C1015 C1011 1.393 . S
C1015 C1014 1.391 . S
H1016 C1024 0.950 . S
H1017 C1029 0.950 . S
H1018 C1026 0.950 . S
H1019 C1028 0.950 . S
H1020 C1030 0.950 . S
H1021 C1032 0.950 . S
H1022 C1034 0.950 . S
H1023 C1035 0.950 . S
C1024 H1016 0.950 . S
C1024 C1025 1.386 . S
C1024 C1026 1.391 . S
C1025 C1024 1.386 . S
C1025 C1029 1.393 . S
C1026 H1018 0.950 . S
C1026 C1024 1.391 . S
C1026 C1027 1.400 . S
C1027 C1026 1.400 . S
C1027 C1028 1.398 . S
C1027 C1033 1.491 . S
C1028 H1019 0.950 . S
C1028 C1027 1.398 . S
C1028 C1029 1.391 . S
C1029 H1017 0.950 . S
C1029 C1025 1.393 . S
C1029 C1028 1.391 . S
C1030 H1020 0.950 . S
C1030 C1031 1.386 . S
C1030 C1032 1.391 . S
C1031 C1030 1.386 . S
C1031 C1035 1.393 . S
C1032 H1021 0.950 . S
C1032 C1030 1.391 . S
C1032 C1033 1.400 . S
C1033 C1027 1.491 . S
C1033 C1032 1.400 . S
C1033 C1034 1.398 . S
C1034 H1022 0.950 . S
C1034 C1033 1.398 . S
C1034 C1035 1.391 . S
C1035 H1023 0.950 . S
C1035 C1031 1.393 . S
C1035 C1034 1.391 . S
H1036 C1044 0.950 1_556 S
H1037 C1049 0.950 . S
H1038 C1046 0.950 . S
H1039 C1048 0.950 . S
H1040 C1050 0.950 . S
H1041 C1052 0.950 . S
H1042 C1054 0.950 . S
H1043 C1055 0.950 . S
C1044 H1036 0.950 1_554 S
C1044 C1045 1.386 . S
C1044 C1046 1.391 . S
C1045 C1044 1.386 . S
C1045 C1049 1.393 . S
C1046 H1038 0.950 . S
C1046 C1044 1.391 . S
C1046 C1047 1.400 . S
C1047 C1046 1.400 . S
C1047 C1048 1.398 . S
C1047 C1053 1.491 . S
C1048 H1039 0.950 . S
C1048 C1047 1.398 . S
C1048 C1049 1.391 . S
C1049 H1037 0.950 . S
C1049 C1045 1.393 . S
C1049 C1048 1.391 . S
C1050 H1040 0.950 . S
C1050 C1051 1.386 . S
C1050 C1052 1.391 . S
C1051 C1050 1.386 . S
C1051 C1055 1.393 . S
C1052 H1041 0.950 . S
C1052 C1050 1.391 . S
C1052 C1053 1.400 . S
C1053 C1047 1.491 . S
C1053 C1052 1.400 . S
C1053 C1054 1.398 . S
C1054 H1042 0.950 . S
C1054 C1053 1.398 . S
C1054 C1055 1.391 . S
C1055 H1043 0.950 . S
C1055 C1051 1.393 . S
C1055 C1054 1.391 . S
H1056 C1064 0.950 . S
H1057 C1069 0.950 . S
H1058 C1066 0.950 . S
H1059 C1068 0.950 . S
H1060 C1070 0.950 . S
H1061 C1072 0.950 . S
H1062 C1074 0.950 . S
H1063 C1075 0.950 . S
C1064 H1056 0.950 . S
C1064 C1065 1.386 . S
C1064 C1066 1.391 . S
C1065 C1064 1.386 . S
C1065 C1069 1.393 . S
C1066 H1058 0.950 . S
C1066 C1064 1.391 . S
C1066 C1067 1.400 . S
C1067 C1066 1.400 . S
C1067 C1068 1.398 . S
C1067 C1073 1.491 . S
C1068 H1059 0.950 . S
C1068 C1067 1.398 . S
C1068 C1069 1.391 . S
C1069 H1057 0.950 . S
C1069 C1065 1.393 . S
C1069 C1068 1.391 . S
C1070 H1060 0.950 . S
C1070 C1071 1.386 . S
C1070 C1072 1.391 . S
C1071 C1070 1.386 . S
C1071 C1075 1.393 . S
C1072 H1061 0.950 . S
C1072 C1070 1.391 . S
C1072 C1073 1.400 . S
C1073 C1067 1.491 . S
C1073 C1072 1.400 . S
C1073 C1074 1.398 . S
C1074 H1062 0.950 . S
C1074 C1073 1.398 . S
C1074 C1075 1.391 . S
C1075 H1063 0.950 . S
C1075 C1071 1.393 . S
C1075 C1074 1.391 . S
H1076 C1084 0.950 . S
H1077 C1089 0.950 . S
H1078 C1086 0.950 . S
H1079 C1088 0.950 . S
H1080 C1090 0.950 . S
H1081 C1092 0.950 . S
H1082 C1094 0.950 . S
H1083 C1095 0.950 . S
C1084 H1076 0.950 . S
C1084 C1085 1.386 . S
C1084 C1086 1.391 . S
C1085 C1084 1.386 . S
C1085 C1089 1.393 . S
C1086 H1078 0.950 . S
C1086 C1084 1.391 . S
C1086 C1087 1.400 . S
C1087 C1086 1.400 . S
C1087 C1088 1.398 . S
C1087 C1093 1.491 . S
C1088 H1079 0.950 . S
C1088 C1087 1.398 . S
C1088 C1089 1.391 . S
C1089 H1077 0.950 . S
C1089 C1085 1.393 . S
C1089 C1088 1.391 . S
C1090 H1080 0.950 . S
C1090 C1091 1.386 . S
C1090 C1092 1.391 . S
C1091 C1090 1.386 . S
C1091 C1095 1.393 . S
C1092 H1081 0.950 . S
C1092 C1090 1.391 . S
C1092 C1093 1.400 . S
C1093 C1087 1.491 . S
C1093 C1092 1.400 . S
C1093 C1094 1.398 . S
C1094 H1082 0.950 . S
C1094 C1093 1.398 . S
C1094 C1095 1.391 . S
C1095 H1083 0.950 . S
C1095 C1091 1.393 . S
C1095 C1094 1.391 . S
H1096 C1104 0.950 . S
H1097 C1109 0.950 . S
H1098 C1106 0.950 . S
H1099 C1108 0.950 . S
H1100 C1110 0.950 . S
H1101 C1112 0.950 . S
H1102 C1114 0.950 . S
H1103 C1115 0.950 . S
C1104 H1096 0.950 . S
C1104 C1105 1.386 . S
C1104 C1106 1.391 . S
C1105 C1104 1.386 . S
C1105 C1109 1.393 . S
C1106 H1098 0.950 . S
C1106 C1104 1.391 . S
C1106 C1107 1.400 . S
C1107 C1106 1.400 . S
C1107 C1108 1.398 . S
C1107 C1113 1.491 . S
C1108 H1099 0.950 . S
C1108 C1107 1.398 . S
C1108 C1109 1.391 . S
C1109 H1097 0.950 . S
C1109 C1105 1.393 . S
C1109 C1108 1.391 . S
C1110 H1100 0.950 . S
C1110 C1111 1.386 . S
C1110 C1112 1.391 . S
C1111 C1110 1.386 . S
C1111 C1115 1.393 . S
C1112 H1101 0.950 . S
C1112 C1110 1.391 . S
C1112 C1113 1.400 . S
C1113 C1107 1.491 . S
C1113 C1112 1.400 . S
C1113 C1114 1.398 . S
C1114 H1102 0.950 . S
C1114 C1113 1.398 . S
C1114 C1115 1.391 . S
C1115 H1103 0.950 . S
C1115 C1111 1.393 . S
C1115 C1114 1.391 . S
H1116 C1124 0.950 . S
H1117 C1129 0.950 . S
H1118 C1126 0.950 . S
H1119 C1128 0.950 . S
H1120 C1130 0.950 . S
H1121 C1132 0.950 . S
H1122 C1134 0.950 . S
H1123 C1135 0.950 . S
C1124 H1116 0.950 . S
C1124 C1125 1.386 . S
C1124 C1126 1.391 . S
C1125 C1124 1.386 . S
C1125 C1129 1.393 . S
C1126 H1118 0.950 . S
C1126 C1124 1.391 . S
C1126 C1127 1.400 . S
C1127 C1126 1.400 . S
C1127 C1128 1.398 . S
C1127 C1133 1.491 . S
C1128 H1119 0.950 . S
C1128 C1127 1.398 . S
C1128 C1129 1.391 . S
C1129 H1117 0.950 . S
C1129 C1125 1.393 . S
C1129 C1128 1.391 . S
C1130 H1120 0.950 . S
C1130 C1131 1.386 . S
C1130 C1132 1.391 . S
C1131 C1130 1.386 . S
C1131 C1135 1.393 . S
C1132 H1121 0.950 . S
C1132 C1130 1.391 . S
C1132 C1133 1.400 . S
C1133 C1127 1.491 . S
C1133 C1132 1.400 . S
C1133 C1134 1.398 . S
C1134 H1122 0.950 . S
C1134 C1133 1.398 . S
C1134 C1135 1.391 . S
C1135 H1123 0.950 . S
C1135 C1131 1.393 . S
C1135 C1134 1.391 . S
H1136 C1144 0.950 . S
H1137 C1149 0.950 . S
H1138 C1146 0.950 . S
H1139 C1148 0.950 . S
H1140 C1150 0.950 . S
H1141 C1152 0.950 . S
H1142 C1154 0.950 . S
H1143 C1155 0.950 . S
C1144 H1136 0.950 . S
C1144 C1145 1.386 . S
C1144 C1146 1.391 . S
C1145 C1144 1.386 . S
C1145 C1149 1.393 . S
C1146 H1138 0.950 . S
C1146 C1144 1.391 . S
C1146 C1147 1.400 . S
C1147 C1146 1.400 . S
C1147 C1148 1.398 . S
C1147 C1153 1.491 . S
C1148 H1139 0.950 . S
C1148 C1147 1.398 . S
C1148 C1149 1.391 . S
C1149 H1137 0.950 . S
C1149 C1145 1.393 . S
C1149 C1148 1.391 . S
C1150 H1140 0.950 . S
C1150 C1151 1.386 . S
C1150 C1152 1.391 . S
C1151 C1150 1.386 . S
C1151 C1155 1.393 . S
C1152 H1141 0.950 . S
C1152 C1150 1.391 . S
C1152 C1153 1.400 . S
C1153 C1147 1.491 . S
C1153 C1152 1.400 . S
C1153 C1154 1.398 . S
C1154 H1142 0.950 . S
C1154 C1153 1.398 . S
C1154 C1155 1.391 . S
C1155 H1143 0.950 . S
C1155 C1151 1.393 . S
C1155 C1154 1.391 . S
H1156 C1164 0.950 . S
H1157 C1169 0.950 . S
H1158 C1166 0.950 . S
H1159 C1168 0.950 . S
H1160 C1170 0.950 . S
H1161 C1172 0.950 . S
H1162 C1174 0.950 . S
H1163 C1175 0.950 . S
C1164 H1156 0.950 . S
C1164 C1165 1.386 . S
C1164 C1166 1.391 . S
C1165 C1164 1.386 . S
C1165 C1169 1.393 . S
C1166 H1158 0.950 . S
C1166 C1164 1.391 . S
C1166 C1167 1.400 . S
C1167 C1166 1.400 . S
C1167 C1168 1.398 . S
C1167 C1173 1.491 . S
C1168 H1159 0.950 . S
C1168 C1167 1.398 . S
C1168 C1169 1.391 . S
C1169 H1157 0.950 . S
C1169 C1165 1.393 . S
C1169 C1168 1.391 . S
C1170 H1160 0.950 . S
C1170 C1171 1.386 . S
C1170 C1172 1.391 . S
C1171 C1170 1.386 . S
C1171 C1175 1.393 . S
C1172 H1161 0.950 . S
C1172 C1170 1.391 . S
C1172 C1173 1.400 . S
C1173 C1167 1.491 . S
C1173 C1172 1.400 . S
C1173 C1174 1.398 . S
C1174 H1162 0.950 . S
C1174 C1173 1.398 . S
C1174 C1175 1.391 . S
C1175 H1163 0.950 . S
C1175 C1171 1.393 . S
C1175 C1174 1.391 . S
H1176 C1184 0.950 . S
H1177 C1189 0.950 . S
H1178 C1186 0.950 . S
H1179 C1188 0.950 . S
H1180 C1190 0.950 . S
H1181 C1192 0.950 . S
H1182 C1194 0.950 . S
H1183 C1195 0.950 . S
C1184 H1176 0.950 . S
C1184 C1185 1.386 . S
C1184 C1186 1.391 . S
C1185 C1184 1.386 . S
C1185 C1189 1.393 . S
C1186 H1178 0.950 . S
C1186 C1184 1.391 . S
C1186 C1187 1.400 . S
C1187 C1186 1.400 . S
C1187 C1188 1.398 . S
C1187 C1193 1.491 . S
C1188 H1179 0.950 . S
C1188 C1187 1.398 . S
C1188 C1189 1.391 . S
C1189 H1177 0.950 . S
C1189 C1185 1.393 . S
C1189 C1188 1.391 . S
C1190 H1180 0.950 . S
C1190 C1191 1.386 . S
C1190 C1192 1.391 . S
C1191 C1190 1.386 . S
C1191 C1195 1.393 . S
C1192 H1181 0.950 . S
C1192 C1190 1.391 . S
C1192 C1193 1.400 . S
C1193 C1187 1.491 . S
C1193 C1192 1.400 . S
C1193 C1194 1.398 . S
C1194 H1182 0.950 . S
C1194 C1193 1.398 . S
C1194 C1195 1.391 . S
C1195 H1183 0.950 . S
C1195 C1191 1.393 . S
C1195 C1194 1.391 . S
H1196 C1204 0.950 . S
H1197 C1209 0.950 . S
H1198 C1206 0.950 1_556 S
H1199 C1208 0.950 1_655 S
H1200 C1210 0.950 . S
H1201 C1212 0.950 1_554 S
H1202 C1214 0.950 1_455 S
H1203 C1215 0.950 . S
C1204 H1196 0.950 . S
C1204 C1205 1.386 . S
C1204 C1206 1.391 . S
C1205 C1204 1.386 . S
C1205 C1209 1.393 . S
C1206 H1198 0.950 1_554 S
C1206 C1204 1.391 . S
C1206 C1207 1.400 . S
C1207 C1206 1.400 . S
C1207 C1208 1.398 . S
C1207 C1213 1.491 1_454 S
C1208 H1199 0.950 1_455 S
C1208 C1207 1.398 . S
C1208 C1209 1.391 . S
C1209 H1197 0.950 . S
C1209 C1205 1.393 . S
C1209 C1208 1.391 . S
C1210 H1200 0.950 . S
C1210 C1211 1.386 . S
C1210 C1212 1.391 . S
C1211 C1210 1.386 . S
C1211 C1215 1.393 . S
C1212 H1201 0.950 1_556 S
C1212 C1210 1.391 . S
C1212 C1213 1.400 . S
C1213 C1207 1.491 1_656 S
C1213 C1212 1.400 . S
C1213 C1214 1.398 . S
C1214 H1202 0.950 1_655 S
C1214 C1213 1.398 . S
C1214 C1215 1.391 . S
C1215 H1203 0.950 . S
C1215 C1211 1.393 . S
C1215 C1214 1.391 . S
H1216 C1224 0.950 . S
H1217 C1229 0.950 . S
H1218 C1226 0.950 . S
H1219 C1228 0.950 . S
H1220 C1230 0.950 . S
H1221 C1232 0.950 . S
H1222 C1234 0.950 . S
H1223 C1235 0.950 . S
C1224 H1216 0.950 . S
C1224 C1225 1.386 . S
C1224 C1226 1.391 . S
C1225 C1224 1.386 . S
C1225 C1229 1.393 . S
C1226 H1218 0.950 . S
C1226 C1224 1.391 . S
C1226 C1227 1.400 . S
C1227 C1226 1.400 . S
C1227 C1228 1.398 . S
C1227 C1233 1.491 . S
C1228 H1219 0.950 . S
C1228 C1227 1.398 . S
C1228 C1229 1.391 . S
C1229 H1217 0.950 . S
C1229 C1225 1.393 . S
C1229 C1228 1.391 . S
C1230 H1220 0.950 . S
C1230 C1231 1.386 . S
C1230 C1232 1.391 . S
C1231 C1230 1.386 . S
C1231 C1235 1.393 . S
C1232 H1221 0.950 . S
C1232 C1230 1.391 . S
C1232 C1233 1.400 . S
C1233 C1227 1.491 . S
C1233 C1232 1.400 . S
C1233 C1234 1.398 . S
C1234 H1222 0.950 . S
C1234 C1233 1.398 . S
C1234 C1235 1.391 . S
C1235 H1223 0.950 . S
C1235 C1231 1.393 . S
C1235 C1234 1.391 . S
H1236 C1244 0.950 . S
H1237 C1249 0.950 . S
H1238 C1246 0.950 . S
H1239 C1248 0.950 . S
H1240 C1250 0.950 . S
H1241 C1252 0.950 . S
H1242 C1254 0.950 . S
H1243 C1255 0.950 . S
C1244 H1236 0.950 . S
C1244 C1245 1.386 . S
C1244 C1246 1.391 . S
C1245 C1244 1.386 . S
C1245 C1249 1.393 . S
C1246 H1238 0.950 . S
C1246 C1244 1.391 . S
C1246 C1247 1.400 . S
C1247 C1246 1.400 . S
C1247 C1248 1.398 . S
C1247 C1253 1.491 . S
C1248 H1239 0.950 . S
C1248 C1247 1.398 . S
C1248 C1249 1.391 . S
C1249 H1237 0.950 . S
C1249 C1245 1.393 . S
C1249 C1248 1.391 . S
C1250 H1240 0.950 . S
C1250 C1251 1.386 . S
C1250 C1252 1.391 . S
C1251 C1250 1.386 . S
C1251 C1255 1.393 . S
C1252 H1241 0.950 . S
C1252 C1250 1.391 . S
C1252 C1253 1.400 . S
C1253 C1247 1.491 . S
C1253 C1252 1.400 . S
C1253 C1254 1.398 . S
C1254 H1242 0.950 . S
C1254 C1253 1.398 . S
C1254 C1255 1.391 . S
C1255 H1243 0.950 . S
C1255 C1251 1.393 . S
C1255 C1254 1.391 . S
H1256 C1264 0.950 . S
H1257 C1269 0.950 1_655 S
H1258 C1266 0.950 1_554 S
H1259 C1268 0.950 . S
H1260 C1270 0.950 . S
H1261 C1272 0.950 1_556 S
H1262 C1274 0.950 . S
H1263 C1275 0.950 1_455 S
C1264 H1256 0.950 . S
C1264 C1265 1.386 . S
C1264 C1266 1.391 . S
C1265 C1264 1.386 . S
C1265 C1269 1.393 . S
C1266 H1258 0.950 1_556 S
C1266 C1264 1.391 . S
C1266 C1267 1.400 . S
C1267 C1266 1.400 . S
C1267 C1268 1.398 1_455 S
C1267 C1273 1.491 1_446 S
C1268 H1259 0.950 . S
C1268 C1267 1.398 1_655 S
C1268 C1269 1.391 1_655 S
C1269 H1257 0.950 1_455 S
C1269 C1265 1.393 . S
C1269 C1268 1.391 1_455 S
C1270 H1260 0.950 . S
C1270 C1271 1.386 . S
C1270 C1272 1.391 . S
C1271 C1270 1.386 . S
C1271 C1275 1.393 . S
C1272 H1261 0.950 1_554 S
C1272 C1270 1.391 . S
C1272 C1273 1.400 . S
C1273 C1267 1.491 1_664 S
C1273 C1272 1.400 . S
C1273 C1274 1.398 1_655 S
C1274 H1262 0.950 . S
C1274 C1273 1.398 1_455 S
C1274 C1275 1.391 1_455 S
C1275 H1263 0.950 1_655 S
C1275 C1271 1.393 . S
C1275 C1274 1.391 1_655 S
H1276 C1284 0.950 . S
H1277 C1289 0.950 . S
H1278 C1286 0.950 . S
H1279 C1288 0.950 . S
H1280 C1290 0.950 . S
H1281 C1292 0.950 . S
H1282 C1294 0.950 . S
H1283 C1295 0.950 . S
C1284 H1276 0.950 . S
C1284 C1285 1.386 . S
C1284 C1286 1.391 . S
C1285 C1284 1.386 . S
C1285 C1289 1.393 . S
C1286 H1278 0.950 . S
C1286 C1284 1.391 . S
C1286 C1287 1.400 . S
C1287 C1286 1.400 . S
C1287 C1288 1.398 . S
C1287 C1293 1.491 1_545 S
C1288 H1279 0.950 . S
C1288 C1287 1.398 . S
C1288 C1289 1.391 . S
C1289 H1277 0.950 . S
C1289 C1285 1.393 . S
C1289 C1288 1.391 . S
C1290 H1280 0.950 . S
C1290 C1291 1.386 . S
C1290 C1292 1.391 . S
C1291 C1290 1.386 . S
C1291 C1295 1.393 . S
C1292 H1281 0.950 . S
C1292 C1290 1.391 . S
C1292 C1293 1.400 . S
C1293 C1287 1.491 1_565 S
C1293 C1292 1.400 . S
C1293 C1294 1.398 . S
C1294 H1282 0.950 . S
C1294 C1293 1.398 . S
C1294 C1295 1.391 . S
C1295 H1283 0.950 . S
C1295 C1291 1.393 . S
C1295 C1294 1.391 . S
C345 C16 1.237 . S
C351 C213 1.214 . S
C365 C37 1.201 . S
C371 C247 1.217 . S
C385 C45 1.210 . S
C391 C184 1.202 . S
C405 C79 1.224 . S
C411 C192 1.239 . S
C425 C87 1.201 . S
C431 C297 1.214 . S
C445 C108 1.239 . S
C451 C318 1.220 . S
C465 C129 1.218 . S
C471 C255 1.238 . S
C485 C163 1.227 . S
C491 C276 1.204 . S
C505 C193 1.395 . S
C511 C20 1.339 . S
C525 C214 1.389 . S
C531 C41 1.330 . S
C545 C238 1.389 . S
C551 C61 1.330 . S
C565 C175 1.420 . S
C571 C83 1.369 . S
C585 C103 1.374 . S
C591 C277 1.425 . S
C605 C298 1.410 . S
C611 C124 1.357 . S
C625 C319 1.411 . S
C631 C145 1.355 . S
C645 C256 1.393 . S
C651 C167 1.334 . S
C665 C28 1.391 . S
C671 C188 1.333 . S
C685 C208 1.373 . S
C691 C46 1.425 . S
C705 C229 1.337 . S
C711 C70 1.395 . S
C725 C251 1.369 . S
C731 C7 1.420 . S
C745 C271 1.364 . S
C751 C109 1.418 . S
C765 C130 1.424 . S
C771 C292 1.372 . S
C785 C154 1.388 . S
C791 C313 1.330 . S
C805 C334 1.331 . S
C811 C88 1.389 . S
C825 C3 0.898 . S
C831 C322 0.912 . S
C845 C24 0.890 . S
C851 C91 0.909 . S
C865 C280 0.909 1_455 S
C871 C58 0.905 . S
C885 C133 0.874 . S
C891 C66 0.847 . S
C905 C100 0.895 . S
C911 C235 0.911 . S
C925 C121 0.839 . S
C931 C4 0.863 . S
C945 C196 0.850 1_655 S
C951 C142 0.855 . S
C965 C49 0.844 . S
C971 C150 0.841 . S
C985 C171 0.891 . S
C991 C151 0.882 1_655 S
C1005 C205 0.902 . S
C1011 C259 0.898 . S
C1025 C112 0.912 . S
C1031 C226 0.902 . S
C1045 C301 0.848 . S
C1051 C234 0.832 . S
C1065 C268 0.851 . S
C1071 C67 0.848 1_455 S
C1085 C289 0.834 . S
C1091 C172 0.844 . S
C1105 C310 0.838 . S
C1111 C25 0.843 . S
C1125 C217 0.845 . S
C1131 C331 0.833 . S
C1145 C19 1.331 . S
C1151 C272 1.331 . S
C1165 C40 1.332 . S
C1171 C125 1.332 . S
C1185 C62 1.361 . S
C1191 C314 1.361 . S
C1205 C166 1.354 . S
C1211 C82 1.354 . S
C1225 C104 1.329 . S
C1231 C187 1.329 . S
C1245 C230 1.355 . S
C1251 C146 1.355 . S
C1265 C209 1.329 . S
C1271 C293 1.329 . S
C1285 C335 1.363 . S
C1291 C250 1.363 . S
