# Generated by pormake.
# Topology unm, (4)-cn, num edge types: 1
# Building blocks:
#     Node 0, Type 0, BuildingBlock: KUFVIS_clean_sbu_0, # of connection points: 4
#     Node 1, Type 0, BuildingBlock: KUFVIS_clean_sbu_0, # of connection points: 4
#     Node 2, Type 0, BuildingBlock: KUFVIS_clean_sbu_0, # of connection points: 4
#     Node 3, Type 0, BuildingBlock: KUFVIS_clean_sbu_0, # of connection points: 4
#     Node 4, Type 0, BuildingBlock: KUFVIS_clean_sbu_0, # of connection points: 4
#     Node 5, Type 0, BuildingBlock: KUFVIS_clean_sbu_0, # of connection points: 4
#     Node 6, Type 0, BuildingBlock: KUFVIS_clean_sbu_0, # of connection points: 4
#     Node 7, Type 0, BuildingBlock: KUFVIS_clean_sbu_0, # of connection points: 4
#     Edge 8, Type (0, 0), BuildingBlock: OJICUG_clean_linker_0, # of connection points: 2
#     Edge 9, Type (0, 0), BuildingBlock: OJICUG_clean_linker_0, # of connection points: 2
#     Edge 10, Type (0, 0), BuildingBlock: OJICUG_clean_linker_0, # of connection points: 2
#     Edge 11, Type (0, 0), BuildingBlock: OJICUG_clean_linker_0, # of connection points: 2
#     Edge 12, Type (0, 0), BuildingBlock: OJICUG_clean_linker_0, # of connection points: 2
#     Edge 13, Type (0, 0), BuildingBlock: OJICUG_clean_linker_0, # of connection points: 2
#     Edge 14, Type (0, 0), BuildingBlock: OJICUG_clean_linker_0, # of connection points: 2
#     Edge 15, Type (0, 0), BuildingBlock: OJICUG_clean_linker_0, # of connection points: 2
#     Edge 16, Type (0, 0), BuildingBlock: OJICUG_clean_linker_0, # of connection points: 2
#     Edge 17, Type (0, 0), BuildingBlock: OJICUG_clean_linker_0, # of connection points: 2
#     Edge 18, Type (0, 0), BuildingBlock: OJICUG_clean_linker_0, # of connection points: 2
#     Edge 19, Type (0, 0), BuildingBlock: OJICUG_clean_linker_0, # of connection points: 2
#     Edge 20, Type (0, 0), BuildingBlock: OJICUG_clean_linker_0, # of connection points: 2
#     Edge 21, Type (0, 0), BuildingBlock: OJICUG_clean_linker_0, # of connection points: 2
#     Edge 22, Type (0, 0), BuildingBlock: OJICUG_clean_linker_0, # of connection points: 2
#     Edge 23, Type (0, 0), BuildingBlock: OJICUG_clean_linker_0, # of connection points: 2
# Relax obj value: 0.131
# Max RMSD: 0.132
# Mean RMSD: 0.132
data_MOF--net-unm--node1-KUFVIS_clean_sbu_0--edge1-OJICUG_clean_linker_0
_symmetry_space_group_name_H-M    P1
_symmetry_Int_Tables_number       1
_symmetry_cell_setting            triclinic
loop_
_symmetry_equiv_pos_as_xyz
'x, y, z'
_cell_length_a     18.273861
_cell_length_b     18.273086
_cell_length_c     31.993878
_cell_angle_alpha  90.026839
_cell_angle_beta   90.031715
_cell_angle_gamma 90.065245
loop_
_atom_site_label
_atom_site_type_symbol
_atom_site_fract_x
_atom_site_fract_y
_atom_site_fract_z
_atom_type_partial_charge
Mn0 Mn 0.1949 0.31262 0.19355 0.0
Mn1 Mn 0.27522 0.46844 0.1617 0.0
C2 C 0.12585 0.40596 0.16571 0.0
C3 C 0.1256 0.25396 0.24633 0.0
C4 C 0.26578 0.33256 0.10744 0.0
O5 O 0.29718 0.30442 0.22019 0.0
O6 O 0.34654 0.40817 0.19456 0.0
C7 C 0.28904 0.53064 0.2467 0.0
N8 N 0.26356 0.53599 0.2068 0.0
C9 C 0.19874 0.64689 0.22303 0.0
C10 C 0.22502 0.64274 0.26409 0.0
C11 C 0.27026 0.58443 0.27601 0.0
C12 C 0.2189 0.59136 0.19526 0.0
H13 H 0.32237 0.48512 0.25635 0.0
C14 C 0.35104 0.3489 0.21582 0.0
O15 O 0.15497 0.21637 0.21607 0.0
O16 O 0.14561 0.32141 0.24873 0.0
N17 N 0.21426 0.5339 0.13051 0.0
C18 C 0.19928 0.53331 0.0888 0.0
C19 C 0.15602 0.5891 0.07147 0.0
C20 C 0.13009 0.6459 0.09705 0.0
C21 C 0.14965 0.64754 0.13941 0.0
C22 C 0.19352 0.59075 0.15475 0.0
H23 H 0.22072 0.49101 0.06888 0.0
O24 O 0.10135 0.33977 0.16624 0.0
O25 O 0.1901 0.41587 0.18228 0.0
O26 O 0.23779 0.28985 0.13505 0.0
O27 O 0.28249 0.39978 0.11402 0.0
C28 C 0.12865 0.70407 0.16681 0.0
C29 C 0.15305 0.70364 0.20863 0.0
H30 H 0.21016 0.68341 0.28686 0.0
H31 H 0.29002 0.58056 0.30783 0.0
H32 H 0.14283 0.58837 0.0385 0.0
H33 H 0.09645 0.68868 0.08366 0.0
H34 H 0.09433 0.74848 0.15596 0.0
H35 H 0.13709 0.74776 0.22922 0.0
Mn36 Mn 0.21122 0.69363 0.69298 0.0
Mn37 Mn 0.05295 0.77445 0.66613 0.0
C38 C 0.11572 0.62452 0.66769 0.0
C39 C 0.27184 0.62511 0.74572 0.0
C40 C 0.18608 0.7702 0.60893 0.0
O41 O 0.22163 0.79662 0.71875 0.0
O42 O 0.11218 0.84373 0.7006 0.0
C43 C 0.98933 0.78172 0.75092 0.0
N44 N 0.98542 0.75802 0.71062 0.0
C45 C 0.8734 0.69317 0.7242 0.0
C46 C 0.87608 0.7174 0.76573 0.0
C47 C 0.93423 0.76175 0.77919 0.0
C48 C 0.92998 0.71471 0.69748 0.0
H49 H 0.03438 0.81513 0.76152 0.0
C50 C 0.1748 0.84897 0.71834 0.0
O51 O 0.30821 0.65277 0.71447 0.0
O52 O 0.20495 0.64611 0.7488 0.0
N53 N 0.98913 0.7146 0.63315 0.0
C54 C 0.9925 0.69998 0.59141 0.0
C55 C 0.93718 0.6577 0.57271 0.0
C56 C 0.8787 0.63156 0.597 0.0
C57 C 0.87526 0.64929 0.6396 0.0
C58 C 0.93148 0.69241 0.65636 0.0
H59 H 0.03721 0.7201 0.57258 0.0
O60 O 0.18165 0.59954 0.66698 0.0
O61 O 0.10744 0.68898 0.68422 0.0
O62 O 0.22972 0.73541 0.63345 0.0
O63 O 0.12081 0.78877 0.61906 0.0
C64 C 0.81782 0.62667 0.66598 0.0
C65 C 0.81694 0.64852 0.70827 0.0
H66 H 0.83408 0.7021 0.78762 0.0
H67 H 0.9367 0.78025 0.81129 0.0
H68 H 0.93981 0.64498 0.53971 0.0
H69 H 0.83645 0.59849 0.58254 0.0
H70 H 0.77381 0.59287 0.654 0.0
H71 H 0.7722 0.63124 0.7281 0.0
Mn72 Mn 0.82579 0.70707 0.19361 0.0
Mn73 Mn 0.74552 0.55129 0.16151 0.0
C74 C 0.89486 0.61381 0.16569 0.0
C75 C 0.8951 0.76572 0.24645 0.0
C76 C 0.75482 0.68734 0.10746 0.0
O77 O 0.72354 0.71513 0.22023 0.0
O78 O 0.67418 0.61142 0.19444 0.0
C79 C 0.73168 0.48871 0.24638 0.0
N80 N 0.75722 0.48357 0.2065 0.0
C81 C 0.82204 0.37259 0.22256 0.0
C82 C 0.79567 0.37651 0.26359 0.0
C83 C 0.7504 0.43476 0.2756 0.0
C84 C 0.80189 0.42826 0.19489 0.0
H85 H 0.69831 0.53417 0.25609 0.0
C86 C 0.66969 0.67064 0.21579 0.0
O87 O 0.86565 0.80331 0.21622 0.0
O88 O 0.87516 0.69825 0.24879 0.0
N89 N 0.80651 0.48598 0.13024 0.0
C90 C 0.82156 0.48677 0.08855 0.0
C91 C 0.86487 0.43107 0.07116 0.0
C92 C 0.8908 0.37417 0.09665 0.0
C93 C 0.8712 0.37234 0.13899 0.0
C94 C 0.82728 0.42904 0.15439 0.0
H95 H 0.80015 0.52916 0.0687 0.0
O96 O 0.91932 0.68001 0.16629 0.0
O97 O 0.83062 0.60384 0.18222 0.0
O98 O 0.78282 0.72996 0.13513 0.0
O99 O 0.73815 0.62009 0.11393 0.0
C100 C 0.89221 0.3157 0.1663 0.0
C101 C 0.86778 0.31593 0.2081 0.0
H102 H 0.81044 0.33569 0.28627 0.0
H103 H 0.73058 0.43846 0.30739 0.0
H104 H 0.8781 0.43196 0.0382 0.0
H105 H 0.92447 0.33147 0.08321 0.0
H106 H 0.92657 0.27137 0.15539 0.0
H107 H 0.88376 0.27175 0.22862 0.0
Mn108 Mn 0.80936 0.32696 0.693 0.0
Mn109 Mn 0.96762 0.24605 0.66631 0.0
C110 C 0.90482 0.39599 0.66769 0.0
C111 C 0.74882 0.39571 0.74569 0.0
C112 C 0.83446 0.24998 0.60905 0.0
O113 O 0.79898 0.22409 0.71886 0.0
O114 O 0.90845 0.17693 0.70085 0.0
C115 C 0.03128 0.23935 0.75114 0.0
N116 N 0.03517 0.26278 0.7108 0.0
C117 C 0.14707 0.32791 0.72436 0.0
C118 C 0.1444 0.30397 0.76593 0.0
C119 C 0.08632 0.2596 0.77942 0.0
C120 C 0.09054 0.30609 0.69764 0.0
H121 H 0.98627 0.20594 0.76176 0.0
C122 C 0.84583 0.17176 0.71855 0.0
O123 O 0.7124 0.36793 0.71446 0.0
O124 O 0.81572 0.37471 0.74879 0.0
N125 N 0.03137 0.30576 0.63327 0.0
C126 C 0.02796 0.32015 0.59152 0.0
C127 C 0.08322 0.36238 0.57278 0.0
C128 C 0.14168 0.38874 0.59707 0.0
C129 C 0.14516 0.37125 0.6397 0.0
C130 C 0.08901 0.32814 0.65648 0.0
H131 H 0.98326 0.29988 0.57269 0.0
O132 O 0.83888 0.42095 0.66693 0.0
O133 O 0.91312 0.3316 0.68427 0.0
O134 O 0.79083 0.28493 0.6335 0.0
O135 O 0.89972 0.23144 0.61923 0.0
C136 C 0.20256 0.39413 0.66608 0.0
C137 C 0.20346 0.37256 0.70841 0.0
H138 H 0.18634 0.31952 0.78784 0.0
H139 H 0.08386 0.24133 0.81156 0.0
H140 H 0.08055 0.37492 0.53977 0.0
H141 H 0.18387 0.42178 0.58259 0.0
H142 H 0.24651 0.42794 0.65408 0.0
H143 H 0.24816 0.39005 0.72825 0.0
Mn144 Mn 0.69391 0.21079 0.35102 0.0
Mn145 Mn 0.77471 0.05239 0.37756 0.0
C146 C 0.62481 0.11521 0.37611 0.0
C147 C 0.62533 0.2716 0.29836 0.0
C148 C 0.7704 0.18521 0.43508 0.0
O149 O 0.79687 0.22132 0.32531 0.0
O150 O 0.84397 0.11181 0.34327 0.0
C151 C 0.78177 0.98937 0.29259 0.0
N152 N 0.75825 0.98513 0.33289 0.0
C153 C 0.69327 0.87326 0.31898 0.0
C154 C 0.71729 0.8763 0.27744 0.0
C155 C 0.76164 0.93454 0.26415 0.0
C156 C 0.71494 0.92962 0.34587 0.0
H157 H 0.81515 0.0345 0.28212 0.0
C158 C 0.84921 0.17449 0.32564 0.0
O159 O 0.65299 0.30786 0.32969 0.0
O160 O 0.64637 0.20473 0.29517 0.0
N161 N 0.7149 0.98836 0.41037 0.0
C162 C 0.70037 0.99144 0.45211 0.0
C163 C 0.65812 0.93599 0.47066 0.0
C164 C 0.63194 0.87767 0.44621 0.0
C165 C 0.6496 0.87451 0.4036 0.0
C166 C 0.6927 0.93084 0.387 0.0
H167 H 0.72051 0.03602 0.47107 0.0
O168 O 0.59983 0.18115 0.37692 0.0
O169 O 0.68924 0.10698 0.35957 0.0
O170 O 0.73571 0.22901 0.41061 0.0
O171 O 0.78899 0.11999 0.42482 0.0
C172 C 0.62694 0.81725 0.37707 0.0
C173 C 0.64869 0.81667 0.33477 0.0
H174 H 0.70179 0.83456 0.25539 0.0
H175 H 0.77998 0.93729 0.23203 0.0
H176 H 0.64545 0.9384 0.50367 0.0
H177 H 0.59889 0.83533 0.46054 0.0
H178 H 0.59318 0.77315 0.38892 0.0
H179 H 0.63139 0.77205 0.31483 0.0
Mn180 Mn 0.31291 0.19482 0.85053 0.0
Mn181 Mn 0.46868 0.27523 0.88253 0.0
C182 C 0.40629 0.12583 0.87838 0.0
C183 C 0.25423 0.1255 0.7977 0.0
C184 C 0.33279 0.2657 0.93669 0.0
O185 O 0.30467 0.2971 0.82395 0.0
O186 O 0.4084 0.34653 0.84966 0.0
C187 C 0.53105 0.28924 0.79762 0.0
N188 N 0.5363 0.26367 0.83748 0.0
C189 C 0.64741 0.19914 0.82135 0.0
C190 C 0.64338 0.22555 0.78033 0.0
C191 C 0.585 0.27069 0.76837 0.0
C192 C 0.59173 0.2191 0.84905 0.0
H193 H 0.48549 0.32252 0.78794 0.0
C194 C 0.34913 0.35098 0.82836 0.0
O195 O 0.21667 0.15488 0.82795 0.0
O196 O 0.32168 0.14552 0.79533 0.0
N197 N 0.53415 0.2143 0.91374 0.0
C198 C 0.5335 0.19925 0.95543 0.0
C199 C 0.58931 0.15603 0.97278 0.0
C200 C 0.6462 0.13023 0.94725 0.0
C201 C 0.64791 0.14987 0.90491 0.0
C202 C 0.59107 0.19366 0.88954 0.0
H203 H 0.49113 0.2206 0.97532 0.0
O204 O 0.34012 0.10129 0.8778 0.0
O205 O 0.41617 0.19009 0.86185 0.0
O206 O 0.29012 0.2377 0.90903 0.0
O207 O 0.39999 0.28246 0.93016 0.0
C208 C 0.70456 0.12904 0.87757 0.0
C209 C 0.70422 0.15354 0.83579 0.0
H210 H 0.68421 0.21092 0.75763 0.0
H211 H 0.58122 0.29056 0.73659 0.0
H212 H 0.58852 0.14278 1.00574 0.0
H213 H 0.689 0.09664 0.96065 0.0
H214 H 0.74901 0.09479 0.88844 0.0
H215 H 0.74844 0.13774 0.81525 0.0
Mn216 Mn 0.32704 0.80882 0.35101 0.0
Mn217 Mn 0.24645 0.96733 0.37759 0.0
C218 C 0.39629 0.90435 0.37612 0.0
C219 C 0.3955 0.74794 0.29832 0.0
C220 C 0.25065 0.83452 0.43505 0.0
O221 O 0.22402 0.79837 0.3253 0.0
O222 O 0.17706 0.90797 0.34328 0.0
C223 C 0.23925 0.03037 0.29265 0.0
N224 N 0.26291 0.03456 0.33295 0.0
C225 C 0.32791 0.1464 0.31911 0.0
C226 C 0.30375 0.14342 0.27757 0.0
C227 C 0.25932 0.08522 0.26425 0.0
C228 C 0.30629 0.09004 0.34596 0.0
H229 H 0.2058 0.98527 0.28216 0.0
C230 C 0.17172 0.84525 0.32565 0.0
O231 O 0.36787 0.7117 0.32964 0.0
O232 O 0.37448 0.81481 0.29516 0.0
N233 N 0.3064 0.0313 0.41042 0.0
C234 C 0.32103 0.0282 0.45216 0.0
C235 C 0.36337 0.0836 0.47074 0.0
C236 C 0.38956 0.1419 0.44632 0.0
C237 C 0.37179 0.14508 0.40371 0.0
C238 C 0.32862 0.08879 0.38708 0.0
H239 H 0.30089 0.98363 0.4711 0.0
O240 O 0.4212 0.83839 0.37693 0.0
O241 O 0.33183 0.91263 0.35959 0.0
O242 O 0.28531 0.79068 0.41059 0.0
O243 O 0.23215 0.89976 0.42481 0.0
C244 C 0.39444 0.20233 0.37721 0.0
C245 C 0.37258 0.20294 0.33492 0.0
H246 H 0.31918 0.18518 0.25555 0.0
H247 H 0.24086 0.08252 0.23214 0.0
H248 H 0.37612 0.08117 0.50375 0.0
H249 H 0.42267 0.18421 0.46067 0.0
H250 H 0.42827 0.2464 0.38909 0.0
H251 H 0.38986 0.24756 0.31501 0.0
Mn252 Mn 0.7077 0.82604 0.85072 0.0
Mn253 Mn 0.55188 0.74559 0.88247 0.0
C254 C 0.61428 0.895 0.87853 0.0
C255 C 0.76639 0.89545 0.798 0.0
C256 C 0.68769 0.75502 0.9368 0.0
O257 O 0.71598 0.7238 0.82405 0.0
O258 O 0.61225 0.67433 0.84963 0.0
C259 C 0.48972 0.73162 0.79746 0.0
N260 N 0.48437 0.75719 0.83733 0.0
C261 C 0.37333 0.82177 0.82108 0.0
C262 C 0.37748 0.79539 0.78005 0.0
C263 C 0.43586 0.75022 0.76814 0.0
C264 C 0.42893 0.80177 0.84885 0.0
H265 H 0.53528 0.69831 0.78783 0.0
C266 C 0.67154 0.6699 0.82838 0.0
O267 O 0.80395 0.86607 0.82826 0.0
O268 O 0.69896 0.8754 0.79556 0.0
N269 N 0.48634 0.80651 0.91363 0.0
C270 C 0.4869 0.82155 0.95533 0.0
C271 C 0.43106 0.86477 0.97262 0.0
C272 C 0.37423 0.89059 0.94703 0.0
C273 C 0.37262 0.87097 0.90467 0.0
C274 C 0.42949 0.82717 0.88936 0.0
H275 H 0.52923 0.8002 0.97526 0.0
O276 O 0.68045 0.91953 0.87806 0.0
O277 O 0.60443 0.83076 0.86193 0.0
O278 O 0.73041 0.78305 0.90922 0.0
O279 O 0.62047 0.73832 0.93018 0.0
C280 C 0.31605 0.89184 0.87727 0.0
C281 C 0.3165 0.86737 0.83546 0.0
H282 H 0.33673 0.81007 0.75728 0.0
H283 H 0.43971 0.73036 0.73635 0.0
H284 H 0.43176 0.878 1.00559 0.0
H285 H 0.3314 0.92418 0.9604 0.0
H286 H 0.27159 0.92609 0.8881 0.0
H287 H 0.27234 0.8832 0.81488 0.0
C288 C 0.23579 0.34074 0.03162 0.0
C289 C 0.27426 0.30601 0.06418 0.0
H290 H 0.22367 0.35471 0.9652 0.0
C291 C 0.32506 0.2514 0.05436 0.0
H292 H 0.1945 0.38131 0.03854 0.0
C293 C 0.34089 0.23563 1.01249 0.0
C294 C 0.30621 0.27416 0.97994 0.0
H295 H 0.35477 0.22343 0.07892 0.0
H296 H 0.38146 0.19433 1.00557 0.0
C297 C 0.25161 0.32496 0.98975 0.0
C298 C 0.16831 0.84075 0.54321 0.0
C299 C 0.20786 0.7872 0.56517 0.0
H300 H 0.14894 0.8954 0.48564 0.0
C301 C 0.26108 0.74647 0.54341 0.0
H302 H 0.12671 0.87318 0.55865 0.0
C303 C 0.27379 0.75917 0.50053 0.0
C304 C 0.23373 0.81303 0.47888 0.0
H305 H 0.29175 0.70404 0.55924 0.0
H306 H 0.31568 0.72791 0.48461 0.0
C307 C 0.18086 0.85329 0.50097 0.0
C308 C 0.78476 0.67957 0.03162 0.0
C309 C 0.74622 0.71405 0.06424 0.0
H310 H 0.79694 0.66604 0.96518 0.0
C311 C 0.69532 0.7686 0.05452 0.0
H312 H 0.82613 0.63903 0.03848 0.0
C313 C 0.67946 0.78458 1.01268 0.0
C314 C 0.71424 0.74634 0.98005 0.0
H315 H 0.66556 0.79638 0.07912 0.0
H316 H 0.63881 0.82584 1.00583 0.0
C317 C 0.76893 0.69558 0.98978 0.0
C318 C 0.83959 0.16618 0.50123 0.0
C319 C 0.78715 0.20671 0.47896 0.0
H320 H 0.89328 0.14622 0.55908 0.0
C321 C 0.74729 0.26092 0.50047 0.0
H322 H 0.87131 0.12377 0.48603 0.0
C323 C 0.75985 0.27374 0.54337 0.0
C324 C 0.81269 0.23279 0.5653 0.0
H325 H 0.70572 0.2924 0.48441 0.0
H326 H 0.7294 0.31647 0.55907 0.0
C327 C 0.85198 0.17884 0.5435 0.0
C328 C 0.46488 0.38531 0.25647 0.0
C329 C 0.42331 0.3314 0.23541 0.0
H330 H 0.56101 0.40952 0.29327 0.0
C331 C 0.45277 0.26089 0.23201 0.0
H332 H 0.44465 0.44077 0.25895 0.0
C333 C 0.52018 0.24373 0.25046 0.0
C334 C 0.5603 0.29627 0.27346 0.0
H335 H 0.42371 0.21876 0.2149 0.0
H336 H 0.53953 0.18791 0.24781 0.0
C337 C 0.53203 0.3677 0.27586 0.0
C338 C 0.14007 0.96364 0.75827 0.0
C339 C 0.19363 0.92104 0.73775 0.0
H340 H 0.1164 0.06155 0.79343 0.0
C341 C 0.26446 0.94989 0.73406 0.0
H342 H 0.0845 0.94362 0.7611 0.0
C343 C 0.28205 0.01807 0.7515 0.0
C344 C 0.22961 0.05957 0.77363 0.0
H345 H 0.30645 0.91983 0.7175 0.0
H346 H 0.338 0.03708 0.7487 0.0
C347 C 0.15806 0.03163 0.7765 0.0
C348 C 0.48877 0.65182 0.27579 0.0
C349 C 0.46049 0.72325 0.27343 0.0
H350 H 0.57614 0.57875 0.25886 0.0
C351 C 0.50058 0.77578 0.25045 0.0
H352 H 0.45982 0.61 0.29318 0.0
C353 C 0.56796 0.75861 0.232 0.0
C354 C 0.59743 0.68811 0.23537 0.0
H355 H 0.48123 0.83159 0.24782 0.0
H356 H 0.59699 0.80075 0.21492 0.0
C357 C 0.55589 0.6342 0.2564 0.0
C358 C 0.75614 0.07096 0.73436 0.0
C359 C 0.827 0.09978 0.73802 0.0
H360 H 0.68258 0.98386 0.74902 0.0
C361 C 0.88057 0.0572 0.75856 0.0
H362 H 0.71413 0.101 0.71778 0.0
C363 C 0.86258 0.98927 0.77681 0.0
C364 C 0.791 0.96137 0.77396 0.0
H365 H 0.93616 0.0772 0.76137 0.0
H366 H 0.90426 0.95936 0.79375 0.0
C367 C 0.73854 1.00284 0.75181 0.0
C368 C 0.95002 0.26422 0.30989 0.0
C369 C 0.92124 0.19334 0.30624 0.0
H370 H 0.03711 0.33781 0.29524 0.0
C371 C 0.96387 0.13976 0.28575 0.0
H372 H 0.91994 0.30624 0.32644 0.0
C373 C 0.03182 0.15776 0.26753 0.0
C374 C 0.05968 0.22936 0.27037 0.0
H375 H 0.94391 0.08416 0.28295 0.0
H376 H 0.06177 0.11607 0.25062 0.0
C377 C 0.01816 0.28183 0.29247 0.0
C378 C 0.24388 0.51996 0.79353 0.0
C379 C 0.29647 0.56013 0.77065 0.0
H380 H 0.2189 0.42352 0.82904 0.0
C381 C 0.36795 0.53195 0.7684 0.0
H382 H 0.18804 0.53924 0.79607 0.0
C383 C 0.38557 0.46484 0.78781 0.0
C384 C 0.33162 0.42322 0.80875 0.0
H385 H 0.40981 0.56098 0.75109 0.0
H386 H 0.44106 0.44469 0.78545 0.0
C387 C 0.26106 0.4526 0.81201 0.0
C388 C 0.07067 0.75562 0.31013 0.0
C389 C 0.0996 0.82641 0.30631 0.0
H390 H 0.9834 0.6821 0.29562 0.0
C391 C 0.05703 0.87991 0.28573 0.0
H392 H 0.10069 0.71368 0.32677 0.0
C393 C 0.98901 0.86191 0.26754 0.0
C394 C 0.96102 0.79039 0.27051 0.0
H395 H 0.07711 0.93545 0.28281 0.0
H396 H 0.95913 0.90352 0.25055 0.0
C397 C 1.00246 0.73801 0.29273 0.0
C398 C 0.77696 0.50119 0.7933 0.0
C399 C 0.72426 0.46078 0.77058 0.0
H400 H 0.80203 0.5978 0.8287 0.0
C401 C 0.65268 0.48874 0.76849 0.0
H402 H 0.83289 0.48208 0.7957 0.0
C403 C 0.63506 0.55585 0.78793 0.0
C404 C 0.68908 0.59769 0.80873 0.0
H405 H 0.61073 0.45953 0.75131 0.0
H406 H 0.57948 0.57583 0.78571 0.0
C407 C 0.75977 0.56855 0.8118 0.0
C408 C 0.98131 0.53468 0.12642 0.0
C409 C 0.94949 0.55606 0.16431 0.0
H410 H 0.06027 0.46456 0.09701 0.0
C411 C 0.97967 0.53235 0.20218 0.0
H412 H 0.96064 0.55544 0.097 0.0
C413 C 0.04096 0.48733 0.20219 0.0
C414 C 0.07126 0.46375 0.16433 0.0
H415 H 0.95715 0.55053 0.23175 0.0
H416 H 0.0634 0.46904 0.23176 0.0
C417 C 0.03954 0.48524 0.12642 0.0
C418 C 0.98515 0.48141 0.62867 0.0
C419 C 0.96337 0.44986 0.66655 0.0
H420 H 0.05648 0.55923 0.59924 0.0
C421 C 0.98735 0.47991 0.70443 0.0
H422 H 0.96409 0.46101 0.59924 0.0
C423 C 0.03315 0.54078 0.70442 0.0
C424 C 0.05715 0.57066 0.66654 0.0
H425 H 0.96878 0.45765 0.73398 0.0
H426 H 0.0517 0.56315 0.73398 0.0
C427 C 0.03539 0.53896 0.62866 0.0
C428 C 0.54096 0.03264 0.33936 0.0
C429 C 0.57099 0.05663 0.37724 0.0
H430 H 0.45771 0.96829 0.30981 0.0
C431 C 0.53942 0.03487 0.41512 0.0
H432 H 0.56323 0.0512 0.3098 0.0
C433 C 0.48186 0.98465 0.41512 0.0
C434 C 0.45018 0.96288 0.37725 0.0
H435 H 0.55981 0.05595 0.44454 0.0
H436 H 0.46156 0.96359 0.44455 0.0
C437 C 0.48008 0.98685 0.33936 0.0
C438 C 0.48784 0.04106 0.84195 0.0
C439 C 0.4641 0.07129 0.8798 0.0
H440 H 0.5512 0.95732 0.81242 0.0
C441 C 0.48548 0.03953 0.91772 0.0
H442 H 0.46965 0.06352 0.81237 0.0
C443 C 0.53494 0.98132 0.91775 0.0
C444 C 0.55647 0.94957 0.87986 0.0
H445 H 0.46469 0.06022 0.94712 0.0
H446 H 0.55561 0.96063 0.94718 0.0
C447 C 0.53289 0.97979 0.84198 0.0
loop_
_geom_bond_atom_site_label_1
_geom_bond_atom_site_label_2
_geom_bond_distance
_geom_bond_site_symmetry_2
_ccdc_geom_bond_type
Mn0 O5 2.095 . S
Mn0 O15 2.162 . S
Mn0 O16 2.297 . S
Mn0 O24 2.385 . S
Mn0 O25 2.209 . S
Mn0 O26 2.094 . S
Mn1 O6 2.121 . S
Mn1 N8 2.257 . S
Mn1 N17 2.282 . S
Mn1 O25 2.215 . S
Mn1 O27 2.117 . S
C2 O24 1.234 . S
C2 O25 1.283 . S
C3 O15 1.281 1_655 S
C3 O16 1.236 1_655 S
C4 O26 1.240 . S
C4 O27 1.264 . S
O5 Mn0 2.095 . S
O5 C14 1.250 . S
O6 Mn1 2.121 . S
O6 C14 1.258 . S
C7 N8 1.326 . S
C7 C11 1.460 . S
C7 H13 0.929 . S
N8 Mn1 2.257 . S
N8 C7 1.326 . S
N8 C12 1.362 . S
C9 C10 1.258 . S
C9 C12 1.431 . S
C9 C29 1.449 . S
C10 C9 1.258 . S
C10 C11 1.477 . S
C10 H30 0.931 . S
C11 C7 1.460 . S
C11 C10 1.477 . S
C11 H31 0.930 . S
C12 N8 1.362 . S
C12 C9 1.431 . S
C12 C22 1.476 . S
H13 C7 0.929 . S
C14 O5 1.250 . S
C14 O6 1.258 . S
O15 Mn0 2.162 . S
O15 C3 1.281 1_455 S
O16 Mn0 2.297 . S
O16 C3 1.236 1_455 S
N17 Mn1 2.282 . S
N17 C18 1.328 . S
N17 C22 1.318 . S
C18 N17 1.328 . S
C18 C19 1.457 . S
C18 H23 0.929 . S
C19 C18 1.457 . S
C19 C20 1.291 . S
C19 H32 0.931 1_554 S
C20 C19 1.291 . S
C20 C21 1.373 . S
C20 H33 0.929 . S
C21 C20 1.373 . S
C21 C22 1.396 . S
C21 C28 1.403 . S
C22 C12 1.476 . S
C22 N17 1.318 . S
C22 C21 1.396 . S
H23 C18 0.929 . S
O24 Mn0 2.385 . S
O24 C2 1.234 . S
O25 Mn0 2.209 . S
O25 Mn1 2.215 . S
O25 C2 1.283 . S
O26 Mn0 2.094 . S
O26 C4 1.240 . S
O27 Mn1 2.117 . S
O27 C4 1.264 . S
C28 C21 1.403 . S
C28 C29 1.399 . S
C28 H34 0.929 . S
C29 C9 1.449 . S
C29 C28 1.399 . S
C29 H35 0.930 . S
H30 C10 0.931 . S
H31 C11 0.930 . S
H32 C19 0.931 1_556 S
H33 C20 0.929 . S
H34 C28 0.929 . S
H35 C29 0.930 . S
Mn36 O41 2.095 . S
Mn36 O51 2.162 . S
Mn36 O52 2.297 . S
Mn36 O60 2.385 . S
Mn36 O61 2.209 . S
Mn36 O62 2.094 . S
Mn37 O42 2.121 . S
Mn37 N44 2.257 . S
Mn37 N53 2.282 . S
Mn37 O61 2.215 . S
Mn37 O63 2.117 . S
C38 O60 1.234 . S
C38 O61 1.283 . S
C39 O51 1.281 . S
C39 O52 1.236 . S
C40 O62 1.240 . S
C40 O63 1.264 . S
O41 Mn36 2.095 . S
O41 C50 1.250 . S
O42 Mn37 2.121 . S
O42 C50 1.258 . S
C43 N44 1.326 . S
C43 C47 1.460 1_455 S
C43 H49 0.929 . S
N44 Mn37 2.257 . S
N44 C43 1.326 . S
N44 C48 1.362 1_455 S
C45 C46 1.258 . S
C45 C48 1.431 . S
C45 C65 1.449 . S
C46 C45 1.258 . S
C46 C47 1.477 . S
C46 H66 0.931 . S
C47 C43 1.460 1_655 S
C47 C46 1.477 . S
C47 H67 0.930 . S
C48 N44 1.362 1_655 S
C48 C45 1.431 . S
C48 C58 1.476 . S
H49 C43 0.929 . S
C50 O41 1.250 . S
C50 O42 1.258 . S
O51 Mn36 2.162 . S
O51 C39 1.281 . S
O52 Mn36 2.297 . S
O52 C39 1.236 . S
N53 Mn37 2.282 . S
N53 C54 1.328 . S
N53 C58 1.318 1_455 S
C54 N53 1.328 . S
C54 C55 1.457 1_455 S
C54 H59 0.929 . S
C55 C54 1.457 1_655 S
C55 C56 1.291 . S
C55 H68 0.931 1_655 S
C56 C55 1.291 . S
C56 C57 1.373 . S
C56 H69 0.929 . S
C57 C56 1.373 . S
C57 C58 1.396 . S
C57 C64 1.403 . S
C58 C48 1.476 . S
C58 N53 1.318 1_655 S
C58 C57 1.396 . S
H59 C54 0.929 . S
O60 Mn36 2.385 . S
O60 C38 1.234 . S
O61 Mn36 2.209 . S
O61 Mn37 2.215 . S
O61 C38 1.283 . S
O62 Mn36 2.094 . S
O62 C40 1.240 . S
O63 Mn37 2.117 . S
O63 C40 1.264 . S
C64 C57 1.403 . S
C64 C65 1.399 . S
C64 H70 0.929 . S
C65 C45 1.449 . S
C65 C64 1.399 . S
C65 H71 0.930 . S
H66 C46 0.931 . S
H67 C47 0.930 . S
H68 C55 0.931 1_455 S
H69 C56 0.929 . S
H70 C64 0.929 . S
H71 C65 0.930 . S
Mn72 O77 2.095 . S
Mn72 O87 2.162 . S
Mn72 O88 2.297 . S
Mn72 O96 2.385 . S
Mn72 O97 2.209 . S
Mn72 O98 2.094 . S
Mn73 O78 2.121 . S
Mn73 N80 2.257 . S
Mn73 N89 2.282 . S
Mn73 O97 2.215 . S
Mn73 O99 2.117 . S
C74 O96 1.234 . S
C74 O97 1.283 . S
C75 O87 1.281 1_455 S
C75 O88 1.236 1_455 S
C76 O98 1.240 . S
C76 O99 1.264 . S
O77 Mn72 2.095 . S
O77 C86 1.250 . S
O78 Mn73 2.121 . S
O78 C86 1.258 . S
C79 N80 1.326 . S
C79 C83 1.460 . S
C79 H85 0.929 . S
N80 Mn73 2.257 . S
N80 C79 1.326 . S
N80 C84 1.362 . S
C81 C82 1.258 . S
C81 C84 1.431 . S
C81 C101 1.449 . S
C82 C81 1.258 . S
C82 C83 1.477 . S
C82 H102 0.931 . S
C83 C79 1.460 . S
C83 C82 1.477 . S
C83 H103 0.930 . S
C84 N80 1.362 . S
C84 C81 1.431 . S
C84 C94 1.476 . S
H85 C79 0.929 . S
C86 O77 1.250 . S
C86 O78 1.258 . S
O87 Mn72 2.162 . S
O87 C75 1.281 1_655 S
O88 Mn72 2.297 . S
O88 C75 1.236 1_655 S
N89 Mn73 2.282 . S
N89 C90 1.328 . S
N89 C94 1.318 . S
C90 N89 1.328 . S
C90 C91 1.457 . S
C90 H95 0.929 . S
C91 C90 1.457 . S
C91 C92 1.291 . S
C91 H104 0.931 1_554 S
C92 C91 1.291 . S
C92 C93 1.373 . S
C92 H105 0.929 . S
C93 C92 1.373 . S
C93 C94 1.396 . S
C93 C100 1.403 . S
C94 C84 1.476 . S
C94 N89 1.318 . S
C94 C93 1.396 . S
H95 C90 0.929 . S
O96 Mn72 2.385 . S
O96 C74 1.234 . S
O97 Mn72 2.209 . S
O97 Mn73 2.215 . S
O97 C74 1.283 . S
O98 Mn72 2.094 . S
O98 C76 1.240 . S
O99 Mn73 2.117 . S
O99 C76 1.264 . S
C100 C93 1.403 . S
C100 C101 1.399 . S
C100 H106 0.929 . S
C101 C81 1.449 . S
C101 C100 1.399 . S
C101 H107 0.930 . S
H102 C82 0.931 . S
H103 C83 0.930 . S
H104 C91 0.931 1_556 S
H105 C92 0.929 . S
H106 C100 0.929 . S
H107 C101 0.930 . S
Mn108 O113 2.095 . S
Mn108 O123 2.162 . S
Mn108 O124 2.297 . S
Mn108 O132 2.385 . S
Mn108 O133 2.209 . S
Mn108 O134 2.094 . S
Mn109 O114 2.121 . S
Mn109 N116 2.257 . S
Mn109 N125 2.282 . S
Mn109 O133 2.215 . S
Mn109 O135 2.117 . S
C110 O132 1.234 . S
C110 O133 1.283 . S
C111 O123 1.281 . S
C111 O124 1.236 . S
C112 O134 1.240 . S
C112 O135 1.264 . S
O113 Mn108 2.095 . S
O113 C122 1.250 . S
O114 Mn109 2.121 . S
O114 C122 1.258 . S
C115 N116 1.326 . S
C115 C119 1.460 1_655 S
C115 H121 0.929 . S
N116 Mn109 2.257 . S
N116 C115 1.326 . S
N116 C120 1.362 1_655 S
C117 C118 1.258 . S
C117 C120 1.431 . S
C117 C137 1.449 . S
C118 C117 1.258 . S
C118 C119 1.477 . S
C118 H138 0.931 . S
C119 C115 1.460 1_455 S
C119 C118 1.477 . S
C119 H139 0.930 . S
C120 N116 1.362 1_455 S
C120 C117 1.431 . S
C120 C130 1.476 . S
H121 C115 0.929 . S
C122 O113 1.250 . S
C122 O114 1.258 . S
O123 Mn108 2.162 . S
O123 C111 1.281 . S
O124 Mn108 2.297 . S
O124 C111 1.236 . S
N125 Mn109 2.282 . S
N125 C126 1.328 . S
N125 C130 1.318 1_655 S
C126 N125 1.328 . S
C126 C127 1.457 1_655 S
C126 H131 0.929 . S
C127 C126 1.457 1_455 S
C127 C128 1.291 . S
C127 H140 0.931 1_455 S
C128 C127 1.291 . S
C128 C129 1.373 . S
C128 H141 0.929 . S
C129 C128 1.373 . S
C129 C130 1.396 . S
C129 C136 1.403 . S
C130 C120 1.476 . S
C130 N125 1.318 1_455 S
C130 C129 1.396 . S
H131 C126 0.929 . S
O132 Mn108 2.385 . S
O132 C110 1.234 . S
O133 Mn108 2.209 . S
O133 Mn109 2.215 . S
O133 C110 1.283 . S
O134 Mn108 2.094 . S
O134 C112 1.240 . S
O135 Mn109 2.117 . S
O135 C112 1.264 . S
C136 C129 1.403 . S
C136 C137 1.399 . S
C136 H142 0.929 . S
C137 C117 1.449 . S
C137 C136 1.399 . S
C137 H143 0.930 . S
H138 C118 0.931 . S
H139 C119 0.930 . S
H140 C127 0.931 1_655 S
H141 C128 0.929 . S
H142 C136 0.929 . S
H143 C137 0.930 . S
Mn144 O149 2.095 . S
Mn144 O159 2.162 . S
Mn144 O160 2.297 . S
Mn144 O168 2.385 . S
Mn144 O169 2.209 . S
Mn144 O170 2.094 . S
Mn145 O150 2.121 . S
Mn145 N152 2.257 . S
Mn145 N161 2.282 . S
Mn145 O169 2.215 . S
Mn145 O171 2.117 . S
C146 O168 1.234 . S
C146 O169 1.283 . S
C147 O159 1.281 . S
C147 O160 1.236 . S
C148 O170 1.240 . S
C148 O171 1.264 . S
O149 Mn144 2.095 . S
O149 C158 1.250 . S
O150 Mn145 2.121 . S
O150 C158 1.258 . S
C151 N152 1.326 . S
C151 C155 1.460 1_545 S
C151 H157 0.929 . S
N152 Mn145 2.257 . S
N152 C151 1.326 . S
N152 C156 1.362 1_545 S
C153 C154 1.258 . S
C153 C156 1.431 . S
C153 C173 1.449 . S
C154 C153 1.258 . S
C154 C155 1.477 . S
C154 H174 0.931 . S
C155 C151 1.460 1_565 S
C155 C154 1.477 . S
C155 H175 0.930 . S
C156 N152 1.362 1_565 S
C156 C153 1.431 . S
C156 C166 1.476 . S
H157 C151 0.929 . S
C158 O149 1.250 . S
C158 O150 1.258 . S
O159 Mn144 2.162 . S
O159 C147 1.281 . S
O160 Mn144 2.297 . S
O160 C147 1.236 . S
N161 Mn145 2.282 . S
N161 C162 1.328 . S
N161 C166 1.318 1_545 S
C162 N161 1.328 . S
C162 C163 1.457 1_545 S
C162 H167 0.929 . S
C163 C162 1.457 1_565 S
C163 C164 1.291 . S
C163 H176 0.931 1_565 S
C164 C163 1.291 . S
C164 C165 1.373 . S
C164 H177 0.929 . S
C165 C164 1.373 . S
C165 C166 1.396 . S
C165 C172 1.403 . S
C166 C156 1.476 . S
C166 N161 1.318 1_565 S
C166 C165 1.396 . S
H167 C162 0.929 . S
O168 Mn144 2.385 . S
O168 C146 1.234 . S
O169 Mn144 2.209 . S
O169 Mn145 2.215 . S
O169 C146 1.283 . S
O170 Mn144 2.094 . S
O170 C148 1.240 . S
O171 Mn145 2.117 . S
O171 C148 1.264 . S
C172 C165 1.403 . S
C172 C173 1.399 . S
C172 H178 0.929 . S
C173 C153 1.449 . S
C173 C172 1.399 . S
C173 H179 0.930 . S
H174 C154 0.931 . S
H175 C155 0.930 . S
H176 C163 0.931 1_545 S
H177 C164 0.929 . S
H178 C172 0.929 . S
H179 C173 0.930 . S
Mn180 O185 2.095 . S
Mn180 O195 2.162 . S
Mn180 O196 2.297 . S
Mn180 O204 2.385 . S
Mn180 O205 2.209 . S
Mn180 O206 2.094 . S
Mn181 O186 2.121 . S
Mn181 N188 2.257 . S
Mn181 N197 2.282 . S
Mn181 O205 2.215 . S
Mn181 O207 2.117 . S
C182 O204 1.234 . S
C182 O205 1.283 . S
C183 O195 1.281 1_565 S
C183 O196 1.236 1_565 S
C184 O206 1.240 . S
C184 O207 1.264 . S
O185 Mn180 2.095 . S
O185 C194 1.250 . S
O186 Mn181 2.121 . S
O186 C194 1.258 . S
C187 N188 1.326 . S
C187 C191 1.460 . S
C187 H193 0.929 . S
N188 Mn181 2.257 . S
N188 C187 1.326 . S
N188 C192 1.362 . S
C189 C190 1.258 . S
C189 C192 1.431 . S
C189 C209 1.449 . S
C190 C189 1.258 . S
C190 C191 1.477 . S
C190 H210 0.931 . S
C191 C187 1.460 . S
C191 C190 1.477 . S
C191 H211 0.930 . S
C192 N188 1.362 . S
C192 C189 1.431 . S
C192 C202 1.476 . S
H193 C187 0.929 . S
C194 O185 1.250 . S
C194 O186 1.258 . S
O195 Mn180 2.162 . S
O195 C183 1.281 1_545 S
O196 Mn180 2.297 . S
O196 C183 1.236 1_545 S
N197 Mn181 2.282 . S
N197 C198 1.328 . S
N197 C202 1.318 . S
C198 N197 1.328 . S
C198 C199 1.457 . S
C198 H203 0.929 . S
C199 C198 1.457 . S
C199 C200 1.291 . S
C199 H212 0.931 1_556 S
C200 C199 1.291 . S
C200 C201 1.373 . S
C200 H213 0.929 . S
C201 C200 1.373 . S
C201 C202 1.396 . S
C201 C208 1.403 . S
C202 C192 1.476 . S
C202 N197 1.318 . S
C202 C201 1.396 . S
H203 C198 0.929 . S
O204 Mn180 2.385 . S
O204 C182 1.234 . S
O205 Mn180 2.209 . S
O205 Mn181 2.215 . S
O205 C182 1.283 . S
O206 Mn180 2.094 . S
O206 C184 1.240 . S
O207 Mn181 2.117 . S
O207 C184 1.264 . S
C208 C201 1.403 . S
C208 C209 1.399 . S
C208 H214 0.929 . S
C209 C189 1.449 . S
C209 C208 1.399 . S
C209 H215 0.930 . S
H210 C190 0.931 . S
H211 C191 0.930 . S
H212 C199 0.931 1_554 S
H213 C200 0.929 . S
H214 C208 0.929 . S
H215 C209 0.930 . S
Mn216 O221 2.095 . S
Mn216 O231 2.162 . S
Mn216 O232 2.297 . S
Mn216 O240 2.385 . S
Mn216 O241 2.209 . S
Mn216 O242 2.094 . S
Mn217 O222 2.121 . S
Mn217 N224 2.257 . S
Mn217 N233 2.282 . S
Mn217 O241 2.215 . S
Mn217 O243 2.117 . S
C218 O240 1.234 . S
C218 O241 1.283 . S
C219 O231 1.281 . S
C219 O232 1.236 . S
C220 O242 1.240 . S
C220 O243 1.264 . S
O221 Mn216 2.095 . S
O221 C230 1.250 . S
O222 Mn217 2.121 . S
O222 C230 1.258 . S
C223 N224 1.326 . S
C223 C227 1.460 1_565 S
C223 H229 0.929 . S
N224 Mn217 2.257 . S
N224 C223 1.326 . S
N224 C228 1.362 1_565 S
C225 C226 1.258 . S
C225 C228 1.431 . S
C225 C245 1.449 . S
C226 C225 1.258 . S
C226 C227 1.477 . S
C226 H246 0.931 . S
C227 C223 1.460 1_545 S
C227 C226 1.477 . S
C227 H247 0.930 . S
C228 N224 1.362 1_545 S
C228 C225 1.431 . S
C228 C238 1.476 . S
H229 C223 0.929 . S
C230 O221 1.250 . S
C230 O222 1.258 . S
O231 Mn216 2.162 . S
O231 C219 1.281 . S
O232 Mn216 2.297 . S
O232 C219 1.236 . S
N233 Mn217 2.282 . S
N233 C234 1.328 . S
N233 C238 1.318 1_565 S
C234 N233 1.328 . S
C234 C235 1.457 1_565 S
C234 H239 0.929 . S
C235 C234 1.457 1_545 S
C235 C236 1.291 . S
C235 H248 0.931 1_545 S
C236 C235 1.291 . S
C236 C237 1.373 . S
C236 H249 0.929 . S
C237 C236 1.373 . S
C237 C238 1.396 . S
C237 C244 1.403 . S
C238 C228 1.476 . S
C238 N233 1.318 1_545 S
C238 C237 1.396 . S
H239 C234 0.929 . S
O240 Mn216 2.385 . S
O240 C218 1.234 . S
O241 Mn216 2.209 . S
O241 Mn217 2.215 . S
O241 C218 1.283 . S
O242 Mn216 2.094 . S
O242 C220 1.240 . S
O243 Mn217 2.117 . S
O243 C220 1.264 . S
C244 C237 1.403 . S
C244 C245 1.399 . S
C244 H250 0.929 . S
C245 C225 1.449 . S
C245 C244 1.399 . S
C245 H251 0.930 . S
H246 C226 0.931 . S
H247 C227 0.930 . S
H248 C235 0.931 1_565 S
H249 C236 0.929 . S
H250 C244 0.929 . S
H251 C245 0.930 . S
Mn252 O257 2.095 . S
Mn252 O267 2.162 . S
Mn252 O268 2.297 . S
Mn252 O276 2.385 . S
Mn252 O277 2.209 . S
Mn252 O278 2.094 . S
Mn253 O258 2.121 . S
Mn253 N260 2.257 . S
Mn253 N269 2.282 . S
Mn253 O277 2.215 . S
Mn253 O279 2.117 . S
C254 O276 1.234 . S
C254 O277 1.283 . S
C255 O267 1.281 1_545 S
C255 O268 1.236 1_545 S
C256 O278 1.240 . S
C256 O279 1.264 . S
O257 Mn252 2.095 . S
O257 C266 1.250 . S
O258 Mn253 2.121 . S
O258 C266 1.258 . S
C259 N260 1.326 . S
C259 C263 1.460 . S
C259 H265 0.929 . S
N260 Mn253 2.257 . S
N260 C259 1.326 . S
N260 C264 1.362 . S
C261 C262 1.258 . S
C261 C264 1.431 . S
C261 C281 1.449 . S
C262 C261 1.258 . S
C262 C263 1.477 . S
C262 H282 0.931 . S
C263 C259 1.460 . S
C263 C262 1.477 . S
C263 H283 0.930 . S
C264 N260 1.362 . S
C264 C261 1.431 . S
C264 C274 1.476 . S
H265 C259 0.929 . S
C266 O257 1.250 . S
C266 O258 1.258 . S
O267 Mn252 2.162 . S
O267 C255 1.281 1_565 S
O268 Mn252 2.297 . S
O268 C255 1.236 1_565 S
N269 Mn253 2.282 . S
N269 C270 1.328 . S
N269 C274 1.318 . S
C270 N269 1.328 . S
C270 C271 1.457 . S
C270 H275 0.929 . S
C271 C270 1.457 . S
C271 C272 1.291 . S
C271 H284 0.931 1_556 S
C272 C271 1.291 . S
C272 C273 1.373 . S
C272 H285 0.929 . S
C273 C272 1.373 . S
C273 C274 1.396 . S
C273 C280 1.403 . S
C274 C264 1.476 . S
C274 N269 1.318 . S
C274 C273 1.396 . S
H275 C270 0.929 . S
O276 Mn252 2.385 . S
O276 C254 1.234 . S
O277 Mn252 2.209 . S
O277 Mn253 2.215 . S
O277 C254 1.283 . S
O278 Mn252 2.094 . S
O278 C256 1.240 . S
O279 Mn253 2.117 . S
O279 C256 1.264 . S
C280 C273 1.403 . S
C280 C281 1.399 . S
C280 H286 0.929 . S
C281 C261 1.449 . S
C281 C280 1.399 . S
C281 H287 0.930 . S
H282 C262 0.931 . S
H283 C263 0.930 . S
H284 C271 0.931 1_554 S
H285 C272 0.929 . S
H286 C280 0.929 . S
H287 C281 0.930 . S
C288 C289 1.387 . S
C288 H292 0.950 . S
C288 C297 1.390 1_554 S
C289 C288 1.387 . S
C289 C291 1.387 . S
H290 C297 0.950 . S
C291 C289 1.387 . S
C291 C293 1.390 1_554 S
C291 H295 0.950 . S
H292 C288 0.950 . S
C293 C291 1.390 1_556 S
C293 C294 1.387 . S
C293 H296 0.950 . S
C294 C293 1.387 . S
C294 C297 1.387 . S
H295 C291 0.950 . S
H296 C293 0.950 . S
C297 C288 1.390 1_556 S
C297 H290 0.950 . S
C297 C294 1.387 . S
C298 C299 1.387 . S
C298 H302 0.950 . S
C298 C307 1.390 . S
C299 C298 1.387 . S
C299 C301 1.387 . S
H300 C307 0.950 . S
C301 C299 1.387 . S
C301 C303 1.390 . S
C301 H305 0.950 . S
H302 C298 0.950 . S
C303 C301 1.390 . S
C303 C304 1.387 . S
C303 H306 0.950 . S
C304 C303 1.387 . S
C304 C307 1.387 . S
H305 C301 0.950 . S
H306 C303 0.950 . S
C307 C298 1.390 . S
C307 H300 0.950 . S
C307 C304 1.387 . S
C308 C309 1.387 . S
C308 H312 0.950 . S
C308 C317 1.390 1_554 S
C309 C308 1.387 . S
C309 C311 1.387 . S
H310 C317 0.950 . S
C311 C309 1.387 . S
C311 C313 1.390 1_554 S
C311 H315 0.950 . S
H312 C308 0.950 . S
C313 C311 1.390 1_556 S
C313 C314 1.387 . S
C313 H316 0.950 . S
C314 C313 1.387 . S
C314 C317 1.387 . S
H315 C311 0.950 . S
H316 C313 0.950 . S
C317 C308 1.390 1_556 S
C317 H310 0.950 . S
C317 C314 1.387 . S
C318 C319 1.387 . S
C318 H322 0.950 . S
C318 C327 1.390 . S
C319 C318 1.387 . S
C319 C321 1.387 . S
H320 C327 0.950 . S
C321 C319 1.387 . S
C321 C323 1.390 . S
C321 H325 0.950 . S
H322 C318 0.950 . S
C323 C321 1.390 . S
C323 C324 1.387 . S
C323 H326 0.950 . S
C324 C323 1.387 . S
C324 C327 1.387 . S
H325 C321 0.950 . S
H326 C323 0.950 . S
C327 C318 1.390 . S
C327 H320 0.950 . S
C327 C324 1.387 . S
C328 C329 1.387 . S
C328 H332 0.950 . S
C328 C337 1.390 . S
C329 C328 1.387 . S
C329 C331 1.387 . S
H330 C337 0.950 . S
C331 C329 1.387 . S
C331 C333 1.390 . S
C331 H335 0.950 . S
H332 C328 0.950 . S
C333 C331 1.390 . S
C333 C334 1.387 . S
C333 H336 0.950 . S
C334 C333 1.387 . S
C334 C337 1.387 . S
H335 C331 0.950 . S
H336 C333 0.950 . S
C337 C328 1.390 . S
C337 H330 0.950 . S
C337 C334 1.387 . S
C338 C339 1.387 . S
C338 H342 0.950 . S
C338 C347 1.390 . S
C339 C338 1.387 . S
C339 C341 1.387 . S
H340 C347 0.950 . S
C341 C339 1.387 . S
C341 C343 1.390 . S
C341 H345 0.950 . S
H342 C338 0.950 . S
C343 C341 1.390 . S
C343 C344 1.387 . S
C343 H346 0.950 . S
C344 C343 1.387 . S
C344 C347 1.387 . S
H345 C341 0.950 . S
H346 C343 0.950 . S
C347 C338 1.390 . S
C347 H340 0.950 . S
C347 C344 1.387 . S
C348 C349 1.387 . S
C348 H352 0.950 . S
C348 C357 1.390 . S
C349 C348 1.387 . S
C349 C351 1.387 . S
H350 C357 0.950 . S
C351 C349 1.387 . S
C351 C353 1.390 . S
C351 H355 0.950 . S
H352 C348 0.950 . S
C353 C351 1.390 . S
C353 C354 1.387 . S
C353 H356 0.950 . S
C354 C353 1.387 . S
C354 C357 1.387 . S
H355 C351 0.950 . S
H356 C353 0.950 . S
C357 C348 1.390 . S
C357 H350 0.950 . S
C357 C354 1.387 . S
C358 C359 1.387 . S
C358 H362 0.950 . S
C358 C367 1.390 . S
C359 C358 1.387 . S
C359 C361 1.387 . S
H360 C367 0.950 . S
C361 C359 1.387 . S
C361 C363 1.390 . S
C361 H365 0.950 . S
H362 C358 0.950 . S
C363 C361 1.390 . S
C363 C364 1.387 . S
C363 H366 0.950 . S
C364 C363 1.387 . S
C364 C367 1.387 . S
H365 C361 0.950 . S
H366 C363 0.950 . S
C367 C358 1.390 . S
C367 H360 0.950 . S
C367 C364 1.387 . S
C368 C369 1.387 . S
C368 H372 0.950 . S
C368 C377 1.390 . S
C369 C368 1.387 . S
C369 C371 1.387 . S
H370 C377 0.950 . S
C371 C369 1.387 . S
C371 C373 1.390 . S
C371 H375 0.950 . S
H372 C368 0.950 . S
C373 C371 1.390 . S
C373 C374 1.387 . S
C373 H376 0.950 . S
C374 C373 1.387 . S
C374 C377 1.387 . S
H375 C371 0.950 . S
H376 C373 0.950 . S
C377 C368 1.390 . S
C377 H370 0.950 . S
C377 C374 1.387 . S
C378 C379 1.387 . S
C378 H382 0.950 . S
C378 C387 1.390 . S
C379 C378 1.387 . S
C379 C381 1.387 . S
H380 C387 0.950 . S
C381 C379 1.387 . S
C381 C383 1.390 . S
C381 H385 0.950 . S
H382 C378 0.950 . S
C383 C381 1.390 . S
C383 C384 1.387 . S
C383 H386 0.950 . S
C384 C383 1.387 . S
C384 C387 1.387 . S
H385 C381 0.950 . S
H386 C383 0.950 . S
C387 C378 1.390 . S
C387 H380 0.950 . S
C387 C384 1.387 . S
C388 C389 1.387 . S
C388 H392 0.950 . S
C388 C397 1.390 . S
C389 C388 1.387 . S
C389 C391 1.387 . S
H390 C397 0.950 . S
C391 C389 1.387 . S
C391 C393 1.390 . S
C391 H395 0.950 . S
H392 C388 0.950 . S
C393 C391 1.390 . S
C393 C394 1.387 . S
C393 H396 0.950 . S
C394 C393 1.387 . S
C394 C397 1.387 . S
H395 C391 0.950 . S
H396 C393 0.950 . S
C397 C388 1.390 . S
C397 H390 0.950 . S
C397 C394 1.387 . S
C398 C399 1.387 . S
C398 H402 0.950 . S
C398 C407 1.390 . S
C399 C398 1.387 . S
C399 C401 1.387 . S
H400 C407 0.950 . S
C401 C399 1.387 . S
C401 C403 1.390 . S
C401 H405 0.950 . S
H402 C398 0.950 . S
C403 C401 1.390 . S
C403 C404 1.387 . S
C403 H406 0.950 . S
C404 C403 1.387 . S
C404 C407 1.387 . S
H405 C401 0.950 . S
H406 C403 0.950 . S
C407 C398 1.390 . S
C407 H400 0.950 . S
C407 C404 1.387 . S
C408 C409 1.387 . S
C408 H412 0.950 . S
C408 C417 1.390 1_655 S
C409 C408 1.387 . S
C409 C411 1.387 . S
H410 C417 0.950 . S
C411 C409 1.387 . S
C411 C413 1.390 1_655 S
C411 H415 0.950 . S
H412 C408 0.950 . S
C413 C411 1.390 1_455 S
C413 C414 1.387 . S
C413 H416 0.950 . S
C414 C413 1.387 . S
C414 C417 1.387 . S
H415 C411 0.950 . S
H416 C413 0.950 . S
C417 C408 1.390 1_455 S
C417 H410 0.950 . S
C417 C414 1.387 . S
C418 C419 1.387 . S
C418 H422 0.950 . S
C418 C427 1.390 1_655 S
C419 C418 1.387 . S
C419 C421 1.387 . S
H420 C427 0.950 . S
C421 C419 1.387 . S
C421 C423 1.390 1_655 S
C421 H425 0.950 . S
H422 C418 0.950 . S
C423 C421 1.390 1_455 S
C423 C424 1.387 . S
C423 H426 0.950 . S
C424 C423 1.387 . S
C424 C427 1.387 . S
H425 C421 0.950 . S
H426 C423 0.950 . S
C427 C418 1.390 1_455 S
C427 H420 0.950 . S
C427 C424 1.387 . S
C428 C429 1.387 . S
C428 H432 0.950 . S
C428 C437 1.390 1_545 S
C429 C428 1.387 . S
C429 C431 1.387 . S
H430 C437 0.950 . S
C431 C429 1.387 . S
C431 C433 1.390 1_545 S
C431 H435 0.950 . S
H432 C428 0.950 . S
C433 C431 1.390 1_565 S
C433 C434 1.387 . S
C433 H436 0.950 . S
C434 C433 1.387 . S
C434 C437 1.387 . S
H435 C431 0.950 . S
H436 C433 0.950 . S
C437 C428 1.390 1_565 S
C437 H430 0.950 . S
C437 C434 1.387 . S
C438 C439 1.387 . S
C438 H442 0.950 . S
C438 C447 1.390 1_545 S
C439 C438 1.387 . S
C439 C441 1.387 . S
H440 C447 0.950 . S
C441 C439 1.387 . S
C441 C443 1.390 1_545 S
C441 H445 0.950 . S
H442 C438 0.950 . S
C443 C441 1.390 1_565 S
C443 C444 1.387 . S
C443 H446 0.950 . S
C444 C443 1.387 . S
C444 C447 1.387 . S
H445 C441 0.950 . S
H446 C443 0.950 . S
C447 C438 1.390 1_565 S
C447 H440 0.950 . S
C447 C444 1.387 . S
C289 C4 1.398 . S
C294 C184 1.397 . S
C299 C40 1.397 . S
C304 C220 1.397 . S
C309 C76 1.398 . S
C314 C256 1.397 . S
C319 C148 1.397 . S
C324 C112 1.397 . S
C329 C14 1.554 . S
C334 C147 1.629 . S
C339 C50 1.553 . S
C344 C183 1.628 . S
C349 C219 1.629 . S
C354 C86 1.553 . S
C359 C122 1.556 . S
C364 C255 1.629 . S
C369 C158 1.554 . S
C374 C3 1.628 . S
C379 C39 1.630 . S
C384 C194 1.556 . S
C389 C230 1.556 . S
C394 C75 1.629 . S
C399 C111 1.629 . S
C404 C266 1.555 . S
C409 C74 0.817 . S
C414 C2 0.817 . S
C419 C110 0.817 . S
C424 C38 0.817 . S
C429 C146 0.811 . S
C434 C218 0.811 . S
C439 C182 0.811 . S
C444 C254 0.811 . S
