# Generated by pormake.
# Topology sxg, (6)-cn, num edge types: 1
# Building blocks:
#     Node 0, Type 0, BuildingBlock: PAMTUU_clean_sbu_0, # of connection points: 6
#     Node 1, Type 0, BuildingBlock: PAMTUU_clean_sbu_0, # of connection points: 6
#     Node 2, Type 0, BuildingBlock: PAMTUU_clean_sbu_0, # of connection points: 6
#     Node 3, Type 0, BuildingBlock: PAMTUU_clean_sbu_0, # of connection points: 6
#     Node 4, Type 0, BuildingBlock: PAMTUU_clean_sbu_0, # of connection points: 6
#     Node 5, Type 0, BuildingBlock: PAMTUU_clean_sbu_0, # of connection points: 6
#     Node 6, Type 0, BuildingBlock: PAMTUU_clean_sbu_0, # of connection points: 6
#     Node 7, Type 0, BuildingBlock: PAMTUU_clean_sbu_0, # of connection points: 6
#     Node 8, Type 0, BuildingBlock: PAMTUU_clean_sbu_0, # of connection points: 6
#     Node 9, Type 0, BuildingBlock: PAMTUU_clean_sbu_0, # of connection points: 6
#     Node 10, Type 0, BuildingBlock: PAMTUU_clean_sbu_0, # of connection points: 6
#     Node 11, Type 0, BuildingBlock: PAMTUU_clean_sbu_0, # of connection points: 6
#     Node 12, Type 0, BuildingBlock: PAMTUU_clean_sbu_0, # of connection points: 6
#     Node 13, Type 0, BuildingBlock: PAMTUU_clean_sbu_0, # of connection points: 6
#     Node 14, Type 0, BuildingBlock: PAMTUU_clean_sbu_0, # of connection points: 6
#     Node 15, Type 0, BuildingBlock: PAMTUU_clean_sbu_0, # of connection points: 6
#     Node 16, Type 0, BuildingBlock: PAMTUU_clean_sbu_0, # of connection points: 6
#     Node 17, Type 0, BuildingBlock: PAMTUU_clean_sbu_0, # of connection points: 6
#     Node 18, Type 0, BuildingBlock: PAMTUU_clean_sbu_0, # of connection points: 6
#     Node 19, Type 0, BuildingBlock: PAMTUU_clean_sbu_0, # of connection points: 6
#     Node 20, Type 0, BuildingBlock: PAMTUU_clean_sbu_0, # of connection points: 6
#     Node 21, Type 0, BuildingBlock: PAMTUU_clean_sbu_0, # of connection points: 6
#     Node 22, Type 0, BuildingBlock: PAMTUU_clean_sbu_0, # of connection points: 6
#     Node 23, Type 0, BuildingBlock: PAMTUU_clean_sbu_0, # of connection points: 6
#     Edge 24, Type (0, 0), BuildingBlock: KIFKEQ_clean_linker_1, # of connection points: 2
#     Edge 25, Type (0, 0), BuildingBlock: KIFKEQ_clean_linker_1, # of connection points: 2
#     Edge 26, Type (0, 0), BuildingBlock: KIFKEQ_clean_linker_1, # of connection points: 2
#     Edge 27, Type (0, 0), BuildingBlock: KIFKEQ_clean_linker_1, # of connection points: 2
#     Edge 28, Type (0, 0), BuildingBlock: KIFKEQ_clean_linker_1, # of connection points: 2
#     Edge 29, Type (0, 0), BuildingBlock: KIFKEQ_clean_linker_1, # of connection points: 2
#     Edge 30, Type (0, 0), BuildingBlock: KIFKEQ_clean_linker_1, # of connection points: 2
#     Edge 31, Type (0, 0), BuildingBlock: KIFKEQ_clean_linker_1, # of connection points: 2
#     Edge 32, Type (0, 0), BuildingBlock: KIFKEQ_clean_linker_1, # of connection points: 2
#     Edge 33, Type (0, 0), BuildingBlock: KIFKEQ_clean_linker_1, # of connection points: 2
#     Edge 34, Type (0, 0), BuildingBlock: KIFKEQ_clean_linker_1, # of connection points: 2
#     Edge 35, Type (0, 0), BuildingBlock: KIFKEQ_clean_linker_1, # of connection points: 2
#     Edge 36, Type (0, 0), BuildingBlock: KIFKEQ_clean_linker_1, # of connection points: 2
#     Edge 37, Type (0, 0), BuildingBlock: KIFKEQ_clean_linker_1, # of connection points: 2
#     Edge 38, Type (0, 0), BuildingBlock: KIFKEQ_clean_linker_1, # of connection points: 2
#     Edge 39, Type (0, 0), BuildingBlock: KIFKEQ_clean_linker_1, # of connection points: 2
#     Edge 40, Type (0, 0), BuildingBlock: KIFKEQ_clean_linker_1, # of connection points: 2
#     Edge 41, Type (0, 0), BuildingBlock: KIFKEQ_clean_linker_1, # of connection points: 2
#     Edge 42, Type (0, 0), BuildingBlock: KIFKEQ_clean_linker_1, # of connection points: 2
#     Edge 43, Type (0, 0), BuildingBlock: KIFKEQ_clean_linker_1, # of connection points: 2
#     Edge 44, Type (0, 0), BuildingBlock: KIFKEQ_clean_linker_1, # of connection points: 2
#     Edge 45, Type (0, 0), BuildingBlock: KIFKEQ_clean_linker_1, # of connection points: 2
#     Edge 46, Type (0, 0), BuildingBlock: KIFKEQ_clean_linker_1, # of connection points: 2
#     Edge 47, Type (0, 0), BuildingBlock: KIFKEQ_clean_linker_1, # of connection points: 2
#     Edge 48, Type (0, 0), BuildingBlock: KIFKEQ_clean_linker_1, # of connection points: 2
#     Edge 49, Type (0, 0), BuildingBlock: KIFKEQ_clean_linker_1, # of connection points: 2
#     Edge 50, Type (0, 0), BuildingBlock: KIFKEQ_clean_linker_1, # of connection points: 2
#     Edge 51, Type (0, 0), BuildingBlock: KIFKEQ_clean_linker_1, # of connection points: 2
#     Edge 52, Type (0, 0), BuildingBlock: KIFKEQ_clean_linker_1, # of connection points: 2
#     Edge 53, Type (0, 0), BuildingBlock: KIFKEQ_clean_linker_1, # of connection points: 2
#     Edge 54, Type (0, 0), BuildingBlock: KIFKEQ_clean_linker_1, # of connection points: 2
#     Edge 55, Type (0, 0), BuildingBlock: KIFKEQ_clean_linker_1, # of connection points: 2
#     Edge 56, Type (0, 0), BuildingBlock: KIFKEQ_clean_linker_1, # of connection points: 2
#     Edge 57, Type (0, 0), BuildingBlock: KIFKEQ_clean_linker_1, # of connection points: 2
#     Edge 58, Type (0, 0), BuildingBlock: KIFKEQ_clean_linker_1, # of connection points: 2
#     Edge 59, Type (0, 0), BuildingBlock: KIFKEQ_clean_linker_1, # of connection points: 2
#     Edge 60, Type (0, 0), BuildingBlock: KIFKEQ_clean_linker_1, # of connection points: 2
#     Edge 61, Type (0, 0), BuildingBlock: KIFKEQ_clean_linker_1, # of connection points: 2
#     Edge 62, Type (0, 0), BuildingBlock: KIFKEQ_clean_linker_1, # of connection points: 2
#     Edge 63, Type (0, 0), BuildingBlock: KIFKEQ_clean_linker_1, # of connection points: 2
#     Edge 64, Type (0, 0), BuildingBlock: KIFKEQ_clean_linker_1, # of connection points: 2
#     Edge 65, Type (0, 0), BuildingBlock: KIFKEQ_clean_linker_1, # of connection points: 2
#     Edge 66, Type (0, 0), BuildingBlock: KIFKEQ_clean_linker_1, # of connection points: 2
#     Edge 67, Type (0, 0), BuildingBlock: KIFKEQ_clean_linker_1, # of connection points: 2
#     Edge 68, Type (0, 0), BuildingBlock: KIFKEQ_clean_linker_1, # of connection points: 2
#     Edge 69, Type (0, 0), BuildingBlock: KIFKEQ_clean_linker_1, # of connection points: 2
#     Edge 70, Type (0, 0), BuildingBlock: KIFKEQ_clean_linker_1, # of connection points: 2
#     Edge 71, Type (0, 0), BuildingBlock: KIFKEQ_clean_linker_1, # of connection points: 2
#     Edge 72, Type (0, 0), BuildingBlock: KIFKEQ_clean_linker_1, # of connection points: 2
#     Edge 73, Type (0, 0), BuildingBlock: KIFKEQ_clean_linker_1, # of connection points: 2
#     Edge 74, Type (0, 0), BuildingBlock: KIFKEQ_clean_linker_1, # of connection points: 2
#     Edge 75, Type (0, 0), BuildingBlock: KIFKEQ_clean_linker_1, # of connection points: 2
#     Edge 76, Type (0, 0), BuildingBlock: KIFKEQ_clean_linker_1, # of connection points: 2
#     Edge 77, Type (0, 0), BuildingBlock: KIFKEQ_clean_linker_1, # of connection points: 2
#     Edge 78, Type (0, 0), BuildingBlock: KIFKEQ_clean_linker_1, # of connection points: 2
#     Edge 79, Type (0, 0), BuildingBlock: KIFKEQ_clean_linker_1, # of connection points: 2
#     Edge 80, Type (0, 0), BuildingBlock: KIFKEQ_clean_linker_1, # of connection points: 2
#     Edge 81, Type (0, 0), BuildingBlock: KIFKEQ_clean_linker_1, # of connection points: 2
#     Edge 82, Type (0, 0), BuildingBlock: KIFKEQ_clean_linker_1, # of connection points: 2
#     Edge 83, Type (0, 0), BuildingBlock: KIFKEQ_clean_linker_1, # of connection points: 2
#     Edge 84, Type (0, 0), BuildingBlock: KIFKEQ_clean_linker_1, # of connection points: 2
#     Edge 85, Type (0, 0), BuildingBlock: KIFKEQ_clean_linker_1, # of connection points: 2
#     Edge 86, Type (0, 0), BuildingBlock: KIFKEQ_clean_linker_1, # of connection points: 2
#     Edge 87, Type (0, 0), BuildingBlock: KIFKEQ_clean_linker_1, # of connection points: 2
#     Edge 88, Type (0, 0), BuildingBlock: KIFKEQ_clean_linker_1, # of connection points: 2
#     Edge 89, Type (0, 0), BuildingBlock: KIFKEQ_clean_linker_1, # of connection points: 2
#     Edge 90, Type (0, 0), BuildingBlock: KIFKEQ_clean_linker_1, # of connection points: 2
#     Edge 91, Type (0, 0), BuildingBlock: KIFKEQ_clean_linker_1, # of connection points: 2
#     Edge 92, Type (0, 0), BuildingBlock: KIFKEQ_clean_linker_1, # of connection points: 2
#     Edge 93, Type (0, 0), BuildingBlock: KIFKEQ_clean_linker_1, # of connection points: 2
#     Edge 94, Type (0, 0), BuildingBlock: KIFKEQ_clean_linker_1, # of connection points: 2
#     Edge 95, Type (0, 0), BuildingBlock: KIFKEQ_clean_linker_1, # of connection points: 2
# Relax obj value: 0.208
# Max RMSD: 0.270
# Mean RMSD: 0.244
data_MOF--net-sxg--node1-PAMTUU_clean_sbu_0--edge1-KIFKEQ_clean_linker_1
_symmetry_space_group_name_H-M    P1
_symmetry_Int_Tables_number       1
_symmetry_cell_setting            triclinic
loop_
_symmetry_equiv_pos_as_xyz
'x, y, z'
_cell_length_a     50.330637
_cell_length_b     56.310287
_cell_length_c     50.360191
_cell_angle_alpha  86.579199
_cell_angle_beta   97.762517
_cell_angle_gamma 85.776908
loop_
_atom_site_label
_atom_site_type_symbol
_atom_site_fract_x
_atom_site_fract_y
_atom_site_fract_z
_atom_type_partial_charge
Tb0 Tb 1.0185 0.25489 0.24509 0.0
Tb1 Tb 1.0071 0.31333 0.24333 0.0
C2 C 0.98477 0.28382 0.19627 0.0
C3 C 0.05212 0.19457 0.26295 0.0
C4 C 0.0955 0.16558 0.29287 0.0
C5 C 0.07119 0.15588 0.28371 0.0
C6 C 0.0497 0.17027 0.26893 0.0
C7 C 0.07637 0.20432 0.27178 0.0
C8 C 0.09786 0.18997 0.28652 0.0
C9 C 1.02883 0.21 0.24918 0.0
O10 O 0.04834 0.26911 0.22183 0.0
O11 O 0.04773 0.30826 0.23323 0.0
O12 O 1.02553 0.30125 0.28379 0.0
O13 O 0.04948 0.26742 0.27394 0.0
O14 O 0.98474 0.34343 0.22322 0.0
O15 O 1.01434 0.34703 0.25763 0.0
O16 O 0.97305 0.29914 0.25964 0.0
O17 O 0.99337 0.2626 0.27625 0.0
O18 O 0.98502 0.26502 0.21311 0.0
O19 O 0.99901 0.3016 0.20305 0.0
C20 C 0.05888 0.28989 0.22256 0.0
O21 O 1.01497 0.22161 0.26495 0.0
O22 O 0.03304 0.22376 0.22871 0.0
C23 C 0.04537 0.28453 0.28986 0.0
C24 C 0.97486 0.37327 0.2517 0.0
C25 C 0.93463 0.40396 0.2686 0.0
C26 C 0.95899 0.41262 0.26315 0.0
C27 C 0.97895 0.39736 0.25472 0.0
C28 C 0.95097 0.36441 0.25798 0.0
C29 C 0.93108 0.37958 0.26641 0.0
C30 C 0.99476 0.3578 0.24057 0.0
C31 C 0.97499 0.28036 0.27679 0.0
H32 H 0.06853 0.13727 0.28848 0.0
H33 H 1.03102 0.1625 0.26254 0.0
H34 H 0.0786 0.22309 0.2675 0.0
H35 H 0.11637 0.19799 0.29284 0.0
H36 H 0.96221 0.43135 0.26439 0.0
H37 H 0.99726 0.4045 0.24987 0.0
H38 H 0.94737 0.34589 0.25563 0.0
H39 H 0.9127 0.37228 0.27079 0.0
Tb40 Tb 0.4351 0.73252 0.80331 0.0
Tb41 Tb 0.45891 0.69256 0.76606 0.0
C42 C 0.47488 0.74301 0.76261 0.0
C43 C 0.40703 0.79019 0.83064 0.0
C44 C 0.38529 0.83729 0.83706 0.0
C45 C 0.41316 0.83209 0.8376 0.0
C46 C 0.42384 0.80894 0.83448 0.0
C47 C 0.37911 0.79537 0.82957 0.0
C48 C 0.36837 0.81863 0.83261 0.0
C49 C 0.41905 0.76512 0.83158 0.0
O50 O 0.40205 0.72948 0.77196 0.0
O51 O 0.42521 0.71296 0.74024 0.0
O52 O 0.42504 0.67805 0.78118 0.0
O53 O 0.42726 0.69688 0.82038 0.0
O54 O 0.47131 0.68632 0.72887 0.0
O55 O 0.47242 0.65746 0.7596 0.0
O56 O 0.48555 0.68591 0.80432 0.0
O57 O 0.47422 0.71993 0.82496 0.0
O58 O 0.45112 0.75006 0.76888 0.0
O59 O 0.48478 0.72125 0.76957 0.0
C60 C 0.40329 0.72368 0.74731 0.0
O61 O 0.40411 0.74864 0.82231 0.0
O62 O 0.44347 0.76188 0.82581 0.0
C63 C 0.41996 0.67897 0.80592 0.0
C64 C 0.50959 0.65883 0.73623 0.0
C65 C 0.56543 0.64756 0.74039 0.0
C66 C 0.54774 0.62934 0.73998 0.0
C67 C 0.52001 0.63495 0.73785 0.0
C68 C 0.52727 0.67708 0.73641 0.0
C69 C 0.55493 0.67147 0.73828 0.0
C70 C 0.48078 0.66453 0.7372 0.0
C71 C 0.48987 0.70044 0.82371 0.0
H72 H 0.42698 0.84574 0.84144 0.0
H73 H 0.44548 0.80559 0.83601 0.0
H74 H 0.36557 0.78133 0.82705 0.0
H75 H 0.34678 0.82191 0.8317 0.0
H76 H 0.55536 0.61074 0.74122 0.0
H77 H 0.50675 0.62065 0.73803 0.0
H78 H 0.51983 0.69569 0.73568 0.0
H79 H 0.56816 0.68582 0.73871 0.0
Tb80 Tb 0.59682 0.21571 0.77538 0.0
Tb81 Tb 0.58788 0.17054 0.81479 0.0
C82 C 0.56336 0.22028 0.82215 0.0
C83 C 0.61394 0.27336 0.74295 0.0
C84 C 0.629 0.32024 0.74022 0.0
C85 C 0.62634 0.30881 0.76517 0.0
C86 C 0.6187 0.28542 0.76653 0.0
C87 C 0.61787 0.28434 0.71834 0.0
C88 C 0.62535 0.30762 0.71695 0.0
C89 C 0.60321 0.24999 0.74299 0.0
O90 O 0.63332 0.21188 0.80361 0.0
O91 O 0.61982 0.18892 0.83803 0.0
O92 O 0.62267 0.1605 0.79609 0.0
O93 O 0.60763 0.18254 0.75697 0.0
O94 O 0.57717 0.15816 0.85179 0.0
O95 O 0.58501 0.13374 0.82172 0.0
O96 O 0.56071 0.16754 0.77718 0.0
O97 O 0.55643 0.20694 0.76216 0.0
O98 O 0.58314 0.22963 0.81168 0.0
O99 O 0.55723 0.19898 0.81612 0.0
C100 C 0.63697 0.20289 0.82857 0.0
O101 O 0.62058 0.23152 0.74914 0.0
O102 O 0.58164 0.24809 0.75437 0.0
C103 C 0.62245 0.16422 0.77018 0.0
C104 C 0.54675 0.12851 0.84373 0.0
C105 C 0.49222 0.1184 0.84139 0.0
C106 C 0.50694 0.11251 0.82055 0.0
C107 C 0.53386 0.1175 0.82169 0.0
C108 C 0.53228 0.13374 0.86493 0.0
C109 C 0.50533 0.12881 0.86375 0.0
C110 C 0.57398 0.1369 0.84342 0.0
C111 C 0.54784 0.18561 0.76175 0.0
H112 H 0.62916 0.31824 0.78334 0.0
H113 H 0.61579 0.27701 0.78573 0.0
H114 H 0.61445 0.27514 0.70004 0.0
H115 H 0.62783 0.31594 0.69757 0.0
H116 H 0.49763 0.1041 0.80327 0.0
H117 H 0.54432 0.11322 0.80493 0.0
H118 H 0.54157 0.14237 0.88206 0.0
H119 H 0.49455 0.13382 0.88004 0.0
Tb120 Tb 1.01346 0.77656 0.2917 0.0
Tb121 Tb 0.03551 0.82947 0.30739 0.0
C122 C 0.05803 0.78371 0.3404 0.0
C123 C 0.97611 0.72057 0.27601 0.0
C124 C 0.93586 0.68827 0.26418 0.0
C125 C 0.95414 0.68503 0.28812 0.0
C126 C 0.97397 0.70089 0.29389 0.0
C127 C 0.95768 0.72411 0.25219 0.0
C128 C 0.9378 0.70817 0.24638 0.0
C129 C 0.99943 0.73526 0.2814 0.0
O130 O 0.98182 0.79359 0.31041 0.0
O131 O 1.00579 0.82091 0.33416 0.0
O132 O 0.99797 0.83845 0.28154 0.0
O133 O 0.98699 0.80265 0.264 0.0
O134 O 0.05469 0.84972 0.33699 0.0
O135 O 0.04008 0.86548 0.29709 0.0
O136 O 0.05442 0.82036 0.2725 0.0
O137 O 0.05082 0.77976 0.2747 0.0
O138 O 0.03579 0.77365 0.3326 0.0
O139 O 0.06505 0.80136 0.32553 0.0
C140 C 0.98438 0.80872 0.32927 0.0
O141 O 1.00327 0.75164 0.26318 0.0
O142 O 1.00505 0.74225 0.30559 0.0
C143 C 0.98321 0.82608 0.26483 0.0
C144 C 0.07794 0.88141 0.31998 0.0
C145 C 0.12384 0.90735 0.31872 0.0
C146 C 0.09783 0.9191 0.31403 0.0
C147 C 0.07518 0.90626 0.3147 0.0
C148 C 0.10381 0.86946 0.32443 0.0
C149 C 0.12657 0.88234 0.32391 0.0
C150 C 0.05343 0.86863 0.32043 0.0
C151 C 0.06089 0.79891 0.26517 0.0
H152 H 0.95366 0.66978 0.30216 0.0
H153 H 0.98816 0.69739 0.31213 0.0
H154 H 0.95887 0.73895 0.23782 0.0
H155 H 0.92392 0.71146 0.2279 0.0
H156 H 0.09497 0.93833 0.31038 0.0
H157 H 0.05539 0.9158 0.3112 0.0
H158 H 0.10643 0.85024 0.32831 0.0
H159 H 0.1463 0.87272 0.32736 0.0
Tb160 Tb 0.31235 0.05359 0.3572 0.0
Tb161 Tb 0.29762 0.0205 0.40925 0.0
C162 C 0.27784 1.0089 0.3513 0.0
C163 C 0.32956 0.09322 0.29438 0.0
C164 C 0.34094 0.12383 0.25142 0.0
C165 C 0.31573 0.11436 0.25055 0.0
C166 C 0.31008 0.09931 0.27184 0.0
C167 C 0.35503 0.10199 0.29493 0.0
C168 C 0.36064 0.11717 0.27373 0.0
C169 C 0.32306 0.07852 0.3176 0.0
O170 O 0.28324 0.07492 0.37532 0.0
O171 O 0.26202 0.04384 0.39141 0.0
O172 O 0.31226 0.0526 0.42621 0.0
O173 O 0.3354 0.06649 0.39275 0.0
O174 O 0.26683 1.00531 0.42696 0.0
O175 O 0.30794 1.00034 0.44631 0.0
O176 O 0.33661 1.00483 0.4013 0.0
O177 O 0.33626 0.02001 0.35768 0.0
O178 O 0.28006 0.03116 0.34273 0.0
O179 O 0.29019 0.99995 0.37464 0.0
C180 C 0.26156 0.06626 0.38223 0.0
O181 O 0.3415 0.0685 0.33644 0.0
O182 O 0.29853 0.07437 0.32098 0.0
C183 C 0.32924 0.06686 0.41737 0.0
C184 C 0.27999 0.96854 0.45146 0.0
C185 C 0.27 0.91998 0.45954 0.0
C186 C 0.25679 0.93779 0.47263 0.0
C187 C 0.26175 0.96176 0.46863 0.0
C188 C 0.29336 0.9509 0.43833 0.0
C189 C 0.28854 0.9268 0.44249 0.0
C190 C 0.28348 0.99416 0.44652 0.0
C191 C 0.34593 1.00479 0.37807 0.0
H192 H 0.30023 0.11874 0.2335 0.0
H193 H 0.29034 0.09264 0.27076 0.0
H194 H 0.37042 0.09765 0.3121 0.0
H195 H 0.38013 0.12434 0.2753 0.0
H196 H 0.24272 0.93318 0.4862 0.0
H197 H 0.25112 0.97509 0.47883 0.0
H198 H 0.30728 0.95579 0.42469 0.0
H199 H 0.29892 0.91357 0.43196 0.0
Tb200 Tb 0.26214 0.03649 0.82841 0.0
Tb201 Tb 0.27733 0.04545 0.89175 0.0
C202 C 0.30548 0.07138 0.84616 0.0
C203 C 0.23348 1.00143 0.77823 0.0
C204 C 0.22025 0.95367 0.77988 0.0
C205 C 0.23487 0.96261 0.75998 0.0
C206 C 0.24169 0.98623 0.75938 0.0
C207 C 0.21738 0.993 0.79692 0.0
C208 C 0.21111 0.96933 0.79797 0.0
C209 C 0.2463 0.02373 0.78256 0.0
O210 O 0.30122 0.01805 0.84276 0.0
O211 O 0.29562 1.00966 0.88633 0.0
O212 O 0.24076 0.02706 0.88738 0.0
O213 O 0.24927 1.00659 0.85155 0.0
O214 O 0.30627 0.04853 0.92545 0.0
O215 O 0.26383 0.05114 0.92859 0.0
O216 O 0.25468 0.07819 0.87322 0.0
O217 O 0.23016 0.06004 0.84009 0.0
O218 O 0.28693 0.06642 0.82668 0.0
O219 O 0.30672 0.06249 0.87109 0.0
C220 C 0.30638 1.00404 0.86485 0.0
O221 O 0.23284 0.03984 0.79409 0.0
O222 O 0.2713 0.02059 0.79365 0.0
C223 C 0.23774 1.00849 0.87319 0.0
C224 C 0.29054 0.07711 0.95311 0.0
C225 C 0.29728 0.12092 0.9763 0.0
C226 C 0.31403 0.10038 0.98645 0.0
C227 C 0.3106 0.07861 0.97498 0.0
C228 C 0.27379 0.09762 0.94295 0.0
C229 C 0.27702 0.11929 0.95456 0.0
C230 C 0.28786 0.05445 0.94028 0.0
C231 C 0.23343 0.07821 0.85498 0.0
H232 H 0.24151 0.95128 0.74513 0.0
H233 H 0.25435 0.99229 0.745 0.0
H234 H 0.2108 1.00433 0.81181 0.0
H235 H 0.2 0.96317 0.81365 0.0
H236 H 0.32974 0.10117 1.00326 0.0
H237 H 0.32379 0.06301 0.98298 0.0
H238 H 0.25838 0.09701 0.92582 0.0
H239 H 0.26413 0.13491 0.94609 0.0
Tb240 Tb 0.80404 0.57489 0.70083 0.0
Tb241 Tb 0.75635 0.55189 0.66327 0.0
C242 C 0.81464 0.54124 0.65697 0.0
C243 C 0.85446 0.61653 0.71958 0.0
C244 C 0.87939 0.65833 0.70867 0.0
C245 C 0.87822 0.64054 0.69033 0.0
C246 C 0.86567 0.61988 0.69562 0.0
C247 C 0.85482 0.63469 0.73744 0.0
C248 C 0.86709 0.65552 0.73196 0.0
C249 C 0.84214 0.59438 0.72592 0.0
O250 O 0.79769 0.59692 0.66328 0.0
O251 O 0.75439 0.58898 0.6478 0.0
O252 O 0.74037 0.56213 0.69889 0.0
O253 O 0.76595 0.59339 0.70672 0.0
O254 O 0.74565 0.52453 0.63849 0.0
O255 O 0.71618 0.55273 0.64511 0.0
O256 O 0.77245 0.52396 0.6947 0.0
O257 O 0.79327 0.54636 0.72699 0.0
O258 O 0.8202 0.54386 0.68268 0.0
O259 O 0.79202 0.55103 0.64381 0.0
C260 C 0.77463 0.60247 0.6478 0.0
O261 O 0.81754 0.5969 0.73135 0.0
O262 O 0.84547 0.57724 0.71014 0.0
C263 C 0.74427 0.58244 0.70947 0.0
C264 C 0.7037 0.51301 0.6469 0.0
C265 C 0.68285 0.47533 0.67447 0.0
C266 C 0.67749 0.49891 0.68097 0.0
C267 C 0.68796 0.51762 0.6674 0.0
C268 C 0.7074 0.48959 0.6392 0.0
C269 C 0.69721 0.47088 0.65299 0.0
C270 C 0.72008 0.53132 0.63693 0.0
C271 C 0.78356 0.52637 0.71955 0.0
H272 H 0.88768 0.64236 0.67231 0.0
H273 H 0.8653 0.60636 0.68118 0.0
H274 H 0.84611 0.63255 0.75589 0.0
H275 H 0.86817 0.66887 0.74661 0.0
H276 H 0.66642 0.50275 0.69743 0.0
H277 H 0.68486 0.53546 0.67396 0.0
H278 H 0.71949 0.48559 0.62353 0.0
H279 H 0.70116 0.45283 0.64732 0.0
Tb280 Tb 0.73506 0.55794 0.24096 0.0
Tb281 Tb 0.76796 0.52614 0.1986 0.0
C282 C 0.77853 0.5166 0.25963 0.0
C283 C 0.71052 0.59831 0.29435 0.0
C284 C 0.70744 0.62944 0.33681 0.0
C285 C 0.72881 0.61147 0.33808 0.0
C286 C 0.73028 0.59604 0.31717 0.0
C287 C 0.68957 0.61647 0.29285 0.0
C288 C 0.68802 0.63178 0.31368 0.0
C289 C 0.70951 0.58107 0.27291 0.0
O290 O 0.76874 0.57841 0.23427 0.0
O291 O 0.79609 0.55201 0.21393 0.0
O292 O 0.75205 0.55951 0.17703 0.0
O293 O 0.71621 0.56862 0.19965 0.0
O294 O 0.80104 0.50228 0.19339 0.0
O295 O 0.7701 0.51415 0.16025 0.0
O296 O 0.72838 0.51251 0.19682 0.0
O297 O 0.71617 0.52423 0.23686 0.0
O298 O 0.77184 0.5391 0.26294 0.0
O299 O 0.76969 0.50715 0.23741 0.0
C300 C 0.79166 0.57218 0.22555 0.0
O301 O 0.7212 0.55958 0.27858 0.0
O302 O 0.71198 0.58905 0.24861 0.0
C303 C 0.7288 0.57116 0.17842 0.0
C304 C 0.79246 0.47551 0.15847 0.0
C305 C 0.79469 0.43152 0.13325 0.0
C306 C 0.76991 0.44277 0.13797 0.0
C307 C 0.7688 0.46448 0.15034 0.0
C308 C 0.81723 0.46389 0.15484 0.0
C309 C 0.81837 0.44223 0.14242 0.0
C310 C 0.79176 0.49996 0.16825 0.0
C311 C 0.71431 0.51001 0.21687 0.0
H312 H 0.74409 0.60892 0.35554 0.0
H313 H 0.74659 0.58212 0.31908 0.0
H314 H 0.67396 0.6186 0.27561 0.0
H315 H 0.67155 0.64556 0.31154 0.0
H316 H 0.75122 0.43498 0.1318 0.0
H317 H 0.74937 0.47293 0.15291 0.0
H318 H 0.83577 0.47202 0.16078 0.0
H319 H 0.83784 0.43445 0.13904 0.0
Tb320 Tb 0.3479 0.31068 0.09925 0.0
Tb321 Tb 0.39943 0.28372 0.0738 0.0
C322 C 0.34134 0.27517 0.05417 0.0
C323 C 0.28339 0.32253 0.12935 0.0
C324 C 0.23516 0.31274 0.14976 0.0
C325 C 0.24646 0.29721 0.13257 0.0
C326 C 0.27032 0.30208 0.12241 0.0
C327 C 0.27262 0.33759 0.14708 0.0
C328 C 0.24885 0.33278 0.15718 0.0
C329 C 0.30726 0.32942 0.11735 0.0
O330 O 0.36212 0.27993 0.12673 0.0
O331 O 0.38612 0.25637 0.10067 0.0
O332 O 0.41434 0.29577 0.11251 0.0
O333 O 0.384 0.32796 0.11429 0.0
O334 O 0.41454 0.25585 0.05264 0.0
O335 O 0.44025 0.28224 0.06867 0.0
O336 O 0.39441 0.31949 0.05397 0.0
O337 O 0.3521 0.33244 0.06307 0.0
O338 O 0.33451 0.28031 0.07756 0.0
O339 O 0.3627 0.28355 0.04619 0.0
C340 C 0.37377 0.25925 0.12191 0.0
O341 O 0.33077 0.32439 0.13175 0.0
O342 O 0.30783 0.3254 0.09219 0.0
C343 C 0.40801 0.31663 0.12117 0.0
C344 C 0.45144 0.26471 1.02974 0.0
C345 C 0.47784 0.26371 0.98363 0.0
C346 C 0.4922 0.25784 1.00941 0.0
C347 C 0.47914 0.25833 1.03216 0.0
C348 C 0.43701 0.2713 1.00417 0.0
C349 C 0.45013 0.27083 0.98127 0.0
C350 C 0.43839 0.2638 0.05427 0.0
C351 C 0.37278 0.33458 0.04985 0.0
H352 H 0.23645 0.28168 0.12632 0.0
H353 H 0.27825 0.29014 0.10875 0.0
H354 H 0.28239 0.35341 0.1528 0.0
H355 H 0.24112 0.34488 0.17077 0.0
H356 H 0.5136 0.25263 1.01201 0.0
H357 H 0.49067 0.25339 0.05173 0.0
H358 H 0.4156 0.27641 1.00186 0.0
H359 H 0.43845 0.27528 0.96169 0.0
Tb360 Tb 0.84122 0.25044 0.98774 0.0
Tb361 Tb 0.84047 0.30291 0.95735 0.0
C362 C 0.87315 0.26036 0.94032 0.0
C363 C 0.84943 0.19329 1.03393 0.0
C364 C 0.8579 0.15833 0.0773 0.0
C365 C 0.87004 0.15496 0.05412 0.0
C366 C 0.86577 0.17224 1.03265 0.0
C367 C 0.83864 0.19743 0.05774 0.0
C368 C 0.84292 0.18008 0.0793 0.0
C369 C 0.84118 0.20871 1.00906 0.0
O370 O 0.87865 0.26347 1.00469 0.0
O371 O 0.86814 0.30389 0.99526 0.0
O372 O 0.80999 0.30455 0.98378 0.0
O373 O 0.8305 0.27679 1.01624 0.0
O374 O 0.85431 0.32277 0.92637 0.0
O375 O 0.82958 0.34001 0.95256 0.0
O376 O 0.81115 0.28348 0.93187 0.0
O377 O 0.80164 0.2578 0.96543 0.0
O378 O 0.85534 0.24662 0.9484 0.0
O379 O 0.8754 0.28103 0.95033 0.0
C380 C 0.88293 0.28569 1.00916 0.0
O381 O 0.82171 0.22536 1.00883 0.0
O382 O 0.86013 0.21572 0.99592 0.0
C383 C 0.81541 0.29699 1.00921 0.0
C384 C 0.82749 0.35773 0.90766 0.0
C385 C 0.80719 0.39133 0.86425 0.0
C386 C 0.79753 0.39244 0.88916 0.0
C387 C 0.80767 0.3759 0.91067 0.0
C388 C 0.83632 0.35604 0.88246 0.0
C389 C 0.82627 0.37258 0.86103 0.0
C390 C 0.84152 0.34262 0.93125 0.0
C391 C 0.79579 0.26771 0.94104 0.0
H392 H 0.88201 0.13853 0.05218 0.0
H393 H 0.87423 0.16862 1.01448 0.0
H394 H 0.8259 0.2135 0.05927 0.0
H395 H 0.8332 0.18311 0.09687 0.0
H396 H 0.78259 0.40646 0.89227 0.0
H397 H 0.80063 0.37786 0.92988 0.0
H398 H 0.8519 0.34251 0.87952 0.0
H399 H 0.83454 0.37133 0.84235 0.0
Tb400 Tb 0.72008 0.80029 0.49633 0.0
Tb401 Tb 0.6683 0.78048 0.52288 0.0
C402 C 0.72614 0.75931 0.54126 0.0
C403 C 0.78393 0.8112 0.46503 0.0
C404 C 0.82939 0.80858 0.43751 0.0
C405 C 0.83183 0.8145 0.46441 0.0
C406 C 0.80934 0.81586 0.47795 0.0
C407 C 0.78164 0.80417 0.43856 0.0
C408 C 0.80415 0.80283 0.42497 0.0
C409 C 0.75998 0.81695 0.47829 0.0
O410 O 0.70843 0.77194 0.47107 0.0
O411 O 0.67806 0.75339 0.4945 0.0
O412 O 0.65321 0.79521 0.48274 0.0
O413 O 0.6839 0.8228 0.47853 0.0
O414 O 0.65233 0.75417 0.54643 0.0
O415 O 0.62807 0.78605 0.5294 0.0
O416 O 0.67394 0.81598 0.53788 0.0
O417 O 0.71849 0.81762 0.53352 0.0
O418 O 0.73274 0.76557 0.51763 0.0
O419 O 0.70536 0.77029 0.54973 0.0
C420 C 0.69316 0.75433 0.47477 0.0
O421 O 0.73623 0.81671 0.46429 0.0
O422 O 0.76047 0.80851 0.50304 0.0
C423 C 0.66022 0.81485 0.47133 0.0
C424 C 0.61653 0.76809 0.57019 0.0
C425 C 0.58658 0.76872 0.61436 0.0
C426 C 0.58858 0.78978 0.59841 0.0
C427 C 0.60331 0.78947 0.57663 0.0
C428 C 0.61502 0.74718 0.5864 0.0
C429 C 0.60034 0.74748 0.60819 0.0
C430 C 0.62921 0.76664 0.54515 0.0
C431 C 0.69712 0.82527 0.54376 0.0
H432 H 0.85086 0.81921 0.47463 0.0
H433 H 0.8116 0.82157 0.49825 0.0
H434 H 0.76234 0.80047 0.42801 0.0
H435 H 0.80167 0.79778 0.40442 0.0
H436 H 0.57865 0.80656 0.60268 0.0
H437 H 0.60383 0.80594 0.56452 0.0
H438 H 0.62458 0.73035 0.58176 0.0
H439 H 0.59907 0.73081 0.61964 0.0
Tb440 Tb 0.19326 0.73161 0.57154 0.0
Tb441 Tb 0.18222 0.78644 0.58415 0.0
C442 C 0.16142 0.74699 0.61738 0.0
C443 C 0.19657 0.67088 0.54322 0.0
C444 C 0.19972 0.63504 0.50703 0.0
C445 C 0.18926 0.63057 0.53115 0.0
C446 C 0.1878 0.64836 0.54915 0.0
C447 C 0.20534 0.67592 0.51837 0.0
C448 C 0.20697 0.65808 0.50042 0.0
C449 C 0.19899 0.6877 0.56438 0.0
O450 O 0.15615 0.74516 0.54585 0.0
O451 O 0.16275 0.78497 0.54292 0.0
O452 O 0.21468 0.78656 0.56029 0.0
O453 O 0.20831 0.75203 0.53871 0.0
O454 O 0.15355 0.81424 0.58927 0.0
O455 O 0.19602 0.81898 0.59585 0.0
O456 O 0.21261 0.77037 0.617 0.0
O457 O 0.23029 0.74058 0.59412 0.0
O458 O 0.18136 0.73262 0.61198 0.0
O459 O 0.15334 0.76561 0.60096 0.0
C460 C 0.15139 0.76645 0.53312 0.0
O461 O 0.21819 0.70204 0.56429 0.0
O462 O 0.17676 0.69837 0.56997 0.0
C463 C 0.21885 0.77277 0.54096 0.0
C464 C 0.17078 0.83165 0.62891 0.0
C465 C 0.17407 0.83345 0.6849 0.0
C466 C 0.19413 0.84241 0.6712 0.0
C467 C 0.19239 0.8417 0.64347 0.0
C468 C 0.15034 0.82312 0.6426 0.0
C469 C 0.15188 0.82421 0.6704 0.0
C470 C 0.17221 0.82665 0.60072 0.0
C471 C 0.23236 0.75443 0.61413 0.0
H472 H 0.18373 0.61293 0.53683 0.0
H473 H 0.18099 0.6442 0.56828 0.0
H474 H 0.212 0.69328 0.51332 0.0
H475 H 0.21481 0.66204 0.48179 0.0
H476 H 0.211 0.85035 0.68195 0.0
H477 H 0.20843 0.84832 0.63349 0.0
H478 H 0.13348 0.81509 0.632 0.0
H479 H 0.13595 0.81768 0.68061 0.0
Tb480 Tb 0.05754 0.71601 0.83035 0.0
Tb481 Tb 0.0469 0.7748 0.82945 0.0
C482 C 1.01769 0.74568 0.78553 0.0
C483 C 0.0869 0.65556 0.81907 0.0
C484 C 0.12511 0.62469 0.79931 0.0
C485 C 0.10275 0.61567 0.80929 0.0
C486 C 0.08376 0.63104 0.81908 0.0
C487 C 0.1086 0.66467 0.8083 0.0
C488 C 0.12738 0.64947 0.79828 0.0
C489 C 0.06877 0.67137 0.83198 0.0
O490 O 0.09088 0.73021 0.81268 0.0
O491 O 0.0706 0.76709 0.79722 0.0
O492 O 0.08052 0.76409 0.86096 0.0
O493 O 0.06749 0.72698 0.87081 0.0
O494 O 0.05066 0.80798 0.8095 0.0
O495 O 0.03335 0.80608 0.84622 0.0
O496 O 1.01667 0.76102 0.8524 0.0
O497 O 1.01808 0.72119 0.84319 0.0
O498 O 0.03728 0.7286 0.79057 0.0
O499 O 1.01484 0.76278 0.80172 0.0
C500 C 0.08869 0.74929 0.79591 0.0
O501 O 0.08073 0.68551 0.84845 0.0
O502 O 0.04833 0.68259 0.81643 0.0
C503 C 0.08123 0.74507 0.87758 0.0
C504 C 1.01382 0.83518 0.812 0.0
C505 C 0.97028 0.86381 0.78186 0.0
C506 C 0.99506 0.87333 0.78951 0.0
C507 C 1.01663 0.85911 0.80441 0.0
C508 C 0.98909 0.82565 0.80472 0.0
C509 C 0.96753 0.83983 0.78988 0.0
C510 C 0.03723 0.81972 0.82551 0.0
C511 C 1.00679 0.73994 0.85307 0.0
H512 H 0.10058 0.59667 0.81068 0.0
H513 H 0.06718 0.62369 0.82751 0.0
H514 H 0.11154 0.68345 0.80867 0.0
H515 H 0.14414 0.65706 0.79044 0.0
H516 H 0.99803 0.89161 0.78345 0.0
H517 H 0.03568 0.86668 0.80954 0.0
H518 H 0.98656 0.80714 0.8102 0.0
H519 H 0.94867 0.83198 0.78475 0.0
Tb520 Tb 0.60444 0.34006 0.30685 0.0
Tb521 Tb 0.62853 0.29909 0.27092 0.0
C522 C 0.64367 0.35264 0.26745 0.0
C523 C 0.55231 0.37444 0.3341 0.0
C524 C 0.49605 0.384 0.3294 0.0
C525 C 0.51262 0.4026 0.32567 0.0
C526 C 0.54056 0.39786 0.32811 0.0
C527 C 0.53566 0.35585 0.33782 0.0
C528 C 0.50786 0.36062 0.33564 0.0
C529 C 0.58141 0.36911 0.33382 0.0
O530 O 0.57909 0.34603 0.26771 0.0
O531 O 0.58896 0.31037 0.24969 0.0
O532 O 0.61232 0.28216 0.3056 0.0
O533 O 0.57877 0.31125 0.30407 0.0
O534 O 0.65942 0.2838 0.25122 0.0
O535 O 0.6213 0.26848 0.25017 0.0
O536 O 0.66114 0.30223 0.30254 0.0
O537 O 0.63815 0.32026 0.33353 0.0
O538 O 0.63889 0.35372 0.29225 0.0
O539 O 0.63593 0.3347 0.25323 0.0
C540 C 0.57398 0.33046 0.24957 0.0
O541 O 0.59139 0.34775 0.34341 0.0
O542 O 0.59013 0.37542 0.31136 0.0
C543 C 0.58856 0.28956 0.31168 0.0
C544 C 0.65914 0.24172 0.24494 0.0
C545 C 0.68337 0.19551 0.2387 0.0
C546 C 0.65603 0.19886 0.2419 0.0
C547 C 0.64408 0.22163 0.24492 0.0
C548 C 0.68668 0.2383 0.24258 0.0
C549 C 0.69868 0.21547 0.23966 0.0
C550 C 0.64541 0.26624 0.24342 0.0
C551 C 0.6599 0.30877 0.3269 0.0
H552 H 0.50399 0.42082 0.3211 0.0
H553 H 0.55297 0.4124 0.32486 0.0
H554 H 0.54399 0.3375 0.34195 0.0
H555 H 0.49553 0.34593 0.33836 0.0
H556 H 0.6437 0.18388 0.24172 0.0
H557 H 0.62276 0.22353 0.24636 0.0
H558 H 0.69879 0.2534 0.24202 0.0
H559 H 0.71972 0.21363 0.23706 0.0
Tb560 Tb 0.47945 0.85818 0.26014 0.0
Tb561 Tb 0.46524 0.81499 0.29916 0.0
C562 C 0.44447 0.86756 0.30394 0.0
C563 C 0.52257 0.89889 0.23125 0.0
C564 C 0.57696 0.90942 0.23513 0.0
C565 C 0.55944 0.921 0.25062 0.0
C566 C 0.5325 0.91589 0.2486 0.0
C567 C 0.53994 0.8879 0.21514 0.0
C568 C 0.56682 0.89308 0.21709 0.0
C569 C 0.4951 0.89115 0.23175 0.0
O570 O 0.50746 0.85928 0.29772 0.0
O571 O 0.50603 0.82078 0.31447 0.0
O572 O 0.47935 0.79983 0.2637 0.0
O573 O 0.50847 0.8282 0.25936 0.0
O574 O 0.43921 0.80209 0.32487 0.0
O575 O 0.47588 0.78144 0.31948 0.0
O576 O 0.4294 0.82205 0.2704 0.0
O577 O 0.44746 0.84054 0.23592 0.0
O578 O 0.44487 0.87065 0.27807 0.0
O579 O 0.45773 0.84871 0.31754 0.0
C580 C 0.51747 0.84087 0.31441 0.0
O581 O 0.49084 0.87007 0.22332 0.0
O582 O 0.48461 0.89461 0.25369 0.0
C583 C 0.5009 0.80704 0.25452 0.0
C584 C 0.43905 0.76016 0.32922 0.0
C585 C 0.41688 0.71627 0.33586 0.0
C586 C 0.43565 0.71911 0.31789 0.0
C587 C 0.44669 0.74093 0.31457 0.0
C588 C 0.41884 0.75783 0.34556 0.0
C589 C 0.40774 0.7361 0.34877 0.0
C590 C 0.45365 0.78177 0.33014 0.0
C591 C 0.42809 0.82909 0.24501 0.0
H592 H 0.56656 0.93399 0.26433 0.0
H593 H 0.51964 0.92485 0.26114 0.0
H594 H 0.53299 0.87476 0.20152 0.0
H595 H 0.57987 0.88378 0.20498 0.0
H596 H 0.44313 0.70409 0.30776 0.0
H597 H 0.46211 0.74234 0.30162 0.0
H598 H 0.41255 0.77251 0.35687 0.0
H599 H 0.39293 0.73446 0.36238 0.0
Tb600 Tb 0.03334 0.199 0.76903 0.0
Tb601 Tb 0.05108 0.25345 0.7809 0.0
C602 C 0.08114 0.20705 0.81157 0.0
C603 C 0.99426 0.14456 0.76542 0.0
C604 C 0.94995 0.11674 0.76818 0.0
C605 C 0.97656 0.10629 0.77434 0.0
C606 C 0.99844 0.12004 0.77282 0.0
C607 C 0.96781 0.15532 0.7605 0.0
C608 C 0.94591 0.14155 0.76173 0.0
C609 C 1.01745 0.15809 0.76069 0.0
O610 O 0.99991 0.21668 0.78585 0.0
O611 O 1.02417 0.24339 0.80925 0.0
O612 O 1.01666 0.25722 0.74824 0.0
O613 O 1.02512 0.22085 0.73189 0.0
O614 O 0.06221 0.27751 0.80992 0.0
O615 O 0.05678 0.28884 0.76774 0.0
O616 O 0.07561 0.24154 0.75138 0.0
O617 O 0.07179 0.20066 0.75311 0.0
O618 O 0.05761 0.1983 0.80811 0.0
O619 O 0.08432 0.22795 0.79978 0.0
C620 C 1.00292 0.23116 0.80537 0.0
O621 O 1.01231 0.17663 0.74356 0.0
O622 O 0.03424 0.16239 0.78155 0.0
C623 C 1.01459 0.24291 0.72834 0.0
C624 C 0.0875 0.30956 0.79678 0.0
C625 C 0.12799 0.34152 0.8091 0.0
C626 C 0.10711 0.34705 0.78753 0.0
C627 C 0.08714 0.33133 0.78153 0.0
C628 C 0.1087 0.30363 0.81791 0.0
C629 C 0.12868 0.31939 0.82397 0.0
C630 C 0.06415 0.29483 0.79209 0.0
C631 C 0.08297 0.2199 0.74504 0.0
H632 H 0.98054 0.08737 0.77994 0.0
H633 H 1.01866 0.11138 0.77678 0.0
H634 H 0.96398 0.17425 0.7548 0.0
H635 H 0.92583 0.15028 0.75655 0.0
H636 H 0.10608 0.36363 0.77525 0.0
H637 H 0.07098 0.33647 0.76526 0.0
H638 H 0.10952 0.2871 0.83025 0.0
H639 H 0.14421 0.3145 0.84087 0.0
Tb640 Tb 0.76849 1.00951 0.66573 0.0
Tb641 Tb 0.75426 0.979 0.72006 0.0
C642 C 0.73731 0.9621 0.66078 0.0
C643 C 0.78598 0.06156 0.62419 0.0
C644 C 0.79388 0.1106 0.61474 0.0
C645 C 0.77479 0.09952 0.59764 0.0
C646 C 0.77099 0.07527 0.60225 0.0
C647 C 0.80467 0.07276 0.64165 0.0
C648 C 0.80864 0.09693 0.6369 0.0
C649 C 0.78245 0.03564 0.62823 0.0
O650 O 0.72971 0.02611 0.67272 0.0
O651 O 0.73114 1.01323 0.71707 0.0
O652 O 0.78859 0.99979 0.73169 0.0
O653 O 0.77791 0.03064 0.69971 0.0
O654 O 0.72505 0.96776 0.74299 0.0
O655 O 0.76754 0.96233 0.75865 0.0
O656 O 0.78293 0.95543 0.70419 0.0
O657 O 0.80331 0.98457 0.68243 0.0
O658 O 0.7518 0.97767 0.6499 0.0
O659 O 0.73327 0.96185 0.68622 0.0
C660 C 0.7209 0.0274 0.69603 0.0
O661 O 0.79927 0.02343 0.64692 0.0
O662 O 0.75797 0.02954 0.62845 0.0
C663 C 0.79135 0.0217 0.72258 0.0
C664 C 0.73785 0.93877 0.78016 0.0
C665 C 0.7232 0.90338 0.81638 0.0
C666 C 0.74221 0.91932 0.82512 0.0
C667 C 0.74941 0.93678 0.80721 0.0
C668 C 0.7194 0.9225 0.77103 0.0
C669 C 0.71224 0.90485 0.789 0.0
C670 C 0.74302 0.95982 0.76335 0.0
C671 C 0.80376 0.96287 0.69409 0.0
H672 H 0.76327 0.10944 0.58024 0.0
H673 H 0.75652 0.06714 0.58845 0.0
H674 H 0.81646 0.06285 0.65891 0.0
H675 H 0.82328 0.10494 0.65063 0.0
H676 H 0.75146 0.91839 0.8459 0.0
H677 H 0.76351 0.94928 0.81474 0.0
H678 H 0.71001 0.9238 0.75028 0.0
H679 H 0.6975 0.89286 0.78163 0.0
Tb680 Tb 0.78662 0.9852 0.18486 0.0
Tb681 Tb 0.80539 0.99481 0.24786 0.0
C682 C 0.8284 0.02062 0.20079 0.0
C683 C 0.77111 0.95356 0.12365 0.0
C684 C 0.76593 0.90989 0.09974 0.0
C685 C 0.7483 0.93004 0.09013 0.0
C686 C 0.75095 0.95175 0.10196 0.0
C687 C 0.78873 0.93345 0.13328 0.0
C688 C 0.78627 0.91185 0.12132 0.0
C689 C 0.77319 0.97617 0.13666 0.0
O690 O 0.80989 0.95227 0.20208 0.0
O691 O 0.83484 0.96831 0.23708 0.0
O692 O 0.7812 0.96479 0.25148 0.0
O693 O 0.7587 0.96871 0.20801 0.0
O694 O 0.83757 0.99771 0.27846 0.0
O695 O 0.79666 1.00668 0.28483 0.0
O696 O 0.76684 1.01453 0.2347 0.0
O697 O 0.7698 0.0216 0.19025 0.0
O698 O 0.8244 1.00167 0.18755 0.0
O699 O 0.81736 0.0236 0.22251 0.0
C700 C 0.83094 0.95113 0.22081 0.0
O701 O 0.75593 0.98071 0.15316 0.0
O702 O 0.79738 0.9807 0.14662 0.0
C703 C 0.76166 0.9598 0.23308 0.0
C704 C 0.82733 0.03511 0.29464 0.0
C705 C 0.82596 0.08546 0.28963 0.0
C706 C 0.81517 0.07358 0.31077 0.0
C707 C 0.81543 0.04868 0.31293 0.0
C708 C 0.83964 0.04681 0.27471 0.0
C709 C 0.83836 0.07158 0.27178 0.0
C710 C 0.82188 1.00996 0.29218 0.0
C711 C 0.76123 0.02829 0.21248 0.0
H712 H 0.73251 0.92901 0.07345 0.0
H713 H 0.73711 0.96705 0.09435 0.0
H714 H 0.80428 0.93435 0.15022 0.0
H715 H 0.79985 0.89652 0.12939 0.0
H716 H 0.80635 0.08338 0.32569 0.0
H717 H 0.8056 0.04009 0.32832 0.0
H718 H 0.84928 0.03691 0.26038 0.0
H719 H 0.84666 0.07962 0.25504 0.0
Tb720 Tb 0.31815 0.46868 0.40286 0.0
Tb721 Tb 0.26033 0.45557 0.37296 0.0
C722 C 0.31424 0.43441 0.35866 0.0
C723 C 0.37108 0.50592 0.42038 0.0
C724 C 0.38424 0.55117 0.40259 0.0
C725 C 0.40423 0.53204 0.40783 0.0
C726 C 0.39761 0.50944 0.41652 0.0
C727 C 0.35154 0.5254 0.41657 0.0
C728 C 0.35806 0.5478 0.40778 0.0
C729 C 0.3624 0.48174 0.42321 0.0
O730 O 0.31054 0.49105 0.36479 0.0
O731 O 0.2646 0.49044 0.35447 0.0
O732 O 0.25279 0.47532 0.40759 0.0
O733 O 0.28911 0.49728 0.40834 0.0
O734 O 0.23952 0.43731 0.34273 0.0
O735 O 0.21813 0.45769 0.36918 0.0
O736 O 0.27516 0.4252 0.40089 0.0
O737 O 0.30359 0.44356 0.43118 0.0
O738 O 0.32389 0.4358 0.3838 0.0
O739 O 0.29183 0.44683 0.34839 0.0
C740 C 0.28722 0.49972 0.35114 0.0
O741 O 0.34219 0.47941 0.4367 0.0
O742 O 0.35917 0.47128 0.40069 0.0
C743 C 0.26479 0.49458 0.41363 0.0
C744 C 0.20186 0.42079 0.35734 0.0
C745 C 0.17399 0.38055 0.36828 0.0
C746 C 0.1699 0.40141 0.38167 0.0
C747 C 0.18368 0.42137 0.37623 0.0
C748 C 0.20619 0.39979 0.34427 0.0
C749 C 0.1925 0.37986 0.34977 0.0
C750 C 0.21659 0.44174 0.35145 0.0
C751 C 0.28954 0.42545 0.42463 0.0
H752 H 0.42457 0.53429 0.40393 0.0
H753 H 0.41282 0.49452 0.41891 0.0
H754 H 0.33084 0.52313 0.41911 0.0
H755 H 0.34242 0.56238 0.40432 0.0
H756 H 0.15568 0.40242 0.39598 0.0
H757 H 0.17989 0.43729 0.38664 0.0
H758 H 0.21994 0.39881 0.3295 0.0
H759 H 0.1956 0.36423 0.33866 0.0
Tb760 Tb 0.29458 0.50472 0.87447 0.0
Tb761 Tb 0.32769 0.47358 0.83252 0.0
C762 C 0.3319 0.45869 0.89346 0.0
C763 C 0.27378 0.55342 0.91879 0.0
C764 C 0.27254 0.59702 0.94481 0.0
C765 C 0.29027 0.57725 0.95565 0.0
C766 C 0.29082 0.5558 0.9429 0.0
C767 C 0.25627 0.57323 0.90771 0.0
C768 C 0.25571 0.59475 0.9205 0.0
C769 C 0.27253 0.52973 0.90701 0.0
O770 O 0.33406 0.51862 0.876 0.0
O771 O 0.34521 0.5079 0.83535 0.0
O772 O 0.29058 0.49139 0.81016 0.0
O773 O 0.2903 0.52373 0.83535 0.0
O774 O 0.35117 0.44265 0.82552 0.0
O775 O 0.34222 0.47184 0.7952 0.0
O776 O 0.29399 0.45288 0.83894 0.0
O777 O 0.26612 0.47931 0.85864 0.0
O778 O 0.30826 0.46993 0.89372 0.0
O779 O 0.34626 0.46352 0.8741 0.0
C780 C 0.34726 0.52193 0.85543 0.0
O781 O 0.26276 0.52906 0.88167 0.0
O782 O 0.29327 0.51423 0.91391 0.0
C783 C 0.28248 0.51364 0.81322 0.0
C784 C 0.35168 0.4327 0.77983 0.0
C785 C 0.3559 0.39988 0.73918 0.0
C786 C 0.34658 0.424 0.73241 0.0
C787 C 0.34459 0.44019 0.75243 0.0
C788 C 0.36058 0.40856 0.7866 0.0
C789 C 0.36261 0.39242 0.76665 0.0
C790 C 0.35354 0.45023 0.80104 0.0
C791 C 0.27085 0.459 0.84734 0.0
H792 H 0.3032 0.57802 0.97454 0.0
H793 H 0.30422 0.54085 0.95239 0.0
H794 H 0.24261 0.57201 0.88938 0.0
H795 H 0.24196 0.60959 0.91134 0.0
H796 H 0.34088 0.43046 0.71159 0.0
H797 H 0.33806 0.4587 0.74635 0.0
H798 H 0.36684 0.40221 0.80739 0.0
H799 H 0.37031 0.37419 0.77285 0.0
Tb800 Tb 0.66736 0.74888 1.00179 0.0
Tb801 Tb 0.71704 0.72073 0.97516 0.0
C802 C 0.65659 0.72023 0.9508 0.0
C803 C 0.61918 0.76793 0.04959 0.0
C804 C 0.59541 0.769 0.09752 0.0
C805 C 0.58061 0.76314 0.07341 0.0
C806 C 0.59233 0.76271 0.04975 0.0
C807 C 0.63426 0.77327 0.07379 0.0
C808 C 0.62249 0.7738 0.09746 0.0
C809 C 0.63028 0.76909 1.02375 0.0
O810 O 0.67024 0.71213 1.01914 0.0
O811 O 0.71279 0.69911 1.01126 0.0
O812 O 0.73213 0.75044 0.99713 0.0
O813 O 0.70459 0.74708 1.02891 0.0
O814 O 0.73361 0.70756 0.94208 0.0
O815 O 0.75615 0.70375 0.98188 0.0
O816 O 0.70557 0.75273 0.94921 0.0
O817 O 0.68058 0.77626 0.97458 0.0
O818 O 0.65187 0.74038 0.96175 0.0
O819 O 0.67918 0.70661 0.95828 0.0
C820 C 0.69175 0.69688 1.02383 0.0
O821 O 0.65401 0.77705 1.02353 0.0
O822 O 0.62711 0.75091 1.00903 0.0
C823 C 0.7259 0.75537 1.0208 0.0
C824 C 0.78131 0.7091 0.94528 0.0
C825 C 0.82927 0.71938 0.92429 0.0
C826 C 0.82718 0.72137 0.95169 0.0
C827 C 0.80356 0.71629 0.96205 0.0
C828 C 0.78315 0.70757 0.91783 0.0
C829 C 0.80673 0.71274 0.90745 0.0
C830 C 0.757 0.70155 0.95637 0.0
C831 C 0.69374 0.77337 0.95382 0.0
H832 H 0.55965 0.75964 0.07259 0.0
H833 H 0.58018 0.75874 1.03135 0.0
H834 H 0.65501 0.77737 0.07441 0.0
H835 H 0.6346 0.7781 0.11572 0.0
H836 H 0.84411 0.72613 0.96541 0.0
H837 H 0.80301 0.71752 0.98335 0.0
H838 H 0.76646 0.70199 0.90438 0.0
H839 H 0.80731 0.71138 0.88617 0.0
Tb840 Tb 0.2281 0.72509 0.11623 0.0
Tb841 Tb 0.22568 0.77881 0.08672 0.0
C842 C 0.25315 0.73356 0.06454 0.0
C843 C 0.24351 0.6687 0.1635 0.0
C844 C 0.26333 0.6359 0.20781 0.0
C845 C 0.26131 0.6287 0.18138 0.0
C846 C 0.25142 0.64491 0.15951 0.0
C847 C 0.24676 0.67627 0.18978 0.0
C848 C 0.25652 0.66002 0.21169 0.0
C849 C 0.22889 0.68422 0.14056 0.0
O850 O 0.25727 0.74446 0.1419 0.0
O851 O 0.2652 0.77216 0.10934 0.0
O852 O 0.21164 0.78195 0.12599 0.0
O853 O 0.19355 0.7462 0.12583 0.0
O854 O 0.24487 0.80481 0.0667 0.0
O855 O 0.20507 0.8128 0.07719 0.0
O856 O 0.18846 0.76475 0.07114 0.0
O857 O 0.20076 0.72449 0.07796 0.0
O858 O 0.25871 0.72543 0.08979 0.0
O859 O 0.23723 0.75331 0.05792 0.0
C860 C 0.27192 0.76102 0.13307 0.0
O861 O 0.21505 0.70326 0.14617 0.0
O862 O 0.24098 0.68827 0.11964 0.0
C863 C 0.19495 0.76742 0.13485 0.0
C864 C 0.21667 0.83541 0.03963 0.0
C865 C 0.20909 0.8696 0.99543 0.0
C866 C 0.19546 0.87294 1.01769 0.0
C867 C 0.1993 0.85606 0.03958 0.0
C868 C 0.22895 0.83122 1.01667 0.0
C869 C 0.22513 0.84818 0.99471 0.0
C870 C 0.22434 0.82061 0.06507 0.0
C871 C 0.18572 0.7428 0.06461 0.0
H872 H 0.26607 0.61023 0.17764 0.0
H873 H 0.24887 0.63858 0.13949 0.0
H874 H 0.24086 0.69451 0.19355 0.0
H875 H 0.25816 0.66623 0.23174 0.0
H876 H 0.18263 0.88909 1.01864 0.0
H877 H 0.18965 0.85971 0.05705 0.0
H878 H 0.24249 0.81544 1.01616 0.0
H879 H 0.23596 0.84515 0.97788 0.0
Tb880 Tb 0.39974 0.25005 0.55334 0.0
Tb881 Tb 0.34851 0.22977 0.58005 0.0
C882 C 0.40825 0.21567 0.60458 0.0
C883 C 0.4532 0.26137 0.5078 0.0
C884 C 0.48302 0.25953 0.46374 0.0
C885 C 0.49508 0.25162 0.48992 0.0
C886 C 0.4804 0.25258 0.51159 0.0
C887 C 0.44083 0.26891 0.48161 0.0
C888 C 0.45556 0.26793 0.45982 0.0
C889 C 0.4392 0.26391 0.53179 0.0
O890 O 0.39404 0.21468 0.53777 0.0
O891 O 0.34968 0.21315 0.54267 0.0
O892 O 0.33483 0.26434 0.55867 0.0
O893 O 0.36264 0.26054 0.52669 0.0
O894 O 0.33385 0.21216 0.61225 0.0
O895 O 0.30826 0.22108 0.57437 0.0
O896 O 0.35995 0.25806 0.60527 0.0
O897 O 0.38925 0.27738 0.58116 0.0
O898 O 0.4147 0.23574 0.5937 0.0
O899 O 0.38503 0.20728 0.59661 0.0
C900 C 0.3709 0.20514 0.53253 0.0
O901 O 0.41554 0.27572 0.52897 0.0
O902 O 0.44052 0.24509 0.54844 0.0
C903 C 0.34157 0.27105 0.5352 0.0
C904 C 0.28643 0.21656 0.61335 0.0
C905 C 0.24182 0.2175 0.64198 0.0
C906 C 0.23841 0.21465 0.61422 0.0
C907 C 0.26049 0.21411 0.6001 0.0
C908 C 0.28978 0.22023 0.64093 0.0
C909 C 0.26769 0.22075 0.65507 0.0
C910 C 0.30978 0.21185 0.59895 0.0
C911 C 0.37438 0.27615 0.60105 0.0
H912 H 0.51599 0.2447 0.49374 0.0
H913 H 0.49051 0.24676 0.53155 0.0
H914 H 0.41995 0.27594 0.47798 0.0
H915 H 0.44562 0.27441 0.44002 0.0
H916 H 0.2187 0.21252 0.60344 0.0
H917 H 0.25737 0.21099 0.57892 0.0
H918 H 0.30956 0.2219 0.65182 0.0
H919 H 0.27106 0.2228 0.67648 0.0
Tb920 Tb 0.88284 0.24556 0.48892 0.0
Tb921 Tb 0.86956 0.30002 0.50087 0.0
C922 C 0.84591 0.25818 0.53217 0.0
C923 C 0.88953 0.2005 0.44363 0.0
C924 C 0.87317 0.20091 0.38802 0.0
C925 C 0.85957 0.18821 0.40609 0.0
C926 C 0.86781 0.18784 0.43363 0.0
C927 C 0.90387 0.21241 0.42541 0.0
C928 C 0.89585 0.21244 0.39776 0.0
C929 C 0.89302 0.20546 0.47221 0.0
O930 O 0.85128 0.26049 0.45629 0.0
O931 O 0.83281 0.28954 0.47953 0.0
O932 O 0.88109 0.29873 0.46019 0.0
O933 O 0.91092 0.2672 0.47196 0.0
O934 O 0.84412 0.32873 0.50962 0.0
O935 O 0.88355 0.33418 0.49868 0.0
O936 O 0.90673 0.2884 0.52729 0.0
O937 O 0.90316 0.24795 0.52976 0.0
O938 O 0.85068 0.24448 0.51297 0.0
O939 O 0.8554 0.27938 0.53414 0.0
C940 C 0.83103 0.27583 0.45944 0.0
O941 O 0.91172 0.21939 0.47998 0.0
O942 O 0.87067 0.21151 0.48134 0.0
C943 C 0.90189 0.28527 0.45508 0.0
C944 C 0.86457 0.36288 0.52433 0.0
C945 C 0.86383 0.40079 0.55783 0.0
C946 C 0.86298 0.40523 0.53001 0.0
C947 C 0.86336 0.38641 0.51341 0.0
C948 C 0.86679 0.35815 0.55226 0.0
C949 C 0.86652 0.37711 0.56902 0.0
C950 C 0.86156 0.34411 0.50566 0.0
C951 C 0.91294 0.26713 0.53977 0.0
H952 H 0.84253 0.17852 0.39886 0.0
H953 H 0.85634 0.17866 0.44719 0.0
H954 H 0.92059 0.22251 0.43246 0.0
H955 H 0.90692 0.22189 0.38405 0.0
H956 H 0.86122 0.42335 0.52101 0.0
H957 H 0.86178 0.39027 0.49188 0.0
H958 H 0.86784 0.33997 0.56092 0.0
H959 H 0.86713 0.37335 0.59045 0.0
H960 H 0.03661 0.30138 0.33753 0.0
H961 H 0.09943 0.27523 0.29372 0.0
H962 H 0.07002 0.31744 0.36979 0.0
H963 H 0.13267 0.29241 0.32479 0.0
H964 H 0.18876 0.33246 0.37307 0.0
H965 H 0.15867 0.30062 0.36563 0.0
H966 H 0.09017 0.35269 0.3603 0.0
H967 H 0.11998 0.38393 0.36816 0.0
C968 C 0.0577 0.29856 0.33528 0.0
C969 C 0.06555 0.28762 0.31297 0.0
C970 C 0.07681 0.30782 0.35364 0.0
C971 C 0.10391 0.30695 0.34939 0.0
C972 C 0.11203 0.29344 0.32879 0.0
C973 C 0.09296 0.28367 0.31082 0.0
C974 C 0.16722 0.33684 0.37104 0.0
C975 C 0.15666 0.36068 0.37074 0.0
C976 C 0.15001 0.31865 0.36678 0.0
C977 C 0.12199 0.32408 0.36192 0.0
C978 C 0.11158 0.34764 0.36428 0.0
C979 C 0.12874 0.36571 0.36871 0.0
H980 H 0.37697 0.53494 0.81606 0.0
H981 H 0.3496 0.55973 0.88806 0.0
H982 H 0.39423 0.57338 0.8072 0.0
H983 H 0.36682 0.59855 0.8789 0.0
H984 H 0.42334 0.66008 0.85873 0.0
H985 H 0.40765 0.6217 0.87379 0.0
H986 H 0.372 0.6128 0.79248 0.0
H987 H 0.38752 0.65041 0.77768 0.0
C988 C 0.3749 0.54845 0.83025 0.0
C989 C 0.36165 0.5441 0.8527 0.0
C990 C 0.38465 0.57067 0.82502 0.0
C991 C 0.38148 0.58934 0.84203 0.0
C992 C 0.36961 0.58464 0.86535 0.0
C993 C 0.35974 0.56232 0.87058 0.0
C994 C 0.41171 0.65008 0.84427 0.0
C995 C 0.40696 0.65826 0.81695 0.0
C996 C 0.40283 0.62803 0.85284 0.0
C997 C 0.38913 0.61379 0.83422 0.0
C998 C 0.38318 0.62281 0.80728 0.0
C999 C 0.39195 0.64459 0.79882 0.0
H1000 H 0.65696 0.12693 0.79292 0.0
H1001 H 0.62079 0.15996 0.71554 0.0
H1002 H 0.67778 0.09473 0.77114 0.0
H1003 H 0.64185 0.12711 0.6935 0.0
H1004 H 0.71276 0.07271 0.67095 0.0
H1005 H 0.68768 0.10727 0.68615 0.0
H1006 H 0.66051 0.06122 0.74685 0.0
H1007 H 0.68566 0.02714 0.73211 0.0
C1008 C 0.65344 0.12739 0.77119 0.0
C1009 C 0.6369 0.14598 0.75602 0.0
C1010 C 0.6653 0.10877 0.75868 0.0
C1011 C 0.66102 0.10806 0.7306 0.0
C1012 C 0.64542 0.12712 0.71519 0.0
C1013 C 0.63338 0.1459 0.72781 0.0
C1014 C 0.70083 0.06996 0.68706 0.0
C1015 C 0.7014 0.04727 0.70055 0.0
C1016 C 0.68655 0.08974 0.69582 0.0
C1017 C 0.67262 0.08706 0.71811 0.0
C1018 C 0.67161 0.06402 0.73009 0.0
C1019 C 0.68589 0.04443 0.72151 0.0
H1020 H 0.98341 0.86855 0.23741 0.0
H1021 H 0.93032 0.81558 0.25748 0.0
H1022 H 0.94485 0.89717 0.22248 0.0
H1023 H 0.89129 0.84457 0.24262 0.0
H1024 H 0.82856 0.90768 0.19786 0.0
H1025 H 0.8641 0.87455 0.20282 0.0
H1026 H 0.91564 0.91553 0.25456 0.0
H1027 H 0.88076 0.94808 0.24992 0.0
C1028 C 0.96337 0.86279 0.23775 0.0
C1029 C 0.95984 0.83986 0.24854 0.0
C1030 C 0.94129 0.87924 0.22941 0.0
C1031 C 0.91508 0.87326 0.23183 0.0
C1032 C 0.91127 0.84965 0.24045 0.0
C1033 C 0.93356 0.83302 0.24878 0.0
C1034 C 0.84751 0.90954 0.21026 0.0
C1035 C 0.85177 0.93062 0.22342 0.0
C1036 C 0.86777 0.89057 0.21315 0.0
C1037 C 0.89277 0.89257 0.2288 0.0
C1038 C 0.8968 0.91357 0.24199 0.0
C1039 C 0.87663 0.93223 0.23943 0.0
H1040 H 0.32723 0.17946 0.52395 0.0
H1041 H 0.40682 0.18382 0.50175 0.0
H1042 H 0.32048 0.14592 0.49689 0.0
H1043 H 0.39992 0.14939 0.47434 0.0
H1044 H 0.3593 0.10411 0.40506 0.0
H1045 H 0.37204 0.1368 0.43287 0.0
H1046 H 0.3362 0.10427 0.49768 0.0
H1047 H 0.32317 0.07199 0.47001 0.0
C1048 C 0.34346 0.17329 0.51331 0.0
C1049 C 0.36769 0.18453 0.51523 0.0
C1050 C 0.33958 0.15375 0.49786 0.0
C1051 C 0.35973 0.14461 0.48362 0.0
C1052 C 0.38393 0.15596 0.48505 0.0
C1053 C 0.38795 0.17563 0.50083 0.0
C1054 C 0.35442 0.10376 0.42537 0.0
C1055 C 0.33992 0.08539 0.4351 0.0
C1056 C 0.36184 0.12251 0.44136 0.0
C1057 C 0.35488 0.12342 0.46745 0.0
C1058 C 0.34145 0.10449 0.47751 0.0
C1059 C 0.33406 0.08583 0.46161 0.0
H1060 H 0.24776 0.96146 0.86429 0.0
H1061 H 0.20228 1.00849 0.90942 0.0
H1062 H 0.23702 0.9271 0.8915 0.0
H1063 H 0.19053 0.97419 0.93583 0.0
H1064 H 0.21444 0.91629 1.00357 0.0
H1065 H 0.21644 0.94897 0.97062 0.0
H1066 H 0.2056 0.90088 0.90695 0.0
H1067 H 0.20407 0.86776 0.94045 0.0
C1068 C 0.23474 0.96439 0.87945 0.0
C1069 C 0.22618 0.98767 0.88505 0.0
C1070 C 0.22854 0.94467 0.89505 0.0
C1071 C 0.2134 0.94789 0.91629 0.0
C1072 C 0.20292 0.9711 0.92019 0.0
C1073 C 0.20944 0.99076 0.90491 0.0
C1074 C 0.21195 0.91272 0.98252 0.0
C1075 C 0.20876 0.88948 0.97461 0.0
C1076 C 0.21303 0.93151 0.96354 0.0
C1077 C 0.21079 0.9277 0.93601 0.0
C1078 C 0.20749 0.90444 0.92799 0.0
C1079 C 0.20657 0.88549 0.94713 0.0
H1080 H 0.82318 0.43541 0.54861 0.0
H1081 H 0.89429 0.41143 0.60433 0.0
H1082 H 0.81618 0.47023 0.57371 0.0
H1083 H 0.88772 0.44699 0.62949 0.0
H1084 H 0.84202 0.50016 0.6807 0.0
H1085 H 0.85722 0.46576 0.65765 0.0
H1086 H 0.83638 0.50686 0.5814 0.0
H1087 H 0.82018 0.54072 0.60436 0.0
C1088 C 0.83747 0.43781 0.56618 0.0
C1089 C 0.85947 0.42104 0.57439 0.0
C1090 C 0.83361 0.45782 0.58046 0.0
C1091 C 0.85181 0.46169 0.6032 0.0
C1092 C 0.87345 0.44452 0.61197 0.0
C1093 C 0.87721 0.42424 0.59767 0.0
C1094 C 0.84139 0.50196 0.65907 0.0
C1095 C 0.82969 0.5229 0.64418 0.0
C1096 C 0.85007 0.48228 0.64589 0.0
C1097 C 0.84741 0.48345 0.61768 0.0
C1098 C 0.83794 0.5052 0.60311 0.0
C1099 C 0.8289 0.52465 0.61622 0.0
H1100 H 0.69921 0.61438 0.17808 0.0
H1101 H 0.73317 0.56585 0.12612 0.0
H1102 H 0.68741 0.64426 0.13995 0.0
H1103 H 0.72055 0.59492 0.08809 0.0
H1104 H 0.73177 0.66111 1.03702 0.0
H1105 H 0.73711 0.63073 0.07375 0.0
H1106 H 0.66118 0.65695 0.09659 0.0
H1107 H 0.65616 0.68822 0.05986 0.0
C1108 C 0.70351 0.60989 0.15839 0.0
C1109 C 0.71734 0.58789 0.15513 0.0
C1110 C 0.69675 0.62698 0.13651 0.0
C1111 C 0.70346 0.62225 0.11092 0.0
C1112 C 0.71576 0.59957 0.10756 0.0
C1113 C 0.72283 0.58277 0.12936 0.0
C1114 C 0.71602 0.66044 0.04966 0.0
C1115 C 0.69346 0.67718 0.04527 0.0
C1116 C 0.71901 0.64278 0.07076 0.0
C1117 C 0.69947 0.64111 0.08816 0.0
C1118 C 0.67672 0.65774 0.08373 0.0
C1119 C 0.67373 0.67555 0.0625 0.0
H1120 H 0.45656 0.32482 0.10812 0.0
H1121 H 0.40856 0.33118 0.17241 0.0
H1122 H 0.49619 0.33382 0.13792 0.0
H1123 H 0.44877 0.33926 0.20305 0.0
H1124 H 0.52859 0.36157 0.24897 0.0
H1125 H 0.4869 0.36392 0.21685 0.0
H1126 H 0.52243 0.30899 0.17316 0.0
H1127 H 0.56355 0.30713 0.20424 0.0
C1128 C 0.45447 0.32866 0.12861 0.0
C1129 C 0.42962 0.32735 0.13802 0.0
C1130 C 0.47721 0.33358 0.14579 0.0
C1131 C 0.47588 0.33672 0.1731 0.0
C1132 C 0.45053 0.33701 0.18214 0.0
C1133 C 0.4275 0.33242 0.16465 0.0
C1134 C 0.52756 0.35038 0.23216 0.0
C1135 C 0.54951 0.33424 0.22916 0.0
C1136 C 0.50361 0.35156 0.21392 0.0
C1137 C 0.50131 0.3368 0.19223 0.0
C1138 C 0.52352 0.32105 0.18917 0.0
C1139 C 0.54718 0.31984 0.20724 0.0
H1140 H 0.90289 0.28996 0.91464 0.0
H1141 H 0.88204 0.21687 0.91778 0.0
H1142 H 0.93216 0.28133 0.88173 0.0
H1143 H 0.91253 0.20795 0.88452 0.0
H1144 H 0.95393 0.21126 0.80457 0.0
H1145 H 0.92141 0.21632 0.83657 0.0
H1146 H 0.97505 0.26008 0.88229 0.0
H1147 H 1.0067 0.25565 0.85053 0.0
C1148 C 0.90464 0.27187 0.90846 0.0
C1149 C 0.89025 0.25403 0.91932 0.0
C1150 C 0.92167 0.2669 0.8895 0.0
C1151 C 0.92526 0.24382 0.88073 0.0
C1152 C 0.91028 0.22595 0.89084 0.0
C1153 C 0.89292 0.23101 0.90997 0.0
C1154 C 0.95867 0.222 0.82144 0.0
C1155 C 0.98285 0.23334 0.82461 0.0
C1156 C 0.94011 0.22475 0.8399 0.0
C1157 C 0.94535 0.2389 0.86188 0.0
C1158 C 0.9699 0.24954 0.86532 0.0
C1159 C 0.98821 0.24691 0.847 0.0
H1160 H 0.5434 0.88034 0.33186 0.0
H1161 H 0.54718 0.80331 0.34253 0.0
H1162 H 0.58025 0.88029 0.36973 0.0
H1163 H 0.58296 0.80355 0.3797 0.0
H1164 H 0.60607 0.81695 0.46693 0.0
H1165 H 0.57369 0.82875 0.42707 0.0
H1166 H 0.63748 0.85142 0.38485 0.0
H1167 H 0.6704 0.83963 0.42526 0.0
C1168 C 0.55225 0.86349 0.34188 0.0
C1169 C 0.54193 0.84189 0.33441 0.0
C1170 C 0.57329 0.86349 0.36345 0.0
C1171 C 0.58414 0.8419 0.37766 0.0
C1172 C 0.5748 0.82042 0.36917 0.0
C1173 C 0.55413 0.82038 0.34786 0.0
C1174 C 0.61321 0.82504 0.44943 0.0
C1175 C 0.64081 0.82713 0.44912 0.0
C1176 C 0.59462 0.8319 0.42668 0.0
C1177 C 0.60313 0.84096 0.40297 0.0
C1178 C 0.63045 0.84475 0.40305 0.0
C1179 C 0.64922 0.83797 0.4261 0.0
H1180 H 0.18292 0.71965 0.66359 0.0
H1181 H 0.11683 0.77094 0.6312 0.0
H1182 H 0.16838 0.72078 0.70798 0.0
H1183 H 0.10189 0.77165 0.67501 0.0
H1184 H 0.09327 0.78674 0.75983 0.0
H1185 H 0.11219 0.78563 0.71786 0.0
H1186 H 0.1356 0.71034 0.73519 0.0
H1187 H 0.11774 0.71183 0.77757 0.0
C1188 C 0.16502 0.73084 0.66581 0.0
C1189 C 0.15106 0.74517 0.64375 0.0
C1190 C 0.15666 0.73155 0.69133 0.0
C1191 C 0.13405 0.74654 0.69541 0.0
C1192 C 0.11976 0.76033 0.67305 0.0
C1193 C 0.12818 0.75971 0.64771 0.0
C1194 C 0.10283 0.77001 0.75493 0.0
C1195 C 0.10377 0.74932 0.77226 0.0
C1196 C 0.11345 0.76928 0.7306 0.0
C1197 C 0.12506 0.74776 0.72262 0.0
C1198 C 0.12702 0.72731 0.7405 0.0
C1199 C 0.11664 0.72813 0.76497 0.0
H1200 H 0.96445 0.75653 0.78507 0.0
H1201 H 1.02261 0.7292 0.73659 0.0
H1202 H 0.92854 0.74225 0.75493 0.0
H1203 H 0.98638 0.71652 0.70472 0.0
H1204 H 0.93143 0.65403 0.7011 0.0
H1205 H 0.96367 0.68326 0.70925 0.0
H1206 H 0.89917 0.73651 0.7174 0.0
H1207 H 0.86698 0.70622 0.71089 0.0
C1208 C 0.96935 0.74838 0.76719 0.0
C1209 C 0.99618 0.74329 0.76342 0.0
C1210 C 0.94868 0.74031 0.74963 0.0
C1211 C 0.9545 0.72749 0.72763 0.0
C1212 C 0.98121 0.72543 0.72201 0.0
C1213 C 1.00197 0.73281 0.7401 0.0
C1214 C 0.92408 0.67219 0.70377 0.0
C1215 C 0.89692 0.67786 0.70589 0.0
C1216 C 0.94259 0.68916 0.70829 0.0
C1217 C 0.93423 0.71231 0.71465 0.0
C1218 C 0.90647 0.71868 0.71347 0.0
C1219 C 0.88799 0.70145 0.70957 0.0
H1220 H 0.63923 0.37136 0.21446 0.0
H1221 H 0.6761 0.38159 0.29501 0.0
H1222 H 0.65394 0.41002 0.19895 0.0
H1223 H 0.69054 0.41952 0.27978 0.0
H1224 H 0.68408 0.49729 0.25599 0.0
H1225 H 0.66701 0.45875 0.26497 0.0
H1226 H 0.6947 0.43351 0.19343 0.0
H1227 H 0.71168 0.47235 0.18415 0.0
C1228 C 0.65089 0.38154 0.2287 0.0
C1229 C 0.65623 0.37342 0.25603 0.0
C1230 C 0.65918 0.40375 0.21988 0.0
C1231 C 0.67282 0.41823 0.23827 0.0
C1232 C 0.67937 0.4093 0.26518 0.0
C1233 C 0.67125 0.38734 0.27388 0.0
C1234 C 0.68619 0.48376 0.24184 0.0
C1235 C 0.69955 0.48806 0.21945 0.0
C1236 C 0.67656 0.4615 0.24712 0.0
C1237 C 0.67995 0.44278 0.23022 0.0
C1238 C 0.69177 0.44746 0.20689 0.0
C1239 C 0.70151 0.4698 0.20161 0.0
H1240 H 0.44463 0.87194 0.35828 0.0
H1241 H 0.41239 0.90606 0.28027 0.0
H1242 H 0.42361 0.90509 0.37973 0.0
H1243 H 0.39134 0.93854 0.30147 0.0
H1244 H 0.38073 1.00557 0.3414 0.0
H1245 H 0.40606 0.97179 0.32623 0.0
H1246 H 0.37915 0.925 0.38646 0.0
H1247 H 0.35409 0.9592 0.40214 0.0
C1248 C 0.43294 0.88636 0.34573 0.0
C1249 C 0.43045 0.88644 0.31755 0.0
C1250 C 0.42088 0.90532 0.35802 0.0
C1251 C 0.40621 0.92471 0.34233 0.0
C1252 C 0.4031 0.92427 0.3142 0.0
C1253 C 0.41506 0.90548 0.30202 0.0
C1254 C 0.38058 0.98816 0.35176 0.0
C1255 C 0.36524 0.98504 0.37282 0.0
C1256 C 0.39494 0.96874 0.34292 0.0
C1257 C 0.39413 0.94557 0.3547 0.0
C1258 C 0.3802 0.94261 0.37695 0.0
C1259 C 0.3659 0.9622 0.38598 0.0
H1260 H 0.18276 0.07895 0.82783 0.0
H1261 H 0.23564 0.12317 0.87392 0.0
H1262 H 0.14751 0.11147 0.82117 0.0
H1263 H 0.19996 0.15611 0.86691 0.0
H1264 H 0.13516 0.21362 0.81336 0.0
H1265 H 0.17312 0.18346 0.82666 0.0
H1266 H 0.11843 0.13335 0.85048 0.0
H1267 H 0.08077 0.16318 0.83753 0.0
C1268 C 0.18692 0.09562 0.83658 0.0
C1269 C 0.2121 0.09837 0.85147 0.0
C1270 C 0.16658 0.11426 0.83287 0.0
C1271 C 0.17084 0.13634 0.84366 0.0
C1272 C 0.1961 0.13931 0.85832 0.0
C1273 C 0.21646 0.12042 0.86242 0.0
C1274 C 0.13132 0.19637 0.82207 0.0
C1275 C 0.10481 0.19086 0.82419 0.0
C1276 C 0.15308 0.17908 0.82965 0.0
C1277 C 0.14872 0.15591 0.83927 0.0
C1278 C 0.12242 0.1509 0.84275 0.0
C1279 C 0.10082 0.16813 0.83543 0.0
H1280 H 0.72599 0.96274 0.60578 0.0
H1281 H 0.72616 0.91718 0.67788 0.0
H1282 H 0.71323 0.92961 0.57844 0.0
H1283 H 0.71405 0.88402 0.65037 0.0
H1284 H 0.74305 0.83647 0.57392 0.0
H1285 H 0.74942 0.86969 0.60261 0.0
H1286 H 0.66497 0.89245 0.58444 0.0
H1287 H 0.65822 0.85866 0.55592 0.0
C1288 C 0.72303 0.94578 0.61582 0.0
C1289 C 0.72698 0.94274 0.6441 0.0
C1290 C 0.71564 0.92687 0.60013 0.0
C1291 C 0.71245 0.90435 0.61231 0.0
C1292 C 0.71606 0.90129 0.6405 0.0
C1293 C 0.72295 0.92032 0.65622 0.0
C1294 C 0.7257 0.84839 0.5761 0.0
C1295 C 0.70007 0.84482 0.56253 0.0
C1296 C 0.72942 0.8674 0.59259 0.0
C1297 C 0.70773 0.88362 0.59569 0.0
C1298 C 0.68202 0.88013 0.58239 0.0
C1299 C 0.67816 0.86076 0.56617 0.0
H1300 H 0.84983 0.11219 0.06853 0.0
H1301 H 0.86635 0.15922 0.13233 0.0
H1302 H 0.84781 0.07934 0.1013 0.0
H1303 H 0.86482 0.12593 0.16559 0.0
H1304 H 0.82072 0.06786 0.20938 0.0
H1305 H 0.83216 0.10152 0.18169 0.0
H1306 H 0.87367 0.0527 0.13503 0.0
H1307 H 0.86139 0.01905 0.16219 0.0
C1308 C 0.85368 0.11536 0.08966 0.0
C1309 C 0.85851 0.13824 0.09786 0.0
C1310 C 0.8526 0.09647 0.10852 0.0
C1311 C 0.85647 0.09987 0.13616 0.0
C1312 C 0.8616 0.12273 0.14445 0.0
C1313 C 0.86252 0.14177 0.12546 0.0
C1314 C 0.83287 0.06436 0.19363 0.0
C1315 C 0.83996 0.04083 0.18775 0.0
C1316 C 0.83945 0.08368 0.17774 0.0
C1317 C 0.85344 0.07982 0.15582 0.0
C1318 C 0.86227 0.05629 0.15132 0.0
C1319 C 0.85542 0.037 0.16699 0.0
H1320 H 0.16778 0.59973 0.49044 0.0
H1321 H 0.24639 0.62487 0.48744 0.0
H1322 H 0.18008 0.56551 0.46539 0.0
H1323 H 0.2589 0.59078 0.46329 0.0
H1324 H 0.26924 0.54099 0.401 0.0
H1325 H 0.24991 0.5753 0.42068 0.0
H1326 H 0.20941 0.52858 0.47031 0.0
H1327 H 0.22805 0.49397 0.44934 0.0
C1328 C 0.18761 0.59796 0.48431 0.0
C1329 C 0.20601 0.61511 0.49047 0.0
C1330 C 0.19469 0.57835 0.47014 0.0
C1331 C 0.22037 0.57552 0.4621 0.0
C1332 C 0.23869 0.59271 0.46846 0.0
C1333 C 0.23155 0.6123 0.48233 0.0
C1334 C 0.256 0.53805 0.41595 0.0
C1335 C 0.25042 0.51488 0.42405 0.0
C1336 C 0.24501 0.55771 0.42732 0.0
C1337 C 0.22863 0.55467 0.44753 0.0
C1338 C 0.22192 0.53152 0.45473 0.0
C1339 C 0.23262 0.51172 0.44288 0.0
H1340 H 0.40372 0.33944 1.00898 0.0
H1341 H 0.33657 0.37367 0.04122 0.0
H1342 H 0.39619 0.36906 0.97052 0.0
H1343 H 0.32959 0.40337 1.0035 0.0
H1344 H 0.29984 0.43236 0.9198 0.0
H1345 H 0.31219 0.4029 0.95718 0.0
H1346 H 0.39632 0.41138 0.95381 0.0
H1347 H 0.38368 0.44091 0.91521 0.0
C1348 C 0.38765 0.35348 1.00813 0.0
C1349 C 0.37054 0.35398 1.02808 0.0
C1350 C 0.38339 0.3705 0.98609 0.0
C1351 C 0.36198 0.38839 0.9836 0.0
C1352 C 0.34582 0.38949 1.00431 0.0
C1353 C 0.34993 0.37249 1.02611 0.0
C1354 C 0.32104 0.42803 0.92693 0.0
C1355 C 0.34078 0.43932 0.9148 0.0
C1356 C 0.32813 0.41116 0.94856 0.0
C1357 C 0.35525 0.40517 0.95908 0.0
C1358 C 0.37522 0.41566 0.94628 0.0
C1359 C 0.36803 0.43256 0.92422 0.0
H1360 H 0.49743 0.71713 0.8733 0.0
H1361 H 0.5385 0.67568 0.81938 0.0
H1362 H 0.53952 0.71826 0.90291 0.0
H1363 H 0.5812 0.67695 0.84945 0.0
H1364 H 0.64674 0.67581 0.93176 0.0
H1365 H 0.60699 0.66643 0.90088 0.0
H1366 H 0.57913 0.74116 0.89142 0.0
H1367 H 0.61799 0.75046 0.92148 0.0
C1368 C 0.51539 0.70789 0.86796 0.0
C1369 C 0.5146 0.69657 0.84377 0.0
C1370 C 0.53957 0.70858 0.88495 0.0
C1371 C 0.56376 0.69806 0.87828 0.0
C1372 C 0.56285 0.68521 0.85509 0.0
C1373 C 0.53841 0.68447 0.83792 0.0
C1374 C 0.63227 0.69018 0.9227 0.0
C1375 C 0.63532 0.71381 0.92955 0.0
C1376 C 0.60956 0.68482 0.90509 0.0
C1377 C 0.58965 0.70302 0.89426 0.0
C1378 C 0.59372 0.72667 0.89995 0.0
C1379 C 0.61613 0.73197 0.91724 0.0
H1380 H 0.06805 0.76167 0.234 0.0
H1381 H 0.09841 0.8294 0.2523 0.0
H1382 H 0.10027 0.75594 0.2028 0.0
H1383 H 0.13187 0.82318 0.22179 0.0
H1384 H 0.17401 0.81218 0.14578 0.0
H1385 H 0.14153 0.82108 0.17689 0.0
H1386 H 0.14542 0.746 0.20206 0.0
H1387 H 0.17637 0.73728 0.17049 0.0
C1388 C 0.08185 0.77527 0.23159 0.0
C1389 C 0.08071 0.7959 0.24589 0.0
C1390 C 0.10059 0.77192 0.21373 0.0
C1391 C 0.11925 0.78887 0.20991 0.0
C1392 C 0.11783 0.80976 0.22394 0.0
C1393 C 0.0987 0.81328 0.24159 0.0
C1394 C 0.16792 0.79769 0.15812 0.0
C1395 C 0.1775 0.774 0.15536 0.0
C1396 C 0.14933 0.80275 0.17603 0.0
C1397 C 0.14022 0.78423 0.19179 0.0
C1398 C 0.15099 0.76074 0.18974 0.0
C1399 C 0.16905 0.75571 0.1717 0.0
H1400 H 0.53512 0.14766 0.73153 0.0
H1401 H 0.50528 0.21809 0.74892 0.0
H1402 H 0.4987 0.14847 0.69324 0.0
H1403 H 0.4692 0.21863 0.71133 0.0
H1404 H 0.4622 0.21826 0.61355 0.0
H1405 H 0.49315 0.20425 0.65385 0.0
H1406 H 0.42887 0.17242 0.68773 0.0
H1407 H 0.39748 0.18623 0.64688 0.0
C1408 C 0.5203 0.16286 0.72779 0.0
C1409 C 0.52313 0.18289 0.743 0.0
C1410 C 0.49955 0.16332 0.70597 0.0
C1411 C 0.48122 0.18358 0.69961 0.0
C1412 C 0.48295 0.20274 0.71606 0.0
C1413 C 0.50369 0.20243 0.73746 0.0
C1414 C 0.45469 0.20779 0.62925 0.0
C1415 C 0.42735 0.20347 0.6271 0.0
C1416 C 0.47248 0.19965 0.65221 0.0
C1417 C 0.46337 0.18711 0.67363 0.0
C1418 C 0.43636 0.18175 0.6712 0.0
C1419 C 0.41847 0.18967 0.64791 0.0
H1420 H 0.87931 0.31132 0.40816 0.0
H1421 H 0.94751 0.26273 0.44172 0.0
H1422 H 0.89405 0.30999 0.36378 0.0
H1423 H 0.96244 0.26172 0.39792 0.0
H1424 H 0.97026 0.24377 0.31381 0.0
H1425 H 0.95133 0.24592 0.35568 0.0
H1426 H 0.92744 0.32085 0.33611 0.0
H1427 H 0.94575 0.31848 0.29382 0.0
C1428 C 0.89766 0.30067 0.4062 0.0
C1429 C 0.91216 0.28712 0.42861 0.0
C1430 C 0.90612 0.29985 0.38069 0.0
C1431 C 0.92929 0.28544 0.37695 0.0
C1432 C 0.94413 0.27253 0.39965 0.0
C1433 C 0.93569 0.27333 0.42497 0.0
C1434 C 0.9606 0.26065 0.31817 0.0
C1435 C 0.95965 0.28095 0.30025 0.0
C1436 C 0.94996 0.26197 0.34243 0.0
C1437 C 0.93822 0.28369 0.34975 0.0
C1438 C 0.93617 0.30376 0.33128 0.0
C1439 C 0.94671 0.3024 0.30688 0.0
H1440 H 0.2107 0.05114 0.37496 0.0
H1441 H 0.25391 0.11453 0.37193 0.0
H1442 H 0.16899 0.07482 0.35609 0.0
H1443 H 0.21247 0.13803 0.35288 0.0
H1444 H 0.12949 0.17751 0.33644 0.0
H1445 H 0.16794 0.15342 0.36171 0.0
H1446 H 0.15144 0.09516 0.31159 0.0
H1447 H 0.11313 0.1193 0.28612 0.0
C1448 C 0.21122 0.07019 0.37078 0.0
C1449 C 0.23564 0.08095 0.37493 0.0
C1450 C 0.18738 0.0837 0.35969 0.0
C1451 C 0.18742 0.10829 0.35279 0.0
C1452 C 0.21164 0.11919 0.35815 0.0
C1453 C 0.23545 0.10568 0.36899 0.0
C1454 C 0.13412 0.15961 0.33069 0.0
C1455 C 0.11828 0.15045 0.30906 0.0
C1456 C 0.15611 0.14577 0.34526 0.0
C1457 C 0.1628 0.12237 0.33867 0.0
C1458 C 0.14662 0.11299 0.31747 0.0
C1459 C 0.12465 0.12686 0.30282 0.0
H1460 H 0.31394 0.96527 0.90223 0.0
H1461 H 0.33108 0.98847 0.82346 0.0
H1462 H 0.33383 0.92514 0.8967 0.0
H1463 H 0.34969 0.94865 0.81752 0.0
H1464 H 0.40224 0.8804 0.82062 0.0
H1465 H 0.38594 0.92018 0.83012 0.0
H1466 H 0.32581 0.89033 0.87275 0.0
H1467 H 0.34333 0.85026 0.86469 0.0
C1468 C 0.32219 0.96194 0.8839 0.0
C1469 C 0.32104 0.98026 0.86342 0.0
C1470 C 0.33329 0.93881 0.88054 0.0
C1471 C 0.34344 0.93345 0.8566 0.0
C1472 C 0.34263 0.95198 0.83644 0.0
C1473 C 0.33175 0.97497 0.83983 0.0
C1474 C 0.38577 0.88218 0.83234 0.0
C1475 C 0.37422 0.86189 0.84187 0.0
C1476 C 0.37613 0.90516 0.83753 0.0
C1477 C 0.35439 0.9087 0.85218 0.0
C1478 C 0.34277 0.88843 0.8617 0.0
C1479 C 0.35256 0.86538 0.85666 0.0
H1480 H 0.6335 0.47014 0.68975 0.0
H1481 H 0.7138 0.43556 0.69615 0.0
H1482 H 0.61903 0.43509 0.71324 0.0
H1483 H 0.69934 0.40044 0.71912 0.0
H1484 H 0.66913 0.3424 0.76865 0.0
H1485 H 0.68139 0.38317 0.75934 0.0
H1486 H 0.61334 0.39515 0.69648 0.0
H1487 H 0.60107 0.35489 0.70602 0.0
C1488 C 0.64808 0.45517 0.69653 0.0
C1489 C 0.67457 0.45524 0.69072 0.0
C1490 C 0.63985 0.43516 0.7099 0.0
C1491 C 0.65804 0.41503 0.71783 0.0
C1492 C 0.68494 0.41576 0.71344 0.0
C1493 C 0.6931 0.43567 0.69994 0.0
C1494 C 0.65656 0.35405 0.75331 0.0
C1495 C 0.63445 0.34557 0.73774 0.0
C1496 C 0.66358 0.37724 0.74791 0.0
C1497 C 0.64836 0.39225 0.72712 0.0
C1498 C 0.62528 0.38413 0.71281 0.0
C1499 C 0.61843 0.36101 0.71805 0.0
H1500 H 0.84002 0.57207 0.20491 0.0
H1501 H 0.79308 0.60986 0.25726 0.0
H1502 H 0.87539 0.59954 0.21366 0.0
H1503 H 0.82793 0.63703 0.26568 0.0
H1504 H 0.90632 0.66594 0.29876 0.0
H1505 H 0.8733 0.63705 0.28906 0.0
H1506 H 0.88458 0.64221 0.20551 0.0
H1507 H 0.91842 0.67072 0.21539 0.0
C1508 C 0.83718 0.58616 0.21823 0.0
C1509 C 0.81356 0.58864 0.23031 0.0
C1510 C 0.8574 0.602 0.22314 0.0
C1511 C 0.85464 0.62049 0.24052 0.0
C1512 C 0.83102 0.62287 0.25251 0.0
C1513 C 0.81084 0.60728 0.24745 0.0
C1514 C 0.90203 0.66081 0.27833 0.0
C1515 C 0.91514 0.67082 0.25789 0.0
C1516 C 0.88283 0.64435 0.2727 0.0
C1517 C 0.87608 0.63731 0.24644 0.0
C1518 C 0.88936 0.64707 0.22599 0.0
C1519 C 0.90854 0.66367 0.23162 0.0
H1520 H 0.30603 0.16 0.22551 0.0
H1521 H 0.38748 0.12851 0.22898 0.0
H1522 H 0.31482 0.19095 0.19291 0.0
H1523 H 0.39657 0.16028 0.19693 0.0
H1524 H 0.39226 0.2121 0.11952 0.0
H1525 H 0.38469 0.17788 0.14925 0.0
H1526 H 0.34179 0.22524 0.19618 0.0
H1527 H 0.349 0.25904 0.1668 0.0
C1528 C 0.32575 0.15947 0.21912 0.0
C1529 C 0.34606 0.14173 0.23003 0.0
C1530 C 0.33089 0.17744 0.20063 0.0
C1531 C 0.35651 0.17828 0.19259 0.0
C1532 C 0.37661 0.16011 0.20269 0.0
C1533 C 0.37147 0.14206 0.22127 0.0
C1534 C 0.38137 0.21518 0.13628 0.0
C1535 C 0.37117 0.23838 0.14062 0.0
C1536 C 0.37707 0.19559 0.15333 0.0
C1537 C 0.36232 0.19882 0.17487 0.0
C1538 C 0.35273 0.22205 0.17946 0.0
C1539 C 0.35709 0.24151 0.16263 0.0
H1540 H 0.17497 0.93446 0.7941 0.0
H1541 H 0.2526 0.91479 0.77045 0.0
H1542 H 0.16247 0.89407 0.78881 0.0
H1543 H 0.23924 0.87537 0.76252 0.0
H1544 H 0.21402 0.81732 0.72546 0.0
H1545 H 0.2246 0.83772 0.76648 0.0
H1546 H 0.14788 0.87958 0.74829 0.0
H1547 H 0.13708 0.85818 0.70873 0.0
C1548 C 0.1896 0.92148 0.78819 0.0
C1549 C 0.21435 0.92821 0.78143 0.0
C1550 C 0.18232 0.89827 0.78498 0.0
C1551 C 0.19923 0.88159 0.77409 0.0
C1552 C 0.22532 0.88756 0.77067 0.0
C1553 C 0.23283 0.91054 0.77451 0.0
C1554 C 0.19894 0.82998 0.73125 0.0
C1555 C 0.1752 0.83694 0.7137 0.0
C1556 C 0.20504 0.84184 0.75458 0.0
C1557 C 0.1879 0.86139 0.75984 0.0
C1558 C 0.162 0.86504 0.74483 0.0
C1559 C 0.15568 0.85279 0.7219 0.0
H1560 H 0.75789 0.48493 0.71634 0.0
H1561 H 0.81341 0.52176 0.76914 0.0
H1562 H 0.76047 0.45215 0.75098 0.0
H1563 H 0.81653 0.48898 0.80316 0.0
H1564 H 0.79935 0.43931 0.86952 0.0
H1565 H 0.79085 0.47136 0.83426 0.0
H1566 H 0.79069 0.41967 0.77419 0.0
H1567 H 0.79775 0.38741 0.8096 0.0
C1568 C 0.77076 0.48598 0.73523 0.0
C1569 C 0.78535 0.50604 0.74 0.0
C1570 C 0.77229 0.46716 0.75506 0.0
C1571 C 0.78851 0.468 0.78001 0.0
C1572 C 0.80331 0.48795 0.7845 0.0
C1573 C 0.80166 0.50673 0.76485 0.0
C1574 C 0.79683 0.43467 0.84883 0.0
C1575 C 0.79934 0.4107 0.84249 0.0
C1576 C 0.79237 0.45312 0.82854 0.0
C1577 C 0.79051 0.44816 0.80133 0.0
C1578 C 0.79195 0.42418 0.7949 0.0
C1579 C 0.79629 0.40567 0.81524 0.0
H1580 H 0.74808 0.64932 0.36822 0.0
H1581 H 0.66181 0.64675 0.35672 0.0
H1582 H 0.74437 0.67715 0.40305 0.0
H1583 H 0.65803 0.67527 0.39096 0.0
H1584 H 0.66331 0.71459 0.47011 0.0
H1585 H 0.66673 0.68298 0.43878 0.0
H1586 H 0.72937 0.71814 0.40546 0.0
H1587 H 0.72629 0.74907 0.43641 0.0
C1588 C 0.7283 0.65451 0.37317 0.0
C1589 C 0.70527 0.64577 0.35925 0.0
C1590 C 0.72611 0.67076 0.39306 0.0
C1591 C 0.70083 0.67883 0.39982 0.0
C1592 C 0.67785 0.66952 0.38652 0.0
C1593 C 0.68004 0.65332 0.36654 0.0
C1594 C 0.67783 0.71552 0.45613 0.0
C1595 C 0.69443 0.7346 0.45599 0.0
C1596 C 0.67974 0.69741 0.43804 0.0
C1597 C 0.69851 0.69776 0.41954 0.0
C1598 C 0.71503 0.71683 0.41959 0.0
C1599 C 0.71303 0.73484 0.43738 0.0
H1600 H 0.19358 0.34587 0.15385 0.0
H1601 H 0.21694 0.27034 0.1673 0.0
H1602 H 0.15129 0.33989 0.17053 0.0
H1603 H 0.17458 0.26431 0.18446 0.0
H1604 H 0.08487 0.25936 0.19189 0.0
H1605 H 0.12679 0.26436 0.17354 0.0
H1606 H 0.13357 0.33125 0.21071 0.0
H1607 H 0.09145 0.32662 0.22823 0.0
C1608 C 0.18983 0.32797 0.16064 0.0
C1609 C 0.2089 0.30864 0.15944 0.0
C1610 C 0.16549 0.32452 0.17029 0.0
C1611 C 0.15942 0.30163 0.1792 0.0
C1612 C 0.17831 0.28218 0.17757 0.0
C1613 C 0.20268 0.28564 0.16776 0.0
C1614 C 0.09529 0.27516 0.19609 0.0
C1615 C 0.08457 0.29266 0.21142 0.0
C1616 C 0.11948 0.27797 0.18569 0.0
C1617 C 0.1337 0.29829 0.19044 0.0
C1618 C 0.12304 0.31561 0.20605 0.0
C1619 C 0.09883 0.31288 0.21627 0.0
H1620 H 0.76349 0.23396 0.95569 0.0
H1621 H 0.77347 0.28217 0.88839 0.0
H1622 H 0.72625 0.218 0.92937 0.0
H1623 H 0.73484 0.26657 0.86191 0.0
H1624 H 0.68354 0.21661 0.81305 0.0
H1625 H 0.72084 0.23298 0.83967 0.0
H1626 H 0.68128 0.22404 0.91021 0.0
H1627 H 0.6442 0.20677 0.88344 0.0
C1628 C 0.75757 0.24149 0.93526 0.0
C1629 C 0.77176 0.25951 0.92426 0.0
C1630 C 0.73583 0.23232 0.92013 0.0
C1631 C 0.72716 0.24088 0.89339 0.0
C1632 C 0.74105 0.25919 0.88234 0.0
C1633 C 0.76313 0.26834 0.89756 0.0
C1634 C 0.68286 0.21793 0.83433 0.0
C1635 C 0.66081 0.21027 0.84611 0.0
C1636 C 0.70422 0.22764 0.84959 0.0
C1637 C 0.70421 0.23026 0.87717 0.0
C1638 C 0.68233 0.22215 0.8891 0.0
C1639 C 0.66099 0.21216 0.8738 0.0
H1640 H 0.8288 0.82684 0.38594 0.0
H1641 H 0.88266 0.79382 0.45442 0.0
H1642 H 0.86649 0.8294 0.36058 0.0
H1643 H 0.92053 0.79651 0.42893 0.0
H1644 H 0.9854 0.82405 0.38036 0.0
H1645 H 0.94817 0.82555 0.40733 0.0
H1646 H 0.89591 0.80086 0.34124 0.0
H1647 H 0.93254 0.79962 0.31451 0.0
C1648 C 0.84865 0.81989 0.39552 0.0
C1649 C 0.85261 0.80985 0.42213 0.0
C1650 C 0.87029 0.82149 0.38101 0.0
C1651 C 0.89651 0.81309 0.3927 0.0
C1652 C 0.90063 0.80341 0.41946 0.0
C1653 C 0.87891 0.80178 0.43401 0.0
C1654 C 0.96584 0.81923 0.37159 0.0
C1655 C 0.96195 0.81162 0.34537 0.0
C1656 C 0.94462 0.81989 0.38707 0.0
C1657 C 0.91909 0.81329 0.37642 0.0
C1658 C 0.91519 0.80629 0.34998 0.0
C1659 C 0.93631 0.80541 0.33471 0.0
H1660 H 0.35373 0.74202 0.75619 0.0
H1661 H 0.3972 0.71855 0.69283 0.0
H1662 H 0.3131 0.75042 0.72414 0.0
H1663 H 0.35651 0.72768 0.66044 0.0
H1664 H 0.27274 0.71904 0.61698 0.0
H1665 H 0.3139 0.71284 0.64837 0.0
H1666 H 0.29092 0.77615 0.68706 0.0
H1667 H 0.2489 0.78204 0.65579 0.0
C1668 C 0.35475 0.73884 0.73534 0.0
C1669 C 0.37884 0.72947 0.72716 0.0
C1670 C 0.33137 0.74387 0.71687 0.0
C1671 C 0.33137 0.73978 0.68962 0.0
C1672 C 0.35559 0.73074 0.68133 0.0
C1673 C 0.37901 0.72559 0.69989 0.0
C1674 C 0.27635 0.73175 0.63212 0.0
C1675 C 0.25739 0.7511 0.6338 0.0
C1676 C 0.3002 0.72825 0.65006 0.0
C1677 C 0.306 0.74406 0.67021 0.0
C1678 C 0.28705 0.76346 0.67197 0.0
C1679 C 0.26298 0.76691 0.654 0.0
H1680 H 0.81069 0.91487 0.70665 0.0
H1681 H 0.85501 0.97692 0.69701 0.0
H1682 H 0.85229 0.89122 0.72492 0.0
H1683 H 0.89685 0.9531 0.71515 0.0
H1684 H 0.95418 0.91096 0.78602 0.0
H1685 H 0.91568 0.93474 0.7604 0.0
H1686 H 0.89592 0.87422 0.71501 0.0
H1687 H 0.93457 0.85048 0.74039 0.0
C1688 C 0.82941 0.92335 0.70793 0.0
C1689 C 0.82951 0.94779 0.70042 0.0
C1690 C 0.8533 0.90976 0.71833 0.0
C1691 C 0.87789 0.9203 0.7217 0.0
C1692 C 0.87818 0.94452 0.7131 0.0
C1693 C 0.85426 0.95809 0.70242 0.0
C1694 C 0.9419 0.9028 0.7703 0.0
C1695 C 0.94742 0.8787 0.76547 0.0
C1696 C 0.91983 0.91647 0.75556 0.0
C1697 C 0.90267 0.90637 0.73568 0.0
C1698 C 0.90851 0.88245 0.73044 0.0
C1699 C 0.93062 0.86881 0.74509 0.0
H1700 H 0.73499 0.06078 0.17225 0.0
H1701 H 0.76173 0.05226 0.25772 0.0
H1702 H 0.71698 0.10185 0.17722 0.0
H1703 H 0.74412 0.09275 0.26255 0.0
H1704 H 0.73323 0.1737 0.2593 0.0
H1705 H 0.75261 0.13422 0.251 0.0
H1706 H 0.68032 0.12316 0.19809 0.0
H1707 H 0.66115 0.16282 0.20593 0.0
C1708 C 0.73692 0.06758 0.19202 0.0
C1709 C 0.74939 0.05303 0.21457 0.0
C1710 C 0.7266 0.09107 0.19492 0.0
C1711 C 0.72911 0.10064 0.22032 0.0
C1712 C 0.74197 0.08613 0.24268 0.0
C1713 C 0.7518 0.0627 0.23989 0.0
C1714 C 0.72154 0.16296 0.2457 0.0
C1715 C 0.6955 0.17145 0.23347 0.0
C1716 C 0.73259 0.14024 0.24107 0.0
C1717 C 0.71799 0.12543 0.22391 0.0
C1718 C 0.69221 0.13412 0.21124 0.0
C1719 C 0.68108 0.15676 0.21603 0.0
H1720 H 0.41576 0.69779 0.38656 0.0
H1721 H 0.403 0.68025 0.30365 0.0
H1722 H 0.40823 0.6572 0.40103 0.0
H1723 H 0.39598 0.63916 0.31834 0.0
H1724 H 0.35533 0.57712 0.35967 0.0
H1725 H 0.36265 0.61709 0.34196 0.0
H1726 H 0.43376 0.61726 0.40053 0.0
H1727 H 0.42617 0.5774 0.41855 0.0
C1728 C 0.41095 0.68533 0.3714 0.0
C1729 C 0.40979 0.69218 0.34396 0.0
C1730 C 0.40706 0.66201 0.37973 0.0
C1731 C 0.4019 0.64505 0.36081 0.0
C1732 C 0.39997 0.65197 0.33329 0.0
C1733 C 0.40404 0.67537 0.32492 0.0
C1734 C 0.37253 0.58575 0.3687 0.0
C1735 C 0.39005 0.57443 0.39067 0.0
C1736 C 0.37683 0.60846 0.35842 0.0
C1737 C 0.39861 0.62024 0.37006 0.0
C1738 C 0.41661 0.6086 0.39146 0.0
C1739 C 0.41242 0.58581 0.40163 0.0
H1740 H 0.18214 0.33201 0.82695 0.0
H1741 H 0.12083 0.3906 0.80777 0.0
H1742 H 0.2156 0.36016 0.83837 0.0
H1743 H 0.15461 0.41885 0.81792 0.0
H1744 H 0.21899 0.46323 0.86019 0.0
H1745 H 0.18442 0.43498 0.85268 0.0
H1746 H 0.23949 0.38851 0.81675 0.0
H1747 H 0.27387 0.4161 0.82476 0.0
C1748 C 0.1757 0.35088 0.82521 0.0
C1749 C 0.14864 0.35888 0.81624 0.0
C1750 C 0.19504 0.36713 0.83147 0.0
C1751 C 0.188 0.39194 0.8289 0.0
C1752 C 0.16087 0.39994 0.82037 0.0
C1753 C 0.1415 0.38368 0.81414 0.0
C1754 C 0.22373 0.44693 0.8508 0.0
C1755 C 0.24937 0.44207 0.84319 0.0
C1756 C 0.20383 0.43075 0.84634 0.0
C1757 C 0.20907 0.40927 0.83418 0.0
C1758 C 0.23472 0.40453 0.82662 0.0
C1759 C 0.2545 0.42059 0.83108 0.0
H1760 H 0.66641 0.81836 0.94787 0.0
H1761 H 0.72736 0.77478 0.91599 0.0
H1762 H 0.67048 0.85073 0.91402 0.0
H1763 H 0.73149 0.80669 0.88304 0.0
H1764 H 0.71554 0.8564 0.80946 0.0
H1765 H 0.7054 0.82623 0.84253 0.0
H1766 H 0.70307 0.87916 0.90099 0.0
H1767 H 0.71234 0.90958 0.86756 0.0
C1768 C 0.68066 0.81568 0.9338 0.0
C1769 C 0.69625 0.79381 0.9345 0.0
C1770 C 0.68302 0.8342 0.91445 0.0
C1771 C 0.70097 0.83111 0.89549 0.0
C1772 C 0.71691 0.80946 0.89676 0.0
C1773 C 0.71458 0.79114 0.91589 0.0
C1774 C 0.71241 0.86171 0.8292 0.0
C1775 C 0.71507 0.88534 0.83593 0.0
C1776 C 0.70683 0.84438 0.84826 0.0
C1777 C 0.70376 0.85022 0.87454 0.0
C1778 C 0.70526 0.87407 0.88095 0.0
C1779 C 0.7109 0.89142 0.86187 0.0
H1780 H 0.78915 0.11887 0.30497 0.0
H1781 H 0.86152 0.11343 0.26723 0.0
H1782 H 0.79698 0.15927 0.31435 0.0
H1783 H 0.86685 0.15492 0.27281 0.0
H1784 H 0.90387 0.18484 0.3519 0.0
H1785 H 0.88707 0.16729 0.3113 0.0
H1786 H 0.80654 0.19765 0.31711 0.0
H1787 H 0.82378 0.2139 0.35926 0.0
C1788 C 0.80647 0.12633 0.29815 0.0
C1789 C 0.8258 0.11202 0.2873 0.0
C1790 C 0.81058 0.15002 0.3028 0.0
C1791 C 0.83376 0.16014 0.29593 0.0
C1792 C 0.84979 0.14731 0.28001 0.0
C1793 C 0.84642 0.1233 0.27647 0.0
C1794 C 0.88278 0.18853 0.34388 0.0
C1795 C 0.86489 0.19972 0.35905 0.0
C1796 C 0.87291 0.17853 0.3203 0.0
C1797 C 0.84494 0.17972 0.31155 0.0
C1798 C 0.82794 0.19514 0.32405 0.0
C1799 C 0.83777 0.20465 0.34806 0.0
H1800 H 0.30249 0.59842 0.21492 0.0
H1801 H 0.23953 0.63236 0.25339 0.0
H1802 H 0.31028 0.56662 0.25111 0.0
H1803 H 0.24771 0.601 0.28967 0.0
H1804 H 0.24218 0.52458 0.32411 0.0
H1805 H 0.23902 0.55849 0.29153 0.0
H1806 H 0.32567 0.55719 0.30091 0.0
H1807 H 0.329 0.52276 0.33381 0.0
C1808 C 0.29052 0.59924 0.23122 0.0
C1809 C 0.27031 0.61791 0.23116 0.0
C1810 C 0.29516 0.58114 0.25207 0.0
C1811 C 0.2795 0.58119 0.27318 0.0
C1812 C 0.25994 0.60029 0.27356 0.0
C1813 C 0.25544 0.61842 0.25287 0.0
C1814 C 0.26068 0.53142 0.31937 0.0
C1815 C 0.28588 0.52076 0.33156 0.0
C1816 C 0.25881 0.55106 0.30077 0.0
C1817 C 0.28207 0.56064 0.29368 0.0
C1818 C 0.30737 0.55011 0.30584 0.0
C1819 C 0.30926 0.53044 0.32473 0.0
H1820 H 0.3465 0.35236 0.74053 0.0
H1821 H 0.37252 0.40781 0.68939 0.0
H1822 H 0.35265 0.32392 0.70713 0.0
H1823 H 0.37739 0.37938 0.65512 0.0
H1824 H 0.40704 0.31358 0.61029 0.0
H1825 H 0.40325 0.34411 0.64289 0.0
H1826 H 0.33193 0.31438 0.66483 0.0
H1827 H 0.336 0.28411 0.63338 0.0
C1828 C 0.35357 0.35858 0.72217 0.0
C1829 C 0.35898 0.38257 0.71791 0.0
C1830 C 0.35679 0.34222 0.70271 0.0
C1831 C 0.36533 0.34923 0.6781 0.0
C1832 C 0.37095 0.37319 0.67381 0.0
C1833 C 0.36777 0.38962 0.69339 0.0
C1834 C 0.39058 0.31365 0.62209 0.0
C1835 C 0.37217 0.296 0.61938 0.0
C1836 C 0.38832 0.33121 0.64075 0.0
C1837 C 0.36753 0.33157 0.65704 0.0
C1838 C 0.3487 0.3144 0.65344 0.0
C1839 C 0.35103 0.29696 0.63512 0.0
H1840 H 0.97196 0.77524 0.86761 0.0
H1841 H 0.98351 0.69873 0.86442 0.0
H1842 H 0.92918 0.7709 0.88439 0.0
H1843 H 0.94126 0.69435 0.88187 0.0
H1844 H 0.85203 0.6949 0.88629 0.0
H1845 H 0.89415 0.70066 0.86922 0.0
H1846 H 0.90845 0.75754 0.92193 0.0
H1847 H 0.86546 0.75263 0.93799 0.0
C1848 C 0.96555 0.75746 0.87074 0.0
C1849 C 0.98127 0.73735 0.86456 0.0
C1850 C 0.94099 0.75495 0.88049 0.0
C1851 C 0.9315 0.73226 0.88442 0.0
C1852 C 0.9475 0.71216 0.87862 0.0
C1853 C 0.97193 0.71467 0.86875 0.0
C1854 C 0.86386 0.70892 0.89398 0.0
C1855 C 0.8551 0.7233 0.91356 0.0
C1856 C 0.88836 0.712 0.88445 0.0
C1857 C 0.90501 0.72947 0.89427 0.0
C1858 C 0.89617 0.74402 0.91367 0.0
C1859 C 0.87158 0.741 0.92316 0.0
H1860 H 0.29101 0.75052 0.1873 0.0
H1861 H 0.30852 0.78947 0.11603 0.0
H1862 H 0.32928 0.76691 0.21354 0.0
H1863 H 0.34543 0.80629 0.14198 0.0
H1864 H 0.42533 0.81891 0.19184 0.0
H1865 H 0.38923 0.80022 0.16523 0.0
H1866 H 0.34234 0.80325 0.23097 0.0
H1867 H 0.37855 0.82115 0.25753 0.0
C1868 C 0.30301 0.76238 0.17719 0.0
C1869 C 0.29641 0.76865 0.14954 0.0
C1870 C 0.32483 0.77203 0.19225 0.0
C1871 C 0.34055 0.78818 0.18 0.0
C1872 C 0.33425 0.79379 0.15223 0.0
C1873 C 0.31271 0.78417 0.13731 0.0
C1874 C 0.4071 0.81596 0.20035 0.0
C1875 C 0.40485 0.82162 0.22677 0.0
C1876 C 0.38637 0.8051 0.18518 0.0
C1877 C 0.36279 0.79982 0.19599 0.0
C1878 C 0.36033 0.80633 0.22211 0.0
C1879 C 0.38104 0.81695 0.23725 0.0
H1880 H 0.20158 0.18707 0.63698 0.0
H1881 H 0.22967 0.24555 0.6819 0.0
H1882 H 0.1629 0.1862 0.66153 0.0
H1883 H 0.19165 0.2441 0.70697 0.0
H1884 H 0.10515 0.25621 0.72038 0.0
H1885 H 0.14316 0.25421 0.69579 0.0
H1886 H 0.15033 0.1773 0.70766 0.0
H1887 H 0.11155 0.17919 0.73253 0.0
C1888 C 0.1995 0.19974 0.65207 0.0
C1889 C 0.21861 0.21654 0.65732 0.0
C1890 C 0.17754 0.19901 0.66635 0.0
C1891 C 0.17416 0.21513 0.68609 0.0
C1892 C 0.19351 0.23162 0.69164 0.0
C1893 C 0.21544 0.23233 0.67743 0.0
C1894 C 0.1147 0.23876 0.71791 0.0
C1895 C 0.1054 0.21783 0.72878 0.0
C1896 C 0.13666 0.23768 0.70384 0.0
C1897 C 0.15004 0.21565 0.70016 0.0
C1898 C 0.14037 0.19456 0.71022 0.0
C1899 C 0.11823 0.19564 0.72448 0.0
H1900 H 0.66599 0.31335 0.38159 0.0
H1901 H 0.70931 0.29038 0.31791 0.0
H1902 H 0.70656 0.30321 0.41398 0.0
H1903 H 0.74973 0.28104 0.34987 0.0
H1904 H 0.8143 0.2486 0.41726 0.0
H1905 H 0.77201 0.25482 0.38629 0.0
H1906 H 0.74924 0.31731 0.42649 0.0
H1907 H 0.79046 0.31077 0.4575 0.0
C1908 C 0.68411 0.30624 0.37447 0.0
C1909 C 0.68426 0.30276 0.3471 0.0
C1910 C 0.70747 0.30048 0.39301 0.0
C1911 C 0.73158 0.29127 0.3846 0.0
C1912 C 0.73155 0.28765 0.35726 0.0
C1913 C 0.70827 0.29325 0.33883 0.0
C1914 C 0.80017 0.26358 0.41946 0.0
C1915 C 0.80584 0.27907 0.43997 0.0
C1916 C 0.77595 0.26723 0.40168 0.0
C1917 C 0.75698 0.28653 0.40394 0.0
C1918 C 0.76288 0.30196 0.42441 0.0
C1919 C 0.78682 0.29826 0.44215 0.0
H1920 H 0.9612 0.24784 0.16942 0.0
H1921 H 0.97373 0.32281 0.16056 0.0
H1922 H 0.93798 0.25024 0.12327 0.0
H1923 H 0.95081 0.32511 0.11459 0.0
H1924 H 0.88154 0.32256 0.04253 0.0
H1925 H 0.90595 0.32278 0.08806 0.0
H1926 H 0.9498 0.25595 0.07749 0.0
H1927 H 0.92554 0.25572 1.03234 0.0
C1928 C 0.95894 0.26482 0.15771 0.0
C1929 C 0.9695 0.28506 0.16871 0.0
C1930 C 0.94581 0.26618 0.13119 0.0
C1931 C 0.94271 0.28786 0.11512 0.0
C1932 C 0.95271 0.30819 0.12638 0.0
C1933 C 0.96601 0.30678 0.15275 0.0
C1934 C 0.89698 0.30833 0.04966 0.0
C1935 C 0.90163 0.28917 1.03377 0.0
C1936 C 0.91081 0.30831 0.07584 0.0
C1937 C 0.92948 0.28911 0.08663 0.0
C1938 C 0.93511 0.2707 0.07011 0.0
C1939 C 0.92141 0.27074 0.04407 0.0
H1940 H 0.59709 0.7434 0.66356 0.0
H1941 H 0.53776 0.79385 0.61644 0.0
H1942 H 0.56913 0.74174 0.6992 0.0
H1943 H 0.51028 0.79314 0.65285 0.0
H1944 H 0.45492 0.7601 0.71124 0.0
H1945 H 0.48183 0.76886 0.6753 0.0
H1946 H 0.55365 0.76271 0.73377 0.0
H1947 H 0.5268 0.75305 0.76912 0.0
C1948 C 0.57812 0.75426 0.66078 0.0
C1949 C 0.56983 0.76872 0.63691 0.0
C1950 C 0.56216 0.75361 0.68152 0.0
C1951 C 0.53737 0.76751 0.67924 0.0
C1952 C 0.52911 0.78209 0.65542 0.0
C1953 C 0.5451 0.78271 0.6346 0.0
C1954 C 0.47629 0.76164 0.71644 0.0
C1955 C 0.4887 0.75635 0.74305 0.0
C1956 C 0.49185 0.76643 0.6958 0.0
C1957 C 0.52015 0.76606 0.70139 0.0
C1958 C 0.5321 0.76254 0.72842 0.0
C1959 C 0.51664 0.75749 0.74886 0.0
H1960 H 0.47364 0.29383 0.93769 0.0
H1961 H 0.51281 0.22681 0.97461 0.0
H1962 H 0.49494 0.2873 0.89718 0.0
H1963 H 0.53382 0.22051 0.93448 0.0
H1964 H 0.52246 0.20307 0.84526 0.0
H1965 H 0.50317 0.2168 0.8836 0.0
H1966 H 0.55214 0.27651 0.88572 0.0
H1967 H 0.57254 0.26236 0.84695 0.0
C1968 C 0.48691 0.27786 0.93726 0.0
C1969 C 0.49153 0.26084 0.95941 0.0
C1970 C 0.49928 0.2743 0.91425 0.0
C1971 C 0.51614 0.25352 0.91291 0.0
C1972 C 0.52107 0.23678 0.93515 0.0
C1973 C 0.50905 0.24043 0.95813 0.0
C1974 C 0.52914 0.21932 0.85347 0.0
C1975 C 0.54936 0.2315 0.84303 0.0
C1976 C 0.51797 0.22713 0.87553 0.0
C1977 C 0.52629 0.24756 0.88764 0.0
C1978 C 0.54542 0.26067 0.87659 0.0
C1979 C 0.55704 0.2526 0.85446 0.0
H1980 H 0.12617 0.73181 0.50569 0.0
H1981 H 0.1409 0.80636 0.49811 0.0
H1982 H 0.10422 0.73461 0.45929 0.0
H1983 H 0.11842 0.80928 0.4519 0.0
H1984 H 0.10485 0.80104 0.36227 0.0
H1985 H 0.12615 0.79653 0.40879 0.0
H1986 H 0.06527 0.75094 0.42861 0.0
H1987 H 0.04417 0.75508 0.38174 0.0
C1988 C 0.1244 0.74892 0.49429 0.0
C1989 C 0.13537 0.76887 0.50579 0.0
C1990 C 0.11171 0.75053 0.46761 0.0
C1991 C 0.10968 0.77212 0.45161 0.0
C1992 C 0.12003 0.79222 0.46336 0.0
C1993 C 0.13269 0.79062 0.49004 0.0
C1994 C 0.09611 0.7898 0.37642 0.0
C1995 C 0.07272 0.77842 0.36812 0.0
C1996 C 0.10821 0.78743 0.40326 0.0
C1997 C 0.09729 0.77364 0.4227 0.0
C1998 C 0.07438 0.76161 0.41425 0.0
C1999 C 0.06226 0.76396 0.38731 0.0
H2000 H 0.22784 0.02374 0.32462 0.0
H2001 H 0.28238 0.96101 0.34811 0.0
H2002 H 0.19114 0.99838 0.31307 0.0
H2003 H 0.2462 0.93564 0.33572 0.0
H2004 H 0.17033 0.90164 0.35426 0.0
H2005 H 0.20851 0.92584 0.3566 0.0
H2006 H 0.17015 0.96911 0.28615 0.0
H2007 H 0.13165 0.94492 0.28406 0.0
C2008 C 0.23219 1.00453 0.32626 0.0
C2009 C 0.25788 0.99431 0.3373 0.0
C2010 C 0.21115 0.98995 0.31976 0.0
C2011 C 0.21553 0.9649 0.324 0.0
C2012 C 0.24186 0.95482 0.33292 0.0
C2013 C 0.2627 0.96934 0.3397 0.0
C2014 C 0.1702 0.91606 0.339 0.0
C2015 C 0.1479 0.92131 0.31899 0.0
C2016 C 0.19217 0.92996 0.34028 0.0
C2017 C 0.19258 0.94943 0.32146 0.0
C2018 C 0.17044 0.95445 0.30115 0.0
C2019 C 0.14837 0.94057 0.29995 0.0
H2020 H 0.4659 0.1016 0.88175 0.0
H2021 H 0.45296 0.12484 0.79735 0.0
H2022 H 0.41864 0.09465 0.87963 0.0
H2023 H 0.40538 0.11772 0.7952 0.0
H2024 H 0.33154 0.07053 0.80182 0.0
H2025 H 0.37602 0.08457 0.79852 0.0
H2026 H 0.37491 0.11671 0.87419 0.0
H2027 H 0.33109 0.10215 0.87775 0.0
C2028 C 0.45291 0.10549 0.86279 0.0
C2029 C 0.46327 0.11389 0.83978 0.0
C2030 C 0.42574 0.10156 0.86156 0.0
C2031 C 0.40811 0.10593 0.8373 0.0
C2032 C 0.41844 0.1141 0.81416 0.0
C2033 C 0.44572 0.11809 0.8154 0.0
C2034 C 0.34051 0.08125 0.81726 0.0
C2035 C 0.32807 0.08509 0.84016 0.0
C2036 C 0.36601 0.08921 0.81545 0.0
C2037 C 0.37929 0.10124 0.83645 0.0
C2038 C 0.36559 0.10689 0.85807 0.0
C2039 C 0.34038 0.09877 0.85999 0.0
H2040 H 0.73492 0.62962 0.71857 0.0
H2041 H 0.70442 0.56045 0.7294 0.0
H2042 H 0.69436 0.64844 0.7331 0.0
H2043 H 0.66413 0.57907 0.74333 0.0
H2044 H 0.5963 0.6147 0.77559 0.0
H2045 H 0.64368 0.60156 0.77587 0.0
H2046 H 0.6477 0.65365 0.71022 0.0
H2047 H 0.60054 0.667 0.71033 0.0
C2048 C 0.71986 0.61844 0.7246 0.0
C2049 C 0.72257 0.59365 0.72251 0.0
C2050 C 0.69663 0.62919 0.73275 0.0
C2051 C 0.67599 0.61525 0.73916 0.0
C2052 C 0.67973 0.59032 0.73882 0.0
C2053 C 0.70274 0.57965 0.73056 0.0
C2054 C 0.60747 0.62346 0.76145 0.0
C2055 C 0.59474 0.64154 0.74263 0.0
C2056 C 0.63455 0.61604 0.76167 0.0
C2057 C 0.64932 0.62641 0.7429 0.0
C2058 C 0.63697 0.64549 0.72516 0.0
C2059 C 0.60992 0.65303 0.72508 0.0
H2060 H 0.88168 0.40464 0.2484 0.0
H2061 H 0.93697 0.44096 0.30194 0.0
H2062 H 0.84482 0.43215 0.25657 0.0
H2063 H 0.89965 0.46889 0.31011 0.0
H2064 H 0.82911 0.52958 0.27355 0.0
H2065 H 0.86899 0.50123 0.2829 0.0
H2066 H 0.81807 0.44358 0.29167 0.0
H2067 H 0.7784 0.47185 0.28147 0.0
C2068 C 0.88587 0.41821 0.26241 0.0
C2069 C 0.91222 0.42045 0.27473 0.0
C2070 C 0.86469 0.43398 0.26717 0.0
C2071 C 0.86922 0.45246 0.28441 0.0
C2072 C 0.89555 0.45477 0.29682 0.0
C2073 C 0.91687 0.43887 0.29206 0.0
C2074 C 0.82662 0.51104 0.27896 0.0
C2075 C 0.80085 0.50278 0.27682 0.0
C2076 C 0.84943 0.49475 0.2841 0.0
C2077 C 0.84657 0.47011 0.28728 0.0
C2078 C 0.82083 0.4624 0.28867 0.0
C2079 C 0.79815 0.47859 0.28325 0.0
H2080 H 0.30352 0.24638 0.06934 0.0
H2081 H 0.35217 0.25951 1.0063 0.0
H2082 H 0.29056 0.2096 0.04946 0.0
H2083 H 0.33923 0.22291 0.98669 0.0
H2084 H 0.34471 0.14096 0.98757 0.0
H2085 H 0.35182 0.18 1.00459 0.0
H2086 H 0.26656 0.19282 1.00707 0.0
H2087 H 0.25943 0.15352 0.99014 0.0
C2088 C 0.31097 0.24174 0.05096 0.0
C2089 C 0.32914 0.25572 0.0396 0.0
C2090 C 0.30356 0.22068 0.03962 0.0
C2091 C 0.31431 0.21325 1.01685 0.0
C2092 C 0.33108 0.22801 1.00457 0.0
C2093 C 0.33834 0.24905 1.01575 0.0
C2094 C 0.32753 0.15203 0.99196 0.0
C2095 C 0.30154 0.14424 0.98758 0.0
C2096 C 0.33154 0.17445 1.00141 0.0
C2097 C 0.30968 0.18948 1.0069 0.0
C2098 C 0.28372 0.18156 1.00299 0.0
C2099 C 0.27966 0.15919 0.99322 0.0
H2100 H 0.78883 0.34125 0.99956 0.0
H2101 H 0.82849 0.29244 0.0647 0.0
H2102 H 0.78358 0.3718 1.03044 0.0
H2103 H 0.82193 0.32308 0.09636 0.0
H2104 H 0.83328 0.39309 0.13951 0.0
H2105 H 0.83671 0.35962 0.11127 0.0
H2106 H 0.76104 0.38582 0.06392 0.0
H2107 H 0.75861 0.41995 0.09082 0.0
C2108 C 0.7959 0.33675 1.02067 0.0
C2109 C 0.80895 0.31411 1.02951 0.0
C2110 C 0.7927 0.35443 0.03859 0.0
C2111 C 0.80208 0.35016 0.06622 0.0
C2112 C 0.81463 0.32729 0.07527 0.0
C2113 C 0.8181 0.30953 0.05714 0.0
C2114 C 0.81745 0.39186 0.12294 0.0
C2115 C 0.79575 0.40959 0.11753 0.0
C2116 C 0.81923 0.37234 0.10688 0.0
C2117 C 0.7993 0.36984 0.08493 0.0
C2118 C 0.77717 0.38716 0.08017 0.0
C2119 C 0.77552 0.40671 0.09603 0.0
H2120 H 0.73311 0.74973 0.59548 0.0
H2121 H 0.74683 0.71898 0.5215 0.0
H2122 H 0.74833 0.71137 0.62041 0.0
H2123 H 0.76129 0.6804 0.54643 0.0
H2124 H 0.73901 0.61397 0.60204 0.0
H2125 H 0.73147 0.6523 0.57537 0.0
H2126 H 0.79382 0.68065 0.62882 0.0
H2127 H 0.80196 0.64219 0.65515 0.0
C2128 C 0.73979 0.73486 0.58464 0.0
C2129 C 0.73898 0.73733 0.55662 0.0
C2130 C 0.74848 0.71298 0.59888 0.0
C2131 C 0.75587 0.69301 0.58527 0.0
C2132 C 0.75566 0.69558 0.55732 0.0
C2133 C 0.74762 0.71765 0.54315 0.0
C2134 C 0.75131 0.62829 0.60792 0.0
C2135 C 0.77106 0.62508 0.63068 0.0
C2136 C 0.74708 0.65014 0.5926 0.0
C2137 C 0.76211 0.66932 0.60009 0.0
C2138 C 0.78201 0.66608 0.62267 0.0
C2139 C 0.78668 0.64408 0.63764 0.0
H2140 H 0.19723 0.78643 0.48946 0.0
H2141 H 0.2692 0.78681 0.54638 0.0
H2142 H 0.21168 0.8196 0.46268 0.0
H2143 H 0.2837 0.81985 0.52002 0.0
H2144 H 0.30608 0.88026 0.46806 0.0
H2145 H 0.29706 0.83913 0.47992 0.0
H2146 H 0.21228 0.86116 0.47375 0.0
H2147 H 0.22122 0.90192 0.46129 0.0
C2148 C 0.21685 0.79272 0.4954 0.0
C2149 C 0.23231 0.78386 0.51974 0.0
C2150 C 0.22492 0.81204 0.48038 0.0
C2151 C 0.24865 0.82275 0.48942 0.0
C2152 C 0.26543 0.81207 0.51227 0.0
C2153 C 0.25724 0.79295 0.52734 0.0
C2154 C 0.28546 0.87619 0.46868 0.0
C2155 C 0.26442 0.89447 0.46404 0.0
C2156 C 0.2803 0.85263 0.47563 0.0
C2157 C 0.25394 0.84674 0.47786 0.0
C2158 C 0.23279 0.86486 0.47191 0.0
C2159 C 0.23797 0.88837 0.46513 0.0
H2160 H 0.09823 0.70544 0.91128 0.0
H2161 H 0.09908 0.78216 0.90601 0.0
H2162 H 0.12353 0.7033 0.95627 0.0
H2163 H 0.1231 0.78027 0.95147 0.0
H2164 H 0.18901 0.77071 1.02047 0.0
H2165 H 0.16483 0.77012 0.97581 0.0
H2166 H 0.12381 0.70998 1.00211 0.0
H2167 H 0.1498 0.70987 0.0472 0.0
C2168 C 0.10367 0.72191 0.91983 0.0
C2169 C 0.09681 0.74399 0.90494 0.0
C2170 C 0.11803 0.72068 0.9458 0.0
C2171 C 0.12564 0.74155 0.95774 0.0
C2172 C 0.11831 0.76368 0.94288 0.0
C2173 C 0.10436 0.76485 0.91675 0.0
C2174 C 0.17481 0.7573 1.0168 0.0
C2175 C 0.17098 0.74053 0.03748 0.0
C2176 C 0.1607 0.75709 0.99109 0.0
C2177 C 0.14169 0.74043 0.9852 0.0
C2178 C 0.1383 0.72311 1.00576 0.0
C2179 C 0.15305 0.72302 1.03164 0.0
H2180 H 0.53488 0.28922 0.30962 0.0
H2181 H 0.6094 0.26239 0.35824 0.0
H2182 H 0.51007 0.27865 0.34608 0.0
H2183 H 0.58436 0.25113 0.39508 0.0
H2184 H 0.535 0.27138 0.46374 0.0
H2185 H 0.5611 0.2728 0.42642 0.0
H2186 H 0.49422 0.24916 0.37442 0.0
H2187 H 0.46803 0.2479 0.4118 0.0
C2188 C 0.54587 0.28018 0.32787 0.0
C2189 C 0.57409 0.27643 0.33093 0.0
C2190 C 0.53159 0.27411 0.34889 0.0
C2191 C 0.5451 0.26415 0.37377 0.0
C2192 C 0.57328 0.25904 0.37633 0.0
C2193 C 0.58764 0.26507 0.35508 0.0
C2194 C 0.52595 0.26612 0.44446 0.0
C2195 C 0.49928 0.25958 0.44089 0.0
C2196 C 0.54102 0.26685 0.42299 0.0
C2197 C 0.52992 0.26106 0.39725 0.0
C2198 C 0.50341 0.25406 0.39381 0.0
C2199 C 0.4883 0.25339 0.41527 0.0
H2200 H 0.60084 0.80331 0.13357 0.0
H2201 H 0.5598 0.73995 0.11726 0.0
H2202 H 0.57862 0.80798 0.17307 0.0
H2203 H 0.53752 0.74455 0.15717 0.0
H2204 H 0.48004 0.78229 0.21221 0.0
H2205 H 0.50358 0.77026 0.17489 0.0
H2206 H 0.57808 0.79048 0.21731 0.0
H2207 H 0.55444 0.80303 0.2538 0.0
C2208 C 0.58741 0.79011 0.13867 0.0
C2209 C 0.58231 0.77116 0.12227 0.0
C2210 C 0.57462 0.79277 0.16141 0.0
C2211 C 0.55642 0.77648 0.16859 0.0
C2212 C 0.55125 0.75751 0.15219 0.0
C2213 C 0.56405 0.75488 0.12932 0.0
C2214 C 0.50159 0.78337 0.21382 0.0
C2215 C 0.51544 0.79357 0.23584 0.0
C2216 C 0.5151 0.77663 0.1924 0.0
C2217 C 0.54267 0.7799 0.19278 0.0
C2218 C 0.55674 0.78832 0.21592 0.0
C2219 C 0.54327 0.79523 0.23703 0.0
H2220 H 0.92956 0.30346 0.57054 0.0
H2221 H 0.93226 0.22655 0.57131 0.0
H2222 H 0.95411 0.30027 0.61616 0.0
H2223 H 0.95661 0.22346 0.61676 0.0
H2224 H 1.02583 0.22437 0.68261 0.0
H2225 H 1.00186 0.23174 0.6376 0.0
H2226 H 0.94945 0.28651 0.66479 0.0
H2227 H 0.97389 0.27901 0.71081 0.0
C2228 C 0.93554 0.28585 0.5803 0.0
C2229 C 0.92919 0.26522 0.56698 0.0
C2230 C 0.94937 0.28408 0.60659 0.0
C2231 C 0.95745 0.26164 0.62013 0.0
C2232 C 0.95102 0.24105 0.60682 0.0
C2233 C 0.93704 0.24281 0.58069 0.0
C2234 C 1.00924 0.23809 0.67921 0.0
C2235 C 1.00151 0.25081 0.70057 0.0
C2236 C 0.99541 0.24224 0.65327 0.0
C2237 C 0.97332 0.2593 0.64762 0.0
C2238 C 0.96635 0.27312 0.66853 0.0
C2239 C 0.98034 0.2689 0.69485 0.0
H2240 H 0.79396 0.06987 0.71832 0.0
H2241 H 0.83725 1.0047 0.75578 0.0
H2242 H 0.8321 0.09219 0.73394 0.0
H2243 H 0.8756 0.02712 0.77129 0.0
H2244 H 0.94697 0.07164 0.75066 0.0
H2245 H 0.90806 0.0483 0.7452 0.0
H2246 H 0.86043 0.10455 0.77579 0.0
H2247 H 0.89964 0.12775 0.78224 0.0
C2248 C 0.81144 0.06039 0.73034 0.0
C2249 C 0.81261 0.03553 0.73584 0.0
C2250 C 0.83325 0.0732 0.73936 0.0
C2251 C 0.85688 0.06139 0.75374 0.0
C2252 C 0.85769 0.03666 0.76012 0.0
C2253 C 0.83566 0.02387 0.75144 0.0
C2254 C 0.92848 0.07887 0.75695 0.0
C2255 C 0.9266 0.10171 0.76686 0.0
C2256 C 0.90611 0.06545 0.75373 0.0
C2257 C 0.88119 0.0746 0.76004 0.0
C2258 C 0.87934 0.09714 0.77053 0.0
C2259 C 0.90181 0.11047 0.77407 0.0
H2260 H 0.73212 0.96662 0.27384 0.0
H2261 H 0.74156 0.92276 0.20789 0.0
H2262 H 0.68812 0.95173 0.27706 0.0
H2263 H 0.69842 0.90685 0.21184 0.0
H2264 H 0.60717 0.91681 0.1949 0.0
H2265 H 0.65423 0.92473 0.19874 0.0
H2266 H 0.65932 0.9206 0.28531 0.0
H2267 H 0.61175 0.91305 0.2813 0.0
C2268 C 0.72525 0.95298 0.26087 0.0
C2269 C 0.74001 0.94581 0.24059 0.0
C2270 C 0.70002 0.94449 0.26261 0.0
C2271 C 0.68941 0.92852 0.24425 0.0
C2272 C 0.70557 0.9197 0.22573 0.0
C2273 C 0.73043 0.92851 0.22368 0.0
C2274 C 0.61838 0.91736 0.21476 0.0
C2275 C 0.60576 0.91426 0.23777 0.0
C2276 C 0.64547 0.92176 0.21702 0.0
C2277 C 0.66077 0.92297 0.24239 0.0
C2278 C 0.64813 0.9199 0.26547 0.0
C2279 C 0.62088 0.91563 0.26318 0.0
H2280 H 0.46382 0.36816 0.36452 0.0
H2281 H 0.46188 0.41086 0.2901 0.0
H2282 H 0.41585 0.37736 0.36317 0.0
H2283 H 0.41326 0.41964 0.28811 0.0
H2284 H 0.34107 0.458 0.32406 0.0
H2285 H 0.38369 0.44315 0.3108 0.0
H2286 H 0.37208 0.37226 0.34294 0.0
H2287 H 0.33031 0.38776 0.35763 0.0
C2288 C 0.45294 0.37915 0.34756 0.0
C2289 C 0.46654 0.38889 0.3275 0.0
C2290 C 0.42532 0.38429 0.34659 0.0
C2291 C 0.41049 0.39909 0.32535 0.0
C2292 C 0.42405 0.40835 0.30487 0.0
C2293 C 0.45186 0.40339 0.30601 0.0
C2294 C 0.34716 0.43906 0.32714 0.0
C2295 C 0.33262 0.42391 0.34168 0.0
C2296 C 0.37164 0.4305 0.31964 0.0
C2297 C 0.38171 0.40659 0.32644 0.0
C2298 C 0.36533 0.39092 0.33814 0.0
C2299 C 0.3412 0.39962 0.34614 0.0
H2300 H 0.28127 0.55642 0.7858 0.0
H2301 H 0.232 0.49978 0.80379 0.0
H2302 H 0.24103 0.58365 0.77272 0.0
H2303 H 0.19167 0.52721 0.79224 0.0
H2304 H 0.17883 0.6283 0.8119 0.0
H2305 H 0.21554 0.60058 0.80444 0.0
H2306 H 0.15908 0.5555 0.76455 0.0
H2307 H 0.12181 0.58365 0.7722 0.0
C2308 C 0.26169 0.5496 0.78579 0.0
C2309 C 0.25955 0.52612 0.79559 0.0
C2310 C 0.23866 0.56523 0.77875 0.0
C2311 C 0.21318 0.55782 0.78227 0.0
C2312 C 0.21092 0.53354 0.78923 0.0
C2313 C 0.23401 0.51775 0.79574 0.0
C2314 C 0.17413 0.61285 0.80088 0.0
C2315 C 0.14734 0.60831 0.7925 0.0
C2316 C 0.1953 0.5969 0.79648 0.0
C2317 C 0.19036 0.57589 0.78353 0.0
C2318 C 0.16357 0.5715 0.77461 0.0
C2319 C 0.14225 0.58756 0.77906 0.0
H2320 H 0.76226 0.78537 1.00471 0.0
H2321 H 0.71657 0.76981 0.06956 0.0
H2322 H 0.77453 0.82233 1.02472 0.0
H2323 H 0.72871 0.80658 0.0892 0.0
H2324 H 0.7194 0.88845 0.08861 0.0
H2325 H 0.71367 0.84939 0.07112 0.0
H2326 H 0.79895 0.83943 0.06745 0.0
H2327 H 0.80472 0.87875 0.08491 0.0
C2328 C 0.75537 0.7895 1.02351 0.0
C2329 C 0.73817 0.77479 1.03535 0.0
C2330 C 0.76236 0.81067 1.0349 0.0
C2331 C 0.75211 0.81746 0.05819 0.0
C2332 C 0.73644 0.80197 0.07094 0.0
C2333 C 0.72964 0.78083 0.05973 0.0
C2334 C 0.73688 0.87802 0.08385 0.0
C2335 C 0.76249 0.8866 0.08809 0.0
C2336 C 0.73366 0.85559 0.07412 0.0
C2337 C 0.75593 0.84134 0.06819 0.0
C2338 C 0.78148 0.85008 0.07188 0.0
C2339 C 0.78477 0.87246 0.08196 0.0
H2340 H 0.31403 0.61853 0.97272 0.0
H2341 H 0.22777 0.62661 0.9503 0.0
H2342 H 0.31141 0.65344 0.9989 0.0
H2343 H 0.2252 0.66164 0.97638 0.0
H2344 H 0.23041 0.73413 1.01156 0.0
H2345 H 0.23612 0.70297 0.98044 0.0
H2346 H 0.2957 0.66397 0.04011 0.0
H2347 H 0.29025 0.69508 0.07086 0.0
C2348 C 0.29446 0.62769 0.97335 0.0
C2349 C 0.27111 0.61949 0.95939 0.0
C2350 C 0.29297 0.6478 0.98839 0.0
C2351 C 0.26808 0.66044 0.98993 0.0
C2352 C 0.24479 0.65265 0.97541 0.0
C2353 C 0.24627 0.63248 0.96039 0.0
C2354 C 0.24518 0.71919 1.01778 0.0
C2355 C 0.25991 0.71722 0.04375 0.0
C2356 C 0.24822 0.70114 1.00004 0.0
C2357 C 0.26627 0.68077 1.00772 0.0
C2358 C 0.28182 0.67942 1.03326 0.0
C2359 C 0.27865 0.69732 0.051 0.0
H2360 H 0.33726 0.28129 0.48131 0.0
H2361 H 0.31642 0.31005 0.55406 0.0
H2362 H 0.32081 0.31908 0.45617 0.0
H2363 H 0.30024 0.34819 0.52882 0.0
H2364 H 0.31646 0.41814 0.47618 0.0
H2365 H 0.3246 0.38047 0.50405 0.0
H2366 H 0.27704 0.34554 0.44252 0.0
H2367 H 0.26867 0.38293 0.41479 0.0
C2368 C 0.32875 0.29559 0.49183 0.0
C2369 C 0.32797 0.29268 0.51959 0.0
C2370 C 0.3193 0.31722 0.47744 0.0
C2371 C 0.3093 0.33659 0.49056 0.0
C2372 C 0.30794 0.33356 0.51824 0.0
C2373 C 0.31694 0.3117 0.5326 0.0
C2374 C 0.3074 0.40252 0.46876 0.0
C2375 C 0.29212 0.40357 0.44311 0.0
C2376 C 0.31197 0.38098 0.48479 0.0
C2377 C 0.3016 0.36006 0.47534 0.0
C2378 C 0.2855 0.36134 0.45019 0.0
C2379 C 0.28067 0.38284 0.43435 0.0
H2380 H 0.79608 0.24343 0.52488 0.0
H2381 H 0.86587 0.24483 0.58435 0.0
H2382 H 0.7813 0.21002 0.55012 0.0
H2383 H 0.85082 0.21155 0.61048 0.0
H2384 H 0.84254 0.12967 0.61667 0.0
H2385 H 0.85145 0.17023 0.60338 0.0
H2386 H 0.76592 0.19002 0.58662 0.0
H2387 H 0.75713 0.14911 0.59931 0.0
C2388 C 0.80742 0.23743 0.54427 0.0
C2389 C 0.83188 0.24695 0.55285 0.0
C2390 C 0.79907 0.21805 0.55875 0.0
C2391 C 0.81509 0.20759 0.58221 0.0
C2392 C 0.83823 0.21876 0.59222 0.0
C2393 C 0.84658 0.23824 0.57763 0.0
C2394 C 0.82562 0.14276 0.61058 0.0
C2395 C 0.79912 0.13603 0.60885 0.0
C2396 C 0.83072 0.16618 0.60308 0.0
C2397 C 0.80944 0.18363 0.59383 0.0
C2398 C 0.78288 0.17708 0.59319 0.0
C2399 C 0.7778 0.15358 0.60046 0.0
loop_
_geom_bond_atom_site_label_1
_geom_bond_atom_site_label_2
_geom_bond_distance
_geom_bond_site_symmetry_2
_ccdc_geom_bond_type
Tb0 C9 2.764 . S
Tb0 O10 2.325 . S
Tb0 O13 2.303 . S
Tb0 O17 2.322 1_455 S
Tb0 O18 2.349 1_455 S
Tb0 O21 2.415 . S
Tb0 O22 2.399 . S
Tb1 O11 2.322 1_655 S
Tb1 O12 2.349 1_655 S
Tb1 O14 2.415 . S
Tb1 O15 2.399 . S
Tb1 O16 2.325 . S
Tb1 O19 2.303 . S
Tb1 C30 2.764 . S
C2 O18 1.261 . S
C2 O19 1.257 . S
C3 C6 1.358 . S
C3 C7 1.332 . S
C3 C9 1.504 . S
C4 C5 1.373 . S
C4 C8 1.308 . S
C5 C4 1.373 . S
C5 C6 1.429 . S
C5 H32 0.932 . S
C6 C3 1.358 . S
C6 C5 1.429 . S
C6 H33 0.930 . S
C7 C3 1.332 . S
C7 C8 1.394 . S
C7 H34 0.932 . S
C8 C4 1.308 . S
C8 C7 1.394 . S
C8 H35 0.929 . S
C9 Tb0 2.764 . S
C9 C3 1.504 . S
C9 O21 1.239 . S
C9 O22 1.263 . S
O10 Tb0 2.325 . S
O10 C20 1.236 . S
O11 Tb1 2.322 1_455 S
O11 C20 1.257 . S
O12 Tb1 2.349 1_455 S
O12 C23 1.261 . S
O13 Tb0 2.303 . S
O13 C23 1.257 . S
O14 Tb1 2.415 . S
O14 C30 1.239 . S
O15 Tb1 2.399 . S
O15 C30 1.263 . S
O16 Tb1 2.325 . S
O16 C31 1.236 . S
O17 Tb0 2.322 1_655 S
O17 C31 1.257 . S
O18 Tb0 2.349 1_655 S
O18 C2 1.261 . S
O19 Tb1 2.303 . S
O19 C2 1.257 . S
C20 O10 1.236 . S
C20 O11 1.257 . S
O21 Tb0 2.415 . S
O21 C9 1.239 . S
O22 Tb0 2.399 . S
O22 C9 1.263 . S
C23 O12 1.261 . S
C23 O13 1.257 . S
C24 C27 1.358 . S
C24 C28 1.332 . S
C24 C30 1.504 . S
C25 C26 1.373 . S
C25 C29 1.308 . S
C26 C25 1.373 . S
C26 C27 1.429 . S
C26 H36 0.932 . S
C27 C24 1.358 . S
C27 C26 1.429 . S
C27 H37 0.930 . S
C28 C24 1.332 . S
C28 C29 1.394 . S
C28 H38 0.932 . S
C29 C25 1.308 . S
C29 C28 1.394 . S
C29 H39 0.929 . S
C30 Tb1 2.764 . S
C30 O14 1.239 . S
C30 O15 1.263 . S
C30 C24 1.504 . S
C31 O16 1.236 . S
C31 O17 1.257 . S
H32 C5 0.932 . S
H33 C6 0.930 . S
H34 C7 0.932 . S
H35 C8 0.929 . S
H36 C26 0.932 . S
H37 C27 0.930 . S
H38 C28 0.932 . S
H39 C29 0.929 . S
Tb40 C49 2.764 . S
Tb40 O50 2.325 . S
Tb40 O53 2.303 . S
Tb40 O57 2.322 . S
Tb40 O58 2.349 . S
Tb40 O61 2.415 . S
Tb40 O62 2.399 . S
Tb41 O51 2.322 . S
Tb41 O52 2.349 . S
Tb41 O54 2.415 . S
Tb41 O55 2.399 . S
Tb41 O56 2.325 . S
Tb41 O59 2.303 . S
Tb41 C70 2.764 . S
C42 O58 1.261 . S
C42 O59 1.257 . S
C43 C46 1.358 . S
C43 C47 1.332 . S
C43 C49 1.504 . S
C44 C45 1.373 . S
C44 C48 1.308 . S
C45 C44 1.373 . S
C45 C46 1.429 . S
C45 H72 0.932 . S
C46 C43 1.358 . S
C46 C45 1.429 . S
C46 H73 0.930 . S
C47 C43 1.332 . S
C47 C48 1.394 . S
C47 H74 0.932 . S
C48 C44 1.308 . S
C48 C47 1.394 . S
C48 H75 0.929 . S
C49 Tb40 2.764 . S
C49 C43 1.504 . S
C49 O61 1.239 . S
C49 O62 1.263 . S
O50 Tb40 2.325 . S
O50 C60 1.236 . S
O51 Tb41 2.322 . S
O51 C60 1.257 . S
O52 Tb41 2.349 . S
O52 C63 1.261 . S
O53 Tb40 2.303 . S
O53 C63 1.257 . S
O54 Tb41 2.415 . S
O54 C70 1.239 . S
O55 Tb41 2.399 . S
O55 C70 1.263 . S
O56 Tb41 2.325 . S
O56 C71 1.236 . S
O57 Tb40 2.322 . S
O57 C71 1.257 . S
O58 Tb40 2.349 . S
O58 C42 1.261 . S
O59 Tb41 2.303 . S
O59 C42 1.257 . S
C60 O50 1.236 . S
C60 O51 1.257 . S
O61 Tb40 2.415 . S
O61 C49 1.239 . S
O62 Tb40 2.399 . S
O62 C49 1.263 . S
C63 O52 1.261 . S
C63 O53 1.257 . S
C64 C67 1.358 . S
C64 C68 1.332 . S
C64 C70 1.504 . S
C65 C66 1.373 . S
C65 C69 1.308 . S
C66 C65 1.373 . S
C66 C67 1.429 . S
C66 H76 0.932 . S
C67 C64 1.358 . S
C67 C66 1.429 . S
C67 H77 0.930 . S
C68 C64 1.332 . S
C68 C69 1.394 . S
C68 H78 0.932 . S
C69 C65 1.308 . S
C69 C68 1.394 . S
C69 H79 0.929 . S
C70 Tb41 2.764 . S
C70 O54 1.239 . S
C70 O55 1.263 . S
C70 C64 1.504 . S
C71 O56 1.236 . S
C71 O57 1.257 . S
H72 C45 0.932 . S
H73 C46 0.930 . S
H74 C47 0.932 . S
H75 C48 0.929 . S
H76 C66 0.932 . S
H77 C67 0.930 . S
H78 C68 0.932 . S
H79 C69 0.929 . S
Tb80 C89 2.764 . S
Tb80 O90 2.325 . S
Tb80 O93 2.303 . S
Tb80 O97 2.322 . S
Tb80 O98 2.349 . S
Tb80 O101 2.415 . S
Tb80 O102 2.399 . S
Tb81 O91 2.322 . S
Tb81 O92 2.349 . S
Tb81 O94 2.415 . S
Tb81 O95 2.399 . S
Tb81 O96 2.325 . S
Tb81 O99 2.303 . S
Tb81 C110 2.764 . S
C82 O98 1.261 . S
C82 O99 1.257 . S
C83 C86 1.358 . S
C83 C87 1.332 . S
C83 C89 1.504 . S
C84 C85 1.373 . S
C84 C88 1.308 . S
C85 C84 1.373 . S
C85 C86 1.429 . S
C85 H112 0.932 . S
C86 C83 1.358 . S
C86 C85 1.429 . S
C86 H113 0.930 . S
C87 C83 1.332 . S
C87 C88 1.394 . S
C87 H114 0.932 . S
C88 C84 1.308 . S
C88 C87 1.394 . S
C88 H115 0.929 . S
C89 Tb80 2.764 . S
C89 C83 1.504 . S
C89 O101 1.239 . S
C89 O102 1.263 . S
O90 Tb80 2.325 . S
O90 C100 1.236 . S
O91 Tb81 2.322 . S
O91 C100 1.257 . S
O92 Tb81 2.349 . S
O92 C103 1.261 . S
O93 Tb80 2.303 . S
O93 C103 1.257 . S
O94 Tb81 2.415 . S
O94 C110 1.239 . S
O95 Tb81 2.399 . S
O95 C110 1.263 . S
O96 Tb81 2.325 . S
O96 C111 1.236 . S
O97 Tb80 2.322 . S
O97 C111 1.257 . S
O98 Tb80 2.349 . S
O98 C82 1.261 . S
O99 Tb81 2.303 . S
O99 C82 1.257 . S
C100 O90 1.236 . S
C100 O91 1.257 . S
O101 Tb80 2.415 . S
O101 C89 1.239 . S
O102 Tb80 2.399 . S
O102 C89 1.263 . S
C103 O92 1.261 . S
C103 O93 1.257 . S
C104 C107 1.358 . S
C104 C108 1.332 . S
C104 C110 1.504 . S
C105 C106 1.373 . S
C105 C109 1.308 . S
C106 C105 1.373 . S
C106 C107 1.429 . S
C106 H116 0.932 . S
C107 C104 1.358 . S
C107 C106 1.429 . S
C107 H117 0.930 . S
C108 C104 1.332 . S
C108 C109 1.394 . S
C108 H118 0.932 . S
C109 C105 1.308 . S
C109 C108 1.394 . S
C109 H119 0.929 . S
C110 Tb81 2.764 . S
C110 O94 1.239 . S
C110 O95 1.263 . S
C110 C104 1.504 . S
C111 O96 1.236 . S
C111 O97 1.257 . S
H112 C85 0.932 . S
H113 C86 0.930 . S
H114 C87 0.932 . S
H115 C88 0.929 . S
H116 C106 0.932 . S
H117 C107 0.930 . S
H118 C108 0.932 . S
H119 C109 0.929 . S
Tb120 C129 2.764 . S
Tb120 O130 2.325 . S
Tb120 O133 2.303 . S
Tb120 O137 2.322 1_655 S
Tb120 O138 2.349 1_655 S
Tb120 O141 2.415 . S
Tb120 O142 2.399 . S
Tb121 O131 2.322 1_455 S
Tb121 O132 2.349 1_455 S
Tb121 O134 2.415 . S
Tb121 O135 2.399 . S
Tb121 O136 2.325 . S
Tb121 O139 2.303 . S
Tb121 C150 2.764 . S
C122 O138 1.261 . S
C122 O139 1.257 . S
C123 C126 1.358 . S
C123 C127 1.332 . S
C123 C129 1.504 . S
C124 C125 1.373 . S
C124 C128 1.308 . S
C125 C124 1.373 . S
C125 C126 1.429 . S
C125 H152 0.932 . S
C126 C123 1.358 . S
C126 C125 1.429 . S
C126 H153 0.930 . S
C127 C123 1.332 . S
C127 C128 1.394 . S
C127 H154 0.932 . S
C128 C124 1.308 . S
C128 C127 1.394 . S
C128 H155 0.929 . S
C129 Tb120 2.764 . S
C129 C123 1.504 . S
C129 O141 1.239 . S
C129 O142 1.263 . S
O130 Tb120 2.325 . S
O130 C140 1.236 . S
O131 Tb121 2.322 1_655 S
O131 C140 1.257 . S
O132 Tb121 2.349 1_655 S
O132 C143 1.261 . S
O133 Tb120 2.303 . S
O133 C143 1.257 . S
O134 Tb121 2.415 . S
O134 C150 1.239 . S
O135 Tb121 2.399 . S
O135 C150 1.263 . S
O136 Tb121 2.325 . S
O136 C151 1.236 . S
O137 Tb120 2.322 1_455 S
O137 C151 1.257 . S
O138 Tb120 2.349 1_455 S
O138 C122 1.261 . S
O139 Tb121 2.303 . S
O139 C122 1.257 . S
C140 O130 1.236 . S
C140 O131 1.257 . S
O141 Tb120 2.415 . S
O141 C129 1.239 . S
O142 Tb120 2.399 . S
O142 C129 1.263 . S
C143 O132 1.261 . S
C143 O133 1.257 . S
C144 C147 1.358 . S
C144 C148 1.332 . S
C144 C150 1.504 . S
C145 C146 1.373 . S
C145 C149 1.308 . S
C146 C145 1.373 . S
C146 C147 1.429 . S
C146 H156 0.932 . S
C147 C144 1.358 . S
C147 C146 1.429 . S
C147 H157 0.930 . S
C148 C144 1.332 . S
C148 C149 1.394 . S
C148 H158 0.932 . S
C149 C145 1.308 . S
C149 C148 1.394 . S
C149 H159 0.929 . S
C150 Tb121 2.764 . S
C150 O134 1.239 . S
C150 O135 1.263 . S
C150 C144 1.504 . S
C151 O136 1.236 . S
C151 O137 1.257 . S
H152 C125 0.932 . S
H153 C126 0.930 . S
H154 C127 0.932 . S
H155 C128 0.929 . S
H156 C146 0.932 . S
H157 C147 0.930 . S
H158 C148 0.932 . S
H159 C149 0.929 . S
Tb160 C169 2.764 . S
Tb160 O170 2.325 . S
Tb160 O173 2.303 . S
Tb160 O177 2.322 1_545 S
Tb160 O178 2.349 1_545 S
Tb160 O181 2.415 . S
Tb160 O182 2.399 . S
Tb161 O171 2.322 1_565 S
Tb161 O172 2.349 1_565 S
Tb161 O174 2.415 . S
Tb161 O175 2.399 . S
Tb161 O176 2.325 . S
Tb161 O179 2.303 . S
Tb161 C190 2.764 . S
C162 O178 1.261 . S
C162 O179 1.257 . S
C163 C166 1.358 . S
C163 C167 1.332 . S
C163 C169 1.504 . S
C164 C165 1.373 . S
C164 C168 1.308 . S
C165 C164 1.373 . S
C165 C166 1.429 . S
C165 H192 0.932 . S
C166 C163 1.358 . S
C166 C165 1.429 . S
C166 H193 0.930 . S
C167 C163 1.332 . S
C167 C168 1.394 . S
C167 H194 0.932 . S
C168 C164 1.308 . S
C168 C167 1.394 . S
C168 H195 0.929 . S
C169 Tb160 2.764 . S
C169 C163 1.504 . S
C169 O181 1.239 . S
C169 O182 1.263 . S
O170 Tb160 2.325 . S
O170 C180 1.236 . S
O171 Tb161 2.322 1_545 S
O171 C180 1.257 . S
O172 Tb161 2.349 1_545 S
O172 C183 1.261 . S
O173 Tb160 2.303 . S
O173 C183 1.257 . S
O174 Tb161 2.415 . S
O174 C190 1.239 . S
O175 Tb161 2.399 . S
O175 C190 1.263 . S
O176 Tb161 2.325 . S
O176 C191 1.236 . S
O177 Tb160 2.322 1_565 S
O177 C191 1.257 . S
O178 Tb160 2.349 1_565 S
O178 C162 1.261 . S
O179 Tb161 2.303 . S
O179 C162 1.257 . S
C180 O170 1.236 . S
C180 O171 1.257 . S
O181 Tb160 2.415 . S
O181 C169 1.239 . S
O182 Tb160 2.399 . S
O182 C169 1.263 . S
C183 O172 1.261 . S
C183 O173 1.257 . S
C184 C187 1.358 . S
C184 C188 1.332 . S
C184 C190 1.504 . S
C185 C186 1.373 . S
C185 C189 1.308 . S
C186 C185 1.373 . S
C186 C187 1.429 . S
C186 H196 0.932 . S
C187 C184 1.358 . S
C187 C186 1.429 . S
C187 H197 0.930 . S
C188 C184 1.332 . S
C188 C189 1.394 . S
C188 H198 0.932 . S
C189 C185 1.308 . S
C189 C188 1.394 . S
C189 H199 0.929 . S
C190 Tb161 2.764 . S
C190 O174 1.239 . S
C190 O175 1.263 . S
C190 C184 1.504 . S
C191 O176 1.236 . S
C191 O177 1.257 . S
H192 C165 0.932 . S
H193 C166 0.930 . S
H194 C167 0.932 . S
H195 C168 0.929 . S
H196 C186 0.932 . S
H197 C187 0.930 . S
H198 C188 0.932 . S
H199 C189 0.929 . S
Tb200 C209 2.764 . S
Tb200 O210 2.325 . S
Tb200 O213 2.303 . S
Tb200 O217 2.322 1_565 S
Tb200 O218 2.349 1_565 S
Tb200 O221 2.415 . S
Tb200 O222 2.399 . S
Tb201 O211 2.322 1_545 S
Tb201 O212 2.349 1_545 S
Tb201 O214 2.415 . S
Tb201 O215 2.399 . S
Tb201 O216 2.325 . S
Tb201 O219 2.303 . S
Tb201 C230 2.764 . S
C202 O218 1.261 . S
C202 O219 1.257 . S
C203 C206 1.358 . S
C203 C207 1.332 . S
C203 C209 1.504 . S
C204 C205 1.373 . S
C204 C208 1.308 . S
C205 C204 1.373 . S
C205 C206 1.429 . S
C205 H232 0.932 . S
C206 C203 1.358 . S
C206 C205 1.429 . S
C206 H233 0.930 . S
C207 C203 1.332 . S
C207 C208 1.394 . S
C207 H234 0.932 . S
C208 C204 1.308 . S
C208 C207 1.394 . S
C208 H235 0.929 . S
C209 Tb200 2.764 . S
C209 C203 1.504 . S
C209 O221 1.239 . S
C209 O222 1.263 . S
O210 Tb200 2.325 . S
O210 C220 1.236 . S
O211 Tb201 2.322 1_565 S
O211 C220 1.257 . S
O212 Tb201 2.349 1_565 S
O212 C223 1.261 . S
O213 Tb200 2.303 . S
O213 C223 1.257 . S
O214 Tb201 2.415 . S
O214 C230 1.239 . S
O215 Tb201 2.399 . S
O215 C230 1.263 . S
O216 Tb201 2.325 . S
O216 C231 1.236 . S
O217 Tb200 2.322 1_545 S
O217 C231 1.257 . S
O218 Tb200 2.349 1_545 S
O218 C202 1.261 . S
O219 Tb201 2.303 . S
O219 C202 1.257 . S
C220 O210 1.236 . S
C220 O211 1.257 . S
O221 Tb200 2.415 . S
O221 C209 1.239 . S
O222 Tb200 2.399 . S
O222 C209 1.263 . S
C223 O212 1.261 . S
C223 O213 1.257 . S
C224 C227 1.358 . S
C224 C228 1.332 . S
C224 C230 1.504 . S
C225 C226 1.373 . S
C225 C229 1.308 . S
C226 C225 1.373 . S
C226 C227 1.429 . S
C226 H236 0.932 . S
C227 C224 1.358 . S
C227 C226 1.429 . S
C227 H237 0.930 . S
C228 C224 1.332 . S
C228 C229 1.394 . S
C228 H238 0.932 . S
C229 C225 1.308 . S
C229 C228 1.394 . S
C229 H239 0.929 . S
C230 Tb201 2.764 . S
C230 O214 1.239 . S
C230 O215 1.263 . S
C230 C224 1.504 . S
C231 O216 1.236 . S
C231 O217 1.257 . S
H232 C205 0.932 . S
H233 C206 0.930 . S
H234 C207 0.932 . S
H235 C208 0.929 . S
H236 C226 0.932 . S
H237 C227 0.930 . S
H238 C228 0.932 . S
H239 C229 0.929 . S
Tb240 C249 2.764 . S
Tb240 O250 2.325 . S
Tb240 O253 2.303 . S
Tb240 O257 2.322 . S
Tb240 O258 2.349 . S
Tb240 O261 2.415 . S
Tb240 O262 2.399 . S
Tb241 O251 2.322 . S
Tb241 O252 2.349 . S
Tb241 O254 2.415 . S
Tb241 O255 2.399 . S
Tb241 O256 2.325 . S
Tb241 O259 2.303 . S
Tb241 C270 2.764 . S
C242 O258 1.261 . S
C242 O259 1.257 . S
C243 C246 1.358 . S
C243 C247 1.332 . S
C243 C249 1.504 . S
C244 C245 1.373 . S
C244 C248 1.308 . S
C245 C244 1.373 . S
C245 C246 1.429 . S
C245 H272 0.932 . S
C246 C243 1.358 . S
C246 C245 1.429 . S
C246 H273 0.930 . S
C247 C243 1.332 . S
C247 C248 1.394 . S
C247 H274 0.932 . S
C248 C244 1.308 . S
C248 C247 1.394 . S
C248 H275 0.929 . S
C249 Tb240 2.764 . S
C249 C243 1.504 . S
C249 O261 1.239 . S
C249 O262 1.263 . S
O250 Tb240 2.325 . S
O250 C260 1.236 . S
O251 Tb241 2.322 . S
O251 C260 1.257 . S
O252 Tb241 2.349 . S
O252 C263 1.261 . S
O253 Tb240 2.303 . S
O253 C263 1.257 . S
O254 Tb241 2.415 . S
O254 C270 1.239 . S
O255 Tb241 2.399 . S
O255 C270 1.263 . S
O256 Tb241 2.325 . S
O256 C271 1.236 . S
O257 Tb240 2.322 . S
O257 C271 1.257 . S
O258 Tb240 2.349 . S
O258 C242 1.261 . S
O259 Tb241 2.303 . S
O259 C242 1.257 . S
C260 O250 1.236 . S
C260 O251 1.257 . S
O261 Tb240 2.415 . S
O261 C249 1.239 . S
O262 Tb240 2.399 . S
O262 C249 1.263 . S
C263 O252 1.261 . S
C263 O253 1.257 . S
C264 C267 1.358 . S
C264 C268 1.332 . S
C264 C270 1.504 . S
C265 C266 1.373 . S
C265 C269 1.308 . S
C266 C265 1.373 . S
C266 C267 1.429 . S
C266 H276 0.932 . S
C267 C264 1.358 . S
C267 C266 1.429 . S
C267 H277 0.930 . S
C268 C264 1.332 . S
C268 C269 1.394 . S
C268 H278 0.932 . S
C269 C265 1.308 . S
C269 C268 1.394 . S
C269 H279 0.929 . S
C270 Tb241 2.764 . S
C270 O254 1.239 . S
C270 O255 1.263 . S
C270 C264 1.504 . S
C271 O256 1.236 . S
C271 O257 1.257 . S
H272 C245 0.932 . S
H273 C246 0.930 . S
H274 C247 0.932 . S
H275 C248 0.929 . S
H276 C266 0.932 . S
H277 C267 0.930 . S
H278 C268 0.932 . S
H279 C269 0.929 . S
Tb280 C289 2.764 . S
Tb280 O290 2.325 . S
Tb280 O293 2.303 . S
Tb280 O297 2.322 . S
Tb280 O298 2.349 . S
Tb280 O301 2.415 . S
Tb280 O302 2.399 . S
Tb281 O291 2.322 . S
Tb281 O292 2.349 . S
Tb281 O294 2.415 . S
Tb281 O295 2.399 . S
Tb281 O296 2.325 . S
Tb281 O299 2.303 . S
Tb281 C310 2.764 . S
C282 O298 1.261 . S
C282 O299 1.257 . S
C283 C286 1.358 . S
C283 C287 1.332 . S
C283 C289 1.504 . S
C284 C285 1.373 . S
C284 C288 1.308 . S
C285 C284 1.373 . S
C285 C286 1.429 . S
C285 H312 0.932 . S
C286 C283 1.358 . S
C286 C285 1.429 . S
C286 H313 0.930 . S
C287 C283 1.332 . S
C287 C288 1.394 . S
C287 H314 0.932 . S
C288 C284 1.308 . S
C288 C287 1.394 . S
C288 H315 0.929 . S
C289 Tb280 2.764 . S
C289 C283 1.504 . S
C289 O301 1.239 . S
C289 O302 1.263 . S
O290 Tb280 2.325 . S
O290 C300 1.236 . S
O291 Tb281 2.322 . S
O291 C300 1.257 . S
O292 Tb281 2.349 . S
O292 C303 1.261 . S
O293 Tb280 2.303 . S
O293 C303 1.257 . S
O294 Tb281 2.415 . S
O294 C310 1.239 . S
O295 Tb281 2.399 . S
O295 C310 1.263 . S
O296 Tb281 2.325 . S
O296 C311 1.236 . S
O297 Tb280 2.322 . S
O297 C311 1.257 . S
O298 Tb280 2.349 . S
O298 C282 1.261 . S
O299 Tb281 2.303 . S
O299 C282 1.257 . S
C300 O290 1.236 . S
C300 O291 1.257 . S
O301 Tb280 2.415 . S
O301 C289 1.239 . S
O302 Tb280 2.399 . S
O302 C289 1.263 . S
C303 O292 1.261 . S
C303 O293 1.257 . S
C304 C307 1.358 . S
C304 C308 1.332 . S
C304 C310 1.504 . S
C305 C306 1.373 . S
C305 C309 1.308 . S
C306 C305 1.373 . S
C306 C307 1.429 . S
C306 H316 0.932 . S
C307 C304 1.358 . S
C307 C306 1.429 . S
C307 H317 0.930 . S
C308 C304 1.332 . S
C308 C309 1.394 . S
C308 H318 0.932 . S
C309 C305 1.308 . S
C309 C308 1.394 . S
C309 H319 0.929 . S
C310 Tb281 2.764 . S
C310 O294 1.239 . S
C310 O295 1.263 . S
C310 C304 1.504 . S
C311 O296 1.236 . S
C311 O297 1.257 . S
H312 C285 0.932 . S
H313 C286 0.930 . S
H314 C287 0.932 . S
H315 C288 0.929 . S
H316 C306 0.932 . S
H317 C307 0.930 . S
H318 C308 0.932 . S
H319 C309 0.929 . S
Tb320 C329 2.764 . S
Tb320 O330 2.325 . S
Tb320 O333 2.303 . S
Tb320 O337 2.322 . S
Tb320 O338 2.349 . S
Tb320 O341 2.415 . S
Tb320 O342 2.399 . S
Tb321 O331 2.322 . S
Tb321 O332 2.349 . S
Tb321 O334 2.415 1_554 S
Tb321 O335 2.399 . S
Tb321 O336 2.325 . S
Tb321 O339 2.303 . S
Tb321 C350 2.764 1_554 S
C322 O338 1.261 . S
C322 O339 1.257 . S
C323 C326 1.358 . S
C323 C327 1.332 . S
C323 C329 1.504 . S
C324 C325 1.373 . S
C324 C328 1.308 . S
C325 C324 1.373 . S
C325 C326 1.429 . S
C325 H352 0.932 . S
C326 C323 1.358 . S
C326 C325 1.429 . S
C326 H353 0.930 . S
C327 C323 1.332 . S
C327 C328 1.394 . S
C327 H354 0.932 . S
C328 C324 1.308 . S
C328 C327 1.394 . S
C328 H355 0.929 . S
C329 Tb320 2.764 . S
C329 C323 1.504 . S
C329 O341 1.239 . S
C329 O342 1.263 . S
O330 Tb320 2.325 . S
O330 C340 1.236 . S
O331 Tb321 2.322 . S
O331 C340 1.257 . S
O332 Tb321 2.349 . S
O332 C343 1.261 . S
O333 Tb320 2.303 . S
O333 C343 1.257 . S
O334 Tb321 2.415 1_556 S
O334 C350 1.239 . S
O335 Tb321 2.399 . S
O335 C350 1.263 1_554 S
O336 Tb321 2.325 . S
O336 C351 1.231 1_554 S
O337 Tb320 2.322 . S
O337 C351 1.237 1_554 S
O338 Tb320 2.349 . S
O338 C322 1.261 . S
O339 Tb321 2.303 . S
O339 C322 1.257 . S
C340 O330 1.236 . S
C340 O331 1.257 . S
O341 Tb320 2.415 . S
O341 C329 1.239 . S
O342 Tb320 2.399 . S
O342 C329 1.263 . S
C343 O332 1.261 . S
C343 O333 1.257 . S
C344 C347 1.358 . S
C344 C348 1.332 . S
C344 C350 1.504 . S
C345 C346 1.373 . S
C345 C349 1.308 . S
C346 C345 1.373 . S
C346 C347 1.429 . S
C346 H356 0.932 . S
C347 C344 1.358 . S
C347 C346 1.429 . S
C347 H357 0.930 . S
C348 C344 1.332 . S
C348 C349 1.394 . S
C348 H358 0.932 . S
C349 C345 1.308 . S
C349 C348 1.394 . S
C349 H359 0.929 . S
C350 Tb321 2.764 1_556 S
C350 O334 1.239 . S
C350 O335 1.263 1_556 S
C350 C344 1.504 . S
C351 O336 1.231 1_556 S
C351 O337 1.237 1_556 S
H352 C325 0.932 . S
H353 C326 0.930 . S
H354 C327 0.932 . S
H355 C328 0.929 . S
H356 C346 0.932 . S
H357 C347 0.930 . S
H358 C348 0.932 . S
H359 C349 0.929 . S
Tb360 C369 2.764 . S
Tb360 O370 2.325 . S
Tb360 O373 2.303 . S
Tb360 O377 2.322 . S
Tb360 O378 2.349 . S
Tb360 O381 2.415 . S
Tb360 O382 2.399 . S
Tb361 O371 2.322 . S
Tb361 O372 2.349 . S
Tb361 O374 2.415 . S
Tb361 O375 2.399 . S
Tb361 O376 2.325 . S
Tb361 O379 2.303 . S
Tb361 C390 2.764 . S
C362 O378 1.261 . S
C362 O379 1.257 . S
C363 C366 1.358 . S
C363 C367 1.332 . S
C363 C369 1.504 1_554 S
C364 C365 1.373 . S
C364 C368 1.308 . S
C365 C364 1.373 . S
C365 C366 1.429 . S
C365 H392 0.932 . S
C366 C363 1.358 . S
C366 C365 1.429 . S
C366 H393 0.930 . S
C367 C363 1.332 . S
C367 C368 1.394 . S
C367 H394 0.932 . S
C368 C364 1.308 . S
C368 C367 1.394 . S
C368 H395 0.929 . S
C369 Tb360 2.764 . S
C369 C363 1.504 1_556 S
C369 O381 1.239 . S
C369 O382 1.263 . S
O370 Tb360 2.325 . S
O370 C380 1.236 . S
O371 Tb361 2.322 . S
O371 C380 1.257 . S
O372 Tb361 2.349 . S
O372 C383 1.261 . S
O373 Tb360 2.303 . S
O373 C383 1.257 . S
O374 Tb361 2.415 . S
O374 C390 1.239 . S
O375 Tb361 2.399 . S
O375 C390 1.263 . S
O376 Tb361 2.325 . S
O376 C391 1.236 . S
O377 Tb360 2.322 . S
O377 C391 1.257 . S
O378 Tb360 2.349 . S
O378 C362 1.261 . S
O379 Tb361 2.303 . S
O379 C362 1.257 . S
C380 O370 1.236 . S
C380 O371 1.257 . S
O381 Tb360 2.415 . S
O381 C369 1.239 . S
O382 Tb360 2.399 . S
O382 C369 1.263 . S
C383 O372 1.261 . S
C383 O373 1.257 . S
C384 C387 1.358 . S
C384 C388 1.332 . S
C384 C390 1.504 . S
C385 C386 1.373 . S
C385 C389 1.308 . S
C386 C385 1.373 . S
C386 C387 1.429 . S
C386 H396 0.932 . S
C387 C384 1.358 . S
C387 C386 1.429 . S
C387 H397 0.930 . S
C388 C384 1.332 . S
C388 C389 1.394 . S
C388 H398 0.932 . S
C389 C385 1.308 . S
C389 C388 1.394 . S
C389 H399 0.929 . S
C390 Tb361 2.764 . S
C390 O374 1.239 . S
C390 O375 1.263 . S
C390 C384 1.504 . S
C391 O376 1.236 . S
C391 O377 1.257 . S
H392 C365 0.932 . S
H393 C366 0.930 . S
H394 C367 0.932 . S
H395 C368 0.929 . S
H396 C386 0.932 . S
H397 C387 0.930 . S
H398 C388 0.932 . S
H399 C389 0.929 . S
Tb400 C409 2.764 . S
Tb400 O410 2.325 . S
Tb400 O413 2.303 . S
Tb400 O417 2.322 . S
Tb400 O418 2.349 . S
Tb400 O421 2.415 . S
Tb400 O422 2.399 . S
Tb401 O411 2.322 . S
Tb401 O412 2.349 . S
Tb401 O414 2.415 . S
Tb401 O415 2.399 . S
Tb401 O416 2.325 . S
Tb401 O419 2.303 . S
Tb401 C430 2.764 . S
C402 O418 1.261 . S
C402 O419 1.257 . S
C403 C406 1.358 . S
C403 C407 1.332 . S
C403 C409 1.504 . S
C404 C405 1.373 . S
C404 C408 1.308 . S
C405 C404 1.373 . S
C405 C406 1.429 . S
C405 H432 0.932 . S
C406 C403 1.358 . S
C406 C405 1.429 . S
C406 H433 0.930 . S
C407 C403 1.332 . S
C407 C408 1.394 . S
C407 H434 0.932 . S
C408 C404 1.308 . S
C408 C407 1.394 . S
C408 H435 0.929 . S
C409 Tb400 2.764 . S
C409 C403 1.504 . S
C409 O421 1.239 . S
C409 O422 1.263 . S
O410 Tb400 2.325 . S
O410 C420 1.236 . S
O411 Tb401 2.322 . S
O411 C420 1.257 . S
O412 Tb401 2.349 . S
O412 C423 1.261 . S
O413 Tb400 2.303 . S
O413 C423 1.257 . S
O414 Tb401 2.415 . S
O414 C430 1.239 . S
O415 Tb401 2.399 . S
O415 C430 1.263 . S
O416 Tb401 2.325 . S
O416 C431 1.236 . S
O417 Tb400 2.322 . S
O417 C431 1.257 . S
O418 Tb400 2.349 . S
O418 C402 1.261 . S
O419 Tb401 2.303 . S
O419 C402 1.257 . S
C420 O410 1.236 . S
C420 O411 1.257 . S
O421 Tb400 2.415 . S
O421 C409 1.239 . S
O422 Tb400 2.399 . S
O422 C409 1.263 . S
C423 O412 1.261 . S
C423 O413 1.257 . S
C424 C427 1.358 . S
C424 C428 1.332 . S
C424 C430 1.504 . S
C425 C426 1.373 . S
C425 C429 1.308 . S
C426 C425 1.373 . S
C426 C427 1.429 . S
C426 H436 0.932 . S
C427 C424 1.358 . S
C427 C426 1.429 . S
C427 H437 0.930 . S
C428 C424 1.332 . S
C428 C429 1.394 . S
C428 H438 0.932 . S
C429 C425 1.308 . S
C429 C428 1.394 . S
C429 H439 0.929 . S
C430 Tb401 2.764 . S
C430 O414 1.239 . S
C430 O415 1.263 . S
C430 C424 1.504 . S
C431 O416 1.236 . S
C431 O417 1.257 . S
H432 C405 0.932 . S
H433 C406 0.930 . S
H434 C407 0.932 . S
H435 C408 0.929 . S
H436 C426 0.932 . S
H437 C427 0.930 . S
H438 C428 0.932 . S
H439 C429 0.929 . S
Tb440 C449 2.764 . S
Tb440 O450 2.325 . S
Tb440 O453 2.303 . S
Tb440 O457 2.322 . S
Tb440 O458 2.349 . S
Tb440 O461 2.415 . S
Tb440 O462 2.399 . S
Tb441 O451 2.322 . S
Tb441 O452 2.349 . S
Tb441 O454 2.415 . S
Tb441 O455 2.399 . S
Tb441 O456 2.325 . S
Tb441 O459 2.303 . S
Tb441 C470 2.764 . S
C442 O458 1.261 . S
C442 O459 1.257 . S
C443 C446 1.358 . S
C443 C447 1.332 . S
C443 C449 1.504 . S
C444 C445 1.373 . S
C444 C448 1.308 . S
C445 C444 1.373 . S
C445 C446 1.429 . S
C445 H472 0.932 . S
C446 C443 1.358 . S
C446 C445 1.429 . S
C446 H473 0.930 . S
C447 C443 1.332 . S
C447 C448 1.394 . S
C447 H474 0.932 . S
C448 C444 1.308 . S
C448 C447 1.394 . S
C448 H475 0.929 . S
C449 Tb440 2.764 . S
C449 C443 1.504 . S
C449 O461 1.239 . S
C449 O462 1.263 . S
O450 Tb440 2.325 . S
O450 C460 1.236 . S
O451 Tb441 2.322 . S
O451 C460 1.257 . S
O452 Tb441 2.349 . S
O452 C463 1.261 . S
O453 Tb440 2.303 . S
O453 C463 1.257 . S
O454 Tb441 2.415 . S
O454 C470 1.239 . S
O455 Tb441 2.399 . S
O455 C470 1.263 . S
O456 Tb441 2.325 . S
O456 C471 1.236 . S
O457 Tb440 2.322 . S
O457 C471 1.257 . S
O458 Tb440 2.349 . S
O458 C442 1.261 . S
O459 Tb441 2.303 . S
O459 C442 1.257 . S
C460 O450 1.236 . S
C460 O451 1.257 . S
O461 Tb440 2.415 . S
O461 C449 1.239 . S
O462 Tb440 2.399 . S
O462 C449 1.263 . S
C463 O452 1.261 . S
C463 O453 1.257 . S
C464 C467 1.358 . S
C464 C468 1.332 . S
C464 C470 1.504 . S
C465 C466 1.373 . S
C465 C469 1.308 . S
C466 C465 1.373 . S
C466 C467 1.429 . S
C466 H476 0.932 . S
C467 C464 1.358 . S
C467 C466 1.429 . S
C467 H477 0.930 . S
C468 C464 1.332 . S
C468 C469 1.394 . S
C468 H478 0.932 . S
C469 C465 1.308 . S
C469 C468 1.394 . S
C469 H479 0.929 . S
C470 Tb441 2.764 . S
C470 O454 1.239 . S
C470 O455 1.263 . S
C470 C464 1.504 . S
C471 O456 1.236 . S
C471 O457 1.257 . S
H472 C445 0.932 . S
H473 C446 0.930 . S
H474 C447 0.932 . S
H475 C448 0.929 . S
H476 C466 0.932 . S
H477 C467 0.930 . S
H478 C468 0.932 . S
H479 C469 0.929 . S
Tb480 C489 2.764 . S
Tb480 O490 2.325 . S
Tb480 O493 2.303 . S
Tb480 O497 2.322 1_455 S
Tb480 O498 2.349 1_455 S
Tb480 O501 2.415 . S
Tb480 O502 2.399 . S
Tb481 O491 2.322 1_655 S
Tb481 O492 2.349 1_655 S
Tb481 O494 2.415 . S
Tb481 O495 2.399 . S
Tb481 O496 2.325 . S
Tb481 O499 2.303 . S
Tb481 C510 2.764 . S
C482 O498 1.261 . S
C482 O499 1.257 . S
C483 C486 1.358 . S
C483 C487 1.332 . S
C483 C489 1.504 . S
C484 C485 1.373 . S
C484 C488 1.308 . S
C485 C484 1.373 . S
C485 C486 1.429 . S
C485 H512 0.932 . S
C486 C483 1.358 . S
C486 C485 1.429 . S
C486 H513 0.930 . S
C487 C483 1.332 . S
C487 C488 1.394 . S
C487 H514 0.932 . S
C488 C484 1.308 . S
C488 C487 1.394 . S
C488 H515 0.929 . S
C489 Tb480 2.764 . S
C489 C483 1.504 . S
C489 O501 1.239 . S
C489 O502 1.263 . S
O490 Tb480 2.325 . S
O490 C500 1.236 . S
O491 Tb481 2.322 1_455 S
O491 C500 1.257 . S
O492 Tb481 2.349 1_455 S
O492 C503 1.261 . S
O493 Tb480 2.303 . S
O493 C503 1.257 . S
O494 Tb481 2.415 . S
O494 C510 1.239 . S
O495 Tb481 2.399 . S
O495 C510 1.263 . S
O496 Tb481 2.325 . S
O496 C511 1.236 . S
O497 Tb480 2.322 1_655 S
O497 C511 1.257 . S
O498 Tb480 2.349 1_655 S
O498 C482 1.261 . S
O499 Tb481 2.303 . S
O499 C482 1.257 . S
C500 O490 1.236 . S
C500 O491 1.257 . S
O501 Tb480 2.415 . S
O501 C489 1.239 . S
O502 Tb480 2.399 . S
O502 C489 1.263 . S
C503 O492 1.261 . S
C503 O493 1.257 . S
C504 C507 1.358 . S
C504 C508 1.332 . S
C504 C510 1.504 . S
C505 C506 1.373 . S
C505 C509 1.308 . S
C506 C505 1.373 . S
C506 C507 1.429 . S
C506 H516 0.932 . S
C507 C504 1.358 . S
C507 C506 1.429 . S
C507 H517 0.930 . S
C508 C504 1.332 . S
C508 C509 1.394 . S
C508 H518 0.932 . S
C509 C505 1.308 . S
C509 C508 1.394 . S
C509 H519 0.929 . S
C510 Tb481 2.764 . S
C510 O494 1.239 . S
C510 O495 1.263 . S
C510 C504 1.504 . S
C511 O496 1.236 . S
C511 O497 1.257 . S
H512 C485 0.932 . S
H513 C486 0.930 . S
H514 C487 0.932 . S
H515 C488 0.929 . S
H516 C506 0.932 . S
H517 C507 0.930 . S
H518 C508 0.932 . S
H519 C509 0.929 . S
Tb520 C529 2.764 . S
Tb520 O530 2.325 . S
Tb520 O533 2.303 . S
Tb520 O537 2.322 . S
Tb520 O538 2.349 . S
Tb520 O541 2.415 . S
Tb520 O542 2.399 . S
Tb521 O531 2.322 . S
Tb521 O532 2.349 . S
Tb521 O534 2.415 . S
Tb521 O535 2.399 . S
Tb521 O536 2.325 . S
Tb521 O539 2.303 . S
Tb521 C550 2.764 . S
C522 O538 1.261 . S
C522 O539 1.257 . S
C523 C526 1.358 . S
C523 C527 1.332 . S
C523 C529 1.504 . S
C524 C525 1.373 . S
C524 C528 1.308 . S
C525 C524 1.373 . S
C525 C526 1.429 . S
C525 H552 0.932 . S
C526 C523 1.358 . S
C526 C525 1.429 . S
C526 H553 0.930 . S
C527 C523 1.332 . S
C527 C528 1.394 . S
C527 H554 0.932 . S
C528 C524 1.308 . S
C528 C527 1.394 . S
C528 H555 0.929 . S
C529 Tb520 2.764 . S
C529 C523 1.504 . S
C529 O541 1.239 . S
C529 O542 1.263 . S
O530 Tb520 2.325 . S
O530 C540 1.236 . S
O531 Tb521 2.322 . S
O531 C540 1.257 . S
O532 Tb521 2.349 . S
O532 C543 1.261 . S
O533 Tb520 2.303 . S
O533 C543 1.257 . S
O534 Tb521 2.415 . S
O534 C550 1.239 . S
O535 Tb521 2.399 . S
O535 C550 1.263 . S
O536 Tb521 2.325 . S
O536 C551 1.236 . S
O537 Tb520 2.322 . S
O537 C551 1.257 . S
O538 Tb520 2.349 . S
O538 C522 1.261 . S
O539 Tb521 2.303 . S
O539 C522 1.257 . S
C540 O530 1.236 . S
C540 O531 1.257 . S
O541 Tb520 2.415 . S
O541 C529 1.239 . S
O542 Tb520 2.399 . S
O542 C529 1.263 . S
C543 O532 1.261 . S
C543 O533 1.257 . S
C544 C547 1.358 . S
C544 C548 1.332 . S
C544 C550 1.504 . S
C545 C546 1.373 . S
C545 C549 1.308 . S
C546 C545 1.373 . S
C546 C547 1.429 . S
C546 H556 0.932 . S
C547 C544 1.358 . S
C547 C546 1.429 . S
C547 H557 0.930 . S
C548 C544 1.332 . S
C548 C549 1.394 . S
C548 H558 0.932 . S
C549 C545 1.308 . S
C549 C548 1.394 . S
C549 H559 0.929 . S
C550 Tb521 2.764 . S
C550 O534 1.239 . S
C550 O535 1.263 . S
C550 C544 1.504 . S
C551 O536 1.236 . S
C551 O537 1.257 . S
H552 C525 0.932 . S
H553 C526 0.930 . S
H554 C527 0.932 . S
H555 C528 0.929 . S
H556 C546 0.932 . S
H557 C547 0.930 . S
H558 C548 0.932 . S
H559 C549 0.929 . S
Tb560 C569 2.764 . S
Tb560 O570 2.325 . S
Tb560 O573 2.303 . S
Tb560 O577 2.322 . S
Tb560 O578 2.349 . S
Tb560 O581 2.415 . S
Tb560 O582 2.399 . S
Tb561 O571 2.322 . S
Tb561 O572 2.349 . S
Tb561 O574 2.415 . S
Tb561 O575 2.399 . S
Tb561 O576 2.325 . S
Tb561 O579 2.303 . S
Tb561 C590 2.764 . S
C562 O578 1.261 . S
C562 O579 1.257 . S
C563 C566 1.358 . S
C563 C567 1.332 . S
C563 C569 1.504 . S
C564 C565 1.373 . S
C564 C568 1.308 . S
C565 C564 1.373 . S
C565 C566 1.429 . S
C565 H592 0.932 . S
C566 C563 1.358 . S
C566 C565 1.429 . S
C566 H593 0.930 . S
C567 C563 1.332 . S
C567 C568 1.394 . S
C567 H594 0.932 . S
C568 C564 1.308 . S
C568 C567 1.394 . S
C568 H595 0.929 . S
C569 Tb560 2.764 . S
C569 C563 1.504 . S
C569 O581 1.239 . S
C569 O582 1.263 . S
O570 Tb560 2.325 . S
O570 C580 1.236 . S
O571 Tb561 2.322 . S
O571 C580 1.257 . S
O572 Tb561 2.349 . S
O572 C583 1.261 . S
O573 Tb560 2.303 . S
O573 C583 1.257 . S
O574 Tb561 2.415 . S
O574 C590 1.239 . S
O575 Tb561 2.399 . S
O575 C590 1.263 . S
O576 Tb561 2.325 . S
O576 C591 1.236 . S
O577 Tb560 2.322 . S
O577 C591 1.257 . S
O578 Tb560 2.349 . S
O578 C562 1.261 . S
O579 Tb561 2.303 . S
O579 C562 1.257 . S
C580 O570 1.236 . S
C580 O571 1.257 . S
O581 Tb560 2.415 . S
O581 C569 1.239 . S
O582 Tb560 2.399 . S
O582 C569 1.263 . S
C583 O572 1.261 . S
C583 O573 1.257 . S
C584 C587 1.358 . S
C584 C588 1.332 . S
C584 C590 1.504 . S
C585 C586 1.373 . S
C585 C589 1.308 . S
C586 C585 1.373 . S
C586 C587 1.429 . S
C586 H596 0.932 . S
C587 C584 1.358 . S
C587 C586 1.429 . S
C587 H597 0.930 . S
C588 C584 1.332 . S
C588 C589 1.394 . S
C588 H598 0.932 . S
C589 C585 1.308 . S
C589 C588 1.394 . S
C589 H599 0.929 . S
C590 Tb561 2.764 . S
C590 O574 1.239 . S
C590 O575 1.263 . S
C590 C584 1.504 . S
C591 O576 1.236 . S
C591 O577 1.257 . S
H592 C565 0.932 . S
H593 C566 0.930 . S
H594 C567 0.932 . S
H595 C568 0.929 . S
H596 C586 0.932 . S
H597 C587 0.930 . S
H598 C588 0.932 . S
H599 C589 0.929 . S
Tb600 C609 2.764 . S
Tb600 O610 2.325 . S
Tb600 O613 2.303 . S
Tb600 O617 2.322 1_655 S
Tb600 O618 2.349 1_655 S
Tb600 O621 2.415 . S
Tb600 O622 2.399 . S
Tb601 O611 2.322 1_455 S
Tb601 O612 2.349 1_455 S
Tb601 O614 2.415 . S
Tb601 O615 2.399 . S
Tb601 O616 2.325 . S
Tb601 O619 2.303 . S
Tb601 C630 2.764 . S
C602 O618 1.261 . S
C602 O619 1.257 . S
C603 C606 1.358 . S
C603 C607 1.332 . S
C603 C609 1.504 . S
C604 C605 1.373 . S
C604 C608 1.308 . S
C605 C604 1.373 . S
C605 C606 1.429 . S
C605 H632 0.932 . S
C606 C603 1.358 . S
C606 C605 1.429 . S
C606 H633 0.930 . S
C607 C603 1.332 . S
C607 C608 1.394 . S
C607 H634 0.932 . S
C608 C604 1.308 . S
C608 C607 1.394 . S
C608 H635 0.929 . S
C609 Tb600 2.764 . S
C609 C603 1.504 . S
C609 O621 1.239 . S
C609 O622 1.263 . S
O610 Tb600 2.325 . S
O610 C620 1.236 . S
O611 Tb601 2.322 1_655 S
O611 C620 1.257 . S
O612 Tb601 2.349 1_655 S
O612 C623 1.261 . S
O613 Tb600 2.303 . S
O613 C623 1.257 . S
O614 Tb601 2.415 . S
O614 C630 1.239 . S
O615 Tb601 2.399 . S
O615 C630 1.263 . S
O616 Tb601 2.325 . S
O616 C631 1.236 . S
O617 Tb600 2.322 1_455 S
O617 C631 1.257 . S
O618 Tb600 2.349 1_455 S
O618 C602 1.261 . S
O619 Tb601 2.303 . S
O619 C602 1.257 . S
C620 O610 1.236 . S
C620 O611 1.257 . S
O621 Tb600 2.415 . S
O621 C609 1.239 . S
O622 Tb600 2.399 . S
O622 C609 1.263 . S
C623 O612 1.261 . S
C623 O613 1.257 . S
C624 C627 1.358 . S
C624 C628 1.332 . S
C624 C630 1.504 . S
C625 C626 1.373 . S
C625 C629 1.308 . S
C626 C625 1.373 . S
C626 C627 1.429 . S
C626 H636 0.932 . S
C627 C624 1.358 . S
C627 C626 1.429 . S
C627 H637 0.930 . S
C628 C624 1.332 . S
C628 C629 1.394 . S
C628 H638 0.932 . S
C629 C625 1.308 . S
C629 C628 1.394 . S
C629 H639 0.929 . S
C630 Tb601 2.764 . S
C630 O614 1.239 . S
C630 O615 1.263 . S
C630 C624 1.504 . S
C631 O616 1.236 . S
C631 O617 1.257 . S
H632 C605 0.932 . S
H633 C606 0.930 . S
H634 C607 0.932 . S
H635 C608 0.929 . S
H636 C626 0.932 . S
H637 C627 0.930 . S
H638 C628 0.932 . S
H639 C629 0.929 . S
Tb640 C649 2.764 . S
Tb640 O650 2.325 . S
Tb640 O653 2.303 . S
Tb640 O657 2.322 1_545 S
Tb640 O658 2.349 1_545 S
Tb640 O661 2.415 . S
Tb640 O662 2.399 . S
Tb641 O651 2.322 1_565 S
Tb641 O652 2.349 1_565 S
Tb641 O654 2.415 . S
Tb641 O655 2.399 . S
Tb641 O656 2.325 . S
Tb641 O659 2.303 . S
Tb641 C670 2.764 . S
C642 O658 1.261 . S
C642 O659 1.257 . S
C643 C646 1.358 . S
C643 C647 1.332 . S
C643 C649 1.504 . S
C644 C645 1.373 . S
C644 C648 1.308 . S
C645 C644 1.373 . S
C645 C646 1.429 . S
C645 H672 0.932 . S
C646 C643 1.358 . S
C646 C645 1.429 . S
C646 H673 0.930 . S
C647 C643 1.332 . S
C647 C648 1.394 . S
C647 H674 0.932 . S
C648 C644 1.308 . S
C648 C647 1.394 . S
C648 H675 0.929 . S
C649 Tb640 2.764 . S
C649 C643 1.504 . S
C649 O661 1.239 . S
C649 O662 1.263 . S
O650 Tb640 2.325 . S
O650 C660 1.236 . S
O651 Tb641 2.322 1_545 S
O651 C660 1.257 . S
O652 Tb641 2.349 1_545 S
O652 C663 1.261 . S
O653 Tb640 2.303 . S
O653 C663 1.257 . S
O654 Tb641 2.415 . S
O654 C670 1.239 . S
O655 Tb641 2.399 . S
O655 C670 1.263 . S
O656 Tb641 2.325 . S
O656 C671 1.236 . S
O657 Tb640 2.322 1_565 S
O657 C671 1.257 . S
O658 Tb640 2.349 1_565 S
O658 C642 1.261 . S
O659 Tb641 2.303 . S
O659 C642 1.257 . S
C660 O650 1.236 . S
C660 O651 1.257 . S
O661 Tb640 2.415 . S
O661 C649 1.239 . S
O662 Tb640 2.399 . S
O662 C649 1.263 . S
C663 O652 1.261 . S
C663 O653 1.257 . S
C664 C667 1.358 . S
C664 C668 1.332 . S
C664 C670 1.504 . S
C665 C666 1.373 . S
C665 C669 1.308 . S
C666 C665 1.373 . S
C666 C667 1.429 . S
C666 H676 0.932 . S
C667 C664 1.358 . S
C667 C666 1.429 . S
C667 H677 0.930 . S
C668 C664 1.332 . S
C668 C669 1.394 . S
C668 H678 0.932 . S
C669 C665 1.308 . S
C669 C668 1.394 . S
C669 H679 0.929 . S
C670 Tb641 2.764 . S
C670 O654 1.239 . S
C670 O655 1.263 . S
C670 C664 1.504 . S
C671 O656 1.236 . S
C671 O657 1.257 . S
H672 C645 0.932 . S
H673 C646 0.930 . S
H674 C647 0.932 . S
H675 C648 0.929 . S
H676 C666 0.932 . S
H677 C667 0.930 . S
H678 C668 0.932 . S
H679 C669 0.929 . S
Tb680 C689 2.764 . S
Tb680 O690 2.325 . S
Tb680 O693 2.303 . S
Tb680 O697 2.322 1_565 S
Tb680 O698 2.349 1_565 S
Tb680 O701 2.415 . S
Tb680 O702 2.399 . S
Tb681 O691 2.322 1_545 S
Tb681 O692 2.349 1_545 S
Tb681 O694 2.415 . S
Tb681 O695 2.399 . S
Tb681 O696 2.325 . S
Tb681 O699 2.303 . S
Tb681 C710 2.764 . S
C682 O698 1.261 . S
C682 O699 1.257 . S
C683 C686 1.358 . S
C683 C687 1.332 . S
C683 C689 1.504 . S
C684 C685 1.373 . S
C684 C688 1.308 . S
C685 C684 1.373 . S
C685 C686 1.429 . S
C685 H712 0.932 . S
C686 C683 1.358 . S
C686 C685 1.429 . S
C686 H713 0.930 . S
C687 C683 1.332 . S
C687 C688 1.394 . S
C687 H714 0.932 . S
C688 C684 1.308 . S
C688 C687 1.394 . S
C688 H715 0.929 . S
C689 Tb680 2.764 . S
C689 C683 1.504 . S
C689 O701 1.239 . S
C689 O702 1.263 . S
O690 Tb680 2.325 . S
O690 C700 1.236 . S
O691 Tb681 2.322 1_565 S
O691 C700 1.257 . S
O692 Tb681 2.349 1_565 S
O692 C703 1.261 . S
O693 Tb680 2.303 . S
O693 C703 1.257 . S
O694 Tb681 2.415 . S
O694 C710 1.239 . S
O695 Tb681 2.399 . S
O695 C710 1.263 . S
O696 Tb681 2.325 . S
O696 C711 1.236 . S
O697 Tb680 2.322 1_545 S
O697 C711 1.257 . S
O698 Tb680 2.349 1_545 S
O698 C682 1.261 . S
O699 Tb681 2.303 . S
O699 C682 1.257 . S
C700 O690 1.236 . S
C700 O691 1.257 . S
O701 Tb680 2.415 . S
O701 C689 1.239 . S
O702 Tb680 2.399 . S
O702 C689 1.263 . S
C703 O692 1.261 . S
C703 O693 1.257 . S
C704 C707 1.358 . S
C704 C708 1.332 . S
C704 C710 1.504 . S
C705 C706 1.373 . S
C705 C709 1.308 . S
C706 C705 1.373 . S
C706 C707 1.429 . S
C706 H716 0.932 . S
C707 C704 1.358 . S
C707 C706 1.429 . S
C707 H717 0.930 . S
C708 C704 1.332 . S
C708 C709 1.394 . S
C708 H718 0.932 . S
C709 C705 1.308 . S
C709 C708 1.394 . S
C709 H719 0.929 . S
C710 Tb681 2.764 . S
C710 O694 1.239 . S
C710 O695 1.263 . S
C710 C704 1.504 . S
C711 O696 1.236 . S
C711 O697 1.257 . S
H712 C685 0.932 . S
H713 C686 0.930 . S
H714 C687 0.932 . S
H715 C688 0.929 . S
H716 C706 0.932 . S
H717 C707 0.930 . S
H718 C708 0.932 . S
H719 C709 0.929 . S
Tb720 C729 2.764 . S
Tb720 O730 2.325 . S
Tb720 O733 2.303 . S
Tb720 O737 2.322 . S
Tb720 O738 2.349 . S
Tb720 O741 2.415 . S
Tb720 O742 2.399 . S
Tb721 O731 2.322 . S
Tb721 O732 2.349 . S
Tb721 O734 2.415 . S
Tb721 O735 2.399 . S
Tb721 O736 2.325 . S
Tb721 O739 2.303 . S
Tb721 C750 2.764 . S
C722 O738 1.261 . S
C722 O739 1.257 . S
C723 C726 1.358 . S
C723 C727 1.332 . S
C723 C729 1.504 . S
C724 C725 1.373 . S
C724 C728 1.308 . S
C725 C724 1.373 . S
C725 C726 1.429 . S
C725 H752 0.932 . S
C726 C723 1.358 . S
C726 C725 1.429 . S
C726 H753 0.930 . S
C727 C723 1.332 . S
C727 C728 1.394 . S
C727 H754 0.932 . S
C728 C724 1.308 . S
C728 C727 1.394 . S
C728 H755 0.929 . S
C729 Tb720 2.764 . S
C729 C723 1.504 . S
C729 O741 1.239 . S
C729 O742 1.263 . S
O730 Tb720 2.325 . S
O730 C740 1.236 . S
O731 Tb721 2.322 . S
O731 C740 1.257 . S
O732 Tb721 2.349 . S
O732 C743 1.261 . S
O733 Tb720 2.303 . S
O733 C743 1.257 . S
O734 Tb721 2.415 . S
O734 C750 1.239 . S
O735 Tb721 2.399 . S
O735 C750 1.263 . S
O736 Tb721 2.325 . S
O736 C751 1.236 . S
O737 Tb720 2.322 . S
O737 C751 1.257 . S
O738 Tb720 2.349 . S
O738 C722 1.261 . S
O739 Tb721 2.303 . S
O739 C722 1.257 . S
C740 O730 1.236 . S
C740 O731 1.257 . S
O741 Tb720 2.415 . S
O741 C729 1.239 . S
O742 Tb720 2.399 . S
O742 C729 1.263 . S
C743 O732 1.261 . S
C743 O733 1.257 . S
C744 C747 1.358 . S
C744 C748 1.332 . S
C744 C750 1.504 . S
C745 C746 1.373 . S
C745 C749 1.308 . S
C746 C745 1.373 . S
C746 C747 1.429 . S
C746 H756 0.932 . S
C747 C744 1.358 . S
C747 C746 1.429 . S
C747 H757 0.930 . S
C748 C744 1.332 . S
C748 C749 1.394 . S
C748 H758 0.932 . S
C749 C745 1.308 . S
C749 C748 1.394 . S
C749 H759 0.929 . S
C750 Tb721 2.764 . S
C750 O734 1.239 . S
C750 O735 1.263 . S
C750 C744 1.504 . S
C751 O736 1.236 . S
C751 O737 1.257 . S
H752 C725 0.932 . S
H753 C726 0.930 . S
H754 C727 0.932 . S
H755 C728 0.929 . S
H756 C746 0.932 . S
H757 C747 0.930 . S
H758 C748 0.932 . S
H759 C749 0.929 . S
Tb760 C769 2.764 . S
Tb760 O770 2.325 . S
Tb760 O773 2.303 . S
Tb760 O777 2.322 . S
Tb760 O778 2.349 . S
Tb760 O781 2.415 . S
Tb760 O782 2.399 . S
Tb761 O771 2.322 . S
Tb761 O772 2.349 . S
Tb761 O774 2.415 . S
Tb761 O775 2.399 . S
Tb761 O776 2.325 . S
Tb761 O779 2.303 . S
Tb761 C790 2.764 . S
C762 O778 1.261 . S
C762 O779 1.257 . S
C763 C766 1.358 . S
C763 C767 1.332 . S
C763 C769 1.504 . S
C764 C765 1.373 . S
C764 C768 1.308 . S
C765 C764 1.373 . S
C765 C766 1.429 . S
C765 H792 0.932 . S
C766 C763 1.358 . S
C766 C765 1.429 . S
C766 H793 0.930 . S
C767 C763 1.332 . S
C767 C768 1.394 . S
C767 H794 0.932 . S
C768 C764 1.308 . S
C768 C767 1.394 . S
C768 H795 0.929 . S
C769 Tb760 2.764 . S
C769 C763 1.504 . S
C769 O781 1.239 . S
C769 O782 1.263 . S
O770 Tb760 2.325 . S
O770 C780 1.236 . S
O771 Tb761 2.322 . S
O771 C780 1.257 . S
O772 Tb761 2.349 . S
O772 C783 1.261 . S
O773 Tb760 2.303 . S
O773 C783 1.257 . S
O774 Tb761 2.415 . S
O774 C790 1.239 . S
O775 Tb761 2.399 . S
O775 C790 1.263 . S
O776 Tb761 2.325 . S
O776 C791 1.236 . S
O777 Tb760 2.322 . S
O777 C791 1.257 . S
O778 Tb760 2.349 . S
O778 C762 1.261 . S
O779 Tb761 2.303 . S
O779 C762 1.257 . S
C780 O770 1.236 . S
C780 O771 1.257 . S
O781 Tb760 2.415 . S
O781 C769 1.239 . S
O782 Tb760 2.399 . S
O782 C769 1.263 . S
C783 O772 1.261 . S
C783 O773 1.257 . S
C784 C787 1.358 . S
C784 C788 1.332 . S
C784 C790 1.504 . S
C785 C786 1.373 . S
C785 C789 1.308 . S
C786 C785 1.373 . S
C786 C787 1.429 . S
C786 H796 0.932 . S
C787 C784 1.358 . S
C787 C786 1.429 . S
C787 H797 0.930 . S
C788 C784 1.332 . S
C788 C789 1.394 . S
C788 H798 0.932 . S
C789 C785 1.308 . S
C789 C788 1.394 . S
C789 H799 0.929 . S
C790 Tb761 2.764 . S
C790 O774 1.239 . S
C790 O775 1.263 . S
C790 C784 1.504 . S
C791 O776 1.236 . S
C791 O777 1.257 . S
H792 C765 0.932 . S
H793 C766 0.930 . S
H794 C767 0.932 . S
H795 C768 0.929 . S
H796 C786 0.932 . S
H797 C787 0.930 . S
H798 C788 0.932 . S
H799 C789 0.929 . S
Tb800 C809 2.764 1_556 S
Tb800 O810 2.325 . S
Tb800 O813 2.303 . S
Tb800 O817 2.322 . S
Tb800 O818 2.349 . S
Tb800 O821 2.415 1_556 S
Tb800 O822 2.399 . S
Tb801 O811 2.322 . S
Tb801 O812 2.349 . S
Tb801 O814 2.415 . S
Tb801 O815 2.399 . S
Tb801 O816 2.325 . S
Tb801 O819 2.303 . S
Tb801 C830 2.764 . S
C802 O818 1.261 . S
C802 O819 1.257 . S
C803 C806 1.358 . S
C803 C807 1.332 . S
C803 C809 1.504 . S
C804 C805 1.373 . S
C804 C808 1.308 . S
C805 C804 1.373 . S
C805 C806 1.429 . S
C805 H832 0.932 . S
C806 C803 1.358 . S
C806 C805 1.429 . S
C806 H833 0.930 . S
C807 C803 1.332 . S
C807 C808 1.394 . S
C807 H834 0.932 . S
C808 C804 1.308 . S
C808 C807 1.394 . S
C808 H835 0.929 . S
C809 Tb800 2.764 1_554 S
C809 C803 1.504 . S
C809 O821 1.239 . S
C809 O822 1.263 1_554 S
O810 Tb800 2.325 . S
O810 C820 1.231 1_556 S
O811 Tb801 2.322 . S
O811 C820 1.237 1_556 S
O812 Tb801 2.349 . S
O812 C823 1.261 . S
O813 Tb800 2.303 . S
O813 C823 1.257 . S
O814 Tb801 2.415 . S
O814 C830 1.239 . S
O815 Tb801 2.399 . S
O815 C830 1.263 . S
O816 Tb801 2.325 . S
O816 C831 1.236 . S
O817 Tb800 2.322 . S
O817 C831 1.257 . S
O818 Tb800 2.349 . S
O818 C802 1.261 . S
O819 Tb801 2.303 . S
O819 C802 1.257 . S
C820 O810 1.231 1_554 S
C820 O811 1.237 1_554 S
O821 Tb800 2.415 1_554 S
O821 C809 1.239 . S
O822 Tb800 2.399 . S
O822 C809 1.263 1_556 S
C823 O812 1.261 . S
C823 O813 1.257 . S
C824 C827 1.358 . S
C824 C828 1.332 . S
C824 C830 1.504 . S
C825 C826 1.373 . S
C825 C829 1.308 . S
C826 C825 1.373 . S
C826 C827 1.429 . S
C826 H836 0.932 . S
C827 C824 1.358 . S
C827 C826 1.429 . S
C827 H837 0.930 . S
C828 C824 1.332 . S
C828 C829 1.394 . S
C828 H838 0.932 . S
C829 C825 1.308 . S
C829 C828 1.394 . S
C829 H839 0.929 . S
C830 Tb801 2.764 . S
C830 O814 1.239 . S
C830 O815 1.263 . S
C830 C824 1.504 . S
C831 O816 1.236 . S
C831 O817 1.257 . S
H832 C805 0.932 . S
H833 C806 0.930 . S
H834 C807 0.932 . S
H835 C808 0.929 . S
H836 C826 0.932 . S
H837 C827 0.930 . S
H838 C828 0.932 . S
H839 C829 0.929 . S
Tb840 C849 2.764 . S
Tb840 O850 2.325 . S
Tb840 O853 2.303 . S
Tb840 O857 2.322 . S
Tb840 O858 2.349 . S
Tb840 O861 2.415 . S
Tb840 O862 2.399 . S
Tb841 O851 2.322 . S
Tb841 O852 2.349 . S
Tb841 O854 2.415 . S
Tb841 O855 2.399 . S
Tb841 O856 2.325 . S
Tb841 O859 2.303 . S
Tb841 C870 2.764 . S
C842 O858 1.261 . S
C842 O859 1.257 . S
C843 C846 1.358 . S
C843 C847 1.332 . S
C843 C849 1.504 . S
C844 C845 1.373 . S
C844 C848 1.308 . S
C845 C844 1.373 . S
C845 C846 1.429 . S
C845 H872 0.932 . S
C846 C843 1.358 . S
C846 C845 1.429 . S
C846 H873 0.930 . S
C847 C843 1.332 . S
C847 C848 1.394 . S
C847 H874 0.932 . S
C848 C844 1.308 . S
C848 C847 1.394 . S
C848 H875 0.929 . S
C849 Tb840 2.764 . S
C849 C843 1.504 . S
C849 O861 1.239 . S
C849 O862 1.263 . S
O850 Tb840 2.325 . S
O850 C860 1.236 . S
O851 Tb841 2.322 . S
O851 C860 1.257 . S
O852 Tb841 2.349 . S
O852 C863 1.261 . S
O853 Tb840 2.303 . S
O853 C863 1.257 . S
O854 Tb841 2.415 . S
O854 C870 1.239 . S
O855 Tb841 2.399 . S
O855 C870 1.263 . S
O856 Tb841 2.325 . S
O856 C871 1.236 . S
O857 Tb840 2.322 . S
O857 C871 1.257 . S
O858 Tb840 2.349 . S
O858 C842 1.261 . S
O859 Tb841 2.303 . S
O859 C842 1.257 . S
C860 O850 1.236 . S
C860 O851 1.257 . S
O861 Tb840 2.415 . S
O861 C849 1.239 . S
O862 Tb840 2.399 . S
O862 C849 1.263 . S
C863 O852 1.261 . S
C863 O853 1.257 . S
C864 C867 1.358 . S
C864 C868 1.332 . S
C864 C870 1.504 1_556 S
C865 C866 1.373 . S
C865 C869 1.308 . S
C866 C865 1.373 . S
C866 C867 1.429 . S
C866 H876 0.932 . S
C867 C864 1.358 . S
C867 C866 1.429 . S
C867 H877 0.930 . S
C868 C864 1.332 . S
C868 C869 1.394 . S
C868 H878 0.932 . S
C869 C865 1.308 . S
C869 C868 1.394 . S
C869 H879 0.929 . S
C870 Tb841 2.764 . S
C870 O854 1.239 . S
C870 O855 1.263 . S
C870 C864 1.504 1_554 S
C871 O856 1.236 . S
C871 O857 1.257 . S
H872 C845 0.932 . S
H873 C846 0.930 . S
H874 C847 0.932 . S
H875 C848 0.929 . S
H876 C866 0.932 . S
H877 C867 0.930 . S
H878 C868 0.932 . S
H879 C869 0.929 . S
Tb880 C889 2.764 . S
Tb880 O890 2.325 . S
Tb880 O893 2.303 . S
Tb880 O897 2.322 . S
Tb880 O898 2.349 . S
Tb880 O901 2.415 . S
Tb880 O902 2.399 . S
Tb881 O891 2.322 . S
Tb881 O892 2.349 . S
Tb881 O894 2.415 . S
Tb881 O895 2.399 . S
Tb881 O896 2.325 . S
Tb881 O899 2.303 . S
Tb881 C910 2.764 . S
C882 O898 1.261 . S
C882 O899 1.257 . S
C883 C886 1.358 . S
C883 C887 1.332 . S
C883 C889 1.504 . S
C884 C885 1.373 . S
C884 C888 1.308 . S
C885 C884 1.373 . S
C885 C886 1.429 . S
C885 H912 0.932 . S
C886 C883 1.358 . S
C886 C885 1.429 . S
C886 H913 0.930 . S
C887 C883 1.332 . S
C887 C888 1.394 . S
C887 H914 0.932 . S
C888 C884 1.308 . S
C888 C887 1.394 . S
C888 H915 0.929 . S
C889 Tb880 2.764 . S
C889 C883 1.504 . S
C889 O901 1.239 . S
C889 O902 1.263 . S
O890 Tb880 2.325 . S
O890 C900 1.236 . S
O891 Tb881 2.322 . S
O891 C900 1.257 . S
O892 Tb881 2.349 . S
O892 C903 1.261 . S
O893 Tb880 2.303 . S
O893 C903 1.257 . S
O894 Tb881 2.415 . S
O894 C910 1.239 . S
O895 Tb881 2.399 . S
O895 C910 1.263 . S
O896 Tb881 2.325 . S
O896 C911 1.236 . S
O897 Tb880 2.322 . S
O897 C911 1.257 . S
O898 Tb880 2.349 . S
O898 C882 1.261 . S
O899 Tb881 2.303 . S
O899 C882 1.257 . S
C900 O890 1.236 . S
C900 O891 1.257 . S
O901 Tb880 2.415 . S
O901 C889 1.239 . S
O902 Tb880 2.399 . S
O902 C889 1.263 . S
C903 O892 1.261 . S
C903 O893 1.257 . S
C904 C907 1.358 . S
C904 C908 1.332 . S
C904 C910 1.504 . S
C905 C906 1.373 . S
C905 C909 1.308 . S
C906 C905 1.373 . S
C906 C907 1.429 . S
C906 H916 0.932 . S
C907 C904 1.358 . S
C907 C906 1.429 . S
C907 H917 0.930 . S
C908 C904 1.332 . S
C908 C909 1.394 . S
C908 H918 0.932 . S
C909 C905 1.308 . S
C909 C908 1.394 . S
C909 H919 0.929 . S
C910 Tb881 2.764 . S
C910 O894 1.239 . S
C910 O895 1.263 . S
C910 C904 1.504 . S
C911 O896 1.236 . S
C911 O897 1.257 . S
H912 C885 0.932 . S
H913 C886 0.930 . S
H914 C887 0.932 . S
H915 C888 0.929 . S
H916 C906 0.932 . S
H917 C907 0.930 . S
H918 C908 0.932 . S
H919 C909 0.929 . S
Tb920 C929 2.764 . S
Tb920 O930 2.325 . S
Tb920 O933 2.303 . S
Tb920 O937 2.322 . S
Tb920 O938 2.349 . S
Tb920 O941 2.415 . S
Tb920 O942 2.399 . S
Tb921 O931 2.322 . S
Tb921 O932 2.349 . S
Tb921 O934 2.415 . S
Tb921 O935 2.399 . S
Tb921 O936 2.325 . S
Tb921 O939 2.303 . S
Tb921 C950 2.764 . S
C922 O938 1.261 . S
C922 O939 1.257 . S
C923 C926 1.358 . S
C923 C927 1.332 . S
C923 C929 1.504 . S
C924 C925 1.373 . S
C924 C928 1.308 . S
C925 C924 1.373 . S
C925 C926 1.429 . S
C925 H952 0.932 . S
C926 C923 1.358 . S
C926 C925 1.429 . S
C926 H953 0.930 . S
C927 C923 1.332 . S
C927 C928 1.394 . S
C927 H954 0.932 . S
C928 C924 1.308 . S
C928 C927 1.394 . S
C928 H955 0.929 . S
C929 Tb920 2.764 . S
C929 C923 1.504 . S
C929 O941 1.239 . S
C929 O942 1.263 . S
O930 Tb920 2.325 . S
O930 C940 1.236 . S
O931 Tb921 2.322 . S
O931 C940 1.257 . S
O932 Tb921 2.349 . S
O932 C943 1.261 . S
O933 Tb920 2.303 . S
O933 C943 1.257 . S
O934 Tb921 2.415 . S
O934 C950 1.239 . S
O935 Tb921 2.399 . S
O935 C950 1.263 . S
O936 Tb921 2.325 . S
O936 C951 1.236 . S
O937 Tb920 2.322 . S
O937 C951 1.257 . S
O938 Tb920 2.349 . S
O938 C922 1.261 . S
O939 Tb921 2.303 . S
O939 C922 1.257 . S
C940 O930 1.236 . S
C940 O931 1.257 . S
O941 Tb920 2.415 . S
O941 C929 1.239 . S
O942 Tb920 2.399 . S
O942 C929 1.263 . S
C943 O932 1.261 . S
C943 O933 1.257 . S
C944 C947 1.358 . S
C944 C948 1.332 . S
C944 C950 1.504 . S
C945 C946 1.373 . S
C945 C949 1.308 . S
C946 C945 1.373 . S
C946 C947 1.429 . S
C946 H956 0.932 . S
C947 C944 1.358 . S
C947 C946 1.429 . S
C947 H957 0.930 . S
C948 C944 1.332 . S
C948 C949 1.394 . S
C948 H958 0.932 . S
C949 C945 1.308 . S
C949 C948 1.394 . S
C949 H959 0.929 . S
C950 Tb921 2.764 . S
C950 O934 1.239 . S
C950 O935 1.263 . S
C950 C944 1.504 . S
C951 O936 1.236 . S
C951 O937 1.257 . S
H952 C925 0.932 . S
H953 C926 0.930 . S
H954 C927 0.932 . S
H955 C928 0.929 . S
H956 C946 0.932 . S
H957 C947 0.930 . S
H958 C948 0.932 . S
H959 C949 0.929 . S
H960 C968 0.950 . S
H961 C973 0.950 . S
H962 C970 0.950 . S
H963 C972 0.950 . S
H964 C974 0.950 . S
H965 C976 0.950 . S
H966 C978 0.950 . S
H967 C979 0.950 . S
C968 H960 0.950 . S
C968 C969 1.386 . S
C968 C970 1.391 . S
C969 C968 1.386 . S
C969 C973 1.393 . S
C970 H962 0.950 . S
C970 C968 1.391 . S
C970 C971 1.400 . S
C971 C970 1.400 . S
C971 C972 1.398 . S
C971 C977 1.491 . S
C972 H963 0.950 . S
C972 C971 1.398 . S
C972 C973 1.391 . S
C973 H961 0.950 . S
C973 C969 1.393 . S
C973 C972 1.391 . S
C974 H964 0.950 . S
C974 C975 1.386 . S
C974 C976 1.391 . S
C975 C974 1.386 . S
C975 C979 1.393 . S
C976 H965 0.950 . S
C976 C974 1.391 . S
C976 C977 1.400 . S
C977 C971 1.491 . S
C977 C976 1.400 . S
C977 C978 1.398 . S
C978 H966 0.950 . S
C978 C977 1.398 . S
C978 C979 1.391 . S
C979 H967 0.950 . S
C979 C975 1.393 . S
C979 C978 1.391 . S
H980 C988 0.950 . S
H981 C993 0.950 . S
H982 C990 0.950 . S
H983 C992 0.950 . S
H984 C994 0.950 . S
H985 C996 0.950 . S
H986 C998 0.950 . S
H987 C999 0.950 . S
C988 H980 0.950 . S
C988 C989 1.386 . S
C988 C990 1.391 . S
C989 C988 1.386 . S
C989 C993 1.393 . S
C990 H982 0.950 . S
C990 C988 1.391 . S
C990 C991 1.400 . S
C991 C990 1.400 . S
C991 C992 1.398 . S
C991 C997 1.491 . S
C992 H983 0.950 . S
C992 C991 1.398 . S
C992 C993 1.391 . S
C993 H981 0.950 . S
C993 C989 1.393 . S
C993 C992 1.391 . S
C994 H984 0.950 . S
C994 C995 1.386 . S
C994 C996 1.391 . S
C995 C994 1.386 . S
C995 C999 1.393 . S
C996 H985 0.950 . S
C996 C994 1.391 . S
C996 C997 1.400 . S
C997 C991 1.491 . S
C997 C996 1.400 . S
C997 C998 1.398 . S
C998 H986 0.950 . S
C998 C997 1.398 . S
C998 C999 1.391 . S
C999 H987 0.950 . S
C999 C995 1.393 . S
C999 C998 1.391 . S
H1000 C1008 0.950 . S
H1001 C1013 0.950 . S
H1002 C1010 0.950 . S
H1003 C1012 0.950 . S
H1004 C1014 0.950 . S
H1005 C1016 0.950 . S
H1006 C1018 0.950 . S
H1007 C1019 0.950 . S
C1008 H1000 0.950 . S
C1008 C1009 1.386 . S
C1008 C1010 1.391 . S
C1009 C1008 1.386 . S
C1009 C1013 1.393 . S
C1010 H1002 0.950 . S
C1010 C1008 1.391 . S
C1010 C1011 1.400 . S
C1011 C1010 1.400 . S
C1011 C1012 1.398 . S
C1011 C1017 1.491 . S
C1012 H1003 0.950 . S
C1012 C1011 1.398 . S
C1012 C1013 1.391 . S
C1013 H1001 0.950 . S
C1013 C1009 1.393 . S
C1013 C1012 1.391 . S
C1014 H1004 0.950 . S
C1014 C1015 1.386 . S
C1014 C1016 1.391 . S
C1015 C1014 1.386 . S
C1015 C1019 1.393 . S
C1016 H1005 0.950 . S
C1016 C1014 1.391 . S
C1016 C1017 1.400 . S
C1017 C1011 1.491 . S
C1017 C1016 1.400 . S
C1017 C1018 1.398 . S
C1018 H1006 0.950 . S
C1018 C1017 1.398 . S
C1018 C1019 1.391 . S
C1019 H1007 0.950 . S
C1019 C1015 1.393 . S
C1019 C1018 1.391 . S
H1020 C1028 0.950 . S
H1021 C1033 0.950 . S
H1022 C1030 0.950 . S
H1023 C1032 0.950 . S
H1024 C1034 0.950 . S
H1025 C1036 0.950 . S
H1026 C1038 0.950 . S
H1027 C1039 0.950 . S
C1028 H1020 0.950 . S
C1028 C1029 1.386 . S
C1028 C1030 1.391 . S
C1029 C1028 1.386 . S
C1029 C1033 1.393 . S
C1030 H1022 0.950 . S
C1030 C1028 1.391 . S
C1030 C1031 1.400 . S
C1031 C1030 1.400 . S
C1031 C1032 1.398 . S
C1031 C1037 1.491 . S
C1032 H1023 0.950 . S
C1032 C1031 1.398 . S
C1032 C1033 1.391 . S
C1033 H1021 0.950 . S
C1033 C1029 1.393 . S
C1033 C1032 1.391 . S
C1034 H1024 0.950 . S
C1034 C1035 1.386 . S
C1034 C1036 1.391 . S
C1035 C1034 1.386 . S
C1035 C1039 1.393 . S
C1036 H1025 0.950 . S
C1036 C1034 1.391 . S
C1036 C1037 1.400 . S
C1037 C1031 1.491 . S
C1037 C1036 1.400 . S
C1037 C1038 1.398 . S
C1038 H1026 0.950 . S
C1038 C1037 1.398 . S
C1038 C1039 1.391 . S
C1039 H1027 0.950 . S
C1039 C1035 1.393 . S
C1039 C1038 1.391 . S
H1040 C1048 0.950 . S
H1041 C1053 0.950 . S
H1042 C1050 0.950 . S
H1043 C1052 0.950 . S
H1044 C1054 0.950 . S
H1045 C1056 0.950 . S
H1046 C1058 0.950 . S
H1047 C1059 0.950 . S
C1048 H1040 0.950 . S
C1048 C1049 1.386 . S
C1048 C1050 1.391 . S
C1049 C1048 1.386 . S
C1049 C1053 1.393 . S
C1050 H1042 0.950 . S
C1050 C1048 1.391 . S
C1050 C1051 1.400 . S
C1051 C1050 1.400 . S
C1051 C1052 1.398 . S
C1051 C1057 1.491 . S
C1052 H1043 0.950 . S
C1052 C1051 1.398 . S
C1052 C1053 1.391 . S
C1053 H1041 0.950 . S
C1053 C1049 1.393 . S
C1053 C1052 1.391 . S
C1054 H1044 0.950 . S
C1054 C1055 1.386 . S
C1054 C1056 1.391 . S
C1055 C1054 1.386 . S
C1055 C1059 1.393 . S
C1056 H1045 0.950 . S
C1056 C1054 1.391 . S
C1056 C1057 1.400 . S
C1057 C1051 1.491 . S
C1057 C1056 1.400 . S
C1057 C1058 1.398 . S
C1058 H1046 0.950 . S
C1058 C1057 1.398 . S
C1058 C1059 1.391 . S
C1059 H1047 0.950 . S
C1059 C1055 1.393 . S
C1059 C1058 1.391 . S
H1060 C1068 0.950 . S
H1061 C1073 0.950 . S
H1062 C1070 0.950 . S
H1063 C1072 0.950 . S
H1064 C1074 0.950 . S
H1065 C1076 0.950 . S
H1066 C1078 0.950 . S
H1067 C1079 0.950 . S
C1068 H1060 0.950 . S
C1068 C1069 1.386 . S
C1068 C1070 1.391 . S
C1069 C1068 1.386 . S
C1069 C1073 1.393 . S
C1070 H1062 0.950 . S
C1070 C1068 1.391 . S
C1070 C1071 1.400 . S
C1071 C1070 1.400 . S
C1071 C1072 1.398 . S
C1071 C1077 1.491 . S
C1072 H1063 0.950 . S
C1072 C1071 1.398 . S
C1072 C1073 1.391 . S
C1073 H1061 0.950 . S
C1073 C1069 1.393 . S
C1073 C1072 1.391 . S
C1074 H1064 0.950 . S
C1074 C1075 1.386 . S
C1074 C1076 1.391 . S
C1075 C1074 1.386 . S
C1075 C1079 1.393 . S
C1076 H1065 0.950 . S
C1076 C1074 1.391 . S
C1076 C1077 1.400 . S
C1077 C1071 1.491 . S
C1077 C1076 1.400 . S
C1077 C1078 1.398 . S
C1078 H1066 0.950 . S
C1078 C1077 1.398 . S
C1078 C1079 1.391 . S
C1079 H1067 0.950 . S
C1079 C1075 1.393 . S
C1079 C1078 1.391 . S
H1080 C1088 0.950 . S
H1081 C1093 0.950 . S
H1082 C1090 0.950 . S
H1083 C1092 0.950 . S
H1084 C1094 0.950 . S
H1085 C1096 0.950 . S
H1086 C1098 0.950 . S
H1087 C1099 0.950 . S
C1088 H1080 0.950 . S
C1088 C1089 1.386 . S
C1088 C1090 1.391 . S
C1089 C1088 1.386 . S
C1089 C1093 1.393 . S
C1090 H1082 0.950 . S
C1090 C1088 1.391 . S
C1090 C1091 1.400 . S
C1091 C1090 1.400 . S
C1091 C1092 1.398 . S
C1091 C1097 1.491 . S
C1092 H1083 0.950 . S
C1092 C1091 1.398 . S
C1092 C1093 1.391 . S
C1093 H1081 0.950 . S
C1093 C1089 1.393 . S
C1093 C1092 1.391 . S
C1094 H1084 0.950 . S
C1094 C1095 1.386 . S
C1094 C1096 1.391 . S
C1095 C1094 1.386 . S
C1095 C1099 1.393 . S
C1096 H1085 0.950 . S
C1096 C1094 1.391 . S
C1096 C1097 1.400 . S
C1097 C1091 1.491 . S
C1097 C1096 1.400 . S
C1097 C1098 1.398 . S
C1098 H1086 0.950 . S
C1098 C1097 1.398 . S
C1098 C1099 1.391 . S
C1099 H1087 0.950 . S
C1099 C1095 1.393 . S
C1099 C1098 1.391 . S
H1100 C1108 0.950 . S
H1101 C1113 0.950 . S
H1102 C1110 0.950 . S
H1103 C1112 0.950 . S
H1104 C1114 0.950 . S
H1105 C1116 0.950 . S
H1106 C1118 0.950 . S
H1107 C1119 0.950 . S
C1108 H1100 0.950 . S
C1108 C1109 1.386 . S
C1108 C1110 1.391 . S
C1109 C1108 1.386 . S
C1109 C1113 1.393 . S
C1110 H1102 0.950 . S
C1110 C1108 1.391 . S
C1110 C1111 1.400 . S
C1111 C1110 1.400 . S
C1111 C1112 1.398 . S
C1111 C1117 1.491 . S
C1112 H1103 0.950 . S
C1112 C1111 1.398 . S
C1112 C1113 1.391 . S
C1113 H1101 0.950 . S
C1113 C1109 1.393 . S
C1113 C1112 1.391 . S
C1114 H1104 0.950 . S
C1114 C1115 1.386 . S
C1114 C1116 1.391 . S
C1115 C1114 1.386 . S
C1115 C1119 1.393 . S
C1116 H1105 0.950 . S
C1116 C1114 1.391 . S
C1116 C1117 1.400 . S
C1117 C1111 1.491 . S
C1117 C1116 1.400 . S
C1117 C1118 1.398 . S
C1118 H1106 0.950 . S
C1118 C1117 1.398 . S
C1118 C1119 1.391 . S
C1119 H1107 0.950 . S
C1119 C1115 1.393 . S
C1119 C1118 1.391 . S
H1120 C1128 0.950 . S
H1121 C1133 0.950 . S
H1122 C1130 0.950 . S
H1123 C1132 0.950 . S
H1124 C1134 0.950 . S
H1125 C1136 0.950 . S
H1126 C1138 0.950 . S
H1127 C1139 0.950 . S
C1128 H1120 0.950 . S
C1128 C1129 1.386 . S
C1128 C1130 1.391 . S
C1129 C1128 1.386 . S
C1129 C1133 1.393 . S
C1130 H1122 0.950 . S
C1130 C1128 1.391 . S
C1130 C1131 1.400 . S
C1131 C1130 1.400 . S
C1131 C1132 1.398 . S
C1131 C1137 1.491 . S
C1132 H1123 0.950 . S
C1132 C1131 1.398 . S
C1132 C1133 1.391 . S
C1133 H1121 0.950 . S
C1133 C1129 1.393 . S
C1133 C1132 1.391 . S
C1134 H1124 0.950 . S
C1134 C1135 1.386 . S
C1134 C1136 1.391 . S
C1135 C1134 1.386 . S
C1135 C1139 1.393 . S
C1136 H1125 0.950 . S
C1136 C1134 1.391 . S
C1136 C1137 1.400 . S
C1137 C1131 1.491 . S
C1137 C1136 1.400 . S
C1137 C1138 1.398 . S
C1138 H1126 0.950 . S
C1138 C1137 1.398 . S
C1138 C1139 1.391 . S
C1139 H1127 0.950 . S
C1139 C1135 1.393 . S
C1139 C1138 1.391 . S
H1140 C1148 0.950 . S
H1141 C1153 0.950 . S
H1142 C1150 0.950 . S
H1143 C1152 0.950 . S
H1144 C1154 0.950 . S
H1145 C1156 0.950 . S
H1146 C1158 0.950 . S
H1147 C1159 0.950 . S
C1148 H1140 0.950 . S
C1148 C1149 1.386 . S
C1148 C1150 1.391 . S
C1149 C1148 1.386 . S
C1149 C1153 1.393 . S
C1150 H1142 0.950 . S
C1150 C1148 1.391 . S
C1150 C1151 1.400 . S
C1151 C1150 1.400 . S
C1151 C1152 1.398 . S
C1151 C1157 1.491 . S
C1152 H1143 0.950 . S
C1152 C1151 1.398 . S
C1152 C1153 1.391 . S
C1153 H1141 0.950 . S
C1153 C1149 1.393 . S
C1153 C1152 1.391 . S
C1154 H1144 0.950 . S
C1154 C1155 1.386 . S
C1154 C1156 1.391 . S
C1155 C1154 1.386 . S
C1155 C1159 1.393 . S
C1156 H1145 0.950 . S
C1156 C1154 1.391 . S
C1156 C1157 1.400 . S
C1157 C1151 1.491 . S
C1157 C1156 1.400 . S
C1157 C1158 1.398 . S
C1158 H1146 0.950 . S
C1158 C1157 1.398 . S
C1158 C1159 1.391 . S
C1159 H1147 0.950 . S
C1159 C1155 1.393 . S
C1159 C1158 1.391 . S
H1160 C1168 0.950 . S
H1161 C1173 0.950 . S
H1162 C1170 0.950 . S
H1163 C1172 0.950 . S
H1164 C1174 0.950 . S
H1165 C1176 0.950 . S
H1166 C1178 0.950 . S
H1167 C1179 0.950 . S
C1168 H1160 0.950 . S
C1168 C1169 1.386 . S
C1168 C1170 1.391 . S
C1169 C1168 1.386 . S
C1169 C1173 1.393 . S
C1170 H1162 0.950 . S
C1170 C1168 1.391 . S
C1170 C1171 1.400 . S
C1171 C1170 1.400 . S
C1171 C1172 1.398 . S
C1171 C1177 1.491 . S
C1172 H1163 0.950 . S
C1172 C1171 1.398 . S
C1172 C1173 1.391 . S
C1173 H1161 0.950 . S
C1173 C1169 1.393 . S
C1173 C1172 1.391 . S
C1174 H1164 0.950 . S
C1174 C1175 1.386 . S
C1174 C1176 1.391 . S
C1175 C1174 1.386 . S
C1175 C1179 1.393 . S
C1176 H1165 0.950 . S
C1176 C1174 1.391 . S
C1176 C1177 1.400 . S
C1177 C1171 1.491 . S
C1177 C1176 1.400 . S
C1177 C1178 1.398 . S
C1178 H1166 0.950 . S
C1178 C1177 1.398 . S
C1178 C1179 1.391 . S
C1179 H1167 0.950 . S
C1179 C1175 1.393 . S
C1179 C1178 1.391 . S
H1180 C1188 0.950 . S
H1181 C1193 0.950 . S
H1182 C1190 0.950 . S
H1183 C1192 0.950 . S
H1184 C1194 0.950 . S
H1185 C1196 0.950 . S
H1186 C1198 0.950 . S
H1187 C1199 0.950 . S
C1188 H1180 0.950 . S
C1188 C1189 1.386 . S
C1188 C1190 1.391 . S
C1189 C1188 1.386 . S
C1189 C1193 1.393 . S
C1190 H1182 0.950 . S
C1190 C1188 1.391 . S
C1190 C1191 1.400 . S
C1191 C1190 1.400 . S
C1191 C1192 1.398 . S
C1191 C1197 1.491 . S
C1192 H1183 0.950 . S
C1192 C1191 1.398 . S
C1192 C1193 1.391 . S
C1193 H1181 0.950 . S
C1193 C1189 1.393 . S
C1193 C1192 1.391 . S
C1194 H1184 0.950 . S
C1194 C1195 1.386 . S
C1194 C1196 1.391 . S
C1195 C1194 1.386 . S
C1195 C1199 1.393 . S
C1196 H1185 0.950 . S
C1196 C1194 1.391 . S
C1196 C1197 1.400 . S
C1197 C1191 1.491 . S
C1197 C1196 1.400 . S
C1197 C1198 1.398 . S
C1198 H1186 0.950 . S
C1198 C1197 1.398 . S
C1198 C1199 1.391 . S
C1199 H1187 0.950 . S
C1199 C1195 1.393 . S
C1199 C1198 1.391 . S
H1200 C1208 0.950 . S
H1201 C1213 0.950 . S
H1202 C1210 0.950 . S
H1203 C1212 0.950 . S
H1204 C1214 0.950 . S
H1205 C1216 0.950 . S
H1206 C1218 0.950 . S
H1207 C1219 0.950 . S
C1208 H1200 0.950 . S
C1208 C1209 1.386 . S
C1208 C1210 1.391 . S
C1209 C1208 1.386 . S
C1209 C1213 1.393 . S
C1210 H1202 0.950 . S
C1210 C1208 1.391 . S
C1210 C1211 1.400 . S
C1211 C1210 1.400 . S
C1211 C1212 1.398 . S
C1211 C1217 1.491 . S
C1212 H1203 0.950 . S
C1212 C1211 1.398 . S
C1212 C1213 1.391 . S
C1213 H1201 0.950 . S
C1213 C1209 1.393 . S
C1213 C1212 1.391 . S
C1214 H1204 0.950 . S
C1214 C1215 1.386 . S
C1214 C1216 1.391 . S
C1215 C1214 1.386 . S
C1215 C1219 1.393 . S
C1216 H1205 0.950 . S
C1216 C1214 1.391 . S
C1216 C1217 1.400 . S
C1217 C1211 1.491 . S
C1217 C1216 1.400 . S
C1217 C1218 1.398 . S
C1218 H1206 0.950 . S
C1218 C1217 1.398 . S
C1218 C1219 1.391 . S
C1219 H1207 0.950 . S
C1219 C1215 1.393 . S
C1219 C1218 1.391 . S
H1220 C1228 0.950 . S
H1221 C1233 0.950 . S
H1222 C1230 0.950 . S
H1223 C1232 0.950 . S
H1224 C1234 0.950 . S
H1225 C1236 0.950 . S
H1226 C1238 0.950 . S
H1227 C1239 0.950 . S
C1228 H1220 0.950 . S
C1228 C1229 1.386 . S
C1228 C1230 1.391 . S
C1229 C1228 1.386 . S
C1229 C1233 1.393 . S
C1230 H1222 0.950 . S
C1230 C1228 1.391 . S
C1230 C1231 1.400 . S
C1231 C1230 1.400 . S
C1231 C1232 1.398 . S
C1231 C1237 1.491 . S
C1232 H1223 0.950 . S
C1232 C1231 1.398 . S
C1232 C1233 1.391 . S
C1233 H1221 0.950 . S
C1233 C1229 1.393 . S
C1233 C1232 1.391 . S
C1234 H1224 0.950 . S
C1234 C1235 1.386 . S
C1234 C1236 1.391 . S
C1235 C1234 1.386 . S
C1235 C1239 1.393 . S
C1236 H1225 0.950 . S
C1236 C1234 1.391 . S
C1236 C1237 1.400 . S
C1237 C1231 1.491 . S
C1237 C1236 1.400 . S
C1237 C1238 1.398 . S
C1238 H1226 0.950 . S
C1238 C1237 1.398 . S
C1238 C1239 1.391 . S
C1239 H1227 0.950 . S
C1239 C1235 1.393 . S
C1239 C1238 1.391 . S
H1240 C1248 0.950 . S
H1241 C1253 0.950 . S
H1242 C1250 0.950 . S
H1243 C1252 0.950 . S
H1244 C1254 0.950 . S
H1245 C1256 0.950 . S
H1246 C1258 0.950 . S
H1247 C1259 0.950 . S
C1248 H1240 0.950 . S
C1248 C1249 1.386 . S
C1248 C1250 1.391 . S
C1249 C1248 1.386 . S
C1249 C1253 1.393 . S
C1250 H1242 0.950 . S
C1250 C1248 1.391 . S
C1250 C1251 1.400 . S
C1251 C1250 1.400 . S
C1251 C1252 1.398 . S
C1251 C1257 1.491 . S
C1252 H1243 0.950 . S
C1252 C1251 1.398 . S
C1252 C1253 1.391 . S
C1253 H1241 0.950 . S
C1253 C1249 1.393 . S
C1253 C1252 1.391 . S
C1254 H1244 0.950 . S
C1254 C1255 1.386 . S
C1254 C1256 1.391 . S
C1255 C1254 1.386 . S
C1255 C1259 1.393 . S
C1256 H1245 0.950 . S
C1256 C1254 1.391 . S
C1256 C1257 1.400 . S
C1257 C1251 1.491 . S
C1257 C1256 1.400 . S
C1257 C1258 1.398 . S
C1258 H1246 0.950 . S
C1258 C1257 1.398 . S
C1258 C1259 1.391 . S
C1259 H1247 0.950 . S
C1259 C1255 1.393 . S
C1259 C1258 1.391 . S
H1260 C1268 0.950 . S
H1261 C1273 0.950 . S
H1262 C1270 0.950 . S
H1263 C1272 0.950 . S
H1264 C1274 0.950 . S
H1265 C1276 0.950 . S
H1266 C1278 0.950 . S
H1267 C1279 0.950 . S
C1268 H1260 0.950 . S
C1268 C1269 1.386 . S
C1268 C1270 1.391 . S
C1269 C1268 1.386 . S
C1269 C1273 1.393 . S
C1270 H1262 0.950 . S
C1270 C1268 1.391 . S
C1270 C1271 1.400 . S
C1271 C1270 1.400 . S
C1271 C1272 1.398 . S
C1271 C1277 1.491 . S
C1272 H1263 0.950 . S
C1272 C1271 1.398 . S
C1272 C1273 1.391 . S
C1273 H1261 0.950 . S
C1273 C1269 1.393 . S
C1273 C1272 1.391 . S
C1274 H1264 0.950 . S
C1274 C1275 1.386 . S
C1274 C1276 1.391 . S
C1275 C1274 1.386 . S
C1275 C1279 1.393 . S
C1276 H1265 0.950 . S
C1276 C1274 1.391 . S
C1276 C1277 1.400 . S
C1277 C1271 1.491 . S
C1277 C1276 1.400 . S
C1277 C1278 1.398 . S
C1278 H1266 0.950 . S
C1278 C1277 1.398 . S
C1278 C1279 1.391 . S
C1279 H1267 0.950 . S
C1279 C1275 1.393 . S
C1279 C1278 1.391 . S
H1280 C1288 0.950 . S
H1281 C1293 0.950 . S
H1282 C1290 0.950 . S
H1283 C1292 0.950 . S
H1284 C1294 0.950 . S
H1285 C1296 0.950 . S
H1286 C1298 0.950 . S
H1287 C1299 0.950 . S
C1288 H1280 0.950 . S
C1288 C1289 1.386 . S
C1288 C1290 1.391 . S
C1289 C1288 1.386 . S
C1289 C1293 1.393 . S
C1290 H1282 0.950 . S
C1290 C1288 1.391 . S
C1290 C1291 1.400 . S
C1291 C1290 1.400 . S
C1291 C1292 1.398 . S
C1291 C1297 1.491 . S
C1292 H1283 0.950 . S
C1292 C1291 1.398 . S
C1292 C1293 1.391 . S
C1293 H1281 0.950 . S
C1293 C1289 1.393 . S
C1293 C1292 1.391 . S
C1294 H1284 0.950 . S
C1294 C1295 1.386 . S
C1294 C1296 1.391 . S
C1295 C1294 1.386 . S
C1295 C1299 1.393 . S
C1296 H1285 0.950 . S
C1296 C1294 1.391 . S
C1296 C1297 1.400 . S
C1297 C1291 1.491 . S
C1297 C1296 1.400 . S
C1297 C1298 1.398 . S
C1298 H1286 0.950 . S
C1298 C1297 1.398 . S
C1298 C1299 1.391 . S
C1299 H1287 0.950 . S
C1299 C1295 1.393 . S
C1299 C1298 1.391 . S
H1300 C1308 0.950 . S
H1301 C1313 0.950 . S
H1302 C1310 0.950 . S
H1303 C1312 0.950 . S
H1304 C1314 0.950 . S
H1305 C1316 0.950 . S
H1306 C1318 0.950 . S
H1307 C1319 0.950 . S
C1308 H1300 0.950 . S
C1308 C1309 1.386 . S
C1308 C1310 1.391 . S
C1309 C1308 1.386 . S
C1309 C1313 1.393 . S
C1310 H1302 0.950 . S
C1310 C1308 1.391 . S
C1310 C1311 1.400 . S
C1311 C1310 1.400 . S
C1311 C1312 1.398 . S
C1311 C1317 1.491 . S
C1312 H1303 0.950 . S
C1312 C1311 1.398 . S
C1312 C1313 1.391 . S
C1313 H1301 0.950 . S
C1313 C1309 1.393 . S
C1313 C1312 1.391 . S
C1314 H1304 0.950 . S
C1314 C1315 1.386 . S
C1314 C1316 1.391 . S
C1315 C1314 1.386 . S
C1315 C1319 1.393 . S
C1316 H1305 0.950 . S
C1316 C1314 1.391 . S
C1316 C1317 1.400 . S
C1317 C1311 1.491 . S
C1317 C1316 1.400 . S
C1317 C1318 1.398 . S
C1318 H1306 0.950 . S
C1318 C1317 1.398 . S
C1318 C1319 1.391 . S
C1319 H1307 0.950 . S
C1319 C1315 1.393 . S
C1319 C1318 1.391 . S
H1320 C1328 0.950 . S
H1321 C1333 0.950 . S
H1322 C1330 0.950 . S
H1323 C1332 0.950 . S
H1324 C1334 0.950 . S
H1325 C1336 0.950 . S
H1326 C1338 0.950 . S
H1327 C1339 0.950 . S
C1328 H1320 0.950 . S
C1328 C1329 1.386 . S
C1328 C1330 1.391 . S
C1329 C1328 1.386 . S
C1329 C1333 1.393 . S
C1330 H1322 0.950 . S
C1330 C1328 1.391 . S
C1330 C1331 1.400 . S
C1331 C1330 1.400 . S
C1331 C1332 1.398 . S
C1331 C1337 1.491 . S
C1332 H1323 0.950 . S
C1332 C1331 1.398 . S
C1332 C1333 1.391 . S
C1333 H1321 0.950 . S
C1333 C1329 1.393 . S
C1333 C1332 1.391 . S
C1334 H1324 0.950 . S
C1334 C1335 1.386 . S
C1334 C1336 1.391 . S
C1335 C1334 1.386 . S
C1335 C1339 1.393 . S
C1336 H1325 0.950 . S
C1336 C1334 1.391 . S
C1336 C1337 1.400 . S
C1337 C1331 1.491 . S
C1337 C1336 1.400 . S
C1337 C1338 1.398 . S
C1338 H1326 0.950 . S
C1338 C1337 1.398 . S
C1338 C1339 1.391 . S
C1339 H1327 0.950 . S
C1339 C1335 1.393 . S
C1339 C1338 1.391 . S
H1340 C1348 0.950 . S
H1341 C1353 0.950 . S
H1342 C1350 0.950 . S
H1343 C1352 0.950 . S
H1344 C1354 0.950 . S
H1345 C1356 0.950 . S
H1346 C1358 0.950 . S
H1347 C1359 0.950 . S
C1348 H1340 0.950 . S
C1348 C1349 1.386 . S
C1348 C1350 1.391 . S
C1349 C1348 1.386 . S
C1349 C1353 1.393 . S
C1350 H1342 0.950 . S
C1350 C1348 1.391 . S
C1350 C1351 1.400 . S
C1351 C1350 1.400 . S
C1351 C1352 1.398 . S
C1351 C1357 1.491 . S
C1352 H1343 0.950 . S
C1352 C1351 1.398 . S
C1352 C1353 1.391 . S
C1353 H1341 0.950 . S
C1353 C1349 1.393 . S
C1353 C1352 1.391 . S
C1354 H1344 0.950 . S
C1354 C1355 1.386 . S
C1354 C1356 1.391 . S
C1355 C1354 1.386 . S
C1355 C1359 1.393 . S
C1356 H1345 0.950 . S
C1356 C1354 1.391 . S
C1356 C1357 1.400 . S
C1357 C1351 1.491 . S
C1357 C1356 1.400 . S
C1357 C1358 1.398 . S
C1358 H1346 0.950 . S
C1358 C1357 1.398 . S
C1358 C1359 1.391 . S
C1359 H1347 0.950 . S
C1359 C1355 1.393 . S
C1359 C1358 1.391 . S
H1360 C1368 0.950 . S
H1361 C1373 0.950 . S
H1362 C1370 0.950 . S
H1363 C1372 0.950 . S
H1364 C1374 0.950 . S
H1365 C1376 0.950 . S
H1366 C1378 0.950 . S
H1367 C1379 0.950 . S
C1368 H1360 0.950 . S
C1368 C1369 1.386 . S
C1368 C1370 1.391 . S
C1369 C1368 1.386 . S
C1369 C1373 1.393 . S
C1370 H1362 0.950 . S
C1370 C1368 1.391 . S
C1370 C1371 1.400 . S
C1371 C1370 1.400 . S
C1371 C1372 1.398 . S
C1371 C1377 1.491 . S
C1372 H1363 0.950 . S
C1372 C1371 1.398 . S
C1372 C1373 1.391 . S
C1373 H1361 0.950 . S
C1373 C1369 1.393 . S
C1373 C1372 1.391 . S
C1374 H1364 0.950 . S
C1374 C1375 1.386 . S
C1374 C1376 1.391 . S
C1375 C1374 1.386 . S
C1375 C1379 1.393 . S
C1376 H1365 0.950 . S
C1376 C1374 1.391 . S
C1376 C1377 1.400 . S
C1377 C1371 1.491 . S
C1377 C1376 1.400 . S
C1377 C1378 1.398 . S
C1378 H1366 0.950 . S
C1378 C1377 1.398 . S
C1378 C1379 1.391 . S
C1379 H1367 0.950 . S
C1379 C1375 1.393 . S
C1379 C1378 1.391 . S
H1380 C1388 0.950 . S
H1381 C1393 0.950 . S
H1382 C1390 0.950 . S
H1383 C1392 0.950 . S
H1384 C1394 0.950 . S
H1385 C1396 0.950 . S
H1386 C1398 0.950 . S
H1387 C1399 0.950 . S
C1388 H1380 0.950 . S
C1388 C1389 1.386 . S
C1388 C1390 1.391 . S
C1389 C1388 1.386 . S
C1389 C1393 1.393 . S
C1390 H1382 0.950 . S
C1390 C1388 1.391 . S
C1390 C1391 1.400 . S
C1391 C1390 1.400 . S
C1391 C1392 1.398 . S
C1391 C1397 1.491 . S
C1392 H1383 0.950 . S
C1392 C1391 1.398 . S
C1392 C1393 1.391 . S
C1393 H1381 0.950 . S
C1393 C1389 1.393 . S
C1393 C1392 1.391 . S
C1394 H1384 0.950 . S
C1394 C1395 1.386 . S
C1394 C1396 1.391 . S
C1395 C1394 1.386 . S
C1395 C1399 1.393 . S
C1396 H1385 0.950 . S
C1396 C1394 1.391 . S
C1396 C1397 1.400 . S
C1397 C1391 1.491 . S
C1397 C1396 1.400 . S
C1397 C1398 1.398 . S
C1398 H1386 0.950 . S
C1398 C1397 1.398 . S
C1398 C1399 1.391 . S
C1399 H1387 0.950 . S
C1399 C1395 1.393 . S
C1399 C1398 1.391 . S
H1400 C1408 0.950 . S
H1401 C1413 0.950 . S
H1402 C1410 0.950 . S
H1403 C1412 0.950 . S
H1404 C1414 0.950 . S
H1405 C1416 0.950 . S
H1406 C1418 0.950 . S
H1407 C1419 0.950 . S
C1408 H1400 0.950 . S
C1408 C1409 1.386 . S
C1408 C1410 1.391 . S
C1409 C1408 1.386 . S
C1409 C1413 1.393 . S
C1410 H1402 0.950 . S
C1410 C1408 1.391 . S
C1410 C1411 1.400 . S
C1411 C1410 1.400 . S
C1411 C1412 1.398 . S
C1411 C1417 1.491 . S
C1412 H1403 0.950 . S
C1412 C1411 1.398 . S
C1412 C1413 1.391 . S
C1413 H1401 0.950 . S
C1413 C1409 1.393 . S
C1413 C1412 1.391 . S
C1414 H1404 0.950 . S
C1414 C1415 1.386 . S
C1414 C1416 1.391 . S
C1415 C1414 1.386 . S
C1415 C1419 1.393 . S
C1416 H1405 0.950 . S
C1416 C1414 1.391 . S
C1416 C1417 1.400 . S
C1417 C1411 1.491 . S
C1417 C1416 1.400 . S
C1417 C1418 1.398 . S
C1418 H1406 0.950 . S
C1418 C1417 1.398 . S
C1418 C1419 1.391 . S
C1419 H1407 0.950 . S
C1419 C1415 1.393 . S
C1419 C1418 1.391 . S
H1420 C1428 0.950 . S
H1421 C1433 0.950 . S
H1422 C1430 0.950 . S
H1423 C1432 0.950 . S
H1424 C1434 0.950 . S
H1425 C1436 0.950 . S
H1426 C1438 0.950 . S
H1427 C1439 0.950 . S
C1428 H1420 0.950 . S
C1428 C1429 1.386 . S
C1428 C1430 1.391 . S
C1429 C1428 1.386 . S
C1429 C1433 1.393 . S
C1430 H1422 0.950 . S
C1430 C1428 1.391 . S
C1430 C1431 1.400 . S
C1431 C1430 1.400 . S
C1431 C1432 1.398 . S
C1431 C1437 1.491 . S
C1432 H1423 0.950 . S
C1432 C1431 1.398 . S
C1432 C1433 1.391 . S
C1433 H1421 0.950 . S
C1433 C1429 1.393 . S
C1433 C1432 1.391 . S
C1434 H1424 0.950 . S
C1434 C1435 1.386 . S
C1434 C1436 1.391 . S
C1435 C1434 1.386 . S
C1435 C1439 1.393 . S
C1436 H1425 0.950 . S
C1436 C1434 1.391 . S
C1436 C1437 1.400 . S
C1437 C1431 1.491 . S
C1437 C1436 1.400 . S
C1437 C1438 1.398 . S
C1438 H1426 0.950 . S
C1438 C1437 1.398 . S
C1438 C1439 1.391 . S
C1439 H1427 0.950 . S
C1439 C1435 1.393 . S
C1439 C1438 1.391 . S
H1440 C1448 0.950 . S
H1441 C1453 0.950 . S
H1442 C1450 0.950 . S
H1443 C1452 0.950 . S
H1444 C1454 0.950 . S
H1445 C1456 0.950 . S
H1446 C1458 0.950 . S
H1447 C1459 0.950 . S
C1448 H1440 0.950 . S
C1448 C1449 1.386 . S
C1448 C1450 1.391 . S
C1449 C1448 1.386 . S
C1449 C1453 1.393 . S
C1450 H1442 0.950 . S
C1450 C1448 1.391 . S
C1450 C1451 1.400 . S
C1451 C1450 1.400 . S
C1451 C1452 1.398 . S
C1451 C1457 1.491 . S
C1452 H1443 0.950 . S
C1452 C1451 1.398 . S
C1452 C1453 1.391 . S
C1453 H1441 0.950 . S
C1453 C1449 1.393 . S
C1453 C1452 1.391 . S
C1454 H1444 0.950 . S
C1454 C1455 1.386 . S
C1454 C1456 1.391 . S
C1455 C1454 1.386 . S
C1455 C1459 1.393 . S
C1456 H1445 0.950 . S
C1456 C1454 1.391 . S
C1456 C1457 1.400 . S
C1457 C1451 1.491 . S
C1457 C1456 1.400 . S
C1457 C1458 1.398 . S
C1458 H1446 0.950 . S
C1458 C1457 1.398 . S
C1458 C1459 1.391 . S
C1459 H1447 0.950 . S
C1459 C1455 1.393 . S
C1459 C1458 1.391 . S
H1460 C1468 0.950 . S
H1461 C1473 0.950 . S
H1462 C1470 0.950 . S
H1463 C1472 0.950 . S
H1464 C1474 0.950 . S
H1465 C1476 0.950 . S
H1466 C1478 0.950 . S
H1467 C1479 0.950 . S
C1468 H1460 0.950 . S
C1468 C1469 1.386 . S
C1468 C1470 1.391 . S
C1469 C1468 1.386 . S
C1469 C1473 1.393 . S
C1470 H1462 0.950 . S
C1470 C1468 1.391 . S
C1470 C1471 1.400 . S
C1471 C1470 1.400 . S
C1471 C1472 1.398 . S
C1471 C1477 1.491 . S
C1472 H1463 0.950 . S
C1472 C1471 1.398 . S
C1472 C1473 1.391 . S
C1473 H1461 0.950 . S
C1473 C1469 1.393 . S
C1473 C1472 1.391 . S
C1474 H1464 0.950 . S
C1474 C1475 1.386 . S
C1474 C1476 1.391 . S
C1475 C1474 1.386 . S
C1475 C1479 1.393 . S
C1476 H1465 0.950 . S
C1476 C1474 1.391 . S
C1476 C1477 1.400 . S
C1477 C1471 1.491 . S
C1477 C1476 1.400 . S
C1477 C1478 1.398 . S
C1478 H1466 0.950 . S
C1478 C1477 1.398 . S
C1478 C1479 1.391 . S
C1479 H1467 0.950 . S
C1479 C1475 1.393 . S
C1479 C1478 1.391 . S
H1480 C1488 0.950 . S
H1481 C1493 0.950 . S
H1482 C1490 0.950 . S
H1483 C1492 0.950 . S
H1484 C1494 0.950 . S
H1485 C1496 0.950 . S
H1486 C1498 0.950 . S
H1487 C1499 0.950 . S
C1488 H1480 0.950 . S
C1488 C1489 1.386 . S
C1488 C1490 1.391 . S
C1489 C1488 1.386 . S
C1489 C1493 1.393 . S
C1490 H1482 0.950 . S
C1490 C1488 1.391 . S
C1490 C1491 1.400 . S
C1491 C1490 1.400 . S
C1491 C1492 1.398 . S
C1491 C1497 1.491 . S
C1492 H1483 0.950 . S
C1492 C1491 1.398 . S
C1492 C1493 1.391 . S
C1493 H1481 0.950 . S
C1493 C1489 1.393 . S
C1493 C1492 1.391 . S
C1494 H1484 0.950 . S
C1494 C1495 1.386 . S
C1494 C1496 1.391 . S
C1495 C1494 1.386 . S
C1495 C1499 1.393 . S
C1496 H1485 0.950 . S
C1496 C1494 1.391 . S
C1496 C1497 1.400 . S
C1497 C1491 1.491 . S
C1497 C1496 1.400 . S
C1497 C1498 1.398 . S
C1498 H1486 0.950 . S
C1498 C1497 1.398 . S
C1498 C1499 1.391 . S
C1499 H1487 0.950 . S
C1499 C1495 1.393 . S
C1499 C1498 1.391 . S
H1500 C1508 0.950 . S
H1501 C1513 0.950 . S
H1502 C1510 0.950 . S
H1503 C1512 0.950 . S
H1504 C1514 0.950 . S
H1505 C1516 0.950 . S
H1506 C1518 0.950 . S
H1507 C1519 0.950 . S
C1508 H1500 0.950 . S
C1508 C1509 1.386 . S
C1508 C1510 1.391 . S
C1509 C1508 1.386 . S
C1509 C1513 1.393 . S
C1510 H1502 0.950 . S
C1510 C1508 1.391 . S
C1510 C1511 1.400 . S
C1511 C1510 1.400 . S
C1511 C1512 1.398 . S
C1511 C1517 1.491 . S
C1512 H1503 0.950 . S
C1512 C1511 1.398 . S
C1512 C1513 1.391 . S
C1513 H1501 0.950 . S
C1513 C1509 1.393 . S
C1513 C1512 1.391 . S
C1514 H1504 0.950 . S
C1514 C1515 1.386 . S
C1514 C1516 1.391 . S
C1515 C1514 1.386 . S
C1515 C1519 1.393 . S
C1516 H1505 0.950 . S
C1516 C1514 1.391 . S
C1516 C1517 1.400 . S
C1517 C1511 1.491 . S
C1517 C1516 1.400 . S
C1517 C1518 1.398 . S
C1518 H1506 0.950 . S
C1518 C1517 1.398 . S
C1518 C1519 1.391 . S
C1519 H1507 0.950 . S
C1519 C1515 1.393 . S
C1519 C1518 1.391 . S
H1520 C1528 0.950 . S
H1521 C1533 0.950 . S
H1522 C1530 0.950 . S
H1523 C1532 0.950 . S
H1524 C1534 0.950 . S
H1525 C1536 0.950 . S
H1526 C1538 0.950 . S
H1527 C1539 0.950 . S
C1528 H1520 0.950 . S
C1528 C1529 1.386 . S
C1528 C1530 1.391 . S
C1529 C1528 1.386 . S
C1529 C1533 1.393 . S
C1530 H1522 0.950 . S
C1530 C1528 1.391 . S
C1530 C1531 1.400 . S
C1531 C1530 1.400 . S
C1531 C1532 1.398 . S
C1531 C1537 1.491 . S
C1532 H1523 0.950 . S
C1532 C1531 1.398 . S
C1532 C1533 1.391 . S
C1533 H1521 0.950 . S
C1533 C1529 1.393 . S
C1533 C1532 1.391 . S
C1534 H1524 0.950 . S
C1534 C1535 1.386 . S
C1534 C1536 1.391 . S
C1535 C1534 1.386 . S
C1535 C1539 1.393 . S
C1536 H1525 0.950 . S
C1536 C1534 1.391 . S
C1536 C1537 1.400 . S
C1537 C1531 1.491 . S
C1537 C1536 1.400 . S
C1537 C1538 1.398 . S
C1538 H1526 0.950 . S
C1538 C1537 1.398 . S
C1538 C1539 1.391 . S
C1539 H1527 0.950 . S
C1539 C1535 1.393 . S
C1539 C1538 1.391 . S
H1540 C1548 0.950 . S
H1541 C1553 0.950 . S
H1542 C1550 0.950 . S
H1543 C1552 0.950 . S
H1544 C1554 0.950 . S
H1545 C1556 0.950 . S
H1546 C1558 0.950 . S
H1547 C1559 0.950 . S
C1548 H1540 0.950 . S
C1548 C1549 1.386 . S
C1548 C1550 1.391 . S
C1549 C1548 1.386 . S
C1549 C1553 1.393 . S
C1550 H1542 0.950 . S
C1550 C1548 1.391 . S
C1550 C1551 1.400 . S
C1551 C1550 1.400 . S
C1551 C1552 1.398 . S
C1551 C1557 1.491 . S
C1552 H1543 0.950 . S
C1552 C1551 1.398 . S
C1552 C1553 1.391 . S
C1553 H1541 0.950 . S
C1553 C1549 1.393 . S
C1553 C1552 1.391 . S
C1554 H1544 0.950 . S
C1554 C1555 1.386 . S
C1554 C1556 1.391 . S
C1555 C1554 1.386 . S
C1555 C1559 1.393 . S
C1556 H1545 0.950 . S
C1556 C1554 1.391 . S
C1556 C1557 1.400 . S
C1557 C1551 1.491 . S
C1557 C1556 1.400 . S
C1557 C1558 1.398 . S
C1558 H1546 0.950 . S
C1558 C1557 1.398 . S
C1558 C1559 1.391 . S
C1559 H1547 0.950 . S
C1559 C1555 1.393 . S
C1559 C1558 1.391 . S
H1560 C1568 0.950 . S
H1561 C1573 0.950 . S
H1562 C1570 0.950 . S
H1563 C1572 0.950 . S
H1564 C1574 0.950 . S
H1565 C1576 0.950 . S
H1566 C1578 0.950 . S
H1567 C1579 0.950 . S
C1568 H1560 0.950 . S
C1568 C1569 1.386 . S
C1568 C1570 1.391 . S
C1569 C1568 1.386 . S
C1569 C1573 1.393 . S
C1570 H1562 0.950 . S
C1570 C1568 1.391 . S
C1570 C1571 1.400 . S
C1571 C1570 1.400 . S
C1571 C1572 1.398 . S
C1571 C1577 1.491 . S
C1572 H1563 0.950 . S
C1572 C1571 1.398 . S
C1572 C1573 1.391 . S
C1573 H1561 0.950 . S
C1573 C1569 1.393 . S
C1573 C1572 1.391 . S
C1574 H1564 0.950 . S
C1574 C1575 1.386 . S
C1574 C1576 1.391 . S
C1575 C1574 1.386 . S
C1575 C1579 1.393 . S
C1576 H1565 0.950 . S
C1576 C1574 1.391 . S
C1576 C1577 1.400 . S
C1577 C1571 1.491 . S
C1577 C1576 1.400 . S
C1577 C1578 1.398 . S
C1578 H1566 0.950 . S
C1578 C1577 1.398 . S
C1578 C1579 1.391 . S
C1579 H1567 0.950 . S
C1579 C1575 1.393 . S
C1579 C1578 1.391 . S
H1580 C1588 0.950 . S
H1581 C1593 0.950 . S
H1582 C1590 0.950 . S
H1583 C1592 0.950 . S
H1584 C1594 0.950 . S
H1585 C1596 0.950 . S
H1586 C1598 0.950 . S
H1587 C1599 0.950 . S
C1588 H1580 0.950 . S
C1588 C1589 1.386 . S
C1588 C1590 1.391 . S
C1589 C1588 1.386 . S
C1589 C1593 1.393 . S
C1590 H1582 0.950 . S
C1590 C1588 1.391 . S
C1590 C1591 1.400 . S
C1591 C1590 1.400 . S
C1591 C1592 1.398 . S
C1591 C1597 1.491 . S
C1592 H1583 0.950 . S
C1592 C1591 1.398 . S
C1592 C1593 1.391 . S
C1593 H1581 0.950 . S
C1593 C1589 1.393 . S
C1593 C1592 1.391 . S
C1594 H1584 0.950 . S
C1594 C1595 1.386 . S
C1594 C1596 1.391 . S
C1595 C1594 1.386 . S
C1595 C1599 1.393 . S
C1596 H1585 0.950 . S
C1596 C1594 1.391 . S
C1596 C1597 1.400 . S
C1597 C1591 1.491 . S
C1597 C1596 1.400 . S
C1597 C1598 1.398 . S
C1598 H1586 0.950 . S
C1598 C1597 1.398 . S
C1598 C1599 1.391 . S
C1599 H1587 0.950 . S
C1599 C1595 1.393 . S
C1599 C1598 1.391 . S
H1600 C1608 0.950 . S
H1601 C1613 0.950 . S
H1602 C1610 0.950 . S
H1603 C1612 0.950 . S
H1604 C1614 0.950 . S
H1605 C1616 0.950 . S
H1606 C1618 0.950 . S
H1607 C1619 0.950 . S
C1608 H1600 0.950 . S
C1608 C1609 1.386 . S
C1608 C1610 1.391 . S
C1609 C1608 1.386 . S
C1609 C1613 1.393 . S
C1610 H1602 0.950 . S
C1610 C1608 1.391 . S
C1610 C1611 1.400 . S
C1611 C1610 1.400 . S
C1611 C1612 1.398 . S
C1611 C1617 1.491 . S
C1612 H1603 0.950 . S
C1612 C1611 1.398 . S
C1612 C1613 1.391 . S
C1613 H1601 0.950 . S
C1613 C1609 1.393 . S
C1613 C1612 1.391 . S
C1614 H1604 0.950 . S
C1614 C1615 1.386 . S
C1614 C1616 1.391 . S
C1615 C1614 1.386 . S
C1615 C1619 1.393 . S
C1616 H1605 0.950 . S
C1616 C1614 1.391 . S
C1616 C1617 1.400 . S
C1617 C1611 1.491 . S
C1617 C1616 1.400 . S
C1617 C1618 1.398 . S
C1618 H1606 0.950 . S
C1618 C1617 1.398 . S
C1618 C1619 1.391 . S
C1619 H1607 0.950 . S
C1619 C1615 1.393 . S
C1619 C1618 1.391 . S
H1620 C1628 0.950 . S
H1621 C1633 0.950 . S
H1622 C1630 0.950 . S
H1623 C1632 0.950 . S
H1624 C1634 0.950 . S
H1625 C1636 0.950 . S
H1626 C1638 0.950 . S
H1627 C1639 0.950 . S
C1628 H1620 0.950 . S
C1628 C1629 1.386 . S
C1628 C1630 1.391 . S
C1629 C1628 1.386 . S
C1629 C1633 1.393 . S
C1630 H1622 0.950 . S
C1630 C1628 1.391 . S
C1630 C1631 1.400 . S
C1631 C1630 1.400 . S
C1631 C1632 1.398 . S
C1631 C1637 1.491 . S
C1632 H1623 0.950 . S
C1632 C1631 1.398 . S
C1632 C1633 1.391 . S
C1633 H1621 0.950 . S
C1633 C1629 1.393 . S
C1633 C1632 1.391 . S
C1634 H1624 0.950 . S
C1634 C1635 1.386 . S
C1634 C1636 1.391 . S
C1635 C1634 1.386 . S
C1635 C1639 1.393 . S
C1636 H1625 0.950 . S
C1636 C1634 1.391 . S
C1636 C1637 1.400 . S
C1637 C1631 1.491 . S
C1637 C1636 1.400 . S
C1637 C1638 1.398 . S
C1638 H1626 0.950 . S
C1638 C1637 1.398 . S
C1638 C1639 1.391 . S
C1639 H1627 0.950 . S
C1639 C1635 1.393 . S
C1639 C1638 1.391 . S
H1640 C1648 0.950 . S
H1641 C1653 0.950 . S
H1642 C1650 0.950 . S
H1643 C1652 0.950 . S
H1644 C1654 0.950 . S
H1645 C1656 0.950 . S
H1646 C1658 0.950 . S
H1647 C1659 0.950 . S
C1648 H1640 0.950 . S
C1648 C1649 1.386 . S
C1648 C1650 1.391 . S
C1649 C1648 1.386 . S
C1649 C1653 1.393 . S
C1650 H1642 0.950 . S
C1650 C1648 1.391 . S
C1650 C1651 1.400 . S
C1651 C1650 1.400 . S
C1651 C1652 1.398 . S
C1651 C1657 1.491 . S
C1652 H1643 0.950 . S
C1652 C1651 1.398 . S
C1652 C1653 1.391 . S
C1653 H1641 0.950 . S
C1653 C1649 1.393 . S
C1653 C1652 1.391 . S
C1654 H1644 0.950 . S
C1654 C1655 1.386 . S
C1654 C1656 1.391 . S
C1655 C1654 1.386 . S
C1655 C1659 1.393 . S
C1656 H1645 0.950 . S
C1656 C1654 1.391 . S
C1656 C1657 1.400 . S
C1657 C1651 1.491 . S
C1657 C1656 1.400 . S
C1657 C1658 1.398 . S
C1658 H1646 0.950 . S
C1658 C1657 1.398 . S
C1658 C1659 1.391 . S
C1659 H1647 0.950 . S
C1659 C1655 1.393 . S
C1659 C1658 1.391 . S
H1660 C1668 0.950 . S
H1661 C1673 0.950 . S
H1662 C1670 0.950 . S
H1663 C1672 0.950 . S
H1664 C1674 0.950 . S
H1665 C1676 0.950 . S
H1666 C1678 0.950 . S
H1667 C1679 0.950 . S
C1668 H1660 0.950 . S
C1668 C1669 1.386 . S
C1668 C1670 1.391 . S
C1669 C1668 1.386 . S
C1669 C1673 1.393 . S
C1670 H1662 0.950 . S
C1670 C1668 1.391 . S
C1670 C1671 1.400 . S
C1671 C1670 1.400 . S
C1671 C1672 1.398 . S
C1671 C1677 1.491 . S
C1672 H1663 0.950 . S
C1672 C1671 1.398 . S
C1672 C1673 1.391 . S
C1673 H1661 0.950 . S
C1673 C1669 1.393 . S
C1673 C1672 1.391 . S
C1674 H1664 0.950 . S
C1674 C1675 1.386 . S
C1674 C1676 1.391 . S
C1675 C1674 1.386 . S
C1675 C1679 1.393 . S
C1676 H1665 0.950 . S
C1676 C1674 1.391 . S
C1676 C1677 1.400 . S
C1677 C1671 1.491 . S
C1677 C1676 1.400 . S
C1677 C1678 1.398 . S
C1678 H1666 0.950 . S
C1678 C1677 1.398 . S
C1678 C1679 1.391 . S
C1679 H1667 0.950 . S
C1679 C1675 1.393 . S
C1679 C1678 1.391 . S
H1680 C1688 0.950 . S
H1681 C1693 0.950 . S
H1682 C1690 0.950 . S
H1683 C1692 0.950 . S
H1684 C1694 0.950 . S
H1685 C1696 0.950 . S
H1686 C1698 0.950 . S
H1687 C1699 0.950 . S
C1688 H1680 0.950 . S
C1688 C1689 1.386 . S
C1688 C1690 1.391 . S
C1689 C1688 1.386 . S
C1689 C1693 1.393 . S
C1690 H1682 0.950 . S
C1690 C1688 1.391 . S
C1690 C1691 1.400 . S
C1691 C1690 1.400 . S
C1691 C1692 1.398 . S
C1691 C1697 1.491 . S
C1692 H1683 0.950 . S
C1692 C1691 1.398 . S
C1692 C1693 1.391 . S
C1693 H1681 0.950 . S
C1693 C1689 1.393 . S
C1693 C1692 1.391 . S
C1694 H1684 0.950 . S
C1694 C1695 1.386 . S
C1694 C1696 1.391 . S
C1695 C1694 1.386 . S
C1695 C1699 1.393 . S
C1696 H1685 0.950 . S
C1696 C1694 1.391 . S
C1696 C1697 1.400 . S
C1697 C1691 1.491 . S
C1697 C1696 1.400 . S
C1697 C1698 1.398 . S
C1698 H1686 0.950 . S
C1698 C1697 1.398 . S
C1698 C1699 1.391 . S
C1699 H1687 0.950 . S
C1699 C1695 1.393 . S
C1699 C1698 1.391 . S
H1700 C1708 0.950 . S
H1701 C1713 0.950 . S
H1702 C1710 0.950 . S
H1703 C1712 0.950 . S
H1704 C1714 0.950 . S
H1705 C1716 0.950 . S
H1706 C1718 0.950 . S
H1707 C1719 0.950 . S
C1708 H1700 0.950 . S
C1708 C1709 1.386 . S
C1708 C1710 1.391 . S
C1709 C1708 1.386 . S
C1709 C1713 1.393 . S
C1710 H1702 0.950 . S
C1710 C1708 1.391 . S
C1710 C1711 1.400 . S
C1711 C1710 1.400 . S
C1711 C1712 1.398 . S
C1711 C1717 1.491 . S
C1712 H1703 0.950 . S
C1712 C1711 1.398 . S
C1712 C1713 1.391 . S
C1713 H1701 0.950 . S
C1713 C1709 1.393 . S
C1713 C1712 1.391 . S
C1714 H1704 0.950 . S
C1714 C1715 1.386 . S
C1714 C1716 1.391 . S
C1715 C1714 1.386 . S
C1715 C1719 1.393 . S
C1716 H1705 0.950 . S
C1716 C1714 1.391 . S
C1716 C1717 1.400 . S
C1717 C1711 1.491 . S
C1717 C1716 1.400 . S
C1717 C1718 1.398 . S
C1718 H1706 0.950 . S
C1718 C1717 1.398 . S
C1718 C1719 1.391 . S
C1719 H1707 0.950 . S
C1719 C1715 1.393 . S
C1719 C1718 1.391 . S
H1720 C1728 0.950 . S
H1721 C1733 0.950 . S
H1722 C1730 0.950 . S
H1723 C1732 0.950 . S
H1724 C1734 0.950 . S
H1725 C1736 0.950 . S
H1726 C1738 0.950 . S
H1727 C1739 0.950 . S
C1728 H1720 0.950 . S
C1728 C1729 1.386 . S
C1728 C1730 1.391 . S
C1729 C1728 1.386 . S
C1729 C1733 1.393 . S
C1730 H1722 0.950 . S
C1730 C1728 1.391 . S
C1730 C1731 1.400 . S
C1731 C1730 1.400 . S
C1731 C1732 1.398 . S
C1731 C1737 1.491 . S
C1732 H1723 0.950 . S
C1732 C1731 1.398 . S
C1732 C1733 1.391 . S
C1733 H1721 0.950 . S
C1733 C1729 1.393 . S
C1733 C1732 1.391 . S
C1734 H1724 0.950 . S
C1734 C1735 1.386 . S
C1734 C1736 1.391 . S
C1735 C1734 1.386 . S
C1735 C1739 1.393 . S
C1736 H1725 0.950 . S
C1736 C1734 1.391 . S
C1736 C1737 1.400 . S
C1737 C1731 1.491 . S
C1737 C1736 1.400 . S
C1737 C1738 1.398 . S
C1738 H1726 0.950 . S
C1738 C1737 1.398 . S
C1738 C1739 1.391 . S
C1739 H1727 0.950 . S
C1739 C1735 1.393 . S
C1739 C1738 1.391 . S
H1740 C1748 0.950 . S
H1741 C1753 0.950 . S
H1742 C1750 0.950 . S
H1743 C1752 0.950 . S
H1744 C1754 0.950 . S
H1745 C1756 0.950 . S
H1746 C1758 0.950 . S
H1747 C1759 0.950 . S
C1748 H1740 0.950 . S
C1748 C1749 1.386 . S
C1748 C1750 1.391 . S
C1749 C1748 1.386 . S
C1749 C1753 1.393 . S
C1750 H1742 0.950 . S
C1750 C1748 1.391 . S
C1750 C1751 1.400 . S
C1751 C1750 1.400 . S
C1751 C1752 1.398 . S
C1751 C1757 1.491 . S
C1752 H1743 0.950 . S
C1752 C1751 1.398 . S
C1752 C1753 1.391 . S
C1753 H1741 0.950 . S
C1753 C1749 1.393 . S
C1753 C1752 1.391 . S
C1754 H1744 0.950 . S
C1754 C1755 1.386 . S
C1754 C1756 1.391 . S
C1755 C1754 1.386 . S
C1755 C1759 1.393 . S
C1756 H1745 0.950 . S
C1756 C1754 1.391 . S
C1756 C1757 1.400 . S
C1757 C1751 1.491 . S
C1757 C1756 1.400 . S
C1757 C1758 1.398 . S
C1758 H1746 0.950 . S
C1758 C1757 1.398 . S
C1758 C1759 1.391 . S
C1759 H1747 0.950 . S
C1759 C1755 1.393 . S
C1759 C1758 1.391 . S
H1760 C1768 0.950 . S
H1761 C1773 0.950 . S
H1762 C1770 0.950 . S
H1763 C1772 0.950 . S
H1764 C1774 0.950 . S
H1765 C1776 0.950 . S
H1766 C1778 0.950 . S
H1767 C1779 0.950 . S
C1768 H1760 0.950 . S
C1768 C1769 1.386 . S
C1768 C1770 1.391 . S
C1769 C1768 1.386 . S
C1769 C1773 1.393 . S
C1770 H1762 0.950 . S
C1770 C1768 1.391 . S
C1770 C1771 1.400 . S
C1771 C1770 1.400 . S
C1771 C1772 1.398 . S
C1771 C1777 1.491 . S
C1772 H1763 0.950 . S
C1772 C1771 1.398 . S
C1772 C1773 1.391 . S
C1773 H1761 0.950 . S
C1773 C1769 1.393 . S
C1773 C1772 1.391 . S
C1774 H1764 0.950 . S
C1774 C1775 1.386 . S
C1774 C1776 1.391 . S
C1775 C1774 1.386 . S
C1775 C1779 1.393 . S
C1776 H1765 0.950 . S
C1776 C1774 1.391 . S
C1776 C1777 1.400 . S
C1777 C1771 1.491 . S
C1777 C1776 1.400 . S
C1777 C1778 1.398 . S
C1778 H1766 0.950 . S
C1778 C1777 1.398 . S
C1778 C1779 1.391 . S
C1779 H1767 0.950 . S
C1779 C1775 1.393 . S
C1779 C1778 1.391 . S
H1780 C1788 0.950 . S
H1781 C1793 0.950 . S
H1782 C1790 0.950 . S
H1783 C1792 0.950 . S
H1784 C1794 0.950 . S
H1785 C1796 0.950 . S
H1786 C1798 0.950 . S
H1787 C1799 0.950 . S
C1788 H1780 0.950 . S
C1788 C1789 1.386 . S
C1788 C1790 1.391 . S
C1789 C1788 1.386 . S
C1789 C1793 1.393 . S
C1790 H1782 0.950 . S
C1790 C1788 1.391 . S
C1790 C1791 1.400 . S
C1791 C1790 1.400 . S
C1791 C1792 1.398 . S
C1791 C1797 1.491 . S
C1792 H1783 0.950 . S
C1792 C1791 1.398 . S
C1792 C1793 1.391 . S
C1793 H1781 0.950 . S
C1793 C1789 1.393 . S
C1793 C1792 1.391 . S
C1794 H1784 0.950 . S
C1794 C1795 1.386 . S
C1794 C1796 1.391 . S
C1795 C1794 1.386 . S
C1795 C1799 1.393 . S
C1796 H1785 0.950 . S
C1796 C1794 1.391 . S
C1796 C1797 1.400 . S
C1797 C1791 1.491 . S
C1797 C1796 1.400 . S
C1797 C1798 1.398 . S
C1798 H1786 0.950 . S
C1798 C1797 1.398 . S
C1798 C1799 1.391 . S
C1799 H1787 0.950 . S
C1799 C1795 1.393 . S
C1799 C1798 1.391 . S
H1800 C1808 0.950 . S
H1801 C1813 0.950 . S
H1802 C1810 0.950 . S
H1803 C1812 0.950 . S
H1804 C1814 0.950 . S
H1805 C1816 0.950 . S
H1806 C1818 0.950 . S
H1807 C1819 0.950 . S
C1808 H1800 0.950 . S
C1808 C1809 1.386 . S
C1808 C1810 1.391 . S
C1809 C1808 1.386 . S
C1809 C1813 1.393 . S
C1810 H1802 0.950 . S
C1810 C1808 1.391 . S
C1810 C1811 1.400 . S
C1811 C1810 1.400 . S
C1811 C1812 1.398 . S
C1811 C1817 1.491 . S
C1812 H1803 0.950 . S
C1812 C1811 1.398 . S
C1812 C1813 1.391 . S
C1813 H1801 0.950 . S
C1813 C1809 1.393 . S
C1813 C1812 1.391 . S
C1814 H1804 0.950 . S
C1814 C1815 1.386 . S
C1814 C1816 1.391 . S
C1815 C1814 1.386 . S
C1815 C1819 1.393 . S
C1816 H1805 0.950 . S
C1816 C1814 1.391 . S
C1816 C1817 1.400 . S
C1817 C1811 1.491 . S
C1817 C1816 1.400 . S
C1817 C1818 1.398 . S
C1818 H1806 0.950 . S
C1818 C1817 1.398 . S
C1818 C1819 1.391 . S
C1819 H1807 0.950 . S
C1819 C1815 1.393 . S
C1819 C1818 1.391 . S
H1820 C1828 0.950 . S
H1821 C1833 0.950 . S
H1822 C1830 0.950 . S
H1823 C1832 0.950 . S
H1824 C1834 0.950 . S
H1825 C1836 0.950 . S
H1826 C1838 0.950 . S
H1827 C1839 0.950 . S
C1828 H1820 0.950 . S
C1828 C1829 1.386 . S
C1828 C1830 1.391 . S
C1829 C1828 1.386 . S
C1829 C1833 1.393 . S
C1830 H1822 0.950 . S
C1830 C1828 1.391 . S
C1830 C1831 1.400 . S
C1831 C1830 1.400 . S
C1831 C1832 1.398 . S
C1831 C1837 1.491 . S
C1832 H1823 0.950 . S
C1832 C1831 1.398 . S
C1832 C1833 1.391 . S
C1833 H1821 0.950 . S
C1833 C1829 1.393 . S
C1833 C1832 1.391 . S
C1834 H1824 0.950 . S
C1834 C1835 1.386 . S
C1834 C1836 1.391 . S
C1835 C1834 1.386 . S
C1835 C1839 1.393 . S
C1836 H1825 0.950 . S
C1836 C1834 1.391 . S
C1836 C1837 1.400 . S
C1837 C1831 1.491 . S
C1837 C1836 1.400 . S
C1837 C1838 1.398 . S
C1838 H1826 0.950 . S
C1838 C1837 1.398 . S
C1838 C1839 1.391 . S
C1839 H1827 0.950 . S
C1839 C1835 1.393 . S
C1839 C1838 1.391 . S
H1840 C1848 0.950 . S
H1841 C1853 0.950 . S
H1842 C1850 0.950 . S
H1843 C1852 0.950 . S
H1844 C1854 0.950 . S
H1845 C1856 0.950 . S
H1846 C1858 0.950 . S
H1847 C1859 0.950 . S
C1848 H1840 0.950 . S
C1848 C1849 1.386 . S
C1848 C1850 1.391 . S
C1849 C1848 1.386 . S
C1849 C1853 1.393 . S
C1850 H1842 0.950 . S
C1850 C1848 1.391 . S
C1850 C1851 1.400 . S
C1851 C1850 1.400 . S
C1851 C1852 1.398 . S
C1851 C1857 1.491 . S
C1852 H1843 0.950 . S
C1852 C1851 1.398 . S
C1852 C1853 1.391 . S
C1853 H1841 0.950 . S
C1853 C1849 1.393 . S
C1853 C1852 1.391 . S
C1854 H1844 0.950 . S
C1854 C1855 1.386 . S
C1854 C1856 1.391 . S
C1855 C1854 1.386 . S
C1855 C1859 1.393 . S
C1856 H1845 0.950 . S
C1856 C1854 1.391 . S
C1856 C1857 1.400 . S
C1857 C1851 1.491 . S
C1857 C1856 1.400 . S
C1857 C1858 1.398 . S
C1858 H1846 0.950 . S
C1858 C1857 1.398 . S
C1858 C1859 1.391 . S
C1859 H1847 0.950 . S
C1859 C1855 1.393 . S
C1859 C1858 1.391 . S
H1860 C1868 0.950 . S
H1861 C1873 0.950 . S
H1862 C1870 0.950 . S
H1863 C1872 0.950 . S
H1864 C1874 0.950 . S
H1865 C1876 0.950 . S
H1866 C1878 0.950 . S
H1867 C1879 0.950 . S
C1868 H1860 0.950 . S
C1868 C1869 1.386 . S
C1868 C1870 1.391 . S
C1869 C1868 1.386 . S
C1869 C1873 1.393 . S
C1870 H1862 0.950 . S
C1870 C1868 1.391 . S
C1870 C1871 1.400 . S
C1871 C1870 1.400 . S
C1871 C1872 1.398 . S
C1871 C1877 1.491 . S
C1872 H1863 0.950 . S
C1872 C1871 1.398 . S
C1872 C1873 1.391 . S
C1873 H1861 0.950 . S
C1873 C1869 1.393 . S
C1873 C1872 1.391 . S
C1874 H1864 0.950 . S
C1874 C1875 1.386 . S
C1874 C1876 1.391 . S
C1875 C1874 1.386 . S
C1875 C1879 1.393 . S
C1876 H1865 0.950 . S
C1876 C1874 1.391 . S
C1876 C1877 1.400 . S
C1877 C1871 1.491 . S
C1877 C1876 1.400 . S
C1877 C1878 1.398 . S
C1878 H1866 0.950 . S
C1878 C1877 1.398 . S
C1878 C1879 1.391 . S
C1879 H1867 0.950 . S
C1879 C1875 1.393 . S
C1879 C1878 1.391 . S
H1880 C1888 0.950 . S
H1881 C1893 0.950 . S
H1882 C1890 0.950 . S
H1883 C1892 0.950 . S
H1884 C1894 0.950 . S
H1885 C1896 0.950 . S
H1886 C1898 0.950 . S
H1887 C1899 0.950 . S
C1888 H1880 0.950 . S
C1888 C1889 1.386 . S
C1888 C1890 1.391 . S
C1889 C1888 1.386 . S
C1889 C1893 1.393 . S
C1890 H1882 0.950 . S
C1890 C1888 1.391 . S
C1890 C1891 1.400 . S
C1891 C1890 1.400 . S
C1891 C1892 1.398 . S
C1891 C1897 1.491 . S
C1892 H1883 0.950 . S
C1892 C1891 1.398 . S
C1892 C1893 1.391 . S
C1893 H1881 0.950 . S
C1893 C1889 1.393 . S
C1893 C1892 1.391 . S
C1894 H1884 0.950 . S
C1894 C1895 1.386 . S
C1894 C1896 1.391 . S
C1895 C1894 1.386 . S
C1895 C1899 1.393 . S
C1896 H1885 0.950 . S
C1896 C1894 1.391 . S
C1896 C1897 1.400 . S
C1897 C1891 1.491 . S
C1897 C1896 1.400 . S
C1897 C1898 1.398 . S
C1898 H1886 0.950 . S
C1898 C1897 1.398 . S
C1898 C1899 1.391 . S
C1899 H1887 0.950 . S
C1899 C1895 1.393 . S
C1899 C1898 1.391 . S
H1900 C1908 0.950 . S
H1901 C1913 0.950 . S
H1902 C1910 0.950 . S
H1903 C1912 0.950 . S
H1904 C1914 0.950 . S
H1905 C1916 0.950 . S
H1906 C1918 0.950 . S
H1907 C1919 0.950 . S
C1908 H1900 0.950 . S
C1908 C1909 1.386 . S
C1908 C1910 1.391 . S
C1909 C1908 1.386 . S
C1909 C1913 1.393 . S
C1910 H1902 0.950 . S
C1910 C1908 1.391 . S
C1910 C1911 1.400 . S
C1911 C1910 1.400 . S
C1911 C1912 1.398 . S
C1911 C1917 1.491 . S
C1912 H1903 0.950 . S
C1912 C1911 1.398 . S
C1912 C1913 1.391 . S
C1913 H1901 0.950 . S
C1913 C1909 1.393 . S
C1913 C1912 1.391 . S
C1914 H1904 0.950 . S
C1914 C1915 1.386 . S
C1914 C1916 1.391 . S
C1915 C1914 1.386 . S
C1915 C1919 1.393 . S
C1916 H1905 0.950 . S
C1916 C1914 1.391 . S
C1916 C1917 1.400 . S
C1917 C1911 1.491 . S
C1917 C1916 1.400 . S
C1917 C1918 1.398 . S
C1918 H1906 0.950 . S
C1918 C1917 1.398 . S
C1918 C1919 1.391 . S
C1919 H1907 0.950 . S
C1919 C1915 1.393 . S
C1919 C1918 1.391 . S
H1920 C1928 0.950 . S
H1921 C1933 0.950 . S
H1922 C1930 0.950 . S
H1923 C1932 0.950 . S
H1924 C1934 0.950 . S
H1925 C1936 0.950 . S
H1926 C1938 0.950 . S
H1927 C1939 0.950 . S
C1928 H1920 0.950 . S
C1928 C1929 1.386 . S
C1928 C1930 1.391 . S
C1929 C1928 1.386 . S
C1929 C1933 1.393 . S
C1930 H1922 0.950 . S
C1930 C1928 1.391 . S
C1930 C1931 1.400 . S
C1931 C1930 1.400 . S
C1931 C1932 1.398 . S
C1931 C1937 1.491 . S
C1932 H1923 0.950 . S
C1932 C1931 1.398 . S
C1932 C1933 1.391 . S
C1933 H1921 0.950 . S
C1933 C1929 1.393 . S
C1933 C1932 1.391 . S
C1934 H1924 0.950 . S
C1934 C1935 1.386 . S
C1934 C1936 1.391 . S
C1935 C1934 1.386 . S
C1935 C1939 1.393 . S
C1936 H1925 0.950 . S
C1936 C1934 1.391 . S
C1936 C1937 1.400 . S
C1937 C1931 1.491 . S
C1937 C1936 1.400 . S
C1937 C1938 1.398 . S
C1938 H1926 0.950 . S
C1938 C1937 1.398 . S
C1938 C1939 1.391 . S
C1939 H1927 0.950 . S
C1939 C1935 1.393 . S
C1939 C1938 1.391 . S
H1940 C1948 0.950 . S
H1941 C1953 0.950 . S
H1942 C1950 0.950 . S
H1943 C1952 0.950 . S
H1944 C1954 0.950 . S
H1945 C1956 0.950 . S
H1946 C1958 0.950 . S
H1947 C1959 0.950 . S
C1948 H1940 0.950 . S
C1948 C1949 1.386 . S
C1948 C1950 1.391 . S
C1949 C1948 1.386 . S
C1949 C1953 1.393 . S
C1950 H1942 0.950 . S
C1950 C1948 1.391 . S
C1950 C1951 1.400 . S
C1951 C1950 1.400 . S
C1951 C1952 1.398 . S
C1951 C1957 1.491 . S
C1952 H1943 0.950 . S
C1952 C1951 1.398 . S
C1952 C1953 1.391 . S
C1953 H1941 0.950 . S
C1953 C1949 1.393 . S
C1953 C1952 1.391 . S
C1954 H1944 0.950 . S
C1954 C1955 1.386 . S
C1954 C1956 1.391 . S
C1955 C1954 1.386 . S
C1955 C1959 1.393 . S
C1956 H1945 0.950 . S
C1956 C1954 1.391 . S
C1956 C1957 1.400 . S
C1957 C1951 1.491 . S
C1957 C1956 1.400 . S
C1957 C1958 1.398 . S
C1958 H1946 0.950 . S
C1958 C1957 1.398 . S
C1958 C1959 1.391 . S
C1959 H1947 0.950 . S
C1959 C1955 1.393 . S
C1959 C1958 1.391 . S
H1960 C1968 0.950 . S
H1961 C1973 0.950 . S
H1962 C1970 0.950 . S
H1963 C1972 0.950 . S
H1964 C1974 0.950 . S
H1965 C1976 0.950 . S
H1966 C1978 0.950 . S
H1967 C1979 0.950 . S
C1968 H1960 0.950 . S
C1968 C1969 1.386 . S
C1968 C1970 1.391 . S
C1969 C1968 1.386 . S
C1969 C1973 1.393 . S
C1970 H1962 0.950 . S
C1970 C1968 1.391 . S
C1970 C1971 1.400 . S
C1971 C1970 1.400 . S
C1971 C1972 1.398 . S
C1971 C1977 1.491 . S
C1972 H1963 0.950 . S
C1972 C1971 1.398 . S
C1972 C1973 1.391 . S
C1973 H1961 0.950 . S
C1973 C1969 1.393 . S
C1973 C1972 1.391 . S
C1974 H1964 0.950 . S
C1974 C1975 1.386 . S
C1974 C1976 1.391 . S
C1975 C1974 1.386 . S
C1975 C1979 1.393 . S
C1976 H1965 0.950 . S
C1976 C1974 1.391 . S
C1976 C1977 1.400 . S
C1977 C1971 1.491 . S
C1977 C1976 1.400 . S
C1977 C1978 1.398 . S
C1978 H1966 0.950 . S
C1978 C1977 1.398 . S
C1978 C1979 1.391 . S
C1979 H1967 0.950 . S
C1979 C1975 1.393 . S
C1979 C1978 1.391 . S
H1980 C1988 0.950 . S
H1981 C1993 0.950 . S
H1982 C1990 0.950 . S
H1983 C1992 0.950 . S
H1984 C1994 0.950 . S
H1985 C1996 0.950 . S
H1986 C1998 0.950 . S
H1987 C1999 0.950 . S
C1988 H1980 0.950 . S
C1988 C1989 1.386 . S
C1988 C1990 1.391 . S
C1989 C1988 1.386 . S
C1989 C1993 1.393 . S
C1990 H1982 0.950 . S
C1990 C1988 1.391 . S
C1990 C1991 1.400 . S
C1991 C1990 1.400 . S
C1991 C1992 1.398 . S
C1991 C1997 1.491 . S
C1992 H1983 0.950 . S
C1992 C1991 1.398 . S
C1992 C1993 1.391 . S
C1993 H1981 0.950 . S
C1993 C1989 1.393 . S
C1993 C1992 1.391 . S
C1994 H1984 0.950 . S
C1994 C1995 1.386 . S
C1994 C1996 1.391 . S
C1995 C1994 1.386 . S
C1995 C1999 1.393 . S
C1996 H1985 0.950 . S
C1996 C1994 1.391 . S
C1996 C1997 1.400 . S
C1997 C1991 1.491 . S
C1997 C1996 1.400 . S
C1997 C1998 1.398 . S
C1998 H1986 0.950 . S
C1998 C1997 1.398 . S
C1998 C1999 1.391 . S
C1999 H1987 0.950 . S
C1999 C1995 1.393 . S
C1999 C1998 1.391 . S
H2000 C2008 0.950 . S
H2001 C2013 0.950 . S
H2002 C2010 0.950 . S
H2003 C2012 0.950 . S
H2004 C2014 0.950 . S
H2005 C2016 0.950 . S
H2006 C2018 0.950 . S
H2007 C2019 0.950 . S
C2008 H2000 0.950 . S
C2008 C2009 1.386 . S
C2008 C2010 1.391 . S
C2009 C2008 1.386 . S
C2009 C2013 1.393 . S
C2010 H2002 0.950 . S
C2010 C2008 1.391 . S
C2010 C2011 1.400 . S
C2011 C2010 1.400 . S
C2011 C2012 1.398 . S
C2011 C2017 1.491 . S
C2012 H2003 0.950 . S
C2012 C2011 1.398 . S
C2012 C2013 1.391 . S
C2013 H2001 0.950 . S
C2013 C2009 1.393 . S
C2013 C2012 1.391 . S
C2014 H2004 0.950 . S
C2014 C2015 1.386 . S
C2014 C2016 1.391 . S
C2015 C2014 1.386 . S
C2015 C2019 1.393 . S
C2016 H2005 0.950 . S
C2016 C2014 1.391 . S
C2016 C2017 1.400 . S
C2017 C2011 1.491 . S
C2017 C2016 1.400 . S
C2017 C2018 1.398 . S
C2018 H2006 0.950 . S
C2018 C2017 1.398 . S
C2018 C2019 1.391 . S
C2019 H2007 0.950 . S
C2019 C2015 1.393 . S
C2019 C2018 1.391 . S
H2020 C2028 0.950 . S
H2021 C2033 0.950 . S
H2022 C2030 0.950 . S
H2023 C2032 0.950 . S
H2024 C2034 0.950 . S
H2025 C2036 0.950 . S
H2026 C2038 0.950 . S
H2027 C2039 0.950 . S
C2028 H2020 0.950 . S
C2028 C2029 1.386 . S
C2028 C2030 1.391 . S
C2029 C2028 1.386 . S
C2029 C2033 1.393 . S
C2030 H2022 0.950 . S
C2030 C2028 1.391 . S
C2030 C2031 1.400 . S
C2031 C2030 1.400 . S
C2031 C2032 1.398 . S
C2031 C2037 1.491 . S
C2032 H2023 0.950 . S
C2032 C2031 1.398 . S
C2032 C2033 1.391 . S
C2033 H2021 0.950 . S
C2033 C2029 1.393 . S
C2033 C2032 1.391 . S
C2034 H2024 0.950 . S
C2034 C2035 1.386 . S
C2034 C2036 1.391 . S
C2035 C2034 1.386 . S
C2035 C2039 1.393 . S
C2036 H2025 0.950 . S
C2036 C2034 1.391 . S
C2036 C2037 1.400 . S
C2037 C2031 1.491 . S
C2037 C2036 1.400 . S
C2037 C2038 1.398 . S
C2038 H2026 0.950 . S
C2038 C2037 1.398 . S
C2038 C2039 1.391 . S
C2039 H2027 0.950 . S
C2039 C2035 1.393 . S
C2039 C2038 1.391 . S
H2040 C2048 0.950 . S
H2041 C2053 0.950 . S
H2042 C2050 0.950 . S
H2043 C2052 0.950 . S
H2044 C2054 0.950 . S
H2045 C2056 0.950 . S
H2046 C2058 0.950 . S
H2047 C2059 0.950 . S
C2048 H2040 0.950 . S
C2048 C2049 1.386 . S
C2048 C2050 1.391 . S
C2049 C2048 1.386 . S
C2049 C2053 1.393 . S
C2050 H2042 0.950 . S
C2050 C2048 1.391 . S
C2050 C2051 1.400 . S
C2051 C2050 1.400 . S
C2051 C2052 1.398 . S
C2051 C2057 1.491 . S
C2052 H2043 0.950 . S
C2052 C2051 1.398 . S
C2052 C2053 1.391 . S
C2053 H2041 0.950 . S
C2053 C2049 1.393 . S
C2053 C2052 1.391 . S
C2054 H2044 0.950 . S
C2054 C2055 1.386 . S
C2054 C2056 1.391 . S
C2055 C2054 1.386 . S
C2055 C2059 1.393 . S
C2056 H2045 0.950 . S
C2056 C2054 1.391 . S
C2056 C2057 1.400 . S
C2057 C2051 1.491 . S
C2057 C2056 1.400 . S
C2057 C2058 1.398 . S
C2058 H2046 0.950 . S
C2058 C2057 1.398 . S
C2058 C2059 1.391 . S
C2059 H2047 0.950 . S
C2059 C2055 1.393 . S
C2059 C2058 1.391 . S
H2060 C2068 0.950 . S
H2061 C2073 0.950 . S
H2062 C2070 0.950 . S
H2063 C2072 0.950 . S
H2064 C2074 0.950 . S
H2065 C2076 0.950 . S
H2066 C2078 0.950 . S
H2067 C2079 0.950 . S
C2068 H2060 0.950 . S
C2068 C2069 1.386 . S
C2068 C2070 1.391 . S
C2069 C2068 1.386 . S
C2069 C2073 1.393 . S
C2070 H2062 0.950 . S
C2070 C2068 1.391 . S
C2070 C2071 1.400 . S
C2071 C2070 1.400 . S
C2071 C2072 1.398 . S
C2071 C2077 1.491 . S
C2072 H2063 0.950 . S
C2072 C2071 1.398 . S
C2072 C2073 1.391 . S
C2073 H2061 0.950 . S
C2073 C2069 1.393 . S
C2073 C2072 1.391 . S
C2074 H2064 0.950 . S
C2074 C2075 1.386 . S
C2074 C2076 1.391 . S
C2075 C2074 1.386 . S
C2075 C2079 1.393 . S
C2076 H2065 0.950 . S
C2076 C2074 1.391 . S
C2076 C2077 1.400 . S
C2077 C2071 1.491 . S
C2077 C2076 1.400 . S
C2077 C2078 1.398 . S
C2078 H2066 0.950 . S
C2078 C2077 1.398 . S
C2078 C2079 1.391 . S
C2079 H2067 0.950 . S
C2079 C2075 1.393 . S
C2079 C2078 1.391 . S
H2080 C2088 0.950 . S
H2081 C2093 0.950 . S
H2082 C2090 0.950 . S
H2083 C2092 0.950 . S
H2084 C2094 0.950 . S
H2085 C2096 0.950 . S
H2086 C2098 0.950 . S
H2087 C2099 0.950 . S
C2088 H2080 0.950 . S
C2088 C2089 1.386 . S
C2088 C2090 1.391 . S
C2089 C2088 1.386 . S
C2089 C2093 1.393 . S
C2090 H2082 0.950 . S
C2090 C2088 1.391 . S
C2090 C2091 1.400 . S
C2091 C2090 1.400 . S
C2091 C2092 1.398 . S
C2091 C2097 1.491 . S
C2092 H2083 0.950 . S
C2092 C2091 1.398 . S
C2092 C2093 1.391 . S
C2093 H2081 0.950 . S
C2093 C2089 1.393 . S
C2093 C2092 1.391 . S
C2094 H2084 0.950 . S
C2094 C2095 1.386 . S
C2094 C2096 1.391 . S
C2095 C2094 1.386 . S
C2095 C2099 1.393 . S
C2096 H2085 0.950 . S
C2096 C2094 1.391 . S
C2096 C2097 1.400 . S
C2097 C2091 1.491 . S
C2097 C2096 1.400 . S
C2097 C2098 1.398 . S
C2098 H2086 0.950 . S
C2098 C2097 1.398 . S
C2098 C2099 1.391 . S
C2099 H2087 0.950 . S
C2099 C2095 1.393 . S
C2099 C2098 1.391 . S
H2100 C2108 0.950 . S
H2101 C2113 0.950 . S
H2102 C2110 0.950 . S
H2103 C2112 0.950 . S
H2104 C2114 0.950 . S
H2105 C2116 0.950 . S
H2106 C2118 0.950 . S
H2107 C2119 0.950 . S
C2108 H2100 0.950 . S
C2108 C2109 1.386 . S
C2108 C2110 1.386 1_556 S
C2109 C2108 1.386 . S
C2109 C2113 1.393 . S
C2110 H2102 0.950 . S
C2110 C2108 1.386 1_554 S
C2110 C2111 1.406 . S
C2111 C2110 1.406 . S
C2111 C2112 1.398 . S
C2111 C2117 1.491 . S
C2112 H2103 0.950 . S
C2112 C2111 1.398 . S
C2112 C2113 1.391 1_554 S
C2113 H2101 0.950 . S
C2113 C2109 1.393 . S
C2113 C2112 1.391 1_556 S
C2114 H2104 0.950 . S
C2114 C2115 1.386 . S
C2114 C2116 1.391 . S
C2115 C2114 1.386 . S
C2115 C2119 1.393 . S
C2116 H2105 0.950 . S
C2116 C2114 1.391 . S
C2116 C2117 1.400 . S
C2117 C2111 1.491 . S
C2117 C2116 1.400 . S
C2117 C2118 1.398 . S
C2118 H2106 0.950 . S
C2118 C2117 1.398 . S
C2118 C2119 1.391 . S
C2119 H2107 0.950 . S
C2119 C2115 1.393 . S
C2119 C2118 1.391 . S
H2120 C2128 0.950 . S
H2121 C2133 0.950 . S
H2122 C2130 0.950 . S
H2123 C2132 0.950 . S
H2124 C2134 0.950 . S
H2125 C2136 0.950 . S
H2126 C2138 0.950 . S
H2127 C2139 0.950 . S
C2128 H2120 0.950 . S
C2128 C2129 1.386 . S
C2128 C2130 1.391 . S
C2129 C2128 1.386 . S
C2129 C2133 1.393 . S
C2130 H2122 0.950 . S
C2130 C2128 1.391 . S
C2130 C2131 1.400 . S
C2131 C2130 1.400 . S
C2131 C2132 1.398 . S
C2131 C2137 1.491 . S
C2132 H2123 0.950 . S
C2132 C2131 1.398 . S
C2132 C2133 1.391 . S
C2133 H2121 0.950 . S
C2133 C2129 1.393 . S
C2133 C2132 1.391 . S
C2134 H2124 0.950 . S
C2134 C2135 1.386 . S
C2134 C2136 1.391 . S
C2135 C2134 1.386 . S
C2135 C2139 1.393 . S
C2136 H2125 0.950 . S
C2136 C2134 1.391 . S
C2136 C2137 1.400 . S
C2137 C2131 1.491 . S
C2137 C2136 1.400 . S
C2137 C2138 1.398 . S
C2138 H2126 0.950 . S
C2138 C2137 1.398 . S
C2138 C2139 1.391 . S
C2139 H2127 0.950 . S
C2139 C2135 1.393 . S
C2139 C2138 1.391 . S
H2140 C2148 0.950 . S
H2141 C2153 0.950 . S
H2142 C2150 0.950 . S
H2143 C2152 0.950 . S
H2144 C2154 0.950 . S
H2145 C2156 0.950 . S
H2146 C2158 0.950 . S
H2147 C2159 0.950 . S
C2148 H2140 0.950 . S
C2148 C2149 1.386 . S
C2148 C2150 1.391 . S
C2149 C2148 1.386 . S
C2149 C2153 1.393 . S
C2150 H2142 0.950 . S
C2150 C2148 1.391 . S
C2150 C2151 1.400 . S
C2151 C2150 1.400 . S
C2151 C2152 1.398 . S
C2151 C2157 1.491 . S
C2152 H2143 0.950 . S
C2152 C2151 1.398 . S
C2152 C2153 1.391 . S
C2153 H2141 0.950 . S
C2153 C2149 1.393 . S
C2153 C2152 1.391 . S
C2154 H2144 0.950 . S
C2154 C2155 1.386 . S
C2154 C2156 1.391 . S
C2155 C2154 1.386 . S
C2155 C2159 1.393 . S
C2156 H2145 0.950 . S
C2156 C2154 1.391 . S
C2156 C2157 1.400 . S
C2157 C2151 1.491 . S
C2157 C2156 1.400 . S
C2157 C2158 1.398 . S
C2158 H2146 0.950 . S
C2158 C2157 1.398 . S
C2158 C2159 1.391 . S
C2159 H2147 0.950 . S
C2159 C2155 1.393 . S
C2159 C2158 1.391 . S
H2160 C2168 0.950 . S
H2161 C2173 0.950 . S
H2162 C2170 0.950 . S
H2163 C2172 0.950 . S
H2164 C2174 0.950 . S
H2165 C2176 0.950 . S
H2166 C2178 0.950 . S
H2167 C2179 0.950 . S
C2168 H2160 0.950 . S
C2168 C2169 1.386 . S
C2168 C2170 1.391 . S
C2169 C2168 1.386 . S
C2169 C2173 1.393 . S
C2170 H2162 0.950 . S
C2170 C2168 1.391 . S
C2170 C2171 1.400 . S
C2171 C2170 1.400 . S
C2171 C2172 1.398 . S
C2171 C2177 1.491 . S
C2172 H2163 0.950 . S
C2172 C2171 1.398 . S
C2172 C2173 1.391 . S
C2173 H2161 0.950 . S
C2173 C2169 1.393 . S
C2173 C2172 1.391 . S
C2174 H2164 0.950 . S
C2174 C2175 1.386 . S
C2174 C2176 1.391 . S
C2175 C2174 1.386 . S
C2175 C2179 1.393 . S
C2176 H2165 0.950 . S
C2176 C2174 1.391 . S
C2176 C2177 1.400 . S
C2177 C2171 1.491 . S
C2177 C2176 1.400 . S
C2177 C2178 1.398 . S
C2178 H2166 0.950 . S
C2178 C2177 1.398 . S
C2178 C2179 1.391 . S
C2179 H2167 0.950 . S
C2179 C2175 1.393 . S
C2179 C2178 1.391 . S
H2180 C2188 0.950 . S
H2181 C2193 0.950 . S
H2182 C2190 0.950 . S
H2183 C2192 0.950 . S
H2184 C2194 0.950 . S
H2185 C2196 0.950 . S
H2186 C2198 0.950 . S
H2187 C2199 0.950 . S
C2188 H2180 0.950 . S
C2188 C2189 1.386 . S
C2188 C2190 1.391 . S
C2189 C2188 1.386 . S
C2189 C2193 1.393 . S
C2190 H2182 0.950 . S
C2190 C2188 1.391 . S
C2190 C2191 1.400 . S
C2191 C2190 1.400 . S
C2191 C2192 1.398 . S
C2191 C2197 1.491 . S
C2192 H2183 0.950 . S
C2192 C2191 1.398 . S
C2192 C2193 1.391 . S
C2193 H2181 0.950 . S
C2193 C2189 1.393 . S
C2193 C2192 1.391 . S
C2194 H2184 0.950 . S
C2194 C2195 1.386 . S
C2194 C2196 1.391 . S
C2195 C2194 1.386 . S
C2195 C2199 1.393 . S
C2196 H2185 0.950 . S
C2196 C2194 1.391 . S
C2196 C2197 1.400 . S
C2197 C2191 1.491 . S
C2197 C2196 1.400 . S
C2197 C2198 1.398 . S
C2198 H2186 0.950 . S
C2198 C2197 1.398 . S
C2198 C2199 1.391 . S
C2199 H2187 0.950 . S
C2199 C2195 1.393 . S
C2199 C2198 1.391 . S
H2200 C2208 0.950 . S
H2201 C2213 0.950 . S
H2202 C2210 0.950 . S
H2203 C2212 0.950 . S
H2204 C2214 0.950 . S
H2205 C2216 0.950 . S
H2206 C2218 0.950 . S
H2207 C2219 0.950 . S
C2208 H2200 0.950 . S
C2208 C2209 1.386 . S
C2208 C2210 1.391 . S
C2209 C2208 1.386 . S
C2209 C2213 1.393 . S
C2210 H2202 0.950 . S
C2210 C2208 1.391 . S
C2210 C2211 1.400 . S
C2211 C2210 1.400 . S
C2211 C2212 1.398 . S
C2211 C2217 1.491 . S
C2212 H2203 0.950 . S
C2212 C2211 1.398 . S
C2212 C2213 1.391 . S
C2213 H2201 0.950 . S
C2213 C2209 1.393 . S
C2213 C2212 1.391 . S
C2214 H2204 0.950 . S
C2214 C2215 1.386 . S
C2214 C2216 1.391 . S
C2215 C2214 1.386 . S
C2215 C2219 1.393 . S
C2216 H2205 0.950 . S
C2216 C2214 1.391 . S
C2216 C2217 1.400 . S
C2217 C2211 1.491 . S
C2217 C2216 1.400 . S
C2217 C2218 1.398 . S
C2218 H2206 0.950 . S
C2218 C2217 1.398 . S
C2218 C2219 1.391 . S
C2219 H2207 0.950 . S
C2219 C2215 1.393 . S
C2219 C2218 1.391 . S
H2220 C2228 0.950 . S
H2221 C2233 0.950 . S
H2222 C2230 0.950 . S
H2223 C2232 0.950 . S
H2224 C2234 0.950 . S
H2225 C2236 0.950 . S
H2226 C2238 0.950 . S
H2227 C2239 0.950 . S
C2228 H2220 0.950 . S
C2228 C2229 1.386 . S
C2228 C2230 1.391 . S
C2229 C2228 1.386 . S
C2229 C2233 1.393 . S
C2230 H2222 0.950 . S
C2230 C2228 1.391 . S
C2230 C2231 1.400 . S
C2231 C2230 1.400 . S
C2231 C2232 1.398 . S
C2231 C2237 1.491 . S
C2232 H2223 0.950 . S
C2232 C2231 1.398 . S
C2232 C2233 1.391 . S
C2233 H2221 0.950 . S
C2233 C2229 1.393 . S
C2233 C2232 1.391 . S
C2234 H2224 0.950 . S
C2234 C2235 1.386 . S
C2234 C2236 1.391 . S
C2235 C2234 1.386 . S
C2235 C2239 1.393 . S
C2236 H2225 0.950 . S
C2236 C2234 1.391 . S
C2236 C2237 1.400 . S
C2237 C2231 1.491 . S
C2237 C2236 1.400 . S
C2237 C2238 1.398 . S
C2238 H2226 0.950 . S
C2238 C2237 1.398 . S
C2238 C2239 1.391 . S
C2239 H2227 0.950 . S
C2239 C2235 1.393 . S
C2239 C2238 1.391 . S
H2240 C2248 0.950 . S
H2241 C2253 0.950 . S
H2242 C2250 0.950 . S
H2243 C2252 0.950 . S
H2244 C2254 0.950 . S
H2245 C2256 0.950 . S
H2246 C2258 0.950 . S
H2247 C2259 0.950 . S
C2248 H2240 0.950 . S
C2248 C2249 1.386 . S
C2248 C2250 1.391 . S
C2249 C2248 1.386 . S
C2249 C2253 1.393 . S
C2250 H2242 0.950 . S
C2250 C2248 1.391 . S
C2250 C2251 1.400 . S
C2251 C2250 1.400 . S
C2251 C2252 1.398 . S
C2251 C2257 1.491 . S
C2252 H2243 0.950 . S
C2252 C2251 1.398 . S
C2252 C2253 1.391 . S
C2253 H2241 0.950 . S
C2253 C2249 1.393 . S
C2253 C2252 1.391 . S
C2254 H2244 0.950 . S
C2254 C2255 1.386 . S
C2254 C2256 1.391 . S
C2255 C2254 1.386 . S
C2255 C2259 1.393 . S
C2256 H2245 0.950 . S
C2256 C2254 1.391 . S
C2256 C2257 1.400 . S
C2257 C2251 1.491 . S
C2257 C2256 1.400 . S
C2257 C2258 1.398 . S
C2258 H2246 0.950 . S
C2258 C2257 1.398 . S
C2258 C2259 1.391 . S
C2259 H2247 0.950 . S
C2259 C2255 1.393 . S
C2259 C2258 1.391 . S
H2260 C2268 0.950 . S
H2261 C2273 0.950 . S
H2262 C2270 0.950 . S
H2263 C2272 0.950 . S
H2264 C2274 0.950 . S
H2265 C2276 0.950 . S
H2266 C2278 0.950 . S
H2267 C2279 0.950 . S
C2268 H2260 0.950 . S
C2268 C2269 1.386 . S
C2268 C2270 1.391 . S
C2269 C2268 1.386 . S
C2269 C2273 1.393 . S
C2270 H2262 0.950 . S
C2270 C2268 1.391 . S
C2270 C2271 1.400 . S
C2271 C2270 1.400 . S
C2271 C2272 1.398 . S
C2271 C2277 1.491 . S
C2272 H2263 0.950 . S
C2272 C2271 1.398 . S
C2272 C2273 1.391 . S
C2273 H2261 0.950 . S
C2273 C2269 1.393 . S
C2273 C2272 1.391 . S
C2274 H2264 0.950 . S
C2274 C2275 1.386 . S
C2274 C2276 1.391 . S
C2275 C2274 1.386 . S
C2275 C2279 1.393 . S
C2276 H2265 0.950 . S
C2276 C2274 1.391 . S
C2276 C2277 1.400 . S
C2277 C2271 1.491 . S
C2277 C2276 1.400 . S
C2277 C2278 1.398 . S
C2278 H2266 0.950 . S
C2278 C2277 1.398 . S
C2278 C2279 1.391 . S
C2279 H2267 0.950 . S
C2279 C2275 1.393 . S
C2279 C2278 1.391 . S
H2280 C2288 0.950 . S
H2281 C2293 0.950 . S
H2282 C2290 0.950 . S
H2283 C2292 0.950 . S
H2284 C2294 0.950 . S
H2285 C2296 0.950 . S
H2286 C2298 0.950 . S
H2287 C2299 0.950 . S
C2288 H2280 0.950 . S
C2288 C2289 1.386 . S
C2288 C2290 1.391 . S
C2289 C2288 1.386 . S
C2289 C2293 1.393 . S
C2290 H2282 0.950 . S
C2290 C2288 1.391 . S
C2290 C2291 1.400 . S
C2291 C2290 1.400 . S
C2291 C2292 1.398 . S
C2291 C2297 1.491 . S
C2292 H2283 0.950 . S
C2292 C2291 1.398 . S
C2292 C2293 1.391 . S
C2293 H2281 0.950 . S
C2293 C2289 1.393 . S
C2293 C2292 1.391 . S
C2294 H2284 0.950 . S
C2294 C2295 1.386 . S
C2294 C2296 1.391 . S
C2295 C2294 1.386 . S
C2295 C2299 1.393 . S
C2296 H2285 0.950 . S
C2296 C2294 1.391 . S
C2296 C2297 1.400 . S
C2297 C2291 1.491 . S
C2297 C2296 1.400 . S
C2297 C2298 1.398 . S
C2298 H2286 0.950 . S
C2298 C2297 1.398 . S
C2298 C2299 1.391 . S
C2299 H2287 0.950 . S
C2299 C2295 1.393 . S
C2299 C2298 1.391 . S
H2300 C2308 0.950 . S
H2301 C2313 0.950 . S
H2302 C2310 0.950 . S
H2303 C2312 0.950 . S
H2304 C2314 0.950 . S
H2305 C2316 0.950 . S
H2306 C2318 0.950 . S
H2307 C2319 0.950 . S
C2308 H2300 0.950 . S
C2308 C2309 1.386 . S
C2308 C2310 1.391 . S
C2309 C2308 1.386 . S
C2309 C2313 1.393 . S
C2310 H2302 0.950 . S
C2310 C2308 1.391 . S
C2310 C2311 1.400 . S
C2311 C2310 1.400 . S
C2311 C2312 1.398 . S
C2311 C2317 1.491 . S
C2312 H2303 0.950 . S
C2312 C2311 1.398 . S
C2312 C2313 1.391 . S
C2313 H2301 0.950 . S
C2313 C2309 1.393 . S
C2313 C2312 1.391 . S
C2314 H2304 0.950 . S
C2314 C2315 1.386 . S
C2314 C2316 1.391 . S
C2315 C2314 1.386 . S
C2315 C2319 1.393 . S
C2316 H2305 0.950 . S
C2316 C2314 1.391 . S
C2316 C2317 1.400 . S
C2317 C2311 1.491 . S
C2317 C2316 1.400 . S
C2317 C2318 1.398 . S
C2318 H2306 0.950 . S
C2318 C2317 1.398 . S
C2318 C2319 1.391 . S
C2319 H2307 0.950 . S
C2319 C2315 1.393 . S
C2319 C2318 1.391 . S
H2320 C2328 0.950 . S
H2321 C2333 0.950 1_556 S
H2322 C2330 0.950 . S
H2323 C2332 0.950 . S
H2324 C2334 0.950 . S
H2325 C2336 0.950 . S
H2326 C2338 0.950 . S
H2327 C2339 0.950 . S
C2328 H2320 0.950 . S
C2328 C2329 1.386 . S
C2328 C2330 1.391 . S
C2329 C2328 1.386 . S
C2329 C2333 1.393 . S
C2330 H2322 0.950 . S
C2330 C2328 1.391 . S
C2330 C2331 1.400 . S
C2331 C2330 1.400 . S
C2331 C2332 1.398 . S
C2331 C2337 1.491 . S
C2332 H2323 0.950 . S
C2332 C2331 1.398 . S
C2332 C2333 1.391 . S
C2333 H2321 0.950 1_554 S
C2333 C2329 1.393 . S
C2333 C2332 1.391 . S
C2334 H2324 0.950 . S
C2334 C2335 1.386 . S
C2334 C2336 1.391 . S
C2335 C2334 1.386 . S
C2335 C2339 1.393 . S
C2336 H2325 0.950 . S
C2336 C2334 1.391 . S
C2336 C2337 1.400 . S
C2337 C2331 1.491 . S
C2337 C2336 1.400 . S
C2337 C2338 1.398 . S
C2338 H2326 0.950 . S
C2338 C2337 1.398 . S
C2338 C2339 1.391 . S
C2339 H2327 0.950 . S
C2339 C2335 1.393 . S
C2339 C2338 1.391 . S
H2340 C2348 0.950 . S
H2341 C2353 0.950 . S
H2342 C2350 0.950 . S
H2343 C2352 0.950 . S
H2344 C2354 0.950 . S
H2345 C2356 0.950 . S
H2346 C2358 0.950 . S
H2347 C2359 0.950 . S
C2348 H2340 0.950 . S
C2348 C2349 1.386 . S
C2348 C2350 1.391 . S
C2349 C2348 1.386 . S
C2349 C2353 1.393 . S
C2350 H2342 0.950 . S
C2350 C2348 1.391 . S
C2350 C2351 1.400 . S
C2351 C2350 1.400 . S
C2351 C2352 1.398 . S
C2351 C2357 1.491 . S
C2352 H2343 0.950 . S
C2352 C2351 1.398 . S
C2352 C2353 1.391 . S
C2353 H2341 0.950 . S
C2353 C2349 1.393 . S
C2353 C2352 1.391 . S
C2354 H2344 0.950 . S
C2354 C2355 1.386 1_556 S
C2354 C2356 1.391 . S
C2355 C2354 1.386 1_554 S
C2355 C2359 1.393 . S
C2356 H2345 0.950 . S
C2356 C2354 1.391 . S
C2356 C2357 1.400 . S
C2357 C2351 1.491 . S
C2357 C2356 1.400 . S
C2357 C2358 1.398 1_556 S
C2358 H2346 0.950 . S
C2358 C2357 1.398 1_554 S
C2358 C2359 1.391 . S
C2359 H2347 0.950 . S
C2359 C2355 1.393 . S
C2359 C2358 1.391 . S
H2360 C2368 0.950 . S
H2361 C2373 0.950 . S
H2362 C2370 0.950 . S
H2363 C2372 0.950 . S
H2364 C2374 0.950 . S
H2365 C2376 0.950 . S
H2366 C2378 0.950 . S
H2367 C2379 0.950 . S
C2368 H2360 0.950 . S
C2368 C2369 1.386 . S
C2368 C2370 1.391 . S
C2369 C2368 1.386 . S
C2369 C2373 1.393 . S
C2370 H2362 0.950 . S
C2370 C2368 1.391 . S
C2370 C2371 1.400 . S
C2371 C2370 1.400 . S
C2371 C2372 1.398 . S
C2371 C2377 1.491 . S
C2372 H2363 0.950 . S
C2372 C2371 1.398 . S
C2372 C2373 1.391 . S
C2373 H2361 0.950 . S
C2373 C2369 1.393 . S
C2373 C2372 1.391 . S
C2374 H2364 0.950 . S
C2374 C2375 1.386 . S
C2374 C2376 1.391 . S
C2375 C2374 1.386 . S
C2375 C2379 1.393 . S
C2376 H2365 0.950 . S
C2376 C2374 1.391 . S
C2376 C2377 1.400 . S
C2377 C2371 1.491 . S
C2377 C2376 1.400 . S
C2377 C2378 1.398 . S
C2378 H2366 0.950 . S
C2378 C2377 1.398 . S
C2378 C2379 1.391 . S
C2379 H2367 0.950 . S
C2379 C2375 1.393 . S
C2379 C2378 1.391 . S
H2380 C2388 0.950 . S
H2381 C2393 0.950 . S
H2382 C2390 0.950 . S
H2383 C2392 0.950 . S
H2384 C2394 0.950 . S
H2385 C2396 0.950 . S
H2386 C2398 0.950 . S
H2387 C2399 0.950 . S
C2388 H2380 0.950 . S
C2388 C2389 1.386 . S
C2388 C2390 1.391 . S
C2389 C2388 1.386 . S
C2389 C2393 1.393 . S
C2390 H2382 0.950 . S
C2390 C2388 1.391 . S
C2390 C2391 1.400 . S
C2391 C2390 1.400 . S
C2391 C2392 1.398 . S
C2391 C2397 1.491 . S
C2392 H2383 0.950 . S
C2392 C2391 1.398 . S
C2392 C2393 1.391 . S
C2393 H2381 0.950 . S
C2393 C2389 1.393 . S
C2393 C2392 1.391 . S
C2394 H2384 0.950 . S
C2394 C2395 1.386 . S
C2394 C2396 1.391 . S
C2395 C2394 1.386 . S
C2395 C2399 1.393 . S
C2396 H2385 0.950 . S
C2396 C2394 1.391 . S
C2396 C2397 1.400 . S
C2397 C2391 1.491 . S
C2397 C2396 1.400 . S
C2397 C2398 1.398 . S
C2398 H2386 0.950 . S
C2398 C2397 1.398 . S
C2398 C2399 1.391 . S
C2399 H2387 0.950 . S
C2399 C2395 1.393 . S
C2399 C2398 1.391 . S
C969 C23 0.460 . S
C975 C745 0.206 . S
C989 C780 2.736 . S
C995 C63 2.531 . S
C1009 C103 1.892 . S
C1015 C660 2.022 . S
C1029 C143 1.997 . S
C1035 C700 2.165 . S
C1049 C900 3.007 . S
C1055 C183 2.861 . S
C1069 C223 0.656 . S
C1075 C865 0.667 . S
C1089 C945 0.834 . S
C1095 C242 0.841 . S
C1109 C303 2.023 . S
C1115 C820 2.264 . S
C1129 C343 1.710 . S
C1135 C540 1.852 . S
C1149 C362 2.207 . S
C1155 C620 2.220 . S
C1169 C580 1.341 . S
C1175 C423 1.245 . S
C1189 C442 2.361 . S
C1195 C500 2.342 . S
C1209 C482 0.455 . S
C1215 C244 0.209 . S
C1229 C522 2.531 . S
C1235 C311 2.736 . S
C1249 C562 1.891 . S
C1255 C191 2.024 . S
C1269 C231 2.162 . S
C1275 C602 1.992 . S
C1289 C642 2.847 . S
C1295 C431 3.007 . S
C1309 C364 0.673 . S
C1315 C682 0.649 . S
C1329 C444 0.850 . S
C1335 C743 0.845 . S
C1349 C351 2.269 . S
C1355 C762 2.010 . S
C1369 C71 1.856 . S
C1375 C802 1.677 . S
C1389 C151 2.215 . S
C1395 C863 2.214 . S
C1409 C111 1.353 . S
C1415 C882 1.238 . S
C1429 C943 2.368 . S
C1435 C31 2.351 . S
C1449 C180 1.074 . S
C1455 C4 1.076 . S
C1469 C220 1.614 . S
C1475 C44 1.606 . S
C1489 C265 0.554 . S
C1495 C84 0.510 . S
C1509 C300 1.820 . S
C1515 C124 1.824 . S
C1529 C164 1.488 . S
C1535 C340 1.473 . S
C1549 C204 0.534 . S
C1555 C465 0.542 . S
C1569 C271 1.097 . S
C1575 C385 1.091 . S
C1589 C284 1.957 . S
C1595 C420 1.953 . S
C1609 C324 1.571 . S
C1615 C20 1.584 . S
C1629 C391 2.955 . S
C1635 C100 2.991 . S
C1649 C404 1.540 . S
C1655 C140 1.541 . S
C1669 C60 2.496 . S
C1675 C471 2.473 . S
C1689 C671 1.074 . S
C1695 C505 1.077 . S
C1709 C711 1.612 . S
C1715 C545 1.610 . S
C1729 C585 0.519 . S
C1735 C724 0.544 . S
C1749 C625 1.826 . S
C1755 C791 1.824 . S
C1769 C831 1.471 . S
C1775 C665 1.486 . S
C1789 C705 0.545 . S
C1795 C924 0.535 . S
C1809 C844 1.098 . S
C1815 C740 1.095 . S
C1829 C785 1.957 . S
C1835 C911 1.956 . S
C1849 C511 1.584 . S
C1855 C825 1.558 . S
C1869 C860 2.962 . S
C1875 C591 2.992 . S
C1889 C905 1.546 . S
C1895 C631 1.543 . S
C1909 C551 2.496 . S
C1915 C940 2.469 . S
C1929 C2 3.219 . S
C1935 C380 3.275 1_554 S
C1949 C425 1.697 . S
C1955 C42 1.695 . S
C1969 C345 1.812 . S
C1975 C82 1.805 . S
C1989 C460 2.859 . S
C1995 C122 2.812 . S
C2009 C162 1.405 . S
C2015 C145 1.418 . S
C2029 C105 1.621 . S
C2035 C202 1.610 . S
C2049 C263 1.028 . S
C2055 C65 1.161 . S
C2069 C25 1.108 . S
C2075 C282 1.102 . S
C2089 C322 1.320 1_556 S
C2095 C225 1.350 . S
C2109 C383 1.622 . S
C2115 C305 1.772 . S
C2129 C402 2.449 . S
C2135 C260 2.503 . S
C2149 C463 1.608 . S
C2155 C185 1.767 . S
C2169 C503 3.216 . S
C2175 C871 3.274 1_556 S
C2189 C543 1.689 . S
C2195 C884 1.688 . S
C2209 C804 1.808 . S
C2215 C583 1.800 . S
C2229 C951 2.856 . S
C2235 C623 2.806 . S
C2249 C663 1.390 . S
C2255 C604 1.409 . S
C2269 C703 1.608 . S
C2275 C564 1.624 . S
C2289 C524 1.186 . S
C2295 C722 1.088 . S
C2309 C783 1.099 . S
C2315 C484 1.113 . S
C2329 C823 1.287 1_554 S
C2335 C684 1.325 . S
C2349 C764 1.773 . S
C2355 C842 1.614 . S
C2369 C903 2.446 . S
C2375 C751 2.503 . S
C2389 C922 1.597 . S
C2395 C644 1.772 . S
