# Generated by pormake.
# Topology snz, (6)-cn, num edge types: 1
# Building blocks:
#     Node 0, Type 0, BuildingBlock: UKALOJ_clean_sbu_0, # of connection points: 6
#     Node 1, Type 0, BuildingBlock: UKALOJ_clean_sbu_0, # of connection points: 6
#     Node 2, Type 0, BuildingBlock: UKALOJ_clean_sbu_0, # of connection points: 6
#     Node 3, Type 0, BuildingBlock: UKALOJ_clean_sbu_0, # of connection points: 6
#     Node 4, Type 0, BuildingBlock: UKALOJ_clean_sbu_0, # of connection points: 6
#     Node 5, Type 0, BuildingBlock: UKALOJ_clean_sbu_0, # of connection points: 6
#     Node 6, Type 0, BuildingBlock: UKALOJ_clean_sbu_0, # of connection points: 6
#     Node 7, Type 0, BuildingBlock: UKALOJ_clean_sbu_0, # of connection points: 6
#     Node 8, Type 0, BuildingBlock: UKALOJ_clean_sbu_0, # of connection points: 6
#     Edge 9, Type (0, 0), BuildingBlock: EZIPEK_clean_linker_0, # of connection points: 2
#     Edge 10, Type (0, 0), BuildingBlock: EZIPEK_clean_linker_0, # of connection points: 2
#     Edge 11, Type (0, 0), BuildingBlock: EZIPEK_clean_linker_0, # of connection points: 2
#     Edge 12, Type (0, 0), BuildingBlock: EZIPEK_clean_linker_0, # of connection points: 2
#     Edge 13, Type (0, 0), BuildingBlock: EZIPEK_clean_linker_0, # of connection points: 2
#     Edge 14, Type (0, 0), BuildingBlock: EZIPEK_clean_linker_0, # of connection points: 2
#     Edge 15, Type (0, 0), BuildingBlock: EZIPEK_clean_linker_0, # of connection points: 2
#     Edge 16, Type (0, 0), BuildingBlock: EZIPEK_clean_linker_0, # of connection points: 2
#     Edge 17, Type (0, 0), BuildingBlock: EZIPEK_clean_linker_0, # of connection points: 2
#     Edge 18, Type (0, 0), BuildingBlock: EZIPEK_clean_linker_0, # of connection points: 2
#     Edge 19, Type (0, 0), BuildingBlock: EZIPEK_clean_linker_0, # of connection points: 2
#     Edge 20, Type (0, 0), BuildingBlock: EZIPEK_clean_linker_0, # of connection points: 2
#     Edge 21, Type (0, 0), BuildingBlock: EZIPEK_clean_linker_0, # of connection points: 2
#     Edge 22, Type (0, 0), BuildingBlock: EZIPEK_clean_linker_0, # of connection points: 2
#     Edge 23, Type (0, 0), BuildingBlock: EZIPEK_clean_linker_0, # of connection points: 2
#     Edge 24, Type (0, 0), BuildingBlock: EZIPEK_clean_linker_0, # of connection points: 2
#     Edge 25, Type (0, 0), BuildingBlock: EZIPEK_clean_linker_0, # of connection points: 2
#     Edge 26, Type (0, 0), BuildingBlock: EZIPEK_clean_linker_0, # of connection points: 2
#     Edge 27, Type (0, 0), BuildingBlock: EZIPEK_clean_linker_0, # of connection points: 2
#     Edge 28, Type (0, 0), BuildingBlock: EZIPEK_clean_linker_0, # of connection points: 2
#     Edge 29, Type (0, 0), BuildingBlock: EZIPEK_clean_linker_0, # of connection points: 2
#     Edge 30, Type (0, 0), BuildingBlock: EZIPEK_clean_linker_0, # of connection points: 2
#     Edge 31, Type (0, 0), BuildingBlock: EZIPEK_clean_linker_0, # of connection points: 2
#     Edge 32, Type (0, 0), BuildingBlock: EZIPEK_clean_linker_0, # of connection points: 2
#     Edge 33, Type (0, 0), BuildingBlock: EZIPEK_clean_linker_0, # of connection points: 2
#     Edge 34, Type (0, 0), BuildingBlock: EZIPEK_clean_linker_0, # of connection points: 2
#     Edge 35, Type (0, 0), BuildingBlock: EZIPEK_clean_linker_0, # of connection points: 2
# Relax obj value: 0.593
# Max RMSD: 0.317
# Mean RMSD: 0.263
data_MOF--net-snz--node1-UKALOJ_clean_sbu_0--edge1-EZIPEK_clean_linker_0
_symmetry_space_group_name_H-M    P1
_symmetry_Int_Tables_number       1
_symmetry_cell_setting            triclinic
loop_
_symmetry_equiv_pos_as_xyz
'x, y, z'
_cell_length_a     37.960918
_cell_length_b     42.492994
_cell_length_c     11.552303
_cell_angle_alpha  90.278559
_cell_angle_beta   90.167907
_cell_angle_gamma 120.41839
loop_
_atom_site_label
_atom_site_type_symbol
_atom_site_fract_x
_atom_site_fract_y
_atom_site_fract_z
_atom_type_partial_charge
Zn0 Zn 0.98498 0.46195 0.19232 0.0
O1 O 0.94398 0.40936 0.12891 0.0
C2 C 0.0469 0.43902 0.26733 0.0
Zn3 Zn 0.03096 0.46979 0.06279 0.0
C4 C 0.95237 0.39827 0.03695 0.0
O5 O 0.98738 0.41741 0.99196 0.0
C6 C 0.06261 0.53662 0.19876 0.0
O7 O 0.00113 0.4933 0.959 0.0
O8 O 0.95487 0.48057 0.09262 0.0
N9 N 0.07136 0.47335 0.94535 0.0
C10 C 0.07415 0.48464 0.83735 0.0
C11 C 0.09112 0.44422 0.8368 0.0
N12 N 0.08401 0.44951 0.94681 0.0
N13 N 0.08243 0.46422 0.76484 0.0
C14 C 0.94718 0.43418 0.4102 0.0
C15 C 0.95328 0.48171 0.48634 0.0
N16 N 0.94553 0.45421 0.324 0.0
N17 N 0.94669 0.483 0.37216 0.0
N18 N 0.95764 0.45282 0.51041 0.0
H19 H 0.92829 0.38413 0.3105 0.0
H20 H 0.90908 0.37791 0.45303 0.0
H21 H 0.96123 0.39133 0.43295 0.0
C22 C 0.93627 0.39495 0.39915 0.0
C23 C 0.06674 0.51479 0.8024 0.0
H24 H 0.0353 0.50325 0.76781 0.0
H25 H 0.08849 0.53163 0.73405 0.0
H26 H 0.07113 0.5328 0.87757 0.0
O27 O 0.07397 0.52213 0.12287 0.0
O28 O 0.02716 0.51796 0.24308 0.0
C29 C 0.96941 0.49359 0.99464 0.0
O30 O 0.01745 0.44258 0.3026 0.0
O31 O 0.05804 0.44688 0.16403 0.0
Zn32 Zn 0.53855 0.52281 0.10561 0.0
O33 O 0.48668 0.50663 0.21279 0.0
C34 C 0.49535 0.45656 0.96008 0.0
Zn35 Zn 0.50358 0.53015 0.96748 0.0
C36 C 0.45334 0.50292 0.17505 0.0
O37 O 0.45036 0.50941 0.06961 0.0
C38 C 0.59144 0.55085 0.9069 0.0
O39 O 0.52096 0.58241 1.02454 0.0
O40 O 0.56083 0.57952 0.1572 0.0
N41 N 0.47125 0.53545 0.83739 0.0
C42 C 0.49303 0.54882 0.74176 0.0
C43 C 0.43923 0.50057 0.69377 0.0
N44 N 0.43641 0.50627 0.80705 0.0
N45 N 0.47603 0.52549 0.65153 0.0
C46 C 0.55589 0.49372 0.32325 0.0
C47 C 0.61815 0.53093 0.35635 0.0
N48 N 0.57029 0.51578 0.23207 0.0
N49 N 0.60982 0.53776 0.24926 0.0
N50 N 0.5839 0.5053 0.40981 0.0
H51 H 0.49959 0.45099 0.24611 0.0
H52 H 0.49315 0.47084 0.37524 0.0
H53 H 0.51212 0.43975 0.38254 0.0
C54 C 0.51281 0.46213 0.3319 0.0
C55 C 0.52686 0.58799 0.73376 0.0
H56 H 0.53077 0.6025 0.81678 0.0
H57 H 0.51902 0.60212 0.66699 0.0
H58 H 0.55624 0.59019 0.70967 0.0
O59 O 0.56077 0.55177 0.86544 0.0
O60 O 0.58923 0.53852 1.00694 0.0
C61 C 0.54669 0.5974 0.10574 0.0
O62 O 0.51673 0.46855 0.05141 0.0
O63 O 0.48561 0.47696 0.90587 0.0
Zn64 Zn 0.46542 0.01826 0.06449 0.0
O65 O 0.44665 0.05398 1.00226 0.0
C66 C 0.37957 0.96002 0.12113 0.0
Zn67 Zn 0.43391 0.98065 0.9202 0.0
C68 C 0.42248 0.04577 0.91672 0.0
O69 O 0.41109 0.01595 0.86157 0.0
C70 C 0.47487 0.95311 0.07634 0.0
O71 O 0.48734 0.01061 0.8156 0.0
O72 O 0.51903 0.04489 0.96596 0.0
N73 N 0.40426 0.94355 0.79436 0.0
C74 C 0.42047 0.93552 0.70459 0.0
C75 C 0.35809 0.91345 0.66741 0.0
N76 N 0.36465 0.92785 0.7747 0.0
N77 N 0.3935 0.92098 0.61575 0.0
C78 C 0.47612 0.04777 0.28957 0.0
C79 C 0.53259 0.0531 0.33441 0.0
N80 N 0.49712 0.05408 0.1924 0.0
N81 N 0.53342 0.0593 0.22029 0.0
N82 N 0.4956 0.04287 0.37982 0.0
H83 H 0.43628 0.06462 0.21445 0.0
H84 H 0.44893 0.07708 0.36257 0.0
H85 H 0.41265 0.0304 0.32468 0.0
C86 C 0.44135 0.05507 0.29831 0.0
C87 C 0.46377 0.94316 0.70113 0.0
H88 H 0.47627 0.94469 0.78855 0.0
H89 H 0.48381 0.96935 0.65729 0.0
H90 H 0.46508 0.92119 0.65276 0.0
O91 O 0.45578 0.94691 0.98114 0.0
O92 O 0.48335 0.98185 0.13247 0.0
C93 C 0.51964 0.03629 0.8612 0.0
O94 O 0.40963 0.98847 0.16543 0.0
O95 O 0.38194 0.95096 1.01864 0.0
Zn96 Zn 0.6761 0.82686 0.21653 0.0
O97 O 0.70891 0.88296 0.23106 0.0
C98 C 0.64305 0.82218 0.46265 0.0
Zn99 Zn 0.61641 0.8245 0.21871 0.0
C100 C 0.69031 0.90041 0.24316 0.0
O101 O 0.65145 0.88274 0.2383 0.0
C102 C 0.60536 0.75047 0.19772 0.0
O103 O 0.61839 0.82734 1.03129 0.0
O104 O 0.67747 0.82993 1.02764 0.0
N105 N 0.56413 0.8274 0.22091 0.0
C106 C 0.55554 0.85017 0.16277 0.0
C107 C 0.51151 0.82614 0.29705 0.0
N108 N 0.5366 0.81234 0.30396 0.0
N109 N 0.52289 0.84997 0.20911 0.0
C110 C 0.75639 0.8332 0.30064 0.0
C111 C 0.76763 0.80412 0.16972 0.0
N112 N 0.7292 0.826 0.21505 0.0
N113 N 0.73701 0.80886 0.13193 0.0
N114 N 0.77989 0.81876 0.27643 0.0
H115 H 0.74773 0.87158 0.39988 0.0
H116 H 0.79051 0.86726 0.445 0.0
H117 H 0.73987 0.83158 0.47851 0.0
C118 C 0.75857 0.85211 0.41237 0.0
C119 C 0.57885 0.87261 0.06038 0.0
H120 H 0.61172 0.88211 0.06805 0.0
H121 H 0.57484 0.89649 0.0487 0.0
H122 H 0.56711 0.85532 0.98137 0.0
O123 O 0.58354 0.7655 0.2029 0.0
O124 O 0.64393 0.77005 0.20398 0.0
C125 C 0.64753 0.8287 0.97305 0.0
O126 O 0.67248 0.82322 0.40647 0.0
O127 O 0.61409 0.82163 0.40544 0.0
Zn128 Zn 0.13451 0.83326 0.36369 0.0
O129 O 0.0725 0.7991 0.38111 0.0
C130 C 0.14803 0.8136 0.60475 0.0
Zn131 Zn 0.14854 0.78883 0.35681 0.0
C132 C 0.05939 0.76537 0.3936 0.0
O133 O 0.08475 0.75433 0.3848 0.0
C134 C 0.22391 0.85818 0.32624 0.0
O135 O 0.14033 0.78595 0.16704 0.0
O136 O 0.12789 0.83062 0.17679 0.0
N137 N 0.15264 0.74255 0.36459 0.0
C138 C 0.15176 0.71846 0.28648 0.0
C139 C 0.13613 0.69181 0.44998 0.0
N140 N 0.14361 0.72597 0.46613 0.0
N141 N 0.14056 0.68618 0.33774 0.0
C142 C 0.11505 0.8911 0.4541 0.0
C143 C 0.15011 0.93496 0.33889 0.0
N144 N 0.12841 0.87804 0.36885 0.0
N145 N 0.14941 0.90514 0.296 0.0
N146 N 0.12911 0.92691 0.43862 0.0
H147 H 0.07491 0.8405 0.54179 0.0
H148 H 0.06974 0.87899 0.58413 0.0
H149 H 0.11295 0.87633 0.63244 0.0
C150 C 0.09166 0.87024 0.55858 0.0
C151 C 0.15993 0.72577 0.16 0.0
H152 H 0.13164 0.7206 0.11536 0.0
H153 H 0.16966 0.70739 0.12168 0.0
H154 H 0.18394 0.75464 0.14635 0.0
O155 O 0.21228 0.82429 0.32863 0.0
O156 O 0.19825 0.86831 0.34664 0.0
C157 C 0.13268 0.80828 0.11453 0.0
O158 O 0.13986 0.83493 0.54976 0.0
O159 O 0.15625 0.79267 0.54632 0.0
Zn160 Zn 0.14323 0.31959 0.57019 0.0
O161 O 0.17321 0.28944 0.58756 0.0
C162 C 0.1724 0.35007 0.81419 0.0
Zn163 Zn 0.20199 0.37193 0.5662 0.0
C164 C 0.21195 0.30642 0.59386 0.0
O165 O 0.23136 0.34085 0.58404 0.0
C166 C 0.13255 0.38494 0.54028 0.0
O167 O 0.20207 0.36681 0.38004 0.0
O168 O 0.14307 0.31618 0.38056 0.0
N169 N 0.25942 0.41768 0.56312 0.0
C170 C 0.28225 0.43796 0.47353 0.0
C171 C 0.32336 0.44525 0.61068 0.0
N172 N 0.28511 0.42294 0.649 0.0
N173 N 0.32235 0.45477 0.50025 0.0
C174 C 0.05439 0.26227 0.63247 0.0
C175 C 0.04048 0.22018 0.50846 0.0
N176 N 0.0886 0.27234 0.57154 0.0
N177 N 0.08005 0.24598 0.49529 0.0
N178 N 0.02398 0.22981 0.59464 0.0
H179 H 0.04969 0.27251 0.81101 0.0
H180 H 0.02025 0.28368 0.71623 0.0
H181 H 0.07501 0.31301 0.72443 0.0
C182 C 0.04979 0.28448 0.72578 0.0
C183 C 0.26605 0.43996 0.35713 0.0
H184 H 0.26723 0.41995 0.29755 0.0
H185 H 0.28558 0.46747 0.31973 0.0
H186 H 0.23427 0.43445 0.36401 0.0
O187 O 0.17148 0.40206 0.54468 0.0
O188 O 0.11365 0.35042 0.55136 0.0
C189 C 0.17252 0.34131 0.3238 0.0
O190 O 0.14379 0.32318 0.75902 0.0
O191 O 0.2007 0.37596 0.75594 0.0
Zn192 Zn 0.34468 0.20128 0.78259 0.0
O193 O 0.3396 0.19996 0.97361 0.0
C194 C 0.35481 0.13792 0.80647 0.0
Zn195 Zn 0.28318 0.15119 0.78111 0.0
C196 C 0.30808 0.17588 1.02741 0.0
O197 O 0.27788 0.1524 0.96746 0.0
C198 C 0.31819 0.17582 0.5373 0.0
O199 O 0.25192 0.18012 0.75875 0.0
O200 O 0.31242 0.22969 0.7633 0.0
N201 N 0.22887 0.10318 0.77422 0.0
C202 C 0.21698 0.07415 0.70401 0.0
C203 C 0.16679 0.06193 0.81476 0.0
N204 N 0.19769 0.09562 0.84308 0.0
N205 N 0.17826 0.04824 0.72693 0.0
C206 C 0.40904 0.28058 0.85145 0.0
C207 C 0.44989 0.29784 0.70869 0.0
N208 N 0.39817 0.25086 0.78493 0.0
N209 N 0.42389 0.26161 0.69678 0.0
N210 N 0.44102 0.31034 0.80509 0.0
H211 H 0.3542 0.26898 0.93758 0.0
H212 H 0.39902 0.30886 0.99361 0.0
H213 H 0.39059 0.26442 1.02568 0.0
C214 C 0.38697 0.28098 0.95801 0.0
C215 C 0.24275 0.07131 0.61088 0.0
H216 H 0.23777 0.0822 0.52926 0.0
H217 H 0.23429 0.04263 0.59423 0.0
H218 H 0.27551 0.08711 0.63406 0.0
O219 O 0.2882 0.15099 0.5932 0.0
O220 O 0.34812 0.20085 0.59438 0.0
C221 C 0.274 0.2145 0.74926 0.0
O222 O 0.37649 0.17239 0.79668 0.0
O223 O 0.316 0.12254 0.80415 0.0
Zn224 Zn 0.77374 0.16596 0.70239 0.0
O225 O 0.70894 0.14329 0.714 0.0
C226 C 0.77188 0.13488 0.94505 0.0
Zn227 Zn 0.76741 0.11095 0.69851 0.0
C228 C 0.68715 0.10861 0.71397 0.0
O229 O 0.70419 0.08968 0.70318 0.0
C230 C 0.85342 0.16683 0.68844 0.0
O231 O 0.76635 0.11547 0.51198 0.0
O232 O 0.77174 0.16932 0.51245 0.0
N233 N 0.75592 0.05875 0.6786 0.0
C234 C 0.76503 0.04407 0.58807 0.0
C235 C 0.71618 0.00022 0.67845 0.0
N236 N 0.72602 0.03135 0.736 0.0
N237 N 0.74011 0.0077 0.58475 0.0
C238 C 0.81964 0.24973 0.72931 0.0
C239 C 0.78383 0.25416 0.86287 0.0
N240 N 0.78402 0.21761 0.73249 0.0
N241 N 0.76158 0.22083 0.81418 0.0
N242 N 0.8207 0.27255 0.81243 0.0
H243 H 0.87788 0.25577 0.68904 0.0
H244 H 0.86788 0.28809 0.62085 0.0
H245 H 0.842 0.24141 0.56837 0.0
C246 C 0.85372 0.25904 0.64647 0.0
C247 C 0.79568 0.06498 0.49607 0.0
H248 H 0.77969 0.0672 0.41875 0.0
H249 H 0.81126 0.05006 0.46875 0.0
H250 H 0.81892 0.09232 0.5274 0.0
O251 O 0.83099 0.13239 0.69341 0.0
O252 O 0.83722 0.18657 0.69389 0.0
C253 C 0.76905 0.14224 0.45562 0.0
O254 O 0.7761 0.16225 0.88901 0.0
O255 O 0.76769 0.10741 0.88763 0.0
Zn256 Zn 0.83954 0.62137 0.7149 0.0
O257 O 0.84837 0.62604 0.90241 0.0
C258 C 0.7571 0.61151 0.73773 0.0
Zn259 Zn 0.84232 0.67413 0.71612 0.0
C260 C 0.84541 0.65005 0.96097 0.0
O261 O 0.84156 0.67415 0.90626 0.0
C262 C 0.83652 0.64481 0.4705 0.0
O263 O 0.90502 0.70339 0.71625 0.0
O264 O 0.90388 0.65247 0.68537 0.0
N265 N 0.84191 0.72174 0.71471 0.0
C266 C 0.85286 0.74651 0.62981 0.0
C267 C 0.81536 0.75527 0.74623 0.0
N268 N 0.81972 0.72802 0.78925 0.0
N269 N 0.83536 0.76691 0.645 0.0
C270 C 0.85367 0.55823 0.79033 0.0
C271 C 0.88124 0.55391 0.63513 0.0
N272 N 0.84613 0.57638 0.70747 0.0
N273 N 0.86272 0.57298 0.61091 0.0
N274 N 0.87653 0.54471 0.74763 0.0
H275 H 0.8635 0.57673 0.96715 0.0
H276 H 0.83446 0.52816 0.94915 0.0
H277 H 0.81107 0.55537 0.91825 0.0
C278 C 0.83968 0.55437 0.91328 0.0
C279 C 0.87765 0.74917 0.52555 0.0
H280 H 0.89773 0.73783 0.54294 0.0
H281 H 0.89687 0.77816 0.5 0.0
H282 H 0.8569 0.73449 0.45166 0.0
O283 O 0.84226 0.6727 0.52733 0.0
O284 O 0.83104 0.61705 0.52681 0.0
C285 C 0.92416 0.68706 0.69202 0.0
O286 O 0.77419 0.59218 0.74422 0.0
O287 O 0.77862 0.64506 0.71317 0.0
C288 C 0.06496 0.4749 0.57897 0.0
C289 C 0.05711 0.44923 0.66417 0.0
C290 C 0.9837 0.42452 0.64263 0.0
C291 C -0.00842 0.45493 0.57398 0.0
N292 N 0.04513 0.51206 0.48405 0.0
N293 N 0.00778 0.3898 0.73981 0.0
C294 C 0.0332 0.48037 0.5413 0.0
C295 C 0.01636 0.4206 0.68171 0.0
N296 N 0.10465 0.49932 0.55349 0.0
N297 N 0.94457 0.39855 0.66902 0.0
H298 H 0.02987 0.38364 0.76627 0.0
H299 H 0.02987 0.38364 0.76627 0.0
H300 H 0.91932 0.40034 0.64315 0.0
H301 H 0.9376 0.3754 0.71712 0.0
H302 H 0.11321 0.52118 0.49811 0.0
H303 H 0.1286 0.49716 0.58955 0.0
H304 H 0.02697 0.5232 0.46511 0.0
H305 H 0.02697 0.5232 0.46511 0.0
C306 C 0.5043 0.48444 0.60795 0.0
C307 C 0.50171 0.51643 0.58374 0.0
C308 C 0.572 0.54693 0.52051 0.0
C309 C 0.57161 0.51364 0.51804 0.0
N310 N 0.5421 0.45318 0.59328 0.0
N311 N 0.52978 0.57279 0.48077 0.0
C312 C 0.54023 0.48399 0.57788 0.0
C313 C 0.53446 0.5457 0.52637 0.0
N314 N 0.47163 0.45288 0.64671 0.0
N315 N 0.60785 0.57917 0.51197 0.0
H316 H 0.50152 0.57144 0.48245 0.0
H317 H 0.55294 0.59435 0.43469 0.0
H318 H 0.63592 0.58019 0.51416 0.0
H319 H 0.60935 0.60435 0.51717 0.0
H320 H 0.47383 0.42999 0.66633 0.0
H321 H 0.44167 0.4473 0.64349 0.0
H322 H 0.56724 0.45114 0.56758 0.0
H323 H 0.56724 0.45114 0.56758 0.0
C324 C 0.43958 0.94347 0.45294 0.0
C325 C 0.40595 0.9417 0.51001 0.0
C326 C 0.43803 0.00737 0.50516 0.0
C327 C 0.47287 0.01073 0.4508 0.0
N328 N 0.50922 0.97814 0.4025 0.0
N329 N 0.36577 0.97136 0.51786 0.0
C330 C 0.47425 0.97795 0.42917 0.0
C331 C 0.40247 0.97323 0.50949 0.0
N332 N 0.44047 0.91212 0.43617 0.0
N333 N 0.43803 0.03745 0.54504 0.0
H334 H 0.33796 0.94679 0.51327 0.0
H335 H 0.33796 0.94679 0.51327 0.0
H336 H 0.46454 0.06307 0.54291 0.0
H337 H 0.41218 0.03594 0.58232 0.0
H338 H 0.46496 0.91169 0.3969 0.0
H339 H 0.41588 0.88684 0.46031 0.0
H340 H 0.53842 0.00103 0.40552 0.0
H341 H 0.53842 0.00103 0.40552 0.0
C342 C 0.6762 0.85457 0.65292 0.0
C343 C 0.64367 0.82407 0.59378 0.0
C344 C 0.61303 0.79718 0.78328 0.0
C345 C 0.64573 0.82755 0.84228 0.0
N346 N 0.70463 0.88792 0.83382 0.0
N347 N 0.57788 0.76899 0.60268 0.0
C348 C 0.67653 0.85683 0.77703 0.0
C349 C 0.61113 0.79625 0.65921 0.0
N350 N 0.70628 0.88214 0.58981 0.0
N351 N 0.58443 0.76828 0.84585 0.0
H352 H 0.5763 0.76574 0.51321 0.0
H353 H 0.55066 0.75073 0.64309 0.0
H354 H 0.58312 0.7682 0.93584 0.0
H355 H 0.56333 0.74316 0.80981 0.0
H356 H 0.73397 0.90232 0.62438 0.0
H357 H 0.70384 0.88453 0.50089 0.0
H358 H 0.72567 0.91189 0.793 0.0
H359 H 0.70517 0.89091 0.92358 0.0
C360 C 0.11755 0.77761 0.79122 0.0
C361 C 0.14418 0.81131 0.73526 0.0
C362 C 0.15096 0.84306 0.92037 0.0
C363 C 0.13162 0.8093 0.98208 0.0
N364 N 0.09243 0.74353 0.9698 0.0
N365 N 0.19233 0.87562 0.75535 0.0
C366 C 0.11417 0.77631 0.91538 0.0
C367 C 0.16264 0.84378 0.80264 0.0
N368 N 0.09308 0.74727 0.72575 0.0
N369 N 0.15605 0.87443 0.96924 0.0
H370 H 0.2026 0.87728 0.67067 0.0
H371 H 0.20976 0.89927 0.80442 0.0
H372 H 0.14479 0.87584 0.04956 0.0
H373 H 0.16662 0.89848 0.92257 0.0
H374 H 0.06974 0.72302 0.75989 0.0
H375 H 0.09322 0.74713 0.6356 0.0
H376 H 0.08438 0.71866 0.93032 0.0
H377 H 0.08294 0.74121 0.0555 0.0
C378 C 0.14183 0.34999 1.01108 0.0
C379 C 0.17352 0.34989 0.94558 0.0
C380 C 0.2024 0.34114 0.12748 0.0
C381 C 0.17171 0.34268 0.19316 0.0
N382 N 0.11613 0.35471 0.19946 0.0
N383 N 0.2377 0.35108 0.94452 0.0
C384 C 0.14228 0.3485 0.13528 0.0
C385 C 0.20497 0.34731 1.00503 0.0
N386 N 0.11146 0.3521 0.95435 0.0
N387 N 0.22817 0.33216 0.1817 0.0
H388 H 0.23999 0.35411 0.8552 0.0
H389 H 0.26401 0.35399 0.98314 0.0
H390 H 0.22709 0.32728 0.27041 0.0
H391 H 0.24827 0.32644 0.13822 0.0
H392 H 0.0845 0.34724 0.99339 0.0
H393 H 0.11266 0.35761 0.86616 0.0
H394 H 0.09709 0.36328 0.16468 0.0
H395 H 0.11548 0.35397 0.28964 0.0
C396 C 0.31019 0.14575 0.34102 0.0
C397 C 0.31652 0.17654 0.40664 0.0
C398 C 0.315 0.20636 0.22424 0.0
C399 C 0.30725 0.17488 0.15904 0.0
N400 N 0.28526 0.11048 0.16403 0.0
N401 N 0.31825 0.23405 0.41202 0.0
C402 C 0.30097 0.14331 0.22 0.0
C403 C 0.31744 0.20645 0.3484 0.0
N404 N 0.31526 0.11948 0.39305 0.0
N405 N 0.31839 0.23583 0.16733 0.0
H406 H 0.31971 0.23515 0.50211 0.0
H407 H 0.31435 0.2546 0.377 0.0
H408 H 0.3099 0.23441 0.08085 0.0
H409 H 0.33001 0.26158 0.20463 0.0
H410 H 0.31557 0.09839 0.34757 0.0
H411 H 0.32368 0.12103 0.47982 0.0
H412 H 0.27544 0.08599 0.20736 0.0
H413 H 0.2789 0.10685 0.07579 0.0
C414 C 0.80039 0.13666 0.26734 0.0
C415 C 0.77012 0.14144 0.32445 0.0
C416 C 0.74099 0.14193 0.13271 0.0
C417 C 0.76994 0.13509 0.07614 0.0
N418 N 0.8234 0.12045 0.09321 0.0
N419 N 0.70746 0.14248 0.31144 0.0
C420 C 0.79829 0.13063 0.14472 0.0
C421 C 0.73949 0.1427 0.25687 0.0
N422 N 0.83262 0.13971 0.32966 0.0
N423 N 0.71437 0.14736 0.0678 0.0
H424 H 0.70527 0.14303 0.4012 0.0
H425 H 0.68143 0.1388 0.26887 0.0
H426 H 0.71083 0.14302 0.97864 0.0
H427 H 0.6968 0.15766 0.10152 0.0
H428 H 0.8585 0.14145 0.2925 0.0
H429 H 0.83525 0.14358 0.41887 0.0
H430 H 0.84071 0.11195 0.13916 0.0
H431 H 0.82485 0.11777 1.0041 0.0
C432 C 0.80504 0.64093 0.27249 0.0
C433 C 0.83872 0.64561 0.33996 0.0
C434 C 0.87806 0.65526 0.15933 0.0
C435 C 0.84333 0.64812 0.09185 0.0
N436 N 0.77075 0.62415 0.08579 0.0
N437 N 0.90586 0.65275 0.34717 0.0
C438 C 0.80603 0.63838 0.14903 0.0
C439 C 0.87478 0.65135 0.283 0.0
N440 N 0.77193 0.6389 0.32619 0.0
N441 N 0.91459 0.6669 0.10545 0.0
H442 H 0.90524 0.65138 0.43727 0.0
H443 H 0.93096 0.65274 0.3113 0.0
H444 H 0.9179 0.66958 1.01581 0.0
H445 H 0.94216 0.67639 0.14938 0.0
H446 H 0.74849 0.63967 0.28158 0.0
H447 H 0.76938 0.63925 0.41604 0.0
H448 H 0.74192 0.6135 0.12244 0.0
H449 H 0.76994 0.61899 0.99729 0.0
C450 C 0.06638 0.38229 0.4851 0.0
C451 C 0.10951 0.40323 0.4992 0.0
C452 C 0.11133 0.44947 0.36824 0.0
C453 C 0.06872 0.4266 0.34572 0.0
N454 N 0.00842 0.36723 0.36133 0.0
N455 N 0.16798 0.46402 0.49792 0.0
C456 C 0.04684 0.39206 0.39926 0.0
C457 C 0.13076 0.43896 0.4529 0.0
N458 N 0.04369 0.35455 0.55962 0.0
N459 N 0.13364 0.48101 0.30762 0.0
H460 H 0.17965 0.45916 0.57312 0.0
H461 H 0.18406 0.49132 0.47368 0.0
H462 H 0.1209 0.49076 0.24818 0.0
H463 H 0.16542 0.49621 0.30942 0.0
H464 H 0.01187 0.33979 0.55888 0.0
H465 H 0.05661 0.35065 0.6338 0.0
H466 H -0.00733 0.34019 0.38862 0.0
H467 H -0.00594 0.37254 0.29335 0.0
C468 C 0.58789 0.66327 0.05085 0.0
C469 C 0.56178 0.6365 0.13148 0.0
C470 C 0.56179 0.68417 0.25296 0.0
C471 C 0.58753 0.71092 0.17198 0.0
N472 N 0.62136 0.72606 0.98672 0.0
N473 N 0.51644 0.62004 0.29386 0.0
C474 C 0.59966 0.70047 0.06911 0.0
C475 C 0.54668 0.64656 0.22839 0.0
N476 N 0.60173 0.6531 0.9568 0.0
N477 N 0.55324 0.69477 0.35581 0.0
H478 H 0.50546 0.59235 0.27972 0.0
H479 H 0.5004 0.62522 0.35678 0.0
H480 H 0.56303 0.72192 0.37546 0.0
H481 H 0.53894 0.6771 0.42454 0.0
H482 H 0.6253 0.67124 0.90364 0.0
H483 H 0.59089 0.62599 0.93393 0.0
H484 H 0.62685 0.71999 0.90377 0.0
H485 H 0.63186 0.75374 0.99758 0.0
C486 C 0.33826 0.90968 0.26122 0.0
C487 C 0.34126 0.93695 0.18488 0.0
C488 C 0.26706 0.90939 0.19005 0.0
C489 C 0.2647 0.88545 0.27968 0.0
N490 N 0.29976 0.86681 0.4125 0.0
N491 N 0.3085 0.96384 0.07869 0.0
C492 C 0.3008 0.88669 0.3187 0.0
C493 C 0.30569 0.93747 0.15167 0.0
N494 N 0.37031 0.90396 0.2729 0.0
N495 N 0.23256 0.90311 0.13264 0.0
H496 H 0.33525 0.98172 0.03553 0.0
H497 H 0.28475 0.96903 0.06537 0.0
H498 H 0.20399 0.88057 0.14819 0.0
H499 H 0.23286 0.9174 0.05936 0.0
H500 H 0.36735 0.88065 0.31155 0.0
H501 H 0.39878 0.92102 0.236 0.0
H502 H 0.326 0.86906 0.44969 0.0
H503 H 0.27322 0.85068 0.45951 0.0
C504 C 0.38192 0.07572 0.97042 0.0
C505 C 0.40609 0.0702 0.88823 0.0
C506 C 0.3975 0.11 0.75161 0.0
C507 C 0.37429 0.11613 0.83484 0.0
N508 N 0.35744 0.11534 0.03568 0.0
N509 N 0.44955 0.09406 0.72223 0.0
C510 C 0.37008 0.1019 0.94782 0.0
C511 C 0.4174 0.0906 0.78439 0.0
N512 N 0.37004 0.056 0.07018 0.0
N513 N 0.40028 0.12225 0.6411 0.0
H514 H 0.46591 0.08163 0.74781 0.0
H515 H 0.46224 0.11204 0.65323 0.0
H516 H 0.38667 0.1371 0.61471 0.0
H517 H 0.41354 0.11527 0.57434 0.0
H518 H 0.3484 0.0558 0.12599 0.0
H519 H 0.37966 0.03792 0.09342 0.0
H520 H 0.35803 0.10898 0.12239 0.0
H521 H 0.35117 0.13629 1.02311 0.0
C522 C 0.88681 0.30152 0.91909 0.0
C523 C 0.85567 0.30449 0.86041 0.0
C524 C 0.88629 0.36783 0.92486 0.0
C525 C 0.9196 0.36601 0.9747 0.0
N526 N 0.95494 0.3328 1.00305 0.0
N527 N 0.82993 0.34165 0.78748 0.0
C528 C 0.92113 0.33345 0.96566 0.0
C529 C 0.85676 0.33809 0.85737 0.0
N530 N 0.88227 0.26791 0.93706 0.0
N531 N 0.88214 0.39753 0.94376 0.0
H532 H 0.80809 0.32007 0.73705 0.0
H533 H 0.83187 0.36657 0.77115 0.0
H534 H 0.90339 0.42048 0.98963 0.0
H535 H 0.85614 0.39844 0.92054 0.0
H536 H 0.90192 0.26366 0.98905 0.0
H537 H 0.85667 0.24377 0.90923 0.0
H538 H 0.95955 0.31101 0.98697 0.0
H539 H 0.97979 0.35513 0.04288 0.0
C540 C 0.68204 0.56325 0.72791 0.0
C541 C 0.7137 0.59699 0.77295 0.0
C542 C 0.66355 0.60198 0.89515 0.0
C543 C 0.63197 0.56822 0.85004 0.0
N544 N 0.61368 0.51194 0.75205 0.0
N545 N 0.73289 0.65158 0.88844 0.0
C546 C 0.64179 0.54768 0.77325 0.0
C547 C 0.70386 0.61739 0.85203 0.0
N548 N 0.68976 0.547 0.6369 0.0
N549 N 0.65626 0.61741 0.98964 0.0
H550 H 0.76416 0.66197 0.88375 0.0
H551 H 0.72565 0.67027 0.92323 0.0
H552 H 0.62787 0.60655 1.02885 0.0
H553 H 0.67907 0.63896 0.03756 0.0
H554 H 0.66685 0.5246 0.59196 0.0
H555 H 0.7184 0.5581 0.59844 0.0
H556 H 0.62098 0.49393 0.71234 0.0
H557 H 0.58388 0.49959 0.78313 0.0
C558 C 0.92839 0.55427 0.89599 0.0
C559 C 0.90021 0.53216 0.80896 0.0
C560 C 0.92492 0.48913 0.8263 0.0
C561 C 0.94845 0.50855 0.92483 0.0
N562 N 0.96244 0.55441 0.07203 0.0
N563 N 0.86679 0.47553 0.70325 0.0
C564 C 0.94711 0.53952 0.96565 0.0
C565 C 0.89719 0.49869 0.7771 0.0
N566 N 0.93909 0.58999 0.9085 0.0
N567 N 0.92853 0.46131 0.78054 0.0
H568 H 0.84553 0.48163 0.66869 0.0
H569 H 0.86013 0.44902 0.68536 0.0
H570 H 0.94817 0.45324 0.81456 0.0
H571 H 0.91394 0.44799 0.7043 0.0
H572 H 0.96227 0.60792 0.96459 0.0
H573 H 0.92818 0.60259 0.85373 0.0
H574 H 0.95843 0.57488 0.10846 0.0
H575 H 0.97603 0.54443 0.1279 0.0
C576 C 0.44077 0.39595 0.88135 0.0
C577 C 0.48197 0.41918 0.91701 0.0
C578 C 0.49602 0.36964 0.8801 0.0
C579 C 0.45608 0.34796 0.83532 0.0
N580 N 0.39429 0.34385 0.76397 0.0
N581 N 0.55129 0.43054 0.92432 0.0
C582 C 0.42972 0.3623 0.82631 0.0
C583 C 0.51042 0.40676 0.90915 0.0
N584 N 0.41167 0.40493 0.9051 0.0
N585 N 0.51973 0.35439 0.89804 0.0
H586 H 0.56355 0.4582 0.94224 0.0
H587 H 0.57345 0.42357 0.9077 0.0
H588 H 0.50987 0.32727 0.87689 0.0
H589 H 0.54757 0.36772 0.94216 0.0
H590 H 0.38063 0.38719 0.88984 0.0
H591 H 0.41772 0.42823 0.95171 0.0
H592 H 0.37588 0.35483 0.74487 0.0
H593 H 0.38573 0.31932 0.7211 0.0
C594 C 0.62929 0.06368 0.83518 0.0
C595 C 0.64315 0.08961 0.74422 0.0
C596 C 0.57297 0.07716 0.71587 0.0
C597 C 0.55973 0.05062 0.80428 0.0
N598 N 0.5723 0.00935 0.9139 0.0
N599 N 0.62708 0.1162 0.58315 0.0
C600 C 0.587 0.04093 0.85281 0.0
C601 C 0.61465 0.09505 0.67998 0.0
N602 N 0.65634 0.06209 0.90987 0.0
N603 N 0.54583 0.08538 0.66759 0.0
H604 H 0.65725 0.12956 0.55497 0.0
H605 H 0.60716 0.11841 0.52621 0.0
H606 H 0.51484 0.07051 0.6868 0.0
H607 H 0.55402 0.10717 0.61191 0.0
H608 H 0.64724 0.04607 0.98409 0.0
H609 H 0.68775 0.07974 0.90601 0.0
H610 H 0.59072 -0.00084 0.94191 0.0
H611 H 0.5411 0.99128 0.92397 0.0
C612 C 0.45802 0.88817 0.10676 0.0
C613 C 0.48598 0.92637 0.12121 0.0
C614 C 0.53328 0.91201 0.2205 0.0
C615 C 0.50875 0.87505 0.18698 0.0
N616 N 0.44981 0.82791 0.08841 0.0
N617 N 0.55416 0.97444 0.17718 0.0
C618 C 0.4716 0.86309 0.12754 0.0
C619 C 0.5246 0.93835 0.17518 0.0
N620 N 0.41804 0.87555 0.0785 0.0
N621 N 0.56483 0.92185 0.29643 0.0
H622 H 0.55054 -0.00492 0.14182 0.0
H623 H 0.58403 0.98363 0.2045 0.0
H624 H 0.57209 0.90308 0.33015 0.0
H625 H 0.58088 0.94769 0.33443 0.0
H626 H 0.39587 0.84793 0.07801 0.0
H627 H 0.40577 0.89243 0.06841 0.0
H628 H 0.42468 0.81852 1.03309 0.0
H629 H 0.45894 0.80891 0.10416 0.0
C630 C 0.14369 0.6298 0.31895 0.0
C631 C 0.12552 0.65057 0.28705 0.0
C632 C 0.0757 0.59966 0.16886 0.0
C633 C 0.08771 0.57652 0.22069 0.0
N634 N 0.13661 0.56983 0.33418 0.0
N635 N 0.06856 0.65213 0.19868 0.0
C636 C 0.12306 0.59174 0.29216 0.0
C637 C 0.0902 0.63486 0.21557 0.0
N638 N 0.18074 0.64685 0.37388 0.0
N639 N 0.05207 0.58878 0.07137 0.0
H640 H 0.07606 0.67673 0.23885 0.0
H641 H 0.04061 0.63986 0.15485 0.0
H642 H 0.0428 0.56373 1.03121 0.0
H643 H 0.04582 0.6063 1.02426 0.0
H644 H 0.19747 0.63428 0.39324 0.0
H645 H 0.19627 0.67479 0.39212 0.0
H646 H 0.16011 0.57821 0.39461 0.0
H647 H 0.12291 0.54243 0.31072 0.0
C648 C 0.39781 0.45334 0.29213 0.0
C649 C 0.41797 0.49 0.25349 0.0
C650 C 0.37649 0.5037 0.38395 0.0
C651 C 0.35536 0.46689 0.4191 0.0
N652 N 0.34077 0.40506 0.39632 0.0
N653 N 0.42179 0.54838 0.24485 0.0
C654 C 0.3647 0.44124 0.37053 0.0
C655 C 0.4059 0.51473 0.2941 0.0
N656 N 0.41023 0.43007 0.25316 0.0
N657 N 0.36866 0.52806 0.43853 0.0
H658 H 0.44307 0.55723 0.17816 0.0
H659 H 0.41167 0.56648 0.26326 0.0
H660 H 0.3466 0.52017 0.503 0.0
H661 H 0.38572 0.55615 0.42627 0.0
H662 H 0.40076 0.4046 0.28897 0.0
H663 H 0.43153 0.43685 0.1872 0.0
H664 H 0.34277 0.38429 0.35447 0.0
H665 H 0.31669 0.39526 0.45475 0.0
C666 C 0.78428 0.75609 0.49508 0.0
C667 C 0.82185 0.78021 0.55104 0.0
C668 C 0.83485 0.82778 0.41063 0.0
C669 C 0.79539 0.80491 0.36347 0.0
N670 N 0.72888 0.75032 0.37758 0.0
N671 N 0.88243 0.83896 0.56888 0.0
C672 C 0.76909 0.76985 0.41003 0.0
C673 C 0.84713 0.81616 0.51049 0.0
N674 N 0.76363 0.71968 0.5203 0.0
N675 N 0.86017 0.86042 0.35919 0.0
H676 H 0.89185 0.83044 0.64124 0.0
H677 H 0.90108 0.86651 0.55011 0.0
H678 H 0.85111 0.86924 0.28676 0.0
H679 H 0.89052 0.8776 0.38326 0.0
H680 H 0.73884 0.70039 0.47155 0.0
H681 H 0.77324 0.70795 0.58234 0.0
H682 H 0.70742 0.72674 0.41978 0.0
H683 H 0.71574 0.75915 0.31626 0.0
C684 C 0.16858 0.98744 0.70179 0.0
C685 C 0.1561 0.01265 0.67503 0.0
C686 C 0.11618 0.97467 0.51083 0.0
C687 C 0.13492 0.95345 0.52539 0.0
N688 N 0.18505 0.94384 0.62345 0.0
N689 N 0.11871 0.03173 0.55509 0.0
C690 C 0.16226 0.96043 0.61916 0.0
C691 C 0.12939 0.00635 0.58082 0.0
N692 N 0.18839 0.9908 0.80389 0.0
N693 N 0.08624 0.96455 0.42917 0.0
H694 H 0.12762 0.05478 0.60684 0.0
H695 H 0.10284 0.03086 0.48035 0.0
H696 H 0.07662 0.94147 0.37687 0.0
H697 H 0.069 0.97717 0.41957 0.0
H698 H 0.1955 0.97148 0.83291 0.0
H699 H 0.19403 0.01125 0.86416 0.0
H700 H 0.20847 0.95092 0.68346 0.0
H701 H 0.18363 0.92568 0.56021 0.0
C702 C 0.92229 0.17569 0.73948 0.0
C703 C 0.89777 0.18386 0.66667 0.0
C704 C 0.95805 0.22506 0.55319 0.0
C705 C 0.9813 0.21387 0.61822 0.0
N706 N 0.98656 0.17693 0.76538 0.0
N707 N 0.89126 0.21204 0.49197 0.0
C708 C 0.96362 0.1886 0.70907 0.0
C709 C 0.91537 0.2076 0.57056 0.0
N710 N 0.90667 0.15723 0.84036 0.0
N711 N 0.9771 0.25298 0.47608 0.0
H712 H 0.8597 0.19954 0.49893 0.0
H713 H 0.90199 0.22546 0.41352 0.0
H714 H 0.00819 0.2655 0.45791 0.0
H715 H 0.96284 0.26569 0.43703 0.0
H716 H 0.92403 0.15335 0.90238 0.0
H717 H 0.87701 0.14862 0.8673 0.0
H718 H 0.97464 0.15574 0.82492 0.0
H719 H 0.01727 0.18696 0.74608 0.0
C720 C 0.26753 0.26987 0.76777 0.0
C721 C 0.25655 0.23691 0.70877 0.0
C722 C 0.22031 0.25188 0.56218 0.0
C723 C 0.23335 0.28582 0.61903 0.0
N724 N 0.28392 0.3321 0.74812 0.0
N725 N 0.23046 0.20052 0.53371 0.0
C726 C 0.26151 0.29653 0.71302 0.0
C727 C 0.23493 0.22881 0.60156 0.0
N728 N 0.28249 0.2753 0.87827 0.0
N729 N 0.19474 0.24209 0.46843 0.0
H730 H 0.2413 0.18331 0.55686 0.0
H731 H 0.21933 0.19604 0.44912 0.0
H732 H 0.18815 0.26025 0.42667 0.0
H733 H 0.17934 0.21576 0.43391 0.0
H734 H 0.28751 0.29754 0.9292 0.0
H735 H 0.28502 0.25534 0.92335 0.0
H736 H 0.30671 0.34097 0.81127 0.0
H737 H 0.28403 0.35358 0.70537 0.0
C738 C 0.69122 0.95732 0.3071 0.0
C739 C 0.71234 0.93811 0.29299 0.0
C740 C 0.75661 0.9705 0.45761 0.0
C741 C 0.73134 0.98502 0.48377 0.0
N742 N 0.67941 -0.00147 0.42566 0.0
N743 N 0.77852 0.9436 0.31013 0.0
C744 C 0.70028 0.98069 0.40507 0.0
C745 C 0.74945 0.95007 0.3542 0.0
N746 N 0.6642 0.95421 0.22327 0.0
N747 N 0.7866 0.97542 0.53361 0.0
H748 H 0.77593 0.93275 0.22724 0.0
H749 H 0.80721 0.95353 0.3479 0.0
H750 H 0.79254 0.99065 0.60979 0.0
H751 H 0.80331 0.96223 0.52527 0.0
H752 H 0.6484 0.96828 0.22326 0.0
H753 H 0.66076 0.93976 0.14673 0.0
H754 H 0.65455 -0.00506 0.37701 0.0
H755 H 0.68677 0.01708 0.49367 0.0
C756 C 0.98273 0.68965 0.58097 0.0
C757 C 0.96537 0.70824 0.63783 0.0
C758 C 4e-05 0.7591 0.50523 0.0
C759 C 0.01914 0.74183 0.45056 0.0
N760 N 0.01668 0.68522 0.40917 0.0
N761 N 0.97526 0.76744 0.68723 0.0
C762 C 0.0072 0.70543 0.48098 0.0
C763 C 0.97967 0.74517 0.61054 0.0
N764 N 0.97804 0.65829 0.62731 0.0
N765 N -0.00108 0.78734 0.45324 0.0
H766 H 0.96445 0.75898 0.77099 0.0
H767 H 0.98757 0.79528 0.67285 0.0
H768 H 0.00864 0.79501 0.36828 0.0
H769 H 0.98296 0.79917 0.48797 0.0
H770 H -0.00765 0.64469 0.59516 0.0
H771 H 0.96417 0.64873 0.70737 0.0
H772 H 0.00638 0.65764 0.42126 0.0
H773 H 0.03028 0.69502 0.32889 0.0
loop_
_geom_bond_atom_site_label_1
_geom_bond_atom_site_label_2
_geom_bond_distance
_geom_bond_site_symmetry_2
_ccdc_geom_bond_type
Zn0 O1 2.055 1_455 S
Zn0 O8 2.046 1_455 S
Zn0 N16 2.036 . S
Zn0 O28 2.053 . S
Zn0 O30 2.066 . S
O1 Zn0 2.055 1_655 S
O1 C4 1.259 . S
C2 O30 1.256 . S
C2 O31 1.244 . S
Zn3 O5 2.046 1_455 S
Zn3 O7 2.055 . S
Zn3 N9 2.036 . S
Zn3 O27 2.066 . S
Zn3 O31 2.053 1_556 S
C4 O1 1.259 . S
C4 O5 1.254 1_554 S
O5 Zn3 2.046 1_655 S
O5 C4 1.254 1_556 S
C6 O27 1.256 1_554 S
C6 O28 1.244 . S
O7 Zn3 2.055 . S
O7 C29 1.259 1_456 S
O8 Zn0 2.046 1_655 S
O8 C29 1.254 . S
N9 Zn3 2.036 . S
N9 C10 1.298 . S
N9 N12 1.398 . S
C10 N9 1.298 . S
C10 N13 1.367 . S
C10 C23 1.481 . S
C11 N12 1.299 . S
C11 N13 1.379 . S
N12 N9 1.398 . S
N12 C11 1.299 . S
N13 C10 1.367 . S
N13 C11 1.379 . S
C14 N16 1.298 . S
C14 N18 1.367 . S
C14 C22 1.481 1_455 S
C15 N17 1.299 . S
C15 N18 1.379 . S
N16 Zn0 2.036 . S
N16 C14 1.298 . S
N16 N17 1.398 . S
N17 C15 1.299 . S
N17 N16 1.398 . S
N18 C14 1.367 . S
N18 C15 1.379 . S
H19 C22 0.980 . S
H20 C22 0.981 . S
H21 C22 0.981 1_455 S
C22 C14 1.481 1_655 S
C22 H19 0.980 . S
C22 H20 0.981 . S
C22 H21 0.981 1_655 S
C23 C10 1.481 . S
C23 H24 0.980 . S
C23 H25 0.981 . S
C23 H26 0.981 . S
H24 C23 0.980 . S
H25 C23 0.981 . S
H26 C23 0.981 . S
O27 Zn3 2.066 . S
O27 C6 1.256 1_556 S
O28 Zn0 2.053 . S
O28 C6 1.244 . S
C29 O7 1.259 1_654 S
C29 O8 1.254 . S
O30 Zn0 2.066 . S
O30 C2 1.256 . S
O31 C2 1.244 . S
O31 Zn3 2.053 1_554 S
Zn32 O33 2.055 . S
Zn32 O40 2.046 . S
Zn32 N48 2.036 . S
Zn32 O60 2.053 . S
Zn32 O62 2.066 . S
O33 Zn32 2.055 . S
O33 C36 1.259 . S
C34 O62 1.256 . S
C34 O63 1.244 1_554 S
Zn35 O37 2.046 . S
Zn35 O39 2.055 . S
Zn35 N41 2.036 . S
Zn35 O59 2.066 . S
Zn35 O63 2.053 . S
C36 O33 1.259 . S
C36 O37 1.254 1_554 S
O37 Zn35 2.046 . S
O37 C36 1.254 1_556 S
C38 O59 1.256 . S
C38 O60 1.244 1_556 S
O39 Zn35 2.055 . S
O39 C61 1.259 1_556 S
O40 Zn32 2.046 . S
O40 C61 1.254 . S
N41 Zn35 2.036 . S
N41 C42 1.298 . S
N41 N44 1.398 . S
C42 N41 1.298 . S
C42 N45 1.367 . S
C42 C55 1.481 . S
C43 N44 1.299 . S
C43 N45 1.379 . S
N44 N41 1.398 . S
N44 C43 1.299 . S
N45 C42 1.367 . S
N45 C43 1.379 . S
C46 N48 1.298 . S
C46 N50 1.367 . S
C46 C54 1.481 . S
C47 N49 1.299 . S
C47 N50 1.379 . S
N48 Zn32 2.036 . S
N48 C46 1.298 . S
N48 N49 1.398 . S
N49 C47 1.299 . S
N49 N48 1.398 . S
N50 C46 1.367 . S
N50 C47 1.379 . S
H51 C54 0.980 . S
H52 C54 0.981 . S
H53 C54 0.981 . S
C54 C46 1.481 . S
C54 H51 0.980 . S
C54 H52 0.981 . S
C54 H53 0.981 . S
C55 C42 1.481 . S
C55 H56 0.980 . S
C55 H57 0.981 . S
C55 H58 0.981 . S
H56 C55 0.980 . S
H57 C55 0.981 . S
H58 C55 0.981 . S
O59 Zn35 2.066 . S
O59 C38 1.256 . S
O60 Zn32 2.053 . S
O60 C38 1.244 1_554 S
C61 O39 1.259 1_554 S
C61 O40 1.254 . S
O62 Zn32 2.066 . S
O62 C34 1.256 . S
O63 C34 1.244 1_556 S
O63 Zn35 2.053 . S
Zn64 O65 2.055 . S
Zn64 O72 2.046 . S
Zn64 N80 2.036 . S
Zn64 O92 2.053 1_545 S
Zn64 O94 2.066 1_545 S
O65 Zn64 2.055 . S
O65 C68 1.259 1_554 S
C66 O94 1.256 . S
C66 O95 1.244 1_554 S
Zn67 O69 2.046 . S
Zn67 O71 2.055 . S
Zn67 N73 2.036 1_545 S
Zn67 O91 2.066 1_545 S
Zn67 O95 2.053 1_545 S
C68 O65 1.259 1_556 S
C68 O69 1.254 . S
O69 Zn67 2.046 . S
O69 C68 1.254 . S
C70 O91 1.256 . S
C70 O92 1.244 1_556 S
O71 Zn67 2.055 . S
O71 C93 1.259 . S
O72 Zn64 2.046 . S
O72 C93 1.254 1_554 S
N73 Zn67 2.036 1_565 S
N73 C74 1.298 . S
N73 N76 1.398 . S
C74 N73 1.298 . S
C74 N77 1.367 . S
C74 C87 1.481 1_565 S
C75 N76 1.299 . S
C75 N77 1.379 . S
N76 N73 1.398 . S
N76 C75 1.299 . S
N77 C74 1.367 . S
N77 C75 1.379 . S
C78 N80 1.298 . S
C78 N82 1.367 . S
C78 C86 1.481 . S
C79 N81 1.299 . S
C79 N82 1.379 . S
N80 Zn64 2.036 . S
N80 C78 1.298 . S
N80 N81 1.398 . S
N81 C79 1.299 . S
N81 N80 1.398 . S
N82 C78 1.367 . S
N82 C79 1.379 . S
H83 C86 0.980 . S
H84 C86 0.981 . S
H85 C86 0.981 . S
C86 C78 1.481 . S
C86 H83 0.980 . S
C86 H84 0.981 . S
C86 H85 0.981 . S
C87 C74 1.481 1_545 S
C87 H88 0.980 . S
C87 H89 0.981 . S
C87 H90 0.981 1_545 S
H88 C87 0.980 . S
H89 C87 0.981 . S
H90 C87 0.981 1_565 S
O91 Zn67 2.066 1_565 S
O91 C70 1.256 . S
O92 Zn64 2.053 1_565 S
O92 C70 1.244 1_554 S
C93 O71 1.259 . S
C93 O72 1.254 1_556 S
O94 Zn64 2.066 1_565 S
O94 C66 1.256 . S
O95 C66 1.244 1_556 S
O95 Zn67 2.053 1_565 S
Zn96 O97 2.055 . S
Zn96 O104 2.046 . S
Zn96 N112 2.036 . S
Zn96 O124 2.053 . S
Zn96 O126 2.066 . S
O97 Zn96 2.055 . S
O97 C100 1.259 . S
C98 O126 1.256 . S
C98 O127 1.244 . S
Zn99 O101 2.046 . S
Zn99 O103 2.055 . S
Zn99 N105 2.036 . S
Zn99 O123 2.066 . S
Zn99 O127 2.053 . S
C100 O97 1.259 . S
C100 O101 1.254 . S
O101 Zn99 2.046 . S
O101 C100 1.254 . S
C102 O123 1.256 . S
C102 O124 1.244 . S
O103 Zn99 2.055 . S
O103 C125 1.259 1_554 S
O104 Zn96 2.046 . S
O104 C125 1.254 1_554 S
N105 Zn99 2.036 . S
N105 C106 1.298 . S
N105 N108 1.398 . S
C106 N105 1.298 . S
C106 N109 1.367 . S
C106 C119 1.481 1_554 S
C107 N108 1.299 . S
C107 N109 1.379 . S
N108 N105 1.398 . S
N108 C107 1.299 . S
N109 C106 1.367 . S
N109 C107 1.379 . S
C110 N112 1.298 . S
C110 N114 1.367 . S
C110 C118 1.481 . S
C111 N113 1.299 . S
C111 N114 1.379 . S
N112 Zn96 2.036 . S
N112 C110 1.298 . S
N112 N113 1.398 . S
N113 C111 1.299 . S
N113 N112 1.398 . S
N114 C110 1.367 . S
N114 C111 1.379 . S
H115 C118 0.980 . S
H116 C118 0.981 . S
H117 C118 0.981 . S
C118 C110 1.481 . S
C118 H115 0.980 . S
C118 H116 0.981 . S
C118 H117 0.981 . S
C119 C106 1.481 1_556 S
C119 H120 0.980 . S
C119 H121 0.981 . S
C119 H122 0.981 . S
H120 C119 0.980 . S
H121 C119 0.981 . S
H122 C119 0.981 . S
O123 Zn99 2.066 . S
O123 C102 1.256 . S
O124 Zn96 2.053 . S
O124 C102 1.244 . S
C125 O103 1.259 1_556 S
C125 O104 1.254 1_556 S
O126 Zn96 2.066 . S
O126 C98 1.256 . S
O127 C98 1.244 . S
O127 Zn99 2.053 . S
Zn128 O129 2.055 . S
Zn128 O136 2.046 . S
Zn128 N144 2.036 . S
Zn128 O156 2.053 . S
Zn128 O158 2.066 . S
O129 Zn128 2.055 . S
O129 C132 1.259 . S
C130 O158 1.256 . S
C130 O159 1.244 . S
Zn131 O133 2.046 . S
Zn131 O135 2.055 . S
Zn131 N137 2.036 . S
Zn131 O155 2.066 . S
Zn131 O159 2.053 . S
C132 O129 1.259 . S
C132 O133 1.254 . S
O133 Zn131 2.046 . S
O133 C132 1.254 . S
C134 O155 1.256 . S
C134 O156 1.244 . S
O135 Zn131 2.055 . S
O135 C157 1.259 . S
O136 Zn128 2.046 . S
O136 C157 1.254 . S
N137 Zn131 2.036 . S
N137 C138 1.298 . S
N137 N140 1.398 . S
C138 N137 1.298 . S
C138 N141 1.367 . S
C138 C151 1.481 . S
C139 N140 1.299 . S
C139 N141 1.379 . S
N140 N137 1.398 . S
N140 C139 1.299 . S
N141 C138 1.367 . S
N141 C139 1.379 . S
C142 N144 1.298 . S
C142 N146 1.367 . S
C142 C150 1.481 . S
C143 N145 1.299 . S
C143 N146 1.379 . S
N144 Zn128 2.036 . S
N144 C142 1.298 . S
N144 N145 1.398 . S
N145 C143 1.299 . S
N145 N144 1.398 . S
N146 C142 1.367 . S
N146 C143 1.379 . S
H147 C150 0.980 . S
H148 C150 0.981 . S
H149 C150 0.981 . S
C150 C142 1.481 . S
C150 H147 0.980 . S
C150 H148 0.981 . S
C150 H149 0.981 . S
C151 C138 1.481 . S
C151 H152 0.980 . S
C151 H153 0.981 1_554 S
C151 H154 0.981 . S
H152 C151 0.980 . S
H153 C151 0.981 1_556 S
H154 C151 0.981 . S
O155 Zn131 2.066 . S
O155 C134 1.256 . S
O156 Zn128 2.053 . S
O156 C134 1.244 . S
C157 O135 1.259 . S
C157 O136 1.254 . S
O158 Zn128 2.066 . S
O158 C130 1.256 . S
O159 C130 1.244 . S
O159 Zn131 2.053 . S
Zn160 O161 2.055 . S
Zn160 O168 2.046 . S
Zn160 N176 2.036 . S
Zn160 O188 2.053 . S
Zn160 O190 2.066 . S
O161 Zn160 2.055 . S
O161 C164 1.259 . S
C162 O190 1.256 . S
C162 O191 1.244 . S
Zn163 O165 2.046 . S
Zn163 O167 2.055 . S
Zn163 N169 2.036 . S
Zn163 O187 2.066 . S
Zn163 O191 2.053 . S
C164 O161 1.259 . S
C164 O165 1.254 . S
O165 Zn163 2.046 . S
O165 C164 1.254 . S
C166 O187 1.256 . S
C166 O188 1.244 . S
O167 Zn163 2.055 . S
O167 C189 1.259 . S
O168 Zn160 2.046 . S
O168 C189 1.254 . S
N169 Zn163 2.036 . S
N169 C170 1.298 . S
N169 N172 1.398 . S
C170 N169 1.298 . S
C170 N173 1.367 . S
C170 C183 1.481 . S
C171 N172 1.299 . S
C171 N173 1.379 . S
N172 N169 1.398 . S
N172 C171 1.299 . S
N173 C170 1.367 . S
N173 C171 1.379 . S
C174 N176 1.298 . S
C174 N178 1.367 1_455 S
C174 C182 1.481 . S
C175 N177 1.299 1_655 S
C175 N178 1.379 . S
N176 Zn160 2.036 . S
N176 C174 1.298 . S
N176 N177 1.398 . S
N177 C175 1.299 1_455 S
N177 N176 1.398 . S
N178 C174 1.367 1_655 S
N178 C175 1.379 . S
H179 C182 0.980 . S
H180 C182 0.981 . S
H181 C182 0.981 . S
C182 C174 1.481 . S
C182 H179 0.980 . S
C182 H180 0.981 . S
C182 H181 0.981 . S
C183 C170 1.481 . S
C183 H184 0.980 . S
C183 H185 0.981 . S
C183 H186 0.981 . S
H184 C183 0.980 . S
H185 C183 0.981 . S
H186 C183 0.981 . S
O187 Zn163 2.066 . S
O187 C166 1.256 . S
O188 Zn160 2.053 . S
O188 C166 1.244 . S
C189 O167 1.259 . S
C189 O168 1.254 . S
O190 Zn160 2.066 . S
O190 C162 1.256 . S
O191 C162 1.244 . S
O191 Zn163 2.053 . S
Zn192 O193 2.055 . S
Zn192 O200 2.046 . S
Zn192 N208 2.036 . S
Zn192 O220 2.053 . S
Zn192 O222 2.066 . S
O193 Zn192 2.055 . S
O193 C196 1.259 1_556 S
C194 O222 1.256 . S
C194 O223 1.244 . S
Zn195 O197 2.046 . S
Zn195 O199 2.055 . S
Zn195 N201 2.036 . S
Zn195 O219 2.066 . S
Zn195 O223 2.053 . S
C196 O193 1.259 1_554 S
C196 O197 1.254 1_554 S
O197 Zn195 2.046 . S
O197 C196 1.254 1_556 S
C198 O219 1.256 . S
C198 O220 1.244 . S
O199 Zn195 2.055 . S
O199 C221 1.259 . S
O200 Zn192 2.046 . S
O200 C221 1.254 . S
N201 Zn195 2.036 . S
N201 C202 1.298 . S
N201 N204 1.398 . S
C202 N201 1.298 . S
C202 N205 1.367 . S
C202 C215 1.481 . S
C203 N204 1.299 . S
C203 N205 1.379 . S
N204 N201 1.398 . S
N204 C203 1.299 . S
N205 C202 1.367 . S
N205 C203 1.379 . S
C206 N208 1.298 . S
C206 N210 1.367 . S
C206 C214 1.481 1_556 S
C207 N209 1.299 . S
C207 N210 1.379 . S
N208 Zn192 2.036 . S
N208 C206 1.298 . S
N208 N209 1.398 . S
N209 C207 1.299 . S
N209 N208 1.398 . S
N210 C206 1.367 . S
N210 C207 1.379 . S
H211 C214 0.980 . S
H212 C214 0.981 . S
H213 C214 0.981 . S
C214 C206 1.481 1_554 S
C214 H211 0.980 . S
C214 H212 0.981 . S
C214 H213 0.981 . S
C215 C202 1.481 . S
C215 H216 0.980 . S
C215 H217 0.981 . S
C215 H218 0.981 . S
H216 C215 0.980 . S
H217 C215 0.981 . S
H218 C215 0.981 . S
O219 Zn195 2.066 . S
O219 C198 1.256 . S
O220 Zn192 2.053 . S
O220 C198 1.244 . S
C221 O199 1.259 . S
C221 O200 1.254 . S
O222 Zn192 2.066 . S
O222 C194 1.256 . S
O223 C194 1.244 . S
O223 Zn195 2.053 . S
Zn224 O225 2.055 . S
Zn224 O232 2.046 . S
Zn224 N240 2.036 . S
Zn224 O252 2.053 . S
Zn224 O254 2.066 . S
O225 Zn224 2.055 . S
O225 C228 1.259 . S
C226 O254 1.256 . S
C226 O255 1.244 . S
Zn227 O229 2.046 . S
Zn227 O231 2.055 . S
Zn227 N233 2.036 . S
Zn227 O251 2.066 . S
Zn227 O255 2.053 . S
C228 O225 1.259 . S
C228 O229 1.254 . S
O229 Zn227 2.046 . S
O229 C228 1.254 . S
C230 O251 1.256 . S
C230 O252 1.244 . S
O231 Zn227 2.055 . S
O231 C253 1.259 . S
O232 Zn224 2.046 . S
O232 C253 1.254 . S
N233 Zn227 2.036 . S
N233 C234 1.298 . S
N233 N236 1.398 . S
C234 N233 1.298 . S
C234 N237 1.367 1_545 S
C234 C247 1.481 . S
C235 N236 1.299 1_565 S
C235 N237 1.379 . S
N236 N233 1.398 . S
N236 C235 1.299 1_545 S
N237 C234 1.367 1_565 S
N237 C235 1.379 . S
C238 N240 1.298 . S
C238 N242 1.367 . S
C238 C246 1.481 . S
C239 N241 1.299 . S
C239 N242 1.379 . S
N240 Zn224 2.036 . S
N240 C238 1.298 . S
N240 N241 1.398 . S
N241 C239 1.299 . S
N241 N240 1.398 . S
N242 C238 1.367 . S
N242 C239 1.379 . S
H243 C246 0.980 . S
H244 C246 0.981 . S
H245 C246 0.981 1_554 S
C246 C238 1.481 . S
C246 H243 0.980 . S
C246 H244 0.981 . S
C246 H245 0.981 1_556 S
C247 C234 1.481 . S
C247 H248 0.980 . S
C247 H249 0.981 . S
C247 H250 0.981 . S
H248 C247 0.980 . S
H249 C247 0.981 . S
H250 C247 0.981 . S
O251 Zn227 2.066 . S
O251 C230 1.256 . S
O252 Zn224 2.053 . S
O252 C230 1.244 . S
C253 O231 1.259 . S
C253 O232 1.254 . S
O254 Zn224 2.066 . S
O254 C226 1.256 . S
O255 C226 1.244 . S
O255 Zn227 2.053 . S
Zn256 O257 2.055 . S
Zn256 O264 2.046 . S
Zn256 N272 2.036 . S
Zn256 O284 2.053 . S
Zn256 O286 2.066 . S
O257 Zn256 2.055 . S
O257 C260 1.259 . S
C258 O286 1.256 . S
C258 O287 1.244 . S
Zn259 O261 2.046 . S
Zn259 O263 2.055 . S
Zn259 N265 2.036 . S
Zn259 O283 2.066 . S
Zn259 O287 2.053 . S
C260 O257 1.259 . S
C260 O261 1.254 . S
O261 Zn259 2.046 . S
O261 C260 1.254 . S
C262 O283 1.256 . S
C262 O284 1.244 . S
O263 Zn259 2.055 . S
O263 C285 1.259 . S
O264 Zn256 2.046 . S
O264 C285 1.254 . S
N265 Zn259 2.036 . S
N265 C266 1.298 . S
N265 N268 1.398 . S
C266 N265 1.298 . S
C266 N269 1.367 . S
C266 C279 1.481 . S
C267 N268 1.299 . S
C267 N269 1.379 . S
N268 N265 1.398 . S
N268 C267 1.299 . S
N269 C266 1.367 . S
N269 C267 1.379 . S
C270 N272 1.298 . S
C270 N274 1.367 . S
C270 C278 1.481 . S
C271 N273 1.299 . S
C271 N274 1.379 . S
N272 Zn256 2.036 . S
N272 C270 1.298 . S
N272 N273 1.398 . S
N273 C271 1.299 . S
N273 N272 1.398 . S
N274 C270 1.367 . S
N274 C271 1.379 . S
H275 C278 0.980 . S
H276 C278 0.981 1_554 S
H277 C278 0.981 . S
C278 C270 1.481 . S
C278 H275 0.980 . S
C278 H276 0.981 1_556 S
C278 H277 0.981 . S
C279 C266 1.481 . S
C279 H280 0.980 . S
C279 H281 0.981 . S
C279 H282 0.981 . S
H280 C279 0.980 . S
H281 C279 0.981 . S
H282 C279 0.981 . S
O283 Zn259 2.066 . S
O283 C262 1.256 . S
O284 Zn256 2.053 . S
O284 C262 1.244 . S
C285 O263 1.259 . S
C285 O264 1.254 . S
O286 Zn256 2.066 . S
O286 C258 1.256 . S
O287 C258 1.244 . S
O287 Zn259 2.053 . S
C288 C289 1.363 . S
C288 C294 1.379 . S
C288 N296 1.356 . S
C289 C288 1.363 . S
C289 C295 1.363 . S
C290 C291 1.363 . S
C290 C295 1.379 . S
C290 N297 1.356 . S
C291 C290 1.363 . S
C291 C294 1.363 . S
N292 C294 1.356 1_655 S
N292 H304 0.985 1_655 S
N292 H305 0.985 . S
N293 C295 1.356 . S
N293 H298 0.984 . S
N293 H299 0.985 . S
C294 C288 1.379 . S
C294 C291 1.363 . S
C294 N292 1.356 1_455 S
C295 C289 1.363 . S
C295 C290 1.379 . S
C295 N293 1.356 . S
N296 C288 1.356 . S
N296 H302 0.984 . S
N296 H303 0.984 . S
N297 C290 1.356 . S
N297 H300 0.984 1_455 S
N297 H301 0.985 . S
H298 N293 0.984 . S
H299 N293 0.985 . S
H300 N297 0.984 1_655 S
H301 N297 0.985 . S
H302 N296 0.984 . S
H303 N296 0.984 . S
H304 N292 0.985 1_455 S
H305 N292 0.985 . S
C306 C307 1.363 . S
C306 C312 1.379 . S
C306 N314 1.356 . S
C307 C306 1.363 . S
C307 C313 1.363 . S
C308 C309 1.363 . S
C308 C313 1.379 . S
C308 N315 1.356 . S
C309 C308 1.363 . S
C309 C312 1.363 . S
N310 C312 1.356 . S
N310 H322 0.984 . S
N310 H323 0.985 . S
N311 C313 1.356 . S
N311 H316 0.984 . S
N311 H317 0.985 . S
C312 C306 1.379 . S
C312 C309 1.363 . S
C312 N310 1.356 . S
C313 C307 1.363 . S
C313 C308 1.379 . S
C313 N311 1.356 . S
N314 C306 1.356 . S
N314 H320 0.984 . S
N314 H321 0.984 . S
N315 C308 1.356 . S
N315 H318 0.984 . S
N315 H319 0.985 . S
H316 N311 0.984 . S
H317 N311 0.985 . S
H318 N315 0.984 . S
H319 N315 0.985 . S
H320 N314 0.984 . S
H321 N314 0.984 . S
H322 N310 0.984 . S
H323 N310 0.985 . S
C324 C325 1.363 . S
C324 C330 1.379 1_565 S
C324 N332 1.356 . S
C325 C324 1.363 . S
C325 C331 1.363 . S
C326 C327 1.363 . S
C326 C331 1.379 1_545 S
C326 N333 1.356 . S
C327 C326 1.363 . S
C327 C330 1.363 . S
N328 C330 1.356 . S
N328 H340 0.984 . S
N328 H341 0.985 . S
N329 C331 1.356 . S
N329 H334 0.984 . S
N329 H335 0.985 . S
C330 C324 1.379 1_545 S
C330 C327 1.363 . S
C330 N328 1.356 . S
C331 C325 1.363 . S
C331 C326 1.379 1_565 S
C331 N329 1.356 . S
N332 C324 1.356 . S
N332 H338 0.984 . S
N332 H339 0.984 . S
N333 C326 1.356 . S
N333 H336 0.984 . S
N333 H337 0.985 . S
H334 N329 0.984 . S
H335 N329 0.985 . S
H336 N333 0.984 . S
H337 N333 0.985 . S
H338 N332 0.984 . S
H339 N332 0.984 . S
H340 N328 0.984 . S
H341 N328 0.985 . S
C342 C343 1.363 . S
C342 C348 1.379 . S
C342 N350 1.356 . S
C343 C342 1.363 . S
C343 C349 1.363 . S
C344 C345 1.363 . S
C344 C349 1.379 . S
C344 N351 1.356 . S
C345 C344 1.363 . S
C345 C348 1.363 . S
N346 C348 1.356 . S
N346 H358 0.984 . S
N346 H359 0.985 . S
N347 C349 1.356 . S
N347 H352 0.984 . S
N347 H353 0.985 . S
C348 C342 1.379 . S
C348 C345 1.363 . S
C348 N346 1.356 . S
C349 C343 1.363 . S
C349 C344 1.379 . S
C349 N347 1.356 . S
N350 C342 1.356 . S
N350 H356 0.984 . S
N350 H357 0.984 . S
N351 C344 1.356 . S
N351 H354 0.984 . S
N351 H355 0.985 . S
H352 N347 0.984 . S
H353 N347 0.985 . S
H354 N351 0.984 . S
H355 N351 0.985 . S
H356 N350 0.984 . S
H357 N350 0.984 . S
H358 N346 0.984 . S
H359 N346 0.985 . S
C360 C361 1.363 . S
C360 C366 1.379 . S
C360 N368 1.356 . S
C361 C360 1.363 . S
C361 C367 1.363 . S
C362 C363 1.363 . S
C362 C367 1.379 . S
C362 N369 1.356 . S
C363 C362 1.363 . S
C363 C366 1.363 . S
N364 C366 1.356 . S
N364 H376 0.984 . S
N364 H377 0.985 . S
N365 C367 1.356 . S
N365 H370 0.984 . S
N365 H371 0.985 . S
C366 C360 1.379 . S
C366 C363 1.363 . S
C366 N364 1.356 . S
C367 C361 1.363 . S
C367 C362 1.379 . S
C367 N365 1.356 . S
N368 C360 1.356 . S
N368 H374 0.984 . S
N368 H375 0.984 . S
N369 C362 1.356 . S
N369 H372 0.984 . S
N369 H373 0.985 . S
H370 N365 0.984 . S
H371 N365 0.985 . S
H372 N369 0.984 . S
H373 N369 0.985 . S
H374 N368 0.984 . S
H375 N368 0.984 . S
H376 N364 0.984 . S
H377 N364 0.985 . S
C378 C379 1.363 . S
C378 C384 1.379 . S
C378 N386 1.356 . S
C379 C378 1.363 . S
C379 C385 1.363 . S
C380 C381 1.363 . S
C380 C385 1.379 . S
C380 N387 1.356 1_556 S
C381 C380 1.363 . S
C381 C384 1.363 . S
N382 C384 1.356 . S
N382 H394 0.984 . S
N382 H395 0.985 1_556 S
N383 C385 1.356 . S
N383 H388 0.984 . S
N383 H389 0.985 . S
C384 C378 1.379 . S
C384 C381 1.363 . S
C384 N382 1.356 . S
C385 C379 1.363 . S
C385 C380 1.379 . S
C385 N383 1.356 . S
N386 C378 1.356 . S
N386 H392 0.984 . S
N386 H393 0.984 . S
N387 C380 1.356 1_554 S
N387 H390 0.984 . S
N387 H391 0.985 . S
H388 N383 0.984 . S
H389 N383 0.985 . S
H390 N387 0.984 . S
H391 N387 0.985 . S
H392 N386 0.984 . S
H393 N386 0.984 . S
H394 N382 0.984 . S
H395 N382 0.985 1_554 S
C396 C397 1.363 . S
C396 C402 1.379 . S
C396 N404 1.356 . S
C397 C396 1.363 . S
C397 C403 1.363 . S
C398 C399 1.363 . S
C398 C403 1.379 . S
C398 N405 1.356 . S
C399 C398 1.363 . S
C399 C402 1.363 . S
N400 C402 1.356 . S
N400 H412 0.984 . S
N400 H413 0.985 . S
N401 C403 1.356 . S
N401 H406 0.984 . S
N401 H407 0.985 . S
C402 C396 1.379 . S
C402 C399 1.363 . S
C402 N400 1.356 . S
C403 C397 1.363 . S
C403 C398 1.379 . S
C403 N401 1.356 . S
N404 C396 1.356 . S
N404 H410 0.984 . S
N404 H411 0.984 . S
N405 C398 1.356 . S
N405 H408 0.984 . S
N405 H409 0.985 . S
H406 N401 0.984 . S
H407 N401 0.985 . S
H408 N405 0.984 . S
H409 N405 0.985 . S
H410 N404 0.984 . S
H411 N404 0.984 . S
H412 N400 0.984 . S
H413 N400 0.985 . S
C414 C415 1.363 . S
C414 C420 1.379 . S
C414 N422 1.356 . S
C415 C414 1.363 . S
C415 C421 1.363 . S
C416 C417 1.363 . S
C416 C421 1.379 . S
C416 N423 1.356 . S
C417 C416 1.363 . S
C417 C420 1.363 . S
N418 C420 1.356 . S
N418 H430 0.984 . S
N418 H431 0.985 . S
N419 C421 1.356 . S
N419 H424 0.984 . S
N419 H425 0.985 . S
C420 C414 1.379 . S
C420 C417 1.363 . S
C420 N418 1.356 . S
C421 C415 1.363 . S
C421 C416 1.379 . S
C421 N419 1.356 . S
N422 C414 1.356 . S
N422 H428 0.984 . S
N422 H429 0.984 . S
N423 C416 1.356 . S
N423 H426 0.984 1_554 S
N423 H427 0.985 . S
H424 N419 0.984 . S
H425 N419 0.985 . S
H426 N423 0.984 1_556 S
H427 N423 0.985 . S
H428 N422 0.984 . S
H429 N422 0.984 . S
H430 N418 0.984 . S
H431 N418 0.985 . S
C432 C433 1.363 . S
C432 C438 1.379 . S
C432 N440 1.356 . S
C433 C432 1.363 . S
C433 C439 1.363 . S
C434 C435 1.363 . S
C434 C439 1.379 . S
C434 N441 1.356 . S
C435 C434 1.363 . S
C435 C438 1.363 . S
N436 C438 1.356 . S
N436 H448 0.984 . S
N436 H449 0.985 1_554 S
N437 C439 1.356 . S
N437 H442 0.984 . S
N437 H443 0.985 . S
C438 C432 1.379 . S
C438 C435 1.363 . S
C438 N436 1.356 . S
C439 C433 1.363 . S
C439 C434 1.379 . S
C439 N437 1.356 . S
N440 C432 1.356 . S
N440 H446 0.984 . S
N440 H447 0.984 . S
N441 C434 1.356 . S
N441 H444 0.984 . S
N441 H445 0.985 . S
H442 N437 0.984 . S
H443 N437 0.985 . S
H444 N441 0.984 . S
H445 N441 0.985 . S
H446 N440 0.984 . S
H447 N440 0.984 . S
H448 N436 0.984 . S
H449 N436 0.985 1_556 S
C450 C451 1.363 . S
C450 C456 1.379 . S
C450 N458 1.356 . S
C451 C450 1.363 . S
C451 C457 1.363 . S
C452 C453 1.363 . S
C452 C457 1.379 . S
C452 N459 1.356 . S
C453 C452 1.363 . S
C453 C456 1.363 . S
N454 C456 1.356 . S
N454 H466 0.984 . S
N454 H467 0.985 . S
N455 C457 1.356 . S
N455 H460 0.984 . S
N455 H461 0.985 . S
C456 C450 1.379 . S
C456 C453 1.363 . S
C456 N454 1.356 . S
C457 C451 1.363 . S
C457 C452 1.379 . S
C457 N455 1.356 . S
N458 C450 1.356 . S
N458 H464 0.984 . S
N458 H465 0.984 . S
N459 C452 1.356 . S
N459 H462 0.984 . S
N459 H463 0.985 . S
H460 N455 0.984 . S
H461 N455 0.985 . S
H462 N459 0.984 . S
H463 N459 0.985 . S
H464 N458 0.984 . S
H465 N458 0.984 . S
H466 N454 0.984 . S
H467 N454 0.985 . S
C468 C469 1.363 1_556 S
C468 C474 1.379 1_556 S
C468 N476 1.356 . S
C469 C468 1.363 1_554 S
C469 C475 1.363 . S
C470 C471 1.363 . S
C470 C475 1.379 . S
C470 N477 1.356 . S
C471 C470 1.363 . S
C471 C474 1.363 . S
N472 C474 1.356 1_556 S
N472 H484 0.984 . S
N472 H485 0.985 1_556 S
N473 C475 1.356 . S
N473 H478 0.984 . S
N473 H479 0.985 . S
C474 C468 1.379 1_554 S
C474 C471 1.363 . S
C474 N472 1.356 1_554 S
C475 C469 1.363 . S
C475 C470 1.379 . S
C475 N473 1.356 . S
N476 C468 1.356 . S
N476 H482 0.984 . S
N476 H483 0.984 . S
N477 C470 1.356 . S
N477 H480 0.984 . S
N477 H481 0.985 . S
H478 N473 0.984 . S
H479 N473 0.985 . S
H480 N477 0.984 . S
H481 N477 0.985 . S
H482 N476 0.984 . S
H483 N476 0.984 . S
H484 N472 0.984 . S
H485 N472 0.985 1_554 S
C486 C487 1.363 . S
C486 C492 1.379 . S
C486 N494 1.356 . S
C487 C486 1.363 . S
C487 C493 1.363 . S
C488 C489 1.363 . S
C488 C493 1.379 . S
C488 N495 1.356 . S
C489 C488 1.363 . S
C489 C492 1.363 . S
N490 C492 1.356 . S
N490 H502 0.984 . S
N490 H503 0.985 . S
N491 C493 1.356 . S
N491 H496 0.983 1_554 S
N491 H497 0.985 1_554 S
C492 C486 1.379 . S
C492 C489 1.363 . S
C492 N490 1.356 . S
C493 C487 1.363 . S
C493 C488 1.379 . S
C493 N491 1.356 . S
N494 C486 1.356 . S
N494 H500 0.984 . S
N494 H501 0.984 . S
N495 C488 1.356 . S
N495 H498 0.984 . S
N495 H499 0.985 . S
H496 N491 0.983 1_556 S
H497 N491 0.985 1_556 S
H498 N495 0.984 . S
H499 N495 0.985 . S
H500 N494 0.984 . S
H501 N494 0.984 . S
H502 N490 0.984 . S
H503 N490 0.985 . S
C504 C505 1.363 1_554 S
C504 C510 1.379 1_554 S
C504 N512 1.356 . S
C505 C504 1.363 1_556 S
C505 C511 1.363 . S
C506 C507 1.363 . S
C506 C511 1.379 . S
C506 N513 1.356 . S
C507 C506 1.363 . S
C507 C510 1.363 . S
N508 C510 1.356 1_554 S
N508 H520 0.984 . S
N508 H521 0.985 1_554 S
N509 C511 1.356 . S
N509 H514 0.984 . S
N509 H515 0.985 . S
C510 C504 1.379 1_556 S
C510 C507 1.363 . S
C510 N508 1.356 1_556 S
C511 C505 1.363 . S
C511 C506 1.379 . S
C511 N509 1.356 . S
N512 C504 1.356 . S
N512 H518 0.984 . S
N512 H519 0.984 . S
N513 C506 1.356 . S
N513 H516 0.984 . S
N513 H517 0.985 . S
H514 N509 0.984 . S
H515 N509 0.985 . S
H516 N513 0.984 . S
H517 N513 0.985 . S
H518 N512 0.984 . S
H519 N512 0.984 . S
H520 N508 0.984 . S
H521 N508 0.985 1_556 S
C522 C523 1.363 . S
C522 C528 1.379 . S
C522 N530 1.356 . S
C523 C522 1.363 . S
C523 C529 1.363 1_556 S
C524 C525 1.363 . S
C524 C529 1.379 . S
C524 N531 1.356 . S
C525 C524 1.363 . S
C525 C528 1.363 1_554 S
N526 C528 1.356 . S
N526 H538 0.984 . S
N526 H539 0.985 1_655 S
N527 C529 1.356 . S
N527 H532 0.984 . S
N527 H533 0.985 . S
C528 C522 1.379 . S
C528 C525 1.363 1_556 S
C528 N526 1.356 . S
C529 C523 1.363 1_554 S
C529 C524 1.379 . S
C529 N527 1.356 . S
N530 C522 1.356 . S
N530 H536 0.984 . S
N530 H537 0.984 . S
N531 C524 1.356 . S
N531 H534 0.984 . S
N531 H535 0.985 . S
H532 N527 0.984 . S
H533 N527 0.985 . S
H534 N531 0.984 . S
H535 N531 0.985 . S
H536 N530 0.984 . S
H537 N530 0.984 . S
H538 N526 0.984 . S
H539 N526 0.985 1_455 S
C540 C541 1.363 . S
C540 C546 1.379 . S
C540 N548 1.356 . S
C541 C540 1.363 . S
C541 C547 1.363 . S
C542 C543 1.363 . S
C542 C547 1.379 . S
C542 N549 1.356 1_556 S
C543 C542 1.363 . S
C543 C546 1.363 . S
N544 C546 1.356 . S
N544 H556 0.984 . S
N544 H557 0.985 . S
N545 C547 1.356 . S
N545 H550 0.984 . S
N545 H551 0.985 . S
C546 C540 1.379 . S
C546 C543 1.363 . S
C546 N544 1.356 . S
C547 C541 1.363 . S
C547 C542 1.379 . S
C547 N545 1.356 . S
N548 C540 1.356 . S
N548 H554 0.984 . S
N548 H555 0.984 . S
N549 C542 1.356 1_554 S
N549 H552 0.984 . S
N549 H553 0.985 . S
H550 N545 0.984 . S
H551 N545 0.985 . S
H552 N549 0.984 . S
H553 N549 0.985 . S
H554 N548 0.984 . S
H555 N548 0.984 . S
H556 N544 0.984 . S
H557 N544 0.985 . S
C558 C559 1.363 . S
C558 C564 1.379 . S
C558 N566 1.356 . S
C559 C558 1.363 . S
C559 C565 1.363 . S
C560 C561 1.363 . S
C560 C565 1.379 . S
C560 N567 1.356 . S
C561 C560 1.363 . S
C561 C564 1.363 . S
N562 C564 1.356 1_454 S
N562 H574 0.984 . S
N562 H575 0.985 . S
N563 C565 1.356 . S
N563 H568 0.984 . S
N563 H569 0.985 . S
C564 C558 1.379 . S
C564 C561 1.363 . S
C564 N562 1.356 1_656 S
C565 C559 1.363 . S
C565 C560 1.379 . S
C565 N563 1.356 . S
N566 C558 1.356 . S
N566 H572 0.984 . S
N566 H573 0.984 . S
N567 C560 1.356 . S
N567 H570 0.984 1_556 S
N567 H571 0.985 . S
H568 N563 0.984 . S
H569 N563 0.985 . S
H570 N567 0.984 1_554 S
H571 N567 0.985 . S
H572 N566 0.984 . S
H573 N566 0.984 . S
H574 N562 0.984 . S
H575 N562 0.985 . S
C576 C577 1.363 . S
C576 C582 1.379 . S
C576 N584 1.356 . S
C577 C576 1.363 . S
C577 C583 1.363 1_556 S
C578 C579 1.363 1_554 S
C578 C583 1.379 . S
C578 N585 1.356 . S
C579 C578 1.363 1_556 S
C579 C582 1.363 . S
N580 C582 1.356 . S
N580 H592 0.984 . S
N580 H593 0.985 . S
N581 C583 1.356 . S
N581 H586 0.984 . S
N581 H587 0.985 . S
C582 C576 1.379 . S
C582 C579 1.363 . S
C582 N580 1.356 . S
C583 C577 1.363 1_554 S
C583 C578 1.379 . S
C583 N581 1.356 . S
N584 C576 1.356 . S
N584 H590 0.984 . S
N584 H591 0.984 . S
N585 C578 1.356 . S
N585 H588 0.984 . S
N585 H589 0.985 . S
H586 N581 0.984 . S
H587 N581 0.985 . S
H588 N585 0.984 . S
H589 N585 0.985 . S
H590 N584 0.984 . S
H591 N584 0.984 . S
H592 N580 0.984 . S
H593 N580 0.985 . S
C594 C595 1.363 . S
C594 C600 1.379 . S
C594 N602 1.356 . S
C595 C594 1.363 . S
C595 C601 1.363 . S
C596 C597 1.363 . S
C596 C601 1.379 . S
C596 N603 1.356 . S
C597 C596 1.363 . S
C597 C600 1.363 . S
N598 C600 1.356 . S
N598 H610 0.984 1_556 S
N598 H611 0.985 1_556 S
N599 C601 1.356 . S
N599 H604 0.984 . S
N599 H605 0.985 . S
C600 C594 1.379 . S
C600 C597 1.363 . S
C600 N598 1.356 . S
C601 C595 1.363 . S
C601 C596 1.379 . S
C601 N599 1.356 . S
N602 C594 1.356 . S
N602 H608 0.984 . S
N602 H609 0.984 . S
N603 C596 1.356 . S
N603 H606 0.984 . S
N603 H607 0.985 . S
H604 N599 0.984 . S
H605 N599 0.985 . S
H606 N603 0.984 . S
H607 N603 0.985 . S
H608 N602 0.984 . S
H609 N602 0.984 . S
H610 N598 0.984 1_554 S
H611 N598 0.985 1_554 S
C612 C613 1.363 1_556 S
C612 C618 1.379 . S
C612 N620 1.356 . S
C613 C612 1.363 1_554 S
C613 C619 1.363 . S
C614 C615 1.363 . S
C614 C619 1.379 . S
C614 N621 1.356 . S
C615 C614 1.363 . S
C615 C618 1.363 1_554 S
N616 C618 1.356 . S
N616 H628 0.984 . S
N616 H629 0.985 . S
N617 C619 1.356 . S
N617 H622 0.984 . S
N617 H623 0.985 . S
C618 C612 1.379 . S
C618 C615 1.363 1_556 S
C618 N616 1.356 . S
C619 C613 1.363 . S
C619 C614 1.379 . S
C619 N617 1.356 . S
N620 C612 1.356 . S
N620 H626 0.984 . S
N620 H627 0.984 . S
N621 C614 1.356 . S
N621 H624 0.984 . S
N621 H625 0.985 . S
H622 N617 0.984 . S
H623 N617 0.985 . S
H624 N621 0.984 . S
H625 N621 0.985 . S
H626 N620 0.984 . S
H627 N620 0.984 . S
H628 N616 0.984 . S
H629 N616 0.985 . S
C630 C631 1.363 . S
C630 C636 1.379 . S
C630 N638 1.356 . S
C631 C630 1.363 . S
C631 C637 1.363 . S
C632 C633 1.363 . S
C632 C637 1.379 . S
C632 N639 1.356 1_554 S
C633 C632 1.363 . S
C633 C636 1.363 . S
N634 C636 1.356 . S
N634 H646 0.984 . S
N634 H647 0.985 . S
N635 C637 1.356 . S
N635 H640 0.984 . S
N635 H641 0.985 . S
C636 C630 1.379 . S
C636 C633 1.363 . S
C636 N634 1.356 . S
C637 C631 1.363 . S
C637 C632 1.379 . S
C637 N635 1.356 . S
N638 C630 1.356 . S
N638 H644 0.984 . S
N638 H645 0.984 . S
N639 C632 1.356 1_556 S
N639 H642 0.984 . S
N639 H643 0.985 . S
H640 N635 0.984 . S
H641 N635 0.985 . S
H642 N639 0.984 . S
H643 N639 0.985 . S
H644 N638 0.984 . S
H645 N638 0.984 . S
H646 N634 0.984 . S
H647 N634 0.985 . S
C648 C649 1.363 . S
C648 C654 1.379 . S
C648 N656 1.356 . S
C649 C648 1.363 . S
C649 C655 1.363 . S
C650 C651 1.363 . S
C650 C655 1.379 . S
C650 N657 1.356 . S
C651 C650 1.363 . S
C651 C654 1.363 . S
N652 C654 1.356 . S
N652 H664 0.984 . S
N652 H665 0.985 . S
N653 C655 1.356 . S
N653 H658 0.984 . S
N653 H659 0.985 . S
C654 C648 1.379 . S
C654 C651 1.363 . S
C654 N652 1.356 . S
C655 C649 1.363 . S
C655 C650 1.379 . S
C655 N653 1.356 . S
N656 C648 1.356 . S
N656 H662 0.984 . S
N656 H663 0.984 . S
N657 C650 1.356 . S
N657 H660 0.984 . S
N657 H661 0.985 . S
H658 N653 0.984 . S
H659 N653 0.985 . S
H660 N657 0.984 . S
H661 N657 0.985 . S
H662 N656 0.984 . S
H663 N656 0.984 . S
H664 N652 0.984 . S
H665 N652 0.985 . S
C666 C667 1.363 . S
C666 C672 1.379 . S
C666 N674 1.356 . S
C667 C666 1.363 . S
C667 C673 1.363 . S
C668 C669 1.363 . S
C668 C673 1.379 . S
C668 N675 1.356 . S
C669 C668 1.363 . S
C669 C672 1.363 . S
N670 C672 1.356 . S
N670 H682 0.984 . S
N670 H683 0.985 . S
N671 C673 1.356 . S
N671 H676 0.984 . S
N671 H677 0.985 . S
C672 C666 1.379 . S
C672 C669 1.363 . S
C672 N670 1.356 . S
C673 C667 1.363 . S
C673 C668 1.379 . S
C673 N671 1.356 . S
N674 C666 1.356 . S
N674 H680 0.984 . S
N674 H681 0.984 . S
N675 C668 1.356 . S
N675 H678 0.984 . S
N675 H679 0.985 . S
H676 N671 0.984 . S
H677 N671 0.985 . S
H678 N675 0.984 . S
H679 N675 0.985 . S
H680 N674 0.984 . S
H681 N674 0.984 . S
H682 N670 0.984 . S
H683 N670 0.985 . S
C684 C685 1.363 . S
C684 C690 1.379 1_545 S
C684 N692 1.356 . S
C685 C684 1.363 . S
C685 C691 1.363 . S
C686 C687 1.396 . S
C686 C691 1.356 1_565 S
C686 N693 1.357 . S
C687 C686 1.396 . S
C687 C690 1.363 . S
N688 C690 1.356 . S
N688 H700 0.984 . S
N688 H701 0.985 . S
N689 C691 1.356 . S
N689 H694 0.984 . S
N689 H695 0.985 . S
C690 C684 1.379 1_565 S
C690 C687 1.363 . S
C690 N688 1.356 . S
C691 C685 1.363 . S
C691 C686 1.356 1_545 S
C691 N689 1.356 . S
N692 C684 1.356 . S
N692 H698 0.984 . S
N692 H699 0.984 . S
N693 C686 1.357 . S
N693 H696 0.984 . S
N693 H697 0.968 1_565 S
H694 N689 0.984 . S
H695 N689 0.985 . S
H696 N693 0.984 . S
H697 N693 0.968 1_545 S
H698 N692 0.984 . S
H699 N692 0.984 . S
H700 N688 0.984 . S
H701 N688 0.985 . S
C702 C703 1.363 . S
C702 C708 1.379 . S
C702 N710 1.356 . S
C703 C702 1.363 . S
C703 C709 1.363 . S
C704 C705 1.363 . S
C704 C709 1.379 . S
C704 N711 1.356 . S
C705 C704 1.363 . S
C705 C708 1.363 . S
N706 C708 1.356 . S
N706 H718 0.984 . S
N706 H719 0.985 1_655 S
N707 C709 1.356 . S
N707 H712 0.984 . S
N707 H713 0.985 . S
C708 C702 1.379 . S
C708 C705 1.363 . S
C708 N706 1.356 . S
C709 C703 1.363 . S
C709 C704 1.379 . S
C709 N707 1.356 . S
N710 C702 1.356 . S
N710 H716 0.984 . S
N710 H717 0.984 . S
N711 C704 1.356 . S
N711 H714 0.984 . S
N711 H715 0.985 . S
H712 N707 0.984 . S
H713 N707 0.985 . S
H714 N711 0.984 . S
H715 N711 0.985 . S
H716 N710 0.984 . S
H717 N710 0.984 . S
H718 N706 0.984 . S
H719 N706 0.985 1_455 S
C720 C721 1.363 . S
C720 C726 1.379 . S
C720 N728 1.356 . S
C721 C720 1.363 . S
C721 C727 1.363 . S
C722 C723 1.363 . S
C722 C727 1.379 . S
C722 N729 1.356 . S
C723 C722 1.363 . S
C723 C726 1.363 . S
N724 C726 1.356 . S
N724 H736 0.984 . S
N724 H737 0.985 . S
N725 C727 1.356 . S
N725 H730 0.984 . S
N725 H731 0.985 . S
C726 C720 1.379 . S
C726 C723 1.363 . S
C726 N724 1.356 . S
C727 C721 1.363 . S
C727 C722 1.379 . S
C727 N725 1.356 . S
N728 C720 1.356 . S
N728 H734 0.984 . S
N728 H735 0.984 . S
N729 C722 1.356 . S
N729 H732 0.984 . S
N729 H733 0.985 . S
H730 N725 0.984 . S
H731 N725 0.985 . S
H732 N729 0.984 . S
H733 N729 0.985 . S
H734 N728 0.984 . S
H735 N728 0.984 . S
H736 N724 0.984 . S
H737 N724 0.985 . S
C738 C739 1.363 . S
C738 C744 1.379 . S
C738 N746 1.356 . S
C739 C738 1.363 . S
C739 C745 1.363 . S
C740 C741 1.363 . S
C740 C745 1.379 . S
C740 N747 1.356 . S
C741 C740 1.363 . S
C741 C744 1.363 . S
N742 C744 1.356 . S
N742 H754 0.984 . S
N742 H755 0.985 . S
N743 C745 1.356 . S
N743 H748 0.984 . S
N743 H749 0.985 . S
C744 C738 1.379 . S
C744 C741 1.363 . S
C744 N742 1.356 . S
C745 C739 1.363 . S
C745 C740 1.379 . S
C745 N743 1.356 . S
N746 C738 1.356 . S
N746 H752 0.984 . S
N746 H753 0.984 . S
N747 C740 1.356 . S
N747 H750 0.984 . S
N747 H751 0.985 . S
H748 N743 0.984 . S
H749 N743 0.985 . S
H750 N747 0.984 . S
H751 N747 0.985 . S
H752 N746 0.984 . S
H753 N746 0.984 . S
H754 N742 0.984 . S
H755 N742 0.985 . S
C756 C757 1.363 . S
C756 C762 1.379 1_655 S
C756 N764 1.356 . S
C757 C756 1.363 . S
C757 C763 1.363 . S
C758 C759 1.363 . S
C758 C763 1.379 1_455 S
C758 N765 1.356 . S
C759 C758 1.363 . S
C759 C762 1.363 . S
N760 C762 1.356 . S
N760 H772 0.984 . S
N760 H773 0.985 . S
N761 C763 1.356 . S
N761 H766 0.984 . S
N761 H767 0.985 . S
C762 C756 1.379 1_455 S
C762 C759 1.363 . S
C762 N760 1.356 . S
C763 C757 1.363 . S
C763 C758 1.379 1_655 S
C763 N761 1.356 . S
N764 C756 1.356 . S
N764 H770 0.984 . S
N764 H771 0.984 . S
N765 C758 1.356 . S
N765 H768 0.984 . S
N765 H769 0.985 . S
H766 N761 0.984 . S
H767 N761 0.985 . S
H768 N765 0.984 . S
H769 N765 0.985 . S
H770 N764 0.984 . S
H771 N764 0.984 . S
H772 N760 0.984 . S
H773 N760 0.985 . S
C289 N13 0.702 . S
C291 N18 0.737 . S
C307 N45 0.761 . S
C309 N50 0.770 . S
C325 N77 0.816 . S
C327 N82 0.791 . S
C343 C98 2.355 . S
C345 C125 2.375 . S
C361 C130 2.348 . S
C363 C157 2.367 1_556 S
C379 C162 2.341 . S
C381 C189 2.359 1_556 S
C397 C198 2.327 . S
C399 C196 2.343 . S
C415 C253 2.374 . S
C417 C226 2.357 1_554 S
C433 C262 2.378 . S
C435 C260 2.399 1_554 S
C451 C166 1.666 . S
C453 C2 1.638 . S
C469 C61 1.764 . S
C471 C102 1.711 . S
C487 C66 1.809 . S
C489 C134 1.783 . S
C505 C68 1.903 . S
C507 C194 1.868 . S
C523 N242 1.252 . S
C525 C4 1.363 . S
C541 C258 1.801 . S
C543 C38 1.842 . S
C559 N274 1.246 . S
C561 C29 1.297 1_556 S
C577 C34 1.359 1_556 S
C579 N210 1.278 . S
C595 C228 1.708 . S
C597 C93 1.691 . S
C613 C70 1.614 1_554 S
C615 N109 1.357 . S
C631 N141 1.305 . S
C633 C6 1.347 . S
C649 C36 1.507 . S
C651 N173 1.505 . S
C667 N269 0.797 . S
C669 N114 0.798 . S
C685 N205 0.993 . S
C687 N146 1.008 . S
C703 C230 1.193 . S
C705 N178 1.165 . S
C721 C221 1.573 . S
C723 C164 1.557 . S
C739 C100 1.402 . S
C741 N237 1.384 . S
C757 C285 1.243 . S
C759 C132 1.234 . S
