# Generated by pormake.
# Topology wjd, (6)-cn, num edge types: 1
# Building blocks:
#     Node 0, Type 0, BuildingBlock: MAKGUD_clean_sbu_1, # of connection points: 6
#     Node 1, Type 0, BuildingBlock: MAKGUD_clean_sbu_1, # of connection points: 6
#     Node 2, Type 0, BuildingBlock: MAKGUD_clean_sbu_1, # of connection points: 6
#     Node 3, Type 0, BuildingBlock: MAKGUD_clean_sbu_1, # of connection points: 6
#     Node 4, Type 0, BuildingBlock: MAKGUD_clean_sbu_1, # of connection points: 6
#     Node 5, Type 0, BuildingBlock: MAKGUD_clean_sbu_1, # of connection points: 6
#     Node 6, Type 0, BuildingBlock: MAKGUD_clean_sbu_1, # of connection points: 6
#     Node 7, Type 0, BuildingBlock: MAKGUD_clean_sbu_1, # of connection points: 6
#     Node 8, Type 0, BuildingBlock: MAKGUD_clean_sbu_1, # of connection points: 6
#     Node 9, Type 0, BuildingBlock: MAKGUD_clean_sbu_1, # of connection points: 6
#     Node 10, Type 0, BuildingBlock: MAKGUD_clean_sbu_1, # of connection points: 6
#     Node 11, Type 0, BuildingBlock: MAKGUD_clean_sbu_1, # of connection points: 6
#     Edge 12, Type (0, 0), BuildingBlock: EZIPEK_clean_linker_0, # of connection points: 2
#     Edge 13, Type (0, 0), BuildingBlock: EZIPEK_clean_linker_0, # of connection points: 2
#     Edge 14, Type (0, 0), BuildingBlock: EZIPEK_clean_linker_0, # of connection points: 2
#     Edge 15, Type (0, 0), BuildingBlock: EZIPEK_clean_linker_0, # of connection points: 2
#     Edge 16, Type (0, 0), BuildingBlock: EZIPEK_clean_linker_0, # of connection points: 2
#     Edge 17, Type (0, 0), BuildingBlock: EZIPEK_clean_linker_0, # of connection points: 2
#     Edge 18, Type (0, 0), BuildingBlock: EZIPEK_clean_linker_0, # of connection points: 2
#     Edge 19, Type (0, 0), BuildingBlock: EZIPEK_clean_linker_0, # of connection points: 2
#     Edge 20, Type (0, 0), BuildingBlock: EZIPEK_clean_linker_0, # of connection points: 2
#     Edge 21, Type (0, 0), BuildingBlock: EZIPEK_clean_linker_0, # of connection points: 2
#     Edge 22, Type (0, 0), BuildingBlock: EZIPEK_clean_linker_0, # of connection points: 2
#     Edge 23, Type (0, 0), BuildingBlock: EZIPEK_clean_linker_0, # of connection points: 2
#     Edge 24, Type (0, 0), BuildingBlock: EZIPEK_clean_linker_0, # of connection points: 2
#     Edge 25, Type (0, 0), BuildingBlock: EZIPEK_clean_linker_0, # of connection points: 2
#     Edge 26, Type (0, 0), BuildingBlock: EZIPEK_clean_linker_0, # of connection points: 2
#     Edge 27, Type (0, 0), BuildingBlock: EZIPEK_clean_linker_0, # of connection points: 2
#     Edge 28, Type (0, 0), BuildingBlock: EZIPEK_clean_linker_0, # of connection points: 2
#     Edge 29, Type (0, 0), BuildingBlock: EZIPEK_clean_linker_0, # of connection points: 2
#     Edge 30, Type (0, 0), BuildingBlock: EZIPEK_clean_linker_0, # of connection points: 2
#     Edge 31, Type (0, 0), BuildingBlock: EZIPEK_clean_linker_0, # of connection points: 2
#     Edge 32, Type (0, 0), BuildingBlock: EZIPEK_clean_linker_0, # of connection points: 2
#     Edge 33, Type (0, 0), BuildingBlock: EZIPEK_clean_linker_0, # of connection points: 2
#     Edge 34, Type (0, 0), BuildingBlock: EZIPEK_clean_linker_0, # of connection points: 2
#     Edge 35, Type (0, 0), BuildingBlock: EZIPEK_clean_linker_0, # of connection points: 2
#     Edge 36, Type (0, 0), BuildingBlock: EZIPEK_clean_linker_0, # of connection points: 2
#     Edge 37, Type (0, 0), BuildingBlock: EZIPEK_clean_linker_0, # of connection points: 2
#     Edge 38, Type (0, 0), BuildingBlock: EZIPEK_clean_linker_0, # of connection points: 2
#     Edge 39, Type (0, 0), BuildingBlock: EZIPEK_clean_linker_0, # of connection points: 2
#     Edge 40, Type (0, 0), BuildingBlock: EZIPEK_clean_linker_0, # of connection points: 2
#     Edge 41, Type (0, 0), BuildingBlock: EZIPEK_clean_linker_0, # of connection points: 2
#     Edge 42, Type (0, 0), BuildingBlock: EZIPEK_clean_linker_0, # of connection points: 2
#     Edge 43, Type (0, 0), BuildingBlock: EZIPEK_clean_linker_0, # of connection points: 2
#     Edge 44, Type (0, 0), BuildingBlock: EZIPEK_clean_linker_0, # of connection points: 2
#     Edge 45, Type (0, 0), BuildingBlock: EZIPEK_clean_linker_0, # of connection points: 2
#     Edge 46, Type (0, 0), BuildingBlock: EZIPEK_clean_linker_0, # of connection points: 2
#     Edge 47, Type (0, 0), BuildingBlock: EZIPEK_clean_linker_0, # of connection points: 2
# Relax obj value: 0.150
# Max RMSD: 0.291
# Mean RMSD: 0.291
data_MOF--net-wjd--node1-MAKGUD_clean_sbu_1--edge1-EZIPEK_clean_linker_0
_symmetry_space_group_name_H-M    P1
_symmetry_Int_Tables_number       1
_symmetry_cell_setting            triclinic
loop_
_symmetry_equiv_pos_as_xyz
'x, y, z'
_cell_length_a     28.826236
_cell_length_b     28.846095
_cell_length_c     35.494614
_cell_angle_alpha  90.350874
_cell_angle_beta   89.844085
_cell_angle_gamma 119.54868
loop_
_atom_site_label
_atom_site_type_symbol
_atom_site_fract_x
_atom_site_fract_y
_atom_site_fract_z
_atom_type_partial_charge
O0 O 0.56374 0.1976 0.10101 0.0
Tb1 Tb 0.50548 0.21111 0.13175 0.0
C2 C 0.41199 0.162 0.19168 0.0
O3 O 0.39246 0.16881 0.10633 0.0
Tb4 Tb 0.31619 0.13196 0.13615 0.0
C5 C 0.24092 1.02912 0.13402 0.0
O6 O 0.4673 0.19081 0.07615 0.0
O7 O 0.27701 0.18064 0.13188 0.0
C8 C 0.22689 0.161 0.14278 0.0
O9 O 0.2016 0.11268 0.15665 0.0
O10 O 0.43452 0.15203 0.16263 0.0
O11 O 0.36151 0.15068 0.18889 0.0
O12 O 0.53413 0.29609 0.13943 0.0
C13 C 0.41515 0.16969 0.07377 0.0
C14 C 0.59186 0.19901 0.13002 0.0
O15 O 0.27228 0.05557 0.10628 0.0
O16 O 0.25508 0.05968 0.16371 0.0
C17 C 0.55534 0.32016 0.17163 0.0
O18 O 0.5501 0.29124 0.20148 0.0
O19 O 0.57018 0.20548 0.16045 0.0
O20 O 0.71002 0.53707 0.3572 0.0
Tb21 Tb 0.77612 0.59225 0.39353 0.0
C22 C 0.837 0.67634 0.32868 0.0
O23 O 0.84842 0.69028 0.45098 0.0
Tb24 Tb 0.88926 0.74328 0.40417 0.0
C25 C 0.87836 0.83043 0.40666 0.0
O26 O 0.76064 0.63634 0.43677 0.0
O27 O 0.97577 0.77573 0.40413 0.0
C28 C 1.006 0.80617 0.43192 0.0
O29 O 0.98365 0.80716 0.46398 0.0
O30 O 0.79108 0.64159 0.34382 0.0
O31 O 0.88082 0.70738 0.34811 0.0
O32 O 0.83775 0.56939 0.39964 0.0
C33 C 0.79778 0.67408 0.45756 0.0
C34 C 0.68619 0.49952 0.38186 0.0
O35 O 0.91058 0.82181 0.42691 0.0
O36 O 0.85067 0.78894 0.38507 0.0
C37 C 0.84323 0.54164 0.37201 0.0
O38 O 0.81877 0.53784 0.34 0.0
O39 O 0.71244 0.51488 0.4134 0.0
O40 O 0.90722 0.36499 0.08279 0.0
Tb41 Tb 0.92512 0.30985 0.11327 0.0
C42 C 0.94459 0.2584 0.18438 0.0
O43 O 0.96291 0.24007 0.05874 0.0
Tb44 Tb 0.9721 0.21053 0.11292 0.0
C45 C 0.07072 0.22538 0.1233 0.0
O46 O 0.99034 0.32623 0.07495 0.0
O47 O 0.92044 0.12481 0.11342 0.0
C48 C 0.92358 0.09517 0.08643 0.0
O49 O 0.95049 0.1179 0.05568 0.0
O50 O 0.95292 0.30287 0.16841 0.0
O51 O 0.93497 0.21533 0.16519 0.0
O52 O 0.84348 0.24392 0.10721 0.0
C53 C 0.99036 0.2911 0.05132 0.0
C54 C 0.91328 0.39586 0.11127 0.0
O55 O 1.03271 0.18689 0.10442 0.0
O56 O 1.05357 0.25658 0.13653 0.0
C57 C 0.80877 0.23944 0.13331 0.0
O58 O 0.8272 0.26533 0.16522 0.0
O59 O 0.92587 0.37835 0.14097 0.0
O60 O 0.54881 0.15521 0.42425 0.0
Tb61 Tb 0.48354 0.16378 0.40163 0.0
C62 C 0.38724 0.11694 0.34218 0.0
O63 O 0.37063 0.12605 0.43213 0.0
Tb64 Tb 0.29807 0.08325 0.3991 0.0
C65 C 0.22075 0.98475 0.41488 0.0
O66 O 0.44296 0.12481 0.45398 0.0
O67 O 0.25891 0.12996 0.39105 0.0
C68 C 0.24035 0.14368 0.42034 0.0
O69 O 0.25161 0.13469 0.4544 0.0
O70 O 0.40908 0.1107 0.37278 0.0
O71 O 0.33544 0.09903 0.34345 0.0
O72 O 0.5112 0.24891 0.40192 0.0
C73 C 0.39125 0.10694 0.45625 0.0
C74 C 0.56916 0.15309 0.39195 0.0
O75 O 0.23232 1.02733 0.43456 0.0
O76 O 0.25514 0.99733 0.38743 0.0
C77 C 0.52767 0.27565 0.37023 0.0
O78 O 0.51734 0.24901 0.33838 0.0
O79 O 0.53997 0.15532 0.3647 0.0
O80 O 0.74596 0.58101 0.16549 0.0
Tb81 Tb 0.79351 0.61736 0.11453 0.0
C82 C 0.86116 0.7159 0.16916 0.0
O83 O 0.85975 0.72731 0.0748 0.0
Tb84 Tb 0.90471 0.79945 0.10825 0.0
C85 C 0.88721 0.88093 0.09857 0.0
O86 O 0.77447 0.66014 0.072 0.0
O87 O 0.99046 0.83021 0.10832 0.0
C88 C 1.01987 0.86696 0.13321 0.0
O89 O 0.99625 0.87997 0.15954 0.0
O90 O 0.86033 0.68774 0.13964 0.0
O91 O 0.88579 0.76792 0.1652 0.0
O92 O 0.83662 0.57746 0.09637 0.0
C93 C 0.81057 0.70921 0.06297 0.0
C94 C 0.70731 0.54017 0.14792 0.0
O95 O 0.9163 0.86918 0.07678 0.0
O96 O 0.8661 0.84535 0.12495 0.0
C97 C 0.85509 0.55975 0.12315 0.0
O98 O 0.84903 0.56977 0.1584 0.0
O99 O 0.71665 0.54481 0.11188 0.0
O100 O 0.90609 0.36066 0.42465 0.0
Tb101 Tb 0.90686 0.28883 0.40492 0.0
C102 C 0.94047 0.22914 0.34519 0.0
O103 O 0.94096 0.21512 0.43615 0.0
Tb104 Tb 0.967 0.16708 0.4054 0.0
C105 C 0.06861 0.19096 0.40722 0.0
O106 O 0.95379 0.29438 0.45441 0.0
O107 O 0.91551 0.08025 0.40681 0.0
C108 C 0.93478 0.04936 0.41765 0.0
O109 O 0.98327 0.07116 0.43136 0.0
O110 O 0.95752 0.26797 0.37041 0.0
O111 O 0.94528 0.18659 0.35157 0.0
O112 O 0.82428 0.22582 0.4086 0.0
C113 C 0.96937 0.25867 0.45616 0.0
C114 C 0.9076 0.38071 0.39161 0.0
O115 O 1.03691 0.17744 0.43615 0.0
O116 O 1.04359 0.19343 0.3775 0.0
C117 C 0.79278 0.21761 0.3796 0.0
O118 O 0.81398 0.24089 0.34754 0.0
O119 O 0.91028 0.3495 0.3659 0.0
O120 O 0.17988 0.50822 0.57918 0.0
Tb121 Tb 0.19145 0.44647 0.60604 0.0
C122 C 0.14134 0.35789 0.66796 0.0
O123 O 0.14822 0.33109 0.58403 0.0
Tb124 Tb 0.11153 0.25829 0.61796 0.0
C125 C 1.01012 0.17959 0.62041 0.0
O126 O 0.16707 0.40395 0.55198 0.0
O127 O 0.16244 0.22194 0.61969 0.0
C128 C 0.14498 0.17338 0.60637 0.0
O129 O 0.09813 0.14828 0.58997 0.0
O130 O 0.13293 0.37639 0.63657 0.0
O131 O 0.12954 0.30738 0.66909 0.0
O132 O 0.27587 0.47181 0.6119 0.0
C133 C 0.14633 0.35159 0.55131 0.0
C134 C 0.1838 0.53513 0.60978 0.0
O135 O 1.0374 0.20095 0.59 0.0
O136 O 1.03882 0.20587 0.64938 0.0
C137 C 0.30155 0.49746 0.64254 0.0
O138 O 0.27424 0.50047 0.67119 0.0
O139 O 0.1885 0.50986 0.63856 0.0
O140 O 0.41626 0.93071 0.93741 0.0
Tb141 Tb 0.3464 0.93197 0.91612 0.0
C142 C 0.28354 0.9638 0.85768 0.0
O143 O 0.28093 0.97317 0.95078 0.0
Tb144 Tb 0.23928 1.00529 0.92022 0.0
C145 C 0.26539 0.10716 0.92269 0.0
O146 O 0.35738 0.97954 0.96701 0.0
O147 O 0.15332 0.95795 0.92269 0.0
C148 C 0.12722 0.95329 0.95411 0.0
O149 O 0.15341 0.97429 0.9854 0.0
O150 O 0.32507 0.98107 0.88065 0.0
O151 O 0.24641 0.97663 0.86509 0.0
O152 O 0.28752 0.84757 0.91568 0.0
C153 C 0.32466 0.99847 0.97065 0.0
C154 C 0.43864 0.93441 0.90495 0.0
O155 O 0.2398 0.07245 0.94895 0.0
O156 O 0.27929 0.08504 0.89611 0.0
C157 C 0.27698 0.82221 0.8831 0.0
O158 O 0.29353 0.85063 0.85225 0.0
O159 O 0.40929 0.93777 0.87835 0.0
O160 O 0.54252 0.69107 0.60612 0.0
Tb161 Tb 0.6239 0.74009 0.62708 0.0
C162 C 0.70651 0.79471 0.69918 0.0
O163 O 0.731 0.80618 0.58147 0.0
Tb164 Tb 0.78884 0.84066 0.62621 0.0
C165 C 0.87503 0.82907 0.61664 0.0
O166 O 0.66908 0.71966 0.58784 0.0
O167 O 0.82075 0.9261 0.63431 0.0
C168 C 0.84193 0.95965 0.60614 0.0
O169 O 0.83639 0.941 0.57162 0.0
O170 O 0.659 0.76723 0.68296 0.0
O171 O 0.75417 0.82002 0.68279 0.0
O172 O 0.60605 0.80363 0.61385 0.0
C173 C 0.71294 0.75621 0.57211 0.0
C174 C 0.52598 0.65511 0.6322 0.0
O175 O 0.83599 0.80168 0.63995 0.0
O176 O 0.86468 0.86175 0.59834 0.0
C177 C 0.5771 0.81293 0.63846 0.0
O178 O 0.57091 0.79254 0.6723 0.0
O179 O 0.56495 0.66661 0.65561 0.0
O180 O 0.24108 0.58847 0.91074 0.0
Tb181 Tb 0.2124 0.50599 0.89331 0.0
C182 C 0.17858 0.41509 0.82111 0.0
O183 O 0.1714 0.40154 0.91471 0.0
Tb184 Tb 0.14902 0.32683 0.88915 0.0
C185 C 1.05254 0.23973 0.8951 0.0
O186 O 0.15977 0.46376 0.93997 0.0
O187 O 0.20915 0.30269 0.89417 0.0
C188 C 0.20218 0.26596 0.91883 0.0
O189 O 0.16311 0.24995 0.94327 0.0
O190 O 0.19447 0.46144 0.83918 0.0
O191 O 0.16261 0.36652 0.83486 0.0
O192 O 0.29688 0.52964 0.89732 0.0
C193 C 0.14601 0.41373 0.93969 0.0
C194 C 0.21315 0.59855 0.88698 0.0
O195 O 0.08186 0.26859 0.92313 0.0
O196 O 0.07638 0.26211 0.86367 0.0
C197 C 0.32732 0.55151 0.86755 0.0
O198 O 0.30438 0.5507 0.83542 0.0
O199 O 0.18457 0.55642 0.86635 0.0
O200 O 0.37999 0.86289 0.59721 0.0
Tb201 Tb 0.32085 0.87637 0.62725 0.0
C202 C 0.27271 0.91196 0.69866 0.0
O203 O 0.25012 0.91197 0.57686 0.0
Tb204 Tb 0.21044 0.9251 0.62457 0.0
C205 C 0.21543 1.02041 0.61881 0.0
O206 O 0.33752 0.94274 0.59072 0.0
O207 O 0.12443 0.86945 0.62945 0.0
C208 C 0.09139 0.86567 0.60226 0.0
O209 O 0.11104 0.88514 0.56894 0.0
O210 O 0.30778 0.90081 0.68269 0.0
O211 O 0.23362 0.91593 0.68179 0.0
O212 O 0.25492 0.79623 0.61654 0.0
C213 C 0.30084 0.94557 0.57081 0.0
C214 C 0.40913 0.86666 0.62619 0.0
O215 O 0.18318 0.97736 0.60072 0.0
O216 O 0.2464 1.0103 0.63969 0.0
C217 C 0.25572 0.75703 0.63494 0.0
O218 O 0.29127 0.76904 0.6617 0.0
O219 O 0.38874 0.87648 0.65589 0.0
O220 O 0.55978 0.72 0.92368 0.0
Tb221 Tb 0.63614 0.79034 0.91267 0.0
C222 C 0.73589 0.83761 0.85835 0.0
O223 O 0.74686 0.85664 0.94914 0.0
Tb224 Tb 0.82175 0.89949 0.9184 0.0
C225 C 0.90457 0.88872 0.93903 0.0
O226 O 0.67632 0.77511 0.95875 0.0
O227 O 0.85189 0.9842 0.90583 0.0
C228 C 0.891 1.0222 0.92579 0.0
O229 O 0.90677 1.00943 0.95674 0.0
O230 O 0.70701 0.84797 0.88205 0.0
O231 O 0.78761 0.86028 0.86468 0.0
O232 O 0.60444 0.84337 0.92242 0.0
C233 C 0.72674 0.80942 0.96515 0.0
C234 C 0.55146 0.70055 0.88969 0.0
O235 O 0.87948 0.90568 0.96053 0.0
O236 O 0.88101 0.87524 0.90638 0.0
C237 C 0.59182 0.86153 0.89253 0.0
O238 O 0.60415 0.85147 0.85898 0.0
O239 O 0.59222 0.73127 0.86822 0.0
C240 C 0.12504 0.2032 0.1675 0.0
C241 C 0.12113 0.22582 0.13317 0.0
C242 C 0.194 0.21517 0.1065 0.0
C243 C 0.19774 0.19183 0.14071 0.0
N244 N 0.17905 0.18049 0.20735 0.0
N245 N 0.16432 0.27126 0.07645 0.0
C246 C 0.16718 0.19141 0.17242 0.0
C247 C 0.15981 0.23768 0.10479 0.0
N248 N 0.08715 0.19068 0.19472 0.0
N249 N 0.21964 0.21258 0.07482 0.0
H250 H 0.1412 0.28996 0.07599 0.0
H251 H 0.19506 0.28538 0.05672 0.0
H252 H 0.2441 0.1955 0.07421 0.0
H253 H 0.2129 0.22341 0.0483 0.0
H254 H 0.08397 0.16796 0.2183 0.0
H255 H 1.05703 0.20064 0.19265 0.0
H256 H 0.16115 0.18383 0.23197 0.0
H257 H 0.21096 0.17375 0.21205 0.0
C258 C 0.13011 0.92227 0.38772 0.0
C259 C 0.16806 0.93488 0.41708 0.0
C260 C 0.10248 0.8561 0.45193 0.0
C261 C 0.06271 0.84754 0.42495 0.0
N262 N 1.03671 0.88257 0.37213 0.0
N263 N 0.18668 0.91934 0.4805 0.0
C264 C 0.076 0.88284 0.39386 0.0
C265 C 0.15317 0.90336 0.45019 0.0
N266 N 0.14472 0.94914 0.35433 0.0
N267 N 0.09219 0.8186 0.47887 0.0
H268 H 0.22355 0.95405 0.4804 0.0
H269 H 0.17607 0.90085 0.50666 0.0
H270 H 1.05602 0.783 0.48036 0.0
H271 H 0.12113 0.82031 0.49723 0.0
H272 H 0.12029 0.9366 0.33056 0.0
H273 H 0.18217 0.9817 0.34921 0.0
H274 H 1.04394 0.91163 0.3521 0.0
H275 H 0.99617 0.85756 0.37677 0.0
C276 C 0.87268 0.99937 0.06714 0.0
C277 C 0.90661 0.03843 0.09345 0.0
C278 C 0.91592 0.97016 0.12818 0.0
C279 C 0.88928 0.93331 0.09847 0.0
N280 N 0.84652 0.91402 0.03777 0.0
N281 N 0.96715 0.06265 0.14651 0.0
C282 C 0.86864 0.9482 0.06744 0.0
C283 C 0.92938 1.02423 0.12369 0.0
N284 N 0.84412 1.01128 0.04216 0.0
N285 N 0.92968 0.95423 0.16046 0.0
H286 H 0.97914 0.10294 0.1447 0.0
H287 H 0.99034 0.05526 0.16537 0.0
H288 H 0.92442 0.91625 0.16443 0.0
H289 H 0.94272 0.97775 0.18471 0.0
H290 H 0.81495 0.98335 0.02437 0.0
H291 H 0.8459 0.0483 0.04188 0.0
H292 H 0.83218 0.92307 0.01369 0.0
H293 H 0.84587 0.87766 0.03616 0.0
C294 C 0.20511 0.20727 0.42962 0.0
C295 C 0.19831 0.15833 0.41501 0.0
C296 C 0.11102 0.1367 0.38934 0.0
C297 C 0.1159 0.1837 0.40619 0.0
N298 N 0.16473 0.26185 0.44486 0.0
N299 N 0.14007 0.07296 0.38459 0.0
C300 C 0.16225 0.21854 0.42704 0.0
C301 C 0.15066 0.12258 0.39572 0.0
N302 N 0.25315 0.24367 0.4447 0.0
N303 N 0.0669 0.10307 0.3687 0.0
H304 H 0.16439 0.05643 0.39002 0.0
H305 H 0.16439 0.05643 0.39002 0.0
H306 H 1.03516 0.10968 0.36345 0.0
H307 H 0.06231 0.06823 0.35615 0.0
H308 H 0.26266 0.28216 0.45259 0.0
H309 H 0.28531 0.23676 0.44682 0.0
H310 H 0.19398 0.28526 0.46438 0.0
H311 H 0.13565 0.27299 0.44134 0.0
C312 C 0.14983 0.98528 0.10397 0.0
C313 C 0.18654 0.98237 0.12933 0.0
C314 C 0.11402 0.89867 0.15467 0.0
C315 C 0.07836 0.90072 0.1281 0.0
N316 N 0.06537 0.93857 0.07131 0.0
N317 N 0.206 0.93202 0.17413 0.0
C318 C 0.09751 0.94121 0.10046 0.0
C319 C 0.16932 0.93756 0.15321 0.0
N320 N 0.16276 1.03181 0.08579 0.0
N321 N 0.09469 0.86025 0.1818 0.0
H322 H 0.24663 0.95984 0.17352 0.0
H323 H 0.19703 0.89804 0.18957 0.0
H324 H 1.05508 0.82961 0.18226 0.0
H325 H 0.11705 0.86006 0.20472 0.0
H326 H 0.13523 0.03781 0.07071 0.0
H327 H 0.19925 0.06656 0.08867 0.0
H328 H 0.07935 0.96393 0.04818 0.0
H329 H 1.02609 0.90812 0.06827 0.0
C330 C 0.87625 0.90355 0.44365 0.0
C331 C 0.8773 0.88169 0.40786 0.0
C332 C 0.89572 0.96593 0.37792 0.0
C333 C 0.904 0.99017 0.41406 0.0
N334 N 0.90026 0.98257 0.48158 0.0
N335 N 0.89012 0.89266 0.34053 0.0
C336 C 0.89295 0.95883 0.44699 0.0
C337 C 0.88622 0.91253 0.37473 0.0
N338 N 0.85871 0.87109 0.47444 0.0
N339 N 0.89828 0.99437 0.34657 0.0
H340 H 0.88324 0.85401 0.33659 0.0
H341 H 0.90365 0.9155 0.31621 0.0
H342 H 0.90707 1.03397 0.34769 0.0
H343 H 0.88715 0.97753 0.31981 0.0
H344 H 0.85187 0.88288 0.50068 0.0
H345 H 0.84646 0.83058 0.47293 0.0
H346 H 0.90051 0.96433 0.50673 0.0
H347 H 0.90836 1.02184 0.48499 0.0
C348 C 0.20447 0.09358 0.64995 0.0
C349 C 0.21293 0.07084 0.61677 0.0
C350 C 0.19381 0.13007 0.5781 0.0
C351 C 0.17611 0.14521 0.61079 0.0
N352 N 0.16234 0.14049 0.67798 0.0
N353 N 0.21977 0.06985 0.54908 0.0
C354 C 0.18188 0.12766 0.64686 0.0
C355 C 0.20933 0.09031 0.58078 0.0
N356 N 0.21715 0.08221 0.68446 0.0
N357 N 0.1964 0.15449 0.54464 0.0
H358 H 0.23587 0.04447 0.55005 0.0
H359 H 0.21114 0.07656 0.52189 0.0
H360 H 0.18577 0.18409 0.54209 0.0
H361 H 0.21318 0.14906 0.52022 0.0
H362 H 0.21714 0.10191 0.70913 0.0
H363 H 0.23265 0.05681 0.68835 0.0
H364 H 0.15846 0.12312 0.70426 0.0
H365 H 0.1465 0.16606 0.67713 0.0
C366 C 1.05499 0.96811 0.92964 0.0
C367 C 0.07029 0.93735 0.95197 0.0
C368 C 0.97756 0.88046 0.97139 0.0
C369 C 0.96154 0.90576 0.94438 0.0
N370 N 0.9848 0.9737 0.89687 0.0
N371 N 1.04706 0.86248 0.99271 0.0
C372 C 1.00019 0.9494 0.92308 0.0
C373 C 1.03186 0.89308 0.97267 0.0
N374 N 0.09276 1.01698 0.91668 0.0
N375 N 0.94122 0.84558 0.99636 0.0
H376 H 0.08665 0.87112 0.99456 0.0
H377 H 1.02021 0.82661 1.00531 0.0
H378 H 0.90186 0.83764 0.99692 0.0
H379 H 0.95102 0.8287 0.01863 0.0
H380 H 0.08369 0.04392 0.90385 0.0
H381 H 0.13335 1.03339 0.92227 0.0
H382 H 1.01068 1.00025 0.87691 0.0
H383 H 0.94569 0.96571 0.89367 0.0
C384 C 0.9299 1.0289 0.63289 0.0
C385 C 0.88188 1.01647 0.61375 0.0
C386 C 0.91677 0.11173 0.60066 0.0
C387 C 0.9637 0.12438 0.62142 0.0
N388 N 1.01191 0.09486 0.66182 0.0
N389 N 0.82568 0.04562 0.58436 0.0
C390 C 0.96897 0.08306 0.63932 0.0
C391 C 0.87423 0.05785 0.59902 0.0
N392 N 0.94041 0.98903 0.64233 0.0
N393 N 0.9132 0.15121 0.58204 0.0
H394 H 0.79388 1.00667 0.58289 0.0
H395 H 0.81535 0.07403 0.57646 0.0
H396 H 0.94181 0.1914 0.58459 0.0
H397 H 0.88348 0.14411 0.56254 0.0
H398 H 0.97763 0.9957 0.65118 0.0
H399 H 0.91361 0.94875 0.63825 0.0
H400 H 1.01318 0.06746 0.68017 0.0
H401 H 1.04545 0.1323 0.66413 0.0
C402 C 0.26196 0.23395 0.94533 0.0
C403 C 0.23042 0.235 0.91504 0.0
C404 C 0.22688 0.15539 0.8875 0.0
C405 C 0.25948 0.15481 0.91732 0.0
N406 N 0.31656 0.19842 0.97035 0.0
N407 N 0.1945 0.20515 0.85246 0.0
C408 C 0.27987 0.19586 0.94489 0.0
C409 C 0.21744 0.19901 0.88432 0.0
N410 N 0.27367 0.26861 0.97485 0.0
N411 N 0.20052 0.11211 0.8642 0.0
H412 H 0.18395 0.23457 0.84924 0.0
H413 H 0.19024 0.18383 0.82769 0.0
H414 H 0.20363 0.07775 0.86588 0.0
H415 H 0.1708 0.10766 0.8455 0.0
H416 H 0.29127 0.26627 0.9998 0.0
H417 H 0.26369 0.29883 0.97492 0.0
H418 H 0.33627 0.22949 0.98955 0.0
H419 H 0.33068 0.17135 0.97009 0.0
C420 C 0.9944 0.81546 0.58353 0.0
C421 C 1.03402 0.84888 0.60997 0.0
C422 C 0.9651 0.85795 0.64529 0.0
C423 C 0.92785 0.83122 0.6159 0.0
N424 N 0.90981 0.79184 0.55388 0.0
N425 N 1.05815 0.91192 0.66172 0.0
C426 C 0.94327 0.81196 0.58411 0.0
C427 C 1.01965 0.87229 0.64009 0.0
N428 N 1.00534 0.78626 0.55823 0.0
N429 N 0.94895 0.87125 0.67786 0.0
H430 H 0.09883 0.92677 0.65788 0.0
H431 H 1.05007 0.93444 0.68096 0.0
H432 H 0.91018 0.86405 0.68218 0.0
H433 H 0.97299 0.88543 0.70175 0.0
H434 H 0.97668 0.75767 0.54045 0.0
H435 H 1.04171 0.78663 0.55782 0.0
H436 H 0.92081 0.78199 0.52838 0.0
H437 H 0.87241 0.78912 0.55326 0.0
C438 C 1.00179 0.14169 0.87701 0.0
C439 C 1.00533 0.18487 0.89893 0.0
C440 C 0.92704 0.12099 0.93543 0.0
C441 C 0.92233 0.0785 0.91224 0.0
N442 N 0.94582 0.0519 0.85381 0.0
N443 N 0.96363 0.21652 0.94324 0.0
C444 C 0.95622 0.09013 0.88048 0.0
C445 C 0.96556 0.17475 0.92646 0.0
N446 N 1.04386 0.14815 0.85535 0.0
N447 N 0.8949 0.10984 0.96627 0.0
H448 H 0.9898 0.25609 0.93621 0.0
H449 H 0.93317 0.21204 0.96129 0.0
H450 H 0.8635 0.07164 0.97174 0.0
H451 H 0.9007 0.13781 0.98708 0.0
H452 H 1.04543 0.11644 0.84239 0.0
H453 H 0.07996 0.18358 0.85385 0.0
H454 H 0.96648 0.06002 0.82838 0.0
H455 H 0.91313 1.01365 0.85506 0.0
C456 C 0.41354 0.18874 0.29432 0.0
C457 C 0.41755 0.14462 0.30776 0.0
C458 C 0.45092 0.13556 0.24597 0.0
C459 C 0.43425 0.17038 0.23074 0.0
N460 N 0.41999 0.24447 0.24085 0.0
N461 N 0.44541 0.07919 0.29832 0.0
C462 C 0.42275 0.20216 0.2554 0.0
C463 C 0.4395 0.12008 0.28447 0.0
N464 N 0.39903 0.21613 0.31879 0.0
N465 N 0.47793 0.11784 0.22397 0.0
H466 H 0.4394 0.06821 0.32658 0.0
H467 H 0.45411 0.05463 0.28169 0.0
H468 H 0.48964 0.13096 0.19658 0.0
H469 H 0.49464 0.09556 0.23408 0.0
H470 H 0.39179 0.2467 0.31113 0.0
H471 H 0.39499 0.20836 0.34767 0.0
H472 H 0.4125 0.27063 0.25652 0.0
H473 H 0.42858 0.25511 0.21255 0.0
C474 C 0.80635 0.69673 0.26771 0.0
C475 C 0.83922 0.68059 0.28689 0.0
C476 C 0.881 0.67872 0.22692 0.0
C477 C 0.84712 0.69353 0.20769 0.0
N478 N 0.76981 0.70452 0.20798 0.0
N479 N 0.89867 0.64424 0.28399 0.0
C480 C 0.80715 0.69844 0.22762 0.0
C481 C 0.87369 0.66781 0.26622 0.0
N482 N 0.77669 0.71342 0.28781 0.0
N483 N 0.92225 0.67816 0.20822 0.0
H484 H 0.89483 0.63619 0.31278 0.0
H485 H 0.91943 0.62849 0.26972 0.0
H486 H 0.92859 0.68475 0.17937 0.0
H487 H 0.95234 0.67455 0.22172 0.0
H488 H 0.75647 0.73104 0.27555 0.0
H489 H 0.7759 0.714 0.31718 0.0
H490 H 0.73649 0.70334 0.22042 0.0
H491 H 0.76948 0.70546 0.17858 0.0
C492 C 0.98776 0.28851 0.24777 0.0
C493 C 0.94178 0.25506 0.22607 0.0
C494 C 0.89275 0.21062 0.28367 0.0
C495 C 0.9398 0.24169 0.30494 0.0
N496 N 1.03493 0.30224 0.30667 0.0
N497 N 0.8504 0.18433 0.22228 0.0
C498 C 0.98793 0.27913 0.287 0.0
C499 C 0.89413 0.2162 0.24379 0.0
N500 N 1.03192 0.32858 0.2308 0.0
N501 N 0.84682 0.17569 0.30185 0.0
H502 H 0.8486 0.18998 0.1935 0.0
H503 H 0.81622 0.15129 0.23223 0.0
H504 H 0.84523 0.16902 0.33079 0.0
H505 H 0.80955 0.15515 0.28915 0.0
H506 H 0.06349 0.35888 0.24571 0.0
H507 H 1.03607 0.33379 0.20174 0.0
H508 H 0.07219 0.32454 0.29418 0.0
H509 H 1.03788 0.29533 0.33509 0.0
C510 C 0.131 0.41023 0.72087 0.0
C511 C 0.16221 0.39117 0.70243 0.0
C512 C 0.21683 0.40961 0.75928 0.0
C513 C 0.17862 0.41714 0.77952 0.0
N514 N 0.1002 0.42669 0.78053 0.0
N515 N 0.23904 0.37916 0.70154 0.0
C516 C 0.13668 0.4194 0.76044 0.0
C517 C 0.20697 0.39357 0.72083 0.0
N518 N 0.09542 0.41868 0.70088 0.0
N519 N 0.26237 0.41801 0.77705 0.0
H520 H 0.23502 0.3714 0.67261 0.0
H521 H 0.26876 0.37394 0.714 0.0
H522 H 0.27039 0.4303 0.80516 0.0
H523 H 0.294 0.4172 0.7635 0.0
H524 H 0.07556 0.43752 0.71207 0.0
H525 H 0.08936 0.41181 0.67206 0.0
H526 H 0.06475 0.42172 0.76922 0.0
H527 H 0.10386 0.43485 0.80937 0.0
C528 C 0.24139 0.89918 0.80421 0.0
C529 C 0.28542 0.94703 0.81814 0.0
C530 C 0.32423 0.96777 0.75448 0.0
C531 C 0.27832 0.92213 0.74008 0.0
N532 N 0.19288 0.84414 0.75029 0.0
N533 N 0.36326 1.03209 0.80518 0.0
C534 C 0.23681 0.88771 0.76476 0.0
C535 C 0.32589 0.98236 0.79308 0.0
N536 N 0.20447 0.86422 0.82907 0.0
N537 N 0.36604 0.99815 0.73108 0.0
H538 H 0.36529 0.04583 0.83264 0.0
H539 H 0.38949 0.06206 0.78725 0.0
H540 H 0.36485 0.99269 0.70199 0.0
H541 H 0.40339 1.02696 0.74079 0.0
H542 H 0.17393 0.82642 0.82188 0.0
H543 H 0.20666 0.87127 0.85806 0.0
H544 H 0.15818 0.82065 0.76542 0.0
H545 H 0.19017 0.83209 0.72223 0.0
C546 C 0.71316 0.76572 0.76476 0.0
C547 C 0.70614 0.80083 0.74064 0.0
C548 C 0.71136 0.85653 0.79465 0.0
C549 C 0.71761 0.821 0.81904 0.0
N550 N 0.71386 0.73687 0.82894 0.0
N551 N 0.68585 0.87189 0.73292 0.0
C552 C 0.71508 0.77391 0.80452 0.0
C553 C 0.70083 0.84355 0.75578 0.0
N554 N 0.71941 0.72551 0.74952 0.0
N555 N 0.71926 0.90453 0.80791 0.0
H556 H 0.6796 0.86477 0.70403 0.0
H557 H 0.67523 0.89934 0.74305 0.0
H558 H 0.72749 0.91643 0.83599 0.0
H559 H 0.72188 0.93468 0.79052 0.0
H560 H 0.73046 0.70201 0.76505 0.0
H561 H 0.71633 0.71743 0.72065 0.0
H562 H 0.70737 0.69947 0.82064 0.0
H563 H 0.71476 0.7419 0.85813 0.0
C564 C 0.39588 0.09399 0.98252 0.0
C565 C 0.34308 0.05163 0.9891 0.0
C566 C 0.33169 0.10814 0.03587 0.0
C567 C 0.38733 0.14067 0.03802 0.0
N568 N 0.46499 0.18418 0.9987 0.0
N569 N 0.25828 1.02211 0.02016 0.0
C570 C 0.41769 0.13965 1.00677 0.0
C571 C 0.30994 0.06019 0.01464 0.0
N572 N 0.42467 0.0906 0.95303 0.0
N573 N 0.29879 0.12409 0.0514 0.0
H574 H 0.24155 0.98433 1.00801 0.0
H575 H 0.23324 1.02813 0.0383 0.0
H576 H 0.31296 0.16102 0.06469 0.0
H577 H 0.31296 0.16102 0.06469 0.0
H578 H 0.46528 0.11616 0.9492 0.0
H579 H 0.40742 0.06178 0.93189 0.0
H580 H 0.48892 0.18783 0.97568 0.0
H581 H 0.47723 0.22015 0.01292 0.0
C582 C 0.78709 0.69124 0.52595 0.0
C583 C 0.78143 0.69984 0.48729 0.0
C584 C 0.73968 0.75354 0.50497 0.0
C585 C 0.74043 0.74046 0.54337 0.0
N586 N 0.76194 0.69475 0.59089 0.0
N587 N 0.74785 0.73469 0.43939 0.0
C588 C 0.76343 0.70876 0.55398 0.0
C589 C 0.75655 0.72983 0.47667 0.0
N590 N 0.81533 0.66657 0.53588 0.0
N591 N 0.72286 0.78875 0.49544 0.0
H592 H 0.76167 0.72029 0.41763 0.0
H593 H 0.72416 0.75014 0.42984 0.0
H594 H 0.70719 0.80462 0.51481 0.0
H595 H 0.72796 0.8054 0.46877 0.0
H596 H 0.82648 0.66456 0.56342 0.0
H597 H 0.83108 0.65107 0.51623 0.0
H598 H 0.77207 0.66673 0.60013 0.0
H599 H 0.74799 0.70937 0.61247 0.0
C600 C 0.10844 0.33854 0.98631 0.0
C601 C 0.10129 0.37428 0.96305 0.0
C602 C 1.01448 0.34639 0.99261 0.0
C603 C 1.02203 0.3109 0.01601 0.0
N604 N 0.06539 0.25802 0.02313 0.0
N605 N 1.04082 0.4 0.93591 0.0
C606 C 0.06541 0.30188 1.009 0.0
C607 C 1.05219 0.37456 0.96372 0.0
N608 N 0.15683 0.34071 0.98798 0.0
N609 N 0.97117 0.35304 0.99799 0.0
H610 H 0.06659 0.41887 0.91342 0.0
H611 H 1.00384 0.39773 0.93289 0.0
H612 H 0.94004 0.32906 0.01615 0.0
H613 H 0.96696 0.38329 0.98542 0.0
H614 H 0.16526 0.31864 1.00705 0.0
H615 H 0.1899 0.36735 0.9724 0.0
H616 H 0.09309 0.24665 0.01487 0.0
H617 H 1.0344 0.22954 0.03921 0.0
C618 C 0.3505 0.07759 0.51974 0.0
C619 C 0.35848 0.06359 0.48298 0.0
C620 C 0.31973 0.97006 0.50236 0.0
C621 C 0.3179 0.98552 0.54016 0.0
N622 N 0.34118 0.05567 0.586 0.0
N623 N 0.35314 0.9976 0.43873 0.0
C624 C 0.33568 0.03973 0.54918 0.0
C625 C 0.3434 1.00997 0.47403 0.0
N626 N 0.35717 0.12721 0.52649 0.0
N627 N 0.29858 0.91723 0.49358 0.0
H628 H 0.36777 1.02533 0.41698 0.0
H629 H 0.34903 0.9608 0.43133 0.0
H630 H 0.28247 0.88722 0.51377 0.0
H631 H 0.29336 0.90265 0.46612 0.0
H632 H 0.34666 0.13801 0.55182 0.0
H633 H 0.36824 0.15588 0.50546 0.0
H634 H 0.35882 0.09544 0.59438 0.0
H635 H 0.33269 1.02949 0.60839 0.0
C636 C 0.76604 0.76458 0.0539 0.0
C637 C 0.79576 0.74174 0.03864 0.0
C638 C 0.78569 0.76902 0.97491 0.0
C639 C 0.75738 0.79326 0.9903 0.0
N640 N 0.72638 0.82099 0.04431 0.0
N641 N 0.83981 0.72717 0.98577 0.0
C642 C 0.7491 0.79282 0.02982 0.0
C643 C 0.80751 0.74565 0.99946 0.0
N644 N 0.75307 0.75816 0.09133 0.0
N645 N 0.78932 0.76601 0.93665 0.0
H646 H 0.85515 0.70838 1.00258 0.0
H647 H 0.85488 0.73394 0.95846 0.0
H648 H 0.77526 0.78415 0.91808 0.0
H649 H 0.80366 0.74352 0.92311 0.0
H650 H 0.7265 0.76827 0.10371 0.0
H651 H 0.76713 0.74014 0.11002 0.0
H652 H 0.72374 0.82709 0.07297 0.0
H653 H 0.71423 0.84257 0.02745 0.0
C654 C 0.08177 0.2656 0.51727 0.0
C655 C 0.11462 0.32117 0.51739 0.0
C656 C 0.0665 0.32665 0.4625 0.0
C657 C 1.02354 0.27511 0.47148 0.0
N658 N 0.99337 0.19205 0.50479 0.0
N659 N 0.15843 0.39451 0.4747 0.0
C660 C 1.03235 0.24296 0.49756 0.0
C661 C 0.11331 0.34914 0.48515 0.0
N662 N 0.10103 0.23477 0.53149 0.0
N663 N 0.06218 0.354 0.43268 0.0
H664 H 0.19482 0.40707 0.48828 0.0
H665 H 0.16188 0.41588 0.45037 0.0
H666 H 1.03172 0.33621 0.41284 0.0
H667 H 0.0883 0.39414 0.42759 0.0
H668 H 0.08191 0.19364 0.52716 0.0
H669 H 0.13884 0.25164 0.54375 0.0
H670 H 0.99758 0.16822 0.5249 0.0
H671 H 0.95641 0.17418 0.49138 0.0
C672 C 0.71162 0.17856 0.14831 0.0
C673 C 0.75089 0.21842 0.1248 0.0
C674 C 0.68584 0.24512 0.10517 0.0
C675 C 0.646 0.20429 0.12772 0.0
N676 N 0.61802 0.12619 0.16581 0.0
N677 N 0.77006 0.27879 0.07267 0.0
C678 C 0.65804 0.16918 0.14788 0.0
C679 C 0.73609 0.24773 0.10033 0.0
N680 N 0.72595 0.15002 0.17136 0.0
N681 N 0.6775 0.28425 0.09068 0.0
H682 H 0.80715 0.28213 0.06784 0.0
H683 H 0.75903 0.29678 0.05184 0.0
H684 H 0.64257 0.2859 0.09498 0.0
H685 H 0.70747 0.3185 0.07802 0.0
H686 H 0.70196 0.12548 0.19288 0.0
H687 H 0.76299 0.15209 0.16921 0.0
H688 H 0.62281 0.09614 0.17808 0.0
H689 H 0.57862 0.1184 0.16604 0.0
C690 C 0.59534 0.42309 0.39825 0.0
C691 C 0.64099 0.44481 0.3745 0.0
C692 C 0.61324 0.35573 0.3493 0.0
C693 C 0.56547 0.33426 0.37087 0.0
N694 N 0.50564 0.3503 0.40929 0.0
N695 N 0.68379 0.43318 0.31913 0.0
C696 C 0.55491 0.36876 0.39352 0.0
C697 C 0.64643 0.4118 0.34703 0.0
N698 N 0.5904 0.45436 0.42523 0.0
N699 N 0.62979 0.32298 0.33349 0.0
H700 H 0.71037 0.4737 0.31649 0.0
H701 H 0.68497 0.41073 0.29639 0.0
H702 H 0.60999 0.28183 0.33711 0.0
H703 H 0.66702 0.33724 0.32084 0.0
H704 H 0.56166 0.43928 0.44639 0.0
H705 H 0.6167 0.49522 0.4275 0.0
H706 H 0.4939 0.37476 0.42314 0.0
H707 H 0.47457 0.31143 0.40528 0.0
C708 C 0.8459 0.42477 0.12362 0.0
C709 C 0.89786 0.43774 0.11151 0.0
C710 C 0.9213 0.5313 0.10387 0.0
C711 C 0.86889 0.51776 0.11505 0.0
N712 N 0.77781 0.45067 0.12688 0.0
N713 N 0.98216 0.50028 0.08393 0.0
C714 C 0.8301 0.46412 0.12225 0.0
C715 C 0.9347 0.49013 0.09957 0.0
N716 N 0.81207 0.37518 0.13742 0.0
N717 N 0.95856 0.58361 0.09866 0.0
H718 H 0.99356 0.47123 0.08127 0.0
H719 H 1.00861 0.53624 0.07126 0.0
H720 H 0.94936 0.61431 0.10046 0.0
H721 H 0.99897 0.59698 0.09461 0.0
H722 H 0.7761 0.36505 0.15073 0.0
H723 H 0.82169 0.34487 0.13793 0.0
H724 H 0.74665 0.41153 0.1282 0.0
H725 H 0.76479 0.47855 0.1258 0.0
C726 C 0.64113 0.13167 0.37358 0.0
C727 C 0.626 0.16826 0.38788 0.0
C728 C 0.71916 0.2324 0.40253 0.0
C729 C 0.73511 0.19774 0.3856 0.0
N730 N 0.71278 0.11644 0.35224 0.0
N731 N 0.6511 0.25784 0.40775 0.0
C732 C 0.69645 0.1479 0.37024 0.0
C733 C 0.66513 0.21977 0.40019 0.0
N734 N 0.60262 0.08116 0.36418 0.0
N735 N 0.75551 0.27748 0.42107 0.0
H736 H 0.61212 0.25087 0.40569 0.0
H737 H 0.67873 0.29789 0.41219 0.0
H738 H 0.79607 0.29002 0.4223 0.0
H739 H 0.74489 0.30062 0.43773 0.0
H740 H 0.61054 0.05065 0.3572 0.0
H741 H 0.56199 0.06881 0.3655 0.0
H742 H 0.68751 0.08263 0.33663 0.0
H743 H 0.75256 0.12559 0.35162 0.0
C744 C 0.64505 0.40103 0.18547 0.0
C745 C 0.59152 0.37918 0.17255 0.0
C746 C 0.61142 0.4682 0.15154 0.0
C747 C 0.66459 0.4898 0.16482 0.0
N748 N 0.72585 0.4797 0.20563 0.0
N749 N 0.52044 0.39429 0.15227 0.0
C750 C 0.6791 0.4573 0.1859 0.0
C751 C 0.57364 0.41359 0.1584 0.0
N752 N 0.6652 0.36829 0.19424 0.0
N753 N 0.59743 0.49982 0.13164 0.0
H754 H 0.49182 0.35485 0.15775 0.0
H755 H 0.50416 0.41826 0.14518 0.0
H756 H 0.62291 0.54075 0.12869 0.0
H757 H 0.56163 0.48528 0.11699 0.0
H758 H 0.70547 0.38235 0.19969 0.0
H759 H 0.64341 0.32693 0.19202 0.0
H760 H 0.73593 0.45817 0.22413 0.0
H761 H 0.75164 0.52062 0.207 0.0
C762 C 0.8239 0.44707 0.37419 0.0
C763 C 0.86107 0.50186 0.37971 0.0
C764 C 0.92955 0.47749 0.39539 0.0
C765 C 0.89382 0.42368 0.38482 0.0
N766 N 0.80941 0.36006 0.35695 0.0
N767 N 0.95103 0.57044 0.39265 0.0
C768 C 0.84194 0.40947 0.37179 0.0
C769 C 0.91447 0.5175 0.38972 0.0
N770 N 0.77054 0.43025 0.37365 0.0
N771 N 0.97774 0.49029 0.41092 0.0
H772 H 0.94086 0.60023 0.38923 0.0
H773 H 0.99176 0.58488 0.39602 0.0
H774 H 0.99089 0.46264 0.41373 0.0
H775 H 1.00325 0.52732 0.4229 0.0
H776 H 0.74126 0.39018 0.37369 0.0
H777 H 0.7556 0.45613 0.37812 0.0
H778 H 0.77355 0.34988 0.34344 0.0
H779 H 0.82017 0.33068 0.35509 0.0
C780 C 0.24061 0.68407 0.58958 0.0
C781 C 0.22456 0.70028 0.62256 0.0
C782 C 0.16929 0.60614 0.64039 0.0
C783 C 0.19342 0.59108 0.6114 0.0
N784 N 0.26045 0.61917 0.56216 0.0
N785 N 0.1737 0.67726 0.67998 0.0
C786 C 0.23056 0.63069 0.58646 0.0
C787 C 0.18852 0.66132 0.64801 0.0
N788 N 0.26698 0.71991 0.5616 0.0
N789 N 0.12732 0.56767 0.66016 0.0
H790 H 0.1843 0.71696 0.68505 0.0
H791 H 0.15306 0.65169 0.70207 0.0
H792 H 0.11148 0.52708 0.65462 0.0
H793 H 0.10498 0.5759 0.6794 0.0
H794 H 0.27473 0.70888 0.53533 0.0
H795 H 0.27637 0.75966 0.56308 0.0
H796 H 0.29242 0.64823 0.54692 0.0
H797 H 0.25816 0.58214 0.56016 0.0
C798 C 0.46126 0.86171 0.90545 0.0
C799 C 0.47783 0.91622 0.89908 0.0
C800 C 0.56879 0.93445 0.88577 0.0
C801 C 0.55324 0.88107 0.89559 0.0
N802 N 0.48567 0.79385 0.9164 0.0
N803 N 0.54661 1.00566 0.88559 0.0
C804 C 0.49977 0.84473 0.90597 0.0
C805 C 0.53136 0.95294 0.88962 0.0
N806 N 0.40817 0.8257 0.90956 0.0
N807 N 0.61918 0.9672 0.87258 0.0
H808 H 0.51969 1.01993 0.88723 0.0
H809 H 0.58604 1.03571 0.88271 0.0
H810 H 0.6483 0.95576 0.87117 0.0
H811 H 0.63151 1.0046 0.8611 0.0
H812 H 0.39251 0.78457 0.9095 0.0
H813 H 0.37858 0.83644 0.90976 0.0
H814 H 0.44958 0.76781 0.92917 0.0
H815 H 0.51101 0.7779 0.91413 0.0
C816 C 0.45339 0.55867 0.63837 0.0
C817 C 0.46911 0.61375 0.6375 0.0
C818 C 0.37529 0.59143 0.63655 0.0
C819 C 0.35937 0.53663 0.64017 0.0
N820 N 0.38232 0.46783 0.64941 0.0
N821 N 0.44512 0.68238 0.64546 0.0
C822 C 0.39819 0.5201 0.6425 0.0
C823 C 0.43005 0.63004 0.63927 0.0
N824 N 0.49085 0.54319 0.63377 0.0
N825 N 0.3382 0.60671 0.62931 0.0
H826 H 0.48468 0.71154 0.64935 0.0
H827 H 0.41829 0.69594 0.65094 0.0
H828 H 0.29755 0.57983 0.62705 0.0
H829 H 0.34815 0.64546 0.62204 0.0
H830 H 0.48154 0.5037 0.63008 0.0
H831 H 0.53144 0.5703 0.63104 0.0
H832 H 0.40864 0.45393 0.65539 0.0
H833 H 0.34226 0.43872 0.65172 0.0
C834 C 0.21271 0.72874 0.90539 0.0
C835 C 0.25523 0.76324 0.88135 0.0
C836 C 0.25438 0.68498 0.8528 0.0
C837 C 0.21978 0.6524 0.88144 0.0
N838 N 0.16748 0.64308 0.9368 0.0
N839 N 0.32501 0.77299 0.83798 0.0
C840 C 0.1993 0.67423 0.9083 0.0
C841 C 0.27804 0.74113 0.85619 0.0
N842 N 0.18381 0.74735 0.92429 0.0
N843 N 0.26575 0.66255 0.82271 0.0
H844 H 0.34779 0.81391 0.84227 0.0
H845 H 0.34525 0.75784 0.82233 0.0
H846 H 0.24974 0.62149 0.8196 0.0
H847 H 0.28691 0.68445 0.79927 0.0
H848 H 0.14952 0.72285 0.93962 0.0
H849 H 0.19069 0.78619 0.92136 0.0
H850 H 0.15638 0.65822 0.95969 0.0
H851 H 0.15463 0.6024 0.93851 0.0
C852 C 0.45257 0.81278 0.60596 0.0
C853 C 0.45587 0.85731 0.62575 0.0
C854 C 0.54493 0.87897 0.64884 0.0
C855 C 0.5424 0.83587 0.62757 0.0
N856 N 0.50002 0.77243 0.57685 0.0
N857 N 0.5108 0.94008 0.65867 0.0
C858 C 0.49852 0.80665 0.60293 0.0
C859 C 0.50376 0.89261 0.64507 0.0
N860 N 0.40457 0.77383 0.59245 0.0
N861 N 0.58653 0.90653 0.67307 0.0
H862 H 0.48238 0.95215 0.6555 0.0
H863 H 0.54672 0.96971 0.66982 0.0
H864 H 0.61928 0.9004 0.67427 0.0
H865 H 0.58743 0.93364 0.69297 0.0
H866 H 0.3988 0.73774 0.58155 0.0
H867 H 0.36906 0.77448 0.59615 0.0
H868 H 0.47095 0.75379 0.55614 0.0
H869 H 0.53301 0.76743 0.57287 0.0
C870 C 0.47563 0.60577 0.88992 0.0
C871 C 0.49751 0.65903 0.87695 0.0
C872 C 0.4078 0.64238 0.86163 0.0
C873 C 0.38597 0.58795 0.8717 0.0
N874 N 0.40003 0.51559 0.89004 0.0
N875 N 0.48549 0.72394 0.84215 0.0
C876 C 0.42019 0.5689 0.88431 0.0
C877 C 0.46396 0.67574 0.85976 0.0
N878 N 0.50773 0.59079 0.90822 0.0
N879 N 0.37497 0.66351 0.8567 0.0
H880 H 0.52639 0.74981 0.84035 0.0
H881 H 0.46297 0.73586 0.82616 0.0
H882 H 0.33388 0.64153 0.86069 0.0
H883 H 0.38893 0.70414 0.85334 0.0
H884 H 0.49339 0.55471 0.92228 0.0
H885 H 0.54883 0.61587 0.91076 0.0
H886 H 0.42367 0.49841 0.89563 0.0
H887 H 0.35975 0.48785 0.88638 0.0
loop_
_geom_bond_atom_site_label_1
_geom_bond_atom_site_label_2
_geom_bond_distance
_geom_bond_site_symmetry_2
_ccdc_geom_bond_type
O0 Tb1 2.506 . S
O0 C14 1.265 . S
Tb1 O0 2.506 . S
Tb1 O6 2.312 . S
Tb1 O10 2.271 . S
Tb1 O12 2.338 . S
Tb1 O19 2.441 . S
C2 O10 1.252 . S
C2 O11 1.253 . S
O3 Tb4 2.271 . S
O3 C13 1.252 . S
Tb4 O3 2.271 . S
Tb4 O7 2.338 . S
Tb4 O11 2.312 . S
Tb4 O15 2.441 . S
Tb4 O16 2.506 . S
C5 O15 1.244 . S
C5 O16 1.265 . S
O6 Tb1 2.312 . S
O6 C13 1.253 . S
O7 Tb4 2.338 . S
O7 C8 1.258 . S
C8 O7 1.258 . S
C8 O9 1.251 . S
O9 C8 1.251 . S
O10 Tb1 2.271 . S
O10 C2 1.252 . S
O11 C2 1.253 . S
O11 Tb4 2.312 . S
O12 Tb1 2.338 . S
O12 C17 1.258 . S
C13 O3 1.252 . S
C13 O6 1.253 . S
C14 O0 1.265 . S
C14 O19 1.244 . S
O15 Tb4 2.441 . S
O15 C5 1.244 . S
O16 Tb4 2.506 . S
O16 C5 1.265 . S
C17 O12 1.258 . S
C17 O18 1.251 . S
O18 C17 1.251 . S
O19 Tb1 2.441 . S
O19 C14 1.244 . S
O20 Tb21 2.506 . S
O20 C34 1.265 . S
Tb21 O20 2.506 . S
Tb21 O26 2.312 . S
Tb21 O30 2.271 . S
Tb21 O32 2.338 . S
Tb21 O39 2.441 . S
C22 O30 1.252 . S
C22 O31 1.253 . S
O23 Tb24 2.271 . S
O23 C33 1.252 . S
Tb24 O23 2.271 . S
Tb24 O27 2.338 . S
Tb24 O31 2.312 . S
Tb24 O35 2.441 . S
Tb24 O36 2.506 . S
C25 O35 1.244 . S
C25 O36 1.265 . S
O26 Tb21 2.312 . S
O26 C33 1.253 . S
O27 Tb24 2.338 . S
O27 C28 1.258 . S
C28 O27 1.258 . S
C28 O29 1.251 . S
O29 C28 1.251 . S
O30 Tb21 2.271 . S
O30 C22 1.252 . S
O31 C22 1.253 . S
O31 Tb24 2.312 . S
O32 Tb21 2.338 . S
O32 C37 1.258 . S
C33 O23 1.252 . S
C33 O26 1.253 . S
C34 O20 1.265 . S
C34 O39 1.244 . S
O35 Tb24 2.441 . S
O35 C25 1.244 . S
O36 Tb24 2.506 . S
O36 C25 1.265 . S
C37 O32 1.258 . S
C37 O38 1.251 . S
O38 C37 1.251 . S
O39 Tb21 2.441 . S
O39 C34 1.244 . S
O40 Tb41 2.506 . S
O40 C54 1.265 . S
Tb41 O40 2.506 . S
Tb41 O46 2.312 . S
Tb41 O50 2.271 . S
Tb41 O52 2.338 . S
Tb41 O59 2.441 . S
C42 O50 1.252 . S
C42 O51 1.253 . S
O43 Tb44 2.271 . S
O43 C53 1.252 . S
Tb44 O43 2.271 . S
Tb44 O47 2.338 . S
Tb44 O51 2.312 . S
Tb44 O55 2.441 . S
Tb44 O56 2.506 . S
C45 O55 1.244 . S
C45 O56 1.265 . S
O46 Tb41 2.312 . S
O46 C53 1.253 . S
O47 Tb44 2.338 . S
O47 C48 1.258 . S
C48 O47 1.258 . S
C48 O49 1.251 . S
O49 C48 1.251 . S
O50 Tb41 2.271 . S
O50 C42 1.252 . S
O51 C42 1.253 . S
O51 Tb44 2.312 . S
O52 Tb41 2.338 . S
O52 C57 1.258 . S
C53 O43 1.252 . S
C53 O46 1.253 . S
C54 O40 1.265 . S
C54 O59 1.244 . S
O55 Tb44 2.441 . S
O55 C45 1.244 . S
O56 Tb44 2.506 . S
O56 C45 1.265 . S
C57 O52 1.258 . S
C57 O58 1.251 . S
O58 C57 1.251 . S
O59 Tb41 2.441 . S
O59 C54 1.244 . S
O60 Tb61 2.506 . S
O60 C74 1.265 . S
Tb61 O60 2.506 . S
Tb61 O66 2.312 . S
Tb61 O70 2.271 . S
Tb61 O72 2.338 . S
Tb61 O79 2.441 . S
C62 O70 1.252 . S
C62 O71 1.253 . S
O63 Tb64 2.271 . S
O63 C73 1.252 . S
Tb64 O63 2.271 . S
Tb64 O67 2.338 . S
Tb64 O71 2.312 . S
Tb64 O75 2.441 . S
Tb64 O76 2.506 . S
C65 O75 1.244 . S
C65 O76 1.265 . S
O66 Tb61 2.312 . S
O66 C73 1.253 . S
O67 Tb64 2.338 . S
O67 C68 1.258 . S
C68 O67 1.258 . S
C68 O69 1.251 . S
O69 C68 1.251 . S
O70 Tb61 2.271 . S
O70 C62 1.252 . S
O71 C62 1.253 . S
O71 Tb64 2.312 . S
O72 Tb61 2.338 . S
O72 C77 1.258 . S
C73 O63 1.252 . S
C73 O66 1.253 . S
C74 O60 1.265 . S
C74 O79 1.244 . S
O75 Tb64 2.441 . S
O75 C65 1.244 . S
O76 Tb64 2.506 . S
O76 C65 1.265 . S
C77 O72 1.258 . S
C77 O78 1.251 . S
O78 C77 1.251 . S
O79 Tb61 2.441 . S
O79 C74 1.244 . S
O80 Tb81 2.506 . S
O80 C94 1.265 . S
Tb81 O80 2.506 . S
Tb81 O86 2.312 . S
Tb81 O90 2.271 . S
Tb81 O92 2.338 . S
Tb81 O99 2.441 . S
C82 O90 1.252 . S
C82 O91 1.253 . S
O83 Tb84 2.271 . S
O83 C93 1.252 . S
Tb84 O83 2.271 . S
Tb84 O87 2.338 . S
Tb84 O91 2.312 . S
Tb84 O95 2.441 . S
Tb84 O96 2.506 . S
C85 O95 1.244 . S
C85 O96 1.265 . S
O86 Tb81 2.312 . S
O86 C93 1.253 . S
O87 Tb84 2.338 . S
O87 C88 1.258 . S
C88 O87 1.258 . S
C88 O89 1.251 . S
O89 C88 1.251 . S
O90 Tb81 2.271 . S
O90 C82 1.252 . S
O91 C82 1.253 . S
O91 Tb84 2.312 . S
O92 Tb81 2.338 . S
O92 C97 1.258 . S
C93 O83 1.252 . S
C93 O86 1.253 . S
C94 O80 1.265 . S
C94 O99 1.244 . S
O95 Tb84 2.441 . S
O95 C85 1.244 . S
O96 Tb84 2.506 . S
O96 C85 1.265 . S
C97 O92 1.258 . S
C97 O98 1.251 . S
O98 C97 1.251 . S
O99 Tb81 2.441 . S
O99 C94 1.244 . S
O100 Tb101 2.506 . S
O100 C114 1.265 . S
Tb101 O100 2.506 . S
Tb101 O106 2.312 . S
Tb101 O110 2.271 . S
Tb101 O112 2.338 . S
Tb101 O119 2.441 . S
C102 O110 1.252 . S
C102 O111 1.253 . S
O103 Tb104 2.271 . S
O103 C113 1.252 . S
Tb104 O103 2.271 . S
Tb104 O107 2.338 . S
Tb104 O111 2.312 . S
Tb104 O115 2.441 . S
Tb104 O116 2.506 . S
C105 O115 1.244 . S
C105 O116 1.265 . S
O106 Tb101 2.312 . S
O106 C113 1.253 . S
O107 Tb104 2.338 . S
O107 C108 1.258 . S
C108 O107 1.258 . S
C108 O109 1.251 . S
O109 C108 1.251 . S
O110 Tb101 2.271 . S
O110 C102 1.252 . S
O111 C102 1.253 . S
O111 Tb104 2.312 . S
O112 Tb101 2.338 . S
O112 C117 1.258 . S
C113 O103 1.252 . S
C113 O106 1.253 . S
C114 O100 1.265 . S
C114 O119 1.244 . S
O115 Tb104 2.441 . S
O115 C105 1.244 . S
O116 Tb104 2.506 . S
O116 C105 1.265 . S
C117 O112 1.258 . S
C117 O118 1.251 . S
O118 C117 1.251 . S
O119 Tb101 2.441 . S
O119 C114 1.244 . S
O120 Tb121 2.506 . S
O120 C134 1.265 . S
Tb121 O120 2.506 . S
Tb121 O126 2.312 . S
Tb121 O130 2.271 . S
Tb121 O132 2.338 . S
Tb121 O139 2.441 . S
C122 O130 1.252 . S
C122 O131 1.253 . S
O123 Tb124 2.271 . S
O123 C133 1.252 . S
Tb124 O123 2.271 . S
Tb124 O127 2.338 . S
Tb124 O131 2.312 . S
Tb124 O135 2.441 . S
Tb124 O136 2.506 . S
C125 O135 1.244 . S
C125 O136 1.265 . S
O126 Tb121 2.312 . S
O126 C133 1.253 . S
O127 Tb124 2.338 . S
O127 C128 1.258 . S
C128 O127 1.258 . S
C128 O129 1.251 . S
O129 C128 1.251 . S
O130 Tb121 2.271 . S
O130 C122 1.252 . S
O131 C122 1.253 . S
O131 Tb124 2.312 . S
O132 Tb121 2.338 . S
O132 C137 1.258 . S
C133 O123 1.252 . S
C133 O126 1.253 . S
C134 O120 1.265 . S
C134 O139 1.244 . S
O135 Tb124 2.441 . S
O135 C125 1.244 . S
O136 Tb124 2.506 . S
O136 C125 1.265 . S
C137 O132 1.258 . S
C137 O138 1.251 . S
O138 C137 1.251 . S
O139 Tb121 2.441 . S
O139 C134 1.244 . S
O140 Tb141 2.506 . S
O140 C154 1.265 . S
Tb141 O140 2.506 . S
Tb141 O146 2.312 . S
Tb141 O150 2.271 . S
Tb141 O152 2.338 . S
Tb141 O159 2.441 . S
C142 O150 1.252 . S
C142 O151 1.253 . S
O143 Tb144 2.271 . S
O143 C153 1.252 . S
Tb144 O143 2.271 . S
Tb144 O147 2.338 . S
Tb144 O151 2.312 . S
Tb144 O155 2.441 . S
Tb144 O156 2.506 . S
C145 O155 1.244 . S
C145 O156 1.265 . S
O146 Tb141 2.312 . S
O146 C153 1.253 . S
O147 Tb144 2.338 . S
O147 C148 1.258 . S
C148 O147 1.258 . S
C148 O149 1.251 . S
O149 C148 1.251 . S
O150 Tb141 2.271 . S
O150 C142 1.252 . S
O151 C142 1.253 . S
O151 Tb144 2.312 . S
O152 Tb141 2.338 . S
O152 C157 1.258 . S
C153 O143 1.252 . S
C153 O146 1.253 . S
C154 O140 1.265 . S
C154 O159 1.244 . S
O155 Tb144 2.441 . S
O155 C145 1.244 . S
O156 Tb144 2.506 . S
O156 C145 1.265 . S
C157 O152 1.258 . S
C157 O158 1.251 . S
O158 C157 1.251 . S
O159 Tb141 2.441 . S
O159 C154 1.244 . S
O160 Tb161 2.506 . S
O160 C174 1.265 . S
Tb161 O160 2.506 . S
Tb161 O166 2.312 . S
Tb161 O170 2.271 . S
Tb161 O172 2.338 . S
Tb161 O179 2.441 . S
C162 O170 1.252 . S
C162 O171 1.253 . S
O163 Tb164 2.271 . S
O163 C173 1.252 . S
Tb164 O163 2.271 . S
Tb164 O167 2.338 . S
Tb164 O171 2.312 . S
Tb164 O175 2.441 . S
Tb164 O176 2.506 . S
C165 O175 1.244 . S
C165 O176 1.265 . S
O166 Tb161 2.312 . S
O166 C173 1.253 . S
O167 Tb164 2.338 . S
O167 C168 1.258 . S
C168 O167 1.258 . S
C168 O169 1.251 . S
O169 C168 1.251 . S
O170 Tb161 2.271 . S
O170 C162 1.252 . S
O171 C162 1.253 . S
O171 Tb164 2.312 . S
O172 Tb161 2.338 . S
O172 C177 1.258 . S
C173 O163 1.252 . S
C173 O166 1.253 . S
C174 O160 1.265 . S
C174 O179 1.244 . S
O175 Tb164 2.441 . S
O175 C165 1.244 . S
O176 Tb164 2.506 . S
O176 C165 1.265 . S
C177 O172 1.258 . S
C177 O178 1.251 . S
O178 C177 1.251 . S
O179 Tb161 2.441 . S
O179 C174 1.244 . S
O180 Tb181 2.506 . S
O180 C194 1.265 . S
Tb181 O180 2.506 . S
Tb181 O186 2.312 . S
Tb181 O190 2.271 . S
Tb181 O192 2.338 . S
Tb181 O199 2.441 . S
C182 O190 1.252 . S
C182 O191 1.253 . S
O183 Tb184 2.271 . S
O183 C193 1.252 . S
Tb184 O183 2.271 . S
Tb184 O187 2.338 . S
Tb184 O191 2.312 . S
Tb184 O195 2.441 . S
Tb184 O196 2.506 . S
C185 O195 1.244 . S
C185 O196 1.265 . S
O186 Tb181 2.312 . S
O186 C193 1.253 . S
O187 Tb184 2.338 . S
O187 C188 1.258 . S
C188 O187 1.258 . S
C188 O189 1.251 . S
O189 C188 1.251 . S
O190 Tb181 2.271 . S
O190 C182 1.252 . S
O191 C182 1.253 . S
O191 Tb184 2.312 . S
O192 Tb181 2.338 . S
O192 C197 1.258 . S
C193 O183 1.252 . S
C193 O186 1.253 . S
C194 O180 1.265 . S
C194 O199 1.244 . S
O195 Tb184 2.441 . S
O195 C185 1.244 . S
O196 Tb184 2.506 . S
O196 C185 1.265 . S
C197 O192 1.258 . S
C197 O198 1.251 . S
O198 C197 1.251 . S
O199 Tb181 2.441 . S
O199 C194 1.244 . S
O200 Tb201 2.506 . S
O200 C214 1.265 . S
Tb201 O200 2.506 . S
Tb201 O206 2.312 . S
Tb201 O210 2.271 . S
Tb201 O212 2.338 . S
Tb201 O219 2.441 . S
C202 O210 1.252 . S
C202 O211 1.253 . S
O203 Tb204 2.271 . S
O203 C213 1.252 . S
Tb204 O203 2.271 . S
Tb204 O207 2.338 . S
Tb204 O211 2.312 . S
Tb204 O215 2.441 . S
Tb204 O216 2.506 . S
C205 O215 1.244 . S
C205 O216 1.265 . S
O206 Tb201 2.312 . S
O206 C213 1.253 . S
O207 Tb204 2.338 . S
O207 C208 1.258 . S
C208 O207 1.258 . S
C208 O209 1.251 . S
O209 C208 1.251 . S
O210 Tb201 2.271 . S
O210 C202 1.252 . S
O211 C202 1.253 . S
O211 Tb204 2.312 . S
O212 Tb201 2.338 . S
O212 C217 1.258 . S
C213 O203 1.252 . S
C213 O206 1.253 . S
C214 O200 1.265 . S
C214 O219 1.244 . S
O215 Tb204 2.441 . S
O215 C205 1.244 . S
O216 Tb204 2.506 . S
O216 C205 1.265 . S
C217 O212 1.258 . S
C217 O218 1.251 . S
O218 C217 1.251 . S
O219 Tb201 2.441 . S
O219 C214 1.244 . S
O220 Tb221 2.506 . S
O220 C234 1.265 . S
Tb221 O220 2.506 . S
Tb221 O226 2.312 . S
Tb221 O230 2.271 . S
Tb221 O232 2.338 . S
Tb221 O239 2.441 . S
C222 O230 1.252 . S
C222 O231 1.253 . S
O223 Tb224 2.271 . S
O223 C233 1.252 . S
Tb224 O223 2.271 . S
Tb224 O227 2.338 . S
Tb224 O231 2.312 . S
Tb224 O235 2.441 . S
Tb224 O236 2.506 . S
C225 O235 1.244 . S
C225 O236 1.265 . S
O226 Tb221 2.312 . S
O226 C233 1.253 . S
O227 Tb224 2.338 . S
O227 C228 1.258 . S
C228 O227 1.258 . S
C228 O229 1.251 . S
O229 C228 1.251 . S
O230 Tb221 2.271 . S
O230 C222 1.252 . S
O231 C222 1.253 . S
O231 Tb224 2.312 . S
O232 Tb221 2.338 . S
O232 C237 1.258 . S
C233 O223 1.252 . S
C233 O226 1.253 . S
C234 O220 1.265 . S
C234 O239 1.244 . S
O235 Tb224 2.441 . S
O235 C225 1.244 . S
O236 Tb224 2.506 . S
O236 C225 1.265 . S
C237 O232 1.258 . S
C237 O238 1.251 . S
O238 C237 1.251 . S
O239 Tb221 2.441 . S
O239 C234 1.244 . S
C240 C241 1.363 . S
C240 C246 1.379 . S
C240 N248 1.356 . S
C241 C240 1.363 . S
C241 C247 1.363 . S
C242 C243 1.363 . S
C242 C247 1.379 . S
C242 N249 1.356 . S
C243 C242 1.363 . S
C243 C246 1.363 . S
N244 C246 1.356 . S
N244 H256 0.984 . S
N244 H257 0.985 . S
N245 C247 1.356 . S
N245 H250 0.984 . S
N245 H251 0.985 . S
C246 C240 1.379 . S
C246 C243 1.363 . S
C246 N244 1.356 . S
C247 C241 1.363 . S
C247 C242 1.379 . S
C247 N245 1.356 . S
N248 C240 1.356 . S
N248 H254 0.984 . S
N248 H255 0.984 . S
N249 C242 1.356 . S
N249 H252 0.984 . S
N249 H253 0.985 . S
H250 N245 0.984 . S
H251 N245 0.985 . S
H252 N249 0.984 . S
H253 N249 0.985 . S
H254 N248 0.984 . S
H255 N248 0.984 . S
H256 N244 0.984 . S
H257 N244 0.985 . S
C258 C259 1.363 . S
C258 C264 1.379 1_455 S
C258 N266 1.356 1_565 S
C259 C258 1.363 . S
C259 C265 1.363 . S
C260 C261 1.363 1_455 S
C260 C265 1.379 . S
C260 N267 1.356 . S
C261 C260 1.363 1_655 S
C261 C264 1.363 . S
N262 C264 1.356 . S
N262 H274 0.984 . S
N262 H275 0.985 . S
N263 C265 1.356 . S
N263 H268 0.984 . S
N263 H269 0.985 . S
C264 C258 1.379 1_655 S
C264 C261 1.363 . S
C264 N262 1.356 . S
C265 C259 1.363 . S
C265 C260 1.379 . S
C265 N263 1.356 . S
N266 C258 1.356 1_545 S
N266 H272 0.984 . S
N266 H273 0.984 . S
N267 C260 1.356 . S
N267 H270 0.984 1_455 S
N267 H271 0.985 . S
H268 N263 0.984 . S
H269 N263 0.985 . S
H270 N267 0.984 1_655 S
H271 N267 0.985 . S
H272 N266 0.984 . S
H273 N266 0.984 . S
H274 N262 0.984 . S
H275 N262 0.985 . S
C276 C277 1.363 1_565 S
C276 C282 1.379 . S
C276 N284 1.356 . S
C277 C276 1.363 1_545 S
C277 C283 1.363 . S
C278 C279 1.363 . S
C278 C283 1.379 1_565 S
C278 N285 1.356 . S
C279 C278 1.363 . S
C279 C282 1.363 . S
N280 C282 1.356 . S
N280 H292 0.984 . S
N280 H293 0.985 . S
N281 C283 1.356 . S
N281 H286 0.984 . S
N281 H287 0.985 . S
C282 C276 1.379 . S
C282 C279 1.363 . S
C282 N280 1.356 . S
C283 C277 1.363 . S
C283 C278 1.379 1_545 S
C283 N281 1.356 . S
N284 C276 1.356 . S
N284 H290 0.984 . S
N284 H291 0.984 1_565 S
N285 C278 1.356 . S
N285 H288 0.984 . S
N285 H289 0.985 . S
H286 N281 0.984 . S
H287 N281 0.985 . S
H288 N285 0.984 . S
H289 N285 0.985 . S
H290 N284 0.984 . S
H291 N284 0.984 1_545 S
H292 N280 0.984 . S
H293 N280 0.985 . S
C294 C295 1.363 . S
C294 C300 1.379 . S
C294 N302 1.356 . S
C295 C294 1.363 . S
C295 C301 1.363 . S
C296 C297 1.363 . S
C296 C301 1.379 . S
C296 N303 1.356 . S
C297 C296 1.363 . S
C297 C300 1.363 . S
N298 C300 1.356 . S
N298 H310 0.984 . S
N298 H311 0.985 . S
N299 C301 1.356 . S
N299 H304 0.984 . S
N299 H305 0.985 . S
C300 C294 1.379 . S
C300 C297 1.363 . S
C300 N298 1.356 . S
C301 C295 1.363 . S
C301 C296 1.379 . S
C301 N299 1.356 . S
N302 C294 1.356 . S
N302 H308 0.984 . S
N302 H309 0.984 . S
N303 C296 1.356 . S
N303 H306 0.984 1_455 S
N303 H307 0.985 . S
H304 N299 0.984 . S
H305 N299 0.985 . S
H306 N303 0.984 1_655 S
H307 N303 0.985 . S
H308 N302 0.984 . S
H309 N302 0.984 . S
H310 N298 0.984 . S
H311 N298 0.985 . S
C312 C313 1.363 . S
C312 C318 1.379 . S
C312 N320 1.356 . S
C313 C312 1.363 . S
C313 C319 1.363 . S
C314 C315 1.363 . S
C314 C319 1.379 1_655 S
C314 N321 1.356 . S
C315 C314 1.363 . S
C315 C318 1.363 1_655 S
N316 C318 1.356 . S
N316 H328 0.984 . S
N316 H329 0.985 1_455 S
N317 C319 1.356 . S
N317 H322 0.984 . S
N317 H323 0.985 . S
C318 C312 1.379 . S
C318 C315 1.363 1_455 S
C318 N316 1.356 . S
C319 C313 1.363 . S
C319 C314 1.379 1_455 S
C319 N317 1.356 . S
N320 C312 1.356 . S
N320 H326 0.984 . S
N320 H327 0.984 . S
N321 C314 1.356 . S
N321 H324 0.984 . S
N321 H325 0.985 . S
H322 N317 0.984 . S
H323 N317 0.985 . S
H324 N321 0.984 . S
H325 N321 0.985 . S
H326 N320 0.984 . S
H327 N320 0.984 . S
H328 N316 0.984 . S
H329 N316 0.985 1_655 S
C330 C331 1.363 . S
C330 C336 1.379 . S
C330 N338 1.356 . S
C331 C330 1.363 . S
C331 C337 1.363 . S
C332 C333 1.363 . S
C332 C337 1.379 1_545 S
C332 N339 1.356 . S
C333 C332 1.363 . S
C333 C336 1.363 1_545 S
N334 C336 1.356 . S
N334 H346 0.984 . S
N334 H347 0.985 1_565 S
N335 C337 1.356 . S
N335 H340 0.984 . S
N335 H341 0.985 . S
C336 C330 1.379 . S
C336 C333 1.363 1_565 S
C336 N334 1.356 . S
C337 C331 1.363 . S
C337 C332 1.379 1_565 S
C337 N335 1.356 . S
N338 C330 1.356 . S
N338 H344 0.984 . S
N338 H345 0.984 . S
N339 C332 1.356 . S
N339 H342 0.984 . S
N339 H343 0.985 . S
H340 N335 0.984 . S
H341 N335 0.985 . S
H342 N339 0.984 . S
H343 N339 0.985 . S
H344 N338 0.984 . S
H345 N338 0.984 . S
H346 N334 0.984 . S
H347 N334 0.985 1_545 S
C348 C349 1.363 . S
C348 C354 1.379 . S
C348 N356 1.356 . S
C349 C348 1.363 . S
C349 C355 1.363 . S
C350 C351 1.363 . S
C350 C355 1.379 . S
C350 N357 1.356 . S
C351 C350 1.363 . S
C351 C354 1.363 . S
N352 C354 1.356 . S
N352 H364 0.984 . S
N352 H365 0.985 . S
N353 C355 1.356 . S
N353 H358 0.984 . S
N353 H359 0.985 . S
C354 C348 1.379 . S
C354 C351 1.363 . S
C354 N352 1.356 . S
C355 C349 1.363 . S
C355 C350 1.379 . S
C355 N353 1.356 . S
N356 C348 1.356 . S
N356 H362 0.984 . S
N356 H363 0.984 . S
N357 C350 1.356 . S
N357 H360 0.984 . S
N357 H361 0.985 . S
H358 N353 0.984 . S
H359 N353 0.985 . S
H360 N357 0.984 . S
H361 N357 0.985 . S
H362 N356 0.984 . S
H363 N356 0.984 . S
H364 N352 0.984 . S
H365 N352 0.985 . S
C366 C367 1.363 1_655 S
C366 C372 1.379 . S
C366 N374 1.356 1_655 S
C367 C366 1.363 1_455 S
C367 C373 1.363 1_455 S
C368 C369 1.363 . S
C368 C373 1.379 . S
C368 N375 1.356 . S
C369 C368 1.363 . S
C369 C372 1.363 . S
N370 C372 1.356 . S
N370 H382 0.984 . S
N370 H383 0.985 . S
N371 C373 1.356 1_455 S
N371 H376 0.984 . S
N371 H377 0.985 1_455 S
C372 C366 1.379 . S
C372 C369 1.363 . S
C372 N370 1.356 . S
C373 C367 1.363 1_655 S
C373 C368 1.379 . S
C373 N371 1.356 1_655 S
N374 C366 1.356 1_455 S
N374 H380 0.984 . S
N374 H381 0.984 . S
N375 C368 1.356 . S
N375 H378 0.984 . S
N375 H379 0.985 . S
H376 N371 0.984 . S
H377 N371 0.985 1_655 S
H378 N375 0.984 . S
H379 N375 0.985 . S
H380 N374 0.984 . S
H381 N374 0.984 . S
H382 N370 0.984 . S
H383 N370 0.985 . S
C384 C385 1.363 1_545 S
C384 C390 1.379 . S
C384 N392 1.356 . S
C385 C384 1.363 1_565 S
C385 C391 1.363 . S
C386 C387 1.363 . S
C386 C391 1.379 1_545 S
C386 N393 1.356 . S
C387 C386 1.363 . S
C387 C390 1.363 . S
N388 C390 1.356 . S
N388 H400 0.984 1_655 S
N388 H401 0.985 1_655 S
N389 C391 1.356 . S
N389 H394 0.984 . S
N389 H395 0.985 . S
C390 C384 1.379 . S
C390 C387 1.363 . S
C390 N388 1.356 . S
C391 C385 1.363 . S
C391 C386 1.379 1_565 S
C391 N389 1.356 . S
N392 C384 1.356 . S
N392 H398 0.984 . S
N392 H399 0.984 1_545 S
N393 C386 1.356 . S
N393 H396 0.984 . S
N393 H397 0.985 . S
H394 N389 0.984 . S
H395 N389 0.985 . S
H396 N393 0.984 . S
H397 N393 0.985 . S
H398 N392 0.984 . S
H399 N392 0.984 1_565 S
H400 N388 0.984 1_455 S
H401 N388 0.985 1_455 S
C402 C403 1.363 . S
C402 C408 1.379 . S
C402 N410 1.356 . S
C403 C402 1.363 . S
C403 C409 1.363 . S
C404 C405 1.363 . S
C404 C409 1.379 . S
C404 N411 1.356 . S
C405 C404 1.363 . S
C405 C408 1.363 . S
N406 C408 1.356 . S
N406 H418 0.984 . S
N406 H419 0.985 . S
N407 C409 1.356 . S
N407 H412 0.984 . S
N407 H413 0.985 . S
C408 C402 1.379 . S
C408 C405 1.363 . S
C408 N406 1.356 . S
C409 C403 1.363 . S
C409 C404 1.379 . S
C409 N407 1.356 . S
N410 C402 1.356 . S
N410 H416 0.984 . S
N410 H417 0.984 . S
N411 C404 1.356 . S
N411 H414 0.984 . S
N411 H415 0.985 . S
H412 N407 0.984 . S
H413 N407 0.985 . S
H414 N411 0.984 . S
H415 N411 0.985 . S
H416 N410 0.984 . S
H417 N410 0.984 . S
H418 N406 0.984 . S
H419 N406 0.985 . S
C420 C421 1.363 1_655 S
C420 C426 1.379 . S
C420 N428 1.356 . S
C421 C420 1.363 1_455 S
C421 C427 1.363 . S
C422 C423 1.363 . S
C422 C427 1.379 1_655 S
C422 N429 1.356 . S
C423 C422 1.363 . S
C423 C426 1.363 . S
N424 C426 1.356 . S
N424 H436 0.984 . S
N424 H437 0.985 . S
N425 C427 1.356 . S
N425 H430 0.984 . S
N425 H431 0.985 . S
C426 C420 1.379 . S
C426 C423 1.363 . S
C426 N424 1.356 . S
C427 C421 1.363 . S
C427 C422 1.379 1_455 S
C427 N425 1.356 . S
N428 C420 1.356 . S
N428 H434 0.984 . S
N428 H435 0.984 1_655 S
N429 C422 1.356 . S
N429 H432 0.984 . S
N429 H433 0.985 . S
H430 N425 0.984 . S
H431 N425 0.985 . S
H432 N429 0.984 . S
H433 N429 0.985 . S
H434 N428 0.984 . S
H435 N428 0.984 1_455 S
H436 N424 0.984 . S
H437 N424 0.985 . S
C438 C439 1.363 . S
C438 C444 1.379 1_545 S
C438 N446 1.356 . S
C439 C438 1.363 . S
C439 C445 1.363 . S
C440 C441 1.363 1_545 S
C440 C445 1.379 . S
C440 N447 1.356 . S
C441 C440 1.363 1_565 S
C441 C444 1.363 . S
N442 C444 1.356 . S
N442 H454 0.984 . S
N442 H455 0.985 . S
N443 C445 1.356 . S
N443 H448 0.984 . S
N443 H449 0.985 . S
C444 C438 1.379 1_565 S
C444 C441 1.363 . S
C444 N442 1.356 . S
C445 C439 1.363 . S
C445 C440 1.379 . S
C445 N443 1.356 . S
N446 C438 1.356 . S
N446 H452 0.984 . S
N446 H453 0.984 . S
N447 C440 1.356 . S
N447 H450 0.984 1_545 S
N447 H451 0.985 . S
H448 N443 0.984 . S
H449 N443 0.985 . S
H450 N447 0.984 1_565 S
H451 N447 0.985 . S
H452 N446 0.984 . S
H453 N446 0.984 . S
H454 N442 0.984 . S
H455 N442 0.985 . S
C456 C457 1.363 . S
C456 C462 1.379 . S
C456 N464 1.356 . S
C457 C456 1.363 . S
C457 C463 1.363 . S
C458 C459 1.363 . S
C458 C463 1.379 . S
C458 N465 1.356 . S
C459 C458 1.363 . S
C459 C462 1.363 . S
N460 C462 1.356 . S
N460 H472 0.984 . S
N460 H473 0.985 . S
N461 C463 1.356 . S
N461 H466 0.984 . S
N461 H467 0.985 . S
C462 C456 1.379 . S
C462 C459 1.363 . S
C462 N460 1.356 . S
C463 C457 1.363 . S
C463 C458 1.379 . S
C463 N461 1.356 . S
N464 C456 1.356 . S
N464 H470 0.984 . S
N464 H471 0.984 . S
N465 C458 1.356 . S
N465 H468 0.984 . S
N465 H469 0.985 . S
H466 N461 0.984 . S
H467 N461 0.985 . S
H468 N465 0.984 . S
H469 N465 0.985 . S
H470 N464 0.984 . S
H471 N464 0.984 . S
H472 N460 0.984 . S
H473 N460 0.985 . S
C474 C475 1.363 . S
C474 C480 1.379 . S
C474 N482 1.356 . S
C475 C474 1.363 . S
C475 C481 1.363 . S
C476 C477 1.363 . S
C476 C481 1.379 . S
C476 N483 1.356 . S
C477 C476 1.363 . S
C477 C480 1.363 . S
N478 C480 1.356 . S
N478 H490 0.984 . S
N478 H491 0.985 . S
N479 C481 1.356 . S
N479 H484 0.984 . S
N479 H485 0.985 . S
C480 C474 1.379 . S
C480 C477 1.363 . S
C480 N478 1.356 . S
C481 C475 1.363 . S
C481 C476 1.379 . S
C481 N479 1.356 . S
N482 C474 1.356 . S
N482 H488 0.984 . S
N482 H489 0.984 . S
N483 C476 1.356 . S
N483 H486 0.984 . S
N483 H487 0.985 . S
H484 N479 0.984 . S
H485 N479 0.985 . S
H486 N483 0.984 . S
H487 N483 0.985 . S
H488 N482 0.984 . S
H489 N482 0.984 . S
H490 N478 0.984 . S
H491 N478 0.985 . S
C492 C493 1.363 . S
C492 C498 1.379 . S
C492 N500 1.356 . S
C493 C492 1.363 . S
C493 C499 1.363 . S
C494 C495 1.363 . S
C494 C499 1.379 . S
C494 N501 1.356 . S
C495 C494 1.363 . S
C495 C498 1.363 . S
N496 C498 1.356 . S
N496 H508 0.984 . S
N496 H509 0.985 . S
N497 C499 1.356 . S
N497 H502 0.984 . S
N497 H503 0.985 . S
C498 C492 1.379 . S
C498 C495 1.363 . S
C498 N496 1.356 . S
C499 C493 1.363 . S
C499 C494 1.379 . S
C499 N497 1.356 . S
N500 C492 1.356 . S
N500 H506 0.984 . S
N500 H507 0.984 . S
N501 C494 1.356 . S
N501 H504 0.984 . S
N501 H505 0.985 . S
H502 N497 0.984 . S
H503 N497 0.985 . S
H504 N501 0.984 . S
H505 N501 0.985 . S
H506 N500 0.984 . S
H507 N500 0.984 . S
H508 N496 0.984 . S
H509 N496 0.985 . S
C510 C511 1.363 . S
C510 C516 1.379 . S
C510 N518 1.356 . S
C511 C510 1.363 . S
C511 C517 1.363 . S
C512 C513 1.363 . S
C512 C517 1.379 . S
C512 N519 1.356 . S
C513 C512 1.363 . S
C513 C516 1.363 . S
N514 C516 1.356 . S
N514 H526 0.984 . S
N514 H527 0.985 . S
N515 C517 1.356 . S
N515 H520 0.984 . S
N515 H521 0.985 . S
C516 C510 1.379 . S
C516 C513 1.363 . S
C516 N514 1.356 . S
C517 C511 1.363 . S
C517 C512 1.379 . S
C517 N515 1.356 . S
N518 C510 1.356 . S
N518 H524 0.984 . S
N518 H525 0.984 . S
N519 C512 1.356 . S
N519 H522 0.984 . S
N519 H523 0.985 . S
H520 N515 0.984 . S
H521 N515 0.985 . S
H522 N519 0.984 . S
H523 N519 0.985 . S
H524 N518 0.984 . S
H525 N518 0.984 . S
H526 N514 0.984 . S
H527 N514 0.985 . S
C528 C529 1.363 . S
C528 C534 1.379 . S
C528 N536 1.356 . S
C529 C528 1.363 . S
C529 C535 1.363 . S
C530 C531 1.363 . S
C530 C535 1.379 . S
C530 N537 1.356 . S
C531 C530 1.363 . S
C531 C534 1.363 . S
N532 C534 1.356 . S
N532 H544 0.984 . S
N532 H545 0.985 . S
N533 C535 1.356 . S
N533 H538 0.984 . S
N533 H539 0.985 . S
C534 C528 1.379 . S
C534 C531 1.363 . S
C534 N532 1.356 . S
C535 C529 1.363 . S
C535 C530 1.379 . S
C535 N533 1.356 . S
N536 C528 1.356 . S
N536 H542 0.984 . S
N536 H543 0.984 . S
N537 C530 1.356 . S
N537 H540 0.984 . S
N537 H541 0.985 . S
H538 N533 0.984 . S
H539 N533 0.985 . S
H540 N537 0.984 . S
H541 N537 0.985 . S
H542 N536 0.984 . S
H543 N536 0.984 . S
H544 N532 0.984 . S
H545 N532 0.985 . S
C546 C547 1.363 . S
C546 C552 1.379 . S
C546 N554 1.356 . S
C547 C546 1.363 . S
C547 C553 1.363 . S
C548 C549 1.363 . S
C548 C553 1.379 . S
C548 N555 1.356 . S
C549 C548 1.363 . S
C549 C552 1.363 . S
N550 C552 1.356 . S
N550 H562 0.984 . S
N550 H563 0.985 . S
N551 C553 1.356 . S
N551 H556 0.984 . S
N551 H557 0.985 . S
C552 C546 1.379 . S
C552 C549 1.363 . S
C552 N550 1.356 . S
C553 C547 1.363 . S
C553 C548 1.379 . S
C553 N551 1.356 . S
N554 C546 1.356 . S
N554 H560 0.984 . S
N554 H561 0.984 . S
N555 C548 1.356 . S
N555 H558 0.984 . S
N555 H559 0.985 . S
H556 N551 0.984 . S
H557 N551 0.985 . S
H558 N555 0.984 . S
H559 N555 0.985 . S
H560 N554 0.984 . S
H561 N554 0.984 . S
H562 N550 0.984 . S
H563 N550 0.985 . S
C564 C565 1.363 . S
C564 C570 1.379 1_565 S
C564 N572 1.356 . S
C565 C564 1.363 . S
C565 C571 1.363 1_556 S
C566 C567 1.363 . S
C566 C571 1.379 1_545 S
C566 N573 1.356 . S
C567 C566 1.363 . S
C567 C570 1.363 1_554 S
N568 C570 1.356 . S
N568 H580 0.984 . S
N568 H581 0.985 1_556 S
N569 C571 1.356 . S
N569 H574 0.984 1_554 S
N569 H575 0.985 . S
C570 C564 1.379 1_545 S
C570 C567 1.363 1_556 S
C570 N568 1.356 . S
C571 C565 1.363 1_554 S
C571 C566 1.379 1_565 S
C571 N569 1.356 . S
N572 C564 1.356 . S
N572 H578 0.984 . S
N572 H579 0.984 . S
N573 C566 1.356 . S
N573 H576 0.984 . S
N573 H577 0.985 . S
H574 N569 0.984 1_556 S
H575 N569 0.985 . S
H576 N573 0.984 . S
H577 N573 0.985 . S
H578 N572 0.984 . S
H579 N572 0.984 . S
H580 N568 0.984 . S
H581 N568 0.985 1_554 S
C582 C583 1.363 . S
C582 C588 1.379 . S
C582 N590 1.356 . S
C583 C582 1.363 . S
C583 C589 1.363 . S
C584 C585 1.363 . S
C584 C589 1.379 . S
C584 N591 1.356 . S
C585 C584 1.363 . S
C585 C588 1.363 . S
N586 C588 1.356 . S
N586 H598 0.984 . S
N586 H599 0.985 . S
N587 C589 1.356 . S
N587 H592 0.984 . S
N587 H593 0.985 . S
C588 C582 1.379 . S
C588 C585 1.363 . S
C588 N586 1.356 . S
C589 C583 1.363 . S
C589 C584 1.379 . S
C589 N587 1.356 . S
N590 C582 1.356 . S
N590 H596 0.984 . S
N590 H597 0.984 . S
N591 C584 1.356 . S
N591 H594 0.984 . S
N591 H595 0.985 . S
H592 N587 0.984 . S
H593 N587 0.985 . S
H594 N591 0.984 . S
H595 N591 0.985 . S
H596 N590 0.984 . S
H597 N590 0.984 . S
H598 N586 0.984 . S
H599 N586 0.985 . S
C600 C601 1.363 . S
C600 C606 1.379 1_456 S
C600 N608 1.356 . S
C601 C600 1.363 . S
C601 C607 1.363 . S
C602 C603 1.363 . S
C602 C607 1.379 1_654 S
C602 N609 1.356 . S
C603 C602 1.363 . S
C603 C606 1.363 . S
N604 C606 1.356 . S
N604 H616 0.984 . S
N604 H617 0.985 . S
N605 C607 1.356 . S
N605 H610 0.984 . S
N605 H611 0.985 . S
C606 C600 1.379 1_654 S
C606 C603 1.363 . S
C606 N604 1.356 . S
C607 C601 1.363 . S
C607 C602 1.379 1_456 S
C607 N605 1.356 . S
N608 C600 1.356 . S
N608 H614 0.984 . S
N608 H615 0.984 . S
N609 C602 1.356 . S
N609 H612 0.984 . S
N609 H613 0.985 . S
H610 N605 0.984 . S
H611 N605 0.985 . S
H612 N609 0.984 . S
H613 N609 0.985 . S
H614 N608 0.984 . S
H615 N608 0.984 . S
H616 N604 0.984 . S
H617 N604 0.985 . S
C618 C619 1.363 . S
C618 C624 1.379 1_545 S
C618 N626 1.356 . S
C619 C618 1.363 . S
C619 C625 1.363 . S
C620 C621 1.363 . S
C620 C625 1.379 1_565 S
C620 N627 1.356 . S
C621 C620 1.363 . S
C621 C624 1.363 . S
N622 C624 1.356 . S
N622 H634 0.984 1_565 S
N622 H635 0.985 . S
N623 C625 1.356 . S
N623 H628 0.984 . S
N623 H629 0.985 1_545 S
C624 C618 1.379 1_565 S
C624 C621 1.363 . S
C624 N622 1.356 . S
C625 C619 1.363 . S
C625 C620 1.379 1_545 S
C625 N623 1.356 . S
N626 C618 1.356 . S
N626 H632 0.984 . S
N626 H633 0.984 . S
N627 C620 1.356 . S
N627 H630 0.984 . S
N627 H631 0.985 . S
H628 N623 0.984 . S
H629 N623 0.985 1_565 S
H630 N627 0.984 . S
H631 N627 0.985 . S
H632 N626 0.984 . S
H633 N626 0.984 . S
H634 N622 0.984 1_545 S
H635 N622 0.985 . S
C636 C637 1.363 . S
C636 C642 1.379 . S
C636 N644 1.356 . S
C637 C636 1.363 . S
C637 C643 1.363 1_554 S
C638 C639 1.363 . S
C638 C643 1.379 . S
C638 N645 1.356 . S
C639 C638 1.363 . S
C639 C642 1.363 1_556 S
N640 C642 1.356 . S
N640 H652 0.984 . S
N640 H653 0.985 . S
N641 C643 1.356 . S
N641 H646 0.984 . S
N641 H647 0.985 . S
C642 C636 1.379 . S
C642 C639 1.363 1_554 S
C642 N640 1.356 . S
C643 C637 1.363 1_556 S
C643 C638 1.379 . S
C643 N641 1.356 . S
N644 C636 1.356 . S
N644 H650 0.984 . S
N644 H651 0.984 . S
N645 C638 1.356 . S
N645 H648 0.984 . S
N645 H649 0.985 . S
H646 N641 0.984 . S
H647 N641 0.985 . S
H648 N645 0.984 . S
H649 N645 0.985 . S
H650 N644 0.984 . S
H651 N644 0.984 . S
H652 N640 0.984 . S
H653 N640 0.985 . S
C654 C655 1.363 . S
C654 C660 1.379 1_455 S
C654 N662 1.356 . S
C655 C654 1.363 . S
C655 C661 1.363 . S
C656 C657 1.363 . S
C656 C661 1.379 1_655 S
C656 N663 1.356 . S
C657 C656 1.363 . S
C657 C660 1.363 . S
N658 C660 1.356 . S
N658 H670 0.984 . S
N658 H671 0.985 . S
N659 C661 1.356 . S
N659 H664 0.984 . S
N659 H665 0.985 . S
C660 C654 1.379 1_655 S
C660 C657 1.363 . S
C660 N658 1.356 . S
C661 C655 1.363 . S
C661 C656 1.379 1_455 S
C661 N659 1.356 . S
N662 C654 1.356 . S
N662 H668 0.984 . S
N662 H669 0.984 . S
N663 C656 1.356 . S
N663 H666 0.984 . S
N663 H667 0.985 . S
H664 N659 0.984 . S
H665 N659 0.985 . S
H666 N663 0.984 . S
H667 N663 0.985 . S
H668 N662 0.984 . S
H669 N662 0.984 . S
H670 N658 0.984 . S
H671 N658 0.985 . S
C672 C673 1.363 . S
C672 C678 1.379 . S
C672 N680 1.356 . S
C673 C672 1.363 . S
C673 C679 1.363 . S
C674 C675 1.363 . S
C674 C679 1.379 . S
C674 N681 1.356 . S
C675 C674 1.363 . S
C675 C678 1.363 . S
N676 C678 1.356 . S
N676 H688 0.984 . S
N676 H689 0.985 . S
N677 C679 1.356 . S
N677 H682 0.984 . S
N677 H683 0.985 . S
C678 C672 1.379 . S
C678 C675 1.363 . S
C678 N676 1.356 . S
C679 C673 1.363 . S
C679 C674 1.379 . S
C679 N677 1.356 . S
N680 C672 1.356 . S
N680 H686 0.984 . S
N680 H687 0.984 . S
N681 C674 1.356 . S
N681 H684 0.984 . S
N681 H685 0.985 . S
H682 N677 0.984 . S
H683 N677 0.985 . S
H684 N681 0.984 . S
H685 N681 0.985 . S
H686 N680 0.984 . S
H687 N680 0.984 . S
H688 N676 0.984 . S
H689 N676 0.985 . S
C690 C691 1.363 . S
C690 C696 1.379 . S
C690 N698 1.356 . S
C691 C690 1.363 . S
C691 C697 1.363 . S
C692 C693 1.363 . S
C692 C697 1.379 . S
C692 N699 1.356 . S
C693 C692 1.363 . S
C693 C696 1.363 . S
N694 C696 1.356 . S
N694 H706 0.984 . S
N694 H707 0.985 . S
N695 C697 1.356 . S
N695 H700 0.984 . S
N695 H701 0.985 . S
C696 C690 1.379 . S
C696 C693 1.363 . S
C696 N694 1.356 . S
C697 C691 1.363 . S
C697 C692 1.379 . S
C697 N695 1.356 . S
N698 C690 1.356 . S
N698 H704 0.984 . S
N698 H705 0.984 . S
N699 C692 1.356 . S
N699 H702 0.984 . S
N699 H703 0.985 . S
H700 N695 0.984 . S
H701 N695 0.985 . S
H702 N699 0.984 . S
H703 N699 0.985 . S
H704 N698 0.984 . S
H705 N698 0.984 . S
H706 N694 0.984 . S
H707 N694 0.985 . S
C708 C709 1.363 . S
C708 C714 1.379 . S
C708 N716 1.356 . S
C709 C708 1.363 . S
C709 C715 1.363 . S
C710 C711 1.363 . S
C710 C715 1.379 . S
C710 N717 1.356 . S
C711 C710 1.363 . S
C711 C714 1.363 . S
N712 C714 1.356 . S
N712 H724 0.984 . S
N712 H725 0.985 . S
N713 C715 1.356 . S
N713 H718 0.984 . S
N713 H719 0.985 . S
C714 C708 1.379 . S
C714 C711 1.363 . S
C714 N712 1.356 . S
C715 C709 1.363 . S
C715 C710 1.379 . S
C715 N713 1.356 . S
N716 C708 1.356 . S
N716 H722 0.984 . S
N716 H723 0.984 . S
N717 C710 1.356 . S
N717 H720 0.984 . S
N717 H721 0.985 . S
H718 N713 0.984 . S
H719 N713 0.985 . S
H720 N717 0.984 . S
H721 N717 0.985 . S
H722 N716 0.984 . S
H723 N716 0.984 . S
H724 N712 0.984 . S
H725 N712 0.985 . S
C726 C727 1.363 . S
C726 C732 1.379 . S
C726 N734 1.356 . S
C727 C726 1.363 . S
C727 C733 1.363 . S
C728 C729 1.363 . S
C728 C733 1.379 . S
C728 N735 1.356 . S
C729 C728 1.363 . S
C729 C732 1.363 . S
N730 C732 1.356 . S
N730 H742 0.984 . S
N730 H743 0.985 . S
N731 C733 1.356 . S
N731 H736 0.984 . S
N731 H737 0.985 . S
C732 C726 1.379 . S
C732 C729 1.363 . S
C732 N730 1.356 . S
C733 C727 1.363 . S
C733 C728 1.379 . S
C733 N731 1.356 . S
N734 C726 1.356 . S
N734 H740 0.984 . S
N734 H741 0.984 . S
N735 C728 1.356 . S
N735 H738 0.984 . S
N735 H739 0.985 . S
H736 N731 0.984 . S
H737 N731 0.985 . S
H738 N735 0.984 . S
H739 N735 0.985 . S
H740 N734 0.984 . S
H741 N734 0.984 . S
H742 N730 0.984 . S
H743 N730 0.985 . S
C744 C745 1.363 . S
C744 C750 1.379 . S
C744 N752 1.356 . S
C745 C744 1.363 . S
C745 C751 1.363 . S
C746 C747 1.363 . S
C746 C751 1.379 . S
C746 N753 1.356 . S
C747 C746 1.363 . S
C747 C750 1.363 . S
N748 C750 1.356 . S
N748 H760 0.984 . S
N748 H761 0.985 . S
N749 C751 1.356 . S
N749 H754 0.984 . S
N749 H755 0.985 . S
C750 C744 1.379 . S
C750 C747 1.363 . S
C750 N748 1.356 . S
C751 C745 1.363 . S
C751 C746 1.379 . S
C751 N749 1.356 . S
N752 C744 1.356 . S
N752 H758 0.984 . S
N752 H759 0.984 . S
N753 C746 1.356 . S
N753 H756 0.984 . S
N753 H757 0.985 . S
H754 N749 0.984 . S
H755 N749 0.985 . S
H756 N753 0.984 . S
H757 N753 0.985 . S
H758 N752 0.984 . S
H759 N752 0.984 . S
H760 N748 0.984 . S
H761 N748 0.985 . S
C762 C763 1.363 . S
C762 C768 1.379 . S
C762 N770 1.356 . S
C763 C762 1.363 . S
C763 C769 1.363 . S
C764 C765 1.363 . S
C764 C769 1.379 . S
C764 N771 1.356 . S
C765 C764 1.363 . S
C765 C768 1.363 . S
N766 C768 1.356 . S
N766 H778 0.984 . S
N766 H779 0.985 . S
N767 C769 1.356 . S
N767 H772 0.984 . S
N767 H773 0.985 . S
C768 C762 1.379 . S
C768 C765 1.363 . S
C768 N766 1.356 . S
C769 C763 1.363 . S
C769 C764 1.379 . S
C769 N767 1.356 . S
N770 C762 1.356 . S
N770 H776 0.984 . S
N770 H777 0.984 . S
N771 C764 1.356 . S
N771 H774 0.984 . S
N771 H775 0.985 . S
H772 N767 0.984 . S
H773 N767 0.985 . S
H774 N771 0.984 . S
H775 N771 0.985 . S
H776 N770 0.984 . S
H777 N770 0.984 . S
H778 N766 0.984 . S
H779 N766 0.985 . S
C780 C781 1.363 . S
C780 C786 1.379 . S
C780 N788 1.356 . S
C781 C780 1.363 . S
C781 C787 1.363 . S
C782 C783 1.363 . S
C782 C787 1.379 . S
C782 N789 1.356 . S
C783 C782 1.363 . S
C783 C786 1.363 . S
N784 C786 1.356 . S
N784 H796 0.984 . S
N784 H797 0.985 . S
N785 C787 1.356 . S
N785 H790 0.984 . S
N785 H791 0.985 . S
C786 C780 1.379 . S
C786 C783 1.363 . S
C786 N784 1.356 . S
C787 C781 1.363 . S
C787 C782 1.379 . S
C787 N785 1.356 . S
N788 C780 1.356 . S
N788 H794 0.984 . S
N788 H795 0.984 . S
N789 C782 1.356 . S
N789 H792 0.984 . S
N789 H793 0.985 . S
H790 N785 0.984 . S
H791 N785 0.985 . S
H792 N789 0.984 . S
H793 N789 0.985 . S
H794 N788 0.984 . S
H795 N788 0.984 . S
H796 N784 0.984 . S
H797 N784 0.985 . S
C798 C799 1.363 . S
C798 C804 1.379 . S
C798 N806 1.356 . S
C799 C798 1.363 . S
C799 C805 1.363 . S
C800 C801 1.363 . S
C800 C805 1.379 . S
C800 N807 1.356 . S
C801 C800 1.363 . S
C801 C804 1.363 . S
N802 C804 1.356 . S
N802 H814 0.984 . S
N802 H815 0.985 . S
N803 C805 1.356 . S
N803 H808 0.984 . S
N803 H809 0.985 . S
C804 C798 1.379 . S
C804 C801 1.363 . S
C804 N802 1.356 . S
C805 C799 1.363 . S
C805 C800 1.379 . S
C805 N803 1.356 . S
N806 C798 1.356 . S
N806 H812 0.984 . S
N806 H813 0.984 . S
N807 C800 1.356 . S
N807 H810 0.984 . S
N807 H811 0.985 . S
H808 N803 0.984 . S
H809 N803 0.985 . S
H810 N807 0.984 . S
H811 N807 0.985 . S
H812 N806 0.984 . S
H813 N806 0.984 . S
H814 N802 0.984 . S
H815 N802 0.985 . S
C816 C817 1.363 . S
C816 C822 1.379 . S
C816 N824 1.356 . S
C817 C816 1.363 . S
C817 C823 1.363 . S
C818 C819 1.363 . S
C818 C823 1.379 . S
C818 N825 1.356 . S
C819 C818 1.363 . S
C819 C822 1.363 . S
N820 C822 1.356 . S
N820 H832 0.984 . S
N820 H833 0.985 . S
N821 C823 1.356 . S
N821 H826 0.984 . S
N821 H827 0.985 . S
C822 C816 1.379 . S
C822 C819 1.363 . S
C822 N820 1.356 . S
C823 C817 1.363 . S
C823 C818 1.379 . S
C823 N821 1.356 . S
N824 C816 1.356 . S
N824 H830 0.984 . S
N824 H831 0.984 . S
N825 C818 1.356 . S
N825 H828 0.984 . S
N825 H829 0.985 . S
H826 N821 0.984 . S
H827 N821 0.985 . S
H828 N825 0.984 . S
H829 N825 0.985 . S
H830 N824 0.984 . S
H831 N824 0.984 . S
H832 N820 0.984 . S
H833 N820 0.985 . S
C834 C835 1.363 . S
C834 C840 1.379 . S
C834 N842 1.356 . S
C835 C834 1.363 . S
C835 C841 1.363 . S
C836 C837 1.363 . S
C836 C841 1.379 . S
C836 N843 1.356 . S
C837 C836 1.363 . S
C837 C840 1.363 . S
N838 C840 1.356 . S
N838 H850 0.984 . S
N838 H851 0.985 . S
N839 C841 1.356 . S
N839 H844 0.984 . S
N839 H845 0.985 . S
C840 C834 1.379 . S
C840 C837 1.363 . S
C840 N838 1.356 . S
C841 C835 1.363 . S
C841 C836 1.379 . S
C841 N839 1.356 . S
N842 C834 1.356 . S
N842 H848 0.984 . S
N842 H849 0.984 . S
N843 C836 1.356 . S
N843 H846 0.984 . S
N843 H847 0.985 . S
H844 N839 0.984 . S
H845 N839 0.985 . S
H846 N843 0.984 . S
H847 N843 0.985 . S
H848 N842 0.984 . S
H849 N842 0.984 . S
H850 N838 0.984 . S
H851 N838 0.985 . S
C852 C853 1.363 . S
C852 C858 1.379 . S
C852 N860 1.356 . S
C853 C852 1.363 . S
C853 C859 1.363 . S
C854 C855 1.363 . S
C854 C859 1.379 . S
C854 N861 1.356 . S
C855 C854 1.363 . S
C855 C858 1.363 . S
N856 C858 1.356 . S
N856 H868 0.984 . S
N856 H869 0.985 . S
N857 C859 1.356 . S
N857 H862 0.984 . S
N857 H863 0.985 . S
C858 C852 1.379 . S
C858 C855 1.363 . S
C858 N856 1.356 . S
C859 C853 1.363 . S
C859 C854 1.379 . S
C859 N857 1.356 . S
N860 C852 1.356 . S
N860 H866 0.984 . S
N860 H867 0.984 . S
N861 C854 1.356 . S
N861 H864 0.984 . S
N861 H865 0.985 . S
H862 N857 0.984 . S
H863 N857 0.985 . S
H864 N861 0.984 . S
H865 N861 0.985 . S
H866 N860 0.984 . S
H867 N860 0.984 . S
H868 N856 0.984 . S
H869 N856 0.985 . S
C870 C871 1.363 . S
C870 C876 1.379 . S
C870 N878 1.356 . S
C871 C870 1.363 . S
C871 C877 1.363 . S
C872 C873 1.363 . S
C872 C877 1.379 . S
C872 N879 1.356 . S
C873 C872 1.363 . S
C873 C876 1.363 . S
N874 C876 1.356 . S
N874 H886 0.984 . S
N874 H887 0.985 . S
N875 C877 1.356 . S
N875 H880 0.984 . S
N875 H881 0.985 . S
C876 C870 1.379 . S
C876 C873 1.363 . S
C876 N874 1.356 . S
C877 C871 1.363 . S
C877 C872 1.379 . S
C877 N875 1.356 . S
N878 C870 1.356 . S
N878 H884 0.984 . S
N878 H885 0.984 . S
N879 C872 1.356 . S
N879 H882 0.984 . S
N879 H883 0.985 . S
H880 N875 0.984 . S
H881 N875 0.985 . S
H882 N879 0.984 . S
H883 N879 0.985 . S
H884 N878 0.984 . S
H885 N878 0.984 . S
H886 N874 0.984 . S
H887 N874 0.985 . S
C241 C45 2.153 1_455 S
C243 C8 1.748 . S
C259 C65 2.153 1_565 S
C261 C28 1.748 . S
C277 C48 1.748 . S
C279 C85 2.153 . S
C295 C68 1.748 . S
C297 C105 2.153 1_455 S
C313 C5 2.153 1_565 S
C315 C88 1.748 . S
C331 C25 2.153 . S
C333 C108 1.748 . S
C349 C205 2.153 1_545 S
C351 C128 1.748 . S
C367 C148 1.748 . S
C369 C225 2.153 . S
C385 C168 1.748 . S
C387 C125 2.153 1_655 S
C403 C188 1.748 . S
C405 C145 2.153 1_545 S
C421 C208 1.748 . S
C423 C165 2.153 . S
C439 C185 2.153 1_655 S
C441 C228 1.748 . S
C457 C62 1.818 . S
C459 C2 1.818 . S
C475 C22 1.818 . S
C477 C82 1.818 . S
C493 C42 1.818 . S
C495 C102 1.818 . S
C511 C122 1.818 . S
C513 C182 1.818 . S
C529 C142 1.818 . S
C531 C202 1.818 . S
C547 C162 1.818 . S
C549 C222 1.818 . S
C565 C153 1.918 . S
C567 C13 1.918 . S
C583 C33 1.918 . S
C585 C173 1.918 . S
C601 C193 1.918 . S
C603 C53 1.918 . S
C619 C73 1.918 . S
C621 C213 1.918 . S
C637 C93 1.918 . S
C639 C233 1.918 . S
C655 C133 1.918 . S
C657 C113 1.918 . S
C673 C57 1.700 . S
C675 C14 1.836 . S
C691 C34 1.836 . S
C693 C77 1.700 . S
C709 C54 1.836 . S
C711 C97 1.700 . S
C727 C74 1.836 . S
C729 C117 1.700 . S
C745 C17 1.700 . S
C747 C94 1.836 . S
C763 C37 1.700 . S
C765 C114 1.836 . S
C781 C217 1.700 . S
C783 C134 1.836 . S
C799 C154 1.836 . S
C801 C237 1.700 . S
C817 C174 1.836 . S
C819 C137 1.700 . S
C835 C157 1.700 . S
C837 C194 1.836 . S
C853 C214 1.836 . S
C855 C177 1.700 . S
C871 C234 1.836 . S
C873 C197 1.700 . S
