# Generated by pormake.
# Topology afi, (4)-cn, num edge types: 1
# Building blocks:
#     Node 0, Type 0, BuildingBlock: QUQFOY_clean_sbu_1, # of connection points: 4
#     Node 1, Type 0, BuildingBlock: QUQFOY_clean_sbu_1, # of connection points: 4
#     Node 2, Type 0, BuildingBlock: QUQFOY_clean_sbu_1, # of connection points: 4
#     Node 3, Type 0, BuildingBlock: QUQFOY_clean_sbu_1, # of connection points: 4
#     Node 4, Type 0, BuildingBlock: QUQFOY_clean_sbu_1, # of connection points: 4
#     Node 5, Type 0, BuildingBlock: QUQFOY_clean_sbu_1, # of connection points: 4
#     Node 6, Type 0, BuildingBlock: QUQFOY_clean_sbu_1, # of connection points: 4
#     Node 7, Type 0, BuildingBlock: QUQFOY_clean_sbu_1, # of connection points: 4
#     Node 8, Type 0, BuildingBlock: QUQFOY_clean_sbu_1, # of connection points: 4
#     Node 9, Type 0, BuildingBlock: QUQFOY_clean_sbu_1, # of connection points: 4
#     Node 10, Type 0, BuildingBlock: QUQFOY_clean_sbu_1, # of connection points: 4
#     Node 11, Type 0, BuildingBlock: QUQFOY_clean_sbu_1, # of connection points: 4
#     Node 12, Type 0, BuildingBlock: QUQFOY_clean_sbu_1, # of connection points: 4
#     Node 13, Type 0, BuildingBlock: QUQFOY_clean_sbu_1, # of connection points: 4
#     Node 14, Type 0, BuildingBlock: QUQFOY_clean_sbu_1, # of connection points: 4
#     Node 15, Type 0, BuildingBlock: QUQFOY_clean_sbu_1, # of connection points: 4
#     Node 16, Type 0, BuildingBlock: QUQFOY_clean_sbu_1, # of connection points: 4
#     Node 17, Type 0, BuildingBlock: QUQFOY_clean_sbu_1, # of connection points: 4
#     Node 18, Type 0, BuildingBlock: QUQFOY_clean_sbu_1, # of connection points: 4
#     Node 19, Type 0, BuildingBlock: QUQFOY_clean_sbu_1, # of connection points: 4
#     Node 20, Type 0, BuildingBlock: QUQFOY_clean_sbu_1, # of connection points: 4
#     Node 21, Type 0, BuildingBlock: QUQFOY_clean_sbu_1, # of connection points: 4
#     Node 22, Type 0, BuildingBlock: QUQFOY_clean_sbu_1, # of connection points: 4
#     Node 23, Type 0, BuildingBlock: QUQFOY_clean_sbu_1, # of connection points: 4
#     Edge 24, Type (0, 0), BuildingBlock: OJICUG_clean_linker_0, # of connection points: 2
#     Edge 25, Type (0, 0), BuildingBlock: OJICUG_clean_linker_0, # of connection points: 2
#     Edge 26, Type (0, 0), BuildingBlock: OJICUG_clean_linker_0, # of connection points: 2
#     Edge 27, Type (0, 0), BuildingBlock: OJICUG_clean_linker_0, # of connection points: 2
#     Edge 28, Type (0, 0), BuildingBlock: OJICUG_clean_linker_0, # of connection points: 2
#     Edge 29, Type (0, 0), BuildingBlock: OJICUG_clean_linker_0, # of connection points: 2
#     Edge 30, Type (0, 0), BuildingBlock: OJICUG_clean_linker_0, # of connection points: 2
#     Edge 31, Type (0, 0), BuildingBlock: OJICUG_clean_linker_0, # of connection points: 2
#     Edge 32, Type (0, 0), BuildingBlock: OJICUG_clean_linker_0, # of connection points: 2
#     Edge 33, Type (0, 0), BuildingBlock: OJICUG_clean_linker_0, # of connection points: 2
#     Edge 34, Type (0, 0), BuildingBlock: OJICUG_clean_linker_0, # of connection points: 2
#     Edge 35, Type (0, 0), BuildingBlock: OJICUG_clean_linker_0, # of connection points: 2
#     Edge 36, Type (0, 0), BuildingBlock: OJICUG_clean_linker_0, # of connection points: 2
#     Edge 37, Type (0, 0), BuildingBlock: OJICUG_clean_linker_0, # of connection points: 2
#     Edge 38, Type (0, 0), BuildingBlock: OJICUG_clean_linker_0, # of connection points: 2
#     Edge 39, Type (0, 0), BuildingBlock: OJICUG_clean_linker_0, # of connection points: 2
#     Edge 40, Type (0, 0), BuildingBlock: OJICUG_clean_linker_0, # of connection points: 2
#     Edge 41, Type (0, 0), BuildingBlock: OJICUG_clean_linker_0, # of connection points: 2
#     Edge 42, Type (0, 0), BuildingBlock: OJICUG_clean_linker_0, # of connection points: 2
#     Edge 43, Type (0, 0), BuildingBlock: OJICUG_clean_linker_0, # of connection points: 2
#     Edge 44, Type (0, 0), BuildingBlock: OJICUG_clean_linker_0, # of connection points: 2
#     Edge 45, Type (0, 0), BuildingBlock: OJICUG_clean_linker_0, # of connection points: 2
#     Edge 46, Type (0, 0), BuildingBlock: OJICUG_clean_linker_0, # of connection points: 2
#     Edge 47, Type (0, 0), BuildingBlock: OJICUG_clean_linker_0, # of connection points: 2
#     Edge 48, Type (0, 0), BuildingBlock: OJICUG_clean_linker_0, # of connection points: 2
#     Edge 49, Type (0, 0), BuildingBlock: OJICUG_clean_linker_0, # of connection points: 2
#     Edge 50, Type (0, 0), BuildingBlock: OJICUG_clean_linker_0, # of connection points: 2
#     Edge 51, Type (0, 0), BuildingBlock: OJICUG_clean_linker_0, # of connection points: 2
#     Edge 52, Type (0, 0), BuildingBlock: OJICUG_clean_linker_0, # of connection points: 2
#     Edge 53, Type (0, 0), BuildingBlock: OJICUG_clean_linker_0, # of connection points: 2
#     Edge 54, Type (0, 0), BuildingBlock: OJICUG_clean_linker_0, # of connection points: 2
#     Edge 55, Type (0, 0), BuildingBlock: OJICUG_clean_linker_0, # of connection points: 2
#     Edge 56, Type (0, 0), BuildingBlock: OJICUG_clean_linker_0, # of connection points: 2
#     Edge 57, Type (0, 0), BuildingBlock: OJICUG_clean_linker_0, # of connection points: 2
#     Edge 58, Type (0, 0), BuildingBlock: OJICUG_clean_linker_0, # of connection points: 2
#     Edge 59, Type (0, 0), BuildingBlock: OJICUG_clean_linker_0, # of connection points: 2
#     Edge 60, Type (0, 0), BuildingBlock: OJICUG_clean_linker_0, # of connection points: 2
#     Edge 61, Type (0, 0), BuildingBlock: OJICUG_clean_linker_0, # of connection points: 2
#     Edge 62, Type (0, 0), BuildingBlock: OJICUG_clean_linker_0, # of connection points: 2
#     Edge 63, Type (0, 0), BuildingBlock: OJICUG_clean_linker_0, # of connection points: 2
#     Edge 64, Type (0, 0), BuildingBlock: OJICUG_clean_linker_0, # of connection points: 2
#     Edge 65, Type (0, 0), BuildingBlock: OJICUG_clean_linker_0, # of connection points: 2
#     Edge 66, Type (0, 0), BuildingBlock: OJICUG_clean_linker_0, # of connection points: 2
#     Edge 67, Type (0, 0), BuildingBlock: OJICUG_clean_linker_0, # of connection points: 2
#     Edge 68, Type (0, 0), BuildingBlock: OJICUG_clean_linker_0, # of connection points: 2
#     Edge 69, Type (0, 0), BuildingBlock: OJICUG_clean_linker_0, # of connection points: 2
#     Edge 70, Type (0, 0), BuildingBlock: OJICUG_clean_linker_0, # of connection points: 2
#     Edge 71, Type (0, 0), BuildingBlock: OJICUG_clean_linker_0, # of connection points: 2
# Relax obj value: 0.128
# Max RMSD: 0.167
# Mean RMSD: 0.167
data_MOF--net-afi--node1-QUQFOY_clean_sbu_1--edge1-OJICUG_clean_linker_0
_symmetry_space_group_name_H-M    P1
_symmetry_Int_Tables_number       1
_symmetry_cell_setting            triclinic
loop_
_symmetry_equiv_pos_as_xyz
'x, y, z'
_cell_length_a     51.35794
_cell_length_b     51.331275
_cell_length_c     32.785416
_cell_angle_alpha  89.992035
_cell_angle_beta   90.007456
_cell_angle_gamma 120.02541
loop_
_atom_site_label
_atom_site_type_symbol
_atom_site_fract_x
_atom_site_fract_y
_atom_site_fract_z
_atom_type_partial_charge
O0 O 0.48202 0.12463 0.26804 0.0
Cd1 Cd 0.43978 0.11761 0.25629 0.0
Cd2 Cd 0.4466 0.09363 0.18269 0.0
O3 O 0.48877 0.1088 0.20848 0.0
O4 O 0.43404 0.14451 0.29425 0.0
O5 O 0.43428 0.14878 0.22699 0.0
C6 C 0.43233 0.15851 0.2626 0.0
C7 C 0.44582 0.09602 0.11076 0.0
C8 C 0.49834 0.1197 0.2438 0.0
C9 C 0.39741 0.05249 0.24284 0.0
O10 O 0.41067 0.0558 0.20881 0.0
O11 O 0.40516 0.07478 0.26647 0.0
O12 O 0.45094 0.07707 0.12961 0.0
O13 O 0.44101 0.11405 0.13274 0.0
O14 O 0.35112 0.48773 0.2675 0.0
Cd15 Cd 0.31539 0.44576 0.25576 0.0
Cd16 Cd 0.34609 0.45199 0.18225 0.0
O17 O 0.37371 0.49405 0.20804 0.0
O18 O 0.28299 0.44065 0.29372 0.0
O19 O 0.27899 0.44092 0.22646 0.0
C20 C 0.2674 0.4392 0.26207 0.0
C21 C 0.34295 0.45126 0.11032 0.0
C22 C 0.37255 0.50378 0.24332 0.0
C23 C 0.33687 0.40239 0.24241 0.0
O24 O 0.34706 0.41558 0.2084 0.0
O25 O 0.3227 0.41058 0.26601 0.0
O26 O 0.36685 0.45589 0.12917 0.0
O27 O 0.32027 0.44692 0.1323 0.0
O28 O 0.85684 0.35388 0.26727 0.0
Cd29 Cd 0.86333 0.31832 0.25549 0.0
Cd30 Cd 0.88741 0.34905 0.18187 0.0
O31 O 0.87251 0.3763 0.20758 0.0
O32 O 0.83622 0.28588 0.29359 0.0
O33 O 0.83177 0.2818 0.22635 0.0
C34 C 0.82199 0.27024 0.26201 0.0
C35 C 0.88509 0.34587 0.10994 0.0
C36 C 0.8618 0.37513 0.24298 0.0
C37 C 0.92828 0.34057 0.242 0.0
O38 O 0.92508 0.3507 0.20806 0.0
O39 O 0.90598 0.32604 0.26559 0.0
O40 O 0.90412 0.36991 0.12879 0.0
O41 O 0.86693 0.32308 0.13192 0.0
O42 O 0.49399 0.85983 0.26812 0.0
Cd43 Cd 0.53622 0.86684 0.25637 0.0
Cd44 Cd 0.52939 0.89082 0.18277 0.0
O45 O 0.48723 0.87565 0.20856 0.0
O46 O 0.54196 0.83992 0.29433 0.0
O47 O 0.54171 0.83568 0.22706 0.0
C48 C 0.54366 0.82593 0.26267 0.0
C49 C 0.53017 0.88846 0.11083 0.0
C50 C 0.47766 0.86476 0.24388 0.0
C51 C 0.57859 0.93195 0.24291 0.0
O52 O 0.56533 0.92865 0.20889 0.0
O53 O 0.57085 0.90967 0.26654 0.0
O54 O 0.52506 0.90741 0.12968 0.0
O55 O 0.53498 0.87042 0.13281 0.0
O56 O 0.62486 0.49669 0.26764 0.0
Cd57 Cd 0.66059 0.53866 0.25591 0.0
Cd58 Cd 0.62989 0.53245 0.18238 0.0
O59 O 0.60228 0.49038 0.20817 0.0
O60 O 0.693 0.54378 0.29387 0.0
O61 O 0.69698 0.54351 0.2266 0.0
C62 C 0.70858 0.54523 0.26221 0.0
C63 C 0.633 0.53319 0.11045 0.0
C64 C 0.60344 0.48065 0.24345 0.0
C65 C 0.63911 0.58204 0.24255 0.0
O66 O 0.62893 0.56886 0.20853 0.0
O67 O 0.65327 0.57384 0.26617 0.0
O68 O 0.60911 0.52855 0.12932 0.0
O69 O 0.65569 0.53753 0.13241 0.0
O70 O 0.11916 0.63058 0.26719 0.0
Cd71 Cd 0.11267 0.66614 0.25543 0.0
Cd72 Cd 0.08856 0.63541 0.18182 0.0
O73 O 0.10348 0.60816 0.20751 0.0
O74 O 0.13978 0.69857 0.29354 0.0
O75 O 0.14423 0.70267 0.2263 0.0
C76 C 0.15401 0.71421 0.26197 0.0
C77 C 0.09087 0.6386 0.10988 0.0
C78 C 0.1142 0.60933 0.24291 0.0
C79 C 0.04771 0.64388 0.24197 0.0
O80 O 0.0509 0.63375 0.20803 0.0
O81 O 0.07002 0.65841 0.26555 0.0
O82 O 0.07184 0.61456 0.12873 0.0
O83 O 0.10903 0.66139 0.13187 0.0
O84 O 0.85585 0.49711 0.27563 0.0
Cd85 Cd 0.86201 0.53905 0.28737 0.0
Cd86 Cd 0.88646 0.53285 0.36091 0.0
O87 O 0.87205 0.49079 0.33515 0.0
O88 O 0.83467 0.5441 0.24942 0.0
O89 O 0.83041 0.54379 0.31669 0.0
C90 C 0.82051 0.54549 0.28108 0.0
C91 C 0.88405 0.5336 0.43284 0.0
C92 C 0.86121 0.48107 0.29985 0.0
C93 C 0.92686 0.58245 0.30075 0.0
O94 O 0.92385 0.56926 0.33476 0.0
O95 O 0.90449 0.57427 0.27714 0.0
O96 O 0.90333 0.52897 0.414 0.0
O97 O 0.8657 0.53792 0.41084 0.0
O98 O 0.3501 0.85942 0.27656 0.0
Cd99 Cd 0.31478 0.86632 0.28811 0.0
Cd100 Cd 0.34556 0.89053 0.36174 0.0
O101 O 0.37274 0.87556 0.33603 0.0
O102 O 0.28228 0.83939 0.24996 0.0
O103 O 0.27803 0.83507 0.31719 0.0
C104 C 0.26647 0.82536 0.28152 0.0
C105 C 0.3424 0.8882 0.43368 0.0
C106 C 0.37143 0.86456 0.30078 0.0
C107 C 0.33724 0.93141 0.30143 0.0
O108 O 0.3472 0.92821 0.33552 0.0
O109 O 0.32285 0.90909 0.27781 0.0
O110 O 0.36642 0.90724 0.41482 0.0
O111 O 0.3196 0.87005 0.4117 0.0
O112 O 0.48053 0.35349 0.27607 0.0
Cd113 Cd 0.4384 0.31806 0.28784 0.0
Cd114 Cd 0.44515 0.34881 0.36141 0.0
O115 O 0.48734 0.37595 0.33573 0.0
O116 O 0.43292 0.2855 0.24988 0.0
O117 O 0.43323 0.28151 0.31714 0.0
C118 C 0.43141 0.26988 0.28153 0.0
C119 C 0.44425 0.34561 0.43334 0.0
C120 C 0.49687 0.37473 0.30034 0.0
C121 C 0.39592 0.34058 0.30121 0.0
O122 O 0.40923 0.35065 0.33518 0.0
O123 O 0.40363 0.32599 0.27764 0.0
O124 O 0.44935 0.36969 0.41449 0.0
O125 O 0.43952 0.3228 0.41136 0.0
O126 O 0.12015 0.48734 0.27555 0.0
Cd127 Cd 0.11399 0.4454 0.2873 0.0
Cd128 Cd 0.08955 0.4516 0.36086 0.0
O129 O 0.10397 0.49366 0.33507 0.0
O130 O 0.14132 0.44035 0.24933 0.0
O131 O 0.1456 0.44065 0.3166 0.0
C132 C 0.15548 0.43896 0.28099 0.0
C133 C 0.09193 0.45088 0.43279 0.0
C134 C 0.1148 0.50338 0.29976 0.0
C135 C 0.04915 0.40199 0.3007 0.0
O136 O 0.05216 0.41519 0.33471 0.0
O137 O 0.07151 0.41018 0.27709 0.0
O138 O 0.07266 0.45549 0.41391 0.0
O139 O 0.11029 0.44655 0.41084 0.0
O140 O 0.62591 0.12503 0.2765 0.0
Cd141 Cd 0.66123 0.11813 0.28808 0.0
Cd142 Cd 0.63045 0.09394 0.36171 0.0
O143 O 0.60327 0.1089 0.33597 0.0
O144 O 0.69373 0.14506 0.24994 0.0
O145 O 0.69796 0.14938 0.31718 0.0
C146 C 0.70953 0.15909 0.28151 0.0
C147 C 0.6336 0.09627 0.43365 0.0
C148 C 0.60458 0.1199 0.30072 0.0
C149 C 0.63877 0.05305 0.30145 0.0
O150 O 0.62881 0.05625 0.33553 0.0
O151 O 0.65315 0.07536 0.27781 0.0
O152 O 0.60958 0.07723 0.41479 0.0
O153 O 0.6564 0.11442 0.41168 0.0
O154 O 0.49544 0.63093 0.27603 0.0
Cd155 Cd 0.53757 0.66636 0.28785 0.0
Cd156 Cd 0.53079 0.6356 0.36141 0.0
O157 O 0.48861 0.60846 0.33569 0.0
O158 O 0.54307 0.69894 0.2499 0.0
O159 O 0.54272 0.70289 0.31717 0.0
C160 C 0.54456 0.71454 0.28156 0.0
C161 C 0.53167 0.63881 0.43334 0.0
C162 C 0.4791 0.60968 0.30029 0.0
C163 C 0.58004 0.64383 0.30128 0.0
O164 O 0.56671 0.63376 0.33523 0.0
O165 O 0.57235 0.65843 0.27769 0.0
O166 O 0.52656 0.61474 0.41451 0.0
O167 O 0.5364 0.66163 0.41133 0.0
O168 O 0.49383 0.85974 0.77649 0.0
Cd169 Cd 0.53608 0.86679 0.7882 0.0
Cd170 Cd 0.52926 0.89079 0.8618 0.0
O171 O 0.48708 0.8756 0.83603 0.0
O172 O 0.54183 0.83993 0.75014 0.0
O173 O 0.54164 0.83561 0.81739 0.0
C174 C 0.54357 0.82592 0.78174 0.0
C175 C 0.53009 0.88843 0.93374 0.0
C176 C 0.4775 0.86468 0.80072 0.0
C177 C 0.57842 0.93192 0.80162 0.0
O178 O 0.56517 0.92863 0.83565 0.0
O179 O 0.57068 0.90963 0.778 0.0
O180 O 0.52494 0.90737 0.91489 0.0
O181 O 0.53489 0.8704 0.91175 0.0
O182 O 0.6247 0.49664 0.77617 0.0
Cd183 Cd 0.66047 0.5386 0.78785 0.0
Cd184 Cd 0.62981 0.53243 0.86143 0.0
O185 O 0.60215 0.49036 0.83566 0.0
O186 O 0.69279 0.54366 0.74976 0.0
O187 O 0.69691 0.54341 0.817 0.0
C188 C 0.70843 0.5451 0.78135 0.0
C189 C 0.63296 0.53317 0.93336 0.0
C190 C 0.60328 0.48062 0.80038 0.0
C191 C 0.63907 0.58203 0.80124 0.0
O192 O 0.62889 0.56886 0.83527 0.0
O193 O 0.65321 0.57381 0.77763 0.0
O194 O 0.60906 0.52856 0.91451 0.0
O195 O 0.65562 0.53748 0.91138 0.0
O196 O 0.119 0.63073 0.77542 0.0
Cd197 Cd 0.11246 0.66624 0.78731 0.0
Cd198 Cd 0.08844 0.63549 0.86086 0.0
O199 O 0.10338 0.60829 0.83512 0.0
O200 O 0.13965 0.69882 0.74944 0.0
O201 O 0.14394 0.70266 0.81671 0.0
C202 C 0.1538 0.71435 0.78113 0.0
C203 C 0.09079 0.63865 0.9328 0.0
C204 C 0.11407 0.60948 0.7997 0.0
C205 C 0.04751 0.64393 0.80079 0.0
O206 O 0.05073 0.63379 0.83471 0.0
O207 O 0.06981 0.6585 0.77721 0.0
O208 O 0.07176 0.61461 0.91395 0.0
O209 O 0.10892 0.66146 0.91081 0.0
O210 O 0.4821 0.12479 0.77641 0.0
Cd211 Cd 0.43985 0.11774 0.78812 0.0
Cd212 Cd 0.44669 0.09375 0.86173 0.0
O213 O 0.48887 0.10895 0.83595 0.0
O214 O 0.43409 0.1446 0.75007 0.0
O215 O 0.43429 0.14891 0.81732 0.0
C216 C 0.43235 0.15861 0.78168 0.0
C217 C 0.44589 0.0961 0.93366 0.0
C218 C 0.49844 0.11986 0.80063 0.0
C219 C 0.39752 0.05261 0.80156 0.0
O220 O 0.41078 0.05591 0.83559 0.0
O221 O 0.40525 0.07489 0.77793 0.0
O222 O 0.45103 0.07717 0.91481 0.0
O223 O 0.44107 0.11413 0.91168 0.0
O224 O 0.35114 0.48784 0.77604 0.0
Cd225 Cd 0.31536 0.44589 0.7877 0.0
Cd226 Cd 0.34602 0.45204 0.8613 0.0
O227 O 0.37368 0.49411 0.83553 0.0
O228 O 0.28304 0.44084 0.74962 0.0
O229 O 0.27894 0.44108 0.81686 0.0
C230 C 0.26741 0.43939 0.78121 0.0
C231 C 0.3429 0.45128 0.93323 0.0
C232 C 0.37255 0.50386 0.80026 0.0
C233 C 0.33675 0.40244 0.80111 0.0
O234 O 0.34694 0.41561 0.83514 0.0
O235 O 0.32263 0.41067 0.77748 0.0
O236 O 0.36679 0.4559 0.91436 0.0
O237 O 0.32023 0.44698 0.91127 0.0
O238 O 0.85687 0.35382 0.77551 0.0
Cd239 Cd 0.86341 0.31831 0.78738 0.0
Cd240 Cd 0.88747 0.34906 0.86092 0.0
O241 O 0.87251 0.37626 0.83519 0.0
O242 O 0.83623 0.28574 0.74949 0.0
O243 O 0.83195 0.28187 0.81676 0.0
C244 C 0.82209 0.2702 0.78118 0.0
C245 C 0.88513 0.34587 0.93285 0.0
C246 C 0.8618 0.37507 0.79978 0.0
C247 C 0.92838 0.34063 0.80081 0.0
O248 O 0.92516 0.35076 0.83474 0.0
O249 O 0.90607 0.32607 0.77724 0.0
O250 O 0.90415 0.36992 0.914 0.0
O251 O 0.867 0.32307 0.91086 0.0
O252 O 0.1202 0.4876 0.76704 0.0
Cd253 Cd 0.11406 0.44566 0.75537 0.0
Cd254 Cd 0.08956 0.45179 0.68181 0.0
O255 O 0.10394 0.49386 0.70753 0.0
O256 O 0.14137 0.44066 0.79345 0.0
O257 O 0.14571 0.4409 0.7262 0.0
C258 C 0.15556 0.43924 0.76186 0.0
C259 C 0.09194 0.45099 0.60988 0.0
C260 C 0.1148 0.5036 0.74282 0.0
C261 C 0.04922 0.4022 0.74202 0.0
O262 O 0.0522 0.41537 0.708 0.0
O263 O 0.07159 0.41043 0.76563 0.0
O264 O 0.07266 0.45561 0.62871 0.0
O265 O 0.11031 0.44671 0.63188 0.0
O266 O 0.62594 0.12509 0.76785 0.0
Cd267 Cd 0.66119 0.11811 0.75621 0.0
Cd268 Cd 0.63038 0.09393 0.68268 0.0
O269 O 0.60326 0.10897 0.70841 0.0
O270 O 0.69384 0.1451 0.79414 0.0
O271 O 0.69786 0.14924 0.72687 0.0
C272 C 0.70955 0.15903 0.76247 0.0
C273 C 0.63355 0.09627 0.61074 0.0
C274 C 0.60461 0.11998 0.74365 0.0
C275 C 0.63863 0.05301 0.74296 0.0
O276 O 0.62867 0.05621 0.70888 0.0
O277 O 0.65306 0.07533 0.76657 0.0
O278 O 0.60951 0.07726 0.62959 0.0
O279 O 0.65635 0.1144 0.63273 0.0
O280 O 0.4955 0.63101 0.76776 0.0
Cd281 Cd 0.53762 0.66646 0.75601 0.0
Cd282 Cd 0.53087 0.63573 0.68237 0.0
O283 O 0.48868 0.60859 0.70807 0.0
O284 O 0.5431 0.69897 0.79406 0.0
O285 O 0.54278 0.70304 0.72681 0.0
C286 C 0.5446 0.71463 0.76246 0.0
C287 C 0.53172 0.63889 0.61043 0.0
C288 C 0.47916 0.60979 0.74346 0.0
C289 C 0.58011 0.64394 0.74253 0.0
O290 O 0.56678 0.63389 0.70857 0.0
O291 O 0.57241 0.65853 0.76613 0.0
O292 O 0.52663 0.61483 0.6293 0.0
O293 O 0.53646 0.66172 0.6324 0.0
O294 O 0.85568 0.49696 0.76712 0.0
Cd295 Cd 0.8618 0.53889 0.75545 0.0
Cd296 Cd 0.8863 0.53276 0.68186 0.0
O297 O 0.87192 0.49069 0.70761 0.0
O298 O 0.83451 0.54389 0.79354 0.0
O299 O 0.83014 0.54364 0.7263 0.0
C300 C 0.8203 0.5453 0.76195 0.0
C301 C 0.88395 0.53353 0.60992 0.0
C302 C 0.86107 0.48095 0.7429 0.0
C303 C 0.92664 0.58235 0.74206 0.0
O304 O 0.92366 0.56918 0.70804 0.0
O305 O 0.90428 0.57414 0.76567 0.0
O306 O 0.90322 0.52892 0.6288 0.0
O307 O 0.86557 0.53782 0.63188 0.0
O308 O 0.34999 0.85943 0.76791 0.0
Cd309 Cd 0.31473 0.86641 0.75624 0.0
Cd310 Cd 0.34555 0.89059 0.6827 0.0
O311 O 0.37267 0.87556 0.70847 0.0
O312 O 0.28208 0.83942 0.79416 0.0
O313 O 0.27807 0.83529 0.72688 0.0
C314 C 0.26638 0.8255 0.76248 0.0
C315 C 0.34239 0.88824 0.61077 0.0
C316 C 0.37132 0.86454 0.74371 0.0
C317 C 0.33729 0.93152 0.74296 0.0
O318 O 0.34725 0.92831 0.70889 0.0
O319 O 0.32287 0.9092 0.76658 0.0
O320 O 0.36642 0.90727 0.62962 0.0
O321 O 0.31958 0.87012 0.63275 0.0
O322 O 0.48034 0.35349 0.76779 0.0
Cd323 Cd 0.43822 0.31803 0.756 0.0
Cd324 Cd 0.445 0.34877 0.68237 0.0
O325 O 0.48717 0.37591 0.70809 0.0
O326 O 0.43273 0.28551 0.79404 0.0
O327 O 0.43309 0.28148 0.72679 0.0
C328 C 0.43126 0.26987 0.76243 0.0
C329 C 0.44416 0.34559 0.61043 0.0
C330 C 0.49668 0.37471 0.74351 0.0
C331 C 0.39573 0.34054 0.74247 0.0
O332 O 0.40907 0.35061 0.70852 0.0
O333 O 0.40342 0.32595 0.76608 0.0
O334 O 0.44925 0.36965 0.62927 0.0
O335 O 0.43942 0.32276 0.63242 0.0
C336 C 0.3631 -0.00249 0.23013 0.0
C337 C 0.37608 0.02178 0.25752 0.0
H338 H 0.33983 0.94971 0.22265 0.0
C339 C 0.37188 0.01591 0.29964 0.0
H340 H 0.36578 0.00134 0.19752 0.0
C341 C 0.35745 0.98632 0.31409 0.0
C342 C 0.34641 0.96206 0.2867 0.0
H343 H 0.38158 0.03412 0.32157 0.0
H344 H 0.35625 0.9825 0.34671 0.0
C345 C 0.34814 0.96792 0.24458 0.0
C346 C 0.36176 0.3614 0.31378 0.0
C347 C 0.37467 0.35001 0.28644 0.0
H348 H 0.33886 0.38626 0.32117 0.0
C349 C 0.37062 0.3518 0.2443 0.0
H350 H 0.36433 0.36017 0.3464 0.0
C351 C 0.35647 0.3672 0.22979 0.0
C352 C 0.34558 0.38057 0.25714 0.0
H353 H 0.38027 0.34322 0.22242 0.0
H354 H 0.35543 0.36993 0.19717 0.0
C355 C 0.34708 0.37627 0.29927 0.0
C356 C 0.96479 0.35156 0.29885 0.0
C357 C 0.95894 0.34985 0.25673 0.0
H358 H -0.00187 0.36956 0.34596 0.0
C359 C 0.98323 0.36119 0.22937 0.0
H360 H 0.94656 0.34301 0.32076 0.0
C361 C 0.01279 0.37597 0.24386 0.0
C362 C 0.01861 0.38021 0.28598 0.0
H363 H 0.97943 0.36002 0.19675 0.0
H364 H 0.031 0.38594 0.22195 0.0
C365 C -0.00566 0.36686 0.31335 0.0
C366 C 0.61292 0.98694 0.23018 0.0
C367 C 0.59993 0.96266 0.25759 0.0
H368 H 0.6362 0.03473 0.22269 0.0
C369 C 0.60412 0.96854 0.2997 0.0
H370 H 0.61024 0.9831 0.19757 0.0
C371 C 0.61855 -0.00187 0.31414 0.0
C372 C 0.6296 0.02239 0.28674 0.0
H373 H 0.59441 0.95033 0.32164 0.0
H374 H 0.61974 0.00196 0.34676 0.0
C375 C 0.62788 0.01653 0.24462 0.0
C376 C 0.60537 0.63264 0.2444 0.0
C377 C 0.6013 0.6344 0.28653 0.0
H378 H 0.62058 0.61452 0.19729 0.0
C379 C 0.61419 0.623 0.31389 0.0
H380 H 0.59573 0.64123 0.2225 0.0
C381 C 0.62887 0.60813 0.29939 0.0
C382 C 0.6304 0.60386 0.25727 0.0
H383 H 0.6116 0.62421 0.34651 0.0
H384 H 0.63708 0.59813 0.3213 0.0
C385 C 0.61952 0.61724 0.22991 0.0
C386 C 0.01123 0.63288 0.29885 0.0
C387 C 0.01705 0.63459 0.25672 0.0
H388 H 0.9779 0.61488 0.34598 0.0
C389 C -0.00725 0.62325 0.22937 0.0
H390 H 0.02946 0.64142 0.32074 0.0
C391 C 0.9632 0.60847 0.24388 0.0
C392 C 0.9574 0.60423 0.28601 0.0
H393 H -0.00345 0.62442 0.19675 0.0
H394 H 0.94498 0.59851 0.22198 0.0
C395 C 0.98167 0.61757 0.31336 0.0
C396 C 0.60392 0.96849 0.74479 0.0
C397 C 0.59974 0.96263 0.78691 0.0
H398 H 0.61954 0.00189 0.6977 0.0
C399 C 0.61274 0.98691 0.81429 0.0
H400 H 0.59419 0.95027 0.72287 0.0
C401 C 0.62771 0.0165 0.79983 0.0
C402 C 0.62943 0.02235 0.7577 0.0
H403 H 0.61007 0.98309 0.84691 0.0
H404 H 0.63605 0.03471 0.82175 0.0
C405 C 0.61836 -0.00192 0.73032 0.0
C406 C 0.61954 0.61728 0.8139 0.0
C407 C 0.6304 0.60388 0.78653 0.0
H408 H 0.59579 0.6413 0.82131 0.0
C409 C 0.62888 0.60818 0.74441 0.0
H410 H 0.62059 0.61454 0.84651 0.0
C411 C 0.61423 0.62308 0.72992 0.0
C412 C 0.60135 0.63449 0.75728 0.0
H413 H 0.63708 0.59818 0.7225 0.0
H414 H 0.61164 0.62431 0.6973 0.0
C415 C 0.60542 0.63271 0.79941 0.0
C416 C 0.98144 0.61756 0.72944 0.0
C417 C 0.95718 0.60416 0.7568 0.0
H418 H 0.02922 0.64149 0.72203 0.0
C419 C 0.96299 0.60839 0.79892 0.0
H420 H 0.97765 0.61488 0.69682 0.0
C421 C -0.00745 0.62321 0.81342 0.0
C422 C 0.01684 0.6346 0.78606 0.0
H423 H 0.94478 0.59839 0.82083 0.0
H424 H -0.00365 0.62437 0.84604 0.0
C425 C 0.011 0.6329 0.74394 0.0
C426 C 0.36321 -0.00238 0.81426 0.0
C427 C 0.37619 0.0219 0.78687 0.0
H428 H 0.3399 0.94982 0.82174 0.0
C429 C 0.372 0.01603 0.74475 0.0
H430 H 0.36588 0.00145 0.84688 0.0
C431 C 0.35756 0.98644 0.7303 0.0
C432 C 0.3465 0.96217 0.75769 0.0
H433 H 0.38172 0.03425 0.72282 0.0
H434 H 0.35636 0.98262 0.69768 0.0
C435 C 0.34823 0.96803 0.79981 0.0
C436 C 0.35627 0.36718 0.81378 0.0
C437 C 0.34543 0.38059 0.7864 0.0
H438 H 0.38001 0.34315 0.82123 0.0
C439 C 0.34696 0.37631 0.74429 0.0
H440 H 0.3552 0.3699 0.8464 0.0
C441 C 0.36162 0.36141 0.72981 0.0
C442 C 0.37448 0.34999 0.75719 0.0
H443 H 0.33878 0.38633 0.72237 0.0
H444 H 0.36422 0.3602 0.6972 0.0
C445 C 0.37039 0.35175 0.79931 0.0
C446 C -0.00558 0.367 0.72943 0.0
C447 C 0.01869 0.3804 0.75678 0.0
H448 H 0.94663 0.34308 0.72205 0.0
C449 C 0.0129 0.37617 0.7989 0.0
H450 H -0.00181 0.36969 0.69681 0.0
C451 C 0.98334 0.36136 0.81341 0.0
C452 C 0.95904 0.34997 0.78607 0.0
H453 H 0.03112 0.38617 0.8208 0.0
H454 H 0.97955 0.36019 0.84604 0.0
C455 C 0.96487 0.35166 0.74394 0.0
C456 C 0.42899 0.20175 0.23301 0.0
C457 C 0.4296 0.1857 0.26733 0.0
H458 H 0.4289 0.24082 0.21059 0.0
C459 C 0.42902 0.19668 0.30644 0.0
H460 H 0.42934 0.19386 0.20248 0.0
C461 C 0.4288 0.22363 0.31113 0.0
C462 C 0.42912 0.24014 0.2768 0.0
H463 H 0.42939 0.1848 0.33354 0.0
H464 H 0.42902 0.23181 0.34165 0.0
C465 C 0.42874 0.22868 0.2377 0.0
C466 C 0.19403 0.43636 0.23715 0.0
C467 C 0.18296 0.43676 0.27626 0.0
H468 H 0.22931 0.43671 0.20195 0.0
C469 C 0.19912 0.43639 0.31058 0.0
H470 H 0.18207 0.43657 0.21005 0.0
C471 C 0.22618 0.43643 0.3059 0.0
C472 C 0.23768 0.43689 0.2668 0.0
H473 H 0.19117 0.43663 0.34111 0.0
H474 H 0.23838 0.4367 0.33301 0.0
C475 C 0.22111 0.43644 0.23247 0.0
C476 C 0.75624 0.20231 0.31086 0.0
C477 C 0.73946 0.18626 0.27663 0.0
H478 H 0.79557 0.24133 0.33308 0.0
C479 C 0.75091 0.19718 0.23746 0.0
H480 H 0.74808 0.19446 0.34143 0.0
C481 C 0.77813 0.22407 0.23263 0.0
C482 C 0.79447 0.24058 0.26688 0.0
H483 H 0.73856 0.1853 0.21042 0.0
H484 H 0.78601 0.2322 0.20207 0.0
C485 C 0.78347 0.22918 0.30604 0.0
C486 C 0.54699 0.7827 0.23306 0.0
C487 C 0.54638 0.79873 0.26739 0.0
H488 H 0.54709 0.74363 0.21063 0.0
C489 C 0.54695 0.78774 0.3065 0.0
H490 H 0.54665 0.79061 0.20254 0.0
C491 C 0.54716 0.76078 0.31117 0.0
C492 C 0.54685 0.74428 0.27684 0.0
H493 H 0.54657 0.7996 0.3336 0.0
H494 H 0.54693 0.75259 0.34169 0.0
C495 C 0.54725 0.75577 0.23774 0.0
C496 C 0.74981 0.548 0.30603 0.0
C497 C 0.73831 0.54754 0.26693 0.0
H498 H 0.78484 0.5478 0.34122 0.0
C499 C 0.75487 0.54801 0.23259 0.0
H500 H 0.73763 0.54772 0.33314 0.0
C501 C 0.78196 0.54809 0.23726 0.0
C502 C 0.79303 0.54768 0.27636 0.0
H503 H 0.74666 0.54773 0.20207 0.0
H504 H 0.7939 0.54788 0.21015 0.0
C505 C 0.77688 0.54805 0.3107 0.0
C506 C 0.19253 0.75526 0.30602 0.0
C507 C 0.18153 0.74387 0.26685 0.0
H508 H 0.22792 0.78997 0.34142 0.0
C509 C 0.19788 0.76039 0.23261 0.0
H510 H 0.18043 0.7431 0.33305 0.0
C511 C 0.22509 0.78728 0.23745 0.0
C512 C 0.23655 0.79819 0.27662 0.0
H513 H 0.18999 0.75227 0.20205 0.0
H514 H 0.23745 0.79917 0.21042 0.0
C515 C 0.21976 0.78213 0.31085 0.0
C516 C 0.54715 0.76089 0.73301 0.0
C517 C 0.54686 0.74435 0.76728 0.0
H518 H 0.54652 0.79972 0.71071 0.0
C519 C 0.54725 0.75576 0.80642 0.0
H520 H 0.54693 0.75275 0.70246 0.0
C521 C 0.54697 0.78267 0.81119 0.0
C522 C 0.54633 0.79875 0.77692 0.0
H523 H 0.54711 0.74359 0.83348 0.0
H524 H 0.54662 0.79052 0.84174 0.0
C525 C 0.54691 0.78782 0.73778 0.0
C526 C 0.74956 0.54784 0.73734 0.0
C527 C 0.73813 0.54738 0.7765 0.0
H528 H 0.7845 0.54763 0.70199 0.0
C529 C 0.75475 0.54782 0.81075 0.0
H530 H 0.73732 0.54758 0.71029 0.0
C531 C 0.78182 0.54789 0.80596 0.0
C532 C 0.79282 0.54749 0.7668 0.0
H533 H 0.7466 0.54754 0.84131 0.0
H534 H 0.79382 0.54767 0.83301 0.0
C535 C 0.77661 0.54787 0.73255 0.0
C536 C 0.21972 0.78241 0.73278 0.0
C537 C 0.23642 0.79834 0.76715 0.0
H538 H 0.18044 0.74348 0.71027 0.0
C539 C 0.22483 0.7873 0.80623 0.0
H540 H 0.22798 0.79035 0.70228 0.0
C541 C 0.19759 0.76041 0.81085 0.0
C542 C 0.18135 0.74402 0.77648 0.0
H543 H 0.23711 0.79909 0.83336 0.0
H544 H 0.18961 0.75219 0.84135 0.0
C545 C 0.19246 0.75554 0.7374 0.0
C546 C 0.42873 0.22363 0.73296 0.0
C547 C 0.42901 0.24016 0.76724 0.0
H548 H 0.42939 0.18481 0.71065 0.0
C549 C 0.42863 0.22873 0.80638 0.0
H550 H 0.42895 0.23178 0.70241 0.0
C551 C 0.42893 0.20183 0.81114 0.0
C552 C 0.42958 0.18577 0.77686 0.0
H553 H 0.42876 0.24089 0.83344 0.0
H554 H 0.42928 0.19397 0.84169 0.0
C555 C 0.42899 0.1967 0.73772 0.0
C556 C 0.19404 0.43663 0.80585 0.0
C557 C 0.18303 0.43704 0.7667 0.0
H558 H 0.22926 0.43696 0.84119 0.0
C559 C 0.19923 0.43666 0.73243 0.0
H560 H 0.18205 0.43686 0.8329 0.0
C561 C 0.22628 0.43668 0.73722 0.0
C562 C 0.23771 0.43712 0.77637 0.0
H563 H 0.19133 0.4369 0.70188 0.0
H564 H 0.2385 0.43693 0.71016 0.0
C565 C 0.22111 0.43669 0.81063 0.0
C566 C 0.78344 0.22902 0.73743 0.0
C567 C 0.79455 0.24053 0.77651 0.0
H568 H 0.74793 0.19421 0.70228 0.0
C569 C 0.77831 0.22412 0.81087 0.0
H570 H 0.79546 0.24109 0.7103 0.0
C571 C 0.75108 0.19722 0.80623 0.0
C572 C 0.7395 0.18619 0.76715 0.0
H573 H 0.78629 0.23233 0.84137 0.0
H574 H 0.7388 0.18542 0.83336 0.0
C575 C 0.75619 0.20214 0.73279 0.0
C576 C 0.45106 0.07632 0.04348 0.0
C577 C 0.44563 0.09663 0.06545 0.0
H578 H 0.45538 0.06029 0.98528 0.0
C579 C 0.44017 0.11705 0.04366 0.0
H580 H 0.45535 0.06026 0.05912 0.0
C581 C 0.44019 0.11707 1.00077 0.0
C582 C 0.44566 0.09667 0.97897 0.0
H583 H 0.43591 0.13299 0.05969 0.0
H584 H 0.43594 0.13302 0.98475 0.0
C585 C 0.45107 0.07634 1.00094 0.0
C586 C 0.31646 0.44622 1.00035 0.0
C587 C 0.34212 0.45107 0.97854 0.0
H588 H 0.29644 0.44244 0.05927 0.0
C589 C 0.36765 0.45587 1.00049 0.0
H590 H 0.29642 0.44245 0.98433 0.0
C591 C 0.36766 0.45586 0.04303 0.0
C592 C 0.34214 0.45105 0.06502 0.0
H593 H 0.38783 0.45968 0.98483 0.0
H594 H 0.38785 0.45966 0.05868 0.0
C595 C 0.31647 0.44621 0.04323 0.0
C596 C 0.86397 0.31925 0.99995 0.0
C597 C 0.88455 0.34506 0.97815 0.0
H598 H 0.84787 0.2991 0.05886 0.0
C599 C 0.90504 0.37073 1.00013 0.0
H600 H 0.84789 0.2991 0.98392 0.0
C601 C 0.90503 0.37073 0.04267 0.0
C602 C 0.88453 0.34506 0.06463 0.0
H603 H 0.92123 0.39103 0.98448 0.0
H604 H 0.92122 0.39103 0.05832 0.0
C605 C 0.86396 0.31925 0.04284 0.0
C606 C 0.5358 0.86744 0.04372 0.0
C607 C 0.53036 0.88786 0.06552 0.0
H608 H 0.54002 0.85148 0.9848 0.0
C609 C 0.52495 0.90819 0.04356 0.0
H610 H 0.54005 0.85149 0.05974 0.0
C611 C 0.52493 0.90819 1.00102 0.0
C612 C 0.53032 0.88785 0.97904 0.0
H613 H 0.52067 0.92426 0.05921 0.0
H614 H 0.52064 0.92425 0.98537 0.0
C615 C 0.53578 0.86743 1.00083 0.0
C616 C 0.60825 0.52859 0.04318 0.0
C617 C 0.63379 0.53339 0.06514 0.0
H618 H 0.58805 0.52477 0.985 0.0
C619 C 0.65945 0.53824 0.04334 0.0
H620 H 0.58807 0.52478 0.05884 0.0
C621 C 0.65943 0.53824 1.00045 0.0
C622 C 0.63376 0.53338 0.97866 0.0
H623 H 0.67948 0.54201 0.05935 0.0
H624 H 0.67946 0.542 0.98442 0.0
C625 C 0.60824 0.52858 1.00064 0.0
C626 C 0.0709 0.61378 1.00007 0.0
C627 C 0.09138 0.63945 0.9781 0.0
H628 H 0.05473 0.59346 0.05826 0.0
C629 C 0.11196 0.66526 0.9999 0.0
H630 H 0.0547 0.59348 0.98442 0.0
C631 C 0.11198 0.66525 0.04279 0.0
C632 C 0.09142 0.63943 0.06458 0.0
H633 H 0.12804 0.68541 0.98387 0.0
H634 H 0.12807 0.68539 0.05881 0.0
C635 C 0.07092 0.61377 0.04261 0.0
C636 C 0.90414 0.529 0.54267 0.0
C637 C 0.88339 0.53376 0.56462 0.0
H638 H 0.92057 0.52523 0.4845 0.0
C639 C 0.86257 0.53859 0.5428 0.0
H640 H 0.92052 0.5252 0.55834 0.0
C641 C 0.8626 0.53861 0.49991 0.0
C642 C 0.88344 0.5338 0.47814 0.0
H643 H 0.84629 0.54233 0.55881 0.0
H644 H 0.84633 0.54237 0.48387 0.0
C645 C 0.90417 0.52901 0.50013 0.0
C646 C 0.31577 0.8671 0.54367 0.0
C647 C 0.34158 0.88766 0.56546 0.0
H648 H 0.29563 0.85102 0.48476 0.0
C649 C 0.36726 0.90812 0.54349 0.0
H650 H 0.29563 0.85103 0.55969 0.0
C651 C 0.36726 0.90811 0.50095 0.0
C652 C 0.34159 0.88764 0.47898 0.0
H653 H 0.38756 0.9243 0.55914 0.0
H654 H 0.38756 0.92429 0.4853 0.0
C655 C 0.31578 0.86709 0.50078 0.0
C656 C 0.44919 0.37047 0.54315 0.0
C657 C 0.44393 0.34478 0.56513 0.0
H658 H 0.4534 0.3908 0.48496 0.0
C659 C 0.43861 0.31894 0.54334 0.0
H660 H 0.45336 0.39079 0.5588 0.0
C661 C 0.43864 0.31895 0.50045 0.0
C662 C 0.44397 0.34479 0.47865 0.0
H663 H 0.43448 0.29877 0.55936 0.0
H664 H 0.43451 0.29878 0.48443 0.0
C665 C 0.44922 0.37048 0.50061 0.0
C666 C 0.11335 0.44591 0.54281 0.0
C667 C 0.09252 0.45075 0.56458 0.0
H668 H 0.12963 0.44213 0.48392 0.0
C669 C 0.07178 0.45551 0.54258 0.0
H670 H 0.12963 0.44218 0.55885 0.0
C671 C 0.07177 0.45548 0.50004 0.0
C672 C 0.09252 0.45069 0.4781 0.0
H673 H 0.05539 0.4593 0.55821 0.0
H674 H 0.05538 0.45925 0.48437 0.0
C675 C 0.11335 0.44588 0.49992 0.0
C676 C 0.60871 0.07638 0.50092 0.0
C677 C 0.63439 0.09685 0.47896 0.0
H678 H 0.5884 0.06021 0.5591 0.0
C679 C 0.6602 0.1174 0.50077 0.0
H680 H 0.58841 0.06021 0.48526 0.0
C681 C 0.66019 0.1174 0.54365 0.0
C682 C 0.63437 0.09685 0.56544 0.0
H683 H 0.68035 0.13347 0.48475 0.0
H684 H 0.68034 0.13347 0.55968 0.0
C685 C 0.6087 0.07638 0.54346 0.0
C686 C 0.53727 0.6655 0.50041 0.0
C687 C 0.53193 0.63965 0.47864 0.0
H688 H 0.54142 0.68569 0.55931 0.0
C689 C 0.52668 0.61397 0.50064 0.0
H690 H 0.5414 0.68566 0.48437 0.0
C691 C 0.52669 0.61398 0.54318 0.0
C692 C 0.53196 0.63969 0.56512 0.0
H693 H 0.52249 0.59364 0.48501 0.0
H694 H 0.52252 0.59367 0.55884 0.0
C695 C 0.53728 0.66552 0.5433 0.0
C696 C 0.53339 0.12472 0.30026 0.0
C697 C 0.52753 0.12394 0.25822 0.0
H698 H 0.5623 0.12389 0.34672 0.0
C699 C 0.54869 0.12469 0.23041 0.0
H700 H 0.51751 0.12412 0.3225 0.0
C701 C 0.57458 0.12502 0.24432 0.0
C702 C 0.57957 0.12404 0.28635 0.0
H703 H 0.54488 0.12426 0.19785 0.0
H704 H 0.58998 0.12465 0.22207 0.0
C705 C 0.55901 0.12449 0.31417 0.0
C706 C 0.42872 0.56429 0.31367 0.0
C707 C 0.44993 0.58469 0.28586 0.0
H708 H 0.38731 0.52303 0.32199 0.0
C709 C 0.44408 0.5796 0.24382 0.0
H710 H 0.43252 0.56767 0.34623 0.0
C711 C 0.4184 0.5538 0.2299 0.0
C712 C 0.39776 0.53282 0.25772 0.0
H713 H 0.46001 0.59487 0.22158 0.0
H714 H 0.4151 0.54992 0.19735 0.0
C715 C 0.40277 0.53877 0.29974 0.0
C716 C 0.85705 0.43107 0.31331 0.0
C717 C 0.8574 0.45204 0.28547 0.0
H718 H 0.85754 0.38998 0.32168 0.0
C719 C 0.8565 0.44609 0.24345 0.0
H720 H 0.8576 0.43494 0.34586 0.0
C721 C 0.85692 0.42057 0.22955 0.0
C722 C 0.85769 0.40016 0.25738 0.0
H723 H 0.8568 0.46184 0.22118 0.0
H724 H 0.85736 0.41719 0.19699 0.0
C725 C 0.85692 0.40525 0.29941 0.0
C726 C 0.44262 0.85974 0.30033 0.0
C727 C 0.44848 0.86052 0.2583 0.0
H728 H 0.41372 0.86058 0.3468 0.0
C729 C 0.42731 0.85976 0.23048 0.0
H730 H 0.45851 0.86036 0.32258 0.0
C731 C 0.40142 0.85943 0.24439 0.0
C732 C 0.39644 0.86042 0.28642 0.0
H733 H 0.43111 0.86019 0.19792 0.0
H734 H 0.38602 0.85979 0.22214 0.0
C735 C 0.41701 0.85997 0.31425 0.0
C736 C 0.55759 0.43063 0.23 0.0
C737 C 0.57822 0.4516 0.25783 0.0
H738 H 0.516 0.38956 0.22164 0.0
C739 C 0.5732 0.44565 0.29985 0.0
H740 H 0.56091 0.43451 0.19745 0.0
C741 C 0.54724 0.42012 0.31376 0.0
C742 C 0.52604 0.39973 0.28593 0.0
H743 H 0.58865 0.46139 0.32211 0.0
H744 H 0.54343 0.41674 0.34632 0.0
C745 C 0.53191 0.40482 0.2439 0.0
C746 C 0.11911 0.5792 0.29933 0.0
C747 C 0.11831 0.58429 0.2573 0.0
H748 H 0.11844 0.54952 0.34578 0.0
C749 C 0.11907 0.56389 0.22946 0.0
H750 H 0.11849 0.59448 0.32159 0.0
C751 C 0.11949 0.53836 0.24336 0.0
C752 C 0.11861 0.53242 0.28539 0.0
H753 H 0.11861 0.56726 0.19691 0.0
H754 H 0.11918 0.52261 0.2211 0.0
C755 C 0.11897 0.55339 0.31323 0.0
C756 C 0.44246 0.85962 0.74425 0.0
C757 C 0.44832 0.86043 0.78629 0.0
H758 H 0.41357 0.86045 0.69776 0.0
C759 C 0.42716 0.85971 0.81409 0.0
H760 H 0.45834 0.8602 0.72201 0.0
C761 C 0.40128 0.8594 0.80015 0.0
C762 C 0.39631 0.86037 0.75812 0.0
H763 H 0.43097 0.86017 0.84665 0.0
H764 H 0.38589 0.8598 0.82239 0.0
C765 C 0.41686 0.85987 0.73031 0.0
C766 C 0.57303 0.44561 0.74399 0.0
C767 C 0.57805 0.45158 0.78602 0.0
H768 H 0.54327 0.41669 0.69754 0.0
C769 C 0.55739 0.43063 0.81385 0.0
H770 H 0.5885 0.46133 0.72173 0.0
C771 C 0.53171 0.40482 0.79995 0.0
C772 C 0.52586 0.39971 0.75792 0.0
H773 H 0.56071 0.43453 0.8464 0.0
H774 H 0.51578 0.38958 0.82221 0.0
C775 C 0.54707 0.42008 0.73009 0.0
C776 C 0.11907 0.56411 0.8131 0.0
C777 C 0.11822 0.58447 0.78527 0.0
H778 H 0.11929 0.52289 0.82146 0.0
C779 C 0.11895 0.57936 0.74324 0.0
H780 H 0.11868 0.5675 0.84566 0.0
C781 C 0.11884 0.55356 0.72934 0.0
C782 C 0.11857 0.53263 0.75718 0.0
H783 H 0.11826 0.5946 0.72099 0.0
H784 H 0.11826 0.54967 0.69679 0.0
C785 C 0.11953 0.5386 0.7992 0.0
C786 C 0.57466 0.12515 0.80007 0.0
C787 C 0.57962 0.12417 0.75804 0.0
H788 H 0.54498 0.1244 0.84656 0.0
C789 C 0.55907 0.12465 0.73023 0.0
H790 H 0.59005 0.12476 0.82232 0.0
C791 C 0.53347 0.12491 0.74416 0.0
C792 C 0.52762 0.12411 0.7862 0.0
H793 H 0.56235 0.12406 0.69768 0.0
H794 H 0.51759 0.12432 0.72192 0.0
C795 C 0.54878 0.12484 0.81401 0.0
C796 C 0.41842 0.55385 0.81376 0.0
C797 C 0.39779 0.53291 0.78591 0.0
H798 H 0.46003 0.59491 0.82215 0.0
C799 C 0.40281 0.53889 0.74389 0.0
H800 H 0.4151 0.54995 0.84631 0.0
C801 C 0.42878 0.56442 0.73001 0.0
C802 C 0.44998 0.58479 0.75786 0.0
H803 H 0.38736 0.52318 0.72162 0.0
H804 H 0.4326 0.56783 0.69746 0.0
C805 C 0.44411 0.57966 0.79988 0.0
C806 C 0.8569 0.40518 0.74333 0.0
C807 C 0.85765 0.40008 0.78537 0.0
H808 H 0.85756 0.43487 0.69688 0.0
C809 C 0.85682 0.42045 0.8132 0.0
H810 H 0.85757 0.38994 0.72108 0.0
C811 C 0.85636 0.44596 0.79929 0.0
C812 C 0.85729 0.45192 0.75727 0.0
H813 H 0.85724 0.41706 0.84575 0.0
H814 H 0.85662 0.46168 0.82156 0.0
C815 C 0.857 0.43098 0.72943 0.0
loop_
_geom_bond_atom_site_label_1
_geom_bond_atom_site_label_2
_geom_bond_distance
_geom_bond_site_symmetry_2
_ccdc_geom_bond_type
O0 Cd1 2.223 . S
O0 C8 1.315 . S
Cd1 O0 2.223 . S
Cd1 O4 2.297 . S
Cd1 O5 2.439 . S
Cd1 O11 2.240 . S
Cd2 O3 2.240 . S
Cd2 O10 2.223 . S
Cd2 O12 2.297 . S
Cd2 O13 2.439 . S
O3 Cd2 2.240 . S
O3 C8 1.279 . S
O4 Cd1 2.297 . S
O4 C6 1.247 . S
O5 Cd1 2.439 . S
O5 C6 1.208 . S
C6 O4 1.247 . S
C6 O5 1.208 . S
C7 O12 1.247 . S
C7 O13 1.208 . S
C8 O0 1.315 . S
C8 O3 1.279 . S
C9 O10 1.315 . S
C9 O11 1.279 . S
O10 Cd2 2.223 . S
O10 C9 1.315 . S
O11 Cd1 2.240 . S
O11 C9 1.279 . S
O12 Cd2 2.297 . S
O12 C7 1.247 . S
O13 Cd2 2.439 . S
O13 C7 1.208 . S
O14 Cd15 2.223 . S
O14 C22 1.315 . S
Cd15 O14 2.223 . S
Cd15 O18 2.297 . S
Cd15 O19 2.439 . S
Cd15 O25 2.240 . S
Cd16 O17 2.240 . S
Cd16 O24 2.223 . S
Cd16 O26 2.297 . S
Cd16 O27 2.439 . S
O17 Cd16 2.240 . S
O17 C22 1.279 . S
O18 Cd15 2.297 . S
O18 C20 1.247 . S
O19 Cd15 2.439 . S
O19 C20 1.208 . S
C20 O18 1.247 . S
C20 O19 1.208 . S
C21 O26 1.247 . S
C21 O27 1.208 . S
C22 O14 1.315 . S
C22 O17 1.279 . S
C23 O24 1.315 . S
C23 O25 1.279 . S
O24 Cd16 2.223 . S
O24 C23 1.315 . S
O25 Cd15 2.240 . S
O25 C23 1.279 . S
O26 Cd16 2.297 . S
O26 C21 1.247 . S
O27 Cd16 2.439 . S
O27 C21 1.208 . S
O28 Cd29 2.223 . S
O28 C36 1.315 . S
Cd29 O28 2.223 . S
Cd29 O32 2.297 . S
Cd29 O33 2.439 . S
Cd29 O39 2.240 . S
Cd30 O31 2.240 . S
Cd30 O38 2.223 . S
Cd30 O40 2.297 . S
Cd30 O41 2.439 . S
O31 Cd30 2.240 . S
O31 C36 1.279 . S
O32 Cd29 2.297 . S
O32 C34 1.247 . S
O33 Cd29 2.439 . S
O33 C34 1.208 . S
C34 O32 1.247 . S
C34 O33 1.208 . S
C35 O40 1.247 . S
C35 O41 1.208 . S
C36 O28 1.315 . S
C36 O31 1.279 . S
C37 O38 1.315 . S
C37 O39 1.279 . S
O38 Cd30 2.223 . S
O38 C37 1.315 . S
O39 Cd29 2.240 . S
O39 C37 1.279 . S
O40 Cd30 2.297 . S
O40 C35 1.247 . S
O41 Cd30 2.439 . S
O41 C35 1.208 . S
O42 Cd43 2.223 . S
O42 C50 1.315 . S
Cd43 O42 2.223 . S
Cd43 O46 2.297 . S
Cd43 O47 2.439 . S
Cd43 O53 2.240 . S
Cd44 O45 2.240 . S
Cd44 O52 2.223 . S
Cd44 O54 2.297 . S
Cd44 O55 2.439 . S
O45 Cd44 2.240 . S
O45 C50 1.279 . S
O46 Cd43 2.297 . S
O46 C48 1.247 . S
O47 Cd43 2.439 . S
O47 C48 1.208 . S
C48 O46 1.247 . S
C48 O47 1.208 . S
C49 O54 1.247 . S
C49 O55 1.208 . S
C50 O42 1.315 . S
C50 O45 1.279 . S
C51 O52 1.315 . S
C51 O53 1.279 . S
O52 Cd44 2.223 . S
O52 C51 1.315 . S
O53 Cd43 2.240 . S
O53 C51 1.279 . S
O54 Cd44 2.297 . S
O54 C49 1.247 . S
O55 Cd44 2.439 . S
O55 C49 1.208 . S
O56 Cd57 2.223 . S
O56 C64 1.315 . S
Cd57 O56 2.223 . S
Cd57 O60 2.297 . S
Cd57 O61 2.439 . S
Cd57 O67 2.240 . S
Cd58 O59 2.240 . S
Cd58 O66 2.223 . S
Cd58 O68 2.297 . S
Cd58 O69 2.439 . S
O59 Cd58 2.240 . S
O59 C64 1.279 . S
O60 Cd57 2.297 . S
O60 C62 1.247 . S
O61 Cd57 2.439 . S
O61 C62 1.208 . S
C62 O60 1.247 . S
C62 O61 1.208 . S
C63 O68 1.247 . S
C63 O69 1.208 . S
C64 O56 1.315 . S
C64 O59 1.279 . S
C65 O66 1.315 . S
C65 O67 1.279 . S
O66 Cd58 2.223 . S
O66 C65 1.315 . S
O67 Cd57 2.240 . S
O67 C65 1.279 . S
O68 Cd58 2.297 . S
O68 C63 1.247 . S
O69 Cd58 2.439 . S
O69 C63 1.208 . S
O70 Cd71 2.223 . S
O70 C78 1.315 . S
Cd71 O70 2.223 . S
Cd71 O74 2.297 . S
Cd71 O75 2.439 . S
Cd71 O81 2.240 . S
Cd72 O73 2.240 . S
Cd72 O80 2.223 . S
Cd72 O82 2.297 . S
Cd72 O83 2.439 . S
O73 Cd72 2.240 . S
O73 C78 1.279 . S
O74 Cd71 2.297 . S
O74 C76 1.247 . S
O75 Cd71 2.439 . S
O75 C76 1.208 . S
C76 O74 1.247 . S
C76 O75 1.208 . S
C77 O82 1.247 . S
C77 O83 1.208 . S
C78 O70 1.315 . S
C78 O73 1.279 . S
C79 O80 1.315 . S
C79 O81 1.279 . S
O80 Cd72 2.223 . S
O80 C79 1.315 . S
O81 Cd71 2.240 . S
O81 C79 1.279 . S
O82 Cd72 2.297 . S
O82 C77 1.247 . S
O83 Cd72 2.439 . S
O83 C77 1.208 . S
O84 Cd85 2.223 . S
O84 C92 1.315 . S
Cd85 O84 2.223 . S
Cd85 O88 2.297 . S
Cd85 O89 2.439 . S
Cd85 O95 2.240 . S
Cd86 O87 2.240 . S
Cd86 O94 2.223 . S
Cd86 O96 2.297 . S
Cd86 O97 2.439 . S
O87 Cd86 2.240 . S
O87 C92 1.279 . S
O88 Cd85 2.297 . S
O88 C90 1.247 . S
O89 Cd85 2.439 . S
O89 C90 1.208 . S
C90 O88 1.247 . S
C90 O89 1.208 . S
C91 O96 1.247 . S
C91 O97 1.208 . S
C92 O84 1.315 . S
C92 O87 1.279 . S
C93 O94 1.315 . S
C93 O95 1.279 . S
O94 Cd86 2.223 . S
O94 C93 1.315 . S
O95 Cd85 2.240 . S
O95 C93 1.279 . S
O96 Cd86 2.297 . S
O96 C91 1.247 . S
O97 Cd86 2.439 . S
O97 C91 1.208 . S
O98 Cd99 2.223 . S
O98 C106 1.315 . S
Cd99 O98 2.223 . S
Cd99 O102 2.297 . S
Cd99 O103 2.439 . S
Cd99 O109 2.240 . S
Cd100 O101 2.240 . S
Cd100 O108 2.223 . S
Cd100 O110 2.297 . S
Cd100 O111 2.439 . S
O101 Cd100 2.240 . S
O101 C106 1.279 . S
O102 Cd99 2.297 . S
O102 C104 1.247 . S
O103 Cd99 2.439 . S
O103 C104 1.208 . S
C104 O102 1.247 . S
C104 O103 1.208 . S
C105 O110 1.247 . S
C105 O111 1.208 . S
C106 O98 1.315 . S
C106 O101 1.279 . S
C107 O108 1.315 . S
C107 O109 1.279 . S
O108 Cd100 2.223 . S
O108 C107 1.315 . S
O109 Cd99 2.240 . S
O109 C107 1.279 . S
O110 Cd100 2.297 . S
O110 C105 1.247 . S
O111 Cd100 2.439 . S
O111 C105 1.208 . S
O112 Cd113 2.223 . S
O112 C120 1.315 . S
Cd113 O112 2.223 . S
Cd113 O116 2.297 . S
Cd113 O117 2.439 . S
Cd113 O123 2.240 . S
Cd114 O115 2.240 . S
Cd114 O122 2.223 . S
Cd114 O124 2.297 . S
Cd114 O125 2.439 . S
O115 Cd114 2.240 . S
O115 C120 1.279 . S
O116 Cd113 2.297 . S
O116 C118 1.247 . S
O117 Cd113 2.439 . S
O117 C118 1.208 . S
C118 O116 1.247 . S
C118 O117 1.208 . S
C119 O124 1.247 . S
C119 O125 1.208 . S
C120 O112 1.315 . S
C120 O115 1.279 . S
C121 O122 1.315 . S
C121 O123 1.279 . S
O122 Cd114 2.223 . S
O122 C121 1.315 . S
O123 Cd113 2.240 . S
O123 C121 1.279 . S
O124 Cd114 2.297 . S
O124 C119 1.247 . S
O125 Cd114 2.439 . S
O125 C119 1.208 . S
O126 Cd127 2.223 . S
O126 C134 1.315 . S
Cd127 O126 2.223 . S
Cd127 O130 2.297 . S
Cd127 O131 2.439 . S
Cd127 O137 2.240 . S
Cd128 O129 2.240 . S
Cd128 O136 2.223 . S
Cd128 O138 2.297 . S
Cd128 O139 2.439 . S
O129 Cd128 2.240 . S
O129 C134 1.279 . S
O130 Cd127 2.297 . S
O130 C132 1.247 . S
O131 Cd127 2.439 . S
O131 C132 1.208 . S
C132 O130 1.247 . S
C132 O131 1.208 . S
C133 O138 1.247 . S
C133 O139 1.208 . S
C134 O126 1.315 . S
C134 O129 1.279 . S
C135 O136 1.315 . S
C135 O137 1.279 . S
O136 Cd128 2.223 . S
O136 C135 1.315 . S
O137 Cd127 2.240 . S
O137 C135 1.279 . S
O138 Cd128 2.297 . S
O138 C133 1.247 . S
O139 Cd128 2.439 . S
O139 C133 1.208 . S
O140 Cd141 2.223 . S
O140 C148 1.315 . S
Cd141 O140 2.223 . S
Cd141 O144 2.297 . S
Cd141 O145 2.439 . S
Cd141 O151 2.240 . S
Cd142 O143 2.240 . S
Cd142 O150 2.223 . S
Cd142 O152 2.297 . S
Cd142 O153 2.439 . S
O143 Cd142 2.240 . S
O143 C148 1.279 . S
O144 Cd141 2.297 . S
O144 C146 1.247 . S
O145 Cd141 2.439 . S
O145 C146 1.208 . S
C146 O144 1.247 . S
C146 O145 1.208 . S
C147 O152 1.247 . S
C147 O153 1.208 . S
C148 O140 1.315 . S
C148 O143 1.279 . S
C149 O150 1.315 . S
C149 O151 1.279 . S
O150 Cd142 2.223 . S
O150 C149 1.315 . S
O151 Cd141 2.240 . S
O151 C149 1.279 . S
O152 Cd142 2.297 . S
O152 C147 1.247 . S
O153 Cd142 2.439 . S
O153 C147 1.208 . S
O154 Cd155 2.223 . S
O154 C162 1.315 . S
Cd155 O154 2.223 . S
Cd155 O158 2.297 . S
Cd155 O159 2.439 . S
Cd155 O165 2.240 . S
Cd156 O157 2.240 . S
Cd156 O164 2.223 . S
Cd156 O166 2.297 . S
Cd156 O167 2.439 . S
O157 Cd156 2.240 . S
O157 C162 1.279 . S
O158 Cd155 2.297 . S
O158 C160 1.247 . S
O159 Cd155 2.439 . S
O159 C160 1.208 . S
C160 O158 1.247 . S
C160 O159 1.208 . S
C161 O166 1.247 . S
C161 O167 1.208 . S
C162 O154 1.315 . S
C162 O157 1.279 . S
C163 O164 1.315 . S
C163 O165 1.279 . S
O164 Cd156 2.223 . S
O164 C163 1.315 . S
O165 Cd155 2.240 . S
O165 C163 1.279 . S
O166 Cd156 2.297 . S
O166 C161 1.247 . S
O167 Cd156 2.439 . S
O167 C161 1.208 . S
O168 Cd169 2.223 . S
O168 C176 1.315 . S
Cd169 O168 2.223 . S
Cd169 O172 2.297 . S
Cd169 O173 2.439 . S
Cd169 O179 2.240 . S
Cd170 O171 2.240 . S
Cd170 O178 2.223 . S
Cd170 O180 2.297 . S
Cd170 O181 2.439 . S
O171 Cd170 2.240 . S
O171 C176 1.279 . S
O172 Cd169 2.297 . S
O172 C174 1.247 . S
O173 Cd169 2.439 . S
O173 C174 1.208 . S
C174 O172 1.247 . S
C174 O173 1.208 . S
C175 O180 1.247 . S
C175 O181 1.208 . S
C176 O168 1.315 . S
C176 O171 1.279 . S
C177 O178 1.315 . S
C177 O179 1.279 . S
O178 Cd170 2.223 . S
O178 C177 1.315 . S
O179 Cd169 2.240 . S
O179 C177 1.279 . S
O180 Cd170 2.297 . S
O180 C175 1.247 . S
O181 Cd170 2.439 . S
O181 C175 1.208 . S
O182 Cd183 2.223 . S
O182 C190 1.315 . S
Cd183 O182 2.223 . S
Cd183 O186 2.297 . S
Cd183 O187 2.439 . S
Cd183 O193 2.240 . S
Cd184 O185 2.240 . S
Cd184 O192 2.223 . S
Cd184 O194 2.297 . S
Cd184 O195 2.439 . S
O185 Cd184 2.240 . S
O185 C190 1.279 . S
O186 Cd183 2.297 . S
O186 C188 1.247 . S
O187 Cd183 2.439 . S
O187 C188 1.208 . S
C188 O186 1.247 . S
C188 O187 1.208 . S
C189 O194 1.247 . S
C189 O195 1.208 . S
C190 O182 1.315 . S
C190 O185 1.279 . S
C191 O192 1.315 . S
C191 O193 1.279 . S
O192 Cd184 2.223 . S
O192 C191 1.315 . S
O193 Cd183 2.240 . S
O193 C191 1.279 . S
O194 Cd184 2.297 . S
O194 C189 1.247 . S
O195 Cd184 2.439 . S
O195 C189 1.208 . S
O196 Cd197 2.223 . S
O196 C204 1.315 . S
Cd197 O196 2.223 . S
Cd197 O200 2.297 . S
Cd197 O201 2.439 . S
Cd197 O207 2.240 . S
Cd198 O199 2.240 . S
Cd198 O206 2.223 . S
Cd198 O208 2.297 . S
Cd198 O209 2.439 . S
O199 Cd198 2.240 . S
O199 C204 1.279 . S
O200 Cd197 2.297 . S
O200 C202 1.247 . S
O201 Cd197 2.439 . S
O201 C202 1.208 . S
C202 O200 1.247 . S
C202 O201 1.208 . S
C203 O208 1.247 . S
C203 O209 1.208 . S
C204 O196 1.315 . S
C204 O199 1.279 . S
C205 O206 1.315 . S
C205 O207 1.279 . S
O206 Cd198 2.223 . S
O206 C205 1.315 . S
O207 Cd197 2.240 . S
O207 C205 1.279 . S
O208 Cd198 2.297 . S
O208 C203 1.247 . S
O209 Cd198 2.439 . S
O209 C203 1.208 . S
O210 Cd211 2.223 . S
O210 C218 1.315 . S
Cd211 O210 2.223 . S
Cd211 O214 2.297 . S
Cd211 O215 2.439 . S
Cd211 O221 2.240 . S
Cd212 O213 2.240 . S
Cd212 O220 2.223 . S
Cd212 O222 2.297 . S
Cd212 O223 2.439 . S
O213 Cd212 2.240 . S
O213 C218 1.279 . S
O214 Cd211 2.297 . S
O214 C216 1.247 . S
O215 Cd211 2.439 . S
O215 C216 1.208 . S
C216 O214 1.247 . S
C216 O215 1.208 . S
C217 O222 1.247 . S
C217 O223 1.208 . S
C218 O210 1.315 . S
C218 O213 1.279 . S
C219 O220 1.315 . S
C219 O221 1.279 . S
O220 Cd212 2.223 . S
O220 C219 1.315 . S
O221 Cd211 2.240 . S
O221 C219 1.279 . S
O222 Cd212 2.297 . S
O222 C217 1.247 . S
O223 Cd212 2.439 . S
O223 C217 1.208 . S
O224 Cd225 2.223 . S
O224 C232 1.315 . S
Cd225 O224 2.223 . S
Cd225 O228 2.297 . S
Cd225 O229 2.439 . S
Cd225 O235 2.240 . S
Cd226 O227 2.240 . S
Cd226 O234 2.223 . S
Cd226 O236 2.297 . S
Cd226 O237 2.439 . S
O227 Cd226 2.240 . S
O227 C232 1.279 . S
O228 Cd225 2.297 . S
O228 C230 1.247 . S
O229 Cd225 2.439 . S
O229 C230 1.208 . S
C230 O228 1.247 . S
C230 O229 1.208 . S
C231 O236 1.247 . S
C231 O237 1.208 . S
C232 O224 1.315 . S
C232 O227 1.279 . S
C233 O234 1.315 . S
C233 O235 1.279 . S
O234 Cd226 2.223 . S
O234 C233 1.315 . S
O235 Cd225 2.240 . S
O235 C233 1.279 . S
O236 Cd226 2.297 . S
O236 C231 1.247 . S
O237 Cd226 2.439 . S
O237 C231 1.208 . S
O238 Cd239 2.223 . S
O238 C246 1.315 . S
Cd239 O238 2.223 . S
Cd239 O242 2.297 . S
Cd239 O243 2.439 . S
Cd239 O249 2.240 . S
Cd240 O241 2.240 . S
Cd240 O248 2.223 . S
Cd240 O250 2.297 . S
Cd240 O251 2.439 . S
O241 Cd240 2.240 . S
O241 C246 1.279 . S
O242 Cd239 2.297 . S
O242 C244 1.247 . S
O243 Cd239 2.439 . S
O243 C244 1.208 . S
C244 O242 1.247 . S
C244 O243 1.208 . S
C245 O250 1.247 . S
C245 O251 1.208 . S
C246 O238 1.315 . S
C246 O241 1.279 . S
C247 O248 1.315 . S
C247 O249 1.279 . S
O248 Cd240 2.223 . S
O248 C247 1.315 . S
O249 Cd239 2.240 . S
O249 C247 1.279 . S
O250 Cd240 2.297 . S
O250 C245 1.247 . S
O251 Cd240 2.439 . S
O251 C245 1.208 . S
O252 Cd253 2.223 . S
O252 C260 1.315 . S
Cd253 O252 2.223 . S
Cd253 O256 2.297 . S
Cd253 O257 2.439 . S
Cd253 O263 2.240 . S
Cd254 O255 2.240 . S
Cd254 O262 2.223 . S
Cd254 O264 2.297 . S
Cd254 O265 2.439 . S
O255 Cd254 2.240 . S
O255 C260 1.279 . S
O256 Cd253 2.297 . S
O256 C258 1.247 . S
O257 Cd253 2.439 . S
O257 C258 1.208 . S
C258 O256 1.247 . S
C258 O257 1.208 . S
C259 O264 1.247 . S
C259 O265 1.208 . S
C260 O252 1.315 . S
C260 O255 1.279 . S
C261 O262 1.315 . S
C261 O263 1.279 . S
O262 Cd254 2.223 . S
O262 C261 1.315 . S
O263 Cd253 2.240 . S
O263 C261 1.279 . S
O264 Cd254 2.297 . S
O264 C259 1.247 . S
O265 Cd254 2.439 . S
O265 C259 1.208 . S
O266 Cd267 2.223 . S
O266 C274 1.315 . S
Cd267 O266 2.223 . S
Cd267 O270 2.297 . S
Cd267 O271 2.439 . S
Cd267 O277 2.240 . S
Cd268 O269 2.240 . S
Cd268 O276 2.223 . S
Cd268 O278 2.297 . S
Cd268 O279 2.439 . S
O269 Cd268 2.240 . S
O269 C274 1.279 . S
O270 Cd267 2.297 . S
O270 C272 1.247 . S
O271 Cd267 2.439 . S
O271 C272 1.208 . S
C272 O270 1.247 . S
C272 O271 1.208 . S
C273 O278 1.247 . S
C273 O279 1.208 . S
C274 O266 1.315 . S
C274 O269 1.279 . S
C275 O276 1.315 . S
C275 O277 1.279 . S
O276 Cd268 2.223 . S
O276 C275 1.315 . S
O277 Cd267 2.240 . S
O277 C275 1.279 . S
O278 Cd268 2.297 . S
O278 C273 1.247 . S
O279 Cd268 2.439 . S
O279 C273 1.208 . S
O280 Cd281 2.223 . S
O280 C288 1.315 . S
Cd281 O280 2.223 . S
Cd281 O284 2.297 . S
Cd281 O285 2.439 . S
Cd281 O291 2.240 . S
Cd282 O283 2.240 . S
Cd282 O290 2.223 . S
Cd282 O292 2.297 . S
Cd282 O293 2.439 . S
O283 Cd282 2.240 . S
O283 C288 1.279 . S
O284 Cd281 2.297 . S
O284 C286 1.247 . S
O285 Cd281 2.439 . S
O285 C286 1.208 . S
C286 O284 1.247 . S
C286 O285 1.208 . S
C287 O292 1.247 . S
C287 O293 1.208 . S
C288 O280 1.315 . S
C288 O283 1.279 . S
C289 O290 1.315 . S
C289 O291 1.279 . S
O290 Cd282 2.223 . S
O290 C289 1.315 . S
O291 Cd281 2.240 . S
O291 C289 1.279 . S
O292 Cd282 2.297 . S
O292 C287 1.247 . S
O293 Cd282 2.439 . S
O293 C287 1.208 . S
O294 Cd295 2.223 . S
O294 C302 1.315 . S
Cd295 O294 2.223 . S
Cd295 O298 2.297 . S
Cd295 O299 2.439 . S
Cd295 O305 2.240 . S
Cd296 O297 2.240 . S
Cd296 O304 2.223 . S
Cd296 O306 2.297 . S
Cd296 O307 2.439 . S
O297 Cd296 2.240 . S
O297 C302 1.279 . S
O298 Cd295 2.297 . S
O298 C300 1.247 . S
O299 Cd295 2.439 . S
O299 C300 1.208 . S
C300 O298 1.247 . S
C300 O299 1.208 . S
C301 O306 1.247 . S
C301 O307 1.208 . S
C302 O294 1.315 . S
C302 O297 1.279 . S
C303 O304 1.315 . S
C303 O305 1.279 . S
O304 Cd296 2.223 . S
O304 C303 1.315 . S
O305 Cd295 2.240 . S
O305 C303 1.279 . S
O306 Cd296 2.297 . S
O306 C301 1.247 . S
O307 Cd296 2.439 . S
O307 C301 1.208 . S
O308 Cd309 2.223 . S
O308 C316 1.315 . S
Cd309 O308 2.223 . S
Cd309 O312 2.297 . S
Cd309 O313 2.439 . S
Cd309 O319 2.240 . S
Cd310 O311 2.240 . S
Cd310 O318 2.223 . S
Cd310 O320 2.297 . S
Cd310 O321 2.439 . S
O311 Cd310 2.240 . S
O311 C316 1.279 . S
O312 Cd309 2.297 . S
O312 C314 1.247 . S
O313 Cd309 2.439 . S
O313 C314 1.208 . S
C314 O312 1.247 . S
C314 O313 1.208 . S
C315 O320 1.247 . S
C315 O321 1.208 . S
C316 O308 1.315 . S
C316 O311 1.279 . S
C317 O318 1.315 . S
C317 O319 1.279 . S
O318 Cd310 2.223 . S
O318 C317 1.315 . S
O319 Cd309 2.240 . S
O319 C317 1.279 . S
O320 Cd310 2.297 . S
O320 C315 1.247 . S
O321 Cd310 2.439 . S
O321 C315 1.208 . S
O322 Cd323 2.223 . S
O322 C330 1.315 . S
Cd323 O322 2.223 . S
Cd323 O326 2.297 . S
Cd323 O327 2.439 . S
Cd323 O333 2.240 . S
Cd324 O325 2.240 . S
Cd324 O332 2.223 . S
Cd324 O334 2.297 . S
Cd324 O335 2.439 . S
O325 Cd324 2.240 . S
O325 C330 1.279 . S
O326 Cd323 2.297 . S
O326 C328 1.247 . S
O327 Cd323 2.439 . S
O327 C328 1.208 . S
C328 O326 1.247 . S
C328 O327 1.208 . S
C329 O334 1.247 . S
C329 O335 1.208 . S
C330 O322 1.315 . S
C330 O325 1.279 . S
C331 O332 1.315 . S
C331 O333 1.279 . S
O332 Cd324 2.223 . S
O332 C331 1.315 . S
O333 Cd323 2.240 . S
O333 C331 1.279 . S
O334 Cd324 2.297 . S
O334 C329 1.247 . S
O335 Cd324 2.439 . S
O335 C329 1.208 . S
C336 C337 1.387 . S
C336 H340 0.950 . S
C336 C345 1.390 1_545 S
C337 C336 1.387 . S
C337 C339 1.387 . S
H338 C345 0.950 . S
C339 C337 1.387 . S
C339 C341 1.390 1_545 S
C339 H343 0.950 . S
H340 C336 0.950 . S
C341 C339 1.390 1_565 S
C341 C342 1.387 . S
C341 H344 0.950 . S
C342 C341 1.387 . S
C342 C345 1.387 . S
H343 C339 0.950 . S
H344 C341 0.950 . S
C345 C336 1.390 1_565 S
C345 H338 0.950 . S
C345 C342 1.387 . S
C346 C347 1.387 . S
C346 H350 0.950 . S
C346 C355 1.390 . S
C347 C346 1.387 . S
C347 C349 1.387 . S
H348 C355 0.950 . S
C349 C347 1.387 . S
C349 C351 1.390 . S
C349 H353 0.950 . S
H350 C346 0.950 . S
C351 C349 1.390 . S
C351 C352 1.387 . S
C351 H354 0.950 . S
C352 C351 1.387 . S
C352 C355 1.387 . S
H353 C349 0.950 . S
H354 C351 0.950 . S
C355 C346 1.390 . S
C355 H348 0.950 . S
C355 C352 1.387 . S
C356 C357 1.387 . S
C356 H360 0.950 . S
C356 C365 1.390 . S
C357 C356 1.387 . S
C357 C359 1.387 1_655 S
H358 C365 0.950 . S
C359 C357 1.387 1_455 S
C359 C361 1.390 . S
C359 H363 0.950 . S
H360 C356 0.950 . S
C361 C359 1.390 . S
C361 C362 1.387 . S
C361 H364 0.950 . S
C362 C361 1.387 . S
C362 C365 1.387 1_455 S
H363 C359 0.950 . S
H364 C361 0.950 . S
C365 C356 1.390 . S
C365 H358 0.950 . S
C365 C362 1.387 1_655 S
C366 C367 1.387 . S
C366 H370 0.950 . S
C366 C375 1.390 1_565 S
C367 C366 1.387 . S
C367 C369 1.387 . S
H368 C375 0.950 . S
C369 C367 1.387 . S
C369 C371 1.390 1_565 S
C369 H373 0.950 . S
H370 C366 0.950 . S
C371 C369 1.390 1_545 S
C371 C372 1.387 . S
C371 H374 0.950 . S
C372 C371 1.387 . S
C372 C375 1.387 . S
H373 C369 0.950 . S
H374 C371 0.950 . S
C375 C366 1.390 1_545 S
C375 H368 0.950 . S
C375 C372 1.387 . S
C376 C377 1.387 . S
C376 H380 0.950 . S
C376 C385 1.390 . S
C377 C376 1.387 . S
C377 C379 1.387 . S
H378 C385 0.950 . S
C379 C377 1.387 . S
C379 C381 1.390 . S
C379 H383 0.950 . S
H380 C376 0.950 . S
C381 C379 1.390 . S
C381 C382 1.387 . S
C381 H384 0.950 . S
C382 C381 1.387 . S
C382 C385 1.387 . S
H383 C379 0.950 . S
H384 C381 0.950 . S
C385 C376 1.390 . S
C385 H378 0.950 . S
C385 C382 1.387 . S
C386 C387 1.387 . S
C386 H390 0.950 . S
C386 C395 1.390 1_455 S
C387 C386 1.387 . S
C387 C389 1.387 . S
H388 C395 0.950 . S
C389 C387 1.387 . S
C389 C391 1.390 1_455 S
C389 H393 0.950 . S
H390 C386 0.950 . S
C391 C389 1.390 1_655 S
C391 C392 1.387 . S
C391 H394 0.950 . S
C392 C391 1.387 . S
C392 C395 1.387 . S
H393 C389 0.950 . S
H394 C391 0.950 . S
C395 C386 1.390 1_655 S
C395 H388 0.950 . S
C395 C392 1.387 . S
C396 C397 1.387 . S
C396 H400 0.950 . S
C396 C405 1.390 1_565 S
C397 C396 1.387 . S
C397 C399 1.387 . S
H398 C405 0.950 . S
C399 C397 1.387 . S
C399 C401 1.390 1_565 S
C399 H403 0.950 . S
H400 C396 0.950 . S
C401 C399 1.390 1_545 S
C401 C402 1.387 . S
C401 H404 0.950 . S
C402 C401 1.387 . S
C402 C405 1.387 . S
H403 C399 0.950 . S
H404 C401 0.950 . S
C405 C396 1.390 1_545 S
C405 H398 0.950 . S
C405 C402 1.387 . S
C406 C407 1.387 . S
C406 H410 0.950 . S
C406 C415 1.390 . S
C407 C406 1.387 . S
C407 C409 1.387 . S
H408 C415 0.950 . S
C409 C407 1.387 . S
C409 C411 1.390 . S
C409 H413 0.950 . S
H410 C406 0.950 . S
C411 C409 1.390 . S
C411 C412 1.387 . S
C411 H414 0.950 . S
C412 C411 1.387 . S
C412 C415 1.387 . S
H413 C409 0.950 . S
H414 C411 0.950 . S
C415 C406 1.390 . S
C415 H408 0.950 . S
C415 C412 1.387 . S
C416 C417 1.387 . S
C416 H420 0.950 . S
C416 C425 1.390 1_655 S
C417 C416 1.387 . S
C417 C419 1.387 . S
H418 C425 0.950 . S
C419 C417 1.387 . S
C419 C421 1.390 1_655 S
C419 H423 0.950 . S
H420 C416 0.950 . S
C421 C419 1.390 1_455 S
C421 C422 1.387 . S
C421 H424 0.950 . S
C422 C421 1.387 . S
C422 C425 1.387 . S
H423 C419 0.950 . S
H424 C421 0.950 . S
C425 C416 1.390 1_455 S
C425 H418 0.950 . S
C425 C422 1.387 . S
C426 C427 1.387 . S
C426 H430 0.950 . S
C426 C435 1.390 1_545 S
C427 C426 1.387 . S
C427 C429 1.387 . S
H428 C435 0.950 . S
C429 C427 1.387 . S
C429 C431 1.390 1_545 S
C429 H433 0.950 . S
H430 C426 0.950 . S
C431 C429 1.390 1_565 S
C431 C432 1.387 . S
C431 H434 0.950 . S
C432 C431 1.387 . S
C432 C435 1.387 . S
H433 C429 0.950 . S
H434 C431 0.950 . S
C435 C426 1.390 1_565 S
C435 H428 0.950 . S
C435 C432 1.387 . S
C436 C437 1.387 . S
C436 H440 0.950 . S
C436 C445 1.390 . S
C437 C436 1.387 . S
C437 C439 1.387 . S
H438 C445 0.950 . S
C439 C437 1.387 . S
C439 C441 1.390 . S
C439 H443 0.950 . S
H440 C436 0.950 . S
C441 C439 1.390 . S
C441 C442 1.387 . S
C441 H444 0.950 . S
C442 C441 1.387 . S
C442 C445 1.387 . S
H443 C439 0.950 . S
H444 C441 0.950 . S
C445 C436 1.390 . S
C445 H438 0.950 . S
C445 C442 1.387 . S
C446 C447 1.387 . S
C446 H450 0.950 . S
C446 C455 1.390 1_455 S
C447 C446 1.387 . S
C447 C449 1.387 . S
H448 C455 0.950 . S
C449 C447 1.387 . S
C449 C451 1.390 1_455 S
C449 H453 0.950 . S
H450 C446 0.950 . S
C451 C449 1.390 1_655 S
C451 C452 1.387 . S
C451 H454 0.950 . S
C452 C451 1.387 . S
C452 C455 1.387 . S
H453 C449 0.950 . S
H454 C451 0.950 . S
C455 C446 1.390 1_655 S
C455 H448 0.950 . S
C455 C452 1.387 . S
C456 C457 1.387 . S
C456 H460 0.950 . S
C456 C465 1.390 . S
C457 C456 1.387 . S
C457 C459 1.387 . S
H458 C465 0.950 . S
C459 C457 1.387 . S
C459 C461 1.390 . S
C459 H463 0.950 . S
H460 C456 0.950 . S
C461 C459 1.390 . S
C461 C462 1.387 . S
C461 H464 0.950 . S
C462 C461 1.387 . S
C462 C465 1.387 . S
H463 C459 0.950 . S
H464 C461 0.950 . S
C465 C456 1.390 . S
C465 H458 0.950 . S
C465 C462 1.387 . S
C466 C467 1.387 . S
C466 H470 0.950 . S
C466 C475 1.390 . S
C467 C466 1.387 . S
C467 C469 1.387 . S
H468 C475 0.950 . S
C469 C467 1.387 . S
C469 C471 1.390 . S
C469 H473 0.950 . S
H470 C466 0.950 . S
C471 C469 1.390 . S
C471 C472 1.387 . S
C471 H474 0.950 . S
C472 C471 1.387 . S
C472 C475 1.387 . S
H473 C469 0.950 . S
H474 C471 0.950 . S
C475 C466 1.390 . S
C475 H468 0.950 . S
C475 C472 1.387 . S
C476 C477 1.387 . S
C476 H480 0.950 . S
C476 C485 1.390 . S
C477 C476 1.387 . S
C477 C479 1.387 . S
H478 C485 0.950 . S
C479 C477 1.387 . S
C479 C481 1.390 . S
C479 H483 0.950 . S
H480 C476 0.950 . S
C481 C479 1.390 . S
C481 C482 1.387 . S
C481 H484 0.950 . S
C482 C481 1.387 . S
C482 C485 1.387 . S
H483 C479 0.950 . S
H484 C481 0.950 . S
C485 C476 1.390 . S
C485 H478 0.950 . S
C485 C482 1.387 . S
C486 C487 1.387 . S
C486 H490 0.950 . S
C486 C495 1.390 . S
C487 C486 1.387 . S
C487 C489 1.387 . S
H488 C495 0.950 . S
C489 C487 1.387 . S
C489 C491 1.390 . S
C489 H493 0.950 . S
H490 C486 0.950 . S
C491 C489 1.390 . S
C491 C492 1.387 . S
C491 H494 0.950 . S
C492 C491 1.387 . S
C492 C495 1.387 . S
H493 C489 0.950 . S
H494 C491 0.950 . S
C495 C486 1.390 . S
C495 H488 0.950 . S
C495 C492 1.387 . S
C496 C497 1.387 . S
C496 H500 0.950 . S
C496 C505 1.390 . S
C497 C496 1.387 . S
C497 C499 1.387 . S
H498 C505 0.950 . S
C499 C497 1.387 . S
C499 C501 1.390 . S
C499 H503 0.950 . S
H500 C496 0.950 . S
C501 C499 1.390 . S
C501 C502 1.387 . S
C501 H504 0.950 . S
C502 C501 1.387 . S
C502 C505 1.387 . S
H503 C499 0.950 . S
H504 C501 0.950 . S
C505 C496 1.390 . S
C505 H498 0.950 . S
C505 C502 1.387 . S
C506 C507 1.387 . S
C506 H510 0.950 . S
C506 C515 1.390 . S
C507 C506 1.387 . S
C507 C509 1.387 . S
H508 C515 0.950 . S
C509 C507 1.387 . S
C509 C511 1.390 . S
C509 H513 0.950 . S
H510 C506 0.950 . S
C511 C509 1.390 . S
C511 C512 1.387 . S
C511 H514 0.950 . S
C512 C511 1.387 . S
C512 C515 1.387 . S
H513 C509 0.950 . S
H514 C511 0.950 . S
C515 C506 1.390 . S
C515 H508 0.950 . S
C515 C512 1.387 . S
C516 C517 1.387 . S
C516 H520 0.950 . S
C516 C525 1.390 . S
C517 C516 1.387 . S
C517 C519 1.387 . S
H518 C525 0.950 . S
C519 C517 1.387 . S
C519 C521 1.390 . S
C519 H523 0.950 . S
H520 C516 0.950 . S
C521 C519 1.390 . S
C521 C522 1.387 . S
C521 H524 0.950 . S
C522 C521 1.387 . S
C522 C525 1.387 . S
H523 C519 0.950 . S
H524 C521 0.950 . S
C525 C516 1.390 . S
C525 H518 0.950 . S
C525 C522 1.387 . S
C526 C527 1.387 . S
C526 H530 0.950 . S
C526 C535 1.390 . S
C527 C526 1.387 . S
C527 C529 1.387 . S
H528 C535 0.950 . S
C529 C527 1.387 . S
C529 C531 1.390 . S
C529 H533 0.950 . S
H530 C526 0.950 . S
C531 C529 1.390 . S
C531 C532 1.387 . S
C531 H534 0.950 . S
C532 C531 1.387 . S
C532 C535 1.387 . S
H533 C529 0.950 . S
H534 C531 0.950 . S
C535 C526 1.390 . S
C535 H528 0.950 . S
C535 C532 1.387 . S
C536 C537 1.387 . S
C536 H540 0.950 . S
C536 C545 1.390 . S
C537 C536 1.387 . S
C537 C539 1.387 . S
H538 C545 0.950 . S
C539 C537 1.387 . S
C539 C541 1.390 . S
C539 H543 0.950 . S
H540 C536 0.950 . S
C541 C539 1.390 . S
C541 C542 1.387 . S
C541 H544 0.950 . S
C542 C541 1.387 . S
C542 C545 1.387 . S
H543 C539 0.950 . S
H544 C541 0.950 . S
C545 C536 1.390 . S
C545 H538 0.950 . S
C545 C542 1.387 . S
C546 C547 1.387 . S
C546 H550 0.950 . S
C546 C555 1.390 . S
C547 C546 1.387 . S
C547 C549 1.387 . S
H548 C555 0.950 . S
C549 C547 1.387 . S
C549 C551 1.390 . S
C549 H553 0.950 . S
H550 C546 0.950 . S
C551 C549 1.390 . S
C551 C552 1.387 . S
C551 H554 0.950 . S
C552 C551 1.387 . S
C552 C555 1.387 . S
H553 C549 0.950 . S
H554 C551 0.950 . S
C555 C546 1.390 . S
C555 H548 0.950 . S
C555 C552 1.387 . S
C556 C557 1.387 . S
C556 H560 0.950 . S
C556 C565 1.390 . S
C557 C556 1.387 . S
C557 C559 1.387 . S
H558 C565 0.950 . S
C559 C557 1.387 . S
C559 C561 1.390 . S
C559 H563 0.950 . S
H560 C556 0.950 . S
C561 C559 1.390 . S
C561 C562 1.387 . S
C561 H564 0.950 . S
C562 C561 1.387 . S
C562 C565 1.387 . S
H563 C559 0.950 . S
H564 C561 0.950 . S
C565 C556 1.390 . S
C565 H558 0.950 . S
C565 C562 1.387 . S
C566 C567 1.387 . S
C566 H570 0.950 . S
C566 C575 1.390 . S
C567 C566 1.387 . S
C567 C569 1.387 . S
H568 C575 0.950 . S
C569 C567 1.387 . S
C569 C571 1.390 . S
C569 H573 0.950 . S
H570 C566 0.950 . S
C571 C569 1.390 . S
C571 C572 1.387 . S
C571 H574 0.950 . S
C572 C571 1.387 . S
C572 C575 1.387 . S
H573 C569 0.950 . S
H574 C571 0.950 . S
C575 C566 1.390 . S
C575 H568 0.950 . S
C575 C572 1.387 . S
C576 C577 1.387 . S
C576 H580 0.950 . S
C576 C585 1.390 1_554 S
C577 C576 1.387 . S
C577 C579 1.387 . S
H578 C585 0.950 . S
C579 C577 1.387 . S
C579 C581 1.390 1_554 S
C579 H583 0.950 . S
H580 C576 0.950 . S
C581 C579 1.390 1_556 S
C581 C582 1.387 . S
C581 H584 0.950 . S
C582 C581 1.387 . S
C582 C585 1.387 . S
H583 C579 0.950 . S
H584 C581 0.950 . S
C585 C576 1.390 1_556 S
C585 H578 0.950 . S
C585 C582 1.387 . S
C586 C587 1.387 . S
C586 H590 0.950 . S
C586 C595 1.390 1_556 S
C587 C586 1.387 . S
C587 C589 1.387 . S
H588 C595 0.950 . S
C589 C587 1.387 . S
C589 C591 1.390 1_556 S
C589 H593 0.950 . S
H590 C586 0.950 . S
C591 C589 1.390 1_554 S
C591 C592 1.387 . S
C591 H594 0.950 . S
C592 C591 1.387 . S
C592 C595 1.387 . S
H593 C589 0.950 . S
H594 C591 0.950 . S
C595 C586 1.390 1_554 S
C595 H588 0.950 . S
C595 C592 1.387 . S
C596 C597 1.387 . S
C596 H600 0.950 . S
C596 C605 1.390 1_556 S
C597 C596 1.387 . S
C597 C599 1.387 . S
H598 C605 0.950 . S
C599 C597 1.387 . S
C599 C601 1.390 1_556 S
C599 H603 0.950 . S
H600 C596 0.950 . S
C601 C599 1.390 1_554 S
C601 C602 1.387 . S
C601 H604 0.950 . S
C602 C601 1.387 . S
C602 C605 1.387 . S
H603 C599 0.950 . S
H604 C601 0.950 . S
C605 C596 1.390 1_554 S
C605 H598 0.950 . S
C605 C602 1.387 . S
C606 C607 1.387 . S
C606 H610 0.950 . S
C606 C615 1.390 1_554 S
C607 C606 1.387 . S
C607 C609 1.387 . S
H608 C615 0.950 . S
C609 C607 1.387 . S
C609 C611 1.390 1_554 S
C609 H613 0.950 . S
H610 C606 0.950 . S
C611 C609 1.390 1_556 S
C611 C612 1.387 . S
C611 H614 0.950 . S
C612 C611 1.387 . S
C612 C615 1.387 . S
H613 C609 0.950 . S
H614 C611 0.950 . S
C615 C606 1.390 1_556 S
C615 H608 0.950 . S
C615 C612 1.387 . S
C616 C617 1.387 . S
C616 H620 0.950 . S
C616 C625 1.390 1_554 S
C617 C616 1.387 . S
C617 C619 1.387 . S
H618 C625 0.950 . S
C619 C617 1.387 . S
C619 C621 1.390 1_554 S
C619 H623 0.950 . S
H620 C616 0.950 . S
C621 C619 1.390 1_556 S
C621 C622 1.387 . S
C621 H624 0.950 . S
C622 C621 1.387 . S
C622 C625 1.387 . S
H623 C619 0.950 . S
H624 C621 0.950 . S
C625 C616 1.390 1_556 S
C625 H618 0.950 . S
C625 C622 1.387 . S
C626 C627 1.387 . S
C626 H630 0.950 . S
C626 C635 1.390 1_556 S
C627 C626 1.387 . S
C627 C629 1.387 . S
H628 C635 0.950 . S
C629 C627 1.387 . S
C629 C631 1.390 1_556 S
C629 H633 0.950 . S
H630 C626 0.950 . S
C631 C629 1.390 1_554 S
C631 C632 1.387 . S
C631 H634 0.950 . S
C632 C631 1.387 . S
C632 C635 1.387 . S
H633 C629 0.950 . S
H634 C631 0.950 . S
C635 C626 1.390 1_554 S
C635 H628 0.950 . S
C635 C632 1.387 . S
C636 C637 1.387 . S
C636 H640 0.950 . S
C636 C645 1.390 . S
C637 C636 1.387 . S
C637 C639 1.387 . S
H638 C645 0.950 . S
C639 C637 1.387 . S
C639 C641 1.390 . S
C639 H643 0.950 . S
H640 C636 0.950 . S
C641 C639 1.390 . S
C641 C642 1.387 . S
C641 H644 0.950 . S
C642 C641 1.387 . S
C642 C645 1.387 . S
H643 C639 0.950 . S
H644 C641 0.950 . S
C645 C636 1.390 . S
C645 H638 0.950 . S
C645 C642 1.387 . S
C646 C647 1.387 . S
C646 H650 0.950 . S
C646 C655 1.390 . S
C647 C646 1.387 . S
C647 C649 1.387 . S
H648 C655 0.950 . S
C649 C647 1.387 . S
C649 C651 1.390 . S
C649 H653 0.950 . S
H650 C646 0.950 . S
C651 C649 1.390 . S
C651 C652 1.387 . S
C651 H654 0.950 . S
C652 C651 1.387 . S
C652 C655 1.387 . S
H653 C649 0.950 . S
H654 C651 0.950 . S
C655 C646 1.390 . S
C655 H648 0.950 . S
C655 C652 1.387 . S
C656 C657 1.387 . S
C656 H660 0.950 . S
C656 C665 1.390 . S
C657 C656 1.387 . S
C657 C659 1.387 . S
H658 C665 0.950 . S
C659 C657 1.387 . S
C659 C661 1.390 . S
C659 H663 0.950 . S
H660 C656 0.950 . S
C661 C659 1.390 . S
C661 C662 1.387 . S
C661 H664 0.950 . S
C662 C661 1.387 . S
C662 C665 1.387 . S
H663 C659 0.950 . S
H664 C661 0.950 . S
C665 C656 1.390 . S
C665 H658 0.950 . S
C665 C662 1.387 . S
C666 C667 1.387 . S
C666 H670 0.950 . S
C666 C675 1.390 . S
C667 C666 1.387 . S
C667 C669 1.387 . S
H668 C675 0.950 . S
C669 C667 1.387 . S
C669 C671 1.390 . S
C669 H673 0.950 . S
H670 C666 0.950 . S
C671 C669 1.390 . S
C671 C672 1.387 . S
C671 H674 0.950 . S
C672 C671 1.387 . S
C672 C675 1.387 . S
H673 C669 0.950 . S
H674 C671 0.950 . S
C675 C666 1.390 . S
C675 H668 0.950 . S
C675 C672 1.387 . S
C676 C677 1.387 . S
C676 H680 0.950 . S
C676 C685 1.390 . S
C677 C676 1.387 . S
C677 C679 1.387 . S
H678 C685 0.950 . S
C679 C677 1.387 . S
C679 C681 1.390 . S
C679 H683 0.950 . S
H680 C676 0.950 . S
C681 C679 1.390 . S
C681 C682 1.387 . S
C681 H684 0.950 . S
C682 C681 1.387 . S
C682 C685 1.387 . S
H683 C679 0.950 . S
H684 C681 0.950 . S
C685 C676 1.390 . S
C685 H678 0.950 . S
C685 C682 1.387 . S
C686 C687 1.387 . S
C686 H690 0.950 . S
C686 C695 1.390 . S
C687 C686 1.387 . S
C687 C689 1.387 . S
H688 C695 0.950 . S
C689 C687 1.387 . S
C689 C691 1.390 . S
C689 H693 0.950 . S
H690 C686 0.950 . S
C691 C689 1.390 . S
C691 C692 1.387 . S
C691 H694 0.950 . S
C692 C691 1.387 . S
C692 C695 1.387 . S
H693 C689 0.950 . S
H694 C691 0.950 . S
C695 C686 1.390 . S
C695 H688 0.950 . S
C695 C692 1.387 . S
C696 C697 1.387 . S
C696 H700 0.950 . S
C696 C705 1.390 . S
C697 C696 1.387 . S
C697 C699 1.387 . S
H698 C705 0.950 . S
C699 C697 1.387 . S
C699 C701 1.390 . S
C699 H703 0.950 . S
H700 C696 0.950 . S
C701 C699 1.390 . S
C701 C702 1.387 . S
C701 H704 0.950 . S
C702 C701 1.387 . S
C702 C705 1.387 . S
H703 C699 0.950 . S
H704 C701 0.950 . S
C705 C696 1.390 . S
C705 H698 0.950 . S
C705 C702 1.387 . S
C706 C707 1.387 . S
C706 H710 0.950 . S
C706 C715 1.390 . S
C707 C706 1.387 . S
C707 C709 1.387 . S
H708 C715 0.950 . S
C709 C707 1.387 . S
C709 C711 1.390 . S
C709 H713 0.950 . S
H710 C706 0.950 . S
C711 C709 1.390 . S
C711 C712 1.387 . S
C711 H714 0.950 . S
C712 C711 1.387 . S
C712 C715 1.387 . S
H713 C709 0.950 . S
H714 C711 0.950 . S
C715 C706 1.390 . S
C715 H708 0.950 . S
C715 C712 1.387 . S
C716 C717 1.387 . S
C716 H720 0.950 . S
C716 C725 1.390 . S
C717 C716 1.387 . S
C717 C719 1.387 . S
H718 C725 0.950 . S
C719 C717 1.387 . S
C719 C721 1.390 . S
C719 H723 0.950 . S
H720 C716 0.950 . S
C721 C719 1.390 . S
C721 C722 1.387 . S
C721 H724 0.950 . S
C722 C721 1.387 . S
C722 C725 1.387 . S
H723 C719 0.950 . S
H724 C721 0.950 . S
C725 C716 1.390 . S
C725 H718 0.950 . S
C725 C722 1.387 . S
C726 C727 1.387 . S
C726 H730 0.950 . S
C726 C735 1.390 . S
C727 C726 1.387 . S
C727 C729 1.387 . S
H728 C735 0.950 . S
C729 C727 1.387 . S
C729 C731 1.390 . S
C729 H733 0.950 . S
H730 C726 0.950 . S
C731 C729 1.390 . S
C731 C732 1.387 . S
C731 H734 0.950 . S
C732 C731 1.387 . S
C732 C735 1.387 . S
H733 C729 0.950 . S
H734 C731 0.950 . S
C735 C726 1.390 . S
C735 H728 0.950 . S
C735 C732 1.387 . S
C736 C737 1.387 . S
C736 H740 0.950 . S
C736 C745 1.390 . S
C737 C736 1.387 . S
C737 C739 1.387 . S
H738 C745 0.950 . S
C739 C737 1.387 . S
C739 C741 1.390 . S
C739 H743 0.950 . S
H740 C736 0.950 . S
C741 C739 1.390 . S
C741 C742 1.387 . S
C741 H744 0.950 . S
C742 C741 1.387 . S
C742 C745 1.387 . S
H743 C739 0.950 . S
H744 C741 0.950 . S
C745 C736 1.390 . S
C745 H738 0.950 . S
C745 C742 1.387 . S
C746 C747 1.387 . S
C746 H750 0.950 . S
C746 C755 1.390 . S
C747 C746 1.387 . S
C747 C749 1.387 . S
H748 C755 0.950 . S
C749 C747 1.387 . S
C749 C751 1.390 . S
C749 H753 0.950 . S
H750 C746 0.950 . S
C751 C749 1.390 . S
C751 C752 1.387 . S
C751 H754 0.950 . S
C752 C751 1.387 . S
C752 C755 1.387 . S
H753 C749 0.950 . S
H754 C751 0.950 . S
C755 C746 1.390 . S
C755 H748 0.950 . S
C755 C752 1.387 . S
C756 C757 1.387 . S
C756 H760 0.950 . S
C756 C765 1.390 . S
C757 C756 1.387 . S
C757 C759 1.387 . S
H758 C765 0.950 . S
C759 C757 1.387 . S
C759 C761 1.390 . S
C759 H763 0.950 . S
H760 C756 0.950 . S
C761 C759 1.390 . S
C761 C762 1.387 . S
C761 H764 0.950 . S
C762 C761 1.387 . S
C762 C765 1.387 . S
H763 C759 0.950 . S
H764 C761 0.950 . S
C765 C756 1.390 . S
C765 H758 0.950 . S
C765 C762 1.387 . S
C766 C767 1.387 . S
C766 H770 0.950 . S
C766 C775 1.390 . S
C767 C766 1.387 . S
C767 C769 1.387 . S
H768 C775 0.950 . S
C769 C767 1.387 . S
C769 C771 1.390 . S
C769 H773 0.950 . S
H770 C766 0.950 . S
C771 C769 1.390 . S
C771 C772 1.387 . S
C771 H774 0.950 . S
C772 C771 1.387 . S
C772 C775 1.387 . S
H773 C769 0.950 . S
H774 C771 0.950 . S
C775 C766 1.390 . S
C775 H768 0.950 . S
C775 C772 1.387 . S
C776 C777 1.387 . S
C776 H780 0.950 . S
C776 C785 1.390 . S
C777 C776 1.387 . S
C777 C779 1.387 . S
H778 C785 0.950 . S
C779 C777 1.387 . S
C779 C781 1.390 . S
C779 H783 0.950 . S
H780 C776 0.950 . S
C781 C779 1.390 . S
C781 C782 1.387 . S
C781 H784 0.950 . S
C782 C781 1.387 . S
C782 C785 1.387 . S
H783 C779 0.950 . S
H784 C781 0.950 . S
C785 C776 1.390 . S
C785 H778 0.950 . S
C785 C782 1.387 . S
C786 C787 1.387 . S
C786 H790 0.950 . S
C786 C795 1.390 . S
C787 C786 1.387 . S
C787 C789 1.387 . S
H788 C795 0.950 . S
C789 C787 1.387 . S
C789 C791 1.390 . S
C789 H793 0.950 . S
H790 C786 0.950 . S
C791 C789 1.390 . S
C791 C792 1.387 . S
C791 H794 0.950 . S
C792 C791 1.387 . S
C792 C795 1.387 . S
H793 C789 0.950 . S
H794 C791 0.950 . S
C795 C786 1.390 . S
C795 H788 0.950 . S
C795 C792 1.387 . S
C796 C797 1.387 . S
C796 H800 0.950 . S
C796 C805 1.390 . S
C797 C796 1.387 . S
C797 C799 1.387 . S
H798 C805 0.950 . S
C799 C797 1.387 . S
C799 C801 1.390 . S
C799 H803 0.950 . S
H800 C796 0.950 . S
C801 C799 1.390 . S
C801 C802 1.387 . S
C801 H804 0.950 . S
C802 C801 1.387 . S
C802 C805 1.387 . S
H803 C799 0.950 . S
H804 C801 0.950 . S
C805 C796 1.390 . S
C805 H798 0.950 . S
C805 C802 1.387 . S
C806 C807 1.387 . S
C806 H810 0.950 . S
C806 C815 1.390 . S
C807 C806 1.387 . S
C807 C809 1.387 . S
H808 C815 0.950 . S
C809 C807 1.387 . S
C809 C811 1.390 . S
C809 H813 0.950 . S
H810 C806 0.950 . S
C811 C809 1.390 . S
C811 C812 1.387 . S
C811 H814 0.950 . S
C812 C811 1.387 . S
C812 C815 1.387 . S
H813 C809 0.950 . S
H814 C811 0.950 . S
C815 C806 1.390 . S
C815 H808 0.950 . S
C815 C812 1.387 . S
C337 C9 1.787 . S
C342 C107 1.787 . S
C347 C121 1.786 . S
C352 C23 1.786 . S
C357 C37 1.786 . S
C362 C135 1.787 . S
C367 C51 1.786 . S
C372 C149 1.786 . S
C377 C163 1.786 . S
C382 C65 1.786 . S
C387 C79 1.786 . S
C392 C93 1.787 . S
C397 C177 1.786 . S
C402 C275 1.786 . S
C407 C191 1.786 . S
C412 C289 1.787 . S
C417 C303 1.787 . S
C422 C205 1.787 . S
C427 C219 1.786 . S
C432 C317 1.786 . S
C437 C233 1.786 . S
C442 C331 1.787 . S
C447 C261 1.787 . S
C452 C247 1.787 . S
C457 C6 1.486 . S
C462 C118 1.485 . S
C467 C132 1.485 . S
C472 C20 1.485 . S
C477 C146 1.486 . S
C482 C34 1.485 . S
C487 C48 1.486 . S
C492 C160 1.485 . S
C497 C62 1.485 . S
C502 C90 1.485 . S
C507 C76 1.485 . S
C512 C104 1.485 . S
C517 C286 1.486 . S
C522 C174 1.487 . S
C527 C188 1.487 . S
C532 C300 1.487 . S
C537 C314 1.485 . S
C542 C202 1.486 . S
C547 C328 1.485 . S
C552 C216 1.486 . S
C557 C258 1.487 . S
C562 C230 1.487 . S
C567 C244 1.486 . S
C572 C272 1.485 . S
C577 C7 1.560 . S
C582 C217 1.560 . S
C587 C231 1.561 . S
C592 C21 1.559 . S
C597 C245 1.559 . S
C602 C35 1.561 . S
C607 C49 1.561 . S
C612 C175 1.558 . S
C617 C63 1.559 . S
C622 C189 1.561 . S
C627 C203 1.561 . S
C632 C77 1.559 . S
C637 C301 1.559 . S
C642 C91 1.561 . S
C647 C315 1.559 . S
C652 C105 1.561 . S
C657 C329 1.560 . S
C662 C119 1.560 . S
C667 C259 1.561 . S
C672 C133 1.559 . S
C677 C147 1.559 . S
C682 C273 1.561 . S
C687 C161 1.559 . S
C692 C287 1.561 . S
C697 C8 1.462 . S
C702 C148 1.462 . S
C707 C162 1.462 . S
C712 C22 1.462 . S
C717 C92 1.462 . S
C722 C36 1.462 . S
C727 C50 1.462 . S
C732 C106 1.462 . S
C737 C64 1.463 . S
C742 C120 1.463 . S
C747 C78 1.462 . S
C752 C134 1.462 . S
C757 C176 1.462 . S
C762 C316 1.462 . S
C767 C190 1.462 . S
C772 C330 1.462 . S
C777 C204 1.462 . S
C782 C260 1.462 . S
C787 C274 1.462 . S
C792 C218 1.462 . S
C797 C232 1.462 . S
C802 C288 1.462 . S
C807 C246 1.462 . S
C812 C302 1.462 . S
