# Generated by pormake.
# Topology soe, (5)-cn, num edge types: 1
# Building blocks:
#     Node 0, Type 0, BuildingBlock: BEQFEK_clean_sbu_0, # of connection points: 5
#     Node 1, Type 0, BuildingBlock: BEQFEK_clean_sbu_0, # of connection points: 5
#     Node 2, Type 0, BuildingBlock: BEQFEK_clean_sbu_0, # of connection points: 5
#     Node 3, Type 0, BuildingBlock: BEQFEK_clean_sbu_0, # of connection points: 5
#     Node 4, Type 0, BuildingBlock: BEQFEK_clean_sbu_0, # of connection points: 5
#     Node 5, Type 0, BuildingBlock: BEQFEK_clean_sbu_0, # of connection points: 5
#     Node 6, Type 0, BuildingBlock: BEQFEK_clean_sbu_0, # of connection points: 5
#     Node 7, Type 0, BuildingBlock: BEQFEK_clean_sbu_0, # of connection points: 5
#     Edge 8, Type (0, 0), BuildingBlock: TEMPAE_clean_linker_10, # of connection points: 2
#     Edge 9, Type (0, 0), BuildingBlock: TEMPAE_clean_linker_10, # of connection points: 2
#     Edge 10, Type (0, 0), BuildingBlock: TEMPAE_clean_linker_10, # of connection points: 2
#     Edge 11, Type (0, 0), BuildingBlock: TEMPAE_clean_linker_10, # of connection points: 2
#     Edge 12, Type (0, 0), BuildingBlock: TEMPAE_clean_linker_10, # of connection points: 2
#     Edge 13, Type (0, 0), BuildingBlock: TEMPAE_clean_linker_10, # of connection points: 2
#     Edge 14, Type (0, 0), BuildingBlock: TEMPAE_clean_linker_10, # of connection points: 2
#     Edge 15, Type (0, 0), BuildingBlock: TEMPAE_clean_linker_10, # of connection points: 2
#     Edge 16, Type (0, 0), BuildingBlock: TEMPAE_clean_linker_10, # of connection points: 2
#     Edge 17, Type (0, 0), BuildingBlock: TEMPAE_clean_linker_10, # of connection points: 2
#     Edge 18, Type (0, 0), BuildingBlock: TEMPAE_clean_linker_10, # of connection points: 2
#     Edge 19, Type (0, 0), BuildingBlock: TEMPAE_clean_linker_10, # of connection points: 2
#     Edge 20, Type (0, 0), BuildingBlock: TEMPAE_clean_linker_10, # of connection points: 2
#     Edge 21, Type (0, 0), BuildingBlock: TEMPAE_clean_linker_10, # of connection points: 2
#     Edge 22, Type (0, 0), BuildingBlock: TEMPAE_clean_linker_10, # of connection points: 2
#     Edge 23, Type (0, 0), BuildingBlock: TEMPAE_clean_linker_10, # of connection points: 2
#     Edge 24, Type (0, 0), BuildingBlock: TEMPAE_clean_linker_10, # of connection points: 2
#     Edge 25, Type (0, 0), BuildingBlock: TEMPAE_clean_linker_10, # of connection points: 2
#     Edge 26, Type (0, 0), BuildingBlock: TEMPAE_clean_linker_10, # of connection points: 2
#     Edge 27, Type (0, 0), BuildingBlock: TEMPAE_clean_linker_10, # of connection points: 2
# Relax obj value: 0.157
# Max RMSD: 0.230
# Mean RMSD: 0.172
data_MOF--net-soe--node1-BEQFEK_clean_sbu_0--edge1-TEMPAE_clean_linker_10
_symmetry_space_group_name_H-M    P1
_symmetry_Int_Tables_number       1
_symmetry_cell_setting            triclinic
loop_
_symmetry_equiv_pos_as_xyz
'x, y, z'
_cell_length_a     59.451405
_cell_length_b     39.880771
_cell_length_c     19.18862
_cell_angle_alpha  89.481668
_cell_angle_beta   90.568042
_cell_angle_gamma 92.968679
loop_
_atom_site_label
_atom_site_type_symbol
_atom_site_fract_x
_atom_site_fract_y
_atom_site_fract_z
_atom_type_partial_charge
Co0 Co 0.11916 0.99512 0.17318 0.0
Co1 Co 0.12108 0.02648 0.02383 0.0
C2 C 0.15828 0.98537 0.08547 0.0
O3 O 0.1473 0.97711 0.14007 0.0
O4 O 0.15021 0.00475 0.03951 0.0
C5 C 0.12817 0.97233 0.31021 0.0
O6 O 0.14885 0.97222 0.28676 0.0
C7 C 0.12094 0.01593 0.87421 0.0
C8 C 0.11448 0.06622 0.83164 0.0
C9 C 0.11771 0.03338 0.8123 0.0
N10 N 0.11928 0.03731 0.92739 0.0
N11 N 0.1155 0.06737 0.90172 0.0
C12 C 0.1263 0.97983 0.88327 0.0
H13 H 0.13447 0.97553 0.93436 0.0
H14 H 0.11048 0.96385 0.88154 0.0
H15 H 0.13741 0.972 0.84089 0.0
C16 C 0.07462 0.96926 0.12163 0.0
N17 N 0.09487 0.98519 0.1118 0.0
N18 N 0.09555 0.99843 0.04877 0.0
C19 C 0.07559 0.99151 0.01659 0.0
C20 C 0.06184 0.97257 0.06145 0.0
C21 C 0.06728 0.95311 0.18883 0.0
H22 H 0.08048 0.93663 0.20829 0.0
H23 H 0.05109 0.93822 0.18253 0.0
H24 H 0.06523 0.9729 0.22822 0.0
O25 O 0.1239 0.04427 0.18419 0.0
O26 O 0.12174 0.06805 0.07931 0.0
H27 H 0.0749 0.03302 0.94475 0.0
H28 H 0.05004 0.00505 0.94167 0.0
C29 C 0.06863 0.00641 0.94828 0.0
H30 H 0.07594 0.99236 0.90521 0.0
H31 H 0.11346 0.08857 0.93202 0.0
O32 O 0.11231 0.97888 0.26823 0.0
C33 C 0.12395 0.07026 0.14522 0.0
Co34 Co 0.36005 0.91152 0.17736 0.0
Co35 Co 0.3583 0.88807 0.02362 0.0
C36 C 0.32018 0.92318 0.08788 0.0
O37 O 0.33072 0.92752 0.1454 0.0
O38 O 0.32888 0.908 0.03761 0.0
C39 C 0.36265 0.94991 0.31002 0.0
O40 O 0.35875 0.97833 0.27814 0.0
C41 C 0.35609 0.90217 0.87578 0.0
C42 C 0.37287 0.85938 0.83039 0.0
C43 C 0.36359 0.88964 0.81368 0.0
N44 N 0.36099 0.88055 0.92702 0.0
N45 N 0.37064 0.8547 0.89959 0.0
C46 C 0.34729 0.9361 0.88813 0.0
H47 H 0.35185 0.94478 0.94146 0.0
H48 H 0.35405 0.95468 0.84927 0.0
H49 H 0.32865 0.93435 0.88332 0.0
C50 C 0.40447 0.9413 0.13394 0.0
N51 N 0.38408 0.9264 0.11993 0.0
N52 N 0.38332 0.91662 0.05458 0.0
C53 C 0.40318 0.92551 0.02457 0.0
C54 C 0.4173 0.9411 0.0739 0.0
C55 C 0.41235 0.95105 0.2056 0.0
H56 H 0.40808 0.93026 0.24274 0.0
H57 H 0.4034 0.9733 0.22221 0.0
H58 H 0.43077 0.95707 0.20763 0.0
O59 O 0.35922 0.86222 0.18142 0.0
O60 O 0.35818 0.84396 0.07251 0.0
H61 H 0.40856 0.89061 0.94308 0.0
H62 H 0.42575 0.92922 0.93605 0.0
C63 C 0.40895 0.91815 0.95065 0.0
H64 H 0.39639 0.929 0.91533 0.0
H65 H 0.37661 0.83467 0.92849 0.0
O66 O 0.36442 0.92327 0.27534 0.0
C67 C 0.35867 0.83838 0.1379 0.0
Co68 Co 0.14208 0.37146 0.31866 0.0
Co69 Co 0.14312 0.34829 0.47359 0.0
C70 C 0.18185 0.38809 0.40595 0.0
O71 O 0.17177 0.39004 0.34751 0.0
O72 O 0.17285 0.37284 0.45803 0.0
C73 C 0.14304 0.40844 0.18533 0.0
O74 O 0.15237 0.43492 0.21651 0.0
C75 C 0.14486 0.36422 0.62004 0.0
C76 C 0.13013 0.318 0.66958 0.0
C77 C 0.13827 0.35046 0.6834 0.0
N78 N 0.14063 0.34108 0.5707 0.0
N79 N 0.13215 0.3133 0.60057 0.0
C80 C 0.15283 0.39976 0.60519 0.0
H81 H 0.14816 0.40705 0.55121 0.0
H82 H 0.14562 0.41714 0.64284 0.0
H83 H 0.17146 0.40192 0.61023 0.0
C84 C 0.10064 0.40324 0.36672 0.0
N85 N 0.11899 0.38533 0.37757 0.0
N86 N 0.11894 0.37402 0.44218 0.0
C87 C 0.10023 0.38348 0.47395 0.0
C88 C 0.08816 0.40278 0.4277 0.0
C89 C 0.09555 0.42073 0.29958 0.0
H90 H 0.08969 0.40182 0.26046 0.0
H91 H 0.1111 0.43382 0.27966 0.0
H92 H 0.08247 0.43928 0.30611 0.0
O93 O 0.14263 0.32207 0.31747 0.0
O94 O 0.14149 0.30413 0.42724 0.0
H95 H 0.07416 0.37226 0.55019 0.0
H96 H 0.10125 0.38615 0.58524 0.0
C97 C 0.09262 0.37084 0.54407 0.0
H98 H 0.09683 0.34431 0.551 0.0
H99 H 0.12693 0.29163 0.57352 0.0
O100 O 0.13697 0.38248 0.22041 0.0
C101 C 0.14196 0.29839 0.36223 0.0
Co102 Co 0.37247 0.53312 0.30635 0.0
Co103 Co 0.36746 0.55791 0.45931 0.0
C104 C 0.33294 0.51103 0.39303 0.0
O105 O 0.34333 0.51132 0.33543 0.0
O106 O 0.34054 0.52746 0.44536 0.0
C107 C 0.36605 0.5018 0.17334 0.0
O108 O 0.3468 0.49036 0.19959 0.0
C109 C 0.36413 0.54848 0.60901 0.0
C110 C 0.37698 0.59753 0.6499 0.0
C111 C 0.36946 0.56547 0.6701 0.0
N112 N 0.36883 0.56927 0.55512 0.0
N113 N 0.37623 0.5987 0.57974 0.0
C114 C 0.35402 0.5135 0.60093 0.0
H115 H 0.33685 0.51486 0.57829 0.0
H116 H 0.36414 0.49947 0.56387 0.0
H117 H 0.35254 0.49974 0.65118 0.0
C118 C 0.41582 0.51151 0.36317 0.0
N119 N 0.39577 0.52516 0.37069 0.0
N120 N 0.39408 0.53622 0.43474 0.0
C121 C 0.41312 0.52988 0.47022 0.0
C122 C 0.42752 0.51409 0.426 0.0
C123 C 0.42406 0.49868 0.29547 0.0
H124 H 0.42301 0.51859 0.25497 0.0
H125 H 0.41293 0.477 0.27866 0.0
H126 H 0.4417 0.491 0.29944 0.0
O127 O 0.36957 0.58169 0.2964 0.0
O128 O 0.36446 0.6 0.4038 0.0
H129 H 0.41522 0.56495 0.55416 0.0
H130 H 0.43402 0.53099 0.56403 0.0
C131 C 0.41713 0.5378 0.54562 0.0
H132 H 0.40447 0.52341 0.57735 0.0
H133 H 0.38131 0.61926 0.54865 0.0
O134 O 0.37998 0.51841 0.21193 0.0
C135 C 0.36619 0.6053 0.33844 0.0
Co136 Co 0.85794 0.86608 -0.00102 0.0
Co137 Co 0.86527 0.89102 0.84459 0.0
C138 C 0.82739 0.9143 0.93049 0.0
O139 O 0.83344 0.8968 0.98243 0.0
O140 O 0.83828 0.91471 0.87364 0.0
C141 C 0.83608 0.84843 0.12803 0.0
O142 O 0.818 0.85781 0.09489 0.0
C143 C 0.85381 0.89199 0.69557 0.0
C144 C 0.8866 0.90692 0.64834 0.0
C145 C 0.86456 0.89673 0.63203 0.0
N146 N 0.86898 0.89831 0.74685 0.0
N147 N 0.88845 0.90773 0.71827 0.0
C148 C 0.82942 0.88285 0.7082 0.0
H149 H 0.82232 0.90235 0.74115 0.0
H150 H 0.82769 0.85886 0.73777 0.0
H151 H 0.81958 0.88087 0.65888 0.0
C152 C 0.85612 0.79976 0.93024 0.0
N153 N 0.85775 0.83355 0.92824 0.0
N154 N 0.86162 0.84381 0.8637 0.0
C155 C 0.863 0.81662 0.82295 0.0
C156 C 0.85917 0.78808 0.86346 0.0
C157 C 0.85243 0.77938 0.99525 0.0
H158 H 0.86714 0.78371 0.03071 0.0
H159 H 0.83739 0.78788 0.02248 0.0
H160 H 0.85015 0.75218 0.98373 0.0
O161 O 0.88772 0.89038 0.00026 0.0
O162 O 0.89296 0.90948 0.89232 0.0
H163 H 0.88338 0.83795 0.74016 0.0
H164 H 0.8778 0.79325 0.73431 0.0
C165 C 0.87052 0.81729 0.74862 0.0
H166 H 0.85588 0.8209 0.71376 0.0
H167 H 0.90321 0.91361 0.7465 0.0
O168 O 0.85438 0.84695 0.09464 0.0
C169 C 0.89973 0.90632 0.95512 0.0
Co170 Co 0.6344 0.02667 0.85232 0.0
Co171 Co 0.64045 0.05594 0.0025 0.0
C172 C 0.67573 0.01546 0.93283 0.0
O173 O 0.66342 0.00922 0.87956 0.0
O174 O 0.6691 0.0337 0.98201 0.0
C175 C 0.63885 0.99563 0.71902 0.0
O176 O 0.65747 0.98469 0.74636 0.0
C177 C 0.64168 0.04301 0.15185 0.0
C178 C 0.63907 0.09352 0.19638 0.0
C179 C 0.64024 0.05989 0.21445 0.0
N180 N 0.64094 0.06551 0.09947 0.0
N181 N 0.63953 0.09571 0.12632 0.0
C182 C 0.64452 0.0063 0.1413 0.0
H183 H 0.65252 0.00198 0.09047 0.0
H184 H 0.62777 0.99271 0.14097 0.0
H185 H 0.65481 0.99589 0.18411 0.0
C186 C 0.59194 0.99831 0.91338 0.0
N187 N 0.61214 0.01497 0.91889 0.0
N188 N 0.61414 0.02858 0.98098 0.0
C189 C 0.59483 0.02216 0.01607 0.0
C190 C 0.58023 0.00231 0.9749 0.0
C191 C 0.58399 0.9798 0.84955 0.0
H192 H 0.57741 0.99794 0.81123 0.0
H193 H 0.59829 0.96758 0.82535 0.0
H194 H 0.57046 0.96055 0.86216 0.0
O195 O 0.6377 0.07625 0.84245 0.0
O196 O 0.63932 0.09816 0.94867 0.0
H197 H 0.59751 0.06478 0.08418 0.0
H198 H 0.57047 0.04237 0.08519 0.0
C199 C 0.5889 0.03952 0.08189 0.0
H200 H 0.59418 0.02449 0.1275 0.0
H201 H 0.63857 0.11771 0.09685 0.0
O202 O 0.62575 0.01152 0.75721 0.0
C203 C 0.63883 0.10151 0.88266 0.0
Co204 Co 0.87755 0.49056 0.65932 0.0
Co205 Co 0.87463 0.52247 0.50983 0.0
C206 C 0.83794 0.47543 0.56931 0.0
O207 O 0.84905 0.46896 0.62438 0.0
O208 O 0.84588 0.49598 0.52359 0.0
C209 C 0.86747 0.46953 0.7956 0.0
O210 O 0.84695 0.4703 0.76981 0.0
C211 C 0.87004 0.51591 0.35922 0.0
C212 C 0.88598 0.56361 0.32002 0.0
C213 C 0.87647 0.53289 0.29862 0.0
N214 N 0.8761 0.53528 0.41391 0.0
N215 N 0.88529 0.56398 0.39019 0.0
C216 C 0.85803 0.48209 0.36606 0.0
H217 H 0.86828 0.46541 0.39866 0.0
H218 H 0.85419 0.47036 0.31493 0.0
H219 H 0.84186 0.48486 0.39311 0.0
C220 C 0.92174 0.47146 0.60626 0.0
N221 N 0.90158 0.48493 0.59764 0.0
N222 N 0.90009 0.49742 0.53415 0.0
C223 C 0.91919 0.49176 0.4998 0.0
C224 C 0.93364 0.47542 0.54447 0.0
C225 C 0.92996 0.45789 0.67434 0.0
H226 H 0.92651 0.47567 0.71658 0.0
H227 H 0.92054 0.43379 0.68608 0.0
H228 H 0.94826 0.45381 0.67363 0.0
O229 O 0.87322 0.53865 0.67204 0.0
O230 O 0.87411 0.56345 0.568 0.0
H231 H 0.92353 0.52854 0.41845 0.0
H232 H 0.93909 0.49135 0.4052 0.0
C233 C 0.92319 0.50087 0.42487 0.0
H234 H 0.90929 0.48966 0.39263 0.0
H235 H 0.89175 0.58336 0.42193 0.0
O236 O 0.88407 0.47462 0.75492 0.0
C237 C 0.87264 0.5649 0.63411 0.0
Co238 Co 0.63309 0.40204 0.66903 0.0
Co239 Co 0.63174 0.36906 0.52188 0.0
C240 C 0.6728 0.40877 0.58121 0.0
O241 O 0.66281 0.41815 0.63544 0.0
O242 O 0.66279 0.38955 0.53676 0.0
C243 C 0.64374 0.42443 0.80598 0.0
O244 O 0.66445 0.42414 0.78287 0.0
C245 C 0.63232 0.38007 0.372 0.0
C246 C 0.62263 0.3299 0.33024 0.0
C247 C 0.62808 0.36284 0.31029 0.0
N248 N 0.62916 0.35846 0.42556 0.0
N249 N 0.62342 0.32847 0.40037 0.0
C250 C 0.6401 0.41614 0.38059 0.0
H251 H 0.64825 0.42029 0.4321 0.0
H252 H 0.6254 0.43211 0.37758 0.0
H253 H 0.65201 0.4241 0.33868 0.0
C254 C 0.59258 0.4333 0.61204 0.0
N255 N 0.61013 0.41353 0.6061 0.0
N256 N 0.609 0.39855 0.54533 0.0
C257 C 0.59023 0.40743 0.51146 0.0
C258 C 0.57937 0.43017 0.55206 0.0
C259 C 0.58881 0.45481 0.67386 0.0
H260 H 0.6052 0.46489 0.69502 0.0
H261 H 0.5781 0.4759 0.65996 0.0
H262 H 0.58034 0.43925 0.7151 0.0
O263 O 0.6334 0.35265 0.68189 0.0
O264 O 0.62868 0.32783 0.57915 0.0
H265 H 0.58608 0.36473 0.44401 0.0
H266 H 0.56258 0.3915 0.44343 0.0
C267 C 0.58122 0.39114 0.44613 0.0
H268 H 0.58819 0.40498 0.40018 0.0
H269 H 0.61996 0.30711 0.43101 0.0
O270 O 0.62745 0.41839 0.76383 0.0
C271 C 0.63101 0.32628 0.64508 0.0
C272 C 0.28863 0.95749 0.12675 0.0
C273 C 0.29683 0.93398 0.0808 0.0
C274 C 0.26609 0.96623 0.12335 0.0
C275 C 0.25131 0.95057 0.07373 0.0
C276 C 0.25956 0.9272 0.02652 0.0
C277 C 0.28229 0.91943 0.03016 0.0
C278 C 0.258 0.99183 0.17359 0.0
C279 C 0.24423 0.90961 0.97363 0.0
C280 C 0.18928 0.9482 0.1193 0.0
C281 C 0.18153 0.97444 0.07789 0.0
C282 C 0.21183 0.93952 0.11683 0.0
C283 C 0.22706 0.95791 0.07286 0.0
C284 C 0.21925 0.98397 0.0299 0.0
C285 C 0.19652 0.99172 0.03246 0.0
C286 C 0.21945 0.9111 0.16238 0.0
C287 C 0.23506 0.00444 0.98307 0.0
H288 H 0.29983 0.96898 0.16567 0.0
H289 H 0.28848 0.90109 0.99471 0.0
H290 H 0.24985 0.0122 0.1446 0.0
H291 H 0.24514 0.97982 0.20859 0.0
H292 H 0.27191 0.00314 0.20613 0.0
H293 H 0.25344 0.89284 0.93927 0.0
H294 H 0.23082 0.89437 0.0009 0.0
H295 H 0.2358 0.92828 0.94066 0.0
H296 H 0.17777 0.93463 0.15423 0.0
H297 H 0.19069 0.01217 0.00059 0.0
H298 H 0.23188 0.92096 0.20157 0.0
H299 H 0.22796 0.89257 0.13042 0.0
H300 H 0.20523 0.89794 0.19025 0.0
H301 H 0.24814 0.01805 0.01516 0.0
H302 H 0.22616 0.02304 0.95103 0.0
H303 H 0.24388 0.98774 0.94771 0.0
C304 C 0.22195 0.39177 0.37237 0.0
C305 C 0.20461 0.4036 0.41259 0.0
C306 C 0.2435 0.40775 0.37389 0.0
C307 C 0.2474 0.43701 0.41445 0.0
C308 C 0.22988 0.44878 0.45585 0.0
C309 C 0.2087 0.4315 0.45529 0.0
C310 C 0.26193 0.39378 0.33089 0.0
C311 C 0.23319 0.48047 0.49802 0.0
C312 C 0.30736 0.4693 0.45381 0.0
C313 C 0.31123 0.49204 0.39874 0.0
C314 C 0.28672 0.45078 0.45922 0.0
C315 C 0.26936 0.45636 0.41002 0.0
C316 C 0.27311 0.48002 0.3553 0.0
C317 C 0.29423 0.49707 0.34947 0.0
C318 C 0.28364 0.42481 0.51654 0.0
C319 C 0.25478 0.48751 0.30324 0.0
H320 H 0.21859 0.37005 0.33954 0.0
H321 H 0.19506 0.44061 0.4858 0.0
H322 H 0.26641 0.41135 0.28749 0.0
H323 H 0.27733 0.39116 0.36324 0.0
H324 H 0.25681 0.36893 0.30845 0.0
H325 H 0.21813 0.48552 0.52931 0.0
H326 H 0.24787 0.47879 0.53371 0.0
H327 H 0.23682 0.50216 0.46251 0.0
H328 H 0.3207 0.46543 0.49156 0.0
H329 H 0.29731 0.51499 0.30735 0.0
H330 H 0.27957 0.39978 0.49348 0.0
H331 H 0.26929 0.43077 0.54991 0.0
H332 H 0.29893 0.42324 0.54993 0.0
H333 H 0.2502 0.46481 0.27222 0.0
H334 H 0.25997 0.50826 0.26685 0.0
H335 H 0.23941 0.49446 0.33091 0.0
C336 C 0.71561 0.01771 0.97637 0.0
C337 C 0.69838 0.00186 0.93631 0.0
C338 C 0.73746 0.00586 0.97695 0.0
C339 C 0.74196 0.97706 0.93785 0.0
C340 C 0.72452 0.96068 0.89822 0.0
C341 C 0.70301 0.9735 0.89735 0.0
C342 C 0.75576 0.02432 0.01874 0.0
C343 C 0.72852 0.92946 0.85708 0.0
C344 C 0.80115 0.95688 0.88511 0.0
C345 C 0.80642 0.93263 0.93524 0.0
C346 C 0.78058 0.97264 0.88699 0.0
C347 C 0.76475 0.96339 0.93935 0.0
C348 C 0.77017 0.93946 0.99086 0.0
C349 C 0.791 0.92462 0.98854 0.0
C350 C 0.77554 0.99858 0.832 0.0
C351 C 0.75361 0.92848 0.04684 0.0
H352 H 0.71216 0.03984 0.00603 0.0
H353 H 0.68971 0.96106 0.86658 0.0
H354 H 0.76256 0.00737 0.05902 0.0
H355 H 0.76993 0.03236 0.98417 0.0
H356 H 0.74964 0.04681 0.04486 0.0
H357 H 0.71305 0.91944 0.82989 0.0
H358 H 0.74176 0.93497 0.81769 0.0
H359 H 0.73465 0.90963 0.89233 0.0
H360 H 0.81303 0.96336 0.84403 0.0
H361 H 0.79485 0.90584 0.02735 0.0
H362 H 0.77009 0.0218 0.8568 0.0
H363 H 0.76148 0.98894 0.7981 0.0
H364 H 0.79035 0.0051 0.79874 0.0
H365 H 0.74812 0.95056 0.07562 0.0
H366 H 0.76081 0.91065 0.08479 0.0
H367 H 0.73837 0.91613 0.02249 0.0
C368 C 0.8001 0.47521 0.51141 0.0
C369 C 0.81446 0.4616 0.56154 0.0
C370 C 0.77707 0.46576 0.50935 0.0
C371 C 0.76824 0.4418 0.55797 0.0
C372 C 0.78283 0.42666 0.6063 0.0
C373 C 0.80576 0.4369 0.6078 0.0
C374 C 0.762 0.48264 0.4574 0.0
C375 C 0.77406 0.40057 0.65818 0.0
C376 C 0.70716 0.44466 0.61143 0.0
C377 C 0.69691 0.41864 0.57182 0.0
C378 C 0.7303 0.45283 0.60634 0.0
C379 C 0.74356 0.4342 0.56134 0.0
C380 C 0.7333 0.40818 0.52058 0.0
C381 C 0.71004 0.40088 0.52588 0.0
C382 C 0.74062 0.48115 0.64979 0.0
C383 C 0.74697 0.38753 0.47271 0.0
H384 H 0.80664 0.49438 0.4755 0.0
H385 H 0.81676 0.4261 0.6464 0.0
H386 H 0.75169 0.46361 0.42768 0.0
H387 H 0.75019 0.49827 0.4855 0.0
H388 H 0.77172 0.49896 0.41995 0.0
H389 H 0.78786 0.3891 0.68799 0.0
H390 H 0.76279 0.41228 0.69561 0.0
H391 H 0.76396 0.38037 0.63111 0.0
H392 H 0.6971 0.45858 0.64678 0.0
H393 H 0.70226 0.38058 0.49543 0.0
H394 H 0.74963 0.49995 0.61578 0.0
H395 H 0.75319 0.47131 0.68674 0.0
H396 H 0.72782 0.49402 0.68006 0.0
H397 H 0.75628 0.4041 0.43492 0.0
H398 H 0.73634 0.36868 0.44331 0.0
H399 H 0.75968 0.3742 0.50356 0.0
C400 C 0.93439 0.94351 0.93496 0.0
C401 C 0.92274 0.91884 0.97503 0.0
C402 C 0.95677 0.95376 0.95121 0.0
C403 C 0.96788 0.93835 0.00775 0.0
C404 C 0.95612 0.91371 0.04881 0.0
C405 C 0.93362 0.90454 0.03243 0.0
C406 C 0.96865 0.98069 0.90726 0.0
C407 C 0.96752 0.89619 0.10858 0.0
C408 C 0.03166 0.93817 0.00158 0.0
C409 C 0.03789 0.96278 0.05045 0.0
C410 C 0.00888 0.92968 0.98777 0.0
C411 C 0.99208 0.94697 0.02242 0.0
C412 C 0.99841 0.97212 0.07153 0.0
C413 C 0.02134 0.97949 0.08554 0.0
C414 C 0.0028 0.9022 0.93625 0.0
C415 C 0.981 0.99157 0.10833 0.0
H416 H 0.92603 0.95473 0.89073 0.0
H417 H 0.9248 0.88522 0.06328 0.0
H418 H 0.97596 0.001 0.941 0.0
H419 H 0.98279 0.96997 0.87916 0.0
H420 H 0.95718 0.99182 0.86837 0.0
H421 H 0.95586 0.87806 0.13629 0.0
H422 H 0.98187 0.88245 0.08874 0.0
H423 H 0.97448 0.91485 0.14661 0.0
H424 H 0.04466 0.92556 0.97436 0.0
H425 H 0.0264 0.99886 0.12265 0.0
H426 H 0.99315 0.91247 0.8919 0.0
H427 H 0.99183 0.88235 0.96144 0.0
H428 H 0.0179 0.89053 0.9155 0.0
H429 H 0.97038 0.0043 0.06942 0.0
H430 H 0.98876 0.01076 0.14402 0.0
H431 H 0.96969 0.97419 0.13895 0.0
C432 C 0.45078 0.98147 0.08228 0.0
C433 C 0.4417 0.94929 0.067 0.0
C434 C 0.47369 0.98996 0.07084 0.0
C435 C 0.48762 0.96567 0.04304 0.0
C436 C 0.47858 0.93283 0.02962 0.0
C437 C 0.45575 0.92496 0.04246 0.0
C438 C 0.48285 0.02508 0.08684 0.0
C439 C 0.49283 0.90628 -0.00026 0.0
C440 C 0.53938 0.99653 0.94228 0.0
C441 C 0.55662 0.99164 0.99097 0.0
C442 C 0.51683 0.98803 0.95851 0.0
C443 C 0.51144 0.97486 0.02543 0.0
C444 C 0.52881 0.96992 0.07483 0.0
C445 C 0.55123 0.97814 0.05675 0.0
C446 C 0.49877 0.99331 0.90419 0.0
C447 C 0.5237 0.95618 0.14686 0.0
H448 H 0.43984 0.00016 0.1016 0.0
H449 H 0.44872 0.89987 0.03193 0.0
H450 H 0.49791 0.02416 0.12129 0.0
H451 H 0.48825 0.038 0.0379 0.0
H452 H 0.4702 0.04026 0.11246 0.0
H453 H 0.48334 0.8817 0.99412 0.0
H454 H 0.4991 0.91451 0.94772 0.0
H455 H 0.50778 0.90277 0.03355 0.0
H456 H 0.54345 0.00765 0.89196 0.0
H457 H 0.56461 0.97422 0.0943 0.0
H458 H 0.4867 0.01126 0.92368 0.0
H459 H 0.48912 0.96927 0.89399 0.0
H460 H 0.50584 0.00315 0.8542 0.0
H461 H 0.51187 0.97237 0.17341 0.0
H462 H 0.53912 0.95459 0.17967 0.0
H463 H 0.51532 0.93075 0.1431 0.0
C464 C 0.06311 0.43424 0.50386 0.0
C465 C 0.06632 0.41757 0.44106 0.0
C466 C 0.04184 0.44473 0.52206 0.0
C467 C 0.02352 0.4393 0.47522 0.0
C468 C 0.02692 0.42395 0.41013 0.0
C469 C 0.04827 0.41285 0.39416 0.0
C470 C 0.03882 0.46051 0.59239 0.0
C471 C 0.00787 0.41848 0.35817 0.0
C472 C 0.96384 0.43415 0.54459 0.0
C473 C 0.95698 0.46654 0.53023 0.0
C474 C 0.98565 0.4251 0.52811 0.0
C475 C 0.00066 0.44887 0.49516 0.0
C476 C 0.99384 0.48174 0.48124 0.0
C477 C 0.97218 0.49033 0.5001 0.0
C478 C 0.99255 0.39006 0.54536 0.0
C479 C 0.00923 0.50761 0.44527 0.0
H480 H 0.07717 0.43822 0.53975 0.0
H481 H 0.05067 0.39959 0.34597 0.0
H482 H 0.03181 0.4856 0.58603 0.0
H483 H 0.02658 0.4448 0.62343 0.0
H484 H 0.05489 0.46334 0.62232 0.0
H485 H 0.01371 0.40863 0.30786 0.0
H486 H 0.99493 0.40037 0.37987 0.0
H487 H -0.00039 0.44239 0.34803 0.0
H488 H 0.95203 0.41576 0.56779 0.0
H489 H 0.96696 0.5156 0.49026 0.0
H490 H 0.00821 0.39122 0.57741 0.0
H491 H 0.99624 0.37666 0.49671 0.0
H492 H 0.97928 0.37517 0.57416 0.0
H493 H 0.0249 0.51218 0.47635 0.0
H494 H 0.00119 0.5319 0.4373 0.0
H495 H 0.0142 0.49811 0.39377 0.0
C496 C 0.45561 0.46991 0.4321 0.0
C497 C 0.45038 0.5033 0.44207 0.0
C498 C 0.477 0.45901 0.44983 0.0
C499 C 0.49339 0.48212 0.47849 0.0
C500 C 0.48822 0.51603 0.48777 0.0
C501 C 0.46676 0.52626 0.46897 0.0
C502 C 0.48198 0.42272 0.4386 0.0
C503 C 0.50524 0.54136 0.51827 0.0
C504 C 0.54053 0.44514 0.58424 0.0
C505 C 0.55791 0.44573 0.53552 0.0
C506 C 0.51954 0.45765 0.56688 0.0
C507 C 0.51591 0.4707 0.49903 0.0
C508 C 0.5336 0.47195 0.45015 0.0
C509 C 0.55445 0.45957 0.46917 0.0
C510 C 0.5011 0.45614 0.62052 0.0
C511 C 0.53036 0.48562 0.37729 0.0
H512 H 0.44283 0.45223 0.41139 0.0
H513 H 0.46268 0.55221 0.47579 0.0
H514 H 0.49692 0.42115 0.40482 0.0
H515 H 0.48606 0.41069 0.4892 0.0
H516 H 0.46757 0.4082 0.41415 0.0
H517 H 0.49855 0.56678 0.52178 0.0
H518 H 0.51034 0.53315 0.57125 0.0
H519 H 0.52063 0.543 0.48595 0.0
H520 H 0.54311 0.43402 0.63524 0.0
H521 H 0.56802 0.46032 0.43179 0.0
H522 H 0.48688 0.43921 0.60231 0.0
H523 H 0.49446 0.48138 0.6273 0.0
H524 H 0.50701 0.4469 0.67197 0.0
H525 H 0.51698 0.4703 0.34983 0.0
H526 H 0.54602 0.4856 0.34618 0.0
H527 H 0.52474 0.51168 0.37942 0.0
C528 C 0.12638 0.04187 0.68654 0.0
C529 C 0.1179 0.02083 0.74 0.0
C530 C 0.12695 0.03063 0.61763 0.0
C531 C 0.11888 0.99749 0.60193 0.0
C532 C 0.10999 0.97628 0.65544 0.0
C533 C 0.10931 0.98839 0.72374 0.0
C534 C 0.13626 0.05419 0.56165 0.0
C535 C 0.1012 0.94083 0.64055 0.0
C536 C 0.10393 0.98379 0.41183 0.0
C537 C 0.12418 0.97245 0.38609 0.0
C538 C 0.10154 0.99057 0.48284 0.0
C539 C 0.11972 0.98538 0.52917 0.0
C540 C 0.13952 0.97149 0.50438 0.0
C541 C 0.14157 0.96535 0.43294 0.0
C542 C 0.08019 0.00549 0.50727 0.0
C543 C 0.15907 0.96497 0.55261 0.0
H544 H 0.13283 0.06708 0.69876 0.0
H545 H 0.1017 0.97254 0.76395 0.0
H546 H 0.15108 0.04344 0.53722 0.0
H547 H 0.12342 0.05726 0.52001 0.0
H548 H 0.14144 0.07938 0.58234 0.0
H549 H 0.09544 0.92723 0.68844 0.0
H550 H 0.08691 0.94118 0.60298 0.0
H551 H 0.11455 0.9266 0.61608 0.0
H552 H 0.09037 0.98926 0.376 0.0
H553 H 0.15717 0.95626 0.41347 0.0
H554 H 0.08384 0.03216 0.52138 0.0
H555 H 0.07372 0.99222 0.55458 0.0
H556 H 0.06676 0.00442 0.46654 0.0
H557 H 0.16702 0.98924 0.57032 0.0
H558 H 0.17209 0.95053 0.52686 0.0
H559 H 0.15311 0.95092 0.59967 0.0
C560 C 0.35688 0.91553 0.41683 0.0
C561 C 0.36251 0.94696 0.38664 0.0
C562 C 0.35688 0.91099 0.48896 0.0
C563 C 0.363 0.93847 0.53238 0.0
C564 C 0.36843 0.97049 0.50261 0.0
C565 C 0.36792 0.97447 0.42965 0.0
C566 C 0.35063 0.8765 0.51854 0.0
C567 C 0.37528 0.00018 0.54764 0.0
C568 C 0.34512 0.92117 0.71802 0.0
C569 C 0.36418 0.90619 0.74485 0.0
C570 C 0.34501 0.93435 0.65003 0.0
C571 C 0.36448 0.93258 0.60859 0.0
C572 C 0.38422 0.91938 0.63729 0.0
C573 C 0.38374 0.90594 0.70494 0.0
C574 C 0.32354 0.94778 0.62094 0.0
C575 C 0.4054 0.91742 0.59503 0.0
H576 H 0.35232 0.89425 0.38388 0.0
H577 H 0.37226 0.99877 0.40631 0.0
H578 H 0.3653 0.86658 0.54664 0.0
H579 H 0.33682 0.878 0.55667 0.0
H580 H 0.34514 0.85828 0.47754 0.0
H581 H 0.37763 0.02378 0.51678 0.0
H582 H 0.36242 0.00368 0.58804 0.0
H583 H 0.39131 0.99542 0.57522 0.0
H584 H 0.32995 0.92111 0.7489 0.0
H585 H 0.39857 0.89472 0.7263 0.0
H586 H 0.31567 0.92935 0.5839 0.0
H587 H 0.3271 0.97154 0.59168 0.0
H588 H 0.31122 0.95232 0.66254 0.0
H589 H 0.40287 0.89751 0.55526 0.0
H590 H 0.42015 0.91148 0.62803 0.0
H591 H 0.40925 0.94146 0.56703 0.0
C592 C 0.15786 0.38389 0.77685 0.0
C593 C 0.1383 0.36698 0.7515 0.0
C594 C 0.15875 0.39647 0.84487 0.0
C595 C 0.13948 0.39241 0.8875 0.0
C596 C 0.1192 0.37747 0.86001 0.0
C597 C 0.11897 0.36441 0.79252 0.0
C598 C 0.1808 0.4116 0.87275 0.0
C599 C 0.09817 0.37332 0.90336 0.0
C600 C 0.14716 0.3749 0.07932 0.0
C601 C 0.14289 0.40586 0.10898 0.0
C602 C 0.14684 0.37074 0.00721 0.0
C603 C 0.14153 0.39804 0.96356 0.0
C604 C 0.13741 0.42958 0.99301 0.0
C605 C 0.13846 0.43328 0.06584 0.0
C606 C 0.15187 0.33688 0.97793 0.0
C607 C 0.13125 0.45894 0.94785 0.0
H608 H 0.17282 0.38564 0.74489 0.0
H609 H 0.10378 0.35167 0.77215 0.0
H610 H 0.17812 0.43485 0.90212 0.0
H611 H 0.18832 0.39355 0.90945 0.0
H612 H 0.19305 0.41754 0.83048 0.0
H613 H 0.08305 0.36642 0.87107 0.0
H614 H 0.10027 0.35323 0.94292 0.0
H615 H 0.09521 0.39681 0.93162 0.0
H616 H 0.15096 0.35382 0.11274 0.0
H617 H 0.13516 0.45719 0.08908 0.0
H618 H 0.1654 0.33977 0.93857 0.0
H619 H 0.13667 0.32567 0.95134 0.0
H620 H 0.15722 0.31905 0.01894 0.0
H621 H 0.14395 0.46364 0.90646 0.0
H622 H 0.12991 0.48227 0.97841 0.0
H623 H 0.11485 0.45299 0.92149 0.0
C624 C 0.3885 0.51888 0.06848 0.0
C625 C 0.36932 0.50222 0.09706 0.0
C626 C 0.38977 0.52576 0.99686 0.0
C627 C 0.37149 0.51553 0.95291 0.0
C628 C 0.35291 0.49636 0.98054 0.0
C629 C 0.35205 0.4899 0.05244 0.0
C630 C 0.40996 0.54604 0.96918 0.0
C631 C 0.33325 0.48463 0.93497 0.0
C632 C 0.36083 0.57084 0.79572 0.0
C633 C 0.36956 0.55219 0.74191 0.0
C634 C 0.3612 0.55897 0.86465 0.0
C635 C 0.37075 0.52787 0.87984 0.0
C636 C 0.37986 0.50913 0.82564 0.0
C637 C 0.37932 0.52171 0.75722 0.0
C638 C 0.35146 0.57977 0.92126 0.0
C639 C 0.39033 0.47605 0.84002 0.0
H640 H 0.40205 0.52818 0.10249 0.0
H641 H 0.33726 0.47673 0.074 0.0
H642 H 0.41639 0.53441 0.92155 0.0
H643 H 0.40491 0.57159 0.95458 0.0
H644 H 0.42385 0.54849 0.00823 0.0
H645 H 0.32148 0.46666 0.96266 0.0
H646 H 0.3238 0.5066 0.91797 0.0
H647 H 0.33926 0.47246 0.88735 0.0
H648 H 0.35356 0.59463 0.78371 0.0
H649 H 0.38688 0.50795 0.71579 0.0
H650 H 0.36465 0.58654 0.9607 0.0
H651 H 0.33782 0.56494 0.94839 0.0
H652 H 0.34451 0.60323 0.90056 0.0
H653 H 0.40506 0.47994 0.87545 0.0
H654 H 0.39593 0.46404 0.7916 0.0
H655 H 0.37807 0.45851 0.86674 0.0
C656 C 0.81902 0.86049 0.2432 0.0
C657 C 0.83657 0.84734 0.20529 0.0
C658 C 0.82118 0.86597 0.3152 0.0
C659 C 0.84123 0.85772 0.35023 0.0
C660 C 0.85827 0.84209 0.31323 0.0
C661 C 0.85579 0.83723 0.24113 0.0
C662 C 0.80263 0.8827 0.35272 0.0
C663 C 0.87975 0.83235 0.34892 0.0
C664 C 0.86212 0.90941 0.50517 0.0
C665 C 0.85628 0.88814 0.56122 0.0
C666 C 0.85665 0.90019 0.43645 0.0
C667 C 0.84547 0.86859 0.42344 0.0
C668 C 0.83927 0.84715 0.48005 0.0
C669 C 0.84475 0.85721 0.5484 0.0
C670 C 0.86337 0.92395 0.37763 0.0
C671 C 0.82763 0.8131 0.46828 0.0
H672 H 0.80408 0.86835 0.21606 0.0
H673 H 0.86934 0.82677 0.21236 0.0
H674 H 0.79834 0.86907 0.40184 0.0
H675 H 0.80851 0.90864 0.36687 0.0
H676 H 0.78713 0.884 0.3202 0.0
H677 H 0.89006 0.81689 0.31499 0.0
H678 H 0.88996 0.85534 0.36349 0.0
H679 H 0.87592 0.81809 0.39764 0.0
H680 H 0.87123 0.93317 0.51513 0.0
H681 H 0.84085 0.84025 0.59155 0.0
H682 H 0.84848 0.92892 0.34451 0.0
H683 H 0.87584 0.9123 0.34407 0.0
H684 H 0.87085 0.94829 0.39679 0.0
H685 H 0.81249 0.81544 0.43472 0.0
H686 H 0.82248 0.80051 0.51792 0.0
H687 H 0.83912 0.7968 0.44061 0.0
C688 C 0.61798 0.0134 0.61226 0.0
C689 C 0.63575 0.99629 0.64234 0.0
C690 C 0.61734 0.0202 0.54045 0.0
C691 C 0.63481 0.00949 0.49773 0.0
C692 C 0.65184 0.99002 0.52689 0.0
C693 C 0.65211 0.98364 0.59892 0.0
C694 C 0.59879 0.04084 0.51123 0.0
C695 C 0.6706 0.97779 0.48282 0.0
C696 C 0.62743 0.01561 0.30114 0.0
C697 C 0.63936 0.04606 0.28623 0.0
C698 C 0.62604 0.00304 0.36962 0.0
C699 C 0.63657 0.02164 0.42444 0.0
C700 C 0.64851 0.0525 0.40968 0.0
C701 C 0.64969 0.06437 0.34076 0.0
C702 C 0.61301 0.97019 0.38346 0.0
C703 C 0.65992 0.07314 0.46679 0.0
H704 H 0.60515 0.02305 0.64526 0.0
H705 H 0.6658 0.97015 0.62157 0.0
H706 H 0.60588 0.06619 0.49658 0.0
H707 H 0.59144 0.02918 0.46336 0.0
H708 H 0.5851 0.04376 0.54936 0.0
H709 H 0.68095 0.95969 0.5115 0.0
H710 H 0.66368 0.96561 0.43491 0.0
H711 H 0.68176 -0.00048 0.46625 0.0
H712 H 0.61863 0.00199 0.25973 0.0
H713 H 0.65879 0.08803 0.32943 0.0
H714 H 0.59839 0.97452 0.41708 0.0
H715 H 0.62377 0.95263 0.41196 0.0
H716 H 0.60675 0.95799 0.33467 0.0
H717 H 0.64727 0.08035 0.50529 0.0
H718 H 0.66878 0.09635 0.44641 0.0
H719 H 0.67232 0.05804 0.49496 0.0
C720 C 0.88293 0.48817 0.2117 0.0
C721 C 0.87597 0.52039 0.22641 0.0
C722 C 0.88258 0.4761 0.14324 0.0
C723 C 0.87558 0.49709 0.08819 0.0
C724 C 0.86915 0.53003 0.10263 0.0
C725 C 0.8695 0.54132 0.17169 0.0
C726 C 0.88965 0.44093 0.12983 0.0
C727 C 0.8618 0.55329 0.04516 0.0
C728 C 0.89152 0.48289 0.90031 0.0
C729 C 0.87093 0.47046 0.87199 0.0
C730 C 0.89361 0.49032 0.97151 0.0
C731 C 0.87474 0.48476 0.01534 0.0
C732 C 0.85444 0.46992 0.98797 0.0
C733 C 0.85274 0.46309 0.9165 0.0
C734 C 0.91555 0.50614 -0.00123 0.0
C735 C 0.83409 0.46301 0.03338 0.0
H736 H 0.88889 0.47249 0.25371 0.0
H737 H 0.86447 0.56642 0.18307 0.0
H738 H 0.8757 0.42607 0.104 0.0
H739 H 0.90419 0.44172 0.09395 0.0
H740 H 0.89443 0.42771 0.17856 0.0
H741 H 0.85773 0.57833 0.06501 0.0
H742 H 0.87528 0.55677 0.0058 0.0
H743 H 0.84668 0.54203 0.01813 0.0
H744 H 0.90566 0.48867 0.86625 0.0
H745 H 0.83684 0.45319 0.89502 0.0
H746 H 0.9209 0.49324 0.04714 0.0
H747 H 0.91319 0.53274 0.01207 0.0
H748 H 0.92927 0.50541 0.96 0.0
H749 H 0.83882 0.44917 0.08131 0.0
H750 H 0.82044 0.44819 0.00587 0.0
H751 H 0.82741 0.48713 0.04987 0.0
C752 C 0.62312 0.40808 0.22024 0.0
C753 C 0.62938 0.37559 0.23763 0.0
C754 C 0.62476 0.42027 0.15154 0.0
C755 C 0.63228 0.39913 0.09877 0.0
C756 C 0.63804 0.36599 0.11567 0.0
C757 C 0.63654 0.35466 0.18492 0.0
C758 C 0.61842 0.45571 0.13541 0.0
C759 C 0.64585 0.3425 0.06061 0.0
C760 C 0.61857 0.4128 0.90778 0.0
C761 C 0.63962 0.4242 0.8819 0.0
C762 C 0.61561 0.40603 0.97904 0.0
C763 C 0.63405 0.41128 0.02552 0.0
C764 C 0.65485 0.42521 0.00047 0.0
C765 C 0.65743 0.43133 0.9288 0.0
C766 C 0.59319 0.39107 0.00369 0.0
C767 C 0.67476 0.43183 0.04875 0.0
H768 H 0.61655 0.4239 0.25985 0.0
H769 H 0.6412 0.32942 0.19797 0.0
H770 H 0.63276 0.46997 0.1105 0.0
H771 H 0.60412 0.45536 0.09782 0.0
H772 H 0.61358 0.46929 0.18283 0.0
H773 H 0.64933 0.31733 0.0822 0.0
H774 H 0.63286 0.33937 0.01892 0.0
H775 H 0.66143 0.35335 0.03599 0.0
H776 H 0.60469 0.40728 0.87194 0.0
H777 H 0.67368 0.44046 0.90924 0.0
H778 H 0.58755 0.40437 0.05037 0.0
H779 H 0.595 0.36442 0.01891 0.0
H780 H 0.5799 0.39206 0.9627 0.0
H781 H 0.66968 0.44586 0.09522 0.0
H782 H 0.6888 0.44632 0.02268 0.0
H783 H 0.68105 0.40759 0.06745 0.0
C784 C 0.14021 0.10709 0.23877 0.0
C785 C 0.12702 0.10345 0.17806 0.0
C786 C 0.1434 0.13832 0.27126 0.0
C787 C 0.13256 0.16629 0.24352 0.0
C788 C 0.11893 0.16264 0.18276 0.0
C789 C 0.11663 0.1313 0.15 0.0
C790 C 0.15863 0.14146 0.33459 0.0
C791 C 0.10662 0.19174 0.15279 0.0
C792 C 0.12478 0.24016 0.36293 0.0
C793 C 0.14089 0.26371 0.33686 0.0
C794 C 0.12179 0.20826 0.33284 0.0
C795 C 0.13582 0.19956 0.27726 0.0
C796 C 0.15278 0.22289 0.25297 0.0
C797 C 0.1548 0.25498 0.2822 0.0
C798 C 0.1031 0.18439 0.35868 0.0
C799 C 0.1686 0.21411 0.19558 0.0
H800 H 0.14841 0.08557 0.26018 0.0
H801 H 0.10628 0.12838 0.10339 0.0
H802 H 0.17243 0.16069 0.32475 0.0
H803 H 0.14907 0.14998 0.3799 0.0
H804 H 0.16618 0.11738 0.34867 0.0
H805 H 0.09579 0.18429 0.10742 0.0
H806 H 0.09593 0.20235 0.19333 0.0
H807 H 0.11889 0.21202 0.13594 0.0
H808 H 0.11385 0.24725 0.40464 0.0
H809 H 0.16728 0.27334 0.26233 0.0
H810 H 0.11003 0.16044 0.37637 0.0
H811 H 0.09108 0.17834 0.31542 0.0
H812 H 0.09371 0.195 0.40239 0.0
H813 H 0.17676 0.19043 0.2087 0.0
H814 H 0.18194 0.23419 0.1865 0.0
H815 H 0.15902 0.20992 0.14629 0.0
C816 C 0.37257 0.79765 0.22453 0.0
C817 C 0.3595 0.80382 0.16508 0.0
C818 C 0.37353 0.76522 0.25258 0.0
C819 C 0.36048 0.73854 0.22175 0.0
C820 C 0.34699 0.7447 0.16214 0.0
C821 C 0.34697 0.77729 0.13366 0.0
C822 C 0.38873 0.75948 0.31466 0.0
C823 C 0.33239 0.717 0.12908 0.0
C824 C 0.37826 0.64977 0.25342 0.0
C825 C 0.36472 0.63951 0.30986 0.0
C826 C 0.37711 0.682 0.22446 0.0
C827 C 0.36148 0.70407 0.25113 0.0
C828 C 0.34746 0.6936 0.30742 0.0
C829 C 0.34954 0.66156 0.33703 0.0
C830 C 0.3929 0.69264 0.16618 0.0
C831 C 0.33018 0.71615 0.33593 0.0
H832 H 0.38241 0.8182 0.24847 0.0
H833 H 0.33671 0.78222 0.08804 0.0
H834 H 0.37864 0.74965 0.35939 0.0
H835 H 0.40091 0.74033 0.302 0.0
H836 H 0.39828 0.78281 0.33109 0.0
H837 H 0.32213 0.72626 0.08491 0.0
H838 H 0.34303 0.69711 0.10968 0.0
H839 H 0.3209 0.7052 0.16856 0.0
H840 H 0.39011 0.63273 0.23274 0.0
H841 H 0.33892 0.65342 0.38022 0.0
H842 H 0.4033 0.7153 0.18174 0.0
H843 H 0.38314 0.69942 0.11906 0.0
H844 H 0.40432 0.6726 0.15226 0.0
H845 H 0.33868 0.73907 0.35825 0.0
H846 H 0.3197 0.70351 0.37704 0.0
H847 H 0.31894 0.72437 0.29322 0.0
C848 C 0.87822 0.73439 0.85344 0.0
C849 C 0.85955 0.7533 0.83921 0.0
C850 C 0.88039 0.70327 0.8213 0.0
C851 C 0.86326 0.69083 0.77502 0.0
C852 C 0.84398 0.7095 0.7627 0.0
C853 C 0.84251 0.74083 0.79434 0.0
C854 C 0.90135 0.68431 0.83478 0.0
C855 C 0.82515 0.69676 0.71494 0.0
C856 C 0.87722 0.62769 0.63687 0.0
C857 C 0.86998 0.59736 0.6688 0.0
C858 C 0.8754 0.65835 0.67131 0.0
C859 C 0.86567 0.65859 0.73843 0.0
C860 C 0.85801 0.62808 0.77034 0.0
C861 C 0.86045 0.59782 0.73542 0.0
C862 C 0.88412 0.69043 0.63627 0.0
C863 C 0.84709 0.62738 0.84114 0.0
H864 H 0.89151 0.74463 0.88734 0.0
H865 H 0.82825 0.75595 0.78307 0.0
H866 H 0.89678 0.65865 0.85442 0.0
H867 H 0.91056 0.6816 0.78529 0.0
H868 H 0.91287 0.69714 0.8732 0.0
H869 H 0.81069 0.71333 0.71455 0.0
H870 H 0.83146 0.69503 0.66096 0.0
H871 H 0.81906 0.67113 0.73124 0.0
H872 H 0.88472 0.6274 0.58562 0.0
H873 H 0.85464 0.57444 0.76014 0.0
H874 H 0.89693 0.70357 0.67012 0.0
H875 H 0.87019 0.70758 0.62849 0.0
H876 H 0.89179 0.68584 0.5849 0.0
H877 H 0.85894 0.63857 0.88056 0.0
H878 H 0.84183 0.60151 0.85837 0.0
H879 H 0.83206 0.64277 0.83989 0.0
C880 C 0.65066 0.14237 0.78993 0.0
C881 C 0.63866 0.13524 0.85116 0.0
C882 C 0.6498 0.17379 0.75701 0.0
C883 C 0.63589 0.19808 0.78466 0.0
C884 C 0.62362 0.19088 0.84638 0.0
C885 C 0.62549 0.15966 0.8797 0.0
C886 C 0.66377 0.18099 0.69277 0.0
C887 C 0.60809 0.21578 0.87616 0.0
C888 C 0.64698 0.28972 0.73629 0.0
C889 C 0.63202 0.29345 0.68022 0.0
C890 C 0.64861 0.25869 0.77023 0.0
C891 C 0.63432 0.23109 0.74908 0.0
C892 C 0.61884 0.23491 0.69329 0.0
C893 C 0.61818 0.26598 0.65853 0.0
C894 C 0.66587 0.25531 0.82785 0.0
C895 C 0.60285 0.2063 0.67081 0.0
H896 H 0.6609 0.1234 0.76815 0.0
H897 H 0.61599 0.15386 0.92663 0.0
H898 H 0.65262 0.18546 0.64733 0.0
H899 H 0.67467 0.20414 0.70031 0.0
H900 H 0.67461 0.16003 0.68023 0.0
H901 H 0.59927 0.20591 0.92343 0.0
H902 H 0.61775 0.23937 0.88988 0.0
H903 H 0.5953 0.22228 0.83644 0.0
H904 H 0.65783 0.31097 0.75258 0.0
H905 H 0.60649 0.26904 0.61546 0.0
H906 H 0.67733 0.23521 0.81498 0.0
H907 H 0.6574 0.24791 0.87728 0.0
H908 H 0.67613 0.27901 0.83654 0.0
H909 H 0.61248 0.18526 0.65142 0.0
H910 H 0.59103 0.21393 0.62907 0.0
H911 H 0.59291 0.19664 0.71606 0.0
loop_
_geom_bond_atom_site_label_1
_geom_bond_atom_site_label_2
_geom_bond_distance
_geom_bond_site_symmetry_2
_ccdc_geom_bond_type
Co0 O3 1.970 1_545 S
Co0 N17 1.989 1_545 S
Co0 O25 1.967 . S
Co0 O32 1.920 . S
Co1 O4 1.966 . S
Co1 N10 2.022 1_554 S
Co1 N18 1.993 . S
Co1 O26 1.941 . S
C2 O3 1.254 1_545 S
C2 O4 1.276 . S
O3 Co0 1.970 1_565 S
O3 C2 1.254 1_565 S
O4 Co1 1.966 . S
O4 C2 1.276 . S
C5 O6 1.235 . S
C5 O32 1.289 1_565 S
O6 C5 1.235 . S
C7 C9 1.400 . S
C7 N10 1.351 . S
C7 C12 1.501 1_545 S
C8 C9 1.387 . S
C8 N11 1.341 . S
C9 C7 1.400 . S
C9 C8 1.387 . S
N10 Co1 2.022 1_556 S
N10 C7 1.351 . S
N10 N11 1.365 . S
N11 C8 1.341 . S
N11 N10 1.365 . S
N11 H31 0.862 . S
C12 C7 1.501 1_565 S
C12 H13 0.961 . S
C12 H14 0.961 . S
C12 H15 0.960 1_565 S
H13 C12 0.961 . S
H14 C12 0.961 . S
H15 C12 0.960 1_545 S
C16 N17 1.342 . S
C16 C20 1.401 . S
C16 C21 1.499 . S
N17 Co0 1.989 1_565 S
N17 C16 1.342 . S
N17 N18 1.388 1_565 S
N18 Co1 1.993 . S
N18 N17 1.388 1_545 S
N18 C19 1.346 1_545 S
C19 N18 1.346 1_565 S
C19 C20 1.396 . S
C19 C29 1.510 1_554 S
C20 C16 1.401 . S
C20 C19 1.396 . S
C21 C16 1.499 . S
C21 H22 0.959 . S
C21 H23 0.960 . S
C21 H24 0.961 . S
H22 C21 0.959 . S
H23 C21 0.960 . S
H24 C21 0.961 . S
O25 Co0 1.967 . S
O25 C33 1.258 . S
O26 Co1 1.941 . S
O26 C33 1.266 . S
H27 C29 0.959 1_545 S
H28 C29 0.961 . S
C29 C19 1.510 1_556 S
C29 H27 0.959 1_565 S
C29 H28 0.961 . S
C29 H30 0.960 . S
H30 C29 0.960 . S
H31 N11 0.862 . S
O32 Co0 1.920 . S
O32 C5 1.289 1_545 S
C33 O25 1.258 . S
C33 O26 1.266 . S
Co34 O37 1.970 . S
Co34 N51 1.989 . S
Co34 O59 1.967 . S
Co34 O66 1.920 . S
Co35 O38 1.966 . S
Co35 N44 2.022 1_554 S
Co35 N52 1.993 . S
Co35 O60 1.941 . S
C36 O37 1.258 . S
C36 O38 1.263 . S
O37 Co34 1.970 . S
O37 C36 1.258 . S
O38 Co35 1.966 . S
O38 C36 1.263 . S
C39 O40 1.235 . S
C39 O66 1.289 . S
O40 C39 1.235 . S
C41 C43 1.400 . S
C41 N44 1.351 . S
C41 C46 1.501 . S
C42 C43 1.387 . S
C42 N45 1.341 . S
C43 C41 1.400 . S
C43 C42 1.387 . S
N44 Co35 2.022 1_556 S
N44 C41 1.351 . S
N44 N45 1.365 . S
N45 C42 1.341 . S
N45 N44 1.365 . S
N45 H65 0.862 . S
C46 C41 1.501 . S
C46 H47 0.961 . S
C46 H48 0.961 . S
C46 H49 0.960 . S
H47 C46 0.961 . S
H48 C46 0.961 . S
H49 C46 0.960 . S
C50 N51 1.342 . S
C50 C54 1.401 . S
C50 C55 1.499 . S
N51 Co34 1.989 . S
N51 C50 1.342 . S
N51 N52 1.388 . S
N52 Co35 1.993 . S
N52 N51 1.388 . S
N52 C53 1.346 . S
C53 N52 1.346 . S
C53 C54 1.396 . S
C53 C63 1.510 1_554 S
C54 C50 1.401 . S
C54 C53 1.396 . S
C55 C50 1.499 . S
C55 H56 0.959 . S
C55 H57 0.960 . S
C55 H58 0.961 . S
H56 C55 0.959 . S
H57 C55 0.960 . S
H58 C55 0.961 . S
O59 Co34 1.967 . S
O59 C67 1.258 . S
O60 Co35 1.941 . S
O60 C67 1.266 . S
H61 C63 0.959 . S
H62 C63 0.961 . S
C63 C53 1.510 1_556 S
C63 H61 0.959 . S
C63 H62 0.961 . S
C63 H64 0.960 . S
H64 C63 0.960 . S
H65 N45 0.862 . S
O66 Co34 1.920 . S
O66 C39 1.289 . S
C67 O59 1.258 . S
C67 O60 1.266 . S
Co68 O71 1.970 . S
Co68 N85 1.989 . S
Co68 O93 1.967 . S
Co68 O100 1.920 . S
Co69 O72 1.966 . S
Co69 N78 2.022 . S
Co69 N86 1.993 . S
Co69 O94 1.941 . S
C70 O71 1.258 . S
C70 O72 1.263 . S
O71 Co68 1.970 . S
O71 C70 1.258 . S
O72 Co69 1.966 . S
O72 C70 1.263 . S
C73 O74 1.235 . S
C73 O100 1.289 . S
O74 C73 1.235 . S
C75 C77 1.400 . S
C75 N78 1.351 . S
C75 C80 1.501 . S
C76 C77 1.387 . S
C76 N79 1.341 . S
C77 C75 1.400 . S
C77 C76 1.387 . S
N78 Co69 2.022 . S
N78 C75 1.351 . S
N78 N79 1.365 . S
N79 C76 1.341 . S
N79 N78 1.365 . S
N79 H99 0.862 . S
C80 C75 1.501 . S
C80 H81 0.961 . S
C80 H82 0.961 . S
C80 H83 0.960 . S
H81 C80 0.961 . S
H82 C80 0.961 . S
H83 C80 0.960 . S
C84 N85 1.342 . S
C84 C88 1.401 . S
C84 C89 1.499 . S
N85 Co68 1.989 . S
N85 C84 1.342 . S
N85 N86 1.388 . S
N86 Co69 1.993 . S
N86 N85 1.388 . S
N86 C87 1.346 . S
C87 N86 1.346 . S
C87 C88 1.396 . S
C87 C97 1.510 . S
C88 C84 1.401 . S
C88 C87 1.396 . S
C89 C84 1.499 . S
C89 H90 0.959 . S
C89 H91 0.960 . S
C89 H92 0.961 . S
H90 C89 0.959 . S
H91 C89 0.960 . S
H92 C89 0.961 . S
O93 Co68 1.967 . S
O93 C101 1.258 . S
O94 Co69 1.941 . S
O94 C101 1.266 . S
H95 C97 0.959 . S
H96 C97 0.961 . S
C97 C87 1.510 . S
C97 H95 0.959 . S
C97 H96 0.961 . S
C97 H98 0.960 . S
H98 C97 0.960 . S
H99 N79 0.862 . S
O100 Co68 1.920 . S
O100 C73 1.289 . S
C101 O93 1.258 . S
C101 O94 1.266 . S
Co102 O105 1.970 . S
Co102 N119 1.989 . S
Co102 O127 1.967 . S
Co102 O134 1.920 . S
Co103 O106 1.966 . S
Co103 N112 2.022 . S
Co103 N120 1.993 . S
Co103 O128 1.941 . S
C104 O105 1.258 . S
C104 O106 1.263 . S
O105 Co102 1.970 . S
O105 C104 1.258 . S
O106 Co103 1.966 . S
O106 C104 1.263 . S
C107 O108 1.235 . S
C107 O134 1.289 . S
O108 C107 1.235 . S
C109 C111 1.400 . S
C109 N112 1.351 . S
C109 C114 1.501 . S
C110 C111 1.387 . S
C110 N113 1.341 . S
C111 C109 1.400 . S
C111 C110 1.387 . S
N112 Co103 2.022 . S
N112 C109 1.351 . S
N112 N113 1.365 . S
N113 C110 1.341 . S
N113 N112 1.365 . S
N113 H133 0.862 . S
C114 C109 1.501 . S
C114 H115 0.961 . S
C114 H116 0.961 . S
C114 H117 0.960 . S
H115 C114 0.961 . S
H116 C114 0.961 . S
H117 C114 0.960 . S
C118 N119 1.342 . S
C118 C122 1.401 . S
C118 C123 1.499 . S
N119 Co102 1.989 . S
N119 C118 1.342 . S
N119 N120 1.388 . S
N120 Co103 1.993 . S
N120 N119 1.388 . S
N120 C121 1.346 . S
C121 N120 1.346 . S
C121 C122 1.396 . S
C121 C131 1.510 . S
C122 C118 1.401 . S
C122 C121 1.396 . S
C123 C118 1.499 . S
C123 H124 0.959 . S
C123 H125 0.960 . S
C123 H126 0.961 . S
H124 C123 0.959 . S
H125 C123 0.960 . S
H126 C123 0.961 . S
O127 Co102 1.967 . S
O127 C135 1.258 . S
O128 Co103 1.941 . S
O128 C135 1.266 . S
H129 C131 0.959 . S
H130 C131 0.961 . S
C131 C121 1.510 . S
C131 H129 0.959 . S
C131 H130 0.961 . S
C131 H132 0.960 . S
H132 C131 0.960 . S
H133 N113 0.862 . S
O134 Co102 1.920 . S
O134 C107 1.289 . S
C135 O127 1.258 . S
C135 O128 1.266 . S
Co136 O139 1.970 . S
Co136 N153 1.989 . S
Co136 O161 1.967 . S
Co136 O168 1.920 1_556 S
Co137 O140 1.966 . S
Co137 N146 2.022 . S
Co137 N154 1.993 . S
Co137 O162 1.941 . S
C138 O139 1.258 . S
C138 O140 1.263 . S
O139 Co136 1.970 . S
O139 C138 1.258 . S
O140 Co137 1.966 . S
O140 C138 1.263 . S
C141 O142 1.235 . S
C141 O168 1.289 . S
O142 C141 1.235 . S
C143 C145 1.400 . S
C143 N146 1.351 . S
C143 C148 1.501 . S
C144 C145 1.387 . S
C144 N147 1.341 . S
C145 C143 1.400 . S
C145 C144 1.387 . S
N146 Co137 2.022 . S
N146 C143 1.351 . S
N146 N147 1.365 . S
N147 C144 1.341 . S
N147 N146 1.365 . S
N147 H167 0.862 . S
C148 C143 1.501 . S
C148 H149 0.961 . S
C148 H150 0.961 . S
C148 H151 0.960 . S
H149 C148 0.961 . S
H150 C148 0.961 . S
H151 C148 0.960 . S
C152 N153 1.342 . S
C152 C156 1.401 . S
C152 C157 1.499 . S
N153 Co136 1.989 . S
N153 C152 1.342 . S
N153 N154 1.388 . S
N154 Co137 1.993 . S
N154 N153 1.388 . S
N154 C155 1.346 . S
C155 N154 1.346 . S
C155 C156 1.396 . S
C155 C165 1.510 . S
C156 C152 1.401 . S
C156 C155 1.396 . S
C157 C152 1.499 . S
C157 H158 0.969 . S
C157 H159 0.960 . S
C157 H160 0.961 . S
H158 C157 0.969 . S
H159 C157 0.960 . S
H160 C157 0.961 . S
O161 Co136 1.967 . S
O161 C169 1.258 . S
O162 Co137 1.941 . S
O162 C169 1.266 . S
H163 C165 0.959 . S
H164 C165 0.961 . S
C165 C155 1.510 . S
C165 H163 0.959 . S
C165 H164 0.961 . S
C165 H166 0.960 . S
H166 C165 0.960 . S
H167 N147 0.862 . S
O168 Co136 1.920 1_554 S
O168 C141 1.289 . S
C169 O161 1.258 . S
C169 O162 1.266 . S
Co170 O173 1.970 . S
Co170 N187 1.989 . S
Co170 O195 1.967 . S
Co170 O202 1.920 . S
Co171 O174 1.970 . S
Co171 N180 2.010 1_556 S
Co171 N188 1.997 . S
Co171 O196 1.946 . S
C172 O173 1.258 . S
C172 O174 1.263 . S
O173 Co170 1.970 . S
O173 C172 1.258 . S
O174 Co171 1.970 . S
O174 C172 1.263 . S
C175 O176 1.235 1_545 S
C175 O202 1.289 . S
O176 C175 1.235 1_565 S
C177 C179 1.400 . S
C177 N180 1.351 . S
C177 C182 1.501 . S
C178 C179 1.387 . S
C178 N181 1.341 . S
C179 C177 1.400 . S
C179 C178 1.387 . S
N180 Co171 2.010 1_554 S
N180 C177 1.351 . S
N180 N181 1.365 . S
N181 C178 1.341 . S
N181 N180 1.365 . S
N181 H201 0.862 . S
C182 C177 1.501 . S
C182 H183 0.961 . S
C182 H184 0.961 . S
C182 H185 0.960 . S
H183 C182 0.961 . S
H184 C182 0.961 . S
H185 C182 0.960 . S
C186 N187 1.342 . S
C186 C190 1.401 . S
C186 C191 1.499 . S
N187 Co170 1.989 . S
N187 C186 1.342 . S
N187 N188 1.388 . S
N188 Co171 1.997 . S
N188 N187 1.388 . S
N188 C189 1.346 1_556 S
C189 N188 1.346 1_554 S
C189 C190 1.396 1_554 S
C189 C199 1.510 . S
C190 C186 1.401 . S
C190 C189 1.396 1_556 S
C191 C186 1.499 . S
C191 H192 0.959 . S
C191 H193 0.960 . S
C191 H194 0.961 . S
H192 C191 0.959 . S
H193 C191 0.960 . S
H194 C191 0.961 . S
O195 Co170 1.967 . S
O195 C203 1.258 . S
O196 Co171 1.946 . S
O196 C203 1.266 . S
H197 C199 0.959 . S
H198 C199 0.961 . S
C199 C189 1.510 . S
C199 H197 0.959 . S
C199 H198 0.961 . S
C199 H200 0.960 . S
H200 C199 0.960 . S
H201 N181 0.862 . S
O202 Co170 1.920 . S
O202 C175 1.289 . S
C203 O195 1.258 . S
C203 O196 1.266 . S
Co204 O207 1.970 . S
Co204 N221 1.989 . S
Co204 O229 1.967 . S
Co204 O236 1.920 . S
Co205 O208 1.966 . S
Co205 N214 2.022 . S
Co205 N222 1.993 . S
Co205 O230 1.941 . S
C206 O207 1.258 . S
C206 O208 1.263 . S
O207 Co204 1.970 . S
O207 C206 1.258 . S
O208 Co205 1.966 . S
O208 C206 1.263 . S
C209 O210 1.235 . S
C209 O236 1.289 . S
O210 C209 1.235 . S
C211 C213 1.400 . S
C211 N214 1.351 . S
C211 C216 1.501 . S
C212 C213 1.387 . S
C212 N215 1.341 . S
C213 C211 1.400 . S
C213 C212 1.387 . S
N214 Co205 2.022 . S
N214 C211 1.351 . S
N214 N215 1.365 . S
N215 C212 1.341 . S
N215 N214 1.365 . S
N215 H235 0.862 . S
C216 C211 1.501 . S
C216 H217 0.961 . S
C216 H218 0.961 . S
C216 H219 0.960 . S
H217 C216 0.961 . S
H218 C216 0.961 . S
H219 C216 0.960 . S
C220 N221 1.342 . S
C220 C224 1.401 . S
C220 C225 1.499 . S
N221 Co204 1.989 . S
N221 C220 1.342 . S
N221 N222 1.388 . S
N222 Co205 1.993 . S
N222 N221 1.388 . S
N222 C223 1.346 . S
C223 N222 1.346 . S
C223 C224 1.396 . S
C223 C233 1.510 . S
C224 C220 1.401 . S
C224 C223 1.396 . S
C225 C220 1.499 . S
C225 H226 0.959 . S
C225 H227 0.960 . S
C225 H228 0.961 . S
H226 C225 0.959 . S
H227 C225 0.960 . S
H228 C225 0.961 . S
O229 Co204 1.967 . S
O229 C237 1.258 . S
O230 Co205 1.941 . S
O230 C237 1.266 . S
H231 C233 0.959 . S
H232 C233 0.961 . S
C233 C223 1.510 . S
C233 H231 0.959 . S
C233 H232 0.961 . S
C233 H234 0.960 . S
H234 C233 0.960 . S
H235 N215 0.862 . S
O236 Co204 1.920 . S
O236 C209 1.289 . S
C237 O229 1.258 . S
C237 O230 1.266 . S
Co238 O241 1.970 . S
Co238 N255 1.989 . S
Co238 O263 1.967 . S
Co238 O270 1.920 . S
Co239 O242 1.966 . S
Co239 N248 2.022 . S
Co239 N256 1.993 . S
Co239 O264 1.941 . S
C240 O241 1.258 . S
C240 O242 1.263 . S
O241 Co238 1.970 . S
O241 C240 1.258 . S
O242 Co239 1.966 . S
O242 C240 1.263 . S
C243 O244 1.235 . S
C243 O270 1.289 . S
O244 C243 1.235 . S
C245 C247 1.400 . S
C245 N248 1.351 . S
C245 C250 1.501 . S
C246 C247 1.387 . S
C246 N249 1.341 . S
C247 C245 1.400 . S
C247 C246 1.387 . S
N248 Co239 2.022 . S
N248 C245 1.351 . S
N248 N249 1.365 . S
N249 C246 1.341 . S
N249 N248 1.365 . S
N249 H269 0.862 . S
C250 C245 1.501 . S
C250 H251 0.961 . S
C250 H252 0.961 . S
C250 H253 0.960 . S
H251 C250 0.961 . S
H252 C250 0.961 . S
H253 C250 0.960 . S
C254 N255 1.342 . S
C254 C258 1.401 . S
C254 C259 1.499 . S
N255 Co238 1.989 . S
N255 C254 1.342 . S
N255 N256 1.388 . S
N256 Co239 1.993 . S
N256 N255 1.388 . S
N256 C257 1.346 . S
C257 N256 1.346 . S
C257 C258 1.396 . S
C257 C267 1.510 . S
C258 C254 1.401 . S
C258 C257 1.396 . S
C259 C254 1.499 . S
C259 H260 0.959 . S
C259 H261 0.960 . S
C259 H262 0.961 . S
H260 C259 0.959 . S
H261 C259 0.960 . S
H262 C259 0.961 . S
O263 Co238 1.967 . S
O263 C271 1.258 . S
O264 Co239 1.941 . S
O264 C271 1.266 . S
H265 C267 0.959 . S
H266 C267 0.961 . S
C267 C257 1.510 . S
C267 H265 0.959 . S
C267 H266 0.961 . S
C267 H268 0.960 . S
H268 C267 0.960 . S
H269 N249 0.862 . S
O270 Co238 1.920 . S
O270 C243 1.289 . S
C271 O263 1.258 . S
C271 O264 1.266 . S
C272 C273 1.391 . S
C272 C274 1.394 . S
C272 H288 0.931 . S
C273 C272 1.391 . S
C273 C277 1.376 . S
C274 C272 1.394 . S
C274 C275 1.369 . S
C274 C278 1.531 1_565 S
C275 C274 1.369 . S
C275 C276 1.410 . S
C275 C283 1.503 . S
C276 C275 1.410 . S
C276 C277 1.392 . S
C276 C279 1.511 . S
C277 C273 1.376 . S
C277 C276 1.392 . S
C277 H289 0.929 . S
C278 C274 1.531 1_545 S
C278 H290 0.960 . S
C278 H291 0.962 . S
C278 H292 0.960 . S
C279 C276 1.511 . S
C279 H293 0.961 . S
C279 H294 0.961 . S
C279 H295 0.961 . S
C280 C281 1.370 . S
C280 C282 1.363 . S
C280 H296 0.931 1_565 S
C281 C280 1.370 . S
C281 C285 1.408 . S
C282 C280 1.363 . S
C282 C283 1.370 . S
C282 C286 1.524 . S
C283 C275 1.503 . S
C283 C282 1.370 . S
C283 C284 1.403 . S
C284 C283 1.403 . S
C284 C285 1.404 . S
C284 C287 1.539 1_554 S
C285 C281 1.408 . S
C285 C284 1.404 . S
C285 H297 0.930 . S
C286 C282 1.524 . S
C286 H298 0.956 1_565 S
C286 H299 0.961 . S
C286 H300 0.969 . S
C287 C284 1.539 1_556 S
C287 H301 0.958 . S
C287 H302 0.961 . S
C287 H303 0.960 1_556 S
H288 C272 0.931 . S
H289 C277 0.929 . S
H290 C278 0.960 . S
H291 C278 0.962 . S
H292 C278 0.960 . S
H293 C279 0.961 . S
H294 C279 0.961 . S
H295 C279 0.961 . S
H296 C280 0.931 1_545 S
H297 C285 0.930 . S
H298 C286 0.956 1_545 S
H299 C286 0.961 . S
H300 C286 0.969 . S
H301 C287 0.958 . S
H302 C287 0.961 . S
H303 C287 0.960 1_554 S
C304 C305 1.391 . S
C304 C306 1.394 . S
C304 H320 0.931 . S
C305 C304 1.391 . S
C305 C309 1.376 . S
C306 C304 1.394 . S
C306 C307 1.369 . S
C306 C310 1.531 . S
C307 C306 1.369 . S
C307 C308 1.410 . S
C307 C315 1.503 . S
C308 C307 1.410 . S
C308 C309 1.392 . S
C308 C311 1.511 . S
C309 C305 1.376 . S
C309 C308 1.392 . S
C309 H321 0.929 . S
C310 C306 1.531 . S
C310 H322 0.960 . S
C310 H323 0.962 . S
C310 H324 0.960 . S
C311 C308 1.511 . S
C311 H325 0.961 . S
C311 H326 0.961 . S
C311 H327 0.961 . S
C312 C313 1.370 . S
C312 C314 1.363 . S
C312 H328 0.931 . S
C313 C312 1.370 . S
C313 C317 1.408 . S
C314 C312 1.363 . S
C314 C315 1.370 . S
C314 C318 1.524 . S
C315 C307 1.503 . S
C315 C314 1.370 . S
C315 C316 1.403 . S
C316 C315 1.403 . S
C316 C317 1.404 . S
C316 C319 1.539 . S
C317 C313 1.408 . S
C317 C316 1.404 . S
C317 H329 0.930 . S
C318 C314 1.524 . S
C318 H330 0.956 . S
C318 H331 0.961 . S
C318 H332 0.961 . S
C319 C316 1.539 . S
C319 H333 0.958 . S
C319 H334 0.961 . S
C319 H335 0.960 . S
H320 C304 0.931 . S
H321 C309 0.929 . S
H322 C310 0.960 . S
H323 C310 0.962 . S
H324 C310 0.960 . S
H325 C311 0.961 . S
H326 C311 0.961 . S
H327 C311 0.961 . S
H328 C312 0.931 . S
H329 C317 0.930 . S
H330 C318 0.956 . S
H331 C318 0.961 . S
H332 C318 0.961 . S
H333 C319 0.958 . S
H334 C319 0.961 . S
H335 C319 0.960 . S
C336 C337 1.391 . S
C336 C338 1.394 . S
C336 H352 0.931 . S
C337 C336 1.391 . S
C337 C341 1.376 1_545 S
C338 C336 1.394 . S
C338 C339 1.369 1_545 S
C338 C342 1.531 . S
C339 C338 1.369 1_565 S
C339 C340 1.410 . S
C339 C347 1.503 . S
C340 C339 1.410 . S
C340 C341 1.392 . S
C340 C343 1.511 . S
C341 C337 1.376 1_565 S
C341 C340 1.392 . S
C341 H353 0.929 . S
C342 C338 1.531 . S
C342 H354 0.960 . S
C342 H355 0.962 . S
C342 H356 0.960 1_556 S
C343 C340 1.511 . S
C343 H357 0.961 . S
C343 H358 0.961 . S
C343 H359 0.961 . S
C344 C345 1.370 . S
C344 C346 1.363 . S
C344 H360 0.931 . S
C345 C344 1.370 . S
C345 C349 1.408 . S
C346 C344 1.363 . S
C346 C347 1.370 . S
C346 C350 1.524 . S
C347 C339 1.503 . S
C347 C346 1.370 . S
C347 C348 1.403 . S
C348 C347 1.403 . S
C348 C349 1.404 . S
C348 C351 1.539 1_556 S
C349 C345 1.408 . S
C349 C348 1.404 . S
C349 H361 0.930 . S
C350 C346 1.524 . S
C350 H362 0.956 1_565 S
C350 H363 0.961 . S
C350 H364 0.961 . S
C351 C348 1.539 1_554 S
C351 H365 0.958 . S
C351 H366 0.961 . S
C351 H367 0.960 . S
H352 C336 0.931 . S
H353 C341 0.929 . S
H354 C342 0.960 . S
H355 C342 0.962 . S
H356 C342 0.960 1_554 S
H357 C343 0.961 . S
H358 C343 0.961 . S
H359 C343 0.961 . S
H360 C344 0.931 . S
H361 C349 0.930 . S
H362 C350 0.956 1_545 S
H363 C350 0.961 . S
H364 C350 0.961 . S
H365 C351 0.958 . S
H366 C351 0.961 . S
H367 C351 0.960 . S
C368 C369 1.391 . S
C368 C370 1.394 . S
C368 H384 0.931 . S
C369 C368 1.391 . S
C369 C373 1.376 . S
C370 C368 1.394 . S
C370 C371 1.369 . S
C370 C374 1.531 . S
C371 C370 1.369 . S
C371 C372 1.410 . S
C371 C379 1.503 . S
C372 C371 1.410 . S
C372 C373 1.392 . S
C372 C375 1.511 . S
C373 C369 1.376 . S
C373 C372 1.392 . S
C373 H385 0.929 . S
C374 C370 1.531 . S
C374 H386 0.960 . S
C374 H387 0.962 . S
C374 H388 0.960 . S
C375 C372 1.511 . S
C375 H389 0.961 . S
C375 H390 0.961 . S
C375 H391 0.961 . S
C376 C377 1.370 . S
C376 C378 1.363 . S
C376 H392 0.931 . S
C377 C376 1.370 . S
C377 C381 1.408 . S
C378 C376 1.363 . S
C378 C379 1.370 . S
C378 C382 1.524 . S
C379 C371 1.503 . S
C379 C378 1.370 . S
C379 C380 1.403 . S
C380 C379 1.403 . S
C380 C381 1.404 . S
C380 C383 1.539 . S
C381 C377 1.408 . S
C381 C380 1.404 . S
C381 H393 0.930 . S
C382 C378 1.524 . S
C382 H394 0.956 . S
C382 H395 0.961 . S
C382 H396 0.961 . S
C383 C380 1.539 . S
C383 H397 0.958 . S
C383 H398 0.961 . S
C383 H399 0.960 . S
H384 C368 0.931 . S
H385 C373 0.929 . S
H386 C374 0.960 . S
H387 C374 0.962 . S
H388 C374 0.960 . S
H389 C375 0.961 . S
H390 C375 0.961 . S
H391 C375 0.961 . S
H392 C376 0.931 . S
H393 C381 0.930 . S
H394 C382 0.956 . S
H395 C382 0.961 . S
H396 C382 0.961 . S
H397 C383 0.958 . S
H398 C383 0.961 . S
H399 C383 0.960 . S
C400 C401 1.391 . S
C400 C402 1.394 . S
C400 H416 0.931 . S
C401 C400 1.391 . S
C401 C405 1.376 . S
C402 C400 1.394 . S
C402 C403 1.369 . S
C402 C406 1.531 . S
C403 C402 1.369 . S
C403 C404 1.410 1_556 S
C403 C411 1.503 1_556 S
C404 C403 1.410 1_554 S
C404 C405 1.392 1_554 S
C404 C407 1.511 . S
C405 C401 1.376 . S
C405 C404 1.392 1_556 S
C405 H417 0.929 . S
C406 C402 1.531 . S
C406 H418 0.960 1_565 S
C406 H419 0.962 . S
C406 H420 0.960 1_565 S
C407 C404 1.511 . S
C407 H421 0.961 . S
C407 H422 0.961 . S
C407 H423 0.961 . S
C408 C409 1.370 . S
C408 C410 1.363 1_554 S
C408 H424 0.931 1_554 S
C409 C408 1.370 . S
C409 C413 1.408 . S
C410 C408 1.363 1_556 S
C410 C411 1.370 1_456 S
C410 C414 1.524 . S
C411 C403 1.503 1_554 S
C411 C410 1.370 1_654 S
C411 C412 1.403 . S
C412 C411 1.403 . S
C412 C413 1.404 1_655 S
C412 C415 1.539 . S
C413 C409 1.408 . S
C413 C412 1.404 1_455 S
C413 H425 0.930 . S
C414 C410 1.524 . S
C414 H426 0.956 1_455 S
C414 H427 0.961 1_455 S
C414 H428 0.961 . S
C415 C412 1.539 . S
C415 H429 0.958 1_565 S
C415 H430 0.961 . S
C415 H431 0.960 . S
H416 C400 0.931 . S
H417 C405 0.929 . S
H418 C406 0.960 1_545 S
H419 C406 0.962 . S
H420 C406 0.960 1_545 S
H421 C407 0.961 . S
H422 C407 0.961 . S
H423 C407 0.961 . S
H424 C408 0.931 1_556 S
H425 C413 0.930 . S
H426 C414 0.956 1_655 S
H427 C414 0.961 1_655 S
H428 C414 0.961 . S
H429 C415 0.958 1_545 S
H430 C415 0.961 . S
H431 C415 0.960 . S
C432 C433 1.391 . S
C432 C434 1.394 . S
C432 H448 0.931 . S
C433 C432 1.391 . S
C433 C437 1.376 . S
C434 C432 1.394 . S
C434 C435 1.369 . S
C434 C438 1.531 1_565 S
C435 C434 1.369 . S
C435 C436 1.410 . S
C435 C443 1.503 . S
C436 C435 1.410 . S
C436 C437 1.392 . S
C436 C439 1.511 1_554 S
C437 C433 1.376 . S
C437 C436 1.392 . S
C437 H449 0.929 1_554 S
C438 C434 1.531 1_545 S
C438 H450 0.960 . S
C438 H451 0.962 . S
C438 H452 0.960 . S
C439 C436 1.511 1_556 S
C439 H453 0.961 . S
C439 H454 0.961 . S
C439 H455 0.961 . S
C440 C441 1.370 . S
C440 C442 1.363 . S
C440 H456 0.931 . S
C441 C440 1.370 . S
C441 C445 1.408 1_546 S
C442 C440 1.363 . S
C442 C443 1.370 1_546 S
C442 C446 1.524 . S
C443 C435 1.503 . S
C443 C442 1.370 1_564 S
C443 C444 1.403 . S
C444 C443 1.403 . S
C444 C445 1.404 . S
C444 C447 1.539 . S
C445 C441 1.408 1_564 S
C445 C444 1.404 . S
C445 H457 0.930 . S
C446 C442 1.524 . S
C446 H458 0.956 1_556 S
C446 H459 0.961 . S
C446 H460 0.961 . S
C447 C444 1.539 . S
C447 H461 0.958 . S
C447 H462 0.961 . S
C447 H463 0.960 . S
H448 C432 0.931 . S
H449 C437 0.929 1_556 S
H450 C438 0.960 . S
H451 C438 0.962 . S
H452 C438 0.960 . S
H453 C439 0.961 . S
H454 C439 0.961 . S
H455 C439 0.961 . S
H456 C440 0.931 . S
H457 C445 0.930 . S
H458 C446 0.956 1_554 S
H459 C446 0.961 . S
H460 C446 0.961 . S
H461 C447 0.958 . S
H462 C447 0.961 . S
H463 C447 0.960 . S
C464 C465 1.391 . S
C464 C466 1.394 . S
C464 H480 0.931 . S
C465 C464 1.391 . S
C465 C469 1.376 . S
C466 C464 1.394 . S
C466 C467 1.369 . S
C466 C470 1.531 . S
C467 C466 1.369 . S
C467 C468 1.410 . S
C467 C475 1.503 1_455 S
C468 C467 1.410 . S
C468 C469 1.392 . S
C468 C471 1.511 1_455 S
C469 C465 1.376 . S
C469 C468 1.392 . S
C469 H481 0.929 . S
C470 C466 1.531 . S
C470 H482 0.960 . S
C470 H483 0.962 . S
C470 H484 0.960 . S
C471 C468 1.511 1_655 S
C471 H485 0.955 1_655 S
C471 H486 0.961 . S
C471 H487 0.961 . S
C472 C473 1.370 . S
C472 C474 1.363 . S
C472 H488 0.931 . S
C473 C472 1.370 . S
C473 C477 1.408 . S
C474 C472 1.363 . S
C474 C475 1.370 . S
C474 C478 1.511 1_655 S
C475 C467 1.503 1_655 S
C475 C474 1.370 . S
C475 C476 1.403 . S
C476 C475 1.403 . S
C476 C477 1.404 . S
C476 C479 1.539 . S
C477 C473 1.408 . S
C477 C476 1.404 . S
C477 H489 0.930 . S
C478 C474 1.511 1_455 S
C478 H490 0.974 . S
C478 H491 0.967 . S
C478 H492 0.950 1_455 S
C479 C476 1.539 . S
C479 H493 0.958 . S
C479 H494 0.961 . S
C479 H495 0.960 . S
H480 C464 0.931 . S
H481 C469 0.929 . S
H482 C470 0.960 . S
H483 C470 0.962 . S
H484 C470 0.960 . S
H485 C471 0.955 1_455 S
H486 C471 0.961 . S
H487 C471 0.961 . S
H488 C472 0.931 . S
H489 C477 0.930 . S
H490 C478 0.974 . S
H491 C478 0.967 . S
H492 C478 0.950 1_655 S
H493 C479 0.958 . S
H494 C479 0.961 . S
H495 C479 0.960 . S
C496 C497 1.391 . S
C496 C498 1.394 . S
C496 H512 0.931 . S
C497 C496 1.391 . S
C497 C501 1.376 . S
C498 C496 1.394 . S
C498 C499 1.369 . S
C498 C502 1.531 . S
C499 C498 1.369 . S
C499 C500 1.410 . S
C499 C507 1.503 . S
C500 C499 1.410 . S
C500 C501 1.392 . S
C500 C503 1.511 . S
C501 C497 1.376 . S
C501 C500 1.392 . S
C501 H513 0.929 . S
C502 C498 1.531 . S
C502 H514 0.960 . S
C502 H515 0.962 . S
C502 H516 0.960 . S
C503 C500 1.511 . S
C503 H517 0.961 . S
C503 H518 0.961 . S
C503 H519 0.961 . S
C504 C505 1.370 . S
C504 C506 1.363 . S
C504 H520 0.931 . S
C505 C504 1.370 . S
C505 C509 1.408 . S
C506 C504 1.363 . S
C506 C507 1.370 . S
C506 C510 1.524 . S
C507 C499 1.503 . S
C507 C506 1.370 . S
C507 C508 1.403 . S
C508 C507 1.403 . S
C508 C509 1.404 . S
C508 C511 1.539 . S
C509 C505 1.408 . S
C509 C508 1.404 . S
C509 H521 0.930 . S
C510 C506 1.524 . S
C510 H522 0.956 . S
C510 H523 0.961 . S
C510 H524 0.961 . S
C511 C508 1.539 . S
C511 H525 0.958 . S
C511 H526 0.961 . S
C511 H527 0.960 . S
H512 C496 0.931 . S
H513 C501 0.929 . S
H514 C502 0.960 . S
H515 C502 0.962 . S
H516 C502 0.960 . S
H517 C503 0.961 . S
H518 C503 0.961 . S
H519 C503 0.961 . S
H520 C504 0.931 . S
H521 C509 0.930 . S
H522 C510 0.956 . S
H523 C510 0.961 . S
H524 C510 0.961 . S
H525 C511 0.958 . S
H526 C511 0.961 . S
H527 C511 0.960 . S
C528 C529 1.391 . S
C528 C530 1.394 . S
C528 H544 0.931 . S
C529 C528 1.391 . S
C529 C533 1.376 1_545 S
C530 C528 1.394 . S
C530 C531 1.369 . S
C530 C534 1.531 . S
C531 C530 1.369 . S
C531 C532 1.410 1_545 S
C531 C539 1.503 1_545 S
C532 C531 1.410 1_565 S
C532 C533 1.392 . S
C532 C535 1.511 . S
C533 C529 1.376 1_565 S
C533 C532 1.392 . S
C533 H545 0.929 . S
C534 C530 1.531 . S
C534 H546 0.960 . S
C534 H547 0.962 . S
C534 H548 0.960 . S
C535 C532 1.511 . S
C535 H549 0.961 . S
C535 H550 0.961 . S
C535 H551 0.961 . S
C536 C537 1.370 . S
C536 C538 1.363 . S
C536 H552 0.931 . S
C537 C536 1.370 . S
C537 C541 1.408 1_565 S
C538 C536 1.363 . S
C538 C539 1.370 . S
C538 C542 1.524 . S
C539 C531 1.503 1_565 S
C539 C538 1.370 . S
C539 C540 1.403 1_565 S
C540 C539 1.403 1_545 S
C540 C541 1.404 . S
C540 C543 1.539 . S
C541 C537 1.408 1_545 S
C541 C540 1.404 . S
C541 H553 0.930 . S
C542 C538 1.524 . S
C542 H554 0.956 . S
C542 H555 0.961 . S
C542 H556 0.961 . S
C543 C540 1.539 . S
C543 H557 0.958 . S
C543 H558 0.961 . S
C543 H559 0.960 . S
H544 C528 0.931 . S
H545 C533 0.929 . S
H546 C534 0.960 . S
H547 C534 0.962 . S
H548 C534 0.960 . S
H549 C535 0.961 . S
H550 C535 0.961 . S
H551 C535 0.961 . S
H552 C536 0.931 . S
H553 C541 0.930 . S
H554 C542 0.956 . S
H555 C542 0.961 . S
H556 C542 0.961 . S
H557 C543 0.958 . S
H558 C543 0.961 . S
H559 C543 0.960 . S
C560 C561 1.391 . S
C560 C562 1.394 . S
C560 H576 0.931 . S
C561 C560 1.391 . S
C561 C565 1.376 . S
C562 C560 1.394 . S
C562 C563 1.369 . S
C562 C566 1.531 . S
C563 C562 1.369 . S
C563 C564 1.410 . S
C563 C571 1.503 . S
C564 C563 1.410 . S
C564 C565 1.392 . S
C564 C567 1.511 . S
C565 C561 1.376 . S
C565 C564 1.392 . S
C565 H577 0.929 . S
C566 C562 1.531 . S
C566 H578 0.960 . S
C566 H579 0.962 . S
C566 H580 0.960 . S
C567 C564 1.511 . S
C567 H581 0.961 1_565 S
C567 H582 0.961 . S
C567 H583 0.961 . S
C568 C569 1.370 . S
C568 C570 1.363 . S
C568 H584 0.931 . S
C569 C568 1.370 . S
C569 C573 1.408 . S
C570 C568 1.363 . S
C570 C571 1.370 . S
C570 C574 1.524 . S
C571 C563 1.503 . S
C571 C570 1.370 . S
C571 C572 1.403 . S
C572 C571 1.403 . S
C572 C573 1.404 . S
C572 C575 1.539 . S
C573 C569 1.408 . S
C573 C572 1.404 . S
C573 H585 0.930 . S
C574 C570 1.524 . S
C574 H586 0.956 . S
C574 H587 0.961 . S
C574 H588 0.961 . S
C575 C572 1.539 . S
C575 H589 0.958 . S
C575 H590 0.961 . S
C575 H591 0.960 . S
H576 C560 0.931 . S
H577 C565 0.929 . S
H578 C566 0.960 . S
H579 C566 0.962 . S
H580 C566 0.960 . S
H581 C567 0.961 1_545 S
H582 C567 0.961 . S
H583 C567 0.961 . S
H584 C568 0.931 . S
H585 C573 0.930 . S
H586 C574 0.956 . S
H587 C574 0.961 . S
H588 C574 0.961 . S
H589 C575 0.958 . S
H590 C575 0.961 . S
H591 C575 0.960 . S
C592 C593 1.391 . S
C592 C594 1.394 . S
C592 H608 0.931 . S
C593 C592 1.391 . S
C593 C597 1.376 . S
C594 C592 1.394 . S
C594 C595 1.369 . S
C594 C598 1.531 . S
C595 C594 1.369 . S
C595 C596 1.410 . S
C595 C603 1.503 . S
C596 C595 1.410 . S
C596 C597 1.392 . S
C596 C599 1.511 . S
C597 C593 1.376 . S
C597 C596 1.392 . S
C597 H609 0.929 . S
C598 C594 1.531 . S
C598 H610 0.960 . S
C598 H611 0.962 . S
C598 H612 0.960 . S
C599 C596 1.511 . S
C599 H613 0.961 . S
C599 H614 0.961 . S
C599 H615 0.961 . S
C600 C601 1.370 . S
C600 C602 1.363 . S
C600 H616 0.931 . S
C601 C600 1.370 . S
C601 C605 1.408 . S
C602 C600 1.363 . S
C602 C603 1.370 1_554 S
C602 C606 1.524 1_554 S
C603 C595 1.503 . S
C603 C602 1.370 1_556 S
C603 C604 1.403 . S
C604 C603 1.403 . S
C604 C605 1.404 1_556 S
C604 C607 1.539 . S
C605 C601 1.408 . S
C605 C604 1.404 1_554 S
C605 H617 0.930 . S
C606 C602 1.524 1_556 S
C606 H618 0.956 . S
C606 H619 0.961 . S
C606 H620 0.961 1_556 S
C607 C604 1.539 . S
C607 H621 0.958 . S
C607 H622 0.961 . S
C607 H623 0.960 . S
H608 C592 0.931 . S
H609 C597 0.929 . S
H610 C598 0.960 . S
H611 C598 0.962 . S
H612 C598 0.960 . S
H613 C599 0.961 . S
H614 C599 0.961 . S
H615 C599 0.961 . S
H616 C600 0.931 . S
H617 C605 0.930 . S
H618 C606 0.956 . S
H619 C606 0.961 . S
H620 C606 0.961 1_554 S
H621 C607 0.958 . S
H622 C607 0.961 . S
H623 C607 0.960 . S
C624 C625 1.391 . S
C624 C626 1.402 . S
C624 H640 0.931 . S
C625 C624 1.391 . S
C625 C629 1.376 . S
C626 C624 1.402 . S
C626 C627 1.365 1_554 S
C626 C630 1.526 1_554 S
C627 C626 1.365 1_556 S
C627 C628 1.410 1_556 S
C627 C635 1.503 . S
C628 C627 1.410 1_554 S
C628 C629 1.392 . S
C628 C631 1.511 1_554 S
C629 C625 1.376 . S
C629 C628 1.392 . S
C629 H641 0.929 . S
C630 C626 1.526 1_556 S
C630 H642 0.960 . S
C630 H643 0.962 . S
C630 H644 0.960 . S
C631 C628 1.511 1_556 S
C631 H645 0.961 1_556 S
C631 H646 0.961 . S
C631 H647 0.961 . S
C632 C633 1.370 . S
C632 C634 1.363 . S
C632 H648 0.931 . S
C633 C632 1.370 . S
C633 C637 1.408 . S
C634 C632 1.363 . S
C634 C635 1.370 . S
C634 C638 1.524 . S
C635 C627 1.503 . S
C635 C634 1.370 . S
C635 C636 1.403 . S
C636 C635 1.403 . S
C636 C637 1.404 . S
C636 C639 1.539 . S
C637 C633 1.408 . S
C637 C636 1.404 . S
C637 H649 0.930 . S
C638 C634 1.524 . S
C638 H650 0.956 . S
C638 H651 0.961 . S
C638 H652 0.961 . S
C639 C636 1.539 . S
C639 H653 0.958 . S
C639 H654 0.961 . S
C639 H655 0.960 . S
H640 C624 0.931 . S
H641 C629 0.929 . S
H642 C630 0.960 . S
H643 C630 0.962 . S
H644 C630 0.960 . S
H645 C631 0.961 1_554 S
H646 C631 0.961 . S
H647 C631 0.961 . S
H648 C632 0.931 . S
H649 C637 0.930 . S
H650 C638 0.956 . S
H651 C638 0.961 . S
H652 C638 0.961 . S
H653 C639 0.958 . S
H654 C639 0.961 . S
H655 C639 0.960 . S
C656 C657 1.391 . S
C656 C658 1.394 . S
C656 H672 0.931 . S
C657 C656 1.391 . S
C657 C661 1.376 . S
C658 C656 1.394 . S
C658 C659 1.369 . S
C658 C662 1.531 . S
C659 C658 1.369 . S
C659 C660 1.410 . S
C659 C667 1.503 . S
C660 C659 1.410 . S
C660 C661 1.392 . S
C660 C663 1.511 . S
C661 C657 1.376 . S
C661 C660 1.392 . S
C661 H673 0.929 . S
C662 C658 1.531 . S
C662 H674 0.960 . S
C662 H675 0.962 . S
C662 H676 0.960 . S
C663 C660 1.511 . S
C663 H677 0.961 . S
C663 H678 0.961 . S
C663 H679 0.961 . S
C664 C665 1.370 . S
C664 C666 1.363 . S
C664 H680 0.931 . S
C665 C664 1.370 . S
C665 C669 1.408 . S
C666 C664 1.363 . S
C666 C667 1.370 . S
C666 C670 1.524 . S
C667 C659 1.503 . S
C667 C666 1.370 . S
C667 C668 1.403 . S
C668 C667 1.403 . S
C668 C669 1.404 . S
C668 C671 1.539 . S
C669 C665 1.408 . S
C669 C668 1.404 . S
C669 H681 0.930 . S
C670 C666 1.524 . S
C670 H682 0.956 . S
C670 H683 0.961 . S
C670 H684 0.961 . S
C671 C668 1.539 . S
C671 H685 0.958 . S
C671 H686 0.961 . S
C671 H687 0.960 . S
H672 C656 0.931 . S
H673 C661 0.929 . S
H674 C662 0.960 . S
H675 C662 0.962 . S
H676 C662 0.960 . S
H677 C663 0.961 . S
H678 C663 0.961 . S
H679 C663 0.961 . S
H680 C664 0.931 . S
H681 C669 0.930 . S
H682 C670 0.956 . S
H683 C670 0.961 . S
H684 C670 0.961 . S
H685 C671 0.958 . S
H686 C671 0.961 . S
H687 C671 0.960 . S
C688 C689 1.391 . S
C688 C690 1.394 . S
C688 H704 0.931 . S
C689 C688 1.391 . S
C689 C693 1.376 . S
C690 C688 1.394 . S
C690 C691 1.369 . S
C690 C694 1.531 . S
C691 C690 1.369 . S
C691 C692 1.410 . S
C691 C699 1.503 . S
C692 C691 1.410 . S
C692 C693 1.392 . S
C692 C695 1.511 . S
C693 C689 1.376 . S
C693 C692 1.392 . S
C693 H705 0.929 . S
C694 C690 1.531 . S
C694 H706 0.960 . S
C694 H707 0.962 . S
C694 H708 0.960 . S
C695 C692 1.511 . S
C695 H709 0.961 1_545 S
C695 H710 0.961 . S
C695 H711 0.961 . S
C696 C697 1.370 . S
C696 C698 1.363 . S
C696 H712 0.931 . S
C697 C696 1.370 . S
C697 C701 1.408 . S
C698 C696 1.363 . S
C698 C699 1.370 . S
C698 C702 1.524 1_545 S
C699 C691 1.503 . S
C699 C698 1.370 . S
C699 C700 1.403 . S
C700 C699 1.403 . S
C700 C701 1.404 . S
C700 C703 1.539 . S
C701 C697 1.408 . S
C701 C700 1.404 . S
C701 H713 0.930 . S
C702 C698 1.524 1_565 S
C702 H714 0.956 . S
C702 H715 0.961 . S
C702 H716 0.961 . S
C703 C700 1.539 . S
C703 H717 0.958 . S
C703 H718 0.961 . S
C703 H719 0.960 . S
H704 C688 0.931 . S
H705 C693 0.929 . S
H706 C694 0.960 . S
H707 C694 0.962 . S
H708 C694 0.960 . S
H709 C695 0.961 1_565 S
H710 C695 0.961 . S
H711 C695 0.961 . S
H712 C696 0.931 . S
H713 C701 0.930 . S
H714 C702 0.956 . S
H715 C702 0.961 . S
H716 C702 0.961 . S
H717 C703 0.958 . S
H718 C703 0.961 . S
H719 C703 0.960 . S
C720 C721 1.391 . S
C720 C722 1.394 . S
C720 H736 0.931 . S
C721 C720 1.391 . S
C721 C725 1.376 . S
C722 C720 1.394 . S
C722 C723 1.369 . S
C722 C726 1.531 . S
C723 C722 1.369 . S
C723 C724 1.410 . S
C723 C731 1.503 . S
C724 C723 1.410 . S
C724 C725 1.392 . S
C724 C727 1.511 . S
C725 C721 1.376 . S
C725 C724 1.392 . S
C725 H737 0.929 . S
C726 C722 1.531 . S
C726 H738 0.960 . S
C726 H739 0.962 . S
C726 H740 0.960 . S
C727 C724 1.511 . S
C727 H741 0.961 . S
C727 H742 0.961 . S
C727 H743 0.961 . S
C728 C729 1.370 . S
C728 C730 1.363 1_556 S
C728 H744 0.931 . S
C729 C728 1.370 . S
C729 C733 1.408 . S
C730 C728 1.363 1_554 S
C730 C731 1.370 . S
C730 C734 1.524 . S
C731 C723 1.503 . S
C731 C730 1.370 . S
C731 C732 1.398 1_554 S
C732 C731 1.398 1_556 S
C732 C733 1.414 . S
C732 C735 1.535 1_556 S
C733 C729 1.408 . S
C733 C732 1.414 . S
C733 H745 0.930 . S
C734 C730 1.524 . S
C734 H746 0.956 . S
C734 H747 0.961 . S
C734 H748 0.961 . S
C735 C732 1.535 1_554 S
C735 H749 0.958 . S
C735 H750 0.961 . S
C735 H751 0.960 . S
H736 C720 0.931 . S
H737 C725 0.929 . S
H738 C726 0.960 . S
H739 C726 0.962 . S
H740 C726 0.960 . S
H741 C727 0.961 . S
H742 C727 0.961 . S
H743 C727 0.961 . S
H744 C728 0.931 . S
H745 C733 0.930 . S
H746 C734 0.956 . S
H747 C734 0.961 . S
H748 C734 0.961 . S
H749 C735 0.958 . S
H750 C735 0.961 . S
H751 C735 0.960 . S
C752 C753 1.391 . S
C752 C754 1.394 . S
C752 H768 0.931 . S
C753 C752 1.391 . S
C753 C757 1.376 . S
C754 C752 1.394 . S
C754 C755 1.369 . S
C754 C758 1.531 . S
C755 C754 1.369 . S
C755 C756 1.410 . S
C755 C763 1.503 . S
C756 C755 1.410 . S
C756 C757 1.392 . S
C756 C759 1.511 . S
C757 C753 1.376 . S
C757 C756 1.392 . S
C757 H769 0.929 . S
C758 C754 1.531 . S
C758 H770 0.960 . S
C758 H771 0.962 . S
C758 H772 0.960 . S
C759 C756 1.511 . S
C759 H773 0.961 . S
C759 H774 0.961 . S
C759 H775 0.961 . S
C760 C761 1.370 . S
C760 C762 1.363 . S
C760 H776 0.931 . S
C761 C760 1.370 . S
C761 C765 1.408 . S
C762 C760 1.363 . S
C762 C763 1.370 1_556 S
C762 C766 1.524 1_556 S
C763 C755 1.503 . S
C763 C762 1.370 1_554 S
C763 C764 1.403 . S
C764 C763 1.403 . S
C764 C765 1.404 1_554 S
C764 C767 1.539 . S
C765 C761 1.408 . S
C765 C764 1.404 1_556 S
C765 H777 0.930 . S
C766 C762 1.524 1_554 S
C766 H778 0.956 . S
C766 H779 0.961 . S
C766 H780 0.961 1_554 S
C767 C764 1.539 . S
C767 H781 0.958 . S
C767 H782 0.961 . S
C767 H783 0.960 . S
H768 C752 0.931 . S
H769 C757 0.929 . S
H770 C758 0.960 . S
H771 C758 0.962 . S
H772 C758 0.960 . S
H773 C759 0.961 . S
H774 C759 0.961 . S
H775 C759 0.961 . S
H776 C760 0.931 . S
H777 C765 0.930 . S
H778 C766 0.956 . S
H779 C766 0.961 . S
H780 C766 0.961 1_556 S
H781 C767 0.958 . S
H782 C767 0.961 . S
H783 C767 0.960 . S
C784 C785 1.391 . S
C784 C786 1.394 . S
C784 H800 0.931 . S
C785 C784 1.391 . S
C785 C789 1.376 . S
C786 C784 1.394 . S
C786 C787 1.369 . S
C786 C790 1.531 . S
C787 C786 1.369 . S
C787 C788 1.410 . S
C787 C795 1.503 . S
C788 C787 1.410 . S
C788 C789 1.392 . S
C788 C791 1.511 . S
C789 C785 1.376 . S
C789 C788 1.392 . S
C789 H801 0.929 . S
C790 C786 1.531 . S
C790 H802 0.960 . S
C790 H803 0.962 . S
C790 H804 0.960 . S
C791 C788 1.511 . S
C791 H805 0.961 . S
C791 H806 0.961 . S
C791 H807 0.961 . S
C792 C793 1.370 . S
C792 C794 1.363 . S
C792 H808 0.931 . S
C793 C792 1.370 . S
C793 C797 1.408 . S
C794 C792 1.363 . S
C794 C795 1.370 . S
C794 C798 1.524 . S
C795 C787 1.503 . S
C795 C794 1.370 . S
C795 C796 1.403 . S
C796 C795 1.403 . S
C796 C797 1.404 . S
C796 C799 1.539 . S
C797 C793 1.408 . S
C797 C796 1.404 . S
C797 H809 0.930 . S
C798 C794 1.524 . S
C798 H810 0.956 . S
C798 H811 0.961 . S
C798 H812 0.961 . S
C799 C796 1.539 . S
C799 H813 0.958 . S
C799 H814 0.961 . S
C799 H815 0.960 . S
H800 C784 0.931 . S
H801 C789 0.929 . S
H802 C790 0.960 . S
H803 C790 0.962 . S
H804 C790 0.960 . S
H805 C791 0.961 . S
H806 C791 0.961 . S
H807 C791 0.961 . S
H808 C792 0.931 . S
H809 C797 0.930 . S
H810 C798 0.956 . S
H811 C798 0.961 . S
H812 C798 0.961 . S
H813 C799 0.958 . S
H814 C799 0.961 . S
H815 C799 0.960 . S
C816 C817 1.391 . S
C816 C818 1.394 . S
C816 H832 0.931 . S
C817 C816 1.391 . S
C817 C821 1.376 . S
C818 C816 1.394 . S
C818 C819 1.369 . S
C818 C822 1.531 . S
C819 C818 1.369 . S
C819 C820 1.410 . S
C819 C827 1.503 . S
C820 C819 1.410 . S
C820 C821 1.392 . S
C820 C823 1.511 . S
C821 C817 1.376 . S
C821 C820 1.392 . S
C821 H833 0.929 . S
C822 C818 1.531 . S
C822 H834 0.960 . S
C822 H835 0.962 . S
C822 H836 0.960 . S
C823 C820 1.511 . S
C823 H837 0.961 . S
C823 H838 0.961 . S
C823 H839 0.961 . S
C824 C825 1.370 . S
C824 C826 1.363 . S
C824 H840 0.931 . S
C825 C824 1.370 . S
C825 C829 1.408 . S
C826 C824 1.363 . S
C826 C827 1.370 . S
C826 C830 1.524 . S
C827 C819 1.503 . S
C827 C826 1.370 . S
C827 C828 1.403 . S
C828 C827 1.403 . S
C828 C829 1.404 . S
C828 C831 1.539 . S
C829 C825 1.408 . S
C829 C828 1.404 . S
C829 H841 0.930 . S
C830 C826 1.524 . S
C830 H842 0.956 . S
C830 H843 0.961 . S
C830 H844 0.961 . S
C831 C828 1.539 . S
C831 H845 0.958 . S
C831 H846 0.961 . S
C831 H847 0.960 . S
H832 C816 0.931 . S
H833 C821 0.929 . S
H834 C822 0.960 . S
H835 C822 0.962 . S
H836 C822 0.960 . S
H837 C823 0.961 . S
H838 C823 0.961 . S
H839 C823 0.961 . S
H840 C824 0.931 . S
H841 C829 0.930 . S
H842 C830 0.956 . S
H843 C830 0.961 . S
H844 C830 0.961 . S
H845 C831 0.958 . S
H846 C831 0.961 . S
H847 C831 0.960 . S
C848 C849 1.391 . S
C848 C850 1.394 . S
C848 H864 0.931 . S
C849 C848 1.391 . S
C849 C853 1.376 . S
C850 C848 1.394 . S
C850 C851 1.369 . S
C850 C854 1.531 . S
C851 C850 1.369 . S
C851 C852 1.410 . S
C851 C859 1.503 . S
C852 C851 1.410 . S
C852 C853 1.392 . S
C852 C855 1.511 . S
C853 C849 1.376 . S
C853 C852 1.392 . S
C853 H865 0.929 . S
C854 C850 1.531 . S
C854 H866 0.960 . S
C854 H867 0.962 . S
C854 H868 0.960 . S
C855 C852 1.511 . S
C855 H869 0.961 . S
C855 H870 0.961 . S
C855 H871 0.961 . S
C856 C857 1.370 . S
C856 C858 1.363 . S
C856 H872 0.931 . S
C857 C856 1.370 . S
C857 C861 1.408 . S
C858 C856 1.363 . S
C858 C859 1.370 . S
C858 C862 1.524 . S
C859 C851 1.503 . S
C859 C858 1.370 . S
C859 C860 1.403 . S
C860 C859 1.403 . S
C860 C861 1.404 . S
C860 C863 1.539 . S
C861 C857 1.408 . S
C861 C860 1.404 . S
C861 H873 0.930 . S
C862 C858 1.524 . S
C862 H874 0.956 . S
C862 H875 0.961 . S
C862 H876 0.961 . S
C863 C860 1.539 . S
C863 H877 0.958 . S
C863 H878 0.961 . S
C863 H879 0.960 . S
H864 C848 0.931 . S
H865 C853 0.929 . S
H866 C854 0.960 . S
H867 C854 0.962 . S
H868 C854 0.960 . S
H869 C855 0.961 . S
H870 C855 0.961 . S
H871 C855 0.961 . S
H872 C856 0.931 . S
H873 C861 0.930 . S
H874 C862 0.956 . S
H875 C862 0.961 . S
H876 C862 0.961 . S
H877 C863 0.958 . S
H878 C863 0.961 . S
H879 C863 0.960 . S
C880 C881 1.391 . S
C880 C882 1.394 . S
C880 H896 0.931 . S
C881 C880 1.391 . S
C881 C885 1.376 . S
C882 C880 1.394 . S
C882 C883 1.369 . S
C882 C886 1.531 . S
C883 C882 1.369 . S
C883 C884 1.410 . S
C883 C891 1.503 . S
C884 C883 1.410 . S
C884 C885 1.392 . S
C884 C887 1.511 . S
C885 C881 1.376 . S
C885 C884 1.392 . S
C885 H897 0.929 . S
C886 C882 1.531 . S
C886 H898 0.960 . S
C886 H899 0.962 . S
C886 H900 0.960 . S
C887 C884 1.511 . S
C887 H901 0.961 . S
C887 H902 0.961 . S
C887 H903 0.961 . S
C888 C889 1.370 . S
C888 C890 1.363 . S
C888 H904 0.931 . S
C889 C888 1.370 . S
C889 C893 1.408 . S
C890 C888 1.363 . S
C890 C891 1.370 . S
C890 C894 1.524 . S
C891 C883 1.503 . S
C891 C890 1.370 . S
C891 C892 1.403 . S
C892 C891 1.403 . S
C892 C893 1.404 . S
C892 C895 1.539 . S
C893 C889 1.408 . S
C893 C892 1.404 . S
C893 H905 0.930 . S
C894 C890 1.524 . S
C894 H906 0.956 . S
C894 H907 0.961 . S
C894 H908 0.961 . S
C895 C892 1.539 . S
C895 H909 0.958 . S
C895 H910 0.961 . S
C895 H911 0.960 . S
H896 C880 0.931 . S
H897 C885 0.929 . S
H898 C886 0.960 . S
H899 C886 0.962 . S
H900 C886 0.960 . S
H901 C887 0.961 . S
H902 C887 0.961 . S
H903 C887 0.961 . S
H904 C888 0.931 . S
H905 C893 0.930 . S
H906 C894 0.956 . S
H907 C894 0.961 . S
H908 C894 0.961 . S
H909 C895 0.958 . S
H910 C895 0.961 . S
H911 C895 0.960 . S
C273 C36 1.811 . S
C281 C2 1.802 1_565 S
C305 C70 1.429 . S
C313 C104 1.445 . S
C337 C172 1.725 . S
C345 C138 1.718 . S
C369 C206 1.137 . S
C377 C240 1.128 . S
C401 C169 1.775 . S
C409 C20 1.790 . S
C433 C54 1.740 . S
C441 C190 1.739 . S
C465 C88 1.232 . S
C473 C224 1.208 . S
C497 C122 1.579 . S
C505 C258 1.572 . S
C529 C9 1.260 . S
C537 C5 1.283 . S
C561 C39 1.263 . S
C569 C43 1.208 . S
C593 C77 1.258 . S
C601 C73 1.292 . S
C625 C107 1.256 . S
C633 C111 1.232 . S
C657 C141 1.312 . S
C665 C145 1.254 . S
C689 C175 1.275 . S
C697 C179 1.249 . S
C721 C213 1.248 . S
C729 C209 1.250 . S
C753 C247 1.287 . S
C761 C243 1.289 . S
C785 C33 1.626 . S
C793 C101 1.625 . S
C817 C67 1.846 . S
C825 C135 1.858 . S
C849 C156 1.419 . S
C857 C237 1.420 . S
C881 C203 1.343 . S
C889 C271 1.387 . S
