# Generated by pormake.
# Topology qtz-x, (6)-cn, num edge types: 1
# Building blocks:
#     Node 0, Type 0, BuildingBlock: HISSIN_clean_sbu_0, # of connection points: 6
#     Node 1, Type 0, BuildingBlock: HISSIN_clean_sbu_0, # of connection points: 6
#     Node 2, Type 0, BuildingBlock: HISSIN_clean_sbu_0, # of connection points: 6
#     Edge 3, Type (0, 0), BuildingBlock: MIFKUJ_clean_linker_0, # of connection points: 2
#     Edge 4, Type (0, 0), BuildingBlock: MIFKUJ_clean_linker_0, # of connection points: 2
#     Edge 5, Type (0, 0), BuildingBlock: MIFKUJ_clean_linker_0, # of connection points: 2
#     Edge 6, Type (0, 0), BuildingBlock: MIFKUJ_clean_linker_0, # of connection points: 2
#     Edge 7, Type (0, 0), BuildingBlock: MIFKUJ_clean_linker_0, # of connection points: 2
#     Edge 8, Type (0, 0), BuildingBlock: MIFKUJ_clean_linker_0, # of connection points: 2
#     Edge 9, Type (0, 0), BuildingBlock: MIFKUJ_clean_linker_0, # of connection points: 2
#     Edge 10, Type (0, 0), BuildingBlock: MIFKUJ_clean_linker_0, # of connection points: 2
#     Edge 11, Type (0, 0), BuildingBlock: MIFKUJ_clean_linker_0, # of connection points: 2
# Relax obj value: 0.186
# Max RMSD: 0.239
# Mean RMSD: 0.226
data_MOF--net-qtz-x--node1-HISSIN_clean_sbu_0--edge1-MIFKUJ_clean_linker_0
_symmetry_space_group_name_H-M    P1
_symmetry_Int_Tables_number       1
_symmetry_cell_setting            triclinic
loop_
_symmetry_equiv_pos_as_xyz
'x, y, z'
_cell_length_a     19.530069
_cell_length_b     19.518813
_cell_length_c     65.722528
_cell_angle_alpha  72.971542
_cell_angle_beta   110.08877
_cell_angle_gamma 120.58792
loop_
_atom_site_label
_atom_site_type_symbol
_atom_site_fract_x
_atom_site_fract_y
_atom_site_fract_z
_atom_type_partial_charge
Eu0 Eu 0.95435 0.55834 0.19505 0.0
Eu1 Eu 0.13571 0.65517 0.18259 0.0
C2 C 0.0477 0.4673 0.19385 0.0
C3 C 0.81011 0.44708 0.23258 0.0
C4 C 0.87514 0.44353 0.24997 0.0
C5 C 0.72537 0.39613 0.25858 0.0
C6 C 0.86576 0.4172 0.27148 0.0
C7 C 0.73512 0.42321 0.23701 0.0
C8 C 0.79079 0.39316 0.27608 0.0
C9 C 0.82144 0.47652 0.21 0.0
O10 O 0.04187 0.60403 0.15246 0.0
O11 O 0.92353 0.58732 0.158 0.0
C12 C 0.96622 0.59456 0.14501 0.0
O13 O 0.99455 0.69003 0.19243 0.0
O14 O 0.23366 0.64433 0.17728 0.0
O15 O 0.24344 0.76241 0.17375 0.0
O16 O 0.08272 0.74251 0.16987 0.0
C17 C 0.0361 0.74891 0.17885 0.0
O18 O 0.05073 0.57112 0.22686 0.0
O19 O 0.16314 0.68116 0.21644 0.0
O20 O 0.11543 0.53104 0.19992 0.0
O21 O 0.85473 0.55432 0.20437 0.0
O22 O 0.85307 0.44373 0.2037 0.0
O23 O 0.9778 0.47017 0.18654 0.0
C24 C 0.29669 0.74148 0.1496 0.0
C25 C 0.29039 0.80578 0.13374 0.0
C26 C 0.34105 0.70905 0.12487 0.0
C27 C 0.30871 0.82108 0.11357 0.0
C28 C 0.32353 0.69424 0.14507 0.0
C29 C 0.33309 0.7721 0.10884 0.0
C30 C 0.27327 0.72088 0.17057 0.0
C31 C 0.12337 0.63242 0.23159 0.0
H32 H 0.93326 0.46079 0.24691 0.0
H33 H 0.66704 0.37862 0.26159 0.0
H34 H 0.917 0.41456 0.28448 0.0
H35 H 0.68424 0.42566 0.22382 0.0
H36 H 0.27012 0.84352 0.13673 0.0
H37 H 0.3609 0.6711 0.1218 0.0
H38 H 0.30175 0.8699 0.10146 0.0
H39 H 0.32979 0.64485 0.15706 0.0
Eu40 Eu 0.79803 0.1263 0.55234 0.0
Eu41 Eu 0.68212 0.94053 0.53879 0.0
C42 C 0.60423 0.04419 0.54162 0.0
C43 C 0.89865 0.29962 0.58474 0.0
C44 C 0.83585 0.31008 0.58715 0.0
C45 C 0.98035 0.3443 0.62007 0.0
C46 C 0.84514 0.33698 0.60588 0.0
C47 C 0.97139 0.31811 0.60125 0.0
C48 C 0.91709 0.35347 0.62264 0.0
C49 C 0.88817 0.2665 0.5657 0.0
O50 O 0.7221 0.02134 0.5083 0.0
O51 O 0.76305 0.14733 0.51545 0.0
C52 C 0.74225 0.09824 0.50192 0.0
O53 O 0.8773 0.08996 0.54475 0.0
O54 O 0.56313 0.83619 0.53064 0.0
O55 O 0.67304 0.83791 0.52921 0.0
O56 O 0.8088 0.95468 0.55548 0.0
C57 C 0.87526 0.01898 0.55148 0.0
O58 O 0.78932 0.04237 0.58429 0.0
O59 O 0.67995 0.92193 0.5743 0.0
O60 O 0.60314 0.00258 0.529 0.0
O61 O 0.91357 0.21232 0.57006 0.0
O62 O 0.81857 0.24814 0.55106 0.0
O63 O 0.67147 0.0843 0.55544 0.0
C64 C 0.5551 0.78344 0.50136 0.0
C65 C 0.5902 0.83699 0.484 0.0
C66 C 0.44619 0.6949 0.47542 0.0
C67 C 0.55393 0.81964 0.46258 0.0
C68 C 0.48277 0.71236 0.49692 0.0
C69 C 0.48152 0.74832 0.458 0.0
C70 C 0.59321 0.80282 0.5239 0.0
C71 C 0.73309 0.96902 0.58921 0.0
H72 H 0.77891 0.29627 0.57477 0.0
H73 H 0.03683 0.3575 0.63261 0.0
H74 H 0.7951 0.34288 0.60751 0.0
H75 H 0.02095 0.31108 0.59975 0.0
H76 H 0.64576 0.8925 0.48697 0.0
H77 H 0.39079 0.6392 0.47246 0.0
H78 H 0.58206 0.86279 0.44955 0.0
H79 H 0.45461 0.67041 0.51007 0.0
Eu80 Eu 0.73254 0.81645 0.86282 0.0
Eu81 Eu 0.83911 0.71868 0.8681 0.0
C82 C 0.64528 0.63413 0.85654 0.0
C83 C 0.60103 0.87744 0.87668 0.0
C84 C 0.58407 0.81186 0.89355 0.0
C85 C 0.53867 0.93014 0.89028 0.0
C86 C 0.54523 0.8057 0.90878 0.0
C87 C 0.57746 0.93613 0.87499 0.0
C88 C 0.52288 0.86524 0.90749 0.0
C89 C 0.64806 0.88715 0.86186 0.0
O90 O 0.82196 0.77267 0.83254 0.0
O91 O 0.72456 0.8141 0.82777 0.0
C92 C 0.76909 0.79948 0.82 0.0
O93 O 0.85432 0.90904 0.85605 0.0
O94 O 0.84738 0.6073 0.87249 0.0
O95 O 0.95449 0.72257 0.87006 0.0
O96 O 0.92803 0.84131 0.87729 0.0
C97 C 0.92411 0.90745 0.86628 0.0
O98 O 0.78128 0.78961 0.89919 0.0
O99 O 0.8105 0.68711 0.90102 0.0
O100 O 0.70937 0.64649 0.85102 0.0
O101 O 0.7269 0.91548 0.86997 0.0
O102 O 0.61864 0.82656 0.85148 0.0
O103 O 0.64963 0.68385 0.86721 0.0
C104 C 0.93392 0.62327 0.85185 0.0
C105 C 0.96172 0.6809 0.83402 0.0
C106 C 0.91723 0.52001 0.8344 0.0
C107 C 0.96676 0.65828 0.81654 0.0
C108 C 0.91278 0.54285 0.85203 0.0
C109 C 0.94321 0.57738 0.8163 0.0
C110 C 0.92149 0.6457 0.86942 0.0
C111 C 0.79828 0.72991 0.9103 0.0
H112 H 0.6027 0.7664 0.89524 0.0
H113 H 0.5218 -0.02332 0.88877 0.0
H114 H 0.53543 0.75576 0.92203 0.0
H115 H 0.59049 -0.01265 0.86212 0.0
H116 H 0.97823 0.74347 0.8333 0.0
H117 H 0.89782 0.45705 0.83465 0.0
H118 H 0.98855 0.70432 0.8031 0.0
H119 H 0.89075 0.49733 0.86553 0.0
H120 H 0.14953 0.89804 0.16518 0.0
H121 H 0.15325 0.02726 0.16314 0.0
H122 H 0.92061 0.90281 0.18068 0.0
H123 H 0.91689 0.77364 0.18309 0.0
H124 H 0.94487 0.04587 0.14708 0.0
H125 H 0.07663 0.95015 0.21868 0.0
H126 H 0.17763 0.90256 0.24203 0.0
H127 H 0.37316 0.12963 0.22399 0.0
H128 H 0.27282 0.17704 0.19952 0.0
H129 H 0.92219 0.31584 0.19158 0.0
H130 H 0.92434 0.19865 0.18607 0.0
H131 H 0.18153 0.33885 0.18686 0.0
H132 H 0.18039 0.45559 0.1932 0.0
H133 H 0.15427 0.19582 0.20779 0.0
H134 H 0.03176 0.29851 0.13843 0.0
H135 H 0.93624 0.34774 0.11166 0.0
H136 H 0.73291 0.11736 0.12295 0.0
H137 H 0.82709 0.06713 0.15009 0.0
C138 C 0.09848 0.89824 0.16819 0.0
C139 C 0.03348 0.82601 0.17461 0.0
C140 C 0.10068 -0.02805 0.16698 0.0
C141 C 0.03744 -0.0259 0.17191 0.0
C142 C 0.96984 0.90204 0.17681 0.0
C143 C 0.9682 0.82848 0.17836 0.0
C144 C 0.04578 0.0506 0.17457 0.0
C145 C 0.99024 0.07873 0.16037 0.0
C146 C 0.10672 0.09407 0.19158 0.0
C147 C 0.1671 0.06675 0.20701 0.0
C148 C 0.14108 -0.01033 0.21948 0.0
C149 C 0.19823 0.96268 0.23292 0.0
C150 C 0.28182 0.01313 0.23458 0.0
C151 C 0.30837 0.09058 0.22269 0.0
C152 C 0.25134 0.11738 0.20893 0.0
C153 C 0.97935 0.32143 0.19079 0.0
C154 C 0.05101 0.39482 0.19271 0.0
C155 C 0.98039 0.25465 0.18747 0.0
C156 C 0.05263 0.26058 0.18549 0.0
C157 C 0.125 0.33306 0.1882 0.0
C158 C 0.12429 0.39963 0.19187 0.0
C159 C 0.05225 0.19113 0.18048 0.0
C160 C 0.10932 0.164 0.19428 0.0
C161 C 0.99353 0.14938 0.16284 0.0
C162 C 0.93654 0.17926 0.14646 0.0
C163 C 0.96664 0.25851 0.13534 0.0
C164 C 0.91273 0.28659 0.12008 0.0
C165 C 0.82855 0.23576 0.11564 0.0
C166 C 0.79813 0.15669 0.12642 0.0
C167 C 0.85176 0.12837 0.14174 0.0
H168 H 0.78692 0.2576 0.10382 0.0
H169 H 0.32599 -0.00779 0.24508 0.0
H170 H 0.44917 0.93636 0.52454 0.0
H171 H 0.32149 0.92295 0.52738 0.0
H172 H 0.45714 0.13029 0.56118 0.0
H173 H 0.58539 0.1425 0.55904 0.0
H174 H 0.34577 0.01443 0.58151 0.0
H175 H 0.3497 0.13871 0.50687 0.0
H176 H 0.35898 0.15391 0.46918 0.0
H177 H 0.14566 0.9263 0.46042 0.0
H178 H 0.13574 0.90925 0.49819 0.0
H179 H 0.03347 0.13282 0.56021 0.0
H180 H 0.15428 0.12327 0.56074 0.0
H181 H 1.00171 0.87946 0.54686 0.0
H182 H 0.88046 0.88773 0.54685 0.0
H183 H 0.11433 0.00028 0.5173 0.0
H184 H 0.1075 0.88491 0.59227 0.0
H185 H 0.09889 0.87873 0.62937 0.0
H186 H 0.32 0.10107 0.6367 0.0
H187 H 0.32919 0.10931 0.59947 0.0
C188 C 0.45177 -0.02036 0.53237 0.0
C189 C 0.52713 0.0406 0.54154 0.0
C190 C 0.37877 -0.02808 0.53396 0.0
C191 C 0.37992 0.02602 0.54433 0.0
C192 C 0.45506 0.08777 0.55317 0.0
C193 C 0.52815 0.09489 0.55185 0.0
C194 C 0.30291 0.01719 0.54647 0.0
C195 C 0.2955 0.01213 0.56743 0.0
C196 C 0.23668 0.0122 0.52815 0.0
C197 C 0.24254 0.02229 0.50544 0.0
C198 C 0.30518 0.09158 0.49697 0.0
C199 C 0.31048 0.10059 0.47558 0.0
C200 C 0.2531 0.04099 0.46244 0.0
C201 C 0.19016 -0.02765 0.47064 0.0
C202 C 0.18463 0.963 0.49203 0.0
C203 C 0.02588 0.07692 0.55752 0.0
C204 C 0.94804 0.01105 0.55344 0.0
C205 C 0.09469 0.0715 0.55791 0.0
C206 C 0.08622 0.00067 0.55388 0.0
C207 C 1.00882 0.93436 0.55008 0.0
C208 C 0.94005 0.93914 0.55015 0.0
C209 C 0.15809 -0.00146 0.5522 0.0
C210 C 0.16449 0.00171 0.53134 0.0
C211 C 0.22372 0.00298 0.57053 0.0
C212 C 0.21857 -0.00189 0.59297 0.0
C213 C 0.15385 0.93293 0.6017 0.0
C214 C 0.14895 0.92895 0.62277 0.0
C215 C 0.20874 -0.01043 0.63536 0.0
C216 C 0.27367 0.0542 0.62692 0.0
C217 C 0.27879 0.05851 0.60583 0.0
H218 H 0.20486 -0.01362 0.65168 0.0
H219 H 0.25729 0.04809 0.44588 0.0
H220 H 0.05294 0.91547 0.85717 0.0
H221 H 0.17358 0.03691 0.84818 0.0
H222 H 0.08679 0.18222 0.86028 0.0
H223 H 0.9629 0.06087 0.86747 0.0
H224 H 0.14145 0.24992 0.82616 0.0
H225 H 0.25013 0.12702 0.89814 0.0
H226 H 0.28212 0.0211 0.92407 0.0
H227 H 0.41031 0.02657 0.88156 0.0
H228 H 0.37869 0.13224 0.85534 0.0
H229 H 0.49667 0.59435 0.86221 0.0
H230 H 0.37032 0.4703 0.85528 0.0
H231 H 0.4911 0.38842 0.8309 0.0
H232 H 0.61796 0.51215 0.83782 0.0
H233 H 0.42216 0.28332 0.86363 0.0
H234 H 0.34153 0.42669 0.79658 0.0
H235 H 0.31766 0.53771 0.77123 0.0
H236 H 0.14045 0.49689 0.80365 0.0
H237 H 0.16449 0.38679 0.82957 0.0
C238 C 0.06043 -0.02647 0.85809 0.0
C239 C 0.9999 -0.02041 0.86323 0.0
C240 C 0.12932 0.04278 0.85301 0.0
C241 C 0.14016 0.11875 0.85394 0.0
C242 C 0.07973 0.12432 0.85939 0.0
C243 C 1.00949 0.05526 0.86369 0.0
C244 C 0.21372 0.19293 0.84911 0.0
C245 C 0.20288 0.25757 0.83454 0.0
C246 C 0.29396 0.20148 0.85907 0.0
C247 C 0.31118 0.13675 0.87468 0.0
C248 C 0.28452 0.10511 0.89426 0.0
C249 C 0.3028 0.04526 0.90902 0.0
C250 C 0.34802 0.01693 0.90442 0.0
C251 C 0.37516 0.04845 0.88507 0.0
C252 C 0.35716 0.10832 0.87028 0.0
C253 C 0.49615 0.55039 0.85514 0.0
C254 C 0.56745 0.56237 0.85086 0.0
C255 C 0.42371 0.48003 0.85096 0.0
C256 C 0.42157 0.42081 0.84243 0.0
C257 C 0.49177 0.43386 0.83738 0.0
C258 C 0.56414 0.50435 0.84146 0.0
C259 C 0.34958 0.34129 0.84174 0.0
C260 C 0.36073 0.27544 0.85507 0.0
C261 C 0.26992 0.33193 0.83069 0.0
C262 C 0.25535 0.39859 0.81518 0.0
C263 C 0.29805 0.44181 0.79849 0.0
C264 C 0.28437 0.50456 0.78397 0.0
C265 C 0.22744 0.52421 0.7858 0.0
C266 C 0.18429 0.48137 0.8022 0.0
C267 C 0.198 0.4188 0.81683 0.0
H268 H 0.21674 0.57261 0.77449 0.0
H269 H 0.36234 0.97076 0.91582 0.0
H270 H 0.40691 0.73362 0.92695 0.0
H271 H 0.36481 0.72491 0.95898 0.0
H272 H 0.51777 -0.01998 0.95943 0.0
H273 H 0.56171 -0.01115 0.92772 0.0
H274 H 0.54914 0.89545 0.99867 0.0
H275 H 0.30758 0.90266 0.94774 0.0
H276 H 0.18607 0.86259 0.91676 0.0
H277 H 0.08644 0.62178 0.95091 0.0
H278 H 0.20804 0.6603 0.98182 0.0
H279 H 0.4223 0.91447 0.08566 0.0
H280 H 0.44819 0.93509 0.04985 0.0
H281 H 0.30468 0.68025 0.04724 0.0
H282 H 0.27814 0.6594 0.0829 0.0
H283 H 0.26678 0.76968 1.00853 0.0
H284 H 0.50661 0.75923 0.05904 0.0
H285 H 0.62905 0.79559 0.08968 0.0
H286 H 0.73231 0.03799 0.05672 0.0
H287 H 0.60994 0.0033 1.02597 0.0
C288 C 0.43101 0.78801 0.93375 0.0
C289 C 0.48826 0.86179 0.9249 0.0
C290 C 0.40622 0.78309 0.95193 0.0
C291 C 0.43796 0.85187 0.96158 0.0
C292 C 0.49247 0.9262 0.95223 0.0
C293 C 0.51711 0.93122 0.93401 0.0
C294 C 0.42081 0.8447 0.98264 0.0
C295 C 0.48742 0.86954 1.00071 0.0
C296 C 0.34022 0.80812 0.98549 0.0
C297 C 0.26743 0.7842 0.96687 0.0
C298 C 0.26022 0.84098 0.94842 0.0
C299 C 0.19127 0.81862 0.93095 0.0
C300 C 0.12875 0.73962 0.93183 0.0
C301 C 0.13502 0.6829 0.95022 0.0
C302 C 0.20394 0.705 0.96772 0.0
C303 C 0.39601 0.863 0.07738 0.0
C304 C 0.34853 0.7853 0.08709 0.0
C305 C 0.41124 0.87474 0.05701 0.0
C306 C 0.37883 0.80908 0.04598 0.0
C307 C 0.33039 0.73167 0.0555 0.0
C308 C 0.31578 0.71981 0.07592 0.0
C309 C 0.39515 0.82095 1.02446 0.0
C310 C 0.32848 0.79648 1.00639 0.0
C311 C 0.47571 0.85734 1.02163 0.0
C312 C 0.54855 0.87893 0.04033 0.0
C313 C 0.55494 0.82055 0.05844 0.0
C314 C 0.62446 0.84079 0.0758 0.0
C315 C 0.68827 0.91914 0.07519 0.0
C316 C 0.68273 -0.02262 0.0572 0.0
C317 C 0.61332 0.95746 0.03979 0.0
H318 H 0.74214 0.93463 0.08861 0.0
H319 H 0.07533 0.72242 0.91831 0.0
H320 H 0.636 0.02416 0.46655 0.0
H321 H 0.63748 0.07532 0.42796 0.0
H322 H 0.85352 0.29414 0.44613 0.0
H323 H 0.84843 0.24492 0.48467 0.0
H324 H 0.76562 0.3332 0.4117 0.0
H325 H 0.84979 0.12487 0.43144 0.0
H326 H 0.83655 -0.01201 0.44585 0.0
H327 H 0.61714 0.89267 0.39579 0.0
H328 H 0.62794 0.02857 0.38141 0.0
H329 H 0.89918 0.45765 0.313 0.0
H330 H 0.88603 0.4079 0.3509 0.0
H331 H 0.6479 0.2151 0.32921 0.0
H332 H 0.66128 0.26374 0.29123 0.0
H333 H 0.74359 0.16206 0.3646 0.0
H334 H 0.66389 0.37368 0.34484 0.0
H335 H 0.68112 0.51189 0.33053 0.0
H336 H 0.90122 0.60289 0.38074 0.0
H337 H 0.88581 0.46526 0.39519 0.0
C338 C 0.68367 0.08324 0.46226 0.0
C339 C 0.74252 0.13038 0.47858 0.0
C340 C 0.68488 0.11235 0.44018 0.0
C341 C 0.74702 0.18792 0.43399 0.0
C342 C 0.80504 0.23558 0.45035 0.0
C343 C 0.8023 0.20742 0.4724 0.0
C344 C 0.75176 0.21738 0.41056 0.0
C345 C 0.76195 0.29591 0.40156 0.0
C346 C 0.74521 0.16859 0.39697 0.0
C347 C 0.73928 0.08687 0.40548 0.0
C348 C 0.7984 0.07462 0.4236 0.0
C349 C 0.79124 -0.00284 0.43179 0.0
C350 C 0.72579 0.93157 0.42182 0.0
C351 C 0.66753 0.94337 0.40359 0.0
C352 C 0.67414 0.02061 0.39541 0.0
C353 C 0.84406 0.4045 0.31629 0.0
C354 C 0.78124 0.36466 0.29906 0.0
C355 C 0.83638 0.37649 0.33795 0.0
C356 C 0.76569 0.3081 0.3429 0.0
C357 C 0.70289 0.2681 0.32578 0.0
C358 C 0.71034 0.29635 0.30406 0.0
C359 C 0.75802 0.27758 0.36599 0.0
C360 C 0.74729 0.19901 0.37485 0.0
C361 C 0.7651 0.32654 0.37953 0.0
C362 C 0.77404 0.40924 0.37098 0.0
C363 C 0.71625 0.42322 0.35274 0.0
C364 C 0.72564 0.50144 0.34462 0.0
C365 C 0.79232 0.56614 0.35469 0.0
C366 C 0.84963 0.55272 0.37294 0.0
C367 C 0.84054 0.47461 0.38112 0.0
H368 H 0.79951 0.62666 0.34837 0.0
H369 H 0.72035 0.87165 0.42818 0.0
H370 H 0.74871 0.92086 0.78908 0.0
H371 H 0.73504 0.93927 0.74965 0.0
H372 H 0.74288 0.71551 0.75746 0.0
H373 H 0.76368 0.7012 0.797 0.0
H374 H 0.82112 0.80464 0.73046 0.0
H375 H 0.55757 0.74739 0.73336 0.0
H376 H 0.45371 0.75854 0.74357 0.0
H377 H 0.53447 0.00214 0.71079 0.0
H378 H 0.63946 -0.00722 0.70059 0.0
H379 H 0.67464 0.81385 0.61121 0.0
H380 H 0.67186 0.77179 0.65026 0.0
H381 H 0.77667 0.01966 0.65845 0.0
H382 H 0.7817 0.06205 0.61998 0.0
H383 H 0.62856 0.90175 0.67601 0.0
H384 H 0.89612 0.94456 0.67419 0.0
H385 H 0.98721 0.91586 0.6635 0.0
H386 H 0.87688 0.67069 0.69407 0.0
H387 H 0.78334 0.69722 0.7044 0.0
C388 C 0.74732 0.87574 0.78227 0.0
C389 C 0.75714 0.80967 0.79603 0.0
C390 C 0.73864 0.88571 0.75967 0.0
C391 C 0.73582 0.82786 0.7502 0.0
C392 C 0.74491 0.76135 0.7641 0.0
C393 C 0.75651 0.75295 0.78675 0.0
C394 C 0.72649 0.83797 0.72604 0.0
C395 C 0.7776 0.82427 0.71864 0.0
C396 C 0.66989 0.86353 0.71028 0.0
C397 C 0.60685 0.86956 0.71636 0.0
C398 C 0.55353 0.80351 0.72844 0.0
C399 C 0.49439 0.80948 0.73421 0.0
C400 C 0.48762 0.88106 0.72787 0.0
C401 C 0.53983 0.94676 0.7157 0.0
C402 C 0.59909 0.94111 0.70989 0.0
C403 C 0.69704 0.85919 0.62138 0.0
C404 C 0.72885 0.94126 0.61253 0.0
C405 C 0.69556 0.83515 0.64364 0.0
C406 C 0.72421 0.89273 0.65722 0.0
C407 C 0.75434 -0.02568 0.64828 0.0
C408 C 0.7575 -0.00161 0.62628 0.0
C409 C 0.72356 0.86927 0.68082 0.0
C410 C 0.67074 0.88071 0.688 0.0
C411 C 0.77621 0.83865 0.69628 0.0
C412 C 0.8317 0.82261 0.68973 0.0
C413 C 0.89024 0.88418 0.67831 0.0
C414 C 0.94247 0.86832 0.67236 0.0
C415 C 0.93742 0.79134 0.67797 0.0
C416 C 0.88025 0.73008 0.68959 0.0
C417 C 0.82755 0.74549 0.69547 0.0
H418 H 0.97809 0.77927 0.67341 0.0
H419 H 0.44183 0.88559 0.73236 0.0
H420 H 0.89479 0.66825 0.94169 0.0
H421 H 0.90641 0.63787 0.98113 0.0
H422 H 0.72373 0.71319 0.97235 0.0
H423 H 0.71613 0.74862 0.93295 0.0
H424 H 0.82848 0.76241 1.00633 0.0
H425 H 0.68639 0.50459 0.98411 0.0
H426 H 0.65719 0.39559 0.96586 0.0
H427 H 0.88123 0.38984 1.00545 0.0
H428 H 0.91238 0.49957 1.02374 0.0
H429 H 0.82559 0.60713 0.12029 0.0
H430 H 0.77644 0.61939 0.08022 0.0
H431 H 0.979 0.59696 0.07559 0.0
H432 H 0.02741 0.58359 0.11521 0.0
H433 H 0.83901 0.51007 0.04828 0.0
H434 H 0.97903 0.78233 0.0678 0.0
H435 H 0.99448 0.88469 0.08617 0.0
H436 H 0.75154 0.85128 0.05129 0.0
H437 H 0.73432 0.74794 0.03295 0.0
C438 C 0.85697 0.67811 0.94818 0.0
C439 C 0.80424 0.71039 0.93422 0.0
C440 C 0.8631 0.66009 0.97077 0.0
C441 C 0.81435 0.671 0.97989 0.0
C442 C 0.7619 0.70378 0.96588 0.0
C443 C 0.75743 0.7239 0.94332 0.0
C444 C 0.8199 0.65012 1.00402 0.0
C445 C 0.8292 0.70644 1.01537 0.0
C446 C 0.82053 0.57702 1.01609 0.0
C447 C 0.80197 0.51074 1.00519 0.0
C448 C 0.72969 0.48043 0.98883 0.0
C449 C 0.71276 0.41846 0.97849 0.0
C450 C 0.76739 0.38591 0.98446 0.0
C451 C 0.83899 0.41514 1.00083 0.0
C452 C 0.85626 0.47715 1.01122 0.0
C453 C 0.859 0.60383 0.11073 0.0
C454 C 0.93075 0.59483 0.12102 0.0
C455 C 0.83114 0.61137 0.08781 0.0
C456 C 0.87462 0.61013 0.07483 0.0
C457 C 0.94442 0.59828 0.08519 0.0
C458 C 0.97223 0.59093 0.10794 0.0
C459 C 0.85012 0.62332 0.05044 0.0
C460 C 0.83705 0.56541 0.03908 0.0
C461 C 0.84394 0.6939 0.03835 0.0
C462 C 0.85509 0.75684 0.04919 0.0
C463 C 0.92877 0.79649 0.06416 0.0
C464 C 0.93784 0.8547 0.07456 0.0
C465 C 0.87393 0.87429 0.06996 0.0
C466 C 0.80092 0.83593 0.05489 0.0
C467 C 0.7915 0.77758 0.04448 0.0
H468 H 0.88103 0.91931 0.07804 0.0
H469 H 0.75417 0.33795 0.97643 0.0
H470 H 0.04604 0.58071 0.26466 0.0
H471 H 0.10762 0.60179 0.30295 0.0
H472 H 0.34734 0.73582 0.28941 0.0
H473 H 0.28596 0.71573 0.25086 0.0
H474 H 0.33018 0.60975 0.32746 0.0
H475 H 0.2898 0.85069 0.29985 0.0
H476 H 0.21124 0.92689 0.27979 0.0
H477 H 0.02606 0.77054 0.31585 0.0
H478 H 0.10498 0.69499 0.33664 0.0
H479 H 0.55764 0.77078 0.42688 0.0
H480 H 0.49578 0.7491 0.38869 0.0
H481 H 0.2565 0.66134 0.39914 0.0
H482 H 0.31853 0.68611 0.4372 0.0
H483 H 0.27179 0.76198 0.36235 0.0
H484 H 0.32128 0.5334 0.39383 0.0
H485 H 0.40103 0.45948 0.41518 0.0
H486 H 0.56315 0.58296 0.37165 0.0
H487 H 0.48501 0.65854 0.3502 0.0
C488 C 0.11188 0.61445 0.2698 0.0
C489 C 0.16119 0.646 0.25475 0.0
C490 C 0.14689 0.62694 0.29166 0.0
C491 C 0.23196 0.67051 0.29897 0.0
C492 C 0.28152 0.70205 0.28405 0.0
C493 C 0.24637 0.69065 0.26205 0.0
C494 C 0.2689 0.68107 0.32236 0.0
C495 C 0.31857 0.64398 0.33508 0.0
C496 C 0.25136 0.72333 0.33239 0.0
C497 C 0.2027 0.76687 0.31959 0.0
C498 C 0.23201 0.83229 0.30336 0.0
C499 C 0.18759 0.87547 0.29192 0.0
C500 C 0.1132 0.85297 0.29632 0.0
C501 C 0.08353 0.78773 0.31239 0.0
C502 C 0.12834 0.74507 0.32412 0.0
C503 C 0.49189 0.74734 0.42103 0.0
C504 C 0.4431 0.73055 0.43509 0.0
C505 C 0.45646 0.73405 0.39923 0.0
C506 C 0.37131 0.70278 0.39104 0.0
C507 C 0.32231 0.68532 0.40508 0.0
C508 C 0.35778 0.69885 0.42689 0.0
C509 C 0.33385 0.69092 0.36766 0.0
C510 C 0.2837 0.72756 0.35488 0.0
C511 C 0.35047 0.64746 0.35766 0.0
C512 C 0.39773 0.60222 0.37053 0.0
C513 C 0.37435 0.54531 0.38891 0.0
C514 C 0.41919 0.50301 0.40102 0.0
C515 C 0.48725 0.51667 0.39481 0.0
C516 C 0.51049 0.57253 0.37645 0.0
C517 C 0.4659 0.61507 0.3643 0.0
H518 H 0.52186 0.48382 0.4042 0.0
H519 H 0.07883 0.88639 0.28739 0.0
H520 H 0.89828 0.63405 0.77312 0.0
H521 H 0.89855 0.59538 0.74115 0.0
H522 H 0.9828 0.42363 0.78302 0.0
H523 H 0.98731 0.46543 0.81532 0.0
H524 H 0.06248 0.50334 0.75121 0.0
H525 H 0.78123 0.36441 0.75492 0.0
H526 H 0.65259 0.35235 0.75763 0.0
H527 H 0.64227 0.51263 0.69714 0.0
H528 H 0.77108 0.52598 0.69412 0.0
H529 H 0.97165 0.29625 0.6649 0.0
H530 H 0.97986 0.33348 0.69841 0.0
H531 H 0.88955 0.5043 0.65973 0.0
H532 H 0.87986 0.46611 0.62618 0.0
H533 H 0.81225 0.41955 0.69094 0.0
H534 H 0.09596 0.56284 0.68793 0.0
H535 H 0.22679 0.57839 0.6857 0.0
H536 H 0.233 0.41111 0.74487 0.0
H537 H 0.10208 0.39438 0.74742 0.0
C538 C 0.91813 0.5889 0.77562 0.0
C539 C 0.94296 0.55297 0.79685 0.0
C540 C 0.91718 0.56608 0.75727 0.0
C541 C 0.93944 0.50569 0.75968 0.0
C542 C 0.96499 0.47011 0.7808 0.0
C543 C 0.96675 0.4935 0.79923 0.0
C544 C 0.93625 0.48011 0.7401 0.0
C545 C 1.00746 0.48384 0.73816 0.0
C546 C 0.86485 0.45623 0.72289 0.0
C547 C 0.78638 0.44694 0.72443 0.0
C548 C 0.75178 0.39744 0.74226 0.0
C549 C 0.67873 0.39025 0.74382 0.0
C550 C 0.6394 0.43188 0.7276 0.0
C551 C 0.67284 0.48048 0.70971 0.0
C552 C 0.74581 0.48779 0.70805 0.0
C553 C 0.95447 0.34241 0.66357 0.0
C554 C 0.92525 0.37843 0.64294 0.0
C555 C 0.95931 0.36374 0.68273 0.0
C556 C 0.93625 0.42241 0.68162 0.0
C557 C 0.9076 0.45881 0.661 0.0
C558 C 0.90199 0.43693 0.64186 0.0
C559 C 0.9389 0.44383 0.70187 0.0
C560 C 0.86735 0.43896 0.70398 0.0
C561 C 1.01001 0.46669 0.71921 0.0
C562 C 0.08872 0.47663 0.71771 0.0
C563 C 0.12493 0.52892 0.70037 0.0
C564 C 0.19923 0.53813 0.69909 0.0
C565 C 0.23808 0.49561 0.7151 0.0
C566 C 0.20278 0.44391 0.73246 0.0
C567 C 0.12863 0.43469 0.73386 0.0
H568 H 0.29561 0.50284 0.71409 0.0
H569 H 0.58291 0.42632 0.72886 0.0
loop_
_geom_bond_atom_site_label_1
_geom_bond_atom_site_label_2
_geom_bond_distance
_geom_bond_site_symmetry_2
_ccdc_geom_bond_type
Eu0 C9 2.828 . S
Eu0 O11 2.392 . S
Eu0 O13 2.418 . S
Eu0 O18 2.373 1_655 S
Eu0 O21 2.488 . S
Eu0 O22 2.471 . S
Eu0 O23 2.349 . S
Eu1 O10 2.373 1_455 S
Eu1 O14 2.488 . S
Eu1 O15 2.471 . S
Eu1 O16 2.349 . S
Eu1 O19 2.392 . S
Eu1 O20 2.418 . S
Eu1 C30 2.828 . S
C2 O20 1.244 . S
C2 O23 1.265 1_455 S
C3 C4 1.379 . S
C3 C7 1.373 . S
C3 C9 1.505 . S
C4 C3 1.379 . S
C4 C6 1.369 . S
C4 H32 0.930 . S
C5 C7 1.383 . S
C5 C8 1.382 . S
C5 H33 0.930 . S
C6 C4 1.369 . S
C6 C8 1.392 . S
C6 H34 0.930 . S
C7 C3 1.373 . S
C7 C5 1.383 . S
C7 H35 0.931 . S
C8 C5 1.382 . S
C8 C6 1.392 . S
C9 Eu0 2.828 . S
C9 C3 1.505 . S
C9 O21 1.249 . S
C9 O22 1.244 . S
O10 Eu1 2.373 1_655 S
O10 C12 1.258 . S
O11 Eu0 2.392 . S
O11 C12 1.242 . S
C12 O10 1.258 . S
C12 O11 1.242 . S
O13 Eu0 2.418 . S
O13 C17 1.244 . S
O14 Eu1 2.488 . S
O14 C30 1.249 . S
O15 Eu1 2.471 . S
O15 C30 1.244 . S
O16 Eu1 2.349 . S
O16 C17 1.265 1_455 S
C17 O13 1.244 . S
C17 O16 1.265 1_655 S
O18 Eu0 2.373 1_455 S
O18 C31 1.258 . S
O19 Eu1 2.392 . S
O19 C31 1.242 . S
O20 Eu1 2.418 . S
O20 C2 1.244 . S
O21 Eu0 2.488 . S
O21 C9 1.249 . S
O22 Eu0 2.471 . S
O22 C9 1.244 . S
O23 Eu0 2.349 . S
O23 C2 1.265 1_655 S
C24 C25 1.379 . S
C24 C28 1.373 . S
C24 C30 1.505 . S
C25 C24 1.379 . S
C25 C27 1.369 . S
C25 H36 0.930 . S
C26 C28 1.383 . S
C26 C29 1.382 . S
C26 H37 0.930 . S
C27 C25 1.369 . S
C27 C29 1.392 . S
C27 H38 0.930 . S
C28 C24 1.373 . S
C28 C26 1.383 . S
C28 H39 0.931 . S
C29 C26 1.382 . S
C29 C27 1.392 . S
C30 Eu1 2.828 . S
C30 O14 1.249 . S
C30 O15 1.244 . S
C30 C24 1.505 . S
C31 O18 1.258 . S
C31 O19 1.242 . S
H32 C4 0.930 . S
H33 C5 0.930 . S
H34 C6 0.930 . S
H35 C7 0.931 . S
H36 C25 0.930 . S
H37 C26 0.930 . S
H38 C27 0.930 . S
H39 C28 0.931 . S
Eu40 C49 2.828 . S
Eu40 O51 2.392 . S
Eu40 O53 2.418 . S
Eu40 O58 2.373 . S
Eu40 O61 2.488 . S
Eu40 O62 2.471 . S
Eu40 O63 2.349 . S
Eu41 O50 2.373 1_565 S
Eu41 O54 2.488 . S
Eu41 O55 2.471 . S
Eu41 O56 2.349 . S
Eu41 O59 2.392 . S
Eu41 O60 2.418 . S
Eu41 C70 2.828 . S
C42 O60 1.244 . S
C42 O63 1.265 1_565 S
C43 C44 1.379 . S
C43 C47 1.373 . S
C43 C49 1.505 . S
C44 C43 1.379 . S
C44 C46 1.369 . S
C44 H72 0.930 . S
C45 C47 1.383 . S
C45 C48 1.382 . S
C45 H73 0.930 . S
C46 C44 1.369 . S
C46 C48 1.392 . S
C46 H74 0.930 . S
C47 C43 1.373 . S
C47 C45 1.383 . S
C47 H75 0.931 . S
C48 C45 1.382 . S
C48 C46 1.392 . S
C49 Eu40 2.828 . S
C49 C43 1.505 . S
C49 O61 1.249 . S
C49 O62 1.244 . S
O50 Eu41 2.373 1_545 S
O50 C52 1.258 . S
O51 Eu40 2.392 . S
O51 C52 1.242 . S
C52 O50 1.258 . S
C52 O51 1.242 . S
O53 Eu40 2.418 . S
O53 C57 1.244 . S
O54 Eu41 2.488 . S
O54 C70 1.249 . S
O55 Eu41 2.471 . S
O55 C70 1.244 . S
O56 Eu41 2.349 . S
O56 C57 1.265 1_565 S
C57 O53 1.244 . S
C57 O56 1.265 1_545 S
O58 Eu40 2.373 . S
O58 C71 1.258 1_545 S
O59 Eu41 2.392 . S
O59 C71 1.242 . S
O60 Eu41 2.418 . S
O60 C42 1.244 . S
O61 Eu40 2.488 . S
O61 C49 1.249 . S
O62 Eu40 2.471 . S
O62 C49 1.244 . S
O63 Eu40 2.349 . S
O63 C42 1.265 1_545 S
C64 C65 1.379 . S
C64 C68 1.373 . S
C64 C70 1.505 . S
C65 C64 1.379 . S
C65 C67 1.369 . S
C65 H76 0.930 . S
C66 C68 1.383 . S
C66 C69 1.382 . S
C66 H77 0.930 . S
C67 C65 1.369 . S
C67 C69 1.392 . S
C67 H78 0.930 . S
C68 C64 1.373 . S
C68 C66 1.383 . S
C68 H79 0.931 . S
C69 C66 1.382 . S
C69 C67 1.392 . S
C70 Eu41 2.828 . S
C70 O54 1.249 . S
C70 O55 1.244 . S
C70 C64 1.505 . S
C71 O58 1.258 1_565 S
C71 O59 1.242 . S
H72 C44 0.930 . S
H73 C45 0.930 . S
H74 C46 0.930 . S
H75 C47 0.931 . S
H76 C65 0.930 . S
H77 C66 0.930 . S
H78 C67 0.930 . S
H79 C68 0.931 . S
Eu80 C89 2.828 . S
Eu80 O91 2.392 . S
Eu80 O93 2.418 . S
Eu80 O98 2.373 . S
Eu80 O101 2.488 . S
Eu80 O102 2.471 . S
Eu80 O103 2.349 . S
Eu81 O90 2.373 . S
Eu81 O94 2.488 . S
Eu81 O95 2.471 . S
Eu81 O96 2.349 . S
Eu81 O99 2.392 . S
Eu81 O100 2.418 . S
Eu81 C110 2.828 . S
C82 O100 1.244 . S
C82 O103 1.265 . S
C83 C84 1.379 . S
C83 C87 1.373 . S
C83 C89 1.505 . S
C84 C83 1.379 . S
C84 C86 1.369 . S
C84 H112 0.930 . S
C85 C87 1.383 1_545 S
C85 C88 1.382 1_545 S
C85 H113 0.930 . S
C86 C84 1.369 . S
C86 C88 1.392 . S
C86 H114 0.930 . S
C87 C83 1.373 . S
C87 C85 1.383 1_565 S
C87 H115 0.931 1_565 S
C88 C85 1.382 1_565 S
C88 C86 1.392 . S
C89 Eu80 2.828 . S
C89 C83 1.505 . S
C89 O101 1.249 . S
C89 O102 1.244 . S
O90 Eu81 2.373 . S
O90 C92 1.258 . S
O91 Eu80 2.392 . S
O91 C92 1.242 . S
C92 O90 1.258 . S
C92 O91 1.242 . S
O93 Eu80 2.418 . S
O93 C97 1.244 . S
O94 Eu81 2.488 . S
O94 C110 1.249 . S
O95 Eu81 2.471 . S
O95 C110 1.244 . S
O96 Eu81 2.349 . S
O96 C97 1.265 . S
C97 O93 1.244 . S
C97 O96 1.265 . S
O98 Eu80 2.373 . S
O98 C111 1.258 . S
O99 Eu81 2.392 . S
O99 C111 1.242 . S
O100 Eu81 2.418 . S
O100 C82 1.244 . S
O101 Eu80 2.488 . S
O101 C89 1.249 . S
O102 Eu80 2.471 . S
O102 C89 1.244 . S
O103 Eu80 2.349 . S
O103 C82 1.265 . S
C104 C105 1.379 . S
C104 C108 1.373 . S
C104 C110 1.505 . S
C105 C104 1.379 . S
C105 C107 1.369 . S
C105 H116 0.930 . S
C106 C108 1.383 . S
C106 C109 1.382 . S
C106 H117 0.930 . S
C107 C105 1.369 . S
C107 C109 1.392 . S
C107 H118 0.930 1_655 S
C108 C104 1.373 . S
C108 C106 1.383 . S
C108 H119 0.931 . S
C109 C106 1.382 . S
C109 C107 1.392 . S
C110 Eu81 2.828 . S
C110 O94 1.249 . S
C110 O95 1.244 . S
C110 C104 1.505 . S
C111 O98 1.258 . S
C111 O99 1.242 . S
H112 C84 0.930 . S
H113 C85 0.930 . S
H114 C86 0.930 . S
H115 C87 0.931 1_545 S
H116 C105 0.930 . S
H117 C106 0.930 . S
H118 C107 0.930 1_455 S
H119 C108 0.931 . S
H120 C138 0.951 . S
H121 C140 0.951 1_545 S
H122 C142 0.950 . S
H123 C143 0.950 . S
H124 C145 0.950 . S
H125 C148 0.950 . S
H126 C149 0.950 . S
H127 C151 0.950 . S
H128 C152 0.950 . S
H129 C153 0.951 . S
H130 C155 0.951 . S
H131 C157 0.950 . S
H132 C158 0.950 . S
H133 C160 0.950 . S
H134 C163 0.950 . S
H135 C164 0.950 . S
H136 C166 0.950 . S
H137 C167 0.950 . S
C138 H120 0.951 . S
C138 C139 1.366 . S
C138 C140 1.388 . S
C139 C138 1.366 . S
C139 C143 1.385 1_455 S
C140 H121 0.951 1_565 S
C140 C138 1.388 . S
C140 C141 1.366 . S
C141 C140 1.366 . S
C141 C142 1.414 1_455 S
C141 C144 1.499 1_565 S
C142 H122 0.950 . S
C142 C141 1.414 1_655 S
C142 C143 1.374 . S
C143 H123 0.950 . S
C143 C139 1.385 1_655 S
C143 C142 1.374 . S
C144 C141 1.499 1_545 S
C144 C145 1.373 1_455 S
C144 C146 1.389 . S
C145 H124 0.950 . S
C145 C144 1.373 1_655 S
C145 C161 1.377 . S
C146 C144 1.389 . S
C146 C147 1.524 . S
C146 C160 1.377 . S
C147 C146 1.524 . S
C147 C148 1.397 . S
C147 C152 1.363 . S
C148 H125 0.950 . S
C148 C147 1.397 . S
C148 C149 1.334 . S
C149 H126 0.950 . S
C149 C148 1.334 . S
C149 C150 1.287 . S
C150 C149 1.287 . S
C150 C151 1.524 . S
C150 H169 0.913 . S
C151 H127 0.950 . S
C151 C150 1.524 . S
C151 C152 1.415 . S
C152 H128 0.950 . S
C152 C147 1.363 . S
C152 C151 1.415 . S
C153 H129 0.951 . S
C153 C154 1.366 . S
C153 C155 1.388 . S
C154 C153 1.366 . S
C154 C158 1.385 1_655 S
C155 H130 0.951 . S
C155 C153 1.388 . S
C155 C156 1.366 . S
C156 C155 1.366 . S
C156 C157 1.414 1_655 S
C156 C159 1.499 . S
C157 H131 0.950 . S
C157 C156 1.414 1_455 S
C157 C158 1.374 . S
C158 H132 0.950 . S
C158 C154 1.385 1_455 S
C158 C157 1.374 . S
C159 C156 1.499 . S
C159 C160 1.373 1_655 S
C159 C161 1.389 . S
C160 H133 0.950 . S
C160 C146 1.377 . S
C160 C159 1.373 1_455 S
C161 C145 1.377 . S
C161 C159 1.389 . S
C161 C162 1.524 . S
C162 C161 1.524 . S
C162 C163 1.397 . S
C162 C167 1.363 . S
C163 H134 0.950 . S
C163 C162 1.397 . S
C163 C164 1.334 . S
C164 H135 0.950 . S
C164 C163 1.334 . S
C164 C165 1.287 . S
C165 C164 1.287 . S
C165 C166 1.524 . S
C165 H168 0.999 . S
C166 H136 0.950 . S
C166 C165 1.524 . S
C166 C167 1.415 . S
C167 H137 0.950 . S
C167 C162 1.363 . S
C167 C166 1.415 . S
H168 C165 0.999 . S
H169 C150 0.913 . S
H170 C188 0.951 . S
H171 C190 0.951 . S
H172 C192 0.950 . S
H173 C193 0.950 . S
H174 C195 0.950 . S
H175 C198 0.950 . S
H176 C199 0.950 . S
H177 C201 0.950 . S
H178 C202 0.950 . S
H179 C203 0.951 . S
H180 C205 0.951 . S
H181 C207 0.950 . S
H182 C208 0.950 . S
H183 C210 0.950 . S
H184 C213 0.950 . S
H185 C214 0.950 . S
H186 C216 0.950 . S
H187 C217 0.950 . S
C188 H170 0.951 . S
C188 C189 1.366 1_565 S
C188 C190 1.388 . S
C189 C188 1.366 1_545 S
C189 C193 1.385 . S
C190 H171 0.951 . S
C190 C188 1.388 . S
C190 C191 1.366 1_565 S
C191 C190 1.366 1_545 S
C191 C192 1.414 . S
C191 C194 1.499 . S
C192 H172 0.950 . S
C192 C191 1.414 . S
C192 C193 1.374 . S
C193 H173 0.950 . S
C193 C189 1.385 . S
C193 C192 1.374 . S
C194 C191 1.499 . S
C194 C195 1.373 . S
C194 C196 1.389 1_545 S
C195 H174 0.950 . S
C195 C194 1.373 . S
C195 C211 1.377 . S
C196 C194 1.389 1_565 S
C196 C197 1.524 . S
C196 C210 1.377 . S
C197 C196 1.524 . S
C197 C198 1.397 1_565 S
C197 C202 1.363 . S
C198 H175 0.950 . S
C198 C197 1.397 1_545 S
C198 C199 1.334 . S
C199 H176 0.950 . S
C199 C198 1.334 . S
C199 C200 1.287 . S
C200 C199 1.287 . S
C200 C201 1.524 1_545 S
C200 H219 0.913 . S
C201 H177 0.950 . S
C201 C200 1.524 1_565 S
C201 C202 1.415 . S
C202 H178 0.950 . S
C202 C197 1.363 . S
C202 C201 1.415 . S
C203 H179 0.951 . S
C203 C204 1.366 1_545 S
C203 C205 1.388 1_655 S
C204 C203 1.366 1_565 S
C204 C208 1.385 . S
C205 H180 0.951 . S
C205 C203 1.388 1_455 S
C205 C206 1.366 1_545 S
C206 C205 1.366 1_565 S
C206 C207 1.414 1_455 S
C206 C209 1.499 . S
C207 H181 0.950 . S
C207 C206 1.414 1_655 S
C207 C208 1.374 . S
C208 H182 0.950 . S
C208 C204 1.385 . S
C208 C207 1.374 . S
C209 C206 1.499 . S
C209 C210 1.373 . S
C209 C211 1.389 1_565 S
C210 H183 0.950 . S
C210 C196 1.377 . S
C210 C209 1.373 . S
C211 C195 1.377 . S
C211 C209 1.389 1_545 S
C211 C212 1.524 . S
C212 C211 1.524 . S
C212 C213 1.397 1_545 S
C212 C217 1.363 . S
C213 H184 0.950 . S
C213 C212 1.397 1_565 S
C213 C214 1.334 . S
C214 H185 0.950 . S
C214 C213 1.334 . S
C214 C215 1.287 . S
C215 C214 1.287 . S
C215 C216 1.524 1_565 S
C215 H218 0.999 . S
C216 H186 0.950 . S
C216 C215 1.524 1_545 S
C216 C217 1.415 . S
C217 H187 0.950 . S
C217 C212 1.363 . S
C217 C216 1.415 . S
H218 C215 0.999 . S
H219 C200 0.913 . S
H220 C238 0.951 1_565 S
H221 C240 0.951 . S
H222 C242 0.950 . S
H223 C243 0.950 1_655 S
H224 C245 0.950 . S
H225 C248 0.950 . S
H226 C249 0.950 . S
H227 C251 0.950 . S
H228 C252 0.950 . S
H229 C253 0.951 . S
H230 C255 0.951 . S
H231 C257 0.950 . S
H232 C258 0.950 . S
H233 C260 0.950 . S
H234 C263 0.950 . S
H235 C264 0.950 . S
H236 C266 0.950 . S
H237 C267 0.950 . S
C238 H220 0.951 1_545 S
C238 C239 1.366 1_455 S
C238 C240 1.388 . S
C239 C238 1.366 1_655 S
C239 C243 1.385 1_655 S
C240 H221 0.951 . S
C240 C238 1.388 . S
C240 C241 1.366 . S
C241 C240 1.366 . S
C241 C242 1.414 . S
C241 C244 1.499 . S
C242 H222 0.950 . S
C242 C241 1.414 . S
C242 C243 1.374 . S
C243 H223 0.950 1_455 S
C243 C239 1.385 1_455 S
C243 C242 1.374 . S
C244 C241 1.499 . S
C244 C245 1.373 . S
C244 C246 1.389 . S
C245 H224 0.950 . S
C245 C244 1.373 . S
C245 C261 1.377 . S
C246 C244 1.389 . S
C246 C247 1.524 . S
C246 C260 1.377 . S
C247 C246 1.524 . S
C247 C248 1.397 . S
C247 C252 1.363 . S
C248 H225 0.950 . S
C248 C247 1.397 . S
C248 C249 1.334 . S
C249 H226 0.950 . S
C249 C248 1.334 . S
C249 C250 1.287 . S
C250 C249 1.287 . S
C250 C251 1.524 . S
C250 H269 0.913 . S
C251 H227 0.950 . S
C251 C250 1.524 . S
C251 C252 1.415 . S
C252 H228 0.950 . S
C252 C247 1.363 . S
C252 C251 1.415 . S
C253 H229 0.951 . S
C253 C254 1.366 . S
C253 C255 1.388 . S
C254 C253 1.366 . S
C254 C258 1.385 . S
C255 H230 0.951 . S
C255 C253 1.388 . S
C255 C256 1.366 . S
C256 C255 1.366 . S
C256 C257 1.414 . S
C256 C259 1.499 . S
C257 H231 0.950 . S
C257 C256 1.414 . S
C257 C258 1.374 . S
C258 H232 0.950 . S
C258 C254 1.385 . S
C258 C257 1.374 . S
C259 C256 1.499 . S
C259 C260 1.373 . S
C259 C261 1.389 . S
C260 H233 0.950 . S
C260 C246 1.377 . S
C260 C259 1.373 . S
C261 C245 1.377 . S
C261 C259 1.389 . S
C261 C262 1.524 . S
C262 C261 1.524 . S
C262 C263 1.397 . S
C262 C267 1.363 . S
C263 H234 0.950 . S
C263 C262 1.397 . S
C263 C264 1.334 . S
C264 H235 0.950 . S
C264 C263 1.334 . S
C264 C265 1.287 . S
C265 C264 1.287 . S
C265 C266 1.524 . S
C265 H268 0.999 . S
C266 H236 0.950 . S
C266 C265 1.524 . S
C266 C267 1.415 . S
C267 H237 0.950 . S
C267 C262 1.363 . S
C267 C266 1.415 . S
H268 C265 0.999 . S
H269 C250 0.913 . S
H270 C288 0.951 . S
H271 C290 0.951 . S
H272 C292 0.937 1_545 S
H273 C293 0.950 . S
H274 C295 0.950 . S
H275 C298 0.950 . S
H276 C299 0.950 . S
H277 C301 0.950 . S
H278 C302 0.950 . S
H279 C303 0.950 . S
H280 C305 0.951 1_545 S
H281 C307 0.950 . S
H282 C308 0.950 . S
H283 C310 0.950 . S
H284 C313 0.950 . S
H285 C314 0.950 . S
H286 C316 0.950 . S
H287 C317 0.950 . S
C288 H270 0.951 . S
C288 C289 1.366 . S
C288 C290 1.388 . S
C289 C288 1.366 . S
C289 C293 1.385 1_565 S
C290 H271 0.951 . S
C290 C288 1.388 . S
C290 C291 1.366 . S
C291 C290 1.366 . S
C291 C292 1.421 . S
C291 C294 1.499 . S
C292 H272 0.937 1_565 S
C292 C291 1.421 . S
C292 C293 1.380 1_565 S
C293 H273 0.950 . S
C293 C289 1.385 1_545 S
C293 C292 1.380 1_545 S
C294 C291 1.499 . S
C294 C295 1.373 . S
C294 C296 1.389 . S
C295 H274 0.950 . S
C295 C294 1.373 . S
C295 C311 1.377 1_556 S
C296 C294 1.389 . S
C296 C297 1.524 . S
C296 C310 1.377 . S
C297 C296 1.524 . S
C297 C298 1.397 . S
C297 C302 1.363 . S
C298 H275 0.950 . S
C298 C297 1.397 . S
C298 C299 1.334 . S
C299 H276 0.950 . S
C299 C298 1.334 . S
C299 C300 1.287 . S
C300 C299 1.287 . S
C300 C301 1.524 . S
C300 H319 0.913 . S
C301 H277 0.950 . S
C301 C300 1.524 . S
C301 C302 1.415 . S
C302 H278 0.950 . S
C302 C297 1.363 . S
C302 C301 1.415 . S
C303 H279 0.950 . S
C303 C304 1.366 . S
C303 C305 1.388 . S
C304 C303 1.366 . S
C304 C308 1.385 . S
C305 H280 0.951 1_565 S
C305 C303 1.388 . S
C305 C306 1.366 . S
C306 C305 1.366 . S
C306 C307 1.414 . S
C306 C309 1.503 . S
C307 H281 0.950 . S
C307 C306 1.414 . S
C307 C308 1.374 . S
C308 H282 0.950 . S
C308 C304 1.385 . S
C308 C307 1.374 . S
C309 C306 1.503 . S
C309 C310 1.369 1_554 S
C309 C311 1.389 . S
C310 H283 0.950 . S
C310 C296 1.377 . S
C310 C309 1.369 1_556 S
C311 C295 1.377 1_554 S
C311 C309 1.389 . S
C311 C312 1.524 . S
C312 C311 1.524 . S
C312 C313 1.397 . S
C312 C317 1.363 1_565 S
C313 H284 0.950 . S
C313 C312 1.397 . S
C313 C314 1.334 . S
C314 H285 0.950 . S
C314 C313 1.334 . S
C314 C315 1.287 . S
C315 C314 1.287 . S
C315 C316 1.524 1_565 S
C315 H318 0.999 . S
C316 H286 0.950 . S
C316 C315 1.524 1_545 S
C316 C317 1.415 . S
C317 H287 0.950 . S
C317 C312 1.363 1_545 S
C317 C316 1.415 . S
H318 C315 0.999 . S
H319 C300 0.913 . S
H320 C338 0.951 . S
H321 C340 0.951 . S
H322 C342 0.950 . S
H323 C343 0.950 . S
H324 C345 0.950 . S
H325 C348 0.950 . S
H326 C349 0.950 . S
H327 C351 0.950 . S
H328 C352 0.950 . S
H329 C353 0.951 . S
H330 C355 0.951 . S
H331 C357 0.950 . S
H332 C358 0.950 . S
H333 C360 0.950 . S
H334 C363 0.950 . S
H335 C364 0.950 . S
H336 C366 0.950 . S
H337 C367 0.950 . S
C338 H320 0.951 . S
C338 C339 1.366 . S
C338 C340 1.388 . S
C339 C338 1.366 . S
C339 C343 1.385 . S
C340 H321 0.951 . S
C340 C338 1.388 . S
C340 C341 1.366 . S
C341 C340 1.366 . S
C341 C342 1.414 . S
C341 C344 1.499 . S
C342 H322 0.950 . S
C342 C341 1.414 . S
C342 C343 1.374 . S
C343 H323 0.950 . S
C343 C339 1.385 . S
C343 C342 1.374 . S
C344 C341 1.499 . S
C344 C345 1.373 . S
C344 C346 1.389 . S
C345 H324 0.950 . S
C345 C344 1.373 . S
C345 C361 1.377 . S
C346 C344 1.389 . S
C346 C347 1.524 . S
C346 C360 1.377 . S
C347 C346 1.524 . S
C347 C348 1.397 . S
C347 C352 1.363 . S
C348 H325 0.950 . S
C348 C347 1.397 . S
C348 C349 1.334 1_545 S
C349 H326 0.950 . S
C349 C348 1.334 1_565 S
C349 C350 1.287 . S
C350 C349 1.287 . S
C350 C351 1.524 . S
C350 H369 0.913 . S
C351 H327 0.950 . S
C351 C350 1.524 . S
C351 C352 1.415 1_565 S
C352 H328 0.950 . S
C352 C347 1.363 . S
C352 C351 1.415 1_545 S
C353 H329 0.951 . S
C353 C354 1.366 . S
C353 C355 1.388 . S
C354 C353 1.366 . S
C354 C358 1.385 . S
C355 H330 0.951 . S
C355 C353 1.388 . S
C355 C356 1.366 . S
C356 C355 1.366 . S
C356 C357 1.414 . S
C356 C359 1.499 . S
C357 H331 0.950 . S
C357 C356 1.414 . S
C357 C358 1.374 . S
C358 H332 0.950 . S
C358 C354 1.385 . S
C358 C357 1.374 . S
C359 C356 1.499 . S
C359 C360 1.373 . S
C359 C361 1.389 . S
C360 H333 0.950 . S
C360 C346 1.377 . S
C360 C359 1.373 . S
C361 C345 1.377 . S
C361 C359 1.389 . S
C361 C362 1.524 . S
C362 C361 1.524 . S
C362 C363 1.397 . S
C362 C367 1.363 . S
C363 H334 0.950 . S
C363 C362 1.397 . S
C363 C364 1.334 . S
C364 H335 0.950 . S
C364 C363 1.334 . S
C364 C365 1.287 . S
C365 C364 1.287 . S
C365 C366 1.524 . S
C365 H368 0.999 . S
C366 H336 0.950 . S
C366 C365 1.524 . S
C366 C367 1.415 . S
C367 H337 0.950 . S
C367 C362 1.363 . S
C367 C366 1.415 . S
H368 C365 0.999 . S
H369 C350 0.913 . S
H370 C388 0.951 . S
H371 C390 0.951 . S
H372 C392 0.950 . S
H373 C393 0.950 . S
H374 C395 0.950 . S
H375 C398 0.950 . S
H376 C399 0.950 . S
H377 C401 0.950 . S
H378 C402 0.950 . S
H379 C403 0.951 . S
H380 C405 0.951 . S
H381 C407 0.950 1_545 S
H382 C408 0.950 1_545 S
H383 C410 0.950 . S
H384 C413 0.950 . S
H385 C414 0.950 . S
H386 C416 0.950 . S
H387 C417 0.950 . S
C388 H370 0.951 . S
C388 C389 1.366 . S
C388 C390 1.388 . S
C389 C388 1.366 . S
C389 C393 1.385 . S
C390 H371 0.951 . S
C390 C388 1.388 . S
C390 C391 1.366 . S
C391 C390 1.366 . S
C391 C392 1.414 . S
C391 C394 1.499 . S
C392 H372 0.950 . S
C392 C391 1.414 . S
C392 C393 1.374 . S
C393 H373 0.950 . S
C393 C389 1.385 . S
C393 C392 1.374 . S
C394 C391 1.499 . S
C394 C395 1.373 . S
C394 C396 1.389 . S
C395 H374 0.950 . S
C395 C394 1.373 . S
C395 C411 1.377 . S
C396 C394 1.389 . S
C396 C397 1.524 . S
C396 C410 1.377 . S
C397 C396 1.524 . S
C397 C398 1.397 . S
C397 C402 1.363 1_565 S
C398 H375 0.950 . S
C398 C397 1.397 . S
C398 C399 1.334 . S
C399 H376 0.950 . S
C399 C398 1.334 . S
C399 C400 1.287 1_565 S
C400 C399 1.287 1_545 S
C400 C401 1.524 . S
C400 H419 0.913 . S
C401 H377 0.950 . S
C401 C400 1.524 . S
C401 C402 1.415 . S
C402 H378 0.950 . S
C402 C397 1.363 1_545 S
C402 C401 1.415 . S
C403 H379 0.951 . S
C403 C404 1.366 . S
C403 C405 1.388 . S
C404 C403 1.366 . S
C404 C408 1.385 . S
C405 H380 0.951 . S
C405 C403 1.388 . S
C405 C406 1.366 . S
C406 C405 1.366 . S
C406 C407 1.414 . S
C406 C409 1.499 . S
C407 H381 0.950 1_565 S
C407 C406 1.414 . S
C407 C408 1.374 . S
C408 H382 0.950 1_565 S
C408 C404 1.385 . S
C408 C407 1.374 . S
C409 C406 1.499 . S
C409 C410 1.373 . S
C409 C411 1.389 . S
C410 H383 0.950 . S
C410 C396 1.377 . S
C410 C409 1.373 . S
C411 C395 1.377 . S
C411 C409 1.389 . S
C411 C412 1.524 . S
C412 C411 1.524 . S
C412 C413 1.397 . S
C412 C417 1.363 . S
C413 H384 0.950 . S
C413 C412 1.397 . S
C413 C414 1.334 . S
C414 H385 0.950 . S
C414 C413 1.334 . S
C414 C415 1.287 . S
C415 C414 1.287 . S
C415 C416 1.524 . S
C415 H418 0.999 . S
C416 H386 0.950 . S
C416 C415 1.524 . S
C416 C417 1.415 . S
C417 H387 0.950 . S
C417 C412 1.363 . S
C417 C416 1.415 . S
H418 C415 0.999 . S
H419 C400 0.913 . S
H420 C438 0.951 . S
H421 C440 0.951 . S
H422 C442 0.950 . S
H423 C443 0.950 . S
H424 C445 0.950 . S
H425 C448 0.950 . S
H426 C449 0.950 . S
H427 C451 0.950 1_455 S
H428 C452 0.950 1_455 S
H429 C453 0.951 . S
H430 C455 0.951 . S
H431 C457 0.950 1_455 S
H432 C458 0.950 1_455 S
H433 C460 0.950 . S
H434 C463 0.950 . S
H435 C464 0.950 . S
H436 C466 0.950 . S
H437 C467 0.950 1_556 S
C438 H420 0.951 . S
C438 C439 1.366 . S
C438 C440 1.388 . S
C439 C438 1.366 . S
C439 C443 1.385 . S
C440 H421 0.951 . S
C440 C438 1.388 . S
C440 C441 1.366 . S
C441 C440 1.366 . S
C441 C442 1.414 . S
C441 C444 1.499 . S
C442 H422 0.950 . S
C442 C441 1.414 . S
C442 C443 1.374 . S
C443 H423 0.950 . S
C443 C439 1.385 . S
C443 C442 1.374 . S
C444 C441 1.499 . S
C444 C445 1.373 . S
C444 C446 1.389 . S
C445 H424 0.950 . S
C445 C444 1.373 . S
C445 C461 1.377 1_556 S
C446 C444 1.389 . S
C446 C447 1.524 . S
C446 C460 1.377 1_556 S
C447 C446 1.524 . S
C447 C448 1.397 . S
C447 C452 1.363 . S
C448 H425 0.950 . S
C448 C447 1.397 . S
C448 C449 1.334 . S
C449 H426 0.950 . S
C449 C448 1.334 . S
C449 C450 1.287 . S
C450 C449 1.287 . S
C450 C451 1.524 . S
C450 H469 0.913 . S
C451 H427 0.950 1_655 S
C451 C450 1.524 . S
C451 C452 1.415 . S
C452 H428 0.950 1_655 S
C452 C447 1.363 . S
C452 C451 1.415 . S
C453 H429 0.951 . S
C453 C454 1.366 . S
C453 C455 1.388 . S
C454 C453 1.366 . S
C454 C458 1.385 . S
C455 H430 0.951 . S
C455 C453 1.388 . S
C455 C456 1.366 . S
C456 C455 1.366 . S
C456 C457 1.414 . S
C456 C459 1.499 . S
C457 H431 0.950 1_655 S
C457 C456 1.414 . S
C457 C458 1.374 . S
C458 H432 0.950 1_655 S
C458 C454 1.385 . S
C458 C457 1.374 . S
C459 C456 1.499 . S
C459 C460 1.373 . S
C459 C461 1.389 . S
C460 H433 0.950 . S
C460 C446 1.377 1_554 S
C460 C459 1.373 . S
C461 C445 1.377 1_554 S
C461 C459 1.389 . S
C461 C462 1.524 . S
C462 C461 1.524 . S
C462 C463 1.397 . S
C462 C467 1.363 . S
C463 H434 0.950 . S
C463 C462 1.397 . S
C463 C464 1.334 . S
C464 H435 0.950 . S
C464 C463 1.334 . S
C464 C465 1.287 . S
C465 C464 1.287 . S
C465 C466 1.524 . S
C465 H468 0.999 . S
C466 H436 0.950 . S
C466 C465 1.524 . S
C466 C467 1.415 . S
C467 H437 0.950 1_554 S
C467 C462 1.363 . S
C467 C466 1.415 . S
H468 C465 0.999 . S
H469 C450 0.913 . S
H470 C488 0.951 . S
H471 C490 0.951 . S
H472 C492 0.950 . S
H473 C493 0.950 . S
H474 C495 0.950 . S
H475 C498 0.950 . S
H476 C499 0.950 . S
H477 C501 0.950 . S
H478 C502 0.950 . S
H479 C503 0.951 . S
H480 C505 0.951 . S
H481 C507 0.950 . S
H482 C508 0.950 . S
H483 C510 0.950 . S
H484 C513 0.950 . S
H485 C514 0.950 . S
H486 C516 0.950 . S
H487 C517 0.950 . S
C488 H470 0.951 . S
C488 C489 1.366 . S
C488 C490 1.388 . S
C489 C488 1.366 . S
C489 C493 1.385 . S
C490 H471 0.951 . S
C490 C488 1.388 . S
C490 C491 1.366 . S
C491 C490 1.366 . S
C491 C492 1.414 . S
C491 C494 1.499 . S
C492 H472 0.950 . S
C492 C491 1.414 . S
C492 C493 1.374 . S
C493 H473 0.950 . S
C493 C489 1.385 . S
C493 C492 1.374 . S
C494 C491 1.499 . S
C494 C495 1.373 . S
C494 C496 1.389 . S
C495 H474 0.950 . S
C495 C494 1.373 . S
C495 C511 1.377 . S
C496 C494 1.389 . S
C496 C497 1.524 . S
C496 C510 1.377 . S
C497 C496 1.524 . S
C497 C498 1.397 . S
C497 C502 1.363 . S
C498 H475 0.950 . S
C498 C497 1.397 . S
C498 C499 1.334 . S
C499 H476 0.950 . S
C499 C498 1.334 . S
C499 C500 1.287 . S
C500 C499 1.287 . S
C500 C501 1.524 . S
C500 H519 0.913 1_565 S
C501 H477 0.950 . S
C501 C500 1.524 . S
C501 C502 1.415 . S
C502 H478 0.950 . S
C502 C497 1.363 . S
C502 C501 1.415 . S
C503 H479 0.951 . S
C503 C504 1.366 . S
C503 C505 1.388 . S
C504 C503 1.366 . S
C504 C508 1.385 . S
C505 H480 0.951 . S
C505 C503 1.388 . S
C505 C506 1.366 . S
C506 C505 1.366 . S
C506 C507 1.414 . S
C506 C509 1.499 . S
C507 H481 0.950 . S
C507 C506 1.414 . S
C507 C508 1.374 . S
C508 H482 0.950 . S
C508 C504 1.385 . S
C508 C507 1.374 . S
C509 C506 1.499 . S
C509 C510 1.373 . S
C509 C511 1.389 . S
C510 H483 0.950 . S
C510 C496 1.377 . S
C510 C509 1.373 . S
C511 C495 1.377 . S
C511 C509 1.389 . S
C511 C512 1.524 . S
C512 C511 1.524 . S
C512 C513 1.397 . S
C512 C517 1.363 . S
C513 H484 0.950 . S
C513 C512 1.397 . S
C513 C514 1.334 . S
C514 H485 0.950 . S
C514 C513 1.334 . S
C514 C515 1.287 . S
C515 C514 1.287 . S
C515 C516 1.524 . S
C515 H518 0.999 . S
C516 H486 0.950 . S
C516 C515 1.524 . S
C516 C517 1.415 . S
C517 H487 0.950 . S
C517 C512 1.363 . S
C517 C516 1.415 . S
H518 C515 0.999 . S
H519 C500 0.913 1_545 S
H520 C538 0.951 . S
H521 C540 0.951 . S
H522 C542 0.950 . S
H523 C543 0.950 1_455 S
H524 C545 0.950 1_455 S
H525 C548 0.950 . S
H526 C549 0.950 . S
H527 C551 0.950 . S
H528 C552 0.950 . S
H529 C553 0.951 . S
H530 C555 0.951 . S
H531 C557 0.950 . S
H532 C558 0.950 . S
H533 C560 0.950 . S
H534 C563 0.950 . S
H535 C564 0.950 . S
H536 C566 0.950 . S
H537 C567 0.950 . S
C538 H520 0.951 . S
C538 C539 1.366 . S
C538 C540 1.388 . S
C539 C538 1.366 . S
C539 C543 1.385 . S
C540 H521 0.951 . S
C540 C538 1.388 . S
C540 C541 1.366 . S
C541 C540 1.366 . S
C541 C542 1.414 . S
C541 C544 1.499 . S
C542 H522 0.950 . S
C542 C541 1.414 . S
C542 C543 1.374 . S
C543 H523 0.950 1_655 S
C543 C539 1.385 . S
C543 C542 1.374 . S
C544 C541 1.499 . S
C544 C545 1.373 . S
C544 C546 1.389 . S
C545 H524 0.950 1_655 S
C545 C544 1.373 . S
C545 C561 1.377 . S
C546 C544 1.389 . S
C546 C547 1.524 . S
C546 C560 1.377 . S
C547 C546 1.524 . S
C547 C548 1.397 . S
C547 C552 1.363 . S
C548 H525 0.950 . S
C548 C547 1.397 . S
C548 C549 1.334 . S
C549 H526 0.950 . S
C549 C548 1.334 . S
C549 C550 1.287 . S
C550 C549 1.287 . S
C550 C551 1.524 . S
C550 H569 0.913 . S
C551 H527 0.950 . S
C551 C550 1.524 . S
C551 C552 1.415 . S
C552 H528 0.950 . S
C552 C547 1.363 . S
C552 C551 1.415 . S
C553 H529 0.951 . S
C553 C554 1.366 . S
C553 C555 1.388 . S
C554 C553 1.366 . S
C554 C558 1.385 . S
C555 H530 0.951 . S
C555 C553 1.388 . S
C555 C556 1.366 . S
C556 C555 1.366 . S
C556 C557 1.414 . S
C556 C559 1.499 . S
C557 H531 0.950 . S
C557 C556 1.414 . S
C557 C558 1.374 . S
C558 H532 0.950 . S
C558 C554 1.385 . S
C558 C557 1.374 . S
C559 C556 1.499 . S
C559 C560 1.373 . S
C559 C561 1.389 . S
C560 H533 0.950 . S
C560 C546 1.377 . S
C560 C559 1.373 . S
C561 C545 1.377 . S
C561 C559 1.389 . S
C561 C562 1.524 1_655 S
C562 C561 1.524 1_455 S
C562 C563 1.397 . S
C562 C567 1.363 . S
C563 H534 0.950 . S
C563 C562 1.397 . S
C563 C564 1.334 . S
C564 H535 0.950 . S
C564 C563 1.334 . S
C564 C565 1.287 . S
C565 C564 1.287 . S
C565 C566 1.524 . S
C565 H568 0.999 . S
C566 H536 0.950 . S
C566 C565 1.524 . S
C566 C567 1.415 . S
C567 H537 0.950 . S
C567 C562 1.363 . S
C567 C566 1.415 . S
H568 C565 0.999 . S
H569 C550 0.913 . S
C139 C17 1.344 1_455 S
C154 C2 1.344 1_655 S
C189 C42 1.414 1_545 S
C204 C57 1.414 1_565 S
C239 C97 1.206 1_545 S
C254 C82 1.206 . S
C289 C88 0.899 . S
C304 C29 0.886 . S
C339 C52 1.712 . S
C354 C8 1.699 . S
C389 C92 2.219 . S
C404 C71 2.206 . S
C439 C111 2.167 . S
C454 C12 2.138 . S
C489 C31 1.602 . S
C504 C69 1.537 . S
C539 C109 0.918 . S
C554 C48 0.935 . S
