# Generated by pormake.
# Topology ure, (4)-cn, num edge types: 1
# Building blocks:
#     Node 0, Type 0, BuildingBlock: UXUYUI_clean_sbu_0, # of connection points: 4
#     Node 1, Type 0, BuildingBlock: UXUYUI_clean_sbu_0, # of connection points: 4
#     Node 2, Type 0, BuildingBlock: UXUYUI_clean_sbu_0, # of connection points: 4
#     Node 3, Type 0, BuildingBlock: UXUYUI_clean_sbu_0, # of connection points: 4
#     Node 4, Type 0, BuildingBlock: UXUYUI_clean_sbu_0, # of connection points: 4
#     Node 5, Type 0, BuildingBlock: UXUYUI_clean_sbu_0, # of connection points: 4
#     Node 6, Type 0, BuildingBlock: UXUYUI_clean_sbu_0, # of connection points: 4
#     Node 7, Type 0, BuildingBlock: UXUYUI_clean_sbu_0, # of connection points: 4
#     Node 8, Type 0, BuildingBlock: UXUYUI_clean_sbu_0, # of connection points: 4
#     Node 9, Type 0, BuildingBlock: UXUYUI_clean_sbu_0, # of connection points: 4
#     Node 10, Type 0, BuildingBlock: UXUYUI_clean_sbu_0, # of connection points: 4
#     Node 11, Type 0, BuildingBlock: UXUYUI_clean_sbu_0, # of connection points: 4
#     Node 12, Type 0, BuildingBlock: UXUYUI_clean_sbu_0, # of connection points: 4
#     Node 13, Type 0, BuildingBlock: UXUYUI_clean_sbu_0, # of connection points: 4
#     Node 14, Type 0, BuildingBlock: UXUYUI_clean_sbu_0, # of connection points: 4
#     Node 15, Type 0, BuildingBlock: UXUYUI_clean_sbu_0, # of connection points: 4
#     Edge 16, Type (0, 0), BuildingBlock: MIFKUJ_clean_linker_0, # of connection points: 2
#     Edge 17, Type (0, 0), BuildingBlock: MIFKUJ_clean_linker_0, # of connection points: 2
#     Edge 18, Type (0, 0), BuildingBlock: MIFKUJ_clean_linker_0, # of connection points: 2
#     Edge 19, Type (0, 0), BuildingBlock: MIFKUJ_clean_linker_0, # of connection points: 2
#     Edge 20, Type (0, 0), BuildingBlock: MIFKUJ_clean_linker_0, # of connection points: 2
#     Edge 21, Type (0, 0), BuildingBlock: MIFKUJ_clean_linker_0, # of connection points: 2
#     Edge 22, Type (0, 0), BuildingBlock: MIFKUJ_clean_linker_0, # of connection points: 2
#     Edge 23, Type (0, 0), BuildingBlock: MIFKUJ_clean_linker_0, # of connection points: 2
#     Edge 24, Type (0, 0), BuildingBlock: MIFKUJ_clean_linker_0, # of connection points: 2
#     Edge 25, Type (0, 0), BuildingBlock: MIFKUJ_clean_linker_0, # of connection points: 2
#     Edge 26, Type (0, 0), BuildingBlock: MIFKUJ_clean_linker_0, # of connection points: 2
#     Edge 27, Type (0, 0), BuildingBlock: MIFKUJ_clean_linker_0, # of connection points: 2
#     Edge 28, Type (0, 0), BuildingBlock: MIFKUJ_clean_linker_0, # of connection points: 2
#     Edge 29, Type (0, 0), BuildingBlock: MIFKUJ_clean_linker_0, # of connection points: 2
#     Edge 30, Type (0, 0), BuildingBlock: MIFKUJ_clean_linker_0, # of connection points: 2
#     Edge 31, Type (0, 0), BuildingBlock: MIFKUJ_clean_linker_0, # of connection points: 2
#     Edge 32, Type (0, 0), BuildingBlock: MIFKUJ_clean_linker_0, # of connection points: 2
#     Edge 33, Type (0, 0), BuildingBlock: MIFKUJ_clean_linker_0, # of connection points: 2
#     Edge 34, Type (0, 0), BuildingBlock: MIFKUJ_clean_linker_0, # of connection points: 2
#     Edge 35, Type (0, 0), BuildingBlock: MIFKUJ_clean_linker_0, # of connection points: 2
#     Edge 36, Type (0, 0), BuildingBlock: MIFKUJ_clean_linker_0, # of connection points: 2
#     Edge 37, Type (0, 0), BuildingBlock: MIFKUJ_clean_linker_0, # of connection points: 2
#     Edge 38, Type (0, 0), BuildingBlock: MIFKUJ_clean_linker_0, # of connection points: 2
#     Edge 39, Type (0, 0), BuildingBlock: MIFKUJ_clean_linker_0, # of connection points: 2
#     Edge 40, Type (0, 0), BuildingBlock: MIFKUJ_clean_linker_0, # of connection points: 2
#     Edge 41, Type (0, 0), BuildingBlock: MIFKUJ_clean_linker_0, # of connection points: 2
#     Edge 42, Type (0, 0), BuildingBlock: MIFKUJ_clean_linker_0, # of connection points: 2
#     Edge 43, Type (0, 0), BuildingBlock: MIFKUJ_clean_linker_0, # of connection points: 2
#     Edge 44, Type (0, 0), BuildingBlock: MIFKUJ_clean_linker_0, # of connection points: 2
#     Edge 45, Type (0, 0), BuildingBlock: MIFKUJ_clean_linker_0, # of connection points: 2
#     Edge 46, Type (0, 0), BuildingBlock: MIFKUJ_clean_linker_0, # of connection points: 2
#     Edge 47, Type (0, 0), BuildingBlock: MIFKUJ_clean_linker_0, # of connection points: 2
# Relax obj value: 0.164
# Max RMSD: 0.090
# Mean RMSD: 0.090
data_MOF--net-ure--node1-UXUYUI_clean_sbu_0--edge1-MIFKUJ_clean_linker_0
_symmetry_space_group_name_H-M    P1
_symmetry_Int_Tables_number       1
_symmetry_cell_setting            triclinic
loop_
_symmetry_equiv_pos_as_xyz
'x, y, z'
_cell_length_a     55.930726
_cell_length_b     55.836068
_cell_length_c     55.851606
_cell_angle_alpha  90.076407
_cell_angle_beta   90.105238
_cell_angle_gamma 90.240464
loop_
_atom_site_label
_atom_site_type_symbol
_atom_site_fract_x
_atom_site_fract_y
_atom_site_fract_z
_atom_type_partial_charge
Li0 Li 0.25378 0.28853 0.2655 0.0
Li1 Li 0.25518 0.25596 0.29345 0.0
Li2 Li 0.28587 0.25838 0.26422 0.0
Li3 Li 0.24403 0.2457 0.2532 0.0
C4 C 0.29509 0.30022 0.28922 0.0
N5 N 0.3281 0.33716 0.28836 0.0
C6 C 0.30368 0.31 0.31062 0.0
C7 C 0.30327 0.30925 0.26736 0.0
C8 C 0.32037 0.32867 0.30982 0.0
C9 C 0.31997 0.32792 0.26731 0.0
C10 C 0.20693 0.26772 0.28873 0.0
C11 C 0.16897 0.25055 0.30002 0.0
N12 N 0.16607 0.26837 0.31639 0.0
C13 C 0.20351 0.28596 0.30551 0.0
C14 C 0.1895 0.24993 0.28582 0.0
C15 C 0.18275 0.28592 0.31939 0.0
C16 C 0.24155 0.33038 0.23914 0.0
N17 N 0.24637 0.32137 0.26121 0.0
C18 C 0.24352 0.36026 0.2788 0.0
C19 C 0.24716 0.33567 0.2809 0.0
C20 C 0.23893 0.37028 0.25619 0.0
C21 C 0.23775 0.35494 0.2362 0.0
H22 H 0.24093 0.31854 0.22382 0.0
H23 H 0.25114 0.32799 0.29821 0.0
C24 C 0.27173 0.25188 0.33993 0.0
N25 N 0.25137 0.24887 0.32694 0.0
C26 C 0.27174 0.24811 0.3646 0.0
C27 C 0.2298 0.23793 0.36225 0.0
C28 C 0.23073 0.24149 0.3375 0.0
C29 C 0.25046 0.24147 0.37625 0.0
H30 H 0.28807 0.25717 0.33104 0.0
H31 H 0.21493 0.23832 0.32689 0.0
C32 C 0.27371 0.26579 0.21469 0.0
N33 N 0.29044 0.25671 0.16908 0.0
C34 C 0.27522 0.24223 0.20631 0.0
C35 C 0.28073 0.28471 0.1999 0.0
C36 C 0.28369 0.23803 0.18317 0.0
C37 C 0.28917 0.27975 0.17691 0.0
C38 C 0.26785 0.2118 0.29062 0.0
C39 C 0.28907 0.20547 0.3022 0.0
C40 C 0.24636 0.20083 0.29727 0.0
C41 C 0.28839 0.18837 0.32043 0.0
C42 C 0.24643 0.1838 0.31557 0.0
N43 N 0.26727 0.178 0.32669 0.0
C44 C 0.33266 0.25485 0.28027 0.0
C45 C 0.33048 0.25239 0.23801 0.0
C46 C 0.35755 0.25353 0.27958 0.0
N47 N 0.31964 0.25443 0.25969 0.0
C48 C 0.35536 0.25082 0.23648 0.0
C49 C 0.36929 0.25156 0.25745 0.0
H50 H 0.32366 0.25661 0.2973 0.0
H51 H 0.32004 0.25217 0.22181 0.0
C52 C 0.21042 0.23775 0.21622 0.0
N53 N 0.22467 0.22667 0.23248 0.0
C54 C 0.19628 0.22425 0.20051 0.0
C55 C 0.21166 0.18821 0.21873 0.0
C56 C 0.22565 0.2024 0.2339 0.0
C57 C 0.19671 0.19907 0.20165 0.0
H58 H 0.21021 0.25711 0.21536 0.0
H59 H 0.23741 0.19403 0.24674 0.0
O60 O 0.27866 0.28198 0.28985 0.0
O61 O 0.22697 0.26749 0.27483 0.0
O62 O 0.26515 0.2704 0.23713 0.0
O63 O 0.26805 0.22894 0.27315 0.0
H64 H 0.29747 0.30327 0.32769 0.0
H65 H 0.29685 0.30197 0.25061 0.0
H66 H 0.32716 0.33642 0.32626 0.0
H67 H 0.32646 0.33506 0.25053 0.0
H68 H 0.15536 0.23686 0.29805 0.0
H69 H 0.21683 0.29986 0.30792 0.0
H70 H 0.19186 0.23576 0.2728 0.0
H71 H 0.17991 0.29984 0.33256 0.0
H72 H 0.24499 0.37137 0.29464 0.0
H73 H 0.23398 0.36185 0.21849 0.0
H74 H 0.28833 0.25036 0.37438 0.0
H75 H 0.21292 0.23291 0.37029 0.0
H76 H 0.27031 0.22735 0.21766 0.0
H77 H 0.27974 0.30304 0.20615 0.0
H78 H 0.28502 0.2199 0.17646 0.0
H79 H 0.29471 0.29422 0.16528 0.0
H80 H 0.30585 0.21374 0.29725 0.0
H81 H 0.22971 0.20578 0.28872 0.0
H82 H 0.30466 0.18338 0.32963 0.0
H83 H 0.2299 0.17532 0.32104 0.0
H84 H 0.36746 0.25459 0.29621 0.0
H85 H 0.36356 0.24899 0.21903 0.0
H86 H 0.18541 0.23346 0.18741 0.0
H87 H 0.21242 0.16893 0.22057 0.0
Li88 Li 0.99253 0.04048 0.50478 0.0
Li89 Li 0.96178 0.00855 0.50714 0.0
Li90 Li 0.99375 0.00887 0.535 0.0
Li91 Li 0.00134 0.99683 0.49429 0.0
C92 C 0.96267 0.04018 0.55268 0.0
N93 N 0.95067 0.0513 0.59932 0.0
C94 C 0.94322 0.02885 0.56361 0.0
C95 C 0.97578 0.05741 0.5653 0.0
C96 C 0.93749 0.03467 0.58725 0.0
C97 C 0.9695 0.06271 0.58892 0.0
C98 C 0.96184 0.01967 0.46166 0.0
C99 C 0.93514 0.99779 0.43562 0.0
N100 N 0.92412 0.01865 0.4297 0.0
C101 C 0.95037 0.04091 0.45525 0.0
C102 C 0.95429 0.99794 0.4517 0.0
C103 C 0.9313 0.04001 0.43907 0.0
C104 C 0.01848 0.08177 0.48886 0.0
N105 N 0.99734 0.07323 0.49737 0.0
C106 C 0.98054 0.11245 0.49726 0.0
C107 C 0.97849 0.08793 0.50147 0.0
C108 C 0.0023 0.12192 0.48905 0.0
C109 C 0.02146 0.1063 0.48479 0.0
H110 H 0.03311 0.06958 0.48561 0.0
H111 H 0.9619 0.08055 0.5082 0.0
C112 C 0.91867 0.98152 0.50273 0.0
N113 N 0.92838 0.00387 0.50316 0.0
C114 C 0.89392 0.97855 0.50069 0.0
C115 C 0.88982 0.02162 0.49918 0.0
C116 C 0.91457 0.02376 0.50151 0.0
C117 C 0.87919 0.99879 0.4989 0.0
H118 H 0.93014 0.96605 0.50411 0.0
H119 H 0.92283 0.0413 0.50217 0.0
C120 C 0.04093 0.02766 0.52467 0.0
N121 N 0.08309 0.04316 0.54559 0.0
C122 C 0.06103 0.01284 0.52482 0.0
C123 C 0.04239 0.05047 0.53496 0.0
C124 C 0.08213 0.02097 0.53556 0.0
C125 C 0.06383 0.05795 0.54549 0.0
C126 C 0.99123 0.95979 0.52492 0.0
C127 C 0.01512 0.96025 0.53225 0.0
C128 C 0.97876 0.93805 0.52459 0.0
C129 C 0.02618 0.93895 0.5391 0.0
C130 C 0.99045 0.91711 0.53154 0.0
N131 N 0.01372 0.91799 0.5386 0.0
C132 C 0.9828 0.98917 0.57948 0.0
C133 C 0.01846 0.01214 0.58091 0.0
C134 C 0.98349 0.98582 0.60422 0.0
N135 N -0.00018 0.00261 0.56838 0.0
C136 C 0.02003 0.00897 0.60565 0.0
C137 C 0.00213 0.99608 0.61764 0.0
H138 H 0.96814 0.98177 0.56915 0.0
H139 H 0.03179 0.02278 0.57204 0.0
C140 C 0.04154 0.9852 0.4667 0.0
N141 N 0.01966 0.97716 0.47363 0.0
C142 C 0.05593 0.97115 0.45195 0.0
C143 C 0.02475 0.94102 0.45125 0.0
C144 C 0.01102 0.95561 0.46617 0.0
C145 C 0.04759 0.94871 0.44407 0.0
H146 H 0.04781 0.00256 0.47268 0.0
H147 H 0.9935 0.9497 0.47191 0.0
O148 O 0.969 0.0342 0.52982 0.0
O149 O 0.98006 0.02007 0.478 0.0
O150 O 0.02024 0.02017 0.51381 0.0
O151 O 0.98004 0.98036 0.51782 0.0
H152 H 0.93291 0.01545 0.55407 0.0
H153 H 0.99075 0.06646 0.55703 0.0
H154 H 0.92264 0.02589 0.59603 0.0
H155 H 0.97962 0.07586 0.59898 0.0
H156 H 0.92897 0.98109 0.4279 0.0
H157 H 0.95599 0.05785 0.46286 0.0
H158 H 0.96293 0.98135 0.45662 0.0
H159 H 0.92215 0.05627 0.43404 0.0
H160 H 0.96545 0.12398 0.50094 0.0
H161 H 0.03846 0.113 0.47833 0.0
H162 H 0.8864 0.96064 0.50038 0.0
H163 H 0.87907 0.03768 0.49815 0.0
H164 H 0.0604 0.99526 0.51667 0.0
H165 H 0.02707 0.06217 0.53511 0.0
H166 H 0.09778 0.00965 0.53586 0.0
H167 H 0.06515 0.0755 0.55363 0.0
H168 H 0.02499 0.97686 0.53275 0.0
H169 H 0.96026 0.93733 0.51891 0.0
H170 H 0.04467 0.93909 0.54482 0.0
H171 H 0.98102 0.90016 0.53132 0.0
H172 H 0.96944 0.97557 0.61281 0.0
H173 H 0.0346 0.01733 0.61541 0.0
H174 H 0.07328 0.97789 0.44655 0.0
H175 H 0.01773 0.92377 0.44572 0.0
Li176 Li 0.2121 0.73938 0.75839 0.0
Li177 Li 0.25398 0.75373 0.7489 0.0
Li178 Li 0.2446 0.71086 0.76049 0.0
Li179 Li 0.24253 0.74232 0.78923 0.0
C180 C 0.22021 0.73007 0.7115 0.0
N181 N 0.19234 0.73246 0.67065 0.0
C182 C 0.22399 0.7483 0.69478 0.0
C183 C 0.2023 0.71299 0.70737 0.0
C184 C 0.20971 0.7492 0.67425 0.0
C185 C 0.18838 0.71453 0.68664 0.0
C186 C 0.22537 0.7857 0.78617 0.0
C187 C 0.23943 0.81849 0.81062 0.0
N188 N 0.21816 0.8186 0.82239 0.0
C189 C 0.20363 0.78617 0.79844 0.0
C190 C 0.24343 0.80199 0.79225 0.0
C191 C 0.20034 0.80292 0.81673 0.0
C192 C 0.16374 0.73408 0.76901 0.0
N193 N 0.17874 0.74344 0.75231 0.0
C194 C 0.14553 0.75728 0.72916 0.0
C195 C 0.17018 0.75541 0.73291 0.0
C196 C 0.1297 0.74747 0.74601 0.0
C197 C 0.13905 0.73596 0.76624 0.0
H198 H 0.17096 0.72523 0.7846 0.0
H199 H 0.18242 0.76348 0.72032 0.0
C200 C 0.28976 0.76342 0.71499 0.0
N201 N 0.27285 0.77376 0.72901 0.0
C202 C 0.30401 0.77751 0.70003 0.0
C203 C 0.28323 0.8126 0.71434 0.0
C204 C 0.26921 0.79781 0.72882 0.0
C205 C 0.3009 0.80246 0.69968 0.0
H206 H 0.29216 0.74421 0.71549 0.0
H207 H 0.25533 0.8055 0.73982 0.0
C208 C 0.21353 0.69364 0.79043 0.0
N209 N 0.20357 0.64659 0.80218 0.0
C210 C 0.224 0.6833 0.81066 0.0
C211 C 0.19788 0.6801 0.77628 0.0
C212 C 0.21873 0.65948 0.81629 0.0
C213 C 0.19312 0.65632 0.78247 0.0
C214 C 0.2902 0.73572 0.78629 0.0
C215 C 0.29338 0.72095 0.80623 0.0
C216 C 0.3065 0.75424 0.78189 0.0
C217 C 0.31278 0.72504 0.82152 0.0
C218 C 0.32569 0.75772 0.79758 0.0
N219 N 0.3284 0.74319 0.81691 0.0
C220 C 0.24509 0.66735 0.73419 0.0
C221 C 0.26407 0.66537 0.77205 0.0
C222 C 0.24789 0.64272 0.73094 0.0
N223 N 0.2526 0.67803 0.75476 0.0
C224 C 0.26719 0.6407 0.76961 0.0
C225 C 0.25861 0.62897 0.74904 0.0
H226 H 0.23641 0.67783 0.72051 0.0
H227 H 0.26989 0.67418 0.78823 0.0
C228 C 0.22773 0.74214 0.83696 0.0
N229 N 0.24566 0.75027 0.82267 0.0
C230 C 0.22832 0.7463 0.86157 0.0
C231 C 0.26538 0.76804 0.8564 0.0
C232 C 0.26395 0.76362 0.8318 0.0
C233 C 0.24751 0.7591 0.87164 0.0
H234 H 0.21294 0.73228 0.82924 0.0
H235 H 0.27746 0.77088 0.82007 0.0
O236 O 0.23407 0.72887 0.73168 0.0
O237 O 0.22914 0.76899 0.76868 0.0
O238 O 0.21888 0.71677 0.78429 0.0
O239 O 0.2715 0.73189 0.77093 0.0
H240 H 0.23773 0.76168 0.69762 0.0
H241 H 0.19899 0.69885 0.72015 0.0
H242 H 0.21242 0.76325 0.66119 0.0
H243 H 0.17438 0.70152 0.6833 0.0
H244 H 0.2533 0.83111 0.81563 0.0
H245 H 0.18954 0.77356 0.79407 0.0
H246 H 0.26052 0.8016 0.7832 0.0
H247 H 0.18365 0.80342 0.82647 0.0
H248 H 0.1389 0.7666 0.71352 0.0
H249 H 0.12736 0.72822 0.77963 0.0
H250 H 0.31754 0.76902 0.6891 0.0
H251 H 0.28006 0.83173 0.71432 0.0
H252 H 0.23638 0.6934 0.82167 0.0
H253 H 0.18963 0.68781 0.76058 0.0
H254 H 0.22683 0.6512 0.83179 0.0
H255 H 0.18116 0.6456 0.77159 0.0
H256 H 0.28071 0.70687 0.81023 0.0
H257 H 0.30435 0.76586 0.76657 0.0
H258 H 0.31533 0.71389 0.83713 0.0
H259 H 0.33841 0.77201 0.79441 0.0
H260 H 0.24143 0.6345 0.71458 0.0
H261 H 0.27533 0.63083 0.78415 0.0
H262 H 0.21418 0.73905 0.87267 0.0
H263 H 0.28022 0.77843 0.8634 0.0
Li264 Li 0.50657 0.98714 0.03571 0.0
Li265 Li 0.5091 0.95974 0.00308 0.0
Li266 Li 0.53818 0.99074 0.0059 0.0
Li267 Li 0.49627 0.99941 0.99365 0.0
C268 C 0.54939 0.96637 0.04687 0.0
N269 N 0.58282 0.97022 0.08322 0.0
C270 C 0.56049 0.94589 0.0559 0.0
C271 C 0.55525 0.98881 0.05644 0.0
C272 C 0.57735 0.94821 0.07425 0.0
C273 C 0.5722 0.99038 0.07477 0.0
C274 C 0.46149 0.96076 0.01569 0.0
C275 C 0.42366 0.94645 0.00053 0.0
N276 N 0.42385 0.92865 0.01713 0.0
C277 C 0.46125 0.94246 0.03273 0.0
C278 C 0.44251 0.9629 0.99953 0.0
C279 C 0.44208 0.92634 0.03311 0.0
C280 C 0.49356 0.01175 0.07863 0.0
N281 N 0.49929 0.99026 0.06876 0.0
C282 C 0.49893 0.9715 0.10713 0.0
C283 C 0.50164 0.97027 0.08238 0.0
C284 C 0.49366 0.99354 0.118 0.0
C285 C 0.49054 0.01379 0.10341 0.0
H286 H 0.49192 0.02737 0.06734 0.0
H287 H 0.50629 0.95344 0.07405 0.0
C288 C 0.52489 0.91255 0.00089 0.0
N289 N 0.50583 0.92641 0.99509 0.0
C290 C 0.52428 0.88791 0.99679 0.0
C291 C 0.48466 0.89221 0.98008 0.0
C292 C 0.4861 0.91681 0.98441 0.0
C293 C 0.50384 0.87739 0.98653 0.0
H294 H 0.54057 0.92066 0.00885 0.0
H295 H 0.47143 0.92815 0.9792 0.0
C296 C 0.52224 0.03892 0.00931 0.0
N297 N 0.53313 0.08369 0.99124 0.0
C298 C 0.52976 0.04141 0.98557 0.0
C299 C 0.52026 0.0592 0.02384 0.0
C300 C 0.53518 0.0642 0.97678 0.0
C301 C 0.52586 0.08168 0.01438 0.0
C302 C 0.51793 0.96507 0.95775 0.0
C303 C 0.5374 0.95219 0.94895 0.0
C304 C 0.49531 0.96164 0.94757 0.0
C305 C 0.5339 0.93598 0.93018 0.0
C306 C 0.49255 0.94532 0.92878 0.0
N307 N 0.51173 0.9329 0.92057 0.0
C308 C 0.58537 0.97926 0.99536 0.0
C309 C 0.58128 0.01928 0.00882 0.0
C310 C 0.61016 0.98187 0.99412 0.0
N311 N 0.57146 0.99787 0.00241 0.0
C312 C 0.60601 0.0227 0.00781 0.0
C313 C 0.62082 0.00381 0.00048 0.0
H314 H 0.57722 0.96212 0.99144 0.0
H315 H 0.57011 0.03356 0.01536 0.0
C316 C 0.45757 0.0306 0.98532 0.0
N317 N 0.47634 0.0194 0.97476 0.0
C318 C 0.44269 0.04548 0.97186 0.0
C319 C 0.46674 0.03693 0.93697 0.0
C320 C 0.48131 0.02248 0.95115 0.0
C321 C 0.44713 0.04862 0.94731 0.0
H322 H 0.45418 0.02791 0.00419 0.0
H323 H 0.49664 0.01375 0.94332 0.0
O324 O 0.53277 0.96424 0.0289 0.0
O325 O 0.48004 0.97674 0.01497 0.0
O326 O 0.5165 0.01685 0.01829 0.0
O327 O 0.52087 0.98071 0.97642 0.0
H328 H 0.55609 0.92835 0.04887 0.0
H329 H 0.54683 0.0049 0.0499 0.0
H330 H 0.58607 0.9325 0.08139 0.0
H331 H 0.5769 0.00763 0.08229 0.0
H332 H 0.40889 0.9478 0.98807 0.0
H333 H 0.47584 0.94054 0.04529 0.0
H334 H 0.44244 0.97703 0.98628 0.0
H335 H 0.44172 0.91197 0.04607 0.0
H336 H 0.50119 0.95541 0.1177 0.0
H337 H 0.48664 0.03114 0.11114 0.0
H338 H 0.53943 0.87715 0.00216 0.0
H339 H 0.46875 0.88489 0.97171 0.0
H340 H 0.53153 0.02595 0.97407 0.0
H341 H 0.51445 0.05759 0.04224 0.0
H342 H 0.54102 0.06638 0.95845 0.0
H343 H 0.52442 0.09753 0.02543 0.0
H344 H 0.55504 0.95464 0.95651 0.0
H345 H 0.47994 0.97113 0.95442 0.0
H346 H 0.5488 0.92584 0.92324 0.0
H347 H 0.47512 0.94239 0.92086 0.0
H348 H 0.62089 0.96662 0.98897 0.0
H349 H 0.61344 0.03992 0.01287 0.0
H350 H 0.42767 0.05414 0.98045 0.0
H351 H 0.47096 0.03921 0.91819 0.0
Li352 Li 0.2489 0.7513 0.25249 0.0
Li353 Li 0.25936 0.71012 0.23937 0.0
Li354 Li 0.29027 0.74129 0.24385 0.0
Li355 Li 0.26191 0.74235 0.21064 0.0
C356 C 0.28472 0.72101 0.2868 0.0
N357 N 0.31783 0.70853 0.32138 0.0
C358 C 0.29319 0.69753 0.28813 0.0
C359 C 0.2929 0.73807 0.30327 0.0
C360 C 0.30997 0.69159 0.30569 0.0
C361 C 0.3097 0.73143 0.32055 0.0
C362 C 0.21334 0.71644 0.22765 0.0
C363 C 0.19089 0.68336 0.21106 0.0
N364 N 0.17416 0.68615 0.22848 0.0
C365 C 0.1959 0.71904 0.24534 0.0
C366 C 0.2108 0.69853 0.2103 0.0
C367 C 0.17622 0.70353 0.24546 0.0
C368 C 0.21406 0.7866 0.26005 0.0
N369 N 0.22825 0.77044 0.27132 0.0
C370 C 0.21329 0.78245 0.3095 0.0
C371 C 0.2281 0.76802 0.29552 0.0
C372 C 0.19842 0.79938 0.29839 0.0
C373 C 0.19886 0.80129 0.27331 0.0
H374 H 0.21467 0.78813 0.24075 0.0
H375 H 0.23953 0.75493 0.30395 0.0
C376 C 0.2686 0.66167 0.23127 0.0
N377 N 0.25317 0.67658 0.2426 0.0
C378 C 0.26535 0.63695 0.23229 0.0
C379 C 0.2305 0.64316 0.25699 0.0
C380 C 0.23467 0.66785 0.25578 0.0
C381 C 0.24588 0.6273 0.24498 0.0
H382 H 0.28364 0.66897 0.2216 0.0
H383 H 0.223 0.68004 0.26516 0.0
C384 C 0.27743 0.792 0.23814 0.0
N385 N 0.28792 0.83871 0.25092 0.0
C386 C 0.28139 0.80928 0.22049 0.0
C387 C 0.27861 0.79852 0.26227 0.0
C388 C 0.28675 0.83279 0.22732 0.0
C389 C 0.28397 0.82221 0.26838 0.0
C390 C 0.2958 0.71358 0.19596 0.0
C391 C 0.31756 0.72425 0.18972 0.0
C392 C 0.28364 0.69936 0.17926 0.0
C393 C 0.32673 0.72063 0.16675 0.0
C394 C 0.29337 0.69624 0.15645 0.0
N395 N 0.31453 0.70685 0.15072 0.0
C396 C 0.33587 0.72467 0.25354 0.0
C397 C 0.3343 0.76705 0.25377 0.0
C398 C 0.3605 0.7252 0.25735 0.0
N399 N 0.3233 0.74537 0.25178 0.0
C400 C 0.359 0.76843 0.25745 0.0
C401 C 0.37249 0.7473 0.25899 0.0
H402 H 0.32679 0.70767 0.25135 0.0
H403 H 0.32419 0.78331 0.25176 0.0
C404 C 0.23884 0.74322 0.16534 0.0
N405 N 0.25846 0.75057 0.17776 0.0
C406 C 0.23741 0.74698 0.14067 0.0
C407 C 0.27607 0.76647 0.1422 0.0
C408 C 0.27669 0.76244 0.16685 0.0
C409 C 0.25639 0.75838 0.12872 0.0
H410 H 0.22456 0.73394 0.17448 0.0
H411 H 0.29204 0.76815 0.17721 0.0
O412 O 0.26859 0.72727 0.26945 0.0
O413 O 0.23274 0.73142 0.22727 0.0
O414 O 0.27196 0.76897 0.23171 0.0
O415 O 0.28623 0.71735 0.21817 0.0
H416 H 0.28714 0.68406 0.27559 0.0
H417 H 0.28642 0.75625 0.30275 0.0
H418 H 0.31678 0.67352 0.30679 0.0
H419 H 0.31626 0.7445 0.33331 0.0
H420 H 0.18878 0.66932 0.19786 0.0
H421 H 0.19757 0.73279 0.2589 0.0
H422 H 0.22422 0.69615 0.19659 0.0
H423 H 0.16261 0.70529 0.25908 0.0
H424 H 0.21329 0.78022 0.32875 0.0
H425 H 0.18786 0.81427 0.26407 0.0
H426 H 0.27818 0.62553 0.22341 0.0
H427 H 0.21523 0.63665 0.26697 0.0
H428 H 0.28033 0.8046 0.20172 0.0
H429 H 0.27547 0.78544 0.27611 0.0
H430 H 0.28993 0.84633 0.21385 0.0
H431 H 0.28499 0.82747 0.28701 0.0
H432 H 0.32713 0.73547 0.20234 0.0
H433 H 0.26673 0.69107 0.18377 0.0
H434 H 0.34348 0.72888 0.16162 0.0
H435 H 0.28407 0.68543 0.14329 0.0
H436 H 0.37008 0.70844 0.25867 0.0
H437 H 0.36752 0.78587 0.25819 0.0
H438 H 0.22199 0.74031 0.13094 0.0
H439 H 0.29093 0.77561 0.13375 0.0
Li440 Li 0.53888 0.00726 0.48922 0.0
Li441 Li 0.51048 0.0398 0.48958 0.0
Li442 Li 0.49788 0.99745 0.49997 0.0
Li443 Li 0.50824 0.00967 0.45791 0.0
C444 C 0.53122 0.01566 0.53859 0.0
N445 N 0.55285 0.00827 0.58248 0.0
C446 C 0.54442 0.03402 0.54943 0.0
C447 C 0.52888 0.99358 0.55017 0.0
C448 C 0.55528 0.02991 0.57159 0.0
C449 C 0.53998 0.99019 0.57233 0.0
C450 C 0.54263 0.05348 0.45673 0.0
C451 C 0.53728 0.08933 0.43333 0.0
N452 N 0.5589 0.09752 0.44106 0.0
C453 C 0.56485 0.06217 0.46434 0.0
C454 C 0.52878 0.06708 0.44099 0.0
C455 C 0.57275 0.0845 0.45624 0.0
C456 C 0.58443 0.00073 0.47146 0.0
N457 N 0.57231 0.00014 0.49252 0.0
C458 C 0.60862 0.99281 0.51395 0.0
C459 C 0.58382 0.99576 0.51353 0.0
C460 C 0.62171 0.99407 0.49251 0.0
C461 C 0.60914 0.99759 0.471 0.0
H462 H 0.57486 0.00404 0.45495 0.0
H463 H 0.57402 0.99496 0.53007 0.0
C464 C 0.48498 0.08361 0.49214 0.0
N465 N 0.50641 0.07299 0.49622 0.0
C466 C 0.4826 0.10839 0.49461 0.0
C467 C 0.52421 0.1107 0.50617 0.0
C468 C 0.52571 0.0859 0.50362 0.0
C469 C 0.50251 0.12235 0.50132 0.0
H470 H 0.46981 0.07291 0.48659 0.0
H471 H 0.54254 0.07701 0.5068 0.0
C472 C 0.53479 0.96326 0.47349 0.0
N473 N 0.57007 0.92918 0.46843 0.0
C474 C 0.54493 0.95898 0.45105 0.0
C475 C 0.54242 0.95008 0.49332 0.0
C476 C 0.56279 0.94169 0.44887 0.0
C477 C 0.56033 0.93297 0.49041 0.0
C478 C 0.46134 0.02171 0.46544 0.0
C479 C 0.44412 0.00378 0.46864 0.0
C480 C 0.45757 0.0396 0.44837 0.0
C481 C 0.42347 0.00394 0.45453 0.0
C482 C 0.4367 0.0391 0.43459 0.0
N483 N 0.42023 0.02143 0.43792 0.0
C484 C 0.46384 0.98913 0.5362 0.0
C485 C 0.47656 0.95431 0.51557 0.0
C486 C 0.44887 0.97543 0.55082 0.0
N487 N 0.4773 0.97838 0.51909 0.0
C488 C 0.46189 0.93992 0.52981 0.0
C489 C 0.4478 0.95043 0.54778 0.0
H490 H 0.46481 0.00835 0.5385 0.0
H491 H 0.4875 0.94628 0.50181 0.0
C492 C 0.521 0.01205 0.40992 0.0
N493 N 0.50279 0.00503 0.42444 0.0
C494 C 0.51888 0.01003 0.38514 0.0
C495 C 0.47936 0.99323 0.3905 0.0
C496 C 0.48241 0.99523 0.41529 0.0
C497 C 0.49776 0.00074 0.37515 0.0
H498 H 0.53726 0.01924 0.41762 0.0
H499 H 0.46852 0.98897 0.42713 0.0
O500 O 0.5202 0.01951 0.51706 0.0
O501 O 0.53442 0.03182 0.46473 0.0
O502 O 0.51776 0.98055 0.4761 0.0
O503 O 0.48163 0.02187 0.47913 0.0
H504 H 0.54631 0.05125 0.54083 0.0
H505 H 0.51877 0.97915 0.54212 0.0
H506 H 0.56561 0.04395 0.58014 0.0
H507 H 0.53838 0.97318 0.58143 0.0
H508 H 0.5267 0.1001 0.42125 0.0
H509 H 0.57574 0.05194 0.47662 0.0
H510 H 0.51161 0.06054 0.43484 0.0
H511 H 0.58984 0.09153 0.4621 0.0
H512 H 0.61747 0.9903 0.53101 0.0
H513 H 0.61829 0.99814 0.45394 0.0
H514 H 0.4654 0.11653 0.49114 0.0
H515 H 0.54012 0.12067 0.51111 0.0
H516 H 0.53924 0.96904 0.43554 0.0
H517 H 0.53476 0.9532 0.51081 0.0
H518 H 0.5709 0.93827 0.43165 0.0
H519 H 0.56653 0.92275 0.50562 0.0
H520 H 0.44671 0.98981 0.48178 0.0
H521 H 0.47066 0.05364 0.44571 0.0
H522 H 0.41003 0.99014 0.45675 0.0
H523 H 0.43361 0.05276 0.42123 0.0
H524 H 0.4381 0.98435 0.5642 0.0
H525 H 0.46191 0.92072 0.52703 0.0
H526 H 0.53346 0.01604 0.37389 0.0
H527 H 0.46296 0.98562 0.38342 0.0
Li528 Li 0.24667 0.24655 0.75458 0.0
Li529 Li 0.23858 0.28865 0.74285 0.0
Li530 Li 0.20582 0.26071 0.74622 0.0
Li531 Li 0.23378 0.25671 0.71495 0.0
C532 C 0.21307 0.27043 0.79121 0.0
N533 N 0.18089 0.26763 0.82859 0.0
C534 C 0.20493 0.2913 0.8023 0.0
C535 C 0.205 0.24812 0.79926 0.0
C536 C 0.18862 0.28951 0.82114 0.0
C537 C 0.18869 0.24709 0.81815 0.0
C538 C 0.28592 0.27273 0.73961 0.0
C539 C 0.32838 0.27856 0.73465 0.0
N540 N 0.3302 0.28499 0.75808 0.0
C541 C 0.28821 0.27941 0.76366 0.0
C542 C 0.30617 0.27228 0.72499 0.0
C543 C 0.31075 0.28553 0.77265 0.0
C544 C 0.28253 0.21198 0.76247 0.0
N545 N 0.26674 0.22667 0.77363 0.0
C546 C 0.28079 0.21401 0.812 0.0
C547 C 0.26583 0.22815 0.7979 0.0
C548 C 0.29708 0.19838 0.80102 0.0
C549 C 0.29788 0.19754 0.77587 0.0
H550 H 0.28344 0.21175 0.74314 0.0
H551 H 0.25367 0.24047 0.80638 0.0
C552 C 0.22702 0.33553 0.75333 0.0
N553 N 0.24579 0.32189 0.74628 0.0
C554 C 0.22916 0.3604 0.75433 0.0
C555 C 0.26999 0.35685 0.74073 0.0
C556 C 0.26702 0.332 0.73989 0.0
C557 C 0.25081 0.37138 0.7478 0.0
H558 H 0.21012 0.32707 0.75751 0.0
H559 H 0.28141 0.32097 0.73338 0.0
C560 C 0.21582 0.21401 0.71876 0.0
N561 N 0.20596 0.18152 0.68266 0.0
C562 C 0.19351 0.21406 0.70743 0.0
C563 C 0.23306 0.19737 0.71181 0.0
C564 C 0.18888 0.19749 0.68921 0.0
C565 C 0.22776 0.18112 0.69349 0.0
C566 C 0.21317 0.30017 0.70258 0.0
C567 C 0.19258 0.3121 0.69506 0.0
C568 C 0.23514 0.30552 0.69187 0.0
C569 C 0.19429 0.32921 0.67691 0.0
C570 C 0.2361 0.32273 0.67378 0.0
N571 N 0.21583 0.33412 0.66673 0.0
C572 C 0.16139 0.28051 0.75632 0.0
C573 C 0.16161 0.23812 0.75882 0.0
C574 C 0.13706 0.28106 0.76167 0.0
N575 N 0.17302 0.25926 0.75479 0.0
C576 C 0.13719 0.23782 0.76407 0.0
C577 C 0.12452 0.2595 0.76529 0.0
H578 H 0.17106 0.29703 0.75321 0.0
H579 H 0.1714 0.2215 0.75764 0.0
C580 C 0.25814 0.24245 0.67262 0.0
N581 N 0.23662 0.2488 0.68185 0.0
C582 C 0.26043 0.23793 0.64811 0.0
C583 C 0.21826 0.24604 0.64329 0.0
C584 C 0.21685 0.25063 0.66779 0.0
C585 C 0.24031 0.23982 0.63312 0.0
H586 H 0.27355 0.24116 0.68425 0.0
H587 H 0.2 0.25592 0.6756 0.0
O588 O 0.22854 0.27179 0.7723 0.0
O589 O 0.26415 0.26635 0.73029 0.0
O590 O 0.22086 0.23042 0.73629 0.0
O591 O 0.21166 0.28355 0.72052 0.0
H592 H 0.21114 0.3087 0.79646 0.0
H593 H 0.21098 0.2318 0.79073 0.0
H594 H 0.1821 0.30552 0.82983 0.0
H595 H 0.18215 0.22996 0.82442 0.0
H596 H 0.34419 0.2783 0.72352 0.0
H597 H 0.27285 0.27994 0.77532 0.0
H598 H 0.30471 0.26715 0.70635 0.0
H599 H 0.31277 0.29073 0.79121 0.0
H600 H 0.27944 0.21518 0.8313 0.0
H601 H 0.31049 0.18615 0.76663 0.0
H602 H 0.21395 0.37092 0.75997 0.0
H603 H 0.28683 0.36463 0.73511 0.0
H604 H 0.18007 0.22704 0.7123 0.0
H605 H 0.25042 0.19711 0.72033 0.0
H606 H 0.17175 0.19745 0.68018 0.0
H607 H 0.24098 0.16822 0.68785 0.0
H608 H 0.17546 0.3082 0.70323 0.0
H609 H 0.2513 0.29656 0.69746 0.0
H610 H 0.17849 0.33859 0.67092 0.0
H611 H 0.25297 0.32705 0.66535 0.0
H612 H 0.12817 0.29821 0.76288 0.0
H613 H 0.12825 0.22076 0.7665 0.0
H614 H 0.27772 0.23303 0.64095 0.0
H615 H 0.20241 0.24801 0.63232 0.0
Li616 Li 0.98979 0.9884 0.95898 0.0
Li617 Li 0.00018 0.00271 0.00069 0.0
Li618 Li 0.98868 0.95917 0.99224 0.0
Li619 Li 0.96059 0.99072 0.98964 0.0
C620 C 0.03953 0.98152 0.97221 0.0
N621 N 0.08578 0.98915 0.95652 0.0
C622 C 0.04847 0.00482 0.96997 0.0
C623 C 0.05413 0.9621 0.96646 0.0
C624 C 0.07189 0.00832 0.96203 0.0
C625 C 0.07745 0.96633 0.95853 0.0
C626 C 0.96329 0.03537 0.97208 0.0
C627 C 0.94555 0.07335 0.98231 0.0
N628 N 0.92975 0.07069 0.96395 0.0
C629 C 0.94691 0.03307 0.95328 0.0
C630 C 0.96263 0.0557 0.98672 0.0
C631 C 0.93007 0.05107 0.94949 0.0
C632 C 0.97513 0.98784 0.91122 0.0
N633 N 0.99484 0.99181 0.925 0.0
C634 C 0.01844 0.99875 0.88993 0.0
C635 C 0.01625 0.9973 0.91484 0.0
C636 C 0.99839 0.99442 0.8753 0.0
C637 C 0.97652 0.9889 0.88634 0.0
H638 H 0.95824 0.98354 0.91953 0.0
H639 H 0.03172 0.00056 0.92585 0.0
C640 C 0.03037 0.01304 0.03976 0.0
N641 N 0.02027 0.02271 0.01986 0.0
C642 C 0.0451 0.02698 0.05451 0.0
C643 C 0.03868 0.06057 0.02805 0.0
C644 C 0.02423 0.04595 0.01373 0.0
C645 C 0.04932 0.05112 0.04877 0.0
H646 H 0.02688 0.9945 0.04419 0.0
H647 H 0.0164 0.05306 0.99754 0.0
C648 C 0.96685 0.94569 0.95052 0.0
N649 N 0.97095 0.9085 0.91803 0.0
C650 C 0.94641 0.93561 0.94004 0.0
C651 C 0.98937 0.93685 0.94434 0.0
C652 C 0.94886 0.91683 0.92368 0.0
C653 C 0.99107 0.91804 0.92793 0.0
C654 C 0.96192 0.9845 0.03574 0.0
C655 C 0.94515 0.96663 0.04089 0.0
C656 C 0.96101 0.00639 0.04784 0.0
C657 C 0.92747 0.9711 0.05794 0.0
C658 C 0.94309 0.01014 0.06482 0.0
N659 N 0.92681 0.99258 0.06944 0.0
C660 C 0.01476 0.9169 0.00523 0.0
C661 C 0.97287 0.91279 -2e-05 0.0
C662 C 0.01701 0.8922 0.00874 0.0
N663 N 0.99296 0.92653 0.00056 0.0
C664 C 0.97429 0.88811 0.00322 0.0
C665 C 0.99662 0.87745 0.00726 0.0
H666 H 0.03043 0.92831 0.00567 0.0
H667 H 0.95576 0.92099 0.99632 0.0
C668 C 0.91808 0.01652 0.00531 0.0
N669 N 0.92709 0.99637 0.99505 0.0
C670 C 0.89335 0.01962 0.00721 0.0
C671 C 0.88772 0.9805 0.98956 0.0
C672 C 0.91245 0.97829 0.98779 0.0
C673 C 0.87778 0.0016 0.99888 0.0
H674 H 0.92998 0.03027 0.01191 0.0
H675 H 0.92 0.96204 0.98066 0.0
O676 O 0.01684 0.97768 0.98052 0.0
O677 O 0.97996 0.01793 0.97601 0.0
O678 O 0.96462 0.96416 0.96659 0.0
O679 O 0.97902 0.9807 0.01873 0.0
H680 H 0.03725 0.02005 0.97372 0.0
H681 H 0.04755 0.94392 0.96806 0.0
H682 H 0.07898 0.02627 0.9601 0.0
H683 H 0.08893 0.95145 0.954 0.0
H684 H 0.94477 0.0891 0.99357 0.0
H685 H 0.94697 0.0174 0.94195 0.0
H686 H 0.97483 0.05765 0.00163 0.0
H687 H 0.91721 0.04943 0.93509 0.0
H688 H 0.03561 0.00338 0.88226 0.0
H689 H 0.96065 0.985 0.87589 0.0
H690 H 0.0528 0.01906 0.07043 0.0
H691 H 0.04177 0.07899 0.02278 0.0
H692 H 0.92882 0.94229 0.94434 0.0
H693 H 0.00541 0.94435 0.95205 0.0
H694 H 0.93318 0.90891 0.91546 0.0
H695 H 0.0084 0.91104 0.92305 0.0
H696 H 0.94562 0.94961 0.03161 0.0
H697 H 0.97382 0.02043 0.04396 0.0
H698 H 0.91425 0.95751 0.062 0.0
H699 H 0.94205 0.02704 0.07423 0.0
H700 H 0.03456 0.88464 0.01175 0.0
H701 H 0.9581 0.87744 0.00234 0.0
H702 H 0.88657 0.03617 0.01464 0.0
H703 H 0.87651 0.96575 0.98369 0.0
Li704 Li 0.74676 0.25076 0.75379 0.0
Li705 Li 0.75655 0.2093 0.74313 0.0
Li706 Li 0.78802 0.2412 0.74621 0.0
Li707 Li 0.76076 0.24051 0.71196 0.0
C708 C 0.75957 0.22868 0.7948 0.0
N709 N 0.74332 0.2308 0.84144 0.0
C710 C 0.74487 0.21051 0.8038 0.0
C711 C 0.76625 0.24777 0.80961 0.0
C712 C 0.73679 0.21194 0.82741 0.0
C713 C 0.75777 0.24858 0.8331 0.0
C714 C 0.71077 0.21799 0.72258 0.0
C715 C 0.68884 0.19297 0.69485 0.0
N716 N 0.66955 0.19367 0.70961 0.0
C717 C 0.69061 0.21867 0.73732 0.0
C718 C 0.70979 0.20523 0.70103 0.0
C719 C 0.66998 0.20619 0.73051 0.0
C720 C 0.72763 0.29494 0.76877 0.0
N721 N 0.72596 0.27086 0.77199 0.0
C722 C 0.69547 0.27614 0.80146 0.0
C723 C 0.71014 0.26129 0.78781 0.0
C724 C 0.69702 0.30111 0.79875 0.0
C725 C 0.71333 0.31047 0.78207 0.0
H726 H 0.74006 0.30213 0.75584 0.0
H727 H 0.70898 0.24212 0.78998 0.0
C728 C 0.77169 0.16285 0.75066 0.0
N729 N 0.75135 0.1759 0.74838 0.0
C730 C 0.77052 0.13805 0.75337 0.0
C731 C 0.72742 0.1405 0.75193 0.0
C732 C 0.72943 0.16532 0.74934 0.0
C733 C 0.74817 0.12653 0.75381 0.0
H734 H 0.78889 0.17175 0.74996 0.0
H735 H 0.71347 0.17598 0.74807 0.0
C736 C 0.7858 0.28656 0.73365 0.0
N737 N 0.81977 0.32257 0.736 0.0
C738 C 0.79648 0.29512 0.71272 0.0
C739 C 0.79214 0.29655 0.75574 0.0
C740 C 0.81368 0.31328 0.71429 0.0
C741 C 0.80943 0.31466 0.75656 0.0
C742 C 0.79109 0.2013 0.70333 0.0
C743 C 0.81442 0.20255 0.69446 0.0
C744 C 0.77501 0.18476 0.69352 0.0
C745 C 0.82109 0.18759 0.67556 0.0
C746 C 0.78236 0.17008 0.67467 0.0
N747 N 0.80505 0.17182 0.66612 0.0
C748 C 0.82839 0.24392 0.77721 0.0
C749 C 0.83564 0.25321 0.73646 0.0
C750 C 0.85261 0.247 0.78266 0.0
N751 N 0.82049 0.24697 0.7544 0.0
C752 C 0.85993 0.25647 0.74108 0.0
C753 C 0.86876 0.25319 0.76441 0.0
H754 H 0.81596 0.23877 0.79109 0.0
H755 H 0.82886 0.2553 0.71845 0.0
C756 C 0.73721 0.25029 0.66772 0.0
N757 N 0.75868 0.24691 0.67861 0.0
C758 C 0.73599 0.25355 0.64294 0.0
C759 C 0.77909 0.25101 0.6413 0.0
C760 C 0.77944 0.24766 0.66603 0.0
C761 C 0.75713 0.25364 0.62934 0.0
H762 H 0.72099 0.2501 0.67822 0.0
H763 H 0.79631 0.24565 0.67524 0.0
O764 O 0.76757 0.22762 0.7717 0.0
O765 O 0.73111 0.23016 0.729 0.0
O766 O 0.76925 0.26848 0.73253 0.0
O767 O 0.78423 0.21594 0.72176 0.0
H768 H 0.73958 0.19556 0.79263 0.0
H769 H 0.77777 0.26188 0.80301 0.0
H770 H 0.72529 0.19808 0.83457 0.0
H771 H 0.76266 0.26333 0.84471 0.0
H772 H 0.6879 0.18298 0.67827 0.0
H773 H 0.69087 0.22864 0.75388 0.0
H774 H 0.72491 0.20495 0.68905 0.0
H775 H 0.65432 0.20647 0.74184 0.0
H776 H 0.68331 0.26816 0.81427 0.0
H777 H 0.71485 0.32958 0.77913 0.0
H778 H 0.78698 0.12796 0.75454 0.0
H779 H 0.70983 0.13235 0.75258 0.0
H780 H 0.79163 0.28776 0.69547 0.0
H781 H 0.78392 0.29025 0.77207 0.0
H782 H 0.82219 0.31998 0.69825 0.0
H783 H 0.81463 0.32243 0.77356 0.0
H784 H 0.82724 0.21499 0.70199 0.0
H785 H 0.75714 0.18303 0.70053 0.0
H786 H 0.83904 0.18851 0.66843 0.0
H787 H 0.77005 0.15724 0.6669 0.0
H788 H 0.85862 0.24449 0.80092 0.0
H789 H 0.87174 0.26083 0.72636 0.0
H790 H 0.71865 0.2554 0.63451 0.0
H791 H 0.79587 0.25159 0.63168 0.0
Li792 Li 0.00967 0.53813 0.99121 0.0
Li793 Li 0.03861 0.50508 0.98825 0.0
Li794 Li 0.00623 0.50956 0.95851 0.0
Li795 Li 0.99812 0.49678 -2e-05 0.0
C796 C 0.04243 0.55312 0.96013 0.0
N797 N 0.06088 0.59816 0.95104 0.0
C798 C 0.06496 0.55956 0.96895 0.0
C799 C 0.02938 0.56949 0.94649 0.0
C800 C 0.07396 0.58244 0.96418 0.0
C801 C 0.03897 0.59221 0.94217 0.0
C802 C 0.01635 0.51322 0.04013 0.0
C803 C 0.01713 0.48828 0.07532 0.0
N804 N 0.00251 0.50403 0.08666 0.0
C805 C 0.00144 0.52924 0.05214 0.0
C806 C 0.0244 0.49265 0.05181 0.0
C807 C 0.99462 0.52425 0.07567 0.0
C808 C 0.98569 0.5826 0.99442 0.0
N809 N 0.00637 0.571 0.99951 0.0
C810 C 0.02451 0.6074 0.01309 0.0
C811 C 0.02539 0.5827 0.00927 0.0
C812 C 0.00367 0.6201 0.00716 0.0
C813 C 0.98391 0.60725 0.99817 0.0
H814 H 0.97068 0.57279 0.98709 0.0
H815 H 0.04155 0.57293 0.01336 0.0
C816 C 0.08366 0.49069 0.9714 0.0
N817 N 0.07165 0.49791 0.99124 0.0
C818 C 0.10828 0.48699 0.9723 0.0
C819 C 0.10794 0.49916 0.01384 0.0
C820 C 0.08318 0.50206 0.01227 0.0
C821 C 0.12095 0.49166 0.99361 0.0
H822 H 0.07415 0.4882 0.95471 0.0
H823 H 0.07325 0.50838 0.02761 0.0
C824 C 0.96049 0.521 0.9669 0.0
N825 N 0.92011 0.52043 0.93833 0.0
C826 C 0.94342 0.50283 0.96952 0.0
C827 C 0.95699 0.53892 0.94981 0.0
C828 C 0.92312 0.50287 0.95491 0.0
C829 C 0.93648 0.53829 0.9355 0.0
C830 C 0.03153 0.46147 0.96979 0.0
C831 C 0.0359 0.45532 0.94593 0.0
C832 C 0.04292 0.44889 0.98816 0.0
C833 C 0.05183 0.4368 0.94084 0.0
C834 C 0.05875 0.43051 0.98232 0.0
N835 N 0.06284 0.4249 0.95898 0.0
C836 C 0.01637 0.51581 0.91024 0.0
C837 C 0.98025 0.49432 0.91629 0.0
C838 C 0.01368 0.51416 0.88549 0.0
N839 N 0.99968 0.50619 0.92509 0.0
C840 C 0.97662 0.4926 0.89155 0.0
C841 C 0.99356 0.50255 0.87589 0.0
H842 H 0.03196 0.52462 0.91761 0.0
H843 H 0.96766 0.48608 0.92841 0.0
C844 C 0.96046 0.48777 0.03256 0.0
N845 N 0.97833 0.4773 0.01988 0.0
C846 C 0.94591 0.47401 0.04754 0.0
C847 C 0.96829 0.43893 0.03599 0.0
C848 C 0.98238 0.45336 0.02122 0.0
C849 C 0.94976 0.44922 0.04944 0.0
H850 H 0.95757 0.50685 0.03105 0.0
H851 H 0.99651 0.44544 0.01076 0.0
O852 O 0.03308 0.531 0.96502 0.0
O853 O 0.02276 0.51748 0.01693 0.0
O854 O 0.98045 0.52132 0.98108 0.0
O855 O 0.01612 0.47966 0.97512 0.0
H856 H 0.07529 0.54712 0.97956 0.0
H857 H 0.01193 0.56475 0.93952 0.0
H858 H 0.09132 0.58772 0.971 0.0
H859 H 0.029 0.60512 0.9318 0.0
H860 H 0.02308 0.47235 0.08454 0.0
H861 H 0.99502 0.54521 0.0433 0.0
H862 H 0.03595 0.48009 0.04271 0.0
H863 H 0.98298 0.53641 0.08517 0.0
H864 H 0.04026 0.6165 0.01987 0.0
H865 H 0.96729 0.61614 0.99388 0.0
H866 H 0.11724 0.48078 0.95632 0.0
H867 H 0.1168 0.50354 0.03053 0.0
H868 H 0.94588 0.48875 0.98256 0.0
H869 H 0.97007 0.55303 0.94745 0.0
H870 H 0.90979 0.4889 0.95669 0.0
H871 H 0.9336 0.55196 0.92211 0.0
H872 H 0.02718 0.4648 0.9315 0.0
H873 H 0.03982 0.4535 0.00671 0.0
H874 H 0.05546 0.4319 0.92246 0.0
H875 H 0.06782 0.42074 0.99634 0.0
H876 H 0.02712 0.52206 0.87397 0.0
H877 H 0.96105 0.4832 0.88474 0.0
H878 H 0.932 0.48275 0.05775 0.0
H879 H 0.97166 0.41985 0.03659 0.0
Li880 Li 0.75374 0.75471 0.25438 0.0
Li881 Li 0.7447 0.79372 0.23995 0.0
Li882 Li 0.71243 0.76688 0.24596 0.0
Li883 Li 0.74033 0.7623 0.2111 0.0
C884 C 0.72792 0.77132 0.29313 0.0
N885 N 0.71512 0.75369 0.33755 0.0
C886 C 0.72636 0.78673 0.31281 0.0
C887 C 0.72301 0.74695 0.2961 0.0
C888 C 0.71982 0.77748 0.3351 0.0
C889 C 0.71658 0.73837 0.31867 0.0
C890 C 0.79004 0.7859 0.22776 0.0
C891 C 0.8207 0.80745 0.20638 0.0
N892 N 0.83003 0.81506 0.2276 0.0
C893 C 0.8 0.79375 0.24936 0.0
C894 C 0.80051 0.79264 0.20608 0.0
C895 C 0.82019 0.80856 0.2489 0.0
C896 C 0.78007 0.71311 0.26472 0.0
N897 N 0.77406 0.73505 0.27332 0.0
C898 C 0.79612 0.72809 0.30931 0.0
C899 C 0.78201 0.74288 0.29499 0.0
C900 C 0.80247 0.70525 0.30099 0.0
C901 C 0.79448 0.69786 0.27829 0.0
H902 H 0.77353 0.70741 0.24738 0.0
H903 H 0.77722 0.76054 0.30127 0.0
C904 C 0.74964 0.83949 0.26161 0.0
N905 N 0.75339 0.82686 0.24116 0.0
C906 C 0.75329 0.86426 0.26201 0.0
C907 C 0.76518 0.86242 0.22047 0.0
C908 C 0.76125 0.83774 0.22087 0.0
C909 C 0.76083 0.8761 0.24113 0.0
H910 H 0.74305 0.83044 0.27737 0.0
H911 H 0.76366 0.82735 0.20472 0.0
C912 C 0.71472 0.71838 0.22997 0.0
N913 N 0.68508 0.67978 0.22037 0.0
C914 C 0.70054 0.71813 0.20935 0.0
C915 C 0.71417 0.69873 0.24548 0.0
C916 C 0.68556 0.69854 0.20488 0.0
C917 C 0.69898 0.67946 0.24037 0.0
C918 C 0.7078 0.81008 0.21541 0.0
C919 C 0.6952 0.82061 0.23425 0.0
C920 C 0.71125 0.82282 0.19416 0.0
C921 C 0.68632 0.84379 0.23154 0.0
C922 C 0.70209 0.84597 0.19216 0.0
N923 N 0.68993 0.8559 0.21073 0.0
C924 C 0.66891 0.76521 0.27493 0.0
C925 C 0.66504 0.76021 0.233 0.0
C926 C 0.64416 0.76312 0.27779 0.0
N927 N 0.6789 0.76335 0.25278 0.0
C928 C 0.6403 0.75789 0.23504 0.0
C929 C 0.62954 0.75928 0.25767 0.0
H930 H 0.67987 0.76872 0.29041 0.0
H931 H 0.6732 0.75995 0.21549 0.0
C932 C 0.76025 0.73832 0.1707 0.0
N933 N 0.74265 0.75308 0.17854 0.0
C934 C 0.76151 0.73202 0.14647 0.0
C935 C 0.72659 0.75629 0.13906 0.0
C936 C 0.72593 0.76197 0.16334 0.0
C937 C 0.74452 0.74108 0.13026 0.0
H938 H 0.77326 0.73146 0.18327 0.0
H939 H 0.712 0.77347 0.17013 0.0
O940 O 0.73473 0.78013 0.2713 0.0
O941 O 0.77013 0.77165 0.22783 0.0
O942 O 0.72963 0.73736 0.23457 0.0
O943 O 0.71731 0.7877 0.21808 0.0
H944 H 0.73018 0.80564 0.31091 0.0
H945 H 0.7241 0.73482 0.28116 0.0
H946 H 0.71853 0.78922 0.35047 0.0
H947 H 0.71273 0.71954 0.32117 0.0
H948 H 0.82894 0.81294 0.18975 0.0
H949 H 0.79204 0.7887 0.26627 0.0
H950 H 0.79298 0.78664 0.18923 0.0
H951 H 0.82801 0.81493 0.26546 0.0
H952 H 0.8022 0.73451 0.3266 0.0
H953 H 0.79894 0.68033 0.27133 0.0
H954 H 0.74938 0.87411 0.27824 0.0
H955 H 0.77122 0.87073 0.20404 0.0
H956 H 0.70095 0.73297 0.19697 0.0
H957 H 0.72547 0.69822 0.2612 0.0
H958 H 0.67435 0.69824 0.18908 0.0
H959 H 0.69832 0.6642 0.25227 0.0
H960 H 0.69268 0.81114 0.25096 0.0
H961 H 0.72127 0.81511 0.17952 0.0
H962 H 0.67667 0.85222 0.24603 0.0
H963 H 0.70476 0.85611 0.17588 0.0
H964 H 0.63657 0.76443 0.29557 0.0
H965 H 0.62965 0.75559 0.21897 0.0
H966 H 0.77551 0.72005 0.14057 0.0
H967 H 0.71336 0.76409 0.12726 0.0
Li968 Li 0.00718 0.48991 0.53705 0.0
Li969 Li 0.0097 0.46183 0.50408 0.0
Li970 Li 0.03942 0.49351 0.50723 0.0
Li971 Li 0.99712 0.50218 0.49422 0.0
C972 C 0.04551 0.46224 0.55001 0.0
N973 N 0.06998 0.45242 0.59185 0.0
C974 C 0.04459 0.43929 0.55995 0.0
C975 C 0.05898 0.48014 0.56126 0.0
C976 C 0.05705 0.43469 0.58114 0.0
C977 C 0.07121 0.47483 0.58241 0.0
C978 C 0.96062 0.4655 0.51352 0.0
C979 C 0.92517 0.45405 0.49162 0.0
N980 N 0.91947 0.43829 0.50929 0.0
C981 C 0.95435 0.44933 0.53154 0.0
C982 C 0.94588 0.46801 0.49344 0.0
C983 C 0.9335 0.43567 0.52903 0.0
C984 C 0.99722 0.51528 0.5803 0.0
N985 N 0.99959 0.49332 0.57004 0.0
C986 C 0.99474 0.4741 0.60789 0.0
C987 C 0.99782 0.47292 0.58317 0.0
C988 C 0.99294 0.4965 0.61912 0.0
C989 C 0.9937 0.5173 0.60502 0.0
H990 H 0.99852 0.53121 0.56939 0.0
H991 H 0.99936 0.4557 0.57449 0.0
C992 C 0.02913 0.41667 0.49883 0.0
N993 N 0.0079 0.42823 0.49668 0.0
C994 C 0.03057 0.39205 0.49487 0.0
C995 C 0.98827 0.39155 0.48616 0.0
C996 C 0.98774 0.41628 0.48994 0.0
C997 C 0.00987 0.379 0.48886 0.0
H998 H 0.04503 0.42664 0.5037 0.0
H999 H 0.97119 0.42575 0.48753 0.0
C1000 C 0.02808 0.54093 0.51979 0.0
N1001 N 0.05015 0.58529 0.52091 0.0
C1002 C 0.0261 0.55644 0.50025 0.0
C1003 C 0.04108 0.54808 0.53998 0.0
C1004 C 0.03742 0.57877 0.50116 0.0
C1005 C 0.05219 0.57054 0.54016 0.0
C1006 C 0.02486 0.46609 0.46054 0.0
C1007 C 0.04753 0.45696 0.45554 0.0
C1008 C 0.00489 0.45704 0.4484 0.0
C1009 C 0.04983 0.43874 0.43853 0.0
C1010 C 0.00794 0.43881 0.43153 0.0
N1011 N 0.03016 0.43011 0.427 0.0
C1012 C 0.08753 0.48153 0.50779 0.0
C1013 C 0.08151 0.52169 0.4957 0.0
C1014 C 0.11222 0.48423 0.50579 0.0
N1015 N 0.07273 0.50019 0.50311 0.0
C1016 C 0.10618 0.52524 0.49351 0.0
C1017 C 0.12188 0.50634 0.49864 0.0
H1018 H 0.08014 0.46443 0.51309 0.0
H1019 H 0.06949 0.53606 0.49129 0.0
C1020 C 0.96339 0.53867 0.48601 0.0
N1021 N 0.97746 0.52216 0.47511 0.0
C1022 C 0.94898 0.55383 0.47236 0.0
C1023 C 0.9636 0.53443 0.43658 0.0
C1024 C 0.97792 0.51987 0.4509 0.0
C1025 C 0.94889 0.55181 0.44723 0.0
H1026 H 0.96358 0.54019 0.50532 0.0
H1027 H 0.98943 0.50674 0.44269 0.0
O1028 O 0.03303 0.46716 0.52953 0.0
O1029 O 0.98076 0.47925 0.51577 0.0
O1030 O 0.01695 0.51908 0.51931 0.0
O1031 O 0.02216 0.48343 0.47762 0.0
H1032 H 0.03413 0.42526 0.55152 0.0
H1033 H 0.05998 0.49792 0.55371 0.0
H1034 H 0.05639 0.41706 0.58911 0.0
H1035 H 0.08166 0.48854 0.59134 0.0
H1036 H 0.91364 0.45572 0.47614 0.0
H1037 H 0.96551 0.44725 0.54722 0.0
H1038 H 0.95043 0.4805 0.47937 0.0
H1039 H 0.92847 0.423 0.54277 0.0
H1040 H 0.99393 0.45768 0.61817 0.0
H1041 H 0.9924 0.53488 0.61313 0.0
H1042 H 0.04778 0.3834 0.49652 0.0
H1043 H 0.97178 0.38237 0.48168 0.0
H1044 H 0.01616 0.55121 0.48445 0.0
H1045 H 0.04252 0.53648 0.5554 0.0
H1046 H 0.03614 0.5909 0.48613 0.0
H1047 H 0.06237 0.57627 0.55564 0.0
H1048 H 0.06315 0.46374 0.4648 0.0
H1049 H 0.98717 0.46368 0.45231 0.0
H1050 H 0.06726 0.43142 0.43456 0.0
H1051 H 0.99263 0.43149 0.42215 0.0
H1052 H 0.12364 0.46921 0.5101 0.0
H1053 H 0.11286 0.54245 0.48754 0.0
H1054 H 0.93832 0.56719 0.48141 0.0
H1055 H 0.96392 0.53189 0.41736 0.0
Li1056 Li 0.48928 0.53865 0.00664 0.0
Li1057 Li 0.46058 0.50528 0.00914 0.0
Li1058 Li 0.4932 0.50968 0.03855 0.0
Li1059 Li 0.50104 0.49773 0.99689 0.0
C1060 C 0.45672 0.55303 0.0374 0.0
N1061 N 0.43842 0.5982 0.04539 0.0
C1062 C 0.43457 0.55937 0.02774 0.0
C1063 C 0.46947 0.56956 0.05131 0.0
C1064 C 0.42564 0.58232 0.03197 0.0
C1065 C 0.45994 0.59234 0.05507 0.0
C1066 C 0.48194 0.51458 0.95715 0.0
C1067 C 0.48068 0.49014 0.92156 0.0
N1068 N 0.49437 0.50664 0.90999 0.0
C1069 C 0.49587 0.53138 0.9449 0.0
C1070 C 0.47412 0.49387 0.94539 0.0
C1071 C 0.502 0.52701 0.92105 0.0
C1072 C 0.51223 0.58398 0.00505 0.0
N1073 N 0.49231 0.57156 0.99857 0.0
C1074 C 0.47446 0.60694 0.98267 0.0
C1075 C 0.47378 0.58237 0.98717 0.0
C1076 C 0.49455 0.6204 0.98974 0.0
C1077 C 0.51375 0.60856 0.00077 0.0
H1078 H 0.52677 0.5749 0.01389 0.0
H1079 H 0.45827 0.57193 0.982 0.0
C1080 C 0.41544 0.48997 0.02558 0.0
N1081 N 0.42761 0.49758 0.00597 0.0
C1082 C 0.39084 0.48596 0.02437 0.0
C1083 C 0.39157 0.49854 0.98299 0.0
C1084 C 0.41628 0.50178 0.98487 0.0
C1085 C 0.3784 0.49066 0.00297 0.0
H1086 H 0.42479 0.48743 0.04233 0.0
H1087 H 0.42632 0.50842 0.96972 0.0
C1088 C 0.53873 0.52168 0.03018 0.0
N1089 N 0.57913 0.52065 0.0587 0.0
C1090 C 0.55606 0.50407 0.02662 0.0
C1091 C 0.54198 0.53881 0.04818 0.0
C1092 C 0.57637 0.50387 0.04123 0.0
C1093 C 0.5625 0.53796 0.06244 0.0
C1094 C 0.46801 0.46147 0.02649 0.0
C1095 C 0.4633 0.4552 0.05024 0.0
C1096 C 0.45707 0.44871 0.00788 0.0
C1097 C 0.44747 0.43638 0.05499 0.0
C1098 C 0.44133 0.43003 0.01337 0.0
N1099 N 0.43689 0.42431 0.03662 0.0
C1100 C 0.48468 0.51525 0.08729 0.0
C1101 C 0.51952 0.49254 0.0794 0.0
C1102 C 0.488 0.51265 0.11187 0.0
N1103 N 0.50042 0.50542 0.07163 0.0
C1104 C 0.52381 0.48989 0.10393 0.0
C1105 C 0.50781 0.49993 0.12042 0.0
H1106 H 0.46934 0.52491 0.08069 0.0
H1107 H 0.53134 0.48423 0.0666 0.0
C1108 C 0.53736 0.48998 0.96268 0.0
N1109 N 0.52076 0.47889 0.97658 0.0
C1110 C 0.55182 0.47663 0.94736 0.0
C1111 C 0.53222 0.44063 0.96137 0.0
C1112 C 0.51805 0.4547 0.97632 0.0
C1113 C 0.54936 0.45157 0.94654 0.0
H1114 H 0.53929 0.50925 0.96347 0.0
H1115 H 0.50498 0.44631 0.98782 0.0
O1116 O 0.46607 0.53088 0.03297 0.0
O1117 O 0.47615 0.5183 0.98063 0.0
O1118 O 0.51874 0.5222 0.01605 0.0
O1119 O 0.48331 0.47996 0.02148 0.0
H1120 H 0.4245 0.54682 0.01689 0.0
H1121 H 0.48665 0.56491 0.05889 0.0
H1122 H 0.40858 0.58754 0.02449 0.0
H1123 H 0.46969 0.60538 0.06564 0.0
H1124 H 0.47491 0.47411 0.91227 0.0
H1125 H 0.5021 0.54748 0.95378 0.0
H1126 H 0.4633 0.48073 0.95465 0.0
H1127 H 0.51289 0.53978 0.91137 0.0
H1128 H 0.45943 0.61533 0.97383 0.0
H1129 H 0.52949 0.6183 0.00665 0.0
H1130 H 0.38171 0.47951 0.04018 0.0
H1131 H 0.38287 0.50296 0.96626 0.0
H1132 H 0.55383 0.49062 0.01284 0.0
H1133 H 0.52866 0.55244 0.05131 0.0
H1134 H 0.58991 0.49032 0.03871 0.0
H1135 H 0.56518 0.55101 0.07653 0.0
H1136 H 0.47166 0.46483 0.06486 0.0
H1137 H 0.46049 0.45336 0.98941 0.0
H1138 H 0.44358 0.43139 0.07328 0.0
H1139 H 0.43261 0.4201 0.99916 0.0
H1140 H 0.47531 0.52065 0.12409 0.0
H1141 H 0.53912 0.47969 0.10994 0.0
H1142 H 0.5646 0.48587 0.9361 0.0
H1143 H 0.52998 0.42136 0.9617 0.0
Li1144 Li 0.75958 0.78602 0.76473 0.0
Li1145 Li 0.75999 0.75221 0.79281 0.0
Li1146 Li 0.79105 0.75521 0.76013 0.0
Li1147 Li 0.74952 0.74385 0.75152 0.0
C1148 C 0.79818 0.7955 0.79634 0.0
N1149 N 0.82497 0.83336 0.81396 0.0
C1150 C 0.79435 0.80397 0.81958 0.0
C1151 C 0.81597 0.80601 0.78225 0.0
C1152 C 0.80796 0.82321 0.82811 0.0
C1153 C 0.82924 0.82519 0.79142 0.0
C1154 C 0.71342 0.76429 0.78975 0.0
C1155 C 0.68532 0.74172 0.81352 0.0
N1156 N 0.67566 0.76255 0.82154 0.0
C1157 C 0.70308 0.78548 0.79805 0.0
C1158 C 0.70436 0.74223 0.79737 0.0
C1159 C 0.68405 0.78422 0.81418 0.0
C1160 C 0.75068 0.83051 0.74106 0.0
N1161 N 0.75304 0.8194 0.76257 0.0
C1162 C 0.74916 0.85667 0.78321 0.0
C1163 C 0.75166 0.83184 0.78344 0.0
C1164 C 0.74782 0.86883 0.76126 0.0
C1165 C 0.74814 0.85538 0.73997 0.0
H1166 H 0.75125 0.82014 0.72471 0.0
H1167 H 0.75271 0.82247 0.80031 0.0
C1168 C 0.76407 0.72342 0.83438 0.0
N1169 N 0.75545 0.7444 0.82564 0.0
C1170 C 0.76224 0.71825 0.85881 0.0
C1171 C 0.74219 0.75611 0.86455 0.0
C1172 C 0.74479 0.76072 0.84016 0.0
C1173 C 0.75117 0.73475 0.87416 0.0
H1174 H 0.77277 0.71092 0.82247 0.0
H1175 H 0.73876 0.77757 0.83291 0.0
C1176 C 0.78111 0.7762 0.71497 0.0
N1177 N 0.80501 0.79134 0.6744 0.0
C1178 C 0.77896 0.76334 0.69358 0.0
C1179 C 0.79518 0.79694 0.71562 0.0
C1180 C 0.79124 0.77123 0.67329 0.0
C1181 C 0.80718 0.80426 0.69496 0.0
C1182 C 0.77206 0.7033 0.76494 0.0
C1183 C 0.78906 0.69413 0.74912 0.0
C1184 C 0.75384 0.68842 0.7735 0.0
C1185 C 0.78728 0.67026 0.74177 0.0
C1186 C 0.75265 0.66467 0.76569 0.0
N1187 N 0.76925 0.65616 0.7501 0.0
C1188 C 0.83832 0.74919 0.77358 0.0
C1189 C 0.83363 0.74926 0.73143 0.0
C1190 C 0.86308 0.74749 0.77131 0.0
N1191 N 0.8242 0.75051 0.75382 0.0
C1192 C 0.85836 0.74778 0.7283 0.0
C1193 C 0.8735 0.74724 0.74842 0.0
H1194 H 0.8303 0.74988 0.79118 0.0
H1195 H 0.82211 0.74969 0.71595 0.0
C1196 C 0.7055 0.72622 0.73348 0.0
N1197 N 0.72963 0.72479 0.73112 0.0
C1198 C 0.69049 0.71214 0.71919 0.0
C1199 C 0.72542 0.69556 0.70004 0.0
C1200 C 0.73974 0.71004 0.71463 0.0
C1201 C 0.70042 0.69645 0.70226 0.0
H1202 H 0.69785 0.73829 0.74647 0.0
H1203 H 0.75894 0.70954 0.71275 0.0
O1204 O 0.78492 0.7767 0.7877 0.0
O1205 O 0.73223 0.76518 0.77416 0.0
O1206 O 0.76931 0.7686 0.73504 0.0
O1207 O 0.77339 0.72667 0.77217 0.0
H1208 H 0.78086 0.79591 0.83087 0.0
H1209 H 0.81971 0.7993 0.76452 0.0
H1210 H 0.80503 0.83007 0.84598 0.0
H1211 H 0.84301 0.83352 0.78066 0.0
H1212 H 0.67823 0.72476 0.81968 0.0
H1213 H 0.70971 0.8027 0.79216 0.0
H1214 H 0.71203 0.72569 0.79097 0.0
H1215 H 0.67595 0.80047 0.82084 0.0
H1216 H 0.74837 0.86626 0.80006 0.0
H1217 H 0.74716 0.86401 0.72265 0.0
H1218 H 0.7694 0.70161 0.86563 0.0
H1219 H 0.73394 0.76945 0.87591 0.0
H1220 H 0.76796 0.74741 0.69264 0.0
H1221 H 0.79665 0.80742 0.73181 0.0
H1222 H 0.78982 0.76138 0.65666 0.0
H1223 H 0.81817 0.82025 0.69525 0.0
H1224 H 0.80333 0.70539 0.7424 0.0
H1225 H 0.74075 0.69515 0.78601 0.0
H1226 H 0.80021 0.66297 0.72939 0.0
H1227 H 0.73856 0.65299 0.77204 0.0
H1228 H 0.87391 0.74651 0.78736 0.0
H1229 H 0.86551 0.74772 0.7103 0.0
H1230 H 0.67132 0.71329 0.72161 0.0
H1231 H 0.73383 0.68403 0.68695 0.0
Li1232 Li 0.75146 0.25563 0.24984 0.0
Li1233 Li 0.70985 0.24467 0.26015 0.0
Li1234 Li 0.7402 0.2464 0.29025 0.0
Li1235 Li 0.74105 0.21479 0.26167 0.0
C1236 C 0.73279 0.29195 0.28526 0.0
N1237 N 0.74211 0.32848 0.31739 0.0
C1238 C 0.71408 0.30253 0.29793 0.0
C1239 C 0.75623 0.3 0.28883 0.0
C1240 C 0.71917 0.32096 0.31413 0.0
C1241 C 0.76057 0.31848 0.30517 0.0
C1242 C 0.72295 0.24178 0.21139 0.0
C1243 C 0.71663 0.23776 0.16885 0.0
N1244 N 0.70956 0.26101 0.16785 0.0
C1245 C 0.71562 0.26565 0.20995 0.0
C1246 C 0.72349 0.22772 0.19069 0.0
C1247 C 0.70892 0.27504 0.18777 0.0
C1248 C 0.78994 0.26396 0.21834 0.0
N1249 N 0.77116 0.27451 0.2295 0.0
C1250 C 0.78056 0.31216 0.21145 0.0
C1251 C 0.76618 0.2981 0.22629 0.0
C1252 C 0.80019 0.30183 0.19967 0.0
C1253 C 0.80475 0.27734 0.20325 0.0
H1254 H 0.79334 0.2451 0.22113 0.0
H1255 H 0.75106 0.30601 0.23531 0.0
C1256 C 0.6644 0.25591 0.27555 0.0
N1257 N 0.67637 0.24915 0.25552 0.0
C1258 C 0.63953 0.25744 0.2754 0.0
C1259 C 0.63963 0.24512 0.2339 0.0
C1260 C 0.66455 0.24364 0.23491 0.0
C1261 C 0.6268 0.25184 0.25443 0.0
H1262 H 0.67421 0.25939 0.2919 0.0
H1263 H 0.67428 0.23732 0.21948 0.0
C1264 C 0.78378 0.2211 0.2861 0.0
N1265 N 0.81446 0.19334 0.31306 0.0
C1266 C 0.77509 0.20792 0.30551 0.0
C1267 C 0.80807 0.22015 0.28039 0.0
C1268 C 0.79089 0.194 0.31893 0.0
C1269 C 0.8233 0.206 0.29424 0.0
C1270 C 0.6987 0.20388 0.285 0.0
C1271 C 0.68793 0.19607 0.30615 0.0
C1272 C 0.69154 0.194 0.26309 0.0
C1273 C 0.67016 0.17844 0.30506 0.0
C1274 C 0.67371 0.17642 0.26275 0.0
N1275 N 0.66347 0.16907 0.28357 0.0
C1276 C 0.72448 0.25323 0.33692 0.0
C1277 C 0.76623 0.25948 0.33277 0.0
C1278 C 0.72594 0.2571 0.36154 0.0
N1279 N 0.74448 0.25416 0.32319 0.0
C1280 C 0.76856 0.26328 0.3574 0.0
C1281 C 0.74826 0.26183 0.37213 0.0
H1282 H 0.70742 0.24905 0.32873 0.0
H1283 H 0.78181 0.26034 0.32137 0.0
C1284 C 0.75588 0.17376 0.23544 0.0
N1285 N 0.74799 0.18167 0.25704 0.0
C1286 C 0.76032 0.14938 0.23181 0.0
C1287 C 0.74867 0.14192 0.27278 0.0
C1288 C 0.74442 0.16632 0.27559 0.0
C1289 C 0.75667 0.1331 0.25066 0.0
H1290 H 0.75859 0.18638 0.22101 0.0
H1291 H 0.73799 0.17297 0.29255 0.0
O1292 O 0.72831 0.27344 0.26981 0.0
O1293 O 0.72992 0.23217 0.2328 0.0
O1294 O 0.76872 0.23481 0.27257 0.0
O1295 O 0.71597 0.22131 0.2859 0.0
H1296 H 0.69584 0.29657 0.29535 0.0
H1297 H 0.77095 0.29179 0.27938 0.0
H1298 H 0.70487 0.32927 0.32413 0.0
H1299 H 0.77863 0.32479 0.30823 0.0
H1300 H 0.71695 0.22707 0.15269 0.0
H1301 H 0.71495 0.27681 0.22575 0.0
H1302 H 0.72916 0.20922 0.19151 0.0
H1303 H 0.70319 0.29346 0.1864 0.0
H1304 H 0.77651 0.33101 0.20952 0.0
H1305 H 0.81944 0.26851 0.19429 0.0
H1306 H 0.63033 0.26275 0.2916 0.0
H1307 H 0.63044 0.24021 0.21751 0.0
H1308 H 0.75636 0.20844 0.31022 0.0
H1309 H 0.81506 0.23023 0.26539 0.0
H1310 H 0.78439 0.18373 0.334 0.0
H1311 H 0.84214 0.2051 0.29003 0.0
H1312 H 0.69325 0.20356 0.32325 0.0
H1313 H 0.6996 0.19981 0.2465 0.0
H1314 H 0.66167 0.17222 0.32131 0.0
H1315 H 0.66799 0.16864 0.24593 0.0
H1316 H 0.7099 0.25558 0.37228 0.0
H1317 H 0.78604 0.26714 0.36486 0.0
H1318 H 0.76665 0.14337 0.21451 0.0
H1319 H 0.7452 0.13001 0.28768 0.0
Li1320 Li 0.50031 0.50477 0.50115 0.0
Li1321 Li 0.49273 0.49318 0.45874 0.0
Li1322 Li 0.46113 0.49541 0.48688 0.0
Li1323 Li 0.4884 0.46284 0.48976 0.0
C1324 C 0.46683 0.54101 0.47922 0.0
N1325 N 0.43495 0.57816 0.48554 0.0
C1326 C 0.45349 0.54951 0.45985 0.0
C1327 C 0.464 0.55146 0.50179 0.0
C1328 C 0.43743 0.56827 0.46342 0.0
C1329 C 0.44781 0.57023 0.50461 0.0
C1330 C 0.54039 0.49006 0.47611 0.0
C1331 C 0.5833 0.48612 0.47493 0.0
N1332 N 0.58517 0.50911 0.46713 0.0
C1333 C 0.54275 0.51366 0.46806 0.0
C1334 C 0.56083 0.47617 0.47959 0.0
C1335 C 0.56553 0.52296 0.46363 0.0
C1336 C 0.52858 0.51325 0.54226 0.0
N1337 N 0.51986 0.5234 0.52197 0.0
C1338 C 0.53967 0.56032 0.53098 0.0
C1339 C 0.52518 0.54641 0.51604 0.0
C1340 C 0.54887 0.55041 0.55218 0.0
C1341 C 0.5432 0.5265 0.55773 0.0
H1342 H 0.5241 0.49485 0.54643 0.0
H1343 H 0.51821 0.55395 0.49964 0.0
C1344 C 0.4819 0.50384 0.41146 0.0
N1345 N 0.50043 0.49712 0.42566 0.0
C1346 C 0.48461 0.50478 0.38666 0.0
C1347 C 0.52551 0.49184 0.39143 0.0
C1348 C 0.52196 0.49102 0.41617 0.0
C1349 C 0.50659 0.49853 0.37633 0.0
H1350 H 0.46472 0.50766 0.41938 0.0
H1351 H 0.53613 0.4846 0.42757 0.0
C1352 C 0.46045 0.48296 0.53416 0.0
N1353 N 0.42669 0.48276 0.57018 0.0
C1354 C 0.44197 0.46604 0.53394 0.0
C1355 C 0.46193 0.49963 0.5528 0.0
C1356 C 0.42502 0.4663 0.55227 0.0
C1357 C 0.44465 0.49926 0.57083 0.0
C1358 C 0.46879 0.4521 0.44629 0.0
C1359 C 0.44861 0.44261 0.43485 0.0
C1360 C 0.4914 0.44304 0.44072 0.0
C1361 C 0.45138 0.42438 0.41793 0.0
C1362 C 0.49343 0.42482 0.4237 0.0
N1363 N 0.47355 0.41594 0.41275 0.0
C1364 C 0.41441 0.49638 0.46982 0.0
C1365 C 0.41755 0.51439 0.5081 0.0
C1366 C 0.38971 0.49964 0.46973 0.0
N1367 N 0.42773 0.50317 0.48905 0.0
C1368 C 0.39285 0.518 0.5088 0.0
C1369 C 0.37854 0.51015 0.48961 0.0
H1370 H 0.42299 0.48828 0.45454 0.0
H1371 H 0.42846 0.52033 0.52292 0.0
C1372 C 0.51307 0.41956 0.50074 0.0
N1373 N 0.49145 0.42961 0.49621 0.0
C1374 C 0.51512 0.39468 0.50271 0.0
C1375 C 0.47256 0.39119 0.49581 0.0
C1376 C 0.47134 0.41605 0.49402 0.0
C1377 C 0.49471 0.38014 0.49984 0.0
H1378 H 0.52879 0.43079 0.50218 0.0
H1379 H 0.45443 0.42452 0.49014 0.0
O1380 O 0.48233 0.52235 0.47621 0.0
O1381 O 0.51829 0.48064 0.48096 0.0
O1382 O 0.47727 0.483 0.51644 0.0
O1383 O 0.46621 0.46988 0.46303 0.0
H1384 H 0.45545 0.54169 0.44226 0.0
H1385 H 0.47385 0.54487 0.51708 0.0
H1386 H 0.42694 0.57496 0.4486 0.0
H1387 H 0.44535 0.57838 0.52201 0.0
H1388 H 0.59927 0.47556 0.47755 0.0
H1389 H 0.52718 0.52467 0.4651 0.0
H1390 H 0.55936 0.45789 0.48584 0.0
H1391 H 0.5676 0.54118 0.45738 0.0
H1392 H 0.5439 0.57853 0.5258 0.0
H1393 H 0.54973 0.51822 0.57398 0.0
H1394 H 0.46956 0.51006 0.37566 0.0
H1395 H 0.54258 0.48637 0.38416 0.0
H1396 H 0.44057 0.45307 0.51962 0.0
H1397 H 0.47617 0.5128 0.55325 0.0
H1398 H 0.4105 0.45343 0.55225 0.0
H1399 H 0.44549 0.51211 0.58532 0.0
H1400 H 0.43093 0.44915 0.43905 0.0
H1401 H 0.50727 0.44988 0.44943 0.0
H1402 H 0.4359 0.41691 0.40896 0.0
H1403 H 0.51083 0.4177 0.41924 0.0
H1404 H 0.37946 0.49389 0.45427 0.0
H1405 H 0.385 0.52621 0.52449 0.0
H1406 H 0.53258 0.38688 0.50562 0.0
H1407 H 0.45633 0.38072 0.49382 0.0
H1408 H 0.20801 0.156 0.18077 0.0
H1409 H 0.18302 0.13113 0.15494 0.0
H1410 H 0.12703 0.18395 0.15809 0.0
H1411 H 0.15133 0.20826 0.18521 0.0
H1412 H 0.10828 0.14162 0.1625 0.0
H1413 H 0.16419 0.17664 0.10786 0.0
H1414 H 0.20395 0.18754 0.09217 0.0
H1415 H 0.22211 0.11313 0.08623 0.0
H1416 H 0.18256 0.10178 0.1022 0.0
H1417 H 0.04087 0.09696 0.06368 0.0
H1418 H 0.06618 0.12214 0.08927 0.0
H1419 H 0.11761 0.06506 0.09465 0.0
H1420 H 0.09248 0.03984 0.06885 0.0
H1421 H 0.13849 0.10955 0.08544 0.0
H1422 H 0.08165 0.07525 0.1403 0.0
H1423 H 0.04131 0.06529 0.15508 0.0
H1424 H 0.02429 0.1401 0.15927 0.0
H1425 H 0.06444 0.15049 0.14418 0.0
C1426 C 0.19028 0.16226 0.17625 0.0
C1427 C 0.18175 0.18421 0.18517 0.0
C1428 C 0.17611 0.14813 0.16114 0.0
C1429 C 0.15325 0.1558 0.1542 0.0
C1430 C 0.14465 0.17767 0.16308 0.0
C1431 C 0.15871 0.1917 0.17841 0.0
C1432 C 0.1381 0.1408 0.13812 0.0
C1433 C 0.11481 0.13493 0.14549 0.0
C1434 C 0.14671 0.13161 0.11611 0.0
C1435 C 0.17049 0.13837 0.10644 0.0
C1436 C 0.17673 0.1626 0.10338 0.0
C1437 C 0.19922 0.16886 0.09441 0.0
C1438 C 0.21557 0.15104 0.08827 0.0
C1439 C 0.20944 0.12691 0.09103 0.0
C1440 C 0.18698 0.12056 0.10001 0.0
C1441 C 0.05764 0.08983 0.0702 0.0
C1442 C 0.06467 0.0664 0.0643 0.0
C1443 C 0.07199 0.10417 0.08493 0.0
C1444 C 0.09368 0.09539 0.09399 0.0
C1445 C 0.10091 0.07214 0.08789 0.0
C1446 C 0.08647 0.05771 0.0733 0.0
C1447 C 0.10879 0.11049 0.10986 0.0
C1448 C 0.13204 0.11633 0.10244 0.0
C1449 C 0.10008 0.11985 0.1317 0.0
C1450 C 0.07597 0.11364 0.14088 0.0
C1451 C 0.06924 0.08957 0.14418 0.0
C1452 C 0.04642 0.08385 0.15265 0.0
C1453 C 0.03022 0.10205 0.15805 0.0
C1454 C 0.03684 0.12602 0.15505 0.0
C1455 C 0.05964 0.13183 0.14656 0.0
H1456 H 0.01256 0.09758 0.16461 0.0
H1457 H 0.23297 0.15592 0.08132 0.0
H1458 H 0.09525 0.93937 0.44893 0.0
H1459 H 0.12029 0.91443 0.42329 0.0
H1460 H 0.05932 0.89863 0.37843 0.0
H1461 H 0.0341 0.92336 0.40425 0.0
H1462 H 0.08394 0.85931 0.3862 0.0
H1463 H 0.10328 0.93879 0.36098 0.0
H1464 H 0.11561 0.98097 0.36581 0.0
H1465 H 0.18301 0.9586 0.39494 0.0
H1466 H 0.17094 0.91627 0.3906 0.0
H1467 H 0.15175 0.81107 0.28963 0.0
H1468 H 0.12578 0.83682 0.31364 0.0
H1469 H 0.18324 0.84851 0.36398 0.0
H1470 H 0.20943 0.82309 0.33986 0.0
H1471 H 0.15985 0.89028 0.3521 0.0
H1472 H 0.13928 0.81039 0.37757 0.0
H1473 H 0.12648 0.76848 0.37166 0.0
H1474 H 0.06059 0.79236 0.34035 0.0
H1475 H 0.07317 0.83444 0.34577 0.0
C1476 C 0.08722 0.93073 0.4335 0.0
C1477 C 0.06273 0.93342 0.42853 0.0
C1478 C 0.10156 0.91649 0.41884 0.0
C1479 C 0.09179 0.90494 0.3987 0.0
C1480 C 0.06727 0.90738 0.39385 0.0
C1481 C 0.05287 0.92147 0.40863 0.0
C1482 C 0.10711 0.89006 0.3829 0.0
C1483 C 0.10034 0.86622 0.37846 0.0
C1484 C 0.12875 0.8989 0.3731 0.0
C1485 C 0.1361 0.92435 0.37567 0.0
C1486 C 0.12066 0.94286 0.36859 0.0
C1487 C 0.12761 0.9668 0.37121 0.0
C1488 C 0.15006 0.97246 0.38073 0.0
C1489 C 0.16562 0.95419 0.3876 0.0
C1490 C 0.15873 0.93022 0.38504 0.0
C1491 C 0.15889 0.81926 0.30573 0.0
C1492 C 0.18261 0.81499 0.3129 0.0
C1493 C 0.14399 0.83382 0.31951 0.0
C1494 C 0.15254 0.8444 0.34069 0.0
C1495 C 0.17629 0.84046 0.34772 0.0
C1496 C 0.19116 0.82579 0.33403 0.0
C1497 C 0.13671 0.85958 0.35557 0.0
C1498 C 0.14339 0.88346 0.35981 0.0
C1499 C 0.1149 0.85084 0.36502 0.0
C1500 C 0.10727 0.82555 0.36185 0.0
C1501 C 0.12215 0.8067 0.36924 0.0
C1502 C 0.11492 0.78292 0.36602 0.0
C1503 C 0.09276 0.77776 0.35558 0.0
C1504 C 0.07776 0.79638 0.3484 0.0
C1505 C 0.08493 0.8202 0.35156 0.0
H1506 H 0.08719 0.75933 0.3531 0.0
H1507 H 0.15541 0.99101 0.38274 0.0
H1508 H 0.43978 0.95533 0.59595 0.0
H1509 H 0.41447 0.9305 0.62152 0.0
H1510 H 0.39611 0.88612 0.56088 0.0
H1511 H 0.42059 0.91149 0.53496 0.0
H1512 H 0.35754 0.89495 0.58688 0.0
H1513 H 0.43697 0.86778 0.60296 0.0
H1514 H 0.47953 0.87164 0.61394 0.0
H1515 H 0.45996 0.90006 0.68261 0.0
H1516 H 0.41726 0.89668 0.67191 0.0
H1517 H 0.31229 0.79527 0.65267 0.0
H1518 H 0.33706 0.82076 0.62696 0.0
H1519 H 0.34824 0.86974 0.68574 0.0
H1520 H 0.32354 0.84427 0.71158 0.0
H1521 H 0.39032 0.85838 0.66086 0.0
H1522 H 0.31039 0.88489 0.644 0.0
H1523 H 0.26808 0.87979 0.63256 0.0
H1524 H 0.28921 0.85091 0.56456 0.0
H1525 H 0.33168 0.85551 0.57574 0.0
C1526 C 0.43015 0.94047 0.58797 0.0
C1527 C 0.43229 0.93539 0.56338 0.0
C1528 C 0.41588 0.92611 0.60268 0.0
C1529 C 0.40365 0.90622 0.5932 0.0
C1530 C 0.40547 0.9013 0.56862 0.0
C1531 C 0.41966 0.9157 0.55387 0.0
C1532 C 0.38891 0.8906 0.60889 0.0
C1533 C 0.36482 0.8867 0.60288 0.0
C1534 C 0.39825 0.88017 0.63002 0.0
C1535 C 0.42392 0.8822 0.63653 0.0
C1536 C 0.44174 0.87504 0.62033 0.0
C1537 C 0.46589 0.87711 0.62651 0.0
C1538 C 0.47245 0.88615 0.64893 0.0
C1539 C 0.45486 0.89309 0.66524 0.0
C1540 C 0.43068 0.89108 0.65913 0.0
C1541 C 0.32013 0.81141 0.66013 0.0
C1542 C 0.31596 0.81782 0.6841 0.0
C1543 C 0.33414 0.82601 0.6454 0.0
C1544 C 0.34433 0.8472 0.65443 0.0
C1545 C 0.34047 0.85348 0.67844 0.0
C1546 C 0.32626 0.83902 0.69311 0.0
C1547 C 0.35905 0.86279 0.63881 0.0
C1548 C 0.38311 0.86666 0.64485 0.0
C1549 C 0.34974 0.87302 0.61761 0.0
C1550 C 0.32422 0.87032 0.61081 0.0
C1551 C 0.30602 0.87725 0.62669 0.0
C1552 C 0.282 0.87449 0.62024 0.0
C1553 C 0.27595 0.86497 0.59788 0.0
C1554 C 0.29392 0.85825 0.58189 0.0
C1555 C 0.31797 0.86095 0.58827 0.0
H1556 H 0.25735 0.86285 0.59291 0.0
H1557 H 0.49116 0.88774 0.65369 0.0
H1558 H 0.42762 0.03814 0.90375 0.0
H1559 H 0.40219 0.06363 0.87897 0.0
H1560 H 0.40628 0.11944 0.9324 0.0
H1561 H 0.43118 0.09366 0.95754 0.0
H1562 H 0.36263 0.11625 0.91656 0.0
H1563 H 0.43949 0.12102 0.87904 0.0
H1564 H 0.47632 0.10538 0.86064 0.0
H1565 H 0.43482 0.07153 0.80529 0.0
H1566 H 0.3977 0.0867 0.82355 0.0
H1567 H 0.32071 0.2105 0.84235 0.0
H1568 H 0.34609 0.18503 0.86714 0.0
H1569 H 0.33562 0.12647 0.81774 0.0
H1570 H 0.3099 0.15172 0.79299 0.0
H1571 H 0.38255 0.13146 0.83137 0.0
H1572 H 0.30558 0.12743 0.86968 0.0
H1573 H 0.26932 0.1442 0.88821 0.0
H1574 H 0.31219 0.17828 0.94236 0.0
H1575 H 0.34875 0.16198 0.92395 0.0
C1576 C 0.42314 0.05589 0.91014 0.0
C1577 C 0.43145 0.06399 0.93249 0.0
C1578 C 0.40867 0.07047 0.89595 0.0
C1579 C 0.40266 0.09366 0.90359 0.0
C1580 C 0.4107 0.10165 0.92609 0.0
C1581 C 0.4249 0.08693 0.94044 0.0
C1582 C 0.38784 0.1095 0.88823 0.0
C1583 C 0.36721 0.11983 0.89804 0.0
C1584 C 0.3935 0.11385 0.86389 0.0
C1585 C 0.4158 0.10482 0.85279 0.0
C1586 C 0.43821 0.1101 0.86303 0.0
C1587 C 0.45914 0.10134 0.85262 0.0
C1588 C 0.45791 0.08742 0.83184 0.0
C1589 C 0.43575 0.08229 0.8214 0.0
C1590 C 0.41476 0.09098 0.83176 0.0
C1591 C 0.3236 0.19214 0.83685 0.0
C1592 C 0.31312 0.18312 0.81574 0.0
C1593 C 0.33818 0.17763 0.851 0.0
C1594 C 0.34253 0.15379 0.84441 0.0
C1595 C 0.3325 0.14484 0.82314 0.0
C1596 C 0.31787 0.15933 0.80898 0.0
C1597 C 0.35745 0.13814 0.85975 0.0
C1598 C 0.37807 0.12787 0.84992 0.0
C1599 C 0.3519 0.13401 0.88411 0.0
C1600 C 0.32992 0.14367 0.8953 0.0
C1601 C 0.30729 0.13865 0.88544 0.0
C1602 C 0.28668 0.14804 0.89593 0.0
C1603 C 0.28845 0.16234 0.91642 0.0
C1604 C 0.31084 0.16722 0.92648 0.0
C1605 C 0.33151 0.1579 0.91603 0.0
H1606 H 0.27248 0.1696 0.92452 0.0
H1607 H 0.47413 0.08065 0.82381 0.0
H1608 H 0.70995 0.34317 0.82052 0.0
H1609 H 0.68492 0.3696 0.84469 0.0
H1610 H 0.62489 0.32187 0.83455 0.0
H1611 H 0.64965 0.29566 0.80982 0.0
H1612 H 0.61224 0.36859 0.82893 0.0
H1613 H 0.65575 0.32167 0.88652 0.0
H1614 H 0.6919 0.30486 0.90529 0.0
H1615 H 0.71782 0.37581 0.92032 0.0
H1616 H 0.68195 0.39305 0.90132 0.0
H1617 H 0.53647 0.41196 0.92041 0.0
H1618 H 0.56183 0.38729 0.89492 0.0
H1619 H 0.62192 0.43368 0.90992 0.0
H1620 H 0.59693 0.4578 0.93638 0.0
H1621 H 0.63508 0.38845 0.91254 0.0
H1622 H 0.59173 0.43569 0.85586 0.0
H1623 H 0.55596 0.453 0.83679 0.0
H1624 H 0.53027 0.38247 0.81957 0.0
H1625 H 0.56573 0.36471 0.83884 0.0
C1626 C 0.69136 0.33841 0.82324 0.0
C1627 C 0.6818 0.31728 0.8133 0.0
C1628 C 0.67714 0.35343 0.83722 0.0
C1629 C 0.65311 0.34756 0.84163 0.0
C1630 C 0.64341 0.32669 0.83144 0.0
C1631 C 0.65763 0.31163 0.81748 0.0
C1632 C 0.63811 0.36312 0.85697 0.0
C1633 C 0.61706 0.37272 0.84731 0.0
C1634 C 0.64477 0.36899 0.88073 0.0
C1635 C 0.66627 0.35865 0.89228 0.0
C1636 C 0.66924 0.33369 0.89366 0.0
C1637 C 0.68967 0.32408 0.90437 0.0
C1638 C 0.70718 0.33926 0.91393 0.0
C1639 C 0.70426 0.36408 0.91287 0.0
C1640 C 0.68388 0.37377 0.90215 0.0
C1641 C 0.55513 0.41682 0.91848 0.0
C1642 C 0.56464 0.4369 0.93047 0.0
C1643 C 0.56955 0.40284 0.90365 0.0
C1644 C 0.59372 0.40881 0.90023 0.0
C1645 C 0.6033 0.42879 0.9122 0.0
C1646 C 0.58892 0.4427 0.92715 0.0
C1647 C 0.60911 0.39392 0.88455 0.0
C1648 C 0.63026 0.38442 0.89414 0.0
C1649 C 0.60259 0.38824 0.86069 0.0
C1650 C 0.58129 0.39887 0.84899 0.0
C1651 C 0.57836 0.42386 0.84817 0.0
C1652 C 0.55816 0.43376 0.83729 0.0
C1653 C 0.54083 0.41884 0.82702 0.0
C1654 C 0.54369 0.394 0.82755 0.0
C1655 C 0.56385 0.38401 0.83843 0.0
H1656 H 0.5252 0.42653 0.81861 0.0
H1657 H 0.72298 0.33179 0.92222 0.0
H1658 H 0.96365 0.4126 0.07886 0.0
H1659 H 0.93837 0.38738 0.10417 0.0
H1660 H 0.87611 0.42651 0.08116 0.0
H1661 H 0.90127 0.45176 0.05572 0.0
H1662 H 0.87537 0.41934 0.12863 0.0
H1663 H 0.88811 0.37103 0.05881 0.0
H1664 H 0.91189 0.35061 0.02782 0.0
H1665 H 0.94647 0.30842 0.08187 0.0
H1666 H 0.92312 0.32884 0.11323 0.0
H1667 H 0.78681 0.33721 0.16843 0.0
H1668 H 0.81258 0.36215 0.14341 0.0
H1669 H 0.87457 0.3246 0.16951 0.0
H1670 H 0.84899 0.29983 0.19499 0.0
H1671 H 0.87568 0.33081 0.12075 0.0
H1672 H 0.86251 0.37913 0.19052 0.0
H1673 H 0.8384 0.39948 0.22129 0.0
H1674 H 0.80421 0.44161 0.16694 0.0
H1675 H 0.82788 0.42124 0.13579 0.0
C1676 C 0.94455 0.41572 0.07902 0.0
C1677 C 0.93447 0.43414 0.06517 0.0
C1678 C 0.93013 0.40131 0.09353 0.0
C1679 C 0.9053 0.40487 0.09435 0.0
C1680 C 0.89522 0.42345 0.08082 0.0
C1681 C 0.90964 0.43791 0.06634 0.0
C1682 C 0.88985 0.38928 0.10937 0.0
C1683 C 0.8752 0.40001 0.12668 0.0
C1684 C 0.89003 0.36401 0.10721 0.0
C1685 C 0.90404 0.35164 0.08839 0.0
C1686 C 0.90092 0.35753 0.06411 0.0
C1687 C 0.9143 0.34593 0.04647 0.0
C1688 C 0.93073 0.32827 0.05288 0.0
C1689 C 0.93376 0.32213 0.07694 0.0
C1690 C 0.92045 0.3337 0.09465 0.0
C1691 C 0.80595 0.33438 0.16907 0.0
C1692 C 0.81581 0.31657 0.18387 0.0
C1693 C 0.82064 0.34861 0.15467 0.0
C1694 C 0.84551 0.34539 0.15478 0.0
C1695 C 0.85541 0.32736 0.16914 0.0
C1696 C 0.84073 0.31316 0.18363 0.0
C1697 C 0.86118 0.36089 0.13993 0.0
C1698 C 0.87587 0.35014 0.12268 0.0
C1699 C 0.861 0.38615 0.1421 0.0
C1700 C 0.8468 0.39849 0.1608 0.0
C1701 C 0.84971 0.39259 0.18511 0.0
C1702 C 0.83615 0.40415 0.20262 0.0
C1703 C 0.81974 0.42178 0.19607 0.0
C1704 C 0.81691 0.42792 0.17199 0.0
C1705 C 0.8304 0.41639 0.1544 0.0
H1706 H 0.80926 0.43072 0.20966 0.0
H1707 H 0.94106 0.31931 0.0392 0.0
H1708 H 0.9039 0.5688 0.45713 0.0
H1709 H 0.87926 0.59506 0.43262 0.0
H1710 H 0.93387 0.59608 0.37816 0.0
H1711 H 0.95932 0.57117 0.40326 0.0
H1712 H 0.91717 0.63871 0.38287 0.0
H1713 H 0.88125 0.56145 0.37335 0.0
H1714 H 0.86325 0.52321 0.38624 0.0
H1715 H 0.80638 0.56122 0.42089 0.0
H1716 H 0.82422 0.59973 0.40847 0.0
H1717 H 0.84226 0.6804 0.28776 0.0
H1718 H 0.867 0.65429 0.31287 0.0
H1719 H 0.82059 0.66762 0.37296 0.0
H1720 H 0.79593 0.69392 0.348 0.0
H1721 H 0.83268 0.61784 0.36496 0.0
H1722 H 0.87012 0.69548 0.37305 0.0
H1723 H 0.88843 0.73271 0.35787 0.0
H1724 H 0.94309 0.69195 0.32277 0.0
H1725 H 0.92487 0.65442 0.33745 0.0
C1726 C 0.91087 0.57485 0.4401 0.0
C1727 C 0.93365 0.56771 0.43221 0.0
C1728 C 0.89656 0.58963 0.42592 0.0
C1729 C 0.90448 0.59723 0.4033 0.0
C1730 C 0.92727 0.59035 0.39547 0.0
C1731 C 0.94172 0.57584 0.40977 0.0
C1732 C 0.88914 0.61257 0.38791 0.0
C1733 C 0.89881 0.63392 0.37872 0.0
C1734 C 0.86502 0.6066 0.38271 0.0
C1735 C 0.85421 0.58348 0.39018 0.0
C1736 C 0.86501 0.56166 0.38387 0.0
C1737 C 0.85481 0.53994 0.39107 0.0
C1738 C 0.83372 0.53979 0.40443 0.0
C1739 C 0.82274 0.56137 0.41057 0.0
C1740 C 0.83287 0.58315 0.40344 0.0
C1741 C 0.83732 0.67766 0.3063 0.0
C1742 C 0.81726 0.68921 0.31599 0.0
C1743 C 0.85147 0.66285 0.32061 0.0
C1744 C 0.84563 0.65914 0.34476 0.0
C1745 C 0.82537 0.6703 0.35437 0.0
C1746 C 0.81142 0.6854 0.34016 0.0
C1747 C 0.8608 0.64377 0.36006 0.0
C1748 C 0.85108 0.62249 0.36917 0.0
C1749 C 0.88495 0.64959 0.36488 0.0
C1750 C 0.89599 0.67213 0.35614 0.0
C1751 C 0.88592 0.69444 0.36192 0.0
C1752 C 0.8963 0.7156 0.35344 0.0
C1753 C 0.91687 0.71469 0.33931 0.0
C1754 C 0.92713 0.69262 0.33368 0.0
C1755 C 0.9168 0.6714 0.34209 0.0
H1756 H 0.92489 0.7311 0.33277 0.0
H1757 H 0.82585 0.52295 0.40998 0.0
H1758 H 0.54304 0.59723 0.56533 0.0
H1759 H 0.56902 0.62151 0.59095 0.0
H1760 H 0.61553 0.56094 0.60128 0.0
H1761 H 0.5896 0.53651 0.57559 0.0
H1762 H 0.60785 0.58417 0.64283 0.0
H1763 H 0.63089 0.60572 0.5631 0.0
H1764 H 0.62449 0.61925 0.52158 0.0
H1765 H 0.59628 0.68586 0.54733 0.0
H1766 H 0.60219 0.67258 0.58904 0.0
H1767 H 0.70677 0.64939 0.69016 0.0
H1768 H 0.6811 0.62434 0.66486 0.0
H1769 H 0.63295 0.68366 0.65493 0.0
H1770 H 0.65884 0.709 0.67971 0.0
H1771 H 0.64196 0.66071 0.61307 0.0
H1772 H 0.61881 0.63887 0.6929 0.0
H1773 H 0.62541 0.62521 0.73434 0.0
H1774 H 0.65425 0.559 0.70824 0.0
H1775 H 0.64813 0.57241 0.66661 0.0
C1776 C 0.55889 0.58911 0.57291 0.0
C1777 C 0.56433 0.56497 0.56829 0.0
C1778 C 0.57371 0.603 0.58758 0.0
C1779 C 0.59439 0.59313 0.59777 0.0
C1780 C 0.59965 0.56892 0.59359 0.0
C1781 C 0.58479 0.55498 0.57896 0.0
C1782 C 0.61056 0.6081 0.61273 0.0
C1783 C 0.61559 0.60074 0.63621 0.0
C1784 C 0.62025 0.62997 0.60426 0.0
C1785 C 0.61678 0.63806 0.57919 0.0
C1786 C 0.62315 0.62318 0.55991 0.0
C1787 C 0.61964 0.63081 0.53634 0.0
C1788 C 0.60993 0.65338 0.53182 0.0
C1789 C 0.60377 0.66838 0.55086 0.0
C1790 C 0.60722 0.66081 0.57447 0.0
C1791 C 0.69081 0.65716 0.68243 0.0
C1792 C 0.68482 0.68118 0.68698 0.0
C1793 C 0.67605 0.64276 0.66816 0.0
C1794 C 0.65498 0.65207 0.65822 0.0
C1795 C 0.64908 0.6761 0.6625 0.0
C1796 C 0.6638 0.69049 0.67682 0.0
C1797 C 0.63918 0.63682 0.64318 0.0
C1798 C 0.63424 0.64413 0.61967 0.0
C1799 C 0.62961 0.61489 0.65162 0.0
C1800 C 0.63323 0.60675 0.67664 0.0
C1801 C 0.62674 0.62148 0.69599 0.0
C1802 C 0.63036 0.61377 0.71952 0.0
C1803 C 0.6403 0.59128 0.72392 0.0
C1804 C 0.64658 0.57643 0.7048 0.0
C1805 C 0.64302 0.58407 0.68124 0.0
H1806 H 0.64309 0.58534 0.74215 0.0
H1807 H 0.60722 0.65926 0.51356 0.0
H1808 H 0.22396 0.20958 0.40305 0.0
H1809 H 0.22203 0.20653 0.44668 0.0
H1810 H 0.27415 0.26321 0.45335 0.0
H1811 H 0.27534 0.26739 0.40994 0.0
H1812 H 0.2828 0.22086 0.48262 0.0
H1813 H 0.22101 0.27785 0.46255 0.0
H1814 H 0.18482 0.29118 0.4412 0.0
H1815 H 0.14458 0.23352 0.47239 0.0
H1816 H 0.18069 0.21958 0.49362 0.0
H1817 H 0.27458 0.25771 0.60332 0.0
H1818 H 0.2765 0.25428 0.55976 0.0
H1819 H 0.21262 0.21064 0.56005 0.0
H1820 H 0.2104 0.21443 0.60367 0.0
H1821 H 0.20911 0.24284 0.52668 0.0
H1822 H 0.26901 0.18671 0.5488 0.0
H1823 H 0.30483 0.17167 0.5696 0.0
H1824 H 0.34805 0.22474 0.53452 0.0
H1825 H 0.31242 0.24034 0.51375 0.0
C1826 C 0.23482 0.22164 0.41372 0.0
C1827 C 0.2498 0.23877 0.4028 0.0
C1828 C 0.23382 0.2197 0.43866 0.0
C1829 C 0.24797 0.23464 0.45314 0.0
C1830 C 0.26324 0.25141 0.44242 0.0
C1831 C 0.26397 0.25364 0.41754 0.0
C1832 C 0.24655 0.23322 0.47954 0.0
C1833 C 0.26679 0.22583 0.49234 0.0
C1834 C 0.22538 0.23902 0.49202 0.0
C1835 C 0.20363 0.24747 0.47941 0.0
C1836 C 0.20451 0.26786 0.46466 0.0
C1837 C 0.18401 0.27555 0.45262 0.0
C1838 C 0.16245 0.26313 0.45534 0.0
C1839 C 0.16132 0.24306 0.47023 0.0
C1840 C 0.1818 0.23526 0.48228 0.0
C1841 C 0.26116 0.24708 0.59412 0.0
C1842 C 0.24238 0.23629 0.60688 0.0
C1843 C 0.26227 0.24511 0.56921 0.0
C1844 C 0.24486 0.23195 0.5566 0.0
C1845 C 0.22625 0.2209 0.56937 0.0
C1846 C 0.22499 0.22307 0.59427 0.0
C1847 C 0.24552 0.23067 0.53002 0.0
C1848 C 0.22511 0.23759 0.5171 0.0
C1849 C 0.26648 0.22415 0.51742 0.0
C1850 C 0.28798 0.21483 0.52987 0.0
C1851 C 0.28612 0.1953 0.54565 0.0
C1852 C 0.3064 0.18665 0.55742 0.0
C1853 C 0.3287 0.19728 0.55342 0.0
C1854 C 0.33076 0.21654 0.53761 0.0
C1855 C 0.31053 0.22528 0.52582 0.0
H1856 H 0.34438 0.19055 0.56254 0.0
H1857 H 0.14662 0.26908 0.44595 0.0
H1858 H 0.96544 0.01178 0.84342 0.0
H1859 H 0.96722 0.01088 0.79977 0.0
H1860 H 0.03721 0.979 0.8031 0.0
H1861 H 0.03535 0.97911 0.84687 0.0
H1862 H 0.03327 0.01687 0.76956 0.0
H1863 H 0.99197 0.94414 0.79109 0.0
H1864 H 0.96082 0.92033 0.81138 0.0
H1865 H 0.90626 0.95869 0.7734 0.0
H1866 H 0.9371 0.983 0.75316 0.0
H1867 H 0.03962 0.98466 0.64689 0.0
H1868 H 0.04 0.98349 0.69072 0.0
H1869 H 0.96552 0.00343 0.6918 0.0
H1870 H 0.96496 0.00402 0.64803 0.0
H1871 H 0.97278 0.97046 0.72361 0.0
H1872 H 0.01173 0.04424 0.70344 0.0
H1873 H 0.04139 0.07017 0.6835 0.0
H1874 H 0.09833 0.03292 0.71898 0.0
H1875 H 0.069 0.00653 0.73889 0.0
C1876 C 0.98115 0.00435 0.83494 0.0
C1877 C 0.00016 0.99529 0.84873 0.0
C1878 C 0.98217 0.00398 0.80997 0.0
C1879 C 0.00223 0.99464 0.79826 0.0
C1880 C 0.02157 0.98627 0.81186 0.0
C1881 C 0.0205 0.98647 0.83687 0.0
C1882 C 0.0028 0.99333 0.77178 0.0
C1883 C 0.02029 0.00645 0.75946 0.0
C1884 C 0.98542 0.98025 0.75871 0.0
C1885 C 0.96685 0.96555 0.77078 0.0
C1886 C 0.97333 0.94764 0.78721 0.0
C1887 C 0.95573 0.93403 0.79868 0.0
C1888 C 0.93158 0.93803 0.79373 0.0
C1889 C 0.92498 0.95562 0.77725 0.0
C1890 C 0.94251 0.96931 0.76576 0.0
C1891 C 0.02335 0.98876 0.65654 0.0
C1892 C 0.00227 0.99443 0.64411 0.0
C1893 C 0.02359 0.98817 0.68156 0.0
C1894 C 0.00288 0.99374 0.6946 0.0
C1895 C 0.98172 0.99904 0.68216 0.0
C1896 C 0.98139 0.99933 0.65716 0.0
C1897 C 0.0032 0.99415 0.72121 0.0
C1898 C 0.98585 0.98084 0.73361 0.0
C1899 C 0.0205 0.00737 0.73435 0.0
C1900 C 0.03818 0.02324 0.72245 0.0
C1901 C 0.03058 0.04145 0.70685 0.0
C1902 C 0.04733 0.05625 0.69557 0.0
C1903 C 0.07173 0.05315 0.69992 0.0
C1904 C 0.07943 0.03527 0.7156 0.0
C1905 C 0.06275 0.0204 0.7269 0.0
H1906 H 0.08468 0.06463 0.69118 0.0
H1907 H 0.91798 0.92747 0.80262 0.0
H1908 H 0.28682 0.7536 0.90013 0.0
H1909 H 0.28882 0.75599 0.94385 0.0
H1910 H 0.21388 0.77374 0.94636 0.0
H1911 H 0.21184 0.77174 0.90258 0.0
H1912 H 0.24095 0.80098 0.97785 0.0
H1913 H 0.22997 0.71821 0.95743 0.0
H1914 H 0.23901 0.68034 0.93664 0.0
H1915 H 0.30855 0.67897 0.96931 0.0
H1916 H 0.30005 0.71705 0.99003 0.0
H1917 H 0.21888 0.7716 0.10008 0.0
H1918 H 0.21811 0.77398 0.05633 0.0
H1919 H 0.29237 0.75354 0.05388 0.0
H1920 H 0.2931 0.75055 0.09755 0.0
H1921 H 0.2658 0.72826 0.02225 0.0
H1922 H 0.27615 0.8109 0.04354 0.0
H1923 H 0.2666 0.8486 0.06441 0.0
H1924 H 0.19773 0.85004 0.03036 0.0
H1925 H 0.20674 0.81215 0.00953 0.0
C1926 C 0.27086 0.75838 0.90997 0.0
C1927 C 0.24914 0.76236 0.89795 0.0
C1928 C 0.27199 0.75957 0.93494 0.0
C1929 C 0.25143 0.76477 0.94832 0.0
C1930 C 0.22992 0.76962 0.93634 0.0
C1931 C 0.22875 0.7683 0.91138 0.0
C1932 C 0.25217 0.76426 0.97484 0.0
C1933 C 0.24612 0.78502 0.9876 0.0
C1934 C 0.25931 0.74353 0.98748 0.0
C1935 C 0.26447 0.72062 0.97508 0.0
C1936 C 0.24727 0.70995 0.96001 0.0
C1937 C 0.25228 0.68842 0.94827 0.0
C1938 C 0.27436 0.67729 0.95159 0.0
C1939 C 0.29146 0.68764 0.96672 0.0
C1940 C 0.28656 0.70918 0.97848 0.0
C1941 C 0.23503 0.76759 0.09021 0.0
C1942 C 0.25607 0.76096 0.10227 0.0
C1943 C 0.23462 0.76914 0.06523 0.0
C1944 C 0.25525 0.76415 0.05187 0.0
C1945 C 0.27628 0.75756 0.06386 0.0
C1946 C 0.27672 0.75606 0.08882 0.0
C1947 C 0.25473 0.76504 0.02533 0.0
C1948 C 0.26073 0.74428 0.01254 0.0
C1949 C 0.24748 0.78575 0.0127 0.0
C1950 C 0.24203 0.80856 0.02516 0.0
C1951 C 0.25889 0.81915 0.04066 0.0
C1952 C 0.25359 0.84057 0.05245 0.0
C1953 C 0.23155 0.85167 0.04876 0.0
C1954 C 0.21478 0.8414 0.03322 0.0
C1955 C 0.21999 0.81997 0.0214 0.0
H1956 H 0.22748 0.86826 0.05791 0.0
H1957 H 0.2782 0.66062 0.9425 0.0
H1958 H 0.46017 0.01565 0.34773 0.0
H1959 H 0.45728 0.01552 0.30395 0.0
H1960 H 0.52639 0.98167 0.29959 0.0
H1961 H 0.52959 0.98243 0.34323 0.0
H1962 H 0.52471 0.01651 0.26927 0.0
H1963 H 0.47188 0.95122 0.28887 0.0
H1964 H 0.43772 0.93165 0.30883 0.0
H1965 H 0.38947 0.98086 0.27509 0.0
H1966 H 0.42341 0.00093 0.25516 0.0
H1967 H 0.52431 0.97412 0.15049 0.0
H1968 H 0.5226 0.97676 0.19409 0.0
H1969 H 0.4591 0.02005 0.18915 0.0
H1970 H 0.46052 0.0172 0.14528 0.0
H1971 H 0.45588 0.98348 0.22363 0.0
H1972 H 0.50982 0.04684 0.20203 0.0
H1973 H 0.54459 0.06472 0.18155 0.0
H1974 H 0.59155 0.01694 0.21896 0.0
H1975 H 0.55702 0.99853 0.23942 0.0
C1976 C 0.47458 0.00795 0.33737 0.0
C1977 C 0.49511 0.99908 0.34881 0.0
C1978 C 0.47292 0.00784 0.31238 0.0
C1979 C 0.49154 0.99841 0.29842 0.0
C1980 C 0.51184 0.98915 0.30993 0.0
C1981 C 0.51365 0.98955 0.33485 0.0
C1982 C 0.49043 0.99891 0.27183 0.0
C1983 C 0.50976 0.00902 0.25934 0.0
C1984 C 0.47063 0.98979 0.25879 0.0
C1985 C 0.45021 0.97773 0.27073 0.0
C1986 C 0.45401 0.95798 0.28586 0.0
C1987 C 0.43468 0.94678 0.29713 0.0
C1988 C 0.41145 0.95505 0.29328 0.0
C1989 C 0.40748 0.9745 0.27809 0.0
C1990 C 0.42675 0.98578 0.26678 0.0
C1991 C 0.50986 0.98406 0.15866 0.0
C1992 C 0.4925 0.99541 0.14447 0.0
C1993 C 0.50902 0.98569 0.18357 0.0
C1994 C 0.49084 0.99875 0.19481 0.0
C1995 C 0.47331 0.00993 0.18077 0.0
C1996 C 0.47423 0.00843 0.15576 0.0
C1997 C 0.49034 0.00062 0.22126 0.0
C1998 C 0.47072 0.99106 0.23367 0.0
C1999 C 0.50997 0.01002 0.23427 0.0
C2000 C 0.5308 0.02119 0.22212 0.0
C2001 C 0.52754 0.04003 0.20576 0.0
C2002 C 0.54721 0.05027 0.19418 0.0
C2003 C 0.57026 0.04194 0.19892 0.0
C2004 C 0.57369 0.02337 0.2153 0.0
C2005 C 0.55408 0.01304 0.22692 0.0
H2006 H 0.58546 0.04989 0.18993 0.0
H2007 H 0.39651 0.94635 0.30203 0.0
H2008 H 0.39876 0.27264 0.22429 0.0
H2009 H 0.44241 0.27204 0.22304 0.0
H2010 H 0.44381 0.22895 0.28703 0.0
H2011 H 0.40014 0.22885 0.2881 0.0
H2012 H 0.47498 0.26749 0.28907 0.0
H2013 H 0.45541 0.20343 0.23493 0.0
H2014 H 0.43544 0.18472 0.2002 0.0
H2015 H 0.46996 0.23474 0.15311 0.0
H2016 H 0.48989 0.25398 0.18762 0.0
H2017 H 0.59668 0.23382 0.28835 0.0
H2018 H 0.55303 0.23411 0.28831 0.0
H2019 H 0.55324 0.27071 0.2203 0.0
H2020 H 0.59705 0.27015 0.22011 0.0
H2021 H 0.52098 0.23623 0.21998 0.0
H2022 H 0.54103 0.30015 0.27373 0.0
H2023 H 0.56058 0.31951 0.30835 0.0
H2024 H 0.52491 0.2709 0.35604 0.0
H2025 H 0.50539 0.251 0.32166 0.0
C2026 C 0.40829 0.26269 0.23789 0.0
C2027 C 0.39586 0.25077 0.25629 0.0
C2028 C 0.43326 0.26247 0.2372 0.0
C2029 C 0.44632 0.25038 0.25489 0.0
C2030 C 0.43404 0.23847 0.27326 0.0
C2031 C 0.40908 0.23853 0.27389 0.0
C2032 C 0.47281 0.25052 0.25451 0.0
C2033 C 0.48509 0.26038 0.27412 0.0
C2034 C 0.48589 0.24185 0.23468 0.0
C2035 C 0.47394 0.2303 0.21389 0.0
C2036 C 0.45858 0.21058 0.21719 0.0
C2037 C 0.4473 0.19985 0.19754 0.0
C2038 C 0.45137 0.20858 0.17447 0.0
C2039 C 0.46679 0.22802 0.17099 0.0
C2040 C 0.4781 0.23883 0.1906 0.0
C2041 C 0.58743 0.24213 0.27349 0.0
C2042 C 0.60028 0.25214 0.25432 0.0
C2043 C 0.56247 0.2423 0.27349 0.0
C2044 C 0.54983 0.25279 0.25449 0.0
C2045 C 0.56261 0.26256 0.23518 0.0
C2046 C 0.58762 0.26222 0.23507 0.0
C2047 C 0.52328 0.25317 0.25461 0.0
C2048 C 0.51094 0.24341 0.23493 0.0
C2049 C 0.51013 0.26205 0.27436 0.0
C2050 C 0.52192 0.27393 0.29508 0.0
C2051 C 0.53751 0.29345 0.29158 0.0
C2052 C 0.54856 0.30455 0.31117 0.0
C2053 C 0.54403 0.2964 0.33438 0.0
C2054 C 0.52841 0.27717 0.33805 0.0
C2055 C 0.51734 0.26599 0.31852 0.0
H2056 H 0.55259 0.30503 0.34952 0.0
H2057 H 0.44263 0.20025 0.15927 0.0
H2058 H 0.03719 0.34696 0.51408 0.0
H2059 H 0.03779 0.30345 0.51032 0.0
H2060 H 0.98429 0.30689 0.45483 0.0
H2061 H 0.9843 0.3506 0.45755 0.0
H2062 H 0.97419 0.27435 0.49371 0.0
H2063 H 0.03751 0.29392 0.43834 0.0
H2064 H 0.07534 0.31318 0.4262 0.0
H2065 H 0.1129 0.27485 0.48113 0.0
H2066 H 0.07525 0.25557 0.49379 0.0
H2067 H 0.97269 0.15188 0.46462 0.0
H2068 H 0.97557 0.19549 0.46147 0.0
H2069 H 0.04038 0.19458 0.50358 0.0
H2070 H 0.03795 0.15083 0.50598 0.0
H2071 H 0.04492 0.22641 0.47029 0.0
H2072 H 0.98473 0.2088 0.52807 0.0
H2073 H 0.94812 0.1901 0.54416 0.0
H2074 H 0.90608 0.22536 0.49043 0.0
H2075 H 0.94251 0.244 0.47379 0.0
C2076 C 0.02591 0.33862 0.50066 0.0
C2077 C 0.01071 0.35245 0.48609 0.0
C2078 C 0.0262 0.31369 0.49866 0.0
C2079 C 0.01116 0.30203 0.48225 0.0
C2080 C 0.996 0.31563 0.46763 0.0
C2081 C 0.99593 0.34061 0.46937 0.0
C2082 C 0.01051 0.27556 0.48113 0.0
C2083 C 0.98949 0.26381 0.48819 0.0
C2084 C 0.03082 0.26196 0.47484 0.0
C2085 C 0.0535 0.27347 0.46716 0.0
C2086 C 0.0538 0.28975 0.44797 0.0
C2087 C 0.07522 0.30063 0.44095 0.0
C2088 C 0.0965 0.29528 0.45292 0.0
C2089 C 0.09641 0.27898 0.47188 0.0
C2090 C 0.07504 0.26805 0.47896 0.0
C2091 C 0.98761 0.16103 0.47305 0.0
C2092 C 0.00502 0.14808 0.48567 0.0
C2093 C 0.98921 0.18593 0.47134 0.0
C2094 C 0.00791 0.19841 0.48273 0.0
C2095 C 0.02575 0.18539 0.49468 0.0
C2096 C 0.02437 0.16042 0.49605 0.0
C2097 C 0.00848 0.22503 0.48277 0.0
C2098 C 0.02951 0.23685 0.47565 0.0
C2099 C 0.98834 0.23876 0.48958 0.0
C2100 C 0.96638 0.22759 0.49952 0.0
C2101 C 0.9677 0.21241 0.51956 0.0
C2102 C 0.94698 0.20185 0.5288 0.0
C2103 C 0.9248 0.20648 0.51828 0.0
C2104 C 0.92328 0.22175 0.49853 0.0
C2105 C 0.94396 0.23233 0.4892 0.0
H2106 H 0.90878 0.1983 0.52546 0.0
H2107 H 0.11307 0.30374 0.44747 0.0
H2108 H 0.90039 0.724 0.71439 0.0
H2109 H 0.9438 0.7249 0.70964 0.0
H2110 H 0.95004 0.77022 0.772 0.0
H2111 H 0.90672 0.77063 0.77599 0.0
H2112 H 0.97833 0.78615 0.73905 0.0
H2113 H 0.9624 0.70838 0.77284 0.0
H2114 H 0.94379 0.66832 0.77503 0.0
H2115 H 0.97468 0.64971 0.70723 0.0
H2116 H 0.99331 0.68976 0.70452 0.0
H2117 H 0.09712 0.76397 0.77803 0.0
H2118 H 0.05354 0.76489 0.77362 0.0
H2119 H 0.05965 0.73514 0.7026 0.0
H2120 H 0.10343 0.73454 0.7068 0.0
H2121 H 0.02569 0.71135 0.73464 0.0
H2122 H 0.04518 0.78917 0.70422 0.0
H2123 H 0.06469 0.82884 0.70467 0.0
H2124 H 0.02749 0.84695 0.76934 0.0
H2125 H 0.00803 0.80722 0.7695 0.0
C2126 C 0.91096 0.73438 0.72695 0.0
C2127 C 0.89998 0.74713 0.74567 0.0
C2128 C 0.93584 0.73464 0.72437 0.0
C2129 C 0.95026 0.74737 0.74066 0.0
C2130 C 0.93933 0.76021 0.75924 0.0
C2131 C 0.91451 0.76017 0.76168 0.0
C2132 C 0.97673 0.74756 0.73843 0.0
C2133 C 0.98865 0.76976 0.73828 0.0
C2134 C 0.99025 0.72621 0.73679 0.0
C2135 C 0.97901 0.70216 0.73835 0.0
C2136 C 0.96507 0.69581 0.75831 0.0
C2137 C 0.95457 0.67308 0.75967 0.0
C2138 C 0.95801 0.65649 0.74125 0.0
C2139 C 0.97203 0.66257 0.72147 0.0
C2140 C 0.98257 0.68528 0.72002 0.0
C2141 C 0.08914 0.75777 0.76144 0.0
C2142 C 0.10353 0.7492 0.74274 0.0
C2143 C 0.06433 0.75837 0.75891 0.0
C2144 C 0.05347 0.75013 0.73777 0.0
C2145 C 0.06777 0.7416 0.71902 0.0
C2146 C 0.09268 0.74139 0.72138 0.0
C2147 C 0.0271 0.74985 0.73578 0.0
C2148 C 0.01525 0.72768 0.73512 0.0
C2149 C 0.01365 0.77118 0.73702 0.0
C2150 C 0.0253 0.79512 0.73698 0.0
C2151 C 0.04132 0.80152 0.71866 0.0
C2152 C 0.05234 0.82404 0.71878 0.0
C2153 C 0.04737 0.84039 0.73705 0.0
C2154 C 0.03134 0.83426 0.75521 0.0
C2155 C 0.02029 0.81175 0.75519 0.0
H2156 H 0.05591 0.85782 0.7371 0.0
H2157 H 0.94987 0.63891 0.74235 0.0
H2158 H 0.45878 0.65245 0.99815 0.0
H2159 H 0.46036 0.696 0.99415 0.0
H2160 H 0.53339 0.6915 0.96983 0.0
H2161 H 0.53194 0.64788 0.97392 0.0
H2162 H 0.52897 0.72522 0.00297 0.0
H2163 H 0.48713 0.70423 0.93095 0.0
H2164 H 0.45571 0.6847 0.90672 0.0
H2165 H 0.40183 0.7243 0.94427 0.0
H2166 H 0.43291 0.74383 0.96897 0.0
H2167 H 0.53851 0.8472 0.96992 0.0
H2168 H 0.53683 0.80349 0.9673 0.0
H2169 H 0.46426 0.80433 0.99333 0.0
H2170 H 0.4658 0.84803 0.99595 0.0
H2171 H 0.46927 0.77244 0.95747 0.0
H2172 H 0.51065 0.79174 0.03067 0.0
H2173 H 0.54181 0.81119 0.05531 0.0
H2174 H 0.59632 0.77448 0.01576 0.0
H2175 H 0.56547 0.75507 0.99064 0.0
C2176 C 0.47506 0.66071 0.99161 0.0
C2177 C 0.49522 0.64674 0.98628 0.0
C2178 C 0.47594 0.68561 0.98933 0.0
C2179 C 0.49691 0.697 0.98142 0.0
C2180 C 0.51702 0.68308 0.97596 0.0
C2181 C 0.51619 0.65819 0.97835 0.0
C2182 C 0.49816 0.72351 0.97981 0.0
C2183 C 0.51616 0.73551 0.99267 0.0
C2184 C 0.48109 0.73697 0.96686 0.0
C2185 C 0.46235 0.72534 0.95195 0.0
C2186 C 0.46857 0.70864 0.93416 0.0
C2187 C 0.45082 0.6976 0.92032 0.0
C2188 C 0.42679 0.70321 0.92399 0.0
C2189 C 0.42045 0.71994 0.94147 0.0
C2190 C 0.43813 0.73103 0.95537 0.0
C2191 C 0.5222 0.83806 0.97509 0.0
C2192 C 0.50234 0.85104 0.98331 0.0
C2193 C 0.52125 0.8131 0.97356 0.0
C2194 C 0.50053 0.80064 0.98045 0.0
C2195 C 0.48043 0.81359 0.98792 0.0
C2196 C 0.48132 0.83856 0.98936 0.0
C2197 C 0.50004 0.77408 0.98064 0.0
C2198 C 0.48217 0.76209 0.96759 0.0
C2199 C 0.5172 0.7606 0.99345 0.0
C2200 C 0.53577 0.77215 0.00862 0.0
C2201 C 0.52929 0.78796 0.02711 0.0
C2202 C 0.54689 0.79895 0.04118 0.0
C2203 C 0.57103 0.79412 0.03706 0.0
C2204 C 0.57762 0.77824 0.0189 0.0
C2205 C 0.56008 0.76722 0.00476 0.0
H2206 H 0.58464 0.80265 0.04797 0.0
H2207 H 0.41307 0.69464 0.91326 0.0
H2208 H 0.59982 0.78671 0.28521 0.0
H2209 H 0.55618 0.78455 0.2875 0.0
H2210 H 0.5561 0.72535 0.23776 0.0
H2211 H 0.59968 0.7275 0.23532 0.0
H2212 H 0.52385 0.75772 0.22521 0.0
H2213 H 0.54541 0.71732 0.29808 0.0
H2214 H 0.56563 0.71291 0.33709 0.0
H2215 H 0.52829 0.77428 0.36408 0.0
H2216 H 0.50807 0.77925 0.32511 0.0
H2217 H 0.40498 0.71867 0.23639 0.0
H2218 H 0.44845 0.72076 0.23854 0.0
H2219 H 0.44382 0.78072 0.28705 0.0
H2220 H 0.4001 0.77813 0.2858 0.0
H2221 H 0.47825 0.74967 0.30091 0.0
H2222 H 0.45621 0.78964 0.22831 0.0
H2223 H 0.4359 0.79402 0.18935 0.0
H2224 H 0.47433 0.73357 0.16182 0.0
H2225 H 0.49464 0.72861 0.20074 0.0
C2226 C 0.59052 0.77303 0.27503 0.0
C2227 C 0.60318 0.75729 0.26006 0.0
C2228 C 0.56558 0.77182 0.27634 0.0
C2229 C 0.55287 0.75467 0.26293 0.0
C2230 C 0.56552 0.73877 0.2482 0.0
C2231 C 0.59041 0.74005 0.24679 0.0
C2232 C 0.52635 0.7538 0.26349 0.0
C2233 C 0.5139 0.75563 0.24174 0.0
C2234 C 0.51334 0.75181 0.28513 0.0
C2235 C 0.52541 0.7488 0.3086 0.0
C2236 C 0.54165 0.72999 0.31228 0.0
C2237 C 0.55309 0.72736 0.33439 0.0
C2238 C 0.5483 0.74334 0.35303 0.0
C2239 C 0.53201 0.76194 0.34962 0.0
C2240 C 0.52054 0.76465 0.32753 0.0
C2241 C 0.41313 0.73207 0.24786 0.0
C2242 C 0.399 0.74825 0.26093 0.0
C2243 C 0.43803 0.73341 0.24884 0.0
C2244 C 0.44938 0.75113 0.26266 0.0
C2245 C 0.43541 0.76699 0.27617 0.0
C2246 C 0.41044 0.76561 0.27527 0.0
C2247 C 0.47583 0.75327 0.26259 0.0
C2248 C 0.48823 0.75178 0.28441 0.0
C2249 C 0.48885 0.75559 0.24101 0.0
C2250 C 0.47679 0.75864 0.21751 0.0
C2251 C 0.46021 0.77718 0.214 0.0
C2252 C 0.44871 0.77978 0.19192 0.0
C2253 C 0.45378 0.76405 0.17314 0.0
C2254 C 0.47041 0.74572 0.17639 0.0
C2255 C 0.48193 0.74303 0.19845 0.0
H2256 H 0.44486 0.76609 0.15605 0.0
H2257 H 0.55717 0.74128 0.37014 0.0
H2258 H 0.52356 0.1528 0.53382 0.0
H2259 H 0.52294 0.19652 0.5339 0.0
H2260 H 0.47683 0.19585 0.47188 0.0
H2261 H 0.47833 0.15218 0.47095 0.0
H2262 H 0.51114 0.22767 0.46624 0.0
H2263 H 0.45559 0.2087 0.52878 0.0
H2264 H 0.44185 0.18952 0.56608 0.0
H2265 H 0.497 0.22598 0.60558 0.0
H2266 H 0.51128 0.24514 0.56845 0.0
H2267 H 0.47243 0.34813 0.47017 0.0
H2268 H 0.47459 0.30451 0.47113 0.0
H2269 H 0.52371 0.30835 0.53067 0.0
H2270 H 0.52106 0.35214 0.53029 0.0
H2271 H 0.48911 0.27511 0.53798 0.0
H2272 H 0.5434 0.2953 0.47454 0.0
H2273 H 0.55615 0.31431 0.43681 0.0
H2274 H 0.50182 0.27549 0.39842 0.0
H2275 H 0.48851 0.25649 0.43598 0.0
C2276 C 0.51339 0.16193 0.5201 0.0
C2277 C 0.50097 0.14892 0.50238 0.0
C2278 C 0.51284 0.18695 0.52033 0.0
C2279 C 0.49962 0.19949 0.50305 0.0
C2280 C 0.4871 0.18656 0.48544 0.0
C2281 C 0.48776 0.16156 0.4851 0.0
C2282 C 0.49934 0.22608 0.5029 0.0
C2283 C 0.50601 0.23804 0.48183 0.0
C2284 C 0.49322 0.23963 0.52343 0.0
C2285 C 0.48465 0.22816 0.54579 0.0
C2286 C 0.46491 0.21248 0.54539 0.0
C2287 C 0.457 0.20164 0.56651 0.0
C2288 C 0.46858 0.20648 0.58817 0.0
C2289 C 0.48807 0.22222 0.58878 0.0
C2290 C 0.49606 0.23309 0.56771 0.0
C2291 C 0.48355 0.33972 0.48361 0.0
C2292 C 0.49651 0.35361 0.50023 0.0
C2293 C 0.48497 0.31477 0.48396 0.0
C2294 C 0.49952 0.30318 0.50079 0.0
C2295 C 0.51244 0.31695 0.51746 0.0
C2296 C 0.51104 0.34196 0.51712 0.0
C2297 C 0.50077 0.27666 0.50129 0.0
C2298 C 0.49429 0.26472 0.52242 0.0
C2299 C 0.50689 0.26313 0.48075 0.0
C2300 C 0.51482 0.27463 0.45814 0.0
C2301 C 0.53403 0.29097 0.45809 0.0
C2302 C 0.54139 0.30171 0.43672 0.0
C2303 C 0.52977 0.29614 0.41523 0.0
C2304 C 0.51079 0.2798 0.41508 0.0
C2305 C 0.50335 0.26902 0.4364 0.0
H2306 H 0.53551 0.30445 0.3987 0.0
H2307 H 0.46243 0.19807 0.6045 0.0
H2308 H 0.09117 0.28822 0.74403 0.0
H2309 H 0.04798 0.28782 0.74972 0.0
H2310 H 0.05477 0.23026 0.80065 0.0
H2311 H 0.09824 0.23085 0.79548 0.0
H2312 H 0.02021 0.22152 0.76667 0.0
H2313 H 0.04118 0.28536 0.8203 0.0
H2314 H 0.06053 0.32325 0.83247 0.0
H2315 H 0.02097 0.36104 0.77859 0.0
H2316 H 0.00158 0.3234 0.76595 0.0
H2317 H 0.89638 0.22466 0.79311 0.0
H2318 H 0.93971 0.22646 0.79869 0.0
H2319 H 0.94353 0.28748 0.75153 0.0
H2320 H 0.90014 0.28642 0.74665 0.0
H2321 H 0.97302 0.29336 0.78843 0.0
H2322 H 0.95573 0.23072 0.73166 0.0
H2323 H 0.93664 0.19351 0.71725 0.0
H2324 H 0.96972 0.1541 0.77427 0.0
H2325 H 0.98876 0.19118 0.78923 0.0
C2326 C 0.08361 0.27577 0.75682 0.0
C2327 C 0.09825 0.25964 0.76938 0.0
C2328 C 0.05887 0.27553 0.75999 0.0
C2329 C 0.04821 0.25919 0.7758 0.0
C2330 C 0.06268 0.24304 0.7884 0.0
C2331 C 0.0875 0.24333 0.78532 0.0
C2332 C 0.02184 0.25831 0.7782 0.0
C2333 C 0.00989 0.23707 0.77192 0.0
C2334 C 0.00841 0.27881 0.78444 0.0
C2335 C 0.02004 0.30151 0.79207 0.0
C2336 C 0.03673 0.30173 0.81094 0.0
C2337 C 0.04768 0.32319 0.81796 0.0
C2338 C 0.042 0.34456 0.80631 0.0
C2339 C 0.02534 0.34452 0.78764 0.0
C2340 C 0.01434 0.32313 0.78056 0.0
C2341 C 0.90637 0.23876 0.7843 0.0
C2342 C 0.89481 0.2553 0.76928 0.0
C2343 C 0.93117 0.2396 0.78732 0.0
C2344 C 0.9449 0.25686 0.77521 0.0
C2345 C 0.93331 0.27393 0.76095 0.0
C2346 C 0.90853 0.27317 0.758 0.0
C2347 C 0.97138 0.25667 0.77661 0.0
C2348 C 0.98335 0.2777 0.78354 0.0
C2349 C 0.98485 0.23607 0.77069 0.0
C2350 C 0.97343 0.21377 0.76173 0.0
C2351 C 0.95877 0.21416 0.74125 0.0
C2352 C 0.94799 0.19308 0.73296 0.0
C2353 C 0.9519 0.17146 0.74488 0.0
C2354 C 0.96666 0.17087 0.76508 0.0
C2355 C 0.97746 0.1919 0.77347 0.0
H2356 H 0.94355 0.15516 0.73843 0.0
H2357 H 0.05048 0.36116 0.81177 0.0
H2358 H 0.97529 0.8442 0.97855 0.0
H2359 H 0.97718 0.80069 0.98168 0.0
H2360 H 0.02413 0.80719 0.04276 0.0
H2361 H 0.02249 0.85099 0.03951 0.0
H2362 H 0.03915 0.77264 0.01336 0.0
H2363 H 0.96495 0.79274 0.04997 0.0
H2364 H 0.92555 0.81209 0.05339 0.0
H2365 H 0.90062 0.77335 0.99168 0.0
H2366 H 0.93999 0.75403 0.98767 0.0
H2367 H 0.0233 0.64839 0.04251 0.0
H2368 H 0.02301 0.69215 0.04513 0.0
H2369 H 0.98159 0.69565 0.98006 0.0
H2370 H 0.98233 0.6521 0.97687 0.0
H2371 H 0.96404 0.72507 0.01594 0.0
H2372 H 0.03958 0.7072 0.97828 0.0
H2373 H 0.07901 0.68783 0.97541 0.0
H2374 H 0.10122 0.7223 0.04058 0.0
H2375 H 0.06176 0.74161 0.04402 0.0
C2376 C 0.98588 0.83639 0.99277 0.0
C2377 C 0.9985 0.85101 0.00898 0.0
C2378 C 0.98695 0.81151 0.99454 0.0
C2379 C 0.0004 0.80066 0.01276 0.0
C2380 C 0.01353 0.81518 0.02864 0.0
C2381 C 0.01261 0.84017 0.02676 0.0
C2382 C 0.0007 0.77417 0.01499 0.0
C2383 C 0.02274 0.76226 0.01437 0.0
C2384 C 0.97927 0.76058 0.016 0.0
C2385 C 0.9555 0.77207 0.01842 0.0
C2386 C 0.95112 0.78847 0.03703 0.0
C2387 C 0.92878 0.79942 0.03908 0.0
C2388 C 0.91061 0.79399 0.02274 0.0
C2389 C 0.91472 0.77755 0.00433 0.0
C2390 C 0.93704 0.76658 0.00217 0.0
C2391 C 0.01429 0.65846 0.02864 0.0
C2392 C 0.00283 0.64665 0.00947 0.0
C2393 C 0.01407 0.68346 0.03023 0.0
C2394 C 0.00237 0.69711 0.01273 0.0
C2395 C 0.99062 0.68542 0.99382 0.0
C2396 C 0.99096 0.66048 0.99211 0.0
C2397 C 0.00243 0.72362 0.01389 0.0
C2398 C 0.98044 0.73551 0.01518 0.0
C2399 C 0.02388 0.73715 0.01366 0.0
C2400 C 0.04763 0.72562 0.01155 0.0
C2401 C 0.0528 0.71048 0.99211 0.0
C2402 C 0.07517 0.69954 0.99036 0.0
C2403 C 0.09259 0.70377 0.00784 0.0
C2404 C 0.0877 0.719 0.02708 0.0
C2405 C 0.06534 0.72996 0.02893 0.0
H2406 H 0.1099 0.6953 0.00645 0.0
H2407 H 0.89333 0.80248 0.02436 0.0
H2408 H 0.21564 0.40147 0.28598 0.0
H2409 H 0.21437 0.44509 0.2833 0.0
H2410 H 0.25447 0.44242 0.21744 0.0
H2411 H 0.2567 0.39885 0.22054 0.0
H2412 H 0.27274 0.47502 0.24627 0.0
H2413 H 0.19423 0.45572 0.21825 0.0
H2414 H 0.15434 0.43679 0.21924 0.0
H2415 H 0.1378 0.47479 0.28397 0.0
H2416 H 0.17774 0.49371 0.28356 0.0
H2417 H 0.25358 0.59467 0.20912 0.0
H2418 H 0.25019 0.55117 0.21118 0.0
H2419 H 0.22482 0.55627 0.28381 0.0
H2420 H 0.2292 0.59988 0.28242 0.0
H2421 H 0.19847 0.523 0.25194 0.0
H2422 H 0.27806 0.54176 0.27935 0.0
H2423 H 0.31769 0.56109 0.2768 0.0
H2424 H 0.33165 0.52396 0.21094 0.0
H2425 H 0.29191 0.50469 0.21292 0.0
C2426 C 0.22423 0.41016 0.27093 0.0
C2427 C 0.23634 0.39664 0.25351 0.0
C2428 C 0.22326 0.4351 0.26929 0.0
C2429 C 0.23415 0.44705 0.25005 0.0
C2430 C 0.24589 0.43359 0.23241 0.0
C2431 C 0.24695 0.40864 0.23409 0.0
C2432 C 0.23431 0.47362 0.24894 0.0
C2433 C 0.25644 0.48544 0.24716 0.0
C2434 C 0.2131 0.48731 0.25066 0.0
C2435 C 0.18908 0.47595 0.251 0.0
C2436 C 0.18217 0.45988 0.23281 0.0
C2437 C 0.15953 0.44918 0.23325 0.0
C2438 C 0.14357 0.45453 0.2517 0.0
C2439 C 0.1502 0.47064 0.26972 0.0
C2440 C 0.17283 0.48137 0.26938 0.0
C2441 C 0.24751 0.58664 0.22567 0.0
C2442 C 0.24199 0.60089 0.24572 0.0
C2443 C 0.24538 0.56176 0.22671 0.0
C2444 C 0.23741 0.55059 0.24768 0.0
C2445 C 0.23096 0.56465 0.26744 0.0
C2446 C 0.23339 0.58958 0.26655 0.0
C2447 C 0.23681 0.52414 0.24916 0.0
C2448 C 0.21468 0.51243 0.25105 0.0
C2449 C 0.25797 0.5105 0.24734 0.0
C2450 C 0.28191 0.52199 0.24615 0.0
C2451 C 0.28949 0.53789 0.26421 0.0
C2452 C 0.31198 0.54881 0.26289 0.0
C2453 C 0.32715 0.54381 0.24368 0.0
C2454 C 0.31986 0.52784 0.22579 0.0
C2455 C 0.29736 0.51691 0.22701 0.0
H2456 H 0.34457 0.55227 0.2427 0.0
H2457 H 0.12605 0.44623 0.252 0.0
H2458 H 0.71906 0.09611 0.72862 0.0
H2459 H 0.71788 0.05237 0.73045 0.0
H2460 H 0.77271 0.05336 0.7849 0.0
H2461 H 0.77404 0.0971 0.78307 0.0
H2462 H 0.78268 0.02104 0.75167 0.0
H2463 H 0.71392 0.04111 0.79853 0.0
H2464 H 0.67549 0.06077 0.80716 0.0
H2465 H 0.64286 0.02395 0.7479 0.0
H2466 H 0.6812 0.0043 0.73871 0.0
H2467 H 0.77312 0.90043 0.78888 0.0
H2468 H 0.77197 0.94411 0.78778 0.0
H2469 H 0.71989 0.9412 0.73078 0.0
H2470 H 0.72043 0.89735 0.73223 0.0
H2471 H 0.7082 0.97432 0.76476 0.0
H2472 H 0.77757 0.95383 0.71859 0.0
H2473 H 0.81616 0.93413 0.71081 0.0
H2474 H 0.84788 0.97186 0.76998 0.0
H2475 H 0.80936 0.99154 0.77835 0.0
C2476 C 0.73063 0.08702 0.74122 0.0
C2477 C 0.74663 0.10005 0.75572 0.0
C2478 C 0.72996 0.06202 0.74223 0.0
C2479 C 0.74507 0.04958 0.75796 0.0
C2480 C 0.76093 0.06257 0.77258 0.0
C2481 C 0.7617 0.08755 0.77149 0.0
C2482 C 0.74487 0.02301 0.75869 0.0
C2483 C 0.76645 0.01084 0.75487 0.0
C2484 C 0.72359 0.00968 0.76228 0.0
C2485 C 0.7005 0.02142 0.76779 0.0
C2486 C 0.6986 0.03735 0.78722 0.0
C2487 C 0.67682 0.04846 0.79224 0.0
C2488 C 0.65676 0.04366 0.77805 0.0
C2489 C 0.65842 0.02768 0.75885 0.0
C2490 C 0.68017 0.01653 0.75375 0.0
C2491 C 0.76121 0.90905 0.77628 0.0
C2492 C 0.74685 0.89541 0.76065 0.0
C2493 C 0.76075 0.93403 0.77552 0.0
C2494 C 0.74606 0.9459 0.759 0.0
C2495 C 0.73143 0.93238 0.74359 0.0
C2496 C 0.7319 0.90735 0.74432 0.0
C2497 C 0.74602 0.97242 0.75786 0.0
C2498 C 0.72441 0.98456 0.76156 0.0
C2499 C 0.7673 0.98574 0.75428 0.0
C2500 C 0.79051 0.97399 0.74923 0.0
C2501 C 0.79272 0.95778 0.73007 0.0
C2502 C 0.81459 0.94664 0.72553 0.0
C2503 C 0.83444 0.95169 0.73993 0.0
C2504 C 0.83248 0.96794 0.75886 0.0
C2505 C 0.81064 0.97911 0.7635 0.0
H2506 H 0.85136 0.94305 0.73638 0.0
H2507 H 0.63992 0.05228 0.78196 0.0
H2508 H 0.3458 0.49924 0.03879 0.0
H2509 H 0.30235 0.49636 0.03668 0.0
H2510 H 0.30667 0.47612 0.96239 0.0
H2511 H 0.35032 0.47729 0.96454 0.0
H2512 H 0.2743 0.52056 0.9816 0.0
H2513 H 0.29176 0.43495 0.98666 0.0
H2514 H 0.31104 0.40008 0.00552 0.0
H2515 H 0.27549 0.4156 0.07179 0.0
H2516 H 0.25629 0.45081 0.0534 0.0
H2517 H 0.15303 0.50051 0.95736 0.0
H2518 H 0.19626 0.49764 0.95859 0.0
H2519 H 0.19317 0.47797 0.03321 0.0
H2520 H 0.14963 0.4785 0.03156 0.0
H2521 H 0.2259 0.4534 0.01406 0.0
H2522 H 0.20802 0.53673 0.01259 0.0
H2523 H 0.18971 0.57414 0.99818 0.0
H2524 H 0.22659 0.56705 0.9312 0.0
H2525 H 0.24488 0.5294 0.94509 0.0
C2526 C 0.33771 0.49355 0.0221 0.0
C2527 C 0.35181 0.48841 0.00185 0.0
C2528 C 0.31281 0.49216 0.02092 0.0
C2529 C 0.30146 0.48601 0.99941 0.0
C2530 C 0.31524 0.48093 0.97914 0.0
C2531 C 0.3402 0.48182 0.9804 0.0
C2532 C 0.27512 0.48577 0.998 0.0
C2533 C 0.26361 0.50576 0.9883 0.0
C2534 C 0.26142 0.46688 0.00774 0.0
C2535 C 0.27284 0.44566 0.01874 0.0
C2536 C 0.28827 0.43108 0.00532 0.0
C2537 C 0.29913 0.41122 0.01591 0.0
C2538 C 0.29455 0.40567 0.03986 0.0
C2539 C 0.27905 0.41994 0.05326 0.0
C2540 C 0.26817 0.43984 0.04275 0.0
C2541 C 0.16135 0.49501 0.97395 0.0
C2542 C 0.14756 0.48976 0.99438 0.0
C2543 C 0.18625 0.49382 0.97473 0.0
C2544 C 0.19812 0.48817 0.99615 0.0
C2545 C 0.18449 0.48256 0.01649 0.0
C2546 C 0.15951 0.48319 0.01559 0.0
C2547 C 0.22471 0.48818 0.99728 0.0
C2548 C 0.23638 0.46824 0.00714 0.0
C2549 C 0.23859 0.50746 0.98823 0.0
C2550 C 0.22763 0.53011 0.9798 0.0
C2551 C 0.21208 0.54305 0.99472 0.0
C2552 C 0.20173 0.56432 0.98666 0.0
C2553 C 0.20693 0.57294 0.96377 0.0
C2554 C 0.22255 0.56034 0.94892 0.0
C2555 C 0.23293 0.53904 0.95688 0.0
H2556 H 0.19891 0.58941 0.95756 0.0
H2557 H 0.30297 0.39028 0.04802 0.0
H2558 H 0.77732 0.10162 0.2819 0.0
H2559 H 0.78043 0.0582 0.27789 0.0
H2560 H 0.74826 0.062 0.20774 0.0
H2561 H 0.74434 0.10544 0.21198 0.0
H2562 H 0.7276 0.02792 0.2342 0.0
H2563 H 0.80799 0.05011 0.21471 0.0
H2564 H 0.84684 0.07033 0.2205 0.0
H2565 H 0.85773 0.03156 0.28593 0.0
H2566 H 0.81877 0.01133 0.28071 0.0
H2567 H 0.74713 0.90639 0.20523 0.0
H2568 H 0.74928 0.95005 0.20474 0.0
H2569 H 0.78041 0.94973 0.27546 0.0
H2570 H 0.77916 0.9059 0.27573 0.0
H2571 H 0.80236 0.98209 0.2469 0.0
H2572 H 0.72146 0.96148 0.26748 0.0
H2573 H 0.6825 0.94132 0.26216 0.0
H2574 H 0.6725 0.97746 0.19509 0.0
H2575 H 0.7116 0.99757 0.19984 0.0
C2576 C 0.77091 0.09323 0.2656 0.0
C2577 C 0.76049 0.10699 0.24729 0.0
C2578 C 0.77292 0.06842 0.26323 0.0
C2579 C 0.76476 0.05686 0.24242 0.0
C2580 C 0.75474 0.07057 0.22392 0.0
C2581 C 0.75269 0.09541 0.22629 0.0
C2582 C 0.76554 0.03035 0.24055 0.0
C2583 C 0.74403 0.01793 0.23654 0.0
C2584 C 0.78686 0.01727 0.24426 0.0
C2585 C 0.81035 0.02935 0.24742 0.0
C2586 C 0.81858 0.04603 0.23043 0.0
C2587 C 0.84064 0.05747 0.23359 0.0
C2588 C 0.85472 0.05228 0.2536 0.0
C2589 C 0.84679 0.03558 0.27046 0.0
C2590 C 0.82473 0.0241 0.26739 0.0
C2591 C 0.75482 0.91555 0.22053 0.0
C2592 C 0.76296 0.90263 0.24054 0.0
C2593 C 0.7558 0.94054 0.22032 0.0
C2594 C 0.7647 0.95316 0.24019 0.0
C2595 C 0.77338 0.94035 0.25996 0.0
C2596 C 0.77247 0.91532 0.26018 0.0
C2597 C 0.76443 0.97973 0.24058 0.0
C2598 C 0.78599 0.99213 0.24438 0.0
C2599 C 0.74314 0.99282 0.23673 0.0
C2600 C 0.71957 0.98083 0.2339 0.0
C2601 C 0.71104 0.96498 0.2515 0.0
C2602 C 0.68892 0.95359 0.24861 0.0
C2603 C 0.67506 0.95806 0.22827 0.0
C2604 C 0.68328 0.97398 0.21082 0.0
C2605 C 0.70541 0.98539 0.21361 0.0
H2606 H 0.65794 0.94922 0.22606 0.0
H2607 H 0.8718 0.06115 0.25601 0.0
H2608 H 0.85055 0.02327 0.03367 0.0
H2609 H 0.80708 0.0277 0.03445 0.0
H2610 H 0.80175 0.99053 0.96686 0.0
H2611 H 0.8451 0.98728 0.96526 0.0
H2612 H 0.77257 0.02676 0.96686 0.0
H2613 H 0.79039 0.96281 0.02215 0.0
H2614 H 0.80982 0.9445 0.05728 0.0
H2615 H 0.77717 0.99662 0.10326 0.0
H2616 H 0.75778 0.01543 0.06834 0.0
H2617 H 0.6524 0.98698 0.96711 0.0
H2618 H 0.69596 0.99004 0.96773 0.0
H2619 H 0.6927 0.03046 0.03351 0.0
H2620 H 0.64912 0.02672 0.03349 0.0
H2621 H 0.72604 0.9963 0.03604 0.0
H2622 H 0.70543 0.05799 0.98023 0.0
H2623 H 0.68562 0.07515 0.94474 0.0
H2624 H 0.72323 0.02608 0.89925 0.0
H2625 H 0.74302 0.00839 0.93451 0.0
C2626 C 0.84016 0.01633 0.01881 0.0
C2627 C 0.85137 0.00471 0.99951 0.0
C2628 C 0.81527 0.01864 0.01941 0.0
C2629 C 0.80108 0.0091 0.00089 0.0
C2630 C 0.81227 0.99794 0.98141 0.0
C2631 C 0.8371 0.99583 0.98068 0.0
C2632 C 0.77457 0.0104 0.00173 0.0
C2633 C 0.7624 0.0199 0.98191 0.0
C2634 C 0.76128 0.00203 0.02161 0.0
C2635 C 0.77286 0.99068 0.04261 0.0
C2636 C 0.7875 0.97047 0.03973 0.0
C2637 C 0.79848 0.95999 0.05961 0.0
C2638 C 0.79479 0.96943 0.08248 0.0
C2639 C 0.78005 0.98935 0.08553 0.0
C2640 C 0.76905 -8e-05 0.0657 0.0
C2641 C 0.66094 0.99644 0.98177 0.0
C2642 C 0.64725 0.00663 0.00023 0.0
C2643 C 0.68584 0.9984 0.98196 0.0
C2644 C 0.69758 0.01075 0.00051 0.0
C2645 C 0.684 0.02097 0.01896 0.0
C2646 C 0.65908 0.01899 0.0188 0.0
C2647 C 0.72407 0.01229 0.00101 0.0
C2648 C 0.73623 0.00335 0.02109 0.0
C2649 C 0.73734 0.02104 0.98131 0.0
C2650 C 0.72557 0.03175 0.96005 0.0
C2651 C 0.70935 0.05075 0.96268 0.0
C2652 C 0.69814 0.06059 0.9426 0.0
C2653 C 0.70312 0.05168 0.91976 0.0
C2654 C 0.71937 0.03295 0.91695 0.0
C2655 C 0.73062 0.02303 0.93698 0.0
H2656 H 0.69442 0.05932 0.90424 0.0
H2657 H 0.8033 0.96129 0.09784 0.0
H2658 H 0.29514 0.59914 0.7625 0.0
H2659 H 0.29533 0.55534 0.76192 0.0
H2660 H 0.22486 0.55501 0.73038 0.0
H2661 H 0.22415 0.59869 0.73175 0.0
H2662 H 0.22724 0.52437 0.7667 0.0
H2663 H 0.27508 0.54189 0.69732 0.0
H2664 H 0.30844 0.56051 0.67523 0.0
H2665 H 0.35893 0.52427 0.72029 0.0
H2666 H 0.32584 0.50567 0.74286 0.0
H2667 H 0.21831 0.40366 0.73112 0.0
H2668 H 0.2214 0.44728 0.73123 0.0
H2669 H 0.29132 0.44278 0.76361 0.0
H2670 H 0.28836 0.39896 0.7635 0.0
H2671 H 0.29057 0.47572 0.72831 0.0
H2672 H 0.24291 0.45756 0.79713 0.0
H2673 H 0.20965 0.43884 0.81928 0.0
H2674 H 0.15896 0.47644 0.77559 0.0
H2675 H 0.19194 0.49515 0.75295 0.0
C2676 C 0.27967 0.58974 0.75546 0.0
C2677 C 0.25964 0.60244 0.74713 0.0
C2678 C 0.2799 0.56471 0.75494 0.0
C2679 C 0.26019 0.5519 0.74592 0.0
C2680 C 0.24029 0.56453 0.73736 0.0
C2681 C 0.24002 0.58952 0.73793 0.0
C2682 C 0.25981 0.52533 0.74619 0.0
C2683 C 0.24093 0.51374 0.75803 0.0
C2684 C 0.27807 0.51147 0.73552 0.0
C2685 C 0.29798 0.52258 0.72193 0.0
C2686 C 0.29329 0.53804 0.70264 0.0
C2687 C 0.31216 0.54856 0.69001 0.0
C2688 C 0.33579 0.54363 0.6964 0.0
C2689 C 0.34061 0.5281 0.71539 0.0
C2690 C 0.32181 0.51755 0.72809 0.0
C2691 C 0.23427 0.41195 0.73847 0.0
C2692 C 0.25299 0.39788 0.74755 0.0
C2693 C 0.23603 0.43688 0.73847 0.0
C2694 C 0.25644 0.44829 0.74777 0.0
C2695 C 0.2754 0.43432 0.7564 0.0
C2696 C 0.27369 0.40932 0.7563 0.0
C2697 C 0.25783 0.47482 0.74854 0.0
C2698 C 0.27692 0.48638 0.73701 0.0
C2699 C 0.23978 0.4887 0.75952 0.0
C2700 C 0.21991 0.4776 0.77321 0.0
C2701 C 0.22468 0.46171 0.79213 0.0
C2702 C 0.20587 0.45112 0.80479 0.0
C2703 C 0.18221 0.45641 0.79881 0.0
C2704 C 0.1773 0.47235 0.78019 0.0
C2705 C 0.19604 0.48297 0.76745 0.0
H2706 H 0.16768 0.44819 0.80863 0.0
H2707 H 0.35037 0.55179 0.6866 0.0
H2708 H 0.1541 0.47504 0.47965 0.0
H2709 H 0.19759 0.47873 0.47901 0.0
H2710 H 0.19282 0.54833 0.5122 0.0
H2711 H 0.14912 0.54471 0.51304 0.0
H2712 H 0.22639 0.54734 0.47628 0.0
H2713 H 0.20724 0.50141 0.54581 0.0
H2714 H 0.18775 0.46901 0.56861 0.0
H2715 H 0.22447 0.41648 0.52636 0.0
H2716 H 0.24391 0.44858 0.50305 0.0
H2717 H 0.35146 0.54759 0.50623 0.0
H2718 H 0.30776 0.54972 0.50862 0.0
H2719 H 0.30227 0.47923 0.47732 0.0
H2720 H 0.34574 0.47668 0.47556 0.0
H2721 H 0.27374 0.48346 0.51558 0.0
H2722 H 0.29102 0.52962 0.44457 0.0
H2723 H 0.31023 0.56213 0.42166 0.0
H2724 H 0.27718 0.61442 0.46715 0.0
H2725 H 0.25801 0.58218 0.49054 0.0
C2726 C 0.16228 0.49111 0.48689 0.0
C2727 C 0.14818 0.50946 0.49667 0.0
C2728 C 0.18713 0.49322 0.48646 0.0
C2729 C 0.19843 0.51363 0.49593 0.0
C2730 C 0.18443 0.5324 0.50487 0.0
C2731 C 0.15948 0.53033 0.50528 0.0
C2732 C 0.22489 0.51488 0.49702 0.0
C2733 C 0.23678 0.5336 0.48519 0.0
C2734 C 0.2384 0.4968 0.50844 0.0
C2735 C 0.22688 0.47742 0.52255 0.0
C2736 C 0.21103 0.48295 0.54126 0.0
C2737 C 0.20001 0.46464 0.55429 0.0
C2738 C 0.20483 0.4407 0.5489 0.0
C2739 C 0.22073 0.43503 0.5305 0.0
C2740 C 0.23178 0.45328 0.51739 0.0
C2741 C 0.34092 0.53252 0.49997 0.0
C2742 C 0.35207 0.51201 0.4906 0.0
C2743 C 0.31597 0.53384 0.50116 0.0
C2744 C 0.30176 0.5147 0.49295 0.0
C2745 C 0.31287 0.49422 0.48369 0.0
C2746 C 0.33774 0.49289 0.48249 0.0
C2747 C 0.2753 0.51561 0.49435 0.0
C2748 C 0.26339 0.49731 0.50679 0.0
C2749 C 0.26184 0.5341 0.48354 0.0
C2750 C 0.27331 0.55349 0.46946 0.0
C2751 C 0.28801 0.54805 0.44981 0.0
C2752 C 0.29886 0.56642 0.43672 0.0
C2753 C 0.29499 0.59033 0.443 0.0
C2754 C 0.2802 0.5959 0.46234 0.0
C2755 C 0.26933 0.57758 0.47551 0.0
H2756 H 0.3034 0.60453 0.43283 0.0
H2757 H 0.19628 0.42654 0.55902 0.0
H2758 H 0.78739 0.72176 0.90412 0.0
H2759 H 0.7861 0.7186 0.94778 0.0
H2760 H 0.71063 0.73453 0.94659 0.0
H2761 H 0.71214 0.73856 0.903 0.0
H2762 H 0.73052 0.76035 0.97868 0.0
H2763 H 0.7341 0.67694 0.95984 0.0
H2764 H 0.74982 0.64033 0.94093 0.0
H2765 H 0.81656 0.64981 0.97794 0.0
H2766 H 0.80135 0.68668 0.99683 0.0
H2767 H 0.70709 0.73255 0.09965 0.0
H2768 H 0.70858 0.72754 0.05625 0.0
H2769 H 0.78556 0.73059 0.05842 0.0
H2770 H 0.78432 0.73648 0.10185 0.0
H2771 H 0.76499 0.69409 0.02656 0.0
H2772 H 0.76003 0.77874 0.04431 0.0
H2773 H 0.74248 0.81423 0.06373 0.0
H2774 H 0.67549 0.80039 0.02857 0.0
H2775 H 0.69255 0.76458 0.00921 0.0
C2776 C 0.77047 0.72421 0.9132 0.0
C2777 C 0.74986 0.7304 0.90026 0.0
C2778 C 0.76972 0.72233 0.93815 0.0
C2779 C 0.7482 0.72608 0.95055 0.0
C2780 C 0.72746 0.73162 0.93749 0.0
C2781 C 0.7283 0.73389 0.91261 0.0
C2782 C 0.74759 0.7258 0.97718 0.0
C2783 C 0.73772 0.74562 0.98904 0.0
C2784 C 0.75746 0.70688 0.99087 0.0
C2785 C 0.76665 0.6847 0.97957 0.0
C2786 C 0.7522 0.67132 0.9638 0.0
C2787 C 0.761 0.6505 0.95311 0.0
C2788 C 0.78419 0.64278 0.95818 0.0
C2789 C 0.79861 0.65583 0.974 0.0
C2790 C 0.78989 0.67668 0.98473 0.0
C2791 C 0.72438 0.73224 0.09096 0.0
C2792 C 0.74558 0.7353 0.10426 0.0
C2793 C 0.72517 0.72917 0.06618 0.0
C2794 C 0.74716 0.7289 0.05419 0.0
C2795 C 0.76842 0.73069 0.06742 0.0
C2796 C 0.76766 0.734 0.09225 0.0
C2797 C 0.74778 0.72845 0.02771 0.0
C2798 C 0.75772 0.70864 0.01599 0.0
C2799 C 0.73771 0.74719 0.01408 0.0
C2800 C 0.7275 0.76885 0.02551 0.0
C2801 C 0.7415 0.78315 0.04087 0.0
C2802 C 0.73165 0.80334 0.05185 0.0
C2803 C 0.70787 0.80952 0.04744 0.0
C2804 C 0.6939 0.79556 0.03199 0.0
C2805 C 0.70366 0.77533 0.021 0.0
H2806 H 0.70027 0.82516 0.05595 0.0
H2807 H 0.79098 0.62666 0.94989 0.0
H2808 H 0.54444 0.51469 0.3497 0.0
H2809 H 0.54887 0.51329 0.30607 0.0
H2810 H 0.4795 0.47976 0.29985 0.0
H2811 H 0.47517 0.48065 0.34337 0.0
H2812 H 0.51227 0.45796 0.27159 0.0
H2813 H 0.48615 0.53825 0.28807 0.0
H2814 H 0.48787 0.57803 0.30721 0.0
H2815 H 0.55694 0.59074 0.27618 0.0
H2816 H 0.55578 0.55084 0.25711 0.0
H2817 H 0.47552 0.48391 0.15301 0.0
H2818 H 0.48035 0.48155 0.19652 0.0
H2819 H 0.55274 0.50771 0.1902 0.0
H2820 H 0.54804 0.50983 0.14645 0.0
H2821 H 0.52373 0.53245 0.22455 0.0
H2822 H 0.54711 0.45287 0.20446 0.0
H2823 H 0.5437 0.41347 0.18477 0.0
H2824 H 0.47805 0.39973 0.22214 0.0
H2825 H 0.48086 0.43924 0.24179 0.0
C2826 C 0.53021 0.5069 0.33901 0.0
C2827 C 0.50938 0.49794 0.34993 0.0
C2828 C 0.5327 0.50624 0.31411 0.0
C2829 C 0.51443 0.49658 0.29973 0.0
C2830 C 0.49379 0.48732 0.31062 0.0
C2831 C 0.49125 0.48806 0.33546 0.0
C2832 C 0.51657 0.49628 0.27329 0.0
C2833 C 0.51462 0.47425 0.26129 0.0
C2834 C 0.52024 0.51749 0.25992 0.0
C2835 C 0.52102 0.54144 0.27142 0.0
C2836 C 0.50181 0.54943 0.28552 0.0
C2837 C 0.50266 0.57202 0.29632 0.0
C2838 C 0.52254 0.58687 0.29298 0.0
C2839 C 0.54158 0.57919 0.27879 0.0
C2840 C 0.54084 0.55659 0.26798 0.0
C2841 C 0.4925 0.48898 0.16092 0.0
C2842 C 0.51141 0.49707 0.14649 0.0
C2843 C 0.49528 0.48754 0.1857 0.0
C2844 C 0.51692 0.49438 0.19649 0.0
C2845 C 0.53593 0.5023 0.18213 0.0
C2846 C 0.53328 0.50339 0.15724 0.0
C2847 C 0.51908 0.49418 0.22289 0.0
C2848 C 0.52176 0.51612 0.23488 0.0
C2849 C 0.51591 0.47292 0.23624 0.0
C2850 C 0.51411 0.44913 0.22445 0.0
C2851 C 0.53183 0.44155 0.20832 0.0
C2852 C 0.53003 0.41917 0.1972 0.0
C2853 C 0.51065 0.40413 0.20216 0.0
C2854 C 0.49304 0.41142 0.2183 0.0
C2855 C 0.49475 0.4338 0.22945 0.0
H2856 H 0.50929 0.3868 0.19355 0.0
H2857 H 0.52316 0.60436 0.30134 0.0
H2858 H 0.78177 0.24135 0.40108 0.0
H2859 H 0.78339 0.24199 0.44484 0.0
H2860 H 0.72091 0.28697 0.44665 0.0
H2861 H 0.71937 0.28669 0.40279 0.0
H2862 H 0.75606 0.30117 0.47929 0.0
H2863 H 0.71413 0.22949 0.45639 0.0
H2864 H 0.70825 0.19142 0.43471 0.0
H2865 H 0.77086 0.16243 0.4683 0.0
H2866 H 0.77734 0.20048 0.48992 0.0
H2867 H 0.72777 0.28211 0.60213 0.0
H2868 H 0.72617 0.28497 0.55849 0.0
H2869 H 0.78363 0.23396 0.55294 0.0
H2870 H 0.78456 0.23012 0.59641 0.0
H2871 H 0.74988 0.22348 0.52192 0.0
H2872 H 0.79248 0.29499 0.54438 0.0
H2873 H 0.79887 0.33304 0.56597 0.0
H2874 H 0.73587 0.36231 0.53335 0.0
H2875 H 0.72893 0.3243 0.51179 0.0
C2876 C 0.76862 0.25171 0.41077 0.0
C2877 C 0.75038 0.26391 0.39852 0.0
C2878 C 0.76945 0.2519 0.43576 0.0
C2879 C 0.7521 0.26429 0.44894 0.0
C2880 C 0.73441 0.27723 0.43678 0.0
C2881 C 0.73347 0.27693 0.41177 0.0
C2882 C 0.75195 0.26301 0.47543 0.0
C2883 C 0.75442 0.28424 0.48867 0.0
C2884 C 0.75022 0.24085 0.48756 0.0
C2885 C 0.74636 0.21793 0.47459 0.0
C2886 C 0.72677 0.21508 0.459 0.0
C2887 C 0.7233 0.19349 0.44674 0.0
C2888 C 0.7392 0.17454 0.45008 0.0
C2889 C 0.75858 0.17713 0.46571 0.0
C2890 C 0.76215 0.1987 0.47798 0.0
C2891 C 0.73993 0.27134 0.59163 0.0
C2892 C 0.75636 0.25595 0.60282 0.0
C2893 C 0.73918 0.27321 0.56667 0.0
C2894 C 0.755 0.25992 0.55244 0.0
C2895 C 0.77132 0.24447 0.56355 0.0
C2896 C 0.77199 0.24249 0.58845 0.0
C2897 C 0.7543 0.26163 0.52592 0.0
C2898 C 0.75156 0.24045 0.51262 0.0
C2899 C 0.75588 0.28383 0.51377 0.0
C2900 C 0.76005 0.30672 0.52666 0.0
C2901 C 0.77988 0.30948 0.54195 0.0
C2902 C 0.78363 0.33105 0.55416 0.0
C2903 C 0.76775 0.35006 0.55109 0.0
C2904 C 0.74814 0.34756 0.53574 0.0
C2905 C 0.7443 0.32601 0.52351 0.0
H2906 H 0.77068 0.36674 0.56055 0.0
H2907 H 0.73648 0.15783 0.44059 0.0
H2908 H 0.96027 0.52108 0.64587 0.0
H2909 H 0.95697 0.52206 0.68965 0.0
H2910 H 0.01924 0.47691 0.69529 0.0
H2911 H 0.02185 0.47514 0.65168 0.0
H2912 H 0.98853 0.46165 0.72481 0.0
H2913 H 0.01952 0.53961 0.70687 0.0
H2914 H 0.0209 0.57929 0.68758 0.0
H2915 H 0.95366 0.5975 0.71963 0.0
H2916 H 0.95172 0.55778 0.73889 0.0
H2917 H 0.02649 0.48747 0.8435 0.0
H2918 H 0.02259 0.48619 0.79985 0.0
H2919 H 0.95043 0.51255 0.80525 0.0
H2920 H 0.95418 0.51368 0.84913 0.0
H2921 H 0.98182 0.53728 0.77096 0.0
H2922 H 0.95495 0.45738 0.79157 0.0
H2923 H 0.95863 0.41847 0.81209 0.0
H2924 H 0.02498 0.40543 0.77585 0.0
H2925 H 0.02173 0.44428 0.75522 0.0
C2926 C 0.97324 0.51148 0.65656 0.0
C2927 C 0.99126 0.49798 0.6455 0.0
C2928 C 0.97143 0.5121 0.68154 0.0
C2929 C 0.988 0.49974 0.69587 0.0
C2930 C 0.00614 0.48648 0.68471 0.0
C2931 C 0.00767 0.48549 0.6598 0.0
C2932 C 0.98638 0.50015 0.72246 0.0
C2933 C 0.98725 0.47826 0.73481 0.0
C2934 C 0.98429 0.52174 0.73568 0.0
C2935 C 0.98533 0.5456 0.72407 0.0
C2936 C 0.00492 0.552 0.70964 0.0
C2937 C 0.00583 0.57451 0.69875 0.0
C2938 C 0.98734 0.59087 0.70232 0.0
C2939 C 0.96794 0.58479 0.71685 0.0
C2940 C 0.96693 0.56228 0.72777 0.0
C2941 C 0.00977 0.49292 0.83537 0.0
C2942 C 0.99063 0.50068 0.84961 0.0
C2943 C 0.00755 0.49211 0.8105 0.0
C2944 C 0.98621 0.49923 0.79941 0.0
C2945 C 0.96702 0.50697 0.81355 0.0
C2946 C 0.96912 0.50746 0.83852 0.0
C2947 C 0.98432 0.4989 0.77299 0.0
C2948 C 0.98279 0.52076 0.76077 0.0
C2949 C 0.98644 0.47737 0.75988 0.0
C2950 C 0.98815 0.45379 0.77195 0.0
C2951 C 0.97036 0.44624 0.78806 0.0
C2952 C 0.97235 0.42417 0.79967 0.0
C2953 C 0.99202 0.40946 0.79528 0.0
C2954 C 0.0097 0.41677 0.7792 0.0
C2955 C 0.00777 0.43879 0.76749 0.0
H2956 H 0.99355 0.39241 0.80434 0.0
H2957 H 0.98808 0.60827 0.69384 0.0
H2958 H 0.85004 0.97001 0.52568 0.0
H2959 H 0.80636 0.96757 0.52439 0.0
H2960 H 0.80523 0.01936 0.4671 0.0
H2961 H 0.84886 0.02216 0.46865 0.0
H2962 H 0.7733 0.0305 0.49953 0.0
H2963 H 0.7946 0.95809 0.45783 0.0
H2964 H 0.81492 0.9193 0.45279 0.0
H2965 H 0.77851 0.89159 0.51452 0.0
H2966 H 0.7582 0.93033 0.52011 0.0
H2967 H 0.65318 0.01918 0.46447 0.0
H2968 H 0.69665 0.01784 0.4651 0.0
H2969 H 0.69439 0.96607 0.52232 0.0
H2970 H 0.6507 0.96617 0.52083 0.0
H2971 H 0.72794 0.9544 0.49122 0.0
H2972 H 0.7063 0.02642 0.5327 0.0
H2973 H 0.68603 0.06519 0.53806 0.0
H2974 H 0.72332 0.09372 0.47724 0.0
H2975 H 0.74357 0.05499 0.47131 0.0
C2976 C 0.84046 0.98064 0.51262 0.0
C2977 C 0.85283 0.99627 0.49725 0.0
C2978 C 0.81551 0.97922 0.51188 0.0
C2979 C 0.80249 0.99311 0.49548 0.0
C2980 C 0.81487 0.00852 0.47994 0.0
C2981 C 0.83978 0.01012 0.48084 0.0
C2982 C 0.77593 0.99228 0.49502 0.0
C2983 C 0.7634 0.01388 0.49736 0.0
C2984 C 0.76297 0.97053 0.49295 0.0
C2985 C 0.77505 0.94718 0.48951 0.0
C2986 C 0.79105 0.94378 0.47042 0.0
C2987 C 0.80255 0.92179 0.46745 0.0
C2988 C 0.79806 0.90302 0.48336 0.0
C2989 C 0.782 0.90616 0.50223 0.0
C2990 C 0.77047 0.92812 0.50529 0.0
C2991 C 0.66182 0.00714 0.47692 0.0
C2992 C 0.64831 0.99279 0.49263 0.0
C2993 C 0.68676 0.00666 0.47748 0.0
C2994 C 0.69883 0.99221 0.49408 0.0
C2995 C 0.68547 0.97749 0.50947 0.0
C2996 C 0.66047 0.97776 0.50875 0.0
C2997 C 0.72535 0.99265 0.49545 0.0
C2998 C 0.73786 0.971 0.49337 0.0
C2999 C 0.73834 0.01437 0.49781 0.0
C3000 C 0.7263 0.03773 0.50145 0.0
C3001 C 0.71006 0.0409 0.52038 0.0
C3002 C 0.69859 0.06288 0.52353 0.0
C3003 C 0.70334 0.08189 0.50797 0.0
C3004 C 0.71964 0.07897 0.48926 0.0
C3005 C 0.73113 0.05702 0.48601 0.0
H3006 H 0.69444 0.09888 0.51044 0.0
H3007 H 0.80698 0.88601 0.48103 0.0
loop_
_geom_bond_atom_site_label_1
_geom_bond_atom_site_label_2
_geom_bond_distance
_geom_bond_site_symmetry_2
_ccdc_geom_bond_type
Li0 N17 1.990 . S
Li0 O60 1.956 . S
Li0 O61 1.970 . S
Li0 O62 1.961 . S
Li1 N25 1.990 . S
Li1 O60 1.970 . S
Li1 O61 1.956 . S
Li1 O63 1.961 . S
Li2 N47 1.990 . S
Li2 O60 1.961 . S
Li2 O62 1.956 . S
Li2 O63 1.970 . S
Li3 N53 1.990 . S
Li3 O61 1.961 . S
Li3 O62 1.970 . S
Li3 O63 1.956 . S
C4 C6 1.348 . S
C4 C7 1.356 . S
C4 O60 1.325 . S
N5 C8 1.314 . S
N5 C9 1.279 . S
C6 C4 1.348 . S
C6 C8 1.353 . S
C6 H64 0.929 . S
C7 C4 1.356 . S
C7 C9 1.358 . S
C7 H65 0.930 . S
C8 N5 1.314 . S
C8 C6 1.353 . S
C8 H66 0.930 . S
C9 N5 1.279 . S
C9 C7 1.358 . S
C9 H67 0.930 . S
C10 C13 1.348 . S
C10 C14 1.356 . S
C10 O61 1.325 . S
C11 N12 1.279 . S
C11 C14 1.358 . S
C11 H68 0.930 . S
N12 C11 1.279 . S
N12 C15 1.314 . S
C13 C10 1.348 . S
C13 C15 1.353 . S
C13 H69 0.929 . S
C14 C10 1.356 . S
C14 C11 1.358 . S
C14 H70 0.930 . S
C15 N12 1.314 . S
C15 C13 1.353 . S
C15 H71 0.930 . S
C16 N17 1.314 . S
C16 C21 1.353 . S
C16 H22 0.930 . S
N17 Li0 1.990 . S
N17 C16 1.314 . S
N17 C19 1.279 . S
C18 C19 1.358 . S
C18 C20 1.356 . S
C18 H72 0.930 . S
C19 N17 1.279 . S
C19 C18 1.358 . S
C19 H23 0.930 . S
C20 C18 1.356 . S
C20 C21 1.348 . S
C21 C16 1.353 . S
C21 C20 1.348 . S
C21 H73 0.929 . S
H22 C16 0.930 . S
H23 C19 0.930 . S
C24 N25 1.314 . S
C24 C26 1.353 . S
C24 H30 0.930 . S
N25 Li1 1.990 . S
N25 C24 1.314 . S
N25 C28 1.279 . S
C26 C24 1.353 . S
C26 C29 1.348 . S
C26 H74 0.929 . S
C27 C28 1.358 . S
C27 C29 1.356 . S
C27 H75 0.930 . S
C28 N25 1.279 . S
C28 C27 1.358 . S
C28 H31 0.930 . S
C29 C26 1.348 . S
C29 C27 1.356 . S
H30 C24 0.930 . S
H31 C28 0.930 . S
C32 C34 1.348 . S
C32 C35 1.356 . S
C32 O62 1.325 . S
N33 C36 1.314 . S
N33 C37 1.279 . S
C34 C32 1.348 . S
C34 C36 1.353 . S
C34 H76 0.929 . S
C35 C32 1.356 . S
C35 C37 1.358 . S
C35 H77 0.930 . S
C36 N33 1.314 . S
C36 C34 1.353 . S
C36 H78 0.930 . S
C37 N33 1.279 . S
C37 C35 1.358 . S
C37 H79 0.930 . S
C38 C39 1.348 . S
C38 C40 1.356 . S
C38 O63 1.325 . S
C39 C38 1.348 . S
C39 C41 1.353 . S
C39 H80 0.929 . S
C40 C38 1.356 . S
C40 C42 1.358 . S
C40 H81 0.930 . S
C41 C39 1.353 . S
C41 N43 1.314 . S
C41 H82 0.930 . S
C42 C40 1.358 . S
C42 N43 1.279 . S
C42 H83 0.930 . S
N43 C41 1.314 . S
N43 C42 1.279 . S
C44 C46 1.353 . S
C44 N47 1.314 . S
C44 H50 0.930 . S
C45 N47 1.279 . S
C45 C48 1.358 . S
C45 H51 0.930 . S
C46 C44 1.353 . S
C46 C49 1.348 . S
C46 H84 0.929 . S
N47 Li2 1.990 . S
N47 C44 1.314 . S
N47 C45 1.279 . S
C48 C45 1.358 . S
C48 C49 1.356 . S
C48 H85 0.930 . S
C49 C46 1.348 . S
C49 C48 1.356 . S
H50 C44 0.930 . S
H51 C45 0.930 . S
C52 N53 1.314 . S
C52 C54 1.353 . S
C52 H58 0.930 . S
N53 Li3 1.990 . S
N53 C52 1.314 . S
N53 C56 1.279 . S
C54 C52 1.353 . S
C54 C57 1.348 . S
C54 H86 0.929 . S
C55 C56 1.358 . S
C55 C57 1.356 . S
C55 H87 0.930 . S
C56 N53 1.279 . S
C56 C55 1.358 . S
C56 H59 0.930 . S
C57 C54 1.348 . S
C57 C55 1.356 . S
H58 C52 0.930 . S
H59 C56 0.930 . S
O60 Li0 1.956 . S
O60 Li1 1.970 . S
O60 Li2 1.961 . S
O60 C4 1.325 . S
O61 Li0 1.970 . S
O61 Li1 1.956 . S
O61 Li3 1.961 . S
O61 C10 1.325 . S
O62 Li0 1.961 . S
O62 Li2 1.956 . S
O62 Li3 1.970 . S
O62 C32 1.325 . S
O63 Li1 1.961 . S
O63 Li2 1.970 . S
O63 Li3 1.956 . S
O63 C38 1.325 . S
H64 C6 0.929 . S
H65 C7 0.930 . S
H66 C8 0.930 . S
H67 C9 0.930 . S
H68 C11 0.930 . S
H69 C13 0.929 . S
H70 C14 0.930 . S
H71 C15 0.930 . S
H72 C18 0.930 . S
H73 C21 0.929 . S
H74 C26 0.929 . S
H75 C27 0.930 . S
H76 C34 0.929 . S
H77 C35 0.930 . S
H78 C36 0.930 . S
H79 C37 0.930 . S
H80 C39 0.929 . S
H81 C40 0.930 . S
H82 C41 0.930 . S
H83 C42 0.930 . S
H84 C46 0.929 . S
H85 C48 0.930 . S
H86 C54 0.929 . S
H87 C55 0.930 . S
Li88 N105 1.990 . S
Li88 O148 1.956 . S
Li88 O149 1.970 . S
Li88 O150 1.961 1_655 S
Li89 N113 1.990 . S
Li89 O148 1.970 . S
Li89 O149 1.956 . S
Li89 O151 1.961 1_545 S
Li90 N135 1.990 . S
Li90 O148 1.961 . S
Li90 O150 1.956 1_655 S
Li90 O151 1.970 1_545 S
Li91 N141 1.990 1_645 S
Li91 O149 1.961 . S
Li91 O150 1.970 1_655 S
Li91 O151 1.956 1_545 S
C92 C94 1.348 . S
C92 C95 1.356 . S
C92 O148 1.325 . S
N93 C96 1.314 . S
N93 C97 1.279 . S
C94 C92 1.348 . S
C94 C96 1.353 . S
C94 H152 0.929 . S
C95 C92 1.356 . S
C95 C97 1.358 . S
C95 H153 0.930 . S
C96 N93 1.314 . S
C96 C94 1.353 . S
C96 H154 0.930 . S
C97 N93 1.279 . S
C97 C95 1.358 . S
C97 H155 0.930 . S
C98 C101 1.348 . S
C98 C102 1.356 . S
C98 O149 1.325 . S
C99 N100 1.279 . S
C99 C102 1.358 . S
C99 H156 0.930 . S
N100 C99 1.279 . S
N100 C103 1.314 . S
C101 C98 1.348 . S
C101 C103 1.353 . S
C101 H157 0.929 . S
C102 C98 1.356 . S
C102 C99 1.358 . S
C102 H158 0.930 . S
C103 N100 1.314 . S
C103 C101 1.353 . S
C103 H159 0.930 . S
C104 N105 1.314 1_455 S
C104 C109 1.353 . S
C104 H110 0.930 . S
N105 Li88 1.990 . S
N105 C104 1.314 1_655 S
N105 C107 1.279 . S
C106 C107 1.358 . S
C106 C108 1.356 1_655 S
C106 H160 0.930 . S
C107 N105 1.279 . S
C107 C106 1.358 . S
C107 H111 0.930 . S
C108 C106 1.356 1_455 S
C108 C109 1.348 . S
C109 C104 1.353 . S
C109 C108 1.348 . S
C109 H161 0.929 . S
H110 C104 0.930 . S
H111 C107 0.930 . S
C112 N113 1.314 1_565 S
C112 C114 1.353 . S
C112 H118 0.930 . S
N113 Li89 1.990 . S
N113 C112 1.314 1_545 S
N113 C116 1.279 . S
C114 C112 1.353 . S
C114 C117 1.348 1_565 S
C114 H162 0.929 . S
C115 C116 1.358 . S
C115 C117 1.356 . S
C115 H163 0.930 . S
C116 N113 1.279 . S
C116 C115 1.358 . S
C116 H119 0.930 . S
C117 C114 1.348 1_545 S
C117 C115 1.356 . S
H118 C112 0.930 . S
H119 C116 0.930 . S
C120 C122 1.348 . S
C120 C123 1.356 . S
C120 O150 1.325 . S
N121 C124 1.314 . S
N121 C125 1.279 . S
C122 C120 1.348 . S
C122 C124 1.353 . S
C122 H164 0.896 1_545 S
C123 C120 1.356 . S
C123 C125 1.358 . S
C123 H165 0.930 . S
C124 N121 1.314 . S
C124 C122 1.353 . S
C124 H166 0.930 . S
C125 N121 1.279 . S
C125 C123 1.358 . S
C125 H167 0.930 . S
C126 C127 1.348 . S
C126 C128 1.356 . S
C126 O151 1.325 . S
C127 C126 1.348 . S
C127 C129 1.353 . S
C127 H168 0.929 . S
C128 C126 1.356 . S
C128 C130 1.358 . S
C128 H169 0.930 . S
C129 C127 1.353 . S
C129 N131 1.314 . S
C129 H170 0.930 . S
C130 C128 1.358 . S
C130 N131 1.279 . S
C130 H171 0.930 . S
N131 C129 1.314 . S
N131 C130 1.279 . S
C132 C134 1.353 1_545 S
C132 N135 1.314 . S
C132 H138 0.930 . S
C133 N135 1.279 1_455 S
C133 C136 1.358 1_545 S
C133 H139 0.930 . S
C134 C132 1.353 1_565 S
C134 C137 1.348 . S
C134 H172 0.929 . S
N135 Li90 1.990 . S
N135 C132 1.314 . S
N135 C133 1.279 1_655 S
C136 C133 1.358 1_565 S
C136 C137 1.356 1_455 S
C136 H173 0.930 . S
C137 C134 1.348 . S
C137 C136 1.356 1_655 S
H138 C132 0.930 . S
H139 C133 0.930 . S
C140 N141 1.314 . S
C140 C142 1.353 . S
C140 H146 0.930 1_565 S
N141 Li91 1.990 1_465 S
N141 C140 1.314 . S
N141 C144 1.279 . S
C142 C140 1.353 . S
C142 C145 1.348 . S
C142 H174 0.929 . S
C143 C144 1.358 . S
C143 C145 1.356 . S
C143 H175 0.930 . S
C144 N141 1.279 . S
C144 C143 1.358 . S
C144 H147 0.930 . S
C145 C142 1.348 . S
C145 C143 1.356 . S
H146 C140 0.930 1_545 S
H147 C144 0.930 . S
O148 Li88 1.956 . S
O148 Li89 1.970 . S
O148 Li90 1.961 . S
O148 C92 1.325 . S
O149 Li88 1.970 . S
O149 Li89 1.956 . S
O149 Li91 1.961 . S
O149 C98 1.325 . S
O150 Li88 1.961 1_455 S
O150 Li90 1.956 1_455 S
O150 Li91 1.970 1_455 S
O150 C120 1.325 . S
O151 Li89 1.961 1_565 S
O151 Li90 1.970 1_565 S
O151 Li91 1.956 1_565 S
O151 C126 1.325 . S
H152 C94 0.929 . S
H153 C95 0.930 . S
H154 C96 0.930 . S
H155 C97 0.930 . S
H156 C99 0.930 . S
H157 C101 0.929 . S
H158 C102 0.930 . S
H159 C103 0.930 . S
H160 C106 0.930 . S
H161 C109 0.929 . S
H162 C114 0.929 . S
H163 C115 0.930 . S
H164 C122 0.896 1_565 S
H165 C123 0.930 . S
H166 C124 0.930 . S
H167 C125 0.930 . S
H168 C127 0.929 . S
H169 C128 0.930 . S
H170 C129 0.930 . S
H171 C130 0.930 . S
H172 C134 0.929 . S
H173 C136 0.930 . S
H174 C142 0.929 . S
H175 C143 0.930 . S
Li176 N193 1.990 . S
Li176 O236 1.956 . S
Li176 O237 1.970 . S
Li176 O238 1.961 . S
Li177 N201 1.990 . S
Li177 O236 1.970 . S
Li177 O237 1.956 . S
Li177 O239 1.961 . S
Li178 N223 1.990 . S
Li178 O236 1.961 . S
Li178 O238 1.956 . S
Li178 O239 1.970 . S
Li179 N229 1.990 . S
Li179 O237 1.961 . S
Li179 O238 1.970 . S
Li179 O239 1.956 . S
C180 C182 1.348 . S
C180 C183 1.356 . S
C180 O236 1.325 . S
N181 C184 1.314 . S
N181 C185 1.279 . S
C182 C180 1.348 . S
C182 C184 1.353 . S
C182 H240 0.929 . S
C183 C180 1.356 . S
C183 C185 1.358 . S
C183 H241 0.930 . S
C184 N181 1.314 . S
C184 C182 1.353 . S
C184 H242 0.930 . S
C185 N181 1.279 . S
C185 C183 1.358 . S
C185 H243 0.930 . S
C186 C189 1.348 . S
C186 C190 1.356 . S
C186 O237 1.325 . S
C187 N188 1.279 . S
C187 C190 1.358 . S
C187 H244 0.930 . S
N188 C187 1.279 . S
N188 C191 1.314 . S
C189 C186 1.348 . S
C189 C191 1.353 . S
C189 H245 0.929 . S
C190 C186 1.356 . S
C190 C187 1.358 . S
C190 H246 0.930 . S
C191 N188 1.314 . S
C191 C189 1.353 . S
C191 H247 0.930 . S
C192 N193 1.314 . S
C192 C197 1.353 . S
C192 H198 0.930 . S
N193 Li176 1.990 . S
N193 C192 1.314 . S
N193 C195 1.279 . S
C194 C195 1.358 . S
C194 C196 1.356 . S
C194 H248 0.930 . S
C195 N193 1.279 . S
C195 C194 1.358 . S
C195 H199 0.930 . S
C196 C194 1.356 . S
C196 C197 1.348 . S
C197 C192 1.353 . S
C197 C196 1.348 . S
C197 H249 0.929 . S
H198 C192 0.930 . S
H199 C195 0.930 . S
C200 N201 1.314 . S
C200 C202 1.353 . S
C200 H206 0.930 . S
N201 Li177 1.990 . S
N201 C200 1.314 . S
N201 C204 1.279 . S
C202 C200 1.353 . S
C202 C205 1.348 . S
C202 H250 0.929 . S
C203 C204 1.358 . S
C203 C205 1.356 . S
C203 H251 0.930 . S
C204 N201 1.279 . S
C204 C203 1.358 . S
C204 H207 0.930 . S
C205 C202 1.348 . S
C205 C203 1.356 . S
H206 C200 0.930 . S
H207 C204 0.930 . S
C208 C210 1.348 . S
C208 C211 1.356 . S
C208 O238 1.325 . S
N209 C212 1.314 . S
N209 C213 1.279 . S
C210 C208 1.348 . S
C210 C212 1.353 . S
C210 H252 0.929 . S
C211 C208 1.356 . S
C211 C213 1.358 . S
C211 H253 0.930 . S
C212 N209 1.314 . S
C212 C210 1.353 . S
C212 H254 0.930 . S
C213 N209 1.279 . S
C213 C211 1.358 . S
C213 H255 0.930 . S
C214 C215 1.348 . S
C214 C216 1.356 . S
C214 O239 1.325 . S
C215 C214 1.348 . S
C215 C217 1.353 . S
C215 H256 0.929 . S
C216 C214 1.356 . S
C216 C218 1.358 . S
C216 H257 0.930 . S
C217 C215 1.353 . S
C217 N219 1.314 . S
C217 H258 0.930 . S
C218 C216 1.358 . S
C218 N219 1.279 . S
C218 H259 0.930 . S
N219 C217 1.314 . S
N219 C218 1.279 . S
C220 C222 1.353 . S
C220 N223 1.314 . S
C220 H226 0.930 . S
C221 N223 1.279 . S
C221 C224 1.358 . S
C221 H227 0.930 . S
C222 C220 1.353 . S
C222 C225 1.348 . S
C222 H260 0.929 . S
N223 Li178 1.990 . S
N223 C220 1.314 . S
N223 C221 1.279 . S
C224 C221 1.358 . S
C224 C225 1.356 . S
C224 H261 0.930 . S
C225 C222 1.348 . S
C225 C224 1.356 . S
H226 C220 0.930 . S
H227 C221 0.930 . S
C228 N229 1.314 . S
C228 C230 1.353 . S
C228 H234 0.930 . S
N229 Li179 1.990 . S
N229 C228 1.314 . S
N229 C232 1.279 . S
C230 C228 1.353 . S
C230 C233 1.348 . S
C230 H262 0.929 . S
C231 C232 1.358 . S
C231 C233 1.356 . S
C231 H263 0.930 . S
C232 N229 1.279 . S
C232 C231 1.358 . S
C232 H235 0.930 . S
C233 C230 1.348 . S
C233 C231 1.356 . S
H234 C228 0.930 . S
H235 C232 0.930 . S
O236 Li176 1.956 . S
O236 Li177 1.970 . S
O236 Li178 1.961 . S
O236 C180 1.325 . S
O237 Li176 1.970 . S
O237 Li177 1.956 . S
O237 Li179 1.961 . S
O237 C186 1.325 . S
O238 Li176 1.961 . S
O238 Li178 1.956 . S
O238 Li179 1.970 . S
O238 C208 1.325 . S
O239 Li177 1.961 . S
O239 Li178 1.970 . S
O239 Li179 1.956 . S
O239 C214 1.325 . S
H240 C182 0.929 . S
H241 C183 0.930 . S
H242 C184 0.930 . S
H243 C185 0.930 . S
H244 C187 0.930 . S
H245 C189 0.929 . S
H246 C190 0.930 . S
H247 C191 0.930 . S
H248 C194 0.930 . S
H249 C197 0.929 . S
H250 C202 0.929 . S
H251 C203 0.930 . S
H252 C210 0.929 . S
H253 C211 0.930 . S
H254 C212 0.930 . S
H255 C213 0.930 . S
H256 C215 0.929 . S
H257 C216 0.930 . S
H258 C217 0.930 . S
H259 C218 0.930 . S
H260 C222 0.929 . S
H261 C224 0.930 . S
H262 C230 0.929 . S
H263 C231 0.930 . S
Li264 N281 1.990 . S
Li264 O324 1.956 . S
Li264 O325 1.970 . S
Li264 O326 1.961 1_565 S
Li265 N289 1.990 . S
Li265 O324 1.970 . S
Li265 O325 1.956 . S
Li265 O327 1.961 1_554 S
Li266 N311 1.990 . S
Li266 O324 1.961 . S
Li266 O326 1.956 1_565 S
Li266 O327 1.970 1_554 S
Li267 N317 1.990 1_564 S
Li267 O325 1.961 . S
Li267 O326 1.970 1_565 S
Li267 O327 1.956 1_554 S
C268 C270 1.348 . S
C268 C271 1.356 . S
C268 O324 1.325 . S
N269 C272 1.314 . S
N269 C273 1.279 . S
C270 C268 1.348 . S
C270 C272 1.353 . S
C270 H328 0.929 . S
C271 C268 1.356 . S
C271 C273 1.358 . S
C271 H329 0.930 . S
C272 N269 1.314 . S
C272 C270 1.353 . S
C272 H330 0.930 . S
C273 N269 1.279 . S
C273 C271 1.358 . S
C273 H331 0.930 . S
C274 C277 1.348 . S
C274 C278 1.356 . S
C274 O325 1.325 . S
C275 N276 1.279 . S
C275 C278 1.358 . S
C275 H332 0.930 . S
N276 C275 1.279 . S
N276 C279 1.314 . S
C277 C274 1.348 . S
C277 C279 1.353 . S
C277 H333 0.929 . S
C278 C274 1.356 . S
C278 C275 1.358 . S
C278 H334 0.931 . S
C279 N276 1.314 . S
C279 C277 1.353 . S
C279 H335 0.930 . S
C280 N281 1.314 1_545 S
C280 C285 1.353 . S
C280 H286 0.930 . S
N281 Li264 1.990 . S
N281 C280 1.314 1_565 S
N281 C283 1.279 . S
C282 C283 1.358 . S
C282 C284 1.356 1_565 S
C282 H336 0.930 . S
C283 N281 1.279 . S
C283 C282 1.358 . S
C283 H287 0.930 . S
C284 C282 1.356 1_545 S
C284 C285 1.348 . S
C285 C280 1.353 . S
C285 C284 1.348 . S
C285 H337 0.929 . S
H286 C280 0.930 . S
H287 C283 0.930 . S
C288 N289 1.314 1_556 S
C288 C290 1.353 . S
C288 H294 0.930 . S
N289 Li265 1.990 . S
N289 C288 1.314 1_554 S
N289 C292 1.279 . S
C290 C288 1.353 . S
C290 C293 1.348 1_556 S
C290 H338 0.929 . S
C291 C292 1.358 . S
C291 C293 1.356 . S
C291 H339 0.930 . S
C292 N289 1.279 . S
C292 C291 1.358 . S
C292 H295 0.930 . S
C293 C290 1.348 1_554 S
C293 C291 1.356 . S
H294 C288 0.930 . S
H295 C292 0.930 . S
C296 C298 1.348 . S
C296 C299 1.356 . S
C296 O326 1.325 . S
N297 C300 1.314 . S
N297 C301 1.279 . S
C298 C296 1.348 . S
C298 C300 1.353 . S
C298 H340 0.929 1_554 S
C299 C296 1.356 . S
C299 C301 1.358 . S
C299 H341 0.930 . S
C300 N297 1.314 . S
C300 C298 1.353 . S
C300 H342 0.930 . S
C301 N297 1.279 . S
C301 C299 1.358 . S
C301 H343 0.930 . S
C302 C303 1.348 . S
C302 C304 1.356 . S
C302 O327 1.325 . S
C303 C302 1.348 . S
C303 C305 1.353 . S
C303 H344 0.929 . S
C304 C302 1.356 . S
C304 C306 1.358 . S
C304 H345 0.930 . S
C305 C303 1.353 . S
C305 N307 1.314 . S
C305 H346 0.930 . S
C306 C304 1.358 . S
C306 N307 1.279 . S
C306 H347 0.930 . S
N307 C305 1.314 . S
N307 C306 1.279 . S
C308 C310 1.353 1_554 S
C308 N311 1.314 . S
C308 H314 0.930 . S
C309 N311 1.279 1_545 S
C309 C312 1.358 1_554 S
C309 H315 0.930 . S
C310 C308 1.353 1_556 S
C310 C313 1.348 . S
C310 H348 0.929 . S
N311 Li266 1.990 . S
N311 C308 1.314 . S
N311 C309 1.279 1_565 S
C312 C309 1.358 1_556 S
C312 C313 1.356 1_545 S
C312 H349 0.930 . S
C313 C310 1.348 . S
C313 C312 1.356 1_565 S
H314 C308 0.930 . S
H315 C309 0.930 . S
C316 N317 1.314 . S
C316 C318 1.353 . S
C316 H322 0.930 1_556 S
N317 Li267 1.990 1_546 S
N317 C316 1.314 . S
N317 C320 1.279 . S
C318 C316 1.353 . S
C318 C321 1.348 . S
C318 H350 0.929 . S
C319 C320 1.358 . S
C319 C321 1.356 . S
C319 H351 0.930 . S
C320 N317 1.279 . S
C320 C319 1.358 . S
C320 H323 0.930 . S
C321 C318 1.348 . S
C321 C319 1.356 . S
H322 C316 0.930 1_554 S
H323 C320 0.930 . S
O324 Li264 1.956 . S
O324 Li265 1.970 . S
O324 Li266 1.961 . S
O324 C268 1.325 . S
O325 Li264 1.970 . S
O325 Li265 1.956 . S
O325 Li267 1.961 . S
O325 C274 1.325 . S
O326 Li264 1.961 1_545 S
O326 Li266 1.956 1_545 S
O326 Li267 1.970 1_545 S
O326 C296 1.325 . S
O327 Li265 1.961 1_556 S
O327 Li266 1.970 1_556 S
O327 Li267 1.956 1_556 S
O327 C302 1.325 . S
H328 C270 0.929 . S
H329 C271 0.930 . S
H330 C272 0.930 . S
H331 C273 0.930 . S
H332 C275 0.930 . S
H333 C277 0.929 . S
H334 C278 0.931 . S
H335 C279 0.930 . S
H336 C282 0.930 . S
H337 C285 0.929 . S
H338 C290 0.929 . S
H339 C291 0.930 . S
H340 C298 0.929 1_556 S
H341 C299 0.930 . S
H342 C300 0.930 . S
H343 C301 0.930 . S
H344 C303 0.929 . S
H345 C304 0.930 . S
H346 C305 0.930 . S
H347 C306 0.930 . S
H348 C310 0.929 . S
H349 C312 0.930 . S
H350 C318 0.929 . S
H351 C319 0.930 . S
Li352 N369 1.990 . S
Li352 O412 1.956 . S
Li352 O413 1.970 . S
Li352 O414 1.961 . S
Li353 N377 1.990 . S
Li353 O412 1.970 . S
Li353 O413 1.956 . S
Li353 O415 1.961 . S
Li354 N399 1.990 . S
Li354 O412 1.961 . S
Li354 O414 1.956 . S
Li354 O415 1.970 . S
Li355 N405 1.990 . S
Li355 O413 1.961 . S
Li355 O414 1.970 . S
Li355 O415 1.956 . S
C356 C358 1.348 . S
C356 C359 1.356 . S
C356 O412 1.325 . S
N357 C360 1.314 . S
N357 C361 1.279 . S
C358 C356 1.348 . S
C358 C360 1.353 . S
C358 H416 0.929 . S
C359 C356 1.356 . S
C359 C361 1.358 . S
C359 H417 0.930 . S
C360 N357 1.314 . S
C360 C358 1.353 . S
C360 H418 0.930 . S
C361 N357 1.279 . S
C361 C359 1.358 . S
C361 H419 0.930 . S
C362 C365 1.348 . S
C362 C366 1.356 . S
C362 O413 1.325 . S
C363 N364 1.279 . S
C363 C366 1.358 . S
C363 H420 0.930 . S
N364 C363 1.279 . S
N364 C367 1.314 . S
C365 C362 1.348 . S
C365 C367 1.353 . S
C365 H421 0.929 . S
C366 C362 1.356 . S
C366 C363 1.358 . S
C366 H422 0.930 . S
C367 N364 1.314 . S
C367 C365 1.353 . S
C367 H423 0.930 . S
C368 N369 1.314 . S
C368 C373 1.353 . S
C368 H374 0.930 . S
N369 Li352 1.990 . S
N369 C368 1.314 . S
N369 C371 1.279 . S
C370 C371 1.358 . S
C370 C372 1.356 . S
C370 H424 0.930 . S
C371 N369 1.279 . S
C371 C370 1.358 . S
C371 H375 0.930 . S
C372 C370 1.356 . S
C372 C373 1.348 . S
C373 C368 1.353 . S
C373 C372 1.348 . S
C373 H425 0.929 . S
H374 C368 0.930 . S
H375 C371 0.930 . S
C376 N377 1.314 . S
C376 C378 1.353 . S
C376 H382 0.930 . S
N377 Li353 1.990 . S
N377 C376 1.314 . S
N377 C380 1.279 . S
C378 C376 1.353 . S
C378 C381 1.348 . S
C378 H426 0.929 . S
C379 C380 1.358 . S
C379 C381 1.356 . S
C379 H427 0.930 . S
C380 N377 1.279 . S
C380 C379 1.358 . S
C380 H383 0.930 . S
C381 C378 1.348 . S
C381 C379 1.356 . S
H382 C376 0.930 . S
H383 C380 0.930 . S
C384 C386 1.348 . S
C384 C387 1.356 . S
C384 O414 1.325 . S
N385 C388 1.314 . S
N385 C389 1.279 . S
C386 C384 1.348 . S
C386 C388 1.353 . S
C386 H428 0.929 . S
C387 C384 1.356 . S
C387 C389 1.358 . S
C387 H429 0.930 . S
C388 N385 1.314 . S
C388 C386 1.353 . S
C388 H430 0.930 . S
C389 N385 1.279 . S
C389 C387 1.358 . S
C389 H431 0.930 . S
C390 C391 1.348 . S
C390 C392 1.356 . S
C390 O415 1.325 . S
C391 C390 1.348 . S
C391 C393 1.353 . S
C391 H432 0.929 . S
C392 C390 1.356 . S
C392 C394 1.358 . S
C392 H433 0.930 . S
C393 C391 1.353 . S
C393 N395 1.314 . S
C393 H434 0.930 . S
C394 C392 1.358 . S
C394 N395 1.279 . S
C394 H435 0.930 . S
N395 C393 1.314 . S
N395 C394 1.279 . S
C396 C398 1.353 . S
C396 N399 1.314 . S
C396 H402 0.930 . S
C397 N399 1.279 . S
C397 C400 1.358 . S
C397 H403 0.930 . S
C398 C396 1.353 . S
C398 C401 1.348 . S
C398 H436 0.929 . S
N399 Li354 1.990 . S
N399 C396 1.314 . S
N399 C397 1.279 . S
C400 C397 1.358 . S
C400 C401 1.356 . S
C400 H437 0.930 . S
C401 C398 1.348 . S
C401 C400 1.356 . S
H402 C396 0.930 . S
H403 C397 0.930 . S
C404 N405 1.314 . S
C404 C406 1.353 . S
C404 H410 0.930 . S
N405 Li355 1.990 . S
N405 C404 1.314 . S
N405 C408 1.279 . S
C406 C404 1.353 . S
C406 C409 1.348 . S
C406 H438 0.929 . S
C407 C408 1.358 . S
C407 C409 1.356 . S
C407 H439 0.930 . S
C408 N405 1.279 . S
C408 C407 1.358 . S
C408 H411 0.930 . S
C409 C406 1.348 . S
C409 C407 1.356 . S
H410 C404 0.930 . S
H411 C408 0.930 . S
O412 Li352 1.956 . S
O412 Li353 1.970 . S
O412 Li354 1.961 . S
O412 C356 1.325 . S
O413 Li352 1.970 . S
O413 Li353 1.956 . S
O413 Li355 1.961 . S
O413 C362 1.325 . S
O414 Li352 1.961 . S
O414 Li354 1.956 . S
O414 Li355 1.970 . S
O414 C384 1.325 . S
O415 Li353 1.961 . S
O415 Li354 1.970 . S
O415 Li355 1.956 . S
O415 C390 1.325 . S
H416 C358 0.929 . S
H417 C359 0.930 . S
H418 C360 0.930 . S
H419 C361 0.930 . S
H420 C363 0.930 . S
H421 C365 0.929 . S
H422 C366 0.930 . S
H423 C367 0.930 . S
H424 C370 0.930 . S
H425 C373 0.929 . S
H426 C378 0.929 . S
H427 C379 0.930 . S
H428 C386 0.929 . S
H429 C387 0.930 . S
H430 C388 0.930 . S
H431 C389 0.930 . S
H432 C391 0.929 . S
H433 C392 0.930 . S
H434 C393 0.930 . S
H435 C394 0.930 . S
H436 C398 0.929 . S
H437 C400 0.930 . S
H438 C406 0.929 . S
H439 C407 0.930 . S
Li440 N457 1.990 . S
Li440 O500 1.956 . S
Li440 O501 1.970 . S
Li440 O502 1.961 1_545 S
Li441 N465 1.990 . S
Li441 O500 1.970 . S
Li441 O501 1.956 . S
Li441 O503 1.961 . S
Li442 N487 1.990 1_545 S
Li442 O500 1.961 . S
Li442 O502 1.956 1_545 S
Li442 O503 1.970 . S
Li443 N493 1.990 . S
Li443 O501 1.961 . S
Li443 O502 1.970 1_545 S
Li443 O503 1.956 . S
C444 C446 1.348 . S
C444 C447 1.356 . S
C444 O500 1.325 . S
N445 C448 1.314 . S
N445 C449 1.279 . S
C446 C444 1.348 . S
C446 C448 1.353 . S
C446 H504 0.929 . S
C447 C444 1.356 . S
C447 C449 1.358 . S
C447 H505 0.930 . S
C448 N445 1.314 . S
C448 C446 1.353 . S
C448 H506 0.930 . S
C449 N445 1.279 . S
C449 C447 1.358 . S
C449 H507 0.930 . S
C450 C453 1.348 . S
C450 C454 1.356 . S
C450 O501 1.325 . S
C451 N452 1.279 . S
C451 C454 1.358 . S
C451 H508 0.930 . S
N452 C451 1.279 . S
N452 C455 1.314 . S
C453 C450 1.348 . S
C453 C455 1.353 . S
C453 H509 0.929 . S
C454 C450 1.356 . S
C454 C451 1.358 . S
C454 H510 0.930 . S
C455 N452 1.314 . S
C455 C453 1.353 . S
C455 H511 0.930 . S
C456 N457 1.314 1_565 S
C456 C461 1.353 . S
C456 H462 0.930 . S
N457 Li440 1.990 . S
N457 C456 1.314 1_545 S
N457 C459 1.279 . S
C458 C459 1.358 . S
C458 C460 1.356 . S
C458 H512 0.930 . S
C459 N457 1.279 . S
C459 C458 1.358 . S
C459 H463 0.930 . S
C460 C458 1.356 . S
C460 C461 1.348 1_545 S
C461 C456 1.353 . S
C461 C460 1.348 1_565 S
C461 H513 0.929 . S
H462 C456 0.930 . S
H463 C459 0.930 . S
C464 N465 1.314 . S
C464 C466 1.353 . S
C464 H470 0.930 . S
N465 Li441 1.990 . S
N465 C464 1.314 . S
N465 C468 1.279 . S
C466 C464 1.353 . S
C466 C469 1.348 . S
C466 H514 0.929 . S
C467 C468 1.358 . S
C467 C469 1.356 . S
C467 H515 0.930 . S
C468 N465 1.279 . S
C468 C467 1.358 . S
C468 H471 0.930 . S
C469 C466 1.348 . S
C469 C467 1.356 . S
H470 C464 0.930 . S
H471 C468 0.930 . S
C472 C474 1.348 . S
C472 C475 1.356 . S
C472 O502 1.325 . S
N473 C476 1.314 . S
N473 C477 1.279 . S
C474 C472 1.348 . S
C474 C476 1.353 . S
C474 H516 0.929 . S
C475 C472 1.356 . S
C475 C477 1.358 . S
C475 H517 0.930 . S
C476 N473 1.314 . S
C476 C474 1.353 . S
C476 H518 0.930 . S
C477 N473 1.279 . S
C477 C475 1.358 . S
C477 H519 0.930 . S
C478 C479 1.348 . S
C478 C480 1.356 . S
C478 O503 1.325 . S
C479 C478 1.348 . S
C479 C481 1.353 . S
C479 H520 0.929 1_545 S
C480 C478 1.356 . S
C480 C482 1.358 . S
C480 H521 0.930 . S
C481 C479 1.353 . S
C481 N483 1.314 . S
C481 H522 0.930 . S
C482 C480 1.358 . S
C482 N483 1.279 . S
C482 H523 0.930 . S
N483 C481 1.314 . S
N483 C482 1.279 . S
C484 C486 1.353 . S
C484 N487 1.314 . S
C484 H490 0.930 1_565 S
C485 N487 1.279 . S
C485 C488 1.358 . S
C485 H491 0.930 . S
C486 C484 1.353 . S
C486 C489 1.348 . S
C486 H524 0.929 . S
N487 Li442 1.990 1_565 S
N487 C484 1.314 . S
N487 C485 1.279 . S
C488 C485 1.358 . S
C488 C489 1.356 . S
C488 H525 0.930 . S
C489 C486 1.348 . S
C489 C488 1.356 . S
H490 C484 0.930 1_545 S
H491 C485 0.930 . S
C492 N493 1.314 . S
C492 C494 1.353 1_545 S
C492 H498 0.930 . S
N493 Li443 1.990 . S
N493 C492 1.314 . S
N493 C496 1.279 . S
C494 C492 1.353 1_565 S
C494 C497 1.348 . S
C494 H526 0.929 . S
C495 C496 1.358 1_565 S
C495 C497 1.356 . S
C495 H527 0.930 . S
C496 N493 1.279 . S
C496 C495 1.358 1_545 S
C496 H499 0.930 . S
C497 C494 1.348 . S
C497 C495 1.356 . S
H498 C492 0.930 . S
H499 C496 0.930 . S
O500 Li440 1.956 . S
O500 Li441 1.970 . S
O500 Li442 1.961 . S
O500 C444 1.325 . S
O501 Li440 1.970 . S
O501 Li441 1.956 . S
O501 Li443 1.961 . S
O501 C450 1.325 . S
O502 Li440 1.961 1_565 S
O502 Li442 1.956 1_565 S
O502 Li443 1.970 1_565 S
O502 C472 1.325 . S
O503 Li441 1.961 . S
O503 Li442 1.970 . S
O503 Li443 1.956 . S
O503 C478 1.325 . S
H504 C446 0.929 . S
H505 C447 0.930 . S
H506 C448 0.930 . S
H507 C449 0.930 . S
H508 C451 0.930 . S
H509 C453 0.929 . S
H510 C454 0.930 . S
H511 C455 0.930 . S
H512 C458 0.930 . S
H513 C461 0.929 . S
H514 C466 0.929 . S
H515 C467 0.930 . S
H516 C474 0.929 . S
H517 C475 0.930 . S
H518 C476 0.930 . S
H519 C477 0.930 . S
H520 C479 0.929 1_565 S
H521 C480 0.930 . S
H522 C481 0.930 . S
H523 C482 0.930 . S
H524 C486 0.929 . S
H525 C488 0.930 . S
H526 C494 0.929 . S
H527 C495 0.930 . S
Li528 N545 1.990 . S
Li528 O588 1.956 . S
Li528 O589 1.970 . S
Li528 O590 1.961 . S
Li529 N553 1.990 . S
Li529 O588 1.970 . S
Li529 O589 1.956 . S
Li529 O591 1.961 . S
Li530 N575 1.990 . S
Li530 O588 1.961 . S
Li530 O590 1.956 . S
Li530 O591 1.970 . S
Li531 N581 1.990 . S
Li531 O589 1.961 . S
Li531 O590 1.970 . S
Li531 O591 1.956 . S
C532 C534 1.348 . S
C532 C535 1.356 . S
C532 O588 1.325 . S
N533 C536 1.314 . S
N533 C537 1.279 . S
C534 C532 1.348 . S
C534 C536 1.353 . S
C534 H592 0.929 . S
C535 C532 1.356 . S
C535 C537 1.358 . S
C535 H593 0.930 . S
C536 N533 1.314 . S
C536 C534 1.353 . S
C536 H594 0.930 . S
C537 N533 1.279 . S
C537 C535 1.358 . S
C537 H595 0.930 . S
C538 C541 1.348 . S
C538 C542 1.356 . S
C538 O589 1.325 . S
C539 N540 1.279 . S
C539 C542 1.358 . S
C539 H596 0.930 . S
N540 C539 1.279 . S
N540 C543 1.314 . S
C541 C538 1.348 . S
C541 C543 1.353 . S
C541 H597 0.929 . S
C542 C538 1.356 . S
C542 C539 1.358 . S
C542 H598 0.930 . S
C543 N540 1.314 . S
C543 C541 1.353 . S
C543 H599 0.930 . S
C544 N545 1.314 . S
C544 C549 1.353 . S
C544 H550 0.930 . S
N545 Li528 1.990 . S
N545 C544 1.314 . S
N545 C547 1.279 . S
C546 C547 1.358 . S
C546 C548 1.356 . S
C546 H600 0.930 . S
C547 N545 1.279 . S
C547 C546 1.358 . S
C547 H551 0.930 . S
C548 C546 1.356 . S
C548 C549 1.348 . S
C549 C544 1.353 . S
C549 C548 1.348 . S
C549 H601 0.929 . S
H550 C544 0.930 . S
H551 C547 0.930 . S
C552 N553 1.314 . S
C552 C554 1.353 . S
C552 H558 0.930 . S
N553 Li529 1.990 . S
N553 C552 1.314 . S
N553 C556 1.279 . S
C554 C552 1.353 . S
C554 C557 1.348 . S
C554 H602 0.929 . S
C555 C556 1.358 . S
C555 C557 1.356 . S
C555 H603 0.930 . S
C556 N553 1.279 . S
C556 C555 1.358 . S
C556 H559 0.930 . S
C557 C554 1.348 . S
C557 C555 1.356 . S
H558 C552 0.930 . S
H559 C556 0.930 . S
C560 C562 1.348 . S
C560 C563 1.356 . S
C560 O590 1.325 . S
N561 C564 1.314 . S
N561 C565 1.279 . S
C562 C560 1.348 . S
C562 C564 1.353 . S
C562 H604 0.929 . S
C563 C560 1.356 . S
C563 C565 1.358 . S
C563 H605 0.930 . S
C564 N561 1.314 . S
C564 C562 1.353 . S
C564 H606 0.930 . S
C565 N561 1.279 . S
C565 C563 1.358 . S
C565 H607 0.930 . S
C566 C567 1.348 . S
C566 C568 1.356 . S
C566 O591 1.325 . S
C567 C566 1.348 . S
C567 C569 1.353 . S
C567 H608 0.929 . S
C568 C566 1.356 . S
C568 C570 1.358 . S
C568 H609 0.930 . S
C569 C567 1.353 . S
C569 N571 1.314 . S
C569 H610 0.930 . S
C570 C568 1.358 . S
C570 N571 1.279 . S
C570 H611 0.930 . S
N571 C569 1.314 . S
N571 C570 1.279 . S
C572 C574 1.353 . S
C572 N575 1.314 . S
C572 H578 0.930 . S
C573 N575 1.279 . S
C573 C576 1.358 . S
C573 H579 0.930 . S
C574 C572 1.353 . S
C574 C577 1.348 . S
C574 H612 0.929 . S
N575 Li530 1.990 . S
N575 C572 1.314 . S
N575 C573 1.279 . S
C576 C573 1.358 . S
C576 C577 1.356 . S
C576 H613 0.930 . S
C577 C574 1.348 . S
C577 C576 1.356 . S
H578 C572 0.930 . S
H579 C573 0.930 . S
C580 N581 1.314 . S
C580 C582 1.353 . S
C580 H586 0.930 . S
N581 Li531 1.990 . S
N581 C580 1.314 . S
N581 C584 1.279 . S
C582 C580 1.353 . S
C582 C585 1.348 . S
C582 H614 0.929 . S
C583 C584 1.358 . S
C583 C585 1.356 . S
C583 H615 0.930 . S
C584 N581 1.279 . S
C584 C583 1.358 . S
C584 H587 0.930 . S
C585 C582 1.348 . S
C585 C583 1.356 . S
H586 C580 0.930 . S
H587 C584 0.930 . S
O588 Li528 1.956 . S
O588 Li529 1.970 . S
O588 Li530 1.961 . S
O588 C532 1.325 . S
O589 Li528 1.970 . S
O589 Li529 1.956 . S
O589 Li531 1.961 . S
O589 C538 1.325 . S
O590 Li528 1.961 . S
O590 Li530 1.956 . S
O590 Li531 1.970 . S
O590 C560 1.325 . S
O591 Li529 1.961 . S
O591 Li530 1.970 . S
O591 Li531 1.956 . S
O591 C566 1.325 . S
H592 C534 0.929 . S
H593 C535 0.930 . S
H594 C536 0.930 . S
H595 C537 0.930 . S
H596 C539 0.930 . S
H597 C541 0.929 . S
H598 C542 0.930 . S
H599 C543 0.930 . S
H600 C546 0.930 . S
H601 C549 0.929 . S
H602 C554 0.929 . S
H603 C555 0.930 . S
H604 C562 0.929 . S
H605 C563 0.930 . S
H606 C564 0.930 . S
H607 C565 0.930 . S
H608 C567 0.929 . S
H609 C568 0.930 . S
H610 C569 0.930 . S
H611 C570 0.930 . S
H612 C574 0.929 . S
H613 C576 0.930 . S
H614 C582 0.929 . S
H615 C583 0.930 . S
Li616 N633 1.990 . S
Li616 O676 1.956 1_655 S
Li616 O677 1.970 1_565 S
Li616 O678 1.961 . S
Li617 N641 1.990 1_666 S
Li617 O676 1.970 1_655 S
Li617 O677 1.956 1_565 S
Li617 O679 1.961 1_556 S
Li618 N663 1.990 . S
Li618 O676 1.961 1_655 S
Li618 O678 1.956 . S
Li618 O679 1.970 1_556 S
Li619 N669 1.990 . S
Li619 O677 1.961 1_565 S
Li619 O678 1.970 . S
Li619 O679 1.956 1_556 S
C620 C622 1.348 . S
C620 C623 1.356 . S
C620 O676 1.325 . S
N621 C624 1.314 . S
N621 C625 1.279 . S
C622 C620 1.348 . S
C622 C624 1.353 . S
C622 H680 0.903 1_565 S
C623 C620 1.356 . S
C623 C625 1.358 . S
C623 H681 0.930 . S
C624 N621 1.314 . S
C624 C622 1.353 . S
C624 H682 0.930 . S
C625 N621 1.279 . S
C625 C623 1.358 . S
C625 H683 0.930 . S
C626 C629 1.348 . S
C626 C630 1.356 . S
C626 O677 1.325 . S
C627 N628 1.279 . S
C627 C630 1.358 . S
C627 H684 0.930 . S
N628 C627 1.279 . S
N628 C631 1.314 . S
C629 C626 1.348 . S
C629 C631 1.353 . S
C629 H685 0.929 . S
C630 C626 1.356 . S
C630 C627 1.358 . S
C630 H686 0.930 1_556 S
C631 N628 1.314 . S
C631 C629 1.353 . S
C631 H687 0.930 . S
C632 N633 1.314 . S
C632 C637 1.353 1_565 S
C632 H638 0.930 . S
N633 Li616 1.990 . S
N633 C632 1.314 . S
N633 C635 1.279 1_655 S
C634 C635 1.358 1_545 S
C634 C636 1.356 1_455 S
C634 H688 0.930 . S
C635 N633 1.279 1_455 S
C635 C634 1.358 1_565 S
C635 H639 0.930 . S
C636 C634 1.356 1_655 S
C636 C637 1.348 . S
C637 C632 1.353 1_545 S
C637 C636 1.348 . S
C637 H689 0.929 . S
H638 C632 0.930 . S
H639 C635 0.930 . S
C640 N641 1.314 . S
C640 C642 1.353 . S
C640 H646 0.930 1_545 S
N641 Li617 1.990 1_444 S
N641 C640 1.314 . S
N641 C644 1.279 . S
C642 C640 1.353 . S
C642 C645 1.348 . S
C642 H690 0.929 . S
C643 C644 1.358 . S
C643 C645 1.356 . S
C643 H691 0.930 . S
C644 N641 1.279 . S
C644 C643 1.358 . S
C644 H647 0.930 . S
C645 C642 1.348 . S
C645 C643 1.356 . S
H646 C640 0.930 1_565 S
H647 C644 0.930 . S
C648 C650 1.348 . S
C648 C651 1.356 . S
C648 O678 1.325 . S
N649 C652 1.314 . S
N649 C653 1.279 . S
C650 C648 1.348 . S
C650 C652 1.353 . S
C650 H692 0.929 . S
C651 C648 1.356 . S
C651 C653 1.358 . S
C651 H693 0.930 . S
C652 N649 1.314 . S
C652 C650 1.353 . S
C652 H694 0.930 . S
C653 N649 1.279 . S
C653 C651 1.358 . S
C653 H695 0.930 . S
C654 C655 1.348 . S
C654 C656 1.356 . S
C654 O679 1.325 . S
C655 C654 1.348 . S
C655 C657 1.353 . S
C655 H696 0.929 . S
C656 C654 1.356 . S
C656 C658 1.358 . S
C656 H697 0.930 . S
C657 C655 1.353 . S
C657 N659 1.314 . S
C657 H698 0.930 . S
C658 C656 1.358 . S
C658 N659 1.279 . S
C658 H699 0.930 . S
N659 C657 1.314 . S
N659 C658 1.279 . S
C660 C662 1.350 1_556 S
C660 N663 1.314 1_455 S
C660 H666 0.922 1_556 S
C661 N663 1.279 . S
C661 C664 1.358 . S
C661 H667 0.930 . S
C662 C660 1.350 1_554 S
C662 C665 1.344 1_554 S
C662 H700 0.936 . S
N663 Li618 1.990 . S
N663 C660 1.314 1_655 S
N663 C661 1.279 . S
C664 C661 1.358 . S
C664 C665 1.356 1_655 S
C664 H701 0.930 . S
C665 C662 1.344 1_556 S
C665 C664 1.356 1_455 S
H666 C660 0.922 1_554 S
H667 C661 0.930 . S
C668 N669 1.314 1_545 S
C668 C670 1.353 . S
C668 H674 0.930 . S
N669 Li619 1.990 . S
N669 C668 1.314 1_565 S
N669 C672 1.279 1_556 S
C670 C668 1.353 . S
C670 C673 1.348 1_546 S
C670 H702 0.929 . S
C671 C672 1.358 . S
C671 C673 1.356 . S
C671 H703 0.930 . S
C672 N669 1.279 1_554 S
C672 C671 1.358 . S
C672 H675 0.930 . S
C673 C670 1.348 1_564 S
C673 C671 1.356 . S
H674 C668 0.930 . S
H675 C672 0.930 . S
O676 Li616 1.956 1_455 S
O676 Li617 1.970 1_455 S
O676 Li618 1.961 1_455 S
O676 C620 1.325 . S
O677 Li616 1.970 1_545 S
O677 Li617 1.956 1_545 S
O677 Li619 1.961 1_545 S
O677 C626 1.325 . S
O678 Li616 1.961 . S
O678 Li618 1.956 . S
O678 Li619 1.970 . S
O678 C648 1.325 . S
O679 Li617 1.961 1_554 S
O679 Li618 1.970 1_554 S
O679 Li619 1.956 1_554 S
O679 C654 1.325 . S
H680 C622 0.903 1_545 S
H681 C623 0.930 . S
H682 C624 0.930 . S
H683 C625 0.930 . S
H684 C627 0.930 . S
H685 C629 0.929 . S
H686 C630 0.930 1_554 S
H687 C631 0.930 . S
H688 C634 0.930 . S
H689 C637 0.929 . S
H690 C642 0.929 . S
H691 C643 0.930 . S
H692 C650 0.929 . S
H693 C651 0.930 . S
H694 C652 0.930 . S
H695 C653 0.930 . S
H696 C655 0.929 . S
H697 C656 0.930 . S
H698 C657 0.930 . S
H699 C658 0.930 . S
H700 C662 0.936 . S
H701 C664 0.930 . S
H702 C670 0.929 . S
H703 C671 0.930 . S
Li704 N721 1.990 . S
Li704 O764 1.956 . S
Li704 O765 1.970 . S
Li704 O766 1.961 . S
Li705 N729 1.990 . S
Li705 O764 1.970 . S
Li705 O765 1.956 . S
Li705 O767 1.961 . S
Li706 N751 1.990 . S
Li706 O764 1.961 . S
Li706 O766 1.956 . S
Li706 O767 1.970 . S
Li707 N757 1.990 . S
Li707 O765 1.961 . S
Li707 O766 1.970 . S
Li707 O767 1.956 . S
C708 C710 1.348 . S
C708 C711 1.356 . S
C708 O764 1.325 . S
N709 C712 1.314 . S
N709 C713 1.279 . S
C710 C708 1.348 . S
C710 C712 1.353 . S
C710 H768 0.929 . S
C711 C708 1.356 . S
C711 C713 1.358 . S
C711 H769 0.930 . S
C712 N709 1.314 . S
C712 C710 1.353 . S
C712 H770 0.930 . S
C713 N709 1.279 . S
C713 C711 1.358 . S
C713 H771 0.930 . S
C714 C717 1.348 . S
C714 C718 1.356 . S
C714 O765 1.325 . S
C715 N716 1.279 . S
C715 C718 1.358 . S
C715 H772 0.930 . S
N716 C715 1.279 . S
N716 C719 1.314 . S
C717 C714 1.348 . S
C717 C719 1.353 . S
C717 H773 0.929 . S
C718 C714 1.356 . S
C718 C715 1.358 . S
C718 H774 0.930 . S
C719 N716 1.314 . S
C719 C717 1.353 . S
C719 H775 0.930 . S
C720 N721 1.314 . S
C720 C725 1.353 . S
C720 H726 0.930 . S
N721 Li704 1.990 . S
N721 C720 1.314 . S
N721 C723 1.279 . S
C722 C723 1.358 . S
C722 C724 1.356 . S
C722 H776 0.930 . S
C723 N721 1.279 . S
C723 C722 1.358 . S
C723 H727 0.930 . S
C724 C722 1.356 . S
C724 C725 1.348 . S
C725 C720 1.353 . S
C725 C724 1.348 . S
C725 H777 0.929 . S
H726 C720 0.930 . S
H727 C723 0.930 . S
C728 N729 1.314 . S
C728 C730 1.353 . S
C728 H734 0.930 . S
N729 Li705 1.990 . S
N729 C728 1.314 . S
N729 C732 1.279 . S
C730 C728 1.353 . S
C730 C733 1.348 . S
C730 H778 0.929 . S
C731 C732 1.358 . S
C731 C733 1.356 . S
C731 H779 0.930 . S
C732 N729 1.279 . S
C732 C731 1.358 . S
C732 H735 0.930 . S
C733 C730 1.348 . S
C733 C731 1.356 . S
H734 C728 0.930 . S
H735 C732 0.930 . S
C736 C738 1.348 . S
C736 C739 1.356 . S
C736 O766 1.325 . S
N737 C740 1.314 . S
N737 C741 1.279 . S
C738 C736 1.348 . S
C738 C740 1.353 . S
C738 H780 0.929 . S
C739 C736 1.356 . S
C739 C741 1.358 . S
C739 H781 0.930 . S
C740 N737 1.314 . S
C740 C738 1.353 . S
C740 H782 0.930 . S
C741 N737 1.279 . S
C741 C739 1.358 . S
C741 H783 0.930 . S
C742 C743 1.348 . S
C742 C744 1.356 . S
C742 O767 1.325 . S
C743 C742 1.348 . S
C743 C745 1.353 . S
C743 H784 0.929 . S
C744 C742 1.356 . S
C744 C746 1.358 . S
C744 H785 0.930 . S
C745 C743 1.353 . S
C745 N747 1.314 . S
C745 H786 0.930 . S
C746 C744 1.358 . S
C746 N747 1.279 . S
C746 H787 0.930 . S
N747 C745 1.314 . S
N747 C746 1.279 . S
C748 C750 1.353 . S
C748 N751 1.314 . S
C748 H754 0.930 . S
C749 N751 1.279 . S
C749 C752 1.358 . S
C749 H755 0.930 . S
C750 C748 1.353 . S
C750 C753 1.348 . S
C750 H788 0.929 . S
N751 Li706 1.990 . S
N751 C748 1.314 . S
N751 C749 1.279 . S
C752 C749 1.358 . S
C752 C753 1.356 . S
C752 H789 0.930 . S
C753 C750 1.348 . S
C753 C752 1.356 . S
H754 C748 0.930 . S
H755 C749 0.930 . S
C756 N757 1.314 . S
C756 C758 1.353 . S
C756 H762 0.930 . S
N757 Li707 1.990 . S
N757 C756 1.314 . S
N757 C760 1.279 . S
C758 C756 1.353 . S
C758 C761 1.348 . S
C758 H790 0.929 . S
C759 C760 1.358 . S
C759 C761 1.356 . S
C759 H791 0.930 . S
C760 N757 1.279 . S
C760 C759 1.358 . S
C760 H763 0.930 . S
C761 C758 1.348 . S
C761 C759 1.356 . S
H762 C756 0.930 . S
H763 C760 0.930 . S
O764 Li704 1.956 . S
O764 Li705 1.970 . S
O764 Li706 1.961 . S
O764 C708 1.325 . S
O765 Li704 1.970 . S
O765 Li705 1.956 . S
O765 Li707 1.961 . S
O765 C714 1.325 . S
O766 Li704 1.961 . S
O766 Li706 1.956 . S
O766 Li707 1.970 . S
O766 C736 1.325 . S
O767 Li705 1.961 . S
O767 Li706 1.970 . S
O767 Li707 1.956 . S
O767 C742 1.325 . S
H768 C710 0.929 . S
H769 C711 0.930 . S
H770 C712 0.930 . S
H771 C713 0.930 . S
H772 C715 0.930 . S
H773 C717 0.929 . S
H774 C718 0.930 . S
H775 C719 0.930 . S
H776 C722 0.930 . S
H777 C725 0.929 . S
H778 C730 0.929 . S
H779 C731 0.930 . S
H780 C738 0.929 . S
H781 C739 0.930 . S
H782 C740 0.930 . S
H783 C741 0.930 . S
H784 C743 0.929 . S
H785 C744 0.930 . S
H786 C745 0.930 . S
H787 C746 0.930 . S
H788 C750 0.929 . S
H789 C752 0.930 . S
H790 C758 0.929 . S
H791 C759 0.930 . S
Li792 N809 1.990 . S
Li792 O852 1.956 . S
Li792 O853 1.970 1_556 S
Li792 O854 1.961 1_455 S
Li793 N817 1.990 . S
Li793 O852 1.970 . S
Li793 O853 1.956 1_556 S
Li793 O855 1.961 . S
Li794 N839 1.990 . S
Li794 O852 1.961 . S
Li794 O854 1.956 1_455 S
Li794 O855 1.970 . S
Li795 N845 1.990 1_456 S
Li795 O853 1.961 1_556 S
Li795 O854 1.970 1_455 S
Li795 O855 1.956 . S
C796 C798 1.348 . S
C796 C799 1.356 . S
C796 O852 1.325 . S
N797 C800 1.314 . S
N797 C801 1.279 . S
C798 C796 1.348 . S
C798 C800 1.353 . S
C798 H856 0.929 . S
C799 C796 1.356 . S
C799 C801 1.358 . S
C799 H857 0.930 . S
C800 N797 1.314 . S
C800 C798 1.353 . S
C800 H858 0.930 . S
C801 N797 1.279 . S
C801 C799 1.358 . S
C801 H859 0.930 . S
C802 C805 1.348 . S
C802 C806 1.356 . S
C802 O853 1.325 . S
C803 N804 1.279 . S
C803 C806 1.358 . S
C803 H860 0.930 . S
N804 C803 1.279 . S
N804 C807 1.314 . S
C805 C802 1.348 . S
C805 C807 1.353 . S
C805 H861 0.929 . S
C806 C802 1.356 . S
C806 C803 1.358 . S
C806 H862 0.930 . S
C807 N804 1.314 . S
C807 C805 1.353 . S
C807 H863 0.930 . S
C808 N809 1.314 1_655 S
C808 C813 1.348 1_556 S
C808 H814 0.919 1_556 S
N809 Li792 1.990 . S
N809 C808 1.314 1_455 S
N809 C811 1.279 . S
C810 C811 1.358 . S
C810 C812 1.356 1_455 S
C810 H864 0.930 . S
C811 N809 1.279 . S
C811 C810 1.358 . S
C811 H815 0.930 . S
C812 C810 1.356 1_655 S
C812 C813 1.342 1_556 S
C813 C808 1.348 1_554 S
C813 C812 1.342 1_554 S
C813 H865 0.941 . S
H814 C808 0.919 1_554 S
H815 C811 0.930 . S
C816 N817 1.314 . S
C816 C818 1.353 . S
C816 H822 0.930 . S
N817 Li793 1.990 . S
N817 C816 1.314 . S
N817 C820 1.279 1_556 S
C818 C816 1.353 . S
C818 C821 1.348 1_556 S
C818 H866 0.929 . S
C819 C820 1.358 . S
C819 C821 1.356 . S
C819 H867 0.930 . S
C820 N817 1.279 1_554 S
C820 C819 1.358 . S
C820 H823 0.930 . S
C821 C818 1.348 1_554 S
C821 C819 1.356 . S
H822 C816 0.930 . S
H823 C820 0.930 . S
C824 C826 1.348 . S
C824 C827 1.356 . S
C824 O854 1.325 . S
N825 C828 1.314 . S
N825 C829 1.279 . S
C826 C824 1.348 . S
C826 C828 1.353 . S
C826 H868 0.929 . S
C827 C824 1.356 . S
C827 C829 1.358 . S
C827 H869 0.930 . S
C828 N825 1.314 . S
C828 C826 1.353 . S
C828 H870 0.930 . S
C829 N825 1.279 . S
C829 C827 1.358 . S
C829 H871 0.930 . S
C830 C831 1.348 . S
C830 C832 1.356 . S
C830 O855 1.325 . S
C831 C830 1.348 . S
C831 C833 1.353 . S
C831 H872 0.929 . S
C832 C830 1.356 . S
C832 C834 1.358 . S
C832 H873 0.930 1_556 S
C833 C831 1.353 . S
C833 N835 1.314 . S
C833 H874 0.930 . S
C834 C832 1.358 . S
C834 N835 1.279 . S
C834 H875 0.930 . S
N835 C833 1.314 . S
N835 C834 1.279 . S
C836 C838 1.353 . S
C836 N839 1.314 . S
C836 H842 0.930 . S
C837 N839 1.279 1_655 S
C837 C840 1.358 . S
C837 H843 0.930 . S
C838 C836 1.353 . S
C838 C841 1.348 . S
C838 H876 0.929 . S
N839 Li794 1.990 . S
N839 C836 1.314 . S
N839 C837 1.279 1_455 S
C840 C837 1.358 . S
C840 C841 1.356 1_655 S
C840 H877 0.930 . S
C841 C838 1.348 . S
C841 C840 1.356 1_455 S
H842 C836 0.930 . S
H843 C837 0.930 . S
C844 N845 1.314 . S
C844 C846 1.353 . S
C844 H850 0.930 . S
N845 Li795 1.990 1_654 S
N845 C844 1.314 . S
N845 C848 1.279 . S
C846 C844 1.353 . S
C846 C849 1.348 . S
C846 H878 0.929 . S
C847 C848 1.358 . S
C847 C849 1.356 . S
C847 H879 0.930 . S
C848 N845 1.279 . S
C848 C847 1.358 . S
C848 H851 0.930 . S
C849 C846 1.348 . S
C849 C847 1.356 . S
H850 C844 0.930 . S
H851 C848 0.930 . S
O852 Li792 1.956 . S
O852 Li793 1.970 . S
O852 Li794 1.961 . S
O852 C796 1.325 . S
O853 Li792 1.970 1_554 S
O853 Li793 1.956 1_554 S
O853 Li795 1.961 1_554 S
O853 C802 1.325 . S
O854 Li792 1.961 1_655 S
O854 Li794 1.956 1_655 S
O854 Li795 1.970 1_655 S
O854 C824 1.325 . S
O855 Li793 1.961 . S
O855 Li794 1.970 . S
O855 Li795 1.956 . S
O855 C830 1.325 . S
H856 C798 0.929 . S
H857 C799 0.930 . S
H858 C800 0.930 . S
H859 C801 0.930 . S
H860 C803 0.930 . S
H861 C805 0.929 . S
H862 C806 0.930 . S
H863 C807 0.930 . S
H864 C810 0.930 . S
H865 C813 0.941 . S
H866 C818 0.929 . S
H867 C819 0.930 . S
H868 C826 0.929 . S
H869 C827 0.930 . S
H870 C828 0.930 . S
H871 C829 0.930 . S
H872 C831 0.929 . S
H873 C832 0.930 1_554 S
H874 C833 0.930 . S
H875 C834 0.930 . S
H876 C838 0.929 . S
H877 C840 0.930 . S
H878 C846 0.929 . S
H879 C847 0.930 . S
Li880 N897 1.990 . S
Li880 O940 1.956 . S
Li880 O941 1.970 . S
Li880 O942 1.961 . S
Li881 N905 1.990 . S
Li881 O940 1.970 . S
Li881 O941 1.956 . S
Li881 O943 1.961 . S
Li882 N927 1.990 . S
Li882 O940 1.961 . S
Li882 O942 1.956 . S
Li882 O943 1.970 . S
Li883 N933 1.990 . S
Li883 O941 1.961 . S
Li883 O942 1.970 . S
Li883 O943 1.956 . S
C884 C886 1.348 . S
C884 C887 1.356 . S
C884 O940 1.325 . S
N885 C888 1.314 . S
N885 C889 1.279 . S
C886 C884 1.348 . S
C886 C888 1.353 . S
C886 H944 0.929 . S
C887 C884 1.356 . S
C887 C889 1.358 . S
C887 H945 0.930 . S
C888 N885 1.314 . S
C888 C886 1.353 . S
C888 H946 0.930 . S
C889 N885 1.279 . S
C889 C887 1.358 . S
C889 H947 0.930 . S
C890 C893 1.348 . S
C890 C894 1.356 . S
C890 O941 1.325 . S
C891 N892 1.279 . S
C891 C894 1.358 . S
C891 H948 0.930 . S
N892 C891 1.279 . S
N892 C895 1.314 . S
C893 C890 1.348 . S
C893 C895 1.353 . S
C893 H949 0.929 . S
C894 C890 1.356 . S
C894 C891 1.358 . S
C894 H950 0.930 . S
C895 N892 1.314 . S
C895 C893 1.353 . S
C895 H951 0.930 . S
C896 N897 1.314 . S
C896 C901 1.353 . S
C896 H902 0.930 . S
N897 Li880 1.990 . S
N897 C896 1.314 . S
N897 C899 1.279 . S
C898 C899 1.358 . S
C898 C900 1.356 . S
C898 H952 0.930 . S
C899 N897 1.279 . S
C899 C898 1.358 . S
C899 H903 0.930 . S
C900 C898 1.356 . S
C900 C901 1.348 . S
C901 C896 1.353 . S
C901 C900 1.348 . S
C901 H953 0.929 . S
H902 C896 0.930 . S
H903 C899 0.930 . S
C904 N905 1.314 . S
C904 C906 1.353 . S
C904 H910 0.930 . S
N905 Li881 1.990 . S
N905 C904 1.314 . S
N905 C908 1.279 . S
C906 C904 1.353 . S
C906 C909 1.348 . S
C906 H954 0.929 . S
C907 C908 1.358 . S
C907 C909 1.356 . S
C907 H955 0.930 . S
C908 N905 1.279 . S
C908 C907 1.358 . S
C908 H911 0.930 . S
C909 C906 1.348 . S
C909 C907 1.356 . S
H910 C904 0.930 . S
H911 C908 0.930 . S
C912 C914 1.348 . S
C912 C915 1.356 . S
C912 O942 1.325 . S
N913 C916 1.314 . S
N913 C917 1.279 . S
C914 C912 1.348 . S
C914 C916 1.353 . S
C914 H956 0.929 . S
C915 C912 1.356 . S
C915 C917 1.358 . S
C915 H957 0.930 . S
C916 N913 1.314 . S
C916 C914 1.353 . S
C916 H958 0.930 . S
C917 N913 1.279 . S
C917 C915 1.358 . S
C917 H959 0.930 . S
C918 C919 1.348 . S
C918 C920 1.356 . S
C918 O943 1.325 . S
C919 C918 1.348 . S
C919 C921 1.353 . S
C919 H960 0.929 . S
C920 C918 1.356 . S
C920 C922 1.358 . S
C920 H961 0.930 . S
C921 C919 1.353 . S
C921 N923 1.314 . S
C921 H962 0.930 . S
C922 C920 1.358 . S
C922 N923 1.279 . S
C922 H963 0.930 . S
N923 C921 1.314 . S
N923 C922 1.279 . S
C924 C926 1.353 . S
C924 N927 1.314 . S
C924 H930 0.930 . S
C925 N927 1.279 . S
C925 C928 1.358 . S
C925 H931 0.930 . S
C926 C924 1.353 . S
C926 C929 1.348 . S
C926 H964 0.929 . S
N927 Li882 1.990 . S
N927 C924 1.314 . S
N927 C925 1.279 . S
C928 C925 1.358 . S
C928 C929 1.356 . S
C928 H965 0.930 . S
C929 C926 1.348 . S
C929 C928 1.356 . S
H930 C924 0.930 . S
H931 C925 0.930 . S
C932 N933 1.314 . S
C932 C934 1.353 . S
C932 H938 0.930 . S
N933 Li883 1.990 . S
N933 C932 1.314 . S
N933 C936 1.279 . S
C934 C932 1.353 . S
C934 C937 1.348 . S
C934 H966 0.929 . S
C935 C936 1.358 . S
C935 C937 1.356 . S
C935 H967 0.930 . S
C936 N933 1.279 . S
C936 C935 1.358 . S
C936 H939 0.930 . S
C937 C934 1.348 . S
C937 C935 1.356 . S
H938 C932 0.930 . S
H939 C936 0.930 . S
O940 Li880 1.956 . S
O940 Li881 1.970 . S
O940 Li882 1.961 . S
O940 C884 1.325 . S
O941 Li880 1.970 . S
O941 Li881 1.956 . S
O941 Li883 1.961 . S
O941 C890 1.325 . S
O942 Li880 1.961 . S
O942 Li882 1.956 . S
O942 Li883 1.970 . S
O942 C912 1.325 . S
O943 Li881 1.961 . S
O943 Li882 1.970 . S
O943 Li883 1.956 . S
O943 C918 1.325 . S
H944 C886 0.929 . S
H945 C887 0.930 . S
H946 C888 0.930 . S
H947 C889 0.930 . S
H948 C891 0.930 . S
H949 C893 0.929 . S
H950 C894 0.930 . S
H951 C895 0.930 . S
H952 C898 0.930 . S
H953 C901 0.929 . S
H954 C906 0.929 . S
H955 C907 0.930 . S
H956 C914 0.929 . S
H957 C915 0.930 . S
H958 C916 0.930 . S
H959 C917 0.930 . S
H960 C919 0.929 . S
H961 C920 0.930 . S
H962 C921 0.930 . S
H963 C922 0.930 . S
H964 C926 0.929 . S
H965 C928 0.930 . S
H966 C934 0.929 . S
H967 C935 0.930 . S
Li968 N985 1.990 . S
Li968 O1028 1.956 . S
Li968 O1029 1.970 1_455 S
Li968 O1030 1.961 . S
Li969 N993 1.990 . S
Li969 O1028 1.970 . S
Li969 O1029 1.956 1_455 S
Li969 O1031 1.961 . S
Li970 N1015 1.990 . S
Li970 O1028 1.961 . S
Li970 O1030 1.956 . S
Li970 O1031 1.970 . S
Li971 N1021 1.990 1_455 S
Li971 O1029 1.961 1_455 S
Li971 O1030 1.970 . S
Li971 O1031 1.956 . S
C972 C974 1.348 . S
C972 C975 1.356 . S
C972 O1028 1.325 . S
N973 C976 1.314 . S
N973 C977 1.279 . S
C974 C972 1.348 . S
C974 C976 1.353 . S
C974 H1032 0.929 . S
C975 C972 1.356 . S
C975 C977 1.358 . S
C975 H1033 0.930 . S
C976 N973 1.314 . S
C976 C974 1.353 . S
C976 H1034 0.930 . S
C977 N973 1.279 . S
C977 C975 1.358 . S
C977 H1035 0.930 . S
C978 C981 1.348 . S
C978 C982 1.356 . S
C978 O1029 1.325 . S
C979 N980 1.279 . S
C979 C982 1.358 . S
C979 H1036 0.930 . S
N980 C979 1.279 . S
N980 C983 1.314 . S
C981 C978 1.348 . S
C981 C983 1.353 . S
C981 H1037 0.929 . S
C982 C978 1.356 . S
C982 C979 1.358 . S
C982 H1038 0.930 . S
C983 N980 1.314 . S
C983 C981 1.353 . S
C983 H1039 0.930 . S
C984 N985 1.314 . S
C984 C989 1.351 1_455 S
C984 H990 0.924 1_455 S
N985 Li968 1.990 . S
N985 C984 1.314 . S
N985 C987 1.279 . S
C986 C987 1.358 . S
C986 C988 1.356 . S
C986 H1040 0.930 . S
C987 N985 1.279 . S
C987 C986 1.358 . S
C987 H991 0.930 . S
C988 C986 1.356 . S
C988 C989 1.346 1_455 S
C989 C984 1.351 1_655 S
C989 C988 1.346 1_655 S
C989 H1041 0.933 . S
H990 C984 0.924 1_655 S
H991 C987 0.930 . S
C992 N993 1.314 . S
C992 C994 1.353 . S
C992 H998 0.930 . S
N993 Li969 1.990 . S
N993 C992 1.314 . S
N993 C996 1.279 1_455 S
C994 C992 1.353 . S
C994 C997 1.348 1_455 S
C994 H1042 0.929 . S
C995 C996 1.358 . S
C995 C997 1.356 . S
C995 H1043 0.930 . S
C996 N993 1.279 1_655 S
C996 C995 1.358 . S
C996 H999 0.930 . S
C997 C994 1.348 1_655 S
C997 C995 1.356 . S
H998 C992 0.930 . S
H999 C996 0.930 . S
C1000 C1002 1.348 . S
C1000 C1003 1.356 . S
C1000 O1030 1.325 . S
N1001 C1004 1.314 . S
N1001 C1005 1.279 . S
C1002 C1000 1.348 . S
C1002 C1004 1.353 . S
C1002 H1044 0.929 . S
C1003 C1000 1.356 . S
C1003 C1005 1.358 . S
C1003 H1045 0.930 . S
C1004 N1001 1.314 . S
C1004 C1002 1.353 . S
C1004 H1046 0.930 . S
C1005 N1001 1.279 . S
C1005 C1003 1.358 . S
C1005 H1047 0.930 . S
C1006 C1007 1.348 . S
C1006 C1008 1.356 . S
C1006 O1031 1.325 . S
C1007 C1006 1.348 . S
C1007 C1009 1.353 . S
C1007 H1048 0.929 . S
C1008 C1006 1.356 . S
C1008 C1010 1.358 . S
C1008 H1049 0.930 1_455 S
C1009 C1007 1.353 . S
C1009 N1011 1.314 . S
C1009 H1050 0.930 . S
C1010 C1008 1.358 . S
C1010 N1011 1.279 . S
C1010 H1051 0.930 . S
N1011 C1009 1.314 . S
N1011 C1010 1.279 . S
C1012 C1014 1.353 . S
C1012 N1015 1.314 . S
C1012 H1018 0.930 . S
C1013 N1015 1.279 . S
C1013 C1016 1.358 . S
C1013 H1019 0.930 . S
C1014 C1012 1.353 . S
C1014 C1017 1.348 . S
C1014 H1052 0.929 . S
N1015 Li970 1.990 . S
N1015 C1012 1.314 . S
N1015 C1013 1.279 . S
C1016 C1013 1.358 . S
C1016 C1017 1.356 . S
C1016 H1053 0.930 . S
C1017 C1014 1.348 . S
C1017 C1016 1.356 . S
H1018 C1012 0.930 . S
H1019 C1013 0.930 . S
C1020 N1021 1.314 . S
C1020 C1022 1.353 . S
C1020 H1026 0.930 . S
N1021 Li971 1.990 1_655 S
N1021 C1020 1.314 . S
N1021 C1024 1.279 . S
C1022 C1020 1.353 . S
C1022 C1025 1.348 . S
C1022 H1054 0.929 . S
C1023 C1024 1.358 . S
C1023 C1025 1.356 . S
C1023 H1055 0.930 . S
C1024 N1021 1.279 . S
C1024 C1023 1.358 . S
C1024 H1027 0.930 . S
C1025 C1022 1.348 . S
C1025 C1023 1.356 . S
H1026 C1020 0.930 . S
H1027 C1024 0.930 . S
O1028 Li968 1.956 . S
O1028 Li969 1.970 . S
O1028 Li970 1.961 . S
O1028 C972 1.325 . S
O1029 Li968 1.970 1_655 S
O1029 Li969 1.956 1_655 S
O1029 Li971 1.961 1_655 S
O1029 C978 1.325 . S
O1030 Li968 1.961 . S
O1030 Li970 1.956 . S
O1030 Li971 1.970 . S
O1030 C1000 1.325 . S
O1031 Li969 1.961 . S
O1031 Li970 1.970 . S
O1031 Li971 1.956 . S
O1031 C1006 1.325 . S
H1032 C974 0.929 . S
H1033 C975 0.930 . S
H1034 C976 0.930 . S
H1035 C977 0.930 . S
H1036 C979 0.930 . S
H1037 C981 0.929 . S
H1038 C982 0.930 . S
H1039 C983 0.930 . S
H1040 C986 0.930 . S
H1041 C989 0.933 . S
H1042 C994 0.929 . S
H1043 C995 0.930 . S
H1044 C1002 0.929 . S
H1045 C1003 0.930 . S
H1046 C1004 0.930 . S
H1047 C1005 0.930 . S
H1048 C1007 0.929 . S
H1049 C1008 0.930 1_655 S
H1050 C1009 0.930 . S
H1051 C1010 0.930 . S
H1052 C1014 0.929 . S
H1053 C1016 0.930 . S
H1054 C1022 0.929 . S
H1055 C1023 0.930 . S
Li1056 N1073 1.990 . S
Li1056 O1116 1.956 . S
Li1056 O1117 1.970 1_554 S
Li1056 O1118 1.961 . S
Li1057 N1081 1.990 . S
Li1057 O1116 1.970 . S
Li1057 O1117 1.956 1_554 S
Li1057 O1119 1.961 . S
Li1058 N1103 1.990 . S
Li1058 O1116 1.961 . S
Li1058 O1118 1.956 . S
Li1058 O1119 1.970 . S
Li1059 N1109 1.990 1_554 S
Li1059 O1117 1.961 1_554 S
Li1059 O1118 1.970 . S
Li1059 O1119 1.956 . S
C1060 C1062 1.348 . S
C1060 C1063 1.356 . S
C1060 O1116 1.325 . S
N1061 C1064 1.314 . S
N1061 C1065 1.279 . S
C1062 C1060 1.348 . S
C1062 C1064 1.353 . S
C1062 H1120 0.929 . S
C1063 C1060 1.356 . S
C1063 C1065 1.358 . S
C1063 H1121 0.930 . S
C1064 N1061 1.314 . S
C1064 C1062 1.353 . S
C1064 H1122 0.930 . S
C1065 N1061 1.279 . S
C1065 C1063 1.358 . S
C1065 H1123 0.930 . S
C1066 C1069 1.348 . S
C1066 C1070 1.356 . S
C1066 O1117 1.325 . S
C1067 N1068 1.279 . S
C1067 C1070 1.358 . S
C1067 H1124 0.930 . S
N1068 C1067 1.279 . S
N1068 C1071 1.314 . S
C1069 C1066 1.348 . S
C1069 C1071 1.353 . S
C1069 H1125 0.929 . S
C1070 C1066 1.356 . S
C1070 C1067 1.358 . S
C1070 H1126 0.930 . S
C1071 N1068 1.314 . S
C1071 C1069 1.353 . S
C1071 H1127 0.930 . S
C1072 N1073 1.314 . S
C1072 C1077 1.353 1_554 S
C1072 H1078 0.930 1_554 S
N1073 Li1056 1.990 . S
N1073 C1072 1.314 . S
N1073 C1075 1.279 . S
C1074 C1075 1.358 . S
C1074 C1076 1.356 . S
C1074 H1128 0.930 . S
C1075 N1073 1.279 . S
C1075 C1074 1.358 . S
C1075 H1079 0.930 . S
C1076 C1074 1.356 . S
C1076 C1077 1.348 1_554 S
C1077 C1072 1.353 1_556 S
C1077 C1076 1.348 1_556 S
C1077 H1129 0.929 . S
H1078 C1072 0.930 1_556 S
H1079 C1075 0.930 . S
C1080 N1081 1.314 . S
C1080 C1082 1.353 . S
C1080 H1086 0.930 . S
N1081 Li1057 1.990 . S
N1081 C1080 1.314 . S
N1081 C1084 1.279 1_554 S
C1082 C1080 1.353 . S
C1082 C1085 1.348 1_554 S
C1082 H1130 0.929 . S
C1083 C1084 1.358 . S
C1083 C1085 1.356 . S
C1083 H1131 0.930 . S
C1084 N1081 1.279 1_556 S
C1084 C1083 1.358 . S
C1084 H1087 0.930 . S
C1085 C1082 1.348 1_556 S
C1085 C1083 1.356 . S
H1086 C1080 0.930 . S
H1087 C1084 0.930 . S
C1088 C1090 1.348 . S
C1088 C1091 1.356 . S
C1088 O1118 1.325 . S
N1089 C1092 1.314 . S
N1089 C1093 1.279 . S
C1090 C1088 1.348 . S
C1090 C1092 1.353 . S
C1090 H1132 0.929 . S
C1091 C1088 1.356 . S
C1091 C1093 1.358 . S
C1091 H1133 0.930 . S
C1092 N1089 1.314 . S
C1092 C1090 1.353 . S
C1092 H1134 0.930 . S
C1093 N1089 1.279 . S
C1093 C1091 1.358 . S
C1093 H1135 0.930 . S
C1094 C1095 1.348 . S
C1094 C1096 1.356 . S
C1094 O1119 1.325 . S
C1095 C1094 1.348 . S
C1095 C1097 1.353 . S
C1095 H1136 0.929 . S
C1096 C1094 1.356 . S
C1096 C1098 1.358 . S
C1096 H1137 0.930 1_554 S
C1097 C1095 1.353 . S
C1097 N1099 1.314 . S
C1097 H1138 0.930 . S
C1098 C1096 1.358 . S
C1098 N1099 1.279 . S
C1098 H1139 0.930 . S
N1099 C1097 1.314 . S
N1099 C1098 1.279 . S
C1100 C1102 1.353 . S
C1100 N1103 1.314 . S
C1100 H1106 0.930 . S
C1101 N1103 1.279 . S
C1101 C1104 1.358 . S
C1101 H1107 0.930 . S
C1102 C1100 1.353 . S
C1102 C1105 1.348 . S
C1102 H1140 0.929 . S
N1103 Li1058 1.990 . S
N1103 C1100 1.314 . S
N1103 C1101 1.279 . S
C1104 C1101 1.358 . S
C1104 C1105 1.356 . S
C1104 H1141 0.930 . S
C1105 C1102 1.348 . S
C1105 C1104 1.356 . S
H1106 C1100 0.930 . S
H1107 C1101 0.930 . S
C1108 N1109 1.314 . S
C1108 C1110 1.353 . S
C1108 H1114 0.930 . S
N1109 Li1059 1.990 1_556 S
N1109 C1108 1.314 . S
N1109 C1112 1.279 . S
C1110 C1108 1.353 . S
C1110 C1113 1.348 . S
C1110 H1142 0.929 . S
C1111 C1112 1.358 . S
C1111 C1113 1.356 . S
C1111 H1143 0.930 . S
C1112 N1109 1.279 . S
C1112 C1111 1.358 . S
C1112 H1115 0.930 . S
C1113 C1110 1.348 . S
C1113 C1111 1.356 . S
H1114 C1108 0.930 . S
H1115 C1112 0.930 . S
O1116 Li1056 1.956 . S
O1116 Li1057 1.970 . S
O1116 Li1058 1.961 . S
O1116 C1060 1.325 . S
O1117 Li1056 1.970 1_556 S
O1117 Li1057 1.956 1_556 S
O1117 Li1059 1.961 1_556 S
O1117 C1066 1.325 . S
O1118 Li1056 1.961 . S
O1118 Li1058 1.956 . S
O1118 Li1059 1.970 . S
O1118 C1088 1.325 . S
O1119 Li1057 1.961 . S
O1119 Li1058 1.970 . S
O1119 Li1059 1.956 . S
O1119 C1094 1.325 . S
H1120 C1062 0.929 . S
H1121 C1063 0.930 . S
H1122 C1064 0.930 . S
H1123 C1065 0.930 . S
H1124 C1067 0.930 . S
H1125 C1069 0.929 . S
H1126 C1070 0.930 . S
H1127 C1071 0.930 . S
H1128 C1074 0.930 . S
H1129 C1077 0.929 . S
H1130 C1082 0.929 . S
H1131 C1083 0.930 . S
H1132 C1090 0.929 . S
H1133 C1091 0.930 . S
H1134 C1092 0.930 . S
H1135 C1093 0.930 . S
H1136 C1095 0.929 . S
H1137 C1096 0.930 1_556 S
H1138 C1097 0.930 . S
H1139 C1098 0.930 . S
H1140 C1102 0.929 . S
H1141 C1104 0.930 . S
H1142 C1110 0.929 . S
H1143 C1111 0.930 . S
Li1144 N1161 1.990 . S
Li1144 O1204 1.956 . S
Li1144 O1205 1.970 . S
Li1144 O1206 1.961 . S
Li1145 N1169 1.990 . S
Li1145 O1204 1.970 . S
Li1145 O1205 1.956 . S
Li1145 O1207 1.961 . S
Li1146 N1191 1.990 . S
Li1146 O1204 1.961 . S
Li1146 O1206 1.956 . S
Li1146 O1207 1.970 . S
Li1147 N1197 1.990 . S
Li1147 O1205 1.961 . S
Li1147 O1206 1.970 . S
Li1147 O1207 1.956 . S
C1148 C1150 1.348 . S
C1148 C1151 1.356 . S
C1148 O1204 1.325 . S
N1149 C1152 1.314 . S
N1149 C1153 1.279 . S
C1150 C1148 1.348 . S
C1150 C1152 1.353 . S
C1150 H1208 0.929 . S
C1151 C1148 1.356 . S
C1151 C1153 1.358 . S
C1151 H1209 0.930 . S
C1152 N1149 1.314 . S
C1152 C1150 1.353 . S
C1152 H1210 0.930 . S
C1153 N1149 1.279 . S
C1153 C1151 1.358 . S
C1153 H1211 0.930 . S
C1154 C1157 1.348 . S
C1154 C1158 1.356 . S
C1154 O1205 1.325 . S
C1155 N1156 1.279 . S
C1155 C1158 1.358 . S
C1155 H1212 0.930 . S
N1156 C1155 1.279 . S
N1156 C1159 1.314 . S
C1157 C1154 1.348 . S
C1157 C1159 1.353 . S
C1157 H1213 0.929 . S
C1158 C1154 1.356 . S
C1158 C1155 1.358 . S
C1158 H1214 0.930 . S
C1159 N1156 1.314 . S
C1159 C1157 1.353 . S
C1159 H1215 0.930 . S
C1160 N1161 1.314 . S
C1160 C1165 1.353 . S
C1160 H1166 0.930 . S
N1161 Li1144 1.990 . S
N1161 C1160 1.314 . S
N1161 C1163 1.279 . S
C1162 C1163 1.358 . S
C1162 C1164 1.356 . S
C1162 H1216 0.930 . S
C1163 N1161 1.279 . S
C1163 C1162 1.358 . S
C1163 H1167 0.930 . S
C1164 C1162 1.356 . S
C1164 C1165 1.348 . S
C1165 C1160 1.353 . S
C1165 C1164 1.348 . S
C1165 H1217 0.929 . S
H1166 C1160 0.930 . S
H1167 C1163 0.930 . S
C1168 N1169 1.314 . S
C1168 C1170 1.353 . S
C1168 H1174 0.930 . S
N1169 Li1145 1.990 . S
N1169 C1168 1.314 . S
N1169 C1172 1.279 . S
C1170 C1168 1.353 . S
C1170 C1173 1.348 . S
C1170 H1218 0.929 . S
C1171 C1172 1.358 . S
C1171 C1173 1.356 . S
C1171 H1219 0.930 . S
C1172 N1169 1.279 . S
C1172 C1171 1.358 . S
C1172 H1175 0.930 . S
C1173 C1170 1.348 . S
C1173 C1171 1.356 . S
H1174 C1168 0.930 . S
H1175 C1172 0.930 . S
C1176 C1178 1.348 . S
C1176 C1179 1.356 . S
C1176 O1206 1.325 . S
N1177 C1180 1.314 . S
N1177 C1181 1.279 . S
C1178 C1176 1.348 . S
C1178 C1180 1.353 . S
C1178 H1220 0.929 . S
C1179 C1176 1.356 . S
C1179 C1181 1.358 . S
C1179 H1221 0.930 . S
C1180 N1177 1.314 . S
C1180 C1178 1.353 . S
C1180 H1222 0.930 . S
C1181 N1177 1.279 . S
C1181 C1179 1.358 . S
C1181 H1223 0.930 . S
C1182 C1183 1.348 . S
C1182 C1184 1.356 . S
C1182 O1207 1.325 . S
C1183 C1182 1.348 . S
C1183 C1185 1.353 . S
C1183 H1224 0.929 . S
C1184 C1182 1.356 . S
C1184 C1186 1.358 . S
C1184 H1225 0.930 . S
C1185 C1183 1.353 . S
C1185 N1187 1.314 . S
C1185 H1226 0.930 . S
C1186 C1184 1.358 . S
C1186 N1187 1.279 . S
C1186 H1227 0.930 . S
N1187 C1185 1.314 . S
N1187 C1186 1.279 . S
C1188 C1190 1.353 . S
C1188 N1191 1.314 . S
C1188 H1194 0.930 . S
C1189 N1191 1.279 . S
C1189 C1192 1.358 . S
C1189 H1195 0.930 . S
C1190 C1188 1.353 . S
C1190 C1193 1.348 . S
C1190 H1228 0.929 . S
N1191 Li1146 1.990 . S
N1191 C1188 1.314 . S
N1191 C1189 1.279 . S
C1192 C1189 1.358 . S
C1192 C1193 1.356 . S
C1192 H1229 0.930 . S
C1193 C1190 1.348 . S
C1193 C1192 1.356 . S
H1194 C1188 0.930 . S
H1195 C1189 0.930 . S
C1196 N1197 1.314 . S
C1196 C1198 1.353 . S
C1196 H1202 0.930 . S
N1197 Li1147 1.990 . S
N1197 C1196 1.314 . S
N1197 C1200 1.279 . S
C1198 C1196 1.353 . S
C1198 C1201 1.348 . S
C1198 H1230 0.929 . S
C1199 C1200 1.358 . S
C1199 C1201 1.356 . S
C1199 H1231 0.930 . S
C1200 N1197 1.279 . S
C1200 C1199 1.358 . S
C1200 H1203 0.930 . S
C1201 C1198 1.348 . S
C1201 C1199 1.356 . S
H1202 C1196 0.930 . S
H1203 C1200 0.930 . S
O1204 Li1144 1.956 . S
O1204 Li1145 1.970 . S
O1204 Li1146 1.961 . S
O1204 C1148 1.325 . S
O1205 Li1144 1.970 . S
O1205 Li1145 1.956 . S
O1205 Li1147 1.961 . S
O1205 C1154 1.325 . S
O1206 Li1144 1.961 . S
O1206 Li1146 1.956 . S
O1206 Li1147 1.970 . S
O1206 C1176 1.325 . S
O1207 Li1145 1.961 . S
O1207 Li1146 1.970 . S
O1207 Li1147 1.956 . S
O1207 C1182 1.325 . S
H1208 C1150 0.929 . S
H1209 C1151 0.930 . S
H1210 C1152 0.930 . S
H1211 C1153 0.930 . S
H1212 C1155 0.930 . S
H1213 C1157 0.929 . S
H1214 C1158 0.930 . S
H1215 C1159 0.930 . S
H1216 C1162 0.930 . S
H1217 C1165 0.929 . S
H1218 C1170 0.929 . S
H1219 C1171 0.930 . S
H1220 C1178 0.929 . S
H1221 C1179 0.930 . S
H1222 C1180 0.930 . S
H1223 C1181 0.930 . S
H1224 C1183 0.929 . S
H1225 C1184 0.930 . S
H1226 C1185 0.930 . S
H1227 C1186 0.930 . S
H1228 C1190 0.929 . S
H1229 C1192 0.930 . S
H1230 C1198 0.929 . S
H1231 C1199 0.930 . S
Li1232 N1249 1.990 . S
Li1232 O1292 1.956 . S
Li1232 O1293 1.970 . S
Li1232 O1294 1.961 . S
Li1233 N1257 1.990 . S
Li1233 O1292 1.970 . S
Li1233 O1293 1.956 . S
Li1233 O1295 1.961 . S
Li1234 N1279 1.990 . S
Li1234 O1292 1.961 . S
Li1234 O1294 1.956 . S
Li1234 O1295 1.970 . S
Li1235 N1285 1.990 . S
Li1235 O1293 1.961 . S
Li1235 O1294 1.970 . S
Li1235 O1295 1.956 . S
C1236 C1238 1.348 . S
C1236 C1239 1.356 . S
C1236 O1292 1.325 . S
N1237 C1240 1.314 . S
N1237 C1241 1.279 . S
C1238 C1236 1.348 . S
C1238 C1240 1.353 . S
C1238 H1296 0.929 . S
C1239 C1236 1.356 . S
C1239 C1241 1.358 . S
C1239 H1297 0.930 . S
C1240 N1237 1.314 . S
C1240 C1238 1.353 . S
C1240 H1298 0.930 . S
C1241 N1237 1.279 . S
C1241 C1239 1.358 . S
C1241 H1299 0.930 . S
C1242 C1245 1.348 . S
C1242 C1246 1.356 . S
C1242 O1293 1.325 . S
C1243 N1244 1.279 . S
C1243 C1246 1.358 . S
C1243 H1300 0.930 . S
N1244 C1243 1.279 . S
N1244 C1247 1.314 . S
C1245 C1242 1.348 . S
C1245 C1247 1.353 . S
C1245 H1301 0.929 . S
C1246 C1242 1.356 . S
C1246 C1243 1.358 . S
C1246 H1302 0.930 . S
C1247 N1244 1.314 . S
C1247 C1245 1.353 . S
C1247 H1303 0.930 . S
C1248 N1249 1.314 . S
C1248 C1253 1.353 . S
C1248 H1254 0.930 . S
N1249 Li1232 1.990 . S
N1249 C1248 1.314 . S
N1249 C1251 1.279 . S
C1250 C1251 1.358 . S
C1250 C1252 1.356 . S
C1250 H1304 0.930 . S
C1251 N1249 1.279 . S
C1251 C1250 1.358 . S
C1251 H1255 0.930 . S
C1252 C1250 1.356 . S
C1252 C1253 1.348 . S
C1253 C1248 1.353 . S
C1253 C1252 1.348 . S
C1253 H1305 0.929 . S
H1254 C1248 0.930 . S
H1255 C1251 0.930 . S
C1256 N1257 1.314 . S
C1256 C1258 1.353 . S
C1256 H1262 0.930 . S
N1257 Li1233 1.990 . S
N1257 C1256 1.314 . S
N1257 C1260 1.279 . S
C1258 C1256 1.353 . S
C1258 C1261 1.348 . S
C1258 H1306 0.929 . S
C1259 C1260 1.358 . S
C1259 C1261 1.356 . S
C1259 H1307 0.930 . S
C1260 N1257 1.279 . S
C1260 C1259 1.358 . S
C1260 H1263 0.930 . S
C1261 C1258 1.348 . S
C1261 C1259 1.356 . S
H1262 C1256 0.930 . S
H1263 C1260 0.930 . S
C1264 C1266 1.348 . S
C1264 C1267 1.356 . S
C1264 O1294 1.325 . S
N1265 C1268 1.314 . S
N1265 C1269 1.279 . S
C1266 C1264 1.348 . S
C1266 C1268 1.353 . S
C1266 H1308 0.929 . S
C1267 C1264 1.356 . S
C1267 C1269 1.358 . S
C1267 H1309 0.930 . S
C1268 N1265 1.314 . S
C1268 C1266 1.353 . S
C1268 H1310 0.930 . S
C1269 N1265 1.279 . S
C1269 C1267 1.358 . S
C1269 H1311 0.930 . S
C1270 C1271 1.348 . S
C1270 C1272 1.356 . S
C1270 O1295 1.325 . S
C1271 C1270 1.348 . S
C1271 C1273 1.353 . S
C1271 H1312 0.929 . S
C1272 C1270 1.356 . S
C1272 C1274 1.358 . S
C1272 H1313 0.930 . S
C1273 C1271 1.353 . S
C1273 N1275 1.314 . S
C1273 H1314 0.930 . S
C1274 C1272 1.358 . S
C1274 N1275 1.279 . S
C1274 H1315 0.930 . S
N1275 C1273 1.314 . S
N1275 C1274 1.279 . S
C1276 C1278 1.353 . S
C1276 N1279 1.314 . S
C1276 H1282 0.930 . S
C1277 N1279 1.279 . S
C1277 C1280 1.358 . S
C1277 H1283 0.930 . S
C1278 C1276 1.353 . S
C1278 C1281 1.348 . S
C1278 H1316 0.929 . S
N1279 Li1234 1.990 . S
N1279 C1276 1.314 . S
N1279 C1277 1.279 . S
C1280 C1277 1.358 . S
C1280 C1281 1.356 . S
C1280 H1317 0.930 . S
C1281 C1278 1.348 . S
C1281 C1280 1.356 . S
H1282 C1276 0.930 . S
H1283 C1277 0.930 . S
C1284 N1285 1.314 . S
C1284 C1286 1.353 . S
C1284 H1290 0.930 . S
N1285 Li1235 1.990 . S
N1285 C1284 1.314 . S
N1285 C1288 1.279 . S
C1286 C1284 1.353 . S
C1286 C1289 1.348 . S
C1286 H1318 0.929 . S
C1287 C1288 1.358 . S
C1287 C1289 1.356 . S
C1287 H1319 0.930 . S
C1288 N1285 1.279 . S
C1288 C1287 1.358 . S
C1288 H1291 0.930 . S
C1289 C1286 1.348 . S
C1289 C1287 1.356 . S
H1290 C1284 0.930 . S
H1291 C1288 0.930 . S
O1292 Li1232 1.956 . S
O1292 Li1233 1.970 . S
O1292 Li1234 1.961 . S
O1292 C1236 1.325 . S
O1293 Li1232 1.970 . S
O1293 Li1233 1.956 . S
O1293 Li1235 1.961 . S
O1293 C1242 1.325 . S
O1294 Li1232 1.961 . S
O1294 Li1234 1.956 . S
O1294 Li1235 1.970 . S
O1294 C1264 1.325 . S
O1295 Li1233 1.961 . S
O1295 Li1234 1.970 . S
O1295 Li1235 1.956 . S
O1295 C1270 1.325 . S
H1296 C1238 0.929 . S
H1297 C1239 0.930 . S
H1298 C1240 0.930 . S
H1299 C1241 0.930 . S
H1300 C1243 0.930 . S
H1301 C1245 0.929 . S
H1302 C1246 0.930 . S
H1303 C1247 0.930 . S
H1304 C1250 0.930 . S
H1305 C1253 0.929 . S
H1306 C1258 0.929 . S
H1307 C1259 0.930 . S
H1308 C1266 0.929 . S
H1309 C1267 0.930 . S
H1310 C1268 0.930 . S
H1311 C1269 0.930 . S
H1312 C1271 0.929 . S
H1313 C1272 0.930 . S
H1314 C1273 0.930 . S
H1315 C1274 0.930 . S
H1316 C1278 0.929 . S
H1317 C1280 0.930 . S
H1318 C1286 0.929 . S
H1319 C1287 0.930 . S
Li1320 N1337 1.990 . S
Li1320 O1380 1.956 . S
Li1320 O1381 1.970 . S
Li1320 O1382 1.961 . S
Li1321 N1345 1.990 . S
Li1321 O1380 1.970 . S
Li1321 O1381 1.956 . S
Li1321 O1383 1.961 . S
Li1322 N1367 1.990 . S
Li1322 O1380 1.961 . S
Li1322 O1382 1.956 . S
Li1322 O1383 1.970 . S
Li1323 N1373 1.990 . S
Li1323 O1381 1.961 . S
Li1323 O1382 1.970 . S
Li1323 O1383 1.956 . S
C1324 C1326 1.348 . S
C1324 C1327 1.356 . S
C1324 O1380 1.325 . S
N1325 C1328 1.314 . S
N1325 C1329 1.279 . S
C1326 C1324 1.348 . S
C1326 C1328 1.353 . S
C1326 H1384 0.929 . S
C1327 C1324 1.356 . S
C1327 C1329 1.358 . S
C1327 H1385 0.930 . S
C1328 N1325 1.314 . S
C1328 C1326 1.353 . S
C1328 H1386 0.930 . S
C1329 N1325 1.279 . S
C1329 C1327 1.358 . S
C1329 H1387 0.930 . S
C1330 C1333 1.348 . S
C1330 C1334 1.356 . S
C1330 O1381 1.325 . S
C1331 N1332 1.279 . S
C1331 C1334 1.358 . S
C1331 H1388 0.930 . S
N1332 C1331 1.279 . S
N1332 C1335 1.314 . S
C1333 C1330 1.348 . S
C1333 C1335 1.353 . S
C1333 H1389 0.929 . S
C1334 C1330 1.356 . S
C1334 C1331 1.358 . S
C1334 H1390 0.930 . S
C1335 N1332 1.314 . S
C1335 C1333 1.353 . S
C1335 H1391 0.930 . S
C1336 N1337 1.314 . S
C1336 C1341 1.353 . S
C1336 H1342 0.930 . S
N1337 Li1320 1.990 . S
N1337 C1336 1.314 . S
N1337 C1339 1.279 . S
C1338 C1339 1.358 . S
C1338 C1340 1.356 . S
C1338 H1392 0.930 . S
C1339 N1337 1.279 . S
C1339 C1338 1.358 . S
C1339 H1343 0.930 . S
C1340 C1338 1.356 . S
C1340 C1341 1.348 . S
C1341 C1336 1.353 . S
C1341 C1340 1.348 . S
C1341 H1393 0.929 . S
H1342 C1336 0.930 . S
H1343 C1339 0.930 . S
C1344 N1345 1.314 . S
C1344 C1346 1.353 . S
C1344 H1350 0.930 . S
N1345 Li1321 1.990 . S
N1345 C1344 1.314 . S
N1345 C1348 1.279 . S
C1346 C1344 1.353 . S
C1346 C1349 1.348 . S
C1346 H1394 0.929 . S
C1347 C1348 1.358 . S
C1347 C1349 1.356 . S
C1347 H1395 0.930 . S
C1348 N1345 1.279 . S
C1348 C1347 1.358 . S
C1348 H1351 0.930 . S
C1349 C1346 1.348 . S
C1349 C1347 1.356 . S
H1350 C1344 0.930 . S
H1351 C1348 0.930 . S
C1352 C1354 1.348 . S
C1352 C1355 1.356 . S
C1352 O1382 1.325 . S
N1353 C1356 1.314 . S
N1353 C1357 1.279 . S
C1354 C1352 1.348 . S
C1354 C1356 1.353 . S
C1354 H1396 0.929 . S
C1355 C1352 1.356 . S
C1355 C1357 1.358 . S
C1355 H1397 0.930 . S
C1356 N1353 1.314 . S
C1356 C1354 1.353 . S
C1356 H1398 0.930 . S
C1357 N1353 1.279 . S
C1357 C1355 1.358 . S
C1357 H1399 0.930 . S
C1358 C1359 1.348 . S
C1358 C1360 1.356 . S
C1358 O1383 1.325 . S
C1359 C1358 1.348 . S
C1359 C1361 1.353 . S
C1359 H1400 0.929 . S
C1360 C1358 1.356 . S
C1360 C1362 1.358 . S
C1360 H1401 0.930 . S
C1361 C1359 1.353 . S
C1361 N1363 1.314 . S
C1361 H1402 0.930 . S
C1362 C1360 1.358 . S
C1362 N1363 1.279 . S
C1362 H1403 0.930 . S
N1363 C1361 1.314 . S
N1363 C1362 1.279 . S
C1364 C1366 1.353 . S
C1364 N1367 1.314 . S
C1364 H1370 0.930 . S
C1365 N1367 1.279 . S
C1365 C1368 1.358 . S
C1365 H1371 0.930 . S
C1366 C1364 1.353 . S
C1366 C1369 1.348 . S
C1366 H1404 0.929 . S
N1367 Li1322 1.990 . S
N1367 C1364 1.314 . S
N1367 C1365 1.279 . S
C1368 C1365 1.358 . S
C1368 C1369 1.356 . S
C1368 H1405 0.930 . S
C1369 C1366 1.348 . S
C1369 C1368 1.356 . S
H1370 C1364 0.930 . S
H1371 C1365 0.930 . S
C1372 N1373 1.314 . S
C1372 C1374 1.353 . S
C1372 H1378 0.930 . S
N1373 Li1323 1.990 . S
N1373 C1372 1.314 . S
N1373 C1376 1.279 . S
C1374 C1372 1.353 . S
C1374 C1377 1.348 . S
C1374 H1406 0.929 . S
C1375 C1376 1.358 . S
C1375 C1377 1.356 . S
C1375 H1407 0.930 . S
C1376 N1373 1.279 . S
C1376 C1375 1.358 . S
C1376 H1379 0.930 . S
C1377 C1374 1.348 . S
C1377 C1375 1.356 . S
H1378 C1372 0.930 . S
H1379 C1376 0.930 . S
O1380 Li1320 1.956 . S
O1380 Li1321 1.970 . S
O1380 Li1322 1.961 . S
O1380 C1324 1.325 . S
O1381 Li1320 1.970 . S
O1381 Li1321 1.956 . S
O1381 Li1323 1.961 . S
O1381 C1330 1.325 . S
O1382 Li1320 1.961 . S
O1382 Li1322 1.956 . S
O1382 Li1323 1.970 . S
O1382 C1352 1.325 . S
O1383 Li1321 1.961 . S
O1383 Li1322 1.970 . S
O1383 Li1323 1.956 . S
O1383 C1358 1.325 . S
H1384 C1326 0.929 . S
H1385 C1327 0.930 . S
H1386 C1328 0.930 . S
H1387 C1329 0.930 . S
H1388 C1331 0.930 . S
H1389 C1333 0.929 . S
H1390 C1334 0.930 . S
H1391 C1335 0.930 . S
H1392 C1338 0.930 . S
H1393 C1341 0.929 . S
H1394 C1346 0.929 . S
H1395 C1347 0.930 . S
H1396 C1354 0.929 . S
H1397 C1355 0.930 . S
H1398 C1356 0.930 . S
H1399 C1357 0.930 . S
H1400 C1359 0.929 . S
H1401 C1360 0.930 . S
H1402 C1361 0.930 . S
H1403 C1362 0.930 . S
H1404 C1366 0.929 . S
H1405 C1368 0.930 . S
H1406 C1374 0.929 . S
H1407 C1375 0.930 . S
H1408 C1426 0.951 . S
H1409 C1428 0.951 . S
H1410 C1430 0.950 . S
H1411 C1431 0.950 . S
H1412 C1433 0.950 . S
H1413 C1436 0.950 . S
H1414 C1437 0.950 . S
H1415 C1439 0.950 . S
H1416 C1440 0.950 . S
H1417 C1441 0.951 . S
H1418 C1443 0.951 . S
H1419 C1445 0.950 . S
H1420 C1446 0.950 . S
H1421 C1448 0.950 . S
H1422 C1451 0.950 . S
H1423 C1452 0.950 . S
H1424 C1454 0.950 . S
H1425 C1455 0.950 . S
C1426 H1408 0.951 . S
C1426 C1427 1.366 . S
C1426 C1428 1.388 . S
C1427 C1426 1.366 . S
C1427 C1431 1.385 . S
C1428 H1409 0.951 . S
C1428 C1426 1.388 . S
C1428 C1429 1.366 . S
C1429 C1428 1.366 . S
C1429 C1430 1.414 . S
C1429 C1432 1.499 . S
C1430 H1410 0.950 . S
C1430 C1429 1.414 . S
C1430 C1431 1.374 . S
C1431 H1411 0.950 . S
C1431 C1427 1.385 . S
C1431 C1430 1.374 . S
C1432 C1429 1.499 . S
C1432 C1433 1.373 . S
C1432 C1434 1.389 . S
C1433 H1412 0.950 . S
C1433 C1432 1.373 . S
C1433 C1449 1.377 . S
C1434 C1432 1.389 . S
C1434 C1435 1.524 . S
C1434 C1448 1.377 . S
C1435 C1434 1.524 . S
C1435 C1436 1.397 . S
C1435 C1440 1.363 . S
C1436 H1413 0.950 . S
C1436 C1435 1.397 . S
C1436 C1437 1.334 . S
C1437 H1414 0.950 . S
C1437 C1436 1.334 . S
C1437 C1438 1.287 . S
C1438 C1437 1.287 . S
C1438 C1439 1.524 . S
C1438 H1457 0.913 . S
C1439 H1415 0.950 . S
C1439 C1438 1.524 . S
C1439 C1440 1.415 . S
C1440 H1416 0.950 . S
C1440 C1435 1.363 . S
C1440 C1439 1.415 . S
C1441 H1417 0.951 . S
C1441 C1442 1.366 . S
C1441 C1443 1.388 . S
C1442 C1441 1.366 . S
C1442 C1446 1.385 . S
C1443 H1418 0.951 . S
C1443 C1441 1.388 . S
C1443 C1444 1.366 . S
C1444 C1443 1.366 . S
C1444 C1445 1.414 . S
C1444 C1447 1.499 . S
C1445 H1419 0.950 . S
C1445 C1444 1.414 . S
C1445 C1446 1.374 . S
C1446 H1420 0.950 . S
C1446 C1442 1.385 . S
C1446 C1445 1.374 . S
C1447 C1444 1.499 . S
C1447 C1448 1.373 . S
C1447 C1449 1.389 . S
C1448 H1421 0.950 . S
C1448 C1434 1.377 . S
C1448 C1447 1.373 . S
C1449 C1433 1.377 . S
C1449 C1447 1.389 . S
C1449 C1450 1.524 . S
C1450 C1449 1.524 . S
C1450 C1451 1.397 . S
C1450 C1455 1.363 . S
C1451 H1422 0.950 . S
C1451 C1450 1.397 . S
C1451 C1452 1.334 . S
C1452 H1423 0.950 . S
C1452 C1451 1.334 . S
C1452 C1453 1.287 . S
C1453 C1452 1.287 . S
C1453 C1454 1.524 . S
C1453 H1456 0.999 . S
C1454 H1424 0.950 . S
C1454 C1453 1.524 . S
C1454 C1455 1.415 . S
C1455 H1425 0.950 . S
C1455 C1450 1.363 . S
C1455 C1454 1.415 . S
H1456 C1453 0.999 . S
H1457 C1438 0.913 . S
H1458 C1476 0.951 . S
H1459 C1478 0.951 . S
H1460 C1480 0.950 . S
H1461 C1481 0.950 . S
H1462 C1483 0.950 . S
H1463 C1486 0.950 . S
H1464 C1487 0.950 . S
H1465 C1489 0.950 . S
H1466 C1490 0.950 . S
H1467 C1491 0.951 . S
H1468 C1493 0.951 . S
H1469 C1495 0.950 . S
H1470 C1496 0.950 . S
H1471 C1498 0.950 . S
H1472 C1501 0.950 . S
H1473 C1502 0.950 . S
H1474 C1504 0.950 . S
H1475 C1505 0.950 . S
C1476 H1458 0.951 . S
C1476 C1477 1.366 . S
C1476 C1478 1.388 . S
C1477 C1476 1.366 . S
C1477 C1481 1.385 . S
C1478 H1459 0.951 . S
C1478 C1476 1.388 . S
C1478 C1479 1.366 . S
C1479 C1478 1.366 . S
C1479 C1480 1.414 . S
C1479 C1482 1.499 . S
C1480 H1460 0.950 . S
C1480 C1479 1.414 . S
C1480 C1481 1.374 . S
C1481 H1461 0.950 . S
C1481 C1477 1.385 . S
C1481 C1480 1.374 . S
C1482 C1479 1.499 . S
C1482 C1483 1.373 . S
C1482 C1484 1.389 . S
C1483 H1462 0.950 . S
C1483 C1482 1.373 . S
C1483 C1499 1.377 . S
C1484 C1482 1.389 . S
C1484 C1485 1.524 . S
C1484 C1498 1.377 . S
C1485 C1484 1.524 . S
C1485 C1486 1.397 . S
C1485 C1490 1.363 . S
C1486 H1463 0.950 . S
C1486 C1485 1.397 . S
C1486 C1487 1.334 . S
C1487 H1464 0.950 . S
C1487 C1486 1.334 . S
C1487 C1488 1.287 . S
C1488 C1487 1.287 . S
C1488 C1489 1.524 . S
C1488 H1507 0.913 . S
C1489 H1465 0.950 . S
C1489 C1488 1.524 . S
C1489 C1490 1.415 . S
C1490 H1466 0.950 . S
C1490 C1485 1.363 . S
C1490 C1489 1.415 . S
C1491 H1467 0.951 . S
C1491 C1492 1.366 . S
C1491 C1493 1.388 . S
C1492 C1491 1.366 . S
C1492 C1496 1.385 . S
C1493 H1468 0.951 . S
C1493 C1491 1.388 . S
C1493 C1494 1.366 . S
C1494 C1493 1.366 . S
C1494 C1495 1.414 . S
C1494 C1497 1.499 . S
C1495 H1469 0.950 . S
C1495 C1494 1.414 . S
C1495 C1496 1.374 . S
C1496 H1470 0.950 . S
C1496 C1492 1.385 . S
C1496 C1495 1.374 . S
C1497 C1494 1.499 . S
C1497 C1498 1.373 . S
C1497 C1499 1.389 . S
C1498 H1471 0.950 . S
C1498 C1484 1.377 . S
C1498 C1497 1.373 . S
C1499 C1483 1.377 . S
C1499 C1497 1.389 . S
C1499 C1500 1.524 . S
C1500 C1499 1.524 . S
C1500 C1501 1.397 . S
C1500 C1505 1.363 . S
C1501 H1472 0.950 . S
C1501 C1500 1.397 . S
C1501 C1502 1.334 . S
C1502 H1473 0.950 . S
C1502 C1501 1.334 . S
C1502 C1503 1.287 . S
C1503 C1502 1.287 . S
C1503 C1504 1.524 . S
C1503 H1506 0.999 . S
C1504 H1474 0.950 . S
C1504 C1503 1.524 . S
C1504 C1505 1.415 . S
C1505 H1475 0.950 . S
C1505 C1500 1.363 . S
C1505 C1504 1.415 . S
H1506 C1503 0.999 . S
H1507 C1488 0.913 . S
H1508 C1526 0.951 . S
H1509 C1528 0.951 . S
H1510 C1530 0.950 . S
H1511 C1531 0.950 . S
H1512 C1533 0.950 . S
H1513 C1536 0.950 . S
H1514 C1537 0.950 . S
H1515 C1539 0.950 . S
H1516 C1540 0.950 . S
H1517 C1541 0.951 . S
H1518 C1543 0.951 . S
H1519 C1545 0.950 . S
H1520 C1546 0.950 . S
H1521 C1548 0.950 . S
H1522 C1551 0.950 . S
H1523 C1552 0.950 . S
H1524 C1554 0.950 . S
H1525 C1555 0.950 . S
C1526 H1508 0.951 . S
C1526 C1527 1.366 . S
C1526 C1528 1.388 . S
C1527 C1526 1.366 . S
C1527 C1531 1.385 . S
C1528 H1509 0.951 . S
C1528 C1526 1.388 . S
C1528 C1529 1.366 . S
C1529 C1528 1.366 . S
C1529 C1530 1.414 . S
C1529 C1532 1.499 . S
C1530 H1510 0.950 . S
C1530 C1529 1.414 . S
C1530 C1531 1.374 . S
C1531 H1511 0.950 . S
C1531 C1527 1.385 . S
C1531 C1530 1.374 . S
C1532 C1529 1.499 . S
C1532 C1533 1.373 . S
C1532 C1534 1.389 . S
C1533 H1512 0.950 . S
C1533 C1532 1.373 . S
C1533 C1549 1.377 . S
C1534 C1532 1.389 . S
C1534 C1535 1.524 . S
C1534 C1548 1.377 . S
C1535 C1534 1.524 . S
C1535 C1536 1.397 . S
C1535 C1540 1.363 . S
C1536 H1513 0.950 . S
C1536 C1535 1.397 . S
C1536 C1537 1.334 . S
C1537 H1514 0.950 . S
C1537 C1536 1.334 . S
C1537 C1538 1.287 . S
C1538 C1537 1.287 . S
C1538 C1539 1.524 . S
C1538 H1557 0.913 . S
C1539 H1515 0.950 . S
C1539 C1538 1.524 . S
C1539 C1540 1.415 . S
C1540 H1516 0.950 . S
C1540 C1535 1.363 . S
C1540 C1539 1.415 . S
C1541 H1517 0.951 . S
C1541 C1542 1.366 . S
C1541 C1543 1.388 . S
C1542 C1541 1.366 . S
C1542 C1546 1.385 . S
C1543 H1518 0.951 . S
C1543 C1541 1.388 . S
C1543 C1544 1.366 . S
C1544 C1543 1.366 . S
C1544 C1545 1.414 . S
C1544 C1547 1.499 . S
C1545 H1519 0.950 . S
C1545 C1544 1.414 . S
C1545 C1546 1.374 . S
C1546 H1520 0.950 . S
C1546 C1542 1.385 . S
C1546 C1545 1.374 . S
C1547 C1544 1.499 . S
C1547 C1548 1.373 . S
C1547 C1549 1.389 . S
C1548 H1521 0.950 . S
C1548 C1534 1.377 . S
C1548 C1547 1.373 . S
C1549 C1533 1.377 . S
C1549 C1547 1.389 . S
C1549 C1550 1.524 . S
C1550 C1549 1.524 . S
C1550 C1551 1.397 . S
C1550 C1555 1.363 . S
C1551 H1522 0.950 . S
C1551 C1550 1.397 . S
C1551 C1552 1.334 . S
C1552 H1523 0.950 . S
C1552 C1551 1.334 . S
C1552 C1553 1.287 . S
C1553 C1552 1.287 . S
C1553 C1554 1.524 . S
C1553 H1556 0.999 . S
C1554 H1524 0.950 . S
C1554 C1553 1.524 . S
C1554 C1555 1.415 . S
C1555 H1525 0.950 . S
C1555 C1550 1.363 . S
C1555 C1554 1.415 . S
H1556 C1553 0.999 . S
H1557 C1538 0.913 . S
H1558 C1576 0.951 . S
H1559 C1578 0.951 . S
H1560 C1580 0.950 . S
H1561 C1581 0.950 . S
H1562 C1583 0.950 . S
H1563 C1586 0.950 . S
H1564 C1587 0.950 . S
H1565 C1589 0.950 . S
H1566 C1590 0.950 . S
H1567 C1591 0.951 . S
H1568 C1593 0.951 . S
H1569 C1595 0.950 . S
H1570 C1596 0.950 . S
H1571 C1598 0.950 . S
H1572 C1601 0.950 . S
H1573 C1602 0.950 . S
H1574 C1604 0.950 . S
H1575 C1605 0.950 . S
C1576 H1558 0.951 . S
C1576 C1577 1.366 . S
C1576 C1578 1.388 . S
C1577 C1576 1.366 . S
C1577 C1581 1.385 . S
C1578 H1559 0.951 . S
C1578 C1576 1.388 . S
C1578 C1579 1.366 . S
C1579 C1578 1.366 . S
C1579 C1580 1.414 . S
C1579 C1582 1.499 . S
C1580 H1560 0.950 . S
C1580 C1579 1.414 . S
C1580 C1581 1.374 . S
C1581 H1561 0.950 . S
C1581 C1577 1.385 . S
C1581 C1580 1.374 . S
C1582 C1579 1.499 . S
C1582 C1583 1.373 . S
C1582 C1584 1.389 . S
C1583 H1562 0.950 . S
C1583 C1582 1.373 . S
C1583 C1599 1.377 . S
C1584 C1582 1.389 . S
C1584 C1585 1.524 . S
C1584 C1598 1.377 . S
C1585 C1584 1.524 . S
C1585 C1586 1.397 . S
C1585 C1590 1.363 . S
C1586 H1563 0.950 . S
C1586 C1585 1.397 . S
C1586 C1587 1.334 . S
C1587 H1564 0.950 . S
C1587 C1586 1.334 . S
C1587 C1588 1.287 . S
C1588 C1587 1.287 . S
C1588 C1589 1.524 . S
C1588 H1607 0.913 . S
C1589 H1565 0.950 . S
C1589 C1588 1.524 . S
C1589 C1590 1.415 . S
C1590 H1566 0.950 . S
C1590 C1585 1.363 . S
C1590 C1589 1.415 . S
C1591 H1567 0.951 . S
C1591 C1592 1.366 . S
C1591 C1593 1.388 . S
C1592 C1591 1.366 . S
C1592 C1596 1.385 . S
C1593 H1568 0.951 . S
C1593 C1591 1.388 . S
C1593 C1594 1.366 . S
C1594 C1593 1.366 . S
C1594 C1595 1.414 . S
C1594 C1597 1.499 . S
C1595 H1569 0.950 . S
C1595 C1594 1.414 . S
C1595 C1596 1.374 . S
C1596 H1570 0.950 . S
C1596 C1592 1.385 . S
C1596 C1595 1.374 . S
C1597 C1594 1.499 . S
C1597 C1598 1.373 . S
C1597 C1599 1.389 . S
C1598 H1571 0.950 . S
C1598 C1584 1.377 . S
C1598 C1597 1.373 . S
C1599 C1583 1.377 . S
C1599 C1597 1.389 . S
C1599 C1600 1.524 . S
C1600 C1599 1.524 . S
C1600 C1601 1.397 . S
C1600 C1605 1.363 . S
C1601 H1572 0.950 . S
C1601 C1600 1.397 . S
C1601 C1602 1.334 . S
C1602 H1573 0.950 . S
C1602 C1601 1.334 . S
C1602 C1603 1.287 . S
C1603 C1602 1.287 . S
C1603 C1604 1.524 . S
C1603 H1606 0.999 . S
C1604 H1574 0.950 . S
C1604 C1603 1.524 . S
C1604 C1605 1.415 . S
C1605 H1575 0.950 . S
C1605 C1600 1.363 . S
C1605 C1604 1.415 . S
H1606 C1603 0.999 . S
H1607 C1588 0.913 . S
H1608 C1626 0.951 . S
H1609 C1628 0.951 . S
H1610 C1630 0.950 . S
H1611 C1631 0.950 . S
H1612 C1633 0.950 . S
H1613 C1636 0.950 . S
H1614 C1637 0.950 . S
H1615 C1639 0.950 . S
H1616 C1640 0.950 . S
H1617 C1641 0.951 . S
H1618 C1643 0.951 . S
H1619 C1645 0.950 . S
H1620 C1646 0.950 . S
H1621 C1648 0.950 . S
H1622 C1651 0.950 . S
H1623 C1652 0.950 . S
H1624 C1654 0.950 . S
H1625 C1655 0.950 . S
C1626 H1608 0.951 . S
C1626 C1627 1.366 . S
C1626 C1628 1.388 . S
C1627 C1626 1.366 . S
C1627 C1631 1.385 . S
C1628 H1609 0.951 . S
C1628 C1626 1.388 . S
C1628 C1629 1.366 . S
C1629 C1628 1.366 . S
C1629 C1630 1.414 . S
C1629 C1632 1.499 . S
C1630 H1610 0.950 . S
C1630 C1629 1.414 . S
C1630 C1631 1.374 . S
C1631 H1611 0.950 . S
C1631 C1627 1.385 . S
C1631 C1630 1.374 . S
C1632 C1629 1.499 . S
C1632 C1633 1.373 . S
C1632 C1634 1.389 . S
C1633 H1612 0.950 . S
C1633 C1632 1.373 . S
C1633 C1649 1.377 . S
C1634 C1632 1.389 . S
C1634 C1635 1.524 . S
C1634 C1648 1.377 . S
C1635 C1634 1.524 . S
C1635 C1636 1.397 . S
C1635 C1640 1.363 . S
C1636 H1613 0.950 . S
C1636 C1635 1.397 . S
C1636 C1637 1.334 . S
C1637 H1614 0.950 . S
C1637 C1636 1.334 . S
C1637 C1638 1.287 . S
C1638 C1637 1.287 . S
C1638 C1639 1.524 . S
C1638 H1657 0.913 . S
C1639 H1615 0.950 . S
C1639 C1638 1.524 . S
C1639 C1640 1.415 . S
C1640 H1616 0.950 . S
C1640 C1635 1.363 . S
C1640 C1639 1.415 . S
C1641 H1617 0.951 . S
C1641 C1642 1.366 . S
C1641 C1643 1.388 . S
C1642 C1641 1.366 . S
C1642 C1646 1.385 . S
C1643 H1618 0.951 . S
C1643 C1641 1.388 . S
C1643 C1644 1.366 . S
C1644 C1643 1.366 . S
C1644 C1645 1.414 . S
C1644 C1647 1.499 . S
C1645 H1619 0.950 . S
C1645 C1644 1.414 . S
C1645 C1646 1.374 . S
C1646 H1620 0.950 . S
C1646 C1642 1.385 . S
C1646 C1645 1.374 . S
C1647 C1644 1.499 . S
C1647 C1648 1.373 . S
C1647 C1649 1.389 . S
C1648 H1621 0.950 . S
C1648 C1634 1.377 . S
C1648 C1647 1.373 . S
C1649 C1633 1.377 . S
C1649 C1647 1.389 . S
C1649 C1650 1.524 . S
C1650 C1649 1.524 . S
C1650 C1651 1.397 . S
C1650 C1655 1.363 . S
C1651 H1622 0.950 . S
C1651 C1650 1.397 . S
C1651 C1652 1.334 . S
C1652 H1623 0.950 . S
C1652 C1651 1.334 . S
C1652 C1653 1.287 . S
C1653 C1652 1.287 . S
C1653 C1654 1.524 . S
C1653 H1656 0.999 . S
C1654 H1624 0.950 . S
C1654 C1653 1.524 . S
C1654 C1655 1.415 . S
C1655 H1625 0.950 . S
C1655 C1650 1.363 . S
C1655 C1654 1.415 . S
H1656 C1653 0.999 . S
H1657 C1638 0.913 . S
H1658 C1676 0.951 . S
H1659 C1678 0.951 . S
H1660 C1680 0.950 . S
H1661 C1681 0.950 . S
H1662 C1683 0.950 . S
H1663 C1686 0.950 . S
H1664 C1687 0.950 . S
H1665 C1689 0.950 . S
H1666 C1690 0.950 . S
H1667 C1691 0.951 . S
H1668 C1693 0.951 . S
H1669 C1695 0.950 . S
H1670 C1696 0.950 . S
H1671 C1698 0.950 . S
H1672 C1701 0.950 . S
H1673 C1702 0.950 . S
H1674 C1704 0.950 . S
H1675 C1705 0.950 . S
C1676 H1658 0.951 . S
C1676 C1677 1.366 . S
C1676 C1678 1.388 . S
C1677 C1676 1.366 . S
C1677 C1681 1.385 . S
C1678 H1659 0.951 . S
C1678 C1676 1.388 . S
C1678 C1679 1.366 . S
C1679 C1678 1.366 . S
C1679 C1680 1.414 . S
C1679 C1682 1.499 . S
C1680 H1660 0.950 . S
C1680 C1679 1.414 . S
C1680 C1681 1.374 . S
C1681 H1661 0.950 . S
C1681 C1677 1.385 . S
C1681 C1680 1.374 . S
C1682 C1679 1.499 . S
C1682 C1683 1.373 . S
C1682 C1684 1.389 . S
C1683 H1662 0.950 . S
C1683 C1682 1.373 . S
C1683 C1699 1.377 . S
C1684 C1682 1.389 . S
C1684 C1685 1.524 . S
C1684 C1698 1.377 . S
C1685 C1684 1.524 . S
C1685 C1686 1.397 . S
C1685 C1690 1.363 . S
C1686 H1663 0.950 . S
C1686 C1685 1.397 . S
C1686 C1687 1.334 . S
C1687 H1664 0.950 . S
C1687 C1686 1.334 . S
C1687 C1688 1.287 . S
C1688 C1687 1.287 . S
C1688 C1689 1.524 . S
C1688 H1707 0.913 . S
C1689 H1665 0.950 . S
C1689 C1688 1.524 . S
C1689 C1690 1.415 . S
C1690 H1666 0.950 . S
C1690 C1685 1.363 . S
C1690 C1689 1.415 . S
C1691 H1667 0.951 . S
C1691 C1692 1.366 . S
C1691 C1693 1.388 . S
C1692 C1691 1.366 . S
C1692 C1696 1.385 . S
C1693 H1668 0.951 . S
C1693 C1691 1.388 . S
C1693 C1694 1.366 . S
C1694 C1693 1.366 . S
C1694 C1695 1.414 . S
C1694 C1697 1.499 . S
C1695 H1669 0.950 . S
C1695 C1694 1.414 . S
C1695 C1696 1.374 . S
C1696 H1670 0.950 . S
C1696 C1692 1.385 . S
C1696 C1695 1.374 . S
C1697 C1694 1.499 . S
C1697 C1698 1.373 . S
C1697 C1699 1.389 . S
C1698 H1671 0.950 . S
C1698 C1684 1.377 . S
C1698 C1697 1.373 . S
C1699 C1683 1.377 . S
C1699 C1697 1.389 . S
C1699 C1700 1.524 . S
C1700 C1699 1.524 . S
C1700 C1701 1.397 . S
C1700 C1705 1.363 . S
C1701 H1672 0.950 . S
C1701 C1700 1.397 . S
C1701 C1702 1.334 . S
C1702 H1673 0.950 . S
C1702 C1701 1.334 . S
C1702 C1703 1.287 . S
C1703 C1702 1.287 . S
C1703 C1704 1.524 . S
C1703 H1706 0.999 . S
C1704 H1674 0.950 . S
C1704 C1703 1.524 . S
C1704 C1705 1.415 . S
C1705 H1675 0.950 . S
C1705 C1700 1.363 . S
C1705 C1704 1.415 . S
H1706 C1703 0.999 . S
H1707 C1688 0.913 . S
H1708 C1726 0.951 . S
H1709 C1728 0.951 . S
H1710 C1730 0.950 . S
H1711 C1731 0.950 . S
H1712 C1733 0.950 . S
H1713 C1736 0.950 . S
H1714 C1737 0.950 . S
H1715 C1739 0.950 . S
H1716 C1740 0.950 . S
H1717 C1741 0.951 . S
H1718 C1743 0.951 . S
H1719 C1745 0.950 . S
H1720 C1746 0.950 . S
H1721 C1748 0.950 . S
H1722 C1751 0.950 . S
H1723 C1752 0.950 . S
H1724 C1754 0.950 . S
H1725 C1755 0.950 . S
C1726 H1708 0.951 . S
C1726 C1727 1.366 . S
C1726 C1728 1.388 . S
C1727 C1726 1.366 . S
C1727 C1731 1.385 . S
C1728 H1709 0.951 . S
C1728 C1726 1.388 . S
C1728 C1729 1.366 . S
C1729 C1728 1.366 . S
C1729 C1730 1.414 . S
C1729 C1732 1.499 . S
C1730 H1710 0.950 . S
C1730 C1729 1.414 . S
C1730 C1731 1.374 . S
C1731 H1711 0.950 . S
C1731 C1727 1.385 . S
C1731 C1730 1.374 . S
C1732 C1729 1.499 . S
C1732 C1733 1.373 . S
C1732 C1734 1.389 . S
C1733 H1712 0.950 . S
C1733 C1732 1.373 . S
C1733 C1749 1.377 . S
C1734 C1732 1.389 . S
C1734 C1735 1.524 . S
C1734 C1748 1.377 . S
C1735 C1734 1.524 . S
C1735 C1736 1.397 . S
C1735 C1740 1.363 . S
C1736 H1713 0.950 . S
C1736 C1735 1.397 . S
C1736 C1737 1.334 . S
C1737 H1714 0.950 . S
C1737 C1736 1.334 . S
C1737 C1738 1.287 . S
C1738 C1737 1.287 . S
C1738 C1739 1.524 . S
C1738 H1757 0.913 . S
C1739 H1715 0.950 . S
C1739 C1738 1.524 . S
C1739 C1740 1.415 . S
C1740 H1716 0.950 . S
C1740 C1735 1.363 . S
C1740 C1739 1.415 . S
C1741 H1717 0.951 . S
C1741 C1742 1.366 . S
C1741 C1743 1.388 . S
C1742 C1741 1.366 . S
C1742 C1746 1.385 . S
C1743 H1718 0.951 . S
C1743 C1741 1.388 . S
C1743 C1744 1.366 . S
C1744 C1743 1.366 . S
C1744 C1745 1.414 . S
C1744 C1747 1.499 . S
C1745 H1719 0.950 . S
C1745 C1744 1.414 . S
C1745 C1746 1.374 . S
C1746 H1720 0.950 . S
C1746 C1742 1.385 . S
C1746 C1745 1.374 . S
C1747 C1744 1.499 . S
C1747 C1748 1.373 . S
C1747 C1749 1.389 . S
C1748 H1721 0.950 . S
C1748 C1734 1.377 . S
C1748 C1747 1.373 . S
C1749 C1733 1.377 . S
C1749 C1747 1.389 . S
C1749 C1750 1.524 . S
C1750 C1749 1.524 . S
C1750 C1751 1.397 . S
C1750 C1755 1.363 . S
C1751 H1722 0.950 . S
C1751 C1750 1.397 . S
C1751 C1752 1.334 . S
C1752 H1723 0.950 . S
C1752 C1751 1.334 . S
C1752 C1753 1.287 . S
C1753 C1752 1.287 . S
C1753 C1754 1.524 . S
C1753 H1756 0.999 . S
C1754 H1724 0.950 . S
C1754 C1753 1.524 . S
C1754 C1755 1.415 . S
C1755 H1725 0.950 . S
C1755 C1750 1.363 . S
C1755 C1754 1.415 . S
H1756 C1753 0.999 . S
H1757 C1738 0.913 . S
H1758 C1776 0.951 . S
H1759 C1778 0.951 . S
H1760 C1780 0.950 . S
H1761 C1781 0.950 . S
H1762 C1783 0.950 . S
H1763 C1786 0.950 . S
H1764 C1787 0.950 . S
H1765 C1789 0.950 . S
H1766 C1790 0.950 . S
H1767 C1791 0.951 . S
H1768 C1793 0.951 . S
H1769 C1795 0.950 . S
H1770 C1796 0.950 . S
H1771 C1798 0.950 . S
H1772 C1801 0.950 . S
H1773 C1802 0.950 . S
H1774 C1804 0.950 . S
H1775 C1805 0.950 . S
C1776 H1758 0.951 . S
C1776 C1777 1.366 . S
C1776 C1778 1.388 . S
C1777 C1776 1.366 . S
C1777 C1781 1.385 . S
C1778 H1759 0.951 . S
C1778 C1776 1.388 . S
C1778 C1779 1.366 . S
C1779 C1778 1.366 . S
C1779 C1780 1.414 . S
C1779 C1782 1.499 . S
C1780 H1760 0.950 . S
C1780 C1779 1.414 . S
C1780 C1781 1.374 . S
C1781 H1761 0.950 . S
C1781 C1777 1.385 . S
C1781 C1780 1.374 . S
C1782 C1779 1.499 . S
C1782 C1783 1.373 . S
C1782 C1784 1.389 . S
C1783 H1762 0.950 . S
C1783 C1782 1.373 . S
C1783 C1799 1.377 . S
C1784 C1782 1.389 . S
C1784 C1785 1.524 . S
C1784 C1798 1.377 . S
C1785 C1784 1.524 . S
C1785 C1786 1.397 . S
C1785 C1790 1.363 . S
C1786 H1763 0.950 . S
C1786 C1785 1.397 . S
C1786 C1787 1.334 . S
C1787 H1764 0.950 . S
C1787 C1786 1.334 . S
C1787 C1788 1.287 . S
C1788 C1787 1.287 . S
C1788 C1789 1.524 . S
C1788 H1807 0.913 . S
C1789 H1765 0.950 . S
C1789 C1788 1.524 . S
C1789 C1790 1.415 . S
C1790 H1766 0.950 . S
C1790 C1785 1.363 . S
C1790 C1789 1.415 . S
C1791 H1767 0.951 . S
C1791 C1792 1.366 . S
C1791 C1793 1.388 . S
C1792 C1791 1.366 . S
C1792 C1796 1.385 . S
C1793 H1768 0.951 . S
C1793 C1791 1.388 . S
C1793 C1794 1.366 . S
C1794 C1793 1.366 . S
C1794 C1795 1.414 . S
C1794 C1797 1.499 . S
C1795 H1769 0.950 . S
C1795 C1794 1.414 . S
C1795 C1796 1.374 . S
C1796 H1770 0.950 . S
C1796 C1792 1.385 . S
C1796 C1795 1.374 . S
C1797 C1794 1.499 . S
C1797 C1798 1.373 . S
C1797 C1799 1.389 . S
C1798 H1771 0.950 . S
C1798 C1784 1.377 . S
C1798 C1797 1.373 . S
C1799 C1783 1.377 . S
C1799 C1797 1.389 . S
C1799 C1800 1.524 . S
C1800 C1799 1.524 . S
C1800 C1801 1.397 . S
C1800 C1805 1.363 . S
C1801 H1772 0.950 . S
C1801 C1800 1.397 . S
C1801 C1802 1.334 . S
C1802 H1773 0.950 . S
C1802 C1801 1.334 . S
C1802 C1803 1.287 . S
C1803 C1802 1.287 . S
C1803 C1804 1.524 . S
C1803 H1806 0.999 . S
C1804 H1774 0.950 . S
C1804 C1803 1.524 . S
C1804 C1805 1.415 . S
C1805 H1775 0.950 . S
C1805 C1800 1.363 . S
C1805 C1804 1.415 . S
H1806 C1803 0.999 . S
H1807 C1788 0.913 . S
H1808 C1826 0.951 . S
H1809 C1828 0.951 . S
H1810 C1830 0.950 . S
H1811 C1831 0.950 . S
H1812 C1833 0.950 . S
H1813 C1836 0.950 . S
H1814 C1837 0.950 . S
H1815 C1839 0.950 . S
H1816 C1840 0.950 . S
H1817 C1841 0.951 . S
H1818 C1843 0.951 . S
H1819 C1845 0.950 . S
H1820 C1846 0.950 . S
H1821 C1848 0.950 . S
H1822 C1851 0.950 . S
H1823 C1852 0.950 . S
H1824 C1854 0.950 . S
H1825 C1855 0.950 . S
C1826 H1808 0.951 . S
C1826 C1827 1.366 . S
C1826 C1828 1.388 . S
C1827 C1826 1.366 . S
C1827 C1831 1.385 . S
C1828 H1809 0.951 . S
C1828 C1826 1.388 . S
C1828 C1829 1.366 . S
C1829 C1828 1.366 . S
C1829 C1830 1.414 . S
C1829 C1832 1.499 . S
C1830 H1810 0.950 . S
C1830 C1829 1.414 . S
C1830 C1831 1.374 . S
C1831 H1811 0.950 . S
C1831 C1827 1.385 . S
C1831 C1830 1.374 . S
C1832 C1829 1.499 . S
C1832 C1833 1.373 . S
C1832 C1834 1.389 . S
C1833 H1812 0.950 . S
C1833 C1832 1.373 . S
C1833 C1849 1.377 . S
C1834 C1832 1.389 . S
C1834 C1835 1.524 . S
C1834 C1848 1.377 . S
C1835 C1834 1.524 . S
C1835 C1836 1.397 . S
C1835 C1840 1.363 . S
C1836 H1813 0.950 . S
C1836 C1835 1.397 . S
C1836 C1837 1.334 . S
C1837 H1814 0.950 . S
C1837 C1836 1.334 . S
C1837 C1838 1.287 . S
C1838 C1837 1.287 . S
C1838 C1839 1.524 . S
C1838 H1857 0.913 . S
C1839 H1815 0.950 . S
C1839 C1838 1.524 . S
C1839 C1840 1.415 . S
C1840 H1816 0.950 . S
C1840 C1835 1.363 . S
C1840 C1839 1.415 . S
C1841 H1817 0.951 . S
C1841 C1842 1.366 . S
C1841 C1843 1.388 . S
C1842 C1841 1.366 . S
C1842 C1846 1.385 . S
C1843 H1818 0.951 . S
C1843 C1841 1.388 . S
C1843 C1844 1.366 . S
C1844 C1843 1.366 . S
C1844 C1845 1.414 . S
C1844 C1847 1.499 . S
C1845 H1819 0.950 . S
C1845 C1844 1.414 . S
C1845 C1846 1.374 . S
C1846 H1820 0.950 . S
C1846 C1842 1.385 . S
C1846 C1845 1.374 . S
C1847 C1844 1.499 . S
C1847 C1848 1.373 . S
C1847 C1849 1.389 . S
C1848 H1821 0.950 . S
C1848 C1834 1.377 . S
C1848 C1847 1.373 . S
C1849 C1833 1.377 . S
C1849 C1847 1.389 . S
C1849 C1850 1.524 . S
C1850 C1849 1.524 . S
C1850 C1851 1.397 . S
C1850 C1855 1.363 . S
C1851 H1822 0.950 . S
C1851 C1850 1.397 . S
C1851 C1852 1.334 . S
C1852 H1823 0.950 . S
C1852 C1851 1.334 . S
C1852 C1853 1.287 . S
C1853 C1852 1.287 . S
C1853 C1854 1.524 . S
C1853 H1856 0.999 . S
C1854 H1824 0.950 . S
C1854 C1853 1.524 . S
C1854 C1855 1.415 . S
C1855 H1825 0.950 . S
C1855 C1850 1.363 . S
C1855 C1854 1.415 . S
H1856 C1853 0.999 . S
H1857 C1838 0.913 . S
H1858 C1876 0.951 . S
H1859 C1878 0.951 . S
H1860 C1880 0.950 . S
H1861 C1881 0.950 . S
H1862 C1883 0.950 . S
H1863 C1886 0.950 . S
H1864 C1887 0.950 . S
H1865 C1889 0.950 . S
H1866 C1890 0.950 1_545 S
H1867 C1891 0.951 . S
H1868 C1893 0.951 . S
H1869 C1895 0.950 . S
H1870 C1896 0.950 . S
H1871 C1898 0.950 . S
H1872 C1901 0.950 . S
H1873 C1902 0.950 . S
H1874 C1904 0.950 . S
H1875 C1905 0.950 1_565 S
C1876 H1858 0.951 . S
C1876 C1877 1.366 . S
C1876 C1878 1.388 . S
C1877 C1876 1.366 . S
C1877 C1881 1.385 1_645 S
C1878 H1859 0.951 . S
C1878 C1876 1.388 . S
C1878 C1879 1.366 . S
C1879 C1878 1.366 . S
C1879 C1880 1.414 1_645 S
C1879 C1882 1.503 . S
C1880 H1860 0.950 . S
C1880 C1879 1.414 1_465 S
C1880 C1881 1.374 . S
C1881 H1861 0.950 . S
C1881 C1877 1.385 1_465 S
C1881 C1880 1.374 . S
C1882 C1879 1.503 . S
C1882 C1883 1.383 1_655 S
C1882 C1884 1.379 1_545 S
C1883 H1862 0.950 . S
C1883 C1882 1.383 1_455 S
C1883 C1899 1.377 . S
C1884 C1882 1.379 1_565 S
C1884 C1885 1.524 . S
C1884 C1898 1.377 . S
C1885 C1884 1.524 . S
C1885 C1886 1.397 . S
C1885 C1890 1.363 . S
C1886 H1863 0.950 . S
C1886 C1885 1.397 . S
C1886 C1887 1.334 . S
C1887 H1864 0.950 . S
C1887 C1886 1.334 . S
C1887 C1888 1.287 . S
C1888 C1887 1.287 . S
C1888 C1889 1.524 . S
C1888 H1907 0.913 . S
C1889 H1865 0.950 . S
C1889 C1888 1.524 . S
C1889 C1890 1.415 . S
C1890 H1866 0.950 1_565 S
C1890 C1885 1.363 . S
C1890 C1889 1.415 . S
C1891 H1867 0.951 . S
C1891 C1892 1.366 1_455 S
C1891 C1893 1.388 . S
C1892 C1891 1.366 1_655 S
C1892 C1896 1.385 1_565 S
C1893 H1868 0.951 . S
C1893 C1891 1.388 . S
C1893 C1894 1.366 1_455 S
C1894 C1893 1.366 1_655 S
C1894 C1895 1.414 1_565 S
C1894 C1897 1.505 . S
C1895 H1869 0.950 . S
C1895 C1894 1.414 1_545 S
C1895 C1896 1.374 . S
C1896 H1870 0.950 . S
C1896 C1892 1.385 1_545 S
C1896 C1895 1.374 . S
C1897 C1894 1.505 . S
C1897 C1898 1.386 . S
C1897 C1899 1.377 1_665 S
C1898 H1871 0.950 . S
C1898 C1884 1.377 . S
C1898 C1897 1.386 . S
C1899 C1883 1.377 . S
C1899 C1897 1.377 1_445 S
C1899 C1900 1.524 . S
C1900 C1899 1.524 . S
C1900 C1901 1.397 . S
C1900 C1905 1.363 . S
C1901 H1872 0.950 . S
C1901 C1900 1.397 . S
C1901 C1902 1.334 . S
C1902 H1873 0.950 . S
C1902 C1901 1.334 . S
C1902 C1903 1.287 . S
C1903 C1902 1.287 . S
C1903 C1904 1.524 . S
C1903 H1906 0.999 . S
C1904 H1874 0.950 . S
C1904 C1903 1.524 . S
C1904 C1905 1.415 . S
C1905 H1875 0.950 1_545 S
C1905 C1900 1.363 . S
C1905 C1904 1.415 . S
H1906 C1903 0.999 . S
H1907 C1888 0.913 . S
H1908 C1926 0.951 . S
H1909 C1928 0.951 . S
H1910 C1930 0.950 . S
H1911 C1931 0.950 . S
H1912 C1933 0.950 . S
H1913 C1936 0.950 . S
H1914 C1937 0.950 . S
H1915 C1939 0.950 . S
H1916 C1940 0.950 . S
H1917 C1941 0.951 . S
H1918 C1943 0.951 . S
H1919 C1945 0.950 . S
H1920 C1946 0.950 . S
H1921 C1948 0.950 . S
H1922 C1951 0.950 . S
H1923 C1952 0.950 . S
H1924 C1954 0.950 . S
H1925 C1955 0.950 . S
C1926 H1908 0.951 . S
C1926 C1927 1.366 . S
C1926 C1928 1.388 . S
C1927 C1926 1.366 . S
C1927 C1931 1.385 . S
C1928 H1909 0.951 . S
C1928 C1926 1.388 . S
C1928 C1929 1.366 . S
C1929 C1928 1.366 . S
C1929 C1930 1.414 . S
C1929 C1932 1.499 . S
C1930 H1910 0.950 . S
C1930 C1929 1.414 . S
C1930 C1931 1.374 . S
C1931 H1911 0.950 . S
C1931 C1927 1.385 . S
C1931 C1930 1.374 . S
C1932 C1929 1.499 . S
C1932 C1933 1.373 . S
C1932 C1934 1.389 . S
C1933 H1912 0.950 . S
C1933 C1932 1.373 . S
C1933 C1949 1.377 1_556 S
C1934 C1932 1.389 . S
C1934 C1935 1.524 . S
C1934 C1948 1.377 1_556 S
C1935 C1934 1.524 . S
C1935 C1936 1.397 . S
C1935 C1940 1.363 . S
C1936 H1913 0.950 . S
C1936 C1935 1.397 . S
C1936 C1937 1.334 . S
C1937 H1914 0.950 . S
C1937 C1936 1.334 . S
C1937 C1938 1.287 . S
C1938 C1937 1.287 . S
C1938 C1939 1.524 . S
C1938 H1957 0.913 . S
C1939 H1915 0.950 . S
C1939 C1938 1.524 . S
C1939 C1940 1.415 . S
C1940 H1916 0.950 . S
C1940 C1935 1.363 . S
C1940 C1939 1.415 . S
C1941 H1917 0.951 . S
C1941 C1942 1.366 . S
C1941 C1943 1.388 . S
C1942 C1941 1.366 . S
C1942 C1946 1.385 . S
C1943 H1918 0.951 . S
C1943 C1941 1.388 . S
C1943 C1944 1.366 . S
C1944 C1943 1.366 . S
C1944 C1945 1.414 . S
C1944 C1947 1.499 . S
C1945 H1919 0.950 . S
C1945 C1944 1.414 . S
C1945 C1946 1.374 . S
C1946 H1920 0.950 . S
C1946 C1942 1.385 . S
C1946 C1945 1.374 . S
C1947 C1944 1.499 . S
C1947 C1948 1.373 . S
C1947 C1949 1.389 . S
C1948 H1921 0.950 . S
C1948 C1934 1.377 1_554 S
C1948 C1947 1.373 . S
C1949 C1933 1.377 1_554 S
C1949 C1947 1.389 . S
C1949 C1950 1.524 . S
C1950 C1949 1.524 . S
C1950 C1951 1.397 . S
C1950 C1955 1.363 . S
C1951 H1922 0.950 . S
C1951 C1950 1.397 . S
C1951 C1952 1.334 . S
C1952 H1923 0.950 . S
C1952 C1951 1.334 . S
C1952 C1953 1.287 . S
C1953 C1952 1.287 . S
C1953 C1954 1.524 . S
C1953 H1956 0.999 . S
C1954 H1924 0.950 . S
C1954 C1953 1.524 . S
C1954 C1955 1.415 . S
C1955 H1925 0.950 . S
C1955 C1950 1.363 . S
C1955 C1954 1.415 . S
H1956 C1953 0.999 . S
H1957 C1938 0.913 . S
H1958 C1976 0.966 . S
H1959 C1978 0.951 . S
H1960 C1980 0.950 . S
H1961 C1981 0.950 . S
H1962 C1983 0.950 . S
H1963 C1986 0.950 . S
H1964 C1987 0.950 . S
H1965 C1989 0.950 . S
H1966 C1990 0.950 1_545 S
H1967 C1991 0.951 . S
H1968 C1993 0.951 . S
H1969 C1995 0.950 . S
H1970 C1996 0.950 . S
H1971 C1998 0.950 . S
H1972 C2001 0.950 . S
H1973 C2002 0.950 . S
H1974 C2004 0.950 . S
H1975 C2005 0.950 1_565 S
C1976 H1958 0.966 . S
C1976 C1977 1.349 1_545 S
C1976 C1978 1.391 . S
C1977 C1976 1.349 1_565 S
C1977 C1981 1.385 . S
C1978 H1959 0.951 . S
C1978 C1976 1.391 . S
C1978 C1979 1.366 1_545 S
C1979 C1978 1.366 1_565 S
C1979 C1980 1.414 . S
C1979 C1982 1.499 . S
C1980 H1960 0.950 . S
C1980 C1979 1.414 . S
C1980 C1981 1.374 . S
C1981 H1961 0.950 . S
C1981 C1977 1.385 . S
C1981 C1980 1.374 . S
C1982 C1979 1.499 . S
C1982 C1983 1.373 1_565 S
C1982 C1984 1.389 . S
C1983 H1962 0.950 . S
C1983 C1982 1.373 1_545 S
C1983 C1999 1.377 . S
C1984 C1982 1.389 . S
C1984 C1985 1.524 . S
C1984 C1998 1.377 . S
C1985 C1984 1.524 . S
C1985 C1986 1.397 . S
C1985 C1990 1.363 . S
C1986 H1963 0.950 . S
C1986 C1985 1.397 . S
C1986 C1987 1.334 . S
C1987 H1964 0.950 . S
C1987 C1986 1.334 . S
C1987 C1988 1.287 . S
C1988 C1987 1.287 . S
C1988 C1989 1.524 . S
C1988 H2007 0.913 . S
C1989 H1965 0.950 . S
C1989 C1988 1.524 . S
C1989 C1990 1.415 . S
C1990 H1966 0.950 1_565 S
C1990 C1985 1.363 . S
C1990 C1989 1.415 . S
C1991 H1967 0.951 . S
C1991 C1992 1.366 1_565 S
C1991 C1993 1.388 . S
C1992 C1991 1.366 1_545 S
C1992 C1996 1.385 . S
C1993 H1968 0.951 . S
C1993 C1991 1.388 . S
C1993 C1994 1.366 1_565 S
C1994 C1993 1.366 1_545 S
C1994 C1995 1.414 . S
C1994 C1997 1.499 . S
C1995 H1969 0.950 . S
C1995 C1994 1.414 . S
C1995 C1996 1.374 . S
C1996 H1970 0.950 . S
C1996 C1992 1.385 . S
C1996 C1995 1.374 . S
C1997 C1994 1.499 . S
C1997 C1998 1.373 1_545 S
C1997 C1999 1.389 . S
C1998 H1971 0.950 . S
C1998 C1984 1.377 . S
C1998 C1997 1.373 1_565 S
C1999 C1983 1.377 . S
C1999 C1997 1.389 . S
C1999 C2000 1.524 . S
C2000 C1999 1.524 . S
C2000 C2001 1.397 . S
C2000 C2005 1.363 . S
C2001 H1972 0.950 . S
C2001 C2000 1.397 . S
C2001 C2002 1.334 . S
C2002 H1973 0.950 . S
C2002 C2001 1.334 . S
C2002 C2003 1.287 . S
C2003 C2002 1.287 . S
C2003 C2004 1.524 . S
C2003 H2006 0.999 . S
C2004 H1974 0.950 . S
C2004 C2003 1.524 . S
C2004 C2005 1.415 . S
C2005 H1975 0.950 1_545 S
C2005 C2000 1.363 . S
C2005 C2004 1.415 . S
H2006 C2003 0.999 . S
H2007 C1988 0.913 . S
H2008 C2026 0.951 . S
H2009 C2028 0.951 . S
H2010 C2030 0.950 . S
H2011 C2031 0.950 . S
H2012 C2033 0.950 . S
H2013 C2036 0.950 . S
H2014 C2037 0.950 . S
H2015 C2039 0.950 . S
H2016 C2040 0.950 . S
H2017 C2041 0.951 . S
H2018 C2043 0.951 . S
H2019 C2045 0.950 . S
H2020 C2046 0.950 . S
H2021 C2048 0.950 . S
H2022 C2051 0.950 . S
H2023 C2052 0.950 . S
H2024 C2054 0.950 . S
H2025 C2055 0.950 . S
C2026 H2008 0.951 . S
C2026 C2027 1.366 . S
C2026 C2028 1.388 . S
C2027 C2026 1.366 . S
C2027 C2031 1.385 . S
C2028 H2009 0.951 . S
C2028 C2026 1.388 . S
C2028 C2029 1.366 . S
C2029 C2028 1.366 . S
C2029 C2030 1.414 . S
C2029 C2032 1.499 . S
C2030 H2010 0.950 . S
C2030 C2029 1.414 . S
C2030 C2031 1.374 . S
C2031 H2011 0.950 . S
C2031 C2027 1.385 . S
C2031 C2030 1.374 . S
C2032 C2029 1.499 . S
C2032 C2033 1.373 . S
C2032 C2034 1.389 . S
C2033 H2012 0.950 . S
C2033 C2032 1.373 . S
C2033 C2049 1.377 . S
C2034 C2032 1.389 . S
C2034 C2035 1.524 . S
C2034 C2048 1.377 . S
C2035 C2034 1.524 . S
C2035 C2036 1.397 . S
C2035 C2040 1.363 . S
C2036 H2013 0.950 . S
C2036 C2035 1.397 . S
C2036 C2037 1.334 . S
C2037 H2014 0.950 . S
C2037 C2036 1.334 . S
C2037 C2038 1.287 . S
C2038 C2037 1.287 . S
C2038 C2039 1.524 . S
C2038 H2057 0.913 . S
C2039 H2015 0.950 . S
C2039 C2038 1.524 . S
C2039 C2040 1.415 . S
C2040 H2016 0.950 . S
C2040 C2035 1.363 . S
C2040 C2039 1.415 . S
C2041 H2017 0.951 . S
C2041 C2042 1.366 . S
C2041 C2043 1.388 . S
C2042 C2041 1.366 . S
C2042 C2046 1.385 . S
C2043 H2018 0.951 . S
C2043 C2041 1.388 . S
C2043 C2044 1.366 . S
C2044 C2043 1.366 . S
C2044 C2045 1.414 . S
C2044 C2047 1.499 . S
C2045 H2019 0.950 . S
C2045 C2044 1.414 . S
C2045 C2046 1.374 . S
C2046 H2020 0.950 . S
C2046 C2042 1.385 . S
C2046 C2045 1.374 . S
C2047 C2044 1.499 . S
C2047 C2048 1.373 . S
C2047 C2049 1.389 . S
C2048 H2021 0.950 . S
C2048 C2034 1.377 . S
C2048 C2047 1.373 . S
C2049 C2033 1.377 . S
C2049 C2047 1.389 . S
C2049 C2050 1.524 . S
C2050 C2049 1.524 . S
C2050 C2051 1.397 . S
C2050 C2055 1.363 . S
C2051 H2022 0.950 . S
C2051 C2050 1.397 . S
C2051 C2052 1.334 . S
C2052 H2023 0.950 . S
C2052 C2051 1.334 . S
C2052 C2053 1.287 . S
C2053 C2052 1.287 . S
C2053 C2054 1.524 . S
C2053 H2056 0.999 . S
C2054 H2024 0.950 . S
C2054 C2053 1.524 . S
C2054 C2055 1.415 . S
C2055 H2025 0.950 . S
C2055 C2050 1.363 . S
C2055 C2054 1.415 . S
H2056 C2053 0.999 . S
H2057 C2038 0.913 . S
H2058 C2076 0.951 . S
H2059 C2078 0.951 . S
H2060 C2080 0.950 . S
H2061 C2081 0.950 . S
H2062 C2083 0.950 . S
H2063 C2086 0.950 . S
H2064 C2087 0.950 1_655 S
H2065 C2089 0.950 . S
H2066 C2090 0.950 . S
H2067 C2091 0.951 . S
H2068 C2093 0.951 . S
H2069 C2095 0.950 . S
H2070 C2096 0.950 . S
H2071 C2098 0.950 . S
H2072 C2101 0.950 . S
H2073 C2102 0.950 1_455 S
H2074 C2104 0.950 . S
H2075 C2105 0.950 . S
C2076 H2058 0.951 . S
C2076 C2077 1.366 1_455 S
C2076 C2078 1.388 . S
C2077 C2076 1.366 1_655 S
C2077 C2081 1.385 . S
C2078 H2059 0.951 . S
C2078 C2076 1.388 . S
C2078 C2079 1.366 1_455 S
C2079 C2078 1.366 1_655 S
C2079 C2080 1.414 . S
C2079 C2082 1.499 . S
C2080 H2060 0.950 . S
C2080 C2079 1.414 . S
C2080 C2081 1.374 . S
C2081 H2061 0.950 . S
C2081 C2077 1.385 . S
C2081 C2080 1.374 . S
C2082 C2079 1.499 . S
C2082 C2083 1.373 . S
C2082 C2084 1.389 1_655 S
C2083 H2062 0.950 . S
C2083 C2082 1.373 . S
C2083 C2099 1.377 . S
C2084 C2082 1.389 1_455 S
C2084 C2085 1.524 . S
C2084 C2098 1.377 . S
C2085 C2084 1.524 . S
C2085 C2086 1.397 1_455 S
C2085 C2090 1.363 . S
C2086 H2063 0.950 . S
C2086 C2085 1.397 1_655 S
C2086 C2087 1.334 1_655 S
C2087 H2064 0.950 1_455 S
C2087 C2086 1.334 1_455 S
C2087 C2088 1.287 . S
C2088 C2087 1.287 . S
C2088 C2089 1.524 . S
C2088 H2107 0.913 . S
C2089 H2065 0.950 . S
C2089 C2088 1.524 . S
C2089 C2090 1.415 . S
C2090 H2066 0.950 . S
C2090 C2085 1.363 . S
C2090 C2089 1.415 . S
C2091 H2067 0.951 . S
C2091 C2092 1.366 1_655 S
C2091 C2093 1.388 . S
C2092 C2091 1.366 1_455 S
C2092 C2096 1.385 . S
C2093 H2068 0.951 . S
C2093 C2091 1.388 . S
C2093 C2094 1.366 1_655 S
C2094 C2093 1.366 1_455 S
C2094 C2095 1.414 . S
C2094 C2097 1.499 . S
C2095 H2069 0.950 . S
C2095 C2094 1.414 . S
C2095 C2096 1.374 . S
C2096 H2070 0.950 . S
C2096 C2092 1.385 . S
C2096 C2095 1.374 . S
C2097 C2094 1.499 . S
C2097 C2098 1.373 . S
C2097 C2099 1.389 1_455 S
C2098 H2071 0.950 . S
C2098 C2084 1.377 . S
C2098 C2097 1.373 . S
C2099 C2083 1.377 . S
C2099 C2097 1.389 1_655 S
C2099 C2100 1.524 . S
C2100 C2099 1.524 . S
C2100 C2101 1.397 1_655 S
C2100 C2105 1.363 . S
C2101 H2072 0.950 . S
C2101 C2100 1.397 1_455 S
C2101 C2102 1.334 1_455 S
C2102 H2073 0.950 1_655 S
C2102 C2101 1.334 1_655 S
C2102 C2103 1.287 . S
C2103 C2102 1.287 . S
C2103 C2104 1.524 . S
C2103 H2106 0.999 . S
C2104 H2074 0.950 . S
C2104 C2103 1.524 . S
C2104 C2105 1.415 . S
C2105 H2075 0.950 . S
C2105 C2100 1.363 . S
C2105 C2104 1.415 . S
H2106 C2103 0.999 . S
H2107 C2088 0.913 . S
H2108 C2126 0.951 . S
H2109 C2128 0.951 . S
H2110 C2130 0.950 . S
H2111 C2131 0.950 . S
H2112 C2133 0.950 . S
H2113 C2136 0.950 . S
H2114 C2137 0.950 . S
H2115 C2139 0.950 . S
H2116 C2140 0.939 1_455 S
H2117 C2141 0.951 . S
H2118 C2143 0.951 . S
H2119 C2145 0.950 . S
H2120 C2146 0.950 . S
H2121 C2148 0.950 . S
H2122 C2151 0.950 . S
H2123 C2152 0.950 . S
H2124 C2154 0.950 . S
H2125 C2155 0.952 1_655 S
C2126 H2108 0.951 . S
C2126 C2127 1.366 . S
C2126 C2128 1.388 . S
C2127 C2126 1.366 . S
C2127 C2131 1.385 . S
C2128 H2109 0.951 . S
C2128 C2126 1.388 . S
C2128 C2129 1.366 . S
C2129 C2128 1.366 . S
C2129 C2130 1.414 . S
C2129 C2132 1.499 . S
C2130 H2110 0.950 . S
C2130 C2129 1.414 . S
C2130 C2131 1.374 . S
C2131 H2111 0.950 . S
C2131 C2127 1.385 . S
C2131 C2130 1.374 . S
C2132 C2129 1.499 . S
C2132 C2133 1.373 . S
C2132 C2134 1.389 . S
C2133 H2112 0.950 . S
C2133 C2132 1.373 . S
C2133 C2149 1.377 1_655 S
C2134 C2132 1.389 . S
C2134 C2135 1.524 . S
C2134 C2148 1.377 1_655 S
C2135 C2134 1.524 . S
C2135 C2136 1.397 . S
C2135 C2140 1.363 . S
C2136 H2113 0.950 . S
C2136 C2135 1.397 . S
C2136 C2137 1.334 . S
C2137 H2114 0.950 . S
C2137 C2136 1.334 . S
C2137 C2138 1.287 . S
C2138 C2137 1.287 . S
C2138 C2139 1.524 . S
C2138 H2157 0.913 . S
C2139 H2115 0.950 . S
C2139 C2138 1.524 . S
C2139 C2140 1.415 . S
C2140 H2116 0.939 1_655 S
C2140 C2135 1.363 . S
C2140 C2139 1.415 . S
C2141 H2117 0.951 . S
C2141 C2142 1.366 . S
C2141 C2143 1.388 . S
C2142 C2141 1.366 . S
C2142 C2146 1.385 . S
C2143 H2118 0.951 . S
C2143 C2141 1.388 . S
C2143 C2144 1.366 . S
C2144 C2143 1.366 . S
C2144 C2145 1.414 . S
C2144 C2147 1.499 . S
C2145 H2119 0.950 . S
C2145 C2144 1.414 . S
C2145 C2146 1.374 . S
C2146 H2120 0.950 . S
C2146 C2142 1.385 . S
C2146 C2145 1.374 . S
C2147 C2144 1.499 . S
C2147 C2148 1.373 . S
C2147 C2149 1.389 . S
C2148 H2121 0.950 . S
C2148 C2134 1.377 1_455 S
C2148 C2147 1.373 . S
C2149 C2133 1.377 1_455 S
C2149 C2147 1.389 . S
C2149 C2150 1.524 . S
C2150 C2149 1.524 . S
C2150 C2151 1.397 . S
C2150 C2155 1.363 . S
C2151 H2122 0.950 . S
C2151 C2150 1.397 . S
C2151 C2152 1.334 . S
C2152 H2123 0.950 . S
C2152 C2151 1.334 . S
C2152 C2153 1.287 . S
C2153 C2152 1.287 . S
C2153 C2154 1.524 . S
C2153 H2156 0.999 . S
C2154 H2124 0.950 . S
C2154 C2153 1.524 . S
C2154 C2155 1.415 . S
C2155 H2125 0.952 1_455 S
C2155 C2150 1.363 . S
C2155 C2154 1.415 . S
H2156 C2153 0.999 . S
H2157 C2138 0.913 . S
H2158 C2176 0.951 . S
H2159 C2178 0.951 . S
H2160 C2180 0.950 . S
H2161 C2181 0.950 . S
H2162 C2183 0.950 . S
H2163 C2186 0.950 . S
H2164 C2187 0.950 . S
H2165 C2189 0.969 . S
H2166 C2190 0.941 1_554 S
H2167 C2191 0.951 . S
H2168 C2193 0.951 . S
H2169 C2195 0.950 . S
H2170 C2196 0.950 . S
H2171 C2198 0.950 . S
H2172 C2201 0.950 . S
H2173 C2202 0.950 . S
H2174 C2204 0.950 . S
H2175 C2205 0.950 1_556 S
C2176 H2158 0.951 . S
C2176 C2177 1.366 . S
C2176 C2178 1.388 . S
C2177 C2176 1.366 . S
C2177 C2181 1.385 1_554 S
C2178 H2159 0.951 . S
C2178 C2176 1.388 . S
C2178 C2179 1.382 . S
C2179 C2178 1.382 . S
C2179 C2180 1.399 1_554 S
C2179 C2182 1.498 . S
C2180 H2160 0.950 . S
C2180 C2179 1.399 1_556 S
C2180 C2181 1.374 . S
C2181 H2161 0.950 . S
C2181 C2177 1.385 1_556 S
C2181 C2180 1.374 . S
C2182 C2179 1.498 . S
C2182 C2183 1.374 . S
C2182 C2184 1.389 1_554 S
C2183 H2162 0.950 . S
C2183 C2182 1.374 . S
C2183 C2199 1.377 . S
C2184 C2182 1.389 1_556 S
C2184 C2185 1.524 . S
C2184 C2198 1.377 . S
C2185 C2184 1.524 . S
C2185 C2186 1.397 . S
C2185 C2190 1.368 . S
C2186 H2163 0.950 . S
C2186 C2185 1.397 . S
C2186 C2187 1.334 . S
C2187 H2164 0.950 . S
C2187 C2186 1.334 . S
C2187 C2188 1.287 . S
C2188 C2187 1.287 . S
C2188 C2189 1.524 . S
C2188 H2207 0.913 . S
C2189 H2165 0.969 . S
C2189 C2188 1.524 . S
C2189 C2190 1.419 . S
C2190 H2166 0.941 1_556 S
C2190 C2185 1.368 . S
C2190 C2189 1.419 . S
C2191 H2167 0.951 . S
C2191 C2192 1.366 1_556 S
C2191 C2193 1.388 . S
C2192 C2191 1.366 1_554 S
C2192 C2196 1.385 . S
C2193 H2168 0.951 . S
C2193 C2191 1.388 . S
C2193 C2194 1.366 1_556 S
C2194 C2193 1.366 1_554 S
C2194 C2195 1.414 . S
C2194 C2197 1.499 . S
C2195 H2169 0.950 . S
C2195 C2194 1.414 . S
C2195 C2196 1.374 . S
C2196 H2170 0.950 . S
C2196 C2192 1.385 . S
C2196 C2195 1.374 . S
C2197 C2194 1.499 . S
C2197 C2198 1.373 1_554 S
C2197 C2199 1.389 . S
C2198 H2171 0.950 . S
C2198 C2184 1.377 . S
C2198 C2197 1.373 1_556 S
C2199 C2183 1.377 . S
C2199 C2197 1.389 . S
C2199 C2200 1.524 . S
C2200 C2199 1.524 . S
C2200 C2201 1.397 . S
C2200 C2205 1.363 . S
C2201 H2172 0.950 . S
C2201 C2200 1.397 . S
C2201 C2202 1.334 . S
C2202 H2173 0.950 . S
C2202 C2201 1.334 . S
C2202 C2203 1.287 . S
C2203 C2202 1.287 . S
C2203 C2204 1.524 . S
C2203 H2206 0.999 . S
C2204 H2174 0.950 . S
C2204 C2203 1.524 . S
C2204 C2205 1.415 . S
C2205 H2175 0.950 1_554 S
C2205 C2200 1.363 . S
C2205 C2204 1.415 . S
H2206 C2203 0.999 . S
H2207 C2188 0.913 . S
H2208 C2226 0.951 . S
H2209 C2228 0.951 . S
H2210 C2230 0.950 . S
H2211 C2231 0.950 . S
H2212 C2233 0.950 . S
H2213 C2236 0.950 . S
H2214 C2237 0.950 . S
H2215 C2239 0.950 . S
H2216 C2240 0.950 . S
H2217 C2241 0.951 . S
H2218 C2243 0.951 . S
H2219 C2245 0.950 . S
H2220 C2246 0.950 . S
H2221 C2248 0.950 . S
H2222 C2251 0.950 . S
H2223 C2252 0.950 . S
H2224 C2254 0.950 . S
H2225 C2255 0.950 . S
C2226 H2208 0.951 . S
C2226 C2227 1.366 . S
C2226 C2228 1.388 . S
C2227 C2226 1.366 . S
C2227 C2231 1.385 . S
C2228 H2209 0.951 . S
C2228 C2226 1.388 . S
C2228 C2229 1.366 . S
C2229 C2228 1.366 . S
C2229 C2230 1.414 . S
C2229 C2232 1.499 . S
C2230 H2210 0.950 . S
C2230 C2229 1.414 . S
C2230 C2231 1.374 . S
C2231 H2211 0.950 . S
C2231 C2227 1.385 . S
C2231 C2230 1.374 . S
C2232 C2229 1.499 . S
C2232 C2233 1.373 . S
C2232 C2234 1.389 . S
C2233 H2212 0.950 . S
C2233 C2232 1.373 . S
C2233 C2249 1.377 . S
C2234 C2232 1.389 . S
C2234 C2235 1.524 . S
C2234 C2248 1.377 . S
C2235 C2234 1.524 . S
C2235 C2236 1.397 . S
C2235 C2240 1.363 . S
C2236 H2213 0.950 . S
C2236 C2235 1.397 . S
C2236 C2237 1.334 . S
C2237 H2214 0.950 . S
C2237 C2236 1.334 . S
C2237 C2238 1.287 . S
C2238 C2237 1.287 . S
C2238 C2239 1.524 . S
C2238 H2257 0.913 . S
C2239 H2215 0.950 . S
C2239 C2238 1.524 . S
C2239 C2240 1.415 . S
C2240 H2216 0.950 . S
C2240 C2235 1.363 . S
C2240 C2239 1.415 . S
C2241 H2217 0.951 . S
C2241 C2242 1.366 . S
C2241 C2243 1.388 . S
C2242 C2241 1.366 . S
C2242 C2246 1.385 . S
C2243 H2218 0.951 . S
C2243 C2241 1.388 . S
C2243 C2244 1.366 . S
C2244 C2243 1.366 . S
C2244 C2245 1.414 . S
C2244 C2247 1.499 . S
C2245 H2219 0.950 . S
C2245 C2244 1.414 . S
C2245 C2246 1.374 . S
C2246 H2220 0.950 . S
C2246 C2242 1.385 . S
C2246 C2245 1.374 . S
C2247 C2244 1.499 . S
C2247 C2248 1.373 . S
C2247 C2249 1.389 . S
C2248 H2221 0.950 . S
C2248 C2234 1.377 . S
C2248 C2247 1.373 . S
C2249 C2233 1.377 . S
C2249 C2247 1.389 . S
C2249 C2250 1.524 . S
C2250 C2249 1.524 . S
C2250 C2251 1.397 . S
C2250 C2255 1.363 . S
C2251 H2222 0.950 . S
C2251 C2250 1.397 . S
C2251 C2252 1.334 . S
C2252 H2223 0.950 . S
C2252 C2251 1.334 . S
C2252 C2253 1.287 . S
C2253 C2252 1.287 . S
C2253 C2254 1.524 . S
C2253 H2256 0.999 . S
C2254 H2224 0.950 . S
C2254 C2253 1.524 . S
C2254 C2255 1.415 . S
C2255 H2225 0.950 . S
C2255 C2250 1.363 . S
C2255 C2254 1.415 . S
H2256 C2253 0.999 . S
H2257 C2238 0.913 . S
H2258 C2276 0.951 . S
H2259 C2278 0.951 . S
H2260 C2280 0.950 . S
H2261 C2281 0.950 . S
H2262 C2283 0.950 . S
H2263 C2286 0.950 . S
H2264 C2287 0.950 . S
H2265 C2289 0.950 . S
H2266 C2290 0.950 . S
H2267 C2291 0.951 . S
H2268 C2293 0.951 . S
H2269 C2295 0.950 . S
H2270 C2296 0.950 . S
H2271 C2298 0.950 . S
H2272 C2301 0.950 . S
H2273 C2302 0.950 . S
H2274 C2304 0.950 . S
H2275 C2305 0.950 . S
C2276 H2258 0.951 . S
C2276 C2277 1.366 . S
C2276 C2278 1.388 . S
C2277 C2276 1.366 . S
C2277 C2281 1.385 . S
C2278 H2259 0.951 . S
C2278 C2276 1.388 . S
C2278 C2279 1.366 . S
C2279 C2278 1.366 . S
C2279 C2280 1.414 . S
C2279 C2282 1.499 . S
C2280 H2260 0.950 . S
C2280 C2279 1.414 . S
C2280 C2281 1.374 . S
C2281 H2261 0.950 . S
C2281 C2277 1.385 . S
C2281 C2280 1.374 . S
C2282 C2279 1.499 . S
C2282 C2283 1.373 . S
C2282 C2284 1.389 . S
C2283 H2262 0.950 . S
C2283 C2282 1.373 . S
C2283 C2299 1.377 . S
C2284 C2282 1.389 . S
C2284 C2285 1.524 . S
C2284 C2298 1.377 . S
C2285 C2284 1.524 . S
C2285 C2286 1.397 . S
C2285 C2290 1.363 . S
C2286 H2263 0.950 . S
C2286 C2285 1.397 . S
C2286 C2287 1.334 . S
C2287 H2264 0.950 . S
C2287 C2286 1.334 . S
C2287 C2288 1.287 . S
C2288 C2287 1.287 . S
C2288 C2289 1.524 . S
C2288 H2307 0.913 . S
C2289 H2265 0.950 . S
C2289 C2288 1.524 . S
C2289 C2290 1.415 . S
C2290 H2266 0.950 . S
C2290 C2285 1.363 . S
C2290 C2289 1.415 . S
C2291 H2267 0.951 . S
C2291 C2292 1.366 . S
C2291 C2293 1.388 . S
C2292 C2291 1.366 . S
C2292 C2296 1.385 . S
C2293 H2268 0.951 . S
C2293 C2291 1.388 . S
C2293 C2294 1.366 . S
C2294 C2293 1.366 . S
C2294 C2295 1.414 . S
C2294 C2297 1.499 . S
C2295 H2269 0.950 . S
C2295 C2294 1.414 . S
C2295 C2296 1.374 . S
C2296 H2270 0.950 . S
C2296 C2292 1.385 . S
C2296 C2295 1.374 . S
C2297 C2294 1.499 . S
C2297 C2298 1.373 . S
C2297 C2299 1.389 . S
C2298 H2271 0.950 . S
C2298 C2284 1.377 . S
C2298 C2297 1.373 . S
C2299 C2283 1.377 . S
C2299 C2297 1.389 . S
C2299 C2300 1.524 . S
C2300 C2299 1.524 . S
C2300 C2301 1.397 . S
C2300 C2305 1.363 . S
C2301 H2272 0.950 . S
C2301 C2300 1.397 . S
C2301 C2302 1.334 . S
C2302 H2273 0.950 . S
C2302 C2301 1.334 . S
C2302 C2303 1.287 . S
C2303 C2302 1.287 . S
C2303 C2304 1.524 . S
C2303 H2306 0.999 . S
C2304 H2274 0.950 . S
C2304 C2303 1.524 . S
C2304 C2305 1.415 . S
C2305 H2275 0.950 . S
C2305 C2300 1.363 . S
C2305 C2304 1.415 . S
H2306 C2303 0.999 . S
H2307 C2288 0.913 . S
H2308 C2326 0.951 . S
H2309 C2328 0.951 . S
H2310 C2330 0.950 . S
H2311 C2331 0.950 . S
H2312 C2333 0.950 . S
H2313 C2336 0.950 . S
H2314 C2337 0.950 . S
H2315 C2339 0.950 . S
H2316 C2340 0.950 . S
H2317 C2341 0.951 . S
H2318 C2343 0.951 . S
H2319 C2345 0.950 . S
H2320 C2346 0.950 . S
H2321 C2348 0.950 . S
H2322 C2351 0.950 . S
H2323 C2352 0.950 . S
H2324 C2354 0.950 . S
H2325 C2355 0.950 . S
C2326 H2308 0.951 . S
C2326 C2327 1.366 . S
C2326 C2328 1.388 . S
C2327 C2326 1.366 . S
C2327 C2331 1.385 . S
C2328 H2309 0.951 . S
C2328 C2326 1.388 . S
C2328 C2329 1.366 . S
C2329 C2328 1.366 . S
C2329 C2330 1.414 . S
C2329 C2332 1.499 . S
C2330 H2310 0.950 . S
C2330 C2329 1.414 . S
C2330 C2331 1.374 . S
C2331 H2311 0.950 . S
C2331 C2327 1.385 . S
C2331 C2330 1.374 . S
C2332 C2329 1.499 . S
C2332 C2333 1.373 . S
C2332 C2334 1.389 . S
C2333 H2312 0.950 . S
C2333 C2332 1.373 . S
C2333 C2349 1.377 1_455 S
C2334 C2332 1.389 . S
C2334 C2335 1.524 . S
C2334 C2348 1.377 1_455 S
C2335 C2334 1.524 . S
C2335 C2336 1.397 . S
C2335 C2340 1.363 . S
C2336 H2313 0.950 . S
C2336 C2335 1.397 . S
C2336 C2337 1.334 . S
C2337 H2314 0.950 . S
C2337 C2336 1.334 . S
C2337 C2338 1.287 . S
C2338 C2337 1.287 . S
C2338 C2339 1.524 . S
C2338 H2357 0.913 . S
C2339 H2315 0.950 . S
C2339 C2338 1.524 . S
C2339 C2340 1.415 . S
C2340 H2316 0.950 . S
C2340 C2335 1.363 . S
C2340 C2339 1.415 . S
C2341 H2317 0.951 . S
C2341 C2342 1.366 . S
C2341 C2343 1.388 . S
C2342 C2341 1.366 . S
C2342 C2346 1.385 . S
C2343 H2318 0.951 . S
C2343 C2341 1.388 . S
C2343 C2344 1.366 . S
C2344 C2343 1.366 . S
C2344 C2345 1.414 . S
C2344 C2347 1.499 . S
C2345 H2319 0.950 . S
C2345 C2344 1.414 . S
C2345 C2346 1.374 . S
C2346 H2320 0.950 . S
C2346 C2342 1.385 . S
C2346 C2345 1.374 . S
C2347 C2344 1.499 . S
C2347 C2348 1.373 . S
C2347 C2349 1.389 . S
C2348 H2321 0.950 . S
C2348 C2334 1.377 1_655 S
C2348 C2347 1.373 . S
C2349 C2333 1.377 1_655 S
C2349 C2347 1.389 . S
C2349 C2350 1.524 . S
C2350 C2349 1.524 . S
C2350 C2351 1.397 . S
C2350 C2355 1.363 . S
C2351 H2322 0.950 . S
C2351 C2350 1.397 . S
C2351 C2352 1.334 . S
C2352 H2323 0.950 . S
C2352 C2351 1.334 . S
C2352 C2353 1.287 . S
C2353 C2352 1.287 . S
C2353 C2354 1.524 . S
C2353 H2356 0.999 . S
C2354 H2324 0.950 . S
C2354 C2353 1.524 . S
C2354 C2355 1.415 . S
C2355 H2325 0.950 . S
C2355 C2350 1.363 . S
C2355 C2354 1.415 . S
H2356 C2353 0.999 . S
H2357 C2338 0.913 . S
H2358 C2376 0.951 . S
H2359 C2378 0.951 . S
H2360 C2380 0.950 . S
H2361 C2381 0.950 . S
H2362 C2383 0.950 . S
H2363 C2386 0.950 . S
H2364 C2387 0.950 . S
H2365 C2389 0.950 . S
H2366 C2390 0.950 . S
H2367 C2391 0.951 . S
H2368 C2393 0.951 . S
H2369 C2395 0.950 . S
H2370 C2396 0.950 . S
H2371 C2398 0.950 . S
H2372 C2401 0.950 . S
H2373 C2402 0.950 . S
H2374 C2404 0.950 . S
H2375 C2405 0.950 . S
C2376 H2358 0.951 . S
C2376 C2377 1.366 1_655 S
C2376 C2378 1.388 . S
C2377 C2376 1.366 1_455 S
C2377 C2381 1.385 1_556 S
C2378 H2359 0.951 . S
C2378 C2376 1.388 . S
C2378 C2379 1.366 1_655 S
C2379 C2378 1.366 1_455 S
C2379 C2380 1.414 1_556 S
C2379 C2382 1.499 . S
C2380 H2360 0.950 . S
C2380 C2379 1.414 1_554 S
C2380 C2381 1.374 . S
C2381 H2361 0.950 . S
C2381 C2377 1.385 1_554 S
C2381 C2380 1.374 . S
C2382 C2379 1.499 . S
C2382 C2383 1.373 1_556 S
C2382 C2384 1.389 1_455 S
C2383 H2362 0.950 . S
C2383 C2382 1.373 1_554 S
C2383 C2399 1.376 . S
C2384 C2382 1.389 1_655 S
C2384 C2385 1.524 . S
C2384 C2398 1.377 . S
C2385 C2384 1.524 . S
C2385 C2386 1.397 1_556 S
C2385 C2390 1.363 . S
C2386 H2363 0.950 . S
C2386 C2385 1.397 1_554 S
C2386 C2387 1.334 . S
C2387 H2364 0.950 . S
C2387 C2386 1.334 . S
C2387 C2388 1.287 1_554 S
C2388 C2387 1.287 1_556 S
C2388 C2389 1.524 . S
C2388 H2407 0.913 . S
C2389 H2365 0.950 . S
C2389 C2388 1.524 . S
C2389 C2390 1.415 . S
C2390 H2366 0.950 . S
C2390 C2385 1.363 . S
C2390 C2389 1.415 . S
C2391 H2367 0.951 . S
C2391 C2392 1.366 1_454 S
C2391 C2393 1.388 . S
C2392 C2391 1.366 1_656 S
C2392 C2396 1.385 . S
C2393 H2368 0.951 . S
C2393 C2391 1.388 . S
C2393 C2394 1.366 1_454 S
C2394 C2393 1.366 1_656 S
C2394 C2395 1.414 . S
C2394 C2397 1.499 . S
C2395 H2369 0.950 . S
C2395 C2394 1.414 . S
C2395 C2396 1.374 . S
C2396 H2370 0.950 . S
C2396 C2392 1.385 . S
C2396 C2395 1.374 . S
C2397 C2394 1.499 . S
C2397 C2398 1.373 . S
C2397 C2399 1.390 1_656 S
C2398 H2371 0.950 . S
C2398 C2384 1.377 . S
C2398 C2397 1.373 . S
C2399 C2383 1.376 . S
C2399 C2397 1.390 1_454 S
C2399 C2400 1.524 . S
C2400 C2399 1.524 . S
C2400 C2401 1.397 1_554 S
C2400 C2405 1.363 . S
C2401 H2372 0.950 . S
C2401 C2400 1.397 1_556 S
C2401 C2402 1.334 . S
C2402 H2373 0.950 . S
C2402 C2401 1.334 . S
C2402 C2403 1.287 . S
C2403 C2402 1.287 . S
C2403 C2404 1.524 1_556 S
C2403 H2406 0.999 . S
C2404 H2374 0.950 . S
C2404 C2403 1.524 1_554 S
C2404 C2405 1.415 . S
C2405 H2375 0.950 . S
C2405 C2400 1.363 . S
C2405 C2404 1.415 . S
H2406 C2403 0.999 . S
H2407 C2388 0.913 . S
H2408 C2426 0.951 . S
H2409 C2428 0.951 . S
H2410 C2430 0.950 . S
H2411 C2431 0.950 . S
H2412 C2433 0.950 . S
H2413 C2436 0.950 . S
H2414 C2437 0.950 . S
H2415 C2439 0.950 . S
H2416 C2440 0.950 . S
H2417 C2441 0.951 . S
H2418 C2443 0.951 . S
H2419 C2445 0.950 . S
H2420 C2446 0.950 . S
H2421 C2448 0.950 . S
H2422 C2451 0.950 . S
H2423 C2452 0.950 . S
H2424 C2454 0.950 . S
H2425 C2455 0.950 . S
C2426 H2408 0.951 . S
C2426 C2427 1.366 . S
C2426 C2428 1.388 . S
C2427 C2426 1.366 . S
C2427 C2431 1.385 . S
C2428 H2409 0.951 . S
C2428 C2426 1.388 . S
C2428 C2429 1.366 . S
C2429 C2428 1.366 . S
C2429 C2430 1.414 . S
C2429 C2432 1.499 . S
C2430 H2410 0.950 . S
C2430 C2429 1.414 . S
C2430 C2431 1.374 . S
C2431 H2411 0.950 . S
C2431 C2427 1.385 . S
C2431 C2430 1.374 . S
C2432 C2429 1.499 . S
C2432 C2433 1.373 . S
C2432 C2434 1.389 . S
C2433 H2412 0.950 . S
C2433 C2432 1.373 . S
C2433 C2449 1.377 . S
C2434 C2432 1.389 . S
C2434 C2435 1.524 . S
C2434 C2448 1.377 . S
C2435 C2434 1.524 . S
C2435 C2436 1.397 . S
C2435 C2440 1.363 . S
C2436 H2413 0.950 . S
C2436 C2435 1.397 . S
C2436 C2437 1.334 . S
C2437 H2414 0.950 . S
C2437 C2436 1.334 . S
C2437 C2438 1.287 . S
C2438 C2437 1.287 . S
C2438 C2439 1.524 . S
C2438 H2457 0.913 . S
C2439 H2415 0.950 . S
C2439 C2438 1.524 . S
C2439 C2440 1.415 . S
C2440 H2416 0.950 . S
C2440 C2435 1.363 . S
C2440 C2439 1.415 . S
C2441 H2417 0.951 . S
C2441 C2442 1.366 . S
C2441 C2443 1.388 . S
C2442 C2441 1.366 . S
C2442 C2446 1.385 . S
C2443 H2418 0.951 . S
C2443 C2441 1.388 . S
C2443 C2444 1.366 . S
C2444 C2443 1.366 . S
C2444 C2445 1.414 . S
C2444 C2447 1.499 . S
C2445 H2419 0.950 . S
C2445 C2444 1.414 . S
C2445 C2446 1.374 . S
C2446 H2420 0.950 . S
C2446 C2442 1.385 . S
C2446 C2445 1.374 . S
C2447 C2444 1.499 . S
C2447 C2448 1.373 . S
C2447 C2449 1.389 . S
C2448 H2421 0.950 . S
C2448 C2434 1.377 . S
C2448 C2447 1.373 . S
C2449 C2433 1.377 . S
C2449 C2447 1.389 . S
C2449 C2450 1.524 . S
C2450 C2449 1.524 . S
C2450 C2451 1.397 . S
C2450 C2455 1.363 . S
C2451 H2422 0.950 . S
C2451 C2450 1.397 . S
C2451 C2452 1.334 . S
C2452 H2423 0.950 . S
C2452 C2451 1.334 . S
C2452 C2453 1.287 . S
C2453 C2452 1.287 . S
C2453 C2454 1.524 . S
C2453 H2456 0.999 . S
C2454 H2424 0.950 . S
C2454 C2453 1.524 . S
C2454 C2455 1.415 . S
C2455 H2425 0.950 . S
C2455 C2450 1.363 . S
C2455 C2454 1.415 . S
H2456 C2453 0.999 . S
H2457 C2438 0.913 . S
H2458 C2476 0.951 . S
H2459 C2478 0.951 . S
H2460 C2480 0.950 . S
H2461 C2481 0.950 . S
H2462 C2483 0.950 . S
H2463 C2486 0.950 . S
H2464 C2487 0.950 . S
H2465 C2489 0.950 . S
H2466 C2490 0.950 . S
H2467 C2491 0.951 . S
H2468 C2493 0.951 . S
H2469 C2495 0.950 . S
H2470 C2496 0.950 . S
H2471 C2498 0.950 . S
H2472 C2501 0.950 . S
H2473 C2502 0.950 . S
H2474 C2504 0.950 . S
H2475 C2505 0.950 . S
C2476 H2458 0.951 . S
C2476 C2477 1.366 . S
C2476 C2478 1.388 . S
C2477 C2476 1.366 . S
C2477 C2481 1.385 . S
C2478 H2459 0.951 . S
C2478 C2476 1.388 . S
C2478 C2479 1.366 . S
C2479 C2478 1.366 . S
C2479 C2480 1.414 . S
C2479 C2482 1.499 . S
C2480 H2460 0.950 . S
C2480 C2479 1.414 . S
C2480 C2481 1.374 . S
C2481 H2461 0.950 . S
C2481 C2477 1.385 . S
C2481 C2480 1.374 . S
C2482 C2479 1.499 . S
C2482 C2483 1.373 . S
C2482 C2484 1.389 . S
C2483 H2462 0.950 . S
C2483 C2482 1.373 . S
C2483 C2499 1.377 1_545 S
C2484 C2482 1.389 . S
C2484 C2485 1.524 . S
C2484 C2498 1.377 1_545 S
C2485 C2484 1.524 . S
C2485 C2486 1.397 . S
C2485 C2490 1.363 . S
C2486 H2463 0.950 . S
C2486 C2485 1.397 . S
C2486 C2487 1.334 . S
C2487 H2464 0.950 . S
C2487 C2486 1.334 . S
C2487 C2488 1.287 . S
C2488 C2487 1.287 . S
C2488 C2489 1.524 . S
C2488 H2507 0.913 . S
C2489 H2465 0.950 . S
C2489 C2488 1.524 . S
C2489 C2490 1.415 . S
C2490 H2466 0.950 . S
C2490 C2485 1.363 . S
C2490 C2489 1.415 . S
C2491 H2467 0.951 . S
C2491 C2492 1.366 . S
C2491 C2493 1.388 . S
C2492 C2491 1.366 . S
C2492 C2496 1.385 . S
C2493 H2468 0.951 . S
C2493 C2491 1.388 . S
C2493 C2494 1.366 . S
C2494 C2493 1.366 . S
C2494 C2495 1.414 . S
C2494 C2497 1.499 . S
C2495 H2469 0.950 . S
C2495 C2494 1.414 . S
C2495 C2496 1.374 . S
C2496 H2470 0.950 . S
C2496 C2492 1.385 . S
C2496 C2495 1.374 . S
C2497 C2494 1.499 . S
C2497 C2498 1.373 . S
C2497 C2499 1.389 . S
C2498 H2471 0.950 . S
C2498 C2484 1.377 1_565 S
C2498 C2497 1.373 . S
C2499 C2483 1.377 1_565 S
C2499 C2497 1.389 . S
C2499 C2500 1.524 . S
C2500 C2499 1.524 . S
C2500 C2501 1.397 . S
C2500 C2505 1.363 . S
C2501 H2472 0.950 . S
C2501 C2500 1.397 . S
C2501 C2502 1.334 . S
C2502 H2473 0.950 . S
C2502 C2501 1.334 . S
C2502 C2503 1.287 . S
C2503 C2502 1.287 . S
C2503 C2504 1.524 . S
C2503 H2506 0.999 . S
C2504 H2474 0.950 . S
C2504 C2503 1.524 . S
C2504 C2505 1.415 . S
C2505 H2475 0.950 . S
C2505 C2500 1.363 . S
C2505 C2504 1.415 . S
H2506 C2503 0.999 . S
H2507 C2488 0.913 . S
H2508 C2526 0.951 . S
H2509 C2528 0.951 . S
H2510 C2530 0.950 . S
H2511 C2531 0.950 . S
H2512 C2533 0.950 . S
H2513 C2536 0.950 1_556 S
H2514 C2537 0.950 . S
H2515 C2539 0.950 . S
H2516 C2540 0.950 . S
H2517 C2541 0.951 . S
H2518 C2543 0.951 . S
H2519 C2545 0.950 . S
H2520 C2546 0.950 . S
H2521 C2548 0.950 . S
H2522 C2551 0.950 1_554 S
H2523 C2552 0.950 . S
H2524 C2554 0.950 . S
H2525 C2555 0.950 . S
C2526 H2508 0.951 . S
C2526 C2527 1.366 1_554 S
C2526 C2528 1.388 . S
C2527 C2526 1.366 1_556 S
C2527 C2531 1.385 . S
C2528 H2509 0.951 . S
C2528 C2526 1.388 . S
C2528 C2529 1.366 1_554 S
C2529 C2528 1.366 1_556 S
C2529 C2530 1.414 . S
C2529 C2532 1.499 . S
C2530 H2510 0.950 . S
C2530 C2529 1.414 . S
C2530 C2531 1.374 . S
C2531 H2511 0.950 . S
C2531 C2527 1.385 . S
C2531 C2530 1.374 . S
C2532 C2529 1.499 . S
C2532 C2533 1.373 . S
C2532 C2534 1.389 1_556 S
C2533 H2512 0.950 . S
C2533 C2532 1.373 . S
C2533 C2549 1.377 . S
C2534 C2532 1.389 1_554 S
C2534 C2535 1.524 . S
C2534 C2548 1.377 . S
C2535 C2534 1.524 . S
C2535 C2536 1.397 . S
C2535 C2540 1.363 . S
C2536 H2513 0.950 1_554 S
C2536 C2535 1.397 . S
C2536 C2537 1.334 . S
C2537 H2514 0.950 . S
C2537 C2536 1.334 . S
C2537 C2538 1.287 . S
C2538 C2537 1.287 . S
C2538 C2539 1.524 . S
C2538 H2557 0.913 . S
C2539 H2515 0.950 . S
C2539 C2538 1.524 . S
C2539 C2540 1.415 . S
C2540 H2516 0.950 . S
C2540 C2535 1.363 . S
C2540 C2539 1.415 . S
C2541 H2517 0.951 . S
C2541 C2542 1.366 1_556 S
C2541 C2543 1.388 . S
C2542 C2541 1.366 1_554 S
C2542 C2546 1.385 . S
C2543 H2518 0.951 . S
C2543 C2541 1.388 . S
C2543 C2544 1.366 1_556 S
C2544 C2543 1.366 1_554 S
C2544 C2545 1.414 . S
C2544 C2547 1.499 . S
C2545 H2519 0.950 . S
C2545 C2544 1.414 . S
C2545 C2546 1.374 . S
C2546 H2520 0.950 . S
C2546 C2542 1.385 . S
C2546 C2545 1.374 . S
C2547 C2544 1.499 . S
C2547 C2548 1.373 . S
C2547 C2549 1.389 1_554 S
C2548 H2521 0.950 . S
C2548 C2534 1.377 . S
C2548 C2547 1.373 . S
C2549 C2533 1.377 . S
C2549 C2547 1.389 1_556 S
C2549 C2550 1.524 . S
C2550 C2549 1.524 . S
C2550 C2551 1.397 . S
C2550 C2555 1.363 . S
C2551 H2522 0.950 1_556 S
C2551 C2550 1.397 . S
C2551 C2552 1.334 . S
C2552 H2523 0.950 . S
C2552 C2551 1.334 . S
C2552 C2553 1.287 . S
C2553 C2552 1.287 . S
C2553 C2554 1.524 . S
C2553 H2556 0.999 . S
C2554 H2524 0.950 . S
C2554 C2553 1.524 . S
C2554 C2555 1.415 . S
C2555 H2525 0.950 . S
C2555 C2550 1.363 . S
C2555 C2554 1.415 . S
H2556 C2553 0.999 . S
H2557 C2538 0.913 . S
H2558 C2576 0.951 . S
H2559 C2578 0.951 . S
H2560 C2580 0.950 . S
H2561 C2581 0.950 . S
H2562 C2583 0.950 . S
H2563 C2586 0.950 . S
H2564 C2587 0.950 . S
H2565 C2589 0.950 . S
H2566 C2590 0.950 . S
H2567 C2591 0.951 . S
H2568 C2593 0.951 . S
H2569 C2595 0.950 . S
H2570 C2596 0.950 . S
H2571 C2598 0.950 . S
H2572 C2601 0.950 . S
H2573 C2602 0.950 . S
H2574 C2604 0.950 . S
H2575 C2605 0.950 . S
C2576 H2558 0.951 . S
C2576 C2577 1.366 . S
C2576 C2578 1.388 . S
C2577 C2576 1.366 . S
C2577 C2581 1.385 . S
C2578 H2559 0.951 . S
C2578 C2576 1.388 . S
C2578 C2579 1.366 . S
C2579 C2578 1.366 . S
C2579 C2580 1.414 . S
C2579 C2582 1.499 . S
C2580 H2560 0.950 . S
C2580 C2579 1.414 . S
C2580 C2581 1.374 . S
C2581 H2561 0.950 . S
C2581 C2577 1.385 . S
C2581 C2580 1.374 . S
C2582 C2579 1.499 . S
C2582 C2583 1.373 . S
C2582 C2584 1.389 . S
C2583 H2562 0.950 . S
C2583 C2582 1.373 . S
C2583 C2599 1.377 1_545 S
C2584 C2582 1.389 . S
C2584 C2585 1.524 . S
C2584 C2598 1.377 1_545 S
C2585 C2584 1.524 . S
C2585 C2586 1.397 . S
C2585 C2590 1.363 . S
C2586 H2563 0.950 . S
C2586 C2585 1.397 . S
C2586 C2587 1.334 . S
C2587 H2564 0.950 . S
C2587 C2586 1.334 . S
C2587 C2588 1.287 . S
C2588 C2587 1.287 . S
C2588 C2589 1.524 . S
C2588 H2607 0.913 . S
C2589 H2565 0.950 . S
C2589 C2588 1.524 . S
C2589 C2590 1.415 . S
C2590 H2566 0.950 . S
C2590 C2585 1.363 . S
C2590 C2589 1.415 . S
C2591 H2567 0.951 . S
C2591 C2592 1.366 . S
C2591 C2593 1.388 . S
C2592 C2591 1.366 . S
C2592 C2596 1.385 . S
C2593 H2568 0.951 . S
C2593 C2591 1.388 . S
C2593 C2594 1.366 . S
C2594 C2593 1.366 . S
C2594 C2595 1.414 . S
C2594 C2597 1.499 . S
C2595 H2569 0.950 . S
C2595 C2594 1.414 . S
C2595 C2596 1.374 . S
C2596 H2570 0.950 . S
C2596 C2592 1.385 . S
C2596 C2595 1.374 . S
C2597 C2594 1.499 . S
C2597 C2598 1.373 . S
C2597 C2599 1.389 . S
C2598 H2571 0.950 . S
C2598 C2584 1.377 1_565 S
C2598 C2597 1.373 . S
C2599 C2583 1.377 1_565 S
C2599 C2597 1.389 . S
C2599 C2600 1.524 . S
C2600 C2599 1.524 . S
C2600 C2601 1.397 . S
C2600 C2605 1.363 . S
C2601 H2572 0.950 . S
C2601 C2600 1.397 . S
C2601 C2602 1.334 . S
C2602 H2573 0.950 . S
C2602 C2601 1.334 . S
C2602 C2603 1.287 . S
C2603 C2602 1.287 . S
C2603 C2604 1.524 . S
C2603 H2606 0.999 . S
C2604 H2574 0.950 . S
C2604 C2603 1.524 . S
C2604 C2605 1.415 . S
C2605 H2575 0.950 . S
C2605 C2600 1.363 . S
C2605 C2604 1.415 . S
H2606 C2603 0.999 . S
H2607 C2588 0.913 . S
H2608 C2626 0.951 . S
H2609 C2628 0.951 . S
H2610 C2630 0.950 . S
H2611 C2631 0.950 . S
H2612 C2633 0.950 . S
H2613 C2636 0.950 . S
H2614 C2637 0.950 . S
H2615 C2639 0.950 . S
H2616 C2640 0.950 . S
H2617 C2641 0.951 . S
H2618 C2643 0.951 . S
H2619 C2645 0.950 . S
H2620 C2646 0.950 . S
H2621 C2648 0.958 . S
H2622 C2651 0.950 . S
H2623 C2652 0.950 . S
H2624 C2654 0.950 . S
H2625 C2655 0.950 . S
C2626 H2608 0.951 . S
C2626 C2627 1.366 1_545 S
C2626 C2628 1.388 . S
C2627 C2626 1.366 1_565 S
C2627 C2631 1.385 1_554 S
C2628 H2609 0.951 . S
C2628 C2626 1.388 . S
C2628 C2629 1.366 1_545 S
C2629 C2628 1.366 1_565 S
C2629 C2630 1.414 1_554 S
C2629 C2632 1.499 . S
C2630 H2610 0.950 . S
C2630 C2629 1.414 1_556 S
C2630 C2631 1.374 . S
C2631 H2611 0.950 . S
C2631 C2627 1.385 1_556 S
C2631 C2630 1.374 . S
C2632 C2629 1.499 . S
C2632 C2633 1.373 1_554 S
C2632 C2634 1.396 . S
C2633 H2612 0.950 . S
C2633 C2632 1.373 1_556 S
C2633 C2649 1.377 . S
C2634 C2632 1.396 . S
C2634 C2635 1.522 1_565 S
C2634 C2648 1.374 1_565 S
C2635 C2634 1.522 1_545 S
C2635 C2636 1.366 1_545 S
C2635 C2640 1.392 . S
C2636 H2613 0.950 . S
C2636 C2635 1.366 1_565 S
C2636 C2637 1.334 . S
C2637 H2614 0.950 . S
C2637 C2636 1.334 . S
C2637 C2638 1.287 . S
C2638 C2637 1.287 . S
C2638 C2639 1.524 1_565 S
C2638 H2657 0.913 . S
C2639 H2615 0.950 . S
C2639 C2638 1.524 1_545 S
C2639 C2640 1.415 . S
C2640 H2616 0.950 . S
C2640 C2635 1.392 . S
C2640 C2639 1.415 . S
C2641 H2617 0.951 . S
C2641 C2642 1.366 . S
C2641 C2643 1.388 . S
C2642 C2641 1.366 . S
C2642 C2646 1.385 1_566 S
C2643 H2618 0.951 . S
C2643 C2641 1.388 . S
C2643 C2644 1.366 . S
C2644 C2643 1.366 . S
C2644 C2645 1.414 1_566 S
C2644 C2647 1.499 . S
C2645 H2619 0.950 . S
C2645 C2644 1.414 1_544 S
C2645 C2646 1.374 . S
C2646 H2620 0.950 . S
C2646 C2642 1.385 1_544 S
C2646 C2645 1.374 . S
C2647 C2644 1.499 . S
C2647 C2648 1.369 1_566 S
C2647 C2649 1.389 . S
C2648 H2621 0.958 . S
C2648 C2634 1.374 1_545 S
C2648 C2647 1.369 1_544 S
C2649 C2633 1.377 . S
C2649 C2647 1.389 . S
C2649 C2650 1.524 . S
C2650 C2649 1.524 . S
C2650 C2651 1.397 1_565 S
C2650 C2655 1.363 . S
C2651 H2622 0.950 . S
C2651 C2650 1.397 1_545 S
C2651 C2652 1.334 . S
C2652 H2623 0.950 . S
C2652 C2651 1.334 . S
C2652 C2653 1.287 1_545 S
C2653 C2652 1.287 1_565 S
C2653 C2654 1.524 . S
C2653 H2656 0.999 . S
C2654 H2624 0.950 . S
C2654 C2653 1.524 . S
C2654 C2655 1.415 . S
C2655 H2625 0.950 . S
C2655 C2650 1.363 . S
C2655 C2654 1.415 . S
H2656 C2653 0.999 . S
H2657 C2638 0.913 . S
H2658 C2676 0.951 . S
H2659 C2678 0.951 . S
H2660 C2680 0.950 . S
H2661 C2681 0.950 . S
H2662 C2683 0.950 . S
H2663 C2686 0.950 . S
H2664 C2687 0.950 . S
H2665 C2689 0.950 . S
H2666 C2690 0.950 . S
H2667 C2691 0.951 . S
H2668 C2693 0.951 . S
H2669 C2695 0.950 . S
H2670 C2696 0.950 . S
H2671 C2698 0.950 . S
H2672 C2701 0.950 . S
H2673 C2702 0.950 . S
H2674 C2704 0.950 . S
H2675 C2705 0.950 . S
C2676 H2658 0.951 . S
C2676 C2677 1.366 . S
C2676 C2678 1.388 . S
C2677 C2676 1.366 . S
C2677 C2681 1.385 . S
C2678 H2659 0.951 . S
C2678 C2676 1.388 . S
C2678 C2679 1.366 . S
C2679 C2678 1.366 . S
C2679 C2680 1.414 . S
C2679 C2682 1.499 . S
C2680 H2660 0.950 . S
C2680 C2679 1.414 . S
C2680 C2681 1.374 . S
C2681 H2661 0.950 . S
C2681 C2677 1.385 . S
C2681 C2680 1.374 . S
C2682 C2679 1.499 . S
C2682 C2683 1.373 . S
C2682 C2684 1.389 . S
C2683 H2662 0.950 . S
C2683 C2682 1.373 . S
C2683 C2699 1.377 . S
C2684 C2682 1.389 . S
C2684 C2685 1.524 . S
C2684 C2698 1.377 . S
C2685 C2684 1.524 . S
C2685 C2686 1.397 . S
C2685 C2690 1.363 . S
C2686 H2663 0.950 . S
C2686 C2685 1.397 . S
C2686 C2687 1.334 . S
C2687 H2664 0.950 . S
C2687 C2686 1.334 . S
C2687 C2688 1.287 . S
C2688 C2687 1.287 . S
C2688 C2689 1.524 . S
C2688 H2707 0.913 . S
C2689 H2665 0.950 . S
C2689 C2688 1.524 . S
C2689 C2690 1.415 . S
C2690 H2666 0.950 . S
C2690 C2685 1.363 . S
C2690 C2689 1.415 . S
C2691 H2667 0.951 . S
C2691 C2692 1.366 . S
C2691 C2693 1.388 . S
C2692 C2691 1.366 . S
C2692 C2696 1.385 . S
C2693 H2668 0.951 . S
C2693 C2691 1.388 . S
C2693 C2694 1.366 . S
C2694 C2693 1.366 . S
C2694 C2695 1.414 . S
C2694 C2697 1.499 . S
C2695 H2669 0.950 . S
C2695 C2694 1.414 . S
C2695 C2696 1.374 . S
C2696 H2670 0.950 . S
C2696 C2692 1.385 . S
C2696 C2695 1.374 . S
C2697 C2694 1.499 . S
C2697 C2698 1.373 . S
C2697 C2699 1.389 . S
C2698 H2671 0.950 . S
C2698 C2684 1.377 . S
C2698 C2697 1.373 . S
C2699 C2683 1.377 . S
C2699 C2697 1.389 . S
C2699 C2700 1.524 . S
C2700 C2699 1.524 . S
C2700 C2701 1.397 . S
C2700 C2705 1.363 . S
C2701 H2672 0.950 . S
C2701 C2700 1.397 . S
C2701 C2702 1.334 . S
C2702 H2673 0.950 . S
C2702 C2701 1.334 . S
C2702 C2703 1.287 . S
C2703 C2702 1.287 . S
C2703 C2704 1.524 . S
C2703 H2706 0.999 . S
C2704 H2674 0.950 . S
C2704 C2703 1.524 . S
C2704 C2705 1.415 . S
C2705 H2675 0.950 . S
C2705 C2700 1.363 . S
C2705 C2704 1.415 . S
H2706 C2703 0.999 . S
H2707 C2688 0.913 . S
H2708 C2726 0.951 . S
H2709 C2728 0.951 . S
H2710 C2730 0.950 . S
H2711 C2731 0.950 . S
H2712 C2733 0.950 . S
H2713 C2736 0.950 . S
H2714 C2737 0.950 . S
H2715 C2739 0.950 . S
H2716 C2740 0.950 . S
H2717 C2741 0.951 . S
H2718 C2743 0.951 . S
H2719 C2745 0.950 . S
H2720 C2746 0.950 . S
H2721 C2748 0.950 . S
H2722 C2751 0.950 . S
H2723 C2752 0.950 . S
H2724 C2754 0.950 . S
H2725 C2755 0.950 . S
C2726 H2708 0.951 . S
C2726 C2727 1.366 . S
C2726 C2728 1.388 . S
C2727 C2726 1.366 . S
C2727 C2731 1.385 . S
C2728 H2709 0.951 . S
C2728 C2726 1.388 . S
C2728 C2729 1.366 . S
C2729 C2728 1.366 . S
C2729 C2730 1.414 . S
C2729 C2732 1.499 . S
C2730 H2710 0.950 . S
C2730 C2729 1.414 . S
C2730 C2731 1.374 . S
C2731 H2711 0.950 . S
C2731 C2727 1.385 . S
C2731 C2730 1.374 . S
C2732 C2729 1.499 . S
C2732 C2733 1.373 . S
C2732 C2734 1.389 . S
C2733 H2712 0.950 . S
C2733 C2732 1.373 . S
C2733 C2749 1.377 . S
C2734 C2732 1.389 . S
C2734 C2735 1.524 . S
C2734 C2748 1.377 . S
C2735 C2734 1.524 . S
C2735 C2736 1.397 . S
C2735 C2740 1.363 . S
C2736 H2713 0.950 . S
C2736 C2735 1.397 . S
C2736 C2737 1.334 . S
C2737 H2714 0.950 . S
C2737 C2736 1.334 . S
C2737 C2738 1.287 . S
C2738 C2737 1.287 . S
C2738 C2739 1.524 . S
C2738 H2757 0.913 . S
C2739 H2715 0.950 . S
C2739 C2738 1.524 . S
C2739 C2740 1.415 . S
C2740 H2716 0.950 . S
C2740 C2735 1.363 . S
C2740 C2739 1.415 . S
C2741 H2717 0.951 . S
C2741 C2742 1.366 . S
C2741 C2743 1.388 . S
C2742 C2741 1.366 . S
C2742 C2746 1.385 . S
C2743 H2718 0.951 . S
C2743 C2741 1.388 . S
C2743 C2744 1.366 . S
C2744 C2743 1.366 . S
C2744 C2745 1.414 . S
C2744 C2747 1.499 . S
C2745 H2719 0.950 . S
C2745 C2744 1.414 . S
C2745 C2746 1.374 . S
C2746 H2720 0.950 . S
C2746 C2742 1.385 . S
C2746 C2745 1.374 . S
C2747 C2744 1.499 . S
C2747 C2748 1.373 . S
C2747 C2749 1.389 . S
C2748 H2721 0.950 . S
C2748 C2734 1.377 . S
C2748 C2747 1.373 . S
C2749 C2733 1.377 . S
C2749 C2747 1.389 . S
C2749 C2750 1.524 . S
C2750 C2749 1.524 . S
C2750 C2751 1.397 . S
C2750 C2755 1.363 . S
C2751 H2722 0.950 . S
C2751 C2750 1.397 . S
C2751 C2752 1.334 . S
C2752 H2723 0.950 . S
C2752 C2751 1.334 . S
C2752 C2753 1.287 . S
C2753 C2752 1.287 . S
C2753 C2754 1.524 . S
C2753 H2756 0.999 . S
C2754 H2724 0.950 . S
C2754 C2753 1.524 . S
C2754 C2755 1.415 . S
C2755 H2725 0.950 . S
C2755 C2750 1.363 . S
C2755 C2754 1.415 . S
H2756 C2753 0.999 . S
H2757 C2738 0.913 . S
H2758 C2776 0.951 . S
H2759 C2778 0.951 . S
H2760 C2780 0.950 . S
H2761 C2781 0.950 . S
H2762 C2783 0.950 . S
H2763 C2786 0.950 . S
H2764 C2787 0.950 . S
H2765 C2789 0.950 . S
H2766 C2790 0.950 . S
H2767 C2791 0.951 . S
H2768 C2793 0.951 . S
H2769 C2795 0.950 . S
H2770 C2796 0.950 . S
H2771 C2798 0.950 . S
H2772 C2801 0.950 . S
H2773 C2802 0.950 . S
H2774 C2804 0.950 . S
H2775 C2805 0.950 . S
C2776 H2758 0.951 . S
C2776 C2777 1.366 . S
C2776 C2778 1.388 . S
C2777 C2776 1.366 . S
C2777 C2781 1.385 . S
C2778 H2759 0.951 . S
C2778 C2776 1.388 . S
C2778 C2779 1.366 . S
C2779 C2778 1.366 . S
C2779 C2780 1.414 . S
C2779 C2782 1.499 . S
C2780 H2760 0.950 . S
C2780 C2779 1.414 . S
C2780 C2781 1.374 . S
C2781 H2761 0.950 . S
C2781 C2777 1.385 . S
C2781 C2780 1.374 . S
C2782 C2779 1.499 . S
C2782 C2783 1.373 . S
C2782 C2784 1.389 . S
C2783 H2762 0.950 . S
C2783 C2782 1.373 . S
C2783 C2799 1.377 1_556 S
C2784 C2782 1.389 . S
C2784 C2785 1.524 . S
C2784 C2798 1.377 1_556 S
C2785 C2784 1.524 . S
C2785 C2786 1.397 . S
C2785 C2790 1.363 . S
C2786 H2763 0.950 . S
C2786 C2785 1.397 . S
C2786 C2787 1.334 . S
C2787 H2764 0.950 . S
C2787 C2786 1.334 . S
C2787 C2788 1.287 . S
C2788 C2787 1.287 . S
C2788 C2789 1.524 . S
C2788 H2807 0.913 . S
C2789 H2765 0.950 . S
C2789 C2788 1.524 . S
C2789 C2790 1.415 . S
C2790 H2766 0.950 . S
C2790 C2785 1.363 . S
C2790 C2789 1.415 . S
C2791 H2767 0.951 . S
C2791 C2792 1.366 . S
C2791 C2793 1.388 . S
C2792 C2791 1.366 . S
C2792 C2796 1.385 . S
C2793 H2768 0.951 . S
C2793 C2791 1.388 . S
C2793 C2794 1.366 . S
C2794 C2793 1.366 . S
C2794 C2795 1.414 . S
C2794 C2797 1.499 . S
C2795 H2769 0.950 . S
C2795 C2794 1.414 . S
C2795 C2796 1.374 . S
C2796 H2770 0.950 . S
C2796 C2792 1.385 . S
C2796 C2795 1.374 . S
C2797 C2794 1.499 . S
C2797 C2798 1.373 . S
C2797 C2799 1.389 . S
C2798 H2771 0.950 . S
C2798 C2784 1.377 1_554 S
C2798 C2797 1.373 . S
C2799 C2783 1.377 1_554 S
C2799 C2797 1.389 . S
C2799 C2800 1.524 . S
C2800 C2799 1.524 . S
C2800 C2801 1.397 . S
C2800 C2805 1.363 . S
C2801 H2772 0.950 . S
C2801 C2800 1.397 . S
C2801 C2802 1.334 . S
C2802 H2773 0.950 . S
C2802 C2801 1.334 . S
C2802 C2803 1.287 . S
C2803 C2802 1.287 . S
C2803 C2804 1.524 . S
C2803 H2806 0.999 . S
C2804 H2774 0.950 . S
C2804 C2803 1.524 . S
C2804 C2805 1.415 . S
C2805 H2775 0.950 . S
C2805 C2800 1.363 . S
C2805 C2804 1.415 . S
H2806 C2803 0.999 . S
H2807 C2788 0.913 . S
H2808 C2826 0.951 . S
H2809 C2828 0.951 . S
H2810 C2830 0.950 . S
H2811 C2831 0.950 . S
H2812 C2833 0.950 . S
H2813 C2836 0.950 . S
H2814 C2837 0.950 . S
H2815 C2839 0.950 . S
H2816 C2840 0.950 . S
H2817 C2841 0.951 . S
H2818 C2843 0.951 . S
H2819 C2845 0.950 . S
H2820 C2846 0.950 . S
H2821 C2848 0.950 . S
H2822 C2851 0.950 . S
H2823 C2852 0.950 . S
H2824 C2854 0.950 . S
H2825 C2855 0.950 . S
C2826 H2808 0.951 . S
C2826 C2827 1.366 . S
C2826 C2828 1.388 . S
C2827 C2826 1.366 . S
C2827 C2831 1.385 . S
C2828 H2809 0.951 . S
C2828 C2826 1.388 . S
C2828 C2829 1.366 . S
C2829 C2828 1.366 . S
C2829 C2830 1.414 . S
C2829 C2832 1.499 . S
C2830 H2810 0.950 . S
C2830 C2829 1.414 . S
C2830 C2831 1.374 . S
C2831 H2811 0.950 . S
C2831 C2827 1.385 . S
C2831 C2830 1.374 . S
C2832 C2829 1.499 . S
C2832 C2833 1.373 . S
C2832 C2834 1.389 . S
C2833 H2812 0.950 . S
C2833 C2832 1.373 . S
C2833 C2849 1.377 . S
C2834 C2832 1.389 . S
C2834 C2835 1.524 . S
C2834 C2848 1.377 . S
C2835 C2834 1.524 . S
C2835 C2836 1.397 . S
C2835 C2840 1.363 . S
C2836 H2813 0.950 . S
C2836 C2835 1.397 . S
C2836 C2837 1.334 . S
C2837 H2814 0.950 . S
C2837 C2836 1.334 . S
C2837 C2838 1.287 . S
C2838 C2837 1.287 . S
C2838 C2839 1.524 . S
C2838 H2857 0.913 . S
C2839 H2815 0.950 . S
C2839 C2838 1.524 . S
C2839 C2840 1.415 . S
C2840 H2816 0.950 . S
C2840 C2835 1.363 . S
C2840 C2839 1.415 . S
C2841 H2817 0.951 . S
C2841 C2842 1.366 . S
C2841 C2843 1.388 . S
C2842 C2841 1.366 . S
C2842 C2846 1.385 . S
C2843 H2818 0.951 . S
C2843 C2841 1.388 . S
C2843 C2844 1.366 . S
C2844 C2843 1.366 . S
C2844 C2845 1.414 . S
C2844 C2847 1.499 . S
C2845 H2819 0.950 . S
C2845 C2844 1.414 . S
C2845 C2846 1.374 . S
C2846 H2820 0.950 . S
C2846 C2842 1.385 . S
C2846 C2845 1.374 . S
C2847 C2844 1.499 . S
C2847 C2848 1.373 . S
C2847 C2849 1.389 . S
C2848 H2821 0.950 . S
C2848 C2834 1.377 . S
C2848 C2847 1.373 . S
C2849 C2833 1.377 . S
C2849 C2847 1.389 . S
C2849 C2850 1.524 . S
C2850 C2849 1.524 . S
C2850 C2851 1.397 . S
C2850 C2855 1.363 . S
C2851 H2822 0.950 . S
C2851 C2850 1.397 . S
C2851 C2852 1.334 . S
C2852 H2823 0.950 . S
C2852 C2851 1.334 . S
C2852 C2853 1.287 . S
C2853 C2852 1.287 . S
C2853 C2854 1.524 . S
C2853 H2856 0.999 . S
C2854 H2824 0.950 . S
C2854 C2853 1.524 . S
C2854 C2855 1.415 . S
C2855 H2825 0.950 . S
C2855 C2850 1.363 . S
C2855 C2854 1.415 . S
H2856 C2853 0.999 . S
H2857 C2838 0.913 . S
H2858 C2876 0.951 . S
H2859 C2878 0.951 . S
H2860 C2880 0.950 . S
H2861 C2881 0.950 . S
H2862 C2883 0.950 . S
H2863 C2886 0.950 . S
H2864 C2887 0.950 . S
H2865 C2889 0.950 . S
H2866 C2890 0.950 . S
H2867 C2891 0.951 . S
H2868 C2893 0.951 . S
H2869 C2895 0.950 . S
H2870 C2896 0.950 . S
H2871 C2898 0.950 . S
H2872 C2901 0.950 . S
H2873 C2902 0.950 . S
H2874 C2904 0.950 . S
H2875 C2905 0.950 . S
C2876 H2858 0.951 . S
C2876 C2877 1.366 . S
C2876 C2878 1.388 . S
C2877 C2876 1.366 . S
C2877 C2881 1.385 . S
C2878 H2859 0.951 . S
C2878 C2876 1.388 . S
C2878 C2879 1.366 . S
C2879 C2878 1.366 . S
C2879 C2880 1.414 . S
C2879 C2882 1.499 . S
C2880 H2860 0.950 . S
C2880 C2879 1.414 . S
C2880 C2881 1.374 . S
C2881 H2861 0.950 . S
C2881 C2877 1.385 . S
C2881 C2880 1.374 . S
C2882 C2879 1.499 . S
C2882 C2883 1.373 . S
C2882 C2884 1.389 . S
C2883 H2862 0.950 . S
C2883 C2882 1.373 . S
C2883 C2899 1.377 . S
C2884 C2882 1.389 . S
C2884 C2885 1.524 . S
C2884 C2898 1.377 . S
C2885 C2884 1.524 . S
C2885 C2886 1.397 . S
C2885 C2890 1.363 . S
C2886 H2863 0.950 . S
C2886 C2885 1.397 . S
C2886 C2887 1.334 . S
C2887 H2864 0.950 . S
C2887 C2886 1.334 . S
C2887 C2888 1.287 . S
C2888 C2887 1.287 . S
C2888 C2889 1.524 . S
C2888 H2907 0.913 . S
C2889 H2865 0.950 . S
C2889 C2888 1.524 . S
C2889 C2890 1.415 . S
C2890 H2866 0.950 . S
C2890 C2885 1.363 . S
C2890 C2889 1.415 . S
C2891 H2867 0.951 . S
C2891 C2892 1.366 . S
C2891 C2893 1.388 . S
C2892 C2891 1.366 . S
C2892 C2896 1.385 . S
C2893 H2868 0.951 . S
C2893 C2891 1.388 . S
C2893 C2894 1.366 . S
C2894 C2893 1.366 . S
C2894 C2895 1.414 . S
C2894 C2897 1.499 . S
C2895 H2869 0.950 . S
C2895 C2894 1.414 . S
C2895 C2896 1.374 . S
C2896 H2870 0.950 . S
C2896 C2892 1.385 . S
C2896 C2895 1.374 . S
C2897 C2894 1.499 . S
C2897 C2898 1.373 . S
C2897 C2899 1.389 . S
C2898 H2871 0.950 . S
C2898 C2884 1.377 . S
C2898 C2897 1.373 . S
C2899 C2883 1.377 . S
C2899 C2897 1.389 . S
C2899 C2900 1.524 . S
C2900 C2899 1.524 . S
C2900 C2901 1.397 . S
C2900 C2905 1.363 . S
C2901 H2872 0.950 . S
C2901 C2900 1.397 . S
C2901 C2902 1.334 . S
C2902 H2873 0.950 . S
C2902 C2901 1.334 . S
C2902 C2903 1.287 . S
C2903 C2902 1.287 . S
C2903 C2904 1.524 . S
C2903 H2906 0.999 . S
C2904 H2874 0.950 . S
C2904 C2903 1.524 . S
C2904 C2905 1.415 . S
C2905 H2875 0.950 . S
C2905 C2900 1.363 . S
C2905 C2904 1.415 . S
H2906 C2903 0.999 . S
H2907 C2888 0.913 . S
H2908 C2926 0.951 . S
H2909 C2928 0.951 . S
H2910 C2930 0.950 . S
H2911 C2931 0.950 . S
H2912 C2933 0.950 . S
H2913 C2936 0.950 . S
H2914 C2937 0.950 . S
H2915 C2939 0.950 . S
H2916 C2940 0.950 1_655 S
H2917 C2941 0.951 . S
H2918 C2943 0.951 . S
H2919 C2945 0.950 . S
H2920 C2946 0.950 . S
H2921 C2948 0.950 . S
H2922 C2951 0.950 . S
H2923 C2952 0.950 . S
H2924 C2954 0.950 . S
H2925 C2955 0.950 1_455 S
C2926 H2908 0.951 . S
C2926 C2927 1.366 1_655 S
C2926 C2928 1.388 . S
C2927 C2926 1.366 1_455 S
C2927 C2931 1.385 . S
C2928 H2909 0.951 . S
C2928 C2926 1.388 . S
C2928 C2929 1.366 1_655 S
C2929 C2928 1.366 1_455 S
C2929 C2930 1.414 . S
C2929 C2932 1.499 . S
C2930 H2910 0.950 . S
C2930 C2929 1.414 . S
C2930 C2931 1.374 . S
C2931 H2911 0.950 . S
C2931 C2927 1.385 . S
C2931 C2930 1.374 . S
C2932 C2929 1.499 . S
C2932 C2933 1.373 1_455 S
C2932 C2934 1.389 . S
C2933 H2912 0.950 . S
C2933 C2932 1.373 1_655 S
C2933 C2949 1.377 . S
C2934 C2932 1.389 . S
C2934 C2935 1.524 . S
C2934 C2948 1.377 . S
C2935 C2934 1.524 . S
C2935 C2936 1.397 . S
C2935 C2940 1.363 . S
C2936 H2913 0.950 . S
C2936 C2935 1.397 . S
C2936 C2937 1.334 . S
C2937 H2914 0.950 . S
C2937 C2936 1.334 . S
C2937 C2938 1.287 . S
C2938 C2937 1.287 . S
C2938 C2939 1.524 . S
C2938 H2957 0.913 . S
C2939 H2915 0.950 . S
C2939 C2938 1.524 . S
C2939 C2940 1.415 . S
C2940 H2916 0.950 1_455 S
C2940 C2935 1.363 . S
C2940 C2939 1.415 . S
C2941 H2917 0.951 . S
C2941 C2942 1.366 . S
C2941 C2943 1.388 . S
C2942 C2941 1.366 . S
C2942 C2946 1.385 1_455 S
C2943 H2918 0.951 . S
C2943 C2941 1.388 . S
C2943 C2944 1.366 . S
C2944 C2943 1.366 . S
C2944 C2945 1.414 1_455 S
C2944 C2947 1.500 . S
C2945 H2919 0.950 . S
C2945 C2944 1.414 1_655 S
C2945 C2946 1.374 . S
C2946 H2920 0.950 . S
C2946 C2942 1.385 1_655 S
C2946 C2945 1.374 . S
C2947 C2944 1.500 . S
C2947 C2948 1.385 . S
C2947 C2949 1.382 1_455 S
C2948 H2921 0.950 . S
C2948 C2934 1.377 . S
C2948 C2947 1.385 . S
C2949 C2933 1.377 . S
C2949 C2947 1.382 1_655 S
C2949 C2950 1.524 . S
C2950 C2949 1.524 . S
C2950 C2951 1.397 . S
C2950 C2955 1.363 . S
C2951 H2922 0.950 . S
C2951 C2950 1.397 . S
C2951 C2952 1.334 . S
C2952 H2923 0.950 . S
C2952 C2951 1.334 . S
C2952 C2953 1.287 . S
C2953 C2952 1.287 . S
C2953 C2954 1.524 . S
C2953 H2956 0.999 . S
C2954 H2924 0.950 . S
C2954 C2953 1.524 . S
C2954 C2955 1.415 . S
C2955 H2925 0.950 1_655 S
C2955 C2950 1.363 . S
C2955 C2954 1.415 . S
H2956 C2953 0.999 . S
H2957 C2938 0.913 . S
H2958 C2976 0.951 . S
H2959 C2978 0.951 . S
H2960 C2980 0.950 . S
H2961 C2981 0.950 . S
H2962 C2983 0.950 . S
H2963 C2986 0.950 . S
H2964 C2987 0.950 . S
H2965 C2989 0.950 . S
H2966 C2990 0.950 . S
H2967 C2991 0.951 . S
H2968 C2993 0.951 . S
H2969 C2995 0.950 . S
H2970 C2996 0.950 . S
H2971 C2998 0.950 . S
H2972 C3001 0.950 . S
H2973 C3002 0.950 . S
H2974 C3004 0.950 . S
H2975 C3005 0.950 . S
C2976 H2958 0.951 . S
C2976 C2977 1.366 1_565 S
C2976 C2978 1.388 . S
C2977 C2976 1.366 1_545 S
C2977 C2981 1.385 . S
C2978 H2959 0.951 . S
C2978 C2976 1.388 . S
C2978 C2979 1.366 1_565 S
C2979 C2978 1.366 1_545 S
C2979 C2980 1.414 . S
C2979 C2982 1.499 . S
C2980 H2960 0.950 . S
C2980 C2979 1.414 . S
C2980 C2981 1.374 . S
C2981 H2961 0.950 . S
C2981 C2977 1.385 . S
C2981 C2980 1.374 . S
C2982 C2979 1.499 . S
C2982 C2983 1.373 . S
C2982 C2984 1.389 1_545 S
C2983 H2962 0.950 . S
C2983 C2982 1.373 . S
C2983 C2999 1.377 . S
C2984 C2982 1.389 1_565 S
C2984 C2985 1.524 . S
C2984 C2998 1.377 . S
C2985 C2984 1.524 . S
C2985 C2986 1.397 . S
C2985 C2990 1.363 . S
C2986 H2963 0.950 . S
C2986 C2985 1.397 . S
C2986 C2987 1.334 . S
C2987 H2964 0.950 . S
C2987 C2986 1.334 . S
C2987 C2988 1.287 . S
C2988 C2987 1.287 . S
C2988 C2989 1.524 . S
C2988 H3007 0.913 . S
C2989 H2965 0.950 . S
C2989 C2988 1.524 . S
C2989 C2990 1.415 . S
C2990 H2966 0.950 . S
C2990 C2985 1.363 . S
C2990 C2989 1.415 . S
C2991 H2967 0.951 . S
C2991 C2992 1.366 . S
C2991 C2993 1.388 . S
C2992 C2991 1.366 . S
C2992 C2996 1.385 1_545 S
C2993 H2968 0.951 . S
C2993 C2991 1.388 . S
C2993 C2994 1.366 . S
C2994 C2993 1.366 . S
C2994 C2995 1.414 1_545 S
C2994 C2997 1.499 . S
C2995 H2969 0.950 . S
C2995 C2994 1.414 1_565 S
C2995 C2996 1.374 . S
C2996 H2970 0.950 . S
C2996 C2992 1.385 1_565 S
C2996 C2995 1.374 . S
C2997 C2994 1.499 . S
C2997 C2998 1.373 1_545 S
C2997 C2999 1.389 . S
C2998 H2971 0.950 . S
C2998 C2984 1.377 . S
C2998 C2997 1.373 1_565 S
C2999 C2983 1.377 . S
C2999 C2997 1.389 . S
C2999 C3000 1.524 . S
C3000 C2999 1.524 . S
C3000 C3001 1.397 . S
C3000 C3005 1.363 . S
C3001 H2972 0.950 . S
C3001 C3000 1.397 . S
C3001 C3002 1.334 . S
C3002 H2973 0.950 . S
C3002 C3001 1.334 . S
C3002 C3003 1.287 . S
C3003 C3002 1.287 . S
C3003 C3004 1.524 . S
C3003 H3006 0.999 . S
C3004 H2974 0.950 . S
C3004 C3003 1.524 . S
C3004 C3005 1.415 . S
C3005 H2975 0.950 . S
C3005 C3000 1.363 . S
C3005 C3004 1.415 . S
H3006 C3003 0.999 . S
H3007 C2988 0.913 . S
C1427 C57 2.000 . S
C1442 C645 2.000 . S
C1477 C145 2.005 . S
C1492 C372 2.005 . S
C1527 C489 1.999 . S
C1542 C205 2.000 . S
C1577 C321 2.003 . S
C1592 C548 2.002 . S
C1627 C724 2.005 . S
C1642 C1113 2.005 . S
C1677 C849 1.999 . S
C1692 C1252 2.000 . S
C1727 C1025 2.002 . S
C1742 C900 2.002 . S
C1777 C1340 2.000 . S
C1792 C1201 2.000 . S
C1827 C29 0.974 . S
C1842 C585 0.969 . S
C1877 C636 0.986 . S
C1892 C137 0.986 . S
C1927 C233 0.968 . S
C1942 C409 0.964 . S
C1977 C497 1.001 . S
C1992 C284 1.002 . S
C2027 C49 0.978 . S
C2042 C1261 0.979 . S
C2077 C997 0.959 . S
C2092 C108 0.956 . S
C2127 C1193 0.979 . S
C2142 C196 0.978 . S
C2177 C1076 0.956 . S
C2192 C293 0.960 . S
C2227 C929 1.006 . S
C2242 C401 1.006 . S
C2277 C469 0.975 . S
C2292 C1377 0.975 . S
C2327 C577 1.006 . S
C2342 C753 1.006 . S
C2377 C665 0.976 . S
C2392 C812 0.976 . S
C2427 C20 0.990 . S
C2442 C381 0.991 . S
C2477 C733 0.990 . S
C2492 C1164 0.990 . S
C2527 C1085 0.990 . S
C2542 C821 0.991 . S
C2577 C1289 0.978 . S
C2592 C909 0.978 . S
C2627 C673 0.982 . S
C2642 C313 0.978 . S
C2677 C225 0.978 . S
C2692 C557 0.978 . S
C2727 C1017 0.979 . S
C2742 C1369 0.983 . S
C2777 C1173 0.973 . S
C2792 C937 0.970 . S
C2827 C1349 0.985 . S
C2842 C1105 0.985 . S
C2877 C1281 0.969 . S
C2892 C761 0.964 . S
C2927 C988 1.002 . S
C2942 C841 1.001 . S
C2977 C117 0.990 . S
C2992 C460 0.991 . S
