# Generated by pormake.
# Topology tfs, (6)-cn, num edge types: 1
# Building blocks:
#     Node 0, Type 0, BuildingBlock: MIFKUJ_clean_sbu_0, # of connection points: 6
#     Node 1, Type 0, BuildingBlock: MIFKUJ_clean_sbu_0, # of connection points: 6
#     Node 2, Type 0, BuildingBlock: MIFKUJ_clean_sbu_0, # of connection points: 6
#     Node 3, Type 0, BuildingBlock: MIFKUJ_clean_sbu_0, # of connection points: 6
#     Node 4, Type 0, BuildingBlock: MIFKUJ_clean_sbu_0, # of connection points: 6
#     Node 5, Type 0, BuildingBlock: MIFKUJ_clean_sbu_0, # of connection points: 6
#     Edge 6, Type (0, 0), BuildingBlock: TEMPAE_clean_linker_10, # of connection points: 2
#     Edge 7, Type (0, 0), BuildingBlock: TEMPAE_clean_linker_10, # of connection points: 2
#     Edge 8, Type (0, 0), BuildingBlock: TEMPAE_clean_linker_10, # of connection points: 2
#     Edge 9, Type (0, 0), BuildingBlock: TEMPAE_clean_linker_10, # of connection points: 2
#     Edge 10, Type (0, 0), BuildingBlock: TEMPAE_clean_linker_10, # of connection points: 2
#     Edge 11, Type (0, 0), BuildingBlock: TEMPAE_clean_linker_10, # of connection points: 2
#     Edge 12, Type (0, 0), BuildingBlock: TEMPAE_clean_linker_10, # of connection points: 2
#     Edge 13, Type (0, 0), BuildingBlock: TEMPAE_clean_linker_10, # of connection points: 2
#     Edge 14, Type (0, 0), BuildingBlock: TEMPAE_clean_linker_10, # of connection points: 2
#     Edge 15, Type (0, 0), BuildingBlock: TEMPAE_clean_linker_10, # of connection points: 2
#     Edge 16, Type (0, 0), BuildingBlock: TEMPAE_clean_linker_10, # of connection points: 2
#     Edge 17, Type (0, 0), BuildingBlock: TEMPAE_clean_linker_10, # of connection points: 2
#     Edge 18, Type (0, 0), BuildingBlock: TEMPAE_clean_linker_10, # of connection points: 2
#     Edge 19, Type (0, 0), BuildingBlock: TEMPAE_clean_linker_10, # of connection points: 2
#     Edge 20, Type (0, 0), BuildingBlock: TEMPAE_clean_linker_10, # of connection points: 2
#     Edge 21, Type (0, 0), BuildingBlock: TEMPAE_clean_linker_10, # of connection points: 2
#     Edge 22, Type (0, 0), BuildingBlock: TEMPAE_clean_linker_10, # of connection points: 2
#     Edge 23, Type (0, 0), BuildingBlock: TEMPAE_clean_linker_10, # of connection points: 2
# Relax obj value: 0.416
# Max RMSD: 0.244
# Mean RMSD: 0.244
data_MOF--net-tfs--node1-MIFKUJ_clean_sbu_0--edge1-TEMPAE_clean_linker_10
_symmetry_space_group_name_H-M    P1
_symmetry_Int_Tables_number       1
_symmetry_cell_setting            triclinic
loop_
_symmetry_equiv_pos_as_xyz
'x, y, z'
_cell_length_a     48.132491
_cell_length_b     48.128856
_cell_length_c     14.018025
_cell_angle_alpha  89.978005
_cell_angle_beta   90.031655
_cell_angle_gamma 120.06325
loop_
_atom_site_label
_atom_site_type_symbol
_atom_site_fract_x
_atom_site_fract_y
_atom_site_fract_z
_atom_type_partial_charge
Zn0 Zn 0.2097 0.45895 0.92762 0.0
Zn1 Zn 0.19209 0.37005 0.96797 0.0
C2 C 0.27054 0.50959 0.98619 0.0
O3 O 0.25189 0.51351 0.04652 0.0
C4 C 0.12875 0.31821 0.996 0.0
O5 O 0.13907 0.30517 0.93328 0.0
O6 O 0.19413 0.49005 0.90591 0.0
O7 O 0.1964 0.42669 0.81902 0.0
O8 O 0.18649 0.37617 0.82919 0.0
C9 C 0.20896 0.51329 0.84832 0.0
O10 O 0.23162 0.51404 0.79424 0.0
O11 O 0.25794 0.48586 0.92929 0.0
C12 C 0.20935 0.32578 0.0505 0.0
O13 O 0.18836 0.32237 0.11605 0.0
O14 O 0.21494 0.34508 0.98175 0.0
O15 O 0.21716 0.41276 0.02587 0.0
O16 O 0.19361 0.44015 0.05614 0.0
O17 O 0.14794 0.34644 0.02542 0.0
C18 C 0.18853 0.3996 0.78103 0.0
C19 C 0.20089 0.41951 0.08217 0.0
Zn20 Zn 0.76579 0.22757 0.90881 0.0
Zn21 Zn 0.82886 0.19629 0.9571 0.0
C22 C 0.77878 0.28733 0.9744 0.0
O23 O 0.75364 0.26734 0.02504 0.0
C24 C 0.81047 0.13071 0.97243 0.0
O25 O 0.829 0.13885 0.89669 0.0
O26 O 0.72212 0.21789 0.86705 0.0
O27 O 0.78565 0.21095 0.81072 0.0
O28 O 0.81952 0.19206 0.81551 0.0
C29 C 0.69657 0.19073 0.86727 0.0
O30 O 0.698 0.16498 0.88986 0.0
O31 O 0.79095 0.27582 0.9173 0.0
C32 C 0.8897 0.21457 0.05018 0.0
O33 O 0.87168 0.19358 0.11521 0.0
O34 O 0.87646 0.2194 0.97859 0.0
O35 O 0.80985 0.2213 0.0049 0.0
O36 O 0.76167 0.2096 0.04124 0.0
O37 O 0.80699 0.15209 0.01477 0.0
C38 C 0.80142 0.1996 0.76894 0.0
C39 C 0.78692 0.20935 0.06396 0.0
Zn40 Zn 0.53669 0.76129 0.98114 0.0
Zn41 Zn 0.63212 0.83018 0.02906 0.0
C42 C 0.48421 0.77051 0.01956 0.0
O43 O 0.47827 0.7472 0.07963 0.0
C44 C 0.6811 0.81449 0.04692 0.0
O45 O 0.69006 0.83154 0.96805 0.0
O46 O 0.50687 0.71461 0.94999 0.0
O47 O 0.57471 0.78319 0.88664 0.0
O48 O 0.62706 0.81912 0.88826 0.0
C49 C 0.48489 0.70683 0.88804 0.0
O50 O 0.48497 0.72947 0.83539 0.0
O51 O 0.50979 0.78242 0.9703 0.0
C52 C 0.6776 0.89392 0.10162 0.0
O53 O 0.68698 0.87827 0.15759 0.0
O54 O 0.65447 0.87825 0.04413 0.0
O55 O 0.58763 0.80897 0.07366 0.0
O56 O 0.54982 0.76251 0.11872 0.0
O57 O 0.65637 0.8109 0.09043 0.0
C58 C 0.60154 0.79956 0.84321 0.0
C59 C 0.57586 0.78773 0.13794 0.0
Zn60 Zn 0.78149 0.54277 0.03818 0.0
Zn61 Zn 0.8 0.6356 0.08643 0.0
C62 C 0.72301 0.4871 0.02391 0.0
O63 O 0.73921 0.48029 0.08601 0.0
C64 C 0.86496 0.67638 0.01611 0.0
O65 O 0.8509 0.66797 0.93239 0.0
O66 O 0.80575 0.51929 0.01426 0.0
O67 O 0.80315 0.58713 0.98911 0.0
O68 O 0.78673 0.62014 0.95173 0.0
C69 C 0.79982 0.50309 0.93777 0.0
O70 O 0.78153 0.50569 0.87293 0.0
O71 O 0.73636 0.51518 0.98838 0.0
C72 C 0.78828 0.68513 0.16701 0.0
O73 O 0.81758 0.69778 0.20104 0.0
O74 O 0.77642 0.65891 0.12085 0.0
O75 O 0.78876 0.59835 0.17885 0.0
O76 O 0.77775 0.54759 0.17923 0.0
O77 O 0.84801 0.66591 0.09126 0.0
C78 C 0.78982 0.5964 0.92934 0.0
C79 C 0.78156 0.57243 0.22343 0.0
Zn80 Zn 0.23657 0.78658 0.97684 0.0
Zn81 Zn 0.17078 0.81762 0.02928 0.0
C82 C 0.22917 0.72555 0.00456 0.0
O83 O 0.25187 0.74269 0.06662 0.0
C84 C 0.22271 0.878 0.07746 0.0
O85 O 0.23691 0.8662 0.02467 0.0
O86 O 0.28355 0.80543 0.94645 0.0
O87 O 0.21393 0.80409 0.88972 0.0
O88 O 0.18024 0.82306 0.88702 0.0
C89 C 0.29233 0.79277 0.88234 0.0
O90 O 0.27045 0.77094 0.82602 0.0
O91 O 0.21678 0.7391 0.95698 0.0
C92 C 0.10684 0.80707 0.03703 0.0
O93 O 0.12193 0.83749 0.01211 0.0
O94 O 0.12305 0.7932 0.05107 0.0
O95 O 0.19148 0.79335 0.06875 0.0
O96 O 0.23429 0.79453 0.11814 0.0
O97 O 0.19271 0.86093 0.09241 0.0
C98 C 0.19872 0.81528 0.84348 0.0
C99 C 0.21062 0.79812 0.13668 0.0
Zn100 Zn 0.4667 0.23831 0.02625 0.0
Zn101 Zn 0.3667 0.17778 0.079 0.0
C102 C 0.51083 0.21576 0.02921 0.0
O103 O 0.51356 0.22577 0.11772 0.0
C104 C 0.31787 0.19306 0.04701 0.0
O105 O 0.30964 0.17033 0.98291 0.0
O106 O 0.49094 0.28574 0.99771 0.0
O107 O 0.42221 0.21418 0.98413 0.0
O108 O 0.37507 0.17981 0.93539 0.0
C109 C 0.50788 0.29575 0.92241 0.0
O110 O 0.50558 0.27465 0.8588 0.0
O111 O 0.49126 0.21819 0.97399 0.0
C112 C 0.34397 0.11566 0.17733 0.0
O113 O 0.36861 0.13106 0.23491 0.0
O114 O 0.33923 0.13099 0.11152 0.0
O115 O 0.40836 0.2 0.16015 0.0
O116 O 0.46126 0.23111 0.1685 0.0
O117 O 0.34181 0.20023 0.10067 0.0
C118 C 0.40404 0.19936 0.91523 0.0
C119 C 0.4342 0.21382 0.20936 0.0
C120 C 0.31126 0.23732 0.11577 0.0
C121 C 0.30082 0.21142 0.05245 0.0
C122 C 0.29632 0.25593 0.11835 0.0
C123 C 0.27025 0.24836 0.05642 0.0
C124 C 0.25928 0.22196 0.99332 0.0
C125 C 0.27473 0.20382 0.99202 0.0
C126 C 0.30878 0.28403 0.18622 0.0
C127 C 0.23149 0.21316 0.92631 0.0
C128 C 0.21444 0.28024 0.11638 0.0
C129 C 0.2254 0.30645 0.05407 0.0
C130 C 0.22877 0.26103 0.11777 0.0
C131 C 0.25489 0.2685 0.05618 0.0
C132 C 0.26633 0.29517 0.99401 0.0
C133 C 0.25134 0.31373 0.99336 0.0
C134 C 0.21577 0.23257 0.18436 0.0
C135 C 0.29433 0.30403 0.9279 0.0
H136 H 0.33144 0.24339 0.16258 0.0
H137 H 0.26652 0.18384 0.94287 0.0
H138 H 0.31718 0.30661 0.14544 0.0
H139 H 0.2892 0.28134 0.23394 0.0
H140 H 0.32893 0.28638 0.23084 0.0
H141 H 0.22533 0.19137 0.88361 0.0
H142 H 0.20998 0.20886 0.9673 0.0
H143 H 0.23747 0.23335 0.87668 0.0
H144 H 0.1943 0.27438 0.16311 0.0
H145 H 0.26002 0.33404 0.94527 0.0
H146 H 0.23501 0.23492 0.23303 0.0
H147 H 0.20754 0.21019 0.1427 0.0
H148 H 0.19538 0.23009 0.22798 0.0
H149 H 0.3157 0.3083 0.96968 0.0
H150 H 0.30066 0.32587 0.88523 0.0
H151 H 0.28854 0.2839 0.87825 0.0
C152 C 0.07322 0.27105 0.98743 0.0
C153 C 0.09448 0.30166 0.02373 0.0
C154 C 0.04008 0.25656 0.0033 0.0
C155 C 0.02791 0.27308 0.05672 0.0
C156 C 0.04938 0.30321 0.098 0.0
C157 C 0.08247 0.31716 0.08105 0.0
C158 C 0.01799 0.22427 0.95865 0.0
C159 C 0.03735 0.32148 0.15589 0.0
C160 C 0.94402 0.25345 0.98641 0.0
C161 C 0.92516 0.23126 0.05682 0.0
C162 C 0.97754 0.26798 0.98756 0.0
C163 C 0.99267 0.26015 0.06092 0.0
C164 C 0.97392 0.2386 0.13406 0.0
C165 C 0.94033 0.22438 0.13116 0.0
C166 C 0.99671 0.29096 0.90842 0.0
C167 C 0.98925 0.22982 0.21364 0.0
H168 H 0.08232 0.25877 0.94385 0.0
H169 H 0.09877 0.34073 0.11002 0.0
H170 H 0.00105 0.20748 0.01263 0.0
H171 H 0.00346 0.22703 0.90192 0.0
H172 H 0.03137 0.21332 0.92662 0.0
H173 H 0.05715 0.34243 0.19312 0.0
H174 H 0.02502 0.33028 0.10812 0.0
H175 H 0.01957 0.30556 0.20964 0.0
H176 H 0.93256 0.25911 0.92904 0.0
H177 H 0.92595 0.20738 0.18612 0.0
H178 H 0.00905 0.28087 0.86606 0.0
H179 H 0.01552 0.3141 0.93879 0.0
H180 H 0.98144 0.2958 0.85955 0.0
H181 H 0.00037 0.2163 0.18411 0.0
H182 H 0.97162 0.21486 0.26924 0.0
H183 H 0.00868 0.25181 0.24768 0.0
C184 C 0.7937 0.07295 0.94968 0.0
C185 C 0.7922 0.09674 0.00336 0.0
C186 C 0.77504 0.04041 0.97385 0.0
C187 C 0.75443 0.03137 0.05402 0.0
C188 C 0.7534 0.0553 0.11012 0.0
C189 C 0.77226 0.08774 0.08399 0.0
C190 C 0.77681 0.01562 0.91209 0.0
C191 C 0.73185 0.04661 0.19638 0.0
C192 C 0.68431 0.94609 0.04349 0.0
C193 C 0.69569 0.92948 0.09839 0.0
C194 C 0.7026 0.9795 0.03203 0.0
C195 C 0.73311 0.99673 0.07606 0.0
C196 C 0.74418 0.98032 0.13467 0.0
C197 C 0.72529 0.94687 0.14539 0.0
C198 C 0.68984 0.99616 0.96952 0.0
C199 C 0.7766 0.99786 0.18269 0.0
H200 H 0.80904 0.07966 0.88734 0.0
H201 H 0.77103 0.106 0.12605 0.0
H202 H 0.78292 0.00029 0.95622 0.0
H203 H 0.75304 0.99969 0.87909 0.0
H204 H 0.79492 0.02668 0.85433 0.0
H205 H 0.73526 0.06814 0.23569 0.0
H206 H 0.70638 0.03235 0.17388 0.0
H207 H 0.73654 0.03142 0.24584 0.0
H208 H 0.66135 0.93288 0.00756 0.0
H209 H 0.73425 0.93426 0.18806 0.0
H210 H 0.70505 0.00577 0.9049 0.0
H211 H 0.6909 0.01683 0.00785 0.0
H212 H 0.66468 0.97978 0.94664 0.0
H213 H 0.79579 0.00704 0.12783 0.0
H214 H 0.78047 0.98218 0.23258 0.0
H215 H 0.77919 0.01891 0.22271 0.0
C216 C 0.7406 0.69056 0.12673 0.0
C217 C 0.77069 0.7031 0.17093 0.0
C218 C 0.72543 0.70886 0.11834 0.0
C219 C 0.7406 0.74044 0.15555 0.0
C220 C 0.77006 0.75256 0.2052 0.0
C221 C 0.78481 0.73377 0.21212 0.0
C222 C 0.69402 0.69502 0.06483 0.0
C223 C 0.78678 0.78599 0.2468 0.0
C224 C 0.72205 0.79784 0.02271 0.0
C225 C 0.69805 0.79768 0.07975 0.0
C226 C 0.73665 0.77999 0.04816 0.0
C227 C 0.72727 0.76171 0.13333 0.0
C228 C 0.70392 0.76237 0.1932 0.0
C229 C 0.68944 0.78024 0.16545 0.0
C230 C 0.76133 0.77981 0.982 0.0
C231 C 0.69357 0.74351 0.2851 0.0
H232 H 0.72934 0.6668 0.09528 0.0
H233 H 0.80795 0.74359 0.247 0.0
H234 H 0.67604 0.69765 0.10727 0.0
H235 H 0.69771 0.70843 0.99721 0.0
H236 H 0.68403 0.66921 0.04747 0.0
H237 H 0.80726 0.79033 0.29332 0.0
H238 H 0.79599 0.80389 0.18819 0.0
H239 H 0.76968 0.79014 0.28888 0.0
H240 H 0.7289 0.81127 0.95646 0.0
H241 H 0.67103 0.78014 0.21021 0.0
H242 H 0.75238 0.75519 0.9541 0.0
H243 H 0.7839 0.78684 0.02138 0.0
H244 H 0.76692 0.79635 0.92053 0.0
H245 H 0.68082 0.71744 0.26904 0.0
H246 H 0.67737 0.74889 0.32774 0.0
H247 H 0.71485 0.74881 0.32904 0.0
C248 C 0.05498 0.75544 0.05781 0.0
C249 C 0.0713 0.78872 0.04237 0.0
C250 C 0.02131 0.73748 0.05714 0.0
C251 C 0.00351 0.75319 0.04121 0.0
C252 C 0.0198 0.78687 0.02793 0.0
C253 C 0.0535 0.80422 0.02845 0.0
C254 C 0.00479 0.70157 0.07121 0.0
C255 C 0.00163 0.80449 0.01131 0.0
C256 C 0.9193 0.70367 0.94048 0.0
C257 C 0.90032 0.69681 0.0226 0.0
C258 C 0.95289 0.72208 0.94559 0.0
C259 C 0.96787 0.73418 0.03486 0.0
C260 C 0.94885 0.72776 0.11784 0.0
C261 C 0.91529 0.70902 0.11081 0.0
C262 C 0.97236 0.72825 0.85554 0.0
C263 C 0.96397 0.74051 0.21412 0.0
H264 H 0.06852 0.74325 0.06864 0.0
H265 H 0.06588 0.82994 0.01678 0.0
H266 H 0.98755 0.69424 0.13133 0.0
H267 H 0.99084 0.68919 0.00636 0.0
H268 H 0.02206 0.69316 0.08598 0.0
H269 H 0.01781 0.8309 0.00693 0.0
H270 H 0.98779 0.7961 0.94386 0.0
H271 H 0.98411 0.79918 0.0697 0.0
H272 H 0.90796 0.69426 0.87208 0.0
H273 H 0.90078 0.70394 0.17453 0.0
H274 H 0.98866 0.71831 0.86306 0.0
H275 H 0.9876 0.75446 0.8435 0.0
H276 H 0.95702 0.71735 0.79165 0.0
H277 H 0.97984 0.73082 0.23341 0.0
H278 H 0.94578 0.73406 0.27132 0.0
H279 H 0.97917 0.76704 0.21132 0.0
C280 C 0.22756 0.92334 0.1777 0.0
C281 C 0.24093 0.91157 0.11132 0.0
C282 C 0.24372 0.95594 0.20351 0.0
C283 C 0.27362 0.97722 0.16064 0.0
C284 C 0.28777 0.96515 0.09662 0.0
C285 C 0.27136 0.93245 0.07333 0.0
C286 C 0.22819 0.9678 0.27357 0.0
C287 C 0.31952 0.98706 0.04877 0.0
C288 C 0.29849 0.06417 0.11605 0.0
C289 C 0.32358 0.08023 0.18182 0.0
C290 C 0.28111 0.03059 0.11148 0.0
C291 C 0.2888 0.01249 0.17467 0.0
C292 C 0.3129 0.02842 0.24469 0.0
C293 C 0.33012 0.06217 0.24727 0.0
C294 C 0.25559 0.01454 0.03567 0.0
C295 C 0.32142 0.00987 0.31414 0.0
H296 H 0.20421 0.90721 0.20825 0.0
H297 H 0.28191 0.92352 0.02225 0.0
H298 H 0.24582 0.98348 0.32804 0.0
H299 H 0.21974 0.98239 0.23542 0.0
H300 H 0.20734 0.94772 0.3103 0.0
H301 H 0.3282 0.9736 0.00553 0.0
H302 H 0.31697 0.00411 0.00125 0.0
H303 H 0.33802 0.00148 0.10283 0.0
H304 H 0.29303 0.07786 0.06568 0.0
H305 H 0.3493 0.07435 0.29879 0.0
H306 H 0.23271 0.99605 0.06814 0.0
H307 H 0.26311 0.00216 0.98378 0.0
H308 H 0.25109 0.03192 0.99619 0.0
H309 H 0.29941 0.9901 0.34706 0.0
H310 H 0.33763 0.02544 0.37165 0.0
H311 H 0.33358 0.99881 0.27558 0.0
C312 C 0.19873 0.67459 0.91116 0.0
C313 C 0.22114 0.69229 0.98253 0.0
C314 C 0.19309 0.64409 0.8842 0.0
C315 C 0.21032 0.63111 0.92963 0.0
C316 C 0.23232 0.64849 0.00346 0.0
C317 C 0.23742 0.67884 0.02908 0.0
C318 C 0.16939 0.62617 0.80542 0.0
C319 C 0.25115 0.63542 0.05375 0.0
C320 C 0.18368 0.5425 0.92272 0.0
C321 C 0.20549 0.54206 0.85711 0.0
C322 C 0.18391 0.5711 0.9438 0.0
C323 C 0.20645 0.59989 0.89811 0.0
C324 C 0.22725 0.59927 0.82788 0.0
C325 C 0.22647 0.57032 0.80807 0.0
C326 C 0.16129 0.57082 0.01892 0.0
C327 C 0.2516 0.62951 0.77751 0.0
H328 H 0.18604 0.68482 0.87488 0.0
H329 H 0.25477 0.69232 0.08431 0.0
H330 H 0.18213 0.62336 0.74351 0.0
H331 H 0.15141 0.60171 0.82977 0.0
H332 H 0.15658 0.63873 0.78118 0.0
H333 H 0.26641 0.65141 0.11209 0.0
H334 H 0.23455 0.61142 0.08425 0.0
H335 H 0.26682 0.63237 0.00186 0.0
H336 H 0.16728 0.52074 0.9607 0.0
H337 H 0.24336 0.57022 0.75715 0.0
H338 H 0.14886 0.5835 0.99281 0.0
H339 H 0.17518 0.58377 0.08327 0.0
H340 H 0.14297 0.54605 0.04012 0.0
H341 H 0.23988 0.64245 0.74787 0.0
H342 H 0.2639 0.62447 0.71866 0.0
H343 H 0.27001 0.6458 0.82933 0.0
C344 C 0.53361 0.19898 0.89504 0.0
C345 C 0.53242 0.20469 0.99274 0.0
C346 C 0.5567 0.19206 0.85906 0.0
C347 C 0.57908 0.19103 0.92238 0.0
C348 C 0.57676 0.19499 0.0216 0.0
C349 C 0.55342 0.2017 0.05551 0.0
C350 C 0.55815 0.18753 0.75302 0.0
C351 C 0.60014 0.19403 0.09167 0.0
C352 C 0.63632 0.16054 0.87096 0.0
C353 C 0.66531 0.18959 0.86059 0.0
C354 C 0.60719 0.16027 0.88274 0.0
C355 C 0.60732 0.18973 0.88567 0.0
C356 C 0.6361 0.21884 0.86759 0.0
C357 C 0.66467 0.21837 0.85447 0.0
C358 C 0.57675 0.1287 0.89889 0.0
C359 C 0.63732 0.25083 0.87036 0.0
H360 H 0.51726 0.20103 0.84614 0.0
H361 H 0.55238 0.20569 0.13121 0.0
H362 H 0.57869 0.20939 0.72205 0.0
H363 H 0.56206 0.16711 0.73812 0.0
H364 H 0.53588 0.18324 0.71626 0.0
H365 H 0.59365 0.19535 0.16691 0.0
H366 H 0.60113 0.17167 0.08235 0.0
H367 H 0.62459 0.21453 0.07804 0.0
H368 H 0.63653 0.13815 0.87438 0.0
H369 H 0.68686 0.24094 0.84525 0.0
H370 H 0.55642 0.12791 0.85918 0.0
H371 H 0.57053 0.12603 0.97582 0.0
H372 H 0.57939 0.10798 0.87669 0.0
H373 H 0.618 0.25017 0.82561 0.0
H374 H 0.66076 0.27083 0.84532 0.0
H375 H 0.63337 0.25608 0.94462 0.0
C376 C 0.42831 0.6681 0.84065 0.0
C377 C 0.45623 0.67421 0.88964 0.0
C378 C 0.39935 0.6392 0.85371 0.0
C379 C 0.39834 0.61567 0.91657 0.0
C380 C 0.42684 0.62089 0.96198 0.0
C381 C 0.45544 0.65016 0.94823 0.0
C382 C 0.36945 0.6346 0.80413 0.0
C383 C 0.42678 0.59626 0.02882 0.0
C384 C 0.31741 0.5625 0.03264 0.0
C385 C 0.30459 0.53496 0.97518 0.0
C386 C 0.34831 0.5885 0.01613 0.0
C387 C 0.36694 0.58692 0.94044 0.0
C388 C 0.35471 0.55869 0.88464 0.0
C389 C 0.32365 0.53303 0.90263 0.0
C390 C 0.3605 0.61816 0.07744 0.0
C391 C 0.37393 0.55608 0.80362 0.0
H392 H 0.42863 0.6865 0.7953 0.0
H393 H 0.47693 0.6546 0.98607 0.0
H394 H 0.35735 0.61125 0.7661 0.0
H395 H 0.3523 0.63414 0.85786 0.0
H396 H 0.37473 0.65405 0.7521 0.0
H397 H 0.45143 0.60239 0.05022 0.0
H398 H 0.41301 0.59462 0.09411 0.0
H399 H 0.41474 0.57218 0.995 0.0
H400 H 0.30293 0.5642 0.08901 0.0
H401 H 0.31397 0.51183 0.85793 0.0
H402 H 0.36376 0.63868 0.03304 0.0
H403 H 0.38426 0.62471 0.10811 0.0
H404 H 0.34381 0.61486 0.13675 0.0
H405 H 0.37689 0.57334 0.74654 0.0
H406 H 0.36221 0.53157 0.77245 0.0
H407 H 0.3983 0.56247 0.82849 0.0
C408 C 0.82582 0.47289 0.00125 0.0
C409 C 0.80681 0.47647 0.93186 0.0
C410 C 0.8275 0.44461 0.00668 0.0
C411 C 0.80932 0.41921 0.94223 0.0
C412 C 0.79194 0.42363 0.86803 0.0
C413 C 0.79114 0.45231 0.86324 0.0
C414 C 0.84697 0.44112 0.08532 0.0
C415 C 0.77201 0.39708 0.79822 0.0
C416 C 0.81588 0.34393 0.91997 0.0
C417 C 0.78958 0.32207 0.97499 0.0
C418 C 0.82378 0.37622 0.91232 0.0
C419 C 0.80465 0.38665 0.95972 0.0
C420 C 0.77895 0.36499 0.01851 0.0
C421 C 0.7719 0.33308 0.0259 0.0
C422 C 0.85173 0.39878 0.85052 0.0
C423 C 0.75782 0.37506 0.06998 0.0
H424 H 0.8383 0.4916 0.05394 0.0
H425 H 0.77652 0.45488 0.80904 0.0
H426 H 0.83059 0.42525 0.14191 0.0
H427 H 0.8606 0.42982 0.05795 0.0
H428 H 0.86407 0.46462 0.11802 0.0
H429 H 0.76259 0.40542 0.73915 0.0
H430 H 0.78635 0.38709 0.76724 0.0
H431 H 0.75135 0.37725 0.83619 0.0
H432 H 0.8298 0.33566 0.88095 0.0
H433 H 0.75163 0.31645 0.06895 0.0
H434 H 0.86701 0.42179 0.8883 0.0
H435 H 0.84266 0.40439 0.78478 0.0
H436 H 0.8668 0.3883 0.8295 0.0
H437 H 0.77264 0.39652 0.11466 0.0
H438 H 0.73976 0.35572 0.11638 0.0
H439 H 0.74495 0.38171 0.01719 0.0
C440 C 0.3479 0.8188 0.95048 0.0
C441 C 0.32491 0.79676 0.88678 0.0
C442 C 0.37654 0.81868 0.96853 0.0
C443 C 0.38222 0.79588 0.92216 0.0
C444 C 0.36004 0.7749 0.85351 0.0
C445 C 0.33172 0.7757 0.83631 0.0
C446 C 0.39976 0.84164 0.04151 0.0
C447 C 0.3652 0.75019 0.80258 0.0
C448 C 0.46408 0.8019 0.92909 0.0
C449 C 0.45948 0.77955 1.00055 0.0
C450 C 0.43945 0.80818 0.90432 0.0
C451 C 0.40957 0.79168 0.95204 0.0
C452 C 0.40516 0.76985 0.0262 0.0
C453 C 0.43017 0.76411 0.04962 0.0
C454 C 0.44506 0.83168 0.82512 0.0
C455 C 0.37364 0.75175 0.07891 0.0
H456 H 0.34293 0.83529 0.98939 0.0
H457 H 0.31416 0.75859 0.7869 0.0
H458 H 0.39909 0.82812 0.10643 0.0
H459 H 0.42467 0.85354 0.01361 0.0
H460 H 0.3939 0.86039 0.06229 0.0
H461 H 0.34737 0.73785 0.74481 0.0
H462 H 0.38965 0.76158 0.77141 0.0
H463 H 0.36321 0.73185 0.85443 0.0
H464 H 0.48666 0.81395 0.89079 0.0
H465 H 0.42639 0.74683 0.105 0.0
H466 H 0.43881 0.84981 0.84935 0.0
H467 H 0.42924 0.81879 0.76378 0.0
H468 H 0.47036 0.84432 0.80006 0.0
H469 H 0.36691 0.76881 0.10961 0.0
H470 H 0.37456 0.73666 0.13743 0.0
H471 H 0.35433 0.73599 0.02851 0.0
C472 C 0.67015 0.46947 0.94243 0.0
C473 C 0.6902 0.46205 0.99615 0.0
C474 C 0.63863 0.44555 0.91924 0.0
C475 C 0.62713 0.41358 0.95012 0.0
C476 C 0.64757 0.40596 0.00262 0.0
C477 C 0.67872 0.43026 0.02513 0.0
C478 C 0.61751 0.45452 0.86315 0.0
C479 C 0.63646 0.37212 0.03608 0.0
C480 C 0.54035 0.35078 0.99245 0.0
C481 C 0.53487 0.32933 0.91741 0.0
C482 C 0.56946 0.37992 0.99961 0.0
C483 C 0.59362 0.38775 0.93014 0.0
C484 C 0.58704 0.36764 0.84966 0.0
C485 C 0.5577 0.33868 0.84414 0.0
C486 C 0.57536 0.4009 0.08599 0.0
C487 C 0.61205 0.37519 0.77362 0.0
H488 H 0.67891 0.49401 0.9197 0.0
H489 H 0.69413 0.42422 0.06582 0.0
H490 H 0.60762 0.43888 0.79951 0.0
H491 H 0.59683 0.45068 0.90767 0.0
H492 H 0.63065 0.47998 0.83948 0.0
H493 H 0.65562 0.37011 0.0742 0.0
H494 H 0.61563 0.36401 0.08475 0.0
H495 H 0.62842 0.35548 0.97431 0.0
H496 H 0.52271 0.344 0.04883 0.0
H497 H 0.55356 0.32247 0.78521 0.0
H498 H 0.58691 0.42654 0.0651 0.0
H499 H 0.59196 0.39834 0.13541 0.0
H500 H 0.5528 0.39428 0.12506 0.0
H501 H 0.62415 0.40095 0.75369 0.0
H502 H 0.60151 0.36046 0.70845 0.0
H503 H 0.63069 0.37024 0.80176 0.0
C504 C 0.16795 0.36594 0.63324 0.0
C505 C 0.18416 0.39631 0.67653 0.0
C506 C 0.1653 0.36292 0.53349 0.0
C507 C 0.17995 0.3909 0.47629 0.0
C508 C 0.19594 0.42157 0.51984 0.0
C509 C 0.19753 0.42388 0.61932 0.0
C510 C 0.14731 0.3299 0.48945 0.0
C511 C 0.21217 0.45206 0.46136 0.0
C512 C 0.21075 0.3958 0.22637 0.0
C513 C 0.19075 0.40398 0.17601 0.0
C514 C 0.20589 0.38862 0.32394 0.0
C515 C 0.17991 0.38879 0.37075 0.0
C516 C 0.15742 0.39311 0.31718 0.0
C517 C 0.16344 0.40125 0.22044 0.0
C518 C 0.23056 0.38436 0.37848 0.0
C519 C 0.1286 0.392 0.36358 0.0
H520 H 0.15735 0.34455 0.67729 0.0
H521 H 0.21021 0.44741 0.65222 0.0
H522 H 0.13034 0.32898 0.43422 0.0
H523 H 0.16448 0.32432 0.45365 0.0
H524 H 0.1337 0.31098 0.54349 0.0
H525 H 0.22401 0.47395 0.50651 0.0
H526 H 0.23055 0.45182 0.41415 0.0
H527 H 0.19432 0.45363 0.41502 0.0
H528 H 0.23176 0.39771 0.19163 0.0
H529 H 0.14756 0.40691 0.18071 0.0
H530 H 0.21885 0.36414 0.42957 0.0
H531 H 0.2459 0.40643 0.42035 0.0
H532 H 0.24626 0.37994 0.33023 0.0
H533 H 0.11769 0.37242 0.41712 0.0
H534 H 0.11004 0.38845 0.31011 0.0
H535 H 0.13622 0.41499 0.40124 0.0
C536 C 0.79131 0.21566 0.60935 0.0
C537 C 0.79941 0.1963 0.66373 0.0
C538 C 0.79015 0.21383 0.50953 0.0
C539 C 0.79643 0.19148 0.46263 0.0
C540 C 0.80398 0.17135 0.51711 0.0
C541 C 0.80582 0.17431 0.61713 0.0
C542 C 0.78254 0.23616 0.4542 0.0
C543 C 0.80993 0.14664 0.46977 0.0
C544 C 0.76326 0.17688 0.21145 0.0
C545 C 0.79044 0.19859 0.15955 0.0
C546 C 0.76544 0.1719 0.30923 0.0
C547 C 0.79531 0.18984 0.35647 0.0
C548 C 0.82323 0.20997 0.30272 0.0
C549 C 0.82047 0.21382 0.20453 0.0
C550 C 0.73532 0.14927 0.36313 0.0
C551 C 0.8555 0.22985 0.35006 0.0
H552 H 0.78654 0.23285 0.64484 0.0
H553 H 0.81184 0.1591 0.65896 0.0
H554 H 0.80219 0.25056 0.40308 0.0
H555 H 0.76025 0.22204 0.41211 0.0
H556 H 0.77928 0.25286 0.50138 0.0
H557 H 0.81442 0.13208 0.52241 0.0
H558 H 0.78893 0.1303 0.42533 0.0
H559 H 0.83092 0.15863 0.4214 0.0
H560 H 0.74004 0.16482 0.17653 0.0
H561 H 0.8415 0.23081 0.16469 0.0
H562 H 0.7269 0.16334 0.40426 0.0
H563 H 0.74011 0.13468 0.41475 0.0
H564 H 0.71572 0.13285 0.31436 0.0
H565 H 0.85564 0.24983 0.38999 0.0
H566 H 0.8754 0.24025 0.2973 0.0
H567 H 0.86016 0.2153 0.40208 0.0
C568 C 0.57448 0.78772 0.68422 0.0
C569 C 0.6025 0.79751 0.73771 0.0
C570 C 0.57508 0.78753 0.58415 0.0
C571 C 0.60427 0.79654 0.53592 0.0
C572 C 0.63252 0.80563 0.58947 0.0
C573 C 0.6314 0.80646 0.68976 0.0
C574 C 0.54447 0.77813 0.53 0.0
C575 C 0.66384 0.8144 0.54084 0.0
C576 C 0.5874 0.7651 0.2826 0.0
C577 C 0.59099 0.7919 0.2325 0.0
C578 C 0.59478 0.76711 0.38017 0.0
C579 C 0.60471 0.79629 0.42946 0.0
C580 C 0.61059 0.82401 0.3775 0.0
C581 C 0.60415 0.82158 0.27905 0.0
C582 C 0.58961 0.73735 0.43172 0.0
C583 C 0.62072 0.8555 0.42709 0.0
H584 H 0.55211 0.78102 0.72061 0.0
H585 H 0.65311 0.81387 0.73073 0.0
H586 H 0.54819 0.79772 0.48055 0.0
H587 H 0.53775 0.75648 0.48618 0.0
H588 H 0.52409 0.77294 0.57811 0.0
H589 H 0.68326 0.81943 0.59272 0.0
H590 H 0.66062 0.79459 0.49318 0.0
H591 H 0.67158 0.83593 0.49549 0.0
H592 H 0.57753 0.74218 0.24632 0.0
H593 H 0.6068 0.84229 0.24036 0.0
H594 H 0.56699 0.72708 0.47329 0.0
H595 H 0.60945 0.74324 0.48269 0.0
H596 H 0.58789 0.71873 0.38136 0.0
H597 H 0.60017 0.85346 0.46876 0.0
H598 H 0.62854 0.87564 0.37568 0.0
H599 H 0.64055 0.86139 0.47796 0.0
C600 C 0.80111 0.57314 0.78663 0.0
C601 C 0.7815 0.58275 0.83264 0.0
C602 C 0.79826 0.56704 0.68823 0.0
C603 C 0.77489 0.57019 0.63541 0.0
C604 C 0.75325 0.57722 0.6833 0.0
C605 C 0.75712 0.58389 0.78134 0.0
C606 C 0.82206 0.55996 0.63985 0.0
C607 C 0.7274 0.57984 0.63001 0.0
C608 C 0.79527 0.60021 0.38085 0.0
C609 C 0.77898 0.57165 0.32853 0.0
C610 C 0.79427 0.59991 0.48075 0.0
C611 C 0.77586 0.5704 0.52947 0.0
C612 C 0.7588 0.54153 0.47703 0.0
C613 C 0.76089 0.54245 0.377 0.0
C614 C 0.81332 0.63117 0.53417 0.0
C615 C 0.7383 0.50979 0.52653 0.0
H616 H 0.82023 0.57263 0.82616 0.0
H617 H 0.74186 0.59121 0.81718 0.0
H618 H 0.80976 0.53968 0.58919 0.0
H619 H 0.83933 0.5813 0.59814 0.0
H620 H 0.83576 0.5541 0.692 0.0
H621 H 0.7095 0.58025 0.67914 0.0
H622 H 0.73847 0.6023 0.58744 0.0
H623 H 0.71474 0.5595 0.57962 0.0
H624 H 0.80947 0.6228 0.3437 0.0
H625 H 0.74808 0.52034 0.33665 0.0
H626 H 0.83035 0.62949 0.58398 0.0
H627 H 0.79696 0.63603 0.57759 0.0
H628 H 0.82713 0.65187 0.48559 0.0
H629 H 0.75332 0.50444 0.57468 0.0
H630 H 0.72587 0.48963 0.47525 0.0
H631 H 0.72 0.51106 0.5715 0.0
C632 C 0.23435 0.83139 0.28237 0.0
C633 C 0.20712 0.80899 0.23203 0.0
C634 C 0.23259 0.83687 0.38001 0.0
C635 C 0.20318 0.8185 0.42918 0.0
C636 C 0.1752 0.79721 0.37714 0.0
C637 C 0.17742 0.79315 0.2786 0.0
C638 C 0.2627 0.86083 0.43158 0.0
C639 C 0.14349 0.77666 0.4267 0.0
C640 C 0.20998 0.79793 0.68704 0.0
C641 C 0.20098 0.81729 0.73777 0.0
C642 C 0.21049 0.79799 0.58689 0.0
C643 C 0.20263 0.81854 0.53573 0.0
C644 C 0.19431 0.83877 0.5865 0.0
C645 C 0.19314 0.83758 0.6869 0.0
C646 C 0.21899 0.77561 0.53578 0.0
C647 C 0.18676 0.86172 0.53479 0.0
H648 H 0.2573 0.84383 0.24601 0.0
H649 H 0.15643 0.77563 0.23966 0.0
H650 H 0.25753 0.87562 0.48125 0.0
H651 H 0.27197 0.84788 0.47463 0.0
H652 H 0.28182 0.87703 0.38121 0.0
H653 H 0.1234 0.7641 0.37525 0.0
H654 H 0.14504 0.75836 0.47099 0.0
H655 H 0.13787 0.79136 0.47521 0.0
H656 H 0.21585 0.78202 0.72568 0.0
H657 H 0.18634 0.85275 0.72565 0.0
H658 H 0.24088 0.78968 0.49202 0.0
H659 H 0.19929 0.75979 0.48654 0.0
H660 H 0.22338 0.76033 0.58592 0.0
H661 H 0.20703 0.87762 0.48738 0.0
H662 H 0.18212 0.87686 0.5847 0.0
H663 H 0.16534 0.84816 0.48881 0.0
C664 C 0.432 0.23209 0.77317 0.0
C665 C 0.41608 0.20207 0.81762 0.0
C666 C 0.43844 0.23456 0.67494 0.0
C667 C 0.42954 0.20634 0.62134 0.0
C668 C 0.4159 0.17626 0.66817 0.0
C669 C 0.40862 0.1744 0.76563 0.0
C670 C 0.45242 0.26701 0.62762 0.0
C671 C 0.40745 0.14584 0.6145 0.0
C672 C 0.40465 0.20375 0.36325 0.0
C673 C 0.43284 0.21089 0.31442 0.0
C674 C 0.40347 0.20253 0.46318 0.0
C675 C 0.43089 0.20772 0.51542 0.0
C676 C 0.45919 0.21414 0.46642 0.0
C677 C 0.45997 0.21608 0.36639 0.0
C678 C 0.37299 0.19614 0.51291 0.0
C679 C 0.48852 0.21878 0.51956 0.0
H680 H 0.43748 0.25339 0.81394 0.0
H681 H 0.3965 0.15122 0.80087 0.0
H682 H 0.47235 0.27123 0.57912 0.0
H683 H 0.43362 0.26776 0.58366 0.0
H684 H 0.46149 0.28686 0.68048 0.0
H685 H 0.40211 0.12561 0.66348 0.0
H686 H 0.38601 0.13887 0.56939 0.0
H687 H 0.42739 0.14967 0.56648 0.0
H688 H 0.3837 0.19989 0.32338 0.0
H689 H 0.48174 0.22135 0.32874 0.0
H690 H 0.37823 0.21587 0.56368 0.0
H691 H 0.3631 0.17362 0.55485 0.0
H692 H 0.35429 0.19393 0.46199 0.0
H693 H 0.4975 0.23981 0.56776 0.0
H694 H 0.50824 0.2225 0.47061 0.0
H695 H 0.48217 0.1975 0.56489 0.0
loop_
_geom_bond_atom_site_label_1
_geom_bond_atom_site_label_2
_geom_bond_distance
_geom_bond_site_symmetry_2
_ccdc_geom_bond_type
Zn0 O6 1.969 . S
Zn0 O7 1.965 1_554 S
Zn0 O11 2.024 1_554 S
Zn0 O16 1.969 . S
Zn1 O8 1.969 . S
Zn1 O14 1.969 . S
Zn1 O15 1.965 1_556 S
Zn1 O17 2.024 1_556 S
C2 O3 1.229 . S
C2 O11 1.058 1_554 S
O3 C2 1.229 . S
C4 O5 1.229 . S
C4 O17 1.058 1_556 S
O5 C4 1.229 . S
O6 Zn0 1.969 . S
O6 C9 1.267 1_554 S
O7 Zn0 1.965 1_556 S
O7 C18 1.260 . S
O8 Zn1 1.969 . S
O8 C18 1.258 . S
C9 O6 1.267 1_556 S
C9 O10 1.228 . S
O10 C9 1.228 . S
O11 Zn0 2.024 1_556 S
O11 C2 1.058 1_556 S
C12 O13 1.228 . S
C12 O14 1.267 1_554 S
O13 C12 1.228 . S
O14 Zn1 1.969 . S
O14 C12 1.267 1_556 S
O15 Zn1 1.965 1_554 S
O15 C19 1.260 . S
O16 Zn0 1.969 . S
O16 C19 1.258 . S
O17 Zn1 2.024 1_554 S
O17 C4 1.058 1_554 S
C18 O7 1.260 . S
C18 O8 1.258 . S
C19 O15 1.260 . S
C19 O16 1.258 . S
Zn20 O26 1.969 . S
Zn20 O27 1.965 1_554 S
Zn20 O31 2.024 1_554 S
Zn20 O36 1.969 . S
Zn21 O28 1.969 . S
Zn21 O34 1.969 . S
Zn21 O35 1.965 1_556 S
Zn21 O37 2.024 1_556 S
C22 O23 1.229 . S
C22 O31 1.058 1_554 S
O23 C22 1.229 . S
C24 O25 1.229 . S
C24 O37 1.058 1_556 S
O25 C24 1.229 . S
O26 Zn20 1.969 . S
O26 C29 1.267 1_554 S
O27 Zn20 1.965 1_556 S
O27 C38 1.260 . S
O28 Zn21 1.969 . S
O28 C38 1.258 . S
C29 O26 1.267 1_556 S
C29 O30 1.228 . S
O30 C29 1.228 . S
O31 Zn20 2.024 1_556 S
O31 C22 1.058 1_556 S
C32 O33 1.228 . S
C32 O34 1.267 1_554 S
O33 C32 1.228 . S
O34 Zn21 1.969 . S
O34 C32 1.267 1_556 S
O35 Zn21 1.965 1_554 S
O35 C39 1.260 . S
O36 Zn20 1.969 . S
O36 C39 1.258 . S
O37 Zn21 2.024 1_554 S
O37 C24 1.058 1_554 S
C38 O27 1.260 . S
C38 O28 1.258 . S
C39 O35 1.260 . S
C39 O36 1.258 . S
Zn40 O46 1.969 . S
Zn40 O47 1.965 1_554 S
Zn40 O51 2.024 1_554 S
Zn40 O56 1.969 . S
Zn41 O48 1.969 . S
Zn41 O54 1.969 . S
Zn41 O55 1.965 1_556 S
Zn41 O57 2.024 1_556 S
C42 O43 1.229 . S
C42 O51 1.058 1_554 S
O43 C42 1.229 . S
C44 O45 1.229 . S
C44 O57 1.058 1_556 S
O45 C44 1.229 . S
O46 Zn40 1.969 . S
O46 C49 1.267 1_554 S
O47 Zn40 1.965 1_556 S
O47 C58 1.260 . S
O48 Zn41 1.969 . S
O48 C58 1.258 . S
C49 O46 1.267 1_556 S
C49 O50 1.228 . S
O50 C49 1.228 . S
O51 Zn40 2.024 1_556 S
O51 C42 1.058 1_556 S
C52 O53 1.228 . S
C52 O54 1.267 1_554 S
O53 C52 1.228 . S
O54 Zn41 1.969 . S
O54 C52 1.267 1_556 S
O55 Zn41 1.965 1_554 S
O55 C59 1.260 . S
O56 Zn40 1.969 . S
O56 C59 1.258 . S
O57 Zn41 2.024 1_554 S
O57 C44 1.058 1_554 S
C58 O47 1.260 . S
C58 O48 1.258 . S
C59 O55 1.260 . S
C59 O56 1.258 . S
Zn60 O66 1.969 . S
Zn60 O67 1.965 1_554 S
Zn60 O71 2.024 1_554 S
Zn60 O76 1.969 . S
Zn61 O68 1.969 . S
Zn61 O74 1.969 . S
Zn61 O75 1.965 1_556 S
Zn61 O77 2.024 1_556 S
C62 O63 1.229 . S
C62 O71 1.058 1_554 S
O63 C62 1.229 . S
C64 O65 1.229 . S
C64 O77 1.058 1_556 S
O65 C64 1.229 . S
O66 Zn60 1.969 . S
O66 C69 1.267 1_554 S
O67 Zn60 1.965 1_556 S
O67 C78 1.260 . S
O68 Zn61 1.969 . S
O68 C78 1.258 . S
C69 O66 1.267 1_556 S
C69 O70 1.228 . S
O70 C69 1.228 . S
O71 Zn60 2.024 1_556 S
O71 C62 1.058 1_556 S
C72 O73 1.228 . S
C72 O74 1.267 1_554 S
O73 C72 1.228 . S
O74 Zn61 1.969 . S
O74 C72 1.267 1_556 S
O75 Zn61 1.965 1_554 S
O75 C79 1.260 . S
O76 Zn60 1.969 . S
O76 C79 1.258 . S
O77 Zn61 2.024 1_554 S
O77 C64 1.058 1_554 S
C78 O67 1.260 . S
C78 O68 1.258 . S
C79 O75 1.260 . S
C79 O76 1.258 . S
Zn80 O86 1.969 . S
Zn80 O87 1.965 1_554 S
Zn80 O91 2.024 1_554 S
Zn80 O96 1.969 . S
Zn81 O88 1.969 . S
Zn81 O94 1.969 . S
Zn81 O95 1.965 1_556 S
Zn81 O97 2.024 1_556 S
C82 O83 1.229 . S
C82 O91 1.058 1_554 S
O83 C82 1.229 . S
C84 O85 1.229 . S
C84 O97 1.058 1_556 S
O85 C84 1.229 . S
O86 Zn80 1.969 . S
O86 C89 1.267 1_554 S
O87 Zn80 1.965 1_556 S
O87 C98 1.260 . S
O88 Zn81 1.969 . S
O88 C98 1.258 . S
C89 O86 1.267 1_556 S
C89 O90 1.228 . S
O90 C89 1.228 . S
O91 Zn80 2.024 1_556 S
O91 C82 1.058 1_556 S
C92 O93 1.228 . S
C92 O94 1.267 1_554 S
O93 C92 1.228 . S
O94 Zn81 1.969 . S
O94 C92 1.267 1_556 S
O95 Zn81 1.965 1_554 S
O95 C99 1.260 . S
O96 Zn80 1.969 . S
O96 C99 1.258 . S
O97 Zn81 2.024 1_554 S
O97 C84 1.058 1_554 S
C98 O87 1.260 . S
C98 O88 1.258 . S
C99 O95 1.260 . S
C99 O96 1.258 . S
Zn100 O106 1.969 . S
Zn100 O107 1.965 1_554 S
Zn100 O111 2.024 1_554 S
Zn100 O116 1.969 . S
Zn101 O108 1.969 . S
Zn101 O114 1.969 . S
Zn101 O115 1.965 1_556 S
Zn101 O117 2.024 1_556 S
C102 O103 1.229 . S
C102 O111 1.058 1_554 S
O103 C102 1.229 . S
C104 O105 1.229 . S
C104 O117 1.058 1_556 S
O105 C104 1.229 . S
O106 Zn100 1.969 . S
O106 C109 1.267 1_554 S
O107 Zn100 1.965 1_556 S
O107 C118 1.260 . S
O108 Zn101 1.969 . S
O108 C118 1.258 . S
C109 O106 1.267 1_556 S
C109 O110 1.228 . S
O110 C109 1.228 . S
O111 Zn100 2.024 1_556 S
O111 C102 1.058 1_556 S
C112 O113 1.228 . S
C112 O114 1.267 1_554 S
O113 C112 1.228 . S
O114 Zn101 1.969 . S
O114 C112 1.267 1_556 S
O115 Zn101 1.965 1_554 S
O115 C119 1.260 . S
O116 Zn100 1.969 . S
O116 C119 1.258 . S
O117 Zn101 2.024 1_554 S
O117 C104 1.058 1_554 S
C118 O107 1.260 . S
C118 O108 1.258 . S
C119 O115 1.260 . S
C119 O116 1.258 . S
C120 C121 1.391 1_554 S
C120 C122 1.394 . S
C120 H136 0.931 . S
C121 C120 1.391 1_556 S
C121 C125 1.376 . S
C122 C120 1.394 . S
C122 C123 1.369 . S
C122 C126 1.531 . S
C123 C122 1.369 . S
C123 C124 1.410 1_554 S
C123 C131 1.503 . S
C124 C123 1.410 1_556 S
C124 C125 1.392 . S
C124 C127 1.511 . S
C125 C121 1.376 . S
C125 C124 1.392 . S
C125 H137 0.929 . S
C126 C122 1.531 . S
C126 H138 0.960 . S
C126 H139 0.962 . S
C126 H140 0.960 . S
C127 C124 1.511 . S
C127 H141 0.961 . S
C127 H142 0.961 . S
C127 H143 0.961 . S
C128 C129 1.370 . S
C128 C130 1.363 . S
C128 H144 0.931 . S
C129 C128 1.370 . S
C129 C133 1.408 . S
C130 C128 1.363 . S
C130 C131 1.370 . S
C130 C134 1.524 . S
C131 C123 1.503 . S
C131 C130 1.370 . S
C131 C132 1.403 . S
C132 C131 1.403 . S
C132 C133 1.404 . S
C132 C135 1.539 . S
C133 C129 1.408 . S
C133 C132 1.404 . S
C133 H145 0.930 . S
C134 C130 1.524 . S
C134 H146 0.956 . S
C134 H147 0.961 1_554 S
C134 H148 0.961 . S
C135 C132 1.539 . S
C135 H149 0.958 . S
C135 H150 0.961 1_554 S
C135 H151 0.960 1_554 S
H136 C120 0.931 . S
H137 C125 0.929 . S
H138 C126 0.960 . S
H139 C126 0.962 . S
H140 C126 0.960 . S
H141 C127 0.961 . S
H142 C127 0.961 . S
H143 C127 0.961 . S
H144 C128 0.931 . S
H145 C133 0.930 . S
H146 C134 0.956 . S
H147 C134 0.961 1_556 S
H148 C134 0.961 . S
H149 C135 0.958 . S
H150 C135 0.961 1_556 S
H151 C135 0.960 1_556 S
C152 C153 1.391 . S
C152 C154 1.394 . S
C152 H168 0.931 . S
C153 C152 1.391 . S
C153 C157 1.376 1_554 S
C154 C152 1.394 . S
C154 C155 1.369 . S
C154 C158 1.531 . S
C155 C154 1.369 . S
C155 C156 1.410 1_554 S
C155 C163 1.503 1_455 S
C156 C155 1.410 1_556 S
C156 C157 1.392 . S
C156 C159 1.511 . S
C157 C153 1.376 1_556 S
C157 C156 1.392 . S
C157 H169 0.929 . S
C158 C154 1.531 . S
C158 H170 0.960 . S
C158 H171 0.962 . S
C158 H172 0.960 . S
C159 C156 1.511 . S
C159 H173 0.961 . S
C159 H174 0.961 1_455 S
C159 H175 0.961 1_556 S
C160 C161 1.370 1_556 S
C160 C162 1.363 . S
C160 H176 0.931 . S
C161 C160 1.370 1_554 S
C161 C165 1.408 . S
C162 C160 1.363 . S
C162 C163 1.370 1_556 S
C162 C166 1.524 . S
C163 C155 1.503 1_655 S
C163 C162 1.370 1_554 S
C163 C164 1.403 . S
C164 C163 1.403 . S
C164 C165 1.404 . S
C164 C167 1.539 . S
C165 C161 1.408 . S
C165 C164 1.404 . S
C165 H177 0.930 . S
C166 C162 1.524 . S
C166 H178 0.956 1_655 S
C166 H179 0.961 1_655 S
C166 H180 0.961 . S
C167 C164 1.539 . S
C167 H181 0.958 . S
C167 H182 0.961 . S
C167 H183 0.960 1_655 S
H168 C152 0.931 . S
H169 C157 0.929 . S
H170 C158 0.960 . S
H171 C158 0.962 . S
H172 C158 0.960 . S
H173 C159 0.961 . S
H174 C159 0.961 1_655 S
H175 C159 0.961 1_554 S
H176 C160 0.931 . S
H177 C165 0.930 . S
H178 C166 0.956 1_455 S
H179 C166 0.961 1_455 S
H180 C166 0.961 . S
H181 C167 0.958 . S
H182 C167 0.961 . S
H183 C167 0.960 1_455 S
C184 C185 1.391 . S
C184 C186 1.394 . S
C184 H200 0.931 . S
C185 C184 1.391 . S
C185 C189 1.376 1_556 S
C186 C184 1.394 . S
C186 C187 1.369 . S
C186 C190 1.531 . S
C187 C186 1.369 . S
C187 C188 1.410 1_556 S
C187 C195 1.503 1_546 S
C188 C187 1.410 1_554 S
C188 C189 1.392 . S
C188 C191 1.511 . S
C189 C185 1.376 1_554 S
C189 C188 1.392 . S
C189 H201 0.929 . S
C190 C186 1.531 . S
C190 H202 0.960 1_545 S
C190 H203 0.962 . S
C190 H204 0.960 . S
C191 C188 1.511 . S
C191 H205 0.961 . S
C191 H206 0.961 . S
C191 H207 0.961 . S
C192 C193 1.370 . S
C192 C194 1.363 . S
C192 H208 0.931 . S
C193 C192 1.370 . S
C193 C197 1.408 1_554 S
C194 C192 1.363 . S
C194 C195 1.370 . S
C194 C198 1.524 . S
C195 C187 1.503 1_564 S
C195 C194 1.370 . S
C195 C196 1.403 1_554 S
C196 C195 1.403 1_556 S
C196 C197 1.404 . S
C196 C199 1.539 . S
C197 C193 1.408 1_556 S
C197 C196 1.404 . S
C197 H209 0.930 . S
C198 C194 1.524 . S
C198 H210 0.956 1_565 S
C198 H211 0.961 1_565 S
C198 H212 0.961 . S
C199 C196 1.539 . S
C199 H213 0.958 . S
C199 H214 0.961 . S
C199 H215 0.960 1_565 S
H200 C184 0.931 . S
H201 C189 0.929 . S
H202 C190 0.960 1_565 S
H203 C190 0.962 . S
H204 C190 0.960 . S
H205 C191 0.961 . S
H206 C191 0.961 . S
H207 C191 0.961 . S
H208 C192 0.931 . S
H209 C197 0.930 . S
H210 C198 0.956 1_545 S
H211 C198 0.961 1_545 S
H212 C198 0.961 . S
H213 C199 0.958 . S
H214 C199 0.961 . S
H215 C199 0.960 1_545 S
C216 C217 1.390 1_556 S
C216 C218 1.394 . S
C216 H232 0.932 . S
C217 C216 1.390 1_554 S
C217 C221 1.376 . S
C218 C216 1.394 . S
C218 C219 1.367 1_556 S
C218 C222 1.533 . S
C219 C218 1.367 1_554 S
C219 C220 1.410 . S
C219 C227 1.503 . S
C220 C219 1.410 . S
C220 C221 1.392 . S
C220 C223 1.511 . S
C221 C217 1.376 . S
C221 C220 1.392 . S
C221 H233 0.929 . S
C222 C218 1.533 . S
C222 H234 0.960 . S
C222 H235 0.962 . S
C222 H236 0.960 . S
C223 C220 1.511 . S
C223 H237 0.961 . S
C223 H238 0.961 . S
C223 H239 0.961 . S
C224 C225 1.370 1_556 S
C224 C226 1.363 . S
C224 H240 0.931 . S
C225 C224 1.370 1_554 S
C225 C229 1.408 . S
C226 C224 1.363 . S
C226 C227 1.370 1_556 S
C226 C230 1.524 . S
C227 C219 1.503 . S
C227 C226 1.370 1_554 S
C227 C228 1.403 . S
C228 C227 1.403 . S
C228 C229 1.404 . S
C228 C231 1.539 . S
C229 C225 1.408 . S
C229 C228 1.404 . S
C229 H241 0.930 . S
C230 C226 1.524 . S
C230 H242 0.956 . S
C230 H243 0.961 . S
C230 H244 0.961 . S
C231 C228 1.539 . S
C231 H245 0.958 . S
C231 H246 0.961 . S
C231 H247 0.960 . S
H232 C216 0.932 . S
H233 C221 0.929 . S
H234 C222 0.960 . S
H235 C222 0.962 . S
H236 C222 0.960 . S
H237 C223 0.961 . S
H238 C223 0.961 . S
H239 C223 0.961 . S
H240 C224 0.931 . S
H241 C229 0.930 . S
H242 C230 0.956 . S
H243 C230 0.961 . S
H244 C230 0.961 . S
H245 C231 0.958 . S
H246 C231 0.961 . S
H247 C231 0.960 . S
C248 C249 1.391 . S
C248 C250 1.394 . S
C248 H264 0.931 . S
C249 C248 1.391 . S
C249 C253 1.376 1_554 S
C250 C248 1.394 . S
C250 C251 1.369 . S
C250 C254 1.531 . S
C251 C250 1.369 . S
C251 C252 1.410 1_554 S
C251 C259 1.503 1_455 S
C252 C251 1.410 1_556 S
C252 C253 1.392 . S
C252 C255 1.511 . S
C253 C249 1.376 1_556 S
C253 C252 1.392 . S
C253 H265 0.929 . S
C254 C250 1.531 . S
C254 H266 0.960 1_455 S
C254 H267 0.962 . S
C254 H268 0.960 . S
C255 C252 1.511 . S
C255 H269 0.961 . S
C255 H270 0.961 1_455 S
C255 H271 0.962 . S
C256 C257 1.370 1_556 S
C256 C258 1.363 . S
C256 H272 0.931 . S
C257 C256 1.370 1_554 S
C257 C261 1.408 . S
C258 C256 1.363 . S
C258 C259 1.370 1_556 S
C258 C262 1.524 . S
C259 C251 1.503 1_655 S
C259 C258 1.370 1_554 S
C259 C260 1.403 . S
C260 C259 1.403 . S
C260 C261 1.404 . S
C260 C263 1.539 . S
C261 C257 1.408 . S
C261 C260 1.404 . S
C261 H273 0.930 . S
C262 C258 1.524 . S
C262 H274 0.956 . S
C262 H275 0.960 1_655 S
C262 H276 0.961 . S
C263 C260 1.539 . S
C263 H277 0.958 . S
C263 H278 0.961 . S
C263 H279 0.960 . S
H264 C248 0.931 . S
H265 C253 0.929 . S
H266 C254 0.960 1_655 S
H267 C254 0.962 . S
H268 C254 0.960 . S
H269 C255 0.961 . S
H270 C255 0.961 1_655 S
H271 C255 0.962 . S
H272 C256 0.931 . S
H273 C261 0.930 . S
H274 C262 0.956 . S
H275 C262 0.960 1_455 S
H276 C262 0.961 . S
H277 C263 0.958 . S
H278 C263 0.961 . S
H279 C263 0.960 . S
C280 C281 1.391 . S
C280 C282 1.394 . S
C280 H296 0.931 . S
C281 C280 1.391 . S
C281 C285 1.376 1_554 S
C282 C280 1.394 . S
C282 C283 1.369 . S
C282 C286 1.531 . S
C283 C282 1.369 . S
C283 C284 1.410 1_554 S
C283 C291 1.503 1_565 S
C284 C283 1.410 1_556 S
C284 C285 1.392 . S
C284 C287 1.511 . S
C285 C281 1.376 1_556 S
C285 C284 1.392 . S
C285 H297 0.929 . S
C286 C282 1.531 . S
C286 H298 0.960 . S
C286 H299 0.962 . S
C286 H300 0.960 . S
C287 C284 1.511 . S
C287 H301 0.961 . S
C287 H302 0.961 1_565 S
C287 H303 0.961 . S
C288 C289 1.370 1_556 S
C288 C290 1.363 . S
C288 H304 0.931 . S
C289 C288 1.370 1_554 S
C289 C293 1.408 . S
C290 C288 1.363 . S
C290 C291 1.370 1_556 S
C290 C294 1.524 . S
C291 C283 1.503 1_545 S
C291 C290 1.370 1_554 S
C291 C292 1.403 . S
C292 C291 1.403 . S
C292 C293 1.404 . S
C292 C295 1.539 . S
C293 C289 1.408 . S
C293 C292 1.404 . S
C293 H305 0.930 . S
C294 C290 1.524 . S
C294 H306 0.956 1_545 S
C294 H307 0.961 1_545 S
C294 H308 0.961 . S
C295 C292 1.539 . S
C295 H309 0.958 . S
C295 H310 0.961 . S
C295 H311 0.960 1_545 S
H296 C280 0.931 . S
H297 C285 0.929 . S
H298 C286 0.960 . S
H299 C286 0.962 . S
H300 C286 0.960 . S
H301 C287 0.961 . S
H302 C287 0.961 1_545 S
H303 C287 0.961 . S
H304 C288 0.931 . S
H305 C293 0.930 . S
H306 C294 0.956 1_565 S
H307 C294 0.961 1_565 S
H308 C294 0.961 . S
H309 C295 0.958 . S
H310 C295 0.961 . S
H311 C295 0.960 1_565 S
C312 C313 1.391 . S
C312 C314 1.394 . S
C312 H328 0.931 . S
C313 C312 1.391 . S
C313 C317 1.376 1_556 S
C314 C312 1.394 . S
C314 C315 1.369 . S
C314 C318 1.531 . S
C315 C314 1.369 . S
C315 C316 1.410 1_556 S
C315 C323 1.503 . S
C316 C315 1.410 1_554 S
C316 C317 1.392 . S
C316 C319 1.511 . S
C317 C313 1.376 1_554 S
C317 C316 1.392 . S
C317 H329 0.929 . S
C318 C314 1.531 . S
C318 H330 0.960 . S
C318 H331 0.962 . S
C318 H332 0.960 . S
C319 C316 1.511 . S
C319 H333 0.961 . S
C319 H334 0.961 . S
C319 H335 0.961 . S
C320 C321 1.370 1_554 S
C320 C322 1.363 . S
C320 H336 0.931 . S
C321 C320 1.370 1_556 S
C321 C325 1.408 . S
C322 C320 1.363 . S
C322 C323 1.370 1_554 S
C322 C326 1.524 . S
C323 C315 1.503 . S
C323 C322 1.370 1_556 S
C323 C324 1.403 . S
C324 C323 1.403 . S
C324 C325 1.404 . S
C324 C327 1.539 . S
C325 C321 1.408 . S
C325 C324 1.404 . S
C325 H337 0.930 . S
C326 C322 1.524 . S
C326 H338 0.956 . S
C326 H339 0.961 . S
C326 H340 0.961 . S
C327 C324 1.539 . S
C327 H341 0.958 . S
C327 H342 0.961 . S
C327 H343 0.960 . S
H328 C312 0.931 . S
H329 C317 0.929 . S
H330 C318 0.960 . S
H331 C318 0.962 . S
H332 C318 0.960 . S
H333 C319 0.961 . S
H334 C319 0.961 . S
H335 C319 0.961 . S
H336 C320 0.931 . S
H337 C325 0.930 . S
H338 C326 0.956 . S
H339 C326 0.961 . S
H340 C326 0.961 . S
H341 C327 0.958 . S
H342 C327 0.961 . S
H343 C327 0.960 . S
C344 C345 1.391 1_556 S
C344 C346 1.394 . S
C344 H360 0.931 . S
C345 C344 1.391 1_554 S
C345 C349 1.376 . S
C346 C344 1.394 . S
C346 C347 1.369 . S
C346 C350 1.531 . S
C347 C346 1.369 . S
C347 C348 1.410 1_556 S
C347 C355 1.503 . S
C348 C347 1.410 1_554 S
C348 C349 1.392 . S
C348 C351 1.511 . S
C349 C345 1.376 . S
C349 C348 1.392 . S
C349 H361 0.929 . S
C350 C346 1.531 . S
C350 H362 0.960 . S
C350 H363 0.962 . S
C350 H364 0.960 . S
C351 C348 1.511 . S
C351 H365 0.961 . S
C351 H366 0.961 . S
C351 H367 0.961 . S
C352 C353 1.370 . S
C352 C354 1.363 . S
C352 H368 0.931 . S
C353 C352 1.370 . S
C353 C357 1.408 1_556 S
C354 C352 1.363 . S
C354 C355 1.370 . S
C354 C358 1.524 . S
C355 C347 1.503 . S
C355 C354 1.370 . S
C355 C356 1.403 1_556 S
C356 C355 1.403 1_554 S
C356 C357 1.404 . S
C356 C359 1.539 . S
C357 C353 1.408 1_554 S
C357 C356 1.404 . S
C357 H369 0.930 . S
C358 C354 1.524 . S
C358 H370 0.956 . S
C358 H371 0.961 . S
C358 H372 0.961 . S
C359 C356 1.539 . S
C359 H373 0.958 . S
C359 H374 0.961 . S
C359 H375 0.960 . S
H360 C344 0.931 . S
H361 C349 0.929 . S
H362 C350 0.960 . S
H363 C350 0.962 . S
H364 C350 0.960 . S
H365 C351 0.961 . S
H366 C351 0.961 . S
H367 C351 0.961 . S
H368 C352 0.931 . S
H369 C357 0.930 . S
H370 C358 0.956 . S
H371 C358 0.961 . S
H372 C358 0.961 . S
H373 C359 0.958 . S
H374 C359 0.961 . S
H375 C359 0.960 . S
C376 C377 1.391 . S
C376 C378 1.394 . S
C376 H392 0.931 . S
C377 C376 1.391 . S
C377 C381 1.376 . S
C378 C376 1.394 . S
C378 C379 1.369 . S
C378 C382 1.531 . S
C379 C378 1.369 . S
C379 C380 1.410 . S
C379 C387 1.503 . S
C380 C379 1.410 . S
C380 C381 1.392 . S
C380 C383 1.511 . S
C381 C377 1.376 . S
C381 C380 1.392 . S
C381 H393 0.929 . S
C382 C378 1.531 . S
C382 H394 0.960 . S
C382 H395 0.962 1_556 S
C382 H396 0.960 . S
C383 C380 1.511 . S
C383 H397 0.961 . S
C383 H398 0.961 . S
C383 H399 0.961 . S
C384 C385 1.370 1_554 S
C384 C386 1.363 . S
C384 H400 0.931 . S
C385 C384 1.370 1_556 S
C385 C389 1.408 . S
C386 C384 1.363 . S
C386 C387 1.370 1_554 S
C386 C390 1.524 . S
C387 C379 1.503 . S
C387 C386 1.370 1_556 S
C387 C388 1.403 . S
C388 C387 1.403 . S
C388 C389 1.404 . S
C388 C391 1.539 . S
C389 C385 1.408 . S
C389 C388 1.404 . S
C389 H401 0.930 . S
C390 C386 1.524 . S
C390 H402 0.956 . S
C390 H403 0.961 . S
C390 H404 0.961 . S
C391 C388 1.539 . S
C391 H405 0.958 . S
C391 H406 0.961 . S
C391 H407 0.960 . S
H392 C376 0.931 . S
H393 C381 0.929 . S
H394 C382 0.960 . S
H395 C382 0.962 1_554 S
H396 C382 0.960 . S
H397 C383 0.961 . S
H398 C383 0.961 . S
H399 C383 0.961 . S
H400 C384 0.931 . S
H401 C389 0.930 . S
H402 C390 0.956 . S
H403 C390 0.961 . S
H404 C390 0.961 . S
H405 C391 0.958 . S
H406 C391 0.961 . S
H407 C391 0.960 . S
C408 C409 1.391 1_554 S
C408 C410 1.394 . S
C408 H424 0.931 . S
C409 C408 1.391 1_556 S
C409 C413 1.376 . S
C410 C408 1.394 . S
C410 C411 1.369 . S
C410 C414 1.531 . S
C411 C410 1.369 . S
C411 C412 1.410 1_554 S
C411 C419 1.503 . S
C412 C411 1.410 1_556 S
C412 C413 1.392 . S
C412 C415 1.511 . S
C413 C409 1.376 . S
C413 C412 1.392 . S
C413 H425 0.929 . S
C414 C410 1.531 . S
C414 H426 0.960 . S
C414 H427 0.962 . S
C414 H428 0.960 . S
C415 C412 1.511 . S
C415 H429 0.961 . S
C415 H430 0.961 . S
C415 H431 0.961 1_556 S
C416 C417 1.370 1_556 S
C416 C418 1.363 . S
C416 H432 0.931 . S
C417 C416 1.370 1_554 S
C417 C421 1.408 . S
C418 C416 1.363 . S
C418 C419 1.370 1_556 S
C418 C422 1.524 . S
C419 C411 1.503 . S
C419 C418 1.370 1_554 S
C419 C420 1.403 . S
C420 C419 1.403 . S
C420 C421 1.404 . S
C420 C423 1.539 . S
C421 C417 1.408 . S
C421 C420 1.404 . S
C421 H433 0.930 . S
C422 C418 1.524 . S
C422 H434 0.956 . S
C422 H435 0.961 . S
C422 H436 0.961 . S
C423 C420 1.539 . S
C423 H437 0.958 . S
C423 H438 0.961 . S
C423 H439 0.960 . S
H424 C408 0.931 . S
H425 C413 0.929 . S
H426 C414 0.960 . S
H427 C414 0.962 . S
H428 C414 0.960 . S
H429 C415 0.961 . S
H430 C415 0.961 . S
H431 C415 0.961 1_554 S
H432 C416 0.931 . S
H433 C421 0.930 . S
H434 C422 0.956 . S
H435 C422 0.961 . S
H436 C422 0.961 . S
H437 C423 0.958 . S
H438 C423 0.961 . S
H439 C423 0.960 . S
C440 C441 1.391 1_554 S
C440 C442 1.394 . S
C440 H456 0.931 . S
C441 C440 1.391 1_556 S
C441 C445 1.376 . S
C442 C440 1.394 . S
C442 C443 1.369 . S
C442 C446 1.531 . S
C443 C442 1.369 . S
C443 C444 1.410 1_554 S
C443 C451 1.503 . S
C444 C443 1.410 1_556 S
C444 C445 1.392 . S
C444 C447 1.511 . S
C445 C441 1.376 . S
C445 C444 1.392 . S
C445 H457 0.929 . S
C446 C442 1.531 . S
C446 H458 0.960 . S
C446 H459 0.962 . S
C446 H460 0.960 . S
C447 C444 1.511 . S
C447 H461 0.961 . S
C447 H462 0.961 . S
C447 H463 0.961 . S
C448 C449 1.370 1_556 S
C448 C450 1.363 . S
C448 H464 0.931 . S
C449 C448 1.370 1_554 S
C449 C453 1.408 . S
C450 C448 1.363 . S
C450 C451 1.370 1_556 S
C450 C454 1.524 . S
C451 C443 1.503 . S
C451 C450 1.370 1_554 S
C451 C452 1.403 . S
C452 C451 1.403 . S
C452 C453 1.404 . S
C452 C455 1.539 . S
C453 C449 1.408 . S
C453 C452 1.404 . S
C453 H465 0.930 . S
C454 C450 1.524 . S
C454 H466 0.956 . S
C454 H467 0.961 . S
C454 H468 0.961 . S
C455 C452 1.539 . S
C455 H469 0.958 . S
C455 H470 0.961 . S
C455 H471 0.960 . S
H456 C440 0.931 . S
H457 C445 0.929 . S
H458 C446 0.960 . S
H459 C446 0.962 . S
H460 C446 0.960 . S
H461 C447 0.961 . S
H462 C447 0.961 . S
H463 C447 0.961 . S
H464 C448 0.931 . S
H465 C453 0.930 . S
H466 C454 0.956 . S
H467 C454 0.961 . S
H468 C454 0.961 . S
H469 C455 0.958 . S
H470 C455 0.961 . S
H471 C455 0.960 . S
C472 C473 1.391 . S
C472 C474 1.394 . S
C472 H488 0.931 . S
C473 C472 1.391 . S
C473 C477 1.376 1_556 S
C474 C472 1.394 . S
C474 C475 1.369 . S
C474 C478 1.531 . S
C475 C474 1.369 . S
C475 C476 1.410 . S
C475 C483 1.503 . S
C476 C475 1.410 . S
C476 C477 1.392 1_556 S
C476 C479 1.512 . S
C477 C473 1.376 1_554 S
C477 C476 1.392 1_554 S
C477 H489 0.929 . S
C478 C474 1.531 . S
C478 H490 0.960 . S
C478 H491 0.962 . S
C478 H492 0.960 . S
C479 C476 1.512 . S
C479 H493 0.954 1_556 S
C479 H494 0.957 1_556 S
C479 H495 0.970 . S
C480 C481 1.370 1_554 S
C480 C482 1.363 . S
C480 H496 0.931 . S
C481 C480 1.370 1_556 S
C481 C485 1.408 . S
C482 C480 1.363 . S
C482 C483 1.370 1_554 S
C482 C486 1.524 . S
C483 C475 1.503 . S
C483 C482 1.370 1_556 S
C483 C484 1.403 . S
C484 C483 1.403 . S
C484 C485 1.404 . S
C484 C487 1.539 . S
C485 C481 1.408 . S
C485 C484 1.404 . S
C485 H497 0.930 . S
C486 C482 1.524 . S
C486 H498 0.956 . S
C486 H499 0.961 . S
C486 H500 0.961 . S
C487 C484 1.539 . S
C487 H501 0.958 . S
C487 H502 0.961 . S
C487 H503 0.960 . S
H488 C472 0.931 . S
H489 C477 0.929 . S
H490 C478 0.960 . S
H491 C478 0.962 . S
H492 C478 0.960 . S
H493 C479 0.954 1_554 S
H494 C479 0.957 1_554 S
H495 C479 0.970 . S
H496 C480 0.931 . S
H497 C485 0.930 . S
H498 C486 0.956 . S
H499 C486 0.961 . S
H500 C486 0.961 . S
H501 C487 0.958 . S
H502 C487 0.961 . S
H503 C487 0.960 . S
C504 C505 1.391 . S
C504 C506 1.394 . S
C504 H520 0.931 . S
C505 C504 1.391 . S
C505 C509 1.376 . S
C506 C504 1.394 . S
C506 C507 1.369 . S
C506 C510 1.531 . S
C507 C506 1.369 . S
C507 C508 1.410 . S
C507 C515 1.503 . S
C508 C507 1.410 . S
C508 C509 1.392 . S
C508 C511 1.511 . S
C509 C505 1.376 . S
C509 C508 1.392 . S
C509 H521 0.929 . S
C510 C506 1.531 . S
C510 H522 0.960 . S
C510 H523 0.962 . S
C510 H524 0.960 . S
C511 C508 1.511 . S
C511 H525 0.961 . S
C511 H526 0.961 . S
C511 H527 0.961 . S
C512 C513 1.370 . S
C512 C514 1.363 . S
C512 H528 0.931 . S
C513 C512 1.370 . S
C513 C517 1.408 . S
C514 C512 1.363 . S
C514 C515 1.370 . S
C514 C518 1.524 . S
C515 C507 1.503 . S
C515 C514 1.370 . S
C515 C516 1.403 . S
C516 C515 1.403 . S
C516 C517 1.404 . S
C516 C519 1.539 . S
C517 C513 1.408 . S
C517 C516 1.404 . S
C517 H529 0.930 . S
C518 C514 1.524 . S
C518 H530 0.956 . S
C518 H531 0.961 . S
C518 H532 0.961 . S
C519 C516 1.539 . S
C519 H533 0.958 . S
C519 H534 0.961 . S
C519 H535 0.960 . S
H520 C504 0.931 . S
H521 C509 0.929 . S
H522 C510 0.960 . S
H523 C510 0.962 . S
H524 C510 0.960 . S
H525 C511 0.961 . S
H526 C511 0.961 . S
H527 C511 0.961 . S
H528 C512 0.931 . S
H529 C517 0.930 . S
H530 C518 0.956 . S
H531 C518 0.961 . S
H532 C518 0.961 . S
H533 C519 0.958 . S
H534 C519 0.961 . S
H535 C519 0.960 . S
C536 C537 1.391 . S
C536 C538 1.394 . S
C536 H552 0.931 . S
C537 C536 1.391 . S
C537 C541 1.376 . S
C538 C536 1.394 . S
C538 C539 1.369 . S
C538 C542 1.531 . S
C539 C538 1.369 . S
C539 C540 1.410 . S
C539 C547 1.503 . S
C540 C539 1.410 . S
C540 C541 1.392 . S
C540 C543 1.511 . S
C541 C537 1.376 . S
C541 C540 1.392 . S
C541 H553 0.929 . S
C542 C538 1.531 . S
C542 H554 0.960 . S
C542 H555 0.962 . S
C542 H556 0.960 . S
C543 C540 1.511 . S
C543 H557 0.961 . S
C543 H558 0.961 . S
C543 H559 0.961 . S
C544 C545 1.370 . S
C544 C546 1.363 . S
C544 H560 0.931 . S
C545 C544 1.370 . S
C545 C549 1.408 . S
C546 C544 1.363 . S
C546 C547 1.370 . S
C546 C550 1.524 . S
C547 C539 1.503 . S
C547 C546 1.370 . S
C547 C548 1.403 . S
C548 C547 1.403 . S
C548 C549 1.404 . S
C548 C551 1.539 . S
C549 C545 1.408 . S
C549 C548 1.404 . S
C549 H561 0.930 . S
C550 C546 1.524 . S
C550 H562 0.956 . S
C550 H563 0.961 . S
C550 H564 0.961 . S
C551 C548 1.539 . S
C551 H565 0.958 . S
C551 H566 0.961 . S
C551 H567 0.960 . S
H552 C536 0.931 . S
H553 C541 0.929 . S
H554 C542 0.960 . S
H555 C542 0.962 . S
H556 C542 0.960 . S
H557 C543 0.961 . S
H558 C543 0.961 . S
H559 C543 0.961 . S
H560 C544 0.931 . S
H561 C549 0.930 . S
H562 C550 0.956 . S
H563 C550 0.961 . S
H564 C550 0.961 . S
H565 C551 0.958 . S
H566 C551 0.961 . S
H567 C551 0.960 . S
C568 C569 1.391 . S
C568 C570 1.394 . S
C568 H584 0.931 . S
C569 C568 1.391 . S
C569 C573 1.376 . S
C570 C568 1.394 . S
C570 C571 1.369 . S
C570 C574 1.531 . S
C571 C570 1.369 . S
C571 C572 1.410 . S
C571 C579 1.503 . S
C572 C571 1.410 . S
C572 C573 1.392 . S
C572 C575 1.511 . S
C573 C569 1.376 . S
C573 C572 1.392 . S
C573 H585 0.929 . S
C574 C570 1.531 . S
C574 H586 0.960 . S
C574 H587 0.962 . S
C574 H588 0.960 . S
C575 C572 1.511 . S
C575 H589 0.961 . S
C575 H590 0.961 . S
C575 H591 0.961 . S
C576 C577 1.370 . S
C576 C578 1.363 . S
C576 H592 0.931 . S
C577 C576 1.370 . S
C577 C581 1.408 . S
C578 C576 1.363 . S
C578 C579 1.370 . S
C578 C582 1.524 . S
C579 C571 1.503 . S
C579 C578 1.370 . S
C579 C580 1.403 . S
C580 C579 1.403 . S
C580 C581 1.404 . S
C580 C583 1.539 . S
C581 C577 1.408 . S
C581 C580 1.404 . S
C581 H593 0.930 . S
C582 C578 1.524 . S
C582 H594 0.956 . S
C582 H595 0.961 . S
C582 H596 0.961 . S
C583 C580 1.539 . S
C583 H597 0.958 . S
C583 H598 0.961 . S
C583 H599 0.960 . S
H584 C568 0.931 . S
H585 C573 0.929 . S
H586 C574 0.960 . S
H587 C574 0.962 . S
H588 C574 0.960 . S
H589 C575 0.961 . S
H590 C575 0.961 . S
H591 C575 0.961 . S
H592 C576 0.931 . S
H593 C581 0.930 . S
H594 C582 0.956 . S
H595 C582 0.961 . S
H596 C582 0.961 . S
H597 C583 0.958 . S
H598 C583 0.961 . S
H599 C583 0.960 . S
C600 C601 1.391 . S
C600 C602 1.394 . S
C600 H616 0.931 . S
C601 C600 1.391 . S
C601 C605 1.376 . S
C602 C600 1.394 . S
C602 C603 1.369 . S
C602 C606 1.531 . S
C603 C602 1.369 . S
C603 C604 1.410 . S
C603 C611 1.503 . S
C604 C603 1.410 . S
C604 C605 1.392 . S
C604 C607 1.511 . S
C605 C601 1.376 . S
C605 C604 1.392 . S
C605 H617 0.929 . S
C606 C602 1.531 . S
C606 H618 0.960 . S
C606 H619 0.962 . S
C606 H620 0.960 . S
C607 C604 1.511 . S
C607 H621 0.961 . S
C607 H622 0.961 . S
C607 H623 0.961 . S
C608 C609 1.370 . S
C608 C610 1.363 . S
C608 H624 0.931 . S
C609 C608 1.370 . S
C609 C613 1.408 . S
C610 C608 1.363 . S
C610 C611 1.370 . S
C610 C614 1.524 . S
C611 C603 1.503 . S
C611 C610 1.370 . S
C611 C612 1.403 . S
C612 C611 1.403 . S
C612 C613 1.404 . S
C612 C615 1.539 . S
C613 C609 1.408 . S
C613 C612 1.404 . S
C613 H625 0.930 . S
C614 C610 1.524 . S
C614 H626 0.956 . S
C614 H627 0.961 . S
C614 H628 0.961 . S
C615 C612 1.539 . S
C615 H629 0.958 . S
C615 H630 0.961 . S
C615 H631 0.960 . S
H616 C600 0.931 . S
H617 C605 0.929 . S
H618 C606 0.960 . S
H619 C606 0.962 . S
H620 C606 0.960 . S
H621 C607 0.961 . S
H622 C607 0.961 . S
H623 C607 0.961 . S
H624 C608 0.931 . S
H625 C613 0.930 . S
H626 C614 0.956 . S
H627 C614 0.961 . S
H628 C614 0.961 . S
H629 C615 0.958 . S
H630 C615 0.961 . S
H631 C615 0.960 . S
C632 C633 1.391 . S
C632 C634 1.394 . S
C632 H648 0.931 . S
C633 C632 1.391 . S
C633 C637 1.376 . S
C634 C632 1.394 . S
C634 C635 1.369 . S
C634 C638 1.531 . S
C635 C634 1.369 . S
C635 C636 1.410 . S
C635 C643 1.503 . S
C636 C635 1.410 . S
C636 C637 1.392 . S
C636 C639 1.511 . S
C637 C633 1.376 . S
C637 C636 1.392 . S
C637 H649 0.929 . S
C638 C634 1.531 . S
C638 H650 0.960 . S
C638 H651 0.962 . S
C638 H652 0.960 . S
C639 C636 1.511 . S
C639 H653 0.961 . S
C639 H654 0.961 . S
C639 H655 0.961 . S
C640 C641 1.370 . S
C640 C642 1.363 . S
C640 H656 0.931 . S
C641 C640 1.370 . S
C641 C645 1.408 . S
C642 C640 1.363 . S
C642 C643 1.370 . S
C642 C646 1.524 . S
C643 C635 1.503 . S
C643 C642 1.370 . S
C643 C644 1.403 . S
C644 C643 1.403 . S
C644 C645 1.404 . S
C644 C647 1.539 . S
C645 C641 1.408 . S
C645 C644 1.404 . S
C645 H657 0.930 . S
C646 C642 1.524 . S
C646 H658 0.956 . S
C646 H659 0.961 . S
C646 H660 0.961 . S
C647 C644 1.539 . S
C647 H661 0.958 . S
C647 H662 0.961 . S
C647 H663 0.960 . S
H648 C632 0.931 . S
H649 C637 0.929 . S
H650 C638 0.960 . S
H651 C638 0.962 . S
H652 C638 0.960 . S
H653 C639 0.961 . S
H654 C639 0.961 . S
H655 C639 0.961 . S
H656 C640 0.931 . S
H657 C645 0.930 . S
H658 C646 0.956 . S
H659 C646 0.961 . S
H660 C646 0.961 . S
H661 C647 0.958 . S
H662 C647 0.961 . S
H663 C647 0.960 . S
C664 C665 1.391 . S
C664 C666 1.394 . S
C664 H680 0.931 . S
C665 C664 1.391 . S
C665 C669 1.376 . S
C666 C664 1.394 . S
C666 C667 1.369 . S
C666 C670 1.531 . S
C667 C666 1.369 . S
C667 C668 1.410 . S
C667 C675 1.503 . S
C668 C667 1.410 . S
C668 C669 1.392 . S
C668 C671 1.511 . S
C669 C665 1.376 . S
C669 C668 1.392 . S
C669 H681 0.929 . S
C670 C666 1.531 . S
C670 H682 0.960 . S
C670 H683 0.962 . S
C670 H684 0.960 . S
C671 C668 1.511 . S
C671 H685 0.961 . S
C671 H686 0.961 . S
C671 H687 0.961 . S
C672 C673 1.370 . S
C672 C674 1.363 . S
C672 H688 0.931 . S
C673 C672 1.370 . S
C673 C677 1.408 . S
C674 C672 1.363 . S
C674 C675 1.370 . S
C674 C678 1.524 . S
C675 C667 1.503 . S
C675 C674 1.370 . S
C675 C676 1.403 . S
C676 C675 1.403 . S
C676 C677 1.404 . S
C676 C679 1.539 . S
C677 C673 1.408 . S
C677 C676 1.404 . S
C677 H689 0.930 . S
C678 C674 1.524 . S
C678 H690 0.956 . S
C678 H691 0.961 . S
C678 H692 0.961 . S
C679 C676 1.539 . S
C679 H693 0.958 . S
C679 H694 0.961 . S
C679 H695 0.960 . S
H680 C664 0.931 . S
H681 C669 0.929 . S
H682 C670 0.960 . S
H683 C670 0.962 . S
H684 C670 0.960 . S
H685 C671 0.961 . S
H686 C671 0.961 . S
H687 C671 0.961 . S
H688 C672 0.931 . S
H689 C677 0.930 . S
H690 C678 0.956 . S
H691 C678 0.961 . S
H692 C678 0.961 . S
H693 C679 0.958 . S
H694 C679 0.961 . S
H695 C679 0.960 . S
C121 C104 1.453 . S
C129 C12 1.450 . S
C153 C4 1.448 1_554 S
C161 C32 1.450 . S
C185 C24 1.427 . S
C193 C52 1.453 . S
C217 C72 1.445 . S
C225 C44 1.446 1_554 S
C249 C92 1.449 . S
C257 C64 1.441 1_554 S
C281 C84 1.452 1_554 S
C289 C112 1.450 . S
C313 C82 1.595 1_556 S
C321 C9 1.664 . S
C345 C102 1.577 . S
C353 C29 1.663 . S
C377 C49 1.666 . S
C385 C2 1.620 1_556 S
C409 C69 1.662 . S
C417 C22 1.608 . S
C441 C89 1.655 . S
C449 C42 1.605 . S
C473 C62 1.608 1_556 S
C481 C109 1.667 . S
C505 C18 1.468 . S
C513 C19 1.500 . S
C537 C38 1.489 . S
C545 C39 1.493 . S
C569 C58 1.489 . S
C577 C59 1.493 . S
C601 C78 1.509 . S
C609 C79 1.484 . S
C633 C99 1.509 . S
C641 C98 1.483 . S
C665 C118 1.507 . S
C673 C119 1.484 . S
