# Generated by pormake.
# Topology rkf, (6)-cn, num edge types: 1
# Building blocks:
#     Node 0, Type 0, BuildingBlock: BETFAJ_clean_sbu_0, # of connection points: 6
#     Node 1, Type 0, BuildingBlock: BETFAJ_clean_sbu_0, # of connection points: 6
#     Node 2, Type 0, BuildingBlock: BETFAJ_clean_sbu_0, # of connection points: 6
#     Node 3, Type 0, BuildingBlock: BETFAJ_clean_sbu_0, # of connection points: 6
#     Node 4, Type 0, BuildingBlock: BETFAJ_clean_sbu_0, # of connection points: 6
#     Node 5, Type 0, BuildingBlock: BETFAJ_clean_sbu_0, # of connection points: 6
#     Edge 6, Type (0, 0), BuildingBlock: XUDNAN_clean_linker_2, # of connection points: 2
#     Edge 7, Type (0, 0), BuildingBlock: XUDNAN_clean_linker_2, # of connection points: 2
#     Edge 8, Type (0, 0), BuildingBlock: XUDNAN_clean_linker_2, # of connection points: 2
#     Edge 9, Type (0, 0), BuildingBlock: XUDNAN_clean_linker_2, # of connection points: 2
#     Edge 10, Type (0, 0), BuildingBlock: XUDNAN_clean_linker_2, # of connection points: 2
#     Edge 11, Type (0, 0), BuildingBlock: XUDNAN_clean_linker_2, # of connection points: 2
#     Edge 12, Type (0, 0), BuildingBlock: XUDNAN_clean_linker_2, # of connection points: 2
#     Edge 13, Type (0, 0), BuildingBlock: XUDNAN_clean_linker_2, # of connection points: 2
#     Edge 14, Type (0, 0), BuildingBlock: XUDNAN_clean_linker_2, # of connection points: 2
#     Edge 15, Type (0, 0), BuildingBlock: XUDNAN_clean_linker_2, # of connection points: 2
#     Edge 16, Type (0, 0), BuildingBlock: XUDNAN_clean_linker_2, # of connection points: 2
#     Edge 17, Type (0, 0), BuildingBlock: XUDNAN_clean_linker_2, # of connection points: 2
#     Edge 18, Type (0, 0), BuildingBlock: XUDNAN_clean_linker_2, # of connection points: 2
#     Edge 19, Type (0, 0), BuildingBlock: XUDNAN_clean_linker_2, # of connection points: 2
#     Edge 20, Type (0, 0), BuildingBlock: XUDNAN_clean_linker_2, # of connection points: 2
#     Edge 21, Type (0, 0), BuildingBlock: XUDNAN_clean_linker_2, # of connection points: 2
#     Edge 22, Type (0, 0), BuildingBlock: XUDNAN_clean_linker_2, # of connection points: 2
#     Edge 23, Type (0, 0), BuildingBlock: XUDNAN_clean_linker_2, # of connection points: 2
# Relax obj value: 0.715
# Max RMSD: 0.248
# Mean RMSD: 0.248
data_MOF--net-rkf--node1-BETFAJ_clean_sbu_0--edge1-XUDNAN_clean_linker_2
_symmetry_space_group_name_H-M    P1
_symmetry_Int_Tables_number       1
_symmetry_cell_setting            triclinic
loop_
_symmetry_equiv_pos_as_xyz
'x, y, z'
_cell_length_a     25.73641
_cell_length_b     25.262964
_cell_length_c     44.923785
_cell_angle_alpha  89.576095
_cell_angle_beta   90.734717
_cell_angle_gamma 120.60053
loop_
_atom_site_label
_atom_site_type_symbol
_atom_site_fract_x
_atom_site_fract_y
_atom_site_fract_z
_atom_type_partial_charge
Sm0 Sm 0.28712 0.01336 0.15366 0.0
Sm1 Sm 0.2789 0.12389 1.13488 0.0
C2 C 0.3203 0.93226 0.16619 0.0
C3 C 0.32877 0.90876 0.19479 0.0
C4 C 0.35476 0.94805 0.21937 0.0
C5 C 0.3458 0.92379 0.24817 0.0
C6 C 0.30925 0.85997 0.25294 0.0
C7 C 0.28855 0.8208 0.22797 0.0
C8 C 0.29858 0.84504 0.19921 0.0
C9 C 0.17124 -0.01276 0.14755 0.0
C10 C 0.26863 0.09077 0.20694 0.0
C11 C 0.263 0.21886 1.12815 0.0
C12 C 0.29357 0.27754 1.11191 0.0
C13 C 0.31088 0.2801 1.08223 0.0
C14 C 0.34219 0.33649 1.06757 0.0
C15 C 0.3577 0.39167 1.08238 0.0
C16 C 0.34065 0.3889 1.11221 0.0
C17 C 0.3088 0.33227 1.12682 0.0
C18 C 0.39427 0.14429 1.13612 0.0
C19 C 0.26538 0.03335 1.07962 0.0
O20 O 0.35904 -0.0105 0.15928 0.0
O21 O 0.26451 0.91729 0.1608 0.0
O22 O 0.21497 0.02263 1.13156 0.0
O23 O 0.18789 0.96386 0.16896 0.0
O24 O 0.29287 0.05628 0.20133 0.0
O25 O 0.24762 0.10863 0.18429 0.0
O26 O 0.23342 0.16835 1.11244 0.0
O27 O 0.29427 0.21409 0.15001 0.0
O28 O 0.35437 0.11471 0.15525 0.0
O29 O 0.37486 0.16702 1.11589 0.0
O30 O 0.26012 0.08074 1.08781 0.0
O31 O 0.28043 0.00394 1.09997 0.0
H32 H 0.37816 -0.00247 0.21658 0.0
H33 H 0.364 0.95537 0.26675 0.0
H34 H 0.25985 0.77153 0.23043 0.0
H35 H 0.27782 0.81397 0.18055 0.0
H36 H 0.30021 0.23858 1.07031 0.0
H37 H 0.35305 0.33652 1.04435 0.0
H38 H 0.35202 0.43045 1.12428 0.0
H39 H 0.2964 0.3312 0.14987 0.0
Sm40 Sm 0.33593 0.28319 0.48718 0.0
Sm41 Sm 0.21114 0.26386 0.4731 0.0
C42 C 0.45083 0.33383 0.50378 0.0
C43 C 0.48469 0.32911 0.52956 0.0
C44 C 0.49002 0.36014 0.55626 0.0
C45 C 0.51428 0.34846 0.58172 0.0
C46 C 0.5339 0.30567 0.581 0.0
C47 C 0.53311 0.27852 0.5537 0.0
C48 C 0.509 0.29036 0.52819 0.0
C49 C 0.25292 0.16161 0.48335 0.0
C50 C 0.24191 0.26479 0.54388 0.0
C51 C 0.1023 0.24339 0.45921 0.0
C52 C 0.08147 0.28558 0.45018 0.0
C53 C 0.11758 0.33634 0.43202 0.0
C54 C 0.09833 0.37688 0.42372 0.0
C55 C 0.04285 0.36817 0.43374 0.0
C56 C 0.00824 0.31888 0.45322 0.0
C57 C 0.02736 0.27781 0.46128 0.0
C58 C 0.30374 0.3845 0.4754 0.0
C59 C 0.28502 0.24715 0.41671 0.0
O60 O 0.41861 0.35979 0.50822 0.0
O61 O 0.42305 0.28526 0.48677 0.0
O62 O 0.24225 0.2022 0.49295 0.0
O63 O 0.31041 0.18318 0.48116 0.0
O64 O 0.29952 0.28872 0.53573 0.0
O65 O 0.19909 0.24129 0.5232 0.0
O66 O 0.13637 0.23592 0.44037 0.0
O67 O 0.1224 0.25031 0.48651 0.0
O68 O 0.30527 0.34067 0.46352 0.0
O69 O 0.25089 0.36634 0.48598 0.0
O70 O 0.23408 0.24069 0.42689 0.0
O71 O 0.33382 0.26943 0.43447 0.0
H72 H 0.47276 0.39115 0.55796 0.0
H73 H 0.51357 0.36972 0.60244 0.0
H74 H 0.54841 0.24581 0.55241 0.0
H75 H 0.50681 0.26688 0.50772 0.0
H76 H 0.16033 0.34417 0.42378 0.0
H77 H 0.12582 0.41326 0.40821 0.0
H78 H 0.96562 0.31108 0.46159 0.0
H79 H -0.00032 0.23972 0.47597 0.0
Sm80 Sm 0.15864 0.34857 0.82533 0.0
Sm81 Sm 0.02491 0.27886 0.80874 0.0
C82 C 0.27258 0.43721 0.83188 0.0
C83 C 0.30685 0.48151 0.8555 0.0
C84 C 0.37005 0.5122 0.85602 0.0
C85 C 0.40223 0.54735 0.88082 0.0
C86 C 0.37143 0.55192 0.90543 0.0
C87 C 0.30818 0.52422 0.90375 0.0
C88 C 0.27622 0.4892 0.87906 0.0
C89 C 0.10368 0.22501 0.83175 0.0
C90 C 0.06222 0.29254 0.88103 0.0
C91 C 0.90601 0.20841 0.8039 0.0
C92 C 0.85615 0.19838 0.78407 0.0
C93 C 0.79831 0.17537 0.79577 0.0
C94 C 0.74934 0.1613 0.7769 0.0
C95 C 0.75758 0.16989 0.74598 0.0
C96 C 0.8164 0.19554 0.7346 0.0
C97 C 0.86524 0.20991 0.75349 0.0
C98 C 0.08061 0.405 0.80463 0.0
C99 C 0.11821 0.30016 0.75359 0.0
O100 O 0.23175 0.44499 0.81817 0.0
O101 O 0.25326 0.37962 0.83855 0.0
O102 O 0.09569 0.25314 0.81067 0.0
O103 O 0.14762 0.26268 0.84927 0.0
O104 O 0.11697 0.33792 0.8731 0.0
O105 O 0.02229 0.25883 0.86012 0.0
O106 O 0.94372 0.19267 0.79378 0.0
O107 O 0.93271 0.26031 0.81849 0.0
O108 O 0.08806 0.37563 0.82539 0.0
O109 O 0.04112 0.36758 0.78538 0.0
O110 O 0.06097 0.27187 0.7624 0.0
O111 O 0.16263 0.3343 0.77295 0.0
H112 H 0.39428 0.50672 0.83789 0.0
H113 H 0.45087 0.56823 0.88142 0.0
H114 H 0.28269 0.52548 0.92245 0.0
H115 H 0.22733 0.46543 0.87907 0.0
H116 H 0.79076 0.1668 0.81944 0.0
H117 H 0.70482 0.14203 0.78638 0.0
H118 H 0.8245 0.20158 0.71089 0.0
H119 H 0.90973 0.22809 0.7441 0.0
Sm120 Sm 0.8892 0.1593 0.16054 0.0
Sm121 Sm 0.7929 0.03742 1.13655 0.0
C122 C 0.949 0.27095 0.18378 0.0
C123 C 0.9461 0.30447 0.20959 0.0
C124 C 0.96138 0.36599 0.20625 0.0
C125 C 0.9573 0.39838 0.23034 0.0
C126 C 0.93778 0.36956 0.25816 0.0
C127 C 0.92188 0.30747 0.26118 0.0
C128 C 0.92558 0.27514 0.23708 0.0
C129 C 0.92536 0.07971 1.14231 0.0
C130 C 0.82484 0.04305 0.20908 0.0
C131 C 0.72611 0.92903 1.11074 0.0
C132 C 0.73806 0.8831 1.09769 0.0
C133 C 0.70434 0.82164 1.10697 0.0
C134 C 0.71598 0.77758 1.09538 0.0
C135 C 0.76129 0.79413 1.07405 0.0
C136 C 0.79529 0.85608 1.06501 0.0
C137 C 0.78415 0.90015 1.07688 0.0
C138 C 0.7485 0.11023 0.1554 0.0
C139 C 0.89063 0.14597 1.08798 0.0
O140 O 0.90457 0.25338 0.16463 0.0
O141 O 0.96437 0.22939 0.18852 0.0
O142 O 0.88068 0.06805 0.15721 0.0
O143 O 0.9585 0.13862 1.13753 0.0
O144 O 0.85148 0.10404 0.20615 0.0
O145 O 0.80565 0.0084 0.18464 0.0
O146 O 0.73372 0.93598 1.1395 0.0
O147 O 0.74674 0.98122 1.09654 0.0
O148 O 0.79622 0.12859 1.14083 0.0
O149 O 0.72162 0.0514 0.15914 0.0
O150 O 0.85058 0.08632 1.09248 0.0
O151 O 0.90785 0.18448 1.11072 0.0
H152 H -0.02346 0.38901 0.18497 0.0
H153 H -0.0302 0.44596 0.22727 0.0
H154 H 0.90828 0.2841 0.28243 0.0
H155 H 0.91292 0.22745 0.24002 0.0
H156 H 0.66912 0.80777 1.12333 0.0
H157 H 0.68959 0.73064 1.10325 0.0
H158 H 0.82984 0.87065 1.04826 0.0
H159 H 0.81151 0.94748 1.06964 0.0
Sm160 Sm 0.79702 0.8863 0.48849 0.0
Sm161 Sm 0.82332 0.78631 0.47151 0.0
C162 C 0.74674 0.95031 0.50476 0.0
C163 C 0.7125 0.96001 0.52762 0.0
C164 C 0.69087 -0.00016 0.5214 0.0
C165 C 0.65996 0.01203 0.54304 0.0
C166 C 0.65016 -0.01557 0.57125 0.0
C167 C 0.66995 0.94253 0.57697 0.0
C168 C 0.70093 0.93037 0.55526 0.0
C169 C 0.91087 0.92539 0.46895 0.0
C170 C 0.84376 0.82615 0.54256 0.0
C171 C 0.8612 0.71353 0.45082 0.0
C172 C 0.91441 0.71776 0.43638 0.0
C173 C -0.02792 0.74998 0.44971 0.0
C174 C 0.02226 0.75583 0.43504 0.0
C175 C 0.01532 0.72791 0.4073 0.0
C176 C 0.9575 0.69339 0.39452 0.0
C177 C 0.90744 0.68867 0.40889 0.0
C178 C 0.70608 0.74191 0.48943 0.0
C179 C 0.81047 0.87272 0.41653 0.0
O180 O 0.71789 0.89852 0.49003 0.0
O181 O 0.80317 0.96756 0.51078 0.0
O182 O 0.88109 0.88167 0.48628 0.0
O183 O 0.88361 0.95596 0.46367 0.0
O184 O 0.81445 0.85616 0.53648 0.0
O185 O 0.85861 0.80182 0.5205 0.0
O186 O 0.86767 0.73158 0.47846 0.0
O187 O 0.82865 0.72986 0.43502 0.0
O188 O 0.73587 0.78802 0.47295 0.0
O189 O 0.73786 0.71682 0.49559 0.0
O190 O 0.82868 0.83372 0.42477 0.0
O191 O 0.79112 0.89623 0.43689 0.0
H192 H 0.69894 0.02248 0.49996 0.0
H193 H 0.6451 0.04428 0.53799 0.0
H194 H 0.66405 0.92137 0.59867 0.0
H195 H 0.71704 0.89911 0.56024 0.0
H196 H -0.02124 0.77149 0.47127 0.0
H197 H 0.06658 0.78245 0.44526 0.0
H198 H 0.95138 0.67175 0.37301 0.0
H199 H 0.86333 0.66284 0.39838 0.0
Sm200 Sm 0.00592 0.77233 0.82006 0.0
Sm201 Sm 0.08933 0.89774 0.80155 0.0
C202 C 0.95815 0.65901 0.841 0.0
C203 C 0.93254 0.63212 0.87038 0.0
C204 C -0.02986 0.64362 0.89543 0.0
C205 C 0.94594 0.63126 0.92403 0.0
C206 C 0.88384 0.60774 0.92814 0.0
C207 C 0.84571 0.59024 0.90291 0.0
C208 C 0.8698 0.6019 0.87435 0.0
C209 C 0.95423 0.84174 0.82697 0.0
C210 C 0.09758 0.87811 0.87222 0.0
C211 C 0.1614 0.00937 0.77986 0.0
C212 C 0.22408 0.04141 0.76975 0.0
C213 C 0.25562 0.10538 0.7664 0.0
C214 C 0.3145 0.13571 0.75555 0.0
C215 C 0.34261 0.10237 0.74787 0.0
C216 C 0.31144 0.0384 0.75231 0.0
C217 C 0.25268 0.00818 0.76325 0.0
C218 C 0.13038 0.81524 0.79592 0.0
C219 C -0.0146 0.81461 0.75311 0.0
O220 O 0.0165 0.69744 0.84 0.0
O221 O 0.92757 0.67807 0.82537 0.0
O222 O 0.009 0.85984 0.83254 0.0
O223 O 0.92358 0.78419 0.81973 0.0
O224 O 0.06467 0.81817 0.86531 0.0
O225 O 0.10525 0.9185 0.85145 0.0
O226 O 0.12292 0.96297 0.76354 0.0
O227 O 0.15397 -0.00249 0.80828 0.0
O228 O 0.08066 0.80786 0.78778 0.0
O229 O 0.16162 0.86828 0.80858 0.0
O230 O 0.01448 0.87014 0.76503 0.0
O231 O -0.01633 0.76823 0.76844 0.0
H232 H 0.01864 0.6657 0.89314 0.0
H233 H -0.02359 0.64371 0.94296 0.0
H234 H 0.79772 0.57222 0.90504 0.0
H235 H 0.83959 0.59151 0.85544 0.0
H236 H 0.23422 0.13166 0.7715 0.0
H237 H 0.33691 0.18488 0.75187 0.0
H238 H 0.33202 0.01161 0.74666 0.0
H239 H 0.22905 0.9587 0.766 0.0
H240 H -0.00967 0.08536 1.09361 0.0
H241 H 0.86453 0.96086 0.15858 0.0
H242 H 0.88545 0.88131 1.14404 0.0
H243 H -0.02656 0.92466 1.04712 0.0
H244 H 0.04961 0.97481 1.03484 0.0
H245 H -0.00483 -0.00033 1.03262 0.0
H246 H 0.06639 0.09688 1.06261 0.0
H247 H 0.1208 0.07316 1.06395 0.0
H248 H 0.0959 0.0898 1.0982 0.0
H249 H 0.96354 0.86032 0.15235 0.0
H250 H 0.06573 0.89306 0.17087 0.0
H251 H 0.14057 0.01332 1.0949 0.0
C252 C 0.96566 0.03996 1.10341 0.0
C253 C 0.92887 0.02985 1.12801 0.0
C254 C 0.895 0.97027 1.14027 0.0
C255 C 0.90557 0.92399 1.13163 0.0
C256 C 0.94992 0.93786 1.11059 0.0
C257 C -0.02469 -0.00744 1.09429 0.0
C258 C 0.02969 0.00128 1.07764 0.0
C259 C 0.01082 0.9734 1.04623 0.0
C260 C 0.08124 0.06929 1.07565 0.0
C261 C 0.04446 0.96121 1.09693 0.0
C262 C -0.00515 0.91957 1.11346 0.0
C263 C 0.00189 0.89106 1.1389 0.0
C264 C 0.06011 0.91073 0.14979 0.0
C265 C 0.11025 0.95713 1.13468 0.0
C266 C 0.10223 0.97817 1.10687 0.0
H267 H 0.96209 -0.0025 0.42138 0.0
H268 H 0.9661 0.85929 0.47623 0.0
H269 H 0.06375 0.88526 0.45604 0.0
H270 H 0.11536 0.0176 0.36961 0.0
H271 H 0.13924 0.09791 0.3674 0.0
H272 H 0.06171 0.04043 0.3595 0.0
H273 H 0.02631 0.08936 0.39766 0.0
H274 H 0.10324 0.14633 0.40472 0.0
H275 H 0.05541 0.10203 0.43536 0.0
H276 H 0.1692 0.95683 0.45769 0.0
H277 H 0.24502 0.05036 0.48429 0.0
H278 H 0.16366 0.14792 0.44644 0.0
C279 C -0.0168 0.9713 0.42761 0.0
C280 C 0.95923 0.92886 0.45088 0.0
C281 C -0.01478 0.89334 0.4587 0.0
C282 C 0.04037 0.9071 0.44672 0.0
C283 C 0.07003 0.95817 0.42804 0.0
C284 C 0.04023 -0.01225 0.41683 0.0
C285 C 0.08567 0.05205 0.407 0.0
C286 C 0.10142 0.05189 0.37397 0.0
C287 C 0.0664 0.10021 0.41168 0.0
C288 C 0.13765 0.06097 0.42646 0.0
C289 C 0.13317 0.0049 0.43262 0.0
C290 C 0.17278 0.00057 0.4528 0.0
C291 C 0.21393 0.05303 0.46872 0.0
C292 C 0.21061 0.10684 0.46658 0.0
C293 C 0.17109 0.1099 0.44594 0.0
H294 H 0.90544 0.89446 0.79495 0.0
H295 H 0.94722 0.86567 0.88457 0.0
H296 H 0.95089 0.9597 0.90089 0.0
H297 H 0.00368 0.0155 0.78423 0.0
H298 H -0.02572 0.05807 0.76523 0.0
H299 H 0.93266 0.97629 0.76411 0.0
H300 H 0.83912 0.97373 0.786 0.0
H301 H 0.88042 0.0567 0.78633 0.0
H302 H 0.8459 0.01456 0.81991 0.0
H303 H 0.00586 0.06844 0.90107 0.0
H304 H 0.08512 0.1731 0.88714 0.0
H305 H 0.0154 0.14115 0.79687 0.0
C306 C 0.9103 0.90631 0.81833 0.0
C307 C 0.92612 0.87443 0.8386 0.0
C308 C 0.93452 0.89015 0.86896 0.0
C309 C 0.93655 0.94361 0.87834 0.0
C310 C 0.93106 0.98074 0.85688 0.0
C311 C 0.9148 0.9613 0.82749 0.0
C312 C 0.92829 0.01494 0.80722 0.0
C313 C 0.96184 0.01623 0.77862 0.0
C314 C 0.86997 0.01499 0.79944 0.0
C315 C -0.03255 0.06735 0.82801 0.0
C316 C 0.96487 0.04722 0.85702 0.0
C317 C 0.00632 0.08511 0.87876 0.0
C318 C 0.05214 0.14393 0.87056 0.0
C319 C 0.05601 0.16398 0.84088 0.0
C320 C 0.01223 0.12624 0.81977 0.0
H321 H 0.44604 0.42951 1.04076 0.0
H322 H 0.33373 0.48557 1.08546 0.0
H323 H 0.36235 0.56825 1.0489 0.0
H324 H 0.55809 0.59139 1.00407 0.0
H325 H 0.5588 0.55205 0.97091 0.0
H326 H 0.55467 0.51851 1.00703 0.0
H327 H 0.45787 0.41865 0.99035 0.0
H328 H 0.46207 0.45153 0.95455 0.0
H329 H 0.39435 0.42323 0.97617 0.0
H330 H 0.37203 0.61759 1.00106 0.0
H331 H 0.35415 0.6202 0.94732 0.0
H332 H 0.45416 0.52842 0.93034 0.0
C333 C 0.42941 0.46083 1.04339 0.0
C334 C 0.38736 0.45077 1.06576 0.0
C335 C 0.36665 0.49268 1.06876 0.0
C336 C 0.38292 0.54013 1.04803 0.0
C337 C 0.42021 0.54542 1.0245 0.0
C338 C 0.44406 0.50727 1.02234 0.0
C339 C 0.47027 0.51155 0.99181 0.0
C340 C 0.53956 0.54541 0.99357 0.0
C341 C 0.44447 0.4475 0.9774 0.0
C342 C 0.44923 0.55049 0.97588 0.0
C343 C 0.42424 0.57312 0.99557 0.0
C344 C 0.39286 0.60156 0.98556 0.0
C345 C 0.38252 0.60251 0.95493 0.0
C346 C 0.40221 0.57379 0.93475 0.0
C347 C 0.43974 0.55183 0.94522 0.0
H348 H 0.92669 0.32536 0.41659 0.0
H349 H 0.10266 0.4907 0.41774 0.0
H350 H 0.07178 0.53203 0.37602 0.0
H351 H 0.9108 0.29077 0.35396 0.0
H352 H 0.8339 0.26841 0.3446 0.0
H353 H 0.85424 0.26713 0.38246 0.0
H354 H 0.81578 0.33974 0.39706 0.0
H355 H 0.794 0.34056 0.35879 0.0
H356 H 0.84284 0.41184 0.37786 0.0
H357 H 0.04612 0.52909 0.32415 0.0
H358 H 0.02453 0.48717 0.2736 0.0
H359 H 0.85764 0.33035 0.30356 0.0
C360 C 0.95708 0.37206 0.40946 0.0
C361 C 0.01752 0.40383 0.41966 0.0
C362 C 0.05651 0.46463 0.40964 0.0
C363 C 0.03898 0.48884 0.38607 0.0
C364 C -0.01832 0.4525 0.37341 0.0
C365 C 0.93979 0.3965 0.38585 0.0
C366 C 0.88671 0.36042 0.36485 0.0
C367 C 0.87075 0.29288 0.36124 0.0
C368 C 0.83159 0.36336 0.37526 0.0
C369 C 0.91191 0.39771 0.33668 0.0
C370 C 0.9648 0.45281 0.34244 0.0
C371 C 0.00355 0.48761 0.31946 0.0
C372 C -0.00904 0.46331 0.29059 0.0
C373 C 0.93979 0.40481 0.2849 0.0
C374 C 0.89736 0.37484 0.30764 0.0
H375 H 0.74766 0.21937 0.69344 0.0
H376 H 0.65078 0.0608 0.75077 0.0
H377 H 0.58226 0.00349 0.70959 0.0
H378 H 0.61234 0.17621 0.63541 0.0
H379 H 0.66673 0.20359 0.60597 0.0
H380 H 0.68651 0.24168 0.64164 0.0
H381 H 0.77914 0.22729 0.64463 0.0
H382 H 0.75913 0.18874 0.6096 0.0
H383 H 0.76785 0.15089 0.64186 0.0
H384 H 0.55421 0.95201 0.662 0.0
H385 H 0.56812 0.91439 0.61407 0.0
H386 H 0.68454 0.10212 0.58493 0.0
C387 C 0.71013 0.1735 0.6975 0.0
C388 C 0.70508 0.14443 0.72513 0.0
C389 C 0.65545 0.08454 0.72992 0.0
C390 C 0.61606 0.05143 0.70649 0.0
C391 C 0.62657 0.07883 0.67843 0.0
C392 C 0.67161 0.13945 0.67397 0.0
C393 C 0.68379 0.15367 0.64109 0.0
C394 C 0.66095 0.19627 0.63041 0.0
C395 C 0.75139 0.18162 0.63393 0.0
C396 C 0.64536 0.08974 0.62822 0.0
C397 C 0.6101 0.04784 0.64986 0.0
C398 C 0.57982 -0.01545 0.64464 0.0
C399 C 0.58842 0.96345 0.61745 0.0
C400 C 0.62735 0.0055 0.59589 0.0
C401 C 0.65318 0.06919 0.60075 0.0
H402 H 0.86894 0.80747 1.05616 0.0
H403 H 0.67673 0.67462 1.05941 0.0
H404 H 0.69266 0.60151 1.03075 0.0
H405 H 0.87926 0.78689 0.98325 0.0
H406 H 0.95358 0.79694 0.98359 0.0
H407 H 0.93325 0.83301 1.0117 0.0
H408 H 0.96042 0.78141 1.05318 0.0
H409 H -0.01899 0.74179 1.02683 0.0
H410 H 0.92505 0.69881 1.05449 0.0
H411 H 0.72651 0.54949 0.99514 0.0
H412 H 0.77295 0.52761 0.95283 0.0
H413 H 0.94046 0.69892 0.96945 0.0
C414 C 0.83018 0.76265 1.05135 0.0
C415 C 0.77162 0.74694 1.06027 0.0
C416 C 0.72233 0.68752 1.0535 0.0
C417 C 0.73091 0.64554 1.03714 0.0
C418 C 0.789 0.66354 1.02772 0.0
C419 C 0.83775 0.72085 1.03456 0.0
C420 C 0.89342 0.73338 1.0178 0.0
C421 C 0.91621 0.79091 0.99794 0.0
C422 C 0.94292 0.73926 1.03937 0.0
C423 C 0.86789 0.67526 0.9995 0.0
C424 C 0.80807 0.63471 1.00611 0.0
C425 C 0.77358 0.58049 0.99008 0.0
C426 C 0.80026 0.56865 0.96594 0.0
C427 C 0.86045 0.61151 0.95769 0.0
C428 C 0.89501 0.66423 0.97552 0.0
H429 H 0.10558 0.83698 0.38705 0.0
H430 H 0.04236 0.64203 0.38872 0.0
H431 H 0.12713 0.65964 0.35643 0.0
H432 H 0.13458 0.85574 0.31275 0.0
H433 H 0.20025 0.9318 0.31503 0.0
H434 H 0.14384 0.90578 0.34333 0.0
H435 H 0.22567 0.9297 0.38336 0.0
H436 H 0.2829 0.9541 0.35528 0.0
H437 H 0.27128 0.89442 0.38119 0.0
H438 H 0.21174 0.69706 0.31998 0.0
H439 H 0.27856 0.74687 0.27726 0.0
H440 H 0.27914 0.91557 0.29622 0.0
C441 C 0.11104 0.7985 0.38134 0.0
C442 C 0.06872 0.73843 0.39066 0.0
C443 C 0.07522 0.68846 0.38199 0.0
C444 C 0.12336 0.69817 0.36389 0.0
C445 C 0.16408 0.75805 0.35458 0.0
C446 C 0.15802 0.80732 0.36283 0.0
C447 C 0.20169 0.86527 0.34627 0.0
C448 C 0.16806 0.89108 0.32827 0.0
C449 C 0.24812 0.91373 0.36782 0.0
C450 C 0.23101 0.84022 0.32623 0.0
C451 C 0.21045 0.77897 0.33215 0.0
C452 C 0.22836 0.7451 0.31525 0.0
C453 C 0.26601 0.77375 0.29083 0.0
C454 C 0.28384 0.83514 0.28292 0.0
C455 C 0.2678 0.86916 0.30173 0.0
H456 H 0.36974 0.06265 0.6978 0.0
H457 H 0.44392 0.21356 0.76052 0.0
H458 H 0.52805 0.27529 0.72643 0.0
H459 H 0.52386 0.10228 0.66301 0.0
H460 H 0.4901 0.08174 0.62636 0.0
H461 H 0.44752 0.03966 0.65857 0.0
H462 H 0.36217 0.06093 0.64592 0.0
H463 H 0.40105 0.10018 0.61293 0.0
H464 H 0.37998 0.13897 0.6395 0.0
H465 H 0.5822 0.32945 0.68156 0.0
H466 H 0.59693 0.371 0.63061 0.0
H467 H 0.48923 0.18617 0.59592 0.0
C468 C 0.40567 0.10738 0.70503 0.0
C469 C 0.40065 0.1333 0.73176 0.0
C470 C 0.44706 0.19289 0.74009 0.0
C471 C 0.49536 0.22801 0.72096 0.0
C472 C 0.49697 0.20268 0.69372 0.0
C473 C 0.45368 0.14309 0.68596 0.0
C474 C 0.45781 0.13075 0.6534 0.0
C475 C 0.48125 0.08599 0.65012 0.0
C476 C 0.3967 0.10643 0.63702 0.0
C477 C 0.50449 0.19479 0.64321 0.0
C478 C 0.52894 0.23489 0.66704 0.0
C479 C 0.5649 0.29828 0.66281 0.0
C480 C 0.57274 0.32162 0.63378 0.0
C481 C 0.54406 0.2817 0.60939 0.0
C482 C 0.51298 0.21752 0.6141 0.0
H483 H 0.4411 0.09909 0.17701 0.0
H484 H 0.48928 0.22163 1.10109 0.0
H485 H 0.59373 0.24137 1.10396 0.0
H486 H 0.58827 0.17839 0.21677 0.0
H487 H 0.58291 0.10689 0.22751 0.0
H488 H 0.51534 0.11098 0.22293 0.0
H489 H 0.47303 0.02123 0.18522 0.0
H490 H 0.53986 0.01637 0.18972 0.0
H491 H 0.51692 0.02697 0.15313 0.0
H492 H 0.6897 0.23943 1.1119 0.0
H493 H 0.76439 0.20659 1.12029 0.0
H494 H 0.65107 0.08084 0.18902 0.0
C495 C 0.4738 0.13053 0.16118 0.0
C496 C 0.4573 0.15875 1.1388 0.0
C497 C 0.50121 0.19964 1.11846 0.0
C498 C 0.56068 0.21145 1.12006 0.0
C499 C 0.5753 0.18186 1.14207 0.0
C500 C 0.53287 0.14182 0.16212 0.0
C501 C 0.55751 0.10973 0.18112 0.0
C502 C 0.56124 0.1276 0.21404 0.0
C503 C 0.51961 0.03945 0.17702 0.0
C504 C 0.61971 0.1363 0.16793 0.0
C505 C 0.62986 0.17912 1.14601 0.0
C506 C 0.68261 0.2066 1.12928 0.0
C507 C 0.72489 0.1879 1.13426 0.0
C508 C 0.71326 0.14135 0.15532 0.0
C509 C 0.66116 0.11701 0.17301 0.0
H510 H 0.41572 0.42352 0.45495 0.0
H511 H 0.3092 0.48623 0.50034 0.0
H512 H 0.40006 0.59036 0.50519 0.0
H513 H 0.54217 0.49926 0.50059 0.0
H514 H 0.59628 0.51726 0.47148 0.0
H515 H 0.522 0.45074 0.46819 0.0
H516 H 0.5047 0.48929 0.4177 0.0
H517 H 0.57949 0.55581 0.42015 0.0
H518 H 0.51515 0.56535 0.415 0.0
H519 H 0.50616 0.68671 0.50727 0.0
H520 H 0.61675 0.76239 0.50868 0.0
H521 H 0.64935 0.6315 0.46331 0.0
C522 C 0.41123 0.45934 0.46556 0.0
C523 C 0.3558 0.44732 0.4772 0.0
C524 C 0.35161 0.49499 0.4912 0.0
C525 C 0.4028 0.55412 0.49397 0.0
C526 C 0.45732 0.56426 0.48255 0.0
C527 C 0.46154 0.51789 0.46868 0.0
C528 C 0.52548 0.53826 0.46022 0.0
C529 C 0.54777 0.49909 0.47609 0.0
C530 C 0.53153 0.53712 0.42625 0.0
C531 C 0.55707 0.60314 0.47192 0.0
C532 C 0.51736 0.6181 0.48437 0.0
C533 C 0.53753 0.67556 0.49739 0.0
C534 C 0.60003 0.71817 0.49807 0.0
C535 C 0.64069 0.7021 0.4862 0.0
C536 C 0.61879 0.64453 0.47259 0.0
H537 H 0.0423 0.46878 0.77054 0.0
H538 H 0.16675 0.49124 0.84196 0.0
H539 H 0.20084 0.60212 0.8447 0.0
H540 H 0.13324 0.61708 0.73457 0.0
H541 H 0.06939 0.62641 0.72702 0.0
H542 H 0.05929 0.55047 0.72894 0.0
H543 H -0.02218 0.51994 0.76946 0.0
H544 H -0.01246 0.59564 0.76752 0.0
H545 H -0.00382 0.566 0.80267 0.0
H546 H 0.21827 0.71108 0.84055 0.0
H547 H 0.21148 0.80477 0.83248 0.0
H548 H 0.07196 0.70784 0.76564 0.0
C549 C 0.07741 0.49721 0.78644 0.0
C550 C 0.10277 0.47173 0.80566 0.0
C551 C 0.14749 0.51011 0.82669 0.0
C552 C 0.16707 0.57312 0.8284 0.0
C553 C 0.1409 0.59684 0.80918 0.0
C554 C 0.09659 0.55977 0.78879 0.0
C555 C 0.07213 0.595 0.77226 0.0
C556 C 0.08426 0.59738 0.73871 0.0
C557 C 0.00442 0.5675 0.77835 0.0
C558 C 0.10952 0.65768 0.78643 0.0
C559 C 0.14943 0.65829 0.80749 0.0
C560 C 0.18739 0.71112 0.82399 0.0
C561 C 0.18351 0.76417 0.81919 0.0
C562 C 0.14148 0.76347 0.79835 0.0
C563 C 0.10485 0.70977 0.78156 0.0
H564 H 0.3227 0.08825 0.26355 0.0
H565 H 0.20537 0.14555 0.22246 0.0
H566 H 0.20122 0.1911 0.26948 0.0
H567 H 0.24657 0.05235 0.33772 0.0
H568 H 0.31557 0.07998 0.35885 0.0
H569 H 0.30902 0.04918 0.32199 0.0
H570 H 0.40476 0.15006 0.30641 0.0
H571 H 0.41097 0.1814 0.34309 0.0
H572 H 0.40736 0.22226 0.3108 0.0
H573 H 0.20965 0.23417 0.32002 0.0
H574 H 0.22626 0.26765 0.37212 0.0
H575 H 0.33805 0.1863 0.38585 0.0
C576 C 0.29559 0.10976 0.26451 0.0
C577 C 0.26442 0.11261 0.23827 0.0
C578 C 0.23006 0.14203 0.24132 0.0
C579 C 0.22732 0.16852 0.26829 0.0
C580 C 0.25891 0.16603 0.29318 0.0
C581 C 0.29202 0.13694 0.29191 0.0
C582 C 0.32103 0.14143 0.32281 0.0
C583 C 0.29662 0.07691 0.33613 0.0
C584 C 0.39015 0.17583 0.32064 0.0
C585 C 0.30009 0.17863 0.34109 0.0
C586 C 0.26396 0.19161 0.32316 0.0
C587 C 0.23798 0.22424 0.33417 0.0
C588 C 0.24802 0.24345 0.36411 0.0
C589 C 0.28436 0.23122 0.38376 0.0
C590 C 0.3112 0.19823 0.3717 0.0
H591 H 0.30139 0.33733 0.59667 0.0
H592 H 0.1316 0.18285 0.5653 0.0
H593 H 0.08601 0.17693 0.61352 0.0
H594 H 0.28695 0.27879 0.67492 0.0
H595 H 0.31903 0.35366 0.69179 0.0
H596 H 0.34147 0.34615 0.65493 0.0
H597 H 0.31124 0.4229 0.63486 0.0
H598 H 0.28838 0.43034 0.67162 0.0
H599 H 0.23577 0.40791 0.64084 0.0
H600 H 0.05362 0.18889 0.66386 0.0
H601 H 0.03881 0.21368 0.71452 0.0
H602 H 0.22715 0.3588 0.71903 0.0
C603 C 0.25497 0.30157 0.6001 0.0
C604 C 0.22072 0.26048 0.57619 0.0
C605 C 0.15969 0.21533 0.58234 0.0
C606 C 0.13286 0.21142 0.61002 0.0
C607 C 0.16675 0.25277 0.63255 0.0
C608 C 0.22673 0.29671 0.62829 0.0
C609 C 0.25156 0.33524 0.65701 0.0
C610 C 0.30282 0.32805 0.67046 0.0
C611 C 0.27304 0.40315 0.6507 0.0
C612 C 0.1961 0.30642 0.67756 0.0
C613 C 0.14791 0.25897 0.66257 0.0
C614 C 0.09131 0.22576 0.67581 0.0
C615 C 0.08327 0.24059 0.70495 0.0
C616 C 0.13126 0.28842 0.72171 0.0
C617 C 0.18898 0.32175 0.70742 0.0
H618 H 0.96189 0.18929 0.90735 0.0
H619 H 0.12313 0.3617 0.93043 0.0
H620 H 0.09672 0.34106 0.98359 0.0
H621 H 0.86396 0.19348 0.96382 0.0
H622 H 0.82589 0.1124 0.97212 0.0
H623 H 0.85676 0.13961 0.93564 0.0
H624 H 0.91916 0.08591 0.94055 0.0
H625 H 0.88835 0.05838 0.97703 0.0
H626 H -0.03104 0.10268 0.97217 0.0
H627 H 0.05199 0.30413 1.03483 0.0
H628 H -0.0041 0.25401 1.08 0.0
H629 H 0.86157 0.1004 1.02739 0.0
C630 C -0.00827 0.2229 0.92355 0.0
C631 C 0.04507 0.27795 0.91394 0.0
C632 C 0.08238 0.31958 0.93647 0.0
C633 C 0.06752 0.3081 0.96701 0.0
C634 C 0.01501 0.25407 0.97558 0.0
C635 C -0.02227 0.21173 0.95455 0.0
C636 C 0.9243 0.15688 0.97024 0.0
C637 C 0.86415 0.1502 0.95983 0.0
C638 C 0.92524 0.09742 0.96466 0.0
C639 C 0.93679 0.17541 1.0033 0.0
C640 C -0.01041 0.23188 1.00551 0.0
C641 C 0.01077 0.25993 1.03315 0.0
C642 C -0.02216 0.23059 1.05902 0.0
C643 C 0.92317 0.17251 1.05823 0.0
C644 C 0.90288 0.14441 1.02947 0.0
H645 H 0.82838 0.0806 0.26987 0.0
H646 H 0.81706 0.93223 0.2167 0.0
H647 H 0.81422 0.87666 0.26227 0.0
H648 H 0.92081 0.07191 0.33085 0.0
H649 H 0.88173 0.08549 0.36009 0.0
H650 H 0.8852 0.1164 0.32338 0.0
H651 H 0.76882 0.06197 0.32143 0.0
H652 H 0.76503 0.03093 0.35813 0.0
H653 H 0.72453 0.98011 0.32755 0.0
H654 H 0.81556 0.83583 0.314 0.0
H655 H 0.8127 0.81017 0.36729 0.0
H656 H 0.81539 0.97801 0.39026 0.0
C657 C 0.82545 0.0365 0.26778 0.0
C658 C 0.82305 0.01161 0.23883 0.0
C659 C 0.81871 0.95318 0.23791 0.0
C660 C 0.81728 0.92087 0.26397 0.0
C661 C 0.8194 0.94612 0.29182 0.0
C662 C 0.82276 0.00238 0.29406 0.0
C663 C 0.82219 0.01725 0.3272 0.0
C664 C 0.88098 0.07629 0.33589 0.0
C665 C 0.76685 0.02291 0.33398 0.0
C666 C 0.81795 0.96082 0.34296 0.0
C667 C 0.81728 0.92093 0.3219 0.0
C668 C 0.81554 0.86669 0.33057 0.0
C669 C 0.81401 0.85238 0.36119 0.0
C670 C 0.81312 0.89108 0.38369 0.0
C671 C 0.81517 0.94644 0.37404 0.0
H672 H 0.88198 0.90297 0.59461 0.0
H673 H 0.84138 0.72378 0.56328 0.0
H674 H 0.86891 0.70134 0.61247 0.0
H675 H 0.01361 0.93179 0.63892 0.0
H676 H 0.00035 0.9705 0.66883 0.0
H677 H -0.02603 0.97241 0.6317 0.0
H678 H 0.86566 0.928 0.65136 0.0
H679 H 0.89179 0.92599 0.68855 0.0
H680 H 0.83097 0.85695 0.67209 0.0
H681 H 0.9012 0.69631 0.66584 0.0
H682 H 0.94083 0.71206 0.71737 0.0
H683 H -0.03189 0.89625 0.71629 0.0
C684 C 0.87808 0.85869 0.59821 0.0
C685 C 0.85839 0.81492 0.5744 0.0
C686 C 0.85578 0.75832 0.58054 0.0
C687 C 0.8714 0.74494 0.60871 0.0
C688 C 0.891 0.78868 0.63141 0.0
C689 C 0.89494 0.84477 0.62653 0.0
C690 C 0.92042 0.88439 0.65476 0.0
C691 C -0.01933 0.94328 0.64815 0.0
C692 C 0.87447 0.89975 0.66744 0.0
C693 C 0.92986 0.84185 0.67603 0.0
C694 C 0.9119 0.78662 0.66201 0.0
C695 C 0.91546 0.73959 0.67687 0.0
C696 C 0.9381 0.74895 0.70646 0.0
C697 C 0.95812 0.80531 0.72165 0.0
C698 C 0.95353 0.85237 0.7058 0.0
H699 H 0.08727 0.82311 0.93105 0.0
H700 H 0.18183 -0.00309 0.88326 0.0
H701 H 0.23445 0.04911 0.92877 0.0
H702 H 0.06985 0.88854 0.99982 0.0
H703 H 0.08443 0.84191 1.0252 0.0
H704 H 0.05333 0.81298 0.9887 0.0
H705 H 0.1394 0.79356 0.97723 0.0
H706 H 0.17105 0.82106 1.01382 0.0
H707 H 0.21654 0.85533 0.98128 0.0
H708 H 0.27691 0.08765 0.97909 0.0
H709 H 0.30556 0.10896 1.03199 0.0
H710 H 0.19035 0.91527 1.05237 0.0
C711 C 0.11929 0.87202 0.93009 0.0
C712 C 0.12909 0.90486 0.90246 0.0
C713 C 0.17177 0.96924 0.90322 0.0
C714 C 0.20274 9e-05 0.92934 0.0
C715 C 0.19208 0.96724 0.95576 0.0
C716 C 0.15156 0.90463 0.95666 0.0
C717 C 0.14926 0.88221 0.98897 0.0
C718 C 0.08538 0.85481 1.00143 0.0
C719 C 0.1703 0.83522 0.99041 0.0
C720 C 0.19415 0.94186 1.00562 0.0
C721 C 0.21805 -0.00999 0.98559 0.0
C722 C 0.25881 0.05004 0.99488 0.0
C723 C 0.27518 0.06179 1.02523 0.0
C724 C 0.25206 0.01428 1.04688 0.0
C725 C 0.21082 0.95287 1.03662 0.0
loop_
_geom_bond_atom_site_label_1
_geom_bond_atom_site_label_2
_geom_bond_distance
_geom_bond_site_symmetry_2
_ccdc_geom_bond_type
Sm0 C2 2.846 . S
Sm0 O20 2.543 . S
Sm0 O21 2.450 . S
Sm0 O22 2.681 1_554 S
Sm0 O23 2.464 . S
Sm0 O24 2.396 . S
Sm0 O28 2.386 . S
Sm0 O31 2.408 1_554 S
Sm1 C11 2.846 . S
Sm1 O22 2.386 . S
Sm1 O25 2.408 1_556 S
Sm1 O26 2.543 . S
Sm1 O27 2.450 . S
Sm1 O28 2.681 1_556 S
Sm1 O29 2.464 . S
Sm1 O30 2.396 . S
C2 Sm0 2.846 . S
C2 C3 1.506 . S
C2 O20 1.261 . S
C2 O21 1.242 . S
C3 C2 1.506 . S
C3 C4 1.358 . S
C3 C8 1.382 . S
C4 C3 1.358 . S
C4 C5 1.385 . S
C4 H32 0.930 . S
C5 C4 1.385 . S
C5 C6 1.395 . S
C5 H33 0.929 . S
C6 C5 1.395 . S
C6 C7 1.335 1_545 S
C7 C6 1.335 1_565 S
C7 C8 1.398 1_565 S
C7 H34 0.930 . S
C8 C3 1.382 . S
C8 C7 1.398 1_545 S
C8 H35 0.929 . S
C9 O22 1.271 1_554 S
C9 O23 1.251 . S
C10 O24 1.252 . S
C10 O25 1.272 . S
C11 Sm1 2.846 . S
C11 C12 1.506 . S
C11 O26 1.261 . S
C11 O27 1.242 . S
C12 C11 1.506 . S
C12 C13 1.358 . S
C12 C17 1.382 . S
C13 C12 1.358 . S
C13 C14 1.385 . S
C13 H36 0.930 . S
C14 C13 1.385 . S
C14 C15 1.395 . S
C14 H37 0.929 . S
C15 C14 1.395 . S
C15 C16 1.335 . S
C16 C15 1.335 . S
C16 C17 1.398 . S
C16 H38 0.930 . S
C17 C12 1.382 . S
C17 C16 1.398 . S
C17 H39 0.929 . S
C18 O28 1.271 . S
C18 O29 1.251 1_554 S
C19 O30 1.252 . S
C19 O31 1.272 . S
O20 Sm0 2.543 . S
O20 C2 1.261 . S
O21 Sm0 2.450 . S
O21 C2 1.242 . S
O22 Sm0 2.681 1_556 S
O22 Sm1 2.386 . S
O22 C9 1.271 1_556 S
O23 Sm0 2.464 . S
O23 C9 1.251 . S
O24 Sm0 2.396 . S
O24 C10 1.252 . S
O25 Sm1 2.408 1_554 S
O25 C10 1.272 . S
O26 Sm1 2.543 . S
O26 C11 1.261 . S
O27 Sm1 2.450 . S
O27 C11 1.242 . S
O28 Sm0 2.386 . S
O28 Sm1 2.681 1_554 S
O28 C18 1.271 . S
O29 Sm1 2.464 . S
O29 C18 1.251 1_556 S
O30 Sm1 2.396 . S
O30 C19 1.252 . S
O31 Sm0 2.408 1_556 S
O31 C19 1.272 . S
H32 C4 0.930 . S
H33 C5 0.929 . S
H34 C7 0.930 . S
H35 C8 0.929 . S
H36 C13 0.930 . S
H37 C14 0.929 . S
H38 C16 0.930 . S
H39 C17 0.929 . S
Sm40 C42 2.846 . S
Sm40 O60 2.543 . S
Sm40 O61 2.450 . S
Sm40 O62 2.681 . S
Sm40 O63 2.464 . S
Sm40 O64 2.396 . S
Sm40 O68 2.386 . S
Sm40 O71 2.408 . S
Sm41 C51 2.846 . S
Sm41 O62 2.386 . S
Sm41 O65 2.408 . S
Sm41 O66 2.543 . S
Sm41 O67 2.450 . S
Sm41 O68 2.681 . S
Sm41 O69 2.464 . S
Sm41 O70 2.396 . S
C42 Sm40 2.846 . S
C42 C43 1.506 . S
C42 O60 1.261 . S
C42 O61 1.242 . S
C43 C42 1.506 . S
C43 C44 1.358 . S
C43 C48 1.382 . S
C44 C43 1.358 . S
C44 C45 1.385 . S
C44 H72 0.930 . S
C45 C44 1.385 . S
C45 C46 1.395 . S
C45 H73 0.929 . S
C46 C45 1.395 . S
C46 C47 1.335 . S
C47 C46 1.335 . S
C47 C48 1.398 . S
C47 H74 0.930 . S
C48 C43 1.382 . S
C48 C47 1.398 . S
C48 H75 0.929 . S
C49 O62 1.271 . S
C49 O63 1.251 . S
C50 O64 1.252 . S
C50 O65 1.272 . S
C51 Sm41 2.846 . S
C51 C52 1.506 . S
C51 O66 1.261 . S
C51 O67 1.242 . S
C52 C51 1.506 . S
C52 C53 1.358 . S
C52 C57 1.382 . S
C53 C52 1.358 . S
C53 C54 1.385 . S
C53 H76 0.930 . S
C54 C53 1.385 . S
C54 C55 1.395 . S
C54 H77 0.929 . S
C55 C54 1.395 . S
C55 C56 1.335 . S
C56 C55 1.335 . S
C56 C57 1.398 . S
C56 H78 0.930 . S
C57 C52 1.382 . S
C57 C56 1.398 . S
C57 H79 0.929 . S
C58 O68 1.271 . S
C58 O69 1.251 . S
C59 O70 1.252 . S
C59 O71 1.272 . S
O60 Sm40 2.543 . S
O60 C42 1.261 . S
O61 Sm40 2.450 . S
O61 C42 1.242 . S
O62 Sm40 2.681 . S
O62 Sm41 2.386 . S
O62 C49 1.271 . S
O63 Sm40 2.464 . S
O63 C49 1.251 . S
O64 Sm40 2.396 . S
O64 C50 1.252 . S
O65 Sm41 2.408 . S
O65 C50 1.272 . S
O66 Sm41 2.543 . S
O66 C51 1.261 . S
O67 Sm41 2.450 . S
O67 C51 1.242 . S
O68 Sm40 2.386 . S
O68 Sm41 2.681 . S
O68 C58 1.271 . S
O69 Sm41 2.464 . S
O69 C58 1.251 . S
O70 Sm41 2.396 . S
O70 C59 1.252 . S
O71 Sm40 2.408 . S
O71 C59 1.272 . S
H72 C44 0.930 . S
H73 C45 0.929 . S
H74 C47 0.930 . S
H75 C48 0.929 . S
H76 C53 0.930 . S
H77 C54 0.929 . S
H78 C56 0.930 . S
H79 C57 0.929 . S
Sm80 C82 2.846 . S
Sm80 O100 2.543 . S
Sm80 O101 2.450 . S
Sm80 O102 2.675 1_455 S
Sm80 O103 2.464 . S
Sm80 O104 2.396 1_455 S
Sm80 O108 2.386 . S
Sm80 O111 2.408 . S
Sm81 C91 2.846 . S
Sm81 O102 2.406 . S
Sm81 O105 2.408 . S
Sm81 O106 2.543 . S
Sm81 O107 2.450 . S
Sm81 O108 2.681 1_655 S
Sm81 O109 2.464 . S
Sm81 O110 2.396 1_655 S
C82 Sm80 2.846 . S
C82 C83 1.506 . S
C82 O100 1.261 . S
C82 O101 1.242 . S
C83 C82 1.506 . S
C83 C84 1.358 . S
C83 C88 1.382 . S
C84 C83 1.358 . S
C84 C85 1.385 . S
C84 H112 0.930 . S
C85 C84 1.385 . S
C85 C86 1.395 . S
C85 H113 0.929 . S
C86 C85 1.395 . S
C86 C87 1.335 . S
C87 C86 1.335 . S
C87 C88 1.398 . S
C87 H114 0.930 . S
C88 C83 1.382 . S
C88 C87 1.398 . S
C88 H115 0.929 . S
C89 O102 1.254 1_455 S
C89 O103 1.251 . S
C90 O104 1.252 . S
C90 O105 1.272 . S
C91 Sm81 2.846 . S
C91 C92 1.506 . S
C91 O106 1.261 . S
C91 O107 1.242 . S
C92 C91 1.506 . S
C92 C93 1.358 . S
C92 C97 1.382 . S
C93 C92 1.358 . S
C93 C94 1.385 . S
C93 H116 0.930 . S
C94 C93 1.385 . S
C94 C95 1.395 . S
C94 H117 0.929 . S
C95 C94 1.395 . S
C95 C96 1.335 . S
C96 C95 1.335 . S
C96 C97 1.398 . S
C96 H118 0.930 . S
C97 C92 1.382 . S
C97 C96 1.398 . S
C97 H119 0.929 . S
C98 O108 1.271 1_655 S
C98 O109 1.251 . S
C99 O110 1.252 . S
C99 O111 1.272 . S
O100 Sm80 2.543 . S
O100 C82 1.261 . S
O101 Sm80 2.450 . S
O101 C82 1.242 . S
O102 Sm80 2.675 1_655 S
O102 Sm81 2.406 . S
O102 C89 1.254 1_655 S
O103 Sm80 2.464 . S
O103 C89 1.251 . S
O104 Sm80 2.396 1_655 S
O104 C90 1.252 . S
O105 Sm81 2.408 . S
O105 C90 1.272 . S
O106 Sm81 2.543 . S
O106 C91 1.261 . S
O107 Sm81 2.450 . S
O107 C91 1.242 . S
O108 Sm80 2.386 . S
O108 Sm81 2.681 1_455 S
O108 C98 1.271 1_455 S
O109 Sm81 2.464 . S
O109 C98 1.251 . S
O110 Sm81 2.396 1_455 S
O110 C99 1.252 . S
O111 Sm80 2.408 . S
O111 C99 1.272 . S
H112 C84 0.930 . S
H113 C85 0.929 . S
H114 C87 0.930 . S
H115 C88 0.929 . S
H116 C93 0.930 . S
H117 C94 0.929 . S
H118 C96 0.930 . S
H119 C97 0.929 . S
Sm120 C122 2.846 . S
Sm120 O140 2.543 . S
Sm120 O141 2.450 . S
Sm120 O142 2.663 1_544 S
Sm120 O143 2.464 . S
Sm120 O144 2.396 1_545 S
Sm120 O148 2.386 . S
Sm120 O151 2.408 1_554 S
Sm121 C131 2.846 . S
Sm121 O142 2.393 . S
Sm121 O145 2.408 1_556 S
Sm121 O146 2.543 . S
Sm121 O147 2.450 . S
Sm121 O148 2.681 1_566 S
Sm121 O149 2.464 . S
Sm121 O150 2.396 1_565 S
C122 Sm120 2.846 . S
C122 C123 1.506 . S
C122 O140 1.261 . S
C122 O141 1.242 . S
C123 C122 1.506 . S
C123 C124 1.358 . S
C123 C128 1.382 . S
C124 C123 1.358 . S
C124 C125 1.385 . S
C124 H152 0.930 . S
C125 C124 1.385 . S
C125 C126 1.395 . S
C125 H153 0.929 . S
C126 C125 1.395 . S
C126 C127 1.335 . S
C127 C126 1.335 . S
C127 C128 1.398 . S
C127 H154 0.930 . S
C128 C123 1.382 . S
C128 C127 1.398 . S
C128 H155 0.929 . S
C129 O142 1.272 1_544 S
C129 O143 1.251 . S
C130 O144 1.252 . S
C130 O145 1.272 . S
C131 Sm121 2.846 . S
C131 C132 1.506 . S
C131 O146 1.261 . S
C131 O147 1.242 . S
C132 C131 1.506 . S
C132 C133 1.358 . S
C132 C137 1.382 . S
C133 C132 1.358 . S
C133 C134 1.385 . S
C133 H156 0.930 . S
C134 C133 1.385 . S
C134 C135 1.395 . S
C134 H157 0.929 . S
C135 C134 1.395 . S
C135 C136 1.335 . S
C136 C135 1.335 . S
C136 C137 1.398 . S
C136 H158 0.930 . S
C137 C132 1.382 . S
C137 C136 1.398 . S
C137 H159 0.929 . S
C138 O148 1.271 1_565 S
C138 O149 1.251 1_554 S
C139 O150 1.252 . S
C139 O151 1.272 . S
O140 Sm120 2.543 . S
O140 C122 1.261 . S
O141 Sm120 2.450 . S
O141 C122 1.242 . S
O142 Sm120 2.663 1_566 S
O142 Sm121 2.393 . S
O142 C129 1.272 1_566 S
O143 Sm120 2.464 . S
O143 C129 1.251 . S
O144 Sm120 2.396 1_565 S
O144 C130 1.252 . S
O145 Sm121 2.408 1_554 S
O145 C130 1.272 . S
O146 Sm121 2.543 . S
O146 C131 1.261 . S
O147 Sm121 2.450 . S
O147 C131 1.242 . S
O148 Sm120 2.386 . S
O148 Sm121 2.681 1_544 S
O148 C138 1.271 1_545 S
O149 Sm121 2.464 . S
O149 C138 1.251 1_556 S
O150 Sm121 2.396 1_545 S
O150 C139 1.252 . S
O151 Sm120 2.408 1_556 S
O151 C139 1.272 . S
H152 C124 0.930 . S
H153 C125 0.929 . S
H154 C127 0.930 . S
H155 C128 0.929 . S
H156 C133 0.930 . S
H157 C134 0.929 . S
H158 C136 0.930 . S
H159 C137 0.929 . S
Sm160 C162 2.846 . S
Sm160 O180 2.543 . S
Sm160 O181 2.450 . S
Sm160 O182 2.681 . S
Sm160 O183 2.464 . S
Sm160 O184 2.396 . S
Sm160 O188 2.386 . S
Sm160 O191 2.408 . S
Sm161 C171 2.846 . S
Sm161 O182 2.386 . S
Sm161 O185 2.408 . S
Sm161 O186 2.543 1_655 S
Sm161 O187 2.450 . S
Sm161 O188 2.681 . S
Sm161 O189 2.464 . S
Sm161 O190 2.396 . S
C162 Sm160 2.846 . S
C162 C163 1.506 . S
C162 O180 1.261 . S
C162 O181 1.242 . S
C163 C162 1.506 . S
C163 C164 1.358 . S
C163 C168 1.382 . S
C164 C163 1.358 . S
C164 C165 1.385 . S
C164 H192 0.930 . S
C165 C164 1.385 . S
C165 C166 1.395 . S
C165 H193 0.929 . S
C166 C165 1.395 . S
C166 C167 1.335 . S
C167 C166 1.335 . S
C167 C168 1.398 . S
C167 H194 0.930 . S
C168 C163 1.382 . S
C168 C167 1.398 . S
C168 H195 0.929 . S
C169 O182 1.271 1_455 S
C169 O183 1.251 1_455 S
C170 O184 1.252 . S
C170 O185 1.272 . S
C171 Sm161 2.846 . S
C171 C172 1.506 1_655 S
C171 O186 1.261 1_655 S
C171 O187 1.242 . S
C172 C171 1.506 1_455 S
C172 C173 1.358 . S
C172 C177 1.382 1_455 S
C173 C172 1.358 . S
C173 C174 1.385 . S
C173 H196 0.930 . S
C174 C173 1.385 . S
C174 C175 1.395 . S
C174 H197 0.929 . S
C175 C174 1.395 . S
C175 C176 1.335 1_455 S
C176 C175 1.335 1_655 S
C176 C177 1.398 . S
C176 H198 0.930 . S
C177 C172 1.382 1_655 S
C177 C176 1.398 . S
C177 H199 0.929 . S
C178 O188 1.271 . S
C178 O189 1.251 . S
C179 O190 1.252 . S
C179 O191 1.272 . S
O180 Sm160 2.543 . S
O180 C162 1.261 . S
O181 Sm160 2.450 . S
O181 C162 1.242 . S
O182 Sm160 2.681 . S
O182 Sm161 2.386 . S
O182 C169 1.271 1_655 S
O183 Sm160 2.464 . S
O183 C169 1.251 1_655 S
O184 Sm160 2.396 . S
O184 C170 1.252 . S
O185 Sm161 2.408 . S
O185 C170 1.272 . S
O186 Sm161 2.543 1_455 S
O186 C171 1.261 1_455 S
O187 Sm161 2.450 . S
O187 C171 1.242 . S
O188 Sm160 2.386 . S
O188 Sm161 2.681 . S
O188 C178 1.271 . S
O189 Sm161 2.464 . S
O189 C178 1.251 . S
O190 Sm161 2.396 . S
O190 C179 1.252 . S
O191 Sm160 2.408 . S
O191 C179 1.272 . S
H192 C164 0.930 . S
H193 C165 0.929 . S
H194 C167 0.930 . S
H195 C168 0.929 . S
H196 C173 0.930 . S
H197 C174 0.929 . S
H198 C176 0.930 . S
H199 C177 0.929 . S
Sm200 C202 2.846 . S
Sm200 O220 2.543 . S
Sm200 O221 2.450 . S
Sm200 O222 2.681 . S
Sm200 O223 2.464 . S
Sm200 O224 2.396 . S
Sm200 O228 2.386 . S
Sm200 O231 2.408 . S
Sm201 C211 2.846 . S
Sm201 O222 2.386 . S
Sm201 O225 2.408 . S
Sm201 O226 2.543 1_565 S
Sm201 O227 2.450 . S
Sm201 O228 2.681 . S
Sm201 O229 2.464 . S
Sm201 O230 2.396 . S
C202 Sm200 2.846 . S
C202 C203 1.506 . S
C202 O220 1.261 . S
C202 O221 1.242 . S
C203 C202 1.506 . S
C203 C204 1.358 . S
C203 C208 1.382 . S
C204 C203 1.358 . S
C204 C205 1.385 . S
C204 H232 0.930 . S
C205 C204 1.385 . S
C205 C206 1.395 . S
C205 H233 0.929 . S
C206 C205 1.395 . S
C206 C207 1.335 1_455 S
C207 C206 1.335 1_655 S
C207 C208 1.398 1_655 S
C207 H234 0.930 . S
C208 C203 1.382 . S
C208 C207 1.398 1_455 S
C208 H235 0.929 . S
C209 O222 1.271 1_545 S
C209 O223 1.251 1_545 S
C210 O224 1.252 . S
C210 O225 1.272 . S
C211 Sm201 2.846 . S
C211 C212 1.506 1_565 S
C211 O226 1.261 1_565 S
C211 O227 1.242 . S
C212 C211 1.506 1_545 S
C212 C213 1.358 . S
C212 C217 1.382 1_545 S
C213 C212 1.358 . S
C213 C214 1.385 . S
C213 H236 0.930 . S
C214 C213 1.385 . S
C214 C215 1.395 . S
C214 H237 0.929 . S
C215 C214 1.395 . S
C215 C216 1.335 1_545 S
C216 C215 1.335 1_565 S
C216 C217 1.398 . S
C216 H238 0.930 . S
C217 C212 1.382 1_565 S
C217 C216 1.398 . S
C217 H239 0.929 . S
C218 O228 1.271 . S
C218 O229 1.251 . S
C219 O230 1.252 . S
C219 O231 1.272 . S
O220 Sm200 2.543 . S
O220 C202 1.261 . S
O221 Sm200 2.450 . S
O221 C202 1.242 . S
O222 Sm200 2.681 . S
O222 Sm201 2.386 . S
O222 C209 1.271 1_565 S
O223 Sm200 2.464 . S
O223 C209 1.251 1_565 S
O224 Sm200 2.396 . S
O224 C210 1.252 . S
O225 Sm201 2.408 . S
O225 C210 1.272 . S
O226 Sm201 2.543 1_545 S
O226 C211 1.261 1_545 S
O227 Sm201 2.450 . S
O227 C211 1.242 . S
O228 Sm200 2.386 . S
O228 Sm201 2.681 . S
O228 C218 1.271 . S
O229 Sm201 2.464 . S
O229 C218 1.251 . S
O230 Sm201 2.396 . S
O230 C219 1.252 . S
O231 Sm200 2.408 . S
O231 C219 1.272 . S
H232 C204 0.930 . S
H233 C205 0.929 . S
H234 C207 0.930 . S
H235 C208 0.929 . S
H236 C213 0.930 . S
H237 C214 0.929 . S
H238 C216 0.930 . S
H239 C217 0.929 . S
H240 C252 0.930 1_565 S
H241 C254 0.930 . S
H242 C255 0.930 . S
H243 C259 0.959 . S
H244 C259 0.959 . S
H245 C259 0.961 1_565 S
H246 C260 0.960 . S
H247 C260 0.961 . S
H248 C260 0.959 . S
H249 C263 0.929 . S
H250 C264 0.931 . S
H251 C266 0.930 . S
C252 H240 0.930 1_545 S
C252 C253 1.399 1_556 S
C252 C257 1.399 1_655 S
C253 C252 1.399 1_554 S
C253 C254 1.376 . S
C254 H241 0.930 . S
C254 C253 1.376 . S
C254 C255 1.388 1_655 S
C255 H242 0.930 . S
C255 C254 1.388 1_455 S
C255 C256 1.390 . S
C256 C255 1.390 . S
C256 C257 1.394 1_554 S
C256 C262 1.465 . S
C257 C252 1.399 1_455 S
C257 C256 1.394 1_556 S
C257 C258 1.516 . S
C258 C257 1.516 . S
C258 C259 1.502 . S
C258 C260 1.561 . S
C258 C261 1.526 . S
C259 H243 0.959 . S
C259 H244 0.959 . S
C259 H245 0.961 1_545 S
C259 C258 1.502 . S
C260 H246 0.960 . S
C260 H247 0.961 . S
C260 H248 0.959 . S
C260 C258 1.561 . S
C261 C258 1.526 . S
C261 C262 1.396 1_556 S
C261 C266 1.390 . S
C262 C256 1.465 . S
C262 C261 1.396 1_554 S
C262 C263 1.399 . S
C263 H249 0.929 . S
C263 C262 1.399 . S
C263 C264 1.385 . S
C264 H250 0.931 . S
C264 C263 1.385 . S
C264 C265 1.389 . S
C265 C264 1.389 . S
C265 C266 1.387 1_554 S
C266 H251 0.930 . S
C266 C261 1.390 . S
C266 C265 1.387 1_556 S
H267 C279 0.930 . S
H268 C281 0.930 1_655 S
H269 C282 0.930 . S
H270 C286 0.959 . S
H271 C286 0.959 . S
H272 C286 0.961 . S
H273 C287 0.960 . S
H274 C287 0.961 . S
H275 C287 0.959 . S
H276 C290 0.929 . S
H277 C291 0.931 . S
H278 C293 0.930 . S
C279 H267 0.930 . S
C279 C280 1.399 . S
C279 C284 1.399 1_565 S
C280 C279 1.399 . S
C280 C281 1.376 . S
C281 H268 0.930 1_455 S
C281 C280 1.376 . S
C281 C282 1.388 1_565 S
C282 H269 0.930 . S
C282 C281 1.388 1_545 S
C282 C283 1.390 . S
C283 C282 1.390 . S
C283 C284 1.394 . S
C283 C289 1.465 . S
C284 C279 1.399 1_545 S
C284 C283 1.394 . S
C284 C285 1.516 . S
C285 C284 1.516 . S
C285 C286 1.502 . S
C285 C287 1.561 . S
C285 C288 1.526 . S
C286 H270 0.959 . S
C286 H271 0.959 . S
C286 H272 0.961 . S
C286 C285 1.502 . S
C287 H273 0.960 . S
C287 H274 0.961 . S
C287 H275 0.959 . S
C287 C285 1.561 . S
C288 C285 1.526 . S
C288 C289 1.396 . S
C288 C293 1.390 . S
C289 C283 1.465 . S
C289 C288 1.396 . S
C289 C290 1.399 . S
C290 H276 0.929 . S
C290 C289 1.399 . S
C290 C291 1.385 . S
C291 H277 0.931 . S
C291 C290 1.385 . S
C291 C292 1.389 . S
C292 C291 1.389 . S
C292 C293 1.387 . S
C293 H278 0.930 . S
C293 C288 1.390 . S
C293 C292 1.387 . S
H294 C306 0.930 . S
H295 C308 0.930 1_565 S
H296 C309 0.930 . S
H297 C313 0.959 . S
H298 C313 0.959 . S
H299 C313 0.961 . S
H300 C314 0.960 . S
H301 C314 0.961 . S
H302 C314 0.959 . S
H303 C317 0.929 . S
H304 C318 0.931 . S
H305 C320 0.930 . S
C306 H294 0.930 . S
C306 C307 1.399 . S
C306 C311 1.399 . S
C307 C306 1.399 . S
C307 C308 1.376 . S
C308 H295 0.930 1_545 S
C308 C307 1.376 . S
C308 C309 1.388 . S
C309 H296 0.930 . S
C309 C308 1.388 . S
C309 C310 1.390 . S
C310 C309 1.390 . S
C310 C311 1.394 . S
C310 C316 1.465 . S
C311 C306 1.399 . S
C311 C310 1.394 . S
C311 C312 1.516 . S
C312 C311 1.516 . S
C312 C313 1.502 . S
C312 C314 1.561 . S
C312 C315 1.526 . S
C313 H297 0.959 . S
C313 H298 0.959 . S
C313 H299 0.961 . S
C313 C312 1.502 . S
C314 H300 0.960 . S
C314 H301 0.961 . S
C314 H302 0.959 . S
C314 C312 1.561 . S
C315 C312 1.526 . S
C315 C316 1.396 . S
C315 C320 1.390 . S
C316 C310 1.465 . S
C316 C315 1.396 . S
C316 C317 1.399 . S
C317 H303 0.929 . S
C317 C316 1.399 . S
C317 C318 1.385 1_455 S
C318 H304 0.931 . S
C318 C317 1.385 1_655 S
C318 C319 1.389 1_655 S
C319 C318 1.389 1_455 S
C319 C320 1.387 . S
C320 H305 0.930 . S
C320 C315 1.390 . S
C320 C319 1.387 . S
H321 C333 0.930 . S
H322 C335 0.930 . S
H323 C336 0.930 . S
H324 C340 0.959 . S
H325 C340 0.959 . S
H326 C340 0.961 . S
H327 C341 0.960 . S
H328 C341 0.961 . S
H329 C341 0.959 . S
H330 C344 0.929 . S
H331 C345 0.931 . S
H332 C347 0.930 . S
C333 H321 0.930 . S
C333 C334 1.399 . S
C333 C338 1.399 . S
C334 C333 1.399 . S
C334 C335 1.376 . S
C335 H322 0.930 . S
C335 C334 1.376 . S
C335 C336 1.388 . S
C336 H323 0.930 . S
C336 C335 1.388 . S
C336 C337 1.390 . S
C337 C336 1.390 . S
C337 C338 1.394 . S
C337 C343 1.465 . S
C338 C333 1.399 . S
C338 C337 1.394 . S
C338 C339 1.516 . S
C339 C338 1.516 . S
C339 C340 1.502 . S
C339 C341 1.561 . S
C339 C342 1.526 . S
C340 H324 0.959 . S
C340 H325 0.959 . S
C340 H326 0.961 . S
C340 C339 1.502 . S
C341 H327 0.960 . S
C341 H328 0.961 . S
C341 H329 0.959 . S
C341 C339 1.561 . S
C342 C339 1.526 . S
C342 C343 1.396 . S
C342 C347 1.390 . S
C343 C337 1.465 . S
C343 C342 1.396 . S
C343 C344 1.399 . S
C344 H330 0.929 . S
C344 C343 1.399 . S
C344 C345 1.385 . S
C345 H331 0.931 . S
C345 C344 1.385 . S
C345 C346 1.389 . S
C346 C345 1.389 . S
C346 C347 1.387 . S
C347 H332 0.930 . S
C347 C342 1.390 . S
C347 C346 1.387 . S
H348 C360 0.930 . S
H349 C362 0.930 . S
H350 C363 0.930 . S
H351 C367 0.959 . S
H352 C367 0.959 . S
H353 C367 0.961 . S
H354 C368 0.960 1_455 S
H355 C368 0.961 . S
H356 C368 0.959 . S
H357 C371 0.929 . S
H358 C372 0.931 . S
H359 C374 0.930 . S
C360 H348 0.930 . S
C360 C361 1.399 . S
C360 C365 1.399 . S
C361 C360 1.399 . S
C361 C362 1.376 . S
C362 H349 0.930 . S
C362 C361 1.376 . S
C362 C363 1.388 . S
C363 H350 0.930 . S
C363 C362 1.388 . S
C363 C364 1.390 . S
C364 C363 1.390 . S
C364 C365 1.394 . S
C364 C370 1.465 1_455 S
C365 C360 1.399 . S
C365 C364 1.394 . S
C365 C366 1.516 . S
C366 C365 1.516 . S
C366 C367 1.502 . S
C366 C368 1.561 1_455 S
C366 C369 1.526 1_455 S
C367 H351 0.959 . S
C367 H352 0.959 . S
C367 H353 0.961 . S
C367 C366 1.502 . S
C368 H354 0.960 1_655 S
C368 H355 0.961 . S
C368 H356 0.959 . S
C368 C366 1.561 1_655 S
C369 C366 1.526 1_655 S
C369 C370 1.396 . S
C369 C374 1.390 . S
C370 C364 1.465 1_655 S
C370 C369 1.396 . S
C370 C371 1.399 . S
C371 H357 0.929 . S
C371 C370 1.399 . S
C371 C372 1.385 . S
C372 H358 0.931 . S
C372 C371 1.385 . S
C372 C373 1.389 . S
C373 C372 1.389 . S
C373 C374 1.387 . S
C374 H359 0.930 . S
C374 C369 1.390 . S
C374 C373 1.387 . S
H375 C387 0.930 . S
H376 C389 0.930 . S
H377 C390 0.930 . S
H378 C394 0.959 . S
H379 C394 0.959 . S
H380 C394 0.961 1_545 S
H381 C395 0.960 . S
H382 C395 0.961 . S
H383 C395 0.959 . S
H384 C398 0.929 . S
H385 C399 0.931 . S
H386 C401 0.930 . S
C387 H375 0.930 . S
C387 C388 1.399 . S
C387 C392 1.399 . S
C388 C387 1.399 . S
C388 C389 1.376 . S
C389 H376 0.930 . S
C389 C388 1.376 . S
C389 C390 1.388 . S
C390 H377 0.930 . S
C390 C389 1.388 . S
C390 C391 1.390 . S
C391 C390 1.390 . S
C391 C392 1.394 . S
C391 C397 1.465 1_545 S
C392 C387 1.399 . S
C392 C391 1.394 . S
C392 C393 1.516 . S
C393 C392 1.516 . S
C393 C394 1.502 1_545 S
C393 C395 1.561 . S
C393 C396 1.526 1_545 S
C394 H378 0.959 . S
C394 H379 0.959 . S
C394 H380 0.961 1_565 S
C394 C393 1.502 1_565 S
C395 H381 0.960 . S
C395 H382 0.961 . S
C395 H383 0.959 . S
C395 C393 1.561 . S
C396 C393 1.526 1_565 S
C396 C397 1.396 . S
C396 C401 1.390 . S
C397 C391 1.465 1_565 S
C397 C396 1.396 . S
C397 C398 1.399 . S
C398 H384 0.929 . S
C398 C397 1.399 . S
C398 C399 1.385 . S
C399 H385 0.931 . S
C399 C398 1.385 . S
C399 C400 1.389 . S
C400 C399 1.389 . S
C400 C401 1.387 . S
C401 H386 0.930 . S
C401 C396 1.390 . S
C401 C400 1.387 . S
H402 C414 0.930 . S
H403 C416 0.930 . S
H404 C417 0.930 . S
H405 C421 0.959 . S
H406 C421 0.959 . S
H407 C421 0.961 . S
H408 C422 0.960 . S
H409 C422 0.961 . S
H410 C422 0.959 . S
H411 C425 0.929 . S
H412 C426 0.931 . S
H413 C428 0.930 1_455 S
C414 H402 0.930 . S
C414 C415 1.399 . S
C414 C419 1.399 . S
C415 C414 1.399 . S
C415 C416 1.376 . S
C416 H403 0.930 . S
C416 C415 1.376 . S
C416 C417 1.388 . S
C417 H404 0.930 . S
C417 C416 1.388 . S
C417 C418 1.390 . S
C418 C417 1.390 . S
C418 C419 1.394 . S
C418 C424 1.465 . S
C419 C414 1.399 . S
C419 C418 1.394 . S
C419 C420 1.516 . S
C420 C419 1.516 . S
C420 C421 1.502 . S
C420 C422 1.561 . S
C420 C423 1.526 . S
C421 H405 0.959 . S
C421 H406 0.959 . S
C421 H407 0.961 . S
C421 C420 1.502 . S
C422 H408 0.960 . S
C422 H409 0.961 . S
C422 H410 0.959 . S
C422 C420 1.561 . S
C423 C420 1.526 . S
C423 C424 1.396 . S
C423 C428 1.390 . S
C424 C418 1.465 . S
C424 C423 1.396 . S
C424 C425 1.399 . S
C425 H411 0.929 . S
C425 C424 1.399 . S
C425 C426 1.385 . S
C426 H412 0.931 . S
C426 C425 1.385 . S
C426 C427 1.389 . S
C427 C426 1.389 . S
C427 C428 1.387 . S
C428 H413 0.930 1_655 S
C428 C423 1.390 . S
C428 C427 1.387 . S
H429 C441 0.930 . S
H430 C443 0.930 . S
H431 C444 0.930 . S
H432 C448 0.959 . S
H433 C448 0.960 1_545 S
H434 C448 0.961 . S
H435 C449 0.960 . S
H436 C449 0.961 . S
H437 C449 0.959 . S
H438 C452 0.929 . S
H439 C453 0.931 . S
H440 C455 0.930 1_545 S
C441 H429 0.930 . S
C441 C442 1.399 . S
C441 C446 1.399 . S
C442 C441 1.399 . S
C442 C443 1.376 . S
C443 H430 0.930 . S
C443 C442 1.376 . S
C443 C444 1.388 . S
C444 H431 0.930 . S
C444 C443 1.388 . S
C444 C445 1.390 . S
C445 C444 1.390 . S
C445 C446 1.394 . S
C445 C451 1.465 . S
C446 C441 1.399 . S
C446 C445 1.394 . S
C446 C447 1.516 . S
C447 C446 1.516 . S
C447 C448 1.502 . S
C447 C449 1.561 . S
C447 C450 1.526 . S
C448 H432 0.959 . S
C448 H433 0.960 1_565 S
C448 H434 0.961 . S
C448 C447 1.502 . S
C449 H435 0.960 . S
C449 H436 0.961 . S
C449 H437 0.959 . S
C449 C447 1.561 . S
C450 C447 1.526 . S
C450 C451 1.396 . S
C450 C455 1.390 . S
C451 C445 1.465 . S
C451 C450 1.396 . S
C451 C452 1.399 . S
C452 H438 0.929 . S
C452 C451 1.399 . S
C452 C453 1.385 . S
C453 H439 0.931 . S
C453 C452 1.385 . S
C453 C454 1.389 . S
C454 C453 1.389 . S
C454 C455 1.387 . S
C455 H440 0.930 1_565 S
C455 C450 1.390 . S
C455 C454 1.387 . S
H456 C468 0.930 . S
H457 C470 0.930 . S
H458 C471 0.930 . S
H459 C475 0.959 . S
H460 C475 0.959 . S
H461 C475 0.961 . S
H462 C476 0.960 . S
H463 C476 0.961 . S
H464 C476 0.959 . S
H465 C479 0.929 . S
H466 C480 0.931 . S
H467 C482 0.930 . S
C468 H456 0.930 . S
C468 C469 1.399 . S
C468 C473 1.399 . S
C469 C468 1.399 . S
C469 C470 1.376 . S
C470 H457 0.930 . S
C470 C469 1.376 . S
C470 C471 1.388 . S
C471 H458 0.930 . S
C471 C470 1.388 . S
C471 C472 1.390 . S
C472 C471 1.390 . S
C472 C473 1.394 . S
C472 C478 1.465 . S
C473 C468 1.399 . S
C473 C472 1.394 . S
C473 C474 1.516 . S
C474 C473 1.516 . S
C474 C475 1.502 . S
C474 C476 1.561 . S
C474 C477 1.526 . S
C475 H459 0.959 . S
C475 H460 0.959 . S
C475 H461 0.961 . S
C475 C474 1.502 . S
C476 H462 0.960 . S
C476 H463 0.961 . S
C476 H464 0.959 . S
C476 C474 1.561 . S
C477 C474 1.526 . S
C477 C478 1.396 . S
C477 C482 1.390 . S
C478 C472 1.465 . S
C478 C477 1.396 . S
C478 C479 1.399 . S
C479 H465 0.929 . S
C479 C478 1.399 . S
C479 C480 1.385 . S
C480 H466 0.931 . S
C480 C479 1.385 . S
C480 C481 1.389 . S
C481 C480 1.389 . S
C481 C482 1.387 . S
C482 H467 0.930 . S
C482 C477 1.390 . S
C482 C481 1.387 . S
H483 C495 0.930 . S
H484 C497 0.930 . S
H485 C498 0.930 . S
H486 C502 0.959 . S
H487 C502 0.959 . S
H488 C502 0.961 . S
H489 C503 0.960 . S
H490 C503 0.961 . S
H491 C503 0.959 . S
H492 C506 0.929 . S
H493 C507 0.930 1_565 S
H494 C509 0.930 . S
C495 H483 0.930 . S
C495 C496 1.399 . S
C495 C500 1.399 . S
C496 C495 1.399 . S
C496 C497 1.376 1_554 S
C497 H484 0.930 . S
C497 C496 1.376 1_556 S
C497 C498 1.388 . S
C498 H485 0.930 . S
C498 C497 1.388 . S
C498 C499 1.390 . S
C499 C498 1.390 . S
C499 C500 1.394 1_556 S
C499 C505 1.465 . S
C500 C495 1.399 . S
C500 C499 1.394 1_554 S
C500 C501 1.516 . S
C501 C500 1.516 . S
C501 C502 1.502 . S
C501 C503 1.561 . S
C501 C504 1.526 . S
C502 H486 0.959 . S
C502 H487 0.959 . S
C502 H488 0.961 . S
C502 C501 1.502 . S
C503 H489 0.960 . S
C503 H490 0.961 . S
C503 H491 0.959 . S
C503 C501 1.561 . S
C504 C501 1.526 . S
C504 C505 1.396 1_554 S
C504 C509 1.390 . S
C505 C499 1.465 . S
C505 C504 1.396 1_556 S
C505 C506 1.399 . S
C506 H492 0.929 . S
C506 C505 1.399 . S
C506 C507 1.386 . S
C507 H493 0.930 1_545 S
C507 C506 1.386 . S
C507 C508 1.389 1_546 S
C508 C507 1.389 1_564 S
C508 C509 1.387 1_565 S
C509 H494 0.930 . S
C509 C504 1.390 . S
C509 C508 1.387 1_545 S
H510 C522 0.930 . S
H511 C524 0.930 . S
H512 C525 0.930 . S
H513 C529 0.959 . S
H514 C529 0.959 . S
H515 C529 0.961 . S
H516 C530 0.960 . S
H517 C530 0.961 . S
H518 C530 0.959 . S
H519 C533 0.929 . S
H520 C534 0.931 . S
H521 C536 0.930 . S
C522 H510 0.930 . S
C522 C523 1.399 . S
C522 C527 1.399 . S
C523 C522 1.399 . S
C523 C524 1.376 . S
C524 H511 0.930 . S
C524 C523 1.376 . S
C524 C525 1.388 . S
C525 H512 0.930 . S
C525 C524 1.388 . S
C525 C526 1.390 . S
C526 C525 1.390 . S
C526 C527 1.394 . S
C526 C532 1.465 . S
C527 C522 1.399 . S
C527 C526 1.394 . S
C527 C528 1.516 . S
C528 C527 1.516 . S
C528 C529 1.502 . S
C528 C530 1.561 . S
C528 C531 1.526 . S
C529 H513 0.959 . S
C529 H514 0.959 . S
C529 H515 0.961 . S
C529 C528 1.502 . S
C530 H516 0.960 . S
C530 H517 0.961 . S
C530 H518 0.959 . S
C530 C528 1.561 . S
C531 C528 1.526 . S
C531 C532 1.396 . S
C531 C536 1.390 . S
C532 C526 1.465 . S
C532 C531 1.396 . S
C532 C533 1.399 . S
C533 H519 0.929 . S
C533 C532 1.399 . S
C533 C534 1.385 . S
C534 H520 0.931 . S
C534 C533 1.385 . S
C534 C535 1.389 . S
C535 C534 1.389 . S
C535 C536 1.387 . S
C536 H521 0.930 . S
C536 C531 1.390 . S
C536 C535 1.387 . S
H537 C549 0.930 1_655 S
H538 C551 0.930 . S
H539 C552 0.930 . S
H540 C556 0.959 . S
H541 C556 0.959 . S
H542 C556 0.961 . S
H543 C557 0.960 . S
H544 C557 0.961 . S
H545 C557 0.959 . S
H546 C560 0.929 . S
H547 C561 0.931 . S
H548 C563 0.930 . S
C549 H537 0.930 1_455 S
C549 C550 1.399 . S
C549 C554 1.399 . S
C550 C549 1.399 . S
C550 C551 1.376 . S
C551 H538 0.930 . S
C551 C550 1.376 . S
C551 C552 1.388 . S
C552 H539 0.930 . S
C552 C551 1.388 . S
C552 C553 1.390 . S
C553 C552 1.390 . S
C553 C554 1.394 . S
C553 C559 1.465 . S
C554 C549 1.399 . S
C554 C553 1.394 . S
C554 C555 1.516 . S
C555 C554 1.516 . S
C555 C556 1.502 . S
C555 C557 1.561 . S
C555 C558 1.526 . S
C556 H540 0.959 . S
C556 H541 0.959 . S
C556 H542 0.961 . S
C556 C555 1.502 . S
C557 H543 0.960 . S
C557 H544 0.961 . S
C557 H545 0.959 . S
C557 C555 1.561 . S
C558 C555 1.526 . S
C558 C559 1.396 . S
C558 C563 1.390 . S
C559 C553 1.465 . S
C559 C558 1.396 . S
C559 C560 1.399 . S
C560 H546 0.929 . S
C560 C559 1.399 . S
C560 C561 1.385 . S
C561 H547 0.931 . S
C561 C560 1.385 . S
C561 C562 1.389 . S
C562 C561 1.389 . S
C562 C563 1.387 . S
C563 H548 0.930 . S
C563 C558 1.390 . S
C563 C562 1.387 . S
H564 C576 0.930 . S
H565 C578 0.930 . S
H566 C579 0.930 . S
H567 C583 0.959 . S
H568 C583 0.959 . S
H569 C583 0.961 . S
H570 C584 0.960 . S
H571 C584 0.961 . S
H572 C584 0.959 . S
H573 C587 0.929 . S
H574 C588 0.931 . S
H575 C590 0.930 . S
C576 H564 0.930 . S
C576 C577 1.399 . S
C576 C581 1.399 . S
C577 C576 1.399 . S
C577 C578 1.376 . S
C578 H565 0.930 . S
C578 C577 1.376 . S
C578 C579 1.388 . S
C579 H566 0.930 . S
C579 C578 1.388 . S
C579 C580 1.390 . S
C580 C579 1.390 . S
C580 C581 1.394 . S
C580 C586 1.465 . S
C581 C576 1.399 . S
C581 C580 1.394 . S
C581 C582 1.516 . S
C582 C581 1.516 . S
C582 C583 1.502 . S
C582 C584 1.561 . S
C582 C585 1.526 . S
C583 H567 0.959 . S
C583 H568 0.959 . S
C583 H569 0.961 . S
C583 C582 1.502 . S
C584 H570 0.960 . S
C584 H571 0.961 . S
C584 H572 0.959 . S
C584 C582 1.561 . S
C585 C582 1.526 . S
C585 C586 1.396 . S
C585 C590 1.390 . S
C586 C580 1.465 . S
C586 C585 1.396 . S
C586 C587 1.399 . S
C587 H573 0.929 . S
C587 C586 1.399 . S
C587 C588 1.385 . S
C588 H574 0.931 . S
C588 C587 1.385 . S
C588 C589 1.389 . S
C589 C588 1.389 . S
C589 C590 1.387 . S
C590 H575 0.930 . S
C590 C585 1.390 . S
C590 C589 1.387 . S
H591 C603 0.930 . S
H592 C605 0.930 . S
H593 C606 0.930 . S
H594 C610 0.959 . S
H595 C610 0.959 . S
H596 C610 0.961 . S
H597 C611 0.960 . S
H598 C611 0.961 . S
H599 C611 0.959 . S
H600 C614 0.929 . S
H601 C615 0.931 . S
H602 C617 0.930 . S
C603 H591 0.930 . S
C603 C604 1.399 . S
C603 C608 1.399 . S
C604 C603 1.399 . S
C604 C605 1.376 . S
C605 H592 0.930 . S
C605 C604 1.376 . S
C605 C606 1.388 . S
C606 H593 0.930 . S
C606 C605 1.388 . S
C606 C607 1.390 . S
C607 C606 1.390 . S
C607 C608 1.394 . S
C607 C613 1.465 . S
C608 C603 1.399 . S
C608 C607 1.394 . S
C608 C609 1.516 . S
C609 C608 1.516 . S
C609 C610 1.502 . S
C609 C611 1.561 . S
C609 C612 1.526 . S
C610 H594 0.959 . S
C610 H595 0.959 . S
C610 H596 0.961 . S
C610 C609 1.502 . S
C611 H597 0.960 . S
C611 H598 0.961 . S
C611 H599 0.959 . S
C611 C609 1.561 . S
C612 C609 1.526 . S
C612 C613 1.396 . S
C612 C617 1.390 . S
C613 C607 1.465 . S
C613 C612 1.396 . S
C613 C614 1.399 . S
C614 H600 0.929 . S
C614 C613 1.399 . S
C614 C615 1.385 . S
C615 H601 0.931 . S
C615 C614 1.385 . S
C615 C616 1.389 . S
C616 C615 1.389 . S
C616 C617 1.387 . S
C617 H602 0.930 . S
C617 C612 1.390 . S
C617 C616 1.387 . S
H618 C630 0.930 . S
H619 C632 0.930 . S
H620 C633 0.930 . S
H621 C637 0.959 . S
H622 C637 0.959 1_565 S
H623 C637 0.961 . S
H624 C638 0.960 . S
H625 C638 0.961 . S
H626 C638 0.959 . S
H627 C641 0.929 . S
H628 C642 0.931 . S
H629 C644 0.930 . S
C630 H618 0.930 . S
C630 C631 1.399 . S
C630 C635 1.399 . S
C631 C630 1.399 . S
C631 C632 1.376 . S
C632 H619 0.930 . S
C632 C631 1.376 . S
C632 C633 1.388 . S
C633 H620 0.930 . S
C633 C632 1.388 . S
C633 C634 1.390 . S
C634 C633 1.390 . S
C634 C635 1.394 . S
C634 C640 1.465 . S
C635 C630 1.399 . S
C635 C634 1.394 . S
C635 C636 1.516 . S
C636 C635 1.516 . S
C636 C637 1.502 . S
C636 C638 1.561 . S
C636 C639 1.526 . S
C637 H621 0.959 . S
C637 H622 0.959 1_545 S
C637 H623 0.961 . S
C637 C636 1.502 . S
C638 H624 0.960 . S
C638 H625 0.961 . S
C638 H626 0.959 . S
C638 C636 1.561 . S
C639 C636 1.526 . S
C639 C640 1.396 . S
C639 C644 1.390 . S
C640 C634 1.465 . S
C640 C639 1.396 . S
C640 C641 1.399 . S
C641 H627 0.929 . S
C641 C640 1.399 . S
C641 C642 1.385 . S
C642 H628 0.931 . S
C642 C641 1.385 . S
C642 C643 1.389 . S
C643 C642 1.389 . S
C643 C644 1.387 . S
C644 H629 0.930 . S
C644 C639 1.390 . S
C644 C643 1.387 . S
H645 C657 0.930 . S
H646 C659 0.930 . S
H647 C660 0.930 . S
H648 C664 0.959 . S
H649 C664 0.959 1_545 S
H650 C664 0.961 1_545 S
H651 C665 0.960 . S
H652 C665 0.961 . S
H653 C665 0.959 1_565 S
H654 C668 0.929 . S
H655 C669 0.931 . S
H656 C671 0.930 . S
C657 H645 0.930 . S
C657 C658 1.399 . S
C657 C662 1.399 . S
C658 C657 1.399 . S
C658 C659 1.376 . S
C659 H646 0.930 . S
C659 C658 1.376 . S
C659 C660 1.388 . S
C660 H647 0.930 . S
C660 C659 1.388 . S
C660 C661 1.390 . S
C661 C660 1.390 . S
C661 C662 1.394 . S
C661 C667 1.465 . S
C662 C657 1.399 . S
C662 C661 1.394 . S
C662 C663 1.516 . S
C663 C662 1.516 . S
C663 C664 1.502 . S
C663 C665 1.561 1_565 S
C663 C666 1.526 . S
C664 H648 0.959 . S
C664 H649 0.959 1_565 S
C664 H650 0.961 1_565 S
C664 C663 1.502 . S
C665 H651 0.960 . S
C665 H652 0.961 . S
C665 H653 0.959 1_545 S
C665 C663 1.561 1_545 S
C666 C663 1.526 . S
C666 C667 1.396 . S
C666 C671 1.390 . S
C667 C661 1.465 . S
C667 C666 1.396 . S
C667 C668 1.399 . S
C668 H654 0.929 . S
C668 C667 1.399 . S
C668 C669 1.385 . S
C669 H655 0.931 . S
C669 C668 1.385 . S
C669 C670 1.389 . S
C670 C669 1.389 . S
C670 C671 1.387 . S
C671 H656 0.930 . S
C671 C666 1.390 . S
C671 C670 1.387 . S
H672 C684 0.930 . S
H673 C686 0.930 . S
H674 C687 0.930 . S
H675 C691 0.959 . S
H676 C691 0.959 . S
H677 C691 0.961 . S
H678 C692 0.960 . S
H679 C692 0.961 . S
H680 C692 0.959 1_455 S
H681 C695 0.929 . S
H682 C696 0.931 . S
H683 C698 0.930 . S
C684 H672 0.930 . S
C684 C685 1.397 1_655 S
C684 C689 1.399 1_655 S
C685 C684 1.397 1_455 S
C685 C686 1.383 . S
C686 H673 0.930 . S
C686 C685 1.383 . S
C686 C687 1.388 . S
C687 H674 0.930 . S
C687 C686 1.388 . S
C687 C688 1.390 . S
C688 C687 1.390 . S
C688 C689 1.394 . S
C688 C694 1.465 . S
C689 C684 1.399 1_455 S
C689 C688 1.394 . S
C689 C690 1.516 1_455 S
C690 C689 1.516 1_655 S
C690 C691 1.502 . S
C690 C692 1.561 . S
C690 C693 1.526 1_655 S
C691 H675 0.959 . S
C691 H676 0.959 . S
C691 H677 0.961 . S
C691 C690 1.502 . S
C692 H678 0.960 . S
C692 H679 0.961 . S
C692 H680 0.959 1_655 S
C692 C690 1.561 . S
C693 C690 1.526 1_455 S
C693 C694 1.396 . S
C693 C698 1.390 . S
C694 C688 1.465 . S
C694 C693 1.396 . S
C694 C695 1.399 . S
C695 H681 0.929 . S
C695 C694 1.399 . S
C695 C696 1.385 . S
C696 H682 0.931 . S
C696 C695 1.385 . S
C696 C697 1.389 . S
C697 C696 1.389 . S
C697 C698 1.387 . S
C698 H683 0.930 . S
C698 C693 1.390 . S
C698 C697 1.387 . S
H699 C711 0.930 . S
H700 C713 0.930 . S
H701 C714 0.930 . S
H702 C718 0.959 . S
H703 C718 0.959 . S
H704 C718 0.961 . S
H705 C719 0.960 . S
H706 C719 0.961 . S
H707 C719 0.959 . S
H708 C722 0.929 . S
H709 C723 0.931 . S
H710 C725 0.930 1_565 S
C711 H699 0.930 . S
C711 C712 1.405 . S
C711 C716 1.399 . S
C712 C711 1.405 . S
C712 C713 1.366 1_565 S
C713 H700 0.930 . S
C713 C712 1.366 1_545 S
C713 C714 1.388 . S
C714 H701 0.930 . S
C714 C713 1.388 . S
C714 C715 1.390 . S
C715 C714 1.390 . S
C715 C716 1.394 1_545 S
C715 C721 1.465 . S
C716 C711 1.399 . S
C716 C715 1.394 1_565 S
C716 C717 1.516 . S
C717 C716 1.516 . S
C717 C718 1.502 . S
C717 C719 1.561 . S
C717 C720 1.526 1_565 S
C718 H702 0.959 . S
C718 H703 0.959 . S
C718 H704 0.961 . S
C718 C717 1.502 . S
C719 H705 0.960 . S
C719 H706 0.961 . S
C719 H707 0.959 . S
C719 C717 1.561 . S
C720 C717 1.526 1_545 S
C720 C721 1.396 . S
C720 C725 1.390 . S
C721 C715 1.465 . S
C721 C720 1.396 . S
C721 C722 1.399 . S
C722 H708 0.929 . S
C722 C721 1.399 . S
C722 C723 1.385 . S
C723 H709 0.931 . S
C723 C722 1.385 . S
C723 C724 1.389 . S
C724 C723 1.389 . S
C724 C725 1.387 . S
C725 H710 0.930 1_545 S
C725 C720 1.390 . S
C725 C724 1.387 . S
C253 C129 0.494 . S
C265 C9 0.687 . S
C280 C169 0.504 . S
C292 C49 0.665 . S
C307 C209 0.492 . S
C319 C89 0.690 . S
C334 C15 0.638 . S
C346 C86 0.834 . S
C361 C55 0.862 . S
C373 C126 0.718 . S
C388 C95 0.677 . S
C400 C166 0.787 . S
C415 C135 0.788 . S
C427 C206 0.806 1_655 S
C442 C175 0.846 . S
C454 C6 0.745 1_565 S
C469 C215 0.656 . S
C481 C46 0.872 . S
C496 C18 1.195 . S
C508 C138 1.213 . S
C523 C58 1.198 . S
C535 C178 1.208 . S
C550 C98 1.197 1_455 S
C562 C218 1.220 . S
C577 C10 4.060 . S
C589 C59 4.101 . S
C604 C50 4.036 . S
C616 C99 4.107 . S
C631 C90 4.050 . S
C643 C139 4.108 . S
C658 C130 4.059 . S
C670 C179 4.101 . S
C685 C170 4.035 1_455 S
C697 C219 4.106 . S
C712 C210 4.052 . S
C724 C19 4.101 . S
