# Generated by pormake.
# Topology umw, (4)-cn, num edge types: 1
# Building blocks:
#     Node 0, Type 0, BuildingBlock: AZAVOO_clean_sbu_0, # of connection points: 4
#     Node 1, Type 0, BuildingBlock: AZAVOO_clean_sbu_0, # of connection points: 4
#     Node 2, Type 0, BuildingBlock: AZAVOO_clean_sbu_0, # of connection points: 4
#     Node 3, Type 0, BuildingBlock: AZAVOO_clean_sbu_0, # of connection points: 4
#     Node 4, Type 0, BuildingBlock: AZAVOO_clean_sbu_0, # of connection points: 4
#     Node 5, Type 0, BuildingBlock: AZAVOO_clean_sbu_0, # of connection points: 4
#     Node 6, Type 0, BuildingBlock: AZAVOO_clean_sbu_0, # of connection points: 4
#     Node 7, Type 0, BuildingBlock: AZAVOO_clean_sbu_0, # of connection points: 4
#     Edge 8, Type (0, 0), BuildingBlock: MIFKUJ_clean_linker_0, # of connection points: 2
#     Edge 9, Type (0, 0), BuildingBlock: MIFKUJ_clean_linker_0, # of connection points: 2
#     Edge 10, Type (0, 0), BuildingBlock: MIFKUJ_clean_linker_0, # of connection points: 2
#     Edge 11, Type (0, 0), BuildingBlock: MIFKUJ_clean_linker_0, # of connection points: 2
#     Edge 12, Type (0, 0), BuildingBlock: MIFKUJ_clean_linker_0, # of connection points: 2
#     Edge 13, Type (0, 0), BuildingBlock: MIFKUJ_clean_linker_0, # of connection points: 2
#     Edge 14, Type (0, 0), BuildingBlock: MIFKUJ_clean_linker_0, # of connection points: 2
#     Edge 15, Type (0, 0), BuildingBlock: MIFKUJ_clean_linker_0, # of connection points: 2
#     Edge 16, Type (0, 0), BuildingBlock: MIFKUJ_clean_linker_0, # of connection points: 2
#     Edge 17, Type (0, 0), BuildingBlock: MIFKUJ_clean_linker_0, # of connection points: 2
#     Edge 18, Type (0, 0), BuildingBlock: MIFKUJ_clean_linker_0, # of connection points: 2
#     Edge 19, Type (0, 0), BuildingBlock: MIFKUJ_clean_linker_0, # of connection points: 2
#     Edge 20, Type (0, 0), BuildingBlock: MIFKUJ_clean_linker_0, # of connection points: 2
#     Edge 21, Type (0, 0), BuildingBlock: MIFKUJ_clean_linker_0, # of connection points: 2
#     Edge 22, Type (0, 0), BuildingBlock: MIFKUJ_clean_linker_0, # of connection points: 2
#     Edge 23, Type (0, 0), BuildingBlock: MIFKUJ_clean_linker_0, # of connection points: 2
# Relax obj value: 0.148
# Max RMSD: 0.118
# Mean RMSD: 0.118
data_MOF--net-umw--node1-AZAVOO_clean_sbu_0--edge1-MIFKUJ_clean_linker_0
_symmetry_space_group_name_H-M    P1
_symmetry_Int_Tables_number       1
_symmetry_cell_setting            triclinic
loop_
_symmetry_equiv_pos_as_xyz
'x, y, z'
_cell_length_a     57.060497
_cell_length_b     57.372147
_cell_length_c     30.429636
_cell_angle_alpha  90.037543
_cell_angle_beta   90.107452
_cell_angle_gamma 89.755259
loop_
_atom_site_label
_atom_site_type_symbol
_atom_site_fract_x
_atom_site_fract_y
_atom_site_fract_z
_atom_type_partial_charge
Mg0 Mg 0.38621 0.15914 0.24537 0.0
O1 O 0.41153 0.15462 0.30388 0.0
O2 O 0.44031 0.13044 0.28312 0.0
Mg3 Mg 0.43355 0.11934 0.21258 0.0
C4 C 0.43055 0.14352 0.31171 0.0
C5 C 0.35922 0.18588 0.3172 0.0
O6 O 0.36078 0.16483 0.33397 0.0
O7 O 0.4125 0.18299 0.21122 0.0
O8 O 0.44028 0.15719 0.19234 0.0
O9 O 0.36566 0.12834 0.26717 0.0
O10 O 0.39584 0.12606 0.2221 0.0
C11 C 0.43217 0.17796 0.19364 0.0
C12 C 0.38013 0.11552 0.24501 0.0
O13 O 0.36865 0.18984 0.28014 0.0
Mg14 Mg 0.82181 0.38661 0.49653 0.0
O15 O 0.82679 0.41146 0.55529 0.0
O16 O 0.85488 0.43686 0.53758 0.0
Mg17 Mg 0.86584 0.43016 0.46678 0.0
C18 C 0.84006 0.42865 0.56476 0.0
C19 C 0.78253 0.35164 0.51361 0.0
O20 O 0.79358 0.34265 0.47971 0.0
O21 O 0.8002 0.41447 0.46082 0.0
O22 O 0.82868 0.43944 0.44359 0.0
O23 O 0.85146 0.36427 0.52074 0.0
O24 O 0.85575 0.39362 0.47471 0.0
C25 C 0.80716 0.43336 0.44298 0.0
C26 C 0.86528 0.37762 0.49847 0.0
O27 O 0.78946 0.37106 0.52887 0.0
Mg28 Mg 0.59866 0.82396 0.7579 0.0
O29 O 0.57161 0.82552 0.81386 0.0
O30 O 0.54261 0.84949 0.79316 0.0
Mg31 Mg 0.5511 0.86341 0.72491 0.0
C32 C 0.55204 0.83574 0.82106 0.0
C33 C 0.63852 0.79322 0.79222 0.0
O34 O 0.6494 0.81136 0.77573 0.0
O35 O 0.57455 0.8007 0.7171 0.0
O36 O 0.54663 0.8263 0.69807 0.0
O37 O 0.61688 0.85485 0.78659 0.0
O38 O 0.5886 0.85718 0.73714 0.0
C39 C 0.55546 0.8058 0.69732 0.0
C40 C 0.60284 0.86766 0.76331 0.0
O41 O 0.6163 0.79255 0.79005 0.0
Mg42 Mg 0.16441 0.59396 -0.00305 0.0
O43 O 0.16094 0.56469 0.04857 0.0
O44 O 0.13526 0.5389 0.02195 0.0
Mg45 Mg 0.12292 0.5509 0.9545 0.0
C46 C 0.14926 0.54579 0.05199 0.0
C47 C 0.19564 0.63137 0.03228 0.0
O48 O 0.17806 0.64204 0.01274 0.0
O49 O 0.18731 0.57053 0.95401 0.0
O50 O 0.16046 0.54532 0.92947 0.0
O51 O 0.13405 0.6126 0.02699 0.0
O52 O 0.13091 0.58689 0.97328 0.0
C53 C 0.18153 0.55275 0.93126 0.0
C54 C 0.1208 0.60049 0.00114 0.0
O55 O 0.19605 0.60922 0.03225 0.0
Mg56 Mg 0.38382 0.82245 0.29392 0.0
O57 O 0.41123 0.82433 0.23868 0.0
O58 O 0.44019 0.84742 0.26235 0.0
Mg59 Mg 0.43052 0.86199 0.32981 0.0
C60 C 0.43109 0.83415 0.2333 0.0
C61 C 0.34591 0.79309 0.24834 0.0
O62 O 0.33522 0.81318 0.25416 0.0
O63 O 0.40818 0.79926 0.33457 0.0
O64 O 0.4345 0.82522 0.35862 0.0
O65 O 0.36469 0.85307 0.26573 0.0
O66 O 0.39352 0.85587 0.31396 0.0
C67 C 0.42619 0.80461 0.35725 0.0
C68 C 0.37887 0.86605 0.28801 0.0
O69 O 0.36691 0.79078 0.26169 0.0
Mg70 Mg 0.16072 0.38306 0.53509 0.0
O71 O 0.15642 0.40666 0.47408 0.0
O72 O 0.13061 0.4346 0.49135 0.0
Mg73 Mg 0.11953 0.43 0.56245 0.0
C74 C 0.14442 0.42477 0.46402 0.0
C75 C 0.19688 0.34474 0.51845 0.0
O76 O 0.18373 0.33616 0.5499 0.0
O77 O 0.18386 0.41034 0.5679 0.0
O78 O 0.15739 0.43811 0.58312 0.0
O79 O 0.1301 0.36169 0.51393 0.0
O80 O 0.12734 0.39257 0.55696 0.0
C81 C 0.17839 0.4303 0.58336 0.0
C82 C 0.117 0.3763 0.53522 0.0
O83 O 0.19228 0.36504 0.50405 0.0
Mg84 Mg 0.59697 0.1621 0.78659 0.0
O85 O 0.56895 0.15971 0.73235 0.0
O86 O 0.54011 0.13681 0.75667 0.0
Mg87 Mg 0.54971 0.12429 0.82542 0.0
C88 C 0.54916 0.14974 0.72717 0.0
C89 C 0.6365 0.19202 0.7488 0.0
O90 O 0.64785 0.17451 0.76692 0.0
O91 O 0.57369 0.1867 0.8265 0.0
O92 O 0.54587 0.16209 0.8491 0.0
O93 O 0.6145 0.13029 0.75966 0.0
O94 O 0.58703 0.12958 0.81066 0.0
C95 C 0.55483 0.18244 0.84747 0.0
C96 C 0.6008 0.11827 0.78474 0.0
O97 O 0.61427 0.19246 0.75106 0.0
Mg98 Mg 0.82566 0.59441 0.04065 0.0
O99 O 0.82928 0.5672 0.98517 0.0
O100 O 0.85697 0.54162 0.00568 0.0
Mg101 Mg 0.86837 0.55008 0.07563 0.0
C102 C 0.84214 0.54932 0.97775 0.0
C103 C 0.79644 0.63205 -0.00357 0.0
O104 O 0.81653 0.64207 0.00552 0.0
O105 O 0.80319 0.56893 0.08006 0.0
O106 O 0.83092 0.54333 0.0997 0.0
O107 O 0.85622 0.61413 0.01326 0.0
O108 O 0.85948 0.58656 0.06326 0.0
C109 C 0.80963 0.55034 0.09988 0.0
C110 C 0.86954 0.60111 0.03742 0.0
O111 O 0.79366 0.6108 0.00702 0.0
H112 H 0.41072 0.1565 0.39 0.0
H113 H 0.43021 0.15985 0.46146 0.0
H114 H 0.49617 0.14105 0.4015 0.0
H115 H 0.47663 0.13663 0.33078 0.0
H116 H 0.49295 0.11888 0.47271 0.0
H117 H 0.48132 0.19882 0.43434 0.0
H118 H 0.45919 0.23375 0.4113 0.0
H119 H 0.41652 0.22915 0.52701 0.0
H120 H 0.43824 0.19399 0.55053 0.0
H121 H 0.56745 0.15898 0.64616 0.0
H122 H 0.54632 0.16062 0.57594 0.0
H123 H 0.48101 0.1494 0.64352 0.0
H124 H 0.50201 0.14709 0.71369 0.0
H125 H 0.48382 0.18761 0.5704 0.0
H126 H 0.49741 0.10542 0.60476 0.0
H127 H 0.52282 0.07236 0.62574 0.0
H128 H 0.56599 0.08438 0.51262 0.0
H129 H 0.541 0.11777 0.49137 0.0
C130 C 0.42938 0.15314 0.39215 0.0
C131 C 0.44213 0.14623 0.35486 0.0
C132 C 0.44055 0.15519 0.43294 0.0
C133 C 0.46476 0.15099 0.43687 0.0
C134 C 0.47748 0.1443 0.39946 0.0
C135 C 0.46628 0.1418 0.35899 0.0
C136 C 0.47686 0.15279 0.48004 0.0
C137 C 0.49111 0.13409 0.49364 0.0
C138 C 0.47434 0.17247 0.50788 0.0
C139 C 0.46126 0.19363 0.49398 0.0
C140 C 0.46711 0.20515 0.45473 0.0
C141 C 0.45466 0.22501 0.44161 0.0
C142 C 0.43643 0.23363 0.46763 0.0
C143 C 0.43064 0.22243 0.50688 0.0
C144 C 0.44303 0.20255 0.52015 0.0
C145 C 0.54857 0.15712 0.64609 0.0
C146 C 0.53638 0.15275 0.6853 0.0
C147 C 0.53656 0.15808 0.60605 0.0
C148 C 0.51217 0.15515 0.60481 0.0
C149 C 0.49983 0.15178 0.64403 0.0
C150 C 0.51187 0.15032 0.68394 0.0
C151 C 0.49978 0.15385 0.56227 0.0
C152 C 0.48553 0.17254 0.54907 0.0
C153 C 0.50265 0.13443 0.53427 0.0
C154 C 0.51751 0.11424 0.54679 0.0
C155 C 0.51245 0.10115 0.58461 0.0
C156 C 0.52675 0.08233 0.5965 0.0
C157 C 0.54605 0.07632 0.57061 0.0
C158 C 0.55105 0.08908 0.53269 0.0
C159 C 0.53683 0.10795 0.5207 0.0
H160 H 0.5571 0.06174 0.57986 0.0
H161 H 0.42685 0.24903 0.45742 0.0
H162 H 0.87425 0.45184 0.60904 0.0
H163 H 0.8714 0.47077 0.6809 0.0
H164 H 0.79916 0.44982 0.69104 0.0
H165 H 0.80198 0.43024 0.61935 0.0
H166 H 0.81354 0.50196 0.70799 0.0
H167 H 0.8278 0.42158 0.75145 0.0
H168 H 0.8494 0.38434 0.7466 0.0
H169 H 0.91318 0.41899 0.78256 0.0
H170 H 0.89198 0.4565 0.78716 0.0
H171 H 0.80275 0.54283 0.92802 0.0
H172 H 0.79945 0.52071 0.85944 0.0
H173 H 0.87398 0.50722 0.86238 0.0
H174 H 0.87694 0.52792 0.9322 0.0
H175 H 0.85496 0.47034 0.83863 0.0
H176 H 0.84509 0.54964 0.79191 0.0
H177 H 0.82758 0.58901 0.79095 0.0
H178 H 0.76093 0.56009 0.7551 0.0
H179 H 0.778 0.5205 0.75638 0.0
C180 C 0.85775 0.45122 0.62655 0.0
C181 C 0.83832 0.43959 0.60861 0.0
C182 C 0.85618 0.46201 0.66755 0.0
C183 C 0.83507 0.46168 0.69098 0.0
C184 C 0.81556 0.45023 0.67321 0.0
C185 C 0.81725 0.43899 0.6325 0.0
C186 C 0.83365 0.47337 0.73414 0.0
C187 C 0.82217 0.49495 0.73695 0.0
C188 C 0.84567 0.46447 0.77109 0.0
C189 C 0.85833 0.44186 0.76935 0.0
C190 C 0.84645 0.42128 0.75807 0.0
C191 C 0.85862 0.40012 0.75543 0.0
C192 C 0.88265 0.3993 0.76421 0.0
C193 C 0.89456 0.41964 0.7758 0.0
C194 C 0.88247 0.44085 0.77851 0.0
C195 C 0.81839 0.53516 0.91382 0.0
C196 C 0.8401 0.53707 0.93528 0.0
C197 C 0.81653 0.52262 0.87451 0.0
C198 C 0.83652 0.51251 0.85514 0.0
C199 C 0.85824 0.51469 0.87657 0.0
C200 C 0.85996 0.52662 0.9164 0.0
C201 C 0.83498 0.49939 0.81297 0.0
C202 C 0.84601 0.47746 0.81013 0.0
C203 C 0.82306 0.50832 0.7756 0.0
C204 C 0.81276 0.5321 0.77474 0.0
C205 C 0.82666 0.55167 0.78414 0.0
C206 C 0.81682 0.57402 0.78348 0.0
C207 C 0.79314 0.57704 0.77311 0.0
C208 C 0.77926 0.55772 0.76322 0.0
C209 C 0.78901 0.53532 0.76387 0.0
H210 H 0.78555 0.59437 0.77262 0.0
H211 H 0.89204 0.38291 0.7621 0.0
H212 H 0.47823 0.83603 0.22032 0.0
H213 H 0.49934 0.83261 0.15093 0.0
H214 H 0.4339 0.82215 0.08238 0.0
H215 H 0.41281 0.82436 0.15227 0.0
H216 H 0.46489 0.79588 0.04676 0.0
H217 H 0.46317 0.87641 0.08557 0.0
H218 H 0.46866 0.911 0.13257 0.0
H219 H 0.54271 0.89763 0.13783 0.0
H220 H 0.53762 0.86276 0.09133 0.0
H221 H 0.50531 0.83984 0.83797 0.0
H222 H 0.48553 0.83556 0.90884 0.0
H223 H 0.55168 0.81975 0.97091 0.0
H224 H 0.5716 0.82341 0.89984 0.0
H225 H 0.52123 0.85837 0.00902 0.0
H226 H 0.5203 0.77753 0.96365 0.0
H227 H 0.51197 0.74551 0.91191 0.0
H228 H 0.43882 0.76339 0.91324 0.0
H229 H 0.44677 0.79576 0.9645 0.0
C230 C 0.46836 0.83285 0.19047 0.0
C231 C 0.44386 0.83068 0.1916 0.0
C232 C 0.48043 0.83102 0.15077 0.0
C233 C 0.46819 0.82773 0.11116 0.0
C234 C 0.44376 0.8248 0.11242 0.0
C235 C 0.4317 0.8261 0.15235 0.0
C236 C 0.48082 0.82793 0.06844 0.0
C237 C 0.47702 0.80969 0.03845 0.0
C238 C 0.49682 0.84585 0.05744 0.0
C239 C 0.49997 0.86684 0.08535 0.0
C240 C 0.4806 0.88075 0.09702 0.0
C241 C 0.48364 0.90042 0.12353 0.0
C242 C 0.50601 0.90647 0.13828 0.0
C243 C 0.52539 0.8929 0.12644 0.0
C244 C 0.52244 0.87319 0.09998 0.0
C245 C 0.51563 0.83527 0.86664 0.0
C246 C 0.54001 0.83199 0.86342 0.0
C247 C 0.50429 0.83276 0.90698 0.0
C248 C 0.51719 0.82731 0.94487 0.0
C249 C 0.54149 0.8239 0.94185 0.0
C250 C 0.55279 0.82593 0.9013 0.0
C251 C 0.50535 0.82632 0.98796 0.0
C252 C 0.50921 0.84452 0.01776 0.0
C253 C 0.48899 0.80874 -0.0018 0.0
C254 C 0.48418 0.78922 0.96756 0.0
C255 C 0.50247 0.77478 0.95258 0.0
C256 C 0.49781 0.75654 0.92341 0.0
C257 C 0.47489 0.75246 0.9092 0.0
C258 C 0.45657 0.76659 0.92423 0.0
C259 C 0.46114 0.78487 0.95337 0.0
H260 H 0.47132 0.73832 0.88662 0.0
H261 H 0.50833 0.92171 0.15879 0.0
H262 H 0.12074 0.46234 0.43103 0.0
H263 H 0.12416 0.47969 0.35845 0.0
H264 H 0.17618 0.42832 0.32294 0.0
H265 H 0.17311 0.41081 0.3962 0.0
H266 H 0.1886 0.4719 0.29578 0.0
H267 H 0.12208 0.4227 0.28391 0.0
H268 H 0.0842 0.40582 0.30563 0.0
H269 H 0.05123 0.47291 0.29326 0.0
H270 H 0.08904 0.4903 0.27206 0.0
H271 H 0.13474 0.50098 0.06372 0.0
H272 H 0.13709 0.47747 0.13021 0.0
H273 H 0.17068 0.53433 0.19818 0.0
H274 H 0.169 0.55782 0.13115 0.0
H275 H 0.11714 0.48309 0.20491 0.0
H276 H 0.20548 0.5139 0.27991 0.0
H277 H 0.24422 0.5273 0.2547 0.0
H278 H 0.23519 0.49021 0.13327 0.0
H279 H 0.19655 0.47635 0.15797 0.0
C280 C 0.13294 0.45462 0.40795 0.0
C281 C 0.14658 0.43506 0.41951 0.0
C282 C 0.13481 0.46457 0.36634 0.0
C283 C 0.15023 0.45515 0.33515 0.0
C284 C 0.16414 0.43583 0.34657 0.0
C285 C 0.16228 0.4258 0.38836 0.0
C286 C 0.15152 0.46556 0.29065 0.0
C287 C 0.17303 0.47428 0.27574 0.0
C288 C 0.13128 0.4682 0.26417 0.0
C289 C 0.10845 0.45784 0.2767 0.0
C290 C 0.10679 0.4339 0.28612 0.0
C291 C 0.08532 0.42423 0.2983 0.0
C292 C 0.06532 0.43828 0.30089 0.0
C293 C 0.06675 0.46205 0.29125 0.0
C294 C 0.08819 0.47181 0.2791 0.0
C295 C 0.1428 0.50849 0.09269 0.0
C296 C 0.15165 0.53133 0.09211 0.0
C297 C 0.1441 0.49499 0.13074 0.0
C298 C 0.15418 0.50403 0.16919 0.0
C299 C 0.1632 0.52679 0.16871 0.0
C300 C 0.16213 0.54026 0.13041 0.0
C301 C 0.15415 0.48999 0.21022 0.0
C302 C 0.13281 0.48061 0.22462 0.0
C303 C 0.17466 0.48627 0.23561 0.0
C304 C 0.19802 0.49427 0.22067 0.0
C305 C 0.21181 0.50853 0.24792 0.0
C306 C 0.23374 0.51622 0.23369 0.0
C307 C 0.24213 0.50967 0.19236 0.0
C308 C 0.22864 0.49535 0.16521 0.0
C309 C 0.2067 0.4876 0.17929 0.0
H310 H 0.2591 0.51566 0.1814 0.0
H311 H 0.0487 0.43076 0.31029 0.0
H312 H 0.35516 0.23224 0.2962 0.0
H313 H 0.3298 0.26138 0.33128 0.0
H314 H 0.30602 0.20963 0.42353 0.0
H315 H 0.33132 0.18052 0.38904 0.0
H316 H 0.26969 0.2336 0.3833 0.0
H317 H 0.3415 0.2502 0.45897 0.0
H318 H 0.38346 0.25968 0.46496 0.0
H319 H 0.37174 0.3237 0.39509 0.0
H320 H 0.32967 0.31446 0.3883 0.0
H321 H 0.20893 0.30009 0.53943 0.0
H322 H 0.23856 0.2755 0.50478 0.0
H323 H 0.25745 0.33197 0.41855 0.0
H324 H 0.22775 0.3569 0.45328 0.0
H325 H 0.29649 0.30741 0.45168 0.0
H326 H 0.22384 0.29098 0.37899 0.0
H327 H 0.18191 0.28102 0.37443 0.0
H328 H 0.19547 0.21592 0.43939 0.0
H329 H 0.23745 0.22564 0.44491 0.0
C330 C 0.34468 0.22712 0.32419 0.0
C331 C 0.34519 0.20404 0.33974 0.0
C332 C 0.33026 0.2438 0.34425 0.0
C333 C 0.31606 0.23763 0.37998 0.0
C334 C 0.31682 0.21471 0.39592 0.0
C335 C 0.33135 0.19812 0.37622 0.0
C336 C 0.29958 0.25469 0.39968 0.0
C337 C 0.27557 0.24962 0.39866 0.0
C338 C 0.30725 0.27586 0.41862 0.0
C339 C 0.3325 0.28151 0.42266 0.0
C340 C 0.3479 0.2662 0.44452 0.0
C341 C 0.3717 0.27155 0.44814 0.0
C342 C 0.3803 0.29224 0.43025 0.0
C343 C 0.36507 0.30766 0.40885 0.0
C344 C 0.34124 0.30239 0.40516 0.0
C345 C 0.21944 0.30739 0.51327 0.0
C346 C 0.21583 0.33042 0.49888 0.0
C347 C 0.23636 0.29328 0.49346 0.0
C348 C 0.24999 0.30184 0.45877 0.0
C349 C 0.24705 0.32504 0.44523 0.0
C350 C 0.23002 0.33921 0.46499 0.0
C351 C 0.26664 0.28612 0.4358 0.0
C352 C 0.29063 0.29146 0.43607 0.0
C353 C 0.25899 0.26511 0.41617 0.0
C354 C 0.23376 0.25914 0.4127 0.0
C355 C 0.21785 0.27462 0.39261 0.0
C356 C 0.19408 0.26901 0.3898 0.0
C357 C 0.18602 0.24787 0.4067 0.0
C358 C 0.20174 0.23229 0.42635 0.0
C359 C 0.22552 0.23784 0.42929 0.0
H360 H 0.16761 0.24355 0.40449 0.0
H361 H 0.39873 0.29634 0.43307 0.0
H362 H 0.75718 0.36404 0.58663 0.0
H363 H 0.72879 0.34017 0.62645 0.0
H364 H 0.73763 0.28508 0.53128 0.0
H365 H 0.76558 0.3089 0.49094 0.0
H366 H 0.69285 0.28859 0.55418 0.0
H367 H 0.76742 0.28453 0.62916 0.0
H368 H 0.802 0.30078 0.66686 0.0
H369 H 0.75754 0.33113 0.76539 0.0
H370 H 0.72266 0.31529 0.7279 0.0
H371 H 0.68366 0.19459 0.73555 0.0
H372 H 0.70527 0.2245 0.69599 0.0
H373 H 0.64079 0.26174 0.67078 0.0
H374 H 0.61889 0.23153 0.70977 0.0
H375 H 0.71141 0.26951 0.70944 0.0
H376 H 0.64545 0.28879 0.57028 0.0
H377 H 0.61348 0.26927 0.53 0.0
H378 H 0.64512 0.20261 0.55577 0.0
H379 H 0.67741 0.22175 0.59569 0.0
C380 C 0.75287 0.34695 0.57391 0.0
C381 C 0.76381 0.33829 0.53582 0.0
C382 C 0.73669 0.3333 0.59678 0.0
C383 C 0.73132 0.31071 0.58217 0.0
C384 C 0.7415 0.30245 0.54318 0.0
C385 C 0.75757 0.31608 0.52025 0.0
C386 C 0.71619 0.29505 0.60853 0.0
C387 C 0.69678 0.28458 0.58825 0.0
C388 C 0.72149 0.28953 0.6528 0.0
C389 C 0.74243 0.29896 0.67547 0.0
C390 C 0.76502 0.29481 0.65869 0.0
C391 C 0.78467 0.30392 0.68004 0.0
C392 C 0.78196 0.31704 0.71842 0.0
C393 C 0.7596 0.32101 0.7356 0.0
C394 C 0.73989 0.31196 0.71434 0.0
C395 C 0.67402 0.20913 0.72165 0.0
C396 C 0.64952 0.2106 0.72565 0.0
C397 C 0.68644 0.22629 0.69918 0.0
C398 C 0.67467 0.2453 0.68015 0.0
C399 C 0.65022 0.24707 0.6847 0.0
C400 C 0.63774 0.22982 0.70709 0.0
C401 C 0.68812 0.26293 0.65505 0.0
C402 C 0.70722 0.27381 0.6756 0.0
C403 C 0.68285 0.26839 0.61074 0.0
C404 C 0.66367 0.2567 0.58641 0.0
C405 C 0.6456 0.26997 0.56724 0.0
C406 C 0.62743 0.25898 0.54448 0.0
C407 C 0.62722 0.23471 0.54048 0.0
C408 C 0.64524 0.2214 0.55906 0.0
C409 C 0.66347 0.23231 0.58179 0.0
H410 H 0.61312 0.22623 0.52288 0.0
H411 H 0.7972 0.32408 0.7349 0.0
H412 H 0.80034 0.67466 0.95853 0.0
H413 H 0.76948 0.69868 0.92678 0.0
H414 H 0.71872 0.64521 0.95471 0.0
H415 H 0.74992 0.62058 0.98598 0.0
H416 H 0.71103 0.66469 0.87455 0.0
H417 H 0.72153 0.69288 0.02008 0.0
H418 H 0.7434 0.70644 0.08514 0.0
H419 H 0.76953 0.76466 0.01172 0.0
H420 H 0.74809 0.75127 0.94601 0.0
H421 H 0.6222 0.75209 0.82667 0.0
H422 H 0.6451 0.72162 0.86391 0.0
H423 H 0.70816 0.76137 0.84379 0.0
H424 H 0.68559 0.79174 0.80687 0.0
H425 H 0.70376 0.74603 0.92856 0.0
H426 H 0.69619 0.71437 0.78096 0.0
H427 H 0.67391 0.7004 0.71668 0.0
H428 H 0.64081 0.64844 0.7966 0.0
H429 H 0.66269 0.66233 0.86151 0.0
C430 C 0.78265 0.6679 0.95794 0.0
C431 C 0.77754 0.64579 0.97524 0.0
C432 C 0.76498 0.68172 0.93987 0.0
C433 C 0.74169 0.67398 0.93928 0.0
C434 C 0.73655 0.65159 0.95516 0.0
C435 C 0.75437 0.63757 0.97304 0.0
C436 C 0.72297 0.68967 0.92242 0.0
C437 C 0.70908 0.68232 0.88693 0.0
C438 C 0.72047 0.71273 0.93846 0.0
C439 C 0.73328 0.72098 0.97803 0.0
C440 C 0.73205 0.7085 0.01772 0.0
C441 C 0.74436 0.71617 0.05473 0.0
C442 C 0.75787 0.73638 0.05254 0.0
C443 C 0.75906 0.749 0.01336 0.0
C444 C 0.74679 0.7414 0.97624 0.0
C445 C 0.64096 0.75428 0.83009 0.0
C446 C 0.65207 0.77436 0.81384 0.0
C447 C 0.65401 0.73683 0.85124 0.0
C448 C 0.67833 0.73923 0.8565 0.0
C449 C 0.6894 0.75921 0.84019 0.0
C450 C 0.67645 0.77654 0.81896 0.0
C451 C 0.6925 0.72133 0.87971 0.0
C452 C 0.70545 0.72827 0.91663 0.0
C453 C 0.69394 0.69792 0.86519 0.0
C454 C 0.68085 0.68957 0.82617 0.0
C455 C 0.684 0.70011 0.7849 0.0
C456 C 0.67148 0.69217 0.74834 0.0
C457 C 0.65589 0.6736 0.75258 0.0
C458 C 0.65285 0.66286 0.79338 0.0
C459 C 0.66531 0.67075 0.83005 0.0
H460 H 0.64621 0.66747 0.72424 0.0
H461 H 0.7674 0.74229 0.08123 0.0
H462 H 0.23619 0.61566 0.07167 0.0
H463 H 0.26669 0.6393 0.10683 0.0
H464 H 0.2272 0.70169 0.07735 0.0
H465 H 0.19713 0.67843 0.0417 0.0
H466 H 0.27191 0.70775 0.05835 0.0
H467 H 0.2278 0.67632 0.181 0.0
H468 H 0.21157 0.64469 0.22644 0.0
H469 H 0.28094 0.61806 0.24967 0.0
H470 H 0.29755 0.6494 0.20389 0.0
H471 H 0.30382 0.79497 0.20627 0.0
H472 H 0.28358 0.76357 0.16809 0.0
H473 H 0.33963 0.71602 0.20103 0.0
H474 H 0.36024 0.74756 0.23946 0.0
H475 H 0.29377 0.69781 0.21515 0.0
H476 H 0.3378 0.73363 0.10077 0.0
H477 H 0.35317 0.76632 0.05705 0.0
H478 H 0.28317 0.7854 0.01903 0.0
H479 H 0.26734 0.75303 0.06307 0.0
C480 C 0.23406 0.63442 0.0727 0.0
C481 C 0.21424 0.64517 0.05389 0.0
C482 C 0.25146 0.64789 0.09289 0.0
C483 C 0.24917 0.67227 0.09491 0.0
C484 C 0.22942 0.68293 0.07601 0.0
C485 C 0.21217 0.66956 0.05574 0.0
C486 C 0.26708 0.68703 0.11664 0.0
C487 C 0.27663 0.70559 0.09267 0.0
C488 C 0.27386 0.68378 0.16102 0.0
C489 C 0.26388 0.66501 0.18859 0.0
C490 C 0.23957 0.6636 0.19551 0.0
C491 C 0.23031 0.64576 0.22138 0.0
C492 C 0.24521 0.62933 0.2408 0.0
C493 C 0.26942 0.63076 0.23452 0.0
C494 C 0.27876 0.64857 0.20864 0.0
C495 C 0.31191 0.77786 0.20551 0.0
C496 C 0.33369 0.77378 0.22578 0.0
C497 C 0.30033 0.75995 0.18353 0.0
C498 C 0.31024 0.73757 0.1814 0.0
C499 C 0.33177 0.73323 0.20223 0.0
C500 C 0.34352 0.75126 0.22401 0.0
C501 C 0.29781 0.71893 0.15721 0.0
C502 C 0.28939 0.69965 0.18061 0.0
C503 C 0.29193 0.72156 0.11232 0.0
C504 C 0.30138 0.74096 0.08546 0.0
C505 C 0.32567 0.74489 0.08334 0.0
C506 C 0.33446 0.76335 0.05846 0.0
C507 C 0.31915 0.77795 0.03533 0.0
C508 C 0.29501 0.77408 0.03696 0.0
C509 C 0.28612 0.75565 0.06183 0.0
H510 H 0.326 0.79223 0.01609 0.0
H511 H 0.23801 0.61552 0.26081 0.0
H512 H 0.34102 0.89436 0.27908 0.0
H513 H 0.34057 0.9368 0.2719 0.0
H514 H 0.41627 0.93729 0.27405 0.0
H515 H 0.41658 0.89501 0.28397 0.0
H516 H 0.40291 0.97114 0.31938 0.0
H517 H 0.3809 0.94499 0.17632 0.0
H518 H 0.35833 0.92317 0.12081 0.0
H519 H 0.29552 0.95925 0.15915 0.0
H520 H 0.31766 0.98108 0.21531 0.0
H521 H 0.41281 0.08374 0.21622 0.0
H522 H 0.4118 0.04142 0.22394 0.0
H523 H 0.3442 0.04629 0.28619 0.0
H524 H 0.3454 0.08887 0.28018 0.0
H525 H 0.3533 0.0108 0.20786 0.0
H526 H 0.37922 0.03678 0.35291 0.0
H527 H 0.40516 0.05956 0.4014 0.0
H528 H 0.46523 0.02382 0.34912 0.0
H529 H 0.43964 0.00109 0.29978 0.0
C530 C 0.35752 0.90361 0.27799 0.0
C531 C 0.37882 0.89153 0.28231 0.0
C532 C 0.35729 0.92785 0.27357 0.0
C533 C 0.37841 0.94036 0.27159 0.0
C534 C 0.39972 0.92815 0.27564 0.0
C535 C 0.39992 0.90398 0.28134 0.0
C536 C 0.3783 0.96616 0.2662 0.0
C537 C 0.39223 0.97966 0.29457 0.0
C538 C 0.36428 0.97756 0.23411 0.0
C539 C 0.3509 0.9645 0.20031 0.0
C540 C 0.36224 0.94815 0.17312 0.0
C541 C 0.34953 0.9358 0.14151 0.0
C542 C 0.32549 0.93978 0.13653 0.0
C543 C 0.31413 0.95617 0.16308 0.0
C544 C 0.32676 0.96855 0.19478 0.0
C545 C 0.39779 0.07596 0.23184 0.0
C546 C 0.37934 0.08978 0.2481 0.0
C547 C 0.39722 0.05173 0.23604 0.0
C548 C 0.37797 0.04088 0.25571 0.0
C549 C 0.3592 0.05447 0.27094 0.0
C550 C 0.35998 0.07875 0.2676 0.0
C551 C 0.37772 0.01532 0.26103 0.0
C552 C 0.36384 0.00202 0.23258 0.0
C553 C 0.39221 0.00406 0.29216 0.0
C554 C 0.40754 0.01743 0.32234 0.0
C555 C 0.39797 0.03393 0.35148 0.0
C556 C 0.41261 0.0468 0.37917 0.0
C557 C 0.43684 0.04319 0.37825 0.0
C558 C 0.44647 0.02663 0.34975 0.0
C559 C 0.4319 0.01373 0.32195 0.0
H560 H 0.44814 0.05318 0.39969 0.0
H561 H 0.31568 0.9302 0.11204 0.0
H562 H 0.89098 0.34809 0.5508 0.0
H563 H 0.93371 0.34597 0.55757 0.0
H564 H 0.94045 0.40146 0.46277 0.0
H565 H 0.89812 0.40277 0.45418 0.0
H566 H 0.97176 0.37124 0.44631 0.0
H567 H 0.94622 0.41023 0.57643 0.0
H568 H 0.92356 0.41572 0.64463 0.0
H569 H 0.95571 0.35465 0.70015 0.0
H570 H 0.97832 0.34859 0.63199 0.0
H571 H 0.08504 0.4053 0.57437 0.0
H572 H 0.04249 0.40418 0.56831 0.0
H573 H 0.04749 0.34255 0.48743 0.0
H574 H 0.09024 0.34423 0.49167 0.0
H575 H 0.01033 0.37573 0.59228 0.0
H576 H 0.00349 0.34172 0.4126 0.0
H577 H 0.02594 0.34342 0.34344 0.0
H578 H 0.05846 0.40698 0.38575 0.0
H579 H 0.0359 0.40589 0.4547 0.0
C580 C 0.9016 0.35977 0.53131 0.0
C581 C 0.89109 0.37588 0.50248 0.0
C582 C 0.92602 0.35864 0.53539 0.0
C583 C 0.94034 0.37382 0.51121 0.0
C584 C 0.92983 0.38959 0.4819 0.0
C585 C 0.90552 0.39051 0.47738 0.0
C586 C 0.96627 0.37349 0.51626 0.0
C587 C 0.98017 0.37212 0.47828 0.0
C588 C 0.97732 0.37521 0.55784 0.0
C589 C 0.96378 0.37881 0.59892 0.0
C590 C 0.94833 0.39786 0.60305 0.0
C591 C 0.93551 0.40109 0.64172 0.0
C592 C 0.93816 0.38551 0.67666 0.0
C593 C 0.95366 0.36669 0.67303 0.0
C594 C 0.96648 0.36335 0.6344 0.0
C595 C 0.07717 0.39166 0.55484 0.0
C596 C 0.0911 0.37514 0.53276 0.0
C597 C 0.05276 0.39089 0.5518 0.0
C598 C 0.04172 0.37347 0.52696 0.0
C599 C 0.05558 0.35647 0.50605 0.0
C600 C 0.08003 0.3574 0.50862 0.0
C601 C 0.01578 0.37343 0.52233 0.0
C602 C 0.0019 0.37467 0.56036 0.0
C603 C 0.00471 0.37262 0.48067 0.0
C604 C 0.0182 0.37354 0.43905 0.0
C605 C 0.01537 0.35609 0.40705 0.0
C606 C 0.0281 0.35696 0.36787 0.0
C607 C 0.04365 0.37526 0.36024 0.0
C608 C 0.04645 0.39279 0.39171 0.0
C609 C 0.0337 0.39204 0.43086 0.0
H610 H 0.05349 0.37588 0.32991 0.0
H611 H 0.92825 0.38806 0.70658 0.0
H612 H 0.62571 0.89443 0.82417 0.0
H613 H 0.62489 0.93696 0.83097 0.0
H614 H 0.57889 0.94135 0.71855 0.0
H615 H 0.5793 0.89897 0.71205 0.0
H616 H 0.63874 0.97062 0.7781 0.0
H617 H 0.54145 0.98666 0.72986 0.0
H618 H 0.50339 0.96665 0.73543 0.0
H619 H 0.52817 0.92839 0.84762 0.0
H620 H 0.56624 0.94842 0.84315 0.0
H621 H 0.62219 0.08968 0.72481 0.0
H622 H 0.62219 0.04704 0.72336 0.0
H623 H 0.57912 0.04604 0.83975 0.0
H624 H 0.57861 0.08859 0.84081 0.0
H625 H 0.56391 0.01488 0.78449 0.0
H626 H 0.63875 0.03485 0.84415 0.0
H627 H 0.67707 0.05451 0.84676 0.0
H628 H 0.69751 0.02036 0.72713 0.0
H629 H 0.65917 0.00072 0.7235 0.0
C630 C 0.61534 0.90447 0.80103 0.0
C631 C 0.60238 0.89332 0.76784 0.0
C632 C 0.61495 0.92877 0.80487 0.0
C633 C 0.60161 0.94234 0.7756 0.0
C634 C 0.58894 0.93124 0.74206 0.0
C635 C 0.58921 0.90698 0.73837 0.0
C636 C 0.60109 0.96813 0.77973 0.0
C637 C 0.62238 0.9803 0.77954 0.0
C638 C 0.57977 0.98076 0.78246 0.0
C639 C 0.55678 0.96889 0.78587 0.0
C640 C 0.53874 0.97406 0.75584 0.0
C641 C 0.51717 0.9627 0.75879 0.0
C642 C 0.51339 0.94621 0.79177 0.0
C643 C 0.53114 0.94111 0.822 0.0
C644 C 0.55273 0.95244 0.81924 0.0
C645 C 0.61266 0.08037 0.75001 0.0
C646 C 0.6004 0.0925 0.78292 0.0
C647 C 0.61277 0.05599 0.74927 0.0
C648 C 0.60091 0.04331 0.7818 0.0
C649 C 0.58838 0.05543 0.81429 0.0
C650 C 0.58812 0.07977 0.81485 0.0
C651 C 0.60156 0.01741 0.7821 0.0
C652 C 0.58028 0.00522 0.78306 0.0
C653 C 0.62291 0.00474 0.78123 0.0
C654 C 0.646 0.01648 0.78335 0.0
C655 C 0.65135 0.03166 0.81823 0.0
C656 C 0.67308 0.04278 0.81992 0.0
C657 C 0.68969 0.03873 0.78708 0.0
C658 C 0.68462 0.0235 0.75252 0.0
C659 C 0.66289 0.01235 0.75065 0.0
H660 H 0.70651 0.04736 0.78844 0.0
H661 H 0.49669 0.93741 0.79396 0.0
H662 H 0.90156 0.57841 0.08867 0.0
H663 H 0.94414 0.5791 0.08263 0.0
H664 H 0.93881 0.6261 0.97243 0.0
H665 H 0.89599 0.62549 0.97824 0.0
H666 H 0.97261 0.56567 0.01755 0.0
H667 H 0.9861 0.66323 0.97661 0.0
H668 H 0.96697 0.70118 0.9905 0.0
H669 H 0.93626 0.67417 0.10859 0.0
H670 H 0.95545 0.63619 0.09573 0.0
H671 H 0.08867 0.58249 0.94413 0.0
H672 H 0.04603 0.5836 0.95033 0.0
H673 H 0.05189 0.62115 0.07275 0.0
H674 H 0.09463 0.62056 0.06623 0.0
H675 H 0.01789 0.63925 0.02418 0.0
H676 H 0.04033 0.56237 0.07039 0.0
H677 H 0.06011 0.52425 0.06328 0.0
H678 H 0.01943 0.50914 0.94795 0.0
H679 H -0.00035 0.54733 0.954 0.0
C680 C 0.90937 0.58877 0.0629 0.0
C681 C 0.89537 0.60175 0.0337 0.0
C682 C 0.93375 0.58917 0.05956 0.0
C683 C 0.94465 0.6027 0.02721 0.0
C684 C 0.93075 0.61572 -0.00206 0.0
C685 C 0.9063 0.6153 0.00123 0.0
C686 C 0.97057 0.60301 0.02418 0.0
C687 C 0.9825 0.58176 0.01889 0.0
C688 C 0.98349 0.62397 0.02667 0.0
C689 C 0.972 0.6468 0.03489 0.0
C690 C 0.97531 0.66542 0.00559 0.0
C691 C 0.96446 0.68693 0.01329 0.0
C692 C 0.95034 0.69005 0.05032 0.0
C693 C 0.94711 0.6717 0.07982 0.0
C694 C 0.95795 0.65017 0.0723 0.0
C695 C 0.0809 0.59092 0.97246 0.0
C696 C 0.09501 0.60124 0.00493 0.0
C697 C 0.05652 0.59153 0.97596 0.0
C698 C 0.04577 0.60217 0.01232 0.0
C699 C 0.05981 0.61283 0.04444 0.0
C700 C 0.08422 0.6124 0.04075 0.0
C701 C 0.01991 0.60192 0.01711 0.0
C702 C 0.00798 0.62317 0.02266 0.0
C703 C 0.00701 0.5809 0.01581 0.0
C704 C 0.01865 0.55779 0.01245 0.0
C705 C 0.0357 0.55097 0.04337 0.0
C706 C 0.04691 0.52935 0.03954 0.0
C707 C 0.04107 0.5143 0.00514 0.0
C708 C 0.02396 0.52082 0.97456 0.0
C709 C 0.01273 0.54245 0.97819 0.0
H710 H 0.04977 0.49758 0.00221 0.0
H711 H 0.94194 0.70672 0.05621 0.0
H712 H 0.57692 0.21412 0.89967 0.0
H713 H 0.55925 0.23378 0.9631 0.0
H714 H 0.49089 0.21077 0.92161 0.0
H715 H 0.50846 0.19065 0.85903 0.0
H716 H 0.49595 0.25768 0.98034 0.0
H717 H 0.50819 0.16913 0.97517 0.0
H718 H 0.53474 0.13712 0.95295 0.0
H719 H 0.59167 0.16998 0.02127 0.0
H720 H 0.56539 0.20224 0.04358 0.0
H721 H 0.41734 0.20526 0.12635 0.0
H722 H 0.44267 0.22475 0.07338 0.0
H723 H 0.50268 0.21059 0.15609 0.0
H724 H 0.47742 0.18973 0.20745 0.0
H725 H 0.51006 0.19222 0.08371 0.0
H726 H 0.48603 0.26831 0.12051 0.0
H727 H 0.45942 0.30071 0.13943 0.0
H728 H 0.42649 0.29548 0.01285 0.0
H729 H 0.45265 0.26279 0.99335 0.0
C730 C 0.55802 0.21429 0.90289 0.0
C731 C 0.54403 0.20061 0.87506 0.0
C732 C 0.54793 0.22564 0.93897 0.0
C733 C 0.52379 0.22367 0.94695 0.0
C734 C 0.5095 0.21271 0.91571 0.0
C735 C 0.51959 0.20101 0.88024 0.0
C736 C 0.51477 0.22577 0.99222 0.0
C737 C 0.49912 0.24368 0.00355 0.0
C738 C 0.5194 0.20772 0.02247 0.0
C739 C 0.53492 0.18793 0.01105 0.0
C740 C 0.52636 0.16939 0.98559 0.0
C741 C 0.54134 0.15128 0.97289 0.0
C742 C 0.56487 0.1515 0.98572 0.0
C743 C 0.57343 0.16981 0.01141 0.0
C744 C 0.55851 0.188 0.02414 0.0
C745 C 0.4358 0.20719 0.13393 0.0
C746 C 0.44557 0.19597 0.17058 0.0
C747 C 0.45032 0.21846 0.10375 0.0
C748 C 0.47473 0.21913 0.11047 0.0
C749 C 0.48398 0.21018 0.14989 0.0
C750 C 0.46957 0.19834 0.17932 0.0
C751 C 0.49066 0.22421 0.07301 0.0
C752 C 0.50745 0.20714 0.06235 0.0
C753 C 0.48719 0.24333 0.04409 0.0
C754 C 0.4713 0.26298 0.05553 0.0
C755 C 0.47301 0.27393 0.09679 0.0
C756 C 0.45802 0.29238 0.10761 0.0
C757 C 0.44126 0.30014 0.07738 0.0
C758 C 0.43949 0.28946 0.03623 0.0
C759 C 0.45444 0.27099 0.02524 0.0
H760 H 0.42968 0.31443 0.08582 0.0
H761 H 0.57647 0.1375 0.97575 0.0
H762 H 0.81506 0.50645 0.13139 0.0
H763 H 0.79202 0.4873 0.18697 0.0
H764 H 0.74236 0.54431 0.18574 0.0
H765 H 0.76624 0.56426 0.13034 0.0
H766 H 0.75343 0.53696 0.26453 0.0
H767 H 0.7239 0.48607 0.16211 0.0
H768 H 0.72137 0.46089 0.09666 0.0
H769 H 0.77143 0.41358 0.1534 0.0
H770 H 0.77461 0.4386 0.21887 0.0
H771 H 0.76299 0.42219 0.41278 0.0
H772 H 0.73982 0.444 0.35848 0.0
H773 H 0.7918 0.49849 0.35955 0.0
H774 H 0.81414 0.47754 0.41421 0.0
H775 H 0.75117 0.45101 0.28057 0.0
H776 H 0.77703 0.54811 0.32681 0.0
H777 H 0.77471 0.5733 0.39219 0.0
H778 H 0.72234 0.52874 0.44787 0.0
H779 H 0.72399 0.50343 0.3825 0.0
C780 C 0.799 0.51482 0.14214 0.0
C781 C 0.79271 0.53708 0.12687 0.0
C782 C 0.78553 0.5036 0.17366 0.0
C783 C 0.76514 0.51412 0.19042 0.0
C784 C 0.75794 0.53576 0.17324 0.0
C785 C 0.77157 0.54712 0.14151 0.0
C786 C 0.75427 0.50402 0.23051 0.0
C787 C 0.75243 0.51819 0.268 0.0
C788 C 0.75117 0.47965 0.23489 0.0
C789 C 0.74938 0.46425 0.19568 0.0
C790 C 0.73444 0.47034 0.16063 0.0
C791 C 0.7329 0.45608 0.12348 0.0
C792 C 0.74619 0.43563 0.12091 0.0
C793 C 0.76107 0.42939 0.15551 0.0
C794 C 0.76268 0.44358 0.19275 0.0
C795 C 0.76899 0.4392 0.40243 0.0
C796 C 0.7906 0.44796 0.41732 0.0
C797 C 0.75575 0.45164 0.37133 0.0
C798 C 0.76385 0.47306 0.35491 0.0
C799 C 0.78464 0.48239 0.37221 0.0
C800 C 0.79771 0.47013 0.4032 0.0
C801 C 0.7536 0.48384 0.31469 0.0
C802 C 0.75115 0.46981 0.27714 0.0
C803 C 0.75179 0.50836 0.31027 0.0
C804 C 0.75057 0.52385 0.34947 0.0
C805 C 0.76478 0.54378 0.35267 0.0
C806 C 0.76366 0.55806 0.38987 0.0
C807 C 0.74838 0.55263 0.42414 0.0
C808 C 0.73418 0.53291 0.42131 0.0
C809 C 0.73523 0.51858 0.38419 0.0
H810 H 0.74755 0.5637 0.45292 0.0
H811 H 0.74499 0.42463 0.0921 0.0
H812 H 0.50882 0.80046 0.68506 0.0
H813 H 0.48976 0.77902 0.626 0.0
H814 H 0.55668 0.75124 0.58526 0.0
H815 H 0.5759 0.77261 0.64526 0.0
H816 H 0.53528 0.77715 0.52205 0.0
H817 H 0.51388 0.71289 0.6081 0.0
H818 H 0.49974 0.69151 0.673 0.0
H819 H 0.43206 0.72371 0.65946 0.0
H820 H 0.44585 0.74558 0.5949 0.0
H821 H 0.46173 0.7744 0.33862 0.0
H822 H 0.48595 0.75362 0.39298 0.0
H823 H 0.43982 0.77738 0.49622 0.0
H824 H 0.41545 0.79734 0.4419 0.0
H825 H 0.45878 0.73646 0.51876 0.0
H826 H 0.48668 0.81105 0.45856 0.0
H827 H 0.50005 0.83619 0.39786 0.0
H828 H 0.55486 0.78721 0.36773 0.0
H829 H 0.54159 0.76167 0.42802 0.0
C830 C 0.51936 0.78912 0.66449 0.0
C831 C 0.54381 0.78833 0.66935 0.0
C832 C 0.50844 0.77669 0.63093 0.0
C833 C 0.52178 0.76344 0.60125 0.0
C834 C 0.54606 0.76121 0.60804 0.0
C835 C 0.55699 0.77339 0.64228 0.0
C836 C 0.51087 0.75644 0.55904 0.0
C837 C 0.51902 0.76742 0.52089 0.0
C838 C 0.48949 0.74405 0.55768 0.0
C839 C 0.48094 0.7309 0.5965 0.0
C840 C 0.49601 0.71553 0.61906 0.0
C841 C 0.48805 0.7033 0.6558 0.0
C842 C 0.46502 0.70624 0.67033 0.0
C843 C 0.44989 0.72141 0.64811 0.0
C844 C 0.45776 0.73369 0.61135 0.0
C845 C 0.45635 0.77423 0.37275 0.0
C846 C 0.43684 0.78727 0.38645 0.0
C847 C 0.47018 0.7625 0.40376 0.0
C848 C 0.46494 0.76428 0.4488 0.0
C849 C 0.44422 0.77566 0.46174 0.0
C850 C 0.43032 0.78713 0.43078 0.0
C851 C 0.48258 0.75839 0.483 0.0
C852 C 0.47565 0.74509 0.51945 0.0
C853 C 0.50495 0.769 0.48327 0.0
C854 C 0.51298 0.78435 0.44727 0.0
C855 C 0.50151 0.80562 0.4388 0.0
C856 C 0.50906 0.81992 0.40451 0.0
C857 C 0.52825 0.81326 0.37885 0.0
C858 C 0.53996 0.79231 0.38754 0.0
C859 C 0.53243 0.77791 0.42172 0.0
H860 H 0.53408 0.82436 0.35232 0.0
H861 H 0.45889 0.69677 0.69879 0.0
H862 H 0.21682 0.57319 0.88466 0.0
H863 H 0.2366 0.55606 0.82068 0.0
H864 H 0.20457 0.48981 0.8485 0.0
H865 H 0.18453 0.50681 0.91166 0.0
H866 H 0.25708 0.49501 0.79723 0.0
H867 H 0.16387 0.50659 0.77961 0.0
H868 H 0.13142 0.53295 0.80075 0.0
H869 H 0.17449 0.59234 0.77295 0.0
H870 H 0.20712 0.56625 0.7516 0.0
H871 H 0.20588 0.4165 0.65121 0.0
H872 H 0.2251 0.44222 0.70381 0.0
H873 H 0.21018 0.50124 0.62 0.0
H874 H 0.18935 0.47557 0.56916 0.0
H875 H 0.1923 0.50948 0.6916 0.0
H876 H 0.26883 0.48495 0.65699 0.0
H877 H 0.30135 0.45821 0.63907 0.0
H878 H 0.29518 0.42596 0.76577 0.0
H879 H 0.26238 0.45224 0.78428 0.0
C880 C 0.2149 0.55472 0.87827 0.0
C881 C 0.19888 0.54137 0.90248 0.0
C882 C 0.22632 0.54494 0.8419 0.0
C883 C 0.22201 0.52171 0.83003 0.0
C884 C 0.2083 0.50771 0.85748 0.0
C885 C 0.19666 0.5175 0.89325 0.0
C886 C 0.22526 0.51395 0.78422 0.0
C887 C 0.24334 0.49838 0.77339 0.0
C888 C 0.20755 0.51885 0.7532 0.0
C889 C 0.18777 0.53457 0.76395 0.0
C890 C 0.16627 0.52529 0.7777 0.0
C891 C 0.14791 0.54015 0.78985 0.0
C892 C 0.15089 0.56431 0.78817 0.0
C893 C 0.17221 0.57364 0.77419 0.0
C894 C 0.19062 0.55883 0.76203 0.0
C895 C 0.20753 0.43484 0.64336 0.0
C896 C 0.19607 0.44419 0.60656 0.0
C897 C 0.2187 0.4496 0.67331 0.0
C898 C 0.21914 0.47383 0.66615 0.0
C899 C 0.20994 0.48268 0.62659 0.0
C900 C 0.19811 0.46805 0.59745 0.0
C901 C 0.22424 0.48994 0.70334 0.0
C902 C 0.20714 0.50681 0.71341 0.0
C903 C 0.24329 0.48653 0.73277 0.0
C904 C 0.26305 0.47059 0.72198 0.0
C905 C 0.27429 0.47206 0.68096 0.0
C906 C 0.2928 0.45699 0.6707 0.0
C907 C 0.30032 0.44039 0.70125 0.0
C908 C 0.28936 0.43885 0.74215 0.0
C909 C 0.27083 0.45388 0.75259 0.0
H910 H 0.31465 0.42873 0.69324 0.0
H911 H 0.13669 0.57579 0.79771 0.0
loop_
_geom_bond_atom_site_label_1
_geom_bond_atom_site_label_2
_geom_bond_distance
_geom_bond_site_symmetry_2
_ccdc_geom_bond_type
Mg0 O1 2.028 . S
Mg0 O7 1.986 . S
Mg0 O9 2.114 . S
Mg0 O10 2.251 . S
Mg0 O13 2.010 . S
O1 Mg0 2.028 . S
O1 C4 1.250 . S
O2 Mg3 2.028 . S
O2 C4 1.248 . S
Mg3 O2 2.028 . S
Mg3 O8 2.032 . S
Mg3 O10 2.079 . S
C4 O1 1.250 . S
C4 O2 1.248 . S
C5 O6 1.264 . S
C5 O13 1.249 . S
O6 C5 1.264 . S
O7 Mg0 1.986 . S
O7 C11 1.246 . S
O8 Mg3 2.032 . S
O8 C11 1.259 . S
O9 Mg0 2.114 . S
O9 C12 1.252 . S
O10 Mg0 2.251 . S
O10 Mg3 2.079 . S
O10 C12 1.273 . S
C11 O7 1.246 . S
C11 O8 1.259 . S
C12 O9 1.252 . S
C12 O10 1.273 . S
O13 Mg0 2.010 . S
O13 C5 1.249 . S
Mg14 O15 2.028 . S
Mg14 O21 1.986 . S
Mg14 O23 2.114 . S
Mg14 O24 2.251 . S
Mg14 O27 2.010 . S
O15 Mg14 2.028 . S
O15 C18 1.250 . S
O16 Mg17 2.028 . S
O16 C18 1.248 . S
Mg17 O16 2.028 . S
Mg17 O22 2.032 . S
Mg17 O24 2.079 . S
C18 O15 1.250 . S
C18 O16 1.248 . S
C19 O20 1.264 . S
C19 O27 1.249 . S
O20 C19 1.264 . S
O21 Mg14 1.986 . S
O21 C25 1.246 . S
O22 Mg17 2.032 . S
O22 C25 1.259 . S
O23 Mg14 2.114 . S
O23 C26 1.252 . S
O24 Mg14 2.251 . S
O24 Mg17 2.079 . S
O24 C26 1.273 . S
C25 O21 1.246 . S
C25 O22 1.259 . S
C26 O23 1.252 . S
C26 O24 1.273 . S
O27 Mg14 2.010 . S
O27 C19 1.249 . S
Mg28 O29 2.028 . S
Mg28 O35 1.986 . S
Mg28 O37 2.114 . S
Mg28 O38 2.251 . S
Mg28 O41 2.010 . S
O29 Mg28 2.028 . S
O29 C32 1.250 . S
O30 Mg31 2.028 . S
O30 C32 1.248 . S
Mg31 O30 2.028 . S
Mg31 O36 2.032 . S
Mg31 O38 2.079 . S
C32 O29 1.250 . S
C32 O30 1.248 . S
C33 O34 1.264 . S
C33 O41 1.249 . S
O34 C33 1.264 . S
O35 Mg28 1.986 . S
O35 C39 1.246 . S
O36 Mg31 2.032 . S
O36 C39 1.259 . S
O37 Mg28 2.114 . S
O37 C40 1.252 . S
O38 Mg28 2.251 . S
O38 Mg31 2.079 . S
O38 C40 1.273 . S
C39 O35 1.246 . S
C39 O36 1.259 . S
C40 O37 1.252 . S
C40 O38 1.273 . S
O41 Mg28 2.010 . S
O41 C33 1.249 . S
Mg42 O43 2.028 . S
Mg42 O49 1.986 1_554 S
Mg42 O51 2.114 . S
Mg42 O52 2.251 . S
Mg42 O55 2.010 . S
O43 Mg42 2.028 . S
O43 C46 1.250 . S
O44 Mg45 2.028 . S
O44 C46 1.248 . S
Mg45 O44 2.028 . S
Mg45 O50 2.032 1_554 S
Mg45 O52 2.079 . S
C46 O43 1.250 . S
C46 O44 1.248 . S
C47 O48 1.264 . S
C47 O55 1.249 . S
O48 C47 1.264 . S
O49 Mg42 1.986 1_556 S
O49 C53 1.246 . S
O50 Mg45 2.032 1_556 S
O50 C53 1.259 . S
O51 Mg42 2.114 . S
O51 C54 1.252 . S
O52 Mg42 2.251 . S
O52 Mg45 2.079 . S
O52 C54 1.273 . S
C53 O49 1.246 . S
C53 O50 1.259 . S
C54 O51 1.252 . S
C54 O52 1.273 . S
O55 Mg42 2.010 . S
O55 C47 1.249 . S
Mg56 O57 2.028 . S
Mg56 O63 1.986 . S
Mg56 O65 2.114 . S
Mg56 O66 2.251 . S
Mg56 O69 2.010 . S
O57 Mg56 2.028 . S
O57 C60 1.250 . S
O58 Mg59 2.028 . S
O58 C60 1.248 . S
Mg59 O58 2.028 . S
Mg59 O64 2.032 . S
Mg59 O66 2.079 . S
C60 O57 1.250 . S
C60 O58 1.248 . S
C61 O62 1.264 . S
C61 O69 1.249 . S
O62 C61 1.264 . S
O63 Mg56 1.986 . S
O63 C67 1.246 . S
O64 Mg59 2.032 . S
O64 C67 1.259 . S
O65 Mg56 2.114 . S
O65 C68 1.252 . S
O66 Mg56 2.251 . S
O66 Mg59 2.079 . S
O66 C68 1.273 . S
C67 O63 1.246 . S
C67 O64 1.259 . S
C68 O65 1.252 . S
C68 O66 1.273 . S
O69 Mg56 2.010 . S
O69 C61 1.249 . S
Mg70 O71 2.028 . S
Mg70 O77 1.986 . S
Mg70 O79 2.114 . S
Mg70 O80 2.251 . S
Mg70 O83 2.010 . S
O71 Mg70 2.028 . S
O71 C74 1.250 . S
O72 Mg73 2.028 . S
O72 C74 1.248 . S
Mg73 O72 2.028 . S
Mg73 O78 2.032 . S
Mg73 O80 2.079 . S
C74 O71 1.250 . S
C74 O72 1.248 . S
C75 O76 1.264 . S
C75 O83 1.249 . S
O76 C75 1.264 . S
O77 Mg70 1.986 . S
O77 C81 1.246 . S
O78 Mg73 2.032 . S
O78 C81 1.259 . S
O79 Mg70 2.114 . S
O79 C82 1.252 . S
O80 Mg70 2.251 . S
O80 Mg73 2.079 . S
O80 C82 1.273 . S
C81 O77 1.246 . S
C81 O78 1.259 . S
C82 O79 1.252 . S
C82 O80 1.273 . S
O83 Mg70 2.010 . S
O83 C75 1.249 . S
Mg84 O85 2.028 . S
Mg84 O91 1.986 . S
Mg84 O93 2.114 . S
Mg84 O94 2.251 . S
Mg84 O97 2.010 . S
O85 Mg84 2.028 . S
O85 C88 1.250 . S
O86 Mg87 2.028 . S
O86 C88 1.248 . S
Mg87 O86 2.028 . S
Mg87 O92 2.032 . S
Mg87 O94 2.079 . S
C88 O85 1.250 . S
C88 O86 1.248 . S
C89 O90 1.264 . S
C89 O97 1.249 . S
O90 C89 1.264 . S
O91 Mg84 1.986 . S
O91 C95 1.246 . S
O92 Mg87 2.032 . S
O92 C95 1.259 . S
O93 Mg84 2.114 . S
O93 C96 1.252 . S
O94 Mg84 2.251 . S
O94 Mg87 2.079 . S
O94 C96 1.273 . S
C95 O91 1.246 . S
C95 O92 1.259 . S
C96 O93 1.252 . S
C96 O94 1.273 . S
O97 Mg84 2.010 . S
O97 C89 1.249 . S
Mg98 O99 2.028 1_554 S
Mg98 O105 1.986 . S
Mg98 O107 2.114 1_554 S
Mg98 O108 2.251 . S
Mg98 O111 2.010 . S
O99 Mg98 2.028 1_556 S
O99 C102 1.250 . S
O100 Mg101 2.028 1_556 S
O100 C102 1.248 . S
Mg101 O100 2.028 1_554 S
Mg101 O106 2.032 . S
Mg101 O108 2.079 . S
C102 O99 1.250 . S
C102 O100 1.248 . S
C103 O104 1.264 . S
C103 O111 1.249 . S
O104 C103 1.264 . S
O105 Mg98 1.986 . S
O105 C109 1.246 . S
O106 Mg101 2.032 . S
O106 C109 1.259 . S
O107 Mg98 2.114 1_556 S
O107 C110 1.252 1_556 S
O108 Mg98 2.251 . S
O108 Mg101 2.079 . S
O108 C110 1.273 . S
C109 O105 1.246 . S
C109 O106 1.259 . S
C110 O107 1.252 1_554 S
C110 O108 1.273 . S
O111 Mg98 2.010 . S
O111 C103 1.249 . S
H112 C130 0.951 . S
H113 C132 0.951 . S
H114 C134 0.950 . S
H115 C135 0.950 . S
H116 C137 0.950 . S
H117 C140 0.950 . S
H118 C141 0.950 . S
H119 C143 0.950 . S
H120 C144 0.950 . S
H121 C145 0.951 . S
H122 C147 0.951 . S
H123 C149 0.950 . S
H124 C150 0.950 . S
H125 C152 0.950 . S
H126 C155 0.950 . S
H127 C156 0.950 . S
H128 C158 0.950 . S
H129 C159 0.950 . S
C130 H112 0.951 . S
C130 C131 1.366 . S
C130 C132 1.388 . S
C131 C130 1.366 . S
C131 C135 1.385 . S
C132 H113 0.951 . S
C132 C130 1.388 . S
C132 C133 1.366 . S
C133 C132 1.366 . S
C133 C134 1.414 . S
C133 C136 1.499 . S
C134 H114 0.950 . S
C134 C133 1.414 . S
C134 C135 1.374 . S
C135 H115 0.950 . S
C135 C131 1.385 . S
C135 C134 1.374 . S
C136 C133 1.499 . S
C136 C137 1.373 . S
C136 C138 1.389 . S
C137 H116 0.950 . S
C137 C136 1.373 . S
C137 C153 1.377 . S
C138 C136 1.389 . S
C138 C139 1.524 . S
C138 C152 1.377 . S
C139 C138 1.524 . S
C139 C140 1.397 . S
C139 C144 1.363 . S
C140 H117 0.950 . S
C140 C139 1.397 . S
C140 C141 1.334 . S
C141 H118 0.950 . S
C141 C140 1.334 . S
C141 C142 1.287 . S
C142 C141 1.287 . S
C142 C143 1.524 . S
C142 H161 0.913 . S
C143 H119 0.950 . S
C143 C142 1.524 . S
C143 C144 1.415 . S
C144 H120 0.950 . S
C144 C139 1.363 . S
C144 C143 1.415 . S
C145 H121 0.951 . S
C145 C146 1.366 . S
C145 C147 1.388 . S
C146 C145 1.366 . S
C146 C150 1.385 . S
C147 H122 0.951 . S
C147 C145 1.388 . S
C147 C148 1.366 . S
C148 C147 1.366 . S
C148 C149 1.414 . S
C148 C151 1.499 . S
C149 H123 0.950 . S
C149 C148 1.414 . S
C149 C150 1.374 . S
C150 H124 0.950 . S
C150 C146 1.385 . S
C150 C149 1.374 . S
C151 C148 1.499 . S
C151 C152 1.373 . S
C151 C153 1.389 . S
C152 H125 0.950 . S
C152 C138 1.377 . S
C152 C151 1.373 . S
C153 C137 1.377 . S
C153 C151 1.389 . S
C153 C154 1.524 . S
C154 C153 1.524 . S
C154 C155 1.397 . S
C154 C159 1.363 . S
C155 H126 0.950 . S
C155 C154 1.397 . S
C155 C156 1.334 . S
C156 H127 0.950 . S
C156 C155 1.334 . S
C156 C157 1.287 . S
C157 C156 1.287 . S
C157 C158 1.524 . S
C157 H160 0.999 . S
C158 H128 0.950 . S
C158 C157 1.524 . S
C158 C159 1.415 . S
C159 H129 0.950 . S
C159 C154 1.363 . S
C159 C158 1.415 . S
H160 C157 0.999 . S
H161 C142 0.913 . S
H162 C180 0.951 . S
H163 C182 0.951 . S
H164 C184 0.950 . S
H165 C185 0.950 . S
H166 C187 0.950 . S
H167 C190 0.950 . S
H168 C191 0.950 . S
H169 C193 0.950 . S
H170 C194 0.950 . S
H171 C195 0.951 . S
H172 C197 0.951 . S
H173 C199 0.950 . S
H174 C200 0.950 . S
H175 C202 0.950 . S
H176 C205 0.950 . S
H177 C206 0.950 . S
H178 C208 0.950 . S
H179 C209 0.950 . S
C180 H162 0.951 . S
C180 C181 1.366 . S
C180 C182 1.388 . S
C181 C180 1.366 . S
C181 C185 1.385 . S
C182 H163 0.951 . S
C182 C180 1.388 . S
C182 C183 1.366 . S
C183 C182 1.366 . S
C183 C184 1.414 . S
C183 C186 1.499 . S
C184 H164 0.950 . S
C184 C183 1.414 . S
C184 C185 1.374 . S
C185 H165 0.950 . S
C185 C181 1.385 . S
C185 C184 1.374 . S
C186 C183 1.499 . S
C186 C187 1.373 . S
C186 C188 1.389 . S
C187 H166 0.950 . S
C187 C186 1.373 . S
C187 C203 1.377 . S
C188 C186 1.389 . S
C188 C189 1.524 . S
C188 C202 1.377 . S
C189 C188 1.524 . S
C189 C190 1.397 . S
C189 C194 1.363 . S
C190 H167 0.950 . S
C190 C189 1.397 . S
C190 C191 1.334 . S
C191 H168 0.950 . S
C191 C190 1.334 . S
C191 C192 1.287 . S
C192 C191 1.287 . S
C192 C193 1.524 . S
C192 H211 0.913 . S
C193 H169 0.950 . S
C193 C192 1.524 . S
C193 C194 1.415 . S
C194 H170 0.950 . S
C194 C189 1.363 . S
C194 C193 1.415 . S
C195 H171 0.951 . S
C195 C196 1.366 . S
C195 C197 1.388 . S
C196 C195 1.366 . S
C196 C200 1.385 . S
C197 H172 0.951 . S
C197 C195 1.388 . S
C197 C198 1.366 . S
C198 C197 1.366 . S
C198 C199 1.414 . S
C198 C201 1.499 . S
C199 H173 0.950 . S
C199 C198 1.414 . S
C199 C200 1.374 . S
C200 H174 0.950 . S
C200 C196 1.385 . S
C200 C199 1.374 . S
C201 C198 1.499 . S
C201 C202 1.373 . S
C201 C203 1.389 . S
C202 H175 0.950 . S
C202 C188 1.377 . S
C202 C201 1.373 . S
C203 C187 1.377 . S
C203 C201 1.389 . S
C203 C204 1.524 . S
C204 C203 1.524 . S
C204 C205 1.397 . S
C204 C209 1.363 . S
C205 H176 0.950 . S
C205 C204 1.397 . S
C205 C206 1.334 . S
C206 H177 0.950 . S
C206 C205 1.334 . S
C206 C207 1.287 . S
C207 C206 1.287 . S
C207 C208 1.524 . S
C207 H210 0.999 . S
C208 H178 0.950 . S
C208 C207 1.524 . S
C208 C209 1.415 . S
C209 H179 0.950 . S
C209 C204 1.363 . S
C209 C208 1.415 . S
H210 C207 0.999 . S
H211 C192 0.913 . S
H212 C230 0.951 . S
H213 C232 0.951 . S
H214 C234 0.950 . S
H215 C235 0.950 . S
H216 C237 0.950 . S
H217 C240 0.950 . S
H218 C241 0.950 . S
H219 C243 0.950 . S
H220 C244 0.950 . S
H221 C245 0.951 . S
H222 C247 0.951 . S
H223 C249 0.950 . S
H224 C250 0.950 . S
H225 C252 0.950 . S
H226 C255 0.950 . S
H227 C256 0.950 . S
H228 C258 0.950 . S
H229 C259 0.950 . S
C230 H212 0.951 . S
C230 C231 1.366 . S
C230 C232 1.388 . S
C231 C230 1.366 . S
C231 C235 1.385 . S
C232 H213 0.951 . S
C232 C230 1.388 . S
C232 C233 1.366 . S
C233 C232 1.366 . S
C233 C234 1.414 . S
C233 C236 1.499 . S
C234 H214 0.950 . S
C234 C233 1.414 . S
C234 C235 1.374 . S
C235 H215 0.950 . S
C235 C231 1.385 . S
C235 C234 1.374 . S
C236 C233 1.499 . S
C236 C237 1.373 . S
C236 C238 1.389 . S
C237 H216 0.950 . S
C237 C236 1.373 . S
C237 C253 1.377 1_554 S
C238 C236 1.389 . S
C238 C239 1.524 . S
C238 C252 1.377 . S
C239 C238 1.524 . S
C239 C240 1.397 . S
C239 C244 1.363 . S
C240 H217 0.950 . S
C240 C239 1.397 . S
C240 C241 1.334 . S
C241 H218 0.950 . S
C241 C240 1.334 . S
C241 C242 1.287 . S
C242 C241 1.287 . S
C242 C243 1.524 . S
C242 H261 0.913 . S
C243 H219 0.950 . S
C243 C242 1.524 . S
C243 C244 1.415 . S
C244 H220 0.950 . S
C244 C239 1.363 . S
C244 C243 1.415 . S
C245 H221 0.951 . S
C245 C246 1.366 . S
C245 C247 1.388 . S
C246 C245 1.366 . S
C246 C250 1.385 . S
C247 H222 0.951 . S
C247 C245 1.388 . S
C247 C248 1.366 . S
C248 C247 1.366 . S
C248 C249 1.414 . S
C248 C251 1.499 . S
C249 H223 0.950 . S
C249 C248 1.414 . S
C249 C250 1.374 . S
C250 H224 0.950 . S
C250 C246 1.385 . S
C250 C249 1.374 . S
C251 C248 1.499 . S
C251 C252 1.373 1_556 S
C251 C253 1.389 . S
C252 H225 0.950 . S
C252 C238 1.377 . S
C252 C251 1.373 1_554 S
C253 C237 1.377 1_556 S
C253 C251 1.389 . S
C253 C254 1.524 . S
C254 C253 1.524 . S
C254 C255 1.397 . S
C254 C259 1.363 . S
C255 H226 0.950 . S
C255 C254 1.397 . S
C255 C256 1.334 . S
C256 H227 0.950 . S
C256 C255 1.334 . S
C256 C257 1.287 . S
C257 C256 1.287 . S
C257 C258 1.524 . S
C257 H260 0.999 . S
C258 H228 0.950 . S
C258 C257 1.524 . S
C258 C259 1.415 . S
C259 H229 0.950 . S
C259 C254 1.363 . S
C259 C258 1.415 . S
H260 C257 0.999 . S
H261 C242 0.913 . S
H262 C280 0.951 . S
H263 C282 0.951 . S
H264 C284 0.950 . S
H265 C285 0.950 . S
H266 C287 0.950 . S
H267 C290 0.950 . S
H268 C291 0.950 . S
H269 C293 0.950 . S
H270 C294 0.950 . S
H271 C295 0.951 . S
H272 C297 0.951 . S
H273 C299 0.950 . S
H274 C300 0.950 . S
H275 C302 0.950 . S
H276 C305 0.950 . S
H277 C306 0.950 . S
H278 C308 0.950 . S
H279 C309 0.950 . S
C280 H262 0.951 . S
C280 C281 1.366 . S
C280 C282 1.388 . S
C281 C280 1.366 . S
C281 C285 1.385 . S
C282 H263 0.951 . S
C282 C280 1.388 . S
C282 C283 1.366 . S
C283 C282 1.366 . S
C283 C284 1.414 . S
C283 C286 1.499 . S
C284 H264 0.950 . S
C284 C283 1.414 . S
C284 C285 1.374 . S
C285 H265 0.950 . S
C285 C281 1.385 . S
C285 C284 1.374 . S
C286 C283 1.499 . S
C286 C287 1.373 . S
C286 C288 1.389 . S
C287 H266 0.950 . S
C287 C286 1.373 . S
C287 C303 1.377 . S
C288 C286 1.389 . S
C288 C289 1.524 . S
C288 C302 1.377 . S
C289 C288 1.524 . S
C289 C290 1.397 . S
C289 C294 1.363 . S
C290 H267 0.950 . S
C290 C289 1.397 . S
C290 C291 1.334 . S
C291 H268 0.950 . S
C291 C290 1.334 . S
C291 C292 1.287 . S
C292 C291 1.287 . S
C292 C293 1.524 . S
C292 H311 0.913 . S
C293 H269 0.950 . S
C293 C292 1.524 . S
C293 C294 1.415 . S
C294 H270 0.950 . S
C294 C289 1.363 . S
C294 C293 1.415 . S
C295 H271 0.951 . S
C295 C296 1.366 . S
C295 C297 1.388 . S
C296 C295 1.366 . S
C296 C300 1.385 . S
C297 H272 0.951 . S
C297 C295 1.388 . S
C297 C298 1.366 . S
C298 C297 1.366 . S
C298 C299 1.414 . S
C298 C301 1.499 . S
C299 H273 0.950 . S
C299 C298 1.414 . S
C299 C300 1.374 . S
C300 H274 0.950 . S
C300 C296 1.385 . S
C300 C299 1.374 . S
C301 C298 1.499 . S
C301 C302 1.373 . S
C301 C303 1.389 . S
C302 H275 0.950 . S
C302 C288 1.377 . S
C302 C301 1.373 . S
C303 C287 1.377 . S
C303 C301 1.389 . S
C303 C304 1.524 . S
C304 C303 1.524 . S
C304 C305 1.397 . S
C304 C309 1.363 . S
C305 H276 0.950 . S
C305 C304 1.397 . S
C305 C306 1.334 . S
C306 H277 0.950 . S
C306 C305 1.334 . S
C306 C307 1.287 . S
C307 C306 1.287 . S
C307 C308 1.524 . S
C307 H310 0.999 . S
C308 H278 0.950 . S
C308 C307 1.524 . S
C308 C309 1.415 . S
C309 H279 0.950 . S
C309 C304 1.363 . S
C309 C308 1.415 . S
H310 C307 0.999 . S
H311 C292 0.913 . S
H312 C330 0.951 . S
H313 C332 0.951 . S
H314 C334 0.950 . S
H315 C335 0.950 . S
H316 C337 0.950 . S
H317 C340 0.950 . S
H318 C341 0.950 . S
H319 C343 0.950 . S
H320 C344 0.950 . S
H321 C345 0.951 . S
H322 C347 0.951 . S
H323 C349 0.950 . S
H324 C350 0.950 . S
H325 C352 0.950 . S
H326 C355 0.950 . S
H327 C356 0.950 . S
H328 C358 0.950 . S
H329 C359 0.950 . S
C330 H312 0.951 . S
C330 C331 1.366 . S
C330 C332 1.388 . S
C331 C330 1.366 . S
C331 C335 1.385 . S
C332 H313 0.951 . S
C332 C330 1.388 . S
C332 C333 1.366 . S
C333 C332 1.366 . S
C333 C334 1.414 . S
C333 C336 1.499 . S
C334 H314 0.950 . S
C334 C333 1.414 . S
C334 C335 1.374 . S
C335 H315 0.950 . S
C335 C331 1.385 . S
C335 C334 1.374 . S
C336 C333 1.499 . S
C336 C337 1.373 . S
C336 C338 1.389 . S
C337 H316 0.950 . S
C337 C336 1.373 . S
C337 C353 1.377 . S
C338 C336 1.389 . S
C338 C339 1.524 . S
C338 C352 1.377 . S
C339 C338 1.524 . S
C339 C340 1.397 . S
C339 C344 1.363 . S
C340 H317 0.950 . S
C340 C339 1.397 . S
C340 C341 1.334 . S
C341 H318 0.950 . S
C341 C340 1.334 . S
C341 C342 1.287 . S
C342 C341 1.287 . S
C342 C343 1.524 . S
C342 H361 0.913 . S
C343 H319 0.950 . S
C343 C342 1.524 . S
C343 C344 1.415 . S
C344 H320 0.950 . S
C344 C339 1.363 . S
C344 C343 1.415 . S
C345 H321 0.951 . S
C345 C346 1.366 . S
C345 C347 1.388 . S
C346 C345 1.366 . S
C346 C350 1.385 . S
C347 H322 0.951 . S
C347 C345 1.388 . S
C347 C348 1.366 . S
C348 C347 1.366 . S
C348 C349 1.414 . S
C348 C351 1.499 . S
C349 H323 0.950 . S
C349 C348 1.414 . S
C349 C350 1.374 . S
C350 H324 0.950 . S
C350 C346 1.385 . S
C350 C349 1.374 . S
C351 C348 1.499 . S
C351 C352 1.373 . S
C351 C353 1.389 . S
C352 H325 0.950 . S
C352 C338 1.377 . S
C352 C351 1.373 . S
C353 C337 1.377 . S
C353 C351 1.389 . S
C353 C354 1.524 . S
C354 C353 1.524 . S
C354 C355 1.397 . S
C354 C359 1.363 . S
C355 H326 0.950 . S
C355 C354 1.397 . S
C355 C356 1.334 . S
C356 H327 0.950 . S
C356 C355 1.334 . S
C356 C357 1.287 . S
C357 C356 1.287 . S
C357 C358 1.524 . S
C357 H360 0.999 . S
C358 H328 0.950 . S
C358 C357 1.524 . S
C358 C359 1.415 . S
C359 H329 0.950 . S
C359 C354 1.363 . S
C359 C358 1.415 . S
H360 C357 0.999 . S
H361 C342 0.913 . S
H362 C380 0.951 . S
H363 C382 0.951 . S
H364 C384 0.950 . S
H365 C385 0.950 . S
H366 C387 0.950 . S
H367 C390 0.950 . S
H368 C391 0.950 . S
H369 C393 0.950 . S
H370 C394 0.950 . S
H371 C395 0.951 . S
H372 C397 0.951 . S
H373 C399 0.950 . S
H374 C400 0.950 . S
H375 C402 0.950 . S
H376 C405 0.950 . S
H377 C406 0.950 . S
H378 C408 0.950 . S
H379 C409 0.950 . S
C380 H362 0.951 . S
C380 C381 1.366 . S
C380 C382 1.388 . S
C381 C380 1.366 . S
C381 C385 1.385 . S
C382 H363 0.951 . S
C382 C380 1.388 . S
C382 C383 1.366 . S
C383 C382 1.366 . S
C383 C384 1.414 . S
C383 C386 1.499 . S
C384 H364 0.950 . S
C384 C383 1.414 . S
C384 C385 1.374 . S
C385 H365 0.950 . S
C385 C381 1.385 . S
C385 C384 1.374 . S
C386 C383 1.499 . S
C386 C387 1.373 . S
C386 C388 1.389 . S
C387 H366 0.950 . S
C387 C386 1.373 . S
C387 C403 1.377 . S
C388 C386 1.389 . S
C388 C389 1.524 . S
C388 C402 1.377 . S
C389 C388 1.524 . S
C389 C390 1.397 . S
C389 C394 1.363 . S
C390 H367 0.950 . S
C390 C389 1.397 . S
C390 C391 1.334 . S
C391 H368 0.950 . S
C391 C390 1.334 . S
C391 C392 1.287 . S
C392 C391 1.287 . S
C392 C393 1.524 . S
C392 H411 0.913 . S
C393 H369 0.950 . S
C393 C392 1.524 . S
C393 C394 1.415 . S
C394 H370 0.950 . S
C394 C389 1.363 . S
C394 C393 1.415 . S
C395 H371 0.951 . S
C395 C396 1.366 . S
C395 C397 1.388 . S
C396 C395 1.366 . S
C396 C400 1.385 . S
C397 H372 0.951 . S
C397 C395 1.388 . S
C397 C398 1.366 . S
C398 C397 1.366 . S
C398 C399 1.414 . S
C398 C401 1.499 . S
C399 H373 0.950 . S
C399 C398 1.414 . S
C399 C400 1.374 . S
C400 H374 0.950 . S
C400 C396 1.385 . S
C400 C399 1.374 . S
C401 C398 1.499 . S
C401 C402 1.373 . S
C401 C403 1.389 . S
C402 H375 0.950 . S
C402 C388 1.377 . S
C402 C401 1.373 . S
C403 C387 1.377 . S
C403 C401 1.389 . S
C403 C404 1.524 . S
C404 C403 1.524 . S
C404 C405 1.397 . S
C404 C409 1.363 . S
C405 H376 0.950 . S
C405 C404 1.397 . S
C405 C406 1.334 . S
C406 H377 0.950 . S
C406 C405 1.334 . S
C406 C407 1.287 . S
C407 C406 1.287 . S
C407 C408 1.524 . S
C407 H410 0.999 . S
C408 H378 0.950 . S
C408 C407 1.524 . S
C408 C409 1.415 . S
C409 H379 0.950 . S
C409 C404 1.363 . S
C409 C408 1.415 . S
H410 C407 0.999 . S
H411 C392 0.913 . S
H412 C430 0.951 . S
H413 C432 0.951 . S
H414 C434 0.950 . S
H415 C435 0.950 1_554 S
H416 C437 0.950 . S
H417 C440 0.950 1_554 S
H418 C441 0.950 . S
H419 C443 0.950 . S
H420 C444 0.950 . S
H421 C445 0.951 . S
H422 C447 0.951 . S
H423 C449 0.950 . S
H424 C450 0.950 . S
H425 C452 0.950 . S
H426 C455 0.950 . S
H427 C456 0.950 . S
H428 C458 0.950 . S
H429 C459 0.950 . S
C430 H412 0.951 . S
C430 C431 1.366 . S
C430 C432 1.388 . S
C431 C430 1.366 . S
C431 C435 1.385 . S
C432 H413 0.951 . S
C432 C430 1.388 . S
C432 C433 1.366 . S
C433 C432 1.366 . S
C433 C434 1.414 . S
C433 C436 1.499 . S
C434 H414 0.950 . S
C434 C433 1.414 . S
C434 C435 1.374 . S
C435 H415 0.950 1_556 S
C435 C431 1.385 . S
C435 C434 1.374 . S
C436 C433 1.499 . S
C436 C437 1.373 . S
C436 C438 1.389 . S
C437 H416 0.950 . S
C437 C436 1.373 . S
C437 C453 1.377 . S
C438 C436 1.389 . S
C438 C439 1.524 . S
C438 C452 1.377 . S
C439 C438 1.524 . S
C439 C440 1.397 . S
C439 C444 1.363 . S
C440 H417 0.950 1_556 S
C440 C439 1.397 . S
C440 C441 1.334 1_556 S
C441 H418 0.950 . S
C441 C440 1.334 1_554 S
C441 C442 1.287 1_554 S
C442 C441 1.287 1_556 S
C442 C443 1.524 . S
C442 H461 0.913 1_556 S
C443 H419 0.950 . S
C443 C442 1.524 . S
C443 C444 1.415 . S
C444 H420 0.950 . S
C444 C439 1.363 . S
C444 C443 1.415 . S
C445 H421 0.951 . S
C445 C446 1.366 . S
C445 C447 1.388 . S
C446 C445 1.366 . S
C446 C450 1.385 . S
C447 H422 0.951 . S
C447 C445 1.388 . S
C447 C448 1.366 . S
C448 C447 1.366 . S
C448 C449 1.414 . S
C448 C451 1.499 . S
C449 H423 0.950 . S
C449 C448 1.414 . S
C449 C450 1.374 . S
C450 H424 0.950 . S
C450 C446 1.385 . S
C450 C449 1.374 . S
C451 C448 1.499 . S
C451 C452 1.373 . S
C451 C453 1.389 . S
C452 H425 0.950 . S
C452 C438 1.377 . S
C452 C451 1.373 . S
C453 C437 1.377 . S
C453 C451 1.389 . S
C453 C454 1.524 . S
C454 C453 1.524 . S
C454 C455 1.397 . S
C454 C459 1.363 . S
C455 H426 0.950 . S
C455 C454 1.397 . S
C455 C456 1.334 . S
C456 H427 0.950 . S
C456 C455 1.334 . S
C456 C457 1.287 . S
C457 C456 1.287 . S
C457 C458 1.524 . S
C457 H460 0.999 . S
C458 H428 0.950 . S
C458 C457 1.524 . S
C458 C459 1.415 . S
C459 H429 0.950 . S
C459 C454 1.363 . S
C459 C458 1.415 . S
H460 C457 0.999 . S
H461 C442 0.913 1_554 S
H462 C480 0.951 . S
H463 C482 0.951 . S
H464 C484 0.950 . S
H465 C485 0.950 . S
H466 C487 0.950 . S
H467 C490 0.950 . S
H468 C491 0.950 . S
H469 C493 0.950 . S
H470 C494 0.950 . S
H471 C495 0.951 . S
H472 C497 0.951 . S
H473 C499 0.950 . S
H474 C500 0.950 . S
H475 C502 0.950 . S
H476 C505 0.950 . S
H477 C506 0.950 . S
H478 C508 0.950 . S
H479 C509 0.950 . S
C480 H462 0.951 . S
C480 C481 1.366 . S
C480 C482 1.388 . S
C481 C480 1.366 . S
C481 C485 1.385 . S
C482 H463 0.951 . S
C482 C480 1.388 . S
C482 C483 1.366 . S
C483 C482 1.366 . S
C483 C484 1.414 . S
C483 C486 1.499 . S
C484 H464 0.950 . S
C484 C483 1.414 . S
C484 C485 1.374 . S
C485 H465 0.950 . S
C485 C481 1.385 . S
C485 C484 1.374 . S
C486 C483 1.499 . S
C486 C487 1.373 . S
C486 C488 1.389 . S
C487 H466 0.950 . S
C487 C486 1.373 . S
C487 C503 1.377 . S
C488 C486 1.389 . S
C488 C489 1.524 . S
C488 C502 1.377 . S
C489 C488 1.524 . S
C489 C490 1.397 . S
C489 C494 1.363 . S
C490 H467 0.950 . S
C490 C489 1.397 . S
C490 C491 1.334 . S
C491 H468 0.950 . S
C491 C490 1.334 . S
C491 C492 1.287 . S
C492 C491 1.287 . S
C492 C493 1.524 . S
C492 H511 0.913 . S
C493 H469 0.950 . S
C493 C492 1.524 . S
C493 C494 1.415 . S
C494 H470 0.950 . S
C494 C489 1.363 . S
C494 C493 1.415 . S
C495 H471 0.951 . S
C495 C496 1.366 . S
C495 C497 1.388 . S
C496 C495 1.366 . S
C496 C500 1.385 . S
C497 H472 0.951 . S
C497 C495 1.388 . S
C497 C498 1.366 . S
C498 C497 1.366 . S
C498 C499 1.414 . S
C498 C501 1.499 . S
C499 H473 0.950 . S
C499 C498 1.414 . S
C499 C500 1.374 . S
C500 H474 0.950 . S
C500 C496 1.385 . S
C500 C499 1.374 . S
C501 C498 1.499 . S
C501 C502 1.373 . S
C501 C503 1.389 . S
C502 H475 0.950 . S
C502 C488 1.377 . S
C502 C501 1.373 . S
C503 C487 1.377 . S
C503 C501 1.389 . S
C503 C504 1.524 . S
C504 C503 1.524 . S
C504 C505 1.397 . S
C504 C509 1.363 . S
C505 H476 0.950 . S
C505 C504 1.397 . S
C505 C506 1.334 . S
C506 H477 0.950 . S
C506 C505 1.334 . S
C506 C507 1.287 . S
C507 C506 1.287 . S
C507 C508 1.524 . S
C507 H510 0.999 . S
C508 H478 0.950 . S
C508 C507 1.524 . S
C508 C509 1.415 . S
C509 H479 0.950 . S
C509 C504 1.363 . S
C509 C508 1.415 . S
H510 C507 0.999 . S
H511 C492 0.913 . S
H512 C530 0.951 . S
H513 C532 0.951 . S
H514 C534 0.950 . S
H515 C535 0.950 . S
H516 C537 0.950 . S
H517 C540 0.950 . S
H518 C541 0.950 . S
H519 C543 0.950 . S
H520 C544 0.950 . S
H521 C545 0.951 . S
H522 C547 0.951 . S
H523 C549 0.950 . S
H524 C550 0.950 . S
H525 C552 0.950 . S
H526 C555 0.950 . S
H527 C556 0.950 . S
H528 C558 0.950 . S
H529 C559 0.950 . S
C530 H512 0.951 . S
C530 C531 1.366 . S
C530 C532 1.388 . S
C531 C530 1.366 . S
C531 C535 1.385 . S
C532 H513 0.951 . S
C532 C530 1.388 . S
C532 C533 1.366 . S
C533 C532 1.366 . S
C533 C534 1.414 . S
C533 C536 1.499 . S
C534 H514 0.950 . S
C534 C533 1.414 . S
C534 C535 1.374 . S
C535 H515 0.950 . S
C535 C531 1.385 . S
C535 C534 1.374 . S
C536 C533 1.499 . S
C536 C537 1.373 . S
C536 C538 1.389 . S
C537 H516 0.950 . S
C537 C536 1.373 . S
C537 C553 1.377 1_565 S
C538 C536 1.389 . S
C538 C539 1.524 . S
C538 C552 1.377 1_565 S
C539 C538 1.524 . S
C539 C540 1.397 . S
C539 C544 1.363 . S
C540 H517 0.950 . S
C540 C539 1.397 . S
C540 C541 1.334 . S
C541 H518 0.950 . S
C541 C540 1.334 . S
C541 C542 1.287 . S
C542 C541 1.287 . S
C542 C543 1.524 . S
C542 H561 0.913 . S
C543 H519 0.950 . S
C543 C542 1.524 . S
C543 C544 1.415 . S
C544 H520 0.950 . S
C544 C539 1.363 . S
C544 C543 1.415 . S
C545 H521 0.951 . S
C545 C546 1.366 . S
C545 C547 1.388 . S
C546 C545 1.366 . S
C546 C550 1.385 . S
C547 H522 0.951 . S
C547 C545 1.388 . S
C547 C548 1.366 . S
C548 C547 1.366 . S
C548 C549 1.414 . S
C548 C551 1.499 . S
C549 H523 0.950 . S
C549 C548 1.414 . S
C549 C550 1.374 . S
C550 H524 0.950 . S
C550 C546 1.385 . S
C550 C549 1.374 . S
C551 C548 1.499 . S
C551 C552 1.373 . S
C551 C553 1.389 . S
C552 H525 0.950 . S
C552 C538 1.377 1_545 S
C552 C551 1.373 . S
C553 C537 1.377 1_545 S
C553 C551 1.389 . S
C553 C554 1.524 . S
C554 C553 1.524 . S
C554 C555 1.397 . S
C554 C559 1.363 . S
C555 H526 0.950 . S
C555 C554 1.397 . S
C555 C556 1.334 . S
C556 H527 0.950 . S
C556 C555 1.334 . S
C556 C557 1.287 . S
C557 C556 1.287 . S
C557 C558 1.524 . S
C557 H560 0.999 . S
C558 H528 0.950 . S
C558 C557 1.524 . S
C558 C559 1.415 . S
C559 H529 0.950 . S
C559 C554 1.363 . S
C559 C558 1.415 . S
H560 C557 0.999 . S
H561 C542 0.913 . S
H562 C580 0.951 . S
H563 C582 0.951 . S
H564 C584 0.950 . S
H565 C585 0.950 . S
H566 C587 0.950 . S
H567 C590 0.950 . S
H568 C591 0.950 . S
H569 C593 0.950 . S
H570 C594 0.950 . S
H571 C595 0.951 . S
H572 C597 0.951 . S
H573 C599 0.950 . S
H574 C600 0.950 . S
H575 C602 0.950 . S
H576 C605 0.950 . S
H577 C606 0.950 . S
H578 C608 0.950 . S
H579 C609 0.950 . S
C580 H562 0.951 . S
C580 C581 1.366 . S
C580 C582 1.388 . S
C581 C580 1.366 . S
C581 C585 1.385 . S
C582 H563 0.951 . S
C582 C580 1.388 . S
C582 C583 1.366 . S
C583 C582 1.366 . S
C583 C584 1.414 . S
C583 C586 1.499 . S
C584 H564 0.950 . S
C584 C583 1.414 . S
C584 C585 1.374 . S
C585 H565 0.950 . S
C585 C581 1.385 . S
C585 C584 1.374 . S
C586 C583 1.499 . S
C586 C587 1.373 . S
C586 C588 1.389 . S
C587 H566 0.950 . S
C587 C586 1.373 . S
C587 C603 1.377 1_655 S
C588 C586 1.389 . S
C588 C589 1.524 . S
C588 C602 1.377 1_655 S
C589 C588 1.524 . S
C589 C590 1.397 . S
C589 C594 1.363 . S
C590 H567 0.950 . S
C590 C589 1.397 . S
C590 C591 1.334 . S
C591 H568 0.950 . S
C591 C590 1.334 . S
C591 C592 1.287 . S
C592 C591 1.287 . S
C592 C593 1.524 . S
C592 H611 0.913 . S
C593 H569 0.950 . S
C593 C592 1.524 . S
C593 C594 1.415 . S
C594 H570 0.950 . S
C594 C589 1.363 . S
C594 C593 1.415 . S
C595 H571 0.951 . S
C595 C596 1.366 . S
C595 C597 1.388 . S
C596 C595 1.366 . S
C596 C600 1.385 . S
C597 H572 0.951 . S
C597 C595 1.388 . S
C597 C598 1.366 . S
C598 C597 1.366 . S
C598 C599 1.414 . S
C598 C601 1.499 . S
C599 H573 0.950 . S
C599 C598 1.414 . S
C599 C600 1.374 . S
C600 H574 0.950 . S
C600 C596 1.385 . S
C600 C599 1.374 . S
C601 C598 1.499 . S
C601 C602 1.373 . S
C601 C603 1.389 . S
C602 H575 0.950 . S
C602 C588 1.377 1_455 S
C602 C601 1.373 . S
C603 C587 1.377 1_455 S
C603 C601 1.389 . S
C603 C604 1.524 . S
C604 C603 1.524 . S
C604 C605 1.397 . S
C604 C609 1.363 . S
C605 H576 0.950 . S
C605 C604 1.397 . S
C605 C606 1.334 . S
C606 H577 0.950 . S
C606 C605 1.334 . S
C606 C607 1.287 . S
C607 C606 1.287 . S
C607 C608 1.524 . S
C607 H610 0.999 . S
C608 H578 0.950 . S
C608 C607 1.524 . S
C608 C609 1.415 . S
C609 H579 0.950 . S
C609 C604 1.363 . S
C609 C608 1.415 . S
H610 C607 0.999 . S
H611 C592 0.913 . S
H612 C630 0.951 . S
H613 C632 0.951 . S
H614 C634 0.950 . S
H615 C635 0.950 . S
H616 C637 0.950 . S
H617 C640 0.950 . S
H618 C641 0.950 . S
H619 C643 0.950 . S
H620 C644 0.950 . S
H621 C645 0.951 . S
H622 C647 0.951 . S
H623 C649 0.950 . S
H624 C650 0.950 . S
H625 C652 0.950 . S
H626 C655 0.950 . S
H627 C656 0.950 . S
H628 C658 0.950 . S
H629 C659 0.950 . S
C630 H612 0.951 . S
C630 C631 1.366 . S
C630 C632 1.388 . S
C631 C630 1.366 . S
C631 C635 1.385 . S
C632 H613 0.951 . S
C632 C630 1.388 . S
C632 C633 1.366 . S
C633 C632 1.366 . S
C633 C634 1.414 . S
C633 C636 1.499 . S
C634 H614 0.950 . S
C634 C633 1.414 . S
C634 C635 1.374 . S
C635 H615 0.950 . S
C635 C631 1.385 . S
C635 C634 1.374 . S
C636 C633 1.499 . S
C636 C637 1.373 . S
C636 C638 1.389 . S
C637 H616 0.950 . S
C637 C636 1.373 . S
C637 C653 1.377 1_565 S
C638 C636 1.389 . S
C638 C639 1.524 . S
C638 C652 1.377 1_565 S
C639 C638 1.524 . S
C639 C640 1.397 . S
C639 C644 1.363 . S
C640 H617 0.950 . S
C640 C639 1.397 . S
C640 C641 1.334 . S
C641 H618 0.950 . S
C641 C640 1.334 . S
C641 C642 1.287 . S
C642 C641 1.287 . S
C642 C643 1.524 . S
C642 H661 0.913 . S
C643 H619 0.950 . S
C643 C642 1.524 . S
C643 C644 1.415 . S
C644 H620 0.950 . S
C644 C639 1.363 . S
C644 C643 1.415 . S
C645 H621 0.951 . S
C645 C646 1.366 . S
C645 C647 1.388 . S
C646 C645 1.366 . S
C646 C650 1.385 . S
C647 H622 0.951 . S
C647 C645 1.388 . S
C647 C648 1.366 . S
C648 C647 1.366 . S
C648 C649 1.414 . S
C648 C651 1.499 . S
C649 H623 0.950 . S
C649 C648 1.414 . S
C649 C650 1.374 . S
C650 H624 0.950 . S
C650 C646 1.385 . S
C650 C649 1.374 . S
C651 C648 1.499 . S
C651 C652 1.373 . S
C651 C653 1.389 . S
C652 H625 0.950 . S
C652 C638 1.377 1_545 S
C652 C651 1.373 . S
C653 C637 1.377 1_545 S
C653 C651 1.389 . S
C653 C654 1.524 . S
C654 C653 1.524 . S
C654 C655 1.397 . S
C654 C659 1.363 . S
C655 H626 0.950 . S
C655 C654 1.397 . S
C655 C656 1.334 . S
C656 H627 0.950 . S
C656 C655 1.334 . S
C656 C657 1.287 . S
C657 C656 1.287 . S
C657 C658 1.524 . S
C657 H660 0.999 . S
C658 H628 0.950 . S
C658 C657 1.524 . S
C658 C659 1.415 . S
C659 H629 0.950 . S
C659 C654 1.363 . S
C659 C658 1.415 . S
H660 C657 0.999 . S
H661 C642 0.913 . S
H662 C680 0.951 . S
H663 C682 0.951 . S
H664 C684 0.950 . S
H665 C685 0.950 . S
H666 C687 0.950 . S
H667 C690 0.950 . S
H668 C691 0.950 . S
H669 C693 0.950 . S
H670 C694 0.950 . S
H671 C695 0.951 . S
H672 C697 0.951 . S
H673 C699 0.950 . S
H674 C700 0.950 . S
H675 C702 0.950 . S
H676 C705 0.950 1_554 S
H677 C706 0.950 . S
H678 C708 0.950 . S
H679 C709 0.950 . S
C680 H662 0.951 . S
C680 C681 1.366 . S
C680 C682 1.388 . S
C681 C680 1.366 . S
C681 C685 1.385 1_554 S
C682 H663 0.951 . S
C682 C680 1.388 . S
C682 C683 1.366 . S
C683 C682 1.366 . S
C683 C684 1.414 1_554 S
C683 C686 1.499 . S
C684 H664 0.950 . S
C684 C683 1.414 1_556 S
C684 C685 1.374 . S
C685 H665 0.950 . S
C685 C681 1.385 1_556 S
C685 C684 1.374 . S
C686 C683 1.499 . S
C686 C687 1.373 1_554 S
C686 C688 1.389 . S
C687 H666 0.950 . S
C687 C686 1.373 1_556 S
C687 C703 1.377 1_655 S
C688 C686 1.389 . S
C688 C689 1.524 . S
C688 C702 1.377 1_655 S
C689 C688 1.524 . S
C689 C690 1.397 . S
C689 C694 1.363 . S
C690 H667 0.950 . S
C690 C689 1.397 . S
C690 C691 1.334 . S
C691 H668 0.950 . S
C691 C690 1.334 . S
C691 C692 1.287 . S
C692 C691 1.287 . S
C692 C693 1.524 . S
C692 H711 0.913 . S
C693 H669 0.950 . S
C693 C692 1.524 . S
C693 C694 1.415 . S
C694 H670 0.950 . S
C694 C689 1.363 . S
C694 C693 1.415 . S
C695 H671 0.951 . S
C695 C696 1.366 1_556 S
C695 C697 1.388 . S
C696 C695 1.366 1_554 S
C696 C700 1.385 . S
C697 H672 0.951 . S
C697 C695 1.388 . S
C697 C698 1.366 1_556 S
C698 C697 1.366 1_554 S
C698 C699 1.414 . S
C698 C701 1.499 . S
C699 H673 0.950 . S
C699 C698 1.414 . S
C699 C700 1.374 . S
C700 H674 0.950 . S
C700 C696 1.385 . S
C700 C699 1.374 . S
C701 C698 1.499 . S
C701 C702 1.373 . S
C701 C703 1.384 1_554 S
C702 H675 0.950 . S
C702 C688 1.377 1_455 S
C702 C701 1.373 . S
C703 C687 1.377 1_455 S
C703 C701 1.384 1_556 S
C703 C704 1.529 . S
C704 C703 1.529 . S
C704 C705 1.397 . S
C704 C709 1.363 . S
C705 H676 0.950 1_556 S
C705 C704 1.397 . S
C705 C706 1.334 . S
C706 H677 0.950 . S
C706 C705 1.334 . S
C706 C707 1.287 . S
C707 C706 1.287 . S
C707 C708 1.524 . S
C707 H710 0.999 . S
C708 H678 0.950 . S
C708 C707 1.524 . S
C708 C709 1.415 . S
C709 H679 0.950 . S
C709 C704 1.363 . S
C709 C708 1.415 . S
H710 C707 0.999 . S
H711 C692 0.913 . S
H712 C730 0.951 . S
H713 C732 0.951 . S
H714 C734 0.950 . S
H715 C735 0.950 . S
H716 C737 0.949 1_556 S
H717 C740 0.950 . S
H718 C741 0.950 . S
H719 C743 0.950 . S
H720 C744 0.956 . S
H721 C745 0.951 . S
H722 C747 0.951 . S
H723 C749 0.950 . S
H724 C750 0.950 . S
H725 C752 0.950 . S
H726 C755 0.950 . S
H727 C756 0.950 . S
H728 C758 0.950 . S
H729 C759 0.950 . S
C730 H712 0.951 . S
C730 C731 1.366 . S
C730 C732 1.388 . S
C731 C730 1.366 . S
C731 C735 1.385 . S
C732 H713 0.951 . S
C732 C730 1.388 . S
C732 C733 1.366 . S
C733 C732 1.366 . S
C733 C734 1.414 . S
C733 C736 1.499 . S
C734 H714 0.950 . S
C734 C733 1.414 . S
C734 C735 1.374 . S
C735 H715 0.950 . S
C735 C731 1.385 . S
C735 C734 1.374 . S
C736 C733 1.499 . S
C736 C737 1.373 1_556 S
C736 C738 1.389 1_556 S
C737 H716 0.949 1_554 S
C737 C736 1.373 1_554 S
C737 C753 1.377 . S
C738 C736 1.389 1_554 S
C738 C739 1.524 1_554 S
C738 C752 1.377 . S
C739 C738 1.524 1_556 S
C739 C740 1.397 . S
C739 C744 1.360 1_556 S
C740 H717 0.950 . S
C740 C739 1.397 . S
C740 C741 1.334 . S
C741 H718 0.950 . S
C741 C740 1.334 . S
C741 C742 1.287 . S
C742 C741 1.287 . S
C742 C743 1.524 . S
C742 H761 0.913 . S
C743 H719 0.950 . S
C743 C742 1.524 . S
C743 C744 1.412 1_556 S
C744 H720 0.956 . S
C744 C739 1.360 1_554 S
C744 C743 1.412 1_554 S
C745 H721 0.951 . S
C745 C746 1.366 . S
C745 C747 1.388 . S
C746 C745 1.366 . S
C746 C750 1.385 . S
C747 H722 0.951 . S
C747 C745 1.388 . S
C747 C748 1.366 . S
C748 C747 1.366 . S
C748 C749 1.414 . S
C748 C751 1.499 . S
C749 H723 0.950 . S
C749 C748 1.414 . S
C749 C750 1.374 . S
C750 H724 0.950 . S
C750 C746 1.385 . S
C750 C749 1.374 . S
C751 C748 1.499 . S
C751 C752 1.373 . S
C751 C753 1.389 . S
C752 H725 0.950 . S
C752 C738 1.377 . S
C752 C751 1.373 . S
C753 C737 1.377 . S
C753 C751 1.389 . S
C753 C754 1.524 . S
C754 C753 1.524 . S
C754 C755 1.397 . S
C754 C759 1.363 . S
C755 H726 0.950 . S
C755 C754 1.397 . S
C755 C756 1.334 . S
C756 H727 0.950 . S
C756 C755 1.334 . S
C756 C757 1.287 . S
C757 C756 1.287 . S
C757 C758 1.524 . S
C757 H760 0.999 . S
C758 H728 0.950 . S
C758 C757 1.524 . S
C758 C759 1.415 . S
C759 H729 0.950 . S
C759 C754 1.363 . S
C759 C758 1.415 . S
H760 C757 0.999 . S
H761 C742 0.913 . S
H762 C780 0.951 . S
H763 C782 0.951 . S
H764 C784 0.950 . S
H765 C785 0.950 . S
H766 C787 0.950 . S
H767 C790 0.950 . S
H768 C791 0.950 . S
H769 C793 0.950 . S
H770 C794 0.950 . S
H771 C795 0.951 . S
H772 C797 0.951 . S
H773 C799 0.950 . S
H774 C800 0.950 . S
H775 C802 0.950 . S
H776 C805 0.950 . S
H777 C806 0.950 . S
H778 C808 0.950 . S
H779 C809 0.950 . S
C780 H762 0.951 . S
C780 C781 1.366 . S
C780 C782 1.388 . S
C781 C780 1.366 . S
C781 C785 1.385 . S
C782 H763 0.951 . S
C782 C780 1.388 . S
C782 C783 1.366 . S
C783 C782 1.366 . S
C783 C784 1.414 . S
C783 C786 1.499 . S
C784 H764 0.950 . S
C784 C783 1.414 . S
C784 C785 1.374 . S
C785 H765 0.950 . S
C785 C781 1.385 . S
C785 C784 1.374 . S
C786 C783 1.499 . S
C786 C787 1.373 . S
C786 C788 1.389 . S
C787 H766 0.950 . S
C787 C786 1.373 . S
C787 C803 1.377 . S
C788 C786 1.389 . S
C788 C789 1.524 . S
C788 C802 1.377 . S
C789 C788 1.524 . S
C789 C790 1.397 . S
C789 C794 1.363 . S
C790 H767 0.950 . S
C790 C789 1.397 . S
C790 C791 1.334 . S
C791 H768 0.950 . S
C791 C790 1.334 . S
C791 C792 1.287 . S
C792 C791 1.287 . S
C792 C793 1.524 . S
C792 H811 0.913 . S
C793 H769 0.950 . S
C793 C792 1.524 . S
C793 C794 1.415 . S
C794 H770 0.950 . S
C794 C789 1.363 . S
C794 C793 1.415 . S
C795 H771 0.951 . S
C795 C796 1.366 . S
C795 C797 1.388 . S
C796 C795 1.366 . S
C796 C800 1.385 . S
C797 H772 0.951 . S
C797 C795 1.388 . S
C797 C798 1.366 . S
C798 C797 1.366 . S
C798 C799 1.414 . S
C798 C801 1.499 . S
C799 H773 0.950 . S
C799 C798 1.414 . S
C799 C800 1.374 . S
C800 H774 0.950 . S
C800 C796 1.385 . S
C800 C799 1.374 . S
C801 C798 1.499 . S
C801 C802 1.373 . S
C801 C803 1.389 . S
C802 H775 0.950 . S
C802 C788 1.377 . S
C802 C801 1.373 . S
C803 C787 1.377 . S
C803 C801 1.389 . S
C803 C804 1.524 . S
C804 C803 1.524 . S
C804 C805 1.397 . S
C804 C809 1.363 . S
C805 H776 0.950 . S
C805 C804 1.397 . S
C805 C806 1.334 . S
C806 H777 0.950 . S
C806 C805 1.334 . S
C806 C807 1.287 . S
C807 C806 1.287 . S
C807 C808 1.524 . S
C807 H810 0.999 . S
C808 H778 0.950 . S
C808 C807 1.524 . S
C808 C809 1.415 . S
C809 H779 0.950 . S
C809 C804 1.363 . S
C809 C808 1.415 . S
H810 C807 0.999 . S
H811 C792 0.913 . S
H812 C830 0.951 . S
H813 C832 0.951 . S
H814 C834 0.950 . S
H815 C835 0.950 . S
H816 C837 0.950 . S
H817 C840 0.950 . S
H818 C841 0.950 . S
H819 C843 0.950 . S
H820 C844 0.950 . S
H821 C845 0.951 . S
H822 C847 0.951 . S
H823 C849 0.950 . S
H824 C850 0.950 . S
H825 C852 0.950 . S
H826 C855 0.950 . S
H827 C856 0.950 . S
H828 C858 0.950 . S
H829 C859 0.950 . S
C830 H812 0.951 . S
C830 C831 1.366 . S
C830 C832 1.388 . S
C831 C830 1.366 . S
C831 C835 1.385 . S
C832 H813 0.951 . S
C832 C830 1.388 . S
C832 C833 1.366 . S
C833 C832 1.366 . S
C833 C834 1.414 . S
C833 C836 1.499 . S
C834 H814 0.950 . S
C834 C833 1.414 . S
C834 C835 1.374 . S
C835 H815 0.950 . S
C835 C831 1.385 . S
C835 C834 1.374 . S
C836 C833 1.499 . S
C836 C837 1.373 . S
C836 C838 1.389 . S
C837 H816 0.950 . S
C837 C836 1.373 . S
C837 C853 1.377 . S
C838 C836 1.389 . S
C838 C839 1.524 . S
C838 C852 1.377 . S
C839 C838 1.524 . S
C839 C840 1.397 . S
C839 C844 1.363 . S
C840 H817 0.950 . S
C840 C839 1.397 . S
C840 C841 1.334 . S
C841 H818 0.950 . S
C841 C840 1.334 . S
C841 C842 1.287 . S
C842 C841 1.287 . S
C842 C843 1.524 . S
C842 H861 0.913 . S
C843 H819 0.950 . S
C843 C842 1.524 . S
C843 C844 1.415 . S
C844 H820 0.950 . S
C844 C839 1.363 . S
C844 C843 1.415 . S
C845 H821 0.951 . S
C845 C846 1.366 . S
C845 C847 1.388 . S
C846 C845 1.366 . S
C846 C850 1.385 . S
C847 H822 0.951 . S
C847 C845 1.388 . S
C847 C848 1.366 . S
C848 C847 1.366 . S
C848 C849 1.414 . S
C848 C851 1.499 . S
C849 H823 0.950 . S
C849 C848 1.414 . S
C849 C850 1.374 . S
C850 H824 0.950 . S
C850 C846 1.385 . S
C850 C849 1.374 . S
C851 C848 1.499 . S
C851 C852 1.373 . S
C851 C853 1.389 . S
C852 H825 0.950 . S
C852 C838 1.377 . S
C852 C851 1.373 . S
C853 C837 1.377 . S
C853 C851 1.389 . S
C853 C854 1.524 . S
C854 C853 1.524 . S
C854 C855 1.397 . S
C854 C859 1.363 . S
C855 H826 0.950 . S
C855 C854 1.397 . S
C855 C856 1.334 . S
C856 H827 0.950 . S
C856 C855 1.334 . S
C856 C857 1.287 . S
C857 C856 1.287 . S
C857 C858 1.524 . S
C857 H860 0.999 . S
C858 H828 0.950 . S
C858 C857 1.524 . S
C858 C859 1.415 . S
C859 H829 0.950 . S
C859 C854 1.363 . S
C859 C858 1.415 . S
H860 C857 0.999 . S
H861 C842 0.913 . S
H862 C880 0.951 . S
H863 C882 0.951 . S
H864 C884 0.950 . S
H865 C885 0.950 . S
H866 C887 0.950 . S
H867 C890 0.950 . S
H868 C891 0.950 . S
H869 C893 0.950 . S
H870 C894 0.950 . S
H871 C895 0.951 . S
H872 C897 0.951 . S
H873 C899 0.950 . S
H874 C900 0.950 . S
H875 C902 0.950 . S
H876 C905 0.950 . S
H877 C906 0.950 . S
H878 C908 0.950 . S
H879 C909 0.950 . S
C880 H862 0.951 . S
C880 C881 1.366 . S
C880 C882 1.388 . S
C881 C880 1.366 . S
C881 C885 1.385 . S
C882 H863 0.951 . S
C882 C880 1.388 . S
C882 C883 1.366 . S
C883 C882 1.366 . S
C883 C884 1.414 . S
C883 C886 1.499 . S
C884 H864 0.950 . S
C884 C883 1.414 . S
C884 C885 1.374 . S
C885 H865 0.950 . S
C885 C881 1.385 . S
C885 C884 1.374 . S
C886 C883 1.499 . S
C886 C887 1.373 . S
C886 C888 1.389 . S
C887 H866 0.950 . S
C887 C886 1.373 . S
C887 C903 1.377 . S
C888 C886 1.389 . S
C888 C889 1.524 . S
C888 C902 1.377 . S
C889 C888 1.524 . S
C889 C890 1.397 . S
C889 C894 1.363 . S
C890 H867 0.950 . S
C890 C889 1.397 . S
C890 C891 1.334 . S
C891 H868 0.950 . S
C891 C890 1.334 . S
C891 C892 1.287 . S
C892 C891 1.287 . S
C892 C893 1.524 . S
C892 H911 0.913 . S
C893 H869 0.950 . S
C893 C892 1.524 . S
C893 C894 1.415 . S
C894 H870 0.950 . S
C894 C889 1.363 . S
C894 C893 1.415 . S
C895 H871 0.951 . S
C895 C896 1.366 . S
C895 C897 1.388 . S
C896 C895 1.366 . S
C896 C900 1.385 . S
C897 H872 0.951 . S
C897 C895 1.388 . S
C897 C898 1.366 . S
C898 C897 1.366 . S
C898 C899 1.414 . S
C898 C901 1.499 . S
C899 H873 0.950 . S
C899 C898 1.414 . S
C899 C900 1.374 . S
C900 H874 0.950 . S
C900 C896 1.385 . S
C900 C899 1.374 . S
C901 C898 1.499 . S
C901 C902 1.373 . S
C901 C903 1.389 . S
C902 H875 0.950 . S
C902 C888 1.377 . S
C902 C901 1.373 . S
C903 C887 1.377 . S
C903 C901 1.389 . S
C903 C904 1.524 . S
C904 C903 1.524 . S
C904 C905 1.397 . S
C904 C909 1.363 . S
C905 H876 0.950 . S
C905 C904 1.397 . S
C905 C906 1.334 . S
C906 H877 0.950 . S
C906 C905 1.334 . S
C906 C907 1.287 . S
C907 C906 1.287 . S
C907 C908 1.524 . S
C907 H910 0.999 . S
C908 H878 0.950 . S
C908 C907 1.524 . S
C908 C909 1.415 . S
C909 H879 0.950 . S
C909 C904 1.363 . S
C909 C908 1.415 . S
H910 C907 0.999 . S
H911 C892 0.913 . S
C131 C4 1.274 . S
C146 C88 1.275 . S
C181 C18 1.275 . S
C196 C102 1.274 . S
C231 C60 1.276 . S
C246 C32 1.275 . S
C281 C74 1.275 . S
C296 C46 1.274 . S
C331 C5 1.031 . S
C346 C75 1.032 . S
C381 C19 1.032 . S
C396 C89 1.031 . S
C431 C103 1.033 1_556 S
C446 C33 1.032 . S
C481 C47 1.031 . S
C496 C61 1.031 . S
C531 C68 1.245 . S
C546 C12 1.246 . S
C581 C26 1.245 . S
C596 C82 1.245 . S
C631 C40 1.246 . S
C646 C96 1.245 . S
C681 C110 1.245 . S
C696 C54 1.246 . S
C731 C95 1.250 . S
C746 C11 1.249 . S
C781 C109 1.250 . S
C796 C25 1.250 . S
C831 C39 1.249 . S
C846 C67 1.250 . S
C881 C53 1.250 . S
C896 C81 1.249 . S
