# Generated by pormake.
# Topology wjf, (4)-cn, num edge types: 1
# Building blocks:
#     Node 0, Type 0, BuildingBlock: NAHDIM_clean_sbu_0, # of connection points: 4
#     Node 1, Type 0, BuildingBlock: NAHDIM_clean_sbu_0, # of connection points: 4
#     Node 2, Type 0, BuildingBlock: NAHDIM_clean_sbu_0, # of connection points: 4
#     Node 3, Type 0, BuildingBlock: NAHDIM_clean_sbu_0, # of connection points: 4
#     Node 4, Type 0, BuildingBlock: NAHDIM_clean_sbu_0, # of connection points: 4
#     Node 5, Type 0, BuildingBlock: NAHDIM_clean_sbu_0, # of connection points: 4
#     Node 6, Type 0, BuildingBlock: NAHDIM_clean_sbu_0, # of connection points: 4
#     Node 7, Type 0, BuildingBlock: NAHDIM_clean_sbu_0, # of connection points: 4
#     Node 8, Type 0, BuildingBlock: NAHDIM_clean_sbu_0, # of connection points: 4
#     Node 9, Type 0, BuildingBlock: NAHDIM_clean_sbu_0, # of connection points: 4
#     Node 10, Type 0, BuildingBlock: NAHDIM_clean_sbu_0, # of connection points: 4
#     Node 11, Type 0, BuildingBlock: NAHDIM_clean_sbu_0, # of connection points: 4
#     Edge 12, Type (0, 0), BuildingBlock: TEMPAE_clean_linker_10, # of connection points: 2
#     Edge 13, Type (0, 0), BuildingBlock: TEMPAE_clean_linker_10, # of connection points: 2
#     Edge 14, Type (0, 0), BuildingBlock: TEMPAE_clean_linker_10, # of connection points: 2
#     Edge 15, Type (0, 0), BuildingBlock: TEMPAE_clean_linker_10, # of connection points: 2
#     Edge 16, Type (0, 0), BuildingBlock: TEMPAE_clean_linker_10, # of connection points: 2
#     Edge 17, Type (0, 0), BuildingBlock: TEMPAE_clean_linker_10, # of connection points: 2
#     Edge 18, Type (0, 0), BuildingBlock: TEMPAE_clean_linker_10, # of connection points: 2
#     Edge 19, Type (0, 0), BuildingBlock: TEMPAE_clean_linker_10, # of connection points: 2
#     Edge 20, Type (0, 0), BuildingBlock: TEMPAE_clean_linker_10, # of connection points: 2
#     Edge 21, Type (0, 0), BuildingBlock: TEMPAE_clean_linker_10, # of connection points: 2
#     Edge 22, Type (0, 0), BuildingBlock: TEMPAE_clean_linker_10, # of connection points: 2
#     Edge 23, Type (0, 0), BuildingBlock: TEMPAE_clean_linker_10, # of connection points: 2
#     Edge 24, Type (0, 0), BuildingBlock: TEMPAE_clean_linker_10, # of connection points: 2
#     Edge 25, Type (0, 0), BuildingBlock: TEMPAE_clean_linker_10, # of connection points: 2
#     Edge 26, Type (0, 0), BuildingBlock: TEMPAE_clean_linker_10, # of connection points: 2
#     Edge 27, Type (0, 0), BuildingBlock: TEMPAE_clean_linker_10, # of connection points: 2
#     Edge 28, Type (0, 0), BuildingBlock: TEMPAE_clean_linker_10, # of connection points: 2
#     Edge 29, Type (0, 0), BuildingBlock: TEMPAE_clean_linker_10, # of connection points: 2
#     Edge 30, Type (0, 0), BuildingBlock: TEMPAE_clean_linker_10, # of connection points: 2
#     Edge 31, Type (0, 0), BuildingBlock: TEMPAE_clean_linker_10, # of connection points: 2
#     Edge 32, Type (0, 0), BuildingBlock: TEMPAE_clean_linker_10, # of connection points: 2
#     Edge 33, Type (0, 0), BuildingBlock: TEMPAE_clean_linker_10, # of connection points: 2
#     Edge 34, Type (0, 0), BuildingBlock: TEMPAE_clean_linker_10, # of connection points: 2
#     Edge 35, Type (0, 0), BuildingBlock: TEMPAE_clean_linker_10, # of connection points: 2
# Relax obj value: 0.236
# Max RMSD: 0.248
# Mean RMSD: 0.248
data_MOF--net-wjf--node1-NAHDIM_clean_sbu_0--edge1-TEMPAE_clean_linker_10
_symmetry_space_group_name_H-M    P1
_symmetry_Int_Tables_number       1
_symmetry_cell_setting            triclinic
loop_
_symmetry_equiv_pos_as_xyz
'x, y, z'
_cell_length_a     52.267317
_cell_length_b     2.308786
_cell_length_c     25.948476
_cell_angle_alpha  89.966885
_cell_angle_beta   90.044242
_cell_angle_gamma 119.94965
loop_
_atom_site_label
_atom_site_type_symbol
_atom_site_fract_x
_atom_site_fract_y
_atom_site_fract_z
_atom_type_partial_charge
C0 C 0.30049 10.33229 0.15792 0.0
O1 O 0.28903 9.93623 0.19791 0.0
O2 O 0.33203 9.50775 0.23327 0.0
Zn3 Zn 0.34675 9.98349 0.16579 0.0
O4 O 0.33841 9.30836 0.11031 0.0
C5 C 0.40715 10.48511 0.19701 0.0
O6 O 0.39516 9.94478 0.22581 0.0
O7 O 0.32574 10.46288 0.14175 0.0
C8 C 0.35296 9.01295 0.10173 0.0
O9 O 0.37521 9.12907 0.13187 0.0
C10 C 0.30898 8.93543 0.23681 0.0
O11 O 0.29289 8.65878 0.19553 0.0
O12 O 0.39061 10.6139 0.16906 0.0
C13 C 0.8846 6.43641 0.41681 0.0
O14 O 0.89161 6.3925 0.46473 0.0
O15 O 0.95913 7.07404 0.46297 0.0
Zn16 Zn 0.94692 7.44256 0.40366 0.0
O17 O 0.96878 7.49592 0.33859 0.0
C18 C 0.96716 8.64536 0.46466 0.0
O19 O 0.97313 8.30755 0.49861 0.0
O20 O 0.90427 6.8545 0.38667 0.0
C21 C 0.99122 8.03561 0.32396 0.0
O22 O 0.00203 8.56049 0.35435 0.0
C23 C 0.98389 7.09606 0.46524 0.0
O24 O 0.00105 7.28938 0.42445 0.0
O25 O 0.95509 8.36964 0.42214 0.0
C26 C 0.57159 19.49335 0.71971 0.0
O27 O 0.59965 19.87145 0.73138 0.0
O28 O 0.59761 20.90984 0.80765 0.0
Zn29 Zn 0.57451 20.70799 0.74188 0.0
O30 O 0.6007 21.16781 0.68132 0.0
C31 C 0.54935 21.49302 0.77805 0.0
O32 O 0.57379 21.78152 0.80535 0.0
O33 O 0.55454 19.73368 0.72458 0.0
C34 C 0.6067 21.74174 0.66536 0.0
O35 O 0.5974 22.08615 0.69177 0.0
C36 C 0.62549 21.17232 0.81084 0.0
O37 O 0.6412 21.30141 0.76852 0.0
O38 O 0.54456 21.01049 0.74839 0.0
C39 C 0.72877 14.2288 0.0442 0.0
O40 O 0.73437 14.8334 0.03192 0.0
O41 O 0.68547 14.89993 0.10615 0.0
Zn42 Zn 0.67299 14.09987 0.06012 0.0
O43 O 0.66768 14.31459 0.98746 0.0
C44 C 0.62501 13.34411 0.13186 0.0
O45 O 0.6429 13.79814 0.16477 0.0
O46 O 0.70299 13.80236 0.05912 0.0
C47 C 0.64396 14.29768 0.974 0.0
O48 O 0.62365 14.17202 0.00895 0.0
C49 C 0.70313 15.02503 0.14368 0.0
O50 O 0.71624 14.66897 0.1489 0.0
O51 O 0.63363 13.35848 0.08578 0.0
C52 C 0.14952 16.07378 0.46147 0.0
O53 O 0.13927 16.37839 0.49049 0.0
O54 O 0.0824 15.27883 0.53966 0.0
Zn55 Zn 0.09033 14.98285 0.47194 0.0
O56 O 0.07017 15.18427 0.41477 0.0
C57 C 0.05176 13.61251 0.50089 0.0
O58 O 0.03936 13.88007 0.52877 0.0
O59 O 0.1331 15.45465 0.45237 0.0
C60 C 0.04245 14.93653 0.4102 0.0
O61 O 0.02482 14.52807 0.4458 0.0
C62 C 0.07556 15.73257 0.54448 0.0
O63 O 0.07579 16.07333 0.50374 0.0
O64 O 0.07433 13.9902 0.47388 0.0
C65 C 0.36922 2.16044 0.67223 0.0
O66 O 0.34401 1.6456 0.65773 0.0
O67 O 0.34602 0.77288 0.77042 0.0
Zn68 Zn 0.37407 1.09154 0.7107 0.0
O69 O 0.35525 0.59213 0.6454 0.0
C70 C 0.4061 0.54741 0.76266 0.0
O71 O 0.38141 0.23707 0.78902 0.0
O72 O 0.38732 2.05649 0.69767 0.0
C73 C 0.35672 0.08485 0.63079 0.0
O74 O 0.36905 22.49508 0.66119 0.0
C75 C 0.321 0.24191 0.77179 0.0
O76 O 0.31054 22.53927 0.72971 0.0
O77 O 0.40862 0.95942 0.72767 0.0
C78 C 0.54427 15.61592 0.51291 0.0
O79 O 0.55798 15.75342 0.46834 0.0
O80 O 0.58487 14.87156 0.45908 0.0
Zn81 Zn 0.55901 14.54974 0.52152 0.0
O82 O 0.58325 14.61825 0.5839 0.0
C83 C 0.53294 13.20164 0.48465 0.0
O84 O 0.55896 13.44 0.46283 0.0
O85 O 0.54108 15.11597 0.53857 0.0
C86 C 0.58441 14.12951 0.60391 0.0
O87 O 0.57051 13.54165 0.58151 0.0
C88 C 0.60974 15.4046 0.45583 0.0
O89 O 0.61981 15.81432 0.49534 0.0
O90 O 0.5275 13.59158 0.51106 0.0
C91 C 0.90139 13.54847 -0.00307 0.0
O92 O 0.91458 13.41321 0.0343 0.0
O93 O 0.97821 14.94091 0.90247 0.0
Zn94 Zn 0.95913 14.16155 0.95093 0.0
O95 O 0.97715 14.43158 0.021 0.0
C96 C 0.98307 13.51848 0.88669 0.0
O97 O 0.99485 14.08882 0.86169 0.0
O98 O 0.91588 13.84182 0.95663 0.0
C99 C 0.97333 14.82706 0.04976 0.0
O100 O 0.95813 15.09874 0.03226 0.0
C101 C 0.96384 14.96402 0.86379 0.0
O102 O 0.93563 14.51925 0.86005 0.0
O103 O 0.96637 13.42964 0.92512 0.0
C104 C 0.28578 19.23557 0.20294 0.0
O105 O 0.27242 19.5273 0.18126 0.0
O106 O 0.3193 20.66399 0.11727 0.0
Zn107 Zn 0.33467 20.51102 0.18374 0.0
O108 O 0.3277 20.9724 0.24305 0.0
C109 C 0.394 21.34633 0.14718 0.0
O110 O 0.38114 21.6049 0.1194 0.0
O111 O 0.31379 19.54652 0.20437 0.0
C112 C 0.34637 21.55454 0.25857 0.0
O113 O 0.37073 21.91012 0.23209 0.0
C114 C 0.30124 20.87916 0.1134 0.0
O115 O 0.29006 20.98344 0.15534 0.0
O116 O 0.37835 20.86046 0.17719 0.0
C117 C 0.38307 6.60086 0.61855 0.0
O118 O 0.39889 7.04817 0.5835 0.0
O119 O 0.32179 7.21699 0.59386 0.0
Zn120 Zn 0.35647 7.43344 0.63963 0.0
O121 O 0.34965 7.65622 0.71089 0.0
C122 C 0.39398 8.38453 0.56233 0.0
O123 O 0.37416 7.95192 0.53039 0.0
O124 O 0.3643 6.67112 0.64479 0.0
C125 C 0.337 7.20905 0.74521 0.0
O126 O 0.32665 6.57874 0.73292 0.0
C127 C 0.3136 6.77555 0.55881 0.0
O128 O 0.3252 6.38552 0.55748 0.0
O129 O 0.39152 8.2543 0.61032 0.0
C130 C 0.14818 9.81911 0.90582 0.0
O131 O 0.13205 9.18413 0.89361 0.0
O132 O 0.0864 9.2544 0.81182 0.0
Zn133 Zn 0.09486 9.75734 0.87856 0.0
O134 O 0.07339 9.14923 0.93797 0.0
C135 C 0.06141 10.36196 0.84226 0.0
O136 O 0.04881 9.82469 0.81318 0.0
O137 O 0.13756 10.2014 0.89854 0.0
C138 C 0.048 9.02117 0.95309 0.0
O139 O 0.03344 9.24543 0.92622 0.0
C140 C 0.07534 8.6257 0.80762 0.0
O141 O 0.07032 8.2614 0.84931 0.0
O142 O 0.08208 10.44574 0.8727 0.0
C143 C 0.72366 2.41815 0.24428 0.0
O144 O 0.73098 1.955 0.23775 0.0
O145 O 0.687 1.07707 0.1543 0.0
Zn146 Zn 0.67099 1.31514 0.21598 0.0
O147 O 0.66995 0.80202 0.27914 0.0
C148 C 0.61463 0.68985 0.16532 0.0
O149 O 0.62711 0.41069 0.13911 0.0
O150 O 0.69735 2.27538 0.23444 0.0
C151 C 0.64706 0.26841 0.29323 0.0
O152 O 0.62374 0.00196 0.26311 0.0
C153 C 0.69156 0.5863 0.15194 0.0
O154 O 0.68838 0.2349 0.19371 0.0
O155 O 0.62947 1.11543 0.2001 0.0
C156 C 0.32365 8.78006 0.32476 0.0
C157 C 0.30228 8.55922 0.28575 0.0
C158 C 0.31914 8.40074 0.36939 0.0
C159 C 0.29235 7.78918 0.37564 0.0
C160 C 0.27007 7.57723 0.33754 0.0
C161 C 0.27543 7.96232 0.29266 0.0
C162 C 0.34362 8.64295 0.4089 0.0
C163 C 0.241 6.9364 0.34349 0.0
C164 C 0.30465 6.65852 0.46419 0.0
C165 C 0.29946 6.85833 0.51222 0.0
C166 C 0.2998 6.91212 0.41842 0.0
C167 C 0.28892 7.36334 0.42095 0.0
C168 C 0.2801 7.49705 0.46894 0.0
C169 C 0.28575 7.24745 0.5142 0.0
C170 C 0.30955 6.75719 0.36805 0.0
C171 C 0.26751 7.95804 0.47305 0.0
H172 H 0.34448 9.23984 0.31969 0.0
H173 H 0.25873 7.79142 0.26276 0.0
H174 H 0.3353 8.67643 0.44745 0.0
H175 H 0.35163 8.28034 0.41185 0.0
H176 H 0.36262 9.14085 0.39903 0.0
H177 H 0.22452 6.89262 0.31439 0.0
H178 H 0.24448 6.50306 0.33902 0.0
H179 H 0.23176 6.90429 0.38256 0.0
H180 H 0.31507 6.35424 0.4623 0.0
H181 H 0.28126 7.39468 0.55126 0.0
H182 H 0.33059 7.19899 0.3557 0.0
H183 H 0.29302 6.65068 0.33735 0.0
H184 H 0.31317 6.32361 0.37146 0.0
H185 H 0.28566 8.48406 0.46994 0.0
H186 H 0.25611 7.89768 0.51045 0.0
H187 H 0.25172 7.86617 0.44125 0.0
C188 C 0.02521 7.2083 0.52111 0.0
C189 C 0.99601 7.07407 0.51635 0.0
C190 C 0.03917 7.34837 0.56941 0.0
C191 C 0.02361 7.3605 0.61363 0.0
C192 C 0.99333 7.1627 0.60965 0.0
C193 C 0.97983 7.01668 0.56107 0.0
C194 C 0.07128 7.53913 0.57236 0.0
C195 C 0.97589 7.16858 0.65584 0.0
C196 C 0.054 7.61771 0.75003 0.0
C197 C 0.065 8.30544 0.75663 0.0
C198 C 0.04164 7.30378 0.70281 0.0
C199 C 0.03985 7.68594 0.66175 0.0
C200 C 0.05181 8.38374 0.66773 0.0
C201 C 0.06442 8.68494 0.7149 0.0
C202 C 0.02957 6.56107 0.69748 0.0
C203 C 0.05014 8.80964 0.62502 0.0
H204 H 0.03776 7.24377 0.48684 0.0
H205 H 0.95711 6.90417 0.55793 0.0
H206 H 0.08509 8.09013 0.57594 0.0
H207 H 0.0755 7.31393 0.6068 0.0
H208 H 0.07843 7.38002 0.53743 0.0
H209 H 0.95183 6.91855 0.64769 0.0
H210 H 0.97951 6.91787 0.68921 0.0
H211 H 0.98354 7.69364 0.66718 0.0
H212 H 0.05455 7.32196 0.78202 0.0
H213 H 0.07287 9.21656 0.71957 0.0
H214 H 0.03703 6.44725 0.66078 0.0
H215 H 0.0051 6.29978 0.6965 0.0
H216 H 0.03644 6.35538 0.72997 0.0
H217 H 0.06041 8.75284 0.58942 0.0
H218 H 0.06136 9.34831 0.63534 0.0
H219 H 0.02669 8.64153 0.61602 0.0
C220 C 0.67083 21.70179 0.8665 0.0
C221 C 0.64006 21.40035 0.86158 0.0
C222 C 0.68489 21.98441 0.91353 0.0
C223 C 0.66773 21.97239 0.95613 0.0
C224 C 0.63658 21.6413 0.95196 0.0
C225 C 0.62315 21.35599 0.90489 0.0
C226 C 0.7181 22.32168 0.91688 0.0
C227 C 0.61743 21.61905 0.99644 0.0
C228 C 0.69076 22.35262 0.09565 0.0
C229 C 0.69328 0.32778 0.10066 0.0
C230 C 0.68522 22.03675 0.0474 0.0
C231 C 0.68192 22.35938 0.0036 0.0
C232 C 0.6874 0.36645 0.00771 0.0
C233 C 0.69321 0.67239 0.05617 0.0
C234 C 0.68035 21.33623 0.04421 0.0
C235 C 0.68423 0.73013 0.96191 0.0
H236 H 0.68404 21.73292 0.83331 0.0
H237 H 0.59935 21.12079 0.9016 0.0
H238 H 0.72761 0.21547 0.91649 0.0
H239 H 0.72499 22.19017 0.95346 0.0
H240 H 0.72762 22.18308 0.88408 0.0
H241 H 0.59349 21.31271 0.98763 0.0
H242 H 0.62223 21.41032 0.03123 0.0
H243 H 0.62242 22.13369 0.006 0.0
H244 H 0.69123 22.08632 0.12972 0.0
H245 H 0.69566 1.16571 0.05952 0.0
H246 H 0.69048 21.27014 0.00877 0.0
H247 H 0.6563 20.97435 0.04251 0.0
H248 H 0.68962 21.21241 0.07826 0.0
H249 H 0.69602 0.68618 0.92798 0.0
H250 H 0.69286 1.26872 0.97004 0.0
H251 H 0.66053 0.49976 0.95147 0.0
C252 C 0.68562 15.74706 0.18401 0.0
C253 C 0.70155 15.40772 0.18806 0.0
C254 C 0.67602 15.93162 0.22826 0.0
C255 C 0.68225 15.76473 0.27735 0.0
C256 C 0.70159 15.50381 0.28158 0.0
C257 C 0.71121 15.33227 0.23673 0.0
C258 C 0.65637 16.23283 0.2222 0.0
C259 C 0.70904 15.32471 0.33322 0.0
C260 C 0.65443 16.13106 0.40185 0.0
C261 C 0.62785 15.52827 0.40897 0.0
C262 C 0.67218 16.22924 0.35831 0.0
C263 C 0.66331 15.70705 0.32189 0.0
C264 C 0.63626 15.10304 0.32861 0.0
C265 C 0.61883 15.02384 0.37175 0.0
C266 C 0.70062 16.88361 0.352 0.0
C267 C 0.62593 14.531 0.29079 0.0
H268 H 0.67867 15.82217 0.14642 0.0
H269 H 0.72399 15.08181 0.24023 0.0
H270 H 0.63296 15.83391 0.22629 0.0
H271 H 0.66106 16.61231 0.25248 0.0
H272 H 0.65912 16.46908 0.18376 0.0
H273 H 0.72826 15.24416 0.33072 0.0
H274 H 0.71395 15.72115 0.36203 0.0
H275 H 0.68976 14.85655 0.34743 0.0
H276 H 0.66148 16.52425 0.43039 0.0
H277 H 0.59834 14.5564 0.37686 0.0
H278 H 0.7035 17.06066 0.31153 0.0
H279 H 0.71954 16.812 0.36163 0.0
H280 H 0.70149 17.27813 0.37766 0.0
H281 H 0.6234 14.69542 0.25188 0.0
H282 H 0.6045 14.09345 0.30216 0.0
H283 H 0.64256 14.36758 0.28786 0.0
C284 C 0.01061 15.80998 0.82138 0.0
C285 C 0.9803 15.34753 0.81788 0.0
C286 C 0.02818 16.03641 0.77698 0.0
C287 C 0.01512 15.78556 0.72832 0.0
C288 C 0.98408 15.37852 0.72425 0.0
C289 C 0.96697 15.16881 0.76918 0.0
C290 C 0.06108 16.49026 0.78268 0.0
C291 C 0.96925 15.10186 0.67303 0.0
C292 C 0.05658 16.31426 0.60122 0.0
C293 C 0.0635 15.80556 0.59401 0.0
C294 C 0.04209 16.33771 0.64609 0.0
C295 C 0.03389 15.83317 0.68385 0.0
C296 C 0.04187 15.33438 0.67762 0.0
C297 C 0.05678 15.33057 0.63301 0.0
C298 C 0.03456 16.88587 0.65203 0.0
C299 C 0.03346 14.78441 0.71695 0.0
H300 H 0.02097 15.96076 0.85894 0.0
H301 H 0.94349 14.81828 0.76609 0.0
H302 H 0.07221 16.18889 0.78009 0.0
H303 H 0.06992 16.86724 0.75133 0.0
H304 H 0.06683 16.75301 0.8204 0.0
H305 H 0.94488 14.87584 0.67541 0.0
H306 H 0.97777 15.49853 0.6432 0.0
H307 H 0.97425 14.71047 0.66016 0.0
H308 H 0.0619 16.68589 0.57136 0.0
H309 H 0.06209 14.93646 0.62785 0.0
H310 H 0.03906 17.08598 0.69191 0.0
H311 H 0.01068 16.68074 0.64453 0.0
H312 H 0.04719 17.30396 0.6247 0.0
H313 H 0.04215 15.00203 0.75548 0.0
H314 H 0.042 14.44437 0.70683 0.0
H315 H 0.00906 14.48276 0.72014 0.0
C316 C 0.27589 21.3183 0.05649 0.0
C317 C 0.29581 21.08248 0.06233 0.0
C318 C 0.27319 21.57934 0.00914 0.0
C319 C 0.2912 21.61394 0.9672 0.0
C320 C 0.31034 21.34869 0.97231 0.0
C321 C 0.31223 21.08221 0.01964 0.0
C322 C 0.25212 21.84518 0.0048 0.0
C323 C 0.33009 21.37906 0.9286 0.0
C324 C 0.28437 21.95871 0.82705 0.0
C325 C 0.30779 -0.03846 0.82263 0.0
C326 C 0.27653 21.63887 0.87522 0.0
C327 C 0.29273 21.98591 0.91954 0.0
C328 C 0.31433 0.01442 0.91591 0.0
C329 C 0.32144 0.32336 0.86752 0.0
C330 C 0.25271 20.91381 0.8779 0.0
C331 C 0.33209 0.40439 0.96224 0.0
H332 H 0.26293 21.31481 0.0892 0.0
H333 H 0.32758 20.89825 0.02365 0.0
H334 H 0.26474 22.39937 0.00582 0.0
H335 H 0.23999 21.69445 0.96766 0.0
H336 H 0.23588 21.66717 0.03688 0.0
H337 H 0.34265 21.12152 0.93811 0.0
H338 H 0.31681 21.14647 0.89345 0.0
H339 H 0.34611 21.90858 0.91927 0.0
H340 H 0.27336 21.67817 0.79265 0.0
H341 H 0.33921 0.83718 0.86463 0.0
H342 H 0.23886 20.81624 0.91277 0.0
H343 H 0.26307 20.59639 0.88041 0.0
H344 H 0.23827 20.75998 0.84328 0.0
H345 H 0.31742 0.3251 0.99555 0.0
H346 H 0.34531 0.9492 0.95428 0.0
H347 H 0.34743 0.22481 0.97358 0.0
C348 C 0.18811 10.66185 0.96289 0.0
C349 C 0.17546 10.04987 0.93645 0.0
C350 C 0.21095 10.83301 -0.00129 0.0
C351 C 0.22135 10.3823 0.00804 0.0
C352 C 0.20985 9.78286 0.97922 0.0
C353 C 0.18703 9.62394 0.94382 0.0
C354 C 0.22282 11.47846 0.02845 0.0
C355 C 0.22064 9.29242 0.98755 0.0
C356 C 0.29243 10.80878 0.07699 0.0
C357 C 0.28164 10.48486 0.12446 0.0
C358 C 0.27328 10.82204 0.0397 0.0
C359 C 0.24269 10.50588 0.05027 0.0
C360 C 0.23207 10.23086 0.09972 0.0
C361 C 0.2517 10.22439 0.13629 0.0
C362 C 0.28551 11.12764 0.98767 0.0
C363 C 0.19961 9.89635 0.1127 0.0
H364 H 0.1793 10.99445 0.95739 0.0
H365 H 0.17755 9.15309 0.92323 0.0
H366 H 0.21524 11.36645 0.06903 0.0
H367 H 0.24731 11.74933 0.02897 0.0
H368 H 0.21528 11.81242 0.01202 0.0
H369 H 0.21079 8.87117 0.95968 0.0
H370 H 0.24502 9.54904 0.98392 0.0
H371 H 0.21493 9.08432 0.02714 0.0
H372 H 0.3156 11.01862 0.06765 0.0
H373 H 0.2432 9.9795 0.17303 0.0
H374 H 0.27579 11.43247 0.97426 0.0
H375 H 0.27958 10.72332 0.95903 0.0
H376 H 0.30994 11.44692 0.98838 0.0
H377 H 0.1904 10.219 0.10139 0.0
H378 H 0.19542 9.77965 0.15443 0.0
H379 H 0.18747 9.42262 0.0907 0.0
C380 C 0.83638 5.36748 0.42368 0.0
C381 C 0.85578 5.93384 0.3951 0.0
C382 C 0.81178 4.83072 0.40015 0.0
C383 C 0.80662 4.86393 0.34693 0.0
C384 C 0.82473 5.45628 0.31902 0.0
C385 C 0.84908 5.98487 0.34348 0.0
C386 C 0.79268 4.20927 0.43132 0.0
C387 C 0.81985 5.5129 0.26229 0.0
C388 C 0.7745 3.2334 0.27356 0.0
C389 C 0.74497 3.06699 0.26748 0.0
C390 C 0.79474 3.82043 0.29893 0.0
C391 C 0.78519 4.25108 0.31895 0.0
C392 C 0.75554 4.09358 0.31219 0.0
C393 C 0.73574 3.50274 0.28631 0.0
C394 C 0.8263 3.97497 0.30487 0.0
C395 C 0.74465 4.54161 0.33314 0.0
H396 H 0.84123 5.32681 0.4637 0.0
H397 H 0.86372 6.42544 0.32126 0.0
H398 H 0.76895 4.02579 0.42385 0.0
H399 H 0.79726 3.80752 0.41966 0.0
H400 H 0.79689 4.29741 0.47335 0.0
H401 H 0.83307 6.03513 0.24813 0.0
H402 H 0.82627 5.19523 0.24 0.0
H403 H 0.79619 5.33083 0.25426 0.0
H404 H 0.78181 2.90049 0.25892 0.0
H405 H 0.71288 3.37489 0.28191 0.0
H406 H 0.83195 4.00229 0.34636 0.0
H407 H 0.84158 4.46927 0.2876 0.0
H408 H 0.83024 3.59295 0.2863 0.0
H409 H 0.74673 4.56814 0.37574 0.0
H410 H 0.72123 4.36162 0.32283 0.0
H411 H 0.75842 5.0575 0.31822 0.0
C412 C 0.53398 18.5196 0.66838 0.0
C413 C 0.56132 18.8436 0.69388 0.0
C414 C 0.52591 17.95032 0.63803 0.0
C415 C 0.54563 17.70079 0.63336 0.0
C416 C 0.57263 18.00844 0.66089 0.0
C417 C 0.58014 18.57617 0.69076 0.0
C418 C 0.49689 17.6329 0.60939 0.0
C419 C 0.59412 17.75216 0.6574 0.0
C420 C 0.52518 15.97039 0.58751 0.0
C421 C 0.53845 16.11049 0.53862 0.0
C422 C 0.52532 16.4761 0.61756 0.0
C423 C 0.53901 17.13619 0.59817 0.0
C424 C 0.55007 17.26838 0.54712 0.0
C425 C 0.54961 16.75259 0.51785 0.0
C426 C 0.51298 16.31346 0.67157 0.0
C427 C 0.56455 17.96558 0.52488 0.0
H428 H 0.51933 18.72437 0.67056 0.0
H429 H 0.6012 18.8211 0.71063 0.0
H430 H 0.50113 17.71496 0.56739 0.0
H431 H 0.48456 17.08483 0.61589 0.0
H432 H 0.48277 17.84334 0.62124 0.0
H433 H 0.61357 18.03093 0.68298 0.0
H434 H 0.58298 17.21505 0.66795 0.0
H435 H 0.60206 17.79678 0.61715 0.0
H436 H 0.51611 15.47272 0.60361 0.0
H437 H 0.55967 16.864 0.47996 0.0
H438 H 0.49973 16.55628 0.68002 0.0
H439 H 0.53146 16.50938 0.69964 0.0
H440 H 0.49896 15.76628 0.67776 0.0
H441 H 0.55079 18.19909 0.53206 0.0
H442 H 0.56841 17.96893 0.48276 0.0
H443 H 0.58615 18.28056 0.54411 0.0
C444 C 0.74493 13.37696 0.03934 0.0
C445 C 0.75212 14.04919 0.04028 0.0
C446 C 0.76696 13.20358 0.03337 0.0
C447 C 0.7968 13.71534 0.02906 0.0
C448 C 0.8042 14.39432 0.03122 0.0
C449 C 0.78173 14.55279 0.0364 0.0
C450 C 0.75828 12.47495 0.03051 0.0
C451 C 0.83586 14.9545 0.02748 0.0
C452 C 0.86113 13.43644 0.05489 0.0
C453 C 0.87188 13.4694 0.00486 0.0
C454 C 0.83567 13.48104 0.06338 0.0
C455 C 0.82048 13.54923 0.02073 0.0
C456 C 0.83002 13.53233 0.97001 0.0
C457 C 0.85579 13.49826 0.96269 0.0
C458 C 0.82629 13.50272 0.11804 0.0
C459 C 0.81404 13.59051 0.92353 0.0
H460 H 0.72202 12.98587 0.04212 0.0
H461 H 0.78741 15.07291 0.03752 0.0
H462 H 0.76449 12.36644 0.99234 0.0
H463 H 0.7704 12.35855 0.06006 0.0
H464 H 0.7342 12.13771 0.03629 0.0
H465 H 0.83797 15.45478 0.03219 0.0
H466 H 0.84947 14.89283 0.05746 0.0
H467 H 0.84516 14.93757 0.98946 0.0
H468 H 0.87353 13.41535 0.08763 0.0
H469 H 0.86388 13.51667 0.92391 0.0
H470 H 0.80223 13.15995 0.1228 0.0
H471 H 0.83078 14.01528 0.12691 0.0
H472 H 0.83826 13.36558 0.14652 0.0
H473 H 0.78993 13.24177 0.9269 0.0
H474 H 0.82198 13.48341 0.88702 0.0
H475 H 0.81749 14.10468 0.92134 0.0
C476 C 0.1835 16.16415 0.39015 0.0
C477 C 0.17631 16.47016 0.42993 0.0
C478 C 0.20455 16.54863 0.35269 0.0
C479 C 0.2187 17.25367 0.35529 0.0
C480 C 0.21346 17.56378 0.39788 0.0
C481 C 0.19233 17.1677 0.43476 0.0
C482 C 0.20988 16.1999 0.30829 0.0
C483 C 0.22845 18.31548 0.40241 0.0
C484 C 0.28295 18.43559 0.27092 0.0
C485 C 0.26864 18.63413 0.23514 0.0
C486 C 0.26685 17.95515 0.30877 0.0
C487 C 0.23581 17.66819 0.31064 0.0
C488 C 0.22112 17.82962 0.27223 0.0
C489 C 0.23773 18.3105 0.23492 0.0
C490 C 0.28323 17.78935 0.34869 0.0
C491 C 0.18796 17.52738 0.2725 0.0
H492 H 0.17146 15.62453 0.38638 0.0
H493 H 0.18719 17.40794 0.46572 0.0
H494 H 0.19848 16.23761 0.27345 0.0
H495 H 0.23377 16.44136 0.29918 0.0
H496 H 0.20142 15.66212 0.31653 0.0
H497 H 0.22452 18.47651 0.4405 0.0
H498 H 0.2526 18.54435 0.39654 0.0
H499 H 0.21994 18.51336 0.37198 0.0
H500 H 0.30685 18.68111 0.27123 0.0
H501 H 0.2265 18.4558 0.20706 0.0
H502 H 0.27193 17.24297 0.35584 0.0
H503 H 0.28361 18.03468 0.38565 0.0
H504 H 0.30639 17.96356 0.33695 0.0
H505 H 0.17694 16.97477 0.27506 0.0
H506 H 0.17979 17.66197 0.23752 0.0
H507 H 0.18126 17.70565 0.30686 0.0
C508 C 0.40052 3.40323 0.68136 0.0
C509 C 0.37566 2.84638 0.66043 0.0
C510 C 0.40548 4.05227 0.67304 0.0
C511 C 0.38513 4.14322 0.64306 0.0
C512 C 0.3607 3.58524 0.62013 0.0
C513 C 0.35625 2.94371 0.62916 0.0
C514 C 0.43179 4.6369 0.69802 0.0
C515 C 0.33856 3.66266 0.58772 0.0
C516 C 0.37192 5.58292 0.66884 0.0
C517 C 0.38597 6.003 0.62666 0.0
C518 C 0.3726 4.98982 0.67571 0.0
C519 C 0.38758 4.81008 0.63936 0.0
C520 C 0.40273 5.24258 0.59769 0.0
C521 C 0.40181 5.8367 0.59187 0.0
C522 C 0.35633 4.54347 0.72088 0.0
C523 C 0.41892 5.06544 0.55824 0.0
H524 H 0.4157 3.33145 0.70536 0.0
H525 H 0.33715 2.51655 0.6124 0.0
H526 H 0.44416 5.03748 0.66932 0.0
H527 H 0.42412 4.85122 0.72851 0.0
H528 H 0.4471 4.49041 0.71569 0.0
H529 H 0.32209 3.18505 0.56944 0.0
H530 H 0.32661 3.84468 0.61216 0.0
H531 H 0.35 4.03978 0.55702 0.0
H532 H 0.35992 5.71191 0.69625 0.0
H533 H 0.41279 6.16064 0.55929 0.0
H534 H 0.37116 4.41878 0.74284 0.0
H535 H 0.33758 4.06664 0.70665 0.0
H536 H 0.34755 4.77847 0.74757 0.0
H537 H 0.43407 4.92762 0.57756 0.0
H538 H 0.43188 5.48294 0.53104 0.0
H539 H 0.40281 4.62396 0.53577 0.0
C540 C 0.34978 8.08306 0.81249 0.0
C541 C 0.33614 7.40461 0.79917 0.0
C542 C 0.35077 8.28174 0.86376 0.0
C543 C 0.33764 7.79008 0.9027 0.0
C544 C 0.32337 7.10408 0.88955 0.0
C545 C 0.32284 6.9189 0.83784 0.0
C546 C 0.36622 9.01916 0.8763 0.0
C547 C 0.30895 6.56729 0.93012 0.0
C548 C 0.36735 8.43142 0.03643 0.0
C549 C 0.34691 8.60877 0.05442 0.0
C550 C 0.36382 8.1313 0.98796 0.0
C551 C 0.33916 8.00222 0.95712 0.0
C552 C 0.31752 8.14176 0.97648 0.0
C553 C 0.3217 8.44526 0.02486 0.0
C554 C 0.38736 7.98938 0.96853 0.0
C555 C 0.29078 8.00506 0.94494 0.0
H556 H 0.36013 8.46194 0.78289 0.0
H557 H 0.31223 6.39356 0.82784 0.0
H558 H 0.35065 9.14469 0.89551 0.0
H559 H 0.38466 9.14603 0.90354 0.0
H560 H 0.37524 9.33744 0.84145 0.0
H561 H 0.29805 6.05647 0.91335 0.0
H562 H 0.32573 6.61113 0.95847 0.0
H563 H 0.29222 6.63297 0.95158 0.0
H564 H 0.38683 8.55415 0.05913 0.0
H565 H 0.30561 8.57376 0.0388 0.0
H566 H 0.39953 8.33448 0.93633 0.0
H567 H 0.37724 7.47255 0.95328 0.0
H568 H 0.40347 8.05375 -0.0009 0.0
H569 H 0.29777 8.35254 0.91163 0.0
H570 H 0.27441 8.0703 0.96776 0.0
H571 H 0.27982 7.48914 0.9293 0.0
C572 C 0.02331 8.72266 0.25121 0.0
C573 C 0.00212 8.09733 0.27049 0.0
C574 C 0.03095 8.80796 0.19886 0.0
C575 C 0.01721 8.25348 0.16507 0.0
C576 C 0.99697 7.61397 0.18475 0.0
C577 C 0.9896 7.54351 0.23726 0.0
C578 C 0.05275 9.49819 0.1793 0.0
C579 C 0.98216 7.01 0.14999 0.0
C580 C 0.01265 8.71234 0.02653 0.0
C581 C 0.03748 8.72589 0.00475 0.0
C582 C 0.00509 8.5319 0.07825 0.0
C583 C 0.02268 8.35661 0.10876 0.0
C584 C 0.04671 8.33072 0.0862 0.0
C585 C 0.05387 8.51704 0.03445 0.0
C586 C 0.9792 8.56324 0.10093 0.0
C587 C 0.06575 8.13842 0.11736 0.0
H588 H 0.03317 9.15259 0.27661 0.0
H589 H 0.97334 7.05715 0.25191 0.0
H590 H 0.07072 9.48571 0.15751 0.0
H591 H 0.04147 9.67206 0.15239 0.0
H592 H 0.06273 9.86832 0.21101 0.0
H593 H 0.96931 6.53837 0.17206 0.0
H594 H 0.96694 7.06472 0.12321 0.0
H595 H -0.00118 6.96991 0.12614 0.0
H596 H -0.00021 8.87027 0.00384 0.0
H597 H 0.07298 8.52115 0.01781 0.0
H598 H 0.98724 8.96666 0.13023 0.0
H599 H 0.96403 8.08717 0.12071 0.0
H600 H 0.96653 8.66212 0.07123 0.0
H601 H 0.07864 8.53502 0.14606 0.0
H602 H 0.08143 8.06908 0.09282 0.0
H603 H 0.05182 7.6695 0.13901 0.0
C604 C 0.62888 21.58596 0.58491 0.0
C605 C 0.61948 21.96278 0.61336 0.0
C606 C 0.63685 21.72965 0.5329 0.0
C607 C 0.6352 22.25974 0.50884 0.0
C608 C 0.62729 0.00794 0.53807 0.0
C609 C 0.61964 22.51253 0.59009 0.0
C610 C 0.6456 21.29374 0.50313 0.0
C611 C 0.62536 0.57942 0.51374 0.0
C612 C 0.66987 0.32099 0.37911 0.0
C613 C 0.64512 0.0226 0.34652 0.0
C614 C 0.66732 0.16571 0.4318 0.0
C615 C 0.63935 22.36108 0.4523 0.0
C616 C 0.61465 22.0314 0.41912 0.0
C617 C 0.61787 22.19237 0.36654 0.0
C618 C 0.69423 0.51938 0.46589 0.0
C619 C 0.58444 21.53477 0.43958 0.0
H620 H 0.62906 21.16332 0.60275 0.0
H621 H 0.61252 0.15119 0.61184 0.0
H622 H 0.62793 20.98333 0.47518 0.0
H623 H 0.66605 21.6055 0.48073 0.0
H624 H 0.64924 20.95586 0.52876 0.0
H625 H 0.62085 0.87324 0.54252 0.0
H626 H 0.64623 0.92043 0.49344 0.0
H627 H 0.60742 0.38086 0.48459 0.0
H628 H 0.69108 0.69397 0.36384 0.0
H629 H 0.59867 21.95774 0.34162 0.0
H630 H 0.69627 0.15567 0.49102 0.0
H631 H 0.69191 0.87578 0.49143 0.0
H632 H 0.71488 0.80124 0.44321 0.0
H633 H 0.58556 21.14248 0.46252 0.0
H634 H 0.56797 21.28986 0.40827 0.0
H635 H 0.57653 21.79348 0.46562 0.0
C636 C 0.6118 14.82756 0.68017 0.0
C637 C 0.59805 14.20467 0.65527 0.0
C638 C 0.62185 14.89126 0.73112 0.0
C639 C 0.61798 14.31829 0.75776 0.0
C640 C 0.60526 13.69397 0.73217 0.0
C641 C 0.59549 13.64492 0.68116 0.0
C642 C 0.63555 15.5663 0.75705 0.0
C643 C 0.60084 13.07189 0.75934 0.0
C644 C 0.65978 14.48247 0.88159 0.0
C645 C 0.63819 14.3561 0.91895 0.0
C646 C 0.65378 14.48758 0.82893 0.0
C647 C 0.62551 14.361 0.81334 0.0
C648 C 0.60389 14.2507 0.85089 0.0
C649 C 0.61053 14.25119 0.90326 0.0
C650 C 0.67743 14.61207 0.78995 0.0
C651 C 0.57347 14.11425 0.83569 0.0
H652 H 0.61403 15.26381 0.66035 0.0
H653 H 0.58499 13.16236 0.66218 0.0
H654 H 0.62091 15.55361 0.78851 0.0
H655 H 0.657 15.68979 0.77479 0.0
H656 H 0.6392 15.97149 0.72976 0.0
H657 H 0.5923 12.63439 0.73307 0.0
H658 H 0.62197 13.15911 0.7763 0.0
H659 H 0.58495 12.94777 0.7915 0.0
H660 H 0.68127 14.56653 0.8934 0.0
H661 H 0.59374 14.15387 0.93184 0.0
H662 H 0.681 15.02519 0.76369 0.0
H663 H 0.67022 14.15955 0.76588 0.0
H664 H 0.69879 14.74042 0.80847 0.0
H665 H 0.57519 14.5254 0.8111 0.0
H666 H 0.55953 14.06095 0.86965 0.0
H667 H 0.56217 13.64766 0.81266 0.0
C668 C 0.00069 14.62412 0.34874 0.0
C669 C 0.03041 15.04355 0.36186 0.0
C670 C 0.99024 14.65225 0.2995 0.0
C671 C 0.00997 15.11427 0.2629 0.0
C672 C 0.03942 15.57186 0.27725 0.0
C673 C 0.04933 15.52942 0.32654 0.0
C674 C 0.95865 14.15595 0.28557 0.0
C675 C 0.06104 16.07715 0.23951 0.0
C676 C 0.99706 14.57659 0.12315 0.0
C677 C 0.9837 14.92875 0.1038 0.0
C678 C 0.00566 14.63478 0.17483 0.0
C679 C 0.00101 15.05954 0.20803 0.0
C680 C 0.98796 15.4251 0.18872 0.0
C681 C 0.97935 15.3538 0.13673 0.0
C682 C 0.01948 14.23514 0.194 0.0
C683 C 0.98291 15.8864 0.22303 0.0
H684 H 0.98592 14.24978 0.37594 0.0
H685 H 0.07225 15.8619 0.3367 0.0
H686 H 0.94813 14.40983 0.26582 0.0
H687 H 0.95826 13.78049 0.25839 0.0
H688 H 0.94526 13.88908 0.31993 0.0
H689 H 0.08177 16.45354 0.25861 0.0
H690 H 0.06672 15.81579 0.20968 0.0
H691 H 0.05104 16.34096 0.21948 0.0
H692 H 0.00046 14.24605 0.09805 0.0
H693 H 0.96904 15.62745 0.12204 0.0
H694 H 0.00604 13.90012 0.22582 0.0
H695 H 0.04183 14.5761 0.20966 0.0
H696 H 0.02145 13.92578 0.16318 0.0
H697 H 0.9679 15.59789 0.25511 0.0
H698 H 0.97315 16.14753 0.20176 0.0
H699 H 0.00409 16.26628 0.24051 0.0
C700 C 0.36647 22.34333 0.33296 0.0
C701 C 0.34302 21.77335 0.31046 0.0
C702 C 0.36553 22.49648 0.38495 0.0
C703 C 0.34042 22.07193 0.41497 0.0
C704 C 0.31593 21.51937 0.3917 0.0
C705 C 0.31754 21.37561 0.33969 0.0
C706 C 0.39207 0.43577 0.40843 0.0
C707 C 0.28864 21.06061 0.42233 0.0
C708 C 0.35624 22.04107 0.5571 0.0
C709 C 0.34871 22.49937 0.57721 0.0
C710 C 0.35262 21.87897 0.50454 0.0
C711 C 0.34096 22.17858 0.47146 0.0
C712 C 0.3318 -0.04351 0.49201 0.0
C713 C 0.33586 0.11357 0.54468 0.0
C714 C 0.3626 21.41175 0.48401 0.0
C715 C 0.31891 0.27793 0.45802 0.0
H716 H 0.38619 -0.00172 0.31064 0.0
H717 H 0.2992 20.93669 0.32248 0.0
H718 H 0.38525 0.75855 0.42888 0.0
H719 H 0.40243 0.26186 0.4373 0.0
H720 H 0.40893 0.74199 0.37909 0.0
H721 H 0.2703 20.70127 0.39732 0.0
H722 H 0.29395 20.77281 0.45037 0.0
H723 H 0.28097 21.3545 0.44471 0.0
H724 H 0.3661 21.82838 0.58198 0.0
H725 H 0.32977 0.46468 0.56002 0.0
H726 H 0.38149 21.68794 0.45737 0.0
H727 H 0.34457 21.00087 0.46169 0.0
H728 H 0.36953 21.19005 0.51524 0.0
H729 H 0.33623 0.641 0.43171 0.0
H730 H 0.31001 0.5458 0.48073 0.0
H731 H 0.30096 22.55232 0.43368 0.0
C732 C 0.45802 10.68211 0.21404 0.0
C733 C 0.43965 10.90653 0.19355 0.0
C734 C 0.48877 11.05367 0.20752 0.0
C735 C 0.5014 11.66696 0.18038 0.0
C736 C 0.48305 11.90628 0.16109 0.0
C737 C 0.45238 11.52133 0.16765 0.0
C738 C 0.50766 10.78243 0.22851 0.0
C739 C 0.49577 12.56371 0.13267 0.0
C740 C 0.58281 12.94705 0.19356 0.0
C741 C 0.5941 12.86912 0.14665 0.0
C742 C 0.55281 12.5454 0.20586 0.0
C743 C 0.53371 12.05105 0.17052 0.0
C744 C 0.54522 11.94995 0.12416 0.0
C745 C 0.57525 12.36252 0.11265 0.0
C746 C 0.54135 12.67171 0.25553 0.0
C747 C 0.5256 11.41984 0.08591 0.0
H748 H 0.44834 10.20697 0.23406 0.0
H749 H 0.43834 11.70007 0.15202 0.0
H750 H 0.51907 10.68828 0.19632 0.0
H751 H 0.52498 11.15523 0.25432 0.0
H752 H 0.49453 10.30953 0.25029 0.0
H753 H 0.47862 12.69358 0.12224 0.0
H754 H 0.51278 12.97185 0.15672 0.0
H755 H 0.50678 12.54004 0.09684 0.0
H756 H 0.59721 13.3369 0.22007 0.0
H757 H 0.58384 12.29603 0.07648 0.0
H758 H 0.52683 12.19543 0.27586 0.0
H759 H 0.52792 12.90945 0.24675 0.0
H760 H 0.5595 13.00503 0.28195 0.0
H761 H 0.513 10.92835 0.10541 0.0
H762 H 0.53835 11.37125 0.05361 0.0
H763 H 0.50931 11.54501 0.06969 0.0
C764 C 0.01162 12.45678 0.52294 0.0
C765 C 0.03883 12.87825 0.49916 0.0
C766 C -0.00144 11.75906 0.51983 0.0
C767 C 0.01317 11.47749 0.4926 0.0
C768 C 0.04085 11.89997 0.46925 0.0
C769 C 0.0533 12.59534 0.47266 0.0
C770 C 0.96894 11.32346 0.545 0.0
C771 C 0.0572 11.61728 0.44023 0.0
C772 C 0.99399 9.68581 0.51738 0.0
C773 C 0.97685 9.35786 0.47392 0.0
C774 C 0.0054 10.3736 0.52461 0.0
C775 C -0.00062 10.74072 0.48765 0.0
C776 C 0.9813 10.40893 0.44461 0.0
C777 C 0.97031 9.72136 0.43817 0.0
C778 C 0.02466 10.71081 0.57094 0.0
C779 C 0.9742 10.7836 0.40463 0.0
H780 H 0.00027 12.67144 0.54341 0.0
H781 H 0.07438 12.91748 0.45434 0.0
H782 H 0.95246 11.01046 0.51543 0.0
H783 H 0.97049 10.97878 0.57298 0.0
H784 H 0.96071 11.62086 0.56547 0.0
H785 H 0.07888 12.01404 0.42544 0.0
H786 H 0.06095 11.28035 0.46568 0.0
H787 H 0.0437 11.31425 0.40715 0.0
H788 H -0.00085 9.40883 0.54522 0.0
H789 H 0.95699 9.47109 0.40461 0.0
H790 H 0.01595 10.98754 0.59285 0.0
H791 H 0.04728 11.08128 0.55807 0.0
H792 H 0.02613 10.34889 0.59729 0.0
H793 H 0.96465 11.06485 0.42336 0.0
H794 H 0.9584 10.44546 0.3751 0.0
H795 H 0.99477 11.15391 0.38492 0.0
C796 C 0.5345 22.30232 0.81074 0.0
C797 C 0.52861 21.754 0.77942 0.0
C798 C 0.5156 22.57062 0.81094 0.0
C799 C 0.49024 22.2833 0.77908 0.0
C800 C 0.484 21.72544 0.74782 0.0
C801 C 0.50326 21.46751 0.74837 0.0
C802 C 0.5229 0.50838 0.84487 0.0
C803 C 0.45708 21.40397 0.71346 0.0
C804 C 0.42551 22.54356 0.80738 0.0
C805 C 0.4292 0.36217 0.76998 0.0
C806 C 0.4457 22.31396 0.81179 0.0
C807 C 0.47018 22.56588 0.77802 0.0
C808 C 0.47463 0.40646 0.74142 0.0
C809 C 0.45407 0.62716 0.73783 0.0
C810 C 0.44028 21.78541 0.85144 0.0
C811 C 0.50059 0.68925 0.70494 0.0
H812 H 0.55403 22.52666 0.83489 0.0
H813 H 0.49853 21.04383 0.72407 0.0
H814 H 0.52596 0.93593 0.82084 0.0
H815 H 0.50433 0.38665 0.8716 0.0
H816 H 0.54326 0.66745 0.86792 0.0
H817 H 0.45521 20.96854 0.69195 0.0
H818 H 0.4368 21.23441 0.73685 0.0
H819 H 0.45795 21.77503 0.68527 0.0
H820 H 0.40644 22.3381 0.83258 0.0
H821 H 0.45711 0.99534 0.70892 0.0
H822 H 0.46018 21.94903 0.87579 0.0
H823 H 0.4359 21.31807 0.83175 0.0
H824 H 0.42123 21.67155 0.87683 0.0
H825 H 0.52151 0.8797 0.72683 0.0
H826 H 0.50189 1.1016 0.68093 0.0
H827 H 0.4988 0.28853 0.67902 0.0
C828 C 0.52106 12.02415 0.4692 0.0
C829 C 0.51193 12.47413 0.48495 0.0
C830 C 0.50262 11.33259 0.47563 0.0
C831 C 0.47435 11.08733 0.49783 0.0
C832 C 0.46437 11.5366 0.51088 0.0
C833 C 0.48335 12.22527 0.50455 0.0
C834 C 0.51389 10.86734 0.46091 0.0
C835 C 0.43408 11.29187 0.53359 0.0
C836 C 0.41563 9.25226 0.49308 0.0
C837 C 0.41685 9.04876 0.54356 0.0
C838 C 0.43499 9.90874 0.47673 0.0
C839 C 0.45611 10.36994 0.51171 0.0
C840 C 0.4585 10.15696 0.56177 0.0
C841 C 0.43876 9.49955 0.57716 0.0
C842 C 0.43164 10.11484 0.42304 0.0
C843 C 0.48113 10.63136 0.59988 0.0
H844 H 0.54308 12.2126 0.4538 0.0
H845 H 0.47603 12.56991 0.51622 0.0
H846 H 0.5169 10.63551 0.49616 0.0
H847 H 0.49755 10.45647 0.43621 0.0
H848 H 0.53528 11.13055 0.44008 0.0
H849 H 0.42876 11.69935 0.53765 0.0
H850 H 0.41698 10.89253 0.50905 0.0
H851 H 0.43282 11.07261 0.57222 0.0
H852 H 0.39886 8.90611 0.46678 0.0
H853 H 0.44005 9.34414 0.61605 0.0
H854 H 0.45342 10.45709 0.40548 0.0
H855 H 0.4191 10.38554 0.42506 0.0
H856 H 0.41945 9.6756 0.39733 0.0
H857 H 0.50346 10.87956 0.58231 0.0
H858 H 0.48166 10.37408 0.63572 0.0
H859 H 0.47603 11.02876 0.61036 0.0
C860 C 0.01184 13.13962 0.83346 0.0
C861 C 0.99165 13.01502 0.87342 0.0
C862 C 0.02253 12.70061 0.82373 0.0
C863 C 0.01273 12.12299 0.85466 0.0
C864 C 0.9914 11.97944 0.89358 0.0
C865 C 0.98112 12.42753 0.90252 0.0
C866 C 0.04517 12.86917 0.78174 0.0
C867 C 0.98025 11.36516 0.92708 0.0
C868 C 0.02558 10.71293 0.81256 0.0
C869 C 0.05007 10.83513 0.84275 0.0
C870 C 0.01347 11.13503 0.81522 0.0
C871 C 0.02619 11.6921 0.8488 0.0
C872 C 0.05136 11.82753 0.87837 0.0
C873 C 0.06298 11.3973 0.87501 0.0
C874 C 0.98667 10.97626 0.78303 0.0
C875 C 0.06566 12.41961 0.91441 0.0
H876 H 0.01998 13.59039 0.81054 0.0
H877 H 0.9654 12.32544 0.93327 0.0
H878 H 0.06658 12.98363 0.79918 0.0
H879 H 0.03829 12.43524 0.7557 0.0
H880 H 0.04863 13.30627 0.75841 0.0
H881 H 0.96218 11.30128 0.95317 0.0
H882 H 0.97209 10.9113 0.90281 0.0
H883 H -0.00137 11.40142 0.95091 0.0
H884 H 0.01549 10.28034 0.78745 0.0
H885 H 0.08196 11.49696 0.89833 0.0
H886 H 0.99088 11.41662 0.75951 0.0
H887 H 0.96769 10.85963 0.8086 0.0
H888 H 0.98035 10.54462 0.75689 0.0
H889 H 0.07181 12.88747 0.89302 0.0
H890 H 0.08576 12.46931 0.93323 0.0
H891 H 0.04975 12.36806 0.94484 0.0
C892 C 0.56665 -0.02817 0.12049 0.0
C893 C 0.58288 0.45742 0.15791 0.0
C894 C 0.53605 22.35762 0.11579 0.0
C895 C 0.52132 22.57833 0.14929 0.0
C896 C 0.53768 0.42795 0.18598 0.0
C897 C 0.56829 0.69003 0.18986 0.0
C898 C 0.51936 21.82034 0.07606 0.0
C899 C 0.52271 0.67782 0.22219 0.0
C900 C 0.44389 22.20544 0.11511 0.0
C901 C 0.4265 21.64754 0.14626 0.0
C902 C 0.4748 22.51279 0.11548 0.0
C903 C 0.48861 22.25531 0.14773 0.0
C904 C 0.47119 21.68804 0.17881 0.0
C905 C 0.44035 21.39104 0.17771 0.0
C906 C 0.49269 0.45984 0.08175 0.0
C907 C 0.48515 21.39769 0.21357 0.0
H908 H 0.57775 22.44753 0.09546 0.0
H909 H 0.58067 1.06596 0.2188 0.0
H910 H 0.5039 21.34486 0.09566 0.0
H911 H 0.50593 21.9591 0.05135 0.0
H912 H 0.53431 21.73167 0.05104 0.0
H913 H 0.53877 1.10039 0.24642 0.0
H914 H 0.50932 0.84305 0.20005 0.0
H915 H 0.50739 0.26567 0.24791 0.0
H916 H 0.43337 22.40703 0.09068 0.0
H917 H 0.4271 20.96029 0.20189 0.0
H918 H 0.50684 0.36416 0.05529 0.0
H919 H 0.50758 0.89571 0.10595 0.0
H920 H 0.47855 0.59314 0.0584 0.0
H921 H 0.49902 21.25491 0.19051 0.0
H922 H 0.46847 20.95045 0.2349 0.0
H923 H 0.49986 21.77898 0.24191 0.0
loop_
_geom_bond_atom_site_label_1
_geom_bond_atom_site_label_2
_geom_bond_distance
_geom_bond_site_symmetry_2
_ccdc_geom_bond_type
C0 O1 1.160 . S
C0 O7 1.185 . S
O1 C0 1.160 . S
O2 Zn3 1.899 . S
O2 C10 1.284 . S
Zn3 O2 1.899 . S
Zn3 O4 2.032 . S
Zn3 O7 2.086 . S
Zn3 O12 1.977 . S
O4 Zn3 2.032 . S
O4 C8 1.278 1_554 S
C5 O6 1.203 . S
C5 O12 1.267 . S
O6 C5 1.203 . S
O7 C0 1.185 . S
O7 Zn3 2.086 . S
C8 O4 1.278 1_556 S
C8 O9 1.211 . S
O9 C8 1.211 . S
C10 O2 1.284 . S
C10 O11 1.273 . S
O11 C10 1.273 . S
O12 Zn3 1.977 . S
O12 C5 1.267 . S
C13 O14 1.160 . S
C13 O20 1.185 . S
O14 C13 1.160 . S
O15 Zn16 1.899 . S
O15 C23 1.284 . S
Zn16 O15 1.899 . S
Zn16 O17 2.032 . S
Zn16 O20 2.086 . S
Zn16 O25 1.977 . S
O17 Zn16 2.032 . S
O17 C21 1.278 . S
C18 O19 1.203 . S
C18 O25 1.267 . S
O19 C18 1.203 . S
O20 C13 1.185 . S
O20 Zn16 2.086 . S
C21 O17 1.278 . S
C21 O22 1.211 1_655 S
O22 C21 1.211 1_455 S
C23 O15 1.284 . S
C23 O24 1.273 1_655 S
O24 C23 1.273 1_455 S
O25 Zn16 1.977 . S
O25 C18 1.267 . S
C26 O27 1.160 . S
C26 O33 1.185 . S
O27 C26 1.160 . S
O28 Zn29 1.899 . S
O28 C36 1.284 . S
Zn29 O28 1.899 . S
Zn29 O30 2.032 . S
Zn29 O33 2.086 . S
Zn29 O38 1.977 . S
O30 Zn29 2.032 . S
O30 C34 1.278 . S
C31 O32 1.203 . S
C31 O38 1.267 . S
O32 C31 1.203 . S
O33 C26 1.185 . S
O33 Zn29 2.086 . S
C34 O30 1.278 . S
C34 O35 1.211 1_565 S
O35 C34 1.211 1_545 S
C36 O28 1.284 . S
C36 O37 1.273 1_565 S
O37 C36 1.273 1_545 S
O38 Zn29 1.977 . S
O38 C31 1.267 . S
C39 O40 1.160 . S
C39 O46 1.185 . S
O40 C39 1.160 . S
O41 Zn42 1.899 . S
O41 C49 1.284 . S
Zn42 O41 1.899 . S
Zn42 O43 2.032 . S
Zn42 O46 2.086 . S
Zn42 O51 1.977 . S
O43 Zn42 2.032 . S
O43 C47 1.278 1_554 S
C44 O45 1.203 . S
C44 O51 1.267 . S
O45 C44 1.203 . S
O46 C39 1.185 . S
O46 Zn42 2.086 . S
C47 O43 1.278 1_556 S
C47 O48 1.211 . S
O48 C47 1.211 . S
C49 O41 1.284 . S
C49 O50 1.273 . S
O50 C49 1.273 . S
O51 Zn42 1.977 . S
O51 C44 1.267 . S
C52 O53 1.160 . S
C52 O59 1.185 . S
O53 C52 1.160 . S
O54 Zn55 1.899 . S
O54 C62 1.284 . S
Zn55 O54 1.899 . S
Zn55 O56 2.032 . S
Zn55 O59 2.086 . S
Zn55 O64 1.977 . S
O56 Zn55 2.032 . S
O56 C60 1.278 . S
C57 O58 1.203 . S
C57 O64 1.267 . S
O58 C57 1.203 . S
O59 C52 1.185 . S
O59 Zn55 2.086 . S
C60 O56 1.278 . S
C60 O61 1.211 1_455 S
O61 C60 1.211 1_655 S
C62 O54 1.284 . S
C62 O63 1.273 1_455 S
O63 C62 1.273 1_655 S
O64 Zn55 1.977 . S
O64 C57 1.267 . S
C65 O66 1.160 . S
C65 O72 1.185 . S
O66 C65 1.160 . S
O67 Zn68 1.899 . S
O67 C75 1.284 . S
Zn68 O67 1.899 . S
Zn68 O69 2.032 . S
Zn68 O72 2.086 . S
Zn68 O77 1.977 . S
O69 Zn68 2.032 . S
O69 C73 1.278 . S
C70 O71 1.203 . S
C70 O77 1.267 . S
O71 C70 1.203 . S
O72 C65 1.185 . S
O72 Zn68 2.086 . S
C73 O69 1.278 . S
C73 O74 1.211 1_545 S
O74 C73 1.211 1_565 S
C75 O67 1.284 . S
C75 O76 1.273 1_545 S
O76 C75 1.273 1_565 S
O77 Zn68 1.977 . S
O77 C70 1.267 . S
C78 O79 1.160 . S
C78 O85 1.185 . S
O79 C78 1.160 . S
O80 Zn81 1.899 . S
O80 C88 1.284 . S
Zn81 O80 1.899 . S
Zn81 O82 2.032 . S
Zn81 O85 2.086 . S
Zn81 O90 1.977 . S
O82 Zn81 2.032 . S
O82 C86 1.278 . S
C83 O84 1.203 . S
C83 O90 1.267 . S
O84 C83 1.203 . S
O85 C78 1.185 . S
O85 Zn81 2.086 . S
C86 O82 1.278 . S
C86 O87 1.211 . S
O87 C86 1.211 . S
C88 O80 1.284 . S
C88 O89 1.273 . S
O89 C88 1.273 . S
O90 Zn81 1.977 . S
O90 C83 1.267 . S
C91 O92 1.160 . S
C91 O98 1.185 . S
O92 C91 1.160 . S
O93 Zn94 1.899 . S
O93 C101 1.284 . S
Zn94 O93 1.899 . S
Zn94 O95 2.032 . S
Zn94 O98 2.086 . S
Zn94 O103 1.977 . S
O95 Zn94 2.032 . S
O95 C99 1.278 1_556 S
C96 O97 1.203 . S
C96 O103 1.267 . S
O97 C96 1.203 . S
O98 C91 1.185 . S
O98 Zn94 2.086 . S
C99 O95 1.278 1_554 S
C99 O100 1.211 1_655 S
O100 C99 1.211 1_455 S
C101 O93 1.284 . S
C101 O102 1.273 1_655 S
O102 C101 1.273 1_455 S
O103 Zn94 1.977 . S
O103 C96 1.267 . S
C104 O105 1.160 . S
C104 O111 1.185 . S
O105 C104 1.160 . S
O106 Zn107 1.899 . S
O106 C114 1.284 . S
Zn107 O106 1.899 . S
Zn107 O108 2.032 . S
Zn107 O111 2.086 . S
Zn107 O116 1.977 . S
O108 Zn107 2.032 . S
O108 C112 1.278 . S
C109 O110 1.203 . S
C109 O116 1.267 . S
O110 C109 1.203 . S
O111 C104 1.185 . S
O111 Zn107 2.086 . S
C112 O108 1.278 . S
C112 O113 1.211 1_565 S
O113 C112 1.211 1_545 S
C114 O106 1.284 . S
C114 O115 1.273 1_565 S
O115 C114 1.273 1_545 S
O116 Zn107 1.977 . S
O116 C109 1.267 . S
C117 O118 1.160 . S
C117 O124 1.185 . S
O118 C117 1.160 . S
O119 Zn120 1.899 . S
O119 C127 1.284 . S
Zn120 O119 1.899 . S
Zn120 O121 2.032 . S
Zn120 O124 2.086 . S
Zn120 O129 1.977 . S
O121 Zn120 2.032 . S
O121 C125 1.278 . S
C122 O123 1.203 . S
C122 O129 1.267 . S
O123 C122 1.203 . S
O124 C117 1.185 . S
O124 Zn120 2.086 . S
C125 O121 1.278 . S
C125 O126 1.211 . S
O126 C125 1.211 . S
C127 O119 1.284 . S
C127 O128 1.273 . S
O128 C127 1.273 . S
O129 Zn120 1.977 . S
O129 C122 1.267 . S
C130 O131 1.160 . S
C130 O137 1.185 . S
O131 C130 1.160 . S
O132 Zn133 1.899 . S
O132 C140 1.284 . S
Zn133 O132 1.899 . S
Zn133 O134 2.032 . S
Zn133 O137 2.086 . S
Zn133 O142 1.977 . S
O134 Zn133 2.032 . S
O134 C138 1.278 1_556 S
C135 O136 1.203 . S
C135 O142 1.267 . S
O136 C135 1.203 . S
O137 C130 1.185 . S
O137 Zn133 2.086 . S
C138 O134 1.278 1_554 S
C138 O139 1.211 1_455 S
O139 C138 1.211 1_655 S
C140 O132 1.284 . S
C140 O141 1.273 1_455 S
O141 C140 1.273 1_655 S
O142 Zn133 1.977 . S
O142 C135 1.267 . S
C143 O144 1.160 . S
C143 O150 1.185 . S
O144 C143 1.160 . S
O145 Zn146 1.899 . S
O145 C153 1.284 . S
Zn146 O145 1.899 . S
Zn146 O147 2.032 . S
Zn146 O150 2.086 . S
Zn146 O155 1.977 . S
O147 Zn146 2.032 . S
O147 C151 1.278 . S
C148 O149 1.203 . S
C148 O155 1.267 . S
O149 C148 1.203 . S
O150 C143 1.185 . S
O150 Zn146 2.086 . S
C151 O147 1.278 . S
C151 O152 1.211 1_545 S
O152 C151 1.211 1_565 S
C153 O145 1.284 . S
C153 O154 1.273 1_545 S
O154 C153 1.273 1_565 S
O155 Zn146 1.977 . S
O155 C148 1.267 . S
C156 C157 1.391 . S
C156 C158 1.394 . S
C156 H172 0.931 . S
C157 C156 1.391 . S
C157 C161 1.376 . S
C158 C156 1.394 . S
C158 C159 1.369 . S
C158 C162 1.531 . S
C159 C158 1.369 . S
C159 C160 1.410 . S
C159 C167 1.503 . S
C160 C159 1.410 . S
C160 C161 1.392 . S
C160 C163 1.511 . S
C161 C157 1.376 . S
C161 C160 1.392 . S
C161 H173 0.929 . S
C162 C158 1.531 . S
C162 H174 0.960 . S
C162 H175 0.962 . S
C162 H176 0.960 . S
C163 C160 1.511 . S
C163 H177 0.961 . S
C163 H178 0.961 . S
C163 H179 0.961 . S
C164 C165 1.370 . S
C164 C166 1.363 . S
C164 H180 0.931 . S
C165 C164 1.370 . S
C165 C169 1.408 . S
C166 C164 1.363 . S
C166 C167 1.370 . S
C166 C170 1.524 . S
C167 C159 1.503 . S
C167 C166 1.370 . S
C167 C168 1.403 . S
C168 C167 1.403 . S
C168 C169 1.404 . S
C168 C171 1.539 . S
C169 C165 1.408 . S
C169 C168 1.404 . S
C169 H181 0.930 . S
C170 C166 1.524 . S
C170 H182 0.956 . S
C170 H183 0.961 . S
C170 H184 0.961 . S
C171 C168 1.539 . S
C171 H185 0.958 . S
C171 H186 0.961 . S
C171 H187 0.960 . S
H172 C156 0.931 . S
H173 C161 0.929 . S
H174 C162 0.960 . S
H175 C162 0.962 . S
H176 C162 0.960 . S
H177 C163 0.961 . S
H178 C163 0.961 . S
H179 C163 0.961 . S
H180 C164 0.931 . S
H181 C169 0.930 . S
H182 C170 0.956 . S
H183 C170 0.961 . S
H184 C170 0.961 . S
H185 C171 0.958 . S
H186 C171 0.961 . S
H187 C171 0.960 . S
C188 C189 1.391 1_455 S
C188 C190 1.394 . S
C188 H204 0.931 . S
C189 C188 1.391 1_655 S
C189 C193 1.376 . S
C190 C188 1.394 . S
C190 C191 1.377 . S
C190 C194 1.531 . S
C191 C190 1.377 . S
C191 C192 1.400 1_455 S
C191 C199 1.505 . S
C192 C191 1.400 1_655 S
C192 C193 1.392 . S
C192 C195 1.511 . S
C193 C189 1.376 . S
C193 C192 1.392 . S
C193 H205 0.929 . S
C194 C190 1.531 . S
C194 H206 0.960 . S
C194 H207 0.962 . S
C194 H208 0.960 . S
C195 C192 1.511 . S
C195 H209 0.961 . S
C195 H210 0.961 . S
C195 H211 0.961 . S
C196 C197 1.370 . S
C196 C198 1.363 1_455 S
C196 H212 0.931 1_455 S
C197 C196 1.370 . S
C197 C201 1.408 . S
C198 C196 1.363 1_655 S
C198 C199 1.370 1_655 S
C198 C202 1.524 . S
C199 C191 1.505 . S
C199 C198 1.370 1_455 S
C199 C200 1.403 . S
C200 C199 1.403 . S
C200 C201 1.404 . S
C200 C203 1.539 . S
C201 C197 1.408 . S
C201 C200 1.404 . S
C201 H213 0.930 . S
C202 C198 1.524 . S
C202 H214 0.955 1_655 S
C202 H215 0.961 . S
C202 H216 0.961 . S
C203 C200 1.539 . S
C203 H217 0.958 . S
C203 H218 0.961 . S
C203 H219 0.960 . S
H204 C188 0.931 . S
H205 C193 0.929 . S
H206 C194 0.960 . S
H207 C194 0.962 . S
H208 C194 0.960 . S
H209 C195 0.961 . S
H210 C195 0.961 . S
H211 C195 0.961 . S
H212 C196 0.931 1_655 S
H213 C201 0.930 . S
H214 C202 0.955 1_455 S
H215 C202 0.961 . S
H216 C202 0.961 . S
H217 C203 0.958 . S
H218 C203 0.961 . S
H219 C203 0.960 . S
C220 C221 1.391 1_545 S
C220 C222 1.394 . S
C220 H236 0.931 . S
C221 C220 1.391 1_565 S
C221 C225 1.376 . S
C222 C220 1.394 . S
C222 C223 1.369 . S
C222 C226 1.531 . S
C223 C222 1.369 . S
C223 C224 1.410 1_545 S
C223 C231 1.503 1_556 S
C224 C223 1.410 1_565 S
C224 C225 1.392 . S
C224 C227 1.511 . S
C225 C221 1.376 . S
C225 C224 1.392 . S
C225 H237 0.929 . S
C226 C222 1.531 . S
C226 H238 0.960 . S
C226 H239 0.962 . S
C226 H240 0.960 . S
C227 C224 1.511 . S
C227 H241 0.961 . S
C227 H242 0.961 1_556 S
C227 H243 0.961 . S
C228 C229 1.370 1_565 S
C228 C230 1.363 . S
C228 H244 0.931 . S
C229 C228 1.370 1_545 S
C229 C233 1.408 . S
C230 C228 1.363 . S
C230 C231 1.370 1_565 S
C230 C234 1.524 . S
C231 C223 1.503 1_554 S
C231 C230 1.370 1_545 S
C231 C232 1.403 . S
C232 C231 1.403 . S
C232 C233 1.404 . S
C232 C235 1.539 . S
C233 C229 1.408 . S
C233 C232 1.404 . S
C233 H245 0.930 . S
C234 C230 1.524 . S
C234 H246 0.956 . S
C234 H247 0.961 . S
C234 H248 0.961 . S
C235 C232 1.539 . S
C235 H249 0.958 . S
C235 H250 0.961 . S
C235 H251 0.960 1_554 S
H236 C220 0.931 . S
H237 C225 0.929 . S
H238 C226 0.960 . S
H239 C226 0.962 . S
H240 C226 0.960 . S
H241 C227 0.961 . S
H242 C227 0.961 1_554 S
H243 C227 0.961 . S
H244 C228 0.931 . S
H245 C233 0.930 . S
H246 C234 0.956 . S
H247 C234 0.961 . S
H248 C234 0.961 . S
H249 C235 0.958 . S
H250 C235 0.961 . S
H251 C235 0.960 1_556 S
C252 C253 1.391 . S
C252 C254 1.394 . S
C252 H268 0.931 . S
C253 C252 1.391 . S
C253 C257 1.376 . S
C254 C252 1.394 . S
C254 C255 1.369 . S
C254 C258 1.531 . S
C255 C254 1.369 . S
C255 C256 1.410 . S
C255 C263 1.503 . S
C256 C255 1.410 . S
C256 C257 1.392 . S
C256 C259 1.511 . S
C257 C253 1.376 . S
C257 C256 1.392 . S
C257 H269 0.929 . S
C258 C254 1.531 . S
C258 H270 0.960 . S
C258 H271 0.962 . S
C258 H272 0.960 . S
C259 C256 1.511 . S
C259 H273 0.961 . S
C259 H274 0.961 . S
C259 H275 0.961 . S
C260 C261 1.370 . S
C260 C262 1.363 . S
C260 H276 0.931 . S
C261 C260 1.370 . S
C261 C265 1.408 . S
C262 C260 1.363 . S
C262 C263 1.370 . S
C262 C266 1.524 . S
C263 C255 1.503 . S
C263 C262 1.370 . S
C263 C264 1.403 . S
C264 C263 1.403 . S
C264 C265 1.404 . S
C264 C267 1.539 . S
C265 C261 1.408 . S
C265 C264 1.404 . S
C265 H277 0.930 . S
C266 C262 1.524 . S
C266 H278 0.956 . S
C266 H279 0.961 . S
C266 H280 0.961 . S
C267 C264 1.539 . S
C267 H281 0.958 . S
C267 H282 0.961 . S
C267 H283 0.960 . S
H268 C252 0.931 . S
H269 C257 0.929 . S
H270 C258 0.960 . S
H271 C258 0.962 . S
H272 C258 0.960 . S
H273 C259 0.961 . S
H274 C259 0.961 . S
H275 C259 0.961 . S
H276 C260 0.931 . S
H277 C265 0.930 . S
H278 C266 0.956 . S
H279 C266 0.961 . S
H280 C266 0.961 . S
H281 C267 0.958 . S
H282 C267 0.961 . S
H283 C267 0.960 . S
C284 C285 1.391 1_455 S
C284 C286 1.394 . S
C284 H300 0.931 . S
C285 C284 1.391 1_655 S
C285 C289 1.376 . S
C286 C284 1.394 . S
C286 C287 1.369 1_455 S
C286 C290 1.531 . S
C287 C286 1.369 1_655 S
C287 C288 1.410 . S
C287 C295 1.503 1_655 S
C288 C287 1.410 . S
C288 C289 1.392 . S
C288 C291 1.511 . S
C289 C285 1.376 . S
C289 C288 1.392 . S
C289 H301 0.929 . S
C290 C286 1.531 . S
C290 H302 0.960 . S
C290 H303 0.962 . S
C290 H304 0.960 . S
C291 C288 1.511 . S
C291 H305 0.961 . S
C291 H306 0.961 . S
C291 H307 0.961 . S
C292 C293 1.370 . S
C292 C294 1.363 . S
C292 H308 0.931 . S
C293 C292 1.370 . S
C293 C297 1.408 . S
C294 C292 1.363 . S
C294 C295 1.370 . S
C294 C298 1.524 . S
C295 C287 1.503 1_455 S
C295 C294 1.370 . S
C295 C296 1.403 1_455 S
C296 C295 1.403 1_655 S
C296 C297 1.404 1_655 S
C296 C299 1.539 . S
C297 C293 1.408 . S
C297 C296 1.404 1_455 S
C297 H309 0.930 1_455 S
C298 C294 1.524 . S
C298 H310 0.956 . S
C298 H311 0.961 1_455 S
C298 H312 0.961 . S
C299 C296 1.539 . S
C299 H313 0.958 1_655 S
C299 H314 0.961 . S
C299 H315 0.960 . S
H300 C284 0.931 . S
H301 C289 0.929 . S
H302 C290 0.960 . S
H303 C290 0.962 . S
H304 C290 0.960 . S
H305 C291 0.961 . S
H306 C291 0.961 . S
H307 C291 0.961 . S
H308 C292 0.931 . S
H309 C297 0.930 1_655 S
H310 C298 0.956 . S
H311 C298 0.961 1_655 S
H312 C298 0.961 . S
H313 C299 0.958 1_455 S
H314 C299 0.961 . S
H315 C299 0.960 . S
C316 C317 1.391 1_545 S
C316 C318 1.394 . S
C316 H332 0.931 . S
C317 C316 1.391 1_565 S
C317 C321 1.376 . S
C318 C316 1.394 . S
C318 C319 1.369 . S
C318 C322 1.531 . S
C319 C318 1.369 . S
C319 C320 1.410 1_545 S
C319 C327 1.503 1_554 S
C320 C319 1.410 1_565 S
C320 C321 1.392 . S
C320 C323 1.511 . S
C321 C317 1.376 . S
C321 C320 1.392 . S
C321 H333 0.929 . S
C322 C318 1.531 . S
C322 H334 0.960 . S
C322 H335 0.962 . S
C322 H336 0.960 . S
C323 C320 1.511 . S
C323 H337 0.961 . S
C323 H338 0.961 1_554 S
C323 H339 0.971 . S
C324 C325 1.370 1_565 S
C324 C326 1.363 . S
C324 H340 0.931 . S
C325 C324 1.370 1_545 S
C325 C329 1.408 . S
C326 C324 1.363 . S
C326 C327 1.370 1_565 S
C326 C330 1.524 . S
C327 C319 1.503 1_556 S
C327 C326 1.370 1_545 S
C327 C328 1.403 . S
C328 C327 1.403 . S
C328 C329 1.404 . S
C328 C331 1.539 . S
C329 C325 1.408 . S
C329 C328 1.404 . S
C329 H341 0.930 . S
C330 C326 1.524 . S
C330 H342 0.956 . S
C330 H343 0.961 . S
C330 H344 0.961 . S
C331 C328 1.539 . S
C331 H345 0.958 . S
C331 H346 0.961 . S
C331 H347 0.960 1_556 S
H332 C316 0.931 . S
H333 C321 0.929 . S
H334 C322 0.960 . S
H335 C322 0.962 . S
H336 C322 0.960 . S
H337 C323 0.961 . S
H338 C323 0.961 1_556 S
H339 C323 0.971 . S
H340 C324 0.931 . S
H341 C329 0.930 . S
H342 C330 0.956 . S
H343 C330 0.961 . S
H344 C330 0.961 . S
H345 C331 0.958 . S
H346 C331 0.961 . S
H347 C331 0.960 1_554 S
C348 C349 1.391 . S
C348 C350 1.387 1_556 S
C348 H364 0.931 . S
C349 C348 1.391 . S
C349 C353 1.376 . S
C350 C348 1.387 1_554 S
C350 C351 1.370 . S
C350 C354 1.537 . S
C351 C350 1.370 . S
C351 C352 1.410 1_554 S
C351 C359 1.503 . S
C352 C351 1.410 1_556 S
C352 C353 1.392 . S
C352 C355 1.511 . S
C353 C349 1.376 . S
C353 C352 1.392 . S
C353 H365 0.929 . S
C354 C350 1.537 . S
C354 H366 0.960 . S
C354 H367 0.962 1_554 S
C354 H368 0.960 . S
C355 C352 1.511 . S
C355 H369 0.961 . S
C355 H370 0.961 . S
C355 H371 0.961 1_556 S
C356 C357 1.370 1_556 S
C356 C358 1.363 . S
C356 H372 0.931 . S
C357 C356 1.370 1_554 S
C357 C361 1.408 . S
C358 C356 1.363 . S
C358 C359 1.370 1_556 S
C358 C362 1.524 . S
C359 C351 1.503 . S
C359 C358 1.370 1_554 S
C359 C360 1.403 . S
C360 C359 1.403 . S
C360 C361 1.404 . S
C360 C363 1.539 . S
C361 C357 1.408 . S
C361 C360 1.404 . S
C361 H373 0.930 . S
C362 C358 1.524 . S
C362 H374 0.956 . S
C362 H375 0.961 . S
C362 H376 0.961 . S
C363 C360 1.539 . S
C363 H377 0.958 . S
C363 H378 0.961 . S
C363 H379 0.960 . S
H364 C348 0.931 . S
H365 C353 0.929 . S
H366 C354 0.960 . S
H367 C354 0.962 1_556 S
H368 C354 0.960 . S
H369 C355 0.961 . S
H370 C355 0.961 . S
H371 C355 0.961 1_554 S
H372 C356 0.931 . S
H373 C361 0.930 . S
H374 C362 0.956 . S
H375 C362 0.961 . S
H376 C362 0.961 . S
H377 C363 0.958 . S
H378 C363 0.961 . S
H379 C363 0.960 . S
C380 C381 1.391 . S
C380 C382 1.394 . S
C380 H396 0.931 . S
C381 C380 1.391 . S
C381 C385 1.376 . S
C382 C380 1.394 . S
C382 C383 1.369 . S
C382 C386 1.531 . S
C383 C382 1.369 . S
C383 C384 1.410 . S
C383 C391 1.503 . S
C384 C383 1.410 . S
C384 C385 1.392 . S
C384 C387 1.511 . S
C385 C381 1.376 . S
C385 C384 1.392 . S
C385 H397 0.929 . S
C386 C382 1.531 . S
C386 H398 0.960 . S
C386 H399 0.962 . S
C386 H400 0.960 . S
C387 C384 1.511 . S
C387 H401 0.961 . S
C387 H402 0.961 . S
C387 H403 0.961 . S
C388 C389 1.370 . S
C388 C390 1.363 . S
C388 H404 0.931 . S
C389 C388 1.370 . S
C389 C393 1.408 . S
C390 C388 1.363 . S
C390 C391 1.370 . S
C390 C394 1.524 . S
C391 C383 1.503 . S
C391 C390 1.370 . S
C391 C392 1.403 . S
C392 C391 1.403 . S
C392 C393 1.404 . S
C392 C395 1.539 . S
C393 C389 1.408 . S
C393 C392 1.404 . S
C393 H405 0.930 . S
C394 C390 1.524 . S
C394 H406 0.956 . S
C394 H407 0.961 . S
C394 H408 0.961 . S
C395 C392 1.539 . S
C395 H409 0.958 . S
C395 H410 0.961 . S
C395 H411 0.960 . S
H396 C380 0.931 . S
H397 C385 0.929 . S
H398 C386 0.960 . S
H399 C386 0.962 . S
H400 C386 0.960 . S
H401 C387 0.961 . S
H402 C387 0.961 . S
H403 C387 0.961 . S
H404 C388 0.931 . S
H405 C393 0.930 . S
H406 C394 0.956 . S
H407 C394 0.961 . S
H408 C394 0.961 . S
H409 C395 0.958 . S
H410 C395 0.961 . S
H411 C395 0.960 . S
C412 C413 1.391 . S
C412 C414 1.394 . S
C412 H428 0.931 . S
C413 C412 1.391 . S
C413 C417 1.376 . S
C414 C412 1.394 . S
C414 C415 1.369 . S
C414 C418 1.531 . S
C415 C414 1.369 . S
C415 C416 1.410 . S
C415 C423 1.503 . S
C416 C415 1.410 . S
C416 C417 1.392 . S
C416 C419 1.511 . S
C417 C413 1.376 . S
C417 C416 1.392 . S
C417 H429 0.929 . S
C418 C414 1.531 . S
C418 H430 0.960 . S
C418 H431 0.962 . S
C418 H432 0.960 . S
C419 C416 1.511 . S
C419 H433 0.961 . S
C419 H434 0.961 . S
C419 H435 0.961 . S
C420 C421 1.370 . S
C420 C422 1.363 . S
C420 H436 0.931 . S
C421 C420 1.370 . S
C421 C425 1.408 . S
C422 C420 1.363 . S
C422 C423 1.370 . S
C422 C426 1.524 . S
C423 C415 1.503 . S
C423 C422 1.370 . S
C423 C424 1.403 . S
C424 C423 1.403 . S
C424 C425 1.404 . S
C424 C427 1.539 . S
C425 C421 1.408 . S
C425 C424 1.404 . S
C425 H437 0.930 . S
C426 C422 1.524 . S
C426 H438 0.956 . S
C426 H439 0.961 . S
C426 H440 0.961 . S
C427 C424 1.539 . S
C427 H441 0.958 . S
C427 H442 0.961 . S
C427 H443 0.960 . S
H428 C412 0.931 . S
H429 C417 0.929 . S
H430 C418 0.960 . S
H431 C418 0.962 . S
H432 C418 0.960 . S
H433 C419 0.961 . S
H434 C419 0.961 . S
H435 C419 0.961 . S
H436 C420 0.931 . S
H437 C425 0.930 . S
H438 C426 0.956 . S
H439 C426 0.961 . S
H440 C426 0.961 . S
H441 C427 0.958 . S
H442 C427 0.961 . S
H443 C427 0.960 . S
C444 C445 1.391 . S
C444 C446 1.394 . S
C444 H460 0.931 . S
C445 C444 1.391 . S
C445 C449 1.376 . S
C446 C444 1.394 . S
C446 C447 1.369 1_554 S
C446 C450 1.531 . S
C447 C446 1.369 1_556 S
C447 C448 1.410 . S
C447 C455 1.503 . S
C448 C447 1.410 . S
C448 C449 1.392 1_556 S
C448 C451 1.511 . S
C449 C445 1.376 . S
C449 C448 1.392 1_554 S
C449 H461 0.929 . S
C450 C446 1.531 . S
C450 H462 0.960 . S
C450 H463 0.962 . S
C450 H464 0.960 . S
C451 C448 1.511 . S
C451 H465 0.961 . S
C451 H466 0.961 . S
C451 H467 0.961 . S
C452 C453 1.370 1_554 S
C452 C454 1.363 . S
C452 H468 0.931 . S
C453 C452 1.370 1_556 S
C453 C457 1.408 . S
C454 C452 1.363 . S
C454 C455 1.370 1_554 S
C454 C458 1.524 . S
C455 C447 1.503 . S
C455 C454 1.370 1_556 S
C455 C456 1.403 . S
C456 C455 1.403 . S
C456 C457 1.404 . S
C456 C459 1.539 . S
C457 C453 1.408 . S
C457 C456 1.404 . S
C457 H469 0.930 . S
C458 C454 1.524 . S
C458 H470 0.956 . S
C458 H471 0.961 . S
C458 H472 0.961 . S
C459 C456 1.539 . S
C459 H473 0.958 . S
C459 H474 0.961 . S
C459 H475 0.960 . S
H460 C444 0.931 . S
H461 C449 0.929 . S
H462 C450 0.960 . S
H463 C450 0.962 . S
H464 C450 0.960 . S
H465 C451 0.961 . S
H466 C451 0.961 . S
H467 C451 0.961 . S
H468 C452 0.931 . S
H469 C457 0.930 . S
H470 C458 0.956 . S
H471 C458 0.961 . S
H472 C458 0.961 . S
H473 C459 0.958 . S
H474 C459 0.961 . S
H475 C459 0.960 . S
C476 C477 1.391 . S
C476 C478 1.394 . S
C476 H492 0.931 . S
C477 C476 1.391 . S
C477 C481 1.376 . S
C478 C476 1.394 . S
C478 C479 1.369 . S
C478 C482 1.531 . S
C479 C478 1.369 . S
C479 C480 1.410 . S
C479 C487 1.503 . S
C480 C479 1.410 . S
C480 C481 1.392 . S
C480 C483 1.511 . S
C481 C477 1.376 . S
C481 C480 1.392 . S
C481 H493 0.929 . S
C482 C478 1.531 . S
C482 H494 0.960 . S
C482 H495 0.962 . S
C482 H496 0.960 . S
C483 C480 1.511 . S
C483 H497 0.961 . S
C483 H498 0.961 . S
C483 H499 0.961 . S
C484 C485 1.370 . S
C484 C486 1.363 . S
C484 H500 0.931 . S
C485 C484 1.370 . S
C485 C489 1.408 . S
C486 C484 1.363 . S
C486 C487 1.370 . S
C486 C490 1.524 . S
C487 C479 1.503 . S
C487 C486 1.370 . S
C487 C488 1.403 . S
C488 C487 1.403 . S
C488 C489 1.404 . S
C488 C491 1.539 . S
C489 C485 1.408 . S
C489 C488 1.404 . S
C489 H501 0.930 . S
C490 C486 1.524 . S
C490 H502 0.956 . S
C490 H503 0.961 . S
C490 H504 0.961 . S
C491 C488 1.539 . S
C491 H505 0.958 . S
C491 H506 0.961 . S
C491 H507 0.960 . S
H492 C476 0.931 . S
H493 C481 0.929 . S
H494 C482 0.960 . S
H495 C482 0.962 . S
H496 C482 0.960 . S
H497 C483 0.961 . S
H498 C483 0.961 . S
H499 C483 0.961 . S
H500 C484 0.931 . S
H501 C489 0.930 . S
H502 C490 0.956 . S
H503 C490 0.961 . S
H504 C490 0.961 . S
H505 C491 0.958 . S
H506 C491 0.961 . S
H507 C491 0.960 . S
C508 C509 1.391 . S
C508 C510 1.394 . S
C508 H524 0.931 . S
C509 C508 1.391 . S
C509 C513 1.376 . S
C510 C508 1.394 . S
C510 C511 1.369 . S
C510 C514 1.531 . S
C511 C510 1.369 . S
C511 C512 1.410 . S
C511 C519 1.503 . S
C512 C511 1.410 . S
C512 C513 1.392 . S
C512 C515 1.511 . S
C513 C509 1.376 . S
C513 C512 1.392 . S
C513 H525 0.929 . S
C514 C510 1.531 . S
C514 H526 0.960 . S
C514 H527 0.962 . S
C514 H528 0.960 . S
C515 C512 1.511 . S
C515 H529 0.961 . S
C515 H530 0.961 . S
C515 H531 0.961 . S
C516 C517 1.370 . S
C516 C518 1.363 . S
C516 H532 0.931 . S
C517 C516 1.370 . S
C517 C521 1.408 . S
C518 C516 1.363 . S
C518 C519 1.370 . S
C518 C522 1.524 . S
C519 C511 1.503 . S
C519 C518 1.370 . S
C519 C520 1.403 . S
C520 C519 1.403 . S
C520 C521 1.404 . S
C520 C523 1.539 . S
C521 C517 1.408 . S
C521 C520 1.404 . S
C521 H533 0.930 . S
C522 C518 1.524 . S
C522 H534 0.956 . S
C522 H535 0.961 . S
C522 H536 0.961 . S
C523 C520 1.539 . S
C523 H537 0.958 . S
C523 H538 0.961 . S
C523 H539 0.960 . S
H524 C508 0.931 . S
H525 C513 0.929 . S
H526 C514 0.960 . S
H527 C514 0.962 . S
H528 C514 0.960 . S
H529 C515 0.961 . S
H530 C515 0.961 . S
H531 C515 0.961 . S
H532 C516 0.931 . S
H533 C521 0.930 . S
H534 C522 0.956 . S
H535 C522 0.961 . S
H536 C522 0.961 . S
H537 C523 0.958 . S
H538 C523 0.961 . S
H539 C523 0.960 . S
C540 C541 1.391 . S
C540 C542 1.394 . S
C540 H556 0.931 . S
C541 C540 1.391 . S
C541 C545 1.376 . S
C542 C540 1.394 . S
C542 C543 1.369 . S
C542 C546 1.531 . S
C543 C542 1.369 . S
C543 C544 1.410 . S
C543 C551 1.503 . S
C544 C543 1.410 . S
C544 C545 1.392 . S
C544 C547 1.511 . S
C545 C541 1.376 . S
C545 C544 1.392 . S
C545 H557 0.929 . S
C546 C542 1.531 . S
C546 H558 0.960 . S
C546 H559 0.962 . S
C546 H560 0.960 . S
C547 C544 1.511 . S
C547 H561 0.961 . S
C547 H562 0.961 . S
C547 H563 0.961 . S
C548 C549 1.370 . S
C548 C550 1.363 . S
C548 H564 0.931 . S
C549 C548 1.370 . S
C549 C553 1.408 . S
C550 C548 1.363 . S
C550 C551 1.370 . S
C550 C554 1.524 . S
C551 C543 1.503 . S
C551 C550 1.370 . S
C551 C552 1.403 . S
C552 C551 1.403 . S
C552 C553 1.404 . S
C552 C555 1.539 . S
C553 C549 1.408 . S
C553 C552 1.404 . S
C553 H565 0.930 . S
C554 C550 1.524 . S
C554 H566 0.956 . S
C554 H567 0.961 . S
C554 H568 0.961 . S
C555 C552 1.539 . S
C555 H569 0.958 . S
C555 H570 0.961 . S
C555 H571 0.960 . S
H556 C540 0.931 . S
H557 C545 0.929 . S
H558 C546 0.960 . S
H559 C546 0.962 . S
H560 C546 0.960 . S
H561 C547 0.961 . S
H562 C547 0.961 . S
H563 C547 0.961 . S
H564 C548 0.931 . S
H565 C553 0.930 . S
H566 C554 0.956 . S
H567 C554 0.961 . S
H568 C554 0.961 . S
H569 C555 0.958 . S
H570 C555 0.961 . S
H571 C555 0.960 . S
C572 C573 1.391 . S
C572 C574 1.394 . S
C572 H588 0.931 . S
C573 C572 1.391 . S
C573 C577 1.376 1_655 S
C574 C572 1.394 . S
C574 C575 1.369 1_655 S
C574 C578 1.531 . S
C575 C574 1.369 1_455 S
C575 C576 1.410 . S
C575 C583 1.503 . S
C576 C575 1.410 . S
C576 C577 1.392 . S
C576 C579 1.511 . S
C577 C573 1.376 1_455 S
C577 C576 1.392 . S
C577 H589 0.929 . S
C578 C574 1.531 . S
C578 H590 0.960 . S
C578 H591 0.962 . S
C578 H592 0.960 . S
C579 C576 1.511 . S
C579 H593 0.961 . S
C579 H594 0.961 . S
C579 H595 0.961 . S
C580 C581 1.370 1_655 S
C580 C582 1.363 . S
C580 H596 0.931 . S
C581 C580 1.370 1_455 S
C581 C585 1.408 . S
C582 C580 1.363 . S
C582 C583 1.370 1_655 S
C582 C586 1.524 . S
C583 C575 1.503 . S
C583 C582 1.370 1_455 S
C583 C584 1.403 . S
C584 C583 1.403 . S
C584 C585 1.404 . S
C584 C587 1.539 . S
C585 C581 1.408 . S
C585 C584 1.404 . S
C585 H597 0.930 . S
C586 C582 1.524 . S
C586 H598 0.956 . S
C586 H599 0.961 . S
C586 H600 0.961 . S
C587 C584 1.539 . S
C587 H601 0.958 . S
C587 H602 0.961 . S
C587 H603 0.960 . S
H588 C572 0.931 . S
H589 C577 0.929 . S
H590 C578 0.960 . S
H591 C578 0.962 . S
H592 C578 0.960 . S
H593 C579 0.961 . S
H594 C579 0.961 . S
H595 C579 0.961 . S
H596 C580 0.931 . S
H597 C585 0.930 . S
H598 C586 0.956 . S
H599 C586 0.961 . S
H600 C586 0.961 . S
H601 C587 0.958 . S
H602 C587 0.961 . S
H603 C587 0.960 . S
C604 C605 1.391 . S
C604 C606 1.394 . S
C604 H620 0.931 . S
C605 C604 1.391 . S
C605 C609 1.376 1_565 S
C606 C604 1.394 . S
C606 C607 1.403 . S
C606 C610 1.531 . S
C607 C606 1.403 . S
C607 C608 1.380 1_565 S
C607 C615 1.502 1_565 S
C608 C607 1.380 1_545 S
C608 C609 1.392 . S
C608 C611 1.511 . S
C609 C605 1.376 1_545 S
C609 C608 1.392 . S
C609 H621 0.929 . S
C610 C606 1.531 . S
C610 H622 0.960 . S
C610 H623 0.962 . S
C610 H624 0.960 . S
C611 C608 1.511 . S
C611 H625 0.961 . S
C611 H626 0.961 . S
C611 H627 0.961 . S
C612 C613 1.370 . S
C612 C614 1.363 1_545 S
C612 H628 0.926 1_545 S
C613 C612 1.370 . S
C613 C617 1.408 . S
C614 C612 1.363 1_565 S
C614 C615 1.369 1_565 S
C614 C618 1.526 . S
C615 C607 1.502 1_545 S
C615 C614 1.369 1_545 S
C615 C616 1.403 . S
C616 C615 1.403 . S
C616 C617 1.404 . S
C616 C619 1.539 . S
C617 C613 1.408 . S
C617 C616 1.404 . S
C617 H629 0.930 . S
C618 C614 1.526 . S
C618 H630 0.956 . S
C618 H631 0.961 1_565 S
C618 H632 0.961 . S
C619 C616 1.539 . S
C619 H633 0.958 1_545 S
C619 H634 0.961 . S
C619 H635 0.960 . S
H620 C604 0.931 . S
H621 C609 0.929 . S
H622 C610 0.960 . S
H623 C610 0.962 . S
H624 C610 0.960 . S
H625 C611 0.961 . S
H626 C611 0.961 . S
H627 C611 0.961 . S
H628 C612 0.926 1_565 S
H629 C617 0.930 . S
H630 C618 0.956 . S
H631 C618 0.961 1_545 S
H632 C618 0.961 . S
H633 C619 0.958 1_565 S
H634 C619 0.961 . S
H635 C619 0.960 . S
C636 C637 1.391 . S
C636 C638 1.394 . S
C636 H652 0.931 . S
C637 C636 1.391 . S
C637 C641 1.376 . S
C638 C636 1.394 . S
C638 C639 1.369 . S
C638 C642 1.531 . S
C639 C638 1.369 . S
C639 C640 1.410 . S
C639 C647 1.503 . S
C640 C639 1.410 . S
C640 C641 1.392 . S
C640 C643 1.511 . S
C641 C637 1.376 . S
C641 C640 1.392 . S
C641 H653 0.929 . S
C642 C638 1.531 . S
C642 H654 0.960 . S
C642 H655 0.962 . S
C642 H656 0.960 . S
C643 C640 1.511 . S
C643 H657 0.961 . S
C643 H658 0.961 . S
C643 H659 0.961 . S
C644 C645 1.370 . S
C644 C646 1.363 . S
C644 H660 0.931 . S
C645 C644 1.370 . S
C645 C649 1.408 . S
C646 C644 1.363 . S
C646 C647 1.370 . S
C646 C650 1.524 . S
C647 C639 1.503 . S
C647 C646 1.370 . S
C647 C648 1.403 . S
C648 C647 1.403 . S
C648 C649 1.404 . S
C648 C651 1.539 . S
C649 C645 1.408 . S
C649 C648 1.404 . S
C649 H661 0.930 . S
C650 C646 1.524 . S
C650 H662 0.956 . S
C650 H663 0.961 . S
C650 H664 0.961 . S
C651 C648 1.539 . S
C651 H665 0.958 . S
C651 H666 0.961 . S
C651 H667 0.960 . S
H652 C636 0.931 . S
H653 C641 0.929 . S
H654 C642 0.960 . S
H655 C642 0.962 . S
H656 C642 0.960 . S
H657 C643 0.961 . S
H658 C643 0.961 . S
H659 C643 0.961 . S
H660 C644 0.931 . S
H661 C649 0.930 . S
H662 C650 0.956 . S
H663 C650 0.961 . S
H664 C650 0.961 . S
H665 C651 0.958 . S
H666 C651 0.961 . S
H667 C651 0.960 . S
C668 C669 1.391 1_655 S
C668 C670 1.394 . S
C668 H684 0.931 . S
C669 C668 1.391 1_455 S
C669 C673 1.376 . S
C670 C668 1.394 . S
C670 C671 1.369 1_655 S
C670 C674 1.531 . S
C671 C670 1.369 1_455 S
C671 C672 1.410 . S
C671 C679 1.503 . S
C672 C671 1.410 . S
C672 C673 1.392 . S
C672 C675 1.511 . S
C673 C669 1.376 . S
C673 C672 1.392 . S
C673 H685 0.929 . S
C674 C670 1.531 . S
C674 H686 0.960 . S
C674 H687 0.962 . S
C674 H688 0.960 . S
C675 C672 1.511 . S
C675 H689 0.961 . S
C675 H690 0.961 . S
C675 H691 0.961 . S
C676 C677 1.370 . S
C676 C678 1.363 . S
C676 H692 0.931 . S
C677 C676 1.370 . S
C677 C681 1.408 1_655 S
C678 C676 1.363 . S
C678 C679 1.370 1_655 S
C678 C682 1.524 . S
C679 C671 1.503 . S
C679 C678 1.370 1_455 S
C679 C680 1.403 . S
C680 C679 1.403 . S
C680 C681 1.404 . S
C680 C683 1.539 . S
C681 C677 1.408 1_455 S
C681 C680 1.404 . S
C681 H693 0.930 . S
C682 C678 1.524 . S
C682 H694 0.956 . S
C682 H695 0.961 . S
C682 H696 0.961 . S
C683 C680 1.539 . S
C683 H697 0.958 . S
C683 H698 0.961 . S
C683 H699 0.960 . S
H684 C668 0.931 . S
H685 C673 0.929 . S
H686 C674 0.960 . S
H687 C674 0.962 . S
H688 C674 0.960 . S
H689 C675 0.961 . S
H690 C675 0.961 . S
H691 C675 0.961 . S
H692 C676 0.931 . S
H693 C681 0.930 . S
H694 C682 0.956 . S
H695 C682 0.961 . S
H696 C682 0.961 . S
H697 C683 0.958 . S
H698 C683 0.961 . S
H699 C683 0.960 . S
C700 C701 1.391 1_545 S
C700 C702 1.394 . S
C700 H716 0.931 . S
C701 C700 1.391 1_565 S
C701 C705 1.376 . S
C702 C700 1.394 . S
C702 C703 1.369 . S
C702 C706 1.531 . S
C703 C702 1.369 . S
C703 C704 1.410 1_545 S
C703 C711 1.503 . S
C704 C703 1.410 1_565 S
C704 C705 1.392 . S
C704 C707 1.511 . S
C705 C701 1.376 . S
C705 C704 1.392 . S
C705 H717 0.929 . S
C706 C702 1.531 . S
C706 H718 0.960 . S
C706 H719 0.962 . S
C706 H720 0.960 . S
C707 C704 1.511 . S
C707 H721 0.961 . S
C707 H722 0.961 . S
C707 H723 0.961 . S
C708 C709 1.370 1_565 S
C708 C710 1.363 . S
C708 H724 0.931 . S
C709 C708 1.370 1_545 S
C709 C713 1.408 . S
C710 C708 1.363 . S
C710 C711 1.370 1_565 S
C710 C714 1.524 . S
C711 C703 1.503 . S
C711 C710 1.370 1_545 S
C711 C712 1.403 . S
C712 C711 1.403 . S
C712 C713 1.404 . S
C712 C715 1.539 . S
C713 C709 1.408 . S
C713 C712 1.404 . S
C713 H725 0.930 . S
C714 C710 1.524 . S
C714 H726 0.956 . S
C714 H727 0.961 . S
C714 H728 0.961 . S
C715 C712 1.539 . S
C715 H729 0.958 . S
C715 H730 0.961 . S
C715 H731 0.960 . S
H716 C700 0.931 . S
H717 C705 0.929 . S
H718 C706 0.960 . S
H719 C706 0.962 . S
H720 C706 0.960 . S
H721 C707 0.961 . S
H722 C707 0.961 . S
H723 C707 0.961 . S
H724 C708 0.931 . S
H725 C713 0.930 . S
H726 C714 0.956 . S
H727 C714 0.961 . S
H728 C714 0.961 . S
H729 C715 0.958 . S
H730 C715 0.961 . S
H731 C715 0.960 . S
C732 C733 1.391 . S
C732 C734 1.394 . S
C732 H748 0.931 . S
C733 C732 1.391 . S
C733 C737 1.376 . S
C734 C732 1.394 . S
C734 C735 1.369 . S
C734 C738 1.531 . S
C735 C734 1.369 . S
C735 C736 1.410 . S
C735 C743 1.503 . S
C736 C735 1.410 . S
C736 C737 1.392 . S
C736 C739 1.511 . S
C737 C733 1.376 . S
C737 C736 1.392 . S
C737 H749 0.929 . S
C738 C734 1.531 . S
C738 H750 0.960 . S
C738 H751 0.962 . S
C738 H752 0.960 . S
C739 C736 1.511 . S
C739 H753 0.961 . S
C739 H754 0.961 . S
C739 H755 0.961 1_554 S
C740 C741 1.370 . S
C740 C742 1.363 . S
C740 H756 0.931 . S
C741 C740 1.370 . S
C741 C745 1.408 . S
C742 C740 1.363 . S
C742 C743 1.370 . S
C742 C746 1.524 . S
C743 C735 1.503 . S
C743 C742 1.370 . S
C743 C744 1.403 . S
C744 C743 1.403 . S
C744 C745 1.404 . S
C744 C747 1.539 1_554 S
C745 C741 1.408 . S
C745 C744 1.404 . S
C745 H757 0.930 1_554 S
C746 C742 1.524 . S
C746 H758 0.956 . S
C746 H759 0.961 . S
C746 H760 0.961 . S
C747 C744 1.539 1_556 S
C747 H761 0.958 . S
C747 H762 0.961 . S
C747 H763 0.960 . S
H748 C732 0.931 . S
H749 C737 0.929 . S
H750 C738 0.960 . S
H751 C738 0.962 . S
H752 C738 0.960 . S
H753 C739 0.961 . S
H754 C739 0.961 . S
H755 C739 0.961 1_556 S
H756 C740 0.931 . S
H757 C745 0.930 1_556 S
H758 C746 0.956 . S
H759 C746 0.961 . S
H760 C746 0.961 . S
H761 C747 0.958 . S
H762 C747 0.961 . S
H763 C747 0.960 . S
C764 C765 1.391 . S
C764 C766 1.394 1_455 S
C764 H780 0.931 1_455 S
C765 C764 1.391 . S
C765 C769 1.376 . S
C766 C764 1.394 1_655 S
C766 C767 1.369 1_655 S
C766 C770 1.531 . S
C767 C766 1.369 1_455 S
C767 C768 1.410 . S
C767 C775 1.503 1_455 S
C768 C767 1.410 . S
C768 C769 1.392 . S
C768 C771 1.511 . S
C769 C765 1.376 . S
C769 C768 1.392 . S
C769 H781 0.929 . S
C770 C766 1.531 . S
C770 H782 0.960 . S
C770 H783 0.962 . S
C770 H784 0.960 . S
C771 C768 1.511 . S
C771 H785 0.961 . S
C771 H786 0.961 . S
C771 H787 0.961 . S
C772 C773 1.370 . S
C772 C774 1.363 . S
C772 H788 0.931 . S
C773 C772 1.370 . S
C773 C777 1.408 . S
C774 C772 1.363 . S
C774 C775 1.370 . S
C774 C778 1.524 . S
C775 C767 1.503 1_655 S
C775 C774 1.370 . S
C775 C776 1.403 . S
C776 C775 1.403 . S
C776 C777 1.404 . S
C776 C779 1.539 1_655 S
C777 C773 1.408 . S
C777 C776 1.404 . S
C777 H789 0.930 . S
C778 C774 1.524 . S
C778 H790 0.956 . S
C778 H791 0.961 . S
C778 H792 0.961 . S
C779 C776 1.539 1_455 S
C779 H793 0.958 . S
C779 H794 0.961 . S
C779 H795 0.960 . S
H780 C764 0.931 1_655 S
H781 C769 0.929 . S
H782 C770 0.960 . S
H783 C770 0.962 . S
H784 C770 0.960 . S
H785 C771 0.961 . S
H786 C771 0.961 . S
H787 C771 0.961 . S
H788 C772 0.931 . S
H789 C777 0.930 . S
H790 C778 0.956 . S
H791 C778 0.961 . S
H792 C778 0.961 . S
H793 C779 0.958 . S
H794 C779 0.961 . S
H795 C779 0.960 . S
C796 C797 1.391 . S
C796 C798 1.394 1_565 S
C796 H812 0.931 1_565 S
C797 C796 1.391 . S
C797 C801 1.376 . S
C798 C796 1.394 1_545 S
C798 C799 1.369 1_545 S
C798 C802 1.531 . S
C799 C798 1.369 1_565 S
C799 C800 1.410 . S
C799 C807 1.503 1_565 S
C800 C799 1.410 . S
C800 C801 1.392 . S
C800 C803 1.511 . S
C801 C797 1.376 . S
C801 C800 1.392 . S
C801 H813 0.929 . S
C802 C798 1.531 . S
C802 H814 0.960 . S
C802 H815 0.962 . S
C802 H816 0.960 . S
C803 C800 1.511 . S
C803 H817 0.961 . S
C803 H818 0.961 . S
C803 H819 0.961 . S
C804 C805 1.370 . S
C804 C806 1.363 . S
C804 H820 0.931 . S
C805 C804 1.370 . S
C805 C809 1.408 . S
C806 C804 1.363 . S
C806 C807 1.370 . S
C806 C810 1.524 . S
C807 C799 1.503 1_545 S
C807 C806 1.370 . S
C807 C808 1.403 . S
C808 C807 1.403 . S
C808 C809 1.404 . S
C808 C811 1.539 1_545 S
C809 C805 1.408 . S
C809 C808 1.404 . S
C809 H821 0.930 . S
C810 C806 1.524 . S
C810 H822 0.956 . S
C810 H823 0.961 1_545 S
C810 H824 0.961 . S
C811 C808 1.539 1_565 S
C811 H825 0.958 1_565 S
C811 H826 0.961 . S
C811 H827 0.960 . S
H812 C796 0.931 1_545 S
H813 C801 0.929 . S
H814 C802 0.960 . S
H815 C802 0.962 . S
H816 C802 0.960 . S
H817 C803 0.961 . S
H818 C803 0.961 . S
H819 C803 0.961 . S
H820 C804 0.931 . S
H821 C809 0.930 . S
H822 C810 0.956 . S
H823 C810 0.961 1_565 S
H824 C810 0.961 . S
H825 C811 0.958 1_545 S
H826 C811 0.961 . S
H827 C811 0.960 . S
C828 C829 1.391 . S
C828 C830 1.394 . S
C828 H844 0.931 . S
C829 C828 1.391 . S
C829 C833 1.376 . S
C830 C828 1.394 . S
C830 C831 1.369 . S
C830 C834 1.531 . S
C831 C830 1.369 . S
C831 C832 1.410 . S
C831 C839 1.503 . S
C832 C831 1.410 . S
C832 C833 1.392 . S
C832 C835 1.511 . S
C833 C829 1.376 . S
C833 C832 1.392 . S
C833 H845 0.929 . S
C834 C830 1.531 . S
C834 H846 0.960 . S
C834 H847 0.962 . S
C834 H848 0.960 . S
C835 C832 1.511 . S
C835 H849 0.961 . S
C835 H850 0.961 . S
C835 H851 0.961 . S
C836 C837 1.370 . S
C836 C838 1.363 . S
C836 H852 0.931 . S
C837 C836 1.370 . S
C837 C841 1.408 . S
C838 C836 1.363 . S
C838 C839 1.370 . S
C838 C842 1.524 . S
C839 C831 1.503 . S
C839 C838 1.370 . S
C839 C840 1.403 . S
C840 C839 1.403 . S
C840 C841 1.404 . S
C840 C843 1.539 . S
C841 C837 1.408 . S
C841 C840 1.404 . S
C841 H853 0.930 . S
C842 C838 1.524 . S
C842 H854 0.956 . S
C842 H855 0.961 . S
C842 H856 0.961 . S
C843 C840 1.539 . S
C843 H857 0.958 . S
C843 H858 0.961 . S
C843 H859 0.960 . S
H844 C828 0.931 . S
H845 C833 0.929 . S
H846 C834 0.960 . S
H847 C834 0.962 . S
H848 C834 0.960 . S
H849 C835 0.961 . S
H850 C835 0.961 . S
H851 C835 0.961 . S
H852 C836 0.931 . S
H853 C841 0.930 . S
H854 C842 0.956 . S
H855 C842 0.961 . S
H856 C842 0.961 . S
H857 C843 0.958 . S
H858 C843 0.961 . S
H859 C843 0.960 . S
C860 C861 1.391 . S
C860 C862 1.394 1_655 S
C860 H876 0.931 1_655 S
C861 C860 1.391 . S
C861 C865 1.376 . S
C862 C860 1.394 1_455 S
C862 C863 1.369 1_455 S
C862 C866 1.531 . S
C863 C862 1.369 1_655 S
C863 C864 1.410 . S
C863 C871 1.503 1_655 S
C864 C863 1.410 . S
C864 C865 1.392 . S
C864 C867 1.505 1_556 S
C865 C861 1.376 . S
C865 C864 1.392 . S
C865 H877 0.929 . S
C866 C862 1.531 . S
C866 H878 0.960 . S
C866 H879 0.962 . S
C866 H880 0.960 . S
C867 C864 1.505 1_554 S
C867 H881 0.961 . S
C867 H882 0.957 1_554 S
C867 H883 0.970 . S
C868 C869 1.370 . S
C868 C870 1.376 . S
C868 H884 0.931 . S
C869 C868 1.370 . S
C869 C873 1.408 . S
C870 C868 1.376 . S
C870 C871 1.370 . S
C870 C874 1.512 1_455 S
C871 C863 1.503 1_455 S
C871 C870 1.370 . S
C871 C872 1.403 . S
C872 C871 1.403 . S
C872 C873 1.404 . S
C872 C875 1.539 1_556 S
C873 C869 1.408 . S
C873 C872 1.404 . S
C873 H885 0.930 . S
C874 C870 1.512 1_655 S
C874 H886 0.956 . S
C874 H887 0.961 . S
C874 H888 0.961 . S
C875 C872 1.539 1_554 S
C875 H889 0.958 . S
C875 H890 0.961 . S
C875 H891 0.960 . S
H876 C860 0.931 1_455 S
H877 C865 0.929 . S
H878 C866 0.960 . S
H879 C866 0.962 . S
H880 C866 0.960 . S
H881 C867 0.961 . S
H882 C867 0.957 1_556 S
H883 C867 0.970 . S
H884 C868 0.931 . S
H885 C873 0.930 . S
H886 C874 0.956 . S
H887 C874 0.961 . S
H888 C874 0.961 . S
H889 C875 0.958 . S
H890 C875 0.961 . S
H891 C875 0.960 . S
C892 C893 1.391 . S
C892 C894 1.394 . S
C892 H908 0.931 . S
C893 C892 1.391 . S
C893 C897 1.376 . S
C894 C892 1.394 . S
C894 C895 1.358 . S
C894 C898 1.530 1_545 S
C895 C894 1.358 . S
C895 C896 1.420 . S
C895 C903 1.510 1_545 S
C896 C895 1.420 . S
C896 C897 1.392 . S
C896 C899 1.511 . S
C897 C893 1.376 . S
C897 C896 1.392 . S
C897 H909 0.929 . S
C898 C894 1.530 1_565 S
C898 H910 0.960 . S
C898 H911 0.962 . S
C898 H912 0.960 . S
C899 C896 1.511 . S
C899 H913 0.961 . S
C899 H914 0.961 . S
C899 H915 0.941 1_545 S
C900 C901 1.370 . S
C900 C902 1.363 1_565 S
C900 H916 0.931 1_565 S
C901 C900 1.370 . S
C901 C905 1.408 . S
C902 C900 1.363 1_545 S
C902 C903 1.370 1_545 S
C902 C906 1.524 . S
C903 C895 1.510 1_565 S
C903 C902 1.370 1_565 S
C903 C904 1.403 . S
C904 C903 1.403 . S
C904 C905 1.404 . S
C904 C907 1.539 . S
C905 C901 1.408 . S
C905 C904 1.404 . S
C905 H917 0.930 . S
C906 C902 1.524 . S
C906 H918 0.956 . S
C906 H919 0.961 . S
C906 H920 0.961 . S
C907 C904 1.539 . S
C907 H921 0.958 . S
C907 H922 0.961 . S
C907 H923 0.960 . S
H908 C892 0.931 . S
H909 C897 0.929 . S
H910 C898 0.960 . S
H911 C898 0.962 . S
H912 C898 0.960 . S
H913 C899 0.961 . S
H914 C899 0.961 . S
H915 C899 0.941 1_565 S
H916 C900 0.931 1_545 S
H917 C905 0.930 . S
H918 C906 0.956 . S
H919 C906 0.961 . S
H920 C906 0.961 . S
H921 C907 0.958 . S
H922 C907 0.961 . S
H923 C907 0.960 . S
C157 C10 1.327 . S
C165 C127 1.341 . S
C189 C23 1.329 . S
C197 C140 1.337 . S
C221 C36 1.335 . S
C229 C153 1.337 . S
C253 C49 1.329 . S
C261 C88 1.343 . S
C285 C101 1.326 . S
C293 C62 1.339 . S
C317 C114 1.339 . S
C325 C75 1.338 . S
C349 C130 1.359 . S
C357 C0 1.349 . S
C381 C13 1.364 . S
C389 C143 1.363 . S
C413 C26 1.343 . S
C421 C78 1.347 . S
C445 C39 1.368 . S
C453 C91 1.353 . S
C477 C52 1.346 . S
C485 C104 1.347 . S
C509 C65 1.359 . S
C517 C117 1.349 . S
C541 C125 0.685 . S
C549 C8 0.675 . S
C573 C21 0.704 . S
C581 C138 0.681 . S
C605 C34 0.632 . S
C613 C151 0.670 . S
C637 C86 0.623 . S
C645 C47 0.672 . S
C669 C60 0.747 . S
C677 C99 0.740 . S
C701 C112 0.785 . S
C709 C73 0.721 . S
C733 C5 1.348 . S
C741 C44 1.366 . S
C765 C57 1.383 . S
C773 C18 1.350 . S
C797 C31 1.372 . S
C805 C70 1.356 . S
C829 C83 1.386 . S
C837 C122 1.349 . S
C861 C96 1.338 . S
C869 C135 1.369 . S
C893 C148 1.319 . S
C901 C109 1.374 . S
