# Generated by pormake.
# Topology wfv, (7)-cn, num edge types: 1
# Building blocks:
#     Node 0, Type 0, BuildingBlock: NUHQUE_clean_sbu_2, # of connection points: 7
#     Node 1, Type 0, BuildingBlock: NUHQUE_clean_sbu_2, # of connection points: 7
#     Node 2, Type 0, BuildingBlock: NUHQUE_clean_sbu_2, # of connection points: 7
#     Node 3, Type 0, BuildingBlock: NUHQUE_clean_sbu_2, # of connection points: 7
#     Node 4, Type 0, BuildingBlock: NUHQUE_clean_sbu_2, # of connection points: 7
#     Node 5, Type 0, BuildingBlock: NUHQUE_clean_sbu_2, # of connection points: 7
#     Node 6, Type 0, BuildingBlock: NUHQUE_clean_sbu_2, # of connection points: 7
#     Node 7, Type 0, BuildingBlock: NUHQUE_clean_sbu_2, # of connection points: 7
#     Node 8, Type 0, BuildingBlock: NUHQUE_clean_sbu_2, # of connection points: 7
#     Node 9, Type 0, BuildingBlock: NUHQUE_clean_sbu_2, # of connection points: 7
#     Node 10, Type 0, BuildingBlock: NUHQUE_clean_sbu_2, # of connection points: 7
#     Node 11, Type 0, BuildingBlock: NUHQUE_clean_sbu_2, # of connection points: 7
#     Node 12, Type 0, BuildingBlock: NUHQUE_clean_sbu_2, # of connection points: 7
#     Node 13, Type 0, BuildingBlock: NUHQUE_clean_sbu_2, # of connection points: 7
#     Node 14, Type 0, BuildingBlock: NUHQUE_clean_sbu_2, # of connection points: 7
#     Node 15, Type 0, BuildingBlock: NUHQUE_clean_sbu_2, # of connection points: 7
#     Edge 16, Type (0, 0), BuildingBlock: TEMPAE_clean_linker_10, # of connection points: 2
#     Edge 17, Type (0, 0), BuildingBlock: TEMPAE_clean_linker_10, # of connection points: 2
#     Edge 18, Type (0, 0), BuildingBlock: TEMPAE_clean_linker_10, # of connection points: 2
#     Edge 19, Type (0, 0), BuildingBlock: TEMPAE_clean_linker_10, # of connection points: 2
#     Edge 20, Type (0, 0), BuildingBlock: TEMPAE_clean_linker_10, # of connection points: 2
#     Edge 21, Type (0, 0), BuildingBlock: TEMPAE_clean_linker_10, # of connection points: 2
#     Edge 22, Type (0, 0), BuildingBlock: TEMPAE_clean_linker_10, # of connection points: 2
#     Edge 23, Type (0, 0), BuildingBlock: TEMPAE_clean_linker_10, # of connection points: 2
#     Edge 24, Type (0, 0), BuildingBlock: TEMPAE_clean_linker_10, # of connection points: 2
#     Edge 25, Type (0, 0), BuildingBlock: TEMPAE_clean_linker_10, # of connection points: 2
#     Edge 26, Type (0, 0), BuildingBlock: TEMPAE_clean_linker_10, # of connection points: 2
#     Edge 27, Type (0, 0), BuildingBlock: TEMPAE_clean_linker_10, # of connection points: 2
#     Edge 28, Type (0, 0), BuildingBlock: TEMPAE_clean_linker_10, # of connection points: 2
#     Edge 29, Type (0, 0), BuildingBlock: TEMPAE_clean_linker_10, # of connection points: 2
#     Edge 30, Type (0, 0), BuildingBlock: TEMPAE_clean_linker_10, # of connection points: 2
#     Edge 31, Type (0, 0), BuildingBlock: TEMPAE_clean_linker_10, # of connection points: 2
#     Edge 32, Type (0, 0), BuildingBlock: TEMPAE_clean_linker_10, # of connection points: 2
#     Edge 33, Type (0, 0), BuildingBlock: TEMPAE_clean_linker_10, # of connection points: 2
#     Edge 34, Type (0, 0), BuildingBlock: TEMPAE_clean_linker_10, # of connection points: 2
#     Edge 35, Type (0, 0), BuildingBlock: TEMPAE_clean_linker_10, # of connection points: 2
#     Edge 36, Type (0, 0), BuildingBlock: TEMPAE_clean_linker_10, # of connection points: 2
#     Edge 37, Type (0, 0), BuildingBlock: TEMPAE_clean_linker_10, # of connection points: 2
#     Edge 38, Type (0, 0), BuildingBlock: TEMPAE_clean_linker_10, # of connection points: 2
#     Edge 39, Type (0, 0), BuildingBlock: TEMPAE_clean_linker_10, # of connection points: 2
#     Edge 40, Type (0, 0), BuildingBlock: TEMPAE_clean_linker_10, # of connection points: 2
#     Edge 41, Type (0, 0), BuildingBlock: TEMPAE_clean_linker_10, # of connection points: 2
#     Edge 42, Type (0, 0), BuildingBlock: TEMPAE_clean_linker_10, # of connection points: 2
#     Edge 43, Type (0, 0), BuildingBlock: TEMPAE_clean_linker_10, # of connection points: 2
#     Edge 44, Type (0, 0), BuildingBlock: TEMPAE_clean_linker_10, # of connection points: 2
#     Edge 45, Type (0, 0), BuildingBlock: TEMPAE_clean_linker_10, # of connection points: 2
#     Edge 46, Type (0, 0), BuildingBlock: TEMPAE_clean_linker_10, # of connection points: 2
#     Edge 47, Type (0, 0), BuildingBlock: TEMPAE_clean_linker_10, # of connection points: 2
#     Edge 48, Type (0, 0), BuildingBlock: TEMPAE_clean_linker_10, # of connection points: 2
#     Edge 49, Type (0, 0), BuildingBlock: TEMPAE_clean_linker_10, # of connection points: 2
#     Edge 50, Type (0, 0), BuildingBlock: TEMPAE_clean_linker_10, # of connection points: 2
#     Edge 51, Type (0, 0), BuildingBlock: TEMPAE_clean_linker_10, # of connection points: 2
#     Edge 52, Type (0, 0), BuildingBlock: TEMPAE_clean_linker_10, # of connection points: 2
#     Edge 53, Type (0, 0), BuildingBlock: TEMPAE_clean_linker_10, # of connection points: 2
#     Edge 54, Type (0, 0), BuildingBlock: TEMPAE_clean_linker_10, # of connection points: 2
#     Edge 55, Type (0, 0), BuildingBlock: TEMPAE_clean_linker_10, # of connection points: 2
#     Edge 56, Type (0, 0), BuildingBlock: TEMPAE_clean_linker_10, # of connection points: 2
#     Edge 57, Type (0, 0), BuildingBlock: TEMPAE_clean_linker_10, # of connection points: 2
#     Edge 58, Type (0, 0), BuildingBlock: TEMPAE_clean_linker_10, # of connection points: 2
#     Edge 59, Type (0, 0), BuildingBlock: TEMPAE_clean_linker_10, # of connection points: 2
#     Edge 60, Type (0, 0), BuildingBlock: TEMPAE_clean_linker_10, # of connection points: 2
#     Edge 61, Type (0, 0), BuildingBlock: TEMPAE_clean_linker_10, # of connection points: 2
#     Edge 62, Type (0, 0), BuildingBlock: TEMPAE_clean_linker_10, # of connection points: 2
#     Edge 63, Type (0, 0), BuildingBlock: TEMPAE_clean_linker_10, # of connection points: 2
#     Edge 64, Type (0, 0), BuildingBlock: TEMPAE_clean_linker_10, # of connection points: 2
#     Edge 65, Type (0, 0), BuildingBlock: TEMPAE_clean_linker_10, # of connection points: 2
#     Edge 66, Type (0, 0), BuildingBlock: TEMPAE_clean_linker_10, # of connection points: 2
#     Edge 67, Type (0, 0), BuildingBlock: TEMPAE_clean_linker_10, # of connection points: 2
#     Edge 68, Type (0, 0), BuildingBlock: TEMPAE_clean_linker_10, # of connection points: 2
#     Edge 69, Type (0, 0), BuildingBlock: TEMPAE_clean_linker_10, # of connection points: 2
#     Edge 70, Type (0, 0), BuildingBlock: TEMPAE_clean_linker_10, # of connection points: 2
#     Edge 71, Type (0, 0), BuildingBlock: TEMPAE_clean_linker_10, # of connection points: 2
# Relax obj value: 0.192
# Max RMSD: 0.256
# Mean RMSD: 0.256
data_MOF--net-wfv--node1-NUHQUE_clean_sbu_2--edge1-TEMPAE_clean_linker_10
_symmetry_space_group_name_H-M    P1
_symmetry_Int_Tables_number       1
_symmetry_cell_setting            triclinic
loop_
_symmetry_equiv_pos_as_xyz
'x, y, z'
_cell_length_a     46.906315
_cell_length_b     46.848122
_cell_length_c     43.31179
_cell_angle_alpha  90.027138
_cell_angle_beta   89.886134
_cell_angle_gamma 89.926325
loop_
_atom_site_label
_atom_site_type_symbol
_atom_site_fract_x
_atom_site_fract_y
_atom_site_fract_z
_atom_type_partial_charge
O0 O 0.63539 0.12708 0.09207 0.0
Tb1 Tb 0.67434 0.11475 0.11559 0.0
Eu2 Eu 0.68486 0.01554 0.13104 0.0
C3 C 0.63486 0.12606 0.06175 0.0
O4 O 0.65414 0.1106 0.04746 0.0
C5 C 0.71043 0.06101 0.08823 0.0
O6 O 0.72107 0.99544 0.15692 0.0
C7 C 0.64822 0.97894 0.10973 0.0
C8 C 0.74395 0.01077 0.16228 0.0
O9 O 0.74398 0.03773 0.15402 0.0
C10 C 0.67671 0.07342 0.17041 0.0
C11 C 0.61776 0.97155 0.10464 0.0
C12 C 0.60122 0.98411 0.08087 0.0
C13 C 0.5738 0.9734 0.07403 0.0
C14 C 0.56298 0.95079 0.09169 0.0
C15 C 0.57941 0.9375 0.11444 0.0
C16 C 0.60652 0.94827 0.12121 0.0
O17 O 0.68696 0.07241 0.09966 0.0
O18 O 0.71391 0.03377 0.09437 0.0
O19 O 0.70949 0.14222 0.10044 0.0
O20 O 0.68152 0.1556 0.13684 0.0
C21 C 0.70318 0.16273 0.11983 0.0
O22 O 0.66476 0.05502 0.15136 0.0
O23 O 0.67422 0.10068 0.16365 0.0
O24 O 0.65771 0.97859 0.13834 0.0
O25 O 0.66017 0.99871 0.09245 0.0
H26 H 0.61004 1.0011 0.06686 0.0
H27 H 0.54182 0.94262 0.08682 0.0
H28 H 0.61959 0.93735 0.13813 0.0
O29 O 0.38411 0.64376 0.08436 0.0
Tb30 Tb 0.39444 0.67887 0.11502 0.0
Eu31 Eu 0.49405 0.68939 0.12605 0.0
C32 C 0.37727 0.65122 0.05603 0.0
O33 O 0.38307 0.67747 0.04734 0.0
C34 C 0.44795 0.71487 0.0847 0.0
O35 O 0.51309 0.72655 0.1514 0.0
C36 C 0.53146 0.65314 0.10526 0.0
C37 C 0.49731 0.74928 0.15637 0.0
O38 O 0.47042 0.74871 0.14804 0.0
C39 C 0.43774 0.67846 0.16787 0.0
C40 C 0.53892 0.62254 0.10091 0.0
C41 C 0.52646 0.60548 0.07751 0.0
C42 C 0.53711 0.57783 0.07136 0.0
C43 C 0.55959 0.5673 0.08936 0.0
C44 C 0.57277 0.58421 0.11181 0.0
C45 C 0.56205 0.61157 0.11784 0.0
O46 O 0.43591 0.69634 0.10327 0.0
O47 O 0.47567 0.71682 0.08778 0.0
O48 O 0.36469 0.713 0.10311 0.0
O49 O 0.35395 0.68249 0.13819 0.0
C50 C 0.34513 0.70449 0.12261 0.0
O51 O 0.45586 0.66765 0.14762 0.0
O52 O 0.41034 0.67475 0.16232 0.0
O53 O 0.53181 0.66335 0.1336 0.0
O54 O 0.51143 0.66442 0.0879 0.0
H55 H 0.50955 0.61406 0.06324 0.0
H56 H 0.56769 0.54595 0.08509 0.0
H57 H 0.57287 0.62501 0.13449 0.0
O58 O 0.85701 0.38151 0.08739 0.0
Tb59 Tb 0.82421 0.40008 0.11692 0.0
Eu60 Eu 0.82081 0.50061 0.12916 0.0
C61 C 0.84765 0.36348 0.06639 0.0
O62 O 0.82011 0.35889 0.06477 0.0
C63 C 0.79359 0.45579 0.08738 0.0
O64 O 0.78407 0.52079 0.15437 0.0
C65 C 0.85806 0.53628 0.10726 0.0
C66 C 0.76116 0.50527 0.15907 0.0
O67 O 0.76168 0.47829 0.15085 0.0
C68 C 0.82935 0.44306 0.16952 0.0
C69 C 0.88889 0.54243 0.10285 0.0
C70 C 0.9052 0.52997 0.07874 0.0
C71 C 0.9332 0.53959 0.07271 0.0
C72 C 0.94481 0.56101 0.09145 0.0
C73 C 0.92866 0.57414 0.11466 0.0
C74 C 0.90097 0.56446 0.12057 0.0
O75 O 0.81518 0.4432 0.10116 0.0
O76 O 0.79175 0.48337 0.09214 0.0
O77 O 0.78303 0.37979 0.10791 0.0
O78 O 0.81176 0.36174 0.14086 0.0
C79 C 0.78736 0.3587 0.12713 0.0
O80 O 0.84088 0.46123 0.14986 0.0
O81 O 0.83284 0.41569 0.16355 0.0
O82 O 0.84785 0.53771 0.13561 0.0
O83 O 0.84612 0.51623 0.09041 0.0
H84 H 0.89581 0.51394 0.06388 0.0
H85 H 0.96637 0.56837 0.08715 0.0
H86 H 0.88814 0.57539 0.13777 0.0
O87 O 0.12761 0.85791 0.09442 0.0
Tb88 Tb 0.10846 0.82358 0.12151 0.0
Eu89 Eu 0.00837 0.82142 0.13487 0.0
C90 C 0.14486 0.84993 0.07191 0.0
O91 O 0.14885 0.82254 0.0673 0.0
C92 C 0.05224 0.79471 0.09099 0.0
O93 O 0.98906 0.78433 0.15994 0.0
C94 C 0.97217 0.85953 0.11586 0.0
C95 C 0.00534 0.76204 0.16519 0.0
O96 O 0.03238 0.7634 0.1574 0.0
C97 C 0.06584 0.82806 0.17537 0.0
C98 C 0.96605 0.89047 0.11226 0.0
C99 C 0.98092 0.90804 0.09106 0.0
C100 C 0.97246 0.93669 0.08649 0.0
C101 C 0.94883 0.94721 0.1028 0.0
C102 C 0.93331 0.92979 0.12298 0.0
C103 C 0.94235 0.90169 0.12808 0.0
O104 O 0.06525 0.81565 0.10554 0.0
O105 O 0.02472 0.79315 0.0963 0.0
O106 O 0.12832 0.78266 0.10969 0.0
O107 O 0.14587 0.80881 0.14541 0.0
C108 C 0.14873 0.78518 0.13002 0.0
O109 O 0.04837 0.84011 0.15538 0.0
O110 O 0.09333 0.82935 0.16905 0.0
O111 O 0.97196 0.84899 0.14407 0.0
O112 O 0.99132 0.84763 0.09769 0.0
H113 H 0.99869 0.8995 0.07796 0.0
H114 H 0.94158 0.96888 0.0987 0.0
H115 H 0.92988 0.88799 0.1431 0.0
O116 O 0.65172 0.3741 0.41648 0.0
Tb117 Tb 0.69141 0.39317 0.40083 0.0
Eu118 Eu 0.69014 0.49169 0.3852 0.0
C119 C 0.64724 0.37418 0.44647 0.0
O120 O 0.66428 0.38958 0.46375 0.0
C121 C 0.71814 0.45019 0.42975 0.0
O122 O 0.72395 0.51621 0.35985 0.0
C123 C 0.64806 0.52268 0.40571 0.0
C124 C 0.74869 0.50373 0.35536 0.0
O125 O 0.75207 0.47742 0.36512 0.0
C126 C 0.69313 0.43391 0.34513 0.0
C127 C 0.61669 0.52753 0.40736 0.0
C128 C 0.59975 0.51651 0.43182 0.0
C129 C 0.57129 0.52587 0.43576 0.0
C130 C 0.55995 0.54557 0.41486 0.0
C131 C 0.57664 0.55729 0.39139 0.0
C132 C 0.60466 0.54786 0.38725 0.0
O133 O 0.69609 0.43671 0.41781 0.0
O134 O 0.72 0.47739 0.42293 0.0
O135 O 0.72384 0.37219 0.42903 0.0
O136 O 0.71687 0.35813 0.383 0.0
C137 C 0.73145 0.35383 0.40803 0.0
O138 O 0.67684 0.45047 0.36246 0.0
O139 O 0.69503 0.40674 0.35274 0.0
O140 O 0.66076 0.52693 0.37894 0.0
O141 O 0.65964 0.50198 0.42193 0.0
H142 H 0.609 0.50212 0.44863 0.0
H143 H 0.53835 0.55338 0.41814 0.0
H144 H 0.61774 0.55817 0.36986 0.0
O145 O 0.10815 0.65372 0.43704 0.0
Tb146 Tb 0.10003 0.69158 0.40938 0.0
Eu147 Eu 0.00063 0.70406 0.40377 0.0
C148 C 0.11515 0.65889 0.46597 0.0
O149 O 0.11076 0.68484 0.47655 0.0
C150 C 0.0483 0.72616 0.4451 0.0
O151 O 0.97896 0.74313 0.38458 0.0
C152 C 0.96554 0.66472 0.42274 0.0
C153 C 0.99324 0.76721 0.38317 0.0
O154 O 0.02044 0.76701 0.39036 0.0
C155 C 0.05522 0.69853 0.35771 0.0
C156 C 0.95827 0.63375 0.42207 0.0
C157 C 0.96961 0.61406 0.4438 0.0
C158 C 0.95901 0.58583 0.44533 0.0
C159 C 0.93787 0.57747 0.42445 0.0
C160 C 0.92556 0.5969 0.40396 0.0
C161 C 0.93614 0.62476 0.40235 0.0
O162 O 0.05928 0.70818 0.42511 0.0
O163 O 0.02049 0.72855 0.44347 0.0
O164 O 0.133 0.72202 0.42272 0.0
O165 O 0.14087 0.69104 0.38691 0.0
C166 C 0.15181 0.71161 0.40326 0.0
O167 O 0.0378 0.68538 0.37701 0.0
O168 O 0.08289 0.6958 0.3625 0.0
O169 O 0.962 0.67937 0.39707 0.0
O170 O 0.98759 0.67326 0.43901 0.0
H171 H 0.98544 0.62097 0.46037 0.0
H172 H 0.92964 0.55584 0.42528 0.0
H173 H 0.92579 0.63992 0.38713 0.0
O174 O 0.85245 0.10089 0.43979 0.0
Tb175 Tb 0.80756 0.0993 0.42685 0.0
Eu176 Eu 0.80677 0.02601 0.4185 0.0
C177 C 0.85967 0.10075 0.46925 0.0
O178 O 0.84328 0.08718 0.48894 0.0
C179 C 0.76838 0.06156 0.46774 0.0
O180 O 0.78609 0.98917 0.39398 0.0
C181 C 0.85301 0.01028 0.44664 0.0
C182 C 0.76315 0.99553 0.37801 0.0
O183 O 0.75461 0.02223 0.37775 0.0
C184 C 0.79637 0.06702 0.36308 0.0
C185 C 0.88065 0.99579 0.44087 0.0
C186 C 0.90552 0.00619 0.45524 0.0
C187 C 0.93147 0.99102 0.45317 0.0
C188 C 0.93214 0.9655 0.43624 0.0
C189 C 0.9077 0.95491 0.42183 0.0
C190 C 0.88198 0.97005 0.42398 0.0
O191 O 0.78796 0.08152 0.46788 0.0
O192 O 0.76933 0.04021 0.44802 0.0
O193 O 0.78107 0.13493 0.44244 0.0
O194 O 0.81743 0.14329 0.41458 0.0
C195 C 0.7964 0.15473 0.42965 0.0
O196 O 0.81323 0.04616 0.37182 0.0
O197 O 0.78773 0.08629 0.38322 0.0
O198 O 0.83001 0.99433 0.44467 0.0
O199 O 0.84947 0.03627 0.43559 0.0
H200 H 0.90442 0.02572 0.46863 0.0
H201 H 0.95145 0.95276 0.43557 0.0
H202 H 0.86295 0.96123 0.41353 0.0
O203 O 0.37969 0.84486 0.43087 0.0
Tb204 Tb 0.39661 0.81023 0.4023 0.0
Eu205 Eu 0.49576 0.79991 0.3825 0.0
C206 C 0.36243 0.83735 0.45357 0.0
O207 O 0.3573 0.81009 0.45768 0.0
C208 C 0.45183 0.7767 0.42867 0.0
O209 O 0.50937 0.76279 0.35336 0.0
C210 C 0.53804 0.83189 0.39938 0.0
C211 C 0.49242 0.74062 0.35114 0.0
O212 O 0.46738 0.74166 0.36473 0.0
C213 C 0.43771 0.81399 0.34691 0.0
C214 C 0.54883 0.86104 0.40501 0.0
C215 C 0.53522 0.88041 0.42534 0.0
C216 C 0.54808 0.90688 0.43208 0.0
C217 C 0.57367 0.91402 0.41731 0.0
C218 C 0.58832 0.89436 0.39878 0.0
C219 C 0.57546 0.86811 0.39217 0.0
O220 O 0.43992 0.79926 0.41595 0.0
O221 O 0.47871 0.7726 0.42138 0.0
O222 O 0.37468 0.77034 0.41389 0.0
O223 O 0.35836 0.79757 0.37851 0.0
C224 C 0.35431 0.77406 0.39374 0.0
O225 O 0.45672 0.8237 0.36665 0.0
O226 O 0.41059 0.81679 0.35445 0.0
O227 O 0.53373 0.8242 0.37052 0.0
O228 O 0.51958 0.82098 0.41898 0.0
H229 H 0.51552 0.87452 0.43675 0.0
H230 H 0.58299 0.93485 0.42145 0.0
H231 H 0.58679 0.85255 0.37822 0.0
O232 O 0.35461 0.87275 0.93057 0.0
Tb233 Tb 0.31462 0.89551 0.92536 0.0
Eu234 Eu 0.31141 0.98856 0.88869 0.0
C235 C 0.36812 0.87496 0.95707 0.0
O236 O 0.3618 0.89647 0.97533 0.0
C237 C 0.2909 0.95535 0.94622 0.0
O238 O 0.27223 0.00326 0.86338 0.0
C239 C 0.35051 0.02753 0.89279 0.0
C240 C 0.24871 0.98833 0.86654 0.0
O241 O 0.24964 0.96435 0.88221 0.0
C242 C 0.31135 0.925 0.86287 0.0
C243 C 0.38092 0.03606 0.89264 0.0
C244 C 0.40156 0.02349 0.9121 0.0
C245 C 0.42964 0.03448 0.91317 0.0
C246 C 0.43656 0.05804 0.89448 0.0
C247 C 0.41611 0.07096 0.87551 0.0
C248 C 0.38847 0.05975 0.87458 0.0
O249 O 0.31354 0.94057 0.93772 0.0
O250 O 0.28716 0.98034 0.93299 0.0
O251 O 0.27568 0.87005 0.92392 0.0
O252 O 0.3007 0.86995 0.96458 0.0
C253 C 0.2785 0.85895 0.95131 0.0
O254 O 0.32646 0.94403 0.87812 0.0
O255 O 0.30812 0.89968 0.87569 0.0
O256 O 0.33887 0.01988 0.8664 0.0
O257 O 0.34015 0.01398 0.91696 0.0
H258 H 0.39571 0.00559 0.92661 0.0
H259 H 0.45749 0.0677 0.89622 0.0
H260 H 0.37245 0.07021 0.8605 0.0
O261 O 0.63502 0.355 0.94031 0.0
Tb262 Tb 0.61315 0.31552 0.92904 0.0
Eu263 Eu 0.51987 0.31497 0.88992 0.0
C264 C 0.63257 0.36309 0.96931 0.0
O265 O 0.61238 0.35125 0.98602 0.0
C266 C 0.55152 0.29419 0.94816 0.0
O267 O 0.50708 0.27221 0.87105 0.0
C268 C 0.48067 0.35406 0.89088 0.0
C269 C 0.48875 0.26706 0.84886 0.0
O270 O 0.47751 0.28823 0.83316 0.0
C271 C 0.58435 0.31337 0.86627 0.0
C272 C 0.47265 0.38468 0.89015 0.0
C273 C 0.48523 0.40522 0.90975 0.0
C274 C 0.47464 0.43349 0.91069 0.0
C275 C 0.45146 0.44076 0.89169 0.0
C276 C 0.43852 0.42049 0.87246 0.0
C277 C 0.44937 0.39259 0.87167 0.0
O278 O 0.56775 0.31573 0.93966 0.0
O279 O 0.52613 0.29265 0.93554 0.0
O280 O 0.63849 0.27651 0.92426 0.0
O281 O 0.63694 0.29719 0.96749 0.0
C282 C 0.64844 0.27629 0.95227 0.0
O283 O 0.56507 0.32877 0.88098 0.0
O284 O 0.6098 0.31131 0.87899 0.0
O285 O 0.48966 0.34199 0.8651 0.0
O286 O 0.49285 0.34395 0.91599 0.0
H287 H 0.5028 0.39911 0.92454 0.0
H288 H 0.44212 0.46189 0.89336 0.0
H289 H 0.43897 0.37667 0.85742 0.0
O290 O 0.15076 0.64039 0.93373 0.0
Tb291 Tb 0.19027 0.61937 0.91995 0.0
Eu292 Eu 0.19371 0.52341 0.88602 0.0
C293 C 0.14451 0.63804 0.96334 0.0
O294 O 0.15791 0.61824 0.97919 0.0
C295 C 0.21445 0.55906 0.9415 0.0
O296 O 0.23692 0.50989 0.86896 0.0
C297 C 0.15551 0.48358 0.89013 0.0
C298 C 0.24321 0.49499 0.84417 0.0
O299 O 0.22302 0.48728 0.82493 0.0
C300 C 0.19329 0.58651 0.85838 0.0
C301 C 0.12492 0.47545 0.88946 0.0
C302 C 0.10445 0.48798 0.90927 0.0
C303 C 0.07628 0.47734 0.91043 0.0
C304 C 0.06901 0.45408 0.89151 0.0
C305 C 0.08915 0.44117 0.87195 0.0
C306 C 0.11697 0.45216 0.87091 0.0
O307 O 0.19252 0.57424 0.9319 0.0
O308 O 0.21653 0.53295 0.93068 0.0
O309 O 0.22483 0.64997 0.91298 0.0
O310 O 0.21203 0.63983 0.95846 0.0
C311 C 0.22872 0.6558 0.94202 0.0
O312 O 0.17839 0.56764 0.87416 0.0
O313 O 0.1957 0.61246 0.87014 0.0
O314 O 0.16802 0.49047 0.86383 0.0
O315 O 0.16501 0.49798 0.91415 0.0
H316 H 0.11051 0.5056 0.92408 0.0
H317 H 0.04796 0.44472 0.89348 0.0
H318 H 0.13281 0.4419 0.85637 0.0
O319 O 0.86884 0.15337 0.93245 0.0
Tb320 Tb 0.88993 0.19162 0.91537 0.0
Eu321 Eu 0.98822 0.19486 0.88747 0.0
C322 C 0.86935 0.15074 0.96275 0.0
O323 O 0.88788 0.1663 0.97796 0.0
C324 C 0.94928 0.21493 0.94059 0.0
O325 O 0.00537 0.23755 0.87287 0.0
C326 C 0.02601 0.1551 0.89596 0.0
C327 C 0.01536 0.2452 0.84575 0.0
O328 O 0.01668 0.22665 0.82305 0.0
C329 C 0.92634 0.19565 0.85582 0.0
C330 C 0.03304 0.12413 0.89605 0.0
C331 C 0.02146 0.10498 0.91807 0.0
C332 C 0.03183 0.07671 0.92026 0.0
C333 C 0.05276 0.06755 0.89928 0.0
C334 C 0.06508 0.08645 0.87818 0.0
C335 C 0.05519 0.11464 0.8766 0.0
O336 O 0.93467 0.1937 0.92854 0.0
O337 O 0.9758 0.2176 0.93139 0.0
O338 O 0.85529 0.22078 0.90421 0.0
O339 O 0.87168 0.22039 0.94975 0.0
C340 C 0.85219 0.23112 0.93185 0.0
O341 O 0.94478 0.18022 0.87163 0.0
O342 O 0.89986 0.19728 0.86624 0.0
O343 O 0.02217 0.16786 0.86908 0.0
O344 O 0.00979 0.16531 0.91826 0.0
H345 H 0.00568 0.11242 0.93452 0.0
H346 H 0.06109 0.04598 0.90085 0.0
H347 H 0.06569 0.12955 0.86117 0.0
O348 O 0.34327 0.62795 0.58219 0.0
Tb349 Tb 0.30189 0.61057 0.59468 0.0
Eu350 Eu 0.29911 0.51624 0.62799 0.0
C351 C 0.35027 0.62474 0.55293 0.0
O352 O 0.33587 0.60595 0.53669 0.0
C353 C 0.27186 0.55262 0.57686 0.0
O354 O 0.26427 0.49536 0.65559 0.0
C355 C 0.33829 0.47959 0.61264 0.0
C356 C 0.24001 0.50872 0.66032 0.0
O357 O 0.23775 0.53552 0.65174 0.0
C358 C 0.29999 0.57969 0.65692 0.0
C359 C 0.36792 0.46952 0.60745 0.0
C360 C 0.38862 0.48524 0.59078 0.0
C361 C 0.41612 0.4736 0.58593 0.0
C362 C 0.4222 0.4462 0.59718 0.0
C363 C 0.40153 0.42982 0.61238 0.0
C364 C 0.37463 0.44189 0.61796 0.0
O365 O 0.29601 0.56587 0.58271 0.0
O366 O 0.26868 0.52729 0.58938 0.0
O367 O 0.26713 0.64119 0.60113 0.0
O368 O 0.28474 0.63566 0.55659 0.0
C369 C 0.2665 0.65018 0.57273 0.0
O370 O 0.3145 0.56022 0.64134 0.0
O371 O 0.29809 0.60543 0.64467 0.0
O372 O 0.32927 0.48302 0.64122 0.0
O373 O 0.32601 0.4967 0.59254 0.0
H374 H 0.38346 0.50618 0.58177 0.0
H375 H 0.44319 0.43717 0.59323 0.0
H376 H 0.35839 0.42933 0.62949 0.0
O377 O 0.86924 0.34006 0.57702 0.0
Tb378 Tb 0.88388 0.30055 0.59811 0.0
Eu379 Eu 0.98103 0.30417 0.62447 0.0
C380 C 0.86782 0.34007 0.54664 0.0
O381 O 0.87909 0.31833 0.53178 0.0
C382 C 0.94439 0.27073 0.57915 0.0
O383 O 0.00218 0.27136 0.6547 0.0
C384 C 0.01566 0.34505 0.60847 0.0
C385 C 0.98959 0.24678 0.6599 0.0
O386 O 0.96376 0.24275 0.64907 0.0
C387 C 0.91953 0.30464 0.65787 0.0
C388 C 0.02278 0.37601 0.60741 0.0
C389 C 0.00733 0.39614 0.58952 0.0
C390 C 0.01674 0.4248 0.58756 0.0
C391 C 0.04194 0.43262 0.60266 0.0
C392 C 0.05779 0.41288 0.61963 0.0
C393 C 0.04789 0.38483 0.62249 0.0
O394 O 0.92882 0.29185 0.59004 0.0
O395 O 0.97148 0.27199 0.5866 0.0
O396 O 0.86102 0.26933 0.56956 0.0
O397 O 0.84738 0.27754 0.61573 0.0
C398 C 0.84199 0.26335 0.59062 0.0
O399 O 0.93765 0.31922 0.64064 0.0
O400 O 0.89313 0.30182 0.64768 0.0
O401 O 0.01632 0.33237 0.63557 0.0
O402 O 0.99631 0.33449 0.5897 0.0
H403 H 0.98835 0.38963 0.5772 0.0
H404 H 0.04997 0.45423 0.60033 0.0
H405 H 0.0606 0.36945 0.63518 0.0
O406 O 0.15342 0.87788 0.59766 0.0
Tb407 Tb 0.19535 0.89683 0.60251 0.0
Eu408 Eu 0.20677 0.99109 0.63772 0.0
C409 C 0.14013 0.88101 0.57114 0.0
O410 O 0.14821 0.90172 0.55267 0.0
C411 C 0.22523 0.95352 0.58171 0.0
O412 O 0.24454 0.00793 0.66385 0.0
C413 C 0.16844 0.03039 0.62975 0.0
C414 C 0.2682 0.99294 0.66494 0.0
O415 O 0.26809 0.96687 0.65373 0.0
C416 C 0.2025 0.92739 0.66391 0.0
C417 C 0.13858 0.03901 0.62391 0.0
C418 C 0.12198 0.02673 0.60012 0.0
C419 C 0.09515 0.03846 0.5928 0.0
C420 C 0.08493 0.06172 0.60981 0.0
C421 C 0.1013 0.07444 0.63291 0.0
C422 C 0.12791 0.06274 0.64033 0.0
O423 O 0.20088 0.94138 0.58935 0.0
O424 O 0.23131 0.97815 0.5948 0.0
O425 O 0.23113 0.86705 0.60448 0.0
O426 O 0.20734 0.87051 0.56308 0.0
C427 C 0.22783 0.85684 0.57675 0.0
O428 O 0.18936 0.94738 0.64799 0.0
O429 O 0.20296 0.90151 0.65196 0.0
O430 O 0.17495 0.02003 0.65712 0.0
O431 O 0.18338 0.01927 0.60694 0.0
H432 H 0.13031 0.0091 0.58662 0.0
H433 H 0.06425 0.07079 0.60422 0.0
H434 H 0.14099 0.07309 0.65765 0.0
O435 O 0.59163 0.13315 0.6013 0.0
Tb436 Tb 0.59052 0.17943 0.60609 0.0
Eu437 Eu 0.51702 0.18921 0.61814 0.0
C438 C 0.58949 0.12207 0.57341 0.0
O439 O 0.57384 0.13566 0.55304 0.0
C440 C 0.55333 0.21605 0.56419 0.0
O441 O 0.48197 0.2185 0.6343 0.0
C442 C 0.49871 0.14322 0.59113 0.0
C443 C 0.48948 0.24086 0.65073 0.0
O444 O 0.51627 0.24314 0.65914 0.0
C445 C 0.56171 0.19579 0.67152 0.0
C446 C 0.48764 0.11386 0.59565 0.0
C447 C 0.49933 0.09133 0.57805 0.0
C448 C 0.48667 0.06402 0.57819 0.0
C449 C 0.46222 0.05968 0.59624 0.0
C450 C 0.45043 0.08171 0.61396 0.0
C451 C 0.46329 0.10871 0.61399 0.0
O452 O 0.56684 0.19162 0.56517 0.0
O453 O 0.53523 0.22245 0.58617 0.0
O454 O 0.62212 0.20838 0.58596 0.0
O455 O 0.63604 0.1696 0.60613 0.0
C456 C 0.64413 0.19235 0.59149 0.0
O457 O 0.53779 0.18273 0.66433 0.0
O458 O 0.58201 0.20014 0.65079 0.0
O459 O 0.48208 0.16453 0.59944 0.0
O460 O 0.52596 0.14804 0.59621 0.0
H461 H 0.51783 0.09532 0.56366 0.0
H462 H 0.4513 0.03929 0.59554 0.0
H463 H 0.45345 0.1259 0.62695 0.0
C464 C 0.75075 0.32568 0.10575 0.0
C465 C 0.77148 0.33178 0.12794 0.0
C466 C 0.73898 0.29823 0.10361 0.0
C467 C 0.74863 0.27658 0.12389 0.0
C468 C 0.76905 0.28293 0.14683 0.0
C469 C 0.78008 0.31055 0.1487 0.0
C470 C 0.71659 0.29225 0.07948 0.0
C471 C 0.7797 0.26041 0.16898 0.0
C472 C 0.7028 0.21215 0.13935 0.0
C473 C 0.71573 0.19138 0.12067 0.0
C474 C 0.71294 0.24013 0.14002 0.0
C475 C 0.73688 0.24738 0.12188 0.0
C476 C 0.7503 0.22646 0.10314 0.0
C477 C 0.73931 0.19859 0.10249 0.0
C478 C 0.69819 0.26183 0.16039 0.0
C479 C 0.77638 0.2335 0.08417 0.0
H480 H 0.74449 0.34202 0.08946 0.0
H481 H 0.79623 0.31526 0.16583 0.0
H482 H 0.72405 0.27506 0.06378 0.0
H483 H 0.69678 0.28452 0.0907 0.0
H484 H 0.71136 0.31148 0.06559 0.0
H485 H 0.79576 0.26891 0.1854 0.0
H486 H 0.76164 0.25151 0.18243 0.0
H487 H 0.78946 0.24249 0.15593 0.0
H488 H 0.68442 0.20664 0.15333 0.0
H489 H 0.74918 0.18249 0.08799 0.0
H490 H 0.69154 0.28058 0.14652 0.0
H491 H 0.71315 0.26962 0.1783 0.0
H492 H 0.67908 0.25291 0.17209 0.0
H493 H 0.77132 0.25078 0.06755 0.0
H494 H 0.78456 0.21468 0.0713 0.0
H495 H 0.7936 0.24153 0.09938 0.0
C496 C 0.1952 0.77473 0.15379 0.0
C497 C 0.17469 0.76784 0.13157 0.0
C498 C 0.22243 0.76276 0.15264 0.0
C499 C 0.22902 0.74304 0.12899 0.0
C500 C 0.20781 0.7345 0.1077 0.0
C501 C 0.18079 0.74733 0.10903 0.0
C502 C 0.24452 0.77232 0.1758 0.0
C503 C 0.21396 0.71251 0.08309 0.0
C504 C 0.30701 0.73864 0.10695 0.0
C505 C 0.31572 0.71498 0.12418 0.0
C506 C 0.27855 0.74779 0.1079 0.0
C507 C 0.25855 0.73245 0.12599 0.0
C508 C 0.26723 0.70824 0.14294 0.0
C509 C 0.29582 0.69994 0.14203 0.0
C510 C 0.26995 0.7741 0.09006 0.0
C511 C 0.24646 0.6914 0.16244 0.0
H512 H 0.19042 0.79055 0.17134 0.0
H513 H 0.16493 0.74222 0.09179 0.0
H514 H 0.25406 0.7536 0.18759 0.0
H515 H 0.26204 0.78364 0.16368 0.0
H516 H 0.23547 0.78684 0.1936 0.0
H517 H 0.1949 0.70769 0.06886 0.0
H518 H 0.23137 0.72013 0.06782 0.0
H519 H 0.22147 0.69241 0.09389 0.0
H520 H 0.3224 0.75003 0.09292 0.0
H521 H 0.30253 0.68141 0.15515 0.0
H522 H 0.26124 0.79043 0.10609 0.0
H523 H 0.25279 0.76872 0.07346 0.0
H524 H 0.28811 0.78364 0.07724 0.0
H525 H 0.23867 0.70481 0.18182 0.0
H526 H 0.25622 0.67176 0.17217 0.0
H527 H 0.22759 0.68524 0.14855 0.0
C528 C 0.75899 0.32173 0.44295 0.0
C529 C 0.74875 0.32821 0.41343 0.0
C530 C 0.77136 0.29506 0.44914 0.0
C531 C 0.77232 0.27427 0.42543 0.0
C532 C 0.76325 0.28132 0.39522 0.0
C533 C 0.75192 0.30839 0.38952 0.0
C534 C 0.78191 0.28878 0.48133 0.0
C535 C 0.7637 0.25967 0.36931 0.0
C536 C 0.8129 0.20483 0.42497 0.0
C537 C 0.79116 0.18548 0.43218 0.0
C538 C 0.80778 0.23429 0.42552 0.0
C539 C 0.78002 0.24431 0.43226 0.0
C540 C 0.75837 0.22484 0.44098 0.0
C541 C 0.76435 0.19554 0.4412 0.0
C542 C 0.83164 0.25461 0.41757 0.0
C543 C 0.72846 0.23477 0.4483 0.0
H544 H 0.75652 0.3371 0.46143 0.0
H545 H 0.74406 0.31344 0.36664 0.0
H546 H 0.78706 0.30873 0.49403 0.0
H547 H 0.76506 0.27738 0.49437 0.0
H548 H 0.80111 0.27492 0.48088 0.0
H549 H 0.75677 0.26895 0.34695 0.0
H550 H 0.78546 0.2508 0.36635 0.0
H551 H 0.74933 0.24164 0.37509 0.0
H552 H 0.83379 0.19693 0.41848 0.0
H553 H 0.7477 0.18047 0.44714 0.0
H554 H 0.83302 0.27173 0.43523 0.0
H555 H 0.82724 0.26504 0.39509 0.0
H556 H 0.85259 0.24362 0.41601 0.0
H557 H 0.72891 0.25196 0.4659 0.0
H558 H 0.71478 0.21717 0.45699 0.0
H559 H 0.71855 0.24377 0.42717 0.0
C560 C 0.20063 0.70118 0.38504 0.0
C561 C 0.18222 0.71876 0.40212 0.0
C562 C 0.22989 0.70656 0.38394 0.0
C563 C 0.24084 0.73042 0.39986 0.0
C564 C 0.2224 0.74822 0.41733 0.0
C565 C 0.19318 0.74196 0.41855 0.0
C566 C 0.2489 0.68715 0.36507 0.0
C567 C 0.23348 0.77423 0.43402 0.0
C568 C 0.31973 0.73908 0.41576 0.0
C569 C 0.32729 0.75843 0.39256 0.0
C570 C 0.29179 0.72852 0.41762 0.0
C571 C 0.27118 0.73818 0.39618 0.0
C572 C 0.27921 0.75649 0.37176 0.0
C573 C 0.30728 0.76619 0.37012 0.0
C574 C 0.28404 0.70783 0.44298 0.0
C575 C 0.25784 0.76708 0.34831 0.0
H576 H 0.19219 0.683 0.37257 0.0
H577 H 0.17892 0.75535 0.43196 0.0
H578 H 0.2571 0.69888 0.34467 0.0
H579 H 0.26764 0.6803 0.37879 0.0
H580 H 0.23748 0.66784 0.35685 0.0
H581 H 0.21638 0.78578 0.44667 0.0
H582 H 0.25033 0.76789 0.4506 0.0
H583 H 0.24334 0.78916 0.41725 0.0
H584 H 0.3352 0.73326 0.43317 0.0
H585 H 0.3132 0.78107 0.35204 0.0
H586 H 0.26733 0.71727 0.45801 0.0
H587 H 0.30273 0.70189 0.45731 0.0
H588 H 0.27495 0.68809 0.43288 0.0
H589 H 0.24661 0.74885 0.33745 0.0
H590 H 0.26797 0.78002 0.32982 0.0
H591 H 0.24148 0.7804 0.36001 0.0
C592 C 0.24453 0.81927 0.94238 0.0
C593 C 0.26621 0.83129 0.96027 0.0
C594 C 0.23769 0.79029 0.94513 0.0
C595 C 0.25348 0.77291 0.96569 0.0
C596 C 0.27398 0.78539 0.98541 0.0
C597 C 0.27986 0.81464 0.98274 0.0
C598 C 0.21513 0.7779 0.92424 0.0
C599 C 0.29133 0.76741 1.00738 0.0
C600 C 0.22577 0.69769 0.97681 0.0
C601 C 0.23987 0.68332 0.95279 0.0
C602 C 0.23052 0.72685 0.98202 0.0
C603 C 0.25081 0.74141 0.96372 0.0
C604 C 0.26683 0.72629 0.94123 0.0
C605 C 0.26072 0.69748 0.93561 0.0
C606 C 0.21231 0.74253 1.0053 0.0
C607 C 0.28902 0.74097 0.92159 0.0
H608 H 0.23396 0.83217 0.92504 0.0
H609 H 0.29674 0.8239 0.99656 0.0
H610 H 0.22549 0.76498 0.90589 0.0
H611 H 0.20074 0.76355 0.93735 0.0
H612 H 0.20209 0.79478 0.91305 0.0
H613 H 0.30578 0.7805 0.0219 0.0
H614 H 0.27705 0.75484 0.02259 0.0
H615 H 0.30437 0.75188 0.99411 0.0
H616 H 0.20931 0.68677 0.98985 0.0
H617 H 0.27148 0.68631 0.91698 0.0
H618 H 0.226 0.75308 0.02273 0.0
H619 H 0.19708 0.72813 0.01722 0.0
H620 H 0.19993 0.75958 0.99365 0.0
H621 H 0.27832 0.75533 0.90485 0.0
H622 H 0.30233 0.72548 0.9085 0.0
H623 H 0.30319 0.75432 0.9361 0.0
C624 C 0.69433 0.27929 0.9803 0.0
C625 C 0.67646 0.26419 0.96014 0.0
C626 C 0.72381 0.27424 0.98058 0.0
C627 C 0.7353 0.25271 0.96132 0.0
C628 C 0.71684 0.23534 0.94353 0.0
C629 C 0.68762 0.24165 0.94272 0.0
C630 C 0.74288 0.29357 0.99931 0.0
C631 C 0.7282 0.21158 0.92339 0.0
C632 C 0.80839 0.26005 0.92496 0.0
C633 C 0.82448 0.24136 0.94301 0.0
C634 C 0.77967 0.26532 0.93197 0.0
C635 C 0.76662 0.25053 0.95681 0.0
C636 C 0.78314 0.23233 0.97572 0.0
C637 C 0.81212 0.22837 0.96892 0.0
C638 C 0.76294 0.28556 0.9118 0.0
C639 C 0.76974 0.21534 1.0015 0.0
H640 H 0.68573 0.29686 0.99373 0.0
H641 H 0.67377 0.23001 0.92715 0.0
H642 H 0.75596 0.28074 0.01551 0.0
H643 H 0.75785 0.30504 0.98381 0.0
H644 H 0.73059 0.30965 0.01266 0.0
H645 H 0.71091 0.19746 0.91489 0.0
H646 H 0.73934 0.22087 0.90314 0.0
H647 H 0.74391 0.19844 0.93621 0.0
H648 H 0.81807 0.26987 0.90484 0.0
H649 H 0.82455 0.21341 0.98249 0.0
H650 H 0.75097 0.30107 0.92623 0.0
H651 H 0.74713 0.27338 0.89808 0.0
H652 H 0.77689 0.29756 0.89562 0.0
H653 H 0.75731 0.22952 0.017 0.0
H654 H 0.78583 0.2035 0.01528 0.0
H655 H 0.75454 0.19973 0.99159 0.0
C656 C 0.22347 0.81383 0.5435 0.0
C657 C 0.2377 0.82837 0.56721 0.0
C658 C 0.22736 0.78439 0.53929 0.0
C659 C 0.24639 0.7695 0.55881 0.0
C660 C 0.26249 0.78459 0.58111 0.0
C661 C 0.25769 0.81385 0.58527 0.0
C662 C 0.20962 0.76886 0.51561 0.0
C663 C 0.28344 0.76954 0.60196 0.0
C664 C 0.23546 0.69236 0.58149 0.0
C665 C 0.25649 0.67877 0.56393 0.0
C666 C 0.23049 0.72171 0.57831 0.0
C667 C 0.2478 0.73788 0.55796 0.0
C668 C 0.26827 0.72401 0.5392 0.0
C669 C 0.27187 0.69438 0.54186 0.0
C670 C 0.20817 0.73569 0.59842 0.0
C671 C 0.28782 0.74075 0.51821 0.0
H672 H 0.20782 0.82502 0.52963 0.0
H673 H 0.26868 0.82512 0.60359 0.0
H674 H 0.22348 0.75574 0.50043 0.0
H675 H 0.19481 0.75399 0.52744 0.0
H676 H 0.19689 0.78372 0.50115 0.0
H677 H 0.29657 0.7848 0.61547 0.0
H678 H 0.27169 0.75565 0.61836 0.0
H679 H 0.29789 0.75565 0.58828 0.0
H680 H 0.22374 0.68026 0.59867 0.0
H681 H 0.28842 0.68391 0.52848 0.0
H682 H 0.19525 0.75099 0.58482 0.0
H683 H 0.21879 0.74788 0.6171 0.0
H684 H 0.19366 0.71979 0.60915 0.0
H685 H 0.27512 0.75252 0.50081 0.0
H686 H 0.3035 0.72687 0.50619 0.0
H687 H 0.29979 0.75688 0.53173 0.0
C688 C 0.69517 0.17847 0.58731 0.0
C689 C 0.67376 0.1989 0.58287 0.0
C690 C 0.72388 0.18516 0.58193 0.0
C691 C 0.73128 0.21323 0.57297 0.0
C692 C 0.70949 0.2333 0.56629 0.0
C693 C 0.68088 0.22578 0.57111 0.0
C694 C 0.74637 0.16281 0.58806 0.0
C695 C 0.71642 0.26346 0.55663 0.0
C696 C 0.79648 0.2447 0.61079 0.0
C697 C 0.81551 0.24709 0.58601 0.0
C698 C 0.76929 0.23323 0.60674 0.0
C699 C 0.76102 0.22332 0.57721 0.0
C700 C 0.78065 0.22435 0.55229 0.0
C701 C 0.80775 0.23649 0.55695 0.0
C702 C 0.74902 0.2328 0.63395 0.0
C703 C 0.77293 0.21305 0.52079 0.0
H704 H 0.68958 0.15744 0.59585 0.0
H705 H 0.66423 0.24143 0.56717 0.0
H706 H 0.76301 0.16327 0.56984 0.0
H707 H 0.75692 0.16737 0.61042 0.0
H708 H 0.73714 0.141 0.58914 0.0
H709 H 0.69733 0.27503 0.54801 0.0
H710 H 0.72509 0.27531 0.57672 0.0
H711 H 0.73297 0.26356 0.53833 0.0
H712 H 0.80247 0.25282 0.6333 0.0
H713 H 0.82254 0.23832 0.53778 0.0
H714 H 0.74195 0.21064 0.63865 0.0
H715 H 0.72975 0.24562 0.62857 0.0
H716 H 0.75884 0.24149 0.65529 0.0
H717 H 0.76977 0.18962 0.52205 0.0
H718 H 0.78972 0.21759 0.50334 0.0
H719 H 0.75253 0.2225 0.51287 0.0
C720 C 0.62934 0.15714 0.01544 0.0
C721 C 0.61912 0.14827 0.04437 0.0
C722 C 0.61781 0.18105 1.0005 0.0
C723 C 0.5949 0.19604 0.01435 0.0
C724 C 0.5837 0.18653 0.04296 0.0
C725 C 0.5962 0.16296 0.05785 0.0
C726 C 0.6307 0.19075 0.97029 0.0
C727 C 0.5588 0.20153 0.05804 0.0
C728 C 0.58254 0.27296 0.98917 0.0
C729 C 0.56234 0.26947 0.9658 0.0
C730 C 0.59339 0.24925 1.00527 0.0
C731 C 0.58274 0.22159 0.99867 0.0
C732 C 0.56126 0.2182 0.97609 0.0
C733 C 0.55149 0.24213 0.95977 0.0
C734 C 0.61676 0.25372 0.02869 0.0
C735 C 0.54886 0.18923 0.96882 0.0
H736 H 0.64729 0.14618 1.00499 0.0
H737 H 0.58829 0.15626 0.08023 0.0
H738 H 0.63665 0.2136 0.97178 0.0
H739 H 0.64994 0.17822 0.96385 0.0
H740 H 0.61477 0.1887 0.95153 0.0
H741 H 0.55167 0.19061 0.07947 0.0
H742 H 0.56479 0.22378 0.06387 0.0
H743 H 0.5406 0.20264 0.04176 0.0
H744 H 0.58978 0.29425 0.99487 0.0
H745 H 0.5355 0.23934 0.94198 0.0
H746 H 0.63627 0.24218 0.0212 0.0
H747 H 0.61035 0.24478 0.05136 0.0
H748 H 0.62214 0.27664 0.03174 0.0
H749 H 0.56545 0.17548 0.95816 0.0
H750 H 0.53051 0.19062 0.95272 0.0
H751 H 0.54172 0.17856 0.99034 0.0
C752 C 0.26678 0.56348 0.9498 0.0
C753 C 0.23897 0.57129 0.95835 0.0
C754 C 0.29058 0.57412 0.9657 0.0
C755 C 0.28652 0.5933 0.99059 0.0
C756 C 0.2584 0.60081 0.99968 0.0
C757 C 0.23495 0.58912 0.98387 0.0
C758 C 0.32007 0.56503 0.95562 0.0
C759 C 0.25308 0.62177 0.02554 0.0
C760 C 0.346 0.6081 0.04847 0.0
C761 C 0.35701 0.63398 0.03739 0.0
C762 C 0.32356 0.59414 0.03304 0.0
C763 C 0.31164 0.60656 1.00614 0.0
C764 C 0.32337 0.63214 0.99431 0.0
C765 C 0.34601 0.64534 0.00986 0.0
C766 C 0.31205 0.56657 0.04601 0.0
C767 C 0.31134 0.64615 0.96578 0.0
H768 H 0.26996 0.54915 0.93042 0.0
H769 H 0.21344 0.59407 0.99133 0.0
H770 H 0.33204 0.58376 0.94688 0.0
H771 H 0.33209 0.55639 0.97559 0.0
H772 H 0.3195 0.54855 0.93717 0.0
H773 H 0.22999 0.62488 0.03023 0.0
H774 H 0.26359 0.61434 0.047 0.0
H775 H 0.26253 0.64276 0.01949 0.0
H776 H 0.35432 0.59914 0.0697 0.0
H777 H 0.35434 0.66528 1.00097 0.0
H778 H 0.31157 0.54992 0.02779 0.0
H779 H 0.28981 0.56981 0.05404 0.0
H780 H 0.32496 0.5586 0.06569 0.0
H781 H 0.31448 0.63204 0.94549 0.0
H782 H 0.32138 0.66713 0.96085 0.0
H783 H 0.28809 0.64934 0.96862 0.0
C784 C 0.85519 0.334 0.01964 0.0
C785 C 0.86669 0.34647 0.04627 0.0
C786 C 0.87066 0.31411 1.00231 0.0
C787 C 0.89843 0.3063 0.01173 0.0
C788 C 0.91084 0.31992 0.0377 0.0
C789 C 0.89479 0.33998 0.05472 0.0
C790 C 0.8565 0.30008 0.97503 0.0
C791 C 0.94054 0.31238 0.04824 0.0
C792 C 0.92117 0.23198 0.98606 0.0
C793 C 0.93636 0.23802 0.95906 0.0
C794 C 0.90932 0.25406 1.00396 0.0
C795 C 0.91356 0.28289 0.99504 0.0
C796 C 0.93011 0.28905 0.96849 0.0
C797 C 0.94133 0.26652 0.95084 0.0
C798 C 0.89154 0.2465 0.03187 0.0
C799 C 0.93526 0.3194 0.95821 0.0
H800 H 0.83355 0.33911 0.01281 0.0
H801 H 0.90372 0.34952 0.07534 0.0
H802 H 0.87034 0.30133 0.95428 0.0
H803 H 0.85332 0.27724 0.98045 0.0
H804 H 0.83546 0.30972 0.96951 0.0
H805 H 0.94811 0.3267 0.06695 0.0
H806 H 0.94084 0.29008 0.05686 0.0
H807 H 0.95572 0.31355 0.0286 0.0
H808 H 0.91842 0.20998 0.99306 0.0
H809 H 0.95372 0.27118 0.93029 0.0
H810 H 0.86912 0.25317 0.02803 0.0
H811 H 0.89937 0.25812 0.05249 0.0
H812 H 0.89182 0.22323 0.03681 0.0
H813 H 0.91487 0.32908 0.95053 0.0
H814 H 0.95083 0.32067 0.93889 0.0
H815 H 0.94327 0.33243 0.97775 0.0
C816 C 0.27434 0.92329 0.98883 0.0
C817 C 0.26796 0.94312 0.96573 0.0
C818 C 0.25262 0.91074 1.00666 0.0
C819 C 0.22383 0.91895 1.00194 0.0
C820 C 0.21743 0.94007 0.97961 0.0
C821 C 0.23956 0.95187 0.96178 0.0
C822 C 0.26037 0.88782 0.02966 0.0
C823 C 0.18716 0.94956 0.97378 0.0
C824 C 0.16947 0.86219 0.02295 0.0
C825 C 0.16129 0.87035 0.05283 0.0
C826 C 0.18875 0.87851 1.00564 0.0
C827 C 0.20047 0.90364 0.01859 0.0
C828 C 0.19112 0.91285 0.04816 0.0
C829 C 0.17148 0.89612 0.06494 0.0
C830 C 0.19662 0.86854 0.97359 0.0
C831 C 0.20269 0.93978 0.06251 0.0
H832 H 0.2964 0.91749 0.99284 0.0
H833 H 0.23449 0.96763 0.94431 0.0
H834 H 0.25194 0.89338 0.05284 0.0
H835 H 0.25041 0.86732 0.02268 0.0
H836 H 0.28378 0.88456 0.03137 0.0
H837 H 0.18622 0.96922 0.95947 0.0
H838 H 0.17553 0.93239 0.96148 0.0
H839 H 0.17583 0.95356 0.99588 0.0
H840 H 0.16121 0.84252 0.01325 0.0
H841 H 0.16523 0.90246 0.08806 0.0
H842 H 0.19132 0.84567 0.96996 0.0
H843 H 0.2196 0.87168 0.96887 0.0
H844 H 0.18459 0.88128 0.95641 0.0
H845 H 0.2257 0.93698 0.0676 0.0
H846 H 0.19146 0.94541 0.08429 0.0
H847 H 0.20074 0.95787 0.04612 0.0
C848 C 0.63033 0.34812 0.4932 0.0
C849 C 0.62806 0.35304 0.46132 0.0
C850 C 0.61557 0.32575 0.50751 0.0
C851 C 0.59747 0.3081 0.48972 0.0
C852 C 0.594 0.31369 0.45778 0.0
C853 C 0.60957 0.33596 0.44386 0.0
C854 C 0.62034 0.32028 0.54151 0.0
C855 C 0.57454 0.29561 0.43818 0.0
C856 C 0.58704 0.23428 0.52394 0.0
C857 C 0.56205 0.23801 0.54136 0.0
C858 C 0.59813 0.25653 0.50586 0.0
C859 C 0.58355 0.283 0.50459 0.0
C860 C 0.55733 0.28627 0.52049 0.0
C861 C 0.54701 0.26382 0.5389 0.0
C862 C 0.62645 0.25225 0.48981 0.0
C863 C 0.54094 0.314 0.5194 0.0
H864 H 0.64465 0.36106 0.50694 0.0
H865 H 0.60768 0.33962 0.41924 0.0
H866 H 0.59969 0.32018 0.55402 0.0
H867 H 0.63021 0.29894 0.54471 0.0
H868 H 0.63442 0.33652 0.55226 0.0
H869 H 0.57218 0.30425 0.41444 0.0
H870 H 0.58317 0.2736 0.43659 0.0
H871 H 0.55313 0.29414 0.44901 0.0
H872 H 0.59882 0.21442 0.52559 0.0
H873 H 0.52757 0.26681 0.55209 0.0
H874 H 0.64292 0.26553 0.50126 0.0
H875 H 0.62518 0.25922 0.46538 0.0
H876 H 0.63358 0.22963 0.49043 0.0
H877 H 0.55271 0.33063 0.5324 0.0
H878 H 0.51929 0.31193 0.52961 0.0
H879 H 0.53888 0.32155 0.49523 0.0
C880 C 0.1438 0.61346 0.47106 0.0
C881 C 0.13399 0.63925 0.48372 0.0
C882 C 0.165 0.59722 0.48606 0.0
C883 C 0.17696 0.6072 0.51412 0.0
C884 C 0.16641 0.6327 0.52745 0.0
C885 C 0.14492 0.64816 0.51234 0.0
C886 C 0.17526 0.56985 0.47138 0.0
C887 C 0.17848 0.64423 0.55726 0.0
C888 C 0.21951 0.55907 0.56811 0.0
C889 C 0.24769 0.56627 0.56048 0.0
C890 C 0.19629 0.57149 0.55257 0.0
C891 C 0.20132 0.59186 0.52901 0.0
C892 C 0.22981 0.59872 0.52083 0.0
C893 C 0.25259 0.58533 0.53621 0.0
C894 C 0.16637 0.56307 0.56166 0.0
C895 C 0.23625 0.6208 0.49641 0.0
H896 H 0.13555 0.60637 0.449 0.0
H897 H 0.13749 0.66797 0.52251 0.0
H898 H 0.1977 0.57237 0.46374 0.0
H899 H 0.17477 0.55221 0.48847 0.0
H900 H 0.16215 0.56368 0.45111 0.0
H901 H 0.1701 0.66579 0.56297 0.0
H902 H 0.17319 0.62955 0.57651 0.0
H903 H 0.20204 0.6454 0.55576 0.0
H904 H 0.21557 0.54386 0.58648 0.0
H905 H 0.27433 0.58967 0.52916 0.0
H906 H 0.15405 0.55668 0.54094 0.0
H907 H 0.15525 0.5816 0.57214 0.0
H908 H 0.1661 0.54517 0.57849 0.0
H909 H 0.22571 0.615 0.47438 0.0
H910 H 0.2595 0.62317 0.49217 0.0
H911 H 0.22758 0.64181 0.5037 0.0
C912 C 0.89556 0.11977 0.50689 0.0
C913 C 0.87755 0.12427 0.48157 0.0
C914 C 0.90867 0.14288 0.52216 0.0
C915 C 0.90241 0.17129 0.51294 0.0
C916 C 0.88465 0.17582 0.48692 0.0
C917 C 0.8729 0.15229 0.47134 0.0
C918 C 0.92877 0.13689 0.54855 0.0
C919 C 0.87634 0.20532 0.47604 0.0
C920 C 0.90921 0.23077 0.57297 0.0
C921 C 0.93315 0.2456 0.56231 0.0
C922 C 0.8989 0.20659 0.55715 0.0
C923 C 0.91376 0.19617 0.53088 0.0
C924 C 0.93885 0.21034 0.52102 0.0
C925 C 0.94817 0.23487 0.53679 0.0
C926 C 0.87177 0.19255 0.56812 0.0
C927 C 0.9555 0.19988 0.4934 0.0
H928 H 0.89905 0.09817 0.51503 0.0
H929 H 0.85859 0.15607 0.45222 0.0
H930 H 0.9489 0.14901 0.54541 0.0
H931 H 0.91906 0.14407 0.57059 0.0
H932 H 0.93396 0.11382 0.55054 0.0
H933 H 0.85395 0.20963 0.48306 0.0
H934 H 0.88996 0.22256 0.4854 0.0
H935 H 0.87722 0.20631 0.45045 0.0
H936 H 0.89877 0.23791 0.59393 0.0
H937 H 0.96722 0.24585 0.52902 0.0
H938 H 0.87559 0.16966 0.57311 0.0
H939 H 0.85551 0.1936 0.54956 0.0
H940 H 0.86304 0.20281 0.58923 0.0
H941 H 0.96031 0.17679 0.49584 0.0
H942 H 0.97583 0.21167 0.49026 0.0
H943 H 0.94245 0.20253 0.47224 0.0
C944 C 0.33757 0.84955 0.50257 0.0
C945 C 0.34712 0.85824 0.47333 0.0
C946 C 0.31952 0.86683 0.52043 0.0
C947 C 0.31052 0.8936 0.5088 0.0
C948 C 0.32117 0.90314 0.47988 0.0
C949 C 0.33948 0.88537 0.4625 0.0
C950 C 0.31018 0.85611 0.55172 0.0
C951 C 0.31243 0.93169 0.46687 0.0
C952 C 0.23882 0.92046 0.53869 0.0
C953 C 0.24701 0.93882 0.56254 0.0
C954 C 0.25926 0.90594 0.52077 0.0
C955 C 0.28871 0.91064 0.52614 0.0
C956 C 0.29708 0.93004 0.54951 0.0
C957 C 0.27615 0.94388 0.56743 0.0
C958 C 0.24934 0.88473 0.49685 0.0
C959 C 0.32815 0.93563 0.55616 0.0
H960 H 0.34384 0.8288 0.51136 0.0
H961 H 0.34675 0.89217 0.4399 0.0
H962 H 0.3242 0.86547 0.56965 0.0
H963 H 0.28801 0.86253 0.55713 0.0
H964 H 0.31183 0.8325 0.55337 0.0
H965 H 0.32424 0.93702 0.44537 0.0
H966 H 0.28927 0.93152 0.46168 0.0
H967 H 0.31615 0.94879 0.48413 0.0
H968 H 0.21632 0.91741 0.5341 0.0
H969 H 0.28264 0.95835 0.58564 0.0
H970 H 0.25697 0.86305 0.50314 0.0
H971 H 0.25858 0.89004 0.47397 0.0
H972 H 0.22574 0.88414 0.49482 0.0
H973 H 0.33801 0.91614 0.56602 0.0
H974 H 0.33113 0.95347 0.57276 0.0
H975 H 0.33974 0.94072 0.5345 0.0
C976 C 0.37118 0.82221 0.96494 0.0
C977 C 0.38214 0.84957 0.97068 0.0
C978 C 0.38045 0.79846 0.98209 0.0
C979 C 0.40175 0.80199 1.00491 0.0
C980 C 0.41372 0.8294 0.00982 0.0
C981 C 0.40343 0.85292 0.99301 0.0
C982 C 0.36681 0.76976 0.97648 0.0
C983 C 0.43692 0.83405 0.03342 0.0
C984 C 0.41009 0.75074 0.07265 0.0
C985 C 0.43287 0.73373 0.06283 0.0
C986 C 0.3987 0.77207 0.05336 0.0
C987 C 0.41127 0.77724 0.02407 0.0
C988 C 0.43423 0.7599 0.01402 0.0
C989 C 0.44469 0.73835 0.03351 0.0
C990 C 0.37392 0.78976 0.0648 0.0
C991 C 0.44872 0.76504 0.98337 0.0
H992 H 0.35422 0.8196 0.94822 0.0
H993 H 0.4117 0.87408 0.9977 0.0
H994 H 0.38298 0.75451 0.96762 0.0
H995 H 0.35848 0.76091 0.99847 0.0
H996 H 0.34907 0.771 0.95959 0.0
H997 H 0.44524 0.85624 0.03304 0.0
H998 H 0.42856 0.82951 0.05689 0.0
H999 H 0.45488 0.81911 0.02917 0.0
H1000 H 0.40238 0.74863 0.09609 0.0
H1001 H 0.46288 0.72568 0.02625 0.0
H1002 H 0.35617 0.78883 0.04793 0.0
H1003 H 0.38039 0.81245 0.06688 0.0
H1004 H 0.36596 0.78239 0.08761 0.0
H1005 H 0.43283 0.76505 0.96445 0.0
H1006 H 0.46522 0.74869 0.9782 0.0
H1007 H 0.459 0.78636 0.98351 0.0
C1008 C 0.77623 0.4161 0.05302 0.0
C1009 C 0.77088 0.44111 0.06971 0.0
C1010 C 0.75462 0.40313 0.03532 0.0
C1011 C 0.7273 0.41612 0.03358 0.0
C1012 C 0.72216 0.4419 0.04969 0.0
C1013 C 0.74388 0.45391 0.06768 0.0
C1014 C 0.76078 0.37508 0.01948 0.0
C1015 C 0.69362 0.45681 0.0481 0.0
C1016 C 0.67592 0.39487 0.96919 0.0
C1017 C 0.65638 0.3778 0.98526 0.0
C1018 C 0.69921 0.40747 0.98456 0.0
C1019 C 0.70349 0.40211 0.01647 0.0
C1020 C 0.68413 0.38435 0.03253 0.0
C1021 C 0.66066 0.37287 0.0169 0.0
C1022 C 0.71908 0.42674 0.96679 0.0
C1023 C 0.68767 0.37775 0.06645 0.0
H1024 H 0.79735 0.40687 0.05364 0.0
H1025 H 0.73966 0.47351 0.08023 0.0
H1026 H 0.75118 0.35756 0.03321 0.0
H1027 H 0.7512 0.37432 0.99611 0.0
H1028 H 0.78403 0.37101 0.01736 0.0
H1029 H 0.69392 0.47802 0.05959 0.0
H1030 H 0.68713 0.45974 0.02367 0.0
H1031 H 0.67712 0.44349 0.05944 0.0
H1032 H 0.67285 0.39859 0.94472 0.0
H1033 H 0.64596 0.35935 0.02952 0.0
H1034 H 0.74115 0.41826 0.96781 0.0
H1035 H 0.71932 0.44826 0.97752 0.0
H1036 H 0.71278 0.42892 0.94218 0.0
H1037 H 0.71044 0.37588 0.07287 0.0
H1038 H 0.67664 0.35765 0.07295 0.0
H1039 H 0.67825 0.39533 0.08028 0.0
C1040 C 0.11257 0.68164 0.96537 0.0
C1041 C 0.12938 0.66117 0.98045 0.0
C1042 C 0.09978 0.70426 0.98197 0.0
C1043 C 0.10454 0.70694 0.01422 0.0
C1044 C 0.12187 0.68656 0.02934 0.0
C1045 C 0.13363 0.66384 0.01245 0.0
C1046 C 0.08109 0.72528 0.96508 0.0
C1047 C 0.12785 0.68835 0.06355 0.0
C1048 C 0.09153 0.7782 0.05528 0.0
C1049 C 0.06637 0.7726 0.07159 0.0
C1050 C 0.10415 0.75725 0.0362 0.0
C1051 C 0.09069 0.73031 0.03256 0.0
C1052 C 0.06467 0.72501 0.04815 0.0
C1053 C 0.05301 0.74605 0.06757 0.0
C1054 C 0.13243 0.76365 0.02104 0.0
C1055 C 0.04915 0.69697 0.04454 0.0
H1056 H 0.10932 0.67989 0.94068 0.0
H1057 H 0.14682 0.64842 0.02445 0.0
H1058 H 0.0595 0.72558 0.97561 0.0
H1059 H 0.09 0.74711 0.96732 0.0
H1060 H 0.07906 0.72006 0.94015 0.0
H1061 H 0.14715 0.67596 0.07003 0.0
H1062 H 0.13075 0.71076 0.07105 0.0
H1063 H 0.10946 0.67948 0.0765 0.0
H1064 H 0.10122 0.79903 0.05735 0.0
H1065 H 0.03326 0.74163 0.0797 0.0
H1066 H 0.13378 0.75435 0.99753 0.0
H1067 H 0.14971 0.75399 0.03507 0.0
H1068 H 0.13638 0.78696 0.01942 0.0
H1069 H 0.04641 0.69185 0.0197 0.0
H1070 H 0.02784 0.69723 0.05578 0.0
H1071 H 0.06192 0.67954 0.05496 0.0
C1072 C 0.76055 0.06468 0.06948 0.0
C1073 C 0.73301 0.07645 0.07082 0.0
C1074 C 0.78194 0.07671 0.05091 0.0
C1075 C 0.77588 0.10135 0.03318 0.0
C1076 C 0.74818 0.11352 0.03457 0.0
C1077 C 0.72709 0.10076 0.0532 0.0
C1078 C 0.81108 0.06293 0.05022 0.0
C1079 C 0.74085 0.14032 0.01698 0.0
C1080 C 0.8406 0.14557 0.01096 0.0
C1081 C 0.84552 0.13728 0.98018 0.0
C1082 C 0.81749 0.13484 0.02796 0.0
C1083 C 0.79898 0.11474 0.01424 0.0
C1084 C 0.80358 0.1064 0.9831 0.0
C1085 C 0.82666 0.11797 0.96632 0.0
C1086 C 0.81298 0.145 0.06072 0.0
C1087 C 0.78416 0.08515 0.96761 0.0
H1088 H 0.7654 0.04573 0.08286 0.0
H1089 H 0.70589 0.10961 0.05357 0.0
H1090 H 0.81687 0.05721 0.02614 0.0
H1091 H 0.82733 0.07824 0.05865 0.0
H1092 H 0.81212 0.04336 0.06467 0.0
H1093 H 0.7498 0.15894 0.02944 0.0
H1094 H 0.75026 0.14004 0.99347 0.0
H1095 H 0.71744 0.14344 0.01503 0.0
H1096 H 0.85458 0.16099 0.0218 0.0
H1097 H 0.83006 0.11176 0.94248 0.0
H1098 H 0.81496 0.12677 0.07691 0.0
H1099 H 0.79115 0.1538 0.06338 0.0
H1100 H 0.82853 0.16171 0.06756 0.0
H1101 H 0.78484 0.06454 0.98023 0.0
H1102 H 0.79017 0.08128 0.94314 0.0
H1103 H 0.76183 0.09295 0.96844 0.0
C1104 C 0.38576 0.66519 0.55193 0.0
C1105 C 0.36704 0.64688 0.53638 0.0
C1106 C 0.40012 0.68719 0.53603 0.0
C1107 C 0.3949 0.69152 0.50409 0.0
C1108 C 0.37566 0.67331 0.4885 0.0
C1109 C 0.36242 0.65103 0.50465 0.0
C1110 C 0.42098 0.70573 0.5533 0.0
C1111 C 0.3692 0.67674 0.45453 0.0
C1112 C 0.41296 0.76279 0.46594 0.0
C1113 C 0.43678 0.75541 0.44812 0.0
C1114 C 0.39923 0.74241 0.48473 0.0
C1115 C 0.4103 0.71424 0.48652 0.0
C1116 C 0.43516 0.70713 0.46959 0.0
C1117 C 0.44788 0.72766 0.45046 0.0
C1118 C 0.37221 0.75084 0.5014 0.0
C1119 C 0.44817 0.67766 0.47133 0.0
H1120 H 0.38931 0.66222 0.57644 0.0
H1121 H 0.34775 0.63727 0.49236 0.0
H1122 H 0.44224 0.70457 0.54206 0.0
H1123 H 0.41395 0.72834 0.55244 0.0
H1124 H 0.42318 0.69927 0.57786 0.0
H1125 H 0.37052 0.69931 0.44703 0.0
H1126 H 0.38496 0.66431 0.44092 0.0
H1127 H 0.34765 0.66848 0.44881 0.0
H1128 H 0.40507 0.78447 0.46509 0.0
H1129 H 0.46663 0.72186 0.43716 0.0
H1130 H 0.37034 0.74021 0.52418 0.0
H1131 H 0.35365 0.74419 0.48728 0.0
H1132 H 0.37094 0.77429 0.50494 0.0
H1133 H 0.45068 0.67104 0.49577 0.0
H1134 H 0.46931 0.67658 0.45977 0.0
H1135 H 0.43381 0.66204 0.46006 0.0
C1136 C 0.76961 0.44471 0.44322 0.0
C1137 C 0.74122 0.43619 0.44746 0.0
C1138 C 0.79179 0.43243 0.46053 0.0
C1139 C 0.78554 0.41059 0.48213 0.0
C1140 C 0.75671 0.40261 0.48717 0.0
C1141 C 0.73492 0.41624 0.47046 0.0
C1142 C 0.82192 0.44266 0.45537 0.0
C1143 C 0.74849 0.37966 0.50999 0.0
C1144 C 0.84331 0.35559 0.49833 0.0
C1145 C 0.84946 0.36059 0.52959 0.0
C1146 C 0.82315 0.37208 0.48241 0.0
C1147 C 0.80909 0.39477 0.49787 0.0
C1148 C 0.81656 0.40115 0.52885 0.0
C1149 C 0.83631 0.3837 0.54451 0.0
C1150 C 0.81727 0.36471 0.44905 0.0
C1151 C 0.80342 0.42612 0.54567 0.0
H1152 H 0.77452 0.46096 0.42621 0.0
H1153 H 0.7129 0.41086 0.47504 0.0
H1154 H 0.83333 0.44488 0.47768 0.0
H1155 H 0.83364 0.42679 0.44119 0.0
H1156 H 0.8225 0.46348 0.4431 0.0
H1157 H 0.72792 0.36952 0.50359 0.0
H1158 H 0.76496 0.36273 0.51176 0.0
H1159 H 0.74573 0.38941 0.53313 0.0
H1160 H 0.85355 0.33802 0.48633 0.0
H1161 H 0.84113 0.38795 0.56854 0.0
H1162 H 0.79587 0.37168 0.44124 0.0
H1163 H 0.81932 0.34136 0.44508 0.0
H1164 H 0.83344 0.3753 0.43427 0.0
H1165 H 0.80194 0.44503 0.5303 0.0
H1166 H 0.81585 0.43202 0.56653 0.0
H1167 H 0.78152 0.42049 0.55312 0.0
C1168 C 0.10298 0.86163 0.53559 0.0
C1169 C 0.12417 0.85673 0.55771 0.0
C1170 C 0.09087 0.83891 0.51891 0.0
C1171 C 0.1009 0.81068 0.52373 0.0
C1172 C 0.1221 0.80561 0.54631 0.0
C1173 C 0.13319 0.82863 0.56334 0.0
C1174 C 0.06784 0.84523 0.49557 0.0
C1175 C 0.13378 0.776 0.55175 0.0
C1176 C 0.05339 0.7501 0.49595 0.0
C1177 C 0.06459 0.74445 0.46654 0.0
C1178 C 0.06544 0.77103 0.51515 0.0
C1179 C 0.08942 0.78665 0.50475 0.0
C1180 C 0.10133 0.78041 0.47536 0.0
C1181 C 0.08835 0.7598 0.45635 0.0
C1182 C 0.05164 0.77735 0.54593 0.0
C1183 C 0.12714 0.79623 0.46352 0.0
H1184 H 0.09621 0.88334 0.53096 0.0
H1185 H 0.15009 0.82479 0.57987 0.0
H1186 H 0.07562 0.84004 0.47202 0.0
H1187 H 0.0489 0.83168 0.50006 0.0
H1188 H 0.06114 0.86798 0.49601 0.0
H1189 H 0.15131 0.77588 0.56893 0.0
H1190 H 0.11655 0.76175 0.56009 0.0
H1191 H 0.14185 0.76689 0.52975 0.0
H1192 H 0.03452 0.73872 0.50356 0.0
H1193 H 0.09563 0.75701 0.43285 0.0
H1194 H 0.04302 0.79941 0.54587 0.0
H1195 H 0.06766 0.77613 0.56469 0.0
H1196 H 0.03399 0.76235 0.5513 0.0
H1197 H 0.12197 0.81918 0.46064 0.0
H1198 H 0.13475 0.78772 0.44102 0.0
H1199 H 0.14475 0.79475 0.48052 0.0
C1200 C 0.72515 0.04219 0.4954 0.0
C1201 C 0.74306 0.06522 0.48811 0.0
C1202 C 0.69977 0.04639 0.51234 0.0
C1203 C 0.69167 0.07438 0.52127 0.0
C1204 C 0.71001 0.09756 0.51443 0.0
C1205 C 0.73556 0.09264 0.49839 0.0
C1206 C 0.68134 0.021 0.52006 0.0
C1207 C 0.70199 0.12788 0.52258 0.0
C1208 C 0.61436 0.09703 0.52999 0.0
C1209 C 0.61262 0.10304 0.56172 0.0
C1210 C 0.63943 0.08603 0.51675 0.0
C1211 C 0.66324 0.08012 0.53576 0.0
C1212 C 0.66065 0.08342 0.56819 0.0
C1213 C 0.63546 0.09503 0.58078 0.0
C1214 C 0.64119 0.08319 0.48206 0.0
C1215 C 0.68524 0.07673 0.5894 0.0
H1216 H 0.73084 0.02093 0.48765 0.0
H1217 H 0.74905 0.11064 0.49266 0.0
H1218 H 0.67545 0.02132 0.54489 0.0
H1219 H 0.66125 0.022 0.50664 0.0
H1220 H 0.69216 1.00045 0.51478 0.0
H1221 H 0.71977 0.14311 0.51861 0.0
H1222 H 0.68352 0.13464 0.50836 0.0
H1223 H 0.69538 0.1293 0.54707 0.0
H1224 H 0.59679 0.1028 0.51501 0.0
H1225 H 0.63438 0.09934 0.60535 0.0
H1226 H 0.64997 0.06208 0.47547 0.0
H1227 H 0.65586 0.09969 0.4728 0.0
H1228 H 0.62007 0.08588 0.47084 0.0
H1229 H 0.69575 0.05645 0.58256 0.0
H1230 H 0.67828 0.07509 0.61387 0.0
H1231 H 0.70139 0.09395 0.58772 0.0
C1232 C 0.79008 0.04566 0.30968 0.0
C1233 C 0.78159 0.06529 0.3325 0.0
C1234 C 0.77473 0.04275 0.2818 0.0
C1235 C 0.75007 0.05967 0.2766 0.0
C1236 C 0.74128 0.07922 0.29974 0.0
C1237 C 0.75718 0.08195 0.32707 0.0
C1238 C 0.78561 0.0222 0.25767 0.0
C1239 C 0.71499 0.09747 0.2956 0.0
C1240 C 0.72228 0.08256 0.19811 0.0
C1241 C 0.69791 0.06549 0.1945 0.0
C1242 C 0.74077 0.07906 0.2233 0.0
C1243 C 0.73425 0.05878 0.24644 0.0
C1244 C 0.71048 0.04041 0.24219 0.0
C1245 C 0.69273 0.04375 0.21603 0.0
C1246 C 0.76653 0.09818 0.22591 0.0
C1247 C 0.70289 0.01837 0.26619 0.0
H1248 H 0.80879 0.03256 0.31355 0.0
H1249 H 0.75004 0.09693 0.34453 0.0
H1250 H 0.76793 0.01213 0.24464 0.0
H1251 H 0.79905 0.0341 0.24098 0.0
H1252 H 0.79895 0.00513 0.26808 0.0
H1253 H 0.7099 0.11024 0.31652 0.0
H1254 H 0.71814 0.11233 0.27595 0.0
H1255 H 0.69636 0.08383 0.29005 0.0
H1256 H 0.72671 0.09914 0.18131 0.0
H1257 H 0.67392 0.03056 0.21344 0.0
H1258 H 0.78579 0.0853 0.23119 0.0
H1259 H 0.76342 0.11349 0.24517 0.0
H1260 H 0.77048 0.11047 0.20439 0.0
H1261 H 0.7218 0.00511 0.27183 0.0
H1262 H 0.68534 0.00416 0.25848 0.0
H1263 H 0.69618 0.02927 0.28778 0.0
C1264 C 0.46846 0.69669 0.2115 0.0
C1265 C 0.44575 0.70064 0.19095 0.0
C1266 C 0.47263 0.71551 0.23667 0.0
C1267 C 0.45401 0.73918 0.241 0.0
C1268 C 0.43271 0.74448 0.21855 0.0
C1269 C 0.4284 0.72487 0.19443 0.0
C1270 C 0.4958 0.70857 0.25948 0.0
C1271 C 0.41354 0.77031 0.22071 0.0
C1272 C 0.42897 0.76836 0.31851 0.0
C1273 C 0.44514 0.79335 0.3219 0.0
C1274 C 0.43367 0.74939 0.29383 0.0
C1275 C 0.45376 0.75629 0.27051 0.0
C1276 C 0.47073 0.78119 0.27419 0.0
C1277 C 0.46655 0.79915 0.30013 0.0
C1278 C 0.41643 0.72225 0.29228 0.0
C1279 C 0.49195 0.79008 0.24988 0.0
H1280 H 0.48193 0.678 0.20903 0.0
H1281 H 0.41109 0.7284 0.1783 0.0
H1282 H 0.50304 0.72764 0.27242 0.0
H1283 H 0.48743 0.69268 0.27615 0.0
H1284 H 0.51445 0.69878 0.24769 0.0
H1285 H 0.40115 0.77373 0.19918 0.0
H1286 H 0.39832 0.76757 0.24011 0.0
H1287 H 0.42633 0.78975 0.22544 0.0
H1288 H 0.41264 0.76348 0.33546 0.0
H1289 H 0.47897 0.81853 0.30244 0.0
H1290 H 0.43057 0.70379 0.28725 0.0
H1291 H 0.40065 0.72379 0.2733 0.0
H1292 H 0.40478 0.718 0.31416 0.0
H1293 H 0.50206 0.7714 0.23852 0.0
H1294 H 0.5089 0.80388 0.25974 0.0
H1295 H 0.4806 0.80256 0.23194 0.0
C1296 C 0.8098 0.47393 0.21264 0.0
C1297 C 0.80663 0.45105 0.19204 0.0
C1298 C 0.79054 0.47782 0.23751 0.0
C1299 C 0.76734 0.45865 0.24154 0.0
C1300 C 0.76283 0.43714 0.21907 0.0
C1301 C 0.78272 0.43326 0.19514 0.0
C1302 C 0.79649 0.50115 0.26056 0.0
C1303 C 0.73784 0.41697 0.22131 0.0
C1304 C 0.74038 0.43166 0.3188 0.0
C1305 C 0.71359 0.44485 0.32154 0.0
C1306 C 0.75908 0.43822 0.29447 0.0
C1307 C 0.75048 0.45756 0.27114 0.0
C1308 C 0.72408 0.47218 0.27462 0.0
C1309 C 0.70603 0.46584 0.29997 0.0
C1310 C 0.78752 0.42315 0.29289 0.0
C1311 C 0.71378 0.49302 0.25062 0.0
H1312 H 0.82823 0.48772 0.21047 0.0
H1313 H 0.77979 0.4158 0.17901 0.0
H1314 H 0.77676 0.50874 0.27213 0.0
H1315 H 0.81113 0.49271 0.27845 0.0
H1316 H 0.80717 0.51959 0.24934 0.0
H1317 H 0.73524 0.40396 0.20005 0.0
H1318 H 0.74097 0.4023 0.24112 0.0
H1319 H 0.71784 0.42908 0.22547 0.0
H1320 H 0.74668 0.41577 0.33568 0.0
H1321 H 0.68537 0.47609 0.30184 0.0
H1322 H 0.8048 0.43874 0.28828 0.0
H1323 H 0.78739 0.40754 0.27361 0.0
H1324 H 0.79252 0.41155 0.31459 0.0
H1325 H 0.69916 0.50912 0.26089 0.0
H1326 H 0.70174 0.48112 0.23276 0.0
H1327 H 0.73174 0.50424 0.23918 0.0
C1328 C 0.03174 0.81294 0.21813 0.0
C1329 C 0.05642 0.80817 0.20045 0.0
C1330 C 0.0254 0.79568 0.24417 0.0
C1331 C 0.04383 0.77278 0.25235 0.0
C1332 C 0.0677 0.76694 0.23326 0.0
C1333 C 0.0739 0.78484 0.20809 0.0
C1334 C 0.99962 0.80257 0.26364 0.0
C1335 C 0.08745 0.74225 0.24006 0.0
C1336 C 0.05922 0.74675 0.33384 0.0
C1337 C 0.0458 0.72002 0.3345 0.0
C1338 C 0.05632 0.76528 0.30846 0.0
C1339 C 0.04043 0.7566 0.28227 0.0
C1340 C 0.02528 0.73034 0.28366 0.0
C1341 C 0.02798 0.71247 0.30986 0.0
C1342 C 0.07218 0.79329 0.30881 0.0
C1343 C 0.00831 0.71964 0.25654 0.0
H1344 H 0.01807 0.83083 0.21243 0.0
H1345 H 0.09276 0.78056 0.19432 0.0
H1346 H 0.98643 0.78316 0.26697 0.0
H1347 H 0.00656 0.80979 0.28685 0.0
H1348 H 0.98621 0.81953 0.25314 0.0
H1349 H 0.10356 0.73901 0.22155 0.0
H1350 H 0.0988 0.74616 0.26211 0.0
H1351 H 0.075 0.72227 0.24276 0.0
H1352 H 0.07306 0.75272 0.35281 0.0
H1353 H 0.01789 0.69166 0.30996 0.0
H1354 H 0.05835 0.8108 0.30025 0.0
H1355 H 0.09092 0.79186 0.2932 0.0
H1356 H 0.07982 0.79891 0.33231 0.0
H1357 H 0.99916 0.73739 0.24282 0.0
H1358 H 0.99076 0.70537 0.26417 0.0
H1359 H 0.02263 0.70705 0.24132 0.0
C1360 C 0.24333 0.91605 0.69874 0.0
C1361 C 0.22009 0.93372 0.69164 0.0
C1362 C 0.25885 0.91955 0.72617 0.0
C1363 C 0.25057 0.94078 0.74771 0.0
C1364 C 0.22776 0.95947 0.74018 0.0
C1365 C 0.213 0.95594 0.71202 0.0
C1366 C 0.2834 0.89955 0.73269 0.0
C1367 C 0.21812 0.98228 0.76249 0.0
C1368 C 0.26863 0.91774 0.82943 0.0
C1369 C 0.29408 0.93248 0.83522 0.0
C1370 C 0.25321 0.92198 0.80204 0.0
C1371 C 0.26382 0.94087 0.77921 0.0
C1372 C 0.28886 0.95684 0.78547 0.0
C1373 C 0.30353 0.95269 0.8136 0.0
C1374 C 0.22625 0.90507 0.79692 0.0
C1375 C 0.30115 0.97694 0.76171 0.0
H1376 H 0.24927 0.89911 0.68291 0.0
H1377 H 0.1951 0.96971 0.70663 0.0
H1378 H 0.30248 0.9118 0.73994 0.0
H1379 H 0.27762 0.88505 0.75196 0.0
H1380 H 0.28911 0.88635 0.71228 0.0
H1381 H 0.20108 0.99602 0.75268 0.0
H1382 H 0.20995 0.97221 0.78394 0.0
H1383 H 0.23639 0.99596 0.76912 0.0
H1384 H 0.26088 0.90245 0.84623 0.0
H1385 H 0.32316 0.96419 0.81795 0.0
H1386 H 0.22997 0.88878 0.77874 0.0
H1387 H 0.20886 0.91926 0.7888 0.0
H1388 H 0.21902 0.89401 0.81823 0.0
H1389 H 0.31057 0.96437 0.7425 0.0
H1390 H 0.31802 0.99081 0.7716 0.0
H1391 H 0.28424 0.99063 0.75168 0.0
C1392 C 0.59307 0.26897 0.83546 0.0
C1393 C 0.57697 0.29389 0.84027 0.0
C1394 C 0.58831 0.2512 0.80982 0.0
C1395 C 0.56736 0.25875 0.78779 0.0
C1396 C 0.55025 0.28332 0.79308 0.0
C1397 C 0.55506 0.30044 0.81943 0.0
C1398 C 0.60642 0.22478 0.80581 0.0
C1399 C 0.52758 0.29209 0.7703 0.0
C1400 C 0.58274 0.23357 0.70564 0.0
C1401 C 0.56383 0.2106 0.70201 0.0
C1402 C 0.58352 0.24965 0.73305 0.0
C1403 C 0.56536 0.24239 0.75803 0.0
C1404 C 0.5464 0.219 0.75474 0.0
C1405 C 0.54569 0.20357 0.72673 0.0
C1406 C 0.60371 0.27466 0.73517 0.0
C1407 C 0.52721 0.20991 0.78093 0.0
H1408 H 0.60973 0.26339 0.8517 0.0
H1409 H 0.54242 0.31953 0.82308 0.0
H1410 H 0.59271 0.20597 0.80123 0.0
H1411 H 0.62072 0.22745 0.78559 0.0
H1412 H 0.61972 0.22031 0.82644 0.0
H1413 H 0.51545 0.31114 0.77817 0.0
H1414 H 0.53758 0.29696 0.74766 0.0
H1415 H 0.5124 0.27428 0.76658 0.0
H1416 H 0.59657 0.23957 0.68665 0.0
H1417 H 0.53096 0.18591 0.72424 0.0
H1418 H 0.61945 0.27091 0.75381 0.0
H1419 H 0.59171 0.29434 0.74117 0.0
H1420 H 0.61546 0.27839 0.71325 0.0
H1421 H 0.5401 0.19882 0.79873 0.0
H1422 H 0.51012 0.19519 0.77311 0.0
H1423 H 0.51726 0.22872 0.7921 0.0
C1424 C 0.25861 0.5898 0.69167 0.0
C1425 C 0.28287 0.57323 0.68519 0.0
C1426 C 0.24361 0.58703 0.71962 0.0
C1427 C 0.25333 0.56764 0.74239 0.0
C1428 C 0.27706 0.54981 0.73549 0.0
C1429 C 0.29141 0.55264 0.70684 0.0
C1430 C 0.21803 0.60594 0.7253 0.0
C1431 C 0.28829 0.52889 0.75898 0.0
C1432 C 0.23502 0.59433 0.82315 0.0
C1433 C 0.21052 0.57858 0.83059 0.0
C1434 C 0.25021 0.58946 0.79559 0.0
C1435 C 0.24042 0.56875 0.77424 0.0
C1436 C 0.21637 0.55186 0.78218 0.0
C1437 C 0.20189 0.55677 0.8104 0.0
C1438 C 0.27607 0.60755 0.78869 0.0
C1439 C 0.20502 0.52968 0.76014 0.0
H1440 H 0.25151 0.60546 0.67493 0.0
H1441 H 0.3101 0.53973 0.70206 0.0
H1442 H 0.19978 0.59309 0.73379 0.0
H1443 H 0.22319 0.62187 0.74341 0.0
H1444 H 0.21132 0.61755 0.70416 0.0
H1445 H 0.3032 0.51319 0.74849 0.0
H1446 H 0.2998 0.5407 0.77733 0.0
H1447 H 0.27054 0.51721 0.77022 0.0
H1448 H 0.24217 0.61093 0.83876 0.0
H1449 H 0.18304 0.54443 0.81597 0.0
H1450 H 0.27121 0.62239 0.76944 0.0
H1451 H 0.29416 0.59388 0.78125 0.0
H1452 H 0.28286 0.62035 0.80898 0.0
H1453 H 0.19584 0.5404 0.73958 0.0
H1454 H 0.18823 0.51624 0.77091 0.0
H1455 H 0.22249 0.51564 0.75184 0.0
C1456 C 0.95148 0.29547 0.70415 0.0
C1457 C 0.9283 0.28768 0.68549 0.0
C1458 C 0.95728 0.28079 0.73204 0.0
C1459 C 0.93962 0.25768 0.74132 0.0
C1460 C 0.91733 0.24882 0.7215 0.0
C1461 C 0.91187 0.26395 0.69417 0.0
C1462 C 0.98147 0.29078 0.75222 0.0
C1463 C 0.89819 0.22407 0.72988 0.0
C1464 C 0.95389 0.20422 0.80641 0.0
C1465 C 0.93466 0.21382 0.82903 0.0
C1466 C 0.95746 0.21932 0.77836 0.0
C1467 C 0.94167 0.24475 0.77303 0.0
C1468 C 0.92403 0.25556 0.79695 0.0
C1469 C 0.92056 0.23989 0.82436 0.0
C1470 C 0.9766 0.20701 0.75367 0.0
C1471 C 0.90715 0.28275 0.79279 0.0
H1472 H 0.9644 0.31365 0.69758 0.0
H1473 H 0.89423 0.25733 0.67972 0.0
H1474 H 0.97274 0.30098 0.77335 0.0
H1475 H 0.99465 0.27239 0.75974 0.0
H1476 H 0.99539 0.30643 0.74021 0.0
H1477 H 0.88358 0.21817 0.71076 0.0
H1478 H 0.91114 0.20509 0.73603 0.0
H1479 H 0.88513 0.22976 0.75037 0.0
H1480 H 0.96487 0.18411 0.80985 0.0
H1481 H 0.90593 0.24766 0.84187 0.0
H1482 H 0.98971 0.22397 0.74284 0.0
H1483 H 0.96333 0.19738 0.73523 0.0
H1484 H 0.99098 0.19025 0.76298 0.0
H1485 H 0.92098 0.29996 0.78359 0.0
H1486 H 0.89737 0.29018 0.81476 0.0
H1487 H 0.88986 0.27911 0.77579 0.0
C1488 C 0.4803 0.02165 0.92638 0.0
C1489 C 0.4515 0.02342 0.93528 0.0
C1490 C 0.50174 0.01459 0.9477 0.0
C1491 C 0.49432 0.00871 0.97874 0.0
C1492 C 0.46525 0.00969 0.98774 0.0
C1493 C 0.44422 0.01709 0.96597 0.0
C1494 C 0.53239 0.01366 0.93702 0.0
C1495 C 0.45637 0.00319 0.02051 0.0
C1496 C 0.54398 0.96322 0.02756 0.0
C1497 C 0.55659 0.98346 0.0472 0.0
C1498 C 0.52412 0.97121 1.00499 0.0
C1499 C 0.51682 1.00033 1.00147 0.0
C1500 C 0.53055 0.02111 0.02012 0.0
C1501 C 0.5503 0.01243 0.04282 0.0
C1502 C 0.51019 0.9483 0.98566 0.0
C1503 C 0.52366 0.05242 0.01677 0.0
H1504 H 0.48616 0.0261 0.90265 0.0
H1505 H 0.42217 0.01875 0.97325 0.0
H1506 H 0.54541 0.02862 0.95097 0.0
H1507 H 0.5413 0.99196 0.94056 0.0
H1508 H 0.53471 0.01939 0.91226 0.0
H1509 H 0.43293 0.00478 0.02385 0.0
H1510 H 0.46332 0.98134 0.02691 0.0
H1511 H 0.46694 0.01823 0.03661 0.0
H1512 H 0.54912 0.9408 0.03047 0.0
H1513 H 0.5599 0.02814 0.05793 0.0
H1514 H 0.51313 0.95296 0.96075 0.0
H1515 H 0.48691 0.94799 0.99024 0.0
H1516 H 0.51895 0.92673 0.99053 0.0
H1517 H 0.52624 0.05914 0.99236 0.0
H1518 H 0.53743 0.06603 0.03151 0.0
H1519 H 0.50107 0.05624 0.02322 0.0
C1520 C 0.49154 0.44787 0.96374 0.0
C1521 C 0.48575 0.45521 0.93296 0.0
C1522 C 0.49916 0.46879 0.98559 0.0
C1523 C 0.50097 0.49784 0.97657 0.0
C1524 C 0.49559 0.50531 0.94546 0.0
C1525 C 0.48824 0.48397 0.92408 0.0
C1526 C 0.50503 0.45984 0.01845 0.0
C1527 C 0.49742 0.53593 0.93476 0.0
C1528 C 0.49796 0.55449 0.04026 0.0
C1529 C 0.52699 0.56008 0.04492 0.0
C1530 C 0.48906 0.53469 0.01768 0.0
C1531 C 0.50967 0.5202 0.99938 0.0
C1532 C 0.53889 0.5267 1.00324 0.0
C1533 C 0.54712 0.54659 0.02573 0.0
C1534 C 0.45767 0.52862 0.01401 0.0
C1535 C 0.56162 0.512 0.98424 0.0
H1536 H 0.4893 0.42586 0.97102 0.0
H1537 H 0.48419 0.48988 0.9003 0.0
H1538 H 0.52697 0.46616 0.02508 0.0
H1539 H 0.49013 0.47096 0.03436 0.0
H1540 H 0.50275 0.43645 0.02181 0.0
H1541 H 0.49202 0.53833 0.90993 0.0
H1542 H 0.48268 0.54944 0.94853 0.0
H1543 H 0.51927 0.54424 0.93852 0.0
H1544 H 0.48233 0.56476 0.05501 0.0
H1545 H 0.56958 0.5512 0.0288 0.0
H1546 H 0.45325 0.50611 0.02032 0.0
H1547 H 0.45126 0.53142 0.98955 0.0
H1548 H 0.44426 0.54275 0.02868 0.0
H1549 H 0.56116 0.48869 0.98878 0.0
H1550 H 0.58334 0.52007 0.98945 0.0
H1551 H 0.5574 0.51506 0.95927 0.0
C1552 C 0.06195 0.49419 0.9636 0.0
C1553 C 0.05462 0.48854 0.9328 0.0
C1554 C 0.04107 0.50184 0.98553 0.0
C1555 C 0.01207 0.50388 0.97655 0.0
C1556 C 0.00461 0.4987 0.9454 0.0
C1557 C 0.02591 0.49126 0.92396 0.0
C1558 C 0.05 0.50746 0.01844 0.0
C1559 C 0.97405 0.50082 0.93472 0.0
C1560 C 0.95564 0.50058 0.04046 0.0
C1561 C 0.9503 0.52963 0.04567 0.0
C1562 C 0.97524 0.49177 0.01757 0.0
C1563 C 0.98973 0.5125 0.99949 0.0
C1564 C 0.98338 0.54176 1.00385 0.0
C1565 C 0.96374 0.5499 0.02669 0.0
C1566 C 0.98117 0.46035 0.01342 0.0
C1567 C 0.99807 0.56462 0.98509 0.0
H1568 H 0.08393 0.49178 0.97083 0.0
H1569 H 0.02002 0.48729 0.90015 0.0
H1570 H 0.04375 0.52942 0.0253 0.0
H1571 H 0.03884 0.49251 0.03421 0.0
H1572 H 0.07335 0.50502 0.02176 0.0
H1573 H 0.97168 0.49571 0.90981 0.0
H1574 H 0.9605 0.48597 0.94825 0.0
H1575 H 0.96581 0.5227 0.93883 0.0
H1576 H 0.94541 0.48486 0.05509 0.0
H1577 H 0.95938 0.5724 0.03031 0.0
H1578 H 0.00364 0.45571 0.01967 0.0
H1579 H 0.9784 0.4542 0.98886 0.0
H1580 H 0.96699 0.44686 0.02789 0.0
H1581 H 0.02132 0.56417 0.98972 0.0
H1582 H 0.9899 0.58634 0.99045 0.0
H1583 H 0.99514 0.56052 0.96007 0.0
C1584 C 0.99505 0.05278 0.95429 0.0
C1585 C 0.02363 0.0572 0.94608 0.0
C1586 C 0.98762 0.03273 0.97725 0.0
C1587 C 0.00927 0.01686 0.99242 0.0
C1588 C 0.03815 0.02176 0.98464 0.0
C1589 C 0.04493 0.04188 0.96179 0.0
C1590 C 0.95657 0.02827 0.98503 0.0
C1591 C 0.06195 0.00562 1.00034 0.0
C1592 C 0.99216 0.9842 0.0708 0.0
C1593 C 0.98607 0.95572 0.06314 0.0
C1594 C 0.99998 0.00416 0.04813 0.0
C1595 C 0.00189 0.99552 0.01687 0.0
C1596 C 0.99694 0.96651 1.00912 0.0
C1597 C 0.98912 0.94694 0.03235 0.0
C1598 C 0.00539 0.03471 0.05756 0.0
C1599 C 0.999 0.95636 0.97612 0.0
H1600 H 0.9785 0.06446 0.94226 0.0
H1601 H 0.06714 0.04559 0.95611 0.0
H1602 H 0.95059 0.00573 0.98061 0.0
H1603 H 0.95288 0.03247 0.00993 0.0
H1604 H 0.94232 0.04237 0.97136 0.0
H1605 H 0.08332 0.01177 0.99147 0.0
H1606 H 0.06134 0.00961 0.02558 0.0
H1607 H 0.05911 0.98233 0.99686 0.0
H1608 H 0.98995 0.99108 0.0946 0.0
H1609 H 0.98409 0.92509 0.0262 0.0
H1610 H 0.98967 0.04896 0.04623 0.0
H1611 H 0.02688 0.04152 0.0498 0.0
H1612 H 0.00386 0.0378 0.08295 0.0
H1613 H 0.98289 0.96758 0.96184 0.0
H1614 H 0.99552 0.93299 0.974 0.0
H1615 H 0.02027 0.96161 0.96643 0.0
C1616 C 0.46681 0.48886 0.5788 0.0
C1617 C 0.43876 0.48807 0.56748 0.0
C1618 C 0.48996 0.49565 0.55951 0.0
C1619 C 0.48505 0.50207 0.52804 0.0
C1620 C 0.45661 0.503 0.5169 0.0
C1621 C 0.43379 0.49597 0.53675 0.0
C1622 C 0.51978 0.49465 0.57253 0.0
C1623 C 0.45038 0.51017 0.48363 0.0
C1624 C 0.54186 0.5406 0.48104 0.0
C1625 C 0.55344 0.51843 0.46307 0.0
C1626 C 0.52013 0.5355 0.50267 0.0
C1627 C 0.50967 0.50743 0.50672 0.0
C1628 C 0.52235 0.48467 0.48984 0.0
C1629 C 0.5441 0.49045 0.46815 0.0
C1630 C 0.50749 0.56039 0.52015 0.0
C1631 C 0.5121 0.45438 0.49377 0.0
H1632 H 0.47077 0.48277 0.60256 0.0
H1633 H 0.41226 0.49503 0.52776 0.0
H1634 H 0.532 0.47724 0.56122 0.0
H1635 H 0.53114 0.51491 0.56762 0.0
H1636 H 0.51988 0.49096 0.59786 0.0
H1637 H 0.42714 0.51159 0.47897 0.0
H1638 H 0.46043 0.5308 0.47736 0.0
H1639 H 0.45972 0.49357 0.46838 0.0
H1640 H 0.54904 0.5623 0.47712 0.0
H1641 H 0.55275 0.47335 0.45409 0.0
H1642 H 0.5077 0.55608 0.54533 0.0
H1643 H 0.4849 0.56337 0.51328 0.0
H1644 H 0.51915 0.58061 0.51572 0.0
H1645 H 0.51258 0.44827 0.51851 0.0
H1646 H 0.52521 0.43891 0.48043 0.0
H1647 H 0.48965 0.45271 0.48595 0.0
C1648 C 0.99566 0.55763 0.47544 0.0
C1649 C 0.96716 0.56504 0.46995 0.0
C1650 C 0.0026 0.53472 0.49528 0.0
C1651 C 0.98054 0.51885 0.50983 0.0
C1652 C 0.95184 0.52703 0.50519 0.0
C1653 C 0.94557 0.55006 0.48564 0.0
C1654 C 0.03352 0.52701 0.50005 0.0
C1655 C 0.92761 0.51094 0.5202 0.0
C1656 C 0.99718 0.44287 0.53703 0.0
C1657 C 0.00232 0.44713 0.56857 0.0
C1658 C 0.98963 0.46591 0.5177 0.0
C1659 C 0.98731 0.49387 0.53017 0.0
C1660 C 0.99119 0.49795 0.56226 0.0
C1661 C 0.99841 0.47459 0.581 0.0
C1662 C 0.98512 0.46052 0.48371 0.0
C1663 C 0.98881 0.52722 0.57667 0.0
H1664 H 0.0124 0.56898 0.46333 0.0
H1665 H 0.92348 0.55593 0.48187 0.0
H1666 H 0.03859 0.52693 0.52506 0.0
H1667 H 0.03758 0.50515 0.4912 0.0
H1668 H 0.04816 0.54205 0.48815 0.0
H1669 H 0.90645 0.52023 0.51452 0.0
H1670 H 0.92793 0.48834 0.51253 0.0
H1671 H 0.93017 0.51095 0.54565 0.0
H1672 H 1.00049 0.42184 0.5272 0.0
H1673 H 0.00225 0.47801 0.6054 0.0
H1674 H 0.00153 0.47209 0.47015 0.0
H1675 H 0.96401 0.46886 0.47648 0.0
H1676 H 0.98631 0.43746 0.47784 0.0
H1677 H 0.00519 0.54155 0.56658 0.0
H1678 H 0.9917 0.52669 0.60211 0.0
H1679 H 0.96768 0.53673 0.57153 0.0
C1680 C 0.95534 0.01007 0.50096 0.0
C1681 C 0.95748 0.99986 0.47059 0.0
C1682 C 0.97984 0.01531 0.51874 0.0
C1683 C 0.0072 0.00988 0.50602 0.0
C1684 C 0.00956 1.00012 0.47523 0.0
C1685 C 0.98475 0.99556 0.45781 0.0
C1686 C 0.97643 0.02629 0.55132 0.0
C1687 C 0.03827 0.99408 0.4608 0.0
C1688 C 0.06806 0.04897 0.54489 0.0
C1689 C 0.07766 0.02866 0.56632 0.0
C1690 C 0.04594 0.04275 0.52428 0.0
C1691 C 0.03329 0.01537 0.52476 0.0
C1692 C 0.04442 0.99404 0.54468 0.0
C1693 C 0.06649 1.00099 0.5654 0.0
C1694 C 0.03483 0.06615 0.50353 0.0
C1695 C 0.0319 0.9644 0.54538 0.0
H1696 H 0.93449 0.01312 0.51126 0.0
H1697 H 0.98672 0.98817 0.43419 0.0
H1698 H 0.9857 0.01077 0.56784 0.0
H1699 H 0.98823 0.04665 0.55409 0.0
H1700 H 0.95375 0.02998 0.55758 0.0
H1701 H 0.03645 0.98618 0.43669 0.0
H1702 H 0.05146 0.01371 0.46078 0.0
H1703 H 0.04982 0.97787 0.47466 0.0
H1704 H 0.07681 0.07038 0.54554 0.0
H1705 H 0.07376 0.98535 0.58207 0.0
H1706 H 0.01305 0.07236 0.51103 0.0
H1707 H 0.03326 0.05852 0.47936 0.0
H1708 H 0.04858 0.08544 0.50402 0.0
H1709 H 0.01012 0.96527 0.5554 0.0
H1710 H 0.04497 0.94945 0.55937 0.0
H1711 H 0.02997 0.95576 0.52162 0.0
C1712 C 0.50851 0.93546 0.45706 0.0
C1713 C 0.53708 0.92671 0.45627 0.0
C1714 C 0.4995 0.9571 0.47755 0.0
C1715 C 0.51959 0.97029 0.49745 0.0
C1716 C 0.54816 0.96069 0.49748 0.0
C1717 C 0.55641 0.93886 0.47725 0.0
C1718 C 0.4687 0.9664 0.47734 0.0
C1719 C 0.57034 0.97411 0.51817 0.0
C1720 C 0.50588 0.04558 0.52752 0.0
C1721 C 0.4971 0.04031 0.55798 0.0
C1722 C 0.51308 0.023 0.50751 0.0
C1723 C 0.51111 0.99442 0.51804 0.0
C1724 C 0.50256 0.98897 0.54881 0.0
C1725 C 0.49603 0.01192 0.56845 0.0
C1726 C 0.52271 0.02972 0.47505 0.0
C1727 C 0.50019 0.95886 0.561 0.0
H1728 H 0.4935 0.92616 0.44096 0.0
H1729 H 0.57842 0.93174 0.47727 0.0
H1730 H 0.45976 0.96556 0.50106 0.0
H1731 H 0.46719 0.98887 0.46942 0.0
H1732 H 0.45541 0.95289 0.46198 0.0
H1733 H 0.5916 0.96388 0.51565 0.0
H1734 H 0.57246 0.99714 0.51264 0.0
H1735 H 0.56363 0.97255 0.54268 0.0
H1736 H 0.50644 0.06731 0.51899 0.0
H1737 H 0.48981 0.00757 0.59209 0.0
H1738 H 0.50827 0.01938 0.45816 0.0
H1739 H 0.54439 0.02095 0.47107 0.0
H1740 H 0.52312 0.05303 0.47039 0.0
H1741 H 0.48578 0.94617 0.54607 0.0
H1742 H 0.49196 0.95819 0.58506 0.0
H1743 H 0.52138 0.94834 0.56042 0.0
C1744 C 0.49399 0.80141 0.16741 0.0
C1745 C 0.51079 0.7768 0.16443 0.0
C1746 C 0.50645 0.82859 0.16726 0.0
C1747 C 0.53634 0.83111 0.1636 0.0
C1748 C 0.55358 0.80629 0.16427 0.0
C1749 C 0.54057 0.77934 0.16481 0.0
C1750 C 0.48731 0.8545 0.1675 0.0
C1751 C 0.58556 0.808 0.16082 0.0
C1752 C 0.55896 0.889 0.10809 0.0
C1753 C 0.56939 0.91019 0.12789 0.0
C1754 C 0.54848 0.86322 0.11959 0.0
C1755 C 0.54847 0.85831 0.15185 0.0
C1756 C 0.55951 0.87934 0.17207 0.0
C1757 C 0.56998 0.90512 0.15979 0.0
C1758 C 0.53716 0.84132 0.09708 0.0
C1759 C 0.55968 0.87486 0.20657 0.0
H1760 H 0.47095 0.79959 0.16795 0.0
H1761 H 0.55375 0.76039 0.16306 0.0
H1762 H 0.49686 0.87205 0.18119 0.0
H1763 H 0.48454 0.8623 0.1435 0.0
H1764 H 0.46591 0.84949 0.17711 0.0
H1765 H 0.59614 0.78791 0.16818 0.0
H1766 H 0.59094 0.81186 0.13621 0.0
H1767 H 0.59435 0.82598 0.17445 0.0
H1768 H 0.55907 0.89262 0.08335 0.0
H1769 H 0.57807 0.92152 0.17511 0.0
H1770 H 0.51428 0.83718 0.10183 0.0
H1771 H 0.54875 0.82083 0.09989 0.0
H1772 H 0.53931 0.8483 0.07267 0.0
H1773 H 0.53745 0.87468 0.21535 0.0
H1774 H 0.57164 0.89188 0.21882 0.0
H1775 H 0.56926 0.85387 0.21236 0.0
C1776 C 0.70921 0.50199 0.17027 0.0
C1777 C 0.73356 0.51892 0.16638 0.0
C1778 C 0.68189 0.51406 0.16925 0.0
C1779 C 0.67896 0.54368 0.1637 0.0
C1780 C 0.70348 0.56128 0.16333 0.0
C1781 C 0.73059 0.54866 0.16484 0.0
C1782 C 0.65632 0.49457 0.17058 0.0
C1783 C 0.70131 0.593 0.15774 0.0
C1784 C 0.62106 0.56281 0.10681 0.0
C1785 C 0.59984 0.57436 0.12591 0.0
C1786 C 0.64681 0.55297 0.11899 0.0
C1787 C 0.65164 0.55479 0.15119 0.0
C1788 C 0.63049 0.56675 0.1707 0.0
C1789 C 0.60476 0.57655 0.15776 0.0
C1790 C 0.66882 0.54047 0.09725 0.0
C1791 C 0.63489 0.5688 0.20513 0.0
H1792 H 0.71137 0.479 0.17219 0.0
H1793 H 0.74935 0.56195 0.16225 0.0
H1794 H 0.63845 0.50472 0.18331 0.0
H1795 H 0.6489 0.49013 0.14674 0.0
H1796 H 0.66157 0.47389 0.18178 0.0
H1797 H 0.72118 0.60428 0.16445 0.0
H1798 H 0.69751 0.59686 0.1328 0.0
H1799 H 0.68315 0.60238 0.17068 0.0
H1800 H 0.61758 0.56167 0.0821 0.0
H1801 H 0.58834 0.58548 0.17254 0.0
H1802 H 0.67322 0.51794 0.10354 0.0
H1803 H 0.68915 0.5524 0.09923 0.0
H1804 H 0.66183 0.54108 0.07276 0.0
H1805 H 0.63724 0.54709 0.21502 0.0
H1806 H 0.61688 0.57973 0.21692 0.0
H1807 H 0.65486 0.58053 0.21022 0.0
C1808 C 0.01012 0.71017 0.17646 0.0
C1809 C 0.99254 0.7341 0.17253 0.0
C1810 C 0.99881 0.68254 0.1753 0.0
C1811 C 0.96936 0.67891 0.16951 0.0
C1812 C 0.9511 0.703 0.16927 0.0
C1813 C 0.96293 0.73041 0.17098 0.0
C1814 C 0.01893 0.65742 0.17667 0.0
C1815 C 0.91953 0.70009 0.16335 0.0
C1816 C 0.95151 0.62182 0.11117 0.0
C1817 C 0.93951 0.60041 0.12961 0.0
C1818 C 0.96137 0.64727 0.12407 0.0
C1819 C 0.95916 0.65153 0.15636 0.0
C1820 C 0.94715 0.63001 0.17527 0.0
C1821 C 0.93725 0.60465 0.16159 0.0
C1822 C 0.97395 0.66971 0.10296 0.0
C1823 C 0.94476 0.6338 0.20978 0.0
H1824 H 0.03299 0.71291 0.1785 0.0
H1825 H 0.94915 0.74885 0.16845 0.0
H1826 H 0.00902 0.6391 0.18881 0.0
H1827 H 0.02414 0.65045 0.15282 0.0
H1828 H 0.03916 0.66306 0.18849 0.0
H1829 H 0.90767 0.71964 0.17022 0.0
H1830 H 0.91602 0.69642 0.13833 0.0
H1831 H 0.91054 0.68158 0.17597 0.0
H1832 H 0.95272 0.61887 0.08636 0.0
H1833 H 0.92796 0.58807 0.17586 0.0
H1834 H 0.99628 0.67426 0.10973 0.0
H1835 H 0.96173 0.68991 0.10509 0.0
H1836 H 0.97385 0.66304 0.07835 0.0
H1837 H 0.96599 0.63866 0.21972 0.0
H1838 H 0.93605 0.61453 0.22136 0.0
H1839 H 0.93068 0.6522 0.2151 0.0
C1840 C 0.79531 0.01339 0.17643 0.0
C1841 C 0.77109 0.99678 0.17054 0.0
C1842 C 0.82256 1.0011 0.17643 0.0
C1843 C 0.82556 0.97165 0.16986 0.0
C1844 C 0.80098 0.95429 0.16742 0.0
C1845 C 0.77394 0.96708 0.16799 0.0
C1846 C 0.84817 0.02026 0.18008 0.0
C1847 C 0.80319 0.92277 0.16056 0.0
C1848 C 0.8862 0.95312 0.11589 0.0
C1849 C 0.90589 0.9402 0.13575 0.0
C1850 C 0.86008 0.96334 0.12688 0.0
C1851 C 0.8534 0.96061 0.15865 0.0
C1852 C 0.8731 0.94746 0.17892 0.0
C1853 C 0.89916 0.9372 0.16715 0.0
C1854 C 0.83962 0.97704 0.10435 0.0
C1855 C 0.86673 0.94449 0.21293 0.0
H1856 H 0.79317 0.03631 0.17914 0.0
H1857 H 0.75526 0.95404 0.16385 0.0
H1858 H 0.86525 0.00948 0.19338 0.0
H1859 H 0.85688 0.02547 0.15692 0.0
H1860 H 0.8425 0.04058 0.19185 0.0
H1861 H 0.78287 0.91147 0.16548 0.0
H1862 H 0.8084 0.91979 0.13575 0.0
H1863 H 0.82047 0.91272 0.17419 0.0
H1864 H 0.89113 0.95495 0.0915 0.0
H1865 H 0.91444 0.92724 0.1825 0.0
H1866 H 0.83533 0.99944 0.11127 0.0
H1867 H 0.81897 0.96551 0.1046 0.0
H1868 H 0.84798 0.97706 0.08033 0.0
H1869 H 0.86346 0.96589 0.22332 0.0
H1870 H 0.88417 0.93348 0.22554 0.0
H1871 H 0.84668 0.93235 0.21633 0.0
C1872 C 0.55968 0.60695 0.39456 0.0
C1873 C 0.56643 0.58343 0.37606 0.0
C1874 C 0.54816 0.63171 0.38181 0.0
C1875 C 0.54317 0.633 0.34958 0.0
C1876 C 0.55083 0.60961 0.33049 0.0
C1877 C 0.56252 0.58493 0.34406 0.0
C1878 C 0.54071 0.65622 0.40312 0.0
C1879 C 0.54571 0.61009 0.29613 0.0
C1880 C 0.48672 0.68852 0.34169 0.0
C1881 C 0.50375 0.71304 0.34018 0.0
C1882 C 0.49903 0.66131 0.33994 0.0
C1883 C 0.52898 0.65881 0.33707 0.0
C1884 C 0.54555 0.68335 0.33084 0.0
C1885 C 0.53269 0.71033 0.3325 0.0
C1886 C 0.48046 0.63552 0.34531 0.0
C1887 C 0.57742 0.68148 0.32661 0.0
H1888 H 0.56315 0.60576 0.41929 0.0
H1889 H 0.56783 0.5666 0.32987 0.0
H1890 H 0.55147 0.67603 0.39533 0.0
H1891 H 0.51739 0.66017 0.40263 0.0
H1892 H 0.54704 0.65203 0.42741 0.0
H1893 H 0.55943 0.59436 0.28391 0.0
H1894 H 0.52313 0.60449 0.29156 0.0
H1895 H 0.54959 0.6316 0.28628 0.0
H1896 H 0.46412 0.69047 0.34654 0.0
H1897 H 0.54585 0.72923 0.33034 0.0
H1898 H 0.48221 0.62886 0.36982 0.0
H1899 H 0.48751 0.61736 0.33072 0.0
H1900 H 0.4577 0.64018 0.34033 0.0
H1901 H 0.5877 0.67954 0.34958 0.0
H1902 H 0.58602 0.70082 0.31505 0.0
H1903 H 0.58337 0.66239 0.31287 0.0
C1904 C 0.87663 0.57761 0.40627 0.0
C1905 C 0.89879 0.58876 0.38832 0.0
C1906 C 0.85202 0.56671 0.39265 0.0
C1907 C 0.8493 0.56719 0.36009 0.0
C1908 C 0.87094 0.57989 0.34179 0.0
C1909 C 0.89563 0.59057 0.35622 0.0
C1910 C 0.82947 0.55362 0.41324 0.0
C1911 C 0.86877 0.58107 0.30708 0.0
C1912 C 0.80027 0.50676 0.34251 0.0
C1913 C 0.77389 0.52047 0.34593 0.0
C1914 C 0.82566 0.52245 0.34239 0.0
C1915 C 0.82447 0.55243 0.34612 0.0
C1916 C 0.79783 0.56658 0.34487 0.0
C1917 C 0.77269 0.55035 0.34483 0.0
C1918 C 0.85366 0.50656 0.34241 0.0
C1919 C 0.79574 0.59861 0.34754 0.0
H1920 H 0.87891 0.57678 0.43118 0.0
H1921 H 0.91279 0.59934 0.34239 0.0
H1922 H 0.8085 0.56382 0.40895 0.0
H1923 H 0.8273 0.53053 0.40798 0.0
H1924 H 0.83457 0.5559 0.43816 0.0
H1925 H 0.88227 0.59837 0.29739 0.0
H1926 H 0.87629 0.56052 0.29726 0.0
H1927 H 0.84643 0.58438 0.29947 0.0
H1928 H 0.80129 0.48363 0.34222 0.0
H1929 H 0.75229 0.56114 0.34664 0.0
H1930 H 0.86172 0.50509 0.36644 0.0
H1931 H 0.86984 0.51805 0.32848 0.0
H1932 H 0.85132 0.48456 0.33315 0.0
H1933 H 0.79778 0.60483 0.37217 0.0
H1934 H 0.77493 0.60663 0.3389 0.0
H1935 H 0.81319 0.60916 0.33454 0.0
C1936 C 0.91934 0.92232 0.37809 0.0
C1937 C 0.9093 0.92608 0.40827 0.0
C1938 C 0.92915 0.89548 0.36806 0.0
C1939 C 0.92958 0.87231 0.38908 0.0
C1940 C 0.91738 0.87567 0.41883 0.0
C1941 C 0.90728 0.90255 0.428 0.0
C1942 C 0.94121 0.8926 0.33589 0.0
C1943 C 0.91759 0.85169 0.44212 0.0
C1944 C 0.94943 0.79554 0.36998 0.0
C1945 C 0.97801 0.79473 0.37949 0.0
C1946 C 0.93374 0.82116 0.37089 0.0
C1947 C 0.94678 0.84628 0.38227 0.0
C1948 C 0.97603 0.84582 0.39036 0.0
C1949 C 0.99134 0.82016 0.38851 0.0
C1950 C 0.90288 0.82099 0.36111 0.0
C1951 C 0.99079 0.87203 0.40289 0.0
H1952 H 0.92122 0.94072 0.36304 0.0
H1953 H 0.89991 0.90574 0.45151 0.0
H1954 H 0.96482 0.89328 0.33694 0.0
H1955 H 0.93507 0.87186 0.32547 0.0
H1956 H 0.93386 0.91015 0.3206 0.0
H1957 H 0.9046 0.85681 0.46289 0.0
H1958 H 0.90934 0.83174 0.43168 0.0
H1959 H 0.93984 0.84753 0.44958 0.0
H1960 H 0.93907 0.77602 0.36264 0.0
H1961 H 0.01343 0.81978 0.3958 0.0
H1962 H 0.89796 0.84 0.34681 0.0
H1963 H 0.88902 0.82189 0.38186 0.0
H1964 H 0.89743 0.80146 0.34783 0.0
H1965 H 0.98826 0.89019 0.38671 0.0
H1966 H 0.01392 0.86844 0.40682 0.0
H1967 H 0.98084 0.87836 0.42514 0.0
C1968 C 0.6283 0.89424 0.35954 0.0
C1969 C 0.61806 0.9008 0.38918 0.0
C1970 C 0.65565 0.90308 0.35012 0.0
C1971 C 0.67256 0.91951 0.37056 0.0
C1972 C 0.6628 0.92476 0.40103 0.0
C1973 C 0.6361 0.91471 0.41008 0.0
C1974 C 0.66557 0.89569 0.31796 0.0
C1975 C 0.67975 0.94247 0.42375 0.0
C1976 C 0.74807 0.94439 0.37331 0.0
C1977 C 0.74387 0.97324 0.36606 0.0
C1978 C 0.72573 0.9247 0.36984 0.0
C1979 C 0.69868 0.93453 0.36004 0.0
C1980 C 0.69587 0.96254 0.34823 0.0
C1981 C 0.71871 0.98152 0.35106 0.0
C1982 C 0.73013 0.8942 0.37985 0.0
C1983 C 0.66769 0.97361 0.33638 0.0
H1984 H 0.61469 0.88308 0.34335 0.0
H1985 H 0.62889 0.91867 0.4335 0.0
H1986 H 0.65541 0.91042 0.3012 0.0
H1987 H 0.68906 0.89722 0.31539 0.0
H1988 H 0.65879 0.87371 0.31179 0.0
H1989 H 0.66841 0.94547 0.44607 0.0
H1990 H 0.7005 0.93206 0.42856 0.0
H1991 H 0.68422 0.96386 0.41387 0.0
H1992 H 0.76789 0.93757 0.38383 0.0
H1993 H 0.71582 0.00356 0.34407 0.0
H1994 H 0.71731 0.87943 0.36542 0.0
H1995 H 0.72313 0.89169 0.40417 0.0
H1996 H 0.75296 0.888 0.37836 0.0
H1997 H 0.65911 0.95899 0.31858 0.0
H1998 H 0.66957 0.99529 0.32623 0.0
H1999 H 0.65203 0.97451 0.35562 0.0
C2000 C 0.44757 0.1014 0.84231 0.0
C2001 C 0.42288 0.09846 0.86031 0.0
C2002 C 0.45709 0.12848 0.83296 0.0
C2003 C 0.44199 0.1531 0.8427 0.0
C2004 C 0.4159 0.15002 0.85888 0.0
C2005 C 0.40653 0.12267 0.86726 0.0
C2006 C 0.48447 0.13084 0.81478 0.0
C2007 C 0.39932 0.17565 0.87012 0.0
C2008 C 0.48544 0.21698 0.86743 0.0
C2009 C 0.4786 0.23734 0.84487 0.0
C2010 C 0.47413 0.18942 0.86643 0.0
C2011 C 0.45606 0.18155 0.84174 0.0
C2012 C 0.45028 0.20142 0.81789 0.0
C2013 C 0.46124 0.22933 0.82 0.0
C2014 C 0.48065 0.1691 0.89263 0.0
C2015 C 0.432 0.19345 0.7906 0.0
H2016 H 0.46007 0.08261 0.83668 0.0
H2017 H 0.38752 0.12043 0.88134 0.0
H2018 H 0.48263 0.14748 0.79665 0.0
H2019 H 0.50204 0.13722 0.83043 0.0
H2020 H 0.49034 0.11024 0.80373 0.0
H2021 H 0.37784 0.16972 0.87885 0.0
H2022 H 0.41123 0.1861 0.88913 0.0
H2023 H 0.39681 0.19156 0.85138 0.0
H2024 H 0.49888 0.22284 0.88675 0.0
H2025 H 0.45616 0.24485 0.80228 0.0
H2026 H 0.4908 0.14941 0.88357 0.0
H2027 H 0.46056 0.16272 0.90431 0.0
H2028 H 0.49506 0.17865 0.91011 0.0
H2029 H 0.43814 0.17213 0.78156 0.0
H2030 H 0.43371 0.20932 0.77164 0.0
H2031 H 0.40937 0.1922 0.79793 0.0
C2032 C 0.38709 0.41116 0.86183 0.0
C2033 C 0.41141 0.42784 0.85669 0.0
C2034 C 0.35998 0.42092 0.85309 0.0
C2035 C 0.35722 0.44787 0.83856 0.0
C2036 C 0.38202 0.46343 0.83055 0.0
C2037 C 0.40884 0.45339 0.84005 0.0
C2038 C 0.33414 0.40369 0.86225 0.0
C2039 C 0.38008 0.49182 0.81424 0.0
C2040 C 0.28186 0.46918 0.81455 0.0
C2041 C 0.27301 0.48488 0.84046 0.0
C2042 C 0.30974 0.45802 0.8127 0.0
C2043 C 0.32879 0.46205 0.8377 0.0
C2044 C 0.32014 0.47858 0.86342 0.0
C2045 C 0.2926 0.48999 0.86429 0.0
C2046 C 0.31848 0.44129 0.78445 0.0
C2047 C 0.33961 0.48341 0.89073 0.0
H2048 H 0.38897 0.39147 0.87482 0.0
H2049 H 0.42769 0.46616 0.83571 0.0
H2050 H 0.32314 0.4144 0.88179 0.0
H2051 H 0.3188 0.40238 0.84286 0.0
H2052 H 0.33991 0.38168 0.8695 0.0
H2053 H 0.40085 0.49814 0.80397 0.0
H2054 H 0.36375 0.49119 0.79575 0.0
H2055 H 0.37358 0.50854 0.83101 0.0
H2056 H 0.26697 0.46533 0.79591 0.0
H2057 H 0.28618 0.50223 0.88438 0.0
H2058 H 0.31872 0.41819 0.79003 0.0
H2059 H 0.34031 0.44727 0.77697 0.0
H2060 H 0.30355 0.44476 0.76491 0.0
H2061 H 0.34548 0.46262 0.90123 0.0
H2062 H 0.32962 0.49695 0.90883 0.0
H2063 H 0.35962 0.49384 0.88307 0.0
C2064 C 0.05508 0.41105 0.84143 0.0
C2065 C 0.08165 0.4141 0.85591 0.0
C2066 C 0.04505 0.38408 0.83238 0.0
C2067 C 0.0619 0.35957 0.83822 0.0
C2068 C 0.08984 0.3629 0.85005 0.0
C2069 C 0.09939 0.39013 0.85875 0.0
C2070 C 0.01538 0.38159 0.81925 0.0
C2071 C 0.1086 0.33739 0.85649 0.0
C2072 C 0.02379 0.29372 0.86726 0.0
C2073 C 0.02593 0.27488 0.84214 0.0
C2074 C 0.03489 0.32136 0.86582 0.0
C2075 C 0.04841 0.33079 0.83843 0.0
C2076 C 0.04976 0.31237 0.81247 0.0
C2077 C 0.03864 0.28448 0.81469 0.0
C2078 C 0.03271 0.34025 0.89407 0.0
C2079 C 0.06354 0.32181 0.78269 0.0
H2080 H 0.04147 0.4296 0.83867 0.0
H2081 H 0.11991 0.39226 0.86998 0.0
H2082 H 0.01474 0.3656 0.80036 0.0
H2083 H 0.00058 0.37428 0.83763 0.0
H2084 H 0.00751 0.40237 0.8103 0.0
H2085 H 0.13106 0.34369 0.86086 0.0
H2086 H 0.10047 0.32602 0.87718 0.0
H2087 H 0.10812 0.32218 0.83687 0.0
H2088 H 0.01376 0.28675 0.88852 0.0
H2089 H 0.04025 0.27015 0.79511 0.0
H2090 H 0.02164 0.36046 0.8882 0.0
H2091 H 0.05437 0.34586 0.90233 0.0
H2092 H 0.02096 0.32985 0.91331 0.0
H2093 H 0.05641 0.34361 0.77634 0.0
H2094 H 0.05865 0.30704 0.76333 0.0
H2095 H 0.087 0.32254 0.78573 0.0
C2096 C 0.19713 0.99503 0.87705 0.0
C2097 C 0.22092 1.00114 0.85863 0.0
C2098 C 0.1716 0.01019 0.87352 0.0
C2099 C 0.16943 0.03127 0.85016 0.0
C2100 C 0.19269 0.0359 0.82986 0.0
C2101 C 0.21848 0.02125 0.83484 0.0
C2102 C 0.14759 0.00486 0.89613 0.0
C2103 C 0.19082 0.05707 0.80371 0.0
C2104 C 0.09243 0.05417 0.84299 0.0
C2105 C 0.09191 0.07769 0.86297 0.0
C2106 C 0.11829 0.04059 0.83555 0.0
C2107 C 0.14384 0.0501 0.84954 0.0
C2108 C 0.14358 0.07526 0.86775 0.0
C2109 C 0.11758 0.08895 0.87392 0.0
C2110 C 0.11788 0.01469 0.81485 0.0
C2111 C 0.1702 0.08598 0.88347 0.0
H2112 H 0.19898 0.97958 0.89557 0.0
H2113 H 0.23682 0.0258 0.82039 0.0
H2114 H 0.14327 0.02457 0.9096 0.0
H2115 H 0.12776 0.99934 0.88362 0.0
H2116 H 0.15253 0.98733 0.91254 0.0
H2117 H 0.20741 0.05297 0.78589 0.0
H2118 H 0.16953 0.05634 0.79261 0.0
H2119 H 0.194 0.07896 0.81282 0.0
H2120 H 0.07249 0.04545 0.83462 0.0
H2121 H 0.11704 0.10693 0.8897 0.0
H2122 H 0.11839 0.99508 0.82917 0.0
H2123 H 0.13688 0.01432 0.79953 0.0
H2124 H 0.09834 0.01409 0.8004 0.0
H2125 H 0.1767 0.07058 0.90164 0.0
H2126 H 0.16695 0.10719 0.89441 0.0
H2127 H 0.18803 0.08758 0.86674 0.0
C2128 C 0.44255 0.26531 0.64178 0.0
C2129 C 0.47022 0.26579 0.65399 0.0
C2130 C 0.42646 0.29055 0.63926 0.0
C2131 C 0.4386 0.31683 0.64864 0.0
C2132 C 0.46552 0.31698 0.66336 0.0
C2133 C 0.48086 0.29142 0.66612 0.0
C2134 C 0.3974 0.28936 0.62447 0.0
C2135 C 0.47939 0.34448 0.67358 0.0
C2136 C 0.42427 0.38273 0.60068 0.0
C2137 C 0.40816 0.39972 0.62094 0.0
C2138 C 0.43356 0.35546 0.6092 0.0
C2139 C 0.42584 0.34435 0.63842 0.0
C2140 C 0.408 0.36053 0.65825 0.0
C2141 C 0.39958 0.3882 0.6494 0.0
C2142 C 0.4527 0.33906 0.58733 0.0
C2143 C 0.39869 0.3491 0.68922 0.0
H2144 H 0.43397 0.24551 0.63279 0.0
H2145 H 0.50206 0.29197 0.67604 0.0
H2146 H 0.3822 0.3036 0.63672 0.0
H2147 H 0.39894 0.29688 0.60024 0.0
H2148 H 0.38867 0.26733 0.62432 0.0
H2149 H 0.49866 0.34064 0.68787 0.0
H2150 H 0.48575 0.357 0.65294 0.0
H2151 H 0.4642 0.3577 0.68705 0.0
H2152 H 0.43018 0.39101 0.57821 0.0
H2153 H 0.38706 0.40111 0.66518 0.0
H2154 H 0.44325 0.31794 0.58203 0.0
H2155 H 0.47368 0.33519 0.59838 0.0
H2156 H 0.45632 0.35059 0.56526 0.0
H2157 H 0.39171 0.32655 0.68717 0.0
H2158 H 0.38101 0.36188 0.69931 0.0
H2159 H 0.41692 0.34961 0.70547 0.0
C2160 C 0.10584 0.43348 0.61132 0.0
C2161 C 0.08593 0.42166 0.63173 0.0
C2162 C 0.13128 0.44538 0.62207 0.0
C2163 C 0.13699 0.44557 0.65418 0.0
C2164 C 0.11748 0.4326 0.6749 0.0
C2165 C 0.09208 0.42066 0.66336 0.0
C2166 C 0.15158 0.45865 0.59905 0.0
C2167 C 0.1228 0.43244 0.70923 0.0
C2168 C 0.21472 0.46219 0.6672 0.0
C2169 C 0.21402 0.49214 0.66772 0.0
C2170 C 0.18942 0.44626 0.66594 0.0
C2171 C 0.16289 0.46065 0.66542 0.0
C2172 C 0.16206 0.49063 0.66964 0.0
C2173 C 0.18767 0.50605 0.67068 0.0
C2174 C 0.19128 0.41431 0.66188 0.0
C2175 C 0.13421 0.50679 0.66986 0.0
H2176 H 0.10111 0.434 0.58682 0.0
H2177 H 0.07654 0.41163 0.67912 0.0
H2178 H 0.15329 0.48193 0.60342 0.0
H2179 H 0.17321 0.44936 0.6017 0.0
H2180 H 0.14458 0.45545 0.57481 0.0
H2181 H 0.10784 0.41807 0.72164 0.0
H2182 H 0.14498 0.4257 0.71431 0.0
H2183 H 0.1201 0.45437 0.71846 0.0
H2184 H 0.235 0.45118 0.66539 0.0
H2185 H 0.18695 0.52916 0.67174 0.0
H2186 H 0.1878 0.40892 0.63722 0.0
H2187 H 0.17454 0.40333 0.67553 0.0
H2188 H 0.21247 0.40588 0.66883 0.0
H2189 H 0.12587 0.50818 0.64593 0.0
H2190 H 0.1368 0.52883 0.67892 0.0
H2191 H 0.11805 0.49552 0.68403 0.0
C2192 C 0.99496 0.19462 0.67001 0.0
C2193 C 0.00645 0.2222 0.6713 0.0
C2194 C 0.01258 0.17052 0.67241 0.0
C2195 C 0.04231 0.17417 0.67645 0.0
C2196 C 0.0533 0.2018 0.68209 0.0
C2197 C 0.03523 0.22559 0.67927 0.0
C2198 C 0.99981 0.1414 0.66693 0.0
C2199 C 0.08464 0.20651 0.68783 0.0
C2200 C 0.0853 0.105 0.67753 0.0
C2201 C 0.09125 0.10186 0.646 0.0
C2202 C 0.07076 0.12936 0.68848 0.0
C2203 C 0.06191 0.15062 0.66724 0.0
C2204 C 0.06964 0.14818 0.63571 0.0
C2205 C 0.08432 0.12395 0.62559 0.0
C2206 C 0.06352 0.13141 0.72235 0.0
C2207 C 0.06087 0.1703 0.61214 0.0
H2208 H 0.97257 0.19176 0.66469 0.0
H2209 H 0.04415 0.24685 0.68119 0.0
H2210 H 0.00543 0.13408 0.6433 0.0
H2211 H 0.00855 0.12563 0.68348 0.0
H2212 H 0.97621 0.14166 0.66908 0.0
H2213 H 0.08866 0.22756 0.6988 0.0
H2214 H 0.09352 0.18945 0.70278 0.0
H2215 H 0.09628 0.20586 0.66551 0.0
H2216 H 0.09069 0.08787 0.6933 0.0
H2217 H 0.08926 0.12156 0.60124 0.0
H2218 H 0.04154 0.12344 0.72612 0.0
H2219 H 0.06435 0.15383 0.73059 0.0
H2220 H 0.07822 0.11825 0.73655 0.0
H2221 H 0.03727 0.17107 0.61049 0.0
H2222 H 0.06963 0.1657 0.58881 0.0
H2223 H 0.06825 0.19177 0.61933 0.0
C2224 C 0.29633 0.03692 0.67708 0.0
C2225 C 0.29564 0.00746 0.67116 0.0
C2226 C 0.32197 0.05229 0.67501 0.0
C2227 C 0.34736 0.03783 0.66676 0.0
C2228 C 0.34726 0.00767 0.66423 0.0
C2229 C 0.3214 0.99283 0.66657 0.0
C2230 C 0.32128 0.08431 0.67873 0.0
C2231 C 0.37394 0.99131 0.65587 0.0
C2232 C 0.39893 0.07142 0.61041 0.0
C2233 C 0.42269 0.07653 0.62905 0.0
C2234 C 0.37375 0.06031 0.62287 0.0
C2235 C 0.37231 0.05412 0.65486 0.0
C2236 C 0.39566 0.06104 0.67419 0.0
C2237 C 0.42078 0.0721 0.66096 0.0
C2238 C 0.34937 0.05344 0.60135 0.0
C2239 C 0.39485 0.05512 0.70841 0.0
H2240 H 0.2766 0.04837 0.68125 0.0
H2241 H 0.32117 0.96999 0.66256 0.0
H2242 H 0.34041 0.09196 0.69126 0.0
H2243 H 0.32133 0.09445 0.65558 0.0
H2244 H 0.30189 0.09151 0.6913 0.0
H2245 H 0.37129 0.96796 0.65925 0.0
H2246 H 0.37926 0.99523 0.63125 0.0
H2247 H 0.39226 0.99868 0.66991 0.0
H2248 H 0.40064 0.07477 0.58569 0.0
H2249 H 0.43936 0.07583 0.67524 0.0
H2250 H 0.32927 0.06302 0.61006 0.0
H2251 H 0.34625 0.02997 0.60034 0.0
H2252 H 0.35322 0.06135 0.57752 0.0
H2253 H 0.37378 0.06082 0.71835 0.0
H2254 H 0.41171 0.06706 0.72092 0.0
H2255 H 0.39826 0.03199 0.71241 0.0
loop_
_geom_bond_atom_site_label_1
_geom_bond_atom_site_label_2
_geom_bond_distance
_geom_bond_site_symmetry_2
_ccdc_geom_bond_type
O0 Tb1 2.292 . S
O0 C3 1.255 . S
Tb1 O0 2.292 . S
Tb1 O17 2.326 . S
Tb1 O19 2.500 . S
Tb1 O20 2.473 . S
Tb1 O23 2.324 . S
Eu2 O6 2.292 . S
Eu2 C7 2.852 . S
Eu2 O18 2.324 . S
Eu2 O22 2.326 . S
Eu2 O24 2.500 1_545 S
Eu2 O25 2.473 . S
C3 O0 1.255 . S
C3 O4 1.247 . S
O4 C3 1.247 . S
C5 O17 1.242 . S
C5 O18 1.258 . S
O6 Eu2 2.292 . S
O6 C8 1.255 . S
C7 Eu2 2.852 . S
C7 C11 1.503 1_545 S
C7 O24 1.273 1_545 S
C7 O25 1.257 . S
C8 O6 1.255 . S
C8 O9 1.247 . S
O9 C8 1.247 . S
C10 O22 1.242 . S
C10 O23 1.258 . S
C11 C7 1.503 1_565 S
C11 C12 1.379 1_565 S
C11 C16 1.392 . S
C12 C11 1.379 1_545 S
C12 C13 1.408 . S
C12 H26 0.929 . S
C13 C12 1.408 . S
C13 C14 1.378 1_545 S
C14 C13 1.378 1_565 S
C14 C15 1.399 . S
C14 H27 0.931 . S
C15 C14 1.399 . S
C15 C16 1.390 . S
C16 C11 1.392 . S
C16 C15 1.390 . S
C16 H28 0.929 . S
O17 Tb1 2.326 . S
O17 C5 1.242 . S
O18 Eu2 2.324 . S
O18 C5 1.258 . S
O19 Tb1 2.500 . S
O19 C21 1.273 . S
O20 Tb1 2.473 . S
O20 C21 1.257 . S
C21 O19 1.273 . S
C21 O20 1.257 . S
O22 Eu2 2.326 . S
O22 C10 1.242 . S
O23 Tb1 2.324 . S
O23 C10 1.258 . S
O24 Eu2 2.500 1_565 S
O24 C7 1.273 1_565 S
O25 Eu2 2.473 . S
O25 C7 1.257 . S
H26 C12 0.929 . S
H27 C14 0.931 . S
H28 C16 0.929 . S
O29 Tb30 2.292 . S
O29 C32 1.255 . S
Tb30 O29 2.292 . S
Tb30 O46 2.326 . S
Tb30 O48 2.500 . S
Tb30 O49 2.473 . S
Tb30 O52 2.324 . S
Eu31 O35 2.292 . S
Eu31 C36 2.852 . S
Eu31 O47 2.324 . S
Eu31 O51 2.326 . S
Eu31 O53 2.500 . S
Eu31 O54 2.473 . S
C32 O29 1.255 . S
C32 O33 1.247 . S
O33 C32 1.247 . S
C34 O46 1.242 . S
C34 O47 1.258 . S
O35 Eu31 2.292 . S
O35 C37 1.255 . S
C36 Eu31 2.852 . S
C36 C40 1.503 . S
C36 O53 1.273 . S
C36 O54 1.257 . S
C37 O35 1.255 . S
C37 O38 1.247 . S
O38 C37 1.247 . S
C39 O51 1.242 . S
C39 O52 1.258 . S
C40 C36 1.503 . S
C40 C41 1.379 . S
C40 C45 1.392 . S
C41 C40 1.379 . S
C41 C42 1.404 . S
C41 H55 0.929 . S
C42 C41 1.404 . S
C42 C43 1.389 . S
C43 C42 1.389 . S
C43 C44 1.399 . S
C43 H56 0.931 . S
C44 C43 1.399 . S
C44 C45 1.390 . S
C45 C40 1.392 . S
C45 C44 1.390 . S
C45 H57 0.929 . S
O46 Tb30 2.326 . S
O46 C34 1.242 . S
O47 Eu31 2.324 . S
O47 C34 1.258 . S
O48 Tb30 2.500 . S
O48 C50 1.273 . S
O49 Tb30 2.473 . S
O49 C50 1.257 . S
C50 O48 1.273 . S
C50 O49 1.257 . S
O51 Eu31 2.326 . S
O51 C39 1.242 . S
O52 Tb30 2.324 . S
O52 C39 1.258 . S
O53 Eu31 2.500 . S
O53 C36 1.273 . S
O54 Eu31 2.473 . S
O54 C36 1.257 . S
H55 C41 0.929 . S
H56 C43 0.931 . S
H57 C45 0.929 . S
O58 Tb59 2.292 . S
O58 C61 1.255 . S
Tb59 O58 2.292 . S
Tb59 O75 2.326 . S
Tb59 O77 2.500 . S
Tb59 O78 2.473 . S
Tb59 O81 2.324 . S
Eu60 O64 2.292 . S
Eu60 C65 2.852 . S
Eu60 O76 2.324 . S
Eu60 O80 2.326 . S
Eu60 O82 2.500 . S
Eu60 O83 2.473 . S
C61 O58 1.255 . S
C61 O62 1.247 . S
O62 C61 1.247 . S
C63 O75 1.242 . S
C63 O76 1.258 . S
O64 Eu60 2.292 . S
O64 C66 1.255 . S
C65 Eu60 2.852 . S
C65 C69 1.503 . S
C65 O82 1.273 . S
C65 O83 1.257 . S
C66 O64 1.255 . S
C66 O67 1.247 . S
O67 C66 1.247 . S
C68 O80 1.242 . S
C68 O81 1.258 . S
C69 C65 1.503 . S
C69 C70 1.379 . S
C69 C74 1.392 . S
C70 C69 1.379 . S
C70 C71 1.404 . S
C70 H84 0.929 . S
C71 C70 1.404 . S
C71 C72 1.389 . S
C72 C71 1.389 . S
C72 C73 1.399 . S
C72 H85 0.931 . S
C73 C72 1.399 . S
C73 C74 1.390 . S
C74 C69 1.392 . S
C74 C73 1.390 . S
C74 H86 0.929 . S
O75 Tb59 2.326 . S
O75 C63 1.242 . S
O76 Eu60 2.324 . S
O76 C63 1.258 . S
O77 Tb59 2.500 . S
O77 C79 1.273 . S
O78 Tb59 2.473 . S
O78 C79 1.257 . S
C79 O77 1.273 . S
C79 O78 1.257 . S
O80 Eu60 2.326 . S
O80 C68 1.242 . S
O81 Tb59 2.324 . S
O81 C68 1.258 . S
O82 Eu60 2.500 . S
O82 C65 1.273 . S
O83 Eu60 2.473 . S
O83 C65 1.257 . S
H84 C70 0.929 . S
H85 C72 0.931 . S
H86 C74 0.929 . S
O87 Tb88 2.292 . S
O87 C90 1.255 . S
Tb88 O87 2.292 . S
Tb88 O104 2.326 . S
Tb88 O106 2.500 . S
Tb88 O107 2.473 . S
Tb88 O110 2.324 . S
Eu89 O93 2.292 . S
Eu89 C94 2.852 . S
Eu89 O105 2.324 . S
Eu89 O109 2.326 . S
Eu89 O111 2.500 1_455 S
Eu89 O112 2.473 . S
C90 O87 1.255 . S
C90 O91 1.247 . S
O91 C90 1.247 . S
C92 O104 1.242 . S
C92 O105 1.258 . S
O93 Eu89 2.292 . S
O93 C95 1.255 . S
C94 Eu89 2.852 . S
C94 C98 1.503 1_455 S
C94 O111 1.273 1_455 S
C94 O112 1.257 . S
C95 O93 1.255 . S
C95 O96 1.247 . S
O96 C95 1.247 . S
C97 O109 1.242 . S
C97 O110 1.258 . S
C98 C94 1.503 1_655 S
C98 C99 1.379 1_655 S
C98 C103 1.392 . S
C99 C98 1.379 1_455 S
C99 C100 1.408 . S
C99 H113 0.929 . S
C100 C99 1.408 . S
C100 C101 1.378 1_455 S
C101 C100 1.378 1_655 S
C101 C102 1.399 . S
C101 H114 0.931 . S
C102 C101 1.399 . S
C102 C103 1.390 . S
C103 C98 1.392 . S
C103 C102 1.390 . S
C103 H115 0.929 . S
O104 Tb88 2.326 . S
O104 C92 1.242 . S
O105 Eu89 2.324 . S
O105 C92 1.258 . S
O106 Tb88 2.500 . S
O106 C108 1.273 . S
O107 Tb88 2.473 . S
O107 C108 1.257 . S
C108 O106 1.273 . S
C108 O107 1.257 . S
O109 Eu89 2.326 . S
O109 C97 1.242 . S
O110 Tb88 2.324 . S
O110 C97 1.258 . S
O111 Eu89 2.500 1_655 S
O111 C94 1.273 1_655 S
O112 Eu89 2.473 . S
O112 C94 1.257 . S
H113 C99 0.929 . S
H114 C101 0.931 . S
H115 C103 0.929 . S
O116 Tb117 2.292 . S
O116 C119 1.255 . S
Tb117 O116 2.292 . S
Tb117 O133 2.326 . S
Tb117 O135 2.500 . S
Tb117 O136 2.473 . S
Tb117 O139 2.324 . S
Eu118 O122 2.292 . S
Eu118 C123 2.852 . S
Eu118 O134 2.324 . S
Eu118 O138 2.326 . S
Eu118 O140 2.500 . S
Eu118 O141 2.473 . S
C119 O116 1.255 . S
C119 O120 1.247 . S
O120 C119 1.247 . S
C121 O133 1.242 . S
C121 O134 1.258 . S
O122 Eu118 2.292 . S
O122 C124 1.255 . S
C123 Eu118 2.852 . S
C123 C127 1.503 . S
C123 O140 1.273 . S
C123 O141 1.257 . S
C124 O122 1.255 . S
C124 O125 1.247 . S
O125 C124 1.247 . S
C126 O138 1.242 . S
C126 O139 1.258 . S
C127 C123 1.503 . S
C127 C128 1.379 . S
C127 C132 1.392 . S
C128 C127 1.379 . S
C128 C129 1.404 . S
C128 H142 0.929 . S
C129 C128 1.404 . S
C129 C130 1.389 . S
C130 C129 1.389 . S
C130 C131 1.399 . S
C130 H143 0.931 . S
C131 C130 1.399 . S
C131 C132 1.390 . S
C132 C127 1.392 . S
C132 C131 1.390 . S
C132 H144 0.929 . S
O133 Tb117 2.326 . S
O133 C121 1.242 . S
O134 Eu118 2.324 . S
O134 C121 1.258 . S
O135 Tb117 2.500 . S
O135 C137 1.273 . S
O136 Tb117 2.473 . S
O136 C137 1.257 . S
C137 O135 1.273 . S
C137 O136 1.257 . S
O138 Eu118 2.326 . S
O138 C126 1.242 . S
O139 Tb117 2.324 . S
O139 C126 1.258 . S
O140 Eu118 2.500 . S
O140 C123 1.273 . S
O141 Eu118 2.473 . S
O141 C123 1.257 . S
H142 C128 0.929 . S
H143 C130 0.931 . S
H144 C132 0.929 . S
O145 Tb146 2.292 . S
O145 C148 1.255 . S
Tb146 O145 2.292 . S
Tb146 O162 2.326 . S
Tb146 O164 2.500 . S
Tb146 O165 2.473 . S
Tb146 O168 2.324 . S
Eu147 O151 2.292 . S
Eu147 C152 2.852 . S
Eu147 O163 2.324 . S
Eu147 O167 2.326 . S
Eu147 O169 2.500 1_455 S
Eu147 O170 2.473 . S
C148 O145 1.255 . S
C148 O149 1.247 . S
O149 C148 1.247 . S
C150 O162 1.242 . S
C150 O163 1.258 . S
O151 Eu147 2.292 . S
O151 C153 1.255 . S
C152 Eu147 2.852 . S
C152 C156 1.503 1_455 S
C152 O169 1.273 1_455 S
C152 O170 1.257 . S
C153 O151 1.255 . S
C153 O154 1.247 . S
O154 C153 1.247 . S
C155 O167 1.242 . S
C155 O168 1.258 . S
C156 C152 1.503 1_655 S
C156 C157 1.379 1_655 S
C156 C161 1.392 . S
C157 C156 1.379 1_455 S
C157 C158 1.408 . S
C157 H171 0.929 . S
C158 C157 1.408 . S
C158 C159 1.378 1_455 S
C159 C158 1.378 1_655 S
C159 C160 1.399 . S
C159 H172 0.931 . S
C160 C159 1.399 . S
C160 C161 1.390 . S
C161 C156 1.392 . S
C161 C160 1.390 . S
C161 H173 0.929 . S
O162 Tb146 2.326 . S
O162 C150 1.242 . S
O163 Eu147 2.324 . S
O163 C150 1.258 . S
O164 Tb146 2.500 . S
O164 C166 1.273 . S
O165 Tb146 2.473 . S
O165 C166 1.257 . S
C166 O164 1.273 . S
C166 O165 1.257 . S
O167 Eu147 2.326 . S
O167 C155 1.242 . S
O168 Tb146 2.324 . S
O168 C155 1.258 . S
O169 Eu147 2.500 1_655 S
O169 C152 1.273 1_655 S
O170 Eu147 2.473 . S
O170 C152 1.257 . S
H171 C157 0.929 . S
H172 C159 0.931 . S
H173 C161 0.929 . S
O174 Tb175 2.292 . S
O174 C177 1.255 . S
Tb175 O174 2.292 . S
Tb175 O191 2.326 . S
Tb175 O193 2.500 . S
Tb175 O194 2.473 . S
Tb175 O197 2.324 . S
Eu176 O180 2.292 . S
Eu176 C181 2.852 . S
Eu176 O192 2.324 . S
Eu176 O196 2.326 . S
Eu176 O198 2.500 1_545 S
Eu176 O199 2.473 . S
C177 O174 1.255 . S
C177 O178 1.247 . S
O178 C177 1.247 . S
C179 O191 1.242 . S
C179 O192 1.258 . S
O180 Eu176 2.292 . S
O180 C182 1.255 . S
C181 Eu176 2.852 . S
C181 C185 1.503 1_545 S
C181 O198 1.273 1_545 S
C181 O199 1.257 . S
C182 O180 1.255 . S
C182 O183 1.247 . S
O183 C182 1.247 . S
C184 O196 1.242 . S
C184 O197 1.258 . S
C185 C181 1.503 1_565 S
C185 C186 1.379 1_565 S
C185 C190 1.392 . S
C186 C185 1.379 1_545 S
C186 C187 1.408 . S
C186 H200 0.929 . S
C187 C186 1.408 . S
C187 C188 1.378 1_545 S
C188 C187 1.378 1_565 S
C188 C189 1.399 . S
C188 H201 0.931 . S
C189 C188 1.399 . S
C189 C190 1.390 . S
C190 C185 1.392 . S
C190 C189 1.390 . S
C190 H202 0.929 . S
O191 Tb175 2.326 . S
O191 C179 1.242 . S
O192 Eu176 2.324 . S
O192 C179 1.258 . S
O193 Tb175 2.500 . S
O193 C195 1.273 . S
O194 Tb175 2.473 . S
O194 C195 1.257 . S
C195 O193 1.273 . S
C195 O194 1.257 . S
O196 Eu176 2.326 . S
O196 C184 1.242 . S
O197 Tb175 2.324 . S
O197 C184 1.258 . S
O198 Eu176 2.500 1_565 S
O198 C181 1.273 1_565 S
O199 Eu176 2.473 . S
O199 C181 1.257 . S
H200 C186 0.929 . S
H201 C188 0.931 . S
H202 C190 0.929 . S
O203 Tb204 2.292 . S
O203 C206 1.255 . S
Tb204 O203 2.292 . S
Tb204 O220 2.326 . S
Tb204 O222 2.500 . S
Tb204 O223 2.473 . S
Tb204 O226 2.324 . S
Eu205 O209 2.292 . S
Eu205 C210 2.852 . S
Eu205 O221 2.324 . S
Eu205 O225 2.326 . S
Eu205 O227 2.500 . S
Eu205 O228 2.473 . S
C206 O203 1.255 . S
C206 O207 1.247 . S
O207 C206 1.247 . S
C208 O220 1.242 . S
C208 O221 1.258 . S
O209 Eu205 2.292 . S
O209 C211 1.255 . S
C210 Eu205 2.852 . S
C210 C214 1.503 . S
C210 O227 1.273 . S
C210 O228 1.257 . S
C211 O209 1.255 . S
C211 O212 1.247 . S
O212 C211 1.247 . S
C213 O225 1.242 . S
C213 O226 1.258 . S
C214 C210 1.503 . S
C214 C215 1.379 . S
C214 C219 1.392 . S
C215 C214 1.379 . S
C215 C216 1.404 . S
C215 H229 0.929 . S
C216 C215 1.404 . S
C216 C217 1.389 . S
C217 C216 1.389 . S
C217 C218 1.399 . S
C217 H230 0.931 . S
C218 C217 1.399 . S
C218 C219 1.390 . S
C219 C214 1.392 . S
C219 C218 1.390 . S
C219 H231 0.929 . S
O220 Tb204 2.326 . S
O220 C208 1.242 . S
O221 Eu205 2.324 . S
O221 C208 1.258 . S
O222 Tb204 2.500 . S
O222 C224 1.273 . S
O223 Tb204 2.473 . S
O223 C224 1.257 . S
C224 O222 1.273 . S
C224 O223 1.257 . S
O225 Eu205 2.326 . S
O225 C213 1.242 . S
O226 Tb204 2.324 . S
O226 C213 1.258 . S
O227 Eu205 2.500 . S
O227 C210 1.273 . S
O228 Eu205 2.473 . S
O228 C210 1.257 . S
H229 C215 0.929 . S
H230 C217 0.931 . S
H231 C219 0.929 . S
O232 Tb233 2.292 . S
O232 C235 1.255 . S
Tb233 O232 2.292 . S
Tb233 O249 2.326 . S
Tb233 O251 2.500 . S
Tb233 O252 2.473 . S
Tb233 O255 2.324 . S
Eu234 O238 2.292 . S
Eu234 C239 2.852 . S
Eu234 O250 2.324 . S
Eu234 O254 2.326 . S
Eu234 O256 2.500 1_565 S
Eu234 O257 2.473 . S
C235 O232 1.255 . S
C235 O236 1.247 . S
O236 C235 1.247 . S
C237 O249 1.242 . S
C237 O250 1.258 . S
O238 Eu234 2.292 . S
O238 C240 1.255 . S
C239 Eu234 2.852 . S
C239 C243 1.503 1_565 S
C239 O256 1.273 1_565 S
C239 O257 1.257 . S
C240 O238 1.255 . S
C240 O241 1.247 . S
O241 C240 1.247 . S
C242 O254 1.242 . S
C242 O255 1.258 . S
C243 C239 1.503 1_545 S
C243 C244 1.379 1_545 S
C243 C248 1.392 . S
C244 C243 1.379 1_565 S
C244 C245 1.408 . S
C244 H258 0.929 . S
C245 C244 1.408 . S
C245 C246 1.378 1_565 S
C246 C245 1.378 1_545 S
C246 C247 1.399 . S
C246 H259 0.931 . S
C247 C246 1.399 . S
C247 C248 1.390 . S
C248 C243 1.392 . S
C248 C247 1.390 . S
C248 H260 0.929 . S
O249 Tb233 2.326 . S
O249 C237 1.242 . S
O250 Eu234 2.324 . S
O250 C237 1.258 . S
O251 Tb233 2.500 . S
O251 C253 1.273 . S
O252 Tb233 2.473 . S
O252 C253 1.257 . S
C253 O251 1.273 . S
C253 O252 1.257 . S
O254 Eu234 2.326 . S
O254 C242 1.242 . S
O255 Tb233 2.324 . S
O255 C242 1.258 . S
O256 Eu234 2.500 1_545 S
O256 C239 1.273 1_545 S
O257 Eu234 2.473 . S
O257 C239 1.257 . S
H258 C244 0.929 . S
H259 C246 0.931 . S
H260 C248 0.929 . S
O261 Tb262 2.292 . S
O261 C264 1.255 . S
Tb262 O261 2.292 . S
Tb262 O278 2.326 . S
Tb262 O280 2.500 . S
Tb262 O281 2.473 . S
Tb262 O284 2.324 . S
Eu263 O267 2.292 . S
Eu263 C268 2.852 . S
Eu263 O279 2.324 . S
Eu263 O283 2.326 . S
Eu263 O285 2.500 . S
Eu263 O286 2.473 . S
C264 O261 1.255 . S
C264 O265 1.247 . S
O265 C264 1.247 . S
C266 O278 1.242 . S
C266 O279 1.258 . S
O267 Eu263 2.292 . S
O267 C269 1.255 . S
C268 Eu263 2.852 . S
C268 C272 1.503 . S
C268 O285 1.273 . S
C268 O286 1.257 . S
C269 O267 1.255 . S
C269 O270 1.247 . S
O270 C269 1.247 . S
C271 O283 1.242 . S
C271 O284 1.258 . S
C272 C268 1.503 . S
C272 C273 1.379 . S
C272 C277 1.392 . S
C273 C272 1.379 . S
C273 C274 1.404 . S
C273 H287 0.929 . S
C274 C273 1.404 . S
C274 C275 1.389 . S
C275 C274 1.389 . S
C275 C276 1.399 . S
C275 H288 0.931 . S
C276 C275 1.399 . S
C276 C277 1.390 . S
C277 C272 1.392 . S
C277 C276 1.390 . S
C277 H289 0.929 . S
O278 Tb262 2.326 . S
O278 C266 1.242 . S
O279 Eu263 2.324 . S
O279 C266 1.258 . S
O280 Tb262 2.500 . S
O280 C282 1.273 . S
O281 Tb262 2.473 . S
O281 C282 1.257 . S
C282 O280 1.273 . S
C282 O281 1.257 . S
O283 Eu263 2.326 . S
O283 C271 1.242 . S
O284 Tb262 2.324 . S
O284 C271 1.258 . S
O285 Eu263 2.500 . S
O285 C268 1.273 . S
O286 Eu263 2.473 . S
O286 C268 1.257 . S
H287 C273 0.929 . S
H288 C275 0.931 . S
H289 C277 0.929 . S
O290 Tb291 2.292 . S
O290 C293 1.255 . S
Tb291 O290 2.292 . S
Tb291 O307 2.326 . S
Tb291 O309 2.500 . S
Tb291 O310 2.473 . S
Tb291 O313 2.324 . S
Eu292 O296 2.292 . S
Eu292 C297 2.852 . S
Eu292 O308 2.324 . S
Eu292 O312 2.326 . S
Eu292 O314 2.500 . S
Eu292 O315 2.473 . S
C293 O290 1.255 . S
C293 O294 1.247 . S
O294 C293 1.247 . S
C295 O307 1.242 . S
C295 O308 1.258 . S
O296 Eu292 2.292 . S
O296 C298 1.255 . S
C297 Eu292 2.852 . S
C297 C301 1.503 . S
C297 O314 1.273 . S
C297 O315 1.257 . S
C298 O296 1.255 . S
C298 O299 1.247 . S
O299 C298 1.247 . S
C300 O312 1.242 . S
C300 O313 1.258 . S
C301 C297 1.503 . S
C301 C302 1.379 . S
C301 C306 1.392 . S
C302 C301 1.379 . S
C302 C303 1.404 . S
C302 H316 0.929 . S
C303 C302 1.404 . S
C303 C304 1.389 . S
C304 C303 1.389 . S
C304 C305 1.399 . S
C304 H317 0.931 . S
C305 C304 1.399 . S
C305 C306 1.390 . S
C306 C301 1.392 . S
C306 C305 1.390 . S
C306 H318 0.929 . S
O307 Tb291 2.326 . S
O307 C295 1.242 . S
O308 Eu292 2.324 . S
O308 C295 1.258 . S
O309 Tb291 2.500 . S
O309 C311 1.273 . S
O310 Tb291 2.473 . S
O310 C311 1.257 . S
C311 O309 1.273 . S
C311 O310 1.257 . S
O312 Eu292 2.326 . S
O312 C300 1.242 . S
O313 Tb291 2.324 . S
O313 C300 1.258 . S
O314 Eu292 2.500 . S
O314 C297 1.273 . S
O315 Eu292 2.473 . S
O315 C297 1.257 . S
H316 C302 0.929 . S
H317 C304 0.931 . S
H318 C306 0.929 . S
O319 Tb320 2.292 . S
O319 C322 1.255 . S
Tb320 O319 2.292 . S
Tb320 O336 2.326 . S
Tb320 O338 2.500 . S
Tb320 O339 2.473 . S
Tb320 O342 2.324 . S
Eu321 O325 2.292 . S
Eu321 C326 2.852 . S
Eu321 O337 2.324 . S
Eu321 O341 2.326 . S
Eu321 O343 2.500 1_655 S
Eu321 O344 2.473 . S
C322 O319 1.255 . S
C322 O323 1.247 . S
O323 C322 1.247 . S
C324 O336 1.242 . S
C324 O337 1.258 . S
O325 Eu321 2.292 . S
O325 C327 1.255 . S
C326 Eu321 2.852 . S
C326 C330 1.503 1_655 S
C326 O343 1.273 1_655 S
C326 O344 1.257 . S
C327 O325 1.255 . S
C327 O328 1.247 . S
O328 C327 1.247 . S
C329 O341 1.242 . S
C329 O342 1.258 . S
C330 C326 1.503 1_455 S
C330 C331 1.379 1_455 S
C330 C335 1.392 . S
C331 C330 1.379 1_655 S
C331 C332 1.408 . S
C331 H345 0.929 . S
C332 C331 1.408 . S
C332 C333 1.378 1_655 S
C333 C332 1.378 1_455 S
C333 C334 1.399 . S
C333 H346 0.931 . S
C334 C333 1.399 . S
C334 C335 1.390 . S
C335 C330 1.392 . S
C335 C334 1.390 . S
C335 H347 0.929 . S
O336 Tb320 2.326 . S
O336 C324 1.242 . S
O337 Eu321 2.324 . S
O337 C324 1.258 . S
O338 Tb320 2.500 . S
O338 C340 1.273 . S
O339 Tb320 2.473 . S
O339 C340 1.257 . S
C340 O338 1.273 . S
C340 O339 1.257 . S
O341 Eu321 2.326 . S
O341 C329 1.242 . S
O342 Tb320 2.324 . S
O342 C329 1.258 . S
O343 Eu321 2.500 1_455 S
O343 C326 1.273 1_455 S
O344 Eu321 2.473 . S
O344 C326 1.257 . S
H345 C331 0.929 . S
H346 C333 0.931 . S
H347 C335 0.929 . S
O348 Tb349 2.292 . S
O348 C351 1.255 . S
Tb349 O348 2.292 . S
Tb349 O365 2.326 . S
Tb349 O367 2.500 . S
Tb349 O368 2.473 . S
Tb349 O371 2.324 . S
Eu350 O354 2.292 . S
Eu350 C355 2.852 . S
Eu350 O366 2.324 . S
Eu350 O370 2.326 . S
Eu350 O372 2.500 . S
Eu350 O373 2.473 . S
C351 O348 1.255 . S
C351 O352 1.247 . S
O352 C351 1.247 . S
C353 O365 1.242 . S
C353 O366 1.258 . S
O354 Eu350 2.292 . S
O354 C356 1.255 . S
C355 Eu350 2.852 . S
C355 C359 1.503 . S
C355 O372 1.273 . S
C355 O373 1.257 . S
C356 O354 1.255 . S
C356 O357 1.247 . S
O357 C356 1.247 . S
C358 O370 1.242 . S
C358 O371 1.258 . S
C359 C355 1.503 . S
C359 C360 1.379 . S
C359 C364 1.392 . S
C360 C359 1.379 . S
C360 C361 1.404 . S
C360 H374 0.929 . S
C361 C360 1.404 . S
C361 C362 1.389 . S
C362 C361 1.389 . S
C362 C363 1.399 . S
C362 H375 0.931 . S
C363 C362 1.399 . S
C363 C364 1.390 . S
C364 C359 1.392 . S
C364 C363 1.390 . S
C364 H376 0.929 . S
O365 Tb349 2.326 . S
O365 C353 1.242 . S
O366 Eu350 2.324 . S
O366 C353 1.258 . S
O367 Tb349 2.500 . S
O367 C369 1.273 . S
O368 Tb349 2.473 . S
O368 C369 1.257 . S
C369 O367 1.273 . S
C369 O368 1.257 . S
O370 Eu350 2.326 . S
O370 C358 1.242 . S
O371 Tb349 2.324 . S
O371 C358 1.258 . S
O372 Eu350 2.500 . S
O372 C355 1.273 . S
O373 Eu350 2.473 . S
O373 C355 1.257 . S
H374 C360 0.929 . S
H375 C362 0.931 . S
H376 C364 0.929 . S
O377 Tb378 2.292 . S
O377 C380 1.255 . S
Tb378 O377 2.292 . S
Tb378 O394 2.326 . S
Tb378 O396 2.500 . S
Tb378 O397 2.473 . S
Tb378 O400 2.324 . S
Eu379 O383 2.292 . S
Eu379 C384 2.852 . S
Eu379 O395 2.324 . S
Eu379 O399 2.326 . S
Eu379 O401 2.500 1_655 S
Eu379 O402 2.473 . S
C380 O377 1.255 . S
C380 O381 1.247 . S
O381 C380 1.247 . S
C382 O394 1.242 . S
C382 O395 1.258 . S
O383 Eu379 2.292 . S
O383 C385 1.255 . S
C384 Eu379 2.852 . S
C384 C388 1.503 1_655 S
C384 O401 1.273 1_655 S
C384 O402 1.257 . S
C385 O383 1.255 . S
C385 O386 1.247 . S
O386 C385 1.247 . S
C387 O399 1.242 . S
C387 O400 1.258 . S
C388 C384 1.503 1_455 S
C388 C389 1.379 1_455 S
C388 C393 1.392 . S
C389 C388 1.379 1_655 S
C389 C390 1.408 . S
C389 H403 0.929 . S
C390 C389 1.408 . S
C390 C391 1.378 1_655 S
C391 C390 1.378 1_455 S
C391 C392 1.399 . S
C391 H404 0.931 . S
C392 C391 1.399 . S
C392 C393 1.390 . S
C393 C388 1.392 . S
C393 C392 1.390 . S
C393 H405 0.929 . S
O394 Tb378 2.326 . S
O394 C382 1.242 . S
O395 Eu379 2.324 . S
O395 C382 1.258 . S
O396 Tb378 2.500 . S
O396 C398 1.273 . S
O397 Tb378 2.473 . S
O397 C398 1.257 . S
C398 O396 1.273 . S
C398 O397 1.257 . S
O399 Eu379 2.326 . S
O399 C387 1.242 . S
O400 Tb378 2.324 . S
O400 C387 1.258 . S
O401 Eu379 2.500 1_455 S
O401 C384 1.273 1_455 S
O402 Eu379 2.473 . S
O402 C384 1.257 . S
H403 C389 0.929 . S
H404 C391 0.931 . S
H405 C393 0.929 . S
O406 Tb407 2.292 . S
O406 C409 1.255 . S
Tb407 O406 2.292 . S
Tb407 O423 2.326 . S
Tb407 O425 2.500 . S
Tb407 O426 2.473 . S
Tb407 O429 2.324 . S
Eu408 O412 2.292 . S
Eu408 C413 2.852 . S
Eu408 O424 2.324 . S
Eu408 O428 2.326 . S
Eu408 O430 2.500 1_565 S
Eu408 O431 2.473 . S
C409 O406 1.255 . S
C409 O410 1.247 . S
O410 C409 1.247 . S
C411 O423 1.242 . S
C411 O424 1.258 . S
O412 Eu408 2.292 . S
O412 C414 1.255 . S
C413 Eu408 2.852 . S
C413 C417 1.503 1_565 S
C413 O430 1.273 1_565 S
C413 O431 1.257 . S
C414 O412 1.255 . S
C414 O415 1.247 . S
O415 C414 1.247 . S
C416 O428 1.242 . S
C416 O429 1.258 . S
C417 C413 1.503 1_545 S
C417 C418 1.379 1_545 S
C417 C422 1.392 . S
C418 C417 1.379 1_565 S
C418 C419 1.408 . S
C418 H432 0.929 . S
C419 C418 1.408 . S
C419 C420 1.378 1_565 S
C420 C419 1.378 1_545 S
C420 C421 1.399 . S
C420 H433 0.931 . S
C421 C420 1.399 . S
C421 C422 1.390 . S
C422 C417 1.392 . S
C422 C421 1.390 . S
C422 H434 0.929 . S
O423 Tb407 2.326 . S
O423 C411 1.242 . S
O424 Eu408 2.324 . S
O424 C411 1.258 . S
O425 Tb407 2.500 . S
O425 C427 1.273 . S
O426 Tb407 2.473 . S
O426 C427 1.257 . S
C427 O425 1.273 . S
C427 O426 1.257 . S
O428 Eu408 2.326 . S
O428 C416 1.242 . S
O429 Tb407 2.324 . S
O429 C416 1.258 . S
O430 Eu408 2.500 1_545 S
O430 C413 1.273 1_545 S
O431 Eu408 2.473 . S
O431 C413 1.257 . S
H432 C418 0.929 . S
H433 C420 0.931 . S
H434 C422 0.929 . S
O435 Tb436 2.292 . S
O435 C438 1.255 . S
Tb436 O435 2.292 . S
Tb436 O452 2.326 . S
Tb436 O454 2.500 . S
Tb436 O455 2.473 . S
Tb436 O458 2.324 . S
Eu437 O441 2.292 . S
Eu437 C442 2.852 . S
Eu437 O453 2.324 . S
Eu437 O457 2.326 . S
Eu437 O459 2.500 . S
Eu437 O460 2.473 . S
C438 O435 1.255 . S
C438 O439 1.247 . S
O439 C438 1.247 . S
C440 O452 1.242 . S
C440 O453 1.258 . S
O441 Eu437 2.292 . S
O441 C443 1.255 . S
C442 Eu437 2.852 . S
C442 C446 1.503 . S
C442 O459 1.273 . S
C442 O460 1.257 . S
C443 O441 1.255 . S
C443 O444 1.247 . S
O444 C443 1.247 . S
C445 O457 1.242 . S
C445 O458 1.258 . S
C446 C442 1.503 . S
C446 C447 1.379 . S
C446 C451 1.392 . S
C447 C446 1.379 . S
C447 C448 1.404 . S
C447 H461 0.929 . S
C448 C447 1.404 . S
C448 C449 1.389 . S
C449 C448 1.389 . S
C449 C450 1.399 . S
C449 H462 0.931 . S
C450 C449 1.399 . S
C450 C451 1.390 . S
C451 C446 1.392 . S
C451 C450 1.390 . S
C451 H463 0.929 . S
O452 Tb436 2.326 . S
O452 C440 1.242 . S
O453 Eu437 2.324 . S
O453 C440 1.258 . S
O454 Tb436 2.500 . S
O454 C456 1.273 . S
O455 Tb436 2.473 . S
O455 C456 1.257 . S
C456 O454 1.273 . S
C456 O455 1.257 . S
O457 Eu437 2.326 . S
O457 C445 1.242 . S
O458 Tb436 2.324 . S
O458 C445 1.258 . S
O459 Eu437 2.500 . S
O459 C442 1.273 . S
O460 Eu437 2.473 . S
O460 C442 1.257 . S
H461 C447 0.929 . S
H462 C449 0.931 . S
H463 C451 0.929 . S
C464 C465 1.391 . S
C464 C466 1.394 . S
C464 H480 0.931 . S
C465 C464 1.391 . S
C465 C469 1.376 . S
C466 C464 1.394 . S
C466 C467 1.369 . S
C466 C470 1.531 . S
C467 C466 1.369 . S
C467 C468 1.410 . S
C467 C475 1.503 . S
C468 C467 1.410 . S
C468 C469 1.392 . S
C468 C471 1.511 . S
C469 C465 1.376 . S
C469 C468 1.392 . S
C469 H481 0.929 . S
C470 C466 1.531 . S
C470 H482 0.960 . S
C470 H483 0.962 . S
C470 H484 0.960 . S
C471 C468 1.511 . S
C471 H485 0.961 . S
C471 H486 0.961 . S
C471 H487 0.961 . S
C472 C473 1.370 . S
C472 C474 1.363 . S
C472 H488 0.931 . S
C473 C472 1.370 . S
C473 C477 1.408 . S
C474 C472 1.363 . S
C474 C475 1.370 . S
C474 C478 1.524 . S
C475 C467 1.503 . S
C475 C474 1.370 . S
C475 C476 1.403 . S
C476 C475 1.403 . S
C476 C477 1.404 . S
C476 C479 1.539 . S
C477 C473 1.408 . S
C477 C476 1.404 . S
C477 H489 0.930 . S
C478 C474 1.524 . S
C478 H490 0.956 . S
C478 H491 0.961 . S
C478 H492 0.961 . S
C479 C476 1.539 . S
C479 H493 0.958 . S
C479 H494 0.961 . S
C479 H495 0.960 . S
H480 C464 0.931 . S
H481 C469 0.929 . S
H482 C470 0.960 . S
H483 C470 0.962 . S
H484 C470 0.960 . S
H485 C471 0.961 . S
H486 C471 0.961 . S
H487 C471 0.961 . S
H488 C472 0.931 . S
H489 C477 0.930 . S
H490 C478 0.956 . S
H491 C478 0.961 . S
H492 C478 0.961 . S
H493 C479 0.958 . S
H494 C479 0.961 . S
H495 C479 0.960 . S
C496 C497 1.391 . S
C496 C498 1.394 . S
C496 H512 0.931 . S
C497 C496 1.391 . S
C497 C501 1.376 . S
C498 C496 1.394 . S
C498 C499 1.369 . S
C498 C502 1.531 . S
C499 C498 1.369 . S
C499 C500 1.410 . S
C499 C507 1.503 . S
C500 C499 1.410 . S
C500 C501 1.392 . S
C500 C503 1.511 . S
C501 C497 1.376 . S
C501 C500 1.392 . S
C501 H513 0.929 . S
C502 C498 1.531 . S
C502 H514 0.960 . S
C502 H515 0.962 . S
C502 H516 0.960 . S
C503 C500 1.511 . S
C503 H517 0.961 . S
C503 H518 0.961 . S
C503 H519 0.961 . S
C504 C505 1.370 . S
C504 C506 1.363 . S
C504 H520 0.931 . S
C505 C504 1.370 . S
C505 C509 1.408 . S
C506 C504 1.363 . S
C506 C507 1.370 . S
C506 C510 1.524 . S
C507 C499 1.503 . S
C507 C506 1.370 . S
C507 C508 1.403 . S
C508 C507 1.403 . S
C508 C509 1.404 . S
C508 C511 1.539 . S
C509 C505 1.408 . S
C509 C508 1.404 . S
C509 H521 0.930 . S
C510 C506 1.524 . S
C510 H522 0.956 . S
C510 H523 0.961 . S
C510 H524 0.961 . S
C511 C508 1.539 . S
C511 H525 0.958 . S
C511 H526 0.961 . S
C511 H527 0.960 . S
H512 C496 0.931 . S
H513 C501 0.929 . S
H514 C502 0.960 . S
H515 C502 0.962 . S
H516 C502 0.960 . S
H517 C503 0.961 . S
H518 C503 0.961 . S
H519 C503 0.961 . S
H520 C504 0.931 . S
H521 C509 0.930 . S
H522 C510 0.956 . S
H523 C510 0.961 . S
H524 C510 0.961 . S
H525 C511 0.958 . S
H526 C511 0.961 . S
H527 C511 0.960 . S
C528 C529 1.391 . S
C528 C530 1.394 . S
C528 H544 0.931 . S
C529 C528 1.391 . S
C529 C533 1.376 . S
C530 C528 1.394 . S
C530 C531 1.369 . S
C530 C534 1.531 . S
C531 C530 1.369 . S
C531 C532 1.410 . S
C531 C539 1.503 . S
C532 C531 1.410 . S
C532 C533 1.392 . S
C532 C535 1.511 . S
C533 C529 1.376 . S
C533 C532 1.392 . S
C533 H545 0.929 . S
C534 C530 1.531 . S
C534 H546 0.960 . S
C534 H547 0.962 . S
C534 H548 0.960 . S
C535 C532 1.511 . S
C535 H549 0.961 . S
C535 H550 0.961 . S
C535 H551 0.961 . S
C536 C537 1.370 . S
C536 C538 1.363 . S
C536 H552 0.931 . S
C537 C536 1.370 . S
C537 C541 1.408 . S
C538 C536 1.363 . S
C538 C539 1.370 . S
C538 C542 1.524 . S
C539 C531 1.503 . S
C539 C538 1.370 . S
C539 C540 1.403 . S
C540 C539 1.403 . S
C540 C541 1.404 . S
C540 C543 1.539 . S
C541 C537 1.408 . S
C541 C540 1.404 . S
C541 H553 0.930 . S
C542 C538 1.524 . S
C542 H554 0.956 . S
C542 H555 0.961 . S
C542 H556 0.961 . S
C543 C540 1.539 . S
C543 H557 0.958 . S
C543 H558 0.961 . S
C543 H559 0.960 . S
H544 C528 0.931 . S
H545 C533 0.929 . S
H546 C534 0.960 . S
H547 C534 0.962 . S
H548 C534 0.960 . S
H549 C535 0.961 . S
H550 C535 0.961 . S
H551 C535 0.961 . S
H552 C536 0.931 . S
H553 C541 0.930 . S
H554 C542 0.956 . S
H555 C542 0.961 . S
H556 C542 0.961 . S
H557 C543 0.958 . S
H558 C543 0.961 . S
H559 C543 0.960 . S
C560 C561 1.391 . S
C560 C562 1.394 . S
C560 H576 0.931 . S
C561 C560 1.391 . S
C561 C565 1.376 . S
C562 C560 1.394 . S
C562 C563 1.369 . S
C562 C566 1.531 . S
C563 C562 1.369 . S
C563 C564 1.410 . S
C563 C571 1.503 . S
C564 C563 1.410 . S
C564 C565 1.392 . S
C564 C567 1.511 . S
C565 C561 1.376 . S
C565 C564 1.392 . S
C565 H577 0.929 . S
C566 C562 1.531 . S
C566 H578 0.960 . S
C566 H579 0.962 . S
C566 H580 0.960 . S
C567 C564 1.511 . S
C567 H581 0.961 . S
C567 H582 0.961 . S
C567 H583 0.961 . S
C568 C569 1.370 . S
C568 C570 1.363 . S
C568 H584 0.931 . S
C569 C568 1.370 . S
C569 C573 1.408 . S
C570 C568 1.363 . S
C570 C571 1.370 . S
C570 C574 1.524 . S
C571 C563 1.503 . S
C571 C570 1.370 . S
C571 C572 1.403 . S
C572 C571 1.403 . S
C572 C573 1.404 . S
C572 C575 1.539 . S
C573 C569 1.408 . S
C573 C572 1.404 . S
C573 H585 0.930 . S
C574 C570 1.524 . S
C574 H586 0.956 . S
C574 H587 0.961 . S
C574 H588 0.961 . S
C575 C572 1.539 . S
C575 H589 0.958 . S
C575 H590 0.961 . S
C575 H591 0.960 . S
H576 C560 0.931 . S
H577 C565 0.929 . S
H578 C566 0.960 . S
H579 C566 0.962 . S
H580 C566 0.960 . S
H581 C567 0.961 . S
H582 C567 0.961 . S
H583 C567 0.961 . S
H584 C568 0.931 . S
H585 C573 0.930 . S
H586 C574 0.956 . S
H587 C574 0.961 . S
H588 C574 0.961 . S
H589 C575 0.958 . S
H590 C575 0.961 . S
H591 C575 0.960 . S
C592 C593 1.391 . S
C592 C594 1.394 . S
C592 H608 0.931 . S
C593 C592 1.391 . S
C593 C597 1.376 . S
C594 C592 1.394 . S
C594 C595 1.369 . S
C594 C598 1.531 . S
C595 C594 1.369 . S
C595 C596 1.410 . S
C595 C603 1.503 . S
C596 C595 1.410 . S
C596 C597 1.392 . S
C596 C599 1.511 . S
C597 C593 1.376 . S
C597 C596 1.392 . S
C597 H609 0.929 . S
C598 C594 1.531 . S
C598 H610 0.960 . S
C598 H611 0.962 . S
C598 H612 0.960 . S
C599 C596 1.511 . S
C599 H613 0.961 . S
C599 H614 0.961 . S
C599 H615 0.961 . S
C600 C601 1.370 . S
C600 C602 1.363 . S
C600 H616 0.931 . S
C601 C600 1.370 . S
C601 C605 1.408 . S
C602 C600 1.363 . S
C602 C603 1.370 . S
C602 C606 1.524 . S
C603 C595 1.503 . S
C603 C602 1.370 . S
C603 C604 1.403 . S
C604 C603 1.403 . S
C604 C605 1.404 . S
C604 C607 1.539 . S
C605 C601 1.408 . S
C605 C604 1.404 . S
C605 H617 0.930 . S
C606 C602 1.524 . S
C606 H618 0.956 . S
C606 H619 0.961 . S
C606 H620 0.961 . S
C607 C604 1.539 . S
C607 H621 0.958 . S
C607 H622 0.961 . S
C607 H623 0.960 . S
H608 C592 0.931 . S
H609 C597 0.929 . S
H610 C598 0.960 . S
H611 C598 0.962 . S
H612 C598 0.960 . S
H613 C599 0.961 . S
H614 C599 0.961 . S
H615 C599 0.961 . S
H616 C600 0.931 . S
H617 C605 0.930 . S
H618 C606 0.956 . S
H619 C606 0.961 . S
H620 C606 0.961 . S
H621 C607 0.958 . S
H622 C607 0.961 . S
H623 C607 0.960 . S
C624 C625 1.391 . S
C624 C626 1.394 . S
C624 H640 0.931 . S
C625 C624 1.391 . S
C625 C629 1.376 . S
C626 C624 1.394 . S
C626 C627 1.369 . S
C626 C630 1.531 . S
C627 C626 1.369 . S
C627 C628 1.410 . S
C627 C635 1.503 . S
C628 C627 1.410 . S
C628 C629 1.392 . S
C628 C631 1.511 . S
C629 C625 1.376 . S
C629 C628 1.392 . S
C629 H641 0.929 . S
C630 C626 1.531 . S
C630 H642 0.960 . S
C630 H643 0.962 . S
C630 H644 0.960 . S
C631 C628 1.511 . S
C631 H645 0.961 . S
C631 H646 0.961 . S
C631 H647 0.961 . S
C632 C633 1.370 . S
C632 C634 1.363 . S
C632 H648 0.931 . S
C633 C632 1.370 . S
C633 C637 1.408 . S
C634 C632 1.363 . S
C634 C635 1.370 . S
C634 C638 1.524 . S
C635 C627 1.503 . S
C635 C634 1.370 . S
C635 C636 1.403 . S
C636 C635 1.403 . S
C636 C637 1.404 . S
C636 C639 1.539 . S
C637 C633 1.408 . S
C637 C636 1.404 . S
C637 H649 0.930 . S
C638 C634 1.524 . S
C638 H650 0.956 . S
C638 H651 0.961 . S
C638 H652 0.961 . S
C639 C636 1.539 . S
C639 H653 0.958 . S
C639 H654 0.961 . S
C639 H655 0.960 . S
H640 C624 0.931 . S
H641 C629 0.929 . S
H642 C630 0.960 . S
H643 C630 0.962 . S
H644 C630 0.960 . S
H645 C631 0.961 . S
H646 C631 0.961 . S
H647 C631 0.961 . S
H648 C632 0.931 . S
H649 C637 0.930 . S
H650 C638 0.956 . S
H651 C638 0.961 . S
H652 C638 0.961 . S
H653 C639 0.958 . S
H654 C639 0.961 . S
H655 C639 0.960 . S
C656 C657 1.391 . S
C656 C658 1.394 . S
C656 H672 0.931 . S
C657 C656 1.391 . S
C657 C661 1.376 . S
C658 C656 1.394 . S
C658 C659 1.369 . S
C658 C662 1.531 . S
C659 C658 1.369 . S
C659 C660 1.410 . S
C659 C667 1.503 . S
C660 C659 1.410 . S
C660 C661 1.392 . S
C660 C663 1.511 . S
C661 C657 1.376 . S
C661 C660 1.392 . S
C661 H673 0.929 . S
C662 C658 1.531 . S
C662 H674 0.960 . S
C662 H675 0.962 . S
C662 H676 0.960 . S
C663 C660 1.511 . S
C663 H677 0.961 . S
C663 H678 0.961 . S
C663 H679 0.961 . S
C664 C665 1.370 . S
C664 C666 1.363 . S
C664 H680 0.931 . S
C665 C664 1.370 . S
C665 C669 1.408 . S
C666 C664 1.363 . S
C666 C667 1.370 . S
C666 C670 1.524 . S
C667 C659 1.503 . S
C667 C666 1.370 . S
C667 C668 1.403 . S
C668 C667 1.403 . S
C668 C669 1.404 . S
C668 C671 1.539 . S
C669 C665 1.408 . S
C669 C668 1.404 . S
C669 H681 0.930 . S
C670 C666 1.524 . S
C670 H682 0.956 . S
C670 H683 0.961 . S
C670 H684 0.961 . S
C671 C668 1.539 . S
C671 H685 0.958 . S
C671 H686 0.961 . S
C671 H687 0.960 . S
H672 C656 0.931 . S
H673 C661 0.929 . S
H674 C662 0.960 . S
H675 C662 0.962 . S
H676 C662 0.960 . S
H677 C663 0.961 . S
H678 C663 0.961 . S
H679 C663 0.961 . S
H680 C664 0.931 . S
H681 C669 0.930 . S
H682 C670 0.956 . S
H683 C670 0.961 . S
H684 C670 0.961 . S
H685 C671 0.958 . S
H686 C671 0.961 . S
H687 C671 0.960 . S
C688 C689 1.391 . S
C688 C690 1.394 . S
C688 H704 0.931 . S
C689 C688 1.391 . S
C689 C693 1.376 . S
C690 C688 1.394 . S
C690 C691 1.369 . S
C690 C694 1.531 . S
C691 C690 1.369 . S
C691 C692 1.410 . S
C691 C699 1.503 . S
C692 C691 1.410 . S
C692 C693 1.392 . S
C692 C695 1.511 . S
C693 C689 1.376 . S
C693 C692 1.392 . S
C693 H705 0.929 . S
C694 C690 1.531 . S
C694 H706 0.960 . S
C694 H707 0.962 . S
C694 H708 0.960 . S
C695 C692 1.511 . S
C695 H709 0.961 . S
C695 H710 0.961 . S
C695 H711 0.961 . S
C696 C697 1.370 . S
C696 C698 1.363 . S
C696 H712 0.931 . S
C697 C696 1.370 . S
C697 C701 1.408 . S
C698 C696 1.363 . S
C698 C699 1.370 . S
C698 C702 1.524 . S
C699 C691 1.503 . S
C699 C698 1.370 . S
C699 C700 1.403 . S
C700 C699 1.403 . S
C700 C701 1.404 . S
C700 C703 1.539 . S
C701 C697 1.408 . S
C701 C700 1.404 . S
C701 H713 0.930 . S
C702 C698 1.524 . S
C702 H714 0.956 . S
C702 H715 0.961 . S
C702 H716 0.961 . S
C703 C700 1.539 . S
C703 H717 0.958 . S
C703 H718 0.961 . S
C703 H719 0.960 . S
H704 C688 0.931 . S
H705 C693 0.929 . S
H706 C694 0.960 . S
H707 C694 0.962 . S
H708 C694 0.960 . S
H709 C695 0.961 . S
H710 C695 0.961 . S
H711 C695 0.961 . S
H712 C696 0.931 . S
H713 C701 0.930 . S
H714 C702 0.956 . S
H715 C702 0.961 . S
H716 C702 0.961 . S
H717 C703 0.958 . S
H718 C703 0.961 . S
H719 C703 0.960 . S
C720 C721 1.391 . S
C720 C722 1.394 . S
C720 H736 0.931 . S
C721 C720 1.391 . S
C721 C725 1.376 . S
C722 C720 1.394 . S
C722 C723 1.369 . S
C722 C726 1.531 1_554 S
C723 C722 1.369 . S
C723 C724 1.410 . S
C723 C731 1.503 1_554 S
C724 C723 1.410 . S
C724 C725 1.392 . S
C724 C727 1.511 . S
C725 C721 1.376 . S
C725 C724 1.392 . S
C725 H737 0.929 . S
C726 C722 1.531 1_556 S
C726 H738 0.960 . S
C726 H739 0.962 . S
C726 H740 0.960 . S
C727 C724 1.511 . S
C727 H741 0.961 . S
C727 H742 0.961 . S
C727 H743 0.961 . S
C728 C729 1.370 . S
C728 C730 1.363 1_556 S
C728 H744 0.931 . S
C729 C728 1.370 . S
C729 C733 1.408 . S
C730 C728 1.363 1_554 S
C730 C731 1.370 1_554 S
C730 C734 1.524 . S
C731 C723 1.503 1_556 S
C731 C730 1.370 1_556 S
C731 C732 1.403 . S
C732 C731 1.403 . S
C732 C733 1.404 . S
C732 C735 1.539 . S
C733 C729 1.408 . S
C733 C732 1.404 . S
C733 H745 0.930 . S
C734 C730 1.524 . S
C734 H746 0.956 . S
C734 H747 0.961 . S
C734 H748 0.961 . S
C735 C732 1.539 . S
C735 H749 0.958 . S
C735 H750 0.961 . S
C735 H751 0.960 . S
H736 C720 0.931 . S
H737 C725 0.929 . S
H738 C726 0.960 . S
H739 C726 0.962 . S
H740 C726 0.960 . S
H741 C727 0.961 . S
H742 C727 0.961 . S
H743 C727 0.961 . S
H744 C728 0.931 . S
H745 C733 0.930 . S
H746 C734 0.956 . S
H747 C734 0.961 . S
H748 C734 0.961 . S
H749 C735 0.958 . S
H750 C735 0.961 . S
H751 C735 0.960 . S
C752 C753 1.391 . S
C752 C754 1.394 . S
C752 H768 0.931 . S
C753 C752 1.391 . S
C753 C757 1.376 . S
C754 C752 1.394 . S
C754 C755 1.369 . S
C754 C758 1.531 . S
C755 C754 1.369 . S
C755 C756 1.410 . S
C755 C763 1.503 1_556 S
C756 C755 1.410 . S
C756 C757 1.392 . S
C756 C759 1.511 1_556 S
C757 C753 1.376 . S
C757 C756 1.392 . S
C757 H769 0.929 . S
C758 C754 1.531 . S
C758 H770 0.960 . S
C758 H771 0.962 . S
C758 H772 0.960 . S
C759 C756 1.511 1_554 S
C759 H773 0.961 . S
C759 H774 0.961 . S
C759 H775 0.961 . S
C760 C761 1.370 . S
C760 C762 1.363 . S
C760 H776 0.931 . S
C761 C760 1.370 . S
C761 C765 1.408 . S
C762 C760 1.363 . S
C762 C763 1.370 . S
C762 C766 1.524 . S
C763 C755 1.503 1_554 S
C763 C762 1.370 . S
C763 C764 1.403 . S
C764 C763 1.403 . S
C764 C765 1.404 . S
C764 C767 1.539 1_554 S
C765 C761 1.408 . S
C765 C764 1.404 . S
C765 H777 0.930 . S
C766 C762 1.524 . S
C766 H778 0.956 . S
C766 H779 0.961 . S
C766 H780 0.961 . S
C767 C764 1.539 1_556 S
C767 H781 0.958 . S
C767 H782 0.961 . S
C767 H783 0.960 . S
H768 C752 0.931 . S
H769 C757 0.929 . S
H770 C758 0.960 . S
H771 C758 0.962 . S
H772 C758 0.960 . S
H773 C759 0.961 . S
H774 C759 0.961 . S
H775 C759 0.961 . S
H776 C760 0.931 . S
H777 C765 0.930 . S
H778 C766 0.956 . S
H779 C766 0.961 . S
H780 C766 0.961 . S
H781 C767 0.958 . S
H782 C767 0.961 . S
H783 C767 0.960 . S
C784 C785 1.391 . S
C784 C786 1.394 . S
C784 H800 0.931 . S
C785 C784 1.391 . S
C785 C789 1.376 . S
C786 C784 1.394 . S
C786 C787 1.369 . S
C786 C790 1.531 1_554 S
C787 C786 1.369 . S
C787 C788 1.410 . S
C787 C795 1.503 1_554 S
C788 C787 1.410 . S
C788 C789 1.392 . S
C788 C791 1.511 . S
C789 C785 1.376 . S
C789 C788 1.392 . S
C789 H801 0.929 . S
C790 C786 1.531 1_556 S
C790 H802 0.960 . S
C790 H803 0.962 . S
C790 H804 0.960 . S
C791 C788 1.511 . S
C791 H805 0.961 . S
C791 H806 0.961 . S
C791 H807 0.961 . S
C792 C793 1.370 . S
C792 C794 1.363 1_556 S
C792 H808 0.931 . S
C793 C792 1.370 . S
C793 C797 1.408 . S
C794 C792 1.363 1_554 S
C794 C795 1.370 1_554 S
C794 C798 1.524 . S
C795 C787 1.503 1_556 S
C795 C794 1.370 1_556 S
C795 C796 1.403 . S
C796 C795 1.403 . S
C796 C797 1.404 . S
C796 C799 1.539 . S
C797 C793 1.408 . S
C797 C796 1.404 . S
C797 H809 0.930 . S
C798 C794 1.524 . S
C798 H810 0.956 . S
C798 H811 0.961 . S
C798 H812 0.961 . S
C799 C796 1.539 . S
C799 H813 0.958 . S
C799 H814 0.961 . S
C799 H815 0.960 . S
H800 C784 0.931 . S
H801 C789 0.929 . S
H802 C790 0.960 . S
H803 C790 0.962 . S
H804 C790 0.960 . S
H805 C791 0.961 . S
H806 C791 0.961 . S
H807 C791 0.961 . S
H808 C792 0.931 . S
H809 C797 0.930 . S
H810 C798 0.956 . S
H811 C798 0.961 . S
H812 C798 0.961 . S
H813 C799 0.958 . S
H814 C799 0.961 . S
H815 C799 0.960 . S
C816 C817 1.391 . S
C816 C818 1.394 1_556 S
C816 H832 0.931 . S
C817 C816 1.391 . S
C817 C821 1.376 . S
C818 C816 1.394 1_554 S
C818 C819 1.369 1_554 S
C818 C822 1.531 . S
C819 C818 1.369 1_556 S
C819 C820 1.410 . S
C819 C827 1.503 1_556 S
C820 C819 1.410 . S
C820 C821 1.392 . S
C820 C823 1.511 . S
C821 C817 1.376 . S
C821 C820 1.392 . S
C821 H833 0.929 . S
C822 C818 1.531 . S
C822 H834 0.960 . S
C822 H835 0.962 . S
C822 H836 0.960 . S
C823 C820 1.511 . S
C823 H837 0.961 . S
C823 H838 0.961 . S
C823 H839 0.961 . S
C824 C825 1.370 . S
C824 C826 1.363 . S
C824 H840 0.931 . S
C825 C824 1.370 . S
C825 C829 1.408 . S
C826 C824 1.363 . S
C826 C827 1.370 . S
C826 C830 1.524 . S
C827 C819 1.503 1_554 S
C827 C826 1.370 . S
C827 C828 1.403 . S
C828 C827 1.403 . S
C828 C829 1.404 . S
C828 C831 1.539 . S
C829 C825 1.408 . S
C829 C828 1.404 . S
C829 H841 0.930 . S
C830 C826 1.524 . S
C830 H842 0.956 . S
C830 H843 0.961 1_554 S
C830 H844 0.961 . S
C831 C828 1.539 . S
C831 H845 0.958 . S
C831 H846 0.961 . S
C831 H847 0.960 1_554 S
H832 C816 0.931 . S
H833 C821 0.929 . S
H834 C822 0.960 . S
H835 C822 0.962 . S
H836 C822 0.960 . S
H837 C823 0.961 . S
H838 C823 0.961 . S
H839 C823 0.961 . S
H840 C824 0.931 . S
H841 C829 0.930 . S
H842 C830 0.956 . S
H843 C830 0.961 1_556 S
H844 C830 0.961 . S
H845 C831 0.958 . S
H846 C831 0.961 . S
H847 C831 0.960 1_556 S
C848 C849 1.391 . S
C848 C850 1.394 . S
C848 H864 0.931 . S
C849 C848 1.391 . S
C849 C853 1.376 . S
C850 C848 1.394 . S
C850 C851 1.369 . S
C850 C854 1.531 . S
C851 C850 1.369 . S
C851 C852 1.410 . S
C851 C859 1.503 . S
C852 C851 1.410 . S
C852 C853 1.392 . S
C852 C855 1.511 . S
C853 C849 1.376 . S
C853 C852 1.392 . S
C853 H865 0.929 . S
C854 C850 1.531 . S
C854 H866 0.960 . S
C854 H867 0.962 . S
C854 H868 0.960 . S
C855 C852 1.511 . S
C855 H869 0.961 . S
C855 H870 0.961 . S
C855 H871 0.961 . S
C856 C857 1.370 . S
C856 C858 1.363 . S
C856 H872 0.931 . S
C857 C856 1.370 . S
C857 C861 1.408 . S
C858 C856 1.363 . S
C858 C859 1.370 . S
C858 C862 1.524 . S
C859 C851 1.503 . S
C859 C858 1.370 . S
C859 C860 1.403 . S
C860 C859 1.403 . S
C860 C861 1.404 . S
C860 C863 1.539 . S
C861 C857 1.408 . S
C861 C860 1.404 . S
C861 H873 0.930 . S
C862 C858 1.524 . S
C862 H874 0.956 . S
C862 H875 0.961 . S
C862 H876 0.961 . S
C863 C860 1.539 . S
C863 H877 0.958 . S
C863 H878 0.961 . S
C863 H879 0.960 . S
H864 C848 0.931 . S
H865 C853 0.929 . S
H866 C854 0.960 . S
H867 C854 0.962 . S
H868 C854 0.960 . S
H869 C855 0.961 . S
H870 C855 0.961 . S
H871 C855 0.961 . S
H872 C856 0.931 . S
H873 C861 0.930 . S
H874 C862 0.956 . S
H875 C862 0.961 . S
H876 C862 0.961 . S
H877 C863 0.958 . S
H878 C863 0.961 . S
H879 C863 0.960 . S
C880 C881 1.391 . S
C880 C882 1.394 . S
C880 H896 0.931 . S
C881 C880 1.391 . S
C881 C885 1.376 . S
C882 C880 1.394 . S
C882 C883 1.369 . S
C882 C886 1.531 . S
C883 C882 1.369 . S
C883 C884 1.410 . S
C883 C891 1.503 . S
C884 C883 1.410 . S
C884 C885 1.392 . S
C884 C887 1.511 . S
C885 C881 1.376 . S
C885 C884 1.392 . S
C885 H897 0.929 . S
C886 C882 1.531 . S
C886 H898 0.960 . S
C886 H899 0.962 . S
C886 H900 0.960 . S
C887 C884 1.511 . S
C887 H901 0.961 . S
C887 H902 0.961 . S
C887 H903 0.961 . S
C888 C889 1.370 . S
C888 C890 1.363 . S
C888 H904 0.931 . S
C889 C888 1.370 . S
C889 C893 1.408 . S
C890 C888 1.363 . S
C890 C891 1.370 . S
C890 C894 1.524 . S
C891 C883 1.503 . S
C891 C890 1.370 . S
C891 C892 1.403 . S
C892 C891 1.403 . S
C892 C893 1.404 . S
C892 C895 1.539 . S
C893 C889 1.408 . S
C893 C892 1.404 . S
C893 H905 0.930 . S
C894 C890 1.524 . S
C894 H906 0.956 . S
C894 H907 0.961 . S
C894 H908 0.961 . S
C895 C892 1.539 . S
C895 H909 0.958 . S
C895 H910 0.961 . S
C895 H911 0.960 . S
H896 C880 0.931 . S
H897 C885 0.929 . S
H898 C886 0.960 . S
H899 C886 0.962 . S
H900 C886 0.960 . S
H901 C887 0.961 . S
H902 C887 0.961 . S
H903 C887 0.961 . S
H904 C888 0.931 . S
H905 C893 0.930 . S
H906 C894 0.956 . S
H907 C894 0.961 . S
H908 C894 0.961 . S
H909 C895 0.958 . S
H910 C895 0.961 . S
H911 C895 0.960 . S
C912 C913 1.391 . S
C912 C914 1.394 . S
C912 H928 0.931 . S
C913 C912 1.391 . S
C913 C917 1.376 . S
C914 C912 1.394 . S
C914 C915 1.369 . S
C914 C918 1.531 . S
C915 C914 1.369 . S
C915 C916 1.410 . S
C915 C923 1.503 . S
C916 C915 1.410 . S
C916 C917 1.392 . S
C916 C919 1.511 . S
C917 C913 1.376 . S
C917 C916 1.392 . S
C917 H929 0.929 . S
C918 C914 1.531 . S
C918 H930 0.960 . S
C918 H931 0.962 . S
C918 H932 0.960 . S
C919 C916 1.511 . S
C919 H933 0.961 . S
C919 H934 0.961 . S
C919 H935 0.961 . S
C920 C921 1.370 . S
C920 C922 1.363 . S
C920 H936 0.931 . S
C921 C920 1.370 . S
C921 C925 1.408 . S
C922 C920 1.363 . S
C922 C923 1.370 . S
C922 C926 1.524 . S
C923 C915 1.503 . S
C923 C922 1.370 . S
C923 C924 1.403 . S
C924 C923 1.403 . S
C924 C925 1.404 . S
C924 C927 1.539 . S
C925 C921 1.408 . S
C925 C924 1.404 . S
C925 H937 0.930 . S
C926 C922 1.524 . S
C926 H938 0.956 . S
C926 H939 0.961 . S
C926 H940 0.961 . S
C927 C924 1.539 . S
C927 H941 0.958 . S
C927 H942 0.961 . S
C927 H943 0.960 . S
H928 C912 0.931 . S
H929 C917 0.929 . S
H930 C918 0.960 . S
H931 C918 0.962 . S
H932 C918 0.960 . S
H933 C919 0.961 . S
H934 C919 0.961 . S
H935 C919 0.961 . S
H936 C920 0.931 . S
H937 C925 0.930 . S
H938 C926 0.956 . S
H939 C926 0.961 . S
H940 C926 0.961 . S
H941 C927 0.958 . S
H942 C927 0.961 . S
H943 C927 0.960 . S
C944 C945 1.391 . S
C944 C946 1.394 . S
C944 H960 0.931 . S
C945 C944 1.391 . S
C945 C949 1.376 . S
C946 C944 1.394 . S
C946 C947 1.369 . S
C946 C950 1.531 . S
C947 C946 1.369 . S
C947 C948 1.410 . S
C947 C955 1.503 . S
C948 C947 1.410 . S
C948 C949 1.392 . S
C948 C951 1.511 . S
C949 C945 1.376 . S
C949 C948 1.392 . S
C949 H961 0.929 . S
C950 C946 1.531 . S
C950 H962 0.960 . S
C950 H963 0.962 . S
C950 H964 0.960 . S
C951 C948 1.511 . S
C951 H965 0.961 . S
C951 H966 0.961 . S
C951 H967 0.961 . S
C952 C953 1.370 . S
C952 C954 1.363 . S
C952 H968 0.931 . S
C953 C952 1.370 . S
C953 C957 1.408 . S
C954 C952 1.363 . S
C954 C955 1.370 . S
C954 C958 1.524 . S
C955 C947 1.503 . S
C955 C954 1.370 . S
C955 C956 1.403 . S
C956 C955 1.403 . S
C956 C957 1.404 . S
C956 C959 1.539 . S
C957 C953 1.408 . S
C957 C956 1.404 . S
C957 H969 0.930 . S
C958 C954 1.524 . S
C958 H970 0.956 . S
C958 H971 0.961 . S
C958 H972 0.961 . S
C959 C956 1.539 . S
C959 H973 0.958 . S
C959 H974 0.961 . S
C959 H975 0.960 . S
H960 C944 0.931 . S
H961 C949 0.929 . S
H962 C950 0.960 . S
H963 C950 0.962 . S
H964 C950 0.960 . S
H965 C951 0.961 . S
H966 C951 0.961 . S
H967 C951 0.961 . S
H968 C952 0.931 . S
H969 C957 0.930 . S
H970 C958 0.956 . S
H971 C958 0.961 . S
H972 C958 0.961 . S
H973 C959 0.958 . S
H974 C959 0.961 . S
H975 C959 0.960 . S
C976 C977 1.391 . S
C976 C978 1.394 . S
C976 H992 0.931 . S
C977 C976 1.391 . S
C977 C981 1.376 . S
C978 C976 1.394 . S
C978 C979 1.369 . S
C978 C982 1.531 . S
C979 C978 1.369 . S
C979 C980 1.410 . S
C979 C987 1.503 1_556 S
C980 C979 1.410 . S
C980 C981 1.392 . S
C980 C983 1.511 1_556 S
C981 C977 1.376 . S
C981 C980 1.392 . S
C981 H993 0.929 . S
C982 C978 1.531 . S
C982 H994 0.960 . S
C982 H995 0.962 . S
C982 H996 0.960 . S
C983 C980 1.511 1_554 S
C983 H997 0.961 . S
C983 H998 0.961 . S
C983 H999 0.961 1_554 S
C984 C985 1.370 . S
C984 C986 1.363 . S
C984 H1000 0.931 . S
C985 C984 1.370 . S
C985 C989 1.408 . S
C986 C984 1.363 . S
C986 C987 1.370 . S
C986 C990 1.524 . S
C987 C979 1.503 1_554 S
C987 C986 1.370 . S
C987 C988 1.403 1_554 S
C988 C987 1.403 1_556 S
C988 C989 1.404 1_556 S
C988 C991 1.539 . S
C989 C985 1.408 . S
C989 C988 1.404 1_554 S
C989 H1001 0.930 . S
C990 C986 1.524 . S
C990 H1002 0.956 . S
C990 H1003 0.961 . S
C990 H1004 0.961 . S
C991 C988 1.539 . S
C991 H1005 0.958 . S
C991 H1006 0.961 . S
C991 H1007 0.960 . S
H992 C976 0.931 . S
H993 C981 0.929 . S
H994 C982 0.960 . S
H995 C982 0.962 . S
H996 C982 0.960 . S
H997 C983 0.961 . S
H998 C983 0.961 . S
H999 C983 0.961 1_556 S
H1000 C984 0.931 . S
H1001 C989 0.930 . S
H1002 C990 0.956 . S
H1003 C990 0.961 . S
H1004 C990 0.961 . S
H1005 C991 0.958 . S
H1006 C991 0.961 . S
H1007 C991 0.960 . S
C1008 C1009 1.391 . S
C1008 C1010 1.394 1_554 S
C1008 H1024 0.931 . S
C1009 C1008 1.391 . S
C1009 C1013 1.376 . S
C1010 C1008 1.394 1_556 S
C1010 C1011 1.369 1_556 S
C1010 C1014 1.531 . S
C1011 C1010 1.369 1_554 S
C1011 C1012 1.410 . S
C1011 C1019 1.503 1_554 S
C1012 C1011 1.410 . S
C1012 C1013 1.392 . S
C1012 C1015 1.511 . S
C1013 C1009 1.376 . S
C1013 C1012 1.392 . S
C1013 H1025 0.929 . S
C1014 C1010 1.531 . S
C1014 H1026 0.960 . S
C1014 H1027 0.962 . S
C1014 H1028 0.960 . S
C1015 C1012 1.511 . S
C1015 H1029 0.961 . S
C1015 H1030 0.961 . S
C1015 H1031 0.961 . S
C1016 C1017 1.370 . S
C1016 C1018 1.363 . S
C1016 H1032 0.931 . S
C1017 C1016 1.370 . S
C1017 C1021 1.408 . S
C1018 C1016 1.363 . S
C1018 C1019 1.370 . S
C1018 C1022 1.524 . S
C1019 C1011 1.503 1_556 S
C1019 C1018 1.370 . S
C1019 C1020 1.403 . S
C1020 C1019 1.403 . S
C1020 C1021 1.404 . S
C1020 C1023 1.539 . S
C1021 C1017 1.408 . S
C1021 C1020 1.404 . S
C1021 H1033 0.930 . S
C1022 C1018 1.524 . S
C1022 H1034 0.956 . S
C1022 H1035 0.961 1_556 S
C1022 H1036 0.961 . S
C1023 C1020 1.539 . S
C1023 H1037 0.958 . S
C1023 H1038 0.961 . S
C1023 H1039 0.960 1_556 S
H1024 C1008 0.931 . S
H1025 C1013 0.929 . S
H1026 C1014 0.960 . S
H1027 C1014 0.962 . S
H1028 C1014 0.960 . S
H1029 C1015 0.961 . S
H1030 C1015 0.961 . S
H1031 C1015 0.961 . S
H1032 C1016 0.931 . S
H1033 C1021 0.930 . S
H1034 C1022 0.956 . S
H1035 C1022 0.961 1_554 S
H1036 C1022 0.961 . S
H1037 C1023 0.958 . S
H1038 C1023 0.961 . S
H1039 C1023 0.960 1_554 S
C1040 C1041 1.391 . S
C1040 C1042 1.394 . S
C1040 H1056 0.931 . S
C1041 C1040 1.391 . S
C1041 C1045 1.376 . S
C1042 C1040 1.394 . S
C1042 C1043 1.369 . S
C1042 C1046 1.531 . S
C1043 C1042 1.369 . S
C1043 C1044 1.410 . S
C1043 C1051 1.503 1_556 S
C1044 C1043 1.410 . S
C1044 C1045 1.392 . S
C1044 C1047 1.511 . S
C1045 C1041 1.376 . S
C1045 C1044 1.392 . S
C1045 H1057 0.929 . S
C1046 C1042 1.531 . S
C1046 H1058 0.960 1_556 S
C1046 H1059 0.962 . S
C1046 H1060 0.960 . S
C1047 C1044 1.511 . S
C1047 H1061 0.961 . S
C1047 H1062 0.961 . S
C1047 H1063 0.970 . S
C1048 C1049 1.370 . S
C1048 C1050 1.363 1_554 S
C1048 H1064 0.931 . S
C1049 C1048 1.370 . S
C1049 C1053 1.408 . S
C1050 C1048 1.363 1_556 S
C1050 C1051 1.370 1_556 S
C1050 C1054 1.524 . S
C1051 C1043 1.503 1_554 S
C1051 C1050 1.370 1_554 S
C1051 C1052 1.403 . S
C1052 C1051 1.403 . S
C1052 C1053 1.404 . S
C1052 C1055 1.539 . S
C1053 C1049 1.408 . S
C1053 C1052 1.404 . S
C1053 H1065 0.930 . S
C1054 C1050 1.524 . S
C1054 H1066 0.956 . S
C1054 H1067 0.961 . S
C1054 H1068 0.961 . S
C1055 C1052 1.539 . S
C1055 H1069 0.958 . S
C1055 H1070 0.961 . S
C1055 H1071 0.960 . S
H1056 C1040 0.931 . S
H1057 C1045 0.929 . S
H1058 C1046 0.960 1_554 S
H1059 C1046 0.962 . S
H1060 C1046 0.960 . S
H1061 C1047 0.961 . S
H1062 C1047 0.961 . S
H1063 C1047 0.970 . S
H1064 C1048 0.931 . S
H1065 C1053 0.930 . S
H1066 C1054 0.956 . S
H1067 C1054 0.961 . S
H1068 C1054 0.961 . S
H1069 C1055 0.958 . S
H1070 C1055 0.961 . S
H1071 C1055 0.960 . S
C1072 C1073 1.391 . S
C1072 C1074 1.394 . S
C1072 H1088 0.931 . S
C1073 C1072 1.391 . S
C1073 C1077 1.376 . S
C1074 C1072 1.394 . S
C1074 C1075 1.380 . S
C1074 C1078 1.531 . S
C1075 C1074 1.380 . S
C1075 C1076 1.409 1_554 S
C1075 C1083 1.494 1_554 S
C1076 C1075 1.409 1_556 S
C1076 C1077 1.392 1_556 S
C1076 C1079 1.511 . S
C1077 C1073 1.376 . S
C1077 C1076 1.392 1_554 S
C1077 H1089 0.929 . S
C1078 C1074 1.531 . S
C1078 H1090 0.960 . S
C1078 H1091 0.962 . S
C1078 H1092 0.960 . S
C1079 C1076 1.511 . S
C1079 H1093 0.961 . S
C1079 H1094 0.961 . S
C1079 H1095 0.961 . S
C1080 C1081 1.370 . S
C1080 C1082 1.363 . S
C1080 H1096 0.931 . S
C1081 C1080 1.370 . S
C1081 C1085 1.408 . S
C1082 C1080 1.363 . S
C1082 C1083 1.370 . S
C1082 C1086 1.524 1_556 S
C1083 C1075 1.494 1_556 S
C1083 C1082 1.370 . S
C1083 C1084 1.403 . S
C1084 C1083 1.403 . S
C1084 C1085 1.404 . S
C1084 C1087 1.539 . S
C1085 C1081 1.408 . S
C1085 C1084 1.404 . S
C1085 H1097 0.930 . S
C1086 C1082 1.524 1_554 S
C1086 H1098 0.956 . S
C1086 H1099 0.961 . S
C1086 H1100 0.961 . S
C1087 C1084 1.539 . S
C1087 H1101 0.958 . S
C1087 H1102 0.961 . S
C1087 H1103 0.960 . S
H1088 C1072 0.931 . S
H1089 C1077 0.929 . S
H1090 C1078 0.960 . S
H1091 C1078 0.962 . S
H1092 C1078 0.960 . S
H1093 C1079 0.961 . S
H1094 C1079 0.961 . S
H1095 C1079 0.961 . S
H1096 C1080 0.931 . S
H1097 C1085 0.930 . S
H1098 C1086 0.956 . S
H1099 C1086 0.961 . S
H1100 C1086 0.961 . S
H1101 C1087 0.958 . S
H1102 C1087 0.961 . S
H1103 C1087 0.960 . S
C1104 C1105 1.391 . S
C1104 C1106 1.394 . S
C1104 H1120 0.931 . S
C1105 C1104 1.391 . S
C1105 C1109 1.376 . S
C1106 C1104 1.394 . S
C1106 C1107 1.369 . S
C1106 C1110 1.531 . S
C1107 C1106 1.369 . S
C1107 C1108 1.410 . S
C1107 C1115 1.503 . S
C1108 C1107 1.410 . S
C1108 C1109 1.392 . S
C1108 C1111 1.511 . S
C1109 C1105 1.376 . S
C1109 C1108 1.392 . S
C1109 H1121 0.929 . S
C1110 C1106 1.531 . S
C1110 H1122 0.960 . S
C1110 H1123 0.962 . S
C1110 H1124 0.960 . S
C1111 C1108 1.511 . S
C1111 H1125 0.961 . S
C1111 H1126 0.961 . S
C1111 H1127 0.961 . S
C1112 C1113 1.370 . S
C1112 C1114 1.363 . S
C1112 H1128 0.931 . S
C1113 C1112 1.370 . S
C1113 C1117 1.408 . S
C1114 C1112 1.363 . S
C1114 C1115 1.370 . S
C1114 C1118 1.524 . S
C1115 C1107 1.503 . S
C1115 C1114 1.370 . S
C1115 C1116 1.403 . S
C1116 C1115 1.403 . S
C1116 C1117 1.404 . S
C1116 C1119 1.539 . S
C1117 C1113 1.408 . S
C1117 C1116 1.404 . S
C1117 H1129 0.930 . S
C1118 C1114 1.524 . S
C1118 H1130 0.956 . S
C1118 H1131 0.961 . S
C1118 H1132 0.961 . S
C1119 C1116 1.539 . S
C1119 H1133 0.958 . S
C1119 H1134 0.961 . S
C1119 H1135 0.960 . S
H1120 C1104 0.931 . S
H1121 C1109 0.929 . S
H1122 C1110 0.960 . S
H1123 C1110 0.962 . S
H1124 C1110 0.960 . S
H1125 C1111 0.961 . S
H1126 C1111 0.961 . S
H1127 C1111 0.961 . S
H1128 C1112 0.931 . S
H1129 C1117 0.930 . S
H1130 C1118 0.956 . S
H1131 C1118 0.961 . S
H1132 C1118 0.961 . S
H1133 C1119 0.958 . S
H1134 C1119 0.961 . S
H1135 C1119 0.960 . S
C1136 C1137 1.391 . S
C1136 C1138 1.394 . S
C1136 H1152 0.931 . S
C1137 C1136 1.391 . S
C1137 C1141 1.376 . S
C1138 C1136 1.394 . S
C1138 C1139 1.369 . S
C1138 C1142 1.531 . S
C1139 C1138 1.369 . S
C1139 C1140 1.410 . S
C1139 C1147 1.503 . S
C1140 C1139 1.410 . S
C1140 C1141 1.392 . S
C1140 C1143 1.511 . S
C1141 C1137 1.376 . S
C1141 C1140 1.392 . S
C1141 H1153 0.929 . S
C1142 C1138 1.531 . S
C1142 H1154 0.960 . S
C1142 H1155 0.962 . S
C1142 H1156 0.960 . S
C1143 C1140 1.511 . S
C1143 H1157 0.961 . S
C1143 H1158 0.961 . S
C1143 H1159 0.961 . S
C1144 C1145 1.370 . S
C1144 C1146 1.363 . S
C1144 H1160 0.931 . S
C1145 C1144 1.370 . S
C1145 C1149 1.408 . S
C1146 C1144 1.363 . S
C1146 C1147 1.370 . S
C1146 C1150 1.524 . S
C1147 C1139 1.503 . S
C1147 C1146 1.370 . S
C1147 C1148 1.403 . S
C1148 C1147 1.403 . S
C1148 C1149 1.404 . S
C1148 C1151 1.539 . S
C1149 C1145 1.408 . S
C1149 C1148 1.404 . S
C1149 H1161 0.930 . S
C1150 C1146 1.524 . S
C1150 H1162 0.956 . S
C1150 H1163 0.961 . S
C1150 H1164 0.961 . S
C1151 C1148 1.539 . S
C1151 H1165 0.958 . S
C1151 H1166 0.961 . S
C1151 H1167 0.960 . S
H1152 C1136 0.931 . S
H1153 C1141 0.929 . S
H1154 C1142 0.960 . S
H1155 C1142 0.962 . S
H1156 C1142 0.960 . S
H1157 C1143 0.961 . S
H1158 C1143 0.961 . S
H1159 C1143 0.961 . S
H1160 C1144 0.931 . S
H1161 C1149 0.930 . S
H1162 C1150 0.956 . S
H1163 C1150 0.961 . S
H1164 C1150 0.961 . S
H1165 C1151 0.958 . S
H1166 C1151 0.961 . S
H1167 C1151 0.960 . S
C1168 C1169 1.391 . S
C1168 C1170 1.394 . S
C1168 H1184 0.931 . S
C1169 C1168 1.391 . S
C1169 C1173 1.376 . S
C1170 C1168 1.394 . S
C1170 C1171 1.369 . S
C1170 C1174 1.531 . S
C1171 C1170 1.369 . S
C1171 C1172 1.410 . S
C1171 C1179 1.503 . S
C1172 C1171 1.410 . S
C1172 C1173 1.392 . S
C1172 C1175 1.511 . S
C1173 C1169 1.376 . S
C1173 C1172 1.392 . S
C1173 H1185 0.929 . S
C1174 C1170 1.531 . S
C1174 H1186 0.960 . S
C1174 H1187 0.962 . S
C1174 H1188 0.960 . S
C1175 C1172 1.511 . S
C1175 H1189 0.961 . S
C1175 H1190 0.961 . S
C1175 H1191 0.961 . S
C1176 C1177 1.370 . S
C1176 C1178 1.363 . S
C1176 H1192 0.931 . S
C1177 C1176 1.370 . S
C1177 C1181 1.408 . S
C1178 C1176 1.363 . S
C1178 C1179 1.370 . S
C1178 C1182 1.524 . S
C1179 C1171 1.503 . S
C1179 C1178 1.370 . S
C1179 C1180 1.403 . S
C1180 C1179 1.403 . S
C1180 C1181 1.404 . S
C1180 C1183 1.539 . S
C1181 C1177 1.408 . S
C1181 C1180 1.404 . S
C1181 H1193 0.930 . S
C1182 C1178 1.524 . S
C1182 H1194 0.956 . S
C1182 H1195 0.961 . S
C1182 H1196 0.961 . S
C1183 C1180 1.539 . S
C1183 H1197 0.958 . S
C1183 H1198 0.961 . S
C1183 H1199 0.960 . S
H1184 C1168 0.931 . S
H1185 C1173 0.929 . S
H1186 C1174 0.960 . S
H1187 C1174 0.962 . S
H1188 C1174 0.960 . S
H1189 C1175 0.961 . S
H1190 C1175 0.961 . S
H1191 C1175 0.961 . S
H1192 C1176 0.931 . S
H1193 C1181 0.930 . S
H1194 C1182 0.956 . S
H1195 C1182 0.961 . S
H1196 C1182 0.961 . S
H1197 C1183 0.958 . S
H1198 C1183 0.961 . S
H1199 C1183 0.960 . S
C1200 C1201 1.391 . S
C1200 C1202 1.394 . S
C1200 H1216 0.931 . S
C1201 C1200 1.391 . S
C1201 C1205 1.376 . S
C1202 C1200 1.394 . S
C1202 C1203 1.369 . S
C1202 C1206 1.531 . S
C1203 C1202 1.369 . S
C1203 C1204 1.410 . S
C1203 C1211 1.503 . S
C1204 C1203 1.410 . S
C1204 C1205 1.392 . S
C1204 C1207 1.511 . S
C1205 C1201 1.376 . S
C1205 C1204 1.392 . S
C1205 H1217 0.929 . S
C1206 C1202 1.531 . S
C1206 H1218 0.960 . S
C1206 H1219 0.962 . S
C1206 H1220 0.960 . S
C1207 C1204 1.511 . S
C1207 H1221 0.961 . S
C1207 H1222 0.961 . S
C1207 H1223 0.961 . S
C1208 C1209 1.370 . S
C1208 C1210 1.363 . S
C1208 H1224 0.931 . S
C1209 C1208 1.370 . S
C1209 C1213 1.408 . S
C1210 C1208 1.363 . S
C1210 C1211 1.370 . S
C1210 C1214 1.524 . S
C1211 C1203 1.503 . S
C1211 C1210 1.370 . S
C1211 C1212 1.403 . S
C1212 C1211 1.403 . S
C1212 C1213 1.404 . S
C1212 C1215 1.539 . S
C1213 C1209 1.408 . S
C1213 C1212 1.404 . S
C1213 H1225 0.930 . S
C1214 C1210 1.524 . S
C1214 H1226 0.956 . S
C1214 H1227 0.961 . S
C1214 H1228 0.961 . S
C1215 C1212 1.539 . S
C1215 H1229 0.958 . S
C1215 H1230 0.961 . S
C1215 H1231 0.960 . S
H1216 C1200 0.931 . S
H1217 C1205 0.929 . S
H1218 C1206 0.960 . S
H1219 C1206 0.962 . S
H1220 C1206 0.960 . S
H1221 C1207 0.961 . S
H1222 C1207 0.961 . S
H1223 C1207 0.961 . S
H1224 C1208 0.931 . S
H1225 C1213 0.930 . S
H1226 C1214 0.956 . S
H1227 C1214 0.961 . S
H1228 C1214 0.961 . S
H1229 C1215 0.958 . S
H1230 C1215 0.961 . S
H1231 C1215 0.960 . S
C1232 C1233 1.391 . S
C1232 C1234 1.394 . S
C1232 H1248 0.931 . S
C1233 C1232 1.391 . S
C1233 C1237 1.376 . S
C1234 C1232 1.394 . S
C1234 C1235 1.369 . S
C1234 C1238 1.531 . S
C1235 C1234 1.369 . S
C1235 C1236 1.410 . S
C1235 C1243 1.503 . S
C1236 C1235 1.410 . S
C1236 C1237 1.392 . S
C1236 C1239 1.511 . S
C1237 C1233 1.376 . S
C1237 C1236 1.392 . S
C1237 H1249 0.929 . S
C1238 C1234 1.531 . S
C1238 H1250 0.960 . S
C1238 H1251 0.962 . S
C1238 H1252 0.960 . S
C1239 C1236 1.511 . S
C1239 H1253 0.961 . S
C1239 H1254 0.961 . S
C1239 H1255 0.961 . S
C1240 C1241 1.370 . S
C1240 C1242 1.363 . S
C1240 H1256 0.931 . S
C1241 C1240 1.370 . S
C1241 C1245 1.408 . S
C1242 C1240 1.363 . S
C1242 C1243 1.370 . S
C1242 C1246 1.524 . S
C1243 C1235 1.503 . S
C1243 C1242 1.370 . S
C1243 C1244 1.403 . S
C1244 C1243 1.403 . S
C1244 C1245 1.404 . S
C1244 C1247 1.539 1_545 S
C1245 C1241 1.408 . S
C1245 C1244 1.404 . S
C1245 H1257 0.930 . S
C1246 C1242 1.524 . S
C1246 H1258 0.956 . S
C1246 H1259 0.961 . S
C1246 H1260 0.961 . S
C1247 C1244 1.539 1_565 S
C1247 H1261 0.958 . S
C1247 H1262 0.961 . S
C1247 H1263 0.960 . S
H1248 C1232 0.931 . S
H1249 C1237 0.929 . S
H1250 C1238 0.960 . S
H1251 C1238 0.962 . S
H1252 C1238 0.960 . S
H1253 C1239 0.961 . S
H1254 C1239 0.961 . S
H1255 C1239 0.961 . S
H1256 C1240 0.931 . S
H1257 C1245 0.930 . S
H1258 C1246 0.956 . S
H1259 C1246 0.961 . S
H1260 C1246 0.961 . S
H1261 C1247 0.958 . S
H1262 C1247 0.961 . S
H1263 C1247 0.960 . S
C1264 C1265 1.391 . S
C1264 C1266 1.394 . S
C1264 H1280 0.931 . S
C1265 C1264 1.391 . S
C1265 C1269 1.376 . S
C1266 C1264 1.394 . S
C1266 C1267 1.369 . S
C1266 C1270 1.531 . S
C1267 C1266 1.369 . S
C1267 C1268 1.410 . S
C1267 C1275 1.503 . S
C1268 C1267 1.410 . S
C1268 C1269 1.392 . S
C1268 C1271 1.511 . S
C1269 C1265 1.376 . S
C1269 C1268 1.392 . S
C1269 H1281 0.929 . S
C1270 C1266 1.531 . S
C1270 H1282 0.960 . S
C1270 H1283 0.962 . S
C1270 H1284 0.960 . S
C1271 C1268 1.511 . S
C1271 H1285 0.961 . S
C1271 H1286 0.961 . S
C1271 H1287 0.961 . S
C1272 C1273 1.370 . S
C1272 C1274 1.363 . S
C1272 H1288 0.931 . S
C1273 C1272 1.370 . S
C1273 C1277 1.408 . S
C1274 C1272 1.363 . S
C1274 C1275 1.370 . S
C1274 C1278 1.524 . S
C1275 C1267 1.503 . S
C1275 C1274 1.370 . S
C1275 C1276 1.403 . S
C1276 C1275 1.403 . S
C1276 C1277 1.404 . S
C1276 C1279 1.539 . S
C1277 C1273 1.408 . S
C1277 C1276 1.404 . S
C1277 H1289 0.930 . S
C1278 C1274 1.524 . S
C1278 H1290 0.956 . S
C1278 H1291 0.961 . S
C1278 H1292 0.961 . S
C1279 C1276 1.539 . S
C1279 H1293 0.958 . S
C1279 H1294 0.961 . S
C1279 H1295 0.960 . S
H1280 C1264 0.931 . S
H1281 C1269 0.929 . S
H1282 C1270 0.960 . S
H1283 C1270 0.962 . S
H1284 C1270 0.960 . S
H1285 C1271 0.961 . S
H1286 C1271 0.961 . S
H1287 C1271 0.961 . S
H1288 C1272 0.931 . S
H1289 C1277 0.930 . S
H1290 C1278 0.956 . S
H1291 C1278 0.961 . S
H1292 C1278 0.961 . S
H1293 C1279 0.958 . S
H1294 C1279 0.961 . S
H1295 C1279 0.960 . S
C1296 C1297 1.391 . S
C1296 C1298 1.394 . S
C1296 H1312 0.931 . S
C1297 C1296 1.391 . S
C1297 C1301 1.376 . S
C1298 C1296 1.394 . S
C1298 C1299 1.369 . S
C1298 C1302 1.531 . S
C1299 C1298 1.369 . S
C1299 C1300 1.410 . S
C1299 C1307 1.503 . S
C1300 C1299 1.410 . S
C1300 C1301 1.392 . S
C1300 C1303 1.511 . S
C1301 C1297 1.376 . S
C1301 C1300 1.392 . S
C1301 H1313 0.929 . S
C1302 C1298 1.531 . S
C1302 H1314 0.960 . S
C1302 H1315 0.962 . S
C1302 H1316 0.960 . S
C1303 C1300 1.511 . S
C1303 H1317 0.961 . S
C1303 H1318 0.961 . S
C1303 H1319 0.961 . S
C1304 C1305 1.370 . S
C1304 C1306 1.363 . S
C1304 H1320 0.931 . S
C1305 C1304 1.370 . S
C1305 C1309 1.408 . S
C1306 C1304 1.363 . S
C1306 C1307 1.370 . S
C1306 C1310 1.524 . S
C1307 C1299 1.503 . S
C1307 C1306 1.370 . S
C1307 C1308 1.403 . S
C1308 C1307 1.403 . S
C1308 C1309 1.404 . S
C1308 C1311 1.539 . S
C1309 C1305 1.408 . S
C1309 C1308 1.404 . S
C1309 H1321 0.930 . S
C1310 C1306 1.524 . S
C1310 H1322 0.956 . S
C1310 H1323 0.961 . S
C1310 H1324 0.961 . S
C1311 C1308 1.539 . S
C1311 H1325 0.958 . S
C1311 H1326 0.961 . S
C1311 H1327 0.960 . S
H1312 C1296 0.931 . S
H1313 C1301 0.929 . S
H1314 C1302 0.960 . S
H1315 C1302 0.962 . S
H1316 C1302 0.960 . S
H1317 C1303 0.961 . S
H1318 C1303 0.961 . S
H1319 C1303 0.961 . S
H1320 C1304 0.931 . S
H1321 C1309 0.930 . S
H1322 C1310 0.956 . S
H1323 C1310 0.961 . S
H1324 C1310 0.961 . S
H1325 C1311 0.958 . S
H1326 C1311 0.961 . S
H1327 C1311 0.960 . S
C1328 C1329 1.391 . S
C1328 C1330 1.394 . S
C1328 H1344 0.931 . S
C1329 C1328 1.391 . S
C1329 C1333 1.376 . S
C1330 C1328 1.394 . S
C1330 C1331 1.369 . S
C1330 C1334 1.531 . S
C1331 C1330 1.369 . S
C1331 C1332 1.410 . S
C1331 C1339 1.503 . S
C1332 C1331 1.410 . S
C1332 C1333 1.392 . S
C1332 C1335 1.511 . S
C1333 C1329 1.376 . S
C1333 C1332 1.392 . S
C1333 H1345 0.929 . S
C1334 C1330 1.531 . S
C1334 H1346 0.960 . S
C1334 H1347 0.962 1_455 S
C1334 H1348 0.960 1_455 S
C1335 C1332 1.511 . S
C1335 H1349 0.961 . S
C1335 H1350 0.961 . S
C1335 H1351 0.961 . S
C1336 C1337 1.370 . S
C1336 C1338 1.363 . S
C1336 H1352 0.931 . S
C1337 C1336 1.370 . S
C1337 C1341 1.408 . S
C1338 C1336 1.363 . S
C1338 C1339 1.370 . S
C1338 C1342 1.524 . S
C1339 C1331 1.503 . S
C1339 C1338 1.370 . S
C1339 C1340 1.403 . S
C1340 C1339 1.403 . S
C1340 C1341 1.404 . S
C1340 C1343 1.539 . S
C1341 C1337 1.408 . S
C1341 C1340 1.404 . S
C1341 H1353 0.930 . S
C1342 C1338 1.524 . S
C1342 H1354 0.956 . S
C1342 H1355 0.961 . S
C1342 H1356 0.961 . S
C1343 C1340 1.539 . S
C1343 H1357 0.958 . S
C1343 H1358 0.961 . S
C1343 H1359 0.960 . S
H1344 C1328 0.931 . S
H1345 C1333 0.929 . S
H1346 C1334 0.960 . S
H1347 C1334 0.962 1_655 S
H1348 C1334 0.960 1_655 S
H1349 C1335 0.961 . S
H1350 C1335 0.961 . S
H1351 C1335 0.961 . S
H1352 C1336 0.931 . S
H1353 C1341 0.930 . S
H1354 C1342 0.956 . S
H1355 C1342 0.961 . S
H1356 C1342 0.961 . S
H1357 C1343 0.958 . S
H1358 C1343 0.961 . S
H1359 C1343 0.960 . S
C1360 C1361 1.391 . S
C1360 C1362 1.394 . S
C1360 H1376 0.931 . S
C1361 C1360 1.391 . S
C1361 C1365 1.376 . S
C1362 C1360 1.394 . S
C1362 C1363 1.369 . S
C1362 C1366 1.531 . S
C1363 C1362 1.369 . S
C1363 C1364 1.410 . S
C1363 C1371 1.503 . S
C1364 C1363 1.410 . S
C1364 C1365 1.392 . S
C1364 C1367 1.511 . S
C1365 C1361 1.376 . S
C1365 C1364 1.392 . S
C1365 H1377 0.929 . S
C1366 C1362 1.531 . S
C1366 H1378 0.960 . S
C1366 H1379 0.962 . S
C1366 H1380 0.960 . S
C1367 C1364 1.511 . S
C1367 H1381 0.961 . S
C1367 H1382 0.961 . S
C1367 H1383 0.961 . S
C1368 C1369 1.370 . S
C1368 C1370 1.363 . S
C1368 H1384 0.931 . S
C1369 C1368 1.370 . S
C1369 C1373 1.408 . S
C1370 C1368 1.363 . S
C1370 C1371 1.370 . S
C1370 C1374 1.524 . S
C1371 C1363 1.503 . S
C1371 C1370 1.370 . S
C1371 C1372 1.403 . S
C1372 C1371 1.403 . S
C1372 C1373 1.404 . S
C1372 C1375 1.539 1_565 S
C1373 C1369 1.408 . S
C1373 C1372 1.404 . S
C1373 H1385 0.930 . S
C1374 C1370 1.524 . S
C1374 H1386 0.956 . S
C1374 H1387 0.961 . S
C1374 H1388 0.961 . S
C1375 C1372 1.539 1_545 S
C1375 H1389 0.958 . S
C1375 H1390 0.961 . S
C1375 H1391 0.960 . S
H1376 C1360 0.931 . S
H1377 C1365 0.929 . S
H1378 C1366 0.960 . S
H1379 C1366 0.962 . S
H1380 C1366 0.960 . S
H1381 C1367 0.961 . S
H1382 C1367 0.961 . S
H1383 C1367 0.961 . S
H1384 C1368 0.931 . S
H1385 C1373 0.930 . S
H1386 C1374 0.956 . S
H1387 C1374 0.961 . S
H1388 C1374 0.961 . S
H1389 C1375 0.958 . S
H1390 C1375 0.961 . S
H1391 C1375 0.960 . S
C1392 C1393 1.391 . S
C1392 C1394 1.394 . S
C1392 H1408 0.931 . S
C1393 C1392 1.391 . S
C1393 C1397 1.376 . S
C1394 C1392 1.394 . S
C1394 C1395 1.369 . S
C1394 C1398 1.531 . S
C1395 C1394 1.369 . S
C1395 C1396 1.410 . S
C1395 C1403 1.503 . S
C1396 C1395 1.410 . S
C1396 C1397 1.392 . S
C1396 C1399 1.511 . S
C1397 C1393 1.376 . S
C1397 C1396 1.392 . S
C1397 H1409 0.929 . S
C1398 C1394 1.531 . S
C1398 H1410 0.960 . S
C1398 H1411 0.962 . S
C1398 H1412 0.960 . S
C1399 C1396 1.511 . S
C1399 H1413 0.961 . S
C1399 H1414 0.961 . S
C1399 H1415 0.961 . S
C1400 C1401 1.370 . S
C1400 C1402 1.363 . S
C1400 H1416 0.931 . S
C1401 C1400 1.370 . S
C1401 C1405 1.408 . S
C1402 C1400 1.363 . S
C1402 C1403 1.370 . S
C1402 C1406 1.524 . S
C1403 C1395 1.503 . S
C1403 C1402 1.370 . S
C1403 C1404 1.403 . S
C1404 C1403 1.403 . S
C1404 C1405 1.404 . S
C1404 C1407 1.539 . S
C1405 C1401 1.408 . S
C1405 C1404 1.404 . S
C1405 H1417 0.930 . S
C1406 C1402 1.524 . S
C1406 H1418 0.956 . S
C1406 H1419 0.961 . S
C1406 H1420 0.961 . S
C1407 C1404 1.539 . S
C1407 H1421 0.958 . S
C1407 H1422 0.961 . S
C1407 H1423 0.960 . S
H1408 C1392 0.931 . S
H1409 C1397 0.929 . S
H1410 C1398 0.960 . S
H1411 C1398 0.962 . S
H1412 C1398 0.960 . S
H1413 C1399 0.961 . S
H1414 C1399 0.961 . S
H1415 C1399 0.961 . S
H1416 C1400 0.931 . S
H1417 C1405 0.930 . S
H1418 C1406 0.956 . S
H1419 C1406 0.961 . S
H1420 C1406 0.961 . S
H1421 C1407 0.958 . S
H1422 C1407 0.961 . S
H1423 C1407 0.960 . S
C1424 C1425 1.391 . S
C1424 C1426 1.394 . S
C1424 H1440 0.931 . S
C1425 C1424 1.391 . S
C1425 C1429 1.376 . S
C1426 C1424 1.394 . S
C1426 C1427 1.369 . S
C1426 C1430 1.531 . S
C1427 C1426 1.369 . S
C1427 C1428 1.410 . S
C1427 C1435 1.503 . S
C1428 C1427 1.410 . S
C1428 C1429 1.392 . S
C1428 C1431 1.511 . S
C1429 C1425 1.376 . S
C1429 C1428 1.392 . S
C1429 H1441 0.929 . S
C1430 C1426 1.531 . S
C1430 H1442 0.960 . S
C1430 H1443 0.962 . S
C1430 H1444 0.960 . S
C1431 C1428 1.511 . S
C1431 H1445 0.961 . S
C1431 H1446 0.961 . S
C1431 H1447 0.961 . S
C1432 C1433 1.370 . S
C1432 C1434 1.363 . S
C1432 H1448 0.931 . S
C1433 C1432 1.370 . S
C1433 C1437 1.408 . S
C1434 C1432 1.363 . S
C1434 C1435 1.370 . S
C1434 C1438 1.524 . S
C1435 C1427 1.503 . S
C1435 C1434 1.370 . S
C1435 C1436 1.403 . S
C1436 C1435 1.403 . S
C1436 C1437 1.404 . S
C1436 C1439 1.539 . S
C1437 C1433 1.408 . S
C1437 C1436 1.404 . S
C1437 H1449 0.930 . S
C1438 C1434 1.524 . S
C1438 H1450 0.956 . S
C1438 H1451 0.961 . S
C1438 H1452 0.961 . S
C1439 C1436 1.539 . S
C1439 H1453 0.958 . S
C1439 H1454 0.961 . S
C1439 H1455 0.960 . S
H1440 C1424 0.931 . S
H1441 C1429 0.929 . S
H1442 C1430 0.960 . S
H1443 C1430 0.962 . S
H1444 C1430 0.960 . S
H1445 C1431 0.961 . S
H1446 C1431 0.961 . S
H1447 C1431 0.961 . S
H1448 C1432 0.931 . S
H1449 C1437 0.930 . S
H1450 C1438 0.956 . S
H1451 C1438 0.961 . S
H1452 C1438 0.961 . S
H1453 C1439 0.958 . S
H1454 C1439 0.961 . S
H1455 C1439 0.960 . S
C1456 C1457 1.391 . S
C1456 C1458 1.394 . S
C1456 H1472 0.931 . S
C1457 C1456 1.391 . S
C1457 C1461 1.376 . S
C1458 C1456 1.394 . S
C1458 C1459 1.369 . S
C1458 C1462 1.531 . S
C1459 C1458 1.369 . S
C1459 C1460 1.410 . S
C1459 C1467 1.503 . S
C1460 C1459 1.410 . S
C1460 C1461 1.392 . S
C1460 C1463 1.511 . S
C1461 C1457 1.376 . S
C1461 C1460 1.392 . S
C1461 H1473 0.929 . S
C1462 C1458 1.531 . S
C1462 H1474 0.960 . S
C1462 H1475 0.962 . S
C1462 H1476 0.960 . S
C1463 C1460 1.511 . S
C1463 H1477 0.961 . S
C1463 H1478 0.961 . S
C1463 H1479 0.961 . S
C1464 C1465 1.370 . S
C1464 C1466 1.363 . S
C1464 H1480 0.931 . S
C1465 C1464 1.370 . S
C1465 C1469 1.408 . S
C1466 C1464 1.363 . S
C1466 C1467 1.370 . S
C1466 C1470 1.524 . S
C1467 C1459 1.503 . S
C1467 C1466 1.370 . S
C1467 C1468 1.403 . S
C1468 C1467 1.403 . S
C1468 C1469 1.404 . S
C1468 C1471 1.539 . S
C1469 C1465 1.408 . S
C1469 C1468 1.404 . S
C1469 H1481 0.930 . S
C1470 C1466 1.524 . S
C1470 H1482 0.956 . S
C1470 H1483 0.961 . S
C1470 H1484 0.961 . S
C1471 C1468 1.539 . S
C1471 H1485 0.958 . S
C1471 H1486 0.961 . S
C1471 H1487 0.960 . S
H1472 C1456 0.931 . S
H1473 C1461 0.929 . S
H1474 C1462 0.960 . S
H1475 C1462 0.962 . S
H1476 C1462 0.960 . S
H1477 C1463 0.961 . S
H1478 C1463 0.961 . S
H1479 C1463 0.961 . S
H1480 C1464 0.931 . S
H1481 C1469 0.930 . S
H1482 C1470 0.956 . S
H1483 C1470 0.961 . S
H1484 C1470 0.961 . S
H1485 C1471 0.958 . S
H1486 C1471 0.961 . S
H1487 C1471 0.960 . S
C1488 C1489 1.391 . S
C1488 C1490 1.394 . S
C1488 H1504 0.931 . S
C1489 C1488 1.391 . S
C1489 C1493 1.376 1_565 S
C1490 C1488 1.394 . S
C1490 C1491 1.369 1_565 S
C1490 C1494 1.531 . S
C1491 C1490 1.369 1_545 S
C1491 C1492 1.410 . S
C1491 C1499 1.503 1_556 S
C1492 C1491 1.410 . S
C1492 C1493 1.392 . S
C1492 C1495 1.511 1_556 S
C1493 C1489 1.376 1_545 S
C1493 C1492 1.392 . S
C1493 H1505 0.929 . S
C1494 C1490 1.531 . S
C1494 H1506 0.960 . S
C1494 H1507 0.962 . S
C1494 H1508 0.960 . S
C1495 C1492 1.511 1_554 S
C1495 H1509 0.961 . S
C1495 H1510 0.961 . S
C1495 H1511 0.961 . S
C1496 C1497 1.370 1_565 S
C1496 C1498 1.363 . S
C1496 H1512 0.931 . S
C1497 C1496 1.370 1_545 S
C1497 C1501 1.408 . S
C1498 C1496 1.363 . S
C1498 C1499 1.370 1_565 S
C1498 C1502 1.524 . S
C1499 C1491 1.503 1_554 S
C1499 C1498 1.370 1_545 S
C1499 C1500 1.403 . S
C1500 C1499 1.403 . S
C1500 C1501 1.404 . S
C1500 C1503 1.539 1_554 S
C1501 C1497 1.408 . S
C1501 C1500 1.404 . S
C1501 H1513 0.930 . S
C1502 C1498 1.524 . S
C1502 H1514 0.956 . S
C1502 H1515 0.961 . S
C1502 H1516 0.961 . S
C1503 C1500 1.539 1_556 S
C1503 H1517 0.958 . S
C1503 H1518 0.952 1_556 S
C1503 H1519 0.960 . S
H1504 C1488 0.931 . S
H1505 C1493 0.929 . S
H1506 C1494 0.960 . S
H1507 C1494 0.962 . S
H1508 C1494 0.960 . S
H1509 C1495 0.961 . S
H1510 C1495 0.961 . S
H1511 C1495 0.961 . S
H1512 C1496 0.931 . S
H1513 C1501 0.930 . S
H1514 C1502 0.956 . S
H1515 C1502 0.961 . S
H1516 C1502 0.961 . S
H1517 C1503 0.958 . S
H1518 C1503 0.952 1_554 S
H1519 C1503 0.960 . S
C1520 C1521 1.391 . S
C1520 C1522 1.394 . S
C1520 H1536 0.931 . S
C1521 C1520 1.391 . S
C1521 C1525 1.376 . S
C1522 C1520 1.394 . S
C1522 C1523 1.369 . S
C1522 C1526 1.531 1_556 S
C1523 C1522 1.369 . S
C1523 C1524 1.410 . S
C1523 C1531 1.503 1_556 S
C1524 C1523 1.410 . S
C1524 C1525 1.392 . S
C1524 C1527 1.511 . S
C1525 C1521 1.376 . S
C1525 C1524 1.392 . S
C1525 H1537 0.929 . S
C1526 C1522 1.531 1_554 S
C1526 H1538 0.960 . S
C1526 H1539 0.962 . S
C1526 H1540 0.960 . S
C1527 C1524 1.511 . S
C1527 H1541 0.961 . S
C1527 H1542 0.961 . S
C1527 H1543 0.961 . S
C1528 C1529 1.370 . S
C1528 C1530 1.363 . S
C1528 H1544 0.931 . S
C1529 C1528 1.370 . S
C1529 C1533 1.408 . S
C1530 C1528 1.363 . S
C1530 C1531 1.370 . S
C1530 C1534 1.524 . S
C1531 C1523 1.503 1_554 S
C1531 C1530 1.370 . S
C1531 C1532 1.403 . S
C1532 C1531 1.403 . S
C1532 C1533 1.404 . S
C1532 C1535 1.539 . S
C1533 C1529 1.408 . S
C1533 C1532 1.404 . S
C1533 H1545 0.930 . S
C1534 C1530 1.524 . S
C1534 H1546 0.956 . S
C1534 H1547 0.961 1_554 S
C1534 H1548 0.961 . S
C1535 C1532 1.539 . S
C1535 H1549 0.958 . S
C1535 H1550 0.961 . S
C1535 H1551 0.960 1_554 S
H1536 C1520 0.931 . S
H1537 C1525 0.929 . S
H1538 C1526 0.960 . S
H1539 C1526 0.962 . S
H1540 C1526 0.960 . S
H1541 C1527 0.961 . S
H1542 C1527 0.961 . S
H1543 C1527 0.961 . S
H1544 C1528 0.931 . S
H1545 C1533 0.930 . S
H1546 C1534 0.956 . S
H1547 C1534 0.961 1_556 S
H1548 C1534 0.961 . S
H1549 C1535 0.958 . S
H1550 C1535 0.961 . S
H1551 C1535 0.960 1_556 S
C1552 C1553 1.391 . S
C1552 C1554 1.394 . S
C1552 H1568 0.931 . S
C1553 C1552 1.391 . S
C1553 C1557 1.376 . S
C1554 C1552 1.394 . S
C1554 C1555 1.369 . S
C1554 C1558 1.531 1_556 S
C1555 C1554 1.369 . S
C1555 C1556 1.410 . S
C1555 C1563 1.503 1_456 S
C1556 C1555 1.410 . S
C1556 C1557 1.392 . S
C1556 C1559 1.511 1_455 S
C1557 C1553 1.376 . S
C1557 C1556 1.392 . S
C1557 H1569 0.929 . S
C1558 C1554 1.531 1_554 S
C1558 H1570 0.960 . S
C1558 H1571 0.962 . S
C1558 H1572 0.960 . S
C1559 C1556 1.511 1_655 S
C1559 H1573 0.961 . S
C1559 H1574 0.961 . S
C1559 H1575 0.961 . S
C1560 C1561 1.370 . S
C1560 C1562 1.363 . S
C1560 H1576 0.931 . S
C1561 C1560 1.370 . S
C1561 C1565 1.408 . S
C1562 C1560 1.363 . S
C1562 C1563 1.370 . S
C1562 C1566 1.524 1_655 S
C1563 C1555 1.503 1_654 S
C1563 C1562 1.370 . S
C1563 C1564 1.403 . S
C1564 C1563 1.403 . S
C1564 C1565 1.404 . S
C1564 C1567 1.539 1_554 S
C1565 C1561 1.408 . S
C1565 C1564 1.404 . S
C1565 H1577 0.930 . S
C1566 C1562 1.524 1_455 S
C1566 H1578 0.956 . S
C1566 H1579 0.961 . S
C1566 H1580 0.961 . S
C1567 C1564 1.539 1_556 S
C1567 H1581 0.958 1_556 S
C1567 H1582 0.961 . S
C1567 H1583 0.960 . S
H1568 C1552 0.931 . S
H1569 C1557 0.929 . S
H1570 C1558 0.960 . S
H1571 C1558 0.962 . S
H1572 C1558 0.960 . S
H1573 C1559 0.961 . S
H1574 C1559 0.961 . S
H1575 C1559 0.961 . S
H1576 C1560 0.931 . S
H1577 C1565 0.930 . S
H1578 C1566 0.956 . S
H1579 C1566 0.961 . S
H1580 C1566 0.961 . S
H1581 C1567 0.958 1_554 S
H1582 C1567 0.961 . S
H1583 C1567 0.960 . S
C1584 C1585 1.391 . S
C1584 C1586 1.394 . S
C1584 H1600 0.931 . S
C1585 C1584 1.391 . S
C1585 C1589 1.376 1_655 S
C1586 C1584 1.394 . S
C1586 C1587 1.369 1_655 S
C1586 C1590 1.531 1_545 S
C1587 C1586 1.369 1_455 S
C1587 C1588 1.410 . S
C1587 C1595 1.503 1_546 S
C1588 C1587 1.410 . S
C1588 C1589 1.392 . S
C1588 C1591 1.511 1_556 S
C1589 C1585 1.376 1_455 S
C1589 C1588 1.392 . S
C1589 H1601 0.929 . S
C1590 C1586 1.531 1_565 S
C1590 H1602 0.960 . S
C1590 H1603 0.962 . S
C1590 H1604 0.960 . S
C1591 C1588 1.511 1_554 S
C1591 H1605 0.961 . S
C1591 H1606 0.961 . S
C1591 H1607 0.961 . S
C1592 C1593 1.370 1_655 S
C1592 C1594 1.363 . S
C1592 H1608 0.931 . S
C1593 C1592 1.370 1_455 S
C1593 C1597 1.408 . S
C1594 C1592 1.363 . S
C1594 C1595 1.370 1_655 S
C1594 C1598 1.524 1_565 S
C1595 C1587 1.503 1_564 S
C1595 C1594 1.370 1_455 S
C1595 C1596 1.403 . S
C1596 C1595 1.403 . S
C1596 C1597 1.404 . S
C1596 C1599 1.539 1_554 S
C1597 C1593 1.408 . S
C1597 C1596 1.404 . S
C1597 H1609 0.930 . S
C1598 C1594 1.524 1_545 S
C1598 H1610 0.956 . S
C1598 H1611 0.961 . S
C1598 H1612 0.961 . S
C1599 C1596 1.539 1_556 S
C1599 H1613 0.958 . S
C1599 H1614 0.961 . S
C1599 H1615 0.960 . S
H1600 C1584 0.931 . S
H1601 C1589 0.929 . S
H1602 C1590 0.960 . S
H1603 C1590 0.962 . S
H1604 C1590 0.960 . S
H1605 C1591 0.961 . S
H1606 C1591 0.961 . S
H1607 C1591 0.961 . S
H1608 C1592 0.931 . S
H1609 C1597 0.930 . S
H1610 C1598 0.956 . S
H1611 C1598 0.961 . S
H1612 C1598 0.961 . S
H1613 C1599 0.958 . S
H1614 C1599 0.961 . S
H1615 C1599 0.960 . S
C1616 C1617 1.391 . S
C1616 C1618 1.394 . S
C1616 H1632 0.931 . S
C1617 C1616 1.391 . S
C1617 C1621 1.376 . S
C1618 C1616 1.394 . S
C1618 C1619 1.369 . S
C1618 C1622 1.531 . S
C1619 C1618 1.369 . S
C1619 C1620 1.410 . S
C1619 C1627 1.503 . S
C1620 C1619 1.410 . S
C1620 C1621 1.392 . S
C1620 C1623 1.511 . S
C1621 C1617 1.376 . S
C1621 C1620 1.392 . S
C1621 H1633 0.929 . S
C1622 C1618 1.531 . S
C1622 H1634 0.960 . S
C1622 H1635 0.962 . S
C1622 H1636 0.960 . S
C1623 C1620 1.511 . S
C1623 H1637 0.961 . S
C1623 H1638 0.961 . S
C1623 H1639 0.961 . S
C1624 C1625 1.370 . S
C1624 C1626 1.363 . S
C1624 H1640 0.931 . S
C1625 C1624 1.370 . S
C1625 C1629 1.408 . S
C1626 C1624 1.363 . S
C1626 C1627 1.370 . S
C1626 C1630 1.524 . S
C1627 C1619 1.503 . S
C1627 C1626 1.370 . S
C1627 C1628 1.403 . S
C1628 C1627 1.403 . S
C1628 C1629 1.404 . S
C1628 C1631 1.539 . S
C1629 C1625 1.408 . S
C1629 C1628 1.404 . S
C1629 H1641 0.930 . S
C1630 C1626 1.524 . S
C1630 H1642 0.956 . S
C1630 H1643 0.961 . S
C1630 H1644 0.961 . S
C1631 C1628 1.539 . S
C1631 H1645 0.958 . S
C1631 H1646 0.961 . S
C1631 H1647 0.960 . S
H1632 C1616 0.931 . S
H1633 C1621 0.929 . S
H1634 C1622 0.960 . S
H1635 C1622 0.962 . S
H1636 C1622 0.960 . S
H1637 C1623 0.961 . S
H1638 C1623 0.961 . S
H1639 C1623 0.961 . S
H1640 C1624 0.931 . S
H1641 C1629 0.930 . S
H1642 C1630 0.956 . S
H1643 C1630 0.961 . S
H1644 C1630 0.961 . S
H1645 C1631 0.958 . S
H1646 C1631 0.961 . S
H1647 C1631 0.960 . S
C1648 C1649 1.391 . S
C1648 C1650 1.394 . S
C1648 H1664 0.931 . S
C1649 C1648 1.391 . S
C1649 C1653 1.376 1_455 S
C1650 C1648 1.394 . S
C1650 C1651 1.369 . S
C1650 C1654 1.531 . S
C1651 C1650 1.369 . S
C1651 C1652 1.410 1_455 S
C1651 C1659 1.503 1_455 S
C1652 C1651 1.410 1_655 S
C1652 C1653 1.392 . S
C1652 C1655 1.511 . S
C1653 C1649 1.376 1_655 S
C1653 C1652 1.392 . S
C1653 H1665 0.929 . S
C1654 C1650 1.531 . S
C1654 H1666 0.960 . S
C1654 H1667 0.962 . S
C1654 H1668 0.960 . S
C1655 C1652 1.511 . S
C1655 H1669 0.961 . S
C1655 H1670 0.961 . S
C1655 H1671 0.961 . S
C1656 C1657 1.370 . S
C1656 C1658 1.363 . S
C1656 H1672 0.931 . S
C1657 C1656 1.370 . S
C1657 C1661 1.408 . S
C1658 C1656 1.363 . S
C1658 C1659 1.370 . S
C1658 C1662 1.524 . S
C1659 C1651 1.503 1_655 S
C1659 C1658 1.370 . S
C1659 C1660 1.403 . S
C1660 C1659 1.403 . S
C1660 C1661 1.404 . S
C1660 C1663 1.539 . S
C1661 C1657 1.408 . S
C1661 C1660 1.404 . S
C1661 H1673 0.930 . S
C1662 C1658 1.524 . S
C1662 H1674 0.951 1_655 S
C1662 H1675 0.964 . S
C1662 H1676 0.961 . S
C1663 C1660 1.539 . S
C1663 H1677 0.958 1_655 S
C1663 H1678 0.961 . S
C1663 H1679 0.960 . S
H1664 C1648 0.931 . S
H1665 C1653 0.929 . S
H1666 C1654 0.960 . S
H1667 C1654 0.962 . S
H1668 C1654 0.960 . S
H1669 C1655 0.961 . S
H1670 C1655 0.961 . S
H1671 C1655 0.961 . S
H1672 C1656 0.931 . S
H1673 C1661 0.930 . S
H1674 C1662 0.951 1_455 S
H1675 C1662 0.964 . S
H1676 C1662 0.961 . S
H1677 C1663 0.958 1_455 S
H1678 C1663 0.961 . S
H1679 C1663 0.960 . S
C1680 C1681 1.391 1_565 S
C1680 C1682 1.394 . S
C1680 H1696 0.931 . S
C1681 C1680 1.391 1_545 S
C1681 C1685 1.376 . S
C1682 C1680 1.394 . S
C1682 C1683 1.369 . S
C1682 C1686 1.531 . S
C1683 C1682 1.369 . S
C1683 C1684 1.410 1_565 S
C1683 C1691 1.503 1_655 S
C1684 C1683 1.410 1_545 S
C1684 C1685 1.392 . S
C1684 C1687 1.511 1_655 S
C1685 C1681 1.376 . S
C1685 C1684 1.392 . S
C1685 H1697 0.929 . S
C1686 C1682 1.531 . S
C1686 H1698 0.960 . S
C1686 H1699 0.962 . S
C1686 H1700 0.960 . S
C1687 C1684 1.511 1_455 S
C1687 H1701 0.961 . S
C1687 H1702 0.961 . S
C1687 H1703 0.961 . S
C1688 C1689 1.370 1_545 S
C1688 C1690 1.363 . S
C1688 H1704 0.931 . S
C1689 C1688 1.370 1_565 S
C1689 C1693 1.408 . S
C1690 C1688 1.363 . S
C1690 C1691 1.370 1_545 S
C1690 C1694 1.524 1_455 S
C1691 C1683 1.503 1_455 S
C1691 C1690 1.370 1_565 S
C1691 C1692 1.403 . S
C1692 C1691 1.403 . S
C1692 C1693 1.404 . S
C1692 C1695 1.539 . S
C1693 C1689 1.408 . S
C1693 C1692 1.404 . S
C1693 H1705 0.930 . S
C1694 C1690 1.524 1_655 S
C1694 H1706 0.956 . S
C1694 H1707 0.961 . S
C1694 H1708 0.961 . S
C1695 C1692 1.539 . S
C1695 H1709 0.958 . S
C1695 H1710 0.961 . S
C1695 H1711 0.960 . S
H1696 C1680 0.931 . S
H1697 C1685 0.929 . S
H1698 C1686 0.960 . S
H1699 C1686 0.962 . S
H1700 C1686 0.960 . S
H1701 C1687 0.961 . S
H1702 C1687 0.961 . S
H1703 C1687 0.961 . S
H1704 C1688 0.931 . S
H1705 C1693 0.930 . S
H1706 C1694 0.956 . S
H1707 C1694 0.961 . S
H1708 C1694 0.961 . S
H1709 C1695 0.958 . S
H1710 C1695 0.961 . S
H1711 C1695 0.960 . S
C1712 C1713 1.391 . S
C1712 C1714 1.394 . S
C1712 H1728 0.931 . S
C1713 C1712 1.391 . S
C1713 C1717 1.376 . S
C1714 C1712 1.394 . S
C1714 C1715 1.369 . S
C1714 C1718 1.531 . S
C1715 C1714 1.369 . S
C1715 C1716 1.410 . S
C1715 C1723 1.503 1_565 S
C1716 C1715 1.410 . S
C1716 C1717 1.392 . S
C1716 C1719 1.511 . S
C1717 C1713 1.376 . S
C1717 C1716 1.392 . S
C1717 H1729 0.929 . S
C1718 C1714 1.531 . S
C1718 H1730 0.961 1_565 S
C1718 H1731 0.962 1_565 S
C1718 H1732 0.960 . S
C1719 C1716 1.511 . S
C1719 H1733 0.961 . S
C1719 H1734 0.961 . S
C1719 H1735 0.961 . S
C1720 C1721 1.370 . S
C1720 C1722 1.363 . S
C1720 H1736 0.931 . S
C1721 C1720 1.370 . S
C1721 C1725 1.408 . S
C1722 C1720 1.363 . S
C1722 C1723 1.370 . S
C1722 C1726 1.524 . S
C1723 C1715 1.503 1_545 S
C1723 C1722 1.370 . S
C1723 C1724 1.403 . S
C1724 C1723 1.403 . S
C1724 C1725 1.404 . S
C1724 C1727 1.539 1_545 S
C1725 C1721 1.408 . S
C1725 C1724 1.404 . S
C1725 H1737 0.930 . S
C1726 C1722 1.524 . S
C1726 H1738 0.956 . S
C1726 H1739 0.961 . S
C1726 H1740 0.961 . S
C1727 C1724 1.539 1_565 S
C1727 H1741 0.958 . S
C1727 H1742 0.961 . S
C1727 H1743 0.960 . S
H1728 C1712 0.931 . S
H1729 C1717 0.929 . S
H1730 C1718 0.961 1_545 S
H1731 C1718 0.962 1_545 S
H1732 C1718 0.960 . S
H1733 C1719 0.961 . S
H1734 C1719 0.961 . S
H1735 C1719 0.961 . S
H1736 C1720 0.931 . S
H1737 C1725 0.930 . S
H1738 C1726 0.956 . S
H1739 C1726 0.961 . S
H1740 C1726 0.961 . S
H1741 C1727 0.958 . S
H1742 C1727 0.961 . S
H1743 C1727 0.960 . S
C1744 C1745 1.391 . S
C1744 C1746 1.394 . S
C1744 H1760 0.931 . S
C1745 C1744 1.391 . S
C1745 C1749 1.376 . S
C1746 C1744 1.394 . S
C1746 C1747 1.369 . S
C1746 C1750 1.531 . S
C1747 C1746 1.369 . S
C1747 C1748 1.410 . S
C1747 C1755 1.503 . S
C1748 C1747 1.410 . S
C1748 C1749 1.392 . S
C1748 C1751 1.511 . S
C1749 C1745 1.376 . S
C1749 C1748 1.392 . S
C1749 H1761 0.929 . S
C1750 C1746 1.531 . S
C1750 H1762 0.960 . S
C1750 H1763 0.962 . S
C1750 H1764 0.960 . S
C1751 C1748 1.511 . S
C1751 H1765 0.961 . S
C1751 H1766 0.961 . S
C1751 H1767 0.961 . S
C1752 C1753 1.370 . S
C1752 C1754 1.363 . S
C1752 H1768 0.931 . S
C1753 C1752 1.370 . S
C1753 C1757 1.408 . S
C1754 C1752 1.363 . S
C1754 C1755 1.370 . S
C1754 C1758 1.524 . S
C1755 C1747 1.503 . S
C1755 C1754 1.370 . S
C1755 C1756 1.403 . S
C1756 C1755 1.403 . S
C1756 C1757 1.404 . S
C1756 C1759 1.539 . S
C1757 C1753 1.408 . S
C1757 C1756 1.404 . S
C1757 H1769 0.930 . S
C1758 C1754 1.524 . S
C1758 H1770 0.956 . S
C1758 H1771 0.961 . S
C1758 H1772 0.961 . S
C1759 C1756 1.539 . S
C1759 H1773 0.958 . S
C1759 H1774 0.961 . S
C1759 H1775 0.960 . S
H1760 C1744 0.931 . S
H1761 C1749 0.929 . S
H1762 C1750 0.960 . S
H1763 C1750 0.962 . S
H1764 C1750 0.960 . S
H1765 C1751 0.961 . S
H1766 C1751 0.961 . S
H1767 C1751 0.961 . S
H1768 C1752 0.931 . S
H1769 C1757 0.930 . S
H1770 C1758 0.956 . S
H1771 C1758 0.961 . S
H1772 C1758 0.961 . S
H1773 C1759 0.958 . S
H1774 C1759 0.961 . S
H1775 C1759 0.960 . S
C1776 C1777 1.391 . S
C1776 C1778 1.394 . S
C1776 H1792 0.931 . S
C1777 C1776 1.391 . S
C1777 C1781 1.376 . S
C1778 C1776 1.394 . S
C1778 C1779 1.369 . S
C1778 C1782 1.531 . S
C1779 C1778 1.369 . S
C1779 C1780 1.410 . S
C1779 C1787 1.503 . S
C1780 C1779 1.410 . S
C1780 C1781 1.392 . S
C1780 C1783 1.511 . S
C1781 C1777 1.376 . S
C1781 C1780 1.392 . S
C1781 H1793 0.929 . S
C1782 C1778 1.531 . S
C1782 H1794 0.960 . S
C1782 H1795 0.962 . S
C1782 H1796 0.960 . S
C1783 C1780 1.511 . S
C1783 H1797 0.961 . S
C1783 H1798 0.961 . S
C1783 H1799 0.961 . S
C1784 C1785 1.370 . S
C1784 C1786 1.363 . S
C1784 H1800 0.931 . S
C1785 C1784 1.370 . S
C1785 C1789 1.408 . S
C1786 C1784 1.363 . S
C1786 C1787 1.370 . S
C1786 C1790 1.524 . S
C1787 C1779 1.503 . S
C1787 C1786 1.370 . S
C1787 C1788 1.403 . S
C1788 C1787 1.403 . S
C1788 C1789 1.404 . S
C1788 C1791 1.539 . S
C1789 C1785 1.408 . S
C1789 C1788 1.404 . S
C1789 H1801 0.930 . S
C1790 C1786 1.524 . S
C1790 H1802 0.956 . S
C1790 H1803 0.961 . S
C1790 H1804 0.961 . S
C1791 C1788 1.539 . S
C1791 H1805 0.958 . S
C1791 H1806 0.961 . S
C1791 H1807 0.960 . S
H1792 C1776 0.931 . S
H1793 C1781 0.929 . S
H1794 C1782 0.960 . S
H1795 C1782 0.962 . S
H1796 C1782 0.960 . S
H1797 C1783 0.961 . S
H1798 C1783 0.961 . S
H1799 C1783 0.961 . S
H1800 C1784 0.931 . S
H1801 C1789 0.930 . S
H1802 C1790 0.956 . S
H1803 C1790 0.961 . S
H1804 C1790 0.961 . S
H1805 C1791 0.958 . S
H1806 C1791 0.961 . S
H1807 C1791 0.960 . S
C1808 C1809 1.391 . S
C1808 C1810 1.394 . S
C1808 H1824 0.931 1_655 S
C1809 C1808 1.391 . S
C1809 C1813 1.376 . S
C1810 C1808 1.394 . S
C1810 C1811 1.369 . S
C1810 C1814 1.531 . S
C1811 C1810 1.369 . S
C1811 C1812 1.410 . S
C1811 C1819 1.503 . S
C1812 C1811 1.410 . S
C1812 C1813 1.392 . S
C1812 C1815 1.511 . S
C1813 C1809 1.376 . S
C1813 C1812 1.392 . S
C1813 H1825 0.929 . S
C1814 C1810 1.531 . S
C1814 H1826 0.960 . S
C1814 H1827 0.962 . S
C1814 H1828 0.960 . S
C1815 C1812 1.511 . S
C1815 H1829 0.961 . S
C1815 H1830 0.961 . S
C1815 H1831 0.961 . S
C1816 C1817 1.370 . S
C1816 C1818 1.363 . S
C1816 H1832 0.931 . S
C1817 C1816 1.370 . S
C1817 C1821 1.408 . S
C1818 C1816 1.363 . S
C1818 C1819 1.370 . S
C1818 C1822 1.524 . S
C1819 C1811 1.503 . S
C1819 C1818 1.370 . S
C1819 C1820 1.403 . S
C1820 C1819 1.403 . S
C1820 C1821 1.404 . S
C1820 C1823 1.539 . S
C1821 C1817 1.408 . S
C1821 C1820 1.404 . S
C1821 H1833 0.930 . S
C1822 C1818 1.524 . S
C1822 H1834 0.956 . S
C1822 H1835 0.961 . S
C1822 H1836 0.961 . S
C1823 C1820 1.539 . S
C1823 H1837 0.958 . S
C1823 H1838 0.961 . S
C1823 H1839 0.960 . S
H1824 C1808 0.931 1_455 S
H1825 C1813 0.929 . S
H1826 C1814 0.960 . S
H1827 C1814 0.962 . S
H1828 C1814 0.960 . S
H1829 C1815 0.961 . S
H1830 C1815 0.961 . S
H1831 C1815 0.961 . S
H1832 C1816 0.931 . S
H1833 C1821 0.930 . S
H1834 C1822 0.956 . S
H1835 C1822 0.961 . S
H1836 C1822 0.961 . S
H1837 C1823 0.958 . S
H1838 C1823 0.961 . S
H1839 C1823 0.960 . S
C1840 C1841 1.391 . S
C1840 C1842 1.394 . S
C1840 H1856 0.931 1_565 S
C1841 C1840 1.391 . S
C1841 C1845 1.376 . S
C1842 C1840 1.394 . S
C1842 C1843 1.369 . S
C1842 C1846 1.531 . S
C1843 C1842 1.369 . S
C1843 C1844 1.410 . S
C1843 C1851 1.503 . S
C1844 C1843 1.410 . S
C1844 C1845 1.392 . S
C1844 C1847 1.511 . S
C1845 C1841 1.376 . S
C1845 C1844 1.392 . S
C1845 H1857 0.929 . S
C1846 C1842 1.531 . S
C1846 H1858 0.960 . S
C1846 H1859 0.962 . S
C1846 H1860 0.960 1_565 S
C1847 C1844 1.511 . S
C1847 H1861 0.961 . S
C1847 H1862 0.961 . S
C1847 H1863 0.961 . S
C1848 C1849 1.370 . S
C1848 C1850 1.363 . S
C1848 H1864 0.931 . S
C1849 C1848 1.370 . S
C1849 C1853 1.408 . S
C1850 C1848 1.363 . S
C1850 C1851 1.370 . S
C1850 C1854 1.524 . S
C1851 C1843 1.503 . S
C1851 C1850 1.370 . S
C1851 C1852 1.403 . S
C1852 C1851 1.403 . S
C1852 C1853 1.404 . S
C1852 C1855 1.539 . S
C1853 C1849 1.408 . S
C1853 C1852 1.404 . S
C1853 H1865 0.930 . S
C1854 C1850 1.524 . S
C1854 H1866 0.956 . S
C1854 H1867 0.961 . S
C1854 H1868 0.961 . S
C1855 C1852 1.539 . S
C1855 H1869 0.958 . S
C1855 H1870 0.961 . S
C1855 H1871 0.960 . S
H1856 C1840 0.931 1_545 S
H1857 C1845 0.929 . S
H1858 C1846 0.960 . S
H1859 C1846 0.962 . S
H1860 C1846 0.960 1_545 S
H1861 C1847 0.961 . S
H1862 C1847 0.961 . S
H1863 C1847 0.961 . S
H1864 C1848 0.931 . S
H1865 C1853 0.930 . S
H1866 C1854 0.956 . S
H1867 C1854 0.961 . S
H1868 C1854 0.961 . S
H1869 C1855 0.958 . S
H1870 C1855 0.961 . S
H1871 C1855 0.960 . S
C1872 C1873 1.391 . S
C1872 C1874 1.394 . S
C1872 H1888 0.931 . S
C1873 C1872 1.391 . S
C1873 C1877 1.376 . S
C1874 C1872 1.394 . S
C1874 C1875 1.369 . S
C1874 C1878 1.531 . S
C1875 C1874 1.369 . S
C1875 C1876 1.410 . S
C1875 C1883 1.503 . S
C1876 C1875 1.410 . S
C1876 C1877 1.392 . S
C1876 C1879 1.511 . S
C1877 C1873 1.376 . S
C1877 C1876 1.392 . S
C1877 H1889 0.929 . S
C1878 C1874 1.531 . S
C1878 H1890 0.960 . S
C1878 H1891 0.962 . S
C1878 H1892 0.960 . S
C1879 C1876 1.511 . S
C1879 H1893 0.961 . S
C1879 H1894 0.961 . S
C1879 H1895 0.961 . S
C1880 C1881 1.370 . S
C1880 C1882 1.363 . S
C1880 H1896 0.931 . S
C1881 C1880 1.370 . S
C1881 C1885 1.408 . S
C1882 C1880 1.363 . S
C1882 C1883 1.370 . S
C1882 C1886 1.524 . S
C1883 C1875 1.503 . S
C1883 C1882 1.370 . S
C1883 C1884 1.403 . S
C1884 C1883 1.403 . S
C1884 C1885 1.404 . S
C1884 C1887 1.539 . S
C1885 C1881 1.408 . S
C1885 C1884 1.404 . S
C1885 H1897 0.930 . S
C1886 C1882 1.524 . S
C1886 H1898 0.956 . S
C1886 H1899 0.961 . S
C1886 H1900 0.961 . S
C1887 C1884 1.539 . S
C1887 H1901 0.958 . S
C1887 H1902 0.961 . S
C1887 H1903 0.960 . S
H1888 C1872 0.931 . S
H1889 C1877 0.929 . S
H1890 C1878 0.960 . S
H1891 C1878 0.962 . S
H1892 C1878 0.960 . S
H1893 C1879 0.961 . S
H1894 C1879 0.961 . S
H1895 C1879 0.961 . S
H1896 C1880 0.931 . S
H1897 C1885 0.930 . S
H1898 C1886 0.956 . S
H1899 C1886 0.961 . S
H1900 C1886 0.961 . S
H1901 C1887 0.958 . S
H1902 C1887 0.961 . S
H1903 C1887 0.960 . S
C1904 C1905 1.391 . S
C1904 C1906 1.394 . S
C1904 H1920 0.931 . S
C1905 C1904 1.391 . S
C1905 C1909 1.376 . S
C1906 C1904 1.394 . S
C1906 C1907 1.369 . S
C1906 C1910 1.531 . S
C1907 C1906 1.369 . S
C1907 C1908 1.410 . S
C1907 C1915 1.503 . S
C1908 C1907 1.410 . S
C1908 C1909 1.392 . S
C1908 C1911 1.511 . S
C1909 C1905 1.376 . S
C1909 C1908 1.392 . S
C1909 H1921 0.929 . S
C1910 C1906 1.531 . S
C1910 H1922 0.960 . S
C1910 H1923 0.962 . S
C1910 H1924 0.960 . S
C1911 C1908 1.511 . S
C1911 H1925 0.961 . S
C1911 H1926 0.961 . S
C1911 H1927 0.961 . S
C1912 C1913 1.370 . S
C1912 C1914 1.363 . S
C1912 H1928 0.931 . S
C1913 C1912 1.370 . S
C1913 C1917 1.408 . S
C1914 C1912 1.363 . S
C1914 C1915 1.370 . S
C1914 C1918 1.524 . S
C1915 C1907 1.503 . S
C1915 C1914 1.370 . S
C1915 C1916 1.403 . S
C1916 C1915 1.403 . S
C1916 C1917 1.404 . S
C1916 C1919 1.539 . S
C1917 C1913 1.408 . S
C1917 C1916 1.404 . S
C1917 H1929 0.930 . S
C1918 C1914 1.524 . S
C1918 H1930 0.956 . S
C1918 H1931 0.961 . S
C1918 H1932 0.961 . S
C1919 C1916 1.539 . S
C1919 H1933 0.958 . S
C1919 H1934 0.961 . S
C1919 H1935 0.960 . S
H1920 C1904 0.931 . S
H1921 C1909 0.929 . S
H1922 C1910 0.960 . S
H1923 C1910 0.962 . S
H1924 C1910 0.960 . S
H1925 C1911 0.961 . S
H1926 C1911 0.961 . S
H1927 C1911 0.961 . S
H1928 C1912 0.931 . S
H1929 C1917 0.930 . S
H1930 C1918 0.956 . S
H1931 C1918 0.961 . S
H1932 C1918 0.961 . S
H1933 C1919 0.958 . S
H1934 C1919 0.961 . S
H1935 C1919 0.960 . S
C1936 C1937 1.391 . S
C1936 C1938 1.394 . S
C1936 H1952 0.931 . S
C1937 C1936 1.391 . S
C1937 C1941 1.376 . S
C1938 C1936 1.394 . S
C1938 C1939 1.369 . S
C1938 C1942 1.531 . S
C1939 C1938 1.369 . S
C1939 C1940 1.410 . S
C1939 C1947 1.503 . S
C1940 C1939 1.410 . S
C1940 C1941 1.392 . S
C1940 C1943 1.511 . S
C1941 C1937 1.376 . S
C1941 C1940 1.392 . S
C1941 H1953 0.929 . S
C1942 C1938 1.531 . S
C1942 H1954 0.960 . S
C1942 H1955 0.962 . S
C1942 H1956 0.960 . S
C1943 C1940 1.511 . S
C1943 H1957 0.961 . S
C1943 H1958 0.961 . S
C1943 H1959 0.961 . S
C1944 C1945 1.370 . S
C1944 C1946 1.363 . S
C1944 H1960 0.931 . S
C1945 C1944 1.370 . S
C1945 C1949 1.408 . S
C1946 C1944 1.363 . S
C1946 C1947 1.370 . S
C1946 C1950 1.524 . S
C1947 C1939 1.503 . S
C1947 C1946 1.370 . S
C1947 C1948 1.403 . S
C1948 C1947 1.403 . S
C1948 C1949 1.404 . S
C1948 C1951 1.539 . S
C1949 C1945 1.408 . S
C1949 C1948 1.404 . S
C1949 H1961 0.930 . S
C1950 C1946 1.524 . S
C1950 H1962 0.956 . S
C1950 H1963 0.961 . S
C1950 H1964 0.961 . S
C1951 C1948 1.539 . S
C1951 H1965 0.958 . S
C1951 H1966 0.961 . S
C1951 H1967 0.960 . S
H1952 C1936 0.931 . S
H1953 C1941 0.929 . S
H1954 C1942 0.960 . S
H1955 C1942 0.962 . S
H1956 C1942 0.960 . S
H1957 C1943 0.961 . S
H1958 C1943 0.961 . S
H1959 C1943 0.961 . S
H1960 C1944 0.931 . S
H1961 C1949 0.930 . S
H1962 C1950 0.956 . S
H1963 C1950 0.961 . S
H1964 C1950 0.961 . S
H1965 C1951 0.958 . S
H1966 C1951 0.961 . S
H1967 C1951 0.960 . S
C1968 C1969 1.391 . S
C1968 C1970 1.394 . S
C1968 H1984 0.931 . S
C1969 C1968 1.391 . S
C1969 C1973 1.376 . S
C1970 C1968 1.394 . S
C1970 C1971 1.369 . S
C1970 C1974 1.531 . S
C1971 C1970 1.369 . S
C1971 C1972 1.410 . S
C1971 C1979 1.503 . S
C1972 C1971 1.410 . S
C1972 C1973 1.392 . S
C1972 C1975 1.511 . S
C1973 C1969 1.376 . S
C1973 C1972 1.392 . S
C1973 H1985 0.929 . S
C1974 C1970 1.531 . S
C1974 H1986 0.960 . S
C1974 H1987 0.962 . S
C1974 H1988 0.960 . S
C1975 C1972 1.511 . S
C1975 H1989 0.961 . S
C1975 H1990 0.961 . S
C1975 H1991 0.961 . S
C1976 C1977 1.370 . S
C1976 C1978 1.363 . S
C1976 H1992 0.931 . S
C1977 C1976 1.370 . S
C1977 C1981 1.408 . S
C1978 C1976 1.363 . S
C1978 C1979 1.370 . S
C1978 C1982 1.524 . S
C1979 C1971 1.503 . S
C1979 C1978 1.370 . S
C1979 C1980 1.403 . S
C1980 C1979 1.403 . S
C1980 C1981 1.404 . S
C1980 C1983 1.539 . S
C1981 C1977 1.408 . S
C1981 C1980 1.404 . S
C1981 H1993 0.930 1_565 S
C1982 C1978 1.524 . S
C1982 H1994 0.956 . S
C1982 H1995 0.961 . S
C1982 H1996 0.961 . S
C1983 C1980 1.539 . S
C1983 H1997 0.958 . S
C1983 H1998 0.967 . S
C1983 H1999 0.960 . S
H1984 C1968 0.931 . S
H1985 C1973 0.929 . S
H1986 C1974 0.960 . S
H1987 C1974 0.962 . S
H1988 C1974 0.960 . S
H1989 C1975 0.961 . S
H1990 C1975 0.961 . S
H1991 C1975 0.961 . S
H1992 C1976 0.931 . S
H1993 C1981 0.930 1_545 S
H1994 C1982 0.956 . S
H1995 C1982 0.961 . S
H1996 C1982 0.961 . S
H1997 C1983 0.958 . S
H1998 C1983 0.967 . S
H1999 C1983 0.960 . S
C2000 C2001 1.391 . S
C2000 C2002 1.394 . S
C2000 H2016 0.931 . S
C2001 C2000 1.391 . S
C2001 C2005 1.376 . S
C2002 C2000 1.394 . S
C2002 C2003 1.369 . S
C2002 C2006 1.531 . S
C2003 C2002 1.369 . S
C2003 C2004 1.410 . S
C2003 C2011 1.503 . S
C2004 C2003 1.410 . S
C2004 C2005 1.392 . S
C2004 C2007 1.511 . S
C2005 C2001 1.376 . S
C2005 C2004 1.392 . S
C2005 H2017 0.929 . S
C2006 C2002 1.531 . S
C2006 H2018 0.960 . S
C2006 H2019 0.962 . S
C2006 H2020 0.960 . S
C2007 C2004 1.511 . S
C2007 H2021 0.961 . S
C2007 H2022 0.961 . S
C2007 H2023 0.961 . S
C2008 C2009 1.370 . S
C2008 C2010 1.363 . S
C2008 H2024 0.931 . S
C2009 C2008 1.370 . S
C2009 C2013 1.408 . S
C2010 C2008 1.363 . S
C2010 C2011 1.370 . S
C2010 C2014 1.524 . S
C2011 C2003 1.503 . S
C2011 C2010 1.370 . S
C2011 C2012 1.403 . S
C2012 C2011 1.403 . S
C2012 C2013 1.404 . S
C2012 C2015 1.539 . S
C2013 C2009 1.408 . S
C2013 C2012 1.404 . S
C2013 H2025 0.930 . S
C2014 C2010 1.524 . S
C2014 H2026 0.956 . S
C2014 H2027 0.961 . S
C2014 H2028 0.961 . S
C2015 C2012 1.539 . S
C2015 H2029 0.958 . S
C2015 H2030 0.961 . S
C2015 H2031 0.960 . S
H2016 C2000 0.931 . S
H2017 C2005 0.929 . S
H2018 C2006 0.960 . S
H2019 C2006 0.962 . S
H2020 C2006 0.960 . S
H2021 C2007 0.961 . S
H2022 C2007 0.961 . S
H2023 C2007 0.961 . S
H2024 C2008 0.931 . S
H2025 C2013 0.930 . S
H2026 C2014 0.956 . S
H2027 C2014 0.961 . S
H2028 C2014 0.961 . S
H2029 C2015 0.958 . S
H2030 C2015 0.961 . S
H2031 C2015 0.960 . S
C2032 C2033 1.391 . S
C2032 C2034 1.394 . S
C2032 H2048 0.931 . S
C2033 C2032 1.391 . S
C2033 C2037 1.376 . S
C2034 C2032 1.394 . S
C2034 C2035 1.369 . S
C2034 C2038 1.531 . S
C2035 C2034 1.369 . S
C2035 C2036 1.410 . S
C2035 C2043 1.503 . S
C2036 C2035 1.410 . S
C2036 C2037 1.392 . S
C2036 C2039 1.511 . S
C2037 C2033 1.376 . S
C2037 C2036 1.392 . S
C2037 H2049 0.929 . S
C2038 C2034 1.531 . S
C2038 H2050 0.960 . S
C2038 H2051 0.962 . S
C2038 H2052 0.960 . S
C2039 C2036 1.511 . S
C2039 H2053 0.961 . S
C2039 H2054 0.961 . S
C2039 H2055 0.961 . S
C2040 C2041 1.370 . S
C2040 C2042 1.363 . S
C2040 H2056 0.931 . S
C2041 C2040 1.370 . S
C2041 C2045 1.408 . S
C2042 C2040 1.363 . S
C2042 C2043 1.370 . S
C2042 C2046 1.524 . S
C2043 C2035 1.503 . S
C2043 C2042 1.370 . S
C2043 C2044 1.403 . S
C2044 C2043 1.403 . S
C2044 C2045 1.404 . S
C2044 C2047 1.539 . S
C2045 C2041 1.408 . S
C2045 C2044 1.404 . S
C2045 H2057 0.930 . S
C2046 C2042 1.524 . S
C2046 H2058 0.956 . S
C2046 H2059 0.961 . S
C2046 H2060 0.961 . S
C2047 C2044 1.539 . S
C2047 H2061 0.958 . S
C2047 H2062 0.961 . S
C2047 H2063 0.960 . S
H2048 C2032 0.931 . S
H2049 C2037 0.929 . S
H2050 C2038 0.960 . S
H2051 C2038 0.962 . S
H2052 C2038 0.960 . S
H2053 C2039 0.961 . S
H2054 C2039 0.961 . S
H2055 C2039 0.961 . S
H2056 C2040 0.931 . S
H2057 C2045 0.930 . S
H2058 C2046 0.956 . S
H2059 C2046 0.961 . S
H2060 C2046 0.961 . S
H2061 C2047 0.958 . S
H2062 C2047 0.961 . S
H2063 C2047 0.960 . S
C2064 C2065 1.391 . S
C2064 C2066 1.394 . S
C2064 H2080 0.931 . S
C2065 C2064 1.391 . S
C2065 C2069 1.376 . S
C2066 C2064 1.394 . S
C2066 C2067 1.369 . S
C2066 C2070 1.531 . S
C2067 C2066 1.369 . S
C2067 C2068 1.410 . S
C2067 C2075 1.503 . S
C2068 C2067 1.410 . S
C2068 C2069 1.392 . S
C2068 C2071 1.511 . S
C2069 C2065 1.376 . S
C2069 C2068 1.392 . S
C2069 H2081 0.929 . S
C2070 C2066 1.531 . S
C2070 H2082 0.960 . S
C2070 H2083 0.962 . S
C2070 H2084 0.960 . S
C2071 C2068 1.511 . S
C2071 H2085 0.961 . S
C2071 H2086 0.961 . S
C2071 H2087 0.961 . S
C2072 C2073 1.370 . S
C2072 C2074 1.363 . S
C2072 H2088 0.931 . S
C2073 C2072 1.370 . S
C2073 C2077 1.408 . S
C2074 C2072 1.363 . S
C2074 C2075 1.370 . S
C2074 C2078 1.524 . S
C2075 C2067 1.503 . S
C2075 C2074 1.370 . S
C2075 C2076 1.403 . S
C2076 C2075 1.403 . S
C2076 C2077 1.404 . S
C2076 C2079 1.539 . S
C2077 C2073 1.408 . S
C2077 C2076 1.404 . S
C2077 H2089 0.930 . S
C2078 C2074 1.524 . S
C2078 H2090 0.956 . S
C2078 H2091 0.961 . S
C2078 H2092 0.961 . S
C2079 C2076 1.539 . S
C2079 H2093 0.958 . S
C2079 H2094 0.961 . S
C2079 H2095 0.960 . S
H2080 C2064 0.931 . S
H2081 C2069 0.929 . S
H2082 C2070 0.960 . S
H2083 C2070 0.962 . S
H2084 C2070 0.960 . S
H2085 C2071 0.961 . S
H2086 C2071 0.961 . S
H2087 C2071 0.961 . S
H2088 C2072 0.931 . S
H2089 C2077 0.930 . S
H2090 C2078 0.956 . S
H2091 C2078 0.961 . S
H2092 C2078 0.961 . S
H2093 C2079 0.958 . S
H2094 C2079 0.961 . S
H2095 C2079 0.960 . S
C2096 C2097 1.391 . S
C2096 C2098 1.394 . S
C2096 H2112 0.931 1_545 S
C2097 C2096 1.391 . S
C2097 C2101 1.376 . S
C2098 C2096 1.394 . S
C2098 C2099 1.369 . S
C2098 C2102 1.531 . S
C2099 C2098 1.369 . S
C2099 C2100 1.410 . S
C2099 C2107 1.503 . S
C2100 C2099 1.410 . S
C2100 C2101 1.392 . S
C2100 C2103 1.511 . S
C2101 C2097 1.376 . S
C2101 C2100 1.392 . S
C2101 H2113 0.929 . S
C2102 C2098 1.531 . S
C2102 H2114 0.960 . S
C2102 H2115 0.951 1_545 S
C2102 H2116 0.960 1_545 S
C2103 C2100 1.511 . S
C2103 H2117 0.961 . S
C2103 H2118 0.961 . S
C2103 H2119 0.961 . S
C2104 C2105 1.370 . S
C2104 C2106 1.363 . S
C2104 H2120 0.931 . S
C2105 C2104 1.370 . S
C2105 C2109 1.408 . S
C2106 C2104 1.363 . S
C2106 C2107 1.370 . S
C2106 C2110 1.524 . S
C2107 C2099 1.503 . S
C2107 C2106 1.370 . S
C2107 C2108 1.403 . S
C2108 C2107 1.403 . S
C2108 C2109 1.404 . S
C2108 C2111 1.539 . S
C2109 C2105 1.408 . S
C2109 C2108 1.404 . S
C2109 H2121 0.930 . S
C2110 C2106 1.524 . S
C2110 H2122 0.956 . S
C2110 H2123 0.961 . S
C2110 H2124 0.961 . S
C2111 C2108 1.539 . S
C2111 H2125 0.958 . S
C2111 H2126 0.961 . S
C2111 H2127 0.960 . S
H2112 C2096 0.931 1_565 S
H2113 C2101 0.929 . S
H2114 C2102 0.960 . S
H2115 C2102 0.951 1_565 S
H2116 C2102 0.960 1_565 S
H2117 C2103 0.961 . S
H2118 C2103 0.961 . S
H2119 C2103 0.961 . S
H2120 C2104 0.931 . S
H2121 C2109 0.930 . S
H2122 C2110 0.956 . S
H2123 C2110 0.961 . S
H2124 C2110 0.961 . S
H2125 C2111 0.958 . S
H2126 C2111 0.961 . S
H2127 C2111 0.960 . S
C2128 C2129 1.391 . S
C2128 C2130 1.394 . S
C2128 H2144 0.931 . S
C2129 C2128 1.391 . S
C2129 C2133 1.376 . S
C2130 C2128 1.394 . S
C2130 C2131 1.369 . S
C2130 C2134 1.531 . S
C2131 C2130 1.369 . S
C2131 C2132 1.410 . S
C2131 C2139 1.503 . S
C2132 C2131 1.410 . S
C2132 C2133 1.392 . S
C2132 C2135 1.511 . S
C2133 C2129 1.376 . S
C2133 C2132 1.392 . S
C2133 H2145 0.929 . S
C2134 C2130 1.531 . S
C2134 H2146 0.960 . S
C2134 H2147 0.962 . S
C2134 H2148 0.960 . S
C2135 C2132 1.511 . S
C2135 H2149 0.961 . S
C2135 H2150 0.961 . S
C2135 H2151 0.961 . S
C2136 C2137 1.370 . S
C2136 C2138 1.363 . S
C2136 H2152 0.931 . S
C2137 C2136 1.370 . S
C2137 C2141 1.408 . S
C2138 C2136 1.363 . S
C2138 C2139 1.370 . S
C2138 C2142 1.524 . S
C2139 C2131 1.503 . S
C2139 C2138 1.370 . S
C2139 C2140 1.403 . S
C2140 C2139 1.403 . S
C2140 C2141 1.404 . S
C2140 C2143 1.539 . S
C2141 C2137 1.408 . S
C2141 C2140 1.404 . S
C2141 H2153 0.930 . S
C2142 C2138 1.524 . S
C2142 H2154 0.956 . S
C2142 H2155 0.961 . S
C2142 H2156 0.961 . S
C2143 C2140 1.539 . S
C2143 H2157 0.958 . S
C2143 H2158 0.961 . S
C2143 H2159 0.960 . S
H2144 C2128 0.931 . S
H2145 C2133 0.929 . S
H2146 C2134 0.960 . S
H2147 C2134 0.962 . S
H2148 C2134 0.960 . S
H2149 C2135 0.961 . S
H2150 C2135 0.961 . S
H2151 C2135 0.961 . S
H2152 C2136 0.931 . S
H2153 C2141 0.930 . S
H2154 C2142 0.956 . S
H2155 C2142 0.961 . S
H2156 C2142 0.961 . S
H2157 C2143 0.958 . S
H2158 C2143 0.961 . S
H2159 C2143 0.960 . S
C2160 C2161 1.391 . S
C2160 C2162 1.394 . S
C2160 H2176 0.931 . S
C2161 C2160 1.391 . S
C2161 C2165 1.376 . S
C2162 C2160 1.394 . S
C2162 C2163 1.369 . S
C2162 C2166 1.531 . S
C2163 C2162 1.369 . S
C2163 C2164 1.410 . S
C2163 C2171 1.503 . S
C2164 C2163 1.410 . S
C2164 C2165 1.392 . S
C2164 C2167 1.511 . S
C2165 C2161 1.376 . S
C2165 C2164 1.392 . S
C2165 H2177 0.929 . S
C2166 C2162 1.531 . S
C2166 H2178 0.960 . S
C2166 H2179 0.962 . S
C2166 H2180 0.960 . S
C2167 C2164 1.511 . S
C2167 H2181 0.961 . S
C2167 H2182 0.961 . S
C2167 H2183 0.961 . S
C2168 C2169 1.370 . S
C2168 C2170 1.363 . S
C2168 H2184 0.931 . S
C2169 C2168 1.370 . S
C2169 C2173 1.408 . S
C2170 C2168 1.363 . S
C2170 C2171 1.370 . S
C2170 C2174 1.524 . S
C2171 C2163 1.503 . S
C2171 C2170 1.370 . S
C2171 C2172 1.403 . S
C2172 C2171 1.403 . S
C2172 C2173 1.404 . S
C2172 C2175 1.539 . S
C2173 C2169 1.408 . S
C2173 C2172 1.404 . S
C2173 H2185 0.930 . S
C2174 C2170 1.524 . S
C2174 H2186 0.956 . S
C2174 H2187 0.961 . S
C2174 H2188 0.961 . S
C2175 C2172 1.539 . S
C2175 H2189 0.958 . S
C2175 H2190 0.961 . S
C2175 H2191 0.960 . S
H2176 C2160 0.931 . S
H2177 C2165 0.929 . S
H2178 C2166 0.960 . S
H2179 C2166 0.962 . S
H2180 C2166 0.960 . S
H2181 C2167 0.961 . S
H2182 C2167 0.961 . S
H2183 C2167 0.961 . S
H2184 C2168 0.931 . S
H2185 C2173 0.930 . S
H2186 C2174 0.956 . S
H2187 C2174 0.961 . S
H2188 C2174 0.961 . S
H2189 C2175 0.958 . S
H2190 C2175 0.961 . S
H2191 C2175 0.960 . S
C2192 C2193 1.391 . S
C2192 C2194 1.394 . S
C2192 H2208 0.931 . S
C2193 C2192 1.391 . S
C2193 C2197 1.376 . S
C2194 C2192 1.394 . S
C2194 C2195 1.369 . S
C2194 C2198 1.531 . S
C2195 C2194 1.369 . S
C2195 C2196 1.410 . S
C2195 C2203 1.503 . S
C2196 C2195 1.410 . S
C2196 C2197 1.392 . S
C2196 C2199 1.511 . S
C2197 C2193 1.376 . S
C2197 C2196 1.392 . S
C2197 H2209 0.929 . S
C2198 C2194 1.531 . S
C2198 H2210 0.960 . S
C2198 H2211 0.962 . S
C2198 H2212 0.960 . S
C2199 C2196 1.511 . S
C2199 H2213 0.961 . S
C2199 H2214 0.961 . S
C2199 H2215 0.961 . S
C2200 C2201 1.370 . S
C2200 C2202 1.363 . S
C2200 H2216 0.931 . S
C2201 C2200 1.370 . S
C2201 C2205 1.408 . S
C2202 C2200 1.363 . S
C2202 C2203 1.370 . S
C2202 C2206 1.524 . S
C2203 C2195 1.503 . S
C2203 C2202 1.370 . S
C2203 C2204 1.403 . S
C2204 C2203 1.403 . S
C2204 C2205 1.404 . S
C2204 C2207 1.539 . S
C2205 C2201 1.408 . S
C2205 C2204 1.404 . S
C2205 H2217 0.930 . S
C2206 C2202 1.524 . S
C2206 H2218 0.956 . S
C2206 H2219 0.961 . S
C2206 H2220 0.961 . S
C2207 C2204 1.539 . S
C2207 H2221 0.958 . S
C2207 H2222 0.961 . S
C2207 H2223 0.960 . S
H2208 C2192 0.931 . S
H2209 C2197 0.929 . S
H2210 C2198 0.960 . S
H2211 C2198 0.962 . S
H2212 C2198 0.960 . S
H2213 C2199 0.961 . S
H2214 C2199 0.961 . S
H2215 C2199 0.961 . S
H2216 C2200 0.931 . S
H2217 C2205 0.930 . S
H2218 C2206 0.956 . S
H2219 C2206 0.961 . S
H2220 C2206 0.961 . S
H2221 C2207 0.958 . S
H2222 C2207 0.961 . S
H2223 C2207 0.960 . S
C2224 C2225 1.391 . S
C2224 C2226 1.394 . S
C2224 H2240 0.931 . S
C2225 C2224 1.391 . S
C2225 C2229 1.376 . S
C2226 C2224 1.394 . S
C2226 C2227 1.369 . S
C2226 C2230 1.531 . S
C2227 C2226 1.369 . S
C2227 C2228 1.410 . S
C2227 C2235 1.503 . S
C2228 C2227 1.410 . S
C2228 C2229 1.392 . S
C2228 C2231 1.518 . S
C2229 C2225 1.376 . S
C2229 C2228 1.392 . S
C2229 H2241 0.929 1_545 S
C2230 C2226 1.531 . S
C2230 H2242 0.960 . S
C2230 H2243 0.962 . S
C2230 H2244 0.960 . S
C2231 C2228 1.518 . S
C2231 H2245 0.951 1_545 S
C2231 H2246 0.969 . S
C2231 H2247 0.956 1_545 S
C2232 C2233 1.370 . S
C2232 C2234 1.363 . S
C2232 H2248 0.931 . S
C2233 C2232 1.370 . S
C2233 C2237 1.408 . S
C2234 C2232 1.363 . S
C2234 C2235 1.370 . S
C2234 C2238 1.524 . S
C2235 C2227 1.503 . S
C2235 C2234 1.370 . S
C2235 C2236 1.403 . S
C2236 C2235 1.403 . S
C2236 C2237 1.404 . S
C2236 C2239 1.539 . S
C2237 C2233 1.408 . S
C2237 C2236 1.404 . S
C2237 H2249 0.930 . S
C2238 C2234 1.524 . S
C2238 H2250 0.956 . S
C2238 H2251 0.961 . S
C2238 H2252 0.961 . S
C2239 C2236 1.539 . S
C2239 H2253 0.958 . S
C2239 H2254 0.961 . S
C2239 H2255 0.960 . S
H2240 C2224 0.931 . S
H2241 C2229 0.929 1_565 S
H2242 C2230 0.960 . S
H2243 C2230 0.962 . S
H2244 C2230 0.960 . S
H2245 C2231 0.951 1_565 S
H2246 C2231 0.969 . S
H2247 C2231 0.956 1_565 S
H2248 C2232 0.931 . S
H2249 C2237 0.930 . S
H2250 C2238 0.956 . S
H2251 C2238 0.961 . S
H2252 C2238 0.961 . S
H2253 C2239 0.958 . S
H2254 C2239 0.961 . S
H2255 C2239 0.960 . S
C465 C79 1.241 . S
C473 C21 1.295 . S
C497 C108 1.267 . S
C505 C50 1.273 . S
C529 C137 1.219 . S
C537 C195 1.301 . S
C561 C166 1.287 . S
C569 C224 1.264 . S
C593 C253 1.229 . S
C601 C311 1.296 . S
C625 C282 1.330 . S
C633 C340 1.251 . S
C657 C427 1.323 . S
C665 C369 1.254 . S
C689 C456 1.272 . S
C697 C398 1.275 . S
C721 C3 1.012 . S
C729 C266 0.934 . S
C753 C295 0.954 . S
C761 C32 1.021 . S
C785 C61 1.012 . S
C793 C324 0.934 . S
C817 C237 0.911 . S
C825 C90 1.027 . S
C849 C119 1.024 . S
C857 C440 0.940 . S
C881 C148 1.012 . S
C889 C353 0.963 . S
C913 C177 1.039 . S
C921 C382 0.968 . S
C945 C206 1.018 . S
C953 C411 0.935 . S
C977 C235 1.040 . S
C985 C34 0.960 . S
C1009 C63 1.008 . S
C1017 C264 1.024 . S
C1041 C293 1.008 . S
C1049 C92 0.950 . S
C1073 C5 0.974 . S
C1081 C322 1.034 . S
C1105 C351 1.008 . S
C1113 C208 0.957 . S
C1137 C121 0.918 . S
C1145 C380 1.030 . S
C1169 C409 1.008 . S
C1177 C150 0.956 . S
C1201 C179 0.948 . S
C1209 C438 1.033 . S
C1233 C184 1.454 . S
C1241 C10 1.436 . S
C1265 C39 1.382 . S
C1273 C213 1.434 . S
C1297 C68 1.441 . S
C1305 C126 1.440 . S
C1329 C97 1.371 . S
C1337 C155 1.427 . S
C1361 C416 1.449 . S
C1369 C242 1.433 . S
C1393 C271 1.402 . S
C1401 C445 1.441 . S
C1425 C358 1.390 . S
C1433 C300 1.440 . S
C1457 C387 1.413 . S
C1465 C329 1.400 . S
C1489 C245 2.263 . S
C1497 C13 2.291 . S
C1521 C274 2.302 . S
C1529 C42 2.270 . S
C1553 C303 2.303 . S
C1561 C71 2.270 . S
C1585 C332 2.270 . S
C1593 C100 2.287 . S
C1617 C361 2.249 . S
C1625 C129 2.292 . S
C1649 C158 2.263 . S
C1657 C390 2.290 . S
C1681 C187 2.264 . S
C1689 C419 2.286 . S
C1713 C216 2.268 . S
C1721 C448 2.287 . S
C1745 C37 1.933 . S
C1753 C15 2.102 . S
C1777 C66 1.944 . S
C1785 C44 2.103 . S
C1809 C95 1.946 1_655 S
C1817 C73 2.104 . S
C1841 C8 1.917 1_565 S
C1849 C102 2.099 . S
C1873 C131 2.087 . S
C1881 C211 1.910 . S
C1905 C160 2.101 . S
C1913 C124 1.921 . S
C1937 C189 2.083 . S
C1945 C153 1.906 1_655 S
C1969 C218 2.093 . S
C1977 C182 1.912 1_565 S
C2001 C247 2.108 . S
C2009 C269 1.928 . S
C2033 C276 2.078 . S
C2041 C298 1.898 . S
C2065 C305 2.107 . S
C2073 C327 1.927 1_455 S
C2097 C240 1.901 1_545 S
C2105 C334 2.097 . S
C2129 C443 1.934 . S
C2137 C363 2.100 . S
C2161 C392 2.074 . S
C2169 C356 1.899 . S
C2193 C385 1.871 1_455 S
C2201 C421 2.089 . S
C2225 C414 1.923 1_545 S
C2233 C450 2.098 . S
