# Generated by pormake.
# Topology wkj, (6)-cn, num edge types: 1
# Building blocks:
#     Node 0, Type 0, BuildingBlock: MIFKUJ_clean_sbu_0, # of connection points: 6
#     Node 1, Type 0, BuildingBlock: MIFKUJ_clean_sbu_0, # of connection points: 6
#     Node 2, Type 0, BuildingBlock: MIFKUJ_clean_sbu_0, # of connection points: 6
#     Node 3, Type 0, BuildingBlock: MIFKUJ_clean_sbu_0, # of connection points: 6
#     Node 4, Type 0, BuildingBlock: MIFKUJ_clean_sbu_0, # of connection points: 6
#     Node 5, Type 0, BuildingBlock: MIFKUJ_clean_sbu_0, # of connection points: 6
#     Node 6, Type 0, BuildingBlock: MIFKUJ_clean_sbu_0, # of connection points: 6
#     Node 7, Type 0, BuildingBlock: MIFKUJ_clean_sbu_0, # of connection points: 6
#     Node 8, Type 0, BuildingBlock: MIFKUJ_clean_sbu_0, # of connection points: 6
#     Node 9, Type 0, BuildingBlock: MIFKUJ_clean_sbu_0, # of connection points: 6
#     Node 10, Type 0, BuildingBlock: MIFKUJ_clean_sbu_0, # of connection points: 6
#     Node 11, Type 0, BuildingBlock: MIFKUJ_clean_sbu_0, # of connection points: 6
#     Edge 12, Type (0, 0), BuildingBlock: EYOCIG_clean_linker_4, # of connection points: 2
#     Edge 13, Type (0, 0), BuildingBlock: EYOCIG_clean_linker_4, # of connection points: 2
#     Edge 14, Type (0, 0), BuildingBlock: EYOCIG_clean_linker_4, # of connection points: 2
#     Edge 15, Type (0, 0), BuildingBlock: EYOCIG_clean_linker_4, # of connection points: 2
#     Edge 16, Type (0, 0), BuildingBlock: EYOCIG_clean_linker_4, # of connection points: 2
#     Edge 17, Type (0, 0), BuildingBlock: EYOCIG_clean_linker_4, # of connection points: 2
#     Edge 18, Type (0, 0), BuildingBlock: EYOCIG_clean_linker_4, # of connection points: 2
#     Edge 19, Type (0, 0), BuildingBlock: EYOCIG_clean_linker_4, # of connection points: 2
#     Edge 20, Type (0, 0), BuildingBlock: EYOCIG_clean_linker_4, # of connection points: 2
#     Edge 21, Type (0, 0), BuildingBlock: EYOCIG_clean_linker_4, # of connection points: 2
#     Edge 22, Type (0, 0), BuildingBlock: EYOCIG_clean_linker_4, # of connection points: 2
#     Edge 23, Type (0, 0), BuildingBlock: EYOCIG_clean_linker_4, # of connection points: 2
#     Edge 24, Type (0, 0), BuildingBlock: EYOCIG_clean_linker_4, # of connection points: 2
#     Edge 25, Type (0, 0), BuildingBlock: EYOCIG_clean_linker_4, # of connection points: 2
#     Edge 26, Type (0, 0), BuildingBlock: EYOCIG_clean_linker_4, # of connection points: 2
#     Edge 27, Type (0, 0), BuildingBlock: EYOCIG_clean_linker_4, # of connection points: 2
#     Edge 28, Type (0, 0), BuildingBlock: EYOCIG_clean_linker_4, # of connection points: 2
#     Edge 29, Type (0, 0), BuildingBlock: EYOCIG_clean_linker_4, # of connection points: 2
#     Edge 30, Type (0, 0), BuildingBlock: EYOCIG_clean_linker_4, # of connection points: 2
#     Edge 31, Type (0, 0), BuildingBlock: EYOCIG_clean_linker_4, # of connection points: 2
#     Edge 32, Type (0, 0), BuildingBlock: EYOCIG_clean_linker_4, # of connection points: 2
#     Edge 33, Type (0, 0), BuildingBlock: EYOCIG_clean_linker_4, # of connection points: 2
#     Edge 34, Type (0, 0), BuildingBlock: EYOCIG_clean_linker_4, # of connection points: 2
#     Edge 35, Type (0, 0), BuildingBlock: EYOCIG_clean_linker_4, # of connection points: 2
#     Edge 36, Type (0, 0), BuildingBlock: EYOCIG_clean_linker_4, # of connection points: 2
#     Edge 37, Type (0, 0), BuildingBlock: EYOCIG_clean_linker_4, # of connection points: 2
#     Edge 38, Type (0, 0), BuildingBlock: EYOCIG_clean_linker_4, # of connection points: 2
#     Edge 39, Type (0, 0), BuildingBlock: EYOCIG_clean_linker_4, # of connection points: 2
#     Edge 40, Type (0, 0), BuildingBlock: EYOCIG_clean_linker_4, # of connection points: 2
#     Edge 41, Type (0, 0), BuildingBlock: EYOCIG_clean_linker_4, # of connection points: 2
#     Edge 42, Type (0, 0), BuildingBlock: EYOCIG_clean_linker_4, # of connection points: 2
#     Edge 43, Type (0, 0), BuildingBlock: EYOCIG_clean_linker_4, # of connection points: 2
#     Edge 44, Type (0, 0), BuildingBlock: EYOCIG_clean_linker_4, # of connection points: 2
#     Edge 45, Type (0, 0), BuildingBlock: EYOCIG_clean_linker_4, # of connection points: 2
#     Edge 46, Type (0, 0), BuildingBlock: EYOCIG_clean_linker_4, # of connection points: 2
#     Edge 47, Type (0, 0), BuildingBlock: EYOCIG_clean_linker_4, # of connection points: 2
# Relax obj value: 0.304
# Max RMSD: 0.213
# Mean RMSD: 0.213
data_MOF--net-wkj--node1-MIFKUJ_clean_sbu_0--edge1-EYOCIG_clean_linker_4
_symmetry_space_group_name_H-M    P1
_symmetry_Int_Tables_number       1
_symmetry_cell_setting            triclinic
loop_
_symmetry_equiv_pos_as_xyz
'x, y, z'
_cell_length_a     36.732227
_cell_length_b     36.741597
_cell_length_c     25.758252
_cell_angle_alpha  90.032894
_cell_angle_beta   89.958977
_cell_angle_gamma 119.961
loop_
_atom_site_label
_atom_site_type_symbol
_atom_site_fract_x
_atom_site_fract_y
_atom_site_fract_z
_atom_type_partial_charge
Zn0 Zn 0.44588 0.09079 0.16018 0.0
Zn1 Zn 0.42984 0.09705 0.32096 0.0
C2 C 0.39434 0.04225 0.08108 0.0
O3 O 0.42752 0.03774 0.07829 0.0
C4 C 0.49316 0.1413 0.39379 0.0
O5 O 0.47166 0.16093 0.39708 0.0
O6 O 0.49697 0.12296 0.11399 0.0
O7 O 0.44522 0.12385 0.22179 0.0
O8 O 0.43341 0.15005 0.29079 0.0
C9 C 0.50152 0.15288 0.08488 0.0
O10 O 0.47395 0.16564 0.08663 0.0
O11 O 0.393 0.06618 0.11577 0.0
C12 C 0.38087 0.04035 0.39469 0.0
O13 O 0.41062 0.03103 0.38722 0.0
O14 O 0.38136 0.0701 0.36947 0.0
O15 O 0.41883 0.05689 0.26076 0.0
O16 O 0.44762 0.04208 0.19619 0.0
O17 O 0.48262 0.11213 0.36066 0.0
C18 C 0.43863 0.15114 0.24206 0.0
C19 C 0.43676 0.03749 0.24383 0.0
Zn20 Zn 0.33982 0.45675 0.4938 0.0
Zn21 Zn 0.31585 0.43768 0.65316 0.0
C22 C 0.33605 0.40473 0.41491 0.0
O23 O 0.37376 0.43781 0.41183 0.0
C24 C 0.33516 0.50095 0.72666 0.0
O25 O 0.29402 0.47988 0.72975 0.0
O26 O 0.35774 0.5071 0.44694 0.0
O27 O 0.30767 0.45744 0.55622 0.0
O28 O 0.26684 0.44214 0.62286 0.0
C29 C 0.33123 0.51008 0.41819 0.0
O30 O 0.29127 0.48161 0.42117 0.0
O31 O 0.31104 0.40356 0.4499 0.0
C32 C 0.3229 0.38857 0.7274 0.0
O33 O 0.36194 0.41861 0.72093 0.0
O34 O 0.29391 0.38885 0.70126 0.0
O35 O 0.34525 0.4267 0.59279 0.0
O36 O 0.38994 0.45783 0.52964 0.0
O37 O 0.35362 0.49016 0.69353 0.0
C38 C 0.27278 0.44943 0.57462 0.0
C39 C 0.38285 0.44534 0.5767 0.0
Zn40 Zn 0.86613 0.34738 0.82666 0.0
Zn41 Zn 0.86098 0.32412 0.9866 0.0
C42 C 0.91375 0.34262 0.74775 0.0
O43 O 0.91903 0.38059 0.7448 0.0
C44 C 0.81711 0.34372 0.05983 0.0
O45 O 0.79701 0.30259 0.06286 0.0
O46 O 0.83435 0.36665 0.78041 0.0
O47 O 0.83327 0.31548 0.88919 0.0
O48 O 0.8074 0.27532 0.95634 0.0
C49 C 0.80427 0.34113 0.7516 0.0
O50 O 0.79156 0.30085 0.75356 0.0
O51 O 0.88957 0.31775 0.78256 0.0
C52 C 0.9169 0.33056 0.06088 0.0
O53 O 0.92636 0.36973 0.05431 0.0
O54 O 0.88743 0.30176 0.0348 0.0
O55 O 0.90138 0.35312 0.92618 0.0
O56 O 0.9158 0.39718 0.86217 0.0
O57 O 0.84647 0.36213 0.02685 0.0
C58 C 0.80613 0.28091 0.908 0.0
C59 C 0.92097 0.39052 0.90948 0.0
Zn60 Zn 0.5012 0.87394 0.16054 0.0
Zn61 Zn 0.51828 0.86829 0.32063 0.0
C62 C 0.55334 0.92243 0.08207 0.0
O63 O 0.52015 0.92689 0.07888 0.0
C64 C 0.45536 0.8242 0.39404 0.0
O65 O 0.47696 0.80465 0.39695 0.0
O66 O 0.45085 0.84155 0.1135 0.0
O67 O 0.50092 0.84107 0.22261 0.0
O68 O 0.51381 0.81481 0.29052 0.0
C69 C 0.44754 0.81197 0.08463 0.0
O70 O 0.47571 0.80004 0.08749 0.0
O71 O 0.55447 0.89847 0.11686 0.0
C72 C 0.56728 0.92425 0.39483 0.0
O73 O 0.53772 0.93384 0.38754 0.0
O74 O 0.56677 0.89468 0.36911 0.0
O75 O 0.52987 0.90886 0.26033 0.0
O76 O 0.5 0.923 0.1963 0.0
O77 O 0.46569 0.85337 0.36095 0.0
C78 C 0.50759 0.81361 0.24204 0.0
C79 C 0.51204 0.92841 0.24353 0.0
Zn80 Zn 0.60947 0.50936 0.49408 0.0
Zn81 Zn 0.63317 0.52741 0.65416 0.0
C82 C 0.61349 0.56113 0.4146 0.0
O83 O 0.57567 0.5282 0.41171 0.0
C84 C 0.6148 0.46437 0.72789 0.0
O85 O 0.65595 0.48572 0.73067 0.0
O86 O 0.59115 0.45888 0.44726 0.0
O87 O 0.64186 0.50858 0.55633 0.0
O88 O 0.68239 0.52366 0.62329 0.0
C89 C 0.6175 0.45551 0.41858 0.0
O90 O 0.65758 0.48356 0.42174 0.0
O91 O 0.63838 0.56235 0.44976 0.0
C92 C 0.62609 0.57692 0.72792 0.0
O93 O 0.58703 0.54684 0.72167 0.0
O94 O 0.65504 0.57642 0.7019 0.0
O95 O 0.60351 0.53794 0.59389 0.0
O96 O 0.5593 0.50843 0.53005 0.0
O97 O 0.59603 0.47492 0.69495 0.0
C98 C 0.67682 0.51699 0.5749 0.0
C99 C 0.56607 0.52008 0.57744 0.0
Zn100 Zn 0.08291 0.61898 0.82705 0.0
Zn101 Zn 0.08829 0.64141 0.98754 0.0
C102 C 0.03459 0.62212 0.74792 0.0
O103 O 0.02986 0.58434 0.74535 0.0
C104 C 0.13246 0.62201 0.06046 0.0
O105 O 0.15236 0.66312 0.06382 0.0
O106 O 0.11522 0.59999 0.78112 0.0
O107 O 0.11564 0.65261 0.88879 0.0
O108 O 0.14147 0.69081 0.95764 0.0
C109 C 0.14492 0.62524 0.75164 0.0
O110 O 0.15739 0.66549 0.75289 0.0
O111 O 0.05862 0.6474 0.78247 0.0
C112 C 0.03156 0.63392 0.06125 0.0
O113 O 0.0223 0.59485 0.05418 0.0
O114 O 0.06126 0.66303 0.03581 0.0
O115 O 0.04826 0.61231 0.92718 0.0
O116 O 0.03385 0.56867 0.86279 0.0
O117 O 0.10321 0.60363 0.02738 0.0
C118 C 0.1428 0.68656 0.90898 0.0
C119 C 0.02877 0.575 0.91024 0.0
Zn120 Zn 0.8655 0.50976 0.48514 0.0
Zn121 Zn 0.8598 0.52727 0.32492 0.0
C122 C 0.91348 0.5612 0.56459 0.0
O123 O 0.91821 0.52816 0.56739 0.0
C124 C 0.8161 0.46483 0.2508 0.0
O125 O 0.79643 0.48631 0.24784 0.0
O126 O 0.83297 0.45916 0.53171 0.0
O127 O 0.83262 0.5101 0.42336 0.0
O128 O 0.80661 0.52317 0.35531 0.0
C129 C 0.80329 0.45571 0.56051 0.0
O130 O 0.79129 0.48382 0.55768 0.0
O131 O 0.88984 0.56259 0.52955 0.0
C132 C 0.91528 0.57639 0.25009 0.0
O133 O 0.92492 0.5468 0.25671 0.0
O134 O 0.88614 0.57597 0.2767 0.0
O135 O 0.90014 0.53802 0.38506 0.0
O136 O 0.91429 0.50816 0.44905 0.0
O137 O 0.84497 0.47497 0.28427 0.0
C138 C 0.80552 0.51732 0.40387 0.0
C139 C 0.91927 0.5197 0.40164 0.0
Zn140 Zn 0.33926 0.87411 0.8179 0.0
Zn141 Zn 0.31468 0.86787 0.65833 0.0
C142 C 0.33457 0.92123 0.89762 0.0
O143 O 0.3727 0.92683 0.90001 0.0
C144 C 0.33337 0.82342 0.58495 0.0
O145 O 0.29226 0.80398 0.58173 0.0
O146 O 0.35908 0.84274 0.86392 0.0
O147 O 0.30739 0.8407 0.75551 0.0
O148 O 0.26571 0.81509 0.68961 0.0
C149 C 0.33349 0.81283 0.89289 0.0
O150 O 0.29324 0.80032 0.89093 0.0
O151 O 0.30962 0.89716 0.86278 0.0
C152 C 0.32154 0.92313 0.58321 0.0
O153 O 0.36068 0.93269 0.59052 0.0
O154 O 0.29254 0.89394 0.6094 0.0
O155 O 0.34404 0.9088 0.71823 0.0
O156 O 0.38854 0.92411 0.78191 0.0
O157 O 0.35209 0.85242 0.61829 0.0
C158 C 0.27198 0.81434 0.73784 0.0
C159 C 0.38148 0.92907 0.73468 0.0
Zn160 Zn 0.44756 0.34717 0.15153 0.0
Zn161 Zn 0.42954 0.32325 -0.00849 0.0
C162 C 0.39605 0.3435 0.23107 0.0
O163 O 0.42891 0.38139 0.23338 0.0
C164 C 0.49272 0.34199 0.91801 0.0
O165 O 0.47106 0.3009 0.91464 0.0
O166 O 0.49874 0.36658 0.19753 0.0
O167 O 0.44846 0.31499 0.08909 0.0
O168 O 0.43313 0.27404 0.02251 0.0
C169 C 0.50304 0.34109 0.22675 0.0
O170 O 0.47521 0.30088 0.22516 0.0
O171 O 0.39483 0.31825 0.19639 0.0
C172 C 0.38094 0.33014 0.91645 0.0
O173 O 0.41047 0.36929 0.92368 0.0
O174 O 0.38125 0.30121 0.94265 0.0
O175 O 0.41811 0.35264 0.05157 0.0
O176 O 0.44763 0.39682 0.11554 0.0
O177 O 0.4824 0.36065 0.95143 0.0
C178 C 0.43975 0.27983 0.07087 0.0
C179 C 0.43576 0.39005 0.06824 0.0
Zn180 Zn 0.08176 0.45466 0.48501 0.0
Zn181 Zn 0.088 0.43749 0.32449 0.0
C182 C 0.0342 0.40296 0.56456 0.0
O183 O 0.02928 0.43587 0.5677 0.0
C184 C 0.1321 0.49988 0.25071 0.0
O185 O 0.15189 0.47848 0.24857 0.0
O186 O 0.11406 0.50543 0.53162 0.0
O187 O 0.11488 0.45439 0.42345 0.0
O188 O 0.14154 0.44242 0.35508 0.0
C189 C 0.1439 0.5092 0.56035 0.0
O190 O 0.15621 0.48132 0.5575 0.0
O191 O 0.05785 0.40182 0.52932 0.0
C192 C 0.03272 0.38806 0.24973 0.0
O193 O 0.023 0.41761 0.25624 0.0
O194 O 0.06193 0.38864 0.27633 0.0
O195 O 0.04756 0.42642 0.38469 0.0
O196 O 0.03264 0.45559 0.44882 0.0
O197 O 0.10275 0.48967 0.28354 0.0
C198 C 0.14268 0.44836 0.40365 0.0
C199 C 0.02774 0.44401 0.40141 0.0
Zn200 Zn 0.60938 0.09016 0.81843 0.0
Zn201 Zn 0.63264 0.09686 0.65784 0.0
C202 C 0.6134 0.04283 0.89833 0.0
O203 O 0.57556 0.03794 0.9012 0.0
C204 C 0.61495 0.14127 0.58408 0.0
O205 O 0.65611 0.16063 0.58192 0.0
O206 O 0.59086 0.12251 0.86484 0.0
O207 O 0.643 0.12335 0.75707 0.0
O208 O 0.68149 0.15007 0.68863 0.0
C209 C 0.61684 0.15233 0.89362 0.0
O210 O 0.65702 0.16463 0.89091 0.0
O211 O 0.6382 0.06625 0.863 0.0
C212 C 0.62588 0.04072 0.58404 0.0
O213 O 0.58675 0.03122 0.5913 0.0
O214 O 0.65491 0.07028 0.60975 0.0
O215 O 0.60286 0.05651 0.71779 0.0
O216 O 0.55909 0.04134 0.78223 0.0
O217 O 0.59559 0.11206 0.61695 0.0
C218 C 0.6768 0.15109 0.73724 0.0
C219 C 0.56549 0.03696 0.73455 0.0
Zn220 Zn 0.50113 0.61754 0.15194 0.0
Zn221 Zn 0.51928 0.64121 -0.00817 0.0
C222 C 0.55316 0.62149 0.23094 0.0
O223 O 0.52017 0.58374 0.23397 0.0
C224 C 0.45681 0.62239 0.91769 0.0
O225 O 0.47807 0.66353 0.91506 0.0
O226 O 0.45013 0.59876 0.19819 0.0
O227 O 0.50073 0.64996 0.08977 0.0
O228 O 0.51434 0.68982 0.02245 0.0
C229 C 0.44578 0.62447 0.22696 0.0
O230 O 0.4736 0.66467 0.22499 0.0
O231 O 0.55419 0.64649 0.19609 0.0
C232 C 0.56881 0.63559 0.91684 0.0
O233 O 0.53937 0.59631 0.9233 0.0
O234 O 0.56817 0.66411 0.94365 0.0
O235 O 0.53028 0.61164 0.05196 0.0
O236 O 0.50025 0.56755 0.11592 0.0
O237 O 0.46711 0.60362 0.95092 0.0
C238 C 0.50775 0.68435 0.07085 0.0
C239 C 0.51193 0.57418 0.06854 0.0
C240 C 0.42229 0.19544 0.1779 0.0
C241 C 0.42916 0.17637 0.21002 0.0
C242 C 0.42232 0.22053 0.13769 0.0
C243 C 0.42962 0.24599 0.10476 0.0
C244 C 0.21381 0.43432 0.50814 0.0
C245 C 0.23918 0.4406 0.54085 0.0
C246 C 0.18843 0.43433 0.46828 0.0
C247 C 0.16863 0.44021 0.43618 0.0
C248 C 0.76185 0.22173 0.84198 0.0
C249 C 0.78107 0.24715 0.87458 0.0
C250 C 0.73652 0.19647 0.80203 0.0
C251 C 0.71091 0.17687 0.76978 0.0
C252 C 0.5224 0.74349 0.13679 0.0
C253 C 0.5163 0.71811 0.10417 0.0
C254 C 0.52233 0.7687 0.17684 0.0
C255 C 0.51617 0.78813 0.2092 0.0
C256 C 0.7365 0.5341 0.50868 0.0
C257 C 0.71082 0.52692 0.54131 0.0
C258 C 0.76177 0.53398 0.46873 0.0
C259 C 0.78073 0.52695 0.43658 0.0
C260 C 0.21288 0.77256 0.80508 0.0
C261 C 0.2384 0.79079 0.77219 0.0
C262 C 0.1875 0.74727 0.84499 0.0
C263 C 0.16817 0.7212 0.87689 0.0
C264 C 0.58381 0.17492 0.96943 0.0
C265 C 0.60118 0.1663 0.93581 0.0
C266 C 0.55797 0.17498 0.01014 0.0
C267 C 0.53167 0.16649 0.0433 0.0
C268 C 0.38897 0.59102 0.30134 0.0
C269 C 0.41546 0.60846 0.26834 0.0
C270 C 0.36314 0.56533 0.34208 0.0
C271 C 0.34615 0.53944 0.3758 0.0
C272 C 0.78115 0.37488 0.67732 0.0
C273 C 0.79013 0.35738 0.7103 0.0
C274 C 0.78077 0.40051 0.63663 0.0
C275 C 0.78928 0.42634 0.60292 0.0
C276 C 0.36695 0.78972 0.96752 0.0
C277 C 0.34961 0.79874 0.93436 0.0
C278 C 0.39245 0.78936 0.00838 0.0
C279 C 0.41823 0.79794 0.04217 0.0
C280 C 0.55958 0.37487 0.30136 0.0
C281 C 0.53323 0.3574 0.26823 0.0
C282 C 0.58531 0.40045 0.34224 0.0
C283 C 0.60237 0.42621 0.3761 0.0
C284 C 0.1669 0.59068 0.67697 0.0
C285 C 0.15842 0.60854 0.71009 0.0
C286 C 0.16672 0.56475 0.63623 0.0
C287 C 0.15797 0.5388 0.60256 0.0
C288 C 0.32497 0.96665 0.96881 0.0
C289 C 0.32321 0.94374 0.93396 0.0
C290 C 0.33919 -0.00459 0.01088 0.0
C291 C 0.36032 0.0188 0.04534 0.0
C292 C 0.34134 0.33498 0.30218 0.0
C293 C 0.36227 0.33275 0.26737 0.0
C294 C 0.32715 0.34952 0.34435 0.0
C295 C 0.32518 0.3707 0.37901 0.0
C296 C -0.0115 0.3477 0.63525 0.0
C297 C 0.01143 0.36893 0.60051 0.0
C298 C 0.95983 0.33324 0.6774 0.0
C299 C 0.93666 0.33131 0.71199 0.0
C300 C 0.60874 0.96912 0.01203 0.0
C301 C 0.58751 0.94581 0.04649 0.0
C302 C 0.62296 -0.00234 0.96978 0.0
C303 C 0.62466 0.02033 0.93473 0.0
C304 C 0.62275 0.61598 0.34342 0.0
C305 C 0.6246 0.59497 0.37834 0.0
C306 C 0.60848 0.63034 0.30121 0.0
C307 C 0.58729 0.63241 0.26666 0.0
C308 C -0.01202 0.63062 0.6776 0.0
C309 C 0.01129 0.63278 0.71208 0.0
C310 C 0.95928 0.61615 0.63553 0.0
C311 C 0.93634 0.59504 0.60075 0.0
C312 C 0.46675 -0.00292 0.2944 0.0
C313 C 0.45109 0.0166 0.27784 0.0
C314 C 0.48564 0.97202 0.29421 0.0
C315 C 0.49984 0.9512 0.27747 0.0
C316 C 0.45233 0.47306 0.62869 0.0
C317 C 0.41745 0.45819 0.61139 0.0
C318 C 0.49625 0.49198 0.62887 0.0
C319 C 0.53124 0.50691 0.61188 0.0
C320 C 0.96255 0.46062 0.9604 0.0
C321 C 0.9426 0.42553 0.94367 0.0
C322 C -0.01276 0.5046 0.96058 0.0
C323 C 0.00718 0.53979 0.94415 0.0
C324 C -0.01465 0.47165 0.35052 0.0
C325 C 0.00571 0.45694 0.36726 0.0
C326 C 0.96041 0.49068 0.35053 0.0
C327 C 0.94063 0.50602 0.36736 0.0
C328 C 0.45126 0.97224 0.68357 0.0
C329 C 0.41624 0.95154 0.70033 0.0
C330 C 0.49522 -0.00295 0.68359 0.0
C331 C 0.53036 0.01636 0.70033 0.0
C332 C 0.48248 0.50404 0.01749 0.0
C333 C 0.49805 0.53917 0.03423 0.0
C334 C 0.46327 0.46007 0.01746 0.0
C335 C 0.44856 0.42499 0.03409 0.0
C336 C 0.31386 0.967 0.50911 0.0
C337 C 0.31227 0.94458 0.54391 0.0
C338 C 0.32814 -0.00498 0.46718 0.0
C339 C 0.34962 0.01801 0.43315 0.0
C340 C 0.32923 0.32212 0.84232 0.0
C341 C 0.35018 0.32077 0.87715 0.0
C342 C 0.31529 0.33601 0.80017 0.0
C343 C 0.3137 0.35725 0.76588 0.0
C344 C 0.96144 0.32227 0.13365 0.0
C345 C 0.93875 0.321 0.09937 0.0
C346 C -0.01077 0.336 0.17585 0.0
C347 C 0.01151 0.35701 0.21066 0.0
C348 C 0.63351 -0.00363 0.51043 0.0
C349 C 0.63511 0.01899 0.54501 0.0
C350 C 0.61943 0.96853 0.46829 0.0
C351 C 0.59825 0.94597 0.43379 0.0
C352 C 0.62056 0.6443 0.84244 0.0
C353 C 0.59972 0.64557 0.87751 0.0
C354 C 0.63412 0.63009 0.80017 0.0
C355 C 0.63541 0.60849 0.7661 0.0
C356 C -0.0136 0.64172 0.13372 0.0
C357 C 0.00931 0.64306 0.09965 0.0
C358 C 0.95859 0.62811 0.17588 0.0
C359 C 0.9364 0.60725 0.21084 0.0
C360 C 0.54738 0.15217 0.46769 0.0
C361 C 0.52264 0.14715 0.4339 0.0
C362 C 0.5725 0.15239 0.50922 0.0
C363 C 0.59214 0.14752 0.54326 0.0
C364 C 0.37869 0.55477 0.8009 0.0
C365 C 0.35889 0.53021 0.76695 0.0
C366 C 0.40351 0.57951 0.84274 0.0
C367 C 0.42784 0.59903 0.877 0.0
C368 C 0.80625 0.38713 0.13378 0.0
C369 C 0.81134 0.36746 0.09992 0.0
C370 C 0.80601 0.41176 0.17567 0.0
C371 C 0.81072 0.43597 0.21006 0.0
C372 C 0.40113 0.81282 0.46831 0.0
C373 C 0.42588 0.81808 0.43435 0.0
C374 C 0.37629 0.81267 0.51021 0.0
C375 C 0.35685 0.81771 0.54444 0.0
C376 C 0.57174 0.41027 0.80214 0.0
C377 C 0.59138 0.43497 0.76823 0.0
C378 C 0.54679 0.38527 0.84379 0.0
C379 C 0.52212 0.36558 0.87772 0.0
C380 C 0.14313 0.55353 0.17596 0.0
C381 C 0.13822 0.52901 0.21 0.0
C382 C 0.14304 0.57845 0.13435 0.0
C383 C 0.13809 0.5982 0.10052 0.0
loop_
_geom_bond_atom_site_label_1
_geom_bond_atom_site_label_2
_geom_bond_distance
_geom_bond_site_symmetry_2
_ccdc_geom_bond_type
Zn0 O6 1.969 . S
Zn0 O7 1.965 . S
Zn0 O11 2.024 . S
Zn0 O16 1.969 . S
Zn1 O8 1.969 . S
Zn1 O14 1.969 . S
Zn1 O15 1.965 . S
Zn1 O17 2.024 . S
C2 O3 1.229 . S
C2 O11 1.058 . S
O3 C2 1.229 . S
C4 O5 1.229 . S
C4 O17 1.058 . S
O5 C4 1.229 . S
O6 Zn0 1.969 . S
O6 C9 1.267 . S
O7 Zn0 1.965 . S
O7 C18 1.260 . S
O8 Zn1 1.969 . S
O8 C18 1.258 . S
C9 O6 1.267 . S
C9 O10 1.228 . S
O10 C9 1.228 . S
O11 Zn0 2.024 . S
O11 C2 1.058 . S
C12 O13 1.228 . S
C12 O14 1.267 . S
O13 C12 1.228 . S
O14 Zn1 1.969 . S
O14 C12 1.267 . S
O15 Zn1 1.965 . S
O15 C19 1.260 . S
O16 Zn0 1.969 . S
O16 C19 1.258 . S
O17 Zn1 2.024 . S
O17 C4 1.058 . S
C18 O7 1.260 . S
C18 O8 1.258 . S
C19 O15 1.260 . S
C19 O16 1.258 . S
Zn20 O26 1.969 . S
Zn20 O27 1.965 . S
Zn20 O31 2.024 . S
Zn20 O36 1.969 . S
Zn21 O28 1.969 . S
Zn21 O34 1.969 . S
Zn21 O35 1.965 . S
Zn21 O37 2.024 . S
C22 O23 1.229 . S
C22 O31 1.058 . S
O23 C22 1.229 . S
C24 O25 1.229 . S
C24 O37 1.058 . S
O25 C24 1.229 . S
O26 Zn20 1.969 . S
O26 C29 1.267 . S
O27 Zn20 1.965 . S
O27 C38 1.260 . S
O28 Zn21 1.969 . S
O28 C38 1.258 . S
C29 O26 1.267 . S
C29 O30 1.228 . S
O30 C29 1.228 . S
O31 Zn20 2.024 . S
O31 C22 1.058 . S
C32 O33 1.228 . S
C32 O34 1.267 . S
O33 C32 1.228 . S
O34 Zn21 1.969 . S
O34 C32 1.267 . S
O35 Zn21 1.965 . S
O35 C39 1.260 . S
O36 Zn20 1.969 . S
O36 C39 1.258 . S
O37 Zn21 2.024 . S
O37 C24 1.058 . S
C38 O27 1.260 . S
C38 O28 1.258 . S
C39 O35 1.260 . S
C39 O36 1.258 . S
Zn40 O46 1.969 . S
Zn40 O47 1.965 . S
Zn40 O51 2.024 . S
Zn40 O56 1.969 . S
Zn41 O48 1.969 . S
Zn41 O54 1.969 1_556 S
Zn41 O55 1.965 . S
Zn41 O57 2.024 1_556 S
C42 O43 1.229 . S
C42 O51 1.058 . S
O43 C42 1.229 . S
C44 O45 1.229 . S
C44 O57 1.058 . S
O45 C44 1.229 . S
O46 Zn40 1.969 . S
O46 C49 1.267 . S
O47 Zn40 1.965 . S
O47 C58 1.260 . S
O48 Zn41 1.969 . S
O48 C58 1.258 . S
C49 O46 1.267 . S
C49 O50 1.228 . S
O50 C49 1.228 . S
O51 Zn40 2.024 . S
O51 C42 1.058 . S
C52 O53 1.228 . S
C52 O54 1.267 . S
O53 C52 1.228 . S
O54 Zn41 1.969 1_554 S
O54 C52 1.267 . S
O55 Zn41 1.965 . S
O55 C59 1.260 . S
O56 Zn40 1.969 . S
O56 C59 1.258 . S
O57 Zn41 2.024 1_554 S
O57 C44 1.058 . S
C58 O47 1.260 . S
C58 O48 1.258 . S
C59 O55 1.260 . S
C59 O56 1.258 . S
Zn60 O66 1.969 . S
Zn60 O67 1.965 . S
Zn60 O71 2.024 . S
Zn60 O76 1.969 . S
Zn61 O68 1.969 . S
Zn61 O74 1.969 . S
Zn61 O75 1.965 . S
Zn61 O77 2.024 . S
C62 O63 1.229 . S
C62 O71 1.058 . S
O63 C62 1.229 . S
C64 O65 1.229 . S
C64 O77 1.058 . S
O65 C64 1.229 . S
O66 Zn60 1.969 . S
O66 C69 1.267 . S
O67 Zn60 1.965 . S
O67 C78 1.260 . S
O68 Zn61 1.969 . S
O68 C78 1.258 . S
C69 O66 1.267 . S
C69 O70 1.228 . S
O70 C69 1.228 . S
O71 Zn60 2.024 . S
O71 C62 1.058 . S
C72 O73 1.228 . S
C72 O74 1.267 . S
O73 C72 1.228 . S
O74 Zn61 1.969 . S
O74 C72 1.267 . S
O75 Zn61 1.965 . S
O75 C79 1.260 . S
O76 Zn60 1.969 . S
O76 C79 1.258 . S
O77 Zn61 2.024 . S
O77 C64 1.058 . S
C78 O67 1.260 . S
C78 O68 1.258 . S
C79 O75 1.260 . S
C79 O76 1.258 . S
Zn80 O86 1.969 . S
Zn80 O87 1.965 . S
Zn80 O91 2.024 . S
Zn80 O96 1.969 . S
Zn81 O88 1.969 . S
Zn81 O94 1.969 . S
Zn81 O95 1.965 . S
Zn81 O97 2.024 . S
C82 O83 1.229 . S
C82 O91 1.058 . S
O83 C82 1.229 . S
C84 O85 1.229 . S
C84 O97 1.058 . S
O85 C84 1.229 . S
O86 Zn80 1.969 . S
O86 C89 1.267 . S
O87 Zn80 1.965 . S
O87 C98 1.260 . S
O88 Zn81 1.969 . S
O88 C98 1.258 . S
C89 O86 1.267 . S
C89 O90 1.228 . S
O90 C89 1.228 . S
O91 Zn80 2.024 . S
O91 C82 1.058 . S
C92 O93 1.228 . S
C92 O94 1.267 . S
O93 C92 1.228 . S
O94 Zn81 1.969 . S
O94 C92 1.267 . S
O95 Zn81 1.965 . S
O95 C99 1.260 . S
O96 Zn80 1.969 . S
O96 C99 1.258 . S
O97 Zn81 2.024 . S
O97 C84 1.058 . S
C98 O87 1.260 . S
C98 O88 1.258 . S
C99 O95 1.260 . S
C99 O96 1.258 . S
Zn100 O106 1.969 . S
Zn100 O107 1.965 . S
Zn100 O111 2.024 . S
Zn100 O116 1.969 . S
Zn101 O108 1.969 . S
Zn101 O114 1.969 1_556 S
Zn101 O115 1.965 . S
Zn101 O117 2.024 1_556 S
C102 O103 1.229 . S
C102 O111 1.058 . S
O103 C102 1.229 . S
C104 O105 1.229 . S
C104 O117 1.058 . S
O105 C104 1.229 . S
O106 Zn100 1.969 . S
O106 C109 1.267 . S
O107 Zn100 1.965 . S
O107 C118 1.260 . S
O108 Zn101 1.969 . S
O108 C118 1.258 . S
C109 O106 1.267 . S
C109 O110 1.228 . S
O110 C109 1.228 . S
O111 Zn100 2.024 . S
O111 C102 1.058 . S
C112 O113 1.228 . S
C112 O114 1.267 . S
O113 C112 1.228 . S
O114 Zn101 1.969 1_554 S
O114 C112 1.267 . S
O115 Zn101 1.965 . S
O115 C119 1.260 . S
O116 Zn100 1.969 . S
O116 C119 1.258 . S
O117 Zn101 2.024 1_554 S
O117 C104 1.058 . S
C118 O107 1.260 . S
C118 O108 1.258 . S
C119 O115 1.260 . S
C119 O116 1.258 . S
Zn120 O126 1.969 . S
Zn120 O127 1.965 . S
Zn120 O131 2.024 . S
Zn120 O136 1.969 . S
Zn121 O128 1.969 . S
Zn121 O134 1.969 . S
Zn121 O135 1.965 . S
Zn121 O137 2.024 . S
C122 O123 1.229 . S
C122 O131 1.058 . S
O123 C122 1.229 . S
C124 O125 1.229 . S
C124 O137 1.058 . S
O125 C124 1.229 . S
O126 Zn120 1.969 . S
O126 C129 1.267 . S
O127 Zn120 1.965 . S
O127 C138 1.260 . S
O128 Zn121 1.969 . S
O128 C138 1.258 . S
C129 O126 1.267 . S
C129 O130 1.228 . S
O130 C129 1.228 . S
O131 Zn120 2.024 . S
O131 C122 1.058 . S
C132 O133 1.228 . S
C132 O134 1.267 . S
O133 C132 1.228 . S
O134 Zn121 1.969 . S
O134 C132 1.267 . S
O135 Zn121 1.965 . S
O135 C139 1.260 . S
O136 Zn120 1.969 . S
O136 C139 1.258 . S
O137 Zn121 2.024 . S
O137 C124 1.058 . S
C138 O127 1.260 . S
C138 O128 1.258 . S
C139 O135 1.260 . S
C139 O136 1.258 . S
Zn140 O146 1.969 . S
Zn140 O147 1.965 . S
Zn140 O151 2.024 . S
Zn140 O156 1.969 . S
Zn141 O148 1.969 . S
Zn141 O154 1.969 . S
Zn141 O155 1.965 . S
Zn141 O157 2.024 . S
C142 O143 1.229 . S
C142 O151 1.058 . S
O143 C142 1.229 . S
C144 O145 1.229 . S
C144 O157 1.058 . S
O145 C144 1.229 . S
O146 Zn140 1.969 . S
O146 C149 1.267 . S
O147 Zn140 1.965 . S
O147 C158 1.260 . S
O148 Zn141 1.969 . S
O148 C158 1.258 . S
C149 O146 1.267 . S
C149 O150 1.228 . S
O150 C149 1.228 . S
O151 Zn140 2.024 . S
O151 C142 1.058 . S
C152 O153 1.228 . S
C152 O154 1.267 . S
O153 C152 1.228 . S
O154 Zn141 1.969 . S
O154 C152 1.267 . S
O155 Zn141 1.965 . S
O155 C159 1.260 . S
O156 Zn140 1.969 . S
O156 C159 1.258 . S
O157 Zn141 2.024 . S
O157 C144 1.058 . S
C158 O147 1.260 . S
C158 O148 1.258 . S
C159 O155 1.260 . S
C159 O156 1.258 . S
Zn160 O166 1.969 . S
Zn160 O167 1.965 . S
Zn160 O171 2.024 . S
Zn160 O176 1.969 . S
Zn161 O168 1.969 . S
Zn161 O174 1.969 1_554 S
Zn161 O175 1.965 . S
Zn161 O177 2.024 1_554 S
C162 O163 1.229 . S
C162 O171 1.058 . S
O163 C162 1.229 . S
C164 O165 1.229 . S
C164 O177 1.058 . S
O165 C164 1.229 . S
O166 Zn160 1.969 . S
O166 C169 1.267 . S
O167 Zn160 1.965 . S
O167 C178 1.260 . S
O168 Zn161 1.969 . S
O168 C178 1.258 . S
C169 O166 1.267 . S
C169 O170 1.228 . S
O170 C169 1.228 . S
O171 Zn160 2.024 . S
O171 C162 1.058 . S
C172 O173 1.228 . S
C172 O174 1.267 . S
O173 C172 1.228 . S
O174 Zn161 1.969 1_556 S
O174 C172 1.267 . S
O175 Zn161 1.965 . S
O175 C179 1.260 . S
O176 Zn160 1.969 . S
O176 C179 1.258 . S
O177 Zn161 2.024 1_556 S
O177 C164 1.058 . S
C178 O167 1.260 . S
C178 O168 1.258 . S
C179 O175 1.260 . S
C179 O176 1.258 . S
Zn180 O186 1.969 . S
Zn180 O187 1.965 . S
Zn180 O191 2.024 . S
Zn180 O196 1.969 . S
Zn181 O188 1.969 . S
Zn181 O194 1.969 . S
Zn181 O195 1.965 . S
Zn181 O197 2.024 . S
C182 O183 1.229 . S
C182 O191 1.058 . S
O183 C182 1.229 . S
C184 O185 1.229 . S
C184 O197 1.058 . S
O185 C184 1.229 . S
O186 Zn180 1.969 . S
O186 C189 1.267 . S
O187 Zn180 1.965 . S
O187 C198 1.260 . S
O188 Zn181 1.969 . S
O188 C198 1.258 . S
C189 O186 1.267 . S
C189 O190 1.228 . S
O190 C189 1.228 . S
O191 Zn180 2.024 . S
O191 C182 1.058 . S
C192 O193 1.228 . S
C192 O194 1.267 . S
O193 C192 1.228 . S
O194 Zn181 1.969 . S
O194 C192 1.267 . S
O195 Zn181 1.965 . S
O195 C199 1.260 . S
O196 Zn180 1.969 . S
O196 C199 1.258 . S
O197 Zn181 2.024 . S
O197 C184 1.058 . S
C198 O187 1.260 . S
C198 O188 1.258 . S
C199 O195 1.260 . S
C199 O196 1.258 . S
Zn200 O206 1.969 . S
Zn200 O207 1.965 . S
Zn200 O211 2.024 . S
Zn200 O216 1.969 . S
Zn201 O208 1.969 . S
Zn201 O214 1.969 . S
Zn201 O215 1.965 . S
Zn201 O217 2.024 . S
C202 O203 1.229 . S
C202 O211 1.058 . S
O203 C202 1.229 . S
C204 O205 1.229 . S
C204 O217 1.058 . S
O205 C204 1.229 . S
O206 Zn200 1.969 . S
O206 C209 1.267 . S
O207 Zn200 1.965 . S
O207 C218 1.260 . S
O208 Zn201 1.969 . S
O208 C218 1.258 . S
C209 O206 1.267 . S
C209 O210 1.228 . S
O210 C209 1.228 . S
O211 Zn200 2.024 . S
O211 C202 1.058 . S
C212 O213 1.228 . S
C212 O214 1.267 . S
O213 C212 1.228 . S
O214 Zn201 1.969 . S
O214 C212 1.267 . S
O215 Zn201 1.965 . S
O215 C219 1.260 . S
O216 Zn200 1.969 . S
O216 C219 1.258 . S
O217 Zn201 2.024 . S
O217 C204 1.058 . S
C218 O207 1.260 . S
C218 O208 1.258 . S
C219 O215 1.260 . S
C219 O216 1.258 . S
Zn220 O226 1.969 . S
Zn220 O227 1.965 . S
Zn220 O231 2.024 . S
Zn220 O236 1.969 . S
Zn221 O228 1.969 . S
Zn221 O234 1.969 1_554 S
Zn221 O235 1.965 . S
Zn221 O237 2.024 1_554 S
C222 O223 1.229 . S
C222 O231 1.058 . S
O223 C222 1.229 . S
C224 O225 1.229 . S
C224 O237 1.058 . S
O225 C224 1.229 . S
O226 Zn220 1.969 . S
O226 C229 1.267 . S
O227 Zn220 1.965 . S
O227 C238 1.260 . S
O228 Zn221 1.969 . S
O228 C238 1.258 . S
C229 O226 1.267 . S
C229 O230 1.228 . S
O230 C229 1.228 . S
O231 Zn220 2.024 . S
O231 C222 1.058 . S
C232 O233 1.228 . S
C232 O234 1.267 . S
O233 C232 1.228 . S
O234 Zn221 1.969 1_556 S
O234 C232 1.267 . S
O235 Zn221 1.965 . S
O235 C239 1.260 . S
O236 Zn220 1.969 . S
O236 C239 1.258 . S
O237 Zn221 2.024 1_556 S
O237 C224 1.058 . S
C238 O227 1.260 . S
C238 O228 1.258 . S
C239 O235 1.260 . S
C239 O236 1.258 . S
C240 C241 1.170 . S
C240 C242 1.380 . S
C241 C240 1.170 . S
C242 C240 1.380 . S
C242 C243 1.170 . S
C243 C242 1.170 . S
C244 C245 1.170 . S
C244 C246 1.380 . S
C245 C244 1.170 . S
C246 C244 1.380 . S
C246 C247 1.170 . S
C247 C246 1.170 . S
C248 C249 1.170 . S
C248 C250 1.380 . S
C249 C248 1.170 . S
C250 C248 1.380 . S
C250 C251 1.170 . S
C251 C250 1.170 . S
C252 C253 1.170 . S
C252 C254 1.380 . S
C253 C252 1.170 . S
C254 C252 1.380 . S
C254 C255 1.170 . S
C255 C254 1.170 . S
C256 C257 1.170 . S
C256 C258 1.380 . S
C257 C256 1.170 . S
C258 C256 1.380 . S
C258 C259 1.170 . S
C259 C258 1.170 . S
C260 C261 1.170 . S
C260 C262 1.380 . S
C261 C260 1.170 . S
C262 C260 1.380 . S
C262 C263 1.170 . S
C263 C262 1.170 . S
C264 C265 1.170 . S
C264 C266 1.380 1_556 S
C265 C264 1.170 . S
C266 C264 1.380 1_554 S
C266 C267 1.170 . S
C267 C266 1.170 . S
C268 C269 1.170 . S
C268 C270 1.380 . S
C269 C268 1.170 . S
C270 C268 1.380 . S
C270 C271 1.170 . S
C271 C270 1.170 . S
C272 C273 1.170 . S
C272 C274 1.380 . S
C273 C272 1.170 . S
C274 C272 1.380 . S
C274 C275 1.170 . S
C275 C274 1.170 . S
C276 C277 1.170 . S
C276 C278 1.380 1_556 S
C277 C276 1.170 . S
C278 C276 1.380 1_554 S
C278 C279 1.170 . S
C279 C278 1.170 . S
C280 C281 1.170 . S
C280 C282 1.380 . S
C281 C280 1.170 . S
C282 C280 1.380 . S
C282 C283 1.170 . S
C283 C282 1.170 . S
C284 C285 1.170 . S
C284 C286 1.380 . S
C285 C284 1.170 . S
C286 C284 1.380 . S
C286 C287 1.170 . S
C287 C286 1.170 . S
C288 C289 1.170 . S
C288 C290 1.380 1_566 S
C289 C288 1.170 . S
C290 C288 1.380 1_544 S
C290 C291 1.170 . S
C291 C290 1.170 . S
C292 C293 1.170 . S
C292 C294 1.380 . S
C293 C292 1.170 . S
C294 C292 1.380 . S
C294 C295 1.170 . S
C295 C294 1.170 . S
C296 C297 1.170 . S
C296 C298 1.380 1_455 S
C297 C296 1.170 . S
C298 C296 1.380 1_655 S
C298 C299 1.170 . S
C299 C298 1.170 . S
C300 C301 1.170 . S
C300 C302 1.380 1_564 S
C301 C300 1.170 . S
C302 C300 1.380 1_546 S
C302 C303 1.170 . S
C303 C302 1.170 . S
C304 C305 1.170 . S
C304 C306 1.380 . S
C305 C304 1.170 . S
C306 C304 1.380 . S
C306 C307 1.170 . S
C307 C306 1.170 . S
C308 C309 1.170 . S
C308 C310 1.380 1_455 S
C309 C308 1.170 . S
C310 C308 1.380 1_655 S
C310 C311 1.170 . S
C311 C310 1.170 . S
C312 C313 1.170 . S
C312 C314 1.380 1_545 S
C313 C312 1.170 . S
C314 C312 1.380 1_565 S
C314 C315 1.170 . S
C315 C314 1.170 . S
C316 C317 1.170 . S
C316 C318 1.380 . S
C317 C316 1.170 . S
C318 C316 1.380 . S
C318 C319 1.170 . S
C319 C318 1.170 . S
C320 C321 1.170 . S
C320 C322 1.380 1_655 S
C321 C320 1.170 . S
C322 C320 1.380 1_455 S
C322 C323 1.170 . S
C323 C322 1.170 . S
C324 C325 1.170 . S
C324 C326 1.380 1_455 S
C325 C324 1.170 . S
C326 C324 1.380 1_655 S
C326 C327 1.170 . S
C327 C326 1.170 . S
C328 C329 1.170 . S
C328 C330 1.380 1_565 S
C329 C328 1.170 . S
C330 C328 1.380 1_545 S
C330 C331 1.170 . S
C331 C330 1.170 . S
C332 C333 1.170 . S
C332 C334 1.380 . S
C333 C332 1.170 . S
C334 C332 1.380 . S
C334 C335 1.170 . S
C335 C334 1.170 . S
C336 C337 1.170 . S
C336 C338 1.380 1_565 S
C337 C336 1.170 . S
C338 C336 1.380 1_545 S
C338 C339 1.170 . S
C339 C338 1.170 . S
C340 C341 1.170 . S
C340 C342 1.380 . S
C341 C340 1.170 . S
C342 C340 1.380 . S
C342 C343 1.170 . S
C343 C342 1.170 . S
C344 C345 1.170 . S
C344 C346 1.380 1_655 S
C345 C344 1.170 . S
C346 C344 1.380 1_455 S
C346 C347 1.170 . S
C347 C346 1.170 . S
C348 C349 1.170 . S
C348 C350 1.380 1_545 S
C349 C348 1.170 . S
C350 C348 1.380 1_565 S
C350 C351 1.170 . S
C351 C350 1.170 . S
C352 C353 1.170 . S
C352 C354 1.380 . S
C353 C352 1.170 . S
C354 C352 1.380 . S
C354 C355 1.170 . S
C355 C354 1.170 . S
C356 C357 1.170 . S
C356 C358 1.380 1_455 S
C357 C356 1.170 . S
C358 C356 1.380 1_655 S
C358 C359 1.170 . S
C359 C358 1.170 . S
C360 C361 1.170 . S
C360 C362 1.380 . S
C361 C360 1.170 . S
C362 C360 1.380 . S
C362 C363 1.170 . S
C363 C362 1.170 . S
C364 C365 1.170 . S
C364 C366 1.380 . S
C365 C364 1.170 . S
C366 C364 1.380 . S
C366 C367 1.170 . S
C367 C366 1.170 . S
C368 C369 1.170 . S
C368 C370 1.380 . S
C369 C368 1.170 . S
C370 C368 1.380 . S
C370 C371 1.170 . S
C371 C370 1.170 . S
C372 C373 1.170 . S
C372 C374 1.380 . S
C373 C372 1.170 . S
C374 C372 1.380 . S
C374 C375 1.170 . S
C375 C374 1.170 . S
C376 C377 1.170 . S
C376 C378 1.380 . S
C377 C376 1.170 . S
C378 C376 1.380 . S
C378 C379 1.170 . S
C379 C378 1.170 . S
C380 C381 1.170 . S
C380 C382 1.380 . S
C381 C380 1.170 . S
C382 C380 1.380 . S
C382 C383 1.170 . S
C383 C382 1.170 . S
C241 C18 1.215 . S
C243 C178 1.199 . S
C245 C38 1.181 . S
C247 C198 1.198 . S
C249 C58 1.179 . S
C251 C218 1.193 . S
C253 C238 1.178 . S
C255 C78 1.187 . S
C257 C98 1.205 . S
C259 C138 1.218 . S
C261 C158 1.199 . S
C263 C118 1.215 . S
C265 C209 0.923 . S
C267 C9 0.936 . S
C269 C229 0.985 . S
C271 C29 0.963 . S
C273 C49 0.968 . S
C275 C129 0.942 . S
C277 C149 0.957 . S
C279 C69 0.932 . S
C281 C169 0.964 . S
C283 C89 0.938 . S
C285 C109 0.946 . S
C287 C189 0.926 . S
C289 C142 1.457 . S
C291 C2 1.494 . S
C293 C162 1.456 . S
C295 C22 1.453 . S
C297 C182 1.492 . S
C299 C42 1.509 . S
C301 C62 1.496 . S
C303 C202 1.458 . S
C305 C82 1.455 . S
C307 C222 1.492 . S
C309 C102 1.480 . S
C311 C122 1.449 . S
C313 C19 0.702 . S
C315 C79 0.690 . S
C317 C39 0.750 . S
C319 C99 0.749 . S
C321 C59 0.690 . S
C323 C119 0.692 . S
C325 C199 0.743 . S
C327 C139 0.751 . S
C329 C159 0.732 . S
C331 C219 0.747 . S
C333 C239 0.697 . S
C335 C179 0.689 . S
C337 C152 1.355 . S
C339 C12 1.344 . S
C341 C172 1.363 . S
C343 C32 1.351 . S
C345 C52 1.373 . S
C347 C192 1.384 . S
C349 C212 1.335 . S
C351 C72 1.335 . S
C353 C232 1.385 . S
C355 C92 1.375 . S
C357 C112 1.359 . S
C359 C132 1.371 . S
C361 C4 1.675 . S
C363 C204 1.637 . S
C365 C24 1.661 . S
C367 C224 1.623 . S
C369 C44 1.663 . S
C371 C124 1.623 . S
C373 C64 1.667 . S
C375 C144 1.656 . S
C377 C84 1.664 . S
C379 C164 1.660 . S
C381 C184 1.630 . S
C383 C104 1.673 . S
