# Generated by pormake.
# Topology unf, (4)-cn, num edge types: 1
# Building blocks:
#     Node 0, Type 0, BuildingBlock: UXUYUI_clean_sbu_0, # of connection points: 4
#     Node 1, Type 0, BuildingBlock: UXUYUI_clean_sbu_0, # of connection points: 4
#     Node 2, Type 0, BuildingBlock: UXUYUI_clean_sbu_0, # of connection points: 4
#     Node 3, Type 0, BuildingBlock: UXUYUI_clean_sbu_0, # of connection points: 4
#     Node 4, Type 0, BuildingBlock: UXUYUI_clean_sbu_0, # of connection points: 4
#     Node 5, Type 0, BuildingBlock: UXUYUI_clean_sbu_0, # of connection points: 4
#     Node 6, Type 0, BuildingBlock: UXUYUI_clean_sbu_0, # of connection points: 4
#     Node 7, Type 0, BuildingBlock: UXUYUI_clean_sbu_0, # of connection points: 4
#     Node 8, Type 0, BuildingBlock: UXUYUI_clean_sbu_0, # of connection points: 4
#     Node 9, Type 0, BuildingBlock: UXUYUI_clean_sbu_0, # of connection points: 4
#     Node 10, Type 0, BuildingBlock: UXUYUI_clean_sbu_0, # of connection points: 4
#     Node 11, Type 0, BuildingBlock: UXUYUI_clean_sbu_0, # of connection points: 4
#     Edge 12, Type (0, 0), BuildingBlock: OJICUG_clean_linker_0, # of connection points: 2
#     Edge 13, Type (0, 0), BuildingBlock: OJICUG_clean_linker_0, # of connection points: 2
#     Edge 14, Type (0, 0), BuildingBlock: OJICUG_clean_linker_0, # of connection points: 2
#     Edge 15, Type (0, 0), BuildingBlock: OJICUG_clean_linker_0, # of connection points: 2
#     Edge 16, Type (0, 0), BuildingBlock: OJICUG_clean_linker_0, # of connection points: 2
#     Edge 17, Type (0, 0), BuildingBlock: OJICUG_clean_linker_0, # of connection points: 2
#     Edge 18, Type (0, 0), BuildingBlock: OJICUG_clean_linker_0, # of connection points: 2
#     Edge 19, Type (0, 0), BuildingBlock: OJICUG_clean_linker_0, # of connection points: 2
#     Edge 20, Type (0, 0), BuildingBlock: OJICUG_clean_linker_0, # of connection points: 2
#     Edge 21, Type (0, 0), BuildingBlock: OJICUG_clean_linker_0, # of connection points: 2
#     Edge 22, Type (0, 0), BuildingBlock: OJICUG_clean_linker_0, # of connection points: 2
#     Edge 23, Type (0, 0), BuildingBlock: OJICUG_clean_linker_0, # of connection points: 2
#     Edge 24, Type (0, 0), BuildingBlock: OJICUG_clean_linker_0, # of connection points: 2
#     Edge 25, Type (0, 0), BuildingBlock: OJICUG_clean_linker_0, # of connection points: 2
#     Edge 26, Type (0, 0), BuildingBlock: OJICUG_clean_linker_0, # of connection points: 2
#     Edge 27, Type (0, 0), BuildingBlock: OJICUG_clean_linker_0, # of connection points: 2
#     Edge 28, Type (0, 0), BuildingBlock: OJICUG_clean_linker_0, # of connection points: 2
#     Edge 29, Type (0, 0), BuildingBlock: OJICUG_clean_linker_0, # of connection points: 2
#     Edge 30, Type (0, 0), BuildingBlock: OJICUG_clean_linker_0, # of connection points: 2
#     Edge 31, Type (0, 0), BuildingBlock: OJICUG_clean_linker_0, # of connection points: 2
#     Edge 32, Type (0, 0), BuildingBlock: OJICUG_clean_linker_0, # of connection points: 2
#     Edge 33, Type (0, 0), BuildingBlock: OJICUG_clean_linker_0, # of connection points: 2
#     Edge 34, Type (0, 0), BuildingBlock: OJICUG_clean_linker_0, # of connection points: 2
#     Edge 35, Type (0, 0), BuildingBlock: OJICUG_clean_linker_0, # of connection points: 2
# Relax obj value: 0.347
# Max RMSD: 0.227
# Mean RMSD: 0.226
data_MOF--net-unf--node1-UXUYUI_clean_sbu_0--edge1-OJICUG_clean_linker_0
_symmetry_space_group_name_H-M    P1
_symmetry_Int_Tables_number       1
_symmetry_cell_setting            triclinic
loop_
_symmetry_equiv_pos_as_xyz
'x, y, z'
_cell_length_a     45.284248
_cell_length_b     45.271457
_cell_length_c     43.367766
_cell_angle_alpha  90.055142
_cell_angle_beta   89.90078
_cell_angle_gamma 120.00743
loop_
_atom_site_label
_atom_site_type_symbol
_atom_site_fract_x
_atom_site_fract_y
_atom_site_fract_z
_atom_type_partial_charge
Li0 Li 0.04845 0.38745 0.08106 0.0
Li1 Li 0.07318 0.36441 0.11627 0.0
Li2 Li 0.06983 0.35093 0.06194 0.0
Li3 Li 0.01751 0.32841 0.09585 0.0
C4 C 0.1185 0.42828 0.09248 0.0
N5 N 0.16327 0.49192 0.11637 0.0
C6 C 0.10724 0.4433 0.11425 0.0
C7 C 0.15259 0.4456 0.08302 0.0
C8 C 0.13024 0.4755 0.12599 0.0
C9 C 0.1748 0.47776 0.09533 0.0
C10 C 0.00783 0.35868 0.14524 0.0
C11 C 0.97444 0.31953 0.18566 0.0
N12 N 0.95753 0.337 0.18979 0.0
C13 C 0.99032 0.37643 0.15005 0.0
C14 C 3e-05 0.33017 0.16333 0.0
C15 C 0.96491 0.36501 0.17262 0.0
C16 C 0.00764 0.41574 0.0691 0.0
N17 N 0.04042 0.42257 0.06728 0.0
C18 C 0.05549 0.47092 0.0352 0.0
C19 C 0.06443 0.44975 0.05112 0.0
C20 C 0.02144 0.46349 0.03551 0.0
C21 C 0.99751 0.43595 0.05325 0.0
H22 H 0.98887 0.3932 0.08114 0.0
H23 H 0.08999 0.45383 0.04903 0.0
C24 C 0.13485 0.37956 0.1431 0.0
N25 N 0.10292 0.37307 0.1503 0.0
C26 C 0.15755 0.38288 0.1663 0.0
C27 C 0.1149 0.37491 0.20413 0.0
C28 C 0.09278 0.37129 0.1801 0.0
C29 C 0.14748 0.3801 0.19726 0.0
H30 H 0.14235 0.38122 0.1192 0.0
H31 H 0.0674 0.36643 0.18523 0.0
C32 C 0.01605 0.35787 0.0281 0.0
N33 N 0.99733 0.38187 0.97759 0.0
C34 C 0.9819 0.3485 0.02366 0.0
C35 C 0.04064 0.37915 0.00671 0.0
C36 C 0.97296 0.36097 0.998 0.0
C37 C 0.03066 0.3911 0.98137 0.0
C38 C 0.07254 0.30506 0.11211 0.0
C39 C 0.1039 0.3108 0.10077 0.0
C40 C 0.05898 0.28567 0.13886 0.0
C41 C 0.12153 0.29766 0.11679 0.0
C42 C 0.07741 0.273 0.15423 0.0
N43 N 0.10807 0.27924 0.143 0.0
C44 C 0.12092 0.36488 0.01832 0.0
C45 C 0.07422 0.30826 0.01748 0.0
C46 C 0.13831 0.35662 0.99654 0.0
N47 N 0.0899 0.34057 0.02875 0.0
C48 C 0.09063 0.29887 0.99557 0.0
C49 C 0.12353 0.323 0.98543 0.0
H50 H 0.13268 0.39034 0.02781 0.0
H51 H 0.0495 0.28952 0.02636 0.0
C52 C 0.94657 0.2978 0.09997 0.0
N53 N 0.97272 0.29121 0.09926 0.0
C54 C 0.91333 0.27176 0.09433 0.0
C55 C 0.93441 0.23236 0.0888 0.0
C56 C 0.96727 0.25916 0.09484 0.0
C57 C 0.90717 0.23887 0.08717 0.0
H58 H 0.95181 0.32372 0.10266 0.0
H59 H 0.98874 0.25494 0.09368 0.0
O60 O 0.09667 0.39648 0.08096 0.0
O61 O 0.03251 0.36928 0.12297 0.0
O62 O 0.02553 0.34706 0.05371 0.0
O63 O 0.05521 0.31828 0.09706 0.0
H64 H 0.08107 0.43041 0.12202 0.0
H65 H 0.16188 0.43426 0.06647 0.0
H66 H 0.12184 0.48743 0.14278 0.0
H67 H 0.20125 0.49142 0.0882 0.0
H68 H 0.96802 0.29737 0.19969 0.0
H69 H 0.9964 0.39889 0.13661 0.0
H70 H 0.01344 0.3163 0.15998 0.0
H71 H 0.95109 0.37844 0.17653 0.0
H72 H 0.07454 0.49169 0.02142 0.0
H73 H 0.97104 0.42949 0.05408 0.0
H74 H 0.18263 0.3873 0.16011 0.0
H75 H 0.10622 0.37255 0.22777 0.0
H76 H 0.96257 0.33211 0.04004 0.0
H77 H 0.06722 0.38691 0.00999 0.0
H78 H 0.94667 0.35416 0.99439 0.0
H79 H 0.04946 0.40786 0.96479 0.0
H80 H 0.11484 0.32574 0.08013 0.0
H81 H 0.03446 0.28038 0.14764 0.0
H82 H 0.14599 0.30221 0.10845 0.0
H83 H 0.06731 0.25814 0.17507 0.0
H84 H 0.1638 0.37594 0.98981 0.0
H85 H 0.07817 0.27277 0.9874 0.0
H86 H 0.89303 0.2778 0.09363 0.0
H87 H 0.93094 0.20754 0.08302 0.0
Li88 Li 0.63826 0.70683 0.12177 0.0
Li89 Li 0.61571 0.65968 0.08451 0.0
Li90 Li 0.67368 0.68797 0.09889 0.0
Li91 Li 0.65345 0.71739 0.06792 0.0
C92 C 0.64996 0.65285 0.14854 0.0
N93 N 0.68491 0.63699 0.19144 0.0
C94 C 0.64638 0.62035 0.14891 0.0
C95 C 0.6712 0.67725 0.17005 0.0
C96 C 0.6643 0.61284 0.17077 0.0
C97 C 0.68867 0.66873 0.19155 0.0
C98 C 0.57533 0.68922 0.0967 0.0
C99 C 0.52507 0.69482 0.09681 0.0
N100 N 0.51062 0.66961 0.11827 0.0
C101 C 0.55992 0.6633 0.11871 0.0
C102 C 0.55775 0.70507 0.08561 0.0
C103 C 0.52722 0.65379 0.12934 0.0
C104 C 0.64573 0.76202 0.15434 0.0
N105 N 0.62991 0.7275 0.15591 0.0
C106 C 0.6047 0.72762 0.20429 0.0
C107 C 0.60962 0.71001 0.18015 0.0
C108 C 0.62112 0.76351 0.2035 0.0
C109 C 0.64193 0.78062 0.17803 0.0
H110 H 0.66153 0.77513 0.13462 0.0
H111 H 0.59726 0.68247 0.18069 0.0
C112 C 0.58793 0.59176 0.06952 0.0
N113 N 0.58024 0.61714 0.07009 0.0
C114 C 0.56721 0.56163 0.05353 0.0
C115 C 0.53058 0.58408 0.03945 0.0
C116 C 0.55204 0.61381 0.05577 0.0
C117 C 0.53849 0.5578 0.03768 0.0
H118 H 0.61133 0.59579 0.07994 0.0
H119 H 0.54717 0.63486 0.05546 0.0
C120 C 0.71668 0.75834 0.09433 0.0
N121 N 0.78216 0.80417 0.07499 0.0
C122 C 0.73103 0.75047 0.0693 0.0
C123 C 0.73569 0.78952 0.10953 0.0
C124 C 0.76415 0.77396 0.05988 0.0
C125 C 0.76873 0.81236 0.09939 0.0
C126 C 0.64468 0.66685 0.02711 0.0
C127 C 0.65941 0.65207 0.00901 0.0
C128 C 0.61873 0.67144 0.01479 0.0
C129 C 0.64788 0.64205 0.97886 0.0
C130 C 0.6079 0.66106 0.98456 0.0
N131 N 0.62257 0.6467 0.96737 0.0
C132 C 0.70621 0.65178 0.08777 0.0
C133 C 0.74008 0.70084 0.11822 0.0
C134 C 0.73358 0.64633 0.08371 0.0
N135 N 0.71031 0.67938 0.10371 0.0
C136 C 0.76835 0.69648 0.11459 0.0
C137 C 0.76557 0.66966 0.09609 0.0
H138 H 0.68212 0.63515 0.07662 0.0
H139 H 0.7425 0.72247 0.13099 0.0
C140 C 0.64704 0.76841 0.0401 0.0
N141 N 0.66277 0.7498 0.03645 0.0
C142 C 0.6519 0.79321 0.01859 0.0
C143 C 0.68977 0.77985 0.99014 0.0
C144 C 0.68366 0.75476 0.01202 0.0
C145 C 0.67361 0.79926 0.99335 0.0
H146 H 0.63095 0.76412 0.05998 0.0
H147 H 0.69569 0.73941 0.00957 0.0
O148 O 0.63343 0.66108 0.12683 0.0
O149 O 0.60743 0.69924 0.08595 0.0
O150 O 0.68432 0.73578 0.10422 0.0
O151 O 0.65546 0.6762 0.05684 0.0
H152 H 0.63006 0.60117 0.13244 0.0
H153 H 0.67453 0.70264 0.16987 0.0
H154 H 0.66187 0.58782 0.17126 0.0
H155 H 0.70533 0.68742 0.20822 0.0
H156 H 0.5112 0.70689 0.08843 0.0
H157 H 0.57288 0.6505 0.12747 0.0
H158 H 0.56919 0.72507 0.06847 0.0
H159 H 0.51502 0.63379 0.14638 0.0
H160 H 0.5881 0.71327 0.22323 0.0
H161 H 0.65574 0.80818 0.17656 0.0
H162 H 0.57465 0.54235 0.05225 0.0
H163 H 0.5086 0.58208 0.02764 0.0
H164 H 0.71696 0.72642 0.05736 0.0
H165 H 0.72506 0.79599 0.12902 0.0
H166 H 0.77556 0.76814 0.0406 0.0
H167 H 0.78372 0.83658 0.11095 0.0
H168 H 0.67951 0.64832 0.01819 0.0
H169 H 0.60692 0.68274 0.02839 0.0
H170 H 0.65904 0.63054 0.96461 0.0
H171 H 0.58779 0.66439 0.97479 0.0
H172 H 0.73027 0.62557 0.06897 0.0
H173 H 0.79249 0.71484 0.12475 0.0
H174 H 0.63949 0.80813 0.02205 0.0
H175 H 0.7067 0.78395 0.97092 0.0
Li176 Li 0.28168 0.91582 0.11169 0.0
Li177 Li 0.32574 0.94301 0.07411 0.0
Li178 Li 0.29605 0.97071 0.09201 0.0
Li179 Li 0.26731 0.91995 0.05736 0.0
C180 C 0.33091 0.97223 0.14605 0.0
N181 N 0.34065 0.99858 0.20508 0.0
C182 C 0.3639 0.99334 0.15726 0.0
C183 C 0.30294 0.96425 0.165 0.0
C184 C 0.36829 0.00651 0.18711 0.0
C185 C 0.30836 0.97786 0.19473 0.0
C186 C 0.30184 0.87414 0.08329 0.0
C187 C 0.30087 0.82038 0.08148 0.0
N188 N 0.32707 0.83262 0.10197 0.0
C189 C 0.32888 0.88621 0.10424 0.0
C190 C 0.2878 0.84097 0.07173 0.0
C191 C 0.34122 0.86483 0.11343 0.0
C192 C 0.22824 0.86588 0.14441 0.0
N193 N 0.2628 0.88471 0.14509 0.0
C194 C 0.26429 0.85833 0.19232 0.0
C195 C 0.2811 0.88127 0.16821 0.0
C196 C 0.22842 0.83895 0.19251 0.0
C197 C 0.21047 0.84292 0.16798 0.0
H198 H 0.2144 0.86916 0.12569 0.0
H199 H 0.30862 0.8966 0.16815 0.0
C200 C 0.398 0.97459 0.0694 0.0
N201 N 0.36765 0.95086 0.0573 0.0
C202 C 0.42831 0.98354 0.05372 0.0
C203 C 0.39536 0.94308 0.0138 0.0
C204 C 0.36581 0.93463 0.03042 0.0
C205 C 0.4272 0.96819 0.02516 0.0
H206 H 0.39856 0.98736 0.09064 0.0
H207 H 0.34116 0.91628 0.02118 0.0
C208 C 0.22604 0.94068 0.09786 0.0
N209 N 0.17932 0.96302 0.10187 0.0
C210 C 0.19983 0.93009 0.0762 0.0
C211 C 0.22788 0.96206 0.12205 0.0
C212 C 0.17662 0.94179 0.07849 0.0
C213 C 0.20422 0.97326 0.12352 0.0
C214 C 0.33076 0.98553 0.02905 0.0
C215 C 0.35841 0.01617 0.03931 0.0
C216 C 0.32945 0.97558 0.99834 0.0
C217 C 0.38453 0.03628 0.01865 0.0
C218 C 0.35608 0.99641 0.97839 0.0
N219 N 0.38285 0.02605 0.98888 0.0
C220 C 0.32596 0.04026 0.11304 0.0
C221 C 0.28125 0.02087 0.07641 0.0
C222 C 0.33304 0.07385 0.10936 0.0
N223 N 0.30081 0.01473 0.09618 0.0
C224 C 0.28691 0.0538 0.07256 0.0
C225 C 0.3138 0.08089 0.08838 0.0
H226 H 0.34206 0.03511 0.12771 0.0
H227 H 0.26251 0.00045 0.06224 0.0
C228 C 0.2236 0.86438 0.02163 0.0
N229 N 0.23751 0.89868 0.02404 0.0
C230 C 0.20103 0.84669 0.99782 0.0
C231 C 0.20716 0.89998 0.97954 0.0
C232 C 0.23029 0.91681 0.00342 0.0
C233 C 0.19232 0.86449 0.97666 0.0
H234 H 0.22967 0.85075 0.03855 0.0
H235 H 0.2419 0.94416 0.006 0.0
O236 O 0.32641 0.95921 0.11683 0.0
O237 O 0.2892 0.89455 0.07391 0.0
O238 O 0.24885 0.92916 0.09582 0.0
O239 O 0.30543 0.96502 0.04912 0.0
H240 H 0.38589 -0.00035 0.14298 0.0
H241 H 0.27735 0.94732 0.15706 0.0
H242 H 0.39367 0.02303 0.19601 0.0
H243 H 0.28688 0.97183 0.20962 0.0
H244 H 0.29018 0.79465 0.07274 0.0
H245 H 0.34032 0.91177 0.11339 0.0
H246 H 0.26702 0.83118 0.05538 0.0
H247 H 0.36206 0.87385 0.12967 0.0
H248 H 0.27919 0.85592 0.21061 0.0
H249 H 0.18287 0.82916 0.16736 0.0
H250 H 0.45226 0.0026 0.06368 0.0
H251 H 0.39303 0.93094 0.99171 0.0
H252 H 0.19699 0.91257 0.05804 0.0
H253 H 0.24773 0.97074 0.13916 0.0
H254 H 0.15634 0.93384 0.06176 0.0
H255 H 0.20572 0.99017 0.14186 0.0
H256 H 0.35998 0.02404 0.06309 0.0
H257 H 0.30827 0.95183 0.99011 0.0
H258 H 0.40621 0.05993 0.02631 0.0
H259 H 0.35553 0.98895 0.9546 0.0
H260 H 0.35433 0.09427 0.12155 0.0
H261 H 0.27215 0.05836 0.05554 0.0
H262 H 0.18955 0.81921 0.99659 0.0
H263 H 0.20076 0.91438 0.96367 0.0
Li264 Li 0.65437 0.92734 0.44061 0.0
Li265 Li 0.67657 0.97664 0.40869 0.0
Li266 Li 0.61807 0.94834 0.42232 0.0
Li267 Li 0.64054 0.92221 0.38626 0.0
C268 C 0.64647 0.97075 0.47977 0.0
N269 N 0.62382 0.9706 0.539 0.0
C270 C 0.66261 0.0002 0.49785 0.0
C271 C 0.6188 0.94118 0.49183 0.0
C272 C 0.65079 -0.00038 0.52774 0.0
C273 C 0.60773 0.94164 0.52181 0.0
C274 C 0.71778 0.94707 0.41532 0.0
C275 C 0.76787 0.94129 0.41271 0.0
N276 N 0.78205 0.96414 0.43613 0.0
C277 C 0.73288 0.97051 0.43936 0.0
C278 C 0.73542 0.93235 0.40186 0.0
C279 C 0.76537 0.97881 0.44954 0.0
C280 C 0.64454 0.87031 0.4727 0.0
N281 N 0.6623 0.90491 0.47371 0.0
C282 C 0.6901 0.90403 0.52023 0.0
C283 C 0.68443 0.92203 0.49704 0.0
C284 C 0.67203 0.8683 0.51962 0.0
C285 C 0.64877 0.85136 0.49575 0.0
H286 H 0.62739 0.85747 0.45373 0.0
H287 H 0.69789 0.94958 0.49754 0.0
C288 C 0.70876 0.0458 0.4169 0.0
N289 N 0.71377 0.0216 0.40341 0.0
C290 C 0.73561 0.0791 0.41969 0.0
C291 C 0.77215 0.06239 0.3934 0.0
C292 C 0.74426 0.02938 0.39058 0.0
C293 C 0.7681 0.08741 0.40892 0.0
H294 H 0.68421 0.03874 0.42689 0.0
H295 H 0.74743 0.00962 0.37975 0.0
C296 C 0.57659 0.8782 0.41082 0.0
N297 N 0.51213 0.83372 0.38843 0.0
C298 C 0.56289 0.88823 0.38685 0.0
C299 C 0.55742 0.84555 0.42343 0.0
C300 C 0.53029 0.86537 0.37584 0.0
C301 C 0.5249 0.82344 0.4118 0.0
C302 C 0.65323 0.989 0.35903 0.0
C303 C 0.64898 0.01752 0.35939 0.0
C304 C 0.67486 0.98683 0.33728 0.0
C305 C 0.66673 0.04362 0.33801 0.0
C306 C 0.69214 0.01346 0.31628 0.0
N307 N 0.68778 0.04108 0.31709 0.0
C308 C 0.59439 0.99092 0.43998 0.0
C309 C 0.55194 0.93278 0.44522 0.0
C310 C 0.57408 0.00115 0.45558 0.0
N311 N 0.58332 0.95729 0.43553 0.0
C312 C 0.53047 0.94189 0.46041 0.0
C313 C 0.54179 0.97647 0.46652 0.0
H314 H 0.61993 0.00975 0.433 0.0
H315 H 0.54406 0.90615 0.44258 0.0
C316 C 0.6457 0.87232 0.35456 0.0
N317 N 0.63211 0.89299 0.35226 0.0
C318 C 0.64132 0.8497 0.33086 0.0
C319 C 0.60816 0.86941 0.30312 0.0
C320 C 0.61363 0.89208 0.32726 0.0
C321 C 0.62227 0.8479 0.30464 0.0
H322 H 0.66018 0.87362 0.37483 0.0
H323 H 0.60309 0.90886 0.32611 0.0
O324 O 0.65755 0.97132 0.45028 0.0
O325 O 0.68596 0.93843 0.40481 0.0
O326 O 0.60863 0.8999 0.42186 0.0
O327 O 0.63684 0.96361 0.38027 0.0
H328 H 0.684 0.02331 0.4888 0.0
H329 H 0.60586 0.91815 0.47822 0.0
H330 H 0.66302 0.02225 0.54198 0.0
H331 H 0.58632 0.91898 0.5314 0.0
H332 H 0.78179 0.93007 0.4025 0.0
H333 H 0.71982 0.98239 0.44996 0.0
H334 H 0.72416 0.91423 0.38317 0.0
H335 H 0.77735 0.99695 0.46809 0.0
H336 H 0.7083 0.91776 0.53837 0.0
H337 H 0.63482 0.82376 0.49445 0.0
H338 H 0.73152 0.09748 0.43219 0.0
H339 H 0.79687 0.06794 0.3848 0.0
H340 H 0.57703 0.91343 0.37694 0.0
H341 H 0.5675 0.83736 0.44206 0.0
H342 H 0.51941 0.87283 0.35732 0.0
H343 H 0.50981 0.79811 0.42135 0.0
H344 H 0.63234 0.01956 0.37612 0.0
H345 H 0.67859 0.965 0.33688 0.0
H346 H 0.66383 0.06593 0.33808 0.0
H347 H 0.70912 0.01223 0.29941 0.0
H348 H 0.58436 0.02802 0.46024 0.0
H349 H 0.50563 0.92194 0.46796 0.0
H350 H 0.65337 0.8343 0.33292 0.0
H351 H 0.59294 0.8687 0.28361 0.0
Li352 Li 0.06897 0.7171 0.43224 0.0
Li353 Li 0.01862 0.68789 0.40227 0.0
Li354 Li 0.04775 0.6587 0.41553 0.0
Li355 Li 0.07198 0.70571 0.37805 0.0
C356 C 0.02776 0.66629 0.47346 0.0
N357 N 0.03065 0.64499 0.53251 0.0
C358 C -0.00116 0.65228 0.49232 0.0
C359 C 0.05817 0.66946 0.48464 0.0
C360 C 0.00082 0.64168 0.52211 0.0
C361 C 0.0591 0.65855 0.51455 0.0
C362 C 0.04668 0.75811 0.40624 0.0
C363 C 0.04688 0.81114 0.39994 0.0
N364 N 0.02804 0.80452 0.42613 0.0
C365 C 0.02735 0.75186 0.43315 0.0
C366 C 0.05656 0.78799 0.38951 0.0
C367 C 0.01817 0.77561 0.4428 0.0
C368 C 0.1236 0.77672 0.45275 0.0
N369 N 0.09294 0.75102 0.46249 0.0
C370 C 0.09959 0.77833 0.51124 0.0
C371 C 0.08047 0.7514 0.49099 0.0
C372 C 0.13115 0.80533 0.50156 0.0
C373 C 0.14317 0.8044 0.47195 0.0
H374 H 0.13255 0.77583 0.42981 0.0
H375 H 0.05556 0.73121 0.49789 0.0
C376 C 0.9503 0.65317 0.41538 0.0
N377 N 0.97363 0.68032 0.39886 0.0
C378 C 0.91785 0.64843 0.42028 0.0
C379 C 0.93323 0.69844 0.38922 0.0
C380 C 0.96548 0.7021 0.38475 0.0
C381 C 0.90938 0.67199 0.40814 0.0
H382 H 0.9576 0.63629 0.42623 0.0
H383 H 0.98453 0.72335 0.3715 0.0
C384 C 0.1186 0.68955 0.40237 0.0
N385 N 0.16559 0.67333 0.37919 0.0
C386 C 0.10843 0.66287 0.38123 0.0
C387 C 0.15266 0.70806 0.41163 0.0
C388 C 0.13257 0.65504 0.36981 0.0
C389 C 0.17603 0.69944 0.39968 0.0
C390 C 0.00475 0.65176 0.35316 0.0
C391 C 0.97544 0.61958 0.35427 0.0
C392 C 0.00725 0.67561 0.33135 0.0
C393 C 0.94892 0.61186 0.33359 0.0
C394 C 0.98019 0.66691 0.31106 0.0
N395 N 0.95181 0.63549 0.31261 0.0
C396 C 0.00622 0.59227 0.43289 0.0
C397 C 0.06458 0.61037 0.44133 0.0
C398 C 0.99626 0.56215 0.44907 0.0
N399 N 0.0398 0.61575 0.42967 0.0
C400 C 0.05574 0.58036 0.45745 0.0
C401 C 0.02116 0.55624 0.46209 0.0
H402 H 0.98714 0.59787 0.42438 0.0
H403 H 0.09104 0.63006 0.43975 0.0
C404 C 0.12039 0.75974 0.3442 0.0
N405 N 0.10043 0.72528 0.34336 0.0
C406 C 0.14297 0.77699 0.32018 0.0
C407 C 0.12444 0.72282 0.29501 0.0
C408 C 0.10192 0.70659 0.31951 0.0
C409 C 0.14535 0.75857 0.29512 0.0
H410 H 0.11867 0.77383 0.36361 0.0
H411 H 0.08581 0.67913 0.31961 0.0
O412 O 0.02575 0.67584 0.44394 0.0
O413 O 0.05604 0.7353 0.39612 0.0
O414 O 0.09566 0.6982 0.41347 0.0
O415 O 0.03062 0.66022 0.37372 0.0
H416 H 0.97507 0.64952 0.48398 0.0
H417 H 0.08082 0.68015 0.47044 0.0
H418 H 0.97862 0.63075 0.53694 0.0
H419 H 0.08244 0.6608 0.52347 0.0
H420 H 0.05433 0.83435 0.38719 0.0
H421 H 0.01932 0.72889 0.44641 0.0
H422 H 0.07151 0.7932 0.36863 0.0
H423 H 0.00316 0.77105 0.46352 0.0
H424 H 0.0895 0.77853 0.53386 0.0
H425 H 0.16752 0.82481 0.46384 0.0
H426 H 0.90055 0.62794 0.43533 0.0
H427 H 0.92757 0.71696 0.3792 0.0
H428 H 0.0822 0.64832 0.37371 0.0
H429 H 0.16093 0.72892 0.42784 0.0
H430 H 0.12506 0.63445 0.35345 0.0
H431 H 0.20249 0.71354 0.40666 0.0
H432 H 0.97311 0.60082 0.37099 0.0
H433 H 0.02967 0.70074 0.33037 0.0
H434 H 0.92601 0.5871 0.33425 0.0
H435 H 0.98168 0.68518 0.29417 0.0
H436 H 0.96935 0.5441 0.45206 0.0
H437 H 0.07566 0.57692 0.46759 0.0
H438 H 0.15794 0.80455 0.32105 0.0
H439 H 0.12562 0.70752 0.27637 0.0
Li440 Li 0.30865 0.32817 0.40147 0.0
Li441 Li 0.28045 0.35411 0.43371 0.0
Li442 Li 0.29095 0.36549 0.37893 0.0
Li443 Li 0.33798 0.38844 0.41411 0.0
C444 C 0.23046 0.30596 0.38543 0.0
N445 N 0.16748 0.2768 0.35701 0.0
C446 C 0.20538 0.31278 0.39626 0.0
C447 C 0.22326 0.28376 0.36053 0.0
C448 C 0.17378 0.29794 0.38148 0.0
C449 C 0.19134 0.26944 0.34636 0.0
C450 C 0.34267 0.35985 0.46666 0.0
C451 C 0.36564 0.39295 0.51302 0.0
N452 N 0.39021 0.38403 0.51357 0.0
C453 C 0.36793 0.35075 0.46781 0.0
C454 C 0.34128 0.38089 0.48954 0.0
C455 C 0.3918 0.36332 0.49169 0.0
C456 C 0.34296 0.29071 0.39187 0.0
N457 N 0.31305 0.28904 0.3995 0.0
C458 C 0.28981 0.23181 0.41715 0.0
C459 C 0.2864 0.26017 0.41112 0.0
C460 C 0.32099 0.23316 0.41106 0.0
C461 C 0.34734 0.2627 0.3971 0.0
H462 H 0.36403 0.31432 0.38336 0.0
H463 H 0.26322 0.25999 0.41758 0.0
C464 C 0.24198 0.36901 0.47519 0.0
N465 N 0.25055 0.34535 0.46692 0.0
C466 C 0.21707 0.3613 0.49762 0.0
C467 C 0.21147 0.30556 0.50344 0.0
C468 C 0.23645 0.31435 0.48081 0.0
C469 C 0.20093 0.32893 0.5116 0.0
H470 H 0.25363 0.39338 0.46357 0.0
H471 H 0.24392 0.29613 0.47362 0.0
C472 C 0.34692 0.35776 0.34855 0.0
N473 N 0.37028 0.33714 0.29875 0.0
C474 C 0.38121 0.37643 0.33988 0.0
C475 C 0.32454 0.32861 0.33195 0.0
C476 C 0.39252 0.3656 0.31461 0.0
C477 C 0.33682 0.3186 0.30682 0.0
C478 C 0.31107 0.43042 0.40022 0.0
C479 C 0.33669 0.44316 0.37773 0.0
C480 C 0.29626 0.44975 0.40919 0.0
C481 C 0.34715 0.47513 0.36475 0.0
C482 C 0.30742 0.4816 0.39564 0.0
N483 N 0.33243 0.49353 0.37389 0.0
C484 C 0.2442 0.37896 0.35022 0.0
C485 C 0.28075 0.37357 0.31442 0.0
C486 C 0.22537 0.38217 0.3264 0.0
N487 N 0.27062 0.37373 0.3439 0.0
C488 C 0.26288 0.3771 0.2898 0.0
C489 C 0.23428 0.38076 0.2956 0.0
H490 H 0.23721 0.37984 0.37392 0.0
H491 H 0.30246 0.37047 0.30988 0.0
C492 C 0.40808 0.41823 0.42306 0.0
N493 N 0.38145 0.42378 0.42673 0.0
C494 C 0.43887 0.439 0.43809 0.0
C495 C 0.41487 0.47211 0.45875 0.0
C496 C 0.38435 0.45037 0.44369 0.0
C497 C 0.4422 0.46585 0.45673 0.0
H498 H 0.40463 0.39628 0.41014 0.0
H499 H 0.36241 0.4535 0.44703 0.0
O500 O 0.26167 0.32047 0.39946 0.0
O501 O 0.31983 0.34883 0.44289 0.0
O502 O 0.3357 0.3675 0.37377 0.0
O503 O 0.29991 0.39894 0.41304 0.0
H504 H 0.21041 0.32976 0.41557 0.0
H505 H 0.24198 0.27746 0.35232 0.0
H506 H 0.15427 0.30329 0.38944 0.0
H507 H 0.18549 0.25237 0.32696 0.0
H508 H 0.36511 0.40952 0.53072 0.0
H509 H 0.36934 0.33452 0.45021 0.0
H510 H 0.32194 0.38825 0.48886 0.0
H511 H 0.41169 0.35675 0.49274 0.0
H512 H 0.26896 0.21006 0.42847 0.0
H513 H 0.37166 0.26482 0.39162 0.0
H514 H 0.20937 0.37989 0.50278 0.0
H515 H 0.19993 0.28048 0.51383 0.0
H516 H 0.39889 0.39905 0.35253 0.0
H517 H 0.29804 0.31386 0.33849 0.0
H518 H 0.419 0.37979 0.30764 0.0
H519 H 0.31976 0.29606 0.29377 0.0
H520 H 0.34845 0.42868 0.37032 0.0
H521 H 0.27623 0.44021 0.42636 0.0
H522 H 0.36697 0.48531 0.34737 0.0
H523 H 0.29616 0.49682 0.40238 0.0
H524 H 0.20347 0.38469 0.33216 0.0
H525 H 0.27132 0.3768 0.26649 0.0
H526 H 0.45948 0.43351 0.43595 0.0
H527 H 0.41642 0.49234 0.47323 0.0
Li528 Li 0.91999 0.6467 0.93893 0.0
Li529 Li 0.94386 0.61252 0.918 0.0
Li530 Li 0.96882 0.67186 0.90397 0.0
Li531 Li 0.9126 0.62899 0.88583 0.0
C532 C 0.98391 0.67738 0.96654 0.0
N533 N 0.02193 0.72804 0.00876 0.0
C534 C 0.00504 0.6732 0.98737 0.0
C535 C 0.9821 0.70732 0.96715 0.0
C536 C 0.02405 0.69911 0.00857 0.0
C537 C 0.00154 0.73264 0.98866 0.0
C538 C 0.86195 0.57776 0.91701 0.0
C539 C 0.81747 0.52752 0.8921 0.0
N540 N 0.79383 0.53463 0.9038 0.0
C541 C 0.83717 0.58435 0.92909 0.0
C542 C 0.85202 0.54892 0.89866 0.0
C543 C 0.80288 0.56231 0.92204 0.0
C544 C 0.89051 0.67815 0.97246 0.0
N545 N 0.90057 0.65458 0.97424 0.0
C546 C 0.8795 0.64026 0.02578 0.0
C547 C 0.89591 0.63604 0.00026 0.0
C548 C 0.86798 0.66386 0.02433 0.0
C549 C 0.87413 0.68328 0.99734 0.0
H550 H 0.89445 0.69233 0.9514 0.0
H551 H 0.90431 0.61748 0.0009 0.0
C552 C 0.99019 0.59108 0.93186 0.0
N553 N 0.95634 0.5804 0.93063 0.0
C554 C 0.0015 0.57098 0.94613 0.0
C555 C 0.94283 0.52907 0.95732 0.0
C556 C 0.93262 0.54987 0.94252 0.0
C557 C 0.97778 0.53993 0.95991 0.0
H558 H 0.00847 0.6159 0.92288 0.0
H559 H 0.90593 0.54251 0.94188 0.0
C560 C 0.92914 0.69688 0.87876 0.0
N561 N 0.934 0.73954 0.83097 0.0
C562 C 0.9428 0.69515 0.85028 0.0
C563 C 0.91795 0.72036 0.88282 0.0
C564 C 0.945 0.71688 0.82644 0.0
C565 C 0.92067 0.74171 0.85843 0.0
C566 C 0.96998 0.61394 0.86344 0.0
C567 C 0.0048 0.62884 0.85705 0.0
C568 C 0.94823 0.57943 0.85695 0.0
C569 C 0.01741 0.60871 0.84493 0.0
C570 C 0.96181 0.56014 0.84486 0.0
N571 N 0.99585 0.57505 0.83919 0.0
C572 C 0.03821 0.70704 0.90744 0.0
C573 C 0.01689 0.74343 0.89333 0.0
C574 C 0.07055 0.73492 0.91233 0.0
N575 N 0.01204 0.71173 0.89887 0.0
C576 C 0.04905 0.77215 0.89764 0.0
C577 C 0.07613 0.76814 0.90838 0.0
H578 H 0.0333 0.68164 0.91279 0.0
H579 H 0.99559 0.74677 0.8875 0.0
C580 C 0.85376 0.62114 0.85777 0.0
N581 N 0.88131 0.61739 0.85269 0.0
C582 C 0.83114 0.6161 0.83392 0.0
C583 C 0.8662 0.6044 0.79965 0.0
C584 C 0.88779 0.60895 0.82443 0.0
C585 C 0.83753 0.60832 0.80412 0.0
H586 H 0.84984 0.62895 0.88024 0.0
H587 H 0.9104 0.60702 0.82085 0.0
O588 O 0.96572 0.6525 0.94528 0.0
O589 O 0.89569 0.59921 0.92343 0.0
O590 O 0.92629 0.67561 0.90248 0.0
O591 O 0.95719 0.63313 0.87566 0.0
H592 H 0.00682 0.65023 0.98705 0.0
H593 H 0.96609 0.71111 0.95103 0.0
H594 H 0.04053 0.69624 0.02482 0.0
H595 H 0.00048 0.75597 0.98934 0.0
H596 H 0.80946 0.50523 0.87776 0.0
H597 H 0.84433 0.60646 0.94344 0.0
H598 H 0.87075 0.54308 0.88958 0.0
H599 H 0.78347 0.56727 0.93101 0.0
H600 H 0.87535 0.62487 0.04618 0.0
H601 H 0.86506 0.70121 0.99491 0.0
H602 H 0.02862 0.58016 0.9471 0.0
H603 H 0.92364 0.50561 0.96796 0.0
H604 H 0.95169 0.67734 0.84647 0.0
H605 H 0.9073 0.72216 0.90459 0.0
H606 H 0.95548 0.71576 0.80433 0.0
H607 H 0.91215 0.76001 0.86132 0.0
H608 H 0.0219 0.65567 0.86131 0.0
H609 H 0.92119 0.56766 0.86135 0.0
H610 H 0.04434 0.61987 0.84004 0.0
H611 H 0.94529 0.53332 0.83996 0.0
H612 H 0.0902 0.73037 0.92136 0.0
H613 H 0.0522 0.79725 0.89413 0.0
H614 H 0.80921 0.61887 0.83881 0.0
H615 H 0.87273 0.59917 0.77707 0.0
Li616 Li 0.32511 0.29698 0.91483 0.0
Li617 Li 0.38515 0.33282 0.92216 0.0
Li618 Li 0.36253 0.28244 0.88644 0.0
Li619 Li 0.3575 0.27624 0.94362 0.0
C620 C 0.34429 0.33132 0.8583 0.0
N621 N 0.31425 0.34441 0.80873 0.0
C622 C 0.34616 0.36297 0.85553 0.0
C623 C 0.32729 0.3064 0.83573 0.0
C624 C 0.33074 0.36907 0.83035 0.0
C625 C 0.31224 0.31349 0.81087 0.0
C626 C 0.35811 0.33966 0.97416 0.0
C627 C 0.39259 0.37514 0.01609 0.0
N628 N 0.37771 0.39468 0.01316 0.0
C629 C 0.34305 0.36001 0.97165 0.0
C630 C 0.38292 0.34712 0.99669 0.0
C631 C 0.35331 0.38771 0.99159 0.0
C632 C 0.26824 0.28614 0.94571 0.0
N633 N 0.28203 0.29506 0.91704 0.0
C634 C 0.23602 0.30291 0.90054 0.0
C635 C 0.26624 0.30269 0.8943 0.0
C636 C 0.22189 0.29478 0.93031 0.0
C637 C 0.23813 0.28575 0.95286 0.0
H638 H 0.28126 0.28017 0.96338 0.0
H639 H 0.27715 0.30922 0.87154 0.0
C640 C 0.44956 0.38334 0.94339 0.0
N641 N 0.41986 0.37819 0.9309 0.0
C642 C 0.47146 0.41412 0.95797 0.0
C643 C 0.43315 0.43468 0.94429 0.0
C644 C 0.41197 0.40345 0.93 0.0
C645 C 0.46264 0.43974 0.95958 0.0
H646 H 0.45529 0.3629 0.94364 0.0
H647 H 0.38789 0.39842 0.92043 0.0
C648 C 0.28837 0.22962 0.91232 0.0
N649 N 0.21859 0.18651 0.91422 0.0
C650 C 0.27226 0.21462 0.94016 0.0
C651 C 0.26905 0.22243 0.88539 0.0
C652 C 0.23694 0.19295 0.94065 0.0
C653 C 0.23378 0.20065 0.88685 0.0
C654 C 0.41914 0.28541 0.92917 0.0
C655 C 0.42506 0.2632 0.91123 0.0
C656 C 0.43264 0.29378 0.95896 0.0
C657 C 0.44407 0.24945 0.92353 0.0
C658 C 0.45148 0.27946 0.97043 0.0
N659 N 0.45674 0.25776 0.95264 0.0
C660 C 0.39128 0.27938 0.82835 0.0
C661 C 0.35 0.22694 0.85064 0.0
C662 C 0.39566 0.26212 0.80357 0.0
N663 N 0.36874 0.26153 0.85117 0.0
C664 C 0.35355 0.20873 0.82644 0.0
C665 C 0.37677 0.22625 0.80256 0.0
H666 H 0.40601 0.30692 0.82958 0.0
H667 H 0.33245 0.21343 0.86923 0.0
C668 C 0.34674 0.25218 0.00542 0.0
N669 N 0.35514 0.24757 0.97639 0.0
C670 C 0.34291 0.22939 0.02889 0.0
C671 C 0.35714 0.19818 0.99214 0.0
C672 C 0.35986 0.22099 0.96932 0.0
C673 C 0.34831 0.20213 0.02225 0.0
H674 H 0.34214 0.27298 0.01014 0.0
H675 H 0.36523 0.21723 0.9458 0.0
O676 O 0.35964 0.32513 0.88263 0.0
O677 O 0.34899 0.31289 0.95438 0.0
O678 O 0.32281 0.25158 0.91151 0.0
O679 O 0.40031 0.29888 0.9176 0.0
H680 H 0.35931 0.38264 0.87264 0.0
H681 H 0.32549 0.28178 0.83741 0.0
H682 H 0.33192 0.39342 0.82798 0.0
H683 H 0.29892 0.29439 0.79332 0.0
H684 H 0.41201 0.38141 0.03341 0.0
H685 H 0.32407 0.35487 0.95415 0.0
H686 H 0.39489 0.3317 0.99892 0.0
H687 H 0.34204 0.40381 0.98976 0.0
H688 H 0.22411 0.3098 0.88247 0.0
H689 H 0.22852 0.27988 0.97626 0.0
H690 H 0.49433 0.41732 0.96897 0.0
H691 H 0.42528 0.45366 0.94519 0.0
H692 H 0.28679 0.21996 0.96123 0.0
H693 H 0.2811 0.23368 0.86364 0.0
H694 H 0.22411 0.18135 0.96207 0.0
H695 H 0.21848 0.19501 0.86622 0.0
H696 H 0.41503 0.25656 0.88809 0.0
H697 H 0.42816 0.31072 0.97326 0.0
H698 H 0.44873 0.23213 0.90993 0.0
H699 H 0.46181 0.2855 0.99353 0.0
H700 H 0.41401 0.27659 0.78573 0.0
H701 H 0.33803 0.18118 0.82636 0.0
H702 H 0.33553 0.23277 0.05182 0.0
H703 H 0.3606 0.17688 0.98608 0.0
Li704 Li 0.70952 0.07151 0.8826 0.0
Li705 Li 0.71842 0.07325 0.93929 0.0
Li706 Li 0.69784 0.02036 0.91053 0.0
Li707 Li 0.6604 0.04342 0.91917 0.0
C708 C 0.76697 0.05539 0.89913 0.0
N709 N 0.81663 0.03889 0.88531 0.0
C710 C 0.79861 0.07223 0.9139 0.0
C711 C 0.76089 0.03059 0.87689 0.0
C712 C 0.82332 0.06343 0.9067 0.0
C713 C 0.78621 0.02247 0.87036 0.0
C714 C 0.71446 0.12794 0.91359 0.0
C715 C 0.72057 0.184 0.91344 0.0
N716 N 0.75477 0.198 0.90936 0.0
C717 C 0.74971 0.1429 0.90945 0.0
C718 C 0.69976 0.14863 0.91565 0.0
C719 C 0.76963 0.17836 0.90734 0.0
C720 C 0.71993 0.12177 0.83672 0.0
N721 N 0.72791 0.09784 0.84588 0.0
C722 C 0.77176 0.11664 0.80784 0.0
C723 C 0.75265 0.09446 0.83142 0.0
C724 C 0.76569 0.14297 0.79912 0.0
C725 C 0.73869 0.14483 0.8132 0.0
H726 H 0.70008 0.12397 0.84855 0.0
H727 H 0.75838 0.0752 0.83877 0.0
C728 C 0.76843 0.0909 0.98504 0.0
N729 N 0.74541 0.09881 0.9734 0.0
C730 C 0.79117 0.11122 0.00796 0.0
C731 C 0.76387 0.14543 0.00844 0.0
C732 C 0.74189 0.12464 0.98537 0.0
C733 C 0.78971 0.13956 0.0193 0.0
H734 H 0.76975 0.06939 0.97586 0.0
H735 H 0.72248 0.1296 0.97661 0.0
C736 C 0.65377 0.0015 0.85782 0.0
N737 N 0.62445 0.95164 0.81305 0.0
C738 C 0.62021 0.97484 0.86126 0.0
C739 C 0.67228 0.00306 0.83145 0.0
C740 C 0.60587 0.94981 0.83841 0.0
C741 C 0.65704 0.97753 0.80913 0.0
C742 C 0.6705 0.0275 0.97954 0.0
C743 C 0.66692 0.00236 0.00032 0.0
C744 C 0.66289 0.05249 0.98899 0.0
C745 C 0.65567 0.00258 0.0303 0.0
C746 C 0.65171 0.05182 0.01914 0.0
N747 N 0.64836 0.02709 0.03901 0.0
C748 C 0.71827 0.97852 0.93668 0.0
C749 C 0.68057 0.95091 0.89498 0.0
C750 C 0.71817 0.9486 0.94432 0.0
N751 N 0.69916 0.979 0.91277 0.0
C752 C 0.67946 0.92028 0.902 0.0
C753 C 0.69778 0.91874 0.92742 0.0
H754 H 0.7325 0.00115 0.95063 0.0
H755 H 0.66553 0.95165 0.87613 0.0
C756 C 0.60241 0.05173 0.92892 0.0
N757 N 0.61486 0.02997 0.92947 0.0
C758 C 0.5704 0.04182 0.9417 0.0
C759 C 0.56479 0.98731 0.95475 0.0
C760 C 0.59658 0.99811 0.94147 0.0
C761 C 0.55143 0.00943 0.95548 0.0
H762 H 0.61779 0.07711 0.91955 0.0
H763 H 0.60751 0.98164 0.94201 0.0
O764 O 0.7424 0.06358 0.90616 0.0
O765 O 0.69425 0.09325 0.91564 0.0
O766 O 0.66808 0.02633 0.87985 0.0
O767 O 0.6814 0.0275 0.95011 0.0
H768 H 0.80426 0.09224 0.93044 0.0
H769 H 0.73682 0.01769 0.8648 0.0
H770 H 0.84786 0.07622 0.91804 0.0
H771 H 0.78169 0.00315 0.85337 0.0
H772 H 0.70952 0.20032 0.91497 0.0
H773 H 0.76165 0.12741 0.90786 0.0
H774 H 0.67253 0.13746 0.9189 0.0
H775 H 0.79692 0.19026 0.9041 0.0
H776 H 0.79167 0.11363 0.79701 0.0
H777 H 0.73311 0.16472 0.8071 0.0
H778 H 0.81064 0.10568 0.0156 0.0
H779 H 0.7612 0.16642 0.01712 0.0
H780 H 0.60544 0.97341 0.88141 0.0
H781 H 0.69812 0.02371 0.82826 0.0
H782 H 0.57999 0.92892 0.84083 0.0
H783 H 0.67112 0.97832 0.78867 0.0
H784 H 0.67274 0.98286 0.99333 0.0
H785 H 0.66554 0.07216 0.97321 0.0
H786 H 0.65276 0.98325 0.04664 0.0
H787 H 0.64569 0.07097 0.02676 0.0
H788 H 0.73223 0.94834 0.96441 0.0
H789 H 0.6635 0.89775 0.8884 0.0
H790 H 0.56096 0.05956 0.94132 0.0
H791 H 0.55161 0.96243 0.96555 0.0
Li792 Li 0.35352 0.07587 0.56087 0.0
Li793 Li 0.3635 0.07747 0.61417 0.0
Li794 Li 0.38554 0.0489 0.57803 0.0
Li795 Li 0.32321 0.02398 0.5908 0.0
C796 C 0.4164 0.12727 0.56374 0.0
N797 N 0.45043 0.18565 0.52824 0.0
C798 C 0.40833 0.15323 0.56626 0.0
C799 C 0.44188 0.13111 0.54313 0.0
C800 C 0.42575 0.18248 0.5481 0.0
C801 C 0.4588 0.1608 0.52543 0.0
C802 C 0.30555 0.07762 0.61424 0.0
C803 C 0.26915 0.06961 0.65787 0.0
N804 N 0.27879 0.10328 0.65694 0.0
C805 C 0.31473 0.11204 0.61347 0.0
C806 C 0.28232 0.05614 0.63644 0.0
C807 C 0.30108 0.12456 0.63536 0.0
C808 C 0.31986 0.10298 0.52721 0.0
N809 N 0.3473 0.0984 0.52631 0.0
C810 C 0.36534 0.12808 0.47828 0.0
C811 C 0.36921 0.10944 0.50195 0.0
C812 C 0.338 0.13431 0.47933 0.0
C813 C 0.31461 0.12086 0.50375 0.0
H814 H 0.30234 0.09324 0.54642 0.0
H815 H 0.39011 0.1044 0.50114 0.0
C816 C 0.39726 0.13788 0.65006 0.0
N817 N 0.37332 0.10419 0.65086 0.0
C818 C 0.40147 0.1589 0.6752 0.0
C819 C 0.35787 0.10974 0.70234 0.0
C820 C 0.35446 0.08973 0.67664 0.0
C821 C 0.38111 0.14497 0.70155 0.0
H822 H 0.41266 0.14865 0.6297 0.0
H823 H 0.33582 0.06287 0.67685 0.0
C824 C 0.33819 0.02576 0.52035 0.0
N825 N 0.32216 0.01835 0.45837 0.0
C826 C 0.30509 0.01608 0.51086 0.0
C827 C 0.36312 0.03156 0.49836 0.0
C828 C 0.2975 0.01251 0.4794 0.0
C829 C 0.35451 0.0277 0.46712 0.0
C830 C 0.35005 0.00325 0.63562 0.0
C831 C 0.36601 0.98372 0.63317 0.0
C832 C 0.3218 0.99238 0.65502 0.0
C833 C 0.35311 0.95335 0.64986 0.0
C834 C 0.30965 0.96185 0.67129 0.0
N835 N 0.32541 0.94311 0.66838 0.0
C836 C 0.45186 0.05752 0.56751 0.0
C837 C 0.40398 0.00412 0.55432 0.0
C838 C 0.47385 0.04813 0.55368 0.0
N839 N 0.41761 0.0359 0.56662 0.0
C840 C 0.425 0.99342 0.54089 0.0
C841 C 0.46026 0.01594 0.53972 0.0
H842 H 0.46197 0.08246 0.57786 0.0
H843 H 0.37658 0.98757 0.55398 0.0
C844 C 0.25245 0.98153 0.5854 0.0
N845 N 0.28203 0.98151 0.59065 0.0
C846 C 0.22318 0.95154 0.57665 0.0
C847 C 0.25486 0.92171 0.58062 0.0
C848 C 0.28365 0.95237 0.58884 0.0
C849 C 0.22455 0.92142 0.57326 0.0
H850 H 0.25226 0.00532 0.58559 0.0
H851 H 0.30783 0.95335 0.59153 0.0
O852 O 0.39952 0.09833 0.58133 0.0
O853 O 0.31926 0.06506 0.5934 0.0
O854 O 0.34625 0.0299 0.551 0.0
O855 O 0.36229 0.03299 0.61933 0.0
H856 H 0.38855 0.15068 0.5818 0.0
H857 H 0.44811 0.11118 0.54027 0.0
H858 H 0.41957 0.20263 0.54974 0.0
H859 H 0.47842 0.16398 0.50929 0.0
H860 H 0.25137 0.05332 0.67533 0.0
H861 H 0.33224 0.12894 0.59621 0.0
H862 H 0.27481 0.02944 0.6374 0.0
H863 H 0.30819 0.15121 0.63516 0.0
H864 H 0.38371 0.13791 0.45961 0.0
H865 H 0.2933 0.12536 0.50536 0.0
H866 H 0.42019 0.18581 0.6739 0.0
H867 H 0.34149 0.09797 0.72212 0.0
H868 H 0.28559 0.01175 0.52759 0.0
H869 H 0.38895 0.03939 0.50531 0.0
H870 H 0.27203 0.00518 0.47171 0.0
H871 H 0.37357 0.03226 0.44982 0.0
H872 H 0.38819 0.99196 0.61865 0.0
H873 H 0.30904 0.00703 0.65711 0.0
H874 H 0.36516 0.93794 0.64811 0.0
H875 H 0.28762 0.953 0.68617 0.0
H876 H 0.50104 0.06596 0.55335 0.0
H877 H 0.41369 0.96848 0.53019 0.0
H878 H 0.2003 0.95228 0.57084 0.0
H879 H 0.25709 0.89916 0.57753 0.0
Li880 Li 0.97318 0.2958 0.58913 0.0
Li881 Li 0.9492 0.33201 0.58074 0.0
Li882 Li 0.92245 0.28258 0.61684 0.0
Li883 Li 0.92106 0.27425 0.55994 0.0
C884 C 0.99113 0.33598 0.64292 0.0
N885 N 0.03937 0.35843 0.68932 0.0
C886 C 0.02078 0.36783 0.64067 0.0
C887 C 0.98581 0.31578 0.66901 0.0
C888 C 0.04492 0.37866 0.6643 0.0
C889 C 0.01055 0.32751 0.69215 0.0
C890 C 0.96676 0.32565 0.52132 0.0
C891 C 0.94012 0.34187 0.48187 0.0
N892 N 0.96875 0.35377 0.46431 0.0
C893 C 0.99592 0.33804 0.50291 0.0
C894 C 0.93861 0.32757 0.51076 0.0
C895 C 0.99642 0.35215 0.47414 0.0
C896 C 0.01867 0.28436 0.55851 0.0
N897 N 0.01523 0.29577 0.5865 0.0
C898 C 0.07127 0.30833 0.60096 0.0
C899 C 0.04042 0.30687 0.60801 0.0
C900 C 0.07588 0.29789 0.57169 0.0
C901 C 0.0488 0.28513 0.5506 0.0
H902 H 0.99816 0.27547 0.54194 0.0
H903 H 0.03703 0.31511 0.63038 0.0
C904 C 0.93712 0.38521 0.56191 0.0
N905 N 0.96108 0.37689 0.56973 0.0
C906 C 0.94676 0.4159 0.54664 0.0
C907 C 0.00551 0.42922 0.54915 0.0
C908 C 0.99473 0.39826 0.56407 0.0
C909 C 0.98131 0.43796 0.53936 0.0
H910 H 0.91044 0.36713 0.56574 0.0
H911 H 0.01298 0.39025 0.56941 0.0
C912 C 0.94456 0.22922 0.59606 0.0
N913 N 0.97271 0.18759 0.60199 0.0
C914 C 0.93742 0.20372 0.5743 0.0
C915 C 0.96545 0.233 0.62122 0.0
C916 C 0.95202 0.18306 0.57761 0.0
C917 C 0.97963 0.21189 0.6237 0.0
C918 C 0.86521 0.27641 0.58693 0.0
C919 C 0.85091 0.24141 0.59233 0.0
C920 C 0.84399 0.29052 0.58495 0.0
C921 C 0.81559 0.22113 0.5955 0.0
C922 C 0.80878 0.26936 0.58821 0.0
N923 N 0.79543 0.2354 0.59338 0.0
C924 C 0.8771 0.27651 0.66578 0.0
C925 C 0.89515 0.23556 0.66487 0.0
C926 C 0.85577 0.26016 0.69102 0.0
N927 N 0.89613 0.26389 0.65329 0.0
C928 C 0.87477 0.21885 0.69023 0.0
C929 C 0.85464 0.23101 0.70354 0.0
H930 H 0.87797 0.2988 0.65576 0.0
H931 H 0.9098 0.22556 0.65412 0.0
C932 C 0.91474 0.2359 0.50727 0.0
N933 N 0.89777 0.24778 0.52448 0.0
C934 C 0.89882 0.21436 0.48222 0.0
C935 C 0.84916 0.21981 0.49162 0.0
C936 C 0.86611 0.24134 0.51635 0.0
C937 C 0.86516 0.20525 0.47464 0.0
H938 H 0.94044 0.24252 0.51353 0.0
H939 H 0.85361 0.25234 0.52922 0.0
O940 O 0.96699 0.32519 0.62021 0.0
O941 O 0.96626 0.3125 0.54984 0.0
O942 O 0.93075 0.24997 0.59298 0.0
O943 O 0.8998 0.29704 0.58442 0.0
H944 H 0.02519 0.38401 0.6209 0.0
H945 H 0.96289 0.29132 0.67143 0.0
H946 H 0.06806 0.40316 0.66276 0.0
H947 H 0.00682 0.31205 0.71237 0.0
H948 H 0.91857 0.34361 0.47345 0.0
H949 H 0.01799 0.33693 0.51086 0.0
H950 H 0.91594 0.3184 0.52481 0.0
H951 H 0.01884 0.36189 0.45966 0.0
H952 H 0.09147 0.31803 0.61796 0.0
H953 H 0.05136 0.27728 0.52762 0.0
H954 H 0.92717 0.42132 0.53912 0.0
H955 H 0.03242 0.44557 0.54439 0.0
H956 H 0.92046 0.1996 0.55525 0.0
H957 H 0.97114 0.25242 0.63839 0.0
H958 H 0.94679 0.16333 0.56084 0.0
H959 H 0.99617 0.21488 0.64285 0.0
H960 H 0.8668 0.22994 0.59399 0.0
H961 H 0.85462 0.31757 0.58101 0.0
H962 H 0.8042 0.19404 0.59965 0.0
H963 H 0.79207 0.27995 0.5867 0.0
H964 H 0.84048 0.27017 0.70069 0.0
H965 H 0.87412 0.19609 0.69889 0.0
H966 H 0.91244 0.20437 0.46937 0.0
H967 H 0.82321 0.21353 0.4868 0.0
Li968 Li 0.71236 0.63054 0.61248 0.0
Li969 Li 0.70087 0.67437 0.59352 0.0
Li970 Li 0.66711 0.6156 0.57751 0.0
Li971 Li 0.72662 0.65012 0.5599 0.0
C972 C 0.63913 0.6147 0.63107 0.0
N973 N 0.5734 0.57382 0.65255 0.0
C974 C 0.61837 0.62874 0.63716 0.0
C975 C 0.62667 0.58002 0.63644 0.0
C976 C 0.58516 0.60761 0.64787 0.0
C977 C 0.59332 0.55973 0.64714 0.0
C978 C 0.76405 0.69714 0.62246 0.0
C979 C 0.81722 0.73485 0.64789 0.0
N980 N 0.79968 0.73531 0.67319 0.0
C981 C 0.74656 0.69789 0.64881 0.0
C982 C 0.79968 0.71565 0.62206 0.0
C983 C 0.76503 0.71738 0.67418 0.0
C984 C 0.76033 0.62047 0.64438 0.0
N985 N 0.72918 0.61782 0.64709 0.0
C986 C 0.72699 0.60489 0.70072 0.0
C987 C 0.71228 0.61004 0.67447 0.0
C988 C 0.75914 0.60747 0.6985 0.0
C989 C 0.77562 0.61482 0.66982 0.0
H990 H 0.77388 0.62824 0.6227 0.0
H991 H 0.688 0.60907 0.67619 0.0
C992 C 0.66683 0.7096 0.58945 0.0
N993 N 0.6976 0.71425 0.59827 0.0
C994 C 0.66255 0.73751 0.58407 0.0
C995 C 0.7213 0.77471 0.59878 0.0
C996 C 0.72457 0.74594 0.60352 0.0
C997 C 0.69029 0.77073 0.58781 0.0
H998 H 0.64632 0.68419 0.58418 0.0
H999 H 0.74917 0.74916 0.60938 0.0
C1000 C 0.71395 0.58037 0.58093 0.0
N1001 N 0.73801 0.53654 0.59451 0.0
C1002 C 0.74638 0.58788 0.57103 0.0
C1003 C 0.69355 0.55028 0.59729 0.0
C1004 C 0.75813 0.56547 0.57823 0.0
C1005 C 0.70624 0.52854 0.60407 0.0
C1006 C 0.69506 0.68237 0.53095 0.0
C1007 C 0.67023 0.67996 0.5104 0.0
C1008 C 0.72722 0.71178 0.53126 0.0
C1009 C 0.67803 0.70706 0.49036 0.0
C1010 C 0.73402 0.73833 0.51089 0.0
N1011 N 0.70949 0.73544 0.49104 0.0
C1012 C 0.59987 0.59421 0.56104 0.0
C1013 C 0.61748 0.55401 0.55012 0.0
C1014 C 0.56898 0.57411 0.54596 0.0
N1015 N 0.62336 0.58397 0.56263 0.0
C1016 C 0.58705 0.53325 0.53447 0.0
C1017 C 0.56253 0.54354 0.53172 0.0
H1018 H 0.60568 0.61861 0.57058 0.0
H1019 H 0.63705 0.54699 0.55112 0.0
C1020 C 0.78942 0.68263 0.52864 0.0
N1021 N 0.75598 0.65865 0.52606 0.0
C1022 C 0.81201 0.68752 0.50473 0.0
C1023 C 0.76501 0.64366 0.47553 0.0
C1024 C 0.74331 0.63963 0.50009 0.0
C1025 C 0.8 0.66749 0.4779 0.0
H1026 H 0.79865 0.69733 0.54961 0.0
H1027 H 0.71648 0.62079 0.4988 0.0
O1028 O 0.67157 0.63485 0.62017 0.0
O1029 O 0.74663 0.67741 0.59763 0.0
O1030 O 0.70205 0.60209 0.57424 0.0
O1031 O 0.68737 0.65651 0.55139 0.0
H1032 H 0.62779 0.65564 0.63374 0.0
H1033 H 0.64258 0.56891 0.63226 0.0
H1034 H 0.56875 0.6181 0.65252 0.0
H1035 H 0.58328 0.53279 0.65117 0.0
H1036 H 0.8448 0.7493 0.64785 0.0
H1037 H 0.71905 0.68368 0.64978 0.0
H1038 H 0.8137 0.71506 0.60208 0.0
H1039 H 0.7518 0.7182 0.69467 0.0
H1040 H 0.71374 0.59957 0.72262 0.0
H1041 H 0.80079 0.61778 0.66744 0.0
H1042 H 0.63843 0.73293 0.57483 0.0
H1043 H 0.74332 0.79978 0.60215 0.0
H1044 H 0.76252 0.61097 0.55828 0.0
H1045 H 0.66817 0.54371 0.60462 0.0
H1046 H 0.78328 0.57112 0.57094 0.0
H1047 H 0.69079 0.50527 0.61687 0.0
H1048 H 0.64511 0.65746 0.5101 0.0
H1049 H 0.74658 0.7143 0.54734 0.0
H1050 H 0.65905 0.70558 0.47435 0.0
H1051 H 0.75874 0.7613 0.51097 0.0
H1052 H 0.55069 0.58284 0.5449 0.0
H1053 H 0.58351 0.51021 0.52349 0.0
H1054 H 0.83884 0.70574 0.50784 0.0
H1055 H 0.75465 0.62789 0.4552 0.0
C1056 C 0.16717 0.33479 0.94417 0.0
C1057 C 0.14405 0.31256 0.96636 0.0
H1058 H 0.20996 0.34648 0.91518 0.0
C1059 C 0.14356 0.2819 0.97286 0.0
H1060 H 0.16779 0.35833 0.93827 0.0
C1061 C 0.16735 0.2749 0.95931 0.0
C1062 C 0.19225 0.29846 0.93909 0.0
H1063 H 0.12627 0.26426 0.98993 0.0
H1064 H 0.16733 0.25181 0.96586 0.0
C1065 C 0.19106 0.32781 0.93066 0.0
C1066 C 0.71379 0.85305 0.96573 0.0
C1067 C 0.68026 0.82694 0.97155 0.0
H1068 H 0.74576 0.90294 0.94682 0.0
C1069 C 0.65292 0.82937 0.95923 0.0
H1070 H 0.73525 0.85174 0.97514 0.0
C1071 C 0.65888 0.85837 0.94293 0.0
C1072 C 0.69229 0.88563 0.93897 0.0
H1073 H 0.62685 0.8094 0.96332 0.0
H1074 H 0.63721 0.86034 0.93515 0.0
C1075 C 0.71976 0.88233 0.94973 0.0
C1076 C 0.1359 0.84753 0.95318 0.0
C1077 C 0.16562 0.84518 0.95356 0.0
H1078 H 0.084 0.82467 0.93888 0.0
C1079 C 0.16754 0.82086 0.93492 0.0
H1080 H 0.13382 0.86598 0.96759 0.0
C1081 C 0.13927 0.79758 0.91788 0.0
C1082 C 0.10832 0.79774 0.91974 0.0
H1083 H 0.19041 0.81887 0.93467 0.0
H1084 H 0.14113 0.77833 0.90457 0.0
C1085 C 0.10741 0.82389 0.93657 0.0
C1086 C 0.71523 0.82668 0.55978 0.0
C1087 C 0.68782 0.80032 0.57613 0.0
H1088 H 0.7316 0.86938 0.52933 0.0
C1089 C 0.65662 0.80007 0.57735 0.0
H1090 H 0.73949 0.82755 0.5579 0.0
C1091 C 0.65198 0.82354 0.56025 0.0
C1092 C 0.67872 0.84825 0.54236 0.0
H1093 H 0.63521 0.78069 0.59028 0.0
H1094 H 0.62712 0.82154 0.55998 0.0
C1095 C 0.71075 0.85059 0.54322 0.0
C1096 C 0.16283 0.86791 0.51112 0.0
C1097 C 0.15161 0.83475 0.52186 0.0
H1098 H 0.19433 0.92136 0.51941 0.0
C1099 C 0.16194 0.83008 0.55109 0.0
H1100 H 0.15502 0.87202 0.48867 0.0
C1101 C 0.18471 0.85832 0.56861 0.0
C1102 C 0.1968 0.89153 0.55738 0.0
H1103 H 0.15363 0.80465 0.55971 0.0
H1104 H 0.19354 0.85426 0.59054 0.0
C1105 C 0.18502 0.89605 0.52881 0.0
C1106 C 0.13929 0.3343 0.56727 0.0
C1107 C 0.10944 0.30306 0.5617 0.0
H1108 H 0.19202 0.36683 0.55617 0.0
C1109 C 0.11129 0.27864 0.54307 0.0
H1110 H 0.13864 0.35368 0.58145 0.0
C1111 C 0.14168 0.28633 0.52827 0.0
C1112 C 0.17091 0.31858 0.5319 0.0
H1113 H 0.08877 0.25415 0.53872 0.0
H1114 H 0.14157 0.26773 0.51248 0.0
C1115 C 0.16975 0.34199 0.5525 0.0
C1116 C 0.79504 0.63759 0.08021 0.0
C1117 C 0.79627 0.66887 0.08529 0.0
H1118 H 0.81682 0.61144 0.05678 0.0
C1119 C 0.82481 0.69905 0.07483 0.0
H1120 H 0.77362 0.61396 0.08841 0.0
C1121 C 0.84977 0.69765 0.05701 0.0
C1122 C 0.84664 0.66607 0.04922 0.0
H1123 H 0.82655 0.72358 0.07821 0.0
H1124 H 0.87046 0.72118 0.04779 0.0
C1125 C 0.81996 0.63619 0.06229 0.0
C1126 C 0.36662 0.16634 0.05086 0.0
C1127 C 0.342 0.17591 0.04553 0.0
H1128 H 0.37697 0.12877 0.0696 0.0
C1129 C 0.30958 0.15696 0.05898 0.0
H1130 H 0.39178 0.18068 0.04065 0.0
C1131 C 0.30097 0.12709 0.07526 0.0
C1132 C 0.32488 0.11618 0.0787 0.0
H1133 H 0.29016 0.16381 0.05495 0.0
H1134 H 0.2751 0.11147 0.0836 0.0
C1135 C 0.35821 0.13684 0.06757 0.0
C1136 C 0.85984 0.17824 0.07957 0.0
C1137 C 0.87415 0.21326 0.07341 0.0
H1138 H 0.82132 0.12732 0.06781 0.0
C1139 C 0.85862 0.22367 0.05125 0.0
H1140 H 0.87106 0.16945 0.0967 0.0
C1141 C 0.83039 0.19971 0.03472 0.0
C1142 C 0.81687 0.16464 0.0399 0.0
H1143 H 0.86938 0.25035 0.04534 0.0
H1144 H 0.82033 0.20875 0.01672 0.0
C1145 C 0.83143 0.15415 0.06299 0.0
C1146 C 0.363 0.19049 0.45286 0.0
C1147 C 0.3354 0.15737 0.45688 0.0
H1148 H 0.38001 0.24057 0.43577 0.0
C1149 C 0.30437 0.14797 0.44217 0.0
H1150 H 0.3871 0.19837 0.46426 0.0
C1151 C 0.30041 0.17193 0.42513 0.0
C1152 C 0.32719 0.20596 0.42311 0.0
H1153 H 0.28285 0.1224 0.44475 0.0
H1154 H 0.27591 0.16409 0.41464 0.0
C1155 C 0.3589 0.21462 0.43634 0.0
C1156 C 0.84843 0.14868 0.45057 0.0
C1157 C 0.84542 0.17813 0.45159 0.0
H1158 H 0.82632 0.09684 0.43572 0.0
C1159 C 0.82032 0.1793 0.43342 0.0
H1160 H 0.86724 0.14671 0.46442 0.0
C1161 C 0.79665 0.1505 0.41714 0.0
C1162 C 0.79788 0.12014 0.41846 0.0
H1163 H 0.81785 0.20188 0.43305 0.0
H1164 H 0.7762 0.15133 0.40497 0.0
C1165 C 0.82495 0.12001 0.43406 0.0
C1166 C 0.8799 0.70185 0.42933 0.0
C1167 C 0.87811 0.67151 0.41915 0.0
H1168 H 0.85616 0.72446 0.45541 0.0
C1169 C 0.84793 0.64037 0.42424 0.0
H1170 H 0.90282 0.72627 0.42594 0.0
C1171 C 0.82144 0.63929 0.44163 0.0
C1172 C 0.82453 0.66936 0.45416 0.0
H1173 H 0.84561 0.61661 0.41628 0.0
H1174 H 0.79962 0.61463 0.447 0.0
C1175 C 0.85335 0.70078 0.44662 0.0
C1176 C 0.19745 0.40193 0.27195 0.0
C1177 C 0.21313 0.38185 0.26984 0.0
H1178 H 0.16434 0.41707 0.25066 0.0
C1179 C 0.2074 0.36175 0.24333 0.0
H1180 H 0.2017 0.41818 0.29173 0.0
C1181 C 0.18646 0.3616 0.21967 0.0
C1182 C 0.17044 0.38124 0.22208 0.0
H1183 H 0.21838 0.3454 0.24112 0.0
H1184 H 0.18211 0.34544 0.19978 0.0
C1185 C 0.17613 0.40143 0.24841 0.0
C1186 C 0.61813 0.81409 0.22364 0.0
C1187 C 0.61778 0.78332 0.22935 0.0
H1188 H 0.62061 0.85883 0.24257 0.0
C1189 C 0.61615 0.77271 0.26007 0.0
H1190 H 0.61857 0.82276 0.20029 0.0
C1191 C 0.61622 0.79297 0.28441 0.0
C1192 C 0.61842 0.82462 0.27872 0.0
H1193 H 0.61602 0.7493 0.26546 0.0
H1194 H 0.61512 0.784 0.30775 0.0
C1195 C 0.61872 0.8346 0.24798 0.0
C1196 C 0.17866 0.78543 0.21362 0.0
C1197 C 0.20939 0.81609 0.21873 0.0
H1198 H 0.13418 0.74362 0.23348 0.0
C1199 C 0.22034 0.82596 0.24923 0.0
H1200 H 0.16976 0.77667 0.19042 0.0
C1201 C 0.20026 0.80651 0.27399 0.0
C1202 C 0.16858 0.7769 0.26887 0.0
H1203 H 0.24375 0.84946 0.2541 0.0
H1204 H 0.20927 0.81515 0.29719 0.0
C1205 C 0.15843 0.76617 0.23837 0.0
C1206 C 0.80995 0.58431 0.75261 0.0
C1207 C 0.81557 0.60631 0.77768 0.0
H1208 H 0.78766 0.56749 0.7078 0.0
C1209 C 0.80094 0.62742 0.7768 0.0
H1210 H 0.82021 0.56725 0.7526 0.0
C1211 C 0.78155 0.62675 0.75156 0.0
C1212 C 0.77685 0.60549 0.72632 0.0
H1213 H 0.80528 0.64535 0.79516 0.0
H1214 H 0.77131 0.64385 0.75126 0.0
C1215 C 0.79108 0.58418 0.72705 0.0
C1216 C 0.38044 0.1762 0.78249 0.0
C1217 C 0.38073 0.20692 0.77675 0.0
H1218 H 0.38083 0.13282 0.76331 0.0
C1219 C 0.38328 0.21812 0.74615 0.0
H1220 H 0.3792 0.1672 0.80585 0.0
C1221 C 0.38434 0.19845 0.72178 0.0
C1222 C 0.38288 0.16717 0.72751 0.0
H1223 H 0.38321 0.24148 0.74094 0.0
H1224 H 0.38506 0.20714 0.69838 0.0
C1225 C 0.38142 0.15651 0.75815 0.0
C1226 C 0.77562 0.18025 0.75261 0.0
C1227 C 0.78857 0.1688 0.77633 0.0
H1228 H 0.78665 0.20926 0.71073 0.0
C1229 C 0.82386 0.18108 0.77754 0.0
H1230 H 0.74856 0.17126 0.7511 0.0
C1231 C 0.84541 0.20252 0.75457 0.0
C1232 C 0.83229 0.21247 0.72996 0.0
H1233 H 0.8348 0.17355 0.79601 0.0
H1234 H 0.87234 0.21072 0.75566 0.0
C1235 C 0.79737 0.202 0.72958 0.0
C1236 C 0.0292 0.51883 0.01563 0.0
C1237 C 0.01049 0.48307 0.01601 0.0
H1238 H 0.03314 0.56479 0.99828 0.0
C1239 C 0.98141 0.46598 0.9973 0.0
H1240 H 0.05157 0.5326 0.03001 0.0
C1241 C 0.97109 0.48433 0.97869 0.0
C1242 C 0.98951 0.52019 0.97855 0.0
H1243 H 0.96689 0.43836 0.99676 0.0
H1244 H 0.94881 0.47039 0.96425 0.0
C1245 C 0.01871 0.5372 0.99726 0.0
C1246 C 0.51076 0.49494 0.02788 0.0
C1247 C 0.51825 0.52748 0.01793 0.0
H1248 H 0.48709 0.44177 0.01734 0.0
C1249 C 0.50744 0.53105 0.98847 0.0
H1250 H 0.51835 0.4913 0.05059 0.0
C1251 C 0.48963 0.50267 0.96935 0.0
C1252 C 0.4824 0.47019 0.97925 0.0
H1253 H 0.51336 0.55589 0.97993 0.0
H1254 H 0.4819 0.5062 0.94667 0.0
C1255 C 0.49302 0.46662 0.00876 0.0
C1256 C 0.46279 0.95502 0.98928 0.0
C1257 C 0.45882 0.9789 0.0069 0.0
H1258 H 0.49425 0.94599 0.95845 0.0
C1259 C 0.4851 0.0132 0.0065 0.0
H1260 H 0.44329 0.92833 0.98918 0.0
C1261 C 0.51483 0.02321 0.98944 0.0
C1262 C 0.5189 -0.00075 0.97203 0.0
H1263 H 0.48272 0.03247 0.01928 0.0
H1264 H 0.5349 0.04964 0.99048 0.0
C1265 C 0.4923 0.9651 0.9719 0.0
C1266 C 0.52161 0.01765 0.47976 0.0
C1267 C 0.52092 0.98669 0.48546 0.0
H1268 H 0.5033 0.05131 0.49291 0.0
C1269 C 0.50073 0.96597 0.50995 0.0
H1270 H 0.53632 0.03403 0.46085 0.0
C1271 C 0.48131 0.97564 0.52785 0.0
C1272 C 0.48224 0.00656 0.52209 0.0
H1273 H 0.50014 0.94239 0.5156 0.0
H1274 H 0.46571 0.95908 0.54634 0.0
C1275 C 0.5027 0.0276 0.49807 0.0
C1276 C 0.97631 0.48866 0.52344 0.0
C1277 C 0.99187 0.46868 0.51995 0.0
H1278 H 0.97358 0.53214 0.50798 0.0
C1279 C 0.01715 0.47778 0.49715 0.0
H1280 H 0.95708 0.48265 0.54099 0.0
C1281 C 0.02677 0.50625 0.47844 0.0
C1282 C 0.01103 0.52601 0.48184 0.0
H1283 H 0.02914 0.46253 0.49332 0.0
H1284 H 0.0461 0.51247 0.46093 0.0
C1285 C 0.98574 0.51698 0.50454 0.0
C1286 C 0.48598 0.46902 0.49369 0.0
C1287 C 0.47315 0.48578 0.4756 0.0
H1288 H 0.52353 0.47393 0.5263 0.0
C1289 C 0.48949 0.5215 0.47632 0.0
H1290 H 0.47342 0.44141 0.49394 0.0
C1291 C 0.51842 0.54018 0.49454 0.0
C1292 C 0.53133 0.5235 0.5128 0.0
H1293 H 0.48017 0.53499 0.46242 0.0
H1294 H 0.53096 0.56775 0.49387 0.0
C1295 C 0.51467 0.48766 0.51221 0.0
loop_
_geom_bond_atom_site_label_1
_geom_bond_atom_site_label_2
_geom_bond_distance
_geom_bond_site_symmetry_2
_ccdc_geom_bond_type
Li0 N17 1.990 . S
Li0 O60 1.956 . S
Li0 O61 1.970 . S
Li0 O62 1.961 . S
Li1 N25 1.990 . S
Li1 O60 1.970 . S
Li1 O61 1.956 . S
Li1 O63 1.961 . S
Li2 N47 1.990 . S
Li2 O60 1.961 . S
Li2 O62 1.956 . S
Li2 O63 1.970 . S
Li3 N53 1.990 1_455 S
Li3 O61 1.961 . S
Li3 O62 1.970 . S
Li3 O63 1.956 . S
C4 C6 1.348 . S
C4 C7 1.356 . S
C4 O60 1.325 . S
N5 C8 1.314 . S
N5 C9 1.279 . S
C6 C4 1.348 . S
C6 C8 1.353 . S
C6 H64 0.929 . S
C7 C4 1.356 . S
C7 C9 1.358 . S
C7 H65 0.930 . S
C8 N5 1.314 . S
C8 C6 1.353 . S
C8 H66 0.930 . S
C9 N5 1.279 . S
C9 C7 1.358 . S
C9 H67 0.930 . S
C10 C13 1.348 . S
C10 C14 1.356 . S
C10 O61 1.325 1_655 S
C11 N12 1.279 . S
C11 C14 1.358 . S
C11 H68 0.930 . S
N12 C11 1.279 . S
N12 C15 1.314 . S
C13 C10 1.348 . S
C13 C15 1.353 . S
C13 H69 0.921 1_655 S
C14 C10 1.356 . S
C14 C11 1.358 . S
C14 H70 0.930 . S
C15 N12 1.314 . S
C15 C13 1.353 . S
C15 H71 0.930 . S
C16 N17 1.314 . S
C16 C21 1.353 . S
C16 H22 0.929 1_455 S
N17 Li0 1.990 . S
N17 C16 1.314 . S
N17 C19 1.279 . S
C18 C19 1.358 . S
C18 C20 1.356 . S
C18 H72 0.930 . S
C19 N17 1.279 . S
C19 C18 1.358 . S
C19 H23 0.930 . S
C20 C18 1.356 . S
C20 C21 1.348 . S
C21 C16 1.353 . S
C21 C20 1.348 . S
C21 H73 0.929 1_455 S
H22 C16 0.929 1_655 S
H23 C19 0.930 . S
C24 N25 1.314 . S
C24 C26 1.353 . S
C24 H30 0.930 . S
N25 Li1 1.990 . S
N25 C24 1.314 . S
N25 C28 1.279 . S
C26 C24 1.353 . S
C26 C29 1.348 . S
C26 H74 0.929 . S
C27 C28 1.358 . S
C27 C29 1.356 . S
C27 H75 0.930 . S
C28 N25 1.279 . S
C28 C27 1.358 . S
C28 H31 0.930 . S
C29 C26 1.348 . S
C29 C27 1.356 . S
H30 C24 0.930 . S
H31 C28 0.930 . S
C32 C34 1.336 1_554 S
C32 C35 1.356 1_554 S
C32 O62 1.325 . S
N33 C36 1.314 1_455 S
N33 C37 1.279 . S
C34 C32 1.336 1_556 S
C34 C36 1.384 1_455 S
C34 H76 0.911 1_456 S
C35 C32 1.356 1_556 S
C35 C37 1.358 . S
C35 H77 0.930 1_556 S
C36 N33 1.314 1_655 S
C36 C34 1.384 1_655 S
C36 H78 0.930 . S
C37 N33 1.279 . S
C37 C35 1.358 . S
C37 H79 0.930 . S
C38 C39 1.348 . S
C38 C40 1.356 . S
C38 O63 1.325 . S
C39 C38 1.348 . S
C39 C41 1.353 . S
C39 H80 0.929 . S
C40 C38 1.356 . S
C40 C42 1.358 . S
C40 H81 0.930 . S
C41 C39 1.353 . S
C41 N43 1.314 . S
C41 H82 0.930 . S
C42 C40 1.358 . S
C42 N43 1.279 . S
C42 H83 0.930 . S
N43 C41 1.314 . S
N43 C42 1.279 . S
C44 C46 1.353 . S
C44 N47 1.314 . S
C44 H50 0.930 . S
C45 N47 1.279 . S
C45 C48 1.358 1_554 S
C45 H51 0.930 1_554 S
C46 C44 1.353 . S
C46 C49 1.348 1_554 S
C46 H84 0.929 . S
N47 Li2 1.990 . S
N47 C44 1.314 . S
N47 C45 1.279 . S
C48 C45 1.358 1_556 S
C48 C49 1.356 . S
C48 H85 0.930 . S
C49 C46 1.348 1_556 S
C49 C48 1.356 . S
H50 C44 0.930 . S
H51 C45 0.930 1_556 S
C52 N53 1.314 . S
C52 C54 1.353 . S
C52 H58 0.930 . S
N53 Li3 1.990 1_655 S
N53 C52 1.314 . S
N53 C56 1.279 . S
C54 C52 1.353 . S
C54 C57 1.348 . S
C54 H86 0.929 . S
C55 C56 1.358 . S
C55 C57 1.356 . S
C55 H87 0.930 . S
C56 N53 1.279 . S
C56 C55 1.358 . S
C56 H59 0.930 . S
C57 C54 1.348 . S
C57 C55 1.356 . S
H58 C52 0.930 . S
H59 C56 0.930 . S
O60 Li0 1.956 . S
O60 Li1 1.970 . S
O60 Li2 1.961 . S
O60 C4 1.325 . S
O61 Li0 1.970 . S
O61 Li1 1.956 . S
O61 Li3 1.961 . S
O61 C10 1.325 1_455 S
O62 Li0 1.961 . S
O62 Li2 1.956 . S
O62 Li3 1.970 . S
O62 C32 1.325 . S
O63 Li1 1.961 . S
O63 Li2 1.970 . S
O63 Li3 1.956 . S
O63 C38 1.325 . S
H64 C6 0.929 . S
H65 C7 0.930 . S
H66 C8 0.930 . S
H67 C9 0.930 . S
H68 C11 0.930 . S
H69 C13 0.921 1_455 S
H70 C14 0.930 . S
H71 C15 0.930 . S
H72 C18 0.930 . S
H73 C21 0.929 1_655 S
H74 C26 0.929 . S
H75 C27 0.930 . S
H76 C34 0.911 1_654 S
H77 C35 0.930 1_554 S
H78 C36 0.930 . S
H79 C37 0.930 . S
H80 C39 0.929 . S
H81 C40 0.930 . S
H82 C41 0.930 . S
H83 C42 0.930 . S
H84 C46 0.929 . S
H85 C48 0.930 . S
H86 C54 0.929 . S
H87 C55 0.930 . S
Li88 N105 1.990 . S
Li88 O148 1.956 . S
Li88 O149 1.970 . S
Li88 O150 1.961 . S
Li89 N113 1.990 . S
Li89 O148 1.970 . S
Li89 O149 1.956 . S
Li89 O151 1.961 . S
Li90 N135 1.990 . S
Li90 O148 1.961 . S
Li90 O150 1.956 . S
Li90 O151 1.970 . S
Li91 N141 1.990 . S
Li91 O149 1.961 . S
Li91 O150 1.970 . S
Li91 O151 1.956 . S
C92 C94 1.348 . S
C92 C95 1.356 . S
C92 O148 1.325 . S
N93 C96 1.314 . S
N93 C97 1.279 . S
C94 C92 1.348 . S
C94 C96 1.353 . S
C94 H152 0.929 . S
C95 C92 1.356 . S
C95 C97 1.358 . S
C95 H153 0.930 . S
C96 N93 1.314 . S
C96 C94 1.353 . S
C96 H154 0.930 . S
C97 N93 1.279 . S
C97 C95 1.358 . S
C97 H155 0.930 . S
C98 C101 1.348 . S
C98 C102 1.356 . S
C98 O149 1.325 . S
C99 N100 1.279 . S
C99 C102 1.358 . S
C99 H156 0.930 . S
N100 C99 1.279 . S
N100 C103 1.314 . S
C101 C98 1.348 . S
C101 C103 1.353 . S
C101 H157 0.929 . S
C102 C98 1.356 . S
C102 C99 1.358 . S
C102 H158 0.930 . S
C103 N100 1.314 . S
C103 C101 1.353 . S
C103 H159 0.930 . S
C104 N105 1.314 . S
C104 C109 1.353 . S
C104 H110 0.930 . S
N105 Li88 1.990 . S
N105 C104 1.314 . S
N105 C107 1.279 . S
C106 C107 1.358 . S
C106 C108 1.356 . S
C106 H160 0.930 . S
C107 N105 1.279 . S
C107 C106 1.358 . S
C107 H111 0.930 . S
C108 C106 1.356 . S
C108 C109 1.348 . S
C109 C104 1.353 . S
C109 C108 1.348 . S
C109 H161 0.929 . S
H110 C104 0.930 . S
H111 C107 0.930 . S
C112 N113 1.314 . S
C112 C114 1.353 . S
C112 H118 0.930 . S
N113 Li89 1.990 . S
N113 C112 1.314 . S
N113 C116 1.279 . S
C114 C112 1.353 . S
C114 C117 1.348 . S
C114 H162 0.929 . S
C115 C116 1.358 . S
C115 C117 1.356 . S
C115 H163 0.930 . S
C116 N113 1.279 . S
C116 C115 1.358 . S
C116 H119 0.930 . S
C117 C114 1.348 . S
C117 C115 1.356 . S
H118 C112 0.930 . S
H119 C116 0.930 . S
C120 C122 1.348 . S
C120 C123 1.356 . S
C120 O150 1.325 . S
N121 C124 1.314 . S
N121 C125 1.279 . S
C122 C120 1.348 . S
C122 C124 1.353 . S
C122 H164 0.929 . S
C123 C120 1.356 . S
C123 C125 1.358 . S
C123 H165 0.930 . S
C124 N121 1.314 . S
C124 C122 1.353 . S
C124 H166 0.930 . S
C125 N121 1.279 . S
C125 C123 1.358 . S
C125 H167 0.930 . S
C126 C127 1.348 1_554 S
C126 C128 1.356 1_554 S
C126 O151 1.325 . S
C127 C126 1.348 1_556 S
C127 C129 1.353 . S
C127 H168 0.929 1_556 S
C128 C126 1.356 1_556 S
C128 C130 1.358 . S
C128 H169 0.930 1_556 S
C129 C127 1.353 . S
C129 N131 1.314 . S
C129 H170 0.930 . S
C130 C128 1.358 . S
C130 N131 1.279 . S
C130 H171 0.930 . S
N131 C129 1.314 . S
N131 C130 1.279 . S
C132 C134 1.353 . S
C132 N135 1.314 . S
C132 H138 0.930 . S
C133 N135 1.279 . S
C133 C136 1.358 . S
C133 H139 0.930 . S
C134 C132 1.353 . S
C134 C137 1.348 . S
C134 H172 0.929 . S
N135 Li90 1.990 . S
N135 C132 1.314 . S
N135 C133 1.279 . S
C136 C133 1.358 . S
C136 C137 1.356 . S
C136 H173 0.930 . S
C137 C134 1.348 . S
C137 C136 1.356 . S
H138 C132 0.930 . S
H139 C133 0.930 . S
C140 N141 1.314 . S
C140 C142 1.353 . S
C140 H146 0.930 . S
N141 Li91 1.990 . S
N141 C140 1.314 . S
N141 C144 1.279 . S
C142 C140 1.353 . S
C142 C145 1.348 1_554 S
C142 H174 0.929 . S
C143 C144 1.358 1_556 S
C143 C145 1.356 . S
C143 H175 0.930 . S
C144 N141 1.279 . S
C144 C143 1.358 1_554 S
C144 H147 0.930 1_554 S
C145 C142 1.348 1_556 S
C145 C143 1.356 . S
H146 C140 0.930 . S
H147 C144 0.930 1_556 S
O148 Li88 1.956 . S
O148 Li89 1.970 . S
O148 Li90 1.961 . S
O148 C92 1.325 . S
O149 Li88 1.970 . S
O149 Li89 1.956 . S
O149 Li91 1.961 . S
O149 C98 1.325 . S
O150 Li88 1.961 . S
O150 Li90 1.956 . S
O150 Li91 1.970 . S
O150 C120 1.325 . S
O151 Li89 1.961 . S
O151 Li90 1.970 . S
O151 Li91 1.956 . S
O151 C126 1.325 . S
H152 C94 0.929 . S
H153 C95 0.930 . S
H154 C96 0.930 . S
H155 C97 0.930 . S
H156 C99 0.930 . S
H157 C101 0.929 . S
H158 C102 0.930 . S
H159 C103 0.930 . S
H160 C106 0.930 . S
H161 C109 0.929 . S
H162 C114 0.929 . S
H163 C115 0.930 . S
H164 C122 0.929 . S
H165 C123 0.930 . S
H166 C124 0.930 . S
H167 C125 0.930 . S
H168 C127 0.929 1_554 S
H169 C128 0.930 1_554 S
H170 C129 0.930 . S
H171 C130 0.930 . S
H172 C134 0.929 . S
H173 C136 0.930 . S
H174 C142 0.929 . S
H175 C143 0.930 . S
Li176 N193 1.990 . S
Li176 O236 1.956 . S
Li176 O237 1.970 . S
Li176 O238 1.961 . S
Li177 N201 1.990 . S
Li177 O236 1.970 . S
Li177 O237 1.956 . S
Li177 O239 1.961 . S
Li178 N223 1.990 1_565 S
Li178 O236 1.961 . S
Li178 O238 1.956 . S
Li178 O239 1.970 . S
Li179 N229 1.990 . S
Li179 O237 1.961 . S
Li179 O238 1.970 . S
Li179 O239 1.956 . S
C180 C182 1.348 . S
C180 C183 1.356 . S
C180 O236 1.325 1_545 S
N181 C184 1.314 . S
N181 C185 1.279 . S
C182 C180 1.348 . S
C182 C184 1.353 . S
C182 H240 0.929 1_545 S
C183 C180 1.356 . S
C183 C185 1.358 . S
C183 H241 0.930 . S
C184 N181 1.314 . S
C184 C182 1.353 . S
C184 H242 0.930 . S
C185 N181 1.279 . S
C185 C183 1.358 . S
C185 H243 0.930 . S
C186 C189 1.348 . S
C186 C190 1.356 . S
C186 O237 1.325 . S
C187 N188 1.279 . S
C187 C190 1.358 . S
C187 H244 0.930 . S
N188 C187 1.279 . S
N188 C191 1.314 . S
C189 C186 1.348 . S
C189 C191 1.353 . S
C189 H245 0.929 . S
C190 C186 1.356 . S
C190 C187 1.358 . S
C190 H246 0.930 . S
C191 N188 1.314 . S
C191 C189 1.353 . S
C191 H247 0.930 . S
C192 N193 1.314 . S
C192 C197 1.353 . S
C192 H198 0.930 . S
N193 Li176 1.990 . S
N193 C192 1.314 . S
N193 C195 1.279 . S
C194 C195 1.358 . S
C194 C196 1.356 . S
C194 H248 0.930 . S
C195 N193 1.279 . S
C195 C194 1.358 . S
C195 H199 0.930 . S
C196 C194 1.356 . S
C196 C197 1.348 . S
C197 C192 1.353 . S
C197 C196 1.348 . S
C197 H249 0.929 . S
H198 C192 0.930 . S
H199 C195 0.930 . S
C200 N201 1.314 . S
C200 C202 1.353 . S
C200 H206 0.928 . S
N201 Li177 1.990 . S
N201 C200 1.314 . S
N201 C204 1.279 . S
C202 C200 1.353 . S
C202 C205 1.348 . S
C202 H250 0.929 1_565 S
C203 C204 1.358 . S
C203 C205 1.356 . S
C203 H251 0.930 . S
C204 N201 1.279 . S
C204 C203 1.358 . S
C204 H207 0.930 . S
C205 C202 1.348 . S
C205 C203 1.356 . S
H206 C200 0.928 . S
H207 C204 0.930 . S
C208 C210 1.348 . S
C208 C211 1.356 . S
C208 O238 1.325 . S
N209 C212 1.314 . S
N209 C213 1.279 . S
C210 C208 1.348 . S
C210 C212 1.353 . S
C210 H252 0.929 . S
C211 C208 1.356 . S
C211 C213 1.358 . S
C211 H253 0.930 . S
C212 N209 1.314 . S
C212 C210 1.353 . S
C212 H254 0.930 . S
C213 N209 1.279 . S
C213 C211 1.358 . S
C213 H255 0.930 . S
C214 C215 1.374 1_554 S
C214 C216 1.356 1_554 S
C214 O239 1.325 . S
C215 C214 1.374 1_556 S
C215 C217 1.352 1_565 S
C215 H256 0.905 1_566 S
C216 C214 1.356 1_556 S
C216 C218 1.358 . S
C216 H257 0.930 1_556 S
C217 C215 1.352 1_545 S
C217 N219 1.314 1_545 S
C217 H258 0.930 . S
C218 C216 1.358 . S
C218 N219 1.279 . S
C218 H259 0.930 . S
N219 C217 1.314 1_565 S
N219 C218 1.279 . S
C220 C222 1.353 . S
C220 N223 1.314 . S
C220 H226 0.930 . S
C221 N223 1.279 . S
C221 C224 1.358 . S
C221 H227 0.930 . S
C222 C220 1.353 . S
C222 C225 1.348 . S
C222 H260 0.929 . S
N223 Li178 1.990 1_545 S
N223 C220 1.314 . S
N223 C221 1.279 . S
C224 C221 1.358 . S
C224 C225 1.356 . S
C224 H261 0.930 . S
C225 C222 1.348 . S
C225 C224 1.356 . S
H226 C220 0.930 . S
H227 C221 0.930 . S
C228 N229 1.314 . S
C228 C230 1.353 . S
C228 H234 0.930 . S
N229 Li179 1.990 . S
N229 C228 1.314 . S
N229 C232 1.279 . S
C230 C228 1.353 . S
C230 C233 1.348 1_554 S
C230 H262 0.929 . S
C231 C232 1.358 1_556 S
C231 C233 1.356 . S
C231 H263 0.930 . S
C232 N229 1.279 . S
C232 C231 1.358 1_554 S
C232 H235 0.930 1_554 S
C233 C230 1.348 1_556 S
C233 C231 1.356 . S
H234 C228 0.930 . S
H235 C232 0.930 1_556 S
O236 Li176 1.956 . S
O236 Li177 1.970 . S
O236 Li178 1.961 . S
O236 C180 1.325 1_565 S
O237 Li176 1.970 . S
O237 Li177 1.956 . S
O237 Li179 1.961 . S
O237 C186 1.325 . S
O238 Li176 1.961 . S
O238 Li178 1.956 . S
O238 Li179 1.970 . S
O238 C208 1.325 . S
O239 Li177 1.961 . S
O239 Li178 1.970 . S
O239 Li179 1.956 . S
O239 C214 1.325 . S
H240 C182 0.929 1_565 S
H241 C183 0.930 . S
H242 C184 0.930 . S
H243 C185 0.930 . S
H244 C187 0.930 . S
H245 C189 0.929 . S
H246 C190 0.930 . S
H247 C191 0.930 . S
H248 C194 0.930 . S
H249 C197 0.929 . S
H250 C202 0.929 1_545 S
H251 C203 0.930 . S
H252 C210 0.929 . S
H253 C211 0.930 . S
H254 C212 0.930 . S
H255 C213 0.930 . S
H256 C215 0.905 1_544 S
H257 C216 0.930 1_554 S
H258 C217 0.930 . S
H259 C218 0.930 . S
H260 C222 0.929 . S
H261 C224 0.930 . S
H262 C230 0.929 . S
H263 C231 0.930 . S
Li264 N281 1.990 . S
Li264 O324 1.956 . S
Li264 O325 1.970 . S
Li264 O326 1.961 . S
Li265 N289 1.990 1_565 S
Li265 O324 1.970 . S
Li265 O325 1.956 . S
Li265 O327 1.961 . S
Li266 N311 1.990 . S
Li266 O324 1.961 . S
Li266 O326 1.956 . S
Li266 O327 1.970 . S
Li267 N317 1.990 . S
Li267 O325 1.961 . S
Li267 O326 1.970 . S
Li267 O327 1.956 . S
C268 C270 1.357 . S
C268 C271 1.356 . S
C268 O324 1.325 . S
N269 C272 1.314 1_565 S
N269 C273 1.279 . S
C270 C268 1.357 . S
C270 C272 1.347 1_565 S
C270 H328 0.928 1_565 S
C271 C268 1.356 . S
C271 C273 1.358 . S
C271 H329 0.930 . S
C272 N269 1.314 1_545 S
C272 C270 1.347 1_545 S
C272 H330 0.930 . S
C273 N269 1.279 . S
C273 C271 1.358 . S
C273 H331 0.930 . S
C274 C277 1.348 . S
C274 C278 1.356 . S
C274 O325 1.325 . S
C275 N276 1.279 . S
C275 C278 1.358 . S
C275 H332 0.930 . S
N276 C275 1.279 . S
N276 C279 1.314 . S
C277 C274 1.348 . S
C277 C279 1.353 . S
C277 H333 0.929 . S
C278 C274 1.356 . S
C278 C275 1.358 . S
C278 H334 0.930 . S
C279 N276 1.314 . S
C279 C277 1.353 . S
C279 H335 0.930 . S
C280 N281 1.314 . S
C280 C285 1.353 . S
C280 H286 0.930 . S
N281 Li264 1.990 . S
N281 C280 1.314 . S
N281 C283 1.279 . S
C282 C283 1.358 . S
C282 C284 1.356 . S
C282 H336 0.930 . S
C283 N281 1.279 . S
C283 C282 1.358 . S
C283 H287 0.930 . S
C284 C282 1.356 . S
C284 C285 1.348 . S
C285 C280 1.353 . S
C285 C284 1.348 . S
C285 H337 0.929 . S
H286 C280 0.930 . S
H287 C283 0.930 . S
C288 N289 1.314 . S
C288 C290 1.353 . S
C288 H294 0.930 . S
N289 Li265 1.990 1_545 S
N289 C288 1.314 . S
N289 C292 1.279 . S
C290 C288 1.353 . S
C290 C293 1.348 . S
C290 H338 0.929 . S
C291 C292 1.358 . S
C291 C293 1.356 . S
C291 H339 0.930 . S
C292 N289 1.279 . S
C292 C291 1.358 . S
C292 H295 0.930 . S
C293 C290 1.348 . S
C293 C291 1.356 . S
H294 C288 0.930 . S
H295 C292 0.930 . S
C296 C298 1.348 . S
C296 C299 1.356 . S
C296 O326 1.325 . S
N297 C300 1.314 . S
N297 C301 1.279 . S
C298 C296 1.348 . S
C298 C300 1.353 . S
C298 H340 0.929 . S
C299 C296 1.356 . S
C299 C301 1.358 . S
C299 H341 0.930 . S
C300 N297 1.314 . S
C300 C298 1.353 . S
C300 H342 0.930 . S
C301 N297 1.279 . S
C301 C299 1.358 . S
C301 H343 0.930 . S
C302 C303 1.348 . S
C302 C304 1.356 . S
C302 O327 1.325 1_545 S
C303 C302 1.348 . S
C303 C305 1.353 . S
C303 H344 0.929 1_545 S
C304 C302 1.356 . S
C304 C306 1.358 . S
C304 H345 0.930 . S
C305 C303 1.353 . S
C305 N307 1.314 . S
C305 H346 0.930 . S
C306 C304 1.358 . S
C306 N307 1.279 . S
C306 H347 0.930 . S
N307 C305 1.314 . S
N307 C306 1.279 . S
C308 C310 1.353 . S
C308 N311 1.314 . S
C308 H314 0.929 . S
C309 N311 1.279 . S
C309 C312 1.358 . S
C309 H315 0.930 . S
C310 C308 1.353 . S
C310 C313 1.348 . S
C310 H348 0.929 1_565 S
N311 Li266 1.990 . S
N311 C308 1.314 . S
N311 C309 1.279 . S
C312 C309 1.358 . S
C312 C313 1.356 . S
C312 H349 0.930 . S
C313 C310 1.348 . S
C313 C312 1.356 . S
H314 C308 0.929 . S
H315 C309 0.930 . S
C316 N317 1.314 . S
C316 C318 1.353 . S
C316 H322 0.930 . S
N317 Li267 1.990 . S
N317 C316 1.314 . S
N317 C320 1.279 . S
C318 C316 1.353 . S
C318 C321 1.348 . S
C318 H350 0.929 . S
C319 C320 1.358 . S
C319 C321 1.356 . S
C319 H351 0.930 . S
C320 N317 1.279 . S
C320 C319 1.358 . S
C320 H323 0.930 . S
C321 C318 1.348 . S
C321 C319 1.356 . S
H322 C316 0.930 . S
H323 C320 0.930 . S
O324 Li264 1.956 . S
O324 Li265 1.970 . S
O324 Li266 1.961 . S
O324 C268 1.325 . S
O325 Li264 1.970 . S
O325 Li265 1.956 . S
O325 Li267 1.961 . S
O325 C274 1.325 . S
O326 Li264 1.961 . S
O326 Li266 1.956 . S
O326 Li267 1.970 . S
O326 C296 1.325 . S
O327 Li265 1.961 . S
O327 Li266 1.970 . S
O327 Li267 1.956 . S
O327 C302 1.325 1_565 S
H328 C270 0.928 1_545 S
H329 C271 0.930 . S
H330 C272 0.930 . S
H331 C273 0.930 . S
H332 C275 0.930 . S
H333 C277 0.929 . S
H334 C278 0.930 . S
H335 C279 0.930 . S
H336 C282 0.930 . S
H337 C285 0.929 . S
H338 C290 0.929 . S
H339 C291 0.930 . S
H340 C298 0.929 . S
H341 C299 0.930 . S
H342 C300 0.930 . S
H343 C301 0.930 . S
H344 C303 0.929 1_565 S
H345 C304 0.930 . S
H346 C305 0.930 . S
H347 C306 0.930 . S
H348 C310 0.929 1_545 S
H349 C312 0.930 . S
H350 C318 0.929 . S
H351 C319 0.930 . S
Li352 N369 1.990 . S
Li352 O412 1.956 . S
Li352 O413 1.970 . S
Li352 O414 1.961 . S
Li353 N377 1.990 1_455 S
Li353 O412 1.970 . S
Li353 O413 1.956 . S
Li353 O415 1.961 . S
Li354 N399 1.990 . S
Li354 O412 1.961 . S
Li354 O414 1.956 . S
Li354 O415 1.970 . S
Li355 N405 1.990 . S
Li355 O413 1.961 . S
Li355 O414 1.970 . S
Li355 O415 1.956 . S
C356 C358 1.348 . S
C356 C359 1.356 . S
C356 O412 1.325 . S
N357 C360 1.314 1_455 S
N357 C361 1.279 . S
C358 C356 1.348 . S
C358 C360 1.353 1_455 S
C358 H416 0.929 1_455 S
C359 C356 1.356 . S
C359 C361 1.358 . S
C359 H417 0.930 . S
C360 N357 1.314 1_655 S
C360 C358 1.353 1_655 S
C360 H418 0.930 . S
C361 N357 1.279 . S
C361 C359 1.358 . S
C361 H419 0.930 . S
C362 C365 1.348 . S
C362 C366 1.356 . S
C362 O413 1.325 . S
C363 N364 1.279 . S
C363 C366 1.358 . S
C363 H420 0.930 . S
N364 C363 1.279 . S
N364 C367 1.314 . S
C365 C362 1.348 . S
C365 C367 1.353 . S
C365 H421 0.929 . S
C366 C362 1.356 . S
C366 C363 1.358 . S
C366 H422 0.930 . S
C367 N364 1.314 . S
C367 C365 1.353 . S
C367 H423 0.930 . S
C368 N369 1.314 . S
C368 C373 1.353 . S
C368 H374 0.930 . S
N369 Li352 1.990 . S
N369 C368 1.314 . S
N369 C371 1.279 . S
C370 C371 1.358 . S
C370 C372 1.356 . S
C370 H424 0.930 . S
C371 N369 1.279 . S
C371 C370 1.358 . S
C371 H375 0.930 . S
C372 C370 1.356 . S
C372 C373 1.348 . S
C373 C368 1.353 . S
C373 C372 1.348 . S
C373 H425 0.929 . S
H374 C368 0.930 . S
H375 C371 0.930 . S
C376 N377 1.314 . S
C376 C378 1.353 . S
C376 H382 0.930 . S
N377 Li353 1.990 1_655 S
N377 C376 1.314 . S
N377 C380 1.279 . S
C378 C376 1.353 . S
C378 C381 1.348 . S
C378 H426 0.929 . S
C379 C380 1.358 . S
C379 C381 1.356 . S
C379 H427 0.930 . S
C380 N377 1.279 . S
C380 C379 1.358 . S
C380 H383 0.930 . S
C381 C378 1.348 . S
C381 C379 1.356 . S
H382 C376 0.930 . S
H383 C380 0.930 . S
C384 C386 1.348 . S
C384 C387 1.356 . S
C384 O414 1.325 . S
N385 C388 1.314 . S
N385 C389 1.279 . S
C386 C384 1.348 . S
C386 C388 1.353 . S
C386 H428 0.929 . S
C387 C384 1.356 . S
C387 C389 1.358 . S
C387 H429 0.930 . S
C388 N385 1.314 . S
C388 C386 1.353 . S
C388 H430 0.930 . S
C389 N385 1.279 . S
C389 C387 1.358 . S
C389 H431 0.930 . S
C390 C391 1.348 . S
C390 C392 1.356 . S
C390 O415 1.325 1_655 S
C391 C390 1.348 . S
C391 C393 1.353 . S
C391 H432 0.920 1_655 S
C392 C390 1.356 . S
C392 C394 1.358 . S
C392 H433 0.930 . S
C393 C391 1.353 . S
C393 N395 1.314 . S
C393 H434 0.930 . S
C394 C392 1.358 . S
C394 N395 1.279 . S
C394 H435 0.930 . S
N395 C393 1.314 . S
N395 C394 1.279 . S
C396 C398 1.353 . S
C396 N399 1.314 . S
C396 H402 0.907 1_455 S
C397 N399 1.279 . S
C397 C400 1.358 . S
C397 H403 0.930 . S
C398 C396 1.353 . S
C398 C401 1.348 . S
C398 H436 0.929 1_455 S
N399 Li354 1.990 . S
N399 C396 1.314 . S
N399 C397 1.279 . S
C400 C397 1.358 . S
C400 C401 1.356 . S
C400 H437 0.930 . S
C401 C398 1.348 . S
C401 C400 1.356 . S
H402 C396 0.907 1_655 S
H403 C397 0.930 . S
C404 N405 1.314 . S
C404 C406 1.353 . S
C404 H410 0.930 . S
N405 Li355 1.990 . S
N405 C404 1.314 . S
N405 C408 1.279 . S
C406 C404 1.353 . S
C406 C409 1.348 . S
C406 H438 0.929 . S
C407 C408 1.358 . S
C407 C409 1.356 . S
C407 H439 0.930 . S
C408 N405 1.279 . S
C408 C407 1.358 . S
C408 H411 0.930 . S
C409 C406 1.348 . S
C409 C407 1.356 . S
H410 C404 0.930 . S
H411 C408 0.930 . S
O412 Li352 1.956 . S
O412 Li353 1.970 . S
O412 Li354 1.961 . S
O412 C356 1.325 . S
O413 Li352 1.970 . S
O413 Li353 1.956 . S
O413 Li355 1.961 . S
O413 C362 1.325 . S
O414 Li352 1.961 . S
O414 Li354 1.956 . S
O414 Li355 1.970 . S
O414 C384 1.325 . S
O415 Li353 1.961 . S
O415 Li354 1.970 . S
O415 Li355 1.956 . S
O415 C390 1.325 1_455 S
H416 C358 0.929 1_655 S
H417 C359 0.930 . S
H418 C360 0.930 . S
H419 C361 0.930 . S
H420 C363 0.930 . S
H421 C365 0.929 . S
H422 C366 0.930 . S
H423 C367 0.930 . S
H424 C370 0.930 . S
H425 C373 0.929 . S
H426 C378 0.929 . S
H427 C379 0.930 . S
H428 C386 0.929 . S
H429 C387 0.930 . S
H430 C388 0.930 . S
H431 C389 0.930 . S
H432 C391 0.920 1_455 S
H433 C392 0.930 . S
H434 C393 0.930 . S
H435 C394 0.930 . S
H436 C398 0.929 1_655 S
H437 C400 0.930 . S
H438 C406 0.929 . S
H439 C407 0.930 . S
Li440 N457 1.990 . S
Li440 O500 1.956 . S
Li440 O501 1.970 . S
Li440 O502 1.961 . S
Li441 N465 1.990 . S
Li441 O500 1.970 . S
Li441 O501 1.956 . S
Li441 O503 1.961 . S
Li442 N487 1.990 . S
Li442 O500 1.961 . S
Li442 O502 1.956 . S
Li442 O503 1.970 . S
Li443 N493 1.990 . S
Li443 O501 1.961 . S
Li443 O502 1.970 . S
Li443 O503 1.956 . S
C444 C446 1.348 . S
C444 C447 1.356 . S
C444 O500 1.325 . S
N445 C448 1.314 . S
N445 C449 1.279 . S
C446 C444 1.348 . S
C446 C448 1.353 . S
C446 H504 0.929 . S
C447 C444 1.356 . S
C447 C449 1.358 . S
C447 H505 0.930 . S
C448 N445 1.314 . S
C448 C446 1.353 . S
C448 H506 0.930 . S
C449 N445 1.279 . S
C449 C447 1.358 . S
C449 H507 0.930 . S
C450 C453 1.348 . S
C450 C454 1.356 . S
C450 O501 1.325 . S
C451 N452 1.279 . S
C451 C454 1.358 . S
C451 H508 0.930 . S
N452 C451 1.279 . S
N452 C455 1.314 . S
C453 C450 1.348 . S
C453 C455 1.353 . S
C453 H509 0.929 . S
C454 C450 1.356 . S
C454 C451 1.358 . S
C454 H510 0.930 . S
C455 N452 1.314 . S
C455 C453 1.353 . S
C455 H511 0.930 . S
C456 N457 1.314 . S
C456 C461 1.353 . S
C456 H462 0.930 . S
N457 Li440 1.990 . S
N457 C456 1.314 . S
N457 C459 1.279 . S
C458 C459 1.358 . S
C458 C460 1.356 . S
C458 H512 0.930 . S
C459 N457 1.279 . S
C459 C458 1.358 . S
C459 H463 0.930 . S
C460 C458 1.356 . S
C460 C461 1.348 . S
C461 C456 1.353 . S
C461 C460 1.348 . S
C461 H513 0.929 . S
H462 C456 0.930 . S
H463 C459 0.930 . S
C464 N465 1.314 . S
C464 C466 1.353 . S
C464 H470 0.930 . S
N465 Li441 1.990 . S
N465 C464 1.314 . S
N465 C468 1.279 . S
C466 C464 1.353 . S
C466 C469 1.348 . S
C466 H514 0.929 . S
C467 C468 1.358 . S
C467 C469 1.356 . S
C467 H515 0.930 . S
C468 N465 1.279 . S
C468 C467 1.358 . S
C468 H471 0.930 . S
C469 C466 1.348 . S
C469 C467 1.356 . S
H470 C464 0.930 . S
H471 C468 0.930 . S
C472 C474 1.348 . S
C472 C475 1.356 . S
C472 O502 1.325 . S
N473 C476 1.314 . S
N473 C477 1.279 . S
C474 C472 1.348 . S
C474 C476 1.353 . S
C474 H516 0.929 . S
C475 C472 1.356 . S
C475 C477 1.358 . S
C475 H517 0.930 . S
C476 N473 1.314 . S
C476 C474 1.353 . S
C476 H518 0.930 . S
C477 N473 1.279 . S
C477 C475 1.358 . S
C477 H519 0.930 . S
C478 C479 1.348 . S
C478 C480 1.356 . S
C478 O503 1.325 . S
C479 C478 1.348 . S
C479 C481 1.353 . S
C479 H520 0.929 . S
C480 C478 1.356 . S
C480 C482 1.358 . S
C480 H521 0.930 . S
C481 C479 1.353 . S
C481 N483 1.314 . S
C481 H522 0.930 . S
C482 C480 1.358 . S
C482 N483 1.279 . S
C482 H523 0.930 . S
N483 C481 1.314 . S
N483 C482 1.279 . S
C484 C486 1.353 . S
C484 N487 1.314 . S
C484 H490 0.930 . S
C485 N487 1.279 . S
C485 C488 1.358 . S
C485 H491 0.930 . S
C486 C484 1.353 . S
C486 C489 1.348 . S
C486 H524 0.929 . S
N487 Li442 1.990 . S
N487 C484 1.314 . S
N487 C485 1.279 . S
C488 C485 1.358 . S
C488 C489 1.356 . S
C488 H525 0.930 . S
C489 C486 1.348 . S
C489 C488 1.356 . S
H490 C484 0.930 . S
H491 C485 0.930 . S
C492 N493 1.314 . S
C492 C494 1.353 . S
C492 H498 0.930 . S
N493 Li443 1.990 . S
N493 C492 1.314 . S
N493 C496 1.279 . S
C494 C492 1.353 . S
C494 C497 1.348 . S
C494 H526 0.929 . S
C495 C496 1.358 . S
C495 C497 1.356 . S
C495 H527 0.930 . S
C496 N493 1.279 . S
C496 C495 1.358 . S
C496 H499 0.930 . S
C497 C494 1.348 . S
C497 C495 1.356 . S
H498 C492 0.930 . S
H499 C496 0.930 . S
O500 Li440 1.956 . S
O500 Li441 1.970 . S
O500 Li442 1.961 . S
O500 C444 1.325 . S
O501 Li440 1.970 . S
O501 Li441 1.956 . S
O501 Li443 1.961 . S
O501 C450 1.325 . S
O502 Li440 1.961 . S
O502 Li442 1.956 . S
O502 Li443 1.970 . S
O502 C472 1.325 . S
O503 Li441 1.961 . S
O503 Li442 1.970 . S
O503 Li443 1.956 . S
O503 C478 1.325 . S
H504 C446 0.929 . S
H505 C447 0.930 . S
H506 C448 0.930 . S
H507 C449 0.930 . S
H508 C451 0.930 . S
H509 C453 0.929 . S
H510 C454 0.930 . S
H511 C455 0.930 . S
H512 C458 0.930 . S
H513 C461 0.929 . S
H514 C466 0.929 . S
H515 C467 0.930 . S
H516 C474 0.929 . S
H517 C475 0.930 . S
H518 C476 0.930 . S
H519 C477 0.930 . S
H520 C479 0.929 . S
H521 C480 0.930 . S
H522 C481 0.930 . S
H523 C482 0.930 . S
H524 C486 0.929 . S
H525 C488 0.930 . S
H526 C494 0.929 . S
H527 C495 0.930 . S
Li528 N545 1.990 . S
Li528 O588 1.956 . S
Li528 O589 1.970 . S
Li528 O590 1.961 . S
Li529 N553 1.990 . S
Li529 O588 1.970 . S
Li529 O589 1.956 . S
Li529 O591 1.961 . S
Li530 N575 1.990 1_655 S
Li530 O588 1.961 . S
Li530 O590 1.956 . S
Li530 O591 1.970 . S
Li531 N581 1.990 . S
Li531 O589 1.961 . S
Li531 O590 1.970 . S
Li531 O591 1.956 . S
C532 C534 1.348 1_556 S
C532 C535 1.356 1_556 S
C532 O588 1.325 . S
N533 C536 1.314 . S
N533 C537 1.279 . S
C534 C532 1.348 1_554 S
C534 C536 1.353 . S
C534 H592 0.929 1_554 S
C535 C532 1.356 1_554 S
C535 C537 1.358 . S
C535 H593 0.930 1_554 S
C536 N533 1.314 . S
C536 C534 1.353 . S
C536 H594 0.930 . S
C537 N533 1.279 . S
C537 C535 1.358 . S
C537 H595 0.930 1_655 S
C538 C541 1.348 . S
C538 C542 1.356 . S
C538 O589 1.325 . S
C539 N540 1.279 . S
C539 C542 1.358 . S
C539 H596 0.930 . S
N540 C539 1.279 . S
N540 C543 1.314 . S
C541 C538 1.348 . S
C541 C543 1.353 . S
C541 H597 0.929 . S
C542 C538 1.356 . S
C542 C539 1.358 . S
C542 H598 0.930 . S
C543 N540 1.314 . S
C543 C541 1.353 . S
C543 H599 0.930 . S
C544 N545 1.314 . S
C544 C549 1.353 . S
C544 H550 0.930 . S
N545 Li528 1.990 . S
N545 C544 1.314 . S
N545 C547 1.279 . S
C546 C547 1.358 1_554 S
C546 C548 1.356 . S
C546 H600 0.930 . S
C547 N545 1.279 . S
C547 C546 1.358 1_556 S
C547 H551 0.930 1_556 S
C548 C546 1.356 . S
C548 C549 1.348 1_554 S
C549 C544 1.353 . S
C549 C548 1.348 1_556 S
C549 H601 0.929 . S
H550 C544 0.930 . S
H551 C547 0.930 1_554 S
C552 N553 1.314 . S
C552 C554 1.353 . S
C552 H558 0.930 1_655 S
N553 Li529 1.990 . S
N553 C552 1.314 . S
N553 C556 1.279 . S
C554 C552 1.353 . S
C554 C557 1.348 . S
C554 H602 0.929 1_655 S
C555 C556 1.358 . S
C555 C557 1.356 . S
C555 H603 0.930 . S
C556 N553 1.279 . S
C556 C555 1.358 . S
C556 H559 0.930 . S
C557 C554 1.348 . S
C557 C555 1.356 . S
H558 C552 0.930 1_455 S
H559 C556 0.930 . S
C560 C562 1.348 . S
C560 C563 1.356 . S
C560 O590 1.325 . S
N561 C564 1.314 . S
N561 C565 1.279 . S
C562 C560 1.348 . S
C562 C564 1.353 . S
C562 H604 0.929 . S
C563 C560 1.356 . S
C563 C565 1.358 . S
C563 H605 0.930 . S
C564 N561 1.314 . S
C564 C562 1.353 . S
C564 H606 0.930 . S
C565 N561 1.279 . S
C565 C563 1.358 . S
C565 H607 0.930 . S
C566 C567 1.348 . S
C566 C568 1.356 . S
C566 O591 1.325 1_455 S
C567 C566 1.348 . S
C567 C569 1.353 . S
C567 H608 0.929 . S
C568 C566 1.356 . S
C568 C570 1.358 . S
C568 H609 0.930 1_455 S
C569 C567 1.353 . S
C569 N571 1.314 . S
C569 H610 0.930 . S
C570 C568 1.358 . S
C570 N571 1.279 . S
C570 H611 0.930 . S
N571 C569 1.314 . S
N571 C570 1.279 . S
C572 C574 1.353 . S
C572 N575 1.314 . S
C572 H578 0.930 . S
C573 N575 1.279 . S
C573 C576 1.358 . S
C573 H579 0.930 . S
C574 C572 1.353 . S
C574 C577 1.348 . S
C574 H612 0.929 . S
N575 Li530 1.990 1_455 S
N575 C572 1.314 . S
N575 C573 1.279 . S
C576 C573 1.358 . S
C576 C577 1.356 . S
C576 H613 0.930 . S
C577 C574 1.348 . S
C577 C576 1.356 . S
H578 C572 0.930 . S
H579 C573 0.930 . S
C580 N581 1.314 . S
C580 C582 1.353 . S
C580 H586 0.930 . S
N581 Li531 1.990 . S
N581 C580 1.314 . S
N581 C584 1.279 . S
C582 C580 1.353 . S
C582 C585 1.348 . S
C582 H614 0.929 . S
C583 C584 1.358 . S
C583 C585 1.356 . S
C583 H615 0.930 . S
C584 N581 1.279 . S
C584 C583 1.358 . S
C584 H587 0.930 . S
C585 C582 1.348 . S
C585 C583 1.356 . S
H586 C580 0.930 . S
H587 C584 0.930 . S
O588 Li528 1.956 . S
O588 Li529 1.970 . S
O588 Li530 1.961 . S
O588 C532 1.325 . S
O589 Li528 1.970 . S
O589 Li529 1.956 . S
O589 Li531 1.961 . S
O589 C538 1.325 . S
O590 Li528 1.961 . S
O590 Li530 1.956 . S
O590 Li531 1.970 . S
O590 C560 1.325 . S
O591 Li529 1.961 . S
O591 Li530 1.970 . S
O591 Li531 1.956 . S
O591 C566 1.325 1_655 S
H592 C534 0.929 1_556 S
H593 C535 0.930 1_556 S
H594 C536 0.930 . S
H595 C537 0.930 1_455 S
H596 C539 0.930 . S
H597 C541 0.929 . S
H598 C542 0.930 . S
H599 C543 0.930 . S
H600 C546 0.930 . S
H601 C549 0.929 . S
H602 C554 0.929 1_455 S
H603 C555 0.930 . S
H604 C562 0.929 . S
H605 C563 0.930 . S
H606 C564 0.930 . S
H607 C565 0.930 . S
H608 C567 0.929 . S
H609 C568 0.930 1_655 S
H610 C569 0.930 . S
H611 C570 0.930 . S
H612 C574 0.929 . S
H613 C576 0.930 . S
H614 C582 0.929 . S
H615 C583 0.930 . S
Li616 N633 1.990 . S
Li616 O676 1.956 . S
Li616 O677 1.970 . S
Li616 O678 1.961 . S
Li617 N641 1.990 . S
Li617 O676 1.970 . S
Li617 O677 1.956 . S
Li617 O679 1.961 . S
Li618 N663 1.990 . S
Li618 O676 1.961 . S
Li618 O678 1.956 . S
Li618 O679 1.970 . S
Li619 N669 1.990 . S
Li619 O677 1.961 . S
Li619 O678 1.970 . S
Li619 O679 1.956 . S
C620 C622 1.348 . S
C620 C623 1.356 . S
C620 O676 1.325 . S
N621 C624 1.314 . S
N621 C625 1.279 . S
C622 C620 1.348 . S
C622 C624 1.353 . S
C622 H680 0.929 . S
C623 C620 1.356 . S
C623 C625 1.358 . S
C623 H681 0.930 . S
C624 N621 1.314 . S
C624 C622 1.353 . S
C624 H682 0.930 . S
C625 N621 1.279 . S
C625 C623 1.358 . S
C625 H683 0.930 . S
C626 C629 1.348 . S
C626 C630 1.356 1_556 S
C626 O677 1.325 . S
C627 N628 1.279 . S
C627 C630 1.358 . S
C627 H684 0.930 . S
N628 C627 1.279 . S
N628 C631 1.314 . S
C629 C626 1.348 . S
C629 C631 1.353 1_556 S
C629 H685 0.929 . S
C630 C626 1.356 1_554 S
C630 C627 1.358 . S
C630 H686 0.930 . S
C631 N628 1.314 . S
C631 C629 1.353 1_554 S
C631 H687 0.930 . S
C632 N633 1.314 . S
C632 C637 1.353 . S
C632 H638 0.930 . S
N633 Li616 1.990 . S
N633 C632 1.314 . S
N633 C635 1.279 . S
C634 C635 1.358 . S
C634 C636 1.356 . S
C634 H688 0.930 . S
C635 N633 1.279 . S
C635 C634 1.358 . S
C635 H639 0.930 . S
C636 C634 1.356 . S
C636 C637 1.348 . S
C637 C632 1.353 . S
C637 C636 1.348 . S
C637 H689 0.929 . S
H638 C632 0.930 . S
H639 C635 0.930 . S
C640 N641 1.314 . S
C640 C642 1.353 . S
C640 H646 0.930 . S
N641 Li617 1.990 . S
N641 C640 1.314 . S
N641 C644 1.279 . S
C642 C640 1.353 . S
C642 C645 1.348 . S
C642 H690 0.929 . S
C643 C644 1.358 . S
C643 C645 1.356 . S
C643 H691 0.930 . S
C644 N641 1.279 . S
C644 C643 1.358 . S
C644 H647 0.930 . S
C645 C642 1.348 . S
C645 C643 1.356 . S
H646 C640 0.930 . S
H647 C644 0.930 . S
C648 C650 1.348 . S
C648 C651 1.356 . S
C648 O678 1.325 . S
N649 C652 1.314 . S
N649 C653 1.279 . S
C650 C648 1.348 . S
C650 C652 1.353 . S
C650 H692 0.929 . S
C651 C648 1.356 . S
C651 C653 1.358 . S
C651 H693 0.930 . S
C652 N649 1.314 . S
C652 C650 1.353 . S
C652 H694 0.930 . S
C653 N649 1.279 . S
C653 C651 1.358 . S
C653 H695 0.930 . S
C654 C655 1.348 . S
C654 C656 1.356 . S
C654 O679 1.325 . S
C655 C654 1.348 . S
C655 C657 1.353 . S
C655 H696 0.929 . S
C656 C654 1.356 . S
C656 C658 1.358 . S
C656 H697 0.930 . S
C657 C655 1.353 . S
C657 N659 1.314 . S
C657 H698 0.930 . S
C658 C656 1.358 . S
C658 N659 1.279 . S
C658 H699 0.930 . S
N659 C657 1.314 . S
N659 C658 1.279 . S
C660 C662 1.353 . S
C660 N663 1.314 . S
C660 H666 0.930 . S
C661 N663 1.279 . S
C661 C664 1.358 . S
C661 H667 0.930 . S
C662 C660 1.353 . S
C662 C665 1.348 . S
C662 H700 0.929 . S
N663 Li618 1.990 . S
N663 C660 1.314 . S
N663 C661 1.279 . S
C664 C661 1.358 . S
C664 C665 1.356 . S
C664 H701 0.930 . S
C665 C662 1.348 . S
C665 C664 1.356 . S
H666 C660 0.930 . S
H667 C661 0.930 . S
C668 N669 1.314 . S
C668 C670 1.353 1_556 S
C668 H674 0.930 . S
N669 Li619 1.990 . S
N669 C668 1.314 . S
N669 C672 1.279 . S
C670 C668 1.353 1_554 S
C670 C673 1.348 . S
C670 H702 0.929 . S
C671 C672 1.358 . S
C671 C673 1.356 1_556 S
C671 H703 0.930 . S
C672 N669 1.279 . S
C672 C671 1.358 . S
C672 H675 0.930 . S
C673 C670 1.348 . S
C673 C671 1.356 1_554 S
H674 C668 0.930 . S
H675 C672 0.930 . S
O676 Li616 1.956 . S
O676 Li617 1.970 . S
O676 Li618 1.961 . S
O676 C620 1.325 . S
O677 Li616 1.970 . S
O677 Li617 1.956 . S
O677 Li619 1.961 . S
O677 C626 1.325 . S
O678 Li616 1.961 . S
O678 Li618 1.956 . S
O678 Li619 1.970 . S
O678 C648 1.325 . S
O679 Li617 1.961 . S
O679 Li618 1.970 . S
O679 Li619 1.956 . S
O679 C654 1.325 . S
H680 C622 0.929 . S
H681 C623 0.930 . S
H682 C624 0.930 . S
H683 C625 0.930 . S
H684 C627 0.930 . S
H685 C629 0.929 . S
H686 C630 0.930 . S
H687 C631 0.930 . S
H688 C634 0.930 . S
H689 C637 0.929 . S
H690 C642 0.929 . S
H691 C643 0.930 . S
H692 C650 0.929 . S
H693 C651 0.930 . S
H694 C652 0.930 . S
H695 C653 0.930 . S
H696 C655 0.929 . S
H697 C656 0.930 . S
H698 C657 0.930 . S
H699 C658 0.930 . S
H700 C662 0.929 . S
H701 C664 0.930 . S
H702 C670 0.929 . S
H703 C671 0.930 . S
Li704 N721 1.990 . S
Li704 O764 1.956 . S
Li704 O765 1.970 . S
Li704 O766 1.961 . S
Li705 N729 1.990 . S
Li705 O764 1.970 . S
Li705 O765 1.956 . S
Li705 O767 1.961 . S
Li706 N751 1.990 1_545 S
Li706 O764 1.961 . S
Li706 O766 1.956 . S
Li706 O767 1.970 . S
Li707 N757 1.990 . S
Li707 O765 1.961 . S
Li707 O766 1.970 . S
Li707 O767 1.956 . S
C708 C710 1.348 . S
C708 C711 1.356 . S
C708 O764 1.325 . S
N709 C712 1.314 . S
N709 C713 1.279 . S
C710 C708 1.348 . S
C710 C712 1.353 . S
C710 H768 0.929 . S
C711 C708 1.356 . S
C711 C713 1.358 . S
C711 H769 0.930 . S
C712 N709 1.314 . S
C712 C710 1.353 . S
C712 H770 0.930 . S
C713 N709 1.279 . S
C713 C711 1.358 . S
C713 H771 0.930 . S
C714 C717 1.348 . S
C714 C718 1.356 . S
C714 O765 1.325 . S
C715 N716 1.279 . S
C715 C718 1.358 . S
C715 H772 0.930 . S
N716 C715 1.279 . S
N716 C719 1.314 . S
C717 C714 1.348 . S
C717 C719 1.353 . S
C717 H773 0.929 . S
C718 C714 1.356 . S
C718 C715 1.358 . S
C718 H774 0.930 . S
C719 N716 1.314 . S
C719 C717 1.353 . S
C719 H775 0.930 . S
C720 N721 1.314 . S
C720 C725 1.353 . S
C720 H726 0.930 . S
N721 Li704 1.990 . S
N721 C720 1.314 . S
N721 C723 1.279 . S
C722 C723 1.358 . S
C722 C724 1.356 . S
C722 H776 0.930 . S
C723 N721 1.279 . S
C723 C722 1.358 . S
C723 H727 0.930 . S
C724 C722 1.356 . S
C724 C725 1.348 . S
C725 C720 1.353 . S
C725 C724 1.348 . S
C725 H777 0.929 . S
H726 C720 0.930 . S
H727 C723 0.930 . S
C728 N729 1.314 . S
C728 C730 1.353 1_556 S
C728 H734 0.930 . S
N729 Li705 1.990 . S
N729 C728 1.314 . S
N729 C732 1.279 . S
C730 C728 1.353 1_554 S
C730 C733 1.348 . S
C730 H778 0.929 . S
C731 C732 1.358 . S
C731 C733 1.356 1_556 S
C731 H779 0.930 . S
C732 N729 1.279 . S
C732 C731 1.358 . S
C732 H735 0.930 . S
C733 C730 1.348 . S
C733 C731 1.356 1_554 S
H734 C728 0.930 . S
H735 C732 0.930 . S
C736 C738 1.348 . S
C736 C739 1.356 . S
C736 O766 1.325 1_565 S
N737 C740 1.314 . S
N737 C741 1.279 . S
C738 C736 1.348 . S
C738 C740 1.353 . S
C738 H780 0.929 . S
C739 C736 1.356 . S
C739 C741 1.358 . S
C739 H781 0.930 . S
C740 N737 1.314 . S
C740 C738 1.353 . S
C740 H782 0.930 . S
C741 N737 1.279 . S
C741 C739 1.358 . S
C741 H783 0.930 . S
C742 C743 1.348 1_545 S
C742 C744 1.356 1_556 S
C742 O767 1.325 . S
C743 C742 1.348 1_565 S
C743 C745 1.353 1_556 S
C743 H784 0.929 . S
C744 C742 1.356 1_554 S
C744 C746 1.358 . S
C744 H785 0.930 . S
C745 C743 1.353 1_554 S
C745 N747 1.314 1_565 S
C745 H786 0.930 . S
C746 C744 1.358 . S
C746 N747 1.279 . S
C746 H787 0.930 . S
N747 C745 1.314 1_545 S
N747 C746 1.279 . S
C748 C750 1.353 . S
C748 N751 1.314 . S
C748 H754 0.930 . S
C749 N751 1.279 . S
C749 C752 1.358 . S
C749 H755 0.930 . S
C750 C748 1.353 . S
C750 C753 1.348 . S
C750 H788 0.929 . S
N751 Li706 1.990 1_565 S
N751 C748 1.314 . S
N751 C749 1.279 . S
C752 C749 1.358 . S
C752 C753 1.356 . S
C752 H789 0.930 . S
C753 C750 1.348 . S
C753 C752 1.356 . S
H754 C748 0.930 . S
H755 C749 0.930 . S
C756 N757 1.314 . S
C756 C758 1.353 . S
C756 H762 0.930 . S
N757 Li707 1.990 . S
N757 C756 1.314 . S
N757 C760 1.279 . S
C758 C756 1.353 . S
C758 C761 1.348 . S
C758 H790 0.929 . S
C759 C760 1.358 . S
C759 C761 1.356 . S
C759 H791 0.930 . S
C760 N757 1.279 . S
C760 C759 1.358 . S
C760 H763 0.930 . S
C761 C758 1.348 . S
C761 C759 1.356 . S
H762 C756 0.930 . S
H763 C760 0.930 . S
O764 Li704 1.956 . S
O764 Li705 1.970 . S
O764 Li706 1.961 . S
O764 C708 1.325 . S
O765 Li704 1.970 . S
O765 Li705 1.956 . S
O765 Li707 1.961 . S
O765 C714 1.325 . S
O766 Li704 1.961 . S
O766 Li706 1.956 . S
O766 Li707 1.970 . S
O766 C736 1.325 1_545 S
O767 Li705 1.961 . S
O767 Li706 1.970 . S
O767 Li707 1.956 . S
O767 C742 1.325 . S
H768 C710 0.929 . S
H769 C711 0.930 . S
H770 C712 0.930 . S
H771 C713 0.930 . S
H772 C715 0.930 . S
H773 C717 0.929 . S
H774 C718 0.930 . S
H775 C719 0.930 . S
H776 C722 0.930 . S
H777 C725 0.929 . S
H778 C730 0.929 . S
H779 C731 0.930 . S
H780 C738 0.929 . S
H781 C739 0.930 . S
H782 C740 0.930 . S
H783 C741 0.930 . S
H784 C743 0.929 . S
H785 C744 0.930 . S
H786 C745 0.930 . S
H787 C746 0.930 . S
H788 C750 0.929 . S
H789 C752 0.930 . S
H790 C758 0.929 . S
H791 C759 0.930 . S
Li792 N809 1.990 . S
Li792 O852 1.956 . S
Li792 O853 1.970 . S
Li792 O854 1.961 . S
Li793 N817 1.990 . S
Li793 O852 1.970 . S
Li793 O853 1.956 . S
Li793 O855 1.961 . S
Li794 N839 1.990 . S
Li794 O852 1.961 . S
Li794 O854 1.956 . S
Li794 O855 1.970 . S
Li795 N845 1.990 1_545 S
Li795 O853 1.961 . S
Li795 O854 1.970 . S
Li795 O855 1.956 . S
C796 C798 1.348 . S
C796 C799 1.356 . S
C796 O852 1.325 . S
N797 C800 1.314 . S
N797 C801 1.279 . S
C798 C796 1.348 . S
C798 C800 1.353 . S
C798 H856 0.929 . S
C799 C796 1.356 . S
C799 C801 1.358 . S
C799 H857 0.930 . S
C800 N797 1.314 . S
C800 C798 1.353 . S
C800 H858 0.930 . S
C801 N797 1.279 . S
C801 C799 1.358 . S
C801 H859 0.930 . S
C802 C805 1.348 . S
C802 C806 1.356 . S
C802 O853 1.325 . S
C803 N804 1.279 . S
C803 C806 1.358 . S
C803 H860 0.930 . S
N804 C803 1.279 . S
N804 C807 1.314 . S
C805 C802 1.348 . S
C805 C807 1.353 . S
C805 H861 0.929 . S
C806 C802 1.356 . S
C806 C803 1.358 . S
C806 H862 0.930 . S
C807 N804 1.314 . S
C807 C805 1.353 . S
C807 H863 0.930 . S
C808 N809 1.314 . S
C808 C813 1.353 . S
C808 H814 0.930 . S
N809 Li792 1.990 . S
N809 C808 1.314 . S
N809 C811 1.279 . S
C810 C811 1.358 . S
C810 C812 1.356 . S
C810 H864 0.930 . S
C811 N809 1.279 . S
C811 C810 1.358 . S
C811 H815 0.930 . S
C812 C810 1.356 . S
C812 C813 1.348 . S
C813 C808 1.353 . S
C813 C812 1.348 . S
C813 H865 0.929 . S
H814 C808 0.930 . S
H815 C811 0.930 . S
C816 N817 1.314 . S
C816 C818 1.353 . S
C816 H822 0.930 . S
N817 Li793 1.990 . S
N817 C816 1.314 . S
N817 C820 1.279 . S
C818 C816 1.353 . S
C818 C821 1.348 . S
C818 H866 0.929 . S
C819 C820 1.358 . S
C819 C821 1.356 . S
C819 H867 0.930 . S
C820 N817 1.279 . S
C820 C819 1.358 . S
C820 H823 0.930 . S
C821 C818 1.348 . S
C821 C819 1.356 . S
H822 C816 0.930 . S
H823 C820 0.930 . S
C824 C826 1.348 1_545 S
C824 C827 1.356 . S
C824 O854 1.325 . S
N825 C828 1.314 1_545 S
N825 C829 1.279 . S
C826 C824 1.348 1_565 S
C826 C828 1.353 . S
C826 H868 0.929 . S
C827 C824 1.356 . S
C827 C829 1.358 . S
C827 H869 0.930 . S
C828 N825 1.314 1_565 S
C828 C826 1.353 . S
C828 H870 0.930 . S
C829 N825 1.279 . S
C829 C827 1.358 . S
C829 H871 0.930 . S
C830 C831 1.348 . S
C830 C832 1.356 . S
C830 O855 1.325 1_565 S
C831 C830 1.348 . S
C831 C833 1.353 . S
C831 H872 0.929 . S
C832 C830 1.356 . S
C832 C834 1.358 . S
C832 H873 0.930 . S
C833 C831 1.353 . S
C833 N835 1.314 . S
C833 H874 0.930 . S
C834 C832 1.358 . S
C834 N835 1.279 . S
C834 H875 0.930 . S
N835 C833 1.314 . S
N835 C834 1.279 . S
C836 C838 1.353 . S
C836 N839 1.314 . S
C836 H842 0.930 . S
C837 N839 1.279 . S
C837 C840 1.358 . S
C837 H843 0.930 . S
C838 C836 1.353 . S
C838 C841 1.348 . S
C838 H876 0.929 . S
N839 Li794 1.990 . S
N839 C836 1.314 . S
N839 C837 1.279 . S
C840 C837 1.358 . S
C840 C841 1.356 . S
C840 H877 0.930 . S
C841 C838 1.348 . S
C841 C840 1.356 . S
H842 C836 0.930 . S
H843 C837 0.930 . S
C844 N845 1.314 . S
C844 C846 1.353 . S
C844 H850 0.930 . S
N845 Li795 1.990 1_565 S
N845 C844 1.314 . S
N845 C848 1.279 . S
C846 C844 1.353 . S
C846 C849 1.348 . S
C846 H878 0.929 . S
C847 C848 1.358 . S
C847 C849 1.356 . S
C847 H879 0.930 . S
C848 N845 1.279 . S
C848 C847 1.358 . S
C848 H851 0.930 . S
C849 C846 1.348 . S
C849 C847 1.356 . S
H850 C844 0.930 . S
H851 C848 0.930 . S
O852 Li792 1.956 . S
O852 Li793 1.970 . S
O852 Li794 1.961 . S
O852 C796 1.325 . S
O853 Li792 1.970 . S
O853 Li793 1.956 . S
O853 Li795 1.961 . S
O853 C802 1.325 . S
O854 Li792 1.961 . S
O854 Li794 1.956 . S
O854 Li795 1.970 . S
O854 C824 1.325 . S
O855 Li793 1.961 . S
O855 Li794 1.970 . S
O855 Li795 1.956 . S
O855 C830 1.325 1_545 S
H856 C798 0.929 . S
H857 C799 0.930 . S
H858 C800 0.930 . S
H859 C801 0.930 . S
H860 C803 0.930 . S
H861 C805 0.929 . S
H862 C806 0.930 . S
H863 C807 0.930 . S
H864 C810 0.930 . S
H865 C813 0.929 . S
H866 C818 0.929 . S
H867 C819 0.930 . S
H868 C826 0.929 . S
H869 C827 0.930 . S
H870 C828 0.930 . S
H871 C829 0.930 . S
H872 C831 0.929 . S
H873 C832 0.930 . S
H874 C833 0.930 . S
H875 C834 0.930 . S
H876 C838 0.929 . S
H877 C840 0.930 . S
H878 C846 0.929 . S
H879 C847 0.930 . S
Li880 N897 1.990 1_655 S
Li880 O940 1.956 . S
Li880 O941 1.970 . S
Li880 O942 1.961 . S
Li881 N905 1.990 . S
Li881 O940 1.970 . S
Li881 O941 1.956 . S
Li881 O943 1.961 . S
Li882 N927 1.990 . S
Li882 O940 1.961 . S
Li882 O942 1.956 . S
Li882 O943 1.970 . S
Li883 N933 1.990 . S
Li883 O941 1.961 . S
Li883 O942 1.970 . S
Li883 O943 1.956 . S
C884 C886 1.348 . S
C884 C887 1.356 . S
C884 O940 1.325 1_455 S
N885 C888 1.314 . S
N885 C889 1.279 . S
C886 C884 1.348 . S
C886 C888 1.353 . S
C886 H944 0.929 . S
C887 C884 1.356 . S
C887 C889 1.358 . S
C887 H945 0.930 . S
C888 N885 1.314 . S
C888 C886 1.353 . S
C888 H946 0.930 . S
C889 N885 1.279 . S
C889 C887 1.358 . S
C889 H947 0.930 . S
C890 C893 1.348 1_655 S
C890 C894 1.356 . S
C890 O941 1.325 . S
C891 N892 1.279 . S
C891 C894 1.358 . S
C891 H948 0.930 . S
N892 C891 1.279 . S
N892 C895 1.314 1_655 S
C893 C890 1.348 1_455 S
C893 C895 1.353 . S
C893 H949 0.929 . S
C894 C890 1.356 . S
C894 C891 1.358 . S
C894 H950 0.930 . S
C895 N892 1.314 1_455 S
C895 C893 1.353 . S
C895 H951 0.930 . S
C896 N897 1.314 . S
C896 C901 1.353 . S
C896 H902 0.930 . S
N897 Li880 1.990 1_455 S
N897 C896 1.314 . S
N897 C899 1.279 . S
C898 C899 1.358 . S
C898 C900 1.356 . S
C898 H952 0.930 . S
C899 N897 1.279 . S
C899 C898 1.358 . S
C899 H903 0.930 . S
C900 C898 1.356 . S
C900 C901 1.348 . S
C901 C896 1.353 . S
C901 C900 1.348 . S
C901 H953 0.929 . S
H902 C896 0.930 . S
H903 C899 0.930 . S
C904 N905 1.314 . S
C904 C906 1.353 . S
C904 H910 0.930 . S
N905 Li881 1.990 . S
N905 C904 1.314 . S
N905 C908 1.279 . S
C906 C904 1.353 . S
C906 C909 1.348 . S
C906 H954 0.929 . S
C907 C908 1.358 . S
C907 C909 1.356 . S
C907 H955 0.930 . S
C908 N905 1.279 . S
C908 C907 1.358 . S
C908 H911 0.930 . S
C909 C906 1.348 . S
C909 C907 1.356 . S
H910 C904 0.930 . S
H911 C908 0.930 . S
C912 C914 1.348 . S
C912 C915 1.356 . S
C912 O942 1.325 . S
N913 C916 1.314 . S
N913 C917 1.279 . S
C914 C912 1.348 . S
C914 C916 1.353 . S
C914 H956 0.929 . S
C915 C912 1.356 . S
C915 C917 1.358 . S
C915 H957 0.930 . S
C916 N913 1.314 . S
C916 C914 1.353 . S
C916 H958 0.930 . S
C917 N913 1.279 . S
C917 C915 1.358 . S
C917 H959 0.930 . S
C918 C919 1.348 . S
C918 C920 1.356 . S
C918 O943 1.325 . S
C919 C918 1.348 . S
C919 C921 1.353 . S
C919 H960 0.929 . S
C920 C918 1.356 . S
C920 C922 1.358 . S
C920 H961 0.930 . S
C921 C919 1.353 . S
C921 N923 1.314 . S
C921 H962 0.930 . S
C922 C920 1.358 . S
C922 N923 1.279 . S
C922 H963 0.930 . S
N923 C921 1.314 . S
N923 C922 1.279 . S
C924 C926 1.353 . S
C924 N927 1.314 . S
C924 H930 0.930 . S
C925 N927 1.279 . S
C925 C928 1.358 . S
C925 H931 0.930 . S
C926 C924 1.353 . S
C926 C929 1.348 . S
C926 H964 0.929 . S
N927 Li882 1.990 . S
N927 C924 1.314 . S
N927 C925 1.279 . S
C928 C925 1.358 . S
C928 C929 1.356 . S
C928 H965 0.930 . S
C929 C926 1.348 . S
C929 C928 1.356 . S
H930 C924 0.930 . S
H931 C925 0.930 . S
C932 N933 1.314 . S
C932 C934 1.353 . S
C932 H938 0.930 . S
N933 Li883 1.990 . S
N933 C932 1.314 . S
N933 C936 1.279 . S
C934 C932 1.353 . S
C934 C937 1.348 . S
C934 H966 0.929 . S
C935 C936 1.358 . S
C935 C937 1.356 . S
C935 H967 0.930 . S
C936 N933 1.279 . S
C936 C935 1.358 . S
C936 H939 0.930 . S
C937 C934 1.348 . S
C937 C935 1.356 . S
H938 C932 0.930 . S
H939 C936 0.930 . S
O940 Li880 1.956 . S
O940 Li881 1.970 . S
O940 Li882 1.961 . S
O940 C884 1.325 1_655 S
O941 Li880 1.970 . S
O941 Li881 1.956 . S
O941 Li883 1.961 . S
O941 C890 1.325 . S
O942 Li880 1.961 . S
O942 Li882 1.956 . S
O942 Li883 1.970 . S
O942 C912 1.325 . S
O943 Li881 1.961 . S
O943 Li882 1.970 . S
O943 Li883 1.956 . S
O943 C918 1.325 . S
H944 C886 0.929 . S
H945 C887 0.930 . S
H946 C888 0.930 . S
H947 C889 0.930 . S
H948 C891 0.930 . S
H949 C893 0.929 . S
H950 C894 0.930 . S
H951 C895 0.930 . S
H952 C898 0.930 . S
H953 C901 0.929 . S
H954 C906 0.929 . S
H955 C907 0.930 . S
H956 C914 0.929 . S
H957 C915 0.930 . S
H958 C916 0.930 . S
H959 C917 0.930 . S
H960 C919 0.929 . S
H961 C920 0.930 . S
H962 C921 0.930 . S
H963 C922 0.930 . S
H964 C926 0.929 . S
H965 C928 0.930 . S
H966 C934 0.929 . S
H967 C935 0.930 . S
Li968 N985 1.990 . S
Li968 O1028 1.956 . S
Li968 O1029 1.970 . S
Li968 O1030 1.961 . S
Li969 N993 1.990 . S
Li969 O1028 1.970 . S
Li969 O1029 1.956 . S
Li969 O1031 1.961 . S
Li970 N1015 1.990 . S
Li970 O1028 1.961 . S
Li970 O1030 1.956 . S
Li970 O1031 1.970 . S
Li971 N1021 1.990 . S
Li971 O1029 1.961 . S
Li971 O1030 1.970 . S
Li971 O1031 1.956 . S
C972 C974 1.348 . S
C972 C975 1.356 . S
C972 O1028 1.325 . S
N973 C976 1.314 . S
N973 C977 1.279 . S
C974 C972 1.348 . S
C974 C976 1.353 . S
C974 H1032 0.929 . S
C975 C972 1.356 . S
C975 C977 1.358 . S
C975 H1033 0.930 . S
C976 N973 1.314 . S
C976 C974 1.353 . S
C976 H1034 0.930 . S
C977 N973 1.279 . S
C977 C975 1.358 . S
C977 H1035 0.930 . S
C978 C981 1.348 . S
C978 C982 1.356 . S
C978 O1029 1.325 . S
C979 N980 1.279 . S
C979 C982 1.358 . S
C979 H1036 0.930 . S
N980 C979 1.279 . S
N980 C983 1.314 . S
C981 C978 1.348 . S
C981 C983 1.353 . S
C981 H1037 0.929 . S
C982 C978 1.356 . S
C982 C979 1.358 . S
C982 H1038 0.930 . S
C983 N980 1.314 . S
C983 C981 1.353 . S
C983 H1039 0.930 . S
C984 N985 1.314 . S
C984 C989 1.353 . S
C984 H990 0.930 . S
N985 Li968 1.990 . S
N985 C984 1.314 . S
N985 C987 1.279 . S
C986 C987 1.358 . S
C986 C988 1.356 . S
C986 H1040 0.930 . S
C987 N985 1.279 . S
C987 C986 1.358 . S
C987 H991 0.930 . S
C988 C986 1.356 . S
C988 C989 1.348 . S
C989 C984 1.353 . S
C989 C988 1.348 . S
C989 H1041 0.929 . S
H990 C984 0.930 . S
H991 C987 0.930 . S
C992 N993 1.314 . S
C992 C994 1.353 . S
C992 H998 0.930 . S
N993 Li969 1.990 . S
N993 C992 1.314 . S
N993 C996 1.279 . S
C994 C992 1.353 . S
C994 C997 1.348 . S
C994 H1042 0.929 . S
C995 C996 1.358 . S
C995 C997 1.356 . S
C995 H1043 0.930 . S
C996 N993 1.279 . S
C996 C995 1.358 . S
C996 H999 0.930 . S
C997 C994 1.348 . S
C997 C995 1.356 . S
H998 C992 0.930 . S
H999 C996 0.930 . S
C1000 C1002 1.348 . S
C1000 C1003 1.356 . S
C1000 O1030 1.325 . S
N1001 C1004 1.314 . S
N1001 C1005 1.279 . S
C1002 C1000 1.348 . S
C1002 C1004 1.353 . S
C1002 H1044 0.929 . S
C1003 C1000 1.356 . S
C1003 C1005 1.358 . S
C1003 H1045 0.930 . S
C1004 N1001 1.314 . S
C1004 C1002 1.353 . S
C1004 H1046 0.930 . S
C1005 N1001 1.279 . S
C1005 C1003 1.358 . S
C1005 H1047 0.930 . S
C1006 C1007 1.348 . S
C1006 C1008 1.356 . S
C1006 O1031 1.325 . S
C1007 C1006 1.348 . S
C1007 C1009 1.353 . S
C1007 H1048 0.929 . S
C1008 C1006 1.356 . S
C1008 C1010 1.358 . S
C1008 H1049 0.930 . S
C1009 C1007 1.353 . S
C1009 N1011 1.314 . S
C1009 H1050 0.930 . S
C1010 C1008 1.358 . S
C1010 N1011 1.279 . S
C1010 H1051 0.930 . S
N1011 C1009 1.314 . S
N1011 C1010 1.279 . S
C1012 C1014 1.353 . S
C1012 N1015 1.314 . S
C1012 H1018 0.930 . S
C1013 N1015 1.279 . S
C1013 C1016 1.358 . S
C1013 H1019 0.930 . S
C1014 C1012 1.353 . S
C1014 C1017 1.348 . S
C1014 H1052 0.929 . S
N1015 Li970 1.990 . S
N1015 C1012 1.314 . S
N1015 C1013 1.279 . S
C1016 C1013 1.358 . S
C1016 C1017 1.356 . S
C1016 H1053 0.930 . S
C1017 C1014 1.348 . S
C1017 C1016 1.356 . S
H1018 C1012 0.930 . S
H1019 C1013 0.930 . S
C1020 N1021 1.314 . S
C1020 C1022 1.353 . S
C1020 H1026 0.930 . S
N1021 Li971 1.990 . S
N1021 C1020 1.314 . S
N1021 C1024 1.279 . S
C1022 C1020 1.353 . S
C1022 C1025 1.348 . S
C1022 H1054 0.929 . S
C1023 C1024 1.358 . S
C1023 C1025 1.356 . S
C1023 H1055 0.930 . S
C1024 N1021 1.279 . S
C1024 C1023 1.358 . S
C1024 H1027 0.930 . S
C1025 C1022 1.348 . S
C1025 C1023 1.356 . S
H1026 C1020 0.930 . S
H1027 C1024 0.930 . S
O1028 Li968 1.956 . S
O1028 Li969 1.970 . S
O1028 Li970 1.961 . S
O1028 C972 1.325 . S
O1029 Li968 1.970 . S
O1029 Li969 1.956 . S
O1029 Li971 1.961 . S
O1029 C978 1.325 . S
O1030 Li968 1.961 . S
O1030 Li970 1.956 . S
O1030 Li971 1.970 . S
O1030 C1000 1.325 . S
O1031 Li969 1.961 . S
O1031 Li970 1.970 . S
O1031 Li971 1.956 . S
O1031 C1006 1.325 . S
H1032 C974 0.929 . S
H1033 C975 0.930 . S
H1034 C976 0.930 . S
H1035 C977 0.930 . S
H1036 C979 0.930 . S
H1037 C981 0.929 . S
H1038 C982 0.930 . S
H1039 C983 0.930 . S
H1040 C986 0.930 . S
H1041 C989 0.929 . S
H1042 C994 0.929 . S
H1043 C995 0.930 . S
H1044 C1002 0.929 . S
H1045 C1003 0.930 . S
H1046 C1004 0.930 . S
H1047 C1005 0.930 . S
H1048 C1007 0.929 . S
H1049 C1008 0.930 . S
H1050 C1009 0.930 . S
H1051 C1010 0.930 . S
H1052 C1014 0.929 . S
H1053 C1016 0.930 . S
H1054 C1022 0.929 . S
H1055 C1023 0.930 . S
C1056 C1057 1.387 . S
C1056 H1060 0.950 . S
C1056 C1065 1.390 . S
C1057 C1056 1.387 . S
C1057 C1059 1.387 . S
H1058 C1065 0.950 . S
C1059 C1057 1.387 . S
C1059 C1061 1.390 . S
C1059 H1063 0.950 . S
H1060 C1056 0.950 . S
C1061 C1059 1.390 . S
C1061 C1062 1.387 . S
C1061 H1064 0.950 . S
C1062 C1061 1.387 . S
C1062 C1065 1.387 . S
H1063 C1059 0.950 . S
H1064 C1061 0.950 . S
C1065 C1056 1.390 . S
C1065 H1058 0.950 . S
C1065 C1062 1.387 . S
C1066 C1067 1.387 . S
C1066 H1070 0.950 1_556 S
C1066 C1075 1.390 . S
C1067 C1066 1.387 . S
C1067 C1069 1.387 . S
H1068 C1075 0.950 . S
C1069 C1067 1.387 . S
C1069 C1071 1.390 . S
C1069 H1073 0.950 . S
H1070 C1066 0.950 1_554 S
C1071 C1069 1.390 . S
C1071 C1072 1.387 . S
C1071 H1074 0.950 . S
C1072 C1071 1.387 . S
C1072 C1075 1.387 . S
H1073 C1069 0.950 . S
H1074 C1071 0.950 . S
C1075 C1066 1.390 . S
C1075 H1068 0.950 . S
C1075 C1072 1.387 . S
C1076 C1077 1.387 . S
C1076 H1080 0.950 1_556 S
C1076 C1085 1.390 . S
C1077 C1076 1.387 . S
C1077 C1079 1.387 . S
H1078 C1085 0.950 . S
C1079 C1077 1.387 . S
C1079 C1081 1.390 . S
C1079 H1083 0.950 . S
H1080 C1076 0.950 1_554 S
C1081 C1079 1.390 . S
C1081 C1082 1.387 . S
C1081 H1084 0.950 . S
C1082 C1081 1.387 . S
C1082 C1085 1.387 . S
H1083 C1079 0.950 . S
H1084 C1081 0.950 . S
C1085 C1076 1.390 . S
C1085 H1078 0.950 . S
C1085 C1082 1.387 . S
C1086 C1087 1.387 . S
C1086 H1090 0.950 . S
C1086 C1095 1.390 . S
C1087 C1086 1.387 . S
C1087 C1089 1.387 . S
H1088 C1095 0.950 . S
C1089 C1087 1.387 . S
C1089 C1091 1.390 . S
C1089 H1093 0.950 . S
H1090 C1086 0.950 . S
C1091 C1089 1.390 . S
C1091 C1092 1.387 . S
C1091 H1094 0.950 . S
C1092 C1091 1.387 . S
C1092 C1095 1.387 . S
H1093 C1089 0.950 . S
H1094 C1091 0.950 . S
C1095 C1086 1.390 . S
C1095 H1088 0.950 . S
C1095 C1092 1.387 . S
C1096 C1097 1.387 . S
C1096 H1100 0.950 . S
C1096 C1105 1.390 . S
C1097 C1096 1.387 . S
C1097 C1099 1.387 . S
H1098 C1105 0.950 . S
C1099 C1097 1.387 . S
C1099 C1101 1.390 . S
C1099 H1103 0.950 . S
H1100 C1096 0.950 . S
C1101 C1099 1.390 . S
C1101 C1102 1.387 . S
C1101 H1104 0.950 . S
C1102 C1101 1.387 . S
C1102 C1105 1.387 . S
H1103 C1099 0.950 . S
H1104 C1101 0.950 . S
C1105 C1096 1.390 . S
C1105 H1098 0.950 . S
C1105 C1102 1.387 . S
C1106 C1107 1.387 . S
C1106 H1110 0.950 . S
C1106 C1115 1.390 . S
C1107 C1106 1.387 . S
C1107 C1109 1.387 . S
H1108 C1115 0.950 . S
C1109 C1107 1.387 . S
C1109 C1111 1.390 . S
C1109 H1113 0.950 . S
H1110 C1106 0.950 . S
C1111 C1109 1.390 . S
C1111 C1112 1.387 . S
C1111 H1114 0.950 . S
C1112 C1111 1.387 . S
C1112 C1115 1.387 . S
H1113 C1109 0.950 . S
H1114 C1111 0.950 . S
C1115 C1106 1.390 . S
C1115 H1108 0.950 . S
C1115 C1112 1.387 . S
C1116 C1117 1.387 . S
C1116 H1120 0.950 . S
C1116 C1125 1.390 . S
C1117 C1116 1.387 . S
C1117 C1119 1.387 . S
H1118 C1125 0.950 . S
C1119 C1117 1.387 . S
C1119 C1121 1.390 . S
C1119 H1123 0.950 . S
H1120 C1116 0.950 . S
C1121 C1119 1.390 . S
C1121 C1122 1.387 . S
C1121 H1124 0.950 1_554 S
C1122 C1121 1.387 . S
C1122 C1125 1.387 . S
H1123 C1119 0.950 . S
H1124 C1121 0.950 1_556 S
C1125 C1116 1.390 . S
C1125 H1118 0.950 . S
C1125 C1122 1.387 . S
C1126 C1127 1.387 . S
C1126 H1130 0.950 . S
C1126 C1135 1.390 . S
C1127 C1126 1.387 . S
C1127 C1129 1.387 . S
H1128 C1135 0.950 . S
C1129 C1127 1.387 . S
C1129 C1131 1.390 . S
C1129 H1133 0.950 . S
H1130 C1126 0.950 . S
C1131 C1129 1.390 . S
C1131 C1132 1.387 . S
C1131 H1134 0.950 . S
C1132 C1131 1.387 . S
C1132 C1135 1.387 . S
H1133 C1129 0.950 . S
H1134 C1131 0.950 . S
C1135 C1126 1.390 . S
C1135 H1128 0.950 . S
C1135 C1132 1.387 . S
C1136 C1137 1.387 . S
C1136 H1140 0.950 . S
C1136 C1145 1.390 . S
C1137 C1136 1.387 . S
C1137 C1139 1.387 . S
H1138 C1145 0.950 . S
C1139 C1137 1.387 . S
C1139 C1141 1.390 . S
C1139 H1143 0.950 . S
H1140 C1136 0.950 . S
C1141 C1139 1.390 . S
C1141 C1142 1.387 . S
C1141 H1144 0.950 1_554 S
C1142 C1141 1.387 . S
C1142 C1145 1.387 . S
H1143 C1139 0.950 . S
H1144 C1141 0.950 1_556 S
C1145 C1136 1.390 . S
C1145 H1138 0.950 . S
C1145 C1142 1.387 . S
C1146 C1147 1.387 . S
C1146 H1150 0.950 . S
C1146 C1155 1.390 . S
C1147 C1146 1.387 . S
C1147 C1149 1.387 . S
H1148 C1155 0.950 . S
C1149 C1147 1.387 . S
C1149 C1151 1.390 . S
C1149 H1153 0.950 . S
H1150 C1146 0.950 . S
C1151 C1149 1.390 . S
C1151 C1152 1.387 . S
C1151 H1154 0.950 . S
C1152 C1151 1.387 . S
C1152 C1155 1.387 . S
H1153 C1149 0.950 . S
H1154 C1151 0.950 . S
C1155 C1146 1.390 . S
C1155 H1148 0.950 . S
C1155 C1152 1.387 . S
C1156 C1157 1.387 . S
C1156 H1160 0.950 . S
C1156 C1165 1.390 . S
C1157 C1156 1.387 . S
C1157 C1159 1.387 . S
H1158 C1165 0.950 . S
C1159 C1157 1.387 . S
C1159 C1161 1.390 . S
C1159 H1163 0.950 . S
H1160 C1156 0.950 . S
C1161 C1159 1.390 . S
C1161 C1162 1.387 . S
C1161 H1164 0.950 . S
C1162 C1161 1.387 . S
C1162 C1165 1.387 . S
H1163 C1159 0.950 . S
H1164 C1161 0.950 . S
C1165 C1156 1.390 . S
C1165 H1158 0.950 . S
C1165 C1162 1.387 . S
C1166 C1167 1.387 . S
C1166 H1170 0.950 . S
C1166 C1175 1.390 . S
C1167 C1166 1.387 . S
C1167 C1169 1.387 . S
H1168 C1175 0.950 . S
C1169 C1167 1.387 . S
C1169 C1171 1.390 . S
C1169 H1173 0.950 . S
H1170 C1166 0.950 . S
C1171 C1169 1.390 . S
C1171 C1172 1.387 . S
C1171 H1174 0.950 . S
C1172 C1171 1.387 . S
C1172 C1175 1.387 . S
H1173 C1169 0.950 . S
H1174 C1171 0.950 . S
C1175 C1166 1.390 . S
C1175 H1168 0.950 . S
C1175 C1172 1.387 . S
C1176 C1177 1.387 . S
C1176 H1180 0.950 . S
C1176 C1185 1.390 . S
C1177 C1176 1.387 . S
C1177 C1179 1.387 . S
H1178 C1185 0.950 . S
C1179 C1177 1.387 . S
C1179 C1181 1.390 . S
C1179 H1183 0.950 . S
H1180 C1176 0.950 . S
C1181 C1179 1.390 . S
C1181 C1182 1.387 . S
C1181 H1184 0.950 . S
C1182 C1181 1.387 . S
C1182 C1185 1.387 . S
H1183 C1179 0.950 . S
H1184 C1181 0.950 . S
C1185 C1176 1.390 . S
C1185 H1178 0.950 . S
C1185 C1182 1.387 . S
C1186 C1187 1.387 . S
C1186 H1190 0.950 . S
C1186 C1195 1.390 . S
C1187 C1186 1.387 . S
C1187 C1189 1.387 . S
H1188 C1195 0.950 . S
C1189 C1187 1.387 . S
C1189 C1191 1.390 . S
C1189 H1193 0.950 . S
H1190 C1186 0.950 . S
C1191 C1189 1.390 . S
C1191 C1192 1.387 . S
C1191 H1194 0.950 . S
C1192 C1191 1.387 . S
C1192 C1195 1.387 . S
H1193 C1189 0.950 . S
H1194 C1191 0.950 . S
C1195 C1186 1.390 . S
C1195 H1188 0.950 . S
C1195 C1192 1.387 . S
C1196 C1197 1.387 . S
C1196 H1200 0.950 . S
C1196 C1205 1.390 . S
C1197 C1196 1.387 . S
C1197 C1199 1.387 . S
H1198 C1205 0.950 . S
C1199 C1197 1.387 . S
C1199 C1201 1.390 . S
C1199 H1203 0.950 . S
H1200 C1196 0.950 . S
C1201 C1199 1.390 . S
C1201 C1202 1.387 . S
C1201 H1204 0.950 . S
C1202 C1201 1.387 . S
C1202 C1205 1.387 . S
H1203 C1199 0.950 . S
H1204 C1201 0.950 . S
C1205 C1196 1.390 . S
C1205 H1198 0.950 . S
C1205 C1202 1.387 . S
C1206 C1207 1.387 . S
C1206 H1210 0.950 . S
C1206 C1215 1.390 . S
C1207 C1206 1.387 . S
C1207 C1209 1.387 . S
H1208 C1215 0.950 . S
C1209 C1207 1.387 . S
C1209 C1211 1.390 . S
C1209 H1213 0.950 . S
H1210 C1206 0.950 . S
C1211 C1209 1.390 . S
C1211 C1212 1.387 . S
C1211 H1214 0.950 . S
C1212 C1211 1.387 . S
C1212 C1215 1.387 . S
H1213 C1209 0.950 . S
H1214 C1211 0.950 . S
C1215 C1206 1.390 . S
C1215 H1208 0.950 . S
C1215 C1212 1.387 . S
C1216 C1217 1.387 . S
C1216 H1220 0.950 . S
C1216 C1225 1.390 . S
C1217 C1216 1.387 . S
C1217 C1219 1.387 . S
H1218 C1225 0.950 . S
C1219 C1217 1.387 . S
C1219 C1221 1.390 . S
C1219 H1223 0.950 . S
H1220 C1216 0.950 . S
C1221 C1219 1.390 . S
C1221 C1222 1.387 . S
C1221 H1224 0.950 . S
C1222 C1221 1.387 . S
C1222 C1225 1.387 . S
H1223 C1219 0.950 . S
H1224 C1221 0.950 . S
C1225 C1216 1.390 . S
C1225 H1218 0.950 . S
C1225 C1222 1.387 . S
C1226 C1227 1.387 . S
C1226 H1230 0.950 . S
C1226 C1235 1.390 . S
C1227 C1226 1.387 . S
C1227 C1229 1.387 . S
H1228 C1235 0.950 . S
C1229 C1227 1.387 . S
C1229 C1231 1.390 . S
C1229 H1233 0.950 . S
H1230 C1226 0.950 . S
C1231 C1229 1.390 . S
C1231 C1232 1.387 . S
C1231 H1234 0.950 . S
C1232 C1231 1.387 . S
C1232 C1235 1.387 . S
H1233 C1229 0.950 . S
H1234 C1231 0.950 . S
C1235 C1226 1.390 . S
C1235 H1228 0.950 . S
C1235 C1232 1.387 . S
C1236 C1237 1.387 . S
C1236 H1240 0.950 . S
C1236 C1245 1.390 1_554 S
C1237 C1236 1.387 . S
C1237 C1239 1.387 1_455 S
H1238 C1245 0.950 . S
C1239 C1237 1.387 1_655 S
C1239 C1241 1.390 1_554 S
C1239 H1243 0.950 . S
H1240 C1236 0.950 . S
C1241 C1239 1.390 1_556 S
C1241 C1242 1.387 . S
C1241 H1244 0.950 . S
C1242 C1241 1.387 . S
C1242 C1245 1.387 1_655 S
H1243 C1239 0.950 . S
H1244 C1241 0.950 . S
C1245 C1236 1.390 1_556 S
C1245 H1238 0.950 . S
C1245 C1242 1.387 1_455 S
C1246 C1247 1.387 . S
C1246 H1250 0.950 . S
C1246 C1255 1.390 1_554 S
C1247 C1246 1.387 . S
C1247 C1249 1.387 . S
H1248 C1255 0.950 . S
C1249 C1247 1.387 . S
C1249 C1251 1.390 1_554 S
C1249 H1253 0.950 . S
H1250 C1246 0.950 . S
C1251 C1249 1.390 1_556 S
C1251 C1252 1.387 . S
C1251 H1254 0.950 . S
C1252 C1251 1.387 . S
C1252 C1255 1.387 . S
H1253 C1249 0.950 . S
H1254 C1251 0.950 . S
C1255 C1246 1.390 1_556 S
C1255 H1248 0.950 . S
C1255 C1252 1.387 . S
C1256 C1257 1.387 . S
C1256 H1260 0.950 . S
C1256 C1265 1.390 1_554 S
C1257 C1256 1.387 . S
C1257 C1259 1.387 1_565 S
H1258 C1265 0.950 . S
C1259 C1257 1.387 1_545 S
C1259 C1261 1.390 1_554 S
C1259 H1263 0.950 . S
H1260 C1256 0.950 . S
C1261 C1259 1.390 1_556 S
C1261 C1262 1.387 . S
C1261 H1264 0.950 . S
C1262 C1261 1.387 . S
C1262 C1265 1.387 1_545 S
H1263 C1259 0.950 . S
H1264 C1261 0.950 . S
C1265 C1256 1.390 1_556 S
C1265 H1258 0.950 . S
C1265 C1262 1.387 1_565 S
C1266 C1267 1.387 1_545 S
C1266 H1270 0.950 . S
C1266 C1275 1.390 . S
C1267 C1266 1.387 1_565 S
C1267 C1269 1.387 . S
H1268 C1275 0.950 . S
C1269 C1267 1.387 . S
C1269 C1271 1.390 . S
C1269 H1273 0.950 . S
H1270 C1266 0.950 . S
C1271 C1269 1.390 . S
C1271 C1272 1.387 1_565 S
C1271 H1274 0.950 . S
C1272 C1271 1.387 1_545 S
C1272 C1275 1.387 . S
H1273 C1269 0.950 . S
H1274 C1271 0.950 . S
C1275 C1266 1.390 . S
C1275 H1268 0.950 . S
C1275 C1272 1.387 . S
C1276 C1277 1.387 . S
C1276 H1280 0.950 . S
C1276 C1285 1.390 1_655 S
C1277 C1276 1.387 . S
C1277 C1279 1.387 . S
H1278 C1285 0.950 . S
C1279 C1277 1.387 . S
C1279 C1281 1.390 1_655 S
C1279 H1283 0.950 . S
H1280 C1276 0.950 . S
C1281 C1279 1.390 1_455 S
C1281 C1282 1.387 . S
C1281 H1284 0.950 . S
C1282 C1281 1.387 . S
C1282 C1285 1.387 . S
H1283 C1279 0.950 . S
H1284 C1281 0.950 . S
C1285 C1276 1.390 1_455 S
C1285 H1278 0.950 . S
C1285 C1282 1.387 . S
C1286 C1287 1.387 . S
C1286 H1290 0.950 . S
C1286 C1295 1.390 . S
C1287 C1286 1.387 . S
C1287 C1289 1.387 . S
H1288 C1295 0.950 . S
C1289 C1287 1.387 . S
C1289 C1291 1.390 . S
C1289 H1293 0.950 . S
H1290 C1286 0.950 . S
C1291 C1289 1.390 . S
C1291 C1292 1.387 . S
C1291 H1294 0.950 . S
C1292 C1291 1.387 . S
C1292 C1295 1.387 . S
H1293 C1289 0.950 . S
H1294 C1291 0.950 . S
C1295 C1286 1.390 . S
C1295 H1288 0.950 . S
C1295 C1292 1.387 . S
C1057 C49 0.541 . S
C1062 C636 0.590 . S
C1067 C145 0.546 . S
C1072 C753 0.598 . S
C1077 C233 0.547 . S
C1082 C577 0.610 . S
C1087 C997 0.607 . S
C1092 C284 0.547 . S
C1097 C372 0.547 . S
C1102 C849 0.598 . S
C1107 C900 0.591 . S
C1112 C469 0.542 . S
C1117 C137 0.597 . S
C1122 C548 0.552 . S
C1127 C673 0.525 . S
C1132 C225 0.586 . S
C1137 C57 0.591 . S
C1142 C733 0.537 . S
C1147 C812 0.535 . S
C1152 C460 0.593 . S
C1157 C937 0.520 . S
C1162 C293 0.577 . S
C1167 C381 0.587 . S
C1172 C1025 0.545 . S
C1177 C489 2.805 . S
C1182 C29 2.805 . S
C1187 C108 2.796 . S
C1192 C321 2.797 . S
C1197 C196 2.796 . S
C1202 C409 2.795 . S
C1207 C585 2.811 . S
C1212 C988 2.811 . S
C1217 C665 2.782 . S
C1222 C821 2.783 . S
C1227 C724 2.783 . S
C1232 C929 2.782 . S
C1237 C20 1.981 . S
C1242 C557 1.993 . S
C1247 C117 1.974 . S
C1252 C645 1.963 . S
C1257 C205 1.974 . S
C1262 C761 1.963 . S
C1267 C313 1.972 . S
C1272 C841 1.961 . S
C1277 C909 1.965 . S
C1282 C401 1.976 . S
C1287 C497 1.980 . S
C1292 C1017 1.993 . S
