# Generated by pormake.
# Topology uns, (4)-cn, num edge types: 1
# Building blocks:
#     Node 0, Type 0, BuildingBlock: CEKHIL_clean_sbu_0, # of connection points: 4
#     Node 1, Type 0, BuildingBlock: CEKHIL_clean_sbu_0, # of connection points: 4
#     Node 2, Type 0, BuildingBlock: CEKHIL_clean_sbu_0, # of connection points: 4
#     Node 3, Type 0, BuildingBlock: CEKHIL_clean_sbu_0, # of connection points: 4
#     Node 4, Type 0, BuildingBlock: CEKHIL_clean_sbu_0, # of connection points: 4
#     Node 5, Type 0, BuildingBlock: CEKHIL_clean_sbu_0, # of connection points: 4
#     Node 6, Type 0, BuildingBlock: CEKHIL_clean_sbu_0, # of connection points: 4
#     Node 7, Type 0, BuildingBlock: CEKHIL_clean_sbu_0, # of connection points: 4
#     Node 8, Type 0, BuildingBlock: CEKHIL_clean_sbu_0, # of connection points: 4
#     Node 9, Type 0, BuildingBlock: CEKHIL_clean_sbu_0, # of connection points: 4
#     Node 10, Type 0, BuildingBlock: CEKHIL_clean_sbu_0, # of connection points: 4
#     Node 11, Type 0, BuildingBlock: CEKHIL_clean_sbu_0, # of connection points: 4
#     Node 12, Type 0, BuildingBlock: CEKHIL_clean_sbu_0, # of connection points: 4
#     Node 13, Type 0, BuildingBlock: CEKHIL_clean_sbu_0, # of connection points: 4
#     Node 14, Type 0, BuildingBlock: CEKHIL_clean_sbu_0, # of connection points: 4
#     Node 15, Type 0, BuildingBlock: CEKHIL_clean_sbu_0, # of connection points: 4
#     Node 16, Type 0, BuildingBlock: CEKHIL_clean_sbu_0, # of connection points: 4
#     Node 17, Type 0, BuildingBlock: CEKHIL_clean_sbu_0, # of connection points: 4
#     Node 18, Type 0, BuildingBlock: CEKHIL_clean_sbu_0, # of connection points: 4
#     Node 19, Type 0, BuildingBlock: CEKHIL_clean_sbu_0, # of connection points: 4
#     Node 20, Type 0, BuildingBlock: CEKHIL_clean_sbu_0, # of connection points: 4
#     Node 21, Type 0, BuildingBlock: CEKHIL_clean_sbu_0, # of connection points: 4
#     Node 22, Type 0, BuildingBlock: CEKHIL_clean_sbu_0, # of connection points: 4
#     Node 23, Type 0, BuildingBlock: CEKHIL_clean_sbu_0, # of connection points: 4
#     Node 24, Type 0, BuildingBlock: CEKHIL_clean_sbu_0, # of connection points: 4
#     Node 25, Type 0, BuildingBlock: CEKHIL_clean_sbu_0, # of connection points: 4
#     Node 26, Type 0, BuildingBlock: CEKHIL_clean_sbu_0, # of connection points: 4
#     Node 27, Type 0, BuildingBlock: CEKHIL_clean_sbu_0, # of connection points: 4
#     Node 28, Type 0, BuildingBlock: CEKHIL_clean_sbu_0, # of connection points: 4
#     Node 29, Type 0, BuildingBlock: CEKHIL_clean_sbu_0, # of connection points: 4
#     Node 30, Type 0, BuildingBlock: CEKHIL_clean_sbu_0, # of connection points: 4
#     Node 31, Type 0, BuildingBlock: CEKHIL_clean_sbu_0, # of connection points: 4
#     Node 32, Type 0, BuildingBlock: CEKHIL_clean_sbu_0, # of connection points: 4
#     Node 33, Type 0, BuildingBlock: CEKHIL_clean_sbu_0, # of connection points: 4
#     Node 34, Type 0, BuildingBlock: CEKHIL_clean_sbu_0, # of connection points: 4
#     Node 35, Type 0, BuildingBlock: CEKHIL_clean_sbu_0, # of connection points: 4
#     Edge 36, Type (0, 0), BuildingBlock: CIFDUS_clean_linker_0, # of connection points: 2
#     Edge 37, Type (0, 0), BuildingBlock: CIFDUS_clean_linker_0, # of connection points: 2
#     Edge 38, Type (0, 0), BuildingBlock: CIFDUS_clean_linker_0, # of connection points: 2
#     Edge 39, Type (0, 0), BuildingBlock: CIFDUS_clean_linker_0, # of connection points: 2
#     Edge 40, Type (0, 0), BuildingBlock: CIFDUS_clean_linker_0, # of connection points: 2
#     Edge 41, Type (0, 0), BuildingBlock: CIFDUS_clean_linker_0, # of connection points: 2
#     Edge 42, Type (0, 0), BuildingBlock: CIFDUS_clean_linker_0, # of connection points: 2
#     Edge 43, Type (0, 0), BuildingBlock: CIFDUS_clean_linker_0, # of connection points: 2
#     Edge 44, Type (0, 0), BuildingBlock: CIFDUS_clean_linker_0, # of connection points: 2
#     Edge 45, Type (0, 0), BuildingBlock: CIFDUS_clean_linker_0, # of connection points: 2
#     Edge 46, Type (0, 0), BuildingBlock: CIFDUS_clean_linker_0, # of connection points: 2
#     Edge 47, Type (0, 0), BuildingBlock: CIFDUS_clean_linker_0, # of connection points: 2
#     Edge 48, Type (0, 0), BuildingBlock: CIFDUS_clean_linker_0, # of connection points: 2
#     Edge 49, Type (0, 0), BuildingBlock: CIFDUS_clean_linker_0, # of connection points: 2
#     Edge 50, Type (0, 0), BuildingBlock: CIFDUS_clean_linker_0, # of connection points: 2
#     Edge 51, Type (0, 0), BuildingBlock: CIFDUS_clean_linker_0, # of connection points: 2
#     Edge 52, Type (0, 0), BuildingBlock: CIFDUS_clean_linker_0, # of connection points: 2
#     Edge 53, Type (0, 0), BuildingBlock: CIFDUS_clean_linker_0, # of connection points: 2
#     Edge 54, Type (0, 0), BuildingBlock: CIFDUS_clean_linker_0, # of connection points: 2
#     Edge 55, Type (0, 0), BuildingBlock: CIFDUS_clean_linker_0, # of connection points: 2
#     Edge 56, Type (0, 0), BuildingBlock: CIFDUS_clean_linker_0, # of connection points: 2
#     Edge 57, Type (0, 0), BuildingBlock: CIFDUS_clean_linker_0, # of connection points: 2
#     Edge 58, Type (0, 0), BuildingBlock: CIFDUS_clean_linker_0, # of connection points: 2
#     Edge 59, Type (0, 0), BuildingBlock: CIFDUS_clean_linker_0, # of connection points: 2
#     Edge 60, Type (0, 0), BuildingBlock: CIFDUS_clean_linker_0, # of connection points: 2
#     Edge 61, Type (0, 0), BuildingBlock: CIFDUS_clean_linker_0, # of connection points: 2
#     Edge 62, Type (0, 0), BuildingBlock: CIFDUS_clean_linker_0, # of connection points: 2
#     Edge 63, Type (0, 0), BuildingBlock: CIFDUS_clean_linker_0, # of connection points: 2
#     Edge 64, Type (0, 0), BuildingBlock: CIFDUS_clean_linker_0, # of connection points: 2
#     Edge 65, Type (0, 0), BuildingBlock: CIFDUS_clean_linker_0, # of connection points: 2
#     Edge 66, Type (0, 0), BuildingBlock: CIFDUS_clean_linker_0, # of connection points: 2
#     Edge 67, Type (0, 0), BuildingBlock: CIFDUS_clean_linker_0, # of connection points: 2
#     Edge 68, Type (0, 0), BuildingBlock: CIFDUS_clean_linker_0, # of connection points: 2
#     Edge 69, Type (0, 0), BuildingBlock: CIFDUS_clean_linker_0, # of connection points: 2
#     Edge 70, Type (0, 0), BuildingBlock: CIFDUS_clean_linker_0, # of connection points: 2
#     Edge 71, Type (0, 0), BuildingBlock: CIFDUS_clean_linker_0, # of connection points: 2
#     Edge 72, Type (0, 0), BuildingBlock: CIFDUS_clean_linker_0, # of connection points: 2
#     Edge 73, Type (0, 0), BuildingBlock: CIFDUS_clean_linker_0, # of connection points: 2
#     Edge 74, Type (0, 0), BuildingBlock: CIFDUS_clean_linker_0, # of connection points: 2
#     Edge 75, Type (0, 0), BuildingBlock: CIFDUS_clean_linker_0, # of connection points: 2
#     Edge 76, Type (0, 0), BuildingBlock: CIFDUS_clean_linker_0, # of connection points: 2
#     Edge 77, Type (0, 0), BuildingBlock: CIFDUS_clean_linker_0, # of connection points: 2
#     Edge 78, Type (0, 0), BuildingBlock: CIFDUS_clean_linker_0, # of connection points: 2
#     Edge 79, Type (0, 0), BuildingBlock: CIFDUS_clean_linker_0, # of connection points: 2
#     Edge 80, Type (0, 0), BuildingBlock: CIFDUS_clean_linker_0, # of connection points: 2
#     Edge 81, Type (0, 0), BuildingBlock: CIFDUS_clean_linker_0, # of connection points: 2
#     Edge 82, Type (0, 0), BuildingBlock: CIFDUS_clean_linker_0, # of connection points: 2
#     Edge 83, Type (0, 0), BuildingBlock: CIFDUS_clean_linker_0, # of connection points: 2
#     Edge 84, Type (0, 0), BuildingBlock: CIFDUS_clean_linker_0, # of connection points: 2
#     Edge 85, Type (0, 0), BuildingBlock: CIFDUS_clean_linker_0, # of connection points: 2
#     Edge 86, Type (0, 0), BuildingBlock: CIFDUS_clean_linker_0, # of connection points: 2
#     Edge 87, Type (0, 0), BuildingBlock: CIFDUS_clean_linker_0, # of connection points: 2
#     Edge 88, Type (0, 0), BuildingBlock: CIFDUS_clean_linker_0, # of connection points: 2
#     Edge 89, Type (0, 0), BuildingBlock: CIFDUS_clean_linker_0, # of connection points: 2
#     Edge 90, Type (0, 0), BuildingBlock: CIFDUS_clean_linker_0, # of connection points: 2
#     Edge 91, Type (0, 0), BuildingBlock: CIFDUS_clean_linker_0, # of connection points: 2
#     Edge 92, Type (0, 0), BuildingBlock: CIFDUS_clean_linker_0, # of connection points: 2
#     Edge 93, Type (0, 0), BuildingBlock: CIFDUS_clean_linker_0, # of connection points: 2
#     Edge 94, Type (0, 0), BuildingBlock: CIFDUS_clean_linker_0, # of connection points: 2
#     Edge 95, Type (0, 0), BuildingBlock: CIFDUS_clean_linker_0, # of connection points: 2
#     Edge 96, Type (0, 0), BuildingBlock: CIFDUS_clean_linker_0, # of connection points: 2
#     Edge 97, Type (0, 0), BuildingBlock: CIFDUS_clean_linker_0, # of connection points: 2
#     Edge 98, Type (0, 0), BuildingBlock: CIFDUS_clean_linker_0, # of connection points: 2
#     Edge 99, Type (0, 0), BuildingBlock: CIFDUS_clean_linker_0, # of connection points: 2
#     Edge 100, Type (0, 0), BuildingBlock: CIFDUS_clean_linker_0, # of connection points: 2
#     Edge 101, Type (0, 0), BuildingBlock: CIFDUS_clean_linker_0, # of connection points: 2
#     Edge 102, Type (0, 0), BuildingBlock: CIFDUS_clean_linker_0, # of connection points: 2
#     Edge 103, Type (0, 0), BuildingBlock: CIFDUS_clean_linker_0, # of connection points: 2
#     Edge 104, Type (0, 0), BuildingBlock: CIFDUS_clean_linker_0, # of connection points: 2
#     Edge 105, Type (0, 0), BuildingBlock: CIFDUS_clean_linker_0, # of connection points: 2
#     Edge 106, Type (0, 0), BuildingBlock: CIFDUS_clean_linker_0, # of connection points: 2
#     Edge 107, Type (0, 0), BuildingBlock: CIFDUS_clean_linker_0, # of connection points: 2
# Relax obj value: 0.114
# Max RMSD: 0.263
# Mean RMSD: 0.246
data_MOF--net-uns--node1-CEKHIL_clean_sbu_0--edge1-CIFDUS_clean_linker_0
_symmetry_space_group_name_H-M    P1
_symmetry_Int_Tables_number       1
_symmetry_cell_setting            triclinic
loop_
_symmetry_equiv_pos_as_xyz
'x, y, z'
_cell_length_a     48.206148
_cell_length_b     47.351449
_cell_length_c     48.628261
_cell_angle_alpha  91.511202
_cell_angle_beta   89.976722
_cell_angle_gamma 120.73165
loop_
_atom_site_label
_atom_site_type_symbol
_atom_site_fract_x
_atom_site_fract_y
_atom_site_fract_z
_atom_type_partial_charge
Co0 Co 0.27647 0.18987 0.06021 0.0
O1 O 0.2956 0.17192 0.08308 0.0
O2 O 0.27488 0.20174 0.09835 0.0
C3 C 0.24629 0.14478 0.03366 0.0
O4 O 0.25413 0.21172 0.04244 0.0
Co5 Co 0.29525 0.2003 0.99993 0.0
O6 O 0.26427 0.21598 0.99713 0.0
C7 C 0.34296 0.24214 0.041 0.0
C8 C 0.29051 0.18671 0.10357 0.0
C9 C 0.25057 0.21973 0.01814 0.0
O10 O 0.31977 0.2303 0.05799 0.0
O11 O 0.33942 0.23249 0.01578 0.0
O12 O 0.23633 0.14872 0.05751 0.0
O13 O 0.27587 0.16656 0.0278 0.0
Co14 Co 0.8393 0.09614 0.07083 0.0
O15 O 0.8836 0.11471 0.0611 0.0
O16 O 0.84406 0.10275 0.0313 0.0
C17 C 0.84685 0.12991 0.10692 0.0
O18 O 0.79106 0.07846 0.07474 0.0
Co19 Co 0.81767 0.063 0.1275 0.0
O20 O 0.78042 0.06864 0.11974 0.0
C21 C 0.82253 0.0253 0.08064 0.0
C22 C 0.8748 0.11519 0.03604 0.0
C23 C 0.77241 0.07208 0.09561 0.0
O24 O 0.83078 0.05 0.06525 0.0
O25 O 0.81818 0.02616 0.10656 0.0
O26 O 0.84718 0.13928 0.08203 0.0
O27 O 0.84708 0.10283 0.10896 0.0
Co28 Co 0.89834 0.72323 0.05952 0.0
O29 O 0.88108 0.74945 0.04713 0.0
O30 O 0.88598 0.7133 0.02089 0.0
C31 C 0.87019 0.70497 0.09842 0.0
O32 O 0.91441 0.69146 0.06626 0.0
Co33 Co 0.94027 0.74555 0.11252 0.0
O34 O 0.93079 0.6997 0.11055 0.0
C35 C 0.97033 0.77709 0.06105 0.0
C36 C 0.8771 0.735 0.02323 0.0
C37 C 0.92338 0.68295 0.08802 0.0
O38 O 0.94291 0.75868 0.04898 0.0
O39 O 0.97482 0.77652 0.08692 0.0
O40 O 0.85734 0.69152 0.07467 0.0
O41 O 0.89774 0.7324 0.09757 0.0
Co42 Co 0.17291 0.26774 0.44456 0.0
O43 O 0.1283 0.23805 0.45206 0.0
O44 O 0.16383 0.27273 0.48302 0.0
C45 C 0.1664 0.28805 0.40542 0.0
O46 O 0.22126 0.3022 0.44229 0.0
Co47 Co 0.20011 0.25087 0.39333 0.0
O48 O 0.23404 0.29755 0.39852 0.0
C49 C 0.19477 0.21677 0.44404 0.0
C50 C 0.13429 0.24952 0.47716 0.0
C51 C 0.24078 0.31285 0.42175 0.0
O52 O 0.18321 0.2333 0.45531 0.0
O53 O 0.20276 0.21927 0.41873 0.0
O54 O 0.1633 0.2991 0.42921 0.0
O55 O 0.16815 0.26157 0.40596 0.0
Co56 Co 0.74156 0.90568 0.43072 0.0
O57 O 0.77076 0.89126 0.44033 0.0
O58 O 0.73969 0.89805 0.47001 0.0
C59 C 0.71785 0.87178 0.3939 0.0
O60 O 0.70786 0.9193 0.4271 0.0
Co61 Co 0.75094 0.93954 0.37471 0.0
O62 O 0.70665 0.9301 0.38243 0.0
C63 C 0.79202 0.97837 0.42215 0.0
C64 C 0.76098 0.88937 0.4654 0.0
C65 C 0.6949 0.92525 0.40652 0.0
O66 O 0.77649 0.95317 0.43727 0.0
O67 O 0.78694 0.97742 0.3962 0.0
O68 O 0.70902 0.86142 0.41861 0.0
O69 O 0.74377 0.90038 0.39246 0.0
Co70 Co 0.09891 0.80864 0.44595 0.0
O71 O 0.14018 0.8263 0.42918 0.0
O72 O 0.09347 0.79863 0.4066 0.0
C73 C 0.11006 0.85274 0.47245 0.0
O74 O 0.05165 0.78768 0.45717 0.0
Co75 Co 0.09569 0.7947 0.50699 0.0
O76 O 0.04951 0.78085 0.50294 0.0
C77 C 0.10341 0.75149 0.46917 0.0
C78 C 0.12484 0.81276 0.40625 0.0
C79 C 0.03602 0.77884 0.47987 0.0
O80 O 0.09844 0.76683 0.45045 0.0
O81 O 0.10509 0.75942 0.49469 0.0
O82 O 0.10162 0.85056 0.44674 0.0
O83 O 0.11561 0.83009 0.48053 0.0
Co84 Co 0.73277 0.82278 0.93218 0.0
O85 O 0.70358 0.83515 0.91777 0.0
O86 O 0.75325 0.85382 0.90308 0.0
C87 C 0.6972 0.76857 0.93017 0.0
O88 O 0.7688 0.81371 0.9423 0.0
Co89 Co 0.71808 0.78882 0.98804 0.0
O90 O 0.74738 0.77427 0.97368 0.0
C91 C 0.74868 0.86096 0.98725 0.0
C92 C 0.72571 0.85254 0.90033 0.0
C93 C 0.76918 0.79123 0.9565 0.0
O94 O 0.74905 0.85928 0.96084 0.0
O95 O 0.73613 0.8355 0.00212 0.0
O96 O 0.71311 0.78375 0.90864 0.0
O97 O 0.70083 0.78705 0.95165 0.0
Co98 Co 0.17097 0.92079 0.9494 0.0
O99 O 0.12595 0.9007 0.95772 0.0
O100 O 0.15787 0.88362 0.97307 0.0
C101 C 0.18352 0.97285 0.95882 0.0
O102 O 0.21903 0.93674 0.94534 0.0
Co103 Co 0.19698 0.96884 0.90036 0.0
O104 O 0.23845 0.97268 0.91083 0.0
C105 C 0.16204 0.89715 0.8893 0.0
C106 C 0.12948 0.88069 0.97295 0.0
C107 C 0.24203 0.95638 0.92953 0.0
O108 O 0.16095 0.89183 0.91522 0.0
O109 O 0.17224 0.92571 0.87975 0.0
O110 O 0.18138 0.95389 0.97846 0.0
O111 O 0.17455 0.9589 0.93472 0.0
Co112 Co 0.08559 0.2648 0.93871 0.0
O113 O 0.10648 0.24187 0.95037 0.0
O114 O 0.12917 0.29608 0.95205 0.0
C115 C 0.03862 0.23345 0.96045 0.0
O116 O 0.06951 0.29593 0.92941 0.0
Co117 Co 0.02669 0.22637 0.8996 0.0
O118 O 0.02399 0.26653 0.90376 0.0
C119 C 0.09129 0.25869 0.87607 0.0
C120 C 0.13123 0.27028 0.95692 0.0
C121 C 0.04506 0.29308 0.91602 0.0
O122 O 0.10297 0.2689 0.90043 0.0
O123 O 0.06112 0.23923 0.87124 0.0
O124 O 0.06373 0.25691 0.97334 0.0
O125 O 0.04388 0.22641 0.93573 0.0
Co126 Co 0.82895 0.74381 0.55464 0.0
O127 O 0.87287 0.76395 0.54304 0.0
O128 O 0.83623 0.71135 0.5358 0.0
C129 C 0.82066 0.78354 0.5393 0.0
O130 O 0.78077 0.71551 0.56298 0.0
Co131 Co 0.81293 0.78003 0.59986 0.0
O132 O 0.76817 0.7435 0.5938 0.0
C133 C 0.83935 0.739 0.61618 0.0
C134 C 0.86568 0.73554 0.53267 0.0
C135 C 0.76042 0.71835 0.57834 0.0
O136 O 0.84009 0.73157 0.59071 0.0
O137 O 0.83113 0.75963 0.62413 0.0
O138 O 0.81833 0.76043 0.52282 0.0
O139 O 0.83159 0.78436 0.56381 0.0
Co140 Co 0.24821 0.07495 0.56094 0.0
O141 O 0.2245 0.09629 0.55274 0.0
O142 O 0.27328 0.11199 0.53737 0.0
C143 C 0.20756 0.02335 0.55124 0.0
O144 O 0.27895 0.05738 0.56454 0.0
Co145 Co 0.22489 0.02651 0.60972 0.0
O146 O 0.26089 0.02039 0.59828 0.0
C147 C 0.26279 0.09808 0.6212 0.0
C148 C 0.2483 0.11571 0.53736 0.0
C149 C 0.28101 0.03645 0.57961 0.0
O150 O 0.26781 0.10356 0.59534 0.0
O151 O 0.24365 0.06954 0.63051 0.0
O152 O 0.22476 0.04232 0.53173 0.0
O153 O 0.21288 0.03714 0.57545 0.0
Co154 Co 0.9085 0.18276 0.57052 0.0
O155 O 0.86669 0.16959 0.58496 0.0
O156 O 0.89905 0.15326 0.60071 0.0
C157 C 0.9254 0.23657 0.5712 0.0
O158 O 0.95449 0.19371 0.56082 0.0
Co159 Co 0.92637 0.21497 0.51382 0.0
O160 O 0.97071 0.2315 0.52803 0.0
C161 C 0.88562 0.14278 0.51614 0.0
C162 C 0.87251 0.15402 0.6034 0.0
C163 C 0.97672 0.21639 0.54618 0.0
O164 O 0.8888 0.14508 0.54254 0.0
O165 O 0.89744 0.16792 0.50092 0.0
O166 O 0.92689 0.22251 0.59315 0.0
O167 O 0.91085 0.21715 0.55009 0.0
Co168 Co 0.97324 0.53472 0.38187 0.0
O169 O 0.99784 0.51779 0.39778 0.0
O170 O 0.96844 0.53305 0.42174 0.0
C171 C 0.95141 0.49763 0.34709 0.0
O172 O 0.9437 0.55219 0.37095 0.0
Co173 Co 0.99452 0.56527 0.32576 0.0
O174 O 0.95577 0.56966 0.32753 0.0
C175 C 0.03462 0.60083 0.37314 0.0
C176 C 0.98881 0.52261 0.42163 0.0
C177 C 0.93866 0.56379 0.34896 0.0
O178 O 0.01119 0.57998 0.38746 0.0
O179 O 0.0345 0.59852 0.34689 0.0
O180 O 0.93869 0.49129 0.37136 0.0
O181 O 0.97924 0.52446 0.34536 0.0
Co182 Co 0.49477 0.4234 0.3949 0.0
O183 O 0.53873 0.43668 0.38784 0.0
O184 O 0.50281 0.42693 0.35527 0.0
C185 C 0.50452 0.46189 0.42763 0.0
O186 O 0.44707 0.41015 0.39665 0.0
Co187 Co 0.4699 0.39559 0.45251 0.0
O188 O 0.43569 0.40471 0.44185 0.0
C189 C 0.47093 0.35153 0.40949 0.0
C190 C 0.53261 0.43646 0.36194 0.0
C191 C 0.42834 0.40656 0.41704 0.0
O192 O 0.48193 0.37562 0.39301 0.0
O193 O 0.466 0.3546 0.43499 0.0
O194 O 0.50666 0.46852 0.40178 0.0
O195 O 0.50146 0.43371 0.43299 0.0
Co196 Co 0.57251 0.05751 0.37938 0.0
O197 O 0.55418 0.08356 0.36931 0.0
O198 O 0.56019 0.04987 0.34072 0.0
C199 C 0.54413 0.03637 0.41781 0.0
O200 O 0.58954 0.02615 0.38316 0.0
Co201 Co 0.61412 0.0759 0.43207 0.0
O202 O 0.60506 0.03033 0.42734 0.0
C203 C 0.644 0.11248 0.38237 0.0
C204 C 0.55032 0.07059 0.34477 0.0
C205 C 0.59822 0.01573 0.40381 0.0
O206 O 0.61673 0.09459 0.36988 0.0
O207 O 0.64847 0.10971 0.40786 0.0
O208 O 0.53184 0.02406 0.39366 0.0
O209 O 0.57156 0.06401 0.41796 0.0
Co210 Co 0.85 0.61541 0.78016 0.0
O211 O 0.80686 0.58741 0.79287 0.0
O212 O 0.84831 0.62109 0.81985 0.0
C213 C 0.83719 0.63698 0.74516 0.0
O214 O 0.89775 0.64824 0.77296 0.0
Co215 Co 0.86692 0.59919 0.72299 0.0
O216 O 0.90527 0.64369 0.72774 0.0
C217 C 0.86792 0.56225 0.77022 0.0
C218 C 0.81754 0.59975 0.81729 0.0
C219 C 0.91528 0.65808 0.7512 0.0
O220 O 0.86003 0.57954 0.78545 0.0
O221 O 0.8707 0.56509 0.74409 0.0
O222 O 0.83971 0.64814 0.77018 0.0
O223 O 0.83823 0.61016 0.74232 0.0
Co224 Co 0.39481 0.2332 0.78854 0.0
O225 O 0.4201 0.21413 0.79817 0.0
O226 O 0.3947 0.22843 0.82834 0.0
C227 C 0.36647 0.19777 0.75378 0.0
O228 O 0.36514 0.25213 0.78444 0.0
Co229 Co 0.40618 0.26459 0.73146 0.0
O230 O 0.36369 0.25981 0.73907 0.0
C231 C 0.44978 0.30353 0.77734 0.0
C232 C 0.41254 0.21553 0.82348 0.0
C233 C 0.3529 0.25811 0.76328 0.0
O234 O 0.43357 0.27886 0.79277 0.0
O235 O 0.44366 0.30271 0.75161 0.0
O236 O 0.3585 0.19016 0.77916 0.0
O237 O 0.39407 0.22442 0.75039 0.0
Co238 Co 0.76029 0.14159 0.78021 0.0
O239 O 0.79734 0.16282 0.75741 0.0
O240 O 0.74686 0.13987 0.74216 0.0
C241 C 0.77869 0.1798 0.8146 0.0
O242 O 0.71625 0.11788 0.79889 0.0
Co243 Co 0.76918 0.11494 0.8333 0.0
O244 O 0.72336 0.10107 0.83978 0.0
C245 C 0.769 0.08205 0.78259 0.0
C246 C 0.7775 0.15357 0.73664 0.0
C247 C 0.70551 0.1039 0.82208 0.0
O248 O 0.75881 0.0994 0.7718 0.0
O249 O 0.77717 0.08533 0.80799 0.0
O250 O 0.765 0.18277 0.79272 0.0
O251 O 0.78456 0.15587 0.81359 0.0
Co252 Co 0.39472 0.14975 0.26181 0.0
O253 O 0.36447 0.16035 0.24705 0.0
O254 O 0.41541 0.18303 0.23438 0.0
C255 C 0.3619 0.09505 0.25677 0.0
O256 O 0.43215 0.14326 0.27243 0.0
Co257 Co 0.37973 0.11426 0.31602 0.0
O258 O 0.4116 0.10265 0.30267 0.0
C259 C 0.40571 0.18541 0.31807 0.0
C260 C 0.38717 0.17995 0.23091 0.0
C261 C 0.43354 0.12108 0.28615 0.0
O262 O 0.40739 0.18446 0.29173 0.0
O263 O 0.39392 0.15949 0.33232 0.0
O264 O 0.3789 0.1126 0.23658 0.0
O265 O 0.36264 0.11128 0.27906 0.0
Co266 Co 0.83923 0.26937 0.26967 0.0
O267 O 0.79619 0.25037 0.28328 0.0
O268 O 0.82893 0.23196 0.29249 0.0
C269 C 0.85442 0.32186 0.28032 0.0
O270 O 0.88569 0.28416 0.2589 0.0
Co271 Co 0.85621 0.31601 0.22015 0.0
O272 O 0.89883 0.31969 0.22438 0.0
C273 C 0.82027 0.24444 0.21009 0.0
C274 C 0.80096 0.22951 0.29596 0.0
C275 C 0.90555 0.3034 0.24083 0.0
O276 O 0.82333 0.23993 0.23562 0.0
O277 O 0.82858 0.27258 0.20054 0.0
O278 O 0.85543 0.30323 0.29886 0.0
O279 O 0.84076 0.3074 0.25724 0.0
Co280 Co 0.75178 0.58293 0.27701 0.0
O281 O 0.77576 0.56207 0.28639 0.0
O282 O 0.79356 0.61499 0.29335 0.0
C283 C 0.70455 0.54445 0.2953 0.0
O284 O 0.73251 0.61217 0.2709 0.0
Co285 Co 0.69482 0.54642 0.23528 0.0
O286 O 0.6897 0.58488 0.24189 0.0
C287 C 0.76093 0.58358 0.21451 0.0
C288 C 0.7984 0.59049 0.29573 0.0
C289 C 0.70878 0.61001 0.25679 0.0
O290 O 0.77149 0.59367 0.23922 0.0
O291 O 0.73141 0.56221 0.20884 0.0
O292 O 0.72731 0.56747 0.31062 0.0
O293 O 0.71227 0.543 0.27003 0.0
Co294 Co 0.4984 0.07872 0.9009 0.0
O295 O 0.54254 0.10666 0.89063 0.0
O296 O 0.51384 0.05336 0.88058 0.0
C297 C 0.47998 0.11144 0.88695 0.0
O298 O 0.4512 0.04353 0.90738 0.0
Co299 Co 0.47361 0.10583 0.94769 0.0
O300 O 0.43195 0.06597 0.93788 0.0
C301 C 0.5084 0.07221 0.96252 0.0
C302 C 0.5409 0.08121 0.8785 0.0
C303 C 0.42819 0.04256 0.92177 0.0
O304 O 0.51152 0.06754 0.93678 0.0
O305 O 0.496 0.08907 0.97112 0.0
O306 O 0.48394 0.0926 0.8696 0.0
O307 O 0.49197 0.11388 0.91134 0.0
Co308 Co 0.90564 0.41041 0.88959 0.0
O309 O 0.87973 0.43007 0.88474 0.0
O310 O 0.9277 0.44832 0.86623 0.0
C311 C 0.86613 0.35803 0.88024 0.0
O312 O 0.93838 0.39517 0.89023 0.0
Co313 Co 0.88729 0.36196 0.9378 0.0
O314 O 0.92438 0.35889 0.92429 0.0
C315 C 0.9242 0.43338 0.94974 0.0
C316 C 0.90226 0.451 0.86916 0.0
C317 C 0.94288 0.37552 0.90491 0.0
O318 O 0.9268 0.43893 0.92381 0.0
O319 O 0.90668 0.40464 0.95931 0.0
O320 O 0.88141 0.37772 0.86051 0.0
O321 O 0.87216 0.37146 0.90463 0.0
Co322 Co 0.58097 0.52138 0.89534 0.0
O323 O 0.53936 0.51094 0.90863 0.0
O324 O 0.5672 0.48904 0.9238 0.0
C325 C 0.60205 0.57604 0.89862 0.0
O326 O 0.62565 0.52812 0.88667 0.0
Co327 Co 0.60555 0.5584 0.841 0.0
O328 O 0.64796 0.56892 0.85651 0.0
C329 C 0.55859 0.48687 0.83884 0.0
C330 C 0.54206 0.49237 0.92616 0.0
C331 C 0.65019 0.5502 0.87358 0.0
O332 O 0.56035 0.48625 0.86524 0.0
O333 O 0.57312 0.51349 0.82545 0.0
O334 O 0.60116 0.55979 0.91994 0.0
O335 O 0.58784 0.55855 0.8766 0.0
Co336 Co 0.61724 0.86216 0.72798 0.0
O337 O 0.63446 0.84375 0.75234 0.0
O338 O 0.61435 0.87465 0.76588 0.0
C339 C 0.5876 0.81713 0.70126 0.0
O340 O 0.59667 0.88433 0.70734 0.0
Co341 Co 0.64124 0.87082 0.66885 0.0
O342 O 0.60605 0.88009 0.66254 0.0
C343 C 0.68563 0.91398 0.71134 0.0
C344 C 0.62928 0.85915 0.77219 0.0
C345 C 0.5921 0.88703 0.68158 0.0
O346 O 0.66112 0.90216 0.72695 0.0
O347 O 0.68414 0.90403 0.6864 0.0
O348 O 0.57666 0.82138 0.72449 0.0
O349 O 0.6178 0.83809 0.69669 0.0
Co350 Co 0.17087 0.75907 0.7306 0.0
O351 O 0.21508 0.7717 0.72649 0.0
O352 O 0.18233 0.76377 0.69159 0.0
C353 C 0.17801 0.79591 0.76402 0.0
O354 O 0.1233 0.74643 0.72927 0.0
Co355 Co 0.14087 0.72908 0.78683 0.0
O356 O 0.10811 0.73918 0.77366 0.0
C357 C 0.14593 0.68687 0.74433 0.0
C358 C 0.21116 0.77182 0.70021 0.0
C359 C 0.10306 0.74234 0.74848 0.0
O360 O 0.15757 0.71123 0.72813 0.0
O361 O 0.13936 0.68925 0.76951 0.0
O362 O 0.18285 0.80424 0.7385 0.0
O363 O 0.17415 0.76734 0.76879 0.0
Co364 Co 0.24231 0.4013 0.72773 0.0
O365 O 0.22933 0.43186 0.71787 0.0
O366 O 0.23229 0.39719 0.68834 0.0
C367 C 0.21086 0.38055 0.76475 0.0
O368 O 0.25472 0.36618 0.7323 0.0
Co369 Co 0.27954 0.41575 0.78327 0.0
O370 O 0.26839 0.36962 0.77711 0.0
C371 C 0.31526 0.45113 0.73461 0.0
C372 C 0.22577 0.42044 0.69285 0.0
C373 C 0.26197 0.35513 0.75351 0.0
O374 O 0.28883 0.43508 0.7205 0.0
O375 O 0.31665 0.44833 0.76063 0.0
O376 O 0.19919 0.37019 0.74011 0.0
O377 O 0.23949 0.40655 0.76595 0.0
Co378 Co 0.51773 0.94281 0.12408 0.0
O379 O 0.47378 0.91398 0.13464 0.0
O380 O 0.51393 0.94509 0.16377 0.0
C381 C 0.50771 0.96819 0.09006 0.0
O382 O 0.56576 0.97596 0.11981 0.0
Co383 Co 0.53863 0.9322 0.06674 0.0
O384 O 0.5758 0.97682 0.0746 0.0
C385 C 0.53758 0.8914 0.11182 0.0
C386 C 0.48327 0.92425 0.15975 0.0
C387 C 0.58441 0.98849 0.09905 0.0
O388 O 0.5275 0.90637 0.12765 0.0
O389 O 0.54241 0.89706 0.08612 0.0
O390 O 0.50839 0.97673 0.11568 0.0
O391 O 0.50857 0.9414 0.08581 0.0
Co392 Co 0.06429 0.56878 0.11441 0.0
O393 O 0.0912 0.5506 0.11949 0.0
O394 O 0.06638 0.56053 0.15334 0.0
C395 C 0.03461 0.53537 0.07893 0.0
O396 O 0.03312 0.5861 0.11503 0.0
Co397 Co 0.07204 0.60477 0.06047 0.0
O398 O 0.02849 0.59547 0.0706 0.0
C399 C 0.11694 0.64119 0.10619 0.0
C400 C 0.08438 0.54873 0.14536 0.0
C401 C 0.01874 0.59171 0.09534 0.0
O402 O 0.10224 0.61482 0.12001 0.0
O403 O 0.10942 0.64249 0.08119 0.0
O404 O 0.0285 0.52593 0.10409 0.0
O405 O 0.06154 0.56288 0.07558 0.0
Co406 Co 0.42062 0.47404 0.09919 0.0
O407 O 0.459 0.49408 0.07782 0.0
O408 O 0.40954 0.47353 0.06067 0.0
C409 C 0.43782 0.51116 0.13396 0.0
O410 O 0.37565 0.45203 0.11604 0.0
Co411 Co 0.42431 0.44584 0.15377 0.0
O412 O 0.37908 0.4354 0.15822 0.0
C413 C 0.42694 0.41352 0.1035 0.0
C414 C 0.44031 0.48616 0.05634 0.0
C415 C 0.36312 0.43913 0.13922 0.0
O416 O 0.41754 0.43096 0.09161 0.0
O417 O 0.43373 0.41679 0.12922 0.0
O418 O 0.42656 0.51592 0.11139 0.0
O419 O 0.44262 0.48657 0.13345 0.0
Co420 Co 0.0657 0.48302 0.59808 0.0
O421 O 0.03796 0.49781 0.58468 0.0
O422 O 0.0862 0.51295 0.56814 0.0
C423 C 0.02747 0.42958 0.59702 0.0
O424 O 0.09998 0.47083 0.60705 0.0
Co425 Co 0.05063 0.44975 0.65443 0.0
O426 O 0.07845 0.43332 0.64011 0.0
C427 C 0.08292 0.52198 0.65288 0.0
C428 C 0.05957 0.51368 0.56645 0.0
C429 C 0.09954 0.44831 0.62184 0.0
O430 O 0.08469 0.52006 0.62654 0.0
O431 O 0.06853 0.49662 0.66778 0.0
O432 O 0.04306 0.44361 0.57504 0.0
O433 O 0.03321 0.44889 0.61835 0.0
Co434 Co 0.50225 0.59597 0.61033 0.0
O435 O 0.45674 0.576 0.61595 0.0
O436 O 0.4871 0.55826 0.63385 0.0
C437 C 0.51504 0.64813 0.61968 0.0
O438 O 0.55054 0.61196 0.60849 0.0
Co439 Co 0.53007 0.64395 0.56125 0.0
O440 O 0.57081 0.6475 0.57364 0.0
C441 C 0.4966 0.57235 0.55032 0.0
C442 C 0.4588 0.55532 0.63142 0.0
C443 C 0.57392 0.63159 0.59296 0.0
O444 O 0.49422 0.56728 0.5763 0.0
O445 O 0.50717 0.60079 0.54039 0.0
O446 O 0.51104 0.6286 0.63941 0.0
O447 O 0.5072 0.63453 0.59537 0.0
Co448 Co 0.41315 0.90847 0.59191 0.0
O449 O 0.43596 0.88539 0.59625 0.0
O450 O 0.45444 0.93684 0.6106 0.0
C451 C 0.36481 0.86849 0.60707 0.0
O452 O 0.39517 0.9393 0.59106 0.0
Co453 Co 0.357 0.87929 0.5484 0.0
O454 O 0.35325 0.91733 0.56074 0.0
C455 C 0.42412 0.91604 0.5298 0.0
C456 C 0.45867 0.91184 0.6084 0.0
C457 C 0.37213 0.93977 0.57798 0.0
O458 O 0.43389 0.92446 0.55492 0.0
O459 O 0.39469 0.89538 0.52313 0.0
O460 O 0.38756 0.88801 0.62429 0.0
O461 O 0.37327 0.87094 0.58161 0.0
Co462 Co 0.15816 0.40129 0.2287 0.0
O463 O 0.2018 0.42403 0.21614 0.0
O464 O 0.16975 0.36998 0.21388 0.0
C465 C 0.14288 0.43358 0.20819 0.0
O466 O 0.11086 0.37061 0.23883 0.0
Co467 Co 0.13982 0.44053 0.26923 0.0
O468 O 0.0964 0.40095 0.26516 0.0
C469 C 0.1725 0.40769 0.29091 0.0
C470 C 0.19763 0.39573 0.2086 0.0
C471 C 0.08998 0.37421 0.25274 0.0
O472 O 0.17227 0.39656 0.26649 0.0
O473 O 0.1629 0.42793 0.2962 0.0
O474 O 0.14364 0.41 0.19471 0.0
O475 O 0.15564 0.43992 0.2327 0.0
Co476 Co 0.57591 0.73393 0.22375 0.0
O477 O 0.54879 0.75175 0.21657 0.0
O478 O 0.59966 0.7748 0.20381 0.0
C479 C 0.54087 0.6819 0.20942 0.0
O480 O 0.61005 0.72066 0.22786 0.0
Co481 Co 0.55152 0.68095 0.26902 0.0
O482 O 0.59089 0.68018 0.25877 0.0
C483 C 0.58387 0.75079 0.28568 0.0
C484 C 0.57292 0.7754 0.20421 0.0
C485 C 0.61241 0.69933 0.24216 0.0
O486 O 0.5903 0.75885 0.26037 0.0
O487 O 0.56567 0.72112 0.29303 0.0
O488 O 0.55828 0.704 0.19183 0.0
O489 O 0.54183 0.69277 0.23423 0.0
Co490 Co 0.24653 0.84506 0.2386 0.0
O491 O 0.20455 0.83364 0.25132 0.0
O492 O 0.23052 0.80836 0.26314 0.0
C493 C 0.26919 0.89935 0.24838 0.0
O494 O 0.29098 0.85176 0.22936 0.0
Co495 Co 0.27316 0.88911 0.18853 0.0
O496 O 0.31483 0.89608 0.20285 0.0
C497 C 0.22572 0.8186 0.17937 0.0
C498 C 0.20547 0.81176 0.26597 0.0
C499 C 0.31603 0.87487 0.21758 0.0
O500 O 0.22664 0.81464 0.20536 0.0
O501 O 0.24097 0.84688 0.16851 0.0
O502 O 0.26649 0.87922 0.26711 0.0
O503 O 0.25543 0.88578 0.22488 0.0
H504 H 0.34861 0.19372 0.11218 0.0
H505 H 0.26766 0.1882 0.15483 0.0
H506 H 0.29328 0.19062 0.1992 0.0
H507 H 0.33628 0.18872 0.22507 0.0
H508 H 0.41818 0.19684 0.18195 0.0
H509 H 0.39526 0.20057 0.13832 0.0
C510 C 0.33671 0.1933 0.13123 0.0
C511 C 0.30604 0.19 0.13044 0.0
C512 C 0.35195 0.19566 0.15639 0.0
C513 C 0.2911 0.19026 0.1551 0.0
C514 C 0.30578 0.19175 0.18037 0.0
C515 C 0.34948 0.19216 0.20618 0.0
C516 C 0.37868 0.19212 0.20661 0.0
C517 C 0.33591 0.19378 0.18119 0.0
C518 C 0.39575 0.19691 0.18213 0.0
C519 C 0.38243 0.19858 0.15716 0.0
H520 H 0.81982 0.16742 0.10424 0.0
H521 H 0.85583 0.12559 0.16185 0.0
H522 H 0.84502 0.15322 0.20015 0.0
H523 H 0.83081 0.19387 0.21629 0.0
H524 H 0.79603 0.23631 0.15795 0.0
H525 H 0.79983 0.2028 0.12085 0.0
C526 C 0.82533 0.16435 0.12519 0.0
C527 C 0.83939 0.14527 0.13028 0.0
C528 C 0.81886 0.18003 0.1469 0.0
C529 C 0.84549 0.14065 0.1575 0.0
C530 C 0.83919 0.15631 0.17934 0.0
C531 C 0.8231 0.19506 0.19561 0.0
C532 C 0.81339 0.21776 0.18984 0.0
C533 C 0.82649 0.17661 0.1742 0.0
C534 C 0.80374 0.21916 0.16289 0.0
C535 C 0.8062 0.20024 0.14163 0.0
H536 H 0.81549 0.64461 0.21455 0.0
H537 H 0.75457 0.56017 0.16178 0.0
H538 H 0.78411 0.59031 0.1217 0.0
H539 H 0.82378 0.6414 0.10123 0.0
H540 H 0.88497 0.72691 0.15259 0.0
H541 H 0.8587 0.69554 0.19376 0.0
C542 C 0.80911 0.63259 0.19434 0.0
C543 C 0.78268 0.60013 0.19121 0.0
C544 C 0.82584 0.6504 0.17114 0.0
C545 C 0.77461 0.58509 0.16481 0.0
C546 C 0.79142 0.60237 0.14184 0.0
C547 C 0.83149 0.65334 0.1214 0.0
C548 C 0.85594 0.68665 0.12383 0.0
C549 C 0.81643 0.63522 0.14471 0.0
C550 C 0.86599 0.7014 0.15018 0.0
C551 C 0.85099 0.68343 0.17367 0.0
H552 H 0.17872 0.35021 0.40396 0.0
H553 H 0.16543 0.26952 0.35108 0.0
H554 H 0.17028 0.30148 0.31048 0.0
H555 H 0.17372 0.35061 0.29048 0.0
H556 H 0.18576 0.43025 0.34437 0.0
H557 H 0.18661 0.40052 0.38422 0.0
C558 C 0.17693 0.33952 0.38357 0.0
C559 C 0.17113 0.30727 0.3805 0.0
C560 C 0.1797 0.35794 0.36055 0.0
C561 C 0.16955 0.29414 0.35395 0.0
C562 C 0.17236 0.31244 0.33078 0.0
C563 C 0.17722 0.36182 0.31089 0.0
C564 C 0.17948 0.39266 0.31436 0.0
C565 C 0.17687 0.34417 0.33387 0.0
C566 C 0.1838 0.40659 0.34103 0.0
C567 C 0.18412 0.38951 0.36387 0.0
H568 H 0.64274 0.80663 0.2821 0.0
H569 H 0.56674 0.74999 0.33912 0.0
H570 H 0.60158 0.78336 0.37754 0.0
H571 H 0.65494 0.82464 0.39526 0.0
H572 H 0.73169 0.88144 0.33907 0.0
H573 H 0.69527 0.8518 0.29991 0.0
C574 C 0.63353 0.80215 0.30286 0.0
C575 C 0.60219 0.77572 0.30773 0.0
C576 C 0.65405 0.82091 0.32501 0.0
C577 C 0.59077 0.77006 0.33481 0.0
C578 C 0.61076 0.78898 0.35682 0.0
C579 C 0.66377 0.83057 0.37445 0.0
C580 C 0.69613 0.85471 0.37002 0.0
C581 C 0.64272 0.8137 0.35221 0.0
C582 C 0.70697 0.86262 0.34295 0.0
C583 C 0.68613 0.84577 0.32061 0.0
H584 H 0.10254 0.7909 0.35345 0.0
H585 H 0.18706 0.82778 0.40586 0.0
H586 H 0.21738 0.82321 0.36788 0.0
H587 H 0.22195 0.81419 0.31883 0.0
H588 H 0.14019 0.78355 0.26476 0.0
H589 H 0.10649 0.77896 0.30415 0.0
C590 C 0.12756 0.79789 0.35648 0.0
C591 C 0.14258 0.81018 0.38236 0.0
C592 C 0.14527 0.79574 0.33427 0.0
C593 C 0.17497 0.81883 0.38605 0.0
C594 C 0.19236 0.81596 0.36438 0.0
C595 C 0.19643 0.80524 0.31588 0.0
C596 C 0.18328 0.79849 0.28917 0.0
C597 C 0.17796 0.80496 0.33831 0.0
C598 C 0.15053 0.78819 0.28533 0.0
C599 C 0.13145 0.7861 0.30778 0.0
H600 H 0.68601 0.86346 0.78119 0.0
H601 H 0.60775 0.86397 0.82361 0.0
H602 H 0.63339 0.86642 0.86808 0.0
H603 H 0.67569 0.86304 0.89418 0.0
H604 H 0.75529 0.86619 0.85073 0.0
H605 H 0.7322 0.86937 0.80707 0.0
C606 C 0.67473 0.86456 0.80017 0.0
C607 C 0.64478 0.86293 0.79927 0.0
C608 C 0.69008 0.86707 0.82529 0.0
C609 C 0.63063 0.86482 0.82391 0.0
C610 C 0.64534 0.8663 0.84923 0.0
C611 C 0.68838 0.86526 0.87519 0.0
C612 C 0.71698 0.86397 0.87562 0.0
C613 C 0.67477 0.86678 0.85012 0.0
C614 C 0.73334 0.86719 0.85097 0.0
C615 C 0.71992 0.86859 0.82597 0.0
H616 H 0.16141 0.89937 0.83381 0.0
H617 H 0.15063 0.83511 0.89954 0.0
H618 H 0.15326 0.79684 0.86631 0.0
H619 H 0.16437 0.78466 0.81889 0.0
H620 H 0.17824 0.85199 0.7548 0.0
H621 H 0.16921 0.88614 0.78722 0.0
C622 C 0.15919 0.87682 0.841 0.0
C623 C 0.15623 0.87045 0.86924 0.0
C624 C 0.16199 0.8557 0.82207 0.0
C625 C 0.15299 0.84079 0.87793 0.0
C626 C 0.15483 0.81901 0.85896 0.0
C627 C 0.16539 0.8068 0.81212 0.0
C628 C 0.17241 0.81594 0.78455 0.0
C629 C 0.1604 0.82677 0.83106 0.0
C630 C 0.17329 0.84451 0.77596 0.0
C631 C 0.16795 0.86406 0.79445 0.0
H632 H 0.15152 0.31329 0.87736 0.0
H633 H 0.07952 0.23992 0.82154 0.0
H634 H 0.11091 0.27108 0.78238 0.0
H635 H 0.15625 0.32095 0.7641 0.0
H636 H 0.22782 0.39522 0.81943 0.0
H637 H 0.19884 0.3619 0.85882 0.0
C638 C 0.14289 0.30371 0.85665 0.0
C639 C 0.11302 0.27421 0.85249 0.0
C640 C 0.16066 0.32222 0.83419 0.0
C641 C 0.1023 0.26247 0.82543 0.0
C642 C 0.12016 0.28041 0.803 0.0
C643 C 0.1656 0.32994 0.78477 0.0
C644 C 0.19396 0.36077 0.78887 0.0
C645 C 0.14889 0.31068 0.80717 0.0
C646 C 0.20589 0.37176 0.81575 0.0
C647 C 0.18938 0.35265 0.83824 0.0
H648 H 0.82175 0.73329 0.66941 0.0
H649 H 0.86621 0.69997 0.6101 0.0
H650 H 0.86798 0.66354 0.64406 0.0
H651 H 0.85613 0.64065 0.69112 0.0
H652 H 0.81071 0.67471 0.74883 0.0
H653 H 0.8095 0.71066 0.71483 0.0
C654 C 0.83227 0.71846 0.6639 0.0
C655 C 0.84413 0.71971 0.6373 0.0
C656 C 0.83251 0.69712 0.68318 0.0
C657 C 0.8571 0.69972 0.63051 0.0
C658 C 0.85793 0.67869 0.64987 0.0
C659 C 0.84564 0.65566 0.69599 0.0
C660 C 0.83355 0.65502 0.72246 0.0
C661 C 0.84538 0.67692 0.67627 0.0
C662 C 0.82031 0.67483 0.72864 0.0
C663 C 0.81969 0.69555 0.70926 0.0
H664 H 0.37317 0.20756 0.69795 0.0
H665 H 0.30676 0.1452 0.75933 0.0
H666 H 0.26736 0.11209 0.72384 0.0
H667 H 0.25277 0.09807 0.6758 0.0
H668 H 0.31856 0.15734 0.61298 0.0
H669 H 0.35656 0.19485 0.6485 0.0
C670 C 0.35006 0.18675 0.70344 0.0
C671 C 0.34318 0.17869 0.73127 0.0
C672 C 0.3272 0.16734 0.68271 0.0
C673 C 0.31296 0.15185 0.73812 0.0
C674 C 0.29023 0.13287 0.71782 0.0
C675 C 0.27524 0.11937 0.66973 0.0
C676 C 0.28288 0.12459 0.64174 0.0
C677 C 0.29726 0.14006 0.69011 0.0
C678 C 0.31198 0.15267 0.63438 0.0
C679 C 0.33389 0.17397 0.65471 0.0
H680 H 0.81564 0.1515 0.61261 0.0
H681 H 0.88758 0.13716 0.65206 0.0
H682 H 0.86405 0.13601 0.69681 0.0
H683 H 0.82684 0.14468 0.72491 0.0
H684 H 0.75336 0.15697 0.68626 0.0
H685 H 0.77415 0.15395 0.64074 0.0
C686 C 0.82579 0.14744 0.63094 0.0
C687 C 0.85357 0.14472 0.629 0.0
C688 C 0.81245 0.14738 0.65667 0.0
C689 C 0.86623 0.13924 0.65291 0.0
C690 C 0.85301 0.13898 0.67855 0.0
C691 C 0.81546 0.14695 0.70652 0.0
C692 C 0.7892 0.15204 0.70886 0.0
C693 C 0.82689 0.14417 0.6807 0.0
C694 C 0.77394 0.15364 0.68491 0.0
C695 C 0.78574 0.15173 0.65897 0.0
H696 H 0.98507 0.54121 0.47493 0.0
H697 H 0.02906 0.49867 0.42459 0.0
H698 H 0.05917 0.49762 0.46415 0.0
H699 H 0.07138 0.50607 0.51353 0.0
H700 H 0.02472 0.54417 0.5652 0.0
H701 H 0.99823 0.55063 0.52484 0.0
C702 C 1.00104 0.53149 0.47272 0.0
C703 C 0.0045 0.51981 0.4468 0.0
C704 C 0.01842 0.53078 0.49578 0.0
C705 C 0.02565 0.50764 0.44427 0.0
C706 C 0.04315 0.50721 0.46689 0.0
C707 C 0.05621 0.51674 0.51579 0.0
C708 C 0.05051 0.52529 0.54212 0.0
C709 C 0.03974 0.51865 0.49274 0.0
C710 C 0.02987 0.53798 0.54497 0.0
C711 C 0.0144 0.54126 0.52196 0.0
H712 H 0.49115 0.45315 0.48307 0.0
H713 H 0.51246 0.52117 0.41773 0.0
H714 H 0.50787 0.55896 0.44913 0.0
H715 H 0.50037 0.57439 0.4949 0.0
H716 H 0.48135 0.5093 0.56202 0.0
H717 H 0.48163 0.46855 0.5301 0.0
C718 C 0.49487 0.47628 0.47585 0.0
C719 C 0.50236 0.4843 0.4481 0.0
C720 C 0.49229 0.4984 0.49422 0.0
C721 C 0.50681 0.51428 0.43896 0.0
C722 C 0.50409 0.536 0.45688 0.0
C723 C 0.49592 0.5512 0.50269 0.0
C724 C 0.49108 0.54516 0.5309 0.0
C725 C 0.49708 0.52845 0.48452 0.0
C726 C 0.48515 0.51472 0.54037 0.0
C727 C 0.48558 0.49147 0.52216 0.0
H728 H 0.49505 0.97389 0.41904 0.0
H729 H 0.55722 0.05686 0.47245 0.0
H730 H 0.5272 0.02566 0.51259 0.0
H731 H 0.48061 0.97575 0.5318 0.0
H732 H 0.4188 0.89413 0.47679 0.0
H733 H 0.4517 0.92386 0.43796 0.0
C734 C 0.50221 0.98529 0.43945 0.0
C735 C 0.52806 0.01785 0.44273 0.0
C736 C 0.48488 0.96736 0.46214 0.0
C737 C 0.53726 0.03191 0.46937 0.0
C738 C 0.52007 0.01407 0.49228 0.0
C739 C 0.47468 0.96429 0.51138 0.0
C740 C 0.44707 0.93276 0.50724 0.0
C741 C 0.49349 0.98188 0.48885 0.0
C742 C 0.43966 0.91839 0.48059 0.0
C743 C 0.45845 0.93541 0.45832 0.0
H744 H 0.50153 0.07314 0.01786 0.0
H745 H 0.52906 0.02804 0.95363 0.0
H746 H 0.531 0.99115 0.98695 0.0
H747 H 0.52192 0.96958 0.03457 0.0
H748 H 0.49305 0.0155 0.09715 0.0
H749 H 0.49415 0.05348 0.06421 0.0
C750 C 0.50837 0.05558 0.01102 0.0
C751 C 0.51507 0.05354 0.98314 0.0
C752 C 0.50866 0.03397 0.03005 0.0
C753 C 0.52387 0.03042 0.97495 0.0
C754 C 0.52472 0.00904 0.99399 0.0
C755 C 0.51571 0.98778 0.04084 0.0
C756 C 0.50726 0.98944 0.06835 0.0
C757 C 0.51652 0.01012 0.02158 0.0
C758 C 0.49964 0.01349 0.07619 0.0
C759 C 0.50033 0.03542 0.05736 0.0
H760 H 0.91716 0.43432 0.00476 0.0
H761 H 0.97921 0.4926 0.93966 0.0
H762 H 0.01888 0.53103 0.97381 0.0
H763 H 0.03821 0.54486 0.02274 0.0
H764 H 0.97497 0.48365 0.0863 0.0
H765 H 0.934 0.44979 0.05227 0.0
C766 C 0.93917 0.45563 0.99792 0.0
C767 C 0.94526 0.46028 0.96967 0.0
C768 C 0.96209 0.47699 0.01751 0.0
C769 C 0.97379 0.48836 0.9613 0.0
C770 C 0.99667 0.51021 0.98084 0.0
C771 C 0.01541 0.5242 0.02902 0.0
C772 C 0.01004 0.51663 0.05706 0.0
C773 C 0.99151 0.50425 0.00908 0.0
C774 C 0.98015 0.48994 0.06491 0.0
C775 C 0.95647 0.47048 0.04544 0.0
H776 H 0.48699 0.49391 0.93401 0.0
H777 H 0.55091 0.46828 0.97369 0.0
H778 H 0.52427 0.46377 0.01747 0.0
H779 H 0.48684 0.47269 0.04521 0.0
H780 H 0.42155 0.49663 0.00605 0.0
H781 H 0.44504 0.49666 0.96113 0.0
C782 C 0.4947 0.4867 0.95212 0.0
C783 C 0.52116 0.48173 0.95062 0.0
C784 C 0.47957 0.48466 0.97733 0.0
C785 C 0.53064 0.47217 0.97422 0.0
C786 C 0.51563 0.46995 0.99934 0.0
C787 C 0.47783 0.47807 0.02683 0.0
C788 C 0.45317 0.48561 0.0289 0.0
C789 C 0.49087 0.47723 0.00126 0.0
C790 C 0.44088 0.49131 0.00491 0.0
C791 C 0.45423 0.4912 0.97931 0.0
H792 H 0.16031 0.99716 0.99617 0.0
H793 H 0.23318 0.02597 0.93445 0.0
H794 H 0.25831 0.08366 0.95056 0.0
H795 H 0.26254 0.12446 0.9861 0.0
H796 H 0.1873 0.0942 0.04625 0.0
H797 H 0.15973 0.03871 0.02654 0.0
C798 C 0.18133 0.01627 0.98595 0.0
C799 C 0.19517 0.00772 0.96445 0.0
C800 C 0.19527 0.04903 0.99517 0.0
C801 C 0.2222 0.03233 0.95106 0.0
C802 C 0.23661 0.06517 0.96038 0.0
C803 C 0.23984 0.10583 0.99453 0.0
C804 C 0.22742 0.11331 0.018 0.0
C805 C 0.22385 0.07367 0.98299 0.0
C806 C 0.19772 0.08905 0.02847 0.0
C807 C 0.18188 0.05721 0.01726 0.0
H808 H 0.98231 0.17573 0.94495 0.0
H809 H 0.02435 0.25276 0.00806 0.0
H810 H 0.97669 0.22364 0.03568 0.0
H811 H 0.92529 0.17489 0.04422 0.0
H812 H 0.87996 0.0973 0.98246 0.0
H813 H 0.92632 0.12791 0.95195 0.0
C814 C 0.98075 0.18617 0.96458 0.0
C815 C 0.00723 0.21613 0.97459 0.0
C816 C 0.95281 0.16912 0.98073 0.0
C817 C 0.00471 0.22953 0.99998 0.0
C818 C 0.97738 0.21292 0.01589 0.0
C819 C 0.92545 0.1648 0.02395 0.0
C820 C 0.89971 0.1339 0.01561 0.0
C821 C 0.95173 0.18246 0.00681 0.0
C822 C 0.89973 0.12117 0.98921 0.0
C823 C 0.92626 0.1386 0.97191 0.0
H824 H 0.88737 0.79395 0.00782 0.0
H825 H 0.82907 0.68999 0.98945 0.0
H826 H 0.79223 0.69913 0.96151 0.0
H827 H 0.77154 0.7357 0.95037 0.0
H828 H 0.83071 0.83983 0.96751 0.0
H829 H 0.87294 0.83195 0.98717 0.0
C830 C 0.8671 0.77348 0.99698 0.0
C831 C 0.8605 0.74132 0.0009 0.0
C832 C 0.84623 0.77901 0.98088 0.0
C833 C 0.8345 0.71493 0.98666 0.0
C834 C 0.81335 0.72015 0.97087 0.0
C835 C 0.79431 0.75676 0.95733 0.0
C836 C 0.79811 0.78827 0.95765 0.0
C837 C 0.81822 0.75192 0.96889 0.0
C838 C 0.82749 0.81543 0.96681 0.0
C839 C 0.85141 0.81084 0.97843 0.0
H840 H 0.99809 0.17614 0.52984 0.0
H841 H 0.02998 0.27385 0.56156 0.0
H842 H 0.08516 0.29226 0.54707 0.0
H843 H 0.1214 0.28298 0.51699 0.0
H844 H 0.08705 0.1863 0.48118 0.0
H845 H 0.03638 0.16495 0.5057 0.0
C846 C 0.0175 0.20101 0.53468 0.0
C847 C 0.01025 0.22349 0.54711 0.0
C848 C 0.04873 0.21182 0.52483 0.0
C849 C 0.03527 0.25602 0.55245 0.0
C850 C 0.06672 0.26664 0.5438 0.0
C851 C 0.10318 0.25707 0.51533 0.0
C852 C 0.10778 0.23627 0.4972 0.0
C853 C 0.07339 0.24518 0.52871 0.0
C854 C 0.08386 0.20281 0.49488 0.0
C855 C 0.05483 0.19058 0.50885 0.0
H856 H 0.77867 0.80401 0.55353 0.0
H857 H 0.85644 0.82254 0.49914 0.0
H858 H 0.84739 0.86083 0.47358 0.0
H859 H 0.81344 0.88341 0.46313 0.0
H860 H 0.73328 0.86346 0.51502 0.0
H861 H 0.74732 0.83184 0.5454 0.0
C862 C 0.79402 0.81718 0.53652 0.0
C863 C 0.81826 0.81077 0.52815 0.0
C864 C 0.78797 0.83852 0.52131 0.0
C865 C 0.83774 0.82733 0.50585 0.0
C866 C 0.83249 0.84907 0.49119 0.0
C867 C 0.79925 0.87255 0.48131 0.0
C868 C 0.77214 0.8754 0.48664 0.0
C869 C 0.80704 0.85399 0.49817 0.0
C870 C 0.75427 0.86156 0.51046 0.0
C871 C 0.76218 0.84331 0.52772 0.0
H872 H 0.16257 0.99818 0.5116 0.0
H873 H 0.20271 0.97057 0.57744 0.0
H874 H 0.17292 0.91308 0.56048 0.0
H875 H 0.14098 0.8725 0.52289 0.0
H876 H 0.10009 0.90163 0.45831 0.0
H877 H 0.12402 0.95642 0.47908 0.0
C878 C 0.16413 0.97934 0.52256 0.0
C879 C 0.18481 0.98829 0.54545 0.0
C880 C 0.14699 0.94669 0.51276 0.0
C881 C 0.18673 0.96398 0.55975 0.0
C882 C 0.1699 0.93123 0.54993 0.0
C883 C 0.13681 0.89067 0.51374 0.0
C884 C 0.11946 0.88321 0.48871 0.0
C885 C 0.15077 0.92249 0.52586 0.0
C886 C 0.11388 0.90687 0.47727 0.0
C887 C 0.12756 0.9383 0.48911 0.0
H888 H 0.76358 0.87709 0.04187 0.0
H889 H 0.76977 0.91971 0.96297 0.0
H890 H 0.7962 0.97439 0.98459 0.0
H891 H 0.8153 0.00997 0.02585 0.0
H892 H 0.80832 0.96791 0.10511 0.0
H893 H 0.78509 0.91334 0.08321 0.0
C894 C 0.77062 0.89831 0.02939 0.0
C895 C 0.76437 0.8941 0.00083 0.0
C896 C 0.78596 0.92989 0.04195 0.0
C897 C 0.77409 0.92203 0.985 0.0
C898 C 0.78931 0.95342 0.99733 0.0
C899 C 0.80921 0.98902 0.03839 0.0
C900 C 0.81352 0.99318 0.06715 0.0
C901 C 0.79518 0.95762 0.02578 0.0
C902 C 0.80526 0.96554 0.08294 0.0
C903 C 0.79178 0.93424 0.07045 0.0
H904 H 0.06738 0.86558 0.97077 0.0
H905 H 0.13216 0.84589 0.01624 0.0
H906 H 0.0892 0.8137 0.04881 0.0
H907 H 0.03298 0.79177 0.06468 0.0
H908 H 0.96854 0.81026 0.01733 0.0
H909 H 0.01175 0.8428 0.98549 0.0
C910 C 0.07213 0.8541 0.9877 0.0
C911 C 0.10297 0.85816 0.99105 0.0
C912 C 0.04744 0.8358 0.00627 0.0
C913 C 0.10859 0.84297 0.01306 0.0
C914 C 0.08408 0.82478 0.03182 0.0
C915 C 0.02863 0.80332 0.04758 0.0
C916 C 0.99774 0.799 0.04354 0.0
C917 C 0.05346 0.82129 0.02878 0.0
C918 C 0.99216 0.81341 0.02094 0.0
C919 C 0.01681 0.8319 0.00267 0.0
H920 H 0.13201 0.23869 0.00147 0.0
H921 H 0.19353 0.30418 0.93963 0.0
H922 H 0.23757 0.29598 0.9545 0.0
H923 H 0.25582 0.26475 0.98165 0.0
H924 H 0.19462 0.20133 0.04491 0.0
H925 H 0.15318 0.21439 0.03323 0.0
C926 C 0.15539 0.25178 0.99177 0.0
C927 C 0.15975 0.27193 0.96954 0.0
C928 C 0.18038 0.24698 1.00049 0.0
C929 C 0.18993 0.28883 0.95698 0.0
C930 C 0.21491 0.28386 0.96531 0.0
C931 C 0.23358 0.2542 0.9931 0.0
C932 C 0.22803 0.23175 0.01385 0.0
C933 C 0.21002 0.26216 0.98649 0.0
C934 C 0.19939 0.21863 0.02886 0.0
C935 C 0.17565 0.22597 0.0221 0.0
H936 H 0.90367 0.77208 0.49192 0.0
H937 H 0.88495 0.69206 0.54381 0.0
H938 H 0.93563 0.69605 0.52941 0.0
H939 H 0.98872 0.72804 0.50735 0.0
H940 H 0.00622 0.80656 0.45395 0.0
H941 H 0.95222 0.79718 0.46317 0.0
C942 C 0.91033 0.75492 0.49939 0.0
C943 C 0.8909 0.73188 0.51889 0.0
C944 C 0.93933 0.75739 0.49096 0.0
C945 C 0.89951 0.70974 0.52857 0.0
C946 C 0.92859 0.71227 0.52055 0.0
C947 C 0.98032 0.74251 0.49724 0.0
C948 C 1.00139 0.76818 0.48024 0.0
C949 C 0.94922 0.73681 0.50254 0.0
C950 C 0.99032 0.78663 0.46702 0.0
C951 C 0.95958 0.78143 0.47248 0.0
H952 H 0.24441 0.20435 0.44357 0.0
H953 H 0.15681 0.18132 0.48566 0.0
H954 H 0.16653 0.14942 0.51876 0.0
H955 H 0.19986 0.12863 0.53621 0.0
H956 H 0.28846 0.15209 0.49577 0.0
H957 H 0.27881 0.1838 0.46194 0.0
C958 C 0.2273 0.19192 0.45978 0.0
C959 C 0.19973 0.19489 0.46199 0.0
C960 C 0.2335 0.17422 0.47931 0.0
C961 C 0.1781 0.17928 0.48345 0.0
C962 C 0.18371 0.16116 0.50247 0.0
C963 C 0.21726 0.14084 0.52013 0.0
C964 C 0.24489 0.13801 0.51859 0.0
C965 C 0.21142 0.15871 0.50075 0.0
C966 C 0.26711 0.15405 0.49758 0.0
C967 C 0.26146 0.17197 0.4781 0.0
H968 H 0.80146 0.99344 0.47725 0.0
H969 H 0.83287 0.0366 0.39775 0.0
H970 H 0.86474 0.09093 0.41979 0.0
H971 H 0.88159 0.12666 0.46135 0.0
H972 H 0.8498 0.0836 0.54082 0.0
H973 H 0.82019 0.02892 0.51895 0.0
C974 C 0.81557 0.01462 0.46468 0.0
C975 C 0.81456 0.01074 0.43579 0.0
C976 C 0.83355 0.04598 0.47746 0.0
C977 C 0.83301 0.03868 0.41999 0.0
C978 C 0.8512 0.06987 0.43258 0.0
C979 C 0.86819 0.10537 0.47395 0.0
C980 C 0.86782 0.10945 0.50274 0.0
C981 C 0.85121 0.07388 0.46126 0.0
C982 C 0.85052 0.08138 0.51864 0.0
C983 C 0.83356 0.05001 0.50615 0.0
H984 H 0.88883 0.45603 0.33547 0.0
H985 H 0.98441 0.48051 0.31135 0.0
H986 H 0.96191 0.42842 0.28489 0.0
H987 H 0.91552 0.37226 0.27518 0.0
H988 H 0.8203 0.34832 0.29985 0.0
H989 H 0.8419 0.40402 0.31932 0.0
C990 C 0.90458 0.45028 0.32375 0.0
C991 C 0.9381 0.47166 0.32543 0.0
C992 C 0.8915 0.42028 0.309 0.0
C993 C 0.95845 0.46433 0.31015 0.0
C994 C 0.94562 0.43444 0.29529 0.0
C995 C 0.89958 0.37975 0.28416 0.0
C996 C 0.86653 0.3567 0.28625 0.0
C997 C 0.91229 0.41167 0.29551 0.0
C998 C 0.84582 0.36605 0.29804 0.0
C999 C 0.85818 0.39773 0.30925 0.0
H1000 H 0.59308 0.45055 0.37233 0.0
H1001 H 0.53362 0.45388 0.30779 0.0
H1002 H 0.58175 0.4851 0.27952 0.0
H1003 H 0.64208 0.51671 0.27564 0.0
H1004 H 0.6996 0.51592 0.34323 0.0
H1005 H 0.651 0.4785 0.36778 0.0
C1006 C 0.59041 0.4577 0.35193 0.0
C1007 C 0.55977 0.45008 0.3423 0.0
C1008 C 0.61807 0.47647 0.33643 0.0
C1009 C 0.5569 0.45937 0.31571 0.0
C1010 C 0.58449 0.47744 0.29965 0.0
C1011 C 0.64374 0.50781 0.29554 0.0
C1012 C 0.67432 0.51903 0.30771 0.0
C1013 C 0.61539 0.48693 0.31012 0.0
C1014 C 0.67633 0.50775 0.33359 0.0
C1015 C 0.64856 0.48635 0.34764 0.0
H1016 H 0.5566 0.12894 0.33289 0.0
H1017 H 0.50289 0.02572 0.31055 0.0
H1018 H 0.46328 0.03335 0.28543 0.0
H1019 H 0.43915 0.0677 0.27776 0.0
H1020 H 0.49388 0.17128 0.29853 0.0
H1021 H 0.53845 0.16558 0.31576 0.0
C1022 C 0.53672 0.10838 0.32178 0.0
C1023 C 0.53223 0.07676 0.32377 0.0
C1024 C 0.51423 0.11305 0.30731 0.0
C1025 C 0.5067 0.05026 0.3092 0.0
C1026 C 0.48396 0.05459 0.29504 0.0
C1027 C 0.46141 0.08917 0.28507 0.0
C1028 C 0.46337 0.11981 0.28708 0.0
C1029 C 0.48675 0.0856 0.29504 0.0
C1030 C 0.49209 0.14755 0.29661 0.0
C1031 C 0.51736 0.14419 0.30678 0.0
H1032 H 0.7096 0.60302 0.88364 0.0
H1033 H 0.65989 0.49959 0.86224 0.0
H1034 H 0.71049 0.50477 0.84646 0.0
H1035 H 0.76587 0.54117 0.83002 0.0
H1036 H 0.81611 0.64428 0.85271 0.0
H1037 H 0.76862 0.63684 0.87736 0.0
C1038 C 0.71022 0.58142 0.87658 0.0
C1039 C 0.68118 0.551 0.87394 0.0
C1040 C 0.73938 0.5847 0.86741 0.0
C1041 C 0.68204 0.52315 0.86468 0.0
C1042 C 0.7109 0.52622 0.85533 0.0
C1043 C 0.76676 0.56171 0.84129 0.0
C1044 C 0.79422 0.59328 0.83941 0.0
C1045 C 0.73932 0.55719 0.85532 0.0
C1046 C 0.79527 0.61975 0.85404 0.0
C1047 C 0.76798 0.61554 0.86786 0.0
H1048 H 0.39374 0.15225 0.82385 0.0
H1049 H 0.45271 0.24366 0.86867 0.0
H1050 H 0.47691 0.21817 0.89572 0.0
H1051 H 0.48627 0.17124 0.90163 0.0
H1052 H 0.42729 0.08117 0.8545 0.0
H1053 H 0.39774 0.10434 0.83379 0.0
C1054 C 0.41125 0.16627 0.84012 0.0
C1055 C 0.42139 0.19955 0.84449 0.0
C1056 C 0.42531 0.15168 0.85495 0.0
C1057 C 0.44428 0.21778 0.86532 0.0
C1058 C 0.45831 0.20327 0.88053 0.0
C1059 C 0.46647 0.1566 0.88731 0.0
C1060 C 0.45927 0.12472 0.87926 0.0
C1061 C 0.44979 0.17046 0.87487 0.0
C1062 C 0.43362 0.10595 0.86065 0.0
C1063 C 0.41666 0.11915 0.84878 0.0
H1064 H 0.87204 0.30467 0.88778 0.0
H1065 H 0.80751 0.33488 0.8575 0.0
H1066 H 0.77159 0.27972 0.8379 0.0
H1067 H 0.76268 0.22584 0.82395 0.0
H1068 H 0.82834 0.19556 0.8513 0.0
H1069 H 0.85935 0.24736 0.878 0.0
C1070 C 0.84959 0.29868 0.87759 0.0
C1071 C 0.84201 0.32339 0.87422 0.0
C1072 C 0.82956 0.26708 0.8656 0.0
C1073 C 0.81341 0.31593 0.86048 0.0
C1074 C 0.79305 0.28452 0.84916 0.0
C1075 C 0.78347 0.2303 0.83615 0.0
C1076 C 0.7935 0.20716 0.83535 0.0
C1077 C 0.80148 0.26031 0.85076 0.0
C1078 C 0.82019 0.21306 0.85152 0.0
C1079 C 0.83805 0.24278 0.86662 0.0
H1080 H 0.41147 0.20128 0.3737 0.0
H1081 H 0.43084 0.24439 0.29355 0.0
H1082 H 0.45448 0.29881 0.3148 0.0
H1083 H 0.46884 0.33453 0.35549 0.0
H1084 H 0.4487 0.29319 0.43619 0.0
H1085 H 0.42671 0.23806 0.41532 0.0
C1086 C 0.42077 0.22255 0.36089 0.0
C1087 C 0.41916 0.21838 0.33196 0.0
C1088 C 0.43449 0.25429 0.3733 0.0
C1089 C 0.43155 0.24647 0.31581 0.0
C1090 C 0.44523 0.27782 0.32794 0.0
C1091 C 0.45999 0.31362 0.36869 0.0
C1092 C 0.4606 0.31825 0.39746 0.0
C1093 C 0.4468 0.28204 0.3566 0.0
C1094 C 0.44869 0.29054 0.414 0.0
C1095 C 0.43594 0.25892 0.40205 0.0
H1096 H 0.70749 0.12918 0.38401 0.0
H1097 H 0.64066 0.14967 0.3429 0.0
H1098 H 0.68322 0.18708 0.31257 0.0
H1099 H 0.73869 0.21321 0.2971 0.0
H1100 H 0.80613 0.19178 0.33567 0.0
H1101 H 0.76402 0.1551 0.36733 0.0
C1102 C 0.70249 0.14221 0.36861 0.0
C1103 C 0.67106 0.13698 0.36588 0.0
C1104 C 0.72701 0.1631 0.35057 0.0
C1105 C 0.66466 0.15341 0.34546 0.0
C1106 C 0.68895 0.17472 0.32805 0.0
C1107 C 0.74429 0.20051 0.31239 0.0
C1108 C 0.77556 0.20531 0.31406 0.0
C1109 C 0.72008 0.17954 0.33028 0.0
C1110 C 0.78222 0.1884 0.33386 0.0
C1111 C 0.75818 0.16759 0.35206 0.0
H1112 H 0.93594 0.61351 0.32504 0.0
H1113 H 0.87789 0.52331 0.36751 0.0
H1114 H 0.82908 0.52454 0.35588 0.0
H1115 H 0.80258 0.5483 0.3294 0.0
H1116 H 0.86063 0.64032 0.28949 0.0
H1117 H 0.90991 0.64162 0.30446 0.0
C1118 C 0.91263 0.59451 0.33221 0.0
C1119 C 0.91045 0.56823 0.34698 0.0
C1120 C 0.88474 0.59557 0.32563 0.0
C1121 C 0.8802 0.54388 0.35631 0.0
C1122 C 0.85227 0.54443 0.34943 0.0
C1123 C 0.82608 0.56886 0.32434 0.0
C1124 C 0.8281 0.59401 0.3081 0.0
C1125 C 0.85419 0.56967 0.33347 0.0
C1126 C 0.85857 0.62074 0.30197 0.0
C1127 C 0.88668 0.62137 0.31042 0.0
H1128 H 0.5687 0.04319 0.87713 0.0
H1129 H 0.57511 0.12946 0.84325 0.0
H1130 H 0.62459 0.14194 0.81953 0.0
H1131 H 0.66916 0.13158 0.8121 0.0
H1132 H 0.66598 0.0487 0.84987 0.0
H1133 H 0.6125 0.03151 0.86803 0.0
C1134 C 0.5807 0.0643 0.86412 0.0
C1135 C 0.56831 0.08532 0.86182 0.0
C1136 C 0.61001 0.07213 0.85138 0.0
C1137 C 0.58432 0.11297 0.84533 0.0
C1138 C 0.61264 0.12017 0.83178 0.0
C1139 C 0.65641 0.10941 0.82383 0.0
C1140 C 0.67143 0.0914 0.82956 0.0
C1141 C 0.62618 0.1004 0.83517 0.0
C1142 C 0.65491 0.06302 0.84524 0.0
C1143 C 0.62434 0.0532 0.85568 0.0
H1144 H 0.91742 0.47101 0.81622 0.0
H1145 H 0.87492 0.48415 0.88987 0.0
H1146 H 0.86018 0.51921 0.86568 0.0
H1147 H 0.85753 0.54445 0.82355 0.0
H1148 H 0.89743 0.52996 0.74868 0.0
H1149 H 0.91439 0.49663 0.77318 0.0
C1150 C 0.90546 0.4821 0.82697 0.0
C1151 C 0.89763 0.47544 0.85486 0.0
C1152 C 0.896 0.50142 0.81261 0.0
C1153 C 0.88139 0.48918 0.86846 0.0
C1154 C 0.87279 0.50906 0.85461 0.0
C1155 C 0.86988 0.53401 0.81244 0.0
C1156 C 0.87611 0.53979 0.78422 0.0
C1157 C 0.87957 0.51497 0.82662 0.0
C1158 C 0.89205 0.5258 0.77033 0.0
C1159 C 0.90199 0.5069 0.78439 0.0
H1160 H 0.53693 0.425 0.85669 0.0
H1161 H 0.53796 0.47759 0.78513 0.0
H1162 H 0.50689 0.42576 0.75904 0.0
H1163 H 0.47735 0.36531 0.75705 0.0
H1164 H 0.47642 0.31295 0.82877 0.0
H1165 H 0.50989 0.36486 0.85398 0.0
C1166 C 0.53032 0.42519 0.8354 0.0
C1167 C 0.53959 0.45525 0.82304 0.0
C1168 C 0.51263 0.39528 0.8204 0.0
C1169 C 0.53113 0.45489 0.79528 0.0
C1170 C 0.51337 0.42522 0.78028 0.0
C1171 C 0.48489 0.36521 0.77804 0.0
C1172 C 0.47419 0.33513 0.79093 0.0
C1173 C 0.50381 0.39524 0.79266 0.0
C1174 C 0.48411 0.33563 0.81827 0.0
C1175 C 0.50318 0.36535 0.8328 0.0
H1176 H 0.4926 0.67446 0.65573 0.0
H1177 H 0.56865 0.69988 0.59771 0.0
H1178 H 0.59768 0.75667 0.61643 0.0
H1179 H 0.60406 0.79682 0.65365 0.0
H1180 H 0.526 0.76981 0.7104 0.0
H1181 H 0.49494 0.71622 0.68761 0.0
C1182 C 0.51513 0.69276 0.64676 0.0
C1183 C 0.52864 0.68335 0.62557 0.0
C1184 C 0.53148 0.72496 0.65765 0.0
C1185 C 0.55779 0.7069 0.61395 0.0
C1186 C 0.57447 0.73921 0.62483 0.0
C1187 C 0.58007 0.77935 0.66069 0.0
C1188 C 0.56773 0.78706 0.6841 0.0
C1189 C 0.56202 0.74824 0.64735 0.0
C1190 C 0.53638 0.76438 0.69274 0.0
C1191 C 0.51849 0.73363 0.67973 0.0
H1192 H 0.22028 0.79412 0.64689 0.0
H1193 H 0.26609 0.7734 0.71333 0.0
H1194 H 0.31679 0.79917 0.68919 0.0
H1195 H 0.34997 0.83294 0.6521 0.0
H1196 H 0.30641 0.85343 0.58418 0.0
H1197 H 0.25316 0.82236 0.60568 0.0
C1198 C 0.24121 0.79471 0.65573 0.0
C1199 C 0.23942 0.78234 0.68216 0.0
C1200 C 0.27086 0.80987 0.64162 0.0
C1201 C 0.26679 0.78319 0.69328 0.0
C1202 C 0.29594 0.79796 0.6795 0.0
C1203 C 0.32869 0.83013 0.6418 0.0
C1204 C 0.33197 0.84556 0.61683 0.0
C1205 C 0.2985 0.81226 0.65415 0.0
C1206 C 0.30432 0.84159 0.60346 0.0
C1207 C 0.27396 0.82401 0.61585 0.0
H1208 H 0.17964 0.38503 0.65346 0.0
H1209 H 0.24207 0.4834 0.68607 0.0
H1210 H 0.212 0.503 0.66041 0.0
H1211 H 0.16165 0.48995 0.63663 0.0
H1212 H 0.09563 0.39053 0.60852 0.0
H1213 H 0.13334 0.37366 0.62356 0.0
C1214 C 0.18726 0.41092 0.65408 0.0
C1215 C 0.21294 0.43275 0.67162 0.0
C1216 C 0.16884 0.42176 0.6402 0.0
C1217 C 0.22228 0.46615 0.67272 0.0
C1218 C 0.20499 0.47736 0.65815 0.0
C1219 C 0.15632 0.46499 0.63268 0.0
C1220 C 0.12624 0.4416 0.62115 0.0
C1221 C 0.17732 0.45512 0.64288 0.0
C1222 C 0.11896 0.40902 0.61696 0.0
C1223 C 0.14034 0.3993 0.62591 0.0
H1224 H 0.37624 0.92498 0.23009 0.0
H1225 H 0.32335 0.82422 0.20043 0.0
H1226 H 0.37314 0.8291 0.18279 0.0
H1227 H 0.42918 0.86557 0.16785 0.0
H1228 H 0.48261 0.96574 0.199 0.0
H1229 H 0.43542 0.95752 0.22459 0.0
C1230 C 0.37596 0.90376 0.22076 0.0
C1231 C 0.34631 0.87433 0.2164 0.0
C1232 C 0.40466 0.90686 0.21058 0.0
C1233 C 0.34599 0.84698 0.20421 0.0
C1234 C 0.3744 0.84992 0.19382 0.0
C1235 C 0.43074 0.8852 0.18103 0.0
C1236 C 0.45907 0.91631 0.18135 0.0
C1237 C 0.40352 0.88023 0.19568 0.0
C1238 C 0.46104 0.94157 0.19855 0.0
C1239 C 0.43396 0.93695 0.21295 0.0
H1240 H 0.1351 0.48412 0.2296 0.0
H1241 H 0.11988 0.42371 0.15641 0.0
H1242 H 0.09987 0.45336 0.13171 0.0
H1243 H 0.08854 0.49714 0.12946 0.0
H1244 H 0.10063 0.55807 0.20106 0.0
H1245 H 0.11972 0.5275 0.22785 0.0
C1246 C 0.12731 0.47752 0.2083 0.0
C1247 C 0.12945 0.45191 0.19487 0.0
C1248 C 0.11533 0.49477 0.19386 0.0
C1249 C 0.11887 0.44339 0.16733 0.0
C1250 C 0.10734 0.46034 0.15304 0.0
C1251 C 0.09538 0.50386 0.15096 0.0
C1252 C 0.09373 0.53007 0.16319 0.0
C1253 C 0.10586 0.48621 0.16594 0.0
C1254 C 0.10186 0.53797 0.19121 0.0
C1255 C 0.11286 0.52057 0.20642 0.0
H1256 H 0.47709 0.63705 0.20678 0.0
H1257 H 0.57105 0.64947 0.19413 0.0
H1258 H 0.54646 0.5937 0.17412 0.0
H1259 H 0.49862 0.54471 0.15423 0.0
H1260 H 0.40537 0.53561 0.16106 0.0
H1261 H 0.42873 0.58611 0.18974 0.0
C1262 C 0.49194 0.62705 0.20023 0.0
C1263 C 0.52563 0.64685 0.20198 0.0
C1264 C 0.47764 0.59558 0.18757 0.0
C1265 C 0.54497 0.63429 0.19299 0.0
C1266 C 0.53094 0.60253 0.1815 0.0
C1267 C 0.48341 0.55337 0.1628 0.0
C1268 C 0.45041 0.53657 0.15601 0.0
C1269 C 0.49735 0.58335 0.17786 0.0
C1270 C 0.43085 0.54825 0.16638 0.0
C1271 C 0.44423 0.57717 0.18257 0.0
H1272 H 0.15008 0.67128 0.69086 0.0
H1273 H 0.12031 0.62809 0.77052 0.0
H1274 H 0.0991 0.57335 0.74938 0.0
H1275 H 0.08609 0.53756 0.7079 0.0
H1276 H 0.11491 0.58147 0.62836 0.0
H1277 H 0.1392 0.63603 0.65 0.0
C1278 C 0.1393 0.65001 0.70377 0.0
C1279 C 0.13675 0.65398 0.73231 0.0
C1280 C 0.1266 0.6186 0.69146 0.0
C1281 C 0.12263 0.62592 0.74852 0.0
C1282 C 0.11033 0.59454 0.73642 0.0
C1283 C 0.09774 0.55902 0.69526 0.0
C1284 C 0.09837 0.55518 0.66645 0.0
C1285 C 0.11165 0.59054 0.70783 0.0
C1286 C 0.11381 0.58345 0.65053 0.0
C1287 C 0.12781 0.61478 0.66289 0.0
H1288 H 0.32141 0.465 0.68025 0.0
H1289 H 0.37776 0.48355 0.75466 0.0
H1290 H 0.4275 0.51458 0.72883 0.0
H1291 H 0.45518 0.53766 0.68489 0.0
H1292 H 0.39788 0.52067 0.61157 0.0
H1293 H 0.34847 0.4872 0.63701 0.0
C1294 C 0.3445 0.47584 0.69096 0.0
C1295 C 0.34563 0.47193 0.71947 0.0
C1296 C 0.37298 0.49358 0.67601 0.0
C1297 C 0.37598 0.48628 0.7328 0.0
C1298 C 0.40452 0.50389 0.71799 0.0
C1299 C 0.43186 0.52599 0.67448 0.0
C1300 C 0.43008 0.53115 0.64635 0.0
C1301 C 0.40335 0.50767 0.68954 0.0
C1302 C 0.39976 0.51673 0.63317 0.0
C1303 C 0.37151 0.4978 0.64774 0.0
H1304 H 0.57379 0.88945 0.62948 0.0
H1305 H 0.55789 0.90744 0.71389 0.0
H1306 H 0.51747 0.92067 0.69848 0.0
H1307 H 0.4837 0.92315 0.66073 0.0
H1308 H 0.49824 0.90079 0.57737 0.0
H1309 H 0.54249 0.89368 0.59262 0.0
C1310 C 0.56181 0.89652 0.64469 0.0
C1311 C 0.56896 0.89729 0.6729 0.0
C1312 C 0.53833 0.90342 0.63575 0.0
C1313 C 0.5529 0.9065 0.69206 0.0
C1314 C 0.52975 0.91407 0.68324 0.0
C1315 C 0.49715 0.91745 0.64598 0.0
C1316 C 0.48821 0.91293 0.61793 0.0
C1317 C 0.52191 0.91216 0.65512 0.0
C1318 C 0.50506 0.90468 0.59899 0.0
C1319 C 0.53019 0.90045 0.60772 0.0
H1320 H 0.234 0.43489 0.16845 0.0
H1321 H 0.22006 0.35374 0.21669 0.0
H1322 H 0.26963 0.35859 0.19788 0.0
H1323 H 0.31966 0.38989 0.17115 0.0
H1324 H 0.3315 0.46924 0.12126 0.0
H1325 H 0.27973 0.46091 0.13698 0.0
C1326 C 0.24159 0.41792 0.17447 0.0
C1327 C 0.22374 0.39418 0.19406 0.0
C1328 C 0.26975 0.42072 0.16338 0.0
C1329 C 0.23345 0.37209 0.20155 0.0
C1330 C 0.26186 0.37506 0.19094 0.0
C1331 C 0.31063 0.40501 0.16343 0.0
C1332 C 0.32955 0.4304 0.14527 0.0
C1333 C 0.28063 0.39985 0.17237 0.0
C1334 C 0.3174 0.44953 0.13516 0.0
C1335 C 0.28789 0.44491 0.14428 0.0
H1336 H 0.52797 0.87125 0.16474 0.0
H1337 H 0.56746 0.86053 0.08814 0.0
H1338 H 0.58498 0.82642 0.11046 0.0
H1339 H 0.58832 0.79856 0.15201 0.0
H1340 H 0.54626 0.80789 0.2274 0.0
H1341 H 0.53129 0.84413 0.20552 0.0
C1342 C 0.54031 0.86144 0.15277 0.0
C1343 C 0.54618 0.86851 0.12466 0.0
C1344 C 0.55038 0.8419 0.16572 0.0
C1345 C 0.56228 0.8554 0.10971 0.0
C1346 C 0.57255 0.83602 0.12253 0.0
C1347 C 0.57648 0.80916 0.16367 0.0
C1348 C 0.56887 0.80108 0.1914 0.0
C1349 C 0.56683 0.82915 0.15059 0.0
C1350 C 0.55267 0.81411 0.20613 0.0
C1351 C 0.5439 0.83463 0.19357 0.0
H1352 H 0.20533 0.75522 0.19132 0.0
H1353 H 0.20423 0.81495 0.12632 0.0
H1354 H 0.17265 0.76568 0.097 0.0
H1355 H 0.1431 0.70516 0.09065 0.0
H1356 H 0.14528 0.64626 0.15604 0.0
H1357 H 0.17896 0.69567 0.18404 0.0
C1358 C 0.19817 0.75756 0.17076 0.0
C1359 C 0.20689 0.78882 0.16123 0.0
C1360 C 0.18029 0.7292 0.15393 0.0
C1361 C 0.19779 0.79126 0.1343 0.0
C1362 C 0.17972 0.76305 0.11749 0.0
C1363 C 0.15136 0.70313 0.11084 0.0
C1364 C 0.14139 0.67182 0.12115 0.0
C1365 C 0.17061 0.73182 0.12715 0.0
C1366 C 0.1523 0.66986 0.14749 0.0
C1367 C 0.17154 0.69817 0.16365 0.0
H1368 H 0.38041 0.30053 0.01688 0.0
H1369 H 0.37201 0.24704 0.08967 0.0
H1370 H 0.40508 0.29823 0.11588 0.0
H1371 H 0.42286 0.35694 0.12057 0.0
H1372 H 0.42939 0.41019 0.04783 0.0
H1373 H 0.41144 0.3609 0.01922 0.0
C1374 C 0.38726 0.30018 0.03806 0.0
C1375 C 0.37334 0.27034 0.05157 0.0
C1376 C 0.40517 0.32981 0.05332 0.0
C1377 C 0.38224 0.26998 0.07905 0.0
C1378 C 0.40085 0.29926 0.09413 0.0
C1379 C 0.4214 0.35798 0.0984 0.0
C1380 C 0.42611 0.38674 0.08652 0.0
C1381 C 0.41036 0.32926 0.08197 0.0
C1382 C 0.42478 0.38795 0.05764 0.0
C1383 C 0.41453 0.35975 0.04116 0.0
H1384 H 0.62931 0.02053 0.06007 0.0
H1385 H 0.61732 0.01293 0.14814 0.0
H1386 H 0.67586 0.0433 0.15472 0.0
H1387 H 0.72929 0.06332 0.13527 0.0
H1388 H 0.74078 0.06657 0.04707 0.0
H1389 H 0.68335 0.04669 0.0408 0.0
C1390 C 0.63939 0.02592 0.08079 0.0
C1391 C 0.61887 0.0137 0.10358 0.0
C1392 C 0.67294 0.04213 0.08436 0.0
C1393 C 0.63247 0.02166 0.13023 0.0
C1394 C 0.66596 0.03883 0.13399 0.0
C1395 C 0.7194 0.06004 0.11462 0.0
C1396 C 0.7392 0.06562 0.09162 0.0
C1397 C 0.68628 0.04774 0.11116 0.0
C1398 C 0.72605 0.06202 0.06511 0.0
C1399 C 0.69319 0.05058 0.06151 0.0
H1400 H 0.94137 0.6587 0.13001 0.0
H1401 H 0.91981 0.64532 0.04273 0.0
H1402 H 0.942 0.60917 0.0389 0.0
H1403 H 0.97597 0.59018 0.0586 0.0
H1404 H 0.00266 0.60856 0.14478 0.0
H1405 H 0.96915 0.63332 0.15094 0.0
C1406 C 0.94102 0.64754 0.11015 0.0
C1407 C 0.92973 0.65549 0.0865 0.0
C1408 C 0.95495 0.62789 0.10792 0.0
C1409 C 0.92877 0.64008 0.06116 0.0
C1410 C 0.94158 0.6195 0.05895 0.0
C1411 C 0.9741 0.59913 0.07888 0.0
C1412 C 0.99248 0.59838 0.10108 0.0
C1413 C 0.9561 0.61462 0.08193 0.0
C1414 C 0.98903 0.60915 0.12733 0.0
C1415 C 0.9701 0.62356 0.13077 0.0
H1416 H 0.28392 0.3443 0.38152 0.0
H1417 H 0.27349 0.34438 0.46976 0.0
H1418 H 0.33199 0.38002 0.4753 0.0
H1419 H 0.38557 0.40188 0.45565 0.0
H1420 H 0.39582 0.39567 0.36776 0.0
H1421 H 0.33765 0.372 0.3615 0.0
C1422 C 0.29428 0.35245 0.40204 0.0
C1423 C 0.27432 0.34091 0.42529 0.0
C1424 C 0.32791 0.37146 0.40508 0.0
C1425 C 0.2882 0.35254 0.45156 0.0
C1426 C 0.32169 0.37271 0.45472 0.0
C1427 C 0.37529 0.39582 0.435 0.0
C1428 C 0.39505 0.39979 0.4122 0.0
C1429 C 0.34177 0.38086 0.4317 0.0
C1430 C 0.38125 0.39255 0.38566 0.0
C1431 C 0.34794 0.37883 0.38211 0.0
H1432 H 0.61062 0.98409 0.44331 0.0
H1433 H 0.60174 0.98708 0.35519 0.0
H1434 H 0.62588 0.95295 0.34862 0.0
H1435 H 0.65811 0.93141 0.36765 0.0
H1436 H 0.67099 0.9326 0.45567 0.0
H1437 H 0.63603 0.95543 0.46251 0.0
C1438 C 0.61347 0.97688 0.42263 0.0
C1439 C 0.60523 0.98893 0.39974 0.0
C1440 C 0.62839 0.95831 0.419 0.0
C1441 C 0.60827 0.97857 0.37316 0.0
C1442 C 0.62225 0.9592 0.36939 0.0
C1443 C 0.65291 0.93616 0.38839 0.0
C1444 C 0.66792 0.93119 0.4111 0.0
C1445 C 0.63381 0.95036 0.39213 0.0
C1446 C 0.66016 0.93662 0.43781 0.0
C1447 C 0.64031 0.94986 0.44173 0.0
H1448 H 0.12449 0.74227 0.42067 0.0
H1449 H 0.08017 0.69323 0.49561 0.0
H1450 H 0.06054 0.63983 0.47207 0.0
H1451 H 0.04505 0.60859 0.42829 0.0
H1452 H 0.08261 0.65866 0.35215 0.0
H1453 H 0.11607 0.71032 0.37804 0.0
C1454 C 0.11132 0.71985 0.43206 0.0
C1455 C 0.10299 0.72148 0.45961 0.0
C1456 C 0.0982 0.68954 0.41792 0.0
C1457 C 0.08668 0.69253 0.47439 0.0
C1458 C 0.07505 0.66204 0.46077 0.0
C1459 C 0.06093 0.63067 0.41727 0.0
C1460 C 0.06053 0.63002 0.38822 0.0
C1461 C 0.07883 0.66041 0.43219 0.0
C1462 C 0.08201 0.6586 0.37441 0.0
C1463 C 0.10106 0.68814 0.38922 0.0
H1464 H 0.62016 0.61536 0.94434 0.0
H1465 H 0.62049 0.6174 0.85564 0.0
H1466 H 0.64942 0.67749 0.85795 0.0
H1467 H 0.67563 0.72897 0.88508 0.0
H1468 H 0.67416 0.7275 0.97376 0.0
H1469 H 0.6442 0.66721 0.97162 0.0
C1470 C 0.62657 0.62899 0.92552 0.0
C1471 C 0.61852 0.61213 0.89983 0.0
C1472 C 0.64282 0.6634 0.92704 0.0
C1473 C 0.62653 0.62993 0.87561 0.0
C1474 C 0.64306 0.66421 0.87694 0.0
C1475 C 0.6687 0.71547 0.90397 0.0
C1476 C 0.67725 0.73249 0.92956 0.0
C1477 C 0.65147 0.68112 0.90252 0.0
C1478 C 0.66779 0.71481 0.95385 0.0
C1479 C 0.6508 0.68043 0.95261 0.0
H1480 H 0.28323 0.96292 0.88931 0.0
H1481 H 0.27424 0.96228 0.97754 0.0
H1482 H 0.33227 0.98365 0.9829 0.0
H1483 H 0.38619 0.01164 0.96225 0.0
H1484 H 0.39521 0.01319 0.87405 0.0
H1485 H 0.33631 0.98142 0.86874 0.0
C1486 C 0.29393 0.9668 0.90971 0.0
C1487 C 0.27478 0.96169 0.93305 0.0
C1488 C 0.32721 0.9793 0.91253 0.0
C1489 C 0.2886 0.96618 0.95934 0.0
C1490 C 0.32177 0.97857 0.96236 0.0
C1491 C 0.37517 0.00399 0.9419 0.0
C1492 C 0.3948 0.01482 0.91853 0.0
C1493 C 0.34143 0.98651 0.9391 0.0
C1494 C 0.38052 0.00484 0.89226 0.0
C1495 C 0.34687 0.9871 0.88927 0.0
H1496 H 0.0243 0.31249 0.87306 0.0
H1497 H 0.05077 0.33389 0.95901 0.0
H1498 H 0.02525 0.36726 0.96188 0.0
H1499 H 0.98651 0.38065 0.94199 0.0
H1500 H 0.95933 0.35856 0.85627 0.0
H1501 H 0.99454 0.33552 0.85093 0.0
C1502 C 0.02527 0.32531 0.8922 0.0
C1503 C 0.03888 0.32049 0.91592 0.0
C1504 C 0.01011 0.34388 0.89372 0.0
C1505 C 0.04043 0.33737 0.94054 0.0
C1506 C 0.02556 0.35612 0.94221 0.0
C1507 C 0.98917 0.37169 0.92197 0.0
C1508 C 0.97031 0.37087 0.89956 0.0
C1509 C 0.00901 0.35815 0.91927 0.0
C1510 C 0.97382 0.35947 0.87367 0.0
C1511 C 0.99367 0.34605 0.87074 0.0
H1512 H 0.72016 0.69811 0.62146 0.0
H1513 H 0.72366 0.68057 0.5344 0.0
H1514 H 0.66464 0.64653 0.53237 0.0
H1515 H 0.61253 0.62995 0.55401 0.0
H1516 H 0.60892 0.64795 0.64089 0.0
H1517 H 0.66772 0.67313 0.64464 0.0
C1518 C 0.70797 0.68627 0.60215 0.0
C1519 C 0.72604 0.69224 0.57797 0.0
C1520 C 0.67417 0.66703 0.60118 0.0
C1521 C 0.71019 0.67637 0.5532 0.0
C1522 C 0.67649 0.65711 0.55204 0.0
C1523 C 0.62462 0.63854 0.5739 0.0
C1524 C 0.60672 0.63744 0.59715 0.0
C1525 C 0.65828 0.65343 0.57568 0.0
C1526 C 0.62231 0.64841 0.62284 0.0
C1527 C 0.6559 0.66312 0.62486 0.0
H1528 H 0.31381 0.02438 0.61788 0.0
H1529 H 0.30474 0.0303 0.53032 0.0
H1530 H 0.33711 0.00452 0.52212 0.0
H1531 H 0.3599 0.97235 0.53997 0.0
H1532 H 0.36909 0.96646 0.62748 0.0
H1533 H 0.34517 0.00079 0.63579 0.0
C1534 C 0.31958 0.02066 0.59703 0.0
C1535 C 0.30658 0.02866 0.57467 0.0
C1536 C 0.3379 0.00564 0.59256 0.0
C1537 C 0.31451 0.02429 0.54777 0.0
C1538 C 0.33276 0.00932 0.54312 0.0
C1539 C 0.35735 0.97932 0.56085 0.0
C1540 C 0.36574 0.96669 0.58315 0.0
C1541 C 0.34338 0.99871 0.56535 0.0
C1542 C 0.3628 0.97602 0.61009 0.0
C1543 C 0.34888 0.99536 0.61479 0.0
H1544 H 0.00264 0.38862 0.55271 0.0
H1545 H 0.00319 0.3905 0.64151 0.0
H1546 H 0.96996 0.33044 0.64098 0.0
H1547 H 0.94353 0.27783 0.61527 0.0
H1548 H 0.94226 0.27576 0.52649 0.0
H1549 H 0.97303 0.336 0.52695 0.0
C1550 C 0.99538 0.37588 0.57197 0.0
C1551 C 0.00554 0.39378 0.59715 0.0
C1552 C 0.9763 0.34157 0.57145 0.0
C1553 C 0.99565 0.37714 0.62192 0.0
C1554 C 0.97677 0.34288 0.6216 0.0
C1555 C 0.94984 0.29056 0.59599 0.0
C1556 C 0.94103 0.27255 0.57084 0.0
C1557 C 0.96738 0.32492 0.59648 0.0
C1558 C 0.94889 0.28922 0.54605 0.0
C1559 C 0.96653 0.32356 0.54634 0.0
H1560 H 0.95957 0.68015 0.71037 0.0
H1561 H 0.94933 0.69429 0.79715 0.0
H1562 H 0.00796 0.72804 0.80231 0.0
H1563 H 0.06128 0.74534 0.78391 0.0
H1564 H 0.07137 0.72606 0.69832 0.0
H1565 H 0.01344 0.70321 0.6908 0.0
C1566 C 0.96998 0.69098 0.73041 0.0
C1567 C 0.94992 0.68402 0.75351 0.0
C1568 C 0.00369 0.70926 0.73343 0.0
C1569 C 0.96406 0.69882 0.77911 0.0
C1570 C 0.99762 0.71804 0.78208 0.0
C1571 C 0.05097 0.7366 0.76345 0.0
C1572 C 0.07056 0.73669 0.74181 0.0
C1573 C 0.01758 0.72215 0.75964 0.0
C1574 C 0.05689 0.72608 0.71535 0.0
C1575 C 0.0237 0.71273 0.71114 0.0
H1576 H 0.27181 0.3232 0.79446 0.0
H1577 H 0.26642 0.32513 0.7059 0.0
H1578 H 0.2896 0.28982 0.70159 0.0
H1579 H 0.3194 0.26676 0.72277 0.0
H1580 H 0.32958 0.26967 0.81125 0.0
H1581 H 0.29611 0.2946 0.81575 0.0
C1582 C 0.27521 0.31556 0.77413 0.0
C1583 C 0.26805 0.3275 0.75048 0.0
C1584 C 0.28982 0.29654 0.77183 0.0
C1585 C 0.27194 0.31661 0.72441 0.0
C1586 C 0.28544 0.29663 0.72196 0.0
C1587 C 0.31406 0.27244 0.74314 0.0
C1588 C 0.3277 0.26703 0.76667 0.0
C1589 C 0.29581 0.28778 0.74551 0.0
C1590 C 0.31978 0.27387 0.79281 0.0
C1591 C 0.30074 0.28827 0.79537 0.0
H1592 H 0.72382 0.97447 0.69061 0.0
H1593 H 0.71237 0.91553 0.7603 0.0
H1594 H 0.74422 0.9647 0.78924 0.0
H1595 H 0.7628 0.02345 0.79694 0.0
H1596 H 0.77278 0.08205 0.72707 0.0
H1597 H 0.75506 0.03471 0.69613 0.0
C1598 C 0.72976 0.97252 0.71173 0.0
C1599 C 0.71541 0.94162 0.72352 0.0
C1600 C 0.74717 0.00104 0.72852 0.0
C1601 C 0.723 0.93926 0.75097 0.0
C1602 C 0.74094 0.96739 0.76761 0.0
C1603 C 0.76217 0.02606 0.77489 0.0
C1604 C 0.76803 0.05593 0.76448 0.0
C1605 C 0.75122 0.99837 0.75706 0.0
C1606 C 0.76752 0.05905 0.73575 0.0
C1607 C 0.75733 0.03193 0.71793 0.0
H1608 H 0.28135 0.94814 0.2133 0.0
H1609 H 0.29416 0.93068 0.29769 0.0
H1610 H 0.32166 0.98946 0.30871 0.0
H1611 H 0.34402 0.04659 0.29399 0.0
H1612 H 0.33307 0.06362 0.20908 0.0
H1613 H 0.30268 0.0047 0.19884 0.0
C1614 C 0.29009 0.95723 0.23409 0.0
C1615 C 0.28576 0.93509 0.25455 0.0
C1616 C 0.30615 0.99115 0.2403 0.0
C1617 C 0.29727 0.94724 0.28144 0.0
C1618 C 0.31296 0.98089 0.28785 0.0
C1619 C 0.33454 0.03724 0.27342 0.0
C1620 C 0.3407 0.05929 0.25237 0.0
C1621 C 0.31771 0.00317 0.26742 0.0
C1622 C 0.32871 0.04702 0.22563 0.0
C1623 C 0.31137 0.01333 0.2197 0.0
H1624 H 0.94487 0.30257 0.28109 0.0
H1625 H 0.93863 0.31279 0.19379 0.0
H1626 H 0.99492 0.32849 0.18867 0.0
H1627 H 0.04812 0.34875 0.21004 0.0
H1628 H 0.05594 0.34357 0.29766 0.0
H1629 H 0.9972 0.31566 0.30162 0.0
C1630 C 0.95571 0.3075 0.26092 0.0
C1631 C 0.93782 0.30714 0.23798 0.0
C1632 C 0.98857 0.31748 0.25818 0.0
C1633 C 0.95213 0.31357 0.2119 0.0
C1634 C 0.98432 0.32247 0.20889 0.0
C1635 C 0.03673 0.34012 0.22975 0.0
C1636 C 0.05603 0.34768 0.25345 0.0
C1637 C 0.00314 0.3258 0.23201 0.0
C1638 C 0.0413 0.33744 0.2791 0.0
C1639 C 0.00777 0.32192 0.2814 0.0
H1640 H 0.69394 0.63526 0.21405 0.0
H1641 H 0.70728 0.64434 0.30216 0.0
H1642 H 0.68287 0.6788 0.30484 0.0
H1643 H 0.64929 0.69755 0.28273 0.0
H1644 H 0.63603 0.68855 0.19466 0.0
H1645 H 0.66958 0.66343 0.19109 0.0
C1646 C 0.6922 0.64552 0.23375 0.0
C1647 C 0.70188 0.637 0.25796 0.0
C1648 C 0.67803 0.66508 0.23505 0.0
C1649 C 0.69996 0.65063 0.28332 0.0
C1650 C 0.6858 0.67009 0.28483 0.0
C1651 C 0.65473 0.69107 0.2627 0.0
C1652 C 0.64018 0.69461 0.23897 0.0
C1653 C 0.67355 0.67626 0.26095 0.0
C1654 C 0.64722 0.68624 0.21311 0.0
C1655 C 0.66606 0.67154 0.21115 0.0
loop_
_geom_bond_atom_site_label_1
_geom_bond_atom_site_label_2
_geom_bond_distance
_geom_bond_site_symmetry_2
_ccdc_geom_bond_type
Co0 O1 2.216 . S
Co0 O2 2.091 . S
Co0 O4 2.004 . S
Co0 O10 2.021 . S
Co0 O12 2.137 . S
Co0 O13 2.244 . S
O1 Co0 2.216 . S
O1 C8 1.247 . S
O2 Co0 2.091 . S
O2 C8 1.261 . S
C3 O12 1.247 . S
C3 O13 1.272 . S
O4 Co0 2.004 . S
O4 C9 1.259 . S
Co5 O6 2.061 1_556 S
Co5 O11 2.052 1_556 S
Co5 O13 2.135 1_556 S
O6 Co5 2.061 1_554 S
O6 C9 1.235 . S
C7 O10 1.238 . S
C7 O11 1.241 . S
C8 O1 1.247 . S
C8 O2 1.261 . S
C9 O4 1.259 . S
C9 O6 1.235 . S
O10 Co0 2.021 . S
O10 C7 1.238 . S
O11 Co5 2.052 1_554 S
O11 C7 1.241 . S
O12 Co0 2.137 . S
O12 C3 1.247 . S
O13 Co0 2.244 . S
O13 C3 1.272 . S
O13 Co5 2.135 1_554 S
Co14 O15 2.216 . S
Co14 O16 2.091 . S
Co14 O18 2.004 . S
Co14 O24 2.021 . S
Co14 O26 2.137 . S
Co14 O27 2.244 . S
O15 Co14 2.216 . S
O15 C22 1.247 . S
O16 Co14 2.091 . S
O16 C22 1.261 . S
C17 O26 1.247 . S
C17 O27 1.272 . S
O18 Co14 2.004 . S
O18 C23 1.259 . S
Co19 O20 2.061 . S
Co19 O25 2.052 . S
Co19 O27 2.135 . S
O20 Co19 2.061 . S
O20 C23 1.235 . S
C21 O24 1.238 . S
C21 O25 1.241 . S
C22 O15 1.247 . S
C22 O16 1.261 . S
C23 O18 1.259 . S
C23 O20 1.235 . S
O24 Co14 2.021 . S
O24 C21 1.238 . S
O25 Co19 2.052 . S
O25 C21 1.241 . S
O26 Co14 2.137 . S
O26 C17 1.247 . S
O27 Co14 2.244 . S
O27 C17 1.272 . S
O27 Co19 2.135 . S
Co28 O29 2.216 . S
Co28 O30 2.091 . S
Co28 O32 2.004 . S
Co28 O38 2.021 . S
Co28 O40 2.137 . S
Co28 O41 2.244 . S
O29 Co28 2.216 . S
O29 C36 1.247 . S
O30 Co28 2.091 . S
O30 C36 1.261 . S
C31 O40 1.247 . S
C31 O41 1.272 . S
O32 Co28 2.004 . S
O32 C37 1.259 . S
Co33 O34 2.061 . S
Co33 O39 2.052 . S
Co33 O41 2.135 . S
O34 Co33 2.061 . S
O34 C37 1.235 . S
C35 O38 1.238 . S
C35 O39 1.241 . S
C36 O29 1.247 . S
C36 O30 1.261 . S
C37 O32 1.259 . S
C37 O34 1.235 . S
O38 Co28 2.021 . S
O38 C35 1.238 . S
O39 Co33 2.052 . S
O39 C35 1.241 . S
O40 Co28 2.137 . S
O40 C31 1.247 . S
O41 Co28 2.244 . S
O41 C31 1.272 . S
O41 Co33 2.135 . S
Co42 O43 2.216 . S
Co42 O44 2.091 . S
Co42 O46 2.004 . S
Co42 O52 2.021 . S
Co42 O54 2.137 . S
Co42 O55 2.244 . S
O43 Co42 2.216 . S
O43 C50 1.247 . S
O44 Co42 2.091 . S
O44 C50 1.261 . S
C45 O54 1.247 . S
C45 O55 1.272 . S
O46 Co42 2.004 . S
O46 C51 1.259 . S
Co47 O48 2.061 . S
Co47 O53 2.052 . S
Co47 O55 2.135 . S
O48 Co47 2.061 . S
O48 C51 1.235 . S
C49 O52 1.238 . S
C49 O53 1.241 . S
C50 O43 1.247 . S
C50 O44 1.261 . S
C51 O46 1.259 . S
C51 O48 1.235 . S
O52 Co42 2.021 . S
O52 C49 1.238 . S
O53 Co47 2.052 . S
O53 C49 1.241 . S
O54 Co42 2.137 . S
O54 C45 1.247 . S
O55 Co42 2.244 . S
O55 C45 1.272 . S
O55 Co47 2.135 . S
Co56 O57 2.216 . S
Co56 O58 2.091 . S
Co56 O60 2.004 . S
Co56 O66 2.021 . S
Co56 O68 2.137 . S
Co56 O69 2.244 . S
O57 Co56 2.216 . S
O57 C64 1.247 . S
O58 Co56 2.091 . S
O58 C64 1.261 . S
C59 O68 1.247 . S
C59 O69 1.272 . S
O60 Co56 2.004 . S
O60 C65 1.259 . S
Co61 O62 2.061 . S
Co61 O67 2.052 . S
Co61 O69 2.135 . S
O62 Co61 2.061 . S
O62 C65 1.235 . S
C63 O66 1.238 . S
C63 O67 1.241 . S
C64 O57 1.247 . S
C64 O58 1.261 . S
C65 O60 1.259 . S
C65 O62 1.235 . S
O66 Co56 2.021 . S
O66 C63 1.238 . S
O67 Co61 2.052 . S
O67 C63 1.241 . S
O68 Co56 2.137 . S
O68 C59 1.247 . S
O69 Co56 2.244 . S
O69 C59 1.272 . S
O69 Co61 2.135 . S
Co70 O71 2.216 . S
Co70 O72 2.091 . S
Co70 O74 2.004 . S
Co70 O80 2.021 . S
Co70 O82 2.137 . S
Co70 O83 2.244 . S
O71 Co70 2.216 . S
O71 C78 1.247 . S
O72 Co70 2.091 . S
O72 C78 1.261 . S
C73 O82 1.247 . S
C73 O83 1.272 . S
O74 Co70 2.004 . S
O74 C79 1.259 . S
Co75 O76 2.061 . S
Co75 O81 2.052 . S
Co75 O83 2.135 . S
O76 Co75 2.061 . S
O76 C79 1.235 . S
C77 O80 1.238 . S
C77 O81 1.241 . S
C78 O71 1.247 . S
C78 O72 1.261 . S
C79 O74 1.259 . S
C79 O76 1.235 . S
O80 Co70 2.021 . S
O80 C77 1.238 . S
O81 Co75 2.052 . S
O81 C77 1.241 . S
O82 Co70 2.137 . S
O82 C73 1.247 . S
O83 Co70 2.244 . S
O83 C73 1.272 . S
O83 Co75 2.135 . S
Co84 O85 2.216 . S
Co84 O86 2.091 . S
Co84 O88 2.004 . S
Co84 O94 2.021 . S
Co84 O96 2.137 . S
Co84 O97 2.244 . S
O85 Co84 2.216 . S
O85 C92 1.247 . S
O86 Co84 2.091 . S
O86 C92 1.261 . S
C87 O96 1.247 . S
C87 O97 1.272 . S
O88 Co84 2.004 . S
O88 C93 1.259 . S
Co89 O90 2.061 . S
Co89 O95 2.052 . S
Co89 O97 2.135 . S
O90 Co89 2.061 . S
O90 C93 1.235 . S
C91 O94 1.238 . S
C91 O95 1.241 . S
C92 O85 1.247 . S
C92 O86 1.261 . S
C93 O88 1.259 . S
C93 O90 1.235 . S
O94 Co84 2.021 . S
O94 C91 1.238 . S
O95 Co89 2.052 . S
O95 C91 1.241 . S
O96 Co84 2.137 . S
O96 C87 1.247 . S
O97 Co84 2.244 . S
O97 C87 1.272 . S
O97 Co89 2.135 . S
Co98 O99 2.216 . S
Co98 O100 2.091 . S
Co98 O102 2.004 . S
Co98 O108 2.021 . S
Co98 O110 2.137 . S
Co98 O111 2.244 . S
O99 Co98 2.216 . S
O99 C106 1.247 . S
O100 Co98 2.091 . S
O100 C106 1.261 . S
C101 O110 1.247 . S
C101 O111 1.272 . S
O102 Co98 2.004 . S
O102 C107 1.259 . S
Co103 O104 2.061 . S
Co103 O109 2.052 . S
Co103 O111 2.135 . S
O104 Co103 2.061 . S
O104 C107 1.235 . S
C105 O108 1.238 . S
C105 O109 1.241 . S
C106 O99 1.247 . S
C106 O100 1.261 . S
C107 O102 1.259 . S
C107 O104 1.235 . S
O108 Co98 2.021 . S
O108 C105 1.238 . S
O109 Co103 2.052 . S
O109 C105 1.241 . S
O110 Co98 2.137 . S
O110 C101 1.247 . S
O111 Co98 2.244 . S
O111 C101 1.272 . S
O111 Co103 2.135 . S
Co112 O113 2.216 . S
Co112 O114 2.091 . S
Co112 O116 2.004 . S
Co112 O122 2.021 . S
Co112 O124 2.137 . S
Co112 O125 2.244 . S
O113 Co112 2.216 . S
O113 C120 1.247 . S
O114 Co112 2.091 . S
O114 C120 1.261 . S
C115 O124 1.247 . S
C115 O125 1.272 . S
O116 Co112 2.004 . S
O116 C121 1.259 . S
Co117 O118 2.061 . S
Co117 O123 2.052 . S
Co117 O125 2.135 . S
O118 Co117 2.061 . S
O118 C121 1.235 . S
C119 O122 1.238 . S
C119 O123 1.241 . S
C120 O113 1.247 . S
C120 O114 1.261 . S
C121 O116 1.259 . S
C121 O118 1.235 . S
O122 Co112 2.021 . S
O122 C119 1.238 . S
O123 Co117 2.052 . S
O123 C119 1.241 . S
O124 Co112 2.137 . S
O124 C115 1.247 . S
O125 Co112 2.244 . S
O125 C115 1.272 . S
O125 Co117 2.135 . S
Co126 O127 2.216 . S
Co126 O128 2.091 . S
Co126 O130 2.004 . S
Co126 O136 2.021 . S
Co126 O138 2.137 . S
Co126 O139 2.244 . S
O127 Co126 2.216 . S
O127 C134 1.247 . S
O128 Co126 2.091 . S
O128 C134 1.261 . S
C129 O138 1.247 . S
C129 O139 1.272 . S
O130 Co126 2.004 . S
O130 C135 1.259 . S
Co131 O132 2.061 . S
Co131 O137 2.052 . S
Co131 O139 2.135 . S
O132 Co131 2.061 . S
O132 C135 1.235 . S
C133 O136 1.238 . S
C133 O137 1.241 . S
C134 O127 1.247 . S
C134 O128 1.261 . S
C135 O130 1.259 . S
C135 O132 1.235 . S
O136 Co126 2.021 . S
O136 C133 1.238 . S
O137 Co131 2.052 . S
O137 C133 1.241 . S
O138 Co126 2.137 . S
O138 C129 1.247 . S
O139 Co126 2.244 . S
O139 C129 1.272 . S
O139 Co131 2.135 . S
Co140 O141 2.216 . S
Co140 O142 2.091 . S
Co140 O144 2.004 . S
Co140 O150 2.021 . S
Co140 O152 2.137 . S
Co140 O153 2.244 . S
O141 Co140 2.216 . S
O141 C148 1.247 . S
O142 Co140 2.091 . S
O142 C148 1.261 . S
C143 O152 1.247 . S
C143 O153 1.272 . S
O144 Co140 2.004 . S
O144 C149 1.259 . S
Co145 O146 2.061 . S
Co145 O151 2.052 . S
Co145 O153 2.135 . S
O146 Co145 2.061 . S
O146 C149 1.235 . S
C147 O150 1.238 . S
C147 O151 1.241 . S
C148 O141 1.247 . S
C148 O142 1.261 . S
C149 O144 1.259 . S
C149 O146 1.235 . S
O150 Co140 2.021 . S
O150 C147 1.238 . S
O151 Co145 2.052 . S
O151 C147 1.241 . S
O152 Co140 2.137 . S
O152 C143 1.247 . S
O153 Co140 2.244 . S
O153 C143 1.272 . S
O153 Co145 2.135 . S
Co154 O155 2.216 . S
Co154 O156 2.091 . S
Co154 O158 2.004 . S
Co154 O164 2.021 . S
Co154 O166 2.137 . S
Co154 O167 2.244 . S
O155 Co154 2.216 . S
O155 C162 1.247 . S
O156 Co154 2.091 . S
O156 C162 1.261 . S
C157 O166 1.247 . S
C157 O167 1.272 . S
O158 Co154 2.004 . S
O158 C163 1.259 . S
Co159 O160 2.061 . S
Co159 O165 2.052 . S
Co159 O167 2.135 . S
O160 Co159 2.061 . S
O160 C163 1.235 . S
C161 O164 1.238 . S
C161 O165 1.241 . S
C162 O155 1.247 . S
C162 O156 1.261 . S
C163 O158 1.259 . S
C163 O160 1.235 . S
O164 Co154 2.021 . S
O164 C161 1.238 . S
O165 Co159 2.052 . S
O165 C161 1.241 . S
O166 Co154 2.137 . S
O166 C157 1.247 . S
O167 Co154 2.244 . S
O167 C157 1.272 . S
O167 Co159 2.135 . S
Co168 O169 2.216 . S
Co168 O170 2.091 . S
Co168 O172 2.004 . S
Co168 O178 2.021 . S
Co168 O180 2.137 . S
Co168 O181 2.244 . S
O169 Co168 2.216 . S
O169 C176 1.247 . S
O170 Co168 2.091 . S
O170 C176 1.261 . S
C171 O180 1.247 . S
C171 O181 1.272 . S
O172 Co168 2.004 . S
O172 C177 1.259 . S
Co173 O174 2.061 . S
Co173 O179 2.052 . S
Co173 O181 2.135 . S
O174 Co173 2.061 . S
O174 C177 1.235 . S
C175 O178 1.238 . S
C175 O179 1.241 . S
C176 O169 1.247 . S
C176 O170 1.261 . S
C177 O172 1.259 . S
C177 O174 1.235 . S
O178 Co168 2.021 . S
O178 C175 1.238 . S
O179 Co173 2.052 . S
O179 C175 1.241 . S
O180 Co168 2.137 . S
O180 C171 1.247 . S
O181 Co168 2.244 . S
O181 C171 1.272 . S
O181 Co173 2.135 . S
Co182 O183 2.216 . S
Co182 O184 2.091 . S
Co182 O186 2.004 . S
Co182 O192 2.021 . S
Co182 O194 2.137 . S
Co182 O195 2.244 . S
O183 Co182 2.216 . S
O183 C190 1.247 . S
O184 Co182 2.091 . S
O184 C190 1.261 . S
C185 O194 1.247 . S
C185 O195 1.272 . S
O186 Co182 2.004 . S
O186 C191 1.259 . S
Co187 O188 2.061 . S
Co187 O193 2.052 . S
Co187 O195 2.135 . S
O188 Co187 2.061 . S
O188 C191 1.235 . S
C189 O192 1.238 . S
C189 O193 1.241 . S
C190 O183 1.247 . S
C190 O184 1.261 . S
C191 O186 1.259 . S
C191 O188 1.235 . S
O192 Co182 2.021 . S
O192 C189 1.238 . S
O193 Co187 2.052 . S
O193 C189 1.241 . S
O194 Co182 2.137 . S
O194 C185 1.247 . S
O195 Co182 2.244 . S
O195 C185 1.272 . S
O195 Co187 2.135 . S
Co196 O197 2.216 . S
Co196 O198 2.091 . S
Co196 O200 2.004 . S
Co196 O206 2.021 . S
Co196 O208 2.137 . S
Co196 O209 2.244 . S
O197 Co196 2.216 . S
O197 C204 1.247 . S
O198 Co196 2.091 . S
O198 C204 1.261 . S
C199 O208 1.247 . S
C199 O209 1.272 . S
O200 Co196 2.004 . S
O200 C205 1.259 . S
Co201 O202 2.061 . S
Co201 O207 2.052 . S
Co201 O209 2.135 . S
O202 Co201 2.061 . S
O202 C205 1.235 . S
C203 O206 1.238 . S
C203 O207 1.241 . S
C204 O197 1.247 . S
C204 O198 1.261 . S
C205 O200 1.259 . S
C205 O202 1.235 . S
O206 Co196 2.021 . S
O206 C203 1.238 . S
O207 Co201 2.052 . S
O207 C203 1.241 . S
O208 Co196 2.137 . S
O208 C199 1.247 . S
O209 Co196 2.244 . S
O209 C199 1.272 . S
O209 Co201 2.135 . S
Co210 O211 2.216 . S
Co210 O212 2.091 . S
Co210 O214 2.004 . S
Co210 O220 2.021 . S
Co210 O222 2.137 . S
Co210 O223 2.244 . S
O211 Co210 2.216 . S
O211 C218 1.247 . S
O212 Co210 2.091 . S
O212 C218 1.261 . S
C213 O222 1.247 . S
C213 O223 1.272 . S
O214 Co210 2.004 . S
O214 C219 1.259 . S
Co215 O216 2.061 . S
Co215 O221 2.052 . S
Co215 O223 2.135 . S
O216 Co215 2.061 . S
O216 C219 1.235 . S
C217 O220 1.238 . S
C217 O221 1.241 . S
C218 O211 1.247 . S
C218 O212 1.261 . S
C219 O214 1.259 . S
C219 O216 1.235 . S
O220 Co210 2.021 . S
O220 C217 1.238 . S
O221 Co215 2.052 . S
O221 C217 1.241 . S
O222 Co210 2.137 . S
O222 C213 1.247 . S
O223 Co210 2.244 . S
O223 C213 1.272 . S
O223 Co215 2.135 . S
Co224 O225 2.216 . S
Co224 O226 2.091 . S
Co224 O228 2.004 . S
Co224 O234 2.021 . S
Co224 O236 2.137 . S
Co224 O237 2.244 . S
O225 Co224 2.216 . S
O225 C232 1.247 . S
O226 Co224 2.091 . S
O226 C232 1.261 . S
C227 O236 1.247 . S
C227 O237 1.272 . S
O228 Co224 2.004 . S
O228 C233 1.259 . S
Co229 O230 2.061 . S
Co229 O235 2.052 . S
Co229 O237 2.135 . S
O230 Co229 2.061 . S
O230 C233 1.235 . S
C231 O234 1.238 . S
C231 O235 1.241 . S
C232 O225 1.247 . S
C232 O226 1.261 . S
C233 O228 1.259 . S
C233 O230 1.235 . S
O234 Co224 2.021 . S
O234 C231 1.238 . S
O235 Co229 2.052 . S
O235 C231 1.241 . S
O236 Co224 2.137 . S
O236 C227 1.247 . S
O237 Co224 2.244 . S
O237 C227 1.272 . S
O237 Co229 2.135 . S
Co238 O239 2.216 . S
Co238 O240 2.091 . S
Co238 O242 2.004 . S
Co238 O248 2.021 . S
Co238 O250 2.137 . S
Co238 O251 2.244 . S
O239 Co238 2.216 . S
O239 C246 1.247 . S
O240 Co238 2.091 . S
O240 C246 1.261 . S
C241 O250 1.247 . S
C241 O251 1.272 . S
O242 Co238 2.004 . S
O242 C247 1.259 . S
Co243 O244 2.061 . S
Co243 O249 2.052 . S
Co243 O251 2.135 . S
O244 Co243 2.061 . S
O244 C247 1.235 . S
C245 O248 1.238 . S
C245 O249 1.241 . S
C246 O239 1.247 . S
C246 O240 1.261 . S
C247 O242 1.259 . S
C247 O244 1.235 . S
O248 Co238 2.021 . S
O248 C245 1.238 . S
O249 Co243 2.052 . S
O249 C245 1.241 . S
O250 Co238 2.137 . S
O250 C241 1.247 . S
O251 Co238 2.244 . S
O251 C241 1.272 . S
O251 Co243 2.135 . S
Co252 O253 2.216 . S
Co252 O254 2.091 . S
Co252 O256 2.004 . S
Co252 O262 2.021 . S
Co252 O264 2.137 . S
Co252 O265 2.244 . S
O253 Co252 2.216 . S
O253 C260 1.247 . S
O254 Co252 2.091 . S
O254 C260 1.261 . S
C255 O264 1.247 . S
C255 O265 1.272 . S
O256 Co252 2.004 . S
O256 C261 1.259 . S
Co257 O258 2.061 . S
Co257 O263 2.052 . S
Co257 O265 2.135 . S
O258 Co257 2.061 . S
O258 C261 1.235 . S
C259 O262 1.238 . S
C259 O263 1.241 . S
C260 O253 1.247 . S
C260 O254 1.261 . S
C261 O256 1.259 . S
C261 O258 1.235 . S
O262 Co252 2.021 . S
O262 C259 1.238 . S
O263 Co257 2.052 . S
O263 C259 1.241 . S
O264 Co252 2.137 . S
O264 C255 1.247 . S
O265 Co252 2.244 . S
O265 C255 1.272 . S
O265 Co257 2.135 . S
Co266 O267 2.216 . S
Co266 O268 2.091 . S
Co266 O270 2.004 . S
Co266 O276 2.021 . S
Co266 O278 2.137 . S
Co266 O279 2.244 . S
O267 Co266 2.216 . S
O267 C274 1.247 . S
O268 Co266 2.091 . S
O268 C274 1.261 . S
C269 O278 1.247 . S
C269 O279 1.272 . S
O270 Co266 2.004 . S
O270 C275 1.259 . S
Co271 O272 2.061 . S
Co271 O277 2.052 . S
Co271 O279 2.135 . S
O272 Co271 2.061 . S
O272 C275 1.235 . S
C273 O276 1.238 . S
C273 O277 1.241 . S
C274 O267 1.247 . S
C274 O268 1.261 . S
C275 O270 1.259 . S
C275 O272 1.235 . S
O276 Co266 2.021 . S
O276 C273 1.238 . S
O277 Co271 2.052 . S
O277 C273 1.241 . S
O278 Co266 2.137 . S
O278 C269 1.247 . S
O279 Co266 2.244 . S
O279 C269 1.272 . S
O279 Co271 2.135 . S
Co280 O281 2.216 . S
Co280 O282 2.091 . S
Co280 O284 2.004 . S
Co280 O290 2.021 . S
Co280 O292 2.137 . S
Co280 O293 2.244 . S
O281 Co280 2.216 . S
O281 C288 1.247 . S
O282 Co280 2.091 . S
O282 C288 1.261 . S
C283 O292 1.247 . S
C283 O293 1.272 . S
O284 Co280 2.004 . S
O284 C289 1.259 . S
Co285 O286 2.061 . S
Co285 O291 2.052 . S
Co285 O293 2.135 . S
O286 Co285 2.061 . S
O286 C289 1.235 . S
C287 O290 1.238 . S
C287 O291 1.241 . S
C288 O281 1.247 . S
C288 O282 1.261 . S
C289 O284 1.259 . S
C289 O286 1.235 . S
O290 Co280 2.021 . S
O290 C287 1.238 . S
O291 Co285 2.052 . S
O291 C287 1.241 . S
O292 Co280 2.137 . S
O292 C283 1.247 . S
O293 Co280 2.244 . S
O293 C283 1.272 . S
O293 Co285 2.135 . S
Co294 O295 2.216 . S
Co294 O296 2.091 . S
Co294 O298 2.004 . S
Co294 O304 2.021 . S
Co294 O306 2.137 . S
Co294 O307 2.244 . S
O295 Co294 2.216 . S
O295 C302 1.247 . S
O296 Co294 2.091 . S
O296 C302 1.261 . S
C297 O306 1.247 . S
C297 O307 1.272 . S
O298 Co294 2.004 . S
O298 C303 1.259 . S
Co299 O300 2.061 . S
Co299 O305 2.052 . S
Co299 O307 2.135 . S
O300 Co299 2.061 . S
O300 C303 1.235 . S
C301 O304 1.238 . S
C301 O305 1.241 . S
C302 O295 1.247 . S
C302 O296 1.261 . S
C303 O298 1.259 . S
C303 O300 1.235 . S
O304 Co294 2.021 . S
O304 C301 1.238 . S
O305 Co299 2.052 . S
O305 C301 1.241 . S
O306 Co294 2.137 . S
O306 C297 1.247 . S
O307 Co294 2.244 . S
O307 C297 1.272 . S
O307 Co299 2.135 . S
Co308 O309 2.216 . S
Co308 O310 2.091 . S
Co308 O312 2.004 . S
Co308 O318 2.021 . S
Co308 O320 2.137 . S
Co308 O321 2.244 . S
O309 Co308 2.216 . S
O309 C316 1.247 . S
O310 Co308 2.091 . S
O310 C316 1.261 . S
C311 O320 1.247 . S
C311 O321 1.272 . S
O312 Co308 2.004 . S
O312 C317 1.259 . S
Co313 O314 2.061 . S
Co313 O319 2.052 . S
Co313 O321 2.135 . S
O314 Co313 2.061 . S
O314 C317 1.235 . S
C315 O318 1.238 . S
C315 O319 1.241 . S
C316 O309 1.247 . S
C316 O310 1.261 . S
C317 O312 1.259 . S
C317 O314 1.235 . S
O318 Co308 2.021 . S
O318 C315 1.238 . S
O319 Co313 2.052 . S
O319 C315 1.241 . S
O320 Co308 2.137 . S
O320 C311 1.247 . S
O321 Co308 2.244 . S
O321 C311 1.272 . S
O321 Co313 2.135 . S
Co322 O323 2.216 . S
Co322 O324 2.091 . S
Co322 O326 2.004 . S
Co322 O332 2.021 . S
Co322 O334 2.137 . S
Co322 O335 2.244 . S
O323 Co322 2.216 . S
O323 C330 1.247 . S
O324 Co322 2.091 . S
O324 C330 1.261 . S
C325 O334 1.247 . S
C325 O335 1.272 . S
O326 Co322 2.004 . S
O326 C331 1.259 . S
Co327 O328 2.061 . S
Co327 O333 2.052 . S
Co327 O335 2.135 . S
O328 Co327 2.061 . S
O328 C331 1.235 . S
C329 O332 1.238 . S
C329 O333 1.241 . S
C330 O323 1.247 . S
C330 O324 1.261 . S
C331 O326 1.259 . S
C331 O328 1.235 . S
O332 Co322 2.021 . S
O332 C329 1.238 . S
O333 Co327 2.052 . S
O333 C329 1.241 . S
O334 Co322 2.137 . S
O334 C325 1.247 . S
O335 Co322 2.244 . S
O335 C325 1.272 . S
O335 Co327 2.135 . S
Co336 O337 2.216 . S
Co336 O338 2.091 . S
Co336 O340 2.004 . S
Co336 O346 2.021 . S
Co336 O348 2.137 . S
Co336 O349 2.244 . S
O337 Co336 2.216 . S
O337 C344 1.247 . S
O338 Co336 2.091 . S
O338 C344 1.261 . S
C339 O348 1.247 . S
C339 O349 1.272 . S
O340 Co336 2.004 . S
O340 C345 1.259 . S
Co341 O342 2.061 . S
Co341 O347 2.052 . S
Co341 O349 2.135 . S
O342 Co341 2.061 . S
O342 C345 1.235 . S
C343 O346 1.238 . S
C343 O347 1.241 . S
C344 O337 1.247 . S
C344 O338 1.261 . S
C345 O340 1.259 . S
C345 O342 1.235 . S
O346 Co336 2.021 . S
O346 C343 1.238 . S
O347 Co341 2.052 . S
O347 C343 1.241 . S
O348 Co336 2.137 . S
O348 C339 1.247 . S
O349 Co336 2.244 . S
O349 C339 1.272 . S
O349 Co341 2.135 . S
Co350 O351 2.216 . S
Co350 O352 2.091 . S
Co350 O354 2.004 . S
Co350 O360 2.021 . S
Co350 O362 2.137 . S
Co350 O363 2.244 . S
O351 Co350 2.216 . S
O351 C358 1.247 . S
O352 Co350 2.091 . S
O352 C358 1.261 . S
C353 O362 1.247 . S
C353 O363 1.272 . S
O354 Co350 2.004 . S
O354 C359 1.259 . S
Co355 O356 2.061 . S
Co355 O361 2.052 . S
Co355 O363 2.135 . S
O356 Co355 2.061 . S
O356 C359 1.235 . S
C357 O360 1.238 . S
C357 O361 1.241 . S
C358 O351 1.247 . S
C358 O352 1.261 . S
C359 O354 1.259 . S
C359 O356 1.235 . S
O360 Co350 2.021 . S
O360 C357 1.238 . S
O361 Co355 2.052 . S
O361 C357 1.241 . S
O362 Co350 2.137 . S
O362 C353 1.247 . S
O363 Co350 2.244 . S
O363 C353 1.272 . S
O363 Co355 2.135 . S
Co364 O365 2.216 . S
Co364 O366 2.091 . S
Co364 O368 2.004 . S
Co364 O374 2.021 . S
Co364 O376 2.137 . S
Co364 O377 2.244 . S
O365 Co364 2.216 . S
O365 C372 1.247 . S
O366 Co364 2.091 . S
O366 C372 1.261 . S
C367 O376 1.247 . S
C367 O377 1.272 . S
O368 Co364 2.004 . S
O368 C373 1.259 . S
Co369 O370 2.061 . S
Co369 O375 2.052 . S
Co369 O377 2.135 . S
O370 Co369 2.061 . S
O370 C373 1.235 . S
C371 O374 1.238 . S
C371 O375 1.241 . S
C372 O365 1.247 . S
C372 O366 1.261 . S
C373 O368 1.259 . S
C373 O370 1.235 . S
O374 Co364 2.021 . S
O374 C371 1.238 . S
O375 Co369 2.052 . S
O375 C371 1.241 . S
O376 Co364 2.137 . S
O376 C367 1.247 . S
O377 Co364 2.244 . S
O377 C367 1.272 . S
O377 Co369 2.135 . S
Co378 O379 2.216 . S
Co378 O380 2.091 . S
Co378 O382 2.004 . S
Co378 O388 2.021 . S
Co378 O390 2.137 . S
Co378 O391 2.244 . S
O379 Co378 2.216 . S
O379 C386 1.247 . S
O380 Co378 2.091 . S
O380 C386 1.261 . S
C381 O390 1.247 . S
C381 O391 1.272 . S
O382 Co378 2.004 . S
O382 C387 1.259 . S
Co383 O384 2.061 . S
Co383 O389 2.052 . S
Co383 O391 2.135 . S
O384 Co383 2.061 . S
O384 C387 1.235 . S
C385 O388 1.238 . S
C385 O389 1.241 . S
C386 O379 1.247 . S
C386 O380 1.261 . S
C387 O382 1.259 . S
C387 O384 1.235 . S
O388 Co378 2.021 . S
O388 C385 1.238 . S
O389 Co383 2.052 . S
O389 C385 1.241 . S
O390 Co378 2.137 . S
O390 C381 1.247 . S
O391 Co378 2.244 . S
O391 C381 1.272 . S
O391 Co383 2.135 . S
Co392 O393 2.216 . S
Co392 O394 2.091 . S
Co392 O396 2.004 . S
Co392 O402 2.021 . S
Co392 O404 2.137 . S
Co392 O405 2.244 . S
O393 Co392 2.216 . S
O393 C400 1.247 . S
O394 Co392 2.091 . S
O394 C400 1.261 . S
C395 O404 1.247 . S
C395 O405 1.272 . S
O396 Co392 2.004 . S
O396 C401 1.259 . S
Co397 O398 2.061 . S
Co397 O403 2.052 . S
Co397 O405 2.135 . S
O398 Co397 2.061 . S
O398 C401 1.235 . S
C399 O402 1.238 . S
C399 O403 1.241 . S
C400 O393 1.247 . S
C400 O394 1.261 . S
C401 O396 1.259 . S
C401 O398 1.235 . S
O402 Co392 2.021 . S
O402 C399 1.238 . S
O403 Co397 2.052 . S
O403 C399 1.241 . S
O404 Co392 2.137 . S
O404 C395 1.247 . S
O405 Co392 2.244 . S
O405 C395 1.272 . S
O405 Co397 2.135 . S
Co406 O407 2.216 . S
Co406 O408 2.091 . S
Co406 O410 2.004 . S
Co406 O416 2.021 . S
Co406 O418 2.137 . S
Co406 O419 2.244 . S
O407 Co406 2.216 . S
O407 C414 1.247 . S
O408 Co406 2.091 . S
O408 C414 1.261 . S
C409 O418 1.247 . S
C409 O419 1.272 . S
O410 Co406 2.004 . S
O410 C415 1.259 . S
Co411 O412 2.061 . S
Co411 O417 2.052 . S
Co411 O419 2.135 . S
O412 Co411 2.061 . S
O412 C415 1.235 . S
C413 O416 1.238 . S
C413 O417 1.241 . S
C414 O407 1.247 . S
C414 O408 1.261 . S
C415 O410 1.259 . S
C415 O412 1.235 . S
O416 Co406 2.021 . S
O416 C413 1.238 . S
O417 Co411 2.052 . S
O417 C413 1.241 . S
O418 Co406 2.137 . S
O418 C409 1.247 . S
O419 Co406 2.244 . S
O419 C409 1.272 . S
O419 Co411 2.135 . S
Co420 O421 2.216 . S
Co420 O422 2.091 . S
Co420 O424 2.004 . S
Co420 O430 2.021 . S
Co420 O432 2.137 . S
Co420 O433 2.244 . S
O421 Co420 2.216 . S
O421 C428 1.247 . S
O422 Co420 2.091 . S
O422 C428 1.261 . S
C423 O432 1.247 . S
C423 O433 1.272 . S
O424 Co420 2.004 . S
O424 C429 1.259 . S
Co425 O426 2.061 . S
Co425 O431 2.052 . S
Co425 O433 2.135 . S
O426 Co425 2.061 . S
O426 C429 1.235 . S
C427 O430 1.238 . S
C427 O431 1.241 . S
C428 O421 1.247 . S
C428 O422 1.261 . S
C429 O424 1.259 . S
C429 O426 1.235 . S
O430 Co420 2.021 . S
O430 C427 1.238 . S
O431 Co425 2.052 . S
O431 C427 1.241 . S
O432 Co420 2.137 . S
O432 C423 1.247 . S
O433 Co420 2.244 . S
O433 C423 1.272 . S
O433 Co425 2.135 . S
Co434 O435 2.216 . S
Co434 O436 2.091 . S
Co434 O438 2.004 . S
Co434 O444 2.021 . S
Co434 O446 2.137 . S
Co434 O447 2.244 . S
O435 Co434 2.216 . S
O435 C442 1.247 . S
O436 Co434 2.091 . S
O436 C442 1.261 . S
C437 O446 1.247 . S
C437 O447 1.272 . S
O438 Co434 2.004 . S
O438 C443 1.259 . S
Co439 O440 2.061 . S
Co439 O445 2.052 . S
Co439 O447 2.135 . S
O440 Co439 2.061 . S
O440 C443 1.235 . S
C441 O444 1.238 . S
C441 O445 1.241 . S
C442 O435 1.247 . S
C442 O436 1.261 . S
C443 O438 1.259 . S
C443 O440 1.235 . S
O444 Co434 2.021 . S
O444 C441 1.238 . S
O445 Co439 2.052 . S
O445 C441 1.241 . S
O446 Co434 2.137 . S
O446 C437 1.247 . S
O447 Co434 2.244 . S
O447 C437 1.272 . S
O447 Co439 2.135 . S
Co448 O449 2.216 . S
Co448 O450 2.091 . S
Co448 O452 2.004 . S
Co448 O458 2.021 . S
Co448 O460 2.137 . S
Co448 O461 2.244 . S
O449 Co448 2.216 . S
O449 C456 1.247 . S
O450 Co448 2.091 . S
O450 C456 1.261 . S
C451 O460 1.247 . S
C451 O461 1.272 . S
O452 Co448 2.004 . S
O452 C457 1.259 . S
Co453 O454 2.061 . S
Co453 O459 2.052 . S
Co453 O461 2.135 . S
O454 Co453 2.061 . S
O454 C457 1.235 . S
C455 O458 1.238 . S
C455 O459 1.241 . S
C456 O449 1.247 . S
C456 O450 1.261 . S
C457 O452 1.259 . S
C457 O454 1.235 . S
O458 Co448 2.021 . S
O458 C455 1.238 . S
O459 Co453 2.052 . S
O459 C455 1.241 . S
O460 Co448 2.137 . S
O460 C451 1.247 . S
O461 Co448 2.244 . S
O461 C451 1.272 . S
O461 Co453 2.135 . S
Co462 O463 2.216 . S
Co462 O464 2.091 . S
Co462 O466 2.004 . S
Co462 O472 2.021 . S
Co462 O474 2.137 . S
Co462 O475 2.244 . S
O463 Co462 2.216 . S
O463 C470 1.247 . S
O464 Co462 2.091 . S
O464 C470 1.261 . S
C465 O474 1.247 . S
C465 O475 1.272 . S
O466 Co462 2.004 . S
O466 C471 1.259 . S
Co467 O468 2.061 . S
Co467 O473 2.052 . S
Co467 O475 2.135 . S
O468 Co467 2.061 . S
O468 C471 1.235 . S
C469 O472 1.238 . S
C469 O473 1.241 . S
C470 O463 1.247 . S
C470 O464 1.261 . S
C471 O466 1.259 . S
C471 O468 1.235 . S
O472 Co462 2.021 . S
O472 C469 1.238 . S
O473 Co467 2.052 . S
O473 C469 1.241 . S
O474 Co462 2.137 . S
O474 C465 1.247 . S
O475 Co462 2.244 . S
O475 C465 1.272 . S
O475 Co467 2.135 . S
Co476 O477 2.216 . S
Co476 O478 2.091 . S
Co476 O480 2.004 . S
Co476 O486 2.021 . S
Co476 O488 2.137 . S
Co476 O489 2.244 . S
O477 Co476 2.216 . S
O477 C484 1.247 . S
O478 Co476 2.091 . S
O478 C484 1.261 . S
C479 O488 1.247 . S
C479 O489 1.272 . S
O480 Co476 2.004 . S
O480 C485 1.259 . S
Co481 O482 2.061 . S
Co481 O487 2.052 . S
Co481 O489 2.135 . S
O482 Co481 2.061 . S
O482 C485 1.235 . S
C483 O486 1.238 . S
C483 O487 1.241 . S
C484 O477 1.247 . S
C484 O478 1.261 . S
C485 O480 1.259 . S
C485 O482 1.235 . S
O486 Co476 2.021 . S
O486 C483 1.238 . S
O487 Co481 2.052 . S
O487 C483 1.241 . S
O488 Co476 2.137 . S
O488 C479 1.247 . S
O489 Co476 2.244 . S
O489 C479 1.272 . S
O489 Co481 2.135 . S
Co490 O491 2.216 . S
Co490 O492 2.091 . S
Co490 O494 2.004 . S
Co490 O500 2.021 . S
Co490 O502 2.137 . S
Co490 O503 2.244 . S
O491 Co490 2.216 . S
O491 C498 1.247 . S
O492 Co490 2.091 . S
O492 C498 1.261 . S
C493 O502 1.247 . S
C493 O503 1.272 . S
O494 Co490 2.004 . S
O494 C499 1.259 . S
Co495 O496 2.061 . S
Co495 O501 2.052 . S
Co495 O503 2.135 . S
O496 Co495 2.061 . S
O496 C499 1.235 . S
C497 O500 1.238 . S
C497 O501 1.241 . S
C498 O491 1.247 . S
C498 O492 1.261 . S
C499 O494 1.259 . S
C499 O496 1.235 . S
O500 Co490 2.021 . S
O500 C497 1.238 . S
O501 Co495 2.052 . S
O501 C497 1.241 . S
O502 Co490 2.137 . S
O502 C493 1.247 . S
O503 Co490 2.244 . S
O503 C493 1.272 . S
O503 Co495 2.135 . S
H504 C510 0.930 . S
H505 C513 0.930 . S
H506 C514 0.930 . S
H507 C515 0.930 . S
H508 C518 0.930 . S
H509 C519 0.930 . S
C510 H504 0.930 . S
C510 C511 1.355 . S
C510 C512 1.415 . S
C511 C510 1.355 . S
C511 C513 1.419 . S
C512 C510 1.415 . S
C512 C517 1.425 . S
C512 C519 1.409 . S
C513 H505 0.930 . S
C513 C511 1.419 . S
C513 C514 1.362 . S
C514 H506 0.930 . S
C514 C513 1.362 . S
C514 C517 1.409 . S
C515 H507 0.930 . S
C515 C516 1.355 . S
C515 C517 1.415 . S
C516 C515 1.355 . S
C516 C518 1.419 . S
C517 C512 1.425 . S
C517 C514 1.409 . S
C517 C515 1.415 . S
C518 H508 0.930 . S
C518 C516 1.419 . S
C518 C519 1.362 . S
C519 H509 0.930 . S
C519 C512 1.409 . S
C519 C518 1.362 . S
H520 C526 0.930 . S
H521 C529 0.930 . S
H522 C530 0.930 . S
H523 C531 0.930 . S
H524 C534 0.930 . S
H525 C535 0.930 . S
C526 H520 0.930 . S
C526 C527 1.355 . S
C526 C528 1.415 . S
C527 C526 1.355 . S
C527 C529 1.419 . S
C528 C526 1.415 . S
C528 C533 1.425 . S
C528 C535 1.409 . S
C529 H521 0.930 . S
C529 C527 1.419 . S
C529 C530 1.362 . S
C530 H522 0.930 . S
C530 C529 1.362 . S
C530 C533 1.409 . S
C531 H523 0.930 . S
C531 C532 1.355 . S
C531 C533 1.415 . S
C532 C531 1.355 . S
C532 C534 1.419 . S
C533 C528 1.425 . S
C533 C530 1.409 . S
C533 C531 1.415 . S
C534 H524 0.930 . S
C534 C532 1.419 . S
C534 C535 1.362 . S
C535 H525 0.930 . S
C535 C528 1.409 . S
C535 C534 1.362 . S
H536 C542 0.930 . S
H537 C545 0.930 . S
H538 C546 0.930 . S
H539 C547 0.930 . S
H540 C550 0.930 . S
H541 C551 0.930 . S
C542 H536 0.930 . S
C542 C543 1.355 . S
C542 C544 1.415 . S
C543 C542 1.355 . S
C543 C545 1.419 . S
C544 C542 1.415 . S
C544 C549 1.425 . S
C544 C551 1.409 . S
C545 H537 0.930 . S
C545 C543 1.419 . S
C545 C546 1.362 . S
C546 H538 0.930 . S
C546 C545 1.362 . S
C546 C549 1.409 . S
C547 H539 0.930 . S
C547 C548 1.355 . S
C547 C549 1.415 . S
C548 C547 1.355 . S
C548 C550 1.419 . S
C549 C544 1.425 . S
C549 C546 1.409 . S
C549 C547 1.415 . S
C550 H540 0.930 . S
C550 C548 1.419 . S
C550 C551 1.362 . S
C551 H541 0.930 . S
C551 C544 1.409 . S
C551 C550 1.362 . S
H552 C558 0.930 . S
H553 C561 0.930 . S
H554 C562 0.930 . S
H555 C563 0.930 . S
H556 C566 0.930 . S
H557 C567 0.930 . S
C558 H552 0.930 . S
C558 C559 1.355 . S
C558 C560 1.415 . S
C559 C558 1.355 . S
C559 C561 1.419 . S
C560 C558 1.415 . S
C560 C565 1.425 . S
C560 C567 1.409 . S
C561 H553 0.930 . S
C561 C559 1.419 . S
C561 C562 1.362 . S
C562 H554 0.930 . S
C562 C561 1.362 . S
C562 C565 1.409 . S
C563 H555 0.930 . S
C563 C564 1.355 . S
C563 C565 1.415 . S
C564 C563 1.355 . S
C564 C566 1.419 . S
C565 C560 1.425 . S
C565 C562 1.409 . S
C565 C563 1.415 . S
C566 H556 0.930 . S
C566 C564 1.419 . S
C566 C567 1.362 . S
C567 H557 0.930 . S
C567 C560 1.409 . S
C567 C566 1.362 . S
H568 C574 0.930 . S
H569 C577 0.930 . S
H570 C578 0.930 . S
H571 C579 0.930 . S
H572 C582 0.930 . S
H573 C583 0.930 . S
C574 H568 0.930 . S
C574 C575 1.355 . S
C574 C576 1.415 . S
C575 C574 1.355 . S
C575 C577 1.419 . S
C576 C574 1.415 . S
C576 C581 1.425 . S
C576 C583 1.409 . S
C577 H569 0.930 . S
C577 C575 1.419 . S
C577 C578 1.362 . S
C578 H570 0.930 . S
C578 C577 1.362 . S
C578 C581 1.409 . S
C579 H571 0.930 . S
C579 C580 1.355 . S
C579 C581 1.415 . S
C580 C579 1.355 . S
C580 C582 1.419 . S
C581 C576 1.425 . S
C581 C578 1.409 . S
C581 C579 1.415 . S
C582 H572 0.930 . S
C582 C580 1.419 . S
C582 C583 1.362 . S
C583 H573 0.930 . S
C583 C576 1.409 . S
C583 C582 1.362 . S
H584 C590 0.930 . S
H585 C593 0.930 . S
H586 C594 0.930 . S
H587 C595 0.930 . S
H588 C598 0.930 . S
H589 C599 0.930 . S
C590 H584 0.930 . S
C590 C591 1.355 . S
C590 C592 1.415 . S
C591 C590 1.355 . S
C591 C593 1.419 . S
C592 C590 1.415 . S
C592 C597 1.425 . S
C592 C599 1.409 . S
C593 H585 0.930 . S
C593 C591 1.419 . S
C593 C594 1.362 . S
C594 H586 0.930 . S
C594 C593 1.362 . S
C594 C597 1.409 . S
C595 H587 0.930 . S
C595 C596 1.355 . S
C595 C597 1.415 . S
C596 C595 1.355 . S
C596 C598 1.419 . S
C597 C592 1.425 . S
C597 C594 1.409 . S
C597 C595 1.415 . S
C598 H588 0.930 . S
C598 C596 1.419 . S
C598 C599 1.362 . S
C599 H589 0.930 . S
C599 C592 1.409 . S
C599 C598 1.362 . S
H600 C606 0.930 . S
H601 C609 0.930 . S
H602 C610 0.930 . S
H603 C611 0.930 . S
H604 C614 0.930 . S
H605 C615 0.930 . S
C606 H600 0.930 . S
C606 C607 1.355 . S
C606 C608 1.415 . S
C607 C606 1.355 . S
C607 C609 1.419 . S
C608 C606 1.415 . S
C608 C613 1.425 . S
C608 C615 1.409 . S
C609 H601 0.930 . S
C609 C607 1.419 . S
C609 C610 1.362 . S
C610 H602 0.930 . S
C610 C609 1.362 . S
C610 C613 1.409 . S
C611 H603 0.930 . S
C611 C612 1.355 . S
C611 C613 1.415 . S
C612 C611 1.355 . S
C612 C614 1.419 . S
C613 C608 1.425 . S
C613 C610 1.409 . S
C613 C611 1.415 . S
C614 H604 0.930 . S
C614 C612 1.419 . S
C614 C615 1.362 . S
C615 H605 0.930 . S
C615 C608 1.409 . S
C615 C614 1.362 . S
H616 C622 0.930 . S
H617 C625 0.930 . S
H618 C626 0.930 . S
H619 C627 0.930 . S
H620 C630 0.930 . S
H621 C631 0.930 . S
C622 H616 0.930 . S
C622 C623 1.355 . S
C622 C624 1.415 . S
C623 C622 1.355 . S
C623 C625 1.419 . S
C624 C622 1.415 . S
C624 C629 1.425 . S
C624 C631 1.409 . S
C625 H617 0.930 . S
C625 C623 1.419 . S
C625 C626 1.362 . S
C626 H618 0.930 . S
C626 C625 1.362 . S
C626 C629 1.409 . S
C627 H619 0.930 . S
C627 C628 1.355 . S
C627 C629 1.415 . S
C628 C627 1.355 . S
C628 C630 1.419 . S
C629 C624 1.425 . S
C629 C626 1.409 . S
C629 C627 1.415 . S
C630 H620 0.930 . S
C630 C628 1.419 . S
C630 C631 1.362 . S
C631 H621 0.930 . S
C631 C624 1.409 . S
C631 C630 1.362 . S
H632 C638 0.930 . S
H633 C641 0.930 . S
H634 C642 0.930 . S
H635 C643 0.930 . S
H636 C646 0.930 . S
H637 C647 0.930 . S
C638 H632 0.930 . S
C638 C639 1.355 . S
C638 C640 1.415 . S
C639 C638 1.355 . S
C639 C641 1.419 . S
C640 C638 1.415 . S
C640 C645 1.425 . S
C640 C647 1.409 . S
C641 H633 0.930 . S
C641 C639 1.419 . S
C641 C642 1.362 . S
C642 H634 0.930 . S
C642 C641 1.362 . S
C642 C645 1.409 . S
C643 H635 0.930 . S
C643 C644 1.355 . S
C643 C645 1.415 . S
C644 C643 1.355 . S
C644 C646 1.419 . S
C645 C640 1.425 . S
C645 C642 1.409 . S
C645 C643 1.415 . S
C646 H636 0.930 . S
C646 C644 1.419 . S
C646 C647 1.362 . S
C647 H637 0.930 . S
C647 C640 1.409 . S
C647 C646 1.362 . S
H648 C654 0.930 . S
H649 C657 0.930 . S
H650 C658 0.930 . S
H651 C659 0.930 . S
H652 C662 0.930 . S
H653 C663 0.930 . S
C654 H648 0.930 . S
C654 C655 1.355 . S
C654 C656 1.415 . S
C655 C654 1.355 . S
C655 C657 1.419 . S
C656 C654 1.415 . S
C656 C661 1.425 . S
C656 C663 1.409 . S
C657 H649 0.930 . S
C657 C655 1.419 . S
C657 C658 1.362 . S
C658 H650 0.930 . S
C658 C657 1.362 . S
C658 C661 1.409 . S
C659 H651 0.930 . S
C659 C660 1.355 . S
C659 C661 1.415 . S
C660 C659 1.355 . S
C660 C662 1.419 . S
C661 C656 1.425 . S
C661 C658 1.409 . S
C661 C659 1.415 . S
C662 H652 0.930 . S
C662 C660 1.419 . S
C662 C663 1.362 . S
C663 H653 0.930 . S
C663 C656 1.409 . S
C663 C662 1.362 . S
H664 C670 0.930 . S
H665 C673 0.930 . S
H666 C674 0.930 . S
H667 C675 0.930 . S
H668 C678 0.930 . S
H669 C679 0.930 . S
C670 H664 0.930 . S
C670 C671 1.355 . S
C670 C672 1.415 . S
C671 C670 1.355 . S
C671 C673 1.419 . S
C672 C670 1.415 . S
C672 C677 1.425 . S
C672 C679 1.409 . S
C673 H665 0.930 . S
C673 C671 1.419 . S
C673 C674 1.362 . S
C674 H666 0.930 . S
C674 C673 1.362 . S
C674 C677 1.409 . S
C675 H667 0.930 . S
C675 C676 1.355 . S
C675 C677 1.415 . S
C676 C675 1.355 . S
C676 C678 1.419 . S
C677 C672 1.425 . S
C677 C674 1.409 . S
C677 C675 1.415 . S
C678 H668 0.930 . S
C678 C676 1.419 . S
C678 C679 1.362 . S
C679 H669 0.930 . S
C679 C672 1.409 . S
C679 C678 1.362 . S
H680 C686 0.930 . S
H681 C689 0.930 . S
H682 C690 0.930 . S
H683 C691 0.930 . S
H684 C694 0.930 . S
H685 C695 0.930 . S
C686 H680 0.930 . S
C686 C687 1.355 . S
C686 C688 1.415 . S
C687 C686 1.355 . S
C687 C689 1.419 . S
C688 C686 1.415 . S
C688 C693 1.425 . S
C688 C695 1.409 . S
C689 H681 0.930 . S
C689 C687 1.419 . S
C689 C690 1.362 . S
C690 H682 0.930 . S
C690 C689 1.362 . S
C690 C693 1.409 . S
C691 H683 0.930 . S
C691 C692 1.355 . S
C691 C693 1.415 . S
C692 C691 1.355 . S
C692 C694 1.419 . S
C693 C688 1.425 . S
C693 C690 1.409 . S
C693 C691 1.415 . S
C694 H684 0.930 . S
C694 C692 1.419 . S
C694 C695 1.362 . S
C695 H685 0.930 . S
C695 C688 1.409 . S
C695 C694 1.362 . S
H696 C702 0.930 . S
H697 C705 0.930 . S
H698 C706 0.930 . S
H699 C707 0.930 . S
H700 C710 0.930 . S
H701 C711 0.930 . S
C702 H696 0.930 . S
C702 C703 1.355 . S
C702 C704 1.415 . S
C703 C702 1.355 . S
C703 C705 1.419 . S
C704 C702 1.415 . S
C704 C709 1.425 1_655 S
C704 C711 1.409 . S
C705 H697 0.930 . S
C705 C703 1.419 . S
C705 C706 1.362 1_655 S
C706 H698 0.930 . S
C706 C705 1.362 1_455 S
C706 C709 1.409 . S
C707 H699 0.930 . S
C707 C708 1.355 . S
C707 C709 1.415 . S
C708 C707 1.355 . S
C708 C710 1.419 . S
C709 C704 1.425 1_455 S
C709 C706 1.409 . S
C709 C707 1.415 . S
C710 H700 0.930 . S
C710 C708 1.419 . S
C710 C711 1.362 1_455 S
C711 H701 0.930 . S
C711 C704 1.409 . S
C711 C710 1.362 1_655 S
H712 C718 0.930 . S
H713 C721 0.930 . S
H714 C722 0.930 . S
H715 C723 0.930 . S
H716 C726 0.930 . S
H717 C727 0.930 . S
C718 H712 0.930 . S
C718 C719 1.355 . S
C718 C720 1.415 . S
C719 C718 1.355 . S
C719 C721 1.419 . S
C720 C718 1.415 . S
C720 C725 1.425 . S
C720 C727 1.409 . S
C721 H713 0.930 . S
C721 C719 1.419 . S
C721 C722 1.362 . S
C722 H714 0.930 . S
C722 C721 1.362 . S
C722 C725 1.409 . S
C723 H715 0.930 . S
C723 C724 1.355 . S
C723 C725 1.415 . S
C724 C723 1.355 . S
C724 C726 1.419 . S
C725 C720 1.425 . S
C725 C722 1.409 . S
C725 C723 1.415 . S
C726 H716 0.930 . S
C726 C724 1.419 . S
C726 C727 1.362 . S
C727 H717 0.930 . S
C727 C720 1.409 . S
C727 C726 1.362 . S
H728 C734 0.930 . S
H729 C737 0.930 . S
H730 C738 0.930 . S
H731 C739 0.930 . S
H732 C742 0.930 . S
H733 C743 0.930 . S
C734 H728 0.930 . S
C734 C735 1.355 . S
C734 C736 1.415 . S
C735 C734 1.355 . S
C735 C737 1.419 . S
C736 C734 1.415 . S
C736 C741 1.425 1_545 S
C736 C743 1.409 1_545 S
C737 H729 0.930 . S
C737 C735 1.419 . S
C737 C738 1.362 . S
C738 H730 0.930 . S
C738 C737 1.362 . S
C738 C741 1.409 1_545 S
C739 H731 0.930 . S
C739 C740 1.355 . S
C739 C741 1.415 . S
C740 C739 1.355 . S
C740 C742 1.419 . S
C741 C736 1.425 1_565 S
C741 C738 1.409 1_565 S
C741 C739 1.415 . S
C742 H732 0.930 . S
C742 C740 1.419 . S
C742 C743 1.362 . S
C743 H733 0.930 . S
C743 C736 1.409 1_565 S
C743 C742 1.362 . S
H744 C750 0.928 1_554 S
H745 C753 0.930 . S
H746 C754 0.930 . S
H747 C755 0.930 . S
H748 C758 0.930 . S
H749 C759 0.930 . S
C750 H744 0.928 1_556 S
C750 C751 1.355 . S
C750 C752 1.415 1_556 S
C751 C750 1.355 . S
C751 C753 1.419 . S
C752 C750 1.415 1_554 S
C752 C757 1.420 1_544 S
C752 C759 1.409 . S
C753 H745 0.930 . S
C753 C751 1.419 . S
C753 C754 1.362 1_545 S
C754 H746 0.930 . S
C754 C753 1.362 1_565 S
C754 C757 1.424 . S
C755 H747 0.930 . S
C755 C756 1.355 . S
C755 C757 1.405 1_554 S
C756 C755 1.355 . S
C756 C758 1.419 . S
C757 C752 1.420 1_566 S
C757 C754 1.424 . S
C757 C755 1.405 1_556 S
C758 H748 0.930 . S
C758 C756 1.419 . S
C758 C759 1.362 1_565 S
C759 H749 0.930 . S
C759 C752 1.409 . S
C759 C758 1.362 1_545 S
H760 C766 0.930 . S
H761 C769 0.930 . S
H762 C770 0.930 . S
H763 C771 0.930 . S
H764 C774 0.930 . S
H765 C775 0.930 . S
C766 H760 0.930 . S
C766 C767 1.355 . S
C766 C768 1.415 1_556 S
C767 C766 1.355 . S
C767 C769 1.419 . S
C768 C766 1.415 1_554 S
C768 C773 1.425 1_655 S
C768 C775 1.409 . S
C769 H761 0.930 . S
C769 C767 1.419 . S
C769 C770 1.362 1_655 S
C770 H762 0.930 . S
C770 C769 1.362 1_455 S
C770 C773 1.409 1_556 S
C771 H763 0.930 . S
C771 C772 1.355 . S
C771 C773 1.415 . S
C772 C771 1.355 . S
C772 C774 1.419 . S
C773 C768 1.425 1_455 S
C773 C770 1.409 1_554 S
C773 C771 1.415 . S
C774 H764 0.930 . S
C774 C772 1.419 . S
C774 C775 1.362 1_455 S
C775 H765 0.930 . S
C775 C768 1.409 . S
C775 C774 1.362 1_655 S
H776 C782 0.930 . S
H777 C785 0.930 . S
H778 C786 0.930 . S
H779 C787 0.930 . S
H780 C790 0.930 . S
H781 C791 0.930 1_556 S
C782 H776 0.930 . S
C782 C783 1.355 . S
C782 C784 1.415 . S
C783 C782 1.355 . S
C783 C785 1.419 . S
C784 C782 1.415 . S
C784 C789 1.425 1_556 S
C784 C791 1.409 1_556 S
C785 H777 0.930 . S
C785 C783 1.419 . S
C785 C786 1.362 1_556 S
C786 H778 0.930 . S
C786 C785 1.362 1_554 S
C786 C789 1.409 . S
C787 H779 0.930 . S
C787 C788 1.355 . S
C787 C789 1.415 . S
C788 C787 1.355 . S
C788 C790 1.419 . S
C789 C784 1.425 1_554 S
C789 C786 1.409 . S
C789 C787 1.415 . S
C790 H780 0.930 . S
C790 C788 1.419 . S
C790 C791 1.362 . S
C791 H781 0.930 1_554 S
C791 C784 1.409 1_554 S
C791 C790 1.362 . S
H792 C798 0.930 . S
H793 C801 0.930 . S
H794 C802 0.930 . S
H795 C803 0.930 . S
H796 C806 0.930 . S
H797 C807 0.930 . S
C798 H792 0.930 . S
C798 C799 1.355 . S
C798 C800 1.415 . S
C799 C798 1.355 . S
C799 C801 1.419 . S
C800 C798 1.415 . S
C800 C805 1.425 . S
C800 C807 1.409 1_556 S
C801 H793 0.930 . S
C801 C799 1.419 . S
C801 C802 1.362 . S
C802 H794 0.930 . S
C802 C801 1.362 . S
C802 C805 1.409 . S
C803 H795 0.930 . S
C803 C804 1.355 1_556 S
C803 C805 1.415 . S
C804 C803 1.355 1_554 S
C804 C806 1.419 . S
C805 C800 1.425 . S
C805 C802 1.409 . S
C805 C803 1.415 . S
C806 H796 0.930 . S
C806 C804 1.419 . S
C806 C807 1.362 . S
C807 H797 0.930 . S
C807 C800 1.409 1_554 S
C807 C806 1.362 . S
H808 C814 0.930 . S
H809 C817 0.930 1_455 S
H810 C818 0.930 1_554 S
H811 C819 0.930 . S
H812 C822 0.930 . S
H813 C823 0.930 . S
C814 H808 0.930 . S
C814 C815 1.355 . S
C814 C816 1.415 . S
C815 C814 1.355 . S
C815 C817 1.419 . S
C816 C814 1.415 . S
C816 C821 1.425 . S
C816 C823 1.409 . S
C817 H809 0.930 1_655 S
C817 C815 1.419 . S
C817 C818 1.362 . S
C818 H810 0.930 1_556 S
C818 C817 1.362 . S
C818 C821 1.409 . S
C819 H811 0.930 . S
C819 C820 1.355 . S
C819 C821 1.415 1_554 S
C820 C819 1.355 . S
C820 C822 1.419 1_554 S
C821 C816 1.425 . S
C821 C818 1.409 . S
C821 C819 1.415 1_556 S
C822 H812 0.930 . S
C822 C820 1.419 1_556 S
C822 C823 1.362 . S
C823 H813 0.930 . S
C823 C816 1.409 . S
C823 C822 1.362 . S
H824 C830 0.930 . S
H825 C833 0.930 . S
H826 C834 0.930 . S
H827 C835 0.930 . S
H828 C838 0.930 . S
H829 C839 0.946 . S
C830 H824 0.930 . S
C830 C831 1.355 . S
C830 C832 1.415 1_554 S
C831 C830 1.355 . S
C831 C833 1.419 1_554 S
C832 C830 1.415 1_556 S
C832 C837 1.425 . S
C832 C839 1.409 1_556 S
C833 H825 0.930 . S
C833 C831 1.419 1_556 S
C833 C834 1.362 . S
C834 H826 0.930 . S
C834 C833 1.362 . S
C834 C837 1.409 . S
C835 H827 0.930 . S
C835 C836 1.355 . S
C835 C837 1.415 . S
C836 C835 1.355 . S
C836 C838 1.419 . S
C837 C832 1.425 . S
C837 C834 1.409 . S
C837 C835 1.415 . S
C838 H828 0.930 . S
C838 C836 1.419 . S
C838 C839 1.348 1_556 S
C839 H829 0.946 . S
C839 C832 1.409 1_554 S
C839 C838 1.348 1_554 S
H840 C846 0.928 1_655 S
H841 C849 0.930 . S
H842 C850 0.930 . S
H843 C851 0.930 . S
H844 C854 0.930 . S
H845 C855 0.930 . S
C846 H840 0.928 1_455 S
C846 C847 1.355 . S
C846 C848 1.415 . S
C847 C846 1.355 . S
C847 C849 1.419 . S
C848 C846 1.415 . S
C848 C853 1.425 . S
C848 C855 1.409 . S
C849 H841 0.930 . S
C849 C847 1.419 . S
C849 C850 1.362 . S
C850 H842 0.930 . S
C850 C849 1.362 . S
C850 C853 1.409 . S
C851 H843 0.930 . S
C851 C852 1.355 . S
C851 C853 1.415 . S
C852 C851 1.355 . S
C852 C854 1.419 . S
C853 C848 1.425 . S
C853 C850 1.409 . S
C853 C851 1.415 . S
C854 H844 0.930 . S
C854 C852 1.419 . S
C854 C855 1.362 . S
C855 H845 0.930 . S
C855 C848 1.409 . S
C855 C854 1.362 . S
H856 C862 0.930 . S
H857 C865 0.930 . S
H858 C866 0.930 . S
H859 C867 0.930 . S
H860 C870 0.930 . S
H861 C871 0.930 . S
C862 H856 0.930 . S
C862 C863 1.355 . S
C862 C864 1.415 . S
C863 C862 1.355 . S
C863 C865 1.419 . S
C864 C862 1.415 . S
C864 C869 1.425 . S
C864 C871 1.409 . S
C865 H857 0.930 . S
C865 C863 1.419 . S
C865 C866 1.362 . S
C866 H858 0.930 . S
C866 C865 1.362 . S
C866 C869 1.409 . S
C867 H859 0.930 . S
C867 C868 1.355 . S
C867 C869 1.415 . S
C868 C867 1.355 . S
C868 C870 1.419 . S
C869 C864 1.425 . S
C869 C866 1.409 . S
C869 C867 1.415 . S
C870 H860 0.930 . S
C870 C868 1.419 . S
C870 C871 1.362 . S
C871 H861 0.930 . S
C871 C864 1.409 . S
C871 C870 1.362 . S
H872 C878 0.930 . S
H873 C881 0.930 . S
H874 C882 0.930 . S
H875 C883 0.930 . S
H876 C886 0.930 . S
H877 C887 0.930 . S
C878 H872 0.930 . S
C878 C879 1.355 . S
C878 C880 1.415 . S
C879 C878 1.355 . S
C879 C881 1.419 . S
C880 C878 1.415 . S
C880 C885 1.425 . S
C880 C887 1.409 . S
C881 H873 0.930 . S
C881 C879 1.419 . S
C881 C882 1.362 . S
C882 H874 0.930 . S
C882 C881 1.362 . S
C882 C885 1.409 . S
C883 H875 0.930 . S
C883 C884 1.355 . S
C883 C885 1.415 . S
C884 C883 1.355 . S
C884 C886 1.419 . S
C885 C880 1.425 . S
C885 C882 1.409 . S
C885 C883 1.415 . S
C886 H876 0.930 . S
C886 C884 1.419 . S
C886 C887 1.362 . S
C887 H877 0.930 . S
C887 C880 1.409 . S
C887 C886 1.362 . S
H888 C894 0.930 . S
H889 C897 0.930 . S
H890 C898 0.930 . S
H891 C899 0.930 . S
H892 C902 0.930 . S
H893 C903 0.930 . S
C894 H888 0.930 . S
C894 C895 1.355 . S
C894 C896 1.415 1_556 S
C895 C894 1.355 . S
C895 C897 1.419 . S
C896 C894 1.415 1_554 S
C896 C901 1.425 . S
C896 C903 1.409 . S
C897 H889 0.930 . S
C897 C895 1.419 . S
C897 C898 1.362 . S
C898 H890 0.930 . S
C898 C897 1.362 . S
C898 C901 1.409 1_556 S
C899 H891 0.930 . S
C899 C900 1.355 . S
C899 C901 1.415 . S
C900 C899 1.355 . S
C900 C902 1.419 . S
C901 C896 1.425 . S
C901 C898 1.409 1_554 S
C901 C899 1.415 . S
C902 H892 0.930 . S
C902 C900 1.419 . S
C902 C903 1.362 . S
C903 H893 0.930 . S
C903 C896 1.409 . S
C903 C902 1.362 . S
H904 C910 0.930 . S
H905 C913 0.930 . S
H906 C914 0.930 . S
H907 C915 0.930 . S
H908 C918 0.930 . S
H909 C919 0.930 . S
C910 H904 0.930 . S
C910 C911 1.355 . S
C910 C912 1.415 . S
C911 C910 1.355 . S
C911 C913 1.419 1_556 S
C912 C910 1.415 . S
C912 C917 1.425 1_556 S
C912 C919 1.409 . S
C913 H905 0.930 . S
C913 C911 1.419 1_554 S
C913 C914 1.362 . S
C914 H906 0.930 . S
C914 C913 1.362 . S
C914 C917 1.409 . S
C915 H907 0.930 . S
C915 C916 1.355 . S
C915 C917 1.415 . S
C916 C915 1.355 . S
C916 C918 1.419 1_455 S
C917 C912 1.425 1_554 S
C917 C914 1.409 . S
C917 C915 1.415 . S
C918 H908 0.930 . S
C918 C916 1.419 1_655 S
C918 C919 1.362 1_654 S
C919 H909 0.930 . S
C919 C912 1.409 . S
C919 C918 1.362 1_456 S
H920 C926 0.930 . S
H921 C929 0.930 . S
H922 C930 0.930 . S
H923 C931 0.930 . S
H924 C934 0.930 . S
H925 C935 0.930 . S
C926 H920 0.930 . S
C926 C927 1.355 . S
C926 C928 1.415 1_556 S
C927 C926 1.355 . S
C927 C929 1.419 . S
C928 C926 1.415 1_554 S
C928 C933 1.425 1_554 S
C928 C935 1.409 . S
C929 H921 0.930 . S
C929 C927 1.419 . S
C929 C930 1.362 . S
C930 H922 0.930 . S
C930 C929 1.362 . S
C930 C933 1.409 . S
C931 H923 0.930 . S
C931 C932 1.355 . S
C931 C933 1.415 1_554 S
C932 C931 1.355 . S
C932 C934 1.419 . S
C933 C928 1.425 1_556 S
C933 C930 1.409 . S
C933 C931 1.415 1_556 S
C934 H924 0.930 . S
C934 C932 1.419 . S
C934 C935 1.362 . S
C935 H925 0.930 . S
C935 C928 1.409 . S
C935 C934 1.362 . S
H936 C942 0.930 . S
H937 C945 0.930 . S
H938 C946 0.930 . S
H939 C947 0.930 . S
H940 C950 0.930 1_455 S
H941 C951 0.930 . S
C942 H936 0.930 . S
C942 C943 1.355 . S
C942 C944 1.415 . S
C943 C942 1.355 . S
C943 C945 1.419 . S
C944 C942 1.415 . S
C944 C949 1.425 . S
C944 C951 1.409 . S
C945 H937 0.930 . S
C945 C943 1.419 . S
C945 C946 1.362 . S
C946 H938 0.930 . S
C946 C945 1.362 . S
C946 C949 1.409 . S
C947 H939 0.930 . S
C947 C948 1.355 . S
C947 C949 1.415 . S
C948 C947 1.355 . S
C948 C950 1.419 . S
C949 C944 1.425 . S
C949 C946 1.409 . S
C949 C947 1.415 . S
C950 H940 0.930 1_655 S
C950 C948 1.419 . S
C950 C951 1.362 . S
C951 H941 0.930 . S
C951 C944 1.409 . S
C951 C950 1.362 . S
H952 C958 0.930 . S
H953 C961 0.930 . S
H954 C962 0.930 . S
H955 C963 0.930 . S
H956 C966 0.930 . S
H957 C967 0.930 . S
C958 H952 0.930 . S
C958 C959 1.355 . S
C958 C960 1.415 . S
C959 C958 1.355 . S
C959 C961 1.419 . S
C960 C958 1.415 . S
C960 C965 1.425 . S
C960 C967 1.409 . S
C961 H953 0.930 . S
C961 C959 1.419 . S
C961 C962 1.362 . S
C962 H954 0.930 . S
C962 C961 1.362 . S
C962 C965 1.409 . S
C963 H955 0.930 . S
C963 C964 1.355 . S
C963 C965 1.415 . S
C964 C963 1.355 . S
C964 C966 1.419 . S
C965 C960 1.425 . S
C965 C962 1.409 . S
C965 C963 1.415 . S
C966 H956 0.930 . S
C966 C964 1.419 . S
C966 C967 1.362 . S
C967 H957 0.930 . S
C967 C960 1.409 . S
C967 C966 1.362 . S
H968 C974 0.930 . S
H969 C977 0.930 . S
H970 C978 0.930 . S
H971 C979 0.930 . S
H972 C982 0.930 . S
H973 C983 0.930 . S
C974 H968 0.930 . S
C974 C975 1.355 . S
C974 C976 1.415 . S
C975 C974 1.355 . S
C975 C977 1.419 . S
C976 C974 1.415 . S
C976 C981 1.425 . S
C976 C983 1.409 . S
C977 H969 0.930 . S
C977 C975 1.419 . S
C977 C978 1.362 . S
C978 H970 0.930 . S
C978 C977 1.362 . S
C978 C981 1.409 . S
C979 H971 0.930 . S
C979 C980 1.355 . S
C979 C981 1.415 . S
C980 C979 1.355 . S
C980 C982 1.419 . S
C981 C976 1.425 . S
C981 C978 1.409 . S
C981 C979 1.415 . S
C982 H972 0.930 . S
C982 C980 1.419 . S
C982 C983 1.362 . S
C983 H973 0.930 . S
C983 C976 1.409 . S
C983 C982 1.362 . S
H984 C990 0.930 . S
H985 C993 0.930 . S
H986 C994 0.930 . S
H987 C995 0.930 . S
H988 C998 0.930 . S
H989 C999 0.930 . S
C990 H984 0.930 . S
C990 C991 1.355 . S
C990 C992 1.415 . S
C991 C990 1.355 . S
C991 C993 1.419 . S
C992 C990 1.415 . S
C992 C997 1.425 . S
C992 C999 1.409 . S
C993 H985 0.930 . S
C993 C991 1.419 . S
C993 C994 1.362 . S
C994 H986 0.930 . S
C994 C993 1.362 . S
C994 C997 1.409 . S
C995 H987 0.930 . S
C995 C996 1.355 . S
C995 C997 1.415 . S
C996 C995 1.355 . S
C996 C998 1.419 . S
C997 C992 1.425 . S
C997 C994 1.409 . S
C997 C995 1.415 . S
C998 H988 0.930 . S
C998 C996 1.419 . S
C998 C999 1.362 . S
C999 H989 0.930 . S
C999 C992 1.409 . S
C999 C998 1.362 . S
H1000 C1006 0.930 . S
H1001 C1009 0.930 . S
H1002 C1010 0.930 . S
H1003 C1011 0.930 . S
H1004 C1014 0.930 . S
H1005 C1015 0.930 . S
C1006 H1000 0.930 . S
C1006 C1007 1.355 . S
C1006 C1008 1.415 . S
C1007 C1006 1.355 . S
C1007 C1009 1.419 . S
C1008 C1006 1.415 . S
C1008 C1013 1.425 . S
C1008 C1015 1.409 . S
C1009 H1001 0.930 . S
C1009 C1007 1.419 . S
C1009 C1010 1.362 . S
C1010 H1002 0.930 . S
C1010 C1009 1.362 . S
C1010 C1013 1.409 . S
C1011 H1003 0.930 . S
C1011 C1012 1.355 . S
C1011 C1013 1.415 . S
C1012 C1011 1.355 . S
C1012 C1014 1.419 . S
C1013 C1008 1.425 . S
C1013 C1010 1.409 . S
C1013 C1011 1.415 . S
C1014 H1004 0.930 . S
C1014 C1012 1.419 . S
C1014 C1015 1.362 . S
C1015 H1005 0.930 . S
C1015 C1008 1.409 . S
C1015 C1014 1.362 . S
H1016 C1022 0.930 . S
H1017 C1025 0.930 . S
H1018 C1026 0.930 . S
H1019 C1027 0.930 . S
H1020 C1030 0.930 . S
H1021 C1031 0.930 . S
C1022 H1016 0.930 . S
C1022 C1023 1.355 . S
C1022 C1024 1.415 . S
C1023 C1022 1.355 . S
C1023 C1025 1.419 . S
C1024 C1022 1.415 . S
C1024 C1029 1.425 . S
C1024 C1031 1.409 . S
C1025 H1017 0.930 . S
C1025 C1023 1.419 . S
C1025 C1026 1.362 . S
C1026 H1018 0.930 . S
C1026 C1025 1.362 . S
C1026 C1029 1.409 . S
C1027 H1019 0.930 . S
C1027 C1028 1.355 . S
C1027 C1029 1.415 . S
C1028 C1027 1.355 . S
C1028 C1030 1.419 . S
C1029 C1024 1.425 . S
C1029 C1026 1.409 . S
C1029 C1027 1.415 . S
C1030 H1020 0.930 . S
C1030 C1028 1.419 . S
C1030 C1031 1.362 . S
C1031 H1021 0.930 . S
C1031 C1024 1.409 . S
C1031 C1030 1.362 . S
H1032 C1038 0.930 . S
H1033 C1041 0.930 . S
H1034 C1042 0.930 . S
H1035 C1043 0.930 . S
H1036 C1046 0.930 . S
H1037 C1047 0.930 . S
C1038 H1032 0.930 . S
C1038 C1039 1.355 . S
C1038 C1040 1.415 . S
C1039 C1038 1.355 . S
C1039 C1041 1.419 . S
C1040 C1038 1.415 . S
C1040 C1045 1.425 . S
C1040 C1047 1.409 . S
C1041 H1033 0.930 . S
C1041 C1039 1.419 . S
C1041 C1042 1.362 . S
C1042 H1034 0.930 . S
C1042 C1041 1.362 . S
C1042 C1045 1.409 . S
C1043 H1035 0.930 . S
C1043 C1044 1.355 . S
C1043 C1045 1.415 . S
C1044 C1043 1.355 . S
C1044 C1046 1.419 . S
C1045 C1040 1.425 . S
C1045 C1042 1.409 . S
C1045 C1043 1.415 . S
C1046 H1036 0.930 . S
C1046 C1044 1.419 . S
C1046 C1047 1.362 . S
C1047 H1037 0.930 . S
C1047 C1040 1.409 . S
C1047 C1046 1.362 . S
H1048 C1054 0.930 . S
H1049 C1057 0.930 . S
H1050 C1058 0.930 . S
H1051 C1059 0.930 . S
H1052 C1062 0.930 . S
H1053 C1063 0.930 . S
C1054 H1048 0.930 . S
C1054 C1055 1.355 . S
C1054 C1056 1.415 . S
C1055 C1054 1.355 . S
C1055 C1057 1.419 . S
C1056 C1054 1.415 . S
C1056 C1061 1.425 . S
C1056 C1063 1.409 . S
C1057 H1049 0.930 . S
C1057 C1055 1.419 . S
C1057 C1058 1.362 . S
C1058 H1050 0.930 . S
C1058 C1057 1.362 . S
C1058 C1061 1.409 . S
C1059 H1051 0.930 . S
C1059 C1060 1.355 . S
C1059 C1061 1.415 . S
C1060 C1059 1.355 . S
C1060 C1062 1.419 . S
C1061 C1056 1.425 . S
C1061 C1058 1.409 . S
C1061 C1059 1.415 . S
C1062 H1052 0.930 . S
C1062 C1060 1.419 . S
C1062 C1063 1.362 . S
C1063 H1053 0.930 . S
C1063 C1056 1.409 . S
C1063 C1062 1.362 . S
H1064 C1070 0.930 . S
H1065 C1073 0.930 . S
H1066 C1074 0.930 . S
H1067 C1075 0.930 . S
H1068 C1078 0.930 . S
H1069 C1079 0.930 . S
C1070 H1064 0.930 . S
C1070 C1071 1.355 . S
C1070 C1072 1.415 . S
C1071 C1070 1.355 . S
C1071 C1073 1.419 . S
C1072 C1070 1.415 . S
C1072 C1077 1.425 . S
C1072 C1079 1.409 . S
C1073 H1065 0.930 . S
C1073 C1071 1.419 . S
C1073 C1074 1.362 . S
C1074 H1066 0.930 . S
C1074 C1073 1.362 . S
C1074 C1077 1.409 . S
C1075 H1067 0.930 . S
C1075 C1076 1.355 . S
C1075 C1077 1.415 . S
C1076 C1075 1.355 . S
C1076 C1078 1.419 . S
C1077 C1072 1.425 . S
C1077 C1074 1.409 . S
C1077 C1075 1.415 . S
C1078 H1068 0.930 . S
C1078 C1076 1.419 . S
C1078 C1079 1.362 . S
C1079 H1069 0.930 . S
C1079 C1072 1.409 . S
C1079 C1078 1.362 . S
H1080 C1086 0.930 . S
H1081 C1089 0.930 . S
H1082 C1090 0.930 . S
H1083 C1091 0.930 . S
H1084 C1094 0.930 . S
H1085 C1095 0.930 . S
C1086 H1080 0.930 . S
C1086 C1087 1.355 . S
C1086 C1088 1.415 . S
C1087 C1086 1.355 . S
C1087 C1089 1.419 . S
C1088 C1086 1.415 . S
C1088 C1093 1.425 . S
C1088 C1095 1.409 . S
C1089 H1081 0.930 . S
C1089 C1087 1.419 . S
C1089 C1090 1.362 . S
C1090 H1082 0.930 . S
C1090 C1089 1.362 . S
C1090 C1093 1.409 . S
C1091 H1083 0.930 . S
C1091 C1092 1.355 . S
C1091 C1093 1.415 . S
C1092 C1091 1.355 . S
C1092 C1094 1.419 . S
C1093 C1088 1.425 . S
C1093 C1090 1.409 . S
C1093 C1091 1.415 . S
C1094 H1084 0.930 . S
C1094 C1092 1.419 . S
C1094 C1095 1.362 . S
C1095 H1085 0.930 . S
C1095 C1088 1.409 . S
C1095 C1094 1.362 . S
H1096 C1102 0.930 . S
H1097 C1105 0.930 . S
H1098 C1106 0.930 . S
H1099 C1107 0.930 . S
H1100 C1110 0.930 . S
H1101 C1111 0.930 . S
C1102 H1096 0.930 . S
C1102 C1103 1.355 . S
C1102 C1104 1.415 . S
C1103 C1102 1.355 . S
C1103 C1105 1.419 . S
C1104 C1102 1.415 . S
C1104 C1109 1.425 . S
C1104 C1111 1.409 . S
C1105 H1097 0.930 . S
C1105 C1103 1.419 . S
C1105 C1106 1.362 . S
C1106 H1098 0.930 . S
C1106 C1105 1.362 . S
C1106 C1109 1.409 . S
C1107 H1099 0.930 . S
C1107 C1108 1.355 . S
C1107 C1109 1.415 . S
C1108 C1107 1.355 . S
C1108 C1110 1.419 . S
C1109 C1104 1.425 . S
C1109 C1106 1.409 . S
C1109 C1107 1.415 . S
C1110 H1100 0.930 . S
C1110 C1108 1.419 . S
C1110 C1111 1.362 . S
C1111 H1101 0.930 . S
C1111 C1104 1.409 . S
C1111 C1110 1.362 . S
H1112 C1118 0.930 . S
H1113 C1121 0.930 . S
H1114 C1122 0.930 . S
H1115 C1123 0.930 . S
H1116 C1126 0.930 . S
H1117 C1127 0.930 . S
C1118 H1112 0.930 . S
C1118 C1119 1.355 . S
C1118 C1120 1.415 . S
C1119 C1118 1.355 . S
C1119 C1121 1.419 . S
C1120 C1118 1.415 . S
C1120 C1125 1.425 . S
C1120 C1127 1.409 . S
C1121 H1113 0.930 . S
C1121 C1119 1.419 . S
C1121 C1122 1.362 . S
C1122 H1114 0.930 . S
C1122 C1121 1.362 . S
C1122 C1125 1.409 . S
C1123 H1115 0.930 . S
C1123 C1124 1.355 . S
C1123 C1125 1.415 . S
C1124 C1123 1.355 . S
C1124 C1126 1.419 . S
C1125 C1120 1.425 . S
C1125 C1122 1.409 . S
C1125 C1123 1.415 . S
C1126 H1116 0.930 . S
C1126 C1124 1.419 . S
C1126 C1127 1.362 . S
C1127 H1117 0.930 . S
C1127 C1120 1.409 . S
C1127 C1126 1.362 . S
H1128 C1134 0.930 . S
H1129 C1137 0.930 . S
H1130 C1138 0.930 . S
H1131 C1139 0.930 . S
H1132 C1142 0.930 . S
H1133 C1143 0.930 . S
C1134 H1128 0.930 . S
C1134 C1135 1.355 . S
C1134 C1136 1.415 . S
C1135 C1134 1.355 . S
C1135 C1137 1.419 . S
C1136 C1134 1.415 . S
C1136 C1141 1.425 . S
C1136 C1143 1.409 . S
C1137 H1129 0.930 . S
C1137 C1135 1.419 . S
C1137 C1138 1.362 . S
C1138 H1130 0.930 . S
C1138 C1137 1.362 . S
C1138 C1141 1.409 . S
C1139 H1131 0.930 . S
C1139 C1140 1.355 . S
C1139 C1141 1.415 . S
C1140 C1139 1.355 . S
C1140 C1142 1.419 . S
C1141 C1136 1.425 . S
C1141 C1138 1.409 . S
C1141 C1139 1.415 . S
C1142 H1132 0.930 . S
C1142 C1140 1.419 . S
C1142 C1143 1.362 . S
C1143 H1133 0.930 . S
C1143 C1136 1.409 . S
C1143 C1142 1.362 . S
H1144 C1150 0.930 . S
H1145 C1153 0.930 . S
H1146 C1154 0.930 . S
H1147 C1155 0.930 . S
H1148 C1158 0.930 . S
H1149 C1159 0.930 . S
C1150 H1144 0.930 . S
C1150 C1151 1.355 . S
C1150 C1152 1.415 . S
C1151 C1150 1.355 . S
C1151 C1153 1.419 . S
C1152 C1150 1.415 . S
C1152 C1157 1.425 . S
C1152 C1159 1.409 . S
C1153 H1145 0.930 . S
C1153 C1151 1.419 . S
C1153 C1154 1.362 . S
C1154 H1146 0.930 . S
C1154 C1153 1.362 . S
C1154 C1157 1.409 . S
C1155 H1147 0.930 . S
C1155 C1156 1.355 . S
C1155 C1157 1.415 . S
C1156 C1155 1.355 . S
C1156 C1158 1.419 . S
C1157 C1152 1.425 . S
C1157 C1154 1.409 . S
C1157 C1155 1.415 . S
C1158 H1148 0.930 . S
C1158 C1156 1.419 . S
C1158 C1159 1.362 . S
C1159 H1149 0.930 . S
C1159 C1152 1.409 . S
C1159 C1158 1.362 . S
H1160 C1166 0.930 . S
H1161 C1169 0.930 . S
H1162 C1170 0.930 . S
H1163 C1171 0.930 . S
H1164 C1174 0.930 . S
H1165 C1175 0.930 . S
C1166 H1160 0.930 . S
C1166 C1167 1.355 . S
C1166 C1168 1.415 . S
C1167 C1166 1.355 . S
C1167 C1169 1.419 . S
C1168 C1166 1.415 . S
C1168 C1173 1.425 . S
C1168 C1175 1.409 . S
C1169 H1161 0.930 . S
C1169 C1167 1.419 . S
C1169 C1170 1.362 . S
C1170 H1162 0.930 . S
C1170 C1169 1.362 . S
C1170 C1173 1.409 . S
C1171 H1163 0.930 . S
C1171 C1172 1.355 . S
C1171 C1173 1.415 . S
C1172 C1171 1.355 . S
C1172 C1174 1.419 . S
C1173 C1168 1.425 . S
C1173 C1170 1.409 . S
C1173 C1171 1.415 . S
C1174 H1164 0.930 . S
C1174 C1172 1.419 . S
C1174 C1175 1.362 . S
C1175 H1165 0.930 . S
C1175 C1168 1.409 . S
C1175 C1174 1.362 . S
H1176 C1182 0.930 . S
H1177 C1185 0.930 . S
H1178 C1186 0.930 . S
H1179 C1187 0.930 . S
H1180 C1190 0.930 . S
H1181 C1191 0.930 . S
C1182 H1176 0.930 . S
C1182 C1183 1.355 . S
C1182 C1184 1.415 . S
C1183 C1182 1.355 . S
C1183 C1185 1.419 . S
C1184 C1182 1.415 . S
C1184 C1189 1.425 . S
C1184 C1191 1.409 . S
C1185 H1177 0.930 . S
C1185 C1183 1.419 . S
C1185 C1186 1.362 . S
C1186 H1178 0.930 . S
C1186 C1185 1.362 . S
C1186 C1189 1.409 . S
C1187 H1179 0.930 . S
C1187 C1188 1.355 . S
C1187 C1189 1.415 . S
C1188 C1187 1.355 . S
C1188 C1190 1.419 . S
C1189 C1184 1.425 . S
C1189 C1186 1.409 . S
C1189 C1187 1.415 . S
C1190 H1180 0.930 . S
C1190 C1188 1.419 . S
C1190 C1191 1.362 . S
C1191 H1181 0.930 . S
C1191 C1184 1.409 . S
C1191 C1190 1.362 . S
H1192 C1198 0.930 . S
H1193 C1201 0.930 . S
H1194 C1202 0.930 . S
H1195 C1203 0.930 . S
H1196 C1206 0.930 . S
H1197 C1207 0.930 . S
C1198 H1192 0.930 . S
C1198 C1199 1.355 . S
C1198 C1200 1.415 . S
C1199 C1198 1.355 . S
C1199 C1201 1.419 . S
C1200 C1198 1.415 . S
C1200 C1205 1.425 . S
C1200 C1207 1.409 . S
C1201 H1193 0.930 . S
C1201 C1199 1.419 . S
C1201 C1202 1.362 . S
C1202 H1194 0.930 . S
C1202 C1201 1.362 . S
C1202 C1205 1.409 . S
C1203 H1195 0.930 . S
C1203 C1204 1.355 . S
C1203 C1205 1.415 . S
C1204 C1203 1.355 . S
C1204 C1206 1.419 . S
C1205 C1200 1.425 . S
C1205 C1202 1.409 . S
C1205 C1203 1.415 . S
C1206 H1196 0.930 . S
C1206 C1204 1.419 . S
C1206 C1207 1.362 . S
C1207 H1197 0.930 . S
C1207 C1200 1.409 . S
C1207 C1206 1.362 . S
H1208 C1214 0.930 . S
H1209 C1217 0.930 . S
H1210 C1218 0.930 . S
H1211 C1219 0.930 . S
H1212 C1222 0.930 . S
H1213 C1223 0.930 . S
C1214 H1208 0.930 . S
C1214 C1215 1.355 . S
C1214 C1216 1.415 . S
C1215 C1214 1.355 . S
C1215 C1217 1.419 . S
C1216 C1214 1.415 . S
C1216 C1221 1.425 . S
C1216 C1223 1.409 . S
C1217 H1209 0.930 . S
C1217 C1215 1.419 . S
C1217 C1218 1.362 . S
C1218 H1210 0.930 . S
C1218 C1217 1.362 . S
C1218 C1221 1.409 . S
C1219 H1211 0.930 . S
C1219 C1220 1.355 . S
C1219 C1221 1.415 . S
C1220 C1219 1.355 . S
C1220 C1222 1.419 . S
C1221 C1216 1.425 . S
C1221 C1218 1.409 . S
C1221 C1219 1.415 . S
C1222 H1212 0.930 . S
C1222 C1220 1.419 . S
C1222 C1223 1.362 . S
C1223 H1213 0.930 . S
C1223 C1216 1.409 . S
C1223 C1222 1.362 . S
H1224 C1230 0.930 . S
H1225 C1233 0.930 . S
H1226 C1234 0.930 . S
H1227 C1235 0.930 . S
H1228 C1238 0.930 . S
H1229 C1239 0.930 . S
C1230 H1224 0.930 . S
C1230 C1231 1.355 . S
C1230 C1232 1.415 . S
C1231 C1230 1.355 . S
C1231 C1233 1.419 . S
C1232 C1230 1.415 . S
C1232 C1237 1.425 . S
C1232 C1239 1.409 . S
C1233 H1225 0.930 . S
C1233 C1231 1.419 . S
C1233 C1234 1.362 . S
C1234 H1226 0.930 . S
C1234 C1233 1.362 . S
C1234 C1237 1.409 . S
C1235 H1227 0.930 . S
C1235 C1236 1.355 . S
C1235 C1237 1.415 . S
C1236 C1235 1.355 . S
C1236 C1238 1.419 . S
C1237 C1232 1.425 . S
C1237 C1234 1.409 . S
C1237 C1235 1.415 . S
C1238 H1228 0.930 . S
C1238 C1236 1.419 . S
C1238 C1239 1.362 . S
C1239 H1229 0.930 . S
C1239 C1232 1.409 . S
C1239 C1238 1.362 . S
H1240 C1246 0.930 . S
H1241 C1249 0.930 . S
H1242 C1250 0.930 . S
H1243 C1251 0.930 . S
H1244 C1254 0.930 . S
H1245 C1255 0.930 . S
C1246 H1240 0.930 . S
C1246 C1247 1.355 . S
C1246 C1248 1.415 . S
C1247 C1246 1.355 . S
C1247 C1249 1.419 . S
C1248 C1246 1.415 . S
C1248 C1253 1.425 . S
C1248 C1255 1.409 . S
C1249 H1241 0.930 . S
C1249 C1247 1.419 . S
C1249 C1250 1.362 . S
C1250 H1242 0.930 . S
C1250 C1249 1.362 . S
C1250 C1253 1.409 . S
C1251 H1243 0.930 . S
C1251 C1252 1.355 . S
C1251 C1253 1.415 . S
C1252 C1251 1.355 . S
C1252 C1254 1.419 . S
C1253 C1248 1.425 . S
C1253 C1250 1.409 . S
C1253 C1251 1.415 . S
C1254 H1244 0.930 . S
C1254 C1252 1.419 . S
C1254 C1255 1.362 . S
C1255 H1245 0.930 . S
C1255 C1248 1.409 . S
C1255 C1254 1.362 . S
H1256 C1262 0.930 . S
H1257 C1265 0.930 . S
H1258 C1266 0.930 . S
H1259 C1267 0.930 . S
H1260 C1270 0.930 . S
H1261 C1271 0.930 . S
C1262 H1256 0.930 . S
C1262 C1263 1.355 . S
C1262 C1264 1.415 . S
C1263 C1262 1.355 . S
C1263 C1265 1.419 . S
C1264 C1262 1.415 . S
C1264 C1269 1.425 . S
C1264 C1271 1.409 . S
C1265 H1257 0.930 . S
C1265 C1263 1.419 . S
C1265 C1266 1.362 . S
C1266 H1258 0.930 . S
C1266 C1265 1.362 . S
C1266 C1269 1.409 . S
C1267 H1259 0.930 . S
C1267 C1268 1.355 . S
C1267 C1269 1.415 . S
C1268 C1267 1.355 . S
C1268 C1270 1.419 . S
C1269 C1264 1.425 . S
C1269 C1266 1.409 . S
C1269 C1267 1.415 . S
C1270 H1260 0.930 . S
C1270 C1268 1.419 . S
C1270 C1271 1.362 . S
C1271 H1261 0.930 . S
C1271 C1264 1.409 . S
C1271 C1270 1.362 . S
H1272 C1278 0.930 . S
H1273 C1281 0.930 . S
H1274 C1282 0.930 . S
H1275 C1283 0.930 . S
H1276 C1286 0.930 . S
H1277 C1287 0.930 . S
C1278 H1272 0.930 . S
C1278 C1279 1.355 . S
C1278 C1280 1.415 . S
C1279 C1278 1.355 . S
C1279 C1281 1.419 . S
C1280 C1278 1.415 . S
C1280 C1285 1.425 . S
C1280 C1287 1.409 . S
C1281 H1273 0.930 . S
C1281 C1279 1.419 . S
C1281 C1282 1.362 . S
C1282 H1274 0.930 . S
C1282 C1281 1.362 . S
C1282 C1285 1.409 . S
C1283 H1275 0.930 . S
C1283 C1284 1.355 . S
C1283 C1285 1.415 . S
C1284 C1283 1.355 . S
C1284 C1286 1.419 . S
C1285 C1280 1.425 . S
C1285 C1282 1.409 . S
C1285 C1283 1.415 . S
C1286 H1276 0.930 . S
C1286 C1284 1.419 . S
C1286 C1287 1.362 . S
C1287 H1277 0.930 . S
C1287 C1280 1.409 . S
C1287 C1286 1.362 . S
H1288 C1294 0.930 . S
H1289 C1297 0.930 . S
H1290 C1298 0.930 . S
H1291 C1299 0.930 . S
H1292 C1302 0.930 . S
H1293 C1303 0.930 . S
C1294 H1288 0.930 . S
C1294 C1295 1.355 . S
C1294 C1296 1.415 . S
C1295 C1294 1.355 . S
C1295 C1297 1.419 . S
C1296 C1294 1.415 . S
C1296 C1301 1.425 . S
C1296 C1303 1.409 . S
C1297 H1289 0.930 . S
C1297 C1295 1.419 . S
C1297 C1298 1.362 . S
C1298 H1290 0.930 . S
C1298 C1297 1.362 . S
C1298 C1301 1.409 . S
C1299 H1291 0.930 . S
C1299 C1300 1.355 . S
C1299 C1301 1.415 . S
C1300 C1299 1.355 . S
C1300 C1302 1.419 . S
C1301 C1296 1.425 . S
C1301 C1298 1.409 . S
C1301 C1299 1.415 . S
C1302 H1292 0.930 . S
C1302 C1300 1.419 . S
C1302 C1303 1.362 . S
C1303 H1293 0.930 . S
C1303 C1296 1.409 . S
C1303 C1302 1.362 . S
H1304 C1310 0.930 . S
H1305 C1313 0.930 . S
H1306 C1314 0.930 . S
H1307 C1315 0.930 . S
H1308 C1318 0.930 . S
H1309 C1319 0.930 . S
C1310 H1304 0.930 . S
C1310 C1311 1.355 . S
C1310 C1312 1.415 . S
C1311 C1310 1.355 . S
C1311 C1313 1.419 . S
C1312 C1310 1.415 . S
C1312 C1317 1.425 . S
C1312 C1319 1.409 . S
C1313 H1305 0.930 . S
C1313 C1311 1.419 . S
C1313 C1314 1.362 . S
C1314 H1306 0.930 . S
C1314 C1313 1.362 . S
C1314 C1317 1.409 . S
C1315 H1307 0.930 . S
C1315 C1316 1.355 . S
C1315 C1317 1.415 . S
C1316 C1315 1.355 . S
C1316 C1318 1.419 . S
C1317 C1312 1.425 . S
C1317 C1314 1.409 . S
C1317 C1315 1.415 . S
C1318 H1308 0.930 . S
C1318 C1316 1.419 . S
C1318 C1319 1.362 . S
C1319 H1309 0.930 . S
C1319 C1312 1.409 . S
C1319 C1318 1.362 . S
H1320 C1326 0.930 . S
H1321 C1329 0.930 . S
H1322 C1330 0.930 . S
H1323 C1331 0.930 . S
H1324 C1334 0.930 . S
H1325 C1335 0.930 . S
C1326 H1320 0.930 . S
C1326 C1327 1.355 . S
C1326 C1328 1.415 . S
C1327 C1326 1.355 . S
C1327 C1329 1.419 . S
C1328 C1326 1.415 . S
C1328 C1333 1.425 . S
C1328 C1335 1.409 . S
C1329 H1321 0.930 . S
C1329 C1327 1.419 . S
C1329 C1330 1.362 . S
C1330 H1322 0.930 . S
C1330 C1329 1.362 . S
C1330 C1333 1.409 . S
C1331 H1323 0.930 . S
C1331 C1332 1.355 . S
C1331 C1333 1.415 . S
C1332 C1331 1.355 . S
C1332 C1334 1.419 . S
C1333 C1328 1.425 . S
C1333 C1330 1.409 . S
C1333 C1331 1.415 . S
C1334 H1324 0.930 . S
C1334 C1332 1.419 . S
C1334 C1335 1.362 . S
C1335 H1325 0.930 . S
C1335 C1328 1.409 . S
C1335 C1334 1.362 . S
H1336 C1342 0.930 . S
H1337 C1345 0.930 . S
H1338 C1346 0.930 . S
H1339 C1347 0.930 . S
H1340 C1350 0.930 . S
H1341 C1351 0.930 . S
C1342 H1336 0.930 . S
C1342 C1343 1.355 . S
C1342 C1344 1.415 . S
C1343 C1342 1.355 . S
C1343 C1345 1.419 . S
C1344 C1342 1.415 . S
C1344 C1349 1.425 . S
C1344 C1351 1.409 . S
C1345 H1337 0.930 . S
C1345 C1343 1.419 . S
C1345 C1346 1.362 . S
C1346 H1338 0.930 . S
C1346 C1345 1.362 . S
C1346 C1349 1.409 . S
C1347 H1339 0.930 . S
C1347 C1348 1.355 . S
C1347 C1349 1.415 . S
C1348 C1347 1.355 . S
C1348 C1350 1.419 . S
C1349 C1344 1.425 . S
C1349 C1346 1.409 . S
C1349 C1347 1.415 . S
C1350 H1340 0.930 . S
C1350 C1348 1.419 . S
C1350 C1351 1.362 . S
C1351 H1341 0.930 . S
C1351 C1344 1.409 . S
C1351 C1350 1.362 . S
H1352 C1358 0.930 . S
H1353 C1361 0.930 . S
H1354 C1362 0.930 . S
H1355 C1363 0.930 . S
H1356 C1366 0.930 . S
H1357 C1367 0.930 . S
C1358 H1352 0.930 . S
C1358 C1359 1.355 . S
C1358 C1360 1.415 . S
C1359 C1358 1.355 . S
C1359 C1361 1.419 . S
C1360 C1358 1.415 . S
C1360 C1365 1.425 . S
C1360 C1367 1.409 . S
C1361 H1353 0.930 . S
C1361 C1359 1.419 . S
C1361 C1362 1.362 . S
C1362 H1354 0.930 . S
C1362 C1361 1.362 . S
C1362 C1365 1.409 . S
C1363 H1355 0.930 . S
C1363 C1364 1.355 . S
C1363 C1365 1.415 . S
C1364 C1363 1.355 . S
C1364 C1366 1.419 . S
C1365 C1360 1.425 . S
C1365 C1362 1.409 . S
C1365 C1363 1.415 . S
C1366 H1356 0.930 . S
C1366 C1364 1.419 . S
C1366 C1367 1.362 . S
C1367 H1357 0.930 . S
C1367 C1360 1.409 . S
C1367 C1366 1.362 . S
H1368 C1374 0.930 . S
H1369 C1377 0.930 . S
H1370 C1378 0.930 . S
H1371 C1379 0.930 . S
H1372 C1382 0.930 . S
H1373 C1383 0.930 . S
C1374 H1368 0.930 . S
C1374 C1375 1.355 . S
C1374 C1376 1.415 . S
C1375 C1374 1.355 . S
C1375 C1377 1.419 . S
C1376 C1374 1.415 . S
C1376 C1381 1.425 . S
C1376 C1383 1.409 . S
C1377 H1369 0.930 . S
C1377 C1375 1.419 . S
C1377 C1378 1.362 . S
C1378 H1370 0.930 . S
C1378 C1377 1.362 . S
C1378 C1381 1.409 . S
C1379 H1371 0.930 . S
C1379 C1380 1.355 . S
C1379 C1381 1.415 . S
C1380 C1379 1.355 . S
C1380 C1382 1.419 . S
C1381 C1376 1.425 . S
C1381 C1378 1.409 . S
C1381 C1379 1.415 . S
C1382 H1372 0.930 . S
C1382 C1380 1.419 . S
C1382 C1383 1.362 . S
C1383 H1373 0.930 . S
C1383 C1376 1.409 . S
C1383 C1382 1.362 . S
H1384 C1390 0.930 . S
H1385 C1393 0.930 . S
H1386 C1394 0.930 . S
H1387 C1395 0.930 . S
H1388 C1398 0.930 . S
H1389 C1399 0.930 . S
C1390 H1384 0.930 . S
C1390 C1391 1.355 . S
C1390 C1392 1.415 1_565 S
C1391 C1390 1.355 . S
C1391 C1393 1.419 1_565 S
C1392 C1390 1.415 1_545 S
C1392 C1397 1.425 . S
C1392 C1399 1.409 1_545 S
C1393 H1385 0.930 . S
C1393 C1391 1.419 1_545 S
C1393 C1394 1.362 . S
C1394 H1386 0.930 . S
C1394 C1393 1.362 . S
C1394 C1397 1.409 . S
C1395 H1387 0.930 . S
C1395 C1396 1.355 . S
C1395 C1397 1.415 . S
C1396 C1395 1.355 . S
C1396 C1398 1.419 . S
C1397 C1392 1.425 . S
C1397 C1394 1.409 . S
C1397 C1395 1.415 . S
C1398 H1388 0.930 . S
C1398 C1396 1.419 . S
C1398 C1399 1.362 1_545 S
C1399 H1389 0.930 . S
C1399 C1392 1.409 1_565 S
C1399 C1398 1.362 1_565 S
H1400 C1406 0.930 . S
H1401 C1409 0.930 . S
H1402 C1410 0.930 . S
H1403 C1411 0.930 . S
H1404 C1414 0.930 . S
H1405 C1415 0.930 . S
C1406 H1400 0.930 . S
C1406 C1407 1.355 . S
C1406 C1408 1.415 . S
C1407 C1406 1.355 . S
C1407 C1409 1.419 . S
C1408 C1406 1.415 . S
C1408 C1413 1.425 . S
C1408 C1415 1.409 1_655 S
C1409 H1401 0.930 . S
C1409 C1407 1.419 . S
C1409 C1410 1.362 . S
C1410 H1402 0.930 . S
C1410 C1409 1.362 . S
C1410 C1413 1.409 . S
C1411 H1403 0.930 . S
C1411 C1412 1.355 1_655 S
C1411 C1413 1.415 . S
C1412 C1411 1.355 1_455 S
C1412 C1414 1.419 . S
C1413 C1408 1.425 . S
C1413 C1410 1.409 . S
C1413 C1411 1.415 . S
C1414 H1404 0.930 . S
C1414 C1412 1.419 . S
C1414 C1415 1.362 . S
C1415 H1405 0.930 . S
C1415 C1408 1.409 1_455 S
C1415 C1414 1.362 . S
H1416 C1422 0.930 . S
H1417 C1425 0.930 . S
H1418 C1426 0.930 . S
H1419 C1427 0.930 . S
H1420 C1430 0.930 . S
H1421 C1431 0.930 . S
C1422 H1416 0.930 . S
C1422 C1423 1.355 . S
C1422 C1424 1.415 . S
C1423 C1422 1.355 . S
C1423 C1425 1.419 . S
C1424 C1422 1.415 . S
C1424 C1429 1.425 . S
C1424 C1431 1.409 . S
C1425 H1417 0.930 . S
C1425 C1423 1.419 . S
C1425 C1426 1.362 . S
C1426 H1418 0.930 . S
C1426 C1425 1.362 . S
C1426 C1429 1.409 . S
C1427 H1419 0.930 . S
C1427 C1428 1.355 . S
C1427 C1429 1.415 . S
C1428 C1427 1.355 . S
C1428 C1430 1.419 . S
C1429 C1424 1.425 . S
C1429 C1426 1.409 . S
C1429 C1427 1.415 . S
C1430 H1420 0.930 . S
C1430 C1428 1.419 . S
C1430 C1431 1.362 . S
C1431 H1421 0.930 . S
C1431 C1424 1.409 . S
C1431 C1430 1.362 . S
H1432 C1438 0.930 . S
H1433 C1441 0.930 . S
H1434 C1442 0.931 . S
H1435 C1443 0.930 . S
H1436 C1446 0.930 . S
H1437 C1447 0.930 . S
C1438 H1432 0.930 . S
C1438 C1439 1.355 1_565 S
C1438 C1440 1.415 . S
C1439 C1438 1.355 1_545 S
C1439 C1441 1.419 . S
C1440 C1438 1.415 . S
C1440 C1445 1.425 . S
C1440 C1447 1.409 . S
C1441 H1433 0.930 . S
C1441 C1439 1.419 . S
C1441 C1442 1.362 1_545 S
C1442 H1434 0.931 . S
C1442 C1441 1.362 1_565 S
C1442 C1445 1.409 . S
C1443 H1435 0.930 . S
C1443 C1444 1.355 . S
C1443 C1445 1.415 . S
C1444 C1443 1.355 . S
C1444 C1446 1.419 . S
C1445 C1440 1.425 . S
C1445 C1442 1.409 . S
C1445 C1443 1.415 . S
C1446 H1436 0.930 . S
C1446 C1444 1.419 . S
C1446 C1447 1.362 . S
C1447 H1437 0.930 . S
C1447 C1440 1.409 . S
C1447 C1446 1.362 . S
H1448 C1454 0.930 . S
H1449 C1457 0.930 . S
H1450 C1458 0.930 . S
H1451 C1459 0.930 . S
H1452 C1462 0.930 . S
H1453 C1463 0.930 . S
C1454 H1448 0.930 . S
C1454 C1455 1.355 . S
C1454 C1456 1.415 . S
C1455 C1454 1.355 . S
C1455 C1457 1.419 . S
C1456 C1454 1.415 . S
C1456 C1461 1.425 . S
C1456 C1463 1.409 . S
C1457 H1449 0.930 . S
C1457 C1455 1.419 . S
C1457 C1458 1.362 1_455 S
C1458 H1450 0.930 . S
C1458 C1457 1.362 1_655 S
C1458 C1461 1.409 1_655 S
C1459 H1451 0.930 . S
C1459 C1460 1.355 . S
C1459 C1461 1.415 1_655 S
C1460 C1459 1.355 . S
C1460 C1462 1.419 1_655 S
C1461 C1456 1.425 . S
C1461 C1458 1.409 1_455 S
C1461 C1459 1.415 1_455 S
C1462 H1452 0.930 . S
C1462 C1460 1.419 1_455 S
C1462 C1463 1.362 . S
C1463 H1453 0.930 . S
C1463 C1456 1.409 . S
C1463 C1462 1.362 . S
H1464 C1470 0.930 . S
H1465 C1473 0.930 . S
H1466 C1474 0.930 . S
H1467 C1475 0.930 . S
H1468 C1478 0.930 . S
H1469 C1479 0.930 . S
C1470 H1464 0.930 . S
C1470 C1471 1.355 . S
C1470 C1472 1.415 . S
C1471 C1470 1.355 . S
C1471 C1473 1.419 . S
C1472 C1470 1.415 . S
C1472 C1477 1.425 . S
C1472 C1479 1.409 . S
C1473 H1465 0.930 . S
C1473 C1471 1.419 . S
C1473 C1474 1.362 . S
C1474 H1466 0.930 . S
C1474 C1473 1.362 . S
C1474 C1477 1.409 . S
C1475 H1467 0.930 . S
C1475 C1476 1.355 . S
C1475 C1477 1.415 . S
C1476 C1475 1.355 . S
C1476 C1478 1.419 . S
C1477 C1472 1.425 . S
C1477 C1474 1.409 . S
C1477 C1475 1.415 . S
C1478 H1468 0.930 . S
C1478 C1476 1.419 . S
C1478 C1479 1.362 . S
C1479 H1469 0.930 . S
C1479 C1472 1.409 . S
C1479 C1478 1.362 . S
H1480 C1486 0.930 . S
H1481 C1489 0.930 . S
H1482 C1490 0.930 . S
H1483 C1491 0.930 . S
H1484 C1494 0.930 . S
H1485 C1495 0.930 . S
C1486 H1480 0.930 . S
C1486 C1487 1.355 . S
C1486 C1488 1.415 . S
C1487 C1486 1.355 . S
C1487 C1489 1.419 . S
C1488 C1486 1.415 . S
C1488 C1493 1.425 . S
C1488 C1495 1.409 1_565 S
C1489 H1481 0.930 . S
C1489 C1487 1.419 . S
C1489 C1490 1.362 . S
C1490 H1482 0.930 . S
C1490 C1489 1.362 . S
C1490 C1493 1.409 . S
C1491 H1483 0.930 . S
C1491 C1492 1.355 1_565 S
C1491 C1493 1.415 . S
C1492 C1491 1.355 1_545 S
C1492 C1494 1.419 . S
C1493 C1488 1.425 . S
C1493 C1490 1.409 . S
C1493 C1491 1.415 . S
C1494 H1484 0.930 . S
C1494 C1492 1.419 . S
C1494 C1495 1.362 . S
C1495 H1485 0.930 . S
C1495 C1488 1.409 1_545 S
C1495 C1494 1.362 . S
H1496 C1502 0.930 . S
H1497 C1505 0.930 . S
H1498 C1506 0.930 . S
H1499 C1507 0.930 . S
H1500 C1510 0.930 . S
H1501 C1511 0.930 . S
C1502 H1496 0.930 . S
C1502 C1503 1.355 . S
C1502 C1504 1.415 . S
C1503 C1502 1.355 . S
C1503 C1505 1.419 . S
C1504 C1502 1.415 . S
C1504 C1509 1.425 1_455 S
C1504 C1511 1.409 . S
C1505 H1497 0.930 . S
C1505 C1503 1.419 . S
C1505 C1506 1.362 1_455 S
C1506 H1498 0.930 . S
C1506 C1505 1.362 1_655 S
C1506 C1509 1.409 . S
C1507 H1499 0.930 . S
C1507 C1508 1.355 . S
C1507 C1509 1.415 . S
C1508 C1507 1.355 . S
C1508 C1510 1.419 1_655 S
C1509 C1504 1.425 1_655 S
C1509 C1506 1.409 . S
C1509 C1507 1.415 . S
C1510 H1500 0.930 . S
C1510 C1508 1.419 1_455 S
C1510 C1511 1.362 . S
C1511 H1501 0.930 . S
C1511 C1504 1.409 . S
C1511 C1510 1.362 . S
H1512 C1518 0.930 . S
H1513 C1521 0.930 . S
H1514 C1522 0.930 . S
H1515 C1523 0.930 . S
H1516 C1526 0.930 . S
H1517 C1527 0.930 . S
C1518 H1512 0.930 . S
C1518 C1519 1.355 . S
C1518 C1520 1.415 . S
C1519 C1518 1.355 . S
C1519 C1521 1.419 . S
C1520 C1518 1.415 . S
C1520 C1525 1.425 . S
C1520 C1527 1.409 . S
C1521 H1513 0.930 . S
C1521 C1519 1.419 . S
C1521 C1522 1.362 . S
C1522 H1514 0.930 . S
C1522 C1521 1.362 . S
C1522 C1525 1.409 . S
C1523 H1515 0.930 . S
C1523 C1524 1.355 . S
C1523 C1525 1.415 . S
C1524 C1523 1.355 . S
C1524 C1526 1.419 . S
C1525 C1520 1.425 . S
C1525 C1522 1.409 . S
C1525 C1523 1.415 . S
C1526 H1516 0.930 . S
C1526 C1524 1.419 . S
C1526 C1527 1.362 . S
C1527 H1517 0.930 . S
C1527 C1520 1.409 . S
C1527 C1526 1.362 . S
H1528 C1534 0.930 . S
H1529 C1537 0.930 . S
H1530 C1538 0.930 1_565 S
H1531 C1539 0.930 . S
H1532 C1542 0.930 . S
H1533 C1543 0.930 . S
C1534 H1528 0.930 . S
C1534 C1535 1.355 . S
C1534 C1536 1.415 . S
C1535 C1534 1.355 . S
C1535 C1537 1.419 . S
C1536 C1534 1.415 . S
C1536 C1541 1.425 . S
C1536 C1543 1.409 . S
C1537 H1529 0.930 . S
C1537 C1535 1.419 . S
C1537 C1538 1.362 . S
C1538 H1530 0.930 1_545 S
C1538 C1537 1.362 . S
C1538 C1541 1.409 . S
C1539 H1531 0.930 . S
C1539 C1540 1.355 . S
C1539 C1541 1.415 1_565 S
C1540 C1539 1.355 . S
C1540 C1542 1.419 1_565 S
C1541 C1536 1.425 . S
C1541 C1538 1.409 . S
C1541 C1539 1.415 1_545 S
C1542 H1532 0.930 . S
C1542 C1540 1.419 1_545 S
C1542 C1543 1.362 . S
C1543 H1533 0.930 . S
C1543 C1536 1.409 . S
C1543 C1542 1.362 . S
H1544 C1550 0.930 . S
H1545 C1553 0.930 . S
H1546 C1554 0.930 . S
H1547 C1555 0.930 . S
H1548 C1558 0.930 . S
H1549 C1559 0.930 . S
C1550 H1544 0.930 . S
C1550 C1551 1.355 1_655 S
C1550 C1552 1.415 . S
C1551 C1550 1.355 1_455 S
C1551 C1553 1.419 . S
C1552 C1550 1.415 . S
C1552 C1557 1.425 . S
C1552 C1559 1.409 . S
C1553 H1545 0.930 . S
C1553 C1551 1.419 . S
C1553 C1554 1.362 . S
C1554 H1546 0.930 . S
C1554 C1553 1.362 . S
C1554 C1557 1.409 1_455 S
C1555 H1547 0.930 . S
C1555 C1556 1.355 . S
C1555 C1557 1.415 . S
C1556 C1555 1.355 . S
C1556 C1558 1.419 . S
C1557 C1552 1.425 . S
C1557 C1554 1.409 1_655 S
C1557 C1555 1.415 . S
C1558 H1548 0.930 . S
C1558 C1556 1.419 . S
C1558 C1559 1.362 . S
C1559 H1549 0.930 . S
C1559 C1552 1.409 . S
C1559 C1558 1.362 . S
H1560 C1566 0.930 . S
H1561 C1569 0.930 . S
H1562 C1570 0.930 1_455 S
H1563 C1571 0.930 . S
H1564 C1574 0.930 . S
H1565 C1575 0.900 1_655 S
C1566 H1560 0.930 . S
C1566 C1567 1.355 . S
C1566 C1568 1.415 . S
C1567 C1566 1.355 . S
C1567 C1569 1.419 . S
C1568 C1566 1.415 . S
C1568 C1573 1.425 1_655 S
C1568 C1575 1.409 1_655 S
C1569 H1561 0.930 . S
C1569 C1567 1.419 . S
C1569 C1570 1.362 . S
C1570 H1562 0.930 1_655 S
C1570 C1569 1.362 . S
C1570 C1573 1.409 1_655 S
C1571 H1563 0.930 . S
C1571 C1572 1.355 . S
C1571 C1573 1.415 . S
C1572 C1571 1.355 . S
C1572 C1574 1.419 . S
C1573 C1568 1.425 1_455 S
C1573 C1570 1.409 1_455 S
C1573 C1571 1.415 . S
C1574 H1564 0.930 . S
C1574 C1572 1.419 . S
C1574 C1575 1.362 . S
C1575 H1565 0.900 1_455 S
C1575 C1568 1.409 1_455 S
C1575 C1574 1.362 . S
H1576 C1582 0.930 . S
H1577 C1585 0.930 . S
H1578 C1586 0.930 . S
H1579 C1587 0.930 . S
H1580 C1590 0.930 . S
H1581 C1591 0.930 . S
C1582 H1576 0.930 . S
C1582 C1583 1.355 . S
C1582 C1584 1.415 . S
C1583 C1582 1.355 . S
C1583 C1585 1.419 . S
C1584 C1582 1.415 . S
C1584 C1589 1.425 . S
C1584 C1591 1.409 . S
C1585 H1577 0.930 . S
C1585 C1583 1.419 . S
C1585 C1586 1.362 . S
C1586 H1578 0.930 . S
C1586 C1585 1.362 . S
C1586 C1589 1.409 . S
C1587 H1579 0.930 . S
C1587 C1588 1.355 . S
C1587 C1589 1.415 . S
C1588 C1587 1.355 . S
C1588 C1590 1.419 . S
C1589 C1584 1.425 . S
C1589 C1586 1.409 . S
C1589 C1587 1.415 . S
C1590 H1580 0.930 . S
C1590 C1588 1.419 . S
C1590 C1591 1.362 . S
C1591 H1581 0.930 . S
C1591 C1584 1.409 . S
C1591 C1590 1.362 . S
H1592 C1598 0.930 . S
H1593 C1601 0.930 . S
H1594 C1602 0.930 . S
H1595 C1603 0.930 . S
H1596 C1606 0.930 . S
H1597 C1607 0.930 . S
C1598 H1592 0.930 . S
C1598 C1599 1.355 . S
C1598 C1600 1.415 1_565 S
C1599 C1598 1.355 . S
C1599 C1601 1.419 . S
C1600 C1598 1.415 1_545 S
C1600 C1605 1.425 1_545 S
C1600 C1607 1.409 . S
C1601 H1593 0.930 . S
C1601 C1599 1.419 . S
C1601 C1602 1.362 . S
C1602 H1594 0.930 . S
C1602 C1601 1.362 . S
C1602 C1605 1.409 . S
C1603 H1595 0.930 . S
C1603 C1604 1.355 . S
C1603 C1605 1.415 1_545 S
C1604 C1603 1.355 . S
C1604 C1606 1.419 . S
C1605 C1600 1.425 1_565 S
C1605 C1602 1.409 . S
C1605 C1603 1.415 1_565 S
C1606 H1596 0.930 . S
C1606 C1604 1.419 . S
C1606 C1607 1.362 . S
C1607 H1597 0.930 . S
C1607 C1600 1.409 . S
C1607 C1606 1.362 . S
H1608 C1614 0.930 . S
H1609 C1617 0.930 . S
H1610 C1618 0.930 . S
H1611 C1619 0.930 . S
H1612 C1622 0.930 . S
H1613 C1623 0.930 . S
C1614 H1608 0.930 . S
C1614 C1615 1.355 . S
C1614 C1616 1.415 . S
C1615 C1614 1.355 . S
C1615 C1617 1.419 . S
C1616 C1614 1.415 . S
C1616 C1621 1.425 1_565 S
C1616 C1623 1.409 1_565 S
C1617 H1609 0.930 . S
C1617 C1615 1.419 . S
C1617 C1618 1.362 . S
C1618 H1610 0.930 . S
C1618 C1617 1.362 . S
C1618 C1621 1.409 1_565 S
C1619 H1611 0.930 . S
C1619 C1620 1.355 . S
C1619 C1621 1.415 . S
C1620 C1619 1.355 . S
C1620 C1622 1.419 . S
C1621 C1616 1.425 1_545 S
C1621 C1618 1.409 1_545 S
C1621 C1619 1.415 . S
C1622 H1612 0.930 . S
C1622 C1620 1.419 . S
C1622 C1623 1.362 . S
C1623 H1613 0.930 . S
C1623 C1616 1.409 1_545 S
C1623 C1622 1.362 . S
H1624 C1630 0.930 . S
H1625 C1633 0.930 . S
H1626 C1634 0.930 . S
H1627 C1635 0.930 . S
H1628 C1638 0.930 . S
H1629 C1639 0.930 . S
C1630 H1624 0.930 . S
C1630 C1631 1.355 . S
C1630 C1632 1.415 . S
C1631 C1630 1.355 . S
C1631 C1633 1.419 . S
C1632 C1630 1.415 . S
C1632 C1637 1.425 1_655 S
C1632 C1639 1.409 1_655 S
C1633 H1625 0.930 . S
C1633 C1631 1.419 . S
C1633 C1634 1.362 . S
C1634 H1626 0.930 . S
C1634 C1633 1.362 . S
C1634 C1637 1.408 1_655 S
C1635 H1627 0.930 . S
C1635 C1636 1.355 . S
C1635 C1637 1.417 . S
C1636 C1635 1.355 . S
C1636 C1638 1.419 . S
C1637 C1632 1.425 1_455 S
C1637 C1634 1.408 1_455 S
C1637 C1635 1.417 . S
C1638 H1628 0.930 . S
C1638 C1636 1.419 . S
C1638 C1639 1.362 . S
C1639 H1629 0.930 . S
C1639 C1632 1.409 1_455 S
C1639 C1638 1.362 . S
H1640 C1646 0.930 . S
H1641 C1649 0.930 . S
H1642 C1650 0.930 . S
H1643 C1651 0.930 . S
H1644 C1654 0.930 . S
H1645 C1655 0.930 . S
C1646 H1640 0.930 . S
C1646 C1647 1.355 . S
C1646 C1648 1.415 . S
C1647 C1646 1.355 . S
C1647 C1649 1.419 . S
C1648 C1646 1.415 . S
C1648 C1653 1.425 . S
C1648 C1655 1.409 . S
C1649 H1641 0.930 . S
C1649 C1647 1.419 . S
C1649 C1650 1.362 . S
C1650 H1642 0.930 . S
C1650 C1649 1.362 . S
C1650 C1653 1.409 . S
C1651 H1643 0.930 . S
C1651 C1652 1.355 . S
C1651 C1653 1.415 . S
C1652 C1651 1.355 . S
C1652 C1654 1.419 . S
C1653 C1648 1.425 . S
C1653 C1650 1.409 . S
C1653 C1651 1.415 . S
C1654 H1644 0.930 . S
C1654 C1652 1.419 . S
C1654 C1655 1.362 . S
C1655 H1645 0.930 . S
C1655 C1648 1.409 . S
C1655 C1654 1.362 . S
C511 C8 1.422 . S
C516 C260 1.415 . S
C527 C17 1.517 . S
C532 C273 1.541 . S
C543 C287 1.548 . S
C548 C31 1.527 . S
C559 C45 1.527 . S
C564 C469 1.540 . S
C575 C483 1.539 . S
C580 C59 1.524 . S
C591 C78 1.380 . S
C596 C498 1.382 . S
C607 C344 1.422 . S
C612 C92 1.419 . S
C623 C105 1.508 . S
C628 C353 1.461 . S
C639 C119 1.488 . S
C644 C367 1.462 . S
C655 C133 1.548 . S
C660 C213 1.489 . S
C671 C227 1.459 . S
C676 C147 1.472 . S
C687 C162 1.415 . S
C692 C246 1.422 . S
C703 C176 1.362 . S
C708 C428 1.356 . S
C719 C185 1.458 . S
C724 C441 1.472 . S
C735 C199 1.513 . S
C740 C455 1.518 . S
C751 C301 1.496 . S
C756 C381 1.442 . S
C767 C315 1.473 . S
C772 C395 1.456 . S
C783 C330 1.367 . S
C788 C414 1.383 . S
C799 C101 1.344 1_545 S
C804 C3 1.323 . S
C815 C115 1.361 1_655 S
C820 C22 1.448 . S
C831 C36 1.380 . S
C836 C93 1.320 . S
C847 C163 1.317 1_455 S
C852 C50 1.350 . S
C863 C129 1.402 . S
C868 C64 1.473 . S
C879 C143 1.345 1_565 S
C884 C73 1.324 . S
C895 C91 1.367 . S
C900 C21 1.312 1_565 S
C911 C106 1.448 . S
C916 C35 1.408 1_455 S
C927 C120 1.389 . S
C932 C9 1.347 . S
C943 C134 1.383 . S
C948 C79 1.313 1_655 S
C959 C49 1.450 . S
C964 C148 1.484 . S
C975 C63 1.349 1_545 S
C980 C161 1.400 . S
C991 C171 1.335 . S
C996 C269 1.371 . S
C1007 C190 1.472 . S
C1012 C283 1.401 . S
C1023 C204 1.352 . S
C1028 C261 1.320 . S
C1039 C331 1.338 . S
C1044 C218 1.369 . S
C1055 C232 1.449 . S
C1060 C297 1.361 . S
C1071 C311 1.336 . S
C1076 C241 1.387 . S
C1087 C259 1.393 . S
C1092 C189 1.337 . S
C1103 C203 1.423 . S
C1108 C274 1.456 . S
C1119 C177 1.331 . S
C1124 C288 1.361 . S
C1135 C302 1.346 . S
C1140 C247 1.294 . S
C1151 C316 1.450 . S
C1156 C217 1.386 . S
C1167 C329 1.384 . S
C1172 C231 1.389 . S
C1183 C437 1.360 . S
C1188 C339 1.329 . S
C1199 C358 1.443 . S
C1204 C451 1.405 . S
C1215 C372 1.354 . S
C1220 C429 1.235 . S
C1231 C499 1.333 . S
C1236 C386 1.376 . S
C1247 C465 1.362 . S
C1252 C400 1.450 . S
C1263 C479 1.319 . S
C1268 C409 1.330 . S
C1279 C357 1.310 . S
C1284 C427 1.363 . S
C1295 C371 1.389 . S
C1300 C442 1.441 . S
C1311 C345 1.266 . S
C1316 C456 1.345 . S
C1327 C470 1.388 . S
C1332 C415 1.354 . S
C1343 C385 1.383 . S
C1348 C484 1.440 . S
C1359 C497 1.345 . S
C1364 C399 1.333 . S
C1375 C7 1.108 . S
C1380 C413 1.080 . S
C1391 C387 1.097 . S
C1396 C23 1.045 . S
C1407 C37 1.075 . S
C1412 C401 1.010 . S
C1423 C51 0.980 . S
C1428 C191 1.026 . S
C1439 C205 1.054 . S
C1444 C65 1.101 . S
C1455 C77 1.071 . S
C1460 C175 1.123 . S
C1471 C325 1.110 . S
C1476 C87 1.085 . S
C1487 C107 1.039 . S
C1492 C303 0.992 . S
C1503 C121 1.058 . S
C1508 C317 1.101 . S
C1519 C135 1.063 . S
C1524 C443 0.995 . S
C1535 C149 1.084 . S
C1540 C457 1.089 . S
C1551 C423 1.056 . S
C1556 C157 1.101 . S
C1567 C219 1.021 . S
C1572 C359 1.085 . S
C1583 C373 0.981 . S
C1588 C233 1.027 . S
C1599 C343 1.112 . S
C1604 C245 1.077 . S
C1615 C493 1.029 . S
C1620 C255 1.076 . S
C1631 C275 1.011 . S
C1636 C471 1.007 . S
C1647 C289 1.050 . S
C1652 C485 0.993 . S
