# Generated by pormake.
# Topology xfy, (5)-cn, num edge types: 1
# Building blocks:
#     Node 0, Type 0, BuildingBlock: BEQFEK_clean_sbu_0, # of connection points: 5
#     Node 1, Type 0, BuildingBlock: BEQFEK_clean_sbu_0, # of connection points: 5
#     Node 2, Type 0, BuildingBlock: BEQFEK_clean_sbu_0, # of connection points: 5
#     Node 3, Type 0, BuildingBlock: BEQFEK_clean_sbu_0, # of connection points: 5
#     Node 4, Type 0, BuildingBlock: BEQFEK_clean_sbu_0, # of connection points: 5
#     Node 5, Type 0, BuildingBlock: BEQFEK_clean_sbu_0, # of connection points: 5
#     Node 6, Type 0, BuildingBlock: BEQFEK_clean_sbu_0, # of connection points: 5
#     Node 7, Type 0, BuildingBlock: BEQFEK_clean_sbu_0, # of connection points: 5
#     Edge 8, Type (0, 0), BuildingBlock: XUDNAN_clean_linker_2, # of connection points: 2
#     Edge 9, Type (0, 0), BuildingBlock: XUDNAN_clean_linker_2, # of connection points: 2
#     Edge 10, Type (0, 0), BuildingBlock: XUDNAN_clean_linker_2, # of connection points: 2
#     Edge 11, Type (0, 0), BuildingBlock: XUDNAN_clean_linker_2, # of connection points: 2
#     Edge 12, Type (0, 0), BuildingBlock: XUDNAN_clean_linker_2, # of connection points: 2
#     Edge 13, Type (0, 0), BuildingBlock: XUDNAN_clean_linker_2, # of connection points: 2
#     Edge 14, Type (0, 0), BuildingBlock: XUDNAN_clean_linker_2, # of connection points: 2
#     Edge 15, Type (0, 0), BuildingBlock: XUDNAN_clean_linker_2, # of connection points: 2
#     Edge 16, Type (0, 0), BuildingBlock: XUDNAN_clean_linker_2, # of connection points: 2
#     Edge 17, Type (0, 0), BuildingBlock: XUDNAN_clean_linker_2, # of connection points: 2
#     Edge 18, Type (0, 0), BuildingBlock: XUDNAN_clean_linker_2, # of connection points: 2
#     Edge 19, Type (0, 0), BuildingBlock: XUDNAN_clean_linker_2, # of connection points: 2
#     Edge 20, Type (0, 0), BuildingBlock: XUDNAN_clean_linker_2, # of connection points: 2
#     Edge 21, Type (0, 0), BuildingBlock: XUDNAN_clean_linker_2, # of connection points: 2
#     Edge 22, Type (0, 0), BuildingBlock: XUDNAN_clean_linker_2, # of connection points: 2
#     Edge 23, Type (0, 0), BuildingBlock: XUDNAN_clean_linker_2, # of connection points: 2
#     Edge 24, Type (0, 0), BuildingBlock: XUDNAN_clean_linker_2, # of connection points: 2
#     Edge 25, Type (0, 0), BuildingBlock: XUDNAN_clean_linker_2, # of connection points: 2
#     Edge 26, Type (0, 0), BuildingBlock: XUDNAN_clean_linker_2, # of connection points: 2
#     Edge 27, Type (0, 0), BuildingBlock: XUDNAN_clean_linker_2, # of connection points: 2
# Relax obj value: 0.383
# Max RMSD: 0.221
# Mean RMSD: 0.221
data_MOF--net-xfy--node1-BEQFEK_clean_sbu_0--edge1-XUDNAN_clean_linker_2
_symmetry_space_group_name_H-M    P1
_symmetry_Int_Tables_number       1
_symmetry_cell_setting            triclinic
loop_
_symmetry_equiv_pos_as_xyz
'x, y, z'
_cell_length_a     28.924583
_cell_length_b     28.888806
_cell_length_c     59.041341
_cell_angle_alpha  90.062522
_cell_angle_beta   89.913956
_cell_angle_gamma 90.129998
loop_
_atom_site_label
_atom_site_type_symbol
_atom_site_fract_x
_atom_site_fract_y
_atom_site_fract_z
_atom_type_partial_charge
Co0 Co 0.24736 0.04095 0.40549 0.0
Co1 Co 0.22659 0.12602 0.37422 0.0
C2 C 0.1645 0.04271 0.37586 0.0
O3 O 0.19143 0.02116 0.38914 0.0
O4 O 0.17302 0.08385 0.36938 0.0
C5 C 0.25099 0.94903 0.42361 0.0
O6 O 0.22424 0.93889 0.40634 0.0
C7 C 0.20636 0.1706 0.3314 0.0
C8 C 0.22763 0.24316 0.33721 0.0
C9 C 0.20917 0.2136 0.32105 0.0
N10 N 0.22196 0.17466 0.3527 0.0
N11 N 0.23428 0.21816 0.35619 0.0
C12 C 0.19387 0.12519 0.32074 0.0
H13 H 0.21119 0.09632 0.32971 0.0
H14 H 0.204 0.12449 0.30261 0.0
H15 H 0.15593 0.11998 0.32199 0.0
C16 C 0.33566 0.04361 0.38112 0.0
N17 N 0.29304 0.06004 0.38503 0.0
N18 N 0.28437 0.09437 0.37106 0.0
C19 C 0.32131 0.10027 0.35733 0.0
C20 C 0.35495 0.06801 0.36317 0.0
C21 C 0.35841 0.00791 0.39573 0.0
H22 H 0.34804 0.01294 0.41363 0.0
H23 H 0.34691 0.97295 0.3903 0.0
H24 H 0.39664 0.00995 0.39468 0.0
O25 O 0.2305 0.09138 0.42617 0.0
O26 O 0.21913 0.15341 0.40485 0.0
H27 H 0.3217 0.17037 0.34572 0.0
H28 H 0.35523 0.13128 0.32819 0.0
C29 C 0.32343 0.13493 0.33853 0.0
H30 H 0.29328 0.13008 0.32726 0.0
H31 H 0.24796 0.23058 0.37138 0.0
O32 O 0.26738 0.98969 0.42539 0.0
C33 C 0.22042 0.13398 0.42419 0.0
Co34 Co 0.04102 0.7921 0.5765 0.0
Co35 Co 0.12355 0.79845 0.61063 0.0
C36 C 0.04386 0.86455 0.61216 0.0
O37 O 0.02464 0.84492 0.5954 0.0
O38 O 0.08259 0.85063 0.61965 0.0
C39 C 0.94656 0.78608 0.56432 0.0
O40 O 0.94117 0.79647 0.58583 0.0
C41 C 0.15808 0.78404 0.65577 0.0
C42 C 0.23394 0.78224 0.65141 0.0
C43 C 0.19902 0.77663 0.66728 0.0
N44 N 0.16808 0.79251 0.63399 0.0
N45 N 0.21351 0.79211 0.63147 0.0
C46 C 0.10994 0.78333 0.66524 0.0
H47 H 0.08815 0.80936 0.65666 0.0
H48 H 0.09407 0.74891 0.66225 0.0
H49 H 0.11009 0.79041 0.68372 0.0
C50 C 0.03706 0.69731 0.59379 0.0
N51 N 0.05384 0.74061 0.59466 0.0
N52 N 0.09032 0.74167 0.60795 0.0
C53 C 0.09884 0.69828 0.61532 0.0
C54 C 0.06476 0.6692 0.60695 0.0
C55 C -0.00107 0.68205 0.57834 0.0
H56 H 0.00772 0.69145 0.56063 0.0
H57 H 0.96666 0.70027 0.58308 0.0
H58 H 0.9926 0.64422 0.57939 0.0
O59 O 0.09568 0.80679 0.55747 0.0
O60 O 0.15456 0.81265 0.58153 0.0
H61 H 0.17214 0.70446 0.62053 0.0
H62 H 0.14984 0.64622 0.62341 0.0
C63 C 0.14263 0.68336 0.62666 0.0
H64 H 0.1392 0.68809 0.6452 0.0
H65 H 0.23046 0.79714 0.61605 0.0
O66 O 0.98721 0.78079 0.55651 0.0
C67 C 0.13842 0.81409 0.56147 0.0
Co68 Co 0.76825 0.96267 0.41745 0.0
Co69 Co 0.76574 0.87379 0.38659 0.0
C70 C 0.84771 0.93684 0.38719 0.0
O71 O 0.82884 0.96422 0.40142 0.0
O72 O 0.82718 0.90051 0.38018 0.0
C73 C 0.7719 0.06022 0.43057 0.0
O74 O 0.78757 0.06834 0.41005 0.0
C75 C 0.77084 0.8135 0.34629 0.0
C76 C 0.71729 0.76133 0.35434 0.0
C77 C 0.74811 0.77492 0.33764 0.0
N78 N 0.75337 0.82281 0.36691 0.0
N79 N 0.72191 0.79107 0.37175 0.0
C80 C 0.80969 0.84022 0.33571 0.0
H81 H 0.83811 0.84406 0.34812 0.0
H82 H 0.79746 0.87538 0.33116 0.0
H83 H 0.82373 0.82259 0.32051 0.0
C84 C 0.68547 0.98527 0.39068 0.0
N85 N 0.72 0.95648 0.39633 0.0
N86 N 0.71949 0.92032 0.38273 0.0
C87 C 0.68515 0.92578 0.36749 0.0
C88 C 0.66277 0.96733 0.37195 0.0
C89 C 0.67272 0.02766 0.40388 0.0
H90 H 0.69423 0.05718 0.39806 0.0
H91 H 0.63577 0.03662 0.4015 0.0
H92 H 0.67901 0.02196 0.42217 0.0
O93 O 0.76708 0.91133 0.43913 0.0
O94 O 0.76743 0.84801 0.41782 0.0
H95 H 0.66275 0.86033 0.35463 0.0
H96 H 0.65118 0.90835 0.33588 0.0
C97 C 0.6763 0.89366 0.34807 0.0
H98 H 0.70918 0.88676 0.33905 0.0
H99 H 0.70268 0.79048 0.38671 0.0
O100 O 0.76174 0.01905 0.43629 0.0
C101 C 0.7673 0.86757 0.43712 0.0
Co102 Co 0.94075 0.22251 0.57602 0.0
Co103 Co 0.8621 0.25126 0.60975 0.0
C104 C 0.91752 0.16202 0.61364 0.0
O105 O 0.9423 0.17007 0.59633 0.0
O106 O 0.88593 0.18959 0.62022 0.0
C107 C 0.02458 0.19252 0.55279 0.0
O108 O 0.02849 0.16067 0.56853 0.0
C109 C 0.84404 0.2827 0.65512 0.0
C110 C 0.76824 0.29091 0.65665 0.0
C111 C 0.80813 0.29405 0.66957 0.0
N112 N 0.82652 0.27381 0.63453 0.0
N113 N 0.78115 0.27892 0.63546 0.0
C114 C 0.89374 0.27562 0.66132 0.0
H115 H 0.91221 0.25597 0.64797 0.0
H116 H 0.91096 0.30969 0.66334 0.0
H117 H 0.89627 0.25703 0.67772 0.0
C118 C 0.98025 0.30931 0.59107 0.0
N119 N 0.94702 0.27711 0.59238 0.0
N120 N 0.91182 0.29322 0.60399 0.0
C121 C 0.92053 0.33791 0.60929 0.0
C122 C 0.96433 0.34954 0.60116 0.0
C123 C 0.02693 0.30078 0.58087 0.0
H124 H 0.03833 0.26509 0.58485 0.0
H125 H 0.05297 0.32559 0.5875 0.0
H126 H 0.02486 0.30441 0.5622 0.0
O127 O 0.88231 0.22291 0.55898 0.0
O128 O 0.82411 0.24229 0.58186 0.0
H129 H 0.88825 0.40486 0.61139 0.0
H130 H 0.89234 0.37412 0.6377 0.0
C131 C 0.88558 0.37013 0.61932 0.0
H132 H 0.8501 0.35636 0.61695 0.0
H133 H 0.75893 0.27299 0.62185 0.0
O134 O 0.99037 0.21994 0.55314 0.0
C135 C 0.83964 0.23087 0.56242 0.0
Co136 Co 0.28574 0.53369 0.91047 0.0
Co137 Co 0.29509 0.62176 0.88002 0.0
C138 C 0.36098 0.54062 0.87711 0.0
O139 O 0.33974 0.51774 0.89227 0.0
O140 O 0.3477 0.5809 0.87132 0.0
C141 C 0.28447 0.44028 0.92791 0.0
O142 O 0.31337 0.43129 0.91131 0.0
C143 C 0.281 0.659 0.83566 0.0
C144 C 0.28366 0.7348 0.84043 0.0
C145 C 0.2753 0.7006 0.82445 0.0
N146 N 0.29118 0.66795 0.85735 0.0
N147 N 0.29343 0.71332 0.86013 0.0
C148 C 0.27678 0.61115 0.82602 0.0
H149 H 0.29965 0.58688 0.83518 0.0
H150 H 0.24077 0.59861 0.82805 0.0
H151 H 0.28558 0.61097 0.80771 0.0
C152 C 0.19289 0.53325 0.89137 0.0
N153 N 0.23631 0.54958 0.8917 0.0
N154 N 0.23807 0.58914 0.88077 0.0
C155 C 0.19491 0.60051 0.8742 0.0
C156 C 0.16517 0.56493 0.8803 0.0
C157 C 0.17679 0.49239 0.90485 0.0
H158 H 0.20024 0.4627 0.90182 0.0
H159 H 0.14096 0.48225 0.90028 0.0
H160 H 0.17788 0.50115 0.92315 0.0
O161 O 0.30035 0.58627 0.93101 0.0
O162 O 0.30685 0.64971 0.90995 0.0
H163 H 0.20418 0.67439 0.87331 0.0
H164 H 0.14472 0.65542 0.87069 0.0
C165 C 0.18106 0.64756 0.86606 0.0
H166 H 0.18378 0.64872 0.84735 0.0
H167 H 0.30009 0.72957 0.87558 0.0
O168 O 0.26869 0.48101 0.93023 0.0
C169 C 0.30754 0.62968 0.92916 0.0
Co170 Co 0.53229 0.73069 0.0903 0.0
Co171 Co 0.61348 0.71599 0.12453 0.0
C172 C 0.54251 0.64398 0.11871 0.0
O173 O 0.5237 0.66806 0.10324 0.0
O174 O 0.57749 0.65853 0.12967 0.0
C175 C 0.44147 0.72124 0.07128 0.0
O176 O 0.4363 0.68886 0.08668 0.0
C177 C 0.66471 0.7027 0.16684 0.0
C178 C 0.72818 0.74335 0.16031 0.0
C179 C 0.70575 0.71729 0.17667 0.0
N180 N 0.66305 0.71932 0.14562 0.0
N181 N 0.7014 0.74295 0.14169 0.0
C182 C 0.62523 0.67836 0.17819 0.0
H183 H 0.62951 0.64045 0.176 0.0
H184 H 0.59196 0.68869 0.1704 0.0
H185 H 0.6243 0.68624 0.19659 0.0
C186 C 0.52042 0.81586 0.11653 0.0
N187 N 0.54156 0.77526 0.11281 0.0
N188 N 0.57454 0.76926 0.12782 0.0
C189 C 0.57418 0.80552 0.14229 0.0
C190 C 0.53978 0.83632 0.13562 0.0
C191 C 0.48647 0.8367 0.10032 0.0
H192 H 0.49524 0.82655 0.08274 0.0
H193 H 0.45131 0.82354 0.10428 0.0
H194 H 0.48643 0.87503 0.10129 0.0
O195 O 0.58525 0.72943 0.0702 0.0
O196 O 0.64261 0.71171 0.09357 0.0
H197 H 0.641 0.81699 0.1567 0.0
H198 H 0.5937 0.83766 0.17408 0.0
C199 C 0.60518 0.80978 0.16246 0.0
H200 H 0.6052 0.77676 0.17192 0.0
H201 H 0.70846 0.7603 0.12658 0.0
O202 O 0.47861 0.74474 0.07082 0.0
C203 C 0.62733 0.71956 0.0737 0.0
Co204 Co 0.71812 0.45043 0.92539 0.0
Co205 Co 0.74692 0.3689 0.89312 0.0
C206 C 0.66319 0.42976 0.88513 0.0
O207 O 0.67039 0.45499 0.90237 0.0
O208 O 0.6889 0.39554 0.88019 0.0
C209 C 0.69384 0.5404 0.94255 0.0
O210 O 0.67773 0.5471 0.92202 0.0
C211 C 0.78168 0.3465 0.8488 0.0
C212 C 0.78736 0.2703 0.84874 0.0
C213 C 0.79287 0.30916 0.83523 0.0
N214 N 0.77061 0.3308 0.8695 0.0
N215 N 0.77424 0.28518 0.86946 0.0
C216 C 0.7766 0.39589 0.84152 0.0
H217 H 0.76077 0.41715 0.85509 0.0
H218 H 0.81099 0.41057 0.83733 0.0
H219 H 0.75507 0.39767 0.82599 0.0
C220 C 0.81017 0.48381 0.91323 0.0
N221 N 0.77625 0.45225 0.91172 0.0
N222 N 0.79089 0.41616 0.90022 0.0
C223 C 0.83594 0.4226 0.8951 0.0
C224 C 0.84951 0.46588 0.90312 0.0
C225 C 0.80346 0.53158 0.92254 0.0
H226 H 0.77031 0.54563 0.91627 0.0
H227 H 0.83134 0.55558 0.91717 0.0
H228 H 0.80215 0.53007 0.94131 0.0
O229 O 0.71078 0.39218 0.94252 0.0
O230 O 0.73064 0.33268 0.92062 0.0
H231 H 0.90191 0.38875 0.89187 0.0
H232 H 0.86861 0.39175 0.86629 0.0
C233 C 0.8664 0.38634 0.88485 0.0
H234 H 0.85222 0.3513 0.88815 0.0
H235 H 0.76642 0.26416 0.88331 0.0
O236 O 0.71202 0.50171 0.94748 0.0
C237 C 0.71637 0.34886 0.93948 0.0
Co238 Co 0.43403 0.24725 0.07795 0.0
Co239 Co 0.34809 0.25606 0.11002 0.0
C240 C 0.42066 0.32897 0.10877 0.0
O241 O 0.44205 0.30778 0.09304 0.0
O242 O 0.38416 0.3125 0.11778 0.0
C243 C 0.52871 0.25342 0.06351 0.0
O244 O 0.53293 0.28116 0.08104 0.0
C245 C 0.29439 0.26073 0.1521 0.0
C246 C 0.22415 0.24377 0.13996 0.0
C247 C 0.24883 0.2547 0.1594 0.0
N248 N 0.29597 0.25338 0.12963 0.0
N249 N 0.25385 0.24374 0.12244 0.0
C250 C 0.33668 0.2706 0.16589 0.0
H251 H 0.36841 0.26337 0.15593 0.0
H252 H 0.33681 0.24923 0.1815 0.0
H253 H 0.33708 0.30772 0.17073 0.0
C254 C 0.44834 0.16314 0.10469 0.0
N255 N 0.42276 0.20022 0.0993 0.0
N256 N 0.38642 0.20233 0.11274 0.0
C257 C 0.38774 0.16588 0.1271 0.0
C258 C 0.42756 0.14054 0.1227 0.0
C259 C 0.49161 0.14944 0.09246 0.0
H260 H 0.48575 0.15109 0.07393 0.0
H261 H 0.51965 0.17416 0.09681 0.0
H262 H 0.50263 0.11385 0.09692 0.0
O263 O 0.38314 0.25262 0.0564 0.0
O264 O 0.32264 0.2634 0.0788 0.0
H265 H 0.31837 0.1676 0.14012 0.0
H266 H 0.35259 0.11984 0.15031 0.0
C267 C 0.35337 0.15692 0.14555 0.0
H268 H 0.36342 0.17691 0.16079 0.0
H269 H 0.24548 0.2366 0.1056 0.0
O270 O 0.48995 0.23429 0.0596 0.0
C271 C 0.34032 0.26055 0.05908 0.0
H272 H 0.58104 0.9259 0.36111 0.0
H273 H 0.65482 0.05623 0.35736 0.0
H274 H 0.58298 0.09573 0.34598 0.0
H275 H 0.49507 0.95351 0.31258 0.0
H276 H 0.4497 0.92328 0.32745 0.0
H277 H 0.50869 0.90368 0.32964 0.0
H278 H 0.50321 0.90922 0.37337 0.0
H279 H 0.44475 0.92928 0.37136 0.0
H280 H 0.48711 0.96349 0.38627 0.0
H281 H 0.50221 0.12318 0.34622 0.0
H282 H 0.41948 0.13516 0.35446 0.0
H283 H 0.39702 0.98693 0.35261 0.0
C284 C 0.58237 0.96227 0.35674 0.0
C285 C 0.62306 0.98821 0.36013 0.0
C286 C 0.62363 0.03599 0.35498 0.0
C287 C 0.58314 0.05859 0.34832 0.0
C288 C 0.54276 0.03257 0.34628 0.0
C289 C 0.5423 0.98515 0.34973 0.0
C290 C 0.49349 0.9662 0.34921 0.0
C291 C 0.48632 0.93482 0.32848 0.0
C292 C 0.48148 0.94059 0.37136 0.0
C293 C 0.46649 0.01075 0.34692 0.0
C294 C 0.49551 0.04864 0.3449 0.0
C295 C 0.47893 0.09383 0.34671 0.0
C296 C 0.43182 0.10038 0.35131 0.0
C297 C 0.40193 0.06195 0.35378 0.0
C298 C 0.41921 0.01686 0.3505 0.0
H299 H 0.96909 0.41809 0.63368 0.0
H300 H 0.00618 0.38637 0.56412 0.0
H301 H 0.04816 0.4599 0.56123 0.0
H302 H 0.94253 0.53575 0.62135 0.0
H303 H 0.96232 0.55777 0.64823 0.0
H304 H 0.94112 0.49932 0.64612 0.0
H305 H 0.01818 0.46948 0.66302 0.0
H306 H 0.03992 0.52792 0.66475 0.0
H307 H 0.07207 0.48452 0.64949 0.0
H308 H 0.08352 0.53636 0.56477 0.0
H309 H 0.09758 0.61939 0.57205 0.0
H310 H 0.03147 0.60713 0.63765 0.0
C311 C 0.98624 0.42667 0.61792 0.0
C312 C 0.98621 0.39561 0.59946 0.0
C313 C 0.00792 0.40848 0.57889 0.0
C314 C 0.03172 0.4503 0.57702 0.0
C315 C 0.03238 0.47956 0.59568 0.0
C316 C 0.0092 0.46911 0.61553 0.0
C317 C 0.0104 0.50964 0.63183 0.0
C318 C 0.96117 0.52663 0.63719 0.0
C319 C 0.03672 0.49712 0.65356 0.0
C320 C 0.03708 0.54457 0.61778 0.0
C321 C 0.05049 0.5258 0.59726 0.0
C322 C 0.07363 0.5515 0.58083 0.0
C323 C 0.08167 0.59834 0.5851 0.0
C324 C 0.066 0.6187 0.60544 0.0
C325 C 0.04453 0.59155 0.62223 0.0
H326 H 0.91153 0.46744 0.86779 0.0
H327 H 0.89251 0.51153 0.93746 0.0
H328 H 0.96614 0.55421 0.93591 0.0
H329 H 0.03127 0.44266 0.87525 0.0
H330 H 0.0473 0.45951 0.84691 0.0
H331 H 0.98997 0.43809 0.85251 0.0
H332 H 0.95594 0.513 0.83505 0.0
H333 H 0.01336 0.53506 0.82993 0.0
H334 H 0.9728 0.56852 0.84634 0.0
H335 H 0.04135 0.59015 0.92762 0.0
H336 H 0.12237 0.60346 0.91599 0.0
H337 H 0.09766 0.52935 0.85337 0.0
C338 C 0.92296 0.486 0.8827 0.0
C339 C 0.89565 0.48764 0.90249 0.0
C340 C 0.91207 0.51156 0.92181 0.0
C341 C 0.95379 0.53588 0.92111 0.0
C342 C 0.97927 0.53482 0.90114 0.0
C343 C 0.9653 0.50941 0.88251 0.0
C344 C 0.00221 0.50908 0.86431 0.0
C345 C 0.01867 0.45939 0.85947 0.0
C346 C 0.98503 0.53284 0.84263 0.0
C347 C 0.03933 0.5376 0.87585 0.0
C348 C 0.02464 0.55327 0.8968 0.0
C349 C 0.05324 0.57852 0.91119 0.0
C350 C 0.09889 0.5862 0.90444 0.0
C351 C 0.11523 0.56806 0.88372 0.0
C352 C 0.08507 0.54451 0.86898 0.0
H353 H 0.38761 0.05616 0.12995 0.0
H354 H 0.51206 0.13573 0.14223 0.0
H355 H 0.55174 0.0652 0.15542 0.0
H356 H 0.40652 0.96956 0.17929 0.0
H357 H 0.38266 0.92332 0.1624 0.0
H358 H 0.36099 0.98148 0.15932 0.0
H359 H 0.37812 0.97782 0.11627 0.0
H360 H 0.40027 0.92021 0.11921 0.0
H361 H 0.43594 0.96469 0.10678 0.0
H362 H 0.58282 0.98581 0.15634 0.0
H363 H 0.60079 0.90404 0.14852 0.0
H364 H 0.45462 0.87437 0.14145 0.0
C365 C 0.42235 0.05897 0.13661 0.0
C366 C 0.44685 0.10105 0.13531 0.0
C367 C 0.49288 0.10353 0.14324 0.0
C368 C 0.51555 0.06377 0.15086 0.0
C369 C 0.49122 0.02211 0.15099 0.0
C370 C 0.44519 0.01961 0.14466 0.0
C371 C 0.42867 0.96988 0.14374 0.0
C372 C 0.39257 0.96051 0.1623 0.0
C373 C 0.40968 0.95747 0.1201 0.0
C374 C 0.47346 0.94484 0.14865 0.0
C375 C 0.50904 0.97556 0.15308 0.0
C376 C 0.55501 0.96116 0.15398 0.0
C377 C 0.56495 0.91452 0.14962 0.0
C378 C 0.529 0.88281 0.14473 0.0
C379 C 0.48268 0.89791 0.14535 0.0
H380 H 0.07994 0.08276 0.37764 0.0
H381 H 0.14942 0.95335 0.3632 0.0
H382 H 0.07364 0.91415 0.35936 0.0
H383 H 0.00025 0.03471 0.41384 0.0
H384 H 0.95268 0.07182 0.40631 0.0
H385 H 0.01112 0.09201 0.40295 0.0
H386 H 0.99594 0.10901 0.36052 0.0
H387 H 0.93714 0.08925 0.36379 0.0
H388 H 0.97383 0.06371 0.34249 0.0
H389 H 0.99146 0.88779 0.36082 0.0
H390 H 0.90948 0.87432 0.37032 0.0
H391 H 0.89405 0.01974 0.38725 0.0
C392 C 0.07895 0.04659 0.37278 0.0
C393 C 0.12009 0.02111 0.37008 0.0
C394 C 0.11798 0.97339 0.36487 0.0
C395 C 0.0752 0.95098 0.36263 0.0
C396 C 0.03508 0.97677 0.36602 0.0
C397 C 0.03658 0.02349 0.37113 0.0
C398 C 0.9891 0.04171 0.37723 0.0
C399 C 0.98827 0.06118 0.40152 0.0
C400 C 0.97306 0.07807 0.35997 0.0
C401 C 0.96091 0.9977 0.37535 0.0
C402 C 0.98785 0.96093 0.36831 0.0
C403 C 0.9699 0.91639 0.36612 0.0
C404 C 0.92329 0.90911 0.37155 0.0
C405 C 0.89546 0.946 0.37953 0.0
C406 C 0.91451 0.99091 0.38118 0.0
H407 H 0.88357 0.07933 0.60173 0.0
H408 H 0.97312 0.14773 0.64983 0.0
H409 H 0.00545 0.07199 0.66121 0.0
H410 H 0.87012 0.96335 0.63455 0.0
H411 H 0.87175 0.93208 0.60812 0.0
H412 H 0.84552 0.98861 0.6094 0.0
H413 H 0.89928 0.01592 0.57693 0.0
H414 H 0.92628 0.96022 0.57583 0.0
H415 H 0.96107 0.01127 0.58028 0.0
H416 H 0.0415 0.99395 0.65969 0.0
H417 H 0.07537 0.91995 0.64687 0.0
H418 H 0.96172 0.90235 0.59969 0.0
C419 C 0.90789 0.07769 0.61565 0.0
C420 C 0.92516 0.11848 0.62547 0.0
C421 C 0.95872 0.11625 0.64274 0.0
C422 C 0.97723 0.07345 0.64922 0.0
C423 C 0.96137 0.0336 0.6383 0.0
C424 C 0.92663 0.03529 0.62218 0.0
C425 C 0.92115 0.98941 0.61013 0.0
C426 C 0.87436 0.96704 0.61591 0.0
C427 C 0.92737 0.99457 0.58429 0.0
C428 C 0.96056 0.96287 0.62065 0.0
C429 C 0.98266 0.98833 0.63727 0.0
C430 C 0.02364 0.97309 0.64721 0.0
C431 C 0.04282 0.93119 0.63972 0.0
C432 C 0.02123 0.90544 0.62226 0.0
C433 C 0.97889 0.92099 0.61321 0.0
H434 H 0.58065 0.38863 0.89002 0.0
H435 H 0.65299 0.49524 0.85277 0.0
H436 H 0.57847 0.52527 0.83852 0.0
H437 H 0.47469 0.37712 0.85005 0.0
H438 H 0.43723 0.37028 0.87425 0.0
H439 H 0.49536 0.34788 0.875 0.0
H440 H 0.51082 0.39472 0.91167 0.0
H441 H 0.45336 0.41765 0.91088 0.0
H442 H 0.50218 0.45653 0.91156 0.0
H443 H 0.49853 0.55479 0.83647 0.0
H444 H 0.42047 0.58168 0.84685 0.0
H445 H 0.3995 0.45669 0.88631 0.0
C446 C 0.58053 0.41653 0.87777 0.0
C447 C 0.62189 0.43899 0.87178 0.0
C448 C 0.62126 0.47705 0.85685 0.0
C449 C 0.57917 0.49418 0.84872 0.0
C450 C 0.53835 0.47276 0.85581 0.0
C451 C 0.53873 0.43429 0.86982 0.0
C452 C 0.4908 0.42313 0.87856 0.0
C453 C 0.4735 0.37686 0.86887 0.0
C454 C 0.48925 0.42307 0.90469 0.0
C455 C 0.46413 0.46333 0.86878 0.0
C456 C 0.49172 0.49075 0.85512 0.0
C457 C 0.4762 0.53294 0.84659 0.0
C458 C 0.43187 0.54808 0.85269 0.0
C459 C 0.40395 0.52133 0.86745 0.0
C460 C 0.41982 0.47772 0.87483 0.0
H461 H 0.44966 0.39738 0.08097 0.0
H462 H 0.42834 0.36398 0.15176 0.0
H463 H 0.45929 0.44119 0.16265 0.0
H464 H 0.55357 0.46302 0.08634 0.0
H465 H 0.53724 0.50527 0.06541 0.0
H466 H 0.51528 0.44702 0.06356 0.0
H467 H 0.43129 0.47832 0.06333 0.0
H468 H 0.45299 0.53667 0.06509 0.0
H469 H 0.41229 0.51588 0.08589 0.0
H470 H 0.49774 0.52094 0.1653 0.0
H471 H 0.52984 0.59993 0.1594 0.0
H472 H 0.51674 0.58216 0.0868 0.0
C473 C 0.45173 0.40634 0.09877 0.0
C474 C 0.43743 0.37492 0.11561 0.0
C475 C 0.43948 0.38786 0.1387 0.0
C476 C 0.45709 0.43141 0.14499 0.0
C477 C 0.47126 0.46166 0.12789 0.0
C478 C 0.4678 0.44991 0.10524 0.0
C479 C 0.48278 0.48921 0.09003 0.0
C480 C 0.52471 0.47528 0.07549 0.0
C481 C 0.44243 0.50601 0.07522 0.0
C482 C 0.49581 0.52485 0.10763 0.0
C483 C 0.48976 0.50824 0.12939 0.0
C484 C 0.50193 0.53452 0.14834 0.0
C485 C 0.52021 0.5791 0.14488 0.0
C486 C 0.52491 0.59697 0.1227 0.0
C487 C 0.51259 0.56945 0.10394 0.0
H488 H 0.28132 0.29768 0.19874 0.0
H489 H 0.1707 0.21012 0.17316 0.0
H490 H 0.14119 0.20066 0.21192 0.0
H491 H 0.30722 0.22719 0.24442 0.0
H492 H 0.3215 0.27373 0.26356 0.0
H493 H 0.32852 0.2815 0.23354 0.0
H494 H 0.27579 0.3539 0.23512 0.0
H495 H 0.26841 0.34615 0.26521 0.0
H496 H 0.21853 0.3491 0.24701 0.0
H497 H 0.12896 0.19246 0.25342 0.0
H498 H 0.13735 0.18313 0.29475 0.0
H499 H 0.25994 0.2698 0.29348 0.0
C500 C 0.25131 0.27603 0.20106 0.0
C501 C 0.22934 0.25359 0.1827 0.0
C502 C 0.18849 0.22764 0.18684 0.0
C503 C 0.17128 0.22209 0.20884 0.0
C504 C 0.19511 0.24286 0.22661 0.0
C505 C 0.23425 0.26933 0.22299 0.0
C506 C 0.25643 0.28353 0.24516 0.0
C507 C 0.30635 0.26538 0.24676 0.0
C508 C 0.25466 0.33631 0.24831 0.0
C509 C 0.22474 0.25919 0.26176 0.0
C510 C 0.18891 0.23693 0.25071 0.0
C511 C 0.15672 0.20991 0.26228 0.0
C512 C 0.16205 0.20437 0.28569 0.0
C513 C 0.19985 0.22493 0.29712 0.0
C514 C 0.23061 0.2539 0.28512 0.0
H515 H 0.306 0.7612 0.79199 0.0
H516 H 0.20191 0.6564 0.80555 0.0
H517 H 0.17254 0.66407 0.7667 0.0
H518 H 0.23277 0.83378 0.75684 0.0
H519 H 0.27857 0.84923 0.73752 0.0
H520 H 0.29177 0.83582 0.76659 0.0
H521 H 0.34946 0.77289 0.75327 0.0
H522 H 0.33627 0.78595 0.72416 0.0
H523 H 0.3298 0.72763 0.73454 0.0
H524 H 0.15576 0.6805 0.72676 0.0
H525 H 0.14941 0.70819 0.68753 0.0
H526 H 0.26224 0.80459 0.69907 0.0
C527 C 0.27696 0.74009 0.78669 0.0
C528 C 0.25696 0.7073 0.80147 0.0
C529 C 0.21874 0.68051 0.7942 0.0
C530 C 0.20155 0.68489 0.77224 0.0
C531 C 0.22269 0.71657 0.75785 0.0
C532 C 0.2593 0.74401 0.7647 0.0
C533 C 0.27539 0.77535 0.74565 0.0
C534 C 0.26924 0.82658 0.75204 0.0
C535 C 0.32572 0.76481 0.73902 0.0
C536 C 0.24209 0.761 0.7271 0.0
C537 C 0.21211 0.72702 0.73462 0.0
C538 C 0.17853 0.70759 0.72071 0.0
C539 C 0.17494 0.72382 0.69853 0.0
C540 C 0.20441 0.75944 0.69058 0.0
C541 C 0.23898 0.77768 0.7049 0.0
H542 H 0.75616 0.82213 0.29764 0.0
H543 H 0.73932 0.68429 0.32546 0.0
H544 H 0.73337 0.65244 0.28662 0.0
H545 H 0.67756 0.81179 0.25446 0.0
H546 H 0.71001 0.84468 0.23392 0.0
H547 H 0.71781 0.85568 0.26365 0.0
H548 H 0.80582 0.84088 0.2597 0.0
H549 H 0.79839 0.83025 0.22984 0.0
H550 H 0.82575 0.78735 0.24742 0.0
H551 H 0.72107 0.63743 0.24495 0.0
H552 H 0.70531 0.64035 0.20371 0.0
H553 H 0.73467 0.7875 0.20363 0.0
C554 C 0.75344 0.785 0.29561 0.0
C555 C 0.74983 0.7554 0.31452 0.0
C556 C 0.74298 0.70737 0.31112 0.0
C557 C 0.7397 0.68901 0.28916 0.0
C558 C 0.7435 0.71922 0.27086 0.0
C559 C 0.75064 0.76615 0.27388 0.0
C560 C 0.7505 0.79175 0.25156 0.0
C561 C 0.71165 0.82809 0.25087 0.0
C562 C 0.79794 0.81385 0.24685 0.0
C563 C 0.74093 0.75211 0.23551 0.0
C564 C 0.73711 0.71048 0.24691 0.0
C565 C 0.72475 0.66967 0.2358 0.0
C566 C 0.71565 0.67164 0.21248 0.0
C567 C 0.7191 0.71407 0.20067 0.0
C568 C 0.73272 0.75448 0.21226 0.0
H569 H 0.75166 0.26045 0.80106 0.0
H570 H 0.85948 0.36101 0.81484 0.0
H571 H 0.87443 0.36881 0.77378 0.0
H572 H 0.80806 0.20468 0.75295 0.0
H573 H 0.75485 0.19689 0.73755 0.0
H574 H 0.75428 0.19776 0.76805 0.0
H575 H 0.69394 0.26392 0.76731 0.0
H576 H 0.69471 0.2636 0.73681 0.0
H577 H 0.70681 0.31638 0.75202 0.0
H578 H 0.8766 0.36688 0.7315 0.0
H579 H 0.86691 0.35423 0.69038 0.0
H580 H 0.75652 0.25615 0.7037 0.0
C581 C 0.77881 0.28356 0.79535 0.0
C582 C 0.80434 0.31038 0.81092 0.0
C583 C 0.83922 0.34073 0.80302 0.0
C584 C 0.84803 0.34522 0.77979 0.0
C585 C 0.82151 0.31917 0.76476 0.0
C586 C 0.7877 0.28882 0.77217 0.0
C587 C 0.76334 0.2659 0.75239 0.0
C588 C 0.77059 0.21318 0.75276 0.0
C589 C 0.71164 0.2782 0.75213 0.0
C590 C 0.78874 0.28813 0.73274 0.0
C591 C 0.82228 0.31859 0.74029 0.0
C592 C 0.85062 0.34295 0.72537 0.0
C593 C 0.84503 0.33543 0.70209 0.0
C594 C 0.81133 0.30395 0.69402 0.0
C595 C 0.78236 0.28059 0.70952 0.0
H596 H 0.11963 0.80723 0.51623 0.0
H597 H 0.22676 0.84889 0.56351 0.0
H598 H 0.27469 0.87632 0.53156 0.0
H599 H 0.19908 0.7721 0.46898 0.0
H600 H 0.15991 0.79433 0.44794 0.0
H601 H 0.13762 0.77105 0.4741 0.0
H602 H 0.09419 0.84794 0.48177 0.0
H603 H 0.11611 0.87124 0.45569 0.0
H604 H 0.12615 0.90161 0.48192 0.0
H605 H 0.30442 0.91113 0.49551 0.0
H606 H 0.31338 0.94976 0.45842 0.0
H607 H 0.18869 0.88201 0.43455 0.0
C608 C 0.15361 0.82117 0.51988 0.0
C609 C 0.1694 0.82599 0.54238 0.0
C610 C 0.21398 0.84467 0.5464 0.0
C611 C 0.24154 0.86018 0.52835 0.0
C612 C 0.22439 0.85594 0.50639 0.0
C613 C 0.18163 0.83638 0.50209 0.0
C614 C 0.16912 0.83973 0.47728 0.0
C615 C 0.16628 0.79142 0.46644 0.0
C616 C 0.12374 0.86675 0.47399 0.0
C617 C 0.21039 0.86645 0.46846 0.0
C618 C 0.24228 0.8749 0.48542 0.0
C619 C 0.28038 0.90369 0.48194 0.0
C620 C 0.28518 0.92552 0.46085 0.0
C621 C 0.25206 0.91835 0.44356 0.0
C622 C 0.21527 0.8871 0.44722 0.0
H623 H 0.83441 0.80428 0.44377 0.0
H624 H 0.72087 0.87413 0.47703 0.0
H625 H 0.74718 0.84421 0.514 0.0
H626 H 0.84794 0.7032 0.48589 0.0
H627 H 0.90998 0.70698 0.4836 0.0
H628 H 0.87423 0.72023 0.45947 0.0
H629 H 0.91404 0.80034 0.45619 0.0
H630 H 0.94925 0.78781 0.48039 0.0
H631 H 0.91359 0.83891 0.48023 0.0
H632 H 0.79366 0.82163 0.54723 0.0
H633 H 0.85772 0.8112 0.57417 0.0
H634 H 0.94479 0.76055 0.51963 0.0
C635 C 0.81373 0.81084 0.45874 0.0
C636 C 0.77493 0.84015 0.45767 0.0
C637 C 0.75002 0.85068 0.47761 0.0
C638 C 0.76472 0.83378 0.49863 0.0
C639 C 0.80468 0.80689 0.49937 0.0
C640 C 0.82882 0.79528 0.4799 0.0
C641 C 0.87528 0.77409 0.48556 0.0
C642 C 0.87693 0.72309 0.47819 0.0
C643 C 0.91535 0.80198 0.47498 0.0
C644 C 0.87475 0.77838 0.51111 0.0
C645 C 0.8331 0.79586 0.51878 0.0
C646 C 0.82602 0.80695 0.54149 0.0
C647 C 0.86272 0.80107 0.55667 0.0
C648 C 0.90626 0.7851 0.54898 0.0
C649 C 0.91178 0.77245 0.52602 0.0
H650 H 0.75201 0.05192 0.47563 0.0
H651 H 0.78561 0.15335 0.42399 0.0
H652 H 0.78829 0.21438 0.45329 0.0
H653 H 0.68441 0.13167 0.51423 0.0
H654 H 0.70817 0.10434 0.53904 0.0
H655 H 0.69863 0.07095 0.51364 0.0
H656 H 0.78461 0.04571 0.51362 0.0
H657 H 0.79415 0.0785 0.53901 0.0
H658 H 0.82921 0.08941 0.5143 0.0
H659 H 0.80201 0.26037 0.48825 0.0
H660 H 0.82998 0.28588 0.52578 0.0
H661 H 0.78649 0.15564 0.55492 0.0
C662 C 0.75854 0.08722 0.47035 0.0
C663 C 0.7684 0.09791 0.44749 0.0
C664 C 0.77778 0.14435 0.44138 0.0
C665 C 0.77901 0.17932 0.4579 0.0
C666 C 0.77035 0.16736 0.48041 0.0
C667 C 0.76013 0.12237 0.48662 0.0
C668 C 0.75868 0.11709 0.51214 0.0
C669 C 0.70954 0.10532 0.52024 0.0
C670 C 0.79376 0.08056 0.52022 0.0
C671 C 0.77252 0.16547 0.51937 0.0
C672 C 0.77783 0.19433 0.50082 0.0
C673 C 0.79645 0.2387 0.50295 0.0
C674 C 0.81198 0.25308 0.52432 0.0
C675 C 0.80857 0.22328 0.5432 0.0
C676 C 0.78712 0.17975 0.54087 0.0
H677 H 0.21282 0.10023 0.46719 0.0
H678 H 0.1865 0.22268 0.42666 0.0
H679 H 0.14192 0.25626 0.4583 0.0
H680 H 0.10534 0.08877 0.48756 0.0
H681 H 0.12036 0.06927 0.51559 0.0
H682 H 0.15937 0.05939 0.49241 0.0
H683 H 0.225 0.10195 0.51382 0.0
H684 H 0.18641 0.1113 0.53739 0.0
H685 H 0.21546 0.15973 0.52438 0.0
H686 H 0.0885 0.26946 0.49078 0.0
H687 H 0.03363 0.26356 0.52258 0.0
H688 H 0.09402 0.13195 0.54186 0.0
C689 C 0.1992 0.13487 0.4652 0.0
C690 C 0.20323 0.15884 0.44442 0.0
C691 C 0.18415 0.20376 0.44244 0.0
C692 C 0.15876 0.22312 0.46034 0.0
C693 C 0.1533 0.19736 0.48013 0.0
C694 C 0.17361 0.15448 0.4828 0.0
C695 C 0.15797 0.13131 0.50451 0.0
C696 C 0.13436 0.08445 0.49971 0.0
C697 C 0.19864 0.12577 0.521 0.0
C698 C 0.12377 0.16676 0.51306 0.0
C699 C 0.12217 0.20495 0.49897 0.0
C700 C 0.09021 0.24028 0.50222 0.0
C701 C 0.05895 0.2364 0.52026 0.0
C702 C 0.05969 0.19733 0.53476 0.0
C703 C 0.09307 0.16251 0.53127 0.0
H704 H 0.36621 0.25426 0.01475 0.0
H705 H 0.25364 0.2992 0.0581 0.0
H706 H 0.21783 0.33886 0.02562 0.0
H707 H 0.38284 0.35403 0.98888 0.0
H708 H 0.39615 0.33213 0.96103 0.0
H709 H 0.40611 0.29659 0.98541 0.0
H710 H 0.35422 0.23197 0.96859 0.0
H711 H 0.34452 0.26716 0.94384 0.0
H712 H 0.29607 0.24535 0.95986 0.0
H713 H 0.20504 0.38858 0.99179 0.0
H714 H 0.21395 0.44035 0.95882 0.0
H715 H 0.33423 0.36253 0.93719 0.0
C716 C 0.33303 0.27081 0.01723 0.0
C717 C 0.31278 0.27367 0.03898 0.0
C718 C 0.26968 0.29623 0.04158 0.0
C719 C 0.24904 0.31887 0.02319 0.0
C720 C 0.2715 0.31786 0.00226 0.0
C721 C 0.31213 0.29355 -0.00091 0.0
C722 C 0.33291 0.30304 0.976 0.0
C723 C 0.38238 0.32263 0.97797 0.0
C724 C 0.33184 0.25927 0.96119 0.0
C725 C 0.29948 0.33901 0.9673 0.0
C726 C 0.26372 0.34639 0.98247 0.0
C727 C 0.23202 0.38214 0.97947 0.0
C728 C 0.23754 0.41156 0.96078 0.0
C729 C 0.27459 0.40515 0.9454 0.0
C730 C 0.30497 0.36755 0.94838 0.0
H731 H 0.30686 0.599 0.97294 0.0
H732 H 0.33387 0.721 0.93208 0.0
H733 H 0.35927 0.76304 0.96632 0.0
H734 H 0.26865 0.66148 0.02525 0.0
H735 H 0.29661 0.61978 0.04328 0.0
H736 H 0.27338 0.60198 0.01631 0.0
H737 H 0.35344 0.5692 0.0048 0.0
H738 H 0.37673 0.58669 0.03166 0.0
H739 H 0.40347 0.60649 0.00582 0.0
H740 H 0.39302 0.78729 0.00353 0.0
H741 H 0.43294 0.79131 0.04044 0.0
H742 H 0.38163 0.6543 0.05711 0.0
C743 C 0.31711 0.63489 0.97121 0.0
C744 C 0.31837 0.65668 0.9498 0.0
C745 C 0.33245 0.70359 0.9483 0.0
C746 C 0.34674 0.72783 0.96768 0.0
C747 C 0.34608 0.70489 0.98844 0.0
C748 C 0.33125 0.65955 0.99033 0.0
C749 C 0.33809 0.64119 0.01408 0.0
C750 C 0.29139 0.63049 0.0254 0.0
C751 C 0.36983 0.5984 0.01407 0.0
C752 C 0.36124 0.68252 0.025 0.0
C753 C 0.36486 0.71922 0.01007 0.0
C754 C 0.38943 0.75925 0.01555 0.0
C755 C 0.41205 0.76119 0.03652 0.0
C756 C 0.40997 0.72329 0.05169 0.0
C757 C 0.38288 0.68426 0.04611 0.0
H758 H 0.68002 0.64355 0.06629 0.0
H759 H 0.63295 0.77076 0.03537 0.0
H760 H 0.6578 0.7422 0.99791 0.0
H761 H 0.77868 0.61735 0.02406 0.0
H762 H 0.76502 0.55647 0.02507 0.0
H763 H 0.75699 0.59203 0.04988 0.0
H764 H 0.67172 0.56489 0.05207 0.0
H765 H 0.67892 0.53036 0.02703 0.0
H766 H 0.6343 0.57377 0.02807 0.0
H767 H 0.66958 0.69408 0.96379 0.0
H768 H 0.67375 0.63168 0.93531 0.0
H769 H 0.71175 0.53424 0.98796 0.0
C770 C 0.67776 0.66638 0.0518 0.0
C771 C 0.65575 0.70971 0.05364 0.0
C772 C 0.65074 0.73786 0.03423 0.0
C773 C 0.66462 0.72184 0.0129 0.0
C774 C 0.68338 0.67758 0.01133 0.0
C775 C 0.69077 0.65044 0.0303 0.0
C776 C 0.70446 0.60163 0.02368 0.0
C777 C 0.75426 0.59127 0.03111 0.0
C778 C 0.6703 0.56559 0.03328 0.0
C779 C 0.70095 0.60492 0.99815 0.0
C780 C 0.68957 0.6492 0.99136 0.0
C781 C 0.67976 0.65957 0.96882 0.0
C782 C 0.68177 0.6238 0.95279 0.0
C783 C 0.69328 0.57819 0.95941 0.0
C784 C 0.70355 0.56894 0.98235 0.0
H785 H 0.71176 0.36933 0.98428 0.0
H786 H 0.686 0.25896 0.93609 0.0
H787 H 0.6457 0.21427 0.96594 0.0
H788 H 0.72278 0.29276 0.0365 0.0
H789 H 0.69406 0.33571 0.05361 0.0
H790 H 0.72994 0.35337 0.03014 0.0
H791 H 0.66131 0.39975 0.01356 0.0
H792 H 0.62518 0.38193 0.0367 0.0
H793 H 0.60741 0.37041 0.00799 0.0
H794 H 0.59382 0.19073 0.99806 0.0
H795 H 0.53903 0.18818 0.03019 0.0
H796 H 0.60092 0.31291 0.05774 0.0
C797 C 0.69908 0.335 0.98022 0.0
C798 C 0.70192 0.31752 0.95793 0.0
C799 C 0.6846 0.27274 0.95314 0.0
C800 C 0.66164 0.24716 0.97 0.0
C801 C 0.65735 0.26653 0.99158 0.0
C802 C 0.67651 0.30909 0.99683 0.0
C803 C 0.66269 0.32494 0.02031 0.0
C804 C 0.70489 0.32678 0.03607 0.0
C805 C 0.63765 0.37199 0.01957 0.0
C806 C 0.63023 0.28618 0.02693 0.0
C807 C 0.62816 0.25236 0.01034 0.0
C808 C 0.59619 0.21622 0.01145 0.0
C809 C 0.56505 0.21518 0.0297 0.0
C810 C 0.5661 0.25011 0.04654 0.0
C811 C 0.60007 0.28511 0.04543 0.0
loop_
_geom_bond_atom_site_label_1
_geom_bond_atom_site_label_2
_geom_bond_distance
_geom_bond_site_symmetry_2
_ccdc_geom_bond_type
Co0 O3 1.970 . S
Co0 N17 1.989 . S
Co0 O25 1.967 . S
Co0 O32 1.920 . S
Co1 O4 1.966 . S
Co1 N10 2.022 . S
Co1 N18 1.993 . S
Co1 O26 1.941 . S
C2 O3 1.258 . S
C2 O4 1.263 . S
O3 Co0 1.970 . S
O3 C2 1.258 . S
O4 Co1 1.966 . S
O4 C2 1.263 . S
C5 O6 1.235 . S
C5 O32 1.289 1_565 S
O6 C5 1.235 . S
C7 C9 1.400 . S
C7 N10 1.351 . S
C7 C12 1.501 . S
C8 C9 1.387 . S
C8 N11 1.341 . S
C9 C7 1.400 . S
C9 C8 1.387 . S
N10 Co1 2.022 . S
N10 C7 1.351 . S
N10 N11 1.365 . S
N11 C8 1.341 . S
N11 N10 1.365 . S
N11 H31 0.862 . S
C12 C7 1.501 . S
C12 H13 0.961 . S
C12 H14 0.961 . S
C12 H15 0.960 . S
H13 C12 0.961 . S
H14 C12 0.961 . S
H15 C12 0.960 . S
C16 N17 1.342 . S
C16 C20 1.401 . S
C16 C21 1.499 . S
N17 Co0 1.989 . S
N17 C16 1.342 . S
N17 N18 1.388 . S
N18 Co1 1.993 . S
N18 N17 1.388 . S
N18 C19 1.346 . S
C19 N18 1.346 . S
C19 C20 1.396 . S
C19 C29 1.510 . S
C20 C16 1.401 . S
C20 C19 1.396 . S
C21 C16 1.499 . S
C21 H22 0.959 . S
C21 H23 0.960 1_545 S
C21 H24 0.961 . S
H22 C21 0.959 . S
H23 C21 0.960 1_565 S
H24 C21 0.961 . S
O25 Co0 1.967 . S
O25 C33 1.258 . S
O26 Co1 1.941 . S
O26 C33 1.266 . S
H27 C29 0.959 . S
H28 C29 0.961 . S
C29 C19 1.510 . S
C29 H27 0.959 . S
C29 H28 0.961 . S
C29 H30 0.960 . S
H30 C29 0.960 . S
H31 N11 0.862 . S
O32 Co0 1.920 . S
O32 C5 1.289 1_545 S
C33 O25 1.258 . S
C33 O26 1.266 . S
Co34 O37 1.970 . S
Co34 N51 1.989 . S
Co34 O59 1.967 . S
Co34 O66 1.920 . S
Co35 O38 1.966 . S
Co35 N44 2.022 . S
Co35 N52 1.993 . S
Co35 O60 1.941 . S
C36 O37 1.258 . S
C36 O38 1.263 . S
O37 Co34 1.970 . S
O37 C36 1.258 . S
O38 Co35 1.966 . S
O38 C36 1.263 . S
C39 O40 1.235 . S
C39 O66 1.289 1_655 S
O40 C39 1.235 . S
C41 C43 1.400 . S
C41 N44 1.351 . S
C41 C46 1.501 . S
C42 C43 1.387 . S
C42 N45 1.341 . S
C43 C41 1.400 . S
C43 C42 1.387 . S
N44 Co35 2.022 . S
N44 C41 1.351 . S
N44 N45 1.365 . S
N45 C42 1.341 . S
N45 N44 1.365 . S
N45 H65 0.862 . S
C46 C41 1.501 . S
C46 H47 0.961 . S
C46 H48 0.961 . S
C46 H49 0.960 . S
H47 C46 0.961 . S
H48 C46 0.961 . S
H49 C46 0.960 . S
C50 N51 1.342 . S
C50 C54 1.401 . S
C50 C55 1.499 . S
N51 Co34 1.989 . S
N51 C50 1.342 . S
N51 N52 1.388 . S
N52 Co35 1.993 . S
N52 N51 1.388 . S
N52 C53 1.346 . S
C53 N52 1.346 . S
C53 C54 1.396 . S
C53 C63 1.510 . S
C54 C50 1.401 . S
C54 C53 1.396 . S
C55 C50 1.499 . S
C55 H56 0.959 . S
C55 H57 0.960 1_455 S
C55 H58 0.961 . S
H56 C55 0.959 . S
H57 C55 0.960 1_655 S
H58 C55 0.961 . S
O59 Co34 1.967 . S
O59 C67 1.258 . S
O60 Co35 1.941 . S
O60 C67 1.266 . S
H61 C63 0.959 . S
H62 C63 0.961 . S
C63 C53 1.510 . S
C63 H61 0.959 . S
C63 H62 0.961 . S
C63 H64 0.960 . S
H64 C63 0.960 . S
H65 N45 0.862 . S
O66 Co34 1.920 . S
O66 C39 1.289 1_455 S
C67 O59 1.258 . S
C67 O60 1.266 . S
Co68 O71 1.970 . S
Co68 N85 1.989 . S
Co68 O93 1.967 . S
Co68 O100 1.920 . S
Co69 O72 1.966 . S
Co69 N78 2.022 . S
Co69 N86 1.993 . S
Co69 O94 1.941 . S
C70 O71 1.258 . S
C70 O72 1.263 . S
O71 Co68 1.970 . S
O71 C70 1.258 . S
O72 Co69 1.966 . S
O72 C70 1.263 . S
C73 O74 1.235 . S
C73 O100 1.289 1_545 S
O74 C73 1.235 . S
C75 C77 1.400 . S
C75 N78 1.351 . S
C75 C80 1.501 . S
C76 C77 1.387 . S
C76 N79 1.341 . S
C77 C75 1.400 . S
C77 C76 1.387 . S
N78 Co69 2.022 . S
N78 C75 1.351 . S
N78 N79 1.365 . S
N79 C76 1.341 . S
N79 N78 1.365 . S
N79 H99 0.862 . S
C80 C75 1.501 . S
C80 H81 0.961 . S
C80 H82 0.961 . S
C80 H83 0.960 . S
H81 C80 0.961 . S
H82 C80 0.961 . S
H83 C80 0.960 . S
C84 N85 1.342 . S
C84 C88 1.401 . S
C84 C89 1.499 . S
N85 Co68 1.989 . S
N85 C84 1.342 . S
N85 N86 1.388 . S
N86 Co69 1.993 . S
N86 N85 1.388 . S
N86 C87 1.346 . S
C87 N86 1.346 . S
C87 C88 1.396 . S
C87 C97 1.510 . S
C88 C84 1.401 . S
C88 C87 1.396 . S
C89 C84 1.499 . S
C89 H90 0.959 . S
C89 H91 0.960 1_565 S
C89 H92 0.961 . S
H90 C89 0.959 . S
H91 C89 0.960 1_545 S
H92 C89 0.961 . S
O93 Co68 1.967 . S
O93 C101 1.258 . S
O94 Co69 1.941 . S
O94 C101 1.266 . S
H95 C97 0.959 . S
H96 C97 0.961 . S
C97 C87 1.510 . S
C97 H95 0.959 . S
C97 H96 0.961 . S
C97 H98 0.960 . S
H98 C97 0.960 . S
H99 N79 0.862 . S
O100 Co68 1.920 . S
O100 C73 1.289 1_565 S
C101 O93 1.258 . S
C101 O94 1.266 . S
Co102 O105 1.970 . S
Co102 N119 1.989 . S
Co102 O127 1.967 . S
Co102 O134 1.920 . S
Co103 O106 1.966 . S
Co103 N112 2.022 . S
Co103 N120 1.993 . S
Co103 O128 1.941 . S
C104 O105 1.258 . S
C104 O106 1.263 . S
O105 Co102 1.970 . S
O105 C104 1.258 . S
O106 Co103 1.966 . S
O106 C104 1.263 . S
C107 O108 1.235 . S
C107 O134 1.289 1_455 S
O108 C107 1.235 . S
C109 C111 1.400 . S
C109 N112 1.351 . S
C109 C114 1.501 . S
C110 C111 1.387 . S
C110 N113 1.341 . S
C111 C109 1.400 . S
C111 C110 1.387 . S
N112 Co103 2.022 . S
N112 C109 1.351 . S
N112 N113 1.365 . S
N113 C110 1.341 . S
N113 N112 1.365 . S
N113 H133 0.862 . S
C114 C109 1.501 . S
C114 H115 0.961 . S
C114 H116 0.961 . S
C114 H117 0.960 . S
H115 C114 0.961 . S
H116 C114 0.961 . S
H117 C114 0.960 . S
C118 N119 1.342 . S
C118 C122 1.401 . S
C118 C123 1.499 . S
N119 Co102 1.989 . S
N119 C118 1.342 . S
N119 N120 1.388 . S
N120 Co103 1.993 . S
N120 N119 1.388 . S
N120 C121 1.346 . S
C121 N120 1.346 . S
C121 C122 1.396 . S
C121 C131 1.510 . S
C122 C118 1.401 . S
C122 C121 1.396 . S
C123 C118 1.499 . S
C123 H124 0.959 . S
C123 H125 0.960 1_655 S
C123 H126 0.961 . S
H124 C123 0.959 . S
H125 C123 0.960 1_455 S
H126 C123 0.961 . S
O127 Co102 1.967 . S
O127 C135 1.258 . S
O128 Co103 1.941 . S
O128 C135 1.266 . S
H129 C131 0.959 . S
H130 C131 0.961 . S
C131 C121 1.510 . S
C131 H129 0.959 . S
C131 H130 0.961 . S
C131 H132 0.960 . S
H132 C131 0.960 . S
H133 N113 0.862 . S
O134 Co102 1.920 . S
O134 C107 1.289 1_655 S
C135 O127 1.258 . S
C135 O128 1.266 . S
Co136 O139 1.970 . S
Co136 N153 1.989 . S
Co136 O161 1.967 . S
Co136 O168 1.920 . S
Co137 O140 1.966 . S
Co137 N146 2.022 . S
Co137 N154 1.993 . S
Co137 O162 1.941 . S
C138 O139 1.258 . S
C138 O140 1.263 . S
O139 Co136 1.970 . S
O139 C138 1.258 . S
O140 Co137 1.966 . S
O140 C138 1.263 . S
C141 O142 1.235 . S
C141 O168 1.289 . S
O142 C141 1.235 . S
C143 C145 1.400 . S
C143 N146 1.351 . S
C143 C148 1.501 . S
C144 C145 1.387 . S
C144 N147 1.341 . S
C145 C143 1.400 . S
C145 C144 1.387 . S
N146 Co137 2.022 . S
N146 C143 1.351 . S
N146 N147 1.365 . S
N147 C144 1.341 . S
N147 N146 1.365 . S
N147 H167 0.862 . S
C148 C143 1.501 . S
C148 H149 0.961 . S
C148 H150 0.961 . S
C148 H151 0.960 . S
H149 C148 0.961 . S
H150 C148 0.961 . S
H151 C148 0.960 . S
C152 N153 1.342 . S
C152 C156 1.401 . S
C152 C157 1.499 . S
N153 Co136 1.989 . S
N153 C152 1.342 . S
N153 N154 1.388 . S
N154 Co137 1.993 . S
N154 N153 1.388 . S
N154 C155 1.346 . S
C155 N154 1.346 . S
C155 C156 1.396 . S
C155 C165 1.510 . S
C156 C152 1.401 . S
C156 C155 1.396 . S
C157 C152 1.499 . S
C157 H158 0.959 . S
C157 H159 0.960 . S
C157 H160 0.961 . S
H158 C157 0.959 . S
H159 C157 0.960 . S
H160 C157 0.961 . S
O161 Co136 1.967 . S
O161 C169 1.258 . S
O162 Co137 1.941 . S
O162 C169 1.266 . S
H163 C165 0.959 . S
H164 C165 0.961 . S
C165 C155 1.510 . S
C165 H163 0.959 . S
C165 H164 0.961 . S
C165 H166 0.960 . S
H166 C165 0.960 . S
H167 N147 0.862 . S
O168 Co136 1.920 . S
O168 C141 1.289 . S
C169 O161 1.258 . S
C169 O162 1.266 . S
Co170 O173 1.970 . S
Co170 N187 1.989 . S
Co170 O195 1.967 . S
Co170 O202 1.920 . S
Co171 O174 1.966 . S
Co171 N180 2.022 . S
Co171 N188 1.993 . S
Co171 O196 1.941 . S
C172 O173 1.258 . S
C172 O174 1.263 . S
O173 Co170 1.970 . S
O173 C172 1.258 . S
O174 Co171 1.966 . S
O174 C172 1.263 . S
C175 O176 1.235 . S
C175 O202 1.289 . S
O176 C175 1.235 . S
C177 C179 1.400 . S
C177 N180 1.351 . S
C177 C182 1.501 . S
C178 C179 1.387 . S
C178 N181 1.341 . S
C179 C177 1.400 . S
C179 C178 1.387 . S
N180 Co171 2.022 . S
N180 C177 1.351 . S
N180 N181 1.365 . S
N181 C178 1.341 . S
N181 N180 1.365 . S
N181 H201 0.862 . S
C182 C177 1.501 . S
C182 H183 0.961 . S
C182 H184 0.961 . S
C182 H185 0.960 . S
H183 C182 0.961 . S
H184 C182 0.961 . S
H185 C182 0.960 . S
C186 N187 1.342 . S
C186 C190 1.401 . S
C186 C191 1.499 . S
N187 Co170 1.989 . S
N187 C186 1.342 . S
N187 N188 1.388 . S
N188 Co171 1.993 . S
N188 N187 1.388 . S
N188 C189 1.346 . S
C189 N188 1.346 . S
C189 C190 1.396 . S
C189 C199 1.510 . S
C190 C186 1.401 . S
C190 C189 1.396 . S
C191 C186 1.499 . S
C191 H192 0.959 . S
C191 H193 0.960 . S
C191 H194 0.961 . S
H192 C191 0.959 . S
H193 C191 0.960 . S
H194 C191 0.961 . S
O195 Co170 1.967 . S
O195 C203 1.258 . S
O196 Co171 1.941 . S
O196 C203 1.266 . S
H197 C199 0.959 . S
H198 C199 0.961 . S
C199 C189 1.510 . S
C199 H197 0.959 . S
C199 H198 0.961 . S
C199 H200 0.960 . S
H200 C199 0.960 . S
H201 N181 0.862 . S
O202 Co170 1.920 . S
O202 C175 1.289 . S
C203 O195 1.258 . S
C203 O196 1.266 . S
Co204 O207 1.970 . S
Co204 N221 1.989 . S
Co204 O229 1.967 . S
Co204 O236 1.920 . S
Co205 O208 1.966 . S
Co205 N214 2.022 . S
Co205 N222 1.993 . S
Co205 O230 1.941 . S
C206 O207 1.258 . S
C206 O208 1.263 . S
O207 Co204 1.970 . S
O207 C206 1.258 . S
O208 Co205 1.966 . S
O208 C206 1.263 . S
C209 O210 1.235 . S
C209 O236 1.289 . S
O210 C209 1.235 . S
C211 C213 1.400 . S
C211 N214 1.351 . S
C211 C216 1.501 . S
C212 C213 1.387 . S
C212 N215 1.341 . S
C213 C211 1.400 . S
C213 C212 1.387 . S
N214 Co205 2.022 . S
N214 C211 1.351 . S
N214 N215 1.365 . S
N215 C212 1.341 . S
N215 N214 1.365 . S
N215 H235 0.862 . S
C216 C211 1.501 . S
C216 H217 0.961 . S
C216 H218 0.961 . S
C216 H219 0.960 . S
H217 C216 0.961 . S
H218 C216 0.961 . S
H219 C216 0.960 . S
C220 N221 1.342 . S
C220 C224 1.401 . S
C220 C225 1.499 . S
N221 Co204 1.989 . S
N221 C220 1.342 . S
N221 N222 1.388 . S
N222 Co205 1.993 . S
N222 N221 1.388 . S
N222 C223 1.346 . S
C223 N222 1.346 . S
C223 C224 1.396 . S
C223 C233 1.510 . S
C224 C220 1.401 . S
C224 C223 1.396 . S
C225 C220 1.499 . S
C225 H226 0.959 . S
C225 H227 0.960 . S
C225 H228 0.961 . S
H226 C225 0.959 . S
H227 C225 0.960 . S
H228 C225 0.961 . S
O229 Co204 1.967 . S
O229 C237 1.258 . S
O230 Co205 1.941 . S
O230 C237 1.266 . S
H231 C233 0.959 . S
H232 C233 0.961 . S
C233 C223 1.510 . S
C233 H231 0.959 . S
C233 H232 0.961 . S
C233 H234 0.960 . S
H234 C233 0.960 . S
H235 N215 0.862 . S
O236 Co204 1.920 . S
O236 C209 1.289 . S
C237 O229 1.258 . S
C237 O230 1.266 . S
Co238 O241 1.970 . S
Co238 N255 1.989 . S
Co238 O263 1.967 . S
Co238 O270 1.920 . S
Co239 O242 1.966 . S
Co239 N248 2.022 . S
Co239 N256 1.993 . S
Co239 O264 1.941 . S
C240 O241 1.258 . S
C240 O242 1.263 . S
O241 Co238 1.970 . S
O241 C240 1.258 . S
O242 Co239 1.966 . S
O242 C240 1.263 . S
C243 O244 1.235 . S
C243 O270 1.289 . S
O244 C243 1.235 . S
C245 C247 1.400 . S
C245 N248 1.351 . S
C245 C250 1.501 . S
C246 C247 1.387 . S
C246 N249 1.341 . S
C247 C245 1.400 . S
C247 C246 1.387 . S
N248 Co239 2.022 . S
N248 C245 1.351 . S
N248 N249 1.365 . S
N249 C246 1.341 . S
N249 N248 1.365 . S
N249 H269 0.862 . S
C250 C245 1.501 . S
C250 H251 0.961 . S
C250 H252 0.961 . S
C250 H253 0.960 . S
H251 C250 0.961 . S
H252 C250 0.961 . S
H253 C250 0.960 . S
C254 N255 1.342 . S
C254 C258 1.401 . S
C254 C259 1.499 . S
N255 Co238 1.989 . S
N255 C254 1.342 . S
N255 N256 1.388 . S
N256 Co239 1.993 . S
N256 N255 1.388 . S
N256 C257 1.346 . S
C257 N256 1.346 . S
C257 C258 1.396 . S
C257 C267 1.510 . S
C258 C254 1.401 . S
C258 C257 1.396 . S
C259 C254 1.499 . S
C259 H260 0.959 . S
C259 H261 0.960 . S
C259 H262 0.961 . S
H260 C259 0.959 . S
H261 C259 0.960 . S
H262 C259 0.961 . S
O263 Co238 1.967 . S
O263 C271 1.258 . S
O264 Co239 1.941 . S
O264 C271 1.266 . S
H265 C267 0.959 . S
H266 C267 0.961 . S
C267 C257 1.510 . S
C267 H265 0.959 . S
C267 H266 0.961 . S
C267 H268 0.960 . S
H268 C267 0.960 . S
H269 N249 0.862 . S
O270 Co238 1.920 . S
O270 C243 1.289 . S
C271 O263 1.258 . S
C271 O264 1.266 . S
H272 C284 0.930 . S
H273 C286 0.930 . S
H274 C287 0.922 1_545 S
H275 C291 0.959 . S
H276 C291 0.959 . S
H277 C291 0.961 . S
H278 C292 0.960 1_565 S
H279 C292 0.961 . S
H280 C292 0.959 . S
H281 C295 0.929 . S
H282 C296 0.931 . S
H283 C298 0.930 . S
C284 H272 0.930 . S
C284 C285 1.399 . S
C284 C289 1.399 . S
C285 C284 1.399 . S
C285 C286 1.376 . S
C286 H273 0.930 . S
C286 C285 1.376 . S
C286 C287 1.398 . S
C287 H274 0.922 1_565 S
C287 C286 1.398 . S
C287 C288 1.389 1_565 S
C288 C287 1.389 1_545 S
C288 C289 1.383 1_545 S
C288 C294 1.475 . S
C289 C284 1.399 . S
C289 C288 1.383 1_565 S
C289 C290 1.516 . S
C290 C289 1.516 . S
C290 C291 1.502 . S
C290 C292 1.561 1_565 S
C290 C293 1.526 1_565 S
C291 H275 0.959 . S
C291 H276 0.959 . S
C291 H277 0.961 . S
C291 C290 1.502 . S
C292 H278 0.960 1_545 S
C292 H279 0.961 . S
C292 H280 0.959 . S
C292 C290 1.561 1_545 S
C293 C290 1.526 1_545 S
C293 C294 1.396 . S
C293 C298 1.390 . S
C294 C288 1.475 . S
C294 C293 1.396 . S
C294 C295 1.399 . S
C295 H281 0.929 . S
C295 C294 1.399 . S
C295 C296 1.385 . S
C296 H282 0.931 . S
C296 C295 1.385 . S
C296 C297 1.389 . S
C297 C296 1.389 . S
C297 C298 1.387 . S
C298 H283 0.930 . S
C298 C293 1.390 . S
C298 C297 1.387 . S
H299 C311 0.930 . S
H300 C313 0.930 . S
H301 C314 0.930 1_455 S
H302 C318 0.959 . S
H303 C318 0.959 . S
H304 C318 0.961 . S
H305 C319 0.960 . S
H306 C319 0.961 . S
H307 C319 0.959 . S
H308 C322 0.929 . S
H309 C323 0.931 . S
H310 C325 0.930 . S
C311 H299 0.930 . S
C311 C312 1.399 . S
C311 C316 1.399 . S
C312 C311 1.399 . S
C312 C313 1.376 . S
C313 H300 0.930 . S
C313 C312 1.376 . S
C313 C314 1.388 . S
C314 H301 0.930 1_655 S
C314 C313 1.388 . S
C314 C315 1.391 . S
C315 C314 1.391 . S
C315 C316 1.401 . S
C315 C321 1.458 1_655 S
C316 C311 1.399 . S
C316 C315 1.401 . S
C316 C317 1.516 . S
C317 C316 1.516 . S
C317 C318 1.502 . S
C317 C319 1.561 1_655 S
C317 C320 1.526 1_655 S
C318 H302 0.959 . S
C318 H303 0.959 . S
C318 H304 0.961 . S
C318 C317 1.502 . S
C319 H305 0.960 . S
C319 H306 0.961 . S
C319 H307 0.959 . S
C319 C317 1.561 1_455 S
C320 C317 1.526 1_455 S
C320 C321 1.396 . S
C320 C325 1.390 . S
C321 C315 1.458 1_455 S
C321 C320 1.396 . S
C321 C322 1.399 . S
C322 H308 0.929 . S
C322 C321 1.399 . S
C322 C323 1.385 . S
C323 H309 0.931 . S
C323 C322 1.385 . S
C323 C324 1.389 . S
C324 C323 1.389 . S
C324 C325 1.387 . S
C325 H310 0.930 . S
C325 C320 1.390 . S
C325 C324 1.387 . S
H326 C338 0.930 . S
H327 C340 0.930 . S
H328 C341 0.930 . S
H329 C345 0.959 . S
H330 C345 0.959 . S
H331 C345 0.961 . S
H332 C346 0.960 . S
H333 C346 0.961 1_455 S
H334 C346 0.959 . S
H335 C349 0.929 . S
H336 C350 0.931 . S
H337 C352 0.930 . S
C338 H326 0.930 . S
C338 C339 1.399 . S
C338 C343 1.399 . S
C339 C338 1.399 . S
C339 C340 1.376 . S
C340 H327 0.930 . S
C340 C339 1.376 . S
C340 C341 1.388 . S
C341 H328 0.930 . S
C341 C340 1.388 . S
C341 C342 1.390 . S
C342 C341 1.390 . S
C342 C343 1.394 . S
C342 C348 1.465 1_655 S
C343 C338 1.399 . S
C343 C342 1.394 . S
C343 C344 1.516 1_655 S
C344 C343 1.516 1_455 S
C344 C345 1.502 . S
C344 C346 1.561 1_455 S
C344 C347 1.526 . S
C345 H329 0.959 . S
C345 H330 0.959 . S
C345 H331 0.961 . S
C345 C344 1.502 . S
C346 H332 0.960 . S
C346 H333 0.961 1_655 S
C346 H334 0.959 . S
C346 C344 1.561 1_655 S
C347 C344 1.526 . S
C347 C348 1.396 . S
C347 C352 1.390 . S
C348 C342 1.465 1_455 S
C348 C347 1.396 . S
C348 C349 1.399 . S
C349 H335 0.929 . S
C349 C348 1.399 . S
C349 C350 1.385 . S
C350 H336 0.931 . S
C350 C349 1.385 . S
C350 C351 1.389 . S
C351 C350 1.389 . S
C351 C352 1.387 . S
C352 H337 0.930 . S
C352 C347 1.390 . S
C352 C351 1.387 . S
H353 C365 0.930 . S
H354 C367 0.930 . S
H355 C368 0.930 . S
H356 C372 0.959 . S
H357 C372 0.959 . S
H358 C372 0.961 . S
H359 C373 0.960 . S
H360 C373 0.961 1_565 S
H361 C373 0.959 . S
H362 C376 0.929 . S
H363 C377 0.931 . S
H364 C379 0.930 . S
C365 H353 0.930 . S
C365 C366 1.399 . S
C365 C370 1.399 . S
C366 C365 1.399 . S
C366 C367 1.376 . S
C367 H354 0.930 . S
C367 C366 1.376 . S
C367 C368 1.388 . S
C368 H355 0.930 . S
C368 C367 1.388 . S
C368 C369 1.390 . S
C369 C368 1.390 . S
C369 C370 1.394 . S
C369 C375 1.465 1_545 S
C370 C365 1.399 . S
C370 C369 1.394 . S
C370 C371 1.516 1_545 S
C371 C370 1.516 1_565 S
C371 C372 1.502 . S
C371 C373 1.561 1_565 S
C371 C374 1.526 . S
C372 H356 0.959 . S
C372 H357 0.959 . S
C372 H358 0.961 . S
C372 C371 1.502 . S
C373 H359 0.960 . S
C373 H360 0.961 1_545 S
C373 H361 0.959 . S
C373 C371 1.561 1_545 S
C374 C371 1.526 . S
C374 C375 1.396 . S
C374 C379 1.390 . S
C375 C369 1.465 1_565 S
C375 C374 1.396 . S
C375 C376 1.399 . S
C376 H362 0.929 . S
C376 C375 1.399 . S
C376 C377 1.385 . S
C377 H363 0.931 . S
C377 C376 1.385 . S
C377 C378 1.389 . S
C378 C377 1.389 . S
C378 C379 1.387 . S
C379 H364 0.930 . S
C379 C374 1.390 . S
C379 C378 1.387 . S
H380 C392 0.930 . S
H381 C394 0.930 . S
H382 C395 0.930 . S
H383 C399 0.959 . S
H384 C399 0.959 . S
H385 C399 0.961 1_455 S
H386 C400 0.960 . S
H387 C400 0.961 1_655 S
H388 C400 0.959 . S
H389 C403 0.929 . S
H390 C404 0.931 . S
H391 C406 0.930 . S
C392 H380 0.930 . S
C392 C393 1.399 . S
C392 C397 1.399 . S
C393 C392 1.399 . S
C393 C394 1.376 . S
C394 H381 0.930 . S
C394 C393 1.376 . S
C394 C395 1.388 . S
C395 H382 0.930 . S
C395 C394 1.388 . S
C395 C396 1.390 . S
C396 C395 1.390 . S
C396 C397 1.394 . S
C396 C402 1.465 1_445 S
C397 C392 1.399 . S
C397 C396 1.394 . S
C397 C398 1.513 1_455 S
C398 C397 1.513 1_655 S
C398 C399 1.522 . S
C398 C400 1.541 1_645 S
C398 C401 1.527 1_545 S
C399 H383 0.959 . S
C399 H384 0.959 . S
C399 H385 0.961 1_655 S
C399 C398 1.522 . S
C400 H386 0.960 . S
C400 H387 0.961 1_455 S
C400 H388 0.959 . S
C400 C398 1.541 1_465 S
C401 C398 1.527 1_565 S
C401 C402 1.396 . S
C401 C406 1.390 . S
C402 C396 1.465 1_665 S
C402 C401 1.396 . S
C402 C403 1.399 . S
C403 H389 0.929 . S
C403 C402 1.399 . S
C403 C404 1.385 . S
C404 H390 0.931 . S
C404 C403 1.385 . S
C404 C405 1.389 . S
C405 C404 1.389 . S
C405 C406 1.387 . S
C406 H391 0.930 . S
C406 C401 1.390 . S
C406 C405 1.387 . S
H407 C419 0.930 . S
H408 C421 0.930 . S
H409 C422 0.930 . S
H410 C426 0.959 . S
H411 C426 0.959 . S
H412 C426 0.961 . S
H413 C427 0.960 1_655 S
H414 C427 0.961 1_565 S
H415 C427 0.959 . S
H416 C430 0.929 . S
H417 C431 0.931 . S
H418 C433 0.930 . S
C419 H407 0.930 . S
C419 C420 1.399 . S
C419 C424 1.399 . S
C420 C419 1.399 . S
C420 C421 1.376 . S
C421 H408 0.930 . S
C421 C420 1.376 . S
C421 C422 1.388 1_655 S
C422 H409 0.930 . S
C422 C421 1.388 1_455 S
C422 C423 1.390 . S
C423 C422 1.390 . S
C423 C424 1.394 1_455 S
C423 C429 1.465 1_545 S
C424 C419 1.399 . S
C424 C423 1.394 1_655 S
C424 C425 1.516 1_545 S
C425 C424 1.516 1_565 S
C425 C426 1.502 . S
C425 C427 1.561 1_665 S
C425 C428 1.526 1_655 S
C426 H410 0.959 . S
C426 H411 0.959 . S
C426 H412 0.961 . S
C426 C425 1.502 . S
C427 H413 0.960 1_455 S
C427 H414 0.961 1_545 S
C427 H415 0.959 . S
C427 C425 1.561 1_445 S
C428 C425 1.526 1_455 S
C428 C429 1.396 . S
C428 C433 1.390 . S
C429 C423 1.465 1_565 S
C429 C428 1.396 . S
C429 C430 1.399 . S
C430 H416 0.929 . S
C430 C429 1.399 . S
C430 C431 1.385 . S
C431 H417 0.931 . S
C431 C430 1.385 . S
C431 C432 1.389 . S
C432 C431 1.389 . S
C432 C433 1.387 . S
C433 H418 0.930 . S
C433 C428 1.390 . S
C433 C432 1.387 . S
H434 C446 0.930 . S
H435 C448 0.930 . S
H436 C449 0.930 . S
H437 C453 0.959 . S
H438 C453 0.959 . S
H439 C453 0.961 . S
H440 C454 0.960 . S
H441 C454 0.961 . S
H442 C454 0.959 . S
H443 C457 0.929 . S
H444 C458 0.931 . S
H445 C460 0.930 . S
C446 H434 0.930 . S
C446 C447 1.399 . S
C446 C451 1.399 . S
C447 C446 1.399 . S
C447 C448 1.376 . S
C448 H435 0.930 . S
C448 C447 1.376 . S
C448 C449 1.388 . S
C449 H436 0.930 . S
C449 C448 1.388 . S
C449 C450 1.390 . S
C450 C449 1.390 . S
C450 C451 1.394 . S
C450 C456 1.465 . S
C451 C446 1.399 . S
C451 C450 1.394 . S
C451 C452 1.516 . S
C452 C451 1.516 . S
C452 C453 1.502 . S
C452 C454 1.561 . S
C452 C455 1.526 . S
C453 H437 0.959 . S
C453 H438 0.959 . S
C453 H439 0.961 . S
C453 C452 1.502 . S
C454 H440 0.960 . S
C454 H441 0.961 . S
C454 H442 0.959 . S
C454 C452 1.561 . S
C455 C452 1.526 . S
C455 C456 1.396 . S
C455 C460 1.390 . S
C456 C450 1.465 . S
C456 C455 1.396 . S
C456 C457 1.399 . S
C457 H443 0.929 . S
C457 C456 1.399 . S
C457 C458 1.385 . S
C458 H444 0.931 . S
C458 C457 1.385 . S
C458 C459 1.389 . S
C459 C458 1.389 . S
C459 C460 1.387 . S
C460 H445 0.930 . S
C460 C455 1.390 . S
C460 C459 1.387 . S
H461 C473 0.930 . S
H462 C475 0.930 . S
H463 C476 0.930 . S
H464 C480 0.959 . S
H465 C480 0.959 . S
H466 C480 0.961 . S
H467 C481 0.960 . S
H468 C481 0.961 . S
H469 C481 0.959 . S
H470 C484 0.929 . S
H471 C485 0.931 . S
H472 C487 0.930 . S
C473 H461 0.930 . S
C473 C474 1.399 . S
C473 C478 1.399 . S
C474 C473 1.399 . S
C474 C475 1.376 . S
C475 H462 0.930 . S
C475 C474 1.376 . S
C475 C476 1.388 . S
C476 H463 0.930 . S
C476 C475 1.388 . S
C476 C477 1.390 . S
C477 C476 1.390 . S
C477 C478 1.394 . S
C477 C483 1.465 . S
C478 C473 1.399 . S
C478 C477 1.394 . S
C478 C479 1.516 . S
C479 C478 1.516 . S
C479 C480 1.502 . S
C479 C481 1.561 . S
C479 C482 1.526 . S
C480 H464 0.959 . S
C480 H465 0.959 . S
C480 H466 0.961 . S
C480 C479 1.502 . S
C481 H467 0.960 . S
C481 H468 0.961 . S
C481 H469 0.959 . S
C481 C479 1.561 . S
C482 C479 1.526 . S
C482 C483 1.396 . S
C482 C487 1.390 . S
C483 C477 1.465 . S
C483 C482 1.396 . S
C483 C484 1.399 . S
C484 H470 0.929 . S
C484 C483 1.399 . S
C484 C485 1.385 . S
C485 H471 0.931 . S
C485 C484 1.385 . S
C485 C486 1.389 . S
C486 C485 1.389 . S
C486 C487 1.387 . S
C487 H472 0.930 . S
C487 C482 1.390 . S
C487 C486 1.387 . S
H488 C500 0.930 . S
H489 C502 0.930 . S
H490 C503 0.930 . S
H491 C507 0.959 . S
H492 C507 0.959 . S
H493 C507 0.961 . S
H494 C508 0.960 . S
H495 C508 0.961 . S
H496 C508 0.959 . S
H497 C511 0.929 . S
H498 C512 0.931 . S
H499 C514 0.930 . S
C500 H488 0.930 . S
C500 C501 1.399 . S
C500 C505 1.399 . S
C501 C500 1.399 . S
C501 C502 1.376 . S
C502 H489 0.930 . S
C502 C501 1.376 . S
C502 C503 1.388 . S
C503 H490 0.930 . S
C503 C502 1.388 . S
C503 C504 1.390 . S
C504 C503 1.390 . S
C504 C505 1.394 . S
C504 C510 1.465 . S
C505 C500 1.399 . S
C505 C504 1.394 . S
C505 C506 1.516 . S
C506 C505 1.516 . S
C506 C507 1.502 . S
C506 C508 1.561 . S
C506 C509 1.526 . S
C507 H491 0.959 . S
C507 H492 0.959 . S
C507 H493 0.961 . S
C507 C506 1.502 . S
C508 H494 0.960 . S
C508 H495 0.961 . S
C508 H496 0.959 . S
C508 C506 1.561 . S
C509 C506 1.526 . S
C509 C510 1.396 . S
C509 C514 1.390 . S
C510 C504 1.465 . S
C510 C509 1.396 . S
C510 C511 1.399 . S
C511 H497 0.929 . S
C511 C510 1.399 . S
C511 C512 1.385 . S
C512 H498 0.931 . S
C512 C511 1.385 . S
C512 C513 1.389 . S
C513 C512 1.389 . S
C513 C514 1.387 . S
C514 H499 0.930 . S
C514 C509 1.390 . S
C514 C513 1.387 . S
H515 C527 0.930 . S
H516 C529 0.930 . S
H517 C530 0.930 . S
H518 C534 0.959 . S
H519 C534 0.959 . S
H520 C534 0.961 . S
H521 C535 0.960 . S
H522 C535 0.961 . S
H523 C535 0.959 . S
H524 C538 0.929 . S
H525 C539 0.931 . S
H526 C541 0.930 . S
C527 H515 0.930 . S
C527 C528 1.399 . S
C527 C532 1.399 . S
C528 C527 1.399 . S
C528 C529 1.376 . S
C529 H516 0.930 . S
C529 C528 1.376 . S
C529 C530 1.388 . S
C530 H517 0.930 . S
C530 C529 1.388 . S
C530 C531 1.390 . S
C531 C530 1.390 . S
C531 C532 1.394 . S
C531 C537 1.465 . S
C532 C527 1.399 . S
C532 C531 1.394 . S
C532 C533 1.516 . S
C533 C532 1.516 . S
C533 C534 1.502 . S
C533 C535 1.561 . S
C533 C536 1.526 . S
C534 H518 0.959 . S
C534 H519 0.959 . S
C534 H520 0.961 . S
C534 C533 1.502 . S
C535 H521 0.960 . S
C535 H522 0.961 . S
C535 H523 0.959 . S
C535 C533 1.561 . S
C536 C533 1.526 . S
C536 C537 1.396 . S
C536 C541 1.390 . S
C537 C531 1.465 . S
C537 C536 1.396 . S
C537 C538 1.399 . S
C538 H524 0.929 . S
C538 C537 1.399 . S
C538 C539 1.385 . S
C539 H525 0.931 . S
C539 C538 1.385 . S
C539 C540 1.389 . S
C540 C539 1.389 . S
C540 C541 1.387 . S
C541 H526 0.930 . S
C541 C536 1.390 . S
C541 C540 1.387 . S
H542 C554 0.930 . S
H543 C556 0.930 . S
H544 C557 0.930 . S
H545 C561 0.959 . S
H546 C561 0.959 . S
H547 C561 0.961 . S
H548 C562 0.960 . S
H549 C562 0.961 . S
H550 C562 0.959 . S
H551 C565 0.929 . S
H552 C566 0.931 . S
H553 C568 0.930 . S
C554 H542 0.930 . S
C554 C555 1.399 . S
C554 C559 1.399 . S
C555 C554 1.399 . S
C555 C556 1.376 . S
C556 H543 0.930 . S
C556 C555 1.376 . S
C556 C557 1.388 . S
C557 H544 0.930 . S
C557 C556 1.388 . S
C557 C558 1.390 . S
C558 C557 1.390 . S
C558 C559 1.394 . S
C558 C564 1.465 . S
C559 C554 1.399 . S
C559 C558 1.394 . S
C559 C560 1.516 . S
C560 C559 1.516 . S
C560 C561 1.502 . S
C560 C562 1.561 . S
C560 C563 1.526 . S
C561 H545 0.959 . S
C561 H546 0.959 . S
C561 H547 0.961 . S
C561 C560 1.502 . S
C562 H548 0.960 . S
C562 H549 0.961 . S
C562 H550 0.959 . S
C562 C560 1.561 . S
C563 C560 1.526 . S
C563 C564 1.396 . S
C563 C568 1.390 . S
C564 C558 1.465 . S
C564 C563 1.396 . S
C564 C565 1.399 . S
C565 H551 0.929 . S
C565 C564 1.399 . S
C565 C566 1.385 . S
C566 H552 0.931 . S
C566 C565 1.385 . S
C566 C567 1.389 . S
C567 C566 1.389 . S
C567 C568 1.387 . S
C568 H553 0.930 . S
C568 C563 1.390 . S
C568 C567 1.387 . S
H569 C581 0.930 . S
H570 C583 0.930 . S
H571 C584 0.930 . S
H572 C588 0.959 . S
H573 C588 0.959 . S
H574 C588 0.961 . S
H575 C589 0.960 . S
H576 C589 0.961 . S
H577 C589 0.959 . S
H578 C592 0.929 . S
H579 C593 0.931 . S
H580 C595 0.930 . S
C581 H569 0.930 . S
C581 C582 1.399 . S
C581 C586 1.399 . S
C582 C581 1.399 . S
C582 C583 1.376 . S
C583 H570 0.930 . S
C583 C582 1.376 . S
C583 C584 1.388 . S
C584 H571 0.930 . S
C584 C583 1.388 . S
C584 C585 1.390 . S
C585 C584 1.390 . S
C585 C586 1.394 . S
C585 C591 1.465 . S
C586 C581 1.399 . S
C586 C585 1.394 . S
C586 C587 1.516 . S
C587 C586 1.516 . S
C587 C588 1.502 . S
C587 C589 1.561 . S
C587 C590 1.526 . S
C588 H572 0.959 . S
C588 H573 0.959 . S
C588 H574 0.961 . S
C588 C587 1.502 . S
C589 H575 0.960 . S
C589 H576 0.961 . S
C589 H577 0.959 . S
C589 C587 1.561 . S
C590 C587 1.526 . S
C590 C591 1.396 . S
C590 C595 1.390 . S
C591 C585 1.465 . S
C591 C590 1.396 . S
C591 C592 1.399 . S
C592 H578 0.929 . S
C592 C591 1.399 . S
C592 C593 1.385 . S
C593 H579 0.931 . S
C593 C592 1.385 . S
C593 C594 1.389 . S
C594 C593 1.389 . S
C594 C595 1.387 . S
C595 H580 0.930 . S
C595 C590 1.390 . S
C595 C594 1.387 . S
H596 C608 0.930 . S
H597 C610 0.930 . S
H598 C611 0.930 . S
H599 C615 0.959 . S
H600 C615 0.959 . S
H601 C615 0.961 . S
H602 C616 0.960 . S
H603 C616 0.961 . S
H604 C616 0.959 . S
H605 C619 0.929 . S
H606 C620 0.931 1_545 S
H607 C622 0.930 . S
C608 H596 0.930 . S
C608 C609 1.399 . S
C608 C613 1.399 . S
C609 C608 1.399 . S
C609 C610 1.376 . S
C610 H597 0.930 . S
C610 C609 1.376 . S
C610 C611 1.388 . S
C611 H598 0.930 . S
C611 C610 1.388 . S
C611 C612 1.390 . S
C612 C611 1.390 . S
C612 C613 1.394 . S
C612 C618 1.465 . S
C613 C608 1.399 . S
C613 C612 1.394 . S
C613 C614 1.516 . S
C614 C613 1.516 . S
C614 C615 1.502 . S
C614 C616 1.561 . S
C614 C617 1.526 . S
C615 H599 0.959 . S
C615 H600 0.959 . S
C615 H601 0.961 . S
C615 C614 1.502 . S
C616 H602 0.960 . S
C616 H603 0.961 . S
C616 H604 0.959 . S
C616 C614 1.561 . S
C617 C614 1.526 . S
C617 C618 1.396 . S
C617 C622 1.390 . S
C618 C612 1.465 . S
C618 C617 1.396 . S
C618 C619 1.399 . S
C619 H605 0.929 . S
C619 C618 1.399 . S
C619 C620 1.385 . S
C620 H606 0.931 1_565 S
C620 C619 1.385 . S
C620 C621 1.389 . S
C621 C620 1.389 . S
C621 C622 1.387 . S
C622 H607 0.930 . S
C622 C617 1.390 . S
C622 C621 1.387 . S
H623 C635 0.930 . S
H624 C637 0.930 . S
H625 C638 0.930 . S
H626 C642 0.959 . S
H627 C642 0.959 . S
H628 C642 0.961 . S
H629 C643 0.960 . S
H630 C643 0.961 . S
H631 C643 0.959 . S
H632 C646 0.929 . S
H633 C647 0.931 . S
H634 C649 0.930 . S
C635 H623 0.930 . S
C635 C636 1.399 . S
C635 C640 1.399 . S
C636 C635 1.399 . S
C636 C637 1.376 . S
C637 H624 0.930 . S
C637 C636 1.376 . S
C637 C638 1.388 . S
C638 H625 0.930 . S
C638 C637 1.388 . S
C638 C639 1.390 . S
C639 C638 1.390 . S
C639 C640 1.394 . S
C639 C645 1.465 . S
C640 C635 1.399 . S
C640 C639 1.394 . S
C640 C641 1.516 . S
C641 C640 1.516 . S
C641 C642 1.502 . S
C641 C643 1.561 . S
C641 C644 1.526 . S
C642 H626 0.959 . S
C642 H627 0.959 . S
C642 H628 0.961 . S
C642 C641 1.502 . S
C643 H629 0.960 . S
C643 H630 0.961 . S
C643 H631 0.959 . S
C643 C641 1.561 . S
C644 C641 1.526 . S
C644 C645 1.396 . S
C644 C649 1.390 . S
C645 C639 1.465 . S
C645 C644 1.396 . S
C645 C646 1.399 . S
C646 H632 0.929 . S
C646 C645 1.399 . S
C646 C647 1.385 . S
C647 H633 0.931 . S
C647 C646 1.385 . S
C647 C648 1.389 . S
C648 C647 1.389 . S
C648 C649 1.387 . S
C649 H634 0.930 . S
C649 C644 1.390 . S
C649 C648 1.387 . S
H650 C662 0.930 . S
H651 C664 0.930 . S
H652 C665 0.930 . S
H653 C669 0.959 . S
H654 C669 0.959 . S
H655 C669 0.961 . S
H656 C670 0.960 . S
H657 C670 0.961 . S
H658 C670 0.959 . S
H659 C673 0.929 . S
H660 C674 0.931 . S
H661 C676 0.930 . S
C662 H650 0.930 . S
C662 C663 1.399 . S
C662 C667 1.399 . S
C663 C662 1.399 . S
C663 C664 1.376 . S
C664 H651 0.930 . S
C664 C663 1.376 . S
C664 C665 1.388 . S
C665 H652 0.930 . S
C665 C664 1.388 . S
C665 C666 1.390 . S
C666 C665 1.390 . S
C666 C667 1.394 . S
C666 C672 1.465 . S
C667 C662 1.399 . S
C667 C666 1.394 . S
C667 C668 1.516 . S
C668 C667 1.516 . S
C668 C669 1.502 . S
C668 C670 1.561 . S
C668 C671 1.526 . S
C669 H653 0.959 . S
C669 H654 0.959 . S
C669 H655 0.961 . S
C669 C668 1.502 . S
C670 H656 0.960 . S
C670 H657 0.961 . S
C670 H658 0.959 . S
C670 C668 1.561 . S
C671 C668 1.526 . S
C671 C672 1.396 . S
C671 C676 1.390 . S
C672 C666 1.465 . S
C672 C671 1.396 . S
C672 C673 1.399 . S
C673 H659 0.929 . S
C673 C672 1.399 . S
C673 C674 1.385 . S
C674 H660 0.931 . S
C674 C673 1.385 . S
C674 C675 1.389 . S
C675 C674 1.389 . S
C675 C676 1.387 . S
C676 H661 0.930 . S
C676 C671 1.390 . S
C676 C675 1.387 . S
H677 C689 0.930 . S
H678 C691 0.930 . S
H679 C692 0.930 . S
H680 C696 0.959 . S
H681 C696 0.959 . S
H682 C696 0.961 . S
H683 C697 0.960 . S
H684 C697 0.961 . S
H685 C697 0.959 . S
H686 C700 0.929 . S
H687 C701 0.908 1_655 S
H688 C703 0.930 . S
C689 H677 0.930 . S
C689 C690 1.399 . S
C689 C694 1.399 . S
C690 C689 1.399 . S
C690 C691 1.376 . S
C691 H678 0.930 . S
C691 C690 1.376 . S
C691 C692 1.388 . S
C692 H679 0.930 . S
C692 C691 1.388 . S
C692 C693 1.390 . S
C693 C692 1.390 . S
C693 C694 1.394 . S
C693 C699 1.465 . S
C694 C689 1.399 . S
C694 C693 1.394 . S
C694 C695 1.516 . S
C695 C694 1.516 . S
C695 C696 1.502 . S
C695 C697 1.561 . S
C695 C698 1.526 . S
C696 H680 0.959 . S
C696 H681 0.959 . S
C696 H682 0.961 . S
C696 C695 1.502 . S
C697 H683 0.960 . S
C697 H684 0.961 . S
C697 H685 0.959 . S
C697 C695 1.561 . S
C698 C695 1.526 . S
C698 C699 1.396 . S
C698 C703 1.390 . S
C699 C693 1.465 . S
C699 C698 1.396 . S
C699 C700 1.399 . S
C700 H686 0.929 . S
C700 C699 1.399 . S
C700 C701 1.398 . S
C701 H687 0.908 1_455 S
C701 C700 1.398 . S
C701 C702 1.400 . S
C702 C701 1.400 . S
C702 C703 1.387 . S
C703 H688 0.930 . S
C703 C698 1.390 . S
C703 C702 1.387 . S
H704 C716 0.930 . S
H705 C718 0.930 . S
H706 C719 0.930 . S
H707 C723 0.959 . S
H708 C723 0.959 . S
H709 C723 0.961 . S
H710 C724 0.960 . S
H711 C724 0.961 . S
H712 C724 0.983 . S
H713 C727 0.929 . S
H714 C728 0.931 . S
H715 C730 0.930 . S
C716 H704 0.930 . S
C716 C717 1.399 . S
C716 C721 1.399 . S
C717 C716 1.399 . S
C717 C718 1.376 . S
C718 H705 0.930 . S
C718 C717 1.376 . S
C718 C719 1.388 . S
C719 H706 0.930 . S
C719 C718 1.388 . S
C719 C720 1.390 . S
C720 C719 1.390 . S
C720 C721 1.394 . S
C720 C726 1.465 . S
C721 C716 1.399 . S
C721 C720 1.394 . S
C721 C722 1.516 1_554 S
C722 C721 1.516 1_556 S
C722 C723 1.502 . S
C722 C724 1.561 . S
C722 C725 1.526 . S
C723 H707 0.959 . S
C723 H708 0.959 . S
C723 H709 0.961 . S
C723 C722 1.502 . S
C724 H710 0.960 . S
C724 H711 0.961 . S
C724 H712 0.983 . S
C724 C722 1.561 . S
C725 C722 1.526 . S
C725 C726 1.396 1_556 S
C725 C730 1.390 . S
C726 C720 1.465 . S
C726 C725 1.396 1_554 S
C726 C727 1.399 . S
C727 H713 0.929 . S
C727 C726 1.399 . S
C727 C728 1.385 1_554 S
C728 H714 0.931 . S
C728 C727 1.385 1_556 S
C728 C729 1.389 . S
C729 C728 1.389 . S
C729 C730 1.387 . S
C730 H715 0.930 . S
C730 C725 1.390 . S
C730 C729 1.387 . S
H731 C743 0.930 . S
H732 C745 0.930 . S
H733 C746 0.930 . S
H734 C750 0.959 . S
H735 C750 0.959 . S
H736 C750 0.961 1_556 S
H737 C751 0.960 . S
H738 C751 0.961 . S
H739 C751 0.959 . S
H740 C754 0.933 . S
H741 C755 0.931 . S
H742 C757 0.930 . S
C743 H731 0.930 . S
C743 C744 1.399 . S
C743 C748 1.399 . S
C744 C743 1.399 . S
C744 C745 1.376 . S
C745 H732 0.930 . S
C745 C744 1.376 . S
C745 C746 1.388 . S
C746 H733 0.930 . S
C746 C745 1.388 . S
C746 C747 1.390 . S
C747 C746 1.390 . S
C747 C748 1.394 . S
C747 C753 1.465 . S
C748 C743 1.399 . S
C748 C747 1.394 . S
C748 C749 1.516 . S
C749 C748 1.516 . S
C749 C750 1.502 1_556 S
C749 C751 1.561 . S
C749 C752 1.542 . S
C750 H734 0.959 . S
C750 H735 0.959 . S
C750 H736 0.961 1_554 S
C750 C749 1.502 1_554 S
C751 H737 0.960 . S
C751 H738 0.961 . S
C751 H739 0.959 . S
C751 C749 1.561 . S
C752 C749 1.542 . S
C752 C753 1.408 . S
C752 C757 1.365 1_556 S
C753 C747 1.465 . S
C753 C752 1.408 . S
C753 C754 1.402 . S
C754 H740 0.933 . S
C754 C753 1.402 . S
C754 C755 1.378 1_556 S
C755 H741 0.931 . S
C755 C754 1.378 1_554 S
C755 C756 1.389 . S
C756 C755 1.389 . S
C756 C757 1.387 . S
C757 H742 0.930 . S
C757 C752 1.365 1_554 S
C757 C756 1.387 . S
H758 C770 0.930 . S
H759 C772 0.930 . S
H760 C773 0.930 . S
H761 C777 0.959 . S
H762 C777 0.959 . S
H763 C777 0.961 . S
H764 C778 0.960 . S
H765 C778 0.961 . S
H766 C778 0.959 . S
H767 C781 0.929 . S
H768 C782 0.931 . S
H769 C784 0.930 . S
C770 H758 0.930 . S
C770 C771 1.399 . S
C770 C775 1.399 . S
C771 C770 1.399 . S
C771 C772 1.376 . S
C772 H759 0.930 . S
C772 C771 1.376 . S
C772 C773 1.388 . S
C773 H760 0.930 . S
C773 C772 1.388 . S
C773 C774 1.390 . S
C774 C773 1.390 . S
C774 C775 1.394 . S
C774 C780 1.461 1_554 S
C775 C770 1.399 . S
C775 C774 1.394 . S
C775 C776 1.516 . S
C776 C775 1.516 . S
C776 C777 1.502 . S
C776 C778 1.561 . S
C776 C779 1.526 . S
C777 H761 0.959 . S
C777 H762 0.959 . S
C777 H763 0.961 . S
C777 C776 1.502 . S
C778 H764 0.960 . S
C778 H765 0.961 . S
C778 H766 0.959 . S
C778 C776 1.561 . S
C779 C776 1.526 . S
C779 C780 1.395 1_554 S
C779 C784 1.390 1_554 S
C780 C774 1.461 1_556 S
C780 C779 1.395 1_556 S
C780 C781 1.404 . S
C781 H767 0.929 . S
C781 C780 1.404 . S
C781 C782 1.385 . S
C782 H768 0.931 . S
C782 C781 1.385 . S
C782 C783 1.389 . S
C783 C782 1.389 . S
C783 C784 1.387 . S
C784 H769 0.930 . S
C784 C779 1.390 1_556 S
C784 C783 1.387 . S
H785 C797 0.930 . S
H786 C799 0.930 . S
H787 C800 0.930 . S
H788 C804 0.959 . S
H789 C804 0.959 . S
H790 C804 0.961 . S
H791 C805 0.960 . S
H792 C805 0.961 . S
H793 C805 0.959 . S
H794 C808 0.929 . S
H795 C809 0.931 . S
H796 C811 0.930 . S
C797 H785 0.930 . S
C797 C798 1.399 . S
C797 C802 1.399 . S
C798 C797 1.399 . S
C798 C799 1.376 . S
C799 H786 0.930 . S
C799 C798 1.376 . S
C799 C800 1.388 . S
C800 H787 0.930 . S
C800 C799 1.388 . S
C800 C801 1.390 . S
C801 C800 1.390 . S
C801 C802 1.394 . S
C801 C807 1.465 . S
C802 C797 1.399 . S
C802 C801 1.394 . S
C802 C803 1.516 1_556 S
C803 C802 1.516 1_554 S
C803 C804 1.502 . S
C803 C805 1.561 . S
C803 C806 1.526 . S
C804 H788 0.959 . S
C804 H789 0.959 . S
C804 H790 0.961 . S
C804 C803 1.502 . S
C805 H791 0.960 . S
C805 H792 0.961 . S
C805 H793 0.959 . S
C805 C803 1.561 . S
C806 C803 1.526 . S
C806 C807 1.396 1_554 S
C806 C811 1.390 . S
C807 C801 1.465 . S
C807 C806 1.396 1_556 S
C807 C808 1.399 . S
C808 H794 0.929 . S
C808 C807 1.399 . S
C808 C809 1.385 1_556 S
C809 H795 0.931 . S
C809 C808 1.385 1_554 S
C809 C810 1.389 . S
C810 C809 1.389 . S
C810 C811 1.387 . S
C811 H796 0.930 . S
C811 C806 1.390 . S
C811 C810 1.387 . S
C285 C88 1.147 . S
C297 C20 1.190 . S
C312 C122 1.149 . S
C324 C54 1.188 . S
C339 C224 1.148 . S
C351 C156 1.189 . S
C366 C258 1.148 . S
C378 C190 1.189 . S
C393 C2 1.310 . S
C405 C70 1.312 . S
C420 C104 1.356 . S
C432 C36 1.371 . S
C447 C206 1.356 . S
C459 C138 1.370 . S
C474 C240 1.367 . S
C486 C172 1.364 . S
C501 C247 1.426 . S
C513 C9 1.470 . S
C528 C145 1.469 . S
C540 C43 1.429 . S
C555 C77 1.447 . S
C567 C179 1.446 . S
C582 C213 1.450 . S
C594 C111 1.465 . S
C609 C67 0.579 . S
C621 C5 0.656 . S
C636 C101 0.516 . S
C648 C39 0.590 . S
C663 C73 0.554 . S
C675 C135 0.608 . S
C690 C33 0.596 . S
C702 C107 0.650 . S
C717 C271 0.640 . S
C729 C141 0.655 . S
C744 C169 0.708 . S
C756 C175 0.617 . S
C771 C203 0.706 . S
C783 C209 0.556 . S
C798 C237 0.566 . S
C810 C243 0.655 . S
