# Generated by pormake.
# Topology qtz-x, (6)-cn, num edge types: 1
# Building blocks:
#     Node 0, Type 0, BuildingBlock: KUMBOL_clean_sbu_0, # of connection points: 6
#     Node 1, Type 0, BuildingBlock: KUMBOL_clean_sbu_0, # of connection points: 6
#     Node 2, Type 0, BuildingBlock: KUMBOL_clean_sbu_0, # of connection points: 6
#     Edge 3, Type (0, 0), BuildingBlock: EZIPEK_clean_linker_0, # of connection points: 2
#     Edge 4, Type (0, 0), BuildingBlock: EZIPEK_clean_linker_0, # of connection points: 2
#     Edge 5, Type (0, 0), BuildingBlock: EZIPEK_clean_linker_0, # of connection points: 2
#     Edge 6, Type (0, 0), BuildingBlock: EZIPEK_clean_linker_0, # of connection points: 2
#     Edge 7, Type (0, 0), BuildingBlock: EZIPEK_clean_linker_0, # of connection points: 2
#     Edge 8, Type (0, 0), BuildingBlock: EZIPEK_clean_linker_0, # of connection points: 2
#     Edge 9, Type (0, 0), BuildingBlock: EZIPEK_clean_linker_0, # of connection points: 2
#     Edge 10, Type (0, 0), BuildingBlock: EZIPEK_clean_linker_0, # of connection points: 2
#     Edge 11, Type (0, 0), BuildingBlock: EZIPEK_clean_linker_0, # of connection points: 2
# Relax obj value: 0.163
# Max RMSD: 0.286
# Mean RMSD: 0.286
data_MOF--net-qtz-x--node1-KUMBOL_clean_sbu_0--edge1-EZIPEK_clean_linker_0
_symmetry_space_group_name_H-M    P1
_symmetry_Int_Tables_number       1
_symmetry_cell_setting            triclinic
loop_
_symmetry_equiv_pos_as_xyz
'x, y, z'
_cell_length_a     11.692354
_cell_length_b     11.770918
_cell_length_c     41.211764
_cell_angle_alpha  89.796028
_cell_angle_beta   90.04672
_cell_angle_gamma 119.94537
loop_
_atom_site_label
_atom_site_type_symbol
_atom_site_fract_x
_atom_site_fract_y
_atom_site_fract_z
_atom_type_partial_charge
Gd0 Gd -0.01524 0.31458 0.14599 0.0
Gd1 Gd 0.24651 0.43775 0.20391 0.0
C2 C 0.66397 0.58698 0.16775 0.0
C3 C 0.71564 0.42976 0.19134 0.0
C4 C 0.5014 0.40811 0.20077 0.0
C5 C 0.53634 0.51747 0.18131 0.0
C6 C 0.59237 0.3653 0.20657 0.0
C7 C 0.75145 0.54027 0.17206 0.0
C8 C 0.70374 0.70678 0.15232 0.0
C9 C 0.62202 0.76086 0.15361 0.0
N10 N 0.45291 0.56598 0.17934 0.0
C11 C 0.49826 0.69064 0.16849 0.0
H12 H 0.43976 0.73677 0.17117 0.0
C13 C 0.36059 0.26666 0.24182 0.0
N14 N 0.3848 0.35324 0.21694 0.0
C15 C 0.44462 0.21626 0.24719 0.0
C16 C 0.55952 0.26347 0.22883 0.0
H17 H 0.27361 0.23252 0.2566 0.0
H18 H 0.84817 0.59169 0.16127 0.0
H19 H 0.83888 0.05252 0.19639 0.0
H20 H 0.80032 0.76199 0.14128 0.0
H21 H 0.65477 0.85716 0.14343 0.0
H22 H 0.784 0.39439 0.19424 0.0
H23 H 0.94458 0.51018 0.09478 0.0
H24 H 0.42836 0.92046 0.20052 0.0
H25 H 0.6216 0.90863 0.2203 0.0
H26 H 0.37344 0.17451 0.11832 0.0
H27 H 0.4216 0.1424 0.26569 0.0
H28 H 0.62507 0.22505 0.23317 0.0
H29 H 0.33897 0.01474 0.16079 0.0
H30 H 0.76277 0.52823 0.06965 0.0
N31 N 0.77837 0.16721 0.16932 0.0
C32 C 0.5258 -0.01074 0.19144 0.0
C33 C 0.63453 -0.01686 0.20286 0.0
C34 C 0.54381 0.08048 0.16736 0.0
C35 C 0.67273 0.17057 0.15707 0.0
C36 C 0.75921 0.0684 0.19004 0.0
N37 N 0.81954 0.35381 0.12627 0.0
C38 C 0.69374 0.2647 0.13414 0.0
C39 C 0.74188 0.45459 0.08807 0.0
C40 C 0.61171 0.36565 0.09667 0.0
C41 C 0.84494 0.44581 0.10283 0.0
C42 C 0.58631 0.26898 0.11992 0.0
H43 H 0.53199 0.37172 0.08502 0.0
O44 O 0.01845 0.32886 0.09402 0.0
O45 O 0.20291 0.40087 0.1515 0.0
O46 O 0.21781 0.61079 0.18551 0.0
O47 O 0.01113 0.5155 0.16019 0.0
O48 O 0.13691 0.48779 0.11906 0.0
O49 O 0.90335 0.1389 0.11633 0.0
O50 O 0.19927 0.51244 0.24695 0.0
O51 O 0.03016 0.35807 0.19921 0.0
O52 O 0.01757 0.14308 0.16006 0.0
O53 O 0.20901 0.23032 0.1908 0.0
O54 O 0.09292 0.27057 0.23259 0.0
O55 O 0.39813 0.55657 0.23957 0.0
C56 C 0.24058 0.48832 0.1295 0.0
C57 C 0.45766 0.17641 0.12935 0.0
C58 C 0.43715 0.0841 0.15334 0.0
C59 C 0.94558 0.20431 0.0892 0.0
C60 C 0.85417 0.16666 0.06152 0.0
C61 C 0.72376 0.06407 0.06439 0.0
C62 C 0.897 0.23551 0.03187 0.0
C63 C 0.81226 0.19569 1.0049 0.0
C64 C 0.64211 0.01981 0.03721 0.0
C65 C 0.68818 0.08087 0.00729 0.0
C66 C 0.11681 0.62014 0.17284 0.0
C67 C -0.00809 0.27877 0.22331 0.0
C68 C 0.31547 0.5615 0.2596 0.0
C69 C 0.32089 0.52508 0.29359 0.0
C70 C 0.24047 0.3955 0.30454 0.0
C71 C 0.40375 0.62163 0.31574 0.0
C72 C 0.40401 0.58892 0.34858 0.0
C73 C 0.24559 0.36205 0.33679 0.0
C74 C 0.3276 0.45818 0.35872 0.0
C75 C 0.11144 0.13023 0.17491 0.0
H76 H 0.68571 0.01746 0.08762 0.0
H77 H -0.00705 0.32354 0.03032 0.0
H78 H 0.54174 0.93972 0.03942 0.0
H79 H 0.62097 0.04784 0.98684 0.0
H80 H 0.17275 0.31992 0.28844 0.0
H81 H 0.46376 0.7226 0.30783 0.0
H82 H 0.18412 0.2618 0.34491 0.0
H83 H 0.32927 0.43136 0.38382 0.0
Gd84 Gd 0.72474 0.17879 0.48229 0.0
Gd85 Gd 0.59831 0.89044 0.5319 0.0
C86 C 0.51492 0.54299 0.46723 0.0
C87 C 0.28107 0.40558 0.4743 0.0
C88 C 0.39699 0.61397 0.50222 0.0
C89 C 0.51482 0.63572 0.48894 0.0
C90 C 0.28307 0.49239 0.4976 0.0
C91 C 0.39637 0.43285 0.45823 0.0
C92 C 0.63422 0.55931 0.4564 0.0
C93 C 0.75022 0.65696 0.46988 0.0
N94 N 0.62939 0.7395 0.49949 0.0
C95 C 0.74616 0.74376 0.49215 0.0
H96 H 0.83914 0.81211 0.50259 0.0
C97 C 0.28754 0.67217 0.5414 0.0
N98 N 0.39623 0.70296 0.52291 0.0
C99 C 0.17702 0.54849 0.53962 0.0
C100 C 0.1758 0.45834 0.51762 0.0
H101 H 0.28823 0.7409 0.55867 0.0
H102 H 0.39459 0.36416 0.44058 0.0
H103 H 0.59696 0.29916 0.53903 0.0
H104 H 0.63629 0.49416 0.43843 0.0
H105 H 0.84398 0.669 0.4624 0.0
H106 H 0.19078 0.31726 0.4688 0.0
H107 H 0.94767 0.24544 0.42581 0.0
H108 H 0.88089 0.69866 0.55511 0.0
H109 H 0.66717 0.50285 0.56815 0.0
H110 H 0.19233 0.79231 0.47047 0.0
H111 H 0.09283 0.52485 0.55479 0.0
H112 H 0.09183 0.36258 0.51547 0.0
H113 H 0.06551 0.80434 0.5163 0.0
H114 H 0.13838 0.43917 0.40264 0.0
N115 N 0.77873 0.36772 0.51321 0.0
C116 C 0.85325 0.60633 0.5433 0.0
C117 C 0.73275 0.49638 0.55068 0.0
C118 C 0.9313 0.59846 0.51875 0.0
C119 C 0.89278 0.47612 0.5044 0.0
C120 C 0.69449 0.3792 0.53431 0.0
N121 N 0.92779 0.34847 0.46575 0.0
C122 C 0.96585 0.46728 0.47903 0.0
C123 C 0.0936 0.44766 0.42469 0.0
C124 C 0.1375 0.56952 0.43885 0.0
C125 C -0.01305 0.33756 0.43833 0.0
C126 C 0.07366 0.58137 0.46612 0.0
H127 H 0.21708 0.65385 0.42778 0.0
O128 O 0.65192 0.1431 0.43232 0.0
O129 O 0.60842 0.96033 0.48147 0.0
O130 O 0.82067 0.97285 0.52479 0.0
O131 O 0.9105 0.16286 0.49285 0.0
O132 O 0.76077 0.05137 0.44871 0.0
O133 O 0.67169 0.30979 0.45752 0.0
O134 O 0.69721 0.91114 0.57848 0.0
O135 O 0.71186 0.10651 0.53352 0.0
O136 O 0.52254 0.13569 0.49952 0.0
O137 O 0.42081 0.92661 0.52207 0.0
O138 O 0.55279 0.01315 0.56443 0.0
O139 O 0.5278 0.72807 0.56621 0.0
C140 C 0.66278 0.93959 0.45713 0.0
C141 C 0.11105 0.70327 0.48012 0.0
C142 C 0.04077 0.71086 0.50658 0.0
C143 C 0.65545 0.25386 0.42943 0.0
C144 C 0.73363 0.33627 0.40159 0.0
C145 C 0.82833 0.4689 0.40616 0.0
C146 C 0.72436 0.27937 0.37091 0.0
C147 C 0.81484 0.35231 0.34617 0.0
C148 C 0.91571 0.54205 0.38153 0.0
C149 C 0.91094 0.4837 0.35197 0.0
C150 C 0.92247 0.07096 0.50937 0.0
C151 C 0.65606 0.12455 0.55798 0.0
C152 C 0.608 0.79698 0.58908 0.0
C153 C 0.54662 0.79265 0.62076 0.0
C154 C 0.44281 0.82008 0.62313 0.0
C155 C 0.58971 0.75822 0.64893 0.0
C156 C 0.53008 0.75209 0.67904 0.0
C157 C 0.38432 0.81485 0.65302 0.0
C158 C 0.42806 0.78154 0.68099 0.0
C159 C 0.41638 0.03204 0.51113 0.0
H160 H 0.83957 0.51522 0.42926 0.0
H161 H 0.65051 0.17784 0.36667 0.0
H162 H -0.01033 0.64342 0.3857 0.0
H163 H -0.01795 0.54172 0.33338 0.0
H164 H 0.40602 0.84528 0.60205 0.0
H165 H 0.66969 0.73685 0.64755 0.0
H166 H 0.30515 0.83712 0.65448 0.0
H167 H 0.38298 0.77905 0.70414 0.0
Gd168 Gd 0.81453 0.46459 0.8168 0.0
Gd169 Gd 0.67034 0.59727 0.86923 0.0
C170 C 0.44844 0.79612 0.83257 0.0
C171 C 0.55641 0.00155 0.86194 0.0
C172 C 0.63231 0.8457 0.86815 0.0
C173 C 0.5381 0.76278 0.84625 0.0
C174 C 0.64019 0.96478 0.87695 0.0
C175 C 0.45925 0.91652 0.84033 0.0
C176 C 0.35456 0.7103 0.81043 0.0
C177 C 0.34929 0.5922 0.80326 0.0
N178 N 0.53355 0.64908 0.83855 0.0
C179 C 0.43777 0.56165 0.81829 0.0
H180 H 0.42913 0.46802 0.81361 0.0
C181 C 0.80621 0.88555 0.90385 0.0
N182 N 0.71767 0.81091 0.88045 0.0
C183 C 0.81736 0.00438 0.91353 0.0
C184 C 0.73481 0.04511 0.89971 0.0
H185 H 0.86632 0.85183 0.91558 0.0
H186 H 0.39813 0.94722 0.82816 0.0
H187 H 0.1093 0.58012 0.85644 0.0
H188 H 0.2853 0.7337 0.79901 0.0
H189 H 0.27584 0.52371 0.78663 0.0
H190 H 0.57222 0.09864 0.86538 0.0
H191 H 0.59219 0.2266 0.76735 0.0
H192 H 0.17082 0.25806 0.87196 0.0
H193 H 0.24333 0.4928 0.87794 0.0
H194 H 0.81439 0.90847 0.81596 0.0
H195 H 0.88875 0.06369 0.93176 0.0
H196 H 0.74397 0.13767 0.90693 0.0
H197 H 0.00937 0.04256 0.84933 0.0
H198 H 0.52631 -0.00033 0.75333 0.0
N199 N 0.95002 0.39466 0.84124 0.0
C200 C 0.10862 0.29547 0.86307 0.0
C201 C 0.14969 0.42758 0.86656 0.0
C202 C -0.00797 0.21509 0.84627 0.0
C203 C 0.91376 0.26765 0.8351 0.0
C204 C 0.07054 0.47636 0.85478 0.0
N205 N 0.73422 0.24522 0.8028 0.0
C206 C 0.805 0.19231 0.81515 0.0
C207 C 0.60477 0.05285 0.77065 0.0
C208 C 0.66866 -0.00659 0.7852 0.0
C209 C 0.6415 0.18079 0.77905 0.0
C210 C 0.77353 0.06442 0.80649 0.0
H211 H 0.63406 0.89171 0.78027 0.0
O212 O 0.79733 0.45157 0.76435 0.0
O213 O 0.68106 0.55097 0.81693 0.0
O214 O 0.50179 0.38582 0.85996 0.0
O215 O 0.59642 0.29701 0.8264 0.0
O216 O 0.84653 0.63804 0.78849 0.0
O217 O -0.01477 0.50574 0.78771 0.0
O218 O 0.66422 0.60746 0.92162 0.0
O219 O 0.75745 0.46436 0.86854 0.0
O220 O -0.01837 0.65978 0.83669 0.0
O221 O 0.87474 0.77084 0.85416 0.0
O222 O 0.83338 0.61305 0.90123 0.0
O223 O 0.48146 0.51928 0.89444 0.0
C224 C 0.74017 0.63803 0.79502 0.0
C225 C 0.84564 0.01025 0.81975 0.0
C226 C 0.95469 0.08537 0.83934 0.0
C227 C 0.91845 0.47633 0.76052 0.0
C228 C 0.93823 0.39341 0.73714 0.0
C229 C 0.01587 0.33649 0.74471 0.0
C230 C 0.88086 0.37409 0.70623 0.0
C231 C 0.89728 0.29559 0.68329 0.0
C232 C 0.0365 0.26236 0.72157 0.0
C233 C -0.02273 0.24144 0.69106 0.0
C234 C 0.49335 0.28548 0.84335 0.0
C235 C 0.83555 0.50929 0.89274 0.0
C236 C 0.53682 0.5533 0.92284 0.0
C237 C 0.48361 0.6035 0.94728 0.0
C238 C 0.43848 0.69064 0.93984 0.0
C239 C 0.48085 0.56275 0.97938 0.0
C240 C 0.42889 0.60454 1.00402 0.0
C241 C 0.3906 0.73651 0.96459 0.0
C242 C 0.3848 0.69303 0.9965 0.0
C243 C -0.0155 0.76996 0.84534 0.0
H244 H 0.06078 0.34923 0.76838 0.0
H245 H 0.8228 0.41966 0.69998 0.0
H246 H 0.09664 0.21898 0.72747 0.0
H247 H -0.00712 0.18203 0.67356 0.0
H248 H 0.43898 0.72205 0.91514 0.0
H249 H 0.51743 0.49685 0.98519 0.0
H250 H 0.35582 0.80401 0.95895 0.0
H251 H 0.34486 0.72747 0.01528 0.0
C252 C 0.10077 0.80832 0.14429 0.0
C253 C 0.11925 0.75312 0.17341 0.0
C254 C 0.12052 0.93804 0.20345 0.0
C255 C 0.10578 -0.00446 0.1743 0.0
N256 N 0.05193 0.96166 0.11711 0.0
N257 N 0.17659 0.7892 0.23029 0.0
C258 C 0.08587 0.92287 0.14493 0.0
C259 C 0.13745 0.82484 0.20277 0.0
N260 N 0.11356 0.76097 0.11518 0.0
N261 N 0.10571 -0.01603 0.23253 0.0
H262 H 0.1866 0.70691 0.23187 0.0
H263 H 0.21141 0.84827 0.25081 0.0
H264 H 0.09724 0.93741 0.25466 0.0
H265 H 0.08568 0.06007 0.23416 0.0
H266 H 0.11886 0.80521 0.09289 0.0
H267 H 0.13692 0.68722 0.11347 0.0
H268 H 0.01282 0.90171 0.09686 0.0
H269 H 0.05375 0.04983 0.1147 0.0
C270 C 0.24301 0.06996 0.48179 0.0
C271 C 0.28836 0.03983 0.51113 0.0
C272 C 0.10633 0.05192 0.53999 0.0
C273 C 0.05478 0.07077 0.51017 0.0
N274 N 0.06837 0.07511 0.45174 0.0
N275 N 0.24454 -0.01778 0.56779 0.0
C276 C 0.12167 0.07292 0.48099 0.0
C277 C 0.21563 0.02696 0.54016 0.0
N278 N 0.31643 0.09814 0.45407 0.0
N279 N 0.05276 0.06051 0.56867 0.0
H280 H 0.32149 0.96261 0.56927 0.0
H281 H 0.18515 0.95283 0.58842 0.0
H282 H -0.02933 0.07253 0.57004 0.0
H283 H 0.09599 0.06664 0.59117 0.0
H284 H 0.29817 0.13606 0.4331 0.0
H285 H 0.40166 0.09267 0.45209 0.0
H286 H 0.09587 0.05137 0.42988 0.0
H287 H -0.00867 0.09382 0.44932 0.0
C288 C 0.18153 0.96197 0.87456 0.0
C289 C 0.11804 0.89796 0.84522 0.0
C290 C 0.286 0.09483 0.81575 0.0
C291 C 0.36095 0.15251 0.84433 0.0
N292 N 0.38799 0.11094 0.90021 0.0
N293 N 0.14991 0.89204 0.78743 0.0
C294 C 0.30924 0.07879 0.87371 0.0
C295 C 0.18192 0.96076 0.81567 0.0
N296 N 0.124 0.90829 0.90358 0.0
N297 N 0.30767 0.16964 0.7889 0.0
H298 H 0.08359 0.79192 0.78655 0.0
H299 H 0.20152 0.93185 0.76587 0.0
H300 H 0.36648 0.27032 0.79037 0.0
H301 H 0.2506 0.13493 0.76792 0.0
H302 H 0.15551 0.95863 0.92548 0.0
H303 H 0.0413 0.81567 0.90546 0.0
H304 H 0.36205 0.05684 0.9217 0.0
H305 H 0.48752 0.17644 0.89802 0.0
C306 C 0.32993 0.42864 0.04781 0.0
C307 C 0.42098 0.55835 0.03794 0.0
C308 C 0.4199 0.63725 0.09139 0.0
C309 C 0.33532 0.50847 0.10311 0.0
N310 N 0.2472 0.27763 0.09303 0.0
N311 N 0.60728 0.75713 0.05656 0.0
C312 C 0.30488 0.40241 0.08163 0.0
C313 C 0.48584 0.65261 0.06195 0.0
N314 N 0.26209 0.33304 0.02544 0.0
N315 N 0.42142 0.74385 0.10459 0.0
H316 H 0.6564 0.77055 0.03448 0.0
H317 H 0.66184 0.81697 0.07581 0.0
H318 H 0.35808 0.73692 0.1232 0.0
H319 H 0.4767 0.83697 0.09437 0.0
H320 H 0.18403 0.24081 0.03167 0.0
H321 H 0.2779 0.34882 1.00056 0.0
H322 H 0.22988 0.19843 0.07844 0.0
H323 H 0.2332 0.25738 0.11771 0.0
C324 C 0.84426 0.19956 0.30795 0.0
C325 C 0.81067 0.29799 0.3133 0.0
C326 C 0.87613 0.37715 0.25831 0.0
C327 C 0.9032 0.27372 0.25102 0.0
N328 N 0.8697 0.06212 0.26877 0.0
N329 N 0.74216 0.44064 0.28951 0.0
C330 C 0.87064 0.17576 0.27565 0.0
C331 C 0.80512 0.36978 0.28667 0.0
N332 N 0.86094 0.13525 0.33354 0.0
N333 N 0.93058 0.491 0.24128 0.0
H334 H 0.68976 0.43672 0.31041 0.0
H335 H 0.73139 0.49141 0.27003 0.0
H336 H -0.01002 0.50816 0.22159 0.0
H337 H 0.92432 0.57257 0.24853 0.0
H338 H 0.90108 0.07411 0.33102 0.0
H339 H 0.84471 0.15069 0.35756 0.0
H340 H 0.83578 -0.01594 0.2851 0.0
H341 H 0.88994 0.04072 0.24583 0.0
C342 C 0.5697 0.56537 0.74948 0.0
C343 C 0.67925 0.66725 0.76634 0.0
C344 C 0.69742 0.82085 0.72311 0.0
C345 C 0.58025 0.72216 0.70892 0.0
N346 N 0.39344 0.50332 0.71063 0.0
N347 N 0.87955 0.87729 0.75904 0.0
C348 C 0.51287 0.59558 0.72276 0.0
C349 C 0.7529 0.7905 0.75009 0.0
N350 N 0.5319 0.43785 0.75549 0.0
N351 N 0.75121 0.9472 0.71247 0.0
H352 H 0.92414 0.86497 0.77945 0.0
H353 H 0.94326 0.95861 0.74509 0.0
H354 H 0.71595 0.97507 0.69249 0.0
H355 H 0.82024 0.02536 0.72618 0.0
H356 H 0.47031 0.36186 0.73998 0.0
H357 H 0.57232 0.40886 0.77385 0.0
H358 H 0.33303 0.41468 0.72247 0.0
H359 H 0.35058 0.51906 0.69016 0.0
C360 C 0.7233 0.36731 0.94214 0.0
C361 C 0.83457 0.42638 0.92094 0.0
C362 C 0.9448 0.34482 0.95718 0.0
C363 C 0.83295 0.28841 0.97788 0.0
N364 N 0.65233 0.31225 0.99777 0.0
N365 N 0.07218 0.53532 0.92361 0.0
C366 C 0.73394 0.32131 0.97289 0.0
C367 C 0.95268 0.43389 0.93255 0.0
N368 N 0.60647 0.35481 0.93331 0.0
N369 N 0.04311 0.31574 0.96083 0.0
H370 H 0.08109 0.61321 0.90955 0.0
H371 H 0.15995 0.54804 0.93338 0.0
H372 H 0.03856 0.2488 0.97816 0.0
H373 H 0.12264 0.3506 0.94476 0.0
H374 H 0.52063 0.30592 0.9472 0.0
H375 H 0.59256 0.37804 0.9101 0.0
H376 H 0.58429 0.34446 0.99587 0.0
H377 H 0.6642 0.28816 0.02146 0.0
C378 C 0.59826 0.70795 0.38543 0.0
C379 C 0.47831 0.69124 0.37322 0.0
C380 C 0.47316 0.83247 0.41611 0.0
C381 C 0.59221 0.84587 0.42959 0.0
N382 N 0.7915 0.83927 0.41744 0.0
N383 N 0.3198 0.76416 0.37049 0.0
C384 C 0.66197 0.79704 0.41122 0.0
C385 C 0.42288 0.76386 0.38626 0.0
N386 N 0.6512 0.63727 0.37271 0.0
N387 N 0.40661 0.88381 0.43169 0.0
H388 H 0.2749 0.70801 0.34996 0.0
H389 H 0.28314 0.82605 0.37604 0.0
H390 H 0.42592 0.91736 0.45521 0.0
H391 H 0.32236 0.88188 0.42295 0.0
H392 H 0.73043 0.63413 0.38328 0.0
H393 H 0.61153 0.57619 0.35261 0.0
H394 H 0.85224 0.8231 0.40191 0.0
H395 H 0.83896 0.89341 0.43783 0.0
C396 C 0.92055 0.31492 0.62285 0.0
C397 C 0.83735 0.27561 0.65037 0.0
C398 C 0.64707 0.20135 0.6142 0.0
C399 C 0.72597 0.20875 0.58717 0.0
N400 N 0.94389 0.28055 0.56672 0.0
N401 N 0.61552 0.16633 0.67212 0.0
C402 C 0.86454 0.2691 0.59175 0.0
C403 C 0.69874 0.21604 0.64612 0.0
N404 N 0.05303 0.39979 0.62623 0.0
N405 N 0.52276 0.1806 0.60927 0.0
H406 H 0.64852 0.16903 0.69576 0.0
H407 H 0.51327 0.11101 0.6697 0.0
H408 H 0.48644 0.17774 0.586 0.0
H409 H 0.46374 0.18289 0.62791 0.0
H410 H 0.11757 0.43981 0.60667 0.0
H411 H 0.0966 0.44092 0.64845 0.0
H412 H 0.03905 0.29623 0.57006 0.0
H413 H 0.91443 0.27889 0.54304 0.0
loop_
_geom_bond_atom_site_label_1
_geom_bond_atom_site_label_2
_geom_bond_distance
_geom_bond_site_symmetry_2
_ccdc_geom_bond_type
Gd0 N31 2.661 . S
Gd0 N37 2.601 . S
Gd0 O44 2.545 . S
Gd0 O45 2.606 1_655 S
Gd0 O47 2.429 . S
Gd0 O48 2.545 . S
Gd0 O49 2.412 . S
Gd0 O51 2.362 . S
Gd0 O52 2.324 . S
Gd0 C59 2.828 . S
Gd1 N10 2.661 . S
Gd1 N14 2.601 . S
Gd1 O45 2.362 . S
Gd1 O46 2.324 . S
Gd1 O50 2.545 . S
Gd1 O51 2.606 1_455 S
Gd1 O53 2.429 . S
Gd1 O54 2.545 . S
Gd1 O55 2.412 . S
Gd1 C68 2.828 . S
C2 C5 1.417 . S
C2 C7 1.431 . S
C2 C8 1.412 . S
C3 C6 1.437 . S
C3 C7 1.317 . S
C3 H22 0.929 . S
C4 C5 1.426 . S
C4 C6 1.413 . S
C4 N14 1.359 . S
C5 C2 1.417 . S
C5 C4 1.426 . S
C5 N10 1.350 . S
C6 C3 1.437 . S
C6 C4 1.413 . S
C6 C16 1.391 . S
C7 C2 1.431 . S
C7 C3 1.317 . S
C7 H18 0.930 . S
C8 C2 1.412 . S
C8 C9 1.355 . S
C8 H20 0.930 . S
C9 C8 1.355 . S
C9 C11 1.402 . S
C9 H21 0.930 . S
N10 Gd1 2.661 . S
N10 C5 1.350 . S
N10 C11 1.307 . S
C11 C9 1.402 . S
C11 N10 1.307 . S
C11 H12 0.930 . S
H12 C11 0.930 . S
C13 N14 1.334 . S
C13 C15 1.394 . S
C13 H17 0.930 . S
N14 Gd1 2.601 . S
N14 C4 1.359 . S
N14 C13 1.334 . S
C15 C13 1.394 . S
C15 C16 1.359 . S
C15 H27 0.930 . S
C16 C6 1.391 . S
C16 C15 1.359 . S
C16 H28 0.929 . S
H17 C13 0.930 . S
H18 C7 0.930 . S
H19 C36 0.930 . S
H20 C8 0.930 . S
H21 C9 0.930 . S
H22 C3 0.929 . S
H23 C41 0.930 . S
H24 C32 0.930 . S
H25 C33 0.930 . S
H26 C57 0.929 . S
H27 C15 0.930 . S
H28 C16 0.929 . S
H29 C58 0.930 . S
H30 C39 0.930 . S
N31 Gd0 2.661 . S
N31 C35 1.350 . S
N31 C36 1.307 . S
C32 H24 0.930 . S
C32 C33 1.355 . S
C32 C34 1.412 1_565 S
C33 H25 0.930 . S
C33 C32 1.355 . S
C33 C36 1.402 1_565 S
C34 C32 1.412 1_545 S
C34 C35 1.417 . S
C34 C58 1.431 . S
C35 N31 1.350 . S
C35 C34 1.417 . S
C35 C38 1.426 . S
C36 H19 0.930 . S
C36 N31 1.307 . S
C36 C33 1.402 1_545 S
N37 Gd0 2.601 . S
N37 C38 1.359 . S
N37 C41 1.334 . S
C38 C35 1.426 . S
C38 N37 1.359 . S
C38 C42 1.413 . S
C39 H30 0.930 . S
C39 C40 1.359 . S
C39 C41 1.394 . S
C40 C39 1.359 . S
C40 C42 1.391 . S
C40 H43 0.929 . S
C41 H23 0.930 . S
C41 N37 1.334 . S
C41 C39 1.394 . S
C42 C38 1.413 . S
C42 C40 1.391 . S
C42 C57 1.437 . S
H43 C40 0.929 . S
O44 Gd0 2.545 . S
O44 C59 1.258 . S
O45 Gd0 2.606 1_455 S
O45 Gd1 2.362 . S
O45 C56 1.284 . S
O46 Gd1 2.324 . S
O46 C66 1.254 . S
O47 Gd0 2.429 . S
O47 C66 1.268 1_655 S
O48 Gd0 2.545 . S
O48 C56 1.250 1_655 S
O49 Gd0 2.412 . S
O49 C59 1.252 . S
O50 Gd1 2.545 . S
O50 C68 1.258 . S
O51 Gd0 2.362 . S
O51 Gd1 2.606 1_655 S
O51 C67 1.284 . S
O52 Gd0 2.324 . S
O52 C75 1.254 . S
O53 Gd1 2.429 . S
O53 C75 1.268 1_455 S
O54 Gd1 2.545 . S
O54 C67 1.250 1_455 S
O55 Gd1 2.412 . S
O55 C68 1.252 . S
C56 O45 1.284 . S
C56 O48 1.250 1_455 S
C57 H26 0.929 . S
C57 C42 1.437 . S
C57 C58 1.317 . S
C58 H29 0.930 . S
C58 C34 1.431 . S
C58 C57 1.317 . S
C59 Gd0 2.828 . S
C59 O44 1.258 . S
C59 O49 1.252 . S
C59 C60 1.497 . S
C60 C59 1.497 . S
C60 C61 1.395 . S
C60 C62 1.380 . S
C61 C60 1.395 . S
C61 C64 1.398 . S
C61 H76 0.930 . S
C62 C60 1.380 . S
C62 C63 1.391 . S
C62 H77 0.930 . S
C63 C62 1.391 . S
C63 C65 1.387 1_554 S
C64 C61 1.398 . S
C64 C65 1.380 1_554 S
C64 H78 0.924 1_554 S
C65 C63 1.387 1_556 S
C65 C64 1.380 1_556 S
C65 H79 0.930 . S
C66 O46 1.254 . S
C66 O47 1.268 1_455 S
C67 O51 1.284 . S
C67 O54 1.250 1_655 S
C68 Gd1 2.828 . S
C68 O50 1.258 . S
C68 O55 1.252 . S
C68 C69 1.497 . S
C69 C68 1.497 . S
C69 C70 1.395 . S
C69 C71 1.380 . S
C70 C69 1.395 . S
C70 C73 1.398 . S
C70 H80 0.930 . S
C71 C69 1.380 . S
C71 C72 1.391 . S
C71 H81 0.930 . S
C72 C71 1.391 . S
C72 C74 1.387 . S
C73 C70 1.398 . S
C73 C74 1.380 . S
C73 H82 0.930 . S
C74 C72 1.387 . S
C74 C73 1.380 . S
C74 H83 0.930 . S
C75 O52 1.254 . S
C75 O53 1.268 1_655 S
H76 C61 0.930 . S
H77 C62 0.930 . S
H78 C64 0.924 1_556 S
H79 C65 0.930 . S
H80 C70 0.930 . S
H81 C71 0.930 . S
H82 C73 0.930 . S
H83 C74 0.930 . S
Gd84 N115 2.661 . S
Gd84 N121 2.601 1_655 S
Gd84 O128 2.545 1_655 S
Gd84 O129 2.606 . S
Gd84 O131 2.429 1_655 S
Gd84 O132 2.545 . S
Gd84 O133 2.412 . S
Gd84 O135 2.362 . S
Gd84 O136 2.324 . S
Gd84 C143 2.828 . S
Gd85 N94 2.661 1_545 S
Gd85 N98 2.601 1_545 S
Gd85 O129 2.362 . S
Gd85 O130 2.324 . S
Gd85 O134 2.545 1_545 S
Gd85 O135 2.606 . S
Gd85 O137 2.429 . S
Gd85 O138 2.545 . S
Gd85 O139 2.412 1_545 S
Gd85 C152 2.828 1_545 S
C86 C89 1.417 . S
C86 C91 1.431 . S
C86 C92 1.412 . S
C87 C90 1.437 . S
C87 C91 1.317 . S
C87 H106 0.929 . S
C88 C89 1.426 . S
C88 C90 1.413 . S
C88 N98 1.359 . S
C89 C86 1.417 . S
C89 C88 1.426 . S
C89 N94 1.350 . S
C90 C87 1.437 . S
C90 C88 1.413 . S
C90 C100 1.391 . S
C91 C86 1.431 . S
C91 C87 1.317 . S
C91 H102 0.930 . S
C92 C86 1.412 . S
C92 C93 1.355 . S
C92 H104 0.930 . S
C93 C92 1.355 . S
C93 C95 1.402 . S
C93 H105 0.930 . S
N94 Gd85 2.661 1_565 S
N94 C89 1.350 . S
N94 C95 1.307 . S
C95 C93 1.402 . S
C95 N94 1.307 . S
C95 H96 0.930 . S
H96 C95 0.930 . S
C97 N98 1.334 . S
C97 C99 1.394 . S
C97 H101 0.930 . S
N98 Gd85 2.601 1_565 S
N98 C88 1.359 . S
N98 C97 1.334 . S
C99 C97 1.394 . S
C99 C100 1.359 . S
C99 H111 0.930 . S
C100 C90 1.391 . S
C100 C99 1.359 . S
C100 H112 0.929 . S
H101 C97 0.930 . S
H102 C91 0.930 . S
H103 C120 0.930 . S
H104 C92 0.930 . S
H105 C93 0.930 . S
H106 C87 0.929 . S
H107 C125 0.930 . S
H108 C116 0.930 . S
H109 C117 0.930 . S
H110 C141 0.929 . S
H111 C99 0.930 . S
H112 C100 0.929 . S
H113 C142 0.930 . S
H114 C123 0.930 . S
N115 Gd84 2.661 . S
N115 C119 1.350 1_655 S
N115 C120 1.307 . S
C116 H108 0.930 . S
C116 C117 1.355 . S
C116 C118 1.412 1_655 S
C117 H109 0.930 . S
C117 C116 1.355 . S
C117 C120 1.402 . S
C118 C116 1.412 1_455 S
C118 C119 1.417 . S
C118 C142 1.431 . S
C119 N115 1.350 1_455 S
C119 C118 1.417 . S
C119 C122 1.426 . S
C120 H103 0.930 . S
C120 N115 1.307 . S
C120 C117 1.402 . S
N121 Gd84 2.601 1_455 S
N121 C122 1.359 . S
N121 C125 1.334 . S
C122 C119 1.426 . S
C122 N121 1.359 . S
C122 C126 1.413 . S
C123 H114 0.930 . S
C123 C124 1.359 . S
C123 C125 1.394 . S
C124 C123 1.359 . S
C124 C126 1.391 . S
C124 H127 0.929 . S
C125 H107 0.930 . S
C125 N121 1.334 . S
C125 C123 1.394 . S
C126 C122 1.413 . S
C126 C124 1.391 . S
C126 C141 1.437 . S
H127 C124 0.929 . S
O128 Gd84 2.545 1_455 S
O128 C143 1.258 1_455 S
O129 Gd84 2.606 . S
O129 Gd85 2.362 . S
O129 C140 1.284 . S
O130 Gd85 2.324 . S
O130 C150 1.254 1_655 S
O131 Gd84 2.429 1_455 S
O131 C150 1.268 . S
O132 Gd84 2.545 . S
O132 C140 1.250 . S
O133 Gd84 2.412 . S
O133 C143 1.252 . S
O134 Gd85 2.545 1_565 S
O134 C152 1.258 . S
O135 Gd84 2.362 . S
O135 Gd85 2.606 . S
O135 C151 1.284 . S
O136 Gd84 2.324 . S
O136 C159 1.254 . S
O137 Gd85 2.429 . S
O137 C159 1.268 . S
O138 Gd85 2.545 . S
O138 C151 1.250 . S
O139 Gd85 2.412 1_565 S
O139 C152 1.252 . S
C140 O129 1.284 . S
C140 O132 1.250 . S
C141 H110 0.929 . S
C141 C126 1.437 . S
C141 C142 1.317 . S
C142 H113 0.930 . S
C142 C118 1.431 . S
C142 C141 1.317 . S
C143 Gd84 2.828 . S
C143 O128 1.258 1_655 S
C143 O133 1.252 . S
C143 C144 1.497 . S
C144 C143 1.497 . S
C144 C145 1.395 1_655 S
C144 C146 1.380 . S
C145 C144 1.395 1_455 S
C145 C148 1.398 . S
C145 H160 0.930 . S
C146 C144 1.380 . S
C146 C147 1.391 . S
C146 H161 0.930 . S
C147 C146 1.391 . S
C147 C149 1.387 1_655 S
C148 C145 1.398 . S
C148 C149 1.380 . S
C148 H162 0.930 . S
C149 C147 1.387 1_455 S
C149 C148 1.380 . S
C149 H163 0.930 . S
C150 O130 1.254 1_455 S
C150 O131 1.268 . S
C151 O135 1.284 . S
C151 O138 1.250 . S
C152 Gd85 2.828 1_565 S
C152 O134 1.258 . S
C152 O139 1.252 . S
C152 C153 1.497 . S
C153 C152 1.497 . S
C153 C154 1.395 . S
C153 C155 1.380 . S
C154 C153 1.395 . S
C154 C157 1.398 . S
C154 H164 0.930 . S
C155 C153 1.380 . S
C155 C156 1.391 . S
C155 H165 0.930 . S
C156 C155 1.391 . S
C156 C158 1.387 . S
C157 C154 1.398 . S
C157 C158 1.380 . S
C157 H166 0.930 . S
C158 C156 1.387 . S
C158 C157 1.380 . S
C158 H167 0.930 . S
C159 O136 1.254 . S
C159 O137 1.268 . S
H160 C145 0.930 . S
H161 C146 0.930 . S
H162 C148 0.930 . S
H163 C149 0.930 . S
H164 C154 0.930 . S
H165 C155 0.930 . S
H166 C157 0.930 . S
H167 C158 0.930 . S
Gd168 N199 2.661 1_655 S
Gd168 N205 2.601 . S
Gd168 O212 2.545 . S
Gd168 O213 2.606 . S
Gd168 O215 2.429 . S
Gd168 O216 2.545 . S
Gd168 O217 2.412 1_655 S
Gd168 O219 2.362 . S
Gd168 O220 2.324 1_655 S
Gd168 C227 2.828 . S
Gd169 N178 2.661 . S
Gd169 N182 2.601 . S
Gd169 O213 2.362 . S
Gd169 O214 2.324 . S
Gd169 O218 2.545 . S
Gd169 O219 2.606 . S
Gd169 O221 2.429 . S
Gd169 O222 2.545 . S
Gd169 O223 2.412 . S
Gd169 C236 2.828 . S
C170 C173 1.417 . S
C170 C175 1.431 . S
C170 C176 1.412 . S
C171 C174 1.437 . S
C171 C175 1.317 . S
C171 H190 0.929 1_565 S
C172 C173 1.426 . S
C172 C174 1.413 . S
C172 N182 1.359 . S
C173 C170 1.417 . S
C173 C172 1.426 . S
C173 N178 1.350 . S
C174 C171 1.437 . S
C174 C172 1.413 . S
C174 C184 1.391 1_565 S
C175 C170 1.431 . S
C175 C171 1.317 . S
C175 H186 0.930 . S
C176 C170 1.412 . S
C176 C177 1.355 . S
C176 H188 0.930 . S
C177 C176 1.355 . S
C177 C179 1.402 . S
C177 H189 0.930 . S
N178 Gd169 2.661 . S
N178 C173 1.350 . S
N178 C179 1.307 . S
C179 C177 1.402 . S
C179 N178 1.307 . S
C179 H180 0.930 . S
H180 C179 0.930 . S
C181 N182 1.334 . S
C181 C183 1.394 . S
C181 H185 0.930 . S
N182 Gd169 2.601 . S
N182 C172 1.359 . S
N182 C181 1.334 . S
C183 C181 1.394 . S
C183 C184 1.359 1_565 S
C183 H195 0.930 1_565 S
C184 C174 1.391 1_545 S
C184 C183 1.359 1_545 S
C184 H196 0.929 . S
H185 C181 0.930 . S
H186 C175 0.930 . S
H187 C204 0.930 . S
H188 C176 0.930 . S
H189 C177 0.930 . S
H190 C171 0.929 1_545 S
H191 C209 0.930 . S
H192 C200 0.930 . S
H193 C201 0.930 . S
H194 C225 0.929 . S
H195 C183 0.930 1_545 S
H196 C184 0.929 . S
H197 C226 0.930 . S
H198 C207 0.930 . S
N199 Gd168 2.661 1_455 S
N199 C203 1.350 . S
N199 C204 1.307 . S
C200 H192 0.930 . S
C200 C201 1.355 . S
C200 C202 1.412 . S
C201 H193 0.930 . S
C201 C200 1.355 . S
C201 C204 1.402 . S
C202 C200 1.412 . S
C202 C203 1.417 . S
C202 C226 1.431 1_545 S
C203 N199 1.350 . S
C203 C202 1.417 . S
C203 C206 1.426 1_455 S
C204 H187 0.930 . S
C204 N199 1.307 . S
C204 C201 1.402 . S
N205 Gd168 2.601 . S
N205 C206 1.359 . S
N205 C209 1.334 1_545 S
C206 C203 1.426 1_655 S
C206 N205 1.359 . S
C206 C210 1.413 1_545 S
C207 H198 0.930 . S
C207 C208 1.359 . S
C207 C209 1.394 . S
C208 C207 1.359 . S
C208 C210 1.391 . S
C208 H211 0.929 . S
C209 H191 0.930 . S
C209 N205 1.334 1_565 S
C209 C207 1.394 . S
C210 C206 1.413 1_565 S
C210 C208 1.391 . S
C210 C225 1.437 . S
H211 C208 0.929 . S
O212 Gd168 2.545 . S
O212 C227 1.258 . S
O213 Gd168 2.606 . S
O213 Gd169 2.362 . S
O213 C224 1.284 . S
O214 Gd169 2.324 . S
O214 C234 1.254 . S
O215 Gd168 2.429 . S
O215 C234 1.268 . S
O216 Gd168 2.545 . S
O216 C224 1.250 . S
O217 Gd168 2.412 1_455 S
O217 C227 1.252 1_455 S
O218 Gd169 2.545 . S
O218 C236 1.258 . S
O219 Gd168 2.362 . S
O219 Gd169 2.606 . S
O219 C235 1.284 . S
O220 Gd168 2.324 1_455 S
O220 C243 1.254 . S
O221 Gd169 2.429 . S
O221 C243 1.268 1_655 S
O222 Gd169 2.545 . S
O222 C235 1.250 . S
O223 Gd169 2.412 . S
O223 C236 1.252 . S
C224 O213 1.284 . S
C224 O216 1.250 . S
C225 H194 0.929 . S
C225 C210 1.437 . S
C225 C226 1.317 1_655 S
C226 H197 0.930 . S
C226 C202 1.431 1_565 S
C226 C225 1.317 1_455 S
C227 Gd168 2.828 . S
C227 O212 1.258 . S
C227 O217 1.252 1_655 S
C227 C228 1.497 1_655 S
C228 C227 1.497 1_455 S
C228 C229 1.395 1_455 S
C228 C230 1.380 . S
C229 C228 1.395 1_655 S
C229 C232 1.398 1_655 S
C229 H244 0.930 . S
C230 C228 1.380 . S
C230 C231 1.391 . S
C230 H245 0.930 . S
C231 C230 1.391 . S
C231 C233 1.387 . S
C232 C229 1.398 1_455 S
C232 C233 1.380 . S
C232 H246 0.930 1_445 S
C233 C231 1.387 . S
C233 C232 1.380 . S
C233 H247 0.930 . S
C234 O214 1.254 . S
C234 O215 1.268 . S
C235 O219 1.284 . S
C235 O222 1.250 . S
C236 Gd169 2.828 . S
C236 O218 1.258 . S
C236 O223 1.252 . S
C236 C237 1.497 . S
C237 C236 1.497 . S
C237 C238 1.395 . S
C237 C239 1.380 . S
C238 C237 1.395 . S
C238 C241 1.398 . S
C238 H248 0.930 . S
C239 C237 1.380 . S
C239 C240 1.391 . S
C239 H249 0.930 . S
C240 C239 1.391 . S
C240 C242 1.387 1_556 S
C241 C238 1.398 . S
C241 C242 1.380 1_556 S
C241 H250 0.924 1_556 S
C242 C240 1.387 1_554 S
C242 C241 1.380 1_554 S
C242 H251 0.930 . S
C243 O220 1.254 . S
C243 O221 1.268 1_455 S
H244 C229 0.930 . S
H245 C230 0.930 . S
H246 C232 0.930 1_665 S
H247 C233 0.930 . S
H248 C238 0.930 . S
H249 C239 0.930 . S
H250 C241 0.924 1_554 S
H251 C242 0.930 . S
C252 C253 1.363 1_655 S
C252 C258 1.379 . S
C252 N260 1.356 . S
C253 C252 1.363 1_455 S
C253 C259 1.363 . S
C254 C255 1.363 1_455 S
C254 C259 1.379 1_545 S
C254 N261 1.356 . S
C255 C254 1.363 1_655 S
C255 C258 1.363 1_545 S
N256 C258 1.356 . S
N256 H268 0.984 . S
N256 H269 0.985 1_565 S
N257 C259 1.356 . S
N257 H262 0.984 . S
N257 H263 0.985 . S
C258 C252 1.379 . S
C258 C255 1.363 1_565 S
C258 N256 1.356 . S
C259 C253 1.363 . S
C259 C254 1.379 1_565 S
C259 N257 1.356 . S
N260 C252 1.356 . S
N260 H266 0.984 . S
N260 H267 0.984 . S
N261 C254 1.356 . S
N261 H264 0.984 . S
N261 H265 0.985 . S
H262 N257 0.984 . S
H263 N257 0.985 . S
H264 N261 0.984 . S
H265 N261 0.985 . S
H266 N260 0.984 . S
H267 N260 0.984 . S
H268 N256 0.984 . S
H269 N256 0.985 1_545 S
C270 C271 1.363 . S
C270 C276 1.379 . S
C270 N278 1.356 . S
C271 C270 1.363 . S
C271 C277 1.363 . S
C272 C273 1.363 . S
C272 C277 1.379 . S
C272 N279 1.356 . S
C273 C272 1.363 . S
C273 C276 1.363 . S
N274 C276 1.356 . S
N274 H286 0.984 . S
N274 H287 0.985 1_455 S
N275 C277 1.356 . S
N275 H280 0.984 . S
N275 H281 0.985 . S
C276 C270 1.379 . S
C276 C273 1.363 . S
C276 N274 1.356 . S
C277 C271 1.363 . S
C277 C272 1.379 . S
C277 N275 1.356 . S
N278 C270 1.356 . S
N278 H284 0.984 . S
N278 H285 0.984 . S
N279 C272 1.356 . S
N279 H282 0.984 . S
N279 H283 0.985 . S
H280 N275 0.984 . S
H281 N275 0.985 . S
H282 N279 0.984 . S
H283 N279 0.985 . S
H284 N278 0.984 . S
H285 N278 0.984 . S
H286 N274 0.984 . S
H287 N274 0.985 1_655 S
C288 C289 1.363 . S
C288 C294 1.379 . S
C288 N296 1.356 . S
C289 C288 1.363 . S
C289 C295 1.363 . S
C290 C291 1.363 1_565 S
C290 C295 1.379 . S
C290 N297 1.356 1_565 S
C291 C290 1.363 1_545 S
C291 C294 1.363 1_545 S
N292 C294 1.356 1_545 S
N292 H304 0.984 1_545 S
N292 H305 0.985 . S
N293 C295 1.356 . S
N293 H298 0.984 . S
N293 H299 0.985 . S
C294 C288 1.379 . S
C294 C291 1.363 1_565 S
C294 N292 1.356 1_565 S
C295 C289 1.363 . S
C295 C290 1.379 . S
C295 N293 1.356 . S
N296 C288 1.356 . S
N296 H302 0.984 . S
N296 H303 0.984 . S
N297 C290 1.356 1_545 S
N297 H300 0.984 . S
N297 H301 0.985 . S
H298 N293 0.984 . S
H299 N293 0.985 . S
H300 N297 0.984 . S
H301 N297 0.985 . S
H302 N296 0.984 . S
H303 N296 0.984 . S
H304 N292 0.984 1_565 S
H305 N292 0.985 . S
C306 C307 1.363 . S
C306 C312 1.379 . S
C306 N314 1.356 . S
C307 C306 1.363 . S
C307 C313 1.363 . S
C308 C309 1.363 . S
C308 C313 1.379 . S
C308 N315 1.356 . S
C309 C308 1.363 . S
C309 C312 1.363 . S
N310 C312 1.356 . S
N310 H322 0.984 1_455 S
N310 H323 0.985 . S
N311 C313 1.356 . S
N311 H316 0.984 . S
N311 H317 0.985 . S
C312 C306 1.379 . S
C312 C309 1.363 . S
C312 N310 1.356 . S
C313 C307 1.363 . S
C313 C308 1.379 . S
C313 N311 1.356 . S
N314 C306 1.356 . S
N314 H320 0.984 . S
N314 H321 0.984 1_554 S
N315 C308 1.356 . S
N315 H318 0.984 . S
N315 H319 0.985 . S
H316 N311 0.984 . S
H317 N311 0.985 . S
H318 N315 0.984 . S
H319 N315 0.985 . S
H320 N314 0.984 . S
H321 N314 0.984 1_556 S
H322 N310 0.984 1_655 S
H323 N310 0.985 . S
C324 C325 1.363 . S
C324 C330 1.379 . S
C324 N332 1.356 . S
C325 C324 1.363 . S
C325 C331 1.363 . S
C326 C327 1.363 . S
C326 C331 1.379 . S
C326 N333 1.356 . S
C327 C326 1.363 . S
C327 C330 1.363 . S
N328 C330 1.356 . S
N328 H340 0.984 . S
N328 H341 0.985 . S
N329 C331 1.356 . S
N329 H334 0.984 . S
N329 H335 0.985 . S
C330 C324 1.379 . S
C330 C327 1.363 . S
C330 N328 1.356 . S
C331 C325 1.363 . S
C331 C326 1.379 . S
C331 N329 1.356 . S
N332 C324 1.356 . S
N332 H338 0.984 . S
N332 H339 0.984 . S
N333 C326 1.356 . S
N333 H336 0.984 . S
N333 H337 0.985 . S
H334 N329 0.984 . S
H335 N329 0.985 . S
H336 N333 0.984 . S
H337 N333 0.985 . S
H338 N332 0.984 . S
H339 N332 0.984 . S
H340 N328 0.984 . S
H341 N328 0.985 . S
C342 C343 1.363 . S
C342 C348 1.379 . S
C342 N350 1.356 . S
C343 C342 1.363 . S
C343 C349 1.363 . S
C344 C345 1.363 . S
C344 C349 1.379 . S
C344 N351 1.356 . S
C345 C344 1.363 . S
C345 C348 1.363 . S
N346 C348 1.356 . S
N346 H358 0.984 . S
N346 H359 0.985 . S
N347 C349 1.356 . S
N347 H352 0.984 . S
N347 H353 0.985 . S
C348 C342 1.379 . S
C348 C345 1.363 . S
C348 N346 1.356 . S
C349 C343 1.363 . S
C349 C344 1.379 . S
C349 N347 1.356 . S
N350 C342 1.356 . S
N350 H356 0.984 . S
N350 H357 0.984 . S
N351 C344 1.356 . S
N351 H354 0.984 . S
N351 H355 0.985 . S
H352 N347 0.984 . S
H353 N347 0.985 . S
H354 N351 0.984 . S
H355 N351 0.985 . S
H356 N350 0.984 . S
H357 N350 0.984 . S
H358 N346 0.984 . S
H359 N346 0.985 . S
C360 C361 1.363 . S
C360 C366 1.379 . S
C360 N368 1.356 . S
C361 C360 1.363 . S
C361 C367 1.363 . S
C362 C363 1.363 . S
C362 C367 1.379 . S
C362 N369 1.356 1_545 S
C363 C362 1.363 . S
C363 C366 1.363 . S
N364 C366 1.356 . S
N364 H376 0.984 . S
N364 H377 0.985 1_556 S
N365 C367 1.356 . S
N365 H370 0.984 . S
N365 H371 0.985 . S
C366 C360 1.379 . S
C366 C363 1.363 . S
C366 N364 1.356 . S
C367 C361 1.363 . S
C367 C362 1.379 . S
C367 N365 1.356 . S
N368 C360 1.356 . S
N368 H374 0.984 . S
N368 H375 0.984 . S
N369 C362 1.356 1_565 S
N369 H372 0.984 . S
N369 H373 0.985 . S
H370 N365 0.984 . S
H371 N365 0.985 . S
H372 N369 0.984 . S
H373 N369 0.985 . S
H374 N368 0.984 . S
H375 N368 0.984 . S
H376 N364 0.984 . S
H377 N364 0.985 1_554 S
C378 C379 1.363 . S
C378 C384 1.379 1_565 S
C378 N386 1.356 . S
C379 C378 1.363 . S
C379 C385 1.363 . S
C380 C381 1.363 . S
C380 C385 1.379 . S
C380 N387 1.356 . S
C381 C380 1.363 . S
C381 C384 1.363 1_565 S
N382 C384 1.356 . S
N382 H394 0.984 . S
N382 H395 0.985 . S
N383 C385 1.356 . S
N383 H388 0.984 . S
N383 H389 0.985 . S
C384 C378 1.379 1_545 S
C384 C381 1.363 1_545 S
C384 N382 1.356 . S
C385 C379 1.363 . S
C385 C380 1.379 . S
C385 N383 1.356 . S
N386 C378 1.356 . S
N386 H392 0.984 . S
N386 H393 0.984 . S
N387 C380 1.356 . S
N387 H390 0.984 . S
N387 H391 0.985 . S
H388 N383 0.984 . S
H389 N383 0.985 . S
H390 N387 0.984 . S
H391 N387 0.985 . S
H392 N386 0.984 . S
H393 N386 0.984 . S
H394 N382 0.984 . S
H395 N382 0.985 . S
C396 C397 1.363 . S
C396 C402 1.379 . S
C396 N404 1.356 . S
C397 C396 1.363 . S
C397 C403 1.363 . S
C398 C399 1.363 1_455 S
C398 C403 1.379 . S
C398 N405 1.356 1_455 S
C399 C398 1.363 1_655 S
C399 C402 1.363 1_655 S
N400 C402 1.356 1_655 S
N400 H412 0.984 . S
N400 H413 0.985 . S
N401 C403 1.356 . S
N401 H406 0.984 . S
N401 H407 0.985 . S
C402 C396 1.379 . S
C402 C399 1.363 1_455 S
C402 N400 1.356 1_455 S
C403 C397 1.363 . S
C403 C398 1.379 . S
C403 N401 1.356 . S
N404 C396 1.356 . S
N404 H410 0.984 . S
N404 H411 0.984 . S
N405 C398 1.356 1_655 S
N405 H408 0.984 . S
N405 H409 0.985 . S
H406 N401 0.984 . S
H407 N401 0.985 . S
H408 N405 0.984 . S
H409 N405 0.985 . S
H410 N404 0.984 . S
H411 N404 0.984 . S
H412 N400 0.984 . S
H413 N400 0.985 . S
C253 C66 1.572 . S
C255 C75 1.572 . S
C271 C159 1.572 . S
C273 C150 1.572 . S
C289 C243 1.572 . S
C291 C234 1.572 . S
C307 C240 1.581 1_554 S
C309 C56 1.710 . S
C325 C147 1.536 . S
C327 C67 1.720 . S
C343 C224 1.711 . S
C345 C156 1.581 . S
C361 C235 1.719 . S
C363 C63 1.535 1_556 S
C379 C72 1.581 . S
C381 C140 1.711 1_565 S
C397 C231 1.536 . S
C399 C151 1.719 . S
